# Generated by pormake.
# Topology ptr, (4,4)-cn, num edge types: 1
# Building blocks:
#     Node 0, Type 0, BuildingBlock: GALJAG_clean_sbu_0, # of connection points: 4
#     Node 1, Type 0, BuildingBlock: GALJAG_clean_sbu_0, # of connection points: 4
#     Node 2, Type 0, BuildingBlock: GALJAG_clean_sbu_0, # of connection points: 4
#     Node 3, Type 0, BuildingBlock: GALJAG_clean_sbu_0, # of connection points: 4
#     Node 4, Type 0, BuildingBlock: GALJAG_clean_sbu_0, # of connection points: 4
#     Node 5, Type 0, BuildingBlock: GALJAG_clean_sbu_0, # of connection points: 4
#     Node 6, Type 0, BuildingBlock: GALJAG_clean_sbu_0, # of connection points: 4
#     Node 7, Type 0, BuildingBlock: GALJAG_clean_sbu_0, # of connection points: 4
#     Node 8, Type 0, BuildingBlock: GALJAG_clean_sbu_0, # of connection points: 4
#     Node 9, Type 0, BuildingBlock: GALJAG_clean_sbu_0, # of connection points: 4
#     Node 10, Type 0, BuildingBlock: GALJAG_clean_sbu_0, # of connection points: 4
#     Node 11, Type 0, BuildingBlock: GALJAG_clean_sbu_0, # of connection points: 4
#     Node 12, Type 0, BuildingBlock: GALJAG_clean_sbu_0, # of connection points: 4
#     Node 13, Type 0, BuildingBlock: GALJAG_clean_sbu_0, # of connection points: 4
#     Node 14, Type 0, BuildingBlock: GALJAG_clean_sbu_0, # of connection points: 4
#     Node 15, Type 0, BuildingBlock: GALJAG_clean_sbu_0, # of connection points: 4
#     Node 16, Type 0, BuildingBlock: GALJAG_clean_sbu_0, # of connection points: 4
#     Node 17, Type 0, BuildingBlock: GALJAG_clean_sbu_0, # of connection points: 4
#     Node 18, Type 1, BuildingBlock: MUDLON_clean_linker_0, # of connection points: 4
#     Node 19, Type 1, BuildingBlock: MUDLON_clean_linker_0, # of connection points: 4
#     Node 20, Type 1, BuildingBlock: MUDLON_clean_linker_0, # of connection points: 4
#     Node 21, Type 1, BuildingBlock: MUDLON_clean_linker_0, # of connection points: 4
#     Node 22, Type 1, BuildingBlock: MUDLON_clean_linker_0, # of connection points: 4
#     Node 23, Type 1, BuildingBlock: MUDLON_clean_linker_0, # of connection points: 4
#     Node 24, Type 1, BuildingBlock: MUDLON_clean_linker_0, # of connection points: 4
#     Node 25, Type 1, BuildingBlock: MUDLON_clean_linker_0, # of connection points: 4
#     Node 26, Type 1, BuildingBlock: MUDLON_clean_linker_0, # of connection points: 4
#     Node 27, Type 1, BuildingBlock: MUDLON_clean_linker_0, # of connection points: 4
#     Node 28, Type 1, BuildingBlock: MUDLON_clean_linker_0, # of connection points: 4
#     Node 29, Type 1, BuildingBlock: MUDLON_clean_linker_0, # of connection points: 4
#     Node 30, Type 1, BuildingBlock: MUDLON_clean_linker_0, # of connection points: 4
#     Node 31, Type 1, BuildingBlock: MUDLON_clean_linker_0, # of connection points: 4
#     Node 32, Type 1, BuildingBlock: MUDLON_clean_linker_0, # of connection points: 4
#     Node 33, Type 1, BuildingBlock: MUDLON_clean_linker_0, # of connection points: 4
#     Node 34, Type 1, BuildingBlock: MUDLON_clean_linker_0, # of connection points: 4
#     Node 35, Type 1, BuildingBlock: MUDLON_clean_linker_0, # of connection points: 4
#     Edge 36, Type (0, 1), BuildingBlock: ZUJKAS_clean_linker_0, # of connection points: 2
#     Edge 37, Type (0, 1), BuildingBlock: ZUJKAS_clean_linker_0, # of connection points: 2
#     Edge 38, Type (0, 1), BuildingBlock: ZUJKAS_clean_linker_0, # of connection points: 2
#     Edge 39, Type (0, 1), BuildingBlock: ZUJKAS_clean_linker_0, # of connection points: 2
#     Edge 40, Type (0, 1), BuildingBlock: ZUJKAS_clean_linker_0, # of connection points: 2
#     Edge 41, Type (0, 1), BuildingBlock: ZUJKAS_clean_linker_0, # of connection points: 2
#     Edge 42, Type (0, 1), BuildingBlock: ZUJKAS_clean_linker_0, # of connection points: 2
#     Edge 43, Type (0, 1), BuildingBlock: ZUJKAS_clean_linker_0, # of connection points: 2
#     Edge 44, Type (0, 1), BuildingBlock: ZUJKAS_clean_linker_0, # of connection points: 2
#     Edge 45, Type (0, 1), BuildingBlock: ZUJKAS_clean_linker_0, # of connection points: 2
#     Edge 46, Type (0, 1), BuildingBlock: ZUJKAS_clean_linker_0, # of connection points: 2
#     Edge 47, Type (0, 1), BuildingBlock: ZUJKAS_clean_linker_0, # of connection points: 2
#     Edge 48, Type (0, 1), BuildingBlock: ZUJKAS_clean_linker_0, # of connection points: 2
#     Edge 49, Type (0, 1), BuildingBlock: ZUJKAS_clean_linker_0, # of connection points: 2
#     Edge 50, Type (0, 1), BuildingBlock: ZUJKAS_clean_linker_0, # of connection points: 2
#     Edge 51, Type (0, 1), BuildingBlock: ZUJKAS_clean_linker_0, # of connection points: 2
#     Edge 52, Type (0, 1), BuildingBlock: ZUJKAS_clean_linker_0, # of connection points: 2
#     Edge 53, Type (0, 1), BuildingBlock: ZUJKAS_clean_linker_0, # of connection points: 2
#     Edge 54, Type (0, 1), BuildingBlock: ZUJKAS_clean_linker_0, # of connection points: 2
#     Edge 55, Type (0, 1), BuildingBlock: ZUJKAS_clean_linker_0, # of connection points: 2
#     Edge 56, Type (0, 1), BuildingBlock: ZUJKAS_clean_linker_0, # of connection points: 2
#     Edge 57, Type (0, 1), BuildingBlock: ZUJKAS_clean_linker_0, # of connection points: 2
#     Edge 58, Type (0, 1), BuildingBlock: ZUJKAS_clean_linker_0, # of connection points: 2
#     Edge 59, Type (0, 1), BuildingBlock: ZUJKAS_clean_linker_0, # of connection points: 2
#     Edge 60, Type (0, 1), BuildingBlock: ZUJKAS_clean_linker_0, # of connection points: 2
#     Edge 61, Type (0, 1), BuildingBlock: ZUJKAS_clean_linker_0, # of connection points: 2
#     Edge 62, Type (0, 1), BuildingBlock: ZUJKAS_clean_linker_0, # of connection points: 2
#     Edge 63, Type (0, 1), BuildingBlock: ZUJKAS_clean_linker_0, # of connection points: 2
#     Edge 64, Type (0, 1), BuildingBlock: ZUJKAS_clean_linker_0, # of connection points: 2
#     Edge 65, Type (0, 1), BuildingBlock: ZUJKAS_clean_linker_0, # of connection points: 2
#     Edge 66, Type (0, 1), BuildingBlock: ZUJKAS_clean_linker_0, # of connection points: 2
#     Edge 67, Type (0, 1), BuildingBlock: ZUJKAS_clean_linker_0, # of connection points: 2
#     Edge 68, Type (0, 1), BuildingBlock: ZUJKAS_clean_linker_0, # of connection points: 2
#     Edge 69, Type (0, 1), BuildingBlock: ZUJKAS_clean_linker_0, # of connection points: 2
#     Edge 70, Type (0, 1), BuildingBlock: ZUJKAS_clean_linker_0, # of connection points: 2
#     Edge 71, Type (0, 1), BuildingBlock: ZUJKAS_clean_linker_0, # of connection points: 2
#     Edge 72, Type (0, 1), BuildingBlock: ZUJKAS_clean_linker_0, # of connection points: 2
#     Edge 73, Type (0, 1), BuildingBlock: ZUJKAS_clean_linker_0, # of connection points: 2
#     Edge 74, Type (0, 1), BuildingBlock: ZUJKAS_clean_linker_0, # of connection points: 2
#     Edge 75, Type (0, 1), BuildingBlock: ZUJKAS_clean_linker_0, # of connection points: 2
#     Edge 76, Type (0, 1), BuildingBlock: ZUJKAS_clean_linker_0, # of connection points: 2
#     Edge 77, Type (0, 1), BuildingBlock: ZUJKAS_clean_linker_0, # of connection points: 2
#     Edge 78, Type (0, 1), BuildingBlock: ZUJKAS_clean_linker_0, # of connection points: 2
#     Edge 79, Type (0, 1), BuildingBlock: ZUJKAS_clean_linker_0, # of connection points: 2
#     Edge 80, Type (0, 1), BuildingBlock: ZUJKAS_clean_linker_0, # of connection points: 2
#     Edge 81, Type (0, 1), BuildingBlock: ZUJKAS_clean_linker_0, # of connection points: 2
#     Edge 82, Type (0, 1), BuildingBlock: ZUJKAS_clean_linker_0, # of connection points: 2
#     Edge 83, Type (0, 1), BuildingBlock: ZUJKAS_clean_linker_0, # of connection points: 2
#     Edge 84, Type (0, 1), BuildingBlock: ZUJKAS_clean_linker_0, # of connection points: 2
#     Edge 85, Type (0, 1), BuildingBlock: ZUJKAS_clean_linker_0, # of connection points: 2
#     Edge 86, Type (0, 1), BuildingBlock: ZUJKAS_clean_linker_0, # of connection points: 2
#     Edge 87, Type (0, 1), BuildingBlock: ZUJKAS_clean_linker_0, # of connection points: 2
#     Edge 88, Type (0, 1), BuildingBlock: ZUJKAS_clean_linker_0, # of connection points: 2
#     Edge 89, Type (0, 1), BuildingBlock: ZUJKAS_clean_linker_0, # of connection points: 2
#     Edge 90, Type (0, 1), BuildingBlock: ZUJKAS_clean_linker_0, # of connection points: 2
#     Edge 91, Type (0, 1), BuildingBlock: ZUJKAS_clean_linker_0, # of connection points: 2
#     Edge 92, Type (0, 1), BuildingBlock: ZUJKAS_clean_linker_0, # of connection points: 2
#     Edge 93, Type (0, 1), BuildingBlock: ZUJKAS_clean_linker_0, # of connection points: 2
#     Edge 94, Type (0, 1), BuildingBlock: ZUJKAS_clean_linker_0, # of connection points: 2
#     Edge 95, Type (0, 1), BuildingBlock: ZUJKAS_clean_linker_0, # of connection points: 2
#     Edge 96, Type (0, 1), BuildingBlock: ZUJKAS_clean_linker_0, # of connection points: 2
#     Edge 97, Type (0, 1), BuildingBlock: ZUJKAS_clean_linker_0, # of connection points: 2
#     Edge 98, Type (0, 1), BuildingBlock: ZUJKAS_clean_linker_0, # of connection points: 2
#     Edge 99, Type (0, 1), BuildingBlock: ZUJKAS_clean_linker_0, # of connection points: 2
#     Edge 100, Type (0, 1), BuildingBlock: ZUJKAS_clean_linker_0, # of connection points: 2
#     Edge 101, Type (0, 1), BuildingBlock: ZUJKAS_clean_linker_0, # of connection points: 2
#     Edge 102, Type (0, 1), BuildingBlock: ZUJKAS_clean_linker_0, # of connection points: 2
#     Edge 103, Type (0, 1), BuildingBlock: ZUJKAS_clean_linker_0, # of connection points: 2
#     Edge 104, Type (0, 1), BuildingBlock: ZUJKAS_clean_linker_0, # of connection points: 2
#     Edge 105, Type (0, 1), BuildingBlock: ZUJKAS_clean_linker_0, # of connection points: 2
#     Edge 106, Type (0, 1), BuildingBlock: ZUJKAS_clean_linker_0, # of connection points: 2
#     Edge 107, Type (0, 1), BuildingBlock: ZUJKAS_clean_linker_0, # of connection points: 2
# Relax obj value: 0.052
# Max RMSD: 0.089
# Mean RMSD: 0.080
data_MOF--net-ptr--node1-GALJAG_clean_sbu_0--node2-MUDLON_clean_linker_0--edge1-ZUJKAS_clean_linker_0
_symmetry_space_group_name_H-M    P1
_symmetry_Int_Tables_number       1
_symmetry_cell_setting            triclinic
loop_
_symmetry_equiv_pos_as_xyz
'x, y, z'
_cell_length_a     126.9731
_cell_length_b     127.1029
_cell_length_c     81.478085
_cell_angle_alpha  89.984933
_cell_angle_beta   90.041127
_cell_angle_gamma 120.11166
loop_
_atom_site_label
_atom_site_type_symbol
_atom_site_fract_x
_atom_site_fract_y
_atom_site_fract_z
_atom_type_partial_charge
In0 In 0.01 0.37516 0.01647 0.0
O1 O 0.00238 0.37786 0.04056 0.0
O2 O 0.01865 0.39275 0.03112 0.0
C3 C 0.99152 0.35276 0.00863 0.0
C4 C 0.02892 0.37213 0.02492 0.0
C5 C 0.00873 0.38762 0.99038 0.0
O6 O 0.99073 0.35904 0.02006 0.0
O7 O 0.00164 0.35773 0.00133 0.0
O8 O 0.01623 0.38387 0.99106 0.0
O9 O 0.00196 0.3851 0.00279 0.0
C10 C 0.01073 0.38879 0.04233 0.0
O11 O 0.02981 0.37968 0.01415 0.0
O12 O 0.01848 0.36603 0.03122 0.0
In13 In 0.64572 0.6472 0.0159 0.0
O14 O 0.64314 0.63557 0.03856 0.0
O15 O 0.62903 0.63928 0.03249 0.0
C16 C 0.66778 0.65107 0.00611 0.0
C17 C 0.64986 0.66952 0.02463 0.0
C18 C 0.63153 0.63298 0.99117 0.0
O19 O 0.66287 0.64573 0.01936 0.0
O20 O 0.66164 0.65455 0.99796 0.0
O21 O 0.63497 0.64417 0.99207 0.0
O22 O 0.63519 0.62902 0.00271 0.0
C23 C 0.63282 0.63412 0.04213 0.0
O24 O 0.64291 0.66357 0.0129 0.0
O25 O 0.65478 0.66428 0.03176 0.0
In26 In 0.37412 0.01119 0.01611 0.0
O27 O 0.37886 0.0311 0.01558 0.0
O28 O 0.36373 0.01842 0.00148 0.0
C29 C 0.38764 0.01244 0.04249 0.0
C30 C 0.38646 0.00967 0.99 0.0
C31 C 0.35228 0.99295 0.02638 0.0
O32 O 0.38447 0.02023 0.03973 0.0
O33 O 0.38398 0.00404 0.03199 0.0
O34 O 0.35826 0.99163 0.015 0.0
O35 O 0.35727 0.00348 0.03251 0.0
C36 C 0.37037 0.02933 0.0059 0.0
O37 O 0.3754 0.00204 0.99259 0.0
O38 O 0.39126 0.01804 0.00052 0.0
In39 In 0.00854 0.64591 0.01722 0.0
O40 O 0.01564 0.64426 0.99205 0.0
O41 O 0.00229 0.62806 0.00367 0.0
C42 C 0.02729 0.66768 0.02683 0.0
C43 C 0.98996 0.64927 0.00774 0.0
C44 C 0.0082 0.63278 0.04344 0.0
O45 O 0.02815 0.66174 0.015 0.0
O46 O 0.01699 0.66269 0.03366 0.0
O47 O 1.00049 0.63621 0.04153 0.0
O48 O 0.01605 0.63603 0.03218 0.0
C49 C 0.00907 0.63283 0.99139 0.0
O50 O 0.98857 0.64126 0.01805 0.0
O51 O 1.00068 0.6556 0.00246 0.0
In52 In 0.37323 0.37431 0.01755 0.0
O53 O 0.37537 0.3844 0.99337 0.0
O54 O 0.39082 0.38418 0.00296 0.0
C55 C 0.35108 0.37036 0.0269 0.0
C56 C 0.36964 0.35245 0.00766 0.0
C57 C 0.38653 0.38691 0.0439 0.0
O58 O 0.35776 0.37869 0.01699 0.0
O59 O 0.35554 0.36404 0.03195 0.0
O60 O 0.38295 0.37577 0.04182 0.0
O61 O 0.38335 0.39164 0.03277 0.0
C62 C 0.38648 0.38765 0.99166 0.0
O63 O 0.37676 0.35838 0.01925 0.0
O64 O 0.3643 0.35751 0.00115 0.0
In65 In 0.64615 0.00866 0.01651 0.0
O66 O 0.64335 0.01628 0.04054 0.0
O67 O 0.62787 0.00155 0.02937 0.0
C68 C 0.66859 0.027 0.00849 0.0
C69 C 0.65016 0.99065 0.02647 0.0
C70 C 0.63331 0.00824 0.98981 0.0
O71 O 0.66182 0.02826 0.01869 0.0
O72 O 0.66408 0.01648 0.00244 0.0
O73 O 0.63345 0.99891 0.99487 0.0
O74 O 0.63969 0.01773 0.99813 0.0
C75 C 0.63203 0.00894 0.04116 0.0
O76 O 0.64526 0.99033 0.01285 0.0
O77 O 0.65309 1.00004 0.03489 0.0
In78 In 0.67698 0.70884 0.34938 0.0
O79 O 0.66938 0.71164 0.3734 0.0
O80 O 0.68541 0.72664 0.3637 0.0
C81 C 0.65788 0.68696 0.34076 0.0
C82 C 0.69472 0.70438 0.35923 0.0
C83 C 0.67835 0.72208 0.32263 0.0
O84 O 0.65679 0.69417 0.35031 0.0
O85 O 0.66857 0.69075 0.3357 0.0
O86 O 0.68591 0.71861 0.3254 0.0
O87 O 0.67011 0.71885 0.33331 0.0
C88 C 0.67757 0.72264 0.375 0.0
O89 O 0.69592 0.71102 0.34704 0.0
O90 O 0.68455 0.69993 0.36636 0.0
In91 In 0.31238 0.97984 0.34984 0.0
O92 O 0.30937 0.96745 0.37189 0.0
O93 O 0.29601 0.97241 0.3669 0.0
C94 C 0.3347 0.98439 0.34047 0.0
C95 C 0.31645 0.00218 0.3582 0.0
C96 C 0.29877 0.96565 0.32469 0.0
O97 O 0.33 0.97941 0.354 0.0
O98 O 0.3282 0.98714 0.3318 0.0
O99 O 0.30139 0.97659 0.32619 0.0
O100 O 0.30297 0.96192 0.33586 0.0
C101 C 0.29937 0.96658 0.37595 0.0
O102 O 0.30863 0.99565 0.34759 0.0
O103 O 0.32224 0.99749 0.36439 0.0
In104 In 0.03882 0.3433 0.34815 0.0
O105 O 0.04335 0.36312 0.35017 0.0
O106 O 0.0299 0.35176 0.33291 0.0
C107 C 0.05098 0.34261 0.37493 0.0
C108 C 0.05264 0.34347 0.32278 0.0
C109 C 0.01649 0.3249 0.35634 0.0
O110 O 0.04875 0.3511 0.37243 0.0
O111 O 0.04703 0.33448 0.364 0.0
O112 O 0.023 0.32379 0.34555 0.0
O113 O 0.02119 0.3353 0.36283 0.0
C114 C 0.03593 0.36221 0.33918 0.0
O115 O 0.04123 0.33658 0.32305 0.0
O116 O 0.05699 0.35017 0.33524 0.0
In117 In 0.67486 0.97965 0.34943 0.0
O118 O 0.68329 0.97755 0.32573 0.0
O119 O 0.66773 0.96191 0.33517 0.0
C120 C 0.69266 0.00215 0.35843 0.0
C121 C 0.65646 0.98296 0.33921 0.0
C122 C 0.67413 0.96637 0.3758 0.0
O123 O 0.69451 0.9955 0.34875 0.0
O124 O 0.68184 0.9975 0.36345 0.0
O125 O 0.66532 0.96779 0.37182 0.0
O126 O 0.68329 0.97169 0.36656 0.0
C127 C 0.6757 0.96636 0.32407 0.0
O128 O 0.65601 0.9776 0.35245 0.0
O129 O 0.66621 0.98673 0.33122 0.0
In130 In 0.04028 0.70941 0.34978 0.0
O131 O 0.04187 0.72086 0.32721 0.0
O132 O 0.05731 0.71954 0.33394 0.0
C133 C 0.01809 0.70456 0.36035 0.0
C134 C 0.03601 0.68731 0.33967 0.0
C135 C 0.05451 0.72226 0.3754 0.0
O136 O 0.02374 0.71204 0.34898 0.0
O137 O 0.02358 0.69945 0.36625 0.0
O138 O 0.0543 0.7129 0.36982 0.0
O139 O 0.04756 0.72513 0.36806 0.0
C140 C 0.05274 0.72382 0.32411 0.0
O141 O 0.04178 0.69229 0.35266 0.0
O142 O 0.03231 0.69341 0.33188 0.0
In143 In 0.31377 0.34436 0.35048 0.0
O144 O 0.31102 0.32523 0.3474 0.0
O145 O 0.32305 0.33646 0.3661 0.0
C146 C 0.30014 0.3447 0.32522 0.0
C147 C 0.30005 0.34345 0.37632 0.0
C148 C 0.33588 0.36279 0.34139 0.0
O149 O 0.30349 0.33689 0.32632 0.0
O150 O 0.30367 0.35229 0.33682 0.0
O151 O 0.33052 0.36329 0.35416 0.0
O152 O 0.33015 0.35302 0.3334 0.0
C153 C 0.31809 0.32628 0.35898 0.0
O154 O 0.31055 0.35243 0.37378 0.0
O155 O 0.29656 0.33502 0.36588 0.0
In156 In 0.34514 0.04222 0.68213 0.0
O157 O 0.36441 0.04501 0.68126 0.0
O158 O 0.35218 0.03283 0.69909 0.0
C159 C 0.34654 0.05644 0.65654 0.0
C160 C 0.34351 0.05487 0.70773 0.0
C161 C 0.32769 0.02002 0.6717 0.0
O162 O 0.35498 0.05431 0.66001 0.0
O163 O 0.33745 0.05141 0.66594 0.0
O164 O 0.32642 0.02509 0.68424 0.0
O165 O 0.33779 0.02608 0.66452 0.0
C166 C 0.36274 0.03787 0.69301 0.0
O167 O 0.33464 0.04491 0.70296 0.0
O168 O 0.35316 0.05843 0.6996 0.0
In169 In 0.97948 0.31358 0.68343 0.0
O170 O 0.97548 0.32918 0.68167 0.0
O171 O 0.98849 0.33067 0.69932 0.0
C172 C 0.96612 0.30038 0.65746 0.0
C173 C 0.96649 0.30014 0.70945 0.0
C174 C 0.00163 0.31774 0.6738 0.0
O175 O 0.96891 0.31131 0.65963 0.0
O176 O 0.97012 0.29619 0.66829 0.0
O177 O 0.99533 0.30985 0.68444 0.0
O178 O 0.99683 0.3236 0.66819 0.0
C179 C 0.98276 0.3354 0.69297 0.0
O180 O 0.97758 0.3034 0.70748 0.0
O181 O 0.96205 0.30368 0.69838 0.0
In182 In 0.7071 0.67815 0.68243 0.0
O183 O 0.71112 0.69778 0.68451 0.0
O184 O 0.6976 0.6862 0.66749 0.0
C185 C 0.72011 0.67791 0.70859 0.0
C186 C 0.72037 0.67824 0.6564 0.0
C187 C 0.68493 0.65961 0.69105 0.0
O188 O 0.71698 0.68583 0.70678 0.0
O189 O 0.71666 0.67013 0.69723 0.0
O190 O 0.69104 0.65882 0.6794 0.0
O191 O 0.68996 0.66977 0.69824 0.0
C192 C 0.70347 0.69666 0.67376 0.0
O193 O 0.70936 0.67019 0.65838 0.0
O194 O 0.72466 0.68623 0.6675 0.0
In195 In 0.34402 0.31385 0.68186 0.0
O196 O 0.35245 0.31198 0.65802 0.0
O197 O 0.33665 0.29634 0.66704 0.0
C198 C 0.36142 0.33645 0.69099 0.0
C199 C 0.32511 0.31651 0.67224 0.0
C200 C 0.34505 0.30118 0.70786 0.0
O201 O 0.36319 0.33042 0.68013 0.0
O202 O 0.35087 0.33114 0.69708 0.0
O203 O 0.33633 0.30314 0.70574 0.0
O204 O 0.35315 0.30559 0.69692 0.0
C205 C 0.34471 0.30086 0.65603 0.0
O206 O 0.32431 0.30969 0.68403 0.0
O207 O 0.33543 0.32202 0.66549 0.0
In208 In 0.70689 0.04051 0.68381 0.0
O209 O 0.7091 0.05043 0.65943 0.0
O210 O 0.72433 0.0497 0.66885 0.0
C211 C 0.6851 0.03727 0.69347 0.0
C212 C 0.70261 0.01816 0.67504 0.0
C213 C 0.72025 0.05413 0.70944 0.0
O214 O 0.6908 0.04381 0.68129 0.0
O215 O 0.69034 0.03232 0.70058 0.0
O216 O 0.71691 0.04298 0.70814 0.0
O217 O 0.71687 0.05833 0.69786 0.0
C218 C 0.72009 0.05329 0.65755 0.0
O219 O 0.71089 0.02482 0.68504 0.0
O220 O 0.69644 0.02271 0.66969 0.0
In221 In 0.97914 0.67763 0.68337 0.0
O222 O 0.97768 0.65903 0.68078 0.0
O223 O 0.98661 0.66957 0.70189 0.0
C224 C 0.96529 0.67633 0.65734 0.0
C225 C 0.96625 0.67897 0.70887 0.0
C226 C 0.00155 0.69497 0.67334 0.0
O227 O 0.96619 0.66737 0.66213 0.0
O228 O 0.97139 0.6859 0.66562 0.0
O229 O 0.99525 0.69717 0.68321 0.0
O230 O 0.9966 0.68405 0.66867 0.0
C231 C 0.98312 0.6598 0.69408 0.0
O232 O 0.97717 0.68703 0.70618 0.0
O233 O 0.96188 0.67032 0.69872 0.0
H234 H 0.23558 0.36508 0.15162 0.0
N235 N 0.21487 0.34521 0.14004 0.0
H236 H 0.24588 0.36641 0.17751 0.0
H237 H 0.20723 0.32879 0.16395 0.0
H238 H 0.21752 0.33005 0.18997 0.0
H239 H 0.21985 0.32913 0.12696 0.0
H240 H 0.23571 0.33288 0.10702 0.0
H241 H 0.22828 0.36635 0.12219 0.0
H242 H 0.2438 0.37005 0.10197 0.0
H243 H 0.21873 0.36823 0.14517 0.0
H244 H 0.19135 0.33145 0.13341 0.0
H245 H 0.20357 0.3745 0.14392 0.0
H246 H 0.17578 0.33736 0.13351 0.0
H247 H 0.14748 0.38589 0.15892 0.0
H248 H 0.1344 0.38087 0.18314 0.0
H249 H 0.12743 0.34395 0.18133 0.0
H250 H 0.14054 0.34907 0.15707 0.0
H251 H 0.13106 0.35112 0.13043 0.0
H252 H 0.11743 0.35105 0.10934 0.0
H253 H 0.14344 0.38857 0.09805 0.0
H254 H 0.15679 0.38867 0.11981 0.0
H255 H 0.17246 0.38014 0.15835 0.0
H256 H 0.18772 0.3739 0.15803 0.0
H257 H 0.16713 0.34728 0.12054 0.0
N258 N 0.15198 0.37106 0.14127 0.0
H259 H 0.15152 0.35293 0.12194 0.0
C260 C 0.22063 0.34675 0.15581 0.0
C261 C 0.2315 0.35743 0.15995 0.0
C262 C 0.23742 0.35816 0.17473 0.0
C263 C 0.23255 0.3483 0.18572 0.0
C264 C 0.22145 0.33783 0.18182 0.0
C265 C 0.21559 0.33707 0.16697 0.0
C266 C 0.22278 0.34736 0.12616 0.0
C267 C 0.22488 0.33801 0.12127 0.0
C268 C 0.23394 0.34017 0.10982 0.0
C269 C 0.24112 0.35181 0.10295 0.0
C270 C 0.23859 0.36104 0.10723 0.0
C271 C 0.22956 0.35887 0.11875 0.0
C272 C 0.20621 0.34937 0.139 0.0
C273 C 0.20945 0.36149 0.1422 0.0
C274 C 0.20065 0.36503 0.14178 0.0
C275 C 0.18832 0.35646 0.13869 0.0
C276 C 0.18516 0.34432 0.13559 0.0
C277 C 0.19403 0.34087 0.13563 0.0
C278 C 0.14504 0.36792 0.15628 0.0
C279 C 0.14322 0.37676 0.16388 0.0
C280 C 0.13569 0.37385 0.17759 0.0
C281 C 0.12984 0.36199 0.18405 0.0
C282 C 0.13189 0.35317 0.17668 0.0
C283 C 0.13937 0.35608 0.16283 0.0
C284 C 0.1449 0.37 0.12684 0.0
C285 C 0.13391 0.35929 0.12328 0.0
C286 C 0.12614 0.35924 0.11108 0.0
C287 C 0.12923 0.36986 0.1021 0.0
C288 C 0.14063 0.38031 0.10496 0.0
C289 C 0.14834 0.38036 0.11725 0.0
C290 C 0.16087 0.36715 0.14015 0.0
C291 C 0.17126 0.37293 0.1501 0.0
C292 C 0.18005 0.36941 0.14974 0.0
C293 C 0.17882 0.36013 0.13911 0.0
C294 C 0.16838 0.35434 0.12907 0.0
C295 C 0.15943 0.35769 0.12973 0.0
H296 H 0.70456 0.81294 0.15289 0.0
N297 N 0.6855 0.8084 0.13439 0.0
H298 H 0.7045 0.80354 0.1792 0.0
H299 H 0.66535 0.79234 0.15187 0.0
H300 H 0.66518 0.78275 0.1778 0.0
H301 H 0.66195 0.7943 0.12401 0.0
H302 H 0.65466 0.77771 0.1039 0.0
H303 H 0.69893 0.80324 0.11482 0.0
H304 H 0.69179 0.78695 0.09439 0.0
H305 H 0.70133 0.82947 0.12102 0.0
H306 H 0.66653 0.81107 0.1453 0.0
H307 H 0.70054 0.84827 0.12057 0.0
H308 H 0.66589 0.82996 0.1457 0.0
H309 H 0.70147 0.90692 0.15342 0.0
H310 H 0.69964 0.91499 0.17985 0.0
H311 H 0.66413 0.88323 0.18675 0.0
H312 H 0.66605 0.8753 0.16019 0.0
H313 H 0.66144 0.88145 0.1341 0.0
H314 H 0.65446 0.89103 0.11425 0.0
H315 H 0.69089 0.91131 0.09446 0.0
H316 H 0.6977 0.90147 0.1142 0.0
H317 H 0.70335 0.88266 0.14136 0.0
H318 H 0.70283 0.86325 0.13959 0.0
H319 H 0.66408 0.84504 0.13035 0.0
N320 N 0.68498 0.88676 0.13861 0.0
H321 H 0.66467 0.8645 0.13285 0.0
C322 C 0.68502 0.80338 0.15041 0.0
C323 C 0.69595 0.80646 0.15842 0.0
C324 C 0.69588 0.80101 0.17336 0.0
C325 C 0.68483 0.79234 0.18057 0.0
C326 C 0.67385 0.7895 0.1727 0.0
C327 C 0.67393 0.79495 0.15777 0.0
C328 C 0.68099 0.79987 0.12101 0.0
C329 C 0.6685 0.79279 0.11752 0.0
C330 C 0.66436 0.78334 0.10603 0.0
C331 C 0.67266 0.78102 0.09763 0.0
C332 C 0.68518 0.78858 0.10055 0.0
C333 C 0.68928 0.79786 0.1122 0.0
C334 C 0.68413 0.81895 0.13337 0.0
C335 C 0.69351 0.82952 0.12624 0.0
C336 C 0.69308 0.84028 0.12616 0.0
C337 C 0.68325 0.84074 0.13338 0.0
C338 C 0.67358 0.82996 0.13997 0.0
C339 C 0.67397 0.81914 0.13988 0.0
C340 C 0.68394 0.89057 0.15487 0.0
C341 C 0.69338 0.90166 0.16077 0.0
C342 C 0.69232 0.90621 0.17589 0.0
C343 C 0.68173 0.89975 0.18541 0.0
C344 C 0.67235 0.88848 0.17962 0.0
C345 C 0.67345 0.8839 0.16448 0.0
C346 C 0.68014 0.89077 0.1256 0.0
C347 C 0.66786 0.88773 0.12526 0.0
C348 C 0.6639 0.89331 0.11398 0.0
C349 C 0.67213 0.90202 0.10285 0.0
C350 C 0.68427 0.90455 0.10272 0.0
C351 C 0.6882 0.89897 0.114 0.0
C352 C 0.68413 0.87508 0.13708 0.0
C353 C 0.69476 0.87446 0.13891 0.0
C354 C 0.69444 0.86335 0.13776 0.0
C355 C 0.68343 0.85254 0.13461 0.0
C356 C 0.67271 0.85315 0.13288 0.0
C357 C 0.67304 0.86432 0.13417 0.0
H358 H 0.13631 0.78636 0.15325 0.0
N359 N 0.1372 0.80549 0.13636 0.0
H360 H 0.12624 0.77814 0.17933 0.0
H361 H 0.12629 0.8141 0.15554 0.0
H362 H 0.11626 0.80598 0.18202 0.0
H363 H 0.11844 0.80128 0.11755 0.0
H364 H 0.10774 0.78475 0.09775 0.0
H365 H 0.14454 0.78965 0.12609 0.0
H366 H 0.13374 0.77291 0.10652 0.0
H367 H 0.15593 0.80475 0.15247 0.0
H368 H 0.14775 0.82549 0.11817 0.0
H369 H 0.17719 0.82044 0.1524 0.0
H370 H 0.1693 0.84094 0.117 0.0
H371 H 0.24207 0.8709 0.16067 0.0
H372 H 0.24961 0.88218 0.18642 0.0
H373 H 0.22289 0.89365 0.18274 0.0
H374 H 0.21564 0.88261 0.15702 0.0
H375 H 0.22442 0.89039 0.13044 0.0
H376 H 0.23791 0.90521 0.11032 0.0
H377 H 0.25467 0.88337 0.10145 0.0
H378 H 0.24087 0.86841 0.1214 0.0
H379 H 0.21664 0.84648 0.14187 0.0
H380 H 0.19557 0.83009 0.13881 0.0
H381 H 0.1844 0.85684 0.13179 0.0
N382 N 0.22515 0.87024 0.14088 0.0
H383 H 0.20549 0.87295 0.13354 0.0
C384 C 0.13206 0.8009 0.15237 0.0
C385 C 0.13206 0.79079 0.15941 0.0
C386 C 0.12633 0.78612 0.17445 0.0
C387 C 0.12044 0.7914 0.18277 0.0
C388 C 0.12061 0.80162 0.17584 0.0
C389 C 0.12639 0.80632 0.1608 0.0
C390 C 0.13218 0.79663 0.12335 0.0
C391 C 0.12195 0.79525 0.11492 0.0
C392 C 0.11588 0.78583 0.10362 0.0
C393 C 0.11988 0.77751 0.10065 0.0
C394 C 0.13041 0.77914 0.10868 0.0
C395 C 0.13659 0.78869 0.11984 0.0
C396 C 0.15011 0.81406 0.13557 0.0
C397 C 0.15868 0.81262 0.14477 0.0
C398 C 0.17098 0.82162 0.14454 0.0
C399 C 0.17509 0.83212 0.13479 0.0
C400 C 0.16653 0.83321 0.12502 0.0
C401 C 0.1542 0.82432 0.12552 0.0
C402 C 0.22829 0.87583 0.15688 0.0
C403 C 0.23775 0.87571 0.16559 0.0
C404 C 0.24201 0.88214 0.1803 0.0
C405 C 0.23688 0.88887 0.1866 0.0
C406 C 0.22715 0.8887 0.1781 0.0
C407 C 0.22291 0.88227 0.16338 0.0
C408 C 0.23162 0.87822 0.1274 0.0
C409 C 0.23075 0.8886 0.12391 0.0
C410 C 0.23859 0.89717 0.11248 0.0
C411 C 0.24746 0.89555 0.10436 0.0
C412 C 0.24788 0.88486 0.10733 0.0
C413 C 0.24003 0.87631 0.11874 0.0
C414 C 0.21267 0.86093 0.13821 0.0
C415 C 0.20961 0.84874 0.13949 0.0
C416 C 0.19752 0.83939 0.1379 0.0
C417 C 0.18813 0.84205 0.13527 0.0
C418 C 0.1913 0.85433 0.13363 0.0
C419 C 0.20344 0.86366 0.13489 0.0
H420 H 0.38058 0.24281 0.87304 0.0
N421 N 0.36382 0.22577 0.89218 0.0
H422 H 0.37741 0.25093 0.84745 0.0
H423 H 0.34213 0.217 0.87561 0.0
H424 H 0.33892 0.2248 0.84999 0.0
H425 H 0.34291 0.22492 0.90274 0.0
H426 H 0.34157 0.23811 0.92336 0.0
H427 H 0.38136 0.24112 0.91204 0.0
H428 H 0.38019 0.25457 0.93251 0.0
H429 H 0.37913 0.21737 0.89181 0.0
H430 H 0.34122 0.20597 0.89816 0.0
H431 H 0.37441 0.1963 0.89442 0.0
H432 H 0.33621 0.18488 0.89941 0.0
H433 H 0.36047 0.13817 0.88022 0.0
H434 H 0.36056 0.12863 0.8544 0.0
H435 H 0.32245 0.11684 0.8476 0.0
H436 H 0.3226 0.12688 0.87334 0.0
H437 H 0.32597 0.11749 0.91006 0.0
H438 H 0.33137 0.10636 0.92952 0.0
H439 H 0.36881 0.13564 0.92865 0.0
H440 H 0.36331 0.14654 0.90879 0.0
H441 H 0.36073 0.15717 0.87954 0.0
H442 H 0.36611 0.17829 0.88011 0.0
H443 H 0.33661 0.1695 0.914 0.0
N444 N 0.34087 0.13798 0.8946 0.0
H445 H 0.3307 0.14804 0.91233 0.0
C446 C 0.36167 0.22929 0.87626 0.0
C447 C 0.3715 0.23875 0.86791 0.0
C448 C 0.36966 0.24334 0.85327 0.0
C449 C 0.35789 0.23854 0.84668 0.0
C450 C 0.34807 0.22882 0.85485 0.0
C451 C 0.34993 0.22425 0.8695 0.0
C452 C 0.36229 0.23204 0.90587 0.0
C453 C 0.35103 0.23114 0.90943 0.0
C454 C 0.3503 0.23879 0.92114 0.0
C455 C 0.36079 0.24748 0.9295 0.0
C456 C 0.3719 0.24791 0.92646 0.0
C457 C 0.37262 0.24026 0.91475 0.0
C458 C 0.36057 0.21326 0.89446 0.0
C459 C 0.36977 0.21028 0.89363 0.0
C460 C 0.367 0.19819 0.89496 0.0
C461 C 0.35487 0.18874 0.89688 0.0
C462 C 0.34567 0.19183 0.8981 0.0
C463 C 0.34851 0.20396 0.89711 0.0
C464 C 0.34149 0.13329 0.87871 0.0
C465 C 0.35217 0.13369 0.87311 0.0
C466 C 0.35218 0.12812 0.85836 0.0
C467 C 0.34148 0.12185 0.84896 0.0
C468 C 0.33089 0.12169 0.85441 0.0
C469 C 0.33092 0.12738 0.86913 0.0
C470 C 0.34418 0.1328 0.908 0.0
C471 C 0.33528 0.12159 0.91436 0.0
C472 C 0.3384 0.11528 0.92553 0.0
C473 C 0.35055 0.12007 0.93064 0.0
C474 C 0.3594 0.1316 0.9248 0.0
C475 C 0.35625 0.13791 0.91356 0.0
C476 C 0.34506 0.15085 0.89565 0.0
C477 C 0.35531 0.15966 0.88702 0.0
C478 C 0.35852 0.1719 0.88754 0.0
C479 C 0.35178 0.17573 0.89702 0.0
C480 C 0.34185 0.16694 0.90621 0.0
C481 C 0.33851 0.15466 0.90541 0.0
H482 H 0.77938 0.15098 0.87074 0.0
N483 N 0.79295 0.14891 0.89389 0.0
H484 H 0.77218 0.13934 0.84521 0.0
H485 H 0.79941 0.13283 0.88222 0.0
H486 H 0.79254 0.12136 0.85659 0.0
H487 H 0.79909 0.13451 0.91138 0.0
H488 H 0.78672 0.12003 0.93296 0.0
H489 H 0.7733 0.14699 0.90806 0.0
H490 H 0.76097 0.13275 0.92965 0.0
H491 H 0.79595 0.17052 0.9013 0.0
H492 H 0.81577 0.15202 0.8909 0.0
H493 H 0.81501 0.18993 0.90258 0.0
H494 H 0.83492 0.17146 0.8912 0.0
H495 H 0.87413 0.24726 0.87196 0.0
H496 H 0.88633 0.25359 0.84685 0.0
H497 H 0.89304 0.22362 0.85225 0.0
H498 H 0.88083 0.21741 0.87745 0.0
H499 H 0.88849 0.2262 0.90441 0.0
H500 H 0.90269 0.23849 0.92605 0.0
H501 H 0.88276 0.25749 0.93276 0.0
H502 H 0.86852 0.24503 0.91119 0.0
H503 H 0.84798 0.22331 0.88232 0.0
H504 H 0.82944 0.20351 0.88381 0.0
H505 H 0.84972 0.18845 0.9067 0.0
N506 N 0.87013 0.22914 0.89183 0.0
H507 H 0.86835 0.20826 0.90442 0.0
C508 C 0.78992 0.1428 0.8783 0.0
C509 C 0.78238 0.14463 0.86756 0.0
C510 C 0.77834 0.13801 0.85297 0.0
C511 C 0.78177 0.12939 0.84885 0.0
C512 C 0.7896 0.1278 0.85949 0.0
C513 C 0.79363 0.13444 0.8741 0.0
C514 C 0.78699 0.1417 0.90811 0.0
C515 C 0.79085 0.13423 0.91547 0.0
C516 C 0.78378 0.12597 0.92775 0.0
C517 C 0.77285 0.12523 0.93297 0.0
C518 C 0.7694 0.13319 0.92607 0.0
C519 C 0.77639 0.1413 0.91373 0.0
C520 C 0.80444 0.15992 0.89578 0.0
C521 C 0.80446 0.1707 0.8993 0.0
C522 C 0.81537 0.18177 0.89985 0.0
C523 C 0.82654 0.18234 0.89665 0.0
C524 C 0.82653 0.1714 0.89377 0.0
C525 C 0.81556 0.16026 0.89344 0.0
C526 C 0.8766 0.23193 0.87651 0.0
C527 C 0.87814 0.242 0.86758 0.0
C528 C 0.88506 0.24556 0.85323 0.0
C529 C 0.89065 0.2391 0.84755 0.0
C530 C 0.88895 0.22885 0.85641 0.0
C531 C 0.88194 0.22526 0.87076 0.0
C532 C 0.87745 0.23475 0.90618 0.0
C533 C 0.88702 0.23282 0.91076 0.0
C534 C 0.89519 0.23992 0.92307 0.0
C535 C 0.89393 0.24904 0.93104 0.0
C536 C 0.88394 0.25047 0.92701 0.0
C537 C 0.87581 0.24339 0.91467 0.0
C538 C 0.85947 0.2173 0.8934 0.0
C539 C 0.84837 0.21572 0.88769 0.0
C540 C 0.83778 0.2044 0.88869 0.0
C541 C 0.83799 0.19436 0.89561 0.0
C542 C 0.8492 0.19594 0.90123 0.0
C543 C 0.85986 0.20731 0.90007 0.0
H544 H 0.80349 0.70205 0.88081 0.0
N545 N 0.8071 0.68562 0.89578 0.0
H546 H 0.79345 0.7001 0.85442 0.0
H547 H 0.79907 0.66641 0.8746 0.0
H548 H 0.78908 0.66436 0.84809 0.0
H549 H 0.78764 0.66271 0.9003 0.0
H550 H 0.77131 0.65692 0.92018 0.0
H551 H 0.80694 0.69872 0.92102 0.0
H552 H 0.79088 0.69288 0.94153 0.0
H553 H 0.82979 0.70318 0.89111 0.0
H554 H 0.80828 0.66511 0.9029 0.0
H555 H 0.84828 0.70187 0.89217 0.0
H556 H 0.82682 0.66375 0.90475 0.0
H557 H 0.89959 0.70168 0.87715 0.0
H558 H 0.9085 0.70092 0.85087 0.0
H559 H 0.88689 0.66165 0.85159 0.0
H560 H 0.87844 0.66256 0.87807 0.0
H561 H 0.87641 0.66007 0.90729 0.0
H562 H 0.8876 0.65401 0.92596 0.0
H563 H 0.91486 0.69183 0.93265 0.0
H564 H 0.90383 0.69767 0.91354 0.0
H565 H 0.88067 0.69997 0.90867 0.0
H566 H 0.86146 0.69994 0.91051 0.0
H567 H 0.84274 0.66404 0.88882 0.0
N568 N 0.88446 0.68305 0.89581 0.0
H569 H 0.86194 0.66396 0.88795 0.0
C570 C 0.80202 0.68442 0.87963 0.0
C571 C 0.80048 0.69387 0.8736 0.0
C572 C 0.79479 0.69275 0.85851 0.0
C573 C 0.79046 0.68207 0.84915 0.0
C574 C 0.7922 0.67265 0.85509 0.0
C575 C 0.79796 0.67382 0.87019 0.0
C576 C 0.79846 0.68124 0.90907 0.0
C577 C 0.78851 0.6693 0.90938 0.0
C578 C 0.77918 0.66597 0.92087 0.0
C579 C 0.77966 0.67448 0.93236 0.0
C580 C 0.79005 0.68618 0.93264 0.0
C581 C 0.79931 0.68951 0.92107 0.0
C582 C 0.81772 0.68434 0.89709 0.0
C583 C 0.82911 0.69457 0.89416 0.0
C584 C 0.83968 0.6938 0.89491 0.0
C585 C 0.83912 0.68273 0.89878 0.0
C586 C 0.82761 0.6724 0.90165 0.0
C587 C 0.81699 0.67318 0.90073 0.0
C588 C 0.88833 0.68224 0.8795 0.0
C589 C 0.89667 0.69295 0.87146 0.0
C590 C 0.90171 0.69247 0.85642 0.0
C591 C 0.89845 0.68121 0.8491 0.0
C592 C 0.88975 0.67047 0.85697 0.0
C593 C 0.88478 0.67097 0.87206 0.0
C594 C 0.88943 0.67933 0.90894 0.0
C595 C 0.88471 0.66702 0.91297 0.0
C596 C 0.89109 0.66359 0.92371 0.0
C597 C 0.90224 0.67243 0.93058 0.0
C598 C 0.90645 0.68477 0.92729 0.0
C599 C 0.90012 0.68816 0.91654 0.0
C600 C 0.87278 0.68211 0.89795 0.0
C601 C 0.87237 0.69205 0.90453 0.0
C602 C 0.86138 0.69204 0.9054 0.0
C603 C 0.85053 0.68209 0.89948 0.0
C604 C 0.85088 0.67186 0.89353 0.0
C605 C 0.8619 0.67183 0.89287 0.0
H606 H 0.77893 0.6533 0.4847 0.0
N607 N 0.79915 0.66955 0.46976 0.0
H608 H 0.77105 0.65534 0.51119 0.0
H609 H 0.81085 0.68854 0.49117 0.0
H610 H 0.80309 0.69069 0.51775 0.0
H611 H 0.80471 0.69314 0.46516 0.0
H612 H 0.79504 0.70016 0.44552 0.0
H613 H 0.78436 0.65689 0.44535 0.0
H614 H 0.77448 0.66378 0.42575 0.0
H615 H 0.80299 0.65109 0.47325 0.0
H616 H 0.82154 0.68958 0.46355 0.0
H617 H 0.82232 0.65137 0.4723 0.0
H618 H 0.84094 0.68993 0.46182 0.0
H619 H 0.87217 0.65017 0.49224 0.0
H620 H 0.88223 0.65184 0.51855 0.0
H621 H 0.903 0.6909 0.5128 0.0
H622 H 0.89319 0.68908 0.48641 0.0
H623 H 0.89098 0.69033 0.4572 0.0
H624 H 0.90838 0.69615 0.43889 0.0
H625 H 0.89977 0.65867 0.43717 0.0
H626 H 0.88272 0.65309 0.45588 0.0
H627 H 0.85622 0.65205 0.45688 0.0
H628 H 0.83762 0.65313 0.45447 0.0
H629 H 0.85572 0.68838 0.47803 0.0
N630 N 0.87696 0.6679 0.47106 0.0
H631 H 0.87444 0.68746 0.47949 0.0
C632 C 0.79541 0.67073 0.486 0.0
C633 C 0.78429 0.66141 0.49199 0.0
C634 C 0.77985 0.66258 0.50713 0.0
C635 C 0.78645 0.67318 0.51657 0.0
C636 C 0.79774 0.68246 0.51068 0.0
C637 C 0.80221 0.68124 0.49553 0.0
C638 C 0.79522 0.67444 0.45671 0.0
C639 C 0.79835 0.68673 0.45638 0.0
C640 C 0.79272 0.69072 0.44521 0.0
C641 C 0.7839 0.68251 0.43416 0.0
C642 C 0.78131 0.67037 0.43396 0.0
C643 C 0.78692 0.6664 0.44516 0.0
C644 C 0.81077 0.67022 0.46832 0.0
C645 C 0.81125 0.65957 0.47066 0.0
C646 C 0.82233 0.65977 0.46998 0.0
C647 C 0.83325 0.67066 0.46678 0.0
C648 C 0.83275 0.68139 0.46442 0.0
C649 C 0.82162 0.68119 0.46526 0.0
C650 C 0.88187 0.66944 0.48739 0.0
C651 C 0.87875 0.65908 0.49684 0.0
C652 C 0.88449 0.66008 0.51188 0.0
C653 C 0.89349 0.67151 0.51776 0.0
C654 C 0.89625 0.68194 0.50853 0.0
C655 C 0.89054 0.68092 0.49347 0.0
C656 C 0.88568 0.67128 0.45799 0.0
C657 C 0.89276 0.68338 0.45267 0.0
C658 C 0.90267 0.68667 0.44214 0.0
C659 C 0.90559 0.6779 0.43679 0.0
C660 C 0.89795 0.66569 0.44135 0.0
C661 C 0.88813 0.66245 0.45188 0.0
C662 C 0.86663 0.66952 0.46859 0.0
C663 C 0.85618 0.66007 0.4613 0.0
C664 C 0.84553 0.66067 0.4601 0.0
C665 C 0.84504 0.67073 0.46638 0.0
C666 C 0.85573 0.6805 0.47302 0.0
C667 C 0.86646 0.67994 0.47401 0.0
H668 H 0.36843 0.14576 0.48797 0.0
N669 N 0.34962 0.1413 0.46901 0.0
H670 H 0.36798 0.13621 0.51426 0.0
H671 H 0.32924 0.12592 0.4864 0.0
H672 H 0.32863 0.11662 0.51285 0.0
H673 H 0.3268 0.12606 0.45718 0.0
H674 H 0.32119 0.10912 0.43806 0.0
H675 H 0.36466 0.13713 0.45143 0.0
H676 H 0.35927 0.12061 0.43187 0.0
H677 H 0.36582 0.16197 0.45506 0.0
H678 H 0.33056 0.14436 0.47809 0.0
H679 H 0.36532 0.18089 0.45324 0.0
H680 H 0.33021 0.16341 0.47726 0.0
H681 H 0.36753 0.24063 0.48308 0.0
H682 H 0.36638 0.24919 0.50945 0.0
H683 H 0.33074 0.21794 0.51773 0.0
H684 H 0.33198 0.2095 0.49122 0.0
H685 H 0.32713 0.2156 0.46523 0.0
H686 H 0.3202 0.22535 0.44557 0.0
H687 H 0.35622 0.24439 0.42433 0.0
H688 H 0.36301 0.23445 0.44396 0.0
H689 H 0.36859 0.21585 0.47233 0.0
H690 H 0.36766 0.19623 0.47132 0.0
H691 H 0.329 0.17856 0.46154 0.0
N692 N 0.35055 0.22037 0.46902 0.0
H693 H 0.33 0.19826 0.46337 0.0
C694 C 0.34892 0.13661 0.48529 0.0
C695 C 0.35973 0.13954 0.49351 0.0
C696 C 0.35943 0.1341 0.50854 0.0
C697 C 0.34825 0.1256 0.51567 0.0
C698 C 0.33739 0.12298 0.50761 0.0
C699 C 0.33772 0.1284 0.49254 0.0
C700 C 0.34615 0.1327 0.4558 0.0
C701 C 0.3339 0.12496 0.45154 0.0
C702 C 0.33073 0.11533 0.44055 0.0
C703 C 0.33978 0.11338 0.43365 0.0
C704 C 0.35206 0.12166 0.43724 0.0
C705 C 0.35518 0.13118 0.44826 0.0
C706 C 0.34837 0.15186 0.46692 0.0
C707 C 0.35796 0.16222 0.45971 0.0
C708 C 0.35769 0.17305 0.45885 0.0
C709 C 0.34784 0.17381 0.46544 0.0
C710 C 0.33794 0.1632 0.47203 0.0
C711 C 0.33816 0.15229 0.47266 0.0
C712 C 0.34988 0.2245 0.48522 0.0
C713 C 0.35955 0.23559 0.49071 0.0
C714 C 0.35888 0.24042 0.5058 0.0
C715 C 0.34846 0.23425 0.5157 0.0
C716 C 0.33883 0.22297 0.51031 0.0
C717 C 0.33955 0.21811 0.4952 0.0
C718 C 0.34564 0.22433 0.45605 0.0
C719 C 0.33346 0.22165 0.45613 0.0
C720 C 0.32953 0.22731 0.44495 0.0
C721 C 0.33768 0.23574 0.43347 0.0
C722 C 0.34967 0.23787 0.43288 0.0
C723 C 0.35358 0.23223 0.44409 0.0
C724 C 0.34946 0.20856 0.46775 0.0
C725 C 0.35994 0.20772 0.46991 0.0
C726 C 0.35938 0.19649 0.46919 0.0
C727 C 0.34827 0.18575 0.46611 0.0
C728 C 0.3377 0.1866 0.46402 0.0
C729 C 0.33827 0.1979 0.46492 0.0
H730 H 0.8172 0.11262 0.49718 0.0
N731 N 0.81511 0.1257 0.47338 0.0
H732 H 0.80531 0.10555 0.52249 0.0
H733 H 0.79861 0.13195 0.48419 0.0
H734 H 0.78694 0.12529 0.50964 0.0
H735 H 0.80178 0.1329 0.45519 0.0
H736 H 0.787 0.12084 0.43373 0.0
H737 H 0.81186 0.10536 0.45989 0.0
H738 H 0.79727 0.09331 0.43847 0.0
H739 H 0.83684 0.12916 0.46556 0.0
H740 H 0.81785 0.14838 0.47677 0.0
H741 H 0.85607 0.1484 0.46431 0.0
H742 H 0.83711 0.16768 0.47648 0.0
H743 H 0.91307 0.20786 0.49503 0.0
H744 H 0.91943 0.22002 0.52017 0.0
H745 H 0.88901 0.22613 0.51543 0.0
H746 H 0.88278 0.21397 0.49017 0.0
H747 H 0.89133 0.22173 0.46311 0.0
H748 H 0.90325 0.23594 0.44129 0.0
H749 H 0.92274 0.21653 0.43409 0.0
H750 H 0.91063 0.20228 0.45582 0.0
H751 H 0.88928 0.18153 0.48468 0.0
H752 H 0.86962 0.16282 0.48318 0.0
H753 H 0.8539 0.18271 0.46095 0.0
N754 N 0.8947 0.2036 0.47544 0.0
H755 H 0.87357 0.2015 0.46325 0.0
C756 C 0.80885 0.12282 0.48888 0.0
C757 C 0.81071 0.11552 0.49999 0.0
C758 C 0.80394 0.11155 0.51446 0.0
C759 C 0.79514 0.11484 0.51812 0.0
C760 C 0.79352 0.12245 0.50712 0.0
C761 C 0.80028 0.12638 0.49261 0.0
C762 C 0.8078 0.11991 0.45915 0.0
C763 C 0.80092 0.12434 0.45142 0.0
C764 C 0.79248 0.11744 0.4392 0.0
C765 C 0.79094 0.1061 0.43443 0.0
C766 C 0.79833 0.10206 0.44167 0.0
C767 C 0.80664 0.10889 0.45394 0.0
C768 C 0.82599 0.13732 0.4715 0.0
C769 C 0.83686 0.13757 0.46775 0.0
C770 C 0.84784 0.14858 0.46721 0.0
C771 C 0.84822 0.15962 0.47064 0.0
C772 C 0.83719 0.15938 0.47374 0.0
C773 C 0.82614 0.14833 0.47406 0.0
C774 C 0.89751 0.21004 0.4908 0.0
C775 C 0.90772 0.21173 0.49956 0.0
C776 C 0.91129 0.21863 0.51393 0.0
C777 C 0.90471 0.22403 0.51981 0.0
C778 C 0.89433 0.22218 0.51112 0.0
C779 C 0.89073 0.2152 0.49674 0.0
C780 C 0.90015 0.21095 0.46109 0.0
C781 C 0.89798 0.22038 0.45661 0.0
C782 C 0.90487 0.22855 0.4442 0.0
C783 C 0.91402 0.22743 0.43603 0.0
C784 C 0.91569 0.2176 0.43999 0.0
C785 C 0.90882 0.20946 0.45242 0.0
C786 C 0.88293 0.19284 0.47394 0.0
C787 C 0.88157 0.18181 0.47946 0.0
C788 C 0.87034 0.17111 0.47845 0.0
C789 C 0.86015 0.17117 0.47171 0.0
C790 C 0.8615 0.18231 0.46628 0.0
C791 C 0.87279 0.19308 0.46746 0.0
H792 H 0.02765 0.55923 0.20694 0.0
N793 N 0.00957 0.54915 0.23005 0.0
H794 H 0.02689 0.56861 0.18117 0.0
H795 H 0.99031 0.54877 0.21674 0.0
H796 H 0.98925 0.55766 0.19059 0.0
H797 H 0.99678 0.54916 0.25583 0.0
H798 H 0.00167 0.56611 0.2745 0.0
H799 H 0.0315 0.57048 0.23199 0.0
H800 H 0.03663 0.58717 0.25083 0.0
H801 H 0.03274 0.55305 0.23533 0.0
H802 H 0.99552 0.52536 0.22621 0.0
H803 H 0.03882 0.53772 0.23533 0.0
H804 H 0.00161 0.50993 0.22547 0.0
H805 H 0.05061 0.48401 0.20435 0.0
H806 H 0.04574 0.47192 0.17921 0.0
H807 H 0.00819 0.46288 0.18342 0.0
H808 H 0.01313 0.47484 0.20867 0.0
H809 H 0.01542 0.46515 0.23375 0.0
H810 H 0.01525 0.45102 0.254 0.0
H811 H 0.05283 0.47655 0.26583 0.0
H812 H 0.05301 0.49053 0.24499 0.0
H813 H 0.04767 0.50957 0.21461 0.0
H814 H 0.04161 0.52497 0.21684 0.0
H815 H 0.00845 0.49885 0.24128 0.0
N816 N 0.03537 0.48653 0.22398 0.0
H817 H 0.01437 0.48343 0.23833 0.0
C818 C 0.00901 0.55338 0.21383 0.0
C819 C 0.01921 0.55878 0.20342 0.0
C820 C 0.01873 0.56408 0.18859 0.0
C821 C 0.00803 0.564 0.18383 0.0
C822 C 0.99771 0.55812 0.194 0.0
C823 C 0.99824 0.55293 0.20886 0.0
C824 C 0.01372 0.55844 0.24255 0.0
C825 C 0.00559 0.55735 0.25495 0.0
C826 C 0.00843 0.56705 0.26561 0.0
C827 C 0.01951 0.57807 0.26406 0.0
C828 C 0.02793 0.57891 0.25218 0.0
C829 C 0.02505 0.56925 0.24148 0.0
C830 C 0.01357 0.54035 0.23092 0.0
C831 C 0.02583 0.54369 0.2334 0.0
C832 C 0.02933 0.53486 0.23323 0.0
C833 C 0.02073 0.52254 0.23037 0.0
C834 C 0.00848 0.51926 0.228 0.0
C835 C 0.00497 0.52808 0.22832 0.0
C836 C 0.0323 0.48037 0.20835 0.0
C837 C 0.04138 0.47955 0.19968 0.0
C838 C 0.03857 0.47267 0.18531 0.0
C839 C 0.02656 0.46641 0.17932 0.0
C840 C 0.0175 0.46747 0.18782 0.0
C841 C 0.02033 0.47439 0.2022 0.0
C842 C 0.03431 0.47892 0.23775 0.0
C843 C 0.02358 0.46783 0.24085 0.0
C844 C 0.02347 0.45975 0.25256 0.0
C845 C 0.03407 0.46257 0.26147 0.0
C846 C 0.04458 0.47397 0.25899 0.0
C847 C 0.04468 0.48203 0.24721 0.0
C848 C 0.03159 0.4954 0.22638 0.0
C849 C 0.03913 0.50723 0.22051 0.0
C850 C 0.03567 0.51603 0.22191 0.0
C851 C 0.02455 0.51321 0.22933 0.0
C852 C 0.01701 0.50133 0.23533 0.0
C853 C 0.02045 0.49249 0.23379 0.0
H854 H 0.5662 0.5467 0.2117 0.0
N855 N 0.55012 0.54941 0.22936 0.0
H856 H 0.57533 0.55645 0.1855 0.0
H857 H 0.54371 0.56318 0.2109 0.0
H858 H 0.55249 0.57269 0.18455 0.0
H859 H 0.54328 0.56538 0.24002 0.0
H860 H 0.55452 0.58201 0.2596 0.0
H861 H 0.56818 0.55233 0.24869 0.0
H862 H 0.57916 0.56848 0.26882 0.0
H863 H 0.54729 0.52887 0.24171 0.0
H864 H 0.52736 0.54503 0.22156 0.0
H865 H 0.52852 0.50923 0.24349 0.0
H866 H 0.50859 0.52527 0.22228 0.0
H867 H 0.47234 0.44783 0.21654 0.0
H868 H 0.46218 0.43856 0.19064 0.0
H869 H 0.45448 0.46775 0.18339 0.0
H870 H 0.46517 0.47719 0.20898 0.0
H871 H 0.45498 0.47077 0.23505 0.0
H872 H 0.43894 0.46046 0.25535 0.0
H873 H 0.4591 0.4449 0.27717 0.0
H874 H 0.47493 0.45496 0.25629 0.0
H875 H 0.49746 0.47359 0.22526 0.0
H876 H 0.51552 0.49379 0.22559 0.0
H877 H 0.49311 0.50936 0.23815 0.0
N878 N 0.47463 0.46766 0.23062 0.0
H879 H 0.47501 0.4891 0.23691 0.0
C880 C 0.55428 0.55417 0.21317 0.0
C881 C 0.56308 0.55223 0.20566 0.0
C882 C 0.56823 0.55778 0.19069 0.0
C883 C 0.56467 0.56539 0.18293 0.0
C884 C 0.55556 0.56703 0.1903 0.0
C885 C 0.55044 0.56149 0.2053 0.0
C886 C 0.55507 0.55779 0.24281 0.0
C887 C 0.55103 0.56598 0.24641 0.0
C888 C 0.55743 0.57542 0.25768 0.0
C889 C 0.5679 0.57672 0.26557 0.0
C890 C 0.57135 0.56795 0.26267 0.0
C891 C 0.56503 0.55863 0.25134 0.0
C892 C 0.53873 0.5383 0.2313 0.0
C893 C 0.53882 0.52812 0.23765 0.0
C894 C 0.52809 0.51689 0.23848 0.0
C895 C 0.51702 0.51554 0.2327 0.0
C896 C 0.5169 0.52593 0.22689 0.0
C897 C 0.52766 0.53724 0.22631 0.0
C898 C 0.46943 0.46309 0.21469 0.0
C899 C 0.46857 0.45227 0.20921 0.0
C900 C 0.46266 0.44694 0.1945 0.0
C901 C 0.45734 0.45231 0.185 0.0
C902 C 0.45852 0.4634 0.19031 0.0
C903 C 0.46456 0.46877 0.20501 0.0
C904 C 0.46612 0.46352 0.24407 0.0
C905 C 0.45606 0.46531 0.24433 0.0
C906 C 0.4469 0.45944 0.25606 0.0
C907 C 0.44763 0.45171 0.26781 0.0
C908 C 0.4581 0.45058 0.26811 0.0
C909 C 0.46722 0.4564 0.25631 0.0
C910 C 0.48496 0.4798 0.23125 0.0
C911 C 0.49649 0.48139 0.22809 0.0
C912 C 0.5068 0.49295 0.22844 0.0
C913 C 0.50585 0.50326 0.23216 0.0
C914 C 0.49421 0.50166 0.23516 0.0
C915 C 0.48383 0.49004 0.23461 0.0
H916 H 0.52966 0.97396 0.19586 0.0
N917 N 0.53475 0.98781 0.22239 0.0
H918 H 0.54186 0.97839 0.17089 0.0
H919 H 0.55511 0.00951 0.21473 0.0
H920 H 0.56697 0.01426 0.18965 0.0
H921 H 0.54953 0.00625 0.24338 0.0
H922 H 0.5637 0.00568 0.26324 0.0
H923 H 0.53566 0.96843 0.23213 0.0
H924 H 0.54951 0.96764 0.25231 0.0
H925 H 0.51141 0.97348 0.22947 0.0
H926 H 0.53853 0.01111 0.22215 0.0
H927 H 0.49584 0.97924 0.23319 0.0
H928 H 0.52307 0.0169 0.22506 0.0
H929 H 0.45241 0.9947 0.2145 0.0
H930 H 0.44342 0.9955 0.18851 0.0
H931 H 0.47141 0.0331 0.18262 0.0
H932 H 0.48037 0.03225 0.20894 0.0
H933 H 0.46834 0.02883 0.24714 0.0
H934 H 0.45229 0.02376 0.26743 0.0
H935 H 0.44084 0.98567 0.26236 0.0
H936 H 0.45692 0.99083 0.24212 0.0
H937 H 0.46944 0.99206 0.21766 0.0
H938 H 0.4848 0.98602 0.21727 0.0
H939 H 0.50965 0.01893 0.24329 0.0
N940 N 0.47225 0.01358 0.22958 0.0
H941 H 0.49427 0.02517 0.24294 0.0
C942 C 0.54135 0.99137 0.2071 0.0
C943 C 0.53771 0.98283 0.19441 0.0
C944 C 0.54469 0.98541 0.18014 0.0
C945 C 0.55547 0.99668 0.17824 0.0
C946 C 0.55885 0.00542 0.19077 0.0
C947 C 0.55194 0.00277 0.2051 0.0
C948 C 0.5416 0.98736 0.23618 0.0
C949 C 0.54935 0.99775 0.24543 0.0
C950 C 0.55742 0.9974 0.25685 0.0
C951 C 0.55786 0.98666 0.25918 0.0
C952 C 0.54958 0.97612 0.25057 0.0
C953 C 0.54158 0.9765 0.23917 0.0
C954 C 0.52609 0.99178 0.22536 0.0
C955 C 0.51399 0.98298 0.22867 0.0
C956 C 0.5051 0.98629 0.23065 0.0
C957 C 0.50814 0.99854 0.22926 0.0
C958 C 0.52038 0.0074 0.22638 0.0
C959 C 0.52928 0.00407 0.22454 0.0
C960 C 0.46714 0.01347 0.21371 0.0
C961 C 0.45674 0.00309 0.20762 0.0
C962 C 0.4516 0.00354 0.19266 0.0
C963 C 0.4567 0.01436 0.18349 0.0
C964 C 0.4672 0.02467 0.18948 0.0
C965 C 0.47237 0.02419 0.20442 0.0
C966 C 0.46383 0.01026 0.24308 0.0
C967 C 0.46252 0.01942 0.25069 0.0
C968 C 0.45337 0.0165 0.26229 0.0
C969 C 0.44526 0.0043 0.26644 0.0
C970 C 0.44687 0.99514 0.25927 0.0
C971 C 0.45611 0.99809 0.24774 0.0
C972 C 0.48076 0.00921 0.23017 0.0
C973 C 0.47816 0.99801 0.22328 0.0
C974 C 0.48697 0.99449 0.22321 0.0
C975 C 0.49854 0.002 0.23018 0.0
C976 C 0.50095 0.01301 0.23752 0.0
C977 C 0.49216 0.01656 0.23746 0.0
H978 H 0.45374 0.98246 0.82465 0.0
N979 N 0.46654 0.00091 0.80435 0.0
H980 H 0.44499 0.98308 0.8512 0.0
H981 H 0.47056 0.0214 0.82067 0.0
H982 H 0.4617 0.02212 0.84689 0.0
H983 H 0.47517 0.02368 0.7916 0.0
H984 H 0.46396 0.02987 0.77313 0.0
H985 H 0.44625 0.98642 0.78821 0.0
H986 H 0.43517 0.99238 0.76937 0.0
H987 H 0.47179 0.98569 0.78925 0.0
H988 H 0.4884 0.02012 0.81442 0.0
H989 H 0.49155 0.98689 0.7873 0.0
H990 H 0.50813 0.02115 0.81337 0.0
H991 H 0.55126 0.98645 0.81591 0.0
H992 H 0.56109 0.98741 0.84209 0.0
H993 H 0.56152 0.0208 0.85383 0.0
H994 H 0.552 0.01989 0.82733 0.0
H995 H 0.56459 0.02618 0.80141 0.0
H996 H 0.58155 0.03403 0.782 0.0
H997 H 0.56487 0.99903 0.75791 0.0
H998 H 0.5479 0.99132 0.7773 0.0
H999 H 0.52359 0.98409 0.8063 0.0
H1000 H 0.50459 0.98446 0.80544 0.0
H1001 H 0.52491 0.02333 0.79737 0.0
N1002 N 0.54604 0.00258 0.80358 0.0
H1003 H 0.54392 0.02286 0.79898 0.0
C1004 C 0.46278 0.00183 0.8207 0.0
C1005 C 0.45566 0.99115 0.82963 0.0
C1006 C 0.4506 0.99152 0.84469 0.0
C1007 C 0.45256 0.00264 0.8511 0.0
C1008 C 0.4601 0.01342 0.8424 0.0
C1009 C 0.46516 0.01302 0.82734 0.0
C1010 C 0.46142 0.00459 0.79135 0.0
C1011 C 0.46652 0.01681 0.78659 0.0
C1012 C 0.46013 0.02031 0.77598 0.0
C1013 C 0.44857 0.01164 0.77 0.0
C1014 C 0.44391 0.99933 0.77404 0.0
C1015 C 0.45027 0.99588 0.78464 0.0
C1016 C 0.47857 0.00266 0.80218 0.0
C1017 C 0.47974 0.99352 0.79432 0.0
C1018 C 0.49104 0.99419 0.79339 0.0
C1019 C 0.50144 0.00399 0.8005 0.0
C1020 C 0.50035 0.01347 0.80773 0.0
C1021 C 0.48902 0.01286 0.80846 0.0
C1022 C 0.55085 0.00302 0.81974 0.0
C1023 C 0.55337 0.99389 0.82426 0.0
C1024 C 0.55894 0.99444 0.83926 0.0
C1025 C 0.56208 0.00418 0.85014 0.0
C1026 C 0.55934 0.01325 0.84569 0.0
C1027 C 0.55381 0.0127 0.83059 0.0
C1028 C 0.55499 0.00811 0.79079 0.0
C1029 C 0.56444 0.02029 0.79173 0.0
C1030 C 0.57418 0.02474 0.78069 0.0
C1031 C 0.57462 0.01713 0.7685 0.0
C1032 C 0.56477 0.00518 0.76703 0.0
C1033 C 0.55508 0.00074 0.7781 0.0
C1034 C 0.53513 0.00336 0.80254 0.0
C1035 C 0.52391 0.99267 0.80429 0.0
C1036 C 0.51306 0.99291 0.80366 0.0
C1037 C 0.51315 0.00391 0.8011 0.0
C1038 C 0.52446 0.0147 0.79943 0.0
C1039 C 0.53537 0.01445 0.80022 0.0
H1040 H 0.98884 0.54038 0.82566 0.0
N1041 N 0.00842 0.54817 0.80503 0.0
H1042 H 0.98851 0.54981 0.85172 0.0
H1043 H 0.02726 0.56585 0.82088 0.0
H1044 H 0.02707 0.57506 0.84729 0.0
H1045 H 0.0227 0.561 0.78027 0.0
H1046 H 0.01897 0.57303 0.76 0.0
H1047 H 0.98692 0.54812 0.8005 0.0
H1048 H 0.98325 0.56019 0.78074 0.0
H1049 H 0.98542 0.52906 0.79844 0.0
H1050 H 0.02229 0.53833 0.80946 0.0
H1051 H 0.97928 0.5076 0.79781 0.0
H1052 H 0.01614 0.51677 0.80953 0.0
H1053 H 0.96684 0.44014 0.82491 0.0
H1054 H 0.97112 0.43183 0.84952 0.0
H1055 H 0.00801 0.46207 0.84993 0.0
H1056 H 0.00369 0.47028 0.82531 0.0
H1057 H 0.00246 0.45814 0.79927 0.0
H1058 H 0.00322 0.44465 0.77873 0.0
H1059 H 0.96648 0.43385 0.76381 0.0
H1060 H 0.96566 0.4471 0.78499 0.0
H1061 H 0.96981 0.47003 0.81721 0.0
H1062 H 0.97595 0.49157 0.81587 0.0
H1063 H 0.00977 0.49928 0.79286 0.0
N1064 N 0.98231 0.45954 0.80778 0.0
H1065 H 0.00375 0.47786 0.79491 0.0
C1066 C 0.00809 0.55256 0.82122 0.0
C1067 C 0.99722 0.54794 0.83025 0.0
C1068 C 0.99704 0.55331 0.84514 0.0
C1069 C 0.00775 0.56318 0.85142 0.0
C1070 C 0.0187 0.56743 0.84273 0.0
C1071 C 0.01882 0.56221 0.8277 0.0
C1072 C 0.00516 0.55365 0.79193 0.0
C1073 C 0.01398 0.5606 0.78016 0.0
C1074 C 0.01186 0.56754 0.7687 0.0
C1075 C 1.00084 0.56765 0.76882 0.0
C1076 C 0.99178 0.56022 0.78014 0.0
C1077 C 0.99391 0.5533 0.79158 0.0
C1078 C 0.00442 0.53538 0.80385 0.0
C1079 C 0.99224 0.52653 0.80066 0.0
C1080 C 0.9887 0.51418 0.80046 0.0
C1081 C 0.9972 0.51039 0.80364 0.0
C1082 C 0.00938 0.51931 0.80674 0.0
C1083 C 0.01291 0.53164 0.8068 0.0
C1084 C 0.98486 0.45583 0.82333 0.0
C1085 C 0.97578 0.44505 0.83049 0.0
C1086 C 0.97827 0.44029 0.84443 0.0
C1087 C 0.98992 0.44627 0.85157 0.0
C1088 C 0.99893 0.45732 0.84475 0.0
C1089 C 0.99646 0.46203 0.83068 0.0
C1090 C 0.9839 0.45352 0.79378 0.0
C1091 C 0.99463 0.45305 0.79141 0.0
C1092 C 0.99508 0.44534 0.77954 0.0
C1093 C 0.98485 0.43801 0.76972 0.0
C1094 C 0.97443 0.43916 0.7714 0.0
C1095 C 0.97397 0.44681 0.78335 0.0
C1096 C 0.98621 0.47228 0.80608 0.0
C1097 C 0.97852 0.4764 0.81183 0.0
C1098 C 0.98203 0.48871 0.81093 0.0
C1099 C 0.99335 0.49721 0.80417 0.0
C1100 C 0.00105 0.49304 0.79832 0.0
C1101 C 0.99756 0.48072 0.79934 0.0
H1102 H 0.48499 0.44648 0.83373 0.0
N1103 N 0.48314 0.45911 0.8091 0.0
H1104 H 0.4729 0.43996 0.85893 0.0
H1105 H 0.4668 0.46585 0.81899 0.0
H1106 H 0.45495 0.45975 0.8443 0.0
H1107 H 0.4702 0.46637 0.79012 0.0
H1108 H 0.45541 0.45415 0.76876 0.0
H1109 H 0.47938 0.4383 0.7966 0.0
H1110 H 0.46479 0.42609 0.77525 0.0
H1111 H 0.50471 0.4622 0.80113 0.0
H1112 H 0.48617 0.48198 0.81169 0.0
H1113 H 0.52398 0.48131 0.79881 0.0
H1114 H 0.50549 0.50116 0.81035 0.0
H1115 H 0.5833 0.54318 0.82317 0.0
H1116 H 0.5905 0.55574 0.84794 0.0
H1117 H 0.55777 0.55818 0.8485 0.0
H1118 H 0.55065 0.54558 0.82364 0.0
H1119 H 0.55923 0.55494 0.7956 0.0
H1120 H 0.57056 0.56951 0.7738 0.0
H1121 H 0.58968 0.55013 0.76341 0.0
H1122 H 0.57812 0.53551 0.78503 0.0
H1123 H 0.55781 0.51497 0.81667 0.0
H1124 H 0.53808 0.49629 0.81653 0.0
H1125 H 0.52191 0.51564 0.79392 0.0
N1126 N 0.56309 0.53679 0.80643 0.0
H1127 H 0.54166 0.53442 0.79489 0.0
C1128 C 0.47686 0.45667 0.82455 0.0
C1129 C 0.47856 0.44953 0.83613 0.0
C1130 C 0.47167 0.44586 0.85053 0.0
C1131 C 0.46291 0.4493 0.85365 0.0
C1132 C 0.46149 0.45679 0.8422 0.0
C1133 C 0.46836 0.46041 0.82776 0.0
C1134 C 0.47577 0.45312 0.79498 0.0
C1135 C 0.46913 0.45765 0.78678 0.0
C1136 C 0.4607 0.45066 0.77461 0.0
C1137 C 0.45891 0.43914 0.77035 0.0
C1138 C 0.46604 0.43497 0.77808 0.0
C1139 C 0.47435 0.44189 0.7903 0.0
C1140 C 0.49408 0.47064 0.80683 0.0
C1141 C 0.50484 0.47071 0.80298 0.0
C1142 C 0.51585 0.48165 0.80182 0.0
C1143 C 0.51639 0.49282 0.80472 0.0
C1144 C 0.50545 0.49276 0.80799 0.0
C1145 C 0.49438 0.48176 0.80892 0.0
C1146 C 0.56647 0.54341 0.82167 0.0
C1147 C 0.57766 0.54635 0.82875 0.0
C1148 C 0.58177 0.55359 0.84279 0.0
C1149 C 0.57473 0.55801 0.85007 0.0
C1150 C 0.56335 0.55484 0.84318 0.0
C1151 C 0.55928 0.54765 0.829 0.0
C1152 C 0.56787 0.54413 0.7919 0.0
C1153 C 0.56562 0.55365 0.78833 0.0
C1154 C 0.57219 0.56204 0.77596 0.0
C1155 C 0.58112 0.56107 0.76695 0.0
C1156 C 0.58279 0.5511 0.76995 0.0
C1157 C 0.57622 0.54274 0.78231 0.0
C1158 C 0.55126 0.52601 0.80564 0.0
C1159 C 0.54999 0.51513 0.81166 0.0
C1160 C 0.53871 0.50445 0.81143 0.0
C1161 C 0.52837 0.50436 0.80499 0.0
C1162 C 0.52963 0.51535 0.79905 0.0
C1163 C 0.54097 0.52611 0.79946 0.0
H1164 H 0.69157 0.90035 0.5477 0.0
N1165 N 0.67226 0.88042 0.56185 0.0
H1166 H 0.69137 0.90988 0.52188 0.0
H1167 H 0.65423 0.87241 0.54012 0.0
H1168 H 0.654 0.88179 0.51392 0.0
H1169 H 0.6574 0.88613 0.5771 0.0
H1170 H 0.66276 0.90252 0.59679 0.0
H1171 H 0.69468 0.89425 0.57637 0.0
H1172 H 0.70008 0.91041 0.59646 0.0
H1173 H 0.69377 0.88274 0.55073 0.0
H1174 H 0.66002 0.85842 0.57508 0.0
H1175 H 0.69951 0.86713 0.55123 0.0
H1176 H 0.66589 0.84278 0.57618 0.0
H1177 H 0.71212 0.82281 0.5339 0.0
H1178 H 0.70873 0.81146 0.50823 0.0
H1179 H 0.67241 0.78534 0.5244 0.0
H1180 H 0.67582 0.79672 0.54976 0.0
H1181 H 0.6772 0.80207 0.5781 0.0
H1182 H 0.67645 0.78799 0.59919 0.0
H1183 H 0.71501 0.80192 0.59297 0.0
H1184 H 0.71562 0.81587 0.57181 0.0
H1185 H 0.7113 0.84034 0.56649 0.0
H1186 H 0.70565 0.85609 0.56873 0.0
H1187 H 0.66824 0.8292 0.55816 0.0
N1188 N 0.69703 0.81705 0.55919 0.0
H1189 H 0.67391 0.81356 0.55654 0.0
C1190 C 0.67285 0.88563 0.54589 0.0
C1191 C 0.68337 0.89613 0.54037 0.0
C1192 C 0.68326 0.90157 0.52551 0.0
C1193 C 0.67265 0.89663 0.51584 0.0
C1194 C 0.66227 0.88592 0.52118 0.0
C1195 C 0.66239 0.88049 0.53605 0.0
C1196 C 0.67556 0.88891 0.57527 0.0
C1197 C 0.66668 0.89126 0.58154 0.0
C1198 C 0.66978 0.90062 0.59286 0.0
C1199 C 0.68188 0.90785 0.59822 0.0
C1200 C 0.69071 0.90514 0.59243 0.0
C1201 C 0.6876 0.8958 0.58103 0.0
C1202 C 0.67635 0.8717 0.56275 0.0
C1203 C 0.68761 0.87408 0.55631 0.0
C1204 C 0.69094 0.86513 0.55674 0.0
C1205 C 0.68315 0.85365 0.5637 0.0
C1206 C 0.67203 0.85143 0.57047 0.0
C1207 C 0.66869 0.86037 0.56997 0.0
C1208 C 0.69428 0.81069 0.54373 0.0
C1209 C 0.70339 0.81472 0.53175 0.0
C1210 C 0.70146 0.80818 0.51719 0.0
C1211 C 0.69031 0.79747 0.51431 0.0
C1212 C 0.68104 0.79363 0.52614 0.0
C1213 C 0.68301 0.80015 0.54072 0.0
C1214 C 0.6965 0.80998 0.5733 0.0
C1215 C 0.68551 0.8022 0.5814 0.0
C1216 C 0.68509 0.79413 0.59343 0.0
C1217 C 0.69566 0.79381 0.59769 0.0
C1218 C 0.70673 0.80203 0.59012 0.0
C1219 C 0.70711 0.80998 0.57801 0.0
C1220 C 0.69311 0.82582 0.56125 0.0
C1221 C 0.70187 0.83788 0.56482 0.0
C1222 C 0.69863 0.84686 0.56596 0.0
C1223 C 0.6865 0.84396 0.56349 0.0
C1224 C 0.67765 0.83177 0.56031 0.0
C1225 C 0.6809 0.82278 0.55925 0.0
H1226 H 0.21835 0.88068 0.5435 0.0
N1227 N 0.20593 0.88981 0.56009 0.0
H1228 H 0.23004 0.8889 0.51826 0.0
H1229 H 0.20644 0.90696 0.54103 0.0
H1230 H 0.21771 0.91498 0.51542 0.0
H1231 H 0.20351 0.9047 0.58053 0.0
H1232 H 0.21867 0.91896 0.59994 0.0
H1233 H 0.22673 0.88993 0.56962 0.0
H1234 H 0.2417 0.90379 0.58927 0.0
H1235 H 0.20903 0.87119 0.57175 0.0
H1236 H 0.18257 0.87976 0.55264 0.0
H1237 H 0.19338 0.84985 0.57395 0.0
H1238 H 0.16689 0.85831 0.55411 0.0
H1239 H 0.139 0.78139 0.54883 0.0
H1240 H 0.12925 0.77258 0.52257 0.0
H1241 H 0.12466 0.8036 0.51377 0.0
H1242 H 0.13397 0.81205 0.54031 0.0
H1243 H 0.12078 0.80222 0.56546 0.0
H1244 H 0.10432 0.79071 0.58484 0.0
H1245 H 0.12574 0.77708 0.60793 0.0
H1246 H 0.14226 0.78868 0.58835 0.0
H1247 H 0.16558 0.81109 0.55714 0.0
H1248 H 0.18138 0.83255 0.55731 0.0
H1249 H 0.1546 0.84218 0.5721 0.0
N1250 N 0.14197 0.80155 0.56282 0.0
H1251 H 0.13888 0.82088 0.57118 0.0
C1252 C 0.21159 0.8933 0.54418 0.0
C1253 C 0.2181 0.8881 0.53738 0.0
C1254 C 0.22473 0.89278 0.52287 0.0
C1255 C 0.22494 0.9027 0.51489 0.0
C1256 C 0.21798 0.90751 0.52142 0.0
C1257 C 0.21143 0.90288 0.53594 0.0
C1258 C 0.2139 0.89622 0.57364 0.0
C1259 C 0.2117 0.90427 0.58273 0.0
C1260 C 0.22038 0.9124 0.59383 0.0
C1261 C 0.23148 0.91261 0.59605 0.0
C1262 C 0.23334 0.90401 0.58765 0.0
C1263 C 0.22468 0.89594 0.57651 0.0
C1264 C 0.19694 0.87715 0.56217 0.0
C1265 C 0.19986 0.86853 0.56807 0.0
C1266 C 0.19087 0.85624 0.56918 0.0
C1267 C 0.17882 0.85229 0.56423 0.0
C1268 C 0.17598 0.86099 0.55835 0.0
C1269 C 0.18494 0.87325 0.55739 0.0
C1270 C 0.1373 0.79737 0.54651 0.0
C1271 C 0.13601 0.78632 0.54111 0.0
C1272 C 0.13048 0.78135 0.52605 0.0
C1273 C 0.12615 0.78737 0.516 0.0
C1274 C 0.12772 0.79862 0.52128 0.0
C1275 C 0.13318 0.80354 0.53641 0.0
C1276 C 0.13283 0.79635 0.57551 0.0
C1277 C 0.12209 0.79701 0.57491 0.0
C1278 C 0.11266 0.79042 0.58604 0.0
C1279 C 0.1137 0.78294 0.59788 0.0
C1280 C 0.12462 0.78267 0.59885 0.0
C1281 C 0.13409 0.78935 0.58778 0.0
C1282 C 0.15106 0.81427 0.56423 0.0
C1283 C 0.16318 0.81786 0.56052 0.0
C1284 C 0.1722 0.83013 0.56073 0.0
C1285 C 0.16931 0.83915 0.56474 0.0
C1286 C 0.15716 0.83552 0.56872 0.0
C1287 C 0.14812 0.82325 0.56836 0.0
H1288 H 0.20436 0.30268 0.53847 0.0
N1289 N 0.20107 0.31783 0.55725 0.0
H1290 H 0.21672 0.3075 0.51361 0.0
H1291 H 0.21264 0.33989 0.54172 0.0
H1292 H 0.22493 0.34482 0.51669 0.0
H1293 H 0.22069 0.33885 0.56856 0.0
H1294 H 0.23547 0.34028 0.58887 0.0
H1295 H 0.19915 0.30022 0.57679 0.0
H1296 H 0.21407 0.30148 0.59689 0.0
H1297 H 0.18096 0.30924 0.5394 0.0
H1298 H 0.20043 0.33468 0.57839 0.0
H1299 H 0.16543 0.31511 0.54009 0.0
H1300 H 0.18461 0.33999 0.57988 0.0
H1301 H 0.11741 0.32279 0.54626 0.0
H1302 H 0.10719 0.32244 0.52073 0.0
H1303 H 0.13444 0.35995 0.51186 0.0
H1304 H 0.14456 0.36024 0.53762 0.0
H1305 H 0.13258 0.3584 0.5739 0.0
H1306 H 0.11662 0.35427 0.59383 0.0
H1307 H 0.10776 0.31673 0.59631 0.0
H1308 H 0.12335 0.32084 0.57598 0.0
H1309 H 0.13375 0.31973 0.55336 0.0
H1310 H 0.14905 0.31362 0.55433 0.0
H1311 H 0.17639 0.35049 0.56686 0.0
N1312 N 0.13732 0.34254 0.55963 0.0
H1313 H 0.1607 0.35625 0.56703 0.0
C1314 C 0.20758 0.32088 0.54189 0.0
C1315 C 0.20872 0.31185 0.53363 0.0
C1316 C 0.21575 0.31463 0.51941 0.0
C1317 C 0.22181 0.32655 0.51315 0.0
C1318 C 0.22049 0.33558 0.5213 0.0
C1319 C 0.21342 0.33278 0.53555 0.0
C1320 C 0.20876 0.31938 0.57118 0.0
C1321 C 0.21903 0.33069 0.57495 0.0
C1322 C 0.22753 0.33148 0.5865 0.0
C1323 C 0.22605 0.32098 0.59439 0.0
C1324 C 0.21545 0.30978 0.5912 0.0
C1325 C 0.20692 0.30902 0.5797 0.0
C1326 C 0.19197 0.32147 0.55869 0.0
C1327 C 0.18183 0.316 0.54823 0.0
C1328 C 0.17287 0.3193 0.54878 0.0
C1329 C 0.17366 0.32801 0.56011 0.0
C1330 C 0.18376 0.3334 0.57077 0.0
C1331 C 0.19286 0.33027 0.56999 0.0
C1332 C 0.13179 0.34159 0.54383 0.0
C1333 C 0.12132 0.33088 0.53871 0.0
C1334 C 0.11548 0.33069 0.52407 0.0
C1335 C 0.11995 0.3412 0.51431 0.0
C1336 C 0.13066 0.35176 0.51922 0.0
C1337 C 0.1365 0.35193 0.53383 0.0
C1338 C 0.12926 0.34003 0.57341 0.0
C1339 C 0.12734 0.34935 0.57902 0.0
C1340 C 0.11822 0.34696 0.59047 0.0
C1341 C 0.11081 0.33513 0.59665 0.0
C1342 C 0.11314 0.3259 0.59161 0.0
C1343 C 0.1222 0.32829 0.58003 0.0
C1344 C 0.14605 0.33845 0.56043 0.0
C1345 C 0.14296 0.32645 0.55667 0.0
C1346 C 0.15183 0.32301 0.55697 0.0
C1347 C 0.16407 0.33155 0.56061 0.0
C1348 C 0.16708 0.34356 0.56432 0.0
C1349 C 0.15814 0.34692 0.56432 0.0
H1350 H 0.99485 0.38245 0.0681 0.0
H1351 H 0.99584 0.39535 0.09114 0.0
H1352 H 0.02879 0.42517 0.07121 0.0
H1353 H 0.0278 0.41243 0.04815 0.0
H1354 H 0.01456 0.40716 0.11425 0.0
H1355 H 0.00751 0.44046 0.07904 0.0
H1356 H 0.00415 0.42594 0.07066 0.0
H1357 H 0.01957 0.43843 0.07113 0.0
C1358 C 0.00227 0.39178 0.06861 0.0
C1359 C 0.01122 0.39645 0.05629 0.0
C1360 C 0.00282 0.39913 0.08176 0.0
C1361 C 0.01227 0.41128 0.08272 0.0
C1362 C 0.02126 0.41591 0.07051 0.0
H1363 H 0.03951 0.47093 0.15075 0.0
H1364 H 0.03519 0.45712 0.12756 0.0
C1365 C 0.02073 0.40858 0.0574 0.0
C1366 C 0.01303 0.41903 0.09678 0.0
H1367 H 0.01467 0.44594 0.10655 0.0
C1368 C 0.01444 0.41557 0.11262 0.0
C1369 C 0.01289 0.43 0.09458 0.0
C1370 C 0.01083 0.43389 0.07796 0.0
C1371 C 0.01616 0.42301 0.12626 0.0
C1372 C 0.01627 0.4341 0.12401 0.0
C1373 C 0.01462 0.43745 0.10822 0.0
C1374 C 0.0185 0.44256 0.13782 0.0
C1375 C 0.0183 0.41916 0.14288 0.0
C1376 C 0.01041 0.43904 0.15112 0.0
C1377 C 0.01289 0.44688 0.16444 0.0
C1378 C 0.02348 0.45842 0.16466 0.0
C1379 C 0.03137 0.46204 0.15108 0.0
C1380 C 0.02888 0.45419 0.13777 0.0
H1381 H 0.02067 0.41187 0.1419 0.0
H1382 H 0.02573 0.427 0.14952 0.0
H1383 H 0.00988 0.41562 0.15032 0.0
H1384 H 0.00225 0.43017 0.15127 0.0
H1385 H 0.00667 0.44377 0.17475 0.0
H1386 H 0.61043 0.62975 0.05193 0.0
H1387 H 0.59865 0.61792 0.07569 0.0
H1388 H 0.6271 0.61021 0.08817 0.0
H1389 H 0.63902 0.62214 0.06453 0.0
H1390 H 0.59006 0.59341 0.0831 0.0
H1391 H 0.62181 0.62399 0.13098 0.0
H1392 H 0.62271 0.62858 0.10982 0.0
H1393 H 0.62872 0.61904 0.11591 0.0
C1394 C 0.6142 0.62557 0.05976 0.0
C1395 C 0.62568 0.62692 0.05643 0.0
C1396 C 0.60744 0.6188 0.0733 0.0
C1397 C 0.61207 0.61333 0.0838 0.0
C1398 C 0.62347 0.61455 0.08039 0.0
H1399 H 0.5717 0.55701 0.15648 0.0
H1400 H 0.58295 0.56847 0.1322 0.0
C1401 C 0.63023 0.62132 0.06685 0.0
C1402 C 0.60489 0.60625 0.0982 0.0
H1403 H 0.60541 0.60512 0.14003 0.0
C1404 C 0.59339 0.59597 0.09556 0.0
C1405 C 0.60921 0.6097 0.11443 0.0
C1406 C 0.62124 0.62099 0.11803 0.0
C1407 C 0.58615 0.58895 0.10873 0.0
C1408 C 0.59061 0.59222 0.12494 0.0
C1409 C 0.60205 0.60258 0.12758 0.0
C1410 C 0.58351 0.58513 0.1394 0.0
C1411 C 0.57369 0.57824 0.10521 0.0
C1412 C 0.58028 0.59075 0.15163 0.0
C1413 C 0.57399 0.58428 0.1656 0.0
C1414 C 0.57084 0.57205 0.16766 0.0
C1415 C 0.57405 0.56643 0.15533 0.0
C1416 C 0.58036 0.57292 0.14136 0.0
H1417 H 0.5704 0.57885 0.09279 0.0
H1418 H 0.57413 0.56974 0.10575 0.0
H1419 H 0.56695 0.57757 0.11444 0.0
H1420 H 0.5827 0.60019 0.15041 0.0
H1421 H 0.57186 0.58897 0.17497 0.0
H1422 H 0.39468 0.9962 0.05139 0.0
H1423 H 0.40693 0.99722 0.07519 0.0
H1424 H 0.40994 0.03129 0.08951 0.0
H1425 H 0.39751 0.03023 0.06588 0.0
H1426 H 0.43047 0.01479 0.0834 0.0
H1427 H 0.39787 0.01125 0.13146 0.0
H1428 H 0.3936 0.00783 0.11016 0.0
H1429 H 0.40186 0.02336 0.11704 0.0
C1430 C 0.39791 0.00388 0.05965 0.0
C1431 C 0.39508 0.0131 0.05684 0.0
C1432 C 0.40492 0.00446 0.07322 0.0
C1433 C 0.40919 0.01424 0.08425 0.0
C1434 C 0.40651 0.02354 0.08135 0.0
H1435 H 0.45256 0.03252 0.17345 0.0
H1436 H 0.4418 0.03299 0.14876 0.0
C1437 C 0.39947 0.02295 0.0678 0.0
C1438 C 0.41661 0.01476 0.09863 0.0
H1439 H 0.41738 0.01555 0.14052 0.0
C1440 C 0.4276 0.01492 0.09589 0.0
C1441 C 0.41283 0.01495 0.11491 0.0
C1442 C 0.40085 0.01423 0.11864 0.0
C1443 C 0.435 0.01539 0.10901 0.0
C1444 C 0.43122 0.01556 0.12528 0.0
C1445 C 0.42027 0.01547 0.12802 0.0
C1446 C 0.43834 0.01555 0.13967 0.0
C1447 C 0.44689 0.01588 0.10538 0.0
C1448 C 0.43995 0.00559 0.14272 0.0
C1449 C 0.44612 0.0053 0.15677 0.0
C1450 C 0.45077 0.01497 0.16807 0.0
C1451 C 0.44925 0.02501 0.16487 0.0
C1452 C 0.44304 0.02526 0.15084 0.0
H1453 H 0.44989 0.01874 0.09253 0.0
H1454 H 0.45417 0.02226 0.11383 0.0
H1455 H 0.44573 0.0067 0.10716 0.0
H1456 H 0.43624 0.99791 0.13438 0.0
H1457 H 0.44721 0.99748 0.15884 0.0
H1458 H 0.41033 0.02496 0.98234 0.0
H1459 H 0.42165 0.02363 0.95889 0.0
H1460 H 0.3895 0.99113 0.94246 0.0
H1461 H 0.37807 0.99247 0.96579 0.0
H1462 H 0.42581 0.00456 0.95033 0.0
H1463 H 0.40032 0.01296 0.90158 0.0
H1464 H 0.39942 0.01615 0.92296 0.0
H1465 H 0.39094 0.00082 0.9154 0.0
C1466 C 0.40565 0.01756 0.97369 0.0
C1467 C 0.39329 0.00885 0.97584 0.0
C1468 C 0.41214 0.0168 0.96033 0.0
C1469 C 0.40637 0.00738 0.94883 0.0
C1470 C 0.39406 0.99861 0.95103 0.0
H1471 H 0.42898 0.98698 0.85998 0.0
H1472 H 0.41821 0.98792 0.88427 0.0
C1473 C 0.38756 0.99935 0.9644 0.0
C1474 C 0.4133 0.00664 0.93469 0.0
H1475 H 0.41437 0.007 0.89282 0.0
C1476 C 0.42335 0.00514 0.93775 0.0
C1477 C 0.41006 0.00741 0.9183 0.0
C1478 C 0.39967 0.00953 0.9143 0.0
C1479 C 0.43013 0.00416 0.92483 0.0
C1480 C 0.42686 0.00488 0.90845 0.0
C1481 C 0.41682 0.00641 0.9054 0.0
C1482 C 0.43368 0.00404 0.89424 0.0
C1483 C 0.44054 0.00207 0.92881 0.0
C1484 C 0.44596 0.01281 0.89179 0.0
C1485 C 0.45219 0.01225 0.87796 0.0
C1486 C 0.44622 0.00294 0.86629 0.0
C1487 C 0.43392 0.99414 0.86886 0.0
C1488 C 0.42772 0.99472 0.88267 0.0
H1489 H 0.43994 0.9987 0.94156 0.0
H1490 H 0.44077 0.99542 0.92019 0.0
H1491 H 0.44926 0.01078 0.92762 0.0
H1492 H 0.45068 0.02021 0.90043 0.0
H1493 H 0.46166 0.01913 0.87639 0.0
H1494 H 0.99522 0.39875 0.98809 0.0
H1495 H 0.99298 0.40922 0.96436 0.0
H1496 H 0.01747 0.40182 0.93663 0.0
H1497 H 0.02002 0.39158 0.96056 0.0
H1498 H 0.02206 0.42504 0.9319 0.0
H1499 H 0.9728 0.39234 0.92421 0.0
H1500 H 0.97651 0.39898 0.9443 0.0
H1501 H 0.98236 0.3894 0.93759 0.0
C1502 C 1.00014 0.39936 0.97695 0.0
C1503 C 0.00772 0.39426 0.97612 0.0
C1504 C 0.9988 0.40529 0.96337 0.0
C1505 C 0.00485 0.40607 0.94861 0.0
C1506 C 0.01266 0.40124 0.94787 0.0
H1507 H 0.98437 0.42271 0.85476 0.0
H1508 H 0.98876 0.41331 0.87794 0.0
C1509 C 0.01409 0.39539 0.96152 0.0
C1510 C 0.00296 0.41187 0.93397 0.0
H1511 H 0.98092 0.41061 0.90867 0.0
C1512 C 0.01308 0.42186 0.92675 0.0
C1513 C 0.99126 0.40759 0.92711 0.0
C1514 C 0.98013 0.39641 0.93359 0.0
C1515 C 0.01178 0.42782 0.91303 0.0
C1516 C 1.0 0.42385 0.90661 0.0
C1517 C 0.98993 0.41374 0.91369 0.0
C1518 C 0.99787 0.42982 0.89235 0.0
C1519 C 0.02305 0.43813 0.90537 0.0
C1520 C 0.00149 0.44224 0.89274 0.0
C1521 C 0.99906 0.44765 0.87943 0.0
C1522 C 0.99276 0.44069 0.86563 0.0
C1523 C 0.98911 0.42827 0.86531 0.0
C1524 C 0.99166 0.4229 0.87852 0.0
H1525 H 0.03133 0.43769 0.90857 0.0
H1526 H 0.02224 0.43807 0.89179 0.0
H1527 H 0.02434 0.4469 0.91002 0.0
H1528 H 0.00602 0.4477 0.90345 0.0
H1529 H 0.00186 0.45722 0.88007 0.0
H1530 H 0.62568 0.63995 0.96241 0.0
H1531 H 0.61451 0.62699 0.93906 0.0
H1532 H 0.60928 0.59541 0.96579 0.0
H1533 H 0.62074 0.60835 0.98893 0.0
H1534 H 0.61746 0.59579 0.93575 0.0
H1535 H 0.57868 0.60408 0.93175 0.0
H1536 H 0.59316 0.61785 0.93103 0.0
H1537 H 0.58872 0.60864 0.94929 0.0
C1538 C 0.62203 0.63023 0.96335 0.0
C1539 C 0.62409 0.62516 0.97747 0.0
C1540 C 0.61557 0.62281 0.95005 0.0
C1541 C 0.61088 0.61019 0.95076 0.0
C1542 C 0.61277 0.60511 0.96499 0.0
H1543 H 0.56263 0.55681 0.87849 0.0
H1544 H 0.57104 0.56942 0.90315 0.0
C1545 C 0.61932 0.61252 0.9782 0.0
C1546 C 0.60478 0.60235 0.9363 0.0
H1547 H 0.58162 0.59412 0.90877 0.0
C1548 C 0.60957 0.59537 0.92993 0.0
C1549 C 0.59439 0.60167 0.92883 0.0
C1550 C 0.58835 0.60837 0.93567 0.0
C1551 C 0.60443 0.58792 0.91614 0.0
C1552 C 0.59441 0.58769 0.90819 0.0
C1553 C 0.58941 0.59444 0.91475 0.0
C1554 C 0.58908 0.58054 0.89299 0.0
C1555 C 0.60971 0.58024 0.91036 0.0
C1556 C 0.59634 0.58283 0.87898 0.0
C1557 C 0.59159 0.57562 0.86499 0.0
C1558 C 0.57944 0.56607 0.86464 0.0
C1559 C 0.57202 0.56411 0.87842 0.0
C1560 C 0.57681 0.57129 0.8925 0.0
H1561 H 0.61476 0.57871 0.92033 0.0
H1562 H 0.60247 0.57127 0.90577 0.0
H1563 H 0.6162 0.58501 0.9002 0.0
H1564 H 0.60573 0.59014 0.87893 0.0
H1565 H 0.59745 0.57751 0.85443 0.0
H1566 H 1.00043 0.60845 0.99064 0.0
H1567 H 1.00072 0.59629 0.9676 0.0
H1568 H 0.01774 0.62846 0.93728 0.0
H1569 H 0.018 0.64075 0.96057 0.0
H1570 H 0.99001 0.59147 0.93928 0.0
H1571 H 0.03966 0.61527 0.92812 0.0
H1572 H 0.03319 0.61815 0.94606 0.0
H1573 H 0.03378 0.62545 0.92685 0.0
C1574 C 0.00433 0.61293 0.97909 0.0
C1575 C 0.00927 0.62555 0.97741 0.0
C1576 C 0.00448 0.60598 0.96592 0.0
C1577 C 0.00946 0.61147 0.95075 0.0
C1578 C 0.0142 0.62406 0.94898 0.0
H1579 H 0.99278 0.57212 0.85837 0.0
H1580 H 0.99305 0.58351 0.88272 0.0
C1581 C 0.01426 0.63106 0.96225 0.0
C1582 C 0.00926 0.60392 0.93669 0.0
H1583 H 0.02706 0.60169 0.90708 0.0
C1584 C 0.99814 0.59365 0.93232 0.0
C1585 C 0.01989 0.60661 0.92776 0.0
C1586 C 0.03232 0.61689 0.93255 0.0
C1587 C 0.99731 0.58614 0.91917 0.0
C1588 C 0.0078 0.58923 0.90968 0.0
C1589 C 0.01897 0.59938 0.91421 0.0
C1590 C 0.00745 0.58212 0.895 0.0
C1591 C 0.98522 0.57483 0.91588 0.0
C1592 C 0.01573 0.57788 0.89347 0.0
C1593 C 0.01577 0.57163 0.87937 0.0
C1594 C 0.00745 0.56939 0.86663 0.0
C1595 C 0.99913 0.57355 0.86818 0.0
C1596 C 0.99924 0.57999 0.88213 0.0
H1597 H 0.97954 0.57165 0.92715 0.0
H1598 H 0.98014 0.5769 0.90658 0.0
H1599 H 0.98644 0.56731 0.91121 0.0
H1600 H 0.02218 0.57944 0.90318 0.0
H1601 H 0.02228 0.56852 0.87844 0.0
H1602 H 0.37897 0.39499 0.96469 0.0
H1603 H 0.39135 0.40665 0.94111 0.0
H1604 H 0.42299 0.40825 0.9632 0.0
H1605 H 0.41073 0.39666 0.98677 0.0
H1606 H 0.42645 0.43112 0.95028 0.0
H1607 H 0.40492 0.39292 0.90559 0.0
H1608 H 0.39478 0.39605 0.91724 0.0
H1609 H 0.40356 0.39051 0.92751 0.0
C1610 C 0.38857 0.39784 0.96451 0.0
C1611 C 0.39388 0.39487 0.97753 0.0
C1612 C 0.39561 0.40445 0.95103 0.0
C1613 C 0.40804 0.40819 0.95037 0.0
C1614 C 0.4134 0.40541 0.96347 0.0
H1615 H 0.4691 0.44629 0.88487 0.0
H1616 H 0.45556 0.437 0.90832 0.0
C1617 C 0.40637 0.39877 0.9769 0.0
C1618 C 0.41554 0.41495 0.93603 0.0
H1619 H 0.42009 0.41187 0.89545 0.0
C1620 C 0.42506 0.42695 0.93827 0.0
C1621 C 0.41364 0.40948 0.92039 0.0
C1622 C 0.40374 0.3965 0.91745 0.0
C1623 C 0.43275 0.43364 0.92524 0.0
C1624 C 0.43105 0.42807 0.90967 0.0
C1625 C 0.42139 0.41613 0.90739 0.0
C1626 C 0.43937 0.43427 0.89569 0.0
C1627 C 0.44254 0.44665 0.92824 0.0
C1628 C 0.43475 0.43563 0.88069 0.0
C1629 C 0.44243 0.44075 0.86717 0.0
C1630 C 0.45491 0.44459 0.86835 0.0
C1631 C 0.45954 0.44335 0.88348 0.0
C1632 C 0.45183 0.43818 0.89697 0.0
H1633 H 0.44029 0.45063 0.93888 0.0
H1634 H 0.45124 0.44694 0.93102 0.0
H1635 H 0.44393 0.4524 0.91728 0.0
H1636 H 0.42515 0.43257 0.87938 0.0
H1637 H 0.43851 0.44136 0.85565 0.0
H1638 H 0.61671 0.98847 0.97228 0.0
H1639 H 0.60438 0.98825 0.94895 0.0
H1640 H 0.62114 0.02727 0.95175 0.0
H1641 H 0.63344 0.02758 0.97512 0.0
H1642 H 0.588 0.99927 0.949 0.0
H1643 H 0.62518 0.01866 0.9026 0.0
H1644 H 0.62604 0.0112 0.92102 0.0
H1645 H 0.62822 0.02626 0.92213 0.0
C1646 C 0.6178 0.99701 0.96788 0.0
C1647 C 0.62606 0.00805 0.97549 0.0
C1648 C 0.61074 0.99686 0.9546 0.0
C1649 C 0.61193 0.00775 0.94861 0.0
C1650 C 0.62018 0.01878 0.95613 0.0
H1651 H 0.5808 0.02453 0.86444 0.0
H1652 H 0.59222 0.02566 0.88919 0.0
C1653 C 0.62717 0.01894 0.96949 0.0
C1654 C 0.60442 0.00758 0.93462 0.0
H1655 H 0.60595 0.01526 0.89421 0.0
C1656 C 0.59189 0.00274 0.937 0.0
C1657 C 0.60958 0.01222 0.91907 0.0
C1658 C 0.62298 0.01733 0.9159 0.0
C1659 C 0.58435 0.00252 0.92421 0.0
C1660 C 0.58946 0.00696 0.90853 0.0
C1661 C 0.60204 0.01187 0.90622 0.0
C1662 C 0.58193 0.00635 0.89421 0.0
C1663 C 0.57105 0.99777 0.92774 0.0
C1664 C 0.57232 0.99513 0.88883 0.0
C1665 C 0.56566 0.99447 0.87483 0.0
C1666 C 0.56858 0.00501 0.86574 0.0
C1667 C 0.57816 0.01626 0.87125 0.0
C1668 C 0.58477 0.01691 0.88533 0.0
H1669 H 0.56944 0.99837 0.94102 0.0
H1670 H 0.56755 0.00287 0.92072 0.0
H1671 H 0.56573 0.98805 0.92413 0.0
H1672 H 0.57012 0.98681 0.89526 0.0
H1673 H 0.55827 0.98567 0.87105 0.0
H1674 H 0.60729 0.99566 0.04322 0.0
H1675 H 0.59444 0.99478 0.06618 0.0
H1676 H 0.6263 0.02075 0.09288 0.0
H1677 H 0.63925 0.02175 0.06989 0.0
H1678 H 0.60875 0.9976 0.1099 0.0
H1679 H 0.58734 0.02233 0.08213 0.0
H1680 H 0.58764 0.01076 0.06974 0.0
H1681 H 0.60165 0.02422 0.07496 0.0
C1682 C 0.61156 0.00126 0.05393 0.0
C1683 C 0.62427 0.00878 0.05477 0.0
C1684 C 0.6042 0.00078 0.06699 0.0
C1685 C 0.60943 0.00778 0.08112 0.0
C1686 C 0.62211 0.01533 0.082 0.0
H1687 H 0.58042 0.00891 0.17731 0.0
H1688 H 0.59354 0.01219 0.15376 0.0
C1689 C 0.62948 0.0159 0.06888 0.0
C1690 C 0.60169 0.00676 0.09527 0.0
H1691 H 0.57969 0.01289 0.10782 0.0
C1692 C 0.60244 0.001 0.10953 0.0
C1693 C 0.59341 0.0111 0.0946 0.0
C1694 C 0.59246 0.01753 0.0796 0.0
C1695 C 0.59494 0.99925 0.1231 0.0
C1696 C 0.58672 0.00371 0.12254 0.0
C1697 C 0.58601 0.00951 0.10825 0.0
C1698 C 0.57874 0.00238 0.13663 0.0
C1699 C 0.59564 0.9923 0.1377 0.0
C1700 C 0.56604 0.99626 0.13468 0.0
C1701 C 0.55848 0.99461 0.14807 0.0
C1702 C 0.56347 0.99906 0.1637 0.0
C1703 C 0.57622 0.00546 0.16547 0.0
C1704 C 0.58376 0.00718 0.15205 0.0
H1705 H 0.5996 0.98654 0.13432 0.0
H1706 H 0.60158 0.99885 0.14721 0.0
H1707 H 0.5865 0.9864 0.14314 0.0
H1708 H 0.56197 0.99258 0.12284 0.0
H1709 H 0.54872 0.98983 0.14618 0.0
H1710 H 0.02227 0.62244 0.04819 0.0
H1711 H 0.02181 0.61002 0.07142 0.0
H1712 H 0.99356 0.6144 0.09411 0.0
H1713 H 0.99375 0.62657 0.07069 0.0
H1714 H 0.02644 0.61582 0.10352 0.0
H1715 H 0.97897 0.57796 0.09618 0.0
H1716 H 0.9867 0.58931 0.0805 0.0
H1717 H 0.98005 0.59254 0.09789 0.0
C1718 C 0.01592 0.62071 0.0581 0.0
C1719 C 0.00799 0.62541 0.05759 0.0
C1720 C 0.01567 0.61361 0.07136 0.0
C1721 C 0.0075 0.61109 0.08437 0.0
C1722 C 0.99971 0.61595 0.08401 0.0
H1723 H 0.99685 0.57746 0.1795 0.0
H1724 H 0.99676 0.58846 0.15497 0.0
C1725 C 0.99989 0.62298 0.07068 0.0
C1726 C 0.00741 0.60368 0.09851 0.0
H1727 H 0.98902 0.57832 0.12108 0.0
C1728 C 0.01828 0.60757 0.10728 0.0
C1729 C 0.99677 0.59289 0.10336 0.0
C1730 C 0.98499 0.58785 0.0939 0.0
C1731 C 0.01872 0.60111 0.12099 0.0
C1732 C 0.00803 0.59047 0.12599 0.0
C1733 C 0.99719 0.58652 0.11719 0.0
C1734 C 0.00787 0.58347 0.14058 0.0
C1735 C 0.03052 0.60583 0.13029 0.0
C1736 C 0.01403 0.57688 0.14048 0.0
C1737 C 0.01398 0.57043 0.15443 0.0
C1738 C 0.00778 0.57047 0.16873 0.0
C1739 C 0.00154 0.57703 0.16865 0.0
C1740 C 0.00154 0.5834 0.15468 0.0
H1741 H 0.0374 0.6152 0.12648 0.0
H1742 H 0.02893 0.6058 0.14369 0.0
H1743 H 0.03432 0.59978 0.12799 0.0
H1744 H 0.01884 0.57672 0.12961 0.0
H1745 H 0.01872 0.56535 0.15396 0.0
H1746 H 0.39737 0.41137 0.04895 0.0
H1747 H 0.41004 0.42307 0.07222 0.0
H1748 H 0.40488 0.38999 0.09442 0.0
H1749 H 0.39248 0.37829 0.07097 0.0
H1750 H 0.40462 0.42198 0.10441 0.0
H1751 H 0.44142 0.41109 0.09613 0.0
H1752 H 0.43002 0.4078 0.08064 0.0
H1753 H 0.42667 0.39776 0.09789 0.0
C1754 C 0.39898 0.4066 0.05877 0.0
C1755 C 0.394 0.39393 0.0581 0.0
C1756 C 0.40622 0.41329 0.07205 0.0
C1757 C 0.4086 0.40744 0.08492 0.0
C1758 C 0.40344 0.39475 0.08442 0.0
H1759 H 0.44204 0.42791 0.18021 0.0
H1760 H 0.4306 0.41765 0.1555 0.0
C1761 C 0.39628 0.38806 0.07108 0.0
C1762 C 0.41623 0.41458 0.09905 0.0
H1763 H 0.44137 0.42049 0.12148 0.0
C1764 C 0.41272 0.42174 0.10805 0.0
C1765 C 0.42684 0.41432 0.10373 0.0
C1766 C 0.43154 0.40743 0.094 0.0
C1767 C 0.41933 0.42836 0.12187 0.0
C1768 C 0.42972 0.42783 0.12676 0.0
C1769 C 0.43334 0.42081 0.11768 0.0
C1770 C 0.43676 0.4342 0.14159 0.0
C1771 C 0.41502 0.43565 0.13144 0.0
C1772 C 0.44408 0.44691 0.14186 0.0
C1773 C 0.45079 0.45283 0.15591 0.0
C1774 C 0.45027 0.44612 0.16995 0.0
C1775 C 0.44286 0.43336 0.16956 0.0
C1776 C 0.43624 0.42747 0.15549 0.0
H1777 H 0.40588 0.4338 0.12738 0.0
H1778 H 0.41465 0.43361 0.14475 0.0
H1779 H 0.42157 0.4455 0.12977 0.0
H1780 H 0.44467 0.45223 0.13114 0.0
H1781 H 0.45651 0.46263 0.15568 0.0
H1782 H 0.66193 0.71599 0.40103 0.0
H1783 H 0.66294 0.72865 0.42436 0.0
H1784 H 0.69534 0.75895 0.4041 0.0
H1785 H 0.69433 0.74643 0.3807 0.0
H1786 H 0.68181 0.74037 0.44708 0.0
H1787 H 0.67357 0.77355 0.41351 0.0
H1788 H 0.67037 0.7592 0.4047 0.0
H1789 H 0.6857 0.77184 0.40511 0.0
C1790 C 0.66922 0.72538 0.4015 0.0
C1791 C 0.67803 0.73024 0.38901 0.0
C1792 C 0.66979 0.73258 0.41483 0.0
C1793 C 0.67911 0.74478 0.41582 0.0
C1794 C 0.68793 0.74964 0.40339 0.0
H1795 H 0.7064 0.79174 0.50048 0.0
H1796 H 0.70321 0.77884 0.47658 0.0
C1797 C 0.68738 0.74245 0.39009 0.0
C1798 C 0.6799 0.75232 0.43015 0.0
H1799 H 0.68064 0.77863 0.4411 0.0
C1800 C 0.68148 0.74869 0.44579 0.0
C1801 C 0.67931 0.7631 0.42846 0.0
C1802 C 0.67703 0.76712 0.41207 0.0
C1803 C 0.68283 0.75574 0.45975 0.0
C1804 C 0.68276 0.76677 0.45795 0.0
C1805 C 0.68083 0.77023 0.44239 0.0
C1806 C 0.68479 0.77489 0.47209 0.0
C1807 C 0.68427 0.7513 0.47631 0.0
C1808 C 0.6756 0.77722 0.47718 0.0
C1809 C 0.67742 0.78467 0.49077 0.0
C1810 C 0.68852 0.79001 0.49941 0.0
C1811 C 0.69779 0.78786 0.49402 0.0
C1812 C 0.69594 0.78038 0.48048 0.0
H1813 H 0.68109 0.7414 0.47617 0.0
H1814 H 0.69404 0.75622 0.47981 0.0
H1815 H 0.67913 0.75308 0.48587 0.0
H1816 H 0.66696 0.77314 0.47077 0.0
H1817 H 0.67016 0.78627 0.49451 0.0
H1818 H 0.27845 0.96473 0.38776 0.0
H1819 H 0.26637 0.95282 0.41123 0.0
H1820 H 0.29145 0.93978 0.4193 0.0
H1821 H 0.30375 0.95191 0.39598 0.0
H1822 H 0.25472 0.92816 0.41646 0.0
H1823 H 0.28983 0.95277 0.46435 0.0
H1824 H 0.29121 0.95854 0.44376 0.0
H1825 H 0.29457 0.94664 0.44795 0.0
C1826 C 0.28142 0.95936 0.39457 0.0
C1827 C 0.29208 0.9593 0.3901 0.0
C1828 C 0.2745 0.95254 0.40794 0.0
C1829 C 0.27809 0.94553 0.41714 0.0
C1830 C 0.28865 0.94531 0.41258 0.0
H1831 H 0.22917 0.89144 0.48897 0.0
H1832 H 0.24235 0.90109 0.4652 0.0
C1833 C 0.29563 0.9522 0.39922 0.0
C1834 C 0.27068 0.93844 0.4314 0.0
H1835 H 0.27144 0.93569 0.47301 0.0
C1836 C 0.25838 0.92976 0.42883 0.0
C1837 C 0.27546 0.94063 0.44753 0.0
C1838 C 0.28846 0.95022 0.45116 0.0
C1839 C 0.25067 0.92331 0.44196 0.0
C1840 C 0.25547 0.92544 0.45807 0.0
C1841 C 0.26781 0.93401 0.46062 0.0
C1842 C 0.24769 0.91946 0.47259 0.0
C1843 C 0.23737 0.91462 0.43854 0.0
C1844 C 0.24658 0.92659 0.48484 0.0
C1845 C 0.23922 0.92113 0.49851 0.0
C1846 C 0.23277 0.9084 0.50025 0.0
C1847 C 0.23402 0.90127 0.48804 0.0
C1848 C 0.24145 0.90676 0.47436 0.0
H1849 H 0.23461 0.91617 0.42624 0.0
H1850 H 0.23564 0.90515 0.43892 0.0
H1851 H 0.23153 0.9155 0.44794 0.0
H1852 H 0.25138 0.93641 0.48377 0.0
H1853 H 0.23869 0.92693 0.50783 0.0
H1854 H 0.06127 0.35948 0.39943 0.0
H1855 H 0.07318 0.35906 0.42285 0.0
H1856 H 0.06802 0.32451 0.40652 0.0
H1857 H 0.05629 0.32494 0.38297 0.0
H1858 H 0.06634 0.34194 0.4479 0.0
H1859 H 0.1049 0.34482 0.41212 0.0
H1860 H 0.09382 0.34807 0.40324 0.0
H1861 H 0.09023 0.33259 0.40604 0.0
C1862 C 0.0627 0.35181 0.40082 0.0
C1863 C 0.05791 0.34228 0.38932 0.0
C1864 C 0.0695 0.35158 0.41419 0.0
C1865 C 0.07166 0.34186 0.41626 0.0
C1866 C 0.0667 0.33223 0.40495 0.0
H1867 H 0.10911 0.32359 0.49064 0.0
H1868 H 0.09716 0.32359 0.46698 0.0
C1869 C 0.05993 0.33246 0.39157 0.0
C1870 C 0.07891 0.34168 0.43041 0.0
H1871 H 0.1046 0.34089 0.44065 0.0
C1872 C 0.07474 0.34177 0.44633 0.0
C1873 C 0.08984 0.34142 0.42831 0.0
C1874 C 0.09505 0.34183 0.41152 0.0
C1875 C 0.08111 0.34143 0.46021 0.0
C1876 C 0.09204 0.34119 0.4581 0.0
C1877 C 0.0962 0.34105 0.4422 0.0
C1878 C 0.09939 0.34127 0.47228 0.0
C1879 C 0.076 0.34113 0.47703 0.0
C1880 C 0.10475 0.35129 0.48291 0.0
C1881 C 0.11154 0.35132 0.49641 0.0
C1882 C 0.11315 0.34132 0.49953 0.0
C1883 C 0.10792 0.33136 0.48868 0.0
C1884 C 0.10115 0.33137 0.47513 0.0
H1885 H 0.0662 0.33836 0.47648 0.0
H1886 H 0.07709 0.33477 0.48525 0.0
H1887 H 0.08101 0.35035 0.48254 0.0
H1888 H 0.10364 0.3591 0.48077 0.0
H1889 H 0.11533 0.35907 0.50461 0.0
H1890 H 0.04535 0.33275 0.29261 0.0
H1891 H 0.05833 0.33464 0.26924 0.0
H1892 H 0.09029 0.35698 0.29844 0.0
H1893 H 0.07739 0.3554 0.32162 0.0
H1894 H 0.09164 0.36707 0.26932 0.0
H1895 H 0.07846 0.31878 0.26027 0.0
H1896 H 0.06572 0.32123 0.25985 0.0
H1897 H 0.07439 0.32406 0.27844 0.0
C1898 C 0.05514 0.33796 0.29407 0.0
C1899 C 0.06036 0.34393 0.30892 0.0
C1900 C 0.06255 0.33897 0.28075 0.0
C1901 C 0.07529 0.3458 0.28216 0.0
C1902 C 0.08049 0.35162 0.29708 0.0
H1903 H 0.12851 0.349 0.21159 0.0
H1904 H 0.11522 0.34481 0.23548 0.0
C1905 C 0.0731 0.35071 0.31032 0.0
C1906 C 0.08325 0.34758 0.26785 0.0
H1907 H 0.09028 0.33258 0.23898 0.0
C1908 C 0.09138 0.35952 0.26275 0.0
C1909 C 0.08303 0.33774 0.2594 0.0
C1910 C 0.07502 0.32474 0.26485 0.0
C1911 C 0.09916 0.36191 0.24932 0.0
C1912 C 0.09857 0.35206 0.24044 0.0
C1913 C 0.09061 0.34011 0.24569 0.0
C1914 C 0.10618 0.35404 0.22568 0.0
C1915 C 0.10808 0.37497 0.24497 0.0
C1916 C 0.10529 0.36036 0.21211 0.0
C1917 C 0.1129 0.36282 0.19856 0.0
C1918 C 0.12144 0.35887 0.1982 0.0
C1919 C 0.12201 0.35214 0.21153 0.0
C1920 C 0.11444 0.34976 0.22517 0.0
H1921 H 0.10984 0.38115 0.25557 0.0
H1922 H 0.11689 0.37606 0.24077 0.0
H1923 H 0.10424 0.3779 0.23489 0.0
H1924 H 0.09874 0.36345 0.21205 0.0
H1925 H 0.11207 0.3678 0.18832 0.0
H1926 H 0.66355 0.73118 0.31495 0.0
H1927 H 0.66486 0.74344 0.29106 0.0
H1928 H 0.69604 0.74175 0.2736 0.0
H1929 H 0.6949 0.72963 0.29763 0.0
H1930 H 0.69914 0.76508 0.27245 0.0
H1931 H 0.65526 0.7314 0.24398 0.0
H1932 H 0.65395 0.73495 0.26494 0.0
H1933 H 0.66236 0.72742 0.26013 0.0
C1934 C 0.67066 0.73338 0.306 0.0
C1935 C 0.67909 0.7294 0.30812 0.0
C1936 C 0.67136 0.74033 0.29231 0.0
C1937 C 0.68043 0.74333 0.28043 0.0
C1938 C 0.68893 0.73947 0.28259 0.0
H1939 H 0.69991 0.78358 0.18878 0.0
H1940 H 0.69922 0.77226 0.21339 0.0
C1941 C 0.68826 0.73254 0.2963 0.0
C1942 C 0.68119 0.75072 0.26591 0.0
H1943 H 0.66532 0.75119 0.23234 0.0
C1944 C 0.69178 0.76203 0.26362 0.0
C1945 C 0.67155 0.74671 0.25445 0.0
C1946 C 0.66018 0.73441 0.25587 0.0
C1947 C 0.69291 0.76955 0.25031 0.0
C1948 C 0.68326 0.76555 0.23889 0.0
C1949 C 0.67267 0.75424 0.24117 0.0
C1950 C 0.68401 0.77287 0.22431 0.0
C1951 C 0.70432 0.7818 0.24876 0.0
C1952 C 0.67559 0.77684 0.2222 0.0
C1953 C 0.67597 0.78334 0.20815 0.0
C1954 C 0.68474 0.78593 0.19589 0.0
C1955 C 0.69319 0.78196 0.19811 0.0
C1956 C 0.69281 0.77547 0.21216 0.0
H1957 H 0.70939 0.78478 0.26055 0.0
H1958 H 0.7104 0.78122 0.23948 0.0
H1959 H 0.70214 0.78883 0.24465 0.0
H1960 H 0.66871 0.77489 0.23142 0.0
H1961 H 0.66941 0.78636 0.2069 0.0
H1962 H 0.29233 0.94202 0.31921 0.0
H1963 H 0.28097 0.92921 0.2959 0.0
H1964 H 0.27745 0.95865 0.27566 0.0
H1965 H 0.28896 0.97161 0.29889 0.0
H1966 H 0.25732 0.92217 0.28492 0.0
H1967 H 0.29219 0.949 0.23772 0.0
H1968 H 0.29546 0.95091 0.25943 0.0
H1969 H 0.28737 0.95756 0.24999 0.0
C1970 C 0.28914 0.94578 0.3098 0.0
C1971 C 0.29159 0.95784 0.31082 0.0
C1972 C 0.28264 0.93844 0.29651 0.0
C1973 C 0.27852 0.94304 0.28395 0.0
C1974 C 0.28075 0.95501 0.28508 0.0
H1975 H 0.2411 0.91192 0.1919 0.0
H1976 H 0.25032 0.92478 0.21599 0.0
C1977 C 0.28727 0.96237 0.29838 0.0
C1978 C 0.27189 0.93525 0.26972 0.0
H1979 H 0.27355 0.93264 0.22823 0.0
C1980 C 0.26086 0.92444 0.27252 0.0
C1981 C 0.27654 0.93825 0.25357 0.0
C1982 C 0.28859 0.9495 0.24994 0.0
C1983 C 0.25428 0.91659 0.25955 0.0
C1984 C 0.25899 0.91955 0.24342 0.0
C1985 C 0.26997 0.93041 0.24061 0.0
C1986 C 0.25278 0.91144 0.22927 0.0
C1987 C 0.24227 0.90531 0.26319 0.0
C1988 C 0.25112 0.89966 0.22874 0.0
C1989 C 0.24578 0.89224 0.21503 0.0
C1990 C 0.24204 0.89649 0.20155 0.0
C1991 C 0.24367 0.90828 0.20218 0.0
C1992 C 0.24902 0.91569 0.21588 0.0
H1993 H 0.23843 0.90603 0.2751 0.0
H1994 H 0.23553 0.90354 0.25334 0.0
H1995 H 0.24367 0.89737 0.26389 0.0
H1996 H 0.25416 0.89628 0.23882 0.0
H1997 H 0.24459 0.88319 0.21498 0.0
H1998 H 0.69164 0.97403 0.29833 0.0
H1999 H 0.69202 0.96185 0.27529 0.0
H2000 H 0.66095 0.93004 0.2954 0.0
H2001 H 0.66057 0.94212 0.31854 0.0
H2002 H 0.67991 0.92607 0.28512 0.0
H2003 H 0.66756 0.94888 0.23693 0.0
H2004 H 0.68037 0.95903 0.24936 0.0
H2005 H 0.66555 0.95046 0.25854 0.0
C2006 C 0.68488 0.96444 0.29783 0.0
C2007 C 0.67604 0.95904 0.31019 0.0
C2008 C 0.68508 0.95751 0.28463 0.0
C2009 C 0.67641 0.94508 0.28354 0.0
C2010 C 0.66768 0.93963 0.29598 0.0
H2011 H 0.6616 0.90022 0.19634 0.0
H2012 H 0.65979 0.91029 0.2209 0.0
C2013 C 0.66747 0.94655 0.30917 0.0
C2014 C 0.67652 0.93772 0.2695 0.0
H2015 H 0.67382 0.93512 0.22781 0.0
C2016 C 0.67854 0.928 0.27259 0.0
C2017 C 0.67456 0.94018 0.25321 0.0
C2018 C 0.67177 0.95013 0.24926 0.0
C2019 C 0.67891 0.92083 0.25974 0.0
C2020 C 0.67736 0.92355 0.24339 0.0
C2021 C 0.67509 0.93311 0.24035 0.0
C2022 C 0.67822 0.91673 0.2292 0.0
C2023 C 0.68084 0.91033 0.26378 0.0
C2024 C 0.68917 0.91697 0.22577 0.0
C2025 C 0.69021 0.91118 0.21179 0.0
C2026 C 0.68034 0.90508 0.20093 0.0
C2027 C 0.66932 0.90469 0.20456 0.0
C2028 C 0.66829 0.91051 0.21853 0.0
H2029 H 0.67864 0.9075 0.27681 0.0
H2030 H 0.67516 0.90238 0.2558 0.0
H2031 H 0.69053 0.91313 0.26169 0.0
H2032 H 0.697 0.92188 0.2337 0.0
H2033 H 0.6988 0.91158 0.2094 0.0
H2034 H 0.04495 0.73429 0.30144 0.0
H2035 H 0.05629 0.74687 0.2779 0.0
H2036 H 0.08723 0.74332 0.29132 0.0
H2037 H 0.07602 0.73089 0.31498 0.0
H2038 H 0.09333 0.76716 0.28336 0.0
H2039 H 0.06373 0.73439 0.23562 0.0
H2040 H 0.05587 0.73845 0.25038 0.0
H2041 H 0.06317 0.73016 0.25689 0.0
C2042 C 0.05417 0.73619 0.29936 0.0
C2043 C 0.05958 0.73155 0.31 0.0
C2044 C 0.06061 0.74332 0.28587 0.0
C2045 C 0.07254 0.74587 0.28273 0.0
C2046 C 0.07802 0.74142 0.29349 0.0
H2047 H 0.1277 0.78273 0.20858 0.0
H2048 H 0.11608 0.7724 0.23319 0.0
C2049 C 0.0716 0.7343 0.30698 0.0
C2050 C 0.07936 0.75323 0.26829 0.0
H2051 H 0.0793 0.75358 0.22638 0.0
C2052 C 0.09027 0.76421 0.27089 0.0
C2053 C 0.07533 0.74934 0.25205 0.0
C2054 C 0.06394 0.7374 0.24849 0.0
C2055 C 0.09724 0.77144 0.25768 0.0
C2056 C 0.09328 0.7675 0.24145 0.0
C2057 C 0.0823 0.75659 0.23885 0.0
C2058 C 0.10056 0.77432 0.22696 0.0
C2059 C 0.10872 0.78332 0.26121 0.0
C2060 C 0.09562 0.77868 0.21519 0.0
C2061 C 0.1022 0.7845 0.20104 0.0
C2062 C 0.1138 0.78596 0.19832 0.0
C2063 C 0.11876 0.78168 0.21024 0.0
C2064 C 0.11218 0.77589 0.2244 0.0
H2065 H 0.10872 0.78659 0.27386 0.0
H2066 H 0.11668 0.78199 0.26005 0.0
H2067 H 0.10987 0.79046 0.25235 0.0
H2068 H 0.08661 0.77747 0.21688 0.0
H2069 H 0.09805 0.78754 0.192 0.0
H2070 H 0.28969 0.35882 0.32236 0.0
H2071 H 0.27742 0.35939 0.29958 0.0
H2072 H 0.28197 0.33223 0.27396 0.0
H2073 H 0.29395 0.33136 0.29693 0.0
H2074 H 0.28342 0.36559 0.26818 0.0
H2075 H 0.24563 0.31787 0.27118 0.0
H2076 H 0.2568 0.32473 0.2873 0.0
H2077 H 0.26021 0.31898 0.26909 0.0
C2078 C 0.288 0.35291 0.31192 0.0
C2079 C 0.29271 0.34499 0.31146 0.0
C2080 C 0.281 0.35325 0.29891 0.0
C2081 C 0.27859 0.3457 0.28518 0.0
C2082 C 0.28343 0.3379 0.28461 0.0
H2083 H 0.25679 0.35616 0.1887 0.0
H2084 H 0.26778 0.35596 0.21321 0.0
C2085 C 0.29034 0.33747 0.29769 0.0
C2086 C 0.27138 0.34632 0.27124 0.0
H2087 H 0.24657 0.32904 0.24713 0.0
C2088 C 0.27532 0.35761 0.26365 0.0
C2089 C 0.26068 0.33595 0.2655 0.0
C2090 C 0.2555 0.32373 0.2738 0.0
C2091 C 0.26902 0.35876 0.25024 0.0
C2092 C 0.25868 0.34828 0.24398 0.0
C2093 C 0.25457 0.33705 0.25182 0.0
C2094 C 0.25206 0.34872 0.22921 0.0
C2095 C 0.27343 0.37124 0.24308 0.0
C2096 C 0.2395 0.34444 0.22992 0.0
C2097 C 0.23316 0.34442 0.21586 0.0
C2098 C 0.23929 0.34872 0.20083 0.0
C2099 C 0.25187 0.35303 0.20017 0.0
C2100 C 0.25817 0.35294 0.21419 0.0
H2101 H 0.27881 0.37852 0.25216 0.0
H2102 H 0.27943 0.37259 0.23244 0.0
H2103 H 0.26571 0.3723 0.23881 0.0
H2104 H 0.23459 0.34109 0.24137 0.0
H2105 H 0.22349 0.3411 0.21676 0.0
H2106 H 0.27717 0.32516 0.38349 0.0
H2107 H 0.26444 0.32378 0.4068 0.0
H2108 H 0.29281 0.35856 0.42443 0.0
H2109 H 0.30559 0.3601 0.40094 0.0
H2110 H 0.26976 0.3238 0.43996 0.0
H2111 H 0.2626 0.36242 0.42488 0.0
H2112 H 0.2683 0.35592 0.41009 0.0
H2113 H 0.27822 0.36607 0.42566 0.0
C2114 C 0.28069 0.33256 0.39227 0.0
C2115 C 0.29237 0.34276 0.39037 0.0
C2116 C 0.2734 0.33175 0.40558 0.0
C2117 C 0.27762 0.34113 0.41722 0.0
C2118 C 0.28929 0.35133 0.41541 0.0
H2119 H 0.24428 0.34664 0.50815 0.0
H2120 H 0.25804 0.3507 0.48491 0.0
C2121 C 0.2966 0.35216 0.40205 0.0
C2122 C 0.2699 0.33992 0.43154 0.0
H2123 H 0.25461 0.35239 0.45017 0.0
C2124 C 0.26644 0.33005 0.44219 0.0
C2125 C 0.26565 0.34813 0.43446 0.0
C2126 C 0.26877 0.35869 0.42312 0.0
C2127 C 0.25882 0.32813 0.45567 0.0
C2128 C 0.25438 0.33619 0.45842 0.0
C2129 C 0.25801 0.34621 0.44797 0.0
C2130 C 0.24576 0.33417 0.47191 0.0
C2131 C 0.25567 0.31753 0.46696 0.0
C2132 C 0.23418 0.32372 0.47203 0.0
C2133 C 0.22629 0.3214 0.48521 0.0
C2134 C 0.2298 0.32954 0.49851 0.0
C2135 C 0.24125 0.34024 0.49805 0.0
C2136 C 0.24915 0.34255 0.48483 0.0
H2137 H 0.26216 0.31413 0.46564 0.0
H2138 H 0.25563 0.3201 0.47997 0.0
H2139 H 0.24643 0.30996 0.46389 0.0
H2140 H 0.2313 0.31727 0.46199 0.0
H2141 H 0.21745 0.3132 0.48503 0.0
H2142 H 0.69189 0.9618 0.38614 0.0
H2143 H 0.69119 0.94938 0.40952 0.0
H2144 H 0.65483 0.94167 0.42088 0.0
H2145 H 0.65549 0.95418 0.39758 0.0
H2146 H 0.67062 0.94872 0.44821 0.0
H2147 H 0.67176 0.91207 0.41257 0.0
H2148 H 0.68375 0.92717 0.40769 0.0
H2149 H 0.66821 0.92284 0.40331 0.0
C2150 C 0.68373 0.95744 0.39359 0.0
C2151 C 0.67372 0.95893 0.39 0.0
C2152 C 0.68332 0.95029 0.40688 0.0
C2153 C 0.67289 0.94445 0.41676 0.0
C2154 C 0.66294 0.94604 0.41333 0.0
H2155 H 0.65418 0.90011 0.50512 0.0
H2156 H 0.65395 0.91133 0.48088 0.0
C2157 C 0.66333 0.95318 0.40002 0.0
C2158 C 0.67249 0.93695 0.43094 0.0
H2159 H 0.67409 0.91178 0.44146 0.0
C2160 C 0.6713 0.9406 0.44675 0.0
C2161 C 0.67342 0.92639 0.42897 0.0
C2162 C 0.67425 0.92179 0.41222 0.0
C2163 C 0.67127 0.9341 0.4607 0.0
C2164 C 0.67222 0.92355 0.45874 0.0
C2165 C 0.67337 0.91988 0.44292 0.0
C2166 C 0.67212 0.91624 0.47299 0.0
C2167 C 0.67055 0.93878 0.47744 0.0
C2168 C 0.68224 0.91491 0.47626 0.0
C2169 C 0.68235 0.90837 0.49 0.0
C2170 C 0.67229 0.90297 0.50068 0.0
C2171 C 0.66204 0.90406 0.49709 0.0
C2172 C 0.66194 0.9106 0.48335 0.0
H2173 H 0.67299 0.94848 0.47703 0.0
H2174 H 0.66109 0.9334 0.48211 0.0
H2175 H 0.67667 0.93782 0.48629 0.0
H2176 H 0.69015 0.91911 0.46832 0.0
H2177 H 0.69031 0.90756 0.49227 0.0
H2178 H 0.07196 0.71937 0.39096 0.0
H2179 H 0.08461 0.73102 0.41437 0.0
H2180 H 0.06708 0.75257 0.41494 0.0
H2181 H 0.05446 0.74105 0.39149 0.0
H2182 H 0.10037 0.75913 0.41601 0.0
H2183 H 0.06379 0.73718 0.46297 0.0
H2184 H 0.06335 0.72984 0.44378 0.0
H2185 H 0.06012 0.74205 0.44413 0.0
C2186 C 0.07081 0.72659 0.39607 0.0
C2187 C 0.06221 0.72929 0.38943 0.0
C2188 C 0.07805 0.73324 0.40939 0.0
C2189 C 0.0767 0.74257 0.41638 0.0
C2190 C 0.06817 0.74533 0.40974 0.0
H2191 H 0.10611 0.78728 0.50328 0.0
H2192 H 0.09483 0.77721 0.47838 0.0
C2193 C 0.061 0.73876 0.39635 0.0
C2194 C 0.08418 0.74945 0.43065 0.0
H2195 H 0.0827 0.75329 0.47184 0.0
C2196 C 0.09656 0.75787 0.42825 0.0
C2197 C 0.0791 0.74779 0.4465 0.0
C2198 C 0.06588 0.73869 0.44965 0.0
C2199 C 0.104 0.76485 0.44133 0.0
C2200 C 0.09896 0.7631 0.45729 0.0
C2201 C 0.08656 0.75464 0.45962 0.0
C2202 C 0.10636 0.76985 0.47179 0.0
C2203 C 0.11708 0.77425 0.43784 0.0
C2204 C 0.11662 0.76909 0.47636 0.0
C2205 C 0.12322 0.77502 0.49046 0.0
C2206 C 0.11959 0.78168 0.50043 0.0
C2207 C 0.10932 0.78243 0.49576 0.0
C2208 C 0.10278 0.77658 0.4816 0.0
H2209 H 0.11845 0.777 0.42471 0.0
H2210 H 0.12011 0.78249 0.44551 0.0
H2211 H 0.12297 0.77034 0.44065 0.0
H2212 H 0.11941 0.76373 0.46919 0.0
H2213 H 0.13114 0.77432 0.49357 0.0
H2214 H 0.36196 0.07532 0.72171 0.0
H2215 H 0.36082 0.08653 0.74538 0.0
H2216 H 0.32218 0.06153 0.7489 0.0
H2217 H 0.32331 0.05009 0.72545 0.0
H2218 H 0.34805 0.09827 0.74995 0.0
H2219 H 0.33358 0.06085 0.79517 0.0
H2220 H 0.33915 0.06027 0.77503 0.0
H2221 H 0.32372 0.05694 0.77767 0.0
C2222 C 0.35323 0.07219 0.72755 0.0
C2223 C 0.34274 0.06178 0.72181 0.0
C2224 C 0.35258 0.07862 0.74105 0.0
C2225 C 0.34145 0.07477 0.74906 0.0
C2226 C 0.33091 0.06451 0.74314 0.0
H2227 H 0.32963 0.1197 0.8198 0.0
H2228 H 0.32909 0.10821 0.7954 0.0
C2229 C 0.33156 0.05802 0.72969 0.0
C2230 C 0.34093 0.08155 0.76356 0.0
H2231 H 0.33375 0.07863 0.8043 0.0
C2232 C 0.34492 0.09399 0.76184 0.0
C2233 C 0.33699 0.07597 0.7791 0.0
C2234 C 0.33323 0.06281 0.78195 0.0
C2235 C 0.34508 0.101 0.77525 0.0
C2236 C 0.34086 0.09536 0.79071 0.0
C2237 C 0.33687 0.08292 0.79241 0.0
C2238 C 0.34101 0.10226 0.80547 0.0
C2239 C 0.35008 0.11446 0.77283 0.0
C2240 C 0.3476 0.10244 0.8194 0.0
C2241 C 0.34775 0.1088 0.83344 0.0
C2242 C 0.34132 0.11515 0.83388 0.0
C2243 C 0.33464 0.11487 0.81993 0.0
C2244 C 0.33444 0.10843 0.80589 0.0
H2245 H 0.3558 0.11787 0.76162 0.0
H2246 H 0.34241 0.11623 0.77146 0.0
H2247 H 0.35563 0.11973 0.78356 0.0
H2248 H 0.35267 0.09767 0.81939 0.0
H2249 H 0.35278 0.10858 0.84405 0.0
H2250 H 0.97384 0.29124 0.7349 0.0
H2251 H 0.96152 0.27893 0.75813 0.0
H2252 H 0.9305 0.28022 0.73905 0.0
H2253 H 0.94265 0.29234 0.7158 0.0
H2254 H 0.94953 0.28497 0.78162 0.0
H2255 H 0.91661 0.24394 0.74714 0.0
H2256 H 0.93077 0.25552 0.73833 0.0
H2257 H 0.91782 0.25769 0.73922 0.0
C2258 C 0.96437 0.28883 0.73563 0.0
C2259 C 0.95919 0.2927 0.7235 0.0
C2260 C 0.95736 0.2818 0.74889 0.0
C2261 C 0.94504 0.27847 0.75014 0.0
C2262 C 0.9399 0.28243 0.73811 0.0
H2263 H 0.88631 0.2471 0.81857 0.0
H2264 H 0.90008 0.25588 0.79518 0.0
C2265 C 0.94689 0.28943 0.72489 0.0
C2266 C 0.93763 0.27133 0.76438 0.0
H2267 H 0.91101 0.24576 0.77463 0.0
C2268 C 0.9412 0.27631 0.78015 0.0
C2269 C 0.92678 0.26002 0.7624 0.0
C2270 C 0.92282 0.25391 0.74588 0.0
C2271 C 0.93391 0.27056 0.79392 0.0
C2272 C 0.92286 0.25945 0.79185 0.0
C2273 C 0.91947 0.25429 0.77615 0.0
C2274 C 0.91436 0.25344 0.80569 0.0
C2275 C 0.93781 0.27667 0.81046 0.0
C2276 C 0.91772 0.24889 0.81918 0.0
C2277 C 0.90988 0.2439 0.8326 0.0
C2278 C 0.89854 0.24337 0.83274 0.0
C2279 C 0.89505 0.24755 0.81894 0.0
C2280 C 0.90288 0.25251 0.80553 0.0
H2281 H 0.94528 0.28627 0.80941 0.0
H2282 H 0.93002 0.27648 0.81691 0.0
H2283 H 0.94111 0.2717 0.81813 0.0
H2284 H 0.92648 0.24937 0.81942 0.0
H2285 H 0.91285 0.24082 0.84308 0.0
H2286 H 0.72823 0.66204 0.7145 0.0
H2287 H 0.74006 0.66175 0.73808 0.0
H2288 H 0.74012 0.69316 0.75822 0.0
H2289 H 0.72821 0.69345 0.73475 0.0
H2290 H 0.7631 0.68012 0.74892 0.0
H2291 H 0.72758 0.66858 0.79634 0.0
H2292 H 0.7242 0.66677 0.77465 0.0
H2293 H 0.73074 0.68154 0.78398 0.0
C2294 C 0.73073 0.66886 0.72398 0.0
C2295 C 0.72725 0.67774 0.72282 0.0
C2296 C 0.73749 0.66869 0.73742 0.0
C2297 C 0.74082 0.67733 0.74999 0.0
C2298 C 0.73745 0.68627 0.7488 0.0
H2299 H 0.79605 0.69898 0.8249 0.0
H2300 H 0.78412 0.69718 0.80039 0.0
C2301 C 0.7307 0.68646 0.73535 0.0
C2302 C 0.74802 0.67714 0.7642 0.0
H2303 H 0.74749 0.67453 0.80594 0.0
C2304 C 0.75968 0.67884 0.76138 0.0
C2305 C 0.74345 0.6753 0.78041 0.0
C2306 C 0.73076 0.67283 0.78408 0.0
C2307 C 0.76703 0.67907 0.77442 0.0
C2308 C 0.76264 0.67769 0.79069 0.0
C2309 C 0.75086 0.67568 0.79346 0.0
C2310 C 0.7702 0.67854 0.80506 0.0
C2311 C 0.77939 0.68068 0.77067 0.0
C2312 C 0.76626 0.66869 0.81591 0.0
C2313 C 0.77302 0.66972 0.82999 0.0
C2314 C 0.78378 0.68067 0.83357 0.0
C2315 C 0.78776 0.69046 0.82255 0.0
C2316 C 0.78102 0.68941 0.80846 0.0
H2317 H 0.78005 0.67833 0.75772 0.0
H2318 H 0.78645 0.69033 0.77267 0.0
H2319 H 0.78145 0.67496 0.77887 0.0
H2320 H 0.75789 0.66025 0.81356 0.0
H2321 H 0.76961 0.66207 0.83834 0.0
H2322 H 0.74439 0.69417 0.6504 0.0
H2323 H 0.75654 0.69429 0.62699 0.0
H2324 H 0.72516 0.66257 0.60722 0.0
H2325 H 0.71293 0.66243 0.63055 0.0
H2326 H 0.76111 0.67563 0.61664 0.0
H2327 H 0.73732 0.68706 0.56876 0.0
H2328 H 0.73586 0.68911 0.5904 0.0
H2329 H 0.72745 0.67424 0.58136 0.0
C2330 C 0.74007 0.68724 0.64104 0.0
C2331 C 0.7277 0.67832 0.64226 0.0
C2332 C 0.74702 0.68732 0.6277 0.0
C2333 C 0.74171 0.67854 0.61529 0.0
C2334 C 0.72938 0.66956 0.61654 0.0
H2335 H 0.77486 0.65631 0.54079 0.0
H2336 H 0.76481 0.65827 0.56526 0.0
C2337 C 0.72242 0.66945 0.6299 0.0
C2338 C 0.74911 0.67864 0.60117 0.0
H2339 H 0.75129 0.68111 0.55944 0.0
C2340 C 0.75901 0.67689 0.60413 0.0
C2341 C 0.74644 0.68044 0.58491 0.0
C2342 C 0.73626 0.68293 0.58111 0.0
C2343 C 0.76614 0.67657 0.59118 0.0
C2344 C 0.76319 0.67793 0.57487 0.0
C2345 C 0.75348 0.67999 0.57195 0.0
C2346 C 0.7699 0.67699 0.56058 0.0
C2347 C 0.77682 0.67488 0.59505 0.0
C2348 C 0.776 0.68684 0.54977 0.0
C2349 C 0.78169 0.68572 0.53573 0.0
C2350 C 0.78127 0.67469 0.53215 0.0
C2351 C 0.77528 0.6649 0.54315 0.0
C2352 C 0.76963 0.66604 0.55721 0.0
H2353 H 0.77977 0.67717 0.60804 0.0
H2354 H 0.77414 0.66522 0.59301 0.0
H2355 H 0.78467 0.6806 0.58693 0.0
H2356 H 0.77623 0.69534 0.55211 0.0
H2357 H 0.78608 0.69337 0.5274 0.0
H2358 H 0.3655 0.06898 0.63534 0.0
H2359 H 0.36643 0.08171 0.61216 0.0
H2360 H 0.32989 0.07378 0.62278 0.0
H2361 H 0.32898 0.06126 0.64611 0.0
H2362 H 0.3521 0.07526 0.58475 0.0
H2363 H 0.34816 0.11065 0.61939 0.0
H2364 H 0.35146 0.0999 0.62923 0.0
H2365 H 0.33607 0.09551 0.62371 0.0
C2366 C 0.3577 0.07002 0.63279 0.0
C2367 C 0.34719 0.06417 0.64258 0.0
C2368 C 0.35824 0.07728 0.61955 0.0
C2369 C 0.3483 0.07886 0.61591 0.0
C2370 C 0.33777 0.07294 0.62559 0.0
H2371 H 0.33306 0.10156 0.52302 0.0
H2372 H 0.33316 0.09057 0.54753 0.0
C2373 C 0.33723 0.06571 0.63885 0.0
C2374 C 0.34878 0.08631 0.60161 0.0
H2375 H 0.34565 0.11049 0.59034 0.0
C2376 C 0.35077 0.08301 0.58598 0.0
C2377 C 0.34719 0.09652 0.60326 0.0
C2378 C 0.34572 0.10095 0.61982 0.0
C2379 C 0.35094 0.08946 0.5719 0.0
C2380 C 0.34881 0.09933 0.57347 0.0
C2381 C 0.34712 0.10283 0.58914 0.0
C2382 C 0.34836 0.10616 0.55899 0.0
C2383 C 0.35355 0.08573 0.55551 0.0
C2384 C 0.35654 0.11869 0.55758 0.0
C2385 C 0.35637 0.12507 0.54369 0.0
C2386 C 0.34797 0.11904 0.53095 0.0
C2387 C 0.33958 0.10653 0.53263 0.0
C2388 C 0.33973 0.10019 0.54655 0.0
H2389 H 0.3583 0.08045 0.55694 0.0
H2390 H 0.34483 0.07987 0.54903 0.0
H2391 H 0.35922 0.09379 0.5477 0.0
H2392 H 0.3632 0.1235 0.56713 0.0
H2393 H 0.36284 0.13472 0.54292 0.0
H2394 H 0.95645 0.30725 0.63244 0.0
H2395 H 0.94408 0.29475 0.60936 0.0
H2396 H 0.94686 0.26441 0.62773 0.0
H2397 H 0.95907 0.27675 0.65084 0.0
H2398 H 0.95045 0.2832 0.58543 0.0
H2399 H 0.91024 0.24952 0.62061 0.0
H2400 H 0.92163 0.26385 0.62927 0.0
H2401 H 0.92431 0.25125 0.62813 0.0
C2402 C 0.95436 0.2979 0.63159 0.0
C2403 C 0.95868 0.29296 0.64347 0.0
C2404 C 0.9473 0.29077 0.61842 0.0
C2405 C 0.94437 0.27859 0.61701 0.0
C2406 C 0.94877 0.2737 0.6288 0.0
H2407 H 0.91315 0.21986 0.54855 0.0
H2408 H 0.92198 0.23364 0.57192 0.0
C2409 C 0.95582 0.2808 0.64193 0.0
C2410 C 0.93717 0.27109 0.60287 0.0
H2411 H 0.91184 0.24416 0.59294 0.0
C2412 C 0.94192 0.27475 0.58702 0.0
C2413 C 0.92604 0.26008 0.60501 0.0
C2414 C 0.92018 0.25598 0.62166 0.0
C2415 C 0.93611 0.26742 0.57329 0.0
C2416 C 0.92517 0.25623 0.5755 0.0
C2417 C 0.92025 0.25273 0.5913 0.0
C2418 C 0.91911 0.24771 0.56169 0.0
C2419 C 0.942 0.27146 0.55664 0.0
C2420 C 0.91431 0.25095 0.54837 0.0
C2421 C 0.9093 0.24311 0.53495 0.0
C2422 C 0.90899 0.23189 0.53464 0.0
C2423 C 0.91342 0.22851 0.54829 0.0
C2424 C 0.91841 0.23634 0.5617 0.0
H2425 H 0.95156 0.27903 0.55754 0.0
H2426 H 0.94188 0.26377 0.55 0.0
H2427 H 0.9368 0.27464 0.54923 0.0
H2428 H 0.9146 0.25961 0.54826 0.0
H2429 H 0.90602 0.246 0.52459 0.0
H2430 H 0.32916 0.27683 0.6497 0.0
H2431 H 0.32963 0.26491 0.62641 0.0
H2432 H 0.36136 0.29662 0.60738 0.0
H2433 H 0.3609 0.30865 0.63059 0.0
H2434 H 0.34309 0.28381 0.58381 0.0
H2435 H 0.35402 0.25302 0.61891 0.0
H2436 H 0.34103 0.25367 0.62634 0.0
H2437 H 0.35589 0.26698 0.6274 0.0
C2438 C 0.33627 0.28126 0.64058 0.0
C2439 C 0.34503 0.29366 0.64199 0.0
C2440 C 0.33655 0.27442 0.62734 0.0
C2441 C 0.34563 0.27984 0.61531 0.0
C2442 C 0.35432 0.29226 0.6166 0.0
H2443 H 0.36603 0.246 0.5391 0.0
H2444 H 0.365 0.25679 0.56338 0.0
C2445 C 0.35405 0.2991 0.62985 0.0
C2446 C 0.34589 0.27266 0.60115 0.0
H2447 H 0.34899 0.24831 0.59078 0.0
C2448 C 0.34439 0.27605 0.58532 0.0
C2449 C 0.3477 0.26262 0.60317 0.0
C2450 C 0.34986 0.25889 0.61985 0.0
C2451 C 0.34453 0.26959 0.57143 0.0
C2452 C 0.34605 0.25938 0.57347 0.0
C2453 C 0.34769 0.25607 0.58929 0.0
C2454 C 0.34636 0.25227 0.55925 0.0
C2455 C 0.34329 0.27389 0.55465 0.0
C2456 C 0.33612 0.24593 0.54912 0.0
C2457 C 0.33669 0.23978 0.53521 0.0
C2458 C 0.34751 0.23987 0.53121 0.0
C2459 C 0.35762 0.24592 0.54171 0.0
C2460 C 0.35703 0.25202 0.55563 0.0
H2461 H 0.34498 0.28335 0.55496 0.0
H2462 H 0.34972 0.27346 0.54582 0.0
H2463 H 0.3339 0.26788 0.55003 0.0
H2464 H 0.32774 0.24586 0.55185 0.0
H2465 H 0.32877 0.23529 0.52732 0.0
H2466 H 0.71268 0.06035 0.63019 0.0
H2467 H 0.72503 0.07126 0.60619 0.0
H2468 H 0.75654 0.07296 0.62893 0.0
H2469 H 0.74426 0.06189 0.65269 0.0
H2470 H 0.74571 0.094 0.60356 0.0
H2471 H 0.75567 0.05801 0.58458 0.0
H2472 H 0.74406 0.05536 0.59944 0.0
H2473 H 0.75981 0.06271 0.60548 0.0
C2474 C 0.72224 0.06304 0.63003 0.0
C2475 C 0.72748 0.06017 0.64324 0.0
C2476 C 0.72927 0.06927 0.61634 0.0
C2477 C 0.74164 0.07271 0.61565 0.0
C2478 C 0.74694 0.07013 0.62902 0.0
H2479 H 0.80178 0.11151 0.54888 0.0
H2480 H 0.78853 0.10178 0.57252 0.0
C2481 C 0.73992 0.06386 0.64263 0.0
C2482 C 0.74908 0.07907 0.60103 0.0
H2483 H 0.76738 0.07734 0.57175 0.0
C2484 C 0.75038 0.09032 0.59651 0.0
C2485 C 0.75511 0.07422 0.59182 0.0
C2486 C 0.75351 0.06186 0.59546 0.0
C2487 C 0.75785 0.09703 0.5833 0.0
C2488 C 0.76408 0.09229 0.57437 0.0
C2489 C 0.76266 0.08098 0.57874 0.0
C2490 C 0.77214 0.09888 0.56037 0.0
C2491 C 0.75926 0.10925 0.57921 0.0
C2492 C 0.76728 0.10047 0.54574 0.0
C2493 C 0.7748 0.10591 0.53215 0.0
C2494 C 0.78732 0.10986 0.53294 0.0
C2495 C 0.79216 0.10844 0.54777 0.0
C2496 C 0.78463 0.10295 0.56132 0.0
H2497 H 0.75579 0.11266 0.58918 0.0
H2498 H 0.76897 0.11605 0.57689 0.0
H2499 H 0.75407 0.10843 0.56785 0.0
H2500 H 0.75762 0.0972 0.54469 0.0
H2501 H 0.77071 0.10665 0.52086 0.0
H2502 H 0.95077 0.65658 0.63825 0.0
H2503 H 0.93815 0.65566 0.61492 0.0
H2504 H 0.95007 0.69372 0.62117 0.0
H2505 H 0.96255 0.69466 0.64464 0.0
H2506 H 0.92511 0.67945 0.61656 0.0
H2507 H 0.95049 0.66972 0.56919 0.0
H2508 H 0.94523 0.65926 0.58612 0.0
H2509 H 0.95645 0.67495 0.58955 0.0
C2510 C 0.95072 0.66475 0.63462 0.0
C2511 C 0.95769 0.67571 0.64321 0.0
C2512 C 0.94355 0.66423 0.62125 0.0
C2513 C 0.94331 0.67466 0.61618 0.0
C2514 C 0.95016 0.68557 0.62486 0.0
H2515 H 0.91792 0.68615 0.52307 0.0
H2516 H 0.92958 0.68717 0.54746 0.0
C2517 C 0.95731 0.6861 0.63823 0.0
C2518 C 0.93585 0.67423 0.60191 0.0
H2519 H 0.93214 0.6687 0.56071 0.0
C2520 C 0.92664 0.67711 0.60434 0.0
C2521 C 0.93798 0.67132 0.58596 0.0
C2522 C 0.94814 0.66874 0.58245 0.0
C2523 C 0.91941 0.67705 0.59124 0.0
C2524 C 0.92134 0.67384 0.57537 0.0
C2525 C 0.93062 0.67106 0.57293 0.0
C2526 C 0.91403 0.67357 0.56099 0.0
C2527 C 0.90996 0.68069 0.59446 0.0
C2528 C 0.9014 0.66559 0.56052 0.0
C2529 C 0.89467 0.66507 0.54663 0.0
C2530 C 0.90046 0.67247 0.53292 0.0
C2531 C 0.91312 0.68048 0.53351 0.0
C2532 C 0.91982 0.68101 0.54739 0.0
H2533 H 0.91175 0.68584 0.60612 0.0
H2534 H 0.90967 0.68634 0.58427 0.0
H2535 H 0.90087 0.67238 0.59541 0.0
H2536 H 0.89678 0.65961 0.57077 0.0
H2537 H 0.88493 0.65885 0.54663 0.0
H2538 H 0.97319 0.6972 0.73145 0.0
H2539 H 0.96138 0.69784 0.75481 0.0
H2540 H 0.93158 0.66252 0.74143 0.0
H2541 H 0.94322 0.66194 0.71789 0.0
H2542 H 0.9239 0.67856 0.74922 0.0
H2543 H 0.955 0.67878 0.79729 0.0
H2544 H 0.96231 0.69089 0.78263 0.0
H2545 H 0.95608 0.67537 0.77608 0.0
C2546 C 0.96412 0.68958 0.7335 0.0
C2547 C 0.95915 0.67949 0.7229 0.0
C2548 C 0.95741 0.68992 0.7469 0.0
C2549 C 0.94568 0.68013 0.75002 0.0
C2550 C 0.94064 0.67015 0.73929 0.0
H2551 H 0.906 0.66506 0.84145 0.0
H2552 H 0.91675 0.6646 0.81688 0.0
C2553 C 0.94731 0.66982 0.72587 0.0
C2554 C 0.93859 0.68029 0.76439 0.0
H2555 H 0.939 0.68189 0.80623 0.0
C2556 C 0.92719 0.67927 0.7617 0.0
C2557 C 0.94281 0.68104 0.78066 0.0
C2558 C 0.95466 0.68146 0.7844 0.0
C2559 C 0.91994 0.6791 0.77483 0.0
C2560 C 0.92433 0.68022 0.79107 0.0
C2561 C 0.93569 0.68114 0.79376 0.0
C2562 C 0.91722 0.68022 0.80552 0.0
C2563 C 0.90754 0.67744 0.77119 0.0
C2564 C 0.91388 0.68914 0.80731 0.0
C2565 C 0.90756 0.68933 0.82126 0.0
C2566 C 0.90457 0.68066 0.8338 0.0
C2567 C 0.90793 0.67173 0.83193 0.0
C2568 C 0.91419 0.67152 0.81795 0.0
H2569 H 0.90422 0.67339 0.75885 0.0
H2570 H 0.90076 0.67152 0.7805 0.0
H2571 H 0.90811 0.68644 0.77144 0.0
H2572 H 0.91633 0.69609 0.79803 0.0
H2573 H 0.90506 0.69629 0.82223 0.0
H2574 H 0.32919 0.29133 0.73362 0.0
H2575 H 0.33094 0.28035 0.75729 0.0
H2576 H 0.36429 0.28444 0.73752 0.0
H2577 H 0.36271 0.29553 0.71404 0.0
H2578 H 0.33214 0.25889 0.75817 0.0
H2579 H 0.37402 0.29776 0.7841 0.0
H2580 H 0.36493 0.29967 0.76864 0.0
H2581 H 0.37543 0.29472 0.76295 0.0
C2582 C 0.33691 0.28991 0.73436 0.0
C2583 C 0.34586 0.29436 0.72204 0.0
C2584 C 0.33788 0.28363 0.74786 0.0
C2585 C 0.34785 0.28177 0.74928 0.0
C2586 C 0.35667 0.28601 0.73684 0.0
H2587 H 0.37187 0.2466 0.81883 0.0
H2588 H 0.36895 0.25661 0.79502 0.0
C2589 C 0.35571 0.29229 0.72339 0.0
C2590 C 0.34899 0.27525 0.76366 0.0
H2591 H 0.36777 0.27831 0.79557 0.0
C2592 C 0.33988 0.26315 0.76642 0.0
C2593 C 0.3591 0.28084 0.77439 0.0
C2594 C 0.36888 0.294 0.7725 0.0
C2595 C 0.34077 0.25637 0.77943 0.0
C2596 C 0.35095 0.26193 0.79004 0.0
C2597 C 0.36001 0.27406 0.78734 0.0
C2598 C 0.35237 0.25538 0.80415 0.0
C2599 C 0.33096 0.24326 0.78149 0.0
C2600 C 0.34405 0.25143 0.81719 0.0
C2601 C 0.34573 0.24578 0.83085 0.0
C2602 C 0.35581 0.24401 0.83177 0.0
C2603 C 0.36408 0.24792 0.8186 0.0
C2604 C 0.3624 0.25359 0.80496 0.0
H2605 H 0.32542 0.23955 0.77018 0.0
H2606 H 0.33497 0.23752 0.78476 0.0
H2607 H 0.32479 0.24257 0.79159 0.0
H2608 H 0.33639 0.25296 0.81697 0.0
H2609 H 0.33931 0.24311 0.8409 0.0
H2610 H 0.72925 0.07841 0.71367 0.0
H2611 H 0.74075 0.09097 0.73706 0.0
H2612 H 0.73871 0.05957 0.76052 0.0
H2613 H 0.72737 0.04696 0.73696 0.0
H2614 H 0.73321 0.08836 0.76912 0.0
H2615 H 0.77484 0.08464 0.76424 0.0
H2616 H 0.7639 0.08023 0.74778 0.0
H2617 H 0.76088 0.0703 0.76503 0.0
C2618 C 0.73133 0.07419 0.72375 0.0
C2619 C 0.72744 0.06171 0.72347 0.0
C2620 C 0.7379 0.08138 0.73711 0.0
C2621 C 0.74073 0.07625 0.75043 0.0
C2622 C 0.73686 0.06378 0.7502 0.0
H2623 H 0.77368 0.10506 0.84551 0.0
H2624 H 0.76414 0.09222 0.82145 0.0
C2625 C 0.73031 0.05657 0.73679 0.0
C2626 C 0.74724 0.08389 0.76484 0.0
H2627 H 0.77301 0.09437 0.78806 0.0
C2628 C 0.74194 0.08972 0.77322 0.0
C2629 C 0.75861 0.0856 0.77019 0.0
C2630 C 0.76497 0.07996 0.76128 0.0
C2631 C 0.74763 0.09713 0.78689 0.0
C2632 C 0.75901 0.09889 0.79218 0.0
C2633 C 0.76429 0.093 0.78392 0.0
C2634 C 0.76553 0.10684 0.80631 0.0
C2635 C 0.74133 0.10287 0.79573 0.0
C2636 C 0.76973 0.11936 0.80559 0.0
C2637 C 0.77527 0.12674 0.81926 0.0
C2638 C 0.77673 0.12174 0.83391 0.0
C2639 C 0.77283 0.10924 0.83438 0.0
C2640 C 0.76731 0.10187 0.82068 0.0
H2641 H 0.73151 0.09843 0.79251 0.0
H2642 H 0.74218 0.10237 0.80924 0.0
H2643 H 0.74567 0.11261 0.79225 0.0
H2644 H 0.76863 0.1234 0.79449 0.0
H2645 H 0.77836 0.13636 0.81838 0.0
H2646 H 0.02874 0.35575 0.0467 0.0
H2647 H 0.04625 0.35483 0.05747 0.0
H2648 H 0.07026 0.38507 0.02672 0.0
H2649 H 0.05274 0.38591 0.01564 0.0
H2650 H 0.07634 0.36666 0.0279 0.0
H2651 H 0.06981 0.37998 0.09029 0.0
H2652 H 0.05667 0.36672 0.08233 0.0
H2653 H 0.06202 0.3812 0.0725 0.0
C2654 C 0.03774 0.36215 0.04214 0.0
C2655 C 0.03939 0.37098 0.03044 0.0
C2656 C 0.04774 0.36164 0.04835 0.0
C2657 C 0.05957 0.37003 0.04312 0.0
C2658 C 0.06121 0.37855 0.03097 0.0
H2659 H 0.12476 0.38864 0.0982 0.0
H2660 H 0.10868 0.38889 0.0822 0.0
C2661 C 0.0512 0.37903 0.02468 0.0
C2662 C 0.07026 0.37022 0.0508 0.0
H2663 H 0.08467 0.37406 0.08753 0.0
C2664 C 0.0782 0.3683 0.04093 0.0
C2665 C 0.07275 0.37255 0.06775 0.0
C2666 C 0.06494 0.37535 0.07883 0.0
C2667 C 0.0885 0.36847 0.04763 0.0
C2668 C 0.09077 0.37044 0.06468 0.0
C2669 C 0.08288 0.37249 0.07448 0.0
C2670 C 0.10136 0.37063 0.07273 0.0
C2671 C 0.09696 0.36678 0.03637 0.0
C2672 C 0.10273 0.36034 0.07254 0.0
C2673 C 0.11208 0.36022 0.08151 0.0
C2674 C 0.12016 0.37036 0.091 0.0
C2675 C 0.11889 0.38075 0.09082 0.0
C2676 C 0.10961 0.38087 0.08179 0.0
H2677 H 0.09582 0.3687 0.02338 0.0
H2678 H 0.10661 0.37279 0.03999 0.0
H2679 H 0.09488 0.35721 0.03713 0.0
H2680 H 0.09635 0.35225 0.06588 0.0
H2681 H 0.11283 0.35211 0.08126 0.0
H2682 H 0.64207 0.68368 0.0096 0.0
H2683 H 0.64545 0.70355 0.01866 0.0
H2684 H 0.66511 0.702 0.06093 0.0
H2685 H 0.66207 0.68239 0.05173 0.0
H2686 H 0.63845 0.71009 0.04616 0.0
H2687 H 0.68872 0.73511 0.04305 0.0
H2688 H 0.67957 0.72024 0.03404 0.0
H2689 H 0.68312 0.72179 0.05563 0.0
C2690 C 0.6472 0.68764 0.02075 0.0
C2691 C 0.6519 0.68153 0.02989 0.0
C2692 C 0.6491 0.69897 0.02592 0.0
C2693 C 0.65574 0.70438 0.0403 0.0
C2694 C 0.66026 0.69818 0.04955 0.0
H2695 H 0.65525 0.75766 0.10437 0.0
H2696 H 0.6503 0.73944 0.08852 0.0
C2697 C 0.65845 0.68693 0.04433 0.0
C2698 C 0.65767 0.71633 0.04598 0.0
H2699 H 0.67969 0.74431 0.05916 0.0
C2700 C 0.64748 0.71764 0.04882 0.0
C2701 C 0.66945 0.72627 0.04911 0.0
C2702 C 0.68083 0.72584 0.04513 0.0
C2703 C 0.64872 0.72843 0.05538 0.0
C2704 C 0.66045 0.73805 0.05962 0.0
C2705 C 0.67067 0.73691 0.05612 0.0
C2706 C 0.66241 0.74918 0.06833 0.0
C2707 C 0.63744 0.7294 0.05763 0.0
C2708 C 0.67095 0.76076 0.0624 0.0
C2709 C 0.67394 0.77117 0.0716 0.0
C2710 C 0.66838 0.77022 0.08686 0.0
C2711 C 0.65951 0.75868 0.09251 0.0
C2712 C 0.65664 0.74826 0.08341 0.0
H2713 H 0.63022 0.7235 0.04877 0.0
H2714 H 0.63379 0.7263 0.07017 0.0
H2715 H 0.63944 0.7389 0.05607 0.0
H2716 H 0.67555 0.76171 0.05083 0.0
H2717 H 0.68079 0.77996 0.06694 0.0
H2718 H 0.33999 0.96949 0.01534 0.0
H2719 H 0.32091 0.95264 0.02599 0.0
H2720 H 0.31915 0.97669 0.06181 0.0
H2721 H 0.33811 0.99359 0.05111 0.0
H2722 H 0.31663 0.94335 0.05754 0.0
H2723 H 0.28496 0.95998 0.04217 0.0
H2724 H 0.29993 0.96636 0.03317 0.0
H2725 H 0.29812 0.97078 0.05348 0.0
C2726 C 0.33547 0.97121 0.02538 0.0
C2727 C 0.34053 0.98287 0.03236 0.0
C2728 C 0.32458 0.96158 0.03145 0.0
C2729 C 0.31851 0.96345 0.04452 0.0
C2730 C 0.32352 0.9751 0.05147 0.0
H2731 H 0.25945 0.92007 0.11002 0.0
H2732 H 0.27608 0.93607 0.09413 0.0
C2733 C 0.3344 0.98473 0.04541 0.0
C2734 C 0.30733 0.95309 0.05154 0.0
H2735 H 0.2776 0.94331 0.06091 0.0
C2736 C 0.30805 0.94326 0.05811 0.0
C2737 C 0.29616 0.95302 0.05228 0.0
C2738 C 0.29467 0.96304 0.04476 0.0
C2739 C 0.29803 0.93356 0.06592 0.0
C2740 C 0.28692 0.93359 0.06693 0.0
C2741 C 0.28613 0.94332 0.06011 0.0
C2742 C 0.27621 0.92389 0.07571 0.0
C2743 C 0.29955 0.92358 0.07357 0.0
C2744 C 0.27055 0.91177 0.07037 0.0
C2745 C 0.26098 0.90258 0.07939 0.0
C2746 C 0.25685 0.90536 0.09387 0.0
C2747 C 0.26228 0.9176 0.09883 0.0
C2748 C 0.27184 0.92676 0.08981 0.0
H2749 H 0.30929 0.92625 0.07487 0.0
H2750 H 0.2952 0.9211 0.08586 0.0
H2751 H 0.29507 0.91537 0.06566 0.0
H2752 H 0.27364 0.90939 0.05932 0.0
H2753 H 0.25688 0.89328 0.07509 0.0
H2754 H 0.385 0.05377 0.01085 0.0
H2755 H 0.38235 0.0702 0.99974 0.0
H2756 H 0.34891 0.04376 0.97641 0.0
H2757 H 0.35166 0.02732 0.98713 0.0
H2758 H 0.36345 0.06167 0.95561 0.0
H2759 H 0.35934 0.08181 0.01394 0.0
H2760 H 0.37296 0.08089 0.01257 0.0
H2761 H 0.35837 0.06716 0.01304 0.0
C2762 C 0.37703 0.05146 0.00346 0.0
C2763 C 0.36852 0.03926 0.99987 0.0
C2764 C 0.37549 0.06086 0.99721 0.0
C2765 C 0.36533 0.05821 0.98745 0.0
C2766 C 0.35679 0.04602 0.98397 0.0
H2767 H 0.338 0.10518 0.95652 0.0
H2768 H 0.34226 0.09075 0.97065 0.0
C2769 C 0.35837 0.03663 0.99011 0.0
C2770 C 0.36386 0.06811 0.98017 0.0
H2771 H 0.36122 0.0929 0.98953 0.0
C2772 C 0.36294 0.06848 0.96304 0.0
C2773 C 0.36309 0.07693 0.98988 0.0
C2774 C 0.36337 0.07665 0.00838 0.0
C2775 C 0.3613 0.07743 0.95532 0.0
C2776 C 0.36087 0.08646 0.96499 0.0
C2777 C 0.36172 0.08606 0.98214 0.0
C2778 C 0.35899 0.09603 0.9575 0.0
C2779 C 0.3597 0.0769 0.93692 0.0
C2780 C 0.36718 0.10409 0.94581 0.0
C2781 C 0.36469 0.11223 0.93754 0.0
C2782 C 0.354 0.11259 0.94094 0.0
C2783 C 0.34618 0.10499 0.95336 0.0
C2784 C 0.34865 0.09679 0.96154 0.0
H2785 H 0.35709 0.06777 0.93195 0.0
H2786 H 0.35263 0.07916 0.93331 0.0
H2787 H 0.36842 0.08361 0.93111 0.0
H2788 H 0.37536 0.10384 0.94276 0.0
H2789 H 0.37089 0.11788 0.92801 0.0
H2790 H 0.96838 0.34085 0.02103 0.0
H2791 H 0.95119 0.32152 0.01157 0.0
H2792 H 0.9743 0.31846 0.97542 0.0
H2793 H 0.9915 0.33768 0.98485 0.0
H2794 H 0.94154 0.31683 0.97985 0.0
H2795 H 0.95725 0.28468 0.9966 0.0
H2796 H 0.96391 0.29979 0.00521 0.0
H2797 H 0.96825 0.29757 0.98506 0.0
C2798 C 0.96982 0.33597 0.0112 0.0
C2799 C 0.98129 0.34076 0.00369 0.0
C2800 C 0.96 0.32494 0.00582 0.0
C2801 C 0.96151 0.31847 0.99296 0.0
C2802 C 0.97299 0.32317 0.9856 0.0
H2803 H 0.91858 0.25994 0.92736 0.0
H2804 H 0.93435 0.27599 0.94425 0.0
C2805 C 0.9828 0.33419 0.99093 0.0
C2806 C 0.95093 0.30727 0.98638 0.0
H2807 H 0.94074 0.27743 0.97749 0.0
C2808 C 0.94126 0.30816 0.97954 0.0
C2809 C 0.95063 0.296 0.98596 0.0
C2810 C 0.96051 0.29439 0.99374 0.0
C2811 C 0.93154 0.29821 0.97164 0.0
C2812 C 0.93137 0.287 0.97088 0.0
C2813 C 0.94088 0.28603 0.9781 0.0
C2814 C 0.92177 0.27643 0.96175 0.0
C2815 C 0.92182 0.29995 0.96354 0.0
C2816 C 0.90948 0.27108 0.96628 0.0
C2817 C 0.90042 0.26187 0.95664 0.0
C2818 C 0.90351 0.25777 0.94239 0.0
C2819 C 0.91588 0.26277 0.93835 0.0
C2820 C 0.92492 0.272 0.94795 0.0
H2821 H 0.9247 0.30972 0.9621 0.0
H2822 H 0.91946 0.29559 0.95125 0.0
H2823 H 0.91348 0.29564 0.9712 0.0
H2824 H 0.90687 0.27418 0.97709 0.0
H2825 H 0.89098 0.25807 0.96022 0.0
H2826 H 0.67897 0.66072 0.97696 0.0
H2827 H 0.6983 0.66331 0.967 0.0
H2828 H 0.70271 0.64814 0.01206 0.0
H2829 H 0.68331 0.6455 0.02216 0.0
H2830 H 0.72399 0.67036 0.00114 0.0
H2831 H 0.70417 0.63531 0.95225 0.0
H2832 H 0.69894 0.64608 0.95201 0.0
H2833 H 0.69527 0.63592 0.96914 0.0
C2834 C 0.68404 0.65793 0.98476 0.0
C2835 C 0.67961 0.65286 0.00032 0.0
C2836 C 0.69505 0.65936 0.97902 0.0
C2837 C 0.70183 0.65576 0.9887 0.0
C2838 C 0.69755 0.6509 0.00437 0.0
H2839 H 0.76428 0.65285 0.94792 0.0
H2840 H 0.74577 0.64769 0.9634 0.0
C2841 C 0.68649 0.6494 0.0101 0.0
C2842 C 0.71347 0.65728 0.98247 0.0
H2843 H 0.72559 0.64899 0.95107 0.0
C2844 C 0.72435 0.6656 0.9903 0.0
C2845 C 0.71389 0.65092 0.96847 0.0
C2846 C 0.70245 0.64147 0.96003 0.0
C2847 C 0.7357 0.66815 0.98405 0.0
C2848 C 0.73614 0.66227 0.96953 0.0
C2849 C 0.72524 0.65355 0.96213 0.0
C2850 C 0.74779 0.66558 0.96124 0.0
C2851 C 0.74713 0.67718 0.99292 0.0
C2852 C 0.75502 0.67731 0.95486 0.0
C2853 C 0.7655 0.68025 0.94588 0.0
C2854 C 0.76901 0.67151 0.94306 0.0
C2855 C 0.76182 0.65978 0.94971 0.0
C2856 C 0.75127 0.65683 0.95864 0.0
H2857 H 0.74527 0.67823 0.00596 0.0
H2858 H 0.75413 0.67438 0.99249 0.0
H2859 H 0.75094 0.68619 0.98689 0.0
H2860 H 0.75234 0.68412 0.95638 0.0
H2861 H 0.77061 0.68928 0.94064 0.0
H2862 H 0.99118 0.66571 0.98531 0.0
H2863 H 0.97443 0.66779 0.97424 0.0
H2864 H 0.94907 0.63838 0.00511 0.0
H2865 H 0.96586 0.63629 0.01639 0.0
H2866 H 0.95372 0.64916 0.95764 0.0
H2867 H 0.94084 0.66571 0.01313 0.0
H2868 H 0.95534 0.66637 0.01133 0.0
H2869 H 0.9418 0.65213 0.01544 0.0
C2870 C 0.98206 0.65975 0.98987 0.0
C2871 C 0.97984 0.65084 0.00174 0.0
C2872 C 0.9725 0.66094 0.98351 0.0
C2873 C 0.96053 0.65331 0.98895 0.0
C2874 C 0.95826 0.64448 0.00093 0.0
H2875 H 0.8953 0.65454 0.95407 0.0
H2876 H 0.90839 0.64848 0.96867 0.0
C2877 C 0.96785 0.64327 0.00731 0.0
C2878 C 0.95046 0.65435 0.98141 0.0
H2879 H 0.92957 0.6632 0.98899 0.0
C2880 C 0.94838 0.65215 0.96452 0.0
C2881 C 0.94343 0.65814 0.99045 0.0
C2882 C 0.94546 0.66082 0.00858 0.0
C2883 C 0.93967 0.6539 0.95632 0.0
C2884 C 0.933 0.65819 0.96521 0.0
C2885 C 0.93472 0.65994 0.98223 0.0
C2886 C 0.92499 0.66184 0.95675 0.0
C2887 C 0.93775 0.65127 0.93817 0.0
C2888 C 0.93003 0.67144 0.94545 0.0
C2889 C 0.92263 0.67488 0.93713 0.0
C2890 C 0.91 0.66885 0.94 0.0
C2891 C 0.90497 0.6593 0.9515 0.0
C2892 C 0.91243 0.65587 0.95989 0.0
H2893 H 0.94077 0.64482 0.93427 0.0
H2894 H 0.92803 0.64741 0.93478 0.0
H2895 H 0.94318 0.65987 0.93125 0.0
H2896 H 0.93972 0.67627 0.94301 0.0
H2897 H 0.9268 0.68215 0.92819 0.0
H2898 H 0.3549 0.33829 0.98287 0.0
H2899 H 0.35258 0.31918 0.97255 0.0
H2900 H 0.37802 0.32078 0.00895 0.0
H2901 H 0.38051 0.34001 0.01925 0.0
H2902 H 0.38308 0.31622 0.97747 0.0
H2903 H 0.33452 0.28516 0.99259 0.0
H2904 H 0.33709 0.29832 0.98117 0.0
H2905 H 0.34328 0.30013 0.00152 0.0
C2906 C 0.35993 0.33452 0.98878 0.0
C2907 C 0.36787 0.34064 0.00189 0.0
C2908 C 0.35853 0.32355 0.98294 0.0
C2909 C 0.36497 0.31845 0.99016 0.0
C2910 C 0.37289 0.32452 0.00329 0.0
H2911 H 0.37235 0.25632 0.95903 0.0
H2912 H 0.3732 0.27297 0.97523 0.0
C2913 C 0.3743 0.33549 0.00915 0.0
C2914 C 0.36399 0.30717 0.98333 0.0
H2915 H 0.34361 0.2776 0.97381 0.0
C2916 C 0.37449 0.30772 0.97685 0.0
C2917 C 0.35276 0.29612 0.98253 0.0
C2918 C 0.34129 0.29482 0.98996 0.0
C2919 C 0.37399 0.29765 0.96901 0.0
C2920 C 0.3627 0.28666 0.96789 0.0
C2921 C 0.35225 0.28603 0.97468 0.0
C2922 C 0.36148 0.27595 0.95894 0.0
C2923 C 0.38544 0.29899 0.96141 0.0
C2924 C 0.35426 0.27183 0.94476 0.0
C2925 C 0.35374 0.26233 0.93551 0.0
C2926 C 0.3604 0.25671 0.9403 0.0
C2927 C 0.36727 0.26057 0.95487 0.0
C2928 C 0.36777 0.27008 0.96413 0.0
H2929 H 0.39268 0.30868 0.96026 0.0
H2930 H 0.38899 0.29432 0.96925 0.0
H2931 H 0.38353 0.29473 0.94905 0.0
H2932 H 0.34933 0.27624 0.94055 0.0
H2933 H 0.34849 0.25971 0.92426 0.0
H2934 H 0.67968 0.05059 0.01894 0.0
H2935 H 0.69895 0.06769 0.00924 0.0
H2936 H 0.70381 0.04361 0.97693 0.0
H2937 H 0.6846 0.02643 0.98665 0.0
H2938 H 0.72546 0.06095 0.99465 0.0
H2939 H 0.70218 0.08237 0.9628 0.0
H2940 H 0.69846 0.0789 0.98413 0.0
H2941 H 0.69416 0.06676 0.96966 0.0
C2942 C 0.68489 0.04892 0.00985 0.0
C2943 C 0.68059 0.03719 0.00346 0.0
C2944 C 0.69587 0.0587 0.0043 0.0
C2945 C 0.7027 0.05693 0.99222 0.0
C2946 C 0.69864 0.04516 0.98622 0.0
H2947 H 0.766 0.10114 0.93264 0.0
H2948 H 0.74995 0.08481 0.9489 0.0
C2949 C 0.68766 0.03537 0.99175 0.0
C2950 C 0.71384 0.0674 0.98536 0.0
H2951 H 0.72361 0.09311 0.96243 0.0
C2952 C 0.72509 0.06802 0.98763 0.0
C2953 C 0.7133 0.07657 0.97622 0.0
C2954 C 0.70138 0.07613 0.9729 0.0
C2955 C 0.73587 0.07765 0.98109 0.0
C2956 C 0.73531 0.08675 0.97177 0.0
C2957 C 0.72405 0.08617 0.96965 0.0
C2958 C 0.74612 0.09674 0.96347 0.0
C2959 C 0.74777 0.07808 0.98439 0.0
C2960 C 0.74934 0.10889 0.96625 0.0
C2961 C 0.75845 0.11824 0.95689 0.0
C2962 C 0.76452 0.1156 0.94454 0.0
C2963 C 0.76163 0.10348 0.94224 0.0
C2964 C 0.75246 0.09413 0.95155 0.0
H2965 H 0.74724 0.07283 0.99558 0.0
H2966 H 0.74995 0.07396 0.97387 0.0
H2967 H 0.75533 0.08758 0.9859 0.0
H2968 H 0.74455 0.11112 0.97536 0.0
H2969 H 0.76054 0.1275 0.95902 0.0
H2970 H 0.64428 0.96926 0.01096 0.0
H2971 H 0.64741 0.95286 0.02116 0.0
H2972 H 0.66358 0.97334 0.06536 0.0
H2973 H 0.66062 0.98977 0.05522 0.0
H2974 H 0.67685 0.9635 0.05115 0.0
H2975 H 0.62788 0.92877 0.05819 0.0
H2976 H 0.63239 0.93566 0.03825 0.0
H2977 H 0.63308 0.94474 0.05554 0.0
C2978 C 0.6485 0.97025 0.02285 0.0
C2979 C 0.65217 0.98078 0.03232 0.0
C2980 C 0.65022 0.96085 0.02869 0.0
C2981 C 0.65559 0.96183 0.0441 0.0
C2982 C 0.65939 0.9724 0.05345 0.0
H2983 H 0.65776 0.91147 0.11149 0.0
H2984 H 0.65334 0.92504 0.09549 0.0
C2985 C 0.65768 0.98177 0.04765 0.0
C2986 C 0.65738 0.95193 0.05059 0.0
H2987 H 0.64215 0.92268 0.06469 0.0
C2988 C 0.66928 0.95453 0.054 0.0
C2989 C 0.64746 0.9403 0.05442 0.0
C2990 C 0.63446 0.93716 0.05156 0.0
C2991 C 0.67155 0.94588 0.06137 0.0
C2992 C 0.66163 0.93424 0.0652 0.0
C2993 C 0.64973 0.93157 0.06159 0.0
C2994 C 0.66341 0.92506 0.07407 0.0
C2995 C 0.68449 0.94942 0.06558 0.0
C2996 C 0.67025 0.92028 0.06716 0.0
C2997 C 0.67276 0.91246 0.07627 0.0
C2998 C 0.66841 0.90922 0.09243 0.0
C2999 C 0.66113 0.91364 0.09903 0.0
C3000 C 0.65864 0.92146 0.08992 0.0
H3001 H 0.69072 0.95942 0.06494 0.0
H3002 H 0.68502 0.94627 0.0781 0.0
H3003 H 0.68778 0.94507 0.05675 0.0
H3004 H 0.67382 0.92277 0.05481 0.0
H3005 H 0.67824 0.90907 0.07074 0.0
H3006 H 0.02831 0.68032 0.05436 0.0
H3007 H 0.04531 0.69954 0.06405 0.0
H3008 H 0.0664 0.701 0.02173 0.0
H3009 H 0.04949 0.68151 0.01218 0.0
H3010 H 0.07985 0.70681 0.04918 0.0
H3011 H 0.056 0.73313 0.04724 0.0
H3012 H 0.04792 0.7197 0.05953 0.0
H3013 H 0.04981 0.71834 0.03786 0.0
C3014 C 0.03654 0.68476 0.04706 0.0
C3015 C 0.03754 0.67945 0.03245 0.0
C3016 C 0.04623 0.6958 0.05256 0.0
C3017 C 0.05705 0.70187 0.04344 0.0
C3018 C 0.05811 0.69653 0.02891 0.0
H3019 H 0.11019 0.77677 0.07038 0.0
H3020 H 0.09622 0.75869 0.05454 0.0
C3021 C 0.04844 0.68541 0.02346 0.0
C3022 C 0.06734 0.71359 0.04939 0.0
H3023 H 0.07435 0.74172 0.06317 0.0
C3024 C 0.0787 0.7145 0.05206 0.0
C3025 C 0.06593 0.72373 0.05283 0.0
C3026 C 0.05429 0.72374 0.04904 0.0
C3027 C 0.08852 0.72509 0.05872 0.0
C3028 C 0.08684 0.73491 0.06322 0.0
C3029 C 0.07562 0.73416 0.05992 0.0
C3030 C 0.09637 0.74587 0.0719 0.0
C3031 C 0.1006 0.72564 0.06074 0.0
C3032 C 0.10122 0.74471 0.08685 0.0
C3033 C 0.1093 0.75502 0.0958 0.0
C3034 C 0.11252 0.76671 0.09015 0.0
C3035 C 0.10783 0.76788 0.07506 0.0
C3036 C 0.09986 0.75756 0.066 0.0
H3037 H 0.1016 0.7196 0.05179 0.0
H3038 H 0.10833 0.73504 0.05913 0.0
H3039 H 0.10113 0.72246 0.07324 0.0
H3040 H 0.0984 0.73581 0.09193 0.0
H3041 H 0.1126 0.75384 0.10753 0.0
H3042 H 0.33473 0.35198 0.04634 0.0
H3043 H 0.3154 0.34898 0.05687 0.0
H3044 H 0.32124 0.38124 0.03141 0.0
H3045 H 0.34053 0.38416 0.02052 0.0
H3046 H 0.31221 0.36424 0.07671 0.0
H3047 H 0.28628 0.35682 0.01888 0.0
H3048 H 0.30016 0.35619 0.01985 0.0
H3049 H 0.30077 0.37063 0.0192 0.0
C3050 C 0.33185 0.35837 0.04283 0.0
C3051 C 0.33913 0.3683 0.03259 0.0
C3052 C 0.3208 0.35665 0.04887 0.0
C3053 C 0.3168 0.3648 0.04478 0.0
C3054 C 0.32401 0.37468 0.03444 0.0
H3055 H 0.26365 0.37233 0.10307 0.0
H3056 H 0.28174 0.37601 0.08789 0.0
C3057 C 0.33506 0.37638 0.02831 0.0
C3058 C 0.30545 0.36329 0.05219 0.0
H3059 H 0.27736 0.35925 0.0432 0.0
C3060 C 0.30459 0.36313 0.06937 0.0
C3061 C 0.29546 0.36172 0.0426 0.0
C3062 C 0.29562 0.36123 0.02411 0.0
C3063 C 0.29406 0.36152 0.07725 0.0
C3064 C 0.2842 0.36029 0.06768 0.0
C3065 C 0.28499 0.36034 0.05049 0.0
C3066 C 0.2729 0.35864 0.07541 0.0
C3067 C 0.2935 0.36085 0.09575 0.0
C3068 C 0.26177 0.3479 0.07282 0.0
C3069 C 0.25132 0.34584 0.08129 0.0
C3070 C 0.2518 0.35451 0.09249 0.0
C3071 C 0.26287 0.36549 0.09446 0.0
C3072 C 0.27329 0.36756 0.08594 0.0
H3073 H 0.30036 0.35879 0.10093 0.0
H3074 H 0.2954 0.36976 0.10074 0.0
H3075 H 0.28433 0.3538 0.10002 0.0
H3076 H 0.26126 0.34094 0.06463 0.0
H3077 H 0.24291 0.33737 0.07926 0.0
H3078 H 0.7172 0.71269 0.34558 0.0
H3079 H 0.73347 0.70922 0.35535 0.0
H3080 H 0.71073 0.68791 0.39563 0.0
H3081 H 0.69439 0.69116 0.3858 0.0
H3082 H 0.74555 0.71559 0.38483 0.0
H3083 H 0.722 0.66563 0.37668 0.0
H3084 H 0.71653 0.67492 0.3675 0.0
H3085 H 0.71332 0.67041 0.38868 0.0
C3086 C 0.71564 0.70718 0.35645 0.0
C3087 C 0.7045 0.70214 0.36489 0.0
C3088 C 0.72495 0.70522 0.36202 0.0
C3089 C 0.72325 0.69814 0.37606 0.0
C3090 C 0.71215 0.69316 0.38454 0.0
H3091 H 0.77428 0.69661 0.44328 0.0
H3092 H 0.76073 0.70119 0.42751 0.0
C3093 C 0.70284 0.69509 0.37897 0.0
C3094 C 0.73322 0.69633 0.38226 0.0
H3095 H 0.73975 0.6744 0.39377 0.0
C3096 C 0.74433 0.70659 0.38662 0.0
C3097 C 0.73171 0.6846 0.38432 0.0
C3098 C 0.72029 0.67327 0.37889 0.0
C3099 C 0.7538 0.70541 0.39364 0.0
C3100 C 0.752 0.69365 0.39663 0.0
C3101 C 0.74108 0.68341 0.39163 0.0
C3102 C 0.76106 0.69171 0.40562 0.0
C3103 C 0.76562 0.71677 0.39778 0.0
C3104 C 0.76567 0.68474 0.39865 0.0
C3105 C 0.77342 0.68206 0.40769 0.0
C3106 C 0.77666 0.68628 0.4239 0.0
C3107 C 0.77219 0.69344 0.43072 0.0
C3108 C 0.76443 0.69608 0.4217 0.0
H3109 H 0.76697 0.72459 0.39013 0.0
H3110 H 0.76542 0.71917 0.41082 0.0
H3111 H 0.77351 0.71539 0.39601 0.0
H3112 H 0.76315 0.68123 0.38628 0.0
H3113 H 0.77676 0.67658 0.40205 0.0
H3114 H 0.30378 0.0134 0.3488 0.0
H3115 H 0.30688 0.0331 0.35826 0.0
H3116 H 0.3366 0.03764 0.38887 0.0
H3117 H 0.3336 0.01808 0.37948 0.0
H3118 H 0.30599 0.04009 0.39128 0.0
H3119 H 0.35113 0.06982 0.36309 0.0
H3120 H 0.34122 0.05431 0.3566 0.0
H3121 H 0.35042 0.05749 0.37473 0.0
C3122 C 0.31103 0.01866 0.35744 0.0
C3123 C 0.31848 0.01422 0.36335 0.0
C3124 C 0.31278 0.02989 0.36284 0.0
C3125 C 0.32208 0.0369 0.37408 0.0
C3126 C 0.32952 0.03248 0.37996 0.0
H3127 H 0.34997 0.09895 0.43514 0.0
H3128 H 0.34482 0.08083 0.41907 0.0
C3129 C 0.32776 0.02127 0.37464 0.0
C3130 C 0.32379 0.04863 0.38028 0.0
H3131 H 0.3452 0.07862 0.38459 0.0
C3132 C 0.31447 0.04857 0.38962 0.0
C3133 C 0.33485 0.05967 0.37801 0.0
C3134 C 0.34494 0.06039 0.36743 0.0
C3135 C 0.3162 0.05915 0.39754 0.0
C3136 C 0.32747 0.07007 0.39584 0.0
C3137 C 0.33658 0.07022 0.38593 0.0
C3138 C 0.33042 0.08118 0.40532 0.0
C3139 C 0.3062 0.05842 0.40833 0.0
C3140 C 0.32407 0.08746 0.40286 0.0
C3141 C 0.32705 0.09793 0.41201 0.0
C3142 C 0.3365 0.10234 0.42368 0.0
C3143 C 0.34282 0.09598 0.42603 0.0
C3144 C 0.33984 0.08557 0.41692 0.0
H3145 H 0.29895 0.04887 0.41064 0.0
H3146 H 0.30995 0.06293 0.42031 0.0
H3147 H 0.30198 0.06322 0.40226 0.0
H3148 H 0.31688 0.08432 0.39378 0.0
H3149 H 0.32209 0.10267 0.40981 0.0
H3150 H 0.0049 0.30149 0.34502 0.0
H3151 H 0.9857 0.28436 0.3549 0.0
H3152 H 0.98212 0.30807 0.38945 0.0
H3153 H 0.00119 0.32523 0.37954 0.0
H3154 H 0.98122 0.27548 0.38663 0.0
H3155 H 0.94827 0.28996 0.36887 0.0
H3156 H 0.96341 0.29679 0.36031 0.0
H3157 H 0.96104 0.30131 0.38026 0.0
C3158 C 0.99993 0.30308 0.35457 0.0
C3159 C 0.00454 0.3147 0.3615 0.0
C3160 C 0.98898 0.29329 0.36019 0.0
C3161 C 0.98239 0.29498 0.37273 0.0
C3162 C 0.9869 0.30661 0.37951 0.0
H3163 H 0.92454 0.25206 0.43943 0.0
H3164 H 0.9403 0.26786 0.42225 0.0
C3165 C 0.99784 0.31639 0.37391 0.0
C3166 C 0.97132 0.28444 0.37966 0.0
H3167 H 0.94137 0.27385 0.38857 0.0
C3168 C 0.97246 0.27502 0.38685 0.0
C3169 C 0.95992 0.2839 0.37997 0.0
C3170 C 0.95803 0.29347 0.3718 0.0
C3171 C 0.96263 0.26532 0.39494 0.0
C3172 C 0.95129 0.26491 0.39557 0.0
C3173 C 0.95007 0.27419 0.38806 0.0
C3174 C 0.94083 0.2553 0.40483 0.0
C3175 C 0.96461 0.25586 0.40335 0.0
C3176 C 0.93563 0.24301 0.40042 0.0
C3177 C 0.92658 0.23394 0.4102 0.0
C3178 C 0.92251 0.23701 0.4245 0.0
C3179 C 0.92735 0.24938 0.42841 0.0
C3180 C 0.93641 0.25843 0.41865 0.0
H3181 H 0.97444 0.25891 0.40474 0.0
H3182 H 0.96032 0.25365 0.41568 0.0
H3183 H 0.96036 0.2474 0.39592 0.0
H3184 H 0.93875 0.24043 0.3896 0.0
H3185 H 0.9229 0.22451 0.40672 0.0
H3186 H 0.0498 0.3861 0.34803 0.0
H3187 H 0.04878 0.40347 0.33692 0.0
H3188 H 0.01837 0.3792 0.3065 0.0
H3189 H 0.01953 0.36186 0.31726 0.0
H3190 H 0.0357 0.3979 0.28917 0.0
H3191 H 0.02517 0.41557 0.34524 0.0
H3192 H 0.03842 0.41405 0.34732 0.0
H3193 H 0.02374 0.40071 0.34437 0.0
C3194 C 0.04281 0.38447 0.33912 0.0
C3195 C 0.03475 0.37262 0.33351 0.0
C3196 C 0.04218 0.39439 0.33286 0.0
C3197 C 0.03338 0.39263 0.32104 0.0
C3198 C 0.02519 0.38078 0.31566 0.0
H3199 H 0.01627 0.44622 0.28221 0.0
H3200 H 0.01611 0.42942 0.29715 0.0
C3201 C 0.02586 0.37087 0.32183 0.0
C3202 C 0.03326 0.40316 0.31336 0.0
H3203 H 0.03117 0.42842 0.32162 0.0
C3204 C 0.03465 0.40453 0.29627 0.0
C3205 C 0.03175 0.41175 0.32261 0.0
C3206 C 0.02956 0.41041 0.34088 0.0
C3207 C 0.03477 0.41433 0.28819 0.0
C3208 C 0.03375 0.42318 0.29749 0.0
C3209 C 0.03212 0.42171 0.31455 0.0
C3210 C 0.03423 0.43393 0.28959 0.0
C3211 C 0.0358 0.41501 0.26971 0.0
C3212 C 0.0446 0.44224 0.2808 0.0
C3213 C 0.04468 0.45176 0.27213 0.0
C3214 C 0.03442 0.45325 0.27219 0.0
C3215 C 0.02425 0.44523 0.28167 0.0
C3216 C 0.02417 0.43567 0.2903 0.0
H3217 H 0.0332 0.40603 0.26423 0.0
H3218 H 0.02994 0.41831 0.26432 0.0
H3219 H 0.04537 0.42146 0.26623 0.0
H3220 H 0.05255 0.44119 0.28033 0.0
H3221 H 0.05263 0.45765 0.26486 0.0
H3222 H 0.63372 0.67766 0.3478 0.0
H3223 H 0.61653 0.65823 0.33852 0.0
H3224 H 0.64137 0.6503 0.31269 0.0
H3225 H 0.65854 0.66961 0.32192 0.0
H3226 H 0.60978 0.65037 0.30548 0.0
H3227 H 0.62053 0.61936 0.34 0.0
H3228 H 0.62701 0.63524 0.3452 0.0
H3229 H 0.63324 0.63076 0.32859 0.0
C3230 C 0.63551 0.67172 0.34025 0.0
C3231 C 0.64748 0.67513 0.33563 0.0
C3232 C 0.62569 0.66065 0.33495 0.0
C3233 C 0.6277 0.65276 0.32513 0.0
C3234 C 0.63964 0.65615 0.32053 0.0
H3235 H 0.59272 0.58984 0.26624 0.0
H3236 H 0.6058 0.60786 0.28243 0.0
C3237 C 0.64944 0.66722 0.32574 0.0
C3238 C 0.61737 0.64118 0.31902 0.0
H3239 H 0.60672 0.61064 0.31738 0.0
C3240 C 0.60895 0.64164 0.30828 0.0
C3241 C 0.6163 0.62982 0.32278 0.0
C3242 C 0.62468 0.62871 0.3349 0.0
C3243 C 0.59993 0.6311 0.30043 0.0
C3244 C 0.59923 0.61983 0.30362 0.0
C3245 C 0.60731 0.61931 0.31492 0.0
C3246 C 0.59099 0.60868 0.29425 0.0
C3247 C 0.59162 0.63218 0.28816 0.0
C3248 C 0.57828 0.60308 0.29565 0.0
C3249 C 0.57071 0.59264 0.28646 0.0
C3250 C 0.57575 0.58761 0.2758 0.0
C3251 C 0.5885 0.59327 0.27457 0.0
C3252 C 0.59602 0.60364 0.28374 0.0
H3253 H 0.59459 0.6418 0.28519 0.0
H3254 H 0.59123 0.62735 0.27662 0.0
H3255 H 0.58227 0.62787 0.29326 0.0
H3256 H 0.57423 0.60674 0.30388 0.0
H3257 H 0.56094 0.58844 0.28781 0.0
H3258 H 0.35091 0.9803 0.35747 0.0
H3259 H 0.3708 0.98389 0.34805 0.0
H3260 H 0.36535 0.99672 0.30157 0.0
H3261 H 0.34565 0.99341 0.31099 0.0
H3262 H 0.37638 0.97396 0.32219 0.0
H3263 H 0.39887 0.02386 0.31441 0.0
H3264 H 0.38473 0.01526 0.32543 0.0
H3265 H 0.38478 0.01603 0.30336 0.0
C3266 C 0.35401 0.98397 0.34529 0.0
C3267 C 0.34677 0.98665 0.335 0.0
C3268 C 0.36535 0.986 0.33993 0.0
C3269 C 0.36966 0.99078 0.32422 0.0
C3270 C 0.36236 0.99333 0.31389 0.0
H3271 H 0.42164 0.98652 0.26175 0.0
H3272 H 0.40384 0.98278 0.27773 0.0
C3273 C 0.35107 0.99136 0.31926 0.0
C3274 C 0.38156 0.99272 0.31834 0.0
H3275 H 0.40838 0.01397 0.30107 0.0
C3276 C 0.38344 0.98274 0.31774 0.0
C3277 C 0.39087 0.00422 0.31283 0.0
C3278 C 0.38978 0.01548 0.31419 0.0
C3279 C 0.39417 0.98384 0.31113 0.0
C3280 C 0.40313 0.99517 0.30463 0.0
C3281 C 0.40146 0.00525 0.30588 0.0
C3282 C 0.41406 0.99669 0.29586 0.0
C3283 C 0.39578 0.97286 0.3112 0.0
C3284 C 0.42575 0.00585 0.30059 0.0
C3285 C 0.43595 0.00807 0.29137 0.0
C3286 C 0.43466 0.00118 0.27723 0.0
C3287 C 0.42298 0.99182 0.27275 0.0
C3288 C 0.41278 0.98966 0.28191 0.0
H3289 H 0.39038 0.96642 0.32115 0.0
H3290 H 0.39252 0.96798 0.29935 0.0
H3291 H 0.40549 0.97552 0.31279 0.0
H3292 H 0.42696 0.01142 0.31127 0.0
H3293 H 0.44484 0.0153 0.29517 0.0
H3294 H 0.63487 0.97625 0.35464 0.0
H3295 H 0.61761 0.97773 0.34398 0.0
H3296 H 0.63762 0.9941 0.29954 0.0
H3297 H 0.65497 0.99286 0.31022 0.0
H3298 H 0.62537 0.00551 0.31145 0.0
H3299 H 0.59486 0.95538 0.30817 0.0
H3300 H 0.60121 0.96116 0.32808 0.0
H3301 H 0.61105 0.96234 0.31146 0.0
C3302 C 0.63561 0.98021 0.34263 0.0
C3303 C 0.64624 0.98436 0.33321 0.0
C3304 C 0.62572 0.981 0.33653 0.0
C3305 C 0.62627 0.98584 0.32086 0.0
C3306 C 0.637 0.99029 0.31164 0.0
H3307 H 0.57133 0.97595 0.25232 0.0
H3308 H 0.58744 0.97609 0.26878 0.0
C3309 C 0.64689 0.98955 0.31775 0.0
C3310 C 0.61559 0.98601 0.31378 0.0
H3311 H 0.58648 0.9675 0.30038 0.0
C3312 C 0.61683 0.99722 0.30913 0.0
C3313 C 0.6045 0.97516 0.31063 0.0
C3314 C 0.6028 0.96281 0.3147 0.0
C3315 C 0.60734 0.99785 0.30117 0.0
C3316 C 0.59626 0.98699 0.29802 0.0
C3317 C 0.59495 0.97581 0.30294 0.0
C3318 C 0.58628 0.9869 0.28844 0.0
C3319 C 0.60942 0.01008 0.29561 0.0
C3320 C 0.58018 0.99284 0.29411 0.0
C3321 C 0.57088 0.99274 0.28471 0.0
C3322 C 0.56747 0.9866 0.26956 0.0
C3323 C 0.57356 0.98057 0.26406 0.0
C3324 C 0.58283 0.9807 0.27341 0.0
H3325 H 0.61921 0.01718 0.29599 0.0
H3326 H 0.60599 0.00953 0.28292 0.0
H3327 H 0.60438 0.01298 0.30382 0.0
H3328 H 0.58256 0.9975 0.30582 0.0
H3329 H 0.56629 0.99737 0.28936 0.0
H3330 H 0.04371 0.67283 0.35386 0.0
H3331 H 0.04098 0.65352 0.34346 0.0
H3332 H 0.02123 0.65574 0.30179 0.0
H3333 H 0.02381 0.67497 0.31217 0.0
H3334 H 0.01024 0.6325 0.3168 0.0
H3335 H 0.05932 0.65055 0.30353 0.0
H3336 H 0.05581 0.65281 0.32413 0.0
H3337 H 0.0531 0.66034 0.30738 0.0
C3338 C 0.03876 0.66918 0.34251 0.0
C3339 C 0.03402 0.67544 0.33378 0.0
C3340 C 0.03726 0.65818 0.33655 0.0
C3341 C 0.03104 0.65329 0.32175 0.0
C3342 C 0.02608 0.65939 0.31321 0.0
H3343 H 0.02993 0.60163 0.25361 0.0
H3344 H 0.03291 0.61935 0.26905 0.0
C3345 C 0.02759 0.67038 0.31914 0.0
C3346 C 0.02978 0.64189 0.31498 0.0
H3347 H 0.046 0.62967 0.29852 0.0
C3348 C 0.01805 0.63183 0.3129 0.0
C3349 C 0.03999 0.64111 0.30977 0.0
C3350 C 0.05278 0.65178 0.31116 0.0
C3351 C 0.01625 0.62104 0.3056 0.0
C3352 C 0.02647 0.62026 0.30042 0.0
C3353 C 0.0382 0.63027 0.30264 0.0
C3354 C 0.02513 0.60946 0.29156 0.0
C3355 C 0.00342 0.61071 0.30296 0.0
C3356 C 0.01996 0.59804 0.29921 0.0
C3357 C 0.01832 0.58785 0.29043 0.0
C3358 C 0.02188 0.58893 0.27386 0.0
C3359 C 0.02728 0.60047 0.26641 0.0
C3360 C 0.02892 0.61062 0.27518 0.0
H3361 H 0.99657 0.61361 0.30474 0.0
H3362 H 0.00235 0.6069 0.29041 0.0
H3363 H 0.00144 0.60334 0.31187 0.0
H3364 H 0.01715 0.597 0.31193 0.0
H3365 H 0.01428 0.57914 0.2966 0.0
H3366 H 0.3481 0.36392 0.31342 0.0
H3367 H 0.36758 0.38067 0.30391 0.0
H3368 H 0.3701 0.40129 0.34723 0.0
H3369 H 0.35053 0.38449 0.35691 0.0
H3370 H 0.37325 0.40546 0.29827 0.0
H3371 H 0.40325 0.40162 0.34488 0.0
H3372 H 0.38802 0.38934 0.34069 0.0
H3373 H 0.39025 0.40227 0.35234 0.0
C3374 C 0.35281 0.37199 0.32098 0.0
C3375 C 0.3478 0.37289 0.33593 0.0
C3376 C 0.36393 0.38156 0.31551 0.0
C3377 C 0.3703 0.39216 0.32492 0.0
C3378 C 0.36537 0.39311 0.33989 0.0
H3379 H 0.43239 0.45803 0.28348 0.0
H3380 H 0.41383 0.44463 0.29891 0.0
C3381 C 0.35419 0.38354 0.34536 0.0
C3382 C 0.38199 0.40227 0.31874 0.0
H3383 H 0.41274 0.41699 0.32491 0.0
C3384 C 0.38188 0.40809 0.30416 0.0
C3385 C 0.39321 0.40558 0.32645 0.0
C3386 C 0.3938 0.39936 0.34191 0.0
C3387 C 0.39274 0.417 0.29689 0.0
C3388 C 0.40399 0.42023 0.30449 0.0
C3389 C 0.40409 0.41456 0.31922 0.0
C3390 C 0.41573 0.42871 0.29654 0.0
C3391 C 0.39215 0.42254 0.28077 0.0
C3392 C 0.4231 0.42427 0.29053 0.0
C3393 C 0.43364 0.43185 0.28166 0.0
C3394 C 0.43709 0.44408 0.2787 0.0
C3395 C 0.42991 0.44862 0.28531 0.0
C3396 C 0.41932 0.441 0.29416 0.0
H3397 H 0.38293 0.41757 0.27517 0.0
H3398 H 0.39449 0.4321 0.28284 0.0
H3399 H 0.39883 0.4226 0.27192 0.0
H3400 H 0.42046 0.4148 0.2922 0.0
H3401 H 0.43881 0.42797 0.27656 0.0
H3402 H 0.33208 0.32635 0.38441 0.0
H3403 H 0.33486 0.30965 0.39377 0.0
H3404 H 0.31158 0.28693 0.35476 0.0
H3405 H 0.30858 0.30359 0.34546 0.0
H3406 H 0.30576 0.27526 0.38442 0.0
H3407 H 0.35534 0.29671 0.37362 0.0
H3408 H 0.35156 0.30605 0.38593 0.0
H3409 H 0.34631 0.3027 0.36503 0.0
C3410 C 0.32762 0.31784 0.37773 0.0
C3411 C 0.32015 0.3163 0.36416 0.0
C3412 C 0.32929 0.30831 0.38304 0.0
C3413 C 0.32361 0.2971 0.37479 0.0
C3414 C 0.31612 0.29553 0.36123 0.0
H3415 H 0.34301 0.24203 0.40102 0.0
H3416 H 0.33864 0.25573 0.38502 0.0
C3417 C 0.31443 0.30506 0.35593 0.0
C3418 C 0.32506 0.28689 0.38085 0.0
H3419 H 0.34648 0.2794 0.39154 0.0
C3420 C 0.31465 0.2761 0.38579 0.0
C3421 C 0.33664 0.2879 0.38238 0.0
C3422 C 0.34808 0.29892 0.37629 0.0
C3423 C 0.31556 0.26652 0.39291 0.0
C3424 C 0.3272 0.26786 0.39542 0.0
C3425 C 0.33756 0.27842 0.38979 0.0
C3426 C 0.32893 0.25874 0.40458 0.0
C3427 C 0.30403 0.25507 0.39769 0.0
C3428 C 0.3249 0.25585 0.42087 0.0
C3429 C 0.32737 0.24804 0.43002 0.0
C3430 C 0.33404 0.24304 0.42312 0.0
C3431 C 0.33792 0.24579 0.40672 0.0
C3432 C 0.3354 0.25359 0.39755 0.0
H3433 H 0.29614 0.25386 0.39031 0.0
H3434 H 0.30497 0.2469 0.39611 0.0
H3435 H 0.302 0.25568 0.41079 0.0
H3436 H 0.3202 0.25997 0.42672 0.0
H3437 H 0.32449 0.24633 0.44272 0.0
H3438 H 0.71702 0.01291 0.35203 0.0
H3439 H 0.73334 0.03223 0.36292 0.0
H3440 H 0.70674 0.03803 0.3879 0.0
H3441 H 0.69042 0.01862 0.37737 0.0
H3442 H 0.73816 0.05608 0.36039 0.0
H3443 H 0.72914 0.04019 0.42507 0.0
H3444 H 0.7225 0.02996 0.40792 0.0
H3445 H 0.71619 0.03913 0.41463 0.0
C3446 C 0.71465 0.01833 0.3598 0.0
C3447 C 0.70246 0.0142 0.364 0.0
C3448 C 0.72398 0.02937 0.36598 0.0
C3449 C 0.72127 0.03646 0.37646 0.0
C3450 C 0.70906 0.03257 0.38014 0.0
H3451 H 0.76735 0.10109 0.43438 0.0
H3452 H 0.75031 0.08539 0.41856 0.0
C3453 C 0.69974 0.02151 0.37405 0.0
C3454 C 0.73124 0.04771 0.38391 0.0
H3455 H 0.7439 0.0608 0.42072 0.0
C3456 C 0.73942 0.05713 0.37358 0.0
C3457 C 0.73288 0.04905 0.40113 0.0
C3458 C 0.72479 0.03901 0.41285 0.0
C3459 C 0.74915 0.06789 0.38003 0.0
C3460 C 0.75079 0.06918 0.39722 0.0
C3461 C 0.74255 0.05982 0.40754 0.0
C3462 C 0.76132 0.07985 0.40489 0.0
C3463 C 0.75755 0.07782 0.36842 0.0
C3464 C 0.77318 0.08208 0.40223 0.0
C3465 C 0.78294 0.09106 0.41122 0.0
C3466 C 0.781 0.09795 0.42308 0.0
C3467 C 0.76918 0.09606 0.42519 0.0
C3468 C 0.75942 0.08704 0.41624 0.0
H3469 H 0.75327 0.07687 0.3562 0.0
H3470 H 0.76022 0.08694 0.37348 0.0
H3471 H 0.76594 0.0773 0.36667 0.0
H3472 H 0.77483 0.07651 0.39373 0.0
H3473 H 0.79195 0.09236 0.40926 0.0
H3474 H 0.00461 0.68913 0.38495 0.0
H3475 H 0.98532 0.68584 0.39615 0.0
H3476 H 0.98551 0.71164 0.36158 0.0
H3477 H 0.00479 0.71489 0.35017 0.0
H3478 H 0.98118 0.7037 0.41032 0.0
H3479 H 0.95114 0.68183 0.35634 0.0
H3480 H 0.9659 0.68311 0.35835 0.0
H3481 H 0.96475 0.69612 0.35253 0.0
C3482 C 1.0005 0.69403 0.37964 0.0
C3483 C 0.0062 0.70225 0.36666 0.0
C3484 C 0.9895 0.69216 0.38607 0.0
C3485 C 0.98393 0.6984 0.37959 0.0
C3486 C 0.98955 0.70657 0.36657 0.0
H3487 H 0.91568 0.69431 0.4114 0.0
H3488 H 0.93496 0.70045 0.39712 0.0
C3489 C 1.00058 0.70846 0.36012 0.0
C3490 C 0.97249 0.69665 0.387 0.0
H3491 H 0.94222 0.68542 0.37952 0.0
C3492 C 0.97267 0.69974 0.40357 0.0
C3493 C 0.96144 0.6916 0.37811 0.0
C3494 C 0.96069 0.68787 0.36038 0.0
C3495 C 0.96204 0.69774 0.41158 0.0
C3496 C 0.95091 0.69231 0.40286 0.0
C3497 C 0.95078 0.68957 0.38615 0.0
C3498 C 0.9392 0.68863 0.41124 0.0
C3499 C 0.96282 0.70142 0.42935 0.0
C3500 C 0.93515 0.67984 0.42369 0.0
C3501 C 0.92423 0.67636 0.43183 0.0
C3502 C 0.91704 0.68152 0.42763 0.0
C3503 C 0.92105 0.69024 0.415 0.0
C3504 C 0.93202 0.69371 0.4068 0.0
H3505 H 0.97223 0.70848 0.43278 0.0
H3506 H 0.95658 0.70495 0.43196 0.0
H3507 H 0.96015 0.69335 0.43725 0.0
H3508 H 0.94047 0.67568 0.42714 0.0
H3509 H 0.92153 0.66975 0.44165 0.0
H3510 H 0.36099 0.02284 0.71803 0.0
H3511 H 0.37717 0.02006 0.72965 0.0
H3512 H 0.40267 0.0456 0.69469 0.0
H3513 H 0.38643 0.04834 0.68282 0.0
H3514 H 0.40427 0.02438 0.69842 0.0
H3515 H 0.4049 0.04486 0.75869 0.0
H3516 H 0.39001 0.03295 0.75284 0.0
H3517 H 0.3975 0.04668 0.74087 0.0
C3518 C 0.37003 0.02786 0.71278 0.0
C3519 C 0.37246 0.03586 0.69957 0.0
C3520 C 0.37929 0.02631 0.7195 0.0
C3521 C 0.39117 0.0328 0.71324 0.0
C3522 C 0.39358 0.04058 0.69978 0.0
H3523 H 0.45551 0.02865 0.74529 0.0
H3524 H 0.44264 0.03492 0.7306 0.0
C3525 C 0.3843 0.04213 0.69303 0.0
C3526 C 0.401 0.03134 0.72075 0.0
H3527 H 0.41505 0.03334 0.7573 0.0
C3528 C 0.40677 0.02649 0.71123 0.0
C3529 C 0.4043 0.03419 0.73743 0.0
C3530 C 0.39895 0.04008 0.74802 0.0
C3531 C 0.4153 0.02382 0.7182 0.0
C3532 C 0.4182 0.0262 0.73505 0.0
C3533 C 0.41276 0.03147 0.7444 0.0
C3534 C 0.42614 0.0225 0.74358 0.0
C3535 C 0.42074 0.01797 0.70771 0.0
C3536 C 0.42116 0.01361 0.75588 0.0
C3537 C 0.42846 0.01008 0.76429 0.0
C3538 C 0.44093 0.01539 0.76064 0.0
C3539 C 0.44594 0.02439 0.74838 0.0
C3540 C 0.43859 0.02791 0.7399 0.0
H3541 H 0.41605 0.0149 0.69568 0.0
H3542 H 0.43047 0.02465 0.7054 0.0
H3543 H 0.42027 0.01005 0.71415 0.0
H3544 H 0.4116 0.00939 0.75898 0.0
H3545 H 0.42434 0.00332 0.77389 0.0
H3546 H 0.9985 0.3507 0.71618 0.0
H3547 H 0.99968 0.36916 0.72725 0.0
H3548 H 0.971 0.36461 0.69448 0.0
H3549 H 0.96992 0.34626 0.68312 0.0
H3550 H 0.98985 0.38874 0.69688 0.0
H3551 H 0.97397 0.36804 0.75843 0.0
H3552 H 0.98726 0.36788 0.7513 0.0
H3553 H 0.97305 0.35919 0.74061 0.0
C3554 C 0.9925 0.35368 0.71126 0.0
C3555 C 0.98404 0.34698 0.69889 0.0
C3556 C 0.99314 0.36419 0.71765 0.0
C3557 C 0.98527 0.36813 0.7119 0.0
C3558 C 0.97712 0.3617 0.69914 0.0
H3559 H 0.96599 0.41488 0.76473 0.0
H3560 H 0.96611 0.39858 0.74918 0.0
C3561 C 0.9765 0.35121 0.69269 0.0
C3562 C 0.98524 0.3787 0.71956 0.0
H3563 H 0.98042 0.38895 0.7559 0.0
C3564 C 0.98778 0.3888 0.70978 0.0
C3565 C 0.98236 0.37868 0.73633 0.0
C3566 C 0.97889 0.36783 0.74727 0.0
C3567 C 0.98766 0.39896 0.71639 0.0
C3568 C 0.98509 0.39905 0.73327 0.0
C3569 C 0.98246 0.3889 0.74299 0.0
C3570 C 0.98481 0.40943 0.74117 0.0
C3571 C 0.99001 0.40937 0.70518 0.0
C3572 C 0.99524 0.42103 0.74167 0.0
C3573 C 0.99516 0.43047 0.75039 0.0
C3574 C 0.98466 0.42846 0.75893 0.0
C3575 C 0.97416 0.41687 0.75808 0.0
C3576 C 0.97425 0.40748 0.74931 0.0
H3577 H 0.9886 0.40655 0.69208 0.0
H3578 H 0.98398 0.41307 0.70827 0.0
H3579 H 0.99959 0.41677 0.70667 0.0
H3580 H 0.00357 0.4227 0.73572 0.0
H3581 H 0.00337 0.43929 0.75068 0.0
H3582 H 0.67061 0.65913 0.71633 0.0
H3583 H 0.65146 0.64182 0.72586 0.0
H3584 H 0.65308 0.61968 0.68694 0.0
H3585 H 0.67234 0.63692 0.67746 0.0
H3586 H 0.629 0.62741 0.70954 0.0
H3587 H 0.65023 0.60023 0.72859 0.0
H3588 H 0.65911 0.61625 0.72393 0.0
H3589 H 0.65282 0.60528 0.70762 0.0
C3590 C 0.66687 0.65058 0.70977 0.0
C3591 C 0.67302 0.64935 0.69623 0.0
C3592 C 0.65592 0.64072 0.7152 0.0
C3593 C 0.65095 0.62942 0.70725 0.0
C3594 C 0.65688 0.62825 0.69343 0.0
H3595 H 0.58989 0.55901 0.73702 0.0
H3596 H 0.60578 0.57539 0.72053 0.0
C3597 C 0.66785 0.63812 0.68799 0.0
C3598 C 0.63971 0.61884 0.71373 0.0
H3599 H 0.629 0.59106 0.73175 0.0
C3600 C 0.62897 0.61943 0.71434 0.0
C3601 C 0.6397 0.60844 0.71993 0.0
C3602 C 0.65109 0.60749 0.72015 0.0
C3603 C 0.61822 0.6099 0.72109 0.0
C3604 C 0.61829 0.59963 0.72763 0.0
C3605 C 0.62896 0.59893 0.72667 0.0
C3606 C 0.60769 0.58985 0.7365 0.0
C3607 C 0.60688 0.61091 0.72111 0.0
C3608 C 0.60342 0.59254 0.75086 0.0
C3609 C 0.5944 0.58322 0.76033 0.0
C3610 C 0.5895 0.57097 0.75569 0.0
C3611 C 0.59354 0.56832 0.74101 0.0
C3612 C 0.60258 0.57767 0.73154 0.0
H3613 H 0.60723 0.61723 0.71141 0.0
H3614 H 0.5986 0.6019 0.71923 0.0
H3615 H 0.60607 0.61455 0.73313 0.0
H3616 H 0.60745 0.60184 0.75515 0.0
H3617 H 0.5917 0.58558 0.77172 0.0
H3618 H 0.68716 0.69611 0.65144 0.0
H3619 H 0.68523 0.71327 0.64154 0.0
H3620 H 0.71405 0.73739 0.67416 0.0
H3621 H 0.71608 0.72029 0.6841 0.0
H3622 H 0.68087 0.73055 0.6598 0.0
H3623 H 0.72546 0.75213 0.62743 0.0
H3624 H 0.71781 0.73645 0.63403 0.0
H3625 H 0.72568 0.74846 0.64869 0.0
C3626 C 0.69304 0.70506 0.65657 0.0
C3627 C 0.70183 0.70688 0.66847 0.0
C3628 C 0.69191 0.71483 0.65093 0.0
C3629 C 0.69958 0.7266 0.657 0.0
C3630 C 0.70814 0.7284 0.66918 0.0
H3631 H 0.71138 0.79663 0.62258 0.0
H3632 H 0.71172 0.78062 0.63889 0.0
C3633 C 0.70926 0.71862 0.67487 0.0
C3634 C 0.69887 0.73702 0.65016 0.0
H3635 H 0.7145 0.76253 0.62673 0.0
C3636 C 0.68822 0.73758 0.65261 0.0
C3637 C 0.7085 0.74617 0.64084 0.0
C3638 C 0.71999 0.7458 0.63744 0.0
C3639 C 0.68696 0.74711 0.64601 0.0
C3640 C 0.6965 0.75614 0.63638 0.0
C3641 C 0.70721 0.75563 0.63415 0.0
C3642 C 0.69546 0.76592 0.62789 0.0
C3643 C 0.6755 0.74748 0.64956 0.0
C3644 C 0.68614 0.763 0.6164 0.0
C3645 C 0.6859 0.77214 0.60713 0.0
C3646 C 0.69508 0.78436 0.60901 0.0
C3647 C 0.70423 0.78729 0.6208 0.0
C3648 C 0.70442 0.77816 0.63014 0.0
H3649 H 0.67105 0.74248 0.66102 0.0
H3650 H 0.6774 0.75698 0.65073 0.0
H3651 H 0.66895 0.74305 0.63934 0.0
H3652 H 0.67932 0.75361 0.61411 0.0
H3653 H 0.67886 0.76957 0.59795 0.0
H3654 H 0.3049 0.00574 0.68441 0.0
H3655 H 0.28847 0.98661 0.67325 0.0
H3656 H 0.31204 0.98832 0.63399 0.0
H3657 H 0.32845 0.00751 0.64494 0.0
H3658 H 0.28947 0.98414 0.62332 0.0
H3659 H 0.2841 0.95243 0.67378 0.0
H3660 H 0.28341 0.96561 0.68009 0.0
H3661 H 0.29735 0.96739 0.6719 0.0
C3662 C 0.30661 0.00197 0.67349 0.0
C3663 C 0.31796 0.00812 0.66555 0.0
C3664 C 0.29724 0.99101 0.66719 0.0
C3665 C 0.29908 0.98596 0.65292 0.0
C3666 C 0.31045 0.99203 0.64507 0.0
H3667 H 0.25572 0.92533 0.58857 0.0
H3668 H 0.27193 0.94264 0.60317 0.0
C3669 C 0.31981 0.00299 0.65135 0.0
C3670 C 0.28898 0.97476 0.64556 0.0
H3671 H 0.2693 0.94455 0.65253 0.0
C3672 C 0.2851 0.97548 0.62968 0.0
C3673 C 0.28322 0.96348 0.65394 0.0
C3674 C 0.28727 0.9621 0.67082 0.0
C3675 C 0.27558 0.96525 0.62198 0.0
C3676 C 0.26992 0.95395 0.63026 0.0
C3677 C 0.27368 0.95323 0.64622 0.0
C3678 C 0.26023 0.94276 0.62234 0.0
C3679 C 0.27153 0.96668 0.6051 0.0
C3680 C 0.24835 0.93679 0.62866 0.0
C3681 C 0.23903 0.92675 0.62043 0.0
C3682 C 0.24147 0.92248 0.6058 0.0
C3683 C 0.25351 0.92825 0.59989 0.0
C3684 C 0.26278 0.93825 0.60811 0.0
H3685 H 0.27456 0.97634 0.60229 0.0
H3686 H 0.27555 0.96337 0.59578 0.0
H3687 H 0.26147 0.96126 0.60393 0.0
H3688 H 0.24622 0.94009 0.63971 0.0
H3689 H 0.2299 0.92243 0.62542 0.0
H3690 H 0.01749 0.33536 0.65294 0.0
H3691 H 0.03646 0.3378 0.64179 0.0
H3692 H 0.03133 0.30668 0.66956 0.0
H3693 H 0.01246 0.30436 0.6811 0.0
H3694 H 0.05509 0.32539 0.67023 0.0
H3695 H 0.03773 0.31604 0.60636 0.0
H3696 H 0.03687 0.3284 0.61561 0.0
H3697 H 0.02793 0.31328 0.6238 0.0
C3698 C 0.02042 0.32907 0.65673 0.0
C3699 C 0.01344 0.31961 0.66779 0.0
C3700 C 0.03123 0.33043 0.65028 0.0
C3701 C 0.03517 0.32226 0.65457 0.0
C3702 C 0.02841 0.31304 0.666 0.0
H3703 H 0.08816 0.31477 0.59603 0.0
H3704 H 0.07019 0.31086 0.61166 0.0
C3705 C 0.01763 0.31171 0.67257 0.0
C3706 C 0.04624 0.32325 0.64692 0.0
H3707 H 0.05894 0.32369 0.60985 0.0
C3708 C 0.05593 0.32496 0.65704 0.0
C3709 C 0.04722 0.32245 0.62972 0.0
C3710 C 0.03684 0.31982 0.61824 0.0
C3711 C 0.0667 0.32619 0.65038 0.0
C3712 C 0.06789 0.32596 0.63313 0.0
C3713 C 0.05808 0.32398 0.62306 0.0
C3714 C 0.07921 0.32782 0.62512 0.0
C3715 C 0.07662 0.32755 0.6619 0.0
C3716 C 0.09034 0.33858 0.62763 0.0
C3717 C 0.10072 0.34077 0.6189 0.0
C3718 C 0.10016 0.3323 0.60728 0.0
C3719 C 0.08903 0.32141 0.60506 0.0
C3720 C 0.07869 0.3192 0.61388 0.0
H3721 H 0.07294 0.32383 0.67426 0.0
H3722 H 0.08136 0.32287 0.65705 0.0
H3723 H 0.08341 0.33735 0.66336 0.0
H3724 H 0.09092 0.34549 0.63598 0.0
H3725 H 0.10915 0.34919 0.62106 0.0
H3726 H 0.32494 0.33043 0.64695 0.0
H3727 H 0.30757 0.33153 0.63609 0.0
H3728 H 0.28435 0.3061 0.67293 0.0
H3729 H 0.30176 0.30503 0.684 0.0
H3730 H 0.28619 0.31163 0.62366 0.0
H3731 H 0.27616 0.33364 0.67558 0.0
H3732 H 0.29051 0.33399 0.67363 0.0
H3733 H 0.27725 0.32047 0.68075 0.0
C3734 C 0.31617 0.32517 0.65286 0.0
C3735 C 0.31471 0.31764 0.66633 0.0
C3736 C 0.30626 0.3258 0.64664 0.0
C3737 C 0.29471 0.319 0.6538 0.0
C3738 C 0.29323 0.31159 0.6674 0.0
H3739 H 0.2241 0.30876 0.62316 0.0
H3740 H 0.24051 0.30812 0.63823 0.0
C3741 C 0.30317 0.31094 0.67365 0.0
C3742 C 0.28413 0.31912 0.64632 0.0
H3743 H 0.26245 0.32704 0.65314 0.0
C3744 C 0.281 0.31501 0.6301 0.0
C3745 C 0.27733 0.32344 0.65481 0.0
C3746 C 0.28049 0.32823 0.67212 0.0
C3747 C 0.27129 0.31513 0.6221 0.0
C3748 C 0.26465 0.3197 0.63044 0.0
C3749 C 0.2676 0.32359 0.64677 0.0
C3750 C 0.25483 0.32075 0.62214 0.0
C3751 C 0.26813 0.31025 0.60482 0.0
C3752 C 0.25751 0.32832 0.60839 0.0
C3753 C 0.2482 0.32865 0.59972 0.0
C3754 C 0.23599 0.32148 0.60468 0.0
C3755 C 0.23338 0.31427 0.61888 0.0
C3756 C 0.24274 0.31394 0.62756 0.0
H3757 H 0.27184 0.3042 0.60186 0.0
H3758 H 0.25812 0.3051 0.60294 0.0
H3759 H 0.27212 0.31796 0.59604 0.0
H3760 H 0.26681 0.33379 0.60416 0.0
H3761 H 0.25055 0.3342 0.58876 0.0
H3762 H 0.68394 0.00153 0.6562 0.0
H3763 H 0.68105 0.98229 0.64556 0.0
H3764 H 0.71397 0.98876 0.66987 0.0
H3765 H 0.71674 0.00791 0.68093 0.0
H3766 H 0.69584 0.97922 0.6251 0.0
H3767 H 0.69057 0.95386 0.68281 0.0
H3768 H 0.68975 0.96763 0.6822 0.0
H3769 H 0.70428 0.96839 0.68193 0.0
C3770 C 0.69049 0.99879 0.65945 0.0
C3771 C 0.70055 0.00621 0.66943 0.0
C3772 C 0.68883 0.9878 0.65335 0.0
C3773 C 0.69721 0.984 0.65706 0.0
C3774 C 0.70723 0.99135 0.66714 0.0
H3775 H 0.7025 0.9303 0.59637 0.0
H3776 H 0.70714 0.94863 0.61169 0.0
C3777 C 0.70885 0.00233 0.67337 0.0
C3778 C 0.69576 0.97271 0.64952 0.0
H3779 H 0.69248 0.94491 0.6582 0.0
C3780 C 0.6951 0.97172 0.63235 0.0
C3781 C 0.69469 0.96288 0.65899 0.0
C3782 C 0.69474 0.96315 0.67751 0.0
C3783 C 0.69336 0.96118 0.62437 0.0
C3784 C 0.69259 0.95147 0.6338 0.0
C3785 C 0.69323 0.95243 0.65099 0.0
C3786 C 0.69056 0.94005 0.626 0.0
C3787 C 0.69201 0.96044 0.60592 0.0
C3788 C 0.68002 0.92898 0.6296 0.0
C3789 C 0.67744 0.91839 0.62108 0.0
C3790 C 0.68535 0.91868 0.60877 0.0
C3791 C 0.69622 0.92968 0.60581 0.0
C3792 C 0.69882 0.94023 0.61441 0.0
H3793 H 0.68965 0.96718 0.60108 0.0
H3794 H 0.70076 0.9624 0.60028 0.0
H3795 H 0.68486 0.95122 0.60199 0.0
H3796 H 0.67357 0.9286 0.63862 0.0
H3797 H 0.66912 0.91004 0.62393 0.0
H3798 H 0.01263 0.71958 0.67788 0.0
H3799 H 0.03205 0.73525 0.66629 0.0
H3800 H 0.03717 0.70738 0.64393 0.0
H3801 H 0.01767 0.69173 0.65507 0.0
H3802 H 0.05542 0.7399 0.66976 0.0
H3803 H 0.04082 0.72858 0.60496 0.0
H3804 H 0.03023 0.72259 0.62184 0.0
H3805 H 0.03917 0.71574 0.61631 0.0
C3806 C 0.01791 0.71681 0.6705 0.0
C3807 C 0.01358 0.70444 0.66723 0.0
C3808 C 0.029 0.72577 0.6639 0.0
C3809 C 0.03594 0.7225 0.65395 0.0
C3810 C 0.03182 0.71013 0.65119 0.0
H3811 H 0.10514 0.75896 0.60449 0.0
H3812 H 0.0866 0.74489 0.61936 0.0
C3813 C 0.0207 0.70119 0.65765 0.0
C3814 C 0.04745 0.732 0.64638 0.0
H3815 H 0.06205 0.74184 0.60957 0.0
C3816 C 0.05683 0.74039 0.6566 0.0
C3817 C 0.04926 0.7327 0.62917 0.0
C3818 C 0.03929 0.7245 0.61742 0.0
C3819 C 0.0681 0.74922 0.65008 0.0
C3820 C 0.06998 0.74964 0.63296 0.0
C3821 C 0.06057 0.7414 0.62273 0.0
C3822 C 0.08172 0.75846 0.62534 0.0
C3823 C 0.07803 0.75789 0.6615 0.0
C3824 C 0.08511 0.77076 0.6239 0.0
C3825 C 0.0957 0.77884 0.61537 0.0
C3826 C 0.10307 0.77473 0.60822 0.0
C3827 C 0.09976 0.76245 0.61007 0.0
C3828 C 0.08915 0.75438 0.61847 0.0
H3829 H 0.07565 0.75544 0.6746 0.0
H3830 H 0.08666 0.75801 0.65878 0.0
H3831 H 0.07967 0.76723 0.65952 0.0
H3832 H 0.07941 0.77404 0.62901 0.0
H3833 H 0.09804 0.78825 0.61421 0.0
H3834 H 0.99338 0.65903 0.72313 0.0
H3835 H 0.99628 0.6426 0.73358 0.0
H3836 H 0.98013 0.62188 0.68954 0.0
H3837 H 0.97723 0.63832 0.67894 0.0
H3838 H 0.97766 0.61793 0.73885 0.0
H3839 H 0.01277 0.62194 0.6945 0.0
H3840 H 0.00934 0.63397 0.69766 0.0
H3841 H 0.99925 0.62085 0.68573 0.0
C3842 C 0.99051 0.65101 0.71562 0.0
C3843 C 0.9851 0.64997 0.7002 0.0
C3844 C 0.99215 0.64163 0.72162 0.0
C3845 C 0.98853 0.63109 0.71226 0.0
C3846 C 0.98315 0.63002 0.69684 0.0
H3847 H 0.98019 0.56344 0.75233 0.0
H3848 H 0.97685 0.57826 0.73744 0.0
C3849 C 0.98146 0.63939 0.69084 0.0
C3850 C 0.99004 0.6211 0.71897 0.0
H3851 H 0.00544 0.60572 0.71351 0.0
C3852 C 0.98369 0.61522 0.73329 0.0
C3853 C 0.99799 0.61766 0.71172 0.0
C3854 C 0.00532 0.62397 0.69662 0.0
C3855 C 0.98509 0.606 0.74062 0.0
C3856 C 0.99296 0.60249 0.73332 0.0
C3857 C 0.99932 0.60836 0.71897 0.0
C3858 C 0.9952 0.59321 0.74096 0.0
C3859 C 0.9784 0.60032 0.75639 0.0
C3860 C 0.00673 0.59662 0.74737 0.0
C3861 C 0.00866 0.5882 0.75591 0.0
C3862 C 0.9991 0.57617 0.75814 0.0
C3863 C 0.98769 0.57267 0.75108 0.0
C3864 C 0.98576 0.58111 0.74255 0.0
H3865 H 0.97468 0.60571 0.76212 0.0
H3866 H 0.97067 0.59108 0.75377 0.0
H3867 H 0.98449 0.59943 0.76535 0.0
H3868 H 0.01413 0.60592 0.74626 0.0
H3869 H 0.01752 0.59127 0.76134 0.0
H3870 H 0.35921 0.35162 0.7126 0.0
H3871 H 0.37541 0.371 0.72338 0.0
H3872 H 0.40169 0.3677 0.69361 0.0
H3873 H 0.38548 0.34846 0.68248 0.0
H3874 H 0.39469 0.3743 0.74107 0.0
H3875 H 0.41114 0.40263 0.68497 0.0
H3876 H 0.3969 0.38841 0.68561 0.0
H3877 H 0.41103 0.38852 0.68303 0.0
C3878 C 0.36842 0.35511 0.70817 0.0
C3879 C 0.37108 0.34853 0.69668 0.0
C3880 C 0.37766 0.36619 0.71434 0.0
C3881 C 0.38975 0.37091 0.70913 0.0
C3882 C 0.3924 0.36441 0.6975 0.0
H3883 H 0.45991 0.425 0.74572 0.0
H3884 H 0.44281 0.40927 0.72995 0.0
C3885 C 0.38314 0.35337 0.69124 0.0
C3886 C 0.39967 0.38208 0.71687 0.0
H3887 H 0.42402 0.41019 0.70865 0.0
C3888 C 0.401 0.3822 0.73399 0.0
C3889 C 0.40794 0.39238 0.70762 0.0
C3890 C 0.40663 0.39306 0.68931 0.0
C3891 C 0.41054 0.39218 0.74206 0.0
C3892 C 0.41892 0.40238 0.73279 0.0
C3893 C 0.41756 0.40235 0.7157 0.0
C3894 C 0.42939 0.41291 0.74072 0.0
C3895 C 0.41182 0.39162 0.76042 0.0
C3896 C 0.42754 0.42039 0.75158 0.0
C3897 C 0.43728 0.42937 0.7606 0.0
C3898 C 0.44903 0.43098 0.75894 0.0
C3899 C 0.45094 0.42387 0.7474 0.0
C3900 C 0.4412 0.41494 0.73833 0.0
H3901 H 0.40594 0.3823 0.76533 0.0
H3902 H 0.42142 0.39472 0.76378 0.0
H3903 H 0.40918 0.39777 0.76647 0.0
H3904 H 0.41848 0.419 0.75348 0.0
H3905 H 0.43549 0.43463 0.76947 0.0
H3906 H 0.67174 0.04661 0.68003 0.0
H3907 H 0.65244 0.04416 0.69013 0.0
H3908 H 0.65279 0.02209 0.7301 0.0
H3909 H 0.67191 0.02432 0.71997 0.0
H3910 H 0.63042 0.01223 0.7148 0.0
H3911 H 0.64811 0.06083 0.73044 0.0
H3912 H 0.6506 0.05798 0.7096 0.0
H3913 H 0.65801 0.05481 0.72607 0.0
C3914 C 0.66769 0.04124 0.69097 0.0
C3915 C 0.67335 0.03569 0.69924 0.0
C3916 C 0.6567 0.03991 0.69677 0.0
C3917 C 0.65127 0.03309 0.711 0.0
C3918 C 0.65685 0.02742 0.71913 0.0
H3919 H 0.5983 0.02988 0.77864 0.0
H3920 H 0.6165 0.03438 0.76304 0.0
C3921 C 0.66778 0.02872 0.71333 0.0
C3922 C 0.63972 0.03169 0.71748 0.0
H3923 H 0.62709 0.04738 0.73444 0.0
C3924 C 0.62966 0.01992 0.719 0.0
C3925 C 0.6388 0.04174 0.72308 0.0
C3926 C 0.64946 0.05455 0.72238 0.0
C3927 C 0.61875 0.01787 0.7262 0.0
C3928 C 0.6178 0.02792 0.73174 0.0
C3929 C 0.62781 0.03972 0.73002 0.0
C3930 C 0.60682 0.02626 0.74047 0.0
C3931 C 0.60852 0.00494 0.72841 0.0
C3932 C 0.59536 0.02055 0.73282 0.0
C3933 C 0.58491 0.01796 0.74172 0.0
C3934 C 0.58575 0.02116 0.7584 0.0
C3935 C 0.59733 0.02741 0.76578 0.0
C3936 C 0.60774 0.02994 0.75689 0.0
H3937 H 0.61167 0.99828 0.72686 0.0
H3938 H 0.60434 0.00364 0.74075 0.0
H3939 H 0.60137 0.00289 0.71909 0.0
H3940 H 0.59448 0.01786 0.72005 0.0
H3941 H 0.57615 0.01329 0.73562 0.0
loop_
_geom_bond_atom_site_label_1
_geom_bond_atom_site_label_2
_geom_bond_distance
_geom_bond_site_symmetry_2
_ccdc_geom_bond_type
In0 O1 2.294 . S
In0 O2 2.326 . S
In0 O6 2.266 1_455 S
In0 O7 2.326 1_554 S
In0 O8 2.266 1_554 S
In0 O9 2.341 1_455 S
In0 O11 2.294 . S
In0 O12 2.326 . S
O1 In0 2.294 . S
O1 C10 1.240 . S
O2 In0 2.326 . S
O2 C10 1.252 . S
C3 O6 1.252 . S
C3 O7 1.260 1_654 S
C4 O11 1.240 . S
C4 O12 1.252 . S
C5 O8 1.252 . S
C5 O9 1.243 1_456 S
O6 In0 2.266 1_655 S
O6 C3 1.252 . S
O7 In0 2.326 1_556 S
O7 C3 1.260 1_456 S
O8 In0 2.266 1_556 S
O8 C5 1.252 . S
O9 In0 2.341 1_655 S
O9 C5 1.243 1_654 S
C10 O1 1.240 . S
C10 O2 1.252 . S
O11 In0 2.294 . S
O11 C4 1.240 . S
O12 In0 2.326 . S
O12 C4 1.252 . S
In13 O14 2.294 . S
In13 O15 2.326 . S
In13 O19 2.266 . S
In13 O20 2.326 1_554 S
In13 O21 2.266 1_554 S
In13 O22 2.343 . S
In13 O24 2.294 . S
In13 O25 2.326 . S
O14 In13 2.294 . S
O14 C23 1.240 . S
O15 In13 2.326 . S
O15 C23 1.252 . S
C16 O19 1.252 . S
C16 O20 1.260 1_554 S
C17 O24 1.240 . S
C17 O25 1.252 . S
C18 O21 1.252 . S
C18 O22 1.240 1_556 S
O19 In13 2.266 . S
O19 C16 1.252 . S
O20 In13 2.326 1_556 S
O20 C16 1.260 1_556 S
O21 In13 2.266 1_556 S
O21 C18 1.252 . S
O22 In13 2.343 . S
O22 C18 1.240 1_554 S
C23 O14 1.240 . S
C23 O15 1.252 . S
O24 In13 2.294 . S
O24 C17 1.240 . S
O25 In13 2.326 . S
O25 C17 1.252 . S
In26 O27 2.294 . S
In26 O28 2.326 1_554 S
In26 O32 2.266 . S
In26 O33 2.277 1_545 S
In26 O34 2.266 1_545 S
In26 O35 2.326 . S
In26 O37 2.294 1_554 S
In26 O38 2.307 1_554 S
O27 In26 2.294 . S
O27 C36 1.240 . S
O28 In26 2.326 1_556 S
O28 C36 1.252 1_556 S
C29 O32 1.252 . S
C29 O33 1.220 1_545 S
C30 O37 1.240 . S
C30 O38 1.274 . S
C31 O34 1.252 . S
C31 O35 1.260 1_565 S
O32 In26 2.266 . S
O32 C29 1.252 . S
O33 In26 2.277 1_565 S
O33 C29 1.220 1_565 S
O34 In26 2.266 1_565 S
O34 C31 1.252 . S
O35 In26 2.326 . S
O35 C31 1.260 1_545 S
C36 O27 1.240 . S
C36 O28 1.252 1_554 S
O37 In26 2.294 1_556 S
O37 C30 1.240 . S
O38 In26 2.307 1_556 S
O38 C30 1.274 . S
In39 O40 2.294 1_554 S
In39 O41 2.305 1_454 S
In39 O45 2.266 . S
In39 O46 2.326 . S
In39 O47 2.266 . S
In39 O48 2.326 . S
In39 O50 2.294 1_455 S
In39 O51 2.326 1_554 S
O40 In39 2.294 1_556 S
O40 C49 1.240 . S
O41 In39 2.305 1_656 S
O41 C49 1.277 1_655 S
C42 O45 1.252 . S
C42 O46 1.260 . S
C43 O50 1.240 . S
C43 O51 1.252 1_654 S
C44 O47 1.252 . S
C44 O48 1.260 . S
O45 In39 2.266 . S
O45 C42 1.252 . S
O46 In39 2.326 . S
O46 C42 1.260 . S
O47 In39 2.266 . S
O47 C44 1.252 . S
O48 In39 2.326 . S
O48 C44 1.260 . S
C49 O40 1.240 . S
C49 O41 1.277 1_455 S
O50 In39 2.294 1_655 S
O50 C43 1.240 . S
O51 In39 2.326 1_556 S
O51 C43 1.252 1_456 S
In52 O53 2.294 1_554 S
In52 O54 2.308 1_554 S
In52 O58 2.266 . S
In52 O59 2.326 . S
In52 O60 2.266 . S
In52 O61 2.326 . S
In52 O63 2.294 . S
In52 O64 2.326 1_554 S
O53 In52 2.294 1_556 S
O53 C62 1.240 . S
O54 In52 2.308 1_556 S
O54 C62 1.273 . S
C55 O58 1.252 . S
C55 O59 1.260 . S
C56 O63 1.240 . S
C56 O64 1.252 1_554 S
C57 O60 1.252 . S
C57 O61 1.260 . S
O58 In52 2.266 . S
O58 C55 1.252 . S
O59 In52 2.326 . S
O59 C55 1.260 . S
O60 In52 2.266 . S
O60 C57 1.252 . S
O61 In52 2.326 . S
O61 C57 1.260 . S
C62 O53 1.240 . S
C62 O54 1.273 . S
O63 In52 2.294 . S
O63 C56 1.240 . S
O64 In52 2.326 1_556 S
O64 C56 1.252 1_556 S
In65 O66 2.294 . S
In65 O67 2.326 1_545 S
In65 O71 2.266 . S
In65 O72 2.326 1_554 S
In65 O73 2.266 1_554 S
In65 O74 2.343 . S
In65 O76 2.294 1_545 S
In65 O77 2.326 . S
O66 In65 2.294 . S
O66 C75 1.240 . S
O67 In65 2.326 1_565 S
O67 C75 1.252 1_565 S
C68 O71 1.252 . S
C68 O72 1.260 1_554 S
C69 O76 1.240 . S
C69 O77 1.252 1_565 S
C70 O73 1.252 . S
C70 O74 1.240 1_556 S
O71 In65 2.266 . S
O71 C68 1.252 . S
O72 In65 2.326 1_556 S
O72 C68 1.260 1_556 S
O73 In65 2.266 1_556 S
O73 C70 1.252 . S
O74 In65 2.343 . S
O74 C70 1.240 1_554 S
C75 O66 1.240 . S
C75 O67 1.252 1_545 S
O76 In65 2.294 1_565 S
O76 C69 1.240 . S
O77 In65 2.326 . S
O77 C69 1.252 1_545 S
In78 O79 2.294 . S
In78 O80 2.326 . S
In78 O84 2.266 . S
In78 O85 2.326 . S
In78 O86 2.266 . S
In78 O87 2.326 . S
In78 O89 2.294 . S
In78 O90 2.326 . S
O79 In78 2.294 . S
O79 C88 1.240 . S
O80 In78 2.326 . S
O80 C88 1.252 . S
C81 O84 1.252 . S
C81 O85 1.260 . S
C82 O89 1.240 . S
C82 O90 1.252 . S
C83 O86 1.252 . S
C83 O87 1.260 . S
O84 In78 2.266 . S
O84 C81 1.252 . S
O85 In78 2.326 . S
O85 C81 1.260 . S
O86 In78 2.266 . S
O86 C83 1.252 . S
O87 In78 2.326 . S
O87 C83 1.260 . S
C88 O79 1.240 . S
C88 O80 1.252 . S
O89 In78 2.294 . S
O89 C82 1.240 . S
O90 In78 2.326 . S
O90 C82 1.252 . S
In91 O92 2.294 . S
In91 O93 2.326 . S
In91 O97 2.266 . S
In91 O98 2.326 . S
In91 O99 2.266 . S
In91 O100 2.326 . S
In91 O102 2.371 . S
In91 O103 2.326 . S
O92 In91 2.294 . S
O92 C101 1.240 . S
O93 In91 2.326 . S
O93 C101 1.252 . S
C94 O97 1.252 . S
C94 O98 1.260 . S
C95 O102 1.235 1_545 S
C95 O103 1.252 1_545 S
C96 O99 1.252 . S
C96 O100 1.260 . S
O97 In91 2.266 . S
O97 C94 1.252 . S
O98 In91 2.326 . S
O98 C94 1.260 . S
O99 In91 2.266 . S
O99 C96 1.252 . S
O100 In91 2.326 . S
O100 C96 1.260 . S
C101 O92 1.240 . S
C101 O93 1.252 . S
O102 In91 2.371 . S
O102 C95 1.235 1_565 S
O103 In91 2.326 . S
O103 C95 1.252 1_565 S
In104 O105 2.294 . S
In104 O106 2.326 . S
In104 O110 2.266 . S
In104 O111 2.326 . S
In104 O112 2.266 . S
In104 O113 2.326 . S
In104 O115 2.294 . S
In104 O116 2.326 . S
O105 In104 2.294 . S
O105 C114 1.240 . S
O106 In104 2.326 . S
O106 C114 1.252 . S
C107 O110 1.252 . S
C107 O111 1.260 . S
C108 O115 1.240 . S
C108 O116 1.252 . S
C109 O112 1.252 . S
C109 O113 1.260 . S
O110 In104 2.266 . S
O110 C107 1.252 . S
O111 In104 2.326 . S
O111 C107 1.260 . S
O112 In104 2.266 . S
O112 C109 1.252 . S
O113 In104 2.326 . S
O113 C109 1.260 . S
C114 O105 1.240 . S
C114 O106 1.252 . S
O115 In104 2.294 . S
O115 C108 1.240 . S
O116 In104 2.326 . S
O116 C108 1.252 . S
In117 O118 2.294 . S
In117 O119 2.326 . S
In117 O123 2.266 . S
In117 O124 2.326 . S
In117 O125 2.266 . S
In117 O126 2.326 . S
In117 O128 2.294 . S
In117 O129 2.326 . S
O118 In117 2.294 . S
O118 C127 1.240 . S
O119 In117 2.326 . S
O119 C127 1.252 . S
C120 O123 1.252 1_545 S
C120 O124 1.260 1_545 S
C121 O128 1.240 . S
C121 O129 1.252 . S
C122 O125 1.252 . S
C122 O126 1.260 . S
O123 In117 2.266 . S
O123 C120 1.252 1_565 S
O124 In117 2.326 . S
O124 C120 1.260 1_565 S
O125 In117 2.266 . S
O125 C122 1.252 . S
O126 In117 2.326 . S
O126 C122 1.260 . S
C127 O118 1.240 . S
C127 O119 1.252 . S
O128 In117 2.294 . S
O128 C121 1.240 . S
O129 In117 2.326 . S
O129 C121 1.252 . S
In130 O131 2.294 . S
In130 O132 2.326 . S
In130 O136 2.266 . S
In130 O137 2.326 . S
In130 O138 2.266 . S
In130 O139 2.326 . S
In130 O141 2.294 . S
In130 O142 2.326 . S
O131 In130 2.294 . S
O131 C140 1.240 . S
O132 In130 2.326 . S
O132 C140 1.252 . S
C133 O136 1.252 . S
C133 O137 1.260 . S
C134 O141 1.240 . S
C134 O142 1.252 . S
C135 O138 1.252 . S
C135 O139 1.260 . S
O136 In130 2.266 . S
O136 C133 1.252 . S
O137 In130 2.326 . S
O137 C133 1.260 . S
O138 In130 2.266 . S
O138 C135 1.252 . S
O139 In130 2.326 . S
O139 C135 1.260 . S
C140 O131 1.240 . S
C140 O132 1.252 . S
O141 In130 2.294 . S
O141 C134 1.240 . S
O142 In130 2.326 . S
O142 C134 1.252 . S
In143 O144 2.294 . S
In143 O145 2.326 . S
In143 O149 2.266 . S
In143 O150 2.326 . S
In143 O151 2.266 . S
In143 O152 2.326 . S
In143 O154 2.294 . S
In143 O155 2.326 . S
O144 In143 2.294 . S
O144 C153 1.240 . S
O145 In143 2.326 . S
O145 C153 1.252 . S
C146 O149 1.252 . S
C146 O150 1.260 . S
C147 O154 1.240 . S
C147 O155 1.252 . S
C148 O151 1.252 . S
C148 O152 1.260 . S
O149 In143 2.266 . S
O149 C146 1.252 . S
O150 In143 2.326 . S
O150 C146 1.260 . S
O151 In143 2.266 . S
O151 C148 1.252 . S
O152 In143 2.326 . S
O152 C148 1.260 . S
C153 O144 1.240 . S
C153 O145 1.252 . S
O154 In143 2.294 . S
O154 C147 1.240 . S
O155 In143 2.326 . S
O155 C147 1.252 . S
In156 O157 2.294 . S
In156 O158 2.326 . S
In156 O162 2.266 . S
In156 O163 2.326 . S
In156 O164 2.266 . S
In156 O165 2.326 . S
In156 O167 2.294 . S
In156 O168 2.326 . S
O157 In156 2.294 . S
O157 C166 1.240 . S
O158 In156 2.326 . S
O158 C166 1.252 . S
C159 O162 1.252 . S
C159 O163 1.260 . S
C160 O167 1.240 . S
C160 O168 1.252 . S
C161 O164 1.252 . S
C161 O165 1.260 . S
O162 In156 2.266 . S
O162 C159 1.252 . S
O163 In156 2.326 . S
O163 C159 1.260 . S
O164 In156 2.266 . S
O164 C161 1.252 . S
O165 In156 2.326 . S
O165 C161 1.260 . S
C166 O157 1.240 . S
C166 O158 1.252 . S
O167 In156 2.294 . S
O167 C160 1.240 . S
O168 In156 2.326 . S
O168 C160 1.252 . S
In169 O170 2.294 . S
In169 O171 2.326 . S
In169 O175 2.266 . S
In169 O176 2.326 . S
In169 O177 2.266 . S
In169 O178 2.326 . S
In169 O180 2.294 . S
In169 O181 2.326 . S
O170 In169 2.294 . S
O170 C179 1.240 . S
O171 In169 2.326 . S
O171 C179 1.252 . S
C172 O175 1.252 . S
C172 O176 1.260 . S
C173 O180 1.240 . S
C173 O181 1.252 . S
C174 O177 1.252 1_455 S
C174 O178 1.260 1_455 S
O175 In169 2.266 . S
O175 C172 1.252 . S
O176 In169 2.326 . S
O176 C172 1.260 . S
O177 In169 2.266 . S
O177 C174 1.252 1_655 S
O178 In169 2.326 . S
O178 C174 1.260 1_655 S
C179 O170 1.240 . S
C179 O171 1.252 . S
O180 In169 2.294 . S
O180 C173 1.240 . S
O181 In169 2.326 . S
O181 C173 1.252 . S
In182 O183 2.294 . S
In182 O184 2.326 . S
In182 O188 2.266 . S
In182 O189 2.326 . S
In182 O190 2.266 . S
In182 O191 2.326 . S
In182 O193 2.294 . S
In182 O194 2.326 . S
O183 In182 2.294 . S
O183 C192 1.240 . S
O184 In182 2.326 . S
O184 C192 1.252 . S
C185 O188 1.252 . S
C185 O189 1.260 . S
C186 O193 1.240 . S
C186 O194 1.252 . S
C187 O190 1.252 . S
C187 O191 1.260 . S
O188 In182 2.266 . S
O188 C185 1.252 . S
O189 In182 2.326 . S
O189 C185 1.260 . S
O190 In182 2.266 . S
O190 C187 1.252 . S
O191 In182 2.326 . S
O191 C187 1.260 . S
C192 O183 1.240 . S
C192 O184 1.252 . S
O193 In182 2.294 . S
O193 C186 1.240 . S
O194 In182 2.326 . S
O194 C186 1.252 . S
In195 O196 2.294 . S
In195 O197 2.326 . S
In195 O201 2.266 . S
In195 O202 2.326 . S
In195 O203 2.266 . S
In195 O204 2.326 . S
In195 O206 2.294 . S
In195 O207 2.326 . S
O196 In195 2.294 . S
O196 C205 1.240 . S
O197 In195 2.326 . S
O197 C205 1.252 . S
C198 O201 1.252 . S
C198 O202 1.260 . S
C199 O206 1.240 . S
C199 O207 1.252 . S
C200 O203 1.252 . S
C200 O204 1.260 . S
O201 In195 2.266 . S
O201 C198 1.252 . S
O202 In195 2.326 . S
O202 C198 1.260 . S
O203 In195 2.266 . S
O203 C200 1.252 . S
O204 In195 2.326 . S
O204 C200 1.260 . S
C205 O196 1.240 . S
C205 O197 1.252 . S
O206 In195 2.294 . S
O206 C199 1.240 . S
O207 In195 2.326 . S
O207 C199 1.252 . S
In208 O209 2.294 . S
In208 O210 2.326 . S
In208 O214 2.266 . S
In208 O215 2.326 . S
In208 O216 2.266 . S
In208 O217 2.326 . S
In208 O219 2.294 . S
In208 O220 2.326 . S
O209 In208 2.294 . S
O209 C218 1.240 . S
O210 In208 2.326 . S
O210 C218 1.252 . S
C211 O214 1.252 . S
C211 O215 1.260 . S
C212 O219 1.240 . S
C212 O220 1.252 . S
C213 O216 1.252 . S
C213 O217 1.260 . S
O214 In208 2.266 . S
O214 C211 1.252 . S
O215 In208 2.326 . S
O215 C211 1.260 . S
O216 In208 2.266 . S
O216 C213 1.252 . S
O217 In208 2.326 . S
O217 C213 1.260 . S
C218 O209 1.240 . S
C218 O210 1.252 . S
O219 In208 2.294 . S
O219 C212 1.240 . S
O220 In208 2.326 . S
O220 C212 1.252 . S
In221 O222 2.294 . S
In221 O223 2.326 . S
In221 O227 2.266 . S
In221 O228 2.326 . S
In221 O229 2.266 . S
In221 O230 2.326 . S
In221 O232 2.294 . S
In221 O233 2.326 . S
O222 In221 2.294 . S
O222 C231 1.240 . S
O223 In221 2.326 . S
O223 C231 1.252 . S
C224 O227 1.252 . S
C224 O228 1.260 . S
C225 O232 1.240 . S
C225 O233 1.252 . S
C226 O229 1.252 1_455 S
C226 O230 1.260 1_455 S
O227 In221 2.266 . S
O227 C224 1.252 . S
O228 In221 2.326 . S
O228 C224 1.260 . S
O229 In221 2.266 . S
O229 C226 1.252 1_655 S
O230 In221 2.326 . S
O230 C226 1.260 1_655 S
C231 O222 1.240 . S
C231 O223 1.252 . S
O232 In221 2.294 . S
O232 C225 1.240 . S
O233 In221 2.326 . S
O233 C225 1.252 . S
H234 C261 0.929 . S
N235 C260 1.433 . S
N235 C266 1.435 . S
N235 C272 1.423 . S
H236 C262 0.930 . S
H237 C265 0.931 . S
H238 C264 0.929 . S
H239 C267 0.930 . S
H240 C268 0.932 . S
H241 C271 0.929 . S
H242 C270 0.931 . S
H243 C273 0.929 . S
H244 C277 0.932 . S
H245 C274 0.931 . S
H246 C276 0.929 . S
H247 C279 0.929 . S
H248 C280 0.930 . S
H249 C282 0.929 . S
H250 C283 0.931 . S
H251 C285 0.930 . S
H252 C286 0.932 . S
H253 C288 0.931 . S
H254 C289 0.929 . S
H255 C291 0.929 . S
H256 C292 0.931 . S
H257 C294 0.929 . S
N258 C278 1.433 . S
N258 C284 1.435 . S
N258 C290 1.423 . S
H259 C295 0.932 . S
C260 N235 1.433 . S
C260 C261 1.363 . S
C260 C265 1.370 . S
C261 H234 0.929 . S
C261 C260 1.363 . S
C261 C262 1.385 . S
C262 H236 0.930 . S
C262 C261 1.385 . S
C262 C263 1.357 . S
C263 C262 1.357 . S
C263 C264 1.406 . S
C264 H238 0.929 . S
C264 C263 1.406 . S
C264 C265 1.391 . S
C265 H237 0.931 . S
C265 C260 1.370 . S
C265 C264 1.391 . S
C266 N235 1.435 . S
C266 C267 1.358 . S
C266 C271 1.371 . S
C267 H239 0.930 . S
C267 C266 1.358 . S
C267 C268 1.405 . S
C268 H240 0.932 . S
C268 C267 1.405 . S
C268 C269 1.383 . S
C269 C268 1.383 . S
C269 C270 1.393 . S
C270 H242 0.931 . S
C270 C269 1.393 . S
C270 C271 1.382 . S
C271 H241 0.929 . S
C271 C266 1.371 . S
C271 C270 1.382 . S
C272 N235 1.423 . S
C272 C273 1.362 . S
C272 C277 1.388 . S
C273 H243 0.929 . S
C273 C272 1.362 . S
C273 C274 1.376 . S
C274 H245 0.931 . S
C274 C273 1.376 . S
C274 C275 1.396 . S
C275 C274 1.396 . S
C275 C276 1.348 . S
C275 C293 1.472 . S
C276 H246 0.929 . S
C276 C275 1.348 . S
C276 C277 1.443 . S
C277 H244 0.932 . S
C277 C272 1.388 . S
C277 C276 1.443 . S
C278 N258 1.433 . S
C278 C279 1.363 . S
C278 C283 1.370 . S
C279 H247 0.929 . S
C279 C278 1.363 . S
C279 C280 1.385 . S
C280 H248 0.930 . S
C280 C279 1.385 . S
C280 C281 1.357 . S
C281 C280 1.357 . S
C281 C282 1.406 . S
C282 H249 0.929 . S
C282 C281 1.406 . S
C282 C283 1.391 . S
C283 H250 0.931 . S
C283 C278 1.370 . S
C283 C282 1.391 . S
C284 N258 1.435 . S
C284 C285 1.358 . S
C284 C289 1.371 . S
C285 H251 0.930 . S
C285 C284 1.358 . S
C285 C286 1.405 . S
C286 H252 0.932 . S
C286 C285 1.405 . S
C286 C287 1.383 . S
C287 C286 1.383 . S
C287 C288 1.393 . S
C288 H253 0.931 . S
C288 C287 1.393 . S
C288 C289 1.382 . S
C289 H254 0.929 . S
C289 C284 1.371 . S
C289 C288 1.382 . S
C290 N258 1.423 . S
C290 C291 1.362 . S
C290 C295 1.388 . S
C291 H255 0.929 . S
C291 C290 1.362 . S
C291 C292 1.376 . S
C292 H256 0.931 . S
C292 C291 1.376 . S
C292 C293 1.396 . S
C293 C275 1.472 . S
C293 C292 1.396 . S
C293 C294 1.348 . S
C294 H257 0.929 . S
C294 C293 1.348 . S
C294 C295 1.443 . S
C295 H259 0.932 . S
C295 C290 1.388 . S
C295 C294 1.443 . S
H296 C323 0.929 . S
N297 C322 1.433 . S
N297 C328 1.435 . S
N297 C334 1.423 . S
H298 C324 0.930 . S
H299 C327 0.931 . S
H300 C326 0.929 . S
H301 C329 0.930 . S
H302 C330 0.932 . S
H303 C333 0.929 . S
H304 C332 0.931 . S
H305 C335 0.929 . S
H306 C339 0.932 . S
H307 C336 0.931 . S
H308 C338 0.929 . S
H309 C341 0.929 . S
H310 C342 0.930 . S
H311 C344 0.929 . S
H312 C345 0.931 . S
H313 C347 0.930 . S
H314 C348 0.932 . S
H315 C350 0.931 . S
H316 C351 0.929 . S
H317 C353 0.929 . S
H318 C354 0.931 . S
H319 C356 0.929 . S
N320 C340 1.433 . S
N320 C346 1.435 . S
N320 C352 1.423 . S
H321 C357 0.932 . S
C322 N297 1.433 . S
C322 C323 1.363 . S
C322 C327 1.370 . S
C323 H296 0.929 . S
C323 C322 1.363 . S
C323 C324 1.385 . S
C324 H298 0.930 . S
C324 C323 1.385 . S
C324 C325 1.357 . S
C325 C324 1.357 . S
C325 C326 1.406 . S
C326 H300 0.929 . S
C326 C325 1.406 . S
C326 C327 1.391 . S
C327 H299 0.931 . S
C327 C322 1.370 . S
C327 C326 1.391 . S
C328 N297 1.435 . S
C328 C329 1.358 . S
C328 C333 1.371 . S
C329 H301 0.930 . S
C329 C328 1.358 . S
C329 C330 1.405 . S
C330 H302 0.932 . S
C330 C329 1.405 . S
C330 C331 1.383 . S
C331 C330 1.383 . S
C331 C332 1.393 . S
C332 H304 0.931 . S
C332 C331 1.393 . S
C332 C333 1.382 . S
C333 H303 0.929 . S
C333 C328 1.371 . S
C333 C332 1.382 . S
C334 N297 1.423 . S
C334 C335 1.362 . S
C334 C339 1.388 . S
C335 H305 0.929 . S
C335 C334 1.362 . S
C335 C336 1.376 . S
C336 H307 0.931 . S
C336 C335 1.376 . S
C336 C337 1.396 . S
C337 C336 1.396 . S
C337 C338 1.348 . S
C337 C355 1.472 . S
C338 H308 0.929 . S
C338 C337 1.348 . S
C338 C339 1.443 . S
C339 H306 0.932 . S
C339 C334 1.388 . S
C339 C338 1.443 . S
C340 N320 1.433 . S
C340 C341 1.363 . S
C340 C345 1.370 . S
C341 H309 0.929 . S
C341 C340 1.363 . S
C341 C342 1.385 . S
C342 H310 0.930 . S
C342 C341 1.385 . S
C342 C343 1.357 . S
C343 C342 1.357 . S
C343 C344 1.406 . S
C344 H311 0.929 . S
C344 C343 1.406 . S
C344 C345 1.391 . S
C345 H312 0.931 . S
C345 C340 1.370 . S
C345 C344 1.391 . S
C346 N320 1.435 . S
C346 C347 1.358 . S
C346 C351 1.371 . S
C347 H313 0.930 . S
C347 C346 1.358 . S
C347 C348 1.405 . S
C348 H314 0.932 . S
C348 C347 1.405 . S
C348 C349 1.383 . S
C349 C348 1.383 . S
C349 C350 1.393 . S
C350 H315 0.931 . S
C350 C349 1.393 . S
C350 C351 1.382 . S
C351 H316 0.929 . S
C351 C346 1.371 . S
C351 C350 1.382 . S
C352 N320 1.423 . S
C352 C353 1.362 . S
C352 C357 1.388 . S
C353 H317 0.929 . S
C353 C352 1.362 . S
C353 C354 1.376 . S
C354 H318 0.931 . S
C354 C353 1.376 . S
C354 C355 1.396 . S
C355 C337 1.472 . S
C355 C354 1.396 . S
C355 C356 1.348 . S
C356 H319 0.929 . S
C356 C355 1.348 . S
C356 C357 1.443 . S
C357 H321 0.932 . S
C357 C352 1.388 . S
C357 C356 1.443 . S
H358 C385 0.929 . S
N359 C384 1.433 . S
N359 C390 1.435 . S
N359 C396 1.423 . S
H360 C386 0.930 . S
H361 C389 0.931 . S
H362 C388 0.929 . S
H363 C391 0.930 . S
H364 C392 0.932 . S
H365 C395 0.929 . S
H366 C394 0.931 . S
H367 C397 0.929 . S
H368 C401 0.932 . S
H369 C398 0.931 . S
H370 C400 0.929 . S
H371 C403 0.929 . S
H372 C404 0.930 . S
H373 C406 0.929 . S
H374 C407 0.931 . S
H375 C409 0.930 . S
H376 C410 0.932 . S
H377 C412 0.931 . S
H378 C413 0.929 . S
H379 C415 0.929 . S
H380 C416 0.931 . S
H381 C418 0.929 . S
N382 C402 1.433 . S
N382 C408 1.435 . S
N382 C414 1.423 . S
H383 C419 0.932 . S
C384 N359 1.433 . S
C384 C385 1.363 . S
C384 C389 1.370 . S
C385 H358 0.929 . S
C385 C384 1.363 . S
C385 C386 1.385 . S
C386 H360 0.930 . S
C386 C385 1.385 . S
C386 C387 1.357 . S
C387 C386 1.357 . S
C387 C388 1.406 . S
C388 H362 0.929 . S
C388 C387 1.406 . S
C388 C389 1.391 . S
C389 H361 0.931 . S
C389 C384 1.370 . S
C389 C388 1.391 . S
C390 N359 1.435 . S
C390 C391 1.358 . S
C390 C395 1.371 . S
C391 H363 0.930 . S
C391 C390 1.358 . S
C391 C392 1.405 . S
C392 H364 0.932 . S
C392 C391 1.405 . S
C392 C393 1.383 . S
C393 C392 1.383 . S
C393 C394 1.393 . S
C394 H366 0.931 . S
C394 C393 1.393 . S
C394 C395 1.382 . S
C395 H365 0.929 . S
C395 C390 1.371 . S
C395 C394 1.382 . S
C396 N359 1.423 . S
C396 C397 1.362 . S
C396 C401 1.388 . S
C397 H367 0.929 . S
C397 C396 1.362 . S
C397 C398 1.376 . S
C398 H369 0.931 . S
C398 C397 1.376 . S
C398 C399 1.396 . S
C399 C398 1.396 . S
C399 C400 1.348 . S
C399 C417 1.472 . S
C400 H370 0.929 . S
C400 C399 1.348 . S
C400 C401 1.443 . S
C401 H368 0.932 . S
C401 C396 1.388 . S
C401 C400 1.443 . S
C402 N382 1.433 . S
C402 C403 1.363 . S
C402 C407 1.370 . S
C403 H371 0.929 . S
C403 C402 1.363 . S
C403 C404 1.385 . S
C404 H372 0.930 . S
C404 C403 1.385 . S
C404 C405 1.357 . S
C405 C404 1.357 . S
C405 C406 1.406 . S
C406 H373 0.929 . S
C406 C405 1.406 . S
C406 C407 1.391 . S
C407 H374 0.931 . S
C407 C402 1.370 . S
C407 C406 1.391 . S
C408 N382 1.435 . S
C408 C409 1.358 . S
C408 C413 1.371 . S
C409 H375 0.930 . S
C409 C408 1.358 . S
C409 C410 1.405 . S
C410 H376 0.932 . S
C410 C409 1.405 . S
C410 C411 1.383 . S
C411 C410 1.383 . S
C411 C412 1.393 . S
C412 H377 0.931 . S
C412 C411 1.393 . S
C412 C413 1.382 . S
C413 H378 0.929 . S
C413 C408 1.371 . S
C413 C412 1.382 . S
C414 N382 1.423 . S
C414 C415 1.362 . S
C414 C419 1.388 . S
C415 H379 0.929 . S
C415 C414 1.362 . S
C415 C416 1.376 . S
C416 H380 0.931 . S
C416 C415 1.376 . S
C416 C417 1.396 . S
C417 C399 1.472 . S
C417 C416 1.396 . S
C417 C418 1.348 . S
C418 H381 0.929 . S
C418 C417 1.348 . S
C418 C419 1.443 . S
C419 H383 0.932 . S
C419 C414 1.388 . S
C419 C418 1.443 . S
H420 C447 0.929 . S
N421 C446 1.433 . S
N421 C452 1.435 . S
N421 C458 1.423 . S
H422 C448 0.930 . S
H423 C451 0.931 . S
H424 C450 0.929 . S
H425 C453 0.930 . S
H426 C454 0.932 . S
H427 C457 0.929 . S
H428 C456 0.931 . S
H429 C459 0.929 . S
H430 C463 0.932 . S
H431 C460 0.931 . S
H432 C462 0.929 . S
H433 C465 0.929 . S
H434 C466 0.930 . S
H435 C468 0.929 . S
H436 C469 0.931 . S
H437 C471 0.930 . S
H438 C472 0.932 . S
H439 C474 0.931 . S
H440 C475 0.929 . S
H441 C477 0.929 . S
H442 C478 0.931 . S
H443 C480 0.929 . S
N444 C464 1.433 . S
N444 C470 1.435 . S
N444 C476 1.423 . S
H445 C481 0.932 . S
C446 N421 1.433 . S
C446 C447 1.363 . S
C446 C451 1.370 . S
C447 H420 0.929 . S
C447 C446 1.363 . S
C447 C448 1.385 . S
C448 H422 0.930 . S
C448 C447 1.385 . S
C448 C449 1.357 . S
C449 C448 1.357 . S
C449 C450 1.406 . S
C450 H424 0.929 . S
C450 C449 1.406 . S
C450 C451 1.391 . S
C451 H423 0.931 . S
C451 C446 1.370 . S
C451 C450 1.391 . S
C452 N421 1.435 . S
C452 C453 1.358 . S
C452 C457 1.371 . S
C453 H425 0.930 . S
C453 C452 1.358 . S
C453 C454 1.405 . S
C454 H426 0.932 . S
C454 C453 1.405 . S
C454 C455 1.383 . S
C455 C454 1.383 . S
C455 C456 1.393 . S
C456 H428 0.931 . S
C456 C455 1.393 . S
C456 C457 1.382 . S
C457 H427 0.929 . S
C457 C452 1.371 . S
C457 C456 1.382 . S
C458 N421 1.423 . S
C458 C459 1.362 . S
C458 C463 1.388 . S
C459 H429 0.929 . S
C459 C458 1.362 . S
C459 C460 1.376 . S
C460 H431 0.931 . S
C460 C459 1.376 . S
C460 C461 1.396 . S
C461 C460 1.396 . S
C461 C462 1.348 . S
C461 C479 1.472 . S
C462 H432 0.929 . S
C462 C461 1.348 . S
C462 C463 1.443 . S
C463 H430 0.932 . S
C463 C458 1.388 . S
C463 C462 1.443 . S
C464 N444 1.433 . S
C464 C465 1.363 . S
C464 C469 1.370 . S
C465 H433 0.929 . S
C465 C464 1.363 . S
C465 C466 1.385 . S
C466 H434 0.930 . S
C466 C465 1.385 . S
C466 C467 1.357 . S
C467 C466 1.357 . S
C467 C468 1.406 . S
C468 H435 0.929 . S
C468 C467 1.406 . S
C468 C469 1.391 . S
C469 H436 0.931 . S
C469 C464 1.370 . S
C469 C468 1.391 . S
C470 N444 1.435 . S
C470 C471 1.358 . S
C470 C475 1.371 . S
C471 H437 0.930 . S
C471 C470 1.358 . S
C471 C472 1.405 . S
C472 H438 0.932 . S
C472 C471 1.405 . S
C472 C473 1.383 . S
C473 C472 1.383 . S
C473 C474 1.393 . S
C474 H439 0.931 . S
C474 C473 1.393 . S
C474 C475 1.382 . S
C475 H440 0.929 . S
C475 C470 1.371 . S
C475 C474 1.382 . S
C476 N444 1.423 . S
C476 C477 1.362 . S
C476 C481 1.388 . S
C477 H441 0.929 . S
C477 C476 1.362 . S
C477 C478 1.376 . S
C478 H442 0.931 . S
C478 C477 1.376 . S
C478 C479 1.396 . S
C479 C461 1.472 . S
C479 C478 1.396 . S
C479 C480 1.348 . S
C480 H443 0.929 . S
C480 C479 1.348 . S
C480 C481 1.443 . S
C481 H445 0.932 . S
C481 C476 1.388 . S
C481 C480 1.443 . S
H482 C509 0.929 . S
N483 C508 1.433 . S
N483 C514 1.435 . S
N483 C520 1.423 . S
H484 C510 0.930 . S
H485 C513 0.931 . S
H486 C512 0.929 . S
H487 C515 0.930 . S
H488 C516 0.932 . S
H489 C519 0.929 . S
H490 C518 0.931 . S
H491 C521 0.929 . S
H492 C525 0.932 . S
H493 C522 0.931 . S
H494 C524 0.929 . S
H495 C527 0.929 . S
H496 C528 0.930 . S
H497 C530 0.929 . S
H498 C531 0.931 . S
H499 C533 0.930 . S
H500 C534 0.932 . S
H501 C536 0.931 . S
H502 C537 0.929 . S
H503 C539 0.929 . S
H504 C540 0.931 . S
H505 C542 0.929 . S
N506 C526 1.433 . S
N506 C532 1.435 . S
N506 C538 1.423 . S
H507 C543 0.932 . S
C508 N483 1.433 . S
C508 C509 1.363 . S
C508 C513 1.370 . S
C509 H482 0.929 . S
C509 C508 1.363 . S
C509 C510 1.385 . S
C510 H484 0.930 . S
C510 C509 1.385 . S
C510 C511 1.357 . S
C511 C510 1.357 . S
C511 C512 1.406 . S
C512 H486 0.929 . S
C512 C511 1.406 . S
C512 C513 1.391 . S
C513 H485 0.931 . S
C513 C508 1.370 . S
C513 C512 1.391 . S
C514 N483 1.435 . S
C514 C515 1.358 . S
C514 C519 1.371 . S
C515 H487 0.930 . S
C515 C514 1.358 . S
C515 C516 1.405 . S
C516 H488 0.932 . S
C516 C515 1.405 . S
C516 C517 1.383 . S
C517 C516 1.383 . S
C517 C518 1.393 . S
C518 H490 0.931 . S
C518 C517 1.393 . S
C518 C519 1.382 . S
C519 H489 0.929 . S
C519 C514 1.371 . S
C519 C518 1.382 . S
C520 N483 1.423 . S
C520 C521 1.362 . S
C520 C525 1.388 . S
C521 H491 0.929 . S
C521 C520 1.362 . S
C521 C522 1.376 . S
C522 H493 0.931 . S
C522 C521 1.376 . S
C522 C523 1.396 . S
C523 C522 1.396 . S
C523 C524 1.348 . S
C523 C541 1.472 . S
C524 H494 0.929 . S
C524 C523 1.348 . S
C524 C525 1.443 . S
C525 H492 0.932 . S
C525 C520 1.388 . S
C525 C524 1.443 . S
C526 N506 1.433 . S
C526 C527 1.363 . S
C526 C531 1.370 . S
C527 H495 0.929 . S
C527 C526 1.363 . S
C527 C528 1.385 . S
C528 H496 0.930 . S
C528 C527 1.385 . S
C528 C529 1.357 . S
C529 C528 1.357 . S
C529 C530 1.406 . S
C530 H497 0.929 . S
C530 C529 1.406 . S
C530 C531 1.391 . S
C531 H498 0.931 . S
C531 C526 1.370 . S
C531 C530 1.391 . S
C532 N506 1.435 . S
C532 C533 1.358 . S
C532 C537 1.371 . S
C533 H499 0.930 . S
C533 C532 1.358 . S
C533 C534 1.405 . S
C534 H500 0.932 . S
C534 C533 1.405 . S
C534 C535 1.383 . S
C535 C534 1.383 . S
C535 C536 1.393 . S
C536 H501 0.931 . S
C536 C535 1.393 . S
C536 C537 1.382 . S
C537 H502 0.929 . S
C537 C532 1.371 . S
C537 C536 1.382 . S
C538 N506 1.423 . S
C538 C539 1.362 . S
C538 C543 1.388 . S
C539 H503 0.929 . S
C539 C538 1.362 . S
C539 C540 1.376 . S
C540 H504 0.931 . S
C540 C539 1.376 . S
C540 C541 1.396 . S
C541 C523 1.472 . S
C541 C540 1.396 . S
C541 C542 1.348 . S
C542 H505 0.929 . S
C542 C541 1.348 . S
C542 C543 1.443 . S
C543 H507 0.932 . S
C543 C538 1.388 . S
C543 C542 1.443 . S
H544 C571 0.929 . S
N545 C570 1.433 . S
N545 C576 1.435 . S
N545 C582 1.423 . S
H546 C572 0.930 . S
H547 C575 0.931 . S
H548 C574 0.929 . S
H549 C577 0.930 . S
H550 C578 0.932 . S
H551 C581 0.929 . S
H552 C580 0.931 . S
H553 C583 0.929 . S
H554 C587 0.932 . S
H555 C584 0.931 . S
H556 C586 0.929 . S
H557 C589 0.929 . S
H558 C590 0.930 . S
H559 C592 0.929 . S
H560 C593 0.931 . S
H561 C595 0.930 . S
H562 C596 0.932 . S
H563 C598 0.931 . S
H564 C599 0.929 . S
H565 C601 0.929 . S
H566 C602 0.931 . S
H567 C604 0.929 . S
N568 C588 1.433 . S
N568 C594 1.435 . S
N568 C600 1.423 . S
H569 C605 0.932 . S
C570 N545 1.433 . S
C570 C571 1.363 . S
C570 C575 1.370 . S
C571 H544 0.929 . S
C571 C570 1.363 . S
C571 C572 1.385 . S
C572 H546 0.930 . S
C572 C571 1.385 . S
C572 C573 1.357 . S
C573 C572 1.357 . S
C573 C574 1.406 . S
C574 H548 0.929 . S
C574 C573 1.406 . S
C574 C575 1.391 . S
C575 H547 0.931 . S
C575 C570 1.370 . S
C575 C574 1.391 . S
C576 N545 1.435 . S
C576 C577 1.358 . S
C576 C581 1.371 . S
C577 H549 0.930 . S
C577 C576 1.358 . S
C577 C578 1.405 . S
C578 H550 0.932 . S
C578 C577 1.405 . S
C578 C579 1.383 . S
C579 C578 1.383 . S
C579 C580 1.393 . S
C580 H552 0.931 . S
C580 C579 1.393 . S
C580 C581 1.382 . S
C581 H551 0.929 . S
C581 C576 1.371 . S
C581 C580 1.382 . S
C582 N545 1.423 . S
C582 C583 1.362 . S
C582 C587 1.388 . S
C583 H553 0.929 . S
C583 C582 1.362 . S
C583 C584 1.376 . S
C584 H555 0.931 . S
C584 C583 1.376 . S
C584 C585 1.396 . S
C585 C584 1.396 . S
C585 C586 1.348 . S
C585 C603 1.472 . S
C586 H556 0.929 . S
C586 C585 1.348 . S
C586 C587 1.443 . S
C587 H554 0.932 . S
C587 C582 1.388 . S
C587 C586 1.443 . S
C588 N568 1.433 . S
C588 C589 1.363 . S
C588 C593 1.370 . S
C589 H557 0.929 . S
C589 C588 1.363 . S
C589 C590 1.385 . S
C590 H558 0.930 . S
C590 C589 1.385 . S
C590 C591 1.357 . S
C591 C590 1.357 . S
C591 C592 1.406 . S
C592 H559 0.929 . S
C592 C591 1.406 . S
C592 C593 1.391 . S
C593 H560 0.931 . S
C593 C588 1.370 . S
C593 C592 1.391 . S
C594 N568 1.435 . S
C594 C595 1.358 . S
C594 C599 1.371 . S
C595 H561 0.930 . S
C595 C594 1.358 . S
C595 C596 1.405 . S
C596 H562 0.932 . S
C596 C595 1.405 . S
C596 C597 1.383 . S
C597 C596 1.383 . S
C597 C598 1.393 . S
C598 H563 0.931 . S
C598 C597 1.393 . S
C598 C599 1.382 . S
C599 H564 0.929 . S
C599 C594 1.371 . S
C599 C598 1.382 . S
C600 N568 1.423 . S
C600 C601 1.362 . S
C600 C605 1.388 . S
C601 H565 0.929 . S
C601 C600 1.362 . S
C601 C602 1.376 . S
C602 H566 0.931 . S
C602 C601 1.376 . S
C602 C603 1.396 . S
C603 C585 1.472 . S
C603 C602 1.396 . S
C603 C604 1.348 . S
C604 H567 0.929 . S
C604 C603 1.348 . S
C604 C605 1.443 . S
C605 H569 0.932 . S
C605 C600 1.388 . S
C605 C604 1.443 . S
H606 C633 0.929 . S
N607 C632 1.433 . S
N607 C638 1.435 . S
N607 C644 1.423 . S
H608 C634 0.930 . S
H609 C637 0.931 . S
H610 C636 0.929 . S
H611 C639 0.930 . S
H612 C640 0.932 . S
H613 C643 0.929 . S
H614 C642 0.931 . S
H615 C645 0.929 . S
H616 C649 0.932 . S
H617 C646 0.931 . S
H618 C648 0.929 . S
H619 C651 0.929 . S
H620 C652 0.930 . S
H621 C654 0.929 . S
H622 C655 0.931 . S
H623 C657 0.930 . S
H624 C658 0.932 . S
H625 C660 0.931 . S
H626 C661 0.929 . S
H627 C663 0.929 . S
H628 C664 0.931 . S
H629 C666 0.929 . S
N630 C650 1.433 . S
N630 C656 1.435 . S
N630 C662 1.423 . S
H631 C667 0.932 . S
C632 N607 1.433 . S
C632 C633 1.363 . S
C632 C637 1.370 . S
C633 H606 0.929 . S
C633 C632 1.363 . S
C633 C634 1.385 . S
C634 H608 0.930 . S
C634 C633 1.385 . S
C634 C635 1.357 . S
C635 C634 1.357 . S
C635 C636 1.406 . S
C636 H610 0.929 . S
C636 C635 1.406 . S
C636 C637 1.391 . S
C637 H609 0.931 . S
C637 C632 1.370 . S
C637 C636 1.391 . S
C638 N607 1.435 . S
C638 C639 1.358 . S
C638 C643 1.371 . S
C639 H611 0.930 . S
C639 C638 1.358 . S
C639 C640 1.405 . S
C640 H612 0.932 . S
C640 C639 1.405 . S
C640 C641 1.383 . S
C641 C640 1.383 . S
C641 C642 1.393 . S
C642 H614 0.931 . S
C642 C641 1.393 . S
C642 C643 1.382 . S
C643 H613 0.929 . S
C643 C638 1.371 . S
C643 C642 1.382 . S
C644 N607 1.423 . S
C644 C645 1.362 . S
C644 C649 1.388 . S
C645 H615 0.929 . S
C645 C644 1.362 . S
C645 C646 1.376 . S
C646 H617 0.931 . S
C646 C645 1.376 . S
C646 C647 1.396 . S
C647 C646 1.396 . S
C647 C648 1.348 . S
C647 C665 1.472 . S
C648 H618 0.929 . S
C648 C647 1.348 . S
C648 C649 1.443 . S
C649 H616 0.932 . S
C649 C644 1.388 . S
C649 C648 1.443 . S
C650 N630 1.433 . S
C650 C651 1.363 . S
C650 C655 1.370 . S
C651 H619 0.929 . S
C651 C650 1.363 . S
C651 C652 1.385 . S
C652 H620 0.930 . S
C652 C651 1.385 . S
C652 C653 1.357 . S
C653 C652 1.357 . S
C653 C654 1.406 . S
C654 H621 0.929 . S
C654 C653 1.406 . S
C654 C655 1.391 . S
C655 H622 0.931 . S
C655 C650 1.370 . S
C655 C654 1.391 . S
C656 N630 1.435 . S
C656 C657 1.358 . S
C656 C661 1.371 . S
C657 H623 0.930 . S
C657 C656 1.358 . S
C657 C658 1.405 . S
C658 H624 0.932 . S
C658 C657 1.405 . S
C658 C659 1.383 . S
C659 C658 1.383 . S
C659 C660 1.393 . S
C660 H625 0.931 . S
C660 C659 1.393 . S
C660 C661 1.382 . S
C661 H626 0.929 . S
C661 C656 1.371 . S
C661 C660 1.382 . S
C662 N630 1.423 . S
C662 C663 1.362 . S
C662 C667 1.388 . S
C663 H627 0.929 . S
C663 C662 1.362 . S
C663 C664 1.376 . S
C664 H628 0.931 . S
C664 C663 1.376 . S
C664 C665 1.396 . S
C665 C647 1.472 . S
C665 C664 1.396 . S
C665 C666 1.348 . S
C666 H629 0.929 . S
C666 C665 1.348 . S
C666 C667 1.443 . S
C667 H631 0.932 . S
C667 C662 1.388 . S
C667 C666 1.443 . S
H668 C695 0.929 . S
N669 C694 1.433 . S
N669 C700 1.435 . S
N669 C706 1.423 . S
H670 C696 0.930 . S
H671 C699 0.931 . S
H672 C698 0.929 . S
H673 C701 0.930 . S
H674 C702 0.932 . S
H675 C705 0.929 . S
H676 C704 0.931 . S
H677 C707 0.929 . S
H678 C711 0.932 . S
H679 C708 0.931 . S
H680 C710 0.929 . S
H681 C713 0.929 . S
H682 C714 0.930 . S
H683 C716 0.929 . S
H684 C717 0.931 . S
H685 C719 0.930 . S
H686 C720 0.932 . S
H687 C722 0.931 . S
H688 C723 0.929 . S
H689 C725 0.929 . S
H690 C726 0.931 . S
H691 C728 0.929 . S
N692 C712 1.433 . S
N692 C718 1.435 . S
N692 C724 1.423 . S
H693 C729 0.932 . S
C694 N669 1.433 . S
C694 C695 1.363 . S
C694 C699 1.370 . S
C695 H668 0.929 . S
C695 C694 1.363 . S
C695 C696 1.385 . S
C696 H670 0.930 . S
C696 C695 1.385 . S
C696 C697 1.357 . S
C697 C696 1.357 . S
C697 C698 1.406 . S
C698 H672 0.929 . S
C698 C697 1.406 . S
C698 C699 1.391 . S
C699 H671 0.931 . S
C699 C694 1.370 . S
C699 C698 1.391 . S
C700 N669 1.435 . S
C700 C701 1.358 . S
C700 C705 1.371 . S
C701 H673 0.930 . S
C701 C700 1.358 . S
C701 C702 1.405 . S
C702 H674 0.932 . S
C702 C701 1.405 . S
C702 C703 1.383 . S
C703 C702 1.383 . S
C703 C704 1.393 . S
C704 H676 0.931 . S
C704 C703 1.393 . S
C704 C705 1.382 . S
C705 H675 0.929 . S
C705 C700 1.371 . S
C705 C704 1.382 . S
C706 N669 1.423 . S
C706 C707 1.362 . S
C706 C711 1.388 . S
C707 H677 0.929 . S
C707 C706 1.362 . S
C707 C708 1.376 . S
C708 H679 0.931 . S
C708 C707 1.376 . S
C708 C709 1.396 . S
C709 C708 1.396 . S
C709 C710 1.348 . S
C709 C727 1.472 . S
C710 H680 0.929 . S
C710 C709 1.348 . S
C710 C711 1.443 . S
C711 H678 0.932 . S
C711 C706 1.388 . S
C711 C710 1.443 . S
C712 N692 1.433 . S
C712 C713 1.363 . S
C712 C717 1.370 . S
C713 H681 0.929 . S
C713 C712 1.363 . S
C713 C714 1.385 . S
C714 H682 0.930 . S
C714 C713 1.385 . S
C714 C715 1.357 . S
C715 C714 1.357 . S
C715 C716 1.406 . S
C716 H683 0.929 . S
C716 C715 1.406 . S
C716 C717 1.391 . S
C717 H684 0.931 . S
C717 C712 1.370 . S
C717 C716 1.391 . S
C718 N692 1.435 . S
C718 C719 1.358 . S
C718 C723 1.371 . S
C719 H685 0.930 . S
C719 C718 1.358 . S
C719 C720 1.405 . S
C720 H686 0.932 . S
C720 C719 1.405 . S
C720 C721 1.383 . S
C721 C720 1.383 . S
C721 C722 1.393 . S
C722 H687 0.931 . S
C722 C721 1.393 . S
C722 C723 1.382 . S
C723 H688 0.929 . S
C723 C718 1.371 . S
C723 C722 1.382 . S
C724 N692 1.423 . S
C724 C725 1.362 . S
C724 C729 1.388 . S
C725 H689 0.929 . S
C725 C724 1.362 . S
C725 C726 1.376 . S
C726 H690 0.931 . S
C726 C725 1.376 . S
C726 C727 1.396 . S
C727 C709 1.472 . S
C727 C726 1.396 . S
C727 C728 1.348 . S
C728 H691 0.929 . S
C728 C727 1.348 . S
C728 C729 1.443 . S
C729 H693 0.932 . S
C729 C724 1.388 . S
C729 C728 1.443 . S
H730 C757 0.929 . S
N731 C756 1.433 . S
N731 C762 1.435 . S
N731 C768 1.423 . S
H732 C758 0.930 . S
H733 C761 0.931 . S
H734 C760 0.929 . S
H735 C763 0.930 . S
H736 C764 0.932 . S
H737 C767 0.929 . S
H738 C766 0.931 . S
H739 C769 0.929 . S
H740 C773 0.932 . S
H741 C770 0.931 . S
H742 C772 0.929 . S
H743 C775 0.929 . S
H744 C776 0.930 . S
H745 C778 0.929 . S
H746 C779 0.931 . S
H747 C781 0.930 . S
H748 C782 0.932 . S
H749 C784 0.931 . S
H750 C785 0.929 . S
H751 C787 0.929 . S
H752 C788 0.931 . S
H753 C790 0.929 . S
N754 C774 1.433 . S
N754 C780 1.435 . S
N754 C786 1.423 . S
H755 C791 0.932 . S
C756 N731 1.433 . S
C756 C757 1.363 . S
C756 C761 1.370 . S
C757 H730 0.929 . S
C757 C756 1.363 . S
C757 C758 1.385 . S
C758 H732 0.930 . S
C758 C757 1.385 . S
C758 C759 1.357 . S
C759 C758 1.357 . S
C759 C760 1.406 . S
C760 H734 0.929 . S
C760 C759 1.406 . S
C760 C761 1.391 . S
C761 H733 0.931 . S
C761 C756 1.370 . S
C761 C760 1.391 . S
C762 N731 1.435 . S
C762 C763 1.358 . S
C762 C767 1.371 . S
C763 H735 0.930 . S
C763 C762 1.358 . S
C763 C764 1.405 . S
C764 H736 0.932 . S
C764 C763 1.405 . S
C764 C765 1.383 . S
C765 C764 1.383 . S
C765 C766 1.393 . S
C766 H738 0.931 . S
C766 C765 1.393 . S
C766 C767 1.382 . S
C767 H737 0.929 . S
C767 C762 1.371 . S
C767 C766 1.382 . S
C768 N731 1.423 . S
C768 C769 1.362 . S
C768 C773 1.388 . S
C769 H739 0.929 . S
C769 C768 1.362 . S
C769 C770 1.376 . S
C770 H741 0.931 . S
C770 C769 1.376 . S
C770 C771 1.396 . S
C771 C770 1.396 . S
C771 C772 1.348 . S
C771 C789 1.472 . S
C772 H742 0.929 . S
C772 C771 1.348 . S
C772 C773 1.443 . S
C773 H740 0.932 . S
C773 C768 1.388 . S
C773 C772 1.443 . S
C774 N754 1.433 . S
C774 C775 1.363 . S
C774 C779 1.370 . S
C775 H743 0.929 . S
C775 C774 1.363 . S
C775 C776 1.385 . S
C776 H744 0.930 . S
C776 C775 1.385 . S
C776 C777 1.357 . S
C777 C776 1.357 . S
C777 C778 1.406 . S
C778 H745 0.929 . S
C778 C777 1.406 . S
C778 C779 1.391 . S
C779 H746 0.931 . S
C779 C774 1.370 . S
C779 C778 1.391 . S
C780 N754 1.435 . S
C780 C781 1.358 . S
C780 C785 1.371 . S
C781 H747 0.930 . S
C781 C780 1.358 . S
C781 C782 1.405 . S
C782 H748 0.932 . S
C782 C781 1.405 . S
C782 C783 1.383 . S
C783 C782 1.383 . S
C783 C784 1.393 . S
C784 H749 0.931 . S
C784 C783 1.393 . S
C784 C785 1.382 . S
C785 H750 0.929 . S
C785 C780 1.371 . S
C785 C784 1.382 . S
C786 N754 1.423 . S
C786 C787 1.362 . S
C786 C791 1.388 . S
C787 H751 0.929 . S
C787 C786 1.362 . S
C787 C788 1.376 . S
C788 H752 0.931 . S
C788 C787 1.376 . S
C788 C789 1.396 . S
C789 C771 1.472 . S
C789 C788 1.396 . S
C789 C790 1.348 . S
C790 H753 0.929 . S
C790 C789 1.348 . S
C790 C791 1.443 . S
C791 H755 0.932 . S
C791 C786 1.388 . S
C791 C790 1.443 . S
H792 C819 0.929 . S
N793 C818 1.433 . S
N793 C824 1.435 . S
N793 C830 1.423 . S
H794 C820 0.930 . S
H795 C823 0.931 . S
H796 C822 0.929 . S
H797 C825 0.930 . S
H798 C826 0.932 . S
H799 C829 0.929 . S
H800 C828 0.931 . S
H801 C831 0.929 . S
H802 C835 0.932 . S
H803 C832 0.931 . S
H804 C834 0.929 . S
H805 C837 0.929 . S
H806 C838 0.930 . S
H807 C840 0.929 . S
H808 C841 0.931 . S
H809 C843 0.930 . S
H810 C844 0.932 . S
H811 C846 0.931 . S
H812 C847 0.929 . S
H813 C849 0.929 . S
H814 C850 0.931 . S
H815 C852 0.929 . S
N816 C836 1.433 . S
N816 C842 1.435 . S
N816 C848 1.423 . S
H817 C853 0.932 . S
C818 N793 1.433 . S
C818 C819 1.363 . S
C818 C823 1.370 . S
C819 H792 0.929 . S
C819 C818 1.363 . S
C819 C820 1.385 . S
C820 H794 0.930 . S
C820 C819 1.385 . S
C820 C821 1.357 . S
C821 C820 1.357 . S
C821 C822 1.406 . S
C822 H796 0.929 . S
C822 C821 1.406 . S
C822 C823 1.391 . S
C823 H795 0.931 . S
C823 C818 1.370 . S
C823 C822 1.391 . S
C824 N793 1.435 . S
C824 C825 1.358 . S
C824 C829 1.371 . S
C825 H797 0.930 . S
C825 C824 1.358 . S
C825 C826 1.405 . S
C826 H798 0.932 . S
C826 C825 1.405 . S
C826 C827 1.383 . S
C827 C826 1.383 . S
C827 C828 1.393 . S
C828 H800 0.931 . S
C828 C827 1.393 . S
C828 C829 1.382 . S
C829 H799 0.929 . S
C829 C824 1.371 . S
C829 C828 1.382 . S
C830 N793 1.423 . S
C830 C831 1.362 . S
C830 C835 1.388 . S
C831 H801 0.929 . S
C831 C830 1.362 . S
C831 C832 1.376 . S
C832 H803 0.931 . S
C832 C831 1.376 . S
C832 C833 1.396 . S
C833 C832 1.396 . S
C833 C834 1.348 . S
C833 C851 1.472 . S
C834 H804 0.929 . S
C834 C833 1.348 . S
C834 C835 1.443 . S
C835 H802 0.932 . S
C835 C830 1.388 . S
C835 C834 1.443 . S
C836 N816 1.433 . S
C836 C837 1.363 . S
C836 C841 1.370 . S
C837 H805 0.929 . S
C837 C836 1.363 . S
C837 C838 1.385 . S
C838 H806 0.930 . S
C838 C837 1.385 . S
C838 C839 1.357 . S
C839 C838 1.357 . S
C839 C840 1.406 . S
C840 H807 0.929 . S
C840 C839 1.406 . S
C840 C841 1.391 . S
C841 H808 0.931 . S
C841 C836 1.370 . S
C841 C840 1.391 . S
C842 N816 1.435 . S
C842 C843 1.358 . S
C842 C847 1.371 . S
C843 H809 0.930 . S
C843 C842 1.358 . S
C843 C844 1.405 . S
C844 H810 0.932 . S
C844 C843 1.405 . S
C844 C845 1.383 . S
C845 C844 1.383 . S
C845 C846 1.393 . S
C846 H811 0.931 . S
C846 C845 1.393 . S
C846 C847 1.382 . S
C847 H812 0.929 . S
C847 C842 1.371 . S
C847 C846 1.382 . S
C848 N816 1.423 . S
C848 C849 1.362 . S
C848 C853 1.388 . S
C849 H813 0.929 . S
C849 C848 1.362 . S
C849 C850 1.376 . S
C850 H814 0.931 . S
C850 C849 1.376 . S
C850 C851 1.396 . S
C851 C833 1.472 . S
C851 C850 1.396 . S
C851 C852 1.348 . S
C852 H815 0.929 . S
C852 C851 1.348 . S
C852 C853 1.443 . S
C853 H817 0.932 . S
C853 C848 1.388 . S
C853 C852 1.443 . S
H854 C881 0.929 . S
N855 C880 1.433 . S
N855 C886 1.435 . S
N855 C892 1.423 . S
H856 C882 0.930 . S
H857 C885 0.931 . S
H858 C884 0.929 . S
H859 C887 0.930 . S
H860 C888 0.932 . S
H861 C891 0.929 . S
H862 C890 0.931 . S
H863 C893 0.929 . S
H864 C897 0.932 . S
H865 C894 0.931 . S
H866 C896 0.929 . S
H867 C899 0.929 . S
H868 C900 0.930 . S
H869 C902 0.929 . S
H870 C903 0.931 . S
H871 C905 0.930 . S
H872 C906 0.932 . S
H873 C908 0.931 . S
H874 C909 0.929 . S
H875 C911 0.929 . S
H876 C912 0.931 . S
H877 C914 0.929 . S
N878 C898 1.433 . S
N878 C904 1.435 . S
N878 C910 1.423 . S
H879 C915 0.932 . S
C880 N855 1.433 . S
C880 C881 1.363 . S
C880 C885 1.370 . S
C881 H854 0.929 . S
C881 C880 1.363 . S
C881 C882 1.385 . S
C882 H856 0.930 . S
C882 C881 1.385 . S
C882 C883 1.357 . S
C883 C882 1.357 . S
C883 C884 1.406 . S
C884 H858 0.929 . S
C884 C883 1.406 . S
C884 C885 1.391 . S
C885 H857 0.931 . S
C885 C880 1.370 . S
C885 C884 1.391 . S
C886 N855 1.435 . S
C886 C887 1.358 . S
C886 C891 1.371 . S
C887 H859 0.930 . S
C887 C886 1.358 . S
C887 C888 1.405 . S
C888 H860 0.932 . S
C888 C887 1.405 . S
C888 C889 1.383 . S
C889 C888 1.383 . S
C889 C890 1.393 . S
C890 H862 0.931 . S
C890 C889 1.393 . S
C890 C891 1.382 . S
C891 H861 0.929 . S
C891 C886 1.371 . S
C891 C890 1.382 . S
C892 N855 1.423 . S
C892 C893 1.362 . S
C892 C897 1.388 . S
C893 H863 0.929 . S
C893 C892 1.362 . S
C893 C894 1.376 . S
C894 H865 0.931 . S
C894 C893 1.376 . S
C894 C895 1.396 . S
C895 C894 1.396 . S
C895 C896 1.348 . S
C895 C913 1.472 . S
C896 H866 0.929 . S
C896 C895 1.348 . S
C896 C897 1.443 . S
C897 H864 0.932 . S
C897 C892 1.388 . S
C897 C896 1.443 . S
C898 N878 1.433 . S
C898 C899 1.363 . S
C898 C903 1.370 . S
C899 H867 0.929 . S
C899 C898 1.363 . S
C899 C900 1.385 . S
C900 H868 0.930 . S
C900 C899 1.385 . S
C900 C901 1.357 . S
C901 C900 1.357 . S
C901 C902 1.406 . S
C902 H869 0.929 . S
C902 C901 1.406 . S
C902 C903 1.391 . S
C903 H870 0.931 . S
C903 C898 1.370 . S
C903 C902 1.391 . S
C904 N878 1.435 . S
C904 C905 1.358 . S
C904 C909 1.371 . S
C905 H871 0.930 . S
C905 C904 1.358 . S
C905 C906 1.405 . S
C906 H872 0.932 . S
C906 C905 1.405 . S
C906 C907 1.383 . S
C907 C906 1.383 . S
C907 C908 1.393 . S
C908 H873 0.931 . S
C908 C907 1.393 . S
C908 C909 1.382 . S
C909 H874 0.929 . S
C909 C904 1.371 . S
C909 C908 1.382 . S
C910 N878 1.423 . S
C910 C911 1.362 . S
C910 C915 1.388 . S
C911 H875 0.929 . S
C911 C910 1.362 . S
C911 C912 1.376 . S
C912 H876 0.931 . S
C912 C911 1.376 . S
C912 C913 1.396 . S
C913 C895 1.472 . S
C913 C912 1.396 . S
C913 C914 1.348 . S
C914 H877 0.929 . S
C914 C913 1.348 . S
C914 C915 1.443 . S
C915 H879 0.932 . S
C915 C910 1.388 . S
C915 C914 1.443 . S
H916 C943 0.929 . S
N917 C942 1.433 . S
N917 C948 1.435 . S
N917 C954 1.423 . S
H918 C944 0.930 . S
H919 C947 0.931 . S
H920 C946 0.929 . S
H921 C949 0.930 . S
H922 C950 0.932 . S
H923 C953 0.929 . S
H924 C952 0.931 . S
H925 C955 0.929 . S
H926 C959 0.932 1_545 S
H927 C956 0.931 . S
H928 C958 0.975 . S
H929 C961 0.929 . S
H930 C962 0.930 . S
H931 C964 0.929 . S
H932 C965 0.931 . S
H933 C967 0.930 . S
H934 C968 0.932 . S
H935 C970 0.931 . S
H936 C971 0.929 . S
H937 C973 0.929 . S
H938 C974 0.931 . S
H939 C976 0.939 . S
N940 C960 1.433 . S
N940 C966 1.435 . S
N940 C972 1.423 . S
H941 C977 0.932 1_545 S
C942 N917 1.433 . S
C942 C943 1.363 . S
C942 C947 1.370 1_565 S
C943 H916 0.929 . S
C943 C942 1.363 . S
C943 C944 1.385 . S
C944 H918 0.930 . S
C944 C943 1.385 . S
C944 C945 1.357 1_565 S
C945 C944 1.357 1_545 S
C945 C946 1.406 . S
C946 H920 0.929 . S
C946 C945 1.406 . S
C946 C947 1.391 . S
C947 H919 0.931 . S
C947 C942 1.370 1_545 S
C947 C946 1.391 . S
C948 N917 1.435 . S
C948 C949 1.358 1_565 S
C948 C953 1.371 . S
C949 H921 0.930 . S
C949 C948 1.358 1_545 S
C949 C950 1.405 . S
C950 H922 0.932 . S
C950 C949 1.405 . S
C950 C951 1.383 1_545 S
C951 C950 1.383 1_565 S
C951 C952 1.393 . S
C952 H924 0.931 . S
C952 C951 1.393 . S
C952 C953 1.382 . S
C953 H923 0.929 . S
C953 C948 1.371 . S
C953 C952 1.382 . S
C954 N917 1.423 . S
C954 C955 1.362 . S
C954 C959 1.388 . S
C955 H925 0.929 . S
C955 C954 1.362 . S
C955 C956 1.376 . S
C956 H927 0.931 . S
C956 C955 1.376 . S
C956 C957 1.396 . S
C957 C956 1.396 . S
C957 C958 1.348 . S
C957 C975 1.472 . S
C958 H928 0.975 . S
C958 C957 1.348 . S
C958 C959 1.443 . S
C959 H926 0.932 1_565 S
C959 C954 1.388 . S
C959 C958 1.443 . S
C960 N940 1.433 . S
C960 C961 1.363 . S
C960 C965 1.370 1_565 S
C961 H929 0.929 . S
C961 C960 1.363 . S
C961 C962 1.385 . S
C962 H930 0.930 . S
C962 C961 1.385 . S
C962 C963 1.357 1_565 S
C963 C962 1.357 1_545 S
C963 C964 1.406 . S
C964 H931 0.929 . S
C964 C963 1.406 . S
C964 C965 1.391 . S
C965 H932 0.931 . S
C965 C960 1.370 1_545 S
C965 C964 1.391 . S
C966 N940 1.435 . S
C966 C967 1.358 1_565 S
C966 C971 1.371 . S
C967 H933 0.930 . S
C967 C966 1.358 1_545 S
C967 C968 1.405 . S
C968 H934 0.932 . S
C968 C967 1.405 . S
C968 C969 1.383 1_545 S
C969 C968 1.383 1_565 S
C969 C970 1.393 . S
C970 H935 0.931 . S
C970 C969 1.393 . S
C970 C971 1.382 . S
C971 H936 0.929 . S
C971 C966 1.371 . S
C971 C970 1.382 . S
C972 N940 1.423 . S
C972 C973 1.362 . S
C972 C977 1.388 . S
C973 H937 0.929 . S
C973 C972 1.362 . S
C973 C974 1.376 . S
C974 H938 0.931 . S
C974 C973 1.376 . S
C974 C975 1.396 . S
C975 C957 1.472 . S
C975 C974 1.396 . S
C975 C976 1.348 . S
C976 H939 0.939 . S
C976 C975 1.348 . S
C976 C977 1.443 . S
C977 H941 0.932 1_565 S
C977 C972 1.388 . S
C977 C976 1.443 . S
H978 C1005 0.929 . S
N979 C1004 1.433 . S
N979 C1010 1.435 . S
N979 C1016 1.423 . S
H980 C1006 0.930 . S
H981 C1009 0.931 . S
H982 C1008 0.929 . S
H983 C1011 0.930 . S
H984 C1012 0.932 . S
H985 C1015 0.929 . S
H986 C1014 0.931 . S
H987 C1017 0.913 1_565 S
H988 C1021 0.932 . S
H989 C1018 0.931 1_565 S
H990 C1020 0.929 . S
H991 C1023 0.929 . S
H992 C1024 0.930 . S
H993 C1026 0.929 . S
H994 C1027 0.931 . S
H995 C1029 0.930 . S
H996 C1030 0.932 . S
H997 C1032 0.931 . S
H998 C1033 0.929 . S
H999 C1035 0.872 1_565 S
H1000 C1036 0.931 1_565 S
H1001 C1038 0.929 . S
N1002 C1022 1.433 . S
N1002 C1028 1.435 . S
N1002 C1034 1.423 . S
H1003 C1039 0.932 . S
C1004 N979 1.433 . S
C1004 C1005 1.363 . S
C1004 C1009 1.370 . S
C1005 H978 0.929 . S
C1005 C1004 1.363 . S
C1005 C1006 1.385 . S
C1006 H980 0.930 . S
C1006 C1005 1.385 . S
C1006 C1007 1.357 . S
C1007 C1006 1.357 . S
C1007 C1008 1.406 . S
C1008 H982 0.929 . S
C1008 C1007 1.406 . S
C1008 C1009 1.391 . S
C1009 H981 0.931 . S
C1009 C1004 1.370 . S
C1009 C1008 1.391 . S
C1010 N979 1.435 . S
C1010 C1011 1.358 . S
C1010 C1015 1.371 . S
C1011 H983 0.930 . S
C1011 C1010 1.358 . S
C1011 C1012 1.405 . S
C1012 H984 0.932 . S
C1012 C1011 1.405 . S
C1012 C1013 1.383 . S
C1013 C1012 1.383 . S
C1013 C1014 1.393 . S
C1014 H986 0.931 . S
C1014 C1013 1.393 . S
C1014 C1015 1.382 . S
C1015 H985 0.929 . S
C1015 C1010 1.371 . S
C1015 C1014 1.382 . S
C1016 N979 1.423 . S
C1016 C1017 1.362 . S
C1016 C1021 1.388 . S
C1017 H987 0.913 1_545 S
C1017 C1016 1.362 . S
C1017 C1018 1.376 . S
C1018 H989 0.931 1_545 S
C1018 C1017 1.376 . S
C1018 C1019 1.396 . S
C1019 C1018 1.396 . S
C1019 C1020 1.348 . S
C1019 C1037 1.472 . S
C1020 H990 0.929 . S
C1020 C1019 1.348 . S
C1020 C1021 1.443 . S
C1021 H988 0.932 . S
C1021 C1016 1.388 . S
C1021 C1020 1.443 . S
C1022 N1002 1.433 . S
C1022 C1023 1.363 . S
C1022 C1027 1.370 . S
C1023 H991 0.929 . S
C1023 C1022 1.363 . S
C1023 C1024 1.385 . S
C1024 H992 0.930 . S
C1024 C1023 1.385 . S
C1024 C1025 1.357 . S
C1025 C1024 1.357 . S
C1025 C1026 1.406 . S
C1026 H993 0.929 . S
C1026 C1025 1.406 . S
C1026 C1027 1.391 . S
C1027 H994 0.931 . S
C1027 C1022 1.370 . S
C1027 C1026 1.391 . S
C1028 N1002 1.435 . S
C1028 C1029 1.358 . S
C1028 C1033 1.371 . S
C1029 H995 0.930 . S
C1029 C1028 1.358 . S
C1029 C1030 1.405 . S
C1030 H996 0.932 . S
C1030 C1029 1.405 . S
C1030 C1031 1.383 . S
C1031 C1030 1.383 . S
C1031 C1032 1.393 . S
C1032 H997 0.931 . S
C1032 C1031 1.393 . S
C1032 C1033 1.382 . S
C1033 H998 0.929 . S
C1033 C1028 1.371 . S
C1033 C1032 1.382 . S
C1034 N1002 1.423 . S
C1034 C1035 1.362 . S
C1034 C1039 1.388 . S
C1035 H999 0.872 1_545 S
C1035 C1034 1.362 . S
C1035 C1036 1.376 . S
C1036 H1000 0.931 1_545 S
C1036 C1035 1.376 . S
C1036 C1037 1.396 . S
C1037 C1019 1.472 . S
C1037 C1036 1.396 . S
C1037 C1038 1.348 . S
C1038 H1001 0.929 . S
C1038 C1037 1.348 . S
C1038 C1039 1.443 . S
C1039 H1003 0.932 . S
C1039 C1034 1.388 . S
C1039 C1038 1.443 . S
H1040 C1067 0.929 . S
N1041 C1066 1.433 . S
N1041 C1072 1.435 . S
N1041 C1078 1.423 . S
H1042 C1068 0.930 . S
H1043 C1071 0.931 . S
H1044 C1070 0.929 . S
H1045 C1073 0.930 . S
H1046 C1074 0.932 . S
H1047 C1077 0.929 . S
H1048 C1076 0.931 . S
H1049 C1079 0.929 . S
H1050 C1083 0.932 1_455 S
H1051 C1080 0.931 . S
H1052 C1082 0.975 . S
H1053 C1085 0.929 . S
H1054 C1086 0.930 . S
H1055 C1088 0.929 . S
H1056 C1089 0.931 . S
H1057 C1091 0.930 . S
H1058 C1092 0.932 . S
H1059 C1094 0.931 . S
H1060 C1095 0.929 . S
H1061 C1097 0.929 . S
H1062 C1098 0.931 . S
H1063 C1100 0.939 . S
N1064 C1084 1.433 . S
N1064 C1090 1.435 . S
N1064 C1096 1.423 . S
H1065 C1101 0.932 1_455 S
C1066 N1041 1.433 . S
C1066 C1067 1.363 . S
C1066 C1071 1.370 1_655 S
C1067 H1040 0.929 . S
C1067 C1066 1.363 . S
C1067 C1068 1.385 . S
C1068 H1042 0.930 . S
C1068 C1067 1.385 . S
C1068 C1069 1.357 1_655 S
C1069 C1068 1.357 1_455 S
C1069 C1070 1.406 . S
C1070 H1044 0.929 . S
C1070 C1069 1.406 . S
C1070 C1071 1.391 . S
C1071 H1043 0.931 . S
C1071 C1066 1.370 1_455 S
C1071 C1070 1.391 . S
C1072 N1041 1.435 . S
C1072 C1073 1.358 1_655 S
C1072 C1077 1.371 . S
C1073 H1045 0.930 . S
C1073 C1072 1.358 1_455 S
C1073 C1074 1.405 . S
C1074 H1046 0.932 . S
C1074 C1073 1.405 . S
C1074 C1075 1.383 1_455 S
C1075 C1074 1.383 1_655 S
C1075 C1076 1.393 . S
C1076 H1048 0.931 . S
C1076 C1075 1.393 . S
C1076 C1077 1.382 . S
C1077 H1047 0.929 . S
C1077 C1072 1.371 . S
C1077 C1076 1.382 . S
C1078 N1041 1.423 . S
C1078 C1079 1.362 . S
C1078 C1083 1.388 . S
C1079 H1049 0.929 . S
C1079 C1078 1.362 . S
C1079 C1080 1.376 . S
C1080 H1051 0.931 . S
C1080 C1079 1.376 . S
C1080 C1081 1.396 . S
C1081 C1080 1.396 . S
C1081 C1082 1.348 . S
C1081 C1099 1.472 . S
C1082 H1052 0.975 . S
C1082 C1081 1.348 . S
C1082 C1083 1.443 . S
C1083 H1050 0.932 1_655 S
C1083 C1078 1.388 . S
C1083 C1082 1.443 . S
C1084 N1064 1.433 . S
C1084 C1085 1.363 . S
C1084 C1089 1.370 1_655 S
C1085 H1053 0.929 . S
C1085 C1084 1.363 . S
C1085 C1086 1.385 . S
C1086 H1054 0.930 . S
C1086 C1085 1.385 . S
C1086 C1087 1.357 1_655 S
C1087 C1086 1.357 1_455 S
C1087 C1088 1.406 . S
C1088 H1055 0.929 . S
C1088 C1087 1.406 . S
C1088 C1089 1.391 . S
C1089 H1056 0.931 . S
C1089 C1084 1.370 1_455 S
C1089 C1088 1.391 . S
C1090 N1064 1.435 . S
C1090 C1091 1.358 1_655 S
C1090 C1095 1.371 . S
C1091 H1057 0.930 . S
C1091 C1090 1.358 1_455 S
C1091 C1092 1.405 . S
C1092 H1058 0.932 . S
C1092 C1091 1.405 . S
C1092 C1093 1.383 1_455 S
C1093 C1092 1.383 1_655 S
C1093 C1094 1.393 . S
C1094 H1059 0.931 . S
C1094 C1093 1.393 . S
C1094 C1095 1.382 . S
C1095 H1060 0.929 . S
C1095 C1090 1.371 . S
C1095 C1094 1.382 . S
C1096 N1064 1.423 . S
C1096 C1097 1.362 . S
C1096 C1101 1.388 . S
C1097 H1061 0.929 . S
C1097 C1096 1.362 . S
C1097 C1098 1.376 . S
C1098 H1062 0.931 . S
C1098 C1097 1.376 . S
C1098 C1099 1.396 . S
C1099 C1081 1.472 . S
C1099 C1098 1.396 . S
C1099 C1100 1.348 . S
C1100 H1063 0.939 . S
C1100 C1099 1.348 . S
C1100 C1101 1.443 . S
C1101 H1065 0.932 1_655 S
C1101 C1096 1.388 . S
C1101 C1100 1.443 . S
H1102 C1129 0.929 . S
N1103 C1128 1.433 . S
N1103 C1134 1.435 . S
N1103 C1140 1.423 . S
H1104 C1130 0.930 . S
H1105 C1133 0.931 . S
H1106 C1132 0.929 . S
H1107 C1135 0.930 . S
H1108 C1136 0.932 . S
H1109 C1139 0.929 . S
H1110 C1138 0.931 . S
H1111 C1141 0.929 . S
H1112 C1145 0.932 . S
H1113 C1142 0.931 . S
H1114 C1144 0.929 . S
H1115 C1147 0.929 . S
H1116 C1148 0.930 . S
H1117 C1150 0.929 . S
H1118 C1151 0.931 . S
H1119 C1153 0.930 . S
H1120 C1154 0.932 . S
H1121 C1156 0.931 . S
H1122 C1157 0.929 . S
H1123 C1159 0.929 . S
H1124 C1160 0.931 . S
H1125 C1162 0.929 . S
N1126 C1146 1.433 . S
N1126 C1152 1.435 . S
N1126 C1158 1.423 . S
H1127 C1163 0.932 . S
C1128 N1103 1.433 . S
C1128 C1129 1.363 . S
C1128 C1133 1.370 . S
C1129 H1102 0.929 . S
C1129 C1128 1.363 . S
C1129 C1130 1.385 . S
C1130 H1104 0.930 . S
C1130 C1129 1.385 . S
C1130 C1131 1.357 . S
C1131 C1130 1.357 . S
C1131 C1132 1.406 . S
C1132 H1106 0.929 . S
C1132 C1131 1.406 . S
C1132 C1133 1.391 . S
C1133 H1105 0.931 . S
C1133 C1128 1.370 . S
C1133 C1132 1.391 . S
C1134 N1103 1.435 . S
C1134 C1135 1.358 . S
C1134 C1139 1.371 . S
C1135 H1107 0.930 . S
C1135 C1134 1.358 . S
C1135 C1136 1.405 . S
C1136 H1108 0.932 . S
C1136 C1135 1.405 . S
C1136 C1137 1.383 . S
C1137 C1136 1.383 . S
C1137 C1138 1.393 . S
C1138 H1110 0.931 . S
C1138 C1137 1.393 . S
C1138 C1139 1.382 . S
C1139 H1109 0.929 . S
C1139 C1134 1.371 . S
C1139 C1138 1.382 . S
C1140 N1103 1.423 . S
C1140 C1141 1.362 . S
C1140 C1145 1.388 . S
C1141 H1111 0.929 . S
C1141 C1140 1.362 . S
C1141 C1142 1.376 . S
C1142 H1113 0.931 . S
C1142 C1141 1.376 . S
C1142 C1143 1.396 . S
C1143 C1142 1.396 . S
C1143 C1144 1.348 . S
C1143 C1161 1.472 . S
C1144 H1114 0.929 . S
C1144 C1143 1.348 . S
C1144 C1145 1.443 . S
C1145 H1112 0.932 . S
C1145 C1140 1.388 . S
C1145 C1144 1.443 . S
C1146 N1126 1.433 . S
C1146 C1147 1.363 . S
C1146 C1151 1.370 . S
C1147 H1115 0.929 . S
C1147 C1146 1.363 . S
C1147 C1148 1.385 . S
C1148 H1116 0.930 . S
C1148 C1147 1.385 . S
C1148 C1149 1.357 . S
C1149 C1148 1.357 . S
C1149 C1150 1.406 . S
C1150 H1117 0.929 . S
C1150 C1149 1.406 . S
C1150 C1151 1.391 . S
C1151 H1118 0.931 . S
C1151 C1146 1.370 . S
C1151 C1150 1.391 . S
C1152 N1126 1.435 . S
C1152 C1153 1.358 . S
C1152 C1157 1.371 . S
C1153 H1119 0.930 . S
C1153 C1152 1.358 . S
C1153 C1154 1.405 . S
C1154 H1120 0.932 . S
C1154 C1153 1.405 . S
C1154 C1155 1.383 . S
C1155 C1154 1.383 . S
C1155 C1156 1.393 . S
C1156 H1121 0.931 . S
C1156 C1155 1.393 . S
C1156 C1157 1.382 . S
C1157 H1122 0.929 . S
C1157 C1152 1.371 . S
C1157 C1156 1.382 . S
C1158 N1126 1.423 . S
C1158 C1159 1.362 . S
C1158 C1163 1.388 . S
C1159 H1123 0.929 . S
C1159 C1158 1.362 . S
C1159 C1160 1.376 . S
C1160 H1124 0.931 . S
C1160 C1159 1.376 . S
C1160 C1161 1.396 . S
C1161 C1143 1.472 . S
C1161 C1160 1.396 . S
C1161 C1162 1.348 . S
C1162 H1125 0.929 . S
C1162 C1161 1.348 . S
C1162 C1163 1.443 . S
C1163 H1127 0.932 . S
C1163 C1158 1.388 . S
C1163 C1162 1.443 . S
H1164 C1191 0.929 . S
N1165 C1190 1.433 . S
N1165 C1196 1.435 . S
N1165 C1202 1.423 . S
H1166 C1192 0.930 . S
H1167 C1195 0.931 . S
H1168 C1194 0.929 . S
H1169 C1197 0.930 . S
H1170 C1198 0.932 . S
H1171 C1201 0.929 . S
H1172 C1200 0.931 . S
H1173 C1203 0.929 . S
H1174 C1207 0.932 . S
H1175 C1204 0.931 . S
H1176 C1206 0.929 . S
H1177 C1209 0.929 . S
H1178 C1210 0.930 . S
H1179 C1212 0.929 . S
H1180 C1213 0.931 . S
H1181 C1215 0.930 . S
H1182 C1216 0.932 . S
H1183 C1218 0.931 . S
H1184 C1219 0.929 . S
H1185 C1221 0.929 . S
H1186 C1222 0.931 . S
H1187 C1224 0.929 . S
N1188 C1208 1.433 . S
N1188 C1214 1.435 . S
N1188 C1220 1.423 . S
H1189 C1225 0.932 . S
C1190 N1165 1.433 . S
C1190 C1191 1.363 . S
C1190 C1195 1.370 . S
C1191 H1164 0.929 . S
C1191 C1190 1.363 . S
C1191 C1192 1.385 . S
C1192 H1166 0.930 . S
C1192 C1191 1.385 . S
C1192 C1193 1.357 . S
C1193 C1192 1.357 . S
C1193 C1194 1.406 . S
C1194 H1168 0.929 . S
C1194 C1193 1.406 . S
C1194 C1195 1.391 . S
C1195 H1167 0.931 . S
C1195 C1190 1.370 . S
C1195 C1194 1.391 . S
C1196 N1165 1.435 . S
C1196 C1197 1.358 . S
C1196 C1201 1.371 . S
C1197 H1169 0.930 . S
C1197 C1196 1.358 . S
C1197 C1198 1.405 . S
C1198 H1170 0.932 . S
C1198 C1197 1.405 . S
C1198 C1199 1.383 . S
C1199 C1198 1.383 . S
C1199 C1200 1.393 . S
C1200 H1172 0.931 . S
C1200 C1199 1.393 . S
C1200 C1201 1.382 . S
C1201 H1171 0.929 . S
C1201 C1196 1.371 . S
C1201 C1200 1.382 . S
C1202 N1165 1.423 . S
C1202 C1203 1.362 . S
C1202 C1207 1.388 . S
C1203 H1173 0.929 . S
C1203 C1202 1.362 . S
C1203 C1204 1.376 . S
C1204 H1175 0.931 . S
C1204 C1203 1.376 . S
C1204 C1205 1.396 . S
C1205 C1204 1.396 . S
C1205 C1206 1.348 . S
C1205 C1223 1.472 . S
C1206 H1176 0.929 . S
C1206 C1205 1.348 . S
C1206 C1207 1.443 . S
C1207 H1174 0.932 . S
C1207 C1202 1.388 . S
C1207 C1206 1.443 . S
C1208 N1188 1.433 . S
C1208 C1209 1.363 . S
C1208 C1213 1.370 . S
C1209 H1177 0.929 . S
C1209 C1208 1.363 . S
C1209 C1210 1.385 . S
C1210 H1178 0.930 . S
C1210 C1209 1.385 . S
C1210 C1211 1.357 . S
C1211 C1210 1.357 . S
C1211 C1212 1.406 . S
C1212 H1179 0.929 . S
C1212 C1211 1.406 . S
C1212 C1213 1.391 . S
C1213 H1180 0.931 . S
C1213 C1208 1.370 . S
C1213 C1212 1.391 . S
C1214 N1188 1.435 . S
C1214 C1215 1.358 . S
C1214 C1219 1.371 . S
C1215 H1181 0.930 . S
C1215 C1214 1.358 . S
C1215 C1216 1.405 . S
C1216 H1182 0.932 . S
C1216 C1215 1.405 . S
C1216 C1217 1.383 . S
C1217 C1216 1.383 . S
C1217 C1218 1.393 . S
C1218 H1183 0.931 . S
C1218 C1217 1.393 . S
C1218 C1219 1.382 . S
C1219 H1184 0.929 . S
C1219 C1214 1.371 . S
C1219 C1218 1.382 . S
C1220 N1188 1.423 . S
C1220 C1221 1.362 . S
C1220 C1225 1.388 . S
C1221 H1185 0.929 . S
C1221 C1220 1.362 . S
C1221 C1222 1.376 . S
C1222 H1186 0.931 . S
C1222 C1221 1.376 . S
C1222 C1223 1.396 . S
C1223 C1205 1.472 . S
C1223 C1222 1.396 . S
C1223 C1224 1.348 . S
C1224 H1187 0.929 . S
C1224 C1223 1.348 . S
C1224 C1225 1.443 . S
C1225 H1189 0.932 . S
C1225 C1220 1.388 . S
C1225 C1224 1.443 . S
H1226 C1253 0.929 . S
N1227 C1252 1.433 . S
N1227 C1258 1.435 . S
N1227 C1264 1.423 . S
H1228 C1254 0.930 . S
H1229 C1257 0.931 . S
H1230 C1256 0.929 . S
H1231 C1259 0.930 . S
H1232 C1260 0.932 . S
H1233 C1263 0.929 . S
H1234 C1262 0.931 . S
H1235 C1265 0.929 . S
H1236 C1269 0.932 . S
H1237 C1266 0.931 . S
H1238 C1268 0.929 . S
H1239 C1271 0.929 . S
H1240 C1272 0.930 . S
H1241 C1274 0.929 . S
H1242 C1275 0.931 . S
H1243 C1277 0.930 . S
H1244 C1278 0.932 . S
H1245 C1280 0.931 . S
H1246 C1281 0.929 . S
H1247 C1283 0.929 . S
H1248 C1284 0.931 . S
H1249 C1286 0.929 . S
N1250 C1270 1.433 . S
N1250 C1276 1.435 . S
N1250 C1282 1.423 . S
H1251 C1287 0.932 . S
C1252 N1227 1.433 . S
C1252 C1253 1.363 . S
C1252 C1257 1.370 . S
C1253 H1226 0.929 . S
C1253 C1252 1.363 . S
C1253 C1254 1.385 . S
C1254 H1228 0.930 . S
C1254 C1253 1.385 . S
C1254 C1255 1.357 . S
C1255 C1254 1.357 . S
C1255 C1256 1.406 . S
C1256 H1230 0.929 . S
C1256 C1255 1.406 . S
C1256 C1257 1.391 . S
C1257 H1229 0.931 . S
C1257 C1252 1.370 . S
C1257 C1256 1.391 . S
C1258 N1227 1.435 . S
C1258 C1259 1.358 . S
C1258 C1263 1.371 . S
C1259 H1231 0.930 . S
C1259 C1258 1.358 . S
C1259 C1260 1.405 . S
C1260 H1232 0.932 . S
C1260 C1259 1.405 . S
C1260 C1261 1.383 . S
C1261 C1260 1.383 . S
C1261 C1262 1.393 . S
C1262 H1234 0.931 . S
C1262 C1261 1.393 . S
C1262 C1263 1.382 . S
C1263 H1233 0.929 . S
C1263 C1258 1.371 . S
C1263 C1262 1.382 . S
C1264 N1227 1.423 . S
C1264 C1265 1.362 . S
C1264 C1269 1.388 . S
C1265 H1235 0.929 . S
C1265 C1264 1.362 . S
C1265 C1266 1.376 . S
C1266 H1237 0.931 . S
C1266 C1265 1.376 . S
C1266 C1267 1.396 . S
C1267 C1266 1.396 . S
C1267 C1268 1.348 . S
C1267 C1285 1.472 . S
C1268 H1238 0.929 . S
C1268 C1267 1.348 . S
C1268 C1269 1.443 . S
C1269 H1236 0.932 . S
C1269 C1264 1.388 . S
C1269 C1268 1.443 . S
C1270 N1250 1.433 . S
C1270 C1271 1.363 . S
C1270 C1275 1.370 . S
C1271 H1239 0.929 . S
C1271 C1270 1.363 . S
C1271 C1272 1.385 . S
C1272 H1240 0.930 . S
C1272 C1271 1.385 . S
C1272 C1273 1.357 . S
C1273 C1272 1.357 . S
C1273 C1274 1.406 . S
C1274 H1241 0.929 . S
C1274 C1273 1.406 . S
C1274 C1275 1.391 . S
C1275 H1242 0.931 . S
C1275 C1270 1.370 . S
C1275 C1274 1.391 . S
C1276 N1250 1.435 . S
C1276 C1277 1.358 . S
C1276 C1281 1.371 . S
C1277 H1243 0.930 . S
C1277 C1276 1.358 . S
C1277 C1278 1.405 . S
C1278 H1244 0.932 . S
C1278 C1277 1.405 . S
C1278 C1279 1.383 . S
C1279 C1278 1.383 . S
C1279 C1280 1.393 . S
C1280 H1245 0.931 . S
C1280 C1279 1.393 . S
C1280 C1281 1.382 . S
C1281 H1246 0.929 . S
C1281 C1276 1.371 . S
C1281 C1280 1.382 . S
C1282 N1250 1.423 . S
C1282 C1283 1.362 . S
C1282 C1287 1.388 . S
C1283 H1247 0.929 . S
C1283 C1282 1.362 . S
C1283 C1284 1.376 . S
C1284 H1248 0.931 . S
C1284 C1283 1.376 . S
C1284 C1285 1.396 . S
C1285 C1267 1.472 . S
C1285 C1284 1.396 . S
C1285 C1286 1.348 . S
C1286 H1249 0.929 . S
C1286 C1285 1.348 . S
C1286 C1287 1.443 . S
C1287 H1251 0.932 . S
C1287 C1282 1.388 . S
C1287 C1286 1.443 . S
H1288 C1315 0.929 . S
N1289 C1314 1.433 . S
N1289 C1320 1.435 . S
N1289 C1326 1.423 . S
H1290 C1316 0.930 . S
H1291 C1319 0.931 . S
H1292 C1318 0.929 . S
H1293 C1321 0.930 . S
H1294 C1322 0.932 . S
H1295 C1325 0.929 . S
H1296 C1324 0.931 . S
H1297 C1327 0.929 . S
H1298 C1331 0.932 . S
H1299 C1328 0.931 . S
H1300 C1330 0.929 . S
H1301 C1333 0.929 . S
H1302 C1334 0.930 . S
H1303 C1336 0.929 . S
H1304 C1337 0.931 . S
H1305 C1339 0.930 . S
H1306 C1340 0.932 . S
H1307 C1342 0.931 . S
H1308 C1343 0.929 . S
H1309 C1345 0.929 . S
H1310 C1346 0.931 . S
H1311 C1348 0.929 . S
N1312 C1332 1.433 . S
N1312 C1338 1.435 . S
N1312 C1344 1.423 . S
H1313 C1349 0.932 . S
C1314 N1289 1.433 . S
C1314 C1315 1.363 . S
C1314 C1319 1.370 . S
C1315 H1288 0.929 . S
C1315 C1314 1.363 . S
C1315 C1316 1.385 . S
C1316 H1290 0.930 . S
C1316 C1315 1.385 . S
C1316 C1317 1.357 . S
C1317 C1316 1.357 . S
C1317 C1318 1.406 . S
C1318 H1292 0.929 . S
C1318 C1317 1.406 . S
C1318 C1319 1.391 . S
C1319 H1291 0.931 . S
C1319 C1314 1.370 . S
C1319 C1318 1.391 . S
C1320 N1289 1.435 . S
C1320 C1321 1.358 . S
C1320 C1325 1.371 . S
C1321 H1293 0.930 . S
C1321 C1320 1.358 . S
C1321 C1322 1.405 . S
C1322 H1294 0.932 . S
C1322 C1321 1.405 . S
C1322 C1323 1.383 . S
C1323 C1322 1.383 . S
C1323 C1324 1.393 . S
C1324 H1296 0.931 . S
C1324 C1323 1.393 . S
C1324 C1325 1.382 . S
C1325 H1295 0.929 . S
C1325 C1320 1.371 . S
C1325 C1324 1.382 . S
C1326 N1289 1.423 . S
C1326 C1327 1.362 . S
C1326 C1331 1.388 . S
C1327 H1297 0.929 . S
C1327 C1326 1.362 . S
C1327 C1328 1.376 . S
C1328 H1299 0.931 . S
C1328 C1327 1.376 . S
C1328 C1329 1.396 . S
C1329 C1328 1.396 . S
C1329 C1330 1.348 . S
C1329 C1347 1.472 . S
C1330 H1300 0.929 . S
C1330 C1329 1.348 . S
C1330 C1331 1.443 . S
C1331 H1298 0.932 . S
C1331 C1326 1.388 . S
C1331 C1330 1.443 . S
C1332 N1312 1.433 . S
C1332 C1333 1.363 . S
C1332 C1337 1.370 . S
C1333 H1301 0.929 . S
C1333 C1332 1.363 . S
C1333 C1334 1.385 . S
C1334 H1302 0.930 . S
C1334 C1333 1.385 . S
C1334 C1335 1.357 . S
C1335 C1334 1.357 . S
C1335 C1336 1.406 . S
C1336 H1303 0.929 . S
C1336 C1335 1.406 . S
C1336 C1337 1.391 . S
C1337 H1304 0.931 . S
C1337 C1332 1.370 . S
C1337 C1336 1.391 . S
C1338 N1312 1.435 . S
C1338 C1339 1.358 . S
C1338 C1343 1.371 . S
C1339 H1305 0.930 . S
C1339 C1338 1.358 . S
C1339 C1340 1.405 . S
C1340 H1306 0.932 . S
C1340 C1339 1.405 . S
C1340 C1341 1.383 . S
C1341 C1340 1.383 . S
C1341 C1342 1.393 . S
C1342 H1307 0.931 . S
C1342 C1341 1.393 . S
C1342 C1343 1.382 . S
C1343 H1308 0.929 . S
C1343 C1338 1.371 . S
C1343 C1342 1.382 . S
C1344 N1312 1.423 . S
C1344 C1345 1.362 . S
C1344 C1349 1.388 . S
C1345 H1309 0.929 . S
C1345 C1344 1.362 . S
C1345 C1346 1.376 . S
C1346 H1310 0.931 . S
C1346 C1345 1.376 . S
C1346 C1347 1.396 . S
C1347 C1329 1.472 . S
C1347 C1346 1.396 . S
C1347 C1348 1.348 . S
C1348 H1311 0.929 . S
C1348 C1347 1.348 . S
C1348 C1349 1.443 . S
C1349 H1313 0.932 . S
C1349 C1344 1.388 . S
C1349 C1348 1.443 . S
H1350 C1358 0.869 1_655 S
H1351 C1360 0.829 1_655 S
H1352 C1362 0.930 . S
H1353 C1365 0.929 . S
H1354 C1368 0.934 . S
H1355 C1370 0.960 . S
H1356 C1370 0.960 . S
H1357 C1370 0.960 . S
C1358 H1350 0.869 1_455 S
C1358 C1359 1.476 . S
C1358 C1360 1.385 . S
C1359 C1358 1.476 . S
C1359 C1365 1.390 . S
C1360 H1351 0.829 1_455 S
C1360 C1358 1.385 . S
C1360 C1361 1.438 . S
C1361 C1360 1.438 . S
C1361 C1362 1.400 . S
C1361 C1366 1.490 . S
C1362 H1352 0.930 . S
C1362 C1361 1.400 . S
C1362 C1365 1.386 . S
H1363 C1379 0.930 . S
H1364 C1380 0.931 . S
C1365 H1353 0.929 . S
C1365 C1359 1.390 . S
C1365 C1362 1.386 . S
C1366 C1361 1.490 . S
C1366 C1368 1.395 . S
C1366 C1369 1.403 . S
H1367 C1373 0.930 . S
C1368 H1354 0.934 . S
C1368 C1366 1.395 . S
C1368 C1371 1.403 . S
C1369 C1366 1.403 . S
C1369 C1370 1.524 . S
C1369 C1373 1.400 . S
C1370 H1355 0.960 . S
C1370 H1356 0.960 . S
C1370 H1357 0.960 . S
C1370 C1369 1.524 . S
C1371 C1368 1.403 . S
C1371 C1372 1.392 . S
C1371 C1375 1.495 1_455 S
C1372 C1371 1.392 . S
C1372 C1373 1.385 . S
C1372 C1374 1.478 . S
C1373 H1367 0.930 . S
C1373 C1369 1.400 . S
C1373 C1372 1.385 . S
C1374 C1372 1.478 . S
C1374 C1376 1.381 . S
C1374 C1380 1.383 . S
C1375 C1371 1.495 1_655 S
C1375 H1381 0.959 . S
C1375 H1382 0.961 1_655 S
C1375 H1383 0.960 . S
C1376 C1374 1.381 . S
C1376 C1377 1.394 . S
C1376 H1384 0.930 1_455 S
C1377 C1376 1.394 . S
C1377 C1378 1.383 . S
C1377 H1385 0.929 1_455 S
C1378 C1377 1.383 . S
C1378 C1379 1.377 . S
C1379 H1363 0.930 . S
C1379 C1378 1.377 . S
C1379 C1380 1.379 . S
C1380 H1364 0.931 . S
C1380 C1374 1.383 . S
C1380 C1379 1.379 . S
H1381 C1375 0.959 . S
H1382 C1375 0.961 1_455 S
H1383 C1375 0.960 . S
H1384 C1376 0.930 1_655 S
H1385 C1377 0.929 1_655 S
H1386 C1394 0.929 . S
H1387 C1396 0.930 . S
H1388 C1398 0.930 . S
H1389 C1401 0.929 . S
H1390 C1404 0.930 . S
H1391 C1406 0.960 . S
H1392 C1406 0.960 . S
H1393 C1406 0.960 . S
C1394 H1386 0.929 . S
C1394 C1395 1.377 . S
C1394 C1396 1.384 . S
C1395 C1394 1.377 . S
C1395 C1401 1.390 . S
C1396 H1387 0.930 . S
C1396 C1394 1.384 . S
C1396 C1397 1.372 . S
C1397 C1396 1.372 . S
C1397 C1398 1.400 . S
C1397 C1402 1.490 . S
C1398 H1388 0.930 . S
C1398 C1397 1.400 . S
C1398 C1401 1.386 . S
H1399 C1415 0.930 . S
H1400 C1416 0.931 . S
C1401 H1389 0.929 . S
C1401 C1395 1.390 . S
C1401 C1398 1.386 . S
C1402 C1397 1.490 . S
C1402 C1404 1.395 . S
C1402 C1405 1.403 . S
H1403 C1409 0.930 . S
C1404 H1390 0.930 . S
C1404 C1402 1.395 . S
C1404 C1407 1.403 . S
C1405 C1402 1.403 . S
C1405 C1406 1.524 . S
C1405 C1409 1.400 . S
C1406 H1391 0.960 . S
C1406 H1392 0.960 . S
C1406 H1393 0.960 . S
C1406 C1405 1.524 . S
C1407 C1404 1.403 . S
C1407 C1408 1.392 . S
C1407 C1411 1.495 . S
C1408 C1407 1.392 . S
C1408 C1409 1.385 . S
C1408 C1410 1.478 . S
C1409 H1403 0.930 . S
C1409 C1405 1.400 . S
C1409 C1408 1.385 . S
C1410 C1408 1.478 . S
C1410 C1412 1.381 . S
C1410 C1416 1.383 . S
C1411 C1407 1.495 . S
C1411 H1417 0.959 . S
C1411 H1418 0.961 . S
C1411 H1419 0.960 . S
C1412 C1410 1.381 . S
C1412 C1413 1.394 . S
C1412 H1420 0.930 . S
C1413 C1412 1.394 . S
C1413 C1414 1.383 . S
C1413 H1421 0.929 . S
C1414 C1413 1.383 . S
C1414 C1415 1.377 . S
C1415 H1399 0.930 . S
C1415 C1414 1.377 . S
C1415 C1416 1.379 . S
C1416 H1400 0.931 . S
C1416 C1410 1.383 . S
C1416 C1415 1.379 . S
H1417 C1411 0.959 . S
H1418 C1411 0.961 . S
H1419 C1411 0.960 . S
H1420 C1412 0.930 . S
H1421 C1413 0.929 . S
H1422 C1430 0.945 . S
H1423 C1432 0.930 . S
H1424 C1434 0.930 . S
H1425 C1437 0.929 . S
H1426 C1440 0.930 . S
H1427 C1442 0.960 . S
H1428 C1442 0.960 . S
H1429 C1442 0.960 . S
C1430 H1422 0.945 . S
C1430 C1431 1.335 1_565 S
C1430 C1432 1.419 . S
C1431 C1430 1.335 1_545 S
C1431 C1437 1.390 . S
C1432 H1423 0.930 . S
C1432 C1430 1.419 . S
C1432 C1433 1.372 1_565 S
C1433 C1432 1.372 1_545 S
C1433 C1434 1.400 . S
C1433 C1438 1.490 . S
C1434 H1424 0.930 . S
C1434 C1433 1.400 . S
C1434 C1437 1.386 . S
H1435 C1451 0.930 . S
H1436 C1452 0.931 . S
C1437 H1425 0.929 . S
C1437 C1431 1.390 . S
C1437 C1434 1.386 . S
C1438 C1433 1.490 . S
C1438 C1440 1.395 1_545 S
C1438 C1441 1.403 . S
H1439 C1445 0.930 . S
C1440 H1426 0.930 . S
C1440 C1438 1.395 1_565 S
C1440 C1443 1.403 . S
C1441 C1438 1.403 . S
C1441 C1442 1.524 . S
C1441 C1445 1.400 . S
C1442 H1427 0.960 . S
C1442 H1428 0.960 . S
C1442 H1429 0.960 . S
C1442 C1441 1.524 . S
C1443 C1440 1.403 . S
C1443 C1444 1.392 1_565 S
C1443 C1447 1.495 . S
C1444 C1443 1.392 1_545 S
C1444 C1445 1.385 . S
C1444 C1446 1.478 . S
C1445 H1439 0.930 . S
C1445 C1441 1.400 . S
C1445 C1444 1.385 . S
C1446 C1444 1.478 . S
C1446 C1448 1.381 1_545 S
C1446 C1452 1.383 . S
C1447 C1443 1.495 . S
C1447 H1453 0.959 . S
C1447 H1454 0.961 . S
C1447 H1455 0.960 . S
C1448 C1446 1.381 1_565 S
C1448 C1449 1.394 . S
C1448 H1456 0.930 . S
C1449 C1448 1.394 . S
C1449 C1450 1.383 1_565 S
C1449 H1457 0.929 . S
C1450 C1449 1.383 1_545 S
C1450 C1451 1.377 . S
C1451 H1435 0.930 . S
C1451 C1450 1.377 . S
C1451 C1452 1.379 . S
C1452 H1436 0.931 . S
C1452 C1446 1.383 . S
C1452 C1451 1.379 . S
H1453 C1447 0.959 . S
H1454 C1447 0.961 . S
H1455 C1447 0.960 . S
H1456 C1448 0.930 . S
H1457 C1449 0.929 . S
H1458 C1466 0.929 . S
H1459 C1468 0.930 . S
H1460 C1470 0.930 . S
H1461 C1473 0.929 . S
H1462 C1476 0.930 1_565 S
H1463 C1478 0.960 . S
H1464 C1478 0.960 . S
H1465 C1478 0.960 . S
C1466 H1458 0.929 . S
C1466 C1467 1.377 . S
C1466 C1468 1.384 . S
C1467 C1466 1.377 . S
C1467 C1473 1.390 . S
C1468 H1459 0.930 . S
C1468 C1466 1.384 . S
C1468 C1469 1.372 . S
C1469 C1468 1.372 . S
C1469 C1470 1.400 . S
C1469 C1474 1.490 . S
C1470 H1460 0.930 . S
C1470 C1469 1.400 . S
C1470 C1473 1.386 . S
H1471 C1487 0.930 . S
H1472 C1488 0.931 . S
C1473 H1461 0.929 . S
C1473 C1467 1.390 . S
C1473 C1470 1.386 . S
C1474 C1469 1.490 . S
C1474 C1476 1.395 . S
C1474 C1477 1.403 . S
H1475 C1481 0.930 . S
C1476 H1462 0.930 1_545 S
C1476 C1474 1.395 . S
C1476 C1479 1.403 . S
C1477 C1474 1.403 . S
C1477 C1478 1.524 . S
C1477 C1481 1.400 . S
C1478 H1463 0.960 . S
C1478 H1464 0.960 . S
C1478 H1465 0.960 . S
C1478 C1477 1.524 . S
C1479 C1476 1.403 . S
C1479 C1480 1.392 . S
C1479 C1483 1.495 1_545 S
C1480 C1479 1.392 . S
C1480 C1481 1.385 . S
C1480 C1482 1.478 . S
C1481 H1475 0.930 . S
C1481 C1477 1.400 . S
C1481 C1480 1.385 . S
C1482 C1480 1.478 . S
C1482 C1484 1.381 . S
C1482 C1488 1.383 . S
C1483 C1479 1.495 1_565 S
C1483 H1489 0.959 . S
C1483 H1490 0.961 . S
C1483 H1491 0.960 . S
C1484 C1482 1.381 . S
C1484 C1485 1.394 . S
C1484 H1492 0.930 . S
C1485 C1484 1.394 . S
C1485 C1486 1.383 . S
C1485 H1493 0.929 . S
C1486 C1485 1.383 . S
C1486 C1487 1.377 . S
C1487 H1471 0.930 . S
C1487 C1486 1.377 . S
C1487 C1488 1.379 . S
C1488 H1472 0.931 . S
C1488 C1482 1.383 . S
C1488 C1487 1.379 . S
H1489 C1483 0.959 . S
H1490 C1483 0.961 . S
H1491 C1483 0.960 . S
H1492 C1484 0.930 . S
H1493 C1485 0.929 . S
H1494 C1502 0.929 . S
H1495 C1504 0.930 . S
H1496 C1506 0.930 . S
H1497 C1509 0.929 . S
H1498 C1512 0.930 . S
H1499 C1514 0.960 . S
H1500 C1514 0.960 . S
H1501 C1514 0.960 . S
C1502 H1494 0.929 . S
C1502 C1503 1.377 . S
C1502 C1504 1.384 . S
C1503 C1502 1.377 . S
C1503 C1509 1.390 . S
C1504 H1495 0.930 . S
C1504 C1502 1.384 . S
C1504 C1505 1.372 . S
C1505 C1504 1.372 . S
C1505 C1506 1.400 . S
C1505 C1510 1.490 . S
C1506 H1496 0.930 . S
C1506 C1505 1.400 . S
C1506 C1509 1.386 . S
H1507 C1523 0.930 . S
H1508 C1524 0.931 . S
C1509 H1497 0.929 . S
C1509 C1503 1.390 . S
C1509 C1506 1.386 . S
C1510 C1505 1.490 . S
C1510 C1512 1.395 . S
C1510 C1513 1.403 1_455 S
H1511 C1517 0.930 . S
C1512 H1498 0.930 . S
C1512 C1510 1.395 . S
C1512 C1515 1.403 . S
C1513 C1510 1.403 1_655 S
C1513 C1514 1.524 . S
C1513 C1517 1.400 . S
C1514 H1499 0.960 . S
C1514 H1500 0.960 . S
C1514 H1501 0.960 . S
C1514 C1513 1.524 . S
C1515 C1512 1.403 . S
C1515 C1516 1.392 . S
C1515 C1519 1.495 . S
C1516 C1515 1.392 . S
C1516 C1517 1.385 1_455 S
C1516 C1518 1.478 . S
C1517 H1511 0.930 . S
C1517 C1513 1.400 . S
C1517 C1516 1.385 1_655 S
C1518 C1516 1.478 . S
C1518 C1520 1.381 . S
C1518 C1524 1.383 . S
C1519 C1515 1.495 . S
C1519 H1525 0.959 . S
C1519 H1526 0.961 . S
C1519 H1527 0.960 . S
C1520 C1518 1.381 . S
C1520 C1521 1.394 . S
C1520 H1528 0.930 . S
C1521 C1520 1.394 . S
C1521 C1522 1.383 . S
C1521 H1529 0.929 . S
C1522 C1521 1.383 . S
C1522 C1523 1.377 . S
C1523 H1507 0.930 . S
C1523 C1522 1.377 . S
C1523 C1524 1.379 . S
C1524 H1508 0.931 . S
C1524 C1518 1.383 . S
C1524 C1523 1.379 . S
H1525 C1519 0.959 . S
H1526 C1519 0.961 . S
H1527 C1519 0.960 . S
H1528 C1520 0.930 . S
H1529 C1521 0.929 . S
H1530 C1538 0.929 . S
H1531 C1540 0.930 . S
H1532 C1542 0.930 . S
H1533 C1545 0.929 . S
H1534 C1548 0.930 . S
H1535 C1550 0.960 . S
H1536 C1550 0.960 . S
H1537 C1550 0.960 . S
C1538 H1530 0.929 . S
C1538 C1539 1.377 . S
C1538 C1540 1.384 . S
C1539 C1538 1.377 . S
C1539 C1545 1.390 . S
C1540 H1531 0.930 . S
C1540 C1538 1.384 . S
C1540 C1541 1.372 . S
C1541 C1540 1.372 . S
C1541 C1542 1.400 . S
C1541 C1546 1.490 . S
C1542 H1532 0.930 . S
C1542 C1541 1.400 . S
C1542 C1545 1.386 . S
H1543 C1559 0.930 . S
H1544 C1560 0.931 . S
C1545 H1533 0.929 . S
C1545 C1539 1.390 . S
C1545 C1542 1.386 . S
C1546 C1541 1.490 . S
C1546 C1548 1.395 . S
C1546 C1549 1.403 . S
H1547 C1553 0.930 . S
C1548 H1534 0.930 . S
C1548 C1546 1.395 . S
C1548 C1551 1.403 . S
C1549 C1546 1.403 . S
C1549 C1550 1.524 . S
C1549 C1553 1.400 . S
C1550 H1535 0.960 . S
C1550 H1536 0.960 . S
C1550 H1537 0.960 . S
C1550 C1549 1.524 . S
C1551 C1548 1.403 . S
C1551 C1552 1.392 . S
C1551 C1555 1.495 . S
C1552 C1551 1.392 . S
C1552 C1553 1.385 . S
C1552 C1554 1.478 . S
C1553 H1547 0.930 . S
C1553 C1549 1.400 . S
C1553 C1552 1.385 . S
C1554 C1552 1.478 . S
C1554 C1556 1.381 . S
C1554 C1560 1.383 . S
C1555 C1551 1.495 . S
C1555 H1561 0.959 . S
C1555 H1562 0.961 . S
C1555 H1563 0.960 . S
C1556 C1554 1.381 . S
C1556 C1557 1.394 . S
C1556 H1564 0.930 . S
C1557 C1556 1.394 . S
C1557 C1558 1.383 . S
C1557 H1565 0.929 . S
C1558 C1557 1.383 . S
C1558 C1559 1.377 . S
C1559 H1543 0.930 . S
C1559 C1558 1.377 . S
C1559 C1560 1.379 . S
C1560 H1544 0.931 . S
C1560 C1554 1.383 . S
C1560 C1559 1.379 . S
H1561 C1555 0.959 . S
H1562 C1555 0.961 . S
H1563 C1555 0.960 . S
H1564 C1556 0.930 . S
H1565 C1557 0.929 . S
H1566 C1574 0.938 . S
H1567 C1576 0.938 1_655 S
H1568 C1578 0.930 . S
H1569 C1581 0.929 . S
H1570 C1584 0.930 . S
H1571 C1586 0.960 . S
H1572 C1586 0.960 . S
H1573 C1586 0.960 . S
C1574 H1566 0.938 . S
C1574 C1575 1.377 . S
C1574 C1576 1.384 . S
C1575 C1574 1.377 . S
C1575 C1581 1.390 . S
C1576 H1567 0.938 1_455 S
C1576 C1574 1.384 . S
C1576 C1577 1.372 . S
C1577 C1576 1.372 . S
C1577 C1578 1.400 . S
C1577 C1582 1.490 . S
C1578 H1568 0.930 . S
C1578 C1577 1.400 . S
C1578 C1581 1.386 . S
H1579 C1595 0.930 . S
H1580 C1596 0.931 . S
C1581 H1569 0.929 . S
C1581 C1575 1.390 . S
C1581 C1578 1.386 . S
C1582 C1577 1.490 . S
C1582 C1584 1.395 1_455 S
C1582 C1585 1.403 . S
H1583 C1589 0.930 . S
C1584 H1570 0.930 . S
C1584 C1582 1.395 1_655 S
C1584 C1587 1.403 . S
C1585 C1582 1.403 . S
C1585 C1586 1.524 . S
C1585 C1589 1.400 . S
C1586 H1571 0.960 . S
C1586 H1572 0.960 . S
C1586 H1573 0.960 . S
C1586 C1585 1.524 . S
C1587 C1584 1.403 . S
C1587 C1588 1.392 1_655 S
C1587 C1591 1.495 . S
C1588 C1587 1.392 1_455 S
C1588 C1589 1.385 . S
C1588 C1590 1.478 . S
C1589 H1583 0.930 . S
C1589 C1585 1.400 . S
C1589 C1588 1.385 . S
C1590 C1588 1.478 . S
C1590 C1592 1.382 1_455 S
C1590 C1596 1.383 . S
C1591 C1587 1.495 . S
C1591 H1597 0.959 . S
C1591 H1598 0.961 . S
C1591 H1599 0.960 . S
C1592 C1590 1.382 1_655 S
C1592 C1593 1.378 1_655 S
C1592 H1600 0.930 . S
C1593 C1592 1.378 1_455 S
C1593 C1594 1.387 . S
C1593 H1601 0.943 1_455 S
C1594 C1593 1.387 . S
C1594 C1595 1.377 . S
C1595 H1579 0.930 . S
C1595 C1594 1.377 . S
C1595 C1596 1.379 . S
C1596 H1580 0.931 . S
C1596 C1590 1.383 . S
C1596 C1595 1.379 . S
H1597 C1591 0.959 . S
H1598 C1591 0.961 . S
H1599 C1591 0.960 . S
H1600 C1592 0.930 . S
H1601 C1593 0.943 1_655 S
H1602 C1610 0.929 . S
H1603 C1612 0.930 . S
H1604 C1614 0.930 . S
H1605 C1617 0.929 . S
H1606 C1620 0.930 . S
H1607 C1622 0.960 . S
H1608 C1622 0.960 . S
H1609 C1622 0.960 . S
C1610 H1602 0.929 . S
C1610 C1611 1.377 . S
C1610 C1612 1.384 . S
C1611 C1610 1.377 . S
C1611 C1617 1.390 . S
C1612 H1603 0.930 . S
C1612 C1610 1.384 . S
C1612 C1613 1.372 . S
C1613 C1612 1.372 . S
C1613 C1614 1.400 . S
C1613 C1618 1.490 . S
C1614 H1604 0.930 . S
C1614 C1613 1.400 . S
C1614 C1617 1.386 . S
H1615 C1631 0.930 . S
H1616 C1632 0.931 . S
C1617 H1605 0.929 . S
C1617 C1611 1.390 . S
C1617 C1614 1.386 . S
C1618 C1613 1.490 . S
C1618 C1620 1.395 . S
C1618 C1621 1.403 . S
H1619 C1625 0.930 . S
C1620 H1606 0.930 . S
C1620 C1618 1.395 . S
C1620 C1623 1.403 . S
C1621 C1618 1.403 . S
C1621 C1622 1.524 . S
C1621 C1625 1.400 . S
C1622 H1607 0.960 . S
C1622 H1608 0.960 . S
C1622 H1609 0.960 . S
C1622 C1621 1.524 . S
C1623 C1620 1.403 . S
C1623 C1624 1.392 . S
C1623 C1627 1.495 . S
C1624 C1623 1.392 . S
C1624 C1625 1.385 . S
C1624 C1626 1.478 . S
C1625 H1619 0.930 . S
C1625 C1621 1.400 . S
C1625 C1624 1.385 . S
C1626 C1624 1.478 . S
C1626 C1628 1.381 . S
C1626 C1632 1.383 . S
C1627 C1623 1.495 . S
C1627 H1633 0.959 . S
C1627 H1634 0.961 . S
C1627 H1635 0.960 . S
C1628 C1626 1.381 . S
C1628 C1629 1.394 . S
C1628 H1636 0.930 . S
C1629 C1628 1.394 . S
C1629 C1630 1.383 . S
C1629 H1637 0.929 . S
C1630 C1629 1.383 . S
C1630 C1631 1.377 . S
C1631 H1615 0.930 . S
C1631 C1630 1.377 . S
C1631 C1632 1.379 . S
C1632 H1616 0.931 . S
C1632 C1626 1.383 . S
C1632 C1631 1.379 . S
H1633 C1627 0.959 . S
H1634 C1627 0.961 . S
H1635 C1627 0.960 . S
H1636 C1628 0.930 . S
H1637 C1629 0.929 . S
H1638 C1646 0.929 1_565 S
H1639 C1648 0.930 1_565 S
H1640 C1650 0.930 . S
H1641 C1653 0.929 . S
H1642 C1656 0.930 . S
H1643 C1658 0.960 . S
H1644 C1658 0.960 . S
H1645 C1658 0.960 . S
C1646 H1638 0.929 1_545 S
C1646 C1647 1.377 . S
C1646 C1648 1.384 . S
C1647 C1646 1.377 . S
C1647 C1653 1.390 . S
C1648 H1639 0.930 1_545 S
C1648 C1646 1.384 . S
C1648 C1649 1.372 . S
C1649 C1648 1.372 . S
C1649 C1650 1.400 . S
C1649 C1654 1.490 . S
C1650 H1640 0.930 . S
C1650 C1649 1.400 . S
C1650 C1653 1.386 . S
H1651 C1667 0.930 . S
H1652 C1668 0.931 . S
C1653 H1641 0.929 . S
C1653 C1647 1.390 . S
C1653 C1650 1.386 . S
C1654 C1649 1.490 . S
C1654 C1656 1.395 . S
C1654 C1657 1.403 . S
H1655 C1661 0.930 . S
C1656 H1642 0.930 . S
C1656 C1654 1.395 . S
C1656 C1659 1.403 . S
C1657 C1654 1.403 . S
C1657 C1658 1.524 . S
C1657 C1661 1.400 . S
C1658 H1643 0.960 . S
C1658 H1644 0.960 . S
C1658 H1645 0.960 . S
C1658 C1657 1.524 . S
C1659 C1656 1.403 . S
C1659 C1660 1.392 . S
C1659 C1663 1.495 . S
C1660 C1659 1.392 . S
C1660 C1661 1.385 . S
C1660 C1662 1.478 . S
C1661 H1655 0.930 . S
C1661 C1657 1.400 . S
C1661 C1660 1.385 . S
C1662 C1660 1.478 . S
C1662 C1664 1.381 . S
C1662 C1668 1.383 . S
C1663 C1659 1.495 . S
C1663 H1669 0.959 . S
C1663 H1670 0.961 . S
C1663 H1671 0.913 1_545 S
C1664 C1662 1.381 . S
C1664 C1665 1.394 . S
C1664 H1672 0.930 1_545 S
C1665 C1664 1.394 . S
C1665 C1666 1.383 . S
C1665 H1673 0.929 1_545 S
C1666 C1665 1.383 . S
C1666 C1667 1.377 . S
C1667 H1651 0.930 . S
C1667 C1666 1.377 . S
C1667 C1668 1.379 . S
C1668 H1652 0.931 . S
C1668 C1662 1.383 . S
C1668 C1667 1.379 . S
H1669 C1663 0.959 . S
H1670 C1663 0.961 . S
H1671 C1663 0.913 1_565 S
H1672 C1664 0.930 1_565 S
H1673 C1665 0.929 1_565 S
H1674 C1682 0.929 . S
H1675 C1684 0.930 . S
H1676 C1686 0.930 . S
H1677 C1689 0.929 . S
H1678 C1692 0.930 . S
H1679 C1694 0.960 . S
H1680 C1694 0.960 . S
H1681 C1694 0.960 . S
C1682 H1674 0.929 . S
C1682 C1683 1.377 1_565 S
C1682 C1684 1.384 . S
C1683 C1682 1.377 1_545 S
C1683 C1689 1.390 . S
C1684 H1675 0.930 . S
C1684 C1682 1.384 . S
C1684 C1685 1.372 1_565 S
C1685 C1684 1.372 1_545 S
C1685 C1686 1.400 . S
C1685 C1690 1.490 . S
C1686 H1676 0.930 . S
C1686 C1685 1.400 . S
C1686 C1689 1.386 . S
H1687 C1703 0.930 . S
H1688 C1704 0.931 . S
C1689 H1677 0.929 . S
C1689 C1683 1.390 . S
C1689 C1686 1.386 . S
C1690 C1685 1.490 . S
C1690 C1692 1.395 . S
C1690 C1693 1.403 . S
H1691 C1697 0.930 . S
C1692 H1678 0.930 . S
C1692 C1690 1.395 . S
C1692 C1695 1.403 . S
C1693 C1690 1.403 . S
C1693 C1694 1.524 . S
C1693 C1697 1.400 . S
C1694 H1679 0.960 . S
C1694 H1680 0.960 . S
C1694 H1681 0.960 . S
C1694 C1693 1.524 . S
C1695 C1692 1.403 . S
C1695 C1696 1.392 . S
C1695 C1699 1.495 . S
C1696 C1695 1.392 . S
C1696 C1697 1.385 . S
C1696 C1698 1.478 . S
C1697 H1691 0.930 . S
C1697 C1693 1.400 . S
C1697 C1696 1.385 . S
C1698 C1696 1.478 . S
C1698 C1700 1.381 1_545 S
C1698 C1704 1.383 . S
C1699 C1695 1.495 . S
C1699 H1705 0.958 . S
C1699 H1706 0.961 . S
C1699 H1707 0.960 1_545 S
C1700 C1698 1.381 1_565 S
C1700 C1701 1.394 . S
C1700 H1708 0.930 . S
C1701 C1700 1.394 . S
C1701 C1702 1.383 1_565 S
C1701 H1709 0.929 . S
C1702 C1701 1.383 1_545 S
C1702 C1703 1.377 . S
C1703 H1687 0.930 . S
C1703 C1702 1.377 . S
C1703 C1704 1.379 . S
C1704 H1688 0.931 . S
C1704 C1698 1.383 . S
C1704 C1703 1.379 . S
H1705 C1699 0.958 . S
H1706 C1699 0.961 . S
H1707 C1699 0.960 1_565 S
H1708 C1700 0.930 . S
H1709 C1701 0.929 . S
H1710 C1718 0.929 . S
H1711 C1720 0.930 . S
H1712 C1722 0.930 1_655 S
H1713 C1725 0.929 1_655 S
H1714 C1728 0.930 . S
H1715 C1730 0.960 . S
H1716 C1730 0.997 . S
H1717 C1730 0.960 . S
C1718 H1710 0.929 . S
C1718 C1719 1.377 . S
C1718 C1720 1.384 . S
C1719 C1718 1.377 . S
C1719 C1725 1.390 . S
C1720 H1711 0.930 . S
C1720 C1718 1.384 . S
C1720 C1721 1.372 . S
C1721 C1720 1.372 . S
C1721 C1722 1.400 . S
C1721 C1726 1.490 . S
C1722 H1712 0.930 1_455 S
C1722 C1721 1.400 . S
C1722 C1725 1.386 . S
H1723 C1739 0.930 1_655 S
H1724 C1740 0.875 1_655 S
C1725 H1713 0.929 1_455 S
C1725 C1719 1.390 . S
C1725 C1722 1.386 . S
C1726 C1721 1.490 . S
C1726 C1728 1.395 . S
C1726 C1729 1.403 . S
H1727 C1733 0.952 . S
C1728 H1714 0.930 . S
C1728 C1726 1.395 . S
C1728 C1731 1.403 . S
C1729 C1726 1.403 . S
C1729 C1730 1.524 1_455 S
C1729 C1733 1.400 . S
C1730 H1715 0.960 . S
C1730 H1716 0.997 . S
C1730 H1717 0.960 . S
C1730 C1729 1.524 1_655 S
C1731 C1728 1.403 . S
C1731 C1732 1.392 . S
C1731 C1735 1.495 . S
C1732 C1731 1.392 . S
C1732 C1733 1.385 . S
C1732 C1734 1.478 . S
C1733 H1727 0.952 . S
C1733 C1729 1.400 . S
C1733 C1732 1.385 . S
C1734 C1732 1.478 . S
C1734 C1736 1.381 . S
C1734 C1740 1.383 . S
C1735 C1731 1.495 . S
C1735 H1741 0.959 . S
C1735 H1742 0.961 . S
C1735 H1743 0.960 . S
C1736 C1734 1.381 . S
C1736 C1737 1.394 . S
C1736 H1744 0.930 . S
C1737 C1736 1.394 . S
C1737 C1738 1.383 . S
C1737 H1745 0.929 . S
C1738 C1737 1.383 . S
C1738 C1739 1.377 . S
C1739 H1723 0.930 1_455 S
C1739 C1738 1.377 . S
C1739 C1740 1.379 . S
C1740 H1724 0.875 1_455 S
C1740 C1734 1.383 . S
C1740 C1739 1.379 . S
H1741 C1735 0.959 . S
H1742 C1735 0.961 . S
H1743 C1735 0.960 . S
H1744 C1736 0.930 . S
H1745 C1737 0.929 . S
H1746 C1754 0.929 . S
H1747 C1756 0.930 . S
H1748 C1758 0.930 . S
H1749 C1761 0.929 . S
H1750 C1764 0.930 . S
H1751 C1766 0.960 . S
H1752 C1766 0.960 . S
H1753 C1766 0.960 . S
C1754 H1746 0.929 . S
C1754 C1755 1.377 . S
C1754 C1756 1.384 . S
C1755 C1754 1.377 . S
C1755 C1761 1.390 . S
C1756 H1747 0.930 . S
C1756 C1754 1.384 . S
C1756 C1757 1.372 . S
C1757 C1756 1.372 . S
C1757 C1758 1.400 . S
C1757 C1762 1.490 . S
C1758 H1748 0.930 . S
C1758 C1757 1.400 . S
C1758 C1761 1.386 . S
H1759 C1775 0.930 . S
H1760 C1776 0.931 . S
C1761 H1749 0.929 . S
C1761 C1755 1.390 . S
C1761 C1758 1.386 . S
C1762 C1757 1.490 . S
C1762 C1764 1.395 . S
C1762 C1765 1.403 . S
H1763 C1769 0.930 . S
C1764 H1750 0.930 . S
C1764 C1762 1.395 . S
C1764 C1767 1.403 . S
C1765 C1762 1.403 . S
C1765 C1766 1.524 . S
C1765 C1769 1.400 . S
C1766 H1751 0.960 . S
C1766 H1752 0.960 . S
C1766 H1753 0.960 . S
C1766 C1765 1.524 . S
C1767 C1764 1.403 . S
C1767 C1768 1.392 . S
C1767 C1771 1.495 . S
C1768 C1767 1.392 . S
C1768 C1769 1.385 . S
C1768 C1770 1.478 . S
C1769 H1763 0.930 . S
C1769 C1765 1.400 . S
C1769 C1768 1.385 . S
C1770 C1768 1.478 . S
C1770 C1772 1.381 . S
C1770 C1776 1.383 . S
C1771 C1767 1.495 . S
C1771 H1777 0.959 . S
C1771 H1778 0.961 . S
C1771 H1779 0.960 . S
C1772 C1770 1.381 . S
C1772 C1773 1.394 . S
C1772 H1780 0.930 . S
C1773 C1772 1.394 . S
C1773 C1774 1.383 . S
C1773 H1781 0.929 . S
C1774 C1773 1.383 . S
C1774 C1775 1.377 . S
C1775 H1759 0.930 . S
C1775 C1774 1.377 . S
C1775 C1776 1.379 . S
C1776 H1760 0.931 . S
C1776 C1770 1.383 . S
C1776 C1775 1.379 . S
H1777 C1771 0.959 . S
H1778 C1771 0.961 . S
H1779 C1771 0.960 . S
H1780 C1772 0.930 . S
H1781 C1773 0.929 . S
H1782 C1790 0.929 . S
H1783 C1792 0.930 . S
H1784 C1794 0.930 . S
H1785 C1797 0.929 . S
H1786 C1800 0.930 . S
H1787 C1802 0.960 . S
H1788 C1802 0.960 . S
H1789 C1802 0.960 . S
C1790 H1782 0.929 . S
C1790 C1791 1.377 . S
C1790 C1792 1.384 . S
C1791 C1790 1.377 . S
C1791 C1797 1.390 . S
C1792 H1783 0.930 . S
C1792 C1790 1.384 . S
C1792 C1793 1.372 . S
C1793 C1792 1.372 . S
C1793 C1794 1.400 . S
C1793 C1798 1.490 . S
C1794 H1784 0.930 . S
C1794 C1793 1.400 . S
C1794 C1797 1.386 . S
H1795 C1811 0.930 . S
H1796 C1812 0.931 . S
C1797 H1785 0.929 . S
C1797 C1791 1.390 . S
C1797 C1794 1.386 . S
C1798 C1793 1.490 . S
C1798 C1800 1.395 . S
C1798 C1801 1.403 . S
H1799 C1805 0.930 . S
C1800 H1786 0.930 . S
C1800 C1798 1.395 . S
C1800 C1803 1.403 . S
C1801 C1798 1.403 . S
C1801 C1802 1.524 . S
C1801 C1805 1.400 . S
C1802 H1787 0.960 . S
C1802 H1788 0.960 . S
C1802 H1789 0.960 . S
C1802 C1801 1.524 . S
C1803 C1800 1.403 . S
C1803 C1804 1.392 . S
C1803 C1807 1.495 . S
C1804 C1803 1.392 . S
C1804 C1805 1.385 . S
C1804 C1806 1.478 . S
C1805 H1799 0.930 . S
C1805 C1801 1.400 . S
C1805 C1804 1.385 . S
C1806 C1804 1.478 . S
C1806 C1808 1.381 . S
C1806 C1812 1.383 . S
C1807 C1803 1.495 . S
C1807 H1813 0.959 . S
C1807 H1814 0.961 . S
C1807 H1815 0.960 . S
C1808 C1806 1.381 . S
C1808 C1809 1.394 . S
C1808 H1816 0.930 . S
C1809 C1808 1.394 . S
C1809 C1810 1.383 . S
C1809 H1817 0.929 . S
C1810 C1809 1.383 . S
C1810 C1811 1.377 . S
C1811 H1795 0.930 . S
C1811 C1810 1.377 . S
C1811 C1812 1.379 . S
C1812 H1796 0.931 . S
C1812 C1806 1.383 . S
C1812 C1811 1.379 . S
H1813 C1807 0.959 . S
H1814 C1807 0.961 . S
H1815 C1807 0.960 . S
H1816 C1808 0.930 . S
H1817 C1809 0.929 . S
H1818 C1826 0.929 . S
H1819 C1828 0.930 . S
H1820 C1830 0.930 . S
H1821 C1833 0.929 . S
H1822 C1836 0.930 . S
H1823 C1838 0.960 . S
H1824 C1838 0.960 . S
H1825 C1838 0.960 . S
C1826 H1818 0.929 . S
C1826 C1827 1.377 . S
C1826 C1828 1.384 . S
C1827 C1826 1.377 . S
C1827 C1833 1.390 . S
C1828 H1819 0.930 . S
C1828 C1826 1.384 . S
C1828 C1829 1.372 . S
C1829 C1828 1.372 . S
C1829 C1830 1.400 . S
C1829 C1834 1.490 . S
C1830 H1820 0.930 . S
C1830 C1829 1.400 . S
C1830 C1833 1.386 . S
H1831 C1847 0.930 . S
H1832 C1848 0.931 . S
C1833 H1821 0.929 . S
C1833 C1827 1.390 . S
C1833 C1830 1.386 . S
C1834 C1829 1.490 . S
C1834 C1836 1.395 . S
C1834 C1837 1.403 . S
H1835 C1841 0.930 . S
C1836 H1822 0.930 . S
C1836 C1834 1.395 . S
C1836 C1839 1.403 . S
C1837 C1834 1.403 . S
C1837 C1838 1.524 . S
C1837 C1841 1.400 . S
C1838 H1823 0.960 . S
C1838 H1824 0.960 . S
C1838 H1825 0.960 . S
C1838 C1837 1.524 . S
C1839 C1836 1.403 . S
C1839 C1840 1.392 . S
C1839 C1843 1.495 . S
C1840 C1839 1.392 . S
C1840 C1841 1.385 . S
C1840 C1842 1.478 . S
C1841 H1835 0.930 . S
C1841 C1837 1.400 . S
C1841 C1840 1.385 . S
C1842 C1840 1.478 . S
C1842 C1844 1.381 . S
C1842 C1848 1.383 . S
C1843 C1839 1.495 . S
C1843 H1849 0.959 . S
C1843 H1850 0.961 . S
C1843 H1851 0.960 . S
C1844 C1842 1.381 . S
C1844 C1845 1.394 . S
C1844 H1852 0.930 . S
C1845 C1844 1.394 . S
C1845 C1846 1.383 . S
C1845 H1853 0.929 . S
C1846 C1845 1.383 . S
C1846 C1847 1.377 . S
C1847 H1831 0.930 . S
C1847 C1846 1.377 . S
C1847 C1848 1.379 . S
C1848 H1832 0.931 . S
C1848 C1842 1.383 . S
C1848 C1847 1.379 . S
H1849 C1843 0.959 . S
H1850 C1843 0.961 . S
H1851 C1843 0.960 . S
H1852 C1844 0.930 . S
H1853 C1845 0.929 . S
H1854 C1862 0.929 . S
H1855 C1864 0.930 . S
H1856 C1866 0.930 . S
H1857 C1869 0.929 . S
H1858 C1872 0.930 . S
H1859 C1874 0.960 . S
H1860 C1874 0.960 . S
H1861 C1874 0.960 . S
C1862 H1854 0.929 . S
C1862 C1863 1.377 . S
C1862 C1864 1.384 . S
C1863 C1862 1.377 . S
C1863 C1869 1.390 . S
C1864 H1855 0.930 . S
C1864 C1862 1.384 . S
C1864 C1865 1.372 . S
C1865 C1864 1.372 . S
C1865 C1866 1.400 . S
C1865 C1870 1.490 . S
C1866 H1856 0.930 . S
C1866 C1865 1.400 . S
C1866 C1869 1.386 . S
H1867 C1883 0.930 . S
H1868 C1884 0.931 . S
C1869 H1857 0.929 . S
C1869 C1863 1.390 . S
C1869 C1866 1.386 . S
C1870 C1865 1.490 . S
C1870 C1872 1.395 . S
C1870 C1873 1.403 . S
H1871 C1877 0.930 . S
C1872 H1858 0.930 . S
C1872 C1870 1.395 . S
C1872 C1875 1.403 . S
C1873 C1870 1.403 . S
C1873 C1874 1.524 . S
C1873 C1877 1.400 . S
C1874 H1859 0.960 . S
C1874 H1860 0.960 . S
C1874 H1861 0.960 . S
C1874 C1873 1.524 . S
C1875 C1872 1.403 . S
C1875 C1876 1.392 . S
C1875 C1879 1.495 . S
C1876 C1875 1.392 . S
C1876 C1877 1.385 . S
C1876 C1878 1.478 . S
C1877 H1871 0.930 . S
C1877 C1873 1.400 . S
C1877 C1876 1.385 . S
C1878 C1876 1.478 . S
C1878 C1880 1.381 . S
C1878 C1884 1.383 . S
C1879 C1875 1.495 . S
C1879 H1885 0.959 . S
C1879 H1886 0.961 . S
C1879 H1887 0.960 . S
C1880 C1878 1.381 . S
C1880 C1881 1.394 . S
C1880 H1888 0.930 . S
C1881 C1880 1.394 . S
C1881 C1882 1.383 . S
C1881 H1889 0.929 . S
C1882 C1881 1.383 . S
C1882 C1883 1.377 . S
C1883 H1867 0.930 . S
C1883 C1882 1.377 . S
C1883 C1884 1.379 . S
C1884 H1868 0.931 . S
C1884 C1878 1.383 . S
C1884 C1883 1.379 . S
H1885 C1879 0.959 . S
H1886 C1879 0.961 . S
H1887 C1879 0.960 . S
H1888 C1880 0.930 . S
H1889 C1881 0.929 . S
H1890 C1898 0.929 . S
H1891 C1900 0.930 . S
H1892 C1902 0.930 . S
H1893 C1905 0.929 . S
H1894 C1908 0.930 . S
H1895 C1910 0.960 . S
H1896 C1910 0.960 . S
H1897 C1910 0.960 . S
C1898 H1890 0.929 . S
C1898 C1899 1.377 . S
C1898 C1900 1.384 . S
C1899 C1898 1.377 . S
C1899 C1905 1.390 . S
C1900 H1891 0.930 . S
C1900 C1898 1.384 . S
C1900 C1901 1.372 . S
C1901 C1900 1.372 . S
C1901 C1902 1.400 . S
C1901 C1906 1.490 . S
C1902 H1892 0.930 . S
C1902 C1901 1.400 . S
C1902 C1905 1.386 . S
H1903 C1919 0.930 . S
H1904 C1920 0.931 . S
C1905 H1893 0.929 . S
C1905 C1899 1.390 . S
C1905 C1902 1.386 . S
C1906 C1901 1.490 . S
C1906 C1908 1.395 . S
C1906 C1909 1.403 . S
H1907 C1913 0.930 . S
C1908 H1894 0.930 . S
C1908 C1906 1.395 . S
C1908 C1911 1.403 . S
C1909 C1906 1.403 . S
C1909 C1910 1.524 . S
C1909 C1913 1.400 . S
C1910 H1895 0.960 . S
C1910 H1896 0.960 . S
C1910 H1897 0.960 . S
C1910 C1909 1.524 . S
C1911 C1908 1.403 . S
C1911 C1912 1.392 . S
C1911 C1915 1.495 . S
C1912 C1911 1.392 . S
C1912 C1913 1.385 . S
C1912 C1914 1.478 . S
C1913 H1907 0.930 . S
C1913 C1909 1.400 . S
C1913 C1912 1.385 . S
C1914 C1912 1.478 . S
C1914 C1916 1.381 . S
C1914 C1920 1.383 . S
C1915 C1911 1.495 . S
C1915 H1921 0.959 . S
C1915 H1922 0.961 . S
C1915 H1923 0.960 . S
C1916 C1914 1.381 . S
C1916 C1917 1.394 . S
C1916 H1924 0.930 . S
C1917 C1916 1.394 . S
C1917 C1918 1.383 . S
C1917 H1925 0.929 . S
C1918 C1917 1.383 . S
C1918 C1919 1.377 . S
C1919 H1903 0.930 . S
C1919 C1918 1.377 . S
C1919 C1920 1.379 . S
C1920 H1904 0.931 . S
C1920 C1914 1.383 . S
C1920 C1919 1.379 . S
H1921 C1915 0.959 . S
H1922 C1915 0.961 . S
H1923 C1915 0.960 . S
H1924 C1916 0.930 . S
H1925 C1917 0.929 . S
H1926 C1934 0.929 . S
H1927 C1936 0.930 . S
H1928 C1938 0.930 . S
H1929 C1941 0.929 . S
H1930 C1944 0.930 . S
H1931 C1946 0.960 . S
H1932 C1946 0.960 . S
H1933 C1946 0.960 . S
C1934 H1926 0.929 . S
C1934 C1935 1.377 . S
C1934 C1936 1.384 . S
C1935 C1934 1.377 . S
C1935 C1941 1.390 . S
C1936 H1927 0.930 . S
C1936 C1934 1.384 . S
C1936 C1937 1.372 . S
C1937 C1936 1.372 . S
C1937 C1938 1.400 . S
C1937 C1942 1.490 . S
C1938 H1928 0.930 . S
C1938 C1937 1.400 . S
C1938 C1941 1.386 . S
H1939 C1955 0.930 . S
H1940 C1956 0.931 . S
C1941 H1929 0.929 . S
C1941 C1935 1.390 . S
C1941 C1938 1.386 . S
C1942 C1937 1.490 . S
C1942 C1944 1.395 . S
C1942 C1945 1.403 . S
H1943 C1949 0.930 . S
C1944 H1930 0.930 . S
C1944 C1942 1.395 . S
C1944 C1947 1.403 . S
C1945 C1942 1.403 . S
C1945 C1946 1.524 . S
C1945 C1949 1.400 . S
C1946 H1931 0.960 . S
C1946 H1932 0.960 . S
C1946 H1933 0.960 . S
C1946 C1945 1.524 . S
C1947 C1944 1.403 . S
C1947 C1948 1.392 . S
C1947 C1951 1.495 . S
C1948 C1947 1.392 . S
C1948 C1949 1.385 . S
C1948 C1950 1.478 . S
C1949 H1943 0.930 . S
C1949 C1945 1.400 . S
C1949 C1948 1.385 . S
C1950 C1948 1.478 . S
C1950 C1952 1.381 . S
C1950 C1956 1.383 . S
C1951 C1947 1.495 . S
C1951 H1957 0.959 . S
C1951 H1958 0.961 . S
C1951 H1959 0.960 . S
C1952 C1950 1.381 . S
C1952 C1953 1.394 . S
C1952 H1960 0.930 . S
C1953 C1952 1.394 . S
C1953 C1954 1.383 . S
C1953 H1961 0.929 . S
C1954 C1953 1.383 . S
C1954 C1955 1.377 . S
C1955 H1939 0.930 . S
C1955 C1954 1.377 . S
C1955 C1956 1.379 . S
C1956 H1940 0.931 . S
C1956 C1950 1.383 . S
C1956 C1955 1.379 . S
H1957 C1951 0.959 . S
H1958 C1951 0.961 . S
H1959 C1951 0.960 . S
H1960 C1952 0.930 . S
H1961 C1953 0.929 . S
H1962 C1970 0.929 . S
H1963 C1972 0.930 . S
H1964 C1974 0.930 . S
H1965 C1977 0.929 . S
H1966 C1980 0.930 . S
H1967 C1982 0.960 . S
H1968 C1982 0.960 . S
H1969 C1982 0.960 . S
C1970 H1962 0.929 . S
C1970 C1971 1.377 . S
C1970 C1972 1.384 . S
C1971 C1970 1.377 . S
C1971 C1977 1.390 . S
C1972 H1963 0.930 . S
C1972 C1970 1.384 . S
C1972 C1973 1.372 . S
C1973 C1972 1.372 . S
C1973 C1974 1.400 . S
C1973 C1978 1.490 . S
C1974 H1964 0.930 . S
C1974 C1973 1.400 . S
C1974 C1977 1.386 . S
H1975 C1991 0.930 . S
H1976 C1992 0.931 . S
C1977 H1965 0.929 . S
C1977 C1971 1.390 . S
C1977 C1974 1.386 . S
C1978 C1973 1.490 . S
C1978 C1980 1.395 . S
C1978 C1981 1.403 . S
H1979 C1985 0.930 . S
C1980 H1966 0.930 . S
C1980 C1978 1.395 . S
C1980 C1983 1.403 . S
C1981 C1978 1.403 . S
C1981 C1982 1.524 . S
C1981 C1985 1.400 . S
C1982 H1967 0.960 . S
C1982 H1968 0.960 . S
C1982 H1969 0.960 . S
C1982 C1981 1.524 . S
C1983 C1980 1.403 . S
C1983 C1984 1.392 . S
C1983 C1987 1.495 . S
C1984 C1983 1.392 . S
C1984 C1985 1.385 . S
C1984 C1986 1.478 . S
C1985 H1979 0.930 . S
C1985 C1981 1.400 . S
C1985 C1984 1.385 . S
C1986 C1984 1.478 . S
C1986 C1988 1.381 . S
C1986 C1992 1.383 . S
C1987 C1983 1.495 . S
C1987 H1993 0.959 . S
C1987 H1994 0.961 . S
C1987 H1995 0.960 . S
C1988 C1986 1.381 . S
C1988 C1989 1.394 . S
C1988 H1996 0.930 . S
C1989 C1988 1.394 . S
C1989 C1990 1.383 . S
C1989 H1997 0.929 . S
C1990 C1989 1.383 . S
C1990 C1991 1.377 . S
C1991 H1975 0.930 . S
C1991 C1990 1.377 . S
C1991 C1992 1.379 . S
C1992 H1976 0.931 . S
C1992 C1986 1.383 . S
C1992 C1991 1.379 . S
H1993 C1987 0.959 . S
H1994 C1987 0.961 . S
H1995 C1987 0.960 . S
H1996 C1988 0.930 . S
H1997 C1989 0.929 . S
H1998 C2006 0.929 . S
H1999 C2008 0.930 . S
H2000 C2010 0.930 . S
H2001 C2013 0.929 . S
H2002 C2016 0.930 . S
H2003 C2018 0.960 . S
H2004 C2018 0.960 . S
H2005 C2018 0.960 . S
C2006 H1998 0.929 . S
C2006 C2007 1.377 . S
C2006 C2008 1.384 . S
C2007 C2006 1.377 . S
C2007 C2013 1.390 . S
C2008 H1999 0.930 . S
C2008 C2006 1.384 . S
C2008 C2009 1.372 . S
C2009 C2008 1.372 . S
C2009 C2010 1.400 . S
C2009 C2014 1.490 . S
C2010 H2000 0.930 . S
C2010 C2009 1.400 . S
C2010 C2013 1.386 . S
H2011 C2027 0.930 . S
H2012 C2028 0.931 . S
C2013 H2001 0.929 . S
C2013 C2007 1.390 . S
C2013 C2010 1.386 . S
C2014 C2009 1.490 . S
C2014 C2016 1.395 . S
C2014 C2017 1.403 . S
H2015 C2021 0.930 . S
C2016 H2002 0.930 . S
C2016 C2014 1.395 . S
C2016 C2019 1.403 . S
C2017 C2014 1.403 . S
C2017 C2018 1.524 . S
C2017 C2021 1.400 . S
C2018 H2003 0.960 . S
C2018 H2004 0.960 . S
C2018 H2005 0.960 . S
C2018 C2017 1.524 . S
C2019 C2016 1.403 . S
C2019 C2020 1.392 . S
C2019 C2023 1.495 . S
C2020 C2019 1.392 . S
C2020 C2021 1.385 . S
C2020 C2022 1.478 . S
C2021 H2015 0.930 . S
C2021 C2017 1.400 . S
C2021 C2020 1.385 . S
C2022 C2020 1.478 . S
C2022 C2024 1.381 . S
C2022 C2028 1.383 . S
C2023 C2019 1.495 . S
C2023 H2029 0.959 . S
C2023 H2030 0.961 . S
C2023 H2031 0.960 . S
C2024 C2022 1.381 . S
C2024 C2025 1.394 . S
C2024 H2032 0.930 . S
C2025 C2024 1.394 . S
C2025 C2026 1.383 . S
C2025 H2033 0.929 . S
C2026 C2025 1.383 . S
C2026 C2027 1.377 . S
C2027 H2011 0.930 . S
C2027 C2026 1.377 . S
C2027 C2028 1.379 . S
C2028 H2012 0.931 . S
C2028 C2022 1.383 . S
C2028 C2027 1.379 . S
H2029 C2023 0.959 . S
H2030 C2023 0.961 . S
H2031 C2023 0.960 . S
H2032 C2024 0.930 . S
H2033 C2025 0.929 . S
H2034 C2042 0.929 . S
H2035 C2044 0.930 . S
H2036 C2046 0.930 . S
H2037 C2049 0.929 . S
H2038 C2052 0.930 . S
H2039 C2054 0.960 . S
H2040 C2054 0.960 . S
H2041 C2054 0.960 . S
C2042 H2034 0.929 . S
C2042 C2043 1.377 . S
C2042 C2044 1.384 . S
C2043 C2042 1.377 . S
C2043 C2049 1.390 . S
C2044 H2035 0.930 . S
C2044 C2042 1.384 . S
C2044 C2045 1.372 . S
C2045 C2044 1.372 . S
C2045 C2046 1.400 . S
C2045 C2050 1.490 . S
C2046 H2036 0.930 . S
C2046 C2045 1.400 . S
C2046 C2049 1.386 . S
H2047 C2063 0.930 . S
H2048 C2064 0.931 . S
C2049 H2037 0.929 . S
C2049 C2043 1.390 . S
C2049 C2046 1.386 . S
C2050 C2045 1.490 . S
C2050 C2052 1.395 . S
C2050 C2053 1.403 . S
H2051 C2057 0.930 . S
C2052 H2038 0.930 . S
C2052 C2050 1.395 . S
C2052 C2055 1.403 . S
C2053 C2050 1.403 . S
C2053 C2054 1.524 . S
C2053 C2057 1.400 . S
C2054 H2039 0.960 . S
C2054 H2040 0.960 . S
C2054 H2041 0.960 . S
C2054 C2053 1.524 . S
C2055 C2052 1.403 . S
C2055 C2056 1.392 . S
C2055 C2059 1.495 . S
C2056 C2055 1.392 . S
C2056 C2057 1.385 . S
C2056 C2058 1.478 . S
C2057 H2051 0.930 . S
C2057 C2053 1.400 . S
C2057 C2056 1.385 . S
C2058 C2056 1.478 . S
C2058 C2060 1.381 . S
C2058 C2064 1.383 . S
C2059 C2055 1.495 . S
C2059 H2065 0.959 . S
C2059 H2066 0.961 . S
C2059 H2067 0.960 . S
C2060 C2058 1.381 . S
C2060 C2061 1.394 . S
C2060 H2068 0.930 . S
C2061 C2060 1.394 . S
C2061 C2062 1.383 . S
C2061 H2069 0.929 . S
C2062 C2061 1.383 . S
C2062 C2063 1.377 . S
C2063 H2047 0.930 . S
C2063 C2062 1.377 . S
C2063 C2064 1.379 . S
C2064 H2048 0.931 . S
C2064 C2058 1.383 . S
C2064 C2063 1.379 . S
H2065 C2059 0.959 . S
H2066 C2059 0.961 . S
H2067 C2059 0.960 . S
H2068 C2060 0.930 . S
H2069 C2061 0.929 . S
H2070 C2078 0.929 . S
H2071 C2080 0.930 . S
H2072 C2082 0.930 . S
H2073 C2085 0.929 . S
H2074 C2088 0.930 . S
H2075 C2090 0.960 . S
H2076 C2090 0.960 . S
H2077 C2090 0.960 . S
C2078 H2070 0.929 . S
C2078 C2079 1.377 . S
C2078 C2080 1.384 . S
C2079 C2078 1.377 . S
C2079 C2085 1.390 . S
C2080 H2071 0.930 . S
C2080 C2078 1.384 . S
C2080 C2081 1.372 . S
C2081 C2080 1.372 . S
C2081 C2082 1.400 . S
C2081 C2086 1.490 . S
C2082 H2072 0.930 . S
C2082 C2081 1.400 . S
C2082 C2085 1.386 . S
H2083 C2099 0.930 . S
H2084 C2100 0.931 . S
C2085 H2073 0.929 . S
C2085 C2079 1.390 . S
C2085 C2082 1.386 . S
C2086 C2081 1.490 . S
C2086 C2088 1.395 . S
C2086 C2089 1.403 . S
H2087 C2093 0.930 . S
C2088 H2074 0.930 . S
C2088 C2086 1.395 . S
C2088 C2091 1.403 . S
C2089 C2086 1.403 . S
C2089 C2090 1.524 . S
C2089 C2093 1.400 . S
C2090 H2075 0.960 . S
C2090 H2076 0.960 . S
C2090 H2077 0.960 . S
C2090 C2089 1.524 . S
C2091 C2088 1.403 . S
C2091 C2092 1.392 . S
C2091 C2095 1.495 . S
C2092 C2091 1.392 . S
C2092 C2093 1.385 . S
C2092 C2094 1.478 . S
C2093 H2087 0.930 . S
C2093 C2089 1.400 . S
C2093 C2092 1.385 . S
C2094 C2092 1.478 . S
C2094 C2096 1.381 . S
C2094 C2100 1.383 . S
C2095 C2091 1.495 . S
C2095 H2101 0.959 . S
C2095 H2102 0.961 . S
C2095 H2103 0.960 . S
C2096 C2094 1.381 . S
C2096 C2097 1.394 . S
C2096 H2104 0.930 . S
C2097 C2096 1.394 . S
C2097 C2098 1.383 . S
C2097 H2105 0.929 . S
C2098 C2097 1.383 . S
C2098 C2099 1.377 . S
C2099 H2083 0.930 . S
C2099 C2098 1.377 . S
C2099 C2100 1.379 . S
C2100 H2084 0.931 . S
C2100 C2094 1.383 . S
C2100 C2099 1.379 . S
H2101 C2095 0.959 . S
H2102 C2095 0.961 . S
H2103 C2095 0.960 . S
H2104 C2096 0.930 . S
H2105 C2097 0.929 . S
H2106 C2114 0.929 . S
H2107 C2116 0.930 . S
H2108 C2118 0.930 . S
H2109 C2121 0.929 . S
H2110 C2124 0.930 . S
H2111 C2126 0.960 . S
H2112 C2126 0.960 . S
H2113 C2126 0.960 . S
C2114 H2106 0.929 . S
C2114 C2115 1.377 . S
C2114 C2116 1.384 . S
C2115 C2114 1.377 . S
C2115 C2121 1.390 . S
C2116 H2107 0.930 . S
C2116 C2114 1.384 . S
C2116 C2117 1.372 . S
C2117 C2116 1.372 . S
C2117 C2118 1.400 . S
C2117 C2122 1.490 . S
C2118 H2108 0.930 . S
C2118 C2117 1.400 . S
C2118 C2121 1.386 . S
H2119 C2135 0.930 . S
H2120 C2136 0.931 . S
C2121 H2109 0.929 . S
C2121 C2115 1.390 . S
C2121 C2118 1.386 . S
C2122 C2117 1.490 . S
C2122 C2124 1.395 . S
C2122 C2125 1.403 . S
H2123 C2129 0.930 . S
C2124 H2110 0.930 . S
C2124 C2122 1.395 . S
C2124 C2127 1.403 . S
C2125 C2122 1.403 . S
C2125 C2126 1.524 . S
C2125 C2129 1.400 . S
C2126 H2111 0.960 . S
C2126 H2112 0.960 . S
C2126 H2113 0.960 . S
C2126 C2125 1.524 . S
C2127 C2124 1.403 . S
C2127 C2128 1.392 . S
C2127 C2131 1.495 . S
C2128 C2127 1.392 . S
C2128 C2129 1.385 . S
C2128 C2130 1.478 . S
C2129 H2123 0.930 . S
C2129 C2125 1.400 . S
C2129 C2128 1.385 . S
C2130 C2128 1.478 . S
C2130 C2132 1.381 . S
C2130 C2136 1.383 . S
C2131 C2127 1.495 . S
C2131 H2137 0.959 . S
C2131 H2138 0.961 . S
C2131 H2139 0.960 . S
C2132 C2130 1.381 . S
C2132 C2133 1.394 . S
C2132 H2140 0.930 . S
C2133 C2132 1.394 . S
C2133 C2134 1.383 . S
C2133 H2141 0.929 . S
C2134 C2133 1.383 . S
C2134 C2135 1.377 . S
C2135 H2119 0.930 . S
C2135 C2134 1.377 . S
C2135 C2136 1.379 . S
C2136 H2120 0.931 . S
C2136 C2130 1.383 . S
C2136 C2135 1.379 . S
H2137 C2131 0.959 . S
H2138 C2131 0.961 . S
H2139 C2131 0.960 . S
H2140 C2132 0.930 . S
H2141 C2133 0.929 . S
H2142 C2150 0.929 . S
H2143 C2152 0.930 . S
H2144 C2154 0.930 . S
H2145 C2157 0.929 . S
H2146 C2160 0.930 . S
H2147 C2162 0.960 . S
H2148 C2162 0.960 . S
H2149 C2162 0.960 . S
C2150 H2142 0.929 . S
C2150 C2151 1.377 . S
C2150 C2152 1.384 . S
C2151 C2150 1.377 . S
C2151 C2157 1.390 . S
C2152 H2143 0.930 . S
C2152 C2150 1.384 . S
C2152 C2153 1.372 . S
C2153 C2152 1.372 . S
C2153 C2154 1.400 . S
C2153 C2158 1.490 . S
C2154 H2144 0.930 . S
C2154 C2153 1.400 . S
C2154 C2157 1.386 . S
H2155 C2171 0.930 . S
H2156 C2172 0.931 . S
C2157 H2145 0.929 . S
C2157 C2151 1.390 . S
C2157 C2154 1.386 . S
C2158 C2153 1.490 . S
C2158 C2160 1.395 . S
C2158 C2161 1.403 . S
H2159 C2165 0.930 . S
C2160 H2146 0.930 . S
C2160 C2158 1.395 . S
C2160 C2163 1.403 . S
C2161 C2158 1.403 . S
C2161 C2162 1.524 . S
C2161 C2165 1.400 . S
C2162 H2147 0.960 . S
C2162 H2148 0.960 . S
C2162 H2149 0.960 . S
C2162 C2161 1.524 . S
C2163 C2160 1.403 . S
C2163 C2164 1.392 . S
C2163 C2167 1.495 . S
C2164 C2163 1.392 . S
C2164 C2165 1.385 . S
C2164 C2166 1.478 . S
C2165 H2159 0.930 . S
C2165 C2161 1.400 . S
C2165 C2164 1.385 . S
C2166 C2164 1.478 . S
C2166 C2168 1.381 . S
C2166 C2172 1.383 . S
C2167 C2163 1.495 . S
C2167 H2173 0.959 . S
C2167 H2174 0.961 . S
C2167 H2175 0.960 . S
C2168 C2166 1.381 . S
C2168 C2169 1.394 . S
C2168 H2176 0.930 . S
C2169 C2168 1.394 . S
C2169 C2170 1.383 . S
C2169 H2177 0.929 . S
C2170 C2169 1.383 . S
C2170 C2171 1.377 . S
C2171 H2155 0.930 . S
C2171 C2170 1.377 . S
C2171 C2172 1.379 . S
C2172 H2156 0.931 . S
C2172 C2166 1.383 . S
C2172 C2171 1.379 . S
H2173 C2167 0.959 . S
H2174 C2167 0.961 . S
H2175 C2167 0.960 . S
H2176 C2168 0.930 . S
H2177 C2169 0.929 . S
H2178 C2186 0.929 . S
H2179 C2188 0.930 . S
H2180 C2190 0.930 . S
H2181 C2193 0.929 . S
H2182 C2196 0.930 . S
H2183 C2198 0.960 . S
H2184 C2198 0.960 . S
H2185 C2198 0.960 . S
C2186 H2178 0.929 . S
C2186 C2187 1.377 . S
C2186 C2188 1.384 . S
C2187 C2186 1.377 . S
C2187 C2193 1.390 . S
C2188 H2179 0.930 . S
C2188 C2186 1.384 . S
C2188 C2189 1.372 . S
C2189 C2188 1.372 . S
C2189 C2190 1.400 . S
C2189 C2194 1.490 . S
C2190 H2180 0.930 . S
C2190 C2189 1.400 . S
C2190 C2193 1.386 . S
H2191 C2207 0.930 . S
H2192 C2208 0.931 . S
C2193 H2181 0.929 . S
C2193 C2187 1.390 . S
C2193 C2190 1.386 . S
C2194 C2189 1.490 . S
C2194 C2196 1.395 . S
C2194 C2197 1.403 . S
H2195 C2201 0.930 . S
C2196 H2182 0.930 . S
C2196 C2194 1.395 . S
C2196 C2199 1.403 . S
C2197 C2194 1.403 . S
C2197 C2198 1.524 . S
C2197 C2201 1.400 . S
C2198 H2183 0.960 . S
C2198 H2184 0.960 . S
C2198 H2185 0.960 . S
C2198 C2197 1.524 . S
C2199 C2196 1.403 . S
C2199 C2200 1.392 . S
C2199 C2203 1.495 . S
C2200 C2199 1.392 . S
C2200 C2201 1.385 . S
C2200 C2202 1.478 . S
C2201 H2195 0.930 . S
C2201 C2197 1.400 . S
C2201 C2200 1.385 . S
C2202 C2200 1.478 . S
C2202 C2204 1.381 . S
C2202 C2208 1.383 . S
C2203 C2199 1.495 . S
C2203 H2209 0.959 . S
C2203 H2210 0.961 . S
C2203 H2211 0.960 . S
C2204 C2202 1.381 . S
C2204 C2205 1.394 . S
C2204 H2212 0.930 . S
C2205 C2204 1.394 . S
C2205 C2206 1.383 . S
C2205 H2213 0.929 . S
C2206 C2205 1.383 . S
C2206 C2207 1.377 . S
C2207 H2191 0.930 . S
C2207 C2206 1.377 . S
C2207 C2208 1.379 . S
C2208 H2192 0.931 . S
C2208 C2202 1.383 . S
C2208 C2207 1.379 . S
H2209 C2203 0.959 . S
H2210 C2203 0.961 . S
H2211 C2203 0.960 . S
H2212 C2204 0.930 . S
H2213 C2205 0.929 . S
H2214 C2222 0.929 . S
H2215 C2224 0.930 . S
H2216 C2226 0.930 . S
H2217 C2229 0.929 . S
H2218 C2232 0.930 . S
H2219 C2234 0.960 . S
H2220 C2234 0.960 . S
H2221 C2234 0.960 . S
C2222 H2214 0.929 . S
C2222 C2223 1.377 . S
C2222 C2224 1.384 . S
C2223 C2222 1.377 . S
C2223 C2229 1.390 . S
C2224 H2215 0.930 . S
C2224 C2222 1.384 . S
C2224 C2225 1.372 . S
C2225 C2224 1.372 . S
C2225 C2226 1.400 . S
C2225 C2230 1.490 . S
C2226 H2216 0.930 . S
C2226 C2225 1.400 . S
C2226 C2229 1.386 . S
H2227 C2243 0.930 . S
H2228 C2244 0.931 . S
C2229 H2217 0.929 . S
C2229 C2223 1.390 . S
C2229 C2226 1.386 . S
C2230 C2225 1.490 . S
C2230 C2232 1.395 . S
C2230 C2233 1.403 . S
H2231 C2237 0.930 . S
C2232 H2218 0.930 . S
C2232 C2230 1.395 . S
C2232 C2235 1.403 . S
C2233 C2230 1.403 . S
C2233 C2234 1.524 . S
C2233 C2237 1.400 . S
C2234 H2219 0.960 . S
C2234 H2220 0.960 . S
C2234 H2221 0.960 . S
C2234 C2233 1.524 . S
C2235 C2232 1.403 . S
C2235 C2236 1.392 . S
C2235 C2239 1.495 . S
C2236 C2235 1.392 . S
C2236 C2237 1.385 . S
C2236 C2238 1.478 . S
C2237 H2231 0.930 . S
C2237 C2233 1.400 . S
C2237 C2236 1.385 . S
C2238 C2236 1.478 . S
C2238 C2240 1.381 . S
C2238 C2244 1.383 . S
C2239 C2235 1.495 . S
C2239 H2245 0.959 . S
C2239 H2246 0.961 . S
C2239 H2247 0.960 . S
C2240 C2238 1.381 . S
C2240 C2241 1.394 . S
C2240 H2248 0.930 . S
C2241 C2240 1.394 . S
C2241 C2242 1.383 . S
C2241 H2249 0.929 . S
C2242 C2241 1.383 . S
C2242 C2243 1.377 . S
C2243 H2227 0.930 . S
C2243 C2242 1.377 . S
C2243 C2244 1.379 . S
C2244 H2228 0.931 . S
C2244 C2238 1.383 . S
C2244 C2243 1.379 . S
H2245 C2239 0.959 . S
H2246 C2239 0.961 . S
H2247 C2239 0.960 . S
H2248 C2240 0.930 . S
H2249 C2241 0.929 . S
H2250 C2258 0.929 . S
H2251 C2260 0.930 . S
H2252 C2262 0.930 . S
H2253 C2265 0.929 . S
H2254 C2268 0.930 . S
H2255 C2270 0.960 . S
H2256 C2270 0.960 . S
H2257 C2270 0.960 . S
C2258 H2250 0.929 . S
C2258 C2259 1.377 . S
C2258 C2260 1.384 . S
C2259 C2258 1.377 . S
C2259 C2265 1.390 . S
C2260 H2251 0.930 . S
C2260 C2258 1.384 . S
C2260 C2261 1.372 . S
C2261 C2260 1.372 . S
C2261 C2262 1.400 . S
C2261 C2266 1.490 . S
C2262 H2252 0.930 . S
C2262 C2261 1.400 . S
C2262 C2265 1.386 . S
H2263 C2279 0.930 . S
H2264 C2280 0.931 . S
C2265 H2253 0.929 . S
C2265 C2259 1.390 . S
C2265 C2262 1.386 . S
C2266 C2261 1.490 . S
C2266 C2268 1.395 . S
C2266 C2269 1.403 . S
H2267 C2273 0.930 . S
C2268 H2254 0.930 . S
C2268 C2266 1.395 . S
C2268 C2271 1.403 . S
C2269 C2266 1.403 . S
C2269 C2270 1.524 . S
C2269 C2273 1.400 . S
C2270 H2255 0.960 . S
C2270 H2256 0.960 . S
C2270 H2257 0.960 . S
C2270 C2269 1.524 . S
C2271 C2268 1.403 . S
C2271 C2272 1.392 . S
C2271 C2275 1.495 . S
C2272 C2271 1.392 . S
C2272 C2273 1.385 . S
C2272 C2274 1.478 . S
C2273 H2267 0.930 . S
C2273 C2269 1.400 . S
C2273 C2272 1.385 . S
C2274 C2272 1.478 . S
C2274 C2276 1.381 . S
C2274 C2280 1.383 . S
C2275 C2271 1.495 . S
C2275 H2281 0.959 . S
C2275 H2282 0.961 . S
C2275 H2283 0.960 . S
C2276 C2274 1.381 . S
C2276 C2277 1.394 . S
C2276 H2284 0.930 . S
C2277 C2276 1.394 . S
C2277 C2278 1.383 . S
C2277 H2285 0.929 . S
C2278 C2277 1.383 . S
C2278 C2279 1.377 . S
C2279 H2263 0.930 . S
C2279 C2278 1.377 . S
C2279 C2280 1.379 . S
C2280 H2264 0.931 . S
C2280 C2274 1.383 . S
C2280 C2279 1.379 . S
H2281 C2275 0.959 . S
H2282 C2275 0.961 . S
H2283 C2275 0.960 . S
H2284 C2276 0.930 . S
H2285 C2277 0.929 . S
H2286 C2294 0.929 . S
H2287 C2296 0.930 . S
H2288 C2298 0.930 . S
H2289 C2301 0.929 . S
H2290 C2304 0.930 . S
H2291 C2306 0.960 . S
H2292 C2306 0.960 . S
H2293 C2306 0.960 . S
C2294 H2286 0.929 . S
C2294 C2295 1.377 . S
C2294 C2296 1.384 . S
C2295 C2294 1.377 . S
C2295 C2301 1.390 . S
C2296 H2287 0.930 . S
C2296 C2294 1.384 . S
C2296 C2297 1.372 . S
C2297 C2296 1.372 . S
C2297 C2298 1.400 . S
C2297 C2302 1.490 . S
C2298 H2288 0.930 . S
C2298 C2297 1.400 . S
C2298 C2301 1.386 . S
H2299 C2315 0.930 . S
H2300 C2316 0.931 . S
C2301 H2289 0.929 . S
C2301 C2295 1.390 . S
C2301 C2298 1.386 . S
C2302 C2297 1.490 . S
C2302 C2304 1.395 . S
C2302 C2305 1.403 . S
H2303 C2309 0.930 . S
C2304 H2290 0.930 . S
C2304 C2302 1.395 . S
C2304 C2307 1.403 . S
C2305 C2302 1.403 . S
C2305 C2306 1.524 . S
C2305 C2309 1.400 . S
C2306 H2291 0.960 . S
C2306 H2292 0.960 . S
C2306 H2293 0.960 . S
C2306 C2305 1.524 . S
C2307 C2304 1.403 . S
C2307 C2308 1.392 . S
C2307 C2311 1.495 . S
C2308 C2307 1.392 . S
C2308 C2309 1.385 . S
C2308 C2310 1.478 . S
C2309 H2303 0.930 . S
C2309 C2305 1.400 . S
C2309 C2308 1.385 . S
C2310 C2308 1.478 . S
C2310 C2312 1.381 . S
C2310 C2316 1.383 . S
C2311 C2307 1.495 . S
C2311 H2317 0.959 . S
C2311 H2318 0.961 . S
C2311 H2319 0.960 . S
C2312 C2310 1.381 . S
C2312 C2313 1.394 . S
C2312 H2320 0.930 . S
C2313 C2312 1.394 . S
C2313 C2314 1.383 . S
C2313 H2321 0.929 . S
C2314 C2313 1.383 . S
C2314 C2315 1.377 . S
C2315 H2299 0.930 . S
C2315 C2314 1.377 . S
C2315 C2316 1.379 . S
C2316 H2300 0.931 . S
C2316 C2310 1.383 . S
C2316 C2315 1.379 . S
H2317 C2311 0.959 . S
H2318 C2311 0.961 . S
H2319 C2311 0.960 . S
H2320 C2312 0.930 . S
H2321 C2313 0.929 . S
H2322 C2330 0.929 . S
H2323 C2332 0.930 . S
H2324 C2334 0.930 . S
H2325 C2337 0.929 . S
H2326 C2340 0.930 . S
H2327 C2342 0.960 . S
H2328 C2342 0.960 . S
H2329 C2342 0.960 . S
C2330 H2322 0.929 . S
C2330 C2331 1.377 . S
C2330 C2332 1.384 . S
C2331 C2330 1.377 . S
C2331 C2337 1.390 . S
C2332 H2323 0.930 . S
C2332 C2330 1.384 . S
C2332 C2333 1.372 . S
C2333 C2332 1.372 . S
C2333 C2334 1.400 . S
C2333 C2338 1.490 . S
C2334 H2324 0.930 . S
C2334 C2333 1.400 . S
C2334 C2337 1.386 . S
H2335 C2351 0.930 . S
H2336 C2352 0.931 . S
C2337 H2325 0.929 . S
C2337 C2331 1.390 . S
C2337 C2334 1.386 . S
C2338 C2333 1.490 . S
C2338 C2340 1.395 . S
C2338 C2341 1.403 . S
H2339 C2345 0.930 . S
C2340 H2326 0.930 . S
C2340 C2338 1.395 . S
C2340 C2343 1.403 . S
C2341 C2338 1.403 . S
C2341 C2342 1.524 . S
C2341 C2345 1.400 . S
C2342 H2327 0.960 . S
C2342 H2328 0.960 . S
C2342 H2329 0.960 . S
C2342 C2341 1.524 . S
C2343 C2340 1.403 . S
C2343 C2344 1.392 . S
C2343 C2347 1.495 . S
C2344 C2343 1.392 . S
C2344 C2345 1.385 . S
C2344 C2346 1.478 . S
C2345 H2339 0.930 . S
C2345 C2341 1.400 . S
C2345 C2344 1.385 . S
C2346 C2344 1.478 . S
C2346 C2348 1.381 . S
C2346 C2352 1.383 . S
C2347 C2343 1.495 . S
C2347 H2353 0.959 . S
C2347 H2354 0.961 . S
C2347 H2355 0.960 . S
C2348 C2346 1.381 . S
C2348 C2349 1.394 . S
C2348 H2356 0.930 . S
C2349 C2348 1.394 . S
C2349 C2350 1.383 . S
C2349 H2357 0.929 . S
C2350 C2349 1.383 . S
C2350 C2351 1.377 . S
C2351 H2335 0.930 . S
C2351 C2350 1.377 . S
C2351 C2352 1.379 . S
C2352 H2336 0.931 . S
C2352 C2346 1.383 . S
C2352 C2351 1.379 . S
H2353 C2347 0.959 . S
H2354 C2347 0.961 . S
H2355 C2347 0.960 . S
H2356 C2348 0.930 . S
H2357 C2349 0.929 . S
H2358 C2366 0.929 . S
H2359 C2368 0.930 . S
H2360 C2370 0.930 . S
H2361 C2373 0.929 . S
H2362 C2376 0.930 . S
H2363 C2378 0.960 . S
H2364 C2378 0.960 . S
H2365 C2378 0.960 . S
C2366 H2358 0.929 . S
C2366 C2367 1.377 . S
C2366 C2368 1.384 . S
C2367 C2366 1.377 . S
C2367 C2373 1.390 . S
C2368 H2359 0.930 . S
C2368 C2366 1.384 . S
C2368 C2369 1.372 . S
C2369 C2368 1.372 . S
C2369 C2370 1.400 . S
C2369 C2374 1.490 . S
C2370 H2360 0.930 . S
C2370 C2369 1.400 . S
C2370 C2373 1.386 . S
H2371 C2387 0.930 . S
H2372 C2388 0.931 . S
C2373 H2361 0.929 . S
C2373 C2367 1.390 . S
C2373 C2370 1.386 . S
C2374 C2369 1.490 . S
C2374 C2376 1.395 . S
C2374 C2377 1.403 . S
H2375 C2381 0.930 . S
C2376 H2362 0.930 . S
C2376 C2374 1.395 . S
C2376 C2379 1.403 . S
C2377 C2374 1.403 . S
C2377 C2378 1.524 . S
C2377 C2381 1.400 . S
C2378 H2363 0.960 . S
C2378 H2364 0.960 . S
C2378 H2365 0.960 . S
C2378 C2377 1.524 . S
C2379 C2376 1.403 . S
C2379 C2380 1.392 . S
C2379 C2383 1.495 . S
C2380 C2379 1.392 . S
C2380 C2381 1.385 . S
C2380 C2382 1.478 . S
C2381 H2375 0.930 . S
C2381 C2377 1.400 . S
C2381 C2380 1.385 . S
C2382 C2380 1.478 . S
C2382 C2384 1.381 . S
C2382 C2388 1.383 . S
C2383 C2379 1.495 . S
C2383 H2389 0.959 . S
C2383 H2390 0.961 . S
C2383 H2391 0.960 . S
C2384 C2382 1.381 . S
C2384 C2385 1.394 . S
C2384 H2392 0.930 . S
C2385 C2384 1.394 . S
C2385 C2386 1.383 . S
C2385 H2393 0.929 . S
C2386 C2385 1.383 . S
C2386 C2387 1.377 . S
C2387 H2371 0.930 . S
C2387 C2386 1.377 . S
C2387 C2388 1.379 . S
C2388 H2372 0.931 . S
C2388 C2382 1.383 . S
C2388 C2387 1.379 . S
H2389 C2383 0.959 . S
H2390 C2383 0.961 . S
H2391 C2383 0.960 . S
H2392 C2384 0.930 . S
H2393 C2385 0.929 . S
H2394 C2402 0.929 . S
H2395 C2404 0.930 . S
H2396 C2406 0.930 . S
H2397 C2409 0.929 . S
H2398 C2412 0.930 . S
H2399 C2414 0.960 . S
H2400 C2414 0.960 . S
H2401 C2414 0.960 . S
C2402 H2394 0.929 . S
C2402 C2403 1.377 . S
C2402 C2404 1.384 . S
C2403 C2402 1.377 . S
C2403 C2409 1.390 . S
C2404 H2395 0.930 . S
C2404 C2402 1.384 . S
C2404 C2405 1.372 . S
C2405 C2404 1.372 . S
C2405 C2406 1.400 . S
C2405 C2410 1.490 . S
C2406 H2396 0.930 . S
C2406 C2405 1.400 . S
C2406 C2409 1.386 . S
H2407 C2423 0.930 . S
H2408 C2424 0.931 . S
C2409 H2397 0.929 . S
C2409 C2403 1.390 . S
C2409 C2406 1.386 . S
C2410 C2405 1.490 . S
C2410 C2412 1.395 . S
C2410 C2413 1.403 . S
H2411 C2417 0.930 . S
C2412 H2398 0.930 . S
C2412 C2410 1.395 . S
C2412 C2415 1.403 . S
C2413 C2410 1.403 . S
C2413 C2414 1.524 . S
C2413 C2417 1.400 . S
C2414 H2399 0.960 . S
C2414 H2400 0.960 . S
C2414 H2401 0.960 . S
C2414 C2413 1.524 . S
C2415 C2412 1.403 . S
C2415 C2416 1.392 . S
C2415 C2419 1.495 . S
C2416 C2415 1.392 . S
C2416 C2417 1.385 . S
C2416 C2418 1.478 . S
C2417 H2411 0.930 . S
C2417 C2413 1.400 . S
C2417 C2416 1.385 . S
C2418 C2416 1.478 . S
C2418 C2420 1.381 . S
C2418 C2424 1.383 . S
C2419 C2415 1.495 . S
C2419 H2425 0.959 . S
C2419 H2426 0.961 . S
C2419 H2427 0.960 . S
C2420 C2418 1.381 . S
C2420 C2421 1.394 . S
C2420 H2428 0.930 . S
C2421 C2420 1.394 . S
C2421 C2422 1.383 . S
C2421 H2429 0.929 . S
C2422 C2421 1.383 . S
C2422 C2423 1.377 . S
C2423 H2407 0.930 . S
C2423 C2422 1.377 . S
C2423 C2424 1.379 . S
C2424 H2408 0.931 . S
C2424 C2418 1.383 . S
C2424 C2423 1.379 . S
H2425 C2419 0.959 . S
H2426 C2419 0.961 . S
H2427 C2419 0.960 . S
H2428 C2420 0.930 . S
H2429 C2421 0.929 . S
H2430 C2438 0.929 . S
H2431 C2440 0.930 . S
H2432 C2442 0.930 . S
H2433 C2445 0.929 . S
H2434 C2448 0.930 . S
H2435 C2450 0.960 . S
H2436 C2450 0.960 . S
H2437 C2450 0.960 . S
C2438 H2430 0.929 . S
C2438 C2439 1.377 . S
C2438 C2440 1.384 . S
C2439 C2438 1.377 . S
C2439 C2445 1.390 . S
C2440 H2431 0.930 . S
C2440 C2438 1.384 . S
C2440 C2441 1.372 . S
C2441 C2440 1.372 . S
C2441 C2442 1.400 . S
C2441 C2446 1.490 . S
C2442 H2432 0.930 . S
C2442 C2441 1.400 . S
C2442 C2445 1.386 . S
H2443 C2459 0.930 . S
H2444 C2460 0.931 . S
C2445 H2433 0.929 . S
C2445 C2439 1.390 . S
C2445 C2442 1.386 . S
C2446 C2441 1.490 . S
C2446 C2448 1.395 . S
C2446 C2449 1.403 . S
H2447 C2453 0.930 . S
C2448 H2434 0.930 . S
C2448 C2446 1.395 . S
C2448 C2451 1.403 . S
C2449 C2446 1.403 . S
C2449 C2450 1.524 . S
C2449 C2453 1.400 . S
C2450 H2435 0.960 . S
C2450 H2436 0.960 . S
C2450 H2437 0.960 . S
C2450 C2449 1.524 . S
C2451 C2448 1.403 . S
C2451 C2452 1.392 . S
C2451 C2455 1.495 . S
C2452 C2451 1.392 . S
C2452 C2453 1.385 . S
C2452 C2454 1.478 . S
C2453 H2447 0.930 . S
C2453 C2449 1.400 . S
C2453 C2452 1.385 . S
C2454 C2452 1.478 . S
C2454 C2456 1.381 . S
C2454 C2460 1.383 . S
C2455 C2451 1.495 . S
C2455 H2461 0.959 . S
C2455 H2462 0.961 . S
C2455 H2463 0.960 . S
C2456 C2454 1.381 . S
C2456 C2457 1.394 . S
C2456 H2464 0.930 . S
C2457 C2456 1.394 . S
C2457 C2458 1.383 . S
C2457 H2465 0.929 . S
C2458 C2457 1.383 . S
C2458 C2459 1.377 . S
C2459 H2443 0.930 . S
C2459 C2458 1.377 . S
C2459 C2460 1.379 . S
C2460 H2444 0.931 . S
C2460 C2454 1.383 . S
C2460 C2459 1.379 . S
H2461 C2455 0.959 . S
H2462 C2455 0.961 . S
H2463 C2455 0.960 . S
H2464 C2456 0.930 . S
H2465 C2457 0.929 . S
H2466 C2474 0.929 . S
H2467 C2476 0.930 . S
H2468 C2478 0.930 . S
H2469 C2481 0.929 . S
H2470 C2484 0.930 . S
H2471 C2486 0.960 . S
H2472 C2486 0.960 . S
H2473 C2486 0.960 . S
C2474 H2466 0.929 . S
C2474 C2475 1.377 . S
C2474 C2476 1.384 . S
C2475 C2474 1.377 . S
C2475 C2481 1.390 . S
C2476 H2467 0.930 . S
C2476 C2474 1.384 . S
C2476 C2477 1.372 . S
C2477 C2476 1.372 . S
C2477 C2478 1.400 . S
C2477 C2482 1.490 . S
C2478 H2468 0.930 . S
C2478 C2477 1.400 . S
C2478 C2481 1.386 . S
H2479 C2495 0.930 . S
H2480 C2496 0.931 . S
C2481 H2469 0.929 . S
C2481 C2475 1.390 . S
C2481 C2478 1.386 . S
C2482 C2477 1.490 . S
C2482 C2484 1.395 . S
C2482 C2485 1.403 . S
H2483 C2489 0.930 . S
C2484 H2470 0.930 . S
C2484 C2482 1.395 . S
C2484 C2487 1.403 . S
C2485 C2482 1.403 . S
C2485 C2486 1.524 . S
C2485 C2489 1.400 . S
C2486 H2471 0.960 . S
C2486 H2472 0.960 . S
C2486 H2473 0.960 . S
C2486 C2485 1.524 . S
C2487 C2484 1.403 . S
C2487 C2488 1.392 . S
C2487 C2491 1.495 . S
C2488 C2487 1.392 . S
C2488 C2489 1.385 . S
C2488 C2490 1.478 . S
C2489 H2483 0.930 . S
C2489 C2485 1.400 . S
C2489 C2488 1.385 . S
C2490 C2488 1.478 . S
C2490 C2492 1.381 . S
C2490 C2496 1.383 . S
C2491 C2487 1.495 . S
C2491 H2497 0.959 . S
C2491 H2498 0.961 . S
C2491 H2499 0.960 . S
C2492 C2490 1.381 . S
C2492 C2493 1.394 . S
C2492 H2500 0.930 . S
C2493 C2492 1.394 . S
C2493 C2494 1.383 . S
C2493 H2501 0.929 . S
C2494 C2493 1.383 . S
C2494 C2495 1.377 . S
C2495 H2479 0.930 . S
C2495 C2494 1.377 . S
C2495 C2496 1.379 . S
C2496 H2480 0.931 . S
C2496 C2490 1.383 . S
C2496 C2495 1.379 . S
H2497 C2491 0.959 . S
H2498 C2491 0.961 . S
H2499 C2491 0.960 . S
H2500 C2492 0.930 . S
H2501 C2493 0.929 . S
H2502 C2510 0.929 . S
H2503 C2512 0.930 . S
H2504 C2514 0.930 . S
H2505 C2517 0.929 . S
H2506 C2520 0.930 . S
H2507 C2522 0.960 . S
H2508 C2522 0.960 . S
H2509 C2522 0.960 . S
C2510 H2502 0.929 . S
C2510 C2511 1.377 . S
C2510 C2512 1.384 . S
C2511 C2510 1.377 . S
C2511 C2517 1.390 . S
C2512 H2503 0.930 . S
C2512 C2510 1.384 . S
C2512 C2513 1.372 . S
C2513 C2512 1.372 . S
C2513 C2514 1.400 . S
C2513 C2518 1.490 . S
C2514 H2504 0.930 . S
C2514 C2513 1.400 . S
C2514 C2517 1.386 . S
H2515 C2531 0.930 . S
H2516 C2532 0.931 . S
C2517 H2505 0.929 . S
C2517 C2511 1.390 . S
C2517 C2514 1.386 . S
C2518 C2513 1.490 . S
C2518 C2520 1.395 . S
C2518 C2521 1.403 . S
H2519 C2525 0.930 . S
C2520 H2506 0.930 . S
C2520 C2518 1.395 . S
C2520 C2523 1.403 . S
C2521 C2518 1.403 . S
C2521 C2522 1.524 . S
C2521 C2525 1.400 . S
C2522 H2507 0.960 . S
C2522 H2508 0.960 . S
C2522 H2509 0.960 . S
C2522 C2521 1.524 . S
C2523 C2520 1.403 . S
C2523 C2524 1.392 . S
C2523 C2527 1.495 . S
C2524 C2523 1.392 . S
C2524 C2525 1.385 . S
C2524 C2526 1.478 . S
C2525 H2519 0.930 . S
C2525 C2521 1.400 . S
C2525 C2524 1.385 . S
C2526 C2524 1.478 . S
C2526 C2528 1.381 . S
C2526 C2532 1.383 . S
C2527 C2523 1.495 . S
C2527 H2533 0.959 . S
C2527 H2534 0.961 . S
C2527 H2535 0.960 . S
C2528 C2526 1.381 . S
C2528 C2529 1.394 . S
C2528 H2536 0.930 . S
C2529 C2528 1.394 . S
C2529 C2530 1.383 . S
C2529 H2537 0.929 . S
C2530 C2529 1.383 . S
C2530 C2531 1.377 . S
C2531 H2515 0.930 . S
C2531 C2530 1.377 . S
C2531 C2532 1.379 . S
C2532 H2516 0.931 . S
C2532 C2526 1.383 . S
C2532 C2531 1.379 . S
H2533 C2527 0.959 . S
H2534 C2527 0.961 . S
H2535 C2527 0.960 . S
H2536 C2528 0.930 . S
H2537 C2529 0.929 . S
H2538 C2546 0.929 . S
H2539 C2548 0.930 . S
H2540 C2550 0.930 . S
H2541 C2553 0.929 . S
H2542 C2556 0.930 . S
H2543 C2558 0.960 . S
H2544 C2558 0.960 . S
H2545 C2558 0.960 . S
C2546 H2538 0.929 . S
C2546 C2547 1.377 . S
C2546 C2548 1.384 . S
C2547 C2546 1.377 . S
C2547 C2553 1.390 . S
C2548 H2539 0.930 . S
C2548 C2546 1.384 . S
C2548 C2549 1.372 . S
C2549 C2548 1.372 . S
C2549 C2550 1.400 . S
C2549 C2554 1.490 . S
C2550 H2540 0.930 . S
C2550 C2549 1.400 . S
C2550 C2553 1.386 . S
H2551 C2567 0.930 . S
H2552 C2568 0.931 . S
C2553 H2541 0.929 . S
C2553 C2547 1.390 . S
C2553 C2550 1.386 . S
C2554 C2549 1.490 . S
C2554 C2556 1.395 . S
C2554 C2557 1.403 . S
H2555 C2561 0.930 . S
C2556 H2542 0.930 . S
C2556 C2554 1.395 . S
C2556 C2559 1.403 . S
C2557 C2554 1.403 . S
C2557 C2558 1.524 . S
C2557 C2561 1.400 . S
C2558 H2543 0.960 . S
C2558 H2544 0.960 . S
C2558 H2545 0.960 . S
C2558 C2557 1.524 . S
C2559 C2556 1.403 . S
C2559 C2560 1.392 . S
C2559 C2563 1.495 . S
C2560 C2559 1.392 . S
C2560 C2561 1.385 . S
C2560 C2562 1.478 . S
C2561 H2555 0.930 . S
C2561 C2557 1.400 . S
C2561 C2560 1.385 . S
C2562 C2560 1.478 . S
C2562 C2564 1.381 . S
C2562 C2568 1.383 . S
C2563 C2559 1.495 . S
C2563 H2569 0.959 . S
C2563 H2570 0.961 . S
C2563 H2571 0.960 . S
C2564 C2562 1.381 . S
C2564 C2565 1.394 . S
C2564 H2572 0.930 . S
C2565 C2564 1.394 . S
C2565 C2566 1.383 . S
C2565 H2573 0.929 . S
C2566 C2565 1.383 . S
C2566 C2567 1.377 . S
C2567 H2551 0.930 . S
C2567 C2566 1.377 . S
C2567 C2568 1.379 . S
C2568 H2552 0.931 . S
C2568 C2562 1.383 . S
C2568 C2567 1.379 . S
H2569 C2563 0.959 . S
H2570 C2563 0.961 . S
H2571 C2563 0.960 . S
H2572 C2564 0.930 . S
H2573 C2565 0.929 . S
H2574 C2582 0.929 . S
H2575 C2584 0.930 . S
H2576 C2586 0.930 . S
H2577 C2589 0.929 . S
H2578 C2592 0.930 . S
H2579 C2594 0.960 . S
H2580 C2594 0.960 . S
H2581 C2594 0.960 . S
C2582 H2574 0.929 . S
C2582 C2583 1.377 . S
C2582 C2584 1.384 . S
C2583 C2582 1.377 . S
C2583 C2589 1.390 . S
C2584 H2575 0.930 . S
C2584 C2582 1.384 . S
C2584 C2585 1.372 . S
C2585 C2584 1.372 . S
C2585 C2586 1.400 . S
C2585 C2590 1.490 . S
C2586 H2576 0.930 . S
C2586 C2585 1.400 . S
C2586 C2589 1.386 . S
H2587 C2603 0.930 . S
H2588 C2604 0.931 . S
C2589 H2577 0.929 . S
C2589 C2583 1.390 . S
C2589 C2586 1.386 . S
C2590 C2585 1.490 . S
C2590 C2592 1.395 . S
C2590 C2593 1.403 . S
H2591 C2597 0.930 . S
C2592 H2578 0.930 . S
C2592 C2590 1.395 . S
C2592 C2595 1.403 . S
C2593 C2590 1.403 . S
C2593 C2594 1.524 . S
C2593 C2597 1.400 . S
C2594 H2579 0.960 . S
C2594 H2580 0.960 . S
C2594 H2581 0.960 . S
C2594 C2593 1.524 . S
C2595 C2592 1.403 . S
C2595 C2596 1.392 . S
C2595 C2599 1.495 . S
C2596 C2595 1.392 . S
C2596 C2597 1.385 . S
C2596 C2598 1.478 . S
C2597 H2591 0.930 . S
C2597 C2593 1.400 . S
C2597 C2596 1.385 . S
C2598 C2596 1.478 . S
C2598 C2600 1.381 . S
C2598 C2604 1.383 . S
C2599 C2595 1.495 . S
C2599 H2605 0.959 . S
C2599 H2606 0.961 . S
C2599 H2607 0.960 . S
C2600 C2598 1.381 . S
C2600 C2601 1.394 . S
C2600 H2608 0.930 . S
C2601 C2600 1.394 . S
C2601 C2602 1.383 . S
C2601 H2609 0.929 . S
C2602 C2601 1.383 . S
C2602 C2603 1.377 . S
C2603 H2587 0.930 . S
C2603 C2602 1.377 . S
C2603 C2604 1.379 . S
C2604 H2588 0.931 . S
C2604 C2598 1.383 . S
C2604 C2603 1.379 . S
H2605 C2599 0.959 . S
H2606 C2599 0.961 . S
H2607 C2599 0.960 . S
H2608 C2600 0.930 . S
H2609 C2601 0.929 . S
H2610 C2618 0.929 . S
H2611 C2620 0.930 . S
H2612 C2622 0.930 . S
H2613 C2625 0.929 . S
H2614 C2628 0.930 . S
H2615 C2630 0.960 . S
H2616 C2630 0.960 . S
H2617 C2630 0.960 . S
C2618 H2610 0.929 . S
C2618 C2619 1.377 . S
C2618 C2620 1.384 . S
C2619 C2618 1.377 . S
C2619 C2625 1.390 . S
C2620 H2611 0.930 . S
C2620 C2618 1.384 . S
C2620 C2621 1.372 . S
C2621 C2620 1.372 . S
C2621 C2622 1.400 . S
C2621 C2626 1.490 . S
C2622 H2612 0.930 . S
C2622 C2621 1.400 . S
C2622 C2625 1.386 . S
H2623 C2639 0.930 . S
H2624 C2640 0.931 . S
C2625 H2613 0.929 . S
C2625 C2619 1.390 . S
C2625 C2622 1.386 . S
C2626 C2621 1.490 . S
C2626 C2628 1.395 . S
C2626 C2629 1.403 . S
H2627 C2633 0.930 . S
C2628 H2614 0.930 . S
C2628 C2626 1.395 . S
C2628 C2631 1.403 . S
C2629 C2626 1.403 . S
C2629 C2630 1.524 . S
C2629 C2633 1.400 . S
C2630 H2615 0.960 . S
C2630 H2616 0.960 . S
C2630 H2617 0.960 . S
C2630 C2629 1.524 . S
C2631 C2628 1.403 . S
C2631 C2632 1.392 . S
C2631 C2635 1.495 . S
C2632 C2631 1.392 . S
C2632 C2633 1.385 . S
C2632 C2634 1.478 . S
C2633 H2627 0.930 . S
C2633 C2629 1.400 . S
C2633 C2632 1.385 . S
C2634 C2632 1.478 . S
C2634 C2636 1.381 . S
C2634 C2640 1.383 . S
C2635 C2631 1.495 . S
C2635 H2641 0.959 . S
C2635 H2642 0.961 . S
C2635 H2643 0.960 . S
C2636 C2634 1.381 . S
C2636 C2637 1.394 . S
C2636 H2644 0.930 . S
C2637 C2636 1.394 . S
C2637 C2638 1.383 . S
C2637 H2645 0.929 . S
C2638 C2637 1.383 . S
C2638 C2639 1.377 . S
C2639 H2623 0.930 . S
C2639 C2638 1.377 . S
C2639 C2640 1.379 . S
C2640 H2624 0.931 . S
C2640 C2634 1.383 . S
C2640 C2639 1.379 . S
H2641 C2635 0.959 . S
H2642 C2635 0.961 . S
H2643 C2635 0.960 . S
H2644 C2636 0.930 . S
H2645 C2637 0.929 . S
H2646 C2654 0.929 . S
H2647 C2656 0.930 . S
H2648 C2658 0.930 . S
H2649 C2661 0.929 . S
H2650 C2664 0.930 . S
H2651 C2666 0.960 . S
H2652 C2666 0.960 . S
H2653 C2666 0.960 . S
C2654 H2646 0.929 . S
C2654 C2655 1.377 . S
C2654 C2656 1.384 . S
C2655 C2654 1.377 . S
C2655 C2661 1.390 . S
C2656 H2647 0.930 . S
C2656 C2654 1.384 . S
C2656 C2657 1.372 . S
C2657 C2656 1.372 . S
C2657 C2658 1.400 . S
C2657 C2662 1.490 . S
C2658 H2648 0.930 . S
C2658 C2657 1.400 . S
C2658 C2661 1.386 . S
H2659 C2675 0.930 . S
H2660 C2676 0.931 . S
C2661 H2649 0.929 . S
C2661 C2655 1.390 . S
C2661 C2658 1.386 . S
C2662 C2657 1.490 . S
C2662 C2664 1.395 . S
C2662 C2665 1.403 . S
H2663 C2669 0.930 . S
C2664 H2650 0.930 . S
C2664 C2662 1.395 . S
C2664 C2667 1.403 . S
C2665 C2662 1.403 . S
C2665 C2666 1.524 . S
C2665 C2669 1.400 . S
C2666 H2651 0.960 . S
C2666 H2652 0.960 . S
C2666 H2653 0.960 . S
C2666 C2665 1.524 . S
C2667 C2664 1.403 . S
C2667 C2668 1.392 . S
C2667 C2671 1.495 . S
C2668 C2667 1.392 . S
C2668 C2669 1.385 . S
C2668 C2670 1.478 . S
C2669 H2663 0.930 . S
C2669 C2665 1.400 . S
C2669 C2668 1.385 . S
C2670 C2668 1.478 . S
C2670 C2672 1.381 . S
C2670 C2676 1.383 . S
C2671 C2667 1.495 . S
C2671 H2677 0.959 . S
C2671 H2678 0.961 . S
C2671 H2679 0.960 . S
C2672 C2670 1.381 . S
C2672 C2673 1.394 . S
C2672 H2680 0.930 . S
C2673 C2672 1.394 . S
C2673 C2674 1.383 . S
C2673 H2681 0.929 . S
C2674 C2673 1.383 . S
C2674 C2675 1.377 . S
C2675 H2659 0.930 . S
C2675 C2674 1.377 . S
C2675 C2676 1.379 . S
C2676 H2660 0.931 . S
C2676 C2670 1.383 . S
C2676 C2675 1.379 . S
H2677 C2671 0.959 . S
H2678 C2671 0.961 . S
H2679 C2671 0.960 . S
H2680 C2672 0.930 . S
H2681 C2673 0.929 . S
H2682 C2690 0.929 . S
H2683 C2692 0.930 . S
H2684 C2694 0.930 . S
H2685 C2697 0.929 . S
H2686 C2700 0.930 . S
H2687 C2702 0.960 . S
H2688 C2702 0.960 . S
H2689 C2702 0.960 . S
C2690 H2682 0.929 . S
C2690 C2691 1.377 . S
C2690 C2692 1.384 . S
C2691 C2690 1.377 . S
C2691 C2697 1.390 . S
C2692 H2683 0.930 . S
C2692 C2690 1.384 . S
C2692 C2693 1.372 . S
C2693 C2692 1.372 . S
C2693 C2694 1.400 . S
C2693 C2698 1.490 . S
C2694 H2684 0.930 . S
C2694 C2693 1.400 . S
C2694 C2697 1.386 . S
H2695 C2711 0.930 . S
H2696 C2712 0.931 . S
C2697 H2685 0.929 . S
C2697 C2691 1.390 . S
C2697 C2694 1.386 . S
C2698 C2693 1.490 . S
C2698 C2700 1.395 . S
C2698 C2701 1.403 . S
H2699 C2705 0.930 . S
C2700 H2686 0.930 . S
C2700 C2698 1.395 . S
C2700 C2703 1.403 . S
C2701 C2698 1.403 . S
C2701 C2702 1.524 . S
C2701 C2705 1.400 . S
C2702 H2687 0.960 . S
C2702 H2688 0.960 . S
C2702 H2689 0.960 . S
C2702 C2701 1.524 . S
C2703 C2700 1.403 . S
C2703 C2704 1.392 . S
C2703 C2707 1.495 . S
C2704 C2703 1.392 . S
C2704 C2705 1.385 . S
C2704 C2706 1.478 . S
C2705 H2699 0.930 . S
C2705 C2701 1.400 . S
C2705 C2704 1.385 . S
C2706 C2704 1.478 . S
C2706 C2708 1.381 . S
C2706 C2712 1.383 . S
C2707 C2703 1.495 . S
C2707 H2713 0.959 . S
C2707 H2714 0.961 . S
C2707 H2715 0.960 . S
C2708 C2706 1.381 . S
C2708 C2709 1.394 . S
C2708 H2716 0.930 . S
C2709 C2708 1.394 . S
C2709 C2710 1.383 . S
C2709 H2717 0.929 . S
C2710 C2709 1.383 . S
C2710 C2711 1.377 . S
C2711 H2695 0.930 . S
C2711 C2710 1.377 . S
C2711 C2712 1.379 . S
C2712 H2696 0.931 . S
C2712 C2706 1.383 . S
C2712 C2711 1.379 . S
H2713 C2707 0.959 . S
H2714 C2707 0.961 . S
H2715 C2707 0.960 . S
H2716 C2708 0.930 . S
H2717 C2709 0.929 . S
H2718 C2726 0.929 . S
H2719 C2728 0.930 . S
H2720 C2730 0.930 . S
H2721 C2733 0.929 . S
H2722 C2736 0.930 . S
H2723 C2738 0.960 . S
H2724 C2738 0.960 . S
H2725 C2738 0.960 . S
C2726 H2718 0.929 . S
C2726 C2727 1.377 . S
C2726 C2728 1.384 . S
C2727 C2726 1.377 . S
C2727 C2733 1.390 . S
C2728 H2719 0.930 . S
C2728 C2726 1.384 . S
C2728 C2729 1.372 . S
C2729 C2728 1.372 . S
C2729 C2730 1.400 . S
C2729 C2734 1.490 . S
C2730 H2720 0.930 . S
C2730 C2729 1.400 . S
C2730 C2733 1.386 . S
H2731 C2747 0.930 . S
H2732 C2748 0.931 . S
C2733 H2721 0.929 . S
C2733 C2727 1.390 . S
C2733 C2730 1.386 . S
C2734 C2729 1.490 . S
C2734 C2736 1.395 . S
C2734 C2737 1.403 . S
H2735 C2741 0.930 . S
C2736 H2722 0.930 . S
C2736 C2734 1.395 . S
C2736 C2739 1.403 . S
C2737 C2734 1.403 . S
C2737 C2738 1.524 . S
C2737 C2741 1.400 . S
C2738 H2723 0.960 . S
C2738 H2724 0.960 . S
C2738 H2725 0.960 . S
C2738 C2737 1.524 . S
C2739 C2736 1.403 . S
C2739 C2740 1.392 . S
C2739 C2743 1.495 . S
C2740 C2739 1.392 . S
C2740 C2741 1.385 . S
C2740 C2742 1.478 . S
C2741 H2735 0.930 . S
C2741 C2737 1.400 . S
C2741 C2740 1.385 . S
C2742 C2740 1.478 . S
C2742 C2744 1.381 . S
C2742 C2748 1.383 . S
C2743 C2739 1.495 . S
C2743 H2749 0.959 . S
C2743 H2750 0.961 . S
C2743 H2751 0.960 . S
C2744 C2742 1.381 . S
C2744 C2745 1.394 . S
C2744 H2752 0.930 . S
C2745 C2744 1.394 . S
C2745 C2746 1.383 . S
C2745 H2753 0.929 . S
C2746 C2745 1.383 . S
C2746 C2747 1.377 . S
C2747 H2731 0.930 . S
C2747 C2746 1.377 . S
C2747 C2748 1.379 . S
C2748 H2732 0.931 . S
C2748 C2742 1.383 . S
C2748 C2747 1.379 . S
H2749 C2743 0.959 . S
H2750 C2743 0.961 . S
H2751 C2743 0.960 . S
H2752 C2744 0.930 . S
H2753 C2745 0.929 . S
H2754 C2762 0.929 . S
H2755 C2764 0.930 . S
H2756 C2766 0.930 . S
H2757 C2769 0.929 . S
H2758 C2772 0.930 . S
H2759 C2774 0.959 . S
H2760 C2774 0.958 . S
H2761 C2774 0.960 1_556 S
C2762 H2754 0.929 . S
C2762 C2763 1.377 . S
C2762 C2764 1.384 . S
C2763 C2762 1.377 . S
C2763 C2769 1.390 . S
C2764 H2755 0.930 . S
C2764 C2762 1.384 . S
C2764 C2765 1.372 . S
C2765 C2764 1.372 . S
C2765 C2766 1.400 . S
C2765 C2770 1.490 . S
C2766 H2756 0.930 . S
C2766 C2765 1.400 . S
C2766 C2769 1.386 . S
H2767 C2783 0.930 . S
H2768 C2784 0.931 . S
C2769 H2757 0.929 . S
C2769 C2763 1.390 . S
C2769 C2766 1.386 . S
C2770 C2765 1.490 . S
C2770 C2772 1.395 . S
C2770 C2773 1.403 . S
H2771 C2777 0.930 . S
C2772 H2758 0.930 . S
C2772 C2770 1.395 . S
C2772 C2775 1.403 . S
C2773 C2770 1.403 . S
C2773 C2774 1.526 1_556 S
C2773 C2777 1.400 . S
C2774 H2759 0.959 . S
C2774 H2760 0.958 . S
C2774 H2761 0.960 1_554 S
C2774 C2773 1.526 1_554 S
C2775 C2772 1.403 . S
C2775 C2776 1.392 . S
C2775 C2779 1.495 . S
C2776 C2775 1.392 . S
C2776 C2777 1.385 . S
C2776 C2778 1.478 . S
C2777 H2771 0.930 . S
C2777 C2773 1.400 . S
C2777 C2776 1.385 . S
C2778 C2776 1.478 . S
C2778 C2780 1.381 . S
C2778 C2784 1.383 . S
C2779 C2775 1.495 . S
C2779 H2785 0.959 . S
C2779 H2786 0.961 . S
C2779 H2787 0.960 . S
C2780 C2778 1.381 . S
C2780 C2781 1.394 . S
C2780 H2788 0.930 . S
C2781 C2780 1.394 . S
C2781 C2782 1.383 . S
C2781 H2789 0.929 . S
C2782 C2781 1.383 . S
C2782 C2783 1.377 . S
C2783 H2767 0.930 . S
C2783 C2782 1.377 . S
C2783 C2784 1.379 . S
C2784 H2768 0.931 . S
C2784 C2778 1.383 . S
C2784 C2783 1.379 . S
H2785 C2779 0.959 . S
H2786 C2779 0.961 . S
H2787 C2779 0.960 . S
H2788 C2780 0.930 . S
H2789 C2781 0.929 . S
H2790 C2798 0.929 . S
H2791 C2800 0.897 1_554 S
H2792 C2802 0.930 . S
H2793 C2805 0.929 . S
H2794 C2808 0.930 . S
H2795 C2810 0.960 . S
H2796 C2810 0.960 . S
H2797 C2810 0.960 . S
C2798 H2790 0.929 . S
C2798 C2799 1.377 1_554 S
C2798 C2800 1.363 1_554 S
C2799 C2798 1.377 1_556 S
C2799 C2805 1.390 . S
C2800 H2791 0.897 1_556 S
C2800 C2798 1.363 1_556 S
C2800 C2801 1.427 . S
C2801 C2800 1.427 . S
C2801 C2802 1.400 . S
C2801 C2806 1.490 . S
C2802 H2792 0.930 . S
C2802 C2801 1.400 . S
C2802 C2805 1.386 . S
H2803 C2819 0.930 . S
H2804 C2820 0.931 . S
C2805 H2793 0.929 . S
C2805 C2799 1.390 . S
C2805 C2802 1.386 . S
C2806 C2801 1.490 . S
C2806 C2808 1.395 . S
C2806 C2809 1.403 . S
H2807 C2813 0.930 . S
C2808 H2794 0.930 . S
C2808 C2806 1.395 . S
C2808 C2811 1.403 . S
C2809 C2806 1.403 . S
C2809 C2810 1.524 . S
C2809 C2813 1.400 . S
C2810 H2795 0.960 . S
C2810 H2796 0.960 . S
C2810 H2797 0.960 . S
C2810 C2809 1.524 . S
C2811 C2808 1.403 . S
C2811 C2812 1.392 . S
C2811 C2815 1.495 . S
C2812 C2811 1.392 . S
C2812 C2813 1.385 . S
C2812 C2814 1.478 . S
C2813 H2807 0.930 . S
C2813 C2809 1.400 . S
C2813 C2812 1.385 . S
C2814 C2812 1.478 . S
C2814 C2816 1.381 . S
C2814 C2820 1.383 . S
C2815 C2811 1.495 . S
C2815 H2821 0.959 . S
C2815 H2822 0.961 . S
C2815 H2823 0.960 . S
C2816 C2814 1.381 . S
C2816 C2817 1.394 . S
C2816 H2824 0.930 . S
C2817 C2816 1.394 . S
C2817 C2818 1.383 . S
C2817 H2825 0.929 . S
C2818 C2817 1.383 . S
C2818 C2819 1.377 . S
C2819 H2803 0.930 . S
C2819 C2818 1.377 . S
C2819 C2820 1.379 . S
C2820 H2804 0.931 . S
C2820 C2814 1.383 . S
C2820 C2819 1.379 . S
H2821 C2815 0.959 . S
H2822 C2815 0.961 . S
H2823 C2815 0.960 . S
H2824 C2816 0.930 . S
H2825 C2817 0.929 . S
H2826 C2834 0.926 . S
H2827 C2836 0.930 . S
H2828 C2838 0.930 . S
H2829 C2841 0.929 . S
H2830 C2844 0.930 . S
H2831 C2846 0.960 . S
H2832 C2846 0.960 . S
H2833 C2846 0.960 . S
C2834 H2826 0.926 . S
C2834 C2835 1.377 . S
C2834 C2836 1.384 . S
C2835 C2834 1.377 . S
C2835 C2841 1.390 . S
C2836 H2827 0.930 . S
C2836 C2834 1.384 . S
C2836 C2837 1.372 . S
C2837 C2836 1.372 . S
C2837 C2838 1.400 . S
C2837 C2842 1.490 . S
C2838 H2828 0.930 . S
C2838 C2837 1.400 . S
C2838 C2841 1.386 . S
H2839 C2855 0.930 . S
H2840 C2856 0.931 . S
C2841 H2829 0.929 . S
C2841 C2835 1.390 . S
C2841 C2838 1.386 . S
C2842 C2837 1.490 . S
C2842 C2844 1.395 . S
C2842 C2845 1.403 . S
H2843 C2849 0.930 . S
C2844 H2830 0.930 . S
C2844 C2842 1.395 . S
C2844 C2847 1.403 . S
C2845 C2842 1.403 . S
C2845 C2846 1.524 . S
C2845 C2849 1.400 . S
C2846 H2831 0.960 . S
C2846 H2832 0.960 . S
C2846 H2833 0.960 . S
C2846 C2845 1.524 . S
C2847 C2844 1.403 . S
C2847 C2848 1.392 . S
C2847 C2851 1.495 . S
C2848 C2847 1.392 . S
C2848 C2849 1.385 . S
C2848 C2850 1.478 . S
C2849 H2843 0.930 . S
C2849 C2845 1.400 . S
C2849 C2848 1.385 . S
C2850 C2848 1.478 . S
C2850 C2852 1.381 . S
C2850 C2856 1.383 . S
C2851 C2847 1.495 . S
C2851 H2857 0.959 1_556 S
C2851 H2858 0.961 . S
C2851 H2859 0.960 . S
C2852 C2850 1.381 . S
C2852 C2853 1.394 . S
C2852 H2860 0.930 . S
C2853 C2852 1.394 . S
C2853 C2854 1.383 . S
C2853 H2861 0.929 . S
C2854 C2853 1.383 . S
C2854 C2855 1.377 . S
C2855 H2839 0.930 . S
C2855 C2854 1.377 . S
C2855 C2856 1.379 . S
C2856 H2840 0.931 . S
C2856 C2850 1.383 . S
C2856 C2855 1.379 . S
H2857 C2851 0.959 1_554 S
H2858 C2851 0.961 . S
H2859 C2851 0.960 . S
H2860 C2852 0.930 . S
H2861 C2853 0.929 . S
H2862 C2870 0.929 . S
H2863 C2872 0.930 . S
H2864 C2874 0.930 . S
H2865 C2877 0.929 . S
H2866 C2880 0.930 . S
H2867 C2882 0.964 . S
H2868 C2882 0.970 . S
H2869 C2882 0.960 . S
C2870 H2862 0.929 . S
C2870 C2871 1.377 . S
C2870 C2872 1.384 . S
C2871 C2870 1.377 . S
C2871 C2877 1.390 . S
C2872 H2863 0.930 . S
C2872 C2870 1.384 . S
C2872 C2873 1.372 . S
C2873 C2872 1.372 . S
C2873 C2874 1.400 . S
C2873 C2878 1.490 . S
C2874 H2864 0.930 . S
C2874 C2873 1.400 . S
C2874 C2877 1.386 . S
H2875 C2891 0.930 . S
H2876 C2892 0.931 . S
C2877 H2865 0.929 . S
C2877 C2871 1.390 . S
C2877 C2874 1.386 . S
C2878 C2873 1.490 . S
C2878 C2880 1.395 . S
C2878 C2881 1.403 . S
H2879 C2885 0.930 . S
C2880 H2866 0.930 . S
C2880 C2878 1.395 . S
C2880 C2883 1.403 . S
C2881 C2878 1.403 . S
C2881 C2882 1.510 1_556 S
C2881 C2885 1.400 . S
C2882 H2867 0.964 . S
C2882 H2868 0.970 . S
C2882 H2869 0.960 . S
C2882 C2881 1.510 1_554 S
C2883 C2880 1.403 . S
C2883 C2884 1.392 . S
C2883 C2887 1.495 . S
C2884 C2883 1.392 . S
C2884 C2885 1.385 . S
C2884 C2886 1.478 . S
C2885 H2879 0.930 . S
C2885 C2881 1.400 . S
C2885 C2884 1.385 . S
C2886 C2884 1.478 . S
C2886 C2888 1.381 . S
C2886 C2892 1.383 . S
C2887 C2883 1.495 . S
C2887 H2893 0.959 . S
C2887 H2894 0.961 . S
C2887 H2895 0.960 . S
C2888 C2886 1.381 . S
C2888 C2889 1.394 . S
C2888 H2896 0.930 . S
C2889 C2888 1.394 . S
C2889 C2890 1.383 . S
C2889 H2897 0.929 . S
C2890 C2889 1.383 . S
C2890 C2891 1.377 . S
C2891 H2875 0.930 . S
C2891 C2890 1.377 . S
C2891 C2892 1.379 . S
C2892 H2876 0.931 . S
C2892 C2886 1.383 . S
C2892 C2891 1.379 . S
H2893 C2887 0.959 . S
H2894 C2887 0.961 . S
H2895 C2887 0.960 . S
H2896 C2888 0.930 . S
H2897 C2889 0.929 . S
H2898 C2906 0.929 . S
H2899 C2908 0.930 . S
H2900 C2910 0.930 1_554 S
H2901 C2913 0.929 . S
H2902 C2916 0.930 . S
H2903 C2918 0.960 . S
H2904 C2918 0.960 . S
H2905 C2918 0.960 . S
C2906 H2898 0.929 . S
C2906 C2907 1.377 . S
C2906 C2908 1.384 . S
C2907 C2906 1.377 . S
C2907 C2913 1.390 1_556 S
C2908 H2899 0.930 . S
C2908 C2906 1.384 . S
C2908 C2909 1.372 . S
C2909 C2908 1.372 . S
C2909 C2910 1.400 . S
C2909 C2914 1.490 . S
C2910 H2900 0.930 1_556 S
C2910 C2909 1.400 . S
C2910 C2913 1.386 1_556 S
H2911 C2927 0.930 . S
H2912 C2928 0.931 . S
C2913 H2901 0.929 . S
C2913 C2907 1.390 1_554 S
C2913 C2910 1.386 1_554 S
C2914 C2909 1.490 . S
C2914 C2916 1.395 . S
C2914 C2917 1.403 . S
H2915 C2921 0.930 . S
C2916 H2902 0.930 . S
C2916 C2914 1.395 . S
C2916 C2919 1.403 . S
C2917 C2914 1.403 . S
C2917 C2918 1.524 . S
C2917 C2921 1.400 . S
C2918 H2903 0.960 . S
C2918 H2904 0.960 . S
C2918 H2905 0.960 . S
C2918 C2917 1.524 . S
C2919 C2916 1.403 . S
C2919 C2920 1.392 . S
C2919 C2923 1.495 . S
C2920 C2919 1.392 . S
C2920 C2921 1.385 . S
C2920 C2922 1.478 . S
C2921 H2915 0.930 . S
C2921 C2917 1.400 . S
C2921 C2920 1.385 . S
C2922 C2920 1.478 . S
C2922 C2924 1.381 . S
C2922 C2928 1.383 . S
C2923 C2919 1.495 . S
C2923 H2929 0.959 . S
C2923 H2930 0.961 . S
C2923 H2931 0.960 . S
C2924 C2922 1.381 . S
C2924 C2925 1.394 . S
C2924 H2932 0.930 . S
C2925 C2924 1.394 . S
C2925 C2926 1.383 . S
C2925 H2933 0.929 . S
C2926 C2925 1.383 . S
C2926 C2927 1.377 . S
C2927 H2911 0.930 . S
C2927 C2926 1.377 . S
C2927 C2928 1.379 . S
C2928 H2912 0.931 . S
C2928 C2922 1.383 . S
C2928 C2927 1.379 . S
H2929 C2923 0.959 . S
H2930 C2923 0.961 . S
H2931 C2923 0.960 . S
H2932 C2924 0.930 . S
H2933 C2925 0.929 . S
H2934 C2942 0.929 . S
H2935 C2944 0.929 1_554 S
H2936 C2946 0.930 . S
H2937 C2949 0.929 . S
H2938 C2952 0.930 . S
H2939 C2954 0.960 . S
H2940 C2954 0.960 . S
H2941 C2954 0.960 . S
C2942 H2934 0.929 . S
C2942 C2943 1.377 1_554 S
C2942 C2944 1.383 1_554 S
C2943 C2942 1.377 1_556 S
C2943 C2949 1.390 . S
C2944 H2935 0.929 1_556 S
C2944 C2942 1.383 1_556 S
C2944 C2945 1.373 . S
C2945 C2944 1.373 . S
C2945 C2946 1.400 . S
C2945 C2950 1.490 . S
C2946 H2936 0.930 . S
C2946 C2945 1.400 . S
C2946 C2949 1.386 . S
H2947 C2963 0.930 . S
H2948 C2964 0.931 . S
C2949 H2937 0.929 . S
C2949 C2943 1.390 . S
C2949 C2946 1.386 . S
C2950 C2945 1.490 . S
C2950 C2952 1.395 . S
C2950 C2953 1.403 . S
H2951 C2957 0.930 . S
C2952 H2938 0.930 . S
C2952 C2950 1.395 . S
C2952 C2955 1.403 . S
C2953 C2950 1.403 . S
C2953 C2954 1.524 . S
C2953 C2957 1.400 . S
C2954 H2939 0.960 . S
C2954 H2940 0.960 . S
C2954 H2941 0.960 . S
C2954 C2953 1.524 . S
C2955 C2952 1.403 . S
C2955 C2956 1.392 . S
C2955 C2959 1.495 . S
C2956 C2955 1.392 . S
C2956 C2957 1.385 . S
C2956 C2958 1.478 . S
C2957 H2951 0.930 . S
C2957 C2953 1.400 . S
C2957 C2956 1.385 . S
C2958 C2956 1.478 . S
C2958 C2960 1.381 . S
C2958 C2964 1.383 . S
C2959 C2955 1.495 . S
C2959 H2965 0.959 . S
C2959 H2966 0.961 . S
C2959 H2967 0.960 . S
C2960 C2958 1.381 . S
C2960 C2961 1.394 . S
C2960 H2968 0.930 . S
C2961 C2960 1.394 . S
C2961 C2962 1.383 . S
C2961 H2969 0.929 . S
C2962 C2961 1.383 . S
C2962 C2963 1.377 . S
C2963 H2947 0.930 . S
C2963 C2962 1.377 . S
C2963 C2964 1.379 . S
C2964 H2948 0.931 . S
C2964 C2958 1.383 . S
C2964 C2963 1.379 . S
H2965 C2959 0.959 . S
H2966 C2959 0.961 . S
H2967 C2959 0.960 . S
H2968 C2960 0.930 . S
H2969 C2961 0.929 . S
H2970 C2978 0.929 . S
H2971 C2980 0.930 . S
H2972 C2982 0.930 . S
H2973 C2985 0.929 . S
H2974 C2988 0.930 . S
H2975 C2990 0.960 . S
H2976 C2990 0.960 . S
H2977 C2990 0.960 . S
C2978 H2970 0.929 . S
C2978 C2979 1.377 . S
C2978 C2980 1.384 . S
C2979 C2978 1.377 . S
C2979 C2985 1.390 . S
C2980 H2971 0.930 . S
C2980 C2978 1.384 . S
C2980 C2981 1.372 . S
C2981 C2980 1.372 . S
C2981 C2982 1.400 . S
C2981 C2986 1.490 . S
C2982 H2972 0.930 . S
C2982 C2981 1.400 . S
C2982 C2985 1.386 . S
H2983 C2999 0.930 . S
H2984 C3000 0.931 . S
C2985 H2973 0.929 . S
C2985 C2979 1.390 . S
C2985 C2982 1.386 . S
C2986 C2981 1.490 . S
C2986 C2988 1.395 . S
C2986 C2989 1.403 . S
H2987 C2993 0.930 . S
C2988 H2974 0.930 . S
C2988 C2986 1.395 . S
C2988 C2991 1.403 . S
C2989 C2986 1.403 . S
C2989 C2990 1.524 . S
C2989 C2993 1.400 . S
C2990 H2975 0.960 . S
C2990 H2976 0.960 . S
C2990 H2977 0.960 . S
C2990 C2989 1.524 . S
C2991 C2988 1.403 . S
C2991 C2992 1.392 . S
C2991 C2995 1.495 . S
C2992 C2991 1.392 . S
C2992 C2993 1.385 . S
C2992 C2994 1.478 . S
C2993 H2987 0.930 . S
C2993 C2989 1.400 . S
C2993 C2992 1.385 . S
C2994 C2992 1.478 . S
C2994 C2996 1.381 . S
C2994 C3000 1.383 . S
C2995 C2991 1.495 . S
C2995 H3001 0.959 . S
C2995 H3002 0.961 . S
C2995 H3003 0.960 . S
C2996 C2994 1.381 . S
C2996 C2997 1.394 . S
C2996 H3004 0.930 . S
C2997 C2996 1.394 . S
C2997 C2998 1.383 . S
C2997 H3005 0.929 . S
C2998 C2997 1.383 . S
C2998 C2999 1.377 . S
C2999 H2983 0.930 . S
C2999 C2998 1.377 . S
C2999 C3000 1.379 . S
C3000 H2984 0.931 . S
C3000 C2994 1.383 . S
C3000 C2999 1.379 . S
H3001 C2995 0.959 . S
H3002 C2995 0.961 . S
H3003 C2995 0.960 . S
H3004 C2996 0.930 . S
H3005 C2997 0.929 . S
H3006 C3014 0.929 . S
H3007 C3016 0.930 . S
H3008 C3018 0.930 . S
H3009 C3021 0.929 . S
H3010 C3024 0.930 . S
H3011 C3026 0.960 . S
H3012 C3026 0.960 . S
H3013 C3026 0.960 . S
C3014 H3006 0.929 . S
C3014 C3015 1.377 . S
C3014 C3016 1.384 . S
C3015 C3014 1.377 . S
C3015 C3021 1.390 . S
C3016 H3007 0.930 . S
C3016 C3014 1.384 . S
C3016 C3017 1.372 . S
C3017 C3016 1.372 . S
C3017 C3018 1.400 . S
C3017 C3022 1.490 . S
C3018 H3008 0.930 . S
C3018 C3017 1.400 . S
C3018 C3021 1.386 . S
H3019 C3035 0.930 . S
H3020 C3036 0.931 . S
C3021 H3009 0.929 . S
C3021 C3015 1.390 . S
C3021 C3018 1.386 . S
C3022 C3017 1.490 . S
C3022 C3024 1.395 . S
C3022 C3025 1.403 . S
H3023 C3029 0.930 . S
C3024 H3010 0.930 . S
C3024 C3022 1.395 . S
C3024 C3027 1.403 . S
C3025 C3022 1.403 . S
C3025 C3026 1.524 . S
C3025 C3029 1.400 . S
C3026 H3011 0.960 . S
C3026 H3012 0.960 . S
C3026 H3013 0.960 . S
C3026 C3025 1.524 . S
C3027 C3024 1.403 . S
C3027 C3028 1.392 . S
C3027 C3031 1.495 . S
C3028 C3027 1.392 . S
C3028 C3029 1.385 . S
C3028 C3030 1.478 . S
C3029 H3023 0.930 . S
C3029 C3025 1.400 . S
C3029 C3028 1.385 . S
C3030 C3028 1.478 . S
C3030 C3032 1.381 . S
C3030 C3036 1.383 . S
C3031 C3027 1.495 . S
C3031 H3037 0.959 . S
C3031 H3038 0.961 . S
C3031 H3039 0.960 . S
C3032 C3030 1.381 . S
C3032 C3033 1.394 . S
C3032 H3040 0.930 . S
C3033 C3032 1.394 . S
C3033 C3034 1.383 . S
C3033 H3041 0.929 . S
C3034 C3033 1.383 . S
C3034 C3035 1.377 . S
C3035 H3019 0.930 . S
C3035 C3034 1.377 . S
C3035 C3036 1.379 . S
C3036 H3020 0.931 . S
C3036 C3030 1.383 . S
C3036 C3035 1.379 . S
H3037 C3031 0.959 . S
H3038 C3031 0.961 . S
H3039 C3031 0.960 . S
H3040 C3032 0.930 . S
H3041 C3033 0.929 . S
H3042 C3050 0.929 . S
H3043 C3052 0.930 . S
H3044 C3054 0.930 . S
H3045 C3057 0.929 . S
H3046 C3060 0.930 . S
H3047 C3062 0.960 . S
H3048 C3062 0.960 . S
H3049 C3062 0.960 . S
C3050 H3042 0.929 . S
C3050 C3051 1.377 . S
C3050 C3052 1.384 . S
C3051 C3050 1.377 . S
C3051 C3057 1.390 . S
C3052 H3043 0.930 . S
C3052 C3050 1.384 . S
C3052 C3053 1.372 . S
C3053 C3052 1.372 . S
C3053 C3054 1.400 . S
C3053 C3058 1.490 . S
C3054 H3044 0.930 . S
C3054 C3053 1.400 . S
C3054 C3057 1.386 . S
H3055 C3071 0.930 . S
H3056 C3072 0.931 . S
C3057 H3045 0.929 . S
C3057 C3051 1.390 . S
C3057 C3054 1.386 . S
C3058 C3053 1.490 . S
C3058 C3060 1.395 . S
C3058 C3061 1.403 . S
H3059 C3065 0.930 . S
C3060 H3046 0.930 . S
C3060 C3058 1.395 . S
C3060 C3063 1.403 . S
C3061 C3058 1.403 . S
C3061 C3062 1.524 . S
C3061 C3065 1.400 . S
C3062 H3047 0.960 . S
C3062 H3048 0.960 . S
C3062 H3049 0.960 . S
C3062 C3061 1.524 . S
C3063 C3060 1.403 . S
C3063 C3064 1.392 . S
C3063 C3067 1.495 . S
C3064 C3063 1.392 . S
C3064 C3065 1.385 . S
C3064 C3066 1.478 . S
C3065 H3059 0.930 . S
C3065 C3061 1.400 . S
C3065 C3064 1.385 . S
C3066 C3064 1.478 . S
C3066 C3068 1.381 . S
C3066 C3072 1.383 . S
C3067 C3063 1.495 . S
C3067 H3073 0.959 . S
C3067 H3074 0.961 . S
C3067 H3075 0.960 . S
C3068 C3066 1.381 . S
C3068 C3069 1.394 . S
C3068 H3076 0.930 . S
C3069 C3068 1.394 . S
C3069 C3070 1.383 . S
C3069 H3077 0.929 . S
C3070 C3069 1.383 . S
C3070 C3071 1.377 . S
C3071 H3055 0.930 . S
C3071 C3070 1.377 . S
C3071 C3072 1.379 . S
C3072 H3056 0.931 . S
C3072 C3066 1.383 . S
C3072 C3071 1.379 . S
H3073 C3067 0.959 . S
H3074 C3067 0.961 . S
H3075 C3067 0.960 . S
H3076 C3068 0.930 . S
H3077 C3069 0.929 . S
H3078 C3086 0.929 . S
H3079 C3088 0.930 . S
H3080 C3090 0.930 . S
H3081 C3093 0.929 . S
H3082 C3096 0.930 . S
H3083 C3098 0.960 . S
H3084 C3098 0.960 . S
H3085 C3098 0.960 . S
C3086 H3078 0.929 . S
C3086 C3087 1.377 . S
C3086 C3088 1.384 . S
C3087 C3086 1.377 . S
C3087 C3093 1.390 . S
C3088 H3079 0.930 . S
C3088 C3086 1.384 . S
C3088 C3089 1.372 . S
C3089 C3088 1.372 . S
C3089 C3090 1.400 . S
C3089 C3094 1.490 . S
C3090 H3080 0.930 . S
C3090 C3089 1.400 . S
C3090 C3093 1.386 . S
H3091 C3107 0.930 . S
H3092 C3108 0.931 . S
C3093 H3081 0.929 . S
C3093 C3087 1.390 . S
C3093 C3090 1.386 . S
C3094 C3089 1.490 . S
C3094 C3096 1.395 . S
C3094 C3097 1.403 . S
H3095 C3101 0.930 . S
C3096 H3082 0.930 . S
C3096 C3094 1.395 . S
C3096 C3099 1.403 . S
C3097 C3094 1.403 . S
C3097 C3098 1.524 . S
C3097 C3101 1.400 . S
C3098 H3083 0.960 . S
C3098 H3084 0.960 . S
C3098 H3085 0.960 . S
C3098 C3097 1.524 . S
C3099 C3096 1.403 . S
C3099 C3100 1.392 . S
C3099 C3103 1.495 . S
C3100 C3099 1.392 . S
C3100 C3101 1.385 . S
C3100 C3102 1.478 . S
C3101 H3095 0.930 . S
C3101 C3097 1.400 . S
C3101 C3100 1.385 . S
C3102 C3100 1.478 . S
C3102 C3104 1.381 . S
C3102 C3108 1.383 . S
C3103 C3099 1.495 . S
C3103 H3109 0.959 . S
C3103 H3110 0.961 . S
C3103 H3111 0.960 . S
C3104 C3102 1.381 . S
C3104 C3105 1.394 . S
C3104 H3112 0.930 . S
C3105 C3104 1.394 . S
C3105 C3106 1.383 . S
C3105 H3113 0.929 . S
C3106 C3105 1.383 . S
C3106 C3107 1.377 . S
C3107 H3091 0.930 . S
C3107 C3106 1.377 . S
C3107 C3108 1.379 . S
C3108 H3092 0.931 . S
C3108 C3102 1.383 . S
C3108 C3107 1.379 . S
H3109 C3103 0.959 . S
H3110 C3103 0.961 . S
H3111 C3103 0.960 . S
H3112 C3104 0.930 . S
H3113 C3105 0.929 . S
H3114 C3122 0.929 . S
H3115 C3124 0.930 . S
H3116 C3126 0.930 . S
H3117 C3129 0.929 . S
H3118 C3132 0.930 . S
H3119 C3134 0.960 . S
H3120 C3134 0.960 . S
H3121 C3134 0.960 . S
C3122 H3114 0.929 . S
C3122 C3123 1.377 . S
C3122 C3124 1.384 . S
C3123 C3122 1.377 . S
C3123 C3129 1.390 . S
C3124 H3115 0.930 . S
C3124 C3122 1.384 . S
C3124 C3125 1.372 . S
C3125 C3124 1.372 . S
C3125 C3126 1.400 . S
C3125 C3130 1.490 . S
C3126 H3116 0.930 . S
C3126 C3125 1.400 . S
C3126 C3129 1.386 . S
H3127 C3143 0.930 . S
H3128 C3144 0.931 . S
C3129 H3117 0.929 . S
C3129 C3123 1.390 . S
C3129 C3126 1.386 . S
C3130 C3125 1.490 . S
C3130 C3132 1.395 . S
C3130 C3133 1.403 . S
H3131 C3137 0.930 . S
C3132 H3118 0.930 . S
C3132 C3130 1.395 . S
C3132 C3135 1.403 . S
C3133 C3130 1.403 . S
C3133 C3134 1.524 . S
C3133 C3137 1.400 . S
C3134 H3119 0.960 . S
C3134 H3120 0.960 . S
C3134 H3121 0.960 . S
C3134 C3133 1.524 . S
C3135 C3132 1.403 . S
C3135 C3136 1.392 . S
C3135 C3139 1.495 . S
C3136 C3135 1.392 . S
C3136 C3137 1.385 . S
C3136 C3138 1.478 . S
C3137 H3131 0.930 . S
C3137 C3133 1.400 . S
C3137 C3136 1.385 . S
C3138 C3136 1.478 . S
C3138 C3140 1.381 . S
C3138 C3144 1.383 . S
C3139 C3135 1.495 . S
C3139 H3145 0.959 . S
C3139 H3146 0.961 . S
C3139 H3147 0.960 . S
C3140 C3138 1.381 . S
C3140 C3141 1.394 . S
C3140 H3148 0.930 . S
C3141 C3140 1.394 . S
C3141 C3142 1.383 . S
C3141 H3149 0.929 . S
C3142 C3141 1.383 . S
C3142 C3143 1.377 . S
C3143 H3127 0.930 . S
C3143 C3142 1.377 . S
C3143 C3144 1.379 . S
C3144 H3128 0.931 . S
C3144 C3138 1.383 . S
C3144 C3143 1.379 . S
H3145 C3139 0.959 . S
H3146 C3139 0.961 . S
H3147 C3139 0.960 . S
H3148 C3140 0.930 . S
H3149 C3141 0.929 . S
H3150 C3158 0.929 . S
H3151 C3160 0.930 . S
H3152 C3162 0.930 . S
H3153 C3165 0.929 . S
H3154 C3168 0.930 . S
H3155 C3170 0.960 . S
H3156 C3170 0.960 . S
H3157 C3170 0.960 . S
C3158 H3150 0.929 . S
C3158 C3159 1.377 1_655 S
C3158 C3160 1.384 . S
C3159 C3158 1.377 1_455 S
C3159 C3165 1.390 . S
C3160 H3151 0.930 . S
C3160 C3158 1.384 . S
C3160 C3161 1.372 . S
C3161 C3160 1.372 . S
C3161 C3162 1.400 . S
C3161 C3166 1.490 . S
C3162 H3152 0.930 . S
C3162 C3161 1.400 . S
C3162 C3165 1.386 1_655 S
H3163 C3179 0.930 . S
H3164 C3180 0.931 . S
C3165 H3153 0.929 . S
C3165 C3159 1.390 . S
C3165 C3162 1.386 1_455 S
C3166 C3161 1.490 . S
C3166 C3168 1.395 . S
C3166 C3169 1.403 . S
H3167 C3173 0.930 . S
C3168 H3154 0.930 . S
C3168 C3166 1.395 . S
C3168 C3171 1.403 . S
C3169 C3166 1.403 . S
C3169 C3170 1.524 . S
C3169 C3173 1.400 . S
C3170 H3155 0.960 . S
C3170 H3156 0.960 . S
C3170 H3157 0.960 . S
C3170 C3169 1.524 . S
C3171 C3168 1.403 . S
C3171 C3172 1.392 . S
C3171 C3175 1.495 . S
C3172 C3171 1.392 . S
C3172 C3173 1.385 . S
C3172 C3174 1.478 . S
C3173 H3167 0.930 . S
C3173 C3169 1.400 . S
C3173 C3172 1.385 . S
C3174 C3172 1.478 . S
C3174 C3176 1.381 . S
C3174 C3180 1.383 . S
C3175 C3171 1.495 . S
C3175 H3181 0.959 . S
C3175 H3182 0.961 . S
C3175 H3183 0.960 . S
C3176 C3174 1.381 . S
C3176 C3177 1.394 . S
C3176 H3184 0.930 . S
C3177 C3176 1.394 . S
C3177 C3178 1.383 . S
C3177 H3185 0.929 . S
C3178 C3177 1.383 . S
C3178 C3179 1.377 . S
C3179 H3163 0.930 . S
C3179 C3178 1.377 . S
C3179 C3180 1.379 . S
C3180 H3164 0.931 . S
C3180 C3174 1.383 . S
C3180 C3179 1.379 . S
H3181 C3175 0.959 . S
H3182 C3175 0.961 . S
H3183 C3175 0.960 . S
H3184 C3176 0.930 . S
H3185 C3177 0.929 . S
H3186 C3194 0.929 . S
H3187 C3196 0.930 . S
H3188 C3198 0.930 . S
H3189 C3201 0.929 . S
H3190 C3204 0.930 . S
H3191 C3206 0.960 . S
H3192 C3206 0.960 . S
H3193 C3206 0.960 . S
C3194 H3186 0.929 . S
C3194 C3195 1.377 . S
C3194 C3196 1.384 . S
C3195 C3194 1.377 . S
C3195 C3201 1.390 . S
C3196 H3187 0.930 . S
C3196 C3194 1.384 . S
C3196 C3197 1.372 . S
C3197 C3196 1.372 . S
C3197 C3198 1.400 . S
C3197 C3202 1.490 . S
C3198 H3188 0.930 . S
C3198 C3197 1.400 . S
C3198 C3201 1.386 . S
H3199 C3215 0.930 . S
H3200 C3216 0.931 . S
C3201 H3189 0.929 . S
C3201 C3195 1.390 . S
C3201 C3198 1.386 . S
C3202 C3197 1.490 . S
C3202 C3204 1.395 . S
C3202 C3205 1.403 . S
H3203 C3209 0.930 . S
C3204 H3190 0.930 . S
C3204 C3202 1.395 . S
C3204 C3207 1.403 . S
C3205 C3202 1.403 . S
C3205 C3206 1.524 . S
C3205 C3209 1.400 . S
C3206 H3191 0.960 . S
C3206 H3192 0.960 . S
C3206 H3193 0.960 . S
C3206 C3205 1.524 . S
C3207 C3204 1.403 . S
C3207 C3208 1.392 . S
C3207 C3211 1.495 . S
C3208 C3207 1.392 . S
C3208 C3209 1.385 . S
C3208 C3210 1.478 . S
C3209 H3203 0.930 . S
C3209 C3205 1.400 . S
C3209 C3208 1.385 . S
C3210 C3208 1.478 . S
C3210 C3212 1.381 . S
C3210 C3216 1.383 . S
C3211 C3207 1.495 . S
C3211 H3217 0.959 . S
C3211 H3218 0.961 . S
C3211 H3219 0.960 . S
C3212 C3210 1.381 . S
C3212 C3213 1.394 . S
C3212 H3220 0.930 . S
C3213 C3212 1.394 . S
C3213 C3214 1.383 . S
C3213 H3221 0.929 . S
C3214 C3213 1.383 . S
C3214 C3215 1.377 . S
C3215 H3199 0.930 . S
C3215 C3214 1.377 . S
C3215 C3216 1.379 . S
C3216 H3200 0.931 . S
C3216 C3210 1.383 . S
C3216 C3215 1.379 . S
H3217 C3211 0.959 . S
H3218 C3211 0.961 . S
H3219 C3211 0.960 . S
H3220 C3212 0.930 . S
H3221 C3213 0.929 . S
H3222 C3230 0.929 . S
H3223 C3232 0.930 . S
H3224 C3234 0.930 . S
H3225 C3237 0.929 . S
H3226 C3240 0.930 . S
H3227 C3242 0.960 . S
H3228 C3242 0.960 . S
H3229 C3242 0.960 . S
C3230 H3222 0.929 . S
C3230 C3231 1.377 . S
C3230 C3232 1.384 . S
C3231 C3230 1.377 . S
C3231 C3237 1.390 . S
C3232 H3223 0.930 . S
C3232 C3230 1.384 . S
C3232 C3233 1.372 . S
C3233 C3232 1.372 . S
C3233 C3234 1.400 . S
C3233 C3238 1.490 . S
C3234 H3224 0.930 . S
C3234 C3233 1.400 . S
C3234 C3237 1.386 . S
H3235 C3251 0.930 . S
H3236 C3252 0.931 . S
C3237 H3225 0.929 . S
C3237 C3231 1.390 . S
C3237 C3234 1.386 . S
C3238 C3233 1.490 . S
C3238 C3240 1.395 . S
C3238 C3241 1.403 . S
H3239 C3245 0.930 . S
C3240 H3226 0.930 . S
C3240 C3238 1.395 . S
C3240 C3243 1.403 . S
C3241 C3238 1.403 . S
C3241 C3242 1.524 . S
C3241 C3245 1.400 . S
C3242 H3227 0.960 . S
C3242 H3228 0.960 . S
C3242 H3229 0.960 . S
C3242 C3241 1.524 . S
C3243 C3240 1.403 . S
C3243 C3244 1.392 . S
C3243 C3247 1.495 . S
C3244 C3243 1.392 . S
C3244 C3245 1.385 . S
C3244 C3246 1.478 . S
C3245 H3239 0.930 . S
C3245 C3241 1.400 . S
C3245 C3244 1.385 . S
C3246 C3244 1.478 . S
C3246 C3248 1.381 . S
C3246 C3252 1.383 . S
C3247 C3243 1.495 . S
C3247 H3253 0.959 . S
C3247 H3254 0.961 . S
C3247 H3255 0.960 . S
C3248 C3246 1.381 . S
C3248 C3249 1.394 . S
C3248 H3256 0.930 . S
C3249 C3248 1.394 . S
C3249 C3250 1.383 . S
C3249 H3257 0.929 . S
C3250 C3249 1.383 . S
C3250 C3251 1.377 . S
C3251 H3235 0.930 . S
C3251 C3250 1.377 . S
C3251 C3252 1.379 . S
C3252 H3236 0.931 . S
C3252 C3246 1.383 . S
C3252 C3251 1.379 . S
H3253 C3247 0.959 . S
H3254 C3247 0.961 . S
H3255 C3247 0.960 . S
H3256 C3248 0.930 . S
H3257 C3249 0.929 . S
H3258 C3266 0.937 1_545 S
H3259 C3268 0.930 1_545 S
H3260 C3270 0.930 . S
H3261 C3273 0.929 . S
H3262 C3276 0.930 . S
H3263 C3278 0.967 . S
H3264 C3278 1.034 . S
H3265 C3278 0.941 1_565 S
C3266 H3258 0.937 1_565 S
C3266 C3267 1.377 . S
C3266 C3268 1.384 . S
C3267 C3266 1.377 . S
C3267 C3273 1.390 . S
C3268 H3259 0.930 1_565 S
C3268 C3266 1.384 . S
C3268 C3269 1.372 . S
C3269 C3268 1.372 . S
C3269 C3270 1.400 . S
C3269 C3274 1.490 . S
C3270 H3260 0.930 . S
C3270 C3269 1.400 . S
C3270 C3273 1.386 . S
H3271 C3287 0.930 . S
H3272 C3288 0.931 . S
C3273 H3261 0.929 . S
C3273 C3267 1.390 . S
C3273 C3270 1.386 . S
C3274 C3269 1.490 . S
C3274 C3276 1.395 . S
C3274 C3277 1.403 . S
H3275 C3281 0.930 . S
C3276 H3262 0.930 . S
C3276 C3274 1.395 . S
C3276 C3279 1.403 . S
C3277 C3274 1.403 . S
C3277 C3278 1.470 1_565 S
C3277 C3281 1.400 . S
C3278 H3263 0.967 . S
C3278 H3264 1.034 . S
C3278 H3265 0.941 1_545 S
C3278 C3277 1.470 1_545 S
C3279 C3276 1.403 . S
C3279 C3280 1.392 . S
C3279 C3283 1.495 . S
C3280 C3279 1.392 . S
C3280 C3281 1.385 . S
C3280 C3282 1.478 . S
C3281 H3275 0.930 . S
C3281 C3277 1.400 . S
C3281 C3280 1.385 . S
C3282 C3280 1.478 . S
C3282 C3284 1.362 1_565 S
C3282 C3288 1.383 . S
C3283 C3279 1.495 . S
C3283 H3289 0.959 . S
C3283 H3290 0.961 . S
C3283 H3291 0.960 . S
C3284 C3282 1.362 1_545 S
C3284 C3285 1.361 . S
C3284 H3292 0.994 . S
C3285 C3284 1.361 . S
C3285 C3286 1.383 1_545 S
C3285 H3293 0.929 . S
C3286 C3285 1.383 1_565 S
C3286 C3287 1.377 . S
C3287 H3271 0.930 . S
C3287 C3286 1.377 . S
C3287 C3288 1.379 . S
C3288 H3272 0.931 . S
C3288 C3282 1.383 . S
C3288 C3287 1.379 . S
H3289 C3283 0.959 . S
H3290 C3283 0.961 . S
H3291 C3283 0.960 . S
H3292 C3284 0.994 . S
H3293 C3285 0.929 . S
H3294 C3302 0.929 . S
H3295 C3304 0.994 . S
H3296 C3306 0.930 . S
H3297 C3309 0.929 . S
H3298 C3312 0.930 . S
H3299 C3314 0.960 . S
H3300 C3314 0.960 . S
H3301 C3314 0.960 . S
C3302 H3294 0.929 . S
C3302 C3303 1.377 . S
C3302 C3304 1.384 . S
C3303 C3302 1.377 . S
C3303 C3309 1.390 . S
C3304 H3295 0.994 . S
C3304 C3302 1.384 . S
C3304 C3305 1.372 . S
C3305 C3304 1.372 . S
C3305 C3306 1.400 . S
C3305 C3310 1.490 . S
C3306 H3296 0.930 . S
C3306 C3305 1.400 . S
C3306 C3309 1.386 . S
H3307 C3323 0.930 . S
H3308 C3324 0.931 . S
C3309 H3297 0.929 . S
C3309 C3303 1.390 . S
C3309 C3306 1.386 . S
C3310 C3305 1.490 . S
C3310 C3312 1.395 1_565 S
C3310 C3313 1.403 . S
H3311 C3317 0.930 . S
C3312 H3298 0.930 . S
C3312 C3310 1.395 1_545 S
C3312 C3315 1.403 . S
C3313 C3310 1.403 . S
C3313 C3314 1.524 . S
C3313 C3317 1.400 . S
C3314 H3299 0.960 . S
C3314 H3300 0.960 . S
C3314 H3301 0.960 . S
C3314 C3313 1.524 . S
C3315 C3312 1.403 . S
C3315 C3316 1.392 1_545 S
C3315 C3319 1.495 . S
C3316 C3315 1.392 1_565 S
C3316 C3317 1.385 . S
C3316 C3318 1.478 . S
C3317 H3311 0.930 . S
C3317 C3313 1.400 . S
C3317 C3316 1.385 . S
C3318 C3316 1.478 . S
C3318 C3320 1.332 1_565 S
C3318 C3324 1.383 . S
C3319 C3315 1.495 . S
C3319 H3325 0.959 . S
C3319 H3326 0.961 . S
C3319 H3327 0.960 . S
C3320 C3318 1.332 1_545 S
C3320 C3321 1.392 . S
C3320 H3328 0.950 . S
C3321 C3320 1.392 . S
C3321 C3322 1.368 1_545 S
C3321 H3329 0.984 . S
C3322 C3321 1.368 1_565 S
C3322 C3323 1.377 . S
C3323 H3307 0.930 . S
C3323 C3322 1.377 . S
C3323 C3324 1.379 . S
C3324 H3308 0.931 . S
C3324 C3318 1.383 . S
C3324 C3323 1.379 . S
H3325 C3319 0.959 . S
H3326 C3319 0.961 . S
H3327 C3319 0.960 . S
H3328 C3320 0.950 . S
H3329 C3321 0.984 . S
H3330 C3338 0.929 . S
H3331 C3340 0.930 . S
H3332 C3342 0.930 . S
H3333 C3345 0.929 . S
H3334 C3348 0.930 . S
H3335 C3350 0.960 . S
H3336 C3350 0.960 . S
H3337 C3350 0.960 . S
C3338 H3330 0.929 . S
C3338 C3339 1.377 . S
C3338 C3340 1.384 . S
C3339 C3338 1.377 . S
C3339 C3345 1.390 . S
C3340 H3331 0.930 . S
C3340 C3338 1.384 . S
C3340 C3341 1.372 . S
C3341 C3340 1.372 . S
C3341 C3342 1.400 . S
C3341 C3346 1.490 . S
C3342 H3332 0.930 . S
C3342 C3341 1.400 . S
C3342 C3345 1.386 . S
H3343 C3359 0.930 . S
H3344 C3360 0.931 . S
C3345 H3333 0.929 . S
C3345 C3339 1.390 . S
C3345 C3342 1.386 . S
C3346 C3341 1.490 . S
C3346 C3348 1.395 . S
C3346 C3349 1.403 . S
H3347 C3353 0.930 . S
C3348 H3334 0.930 . S
C3348 C3346 1.395 . S
C3348 C3351 1.403 . S
C3349 C3346 1.403 . S
C3349 C3350 1.524 . S
C3349 C3353 1.400 . S
C3350 H3335 0.960 . S
C3350 H3336 0.960 . S
C3350 H3337 0.960 . S
C3350 C3349 1.524 . S
C3351 C3348 1.403 . S
C3351 C3352 1.392 . S
C3351 C3355 1.495 . S
C3352 C3351 1.392 . S
C3352 C3353 1.385 . S
C3352 C3354 1.478 . S
C3353 H3347 0.930 . S
C3353 C3349 1.400 . S
C3353 C3352 1.385 . S
C3354 C3352 1.478 . S
C3354 C3356 1.381 . S
C3354 C3360 1.383 . S
C3355 C3351 1.495 . S
C3355 H3361 0.959 1_455 S
C3355 H3362 0.961 . S
C3355 H3363 0.960 1_455 S
C3356 C3354 1.381 . S
C3356 C3357 1.394 . S
C3356 H3364 0.930 . S
C3357 C3356 1.394 . S
C3357 C3358 1.383 . S
C3357 H3365 0.929 . S
C3358 C3357 1.383 . S
C3358 C3359 1.377 . S
C3359 H3343 0.930 . S
C3359 C3358 1.377 . S
C3359 C3360 1.379 . S
C3360 H3344 0.931 . S
C3360 C3354 1.383 . S
C3360 C3359 1.379 . S
H3361 C3355 0.959 1_655 S
H3362 C3355 0.961 . S
H3363 C3355 0.960 1_655 S
H3364 C3356 0.930 . S
H3365 C3357 0.929 . S
H3366 C3374 0.929 . S
H3367 C3376 0.930 . S
H3368 C3378 0.930 . S
H3369 C3381 0.929 . S
H3370 C3384 0.930 . S
H3371 C3386 0.960 . S
H3372 C3386 0.960 . S
H3373 C3386 0.960 . S
C3374 H3366 0.929 . S
C3374 C3375 1.377 . S
C3374 C3376 1.384 . S
C3375 C3374 1.377 . S
C3375 C3381 1.390 . S
C3376 H3367 0.930 . S
C3376 C3374 1.384 . S
C3376 C3377 1.372 . S
C3377 C3376 1.372 . S
C3377 C3378 1.400 . S
C3377 C3382 1.490 . S
C3378 H3368 0.930 . S
C3378 C3377 1.400 . S
C3378 C3381 1.386 . S
H3379 C3395 0.930 . S
H3380 C3396 0.931 . S
C3381 H3369 0.929 . S
C3381 C3375 1.390 . S
C3381 C3378 1.386 . S
C3382 C3377 1.490 . S
C3382 C3384 1.395 . S
C3382 C3385 1.403 . S
H3383 C3389 0.930 . S
C3384 H3370 0.930 . S
C3384 C3382 1.395 . S
C3384 C3387 1.403 . S
C3385 C3382 1.403 . S
C3385 C3386 1.524 . S
C3385 C3389 1.400 . S
C3386 H3371 0.960 . S
C3386 H3372 0.960 . S
C3386 H3373 0.960 . S
C3386 C3385 1.524 . S
C3387 C3384 1.403 . S
C3387 C3388 1.392 . S
C3387 C3391 1.495 . S
C3388 C3387 1.392 . S
C3388 C3389 1.385 . S
C3388 C3390 1.478 . S
C3389 H3383 0.930 . S
C3389 C3385 1.400 . S
C3389 C3388 1.385 . S
C3390 C3388 1.478 . S
C3390 C3392 1.381 . S
C3390 C3396 1.383 . S
C3391 C3387 1.495 . S
C3391 H3397 0.959 . S
C3391 H3398 0.961 . S
C3391 H3399 0.960 . S
C3392 C3390 1.381 . S
C3392 C3393 1.394 . S
C3392 H3400 0.930 . S
C3393 C3392 1.394 . S
C3393 C3394 1.383 . S
C3393 H3401 0.929 . S
C3394 C3393 1.383 . S
C3394 C3395 1.377 . S
C3395 H3379 0.930 . S
C3395 C3394 1.377 . S
C3395 C3396 1.379 . S
C3396 H3380 0.931 . S
C3396 C3390 1.383 . S
C3396 C3395 1.379 . S
H3397 C3391 0.959 . S
H3398 C3391 0.961 . S
H3399 C3391 0.960 . S
H3400 C3392 0.930 . S
H3401 C3393 0.929 . S
H3402 C3410 0.929 . S
H3403 C3412 0.930 . S
H3404 C3414 0.930 . S
H3405 C3417 0.929 . S
H3406 C3420 0.930 . S
H3407 C3422 0.960 . S
H3408 C3422 0.960 . S
H3409 C3422 0.960 . S
C3410 H3402 0.929 . S
C3410 C3411 1.377 . S
C3410 C3412 1.384 . S
C3411 C3410 1.377 . S
C3411 C3417 1.390 . S
C3412 H3403 0.930 . S
C3412 C3410 1.384 . S
C3412 C3413 1.372 . S
C3413 C3412 1.372 . S
C3413 C3414 1.400 . S
C3413 C3418 1.490 . S
C3414 H3404 0.930 . S
C3414 C3413 1.400 . S
C3414 C3417 1.386 . S
H3415 C3431 0.930 . S
H3416 C3432 0.931 . S
C3417 H3405 0.929 . S
C3417 C3411 1.390 . S
C3417 C3414 1.386 . S
C3418 C3413 1.490 . S
C3418 C3420 1.395 . S
C3418 C3421 1.403 . S
H3419 C3425 0.930 . S
C3420 H3406 0.930 . S
C3420 C3418 1.395 . S
C3420 C3423 1.403 . S
C3421 C3418 1.403 . S
C3421 C3422 1.524 . S
C3421 C3425 1.400 . S
C3422 H3407 0.960 . S
C3422 H3408 0.960 . S
C3422 H3409 0.960 . S
C3422 C3421 1.524 . S
C3423 C3420 1.403 . S
C3423 C3424 1.392 . S
C3423 C3427 1.495 . S
C3424 C3423 1.392 . S
C3424 C3425 1.385 . S
C3424 C3426 1.478 . S
C3425 H3419 0.930 . S
C3425 C3421 1.400 . S
C3425 C3424 1.385 . S
C3426 C3424 1.478 . S
C3426 C3428 1.381 . S
C3426 C3432 1.383 . S
C3427 C3423 1.495 . S
C3427 H3433 0.959 . S
C3427 H3434 0.961 . S
C3427 H3435 0.960 . S
C3428 C3426 1.381 . S
C3428 C3429 1.394 . S
C3428 H3436 0.930 . S
C3429 C3428 1.394 . S
C3429 C3430 1.383 . S
C3429 H3437 0.929 . S
C3430 C3429 1.383 . S
C3430 C3431 1.377 . S
C3431 H3415 0.930 . S
C3431 C3430 1.377 . S
C3431 C3432 1.379 . S
C3432 H3416 0.931 . S
C3432 C3426 1.383 . S
C3432 C3431 1.379 . S
H3433 C3427 0.959 . S
H3434 C3427 0.961 . S
H3435 C3427 0.960 . S
H3436 C3428 0.930 . S
H3437 C3429 0.929 . S
H3438 C3446 0.929 . S
H3439 C3448 0.930 . S
H3440 C3450 0.930 . S
H3441 C3453 0.929 . S
H3442 C3456 0.930 . S
H3443 C3458 0.960 . S
H3444 C3458 0.960 . S
H3445 C3458 0.960 . S
C3446 H3438 0.929 . S
C3446 C3447 1.377 . S
C3446 C3448 1.384 . S
C3447 C3446 1.377 . S
C3447 C3453 1.390 . S
C3448 H3439 0.930 . S
C3448 C3446 1.384 . S
C3448 C3449 1.372 . S
C3449 C3448 1.372 . S
C3449 C3450 1.400 . S
C3449 C3454 1.490 . S
C3450 H3440 0.930 . S
C3450 C3449 1.400 . S
C3450 C3453 1.386 . S
H3451 C3467 0.930 . S
H3452 C3468 0.931 . S
C3453 H3441 0.929 . S
C3453 C3447 1.390 . S
C3453 C3450 1.386 . S
C3454 C3449 1.490 . S
C3454 C3456 1.395 . S
C3454 C3457 1.403 . S
H3455 C3461 0.930 . S
C3456 H3442 0.930 . S
C3456 C3454 1.395 . S
C3456 C3459 1.403 . S
C3457 C3454 1.403 . S
C3457 C3458 1.524 . S
C3457 C3461 1.400 . S
C3458 H3443 0.960 . S
C3458 H3444 0.960 . S
C3458 H3445 0.960 . S
C3458 C3457 1.524 . S
C3459 C3456 1.403 . S
C3459 C3460 1.392 . S
C3459 C3463 1.495 . S
C3460 C3459 1.392 . S
C3460 C3461 1.385 . S
C3460 C3462 1.478 . S
C3461 H3455 0.930 . S
C3461 C3457 1.400 . S
C3461 C3460 1.385 . S
C3462 C3460 1.478 . S
C3462 C3464 1.381 . S
C3462 C3468 1.383 . S
C3463 C3459 1.495 . S
C3463 H3469 0.959 . S
C3463 H3470 0.961 . S
C3463 H3471 0.960 . S
C3464 C3462 1.381 . S
C3464 C3465 1.394 . S
C3464 H3472 0.930 . S
C3465 C3464 1.394 . S
C3465 C3466 1.383 . S
C3465 H3473 0.929 . S
C3466 C3465 1.383 . S
C3466 C3467 1.377 . S
C3467 H3451 0.930 . S
C3467 C3466 1.377 . S
C3467 C3468 1.379 . S
C3468 H3452 0.931 . S
C3468 C3462 1.383 . S
C3468 C3467 1.379 . S
H3469 C3463 0.959 . S
H3470 C3463 0.961 . S
H3471 C3463 0.960 . S
H3472 C3464 0.930 . S
H3473 C3465 0.929 . S
H3474 C3482 0.929 . S
H3475 C3484 0.930 . S
H3476 C3486 0.930 . S
H3477 C3489 0.929 . S
H3478 C3492 0.930 . S
H3479 C3494 0.960 . S
H3480 C3494 0.960 . S
H3481 C3494 0.960 . S
C3482 H3474 0.929 . S
C3482 C3483 1.377 1_655 S
C3482 C3484 1.384 . S
C3483 C3482 1.377 1_455 S
C3483 C3489 1.390 . S
C3484 H3475 0.930 . S
C3484 C3482 1.384 . S
C3484 C3485 1.372 . S
C3485 C3484 1.372 . S
C3485 C3486 1.400 . S
C3485 C3490 1.490 . S
C3486 H3476 0.930 . S
C3486 C3485 1.400 . S
C3486 C3489 1.386 1_655 S
H3487 C3503 0.930 . S
H3488 C3504 0.931 . S
C3489 H3477 0.929 . S
C3489 C3483 1.390 . S
C3489 C3486 1.386 1_455 S
C3490 C3485 1.490 . S
C3490 C3492 1.395 . S
C3490 C3493 1.403 . S
H3491 C3497 0.930 . S
C3492 H3478 0.930 . S
C3492 C3490 1.395 . S
C3492 C3495 1.403 . S
C3493 C3490 1.403 . S
C3493 C3494 1.524 . S
C3493 C3497 1.400 . S
C3494 H3479 0.960 . S
C3494 H3480 0.960 . S
C3494 H3481 0.960 . S
C3494 C3493 1.524 . S
C3495 C3492 1.403 . S
C3495 C3496 1.392 . S
C3495 C3499 1.495 . S
C3496 C3495 1.392 . S
C3496 C3497 1.385 . S
C3496 C3498 1.478 . S
C3497 H3491 0.930 . S
C3497 C3493 1.400 . S
C3497 C3496 1.385 . S
C3498 C3496 1.478 . S
C3498 C3500 1.381 . S
C3498 C3504 1.383 . S
C3499 C3495 1.495 . S
C3499 H3505 0.959 . S
C3499 H3506 0.961 . S
C3499 H3507 0.960 . S
C3500 C3498 1.381 . S
C3500 C3501 1.394 . S
C3500 H3508 0.930 . S
C3501 C3500 1.394 . S
C3501 C3502 1.383 . S
C3501 H3509 0.929 . S
C3502 C3501 1.383 . S
C3502 C3503 1.377 . S
C3503 H3487 0.930 . S
C3503 C3502 1.377 . S
C3503 C3504 1.379 . S
C3504 H3488 0.931 . S
C3504 C3498 1.383 . S
C3504 C3503 1.379 . S
H3505 C3499 0.959 . S
H3506 C3499 0.961 . S
H3507 C3499 0.960 . S
H3508 C3500 0.930 . S
H3509 C3501 0.929 . S
H3510 C3518 0.929 . S
H3511 C3520 0.930 . S
H3512 C3522 0.930 . S
H3513 C3525 0.929 . S
H3514 C3528 0.930 . S
H3515 C3530 0.960 . S
H3516 C3530 0.960 . S
H3517 C3530 0.960 . S
C3518 H3510 0.929 . S
C3518 C3519 1.377 . S
C3518 C3520 1.384 . S
C3519 C3518 1.377 . S
C3519 C3525 1.390 . S
C3520 H3511 0.930 . S
C3520 C3518 1.384 . S
C3520 C3521 1.372 . S
C3521 C3520 1.372 . S
C3521 C3522 1.400 . S
C3521 C3526 1.490 . S
C3522 H3512 0.930 . S
C3522 C3521 1.400 . S
C3522 C3525 1.386 . S
H3523 C3539 0.930 . S
H3524 C3540 0.931 . S
C3525 H3513 0.929 . S
C3525 C3519 1.390 . S
C3525 C3522 1.386 . S
C3526 C3521 1.490 . S
C3526 C3528 1.395 . S
C3526 C3529 1.403 . S
H3527 C3533 0.930 . S
C3528 H3514 0.930 . S
C3528 C3526 1.395 . S
C3528 C3531 1.403 . S
C3529 C3526 1.403 . S
C3529 C3530 1.524 . S
C3529 C3533 1.400 . S
C3530 H3515 0.960 . S
C3530 H3516 0.960 . S
C3530 H3517 0.960 . S
C3530 C3529 1.524 . S
C3531 C3528 1.403 . S
C3531 C3532 1.392 . S
C3531 C3535 1.495 . S
C3532 C3531 1.392 . S
C3532 C3533 1.385 . S
C3532 C3534 1.478 . S
C3533 H3527 0.930 . S
C3533 C3529 1.400 . S
C3533 C3532 1.385 . S
C3534 C3532 1.478 . S
C3534 C3536 1.381 . S
C3534 C3540 1.383 . S
C3535 C3531 1.495 . S
C3535 H3541 0.959 . S
C3535 H3542 0.961 . S
C3535 H3543 0.960 . S
C3536 C3534 1.381 . S
C3536 C3537 1.394 . S
C3536 H3544 0.930 . S
C3537 C3536 1.394 . S
C3537 C3538 1.383 . S
C3537 H3545 0.929 . S
C3538 C3537 1.383 . S
C3538 C3539 1.377 . S
C3539 H3523 0.930 . S
C3539 C3538 1.377 . S
C3539 C3540 1.379 . S
C3540 H3524 0.931 . S
C3540 C3534 1.383 . S
C3540 C3539 1.379 . S
H3541 C3535 0.959 . S
H3542 C3535 0.961 . S
H3543 C3535 0.960 . S
H3544 C3536 0.930 . S
H3545 C3537 0.929 . S
H3546 C3554 0.929 1_455 S
H3547 C3556 0.900 1_455 S
H3548 C3558 0.930 . S
H3549 C3561 0.929 . S
H3550 C3564 0.930 . S
H3551 C3566 0.960 . S
H3552 C3566 0.960 . S
H3553 C3566 0.960 . S
C3554 H3546 0.929 1_655 S
C3554 C3555 1.377 . S
C3554 C3556 1.357 . S
C3555 C3554 1.377 . S
C3555 C3561 1.390 . S
C3556 H3547 0.900 1_655 S
C3556 C3554 1.357 . S
C3556 C3557 1.433 . S
C3557 C3556 1.433 . S
C3557 C3558 1.400 . S
C3557 C3562 1.490 . S
C3558 H3548 0.930 . S
C3558 C3557 1.400 . S
C3558 C3561 1.386 . S
H3559 C3575 0.930 . S
H3560 C3576 0.931 . S
C3561 H3549 0.929 . S
C3561 C3555 1.390 . S
C3561 C3558 1.386 . S
C3562 C3557 1.490 . S
C3562 C3564 1.395 . S
C3562 C3565 1.403 . S
H3563 C3569 0.930 . S
C3564 H3550 0.930 . S
C3564 C3562 1.395 . S
C3564 C3567 1.403 . S
C3565 C3562 1.403 . S
C3565 C3566 1.524 . S
C3565 C3569 1.400 . S
C3566 H3551 0.960 . S
C3566 H3552 0.960 . S
C3566 H3553 0.960 . S
C3566 C3565 1.524 . S
C3567 C3564 1.403 . S
C3567 C3568 1.392 . S
C3567 C3571 1.495 . S
C3568 C3567 1.392 . S
C3568 C3569 1.385 . S
C3568 C3570 1.478 . S
C3569 H3563 0.930 . S
C3569 C3565 1.400 . S
C3569 C3568 1.385 . S
C3570 C3568 1.478 . S
C3570 C3572 1.381 1_655 S
C3570 C3576 1.383 . S
C3571 C3567 1.495 . S
C3571 H3577 0.959 . S
C3571 H3578 0.961 . S
C3571 H3579 0.960 1_655 S
C3572 C3570 1.381 1_455 S
C3572 C3573 1.394 . S
C3572 H3580 0.930 . S
C3573 C3572 1.394 . S
C3573 C3574 1.383 1_455 S
C3573 H3581 0.929 . S
C3574 C3573 1.383 1_655 S
C3574 C3575 1.377 . S
C3575 H3559 0.930 . S
C3575 C3574 1.377 . S
C3575 C3576 1.379 . S
C3576 H3560 0.931 . S
C3576 C3570 1.383 . S
C3576 C3575 1.379 . S
H3577 C3571 0.959 . S
H3578 C3571 0.961 . S
H3579 C3571 0.960 1_455 S
H3580 C3572 0.930 . S
H3581 C3573 0.929 . S
H3582 C3590 0.929 . S
H3583 C3592 0.930 . S
H3584 C3594 0.930 . S
H3585 C3597 0.929 . S
H3586 C3600 0.930 . S
H3587 C3602 0.960 . S
H3588 C3602 0.960 . S
H3589 C3602 0.960 . S
C3590 H3582 0.929 . S
C3590 C3591 1.377 . S
C3590 C3592 1.384 . S
C3591 C3590 1.377 . S
C3591 C3597 1.390 . S
C3592 H3583 0.930 . S
C3592 C3590 1.384 . S
C3592 C3593 1.372 . S
C3593 C3592 1.372 . S
C3593 C3594 1.400 . S
C3593 C3598 1.490 . S
C3594 H3584 0.930 . S
C3594 C3593 1.400 . S
C3594 C3597 1.386 . S
H3595 C3611 0.930 . S
H3596 C3612 0.931 . S
C3597 H3585 0.929 . S
C3597 C3591 1.390 . S
C3597 C3594 1.386 . S
C3598 C3593 1.490 . S
C3598 C3600 1.395 . S
C3598 C3601 1.403 . S
H3599 C3605 0.930 . S
C3600 H3586 0.930 . S
C3600 C3598 1.395 . S
C3600 C3603 1.403 . S
C3601 C3598 1.403 . S
C3601 C3602 1.524 . S
C3601 C3605 1.400 . S
C3602 H3587 0.960 . S
C3602 H3588 0.960 . S
C3602 H3589 0.960 . S
C3602 C3601 1.524 . S
C3603 C3600 1.403 . S
C3603 C3604 1.392 . S
C3603 C3607 1.495 . S
C3604 C3603 1.392 . S
C3604 C3605 1.385 . S
C3604 C3606 1.478 . S
C3605 H3599 0.930 . S
C3605 C3601 1.400 . S
C3605 C3604 1.385 . S
C3606 C3604 1.478 . S
C3606 C3608 1.381 . S
C3606 C3612 1.383 . S
C3607 C3603 1.495 . S
C3607 H3613 0.959 . S
C3607 H3614 0.961 . S
C3607 H3615 0.960 . S
C3608 C3606 1.381 . S
C3608 C3609 1.394 . S
C3608 H3616 0.930 . S
C3609 C3608 1.394 . S
C3609 C3610 1.383 . S
C3609 H3617 0.929 . S
C3610 C3609 1.383 . S
C3610 C3611 1.377 . S
C3611 H3595 0.930 . S
C3611 C3610 1.377 . S
C3611 C3612 1.379 . S
C3612 H3596 0.931 . S
C3612 C3606 1.383 . S
C3612 C3611 1.379 . S
H3613 C3607 0.959 . S
H3614 C3607 0.961 . S
H3615 C3607 0.960 . S
H3616 C3608 0.930 . S
H3617 C3609 0.929 . S
H3618 C3626 0.929 . S
H3619 C3628 0.930 . S
H3620 C3630 0.930 . S
H3621 C3633 0.929 . S
H3622 C3636 0.930 . S
H3623 C3638 0.960 . S
H3624 C3638 0.960 . S
H3625 C3638 0.960 . S
C3626 H3618 0.929 . S
C3626 C3627 1.377 . S
C3626 C3628 1.384 . S
C3627 C3626 1.377 . S
C3627 C3633 1.390 . S
C3628 H3619 0.930 . S
C3628 C3626 1.384 . S
C3628 C3629 1.372 . S
C3629 C3628 1.372 . S
C3629 C3630 1.400 . S
C3629 C3634 1.490 . S
C3630 H3620 0.930 . S
C3630 C3629 1.400 . S
C3630 C3633 1.386 . S
H3631 C3647 0.930 . S
H3632 C3648 0.931 . S
C3633 H3621 0.929 . S
C3633 C3627 1.390 . S
C3633 C3630 1.386 . S
C3634 C3629 1.490 . S
C3634 C3636 1.395 . S
C3634 C3637 1.403 . S
H3635 C3641 0.930 . S
C3636 H3622 0.930 . S
C3636 C3634 1.395 . S
C3636 C3639 1.403 . S
C3637 C3634 1.403 . S
C3637 C3638 1.524 . S
C3637 C3641 1.400 . S
C3638 H3623 0.960 . S
C3638 H3624 0.960 . S
C3638 H3625 0.960 . S
C3638 C3637 1.524 . S
C3639 C3636 1.403 . S
C3639 C3640 1.392 . S
C3639 C3643 1.495 . S
C3640 C3639 1.392 . S
C3640 C3641 1.385 . S
C3640 C3642 1.478 . S
C3641 H3635 0.930 . S
C3641 C3637 1.400 . S
C3641 C3640 1.385 . S
C3642 C3640 1.478 . S
C3642 C3644 1.381 . S
C3642 C3648 1.383 . S
C3643 C3639 1.495 . S
C3643 H3649 0.959 . S
C3643 H3650 0.961 . S
C3643 H3651 0.960 . S
C3644 C3642 1.381 . S
C3644 C3645 1.394 . S
C3644 H3652 0.930 . S
C3645 C3644 1.394 . S
C3645 C3646 1.383 . S
C3645 H3653 0.929 . S
C3646 C3645 1.383 . S
C3646 C3647 1.377 . S
C3647 H3631 0.930 . S
C3647 C3646 1.377 . S
C3647 C3648 1.379 . S
C3648 H3632 0.931 . S
C3648 C3642 1.383 . S
C3648 C3647 1.379 . S
H3649 C3643 0.959 . S
H3650 C3643 0.961 . S
H3651 C3643 0.960 . S
H3652 C3644 0.930 . S
H3653 C3645 0.929 . S
H3654 C3662 0.929 . S
H3655 C3664 0.930 . S
H3656 C3666 0.930 . S
H3657 C3669 0.929 . S
H3658 C3672 0.930 . S
H3659 C3674 0.960 . S
H3660 C3674 0.960 . S
H3661 C3674 0.960 . S
C3662 H3654 0.929 . S
C3662 C3663 1.377 . S
C3662 C3664 1.384 1_545 S
C3663 C3662 1.377 . S
C3663 C3669 1.390 1_545 S
C3664 H3655 0.930 . S
C3664 C3662 1.384 1_565 S
C3664 C3665 1.372 . S
C3665 C3664 1.372 . S
C3665 C3666 1.400 . S
C3665 C3670 1.490 . S
C3666 H3656 0.930 . S
C3666 C3665 1.400 . S
C3666 C3669 1.386 . S
H3667 C3683 0.930 . S
H3668 C3684 0.931 . S
C3669 H3657 0.929 . S
C3669 C3663 1.390 1_565 S
C3669 C3666 1.386 . S
C3670 C3665 1.490 . S
C3670 C3672 1.395 . S
C3670 C3673 1.403 . S
H3671 C3677 0.930 . S
C3672 H3658 0.930 . S
C3672 C3670 1.395 . S
C3672 C3675 1.403 . S
C3673 C3670 1.403 . S
C3673 C3674 1.524 . S
C3673 C3677 1.400 . S
C3674 H3659 0.960 . S
C3674 H3660 0.960 . S
C3674 H3661 0.960 . S
C3674 C3673 1.524 . S
C3675 C3672 1.403 . S
C3675 C3676 1.392 . S
C3675 C3679 1.495 . S
C3676 C3675 1.392 . S
C3676 C3677 1.385 . S
C3676 C3678 1.478 . S
C3677 H3671 0.930 . S
C3677 C3673 1.400 . S
C3677 C3676 1.385 . S
C3678 C3676 1.478 . S
C3678 C3680 1.381 . S
C3678 C3684 1.383 . S
C3679 C3675 1.495 . S
C3679 H3685 0.959 . S
C3679 H3686 0.961 . S
C3679 H3687 0.960 . S
C3680 C3678 1.381 . S
C3680 C3681 1.394 . S
C3680 H3688 0.930 . S
C3681 C3680 1.394 . S
C3681 C3682 1.383 . S
C3681 H3689 0.929 . S
C3682 C3681 1.383 . S
C3682 C3683 1.377 . S
C3683 H3667 0.930 . S
C3683 C3682 1.377 . S
C3683 C3684 1.379 . S
C3684 H3668 0.931 . S
C3684 C3678 1.383 . S
C3684 C3683 1.379 . S
H3685 C3679 0.959 . S
H3686 C3679 0.961 . S
H3687 C3679 0.960 . S
H3688 C3680 0.930 . S
H3689 C3681 0.929 . S
H3690 C3698 0.929 . S
H3691 C3700 0.930 . S
H3692 C3702 0.930 . S
H3693 C3705 0.929 . S
H3694 C3708 0.930 . S
H3695 C3710 0.960 . S
H3696 C3710 0.960 . S
H3697 C3710 0.960 . S
C3698 H3690 0.929 . S
C3698 C3699 1.377 . S
C3698 C3700 1.384 . S
C3699 C3698 1.377 . S
C3699 C3705 1.390 . S
C3700 H3691 0.930 . S
C3700 C3698 1.384 . S
C3700 C3701 1.372 . S
C3701 C3700 1.372 . S
C3701 C3702 1.400 . S
C3701 C3706 1.490 . S
C3702 H3692 0.930 . S
C3702 C3701 1.400 . S
C3702 C3705 1.386 . S
H3703 C3719 0.930 . S
H3704 C3720 0.931 . S
C3705 H3693 0.929 . S
C3705 C3699 1.390 . S
C3705 C3702 1.386 . S
C3706 C3701 1.490 . S
C3706 C3708 1.395 . S
C3706 C3709 1.403 . S
H3707 C3713 0.930 . S
C3708 H3694 0.930 . S
C3708 C3706 1.395 . S
C3708 C3711 1.403 . S
C3709 C3706 1.403 . S
C3709 C3710 1.524 . S
C3709 C3713 1.400 . S
C3710 H3695 0.960 . S
C3710 H3696 0.960 . S
C3710 H3697 0.960 . S
C3710 C3709 1.524 . S
C3711 C3708 1.403 . S
C3711 C3712 1.392 . S
C3711 C3715 1.495 . S
C3712 C3711 1.392 . S
C3712 C3713 1.385 . S
C3712 C3714 1.478 . S
C3713 H3707 0.930 . S
C3713 C3709 1.400 . S
C3713 C3712 1.385 . S
C3714 C3712 1.478 . S
C3714 C3716 1.381 . S
C3714 C3720 1.383 . S
C3715 C3711 1.495 . S
C3715 H3721 0.959 . S
C3715 H3722 0.961 . S
C3715 H3723 0.960 . S
C3716 C3714 1.381 . S
C3716 C3717 1.394 . S
C3716 H3724 0.930 . S
C3717 C3716 1.394 . S
C3717 C3718 1.383 . S
C3717 H3725 0.929 . S
C3718 C3717 1.383 . S
C3718 C3719 1.377 . S
C3719 H3703 0.930 . S
C3719 C3718 1.377 . S
C3719 C3720 1.379 . S
C3720 H3704 0.931 . S
C3720 C3714 1.383 . S
C3720 C3719 1.379 . S
H3721 C3715 0.959 . S
H3722 C3715 0.961 . S
H3723 C3715 0.960 . S
H3724 C3716 0.930 . S
H3725 C3717 0.929 . S
H3726 C3734 0.929 . S
H3727 C3736 0.930 . S
H3728 C3738 0.930 . S
H3729 C3741 0.929 . S
H3730 C3744 0.930 . S
H3731 C3746 0.960 . S
H3732 C3746 0.960 . S
H3733 C3746 0.960 . S
C3734 H3726 0.929 . S
C3734 C3735 1.377 . S
C3734 C3736 1.384 . S
C3735 C3734 1.377 . S
C3735 C3741 1.390 . S
C3736 H3727 0.930 . S
C3736 C3734 1.384 . S
C3736 C3737 1.372 . S
C3737 C3736 1.372 . S
C3737 C3738 1.400 . S
C3737 C3742 1.490 . S
C3738 H3728 0.930 . S
C3738 C3737 1.400 . S
C3738 C3741 1.386 . S
H3739 C3755 0.930 . S
H3740 C3756 0.931 . S
C3741 H3729 0.929 . S
C3741 C3735 1.390 . S
C3741 C3738 1.386 . S
C3742 C3737 1.490 . S
C3742 C3744 1.395 . S
C3742 C3745 1.403 . S
H3743 C3749 0.930 . S
C3744 H3730 0.930 . S
C3744 C3742 1.395 . S
C3744 C3747 1.403 . S
C3745 C3742 1.403 . S
C3745 C3746 1.524 . S
C3745 C3749 1.400 . S
C3746 H3731 0.960 . S
C3746 H3732 0.960 . S
C3746 H3733 0.960 . S
C3746 C3745 1.524 . S
C3747 C3744 1.403 . S
C3747 C3748 1.392 . S
C3747 C3751 1.495 . S
C3748 C3747 1.392 . S
C3748 C3749 1.385 . S
C3748 C3750 1.478 . S
C3749 H3743 0.930 . S
C3749 C3745 1.400 . S
C3749 C3748 1.385 . S
C3750 C3748 1.478 . S
C3750 C3752 1.381 . S
C3750 C3756 1.383 . S
C3751 C3747 1.495 . S
C3751 H3757 0.959 . S
C3751 H3758 0.961 . S
C3751 H3759 0.960 . S
C3752 C3750 1.381 . S
C3752 C3753 1.394 . S
C3752 H3760 0.930 . S
C3753 C3752 1.394 . S
C3753 C3754 1.383 . S
C3753 H3761 0.929 . S
C3754 C3753 1.383 . S
C3754 C3755 1.377 . S
C3755 H3739 0.930 . S
C3755 C3754 1.377 . S
C3755 C3756 1.379 . S
C3756 H3740 0.931 . S
C3756 C3750 1.383 . S
C3756 C3755 1.379 . S
H3757 C3751 0.959 . S
H3758 C3751 0.961 . S
H3759 C3751 0.960 . S
H3760 C3752 0.930 . S
H3761 C3753 0.929 . S
H3762 C3770 0.929 . S
H3763 C3772 0.930 . S
H3764 C3774 0.930 . S
H3765 C3777 0.929 . S
H3766 C3780 0.930 . S
H3767 C3782 0.960 . S
H3768 C3782 0.960 . S
H3769 C3782 0.960 . S
C3770 H3762 0.929 . S
C3770 C3771 1.377 1_565 S
C3770 C3772 1.384 . S
C3771 C3770 1.377 1_545 S
C3771 C3777 1.390 . S
C3772 H3763 0.930 . S
C3772 C3770 1.384 . S
C3772 C3773 1.372 . S
C3773 C3772 1.372 . S
C3773 C3774 1.400 . S
C3773 C3778 1.490 . S
C3774 H3764 0.930 . S
C3774 C3773 1.400 . S
C3774 C3777 1.386 1_565 S
H3775 C3791 0.930 . S
H3776 C3792 0.931 . S
C3777 H3765 0.929 . S
C3777 C3771 1.390 . S
C3777 C3774 1.386 1_545 S
C3778 C3773 1.490 . S
C3778 C3780 1.395 . S
C3778 C3781 1.403 . S
H3779 C3785 0.930 . S
C3780 H3766 0.930 . S
C3780 C3778 1.395 . S
C3780 C3783 1.403 . S
C3781 C3778 1.403 . S
C3781 C3782 1.524 . S
C3781 C3785 1.400 . S
C3782 H3767 0.960 . S
C3782 H3768 0.960 . S
C3782 H3769 0.960 . S
C3782 C3781 1.524 . S
C3783 C3780 1.403 . S
C3783 C3784 1.392 . S
C3783 C3787 1.495 . S
C3784 C3783 1.392 . S
C3784 C3785 1.385 . S
C3784 C3786 1.478 . S
C3785 H3779 0.930 . S
C3785 C3781 1.400 . S
C3785 C3784 1.385 . S
C3786 C3784 1.478 . S
C3786 C3788 1.381 . S
C3786 C3792 1.383 . S
C3787 C3783 1.495 . S
C3787 H3793 0.959 . S
C3787 H3794 0.961 . S
C3787 H3795 0.960 . S
C3788 C3786 1.381 . S
C3788 C3789 1.394 . S
C3788 H3796 0.930 . S
C3789 C3788 1.394 . S
C3789 C3790 1.383 . S
C3789 H3797 0.929 . S
C3790 C3789 1.383 . S
C3790 C3791 1.377 . S
C3791 H3775 0.930 . S
C3791 C3790 1.377 . S
C3791 C3792 1.379 . S
C3792 H3776 0.931 . S
C3792 C3786 1.383 . S
C3792 C3791 1.379 . S
H3793 C3787 0.959 . S
H3794 C3787 0.961 . S
H3795 C3787 0.960 . S
H3796 C3788 0.930 . S
H3797 C3789 0.929 . S
H3798 C3806 0.929 . S
H3799 C3808 0.930 . S
H3800 C3810 0.930 . S
H3801 C3813 0.929 . S
H3802 C3816 0.930 . S
H3803 C3818 0.960 . S
H3804 C3818 0.960 . S
H3805 C3818 0.960 . S
C3806 H3798 0.929 . S
C3806 C3807 1.377 . S
C3806 C3808 1.384 . S
C3807 C3806 1.377 . S
C3807 C3813 1.390 . S
C3808 H3799 0.930 . S
C3808 C3806 1.384 . S
C3808 C3809 1.372 . S
C3809 C3808 1.372 . S
C3809 C3810 1.400 . S
C3809 C3814 1.490 . S
C3810 H3800 0.930 . S
C3810 C3809 1.400 . S
C3810 C3813 1.386 . S
H3811 C3827 0.930 . S
H3812 C3828 0.931 . S
C3813 H3801 0.929 . S
C3813 C3807 1.390 . S
C3813 C3810 1.386 . S
C3814 C3809 1.490 . S
C3814 C3816 1.395 . S
C3814 C3817 1.403 . S
H3815 C3821 0.930 . S
C3816 H3802 0.930 . S
C3816 C3814 1.395 . S
C3816 C3819 1.403 . S
C3817 C3814 1.403 . S
C3817 C3818 1.524 . S
C3817 C3821 1.400 . S
C3818 H3803 0.960 . S
C3818 H3804 0.960 . S
C3818 H3805 0.960 . S
C3818 C3817 1.524 . S
C3819 C3816 1.403 . S
C3819 C3820 1.392 . S
C3819 C3823 1.495 . S
C3820 C3819 1.392 . S
C3820 C3821 1.385 . S
C3820 C3822 1.478 . S
C3821 H3815 0.930 . S
C3821 C3817 1.400 . S
C3821 C3820 1.385 . S
C3822 C3820 1.478 . S
C3822 C3824 1.381 . S
C3822 C3828 1.383 . S
C3823 C3819 1.495 . S
C3823 H3829 0.959 . S
C3823 H3830 0.961 . S
C3823 H3831 0.960 . S
C3824 C3822 1.381 . S
C3824 C3825 1.394 . S
C3824 H3832 0.930 . S
C3825 C3824 1.394 . S
C3825 C3826 1.383 . S
C3825 H3833 0.929 . S
C3826 C3825 1.383 . S
C3826 C3827 1.377 . S
C3827 H3811 0.930 . S
C3827 C3826 1.377 . S
C3827 C3828 1.379 . S
C3828 H3812 0.931 . S
C3828 C3822 1.383 . S
C3828 C3827 1.379 . S
H3829 C3823 0.959 . S
H3830 C3823 0.961 . S
H3831 C3823 0.960 . S
H3832 C3824 0.930 . S
H3833 C3825 0.929 . S
H3834 C3842 0.929 . S
H3835 C3844 0.930 . S
H3836 C3846 0.930 . S
H3837 C3849 0.929 . S
H3838 C3852 0.930 . S
H3839 C3854 0.960 . S
H3840 C3854 0.960 . S
H3841 C3854 0.960 . S
C3842 H3834 0.929 . S
C3842 C3843 1.377 . S
C3842 C3844 1.384 . S
C3843 C3842 1.377 . S
C3843 C3849 1.390 . S
C3844 H3835 0.930 . S
C3844 C3842 1.384 . S
C3844 C3845 1.372 . S
C3845 C3844 1.372 . S
C3845 C3846 1.400 . S
C3845 C3850 1.490 . S
C3846 H3836 0.930 . S
C3846 C3845 1.400 . S
C3846 C3849 1.386 . S
H3847 C3863 0.930 . S
H3848 C3864 0.931 . S
C3849 H3837 0.929 . S
C3849 C3843 1.390 . S
C3849 C3846 1.386 . S
C3850 C3845 1.490 . S
C3850 C3852 1.395 . S
C3850 C3853 1.406 1_655 S
H3851 C3857 0.912 1_455 S
C3852 H3838 0.930 . S
C3852 C3850 1.395 . S
C3852 C3855 1.403 . S
C3853 C3850 1.406 1_455 S
C3853 C3854 1.522 . S
C3853 C3857 1.407 1_455 S
C3854 H3839 0.960 . S
C3854 H3840 0.960 . S
C3854 H3841 0.960 . S
C3854 C3853 1.522 . S
C3855 C3852 1.403 . S
C3855 C3856 1.392 . S
C3855 C3859 1.495 . S
C3856 C3855 1.392 . S
C3856 C3857 1.394 . S
C3856 C3858 1.478 . S
C3857 H3851 0.912 1_655 S
C3857 C3853 1.407 1_655 S
C3857 C3856 1.394 . S
C3858 C3856 1.478 . S
C3858 C3860 1.381 . S
C3858 C3864 1.383 . S
C3859 C3855 1.495 . S
C3859 H3865 0.959 . S
C3859 H3866 0.961 . S
C3859 H3867 0.960 . S
C3860 C3858 1.381 . S
C3860 C3861 1.394 . S
C3860 H3868 0.930 . S
C3861 C3860 1.394 . S
C3861 C3862 1.383 . S
C3861 H3869 0.929 . S
C3862 C3861 1.383 . S
C3862 C3863 1.377 . S
C3863 H3847 0.930 . S
C3863 C3862 1.377 . S
C3863 C3864 1.379 . S
C3864 H3848 0.931 . S
C3864 C3858 1.383 . S
C3864 C3863 1.379 . S
H3865 C3859 0.959 . S
H3866 C3859 0.961 . S
H3867 C3859 0.960 . S
H3868 C3860 0.930 . S
H3869 C3861 0.929 . S
H3870 C3878 0.929 . S
H3871 C3880 0.930 . S
H3872 C3882 0.930 . S
H3873 C3885 0.929 . S
H3874 C3888 0.930 . S
H3875 C3890 0.960 . S
H3876 C3890 0.960 . S
H3877 C3890 0.960 . S
C3878 H3870 0.929 . S
C3878 C3879 1.377 . S
C3878 C3880 1.384 . S
C3879 C3878 1.377 . S
C3879 C3885 1.390 . S
C3880 H3871 0.930 . S
C3880 C3878 1.384 . S
C3880 C3881 1.372 . S
C3881 C3880 1.372 . S
C3881 C3882 1.400 . S
C3881 C3886 1.490 . S
C3882 H3872 0.930 . S
C3882 C3881 1.400 . S
C3882 C3885 1.386 . S
H3883 C3899 0.930 . S
H3884 C3900 0.931 . S
C3885 H3873 0.929 . S
C3885 C3879 1.390 . S
C3885 C3882 1.386 . S
C3886 C3881 1.490 . S
C3886 C3888 1.395 . S
C3886 C3889 1.403 . S
H3887 C3893 0.930 . S
C3888 H3874 0.930 . S
C3888 C3886 1.395 . S
C3888 C3891 1.403 . S
C3889 C3886 1.403 . S
C3889 C3890 1.524 . S
C3889 C3893 1.400 . S
C3890 H3875 0.960 . S
C3890 H3876 0.960 . S
C3890 H3877 0.960 . S
C3890 C3889 1.524 . S
C3891 C3888 1.403 . S
C3891 C3892 1.392 . S
C3891 C3895 1.495 . S
C3892 C3891 1.392 . S
C3892 C3893 1.385 . S
C3892 C3894 1.478 . S
C3893 H3887 0.930 . S
C3893 C3889 1.400 . S
C3893 C3892 1.385 . S
C3894 C3892 1.478 . S
C3894 C3896 1.381 . S
C3894 C3900 1.383 . S
C3895 C3891 1.495 . S
C3895 H3901 0.959 . S
C3895 H3902 0.961 . S
C3895 H3903 0.960 . S
C3896 C3894 1.381 . S
C3896 C3897 1.394 . S
C3896 H3904 0.930 . S
C3897 C3896 1.394 . S
C3897 C3898 1.383 . S
C3897 H3905 0.929 . S
C3898 C3897 1.383 . S
C3898 C3899 1.377 . S
C3899 H3883 0.930 . S
C3899 C3898 1.377 . S
C3899 C3900 1.379 . S
C3900 H3884 0.931 . S
C3900 C3894 1.383 . S
C3900 C3899 1.379 . S
H3901 C3895 0.959 . S
H3902 C3895 0.961 . S
H3903 C3895 0.960 . S
H3904 C3896 0.930 . S
H3905 C3897 0.929 . S
H3906 C3914 0.929 . S
H3907 C3916 0.930 . S
H3908 C3918 0.930 . S
H3909 C3921 0.929 . S
H3910 C3924 0.930 . S
H3911 C3926 0.960 . S
H3912 C3926 0.960 . S
H3913 C3926 0.960 . S
C3914 H3906 0.929 . S
C3914 C3915 1.377 . S
C3914 C3916 1.384 . S
C3915 C3914 1.377 . S
C3915 C3921 1.390 . S
C3916 H3907 0.930 . S
C3916 C3914 1.384 . S
C3916 C3917 1.372 . S
C3917 C3916 1.372 . S
C3917 C3918 1.400 . S
C3917 C3922 1.490 . S
C3918 H3908 0.930 . S
C3918 C3917 1.400 . S
C3918 C3921 1.386 . S
H3919 C3935 0.930 . S
H3920 C3936 0.931 . S
C3921 H3909 0.929 . S
C3921 C3915 1.390 . S
C3921 C3918 1.386 . S
C3922 C3917 1.490 . S
C3922 C3924 1.395 . S
C3922 C3925 1.403 . S
H3923 C3929 0.930 . S
C3924 H3910 0.930 . S
C3924 C3922 1.395 . S
C3924 C3927 1.403 . S
C3925 C3922 1.403 . S
C3925 C3926 1.524 . S
C3925 C3929 1.400 . S
C3926 H3911 0.960 . S
C3926 H3912 0.960 . S
C3926 H3913 0.960 . S
C3926 C3925 1.524 . S
C3927 C3924 1.403 . S
C3927 C3928 1.392 . S
C3927 C3931 1.495 . S
C3928 C3927 1.392 . S
C3928 C3929 1.385 . S
C3928 C3930 1.478 . S
C3929 H3923 0.930 . S
C3929 C3925 1.400 . S
C3929 C3928 1.385 . S
C3930 C3928 1.478 . S
C3930 C3932 1.381 . S
C3930 C3936 1.383 . S
C3931 C3927 1.495 . S
C3931 H3937 0.959 . S
C3931 H3938 0.961 . S
C3931 H3939 0.960 . S
C3932 C3930 1.381 . S
C3932 C3933 1.394 . S
C3932 H3940 0.930 . S
C3933 C3932 1.394 . S
C3933 C3934 1.383 . S
C3933 H3941 0.929 . S
C3934 C3933 1.383 . S
C3934 C3935 1.377 . S
C3935 H3919 0.930 . S
C3935 C3934 1.377 . S
C3935 C3936 1.379 . S
C3936 H3920 0.931 . S
C3936 C3930 1.383 . S
C3936 C3935 1.379 . S
H3937 C3931 0.959 . S
H3938 C3931 0.961 . S
H3939 C3931 0.960 . S
H3940 C3932 0.930 . S
H3941 C3933 0.929 . S
C1359 C10 1.698 . S
C1378 C839 1.632 . S
C1395 C23 1.686 . S
C1414 C883 1.658 . S
C1450 C963 1.640 . S
C1431 C29 1.701 . S
C1467 C30 1.696 . S
C1486 C1007 1.649 . S
C1503 C5 1.704 . S
C1522 C1087 1.676 . S
C1539 C18 1.693 . S
C1558 C1149 1.622 . S
C1575 C49 1.698 . S
C1594 C1069 1.630 . S
C1630 C1131 1.645 . S
C1611 C62 1.686 . S
C1666 C1025 1.668 . S
C1647 C70 1.696 . S
C1683 C75 1.696 . S
C1702 C945 1.618 . S
C1738 C821 1.630 . S
C1719 C44 1.704 . S
C1755 C57 1.691 . S
C1774 C901 1.656 . S
C1791 C88 1.698 . S
C1810 C1211 1.647 . S
C1827 C101 1.687 . S
C1846 C1255 1.655 . S
C1882 C1335 1.620 . S
C1863 C107 1.696 . S
C1899 C108 1.697 . S
C1918 C281 1.621 . S
C1935 C83 1.704 . S
C1954 C325 1.657 . S
C1971 C96 1.694 . S
C1990 C405 1.650 . S
C2007 C127 1.700 . S
C2026 C343 1.668 . S
C2043 C140 1.686 . S
C2062 C387 1.641 . S
C2098 C263 1.636 . S
C2079 C146 1.694 . S
C2134 C1317 1.618 . S
C2115 C147 1.696 . S
C2170 C1193 1.640 . S
C2151 C122 1.705 . S
C2206 C1273 1.665 . S
C2187 C135 1.694 . S
C2223 C160 1.700 . S
C2242 C467 1.638 . S
C2259 C173 1.686 . S
C2278 C529 1.617 . S
C2295 C185 1.696 . S
C2314 C573 1.666 . S
C2331 C186 1.696 . S
C2350 C635 1.665 . S
C2386 C697 1.642 . S
C2367 C159 1.705 . S
C2422 C777 1.628 . S
C2403 C172 1.692 . S
C2458 C715 1.633 . S
C2439 C205 1.699 . S
C2494 C759 1.647 . S
C2475 C218 1.688 . S
C2511 C224 1.696 . S
C2530 C653 1.670 . S
C2566 C591 1.666 . S
C2547 C225 1.696 . S
C2583 C200 1.707 . S
C2602 C449 1.671 . S
C2638 C511 1.623 . S
C2619 C213 1.691 . S
C2674 C287 1.475 . S
C2655 C4 1.512 . S
C2691 C17 1.503 . S
C2710 C331 1.451 . S
C2746 C411 1.454 . S
C2727 C31 1.516 . S
C2782 C473 1.425 . S
C2763 C36 1.509 1_556 S
C2818 C535 1.463 . S
C2799 C3 1.523 1_556 S
C2854 C579 1.481 . S
C2835 C16 1.514 1_556 S
C2871 C43 1.512 1_556 S
C2890 C597 1.428 . S
C2907 C56 1.504 1_556 S
C2926 C455 1.436 . S
C2943 C68 1.515 1_556 S
C2962 C517 1.469 . S
C2979 C69 1.509 . S
C2998 C349 1.442 . S
C3034 C393 1.460 . S
C3015 C42 1.522 . S
C3051 C55 1.515 . S
C3070 C269 1.426 . S
C3106 C641 1.480 . S
C3087 C82 1.513 . S
C3123 C95 1.503 . S
C3142 C703 1.443 . S
C3159 C109 1.516 . S
C3178 C783 1.467 . S
C3214 C845 1.426 . S
C3195 C114 1.509 . S
C3231 C81 1.521 . S
C3250 C889 1.438 . S
C3267 C94 1.515 . S
C3286 C969 1.481 . S
C3303 C121 1.511 . S
C3322 C951 1.448 . S
C3339 C134 1.503 . S
C3358 C827 1.438 . S
C3394 C907 1.438 . S
C3375 C148 1.516 . S
C3411 C153 1.511 . S
C3430 C721 1.462 . S
C3447 C120 1.521 . S
C3466 C765 1.488 . S
C3502 C659 1.429 . S
C3483 C133 1.514 . S
C3538 C1013 1.482 . S
C3519 C166 1.513 . S
C3555 C179 1.504 . S
C3574 C1093 1.476 . S
C3591 C187 1.515 . S
C3610 C1155 1.460 . S
C3646 C1217 1.469 . S
C3627 C192 1.510 . S
C3682 C1261 1.437 . S
C3663 C161 1.521 . S
C3699 C174 1.515 . S
C3718 C1341 1.477 . S
C3735 C199 1.512 . S
C3754 C1323 1.436 . S
C3771 C212 1.504 . S
C3790 C1199 1.435 . S
C3826 C1279 1.477 . S
C3807 C226 1.515 . S
C3862 C1075 1.438 . S
C3843 C231 1.503 . S
C3898 C1137 1.441 . S
C3879 C198 1.523 . S
C3915 C211 1.513 . S
C3934 C1031 1.467 . S
