# Generated by pormake.
# Topology pts, (4,4)-cn, num edge types: 1
# Building blocks:
#     Node 0, Type 0, BuildingBlock: AZAVOO_clean_linker_0, # of connection points: 4
#     Node 1, Type 0, BuildingBlock: AZAVOO_clean_linker_0, # of connection points: 4
#     Node 2, Type 1, BuildingBlock: UXUYUI_clean_sbu_0, # of connection points: 4
#     Node 3, Type 1, BuildingBlock: UXUYUI_clean_sbu_0, # of connection points: 4
#     Edge 4, Type (0, 1), BuildingBlock: OJICUG_clean_linker_0, # of connection points: 2
#     Edge 5, Type (0, 1), BuildingBlock: OJICUG_clean_linker_0, # of connection points: 2
#     Edge 6, Type (0, 1), BuildingBlock: OJICUG_clean_linker_0, # of connection points: 2
#     Edge 7, Type (0, 1), BuildingBlock: OJICUG_clean_linker_0, # of connection points: 2
#     Edge 8, Type (0, 1), BuildingBlock: OJICUG_clean_linker_0, # of connection points: 2
#     Edge 9, Type (0, 1), BuildingBlock: OJICUG_clean_linker_0, # of connection points: 2
#     Edge 10, Type (0, 1), BuildingBlock: OJICUG_clean_linker_0, # of connection points: 2
#     Edge 11, Type (0, 1), BuildingBlock: OJICUG_clean_linker_0, # of connection points: 2
# Relax obj value: 0.129
# Max RMSD: 0.231
# Mean RMSD: 0.163
data_MOF--net-pts--node1-UXUYUI_clean_sbu_0--node2-AZAVOO_clean_linker_0--edge1-OJICUG_clean_linker_0
_symmetry_space_group_name_H-M    P1
_symmetry_Int_Tables_number       1
_symmetry_cell_setting            triclinic
loop_
_symmetry_equiv_pos_as_xyz
'x, y, z'
_cell_length_a     26.23445
_cell_length_b     26.237482
_cell_length_c     45.227823
_cell_angle_alpha  91.788587
_cell_angle_beta   91.731656
_cell_angle_gamma 90.061113
loop_
_atom_site_label
_atom_site_type_symbol
_atom_site_fract_x
_atom_site_fract_y
_atom_site_fract_z
_atom_type_partial_charge
H0 H 0.46062 0.10292 0.80509 0.0
H1 H 0.87042 0.00124 0.05297 0.0
H2 H 0.44767 0.14561 0.96585 0.0
H3 H 0.36834 0.14521 0.93624 0.0
H4 H 0.34525 0.98671 0.95566 0.0
H5 H 0.42555 0.98734 0.98479 0.0
H6 H 0.54275 0.13679 0.92585 0.0
H7 H 0.51374 0.13697 0.87389 0.0
H8 H 0.45899 0.98233 0.88059 0.0
H9 H 0.48894 0.98243 0.93235 0.0
H10 H 0.64975 0.13384 0.95736 0.0
H11 H 0.71167 0.1312 0.91785 0.0
H12 H 0.66932 0.97481 0.89641 0.0
H13 H 0.60813 0.97765 0.93631 0.0
H14 H 0.65966 0.13626 0.02577 0.0
H15 H 0.74764 0.13223 0.04511 0.0
H16 H 0.75344 0.97239 0.01901 0.0
H17 H 0.66512 0.97686 0.00014 0.0
H18 H 0.57356 0.13804 0.06487 0.0
H19 H 0.63131 0.14021 0.10847 0.0
H20 H 0.65512 0.97784 0.09716 0.0
H21 H 0.59668 0.97608 0.05423 0.0
H22 H 0.45544 0.14196 0.03635 0.0
H23 H 0.38637 0.14124 0.07171 0.0
H24 H 0.41069 0.98016 0.08342 0.0
H25 H 0.47955 0.98129 0.04796 0.0
O26 O 0.47233 0.10185 0.82557 0.0
O27 O 0.44411 0.02266 0.83034 0.0
O28 O 0.83068 0.08622 0.05828 0.0
O29 O 0.83606 0.0042 0.04482 0.0
C30 C 0.49671 0.06282 0.98666 0.0
C31 C 0.53384 0.06026 0.96462 0.0
C32 C 0.58601 0.05821 0.97279 0.0
C33 C 0.60111 0.05822 0.00293 0.0
C34 C 0.56387 0.05881 0.02498 0.0
C35 C 0.51162 0.0614 0.01687 0.0
C36 C 0.44231 0.06647 0.97728 0.0
C37 C 0.42444 0.11139 0.96462 0.0
C38 C 0.37912 0.11102 0.94767 0.0
C39 C 0.35096 0.06566 0.94323 0.0
C40 C 0.36664 0.02197 0.9583 0.0
C41 C 0.41206 0.0224 0.97525 0.0
C42 C 0.51783 0.05966 0.93281 0.0
C43 C 0.52483 0.1029 0.91595 0.0
C44 C 0.50806 0.10293 0.88633 0.0
C45 C 0.48391 0.0597 0.8731 0.0
C46 C 0.47737 0.01627 0.89008 0.0
C47 C 0.49438 0.01623 0.91965 0.0
C48 C 0.62473 0.05591 0.94965 0.0
C49 C 0.6542 0.09898 0.94422 0.0
C50 C 0.6891 0.09752 0.92151 0.0
C51 C 0.69514 0.05285 0.90395 0.0
C52 C 0.6658 0.0096 0.90972 0.0
C53 C 0.6308 0.01117 0.93238 0.0
C54 C 0.65611 0.05684 0.01166 0.0
C55 C 0.68018 0.10054 0.02406 0.0
C56 C 0.73037 0.09808 0.03513 0.0
C57 C 0.75751 0.05188 0.03374 0.0
C58 C 0.73361 0.00851 0.02051 0.0
C59 C 0.68331 0.01099 0.00955 0.0
C60 C 0.58124 0.05695 0.05639 0.0
C61 C 0.58928 0.10262 0.07277 0.0
C62 C 0.62291 0.10387 0.09736 0.0
C63 C 0.64872 0.0594 0.10586 0.0
C64 C 0.63584 0.01276 0.09134 0.0
C65 C 0.60222 0.01157 0.06683 0.0
C66 C 0.47243 0.06172 0.03973 0.0
C67 C 0.44607 0.1067 0.0468 0.0
C68 C 0.40682 0.10622 0.06702 0.0
C69 C 0.39304 0.0606 0.08025 0.0
C70 C 0.4201 0.01574 0.07334 0.0
C71 C 0.4596 0.01636 0.05331 0.0
C72 C 0.46554 0.06007 0.84174 0.0
C73 C 0.81027 0.0487 0.04634 0.0
H74 H 0.01654 0.4696 0.30649 0.0
H75 H 0.15339 0.87045 0.55909 0.0
H76 H 0.9912 0.45269 0.4671 0.0
H77 H 0.98685 0.37475 0.43619 0.0
H78 H 0.1481 0.35079 0.45253 0.0
H79 H 0.15206 0.42943 0.48329 0.0
H80 H 0.99729 0.54788 0.4282 0.0
H81 H 0.99081 0.52048 0.37597 0.0
H82 H 0.14693 0.46784 0.38094 0.0
H83 H 0.15306 0.49613 0.433 0.0
H84 H 0.00343 0.65392 0.4635 0.0
H85 H 0.9977 0.7182 0.42557 0.0
H86 H 0.15004 0.67973 0.3987 0.0
H87 H 0.1552 0.6151 0.43673 0.0
H88 H 0.01009 0.66451 0.52729 0.0
H89 H 0.01775 0.75215 0.54707 0.0
H90 H 0.17701 0.75318 0.52502 0.0
H91 H 0.16886 0.66526 0.50559 0.0
H92 H 0.00684 0.57732 0.56465 0.0
H93 H 0.00702 0.63614 0.60762 0.0
H94 H 0.17043 0.65258 0.60264 0.0
H95 H 0.16958 0.59447 0.55934 0.0
H96 H 0.9982 0.45573 0.53006 0.0
H97 H 0.99383 0.38649 0.56482 0.0
H98 H 0.15119 0.41424 0.59184 0.0
H99 H 0.15553 0.48247 0.5562 0.0
O100 O 0.02013 0.4808 0.32704 0.0
O101 O 0.1003 0.45376 0.3309 0.0
O102 O 0.06683 0.8339 0.56131 0.0
O103 O 0.14898 0.8363 0.55068 0.0
C104 C 0.07716 0.50041 0.48773 0.0
C105 C 0.0787 0.5385 0.46632 0.0
C106 C 0.08202 0.59027 0.47532 0.0
C107 C 0.08529 0.60397 0.50566 0.0
C108 C 0.08506 0.5658 0.52714 0.0
C109 C 0.08023 0.51393 0.51822 0.0
C110 C 0.07192 0.44655 0.47736 0.0
C111 C 0.02511 0.42949 0.46495 0.0
C112 C 0.02278 0.38504 0.44722 0.0
C113 C 0.06732 0.35708 0.44161 0.0
C114 C 0.11335 0.37204 0.45615 0.0
C115 C 0.11558 0.41646 0.47402 0.0
C116 C 0.07561 0.52394 0.43431 0.0
C117 C 0.03014 0.53083 0.41786 0.0
C118 C 0.02652 0.51496 0.38808 0.0
C119 C 0.06832 0.49183 0.37429 0.0
C120 C 0.114 0.48546 0.39087 0.0
C121 C 0.11762 0.50155 0.42059 0.0
C122 C 0.07982 0.63025 0.45292 0.0
C123 C 0.03568 0.65974 0.44957 0.0
C124 C 0.03254 0.69641 0.42794 0.0
C125 C 0.0735 0.7041 0.40921 0.0
C126 C 0.11771 0.67431 0.41261 0.0
C127 C 0.12087 0.6377 0.43437 0.0
C128 C 0.08898 0.6586 0.51516 0.0
C129 C 0.0465 0.68389 0.52661 0.0
C130 C 0.05101 0.7339 0.5379 0.0
C131 C 0.09808 0.75962 0.53774 0.0
C132 C 0.14026 0.73446 0.52555 0.0
C133 C 0.1357 0.68437 0.51432 0.0
C134 C 0.08812 0.58205 0.5588 0.0
C135 C 0.04295 0.59157 0.57379 0.0
C136 C 0.04314 0.6255 0.59826 0.0
C137 C 0.08861 0.65001 0.60802 0.0
C138 C 0.13467 0.63515 0.5952 0.0
C139 C 0.1344 0.60136 0.57074 0.0
C140 C 0.07722 0.47394 0.54055 0.0
C141 C 0.03169 0.44682 0.54352 0.0
C142 C 0.02918 0.40754 0.56356 0.0
C143 C 0.07218 0.39476 0.58114 0.0
C144 C 0.11758 0.42265 0.57838 0.0
C145 C 0.12005 0.4619 0.55824 0.0
C146 C 0.0641 0.47428 0.34279 0.0
C147 C 0.10345 0.81219 0.55057 0.0
Li148 Li 0.04695 0.08904 0.26576 0.0
Li149 Li 0.04413 0.99678 0.25918 0.0
Li150 Li 0.08772 0.04949 0.22416 0.0
Li151 Li 0.99492 0.04807 0.22589 0.0
C152 C 0.13174 0.05773 0.29083 0.0
N153 N 0.18184 0.09551 0.34154 0.0
C154 C 0.12815 0.03237 0.31743 0.0
C155 C 0.16095 0.10226 0.29005 0.0
C156 C 0.15379 0.05205 0.34281 0.0
C157 C 0.1859 0.12079 0.31592 0.0
C158 C 0.93732 0.05171 0.27181 0.0
C159 C 0.84994 0.02312 0.26703 0.0
N160 N 0.83398 0.07112 0.27417 0.0
C161 C 0.92004 0.10077 0.27908 0.0
C162 C 0.90201 0.01251 0.26577 0.0
C163 C 0.86765 0.10978 0.2802 0.0
C164 C 0.06376 0.18916 0.29179 0.0
N165 N 0.04943 0.14032 0.29631 0.0
C166 C 0.04089 0.15832 0.348 0.0
C167 C 0.03764 0.12458 0.32362 0.0
C168 C 0.05624 0.2089 0.34421 0.0
C169 C 0.06755 0.22431 0.31561 0.0
H170 H 0.07265 0.20066 0.26979 0.0
H171 H 0.02645 0.08538 0.32647 0.0
C172 C 0.08977 0.90725 0.28152 0.0
N173 N 0.04697 0.93643 0.28118 0.0
C174 C 0.0943 0.86673 0.30075 0.0
C175 C 0.01026 0.88666 0.31832 0.0
C176 C 0.0074 0.92667 0.29884 0.0
C177 C 0.05456 0.85675 0.31991 0.0
H178 H 0.12114 0.91672 0.26771 0.0
H179 H 0.97434 0.95108 0.29858 0.0
C180 C 0.05879 0.13525 0.20153 0.0
N181 N 0.09982 0.18482 0.15475 0.0
C182 C 0.03597 0.13029 0.17326 0.0
C183 C 0.10234 0.16558 0.20605 0.0
C184 C 0.0573 0.15568 0.14989 0.0
C185 C 0.12257 0.19023 0.1821 0.0
C186 C 0.04823 0.94005 0.21152 0.0
C187 C 0.09569 0.92152 0.20297 0.0
C188 C 0.00931 0.90574 0.21748 0.0
C189 C 0.1034 0.8689 0.20051 0.0
C190 C 0.01858 0.8534 0.21483 0.0
N191 N 0.06502 0.83621 0.20646 0.0
C192 C 0.1914 0.06294 0.20924 0.0
C193 C 0.13449 0.04351 0.16875 0.0
C194 C 0.23234 0.06535 0.1903 0.0
N195 N 0.14364 0.05252 0.1982 0.0
C196 C 0.17437 0.04515 0.14903 0.0
C197 C 0.22408 0.05626 0.15976 0.0
H198 H 0.19786 0.06899 0.23276 0.0
H199 H 0.09614 0.03491 0.16062 0.0
C200 C 0.90761 0.09822 0.20315 0.0
N201 N 0.93215 0.05263 0.20382 0.0
C202 C 0.85987 0.10201 0.18886 0.0
C203 C 0.86385 0.01198 0.17604 0.0
C204 C 0.91161 0.01003 0.19039 0.0
C205 C 0.83724 0.05838 0.17527 0.0
H206 H 0.92486 0.13146 0.21412 0.0
H207 H 0.93208 0.97441 0.19105 0.0
O208 O 0.1059 0.03975 0.26588 0.0
O209 O 0.98845 0.04238 0.2698 0.0
O210 O 0.03918 0.10977 0.22454 0.0
O211 O 0.04013 0.99145 0.21444 0.0
H212 H 0.10536 0.99822 0.31863 0.0
H213 H 0.16339 0.123 0.26985 0.0
H214 H 0.15116 0.03292 0.36355 0.0
H215 H 0.20823 0.15545 0.31567 0.0
H216 H 0.82221 0.99325 0.26218 0.0
H217 H 0.94669 0.13175 0.28342 0.0
H218 H 0.91464 0.97451 0.25959 0.0
H219 H 0.85375 0.1476 0.28569 0.0
H220 H 0.03238 0.14467 0.36966 0.0
H221 H 0.07881 0.26317 0.31166 0.0
H222 H 0.12935 0.84499 0.30152 0.0
H223 H 0.9785 0.87988 0.33245 0.0
H224 H 0.00252 0.10663 0.1693 0.0
H225 H 0.12081 0.16937 0.22771 0.0
H226 H 0.04017 0.15203 0.12787 0.0
H227 H 0.15648 0.21351 0.18522 0.0
H228 H 0.12642 0.9474 0.19853 0.0
H229 H 0.97267 0.91932 0.22469 0.0
H230 H 0.13996 0.85404 0.19398 0.0
H231 H 0.98892 0.82644 0.21958 0.0
H232 H 0.2702 0.07326 0.19952 0.0
H233 H 0.16631 0.03825 0.12562 0.0
H234 H 0.84052 0.13845 0.18886 0.0
H235 H 0.84815 0.97767 0.16537 0.0
Li236 Li 0.99279 0.04856 0.75745 0.0
Li237 Li 0.08474 0.04978 0.76665 0.0
Li238 Li 0.0464 0.08684 0.72232 0.0
Li239 Li 0.04911 0.99444 0.72798 0.0
C240 C 0.04391 0.1593 0.76317 0.0
N241 N 0.05901 0.26281 0.75794 0.0
C242 C 0.09124 0.18112 0.77097 0.0
C243 C 0.00419 0.19013 0.75283 0.0
C244 C 0.09809 0.23355 0.76818 0.0
C245 C 0.01262 0.24236 0.75028 0.0
C246 C 0.05231 0.97354 0.79704 0.0
C247 C 0.11334 0.92796 0.82715 0.0
N248 N 0.08662 0.9407 0.85159 0.0
C249 C 0.0254 0.9861 0.82247 0.0
C250 C 0.09655 0.94408 0.79937 0.0
C251 C 0.04336 0.96911 0.84983 0.0
C252 C 0.90286 0.0074 0.77973 0.0
N253 N 0.93041 0.05093 0.77752 0.0
C254 C 0.87549 0.09581 0.81037 0.0
C255 C 0.9174 0.09479 0.79212 0.0
C256 C 0.84699 0.05111 0.81377 0.0
C257 C 0.86057 0.0067 0.79771 0.0
H258 H 0.91484 0.9728 0.76835 0.0
H259 H 0.94079 0.12844 0.79059 0.0
C260 C 0.18352 0.04174 0.79401 0.0
N261 N 0.13468 0.0572 0.79771 0.0
C262 C 0.21832 0.04322 0.81799 0.0
C263 C 0.15221 0.0779 0.84881 0.0
C264 C 0.11876 0.07583 0.82424 0.0
C265 C 0.2026 0.06086 0.84594 0.0
H266 H 0.1952 0.02752 0.7726 0.0
H267 H 0.07959 0.08784 0.82643 0.0
C268 C 0.94064 0.02705 0.70887 0.0
N269 N 0.83764 0.00654 0.70148 0.0
C270 C 0.92376 0.97701 0.70336 0.0
C271 C 0.90517 0.06669 0.71052 0.0
C272 C 0.87151 0.96743 0.69968 0.0
C273 C 0.85325 0.05552 0.70678 0.0
C274 C 0.13714 0.01791 0.70563 0.0
C275 C 0.13677 0.03307 0.67627 0.0
C276 C 0.16629 0.97585 0.71396 0.0
C277 C 0.16545 0.00569 0.65567 0.0
C278 C 0.19433 0.94939 0.69268 0.0
N279 N 0.19334 0.96473 0.66422 0.0
C280 C 0.09688 0.16736 0.69514 0.0
C281 C 0.01153 0.15383 0.67798 0.0
C282 C 0.10161 0.20895 0.67687 0.0
N283 N 0.05221 0.1411 0.69552 0.0
C284 C 0.01451 0.19523 0.65945 0.0
C285 C 0.05993 0.22359 0.65884 0.0
H286 H 0.12863 0.15632 0.70935 0.0
H287 H 0.97664 0.13205 0.67853 0.0
C288 C 0.05973 0.88675 0.72308 0.0
N289 N 0.05528 0.93017 0.70758 0.0
C290 C 0.06597 0.83973 0.70831 0.0
C291 C 0.06175 0.88292 0.66186 0.0
C292 C 0.05527 0.92899 0.67752 0.0
C293 C 0.06759 0.83751 0.67729 0.0
H294 H 0.05858 0.88858 0.74693 0.0
H295 H 0.05054 0.964 0.66574 0.0
O296 O 0.03679 0.10786 0.76505 0.0
O297 O 0.0361 0.99092 0.77013 0.0
O298 O 0.99158 0.03712 0.71295 0.0
O299 O 0.1086 0.04367 0.72602 0.0
H300 H 0.12252 0.1578 0.77877 0.0
H301 H 0.96749 0.17375 0.74638 0.0
H302 H 0.13458 0.25094 0.77401 0.0
H303 H 0.98236 0.26661 0.74209 0.0
H304 H 0.14776 0.90555 0.8293 0.0
H305 H 0.99139 0.00924 0.8212 0.0
H306 H 0.11827 0.93459 0.78002 0.0
H307 H 0.02304 0.97874 0.8697 0.0
H308 H 0.86702 0.13063 0.82273 0.0
H309 H 0.83943 0.97152 0.79951 0.0
H310 H 0.25709 0.03064 0.81466 0.0
H311 H 0.13836 0.09139 0.86996 0.0
H312 H 0.95061 0.94583 0.70214 0.0
H313 H 0.91752 0.10555 0.71514 0.0
H314 H 0.85789 0.92888 0.69549 0.0
H315 H 0.82536 0.08576 0.7082 0.0
H316 H 0.11416 0.06525 0.66935 0.0
H317 H 0.16654 0.96319 0.73649 0.0
H318 H 0.16535 0.01685 0.63284 0.0
H319 H 0.21671 0.91652 0.69877 0.0
H320 H 0.13718 0.22999 0.67729 0.0
H321 H 0.98173 0.20468 0.64557 0.0
H322 H 0.07037 0.80564 0.72104 0.0
H323 H 0.06175 0.88278 0.63791 0.0
C324 C 0.31327 0.02038 0.09804 0.0
C325 C 0.34988 0.05954 0.10071 0.0
H326 H 0.24488 0.98869 0.11456 0.0
C327 C 0.34468 0.09781 0.12285 0.0
H328 H 0.31599 0.99066 0.08099 0.0
C329 C 0.30392 0.09672 0.14204 0.0
C330 C 0.26724 0.05762 0.13931 0.0
H331 H 0.37246 0.1283 0.12553 0.0
H332 H 0.30081 0.1268 0.15885 0.0
C333 C 0.27229 0.01954 0.11705 0.0
C334 C 0.11072 0.31761 0.60468 0.0
C335 C 0.06978 0.35185 0.60181 0.0
H336 H 0.1395 0.25004 0.6246 0.0
C337 C 0.02602 0.34406 0.61832 0.0
H338 H 0.14468 0.32201 0.59196 0.0
C339 C 0.02299 0.30268 0.63691 0.0
C340 C 0.06368 0.26815 0.63952 0.0
H341 H 0.99414 0.37018 0.61703 0.0
H342 H 0.98888 0.298 0.64947 0.0
C343 C 0.10773 0.27629 0.62335 0.0
C344 C 0.72991 0.10161 0.1241 0.0
C345 C 0.69375 0.06244 0.12658 0.0
H346 H 0.80362 0.13078 0.13733 0.0
C347 C 0.70392 0.02359 0.14663 0.0
H348 H 0.72389 0.13148 0.10837 0.0
C349 C 0.74997 0.02295 0.163 0.0
C350 C 0.78674 0.06122 0.15975 0.0
H351 H 0.6767 0.99312 0.14924 0.0
H352 H 0.75707 0.99215 0.17798 0.0
C353 C 0.77579 0.10109 0.14057 0.0
C354 C 0.11394 0.74008 0.62074 0.0
C355 C 0.08682 0.69608 0.62789 0.0
H356 H 0.12927 0.8189 0.63074 0.0
C357 C 0.05479 0.69836 0.65225 0.0
H358 H 0.13829 0.73994 0.60183 0.0
C359 C 0.04933 0.74396 0.66874 0.0
C360 C 0.07537 0.78827 0.661 0.0
H361 H 0.03342 0.66511 0.65827 0.0
H362 H 0.02352 0.74492 0.68699 0.0
C363 C 0.10822 0.7856 0.63705 0.0
C364 C 0.27498 0.10291 0.91651 0.0
C365 C 0.30953 0.06254 0.92017 0.0
H366 H 0.21448 0.13436 0.89004 0.0
C367 C 0.30731 0.02083 0.89989 0.0
H368 H 0.27569 0.13549 0.93183 0.0
C369 C 0.27214 0.02002 0.87611 0.0
C370 C 0.23845 0.06096 0.87198 0.0
H371 H 0.33397 0.98952 0.90176 0.0
H372 H 0.27159 0.9874 0.86083 0.0
C373 C 0.23974 0.1021 0.89269 0.0
C374 C 0.02609 0.28117 0.41552 0.0
C375 C 0.06657 0.31625 0.41819 0.0
H376 H 0.99077 0.22018 0.38992 0.0
C377 C 0.10437 0.31487 0.3968 0.0
H378 H 0.99645 0.28133 0.43169 0.0
C379 C 0.10126 0.27979 0.37295 0.0
C380 C 0.06029 0.24529 0.36997 0.0
H381 H 0.13558 0.34201 0.39796 0.0
H382 H 0.1309 0.27977 0.35679 0.0
C383 C 0.02303 0.246 0.3917 0.0
C384 C 0.76443 0.00908 0.87595 0.0
C385 C 0.73225 0.05135 0.87986 0.0
H386 H 0.82622 0.97613 0.8523 0.0
C387 C 0.73639 0.09255 0.86096 0.0
H388 H 0.76253 0.97702 0.8904 0.0
C389 C 0.77269 0.09195 0.83898 0.0
C390 C 0.8057 0.05017 0.83549 0.0
H391 H 0.7115 0.12528 0.86313 0.0
H392 H 0.77499 0.12429 0.82477 0.0
C393 C 0.80082 0.00852 0.85404 0.0
C394 C 0.087 0.73308 0.35758 0.0
C395 C 0.06988 0.74328 0.38633 0.0
H396 H 0.0949 0.76069 0.31384 0.0
C397 C 0.04852 0.79113 0.39308 0.0
H398 H 0.10316 0.69632 0.35166 0.0
C399 C 0.04375 0.82778 0.37151 0.0
C400 C 0.06016 0.81745 0.34265 0.0
H401 H 0.03589 0.80049 0.41518 0.0
H402 H 0.02772 0.86453 0.37759 0.0
C403 C 0.0822 0.76985 0.33594 0.0
loop_
_geom_bond_atom_site_label_1
_geom_bond_atom_site_label_2
_geom_bond_distance
_geom_bond_site_symmetry_2
_ccdc_geom_bond_type
H0 O26 0.856 . S
H1 O29 0.854 . S
H2 C37 0.930 . S
H3 C38 0.930 . S
H4 C40 0.930 1_565 S
H5 C41 0.930 1_565 S
H6 C43 0.931 . S
H7 C44 0.930 . S
H8 C46 0.930 . S
H9 C47 0.931 . S
H10 C49 0.930 . S
H11 C50 0.931 . S
H12 C52 0.930 . S
H13 C53 0.929 . S
H14 C55 0.931 . S
H15 C56 0.930 . S
H16 C58 0.922 1_565 S
H17 C59 0.932 1_565 S
H18 C61 0.930 . S
H19 C62 0.929 . S
H20 C64 0.931 . S
H21 C65 0.930 1_565 S
H22 C67 0.929 . S
H23 C68 0.931 . S
H24 C70 0.930 1_565 S
H25 C71 0.929 1_565 S
O26 H0 0.856 . S
O26 C72 1.300 . S
O27 C72 1.209 1_565 S
O28 C73 1.199 . S
O29 H1 0.854 . S
O29 C73 1.297 . S
C30 C31 1.404 . S
C30 C35 1.397 1_556 S
C30 C36 1.492 . S
C31 C30 1.404 . S
C31 C32 1.396 . S
C31 C42 1.492 . S
C32 C31 1.396 . S
C32 C33 1.397 . S
C32 C48 1.509 . S
C33 C32 1.397 . S
C33 C34 1.412 1_556 S
C33 C54 1.485 1_556 S
C34 C33 1.412 1_554 S
C34 C35 1.388 . S
C34 C60 1.490 . S
C35 C30 1.397 1_554 S
C35 C34 1.388 . S
C35 C66 1.519 . S
C36 C30 1.492 . S
C36 C37 1.363 . S
C36 C41 1.390 . S
C37 H2 0.930 . S
C37 C36 1.363 . S
C37 C38 1.372 . S
C38 H3 0.930 . S
C38 C37 1.372 . S
C38 C39 1.383 . S
C39 C38 1.383 . S
C39 C40 1.395 . S
C40 H4 0.930 1_545 S
C40 C39 1.395 . S
C40 C41 1.362 . S
C41 H5 0.930 1_545 S
C41 C36 1.390 . S
C41 C40 1.362 . S
C42 C31 1.492 . S
C42 C43 1.377 . S
C42 C47 1.395 1_545 S
C43 H6 0.931 . S
C43 C42 1.377 . S
C43 C44 1.376 . S
C44 H7 0.930 . S
C44 C43 1.376 . S
C44 C45 1.376 . S
C45 C44 1.376 . S
C45 C46 1.378 1_545 S
C45 C72 1.486 . S
C46 H8 0.930 . S
C46 C45 1.378 1_565 S
C46 C47 1.376 . S
C47 H9 0.931 . S
C47 C42 1.395 1_565 S
C47 C46 1.376 . S
C48 C32 1.509 . S
C48 C49 1.391 . S
C48 C53 1.386 1_545 S
C49 H10 0.930 . S
C49 C48 1.391 . S
C49 C50 1.375 . S
C50 H11 0.931 . S
C50 C49 1.375 . S
C50 C51 1.375 . S
C51 C50 1.375 . S
C51 C52 1.361 1_545 S
C52 H12 0.930 . S
C52 C51 1.361 1_565 S
C52 C53 1.399 . S
C53 H13 0.929 . S
C53 C48 1.386 1_565 S
C53 C52 1.399 . S
C54 C33 1.485 1_554 S
C54 C55 1.394 . S
C54 C59 1.360 1_554 S
C55 H14 0.931 . S
C55 C54 1.394 . S
C55 C56 1.372 . S
C56 H15 0.930 . S
C56 C55 1.372 . S
C56 C57 1.397 . S
C57 C56 1.397 . S
C57 C58 1.397 . S
C57 C73 1.476 . S
C58 H16 0.922 1_545 S
C58 C57 1.397 . S
C58 C59 1.366 1_554 S
C59 H17 0.932 1_545 S
C59 C54 1.360 1_556 S
C59 C58 1.366 1_556 S
C60 C34 1.490 . S
C60 C61 1.380 . S
C60 C65 1.386 . S
C61 H18 0.930 . S
C61 C60 1.380 . S
C61 C62 1.381 . S
C62 H19 0.929 . S
C62 C61 1.381 . S
C62 C63 1.371 . S
C63 C62 1.371 . S
C63 C64 1.380 . S
C64 H20 0.931 . S
C64 C63 1.380 . S
C64 C65 1.387 . S
C65 H21 0.930 1_545 S
C65 C60 1.386 . S
C65 C64 1.387 . S
C66 C35 1.519 . S
C66 C67 1.377 . S
C66 C71 1.361 . S
C67 H22 0.929 . S
C67 C66 1.377 . S
C67 C68 1.386 . S
C68 H23 0.931 . S
C68 C67 1.386 . S
C68 C69 1.363 . S
C69 C68 1.363 . S
C69 C70 1.385 . S
C70 H24 0.930 1_545 S
C70 C69 1.385 . S
C70 C71 1.396 . S
C71 H25 0.929 1_545 S
C71 C66 1.361 . S
C71 C70 1.396 . S
C72 O26 1.300 . S
C72 O27 1.209 1_545 S
C72 C45 1.486 . S
C73 O28 1.199 . S
C73 O29 1.297 . S
C73 C57 1.476 . S
H74 O100 0.856 . S
H75 O103 0.854 . S
H76 C111 0.930 1_655 S
H77 C112 0.930 . S
H78 C114 0.930 . S
H79 C115 0.930 . S
H80 C117 0.931 1_655 S
H81 C118 0.930 1_655 S
H82 C120 0.930 . S
H83 C121 0.929 . S
H84 C123 0.930 1_655 S
H85 C124 0.931 . S
H86 C126 0.930 . S
H87 C127 0.929 . S
H88 C129 0.931 1_655 S
H89 C130 0.922 1_655 S
H90 C132 0.930 . S
H91 C133 0.932 . S
H92 C135 0.930 1_655 S
H93 C136 0.929 1_655 S
H94 C138 0.931 . S
H95 C139 0.930 . S
H96 C141 0.929 1_655 S
H97 C142 0.931 1_655 S
H98 C144 0.930 . S
H99 C145 0.929 . S
O100 H74 0.856 . S
O100 C146 1.300 . S
O101 C146 1.209 . S
O102 C147 1.199 . S
O103 H75 0.854 . S
O103 C147 1.297 . S
C104 C105 1.404 . S
C104 C109 1.397 . S
C104 C110 1.492 . S
C105 C104 1.404 . S
C105 C106 1.396 . S
C105 C116 1.492 . S
C106 C105 1.396 . S
C106 C107 1.397 . S
C106 C122 1.509 . S
C107 C106 1.397 . S
C107 C108 1.412 . S
C107 C128 1.485 . S
C108 C107 1.412 . S
C108 C109 1.388 . S
C108 C134 1.490 . S
C109 C104 1.397 . S
C109 C108 1.388 . S
C109 C140 1.519 . S
C110 C104 1.492 . S
C110 C111 1.363 . S
C110 C115 1.390 . S
C111 H76 0.930 1_455 S
C111 C110 1.363 . S
C111 C112 1.372 1_455 S
C112 H77 0.930 . S
C112 C111 1.372 1_655 S
C112 C113 1.383 1_655 S
C113 C112 1.383 1_455 S
C113 C114 1.395 . S
C114 H78 0.930 . S
C114 C113 1.395 . S
C114 C115 1.362 . S
C115 H79 0.930 . S
C115 C110 1.390 . S
C115 C114 1.362 . S
C116 C105 1.492 . S
C116 C117 1.377 . S
C116 C121 1.397 . S
C117 H80 0.931 1_455 S
C117 C116 1.377 . S
C117 C118 1.376 . S
C118 H81 0.930 1_455 S
C118 C117 1.376 . S
C118 C119 1.376 . S
C119 C118 1.376 . S
C119 C120 1.378 . S
C119 C146 1.486 . S
C120 H82 0.930 . S
C120 C119 1.378 . S
C120 C121 1.376 . S
C121 H83 0.929 . S
C121 C116 1.397 . S
C121 C120 1.376 . S
C122 C106 1.509 . S
C122 C123 1.391 . S
C122 C127 1.386 . S
C123 H84 0.930 1_455 S
C123 C122 1.391 . S
C123 C124 1.375 . S
C124 H85 0.931 . S
C124 C123 1.375 . S
C124 C125 1.375 . S
C125 C124 1.375 . S
C125 C126 1.361 . S
C126 H86 0.930 . S
C126 C125 1.361 . S
C126 C127 1.399 . S
C127 H87 0.929 . S
C127 C122 1.386 . S
C127 C126 1.399 . S
C128 C107 1.485 . S
C128 C129 1.394 . S
C128 C133 1.360 . S
C129 H88 0.931 1_455 S
C129 C128 1.394 . S
C129 C130 1.372 . S
C130 H89 0.922 1_455 S
C130 C129 1.372 . S
C130 C131 1.397 . S
C131 C130 1.397 . S
C131 C132 1.390 . S
C131 C147 1.476 . S
C132 H90 0.930 . S
C132 C131 1.390 . S
C132 C133 1.366 . S
C133 H91 0.932 . S
C133 C128 1.360 . S
C133 C132 1.366 . S
C134 C108 1.490 . S
C134 C135 1.380 . S
C134 C139 1.386 . S
C135 H92 0.930 1_455 S
C135 C134 1.380 . S
C135 C136 1.381 . S
C136 H93 0.929 1_455 S
C136 C135 1.381 . S
C136 C137 1.371 . S
C137 C136 1.371 . S
C137 C138 1.380 . S
C138 H94 0.931 . S
C138 C137 1.380 . S
C138 C139 1.387 . S
C139 H95 0.930 . S
C139 C134 1.386 . S
C139 C138 1.387 . S
C140 C109 1.519 . S
C140 C141 1.377 . S
C140 C145 1.361 . S
C141 H96 0.929 1_455 S
C141 C140 1.377 . S
C141 C142 1.386 . S
C142 H97 0.931 1_455 S
C142 C141 1.386 . S
C142 C143 1.363 . S
C143 C142 1.363 . S
C143 C144 1.385 . S
C144 H98 0.930 . S
C144 C143 1.385 . S
C144 C145 1.396 . S
C145 H99 0.929 . S
C145 C140 1.361 . S
C145 C144 1.396 . S
C146 O100 1.300 . S
C146 O101 1.209 . S
C146 C119 1.486 . S
C147 O102 1.199 . S
C147 O103 1.297 . S
C147 C131 1.476 . S
Li148 N165 1.990 . S
Li148 O208 1.956 . S
Li148 O209 1.970 1_455 S
Li148 O210 1.961 . S
Li149 N173 1.990 1_545 S
Li149 O208 1.970 . S
Li149 O209 1.956 1_455 S
Li149 O211 1.961 1_545 S
Li150 N195 1.990 . S
Li150 O208 1.961 . S
Li150 O210 1.956 . S
Li150 O211 1.970 1_545 S
Li151 N201 1.990 . S
Li151 O209 1.961 . S
Li151 O210 1.970 1_655 S
Li151 O211 1.956 1_645 S
C152 C154 1.348 . S
C152 C155 1.356 . S
C152 O208 1.325 . S
N153 C156 1.314 . S
N153 C157 1.279 . S
C154 C152 1.348 . S
C154 C156 1.353 . S
C154 H212 0.929 . S
C155 C152 1.356 . S
C155 C157 1.358 . S
C155 H213 0.930 . S
C156 N153 1.314 . S
C156 C154 1.353 . S
C156 H214 0.930 . S
C157 N153 1.279 . S
C157 C155 1.358 . S
C157 H215 0.930 . S
C158 C161 1.348 . S
C158 C162 1.356 . S
C158 O209 1.325 . S
C159 N160 1.279 . S
C159 C162 1.358 . S
C159 H216 0.930 1_545 S
N160 C159 1.279 . S
N160 C163 1.314 . S
C161 C158 1.348 . S
C161 C163 1.353 . S
C161 H217 0.929 . S
C162 C158 1.356 . S
C162 C159 1.358 . S
C162 H218 0.930 1_545 S
C163 N160 1.314 . S
C163 C161 1.353 . S
C163 H219 0.930 . S
C164 N165 1.314 . S
C164 C169 1.353 . S
C164 H170 0.930 1_455 S
N165 Li148 1.990 . S
N165 C164 1.314 . S
N165 C167 1.279 . S
C166 C167 1.358 . S
C166 C168 1.356 . S
C166 H220 0.930 . S
C167 N165 1.279 . S
C167 C166 1.358 . S
C167 H171 0.930 . S
C168 C166 1.356 . S
C168 C169 1.348 . S
C169 C164 1.353 . S
C169 C168 1.348 . S
C169 H221 0.929 1_455 S
H170 C164 0.930 1_655 S
H171 C167 0.930 . S
C172 N173 1.314 . S
C172 C174 1.353 . S
C172 H178 0.930 . S
N173 Li149 1.990 1_565 S
N173 C172 1.314 . S
N173 C176 1.286 . S
C174 C172 1.353 . S
C174 C177 1.348 . S
C174 H222 0.929 . S
C175 C176 1.359 . S
C175 C177 1.356 . S
C175 H223 0.930 1_455 S
C176 N173 1.286 . S
C176 C175 1.359 . S
C176 H179 0.923 1_455 S
C177 C174 1.348 . S
C177 C175 1.356 . S
H178 C172 0.930 . S
H179 C176 0.923 1_655 S
C180 C182 1.352 . S
C180 C183 1.356 . S
C180 O210 1.325 . S
N181 C184 1.314 . S
N181 C185 1.279 . S
C182 C180 1.352 . S
C182 C184 1.354 . S
C182 H224 0.924 1_455 S
C183 C180 1.356 . S
C183 C185 1.358 . S
C183 H225 0.930 . S
C184 N181 1.314 . S
C184 C182 1.354 . S
C184 H226 0.930 1_455 S
C185 N181 1.279 . S
C185 C183 1.358 . S
C185 H227 0.930 . S
C186 C187 1.348 . S
C186 C188 1.356 1_455 S
C186 O211 1.325 . S
C187 C186 1.348 . S
C187 C189 1.353 . S
C187 H228 0.929 . S
C188 C186 1.356 1_655 S
C188 C190 1.358 . S
C188 H229 0.930 . S
C189 C187 1.353 . S
C189 N191 1.314 . S
C189 H230 0.930 . S
C190 C188 1.358 . S
C190 N191 1.279 1_655 S
C190 H231 0.930 . S
N191 C189 1.314 . S
N191 C190 1.279 1_455 S
C192 C194 1.353 . S
C192 N195 1.314 . S
C192 H198 0.930 . S
C193 N195 1.279 . S
C193 C196 1.358 . S
C193 H199 0.930 . S
C194 C192 1.353 . S
C194 C197 1.348 . S
C194 H232 0.929 . S
N195 Li150 1.990 . S
N195 C192 1.314 . S
N195 C193 1.279 . S
C196 C193 1.358 . S
C196 C197 1.356 . S
C196 H233 0.930 . S
C197 C194 1.348 . S
C197 C196 1.356 . S
H198 C192 0.930 . S
H199 C193 0.930 . S
C200 N201 1.314 . S
C200 C202 1.353 . S
C200 H206 0.930 . S
N201 Li151 1.990 . S
N201 C200 1.314 . S
N201 C204 1.279 . S
C202 C200 1.353 . S
C202 C205 1.348 . S
C202 H234 0.929 . S
C203 C204 1.358 . S
C203 C205 1.356 . S
C203 H235 0.930 1_545 S
C204 N201 1.279 . S
C204 C203 1.358 . S
C204 H207 0.930 1_545 S
C205 C202 1.348 . S
C205 C203 1.356 . S
H206 C200 0.930 . S
H207 C204 0.930 1_565 S
O208 Li148 1.956 . S
O208 Li149 1.970 . S
O208 Li150 1.961 . S
O208 C152 1.325 . S
O209 Li148 1.970 1_655 S
O209 Li149 1.956 1_655 S
O209 Li151 1.961 . S
O209 C158 1.325 . S
O210 Li148 1.961 . S
O210 Li150 1.956 . S
O210 Li151 1.970 1_455 S
O210 C180 1.325 . S
O211 Li149 1.961 1_565 S
O211 Li150 1.970 1_565 S
O211 Li151 1.956 1_465 S
O211 C186 1.325 . S
H212 C154 0.929 . S
H213 C155 0.930 . S
H214 C156 0.930 . S
H215 C157 0.930 . S
H216 C159 0.930 1_565 S
H217 C161 0.929 . S
H218 C162 0.930 1_565 S
H219 C163 0.930 . S
H220 C166 0.930 . S
H221 C169 0.929 1_655 S
H222 C174 0.929 . S
H223 C175 0.930 1_655 S
H224 C182 0.924 1_655 S
H225 C183 0.930 . S
H226 C184 0.930 1_655 S
H227 C185 0.930 . S
H228 C187 0.929 . S
H229 C188 0.930 . S
H230 C189 0.930 . S
H231 C190 0.930 . S
H232 C194 0.929 . S
H233 C196 0.930 . S
H234 C202 0.929 . S
H235 C203 0.930 1_565 S
Li236 N253 1.990 1_455 S
Li236 O296 1.956 . S
Li236 O297 1.970 1_545 S
Li236 O298 1.961 1_455 S
Li237 N261 1.990 . S
Li237 O296 1.970 . S
Li237 O297 1.956 1_545 S
Li237 O299 1.961 . S
Li238 N283 1.990 . S
Li238 O296 1.961 . S
Li238 O298 1.945 1_455 S
Li238 O299 1.970 . S
Li239 N289 1.990 . S
Li239 O297 1.961 . S
Li239 O298 1.959 1_465 S
Li239 O299 1.956 1_565 S
C240 C242 1.348 . S
C240 C243 1.356 . S
C240 O296 1.325 . S
N241 C244 1.314 . S
N241 C245 1.279 . S
C242 C240 1.348 . S
C242 C244 1.353 . S
C242 H300 0.929 . S
C243 C240 1.356 . S
C243 C245 1.358 . S
C243 H301 0.917 1_455 S
C244 N241 1.314 . S
C244 C242 1.353 . S
C244 H302 0.930 . S
C245 N241 1.279 . S
C245 C243 1.358 . S
C245 H303 0.919 1_455 S
C246 C249 1.348 . S
C246 C250 1.356 . S
C246 O297 1.325 . S
C247 N248 1.279 . S
C247 C250 1.358 . S
C247 H304 0.930 . S
N248 C247 1.279 . S
N248 C251 1.314 . S
C249 C246 1.348 . S
C249 C251 1.353 . S
C249 H305 0.929 . S
C250 C246 1.356 . S
C250 C247 1.358 . S
C250 H306 0.930 . S
C251 N248 1.314 . S
C251 C249 1.353 . S
C251 H307 0.930 . S
C252 N253 1.314 . S
C252 C257 1.353 . S
C252 H258 0.930 1_545 S
N253 Li236 1.990 1_655 S
N253 C252 1.314 . S
N253 C255 1.279 . S
C254 C255 1.358 . S
C254 C256 1.356 . S
C254 H308 0.930 . S
C255 N253 1.279 . S
C255 C254 1.358 . S
C255 H259 0.930 . S
C256 C254 1.356 . S
C256 C257 1.348 . S
C257 C252 1.353 . S
C257 C256 1.348 . S
C257 H309 0.929 1_545 S
H258 C252 0.930 1_565 S
H259 C255 0.930 . S
C260 N261 1.314 . S
C260 C262 1.353 . S
C260 H266 0.930 . S
N261 Li237 1.990 . S
N261 C260 1.314 . S
N261 C264 1.286 . S
C262 C260 1.353 . S
C262 C265 1.348 . S
C262 H310 0.929 . S
C263 C264 1.359 . S
C263 C265 1.356 . S
C263 H311 0.930 1_545 S
C264 N261 1.286 . S
C264 C263 1.359 . S
C264 H267 0.923 1_545 S
C265 C262 1.348 . S
C265 C263 1.356 . S
H266 C260 0.930 . S
H267 C264 0.923 1_565 S
C268 C270 1.345 1_545 S
C268 C271 1.356 . S
C268 O298 1.337 . S
N269 C272 1.314 . S
N269 C273 1.279 . S
C270 C268 1.345 1_565 S
C270 C272 1.353 1_565 S
C270 H312 0.932 . S
C271 C268 1.356 . S
C271 C273 1.358 . S
C271 H313 0.930 . S
C272 N269 1.314 . S
C272 C270 1.353 1_545 S
C272 H314 0.930 1_545 S
C273 N269 1.279 . S
C273 C271 1.358 . S
C273 H315 0.930 . S
C274 C275 1.348 . S
C274 C276 1.356 1_545 S
C274 O299 1.325 . S
C275 C274 1.348 . S
C275 C277 1.353 . S
C275 H316 0.929 . S
C276 C274 1.356 1_565 S
C276 C278 1.358 . S
C276 H317 0.930 . S
C277 C275 1.353 . S
C277 N279 1.314 . S
C277 H318 0.930 . S
C278 C276 1.358 . S
C278 N279 1.279 1_565 S
C278 H319 0.930 . S
N279 C277 1.314 . S
N279 C278 1.279 1_545 S
C280 C282 1.353 . S
C280 N283 1.314 . S
C280 H286 0.930 . S
C281 N283 1.279 . S
C281 C284 1.358 . S
C281 H287 0.923 1_455 S
C282 C280 1.353 . S
C282 C285 1.348 . S
C282 H320 0.929 . S
N283 Li238 1.990 . S
N283 C280 1.314 . S
N283 C281 1.279 . S
C284 C281 1.358 . S
C284 C285 1.356 . S
C284 H321 0.922 1_455 S
C285 C282 1.348 . S
C285 C284 1.356 . S
H286 C280 0.930 . S
H287 C281 0.923 1_655 S
C288 N289 1.314 . S
C288 C290 1.353 . S
C288 H294 0.930 . S
N289 Li239 1.990 . S
N289 C288 1.314 . S
N289 C292 1.279 . S
C290 C288 1.353 . S
C290 C293 1.348 . S
C290 H322 0.929 . S
C291 C292 1.358 . S
C291 C293 1.356 . S
C291 H323 0.930 . S
C292 N289 1.279 . S
C292 C291 1.358 . S
C292 H295 0.930 . S
C293 C290 1.348 . S
C293 C291 1.356 . S
H294 C288 0.930 . S
H295 C292 0.930 . S
O296 Li236 1.956 . S
O296 Li237 1.970 . S
O296 Li238 1.961 . S
O296 C240 1.325 . S
O297 Li236 1.970 1_565 S
O297 Li237 1.956 1_565 S
O297 Li239 1.961 . S
O297 C246 1.325 . S
O298 Li236 1.961 1_655 S
O298 Li238 1.945 1_655 S
O298 Li239 1.959 1_645 S
O298 C268 1.337 . S
O299 Li237 1.961 . S
O299 Li238 1.970 . S
O299 Li239 1.956 1_545 S
O299 C274 1.325 . S
H300 C242 0.929 . S
H301 C243 0.917 1_655 S
H302 C244 0.930 . S
H303 C245 0.919 1_655 S
H304 C247 0.930 . S
H305 C249 0.929 . S
H306 C250 0.930 . S
H307 C251 0.930 . S
H308 C254 0.930 . S
H309 C257 0.929 1_565 S
H310 C262 0.929 . S
H311 C263 0.930 1_565 S
H312 C270 0.932 . S
H313 C271 0.930 . S
H314 C272 0.930 1_565 S
H315 C273 0.930 . S
H316 C275 0.929 . S
H317 C276 0.930 . S
H318 C277 0.930 . S
H319 C278 0.930 . S
H320 C282 0.929 . S
H321 C284 0.922 1_655 S
H322 C290 0.929 . S
H323 C291 0.930 . S
C324 C325 1.386 1_565 S
C324 H328 0.951 . S
C324 C333 1.390 1_565 S
C325 C324 1.386 1_545 S
C325 C327 1.387 . S
H326 C333 0.950 1_565 S
C327 C325 1.387 . S
C327 C329 1.390 . S
C327 H331 0.950 . S
H328 C324 0.951 . S
C329 C327 1.390 . S
C329 C330 1.387 . S
C329 H332 0.950 . S
C330 C329 1.387 . S
C330 C333 1.387 . S
H331 C327 0.950 . S
H332 C329 0.950 . S
C333 C324 1.390 1_545 S
C333 H326 0.950 1_545 S
C333 C330 1.387 . S
C334 C335 1.387 . S
C334 H338 0.950 . S
C334 C343 1.390 . S
C335 C334 1.387 . S
C335 C337 1.387 . S
H336 C343 0.950 . S
C337 C335 1.387 . S
C337 C339 1.390 . S
C337 H341 0.950 1_455 S
H338 C334 0.950 . S
C339 C337 1.390 . S
C339 C340 1.387 . S
C339 H342 0.950 1_455 S
C340 C339 1.387 . S
C340 C343 1.387 . S
H341 C337 0.950 1_655 S
H342 C339 0.950 1_655 S
C343 C334 1.390 . S
C343 H336 0.950 . S
C343 C340 1.387 . S
C344 C345 1.387 . S
C344 H348 0.950 . S
C344 C353 1.390 . S
C345 C344 1.387 . S
C345 C347 1.387 . S
H346 C353 0.950 . S
C347 C345 1.387 . S
C347 C349 1.390 . S
C347 H351 0.950 . S
H348 C344 0.950 . S
C349 C347 1.390 . S
C349 C350 1.387 . S
C349 H352 0.950 1_545 S
C350 C349 1.387 . S
C350 C353 1.387 . S
H351 C347 0.950 . S
H352 C349 0.950 1_565 S
C353 C344 1.390 . S
C353 H346 0.950 . S
C353 C350 1.387 . S
C354 C355 1.387 . S
C354 H358 0.950 . S
C354 C363 1.390 . S
C355 C354 1.387 . S
C355 C357 1.387 . S
H356 C363 0.950 . S
C357 C355 1.387 . S
C357 C359 1.390 . S
C357 H361 0.950 1_455 S
H358 C354 0.950 . S
C359 C357 1.390 . S
C359 C360 1.387 . S
C359 H362 0.950 1_455 S
C360 C359 1.387 . S
C360 C363 1.387 . S
H361 C357 0.950 1_655 S
H362 C359 0.950 1_655 S
C363 C354 1.390 . S
C363 H356 0.950 . S
C363 C360 1.387 . S
C364 C365 1.387 . S
C364 H368 0.950 . S
C364 C373 1.390 . S
C365 C364 1.387 . S
C365 C367 1.387 . S
H366 C373 0.950 . S
C367 C365 1.387 . S
C367 C369 1.390 . S
C367 H371 0.950 1_545 S
H368 C364 0.950 . S
C369 C367 1.390 . S
C369 C370 1.387 . S
C369 H372 0.950 1_545 S
C370 C369 1.387 . S
C370 C373 1.387 . S
H371 C367 0.950 1_565 S
H372 C369 0.950 1_565 S
C373 C364 1.390 . S
C373 H366 0.950 . S
C373 C370 1.387 . S
C374 C375 1.387 1_655 S
C374 H378 0.950 . S
C374 C383 1.390 . S
C375 C374 1.387 1_455 S
C375 C377 1.387 . S
H376 C383 0.950 . S
C377 C375 1.387 . S
C377 C379 1.390 . S
C377 H381 0.950 . S
H378 C374 0.950 . S
C379 C377 1.390 . S
C379 C380 1.387 . S
C379 H382 0.950 . S
C380 C379 1.387 . S
C380 C383 1.387 1_455 S
H381 C377 0.950 . S
H382 C379 0.950 . S
C383 C374 1.390 . S
C383 H376 0.950 . S
C383 C380 1.387 1_655 S
C384 C385 1.387 1_565 S
C384 H388 0.950 . S
C384 C393 1.390 . S
C385 C384 1.387 1_545 S
C385 C387 1.387 . S
H386 C393 0.950 . S
C387 C385 1.387 . S
C387 C389 1.390 . S
C387 H391 0.950 . S
H388 C384 0.950 . S
C389 C387 1.390 . S
C389 C390 1.387 . S
C389 H392 0.950 . S
C390 C389 1.387 . S
C390 C393 1.387 1_545 S
H391 C387 0.950 . S
H392 C389 0.950 . S
C393 C384 1.390 . S
C393 H386 0.950 . S
C393 C390 1.387 1_565 S
C394 C395 1.387 . S
C394 H398 0.950 . S
C394 C403 1.390 . S
C395 C394 1.387 . S
C395 C397 1.387 . S
H396 C403 0.950 . S
C397 C395 1.387 . S
C397 C399 1.390 . S
C397 H401 0.950 . S
H398 C394 0.950 . S
C399 C397 1.390 . S
C399 C400 1.387 . S
C399 H402 0.950 . S
C400 C399 1.387 . S
C400 C403 1.387 . S
H401 C397 0.950 . S
H402 C399 0.950 . S
C403 C394 1.390 . S
C403 H396 0.950 . S
C403 C400 1.387 . S
C330 C197 2.150 . S
C325 C69 2.147 . S
C340 C285 2.164 . S
C335 C143 2.155 . S
C350 C205 1.637 . S
C345 C63 1.471 . S
C360 C293 1.614 . S
C355 C137 1.462 . S
C370 C265 1.582 . S
C365 C39 1.456 . S
C380 C168 1.549 . S
C375 C113 1.437 . S
C390 C256 0.824 . S
C385 C51 0.822 . S
C395 C125 0.890 . S
C400 C177 0.895 . S
