# Generated by pormake.
# Topology zzz, (3,6)-cn, num edge types: 1
# Building blocks:
#     Node 0, Type 0, BuildingBlock: CUQRIR_clean_linker_1, # of connection points: 3
#     Node 1, Type 0, BuildingBlock: CUQRIR_clean_linker_1, # of connection points: 3
#     Node 2, Type 0, BuildingBlock: CUQRIR_clean_linker_1, # of connection points: 3
#     Node 3, Type 0, BuildingBlock: CUQRIR_clean_linker_1, # of connection points: 3
#     Node 4, Type 0, BuildingBlock: CUQRIR_clean_linker_1, # of connection points: 3
#     Node 5, Type 0, BuildingBlock: CUQRIR_clean_linker_1, # of connection points: 3
#     Node 6, Type 0, BuildingBlock: CUQRIR_clean_linker_1, # of connection points: 3
#     Node 7, Type 0, BuildingBlock: CUQRIR_clean_linker_1, # of connection points: 3
#     Node 8, Type 1, BuildingBlock: INOVEN_clean_sbu_0, # of connection points: 6
#     Node 9, Type 1, BuildingBlock: INOVEN_clean_sbu_0, # of connection points: 6
#     Node 10, Type 1, BuildingBlock: INOVEN_clean_sbu_0, # of connection points: 6
#     Node 11, Type 1, BuildingBlock: INOVEN_clean_sbu_0, # of connection points: 6
#     Edge 12, Type (0, 1), BuildingBlock: XIVTED_clean_linker_0, # of connection points: 2
#     Edge 13, Type (0, 1), BuildingBlock: XIVTED_clean_linker_0, # of connection points: 2
#     Edge 14, Type (0, 1), BuildingBlock: XIVTED_clean_linker_0, # of connection points: 2
#     Edge 15, Type (0, 1), BuildingBlock: XIVTED_clean_linker_0, # of connection points: 2
#     Edge 16, Type (0, 1), BuildingBlock: XIVTED_clean_linker_0, # of connection points: 2
#     Edge 17, Type (0, 1), BuildingBlock: XIVTED_clean_linker_0, # of connection points: 2
#     Edge 18, Type (0, 1), BuildingBlock: XIVTED_clean_linker_0, # of connection points: 2
#     Edge 19, Type (0, 1), BuildingBlock: XIVTED_clean_linker_0, # of connection points: 2
#     Edge 20, Type (0, 1), BuildingBlock: XIVTED_clean_linker_0, # of connection points: 2
#     Edge 21, Type (0, 1), BuildingBlock: XIVTED_clean_linker_0, # of connection points: 2
#     Edge 22, Type (0, 1), BuildingBlock: XIVTED_clean_linker_0, # of connection points: 2
#     Edge 23, Type (0, 1), BuildingBlock: XIVTED_clean_linker_0, # of connection points: 2
#     Edge 24, Type (0, 1), BuildingBlock: XIVTED_clean_linker_0, # of connection points: 2
#     Edge 25, Type (0, 1), BuildingBlock: XIVTED_clean_linker_0, # of connection points: 2
#     Edge 26, Type (0, 1), BuildingBlock: XIVTED_clean_linker_0, # of connection points: 2
#     Edge 27, Type (0, 1), BuildingBlock: XIVTED_clean_linker_0, # of connection points: 2
#     Edge 28, Type (0, 1), BuildingBlock: XIVTED_clean_linker_0, # of connection points: 2
#     Edge 29, Type (0, 1), BuildingBlock: XIVTED_clean_linker_0, # of connection points: 2
#     Edge 30, Type (0, 1), BuildingBlock: XIVTED_clean_linker_0, # of connection points: 2
#     Edge 31, Type (0, 1), BuildingBlock: XIVTED_clean_linker_0, # of connection points: 2
#     Edge 32, Type (0, 1), BuildingBlock: XIVTED_clean_linker_0, # of connection points: 2
#     Edge 33, Type (0, 1), BuildingBlock: XIVTED_clean_linker_0, # of connection points: 2
#     Edge 34, Type (0, 1), BuildingBlock: XIVTED_clean_linker_0, # of connection points: 2
#     Edge 35, Type (0, 1), BuildingBlock: XIVTED_clean_linker_0, # of connection points: 2
# Relax obj value: 0.299
# Max RMSD: 0.191
# Mean RMSD: 0.157
data_MOF--net-zzz--node1-INOVEN_clean_sbu_0--node2-CUQRIR_clean_linker_1--edge1-XIVTED_clean_linker_0
_symmetry_space_group_name_H-M    P1
_symmetry_Int_Tables_number       1
_symmetry_cell_setting            triclinic
loop_
_symmetry_equiv_pos_as_xyz
'x, y, z'
_cell_length_a     47.613747
_cell_length_b     47.609224
_cell_length_c     12.003704
_cell_angle_alpha  90.169475
_cell_angle_beta   90.142985
_cell_angle_gamma 89.882467
loop_
_atom_site_label
_atom_site_type_symbol
_atom_site_fract_x
_atom_site_fract_y
_atom_site_fract_z
_atom_type_partial_charge
C0 C 0.74649 0.55312 0.52366 0.0
N1 N 0.7733 0.54316 0.51954 0.0
N2 N 0.73162 0.54455 0.43219 0.0
C3 C 0.73458 0.56959 0.61898 0.0
C4 C 0.75047 0.5295 0.37245 0.0
N5 N 0.7754 0.52869 0.42523 0.0
C6 C 0.74486 0.51663 0.25988 0.0
H7 H 0.7311 0.5552 0.69016 0.0
H8 H 0.71431 0.57957 0.59595 0.0
H9 H 0.7498 0.58585 0.64629 0.0
H10 H 0.72949 0.52943 0.21225 0.0
H11 H 0.73589 0.49536 0.27155 0.0
H12 H 0.7645 0.5146 0.21094 0.0
C13 C 1.01473 0.74924 0.50459 0.0
N14 N 1.02679 0.77513 0.50055 0.0
N15 N 1.02535 0.73221 0.42318 0.0
C16 C 0.99308 0.74073 0.58818 0.0
C17 C 0.04372 0.7489 0.3688 0.0
N18 N 0.04463 0.77464 0.41585 0.0
C19 C 0.06052 0.73991 0.26842 0.0
H20 H 1.00243 0.74181 0.67286 0.0
H21 H 0.9853 0.71914 0.57219 0.0
H22 H 0.97529 0.75582 0.58587 0.0
H23 H 0.04723 0.7273 0.21104 0.0
H24 H 0.07822 0.72645 0.29623 0.0
H25 H 0.06944 0.75791 0.22247 0.0
C26 C 0.81816 1.01664 0.53404 0.0
N27 N 0.78982 1.01883 0.52102 0.0
N28 N 0.83122 1.01586 0.43299 0.0
C29 C 0.83307 1.01784 0.64384 0.0
C30 C 0.80985 1.01806 0.35927 0.0
N31 N 0.78497 1.01996 0.41214 0.0
C32 C 0.81357 1.02082 0.23529 0.0
H33 H 0.83556 0.04015 0.66878 0.0
H34 H 0.85421 1.0081 0.63748 0.0
H35 H 0.82052 1.00711 0.7088 0.0
H36 H 0.83076 1.00689 0.20603 0.0
H37 H 0.81944 0.04278 0.21548 0.0
H38 H 0.79388 1.01554 0.19027 0.0
C39 C 0.54104 0.82178 0.53282 0.0
N40 N 0.53905 0.79382 0.50883 0.0
N41 N 0.54169 0.83728 0.4372 0.0
C42 C 0.54029 0.83389 0.64795 0.0
C43 C 0.54012 0.81783 0.3554 0.0
N44 N 0.53857 0.79184 0.39849 0.0
C45 C 0.53911 0.82438 0.23282 0.0
H46 H 0.51819 0.83437 0.67706 0.0
H47 H 0.54869 0.85562 0.64884 0.0
H48 H 0.55248 0.82042 0.70592 0.0
H49 H 0.55283 0.84252 0.21334 0.0
H50 H 0.51727 0.83007 0.20955 0.0
H51 H 0.54571 0.80598 0.18226 0.0
C52 C 0.32171 0.52374 0.01307 0.0
N53 N 0.2943 0.51606 0.0222 0.0
N54 N 0.33745 0.51212 0.09628 0.0
C55 C 0.33263 0.54413 0.92899 0.0
C56 C 0.31839 0.49779 0.15711 0.0
N57 N 0.29235 0.50034 0.11323 0.0
C58 C 0.32461 0.4847 0.26865 0.0
H59 H 0.35555 0.54122 0.91668 0.0
H60 H 0.3288 0.5658 0.95972 0.0
H61 H 0.32134 0.54154 0.84862 0.0
H62 H 0.33052 0.50141 0.32894 0.0
H63 H 0.34268 0.47009 0.26132 0.0
H64 H 0.3063 0.47295 0.30115 0.0
C65 C 0.04785 0.32237 0.02826 0.0
N66 N 0.05051 0.29411 0.04235 0.0
N67 N 0.05541 0.33649 0.12282 0.0
C68 C 0.03521 0.33589 0.92744 0.0
C69 C 0.0622 0.31571 0.19464 0.0
N70 N 0.05912 0.29019 0.14666 0.0
C71 C 0.06906 0.32038 0.31571 0.0
H72 H 0.04226 0.35802 0.92024 0.0
H73 H 1.012 0.33569 0.93555 0.0
H74 H 0.04091 0.32395 0.85122 0.0
H75 H 0.04938 0.32474 0.36198 0.0
H76 H 0.08294 0.33893 0.32533 0.0
H77 H 0.07945 0.30165 0.35233 0.0
C78 C 0.24097 0.04609 0.01636 0.0
N79 N 0.26901 0.04349 0.0379 0.0
N80 N 0.22597 0.04727 0.11342 0.0
C81 C 0.22824 0.04571 0.90231 0.0
C82 C 0.2459 0.04509 0.19319 0.0
N83 N 0.2716 0.04274 0.14779 0.0
C84 C 0.23994 0.04177 0.31566 0.0
H85 H 0.20708 0.05553 0.90313 0.0
H86 H 0.22617 1.02357 0.87436 0.0
H87 H 0.24211 0.05675 0.84258 0.0
H88 H 0.2358 1.01929 0.33329 0.0
H89 H 0.22115 0.05409 0.34032 0.0
H90 H 0.25817 0.04859 0.36665 0.0
C91 C 0.52359 0.24468 0.02028 0.0
N92 N 0.51858 0.27262 0.03574 0.0
N93 N 0.51602 0.2297 0.11227 0.0
C94 C 0.53779 0.23242 0.92019 0.0
C95 C 0.50673 0.24959 0.18383 0.0
N96 N 0.50838 0.2754 0.13821 0.0
C97 C 0.4989 0.24402 0.30315 0.0
H98 H 0.53256 0.20982 0.91103 0.0
H99 H 0.56085 0.23446 0.93079 0.0
H100 H 0.53157 0.24409 0.84406 0.0
H101 H 0.51829 0.24014 0.35229 0.0
H102 H 0.48565 0.22493 0.30856 0.0
H103 H 0.48744 0.26211 0.33993 0.0
Gd104 Gd 0.04842 0.03251 0.84694 0.0
Gd105 Gd 1.00552 0.04 0.69278 0.0
C106 C 1.02442 0.97555 0.75143 0.0
C107 C 0.08256 1.03183 0.01473 0.0
C108 C 0.0969 1.00849 0.07148 0.0
C109 C 0.11598 0.99116 0.01406 0.0
C110 C 0.08795 1.00072 0.17819 0.0
C111 C 0.11237 0.95621 0.15979 0.0
C112 C 0.0956 0.97476 0.22207 0.0
C113 C 0.12363 0.96516 0.058 0.0
C114 C 0.06856 1.03057 0.63503 0.0
C115 C 1.02965 0.09627 0.7835 0.0
C116 C 0.97195 0.03908 0.52284 0.0
C117 C 0.96829 0.05877 0.42976 0.0
C118 C 0.94774 0.07986 0.43687 0.0
C119 C 0.98877 0.0604 0.34611 0.0
C120 C 0.97451 0.10831 0.30847 0.0
C121 C 0.99202 0.08514 0.28633 0.0
C122 C 0.95066 0.10443 0.3754 0.0
C123 C 0.98581 0.0405 0.90537 0.0
O124 O 0.03937 0.98589 0.83459 0.0
O125 O 1.01136 0.99278 0.68286 0.0
O126 O 0.09055 0.03741 0.91325 0.0
O127 O 0.05525 1.03201 0.02513 0.0
O128 O 0.07481 1.01289 0.71301 0.0
O129 O 0.05104 0.04855 0.67124 0.0
O130 O 1.01948 0.0853 0.69105 0.0
O131 O 0.03822 0.07937 0.86378 0.0
O132 O 0.96476 0.04878 0.62059 0.0
O133 O 0.99584 1.02553 0.52607 0.0
O134 O 0.97873 0.05829 0.82919 0.0
O135 O 1.00331 1.02307 0.8662 0.0
H136 H 0.12346 0.99668 0.93187 0.0
H137 H 0.07339 1.01383 0.22431 0.0
H138 H 0.08645 0.96832 0.30045 0.0
H139 H 0.13678 0.95125 1.009 0.0
H140 H 0.93102 0.07858 0.49773 0.0
H141 H 1.0043 0.04395 0.33546 0.0
H142 H 1.0103 0.08696 0.2335 0.0
H143 H 0.93595 0.12144 0.38966 0.0
Gd144 Gd 0.53095 0.05715 0.83768 0.0
Gd145 Gd 0.53092 1.00758 0.71788 0.0
C146 C 0.59129 1.032 0.75855 0.0
C147 C 0.53801 0.09885 0.97318 0.0
C148 C 0.55721 0.10216 0.06734 0.0
C149 C 0.5742 0.12606 0.07461 0.0
C150 C 0.56212 0.07938 0.13856 0.0
C151 C 0.60388 0.10227 0.20941 0.0
C152 C 0.58525 0.07941 0.20881 0.0
C153 C 0.59739 0.1262 0.14588 0.0
C154 C 0.51867 0.0676 0.61862 0.0
C155 C 0.47049 0.03225 0.80069 0.0
C156 C 0.52413 0.96526 0.58488 0.0
C157 C 0.50162 0.95893 0.50517 0.0
C158 C 0.48126 0.93878 0.53259 0.0
C159 C 0.49679 0.97715 0.41535 0.0
C160 C 0.44887 0.9611 0.40567 0.0
C161 C 0.47046 0.97826 0.36614 0.0
C162 C 0.45476 0.93996 0.4831 0.0
C163 C 0.54433 0.99779 0.93605 0.0
O164 O 0.57835 0.04688 0.83669 0.0
O165 O 0.57627 1.01689 0.68911 0.0
O166 O 0.55018 0.09729 0.87611 0.0
O167 O 0.51847 0.07999 0.9854 0.0
O168 O 0.50528 0.0778 0.70274 0.0
O169 O 0.53745 0.0511 0.6545 0.0
O170 O 0.48321 1.01726 0.72208 0.0
O171 O 0.48586 0.04731 0.8691 0.0
O172 O 0.51657 0.96502 0.68933 0.0
O173 O 0.53978 0.98692 0.56127 0.0
O174 O 0.55753 0.98756 0.85148 0.0
O175 O 0.52498 1.01376 0.90123 0.0
H176 H 0.57057 0.14385 0.0203 0.0
H177 H 0.54942 0.06054 0.134 0.0
H178 H 0.58969 0.06045 0.25532 0.0
H179 H 0.61112 0.1443 0.14622 0.0
H180 H 0.48479 0.92421 0.60042 0.0
H181 H 0.5123 0.99246 0.39001 0.0
H182 H 0.46621 0.99439 0.30474 0.0
H183 H 0.43819 0.92651 0.51387 0.0
Gd184 Gd 0.50693 0.53507 0.85589 0.0
Gd185 Gd 0.55442 0.53352 0.70197 0.0
C186 C 0.52974 0.59475 0.77295 0.0
C187 C 0.47352 0.53087 0.02383 0.0
C188 C 0.46532 0.55245 0.10528 0.0
C189 C 0.4466 0.57394 0.07431 0.0
C190 C 0.48144 0.55559 0.20251 0.0
C191 C 0.46796 0.6045 0.21146 0.0
C192 C 0.48264 0.58149 0.25572 0.0
C193 C 0.44807 0.60001 0.1268 0.0
C194 C 0.49044 0.53927 0.64219 0.0
C195 C 0.53295 0.47338 0.79429 0.0
C196 C 0.5824 0.53243 0.51884 0.0
C197 C 0.58291 0.51241 0.42585 0.0
C198 C 0.60488 0.4928 0.42025 0.0
C199 C 0.55942 0.50918 0.35611 0.0
C200 C 0.57661 0.46336 0.3003 0.0
C201 C 0.55624 0.4847 0.2939 0.0
C202 C 0.60193 0.46856 0.3566 0.0
C203 C 0.57764 0.54543 0.9031 0.0
O204 O 0.5157 0.58213 0.85396 0.0
O205 O 0.54384 0.57993 0.69863 0.0
O206 O 0.46462 0.53463 0.92185 0.0
O207 O 0.50004 0.52365 0.0275 0.0
O208 O 0.4809 0.55447 0.72338 0.0
O209 O 0.50917 0.52219 0.67742 0.0
O210 O 0.55237 0.48627 0.73452 0.0
O211 O 0.51268 0.48791 0.8423 0.0
O212 O 0.59194 0.52229 0.61289 0.0
O213 O 0.55939 0.54729 0.53142 0.0
O214 O 0.59143 0.54348 0.81133 0.0
O215 O 0.55174 0.54161 0.88528 0.0
H216 H 0.43326 0.5718 1.00155 0.0
H217 H 0.49532 0.53898 0.23071 0.0
H218 H 0.49722 0.5842 0.32433 0.0
H219 H 0.43614 0.61729 0.09202 0.0
H220 H 0.62337 0.49504 0.4724 0.0
H221 H 0.54229 0.52419 0.35734 0.0
H222 H 0.53652 0.48136 0.25077 0.0
H223 H 0.61824 0.45269 0.36051 0.0
Gd224 Gd 1.03171 0.51005 0.85927 0.0
Gd225 Gd 0.0348 0.56049 0.68663 0.0
C226 C 0.97331 0.53558 0.75394 0.0
C227 C 1.03109 0.4799 0.038 0.0
C228 C 1.00999 0.47343 0.12361 0.0
C229 C 0.99642 0.44727 0.12136 0.0
C230 C 1.00123 0.49389 0.20038 0.0
C231 C 0.96266 0.46382 0.25752 0.0
C232 C 0.97771 0.48918 0.26634 0.0
C233 C 0.97301 0.44247 0.18799 0.0
C234 C 0.03687 0.49246 0.64571 0.0
C235 C 0.09324 0.53674 0.79881 0.0
C236 C 0.0384 0.58717 0.50133 0.0
C237 C 0.05913 0.58466 0.41116 0.0
C238 C 0.0823 0.60283 0.40985 0.0
C239 C 0.05904 0.56099 0.34081 0.0
C240 C 0.10772 0.56963 0.2953 0.0
C241 C 0.08332 0.55338 0.28382 0.0
C242 C 0.10628 0.5956 0.35062 0.0
C243 C 1.02234 0.58047 0.894 0.0
O244 O 0.98497 0.51993 0.83365 0.0
O245 O 0.98858 0.55033 0.68317 0.0
O246 O 1.02541 0.46999 0.93878 0.0
O247 O 0.04107 0.50555 0.03541 0.0
O248 O 1.02835 0.47699 0.72737 0.0
O249 O 0.04701 0.51522 0.68452 0.0
O250 O 0.08153 0.5539 0.72417 0.0
O251 O 0.07827 0.5191 0.85997 0.0
O252 O 0.04835 0.59713 0.59563 0.0
O253 O 1.02172 0.56549 0.5152 0.0
O254 O 1.02521 0.59629 0.80722 0.0
O255 O 1.02631 0.5554 0.86408 0.0
H256 H 1.00317 0.43091 0.06442 0.0
H257 H 1.01143 0.51417 0.20492 0.0
H258 H 0.97025 0.50631 0.31795 0.0
H259 H 0.96229 0.42249 0.18112 0.0
H260 H 0.08279 0.62144 0.462 0.0
H261 H 0.04129 0.54682 0.33822 0.0
H262 H 0.08375 0.53334 0.24088 0.0
H263 H 0.12465 0.6089 0.35769 0.0
H264 H 0.19758 0.99932 0.14416 0.0
H265 H 0.07453 0.07592 0.49096 0.0
H266 H 0.18843 0.08906 0.15046 0.0
H267 H 0.10388 0.99145 0.54775 0.0
H268 H 0.10854 0.08013 0.33657 0.0
H269 H 0.15525 0.99499 0.25825 0.0
C270 C 0.18569 1.01805 0.16451 0.0
C271 C 0.19625 0.04453 0.13577 0.0
C272 C 0.10734 0.06065 0.38259 0.0
C273 C 0.14789 0.03996 0.26981 0.0
C274 C 0.08784 0.05819 0.47032 0.0
C275 C 0.08643 0.03335 0.53325 0.0
C276 C 0.12533 0.038 0.35676 0.0
C277 C 0.10428 1.01109 0.50252 0.0
C278 C 0.16179 1.01566 0.23163 0.0
C279 C 0.18062 0.06825 0.16861 0.0
N280 N 0.12292 1.01399 0.41749 0.0
N281 N 0.15742 0.06547 0.23466 0.0
H282 H 0.56392 0.20979 0.20192 0.0
H283 H 0.56708 0.0872 0.52245 0.0
H284 H 0.48014 0.18588 0.10954 0.0
H285 H 0.47707 0.08959 0.4883 0.0
H286 H 0.57086 0.1238 0.38121 0.0
H287 H 0.56825 0.16702 0.31278 0.0
C288 C 0.54696 0.19467 0.20068 0.0
C289 C 0.52196 0.20098 0.14394 0.0
C290 C 0.55024 0.11611 0.40213 0.0
C291 C 0.52625 0.1517 0.2732 0.0
C292 C 0.54813 0.09487 0.48261 0.0
C293 C 0.52171 0.08517 0.51685 0.0
C294 C 0.52578 0.12738 0.35292 0.0
C295 C 0.49786 0.09636 0.4639 0.0
C296 C 0.54923 0.17023 0.2652 0.0
C297 C 0.50004 0.18137 0.14947 0.0
N298 N 0.50046 0.1167 0.38469 0.0
N299 N 0.50256 0.15786 0.21371 0.0
H300 H 0.38216 0.47729 0.11073 0.0
H301 H 0.45532 0.57836 0.55844 0.0
H302 H 0.35515 0.56165 0.18113 0.0
H303 H 0.48648 0.49508 0.48881 0.0
H304 H 0.42159 0.57357 0.40728 0.0
H305 H 0.42373 0.48464 0.22961 0.0
C306 C 0.3856 0.49771 0.14826 0.0
C307 C 0.36539 0.51901 0.13526 0.0
C308 C 0.43579 0.55629 0.42405 0.0
C309 C 0.41224 0.5273 0.27511 0.0
C310 C 0.45528 0.55906 0.51034 0.0
C311 C 0.47374 0.53702 0.53724 0.0
C312 C 0.43453 0.53124 0.36238 0.0
C313 C 0.47273 0.51265 0.47101 0.0
C314 C 0.40908 0.50178 0.21734 0.0
C315 C 0.37043 0.54487 0.18757 0.0
N316 N 0.45326 0.51031 0.38724 0.0
N317 N 0.39307 0.54816 0.25613 0.0
H318 H 1.00733 0.35592 0.21021 0.0
H319 H 0.08123 0.49011 0.49041 0.0
H320 H 0.09125 0.38075 0.12557 0.0
H321 H 0.99555 0.46489 0.5449 0.0
H322 H 0.08415 0.45561 0.33582 0.0
H323 H 1.00169 0.39932 0.31762 0.0
C324 C 1.02412 0.37124 0.2104 0.0
C325 C 0.04948 0.36511 0.15666 0.0
C326 C 0.06456 0.45811 0.38037 0.0
C327 C 0.04355 0.41514 0.28117 0.0
C328 C 0.06276 0.47816 0.46748 0.0
C329 C 0.038 0.48046 0.53081 0.0
C330 C 0.04163 0.44012 0.35816 0.0
C331 C 1.01502 0.46387 0.49855 0.0
C332 C 1.02111 0.39594 0.27283 0.0
C333 C 0.07112 0.38512 0.16353 0.0
N334 N 1.01753 0.44426 0.41674 0.0
N335 N 0.06775 0.40915 0.22496 0.0
H336 H 0.85693 0.06509 0.39882 0.0
H337 H 0.98029 0.99358 0.03957 0.0
H338 H 0.87 0.97585 0.38678 0.0
H339 H 0.95313 0.07959 1.00758 0.0
H340 H 0.94729 0.98774 0.19592 0.0
H341 H 0.89923 0.0718 0.28641 0.0
C342 C 0.86961 0.047 0.37693 0.0
C343 C 0.86035 1.01996 0.40402 0.0
C344 C 0.94879 1.00795 0.15526 0.0
C345 C 0.90867 1.02723 0.27283 0.0
C346 C 0.9677 1.01131 0.06636 0.0
C347 C 0.96915 0.037 1.00929 0.0
C348 C 0.93146 1.03052 0.18795 0.0
C349 C 0.9524 0.05929 0.04789 0.0
C350 C 0.89353 0.05073 0.31126 0.0
C351 C 0.87687 0.99705 0.36971 0.0
N352 N 0.93424 0.05549 0.13389 0.0
N353 N 0.90011 1.00115 0.3052 0.0
H354 H 0.58623 0.87192 0.42411 0.0
H355 H 0.49764 0.98019 0.05024 0.0
H356 H 0.49642 0.86934 0.39164 0.0
H357 H 0.58801 0.97621 0.05562 0.0
H358 H 0.49626 0.94489 0.19879 0.0
H359 H 0.58675 0.91662 0.32206 0.0
C360 C 0.56651 0.88152 0.39992 0.0
C361 C 0.54122 0.86724 0.41816 0.0
C362 C 0.51642 0.95243 0.17033 0.0
C363 C 0.54157 0.91765 0.29592 0.0
C364 C 0.51721 0.97265 0.08551 0.0
C365 C 0.54301 0.98133 0.04108 0.0
C366 C 0.54161 0.94137 0.21382 0.0
C367 C 0.56768 0.97024 0.08807 0.0
C368 C 0.56679 0.90675 0.33972 0.0
C369 C 0.51628 0.88002 0.3812 0.0
N370 N 0.56639 0.95093 0.17162 0.0
N371 N 0.51708 0.90419 0.32054 0.0
H372 H 0.69242 0.50456 0.41222 0.0
H373 H 0.61143 0.58933 0.95372 0.0
H374 H 0.7062 0.59298 0.368 0.0
H375 H 0.57776 0.5133 0.09223 0.0
H376 H 0.64411 0.59282 0.11136 0.0
H377 H 0.64996 0.50791 0.29828 0.0
C378 C 0.68551 0.525 0.38364 0.0
C379 C 0.70256 0.5486 0.40101 0.0
C380 C 0.62914 0.57574 0.10915 0.0
C381 C 0.65324 0.55282 0.27279 0.0
C382 C 0.61039 0.57381 0.01943 0.0
C383 C 0.59162 0.55122 0.01104 0.0
C384 C 0.62988 0.55431 0.18927 0.0
C385 C 0.59153 0.53133 0.0969 0.0
C386 C 0.66115 0.52694 0.31903 0.0
C387 C 0.6933 0.57444 0.35843 0.0
N388 N 0.61077 0.53301 0.1812 0.0
N389 N 0.66943 0.57584 0.29521 0.0
H390 H 0.06168 0.68913 0.42748 0.0
H391 H 0.97572 0.60807 0.96082 0.0
H392 H 0.97667 0.71049 0.34097 0.0
H393 H 0.05708 0.58157 0.0769 0.0
H394 H 0.97203 0.64016 0.12014 0.0
H395 H 0.05776 0.64646 0.31578 0.0
C396 C 0.04165 0.68395 0.38977 0.0
C397 C 1.01945 0.70331 0.39389 0.0
C398 C 0.99041 0.62685 0.1129 0.0
C399 C 1.01435 0.65337 0.26935 0.0
C400 C 0.99238 0.60829 0.02246 0.0
C401 C 1.01654 0.59186 1.00658 0.0
C402 C 1.01317 0.62966 0.18673 0.0
C403 C 0.03786 0.59347 0.08716 0.0
C404 C 0.03936 0.65938 0.32658 0.0
C405 C 0.99415 0.69594 0.34112 0.0
N406 N 0.0359 0.61242 0.17248 0.0
N407 N 0.99235 0.67168 0.28016 0.0
H408 H 0.08525 0.24064 0.11164 0.0
H409 H 0.96966 0.15477 0.44171 0.0
H410 H 1.02116 0.28122 0.30694 0.0
H411 H 1.00491 0.12694 0.12847 0.0
H412 H 0.99485 0.19879 0.42336 0.0
H413 H 0.06463 0.19486 0.15764 0.0
C414 C 0.06758 0.2397 0.16806 0.0
C415 C 0.05464 0.26441 0.20514 0.0
C416 C 0.99687 0.18305 0.35849 0.0
C417 C 1.03104 0.21295 0.25693 0.0
C418 C 0.98206 0.15806 0.36743 0.0
C419 C 0.98495 0.13699 0.28578 0.0
C420 C 1.01505 0.18685 0.26852 0.0
C421 C 1.00223 0.14239 0.19382 0.0
C422 C 0.05562 0.2138 0.19286 0.0
C423 C 1.03177 0.26248 0.2778 0.0
N424 N 1.0169 0.16672 0.18821 0.0
N425 N 1.02037 0.23711 0.30032 0.0
H426 H 0.31041 0.06903 0.27275 0.0
H427 H 0.40607 0.93178 0.30671 0.0
H428 H 0.28479 0.98848 0.14598 0.0
H429 H 0.42653 1.01053 0.46534 0.0
H430 H 0.35925 0.95048 0.26185 0.0
H431 H 0.35171 0.04685 0.35868 0.0
C432 C 0.31367 0.04661 0.26425 0.0
C433 C 0.29499 1.03029 0.20263 0.0
C434 C 0.37393 0.96355 0.30742 0.0
C435 C 0.34132 1.00486 0.2982 0.0
C436 C 0.40046 0.95287 0.33261 0.0
C437 C 0.41996 0.97006 0.38652 0.0
C438 C 0.36731 0.99143 0.33693 0.0
C439 C 0.41202 0.99707 0.42062 0.0
C440 C 0.33696 0.0339 0.31295 0.0
C441 C 0.29935 1.00139 0.19279 0.0
N442 N 0.38633 1.00708 0.39415 0.0
N443 N 0.32232 0.98949 0.23945 0.0
H444 H 0.54629 0.28609 0.29662 0.0
H445 H 0.54693 0.44405 0.11917 0.0
H446 H 0.4778 0.32272 0.11272 0.0
H447 H 0.58641 0.41692 0.4254 0.0
H448 H 0.52505 0.39771 0.10219 0.0
H449 H 0.56281 0.33303 0.34534 0.0
C450 C 0.53407 0.30417 0.27085 0.0
C451 C 0.51095 0.30095 0.19992 0.0
C452 C 0.5386 0.40206 0.17274 0.0
C453 C 0.53037 0.35417 0.24908 0.0
C454 C 0.5513 0.42826 0.18173 0.0
C455 C 0.56848 0.4343 0.27364 0.0
C456 C 0.5434 0.38191 0.25568 0.0
C457 C 0.5737 0.41306 0.35205 0.0
C458 C 0.54374 0.33085 0.29673 0.0
C459 C 0.49598 0.32474 0.16634 0.0
N460 N 0.56113 0.38776 0.34137 0.0
N461 N 0.50643 0.35061 0.18853 0.0
H462 H 0.28121 0.53001 0.29652 0.0
H463 H 0.12402 0.53756 0.11559 0.0
H464 H 0.24582 0.46973 0.06865 0.0
H465 H 0.15339 0.57092 0.43015 0.0
H466 H 0.16853 0.51204 0.09657 0.0
H467 H 0.23421 0.54282 0.35727 0.0
C468 C 0.26341 0.5186 0.2631 0.0
C469 C 0.26701 0.49917 0.1767 0.0
C470 C 0.16505 0.52493 0.16967 0.0
C471 C 0.21341 0.51466 0.24028 0.0
C472 C 0.13987 0.53966 0.17995 0.0
C473 C 0.13527 0.55676 0.2734 0.0
C474 C 0.18561 0.52755 0.25307 0.0
C475 C 0.15638 0.55869 0.35491 0.0
C476 C 0.23659 0.5262 0.29619 0.0
C477 C 0.24351 0.48522 0.13411 0.0
N478 N 0.1807 0.54437 0.3425 0.0
N479 N 0.21741 0.49387 0.16382 0.0
H480 H 0.08731 0.80129 0.51824 0.0
H481 H 0.10163 0.91184 0.02447 0.0
H482 H 0.03575 0.80167 0.22346 0.0
H483 H 0.12273 0.93281 0.36461 0.0
H484 H 0.09044 0.8642 0.0829 0.0
H485 H 0.11153 0.84365 0.45079 0.0
C486 C 0.08133 0.81038 0.43909 0.0
C487 C 0.05976 0.79844 0.37562 0.0
C488 C 0.09808 0.87908 0.14429 0.0
C489 C 0.08733 0.8457 0.29742 0.0
C490 C 0.10484 0.90614 0.1109 0.0
C491 C 0.11296 0.92626 0.1902 0.0
C492 C 0.09957 0.87212 0.2575 0.0
C493 C 0.11627 0.91788 0.30139 0.0
C494 C 0.09511 0.83424 0.40056 0.0
C495 C 0.05254 0.81045 0.27347 0.0
N496 N 0.10923 0.8914 0.33226 0.0
N497 N 0.06637 0.83349 0.23712 0.0
H498 H 0.73369 0.9962 0.41136 0.0
H499 H 0.65407 0.1192 0.1235 0.0
H500 H 0.77929 0.07024 0.3155 0.0
H501 H 0.61806 0.07563 0.40442 0.0
H502 H 0.69993 0.10026 0.17284 0.0
H503 H 0.68938 1.02146 0.37854 0.0
C504 C 0.73418 1.01757 0.38089 0.0
C505 C 0.75975 1.03137 0.36585 0.0
C506 C 0.68201 0.09534 0.22462 0.0
C507 C 0.71004 0.06006 0.32849 0.0
C508 C 0.65586 0.10643 0.19769 0.0
C509 C 0.63204 0.0985 0.25868 0.0
C510 C 0.68408 0.07587 0.3113 0.0
C511 C 0.63575 0.08156 0.35316 0.0
C512 C 0.70916 1.03201 0.36368 0.0
C513 C 0.75977 0.05897 0.32603 0.0
N514 N 0.66125 0.07013 0.37502 0.0
N515 N 0.73515 0.07255 0.30844 0.0
H516 H 0.57037 0.74566 0.37856 0.0
H517 H 0.43724 0.65315 0.23621 0.0
H518 H 0.4905 0.78171 0.29045 0.0
H519 H 0.52219 0.62106 0.22876 0.0
H520 H 0.45611 0.70079 0.25419 0.0
H521 H 0.55359 0.69962 0.31644 0.0
C522 C 0.54955 0.74374 0.34291 0.0
C523 C 0.53159 0.76688 0.33902 0.0
C524 C 0.47052 0.68322 0.24859 0.0
C525 C 0.51195 0.715 0.27137 0.0
C526 C 0.45977 0.65612 0.23936 0.0
C527 C 0.47814 0.63312 0.23401 0.0
C528 C 0.49974 0.68712 0.25271 0.0
C529 C 0.50719 0.63806 0.23694 0.0
C530 C 0.53987 0.71767 0.30813 0.0
C531 C 0.50472 0.76397 0.29351 0.0
N532 N 0.51708 0.66451 0.24667 0.0
N533 N 0.49541 0.73823 0.26288 0.0
H534 H 0.82394 0.55387 0.37656 0.0
H535 H 0.91624 0.4395 0.16271 0.0
H536 H 0.78344 0.47324 0.39212 0.0
H537 H 0.94331 0.48477 0.45681 0.0
H538 H 0.86762 0.44996 0.21055 0.0
H539 H 0.86948 0.53024 0.35746 0.0
C540 C 0.82482 0.53116 0.37413 0.0
C541 C 0.8005 0.51524 0.38781 0.0
C542 C 0.88429 0.45676 0.26596 0.0
C543 C 0.85157 0.48842 0.3645 0.0
C544 C 0.91208 0.4507 0.23956 0.0
C545 C 0.93403 0.46199 0.30435 0.0
C546 C 0.87874 0.47459 0.35575 0.0
C547 C 0.92712 0.47657 0.40228 0.0
C548 C 0.85054 0.51779 0.36439 0.0
C549 C 0.8021 0.48591 0.38186 0.0
N550 N 0.9 0.48334 0.42308 0.0
N551 N 0.82748 0.47317 0.37021 0.0
H552 H 0.08192 0.27002 0.88052 0.0
H553 H 0.99592 0.12622 0.92363 0.0
H554 H 1.00227 0.26385 0.04576 0.0
H555 H 0.06305 0.13703 0.68853 0.0
H556 H 0.99742 0.1768 0.96539 0.0
H557 H 0.07487 0.22267 0.80189 0.0
C558 C 0.0624 0.25913 0.89637 0.0
C559 C 0.04243 0.2712 0.96809 0.0
C560 C 1.01181 0.16825 0.90435 0.0
C561 C 0.0347 0.21616 0.883 0.0
C562 C 1.01096 0.13932 0.88065 0.0
C563 C 1.0294 0.12735 0.80268 0.0
C564 C 1.03173 0.18552 0.85172 0.0
C565 C 0.04838 0.14538 0.74899 0.0
C566 C 0.05855 0.23187 0.85301 0.0
C567 C 1.01794 0.25562 0.98918 0.0
N568 N 0.04929 0.17339 0.77535 0.0
N569 N 1.01499 0.2289 0.94867 0.0
H570 H 0.29011 0.99953 0.91618 0.0
H571 H 0.44064 0.07435 0.89806 0.0
H572 H 0.30539 0.08554 1.00568 0.0
H573 H 0.4278 0.99485 0.73305 0.0
H574 H 0.39059 0.07765 0.93328 0.0
H575 H 0.3385 0.99629 0.84151 0.0
C576 C 0.30324 1.01806 0.91575 0.0
C577 C 0.29329 0.04318 0.96405 0.0
C578 C 0.39842 0.05945 0.88881 0.0
C579 C 0.34929 0.03932 0.88369 0.0
C580 C 0.42731 0.05746 0.8687 0.0
C581 C 0.43894 0.03416 0.81281 0.0
C582 C 0.38026 0.03781 0.8547 0.0
C583 C 0.42002 1.01323 0.77644 0.0
C584 C 0.33104 1.01611 0.87466 0.0
C585 C 0.3118 0.06609 0.96625 0.0
N586 N 0.39175 1.01538 0.79909 0.0
N587 N 0.33866 0.06356 0.928 0.0
H588 H 0.4829 0.29861 0.89508 0.0
H589 H 0.5783 0.43637 0.80227 0.0
H590 H 0.56683 0.30334 0.02548 0.0
H591 H 0.48805 0.43825 0.82543 0.0
H592 H 0.57731 0.38553 0.8439 0.0
H593 H 0.48753 0.3468 0.82398 0.0
C594 C 0.50278 0.30937 0.90423 0.0
C595 C 0.52472 0.29652 0.96383 0.0
C596 C 0.55774 0.39706 0.83875 0.0
C597 C 0.53007 0.35245 0.88526 0.0
C598 C 0.55826 0.42611 0.8143 0.0
C599 C 0.53321 0.44189 0.80976 0.0
C600 C 0.53191 0.3833 0.85589 0.0
C601 C 0.50794 0.42722 0.8279 0.0
C602 C 0.50527 0.33713 0.86558 0.0
C603 C 0.54967 0.31207 0.9774 0.0
N604 N 0.50795 0.39902 0.84916 0.0
N605 N 0.55165 0.33912 0.93904 0.0
H606 H 0.26409 0.56451 0.04207 0.0
H607 H 0.12606 0.49052 0.83293 0.0
H608 H 0.26708 0.48593 0.86581 0.0
H609 H 0.13186 0.5804 0.80064 0.0
H610 H 0.17676 0.48836 0.86775 0.0
H611 H 0.21552 0.57177 0.97391 0.0
C612 C 0.25494 0.54939 0.98516 0.0
C613 C 0.26997 0.5249 0.95711 0.0
C614 C 0.16705 0.50857 0.85214 0.0
C615 C 0.21385 0.53224 0.8839 0.0
C616 C 0.13802 0.50985 0.83262 0.0
C617 C 0.12455 0.53569 0.81294 0.0
C618 C 0.18299 0.53338 0.85605 0.0
C619 C 0.14134 0.56001 0.81421 0.0
C620 C 0.22709 0.55333 0.9475 0.0
C621 C 0.25655 0.50538 0.88701 0.0
N622 N 0.16953 0.55833 0.83716 0.0
N623 N 0.22926 0.50915 0.85488 0.0
H624 H 0.0521 0.79358 0.68939 0.0
H625 H 0.98951 0.94894 0.60448 0.0
H626 H 0.98926 0.8153 0.44711 0.0
H627 H 0.0537 0.93091 0.84841 0.0
H628 H 0.98666 0.8992 0.55986 0.0
H629 H 0.05007 0.84193 0.76391 0.0
C630 C 0.03712 0.80832 0.65478 0.0
C631 C 1.02031 0.80031 0.56378 0.0
C632 C 1.00133 0.90593 0.62359 0.0
C633 C 1.01847 0.85597 0.64557 0.0
C634 C 1.00304 0.93455 0.64933 0.0
C635 C 1.02202 0.9445 0.73033 0.0
C636 C 1.01881 0.88655 0.67833 0.0
C637 C 0.03875 0.9244 0.7854 0.0
C638 C 0.03623 0.83602 0.69614 0.0
C639 C 1.00203 0.82046 0.51901 0.0
N640 N 0.03689 0.89648 0.75794 0.0
N641 N 1.00171 0.84725 0.55968 0.0
H642 H 0.76616 0.06706 0.59729 0.0
H643 H 0.6223 0.98774 0.68387 0.0
H644 H 0.76065 0.97723 0.61841 0.0
H645 H 0.63228 0.07192 0.81063 0.0
H646 H 0.67292 0.98477 0.65461 0.0
H647 H 0.71847 0.07094 0.67584 0.0
C648 C 0.75542 0.04821 0.62377 0.0
C649 C 0.76772 1.02177 0.60369 0.0
C650 C 0.66422 1.00385 0.68987 0.0
C651 C 0.71241 1.0259 0.68808 0.0
C652 C 0.63516 1.00565 0.70626 0.0
C653 C 0.62275 1.03015 0.74996 0.0
C654 C 0.68148 1.02694 0.71469 0.0
C655 C 0.64081 0.05255 0.77738 0.0
C656 C 0.728 0.05039 0.66691 0.0
C657 C 0.75231 0.99798 0.63506 0.0
N658 N 0.66915 0.05058 0.75777 0.0
N659 N 0.72542 1.00056 0.67331 0.0
H660 H 0.58006 0.76714 0.62437 0.0
H661 H 0.48444 0.6308 0.75324 0.0
H662 H 0.49191 0.76357 0.54899 0.0
H663 H 0.57482 0.63 0.75661 0.0
H664 H 0.48547 0.68122 0.70601 0.0
H665 H 0.57729 0.71959 0.70415 0.0
C666 C 0.5599 0.75672 0.62849 0.0
C667 C 0.53606 0.76971 0.58255 0.0
C668 C 0.50509 0.67016 0.71884 0.0
C669 C 0.53274 0.71452 0.67015 0.0
C670 C 0.50449 0.64138 0.74677 0.0
C671 C 0.52959 0.62613 0.76036 0.0
C672 C 0.53101 0.68411 0.70607 0.0
C673 C 0.55495 0.64089 0.74771 0.0
C674 C 0.55836 0.72934 0.67229 0.0
C675 C 0.51064 0.75465 0.58602 0.0
N676 N 0.55501 0.66886 0.72196 0.0
N677 N 0.50966 0.72797 0.62816 0.0
H678 H 0.8049 0.58936 0.55958 0.0
H679 H 0.93198 0.49808 0.82124 0.0
H680 H 0.79644 0.50229 0.64581 0.0
H681 H 0.94255 0.57793 0.65837 0.0
H682 H 0.88092 0.50168 0.78896 0.0
H683 H 0.85323 0.58869 0.63294 0.0
C684 C 0.81278 0.57048 0.59896 0.0
C685 C 0.79641 0.546 0.59824 0.0
C686 C 0.89443 0.51851 0.76111 0.0
C687 C 0.85229 0.54456 0.67863 0.0
C688 C 0.92364 0.51647 0.77979 0.0
C689 C 0.94187 0.5376 0.74207 0.0
C690 C 0.88312 0.54212 0.70611 0.0
C691 C 0.92958 0.56091 0.68825 0.0
C692 C 0.84061 0.56986 0.63864 0.0
C693 C 0.80816 0.52174 0.64665 0.0
N694 N 0.90123 0.56252 0.67221 0.0
N695 N 0.83535 0.52151 0.68347 0.0
loop_
_geom_bond_atom_site_label_1
_geom_bond_atom_site_label_2
_geom_bond_distance
_geom_bond_site_symmetry_2
_ccdc_geom_bond_type
C0 N1 1.317 . S
C0 N2 1.348 . S
C0 C3 1.485 . S
N1 C0 1.317 . S
N1 N5 1.370 . S
N2 C0 1.348 . S
N2 C4 1.346 . S
C3 C0 1.485 . S
C3 H7 0.960 . S
C3 H8 0.961 . S
C3 H9 0.960 . S
C4 N2 1.346 . S
C4 N5 1.307 . S
C4 C6 1.486 . S
N5 N1 1.370 . S
N5 C4 1.307 . S
C6 C4 1.486 . S
C6 H10 0.960 . S
C6 H11 0.960 . S
C6 H12 0.959 . S
H7 C3 0.960 . S
H8 C3 0.961 . S
H9 C3 0.960 . S
H10 C6 0.960 . S
H11 C6 0.960 . S
H12 C6 0.959 . S
C13 N14 1.317 . S
C13 N15 1.350 . S
C13 C16 1.485 . S
N14 C13 1.317 . S
N14 N18 1.371 . S
N15 C13 1.350 . S
N15 C17 1.345 1_655 S
C16 C13 1.485 . S
C16 H20 0.960 1_655 S
C16 H21 0.961 . S
C16 H22 0.960 . S
C17 N15 1.345 1_455 S
C17 N18 1.307 1_455 S
C17 C19 1.486 . S
N18 N14 1.371 . S
N18 C17 1.307 1_655 S
C19 C17 1.486 . S
C19 H23 0.922 1_455 S
C19 H24 0.991 . S
C19 H25 0.967 . S
H20 C16 0.960 1_455 S
H21 C16 0.961 . S
H22 C16 0.960 . S
H23 C19 0.922 1_655 S
H24 C19 0.991 . S
H25 C19 0.967 . S
C26 N27 1.317 . S
C26 N28 1.350 . S
C26 C29 1.485 . S
N27 C26 1.317 . S
N27 N31 1.371 . S
N28 C26 1.350 . S
N28 C30 1.345 1_565 S
C29 C26 1.485 . S
C29 H33 0.960 1_565 S
C29 H34 0.961 . S
C29 H35 0.960 . S
C30 N28 1.345 1_545 S
C30 N31 1.307 1_545 S
C30 C32 1.486 . S
N31 N27 1.371 . S
N31 C30 1.307 1_565 S
C32 C30 1.486 . S
C32 H36 0.922 1_545 S
C32 H37 0.991 . S
C32 H38 0.967 . S
H33 C29 0.960 1_545 S
H34 C29 0.961 . S
H35 C29 0.960 . S
H36 C32 0.922 1_565 S
H37 C32 0.991 . S
H38 C32 0.967 . S
C39 N40 1.317 . S
C39 N41 1.348 . S
C39 C42 1.485 . S
N40 C39 1.317 . S
N40 N44 1.370 . S
N41 C39 1.348 . S
N41 C43 1.346 . S
C42 C39 1.485 . S
C42 H46 0.960 . S
C42 H47 0.961 . S
C42 H48 0.960 . S
C43 N41 1.346 . S
C43 N44 1.307 . S
C43 C45 1.486 . S
N44 N40 1.370 . S
N44 C43 1.307 . S
C45 C43 1.486 . S
C45 H49 0.960 . S
C45 H50 0.960 . S
C45 H51 0.959 . S
H46 C42 0.960 . S
H47 C42 0.961 . S
H48 C42 0.960 . S
H49 C45 0.960 . S
H50 C45 0.960 . S
H51 C45 0.959 . S
C52 N53 1.317 . S
C52 N54 1.348 1_556 S
C52 C55 1.485 . S
N53 C52 1.317 . S
N53 N57 1.370 1_556 S
N54 C52 1.348 1_554 S
N54 C56 1.346 . S
C55 C52 1.485 . S
C55 H59 0.960 . S
C55 H60 0.961 . S
C55 H61 0.960 . S
C56 N54 1.346 . S
C56 N57 1.307 . S
C56 C58 1.486 . S
N57 N53 1.370 1_554 S
N57 C56 1.307 . S
C58 C56 1.486 . S
C58 H62 0.960 . S
C58 H63 0.960 . S
C58 H64 0.959 . S
H59 C55 0.960 . S
H60 C55 0.961 . S
H61 C55 0.960 . S
H62 C58 0.960 . S
H63 C58 0.960 . S
H64 C58 0.959 . S
C65 N66 1.317 . S
C65 N67 1.350 1_556 S
C65 C68 1.485 . S
N66 C65 1.317 . S
N66 N70 1.370 1_556 S
N67 C65 1.350 1_554 S
N67 C69 1.345 1_655 S
C68 C65 1.485 . S
C68 H72 0.960 1_655 S
C68 H73 0.961 . S
C68 H74 0.960 . S
C69 N67 1.345 1_455 S
C69 N70 1.307 1_455 S
C69 C71 1.486 . S
N70 N66 1.370 1_554 S
N70 C69 1.307 1_655 S
C71 C69 1.486 . S
C71 H75 0.960 1_455 S
C71 H76 0.960 . S
C71 H77 0.959 . S
H72 C68 0.960 1_455 S
H73 C68 0.961 . S
H74 C68 0.960 . S
H75 C71 0.960 1_655 S
H76 C71 0.960 . S
H77 C71 0.959 . S
C78 N79 1.317 . S
C78 N80 1.350 1_556 S
C78 C81 1.485 . S
N79 C78 1.317 . S
N79 N83 1.370 1_556 S
N80 C78 1.350 1_554 S
N80 C82 1.345 1_565 S
C81 C78 1.485 . S
C81 H85 0.960 1_565 S
C81 H86 0.961 . S
C81 H87 0.960 . S
C82 N80 1.345 1_545 S
C82 N83 1.307 1_545 S
C82 C84 1.486 . S
N83 N79 1.370 1_554 S
N83 C82 1.307 1_565 S
C84 C82 1.486 . S
C84 H88 0.960 1_545 S
C84 H89 0.960 . S
C84 H90 0.959 . S
H85 C81 0.960 1_545 S
H86 C81 0.961 . S
H87 C81 0.960 . S
H88 C84 0.960 1_565 S
H89 C84 0.960 . S
H90 C84 0.959 . S
C91 N92 1.317 . S
C91 N93 1.348 1_556 S
C91 C94 1.485 . S
N92 C91 1.317 . S
N92 N96 1.370 1_556 S
N93 C91 1.348 1_554 S
N93 C95 1.346 . S
C94 C91 1.485 . S
C94 H98 0.960 . S
C94 H99 0.961 . S
C94 H100 0.960 . S
C95 N93 1.346 . S
C95 N96 1.307 . S
C95 C97 1.486 . S
N96 N92 1.370 1_554 S
N96 C95 1.307 . S
C97 C95 1.486 . S
C97 H101 0.960 . S
C97 H102 0.960 . S
C97 H103 0.959 . S
H98 C94 0.960 . S
H99 C94 0.961 . S
H100 C94 0.960 . S
H101 C97 0.960 . S
H102 C97 0.960 . S
H103 C97 0.959 . S
Gd104 C107 2.818 1_556 S
Gd104 O124 2.377 . S
Gd104 O126 2.448 . S
Gd104 O127 2.508 . S
Gd104 O128 2.435 . S
Gd104 O129 2.717 1_565 S
Gd104 O131 2.395 1_565 S
Gd104 O135 2.327 1_455 S
Gd105 C116 2.818 . S
Gd105 O125 2.395 1_545 S
Gd105 O129 2.327 1_655 S
Gd105 O130 2.377 . S
Gd105 O132 2.448 . S
Gd105 O133 2.506 . S
Gd105 O134 2.435 . S
Gd105 O135 2.717 1_545 S
C106 O124 1.240 1_655 S
C106 O125 1.240 . S
C107 Gd104 2.818 1_554 S
C107 C108 1.510 . S
C107 O126 1.249 1_554 S
C107 O127 1.252 1_554 S
C108 C107 1.510 . S
C108 C109 1.404 . S
C108 C110 1.352 . S
C109 C108 1.404 . S
C109 C113 1.389 . S
C109 H136 0.930 . S
C110 C108 1.352 . S
C110 C112 1.374 . S
C110 H137 0.931 1_455 S
C111 C112 1.359 . S
C111 C113 1.364 . S
C112 C110 1.374 . S
C112 C111 1.359 . S
C112 H138 0.931 1_455 S
C113 C109 1.389 . S
C113 C111 1.364 . S
C113 H139 0.931 . S
C114 O128 1.256 . S
C114 O129 1.257 1_565 S
C115 O130 1.240 1_455 S
C115 O131 1.240 . S
C116 Gd105 2.818 . S
C116 C117 1.510 . S
C116 O132 1.249 . S
C116 O133 1.252 . S
C117 C116 1.510 . S
C117 C118 1.404 . S
C117 C119 1.352 . S
C118 C117 1.404 . S
C118 C122 1.389 . S
C118 H140 0.930 . S
C119 C117 1.352 . S
C119 C121 1.374 . S
C119 H141 0.931 1_655 S
C120 C121 1.359 . S
C120 C122 1.364 . S
C121 C119 1.374 . S
C121 C120 1.359 . S
C121 H142 0.931 1_655 S
C122 C118 1.389 . S
C122 C120 1.364 . S
C122 H143 0.931 . S
C123 O134 1.256 . S
C123 O135 1.257 1_545 S
O124 Gd104 2.377 . S
O124 C106 1.240 1_455 S
O125 Gd105 2.395 1_565 S
O125 C106 1.240 . S
O126 Gd104 2.448 . S
O126 C107 1.249 1_556 S
O127 Gd104 2.508 . S
O127 C107 1.252 1_556 S
O128 Gd104 2.435 . S
O128 C114 1.256 . S
O129 Gd104 2.717 1_545 S
O129 Gd105 2.327 1_455 S
O129 C114 1.257 1_545 S
O130 Gd105 2.377 . S
O130 C115 1.240 1_655 S
O131 Gd104 2.395 1_545 S
O131 C115 1.240 . S
O132 Gd105 2.448 . S
O132 C116 1.249 . S
O133 Gd105 2.506 . S
O133 C116 1.252 . S
O134 Gd105 2.435 . S
O134 C123 1.256 . S
O135 Gd104 2.327 1_655 S
O135 Gd105 2.717 1_565 S
O135 C123 1.257 1_565 S
H136 C109 0.930 . S
H137 C110 0.931 1_655 S
H138 C112 0.931 1_655 S
H139 C113 0.931 . S
H140 C118 0.930 . S
H141 C119 0.931 1_455 S
H142 C121 0.931 1_455 S
H143 C122 0.931 . S
Gd144 C147 2.818 1_556 S
Gd144 O164 2.377 . S
Gd144 O166 2.448 . S
Gd144 O167 2.507 . S
Gd144 O168 2.435 . S
Gd144 O169 2.717 . S
Gd144 O171 2.395 . S
Gd144 O175 2.327 1_545 S
Gd145 C156 2.818 . S
Gd145 O165 2.395 . S
Gd145 O169 2.327 1_565 S
Gd145 O170 2.377 . S
Gd145 O172 2.448 . S
Gd145 O173 2.506 . S
Gd145 O174 2.435 . S
Gd145 O175 2.717 . S
C146 O164 1.240 1_565 S
C146 O165 1.240 . S
C147 Gd144 2.818 1_554 S
C147 C148 1.510 . S
C147 O166 1.249 1_554 S
C147 O167 1.252 1_554 S
C148 C147 1.510 . S
C148 C149 1.404 . S
C148 C150 1.352 . S
C149 C148 1.404 . S
C149 C153 1.389 . S
C149 H176 0.930 . S
C150 C148 1.352 . S
C150 C152 1.374 . S
C150 H177 0.931 1_545 S
C151 C152 1.359 . S
C151 C153 1.364 . S
C152 C150 1.374 . S
C152 C151 1.359 . S
C152 H178 0.931 1_545 S
C153 C149 1.389 . S
C153 C151 1.364 . S
C153 H179 0.931 . S
C154 O168 1.256 . S
C154 O169 1.257 . S
C155 O170 1.240 1_545 S
C155 O171 1.240 . S
C156 Gd145 2.818 . S
C156 C157 1.510 . S
C156 O172 1.249 . S
C156 O173 1.252 . S
C157 C156 1.510 . S
C157 C158 1.404 . S
C157 C159 1.352 . S
C158 C157 1.404 . S
C158 C162 1.389 . S
C158 H180 0.930 . S
C159 C157 1.352 . S
C159 C161 1.374 . S
C159 H181 0.931 1_565 S
C160 C161 1.359 . S
C160 C162 1.364 . S
C161 C159 1.374 . S
C161 C160 1.359 . S
C161 H182 0.931 1_565 S
C162 C158 1.389 . S
C162 C160 1.364 . S
C162 H183 0.931 . S
C163 O174 1.256 . S
C163 O175 1.257 . S
O164 Gd144 2.377 . S
O164 C146 1.240 1_545 S
O165 Gd145 2.395 . S
O165 C146 1.240 . S
O166 Gd144 2.448 . S
O166 C147 1.249 1_556 S
O167 Gd144 2.507 . S
O167 C147 1.252 1_556 S
O168 Gd144 2.435 . S
O168 C154 1.256 . S
O169 Gd144 2.717 . S
O169 Gd145 2.327 1_545 S
O169 C154 1.257 . S
O170 Gd145 2.377 . S
O170 C155 1.240 1_565 S
O171 Gd144 2.395 . S
O171 C155 1.240 . S
O172 Gd145 2.448 . S
O172 C156 1.249 . S
O173 Gd145 2.506 . S
O173 C156 1.252 . S
O174 Gd145 2.435 . S
O174 C163 1.256 . S
O175 Gd144 2.327 1_565 S
O175 Gd145 2.717 . S
O175 C163 1.257 . S
H176 C149 0.930 . S
H177 C150 0.931 1_565 S
H178 C152 0.931 1_565 S
H179 C153 0.931 . S
H180 C158 0.930 . S
H181 C159 0.931 1_545 S
H182 C161 0.931 1_545 S
H183 C162 0.931 . S
Gd184 C187 2.818 1_556 S
Gd184 O204 2.377 . S
Gd184 O206 2.448 . S
Gd184 O207 2.506 . S
Gd184 O208 2.435 . S
Gd184 O209 2.717 . S
Gd184 O211 2.395 . S
Gd184 O215 2.327 . S
Gd185 C196 2.818 . S
Gd185 O205 2.395 . S
Gd185 O209 2.327 . S
Gd185 O210 2.377 . S
Gd185 O212 2.448 . S
Gd185 O213 2.506 . S
Gd185 O214 2.435 . S
Gd185 O215 2.717 . S
C186 O204 1.240 . S
C186 O205 1.240 . S
C187 Gd184 2.818 1_554 S
C187 C188 1.510 . S
C187 O206 1.249 1_554 S
C187 O207 1.252 1_554 S
C188 C187 1.510 . S
C188 C189 1.404 . S
C188 C190 1.352 . S
C189 C188 1.404 . S
C189 C193 1.389 . S
C189 H216 0.930 . S
C190 C188 1.352 . S
C190 C192 1.374 . S
C190 H217 0.931 . S
C191 C192 1.359 . S
C191 C193 1.364 . S
C192 C190 1.374 . S
C192 C191 1.359 . S
C192 H218 0.931 . S
C193 C189 1.389 . S
C193 C191 1.364 . S
C193 H219 0.931 . S
C194 O208 1.256 . S
C194 O209 1.257 . S
C195 O210 1.240 . S
C195 O211 1.240 . S
C196 Gd185 2.818 . S
C196 C197 1.510 . S
C196 O212 1.249 . S
C196 O213 1.252 . S
C197 C196 1.510 . S
C197 C198 1.404 . S
C197 C199 1.352 . S
C198 C197 1.404 . S
C198 C202 1.389 . S
C198 H220 0.930 . S
C199 C197 1.352 . S
C199 C201 1.374 . S
C199 H221 0.931 . S
C200 C201 1.359 . S
C200 C202 1.364 . S
C201 C199 1.374 . S
C201 C200 1.359 . S
C201 H222 0.931 . S
C202 C198 1.389 . S
C202 C200 1.364 . S
C202 H223 0.931 . S
C203 O214 1.256 . S
C203 O215 1.257 . S
O204 Gd184 2.377 . S
O204 C186 1.240 . S
O205 Gd185 2.395 . S
O205 C186 1.240 . S
O206 Gd184 2.448 . S
O206 C187 1.249 1_556 S
O207 Gd184 2.506 . S
O207 C187 1.252 1_556 S
O208 Gd184 2.435 . S
O208 C194 1.256 . S
O209 Gd184 2.717 . S
O209 Gd185 2.327 . S
O209 C194 1.257 . S
O210 Gd185 2.377 . S
O210 C195 1.240 . S
O211 Gd184 2.395 . S
O211 C195 1.240 . S
O212 Gd185 2.448 . S
O212 C196 1.249 . S
O213 Gd185 2.506 . S
O213 C196 1.252 . S
O214 Gd185 2.435 . S
O214 C203 1.256 . S
O215 Gd184 2.327 . S
O215 Gd185 2.717 . S
O215 C203 1.257 . S
H216 C189 0.930 . S
H217 C190 0.931 . S
H218 C192 0.931 . S
H219 C193 0.931 . S
H220 C198 0.930 . S
H221 C199 0.931 . S
H222 C201 0.931 . S
H223 C202 0.931 . S
Gd224 C227 2.818 1_556 S
Gd224 O244 2.377 . S
Gd224 O246 2.448 . S
Gd224 O247 2.507 . S
Gd224 O248 2.435 . S
Gd224 O249 2.717 1_655 S
Gd224 O251 2.395 1_655 S
Gd224 O255 2.327 . S
Gd225 C236 2.818 . S
Gd225 O245 2.395 1_455 S
Gd225 O249 2.327 . S
Gd225 O250 2.377 . S
Gd225 O252 2.448 . S
Gd225 O253 2.506 . S
Gd225 O254 2.435 . S
Gd225 O255 2.717 1_455 S
C226 O244 1.240 . S
C226 O245 1.240 . S
C227 Gd224 2.818 1_554 S
C227 C228 1.510 . S
C227 O246 1.249 1_554 S
C227 O247 1.252 1_554 S
C228 C227 1.510 . S
C228 C229 1.404 . S
C228 C230 1.352 . S
C229 C228 1.404 . S
C229 C233 1.389 . S
C229 H256 0.930 . S
C230 C228 1.352 . S
C230 C232 1.374 . S
C230 H257 0.931 . S
C231 C232 1.359 . S
C231 C233 1.364 . S
C232 C230 1.374 . S
C232 C231 1.359 . S
C232 H258 0.931 . S
C233 C229 1.389 . S
C233 C231 1.364 . S
C233 H259 0.931 . S
C234 O248 1.278 . S
C234 O249 1.246 1_655 S
C235 O250 1.240 . S
C235 O251 1.240 . S
C236 Gd225 2.818 . S
C236 C237 1.510 . S
C236 O252 1.249 . S
C236 O253 1.252 . S
C237 C236 1.510 . S
C237 C238 1.404 . S
C237 C239 1.352 . S
C238 C237 1.404 . S
C238 C242 1.389 . S
C238 H260 0.930 . S
C239 C237 1.352 . S
C239 C241 1.374 . S
C239 H261 0.931 . S
C240 C241 1.359 . S
C240 C242 1.364 . S
C241 C239 1.374 . S
C241 C240 1.359 . S
C241 H262 0.931 . S
C242 C238 1.389 . S
C242 C240 1.364 . S
C242 H263 0.931 . S
C243 O254 1.256 . S
C243 O255 1.257 1_455 S
O244 Gd224 2.377 . S
O244 C226 1.240 . S
O245 Gd225 2.395 1_655 S
O245 C226 1.240 . S
O246 Gd224 2.448 . S
O246 C227 1.249 1_556 S
O247 Gd224 2.507 . S
O247 C227 1.252 1_556 S
O248 Gd224 2.435 . S
O248 C234 1.278 . S
O249 Gd224 2.717 1_455 S
O249 Gd225 2.327 . S
O249 C234 1.246 1_455 S
O250 Gd225 2.377 . S
O250 C235 1.240 . S
O251 Gd224 2.395 1_455 S
O251 C235 1.240 . S
O252 Gd225 2.448 . S
O252 C236 1.249 . S
O253 Gd225 2.506 . S
O253 C236 1.252 . S
O254 Gd225 2.435 . S
O254 C243 1.256 . S
O255 Gd224 2.327 . S
O255 Gd225 2.717 1_655 S
O255 C243 1.257 1_655 S
H256 C229 0.930 . S
H257 C230 0.931 . S
H258 C232 0.931 . S
H259 C233 0.931 . S
H260 C238 0.930 . S
H261 C239 0.931 . S
H262 C241 0.931 . S
H263 C242 0.931 . S
H264 C270 0.930 . S
H265 C274 0.930 . S
H266 C279 0.929 . S
H267 C277 0.929 . S
H268 C272 0.929 . S
H269 C278 0.929 . S
C270 H264 0.930 . S
C270 C271 1.365 1_565 S
C270 C278 1.378 . S
C271 C270 1.365 1_545 S
C271 C279 1.435 . S
C272 H268 0.929 . S
C272 C274 1.378 . S
C272 C276 1.350 . S
C273 C276 1.464 . S
C273 C278 1.342 1_545 S
C273 N281 1.435 . S
C274 H265 0.930 . S
C274 C272 1.378 . S
C274 C275 1.367 . S
C275 C274 1.367 . S
C275 C277 1.433 1_545 S
C276 C272 1.350 . S
C276 C273 1.464 . S
C276 N280 1.427 1_545 S
C277 H267 0.929 . S
C277 C275 1.433 1_565 S
C277 N280 1.384 . S
C278 H269 0.929 . S
C278 C270 1.378 . S
C278 C273 1.342 1_565 S
C279 H266 0.929 . S
C279 C271 1.435 . S
C279 N281 1.384 . S
N280 C276 1.427 1_565 S
N280 C277 1.384 . S
N281 C273 1.435 . S
N281 C279 1.384 . S
H282 C288 0.930 . S
H283 C292 0.930 . S
H284 C297 0.929 . S
H285 C295 0.929 . S
H286 C290 0.929 . S
H287 C296 0.929 . S
C288 H282 0.930 . S
C288 C289 1.367 . S
C288 C296 1.378 . S
C289 C288 1.367 . S
C289 C297 1.433 . S
C290 H286 0.929 . S
C290 C292 1.378 . S
C290 C294 1.350 . S
C291 C294 1.463 . S
C291 C296 1.350 . S
C291 N299 1.427 . S
C292 H283 0.930 . S
C292 C290 1.378 . S
C292 C293 1.367 . S
C293 C292 1.367 . S
C293 C295 1.433 . S
C294 C290 1.350 . S
C294 C291 1.463 . S
C294 N298 1.427 . S
C295 H285 0.929 . S
C295 C293 1.433 . S
C295 N298 1.384 . S
C296 H287 0.929 . S
C296 C288 1.378 . S
C296 C291 1.350 . S
C297 H284 0.929 . S
C297 C289 1.433 . S
C297 N299 1.384 . S
N298 C294 1.427 . S
N298 C295 1.384 . S
N299 C291 1.427 . S
N299 C297 1.384 . S
H300 C306 0.930 . S
H301 C310 0.930 . S
H302 C315 0.929 . S
H303 C313 0.929 . S
H304 C308 0.929 . S
H305 C314 0.929 . S
C306 H300 0.930 . S
C306 C307 1.367 . S
C306 C314 1.378 . S
C307 C306 1.367 . S
C307 C315 1.433 . S
C308 H304 0.929 . S
C308 C310 1.378 . S
C308 C312 1.350 . S
C309 C312 1.463 . S
C309 C314 1.350 . S
C309 N317 1.427 . S
C310 H301 0.930 . S
C310 C308 1.378 . S
C310 C311 1.367 . S
C311 C310 1.367 . S
C311 C313 1.433 . S
C312 C308 1.350 . S
C312 C309 1.463 . S
C312 N316 1.427 . S
C313 H303 0.929 . S
C313 C311 1.433 . S
C313 N316 1.384 . S
C314 H305 0.929 . S
C314 C306 1.378 . S
C314 C309 1.350 . S
C315 H302 0.929 . S
C315 C307 1.433 . S
C315 N317 1.384 . S
N316 C312 1.427 . S
N316 C313 1.384 . S
N317 C309 1.427 . S
N317 C315 1.384 . S
H318 C324 0.930 . S
H319 C328 0.930 . S
H320 C333 0.929 . S
H321 C331 0.929 . S
H322 C326 0.929 . S
H323 C332 0.929 . S
C324 H318 0.930 . S
C324 C325 1.367 . S
C324 C332 1.378 . S
C325 C324 1.367 . S
C325 C333 1.433 1_655 S
C326 H322 0.929 . S
C326 C328 1.378 . S
C326 C330 1.350 . S
C327 C330 1.463 . S
C327 C332 1.343 1_455 S
C327 N335 1.435 . S
C328 H319 0.930 . S
C328 C326 1.378 . S
C328 C329 1.367 . S
C329 C328 1.367 . S
C329 C331 1.433 1_455 S
C330 C326 1.350 . S
C330 C327 1.463 . S
C330 N334 1.427 1_455 S
C331 H321 0.929 . S
C331 C329 1.433 1_655 S
C331 N334 1.384 . S
C332 H323 0.929 . S
C332 C324 1.378 . S
C332 C327 1.343 1_655 S
C333 H320 0.929 . S
C333 C325 1.433 1_455 S
C333 N335 1.384 . S
N334 C330 1.427 1_655 S
N334 C331 1.384 . S
N335 C327 1.435 . S
N335 C333 1.384 . S
H336 C342 0.930 . S
H337 C346 0.930 1_556 S
H338 C351 0.929 . S
H339 C349 0.929 1_556 S
H340 C344 0.929 . S
H341 C350 0.929 . S
C342 H336 0.930 . S
C342 C343 1.379 . S
C342 C350 1.378 . S
C343 C342 1.379 . S
C343 C351 1.421 1_545 S
C344 H340 0.929 . S
C344 C346 1.378 . S
C344 C348 1.350 . S
C345 C348 1.463 1_545 S
C345 C350 1.347 . S
C345 N353 1.430 1_545 S
C346 H337 0.930 1_554 S
C346 C344 1.378 . S
C346 C347 1.367 1_554 S
C347 C346 1.367 1_556 S
C347 C349 1.433 1_566 S
C348 C344 1.350 . S
C348 C345 1.463 1_565 S
C348 N352 1.427 1_565 S
C349 H339 0.929 1_554 S
C349 C347 1.433 1_544 S
C349 N352 1.384 . S
C350 H341 0.929 . S
C350 C342 1.378 . S
C350 C345 1.347 . S
C351 H338 0.929 . S
C351 C343 1.421 1_565 S
C351 N353 1.384 . S
N352 C348 1.427 1_545 S
N352 C349 1.384 . S
N353 C345 1.430 1_565 S
N353 C351 1.384 . S
H354 C360 0.930 . S
H355 C364 0.930 . S
H356 C369 0.929 . S
H357 C367 0.929 . S
H358 C362 0.929 . S
H359 C368 0.929 . S
C360 H354 0.930 . S
C360 C361 1.367 . S
C360 C368 1.378 . S
C361 C360 1.367 . S
C361 C369 1.433 . S
C362 H358 0.929 . S
C362 C364 1.378 1_554 S
C362 C366 1.350 . S
C363 C366 1.463 . S
C363 C368 1.350 . S
C363 N371 1.427 . S
C364 H355 0.930 . S
C364 C362 1.378 1_556 S
C364 C365 1.367 . S
C365 C364 1.367 . S
C365 C367 1.433 1_556 S
C366 C362 1.350 . S
C366 C363 1.463 . S
C366 N370 1.427 . S
C367 H357 0.929 . S
C367 C365 1.433 1_554 S
C367 N370 1.384 . S
C368 H359 0.929 . S
C368 C360 1.378 . S
C368 C363 1.350 . S
C369 H356 0.929 . S
C369 C361 1.433 . S
C369 N371 1.384 . S
N370 C366 1.427 . S
N370 C367 1.384 . S
N371 C363 1.427 . S
N371 C369 1.384 . S
H372 C378 0.930 . S
H373 C382 0.930 . S
H374 C387 0.929 . S
H375 C385 0.929 . S
H376 C380 0.929 . S
H377 C386 0.929 . S
C378 H372 0.930 . S
C378 C379 1.367 . S
C378 C386 1.378 . S
C379 C378 1.367 . S
C379 C387 1.433 . S
C380 H376 0.929 . S
C380 C382 1.378 1_554 S
C380 C384 1.350 . S
C381 C384 1.463 . S
C381 C386 1.350 . S
C381 N389 1.427 . S
C382 H373 0.930 . S
C382 C380 1.378 1_556 S
C382 C383 1.367 . S
C383 C382 1.367 . S
C383 C385 1.433 1_556 S
C384 C380 1.350 . S
C384 C381 1.463 . S
C384 N388 1.427 . S
C385 H375 0.929 . S
C385 C383 1.433 1_554 S
C385 N388 1.384 . S
C386 H377 0.929 . S
C386 C378 1.378 . S
C386 C381 1.350 . S
C387 H374 0.929 . S
C387 C379 1.433 . S
C387 N389 1.384 . S
N388 C384 1.427 . S
N388 C385 1.384 . S
N389 C381 1.427 . S
N389 C387 1.384 . S
H390 C396 0.930 . S
H391 C400 0.930 . S
H392 C405 0.929 . S
H393 C403 0.929 . S
H394 C398 0.929 . S
H395 C404 0.929 . S
C396 H390 0.930 . S
C396 C397 1.367 . S
C396 C404 1.378 . S
C397 C396 1.367 . S
C397 C405 1.433 1_455 S
C398 H394 0.929 . S
C398 C400 1.378 1_554 S
C398 C402 1.350 . S
C399 C402 1.463 . S
C399 C404 1.342 1_655 S
C399 N407 1.435 . S
C400 H391 0.930 . S
C400 C398 1.378 1_556 S
C400 C401 1.367 . S
C401 C400 1.367 . S
C401 C403 1.433 1_656 S
C402 C398 1.350 . S
C402 C399 1.463 . S
C402 N406 1.427 1_655 S
C403 H393 0.929 . S
C403 C401 1.433 1_454 S
C403 N406 1.384 . S
C404 H395 0.929 . S
C404 C396 1.378 . S
C404 C399 1.342 1_455 S
C405 H392 0.929 . S
C405 C397 1.433 1_655 S
C405 N407 1.384 . S
N406 C402 1.427 1_455 S
N406 C403 1.384 . S
N407 C399 1.435 . S
N407 C405 1.384 . S
H408 C414 0.930 1_556 S
H409 C418 0.930 . S
H410 C423 0.929 . S
H411 C421 0.929 . S
H412 C416 0.929 . S
H413 C422 0.929 . S
C414 H408 0.930 1_554 S
C414 C415 1.367 . S
C414 C422 1.378 . S
C415 C414 1.367 . S
C415 C423 1.433 1_455 S
C416 H412 0.929 . S
C416 C418 1.378 . S
C416 C420 1.350 . S
C417 C420 1.463 . S
C417 C422 1.350 1_655 S
C417 N425 1.427 . S
C418 H409 0.930 . S
C418 C416 1.378 . S
C418 C419 1.367 . S
C419 C418 1.367 . S
C419 C421 1.433 . S
C420 C416 1.350 . S
C420 C417 1.463 . S
C420 N424 1.427 . S
C421 H411 0.929 . S
C421 C419 1.433 . S
C421 N424 1.384 . S
C422 H413 0.929 . S
C422 C414 1.378 . S
C422 C417 1.350 1_455 S
C423 H410 0.929 . S
C423 C415 1.433 1_655 S
C423 N425 1.384 . S
N424 C420 1.427 . S
N424 C421 1.384 . S
N425 C417 1.427 . S
N425 C423 1.384 . S
H426 C432 0.930 . S
H427 C436 0.930 . S
H428 C441 0.929 1_556 S
H429 C439 0.929 . S
H430 C434 0.929 . S
H431 C440 0.929 . S
C432 H426 0.930 . S
C432 C433 1.367 . S
C432 C440 1.378 1_545 S
C433 C432 1.367 . S
C433 C441 1.433 1_545 S
C434 H430 0.929 . S
C434 C436 1.378 . S
C434 C438 1.350 . S
C435 C438 1.463 . S
C435 C440 1.350 . S
C435 N443 1.427 . S
C436 H427 0.930 . S
C436 C434 1.378 . S
C436 C437 1.367 . S
C437 C436 1.367 . S
C437 C439 1.433 . S
C438 C434 1.350 . S
C438 C435 1.463 . S
C438 N442 1.427 . S
C439 H429 0.929 . S
C439 C437 1.433 . S
C439 N442 1.384 . S
C440 H431 0.929 . S
C440 C432 1.378 1_565 S
C440 C435 1.350 . S
C441 H428 0.929 1_554 S
C441 C433 1.433 1_565 S
C441 N443 1.384 . S
N442 C438 1.427 . S
N442 C439 1.384 . S
N443 C435 1.427 . S
N443 C441 1.384 . S
H444 C450 0.930 . S
H445 C454 0.930 . S
H446 C459 0.929 . S
H447 C457 0.929 . S
H448 C452 0.929 . S
H449 C458 0.929 . S
C450 H444 0.930 . S
C450 C451 1.367 . S
C450 C458 1.378 . S
C451 C450 1.367 . S
C451 C459 1.433 . S
C452 H448 0.929 . S
C452 C454 1.378 . S
C452 C456 1.350 . S
C453 C456 1.463 . S
C453 C458 1.350 . S
C453 N461 1.427 . S
C454 H445 0.930 . S
C454 C452 1.378 . S
C454 C455 1.367 . S
C455 C454 1.367 . S
C455 C457 1.433 . S
C456 C452 1.350 . S
C456 C453 1.463 . S
C456 N460 1.427 . S
C457 H447 0.929 . S
C457 C455 1.433 . S
C457 N460 1.384 . S
C458 H449 0.929 . S
C458 C450 1.378 . S
C458 C453 1.350 . S
C459 H446 0.929 . S
C459 C451 1.433 . S
C459 N461 1.384 . S
N460 C456 1.427 . S
N460 C457 1.384 . S
N461 C453 1.427 . S
N461 C459 1.384 . S
H462 C468 0.930 . S
H463 C472 0.930 . S
H464 C477 0.929 1_556 S
H465 C475 0.929 . S
H466 C470 0.929 . S
H467 C476 0.929 . S
C468 H462 0.930 . S
C468 C469 1.367 . S
C468 C476 1.378 . S
C469 C468 1.367 . S
C469 C477 1.433 . S
C470 H466 0.929 . S
C470 C472 1.378 . S
C470 C474 1.350 . S
C471 C474 1.463 . S
C471 C476 1.350 . S
C471 N479 1.427 . S
C472 H463 0.930 . S
C472 C470 1.378 . S
C472 C473 1.367 . S
C473 C472 1.367 . S
C473 C475 1.433 . S
C474 C470 1.350 . S
C474 C471 1.463 . S
C474 N478 1.427 . S
C475 H465 0.929 . S
C475 C473 1.433 . S
C475 N478 1.384 . S
C476 H467 0.929 . S
C476 C468 1.378 . S
C476 C471 1.350 . S
C477 H464 0.929 1_554 S
C477 C469 1.433 . S
C477 N479 1.384 . S
N478 C474 1.427 . S
N478 C475 1.384 . S
N479 C471 1.427 . S
N479 C477 1.384 . S
H480 C486 0.930 . S
H481 C490 0.930 . S
H482 C495 0.929 . S
H483 C493 0.929 . S
H484 C488 0.929 . S
H485 C494 0.929 . S
C486 H480 0.930 . S
C486 C487 1.367 1_455 S
C486 C494 1.378 . S
C487 C486 1.367 1_655 S
C487 C495 1.433 . S
C488 H484 0.929 . S
C488 C490 1.378 . S
C488 C492 1.350 . S
C489 C492 1.463 . S
C489 C494 1.350 . S
C489 N497 1.416 1_455 S
C490 H481 0.930 . S
C490 C488 1.378 . S
C490 C491 1.367 . S
C491 C490 1.367 . S
C491 C493 1.433 . S
C492 C488 1.350 . S
C492 C489 1.463 . S
C492 N496 1.427 . S
C493 H483 0.929 . S
C493 C491 1.433 . S
C493 N496 1.384 . S
C494 H485 0.929 . S
C494 C486 1.378 . S
C494 C489 1.350 . S
C495 H482 0.929 . S
C495 C487 1.433 . S
C495 N497 1.390 . S
N496 C492 1.427 . S
N496 C493 1.384 . S
N497 C489 1.416 1_655 S
N497 C495 1.390 . S
H498 C504 0.930 . S
H499 C508 0.930 . S
H500 C513 0.929 . S
H501 C511 0.937 . S
H502 C506 0.929 . S
H503 C512 0.929 . S
C504 H498 0.930 . S
C504 C505 1.367 . S
C504 C512 1.378 . S
C505 C504 1.367 . S
C505 C513 1.433 1_565 S
C506 H502 0.929 . S
C506 C508 1.378 . S
C506 C510 1.350 . S
C507 C510 1.463 . S
C507 C512 1.350 1_545 S
C507 N515 1.427 . S
C508 H499 0.930 . S
C508 C506 1.378 . S
C508 C509 1.367 . S
C509 C508 1.367 . S
C509 C511 1.433 . S
C510 C506 1.350 . S
C510 C507 1.463 . S
C510 N514 1.427 . S
C511 H501 0.937 . S
C511 C509 1.433 . S
C511 N514 1.384 . S
C512 H503 0.929 . S
C512 C504 1.378 . S
C512 C507 1.350 1_565 S
C513 H500 0.929 . S
C513 C505 1.433 1_545 S
C513 N515 1.384 . S
N514 C510 1.427 . S
N514 C511 1.384 . S
N515 C507 1.427 . S
N515 C513 1.384 . S
H516 C522 0.930 . S
H517 C526 0.930 . S
H518 C531 0.929 . S
H519 C529 0.929 . S
H520 C524 0.929 . S
H521 C530 0.929 . S
C522 H516 0.930 . S
C522 C523 1.367 . S
C522 C530 1.378 . S
C523 C522 1.367 . S
C523 C531 1.433 . S
C524 H520 0.929 . S
C524 C526 1.378 . S
C524 C528 1.350 . S
C525 C528 1.463 . S
C525 C530 1.350 . S
C525 N533 1.427 . S
C526 H517 0.930 . S
C526 C524 1.378 . S
C526 C527 1.367 . S
C527 C526 1.367 . S
C527 C529 1.433 . S
C528 C524 1.350 . S
C528 C525 1.463 . S
C528 N532 1.427 . S
C529 H519 0.929 . S
C529 C527 1.433 . S
C529 N532 1.384 . S
C530 H521 0.929 . S
C530 C522 1.378 . S
C530 C525 1.350 . S
C531 H518 0.929 . S
C531 C523 1.433 . S
C531 N533 1.384 . S
N532 C528 1.427 . S
N532 C529 1.384 . S
N533 C525 1.427 . S
N533 C531 1.384 . S
H534 C540 0.930 . S
H535 C544 0.930 . S
H536 C549 0.929 . S
H537 C547 0.929 . S
H538 C542 0.929 . S
H539 C548 0.929 . S
C540 H534 0.930 . S
C540 C541 1.367 . S
C540 C548 1.378 . S
C541 C540 1.367 . S
C541 C549 1.433 . S
C542 H538 0.929 . S
C542 C544 1.378 . S
C542 C546 1.350 . S
C543 C546 1.463 . S
C543 C548 1.350 . S
C543 N551 1.427 . S
C544 H535 0.930 . S
C544 C542 1.378 . S
C544 C545 1.367 . S
C545 C544 1.367 . S
C545 C547 1.433 . S
C546 C542 1.350 . S
C546 C543 1.463 . S
C546 N550 1.427 . S
C547 H537 0.929 . S
C547 C545 1.433 . S
C547 N550 1.384 . S
C548 H539 0.929 . S
C548 C540 1.378 . S
C548 C543 1.350 . S
C549 H536 0.929 . S
C549 C541 1.433 . S
C549 N551 1.384 . S
N550 C546 1.427 . S
N550 C547 1.384 . S
N551 C543 1.427 . S
N551 C549 1.384 . S
H552 C558 0.930 . S
H553 C562 0.930 . S
H554 C567 0.929 1_554 S
H555 C565 0.929 . S
H556 C560 0.926 1_554 S
H557 C566 0.929 . S
C558 H552 0.930 . S
C558 C559 1.367 . S
C558 C566 1.378 . S
C559 C558 1.367 . S
C559 C567 1.433 1_455 S
C560 H556 0.926 1_556 S
C560 C562 1.378 . S
C560 C564 1.350 1_655 S
C561 C564 1.463 . S
C561 C566 1.350 . S
C561 N569 1.427 1_455 S
C562 H553 0.930 . S
C562 C560 1.378 . S
C562 C563 1.367 1_655 S
C563 C562 1.367 1_455 S
C563 C565 1.433 . S
C564 C560 1.350 1_455 S
C564 C561 1.463 . S
C564 N568 1.427 . S
C565 H555 0.929 . S
C565 C563 1.433 . S
C565 N568 1.384 . S
C566 H557 0.929 . S
C566 C558 1.378 . S
C566 C561 1.350 . S
C567 H554 0.929 1_556 S
C567 C559 1.433 1_655 S
C567 N569 1.384 . S
N568 C564 1.427 . S
N568 C565 1.384 . S
N569 C561 1.427 1_655 S
N569 C567 1.384 . S
H570 C576 0.930 . S
H571 C580 0.930 . S
H572 C585 0.929 . S
H573 C583 0.929 . S
H574 C578 0.929 . S
H575 C584 0.929 . S
C576 H570 0.930 . S
C576 C577 1.367 1_565 S
C576 C584 1.378 . S
C577 C576 1.367 1_545 S
C577 C585 1.433 . S
C578 H574 0.929 . S
C578 C580 1.378 . S
C578 C582 1.350 . S
C579 C582 1.463 . S
C579 C584 1.350 1_545 S
C579 N587 1.427 . S
C580 H571 0.930 . S
C580 C578 1.378 . S
C580 C581 1.367 . S
C581 C580 1.367 . S
C581 C583 1.433 1_545 S
C582 C578 1.350 . S
C582 C579 1.463 . S
C582 N586 1.427 1_545 S
C583 H573 0.929 . S
C583 C581 1.433 1_565 S
C583 N586 1.384 . S
C584 H575 0.929 . S
C584 C576 1.378 . S
C584 C579 1.350 1_565 S
C585 H572 0.929 . S
C585 C577 1.433 . S
C585 N587 1.384 . S
N586 C582 1.427 1_565 S
N586 C583 1.384 . S
N587 C579 1.427 . S
N587 C585 1.384 . S
H588 C594 0.930 . S
H589 C598 0.930 . S
H590 C603 0.929 1_554 S
H591 C601 0.929 . S
H592 C596 0.929 1_554 S
H593 C602 0.929 . S
C594 H588 0.930 . S
C594 C595 1.367 . S
C594 C602 1.378 . S
C595 C594 1.367 . S
C595 C603 1.433 . S
C596 H592 0.929 1_556 S
C596 C598 1.378 . S
C596 C600 1.350 . S
C597 C600 1.463 . S
C597 C602 1.350 . S
C597 N605 1.427 . S
C598 H589 0.930 . S
C598 C596 1.378 . S
C598 C599 1.367 . S
C599 C598 1.367 . S
C599 C601 1.433 . S
C600 C596 1.350 . S
C600 C597 1.463 . S
C600 N604 1.427 . S
C601 H591 0.929 . S
C601 C599 1.433 . S
C601 N604 1.384 . S
C602 H593 0.929 . S
C602 C594 1.378 . S
C602 C597 1.350 . S
C603 H590 0.929 1_556 S
C603 C595 1.433 . S
C603 N605 1.384 . S
N604 C600 1.427 . S
N604 C601 1.384 . S
N605 C597 1.427 . S
N605 C603 1.384 . S
H606 C612 0.930 . S
H607 C616 0.930 . S
H608 C621 0.929 . S
H609 C619 0.929 . S
H610 C614 0.929 . S
H611 C620 0.929 . S
C612 H606 0.930 . S
C612 C613 1.367 . S
C612 C620 1.378 . S
C613 C612 1.367 . S
C613 C621 1.433 . S
C614 H610 0.929 . S
C614 C616 1.378 . S
C614 C618 1.350 . S
C615 C618 1.463 . S
C615 C620 1.350 . S
C615 N623 1.427 . S
C616 H607 0.930 . S
C616 C614 1.378 . S
C616 C617 1.367 . S
C617 C616 1.367 . S
C617 C619 1.433 . S
C618 C614 1.350 . S
C618 C615 1.463 . S
C618 N622 1.427 . S
C619 H609 0.929 . S
C619 C617 1.433 . S
C619 N622 1.384 . S
C620 H611 0.929 . S
C620 C612 1.378 . S
C620 C615 1.350 . S
C621 H608 0.929 . S
C621 C613 1.433 . S
C621 N623 1.384 . S
N622 C618 1.427 . S
N622 C619 1.384 . S
N623 C615 1.427 . S
N623 C621 1.384 . S
H624 C630 0.930 . S
H625 C634 0.930 . S
H626 C639 0.929 . S
H627 C637 0.929 . S
H628 C632 0.929 . S
H629 C638 0.929 . S
C630 H624 0.930 . S
C630 C631 1.367 1_455 S
C630 C638 1.378 . S
C631 C630 1.367 1_655 S
C631 C639 1.433 . S
C632 H628 0.929 . S
C632 C634 1.378 . S
C632 C636 1.350 . S
C633 C636 1.463 . S
C633 C638 1.350 1_655 S
C633 N641 1.427 . S
C634 H625 0.930 . S
C634 C632 1.378 . S
C634 C635 1.367 . S
C635 C634 1.367 . S
C635 C637 1.433 1_655 S
C636 C632 1.350 . S
C636 C633 1.463 . S
C636 N640 1.427 1_655 S
C637 H627 0.929 . S
C637 C635 1.433 1_455 S
C637 N640 1.384 . S
C638 H629 0.929 . S
C638 C630 1.378 . S
C638 C633 1.350 1_455 S
C639 H626 0.929 . S
C639 C631 1.433 . S
C639 N641 1.384 . S
N640 C636 1.427 1_455 S
N640 C637 1.384 . S
N641 C633 1.427 . S
N641 C639 1.384 . S
H642 C648 0.930 . S
H643 C652 0.930 . S
H644 C657 0.929 . S
H645 C655 0.929 . S
H646 C650 0.929 . S
H647 C656 0.929 . S
C648 H642 0.930 . S
C648 C649 1.367 1_545 S
C648 C656 1.378 . S
C649 C648 1.367 1_565 S
C649 C657 1.433 . S
C650 H646 0.929 . S
C650 C652 1.378 . S
C650 C654 1.350 . S
C651 C654 1.463 . S
C651 C656 1.350 1_565 S
C651 N659 1.427 . S
C652 H643 0.930 . S
C652 C650 1.378 . S
C652 C653 1.367 . S
C653 C652 1.367 . S
C653 C655 1.433 1_565 S
C654 C650 1.350 . S
C654 C651 1.463 . S
C654 N658 1.427 1_565 S
C655 H645 0.929 . S
C655 C653 1.433 1_545 S
C655 N658 1.384 . S
C656 H647 0.929 . S
C656 C648 1.378 . S
C656 C651 1.350 1_545 S
C657 H644 0.929 . S
C657 C649 1.433 . S
C657 N659 1.384 . S
N658 C654 1.427 1_545 S
N658 C655 1.384 . S
N659 C651 1.427 . S
N659 C657 1.384 . S
H660 C666 0.930 . S
H661 C670 0.930 . S
H662 C675 0.929 . S
H663 C673 0.929 . S
H664 C668 0.929 . S
H665 C674 0.929 . S
C666 H660 0.930 . S
C666 C667 1.367 . S
C666 C674 1.378 . S
C667 C666 1.367 . S
C667 C675 1.433 . S
C668 H664 0.929 . S
C668 C670 1.378 . S
C668 C672 1.350 . S
C669 C672 1.463 . S
C669 C674 1.350 . S
C669 N677 1.427 . S
C670 H661 0.930 . S
C670 C668 1.378 . S
C670 C671 1.367 . S
C671 C670 1.367 . S
C671 C673 1.433 . S
C672 C668 1.350 . S
C672 C669 1.463 . S
C672 N676 1.427 . S
C673 H663 0.929 . S
C673 C671 1.433 . S
C673 N676 1.384 . S
C674 H665 0.929 . S
C674 C666 1.378 . S
C674 C669 1.350 . S
C675 H662 0.929 . S
C675 C667 1.433 . S
C675 N677 1.384 . S
N676 C672 1.427 . S
N676 C673 1.384 . S
N677 C669 1.427 . S
N677 C675 1.384 . S
H678 C684 0.930 . S
H679 C688 0.930 . S
H680 C693 0.929 . S
H681 C691 0.929 . S
H682 C686 0.929 . S
H683 C692 0.929 . S
C684 H678 0.930 . S
C684 C685 1.367 . S
C684 C692 1.378 . S
C685 C684 1.367 . S
C685 C693 1.433 . S
C686 H682 0.929 . S
C686 C688 1.378 . S
C686 C690 1.350 . S
C687 C690 1.463 . S
C687 C692 1.350 . S
C687 N695 1.427 . S
C688 H679 0.930 . S
C688 C686 1.378 . S
C688 C689 1.367 . S
C689 C688 1.367 . S
C689 C691 1.433 . S
C690 C686 1.350 . S
C690 C687 1.463 . S
C690 N694 1.427 . S
C691 H681 0.929 . S
C691 C689 1.433 . S
C691 N694 1.384 . S
C692 H683 0.929 . S
C692 C684 1.378 . S
C692 C687 1.350 . S
C693 H680 0.929 . S
C693 C685 1.433 . S
C693 N695 1.384 . S
N694 C690 1.427 . S
N694 C691 1.384 . S
N695 C687 1.427 . S
N695 C693 1.384 . S
C271 N80 1.889 1_545 S
C275 C114 1.972 1_545 S
C293 C154 1.974 . S
C289 N93 1.900 . S
C311 C194 1.972 . S
C307 N54 1.904 . S
C329 C234 1.972 1_455 S
C325 N67 1.899 . S
C347 C123 1.975 1_565 S
C343 N28 1.899 1_545 S
C361 N41 1.901 . S
C365 C163 1.974 . S
C379 N2 1.902 . S
C383 C203 1.975 . S
C397 N15 1.900 1_455 S
C401 C243 1.976 1_655 S
C419 C120 0.514 . S
C415 N70 0.471 1_455 S
C437 C160 0.509 . S
C433 N83 0.466 1_545 S
C455 C200 0.490 . S
C451 N96 0.455 . S
C469 N57 0.458 . S
C473 C240 0.494 . S
C487 N18 0.459 . S
C491 C111 0.492 . S
C509 C151 0.524 . S
C505 N31 0.476 . S
C527 C191 0.523 . S
C523 N44 0.472 . S
C541 N5 0.474 . S
C545 C231 0.525 . S
C559 N66 2.155 1_455 S
C563 C115 2.235 . S
C577 N79 2.144 1_545 S
C581 C155 2.242 . S
C599 C195 2.236 . S
C595 N92 2.151 . S
C617 C235 2.243 . S
C613 N53 2.142 . S
C631 N14 2.148 . S
C635 C106 2.249 . S
C653 C146 2.242 . S
C649 N27 2.142 . S
C671 C186 2.235 . S
C667 N40 2.142 . S
C685 N1 2.138 . S
C689 C226 2.241 . S
