# Generated by pormake.
# Topology sqc, (4,8)-cn, num edge types: 1
# Building blocks:
#     Node 0, Type 0, BuildingBlock: KUFVIS_clean_linker_0, # of connection points: 4
#     Node 1, Type 0, BuildingBlock: KUFVIS_clean_linker_0, # of connection points: 4
#     Node 2, Type 0, BuildingBlock: KUFVIS_clean_linker_0, # of connection points: 4
#     Node 3, Type 0, BuildingBlock: KUFVIS_clean_linker_0, # of connection points: 4
#     Node 4, Type 0, BuildingBlock: KUFVIS_clean_linker_0, # of connection points: 4
#     Node 5, Type 0, BuildingBlock: KUFVIS_clean_linker_0, # of connection points: 4
#     Node 6, Type 0, BuildingBlock: KUFVIS_clean_linker_0, # of connection points: 4
#     Node 7, Type 0, BuildingBlock: KUFVIS_clean_linker_0, # of connection points: 4
#     Node 8, Type 1, BuildingBlock: TAGTUT_clean_sbu_3, # of connection points: 8
#     Node 9, Type 1, BuildingBlock: TAGTUT_clean_sbu_3, # of connection points: 8
#     Node 10, Type 1, BuildingBlock: TAGTUT_clean_sbu_3, # of connection points: 8
#     Node 11, Type 1, BuildingBlock: TAGTUT_clean_sbu_3, # of connection points: 8
#     Edge 12, Type (0, 1), BuildingBlock: XIVTED_clean_linker_0, # of connection points: 2
#     Edge 13, Type (0, 1), BuildingBlock: XIVTED_clean_linker_0, # of connection points: 2
#     Edge 14, Type (0, 1), BuildingBlock: XIVTED_clean_linker_0, # of connection points: 2
#     Edge 15, Type (0, 1), BuildingBlock: XIVTED_clean_linker_0, # of connection points: 2
#     Edge 16, Type (0, 1), BuildingBlock: XIVTED_clean_linker_0, # of connection points: 2
#     Edge 17, Type (0, 1), BuildingBlock: XIVTED_clean_linker_0, # of connection points: 2
#     Edge 18, Type (0, 1), BuildingBlock: XIVTED_clean_linker_0, # of connection points: 2
#     Edge 19, Type (0, 1), BuildingBlock: XIVTED_clean_linker_0, # of connection points: 2
#     Edge 20, Type (0, 1), BuildingBlock: XIVTED_clean_linker_0, # of connection points: 2
#     Edge 21, Type (0, 1), BuildingBlock: XIVTED_clean_linker_0, # of connection points: 2
#     Edge 22, Type (0, 1), BuildingBlock: XIVTED_clean_linker_0, # of connection points: 2
#     Edge 23, Type (0, 1), BuildingBlock: XIVTED_clean_linker_0, # of connection points: 2
#     Edge 24, Type (0, 1), BuildingBlock: XIVTED_clean_linker_0, # of connection points: 2
#     Edge 25, Type (0, 1), BuildingBlock: XIVTED_clean_linker_0, # of connection points: 2
#     Edge 26, Type (0, 1), BuildingBlock: XIVTED_clean_linker_0, # of connection points: 2
#     Edge 27, Type (0, 1), BuildingBlock: XIVTED_clean_linker_0, # of connection points: 2
#     Edge 28, Type (0, 1), BuildingBlock: XIVTED_clean_linker_0, # of connection points: 2
#     Edge 29, Type (0, 1), BuildingBlock: XIVTED_clean_linker_0, # of connection points: 2
#     Edge 30, Type (0, 1), BuildingBlock: XIVTED_clean_linker_0, # of connection points: 2
#     Edge 31, Type (0, 1), BuildingBlock: XIVTED_clean_linker_0, # of connection points: 2
#     Edge 32, Type (0, 1), BuildingBlock: XIVTED_clean_linker_0, # of connection points: 2
#     Edge 33, Type (0, 1), BuildingBlock: XIVTED_clean_linker_0, # of connection points: 2
#     Edge 34, Type (0, 1), BuildingBlock: XIVTED_clean_linker_0, # of connection points: 2
#     Edge 35, Type (0, 1), BuildingBlock: XIVTED_clean_linker_0, # of connection points: 2
#     Edge 36, Type (0, 1), BuildingBlock: XIVTED_clean_linker_0, # of connection points: 2
#     Edge 37, Type (0, 1), BuildingBlock: XIVTED_clean_linker_0, # of connection points: 2
#     Edge 38, Type (0, 1), BuildingBlock: XIVTED_clean_linker_0, # of connection points: 2
#     Edge 39, Type (0, 1), BuildingBlock: XIVTED_clean_linker_0, # of connection points: 2
#     Edge 40, Type (0, 1), BuildingBlock: XIVTED_clean_linker_0, # of connection points: 2
#     Edge 41, Type (0, 1), BuildingBlock: XIVTED_clean_linker_0, # of connection points: 2
#     Edge 42, Type (0, 1), BuildingBlock: XIVTED_clean_linker_0, # of connection points: 2
#     Edge 43, Type (0, 1), BuildingBlock: XIVTED_clean_linker_0, # of connection points: 2
# Relax obj value: 0.176
# Max RMSD: 0.271
# Mean RMSD: 0.222
data_MOF--net-sqc--node1-TAGTUT_clean_sbu_3--node2-KUFVIS_clean_linker_0--edge1-XIVTED_clean_linker_0
_symmetry_space_group_name_H-M    P1
_symmetry_Int_Tables_number       1
_symmetry_cell_setting            triclinic
loop_
_symmetry_equiv_pos_as_xyz
'x, y, z'
_cell_length_a     24.231255
_cell_length_b     24.450851
_cell_length_c     74.022861
_cell_angle_alpha  89.818047
_cell_angle_beta   90.125523
_cell_angle_gamma 89.739352
loop_
_atom_site_label
_atom_site_type_symbol
_atom_site_fract_x
_atom_site_fract_y
_atom_site_fract_z
_atom_type_partial_charge
H0 H 0.87557 0.96854 0.4802 0.0
H1 H 0.02718 0.98818 0.50878 0.0
H2 H 0.02648 0.92875 0.45357 0.0
H3 H 0.1081 0.89914 0.45863 0.0
H4 H 0.26009 0.94452 0.48321 0.0
H5 H 0.1107 0.01276 0.50382 0.0
C6 C 0.92006 0.96371 0.48071 0.0
C7 C 0.94785 0.94353 0.46561 0.0
C8 C 0.94856 0.98069 0.49606 0.0
C9 C 1.00648 0.97675 0.49643 0.0
C10 C 0.03659 0.95806 0.4812 0.0
C11 C 1.00597 0.94221 0.4657 0.0
C12 C 0.09914 0.95498 0.48158 0.0
C13 C 0.12882 0.92241 0.46896 0.0
C14 C 0.18665 0.91915 0.46961 0.0
C15 C 0.21529 0.94644 0.48309 0.0
C16 C 0.18803 0.97931 0.49556 0.0
C17 C 0.13032 0.98489 0.49452 0.0
H18 H 0.3586 0.895 0.71902 0.0
H19 H 0.26015 0.75563 0.73355 0.0
H20 H 0.40613 0.73628 0.70073 0.0
H21 H 0.34675 0.67988 0.6863 0.0
H22 H 0.30242 0.52286 0.70679 0.0
H23 H 0.29248 0.66284 0.74168 0.0
C24 C 0.35131 0.85134 0.71868 0.0
C25 C 0.38662 0.81813 0.70855 0.0
C26 C 0.30566 0.82954 0.72781 0.0
C27 C 0.2962 0.77269 0.72704 0.0
C28 C 0.33178 0.73847 0.717 0.0
C29 C 0.37763 0.76178 0.70822 0.0
C30 C 0.31995 0.67923 0.71431 0.0
C31 C 0.33167 0.65529 0.69744 0.0
C32 C 0.32576 0.59919 0.69481 0.0
C33 C 0.30497 0.56676 0.70872 0.0
C34 C 0.29243 0.58917 0.7256 0.0
C35 C 0.30028 0.64564 0.72846 0.0
H36 H 0.83974 0.04526 -0.03049 0.0
H37 H 0.70499 0.95666 -0.00711 0.0
H38 H 0.67704 0.06606 0.9478 0.0
H39 H 0.61188 0.99912 0.9423 0.0
H40 H 0.46428 0.98087 -0.02626 0.0
H41 H 0.62075 0.99586 0.00038 0.0
C42 C 0.79602 0.03605 -0.03 0.0
C43 C 0.76054 0.05954 0.95721 0.0
C44 C 0.77622 0.99929 -0.01702 0.0
C45 C 0.72017 0.98546 -0.01705 0.0
C46 C 0.68363 0.00952 -0.02962 0.0
C47 C 0.70442 0.04644 0.95746 0.0
C48 C 0.62358 0.99809 -0.02879 0.0
C49 C 0.59184 0.99604 0.95532 0.0
C50 C 0.53424 0.99095 0.95608 0.0
C51 C 0.50873 0.98478 -0.02702 0.0
C52 C 0.53996 0.98524 -0.01103 0.0
C53 C 0.59718 0.99244 -0.01202 0.0
H54 H 0.27548 0.49987 0.2416 0.0
H55 H 0.31017 0.34444 0.26548 0.0
H56 H 0.26381 0.35526 0.20905 0.0
H57 H 0.23011 0.26611 0.21671 0.0
H58 H 0.31957 0.12396 0.23495 0.0
H59 H 0.367 0.2815 0.25391 0.0
C60 C 0.27632 0.45562 0.24051 0.0
C61 C 0.26457 0.43114 0.2239 0.0
C62 C 0.29412 0.42457 0.25525 0.0
C63 C 0.29778 0.36782 0.25369 0.0
C64 C 0.28727 0.34173 0.23706 0.0
C65 C 0.27068 0.37402 0.22209 0.0
C66 C 0.29703 0.28154 0.23549 0.0
C67 C 0.26339 0.2481 0.22453 0.0
C68 C 0.27137 0.19091 0.22427 0.0
C69 C 0.31331 0.16785 0.23496 0.0
C70 C 0.34682 0.20018 0.24596 0.0
C71 C 0.33944 0.25684 0.24582 0.0
H72 H 0.827 0.40648 0.21613 0.0
H73 H 0.73958 0.26099 0.23146 0.0
H74 H 0.89059 0.25075 0.20055 0.0
H75 H 0.84175 0.18655 0.18661 0.0
H76 H 0.80023 0.02958 0.20766 0.0
H77 H 0.77258 0.17233 0.24029 0.0
C78 C 0.82357 0.36233 0.21626 0.0
C79 C 0.8627 0.33127 0.20694 0.0
C80 C 0.77925 0.33769 0.22525 0.0
C81 C 0.77471 0.28019 0.22506 0.0
C82 C 0.81417 0.24798 0.21584 0.0
C83 C 0.85886 0.27432 0.20731 0.0
C84 C 0.80767 0.18755 0.21378 0.0
C85 C 0.82559 0.16244 0.19769 0.0
C86 C 0.8235 0.10586 0.19562 0.0
C87 C 0.80044 0.0737 0.2092 0.0
C88 C 0.78136 0.0972 0.22525 0.0
C89 C 0.7856 0.15429 0.22765 0.0
H90 H 0.8325 1.00331 0.72953 0.0
H91 H 0.86984 0.84355 0.74934 0.0
H92 H 0.8306 0.86752 0.69277 0.0
H93 H 0.80204 0.77511 0.6969 0.0
H94 H 0.88819 0.63148 0.7152 0.0
H95 H 0.93122 0.78692 0.73713 0.0
C96 C 0.8354 0.95964 0.72713 0.0
C97 C 0.82648 0.93923 0.70972 0.0
C98 C 0.85226 0.92534 0.74117 0.0
C99 C 0.85844 0.86951 0.73804 0.0
C100 C 0.85165 0.84767 0.72057 0.0
C101 C 0.83539 0.88309 0.70636 0.0
C102 C 0.86433 0.78859 0.71754 0.0
C103 C 0.834 0.75659 0.70517 0.0
C104 C 0.84455 0.70007 0.70374 0.0
C105 C 0.88343 0.6756 0.71529 0.0
C106 C 0.91379 0.70652 0.72763 0.0
C107 C 0.90574 0.76308 0.72809 0.0
H108 H 0.76574 0.50879 -0.02868 0.0
H109 H 0.61268 0.48556 0.94382 0.0
H110 H 0.6159 0.53341 0.00043 0.0
H111 H 0.53366 0.56524 -0.00466 0.0
H112 H 0.38066 0.51031 -0.02669 0.0
H113 H 0.53121 0.45373 0.9498 0.0
C114 C 0.72091 0.50875 -0.02842 0.0
C115 C 0.69368 0.52329 -0.01263 0.0
C116 C 0.69192 0.49482 0.95606 0.0
C117 C 0.63393 0.49505 0.95626 0.0
C118 C 0.60446 0.50913 -0.02779 0.0
C119 C 0.6357 0.52329 -0.0122 0.0
C120 C 0.54196 0.50939 -0.02747 0.0
C121 C 0.51236 0.54003 -0.01438 0.0
C122 C 0.45431 0.53991 -0.01397 0.0
C123 C 0.4254 0.51002 -0.0269 0.0
C124 C 0.45287 0.47988 0.95988 0.0
C125 C 0.51095 0.47909 0.95973 0.0
H126 H 0.32806 0.47534 0.47499 0.0
H127 H 0.16277 0.45398 0.49395 0.0
H128 H 0.19471 0.55902 0.44818 0.0
H129 H 0.1121 0.51648 0.43963 0.0
H130 H 0.95206 0.52955 0.46375 0.0
H131 H 0.09661 0.52362 0.49752 0.0
C132 C 0.28428 0.4838 0.47357 0.0
C133 C 0.26563 0.51913 0.45991 0.0
C134 C 0.24741 0.4607 0.48589 0.0
C135 C 0.19113 0.47301 0.48457 0.0
C136 C 0.17149 0.50828 0.47087 0.0
C137 C 0.20923 0.53163 0.45871 0.0
C138 C 0.11146 0.51875 0.46888 0.0
C139 C 0.08703 0.52084 0.45165 0.0
C140 C 0.02972 0.52553 0.44981 0.0
C141 C 0.99653 0.52786 0.46528 0.0
C142 C 0.02021 0.52659 0.4826 0.0
C143 C 0.07785 0.52334 0.48423 0.0
C144 C 0.179 0.68905 0.126 0.0
C145 C 1.00022 0.59759 0.11839 0.0
C146 C 0.98969 0.67184 0.06502 0.0
Mg147 Mg 0.22984 0.80198 0.11262 0.0
Mg148 Mg 0.16049 0.90186 0.09324 0.0
O149 O 0.17376 0.82715 0.09447 0.0
Mg150 Mg 0.11521 0.77242 0.09924 0.0
O151 O 0.06352 0.71207 0.10439 0.0
Mg152 Mg 0.10144 0.64911 0.09231 0.0
Mg153 Mg 0.98745 0.71512 0.10372 0.0
C154 C 0.06085 0.85957 0.06947 0.0
O155 O 0.06176 0.83023 0.11712 0.0
O156 O 0.29049 0.8625 0.0987 0.0
O157 O 0.97591 0.79553 0.1145 0.0
O158 O 0.20503 0.87057 0.13373 0.0
O159 O 0.24026 0.92676 0.08432 0.0
O160 O 0.14865 0.92977 0.11981 0.0
O161 O 0.16317 0.71349 0.08046 0.0
O162 O 0.24685 0.73653 0.09133 0.0
C163 C 0.21615 0.70785 0.08085 0.0
C164 C 0.28672 0.90501 0.08851 0.0
O165 O 0.06471 0.81016 0.07546 0.0
O166 O 0.04295 0.59134 0.10835 0.0
O167 O 0.09121 0.89863 0.07527 0.0
O168 O 0.03716 0.64987 0.06812 0.0
O169 O 0.97351 0.64281 0.11929 0.0
O170 O 0.96539 0.70168 0.07661 0.0
O171 O 0.16648 0.73967 0.1234 0.0
O172 O 0.15913 0.65091 0.1162 0.0
C173 C 0.17397 0.91339 0.13391 0.0
C174 C 1.00919 0.83322 0.11946 0.0
C175 C 0.70798 0.81151 0.36531 0.0
C176 C 0.77381 0.61499 0.35337 0.0
C177 C 0.65734 0.61673 0.3091 0.0
Mg178 Mg 0.59382 0.87513 0.35684 0.0
Mg179 Mg 0.47677 0.81515 0.34637 0.0
O180 O 0.55239 0.81709 0.34336 0.0
Mg181 Mg 0.6031 0.75388 0.34655 0.0
O182 O 0.66096 0.69669 0.34953 0.0
Mg183 Mg 0.71666 0.72353 0.33164 0.0
Mg184 Mg 0.64725 0.62231 0.35011 0.0
C185 C 0.49185 0.70223 0.32628 0.0
O186 O 0.5543 0.7133 0.36993 0.0
O187 O 0.53354 0.9388 0.34382 0.0
O188 O 0.57944 0.62423 0.36868 0.0
O189 O 0.53552 0.86847 0.38239 0.0
O190 O 0.45939 0.89229 0.33405 0.0
O191 O 0.4627 0.81803 0.37436 0.0
O192 O 0.65315 0.78979 0.32271 0.0
O193 O 0.64721 0.8773 0.33184 0.0
C194 C 0.66543 0.84076 0.321 0.0
C195 C 0.48759 0.9363 0.33516 0.0
O196 O 0.54478 0.70179 0.32824 0.0
O197 O 0.77754 0.6588 0.34381 0.0
O198 O 0.4609 0.73986 0.3328 0.0
O199 O 0.68868 0.65907 0.30953 0.0
O200 O 0.72732 0.59444 0.35785 0.0
O201 O 0.634 0.59855 0.32325 0.0
O202 O 0.65509 0.80653 0.36583 0.0
O203 O 0.73769 0.78443 0.35407 0.0
C204 C 0.49011 0.84406 0.38615 0.0
C205 C 0.55011 0.66324 0.37518 0.0
C206 C 0.69663 0.19289 0.61783 0.0
C207 C 0.52212 0.08188 0.62057 0.0
C208 C 0.48104 0.15638 0.56838 0.0
Mg209 Mg 0.72236 0.31146 0.60102 0.0
Mg210 Mg 0.62767 0.40137 0.58852 0.0
O211 O 0.65301 0.32879 0.58743 0.0
Mg212 Mg 0.60802 0.26631 0.5961 0.0
O213 O 0.56856 0.20074 0.60478 0.0
Mg214 Mg 0.60521 0.14222 0.58995 0.0
Mg215 Mg 0.49243 0.19796 0.607 0.0
C216 C 0.52062 0.34274 0.573 0.0
O217 O 0.56029 0.31903 0.61694 0.0
O218 O 0.76133 0.38024 0.58402 0.0
O219 O 0.47776 0.27705 0.61857 0.0
O220 O 0.7055 0.37562 0.62338 0.0
O221 O 0.6951 0.43691 0.57353 0.0
O222 O 0.63541 0.43028 0.61565 0.0
O223 O 0.65105 0.21175 0.57472 0.0
O224 O 0.73452 0.24926 0.57884 0.0
C225 C 0.70303 0.21436 0.57114 0.0
C226 C 0.74581 0.42185 0.57463 0.0
O227 O 0.53926 0.29464 0.57666 0.0
O228 O 0.56129 0.07923 0.6089 0.0
O229 O 0.54583 0.3869 0.57743 0.0
O230 O 0.53047 0.13739 0.56953 0.0
O231 O 0.49148 0.12427 0.6225 0.0
O232 O 0.45962 0.18466 0.58095 0.0
O233 O 0.67702 0.24164 0.61599 0.0
O234 O 0.67508 0.15166 0.6099 0.0
C235 C 0.6729 0.41567 0.62678 0.0
C236 C 0.50944 0.31763 0.62187 0.0
C237 C 0.2102 0.31165 0.86689 0.0
C238 C 0.25941 0.10541 0.86432 0.0
C239 C 0.17157 0.10549 0.81393 0.0
Mg240 Mg 0.10598 0.37937 0.85062 0.0
Mg241 Mg 0.99308 0.32237 0.83419 0.0
O242 O 0.06921 0.32041 0.83627 0.0
Mg243 Mg 0.11218 0.25613 0.84442 0.0
O244 O 0.16099 0.19564 0.85253 0.0
Mg245 Mg 0.22661 0.21286 0.83717 0.0
Mg246 Mg 0.13784 0.1229 0.85329 0.0
C247 C 0.01156 0.20269 0.81974 0.0
O248 O 0.04809 0.22784 0.86534 0.0
O249 O 0.05806 0.44187 0.83236 0.0
O250 O 0.05837 0.1359 0.86596 0.0
O251 O 0.0333 0.38197 0.87211 0.0
O252 O 0.98922 0.39597 0.81873 0.0
O253 O 0.96276 0.33506 0.86039 0.0
O254 O 0.17618 0.28151 0.82292 0.0
O255 O 0.17242 0.37132 0.82943 0.0
C256 C 0.19335 0.33094 0.82078 0.0
C257 C 0.01863 0.4389 0.82076 0.0
O258 O 0.06256 0.20206 0.82458 0.0
O259 O 0.27199 0.14606 0.85407 0.0
O260 O 0.97909 0.243 0.82289 0.0
O261 O 0.20493 0.1459 0.81547 0.0
O262 O 0.20942 0.09005 0.8667 0.0
O263 O 0.13873 0.0923 0.82659 0.0
O264 O 0.15729 0.31093 0.86495 0.0
O265 O 0.24195 0.27826 0.85845 0.0
C266 C 0.98429 0.36217 0.8732 0.0
C267 C 0.03228 0.17989 0.87014 0.0
H268 H 0.20118 0.95742 0.43571 0.0
H269 H 0.46216 0.77246 0.41289 0.0
H270 H 0.25311 0.82907 0.47201 0.0
H271 H 0.44462 0.94004 0.39579 0.0
H272 H 0.38155 0.78373 0.43265 0.0
H273 H 0.28218 0.93911 0.41688 0.0
C274 C 0.2284 0.92374 0.43924 0.0
C275 C 0.22026 0.89413 0.45522 0.0
C276 C 0.39616 0.81835 0.42488 0.0
C277 C 0.31391 0.8745 0.4343 0.0
C278 C 0.44245 0.81212 0.41382 0.0
C279 C 0.46022 0.85558 0.40292 0.0
C280 C 0.36687 0.86801 0.42458 0.0
C281 C 0.43287 0.90596 0.40431 0.0
C282 C 0.27525 0.91418 0.42877 0.0
C283 C 0.25769 0.85206 0.45958 0.0
N284 N 0.38688 0.91055 0.41467 0.0
N285 N 0.30326 0.84364 0.44923 0.0
H286 H 0.40786 0.79462 0.67309 0.0
H287 H 0.50152 0.09292 0.6561 0.0
H288 H 0.45808 0.90134 0.71638 0.0
H289 H 0.52954 0.97054 0.61526 0.0
H290 H 0.48712 0.02095 0.67831 0.0
H291 H 0.45676 0.85316 0.65163 0.0
C292 C 0.43063 0.82937 0.67817 0.0
C293 C 0.42789 0.84391 0.6965 0.0
C294 C 0.49701 0.00957 0.66455 0.0
C295 C 0.48249 0.91145 0.67201 0.0
C296 C 0.50458 0.05065 0.65183 0.0
C297 C 0.51576 0.03743 0.63381 0.0
C298 C 0.49919 0.95467 0.65917 0.0
C299 C 0.52048 0.98215 0.62904 0.0
C300 C 0.45827 0.86289 0.66589 0.0
C301 C 0.45789 0.88952 0.7023 0.0
N302 N 0.51102 0.94249 0.64162 0.0
N303 N 0.48293 0.92235 0.69004 0.0
H304 H 0.55049 0.06181 0.92794 0.0
H305 H 0.25107 0.01673 0.88696 0.0
H306 H 0.44015 0.9353 0.94644 0.0
H307 H 0.36922 0.13138 0.86539 0.0
H308 H 0.32292 0.97928 0.90662 0.0
H309 H 0.48871 0.08005 0.9027 0.0
C310 C 0.51379 0.03705 0.92652 0.0
C311 C 0.50032 0.99723 0.93947 0.0
C312 C 0.33326 0.01222 0.89744 0.0
C313 C 0.42842 0.01907 0.91074 0.0
C314 C 0.29221 0.03371 0.88621 0.0
C315 C 0.30384 0.0779 0.87468 0.0
C316 C 0.3862 0.0353 0.89724 0.0
C317 C 0.35809 0.09775 0.87418 0.0
C318 C 0.47824 0.04783 0.91214 0.0
C319 C 0.45163 0.96718 0.93701 0.0
N320 N 0.39704 0.07673 0.88546 0.0
N321 N 0.4171 0.97917 0.92305 0.0
H322 H 0.23567 0.2073 0.18933 0.0
H323 H 0.21968 0.8973 0.16779 0.0
H324 H 0.23057 0.08952 0.23288 0.0
H325 H 0.12536 0.01402 0.1363 0.0
H326 H 0.22886 0.96635 0.19164 0.0
H327 H 0.19805 0.1378 0.16899 0.0
C328 C 0.22565 0.16734 0.19472 0.0
C329 C 0.23772 0.15392 0.21274 0.0
C330 C 0.20542 0.97624 0.17958 0.0
C331 C 0.19645 0.07401 0.18947 0.0
C332 C 0.20023 0.93691 0.16598 0.0
C333 C 0.17242 0.94993 0.14988 0.0
C334 C 0.18375 0.02907 0.17683 0.0
C335 C 0.14783 1.0021 0.14835 0.0
C336 C 0.20453 0.12759 0.18308 0.0
C337 C 0.22389 0.10118 0.21893 0.0
N338 N 0.15506 0.04005 0.16145 0.0
N339 N 0.20531 0.06276 0.20723 0.0
H340 H 0.19101 0.08986 0.50235 0.0
H341 H 0.48753 0.06225 0.54863 0.0
H342 H 0.26614 0.93642 0.51776 0.0
H343 H 0.38689 0.20643 0.55622 0.0
H344 H 0.41243 0.02124 0.53125 0.0
H345 H 0.2655 0.13831 0.51833 0.0
C346 C 0.22229 0.06648 0.5095 0.0
C347 C 0.22265 0.00917 0.50874 0.0
C348 C 0.40715 0.06218 0.53654 0.0
C349 C 0.30859 0.06379 0.52616 0.0
C350 C 0.45034 0.08592 0.5462 0.0
C351 C 0.44335 0.13766 0.55397 0.0
C352 C 0.35696 0.09064 0.53447 0.0
C353 C 0.39386 0.16626 0.55053 0.0
C354 C 0.2651 0.09402 0.51835 0.0
C355 C 0.26462 0.9807 0.51795 0.0
N356 N 0.35233 0.14224 0.54113 0.0
N357 N 0.30628 0.00824 0.52603 0.0
H358 H 0.26991 0.93154 0.71736 0.0
H359 H 0.12402 1.00499 0.81022 0.0
H360 H 0.25645 0.81484 0.76102 0.0
H361 H 0.22919 0.11917 0.78211 0.0
H362 H 0.14418 0.93638 0.78728 0.0
H363 H 0.22647 1.00079 0.73639 0.0
C364 C 0.25745 0.92023 0.7309 0.0
C365 C 0.26862 0.86761 0.73782 0.0
C366 C 0.16212 0.97673 0.78605 0.0
C367 C 0.21705 0.94642 0.75933 0.0
C368 C 0.15057 0.01617 0.79907 0.0
C369 C 0.17573 0.06793 0.79828 0.0
C370 C 0.19809 0.98933 0.7719 0.0
C371 C 0.2094 0.07975 0.78339 0.0
C372 C 0.23246 0.9598 0.74167 0.0
C373 C 0.24921 0.85487 0.75517 0.0
N374 N 0.21984 0.04059 0.7708 0.0
N375 N 0.22476 0.89424 0.76543 0.0
H376 H 0.57379 0.92468 0.01822 0.0
H377 H 0.38743 0.85438 0.08533 0.0
H378 H 0.44459 0.03434 0.00035 0.0
H379 H 0.29884 1.00096 0.06997 0.0
H380 H 0.45988 0.87809 0.06414 0.0
H381 H 0.52531 0.91227 0.04674 0.0
C382 C 0.53517 0.9462 0.02034 0.0
C383 C 0.51256 0.97967 0.00675 0.0
C384 C 0.42567 0.90616 0.06571 0.0
C385 C 0.45573 0.9644 0.03916 0.0
C386 C 0.38401 0.89245 0.07788 0.0
C387 C 0.33649 0.92521 0.07919 0.0
C388 C 0.41972 0.95314 0.05484 0.0
C389 C 0.33428 0.97396 0.06917 0.0
C390 C 0.50707 0.9386 0.03659 0.0
C391 C 0.46271 1.00688 0.01024 0.0
N392 N 0.37482 0.98594 0.05723 0.0
N393 N 0.43585 0.99832 0.02604 0.0
H394 H 0.41749 0.11508 0.23938 0.0
H395 H 0.50607 0.04674 0.34 0.0
H396 H 0.36323 0.22331 0.28182 0.0
H397 H 0.43443 0.93012 0.30318 0.0
H398 H 0.48403 0.12048 0.31813 0.0
H399 H 0.4605 0.05606 0.26215 0.0
C400 C 0.41564 0.12703 0.25345 0.0
C401 C 0.38547 0.17328 0.25878 0.0
C402 C 0.47335 0.07858 0.31502 0.0
C403 C 0.43511 0.10655 0.28471 0.0
C404 C 0.48555 0.03678 0.32742 0.0
C405 C 0.47132 0.98249 0.32346 0.0
C406 C 0.44891 0.06514 0.29843 0.0
C407 C 0.4453 0.97147 0.30694 0.0
C408 C 0.44017 0.09344 0.26638 0.0
C409 C 0.38574 0.18771 0.27716 0.0
N410 N 0.43549 0.01231 0.29497 0.0
N411 N 0.40943 0.15383 0.2896 0.0
H412 H 0.97167 0.07712 0.51274 0.0
H413 H 0.68375 0.10402 0.56512 0.0
H414 H 0.85199 0.94706 0.51198 0.0
H415 H 0.78756 0.2387 0.54925 0.0
H416 H 0.74614 0.04128 0.54869 0.0
H417 H 0.90896 0.13128 0.53129 0.0
C418 C 0.93275 0.05943 0.51686 0.0
C419 C 0.91683 0.00779 0.51068 0.0
C420 C 0.75469 0.0847 0.54874 0.0
C421 C 0.84392 0.07015 0.53146 0.0
C422 C 0.71879 0.12042 0.55788 0.0
C423 C 0.73073 0.17646 0.55858 0.0
C424 C 0.80259 0.10557 0.5405 0.0
C425 C 0.7771 0.19567 0.54921 0.0
C426 C 0.8965 0.09066 0.52721 0.0
C427 C 0.86546 0.98712 0.51629 0.0
N428 N 0.81144 0.16037 0.54075 0.0
N429 N 0.83049 0.01857 0.52624 0.0
H430 H 0.7065 0.01488 0.22217 0.0
H431 H 0.75527 0.90501 0.32271 0.0
H432 H 0.81385 0.09286 0.26071 0.0
H433 H 0.6445 0.82839 0.28501 0.0
H434 H 0.78582 0.96715 0.2989 0.0
H435 H 0.68716 0.9431 0.24429 0.0
C436 C 0.72539 0.0172 0.23542 0.0
C437 C 0.76169 0.05994 0.23967 0.0
C438 C 0.75572 0.93606 0.29566 0.0
C439 C 0.74063 0.97731 0.26494 0.0
C440 C 0.73901 0.90001 0.30916 0.0
C441 C 0.69773 0.86139 0.30571 0.0
C442 C 0.73034 0.934 0.27862 0.0
C443 C 0.67706 0.8571 0.2881 0.0
C444 C 0.71473 0.97598 0.24798 0.0
C445 C 0.7851 0.06104 0.25698 0.0
N446 N 0.69293 0.8937 0.27524 0.0
N447 N 0.77438 0.02013 0.26896 0.0
H448 H 0.85367 0.05459 0.00199 0.0
H449 H 0.96864 0.80183 0.05911 0.0
H450 H 0.78569 0.89304 -0.00475 0.0
H451 H 0.05779 0.951 0.04869 0.0
H452 H 0.89588 0.83332 0.03812 0.0
H453 H 0.92217 0.01724 0.02263 0.0
C454 C 0.85334 0.01109 0.00484 0.0
C455 C 0.81462 0.97669 -0.00333 0.0
C456 C 0.93172 0.85868 0.04041 0.0
C457 C 0.8929 0.93349 0.02045 0.0
C458 C 0.97319 0.84065 0.05226 0.0
C459 C 0.01904 0.87392 0.05573 0.0
C460 C 0.93639 0.91037 0.03223 0.0
C461 C 0.02291 0.92419 0.04665 0.0
C462 C 0.89243 0.98975 0.01664 0.0
C463 C 0.815 0.92087 0.00127 0.0
N464 N 0.98204 0.94091 0.03546 0.0
N465 N 0.8539 0.90078 0.01285 0.0
H466 H 0.95261 0.91291 0.75709 0.0
H467 H 0.90389 0.17237 0.82 0.0
H468 H 0.79616 0.99552 0.7631 0.0
H469 H 0.0639 0.12164 0.80067 0.0
H470 H 0.86298 0.09277 0.80564 0.0
H471 H 0.99209 0.97258 0.78025 0.0
C472 C 0.92618 0.94245 0.76375 0.0
C473 C 0.87131 0.94995 0.75818 0.0
C474 C 0.90715 0.09874 0.80469 0.0
C475 C 0.91608 0.01839 0.78424 0.0
C476 C 0.93053 0.14437 0.81274 0.0
C477 C 0.98746 0.15377 0.81137 0.0
C478 C 0.94085 0.06225 0.79514 0.0
C479 C 0.02005 0.11553 0.80217 0.0
C480 C 0.94882 0.97677 0.77677 0.0
C481 C 0.83879 0.98901 0.76699 0.0
N482 N 0.99619 0.07152 0.79423 0.0
N483 N 0.86189 0.02233 0.77947 0.0
H484 H 0.96614 0.96195 0.42926 0.0
H485 H 0.67502 0.83573 0.3998 0.0
H486 H 0.85297 0.88383 0.46609 0.0
H487 H 0.80909 0.85868 0.3623 0.0
H488 H 0.73363 0.87183 0.424 0.0
H489 H 0.90455 0.938 0.40412 0.0
C490 C 0.92875 0.93938 0.43206 0.0
C491 C 0.91457 0.92526 0.44984 0.0
C492 C 0.74992 0.8695 0.41041 0.0
C493 C 0.8434 0.89931 0.42131 0.0
C494 C 0.71629 0.84952 0.39658 0.0
C495 C 0.73748 0.8437 0.3791 0.0
C496 C 0.80478 0.88422 0.40663 0.0
C497 C 0.79142 0.8619 0.37568 0.0
C498 C 0.89338 0.92626 0.41775 0.0
C499 C 0.86514 0.89655 0.45265 0.0
N500 N 0.82338 0.88101 0.38934 0.0
N501 N 0.83127 0.8849 0.43859 0.0
H502 H 0.93052 0.11537 0.18509 0.0
H503 H 0.90402 0.86927 0.11525 0.0
H504 H 0.77825 0.03405 0.1719 0.0
H505 H 0.05722 0.90958 0.14179 0.0
H506 H 0.85972 0.94614 0.13011 0.0
H507 H 0.97907 0.05687 0.1633 0.0
C508 C 0.90721 0.08612 0.17723 0.0
C509 C 0.85055 0.07903 0.18021 0.0
C510 C 0.90316 0.93851 0.13259 0.0
C511 C 0.90533 0.01244 0.1556 0.0
C512 C 0.92852 0.89446 0.12419 0.0
C513 C 0.98434 0.88254 0.12752 0.0
C514 C 0.93364 0.97099 0.1445 0.0
C515 C 0.01422 0.91745 0.13887 0.0
C516 C 0.9349 0.05261 0.16497 0.0
C517 C 0.82205 0.04037 0.16996 0.0
N518 N 0.98829 0.95998 0.14715 0.0
N519 N 0.84985 0.00824 0.15816 0.0
H520 H 0.8272 0.14837 0.96124 0.0
H521 H 0.95376 0.10272 0.86591 0.0
H522 H 0.74805 0.04898 0.92085 0.0
H523 H 0.99469 0.2446 0.8976 0.0
H524 H 0.87316 0.0876 0.88494 0.0
H525 H 0.88267 0.19133 0.93758 0.0
C526 C 0.8207 0.13662 0.9473 0.0
C527 C 0.78382 0.09465 0.94293 0.0
C528 C 0.89917 0.12257 0.88761 0.0
C529 C 0.84752 0.14249 0.91597 0.0
C530 C 0.94537 0.13086 0.87686 0.0
C531 C 0.98107 0.17434 0.88048 0.0
C532 C 0.88947 0.1572 0.90237 0.0
C533 C 0.96817 0.2103 0.89456 0.0
C534 C 0.85221 0.16113 0.93382 0.0
C535 C 0.77633 0.08106 0.92473 0.0
N536 N 0.92385 0.20028 0.90528 0.0
N537 N 0.8089 0.10407 0.91192 0.0
H538 H 0.87185 0.94991 0.67587 0.0
H539 H 0.69276 0.21768 0.65357 0.0
H540 H 0.74933 0.02035 0.71115 0.0
H541 H 0.78889 0.1319 0.61372 0.0
H542 H 0.73264 0.15878 0.67706 0.0
H543 H 0.85528 0.0248 0.6543 0.0
C544 C 0.84096 0.98064 0.67894 0.0
C545 C 0.81182 0.97888 0.69527 0.0
C546 C 0.74626 0.15383 0.66324 0.0
C547 C 0.79409 0.06538 0.67109 0.0
C548 C 0.72442 0.18832 0.64991 0.0
C549 C 0.73752 0.17926 0.63177 0.0
C550 C 0.78116 0.11027 0.65824 0.0
C551 C 0.77785 0.13989 0.62764 0.0
C552 C 0.83214 0.02378 0.66679 0.0
C553 C 0.77297 0.02035 0.69875 0.0
N554 N 0.79744 0.10596 0.64073 0.0
N555 N 0.76538 0.06187 0.68681 0.0
H556 H 0.76608 0.55693 0.93796 0.0
H557 H 0.8979 0.30309 0.88581 0.0
H558 H 0.69645 0.39522 0.93959 0.0
H559 H 0.98253 0.45613 0.89344 0.0
H560 H 0.8225 0.33612 0.90458 0.0
H561 H 0.84088 0.52276 0.91889 0.0
C562 C 0.76571 0.51452 0.93376 0.0
C563 C 0.72496 0.47881 0.94018 0.0
C564 C 0.85782 0.36229 0.90239 0.0
C565 C 0.81135 0.43898 0.91896 0.0
C566 C 0.90133 0.34319 0.89187 0.0
C567 C 0.94687 0.37678 0.88817 0.0
C568 C 0.85921 0.41584 0.90905 0.0
C569 C 0.94857 0.42868 0.89612 0.0
C570 C 0.80888 0.49483 0.92317 0.0
C571 C 0.72669 0.4241 0.93467 0.0
N572 N 0.90492 0.44695 0.90601 0.0
N573 N 0.76958 0.40566 0.92449 0.0
H574 H 0.89026 0.30567 0.1721 0.0
H575 H 0.95153 0.6096 0.15104 0.0
H576 H 0.92448 0.4221 0.21434 0.0
H577 H 0.01794 0.48663 0.11532 0.0
H578 H 0.93332 0.53897 0.17343 0.0
H579 H 0.93455 0.36688 0.1503 0.0
C580 C 0.9086 0.34324 0.17691 0.0
C581 C 0.90258 0.35947 0.195 0.0
C582 C 0.95209 0.52742 0.16073 0.0
C583 C 0.95139 0.42984 0.17011 0.0
C584 C 0.96175 0.56756 0.14782 0.0
C585 C 0.98576 0.5538 0.13123 0.0
C586 C 0.96537 0.47283 0.15692 0.0
C587 C 0.9991 0.49875 0.12795 0.0
C588 C 0.93348 0.37824 0.16443 0.0
C589 C 0.92684 0.40875 0.20043 0.0
N590 N 0.98801 0.45989 0.14064 0.0
N591 N 0.94899 0.44284 0.18795 0.0
H592 H 0.94779 0.46023 0.4372 0.0
H593 H 0.87657 0.66101 0.3567 0.0
H594 H 0.05308 0.59387 0.42163 0.0
H595 H 0.78529 0.51422 0.36887 0.0
H596 H 0.95084 0.62885 0.37652 0.0
H597 H 0.89671 0.47093 0.40896 0.0
C598 C 0.96036 0.4915 0.42767 0.0
C599 C 1.00386 0.52687 0.43177 0.0
C600 C 0.91504 0.60318 0.37455 0.0
C601 C 0.94546 0.53996 0.39956 0.0
C602 C 0.87269 0.62143 0.36318 0.0
C603 C 0.82405 0.59088 0.3615 0.0
C604 C 0.90837 0.55428 0.38432 0.0
C605 C 0.82147 0.53976 0.37011 0.0
C606 C 0.93144 0.49752 0.41153 0.0
C607 C 0.01938 0.56613 0.41893 0.0
N608 N 0.86256 0.52354 0.38139 0.0
N609 N 0.98948 0.57236 0.4035 0.0
H610 H 0.88908 0.6244 0.68143 0.0
H611 H 0.61696 0.50791 0.63808 0.0
H612 H 0.73229 0.69302 0.69733 0.0
H613 H 0.7616 0.40972 0.64955 0.0
H614 H 0.65476 0.58065 0.6572 0.0
H615 H 0.84097 0.55273 0.66508 0.0
C616 C 0.84435 0.62466 0.68129 0.0
C617 C 0.8146 0.66422 0.69095 0.0
C618 C 0.67751 0.54271 0.65572 0.0
C619 C 0.75914 0.58196 0.67227 0.0
C620 C 0.65597 0.50102 0.64491 0.0
C621 C 0.68662 0.45285 0.6419 0.0
C622 C 0.73027 0.5363 0.66328 0.0
C623 C 0.7367 0.44622 0.65122 0.0
C624 C 0.81694 0.58348 0.6721 0.0
C625 C 0.75668 0.66322 0.69004 0.0
N626 N 0.7574 0.48787 0.66117 0.0
N627 N 0.7306 0.62239 0.68089 0.0
H628 H 0.77076 0.46402 0.00566 0.0
H629 H 0.91046 0.73067 0.04748 0.0
H630 H 0.69931 0.62526 0.00186 0.0
H631 H 0.98683 0.57111 0.04897 0.0
H632 H 0.83452 0.69342 0.02992 0.0
H633 H 0.84811 0.50157 0.02286 0.0
C634 C 0.77055 0.50711 0.00905 0.0
C635 C 0.72845 0.54162 0.00257 0.0
C636 C 0.86822 0.6666 0.03381 0.0
C637 C 0.81782 0.5853 0.02149 0.0
C638 C 0.91217 0.68809 0.0436 0.0
C639 C 0.95528 0.65404 0.04965 0.0
C640 C 0.86687 0.61037 0.03018 0.0
C641 C 0.9548 0.59896 0.04442 0.0
C642 C 0.81515 0.5287 0.01855 0.0
C643 C 0.73053 0.59727 0.0069 0.0
N644 N 0.91079 0.57862 0.0352 0.0
N645 N 0.77485 0.61753 0.01595 0.0
H646 H 0.73206 0.32231 0.25861 0.0
H647 H 0.59325 0.5263 0.30417 0.0
H648 H 0.73578 0.4358 0.21382 0.0
H649 H 0.71573 0.62486 0.27715 0.0
H650 H 0.60615 0.4553 0.28159 0.0
H651 H 0.6847 0.39195 0.27665 0.0
C652 C 0.72168 0.36121 0.25241 0.0
C653 C 0.73919 0.37361 0.23483 0.0
C654 C 0.62953 0.49282 0.2805 0.0
C655 C 0.68617 0.45359 0.25544 0.0
C656 C 0.62204 0.53378 0.29328 0.0
C657 C 0.6545 0.58144 0.29285 0.0
C658 C 0.66931 0.49962 0.26704 0.0
C659 C 0.69038 0.58865 0.27819 0.0
C660 C 0.69481 0.40101 0.26272 0.0
C661 C 0.72479 0.42507 0.22755 0.0
N662 N 0.69732 0.54775 0.26594 0.0
N663 N 0.70063 0.46374 0.23804 0.0
H664 H 0.03705 0.4655 0.51316 0.0
H665 H 0.7306 0.50061 0.54841 0.0
H666 H 0.92167 0.57982 0.48911 0.0
H667 H 0.85752 0.40878 0.57638 0.0
H668 H 0.80115 0.53779 0.52825 0.0
H669 H 0.974 0.45239 0.53815 0.0
C670 C 0.99892 0.48877 0.51327 0.0
C671 C 0.98461 0.52357 0.49887 0.0
C672 C 0.81353 0.51007 0.53897 0.0
C673 C 0.911 0.50722 0.52735 0.0
C674 C 0.77329 0.48882 0.55048 0.0
C675 C 0.788 0.45068 0.56388 0.0
C676 C 0.86862 0.49281 0.54088 0.0
C677 C 0.84401 0.43724 0.56603 0.0
C678 C 0.9626 0.48089 0.52754 0.0
C679 C 0.93393 0.55165 0.49971 0.0
N680 N 0.88209 0.45777 0.55452 0.0
N681 N 0.89858 0.5423 0.51359 0.0
H682 H 0.92196 0.72896 0.76384 0.0
H683 H 0.99213 0.42762 0.78558 0.0
H684 H 0.98336 0.61894 0.72294 0.0
H685 H 0.03145 0.55004 0.8254 0.0
H686 H 0.98279 0.49911 0.76285 0.0
H687 H 0.96024 0.66842 0.78714 0.0
C688 C 0.94486 0.69298 0.75971 0.0
C689 C 0.94836 0.67829 0.7414 0.0
C690 C 0.99382 0.51043 0.77652 0.0
C691 C 0.99061 0.6086 0.76797 0.0
C692 C 0.99838 0.46976 0.78956 0.0
C693 C 0.01176 0.48317 0.80742 0.0
C694 C 1.00134 0.5652 0.78141 0.0
C695 C 0.02064 0.53828 0.81176 0.0
C696 C 0.96641 0.65838 0.77304 0.0
C697 C 0.97823 0.63099 0.7369 0.0
N698 N 0.01429 0.5777 0.79885 0.0
N699 N 0.99708 0.59716 0.75011 0.0
H700 H 0.36332 0.60501 -0.01863 0.0
H701 H 0.31136 0.65175 0.0865 0.0
H702 H 0.47099 0.53981 0.02271 0.0
H703 H 0.1886 0.68551 0.04565 0.0
H704 H 0.37068 0.61095 0.06355 0.0
H705 H 0.30135 0.63909 0.00477 0.0
C706 C 0.37414 0.59829 -0.00458 0.0
C707 C 0.42221 0.56913 0.00011 0.0
C708 C 0.33052 0.62655 0.0596 0.0
C709 C 0.35116 0.60789 0.02699 0.0
C710 C 0.29647 0.64954 0.0727 0.0
C711 C 0.24508 0.67211 0.06792 0.0
C712 C 0.31346 0.62681 0.04149 0.0
C713 C 0.22776 0.66822 0.0499 0.0
C714 C 0.33854 0.61747 0.00875 0.0
C715 C 0.43459 0.56235 0.0185 0.0
N716 N 0.26228 0.64671 0.03726 0.0
N717 N 0.39912 0.58137 0.03129 0.0
H718 H 0.21414 0.50969 0.72465 0.0
H719 H 0.28681 0.39047 0.82204 0.0
H720 H 0.33829 0.57939 0.75934 0.0
H721 H 0.1739 0.31337 0.78517 0.0
H722 H 0.31519 0.45294 0.79801 0.0
H723 H 0.20214 0.43497 0.74622 0.0
C724 C 0.23828 0.5096 0.73699 0.0
C725 C 0.2771 0.55087 0.74028 0.0
C726 C 0.28538 0.42141 0.79497 0.0
C727 C 0.26449 0.46475 0.76488 0.0
C728 C 0.27006 0.385 0.80858 0.0
C729 C 0.22823 0.34666 0.80549 0.0
C730 C 0.25796 0.41986 0.77826 0.0
C731 C 0.2068 0.34195 0.78799 0.0
C732 C 0.23191 0.4666 0.74919 0.0
C733 C 0.30739 0.5488 0.75643 0.0
N734 N 0.22096 0.37907 0.77511 0.0
N735 N 0.30058 0.50629 0.76812 0.0
H736 H 0.31069 0.36887 0.48305 0.0
H737 H 0.4438 0.42297 0.57676 0.0
H738 H 0.23575 0.47635 0.52206 0.0
H739 H 0.47769 0.27465 0.54732 0.0
H740 H 0.36192 0.43802 0.55815 0.0
H741 H 0.3654 0.3267 0.50722 0.0
C742 C 0.30484 0.38248 0.49683 0.0
C743 C 0.26939 0.42637 0.50065 0.0
C744 C 0.38664 0.40167 0.55592 0.0
C745 C 0.33248 0.37965 0.52818 0.0
C746 C 0.43363 0.39336 0.56643 0.0
C747 C 0.46794 0.34815 0.56326 0.0
C748 C 0.37468 0.36521 0.54185 0.0
C749 C 0.45245 0.31035 0.55001 0.0
C750 C 0.33597 0.35849 0.5106 0.0
C751 C 0.2629 0.44266 0.51864 0.0
N752 N 0.40746 0.32034 0.53948 0.0
N753 N 0.2952 0.42011 0.53172 0.0
H754 H 0.24567 0.50508 0.27514 0.0
H755 H 0.5331 0.60097 0.31715 0.0
H756 H 0.39567 0.41073 0.27041 0.0
H757 H 0.38477 0.69894 0.3152 0.0
H758 H 0.48219 0.52481 0.30372 0.0
H759 H 0.29336 0.56851 0.29515 0.0
C760 C 0.28834 0.4971 0.27873 0.0
C761 C 0.31705 0.45317 0.27106 0.0
C762 C 0.46094 0.56305 0.30629 0.0
C763 C 0.37239 0.52614 0.29338 0.0
C764 C 0.49022 0.60666 0.31373 0.0
C765 C 0.46363 0.65658 0.31712 0.0
C766 C 0.40458 0.56959 0.30231 0.0
C767 C 0.40731 0.66133 0.31283 0.0
C768 C 0.31574 0.53347 0.28999 0.0
C769 C 0.3722 0.44425 0.27611 0.0
N770 N 0.37982 0.61849 0.30565 0.0
N771 N 0.39852 0.4811 0.28674 0.0
H772 H 0.36175 0.4162 0.96515 0.0
H773 H 0.30196 0.37053 0.86039 0.0
H774 H 0.46618 0.48043 0.92308 0.0
H775 H 0.18315 0.33498 0.90199 0.0
H776 H 0.36191 0.4125 0.88293 0.0
H777 H 0.29752 0.38344 0.94219 0.0
C778 C 0.37138 0.42299 0.95104 0.0
C779 C 0.41926 0.45143 0.94601 0.0
C780 C 0.32239 0.39644 0.88714 0.0
C781 C 0.34558 0.41424 0.91964 0.0
C782 C 0.28795 0.37294 0.87427 0.0
C783 C 0.23758 0.34954 0.8794 0.0
C784 C 0.30681 0.39567 0.90537 0.0
C785 C 0.22142 0.35317 0.8975 0.0
C786 C 0.33448 0.40459 0.93795 0.0
C787 C 0.43001 0.45839 0.92755 0.0
N788 N 0.2564 0.37507 0.90993 0.0
N789 N 0.39332 0.44012 0.91502 0.0
H790 H 0.2746 0.52882 0.67185 0.0
H791 H 0.55992 0.4019 0.64009 0.0
H792 H 0.43085 0.60618 0.68235 0.0
H793 H 0.40071 0.34432 0.62235 0.0
H794 H 0.51464 0.48189 0.65351 0.0
H795 H 0.32022 0.46696 0.65073 0.0
C796 C 0.31834 0.53353 0.66929 0.0
C797 C 0.3492 0.57217 0.6788 0.0
C798 C 0.4898 0.45194 0.64651 0.0
C799 C 0.40212 0.5007 0.65526 0.0
C800 C 0.51567 0.40638 0.63886 0.0
C801 C 0.48409 0.36624 0.63024 0.0
C802 C 0.43201 0.45698 0.64555 0.0
C803 C 0.42669 0.37366 0.62919 0.0
C804 C 0.34452 0.49812 0.65735 0.0
C805 C 0.40576 0.57684 0.67516 0.0
N806 N 0.40256 0.41787 0.63684 0.0
N807 N 0.43075 0.54068 0.6639 0.0
H808 H 0.35067 0.4659 0.44358 0.0
H809 H 0.45221 0.7148 0.38315 0.0
H810 H 0.27123 0.6241 0.44645 0.0
H811 H 0.55377 0.57621 0.39787 0.0
H812 H 0.38101 0.68237 0.40417 0.0
H813 H 0.42022 0.50443 0.42376 0.0
C814 C 0.34803 0.50891 0.4401 0.0
C815 C 0.30558 0.54204 0.44688 0.0
C816 C 0.41918 0.65952 0.40286 0.0
C817 C 0.38483 0.58636 0.42396 0.0
C818 C 0.45988 0.67822 0.39103 0.0
C819 C 0.50892 0.64831 0.38887 0.0
C820 C 0.42766 0.61023 0.41227 0.0
C821 C 0.5164 0.60039 0.39903 0.0
C822 C 0.38771 0.53088 0.42875 0.0
C823 C 0.30326 0.59713 0.44146 0.0
N824 N 0.47608 0.58271 0.41019 0.0
N825 N 0.34257 0.61775 0.43029 0.0
H826 H 0.31302 0.43337 0.19047 0.0
H827 H 0.15701 0.70982 0.16135 0.0
H828 H 0.18947 0.51428 0.22276 0.0
H829 H 0.26687 0.62096 0.12631 0.0
H830 H 0.18121 0.64713 0.18606 0.0
H831 H 0.3038 0.5061 0.16773 0.0
C832 C 0.28312 0.4658 0.19257 0.0
C833 C 0.25178 0.46776 0.20844 0.0
C834 C 0.20115 0.64215 0.17309 0.0
C835 C 0.2424 0.55197 0.18292 0.0
C836 C 0.18827 0.67874 0.15913 0.0
C837 C 0.2102 0.67045 0.14188 0.0
C838 C 0.236 0.59715 0.16963 0.0
C839 C 0.24936 0.62864 0.13952 0.0
C840 C 0.27851 0.50778 0.17976 0.0
C841 C 0.21446 0.51135 0.21069 0.0
N842 N 0.26034 0.59292 0.15314 0.0
N843 N 0.211 0.5518 0.19813 0.0
loop_
_geom_bond_atom_site_label_1
_geom_bond_atom_site_label_2
_geom_bond_distance
_geom_bond_site_symmetry_2
_ccdc_geom_bond_type
H0 C6 0.930 . S
H1 C9 0.931 . S
H2 C11 0.931 . S
H3 C13 0.930 . S
H4 C15 0.930 . S
H5 C17 0.931 . S
C6 H0 0.930 . S
C6 C7 1.380 1_545 S
C6 C8 1.394 . S
C7 C6 1.380 1_565 S
C7 C11 1.382 . S
C8 C6 1.394 . S
C8 C9 1.400 . S
C9 H1 0.931 . S
C9 C8 1.400 . S
C9 C10 1.375 1_545 S
C10 C9 1.375 1_565 S
C10 C11 1.415 . S
C10 C12 1.501 1_655 S
C11 H2 0.931 . S
C11 C7 1.382 . S
C11 C10 1.415 . S
C12 C10 1.501 1_455 S
C12 C13 1.384 . S
C12 C17 1.408 1_565 S
C13 H3 0.930 . S
C13 C12 1.384 . S
C13 C14 1.389 . S
C14 C13 1.389 . S
C14 C15 1.405 . S
C15 H4 0.930 . S
C15 C14 1.405 . S
C15 C16 1.364 1_565 S
C16 C15 1.364 1_545 S
C16 C17 1.400 . S
C17 H5 0.931 . S
C17 C12 1.408 1_545 S
C17 C16 1.400 . S
H18 C24 0.930 . S
H19 C27 0.931 . S
H20 C29 0.931 . S
H21 C31 0.930 . S
H22 C33 0.930 . S
H23 C35 0.931 . S
C24 H18 0.930 . S
C24 C25 1.380 . S
C24 C26 1.394 . S
C25 C24 1.380 . S
C25 C29 1.382 . S
C26 C24 1.394 . S
C26 C27 1.400 . S
C27 H19 0.931 . S
C27 C26 1.400 . S
C27 C28 1.375 . S
C28 C27 1.375 . S
C28 C29 1.415 . S
C28 C30 1.501 . S
C29 H20 0.931 . S
C29 C25 1.382 . S
C29 C28 1.415 . S
C30 C28 1.501 . S
C30 C31 1.384 . S
C30 C35 1.408 . S
C31 H21 0.930 . S
C31 C30 1.384 . S
C31 C32 1.389 . S
C32 C31 1.389 . S
C32 C33 1.405 . S
C33 H22 0.930 . S
C33 C32 1.405 . S
C33 C34 1.364 . S
C34 C33 1.364 . S
C34 C35 1.400 . S
C35 H23 0.931 . S
C35 C30 1.408 . S
C35 C34 1.400 . S
H36 C42 0.930 . S
H37 C45 0.931 . S
H38 C47 0.931 . S
H39 C49 0.930 . S
H40 C51 0.930 . S
H41 C53 0.931 . S
C42 H36 0.930 . S
C42 C43 1.380 1_564 S
C42 C44 1.394 . S
C43 C42 1.380 1_546 S
C43 C47 1.382 . S
C44 C42 1.394 . S
C44 C45 1.400 . S
C45 H37 0.931 . S
C45 C44 1.400 . S
C45 C46 1.375 1_565 S
C46 C45 1.375 1_545 S
C46 C47 1.415 1_554 S
C46 C48 1.501 . S
C47 H38 0.931 . S
C47 C43 1.382 . S
C47 C46 1.415 1_556 S
C48 C46 1.501 . S
C48 C49 1.384 1_554 S
C48 C53 1.408 1_545 S
C49 H39 0.930 . S
C49 C48 1.384 1_556 S
C49 C50 1.389 . S
C50 C49 1.389 . S
C50 C51 1.405 1_556 S
C51 H40 0.930 . S
C51 C50 1.405 1_554 S
C51 C52 1.364 1_545 S
C52 C51 1.364 1_565 S
C52 C53 1.400 . S
C53 H41 0.931 . S
C53 C48 1.408 1_565 S
C53 C52 1.400 . S
H54 C60 0.930 . S
H55 C63 0.931 . S
H56 C65 0.931 . S
H57 C67 0.930 . S
H58 C69 0.930 . S
H59 C71 0.931 . S
C60 H54 0.930 . S
C60 C61 1.380 . S
C60 C62 1.394 . S
C61 C60 1.380 . S
C61 C65 1.382 . S
C62 C60 1.394 . S
C62 C63 1.400 . S
C63 H55 0.931 . S
C63 C62 1.400 . S
C63 C64 1.375 . S
C64 C63 1.375 . S
C64 C65 1.415 . S
C64 C66 1.501 . S
C65 H56 0.931 . S
C65 C61 1.382 . S
C65 C64 1.415 . S
C66 C64 1.501 . S
C66 C67 1.384 . S
C66 C71 1.408 . S
C67 H57 0.930 . S
C67 C66 1.384 . S
C67 C68 1.389 . S
C68 C67 1.389 . S
C68 C69 1.405 . S
C69 H58 0.930 . S
C69 C68 1.405 . S
C69 C70 1.364 . S
C70 C69 1.364 . S
C70 C71 1.400 . S
C71 H59 0.931 . S
C71 C66 1.408 . S
C71 C70 1.400 . S
H72 C78 0.930 . S
H73 C81 0.931 . S
H74 C83 0.931 . S
H75 C85 0.930 . S
H76 C87 0.930 . S
H77 C89 0.931 . S
C78 H72 0.930 . S
C78 C79 1.380 . S
C78 C80 1.394 . S
C79 C78 1.380 . S
C79 C83 1.382 . S
C80 C78 1.394 . S
C80 C81 1.400 . S
C81 H73 0.931 . S
C81 C80 1.400 . S
C81 C82 1.375 . S
C82 C81 1.375 . S
C82 C83 1.415 . S
C82 C84 1.501 . S
C83 H74 0.931 . S
C83 C79 1.382 . S
C83 C82 1.415 . S
C84 C82 1.501 . S
C84 C85 1.384 . S
C84 C89 1.408 . S
C85 H75 0.930 . S
C85 C84 1.384 . S
C85 C86 1.389 . S
C86 C85 1.389 . S
C86 C87 1.405 . S
C87 H76 0.930 . S
C87 C86 1.405 . S
C87 C88 1.364 . S
C88 C87 1.364 . S
C88 C89 1.400 . S
C89 H77 0.931 . S
C89 C84 1.408 . S
C89 C88 1.400 . S
H90 C96 0.930 . S
H91 C99 0.931 . S
H92 C101 0.931 . S
H93 C103 0.930 . S
H94 C105 0.930 . S
H95 C107 0.931 . S
C96 H90 0.930 . S
C96 C97 1.380 . S
C96 C98 1.394 . S
C97 C96 1.380 . S
C97 C101 1.382 . S
C98 C96 1.394 . S
C98 C99 1.400 . S
C99 H91 0.931 . S
C99 C98 1.400 . S
C99 C100 1.375 . S
C100 C99 1.375 . S
C100 C101 1.415 . S
C100 C102 1.501 . S
C101 H92 0.931 . S
C101 C97 1.382 . S
C101 C100 1.415 . S
C102 C100 1.501 . S
C102 C103 1.384 . S
C102 C107 1.408 . S
C103 H93 0.930 . S
C103 C102 1.384 . S
C103 C104 1.389 . S
C104 C103 1.389 . S
C104 C105 1.405 . S
C105 H94 0.930 . S
C105 C104 1.405 . S
C105 C106 1.364 . S
C106 C105 1.364 . S
C106 C107 1.400 . S
C107 H95 0.931 . S
C107 C102 1.408 . S
C107 C106 1.400 . S
H108 C114 0.930 . S
H109 C117 0.931 . S
H110 C119 0.931 . S
H111 C121 0.930 . S
H112 C123 0.930 . S
H113 C125 0.931 . S
C114 H108 0.930 . S
C114 C115 1.380 . S
C114 C116 1.394 1_554 S
C115 C114 1.380 . S
C115 C119 1.382 . S
C116 C114 1.394 1_556 S
C116 C117 1.400 . S
C117 H109 0.931 . S
C117 C116 1.400 . S
C117 C118 1.375 1_556 S
C118 C117 1.375 1_554 S
C118 C119 1.415 . S
C118 C120 1.501 . S
C119 H110 0.931 . S
C119 C115 1.382 . S
C119 C118 1.415 . S
C120 C118 1.501 . S
C120 C121 1.384 . S
C120 C125 1.408 1_554 S
C121 H111 0.930 . S
C121 C120 1.384 . S
C121 C122 1.389 . S
C122 C121 1.389 . S
C122 C123 1.405 . S
C123 H112 0.930 . S
C123 C122 1.405 . S
C123 C124 1.364 1_554 S
C124 C123 1.364 1_556 S
C124 C125 1.400 . S
C125 H113 0.931 . S
C125 C120 1.408 1_556 S
C125 C124 1.400 . S
H126 C132 0.930 . S
H127 C135 0.931 . S
H128 C137 0.931 . S
H129 C139 0.930 . S
H130 C141 0.930 1_655 S
H131 C143 0.931 . S
C132 H126 0.930 . S
C132 C133 1.380 . S
C132 C134 1.394 . S
C133 C132 1.380 . S
C133 C137 1.382 . S
C134 C132 1.394 . S
C134 C135 1.400 . S
C135 H127 0.931 . S
C135 C134 1.400 . S
C135 C136 1.375 . S
C136 C135 1.375 . S
C136 C137 1.415 . S
C136 C138 1.501 . S
C137 H128 0.931 . S
C137 C133 1.382 . S
C137 C136 1.415 . S
C138 C136 1.501 . S
C138 C139 1.384 . S
C138 C143 1.408 . S
C139 H129 0.930 . S
C139 C138 1.384 . S
C139 C140 1.389 . S
C140 C139 1.389 . S
C140 C141 1.405 . S
C141 H130 0.930 1_455 S
C141 C140 1.405 . S
C141 C142 1.364 . S
C142 C141 1.364 . S
C142 C143 1.400 . S
C143 H131 0.931 . S
C143 C138 1.408 . S
C143 C142 1.400 . S
C144 O171 1.312 . S
C144 O172 1.208 . S
C145 O166 1.331 1_655 S
C145 O169 1.244 . S
C146 O168 1.264 1_655 S
C146 O170 1.273 . S
Mg147 O149 1.936 . S
Mg147 O156 2.081 . S
Mg147 O158 2.023 . S
Mg147 O162 2.031 . S
Mg147 O171 2.291 . S
Mg148 O149 1.963 . S
Mg148 O159 1.942 . S
Mg148 O160 1.955 . S
Mg148 O167 1.986 . S
O149 Mg147 1.936 . S
O149 Mg148 1.963 . S
O149 Mg150 1.915 . S
Mg150 O149 1.915 . S
Mg150 O151 1.915 . S
Mg150 O155 2.013 . S
Mg150 O161 2.114 . S
Mg150 O165 2.013 . S
Mg150 O171 2.114 . S
O151 Mg150 1.915 . S
O151 Mg152 1.936 . S
O151 Mg153 1.963 1_455 S
Mg152 O151 1.936 . S
Mg152 O161 2.291 . S
Mg152 O166 2.081 . S
Mg152 O168 2.023 . S
Mg152 O172 2.031 . S
Mg153 O151 1.963 1_655 S
Mg153 O157 1.986 . S
Mg153 O169 1.942 . S
Mg153 O170 1.955 . S
C154 O165 1.191 . S
C154 O167 1.307 . S
O155 Mg150 2.013 . S
O155 C174 1.191 . S
O156 Mg147 2.081 . S
O156 C164 1.331 . S
O157 Mg153 1.986 . S
O157 C174 1.307 1_655 S
O158 Mg147 2.023 . S
O158 C173 1.264 . S
O159 Mg148 1.942 . S
O159 C164 1.244 . S
O160 Mg148 1.955 . S
O160 C173 1.273 . S
O161 Mg150 2.114 . S
O161 Mg152 2.291 . S
O161 C163 1.312 . S
O162 Mg147 2.031 . S
O162 C163 1.208 . S
C163 O161 1.312 . S
C163 O162 1.208 . S
C164 O156 1.331 . S
C164 O159 1.244 . S
O165 Mg150 2.013 . S
O165 C154 1.191 . S
O166 C145 1.331 1_455 S
O166 Mg152 2.081 . S
O167 Mg148 1.986 . S
O167 C154 1.307 . S
O168 C146 1.264 1_455 S
O168 Mg152 2.023 . S
O169 C145 1.244 . S
O169 Mg153 1.942 . S
O170 C146 1.273 . S
O170 Mg153 1.955 . S
O171 C144 1.312 . S
O171 Mg147 2.291 . S
O171 Mg150 2.114 . S
O172 C144 1.208 . S
O172 Mg152 2.031 . S
C173 O158 1.264 . S
C173 O160 1.273 . S
C174 O155 1.191 . S
C174 O157 1.307 1_455 S
C175 O202 1.312 . S
C175 O203 1.208 . S
C176 O197 1.331 . S
C176 O200 1.244 . S
C177 O199 1.264 . S
C177 O201 1.273 . S
Mg178 O180 1.936 . S
Mg178 O187 2.081 . S
Mg178 O189 2.023 . S
Mg178 O193 2.031 . S
Mg178 O202 2.291 . S
Mg179 O180 1.963 . S
Mg179 O190 1.942 . S
Mg179 O191 1.955 . S
Mg179 O198 1.986 . S
O180 Mg178 1.936 . S
O180 Mg179 1.963 . S
O180 Mg181 1.915 . S
Mg181 O180 1.915 . S
Mg181 O182 1.915 . S
Mg181 O186 2.013 . S
Mg181 O192 2.114 . S
Mg181 O196 2.013 . S
Mg181 O202 2.114 . S
O182 Mg181 1.915 . S
O182 Mg183 1.936 . S
O182 Mg184 1.963 . S
Mg183 O182 1.936 . S
Mg183 O192 2.291 . S
Mg183 O197 2.081 . S
Mg183 O199 2.023 . S
Mg183 O203 2.031 . S
Mg184 O182 1.963 . S
Mg184 O188 1.986 . S
Mg184 O200 1.942 . S
Mg184 O201 1.955 . S
C185 O196 1.191 . S
C185 O198 1.307 . S
O186 Mg181 2.013 . S
O186 C205 1.191 . S
O187 Mg178 2.081 . S
O187 C195 1.331 . S
O188 Mg184 1.986 . S
O188 C205 1.307 . S
O189 Mg178 2.023 . S
O189 C204 1.264 . S
O190 Mg179 1.942 . S
O190 C195 1.244 . S
O191 Mg179 1.955 . S
O191 C204 1.273 . S
O192 Mg181 2.114 . S
O192 Mg183 2.291 . S
O192 C194 1.312 . S
O193 Mg178 2.031 . S
O193 C194 1.208 . S
C194 O192 1.312 . S
C194 O193 1.208 . S
C195 O187 1.331 . S
C195 O190 1.244 . S
O196 Mg181 2.013 . S
O196 C185 1.191 . S
O197 C176 1.331 . S
O197 Mg183 2.081 . S
O198 Mg179 1.986 . S
O198 C185 1.307 . S
O199 C177 1.264 . S
O199 Mg183 2.023 . S
O200 C176 1.244 . S
O200 Mg184 1.942 . S
O201 C177 1.273 . S
O201 Mg184 1.955 . S
O202 C175 1.312 . S
O202 Mg178 2.291 . S
O202 Mg181 2.114 . S
O203 C175 1.208 . S
O203 Mg183 2.031 . S
C204 O189 1.264 . S
C204 O191 1.273 . S
C205 O186 1.191 . S
C205 O188 1.307 . S
C206 O233 1.312 . S
C206 O234 1.208 . S
C207 O228 1.331 . S
C207 O231 1.244 . S
C208 O230 1.264 . S
C208 O232 1.273 . S
Mg209 O211 1.936 . S
Mg209 O218 2.081 . S
Mg209 O220 2.023 . S
Mg209 O224 2.031 . S
Mg209 O233 2.291 . S
Mg210 O211 1.963 . S
Mg210 O221 1.942 . S
Mg210 O222 1.955 . S
Mg210 O229 1.986 . S
O211 Mg209 1.936 . S
O211 Mg210 1.963 . S
O211 Mg212 1.915 . S
Mg212 O211 1.915 . S
Mg212 O213 1.915 . S
Mg212 O217 2.013 . S
Mg212 O223 2.114 . S
Mg212 O227 2.013 . S
Mg212 O233 2.114 . S
O213 Mg212 1.915 . S
O213 Mg214 1.936 . S
O213 Mg215 1.963 . S
Mg214 O213 1.936 . S
Mg214 O223 2.291 . S
Mg214 O228 2.081 . S
Mg214 O230 2.023 . S
Mg214 O234 2.031 . S
Mg215 O213 1.963 . S
Mg215 O219 1.986 . S
Mg215 O231 1.942 . S
Mg215 O232 1.955 . S
C216 O227 1.191 . S
C216 O229 1.307 . S
O217 Mg212 2.013 . S
O217 C236 1.191 . S
O218 Mg209 2.081 . S
O218 C226 1.331 . S
O219 Mg215 1.986 . S
O219 C236 1.307 . S
O220 Mg209 2.023 . S
O220 C235 1.264 . S
O221 Mg210 1.942 . S
O221 C226 1.244 . S
O222 Mg210 1.955 . S
O222 C235 1.273 . S
O223 Mg212 2.114 . S
O223 Mg214 2.291 . S
O223 C225 1.312 . S
O224 Mg209 2.031 . S
O224 C225 1.208 . S
C225 O223 1.312 . S
C225 O224 1.208 . S
C226 O218 1.331 . S
C226 O221 1.244 . S
O227 Mg212 2.013 . S
O227 C216 1.191 . S
O228 C207 1.331 . S
O228 Mg214 2.081 . S
O229 Mg210 1.986 . S
O229 C216 1.307 . S
O230 C208 1.264 . S
O230 Mg214 2.023 . S
O231 C207 1.244 . S
O231 Mg215 1.942 . S
O232 C208 1.273 . S
O232 Mg215 1.955 . S
O233 C206 1.312 . S
O233 Mg209 2.291 . S
O233 Mg212 2.114 . S
O234 C206 1.208 . S
O234 Mg214 2.031 . S
C235 O220 1.264 . S
C235 O222 1.273 . S
C236 O217 1.191 . S
C236 O219 1.307 . S
C237 O264 1.312 . S
C237 O265 1.208 . S
C238 O259 1.331 . S
C238 O262 1.244 . S
C239 O261 1.264 . S
C239 O263 1.273 . S
Mg240 O242 1.936 . S
Mg240 O249 2.081 . S
Mg240 O251 2.023 . S
Mg240 O255 2.031 . S
Mg240 O264 2.291 . S
Mg241 O242 1.963 1_655 S
Mg241 O252 1.942 . S
Mg241 O253 1.955 . S
Mg241 O260 1.986 . S
O242 Mg240 1.936 . S
O242 Mg241 1.963 1_455 S
O242 Mg243 1.915 . S
Mg243 O242 1.915 . S
Mg243 O244 1.915 . S
Mg243 O248 2.013 . S
Mg243 O254 2.114 . S
Mg243 O258 2.013 . S
Mg243 O264 2.114 . S
O244 Mg243 1.915 . S
O244 Mg245 1.936 . S
O244 Mg246 1.963 . S
Mg245 O244 1.936 . S
Mg245 O254 2.291 . S
Mg245 O259 2.081 . S
Mg245 O261 2.023 . S
Mg245 O265 2.031 . S
Mg246 O244 1.963 . S
Mg246 O250 1.986 . S
Mg246 O262 1.942 . S
Mg246 O263 1.955 . S
C247 O258 1.191 . S
C247 O260 1.307 1_455 S
O248 Mg243 2.013 . S
O248 C267 1.191 . S
O249 Mg240 2.081 . S
O249 C257 1.331 1_455 S
O250 Mg246 1.986 . S
O250 C267 1.307 . S
O251 Mg240 2.023 . S
O251 C266 1.264 1_455 S
O252 Mg241 1.942 . S
O252 C257 1.244 . S
O253 Mg241 1.955 . S
O253 C266 1.273 . S
O254 Mg243 2.114 . S
O254 Mg245 2.291 . S
O254 C256 1.312 . S
O255 Mg240 2.031 . S
O255 C256 1.208 . S
C256 O254 1.312 . S
C256 O255 1.208 . S
C257 O249 1.331 1_655 S
C257 O252 1.244 . S
O258 Mg243 2.013 . S
O258 C247 1.191 . S
O259 C238 1.331 . S
O259 Mg245 2.081 . S
O260 Mg241 1.986 . S
O260 C247 1.307 1_655 S
O261 C239 1.264 . S
O261 Mg245 2.023 . S
O262 C238 1.244 . S
O262 Mg246 1.942 . S
O263 C239 1.273 . S
O263 Mg246 1.955 . S
O264 C237 1.312 . S
O264 Mg240 2.291 . S
O264 Mg243 2.114 . S
O265 C237 1.208 . S
O265 Mg245 2.031 . S
C266 O251 1.264 1_655 S
C266 O253 1.273 . S
C267 O248 1.191 . S
C267 O250 1.307 . S
H268 C274 0.930 1_545 S
H269 C278 0.930 . S
H270 C283 0.929 . S
H271 C281 0.929 . S
H272 C276 0.929 . S
H273 C282 0.929 . S
C274 H268 0.930 1_565 S
C274 C275 1.367 . S
C274 C282 1.378 . S
C275 C274 1.367 . S
C275 C283 1.433 . S
C276 H272 0.929 . S
C276 C278 1.378 . S
C276 C280 1.350 . S
C277 C280 1.463 . S
C277 C282 1.350 . S
C277 N285 1.427 . S
C278 H269 0.930 . S
C278 C276 1.378 . S
C278 C279 1.367 . S
C279 C278 1.367 . S
C279 C281 1.433 . S
C280 C276 1.350 . S
C280 C277 1.463 . S
C280 N284 1.427 . S
C281 H271 0.929 . S
C281 C279 1.433 . S
C281 N284 1.384 . S
C282 H273 0.929 . S
C282 C274 1.378 . S
C282 C277 1.350 . S
C283 H270 0.929 . S
C283 C275 1.433 . S
C283 N285 1.384 . S
N284 C280 1.427 . S
N284 C281 1.384 . S
N285 C277 1.427 . S
N285 C283 1.384 . S
H286 C292 0.930 . S
H287 C296 0.930 . S
H288 C301 0.929 . S
H289 C299 0.929 . S
H290 C294 0.929 . S
H291 C300 0.929 . S
C292 H286 0.930 . S
C292 C293 1.367 . S
C292 C300 1.378 . S
C293 C292 1.367 . S
C293 C301 1.433 . S
C294 H290 0.929 . S
C294 C296 1.378 . S
C294 C298 1.350 1_545 S
C295 C298 1.463 . S
C295 C300 1.350 . S
C295 N303 1.427 . S
C296 H287 0.930 . S
C296 C294 1.378 . S
C296 C297 1.367 . S
C297 C296 1.367 . S
C297 C299 1.433 . S
C298 C294 1.350 1_565 S
C298 C295 1.463 . S
C298 N302 1.427 . S
C299 H289 0.929 . S
C299 C297 1.433 . S
C299 N302 1.384 1_545 S
C300 H291 0.929 . S
C300 C292 1.378 . S
C300 C295 1.350 . S
C301 H288 0.929 . S
C301 C293 1.433 . S
C301 N303 1.384 . S
N302 C298 1.427 . S
N302 C299 1.384 1_565 S
N303 C295 1.427 . S
N303 C301 1.384 . S
H304 C310 0.930 . S
H305 C314 0.930 . S
H306 C319 0.929 1_565 S
H307 C317 0.929 . S
H308 C312 0.929 . S
H309 C318 0.929 . S
C310 H304 0.930 . S
C310 C311 1.367 . S
C310 C318 1.378 . S
C311 C310 1.367 . S
C311 C319 1.433 . S
C312 H308 0.929 . S
C312 C314 1.378 . S
C312 C316 1.350 . S
C313 C316 1.463 . S
C313 C318 1.350 . S
C313 N321 1.427 . S
C314 H305 0.930 . S
C314 C312 1.378 . S
C314 C315 1.367 . S
C315 C314 1.367 . S
C315 C317 1.433 . S
C316 C312 1.350 . S
C316 C313 1.463 . S
C316 N320 1.427 . S
C317 H307 0.929 . S
C317 C315 1.433 . S
C317 N320 1.384 . S
C318 H309 0.929 . S
C318 C310 1.378 . S
C318 C313 1.350 . S
C319 H306 0.929 1_545 S
C319 C311 1.433 . S
C319 N321 1.384 . S
N320 C316 1.427 . S
N320 C317 1.384 . S
N321 C313 1.427 . S
N321 C319 1.384 . S
H322 C328 0.930 . S
H323 C332 0.930 . S
H324 C337 0.929 . S
H325 C335 0.929 . S
H326 C330 0.929 . S
H327 C336 0.929 . S
C328 H322 0.930 . S
C328 C329 1.367 . S
C328 C336 1.378 . S
C329 C328 1.367 . S
C329 C337 1.433 . S
C330 H326 0.929 . S
C330 C332 1.378 . S
C330 C334 1.350 1_565 S
C331 C334 1.463 . S
C331 C336 1.350 . S
C331 N339 1.427 . S
C332 H323 0.930 . S
C332 C330 1.378 . S
C332 C333 1.367 . S
C333 C332 1.367 . S
C333 C335 1.433 . S
C334 C330 1.350 1_545 S
C334 C331 1.463 . S
C334 N338 1.427 . S
C335 H325 0.929 . S
C335 C333 1.433 . S
C335 N338 1.384 1_565 S
C336 H327 0.929 . S
C336 C328 1.378 . S
C336 C331 1.350 . S
C337 H324 0.929 . S
C337 C329 1.433 . S
C337 N339 1.384 . S
N338 C334 1.427 . S
N338 C335 1.384 1_545 S
N339 C331 1.427 . S
N339 C337 1.384 . S
H340 C346 0.930 . S
H341 C350 0.930 . S
H342 C355 0.929 . S
H343 C353 0.929 . S
H344 C348 0.929 . S
H345 C354 0.929 . S
C346 H340 0.930 . S
C346 C347 1.367 . S
C346 C354 1.378 . S
C347 C346 1.367 . S
C347 C355 1.433 . S
C348 H344 0.929 . S
C348 C350 1.378 . S
C348 C352 1.350 . S
C349 C352 1.463 . S
C349 C354 1.350 . S
C349 N357 1.427 . S
C350 H341 0.930 . S
C350 C348 1.378 . S
C350 C351 1.367 . S
C351 C350 1.367 . S
C351 C353 1.433 . S
C352 C348 1.350 . S
C352 C349 1.463 . S
C352 N356 1.427 . S
C353 H343 0.929 . S
C353 C351 1.433 . S
C353 N356 1.384 . S
C354 H345 0.929 . S
C354 C346 1.378 . S
C354 C349 1.350 . S
C355 H342 0.929 . S
C355 C347 1.433 . S
C355 N357 1.384 . S
N356 C352 1.427 . S
N356 C353 1.384 . S
N357 C349 1.427 . S
N357 C355 1.384 . S
H358 C364 0.930 . S
H359 C368 0.930 . S
H360 C373 0.929 . S
H361 C371 0.929 . S
H362 C366 0.929 . S
H363 C372 0.929 . S
C364 H358 0.930 . S
C364 C365 1.367 . S
C364 C372 1.378 . S
C365 C364 1.367 . S
C365 C373 1.433 . S
C366 H362 0.929 . S
C366 C368 1.378 1_565 S
C366 C370 1.350 . S
C367 C370 1.463 . S
C367 C372 1.350 . S
C367 N375 1.427 . S
C368 H359 0.930 . S
C368 C366 1.378 1_545 S
C368 C369 1.367 . S
C369 C368 1.367 . S
C369 C371 1.433 . S
C370 C366 1.350 . S
C370 C367 1.463 . S
C370 N374 1.427 1_565 S
C371 H361 0.929 . S
C371 C369 1.433 . S
C371 N374 1.384 . S
C372 H363 0.929 . S
C372 C364 1.378 . S
C372 C367 1.350 . S
C373 H360 0.929 . S
C373 C365 1.433 . S
C373 N375 1.384 . S
N374 C370 1.427 1_545 S
N374 C371 1.384 . S
N375 C367 1.427 . S
N375 C373 1.384 . S
H376 C382 0.930 . S
H377 C386 0.930 . S
H378 C391 0.929 . S
H379 C389 0.929 . S
H380 C384 0.929 . S
H381 C390 0.929 . S
C382 H376 0.930 . S
C382 C383 1.367 . S
C382 C390 1.378 . S
C383 C382 1.367 . S
C383 C391 1.433 . S
C384 H380 0.929 . S
C384 C386 1.378 . S
C384 C388 1.350 . S
C385 C388 1.463 . S
C385 C390 1.350 . S
C385 N393 1.427 . S
C386 H377 0.930 . S
C386 C384 1.378 . S
C386 C387 1.367 . S
C387 C386 1.367 . S
C387 C389 1.433 . S
C388 C384 1.350 . S
C388 C385 1.463 . S
C388 N392 1.427 . S
C389 H379 0.929 . S
C389 C387 1.433 . S
C389 N392 1.384 . S
C390 H381 0.929 . S
C390 C382 1.378 . S
C390 C385 1.350 . S
C391 H378 0.929 . S
C391 C383 1.433 . S
C391 N393 1.384 . S
N392 C388 1.427 . S
N392 C389 1.384 . S
N393 C385 1.427 . S
N393 C391 1.384 . S
H394 C400 0.930 . S
H395 C404 0.930 . S
H396 C409 0.929 . S
H397 C407 0.929 . S
H398 C402 0.929 . S
H399 C408 0.929 . S
C400 H394 0.930 . S
C400 C401 1.367 . S
C400 C408 1.378 . S
C401 C400 1.367 . S
C401 C409 1.433 . S
C402 H398 0.929 . S
C402 C404 1.378 1_545 S
C402 C406 1.350 . S
C403 C406 1.463 . S
C403 C408 1.350 . S
C403 N411 1.427 . S
C404 H395 0.930 . S
C404 C402 1.378 1_565 S
C404 C405 1.367 . S
C405 C404 1.367 . S
C405 C407 1.433 . S
C406 C402 1.350 . S
C406 C403 1.463 . S
C406 N410 1.427 1_545 S
C407 H397 0.929 . S
C407 C405 1.433 . S
C407 N410 1.384 . S
C408 H399 0.929 . S
C408 C400 1.378 . S
C408 C403 1.350 . S
C409 H396 0.929 . S
C409 C401 1.433 . S
C409 N411 1.384 . S
N410 C406 1.427 1_565 S
N410 C407 1.384 . S
N411 C403 1.427 . S
N411 C409 1.384 . S
H412 C418 0.930 . S
H413 C422 0.930 . S
H414 C427 0.929 1_565 S
H415 C425 0.929 . S
H416 C420 0.929 . S
H417 C426 0.929 . S
C418 H412 0.930 . S
C418 C419 1.367 . S
C418 C426 1.378 . S
C419 C418 1.367 . S
C419 C427 1.433 . S
C420 H416 0.929 . S
C420 C422 1.378 . S
C420 C424 1.350 . S
C421 C424 1.463 . S
C421 C426 1.350 . S
C421 N429 1.427 . S
C422 H413 0.930 . S
C422 C420 1.378 . S
C422 C423 1.367 . S
C423 C422 1.367 . S
C423 C425 1.433 . S
C424 C420 1.350 . S
C424 C421 1.463 . S
C424 N428 1.427 . S
C425 H415 0.929 . S
C425 C423 1.433 . S
C425 N428 1.384 . S
C426 H417 0.929 . S
C426 C418 1.378 . S
C426 C421 1.350 . S
C427 H414 0.929 1_545 S
C427 C419 1.433 . S
C427 N429 1.384 . S
N428 C424 1.427 . S
N428 C425 1.384 . S
N429 C421 1.427 . S
N429 C427 1.384 . S
H430 C436 0.930 . S
H431 C440 0.930 . S
H432 C445 0.929 . S
H433 C443 0.929 . S
H434 C438 0.929 . S
H435 C444 0.929 . S
C436 H430 0.930 . S
C436 C437 1.367 . S
C436 C444 1.378 1_545 S
C437 C436 1.367 . S
C437 C445 1.433 . S
C438 H434 0.929 . S
C438 C440 1.378 . S
C438 C442 1.350 . S
C439 C442 1.463 . S
C439 C444 1.350 . S
C439 N447 1.427 . S
C440 H431 0.930 . S
C440 C438 1.378 . S
C440 C441 1.367 . S
C441 C440 1.367 . S
C441 C443 1.433 . S
C442 C438 1.350 . S
C442 C439 1.463 . S
C442 N446 1.427 . S
C443 H433 0.929 . S
C443 C441 1.433 . S
C443 N446 1.384 . S
C444 H435 0.929 . S
C444 C436 1.378 1_565 S
C444 C439 1.350 . S
C445 H432 0.929 . S
C445 C437 1.433 . S
C445 N447 1.384 1_545 S
N446 C442 1.427 . S
N446 C443 1.384 . S
N447 C439 1.427 . S
N447 C445 1.384 1_565 S
H448 C454 0.930 . S
H449 C458 0.930 . S
H450 C463 0.929 . S
H451 C461 0.929 . S
H452 C456 0.929 . S
H453 C462 0.929 . S
C454 H448 0.930 . S
C454 C455 1.367 . S
C454 C462 1.378 . S
C455 C454 1.367 . S
C455 C463 1.433 . S
C456 H452 0.929 . S
C456 C458 1.378 . S
C456 C460 1.350 . S
C457 C460 1.463 . S
C457 C462 1.350 . S
C457 N465 1.427 . S
C458 H449 0.930 . S
C458 C456 1.378 . S
C458 C459 1.367 1_655 S
C459 C458 1.367 1_455 S
C459 C461 1.433 . S
C460 C456 1.350 . S
C460 C457 1.463 . S
C460 N464 1.427 . S
C461 H451 0.929 . S
C461 C459 1.433 . S
C461 N464 1.384 1_455 S
C462 H453 0.929 . S
C462 C454 1.378 . S
C462 C457 1.350 . S
C463 H450 0.929 . S
C463 C455 1.433 . S
C463 N465 1.384 . S
N464 C460 1.427 . S
N464 C461 1.384 1_655 S
N465 C457 1.427 . S
N465 C463 1.384 . S
H466 C472 0.930 . S
H467 C476 0.930 . S
H468 C481 0.929 . S
H469 C479 0.929 . S
H470 C474 0.929 . S
H471 C480 0.929 . S
C472 H466 0.930 . S
C472 C473 1.367 . S
C472 C480 1.378 . S
C473 C472 1.367 . S
C473 C481 1.433 1_565 S
C474 H470 0.929 . S
C474 C476 1.378 . S
C474 C478 1.350 . S
C475 C478 1.463 . S
C475 C480 1.350 1_545 S
C475 N483 1.427 . S
C476 H467 0.930 . S
C476 C474 1.378 . S
C476 C477 1.367 1_655 S
C477 C476 1.367 1_455 S
C477 C479 1.433 . S
C478 C474 1.350 . S
C478 C475 1.463 . S
C478 N482 1.427 . S
C479 H469 0.929 . S
C479 C477 1.433 . S
C479 N482 1.384 1_455 S
C480 H471 0.929 . S
C480 C472 1.378 . S
C480 C475 1.350 1_565 S
C481 H468 0.929 . S
C481 C473 1.433 1_545 S
C481 N483 1.384 . S
N482 C478 1.427 . S
N482 C479 1.384 1_655 S
N483 C475 1.427 . S
N483 C481 1.384 . S
H484 C490 0.930 . S
H485 C494 0.930 . S
H486 C499 0.929 . S
H487 C497 0.929 . S
H488 C492 0.929 . S
H489 C498 0.929 . S
C490 H484 0.930 . S
C490 C491 1.367 . S
C490 C498 1.378 . S
C491 C490 1.367 . S
C491 C499 1.433 . S
C492 H488 0.929 . S
C492 C494 1.378 . S
C492 C496 1.350 . S
C493 C496 1.463 . S
C493 C498 1.350 . S
C493 N501 1.427 . S
C494 H485 0.930 . S
C494 C492 1.378 . S
C494 C495 1.367 . S
C495 C494 1.367 . S
C495 C497 1.433 . S
C496 C492 1.350 . S
C496 C493 1.463 . S
C496 N500 1.427 . S
C497 H487 0.929 . S
C497 C495 1.433 . S
C497 N500 1.384 . S
C498 H489 0.929 . S
C498 C490 1.378 . S
C498 C493 1.350 . S
C499 H486 0.929 . S
C499 C491 1.433 . S
C499 N501 1.384 . S
N500 C496 1.427 . S
N500 C497 1.384 . S
N501 C493 1.427 . S
N501 C499 1.384 . S
H502 C508 0.930 . S
H503 C512 0.930 . S
H504 C517 0.929 . S
H505 C515 0.929 . S
H506 C510 0.929 . S
H507 C516 0.929 . S
C508 H502 0.930 . S
C508 C509 1.367 . S
C508 C516 1.378 . S
C509 C508 1.367 . S
C509 C517 1.433 1_545 S
C510 H506 0.929 . S
C510 C512 1.378 . S
C510 C514 1.350 . S
C511 C514 1.463 . S
C511 C516 1.350 1_565 S
C511 N519 1.427 . S
C512 H503 0.930 . S
C512 C510 1.378 . S
C512 C513 1.367 1_655 S
C513 C512 1.367 1_455 S
C513 C515 1.433 . S
C514 C510 1.350 . S
C514 C511 1.463 . S
C514 N518 1.427 1_655 S
C515 H505 0.929 . S
C515 C513 1.433 . S
C515 N518 1.384 . S
C516 H507 0.929 . S
C516 C508 1.378 . S
C516 C511 1.350 1_545 S
C517 H504 0.929 . S
C517 C509 1.433 1_565 S
C517 N519 1.384 . S
N518 C514 1.427 1_455 S
N518 C515 1.384 . S
N519 C511 1.427 . S
N519 C517 1.384 . S
H520 C526 0.930 . S
H521 C530 0.930 . S
H522 C535 0.929 . S
H523 C533 0.929 . S
H524 C528 0.929 . S
H525 C534 0.929 . S
C526 H520 0.930 . S
C526 C527 1.367 . S
C526 C534 1.378 . S
C527 C526 1.367 . S
C527 C535 1.433 . S
C528 H524 0.929 . S
C528 C530 1.378 . S
C528 C532 1.350 . S
C529 C532 1.463 . S
C529 C534 1.350 . S
C529 N537 1.427 . S
C530 H521 0.930 . S
C530 C528 1.378 . S
C530 C531 1.367 1_655 S
C531 C530 1.367 1_455 S
C531 C533 1.433 . S
C532 C528 1.350 . S
C532 C529 1.463 . S
C532 N536 1.427 . S
C533 H523 0.929 . S
C533 C531 1.433 . S
C533 N536 1.384 1_455 S
C534 H525 0.929 . S
C534 C526 1.378 . S
C534 C529 1.350 . S
C535 H522 0.929 . S
C535 C527 1.433 . S
C535 N537 1.384 . S
N536 C532 1.427 . S
N536 C533 1.384 1_655 S
N537 C529 1.427 . S
N537 C535 1.384 . S
H538 C544 0.930 . S
H539 C548 0.930 . S
H540 C553 0.929 . S
H541 C551 0.929 . S
H542 C546 0.929 . S
H543 C552 0.929 . S
C544 H538 0.930 . S
C544 C545 1.367 . S
C544 C552 1.378 . S
C545 C544 1.367 . S
C545 C553 1.433 1_565 S
C546 H542 0.929 . S
C546 C548 1.378 . S
C546 C550 1.350 . S
C547 C550 1.463 . S
C547 C552 1.350 1_545 S
C547 N555 1.427 . S
C548 H539 0.930 . S
C548 C546 1.378 . S
C548 C549 1.367 . S
C549 C548 1.367 . S
C549 C551 1.433 . S
C550 C546 1.350 . S
C550 C547 1.463 . S
C550 N554 1.427 . S
C551 H541 0.929 . S
C551 C549 1.433 . S
C551 N554 1.384 . S
C552 H543 0.929 . S
C552 C544 1.378 . S
C552 C547 1.350 1_565 S
C553 H540 0.929 . S
C553 C545 1.433 1_545 S
C553 N555 1.384 . S
N554 C550 1.427 . S
N554 C551 1.384 . S
N555 C547 1.427 . S
N555 C553 1.384 . S
H556 C562 0.930 . S
H557 C566 0.930 . S
H558 C571 0.929 . S
H559 C569 0.929 . S
H560 C564 0.929 . S
H561 C570 0.929 . S
C562 H556 0.930 . S
C562 C563 1.367 . S
C562 C570 1.378 . S
C563 C562 1.367 . S
C563 C571 1.433 . S
C564 H560 0.929 . S
C564 C566 1.378 . S
C564 C568 1.350 . S
C565 C568 1.463 . S
C565 C570 1.350 . S
C565 N573 1.427 . S
C566 H557 0.930 . S
C566 C564 1.378 . S
C566 C567 1.367 . S
C567 C566 1.367 . S
C567 C569 1.433 . S
C568 C564 1.350 . S
C568 C565 1.463 . S
C568 N572 1.427 . S
C569 H559 0.929 . S
C569 C567 1.433 . S
C569 N572 1.384 . S
C570 H561 0.929 . S
C570 C562 1.378 . S
C570 C565 1.350 . S
C571 H558 0.929 . S
C571 C563 1.433 . S
C571 N573 1.384 . S
N572 C568 1.427 . S
N572 C569 1.384 . S
N573 C565 1.427 . S
N573 C571 1.384 . S
H574 C580 0.930 . S
H575 C584 0.930 . S
H576 C589 0.929 . S
H577 C587 0.929 . S
H578 C582 0.929 . S
H579 C588 0.929 . S
C580 H574 0.930 . S
C580 C581 1.367 . S
C580 C588 1.378 . S
C581 C580 1.367 . S
C581 C589 1.433 . S
C582 H578 0.929 . S
C582 C584 1.378 . S
C582 C586 1.350 . S
C583 C586 1.463 . S
C583 C588 1.350 . S
C583 N591 1.427 . S
C584 H575 0.930 . S
C584 C582 1.378 . S
C584 C585 1.367 . S
C585 C584 1.367 . S
C585 C587 1.433 . S
C586 C582 1.350 . S
C586 C583 1.463 . S
C586 N590 1.427 . S
C587 H577 0.929 . S
C587 C585 1.433 . S
C587 N590 1.384 . S
C588 H579 0.929 . S
C588 C580 1.378 . S
C588 C583 1.350 . S
C589 H576 0.929 . S
C589 C581 1.433 . S
C589 N591 1.384 . S
N590 C586 1.427 . S
N590 C587 1.384 . S
N591 C583 1.427 . S
N591 C589 1.384 . S
H592 C598 0.930 . S
H593 C602 0.930 . S
H594 C607 0.929 . S
H595 C605 0.929 . S
H596 C600 0.929 . S
H597 C606 0.929 . S
C598 H592 0.930 . S
C598 C599 1.367 . S
C598 C606 1.378 . S
C599 C598 1.367 . S
C599 C607 1.433 . S
C600 H596 0.929 . S
C600 C602 1.378 . S
C600 C604 1.350 . S
C601 C604 1.463 . S
C601 C606 1.350 . S
C601 N609 1.427 . S
C602 H593 0.930 . S
C602 C600 1.378 . S
C602 C603 1.367 . S
C603 C602 1.367 . S
C603 C605 1.433 . S
C604 C600 1.350 . S
C604 C601 1.463 . S
C604 N608 1.427 . S
C605 H595 0.929 . S
C605 C603 1.433 . S
C605 N608 1.384 . S
C606 H597 0.929 . S
C606 C598 1.378 . S
C606 C601 1.350 . S
C607 H594 0.929 . S
C607 C599 1.433 . S
C607 N609 1.384 . S
N608 C604 1.427 . S
N608 C605 1.384 . S
N609 C601 1.427 . S
N609 C607 1.384 . S
H610 C616 0.930 . S
H611 C620 0.930 . S
H612 C625 0.929 . S
H613 C623 0.929 . S
H614 C618 0.929 . S
H615 C624 0.929 . S
C616 H610 0.930 . S
C616 C617 1.367 . S
C616 C624 1.378 . S
C617 C616 1.367 . S
C617 C625 1.433 . S
C618 H614 0.929 . S
C618 C620 1.378 . S
C618 C622 1.350 . S
C619 C622 1.463 . S
C619 C624 1.350 . S
C619 N627 1.427 . S
C620 H611 0.930 . S
C620 C618 1.378 . S
C620 C621 1.367 . S
C621 C620 1.367 . S
C621 C623 1.433 . S
C622 C618 1.350 . S
C622 C619 1.463 . S
C622 N626 1.427 . S
C623 H613 0.929 . S
C623 C621 1.433 . S
C623 N626 1.384 . S
C624 H615 0.929 . S
C624 C616 1.378 . S
C624 C619 1.350 . S
C625 H612 0.929 . S
C625 C617 1.433 . S
C625 N627 1.384 . S
N626 C622 1.427 . S
N626 C623 1.384 . S
N627 C619 1.427 . S
N627 C625 1.384 . S
H628 C634 0.930 . S
H629 C638 0.930 . S
H630 C643 0.929 . S
H631 C641 0.929 . S
H632 C636 0.929 . S
H633 C642 0.929 . S
C634 H628 0.930 . S
C634 C635 1.367 . S
C634 C642 1.378 . S
C635 C634 1.367 . S
C635 C643 1.433 . S
C636 H632 0.929 . S
C636 C638 1.378 . S
C636 C640 1.350 . S
C637 C640 1.463 . S
C637 C642 1.350 . S
C637 N645 1.427 . S
C638 H629 0.930 . S
C638 C636 1.378 . S
C638 C639 1.367 . S
C639 C638 1.367 . S
C639 C641 1.433 . S
C640 C636 1.350 . S
C640 C637 1.463 . S
C640 N644 1.427 . S
C641 H631 0.929 . S
C641 C639 1.433 . S
C641 N644 1.384 . S
C642 H633 0.929 . S
C642 C634 1.378 . S
C642 C637 1.350 . S
C643 H630 0.929 . S
C643 C635 1.433 . S
C643 N645 1.384 . S
N644 C640 1.427 . S
N644 C641 1.384 . S
N645 C637 1.427 . S
N645 C643 1.384 . S
H646 C652 0.930 . S
H647 C656 0.930 . S
H648 C661 0.929 . S
H649 C659 0.929 . S
H650 C654 0.929 . S
H651 C660 0.929 . S
C652 H646 0.930 . S
C652 C653 1.367 . S
C652 C660 1.378 . S
C653 C652 1.367 . S
C653 C661 1.433 . S
C654 H650 0.929 . S
C654 C656 1.378 . S
C654 C658 1.350 . S
C655 C658 1.463 . S
C655 C660 1.350 . S
C655 N663 1.427 . S
C656 H647 0.930 . S
C656 C654 1.378 . S
C656 C657 1.367 . S
C657 C656 1.367 . S
C657 C659 1.433 . S
C658 C654 1.350 . S
C658 C655 1.463 . S
C658 N662 1.427 . S
C659 H649 0.929 . S
C659 C657 1.433 . S
C659 N662 1.384 . S
C660 H651 0.929 . S
C660 C652 1.378 . S
C660 C655 1.350 . S
C661 H648 0.929 . S
C661 C653 1.433 . S
C661 N663 1.384 . S
N662 C658 1.427 . S
N662 C659 1.384 . S
N663 C655 1.427 . S
N663 C661 1.384 . S
H664 C670 0.930 . S
H665 C674 0.930 . S
H666 C679 0.929 . S
H667 C677 0.929 . S
H668 C672 0.929 . S
H669 C678 0.929 . S
C670 H664 0.930 . S
C670 C671 1.367 . S
C670 C678 1.378 . S
C671 C670 1.367 . S
C671 C679 1.433 . S
C672 H668 0.929 . S
C672 C674 1.378 . S
C672 C676 1.350 . S
C673 C676 1.463 . S
C673 C678 1.350 . S
C673 N681 1.427 . S
C674 H665 0.930 . S
C674 C672 1.378 . S
C674 C675 1.367 . S
C675 C674 1.367 . S
C675 C677 1.433 . S
C676 C672 1.350 . S
C676 C673 1.463 . S
C676 N680 1.427 . S
C677 H667 0.929 . S
C677 C675 1.433 . S
C677 N680 1.384 . S
C678 H669 0.929 . S
C678 C670 1.378 . S
C678 C673 1.350 . S
C679 H666 0.929 . S
C679 C671 1.433 . S
C679 N681 1.384 . S
N680 C676 1.427 . S
N680 C677 1.384 . S
N681 C673 1.427 . S
N681 C679 1.384 . S
H682 C688 0.930 . S
H683 C692 0.930 . S
H684 C697 0.929 . S
H685 C695 0.929 . S
H686 C690 0.929 . S
H687 C696 0.929 . S
C688 H682 0.930 . S
C688 C689 1.367 . S
C688 C696 1.378 . S
C689 C688 1.367 . S
C689 C697 1.433 . S
C690 H686 0.929 . S
C690 C692 1.378 . S
C690 C694 1.350 . S
C691 C694 1.463 . S
C691 C696 1.350 . S
C691 N699 1.427 . S
C692 H683 0.930 . S
C692 C690 1.378 . S
C692 C693 1.367 . S
C693 C692 1.367 . S
C693 C695 1.433 . S
C694 C690 1.350 . S
C694 C691 1.463 . S
C694 N698 1.427 . S
C695 H685 0.929 . S
C695 C693 1.433 . S
C695 N698 1.384 . S
C696 H687 0.929 . S
C696 C688 1.378 . S
C696 C691 1.350 . S
C697 H684 0.929 . S
C697 C689 1.433 . S
C697 N699 1.384 . S
N698 C694 1.427 . S
N698 C695 1.384 . S
N699 C691 1.427 . S
N699 C697 1.384 . S
H700 C706 0.930 . S
H701 C710 0.930 . S
H702 C715 0.929 . S
H703 C713 0.929 . S
H704 C708 0.929 . S
H705 C714 0.929 . S
C706 H700 0.930 . S
C706 C707 1.367 . S
C706 C714 1.378 . S
C707 C706 1.367 . S
C707 C715 1.433 . S
C708 H704 0.929 . S
C708 C710 1.378 . S
C708 C712 1.350 . S
C709 C712 1.463 . S
C709 C714 1.350 . S
C709 N717 1.427 . S
C710 H701 0.930 . S
C710 C708 1.378 . S
C710 C711 1.367 . S
C711 C710 1.367 . S
C711 C713 1.433 . S
C712 C708 1.350 . S
C712 C709 1.463 . S
C712 N716 1.427 . S
C713 H703 0.929 . S
C713 C711 1.433 . S
C713 N716 1.384 . S
C714 H705 0.929 . S
C714 C706 1.378 . S
C714 C709 1.350 . S
C715 H702 0.929 . S
C715 C707 1.433 . S
C715 N717 1.384 . S
N716 C712 1.427 . S
N716 C713 1.384 . S
N717 C709 1.427 . S
N717 C715 1.384 . S
H718 C724 0.930 . S
H719 C728 0.930 . S
H720 C733 0.929 . S
H721 C731 0.929 . S
H722 C726 0.929 . S
H723 C732 0.929 . S
C724 H718 0.930 . S
C724 C725 1.367 . S
C724 C732 1.378 . S
C725 C724 1.367 . S
C725 C733 1.433 . S
C726 H722 0.929 . S
C726 C728 1.378 . S
C726 C730 1.350 . S
C727 C730 1.463 . S
C727 C732 1.350 . S
C727 N735 1.427 . S
C728 H719 0.930 . S
C728 C726 1.378 . S
C728 C729 1.367 . S
C729 C728 1.367 . S
C729 C731 1.433 . S
C730 C726 1.350 . S
C730 C727 1.463 . S
C730 N734 1.427 . S
C731 H721 0.929 . S
C731 C729 1.433 . S
C731 N734 1.384 . S
C732 H723 0.929 . S
C732 C724 1.378 . S
C732 C727 1.350 . S
C733 H720 0.929 . S
C733 C725 1.433 . S
C733 N735 1.384 . S
N734 C730 1.427 . S
N734 C731 1.384 . S
N735 C727 1.427 . S
N735 C733 1.384 . S
H736 C742 0.930 . S
H737 C746 0.930 . S
H738 C751 0.929 . S
H739 C749 0.929 . S
H740 C744 0.929 . S
H741 C750 0.929 . S
C742 H736 0.930 . S
C742 C743 1.367 . S
C742 C750 1.378 . S
C743 C742 1.367 . S
C743 C751 1.433 . S
C744 H740 0.929 . S
C744 C746 1.378 . S
C744 C748 1.350 . S
C745 C748 1.463 . S
C745 C750 1.350 . S
C745 N753 1.427 . S
C746 H737 0.930 . S
C746 C744 1.378 . S
C746 C747 1.367 . S
C747 C746 1.367 . S
C747 C749 1.433 . S
C748 C744 1.350 . S
C748 C745 1.463 . S
C748 N752 1.427 . S
C749 H739 0.929 . S
C749 C747 1.433 . S
C749 N752 1.384 . S
C750 H741 0.929 . S
C750 C742 1.378 . S
C750 C745 1.350 . S
C751 H738 0.929 . S
C751 C743 1.433 . S
C751 N753 1.384 . S
N752 C748 1.427 . S
N752 C749 1.384 . S
N753 C745 1.427 . S
N753 C751 1.384 . S
H754 C760 0.930 . S
H755 C764 0.930 . S
H756 C769 0.929 . S
H757 C767 0.929 . S
H758 C762 0.929 . S
H759 C768 0.929 . S
C760 H754 0.930 . S
C760 C761 1.367 . S
C760 C768 1.378 . S
C761 C760 1.367 . S
C761 C769 1.433 . S
C762 H758 0.929 . S
C762 C764 1.378 . S
C762 C766 1.350 . S
C763 C766 1.463 . S
C763 C768 1.350 . S
C763 N771 1.427 . S
C764 H755 0.930 . S
C764 C762 1.378 . S
C764 C765 1.367 . S
C765 C764 1.367 . S
C765 C767 1.433 . S
C766 C762 1.350 . S
C766 C763 1.463 . S
C766 N770 1.427 . S
C767 H757 0.929 . S
C767 C765 1.433 . S
C767 N770 1.384 . S
C768 H759 0.929 . S
C768 C760 1.378 . S
C768 C763 1.350 . S
C769 H756 0.929 . S
C769 C761 1.433 . S
C769 N771 1.384 . S
N770 C766 1.427 . S
N770 C767 1.384 . S
N771 C763 1.427 . S
N771 C769 1.384 . S
H772 C778 0.930 . S
H773 C782 0.930 . S
H774 C787 0.929 . S
H775 C785 0.929 . S
H776 C780 0.929 . S
H777 C786 0.929 . S
C778 H772 0.930 . S
C778 C779 1.367 . S
C778 C786 1.378 . S
C779 C778 1.367 . S
C779 C787 1.433 . S
C780 H776 0.929 . S
C780 C782 1.378 . S
C780 C784 1.350 . S
C781 C784 1.463 . S
C781 C786 1.350 . S
C781 N789 1.427 . S
C782 H773 0.930 . S
C782 C780 1.378 . S
C782 C783 1.367 . S
C783 C782 1.367 . S
C783 C785 1.433 . S
C784 C780 1.350 . S
C784 C781 1.463 . S
C784 N788 1.427 . S
C785 H775 0.929 . S
C785 C783 1.433 . S
C785 N788 1.384 . S
C786 H777 0.929 . S
C786 C778 1.378 . S
C786 C781 1.350 . S
C787 H774 0.929 . S
C787 C779 1.433 . S
C787 N789 1.384 . S
N788 C784 1.427 . S
N788 C785 1.384 . S
N789 C781 1.427 . S
N789 C787 1.384 . S
H790 C796 0.930 . S
H791 C800 0.930 . S
H792 C805 0.929 . S
H793 C803 0.929 . S
H794 C798 0.929 . S
H795 C804 0.929 . S
C796 H790 0.930 . S
C796 C797 1.367 . S
C796 C804 1.378 . S
C797 C796 1.367 . S
C797 C805 1.433 . S
C798 H794 0.929 . S
C798 C800 1.378 . S
C798 C802 1.350 . S
C799 C802 1.463 . S
C799 C804 1.350 . S
C799 N807 1.427 . S
C800 H791 0.930 . S
C800 C798 1.378 . S
C800 C801 1.367 . S
C801 C800 1.367 . S
C801 C803 1.433 . S
C802 C798 1.350 . S
C802 C799 1.463 . S
C802 N806 1.427 . S
C803 H793 0.929 . S
C803 C801 1.433 . S
C803 N806 1.384 . S
C804 H795 0.929 . S
C804 C796 1.378 . S
C804 C799 1.350 . S
C805 H792 0.929 . S
C805 C797 1.433 . S
C805 N807 1.384 . S
N806 C802 1.427 . S
N806 C803 1.384 . S
N807 C799 1.427 . S
N807 C805 1.384 . S
H808 C814 0.930 . S
H809 C818 0.930 . S
H810 C823 0.929 . S
H811 C821 0.929 . S
H812 C816 0.929 . S
H813 C822 0.929 . S
C814 H808 0.930 . S
C814 C815 1.367 . S
C814 C822 1.378 . S
C815 C814 1.367 . S
C815 C823 1.433 . S
C816 H812 0.929 . S
C816 C818 1.378 . S
C816 C820 1.350 . S
C817 C820 1.463 . S
C817 C822 1.350 . S
C817 N825 1.427 . S
C818 H809 0.930 . S
C818 C816 1.378 . S
C818 C819 1.367 . S
C819 C818 1.367 . S
C819 C821 1.433 . S
C820 C816 1.350 . S
C820 C817 1.463 . S
C820 N824 1.427 . S
C821 H811 0.929 . S
C821 C819 1.433 . S
C821 N824 1.384 . S
C822 H813 0.929 . S
C822 C814 1.378 . S
C822 C817 1.350 . S
C823 H810 0.929 . S
C823 C815 1.433 . S
C823 N825 1.384 . S
N824 C820 1.427 . S
N824 C821 1.384 . S
N825 C817 1.427 . S
N825 C823 1.384 . S
H826 C832 0.930 . S
H827 C836 0.930 . S
H828 C841 0.929 . S
H829 C839 0.929 . S
H830 C834 0.929 . S
H831 C840 0.929 . S
C832 H826 0.930 . S
C832 C833 1.367 . S
C832 C840 1.378 . S
C833 C832 1.367 . S
C833 C841 1.433 . S
C834 H830 0.929 . S
C834 C836 1.378 . S
C834 C838 1.350 . S
C835 C838 1.463 . S
C835 C840 1.350 . S
C835 N843 1.427 . S
C836 H827 0.930 . S
C836 C834 1.378 . S
C836 C837 1.367 . S
C837 C836 1.367 . S
C837 C839 1.433 . S
C838 C834 1.350 . S
C838 C835 1.463 . S
C838 N842 1.427 . S
C839 H829 0.929 . S
C839 C837 1.433 . S
C839 N842 1.384 . S
C840 H831 0.929 . S
C840 C832 1.378 . S
C840 C835 1.350 . S
C841 H828 0.929 . S
C841 C833 1.433 . S
C841 N843 1.384 . S
N842 C838 1.427 . S
N842 C839 1.384 . S
N843 C835 1.427 . S
N843 C841 1.384 . S
C279 C204 1.773 . S
C275 C14 1.789 . S
C293 C25 1.702 . S
C297 C207 1.715 . S
C311 C50 1.694 . S
C315 C238 1.690 . S
C333 C173 1.758 . S
C329 C68 1.773 . S
C351 C208 1.777 . S
C347 C16 1.783 . S
C369 C239 1.740 . S
C365 C26 1.760 . S
C387 C164 1.686 . S
C383 C52 1.675 . S
C405 C195 1.704 . S
C401 C70 1.696 . S
C419 C8 1.383 . S
C423 C225 1.297 . S
C437 C88 1.358 . S
C441 C194 1.273 . S
C455 C44 1.280 . S
C459 C154 1.265 . S
C477 C247 1.291 . S
C473 C98 1.309 . S
C495 C175 1.310 . S
C491 C7 1.391 . S
C509 C86 1.317 . S
C513 C174 1.296 . S
C527 C43 1.285 . S
C531 C267 1.271 . S
C549 C206 1.290 . S
C545 C97 1.371 . S
C563 C116 1.778 . S
C567 C266 1.761 . S
C581 C79 1.706 . S
C585 C145 1.716 . S
C599 C140 1.689 1_655 S
C603 C176 1.692 . S
C617 C104 1.770 . S
C621 C235 1.755 . S
C639 C146 1.771 . S
C635 C115 1.778 . S
C653 C80 1.766 . S
C657 C177 1.752 . S
C671 C142 1.684 1_655 S
C675 C226 1.691 . S
C693 C257 1.715 . S
C689 C106 1.700 . S
C707 C122 1.383 . S
C711 C163 1.287 . S
C725 C34 1.358 . S
C729 C256 1.274 . S
C743 C134 1.280 . S
C747 C216 1.262 . S
C765 C185 1.286 . S
C761 C62 1.301 . S
C783 C237 1.290 . S
C779 C124 1.379 . S
C801 C236 1.299 . S
C797 C32 1.311 . S
C819 C205 1.280 . S
C815 C133 1.287 . S
C837 C144 1.291 . S
C833 C61 1.371 . S
