# Generated by pormake.
# Topology hwx, (6,3)-cn, num edge types: 1
# Building blocks:
#     Node 0, Type 0, BuildingBlock: IZENUY_clean_sbu_0, # of connection points: 6
#     Node 1, Type 0, BuildingBlock: IZENUY_clean_sbu_0, # of connection points: 6
#     Node 2, Type 0, BuildingBlock: IZENUY_clean_sbu_0, # of connection points: 6
#     Node 3, Type 0, BuildingBlock: IZENUY_clean_sbu_0, # of connection points: 6
#     Node 4, Type 1, BuildingBlock: BELTOD_clean_linker_0, # of connection points: 3
#     Node 5, Type 1, BuildingBlock: BELTOD_clean_linker_0, # of connection points: 3
#     Node 6, Type 1, BuildingBlock: BELTOD_clean_linker_0, # of connection points: 3
#     Node 7, Type 1, BuildingBlock: BELTOD_clean_linker_0, # of connection points: 3
#     Node 8, Type 1, BuildingBlock: BELTOD_clean_linker_0, # of connection points: 3
#     Node 9, Type 1, BuildingBlock: BELTOD_clean_linker_0, # of connection points: 3
#     Node 10, Type 1, BuildingBlock: BELTOD_clean_linker_0, # of connection points: 3
#     Node 11, Type 1, BuildingBlock: BELTOD_clean_linker_0, # of connection points: 3
#     Edge 12, Type (0, 1), None
#     Edge 13, Type (0, 1), None
#     Edge 14, Type (0, 1), None
#     Edge 15, Type (0, 1), None
#     Edge 16, Type (0, 1), None
#     Edge 17, Type (0, 1), None
#     Edge 18, Type (0, 1), None
#     Edge 19, Type (0, 1), None
#     Edge 20, Type (0, 1), None
#     Edge 21, Type (0, 1), None
#     Edge 22, Type (0, 1), None
#     Edge 23, Type (0, 1), None
#     Edge 24, Type (0, 1), None
#     Edge 25, Type (0, 1), None
#     Edge 26, Type (0, 1), None
#     Edge 27, Type (0, 1), None
#     Edge 28, Type (0, 1), None
#     Edge 29, Type (0, 1), None
#     Edge 30, Type (0, 1), None
#     Edge 31, Type (0, 1), None
#     Edge 32, Type (0, 1), None
#     Edge 33, Type (0, 1), None
#     Edge 34, Type (0, 1), None
#     Edge 35, Type (0, 1), None
# Relax obj value: 0.045
# Max RMSD: 0.072
# Mean RMSD: 0.063
data_MOF--net-hwx--node1-IZENUY_clean_sbu_0--node2-BELTOD_clean_linker_0--edge1-none
_symmetry_space_group_name_H-M    P1
_symmetry_Int_Tables_number       1
_symmetry_cell_setting            triclinic
loop_
_symmetry_equiv_pos_as_xyz
'x, y, z'
_cell_length_a     28.222088
_cell_length_b     28.299221
_cell_length_c     13.32966
_cell_angle_alpha  89.328622
_cell_angle_beta   90.897454
_cell_angle_gamma 89.832576
loop_
_atom_site_label
_atom_site_type_symbol
_atom_site_fract_x
_atom_site_fract_y
_atom_site_fract_z
_atom_type_partial_charge
Fe0 Fe 0.25041 0.20852 0.07203 0.0
Fe1 Fe 0.25213 0.2232 0.84558 0.0
O2 O 0.23201 0.19122 0.9508 0.0
Fe3 Fe 0.1936 0.14222 0.93598 0.0
O4 O 0.14805 0.17027 0.01116 0.0
O5 O 0.19685 0.18817 0.13462 0.0
O6 O 0.22243 0.26611 0.05696 0.0
C7 C 0.23327 0.29448 0.98718 0.0
C8 C 0.25866 0.11344 0.0906 0.0
O9 O 0.25373 0.2798 0.90961 0.0
C10 C 0.25434 0.12827 0.78064 0.0
O11 O 0.30764 0.23189 0.03379 0.0
O12 O 0.31408 0.21124 0.87687 0.0
O13 O 0.21866 0.1092 0.04609 0.0
O14 O 0.2796 0.15262 0.09212 0.0
C15 C 0.16029 0.20851 0.78775 0.0
O16 O 0.25347 0.17225 0.76282 0.0
O17 O 0.2364 0.11125 0.85941 0.0
C18 C 0.33301 0.22385 0.95864 0.0
O19 O 0.19237 0.2379 0.80767 0.0
O20 O 0.16236 0.16668 0.82337 0.0
C21 C 0.15526 0.18317 0.10035 0.0
Fe22 Fe 0.24803 0.73389 0.65752 0.0
Fe23 Fe 0.31285 0.65473 0.58371 0.0
O24 O 0.27023 0.69922 0.55933 0.0
Fe25 Fe 0.25012 0.70912 0.43483 0.0
O26 O 0.27418 0.76815 0.43574 0.0
O27 O 0.24277 0.78795 0.57988 0.0
O28 O 0.30664 0.75404 0.6929 0.0
C29 C 0.34039 0.72712 0.71866 0.0
C30 C 0.1673 0.72454 0.54648 0.0
O31 O 0.34127 0.68459 0.69035 0.0
C32 C 0.25121 0.61385 0.43844 0.0
O33 O 0.25053 0.68566 0.75114 0.0
O34 O 0.27282 0.62344 0.66544 0.0
O35 O 0.1916 0.73049 0.46869 0.0
O36 O 0.18741 0.71656 0.62998 0.0
C37 C 0.3469 0.69245 0.4108 0.0
O38 O 0.29138 0.61633 0.48247 0.0
O39 O 0.22553 0.65025 0.42912 0.0
C40 C 0.25378 0.64127 0.74122 0.0
O41 O 0.35547 0.68438 0.50264 0.0
O42 O 0.30511 0.69013 0.37628 0.0
C43 C 0.26396 0.79892 0.49964 0.0
Fe44 Fe 0.7492 0.78296 0.90681 0.0
Fe45 Fe 0.76013 0.7835 0.13716 0.0
O46 O 0.76967 0.81008 0.01841 0.0
Fe47 Fe 0.80009 0.86465 0.01088 0.0
O48 O 0.77048 0.88466 0.8958 0.0
O49 O 0.71346 0.83401 0.87111 0.0
O50 O 0.69542 0.75801 0.96206 0.0
C51 C 0.67474 0.76707 0.04324 0.0
C52 C 0.84083 0.81716 0.85922 0.0
O53 O 0.69701 0.78299 0.11779 0.0
C54 C 0.84825 0.81855 0.17159 0.0
O55 O 0.78315 0.73024 0.93291 0.0
O56 O 0.76677 0.72237 0.09313 0.0
O57 O 0.84745 0.83788 0.94159 0.0
O58 O 0.79987 0.80304 0.83264 0.0
C59 C 0.74145 0.88153 0.16504 0.0
O60 O 0.82308 0.78203 0.16659 0.0
O61 O 0.83575 0.8558 0.12534 0.0
C62 C 0.78323 0.70601 0.01253 0.0
O63 O 0.75134 0.8406 0.20027 0.0
O64 O 0.75423 0.89398 0.07868 0.0
C65 C 0.73044 0.87464 0.85894 0.0
Fe66 Fe 0.69853 0.37684 0.48879 0.0
Fe67 Fe 0.74775 0.29501 0.60339 0.0
O68 O 0.72739 0.32084 0.48869 0.0
Fe69 Fe 0.73546 0.29124 0.37371 0.0
O70 O 0.74482 0.34565 0.30125 0.0
O71 O 0.74455 0.40292 0.41241 0.0
O72 O 0.72978 0.39904 0.60077 0.0
C73 C 0.76845 0.38692 0.64298 0.0
C74 C 0.64791 0.32813 0.33627 0.0
O75 O 0.78456 0.34579 0.63204 0.0
C76 C 0.71249 0.21675 0.50849 0.0
O77 O 0.65099 0.35366 0.56483 0.0
O78 O 0.69799 0.3177 0.67565 0.0
O79 O 0.6723 0.29103 0.34658 0.0
O80 O 0.66133 0.36601 0.37714 0.0
C81 C 0.82115 0.27327 0.46732 0.0
O82 O 0.71284 0.24216 0.58535 0.0
O83 O 0.72836 0.23184 0.42608 0.0
C84 C 0.6574 0.33298 0.64855 0.0
O85 O 0.80078 0.26754 0.55056 0.0
O86 O 0.79897 0.28901 0.39131 0.0
C87 C 0.75711 0.38649 0.32909 0.0
P88 P 0.26821 0.49937 0.07853 0.0
H89 H 0.30698 0.48303 0.27898 0.0
H90 H 0.3009 0.53123 0.42838 0.0
H91 H 0.18227 0.6065 0.29204 0.0
H92 H 0.18856 0.55773 0.14331 0.0
H93 H 0.28284 0.44403 0.90291 0.0
H94 H 0.26786 0.36232 0.8638 0.0
H95 H 0.19974 0.34287 0.1501 0.0
H96 H 0.213 0.42665 0.18649 0.0
H97 H 0.2894 0.59908 0.06783 0.0
H98 H 0.21402 0.49813 0.88517 0.0
O99 O 0.32728 0.49642 0.08232 0.0
H100 H 0.28331 0.65742 0.93153 0.0
H101 H 0.21115 0.55529 0.74641 0.0
C102 C 0.24965 0.51859 0.19909 0.0
C103 C 0.27859 0.50876 0.2829 0.0
C104 C 0.27505 0.53639 0.36825 0.0
C105 C 0.24259 0.57414 0.36987 0.0
C106 C 0.20853 0.57851 0.292 0.0
C107 C 0.2121 0.55071 0.20671 0.0
C108 C 0.24818 0.44156 0.04638 0.0
C109 C 0.26305 0.42275 0.95573 0.0
C110 C 0.25471 0.37572 0.93391 0.0
C111 C 0.23299 0.34583 0.00443 0.0
C112 C 0.21654 0.36506 0.09433 0.0
C113 C 0.2241 0.41286 0.11518 0.0
C114 C 0.25341 0.54386 0.9858 0.0
C115 C 0.2709 0.58969 -0.0009 0.0
C116 C 0.26723 0.62302 0.92152 0.0
C117 C 0.24709 0.61041 0.8288 0.0
C118 C 0.22707 0.56547 0.8174 0.0
C119 C 0.22934 0.53264 0.89635 0.0
P120 P 0.98388 0.83178 0.5265 0.0
H121 H 0.97716 0.8788 0.71963 0.0
H122 H 0.91984 0.87285 0.85473 0.0
H123 H 0.84779 0.76087 0.69633 0.0
H124 H 0.90566 0.76623 0.56338 0.0
H125 H 0.04028 0.78835 0.37169 0.0
H126 H 0.11393 0.74398 0.3796 0.0
H127 H 0.10821 0.74153 0.70381 0.0
H128 H 0.03344 0.78515 0.69484 0.0
H129 H 0.94138 0.90304 0.39405 0.0
H130 H 0.95026 0.75093 0.40951 0.0
O131 O 0.00813 0.88543 0.53186 0.0
H132 H 0.88701 0.89797 0.25116 0.0
H133 H 0.89454 0.74538 0.2675 0.0
C134 C 0.94469 0.82407 0.62996 0.0
C135 C 0.9492 0.85278 0.71442 0.0
C136 C 0.91661 0.84914 0.7918 0.0
C137 C 0.87893 0.81688 0.78509 0.0
C138 C 0.87605 0.78656 0.70264 0.0
C139 C 0.90902 0.7898 0.62621 0.0
C140 C 0.0311 0.78947 0.53254 0.0
C141 C 0.05382 0.77675 0.44435 0.0
C142 C 0.09618 0.7515 0.44913 0.0
C143 C 0.11726 0.73973 0.54247 0.0
C144 C 0.09286 0.74997 0.63078 0.0
C145 C 0.05013 0.775 0.62573 0.0
C146 C 0.94997 0.82741 0.41187 0.0
C147 C 0.93229 0.86852 0.36544 0.0
C148 C 0.90116 0.8655 0.28361 0.0
C149 C 0.88634 0.82119 0.24832 0.0
C150 C 0.90525 0.77998 0.29321 0.0
C151 C 0.93707 0.78312 0.37418 0.0
P152 P 0.84674 0.50017 0.99471 0.0
H153 H 0.8878 0.42578 0.87242 0.0
H154 H 0.85656 0.3798 0.73182 0.0
H155 H 0.72771 0.46272 0.73371 0.0
H156 H 0.75874 0.5075 0.8756 0.0
H157 H 0.83403 0.5651 0.16173 0.0
H158 H 0.80674 0.647 0.16994 0.0
H159 H 0.80039 0.6538 0.84575 0.0
H160 H 0.82674 0.57182 0.83846 0.0
H161 H 0.87843 0.4172 0.10932 0.0
H162 H 0.75788 0.51144 0.10376 0.0
O163 O 0.90573 0.49688 0.0023 0.0
H164 H 0.84215 0.37122 0.24519 0.0
H165 H 0.72313 0.46717 0.24335 0.0
C166 C 0.82615 0.47099 0.88263 0.0
C167 C 0.85321 0.43464 0.8412 0.0
C168 C 0.83525 0.40828 0.76095 0.0
C169 C 0.78981 0.41782 0.72069 0.0
C170 C 0.76314 0.45485 0.76163 0.0
C171 C 0.78087 0.48065 0.84278 0.0
C172 C 0.83007 0.56163 -0.0005 0.0
C173 C 0.82606 0.58404 0.09244 0.0
C174 C 0.81054 0.6309 0.09717 0.0
C175 C 0.80034 0.6566 0.0087 0.0
C176 C 0.80718 0.63478 0.91553 0.0
C177 C 0.82208 0.58777 0.91107 0.0
C178 C 0.82169 0.46868 0.09899 0.0
C179 C 0.84489 0.42875 0.13907 0.0
C180 C 0.82434 0.4027 0.2166 0.0
C181 C 0.78079 0.41685 0.25595 0.0
C182 C 0.75753 0.45676 0.21598 0.0
C183 C 0.77739 0.48193 0.1364 0.0
P184 P 0.03364 0.25801 0.42688 0.0
H185 H 0.03165 0.27475 0.20953 0.0
H186 H 0.08095 0.24393 0.07498 0.0
H187 H 0.14387 0.14343 0.28331 0.0
H188 H 0.09369 0.17247 0.41589 0.0
H189 H 0.97241 0.25475 0.60245 0.0
H190 H 0.8869 0.26272 0.61868 0.0
H191 H 0.87068 0.25843 0.29599 0.0
H192 H 0.95611 0.2492 0.28047 0.0
H193 H 0.10501 0.31059 0.53864 0.0
H194 H 0.03454 0.17622 0.56693 0.0
O195 O 0.04078 0.31542 0.40142 0.0
H196 H 0.15493 0.29146 0.68263 0.0
H197 H 0.08605 0.15572 0.71163 0.0
C198 C 0.05912 0.22641 0.32356 0.0
C199 C 0.05449 0.24468 0.22535 0.0
C200 C 0.08251 0.22702 0.14832 0.0
C201 C 0.11598 0.19139 0.16925 0.0
C202 C 0.11803 0.17081 0.26551 0.0
C203 C 0.08942 0.18775 0.34171 0.0
C204 C 0.97081 0.25016 0.44023 0.0
C205 C 0.95045 0.2536 0.53527 0.0
C206 C 0.90142 0.25861 0.54453 0.0
C207 C 0.87204 0.26159 0.45862 0.0
C208 C 0.89238 0.25648 0.36369 0.0
C209 C 0.94131 0.25076 0.3547 0.0
C210 C 0.06601 0.24489 0.54189 0.0
C211 C 0.09981 0.27706 0.57672 0.0
C212 C 0.12855 0.26589 0.65955 0.0
C213 C 0.12489 0.22174 0.70866 0.0
C214 C 0.08986 0.18996 0.67561 0.0
C215 C 0.06045 0.20161 0.59303 0.0
P216 P 0.73174 0.00826 0.51232 0.0
H217 H 0.76971 0.02417 0.31396 0.0
H218 H 0.77587 0.97052 0.17302 0.0
H219 H 0.67547 0.87637 0.31203 0.0
H220 H 0.66655 0.93215 0.44955 0.0
H221 H 0.73384 0.07535 0.67546 0.0
H222 H 0.72698 0.16104 0.67376 0.0
H223 H 0.67838 0.15762 0.36512 0.0
H224 H 0.68273 0.07152 0.36888 0.0
H225 H 0.75725 0.91071 0.53419 0.0
H226 H 0.68022 0.01312 0.70643 0.0
O227 O 0.79041 0.01525 0.51819 0.0
H228 H 0.75343 0.85457 0.67243 0.0
H229 H 0.68097 0.95776 0.85013 0.0
C230 C 0.71924 0.9811 0.39379 0.0
C231 C 0.74734 0.99314 0.31193 0.0
C232 C 0.75098 0.96231 0.23175 0.0
C233 C 0.72721 0.91876 0.234 0.0
C234 C 0.69483 0.90937 0.31024 0.0
C235 C 0.68981 0.94124 0.38854 0.0
C236 C 0.70787 0.06676 0.52307 0.0
C237 C 0.71868 0.09263 0.60951 0.0
C238 C 0.71529 0.14183 0.60809 0.0
C239 C 0.70273 0.16587 0.51886 0.0
C240 C 0.68841 0.13981 0.4347 0.0
C241 C 0.6907 0.09052 0.43703 0.0
C242 C 0.71896 0.96613 0.60971 0.0
C243 C 0.73819 0.9207 0.60066 0.0
C244 C 0.73583 0.88845 0.67941 0.0
C245 C 0.71616 0.90187 0.77037 0.0
C246 C 0.69523 0.94662 0.77918 0.0
C247 C 0.69573 0.97847 0.69797 0.0
P248 P 0.51183 0.33845 0.97875 0.0
H249 H 0.51966 0.39124 0.78916 0.0
H250 H 0.57821 0.38925 0.65554 0.0
H251 H 0.64961 0.27293 0.80766 0.0
H252 H 0.59073 0.27448 0.93898 0.0
H253 H 0.45746 0.29043 0.13294 0.0
H254 H 0.38576 0.24338 0.12475 0.0
H255 H 0.39094 0.24573 0.80072 0.0
H256 H 0.4639 0.29219 0.80984 0.0
H257 H 0.55112 0.41042 0.11048 0.0
H258 H 0.54939 0.25826 0.09803 0.0
O259 O 0.48489 0.39101 0.97319 0.0
H260 H 0.60539 0.4066 0.25425 0.0
H261 H 0.6047 0.25398 0.24116 0.0
C262 C 0.55169 0.33391 0.87549 0.0
C263 C 0.54776 0.36514 0.79327 0.0
C264 C 0.58109 0.36384 0.71676 0.0
C265 C 0.61892 0.33147 0.72217 0.0
C266 C 0.62131 0.29885 0.80241 0.0
C267 C 0.58769 0.29978 0.87784 0.0
C268 C 0.46646 0.2942 0.97216 0.0
C269 C 0.44435 0.27936 0.0602 0.0
C270 C 0.40308 0.25259 0.05525 0.0
C271 C 0.38238 0.24115 0.96195 0.0
C272 C 0.40614 0.25367 0.87368 0.0
C273 C 0.4478 0.28034 0.87887 0.0
C274 C 0.54601 0.33466 0.09395 0.0
C275 C 0.56175 0.37611 0.13991 0.0
C276 C 0.59284 0.37382 0.22233 0.0
C277 C 0.60957 0.32993 0.25912 0.0
C278 C 0.59255 0.28833 0.21466 0.0
C279 C 0.56095 0.29072 0.13283 0.0
P280 P 0.32804 0.00164 0.45006 0.0
H281 H 0.31515 0.98566 0.66643 0.0
H282 H 0.28433 0.036 0.79948 0.0
H283 H 0.26625 0.15012 0.58369 0.0
H284 H 0.29576 0.09991 0.45232 0.0
H285 H 0.36418 0.91332 0.37365 0.0
H286 H 0.33804 0.83134 0.39149 0.0
H287 H 0.21876 0.87774 0.56482 0.0
H288 H 0.24387 0.95975 0.54277 0.0
H289 H 0.37806 0.05399 0.29493 0.0
H290 H 0.23642 0.00277 0.34384 0.0
O291 O 0.38711 0.00095 0.45804 0.0
H292 H 0.3499 0.09886 0.1486 0.0
H293 H 0.20779 0.0479 0.19663 0.0
C294 C 0.30622 0.03846 0.5487 0.0
C295 C 0.30389 0.02136 0.64783 0.0
C296 C 0.28636 0.05009 0.72378 0.0
C297 C 0.27242 0.09684 0.70197 0.0
C298 C 0.27645 0.11419 0.60312 0.0
C299 C 0.29318 0.08532 0.52742 0.0
C300 C 0.30703 0.94218 0.46043 0.0
C301 C 0.33233 0.90579 0.41513 0.0
C302 C 0.3172 0.85913 0.42476 0.0
C303 C 0.27678 0.8484 0.48068 0.0
C304 C 0.25048 0.88516 0.52273 0.0
C305 C 0.26504 0.93191 0.51091 0.0
C306 C 0.30934 0.02506 0.32994 0.0
C307 C 0.34115 0.05126 0.27244 0.0
C308 C 0.32498 0.07688 0.18872 0.0
C309 C 0.27662 0.07693 0.16145 0.0
C310 C 0.24531 0.04803 0.21514 0.0
C311 C 0.26158 0.02247 0.29948 0.0
P312 P 0.4621 0.77885 0.08102 0.0
H313 H 0.46008 0.79642 0.29708 0.0
H314 H 0.41425 0.76042 0.43315 0.0
H315 H 0.36108 0.65572 0.22781 0.0
H316 H 0.4076 0.69035 0.0938 0.0
H317 H 0.5238 0.77765 0.90651 0.0
H318 H 0.60953 0.77208 0.89094 0.0
H319 H 0.62341 0.7523 0.21196 0.0
H320 H 0.53745 0.75624 0.22683 0.0
H321 H 0.38675 0.82941 0.97118 0.0
H322 H 0.46577 0.69982 0.94149 0.0
O323 O 0.45732 0.83652 0.10367 0.0
H324 H 0.33843 0.80938 0.8246 0.0
H325 H 0.41734 0.67912 0.79512 0.0
C326 C 0.43643 0.74685 0.18453 0.0
C327 C 0.43965 0.76488 0.28214 0.0
C328 C 0.41395 0.74406 0.36005 0.0
C329 C 0.3844 0.70537 0.34051 0.0
C330 C 0.38386 0.68548 0.24454 0.0
C331 C 0.41016 0.70567 0.16751 0.0
C332 C 0.52401 0.76609 0.06764 0.0
C333 C 0.54501 0.77024 0.9732 0.0
C334 C 0.59412 0.76717 0.96425 0.0
C335 C 0.62304 0.76159 0.05015 0.0
C336 C 0.60187 0.75644 0.14441 0.0
C337 C 0.55271 0.75858 0.15299 0.0
C338 C 0.42999 0.76624 0.96668 0.0
C339 C 0.3942 0.79697 0.93208 0.0
C340 C 0.36663 0.78546 0.84799 0.0
C341 C 0.37396 0.74257 0.79803 0.0
C342 C 0.41081 0.71246 0.83156 0.0
C343 C 0.43853 0.72422 0.91523 0.0
loop_
_geom_bond_atom_site_label_1
_geom_bond_atom_site_label_2
_geom_bond_distance
_geom_bond_site_symmetry_2
_ccdc_geom_bond_type
Fe0 O2 1.918 . S
Fe0 O5 1.997 . S
Fe0 O6 2.002 . S
Fe0 O11 1.976 . S
Fe0 O14 1.996 . S
Fe1 O2 1.918 1_556 S
Fe1 O9 1.997 . S
Fe1 O12 1.996 . S
Fe1 O16 1.976 . S
Fe1 O19 2.002 . S
O2 Fe0 1.918 . S
O2 Fe1 1.918 1_554 S
O2 Fe3 1.918 . S
Fe3 O2 1.918 . S
Fe3 O4 2.002 . S
Fe3 O13 1.976 . S
Fe3 O17 1.996 1_554 S
Fe3 O20 1.997 1_554 S
O4 Fe3 2.002 . S
O4 C21 1.295 . S
O5 Fe0 1.997 . S
O5 C21 1.235 . S
O6 Fe0 2.002 . S
O6 C7 1.295 . S
C7 O6 1.295 . S
C7 O9 1.235 1_554 S
C8 O13 1.287 . S
C8 O14 1.255 . S
O9 Fe1 1.997 . S
O9 C7 1.235 1_556 S
C10 O16 1.287 . S
C10 O17 1.255 . S
O11 Fe0 1.976 . S
O11 C18 1.287 . S
O12 Fe1 1.996 . S
O12 C18 1.255 1_556 S
O13 Fe3 1.976 . S
O13 C8 1.287 . S
O14 Fe0 1.996 . S
O14 C8 1.255 . S
C15 O19 1.295 . S
C15 O20 1.235 . S
O16 Fe1 1.976 . S
O16 C10 1.287 . S
O17 Fe3 1.996 1_556 S
O17 C10 1.255 . S
C18 O11 1.287 . S
C18 O12 1.255 1_554 S
O19 Fe1 2.002 . S
O19 C15 1.295 . S
O20 Fe3 1.997 1_556 S
O20 C15 1.235 . S
C21 O4 1.295 . S
C21 O5 1.235 . S
Fe22 O24 1.918 . S
Fe22 O27 1.997 . S
Fe22 O28 2.002 . S
Fe22 O33 1.976 . S
Fe22 O36 1.996 . S
Fe23 O24 1.918 . S
Fe23 O31 1.997 . S
Fe23 O34 1.996 . S
Fe23 O38 1.976 . S
Fe23 O41 2.002 . S
O24 Fe22 1.918 . S
O24 Fe23 1.918 . S
O24 Fe25 1.918 . S
Fe25 O24 1.918 . S
Fe25 O26 2.002 . S
Fe25 O35 1.976 . S
Fe25 O39 1.996 . S
Fe25 O42 1.997 . S
O26 Fe25 2.002 . S
O26 C43 1.295 . S
O27 Fe22 1.997 . S
O27 C43 1.235 . S
O28 Fe22 2.002 . S
O28 C29 1.295 . S
C29 O28 1.295 . S
C29 O31 1.235 . S
C30 O35 1.287 . S
C30 O36 1.255 . S
O31 Fe23 1.997 . S
O31 C29 1.235 . S
C32 O38 1.287 . S
C32 O39 1.255 . S
O33 Fe22 1.976 . S
O33 C40 1.287 . S
O34 Fe23 1.996 . S
O34 C40 1.255 . S
O35 Fe25 1.976 . S
O35 C30 1.287 . S
O36 Fe22 1.996 . S
O36 C30 1.255 . S
C37 O41 1.295 . S
C37 O42 1.235 . S
O38 Fe23 1.976 . S
O38 C32 1.287 . S
O39 Fe25 1.996 . S
O39 C32 1.255 . S
C40 O33 1.287 . S
C40 O34 1.255 . S
O41 Fe23 2.002 . S
O41 C37 1.295 . S
O42 Fe25 1.997 . S
O42 C37 1.235 . S
C43 O26 1.295 . S
C43 O27 1.235 . S
Fe44 O46 1.918 1_556 S
Fe44 O49 1.997 . S
Fe44 O50 2.002 . S
Fe44 O55 1.976 . S
Fe44 O58 1.996 . S
Fe45 O46 1.918 . S
Fe45 O53 1.997 . S
Fe45 O56 1.996 . S
Fe45 O60 1.976 . S
Fe45 O63 2.002 . S
O46 Fe44 1.918 1_554 S
O46 Fe45 1.918 . S
O46 Fe47 1.918 . S
Fe47 O46 1.918 . S
Fe47 O48 2.002 1_554 S
Fe47 O57 1.976 1_554 S
Fe47 O61 1.996 . S
Fe47 O64 1.997 . S
O48 Fe47 2.002 1_556 S
O48 C65 1.295 . S
O49 Fe44 1.997 . S
O49 C65 1.235 . S
O50 Fe44 2.002 . S
O50 C51 1.295 1_556 S
C51 O50 1.295 1_554 S
C51 O53 1.235 . S
C52 O57 1.287 . S
C52 O58 1.255 . S
O53 Fe45 1.997 . S
O53 C51 1.235 . S
C54 O60 1.287 . S
C54 O61 1.255 . S
O55 Fe44 1.976 . S
O55 C62 1.287 1_556 S
O56 Fe45 1.996 . S
O56 C62 1.255 . S
O57 Fe47 1.976 1_556 S
O57 C52 1.287 . S
O58 Fe44 1.996 . S
O58 C52 1.255 . S
C59 O63 1.295 . S
C59 O64 1.235 . S
O60 Fe45 1.976 . S
O60 C54 1.287 . S
O61 Fe47 1.996 . S
O61 C54 1.255 . S
C62 O55 1.287 1_554 S
C62 O56 1.255 . S
O63 Fe45 2.002 . S
O63 C59 1.295 . S
O64 Fe47 1.997 . S
O64 C59 1.235 . S
C65 O48 1.295 . S
C65 O49 1.235 . S
Fe66 O68 1.918 . S
Fe66 O71 1.997 . S
Fe66 O72 2.002 . S
Fe66 O77 1.976 . S
Fe66 O80 1.996 . S
Fe67 O68 1.918 . S
Fe67 O75 1.997 . S
Fe67 O78 1.996 . S
Fe67 O82 1.976 . S
Fe67 O85 2.002 . S
O68 Fe66 1.918 . S
O68 Fe67 1.918 . S
O68 Fe69 1.918 . S
Fe69 O68 1.918 . S
Fe69 O70 2.002 . S
Fe69 O79 1.976 . S
Fe69 O83 1.996 . S
Fe69 O86 1.997 . S
O70 Fe69 2.002 . S
O70 C87 1.295 . S
O71 Fe66 1.997 . S
O71 C87 1.235 . S
O72 Fe66 2.002 . S
O72 C73 1.295 . S
C73 O72 1.295 . S
C73 O75 1.235 . S
C74 O79 1.287 . S
C74 O80 1.255 . S
O75 Fe67 1.997 . S
O75 C73 1.235 . S
C76 O82 1.287 . S
C76 O83 1.255 . S
O77 Fe66 1.976 . S
O77 C84 1.287 . S
O78 Fe67 1.996 . S
O78 C84 1.255 . S
O79 Fe69 1.976 . S
O79 C74 1.287 . S
O80 Fe66 1.996 . S
O80 C74 1.255 . S
C81 O85 1.295 . S
C81 O86 1.235 . S
O82 Fe67 1.976 . S
O82 C76 1.287 . S
O83 Fe69 1.996 . S
O83 C76 1.255 . S
C84 O77 1.287 . S
C84 O78 1.255 . S
O85 Fe67 2.002 . S
O85 C81 1.295 . S
O86 Fe69 1.997 . S
O86 C81 1.235 . S
C87 O70 1.295 . S
C87 O71 1.235 . S
P88 O99 1.490 . S
P88 C102 1.812 . S
P88 C108 1.803 . S
P88 C114 1.819 1_554 S
H89 C103 0.941 . S
H90 C104 0.939 . S
H91 C106 0.940 . S
H92 C107 0.940 . S
H93 C109 0.939 . S
H94 C110 0.942 . S
H95 C112 0.940 . S
H96 C113 0.939 . S
H97 C115 0.941 . S
H98 C119 0.939 . S
O99 P88 1.490 . S
H100 C116 0.939 . S
H101 C118 0.940 . S
C102 P88 1.812 . S
C102 C103 1.389 . S
C102 C107 1.391 . S
C103 H89 0.941 . S
C103 C102 1.389 . S
C103 C104 1.397 . S
C104 H90 0.939 . S
C104 C103 1.397 . S
C104 C105 1.378 . S
C105 C104 1.378 . S
C105 C106 1.378 . S
C106 H91 0.940 . S
C106 C105 1.378 . S
C106 C107 1.396 . S
C107 H92 0.940 . S
C107 C102 1.391 . S
C107 C106 1.396 . S
C108 P88 1.803 . S
C108 C109 1.378 1_554 S
C108 C113 1.400 . S
C109 H93 0.939 . S
C109 C108 1.378 1_556 S
C109 C110 1.361 . S
C110 H94 0.942 . S
C110 C109 1.361 . S
C110 C111 1.369 1_556 S
C111 C110 1.369 1_554 S
C111 C112 1.404 . S
C112 H95 0.940 . S
C112 C111 1.404 . S
C112 C113 1.389 . S
C113 H96 0.939 . S
C113 C108 1.400 . S
C113 C112 1.389 . S
C114 P88 1.819 1_556 S
C114 C115 1.391 . S
C114 C119 1.391 . S
C115 H97 0.941 . S
C115 C114 1.391 . S
C115 C116 1.396 . S
C116 H100 0.939 . S
C116 C115 1.396 . S
C116 C117 1.397 . S
C117 C116 1.397 . S
C117 C118 1.385 . S
C118 H101 0.940 . S
C118 C117 1.385 . S
C118 C119 1.388 . S
C119 H98 0.939 . S
C119 C114 1.391 . S
C119 C118 1.388 . S
P120 O131 1.490 1_655 S
P120 C134 1.812 . S
P120 C140 1.803 1_655 S
P120 C146 1.819 . S
H121 C135 0.941 . S
H122 C136 0.939 . S
H123 C138 0.940 . S
H124 C139 0.940 . S
H125 C141 0.939 . S
H126 C142 0.942 . S
H127 C144 0.940 . S
H128 C145 0.939 . S
H129 C147 0.941 . S
H130 C151 0.939 1_455 S
O131 P120 1.490 1_455 S
H132 C148 0.939 . S
H133 C150 0.940 . S
C134 P120 1.812 . S
C134 C135 1.389 . S
C134 C139 1.391 . S
C135 H121 0.941 . S
C135 C134 1.389 . S
C135 C136 1.397 . S
C136 H122 0.939 . S
C136 C135 1.397 . S
C136 C137 1.378 . S
C137 C136 1.378 . S
C137 C138 1.378 . S
C138 H123 0.940 . S
C138 C137 1.378 . S
C138 C139 1.396 . S
C139 H124 0.940 . S
C139 C134 1.391 . S
C139 C138 1.396 . S
C140 P120 1.803 1_455 S
C140 C141 1.378 . S
C140 C145 1.400 . S
C141 H125 0.939 . S
C141 C140 1.378 . S
C141 C142 1.361 . S
C142 H126 0.942 . S
C142 C141 1.361 . S
C142 C143 1.369 . S
C143 C142 1.369 . S
C143 C144 1.404 . S
C144 H127 0.940 . S
C144 C143 1.404 . S
C144 C145 1.389 . S
C145 H128 0.939 . S
C145 C140 1.400 . S
C145 C144 1.389 . S
C146 P120 1.819 . S
C146 C147 1.391 . S
C146 C151 1.391 . S
C147 H129 0.941 . S
C147 C146 1.391 . S
C147 C148 1.396 . S
C148 H132 0.939 . S
C148 C147 1.396 . S
C148 C149 1.397 . S
C149 C148 1.397 . S
C149 C150 1.385 . S
C150 H133 0.940 . S
C150 C149 1.385 . S
C150 C151 1.388 . S
C151 H130 0.939 1_655 S
C151 C146 1.391 . S
C151 C150 1.388 . S
P152 O163 1.490 . S
P152 C166 1.812 1_554 S
P152 C172 1.803 . S
P152 C178 1.819 . S
H153 C167 0.941 . S
H154 C168 0.939 . S
H155 C170 0.940 . S
H156 C171 0.940 . S
H157 C173 0.939 . S
H158 C174 0.942 . S
H159 C176 0.940 . S
H160 C177 0.939 . S
H161 C179 0.941 . S
H162 C183 0.939 . S
O163 P152 1.490 . S
H164 C180 0.939 . S
H165 C182 0.940 . S
C166 P152 1.812 1_556 S
C166 C167 1.389 . S
C166 C171 1.391 . S
C167 H153 0.941 . S
C167 C166 1.389 . S
C167 C168 1.397 . S
C168 H154 0.939 . S
C168 C167 1.397 . S
C168 C169 1.378 . S
C169 C168 1.378 . S
C169 C170 1.378 . S
C170 H155 0.940 . S
C170 C169 1.378 . S
C170 C171 1.396 . S
C171 H156 0.940 . S
C171 C166 1.391 . S
C171 C170 1.396 . S
C172 P152 1.803 . S
C172 C173 1.383 . S
C172 C177 1.396 1_554 S
C173 H157 0.939 . S
C173 C172 1.383 . S
C173 C174 1.361 . S
C174 H158 0.942 . S
C174 C173 1.361 . S
C174 C175 1.369 . S
C175 C174 1.369 . S
C175 C176 1.404 1_554 S
C176 H159 0.940 . S
C176 C175 1.404 1_556 S
C176 C177 1.389 . S
C177 H160 0.939 . S
C177 C172 1.396 1_556 S
C177 C176 1.389 . S
C178 P152 1.819 . S
C178 C179 1.391 . S
C178 C183 1.391 . S
C179 H161 0.941 . S
C179 C178 1.391 . S
C179 C180 1.396 . S
C180 H164 0.939 . S
C180 C179 1.396 . S
C180 C181 1.397 . S
C181 C180 1.397 . S
C181 C182 1.385 . S
C182 H165 0.940 . S
C182 C181 1.385 . S
C182 C183 1.388 . S
C183 H162 0.939 . S
C183 C178 1.391 . S
C183 C182 1.388 . S
P184 O195 1.490 . S
P184 C198 1.812 . S
P184 C204 1.803 1_455 S
P184 C210 1.819 . S
H185 C199 0.941 . S
H186 C200 0.939 . S
H187 C202 0.940 . S
H188 C203 0.940 . S
H189 C205 0.939 . S
H190 C206 0.942 . S
H191 C208 0.940 . S
H192 C209 0.939 . S
H193 C211 0.941 . S
H194 C215 0.939 1_655 S
O195 P184 1.490 . S
H196 C212 0.939 . S
H197 C214 0.940 . S
C198 P184 1.812 . S
C198 C199 1.389 . S
C198 C203 1.391 . S
C199 H185 0.941 . S
C199 C198 1.389 . S
C199 C200 1.397 . S
C200 H186 0.939 . S
C200 C199 1.397 . S
C200 C201 1.378 . S
C201 C200 1.378 . S
C201 C202 1.378 . S
C202 H187 0.940 . S
C202 C201 1.378 . S
C202 C203 1.396 . S
C203 H188 0.940 . S
C203 C198 1.391 . S
C203 C202 1.396 . S
C204 P184 1.803 1_655 S
C204 C205 1.378 . S
C204 C209 1.400 . S
C205 H189 0.939 . S
C205 C204 1.378 . S
C205 C206 1.361 . S
C206 H190 0.942 . S
C206 C205 1.361 . S
C206 C207 1.369 . S
C207 C206 1.369 . S
C207 C208 1.404 . S
C208 H191 0.940 . S
C208 C207 1.404 . S
C208 C209 1.389 . S
C209 H192 0.939 . S
C209 C204 1.400 . S
C209 C208 1.389 . S
C210 P184 1.819 . S
C210 C211 1.391 . S
C210 C215 1.391 . S
C211 H193 0.941 . S
C211 C210 1.391 . S
C211 C212 1.396 . S
C212 H196 0.939 . S
C212 C211 1.396 . S
C212 C213 1.397 . S
C213 C212 1.397 . S
C213 C214 1.385 . S
C214 H197 0.940 . S
C214 C213 1.385 . S
C214 C215 1.388 . S
C215 H194 0.939 1_455 S
C215 C210 1.391 . S
C215 C214 1.388 . S
P216 O227 1.490 . S
P216 C230 1.812 1_545 S
P216 C236 1.803 . S
P216 C242 1.819 1_545 S
H217 C231 0.941 . S
H218 C232 0.939 . S
H219 C234 0.940 . S
H220 C235 0.940 . S
H221 C237 0.939 . S
H222 C238 0.942 . S
H223 C240 0.940 . S
H224 C241 0.939 . S
H225 C243 0.941 . S
H226 C247 0.939 1_545 S
O227 P216 1.490 . S
H228 C244 0.939 . S
H229 C246 0.940 . S
C230 P216 1.812 1_565 S
C230 C231 1.389 . S
C230 C235 1.391 . S
C231 H217 0.941 . S
C231 C230 1.389 . S
C231 C232 1.397 . S
C232 H218 0.939 . S
C232 C231 1.397 . S
C232 C233 1.378 . S
C233 C232 1.378 . S
C233 C234 1.378 . S
C234 H219 0.940 . S
C234 C233 1.378 . S
C234 C235 1.396 . S
C235 H220 0.940 . S
C235 C230 1.391 . S
C235 C234 1.396 . S
C236 P216 1.803 . S
C236 C237 1.378 . S
C236 C241 1.400 . S
C237 H221 0.939 . S
C237 C236 1.378 . S
C237 C238 1.361 . S
C238 H222 0.942 . S
C238 C237 1.361 . S
C238 C239 1.369 . S
C239 C238 1.369 . S
C239 C240 1.404 . S
C240 H223 0.940 . S
C240 C239 1.404 . S
C240 C241 1.389 . S
C241 H224 0.939 . S
C241 C236 1.400 . S
C241 C240 1.389 . S
C242 P216 1.819 1_565 S
C242 C243 1.391 . S
C242 C247 1.391 . S
C243 H225 0.941 . S
C243 C242 1.391 . S
C243 C244 1.396 . S
C244 H228 0.939 . S
C244 C243 1.396 . S
C244 C245 1.397 . S
C245 C244 1.397 . S
C245 C246 1.385 . S
C246 H229 0.940 . S
C246 C245 1.385 . S
C246 C247 1.388 . S
C247 H226 0.939 1_565 S
C247 C242 1.391 . S
C247 C246 1.388 . S
P248 O259 1.490 . S
P248 C262 1.812 . S
P248 C268 1.803 . S
P248 C274 1.819 1_556 S
H249 C263 0.941 . S
H250 C264 0.939 . S
H251 C266 0.940 . S
H252 C267 0.940 . S
H253 C269 0.939 . S
H254 C270 0.942 . S
H255 C272 0.940 . S
H256 C273 0.939 . S
H257 C275 0.941 . S
H258 C279 0.939 . S
O259 P248 1.490 . S
H260 C276 0.939 . S
H261 C278 0.940 . S
C262 P248 1.812 . S
C262 C263 1.389 . S
C262 C267 1.391 . S
C263 H249 0.941 . S
C263 C262 1.389 . S
C263 C264 1.397 . S
C264 H250 0.939 . S
C264 C263 1.397 . S
C264 C265 1.378 . S
C265 C264 1.378 . S
C265 C266 1.378 . S
C266 H251 0.940 . S
C266 C265 1.378 . S
C266 C267 1.396 . S
C267 H252 0.940 . S
C267 C262 1.391 . S
C267 C266 1.396 . S
C268 P248 1.803 . S
C268 C269 1.378 1_556 S
C268 C273 1.400 . S
C269 H253 0.939 . S
C269 C268 1.378 1_554 S
C269 C270 1.361 . S
C270 H254 0.942 . S
C270 C269 1.361 . S
C270 C271 1.369 . S
C271 C270 1.369 . S
C271 C272 1.404 1_554 S
C272 H255 0.940 . S
C272 C271 1.404 1_556 S
C272 C273 1.389 . S
C273 H256 0.939 . S
C273 C268 1.400 . S
C273 C272 1.389 . S
C274 P248 1.819 1_554 S
C274 C275 1.391 . S
C274 C279 1.391 . S
C275 H257 0.941 . S
C275 C274 1.391 . S
C275 C276 1.396 . S
C276 H260 0.939 . S
C276 C275 1.396 . S
C276 C277 1.397 . S
C277 C276 1.397 . S
C277 C278 1.385 . S
C278 H261 0.940 . S
C278 C277 1.385 . S
C278 C279 1.388 . S
C279 H258 0.939 . S
C279 C274 1.391 . S
C279 C278 1.388 . S
P280 O291 1.490 . S
P280 C294 1.812 . S
P280 C300 1.803 1_545 S
P280 C306 1.819 . S
H281 C295 0.941 . S
H282 C296 0.939 . S
H283 C298 0.940 . S
H284 C299 0.940 . S
H285 C301 0.939 . S
H286 C302 0.942 . S
H287 C304 0.940 . S
H288 C305 0.939 . S
H289 C307 0.941 . S
H290 C311 0.939 1_565 S
O291 P280 1.490 . S
H292 C308 0.939 . S
H293 C310 0.940 . S
C294 P280 1.812 . S
C294 C295 1.389 . S
C294 C299 1.391 . S
C295 H281 0.941 . S
C295 C294 1.389 . S
C295 C296 1.397 . S
C296 H282 0.939 . S
C296 C295 1.397 . S
C296 C297 1.378 . S
C297 C296 1.378 . S
C297 C298 1.378 . S
C298 H283 0.940 . S
C298 C297 1.378 . S
C298 C299 1.396 . S
C299 H284 0.940 . S
C299 C294 1.391 . S
C299 C298 1.396 . S
C300 P280 1.803 1_565 S
C300 C301 1.378 . S
C300 C305 1.400 . S
C301 H285 0.939 . S
C301 C300 1.378 . S
C301 C302 1.361 . S
C302 H286 0.942 . S
C302 C301 1.361 . S
C302 C303 1.369 . S
C303 C302 1.369 . S
C303 C304 1.404 . S
C304 H287 0.940 . S
C304 C303 1.404 . S
C304 C305 1.389 . S
C305 H288 0.939 . S
C305 C300 1.400 . S
C305 C304 1.389 . S
C306 P280 1.819 . S
C306 C307 1.391 . S
C306 C311 1.391 . S
C307 H289 0.941 . S
C307 C306 1.391 . S
C307 C308 1.396 . S
C308 H292 0.939 . S
C308 C307 1.396 . S
C308 C309 1.397 . S
C309 C308 1.397 . S
C309 C310 1.385 . S
C310 H293 0.940 . S
C310 C309 1.385 . S
C310 C311 1.388 . S
C311 H290 0.939 1_545 S
C311 C306 1.391 . S
C311 C310 1.388 . S
P312 O323 1.490 . S
P312 C326 1.812 . S
P312 C332 1.803 . S
P312 C338 1.819 1_554 S
H313 C327 0.941 . S
H314 C328 0.939 . S
H315 C330 0.940 . S
H316 C331 0.940 . S
H317 C333 0.939 . S
H318 C334 0.942 . S
H319 C336 0.940 . S
H320 C337 0.939 . S
H321 C339 0.941 . S
H322 C343 0.939 . S
O323 P312 1.490 . S
H324 C340 0.939 . S
H325 C342 0.940 . S
C326 P312 1.812 . S
C326 C327 1.389 . S
C326 C331 1.391 . S
C327 H313 0.941 . S
C327 C326 1.389 . S
C327 C328 1.397 . S
C328 H314 0.939 . S
C328 C327 1.397 . S
C328 C329 1.378 . S
C329 C328 1.378 . S
C329 C330 1.378 . S
C330 H315 0.940 . S
C330 C329 1.378 . S
C330 C331 1.396 . S
C331 H316 0.940 . S
C331 C326 1.391 . S
C331 C330 1.396 . S
C332 P312 1.803 . S
C332 C333 1.378 1_554 S
C332 C337 1.400 . S
C333 H317 0.939 . S
C333 C332 1.378 1_556 S
C333 C334 1.361 . S
C334 H318 0.942 . S
C334 C333 1.361 . S
C334 C335 1.369 1_556 S
C335 C334 1.369 1_554 S
C335 C336 1.404 . S
C336 H319 0.940 . S
C336 C335 1.404 . S
C336 C337 1.389 . S
C337 H320 0.939 . S
C337 C332 1.400 . S
C337 C336 1.389 . S
C338 P312 1.819 1_556 S
C338 C339 1.391 . S
C338 C343 1.391 . S
C339 H321 0.941 . S
C339 C338 1.391 . S
C339 C340 1.396 . S
C340 H324 0.939 . S
C340 C339 1.396 . S
C340 C341 1.397 . S
C341 C340 1.397 . S
C341 C342 1.385 . S
C342 H325 0.940 . S
C342 C341 1.385 . S
C342 C343 1.388 . S
C343 H322 0.939 . S
C343 C338 1.391 . S
C343 C342 1.388 . S
C21 C201 1.635 . S
C40 C117 1.858 . S
C149 C54 1.975 . S
C73 C169 2.341 . S
C277 C74 1.969 . S
C297 C10 2.298 . S
C329 C37 1.631 . S
C245 C65 1.896 . S
C52 C137 1.981 . S
C87 C181 2.383 . S
C15 C213 1.642 . S
C105 C32 1.859 . S
C29 C341 1.645 . S
C233 C59 1.939 . S
C265 C84 1.989 . S
C8 C309 2.293 . S
C111 C7 1.987 . S
C143 C30 2.016 . S
C62 C175 2.437 . S
C81 C207 1.594 . S
C239 C76 1.993 . S
C18 C271 2.016 . S
C43 C303 2.436 . S
C51 C335 1.595 . S
