# Generated by pormake.
# Topology anh, (6,3)-cn, num edge types: 1
# Building blocks:
#     Node 0, Type 0, BuildingBlock: PAMTUU_clean_sbu_0, # of connection points: 6
#     Node 1, Type 0, BuildingBlock: PAMTUU_clean_sbu_0, # of connection points: 6
#     Node 2, Type 0, BuildingBlock: PAMTUU_clean_sbu_0, # of connection points: 6
#     Node 3, Type 1, BuildingBlock: BETDIP_clean_linker_0, # of connection points: 3
#     Node 4, Type 1, BuildingBlock: BETDIP_clean_linker_0, # of connection points: 3
#     Node 5, Type 1, BuildingBlock: BETDIP_clean_linker_0, # of connection points: 3
#     Node 6, Type 1, BuildingBlock: BETDIP_clean_linker_0, # of connection points: 3
#     Node 7, Type 1, BuildingBlock: BETDIP_clean_linker_0, # of connection points: 3
#     Node 8, Type 1, BuildingBlock: BETDIP_clean_linker_0, # of connection points: 3
#     Edge 9, Type (0, 1), BuildingBlock: MIFKUJ_clean_linker_0, # of connection points: 2
#     Edge 10, Type (0, 1), BuildingBlock: MIFKUJ_clean_linker_0, # of connection points: 2
#     Edge 11, Type (0, 1), BuildingBlock: MIFKUJ_clean_linker_0, # of connection points: 2
#     Edge 12, Type (0, 1), BuildingBlock: MIFKUJ_clean_linker_0, # of connection points: 2
#     Edge 13, Type (0, 1), BuildingBlock: MIFKUJ_clean_linker_0, # of connection points: 2
#     Edge 14, Type (0, 1), BuildingBlock: MIFKUJ_clean_linker_0, # of connection points: 2
#     Edge 15, Type (0, 1), BuildingBlock: MIFKUJ_clean_linker_0, # of connection points: 2
#     Edge 16, Type (0, 1), BuildingBlock: MIFKUJ_clean_linker_0, # of connection points: 2
#     Edge 17, Type (0, 1), BuildingBlock: MIFKUJ_clean_linker_0, # of connection points: 2
#     Edge 18, Type (0, 1), BuildingBlock: MIFKUJ_clean_linker_0, # of connection points: 2
#     Edge 19, Type (0, 1), BuildingBlock: MIFKUJ_clean_linker_0, # of connection points: 2
#     Edge 20, Type (0, 1), BuildingBlock: MIFKUJ_clean_linker_0, # of connection points: 2
#     Edge 21, Type (0, 1), BuildingBlock: MIFKUJ_clean_linker_0, # of connection points: 2
#     Edge 22, Type (0, 1), BuildingBlock: MIFKUJ_clean_linker_0, # of connection points: 2
#     Edge 23, Type (0, 1), BuildingBlock: MIFKUJ_clean_linker_0, # of connection points: 2
#     Edge 24, Type (0, 1), BuildingBlock: MIFKUJ_clean_linker_0, # of connection points: 2
#     Edge 25, Type (0, 1), BuildingBlock: MIFKUJ_clean_linker_0, # of connection points: 2
#     Edge 26, Type (0, 1), BuildingBlock: MIFKUJ_clean_linker_0, # of connection points: 2
# Relax obj value: 0.180
# Max RMSD: 0.167
# Mean RMSD: 0.113
data_MOF--net-anh--node1-PAMTUU_clean_sbu_0--node2-BETDIP_clean_linker_0--edge1-MIFKUJ_clean_linker_0
_symmetry_space_group_name_H-M    P1
_symmetry_Int_Tables_number       1
_symmetry_cell_setting            triclinic
loop_
_symmetry_equiv_pos_as_xyz
'x, y, z'
_cell_length_a     41.032923
_cell_length_b     40.796889
_cell_length_c     64.749193
_cell_angle_alpha  96.241173
_cell_angle_beta   90.721346
_cell_angle_gamma 120.15997
loop_
_atom_site_label
_atom_site_type_symbol
_atom_site_fract_x
_atom_site_fract_y
_atom_site_fract_z
_atom_type_partial_charge
Tb0 Tb 1.0517 0.57768 0.15843 0.0
Tb1 Tb 0.09221 0.52817 0.15286 0.0
C2 C 0.07402 0.55821 0.11385 0.0
C3 C 0.98892 0.61533 0.1764 0.0
C4 C 0.92977 0.61613 0.19752 0.0
C5 C 0.95705 0.64878 0.18927 0.0
C6 C 0.9863 0.64833 0.17885 0.0
C7 C 0.96297 0.58312 0.18537 0.0
C8 C 0.93345 0.58348 0.19583 0.0
C9 C 1.01773 0.61482 0.16349 0.0
O10 O 1.00648 0.51889 0.16407 0.0
O11 O 1.03057 0.48369 0.14819 0.0
O12 O 0.07277 0.52302 0.18399 0.0
O13 O 0.073 0.57914 0.18954 0.0
O14 O 0.09981 0.48617 0.13566 0.0
O15 O 0.12951 0.5137 0.16593 0.0
O16 O 0.1409 0.58888 0.15995 0.0
O17 O 0.11108 0.62222 0.15422 0.0
O18 O 1.05138 0.56605 0.12469 0.0
O19 O 0.09563 0.54763 0.12257 0.0
C20 C 1.0018 0.48499 0.1566 0.0
O21 O 1.05013 0.62533 0.17315 0.0
O22 O 1.00654 0.58482 0.14968 0.0
C23 C 0.0732 0.55047 0.19665 0.0
C24 C 0.16236 0.49976 0.14076 0.0
C25 C 0.23546 0.52231 0.12883 0.0
C26 C 0.2174 0.49246 0.14106 0.0
C27 C 0.18103 0.48125 0.14698 0.0
C28 C 0.17983 0.52883 0.12807 0.0
C29 C 0.21607 0.5399 0.12206 0.0
C30 C 0.12641 0.49128 0.14913 0.0
C31 C 0.14286 0.62194 0.1578 0.0
H32 H 0.95466 0.6741 0.18973 0.0
H33 H 1.0061 0.67338 0.17199 0.0
H34 H 0.96484 0.55741 0.18371 0.0
H35 H 0.91291 0.55793 0.202 0.0
H36 H 0.23168 0.47829 0.14637 0.0
H37 H 0.16793 0.45893 0.1569 0.0
H38 H 0.16593 0.54377 0.12338 0.0
H39 H 0.22953 0.56334 0.11288 0.0
Tb40 Tb 0.52398 0.07636 0.48943 0.0
Tb41 Tb 0.6142 0.12129 0.4925 0.0
C42 C 0.56682 0.09059 0.44921 0.0
C43 C 0.42489 1.00647 0.49812 0.0
C44 C 0.37291 0.94075 0.51543 0.0
C45 C 0.39025 0.93755 0.4973 0.0
C46 C 0.416 0.96997 0.48879 0.0
C47 C 0.40698 1.0098 0.51593 0.0
C48 C 0.38124 0.97725 0.52452 0.0
C49 C 0.45305 0.04109 0.48962 0.0
O50 O 0.53623 1.02812 0.48686 0.0
O51 O 0.59984 0.0618 0.49688 0.0
O52 O 0.59775 0.12977 0.52357 0.0
O53 O 0.54337 0.07233 0.5197 0.0
O54 O 0.66393 0.15354 0.47817 0.0
O55 O 0.66589 0.13704 0.50859 0.0
O56 O 0.60236 0.16893 0.49062 0.0
O57 O 0.53925 0.13774 0.49604 0.0
O58 O 0.53897 0.09144 0.45836 0.0
O59 O 0.59521 0.09337 0.46037 0.0
C60 C 0.5678 1.02845 0.49245 0.0
O61 O 0.47567 0.07011 0.50337 0.0
O62 O 0.47105 1.0363 0.47414 0.0
C63 C 0.57087 0.10111 0.53164 0.0
C64 C 0.71869 0.19517 0.50096 0.0
C65 C 0.79004 0.26233 0.50962 0.0
C66 C 0.77677 0.23453 0.5233 0.0
C67 C 0.74151 0.20117 0.51894 0.0
C68 C 0.73079 0.22418 0.4881 0.0
C69 C 0.76607 0.25739 0.49239 0.0
C70 C 0.68548 0.15695 0.4942 0.0
C71 C 0.57105 0.17003 0.49414 0.0
H72 H 0.38356 0.90986 0.4894 0.0
H73 H 0.42891 0.96628 0.47492 0.0
H74 H 0.41317 1.03764 0.52335 0.0
H75 H 0.36839 0.98076 0.53846 0.0
H76 H 0.7944 0.23771 0.53683 0.0
H77 H 0.73298 0.17924 0.52909 0.0
H78 H 0.71404 0.22042 0.47404 0.0
H79 H 0.77555 0.27788 0.48133 0.0
Tb80 Tb 0.59716 0.54872 0.82409 0.0
Tb81 Tb 0.64393 0.64101 0.83034 0.0
C82 C 0.61175 0.59416 0.78477 0.0
C83 C 0.57305 0.44979 0.82959 0.0
C84 C 0.58964 0.39648 0.84362 0.0
C85 C 0.55351 0.38461 0.83439 0.0
C86 C 0.54533 0.41106 0.82744 0.0
C87 C 0.60889 0.46211 0.83926 0.0
C88 C 0.6172 0.4356 0.84616 0.0
C89 C 0.56456 0.47674 0.82105 0.0
O90 O 0.65793 0.56319 0.82703 0.0
O91 O 0.69149 0.62871 0.82821 0.0
O92 O 0.65774 0.62541 0.85853 0.0
O93 O 0.60537 0.56639 0.85762 0.0
O94 O 0.67655 0.69419 0.81944 0.0
O95 O 0.65897 0.6908 0.85072 0.0
O96 O 0.58355 0.62501 0.83532 0.0
O97 O 0.55007 0.5613 0.82259 0.0
O98 O 0.59597 0.56145 0.79236 0.0
O99 O 0.63141 0.62712 0.79669 0.0
C100 C 0.69098 0.59574 0.82802 0.0
O101 O 0.55674 0.49749 0.83446 0.0
O102 O 0.58767 0.49698 0.80788 0.0
C103 C 0.6352 0.59607 0.86776 0.0
C104 C 0.65784 0.73732 0.83339 0.0
C105 C 0.62464 0.78282 0.83186 0.0
C106 C 0.66371 0.79997 0.83686 0.0
C107 C 0.68019 0.77723 0.83782 0.0
C108 C 0.61915 0.72043 0.82753 0.0
C109 C 0.60262 0.74295 0.82697 0.0
C110 C 0.67376 0.71288 0.83633 0.0
C111 C 0.55044 0.59329 0.82962 0.0
H112 H 0.53187 0.35463 0.83181 0.0
H113 H 0.51759 0.40113 0.81997 0.0
H114 H 0.63059 0.49208 0.84114 0.0
H115 H 0.6452 0.4456 0.85328 0.0
H116 H 0.68116 0.83074 0.84062 0.0
H117 H 0.71009 0.79068 0.8424 0.0
H118 H 0.60154 0.68974 0.82381 0.0
H119 H 0.57254 0.72919 0.82278 0.0
H120 H 0.54257 1.02119 0.16145 0.0
H121 H 0.60339 0.08805 0.22007 0.0
H122 H 0.49567 0.98562 0.21982 0.0
H123 H 0.62397 0.13859 0.20235 0.0
C124 C 0.6336 0.12968 0.18848 0.0
C125 C 0.54458 1.02586 0.17831 0.0
C126 C 0.51434 0.99787 0.18935 0.0
C127 C 0.57708 0.06036 0.18928 0.0
C128 C 0.57865 0.06438 0.21127 0.0
C129 C 0.54978 1.03777 0.22236 0.0
C130 C 0.51813 1.00548 0.21124 0.0
N131 N 0.60831 0.0899 0.17883 0.0
H132 H 0.56854 0.56822 0.49883 0.0
H133 H 0.5753 0.63271 0.55817 0.0
H134 H 0.57773 0.52846 0.55653 0.0
H135 H 0.6039 0.68444 0.54029 0.0
C136 C 0.58462 0.67508 0.52645 0.0
C137 C 0.57114 0.57202 0.51569 0.0
C138 C 0.57284 0.54318 0.52635 0.0
C139 C 0.57295 0.60594 0.52703 0.0
C140 C 0.57562 0.60903 0.54906 0.0
C141 C 0.57686 0.58113 0.5597 0.0
C142 C 0.57586 0.54922 0.54821 0.0
N143 N 0.57051 0.63548 0.51679 0.0
H144 H 0.08664 0.59183 0.83186 0.0
H145 H 0.14091 0.59027 0.88926 0.0
H146 H 1.03603 0.58986 0.89017 0.0
H147 H 0.19577 0.62465 0.87308 0.0
C148 C 0.18885 0.60554 0.85861 0.0
C149 C 0.08726 0.59143 0.84854 0.0
C150 C 1.05666 0.5916 0.85981 0.0
C151 C 0.11915 0.59163 0.85913 0.0
C152 C 0.11827 0.5908 0.88086 0.0
C153 C 0.08868 0.59013 0.89208 0.0
C154 C 0.0588 0.5908 0.88145 0.0
N155 N 0.15083 0.59126 0.84849 0.0
H156 H 0.18801 0.56531 0.46874 0.0
H157 H 0.14739 0.50157 0.40777 0.0
H158 H 0.13019 0.59624 0.42598 0.0
H159 H 0.16944 0.44781 0.43839 0.0
C160 C 0.15886 0.46654 0.44392 0.0
C161 C 0.17278 0.5601 0.45383 0.0
C162 C 0.15865 0.58367 0.44931 0.0
C163 C 0.16757 0.52983 0.4391 0.0
C164 C 0.14951 0.52393 0.41937 0.0
C165 C 0.13692 0.54857 0.41422 0.0
C166 C 0.14059 0.57761 0.42956 0.0
N167 N 0.18239 0.50653 0.44382 0.0
H168 H 0.45344 1.01263 0.79743 0.0
H169 H 0.43107 0.98207 0.73102 0.0
H170 H 0.53393 0.08353 0.75665 0.0
H171 H 0.36766 0.92593 0.78916 0.0
C172 C 0.39584 0.93878 0.7837 0.0
C173 C 0.46229 1.01818 0.78187 0.0
C174 C 0.49683 0.05084 0.77919 0.0
C175 C 0.43871 0.9932 0.76446 0.0
C176 C 0.44965 1.00112 0.74438 0.0
C177 C 0.48425 1.03342 0.74148 0.0
C178 C 0.50764 0.05807 0.75892 0.0
N179 N 0.40333 0.96043 0.76677 0.0
H180 H 0.6493 0.74252 0.12343 0.0
H181 H 0.73757 0.73592 0.09164 0.0
H182 H 0.62077 0.6524 0.07321 0.0
H183 H 0.78158 0.81084 0.13303 0.0
C184 C 0.75758 0.78185 0.13138 0.0
C185 C 0.65784 0.72804 0.11159 0.0
C186 C 0.63053 0.6952 0.09886 0.0
C187 C 0.69629 0.74233 0.10932 0.0
C188 C 0.70777 0.72423 0.09376 0.0
C189 C 0.68053 0.69169 0.08055 0.0
C190 C 0.64203 0.67727 0.0834 0.0
N191 N 0.72281 0.77572 0.12256 0.0
H192 H 0.29398 0.53809 0.15614 0.0
H193 H 0.3609 0.56748 0.1498 0.0
H194 H 0.33428 0.57049 0.08562 0.0
H195 H 0.26701 0.54059 0.0918 0.0
H196 H 0.38692 0.54602 0.09125 0.0
H197 H 0.36647 0.64867 0.11769 0.0
H198 H 0.34389 0.6814 0.14275 0.0
H199 H 0.41928 0.68699 0.19139 0.0
H200 H 0.44185 0.65367 0.16671 0.0
H201 H 0.57398 0.67365 0.06876 0.0
H202 H 0.50629 0.64462 0.073 0.0
H203 H 0.52786 0.65209 0.13927 0.0
H204 H 0.59571 0.68157 0.13507 0.0
H205 H 0.47693 0.67201 0.13158 0.0
H206 H 0.49537 0.56772 0.10719 0.0
H207 H 0.51715 0.53215 0.08369 0.0
H208 H 0.44609 0.5276 0.0329 0.0
H209 H 0.42421 0.56361 0.05606 0.0
C210 C 0.3023 0.5444 0.14059 0.0
C211 C 0.27539 0.53711 0.12445 0.0
C212 C 0.3405 0.56146 0.13705 0.0
C213 C 0.35239 0.57148 0.11732 0.0
C214 C 0.32552 0.56304 0.10097 0.0
C215 C 0.28726 0.54619 0.10454 0.0
C216 C 0.39305 0.59174 0.114 0.0
C217 C 0.4066 0.57383 0.0998 0.0
C218 C 0.41859 0.62757 0.1256 0.0
C219 C 0.40556 0.64828 0.14038 0.0
C220 C 0.37803 0.65661 0.13376 0.0
C221 C 0.36526 0.6753 0.14789 0.0
C222 C 0.38001 0.68608 0.16866 0.0
C223 C 0.4078 0.6785 0.1753 0.0
C224 C 0.42061 0.65973 0.16125 0.0
C225 C 0.56419 0.66901 0.0842 0.0
C226 C 0.58989 0.67952 0.10157 0.0
C227 C 0.5256 0.65246 0.08661 0.0
C228 C 0.51205 0.64569 0.10641 0.0
C229 C 0.53778 0.65707 0.12386 0.0
C230 C 0.57644 0.6739 0.12146 0.0
C231 C 0.47098 0.62621 0.1089 0.0
C232 C 0.45731 0.64429 0.12293 0.0
C233 C 0.44536 0.59035 0.0973 0.0
C234 C 0.45839 0.56863 0.08332 0.0
C235 C 0.48458 0.55938 0.09098 0.0
C236 C 0.49691 0.53909 0.07772 0.0
C237 C 0.48299 0.52761 0.05682 0.0
C238 C 0.45678 0.53646 0.04911 0.0
C239 C 0.44439 0.55679 0.06229 0.0
H240 H 0.49246 0.51176 0.04662 0.0
H241 H 0.3699 0.7003 0.17961 0.0
H242 H 0.81983 0.33701 0.50259 0.0
H243 H 0.88572 0.38136 0.49662 0.0
H244 H 0.91709 0.30123 0.51397 0.0
H245 H 0.85165 0.2567 0.51963 0.0
H246 H 0.97384 0.37634 0.52559 0.0
H247 H 0.89024 0.29489 0.46481 0.0
H248 H 0.83314 0.26955 0.44088 0.0
H249 H 0.86942 0.38274 0.42665 0.0
H250 H 0.92646 0.40883 0.45079 0.0
H251 H 0.0975 0.39624 0.43283 0.0
H252 H 1.03616 0.36821 0.44804 0.0
H253 H 0.0762 0.47195 0.49078 0.0
H254 H 0.13767 0.49915 0.47631 0.0
H255 H 0.9841 0.39016 0.45032 0.0
H256 H 1.03541 0.44813 0.53676 0.0
H257 H 0.09166 0.46927 0.56069 0.0
H258 H 0.12012 0.39564 0.52266 0.0
H259 H 0.06381 0.37373 0.49866 0.0
C260 C 0.84093 0.32923 0.50557 0.0
C261 C 0.83037 0.29306 0.51125 0.0
C262 C 0.87854 0.35465 0.50225 0.0
C263 C 0.90603 0.3442 0.50452 0.0
C264 C 0.89626 0.30981 0.51215 0.0
C265 C 0.85873 0.28438 0.51543 0.0
C266 C 0.94328 0.36578 0.49605 0.0
C267 C 0.9762 0.37986 0.5092 0.0
C268 C 0.94618 0.36959 0.47458 0.0
C269 C 0.91236 0.35384 0.45974 0.0
C270 C 0.88591 0.31439 0.45666 0.0
C271 C 0.85357 0.29989 0.44307 0.0
C272 C 0.84761 0.32453 0.43229 0.0
C273 C 0.87404 0.36371 0.43503 0.0
C274 C 0.90637 0.37836 0.44867 0.0
C275 C 0.09302 0.41295 0.44544 0.0
C276 C 0.12183 0.45019 0.45297 0.0
C277 C 1.05806 0.39707 0.45404 0.0
C278 C 1.05165 0.41806 0.47051 0.0
C279 C 0.08055 0.45525 0.47811 0.0
C280 C 0.11547 0.47102 0.46956 0.0
C281 C 1.01483 0.40076 0.47985 0.0
C282 C 0.98192 0.38739 0.4668 0.0
C283 C 1.01199 0.39713 0.50135 0.0
C284 C 1.04564 0.40964 0.51581 0.0
C285 C 1.05362 0.43638 0.53355 0.0
C286 C 0.08552 0.4485 0.54712 0.0
C287 C 0.10952 0.43391 0.54315 0.0
C288 C 0.10159 0.40704 0.52566 0.0
C289 C 0.06972 0.3948 0.51206 0.0
H290 H 0.13422 0.44336 0.55366 0.0
H291 H 0.82255 0.31327 0.42177 0.0
H292 H 0.64156 0.84182 0.80975 0.0
H293 H 0.60561 0.87436 0.80661 0.0
H294 H 0.53096 0.80869 0.85145 0.0
H295 H 0.56589 0.77501 0.8538 0.0
H296 H 0.49084 0.80534 0.82055 0.0
H297 H 0.59601 0.90866 0.86184 0.0
H298 H 0.66296 0.95559 0.87263 0.0
H299 H 0.67442 1.00407 0.81567 0.0
H300 H 0.60765 0.95708 0.80437 0.0
H301 H 0.39362 0.91046 0.81985 0.0
H302 H 0.43528 0.88914 0.83308 0.0
H303 H 0.49929 0.92081 0.77911 0.0
H304 H 0.4571 0.94024 0.76537 0.0
H305 H 0.54419 0.94436 0.81918 0.0
H306 H 0.43857 0.83398 0.7777 0.0
H307 H 0.37096 0.78715 0.76865 0.0
H308 H 0.36037 0.75305 0.82981 0.0
H309 H 0.42786 0.80017 0.83933 0.0
C310 C 0.61784 0.83492 0.81915 0.0
C311 C 0.60626 0.80596 0.83193 0.0
C312 C 0.59742 0.85362 0.81746 0.0
C313 C 0.56569 0.84427 0.82895 0.0
C314 C 0.5552 0.81634 0.84239 0.0
C315 C 0.57514 0.79719 0.84376 0.0
C316 C 0.5415 0.86098 0.82555 0.0
C317 C 0.50254 0.83587 0.82075 0.0
C318 C 0.55664 0.90075 0.82548 0.0
C319 C 0.59686 0.92911 0.83219 0.0
C320 C 0.61287 0.92913 0.85153 0.0
C321 C 0.65079 0.95578 0.85776 0.0
C322 C 0.67295 0.98274 0.84483 0.0
C323 C 0.65722 0.98315 0.82566 0.0
C324 C 0.61932 0.95654 0.81935 0.0
C325 C 0.4168 0.91313 0.81093 0.0
C326 C 0.42262 0.92803 0.79188 0.0
C327 C 0.44055 0.90108 0.81851 0.0
C328 C 0.47051 0.90386 0.80714 0.0
C329 C 0.47669 0.91912 0.78825 0.0
C330 C 0.45264 0.93057 0.78052 0.0
C331 C 0.49408 0.88863 0.81411 0.0
C332 C 0.53275 0.91398 0.81944 0.0
C333 C 0.47867 0.84917 0.81503 0.0
C334 C 0.43811 0.82096 0.80932 0.0
C335 C 0.42173 0.8168 0.78929 0.0
C336 C 0.38345 0.79014 0.78406 0.0
C337 C 0.36135 0.76724 0.79867 0.0
C338 C 0.3775 0.77089 0.81853 0.0
C339 C 0.41575 0.79756 0.82385 0.0
H340 H 0.33173 0.74659 0.79458 0.0
H341 H 0.7023 1.00336 0.84968 0.0
H342 H 0.85632 0.55762 0.18946 0.0
H343 H 0.80171 0.56615 0.18827 0.0
H344 H 0.87049 0.68176 0.21895 0.0
H345 H 0.92441 0.67251 0.22155 0.0
H346 H 0.79833 0.65986 0.22224 0.0
H347 H 0.87755 0.65995 0.16612 0.0
H348 H 0.90481 0.62896 0.14329 0.0
H349 H 0.79321 0.53829 0.12051 0.0
H350 H 0.76535 0.56857 0.14348 0.0
H351 H 0.82146 0.78942 0.14836 0.0
H352 H 0.82901 0.74481 0.16748 0.0
H353 H 0.70892 0.66582 0.15891 0.0
H354 H 0.7006 0.71101 0.14109 0.0
H355 H 0.78432 0.65158 0.14527 0.0
H356 H 0.70949 0.67073 0.198 0.0
H357 H 0.69229 0.71106 0.221 0.0
H358 H 0.80563 0.77513 0.24978 0.0
H359 H 0.82364 0.73557 0.22666 0.0
C360 C 0.85933 0.58405 0.19712 0.0
C361 C 0.89511 0.61511 0.20471 0.0
C362 C 0.82801 0.58896 0.19631 0.0
C363 C 0.83259 0.62522 0.20252 0.0
C364 C 0.86645 0.65377 0.21359 0.0
C365 C 0.89748 0.6486 0.21485 0.0
C366 C 0.80772 0.6369 0.19284 0.0
C367 C 0.79446 0.65731 0.20542 0.0
C368 C 0.80286 0.63389 0.17084 0.0
C369 C 0.81943 0.61624 0.15661 0.0
C370 C 0.85888 0.63339 0.15623 0.0
C371 C 0.87442 0.61594 0.14331 0.0
C372 C 0.85075 0.58164 0.13048 0.0
C373 C 0.81149 0.56481 0.13049 0.0
C374 C 0.79581 0.58207 0.14346 0.0
C375 C 0.79659 0.76266 0.15065 0.0
C376 C 0.76067 0.75354 0.14262 0.0
C377 C 0.80093 0.73736 0.16165 0.0
C378 C 0.76945 0.70233 0.16469 0.0
C379 C 0.73345 0.69296 0.15683 0.0
C380 C 0.72895 0.71868 0.14621 0.0
C381 C 0.77546 0.6748 0.17466 0.0
C382 C 0.78599 0.65211 0.16207 0.0
C383 C 0.77862 0.67661 0.19656 0.0
C384 C 0.76799 0.7005 0.21043 0.0
C385 C 0.73085 0.69374 0.20904 0.0
C386 C 0.72093 0.71637 0.22215 0.0
C387 C 0.74788 0.74572 0.2368 0.0
C388 C 0.7848 0.75243 0.2384 0.0
C389 C 0.79486 0.7299 0.22531 0.0
H390 H 0.74014 0.76319 0.24694 0.0
H391 H 0.86282 0.56813 0.1205 0.0
H392 H 0.37666 0.87644 0.51787 0.0
H393 H 0.32471 0.81384 0.52234 0.0
H394 H 0.25551 0.86309 0.53945 0.0
H395 H 0.30664 0.92564 0.53295 0.0
H396 H 0.27682 0.77065 0.54532 0.0
H397 H 0.16876 0.80573 0.51829 0.0
H398 H 0.16325 0.85567 0.50281 0.0
H399 H 0.26084 0.88091 0.46901 0.0
H400 H 0.26665 0.83093 0.4842 0.0
H401 H 0.14616 0.58569 0.49084 0.0
H402 H 0.16374 0.64275 0.51599 0.0
H403 H 0.20724 0.71326 0.46661 0.0
H404 H 0.18864 0.65677 0.44168 0.0
H405 H 0.17583 0.74094 0.4912 0.0
H406 H 0.26378 0.69269 0.50092 0.0
H407 H 0.27779 0.64381 0.51044 0.0
H408 H 0.23355 0.64679 0.56993 0.0
H409 H 0.21901 0.69548 0.56064 0.0
C410 C 0.35045 0.87406 0.52267 0.0
C411 C 0.34519 0.90565 0.52401 0.0
C412 C 0.32084 0.83823 0.52564 0.0
C413 C 0.28553 0.83336 0.5305 0.0
C414 C 0.28206 0.86591 0.53501 0.0
C415 C 0.31149 0.90178 0.53144 0.0
C416 C 0.2519 0.7942 0.5266 0.0
C417 C 0.25412 0.7641 0.53387 0.0
C418 C 0.22182 0.78533 0.51186 0.0
C419 C 0.21837 0.81508 0.50255 0.0
C420 C 0.18896 0.82197 0.50754 0.0
C421 C 0.1858 0.85024 0.49883 0.0
C422 C 0.21176 0.87154 0.485 0.0
C423 C 0.24081 0.86447 0.47976 0.0
C424 C 0.24403 0.83617 0.48839 0.0
C425 C 0.15901 0.61346 0.48545 0.0
C426 C 0.16614 0.61701 0.46438 0.0
C427 C 0.16899 0.64594 0.49977 0.0
C428 C 0.18704 0.68238 0.49325 0.0
C429 C 0.19293 0.68551 0.47205 0.0
C430 C 0.18245 0.65321 0.45777 0.0
C431 C 0.20354 0.71804 0.50821 0.0
C432 C 0.1973 0.74725 0.50342 0.0
C433 C 0.23107 0.72626 0.52442 0.0
C434 C 0.2399 0.69723 0.53001 0.0
C435 C 0.25691 0.68274 0.51599 0.0
C436 C 0.26494 0.65511 0.52134 0.0
C437 C 0.25644 0.6421 0.54075 0.0
C438 C 0.24001 0.65681 0.55488 0.0
C439 C 0.23186 0.6844 0.54959 0.0
H440 H 0.26267 0.62071 0.54487 0.0
H441 H 0.20931 0.89346 0.4783 0.0
H442 H 0.54599 0.33341 0.8626 0.0
H443 H 0.55354 0.27811 0.86311 0.0
H444 H 0.66197 0.33833 0.83762 0.0
H445 H 0.65373 0.39343 0.83625 0.0
H446 H 0.61815 0.27585 0.81351 0.0
H447 H 0.65309 0.3017 0.88528 0.0
H448 H 0.65241 0.32104 0.9226 0.0
H449 H 0.54049 0.2248 0.92324 0.0
H450 H 0.54016 0.20515 0.88585 0.0
H451 H 0.57371 0.08862 0.78726 0.0
H452 H 0.61179 0.14874 0.81038 0.0
H453 H 0.51022 0.13936 0.83427 0.0
H454 H 0.4721 0.07954 0.81123 0.0
H455 H 0.5748 0.181 0.86362 0.0
H456 H 0.53488 0.1775 0.79064 0.0
H457 H 0.53167 0.15719 0.75302 0.0
H458 H 0.65277 0.21221 0.75566 0.0
H459 H 0.65658 0.23271 0.7934 0.0
C460 C 0.57182 0.3352 0.8575 0.0
C461 C 0.59882 0.3674 0.84893 0.0
C462 C 0.57644 0.30371 0.85811 0.0
C463 C 0.6084 0.30395 0.85042 0.0
C464 C 0.63709 0.33749 0.84365 0.0
C465 C 0.63238 0.36902 0.84294 0.0
C466 C 0.60768 0.26715 0.84562 0.0
C467 C 0.61024 0.2557 0.82474 0.0
C468 C 0.59671 0.24045 0.8601 0.0
C469 C 0.59663 0.25195 0.88268 0.0
C470 C 0.62822 0.28474 0.89333 0.0
C471 C 0.62802 0.29576 0.91452 0.0
C472 C 0.59643 0.27416 0.92528 0.0
C473 C 0.56497 0.24147 0.91488 0.0
C474 C 0.56501 0.23032 0.89369 0.0
C475 C 0.55963 0.09879 0.79795 0.0
C476 C 0.51992 0.07994 0.79711 0.0
C477 C 0.58143 0.13293 0.81126 0.0
C478 C 0.56373 0.14876 0.82373 0.0
C479 C 0.52441 0.12757 0.82477 0.0
C480 C 0.50261 0.09338 0.81153 0.0
C481 C 0.58406 0.19008 0.83161 0.0
C482 C 0.58478 0.20204 0.85284 0.0
C483 C 0.59804 0.21748 0.81753 0.0
C484 C 0.59599 0.20631 0.79479 0.0
C485 C 0.56079 0.18519 0.78317 0.0
C486 C 0.55886 0.17361 0.76185 0.0
C487 C 0.59198 0.18321 0.75195 0.0
C488 C 0.62713 0.20469 0.76335 0.0
C489 C 0.6292 0.21636 0.7847 0.0
H490 H 0.5904 0.17409 0.73545 0.0
H491 H 0.59633 0.28275 0.94169 0.0
H492 H 0.50994 0.95137 0.4815 0.0
H493 H 0.51001 0.89202 0.48469 0.0
H494 H 0.62449 0.95776 0.51224 0.0
H495 H 0.62486 1.01697 0.5082 0.0
H496 H 0.6245 0.90257 0.49326 0.0
H497 H 0.53019 0.89521 0.53823 0.0
H498 H 0.47191 0.89391 0.54853 0.0
H499 H 0.40577 0.7957 0.50293 0.0
H500 H 0.46373 0.79671 0.49217 0.0
H501 H 0.63026 0.75178 0.53795 0.0
H502 H 0.62505 0.80643 0.53079 0.0
H503 H 0.52286 0.73117 0.49182 0.0
H504 H 0.52828 0.67542 0.49904 0.0
H505 H 0.5142 0.78827 0.51476 0.0
H506 H 0.61128 0.79543 0.47185 0.0
H507 H 0.67069 0.7971 0.46395 0.0
H508 H 0.73299 0.8975 0.50876 0.0
H509 H 0.67387 0.89615 0.51712 0.0
C510 C 0.53532 0.95355 0.48827 0.0
C511 C 0.56739 0.99036 0.49451 0.0
C512 C 0.53526 0.91883 0.49037 0.0
C513 C 0.56702 0.91846 0.49926 0.0
C514 C 0.59912 0.95539 0.50533 0.0
C515 C 0.59931 0.99004 0.50303 0.0
C516 C 0.56743 0.88065 0.50191 0.0
C517 C 0.6002 0.8781 0.49827 0.0
C518 C 0.53617 0.84674 0.50801 0.0
C519 C 0.50135 0.84629 0.51424 0.0
C520 C 0.50325 0.87352 0.53029 0.0
C521 C 0.47027 0.87281 0.53622 0.0
C522 C 0.43518 0.84477 0.52637 0.0
C523 C 0.43299 0.81742 0.51053 0.0
C524 C 0.46589 0.81805 0.50451 0.0
C525 C 0.60671 0.7463 0.52753 0.0
C526 C 0.58023 0.70799 0.51896 0.0
C527 C 0.60373 0.77834 0.52337 0.0
C528 C 0.57373 0.77463 0.51041 0.0
C529 C 0.5467 0.73624 0.50183 0.0
C530 C 0.55 0.70381 0.50584 0.0
C531 C 0.57129 0.81066 0.50626 0.0
C532 C 0.53831 0.81286 0.50969 0.0
C533 C 0.60251 0.84452 0.50027 0.0
C534 C 0.63809 0.84549 0.49524 0.0
C535 C 0.63762 0.81771 0.48012 0.0
C536 C 0.67125 0.81863 0.47554 0.0
C537 C 0.70558 0.84733 0.48588 0.0
C538 C 0.70637 0.87525 0.50078 0.0
C539 C 0.67281 0.87445 0.50543 0.0
H540 H 0.73159 0.84799 0.48232 0.0
H541 H 0.40967 0.84412 0.53107 0.0
H542 H 0.70414 0.53418 0.82068 0.0
H543 H 0.76294 0.53279 0.82333 0.0
H544 H 0.82476 0.65411 0.84345 0.0
H545 H 0.76598 0.65574 0.83947 0.0
H546 H 0.87262 0.64585 0.82522 0.0
H547 H 0.79791 0.56584 0.8757 0.0
H548 H 0.74108 0.51192 0.88734 0.0
H549 H 0.75336 0.43274 0.84349 0.0
H550 H 0.81001 0.48619 0.83141 0.0
H551 H 1.04262 0.65187 0.86442 0.0
H552 H 0.98372 0.65216 0.85835 0.0
H553 H 0.92837 0.53389 0.83172 0.0
H554 H 0.98773 0.53371 0.83813 0.0
H555 H 0.87728 0.53947 0.85258 0.0
H556 H 0.95303 0.61952 0.8031 0.0
H557 H 1.00875 0.67348 0.79075 0.0
H558 H 0.99412 0.75293 0.83307 0.0
H559 H 0.93855 0.6994 0.84584 0.0
C560 C 0.7301 0.56083 0.82567 0.0
C561 C 0.72884 0.5951 0.82979 0.0
C562 C 0.76456 0.55997 0.82755 0.0
C563 C 0.80027 0.59314 0.83435 0.0
C564 C 0.79894 0.62748 0.83826 0.0
C565 C 0.76453 0.62845 0.83599 0.0
C566 C 0.83832 0.5924 0.83707 0.0
C567 C 0.8731 0.62259 0.83157 0.0
C568 C 0.84126 0.56221 0.84483 0.0
C569 C 0.80799 0.53003 0.85252 0.0
C570 C 0.78845 0.53692 0.86853 0.0
C571 C 0.75626 0.50647 0.87519 0.0
C572 C 0.74357 0.46896 0.86612 0.0
C573 C 0.76319 0.46181 0.85048 0.0
C574 C 0.79537 0.49216 0.84373 0.0
C575 C 1.01847 0.6261 0.85653 0.0
C576 C 1.02188 0.59333 0.85096 0.0
C577 C 0.98389 0.62616 0.85309 0.0
C578 C 0.94982 0.59324 0.84402 0.0
C579 C 0.95311 0.56028 0.83853 0.0
C580 C 0.98791 0.56031 0.84191 0.0
C581 C 0.91145 0.59309 0.84091 0.0
C582 C 0.8767 0.56276 0.84632 0.0
C583 C 0.90853 0.62324 0.83319 0.0
C584 C 0.94187 0.65544 0.82556 0.0
C585 C 0.96185 0.64849 0.80986 0.0
C586 C 0.99338 0.679 0.80278 0.0
C587 C 1.00503 0.7166 0.81116 0.0
C588 C 0.9851 0.72378 0.82661 0.0
C589 C 0.95357 0.69338 0.83377 0.0
H590 H 1.02944 0.74018 0.80565 0.0
H591 H 0.71856 0.44544 0.87124 0.0
H592 H 0.15855 0.69768 0.16105 0.0
H593 H 0.21884 0.758 0.16475 0.0
H594 H 0.2784 0.69598 0.16195 0.0
H595 H 0.21766 0.63539 0.15924 0.0
H596 H 0.32298 0.75495 0.18513 0.0
H597 H 0.26693 0.75255 0.12001 0.0
H598 H 0.21835 0.7473 0.09488 0.0
H599 H 0.22096 0.84444 0.12978 0.0
H600 H 0.26926 0.84998 0.15528 0.0
H601 H 0.50326 0.92529 0.17454 0.0
H602 H 0.44379 0.86342 0.16767 0.0
H603 H 0.38065 0.92086 0.17882 0.0
H604 H 0.44014 0.98256 0.18545 0.0
H605 H 0.33921 0.86363 0.15006 0.0
H606 H 0.39757 0.86309 0.2155 0.0
H607 H 0.44842 0.86674 0.23816 0.0
H608 H 0.44417 0.77289 0.19854 0.0
H609 H 0.39378 0.76923 0.17546 0.0
C610 C 0.18428 0.69642 0.16111 0.0
C611 C 0.18177 0.66022 0.15965 0.0
C612 C 0.21964 0.73175 0.16305 0.0
C613 C 0.25519 0.73353 0.16316 0.0
C614 C 0.25266 0.69723 0.1619 0.0
C615 C 0.21719 0.66181 0.16024 0.0
C616 C 0.29413 0.77243 0.1649 0.0
C617 C 0.32606 0.77819 0.17709 0.0
C618 C 0.30046 0.80463 0.15489 0.0
C619 C 0.2714 0.80141 0.13967 0.0
C620 C 0.25695 0.77263 0.1224 0.0
C621 C 0.2295 0.76962 0.10808 0.0
C622 C 0.2165 0.79545 0.11076 0.0
C623 C 0.23101 0.82441 0.12774 0.0
C624 C 0.25844 0.82751 0.14213 0.0
C625 C 0.47682 0.92515 0.17488 0.0
C626 C 0.47774 0.96038 0.17985 0.0
C627 C 0.4421 0.889 0.17135 0.0
C628 C 0.40594 0.8856 0.17292 0.0
C629 C 0.40696 0.921 0.17731 0.0
C630 C 0.44163 0.95703 0.18093 0.0
C631 C 0.36769 0.84611 0.17041 0.0
C632 C 0.33593 0.84029 0.15808 0.0
C633 C 0.36178 0.81362 0.17992 0.0
C634 C 0.39206 0.81596 0.19374 0.0
C635 C 0.40764 0.84338 0.21158 0.0
C636 C 0.43638 0.84547 0.22449 0.0
C637 C 0.44954 0.82009 0.21979 0.0
C638 C 0.43397 0.79255 0.20217 0.0
C639 C 0.40531 0.79043 0.18919 0.0
H640 H 0.47177 0.82174 0.22981 0.0
H641 H 0.19525 0.79309 0.09966 0.0
H642 H 0.51178 0.18482 0.50048 0.0
H643 H 0.51199 0.24534 0.50409 0.0
H644 H 0.63129 0.30604 0.49625 0.0
H645 H 0.63119 0.24533 0.49295 0.0
H646 H 0.62189 0.3517 0.52299 0.0
H647 H 0.55274 0.28756 0.4572 0.0
H648 H 0.50279 0.23507 0.43264 0.0
H649 H 0.41767 0.24148 0.4678 0.0
H650 H 0.46713 0.29371 0.49273 0.0
H651 H 0.63123 0.53128 0.513 0.0
H652 H 0.63159 0.47097 0.50618 0.0
H653 H 0.51234 0.4079 0.51399 0.0
H654 H 0.51213 0.4683 0.52048 0.0
H655 H 0.52229 0.3637 0.48655 0.0
H656 H 0.5912 0.42723 0.5525 0.0
H657 H 0.64099 0.47976 0.57711 0.0
H658 H 0.72642 0.47444 0.54174 0.0
H659 H 0.67711 0.42219 0.51674 0.0
C660 C 0.53827 0.21084 0.49941 0.0
C661 C 0.57142 0.20876 0.49623 0.0
C662 C 0.53835 0.24619 0.50136 0.0
C663 C 0.57154 0.28198 0.50015 0.0
C664 C 0.60482 0.27996 0.49727 0.0
C665 C 0.60474 0.24453 0.49526 0.0
C666 C 0.57164 0.32079 0.50204 0.0
C667 C 0.6002 0.35398 0.51465 0.0
C668 C 0.54342 0.32563 0.49186 0.0
C669 C 0.51363 0.29426 0.47695 0.0
C670 C 0.52336 0.27758 0.45978 0.0
C671 C 0.49514 0.24791 0.44578 0.0
C672 C 0.45708 0.23487 0.44869 0.0
C673 C 0.44716 0.25156 0.46558 0.0
C674 C 0.47528 0.28122 0.47964 0.0
C675 C 0.60468 0.50463 0.51255 0.0
C676 C 0.57133 0.50582 0.51651 0.0
C677 C 0.60499 0.46946 0.50907 0.0
C678 C 0.57208 0.43313 0.50978 0.0
C679 C 0.53855 0.43435 0.51315 0.0
C680 C 0.5383 0.46951 0.51667 0.0
C681 C 0.57253 0.39459 0.5075 0.0
C682 C 0.54403 0.36143 0.49485 0.0
C683 C 0.60079 0.38978 0.51766 0.0
C684 C 0.63048 0.4211 0.53263 0.0
C685 C 0.62061 0.43745 0.54989 0.0
C686 C 0.64874 0.46715 0.56392 0.0
C687 C 0.68685 0.4805 0.56096 0.0
C688 C 0.69689 0.46411 0.54399 0.0
C689 C 0.66887 0.43444 0.52989 0.0
H690 H 0.70859 0.50349 0.57184 0.0
H691 H 0.43527 0.2119 0.43784 0.0
H692 H 0.47514 0.53517 0.81716 0.0
H693 H 0.41563 0.53535 0.82017 0.0
H694 H 0.47738 0.65221 0.84931 0.0
H695 H 0.53699 0.65201 0.84634 0.0
H696 H 0.41582 0.62074 0.86868 0.0
H697 H 0.42844 0.61626 0.79505 0.0
H698 H 0.43603 0.59056 0.76033 0.0
H699 H 0.33391 0.48404 0.76387 0.0
H700 H 0.32597 0.50896 0.79874 0.0
H701 H 0.26383 0.65831 0.86738 0.0
H702 H 0.32074 0.65554 0.86103 0.0
H703 H 0.25311 0.54213 0.82788 0.0
H704 H 0.19527 0.5458 0.83354 0.0
H705 H 0.31641 0.56901 0.81047 0.0
H706 H 0.30326 0.57122 0.88355 0.0
H707 H 0.29513 0.59453 0.91877 0.0
H708 H 0.39744 0.70181 0.91715 0.0
H709 H 0.40596 0.67929 0.8818 0.0
C710 C 0.47652 0.5612 0.82418 0.0
C711 C 0.5124 0.59358 0.83139 0.0
C712 C 0.44171 0.5614 0.82581 0.0
C713 C 0.44017 0.59399 0.83481 0.0
C714 C 0.47605 0.62623 0.84223 0.0
C715 C 0.5109 0.62614 0.84044 0.0
C716 C 0.40203 0.59445 0.8368 0.0
C717 C 0.39464 0.60982 0.85567 0.0
C718 C 0.37216 0.57937 0.82051 0.0
C719 C 0.37683 0.56434 0.79959 0.0
C720 C 0.40775 0.58726 0.78848 0.0
C721 C 0.41209 0.57285 0.76877 0.0
C722 C 0.38553 0.53565 0.75992 0.0
C723 C 0.3545 0.51282 0.77075 0.0
C724 C 0.35005 0.52708 0.79049 0.0
C725 C 0.26054 0.63267 0.85841 0.0
C726 C 0.22359 0.60262 0.85093 0.0
C727 C 0.29391 0.63078 0.85504 0.0
C728 C 0.29313 0.59801 0.84449 0.0
C729 C 0.2562 0.56807 0.83629 0.0
C730 C 0.22241 0.57024 0.83944 0.0
C731 C 0.33033 0.59564 0.84235 0.0
C732 C 0.33757 0.57994 0.82348 0.0
C733 C 0.36 0.61004 0.85873 0.0
C734 C 0.35504 0.6237 0.87996 0.0
C735 C 0.3239 0.59986 0.89066 0.0
C736 C 0.31924 0.61293 0.91065 0.0
C737 C 0.3457 0.64967 0.92017 0.0
C738 C 0.37694 0.67338 0.90974 0.0
C739 C 0.38172 0.66048 0.88974 0.0
H740 H 0.34204 0.65973 0.93564 0.0
H741 H 0.38894 0.52455 0.74466 0.0
H742 H 0.9416 0.47229 0.18124 0.0
H743 H 0.8825 0.4128 0.18481 0.0
H744 H 0.91395 0.35071 0.13942 0.0
H745 H 0.97361 0.41012 0.13617 0.0
H746 H 0.83689 0.32136 0.13263 0.0
H747 H 0.91611 0.34096 0.19193 0.0
H748 H 0.95942 0.3763 0.22335 0.0
H749 H 0.87311 0.39048 0.25252 0.0
H750 H 0.82933 0.35558 0.22109 0.0
H751 H 0.68198 0.13398 0.15501 0.0
H752 H 0.74271 0.18984 0.14814 0.0
H753 H 0.73271 0.25818 0.2004 0.0
H754 H 0.67358 0.20317 0.20735 0.0
H755 H 0.80141 0.28285 0.20258 0.0
H756 H 0.72216 0.26332 0.14145 0.0
H757 H 0.68075 0.22769 0.10937 0.0
H758 H 0.76854 0.21224 0.08323 0.0
H759 H 0.81032 0.24744 0.11526 0.0
C760 C 0.93629 0.44616 0.1719 0.0
C761 C 0.96372 0.44733 0.15836 0.0
C762 C 0.90188 0.41145 0.17404 0.0
C763 C 0.89225 0.37564 0.16253 0.0
C764 C 0.91931 0.37692 0.14867 0.0
C765 C 0.95411 0.41153 0.14684 0.0
C766 C 0.85498 0.33751 0.1653 0.0
C767 C 0.82963 0.31303 0.14801 0.0
C768 C 0.84364 0.3251 0.18513 0.0
C769 C 0.86957 0.34598 0.20409 0.0
C770 C 0.90644 0.35186 0.20498 0.0
C771 C 0.93105 0.37176 0.22279 0.0
C772 C 0.91904 0.38565 0.23989 0.0
C773 C 0.88236 0.3797 0.23923 0.0
C774 C 0.85761 0.35982 0.22143 0.0
C775 C 0.69246 0.16086 0.16501 0.0
C776 C 0.67141 0.16287 0.18185 0.0
C777 C 0.72778 0.19358 0.16099 0.0
C778 C 0.74397 0.23017 0.1735 0.0
C779 C 0.72265 0.23156 0.19021 0.0
C780 C 0.68787 0.19931 0.19417 0.0
C781 C 0.78246 0.26672 0.16993 0.0
C782 C 0.80829 0.29106 0.18715 0.0
C783 C 0.79421 0.27884 0.15001 0.0
C784 C 0.76917 0.2576 0.13083 0.0
C785 C 0.73251 0.25208 0.12891 0.0
C786 C 0.709 0.23201 0.11073 0.0
C787 C 0.72196 0.2176 0.0943 0.0
C788 C 0.75851 0.22333 0.09599 0.0
C789 C 0.78212 0.24336 0.11414 0.0
H790 H 0.70373 0.20208 0.08024 0.0
H791 H 0.93816 0.40086 0.25366 0.0
H792 H 0.10776 0.53338 0.08479 0.0
H793 H 0.11051 0.53941 0.04765 0.0
H794 H 1.04773 0.59829 0.05408 0.0
H795 H 1.04371 0.59111 0.09114 0.0
H796 H 1.02263 0.55222 0.01985 0.0
H797 H 0.14711 0.64534 0.04888 0.0
H798 H 0.20765 0.66988 0.0695 0.0
H799 H 0.2306 0.59302 0.03037 0.0
H800 H 0.16994 0.56767 0.00967 0.0
H801 H 0.06666 0.62642 0.92244 0.0
H802 H 0.06441 0.6214 0.95973 0.0
H803 H 0.10937 0.54584 0.95196 0.0
H804 H 0.11059 0.5496 0.91451 0.0
H805 H 0.14401 0.60169 0.98667 0.0
H806 H 1.01727 0.50972 0.95763 0.0
H807 H 0.95735 0.48873 0.93721 0.0
H808 H 0.94008 0.56913 0.97698 0.0
H809 H 1.00019 0.59099 -0.00253 0.0
C810 C 0.0945 0.54764 0.07835 0.0
C811 C 0.07558 0.56183 0.0911 0.0
C812 C 0.09631 0.55131 0.05703 0.0
C813 C 0.07994 0.56997 0.0479 0.0
C814 C 0.0607 0.58382 0.06059 0.0
C815 C 0.05848 0.57975 0.08187 0.0
C816 C 0.08251 0.57467 0.02517 0.0
C817 C 1.04934 0.56359 0.01275 0.0
C818 C 0.11716 0.58898 0.01555 0.0
C819 C 0.15381 0.60435 0.02785 0.0
C820 C 0.16495 0.6335 0.04476 0.0
C821 C 0.1993 0.64758 0.05645 0.0
C822 C 0.22291 0.63294 0.05128 0.0
C823 C 0.21226 0.60429 0.03437 0.0
C824 C 0.17792 0.59008 0.02264 0.0
C825 C 0.0757 0.60833 0.92852 0.0
C826 C 0.08863 0.58826 0.91519 0.0
C827 C 0.07457 0.60567 0.94996 0.0
C828 C 0.08646 0.58301 0.95874 0.0
C829 C 0.10013 0.5636 0.94563 0.0
C830 C 0.10097 0.56597 0.92415 0.0
C831 C 0.08419 0.57918 0.9815 0.0
C832 C 0.1174 0.59042 0.99388 0.0
C833 C 1.0497 0.56559 0.99115 0.0
C834 C 1.01341 0.55224 0.97895 0.0
C835 C 1.00083 0.52313 0.96192 0.0
C836 C 0.96682 0.51104 0.95036 0.0
C837 C 0.94497 0.52766 0.95576 0.0
C838 C 0.95705 0.55632 0.97279 0.0
C839 C 0.99108 0.56855 0.9844 0.0
H840 H 0.91865 0.51826 0.94678 0.0
H841 H 0.24948 0.64385 0.06036 0.0
H842 H 0.50708 0.07013 0.42105 0.0
H843 H 0.50483 0.06082 0.38302 0.0
H844 H 0.62216 0.09191 0.38641 0.0
H845 H 0.62413 0.0999 0.42449 0.0
H846 H 0.53593 0.1035 0.35498 0.0
H847 H 0.64186 0.04946 0.34463 0.0
H848 H 0.66437 1.01349 0.36273 0.0
H849 H 0.55973 0.95819 0.39172 0.0
H850 H 0.53642 0.99345 0.37358 0.0
H851 H 0.57849 0.10541 0.24909 0.0
H852 H 0.58308 0.11463 0.28712 0.0
H853 H 0.53044 0.99279 0.28725 0.0
H854 H 0.52799 0.98353 0.24929 0.0
H855 H 0.58259 1.02493 0.31687 0.0
H856 H 0.48202 0.04472 0.29648 0.0
H857 H 0.45145 0.07343 0.27824 0.0
H858 H 0.5311 0.18435 0.31052 0.0
H859 H 0.56246 0.15635 0.32877 0.0
C860 C 0.53243 0.0749 0.41373 0.0
C861 C 0.56573 0.08555 0.42594 0.0
C862 C 0.53114 0.06966 0.39189 0.0
C863 C 0.56315 0.07512 0.38159 0.0
C864 C 0.59671 0.08656 0.39379 0.0
C865 C 0.59788 0.09133 0.41565 0.0
C866 C 0.56131 0.06898 0.35819 0.0
C867 C 0.54624 0.08635 0.34671 0.0
C868 C 0.57401 0.04606 0.34711 0.0
C869 C 0.58759 1.02441 0.35792 0.0
C870 C 0.62362 1.02953 0.35481 0.0
C871 C 0.63652 1.00928 0.36509 0.0
C872 C 0.61354 0.98367 0.37842 0.0
C873 C 0.57755 0.97814 0.38145 0.0
C874 C 0.5645 0.99828 0.37119 0.0
C875 C 0.56833 0.08052 0.25713 0.0
C876 C 0.55265 0.04363 0.24584 0.0
C877 C 0.57052 0.08583 0.27901 0.0
C878 C 0.5565 0.0544 0.29029 0.0
C879 C 0.54136 1.01763 0.27909 0.0
C880 C 0.53954 1.01232 0.25723 0.0
C881 C 0.55748 0.05969 0.31368 0.0
C882 C 0.57243 0.04221 0.32515 0.0
C883 C 0.54364 0.08158 0.32474 0.0
C884 C 0.52481 0.09849 0.31384 0.0
C885 C 0.49317 0.07528 0.29958 0.0
C886 C 0.47568 0.09141 0.28926 0.0
C887 C 0.48938 0.13071 0.29318 0.0
C888 C 0.52055 0.15393 0.30748 0.0
C889 C 0.53818 0.13794 0.31783 0.0
H890 H 0.4758 0.14314 0.28517 0.0
H891 H 0.6236 0.96806 0.38638 0.0
H892 H 0.56854 0.53282 0.75477 0.0
H893 H 0.56228 0.53242 0.71716 0.0
H894 H 0.63939 0.65428 0.72456 0.0
H895 H 0.64508 0.65506 0.76228 0.0
H896 H 0.58416 0.63729 0.69691 0.0
H897 H 0.66629 0.58757 0.70613 0.0
H898 H 0.68622 0.54482 0.71857 0.0
H899 H 0.59053 0.4476 0.68366 0.0
H900 H 0.56973 0.48973 0.67122 0.0
H901 H 0.61951 0.64547 0.58836 0.0
H902 H 0.62508 0.64961 0.62644 0.0
H903 H 0.54464 0.52884 0.6222 0.0
H904 H 0.53872 0.52457 0.58432 0.0
H905 H 0.60358 0.54709 0.64825 0.0
H906 H 0.52163 0.59784 0.63925 0.0
H907 H 0.50296 0.64141 0.62664 0.0
H908 H 0.60027 0.73786 0.66089 0.0
H909 H 0.6198 0.69488 0.6735 0.0
C910 C 0.58421 0.55959 0.74847 0.0
C911 C 0.6075 0.59393 0.76173 0.0
C912 C 0.58074 0.55932 0.72684 0.0
C913 C 0.60084 0.59324 0.71777 0.0
C914 C 0.6236 0.62765 0.73101 0.0
C915 C 0.62691 0.62799 0.75267 0.0
C916 C 0.59821 0.59282 0.69456 0.0
C917 C 0.58894 0.6179 0.68632 0.0
C918 C 0.60378 0.56718 0.6805 0.0
C919 C 0.61626 0.54178 0.68791 0.0
C920 C 0.64935 0.55704 0.70123 0.0
C921 C 0.66082 0.53293 0.70826 0.0
C922 C 0.6396 0.49351 0.70195 0.0
C923 C 0.60691 0.47813 0.68855 0.0
C924 C 0.59528 0.50212 0.68149 0.0
C925 C 0.6026 0.61989 0.59554 0.0
C926 C 0.57883 0.58464 0.58311 0.0
C927 C 0.60586 0.62227 0.61738 0.0
C928 C 0.58522 0.58954 0.62737 0.0
C929 C 0.56112 0.5545 0.61499 0.0
C930 C 0.55784 0.55211 0.59324 0.0
C931 C 0.58922 0.5913 0.65061 0.0
C932 C 0.59883 0.56651 0.65885 0.0
C933 C 0.58416 0.61732 0.66463 0.0
C934 C 0.57238 0.64318 0.65714 0.0
C935 C 0.5392 0.62837 0.64397 0.0
C936 C 0.52844 0.65295 0.63684 0.0
C937 C 0.55048 0.69239 0.64291 0.0
C938 C 0.58327 0.70731 0.65618 0.0
C939 C 0.59418 0.68285 0.66333 0.0
H940 H 0.5421 0.71137 0.63738 0.0
H941 H 0.64853 0.47489 0.70741 0.0
H942 H 0.55899 1.04024 0.54987 0.0
H943 H 0.5514 1.03234 0.58665 0.0
H944 H 0.57488 0.14844 0.60063 0.0
H945 H 0.58473 0.15705 0.56373 0.0
H946 H 0.60246 0.13002 0.63201 0.0
H947 H 0.4821 0.06991 0.59145 0.0
H948 H 0.43552 1.02673 0.56251 0.0
H949 H 0.43542 0.9306 0.5838 0.0
H950 H 0.4823 0.9733 0.61278 0.0
H951 H 0.50963 0.10104 0.72608 0.0
H952 H 0.5294 0.11551 0.69115 0.0
H953 H 0.5054 0.99976 0.67429 0.0
H954 H 0.48476 0.98504 0.70913 0.0
H955 H 0.47867 1.01981 0.64461 0.0
H956 H 0.59773 0.07838 0.68529 0.0
H957 H 0.64419 0.12058 0.71451 0.0
H958 H 0.6471 0.2182 0.6935 0.0
H959 H 0.60024 0.17651 0.66429 0.0
C960 C 0.56322 0.06427 0.5609 0.0
C961 C 0.57201 0.0991 0.55411 0.0
C962 C 0.55868 0.0597 0.58186 0.0
C963 C 0.5613 0.08937 0.59629 0.0
C964 C 0.57237 0.12504 0.58973 0.0
C965 C 0.57798 0.12997 0.56872 0.0
C966 C 0.54996 0.0821 0.61775 0.0
C967 C 0.57523 0.10621 0.6348 0.0
C968 C 0.51465 0.0506 0.6214 0.0
C969 C 0.48588 1.02484 0.6042 0.0
C970 C 0.47223 1.03958 0.58992 0.0
C971 C 0.44577 1.01518 0.5735 0.0
C972 C 0.43256 0.97593 0.57129 0.0
C973 C 0.44568 0.961 0.58553 0.0
C974 C 0.47214 0.98527 0.60197 0.0
C975 C 0.50883 0.07882 0.71493 0.0
C976 C 0.49584 0.04199 0.72027 0.0
C977 C 0.52024 0.08712 0.69501 0.0
C978 C 0.5195 0.05891 0.68018 0.0
C979 C 0.50628 1.022 0.68548 0.0
C980 C 0.49443 1.01358 0.70533 0.0
C981 C 0.53132 0.06739 0.65892 0.0
C982 C 0.50598 0.0436 0.64188 0.0
C983 C 0.56655 0.09905 0.65535 0.0
C984 C 0.59525 0.12427 0.67269 0.0
C985 C 0.60813 0.10882 0.68696 0.0
C986 C 0.63455 0.13265 0.70351 0.0
C987 C 0.64856 0.17204 0.70586 0.0
C988 C 0.63623 0.18769 0.69164 0.0
C989 C 0.60977 0.16398 0.67507 0.0
H990 H 0.669 0.19043 0.7187 0.0
H991 H 0.41212 0.95702 0.5586 0.0
H992 H 0.69361 0.65411 0.89325 0.0
H993 H 0.70719 0.65771 0.9303 0.0
H994 H 0.6113 0.54423 0.93039 0.0
H995 H 0.59692 0.5406 0.89304 0.0
H996 H 0.61099 0.59158 0.96136 0.0
H997 H 0.70207 0.56134 0.93745 0.0
H998 H 0.7531 0.56506 0.91634 0.0
H999 H 0.82716 0.68078 0.94453 0.0
H1000 H 0.77641 0.67804 0.9656 0.0
H1001 H 0.6543 0.61595 0.06792 0.0
H1002 H 0.65501 0.58775 0.03273 0.0
H1003 H 0.72982 0.70031 0.01646 0.0
H1004 H 0.72889 0.72873 0.05156 0.0
H1005 H 0.73947 0.63949 -0.0055 0.0
H1006 H 0.64177 0.67132 0.01135 0.0
H1007 H 0.59062 0.6674 0.0324 0.0
H1008 H 0.52842 0.54521 0.01675 0.0
H1009 H 0.57965 0.54842 -0.00411 0.0
C1010 C 0.67544 0.62967 0.90103 0.0
C1011 C 0.644 0.59708 0.89015 0.0
C1012 C 0.68353 0.63169 0.92224 0.0
C1013 C 0.66068 0.60101 0.93309 0.0
C1014 C 0.62948 0.56816 0.92228 0.0
C1015 C 0.62124 0.56614 0.90096 0.0
C1016 C 0.6679 0.60504 0.95601 0.0
C1017 C 0.63883 0.60097 0.96857 0.0
C1018 C 0.70437 0.61778 0.96549 0.0
C1019 C 0.73529 0.61952 0.95306 0.0
C1020 C 0.72916 0.58768 0.93908 0.0
C1021 C 0.75805 0.5896 0.92711 0.0
C1022 C 0.79332 0.62314 0.92906 0.0
C1023 C 0.79981 0.6548 0.94304 0.0
C1024 C 0.771 0.65306 0.95503 0.0
C1025 C 0.67193 0.63458 0.05704 0.0
C1026 C 0.69092 0.67457 0.0623 0.0
C1027 C 0.67242 0.61842 0.03699 0.0
C1028 C 0.6919 0.64203 0.02194 0.0
C1029 C 0.7146 0.68164 0.02788 0.0
C1030 C 0.71408 0.69786 0.04796 0.0
C1031 C 0.68278 0.62671 -0.00048 0.0
C1032 C 0.71145 0.62893 0.98716 0.0
C1033 C 0.64588 0.61196 0.99015 0.0
C1034 C 0.61472 0.61006 0.00231 0.0
C1035 C 0.61732 0.64359 0.01255 0.0
C1036 C 0.58832 0.64149 0.02447 0.0
C1037 C 0.55639 0.60603 0.02609 0.0
C1038 C 0.55328 0.57263 0.01564 0.0
C1039 C 0.58228 0.57457 0.00375 0.0
H1040 H 0.53399 0.60447 0.03536 0.0
H1041 H 0.81563 0.62457 0.91976 0.0
H1042 H 1.04821 0.48743 0.21666 0.0
H1043 H 1.05213 0.4857 0.25432 0.0
H1044 H 0.1048 0.60853 0.26532 0.0
H1045 H 0.10013 0.61045 0.22776 0.0
H1046 H 0.14458 0.57592 0.28415 0.0
H1047 H 1.02309 0.56317 0.27672 0.0
H1048 H 0.95691 0.53572 0.26329 0.0
H1049 H 0.92692 0.4313 0.28777 0.0
H1050 H 0.99333 0.45741 0.30051 0.0
H1051 H 0.15444 0.60844 0.39268 0.0
H1052 H 0.13699 0.60637 0.35631 0.0
H1053 H 0.07391 0.48308 0.34936 0.0
H1054 H 0.0903 0.48487 0.38624 0.0
H1055 H 1.0375 0.51422 0.32843 0.0
H1056 H 0.1598 0.52577 0.33366 0.0
H1057 H 0.22583 0.55402 0.34783 0.0
H1058 H 0.25309 0.66161 0.32825 0.0
H1059 H 0.18704 0.63415 0.31424 0.0
C1060 C 0.06038 0.51402 0.22713 0.0
C1061 C 0.07406 0.54911 0.21932 0.0
C1062 C 0.06238 0.51295 0.2486 0.0
C1063 C 0.07865 0.54698 0.26252 0.0
C1064 C 0.09204 0.58199 0.25477 0.0
C1065 C 0.08931 0.58302 0.23335 0.0
C1066 C 0.08406 0.54634 0.28505 0.0
C1067 C 0.12117 0.56281 0.29388 0.0
C1068 C 1.05335 0.52834 0.29753 0.0
C1069 C 1.01351 0.51207 0.28926 0.0
C1070 C 1.00264 0.53403 0.27885 0.0
C1071 C 0.96501 0.51872 0.27138 0.0
C1072 C 0.93777 0.48167 0.27453 0.0
C1073 C 0.94811 0.4599 0.2852 0.0
C1074 C 0.9858 0.47488 0.29245 0.0
C1075 C 0.13611 0.58081 0.38363 0.0
C1076 C 0.12372 0.54677 0.39241 0.0
C1077 C 0.12646 0.57972 0.36275 0.0
C1078 C 0.10458 0.54459 0.35009 0.0
C1079 C 0.09094 0.51049 0.35889 0.0
C1080 C 0.10058 0.51155 0.37988 0.0
C1081 C 0.09798 0.54382 0.32745 0.0
C1082 C 0.06079 0.52709 0.31861 0.0
C1083 C 0.12855 0.5615 0.31486 0.0
C1084 C 0.16839 0.57799 0.32307 0.0
C1085 C 0.17981 0.55553 0.33251 0.0
C1086 C 0.21725 0.57139 0.34049 0.0
C1087 C 0.24362 0.60961 0.33898 0.0
C1088 C 0.23262 0.63202 0.32943 0.0
C1089 C 0.19519 0.61632 0.32145 0.0
H1090 H 0.27259 0.62184 0.34517 0.0
H1091 H 0.90862 0.4699 0.26881 0.0
loop_
_geom_bond_atom_site_label_1
_geom_bond_atom_site_label_2
_geom_bond_distance
_geom_bond_site_symmetry_2
_ccdc_geom_bond_type
Tb0 C9 2.764 1_455 S
Tb0 O10 2.325 . S
Tb0 O13 2.303 . S
Tb0 O17 2.322 . S
Tb0 O18 2.349 . S
Tb0 O21 2.415 1_455 S
Tb0 O22 2.399 1_455 S
Tb1 O11 2.322 . S
Tb1 O12 2.349 . S
Tb1 O14 2.415 . S
Tb1 O15 2.399 . S
Tb1 O16 2.325 . S
Tb1 O19 2.303 . S
Tb1 C30 2.764 . S
C2 O18 1.261 . S
C2 O19 1.257 . S
C3 C6 1.358 . S
C3 C7 1.332 . S
C3 C9 1.504 . S
C4 C5 1.373 . S
C4 C8 1.308 . S
C5 C4 1.373 . S
C5 C6 1.429 . S
C5 H32 0.932 . S
C6 C3 1.358 . S
C6 C5 1.429 . S
C6 H33 0.930 . S
C7 C3 1.332 . S
C7 C8 1.394 . S
C7 H34 0.932 . S
C8 C4 1.308 . S
C8 C7 1.394 . S
C8 H35 0.929 . S
C9 Tb0 2.764 1_655 S
C9 C3 1.504 . S
C9 O21 1.239 . S
C9 O22 1.263 . S
O10 Tb0 2.325 . S
O10 C20 1.236 . S
O11 Tb1 2.322 . S
O11 C20 1.257 . S
O12 Tb1 2.349 . S
O12 C23 1.261 . S
O13 Tb0 2.303 . S
O13 C23 1.257 . S
O14 Tb1 2.415 . S
O14 C30 1.239 . S
O15 Tb1 2.399 . S
O15 C30 1.263 . S
O16 Tb1 2.325 . S
O16 C31 1.236 . S
O17 Tb0 2.322 . S
O17 C31 1.257 . S
O18 Tb0 2.349 . S
O18 C2 1.261 . S
O19 Tb1 2.303 . S
O19 C2 1.257 . S
C20 O10 1.236 . S
C20 O11 1.257 . S
O21 Tb0 2.415 1_655 S
O21 C9 1.239 . S
O22 Tb0 2.399 1_655 S
O22 C9 1.263 . S
C23 O12 1.261 . S
C23 O13 1.257 . S
C24 C27 1.358 . S
C24 C28 1.332 . S
C24 C30 1.504 . S
C25 C26 1.373 . S
C25 C29 1.308 . S
C26 C25 1.373 . S
C26 C27 1.429 . S
C26 H36 0.932 . S
C27 C24 1.358 . S
C27 C26 1.429 . S
C27 H37 0.930 . S
C28 C24 1.332 . S
C28 C29 1.394 . S
C28 H38 0.932 . S
C29 C25 1.308 . S
C29 C28 1.394 . S
C29 H39 0.929 . S
C30 Tb1 2.764 . S
C30 O14 1.239 . S
C30 O15 1.263 . S
C30 C24 1.504 . S
C31 O16 1.236 . S
C31 O17 1.257 . S
H32 C5 0.932 . S
H33 C6 0.930 . S
H34 C7 0.932 . S
H35 C8 0.929 . S
H36 C26 0.932 . S
H37 C27 0.930 . S
H38 C28 0.932 . S
H39 C29 0.929 . S
Tb40 C49 2.764 1_545 S
Tb40 O50 2.325 1_545 S
Tb40 O53 2.303 . S
Tb40 O57 2.322 . S
Tb40 O58 2.349 . S
Tb40 O61 2.415 1_545 S
Tb40 O62 2.399 1_545 S
Tb41 O51 2.322 . S
Tb41 O52 2.349 . S
Tb41 O54 2.415 . S
Tb41 O55 2.399 . S
Tb41 O56 2.325 . S
Tb41 O59 2.303 . S
Tb41 C70 2.764 . S
C42 O58 1.261 . S
C42 O59 1.257 . S
C43 C46 1.358 . S
C43 C47 1.332 . S
C43 C49 1.504 . S
C44 C45 1.373 . S
C44 C48 1.308 . S
C45 C44 1.373 . S
C45 C46 1.429 . S
C45 H72 0.932 . S
C46 C43 1.358 . S
C46 C45 1.429 . S
C46 H73 0.930 . S
C47 C43 1.332 . S
C47 C48 1.394 . S
C47 H74 0.932 . S
C48 C44 1.308 . S
C48 C47 1.394 . S
C48 H75 0.929 . S
C49 Tb40 2.764 1_565 S
C49 C43 1.504 . S
C49 O61 1.239 . S
C49 O62 1.263 . S
O50 Tb40 2.325 1_565 S
O50 C60 1.236 . S
O51 Tb41 2.322 . S
O51 C60 1.257 1_545 S
O52 Tb41 2.349 . S
O52 C63 1.261 . S
O53 Tb40 2.303 . S
O53 C63 1.257 . S
O54 Tb41 2.415 . S
O54 C70 1.239 . S
O55 Tb41 2.399 . S
O55 C70 1.263 . S
O56 Tb41 2.325 . S
O56 C71 1.236 . S
O57 Tb40 2.322 . S
O57 C71 1.257 . S
O58 Tb40 2.349 . S
O58 C42 1.261 . S
O59 Tb41 2.303 . S
O59 C42 1.257 . S
C60 O50 1.236 . S
C60 O51 1.257 1_565 S
O61 Tb40 2.415 1_565 S
O61 C49 1.239 . S
O62 Tb40 2.399 1_565 S
O62 C49 1.263 . S
C63 O52 1.261 . S
C63 O53 1.257 . S
C64 C67 1.358 . S
C64 C68 1.332 . S
C64 C70 1.504 . S
C65 C66 1.373 . S
C65 C69 1.308 . S
C66 C65 1.373 . S
C66 C67 1.429 . S
C66 H76 0.932 . S
C67 C64 1.358 . S
C67 C66 1.429 . S
C67 H77 0.930 . S
C68 C64 1.332 . S
C68 C69 1.394 . S
C68 H78 0.932 . S
C69 C65 1.308 . S
C69 C68 1.394 . S
C69 H79 0.929 . S
C70 Tb41 2.764 . S
C70 O54 1.239 . S
C70 O55 1.263 . S
C70 C64 1.504 . S
C71 O56 1.236 . S
C71 O57 1.257 . S
H72 C45 0.932 . S
H73 C46 0.930 . S
H74 C47 0.932 . S
H75 C48 0.929 . S
H76 C66 0.932 . S
H77 C67 0.930 . S
H78 C68 0.932 . S
H79 C69 0.929 . S
Tb80 C89 2.764 . S
Tb80 O90 2.325 . S
Tb80 O93 2.303 . S
Tb80 O97 2.322 . S
Tb80 O98 2.349 . S
Tb80 O101 2.415 . S
Tb80 O102 2.399 . S
Tb81 O91 2.322 . S
Tb81 O92 2.349 . S
Tb81 O94 2.415 . S
Tb81 O95 2.399 . S
Tb81 O96 2.325 . S
Tb81 O99 2.303 . S
Tb81 C110 2.764 . S
C82 O98 1.261 . S
C82 O99 1.257 . S
C83 C86 1.358 . S
C83 C87 1.332 . S
C83 C89 1.504 . S
C84 C85 1.373 . S
C84 C88 1.308 . S
C85 C84 1.373 . S
C85 C86 1.429 . S
C85 H112 0.932 . S
C86 C83 1.358 . S
C86 C85 1.429 . S
C86 H113 0.930 . S
C87 C83 1.332 . S
C87 C88 1.394 . S
C87 H114 0.932 . S
C88 C84 1.308 . S
C88 C87 1.394 . S
C88 H115 0.929 . S
C89 Tb80 2.764 . S
C89 C83 1.504 . S
C89 O101 1.239 . S
C89 O102 1.263 . S
O90 Tb80 2.325 . S
O90 C100 1.236 . S
O91 Tb81 2.322 . S
O91 C100 1.257 . S
O92 Tb81 2.349 . S
O92 C103 1.261 . S
O93 Tb80 2.303 . S
O93 C103 1.257 . S
O94 Tb81 2.415 . S
O94 C110 1.239 . S
O95 Tb81 2.399 . S
O95 C110 1.263 . S
O96 Tb81 2.325 . S
O96 C111 1.236 . S
O97 Tb80 2.322 . S
O97 C111 1.257 . S
O98 Tb80 2.349 . S
O98 C82 1.261 . S
O99 Tb81 2.303 . S
O99 C82 1.257 . S
C100 O90 1.236 . S
C100 O91 1.257 . S
O101 Tb80 2.415 . S
O101 C89 1.239 . S
O102 Tb80 2.399 . S
O102 C89 1.263 . S
C103 O92 1.261 . S
C103 O93 1.257 . S
C104 C107 1.358 . S
C104 C108 1.332 . S
C104 C110 1.504 . S
C105 C106 1.373 . S
C105 C109 1.308 . S
C106 C105 1.373 . S
C106 C107 1.429 . S
C106 H116 0.932 . S
C107 C104 1.358 . S
C107 C106 1.429 . S
C107 H117 0.930 . S
C108 C104 1.332 . S
C108 C109 1.394 . S
C108 H118 0.932 . S
C109 C105 1.308 . S
C109 C108 1.394 . S
C109 H119 0.929 . S
C110 Tb81 2.764 . S
C110 O94 1.239 . S
C110 O95 1.263 . S
C110 C104 1.504 . S
C111 O96 1.236 . S
C111 O97 1.257 . S
H112 C85 0.932 . S
H113 C86 0.930 . S
H114 C87 0.932 . S
H115 C88 0.929 . S
H116 C106 0.932 . S
H117 C107 0.930 . S
H118 C108 0.932 . S
H119 C109 0.929 . S
H120 C125 0.930 . S
H121 C128 0.930 . S
H122 C130 0.930 . S
H123 C124 1.016 . S
C124 H123 1.016 . S
C124 N131 1.286 . S
C125 H120 0.930 . S
C125 C126 1.397 . S
C125 C127 1.361 . S
C126 C125 1.397 . S
C126 C130 1.390 . S
C127 C125 1.361 . S
C127 C128 1.393 . S
C127 N131 1.413 . S
C128 H121 0.930 . S
C128 C127 1.393 . S
C128 C129 1.399 . S
C129 C128 1.399 . S
C129 C130 1.381 . S
C130 H122 0.930 . S
C130 C126 1.390 . S
C130 C129 1.381 . S
N131 C124 1.286 . S
N131 C127 1.413 . S
H132 C137 0.930 . S
H133 C140 0.930 . S
H134 C142 0.930 . S
H135 C136 1.016 . S
C136 H135 1.016 . S
C136 N143 1.286 . S
C137 H132 0.930 . S
C137 C138 1.397 . S
C137 C139 1.361 . S
C138 C137 1.397 . S
C138 C142 1.390 . S
C139 C137 1.361 . S
C139 C140 1.393 . S
C139 N143 1.413 . S
C140 H133 0.930 . S
C140 C139 1.393 . S
C140 C141 1.399 . S
C141 C140 1.399 . S
C141 C142 1.381 . S
C142 H134 0.930 . S
C142 C138 1.390 . S
C142 C141 1.381 . S
N143 C136 1.286 . S
N143 C139 1.413 . S
H144 C149 0.930 . S
H145 C152 0.930 . S
H146 C154 0.930 . S
H147 C148 1.016 . S
C148 H147 1.016 . S
C148 N155 1.286 . S
C149 H144 0.930 . S
C149 C150 1.397 . S
C149 C151 1.361 . S
C150 C149 1.397 . S
C150 C154 1.390 . S
C151 C149 1.361 . S
C151 C152 1.393 . S
C151 N155 1.413 . S
C152 H145 0.930 . S
C152 C151 1.393 . S
C152 C153 1.399 . S
C153 C152 1.399 . S
C153 C154 1.381 . S
C154 H146 0.930 . S
C154 C150 1.390 . S
C154 C153 1.381 . S
N155 C148 1.286 . S
N155 C151 1.413 . S
H156 C161 0.930 . S
H157 C164 0.930 . S
H158 C166 0.930 . S
H159 C160 1.016 . S
C160 H159 1.016 . S
C160 N167 1.286 . S
C161 H156 0.930 . S
C161 C162 1.397 . S
C161 C163 1.361 1_455 S
C162 C161 1.397 . S
C162 C166 1.390 . S
C163 C161 1.361 1_655 S
C163 C164 1.393 . S
C163 N167 1.413 . S
C164 H157 0.930 . S
C164 C163 1.393 . S
C164 C165 1.399 1_655 S
C165 C164 1.399 1_455 S
C165 C166 1.381 . S
C166 H158 0.930 . S
C166 C162 1.390 . S
C166 C165 1.381 . S
N167 C160 1.286 . S
N167 C163 1.413 . S
H168 C173 0.930 . S
H169 C176 0.930 1_565 S
H170 C178 0.930 . S
H171 C172 1.016 . S
C172 H171 1.016 . S
C172 N179 1.286 . S
C173 H168 0.930 . S
C173 C174 1.397 . S
C173 C175 1.361 . S
C174 C173 1.397 . S
C174 C178 1.390 . S
C175 C173 1.361 . S
C175 C176 1.393 . S
C175 N179 1.413 1_545 S
C176 H169 0.930 1_545 S
C176 C175 1.393 . S
C176 C177 1.399 . S
C177 C176 1.399 . S
C177 C178 1.381 . S
C178 H170 0.930 . S
C178 C174 1.390 . S
C178 C177 1.381 . S
N179 C172 1.286 . S
N179 C175 1.413 1_565 S
H180 C185 0.930 . S
H181 C188 0.930 . S
H182 C190 0.930 . S
H183 C184 1.016 . S
C184 H183 1.016 . S
C184 N191 1.286 . S
C185 H180 0.930 . S
C185 C186 1.397 . S
C185 C187 1.361 . S
C186 C185 1.397 . S
C186 C190 1.390 . S
C187 C185 1.361 . S
C187 C188 1.393 . S
C187 N191 1.413 . S
C188 H181 0.930 . S
C188 C187 1.393 . S
C188 C189 1.399 . S
C189 C188 1.399 . S
C189 C190 1.381 . S
C190 H182 0.930 . S
C190 C186 1.390 . S
C190 C189 1.381 . S
N191 C184 1.286 . S
N191 C187 1.413 . S
H192 C210 0.951 . S
H193 C212 0.951 . S
H194 C214 0.950 . S
H195 C215 0.950 . S
H196 C217 0.950 . S
H197 C220 0.950 . S
H198 C221 0.950 . S
H199 C223 0.950 . S
H200 C224 0.950 . S
H201 C225 0.951 . S
H202 C227 0.951 . S
H203 C229 0.950 . S
H204 C230 0.950 . S
H205 C232 0.950 . S
H206 C235 0.950 . S
H207 C236 0.950 . S
H208 C238 0.950 . S
H209 C239 0.950 . S
C210 H192 0.951 . S
C210 C211 1.366 . S
C210 C212 1.388 . S
C211 C210 1.366 . S
C211 C215 1.385 . S
C212 H193 0.951 . S
C212 C210 1.388 . S
C212 C213 1.366 . S
C213 C212 1.366 . S
C213 C214 1.414 . S
C213 C216 1.499 . S
C214 H194 0.950 . S
C214 C213 1.414 . S
C214 C215 1.374 . S
C215 H195 0.950 . S
C215 C211 1.385 . S
C215 C214 1.374 . S
C216 C213 1.499 . S
C216 C217 1.373 . S
C216 C218 1.389 . S
C217 H196 0.950 . S
C217 C216 1.373 . S
C217 C233 1.377 . S
C218 C216 1.389 . S
C218 C219 1.524 . S
C218 C232 1.377 . S
C219 C218 1.524 . S
C219 C220 1.397 . S
C219 C224 1.363 . S
C220 H197 0.950 . S
C220 C219 1.397 . S
C220 C221 1.334 . S
C221 H198 0.950 . S
C221 C220 1.334 . S
C221 C222 1.287 . S
C222 C221 1.287 . S
C222 C223 1.524 . S
C222 H241 0.913 . S
C223 H199 0.950 . S
C223 C222 1.524 . S
C223 C224 1.415 . S
C224 H200 0.950 . S
C224 C219 1.363 . S
C224 C223 1.415 . S
C225 H201 0.951 . S
C225 C226 1.366 . S
C225 C227 1.388 . S
C226 C225 1.366 . S
C226 C230 1.385 . S
C227 H202 0.951 . S
C227 C225 1.388 . S
C227 C228 1.366 . S
C228 C227 1.366 . S
C228 C229 1.414 . S
C228 C231 1.499 . S
C229 H203 0.950 . S
C229 C228 1.414 . S
C229 C230 1.374 . S
C230 H204 0.950 . S
C230 C226 1.385 . S
C230 C229 1.374 . S
C231 C228 1.499 . S
C231 C232 1.373 . S
C231 C233 1.389 . S
C232 H205 0.950 . S
C232 C218 1.377 . S
C232 C231 1.373 . S
C233 C217 1.377 . S
C233 C231 1.389 . S
C233 C234 1.524 . S
C234 C233 1.524 . S
C234 C235 1.397 . S
C234 C239 1.363 . S
C235 H206 0.950 . S
C235 C234 1.397 . S
C235 C236 1.334 . S
C236 H207 0.950 . S
C236 C235 1.334 . S
C236 C237 1.287 . S
C237 C236 1.287 . S
C237 C238 1.524 . S
C237 H240 0.999 . S
C238 H208 0.950 . S
C238 C237 1.524 . S
C238 C239 1.415 . S
C239 H209 0.950 . S
C239 C234 1.363 . S
C239 C238 1.415 . S
H240 C237 0.999 . S
H241 C222 0.913 . S
H242 C260 0.951 . S
H243 C262 0.951 . S
H244 C264 0.950 . S
H245 C265 0.950 . S
H246 C267 0.950 . S
H247 C270 0.950 . S
H248 C271 0.950 . S
H249 C273 0.950 . S
H250 C274 0.950 . S
H251 C275 0.951 . S
H252 C277 0.951 . S
H253 C279 0.950 . S
H254 C280 0.950 . S
H255 C282 0.950 . S
H256 C285 0.950 . S
H257 C286 0.950 . S
H258 C288 0.950 . S
H259 C289 0.950 . S
C260 H242 0.951 . S
C260 C261 1.366 . S
C260 C262 1.388 . S
C261 C260 1.366 . S
C261 C265 1.385 . S
C262 H243 0.951 . S
C262 C260 1.388 . S
C262 C263 1.366 . S
C263 C262 1.366 . S
C263 C264 1.414 . S
C263 C266 1.499 . S
C264 H244 0.950 . S
C264 C263 1.414 . S
C264 C265 1.374 . S
C265 H245 0.950 . S
C265 C261 1.385 . S
C265 C264 1.374 . S
C266 C263 1.499 . S
C266 C267 1.373 . S
C266 C268 1.389 . S
C267 H246 0.950 . S
C267 C266 1.373 . S
C267 C283 1.377 . S
C268 C266 1.389 . S
C268 C269 1.524 . S
C268 C282 1.377 . S
C269 C268 1.524 . S
C269 C270 1.397 . S
C269 C274 1.363 . S
C270 H247 0.950 . S
C270 C269 1.397 . S
C270 C271 1.334 . S
C271 H248 0.950 . S
C271 C270 1.334 . S
C271 C272 1.287 . S
C272 C271 1.287 . S
C272 C273 1.524 . S
C272 H291 0.913 . S
C273 H249 0.950 . S
C273 C272 1.524 . S
C273 C274 1.415 . S
C274 H250 0.950 . S
C274 C269 1.363 . S
C274 C273 1.415 . S
C275 H251 0.951 . S
C275 C276 1.366 . S
C275 C277 1.388 . S
C276 C275 1.366 . S
C276 C280 1.385 . S
C277 H252 0.951 . S
C277 C275 1.388 . S
C277 C278 1.366 . S
C278 C277 1.366 . S
C278 C279 1.414 . S
C278 C281 1.499 . S
C279 H253 0.950 . S
C279 C278 1.414 . S
C279 C280 1.374 . S
C280 H254 0.950 . S
C280 C276 1.385 . S
C280 C279 1.374 . S
C281 C278 1.499 . S
C281 C282 1.373 . S
C281 C283 1.389 . S
C282 H255 0.950 . S
C282 C268 1.377 . S
C282 C281 1.373 . S
C283 C267 1.377 . S
C283 C281 1.389 . S
C283 C284 1.524 . S
C284 C283 1.524 . S
C284 C285 1.397 . S
C284 C289 1.363 . S
C285 H256 0.950 . S
C285 C284 1.397 . S
C285 C286 1.334 . S
C286 H257 0.950 . S
C286 C285 1.334 . S
C286 C287 1.287 . S
C287 C286 1.287 . S
C287 C288 1.524 . S
C287 H290 0.999 . S
C288 H258 0.950 . S
C288 C287 1.524 . S
C288 C289 1.415 . S
C289 H259 0.950 . S
C289 C284 1.363 . S
C289 C288 1.415 . S
H290 C287 0.999 . S
H291 C272 0.913 . S
H292 C310 0.951 . S
H293 C312 0.951 . S
H294 C314 0.950 . S
H295 C315 0.950 . S
H296 C317 0.950 . S
H297 C320 0.950 . S
H298 C321 0.950 . S
H299 C323 0.950 . S
H300 C324 0.950 . S
H301 C325 0.951 . S
H302 C327 0.951 . S
H303 C329 0.950 . S
H304 C330 0.950 . S
H305 C332 0.950 . S
H306 C335 0.950 . S
H307 C336 0.950 . S
H308 C338 0.950 . S
H309 C339 0.950 . S
C310 H292 0.951 . S
C310 C311 1.366 . S
C310 C312 1.388 . S
C311 C310 1.366 . S
C311 C315 1.385 . S
C312 H293 0.951 . S
C312 C310 1.388 . S
C312 C313 1.366 . S
C313 C312 1.366 . S
C313 C314 1.414 . S
C313 C316 1.499 . S
C314 H294 0.950 . S
C314 C313 1.414 . S
C314 C315 1.374 . S
C315 H295 0.950 . S
C315 C311 1.385 . S
C315 C314 1.374 . S
C316 C313 1.499 . S
C316 C317 1.373 . S
C316 C318 1.389 . S
C317 H296 0.950 . S
C317 C316 1.373 . S
C317 C333 1.377 . S
C318 C316 1.389 . S
C318 C319 1.524 . S
C318 C332 1.377 . S
C319 C318 1.524 . S
C319 C320 1.397 . S
C319 C324 1.363 . S
C320 H297 0.950 . S
C320 C319 1.397 . S
C320 C321 1.334 . S
C321 H298 0.950 . S
C321 C320 1.334 . S
C321 C322 1.287 . S
C322 C321 1.287 . S
C322 C323 1.524 . S
C322 H341 0.913 . S
C323 H299 0.950 . S
C323 C322 1.524 . S
C323 C324 1.415 . S
C324 H300 0.950 . S
C324 C319 1.363 . S
C324 C323 1.415 . S
C325 H301 0.951 . S
C325 C326 1.366 . S
C325 C327 1.388 . S
C326 C325 1.366 . S
C326 C330 1.385 . S
C327 H302 0.951 . S
C327 C325 1.388 . S
C327 C328 1.366 . S
C328 C327 1.366 . S
C328 C329 1.414 . S
C328 C331 1.499 . S
C329 H303 0.950 . S
C329 C328 1.414 . S
C329 C330 1.374 . S
C330 H304 0.950 . S
C330 C326 1.385 . S
C330 C329 1.374 . S
C331 C328 1.499 . S
C331 C332 1.373 . S
C331 C333 1.389 . S
C332 H305 0.950 . S
C332 C318 1.377 . S
C332 C331 1.373 . S
C333 C317 1.377 . S
C333 C331 1.389 . S
C333 C334 1.524 . S
C334 C333 1.524 . S
C334 C335 1.397 . S
C334 C339 1.363 . S
C335 H306 0.950 . S
C335 C334 1.397 . S
C335 C336 1.334 . S
C336 H307 0.950 . S
C336 C335 1.334 . S
C336 C337 1.287 . S
C337 C336 1.287 . S
C337 C338 1.524 . S
C337 H340 0.999 . S
C338 H308 0.950 . S
C338 C337 1.524 . S
C338 C339 1.415 . S
C339 H309 0.950 . S
C339 C334 1.363 . S
C339 C338 1.415 . S
H340 C337 0.999 . S
H341 C322 0.913 . S
H342 C360 0.951 . S
H343 C362 0.951 . S
H344 C364 0.950 . S
H345 C365 0.950 . S
H346 C367 0.950 . S
H347 C370 0.950 . S
H348 C371 0.950 . S
H349 C373 0.950 . S
H350 C374 0.950 . S
H351 C375 0.951 . S
H352 C377 0.951 . S
H353 C379 0.950 . S
H354 C380 0.950 . S
H355 C382 0.950 . S
H356 C385 0.950 . S
H357 C386 0.950 . S
H358 C388 0.950 . S
H359 C389 0.950 . S
C360 H342 0.951 . S
C360 C361 1.366 . S
C360 C362 1.388 . S
C361 C360 1.366 . S
C361 C365 1.385 . S
C362 H343 0.951 . S
C362 C360 1.388 . S
C362 C363 1.366 . S
C363 C362 1.366 . S
C363 C364 1.414 . S
C363 C366 1.499 . S
C364 H344 0.950 . S
C364 C363 1.414 . S
C364 C365 1.374 . S
C365 H345 0.950 . S
C365 C361 1.385 . S
C365 C364 1.374 . S
C366 C363 1.499 . S
C366 C367 1.373 . S
C366 C368 1.389 . S
C367 H346 0.950 . S
C367 C366 1.373 . S
C367 C383 1.377 . S
C368 C366 1.389 . S
C368 C369 1.524 . S
C368 C382 1.377 . S
C369 C368 1.524 . S
C369 C370 1.397 . S
C369 C374 1.363 . S
C370 H347 0.950 . S
C370 C369 1.397 . S
C370 C371 1.334 . S
C371 H348 0.950 . S
C371 C370 1.334 . S
C371 C372 1.287 . S
C372 C371 1.287 . S
C372 C373 1.524 . S
C372 H391 0.913 . S
C373 H349 0.950 . S
C373 C372 1.524 . S
C373 C374 1.415 . S
C374 H350 0.950 . S
C374 C369 1.363 . S
C374 C373 1.415 . S
C375 H351 0.951 . S
C375 C376 1.366 . S
C375 C377 1.388 . S
C376 C375 1.366 . S
C376 C380 1.385 . S
C377 H352 0.951 . S
C377 C375 1.388 . S
C377 C378 1.366 . S
C378 C377 1.366 . S
C378 C379 1.414 . S
C378 C381 1.499 . S
C379 H353 0.950 . S
C379 C378 1.414 . S
C379 C380 1.374 . S
C380 H354 0.950 . S
C380 C376 1.385 . S
C380 C379 1.374 . S
C381 C378 1.499 . S
C381 C382 1.373 . S
C381 C383 1.389 . S
C382 H355 0.950 . S
C382 C368 1.377 . S
C382 C381 1.373 . S
C383 C367 1.377 . S
C383 C381 1.389 . S
C383 C384 1.524 . S
C384 C383 1.524 . S
C384 C385 1.397 . S
C384 C389 1.363 . S
C385 H356 0.950 . S
C385 C384 1.397 . S
C385 C386 1.334 . S
C386 H357 0.950 . S
C386 C385 1.334 . S
C386 C387 1.287 . S
C387 C386 1.287 . S
C387 C388 1.524 . S
C387 H390 0.999 . S
C388 H358 0.950 . S
C388 C387 1.524 . S
C388 C389 1.415 . S
C389 H359 0.950 . S
C389 C384 1.363 . S
C389 C388 1.415 . S
H390 C387 0.999 . S
H391 C372 0.913 . S
H392 C410 0.951 . S
H393 C412 0.951 . S
H394 C414 0.950 . S
H395 C415 0.950 . S
H396 C417 0.950 . S
H397 C420 0.950 . S
H398 C421 0.950 . S
H399 C423 0.950 . S
H400 C424 0.950 . S
H401 C425 0.951 . S
H402 C427 0.951 . S
H403 C429 0.950 . S
H404 C430 0.950 . S
H405 C432 0.950 . S
H406 C435 0.950 . S
H407 C436 0.950 . S
H408 C438 0.950 . S
H409 C439 0.950 . S
C410 H392 0.951 . S
C410 C411 1.366 . S
C410 C412 1.388 . S
C411 C410 1.366 . S
C411 C415 1.385 . S
C412 H393 0.951 . S
C412 C410 1.388 . S
C412 C413 1.366 . S
C413 C412 1.366 . S
C413 C414 1.414 . S
C413 C416 1.499 . S
C414 H394 0.950 . S
C414 C413 1.414 . S
C414 C415 1.374 . S
C415 H395 0.950 . S
C415 C411 1.385 . S
C415 C414 1.374 . S
C416 C413 1.499 . S
C416 C417 1.373 . S
C416 C418 1.389 . S
C417 H396 0.950 . S
C417 C416 1.373 . S
C417 C433 1.377 . S
C418 C416 1.389 . S
C418 C419 1.524 . S
C418 C432 1.377 . S
C419 C418 1.524 . S
C419 C420 1.397 . S
C419 C424 1.363 . S
C420 H397 0.950 . S
C420 C419 1.397 . S
C420 C421 1.334 . S
C421 H398 0.950 . S
C421 C420 1.334 . S
C421 C422 1.287 . S
C422 C421 1.287 . S
C422 C423 1.524 . S
C422 H441 0.913 . S
C423 H399 0.950 . S
C423 C422 1.524 . S
C423 C424 1.415 . S
C424 H400 0.950 . S
C424 C419 1.363 . S
C424 C423 1.415 . S
C425 H401 0.951 . S
C425 C426 1.366 . S
C425 C427 1.388 . S
C426 C425 1.366 . S
C426 C430 1.385 . S
C427 H402 0.951 . S
C427 C425 1.388 . S
C427 C428 1.366 . S
C428 C427 1.366 . S
C428 C429 1.414 . S
C428 C431 1.499 . S
C429 H403 0.950 . S
C429 C428 1.414 . S
C429 C430 1.374 . S
C430 H404 0.950 . S
C430 C426 1.385 . S
C430 C429 1.374 . S
C431 C428 1.499 . S
C431 C432 1.373 . S
C431 C433 1.389 . S
C432 H405 0.950 . S
C432 C418 1.377 . S
C432 C431 1.373 . S
C433 C417 1.377 . S
C433 C431 1.389 . S
C433 C434 1.524 . S
C434 C433 1.524 . S
C434 C435 1.397 . S
C434 C439 1.363 . S
C435 H406 0.950 . S
C435 C434 1.397 . S
C435 C436 1.334 . S
C436 H407 0.950 . S
C436 C435 1.334 . S
C436 C437 1.287 . S
C437 C436 1.287 . S
C437 C438 1.524 . S
C437 H440 0.999 . S
C438 H408 0.950 . S
C438 C437 1.524 . S
C438 C439 1.415 . S
C439 H409 0.950 . S
C439 C434 1.363 . S
C439 C438 1.415 . S
H440 C437 0.999 . S
H441 C422 0.913 . S
H442 C460 0.951 . S
H443 C462 0.951 . S
H444 C464 0.950 . S
H445 C465 0.950 . S
H446 C467 0.950 . S
H447 C470 0.950 . S
H448 C471 0.950 . S
H449 C473 0.950 . S
H450 C474 0.950 . S
H451 C475 0.951 . S
H452 C477 0.951 . S
H453 C479 0.950 . S
H454 C480 0.950 . S
H455 C482 0.950 . S
H456 C485 0.950 . S
H457 C486 0.950 . S
H458 C488 0.950 . S
H459 C489 0.950 . S
C460 H442 0.951 . S
C460 C461 1.366 . S
C460 C462 1.388 . S
C461 C460 1.366 . S
C461 C465 1.385 . S
C462 H443 0.951 . S
C462 C460 1.388 . S
C462 C463 1.366 . S
C463 C462 1.366 . S
C463 C464 1.414 . S
C463 C466 1.499 . S
C464 H444 0.950 . S
C464 C463 1.414 . S
C464 C465 1.374 . S
C465 H445 0.950 . S
C465 C461 1.385 . S
C465 C464 1.374 . S
C466 C463 1.499 . S
C466 C467 1.373 . S
C466 C468 1.389 . S
C467 H446 0.950 . S
C467 C466 1.373 . S
C467 C483 1.377 . S
C468 C466 1.389 . S
C468 C469 1.524 . S
C468 C482 1.377 . S
C469 C468 1.524 . S
C469 C470 1.397 . S
C469 C474 1.363 . S
C470 H447 0.950 . S
C470 C469 1.397 . S
C470 C471 1.334 . S
C471 H448 0.950 . S
C471 C470 1.334 . S
C471 C472 1.287 . S
C472 C471 1.287 . S
C472 C473 1.524 . S
C472 H491 0.913 . S
C473 H449 0.950 . S
C473 C472 1.524 . S
C473 C474 1.415 . S
C474 H450 0.950 . S
C474 C469 1.363 . S
C474 C473 1.415 . S
C475 H451 0.951 . S
C475 C476 1.366 . S
C475 C477 1.388 . S
C476 C475 1.366 . S
C476 C480 1.385 . S
C477 H452 0.951 . S
C477 C475 1.388 . S
C477 C478 1.366 . S
C478 C477 1.366 . S
C478 C479 1.414 . S
C478 C481 1.499 . S
C479 H453 0.950 . S
C479 C478 1.414 . S
C479 C480 1.374 . S
C480 H454 0.950 . S
C480 C476 1.385 . S
C480 C479 1.374 . S
C481 C478 1.499 . S
C481 C482 1.373 . S
C481 C483 1.389 . S
C482 H455 0.950 . S
C482 C468 1.377 . S
C482 C481 1.373 . S
C483 C467 1.377 . S
C483 C481 1.389 . S
C483 C484 1.524 . S
C484 C483 1.524 . S
C484 C485 1.397 . S
C484 C489 1.363 . S
C485 H456 0.950 . S
C485 C484 1.397 . S
C485 C486 1.334 . S
C486 H457 0.950 . S
C486 C485 1.334 . S
C486 C487 1.287 . S
C487 C486 1.287 . S
C487 C488 1.524 . S
C487 H490 0.999 . S
C488 H458 0.950 . S
C488 C487 1.524 . S
C488 C489 1.415 . S
C489 H459 0.950 . S
C489 C484 1.363 . S
C489 C488 1.415 . S
H490 C487 0.999 . S
H491 C472 0.913 . S
H492 C510 0.951 . S
H493 C512 0.951 . S
H494 C514 0.950 . S
H495 C515 0.950 . S
H496 C517 0.950 . S
H497 C520 0.950 . S
H498 C521 0.950 . S
H499 C523 0.950 . S
H500 C524 0.950 . S
H501 C525 0.951 . S
H502 C527 0.951 . S
H503 C529 0.950 . S
H504 C530 0.950 . S
H505 C532 0.950 . S
H506 C535 0.950 . S
H507 C536 0.950 . S
H508 C538 0.950 . S
H509 C539 0.950 . S
C510 H492 0.951 . S
C510 C511 1.366 . S
C510 C512 1.388 . S
C511 C510 1.366 . S
C511 C515 1.385 . S
C512 H493 0.951 . S
C512 C510 1.388 . S
C512 C513 1.366 . S
C513 C512 1.366 . S
C513 C514 1.414 . S
C513 C516 1.499 . S
C514 H494 0.950 . S
C514 C513 1.414 . S
C514 C515 1.374 . S
C515 H495 0.950 . S
C515 C511 1.385 . S
C515 C514 1.374 . S
C516 C513 1.499 . S
C516 C517 1.373 . S
C516 C518 1.389 . S
C517 H496 0.950 . S
C517 C516 1.373 . S
C517 C533 1.377 . S
C518 C516 1.389 . S
C518 C519 1.524 . S
C518 C532 1.377 . S
C519 C518 1.524 . S
C519 C520 1.397 . S
C519 C524 1.363 . S
C520 H497 0.950 . S
C520 C519 1.397 . S
C520 C521 1.334 . S
C521 H498 0.950 . S
C521 C520 1.334 . S
C521 C522 1.287 . S
C522 C521 1.287 . S
C522 C523 1.524 . S
C522 H541 0.913 . S
C523 H499 0.950 . S
C523 C522 1.524 . S
C523 C524 1.415 . S
C524 H500 0.950 . S
C524 C519 1.363 . S
C524 C523 1.415 . S
C525 H501 0.951 . S
C525 C526 1.366 . S
C525 C527 1.388 . S
C526 C525 1.366 . S
C526 C530 1.385 . S
C527 H502 0.951 . S
C527 C525 1.388 . S
C527 C528 1.366 . S
C528 C527 1.366 . S
C528 C529 1.414 . S
C528 C531 1.499 . S
C529 H503 0.950 . S
C529 C528 1.414 . S
C529 C530 1.374 . S
C530 H504 0.950 . S
C530 C526 1.385 . S
C530 C529 1.374 . S
C531 C528 1.499 . S
C531 C532 1.373 . S
C531 C533 1.389 . S
C532 H505 0.950 . S
C532 C518 1.377 . S
C532 C531 1.373 . S
C533 C517 1.377 . S
C533 C531 1.389 . S
C533 C534 1.524 . S
C534 C533 1.524 . S
C534 C535 1.397 . S
C534 C539 1.363 . S
C535 H506 0.950 . S
C535 C534 1.397 . S
C535 C536 1.334 . S
C536 H507 0.950 . S
C536 C535 1.334 . S
C536 C537 1.287 . S
C537 C536 1.287 . S
C537 C538 1.524 . S
C537 H540 0.999 . S
C538 H508 0.950 . S
C538 C537 1.524 . S
C538 C539 1.415 . S
C539 H509 0.950 . S
C539 C534 1.363 . S
C539 C538 1.415 . S
H540 C537 0.999 . S
H541 C522 0.913 . S
H542 C560 0.951 . S
H543 C562 0.951 . S
H544 C564 0.950 . S
H545 C565 0.950 . S
H546 C567 0.950 . S
H547 C570 0.950 . S
H548 C571 0.950 . S
H549 C573 0.950 . S
H550 C574 0.950 . S
H551 C575 0.951 . S
H552 C577 0.951 . S
H553 C579 0.950 . S
H554 C580 0.950 . S
H555 C582 0.950 . S
H556 C585 0.950 . S
H557 C586 0.950 . S
H558 C588 0.950 . S
H559 C589 0.950 . S
C560 H542 0.951 . S
C560 C561 1.366 . S
C560 C562 1.388 . S
C561 C560 1.366 . S
C561 C565 1.385 . S
C562 H543 0.951 . S
C562 C560 1.388 . S
C562 C563 1.366 . S
C563 C562 1.366 . S
C563 C564 1.414 . S
C563 C566 1.499 . S
C564 H544 0.950 . S
C564 C563 1.414 . S
C564 C565 1.374 . S
C565 H545 0.950 . S
C565 C561 1.385 . S
C565 C564 1.374 . S
C566 C563 1.499 . S
C566 C567 1.373 . S
C566 C568 1.389 . S
C567 H546 0.950 . S
C567 C566 1.373 . S
C567 C583 1.377 . S
C568 C566 1.389 . S
C568 C569 1.524 . S
C568 C582 1.377 . S
C569 C568 1.524 . S
C569 C570 1.397 . S
C569 C574 1.363 . S
C570 H547 0.950 . S
C570 C569 1.397 . S
C570 C571 1.334 . S
C571 H548 0.950 . S
C571 C570 1.334 . S
C571 C572 1.287 . S
C572 C571 1.287 . S
C572 C573 1.524 . S
C572 H591 0.913 . S
C573 H549 0.950 . S
C573 C572 1.524 . S
C573 C574 1.415 . S
C574 H550 0.950 . S
C574 C569 1.363 . S
C574 C573 1.415 . S
C575 H551 0.951 . S
C575 C576 1.366 . S
C575 C577 1.388 . S
C576 C575 1.366 . S
C576 C580 1.385 . S
C577 H552 0.951 . S
C577 C575 1.388 . S
C577 C578 1.366 . S
C578 C577 1.366 . S
C578 C579 1.414 . S
C578 C581 1.499 . S
C579 H553 0.950 . S
C579 C578 1.414 . S
C579 C580 1.374 . S
C580 H554 0.950 . S
C580 C576 1.385 . S
C580 C579 1.374 . S
C581 C578 1.499 . S
C581 C582 1.373 . S
C581 C583 1.389 . S
C582 H555 0.950 . S
C582 C568 1.377 . S
C582 C581 1.373 . S
C583 C567 1.377 . S
C583 C581 1.389 . S
C583 C584 1.524 . S
C584 C583 1.524 . S
C584 C585 1.397 . S
C584 C589 1.363 . S
C585 H556 0.950 . S
C585 C584 1.397 . S
C585 C586 1.334 . S
C586 H557 0.950 . S
C586 C585 1.334 . S
C586 C587 1.287 . S
C587 C586 1.287 . S
C587 C588 1.524 . S
C587 H590 0.999 . S
C588 H558 0.950 . S
C588 C587 1.524 . S
C588 C589 1.415 . S
C589 H559 0.950 . S
C589 C584 1.363 . S
C589 C588 1.415 . S
H590 C587 0.999 . S
H591 C572 0.913 . S
H592 C610 0.951 . S
H593 C612 0.951 . S
H594 C614 0.950 . S
H595 C615 0.950 . S
H596 C617 0.950 . S
H597 C620 0.950 . S
H598 C621 0.950 . S
H599 C623 0.950 . S
H600 C624 0.950 . S
H601 C625 0.951 . S
H602 C627 0.951 . S
H603 C629 0.950 . S
H604 C630 0.950 . S
H605 C632 0.950 . S
H606 C635 0.950 . S
H607 C636 0.950 . S
H608 C638 0.950 . S
H609 C639 0.950 . S
C610 H592 0.951 . S
C610 C611 1.366 . S
C610 C612 1.388 . S
C611 C610 1.366 . S
C611 C615 1.385 . S
C612 H593 0.951 . S
C612 C610 1.388 . S
C612 C613 1.366 . S
C613 C612 1.366 . S
C613 C614 1.414 . S
C613 C616 1.499 . S
C614 H594 0.950 . S
C614 C613 1.414 . S
C614 C615 1.374 . S
C615 H595 0.950 . S
C615 C611 1.385 . S
C615 C614 1.374 . S
C616 C613 1.499 . S
C616 C617 1.373 . S
C616 C618 1.389 . S
C617 H596 0.950 . S
C617 C616 1.373 . S
C617 C633 1.377 . S
C618 C616 1.389 . S
C618 C619 1.524 . S
C618 C632 1.377 . S
C619 C618 1.524 . S
C619 C620 1.397 . S
C619 C624 1.363 . S
C620 H597 0.950 . S
C620 C619 1.397 . S
C620 C621 1.334 . S
C621 H598 0.950 . S
C621 C620 1.334 . S
C621 C622 1.287 . S
C622 C621 1.287 . S
C622 C623 1.524 . S
C622 H641 0.913 . S
C623 H599 0.950 . S
C623 C622 1.524 . S
C623 C624 1.415 . S
C624 H600 0.950 . S
C624 C619 1.363 . S
C624 C623 1.415 . S
C625 H601 0.951 . S
C625 C626 1.366 . S
C625 C627 1.388 . S
C626 C625 1.366 . S
C626 C630 1.385 . S
C627 H602 0.951 . S
C627 C625 1.388 . S
C627 C628 1.366 . S
C628 C627 1.366 . S
C628 C629 1.414 . S
C628 C631 1.499 . S
C629 H603 0.950 . S
C629 C628 1.414 . S
C629 C630 1.374 . S
C630 H604 0.950 . S
C630 C626 1.385 . S
C630 C629 1.374 . S
C631 C628 1.499 . S
C631 C632 1.373 . S
C631 C633 1.389 . S
C632 H605 0.950 . S
C632 C618 1.377 . S
C632 C631 1.373 . S
C633 C617 1.377 . S
C633 C631 1.389 . S
C633 C634 1.524 . S
C634 C633 1.524 . S
C634 C635 1.397 . S
C634 C639 1.363 . S
C635 H606 0.950 . S
C635 C634 1.397 . S
C635 C636 1.334 . S
C636 H607 0.950 . S
C636 C635 1.334 . S
C636 C637 1.287 . S
C637 C636 1.287 . S
C637 C638 1.524 . S
C637 H640 0.999 . S
C638 H608 0.950 . S
C638 C637 1.524 . S
C638 C639 1.415 . S
C639 H609 0.950 . S
C639 C634 1.363 . S
C639 C638 1.415 . S
H640 C637 0.999 . S
H641 C622 0.913 . S
H642 C660 0.951 . S
H643 C662 0.951 . S
H644 C664 0.950 . S
H645 C665 0.950 . S
H646 C667 0.950 . S
H647 C670 0.950 . S
H648 C671 0.950 . S
H649 C673 0.950 . S
H650 C674 0.950 . S
H651 C675 0.951 . S
H652 C677 0.951 . S
H653 C679 0.950 . S
H654 C680 0.950 . S
H655 C682 0.950 . S
H656 C685 0.950 . S
H657 C686 0.950 . S
H658 C688 0.950 . S
H659 C689 0.950 . S
C660 H642 0.951 . S
C660 C661 1.366 . S
C660 C662 1.388 . S
C661 C660 1.366 . S
C661 C665 1.385 . S
C662 H643 0.951 . S
C662 C660 1.388 . S
C662 C663 1.366 . S
C663 C662 1.366 . S
C663 C664 1.414 . S
C663 C666 1.499 . S
C664 H644 0.950 . S
C664 C663 1.414 . S
C664 C665 1.374 . S
C665 H645 0.950 . S
C665 C661 1.385 . S
C665 C664 1.374 . S
C666 C663 1.499 . S
C666 C667 1.373 . S
C666 C668 1.389 . S
C667 H646 0.950 . S
C667 C666 1.373 . S
C667 C683 1.377 . S
C668 C666 1.389 . S
C668 C669 1.524 . S
C668 C682 1.377 . S
C669 C668 1.524 . S
C669 C670 1.397 . S
C669 C674 1.363 . S
C670 H647 0.950 . S
C670 C669 1.397 . S
C670 C671 1.334 . S
C671 H648 0.950 . S
C671 C670 1.334 . S
C671 C672 1.287 . S
C672 C671 1.287 . S
C672 C673 1.524 . S
C672 H691 0.913 . S
C673 H649 0.950 . S
C673 C672 1.524 . S
C673 C674 1.415 . S
C674 H650 0.950 . S
C674 C669 1.363 . S
C674 C673 1.415 . S
C675 H651 0.951 . S
C675 C676 1.366 . S
C675 C677 1.388 . S
C676 C675 1.366 . S
C676 C680 1.385 . S
C677 H652 0.951 . S
C677 C675 1.388 . S
C677 C678 1.366 . S
C678 C677 1.366 . S
C678 C679 1.414 . S
C678 C681 1.499 . S
C679 H653 0.950 . S
C679 C678 1.414 . S
C679 C680 1.374 . S
C680 H654 0.950 . S
C680 C676 1.385 . S
C680 C679 1.374 . S
C681 C678 1.499 . S
C681 C682 1.373 . S
C681 C683 1.389 . S
C682 H655 0.950 . S
C682 C668 1.377 . S
C682 C681 1.373 . S
C683 C667 1.377 . S
C683 C681 1.389 . S
C683 C684 1.524 . S
C684 C683 1.524 . S
C684 C685 1.397 . S
C684 C689 1.363 . S
C685 H656 0.950 . S
C685 C684 1.397 . S
C685 C686 1.334 . S
C686 H657 0.950 . S
C686 C685 1.334 . S
C686 C687 1.287 . S
C687 C686 1.287 . S
C687 C688 1.524 . S
C687 H690 0.999 . S
C688 H658 0.950 . S
C688 C687 1.524 . S
C688 C689 1.415 . S
C689 H659 0.950 . S
C689 C684 1.363 . S
C689 C688 1.415 . S
H690 C687 0.999 . S
H691 C672 0.913 . S
H692 C710 0.951 . S
H693 C712 0.951 . S
H694 C714 0.950 . S
H695 C715 0.950 . S
H696 C717 0.950 . S
H697 C720 0.950 . S
H698 C721 0.950 . S
H699 C723 0.950 . S
H700 C724 0.950 . S
H701 C725 0.951 . S
H702 C727 0.951 . S
H703 C729 0.950 . S
H704 C730 0.950 . S
H705 C732 0.950 . S
H706 C735 0.950 . S
H707 C736 0.950 . S
H708 C738 0.950 . S
H709 C739 0.950 . S
C710 H692 0.951 . S
C710 C711 1.366 . S
C710 C712 1.388 . S
C711 C710 1.366 . S
C711 C715 1.385 . S
C712 H693 0.951 . S
C712 C710 1.388 . S
C712 C713 1.366 . S
C713 C712 1.366 . S
C713 C714 1.414 . S
C713 C716 1.499 . S
C714 H694 0.950 . S
C714 C713 1.414 . S
C714 C715 1.374 . S
C715 H695 0.950 . S
C715 C711 1.385 . S
C715 C714 1.374 . S
C716 C713 1.499 . S
C716 C717 1.373 . S
C716 C718 1.389 . S
C717 H696 0.950 . S
C717 C716 1.373 . S
C717 C733 1.377 . S
C718 C716 1.389 . S
C718 C719 1.524 . S
C718 C732 1.377 . S
C719 C718 1.524 . S
C719 C720 1.397 . S
C719 C724 1.363 . S
C720 H697 0.950 . S
C720 C719 1.397 . S
C720 C721 1.334 . S
C721 H698 0.950 . S
C721 C720 1.334 . S
C721 C722 1.287 . S
C722 C721 1.287 . S
C722 C723 1.524 . S
C722 H741 0.913 . S
C723 H699 0.950 . S
C723 C722 1.524 . S
C723 C724 1.415 . S
C724 H700 0.950 . S
C724 C719 1.363 . S
C724 C723 1.415 . S
C725 H701 0.951 . S
C725 C726 1.366 . S
C725 C727 1.388 . S
C726 C725 1.366 . S
C726 C730 1.385 . S
C727 H702 0.951 . S
C727 C725 1.388 . S
C727 C728 1.366 . S
C728 C727 1.366 . S
C728 C729 1.414 . S
C728 C731 1.499 . S
C729 H703 0.950 . S
C729 C728 1.414 . S
C729 C730 1.374 . S
C730 H704 0.950 . S
C730 C726 1.385 . S
C730 C729 1.374 . S
C731 C728 1.499 . S
C731 C732 1.373 . S
C731 C733 1.389 . S
C732 H705 0.950 . S
C732 C718 1.377 . S
C732 C731 1.373 . S
C733 C717 1.377 . S
C733 C731 1.389 . S
C733 C734 1.524 . S
C734 C733 1.524 . S
C734 C735 1.397 . S
C734 C739 1.363 . S
C735 H706 0.950 . S
C735 C734 1.397 . S
C735 C736 1.334 . S
C736 H707 0.950 . S
C736 C735 1.334 . S
C736 C737 1.287 . S
C737 C736 1.287 . S
C737 C738 1.524 . S
C737 H740 0.999 . S
C738 H708 0.950 . S
C738 C737 1.524 . S
C738 C739 1.415 . S
C739 H709 0.950 . S
C739 C734 1.363 . S
C739 C738 1.415 . S
H740 C737 0.999 . S
H741 C722 0.913 . S
H742 C760 0.951 . S
H743 C762 0.951 . S
H744 C764 0.950 . S
H745 C765 0.950 . S
H746 C767 0.950 . S
H747 C770 0.950 . S
H748 C771 0.950 . S
H749 C773 0.950 . S
H750 C774 0.950 . S
H751 C775 0.951 . S
H752 C777 0.951 . S
H753 C779 0.950 . S
H754 C780 0.950 . S
H755 C782 0.950 . S
H756 C785 0.950 . S
H757 C786 0.950 . S
H758 C788 0.950 . S
H759 C789 0.950 . S
C760 H742 0.951 . S
C760 C761 1.366 . S
C760 C762 1.388 . S
C761 C760 1.366 . S
C761 C765 1.385 . S
C762 H743 0.951 . S
C762 C760 1.388 . S
C762 C763 1.366 . S
C763 C762 1.366 . S
C763 C764 1.414 . S
C763 C766 1.499 . S
C764 H744 0.950 . S
C764 C763 1.414 . S
C764 C765 1.374 . S
C765 H745 0.950 . S
C765 C761 1.385 . S
C765 C764 1.374 . S
C766 C763 1.499 . S
C766 C767 1.373 . S
C766 C768 1.389 . S
C767 H746 0.950 . S
C767 C766 1.373 . S
C767 C783 1.377 . S
C768 C766 1.389 . S
C768 C769 1.524 . S
C768 C782 1.377 . S
C769 C768 1.524 . S
C769 C770 1.397 . S
C769 C774 1.363 . S
C770 H747 0.950 . S
C770 C769 1.397 . S
C770 C771 1.334 . S
C771 H748 0.950 . S
C771 C770 1.334 . S
C771 C772 1.287 . S
C772 C771 1.287 . S
C772 C773 1.524 . S
C772 H791 0.913 . S
C773 H749 0.950 . S
C773 C772 1.524 . S
C773 C774 1.415 . S
C774 H750 0.950 . S
C774 C769 1.363 . S
C774 C773 1.415 . S
C775 H751 0.951 . S
C775 C776 1.366 . S
C775 C777 1.388 . S
C776 C775 1.366 . S
C776 C780 1.385 . S
C777 H752 0.951 . S
C777 C775 1.388 . S
C777 C778 1.366 . S
C778 C777 1.366 . S
C778 C779 1.414 . S
C778 C781 1.499 . S
C779 H753 0.950 . S
C779 C778 1.414 . S
C779 C780 1.374 . S
C780 H754 0.950 . S
C780 C776 1.385 . S
C780 C779 1.374 . S
C781 C778 1.499 . S
C781 C782 1.373 . S
C781 C783 1.389 . S
C782 H755 0.950 . S
C782 C768 1.377 . S
C782 C781 1.373 . S
C783 C767 1.377 . S
C783 C781 1.389 . S
C783 C784 1.524 . S
C784 C783 1.524 . S
C784 C785 1.397 . S
C784 C789 1.363 . S
C785 H756 0.950 . S
C785 C784 1.397 . S
C785 C786 1.334 . S
C786 H757 0.950 . S
C786 C785 1.334 . S
C786 C787 1.287 . S
C787 C786 1.287 . S
C787 C788 1.524 . S
C787 H790 0.999 . S
C788 H758 0.950 . S
C788 C787 1.524 . S
C788 C789 1.415 . S
C789 H759 0.950 . S
C789 C784 1.363 . S
C789 C788 1.415 . S
H790 C787 0.999 . S
H791 C772 0.913 . S
H792 C810 0.951 . S
H793 C812 0.951 . S
H794 C814 0.950 . S
H795 C815 0.950 . S
H796 C817 0.950 . S
H797 C820 0.950 . S
H798 C821 0.950 . S
H799 C823 0.950 . S
H800 C824 0.950 . S
H801 C825 0.951 . S
H802 C827 0.951 . S
H803 C829 0.950 . S
H804 C830 0.950 . S
H805 C832 0.950 1_556 S
H806 C835 0.950 . S
H807 C836 0.950 . S
H808 C838 0.950 . S
H809 C839 0.950 . S
C810 H792 0.951 . S
C810 C811 1.366 . S
C810 C812 1.388 . S
C811 C810 1.366 . S
C811 C815 1.385 . S
C812 H793 0.951 . S
C812 C810 1.388 . S
C812 C813 1.366 . S
C813 C812 1.366 . S
C813 C814 1.414 . S
C813 C816 1.499 . S
C814 H794 0.950 . S
C814 C813 1.414 . S
C814 C815 1.374 . S
C815 H795 0.950 . S
C815 C811 1.385 . S
C815 C814 1.374 . S
C816 C813 1.499 . S
C816 C817 1.373 . S
C816 C818 1.389 . S
C817 H796 0.950 . S
C817 C816 1.373 . S
C817 C833 1.377 . S
C818 C816 1.389 . S
C818 C819 1.524 . S
C818 C832 1.377 . S
C819 C818 1.524 . S
C819 C820 1.397 . S
C819 C824 1.363 . S
C820 H797 0.950 . S
C820 C819 1.397 . S
C820 C821 1.334 . S
C821 H798 0.950 . S
C821 C820 1.334 . S
C821 C822 1.287 . S
C822 C821 1.287 . S
C822 C823 1.524 . S
C822 H841 0.913 . S
C823 H799 0.950 . S
C823 C822 1.524 . S
C823 C824 1.415 . S
C824 H800 0.950 . S
C824 C819 1.363 . S
C824 C823 1.415 . S
C825 H801 0.951 . S
C825 C826 1.366 . S
C825 C827 1.388 . S
C826 C825 1.366 . S
C826 C830 1.385 . S
C827 H802 0.951 . S
C827 C825 1.388 . S
C827 C828 1.366 . S
C828 C827 1.366 . S
C828 C829 1.414 . S
C828 C831 1.499 . S
C829 H803 0.950 . S
C829 C828 1.414 . S
C829 C830 1.374 . S
C830 H804 0.950 . S
C830 C826 1.385 . S
C830 C829 1.374 . S
C831 C828 1.499 . S
C831 C832 1.373 1_556 S
C831 C833 1.389 1_556 S
C832 H805 0.950 1_554 S
C832 C818 1.377 . S
C832 C831 1.373 1_554 S
C833 C817 1.377 . S
C833 C831 1.389 1_554 S
C833 C834 1.524 . S
C834 C833 1.524 . S
C834 C835 1.397 1_454 S
C834 C839 1.363 . S
C835 H806 0.950 . S
C835 C834 1.397 1_656 S
C835 C836 1.334 . S
C836 H807 0.950 . S
C836 C835 1.334 . S
C836 C837 1.287 . S
C837 C836 1.287 . S
C837 C838 1.524 1_656 S
C837 H840 0.999 . S
C838 H808 0.950 . S
C838 C837 1.524 1_454 S
C838 C839 1.415 . S
C839 H809 0.950 . S
C839 C834 1.363 . S
C839 C838 1.415 . S
H840 C837 0.999 . S
H841 C822 0.913 . S
H842 C860 0.951 . S
H843 C862 0.951 . S
H844 C864 0.950 . S
H845 C865 0.950 . S
H846 C867 0.950 . S
H847 C870 0.950 . S
H848 C871 0.950 1_545 S
H849 C873 0.950 . S
H850 C874 0.950 . S
H851 C875 0.951 . S
H852 C877 0.951 . S
H853 C879 0.950 . S
H854 C880 0.950 . S
H855 C882 0.950 . S
H856 C885 0.950 . S
H857 C886 0.950 . S
H858 C888 0.950 . S
H859 C889 0.950 . S
C860 H842 0.951 . S
C860 C861 1.366 . S
C860 C862 1.388 . S
C861 C860 1.366 . S
C861 C865 1.385 . S
C862 H843 0.951 . S
C862 C860 1.388 . S
C862 C863 1.366 . S
C863 C862 1.366 . S
C863 C864 1.414 . S
C863 C866 1.499 . S
C864 H844 0.950 . S
C864 C863 1.414 . S
C864 C865 1.374 . S
C865 H845 0.950 . S
C865 C861 1.385 . S
C865 C864 1.374 . S
C866 C863 1.499 . S
C866 C867 1.373 . S
C866 C868 1.389 . S
C867 H846 0.950 . S
C867 C866 1.373 . S
C867 C883 1.377 . S
C868 C866 1.389 . S
C868 C869 1.524 . S
C868 C882 1.377 . S
C869 C868 1.524 . S
C869 C870 1.397 . S
C869 C874 1.363 1_545 S
C870 H847 0.950 . S
C870 C869 1.397 . S
C870 C871 1.334 1_545 S
C871 H848 0.950 1_565 S
C871 C870 1.334 1_565 S
C871 C872 1.287 . S
C872 C871 1.287 . S
C872 C873 1.524 . S
C872 H891 0.913 . S
C873 H849 0.950 . S
C873 C872 1.524 . S
C873 C874 1.415 . S
C874 H850 0.950 . S
C874 C869 1.363 1_565 S
C874 C873 1.415 . S
C875 H851 0.951 . S
C875 C876 1.366 . S
C875 C877 1.388 . S
C876 C875 1.366 . S
C876 C880 1.385 . S
C877 H852 0.951 . S
C877 C875 1.388 . S
C877 C878 1.366 . S
C878 C877 1.366 . S
C878 C879 1.414 . S
C878 C881 1.499 . S
C879 H853 0.950 . S
C879 C878 1.414 . S
C879 C880 1.374 . S
C880 H854 0.950 . S
C880 C876 1.385 . S
C880 C879 1.374 . S
C881 C878 1.499 . S
C881 C882 1.373 . S
C881 C883 1.389 . S
C882 H855 0.950 . S
C882 C868 1.377 . S
C882 C881 1.373 . S
C883 C867 1.377 . S
C883 C881 1.389 . S
C883 C884 1.524 . S
C884 C883 1.524 . S
C884 C885 1.397 . S
C884 C889 1.363 . S
C885 H856 0.950 . S
C885 C884 1.397 . S
C885 C886 1.334 . S
C886 H857 0.950 . S
C886 C885 1.334 . S
C886 C887 1.287 . S
C887 C886 1.287 . S
C887 C888 1.524 . S
C887 H890 0.999 . S
C888 H858 0.950 . S
C888 C887 1.524 . S
C888 C889 1.415 . S
C889 H859 0.950 . S
C889 C884 1.363 . S
C889 C888 1.415 . S
H890 C887 0.999 . S
H891 C872 0.913 . S
H892 C910 0.951 . S
H893 C912 0.951 . S
H894 C914 0.950 . S
H895 C915 0.950 . S
H896 C917 0.950 . S
H897 C920 0.950 . S
H898 C921 0.950 . S
H899 C923 0.950 . S
H900 C924 0.950 . S
H901 C925 0.951 . S
H902 C927 0.951 . S
H903 C929 0.950 . S
H904 C930 0.950 . S
H905 C932 0.950 . S
H906 C935 0.950 . S
H907 C936 0.950 . S
H908 C938 0.950 . S
H909 C939 0.950 . S
C910 H892 0.951 . S
C910 C911 1.366 . S
C910 C912 1.388 . S
C911 C910 1.366 . S
C911 C915 1.385 . S
C912 H893 0.951 . S
C912 C910 1.388 . S
C912 C913 1.366 . S
C913 C912 1.366 . S
C913 C914 1.414 . S
C913 C916 1.499 . S
C914 H894 0.950 . S
C914 C913 1.414 . S
C914 C915 1.374 . S
C915 H895 0.950 . S
C915 C911 1.385 . S
C915 C914 1.374 . S
C916 C913 1.499 . S
C916 C917 1.373 . S
C916 C918 1.389 . S
C917 H896 0.950 . S
C917 C916 1.373 . S
C917 C933 1.377 . S
C918 C916 1.389 . S
C918 C919 1.524 . S
C918 C932 1.377 . S
C919 C918 1.524 . S
C919 C920 1.397 . S
C919 C924 1.363 . S
C920 H897 0.950 . S
C920 C919 1.397 . S
C920 C921 1.334 . S
C921 H898 0.950 . S
C921 C920 1.334 . S
C921 C922 1.287 . S
C922 C921 1.287 . S
C922 C923 1.524 . S
C922 H941 0.913 . S
C923 H899 0.950 . S
C923 C922 1.524 . S
C923 C924 1.415 . S
C924 H900 0.950 . S
C924 C919 1.363 . S
C924 C923 1.415 . S
C925 H901 0.951 . S
C925 C926 1.366 . S
C925 C927 1.388 . S
C926 C925 1.366 . S
C926 C930 1.385 . S
C927 H902 0.951 . S
C927 C925 1.388 . S
C927 C928 1.366 . S
C928 C927 1.366 . S
C928 C929 1.414 . S
C928 C931 1.499 . S
C929 H903 0.950 . S
C929 C928 1.414 . S
C929 C930 1.374 . S
C930 H904 0.950 . S
C930 C926 1.385 . S
C930 C929 1.374 . S
C931 C928 1.499 . S
C931 C932 1.373 . S
C931 C933 1.389 . S
C932 H905 0.950 . S
C932 C918 1.377 . S
C932 C931 1.373 . S
C933 C917 1.377 . S
C933 C931 1.389 . S
C933 C934 1.524 . S
C934 C933 1.524 . S
C934 C935 1.397 . S
C934 C939 1.363 . S
C935 H906 0.950 . S
C935 C934 1.397 . S
C935 C936 1.334 . S
C936 H907 0.950 . S
C936 C935 1.334 . S
C936 C937 1.287 . S
C937 C936 1.287 . S
C937 C938 1.524 . S
C937 H940 0.999 . S
C938 H908 0.950 . S
C938 C937 1.524 . S
C938 C939 1.415 . S
C939 H909 0.950 . S
C939 C934 1.363 . S
C939 C938 1.415 . S
H940 C937 0.999 . S
H941 C922 0.913 . S
H942 C960 0.951 . S
H943 C962 0.951 . S
H944 C964 0.950 . S
H945 C965 0.950 . S
H946 C967 0.950 . S
H947 C970 0.950 . S
H948 C971 0.950 . S
H949 C973 0.950 . S
H950 C974 0.950 . S
H951 C975 0.951 . S
H952 C977 0.951 . S
H953 C979 0.950 . S
H954 C980 0.950 1_565 S
H955 C982 0.950 1_565 S
H956 C985 0.950 . S
H957 C986 0.950 . S
H958 C988 0.950 . S
H959 C989 0.950 . S
C960 H942 0.951 . S
C960 C961 1.366 . S
C960 C962 1.388 . S
C961 C960 1.366 . S
C961 C965 1.385 . S
C962 H943 0.951 . S
C962 C960 1.388 . S
C962 C963 1.366 . S
C963 C962 1.366 . S
C963 C964 1.414 . S
C963 C966 1.499 . S
C964 H944 0.950 . S
C964 C963 1.414 . S
C964 C965 1.374 . S
C965 H945 0.950 . S
C965 C961 1.385 . S
C965 C964 1.374 . S
C966 C963 1.499 . S
C966 C967 1.373 . S
C966 C968 1.389 . S
C967 H946 0.950 . S
C967 C966 1.373 . S
C967 C983 1.377 . S
C968 C966 1.389 . S
C968 C969 1.524 1_545 S
C968 C982 1.377 . S
C969 C968 1.524 1_565 S
C969 C970 1.397 . S
C969 C974 1.363 . S
C970 H947 0.950 . S
C970 C969 1.397 . S
C970 C971 1.334 . S
C971 H948 0.950 . S
C971 C970 1.334 . S
C971 C972 1.287 . S
C972 C971 1.287 . S
C972 C973 1.524 . S
C972 H991 0.913 . S
C973 H949 0.950 . S
C973 C972 1.524 . S
C973 C974 1.415 . S
C974 H950 0.950 . S
C974 C969 1.363 . S
C974 C973 1.415 . S
C975 H951 0.951 . S
C975 C976 1.366 . S
C975 C977 1.388 . S
C976 C975 1.366 . S
C976 C980 1.385 . S
C977 H952 0.951 . S
C977 C975 1.388 . S
C977 C978 1.366 . S
C978 C977 1.366 . S
C978 C979 1.414 . S
C978 C981 1.499 . S
C979 H953 0.950 . S
C979 C978 1.414 . S
C979 C980 1.374 . S
C980 H954 0.950 1_545 S
C980 C976 1.385 . S
C980 C979 1.374 . S
C981 C978 1.499 . S
C981 C982 1.373 . S
C981 C983 1.389 . S
C982 H955 0.950 1_545 S
C982 C968 1.377 . S
C982 C981 1.373 . S
C983 C967 1.377 . S
C983 C981 1.389 . S
C983 C984 1.524 . S
C984 C983 1.524 . S
C984 C985 1.397 . S
C984 C989 1.363 . S
C985 H956 0.950 . S
C985 C984 1.397 . S
C985 C986 1.334 . S
C986 H957 0.950 . S
C986 C985 1.334 . S
C986 C987 1.287 . S
C987 C986 1.287 . S
C987 C988 1.524 . S
C987 H990 0.999 . S
C988 H958 0.950 . S
C988 C987 1.524 . S
C988 C989 1.415 . S
C989 H959 0.950 . S
C989 C984 1.363 . S
C989 C988 1.415 . S
H990 C987 0.999 . S
H991 C972 0.913 . S
H992 C1010 0.951 . S
H993 C1012 0.951 . S
H994 C1014 0.950 . S
H995 C1015 0.950 . S
H996 C1017 0.950 . S
H997 C1020 0.950 . S
H998 C1021 0.950 . S
H999 C1023 0.950 . S
H1000 C1024 0.950 . S
H1001 C1025 0.951 . S
H1002 C1027 0.951 . S
H1003 C1029 0.950 . S
H1004 C1030 0.950 . S
H1005 C1032 0.950 . S
H1006 C1035 0.950 . S
H1007 C1036 0.950 . S
H1008 C1038 0.950 . S
H1009 C1039 0.950 . S
C1010 H992 0.951 . S
C1010 C1011 1.366 . S
C1010 C1012 1.388 . S
C1011 C1010 1.366 . S
C1011 C1015 1.385 . S
C1012 H993 0.951 . S
C1012 C1010 1.388 . S
C1012 C1013 1.366 . S
C1013 C1012 1.366 . S
C1013 C1014 1.414 . S
C1013 C1016 1.499 . S
C1014 H994 0.950 . S
C1014 C1013 1.414 . S
C1014 C1015 1.374 . S
C1015 H995 0.950 . S
C1015 C1011 1.385 . S
C1015 C1014 1.374 . S
C1016 C1013 1.499 . S
C1016 C1017 1.373 . S
C1016 C1018 1.389 . S
C1017 H996 0.950 . S
C1017 C1016 1.373 . S
C1017 C1033 1.377 . S
C1018 C1016 1.389 . S
C1018 C1019 1.524 . S
C1018 C1032 1.377 . S
C1019 C1018 1.524 . S
C1019 C1020 1.397 . S
C1019 C1024 1.363 . S
C1020 H997 0.950 . S
C1020 C1019 1.397 . S
C1020 C1021 1.334 . S
C1021 H998 0.950 . S
C1021 C1020 1.334 . S
C1021 C1022 1.287 . S
C1022 C1021 1.287 . S
C1022 C1023 1.524 . S
C1022 H1041 0.913 . S
C1023 H999 0.950 . S
C1023 C1022 1.524 . S
C1023 C1024 1.415 . S
C1024 H1000 0.950 . S
C1024 C1019 1.363 . S
C1024 C1023 1.415 . S
C1025 H1001 0.951 . S
C1025 C1026 1.366 . S
C1025 C1027 1.388 . S
C1026 C1025 1.366 . S
C1026 C1030 1.385 . S
C1027 H1002 0.951 . S
C1027 C1025 1.388 . S
C1027 C1028 1.366 . S
C1028 C1027 1.366 . S
C1028 C1029 1.414 . S
C1028 C1031 1.499 . S
C1029 H1003 0.950 . S
C1029 C1028 1.414 . S
C1029 C1030 1.374 . S
C1030 H1004 0.950 . S
C1030 C1026 1.385 . S
C1030 C1029 1.374 . S
C1031 C1028 1.499 . S
C1031 C1032 1.373 1_554 S
C1031 C1033 1.389 1_554 S
C1032 H1005 0.950 . S
C1032 C1018 1.377 . S
C1032 C1031 1.373 1_556 S
C1033 C1017 1.377 . S
C1033 C1031 1.389 1_556 S
C1033 C1034 1.524 1_556 S
C1034 C1033 1.524 1_554 S
C1034 C1035 1.397 . S
C1034 C1039 1.363 1_554 S
C1035 H1006 0.950 . S
C1035 C1034 1.397 . S
C1035 C1036 1.334 . S
C1036 H1007 0.950 . S
C1036 C1035 1.334 . S
C1036 C1037 1.287 . S
C1037 C1036 1.287 . S
C1037 C1038 1.524 . S
C1037 H1040 0.999 . S
C1038 H1008 0.950 . S
C1038 C1037 1.524 . S
C1038 C1039 1.415 1_554 S
C1039 H1009 0.950 . S
C1039 C1034 1.363 1_556 S
C1039 C1038 1.415 1_556 S
H1040 C1037 0.999 . S
H1041 C1022 0.913 . S
H1042 C1060 0.951 . S
H1043 C1062 0.951 . S
H1044 C1064 0.950 . S
H1045 C1065 0.950 . S
H1046 C1067 0.950 . S
H1047 C1070 0.950 . S
H1048 C1071 0.950 . S
H1049 C1073 0.950 . S
H1050 C1074 0.950 . S
H1051 C1075 0.951 . S
H1052 C1077 0.951 . S
H1053 C1079 0.946 1_655 S
H1054 C1080 0.950 . S
H1055 C1082 0.950 1_655 S
H1056 C1085 0.950 . S
H1057 C1086 0.950 . S
H1058 C1088 0.950 . S
H1059 C1089 0.950 . S
C1060 H1042 0.951 . S
C1060 C1061 1.366 . S
C1060 C1062 1.388 . S
C1061 C1060 1.366 . S
C1061 C1065 1.385 . S
C1062 H1043 0.951 . S
C1062 C1060 1.388 . S
C1062 C1063 1.366 . S
C1063 C1062 1.366 . S
C1063 C1064 1.414 . S
C1063 C1066 1.499 . S
C1064 H1044 0.950 . S
C1064 C1063 1.414 . S
C1064 C1065 1.374 . S
C1065 H1045 0.950 . S
C1065 C1061 1.385 . S
C1065 C1064 1.374 . S
C1066 C1063 1.499 . S
C1066 C1067 1.373 . S
C1066 C1068 1.389 . S
C1067 H1046 0.950 . S
C1067 C1066 1.373 . S
C1067 C1083 1.377 . S
C1068 C1066 1.389 . S
C1068 C1069 1.524 1_455 S
C1068 C1082 1.377 . S
C1069 C1068 1.524 1_655 S
C1069 C1070 1.397 . S
C1069 C1074 1.363 . S
C1070 H1047 0.950 . S
C1070 C1069 1.397 . S
C1070 C1071 1.334 . S
C1071 H1048 0.950 . S
C1071 C1070 1.334 . S
C1071 C1072 1.287 . S
C1072 C1071 1.287 . S
C1072 C1073 1.524 . S
C1072 H1091 0.913 . S
C1073 H1049 0.950 . S
C1073 C1072 1.524 . S
C1073 C1074 1.415 . S
C1074 H1050 0.950 . S
C1074 C1069 1.363 . S
C1074 C1073 1.415 . S
C1075 H1051 0.951 . S
C1075 C1076 1.366 . S
C1075 C1077 1.388 . S
C1076 C1075 1.366 . S
C1076 C1080 1.385 1_455 S
C1077 H1052 0.951 . S
C1077 C1075 1.388 . S
C1077 C1078 1.366 . S
C1078 C1077 1.366 . S
C1078 C1079 1.425 . S
C1078 C1081 1.499 . S
C1079 H1053 0.946 1_455 S
C1079 C1078 1.425 . S
C1079 C1080 1.368 1_455 S
C1080 H1054 0.950 . S
C1080 C1076 1.385 1_655 S
C1080 C1079 1.368 1_655 S
C1081 C1078 1.499 . S
C1081 C1082 1.373 . S
C1081 C1083 1.389 . S
C1082 H1055 0.950 1_455 S
C1082 C1068 1.377 . S
C1082 C1081 1.373 . S
C1083 C1067 1.377 . S
C1083 C1081 1.389 . S
C1083 C1084 1.524 . S
C1084 C1083 1.524 . S
C1084 C1085 1.397 . S
C1084 C1089 1.363 . S
C1085 H1056 0.950 . S
C1085 C1084 1.397 . S
C1085 C1086 1.334 . S
C1086 H1057 0.950 . S
C1086 C1085 1.334 . S
C1086 C1087 1.287 . S
C1087 C1086 1.287 . S
C1087 C1088 1.524 . S
C1087 H1090 0.999 . S
C1088 H1058 0.950 . S
C1088 C1087 1.524 . S
C1088 C1089 1.415 . S
C1089 H1059 0.950 . S
C1089 C1084 1.363 . S
C1089 C1088 1.415 . S
H1090 C1087 0.999 . S
H1091 C1072 0.913 . S
C211 C25 0.573 . S
C226 C186 0.577 . S
C261 C65 0.239 . S
C276 C160 0.268 . S
C311 C105 0.261 . S
C326 C172 0.264 . S
C361 C4 0.378 . S
C376 C184 0.430 . S
C426 C162 0.202 . S
C411 C44 0.159 . S
C476 C174 0.229 . S
C461 C84 0.125 . S
C511 C60 2.987 . S
C526 C136 2.911 . S
C561 C100 3.382 . S
C576 C150 3.349 1_655 S
C611 C31 2.933 . S
C626 C126 2.889 1_565 S
C676 C138 2.892 . S
C661 C71 2.930 . S
C726 C148 2.488 . S
C711 C111 2.576 . S
C761 C20 2.986 1_655 S
C776 C124 2.912 . S
C826 C153 1.771 . S
C811 C2 1.700 . S
C861 C42 1.737 . S
C876 C129 1.752 . S
C911 C82 1.701 . S
C926 C141 1.720 . S
C976 C177 1.244 . S
C961 C63 1.216 . S
C1026 C189 1.258 . S
C1011 C103 1.234 . S
C1061 C23 1.200 . S
C1076 C165 1.215 . S
