# Generated by pormake.
# Topology eea, (3,6)-cn, num edge types: 1
# Building blocks:
#     Node 0, Type 0, BuildingBlock: ESEHIV_clean_linker_0, # of connection points: 3
#     Node 1, Type 0, BuildingBlock: ESEHIV_clean_linker_0, # of connection points: 3
#     Node 2, Type 0, BuildingBlock: ESEHIV_clean_linker_0, # of connection points: 3
#     Node 3, Type 0, BuildingBlock: ESEHIV_clean_linker_0, # of connection points: 3
#     Node 4, Type 0, BuildingBlock: ESEHIV_clean_linker_0, # of connection points: 3
#     Node 5, Type 0, BuildingBlock: ESEHIV_clean_linker_0, # of connection points: 3
#     Node 6, Type 0, BuildingBlock: ESEHIV_clean_linker_0, # of connection points: 3
#     Node 7, Type 0, BuildingBlock: ESEHIV_clean_linker_0, # of connection points: 3
#     Node 8, Type 0, BuildingBlock: ESEHIV_clean_linker_0, # of connection points: 3
#     Node 9, Type 0, BuildingBlock: ESEHIV_clean_linker_0, # of connection points: 3
#     Node 10, Type 0, BuildingBlock: ESEHIV_clean_linker_0, # of connection points: 3
#     Node 11, Type 0, BuildingBlock: ESEHIV_clean_linker_0, # of connection points: 3
#     Node 12, Type 0, BuildingBlock: ESEHIV_clean_linker_0, # of connection points: 3
#     Node 13, Type 0, BuildingBlock: ESEHIV_clean_linker_0, # of connection points: 3
#     Node 14, Type 0, BuildingBlock: ESEHIV_clean_linker_0, # of connection points: 3
#     Node 15, Type 0, BuildingBlock: ESEHIV_clean_linker_0, # of connection points: 3
#     Node 16, Type 0, BuildingBlock: ESEHIV_clean_linker_0, # of connection points: 3
#     Node 17, Type 0, BuildingBlock: ESEHIV_clean_linker_0, # of connection points: 3
#     Node 18, Type 1, BuildingBlock: NUHQIS_clean_sbu_0, # of connection points: 6
#     Node 19, Type 1, BuildingBlock: NUHQIS_clean_sbu_0, # of connection points: 6
#     Node 20, Type 1, BuildingBlock: NUHQIS_clean_sbu_0, # of connection points: 6
#     Node 21, Type 1, BuildingBlock: NUHQIS_clean_sbu_0, # of connection points: 6
#     Node 22, Type 1, BuildingBlock: NUHQIS_clean_sbu_0, # of connection points: 6
#     Node 23, Type 1, BuildingBlock: NUHQIS_clean_sbu_0, # of connection points: 6
#     Node 24, Type 1, BuildingBlock: NUHQIS_clean_sbu_0, # of connection points: 6
#     Node 25, Type 1, BuildingBlock: NUHQIS_clean_sbu_0, # of connection points: 6
#     Node 26, Type 1, BuildingBlock: NUHQIS_clean_sbu_0, # of connection points: 6
#     Edge 27, Type (0, 1), BuildingBlock: XUDNAN_clean_linker_2, # of connection points: 2
#     Edge 28, Type (0, 1), BuildingBlock: XUDNAN_clean_linker_2, # of connection points: 2
#     Edge 29, Type (0, 1), BuildingBlock: XUDNAN_clean_linker_2, # of connection points: 2
#     Edge 30, Type (0, 1), BuildingBlock: XUDNAN_clean_linker_2, # of connection points: 2
#     Edge 31, Type (0, 1), BuildingBlock: XUDNAN_clean_linker_2, # of connection points: 2
#     Edge 32, Type (0, 1), BuildingBlock: XUDNAN_clean_linker_2, # of connection points: 2
#     Edge 33, Type (0, 1), BuildingBlock: XUDNAN_clean_linker_2, # of connection points: 2
#     Edge 34, Type (0, 1), BuildingBlock: XUDNAN_clean_linker_2, # of connection points: 2
#     Edge 35, Type (0, 1), BuildingBlock: XUDNAN_clean_linker_2, # of connection points: 2
#     Edge 36, Type (0, 1), BuildingBlock: XUDNAN_clean_linker_2, # of connection points: 2
#     Edge 37, Type (0, 1), BuildingBlock: XUDNAN_clean_linker_2, # of connection points: 2
#     Edge 38, Type (0, 1), BuildingBlock: XUDNAN_clean_linker_2, # of connection points: 2
#     Edge 39, Type (0, 1), BuildingBlock: XUDNAN_clean_linker_2, # of connection points: 2
#     Edge 40, Type (0, 1), BuildingBlock: XUDNAN_clean_linker_2, # of connection points: 2
#     Edge 41, Type (0, 1), BuildingBlock: XUDNAN_clean_linker_2, # of connection points: 2
#     Edge 42, Type (0, 1), BuildingBlock: XUDNAN_clean_linker_2, # of connection points: 2
#     Edge 43, Type (0, 1), BuildingBlock: XUDNAN_clean_linker_2, # of connection points: 2
#     Edge 44, Type (0, 1), BuildingBlock: XUDNAN_clean_linker_2, # of connection points: 2
#     Edge 45, Type (0, 1), BuildingBlock: XUDNAN_clean_linker_2, # of connection points: 2
#     Edge 46, Type (0, 1), BuildingBlock: XUDNAN_clean_linker_2, # of connection points: 2
#     Edge 47, Type (0, 1), BuildingBlock: XUDNAN_clean_linker_2, # of connection points: 2
#     Edge 48, Type (0, 1), BuildingBlock: XUDNAN_clean_linker_2, # of connection points: 2
#     Edge 49, Type (0, 1), BuildingBlock: XUDNAN_clean_linker_2, # of connection points: 2
#     Edge 50, Type (0, 1), BuildingBlock: XUDNAN_clean_linker_2, # of connection points: 2
#     Edge 51, Type (0, 1), BuildingBlock: XUDNAN_clean_linker_2, # of connection points: 2
#     Edge 52, Type (0, 1), BuildingBlock: XUDNAN_clean_linker_2, # of connection points: 2
#     Edge 53, Type (0, 1), BuildingBlock: XUDNAN_clean_linker_2, # of connection points: 2
#     Edge 54, Type (0, 1), BuildingBlock: XUDNAN_clean_linker_2, # of connection points: 2
#     Edge 55, Type (0, 1), BuildingBlock: XUDNAN_clean_linker_2, # of connection points: 2
#     Edge 56, Type (0, 1), BuildingBlock: XUDNAN_clean_linker_2, # of connection points: 2
#     Edge 57, Type (0, 1), BuildingBlock: XUDNAN_clean_linker_2, # of connection points: 2
#     Edge 58, Type (0, 1), BuildingBlock: XUDNAN_clean_linker_2, # of connection points: 2
#     Edge 59, Type (0, 1), BuildingBlock: XUDNAN_clean_linker_2, # of connection points: 2
#     Edge 60, Type (0, 1), BuildingBlock: XUDNAN_clean_linker_2, # of connection points: 2
#     Edge 61, Type (0, 1), BuildingBlock: XUDNAN_clean_linker_2, # of connection points: 2
#     Edge 62, Type (0, 1), BuildingBlock: XUDNAN_clean_linker_2, # of connection points: 2
#     Edge 63, Type (0, 1), BuildingBlock: XUDNAN_clean_linker_2, # of connection points: 2
#     Edge 64, Type (0, 1), BuildingBlock: XUDNAN_clean_linker_2, # of connection points: 2
#     Edge 65, Type (0, 1), BuildingBlock: XUDNAN_clean_linker_2, # of connection points: 2
#     Edge 66, Type (0, 1), BuildingBlock: XUDNAN_clean_linker_2, # of connection points: 2
#     Edge 67, Type (0, 1), BuildingBlock: XUDNAN_clean_linker_2, # of connection points: 2
#     Edge 68, Type (0, 1), BuildingBlock: XUDNAN_clean_linker_2, # of connection points: 2
#     Edge 69, Type (0, 1), BuildingBlock: XUDNAN_clean_linker_2, # of connection points: 2
#     Edge 70, Type (0, 1), BuildingBlock: XUDNAN_clean_linker_2, # of connection points: 2
#     Edge 71, Type (0, 1), BuildingBlock: XUDNAN_clean_linker_2, # of connection points: 2
#     Edge 72, Type (0, 1), BuildingBlock: XUDNAN_clean_linker_2, # of connection points: 2
#     Edge 73, Type (0, 1), BuildingBlock: XUDNAN_clean_linker_2, # of connection points: 2
#     Edge 74, Type (0, 1), BuildingBlock: XUDNAN_clean_linker_2, # of connection points: 2
#     Edge 75, Type (0, 1), BuildingBlock: XUDNAN_clean_linker_2, # of connection points: 2
#     Edge 76, Type (0, 1), BuildingBlock: XUDNAN_clean_linker_2, # of connection points: 2
#     Edge 77, Type (0, 1), BuildingBlock: XUDNAN_clean_linker_2, # of connection points: 2
#     Edge 78, Type (0, 1), BuildingBlock: XUDNAN_clean_linker_2, # of connection points: 2
#     Edge 79, Type (0, 1), BuildingBlock: XUDNAN_clean_linker_2, # of connection points: 2
#     Edge 80, Type (0, 1), BuildingBlock: XUDNAN_clean_linker_2, # of connection points: 2
# Relax obj value: 0.035
# Max RMSD: 0.131
# Mean RMSD: 0.089
data_MOF--net-eea--node1-NUHQIS_clean_sbu_0--node2-ESEHIV_clean_linker_0--edge1-XUDNAN_clean_linker_2
_symmetry_space_group_name_H-M    P1
_symmetry_Int_Tables_number       1
_symmetry_cell_setting            triclinic
loop_
_symmetry_equiv_pos_as_xyz
'x, y, z'
_cell_length_a     47.637658
_cell_length_b     47.837876
_cell_length_c     73.159585
_cell_angle_alpha  93.361368
_cell_angle_beta   93.177966
_cell_angle_gamma 119.96552
loop_
_atom_site_label
_atom_site_type_symbol
_atom_site_fract_x
_atom_site_fract_y
_atom_site_fract_z
_atom_type_partial_charge
H0 H 0.2258 0.15964 0.4517 0.0
H1 H 0.22575 0.06945 0.4441 0.0
H2 H 0.19312 0.10332 0.39914 0.0
C3 C 0.22189 0.13874 0.44288 0.0
C4 C 0.20845 0.13378 0.42463 0.0
C5 C 0.22821 0.1155 0.45002 0.0
C6 C 0.22156 0.08773 0.43858 0.0
C7 C 0.20844 0.08291 0.42028 0.0
C8 C 0.20277 0.10648 0.41337 0.0
H9 H 0.86281 0.10284 0.44651 0.0
H10 H 0.94686 0.19358 0.43843 0.0
H11 H 0.90643 0.11478 0.39544 0.0
C12 C 0.88131 0.11759 0.43783 0.0
C13 C 0.88142 0.10459 0.42007 0.0
C14 C 0.90514 0.14935 0.44473 0.0
C15 C 0.92892 0.16879 0.43339 0.0
C16 C 0.92899 0.15676 0.41536 0.0
C17 C 0.90543 0.12453 0.40897 0.0
H18 H 0.84221 0.76053 0.4429 0.0
H19 H 0.94059 0.77831 0.44275 0.0
H20 H 0.88933 0.78092 0.39327 0.0
C21 C 0.86341 0.76586 0.43578 0.0
C22 C 0.86265 0.77024 0.417 0.0
C23 C 0.89121 0.76802 0.44528 0.0
C24 C 0.91893 0.77617 0.43568 0.0
C25 C 0.91886 0.78174 0.41697 0.0
C26 C 0.89022 0.77779 0.4078 0.0
H27 H 0.08519 0.25305 0.57054 0.0
H28 H 0.18099 0.26471 0.57772 0.0
H29 H 0.11178 0.21671 0.61665 0.0
C30 C 0.10281 0.2491 0.57818 0.0
C31 C 0.09466 0.23374 0.59447 0.0
C32 C 0.13375 0.2602 0.57184 0.0
C33 C 0.15677 0.25544 0.58206 0.0
C34 C 0.14914 0.24053 0.59856 0.0
C35 C 0.11791 0.22918 0.60431 0.0
H36 H 0.76935 0.92208 0.57236 0.0
H37 H 0.74594 0.82279 0.57101 0.0
H38 H 0.78297 0.88527 0.62201 0.0
C39 C 0.76729 0.90194 0.57945 0.0
C40 C 0.77732 0.90696 0.59826 0.0
C41 C 0.75569 0.87164 0.56957 0.0
C42 C 0.75352 0.84581 0.5788 0.0
C43 C 0.76369 0.85056 0.59775 0.0
C44 C 0.77479 0.8811 0.60746 0.0
H45 H 0.05434 0.81934 0.5714 0.0
H46 H 0.15114 0.8952 0.5649 0.0
H47 H 0.10792 0.8974 0.61445 0.0
C48 C 0.07621 0.84148 0.57694 0.0
C49 C 0.07781 0.85613 0.59461 0.0
C50 C 0.10275 0.8554 0.56624 0.0
C51 C 0.13084 0.88456 0.57319 0.0
C52 C 0.13274 0.90052 0.59034 0.0
C53 C 0.10634 0.88567 0.60106 0.0
H54 H 0.8979 0.5085 0.77205 0.0
H55 H 0.93086 0.43972 0.77476 0.0
H56 H 0.89661 0.45425 0.72267 0.0
C57 C 0.9026 0.49076 0.7652 0.0
C58 C 0.89567 0.48331 0.74601 0.0
C59 C 0.91562 0.47535 0.77563 0.0
C60 C 0.92128 0.45202 0.76676 0.0
C61 C 0.91432 0.4442 0.74766 0.0
C62 C 0.90184 0.46016 0.73744 0.0
H63 H 0.51883 0.44115 0.78213 0.0
H64 H 0.59977 0.53249 0.77132 0.0
H65 H 0.56284 0.44885 0.73166 0.0
C66 C 0.53748 0.45543 0.77337 0.0
C67 C 0.53821 0.44106 0.75624 0.0
C68 C 0.55979 0.48825 0.7791 0.0
C69 C 0.58276 0.50707 0.76714 0.0
C70 C 0.58373 0.49323 0.74978 0.0
C71 C 0.56153 0.4601 0.74463 0.0
H72 H 0.52276 0.0971 0.7782 0.0
H73 H 0.61601 0.10237 0.77696 0.0
H74 H 0.58089 0.13781 0.73397 0.0
C75 C 0.5448 0.10357 0.7717 0.0
C76 C 0.55015 0.11974 0.75572 0.0
C77 C 0.56809 0.09631 0.77936 0.0
C78 C 0.5971 0.10604 0.77073 0.0
C79 C 0.60238 0.12171 0.7545 0.0
C80 C 0.57801 0.12708 0.74688 0.0
H81 H 0.72434 0.55472 0.904 0.0
H82 H 0.82475 0.57948 0.90472 0.0
H83 H 0.76951 0.5333 0.94923 0.0
C84 C 0.74567 0.55565 0.9107 0.0
C85 C 0.74332 0.54233 0.92759 0.0
C86 C 0.77504 0.56942 0.90226 0.0
C87 C 0.802 0.56897 0.91092 0.0
C88 C 0.79999 0.55528 0.92765 0.0
C89 C 0.7707 0.54245 0.93592 0.0
H90 H 0.39606 0.22719 0.90574 0.0
H91 H 0.41905 0.15228 0.91338 0.0
H92 H 0.41443 0.20798 0.96041 0.0
C93 C 0.40166 0.21323 0.91489 0.0
C94 C 0.40438 0.22028 0.93398 0.0
C95 C 0.40619 0.18823 0.90755 0.0
C96 C 0.41426 0.17063 0.91928 0.0
C97 C 0.41779 0.17791 0.93846 0.0
C98 C 0.41195 0.20223 0.94565 0.0
H99 H 0.74974 0.14606 0.9045 0.0
H100 H 0.84908 0.22515 0.91225 0.0
H101 H 0.78555 0.20759 0.95522 0.0
C102 C 0.76966 0.16635 0.91303 0.0
C103 C 0.76457 0.17442 0.93082 0.0
C104 C 0.80016 0.18439 0.90618 0.0
C105 C 0.82544 0.21127 0.9173 0.0
C106 C 0.8206 0.21959 0.93518 0.0
C107 C 0.79007 0.20084 0.94176 0.0
H108 H 0.59642 0.85367 0.09718 0.0
H109 H 0.61081 0.77509 0.10945 0.0
H110 H 0.57012 0.77519 0.05552 0.0
C111 C 0.59511 0.83107 0.09265 0.0
C112 C 0.58312 0.81693 0.07442 0.0
C113 C 0.60519 0.8161 0.10528 0.0
C114 C 0.60284 0.7864 0.09966 0.0
C115 C 0.58926 0.77073 0.08188 0.0
C116 C 0.58009 0.78662 0.0693 0.0
H117 H 0.18737 0.77065 0.10601 0.0
H118 H 0.28882 0.84422 0.10814 0.0
H119 H 0.23873 0.78236 0.0582 0.0
C120 C 0.20986 0.78285 0.09956 0.0
C121 C 0.21006 0.77337 0.0811 0.0
C122 C 0.23802 0.80876 0.10943 0.0
C123 C 0.26678 0.82477 0.10057 0.0
C124 C 0.2674 0.81511 0.08212 0.0
C125 C 0.23875 0.78969 0.07251 0.0
H126 H 0.17927 0.43046 0.11205 0.0
H127 H 0.26045 0.41435 0.11449 0.0
H128 H 0.24513 0.4617 0.06997 0.0
C129 C 0.20072 0.43283 0.10625 0.0
C130 C 0.21056 0.44858 0.09019 0.0
C131 C 0.21852 0.42036 0.11508 0.0
C132 C 0.2468 0.42406 0.10776 0.0
C133 C 0.25683 0.43929 0.09148 0.0
C134 C 0.23843 0.45129 0.08289 0.0
H135 H 0.39481 0.90608 0.23452 0.0
H136 H 0.48976 0.91748 0.23311 0.0
H137 H 0.43183 0.87178 0.27728 0.0
C138 C 0.4142 0.90294 0.2406 0.0
C139 C 0.41036 0.8886 0.25725 0.0
C140 C 0.44259 0.913 0.23162 0.0
C141 C 0.46777 0.90942 0.23991 0.0
C142 C 0.46429 0.89418 0.25629 0.0
C143 C 0.43553 0.88434 0.26501 0.0
H144 H 0.03928 0.54751 0.25289 0.0
H145 H 0.06927 0.47631 0.24791 0.0
H146 H 0.0947 0.53814 0.29819 0.0
C147 C 0.05132 0.53551 0.2588 0.0
C148 C 0.06637 0.5454 0.27692 0.0
C149 C 0.05161 0.51004 0.24836 0.0
C150 C 0.06791 0.49521 0.25605 0.0
C151 C 0.08332 0.50521 0.27402 0.0
C152 C 0.08189 0.52978 0.2845 0.0
H153 H 0.40693 0.47458 0.23686 0.0
H154 H 0.50027 0.55943 0.23592 0.0
H155 H 0.44479 0.54908 0.28227 0.0
C156 C 0.426 0.49789 0.24338 0.0
C157 C 0.42197 0.5101 0.2604 0.0
C158 C 0.4542 0.51549 0.23454 0.0
C159 C 0.47881 0.54565 0.24297 0.0
C160 C 0.47619 0.55795 0.26038 0.0
C161 C 0.44746 0.53993 0.26898 0.0
Tb162 Tb 0.4961 0.98614 0.98392 0.0
Eu163 Eu 0.52608 0.0216 0.02697 0.0
C164 C 0.53094 0.9609 0.01071 0.0
C165 C 0.45503 0.95738 0.01703 0.0
C166 C 0.49017 0.98009 0.93273 0.0
C167 C 0.53342 0.00305 0.91234 0.0
C168 C 0.52264 0.99127 0.92916 0.0
C169 C 0.46909 0.982 0.9193 0.0
C170 C 0.48001 0.99415 0.90249 0.0
C171 C 0.51217 0.00429 0.8987 0.0
C172 C 0.478 0.96597 0.95017 0.0
O173 O 0.47362 0.01445 0.99198 0.0
O174 O 0.51548 0.05462 0.01138 0.0
O175 O 0.56899 0.04473 0.00969 0.0
O176 O 0.53872 0.0325 0.98165 0.0
C177 C 0.48958 0.04443 0.99978 0.0
O178 O 0.52415 0.05004 0.05074 0.0
O179 O 0.55638 0.03046 0.05278 0.0
O180 O 0.52618 0.97502 0.02508 0.0
O181 O 0.52647 0.96679 0.99379 0.0
O182 O 0.46289 0.95095 1.00101 0.0
O183 O 0.4723 0.98575 0.02676 0.0
C184 C 0.56638 0.04874 0.9921 0.0
O185 O 0.49669 0.95925 0.96036 0.0
O186 O 0.46525 0.97937 0.96013 0.0
C187 C 0.52857 0.02968 0.07907 0.0
C188 C 0.50194 0.00107 0.11152 0.0
C189 C 0.53416 0.01005 0.10838 0.0
C190 C 0.5473 0.02421 0.09236 0.0
C191 C 0.49654 0.02114 0.08234 0.0
C192 C 0.48351 0.00721 0.09834 0.0
C193 C 0.5422 0.04357 0.06178 0.0
H194 H 0.55847 0.01113 0.90996 0.0
H195 H 0.53973 0.99062 0.93928 0.0
H196 H 0.44401 0.97369 0.9217 0.0
H197 H 0.46301 0.99467 0.89225 0.0
H198 H 0.54905 0.00546 0.11807 0.0
H199 H 0.57203 0.03051 0.09024 0.0
H200 H 0.48129 0.02499 0.07248 0.0
H201 H 0.4589 0.00135 0.10038 0.0
Tb202 Tb 0.02062 0.50708 0.99015 0.0
Eu203 Eu 0.98471 0.49212 0.02873 0.0
C204 C 0.04063 0.56183 0.02237 0.0
C205 C 0.05248 0.49319 0.02486 0.0
C206 C 0.02986 0.51782 0.94109 0.0
C207 C 0.01808 0.4981 0.90864 0.0
C208 C 0.03366 0.50099 0.926 0.0
C209 C 0.01053 0.53212 0.93852 0.0
C210 C 0.99524 0.52954 0.92114 0.0
C211 C 0.99853 0.51222 0.90599 0.0
C212 C 0.04428 0.51839 0.95957 0.0
O213 O 0.99482 0.45469 0.99088 0.0
O214 O 0.9541 0.44912 0.00822 0.0
O215 O 0.96236 0.51462 0.01104 0.0
O216 O 0.97299 0.5008 0.98271 0.0
C217 C 0.9659 0.43702 0.99647 0.0
O218 O 0.95805 0.45812 0.04846 0.0
O219 O 0.96778 0.5076 0.05223 0.0
O220 O 0.0306 0.54032 0.03433 0.0
O221 O 0.03167 0.5531 1.00469 0.0
O222 O 0.0572 0.50962 0.0104 0.0
O223 O 0.0244 0.47936 0.03202 0.0
C224 C 0.95764 0.51105 0.99298 0.0
O225 O 0.04776 0.54085 0.97194 0.0
O226 O 0.03256 0.49045 0.96617 0.0
C227 C 0.96418 0.48067 0.07889 0.0
C228 C 0.97845 0.47949 0.11663 0.0
C229 C 0.9466 0.45979 0.10811 0.0
C230 C 0.93957 0.46041 0.08942 0.0
C231 C 0.99602 0.50063 0.0873 0.0
C232 C 1.00307 0.50016 0.10608 0.0
C233 C 0.95613 0.4798 0.05913 0.0
H234 H 0.02075 0.48409 0.89741 0.0
H235 H 0.04813 0.48946 0.92773 0.0
H236 H 0.00686 0.54499 0.94996 0.0
H237 H 0.98082 0.54115 0.91961 0.0
H238 H 0.92706 0.44393 0.11592 0.0
H239 H 0.91487 0.44486 0.08313 0.0
H240 H 0.0154 0.51628 0.07932 0.0
H241 H 0.02788 0.51538 0.11224 0.0
Tb242 Tb 0.5079 0.48055 0.02562 0.0
Eu243 Eu 0.48961 0.5069 0.98838 0.0
C244 C 0.46621 0.43315 0.99104 0.0
C245 C 0.55205 0.4984 0.99298 0.0
C246 C 0.51564 0.4652 0.07394 0.0
C247 C 0.51596 0.45102 0.10522 0.0
C248 C 0.52281 0.44889 0.08701 0.0
C249 C 0.50215 0.48425 0.0793 0.0
C250 C 0.4952 0.48635 0.09748 0.0
C251 C 0.50164 0.46941 0.11061 0.0
C252 C 0.52024 0.46059 0.05454 0.0
O253 O 0.53475 0.53315 0.03041 0.0
O254 O 0.50443 0.54659 0.01111 0.0
O255 O 0.44489 0.48563 1.00439 0.0
O256 O 0.47045 0.49093 0.03312 0.0
C257 C 0.52574 0.55359 0.02528 0.0
O258 O 0.50143 0.54544 0.9705 0.0
O259 O 0.45912 0.49801 0.96279 0.0
O260 O 0.48047 0.4567 0.98056 0.0
O261 O 0.46825 0.43908 0.00892 0.0
O262 O 0.53789 0.47751 1.00504 0.0
O263 O 0.54129 0.51754 0.98798 0.0
C264 C 0.44476 0.48524 0.02241 0.0
O265 O 0.49347 0.4443 0.04364 0.0
O266 O 0.54162 0.48624 0.04744 0.0
C267 C 0.48942 0.52684 0.939 0.0
C268 C 0.51121 0.52928 0.90362 0.0
C269 C 0.4892 0.53993 0.90742 0.0
C270 C 0.47844 0.53871 0.92493 0.0
C271 C 0.51128 0.51606 0.93533 0.0
C272 C 0.52204 0.51722 0.91781 0.0
C273 C 0.47866 0.52649 0.95753 0.0
H274 H 0.52172 0.43811 0.11504 0.0
H275 H 0.53321 0.43406 0.08308 0.0
H276 H 0.49631 0.4969 0.06933 0.0
H277 H 0.48387 0.50043 0.10108 0.0
H278 H 0.47999 0.54891 0.89678 0.0
H279 H 0.46157 0.54713 0.92751 0.0
H280 H 0.52019 0.50697 0.94608 0.0
H281 H 0.53925 0.50917 0.91545 0.0
Tb282 Tb 0.16701 0.31803 0.32116 0.0
Eu283 Eu 0.19593 0.35706 0.3635 0.0
C284 C 0.18534 0.28704 0.35239 0.0
C285 C 0.12072 0.30206 0.35328 0.0
C286 C 0.15696 0.30497 0.26964 0.0
C287 C 0.15423 0.29221 0.23666 0.0
C288 C 0.14906 0.28229 0.25441 0.0
C289 C 0.17098 0.33799 0.26687 0.0
C290 C 0.17661 0.34802 0.24911 0.0
C291 C 0.1677 0.32513 0.23375 0.0
C292 C 0.14882 0.29351 0.28804 0.0
O293 O 0.17985 0.36777 0.31925 0.0
O294 O 0.17333 0.38221 0.34851 0.0
O295 O 0.23456 0.38579 0.3449 0.0
O296 O 0.21997 0.34166 0.32435 0.0
C297 C 0.17481 0.38626 0.3309 0.0
O298 O 0.19381 0.3846 0.38766 0.0
O299 O 0.2296 0.36931 0.38828 0.0
O300 O 0.20678 0.31658 0.3594 0.0
O301 O 0.16352 0.28165 0.33878 0.0
O302 O 0.12394 0.306 0.33566 0.0
O303 O 0.14592 0.31508 0.36573 0.0
C304 C 0.24009 0.37221 0.33046 0.0
O305 O 0.17116 0.29182 0.29826 0.0
O306 O 0.13451 0.30578 0.29757 0.0
C307 C 0.20476 0.36778 0.4159 0.0
C308 C 0.18674 0.34562 0.45085 0.0
C309 C 0.16374 0.34481 0.43759 0.0
C310 C 0.17256 0.35558 0.42032 0.0
C311 C 0.22757 0.36775 0.42895 0.0
C312 C 0.21861 0.3566 0.44622 0.0
C313 C 0.21478 0.38088 0.39794 0.0
H314 H 0.14733 0.27401 0.22514 0.0
H315 H 0.13819 0.25673 0.25619 0.0
H316 H 0.17684 0.35593 0.27838 0.0
H317 H 0.18672 0.37349 0.24732 0.0
H318 H 0.13887 0.33608 0.44065 0.0
H319 H 0.15416 0.35473 0.41054 0.0
H320 H 0.25249 0.37683 0.4259 0.0
H321 H 0.23689 0.35764 0.45617 0.0
Tb322 Tb 0.69007 0.84719 0.31964 0.0
Eu323 Eu 0.64623 0.82704 0.35562 0.0
C324 C 0.71298 0.8945 0.356 0.0
C325 C 0.70658 0.81555 0.35197 0.0
C326 C 0.70835 0.86139 0.27206 0.0
C327 C 0.71836 0.87703 0.24104 0.0
C328 C 0.73014 0.87733 0.25908 0.0
C329 C 0.67476 0.84492 0.26681 0.0
C330 C 0.66298 0.84499 0.24894 0.0
C331 C 0.68464 0.86116 0.23589 0.0
C332 C 0.72023 0.86273 0.29123 0.0
O333 O 0.64519 0.80297 0.30958 0.0
O334 O 0.62709 0.78122 0.33676 0.0
O335 O 0.61549 0.83462 0.33417 0.0
O336 O 0.65654 0.86547 0.3164 0.0
C337 C 0.62721 0.77841 0.31882 0.0
O338 O 0.62176 0.79237 0.37543 0.0
O339 O 0.62408 0.83876 0.37799 0.0
O340 O 0.68302 0.8802 0.36051 0.0
O341 O 0.72187 0.88233 0.34246 0.0
O342 O 0.70372 0.81658 0.3341 0.0
O343 O 0.69208 0.82561 0.36307 0.0
C344 C 0.62649 0.85336 0.32079 0.0
O345 O 0.71815 0.88328 0.30277 0.0
O346 O 0.70967 0.83475 0.29771 0.0
C347 C 0.6342 0.8196 0.4049 0.0
C348 C 0.66684 0.83463 0.44049 0.0
C349 C 0.63332 0.82394 0.43809 0.0
C350 C 0.61708 0.81649 0.42034 0.0
C351 C 0.66743 0.82975 0.40735 0.0
C352 C 0.68351 0.83693 0.4249 0.0
C353 C 0.61838 0.8131 0.38611 0.0
H354 H 0.73555 0.88971 0.23123 0.0
H355 H 0.75616 0.8902 0.26292 0.0
H356 H 0.65762 0.83211 0.27661 0.0
H357 H 0.6369 0.83213 0.24528 0.0
H358 H 0.61989 0.82213 0.44986 0.0
H359 H 0.5914 0.80875 0.41869 0.0
H360 H 0.68113 0.83238 0.39566 0.0
H361 H 0.70914 0.84444 0.42624 0.0
Tb362 Tb 0.17968 0.82671 0.3594 0.0
Eu363 Eu 0.15157 0.8299 0.31736 0.0
C364 C 0.14305 0.76548 0.33113 0.0
C365 C 0.22343 0.8441 0.32648 0.0
C366 C 0.18427 0.82144 0.40961 0.0
C367 C 0.18814 0.83976 0.44188 0.0
C368 C 0.20265 0.84163 0.42552 0.0
C369 C 0.15112 0.79892 0.41038 0.0
C370 C 0.13664 0.7968 0.42679 0.0
C371 C 0.15485 0.81748 0.44273 0.0
C372 C 0.19942 0.82589 0.3921 0.0
O373 O 0.19466 0.87715 0.3556 0.0
O374 O 0.15249 0.86934 0.33541 0.0
O375 O 0.10784 0.81129 0.33367 0.0
O376 O 0.13228 0.82137 0.36355 0.0
C377 C 0.17521 0.88683 0.34874 0.0
O378 O 0.15386 0.85854 0.2948 0.0
O379 O 0.12188 0.80627 0.29128 0.0
O380 O 0.15407 0.78456 0.318 0.0
O381 O 0.1445 0.77732 0.34802 0.0
O382 O 0.21473 0.82731 0.34084 0.0
O383 O 0.20604 0.85577 0.31944 0.0
C384 C 0.10686 0.81306 0.35169 0.0
O385 O 0.18696 0.80097 0.37974 0.0
O386 O 0.20547 0.85222 0.38476 0.0
C387 C 0.14784 0.83241 0.26543 0.0
C388 C 0.17681 0.83587 0.23236 0.0
C389 C 0.16385 0.85594 0.23659 0.0
C390 C 0.14951 0.85421 0.25296 0.0
C391 C 0.16031 0.81193 0.26118 0.0
C392 C 0.17459 0.81359 0.24476 0.0
C393 C 0.13508 0.8331 0.28326 0.0
H394 H 0.20289 0.85651 0.45369 0.0
H395 H 0.22815 0.85947 0.42518 0.0
H396 H 0.13623 0.78325 0.39825 0.0
H397 H 0.11113 0.77899 0.42693 0.0
H398 H 0.16472 0.873 0.22722 0.0
H399 H 0.14013 0.87028 0.25601 0.0
H400 H 0.15949 0.79504 0.27066 0.0
H401 H 0.18458 0.79798 0.24196 0.0
Tb402 Tb 0.82086 0.66012 0.65263 0.0
Eu403 Eu 0.84701 0.69851 0.70004 0.0
C404 C 0.84535 0.62992 0.68176 0.0
C405 C 0.77298 0.6344 0.68458 0.0
C406 C 0.81786 0.66799 0.60224 0.0
C407 C 0.82062 0.66323 0.56916 0.0
C408 C 0.8072 0.6494 0.58513 0.0
C409 C 0.84258 0.70068 0.60319 0.0
C410 C 0.85591 0.71462 0.5872 0.0
C411 C 0.84499 0.69615 0.5699 0.0
C412 C 0.80272 0.65299 0.61883 0.0
O413 O 0.82305 0.69555 0.67125 0.0
O414 O 0.83172 0.73399 0.69008 0.0
O415 O 0.88743 0.7268 0.68179 0.0
O416 O 0.8727 0.69509 0.65325 0.0
C417 C 0.81989 0.72062 0.67361 0.0
O418 O 0.84336 0.72014 0.72612 0.0
O419 O 0.8788 0.70448 0.72469 0.0
O420 O 0.8509 0.65318 0.69474 0.0
O421 O 0.83401 0.62767 0.66449 0.0
O422 O 0.77811 0.63132 0.66707 0.0
O423 O 0.79444 0.65706 0.69737 0.0
C424 C 0.89308 0.72065 0.66484 0.0
O425 O 0.81335 0.63545 0.62643 0.0
O426 O 0.79873 0.67147 0.63107 0.0
C427 C 0.85118 0.6961 0.75179 0.0
C428 C 0.82775 0.66589 0.78413 0.0
C429 C 0.80599 0.66181 0.76906 0.0
C430 C 0.81754 0.67655 0.75304 0.0
C431 C 0.87302 0.69934 0.76659 0.0
C432 C 0.86142 0.68422 0.78259 0.0
C433 C 0.8634 0.71386 0.73542 0.0
H434 H 0.81199 0.64796 0.55624 0.0
H435 H 0.78834 0.62408 0.58409 0.0
H436 H 0.85137 0.71554 0.61627 0.0
H437 H 0.87434 0.74007 0.5884 0.0
H438 H 0.77994 0.64744 0.76975 0.0
H439 H 0.80006 0.67316 0.74177 0.0
H440 H 0.89903 0.71412 0.76592 0.0
H441 H 0.87874 0.68784 0.79401 0.0
Tb442 Tb 0.36047 0.18265 0.65843 0.0
Eu443 Eu 0.31933 0.14938 0.69339 0.0
C444 C 0.37865 0.22264 0.69743 0.0
C445 C 0.38875 0.15646 0.68859 0.0
C446 C 0.37434 0.19459 0.61029 0.0
C447 C 0.34985 0.2031 0.58266 0.0
C448 C 0.36693 0.21453 0.60015 0.0
C449 C 0.36591 0.16368 0.60219 0.0
C450 C 0.34897 0.15234 0.58473 0.0
C451 C 0.33995 0.17155 0.57498 0.0
C452 C 0.38734 0.20465 0.62986 0.0
O453 O 0.33221 0.13053 0.65023 0.0
O454 O 0.29025 0.11531 0.66851 0.0
O455 O 0.29917 0.17901 0.68155 0.0
O456 O 0.31239 0.17631 0.65221 0.0
C457 C 0.30257 0.10991 0.65407 0.0
O458 O 0.29457 0.10766 0.70906 0.0
O459 O 0.29704 0.1529 0.71802 0.0
O460 O 0.36389 0.19552 0.70521 0.0
O461 O 0.37494 0.22314 0.67949 0.0
O462 O 0.3949 0.17934 0.67769 0.0
O463 O 0.35908 0.13682 0.69265 0.0
C464 C 0.2959 0.18233 0.664 0.0
O465 O 0.37373 0.21757 0.63953 0.0
O466 O 0.39142 0.18389 0.63878 0.0
C467 C 0.30494 0.12453 0.74076 0.0
C468 C 0.33638 0.13415 0.77621 0.0
C469 C 0.30457 0.12908 0.77392 0.0
C470 C 0.289 0.12436 0.7563 0.0
C471 C 0.33619 0.12838 0.74299 0.0
C472 C 0.3517 0.13297 0.76055 0.0
C473 C 0.29078 0.12444 0.72242 0.0
H474 H 0.34314 0.21844 0.57553 0.0
H475 H 0.37313 0.23844 0.60607 0.0
H476 H 0.3713 0.14766 0.60955 0.0
H477 H 0.3423 0.12817 0.57902 0.0
H478 H 0.29228 0.13027 0.7857 0.0
H479 H 0.26505 0.12181 0.75481 0.0
H480 H 0.34908 0.1289 0.73114 0.0
H481 H 0.376 0.13637 0.76186 0.0
Tb482 Tb 0.862 0.16702 0.69462 0.0
Eu483 Eu 0.8369 0.18415 0.65513 0.0
C484 C 0.83699 0.11824 0.65923 0.0
C485 C 0.90761 0.19388 0.66263 0.0
C486 C 0.87284 0.15751 0.74429 0.0
C487 C 0.87021 0.14017 0.775 0.0
C488 C 0.87861 0.13977 0.75702 0.0
C489 C 0.85931 0.17646 0.74991 0.0
C490 C 0.85103 0.17702 0.76799 0.0
C491 C 0.85582 0.15835 0.78064 0.0
C492 C 0.87851 0.15373 0.72493 0.0
O493 O 0.88021 0.21913 0.69764 0.0
O494 O 0.84714 0.22512 0.6757 0.0
O495 O 0.79292 0.16133 0.67104 0.0
O496 O 0.81784 0.16752 0.70025 0.0
C497 C 0.86856 0.23611 0.69019 0.0
O498 O 0.84191 0.21767 0.63489 0.0
O499 O 0.80576 0.16671 0.62911 0.0
O500 O 0.84391 0.14195 0.64903 0.0
O501 O 0.8346 0.1214 0.67691 0.0
O502 O 0.89813 0.1734 0.67534 0.0
O503 O 0.89123 0.20791 0.65764 0.0
C504 C 0.79242 0.16119 0.68901 0.0
O505 O 0.85266 0.13362 0.71405 0.0
O506 O 0.89683 0.18012 0.71733 0.0
C507 C 0.83443 0.19391 0.60415 0.0
C508 C 0.85933 0.19103 0.57015 0.0
C509 C 0.82906 0.16559 0.57418 0.0
C510 C 0.81674 0.16708 0.59093 0.0
C511 C 0.86444 0.21958 0.60002 0.0
C512 C 0.87669 0.21815 0.58326 0.0
C513 C 0.82203 0.19453 0.62231 0.0
H514 H 0.87462 0.12588 0.78446 0.0
H515 H 0.88891 0.12492 0.75291 0.0
H516 H 0.85438 0.1901 0.74021 0.0
H517 H 0.83978 0.19106 0.77186 0.0
H518 H 0.81513 0.14414 0.56456 0.0
H519 H 0.79352 0.14694 0.59365 0.0
H520 H 0.8787 0.24077 0.60978 0.0
H521 H 0.89977 0.23848 0.58055 0.0
H522 H 0.31261 0.88051 0.08357 0.0
H523 H 0.29032 0.78604 0.05884 0.0
H524 H 0.33583 0.8123 0.03971 0.0
H525 H 0.33387 0.92174 0.04401 0.0
H526 H 0.3674 0.95902 0.05529 0.0
H527 H 0.33419 0.93313 0.06799 0.0
H528 H 0.37452 0.93033 0.09208 0.0
H529 H 0.40789 0.9566 0.07955 0.0
H530 H 0.40223 0.91773 0.08447 0.0
H531 H 0.38024 0.84833 0.02136 0.0
H532 H 0.42525 0.89222 0.00721 0.0
H533 H 0.42132 0.96359 0.04485 0.0
C534 C 0.31774 0.86535 0.07443 0.0
C535 C 0.29752 0.8312 0.07252 0.0
C536 C 0.30496 0.81226 0.06025 0.0
C537 C 0.33087 0.82692 0.04939 0.0
C538 C 0.34958 0.86059 0.05113 0.0
C539 C 0.34384 0.87961 0.06357 0.0
C540 C 0.36762 0.91534 0.06252 0.0
C541 C 0.34969 0.93336 0.05713 0.0
C542 C 0.38935 0.93092 0.08074 0.0
C543 C 0.38702 0.91332 0.04727 0.0
C544 C 0.37611 0.88149 0.04088 0.0
C545 C 0.38929 0.87338 0.02637 0.0
C546 C 0.41469 0.8985 0.01833 0.0
C547 C 0.42681 0.93133 0.02491 0.0
C548 C 0.41269 0.93873 0.03957 0.0
H549 H 0.14361 0.42238 0.08548 0.0
H550 H 0.23462 0.50471 0.07331 0.0
H551 H 0.204 0.5247 0.05556 0.0
H552 H 0.09866 0.4094 0.04255 0.0
H553 H 0.06104 0.39979 0.05198 0.0
H554 H 0.08988 0.39191 0.06415 0.0
H555 H 0.09141 0.42672 0.0931 0.0
H556 H 0.06238 0.43453 0.08105 0.0
H557 H 0.10085 0.46788 0.09126 0.0
H558 H 0.16402 0.53428 0.03765 0.0
H559 H 0.11695 0.53511 0.02253 0.0
H560 H 0.05137 0.44873 0.04769 0.0
C561 C 0.15717 0.44491 0.07937 0.0
C562 C 0.19167 0.46169 0.08067 0.0
C563 C 0.20827 0.49091 0.07221 0.0
C564 C 0.19109 0.50264 0.06219 0.0
C565 C 0.15722 0.48522 0.06091 0.0
C566 C 0.14038 0.45723 0.06945 0.0
C567 C 0.10388 0.44322 0.06584 0.0
C568 C 0.0874 0.40906 0.05552 0.0
C569 C 0.08874 0.44309 0.08389 0.0
C570 C 0.10291 0.4675 0.05374 0.0
C571 C 0.13401 0.49142 0.05103 0.0
C572 C 0.13954 0.51586 0.03981 0.0
C573 C 0.11261 0.51601 0.0312 0.0
C574 C 0.08045 0.49204 0.03394 0.0
C575 C 0.07564 0.46755 0.04545 0.0
H576 H 0.58722 0.74141 0.04739 0.0
H577 H 0.57518 0.72231 0.10476 0.0
H578 H 0.56319 0.66686 0.0966 0.0
H579 H 0.51739 0.66601 0.0305 0.0
H580 H 0.53438 0.66116 0.00996 0.0
H581 H 0.5472 0.70117 0.02053 0.0
H582 H 0.60728 0.71478 0.02271 0.0
H583 H 0.59464 0.67475 0.01219 0.0
H584 H 0.61857 0.68901 0.0342 0.0
H585 H 0.55136 0.61291 0.08241 0.0
H586 H 0.53408 0.56236 0.06251 0.0
H587 H 0.54498 0.6137 0.01407 0.0
C588 C 0.58196 0.72581 0.05835 0.0
C589 C 0.58298 0.73713 0.07688 0.0
C590 C 0.57608 0.71528 0.09058 0.0
C591 C 0.56882 0.68337 0.08607 0.0
C592 C 0.56769 0.67315 0.06773 0.0
C593 C 0.57349 0.6935 0.05404 0.0
C594 C 0.56742 0.67549 0.03518 0.0
C595 C 0.53996 0.67598 0.02335 0.0
C596 C 0.59885 0.68934 0.0255 0.0
C597 C 0.55703 0.64177 0.04045 0.0
C598 C 0.55815 0.64119 0.05934 0.0
C599 C 0.55027 0.61299 0.0676 0.0
C600 C 0.5406 0.5845 0.05622 0.0
C601 C 0.53816 0.58433 0.03685 0.0
C602 C 0.54651 0.6133 0.02887 0.0
H603 H 0.86358 0.2801 0.92505 0.0
H604 H 0.83621 0.22417 0.97221 0.0
H605 H 0.87297 0.27348 0.99277 0.0
H606 H 0.95076 0.33483 0.94336 0.0
H607 H 0.95236 0.36929 0.93361 0.0
H608 H 0.92599 0.32901 0.92236 0.0
H609 H 0.87686 0.33813 0.9234 0.0
H610 H 0.90294 0.37821 0.93483 0.0
H611 H 0.86759 0.34951 0.94519 0.0
H612 H 0.90577 0.32932 0.00847 0.0
H613 H 0.93883 0.38815 0.01821 0.0
H614 H 0.94967 0.40789 0.96118 0.0
C615 C 0.86605 0.27803 0.93964 0.0
C616 C 0.84665 0.24828 0.94702 0.0
C617 C 0.85028 0.24677 0.96625 0.0
C618 C 0.87126 0.27461 0.97805 0.0
C619 C 0.88905 0.30373 0.97041 0.0
C620 C 0.8873 0.3056 0.95164 0.0
C621 C 0.90832 0.34026 0.94714 0.0
C622 C 0.93601 0.34353 0.93596 0.0
C623 C 0.88768 0.35222 0.93705 0.0
C624 C 0.9213 0.35761 0.96635 0.0
C625 C 0.9097 0.33602 0.97956 0.0
C626 C 0.91571 0.34641 0.99829 0.0
C627 C 0.93428 0.37977 1.00369 0.0
C628 C 0.947 0.40217 0.99043 0.0
C629 C 0.94073 0.39099 0.97154 0.0
H630 H 0.70113 0.56598 0.93044 0.0
H631 H 0.71599 0.48769 0.94588 0.0
H632 H 0.66843 0.46769 0.96375 0.0
H633 H 0.67745 0.58204 0.97259 0.0
H634 H 0.64649 0.58943 0.96277 0.0
H635 H 0.68068 0.59688 0.95026 0.0
H636 H 0.64148 0.55848 0.92244 0.0
H637 H 0.60712 0.55112 0.93482 0.0
H638 H 0.61115 0.51756 0.9258 0.0
H639 H 0.62154 0.45808 0.98156 0.0
H640 H 0.57638 0.45763 0.99672 0.0
H641 H 0.59027 0.54083 0.96894 0.0
C642 C 0.69402 0.54425 0.93726 0.0
C643 C 0.71264 0.52863 0.93685 0.0
C644 C 0.70262 0.5005 0.94623 0.0
C645 C 0.67546 0.48879 0.95634 0.0
C646 C 0.65818 0.50517 0.9568 0.0
C647 C 0.66674 0.53204 0.94733 0.0
C648 C 0.64426 0.54544 0.95043 0.0
C649 C 0.66337 0.58052 0.95956 0.0
C650 C 0.62486 0.543 0.93229 0.0
C651 C 0.62227 0.52236 0.96344 0.0
C652 C 0.63068 0.49927 0.96688 0.0
C653 C 0.61454 0.47587 0.97886 0.0
C654 C 0.58897 0.47592 0.98747 0.0
C655 C 0.57968 0.49919 0.98408 0.0
C656 C 0.59665 0.52265 0.97184 0.0
H657 H 0.40229 0.11385 0.93594 0.0
H658 H 0.46154 0.20624 0.96902 0.0
H659 H 0.48255 0.18072 0.98965 0.0
H660 H 0.38346 0.06215 0.97335 0.0
H661 H 0.38704 0.03121 0.96019 0.0
H662 H 0.37435 0.05594 0.9487 0.0
H663 H 0.42135 0.07292 0.92779 0.0
H664 H 0.43408 0.04816 0.93916 0.0
H665 H 0.46259 0.09062 0.93817 0.0
H666 H 0.49945 0.14655 1.00578 0.0
H667 H 0.51269 0.1059 0.01585 0.0
H668 H 0.444 0.03581 0.97194 0.0
C669 C 0.41961 0.12871 0.94754 0.0
C670 C 0.42979 0.16197 0.95099 0.0
C671 C 0.45258 0.18052 0.96634 0.0
C672 C 0.46486 0.16631 0.97811 0.0
C673 C 0.4543 0.13354 0.97432 0.0
C674 C 0.43234 0.11495 0.95939 0.0
C675 C 0.42643 0.08066 0.95791 0.0
C676 C 0.39069 0.05604 0.96018 0.0
C677 C 0.43673 0.07263 0.93968 0.0
C678 C 0.44885 0.0831 0.97421 0.0
C679 C 0.46447 0.11377 0.98355 0.0
C680 C 0.48723 0.12235 0.99867 0.0
C681 C 0.4946 0.09908 1.00427 0.0
C682 C 0.47931 0.06763 0.99473 0.0
C683 C 0.45583 0.05951 0.97965 0.0
H684 H 0.74881 0.14465 0.96276 0.0
H685 H 0.70745 0.16484 0.9145 0.0
H686 H 0.65365 0.13879 0.92668 0.0
H687 H 0.67914 0.06524 0.96593 0.0
H688 H 0.68295 0.0689 0.99073 0.0
H689 H 0.71853 0.09034 0.97863 0.0
H690 H 0.73148 0.14435 0.99664 0.0
H691 H 0.69569 0.1231 0.00864 0.0
H692 H 0.70118 0.15645 0.99601 0.0
H693 H 0.60548 0.1121 0.94385 0.0
H694 H 0.56247 0.07921 0.96299 0.0
H695 H 0.63292 0.07261 1.0001 0.0
C696 C 0.72831 0.14348 0.95482 0.0
C697 C 0.73209 0.15672 0.9377 0.0
C698 C 0.70487 0.15461 0.92755 0.0
C699 C 0.67438 0.14014 0.93444 0.0
C700 C 0.67149 0.12762 0.95141 0.0
C701 C 0.69747 0.12857 0.96137 0.0
C702 C 0.68701 0.11153 0.97874 0.0
C703 C 0.69221 0.08226 0.97849 0.0
C704 C 0.70491 0.13528 0.99603 0.0
C705 C 0.65103 0.10083 0.97695 0.0
C706 C 0.64296 0.11092 0.96117 0.0
C707 C 0.61142 0.10391 0.95618 0.0
C708 C 0.58714 0.08513 0.96721 0.0
C709 C 0.59422 0.07307 0.98303 0.0
C710 C 0.62682 0.08172 0.98823 0.0
H711 H 0.80004 0.50624 0.94559 0.0
H712 H 0.86455 0.60301 0.93047 0.0
H713 H 0.91156 0.60202 0.9457 0.0
H714 H 0.84116 0.51791 0.99062 0.0
H715 H 0.83455 0.4773 0.98959 0.0
H716 H 0.80602 0.4852 0.97708 0.0
H717 H 0.8136 0.45977 0.94685 0.0
H718 H 0.84211 0.45172 0.95927 0.0
H719 H 0.85395 0.47504 0.93975 0.0
H720 H 0.95166 0.59038 0.96228 0.0
H721 H 0.98195 0.56895 0.97945 0.0
H722 H 0.89137 0.48099 0.98511 0.0
C723 C 0.82399 0.52738 0.94559 0.0
C724 C 0.8285 0.55469 0.93673 0.0
C725 C 0.86042 0.58158 0.93686 0.0
C726 C 0.88728 0.58135 0.9456 0.0
C727 C 0.88188 0.55413 0.95424 0.0
C728 C 0.85104 0.52765 0.95434 0.0
C729 C 0.85187 0.50146 0.96469 0.0
C730 C 0.83224 0.49511 0.98149 0.0
C731 C 0.83966 0.47015 0.95187 0.0
C732 C 0.88802 0.51739 0.97047 0.0
C733 C 0.9049 0.54772 0.96421 0.0
C734 C 0.93868 0.5668 0.96737 0.0
C735 C 0.95563 0.55453 0.97713 0.0
C736 C 0.93878 0.52369 0.98372 0.0
C737 C 0.9046 0.50488 0.98041 0.0
H738 H 0.4355 0.28215 0.92427 0.0
H739 H 0.36966 0.22137 0.96221 0.0
H740 H 0.3731 0.26968 0.97874 0.0
H741 H 0.48779 0.34386 0.95628 0.0
H742 H 0.49629 0.37674 0.9425 0.0
H743 H 0.48413 0.33722 0.93154 0.0
H744 H 0.43617 0.33646 0.91253 0.0
H745 H 0.44842 0.37626 0.92331 0.0
H746 H 0.40747 0.34331 0.9242 0.0
H747 H 0.39018 0.32427 0.9938 0.0
H748 H 0.41833 0.38189 1.00595 0.0
H749 H 0.47271 0.40779 0.95805 0.0
C750 C 0.42085 0.27894 0.93562 0.0
C751 C 0.4021 0.24813 0.94192 0.0
C752 C 0.38411 0.24485 0.9572 0.0
C753 C 0.38579 0.27208 0.9666 0.0
C754 C 0.4054 0.30231 0.96043 0.0
C755 C 0.42237 0.30591 0.94518 0.0
C756 C 0.44431 0.34138 0.94258 0.0
C757 C 0.48024 0.3503 0.94328 0.0
C758 C 0.43343 0.34985 0.92459 0.0
C759 C 0.43807 0.35714 0.95919 0.0
C760 C 0.41523 0.33414 0.96916 0.0
C761 C 0.40756 0.34255 0.98592 0.0
C762 C 0.42385 0.3753 0.99277 0.0
C763 C 0.44752 0.39922 0.98286 0.0
C764 C 0.45425 0.39004 0.96571 0.0
H765 H 0.17131 0.71243 0.09134 0.0
H766 H 0.1833 0.7727 0.04702 0.0
H767 H 0.13814 0.72564 0.02795 0.0
H768 H 0.15735 0.64403 0.06364 0.0
H769 H 0.12744 0.6147 0.07685 0.0
H770 H 0.15796 0.65376 0.0879 0.0
H771 H 0.11299 0.66377 0.09948 0.0
H772 H 0.08227 0.62456 0.08857 0.0
H773 H 0.08137 0.66041 0.0832 0.0
H774 H 0.0957 0.67148 0.01273 0.0
H775 H 0.05765 0.61374 1.00249 0.0
H776 H 0.07291 0.58836 0.05671 0.0
C777 C 0.16378 0.71583 0.0778 0.0
C778 C 0.18059 0.74612 0.07063 0.0
C779 C 0.1707 0.74959 0.0527 0.0
C780 C 0.14504 0.72308 0.04182 0.0
C781 C 0.12948 0.69331 0.0491 0.0
C782 C 0.13829 0.68953 0.06671 0.0
C783 C 0.1191 0.65443 0.07073 0.0
C784 C 0.14182 0.64095 0.07503 0.0
C785 C 0.09765 0.65058 0.08643 0.0
C786 C 0.09868 0.63901 0.05249 0.0
C787 C 0.10489 0.66191 0.04026 0.0
C788 C 0.09029 0.65335 0.02225 0.0
C789 C 0.06882 0.62046 0.01654 0.0
C790 C 0.06218 0.59654 0.02881 0.0
C791 C 0.07715 0.60609 0.04707 0.0
H792 H 0.30337 0.48991 0.07438 0.0
H793 H 0.27407 0.39247 0.08793 0.0
H794 H 0.3179 0.39351 0.07097 0.0
H795 H 0.32124 0.47965 0.02841 0.0
H796 H 0.35593 0.51999 0.02914 0.0
H797 H 0.32321 0.51239 0.04302 0.0
H798 H 0.36398 0.53627 0.07233 0.0
H799 H 0.39687 0.54427 0.05851 0.0
H800 H 0.39028 0.52021 0.0776 0.0
H801 H 0.36403 0.40449 0.05201 0.0
H802 H 0.41144 0.42592 0.03377 0.0
H803 H 0.4103 0.51564 0.03151 0.0
C804 C 0.30613 0.46875 0.0738 0.0
C805 C 0.28513 0.44106 0.08258 0.0
C806 C 0.29 0.41413 0.08163 0.0
C807 C 0.31468 0.41438 0.07185 0.0
C808 C 0.33439 0.44174 0.06306 0.0
C809 C 0.3306 0.46855 0.06406 0.0
C810 C 0.35511 0.49488 0.05336 0.0
C811 C 0.33783 0.50215 0.03754 0.0
C812 C 0.37791 0.52573 0.06622 0.0
C813 C 0.37321 0.47862 0.04609 0.0
C814 C 0.36077 0.44794 0.05187 0.0
C815 C 0.3738 0.42837 0.04732 0.0
C816 C 0.40056 0.44063 0.03689 0.0
C817 C 0.4139 0.47202 0.03097 0.0
C818 C 0.39995 0.49123 0.03551 0.0
H819 H 0.60881 0.88278 0.0727 0.0
H820 H 0.53419 0.78912 0.04551 0.0
H821 H 0.51883 0.81673 0.02321 0.0
H822 H 0.55768 0.91659 0.07079 0.0
H823 H 0.59017 0.95685 0.06802 0.0
H824 H 0.59876 0.92976 0.07997 0.0
H825 H 0.64182 0.93734 0.05755 0.0
H826 H 0.63297 0.96413 0.04536 0.0
H827 H 0.63004 0.92881 0.03312 0.0
H828 H 0.50984 0.85472 1.00435 0.0
H829 H 0.5025 0.89929 0.99391 0.0
H830 H 0.57772 0.96666 0.03594 0.0
C831 C 0.58911 0.86779 0.06218 0.0
C832 C 0.57331 0.83352 0.06087 0.0
C833 C 0.54776 0.81533 0.04661 0.0
C834 C 0.53861 0.83082 0.03385 0.0
C835 C 0.55473 0.86455 0.03565 0.0
C836 C 0.57899 0.88276 0.04969 0.0
C837 C 0.58989 0.91841 0.04998 0.0
C838 C 0.58374 0.93114 0.06827 0.0
C839 C 0.62582 0.93834 0.04628 0.0
C840 C 0.5676 0.91735 0.03407 0.0
C841 C 0.5481 0.8862 0.02563 0.0
C842 C 0.52509 0.87923 0.0108 0.0
C843 C 0.52123 0.90462 1.00487 0.0
C844 C 0.53976 0.93619 0.01408 0.0
C845 C 0.56355 0.94268 0.0286 0.0
H846 H 0.9948 0.19908 0.42406 0.0
H847 H 0.9185 0.162 0.37885 0.0
H848 H 0.95877 0.19595 0.3582 0.0
H849 H 0.03987 0.28158 0.41172 0.0
H850 H 0.07908 0.2862 0.41839 0.0
H851 H 0.04415 0.25938 0.42971 0.0
H852 H 0.05431 0.21197 0.42134 0.0
H853 H 0.08926 0.2387 0.41003 0.0
H854 H 0.057 0.20179 0.39763 0.0
H855 H 0.00768 0.23345 0.34226 0.0
H856 H 0.06159 0.27104 0.33227 0.0
H857 H 0.10571 0.28401 0.38799 0.0
C858 C 0.98649 0.19836 0.40987 0.0
C859 C 0.95343 0.17779 0.40309 0.0
C860 C 0.94372 0.17723 0.38433 0.0
C861 C 0.96638 0.19659 0.37251 0.0
C862 C 0.99876 0.21646 0.37961 0.0
C863 C 0.00883 0.21749 0.39786 0.0
C864 C 0.0452 0.2404 0.40192 0.0
C865 C 0.05249 0.26856 0.41629 0.0
C866 C 0.06245 0.22212 0.40809 0.0
C867 C 0.05395 0.2521 0.38313 0.0
C868 C 0.02686 0.23805 0.37044 0.0
C869 C 0.02906 0.2447 0.3521 0.0
C870 C 0.05981 0.26611 0.34655 0.0
C871 C 0.08798 0.28066 0.3593 0.0
C872 C 0.08474 0.27355 0.37786 0.0
H873 H 0.82793 0.80045 0.42571 0.0
H874 H 0.8326 0.73465 0.38426 0.0
H875 H 0.79062 0.73661 0.36401 0.0
H876 H 0.73819 0.76868 0.41633 0.0
H877 H 0.7432 0.80855 0.42017 0.0
H878 H 0.77082 0.79907 0.43239 0.0
H879 H 0.81953 0.84797 0.4202 0.0
H880 H 0.79208 0.85735 0.40779 0.0
H881 H 0.82056 0.85069 0.39574 0.0
H882 H 0.75413 0.75101 0.34671 0.0
H883 H 0.7209 0.77317 0.33429 0.0
H884 H 0.73728 0.8282 0.38703 0.0
C885 C 0.8193 0.7857 0.41262 0.0
C886 C 0.8335 0.76738 0.40653 0.0
C887 C 0.82214 0.74893 0.38913 0.0
C888 C 0.79827 0.74985 0.37755 0.0
C889 C 0.78564 0.76906 0.38362 0.0
C890 C 0.79527 0.78626 0.40084 0.0
C891 C 0.77892 0.80636 0.40346 0.0
C892 C 0.75644 0.79498 0.41901 0.0
C893 C 0.80429 0.84274 0.407 0.0
C894 C 0.75945 0.79844 0.38485 0.0
C895 C 0.76371 0.77683 0.37365 0.0
C896 C 0.7501 0.76749 0.35544 0.0
C897 C 0.73146 0.78039 0.34846 0.0
C898 C 0.72634 0.80224 0.3597 0.0
C899 C 0.74038 0.81116 0.37819 0.0
H900 H 0.24059 0.04835 0.41719 0.0
H901 H 0.15289 0.04816 0.3971 0.0
H902 H 0.13694 0.9998 0.37593 0.0
H903 H 0.25661 0.02131 0.37442 0.0
H904 H 0.26924 0.99518 0.38425 0.0
H905 H 0.27471 0.03047 0.39788 0.0
H906 H 0.24192 0.99451 0.42278 0.0
H907 H 0.23661 0.95916 0.4093 0.0
H908 H 0.20158 0.9605 0.41629 0.0
H909 H 0.1308 0.95331 0.35652 0.0
H910 H 0.13174 0.9067 0.34146 0.0
H911 H 0.22161 0.93369 0.37487 0.0
C912 C 0.21792 0.03794 0.40845 0.0
C913 C 0.19837 0.0525 0.40852 0.0
C914 C 0.1688 0.03808 0.3969 0.0
C915 C 0.15939 0.01047 0.38489 0.0
C916 C 0.1795 0.99721 0.38485 0.0
C917 C 0.20787 0.01 0.39645 0.0
C918 C 0.22434 0.99009 0.39384 0.0
C919 C 0.25823 0.01049 0.3872 0.0
C920 C 0.22621 0.97518 0.41161 0.0
C921 C 0.20077 0.9643 0.3789 0.0
C922 C 0.1753 0.96921 0.37389 0.0
C923 C 0.15052 0.94904 0.36033 0.0
C924 C 0.15142 0.92269 0.3518 0.0
C925 C 0.17681 0.91654 0.35695 0.0
C926 C 0.20194 0.9378 0.37062 0.0
H927 H 0.47341 0.60523 0.28292 0.0
H928 H 0.5418 0.58256 0.25851 0.0
H929 H 0.58675 0.63671 0.27004 0.0
H930 H 0.51129 0.68808 0.2758 0.0
H931 H 0.5047 0.70144 0.29787 0.0
H932 H 0.47707 0.66083 0.2875 0.0
H933 H 0.48704 0.63734 0.31657 0.0
H934 H 0.5144 0.6779 0.32713 0.0
H935 H 0.52809 0.649 0.32496 0.0
H936 H 0.62371 0.69464 0.28159 0.0
H937 H 0.65213 0.75039 0.29723 0.0
H938 H 0.56208 0.73363 0.31802 0.0
C939 C 0.49782 0.61128 0.28022 0.0
C940 C 0.50362 0.58961 0.26924 0.0
C941 C 0.53621 0.59893 0.26616 0.0
C942 C 0.56211 0.62963 0.27281 0.0
C943 C 0.55537 0.65059 0.28306 0.0
C944 C 0.52423 0.64161 0.28722 0.0
C945 C 0.52407 0.66854 0.29919 0.0
C946 C 0.50303 0.68042 0.28951 0.0
C947 C 0.51273 0.65754 0.31808 0.0
C948 C 0.55991 0.69416 0.30078 0.0
C949 C 0.57736 0.68338 0.2911 0.0
C950 C 0.61047 0.70321 0.28949 0.0
C951 C 0.62633 0.7348 0.29828 0.0
C952 C 0.60922 0.7459 0.30883 0.0
C953 C 0.57563 0.72538 0.31015 0.0
H954 H 0.39996 0.8964 0.29368 0.0
H955 H 0.34942 0.85189 0.23956 0.0
H956 H 0.29674 0.83256 0.25232 0.0
H957 H 0.33995 0.83343 0.32008 0.0
H958 H 0.34391 0.86225 0.33851 0.0
H959 H 0.378 0.87092 0.32557 0.0
H960 H 0.38214 0.9249 0.31784 0.0
H961 H 0.34812 0.91642 0.33075 0.0
H962 H 0.3469 0.92434 0.30702 0.0
H963 H 0.25004 0.82118 0.26986 0.0
H964 H 0.21117 0.81847 0.29152 0.0
H965 H 0.28996 0.86912 0.33505 0.0
C966 C 0.37774 0.88217 0.28462 0.0
C967 C 0.37884 0.87579 0.26557 0.0
C968 C 0.34924 0.85744 0.25411 0.0
C969 C 0.31917 0.84614 0.26126 0.0
C970 C 0.31889 0.85322 0.27996 0.0
C971 C 0.34729 0.87074 0.29156 0.0
C972 C 0.33979 0.87621 0.31097 0.0
C973 C 0.35108 0.85971 0.32459 0.0
C974 C 0.35515 0.91263 0.317 0.0
C975 C 0.30281 0.85948 0.30835 0.0
C976 C 0.29146 0.84625 0.29032 0.0
C977 C 0.25858 0.83105 0.28406 0.0
C978 C 0.23669 0.82967 0.29644 0.0
C979 C 0.24754 0.84323 0.31493 0.0
C980 C 0.28101 0.85796 0.32108 0.0
H981 H 0.07906 0.47749 0.30625 0.0
H982 H 0.13254 0.50349 0.25807 0.0
H983 H 0.16696 0.48225 0.27008 0.0
H984 H 0.14774 0.49401 0.33972 0.0
H985 H 0.12325 0.45934 0.35182 0.0
H986 H 0.10496 0.47969 0.34054 0.0
H987 H 0.06238 0.42553 0.32188 0.0
H988 H 0.08033 0.40503 0.33323 0.0
H989 H 0.07612 0.40266 0.30846 0.0
H990 H 0.1927 0.45552 0.28579 0.0
H991 H 0.20548 0.4199 0.30292 0.0
H992 H 0.13516 0.40975 0.34111 0.0
C993 C 0.09832 0.47899 0.29841 0.0
C994 C 0.10337 0.49208 0.28129 0.0
C995 C 0.12832 0.4933 0.27117 0.0
C996 C 0.14813 0.48165 0.27796 0.0
C997 C 0.14256 0.46881 0.29487 0.0
C998 C 0.11811 0.46708 0.30491 0.0
C999 C 0.11543 0.44935 0.32183 0.0
C1000 C 0.12332 0.47196 0.33952 0.0
C1001 C 0.08156 0.41883 0.32131 0.0
C1002 C 0.14169 0.44071 0.31946 0.0
C1003 C 0.15735 0.45275 0.30396 0.0
C1004 C 0.18093 0.44626 0.29806 0.0
C1005 C 0.18797 0.42599 0.30787 0.0
C1006 C 0.1714 0.41234 0.32336 0.0
C1007 C 0.14866 0.42053 0.32957 0.0
H1008 H 0.41224 0.50011 0.29712 0.0
H1009 H 0.36067 0.47802 0.24259 0.0
H1010 H 0.30928 0.44195 0.25513 0.0
H1011 H 0.36798 0.42273 0.31221 0.0
H1012 H 0.36632 0.4362 0.33545 0.0
H1013 H 0.39948 0.46197 0.32267 0.0
H1014 H 0.38642 0.50808 0.32808 0.0
H1015 H 0.35341 0.48257 0.34107 0.0
H1016 H 0.34586 0.50025 0.32166 0.0
H1017 H 0.26525 0.40372 0.27217 0.0
H1018 H 0.22833 0.37 0.29408 0.0
H1019 H 0.3051 0.41991 0.33874 0.0
C1020 C 0.39005 0.48822 0.28789 0.0
C1021 C 0.39073 0.49145 0.26875 0.0
C1022 C 0.36106 0.47527 0.25718 0.0
C1023 C 0.33163 0.45489 0.26419 0.0
C1024 C 0.33197 0.45142 0.28291 0.0
C1025 C 0.36014 0.46806 0.29474 0.0
C1026 C 0.3533 0.45947 0.31432 0.0
C1027 C 0.37294 0.44418 0.32158 0.0
C1028 C 0.36015 0.48938 0.32704 0.0
C1029 C 0.3171 0.43478 0.31147 0.0
C1030 C 0.30556 0.43048 0.29315 0.0
C1031 C 0.27377 0.40733 0.28661 0.0
C1032 C 0.25303 0.38817 0.29912 0.0
C1033 C 0.2638 0.39261 0.31803 0.0
C1034 C 0.29622 0.41642 0.32437 0.0
H1035 H 0.48327 0.8903 0.29251 0.0
H1036 H 0.50237 0.8788 0.23588 0.0
H1037 H 0.54598 0.86919 0.24669 0.0
H1038 H 0.56498 0.92775 0.31354 0.0
H1039 H 0.55474 0.90543 0.33348 0.0
H1040 H 0.52543 0.91312 0.32169 0.0
H1041 H 0.48353 0.85157 0.31748 0.0
H1042 H 0.51265 0.84369 0.32935 0.0
H1043 H 0.49449 0.82404 0.30659 0.0
H1044 H 0.5896 0.86423 0.26305 0.0
H1045 H 0.62662 0.85666 0.28416 0.0
H1046 H 0.57603 0.86316 0.33029 0.0
C1047 C 0.49635 0.88551 0.28232 0.0
C1048 C 0.48974 0.8866 0.26326 0.0
C1049 C 0.50762 0.87987 0.25056 0.0
C1050 C 0.53234 0.8739 0.25654 0.0
C1051 C 0.53855 0.87368 0.27529 0.0
C1052 C 0.52073 0.87857 0.28802 0.0
C1053 C 0.53175 0.87541 0.30734 0.0
C1054 C 0.54501 0.90733 0.31974 0.0
C1055 C 0.50394 0.84698 0.31568 0.0
C1056 C 0.55877 0.8684 0.30338 0.0
C1057 C 0.56241 0.86804 0.28477 0.0
C1058 C 0.58669 0.86394 0.27762 0.0
C1059 C 0.60771 0.85976 0.28975 0.0
C1060 C 0.60405 0.85897 0.30881 0.0
C1061 C 0.5791 0.86322 0.31573 0.0
H1062 H 0.08608 0.60481 0.26514 0.0
H1063 H 0.0545 0.55087 0.31273 0.0
H1064 H 0.06765 0.60122 0.33169 0.0
H1065 H 0.15357 0.6721 0.28789 0.0
H1066 H 0.15032 0.70162 0.27512 0.0
H1067 H 0.13414 0.66089 0.26468 0.0
H1068 H 0.07737 0.65518 0.25813 0.0
H1069 H 0.09354 0.69616 0.26829 0.0
H1070 H 0.05841 0.66336 0.27673 0.0
H1071 H 0.08942 0.65829 0.346 0.0
H1072 H 0.11625 0.71747 0.35431 0.0
H1073 H 0.13415 0.73349 0.29723 0.0
C1074 C 0.08089 0.60344 0.2794 0.0
C1075 C 0.06899 0.57404 0.28748 0.0
C1076 C 0.06351 0.57327 0.30632 0.0
C1077 C 0.07086 0.60167 0.31716 0.0
C1078 C 0.0836 0.63053 0.3089 0.0
C1079 C 0.08829 0.63156 0.29041 0.0
C1080 C 0.10463 0.66595 0.28518 0.0
C1081 C 0.13761 0.67569 0.27779 0.0
C1082 C 0.08214 0.67042 0.27126 0.0
C1083 C 0.10904 0.68415 0.30369 0.0
C1084 C 0.09655 0.66336 0.31719 0.0
C1085 C 0.09897 0.67481 0.33551 0.0
C1086 C 0.11438 0.70844 0.34011 0.0
C1087 C 0.1273 0.73011 0.32644 0.0
C1088 C 0.12448 0.71762 0.30803 0.0
H1089 H 0.85294 0.07834 0.38447 0.0
H1090 H 0.85402 0.05194 0.44029 0.0
H1091 H 0.81123 0.99608 0.42983 0.0
H1092 H 0.76854 0.02827 0.37116 0.0
H1093 H 0.77318 0.01655 0.34816 0.0
H1094 H 0.80369 0.05501 0.35993 0.0
H1095 H 0.84815 0.03997 0.355 0.0
H1096 H 0.8178 0.00152 0.3431 0.0
H1097 H 0.84327 0.0028 0.36268 0.0
H1098 H 0.76577 0.94395 0.41394 0.0
H1099 H 0.72445 0.89731 0.39279 0.0
H1100 H 0.757 0.95494 0.34667 0.0
C1101 C 0.84468 0.06085 0.39452 0.0
C1102 C 0.85671 0.07015 0.41336 0.0
C1103 C 0.84467 0.04612 0.42592 0.0
C1104 C 0.82051 0.01407 0.42008 0.0
C1105 C 0.809 0.00599 0.40154 0.0
C1106 C 0.82105 0.02848 0.38886 0.0
C1107 C 0.80493 0.01311 0.36963 0.0
C1108 C 0.78649 0.0292 0.36176 0.0
C1109 C 0.83004 0.01443 0.35685 0.0
C1110 C 0.78162 0.97859 0.37355 0.0
C1111 C 0.78417 0.97518 0.39212 0.0
C1112 C 0.76389 0.94618 0.39935 0.0
C1113 C 0.74046 0.91991 0.38728 0.0
C1114 C 0.73794 0.92265 0.36819 0.0
C1115 C 0.75891 0.95225 0.36121 0.0
H1116 H 0.96547 0.76261 0.41942 0.0
H1117 H 0.93976 0.82541 0.39124 0.0
H1118 H 0.9833 0.83798 0.37119 0.0
H1119 H 0.05413 0.81639 0.41846 0.0
H1120 H 0.06155 0.78307 0.41523 0.0
H1121 H 0.02813 0.7786 0.42764 0.0
H1122 H 0.98861 0.72801 0.40535 0.0
H1123 H 0.02197 0.7327 0.39283 0.0
H1124 H 0.98708 0.73136 0.38094 0.0
H1125 H 0.02589 0.84024 0.35227 0.0
H1126 H 0.07207 0.83961 0.3389 0.0
H1127 H 0.07583 0.78119 0.38108 0.0
C1128 C 0.96928 0.7794 0.40925 0.0
C1129 C 0.94825 0.79214 0.40664 0.0
C1130 C 0.95447 0.81419 0.39314 0.0
C1131 C 0.97938 0.82174 0.38171 0.0
C1132 C 0.99873 0.80786 0.38416 0.0
C1133 C 0.9947 0.78787 0.39788 0.0
C1134 C 0.01986 0.77717 0.39776 0.0
C1135 C 0.04223 0.78956 0.41586 0.0
C1136 C 1.00338 0.74011 0.39399 0.0
C1137 C 0.03825 0.79399 0.38173 0.0
C1138 C 0.02517 0.8111 0.37393 0.0
C1139 C 0.03666 0.8273 0.35839 0.0
C1140 C 0.06267 0.82657 0.35079 0.0
C1141 C 0.07736 0.81033 0.35894 0.0
C1142 C 0.06501 0.79386 0.37464 0.0
H1143 H 0.24547 0.19849 0.42011 0.0
H1144 H 0.14735 0.11597 0.41115 0.0
H1145 H 0.13039 0.14694 0.39219 0.0
H1146 H 0.221 0.26224 0.4211 0.0
H1147 H 0.25535 0.28892 0.40933 0.0
H1148 H 0.25856 0.26177 0.42425 0.0
H1149 H 0.27638 0.23834 0.39739 0.0
H1150 H 0.27245 0.26479 0.38226 0.0
H1151 H 0.25033 0.22158 0.37611 0.0
H1152 H 0.12591 0.18332 0.37094 0.0
H1153 H 0.13209 0.22664 0.35193 0.0
H1154 H 0.23274 0.28647 0.37502 0.0
C1155 C 0.22021 0.18755 0.4147 0.0
C1156 C 0.19758 0.15507 0.41708 0.0
C1157 C 0.16487 0.14098 0.40946 0.0
C1158 C 0.15507 0.15829 0.39865 0.0
C1159 C 0.17825 0.18976 0.39577 0.0
C1160 C 0.20995 0.20462 0.40387 0.0
C1161 C 0.23027 0.23815 0.39771 0.0
C1162 C 0.24198 0.26432 0.41407 0.0
C1163 C 0.25905 0.24085 0.38778 0.0
C1164 C 0.20528 0.23926 0.38451 0.0
C1165 C 0.17547 0.21108 0.38359 0.0
C1166 C 0.149 0.20574 0.37171 0.0
C1167 C 0.15285 0.2303 0.36081 0.0
C1168 C 0.18289 0.25982 0.36199 0.0
C1169 C 0.20946 0.26416 0.37389 0.0
H1170 H 0.64823 0.54127 0.75804 0.0
H1171 H 0.57372 0.49013 0.71221 0.0
H1172 H 0.61378 0.5201 0.69058 0.0
H1173 H 0.68741 0.619 0.73887 0.0
H1174 H 0.72784 0.62929 0.74768 0.0
H1175 H 0.6935 0.60379 0.7598 0.0
H1176 H 0.70938 0.55935 0.75825 0.0
H1177 H 0.74394 0.58473 0.74628 0.0
H1178 H 0.71455 0.54432 0.73627 0.0
H1179 H 0.66262 0.55439 0.67367 0.0
H1180 H 0.71583 0.59264 0.6631 0.0
H1181 H 0.7576 0.62278 0.71999 0.0
C1182 C 0.64015 0.53664 0.74349 0.0
C1183 C 0.60775 0.51298 0.73689 0.0
C1184 C 0.59848 0.50757 0.71766 0.0
C1185 C 0.62104 0.52463 0.70523 0.0
C1186 C 0.65281 0.54737 0.71217 0.0
C1187 C 0.66232 0.55365 0.73086 0.0
C1188 C 0.69794 0.5795 0.73472 0.0
C1189 C 0.70189 0.60968 0.74593 0.0
C1190 C 0.7176 0.56616 0.74445 0.0
C1191 C 0.70698 0.58645 0.71528 0.0
C1192 C 0.68067 0.56765 0.70246 0.0
C1193 C 0.68337 0.56941 0.6836 0.0
C1194 C 0.71373 0.59113 0.67772 0.0
C1195 C 0.74095 0.61095 0.69066 0.0
C1196 C 0.7373 0.60834 0.70968 0.0
H1197 H 0.48272 0.08625 0.74799 0.0
H1198 H 0.56941 0.18041 0.74694 0.0
H1199 H 0.53705 0.19973 0.73044 0.0
H1200 H 0.44678 0.08099 0.70407 0.0
H1201 H 0.40539 0.0632 0.70983 0.0
H1202 H 0.43421 0.05685 0.72324 0.0
H1203 H 0.42258 0.07988 0.75297 0.0
H1204 H 0.39335 0.0859 0.73968 0.0
H1205 H 0.42646 0.11942 0.75397 0.0
H1206 H 0.49805 0.20722 0.71106 0.0
H1207 H 0.45196 0.20511 0.6929 0.0
H1208 H 0.38831 0.10751 0.70727 0.0
C1209 C 0.49459 0.11113 0.74467 0.0
C1210 C 0.52868 0.13171 0.74852 0.0
C1211 C 0.54344 0.16408 0.74386 0.0
C1212 C 0.52527 0.17534 0.73452 0.0
C1213 C 0.49211 0.15418 0.7302 0.0
C1214 C 0.47659 0.12301 0.73542 0.0
C1215 C 0.4406 0.10536 0.72854 0.0
C1216 C 0.43121 0.07479 0.71565 0.0
C1217 C 0.4195 0.09716 0.74476 0.0
C1218 C 0.43885 0.13111 0.71811 0.0
C1219 C 0.46894 0.15902 0.71933 0.0
C1220 C 0.4742 0.18569 0.7102 0.0
C1221 C 0.44786 0.18411 0.69976 0.0
C1222 C 0.41648 0.15614 0.69859 0.0
C1223 C 0.41198 0.12927 0.70794 0.0
H1224 H 0.89667 0.38428 0.75879 0.0
H1225 H 0.93997 0.44526 0.71501 0.0
H1226 H 0.93741 0.39903 0.69667 0.0
H1227 H 0.93752 0.33456 0.7519 0.0
H1228 H 0.90195 0.29827 0.7572 0.0
H1229 H 0.91143 0.33727 0.76798 0.0
H1230 H 0.85399 0.32564 0.75611 0.0
H1231 H 0.84451 0.28693 0.74507 0.0
H1232 H 0.84114 0.31589 0.7318 0.0
H1233 H 0.9213 0.34517 0.6811 0.0
H1234 H 0.89846 0.28721 0.67048 0.0
H1235 H 0.86959 0.26125 0.72491 0.0
C1236 C 0.90672 0.38819 0.74564 0.0
C1237 C 0.91831 0.41828 0.73826 0.0
C1238 C 0.93056 0.42228 0.72081 0.0
C1239 C 0.92941 0.39624 0.71034 0.0
C1240 C 0.91655 0.36655 0.71767 0.0
C1241 C 0.90607 0.36249 0.73507 0.0
C1242 C 0.89135 0.32744 0.73916 0.0
C1243 C 0.91179 0.3242 0.755 0.0
C1244 C 0.85564 0.31315 0.74327 0.0
C1245 C 0.89389 0.31227 0.72103 0.0
C1246 C 0.90858 0.33535 0.70886 0.0
C1247 C 0.91061 0.32696 0.69063 0.0
C1248 C 0.89741 0.29411 0.68469 0.0
C1249 C 0.88282 0.27027 0.69701 0.0
C1250 C 0.88135 0.27936 0.71544 0.0
H1251 H 0.16017 0.92766 0.62607 0.0
H1252 H 0.17089 0.94894 0.56902 0.0
H1253 H 0.21809 0.00257 0.57909 0.0
H1254 H 0.17524 0.0063 0.64241 0.0
H1255 H 0.1959 0.00761 0.66412 0.0
H1256 H 0.16522 0.96922 0.65238 0.0
H1257 H 0.20664 0.94909 0.65312 0.0
H1258 H 0.23752 0.98752 0.66478 0.0
H1259 H 0.24487 0.97227 0.64355 0.0
H1260 H 0.26439 0.05463 0.59532 0.0
H1261 H 0.30196 0.10294 0.61673 0.0
H1262 H 0.25657 0.05042 0.66297 0.0
C1263 C 0.1721 0.94344 0.61558 0.0
C1264 C 0.16171 0.93323 0.59662 0.0
C1265 C 0.17871 0.95517 0.58358 0.0
C1266 C 0.20553 0.98603 0.58916 0.0
C1267 C 0.21489 0.99515 0.60789 0.0
C1268 C 0.19837 0.97471 0.62091 0.0
C1269 C 0.21173 0.99137 0.64022 0.0
C1270 C 0.18546 0.99377 0.65037 0.0
C1271 C 0.22604 0.97402 0.65105 0.0
C1272 C 0.2382 0.02442 0.63598 0.0
C1273 C 0.24008 0.0259 0.61725 0.0
C1274 C 0.26306 0.05379 0.61001 0.0
C1275 C 0.28436 0.08103 0.62225 0.0
C1276 C 0.28199 0.08034 0.64144 0.0
C1277 C 0.25871 0.05161 0.64834 0.0
H1278 H 0.08104 0.23551 0.63067 0.0
H1279 H 0.03488 0.20873 0.57456 0.0
H1280 H 0.98228 0.19432 0.58625 0.0
H1281 H 0.013 0.1693 0.65052 0.0
H1282 H 0.01903 0.19384 0.67164 0.0
H1283 H 0.05319 0.20192 0.65891 0.0
H1284 H 0.06689 0.26138 0.6577 0.0
H1285 H 0.03274 0.2535 0.67036 0.0
H1286 H 0.03612 0.26945 0.64835 0.0
H1287 H 0.93577 0.18638 0.60365 0.0
H1288 H 0.89711 0.18223 0.62584 0.0
H1289 H 0.97147 0.20907 0.67108 0.0
C1290 C 0.05985 0.226 0.62079 0.0
C1291 C 0.06242 0.2235 0.60159 0.0
C1292 C 0.03394 0.21158 0.58926 0.0
C1293 C 1.00381 0.20301 0.59579 0.0
C1294 C 1.00231 0.20596 0.61472 0.0
C1295 C 0.02945 0.2168 0.62707 0.0
C1296 C 0.02113 0.21785 0.64676 0.0
C1297 C 0.02693 0.19432 0.6576 0.0
C1298 C 0.04036 0.25261 0.65635 0.0
C1299 C 0.98511 0.2064 0.64353 0.0
C1300 C 0.97491 0.19985 0.62489 0.0
C1301 C 0.94333 0.19093 0.61826 0.0
C1302 C 0.92162 0.18875 0.63097 0.0
C1303 C 0.93132 0.19502 0.65012 0.0
C1304 C 0.96337 0.20358 0.65652 0.0
H1305 H 0.81354 0.85839 0.62183 0.0
H1306 H 0.71975 0.78492 0.59435 0.0
H1307 H 0.72493 0.74274 0.60977 0.0
H1308 H 0.85255 0.81074 0.62026 0.0
H1309 H 0.87452 0.82752 0.64269 0.0
H1310 H 0.86384 0.85143 0.62891 0.0
H1311 H 0.83428 0.86021 0.65546 0.0
H1312 H 0.84503 0.83649 0.66935 0.0
H1313 H 0.80297 0.82549 0.66502 0.0
H1314 H 0.74006 0.70902 0.62912 0.0
H1315 H 0.76342 0.68687 0.65123 0.0
H1316 H 0.84636 0.78307 0.66609 0.0
C1317 C 0.79383 0.8335 0.61918 0.0
C1318 C 0.76607 0.82496 0.60701 0.0
C1319 C 0.74129 0.79197 0.60357 0.0
C1320 C 0.744 0.7679 0.61228 0.0
C1321 C 0.77167 0.77731 0.62431 0.0
C1322 C 0.79608 0.80936 0.62776 0.0
C1323 C 0.82302 0.81343 0.64153 0.0
C1324 C 0.85539 0.82655 0.63282 0.0
C1325 C 0.82651 0.83518 0.65887 0.0
C1326 C 0.80982 0.77868 0.64553 0.0
C1327 C 0.78032 0.75809 0.63535 0.0
C1328 C 0.7633 0.72486 0.63698 0.0
C1329 C 0.77681 0.71247 0.64939 0.0
C1330 C 0.80693 0.73329 0.65983 0.0
C1331 C 0.82347 0.76673 0.65799 0.0
H1332 H 0.03248 0.79069 0.59597 0.0
H1333 H 0.05853 0.88701 0.6199 0.0
H1334 H 0.01698 0.86262 0.64138 0.0
H1335 H 0.9446 0.75826 0.59789 0.0
H1336 H 0.93703 0.71851 0.60221 0.0
H1337 H 0.9699 0.74354 0.58902 0.0
H1338 H 0.01027 0.73786 0.61163 0.0
H1339 H 0.97761 0.71325 0.62504 0.0
H1340 H 0.01308 0.74947 0.63586 0.0
H1341 H 0.97455 0.82797 0.66165 0.0
H1342 H 0.9284 0.78559 0.67598 0.0
H1343 H 0.92517 0.71206 0.63677 0.0
C1344 C 0.02933 0.80688 0.60547 0.0
C1345 C 0.05002 0.84104 0.60641 0.0
C1346 C 0.04447 0.86085 0.61924 0.0
C1347 C 0.02052 0.84722 0.63147 0.0
C1348 C 1.00136 0.81363 0.63046 0.0
C1349 C 1.00481 0.79371 0.61746 0.0
C1350 C 0.97969 0.75837 0.61868 0.0
C1351 C 0.95644 0.74382 0.6009 0.0
C1352 C 0.99616 0.73858 0.62307 0.0
C1353 C 0.96224 0.76159 0.63471 0.0
C1354 C 0.97535 0.79368 0.6414 0.0
C1355 C 0.96389 0.80276 0.65643 0.0
C1356 C 0.93783 0.77846 0.66459 0.0
C1357 C 0.92317 0.74546 0.65757 0.0
C1358 C 0.93581 0.73705 0.64248 0.0
H1359 H 0.19022 0.21759 0.58944 0.0
H1360 H 0.16315 0.25769 0.63537 0.0
H1361 H 0.19833 0.24798 0.65684 0.0
H1362 H 0.19123 0.15461 0.61177 0.0
H1363 H 0.22625 0.15753 0.60179 0.0
H1364 H 0.20082 0.16964 0.58959 0.0
H1365 H 0.25089 0.22646 0.58754 0.0
H1366 H 0.27652 0.21435 0.59957 0.0
H1367 H 0.27588 0.25005 0.60829 0.0
H1368 H 0.23237 0.23004 0.67365 0.0
H1369 H 0.26744 0.20899 0.68468 0.0
H1370 H 0.27437 0.18166 0.62814 0.0
C1371 C 0.19231 0.22492 0.60397 0.0
C1372 C 0.17375 0.23817 0.61076 0.0
C1373 C 0.17683 0.24713 0.6299 0.0
C1374 C 0.1968 0.24179 0.64221 0.0
C1375 C 0.21391 0.22773 0.6352 0.0
C1376 C 0.21232 0.21979 0.61654 0.0
C1377 C 0.23271 0.20416 0.61283 0.0
C1378 C 0.21147 0.16942 0.60344 0.0
C1379 C 0.26066 0.225 0.60138 0.0
C1380 C 0.24546 0.20417 0.63233 0.0
C1381 C 0.23423 0.21784 0.64499 0.0
C1382 C 0.24164 0.21958 0.66387 0.0
C1383 C 0.26144 0.20738 0.67001 0.0
C1384 C 0.27376 0.19374 0.65732 0.0
C1385 C 0.26553 0.19212 0.63822 0.0
H1386 H 0.76214 0.92938 0.62954 0.0
H1387 H 0.82958 0.95917 0.58757 0.0
H1388 H 0.85568 0.01594 0.60106 0.0
H1389 H 0.74922 0.99506 0.6296 0.0
H1390 H 0.74706 0.99969 0.65402 0.0
H1391 H 0.73616 0.96066 0.64276 0.0
H1392 H 0.77838 0.95767 0.6652 0.0
H1393 H 0.78935 0.99671 0.67661 0.0
H1394 H 0.82021 0.9901 0.66753 0.0
H1395 H 0.87028 0.06885 0.61622 0.0
H1396 H 0.8736 0.11667 0.63289 0.0
H1397 H 0.79769 0.05447 0.66594 0.0
C1398 C 0.78286 0.9479 0.62353 0.0
C1399 C 0.79398 0.94019 0.60756 0.0
C1400 C 0.82073 0.96485 0.59976 0.0
C1401 C 0.8358 0.99703 0.60738 0.0
C1402 C 0.82389 0.00409 0.62285 0.0
C1403 C 0.79817 0.98037 0.63095 0.0
C1404 C 0.78869 0.99521 0.64663 0.0
C1405 C 0.75318 0.98718 0.64303 0.0
C1406 C 0.79451 0.98427 0.66509 0.0
C1407 C 0.81244 0.03097 0.64561 0.0
C1408 C 0.83266 0.0353 0.63187 0.0
C1409 C 0.855 0.06586 0.62721 0.0
C1410 C 0.85653 0.09283 0.63666 0.0
C1411 C 0.83594 0.08912 0.65067 0.0
C1412 C 0.81402 0.05785 0.65547 0.0
H1413 H 0.50573 0.41237 0.72193 0.0
H1414 H 0.5173 0.3905 0.77769 0.0
H1415 H 0.47713 0.33285 0.76872 0.0
H1416 H 0.42007 0.35634 0.71304 0.0
H1417 H 0.42203 0.34487 0.68944 0.0
H1418 H 0.45159 0.38465 0.70016 0.0
H1419 H 0.49835 0.37469 0.69206 0.0
H1420 H 0.46894 0.33495 0.68122 0.0
H1421 H 0.49866 0.33945 0.69926 0.0
H1422 H 0.43567 0.27791 0.75398 0.0
H1423 H 0.39662 0.22855 0.73419 0.0
H1424 H 0.4127 0.28521 0.68753 0.0
C1425 C 0.50008 0.39544 0.73222 0.0
C1426 C 0.51459 0.40611 0.75058 0.0
C1427 C 0.50615 0.3831 0.76364 0.0
C1428 C 0.48348 0.35024 0.75866 0.0
C1429 C 0.46952 0.34064 0.74052 0.0
C1430 C 0.47757 0.36246 0.72746 0.0
C1431 C 0.45911 0.34562 0.70888 0.0
C1432 C 0.43688 0.35865 0.70251 0.0
C1433 C 0.48267 0.34887 0.69451 0.0
C1434 C 0.43941 0.31093 0.71356 0.0
C1435 C 0.44577 0.3087 0.73191 0.0
C1436 C 0.4305 0.27932 0.73958 0.0
C1437 C 0.40826 0.25139 0.72818 0.0
C1438 C 0.40146 0.25288 0.70925 0.0
C1439 C 0.4173 0.28318 0.70191 0.0
H1440 H 0.64243 0.09475 0.75134 0.0
H1441 H 0.63398 0.17768 0.73772 0.0
H1442 H 0.67982 0.19478 0.71902 0.0
H1443 H 0.73302 0.14136 0.75576 0.0
H1444 H 0.73599 0.10715 0.74677 0.0
H1445 H 0.70199 0.10078 0.75922 0.0
H1446 H 0.66229 0.06272 0.7315 0.0
H1447 H 0.69614 0.06933 0.71886 0.0
H1448 H 0.66569 0.07753 0.70915 0.0
H1449 H 0.72212 0.20002 0.69903 0.0
H1450 H 0.76667 0.19934 0.68359 0.0
H1451 H 0.75456 0.11856 0.71304 0.0
C1452 C 0.65051 0.11677 0.74469 0.0
C1453 C 0.63341 0.13399 0.7455 0.0
C1454 C 0.64534 0.16298 0.73668 0.0
C1455 C 0.67168 0.17319 0.72611 0.0
C1456 C 0.68694 0.15497 0.72491 0.0
C1457 C 0.67763 0.12801 0.73441 0.0
C1458 C 0.69951 0.11384 0.73122 0.0
C1459 C 0.71877 0.11591 0.74932 0.0
C1460 C 0.67972 0.07878 0.72214 0.0
C1461 C 0.7218 0.13658 0.7181 0.0
C1462 C 0.71366 0.1598 0.71449 0.0
C1463 C 0.72917 0.18234 0.70197 0.0
C1464 C 0.75419 0.18162 0.69316 0.0
C1465 C 0.76388 0.15898 0.69718 0.0
C1466 C 0.74757 0.13619 0.70984 0.0
H1467 H 0.91196 0.54746 0.74984 0.0
H1468 H 0.84916 0.4562 0.71643 0.0
H1469 H 0.83138 0.48421 0.6956 0.0
H1470 H 0.85494 0.57732 0.74573 0.0
H1471 H 0.88686 0.6188 0.74529 0.0
H1472 H 0.8946 0.59138 0.75755 0.0
H1473 H 0.94333 0.60428 0.73857 0.0
H1474 H 0.93543 0.63135 0.72607 0.0
H1475 H 0.93681 0.59834 0.7138 0.0
H1476 H 0.82239 0.52258 0.67749 0.0
H1477 H 0.81791 0.56761 0.66551 0.0
H1478 H 0.8841 0.6329 0.71171 0.0
C1479 C 0.89406 0.53321 0.73834 0.0
C1480 C 0.88242 0.49967 0.73465 0.0
C1481 C 0.85915 0.48207 0.71932 0.0
C1482 C 0.84874 0.49771 0.70743 0.0
C1483 C 0.86139 0.5309 0.71119 0.0
C1484 C 0.88306 0.54834 0.72645 0.0
C1485 C 0.89242 0.58368 0.72755 0.0
C1486 C 0.88154 0.59335 0.74507 0.0
C1487 C 0.92918 0.6057 0.72643 0.0
C1488 C 0.87284 0.58337 0.71044 0.0
C1489 C 0.85532 0.55277 0.7011 0.0
C1490 C 0.83584 0.54664 0.68474 0.0
C1491 C 0.83363 0.5724 0.67797 0.0
C1492 C 0.85058 0.60373 0.68768 0.0
C1493 C 0.87069 0.60919 0.704 0.0
H1494 H 0.49602 0.96217 0.21727 0.0
H1495 H 0.39445 0.88881 0.20301 0.0
H1496 H 0.39842 0.90422 0.17131 0.0
H1497 H 0.4968 0.02221 0.18848 0.0
H1498 H 0.53717 0.03511 0.18206 0.0
H1499 H 0.52597 0.01955 0.20397 0.0
H1500 H 0.54246 0.97658 0.19598 0.0
H1501 H 0.55353 0.99187 0.17401 0.0
H1502 H 0.52433 0.94962 0.17511 0.0
H1503 H 0.41394 0.92527 0.14067 0.0
H1504 H 0.43928 0.95199 0.11354 0.0
H1505 H 0.53092 0.01231 0.14727 0.0
C1506 C 0.47455 0.94939 0.20752 0.0
C1507 C 0.4448 0.92435 0.21282 0.0
C1508 C 0.41733 0.90848 0.19954 0.0
C1509 C 0.41941 0.91688 0.18139 0.0
C1510 C 0.44913 0.94128 0.17661 0.0
C1511 C 0.47619 0.95747 0.18929 0.0
C1512 C 0.50536 0.98241 0.18043 0.0
C1513 C 0.517 0.01686 0.18926 0.0
C1514 C 0.53305 0.97464 0.18145 0.0
C1515 C 0.49053 0.97745 0.16075 0.0
C1516 C 0.45806 0.95361 0.15889 0.0
C1517 C 0.43926 0.94425 0.14202 0.0
C1518 C 0.4539 0.95978 0.12666 0.0
C1519 C 0.4871 0.98464 0.12814 0.0
C1520 C 0.50558 0.99336 0.14552 0.0
H1521 H 0.05693 0.54791 0.22046 0.0
H1522 H 0.01125 0.44793 0.23315 0.0
H1523 H 0.98725 0.42938 0.2009 0.0
H1524 H 0.99093 0.53813 0.18815 0.0
H1525 H 0.01801 0.5656 0.17304 0.0
H1526 H 0.03051 0.57101 0.19729 0.0
H1527 H 0.08205 0.56887 0.19 0.0
H1528 H 0.0696 0.56321 0.16573 0.0
H1529 H 0.07769 0.53434 0.17605 0.0
H1530 H 0.96917 0.42162 0.16739 0.0
H1531 H 0.95801 0.42501 0.1345 0.0
H1532 H 0.01569 0.53003 0.1433 0.0
C1533 C 0.04148 0.52216 0.21648 0.0
C1534 C 0.03582 0.4993 0.22926 0.0
C1535 C 0.01598 0.46577 0.22351 0.0
C1536 C 1.0022 0.45504 0.20526 0.0
C1537 C 0.00858 0.47815 0.19294 0.0
C1538 C 0.0277 0.511 0.19826 0.0
C1539 C 0.03145 0.53067 0.18212 0.0
C1540 C 0.01684 0.55265 0.18535 0.0
C1541 C 0.06733 0.55043 0.17825 0.0
C1542 C 0.01149 0.50371 0.1669 0.0
C1543 C 0.99843 0.47364 0.17348 0.0
C1544 C 0.97912 0.44503 0.16208 0.0
C1545 C 0.97282 0.44721 0.14344 0.0
C1546 C 0.98586 0.47776 0.13637 0.0
C1547 C 0.00559 0.50634 0.14829 0.0
H1548 H 0.47844 0.54774 0.2041 0.0
H1549 H 0.43919 0.45312 0.22446 0.0
H1550 H 0.44643 0.43097 0.19492 0.0
H1551 H 0.44297 0.51936 0.15721 0.0
H1552 H 0.47803 0.55 0.14752 0.0
H1553 H 0.46901 0.55826 0.17011 0.0
H1554 H 0.52674 0.57291 0.18357 0.0
H1555 H 0.53594 0.56472 0.16102 0.0
H1556 H 0.54017 0.54402 0.17986 0.0
H1557 H 0.45867 0.41929 0.16338 0.0
H1558 H 0.47446 0.41868 0.13188 0.0
H1559 H 0.50756 0.52139 0.13244 0.0
C1560 C 0.47152 0.5224 0.2024 0.0
C1561 C 0.45815 0.50214 0.21661 0.0
C1562 C 0.44903 0.469 0.2137 0.0
C1563 C 0.45323 0.45624 0.19701 0.0
C1564 C 0.46661 0.47692 0.18334 0.0
C1565 C 0.4756 0.50927 0.18584 0.0
C1566 C 0.48966 0.52633 0.16899 0.0
C1567 C 0.46866 0.53924 0.16046 0.0
C1568 C 0.52524 0.5536 0.17365 0.0
C1569 C 0.48732 0.49852 0.15668 0.0
C1570 C 0.47392 0.47024 0.16521 0.0
C1571 C 0.46931 0.44132 0.15658 0.0
C1572 C 0.4786 0.44129 0.13873 0.0
C1573 C 0.49245 0.47001 0.12968 0.0
C1574 C 0.4968 0.49896 0.13888 0.0
H1575 H 0.97147 0.48919 0.79622 0.0
H1576 H 0.87633 0.47876 0.80053 0.0
H1577 H 0.88769 0.48878 0.83445 0.0
H1578 H 0.97306 0.44939 0.83521 0.0
H1579 H 0.01577 0.47631 0.84219 0.0
H1580 H 1.00067 0.46978 0.8183 0.0
H1581 H 0.025 0.53168 0.81734 0.0
H1582 H 0.04035 0.53842 0.84121 0.0
H1583 H 0.01428 0.55363 0.83368 0.0
H1584 H 0.90827 0.49633 0.86794 0.0
H1585 H 0.93725 0.50343 0.89837 0.0
H1586 H 0.02007 0.51155 0.87187 0.0
C1587 C 0.95309 0.48913 0.80432 0.0
C1588 C 0.92301 0.48316 0.79583 0.0
C1589 C 0.89964 0.48356 0.80681 0.0
C1590 C 0.90583 0.48909 0.82605 0.0
C1591 C 0.93563 0.49451 0.83401 0.0
C1592 C 0.959 0.49491 0.82347 0.0
C1593 C 0.98893 0.50108 0.83537 0.0
C1594 C 0.99494 0.47243 0.8326 0.0
C1595 C 0.01891 0.53311 0.83168 0.0
C1596 C 0.97854 0.50349 0.85429 0.0
C1597 C 0.94775 0.49966 0.85323 0.0
C1598 C 0.9326 0.49984 0.86894 0.0
C1599 C 0.94939 0.50411 0.88618 0.0
C1600 C 0.98114 0.50833 0.88762 0.0
C1601 C 0.99578 0.50813 0.87136 0.0
H1602 H 0.54934 0.46066 0.81182 0.0
H1603 H 0.5658 0.54788 0.78786 0.0
H1604 H 0.55851 0.5694 0.81767 0.0
H1605 H 0.48602 0.45264 0.83774 0.0
H1606 H 0.49799 0.43802 0.85712 0.0
H1607 H 0.50757 0.43094 0.83448 0.0
H1608 H 0.56865 0.45866 0.8464 0.0
H1609 H 0.55925 0.46579 0.86912 0.0
H1610 H 0.58883 0.49921 0.85789 0.0
H1611 H 0.54533 0.57955 0.84957 0.0
H1612 H 0.52868 0.57813 0.88104 0.0
H1613 H 0.5194 0.48353 0.88378 0.0
C1614 C 0.55158 0.48438 0.81283 0.0
C1615 C 0.55816 0.50257 0.79743 0.0
C1616 C 0.56123 0.53365 0.79947 0.0
C1617 C 0.55695 0.546 0.81634 0.0
C1618 C 0.54979 0.52709 0.83109 0.0
C1619 C 0.54734 0.49702 0.82952 0.0
C1620 C 0.53812 0.4809 0.84718 0.0
C1621 C 0.50548 0.44873 0.84393 0.0
C1622 C 0.56534 0.47585 0.85565 0.0
C1623 C 0.5351 0.50631 0.85886 0.0
C1624 C 0.54212 0.53286 0.84938 0.0
C1625 C 0.53995 0.55894 0.85714 0.0
C1626 C 0.53023 0.5578 0.87499 0.0
C1627 C 0.52266 0.53071 0.88494 0.0
C1628 C 0.52545 0.5048 0.87671 0.0
H1629 H 0.53738 0.10153 0.80953 0.0
H1630 H 0.58576 0.05171 0.78814 0.0
H1631 H 0.57756 0.02396 0.81634 0.0
H1632 H 0.56731 0.11224 0.85695 0.0
H1633 H 0.52963 0.10443 0.86563 0.0
H1634 H 0.54 0.12125 0.84396 0.0
H1635 H 0.48553 0.07408 0.82789 0.0
H1636 H 0.47495 0.05715 0.84952 0.0
H1637 H 0.47551 0.03281 0.82994 0.0
H1638 H 0.56475 0.00186 0.847 0.0
H1639 H 0.54613 0.98526 0.87743 0.0
H1640 H 0.5033 0.0468 0.87844 0.0
C1641 C 0.54598 0.08454 0.81059 0.0
C1642 C 0.56252 0.07917 0.79647 0.0
C1643 C 0.57368 0.05697 0.79879 0.0
C1644 C 0.56892 0.04082 0.81474 0.0
C1645 C 0.55263 0.04676 0.82831 0.0
C1646 C 0.5411 0.06789 0.82637 0.0
C1647 C 0.52386 0.06946 0.84293 0.0
C1648 C 0.54125 0.10389 0.85296 0.0
C1649 C 0.48782 0.05767 0.83722 0.0
C1650 C 0.52752 0.04592 0.85448 0.0
C1651 C 0.54441 0.03329 0.84582 0.0
C1652 C 0.55144 0.01154 0.85389 0.0
C1653 C 0.5409 0.00237 0.87122 0.0
C1654 C 0.52328 0.01471 0.88035 0.0
C1655 C 0.51645 0.03672 0.87175 0.0
H1656 H 0.1669 0.25514 0.54287 0.0
H1657 H 0.11952 0.30671 0.563 0.0
H1658 H 0.12863 0.334 0.53466 0.0
H1659 H 0.22921 0.32284 0.5205 0.0
H1660 H 0.22845 0.29698 0.50131 0.0
H1661 H 0.21906 0.28178 0.52346 0.0
H1662 H 0.1638 0.23406 0.50868 0.0
H1663 H 0.17294 0.2492 0.48651 0.0
H1664 H 0.13599 0.24247 0.49574 0.0
H1665 H 0.1397 0.35356 0.50375 0.0
H1666 H 0.15534 0.36698 0.4725 0.0
H1667 H 0.19789 0.30519 0.47198 0.0
C1668 C 0.15886 0.2725 0.5414 0.0
C1669 C 0.14202 0.27834 0.55514 0.0
C1670 C 0.13178 0.30118 0.55258 0.0
C1671 C 0.13702 0.31701 0.53654 0.0
C1672 C 0.15294 0.31018 0.52314 0.0
C1673 C 0.16406 0.28878 0.5254 0.0
C1674 C 0.18022 0.28579 0.50861 0.0
C1675 C 0.21639 0.29755 0.51378 0.0
C1676 C 0.16215 0.2508 0.49934 0.0
C1677 C 0.1761 0.30862 0.49657 0.0
C1678 C 0.16016 0.32227 0.50528 0.0
C1679 C 0.15241 0.34322 0.49683 0.0
C1680 C 0.16122 0.35055 0.47903 0.0
C1681 C 0.17781 0.33716 0.46978 0.0
C1682 C 0.18551 0.31603 0.47878 0.0
H1683 H 0.70091 0.82516 0.54794 0.0
H1684 H 0.79511 0.91135 0.5458 0.0
H1685 H 0.78259 0.91036 0.51256 0.0
H1686 H 0.69808 0.7859 0.50232 0.0
H1687 H 0.65497 0.76981 0.49729 0.0
H1688 H 0.67209 0.7759 0.52076 0.0
H1689 H 0.64703 0.81151 0.52937 0.0
H1690 H 0.63018 0.80587 0.5059 0.0
H1691 H 0.65641 0.84624 0.51705 0.0
H1692 H 0.75913 0.9029 0.48062 0.0
H1693 H 0.72697 0.88722 0.45051 0.0
H1694 H 0.64789 0.80477 0.47239 0.0
C1695 C 0.71902 0.8434 0.54034 0.0
C1696 C 0.74886 0.86847 0.54937 0.0
C1697 C 0.77195 0.89219 0.53911 0.0
C1698 C 0.76512 0.89178 0.52026 0.0
C1699 C 0.73517 0.86737 0.51184 0.0
C1700 C 0.71255 0.84339 0.52141 0.0
C1701 C 0.68186 0.82057 0.50895 0.0
C1702 C 0.67644 0.786 0.50723 0.0
C1703 C 0.65212 0.8211 0.51573 0.0
C1704 C 0.69069 0.83587 0.49101 0.0
C1705 C 0.7216 0.86278 0.49307 0.0
C1706 C 0.73506 0.88159 0.47872 0.0
C1707 C 0.71662 0.8724 0.46165 0.0
C1708 C 0.68508 0.84452 0.45902 0.0
C1709 C 0.67188 0.82622 0.47399 0.0
H1710 H 0.14981 0.8475 0.55072 0.0
H1711 H 0.05263 0.83212 0.53873 0.0
H1712 H 0.05345 0.81616 0.50606 0.0
H1713 H 0.1811 0.88449 0.51145 0.0
H1714 H 0.20619 0.86663 0.50802 0.0
H1715 H 0.19626 0.87242 0.53077 0.0
H1716 H 0.17222 0.81129 0.5344 0.0
H1717 H 0.18239 0.80533 0.51169 0.0
H1718 H 0.1411 0.78154 0.5174 0.0
H1719 H 0.06789 0.8087 0.47406 0.0
H1720 H 0.09332 0.80763 0.44582 0.0
H1721 H 0.18074 0.8267 0.47883 0.0
C1722 C 0.12846 0.84025 0.54129 0.0
C1723 C 0.1011 0.84101 0.5473 0.0
C1724 C 0.07365 0.83128 0.53452 0.0
C1725 C 0.074 0.82236 0.51591 0.0
C1726 C 0.10184 0.82298 0.51034 0.0
C1727 C 0.12841 0.83129 0.52272 0.0
C1728 C 0.15608 0.83192 0.51312 0.0
C1729 C 0.18671 0.86588 0.51601 0.0
C1730 C 0.16337 0.80597 0.51953 0.0
C1731 C 0.14134 0.82361 0.4933 0.0
C1732 C 0.10997 0.81832 0.49198 0.0
C1733 C 0.09218 0.81212 0.47499 0.0
C1734 C 0.10682 0.81136 0.45897 0.0
C1735 C 0.13899 0.8167 0.45994 0.0
C1736 C 0.1562 0.82262 0.47746 0.0
H1737 H 0.65694 0.82139 0.12697 0.0
H1738 H 0.57782 0.84172 0.12774 0.0
H1739 H 0.59275 0.86013 0.16088 0.0
H1740 H 0.64611 0.78813 0.16905 0.0
H1741 H 0.68882 0.80481 0.17598 0.0
H1742 H 0.67446 0.79693 0.15193 0.0
H1743 H 0.71496 0.85679 0.14716 0.0
H1744 H 0.72956 0.86486 0.17122 0.0
H1745 H 0.71451 0.88889 0.1611 0.0
H1746 H 0.61238 0.87061 0.19443 0.0
H1747 H 0.63669 0.87432 0.22586 0.0
H1748 H 0.70299 0.84714 0.20334 0.0
C1749 C 0.643 0.83008 0.13407 0.0
C1750 C 0.6163 0.83026 0.12474 0.0
C1751 C 0.59871 0.84188 0.13451 0.0
C1752 C 0.60691 0.85224 0.15336 0.0
C1753 C 0.63291 0.85106 0.16221 0.0
C1754 C 0.65088 0.84054 0.15286 0.0
C1755 C 0.67649 0.83992 0.16579 0.0
C1756 C 0.67113 0.8054 0.16568 0.0
C1757 C 0.71092 0.86406 0.16103 0.0
C1758 C 0.66955 0.85091 0.18395 0.0
C1759 C 0.64444 0.85739 0.18157 0.0
C1760 C 0.63235 0.86603 0.19645 0.0
C1761 C 0.64616 0.8679 0.21422 0.0
C1762 C 0.6718 0.86119 0.21697 0.0
C1763 C 0.68384 0.85299 0.2016 0.0
H1764 H 0.20685 0.7707 0.13677 0.0
H1765 H 0.26573 0.87113 0.12571 0.0
H1766 H 0.25986 0.88897 0.1569 0.0
H1767 H 0.14975 0.78087 0.16025 0.0
H1768 H 0.14461 0.7525 0.17674 0.0
H1769 H 0.15637 0.74763 0.15435 0.0
H1770 H 0.20731 0.74842 0.16946 0.0
H1771 H 0.19566 0.75324 0.19193 0.0
H1772 H 0.23539 0.78207 0.18576 0.0
H1773 H 0.24372 0.89585 0.18827 0.0
H1774 H 0.21945 0.89128 0.2177 0.0
H1775 H 0.16993 0.78636 0.20798 0.0
C1776 C 0.2187 0.79647 0.14092 0.0
C1777 C 0.23682 0.81951 0.12875 0.0
C1778 C 0.25216 0.85299 0.13484 0.0
C1779 C 0.24882 0.86337 0.15252 0.0
C1780 C 0.23021 0.84 0.16399 0.0
C1781 C 0.21556 0.80723 0.15848 0.0
C1782 C 0.19551 0.78705 0.17307 0.0
C1783 C 0.15943 0.76577 0.16565 0.0
C1784 C 0.2093 0.76649 0.18049 0.0
C1785 C 0.20051 0.81359 0.18748 0.0
C1786 C 0.22081 0.84395 0.18204 0.0
C1787 C 0.22799 0.87221 0.19273 0.0
C1788 C 0.2139 0.86936 0.20935 0.0
C1789 C 0.19275 0.83847 0.21513 0.0
C1790 C 0.18634 0.8103 0.20408 0.0
H1791 H 0.25049 0.43003 0.14969 0.0
H1792 H 0.15822 0.36869 0.11691 0.0
H1793 H 0.13593 0.3375 0.14343 0.0
H1794 H 0.25038 0.36784 0.17604 0.0
H1795 H 0.26748 0.39402 0.19724 0.0
H1796 H 0.27682 0.41088 0.17551 0.0
H1797 H 0.25618 0.45002 0.18485 0.0
H1798 H 0.24673 0.43323 0.20658 0.0
H1799 H 0.21557 0.43377 0.19171 0.0
H1800 H 0.1236 0.31259 0.17313 0.0
H1801 H 0.12085 0.297 0.20481 0.0
H1802 H 0.22 0.37564 0.2195 0.0
C1803 C 0.2257 0.40986 0.14813 0.0
C1804 C 0.20605 0.40164 0.13122 0.0
C1805 C 0.17359 0.37541 0.12974 0.0
C1806 C 0.16077 0.35751 0.14471 0.0
C1807 C 0.18058 0.3663 0.16121 0.0
C1808 C 0.21226 0.39198 0.16311 0.0
C1809 C 0.22777 0.39694 0.18266 0.0
C1810 C 0.25737 0.39213 0.18287 0.0
C1811 C 0.23711 0.43048 0.192 0.0
C1812 C 0.19989 0.36997 0.19137 0.0
C1813 C 0.17304 0.35249 0.17865 0.0
C1814 C 0.14445 0.32612 0.18321 0.0
C1815 C 0.14318 0.31735 0.20124 0.0
C1816 C 0.17019 0.33498 0.21464 0.0
C1817 C 0.19889 0.36179 0.20959 0.0
H1818 H 0.81178 0.57168 0.87354 0.0
H1819 H 0.7452 0.60303 0.89095 0.0
H1820 H 0.74989 0.6288 0.86228 0.0
H1821 H 0.86558 0.64587 0.85471 0.0
H1822 H 0.87432 0.62602 0.83603 0.0
H1823 H 0.86405 0.60791 0.85735 0.0
H1824 H 0.81712 0.55506 0.8397 0.0
H1825 H 0.82721 0.57302 0.81831 0.0
H1826 H 0.7865 0.55684 0.825 0.0
H1827 H 0.76176 0.65147 0.83174 0.0
H1828 H 0.78246 0.67207 0.80229 0.0
H1829 H 0.84473 0.63012 0.80569 0.0
C1830 C 0.79832 0.58414 0.87151 0.0
C1831 C 0.77779 0.58482 0.88466 0.0
C1832 C 0.76041 0.6012 0.88105 0.0
C1833 C 0.76313 0.61624 0.86482 0.0
C1834 C 0.78365 0.61518 0.8523 0.0
C1835 C 0.80118 0.5998 0.85551 0.0
C1836 C 0.82255 0.60336 0.84014 0.0
C1837 C 0.85877 0.6219 0.8475 0.0
C1838 C 0.81275 0.57009 0.8302 0.0
C1839 C 0.81434 0.62323 0.82781 0.0
C1840 C 0.79155 0.62944 0.83501 0.0
C1841 C 0.77966 0.64683 0.826 0.0
C1842 C 0.79146 0.65832 0.80925 0.0
C1843 C 0.81519 0.65272 0.80171 0.0
C1844 C 0.82678 0.63497 0.81119 0.0
H1845 H 0.35462 0.14029 0.88557 0.0
H1846 H 0.45186 0.22225 0.88479 0.0
H1847 H 0.44643 0.21395 0.85071 0.0
H1848 H 0.35623 0.09036 0.84542 0.0
H1849 H 0.31437 0.07599 0.83737 0.0
H1850 H 0.32748 0.08604 0.86163 0.0
H1851 H 0.30554 0.12591 0.86303 0.0
H1852 H 0.29251 0.1161 0.8388 0.0
H1853 H 0.31957 0.15769 0.84787 0.0
H1854 H 0.42879 0.19943 0.81708 0.0
H1855 H 0.3998 0.18106 0.78595 0.0
H1856 H 0.31346 0.10848 0.80851 0.0
C1857 C 0.3749 0.15592 0.87813 0.0
C1858 C 0.40381 0.18158 0.88751 0.0
C1859 C 0.42974 0.20228 0.8776 0.0
C1860 C 0.42685 0.19768 0.85835 0.0
C1861 C 0.39783 0.17234 0.84937 0.0
C1862 C 0.37229 0.15179 0.85891 0.0
C1863 C 0.34286 0.1281 0.84593 0.0
C1864 C 0.33477 0.09304 0.84769 0.0
C1865 C 0.31339 0.13222 0.8491 0.0
C1866 C 0.35555 0.13904 0.82762 0.0
C1867 C 0.38745 0.16427 0.82991 0.0
C1868 C 0.40397 0.17937 0.81508 0.0
C1869 C 0.38732 0.16864 0.79743 0.0
C1870 C 0.35442 0.14316 0.79477 0.0
C1871 C 0.33857 0.12801 0.8101 0.0
H1872 H 0.83133 0.22328 0.87892 0.0
H1873 H 0.78136 0.12311 0.89149 0.0
H1874 H 0.78954 0.10589 0.86076 0.0
H1875 H 0.79925 0.20693 0.83109 0.0
H1876 H 0.83652 0.23782 0.82331 0.0
H1877 H 0.82681 0.24255 0.84633 0.0
H1878 H 0.8818 0.24965 0.85959 0.0
H1879 H 0.89172 0.24503 0.83662 0.0
H1880 H 0.8919 0.21893 0.85337 0.0
H1881 H 0.8037 0.09936 0.82908 0.0
H1882 H 0.8223 0.10376 0.79805 0.0
H1883 H 0.8631 0.20805 0.80543 0.0
C1884 C 0.82228 0.19776 0.87522 0.0
C1885 C 0.80558 0.17451 0.88762 0.0
C1886 C 0.79383 0.1413 0.88217 0.0
C1887 C 0.79849 0.13129 0.86477 0.0
C1888 C 0.81488 0.15474 0.85288 0.0
C1889 C 0.82654 0.18727 0.8578 0.0
C1890 C 0.84317 0.20739 0.84229 0.0
C1891 C 0.82537 0.22469 0.83534 0.0
C1892 C 0.87929 0.23168 0.84833 0.0
C1893 C 0.83922 0.18107 0.82796 0.0
C1894 C 0.82286 0.15092 0.83442 0.0
C1895 C 0.81658 0.12285 0.82388 0.0
C1896 C 0.82741 0.12562 0.8063 0.0
C1897 C 0.84435 0.15624 0.79932 0.0
C1898 C 0.85006 0.18429 0.81032 0.0
H1899 H 0.27836 0.16914 0.47047 0.0
H1900 H 0.20364 0.06918 0.47388 0.0
H1901 H 0.22352 0.07324 0.50632 0.0
H1902 H 0.34116 0.16686 0.49797 0.0
H1903 H 0.35833 0.20736 0.50916 0.0
H1904 H 0.33744 0.19725 0.48638 0.0
H1905 H 0.2988 0.21666 0.49764 0.0
H1906 H 0.31964 0.22692 0.52046 0.0
H1907 H 0.27624 0.19967 0.51699 0.0
H1908 H 0.25181 0.08736 0.53788 0.0
H1909 H 0.28711 0.11079 0.56701 0.0
H1910 H 0.34446 0.20152 0.54332 0.0
C1911 C 0.26602 0.14829 0.47815 0.0
C1912 C 0.23959 0.11879 0.46969 0.0
C1913 C 0.22421 0.09186 0.48007 0.0
C1914 C 0.23519 0.09398 0.49851 0.0
C1915 C 0.26155 0.12322 0.50638 0.0
C1916 C 0.27679 0.14993 0.4966 0.0
C1917 C 0.30522 0.17815 0.50829 0.0
C1918 C 0.33744 0.18797 0.49995 0.0
C1919 C 0.29962 0.20706 0.51101 0.0
C1920 C 0.30366 0.16297 0.52609 0.0
C1921 C 0.27818 0.13132 0.52467 0.0
C1922 C 0.2719 0.1121 0.53917 0.0
C1923 C 0.29227 0.12556 0.55561 0.0
C1924 C 0.31874 0.15789 0.55739 0.0
C1925 C 0.32431 0.17682 0.54242 0.0
H1926 H 0.85308 0.14232 0.46275 0.0
H1927 H 0.9578 0.1835 0.47044 0.0
H1928 H 0.95786 0.20005 0.50312 0.0
H1929 H 0.8498 0.20337 0.49333 0.0
H1930 H 0.81222 0.17431 0.50172 0.0
H1931 H 0.82086 0.16737 0.47878 0.0
H1932 H 0.81249 0.11153 0.48616 0.0
H1933 H 0.80404 0.11838 0.50915 0.0
H1934 H 0.83598 0.1094 0.50565 0.0
H1935 H 0.9458 0.20884 0.53553 0.0
H1936 H 0.92317 0.21161 0.56466 0.0
H1937 H 0.82637 0.16575 0.53557 0.0
C1938 C 0.87606 0.15492 0.47129 0.0
C1939 C 0.90547 0.1616 0.46401 0.0
C1940 C 0.93504 0.17845 0.47563 0.0
C1941 C 0.93527 0.18777 0.49424 0.0
C1942 C 0.90576 0.18027 0.50102 0.0
C1943 C 0.87674 0.16448 0.48985 0.0
C1944 C 0.84832 0.15883 0.50057 0.0
C1945 C 0.83184 0.17706 0.49316 0.0
C1946 C 0.82377 0.12237 0.50037 0.0
C1947 C 0.8658 0.17349 0.51959 0.0
C1948 C 0.89892 0.18575 0.51957 0.0
C1949 C 0.91996 0.1997 0.53564 0.0
C1950 C 0.90684 0.20133 0.55213 0.0
C1951 C 0.87295 0.18918 0.5525 0.0
C1952 C 0.85231 0.17509 0.5359 0.0
H1953 H 0.84009 0.72339 0.46299 0.0
H1954 H 0.94202 0.79834 0.47287 0.0
H1955 H 0.94178 0.78744 0.50542 0.0
H1956 H 0.81674 0.74251 0.50594 0.0
H1957 H 0.7878 0.70076 0.50856 0.0
H1958 H 0.79646 0.71376 0.48591 0.0
H1959 H 0.81158 0.66959 0.47839 0.0
H1960 H 0.80314 0.65657 0.50106 0.0
H1961 H 0.84238 0.66829 0.49319 0.0
H1962 H 0.93026 0.76798 0.53724 0.0
H1963 H 0.90817 0.74277 0.56546 0.0
H1964 H 0.81287 0.68347 0.53511 0.0
C1965 C 0.86236 0.73787 0.47196 0.0
C1966 C 0.89114 0.76171 0.46513 0.0
C1967 C 0.91977 0.77952 0.47749 0.0
C1968 C 0.91983 0.77366 0.49611 0.0
C1969 C 0.89103 0.75006 0.50231 0.0
C1970 C 0.86278 0.73258 0.4906 0.0
C1971 C 0.83488 0.70898 0.50074 0.0
C1972 C 0.80735 0.71699 0.50026 0.0
C1973 C 0.82226 0.67377 0.49287 0.0
C1974 C 0.85182 0.71583 0.51999 0.0
C1975 C 0.88423 0.7395 0.52062 0.0
C1976 C 0.90483 0.7496 0.5369 0.0
C1977 C 0.89194 0.73525 0.55294 0.0
C1978 C 0.85863 0.7111 0.55271 0.0
C1979 C 0.8385 0.70146 0.53588 0.0
loop_
_geom_bond_atom_site_label_1
_geom_bond_atom_site_label_2
_geom_bond_distance
_geom_bond_site_symmetry_2
_ccdc_geom_bond_type
H0 C3 0.931 . S
H1 C6 0.928 . S
H2 C8 0.930 . S
C3 H0 0.931 . S
C3 C4 1.413 . S
C3 C5 1.360 . S
C4 C3 1.413 . S
C4 C8 1.429 . S
C5 C3 1.360 . S
C5 C6 1.372 . S
C6 H1 0.928 . S
C6 C5 1.372 . S
C6 C7 1.404 . S
C7 C6 1.404 . S
C7 C8 1.391 . S
C8 H2 0.930 . S
C8 C4 1.429 . S
C8 C7 1.391 . S
H9 C12 0.931 . S
H10 C15 0.928 . S
H11 C17 0.930 . S
C12 H9 0.931 . S
C12 C13 1.413 . S
C12 C14 1.360 . S
C13 C12 1.413 . S
C13 C17 1.429 . S
C14 C12 1.360 . S
C14 C15 1.372 . S
C15 H10 0.928 . S
C15 C14 1.372 . S
C15 C16 1.404 . S
C16 C15 1.404 . S
C16 C17 1.391 . S
C17 H11 0.930 . S
C17 C13 1.429 . S
C17 C16 1.391 . S
H18 C21 0.931 . S
H19 C24 0.928 . S
H20 C26 0.930 . S
C21 H18 0.931 . S
C21 C22 1.413 . S
C21 C23 1.360 . S
C22 C21 1.413 . S
C22 C26 1.429 . S
C23 C21 1.360 . S
C23 C24 1.372 . S
C24 H19 0.928 . S
C24 C23 1.372 . S
C24 C25 1.404 . S
C25 C24 1.404 . S
C25 C26 1.391 . S
C26 H20 0.930 . S
C26 C22 1.429 . S
C26 C25 1.391 . S
H27 C30 0.931 . S
H28 C33 0.928 . S
H29 C35 0.930 . S
C30 H27 0.931 . S
C30 C31 1.413 . S
C30 C32 1.360 . S
C31 C30 1.413 . S
C31 C35 1.429 . S
C32 C30 1.360 . S
C32 C33 1.372 . S
C33 H28 0.928 . S
C33 C32 1.372 . S
C33 C34 1.404 . S
C34 C33 1.404 . S
C34 C35 1.391 . S
C35 H29 0.930 . S
C35 C31 1.429 . S
C35 C34 1.391 . S
H36 C39 0.931 . S
H37 C42 0.928 . S
H38 C44 0.930 . S
C39 H36 0.931 . S
C39 C40 1.413 . S
C39 C41 1.360 . S
C40 C39 1.413 . S
C40 C44 1.429 . S
C41 C39 1.360 . S
C41 C42 1.372 . S
C42 H37 0.928 . S
C42 C41 1.372 . S
C42 C43 1.404 . S
C43 C42 1.404 . S
C43 C44 1.391 . S
C44 H38 0.930 . S
C44 C40 1.429 . S
C44 C43 1.391 . S
H45 C48 0.931 . S
H46 C51 0.928 . S
H47 C53 0.930 . S
C48 H45 0.931 . S
C48 C49 1.413 . S
C48 C50 1.360 . S
C49 C48 1.413 . S
C49 C53 1.429 . S
C50 C48 1.360 . S
C50 C51 1.372 . S
C51 H46 0.928 . S
C51 C50 1.372 . S
C51 C52 1.404 . S
C52 C51 1.404 . S
C52 C53 1.391 . S
C53 H47 0.930 . S
C53 C49 1.429 . S
C53 C52 1.391 . S
H54 C57 0.931 . S
H55 C60 0.928 . S
H56 C62 0.930 . S
C57 H54 0.931 . S
C57 C58 1.413 . S
C57 C59 1.360 . S
C58 C57 1.413 . S
C58 C62 1.429 . S
C59 C57 1.360 . S
C59 C60 1.372 . S
C60 H55 0.928 . S
C60 C59 1.372 . S
C60 C61 1.404 . S
C61 C60 1.404 . S
C61 C62 1.391 . S
C62 H56 0.930 . S
C62 C58 1.429 . S
C62 C61 1.391 . S
H63 C66 0.931 . S
H64 C69 0.928 . S
H65 C71 0.930 . S
C66 H63 0.931 . S
C66 C67 1.413 . S
C66 C68 1.360 . S
C67 C66 1.413 . S
C67 C71 1.429 . S
C68 C66 1.360 . S
C68 C69 1.372 . S
C69 H64 0.928 . S
C69 C68 1.372 . S
C69 C70 1.404 . S
C70 C69 1.404 . S
C70 C71 1.391 . S
C71 H65 0.930 . S
C71 C67 1.429 . S
C71 C70 1.391 . S
H72 C75 0.931 . S
H73 C78 0.928 . S
H74 C80 0.930 . S
C75 H72 0.931 . S
C75 C76 1.413 . S
C75 C77 1.360 . S
C76 C75 1.413 . S
C76 C80 1.429 . S
C77 C75 1.360 . S
C77 C78 1.372 . S
C78 H73 0.928 . S
C78 C77 1.372 . S
C78 C79 1.404 . S
C79 C78 1.404 . S
C79 C80 1.391 . S
C80 H74 0.930 . S
C80 C76 1.429 . S
C80 C79 1.391 . S
H81 C84 0.931 . S
H82 C87 0.928 . S
H83 C89 0.930 . S
C84 H81 0.931 . S
C84 C85 1.413 . S
C84 C86 1.360 . S
C85 C84 1.413 . S
C85 C89 1.429 . S
C86 C84 1.360 . S
C86 C87 1.372 . S
C87 H82 0.928 . S
C87 C86 1.372 . S
C87 C88 1.404 . S
C88 C87 1.404 . S
C88 C89 1.391 . S
C89 H83 0.930 . S
C89 C85 1.429 . S
C89 C88 1.391 . S
H90 C93 0.931 . S
H91 C96 0.928 . S
H92 C98 0.930 . S
C93 H90 0.931 . S
C93 C94 1.413 . S
C93 C95 1.360 . S
C94 C93 1.413 . S
C94 C98 1.429 . S
C95 C93 1.360 . S
C95 C96 1.372 . S
C96 H91 0.928 . S
C96 C95 1.372 . S
C96 C97 1.404 . S
C97 C96 1.404 . S
C97 C98 1.391 . S
C98 H92 0.930 . S
C98 C94 1.429 . S
C98 C97 1.391 . S
H99 C102 0.931 . S
H100 C105 0.928 . S
H101 C107 0.930 . S
C102 H99 0.931 . S
C102 C103 1.413 . S
C102 C104 1.360 . S
C103 C102 1.413 . S
C103 C107 1.429 . S
C104 C102 1.360 . S
C104 C105 1.372 . S
C105 H100 0.928 . S
C105 C104 1.372 . S
C105 C106 1.404 . S
C106 C105 1.404 . S
C106 C107 1.391 . S
C107 H101 0.930 . S
C107 C103 1.429 . S
C107 C106 1.391 . S
H108 C111 0.931 . S
H109 C114 0.928 . S
H110 C116 0.930 . S
C111 H108 0.931 . S
C111 C112 1.413 . S
C111 C113 1.360 . S
C112 C111 1.413 . S
C112 C116 1.429 . S
C113 C111 1.360 . S
C113 C114 1.372 . S
C114 H109 0.928 . S
C114 C113 1.372 . S
C114 C115 1.404 . S
C115 C114 1.404 . S
C115 C116 1.391 . S
C116 H110 0.930 . S
C116 C112 1.429 . S
C116 C115 1.391 . S
H117 C120 0.931 . S
H118 C123 0.928 . S
H119 C125 0.930 . S
C120 H117 0.931 . S
C120 C121 1.413 . S
C120 C122 1.360 . S
C121 C120 1.413 . S
C121 C125 1.429 . S
C122 C120 1.360 . S
C122 C123 1.372 . S
C123 H118 0.928 . S
C123 C122 1.372 . S
C123 C124 1.404 . S
C124 C123 1.404 . S
C124 C125 1.391 . S
C125 H119 0.930 . S
C125 C121 1.429 . S
C125 C124 1.391 . S
H126 C129 0.931 . S
H127 C132 0.928 . S
H128 C134 0.930 . S
C129 H126 0.931 . S
C129 C130 1.413 . S
C129 C131 1.360 . S
C130 C129 1.413 . S
C130 C134 1.429 . S
C131 C129 1.360 . S
C131 C132 1.372 . S
C132 H127 0.928 . S
C132 C131 1.372 . S
C132 C133 1.404 . S
C133 C132 1.404 . S
C133 C134 1.391 . S
C134 H128 0.930 . S
C134 C130 1.429 . S
C134 C133 1.391 . S
H135 C138 0.931 . S
H136 C141 0.928 . S
H137 C143 0.930 . S
C138 H135 0.931 . S
C138 C139 1.413 . S
C138 C140 1.360 . S
C139 C138 1.413 . S
C139 C143 1.429 . S
C140 C138 1.360 . S
C140 C141 1.372 . S
C141 H136 0.928 . S
C141 C140 1.372 . S
C141 C142 1.404 . S
C142 C141 1.404 . S
C142 C143 1.391 . S
C143 H137 0.930 . S
C143 C139 1.429 . S
C143 C142 1.391 . S
H144 C147 0.931 . S
H145 C150 0.928 . S
H146 C152 0.930 . S
C147 H144 0.931 . S
C147 C148 1.413 . S
C147 C149 1.360 . S
C148 C147 1.413 . S
C148 C152 1.429 . S
C149 C147 1.360 . S
C149 C150 1.372 . S
C150 H145 0.928 . S
C150 C149 1.372 . S
C150 C151 1.404 . S
C151 C150 1.404 . S
C151 C152 1.391 . S
C152 H146 0.930 . S
C152 C148 1.429 . S
C152 C151 1.391 . S
H153 C156 0.931 . S
H154 C159 0.928 . S
H155 C161 0.930 . S
C156 H153 0.931 . S
C156 C157 1.413 . S
C156 C158 1.360 . S
C157 C156 1.413 . S
C157 C161 1.429 . S
C158 C156 1.360 . S
C158 C159 1.372 . S
C159 H154 0.928 . S
C159 C158 1.372 . S
C159 C160 1.404 . S
C160 C159 1.404 . S
C160 C161 1.391 . S
C161 H155 0.930 . S
C161 C157 1.429 . S
C161 C160 1.391 . S
Tb162 C172 2.825 . S
Tb162 O173 2.347 1_565 S
Tb162 O176 2.366 1_565 S
Tb162 O181 2.418 . S
Tb162 O182 2.384 . S
Tb162 O185 2.479 . S
Tb162 O186 2.468 1_565 S
Eu163 O174 2.418 . S
Eu163 O175 2.384 . S
Eu163 O178 2.479 . S
Eu163 O179 2.476 . S
Eu163 O180 2.347 1_545 S
Eu163 O183 2.366 1_545 S
Eu163 C193 2.825 . S
C164 O180 1.259 . S
C164 O181 1.265 1_554 S
C165 O182 1.255 1_554 S
C165 O183 1.265 . S
C166 C168 1.380 . S
C166 C169 1.374 1_565 S
C166 C172 1.507 . S
C167 C168 1.384 . S
C167 C171 1.387 1_565 S
C167 H194 0.930 . S
C168 C166 1.380 . S
C168 C167 1.384 . S
C168 H195 0.931 . S
C169 C166 1.374 1_545 S
C169 C170 1.390 . S
C169 H196 0.930 . S
C170 C169 1.390 . S
C170 C171 1.391 . S
C170 H197 0.930 . S
C171 C167 1.387 1_545 S
C171 C170 1.391 . S
C172 Tb162 2.825 . S
C172 C166 1.507 . S
C172 O185 1.238 . S
C172 O186 1.242 1_565 S
O173 Tb162 2.347 1_545 S
O173 C177 1.259 . S
O174 Eu163 2.418 . S
O174 C177 1.265 1_554 S
O175 Eu163 2.384 . S
O175 C184 1.255 1_554 S
O176 Tb162 2.366 1_545 S
O176 C184 1.265 . S
C177 O173 1.259 . S
C177 O174 1.265 1_556 S
O178 Eu163 2.479 . S
O178 C193 1.238 . S
O179 Eu163 2.476 . S
O179 C193 1.254 . S
O180 Eu163 2.347 1_565 S
O180 C164 1.259 . S
O181 Tb162 2.418 . S
O181 C164 1.265 1_556 S
O182 Tb162 2.384 . S
O182 C165 1.255 1_556 S
O183 Eu163 2.366 1_565 S
O183 C165 1.265 . S
C184 O175 1.255 1_556 S
C184 O176 1.265 . S
O185 Tb162 2.479 . S
O185 C172 1.238 . S
O186 Tb162 2.468 1_545 S
O186 C172 1.242 1_545 S
C187 C190 1.380 . S
C187 C191 1.374 1_545 S
C187 C193 1.507 . S
C188 C189 1.387 1_565 S
C188 C192 1.391 . S
C189 C188 1.387 1_545 S
C189 C190 1.384 . S
C189 H198 0.930 . S
C190 C187 1.380 . S
C190 C189 1.384 . S
C190 H199 0.931 . S
C191 C187 1.374 1_565 S
C191 C192 1.390 . S
C191 H200 0.930 . S
C192 C188 1.391 . S
C192 C191 1.390 . S
C192 H201 0.930 . S
C193 Eu163 2.825 . S
C193 O178 1.238 . S
C193 O179 1.254 . S
C193 C187 1.507 . S
H194 C167 0.930 . S
H195 C168 0.931 . S
H196 C169 0.930 . S
H197 C170 0.930 . S
H198 C189 0.930 . S
H199 C190 0.931 . S
H200 C191 0.930 . S
H201 C192 0.930 . S
Tb202 C212 2.825 . S
Tb202 O213 2.347 1_455 S
Tb202 O216 2.366 1_455 S
Tb202 O221 2.418 . S
Tb202 O222 2.384 1_556 S
Tb202 O225 2.479 . S
Tb202 O226 2.471 1_455 S
Eu203 O214 2.418 . S
Eu203 O215 2.384 1_554 S
Eu203 O218 2.479 . S
Eu203 O219 2.471 1_655 S
Eu203 O220 2.347 1_655 S
Eu203 O223 2.366 1_655 S
Eu203 C233 2.825 . S
C204 O220 1.259 . S
C204 O221 1.265 1_554 S
C205 O222 1.255 . S
C205 O223 1.265 . S
C206 C208 1.380 . S
C206 C209 1.374 1_455 S
C206 C212 1.507 . S
C207 C208 1.384 . S
C207 C211 1.387 1_455 S
C207 H234 0.930 . S
C208 C206 1.380 . S
C208 C207 1.384 . S
C208 H235 0.931 . S
C209 C206 1.374 1_655 S
C209 C210 1.390 . S
C209 H236 0.930 . S
C210 C209 1.390 . S
C210 C211 1.391 . S
C210 H237 0.930 . S
C211 C207 1.387 1_655 S
C211 C210 1.391 . S
C212 Tb202 2.825 . S
C212 C206 1.507 . S
C212 O225 1.238 . S
C212 O226 1.247 1_455 S
O213 Tb202 2.347 1_655 S
O213 C217 1.259 . S
O214 Eu203 2.418 . S
O214 C217 1.265 1_554 S
O215 Eu203 2.384 1_556 S
O215 C224 1.255 . S
O216 Tb202 2.366 1_655 S
O216 C224 1.265 . S
C217 O213 1.259 . S
C217 O214 1.265 1_556 S
O218 Eu203 2.479 . S
O218 C233 1.238 . S
O219 Eu203 2.471 1_455 S
O219 C233 1.247 1_455 S
O220 Eu203 2.347 1_455 S
O220 C204 1.259 . S
O221 Tb202 2.418 . S
O221 C204 1.265 1_556 S
O222 Tb202 2.384 1_554 S
O222 C205 1.255 . S
O223 Eu203 2.366 1_455 S
O223 C205 1.265 . S
C224 O215 1.255 . S
C224 O216 1.265 . S
O225 Tb202 2.479 . S
O225 C212 1.238 . S
O226 Tb202 2.471 1_655 S
O226 C212 1.247 1_655 S
C227 C230 1.380 . S
C227 C231 1.374 1_655 S
C227 C233 1.507 . S
C228 C229 1.387 1_455 S
C228 C232 1.391 . S
C229 C228 1.387 1_655 S
C229 C230 1.384 . S
C229 H238 0.930 . S
C230 C227 1.380 . S
C230 C229 1.384 . S
C230 H239 0.931 . S
C231 C227 1.374 1_455 S
C231 C232 1.390 . S
C231 H240 0.930 . S
C232 C228 1.391 . S
C232 C231 1.390 . S
C232 H241 0.930 . S
C233 Eu203 2.825 . S
C233 O218 1.238 . S
C233 O219 1.247 1_655 S
C233 C227 1.507 . S
H234 C207 0.930 . S
H235 C208 0.931 . S
H236 C209 0.930 . S
H237 C210 0.930 . S
H238 C229 0.930 . S
H239 C230 0.931 . S
H240 C231 0.930 . S
H241 C232 0.930 . S
Tb242 C252 2.825 . S
Tb242 O253 2.347 . S
Tb242 O256 2.366 . S
Tb242 O261 2.418 . S
Tb242 O262 2.403 . S
Tb242 O265 2.479 . S
Tb242 O266 2.471 . S
Eu243 O254 2.418 . S
Eu243 O255 2.384 1_556 S
Eu243 O258 2.479 . S
Eu243 O259 2.471 . S
Eu243 O260 2.347 . S
Eu243 O263 2.366 . S
Eu243 C273 2.825 . S
C244 O260 1.259 . S
C244 O261 1.265 1_556 S
C245 O262 1.233 1_556 S
C245 O263 1.265 . S
C246 C248 1.380 . S
C246 C249 1.374 . S
C246 C252 1.507 . S
C247 C248 1.384 . S
C247 C251 1.387 . S
C247 H274 0.930 . S
C248 C246 1.380 . S
C248 C247 1.384 . S
C248 H275 0.931 . S
C249 C246 1.374 . S
C249 C250 1.390 . S
C249 H276 0.930 . S
C250 C249 1.390 . S
C250 C251 1.391 . S
C250 H277 0.930 . S
C251 C247 1.387 . S
C251 C250 1.391 . S
C252 Tb242 2.825 . S
C252 C246 1.507 . S
C252 O265 1.238 . S
C252 O266 1.247 . S
O253 Tb242 2.347 . S
O253 C257 1.259 . S
O254 Eu243 2.418 . S
O254 C257 1.265 1_556 S
O255 Eu243 2.384 1_554 S
O255 C264 1.255 . S
O256 Tb242 2.366 . S
O256 C264 1.265 . S
C257 O253 1.259 . S
C257 O254 1.265 1_554 S
O258 Eu243 2.479 . S
O258 C273 1.238 . S
O259 Eu243 2.471 . S
O259 C273 1.247 . S
O260 Eu243 2.347 . S
O260 C244 1.259 . S
O261 Tb242 2.418 . S
O261 C244 1.265 1_554 S
O262 Tb242 2.403 . S
O262 C245 1.233 1_554 S
O263 Eu243 2.366 . S
O263 C245 1.265 . S
C264 O255 1.255 . S
C264 O256 1.265 . S
O265 Tb242 2.479 . S
O265 C252 1.238 . S
O266 Tb242 2.471 . S
O266 C252 1.247 . S
C267 C270 1.380 . S
C267 C271 1.374 . S
C267 C273 1.507 . S
C268 C269 1.387 . S
C268 C272 1.391 . S
C269 C268 1.387 . S
C269 C270 1.384 . S
C269 H278 0.930 . S
C270 C267 1.380 . S
C270 C269 1.384 . S
C270 H279 0.931 . S
C271 C267 1.374 . S
C271 C272 1.390 . S
C271 H280 0.930 . S
C272 C268 1.391 . S
C272 C271 1.390 . S
C272 H281 0.930 . S
C273 Eu243 2.825 . S
C273 O258 1.238 . S
C273 O259 1.247 . S
C273 C267 1.507 . S
H274 C247 0.930 . S
H275 C248 0.931 . S
H276 C249 0.930 . S
H277 C250 0.930 . S
H278 C269 0.930 . S
H279 C270 0.931 . S
H280 C271 0.930 . S
H281 C272 0.930 . S
Tb282 C292 2.825 . S
Tb282 O293 2.347 . S
Tb282 O296 2.366 . S
Tb282 O301 2.418 . S
Tb282 O302 2.384 . S
Tb282 O305 2.479 . S
Tb282 O306 2.471 . S
Eu283 O294 2.418 . S
Eu283 O295 2.384 . S
Eu283 O298 2.479 . S
Eu283 O299 2.471 . S
Eu283 O300 2.347 . S
Eu283 O303 2.366 . S
Eu283 C313 2.825 . S
C284 O300 1.259 . S
C284 O301 1.265 . S
C285 O302 1.255 . S
C285 O303 1.265 . S
C286 C288 1.380 . S
C286 C289 1.374 . S
C286 C292 1.507 . S
C287 C288 1.384 . S
C287 C291 1.387 . S
C287 H314 0.930 . S
C288 C286 1.380 . S
C288 C287 1.384 . S
C288 H315 0.931 . S
C289 C286 1.374 . S
C289 C290 1.390 . S
C289 H316 0.930 . S
C290 C289 1.390 . S
C290 C291 1.391 . S
C290 H317 0.930 . S
C291 C287 1.387 . S
C291 C290 1.391 . S
C292 Tb282 2.825 . S
C292 C286 1.507 . S
C292 O305 1.238 . S
C292 O306 1.247 . S
O293 Tb282 2.347 . S
O293 C297 1.259 . S
O294 Eu283 2.418 . S
O294 C297 1.265 . S
O295 Eu283 2.384 . S
O295 C304 1.255 . S
O296 Tb282 2.366 . S
O296 C304 1.265 . S
C297 O293 1.259 . S
C297 O294 1.265 . S
O298 Eu283 2.479 . S
O298 C313 1.238 . S
O299 Eu283 2.471 . S
O299 C313 1.247 . S
O300 Eu283 2.347 . S
O300 C284 1.259 . S
O301 Tb282 2.418 . S
O301 C284 1.265 . S
O302 Tb282 2.384 . S
O302 C285 1.255 . S
O303 Eu283 2.366 . S
O303 C285 1.265 . S
C304 O295 1.255 . S
C304 O296 1.265 . S
O305 Tb282 2.479 . S
O305 C292 1.238 . S
O306 Tb282 2.471 . S
O306 C292 1.247 . S
C307 C310 1.380 . S
C307 C311 1.374 . S
C307 C313 1.507 . S
C308 C309 1.387 . S
C308 C312 1.391 . S
C309 C308 1.387 . S
C309 C310 1.384 . S
C309 H318 0.930 . S
C310 C307 1.380 . S
C310 C309 1.384 . S
C310 H319 0.931 . S
C311 C307 1.374 . S
C311 C312 1.390 . S
C311 H320 0.930 . S
C312 C308 1.391 . S
C312 C311 1.390 . S
C312 H321 0.930 . S
C313 Eu283 2.825 . S
C313 O298 1.238 . S
C313 O299 1.247 . S
C313 C307 1.507 . S
H314 C287 0.930 . S
H315 C288 0.931 . S
H316 C289 0.930 . S
H317 C290 0.930 . S
H318 C309 0.930 . S
H319 C310 0.931 . S
H320 C311 0.930 . S
H321 C312 0.930 . S
Tb322 C332 2.825 . S
Tb322 O333 2.347 . S
Tb322 O336 2.366 . S
Tb322 O341 2.418 . S
Tb322 O342 2.384 . S
Tb322 O345 2.479 . S
Tb322 O346 2.471 . S
Eu323 O334 2.418 . S
Eu323 O335 2.384 . S
Eu323 O338 2.479 . S
Eu323 O339 2.471 . S
Eu323 O340 2.347 . S
Eu323 O343 2.366 . S
Eu323 C353 2.825 . S
C324 O340 1.259 . S
C324 O341 1.265 . S
C325 O342 1.255 . S
C325 O343 1.265 . S
C326 C328 1.380 . S
C326 C329 1.374 . S
C326 C332 1.507 . S
C327 C328 1.384 . S
C327 C331 1.387 . S
C327 H354 0.930 . S
C328 C326 1.380 . S
C328 C327 1.384 . S
C328 H355 0.931 . S
C329 C326 1.374 . S
C329 C330 1.390 . S
C329 H356 0.930 . S
C330 C329 1.390 . S
C330 C331 1.391 . S
C330 H357 0.930 . S
C331 C327 1.387 . S
C331 C330 1.391 . S
C332 Tb322 2.825 . S
C332 C326 1.507 . S
C332 O345 1.238 . S
C332 O346 1.247 . S
O333 Tb322 2.347 . S
O333 C337 1.259 . S
O334 Eu323 2.418 . S
O334 C337 1.265 . S
O335 Eu323 2.384 . S
O335 C344 1.255 . S
O336 Tb322 2.366 . S
O336 C344 1.265 . S
C337 O333 1.259 . S
C337 O334 1.265 . S
O338 Eu323 2.479 . S
O338 C353 1.238 . S
O339 Eu323 2.471 . S
O339 C353 1.247 . S
O340 Eu323 2.347 . S
O340 C324 1.259 . S
O341 Tb322 2.418 . S
O341 C324 1.265 . S
O342 Tb322 2.384 . S
O342 C325 1.255 . S
O343 Eu323 2.366 . S
O343 C325 1.265 . S
C344 O335 1.255 . S
C344 O336 1.265 . S
O345 Tb322 2.479 . S
O345 C332 1.238 . S
O346 Tb322 2.471 . S
O346 C332 1.247 . S
C347 C350 1.380 . S
C347 C351 1.374 . S
C347 C353 1.507 . S
C348 C349 1.387 . S
C348 C352 1.391 . S
C349 C348 1.387 . S
C349 C350 1.384 . S
C349 H358 0.930 . S
C350 C347 1.380 . S
C350 C349 1.384 . S
C350 H359 0.931 . S
C351 C347 1.374 . S
C351 C352 1.390 . S
C351 H360 0.930 . S
C352 C348 1.391 . S
C352 C351 1.390 . S
C352 H361 0.930 . S
C353 Eu323 2.825 . S
C353 O338 1.238 . S
C353 O339 1.247 . S
C353 C347 1.507 . S
H354 C327 0.930 . S
H355 C328 0.931 . S
H356 C329 0.930 . S
H357 C330 0.930 . S
H358 C349 0.930 . S
H359 C350 0.931 . S
H360 C351 0.930 . S
H361 C352 0.930 . S
Tb362 C372 2.825 . S
Tb362 O373 2.347 . S
Tb362 O376 2.366 . S
Tb362 O381 2.418 . S
Tb362 O382 2.384 . S
Tb362 O385 2.479 . S
Tb362 O386 2.471 . S
Eu363 O374 2.418 . S
Eu363 O375 2.384 . S
Eu363 O378 2.479 . S
Eu363 O379 2.471 . S
Eu363 O380 2.347 . S
Eu363 O383 2.366 . S
Eu363 C393 2.825 . S
C364 O380 1.259 . S
C364 O381 1.265 . S
C365 O382 1.255 . S
C365 O383 1.265 . S
C366 C368 1.380 . S
C366 C369 1.374 . S
C366 C372 1.507 . S
C367 C368 1.384 . S
C367 C371 1.387 . S
C367 H394 0.930 . S
C368 C366 1.380 . S
C368 C367 1.384 . S
C368 H395 0.931 . S
C369 C366 1.374 . S
C369 C370 1.390 . S
C369 H396 0.930 . S
C370 C369 1.390 . S
C370 C371 1.391 . S
C370 H397 0.930 . S
C371 C367 1.387 . S
C371 C370 1.391 . S
C372 Tb362 2.825 . S
C372 C366 1.507 . S
C372 O385 1.238 . S
C372 O386 1.247 . S
O373 Tb362 2.347 . S
O373 C377 1.259 . S
O374 Eu363 2.418 . S
O374 C377 1.265 . S
O375 Eu363 2.384 . S
O375 C384 1.255 . S
O376 Tb362 2.366 . S
O376 C384 1.265 . S
C377 O373 1.259 . S
C377 O374 1.265 . S
O378 Eu363 2.479 . S
O378 C393 1.238 . S
O379 Eu363 2.471 . S
O379 C393 1.247 . S
O380 Eu363 2.347 . S
O380 C364 1.259 . S
O381 Tb362 2.418 . S
O381 C364 1.265 . S
O382 Tb362 2.384 . S
O382 C365 1.255 . S
O383 Eu363 2.366 . S
O383 C365 1.265 . S
C384 O375 1.255 . S
C384 O376 1.265 . S
O385 Tb362 2.479 . S
O385 C372 1.238 . S
O386 Tb362 2.471 . S
O386 C372 1.247 . S
C387 C390 1.380 . S
C387 C391 1.374 . S
C387 C393 1.507 . S
C388 C389 1.387 . S
C388 C392 1.391 . S
C389 C388 1.387 . S
C389 C390 1.384 . S
C389 H398 0.930 . S
C390 C387 1.380 . S
C390 C389 1.384 . S
C390 H399 0.931 . S
C391 C387 1.374 . S
C391 C392 1.390 . S
C391 H400 0.930 . S
C392 C388 1.391 . S
C392 C391 1.390 . S
C392 H401 0.930 . S
C393 Eu363 2.825 . S
C393 O378 1.238 . S
C393 O379 1.247 . S
C393 C387 1.507 . S
H394 C367 0.930 . S
H395 C368 0.931 . S
H396 C369 0.930 . S
H397 C370 0.930 . S
H398 C389 0.930 . S
H399 C390 0.931 . S
H400 C391 0.930 . S
H401 C392 0.930 . S
Tb402 C412 2.825 . S
Tb402 O413 2.347 . S
Tb402 O416 2.366 . S
Tb402 O421 2.418 . S
Tb402 O422 2.384 . S
Tb402 O425 2.479 . S
Tb402 O426 2.471 . S
Eu403 O414 2.418 . S
Eu403 O415 2.384 . S
Eu403 O418 2.479 . S
Eu403 O419 2.471 . S
Eu403 O420 2.347 . S
Eu403 O423 2.366 . S
Eu403 C433 2.825 . S
C404 O420 1.259 . S
C404 O421 1.265 . S
C405 O422 1.255 . S
C405 O423 1.265 . S
C406 C408 1.380 . S
C406 C409 1.374 . S
C406 C412 1.507 . S
C407 C408 1.384 . S
C407 C411 1.387 . S
C407 H434 0.930 . S
C408 C406 1.380 . S
C408 C407 1.384 . S
C408 H435 0.931 . S
C409 C406 1.374 . S
C409 C410 1.390 . S
C409 H436 0.930 . S
C410 C409 1.390 . S
C410 C411 1.391 . S
C410 H437 0.930 . S
C411 C407 1.387 . S
C411 C410 1.391 . S
C412 Tb402 2.825 . S
C412 C406 1.507 . S
C412 O425 1.238 . S
C412 O426 1.247 . S
O413 Tb402 2.347 . S
O413 C417 1.259 . S
O414 Eu403 2.418 . S
O414 C417 1.265 . S
O415 Eu403 2.384 . S
O415 C424 1.255 . S
O416 Tb402 2.366 . S
O416 C424 1.265 . S
C417 O413 1.259 . S
C417 O414 1.265 . S
O418 Eu403 2.479 . S
O418 C433 1.238 . S
O419 Eu403 2.471 . S
O419 C433 1.247 . S
O420 Eu403 2.347 . S
O420 C404 1.259 . S
O421 Tb402 2.418 . S
O421 C404 1.265 . S
O422 Tb402 2.384 . S
O422 C405 1.255 . S
O423 Eu403 2.366 . S
O423 C405 1.265 . S
C424 O415 1.255 . S
C424 O416 1.265 . S
O425 Tb402 2.479 . S
O425 C412 1.238 . S
O426 Tb402 2.471 . S
O426 C412 1.247 . S
C427 C430 1.380 . S
C427 C431 1.374 . S
C427 C433 1.507 . S
C428 C429 1.387 . S
C428 C432 1.391 . S
C429 C428 1.387 . S
C429 C430 1.384 . S
C429 H438 0.930 . S
C430 C427 1.380 . S
C430 C429 1.384 . S
C430 H439 0.931 . S
C431 C427 1.374 . S
C431 C432 1.390 . S
C431 H440 0.930 . S
C432 C428 1.391 . S
C432 C431 1.390 . S
C432 H441 0.930 . S
C433 Eu403 2.825 . S
C433 O418 1.238 . S
C433 O419 1.247 . S
C433 C427 1.507 . S
H434 C407 0.930 . S
H435 C408 0.931 . S
H436 C409 0.930 . S
H437 C410 0.930 . S
H438 C429 0.930 . S
H439 C430 0.931 . S
H440 C431 0.930 . S
H441 C432 0.930 . S
Tb442 C452 2.825 . S
Tb442 O453 2.347 . S
Tb442 O456 2.366 . S
Tb442 O461 2.418 . S
Tb442 O462 2.384 . S
Tb442 O465 2.479 . S
Tb442 O466 2.471 . S
Eu443 O454 2.418 . S
Eu443 O455 2.384 . S
Eu443 O458 2.479 . S
Eu443 O459 2.471 . S
Eu443 O460 2.347 . S
Eu443 O463 2.366 . S
Eu443 C473 2.825 . S
C444 O460 1.259 . S
C444 O461 1.265 . S
C445 O462 1.255 . S
C445 O463 1.265 . S
C446 C448 1.380 . S
C446 C449 1.374 . S
C446 C452 1.507 . S
C447 C448 1.384 . S
C447 C451 1.387 . S
C447 H474 0.930 . S
C448 C446 1.380 . S
C448 C447 1.384 . S
C448 H475 0.931 . S
C449 C446 1.374 . S
C449 C450 1.390 . S
C449 H476 0.930 . S
C450 C449 1.390 . S
C450 C451 1.391 . S
C450 H477 0.930 . S
C451 C447 1.387 . S
C451 C450 1.391 . S
C452 Tb442 2.825 . S
C452 C446 1.507 . S
C452 O465 1.238 . S
C452 O466 1.247 . S
O453 Tb442 2.347 . S
O453 C457 1.259 . S
O454 Eu443 2.418 . S
O454 C457 1.265 . S
O455 Eu443 2.384 . S
O455 C464 1.255 . S
O456 Tb442 2.366 . S
O456 C464 1.265 . S
C457 O453 1.259 . S
C457 O454 1.265 . S
O458 Eu443 2.479 . S
O458 C473 1.238 . S
O459 Eu443 2.471 . S
O459 C473 1.247 . S
O460 Eu443 2.347 . S
O460 C444 1.259 . S
O461 Tb442 2.418 . S
O461 C444 1.265 . S
O462 Tb442 2.384 . S
O462 C445 1.255 . S
O463 Eu443 2.366 . S
O463 C445 1.265 . S
C464 O455 1.255 . S
C464 O456 1.265 . S
O465 Tb442 2.479 . S
O465 C452 1.238 . S
O466 Tb442 2.471 . S
O466 C452 1.247 . S
C467 C470 1.380 . S
C467 C471 1.374 . S
C467 C473 1.507 . S
C468 C469 1.387 . S
C468 C472 1.391 . S
C469 C468 1.387 . S
C469 C470 1.384 . S
C469 H478 0.930 . S
C470 C467 1.380 . S
C470 C469 1.384 . S
C470 H479 0.931 . S
C471 C467 1.374 . S
C471 C472 1.390 . S
C471 H480 0.930 . S
C472 C468 1.391 . S
C472 C471 1.390 . S
C472 H481 0.930 . S
C473 Eu443 2.825 . S
C473 O458 1.238 . S
C473 O459 1.247 . S
C473 C467 1.507 . S
H474 C447 0.930 . S
H475 C448 0.931 . S
H476 C449 0.930 . S
H477 C450 0.930 . S
H478 C469 0.930 . S
H479 C470 0.931 . S
H480 C471 0.930 . S
H481 C472 0.930 . S
Tb482 C492 2.825 . S
Tb482 O493 2.347 . S
Tb482 O496 2.366 . S
Tb482 O501 2.418 . S
Tb482 O502 2.384 . S
Tb482 O505 2.479 . S
Tb482 O506 2.471 . S
Eu483 O494 2.418 . S
Eu483 O495 2.384 . S
Eu483 O498 2.479 . S
Eu483 O499 2.471 . S
Eu483 O500 2.347 . S
Eu483 O503 2.366 . S
Eu483 C513 2.825 . S
C484 O500 1.259 . S
C484 O501 1.265 . S
C485 O502 1.255 . S
C485 O503 1.265 . S
C486 C488 1.380 . S
C486 C489 1.374 . S
C486 C492 1.507 . S
C487 C488 1.384 . S
C487 C491 1.387 . S
C487 H514 0.930 . S
C488 C486 1.380 . S
C488 C487 1.384 . S
C488 H515 0.931 . S
C489 C486 1.374 . S
C489 C490 1.390 . S
C489 H516 0.930 . S
C490 C489 1.390 . S
C490 C491 1.391 . S
C490 H517 0.930 . S
C491 C487 1.387 . S
C491 C490 1.391 . S
C492 Tb482 2.825 . S
C492 C486 1.507 . S
C492 O505 1.238 . S
C492 O506 1.247 . S
O493 Tb482 2.347 . S
O493 C497 1.259 . S
O494 Eu483 2.418 . S
O494 C497 1.265 . S
O495 Eu483 2.384 . S
O495 C504 1.255 . S
O496 Tb482 2.366 . S
O496 C504 1.265 . S
C497 O493 1.259 . S
C497 O494 1.265 . S
O498 Eu483 2.479 . S
O498 C513 1.238 . S
O499 Eu483 2.471 . S
O499 C513 1.247 . S
O500 Eu483 2.347 . S
O500 C484 1.259 . S
O501 Tb482 2.418 . S
O501 C484 1.265 . S
O502 Tb482 2.384 . S
O502 C485 1.255 . S
O503 Eu483 2.366 . S
O503 C485 1.265 . S
C504 O495 1.255 . S
C504 O496 1.265 . S
O505 Tb482 2.479 . S
O505 C492 1.238 . S
O506 Tb482 2.471 . S
O506 C492 1.247 . S
C507 C510 1.380 . S
C507 C511 1.374 . S
C507 C513 1.507 . S
C508 C509 1.387 . S
C508 C512 1.391 . S
C509 C508 1.387 . S
C509 C510 1.384 . S
C509 H518 0.930 . S
C510 C507 1.380 . S
C510 C509 1.384 . S
C510 H519 0.931 . S
C511 C507 1.374 . S
C511 C512 1.390 . S
C511 H520 0.930 . S
C512 C508 1.391 . S
C512 C511 1.390 . S
C512 H521 0.930 . S
C513 Eu483 2.825 . S
C513 O498 1.238 . S
C513 O499 1.247 . S
C513 C507 1.507 . S
H514 C487 0.930 . S
H515 C488 0.931 . S
H516 C489 0.930 . S
H517 C490 0.930 . S
H518 C509 0.930 . S
H519 C510 0.931 . S
H520 C511 0.930 . S
H521 C512 0.930 . S
H522 C534 0.930 . S
H523 C536 0.930 . S
H524 C537 0.930 . S
H525 C541 0.959 . S
H526 C541 0.959 . S
H527 C541 0.961 . S
H528 C542 0.960 . S
H529 C542 0.961 . S
H530 C542 0.959 . S
H531 C545 0.929 . S
H532 C546 0.931 . S
H533 C548 0.930 . S
C534 H522 0.930 . S
C534 C535 1.399 . S
C534 C539 1.399 . S
C535 C534 1.399 . S
C535 C536 1.376 . S
C536 H523 0.930 . S
C536 C535 1.376 . S
C536 C537 1.388 . S
C537 H524 0.930 . S
C537 C536 1.388 . S
C537 C538 1.390 . S
C538 C537 1.390 . S
C538 C539 1.394 . S
C538 C544 1.465 . S
C539 C534 1.399 . S
C539 C538 1.394 . S
C539 C540 1.516 . S
C540 C539 1.516 . S
C540 C541 1.502 . S
C540 C542 1.561 . S
C540 C543 1.526 . S
C541 H525 0.959 . S
C541 H526 0.959 . S
C541 H527 0.961 . S
C541 C540 1.502 . S
C542 H528 0.960 . S
C542 H529 0.961 . S
C542 H530 0.959 . S
C542 C540 1.561 . S
C543 C540 1.526 . S
C543 C544 1.396 . S
C543 C548 1.390 . S
C544 C538 1.465 . S
C544 C543 1.396 . S
C544 C545 1.399 . S
C545 H531 0.929 . S
C545 C544 1.399 . S
C545 C546 1.385 . S
C546 H532 0.931 . S
C546 C545 1.385 . S
C546 C547 1.389 . S
C547 C546 1.389 . S
C547 C548 1.387 . S
C548 H533 0.930 . S
C548 C543 1.390 . S
C548 C547 1.387 . S
H549 C561 0.930 . S
H550 C563 0.930 . S
H551 C564 0.930 . S
H552 C568 0.959 . S
H553 C568 0.959 . S
H554 C568 0.961 . S
H555 C569 0.960 . S
H556 C569 0.961 . S
H557 C569 0.959 . S
H558 C572 0.929 . S
H559 C573 0.931 . S
H560 C575 0.930 . S
C561 H549 0.930 . S
C561 C562 1.399 . S
C561 C566 1.399 . S
C562 C561 1.399 . S
C562 C563 1.376 . S
C563 H550 0.930 . S
C563 C562 1.376 . S
C563 C564 1.388 . S
C564 H551 0.930 . S
C564 C563 1.388 . S
C564 C565 1.390 . S
C565 C564 1.390 . S
C565 C566 1.394 . S
C565 C571 1.465 . S
C566 C561 1.399 . S
C566 C565 1.394 . S
C566 C567 1.516 . S
C567 C566 1.516 . S
C567 C568 1.502 . S
C567 C569 1.561 . S
C567 C570 1.526 . S
C568 H552 0.959 . S
C568 H553 0.959 . S
C568 H554 0.961 . S
C568 C567 1.502 . S
C569 H555 0.960 . S
C569 H556 0.961 . S
C569 H557 0.959 . S
C569 C567 1.561 . S
C570 C567 1.526 . S
C570 C571 1.396 . S
C570 C575 1.390 . S
C571 C565 1.465 . S
C571 C570 1.396 . S
C571 C572 1.399 . S
C572 H558 0.929 . S
C572 C571 1.399 . S
C572 C573 1.385 . S
C573 H559 0.931 . S
C573 C572 1.385 . S
C573 C574 1.389 . S
C574 C573 1.389 . S
C574 C575 1.387 . S
C575 H560 0.930 . S
C575 C570 1.390 . S
C575 C574 1.387 . S
H576 C588 0.930 . S
H577 C590 0.930 . S
H578 C591 0.930 . S
H579 C595 0.959 . S
H580 C595 0.959 . S
H581 C595 0.961 . S
H582 C596 0.960 1_556 S
H583 C596 0.961 1_556 S
H584 C596 0.959 . S
H585 C599 0.929 . S
H586 C600 0.931 . S
H587 C602 0.930 1_556 S
C588 H576 0.930 . S
C588 C589 1.399 . S
C588 C593 1.399 . S
C589 C588 1.399 . S
C589 C590 1.376 . S
C590 H577 0.930 . S
C590 C589 1.376 . S
C590 C591 1.388 . S
C591 H578 0.930 . S
C591 C590 1.388 . S
C591 C592 1.390 . S
C592 C591 1.390 . S
C592 C593 1.394 . S
C592 C598 1.465 . S
C593 C588 1.399 . S
C593 C592 1.394 . S
C593 C594 1.516 . S
C594 C593 1.516 . S
C594 C595 1.502 1_554 S
C594 C596 1.561 . S
C594 C597 1.526 . S
C595 H579 0.959 . S
C595 H580 0.959 . S
C595 H581 0.961 . S
C595 C594 1.502 1_556 S
C596 H582 0.960 1_554 S
C596 H583 0.961 1_554 S
C596 H584 0.959 . S
C596 C594 1.561 . S
C597 C594 1.526 . S
C597 C598 1.396 . S
C597 C602 1.390 . S
C598 C592 1.465 . S
C598 C597 1.396 . S
C598 C599 1.399 . S
C599 H585 0.929 . S
C599 C598 1.399 . S
C599 C600 1.385 . S
C600 H586 0.931 . S
C600 C599 1.385 . S
C600 C601 1.389 . S
C601 C600 1.389 . S
C601 C602 1.387 . S
C602 H587 0.930 1_554 S
C602 C597 1.390 . S
C602 C601 1.387 . S
H603 C615 0.930 . S
H604 C617 0.930 . S
H605 C618 0.930 . S
H606 C622 0.959 . S
H607 C622 0.959 . S
H608 C622 0.961 . S
H609 C623 0.960 . S
H610 C623 0.961 . S
H611 C623 0.959 . S
H612 C626 0.929 1_554 S
H613 C627 0.951 . S
H614 C629 0.930 . S
C615 H603 0.930 . S
C615 C616 1.399 . S
C615 C620 1.399 . S
C616 C615 1.399 . S
C616 C617 1.376 . S
C617 H604 0.930 . S
C617 C616 1.376 . S
C617 C618 1.388 . S
C618 H605 0.930 . S
C618 C617 1.388 . S
C618 C619 1.390 . S
C619 C618 1.390 . S
C619 C620 1.394 . S
C619 C625 1.465 . S
C620 C615 1.399 . S
C620 C619 1.394 . S
C620 C621 1.516 . S
C621 C620 1.516 . S
C621 C622 1.502 . S
C621 C623 1.561 . S
C621 C624 1.526 . S
C622 H606 0.959 . S
C622 H607 0.959 . S
C622 H608 0.961 . S
C622 C621 1.502 . S
C623 H609 0.960 . S
C623 H610 0.961 . S
C623 H611 0.959 . S
C623 C621 1.561 . S
C624 C621 1.526 . S
C624 C625 1.396 . S
C624 C629 1.390 . S
C625 C619 1.465 . S
C625 C624 1.396 . S
C625 C626 1.399 . S
C626 H612 0.929 1_556 S
C626 C625 1.399 . S
C626 C627 1.385 1_556 S
C627 H613 0.951 . S
C627 C626 1.385 1_554 S
C627 C628 1.370 1_554 S
C628 C627 1.370 1_556 S
C628 C629 1.387 . S
C629 H614 0.930 . S
C629 C624 1.390 . S
C629 C628 1.387 . S
H630 C642 0.930 . S
H631 C644 0.930 . S
H632 C645 0.930 . S
H633 C649 0.959 . S
H634 C649 0.959 . S
H635 C649 0.961 . S
H636 C650 0.960 . S
H637 C650 0.961 . S
H638 C650 0.959 . S
H639 C653 0.929 . S
H640 C654 0.931 . S
H641 C656 0.930 . S
C642 H630 0.930 . S
C642 C643 1.399 . S
C642 C647 1.399 . S
C643 C642 1.399 . S
C643 C644 1.376 . S
C644 H631 0.930 . S
C644 C643 1.376 . S
C644 C645 1.388 . S
C645 H632 0.930 . S
C645 C644 1.388 . S
C645 C646 1.390 . S
C646 C645 1.390 . S
C646 C647 1.394 . S
C646 C652 1.465 . S
C647 C642 1.399 . S
C647 C646 1.394 . S
C647 C648 1.516 . S
C648 C647 1.516 . S
C648 C649 1.502 . S
C648 C650 1.561 . S
C648 C651 1.526 . S
C649 H633 0.959 . S
C649 H634 0.959 . S
C649 H635 0.961 . S
C649 C648 1.502 . S
C650 H636 0.960 . S
C650 H637 0.961 . S
C650 H638 0.959 . S
C650 C648 1.561 . S
C651 C648 1.526 . S
C651 C652 1.396 . S
C651 C656 1.390 . S
C652 C646 1.465 . S
C652 C651 1.396 . S
C652 C653 1.399 . S
C653 H639 0.929 . S
C653 C652 1.399 . S
C653 C654 1.385 . S
C654 H640 0.931 . S
C654 C653 1.385 . S
C654 C655 1.389 . S
C655 C654 1.389 . S
C655 C656 1.387 . S
C656 H641 0.930 . S
C656 C651 1.390 . S
C656 C655 1.387 . S
H657 C669 0.930 . S
H658 C671 0.930 . S
H659 C672 0.930 . S
H660 C676 0.959 . S
H661 C676 0.959 . S
H662 C676 0.961 . S
H663 C677 0.960 . S
H664 C677 0.961 . S
H665 C677 0.959 . S
H666 C680 0.929 . S
H667 C681 0.931 1_554 S
H668 C683 0.930 . S
C669 H657 0.930 . S
C669 C670 1.399 . S
C669 C674 1.399 . S
C670 C669 1.399 . S
C670 C671 1.376 . S
C671 H658 0.930 . S
C671 C670 1.376 . S
C671 C672 1.388 . S
C672 H659 0.930 . S
C672 C671 1.388 . S
C672 C673 1.390 . S
C673 C672 1.390 . S
C673 C674 1.394 . S
C673 C679 1.465 . S
C674 C669 1.399 . S
C674 C673 1.394 . S
C674 C675 1.516 . S
C675 C674 1.516 . S
C675 C676 1.502 . S
C675 C677 1.561 . S
C675 C678 1.526 . S
C676 H660 0.959 . S
C676 H661 0.959 . S
C676 H662 0.961 . S
C676 C675 1.502 . S
C677 H663 0.960 . S
C677 H664 0.961 . S
C677 H665 0.959 . S
C677 C675 1.561 . S
C678 C675 1.526 . S
C678 C679 1.396 . S
C678 C683 1.390 . S
C679 C673 1.465 . S
C679 C678 1.396 . S
C679 C680 1.399 . S
C680 H666 0.929 . S
C680 C679 1.399 . S
C680 C681 1.385 . S
C681 H667 0.931 1_556 S
C681 C680 1.385 . S
C681 C682 1.389 . S
C682 C681 1.389 . S
C682 C683 1.387 . S
C683 H668 0.930 . S
C683 C678 1.390 . S
C683 C682 1.387 . S
H684 C696 0.930 . S
H685 C698 0.930 . S
H686 C699 0.930 . S
H687 C703 0.957 1_556 S
H688 C703 0.998 . S
H689 C703 0.965 . S
H690 C704 0.960 . S
H691 C704 0.961 . S
H692 C704 0.959 . S
H693 C707 0.929 . S
H694 C708 0.931 . S
H695 C710 0.970 . S
C696 H684 0.930 . S
C696 C697 1.399 . S
C696 C701 1.399 . S
C697 C696 1.399 . S
C697 C698 1.376 . S
C698 H685 0.930 . S
C698 C697 1.376 . S
C698 C699 1.388 . S
C699 H686 0.930 . S
C699 C698 1.388 . S
C699 C700 1.390 . S
C700 C699 1.390 . S
C700 C701 1.394 . S
C700 C706 1.465 . S
C701 C696 1.399 . S
C701 C700 1.394 . S
C701 C702 1.516 . S
C702 C701 1.516 . S
C702 C703 1.463 1_556 S
C702 C704 1.561 . S
C702 C705 1.526 . S
C703 H687 0.957 1_554 S
C703 H688 0.998 . S
C703 H689 0.965 . S
C703 C702 1.463 1_554 S
C704 H690 0.960 . S
C704 H691 0.961 . S
C704 H692 0.959 . S
C704 C702 1.561 . S
C705 C702 1.526 . S
C705 C706 1.396 . S
C705 C710 1.390 . S
C706 C700 1.465 . S
C706 C705 1.396 . S
C706 C707 1.399 . S
C707 H693 0.929 . S
C707 C706 1.399 . S
C707 C708 1.385 . S
C708 H694 0.931 . S
C708 C707 1.385 . S
C708 C709 1.389 . S
C709 C708 1.389 . S
C709 C710 1.387 . S
C710 H695 0.970 . S
C710 C705 1.390 . S
C710 C709 1.387 . S
H711 C723 0.930 . S
H712 C725 0.930 . S
H713 C726 0.930 . S
H714 C730 0.959 . S
H715 C730 0.959 . S
H716 C730 0.961 . S
H717 C731 0.960 . S
H718 C731 0.961 . S
H719 C731 0.959 . S
H720 C734 0.929 . S
H721 C735 0.931 . S
H722 C737 0.930 . S
C723 H711 0.930 . S
C723 C724 1.399 . S
C723 C728 1.399 . S
C724 C723 1.399 . S
C724 C725 1.376 . S
C725 H712 0.930 . S
C725 C724 1.376 . S
C725 C726 1.388 . S
C726 H713 0.930 . S
C726 C725 1.388 . S
C726 C727 1.390 . S
C727 C726 1.390 . S
C727 C728 1.394 . S
C727 C733 1.465 . S
C728 C723 1.399 . S
C728 C727 1.394 . S
C728 C729 1.516 . S
C729 C728 1.516 . S
C729 C730 1.502 . S
C729 C731 1.561 . S
C729 C732 1.526 . S
C730 H714 0.959 . S
C730 H715 0.959 . S
C730 H716 0.961 . S
C730 C729 1.502 . S
C731 H717 0.960 . S
C731 H718 0.961 . S
C731 H719 0.959 . S
C731 C729 1.561 . S
C732 C729 1.526 . S
C732 C733 1.396 . S
C732 C737 1.390 . S
C733 C727 1.465 . S
C733 C732 1.396 . S
C733 C734 1.399 . S
C734 H720 0.929 . S
C734 C733 1.399 . S
C734 C735 1.385 . S
C735 H721 0.931 . S
C735 C734 1.385 . S
C735 C736 1.389 . S
C736 C735 1.389 . S
C736 C737 1.387 . S
C737 H722 0.930 . S
C737 C732 1.390 . S
C737 C736 1.387 . S
H738 C750 0.930 . S
H739 C752 0.930 . S
H740 C753 0.930 . S
H741 C757 0.959 . S
H742 C757 0.959 . S
H743 C757 0.961 . S
H744 C758 0.960 . S
H745 C758 0.961 . S
H746 C758 0.959 . S
H747 C761 0.917 1_554 S
H748 C762 0.931 . S
H749 C764 0.930 . S
C750 H738 0.930 . S
C750 C751 1.399 . S
C750 C755 1.399 . S
C751 C750 1.399 . S
C751 C752 1.376 . S
C752 H739 0.930 . S
C752 C751 1.376 . S
C752 C753 1.388 . S
C753 H740 0.930 . S
C753 C752 1.388 . S
C753 C754 1.390 . S
C754 C753 1.390 . S
C754 C755 1.394 . S
C754 C760 1.465 . S
C755 C750 1.399 . S
C755 C754 1.394 . S
C755 C756 1.516 . S
C756 C755 1.516 . S
C756 C757 1.502 . S
C756 C758 1.561 . S
C756 C759 1.526 . S
C757 H741 0.959 . S
C757 H742 0.959 . S
C757 H743 0.961 . S
C757 C756 1.502 . S
C758 H744 0.960 . S
C758 H745 0.961 . S
C758 H746 0.959 . S
C758 C756 1.561 . S
C759 C756 1.526 . S
C759 C760 1.396 . S
C759 C764 1.390 . S
C760 C754 1.465 . S
C760 C759 1.396 . S
C760 C761 1.411 . S
C761 H747 0.917 1_556 S
C761 C760 1.411 . S
C761 C762 1.385 1_556 S
C762 H748 0.931 . S
C762 C761 1.385 1_554 S
C762 C763 1.389 1_554 S
C763 C762 1.389 1_556 S
C763 C764 1.387 . S
C764 H749 0.930 . S
C764 C759 1.390 . S
C764 C763 1.387 . S
H765 C777 0.930 . S
H766 C779 0.930 . S
H767 C780 0.930 . S
H768 C784 0.959 . S
H769 C784 0.959 . S
H770 C784 0.961 . S
H771 C785 0.960 . S
H772 C785 0.961 . S
H773 C785 0.959 . S
H774 C788 0.929 1_556 S
H775 C789 0.931 1_556 S
H776 C791 0.930 . S
C777 H765 0.930 . S
C777 C778 1.399 . S
C777 C782 1.399 . S
C778 C777 1.399 . S
C778 C779 1.376 . S
C779 H766 0.930 . S
C779 C778 1.376 . S
C779 C780 1.388 . S
C780 H767 0.930 . S
C780 C779 1.388 . S
C780 C781 1.390 . S
C781 C780 1.390 . S
C781 C782 1.394 . S
C781 C787 1.465 . S
C782 C777 1.399 . S
C782 C781 1.394 . S
C782 C783 1.516 . S
C783 C782 1.516 . S
C783 C784 1.502 . S
C783 C785 1.561 . S
C783 C786 1.526 . S
C784 H768 0.959 . S
C784 H769 0.959 . S
C784 H770 0.961 . S
C784 C783 1.502 . S
C785 H771 0.960 . S
C785 H772 0.961 . S
C785 H773 0.959 . S
C785 C783 1.561 . S
C786 C783 1.526 . S
C786 C787 1.396 . S
C786 C791 1.390 . S
C787 C781 1.465 . S
C787 C786 1.396 . S
C787 C788 1.399 . S
C788 H774 0.929 1_554 S
C788 C787 1.399 . S
C788 C789 1.385 . S
C789 H775 0.931 1_554 S
C789 C788 1.385 . S
C789 C790 1.389 . S
C790 C789 1.389 . S
C790 C791 1.387 . S
C791 H776 0.930 . S
C791 C786 1.390 . S
C791 C790 1.387 . S
H792 C804 0.930 . S
H793 C806 0.930 . S
H794 C807 0.930 . S
H795 C811 0.959 . S
H796 C811 0.959 . S
H797 C811 0.961 . S
H798 C812 0.960 . S
H799 C812 0.961 . S
H800 C812 0.959 . S
H801 C815 0.929 . S
H802 C816 0.931 . S
H803 C818 0.930 . S
C804 H792 0.930 . S
C804 C805 1.399 . S
C804 C809 1.399 . S
C805 C804 1.399 . S
C805 C806 1.376 . S
C806 H793 0.930 . S
C806 C805 1.376 . S
C806 C807 1.388 . S
C807 H794 0.930 . S
C807 C806 1.388 . S
C807 C808 1.390 . S
C808 C807 1.390 . S
C808 C809 1.394 . S
C808 C814 1.465 . S
C809 C804 1.399 . S
C809 C808 1.394 . S
C809 C810 1.516 . S
C810 C809 1.516 . S
C810 C811 1.502 . S
C810 C812 1.561 . S
C810 C813 1.526 . S
C811 H795 0.959 . S
C811 H796 0.959 . S
C811 H797 0.961 . S
C811 C810 1.502 . S
C812 H798 0.960 . S
C812 H799 0.961 . S
C812 H800 0.959 . S
C812 C810 1.561 . S
C813 C810 1.526 . S
C813 C814 1.396 . S
C813 C818 1.390 . S
C814 C808 1.465 . S
C814 C813 1.396 . S
C814 C815 1.399 . S
C815 H801 0.929 . S
C815 C814 1.399 . S
C815 C816 1.385 . S
C816 H802 0.931 . S
C816 C815 1.385 . S
C816 C817 1.389 . S
C817 C816 1.389 . S
C817 C818 1.387 . S
C818 H803 0.930 . S
C818 C813 1.390 . S
C818 C817 1.387 . S
H819 C831 0.930 . S
H820 C833 0.930 . S
H821 C834 0.930 . S
H822 C838 0.959 . S
H823 C838 0.959 . S
H824 C838 0.961 . S
H825 C839 0.960 . S
H826 C839 0.961 . S
H827 C839 0.959 . S
H828 C842 0.929 . S
H829 C843 0.931 . S
H830 C845 0.930 . S
C831 H819 0.930 . S
C831 C832 1.399 . S
C831 C836 1.399 . S
C832 C831 1.399 . S
C832 C833 1.376 . S
C833 H820 0.930 . S
C833 C832 1.376 . S
C833 C834 1.388 . S
C834 H821 0.930 . S
C834 C833 1.388 . S
C834 C835 1.390 . S
C835 C834 1.390 . S
C835 C836 1.394 . S
C835 C841 1.465 . S
C836 C831 1.399 . S
C836 C835 1.394 . S
C836 C837 1.516 . S
C837 C836 1.516 . S
C837 C838 1.502 . S
C837 C839 1.561 . S
C837 C840 1.526 . S
C838 H822 0.959 . S
C838 H823 0.959 . S
C838 H824 0.961 . S
C838 C837 1.502 . S
C839 H825 0.960 . S
C839 H826 0.961 . S
C839 H827 0.959 . S
C839 C837 1.561 . S
C840 C837 1.526 . S
C840 C841 1.396 . S
C840 C845 1.390 . S
C841 C835 1.465 . S
C841 C840 1.396 . S
C841 C842 1.399 . S
C842 H828 0.929 . S
C842 C841 1.399 . S
C842 C843 1.385 . S
C843 H829 0.931 . S
C843 C842 1.385 . S
C843 C844 1.389 . S
C844 C843 1.389 . S
C844 C845 1.387 . S
C845 H830 0.930 . S
C845 C840 1.390 . S
C845 C844 1.387 . S
H846 C858 0.930 . S
H847 C860 0.930 . S
H848 C861 0.930 . S
H849 C865 0.959 1_455 S
H850 C865 0.959 1_455 S
H851 C865 0.961 . S
H852 C866 0.960 . S
H853 C866 0.961 . S
H854 C866 0.959 . S
H855 C869 0.929 . S
H856 C870 0.931 . S
H857 C872 0.930 . S
C858 H846 0.930 . S
C858 C859 1.399 . S
C858 C863 1.399 . S
C859 C858 1.399 . S
C859 C860 1.376 . S
C860 H847 0.930 . S
C860 C859 1.376 . S
C860 C861 1.388 . S
C861 H848 0.930 . S
C861 C860 1.388 . S
C861 C862 1.390 . S
C862 C861 1.390 . S
C862 C863 1.394 . S
C862 C868 1.465 1_655 S
C863 C858 1.399 . S
C863 C862 1.394 . S
C863 C864 1.516 . S
C864 C863 1.516 . S
C864 C865 1.502 . S
C864 C866 1.561 . S
C864 C867 1.526 1_655 S
C865 H849 0.959 1_655 S
C865 H850 0.959 1_655 S
C865 H851 0.961 . S
C865 C864 1.502 . S
C866 H852 0.960 . S
C866 H853 0.961 . S
C866 H854 0.959 . S
C866 C864 1.561 . S
C867 C864 1.526 1_455 S
C867 C868 1.396 . S
C867 C872 1.390 . S
C868 C862 1.465 1_455 S
C868 C867 1.396 . S
C868 C869 1.399 . S
C869 H855 0.929 . S
C869 C868 1.399 . S
C869 C870 1.385 . S
C870 H856 0.931 . S
C870 C869 1.385 . S
C870 C871 1.389 . S
C871 C870 1.389 . S
C871 C872 1.387 . S
C872 H857 0.930 . S
C872 C867 1.390 . S
C872 C871 1.387 . S
H873 C885 0.930 . S
H874 C887 0.930 . S
H875 C888 0.930 . S
H876 C892 0.959 . S
H877 C892 0.959 . S
H878 C892 0.961 . S
H879 C893 0.960 . S
H880 C893 0.961 . S
H881 C893 0.959 . S
H882 C896 0.929 . S
H883 C897 0.931 . S
H884 C899 0.930 . S
C885 H873 0.930 . S
C885 C886 1.399 . S
C885 C890 1.399 . S
C886 C885 1.399 . S
C886 C887 1.376 . S
C887 H874 0.930 . S
C887 C886 1.376 . S
C887 C888 1.388 . S
C888 H875 0.930 . S
C888 C887 1.388 . S
C888 C889 1.390 . S
C889 C888 1.390 . S
C889 C890 1.394 . S
C889 C895 1.465 . S
C890 C885 1.399 . S
C890 C889 1.394 . S
C890 C891 1.516 . S
C891 C890 1.516 . S
C891 C892 1.502 . S
C891 C893 1.561 . S
C891 C894 1.526 . S
C892 H876 0.959 . S
C892 H877 0.959 . S
C892 H878 0.961 . S
C892 C891 1.502 . S
C893 H879 0.960 . S
C893 H880 0.961 . S
C893 H881 0.959 . S
C893 C891 1.561 . S
C894 C891 1.526 . S
C894 C895 1.396 . S
C894 C899 1.390 . S
C895 C889 1.465 . S
C895 C894 1.396 . S
C895 C896 1.399 . S
C896 H882 0.929 . S
C896 C895 1.399 . S
C896 C897 1.385 . S
C897 H883 0.931 . S
C897 C896 1.385 . S
C897 C898 1.389 . S
C898 C897 1.389 . S
C898 C899 1.387 . S
C899 H884 0.930 . S
C899 C894 1.390 . S
C899 C898 1.387 . S
H900 C912 0.930 . S
H901 C914 0.930 . S
H902 C915 0.930 . S
H903 C919 0.959 . S
H904 C919 0.959 1_565 S
H905 C919 0.961 . S
H906 C920 0.983 . S
H907 C920 0.922 1_565 S
H908 C920 0.976 1_565 S
H909 C923 0.929 . S
H910 C924 0.931 . S
H911 C926 0.930 . S
C912 H900 0.930 . S
C912 C913 1.399 . S
C912 C917 1.399 . S
C913 C912 1.399 . S
C913 C914 1.376 . S
C914 H901 0.930 . S
C914 C913 1.376 . S
C914 C915 1.388 . S
C915 H902 0.930 . S
C915 C914 1.388 . S
C915 C916 1.390 . S
C916 C915 1.390 . S
C916 C917 1.394 . S
C916 C922 1.465 1_545 S
C917 C912 1.399 . S
C917 C916 1.394 . S
C917 C918 1.516 . S
C918 C917 1.516 . S
C918 C919 1.502 . S
C918 C920 1.562 . S
C918 C921 1.526 1_545 S
C919 H903 0.959 . S
C919 H904 0.959 1_545 S
C919 H905 0.961 . S
C919 C918 1.502 . S
C920 H906 0.983 . S
C920 H907 0.922 1_545 S
C920 H908 0.976 1_545 S
C920 C918 1.562 . S
C921 C918 1.526 1_565 S
C921 C922 1.396 . S
C921 C926 1.390 . S
C922 C916 1.465 1_565 S
C922 C921 1.396 . S
C922 C923 1.399 . S
C923 H909 0.929 . S
C923 C922 1.399 . S
C923 C924 1.385 . S
C924 H910 0.931 . S
C924 C923 1.385 . S
C924 C925 1.389 . S
C925 C924 1.389 . S
C925 C926 1.387 . S
C926 H911 0.930 . S
C926 C921 1.390 . S
C926 C925 1.387 . S
H927 C939 0.930 . S
H928 C941 0.930 . S
H929 C942 0.930 . S
H930 C946 0.959 . S
H931 C946 0.959 . S
H932 C946 0.961 . S
H933 C947 0.960 . S
H934 C947 0.961 . S
H935 C947 0.959 . S
H936 C950 0.929 . S
H937 C951 0.931 . S
H938 C953 0.930 . S
C939 H927 0.930 . S
C939 C940 1.399 . S
C939 C944 1.399 . S
C940 C939 1.399 . S
C940 C941 1.376 . S
C941 H928 0.930 . S
C941 C940 1.376 . S
C941 C942 1.388 . S
C942 H929 0.930 . S
C942 C941 1.388 . S
C942 C943 1.390 . S
C943 C942 1.390 . S
C943 C944 1.394 . S
C943 C949 1.465 . S
C944 C939 1.399 . S
C944 C943 1.394 . S
C944 C945 1.516 . S
C945 C944 1.516 . S
C945 C946 1.502 . S
C945 C947 1.561 . S
C945 C948 1.526 . S
C946 H930 0.959 . S
C946 H931 0.959 . S
C946 H932 0.961 . S
C946 C945 1.502 . S
C947 H933 0.960 . S
C947 H934 0.961 . S
C947 H935 0.959 . S
C947 C945 1.561 . S
C948 C945 1.526 . S
C948 C949 1.396 . S
C948 C953 1.390 . S
C949 C943 1.465 . S
C949 C948 1.396 . S
C949 C950 1.399 . S
C950 H936 0.929 . S
C950 C949 1.399 . S
C950 C951 1.385 . S
C951 H937 0.931 . S
C951 C950 1.385 . S
C951 C952 1.389 . S
C952 C951 1.389 . S
C952 C953 1.387 . S
C953 H938 0.930 . S
C953 C948 1.390 . S
C953 C952 1.387 . S
H954 C966 0.930 . S
H955 C968 0.930 . S
H956 C969 0.930 . S
H957 C973 0.959 . S
H958 C973 0.959 . S
H959 C973 0.961 . S
H960 C974 0.960 . S
H961 C974 0.961 . S
H962 C974 0.959 . S
H963 C977 0.929 . S
H964 C978 0.931 . S
H965 C980 0.930 . S
C966 H954 0.930 . S
C966 C967 1.399 . S
C966 C971 1.399 . S
C967 C966 1.399 . S
C967 C968 1.376 . S
C968 H955 0.930 . S
C968 C967 1.376 . S
C968 C969 1.388 . S
C969 H956 0.930 . S
C969 C968 1.388 . S
C969 C970 1.390 . S
C970 C969 1.390 . S
C970 C971 1.394 . S
C970 C976 1.465 . S
C971 C966 1.399 . S
C971 C970 1.394 . S
C971 C972 1.516 . S
C972 C971 1.516 . S
C972 C973 1.502 . S
C972 C974 1.561 . S
C972 C975 1.526 . S
C973 H957 0.959 . S
C973 H958 0.959 . S
C973 H959 0.961 . S
C973 C972 1.502 . S
C974 H960 0.960 . S
C974 H961 0.961 . S
C974 H962 0.959 . S
C974 C972 1.561 . S
C975 C972 1.526 . S
C975 C976 1.396 . S
C975 C980 1.390 . S
C976 C970 1.465 . S
C976 C975 1.396 . S
C976 C977 1.399 . S
C977 H963 0.929 . S
C977 C976 1.399 . S
C977 C978 1.385 . S
C978 H964 0.931 . S
C978 C977 1.385 . S
C978 C979 1.389 . S
C979 C978 1.389 . S
C979 C980 1.387 . S
C980 H965 0.930 . S
C980 C975 1.390 . S
C980 C979 1.387 . S
H981 C993 0.930 . S
H982 C995 0.930 . S
H983 C996 0.930 . S
H984 C1000 0.959 . S
H985 C1000 0.959 . S
H986 C1000 0.961 . S
H987 C1001 0.960 . S
H988 C1001 0.961 . S
H989 C1001 0.959 . S
H990 C1004 0.929 . S
H991 C1005 0.931 . S
H992 C1007 0.930 . S
C993 H981 0.930 . S
C993 C994 1.399 . S
C993 C998 1.399 . S
C994 C993 1.399 . S
C994 C995 1.376 . S
C995 H982 0.930 . S
C995 C994 1.376 . S
C995 C996 1.388 . S
C996 H983 0.930 . S
C996 C995 1.388 . S
C996 C997 1.390 . S
C997 C996 1.390 . S
C997 C998 1.394 . S
C997 C1003 1.465 . S
C998 C993 1.399 . S
C998 C997 1.394 . S
C998 C999 1.516 . S
C999 C998 1.516 . S
C999 C1000 1.502 . S
C999 C1001 1.561 . S
C999 C1002 1.526 . S
C1000 H984 0.959 . S
C1000 H985 0.959 . S
C1000 H986 0.961 . S
C1000 C999 1.502 . S
C1001 H987 0.960 . S
C1001 H988 0.961 . S
C1001 H989 0.959 . S
C1001 C999 1.561 . S
C1002 C999 1.526 . S
C1002 C1003 1.396 . S
C1002 C1007 1.390 . S
C1003 C997 1.465 . S
C1003 C1002 1.396 . S
C1003 C1004 1.399 . S
C1004 H990 0.929 . S
C1004 C1003 1.399 . S
C1004 C1005 1.385 . S
C1005 H991 0.931 . S
C1005 C1004 1.385 . S
C1005 C1006 1.389 . S
C1006 C1005 1.389 . S
C1006 C1007 1.387 . S
C1007 H992 0.930 . S
C1007 C1002 1.390 . S
C1007 C1006 1.387 . S
H1008 C1020 0.930 . S
H1009 C1022 0.930 . S
H1010 C1023 0.930 . S
H1011 C1027 0.959 . S
H1012 C1027 0.959 . S
H1013 C1027 0.961 . S
H1014 C1028 0.960 . S
H1015 C1028 0.961 . S
H1016 C1028 0.959 . S
H1017 C1031 0.929 . S
H1018 C1032 0.931 . S
H1019 C1034 0.930 . S
C1020 H1008 0.930 . S
C1020 C1021 1.399 . S
C1020 C1025 1.399 . S
C1021 C1020 1.399 . S
C1021 C1022 1.376 . S
C1022 H1009 0.930 . S
C1022 C1021 1.376 . S
C1022 C1023 1.388 . S
C1023 H1010 0.930 . S
C1023 C1022 1.388 . S
C1023 C1024 1.390 . S
C1024 C1023 1.390 . S
C1024 C1025 1.394 . S
C1024 C1030 1.465 . S
C1025 C1020 1.399 . S
C1025 C1024 1.394 . S
C1025 C1026 1.516 . S
C1026 C1025 1.516 . S
C1026 C1027 1.502 . S
C1026 C1028 1.561 . S
C1026 C1029 1.526 . S
C1027 H1011 0.959 . S
C1027 H1012 0.959 . S
C1027 H1013 0.961 . S
C1027 C1026 1.502 . S
C1028 H1014 0.960 . S
C1028 H1015 0.961 . S
C1028 H1016 0.959 . S
C1028 C1026 1.561 . S
C1029 C1026 1.526 . S
C1029 C1030 1.396 . S
C1029 C1034 1.390 . S
C1030 C1024 1.465 . S
C1030 C1029 1.396 . S
C1030 C1031 1.399 . S
C1031 H1017 0.929 . S
C1031 C1030 1.399 . S
C1031 C1032 1.385 . S
C1032 H1018 0.931 . S
C1032 C1031 1.385 . S
C1032 C1033 1.389 . S
C1033 C1032 1.389 . S
C1033 C1034 1.387 . S
C1034 H1019 0.930 . S
C1034 C1029 1.390 . S
C1034 C1033 1.387 . S
H1035 C1047 0.930 . S
H1036 C1049 0.930 . S
H1037 C1050 0.930 . S
H1038 C1054 0.959 . S
H1039 C1054 0.959 . S
H1040 C1054 0.961 . S
H1041 C1055 0.960 . S
H1042 C1055 0.961 . S
H1043 C1055 0.959 . S
H1044 C1058 0.929 . S
H1045 C1059 0.931 . S
H1046 C1061 0.930 . S
C1047 H1035 0.930 . S
C1047 C1048 1.399 . S
C1047 C1052 1.399 . S
C1048 C1047 1.399 . S
C1048 C1049 1.376 . S
C1049 H1036 0.930 . S
C1049 C1048 1.376 . S
C1049 C1050 1.388 . S
C1050 H1037 0.930 . S
C1050 C1049 1.388 . S
C1050 C1051 1.390 . S
C1051 C1050 1.390 . S
C1051 C1052 1.394 . S
C1051 C1057 1.465 . S
C1052 C1047 1.399 . S
C1052 C1051 1.394 . S
C1052 C1053 1.516 . S
C1053 C1052 1.516 . S
C1053 C1054 1.502 . S
C1053 C1055 1.561 . S
C1053 C1056 1.526 . S
C1054 H1038 0.959 . S
C1054 H1039 0.959 . S
C1054 H1040 0.961 . S
C1054 C1053 1.502 . S
C1055 H1041 0.960 . S
C1055 H1042 0.961 . S
C1055 H1043 0.959 . S
C1055 C1053 1.561 . S
C1056 C1053 1.526 . S
C1056 C1057 1.396 . S
C1056 C1061 1.390 . S
C1057 C1051 1.465 . S
C1057 C1056 1.396 . S
C1057 C1058 1.399 . S
C1058 H1044 0.929 . S
C1058 C1057 1.399 . S
C1058 C1059 1.385 . S
C1059 H1045 0.931 . S
C1059 C1058 1.385 . S
C1059 C1060 1.389 . S
C1060 C1059 1.389 . S
C1060 C1061 1.387 . S
C1061 H1046 0.930 . S
C1061 C1056 1.390 . S
C1061 C1060 1.387 . S
H1062 C1074 0.930 . S
H1063 C1076 0.930 . S
H1064 C1077 0.930 . S
H1065 C1081 0.959 . S
H1066 C1081 0.959 . S
H1067 C1081 0.961 . S
H1068 C1082 0.960 . S
H1069 C1082 0.961 . S
H1070 C1082 0.959 . S
H1071 C1085 0.929 . S
H1072 C1086 0.931 . S
H1073 C1088 0.930 . S
C1074 H1062 0.930 . S
C1074 C1075 1.399 . S
C1074 C1079 1.399 . S
C1075 C1074 1.399 . S
C1075 C1076 1.376 . S
C1076 H1063 0.930 . S
C1076 C1075 1.376 . S
C1076 C1077 1.388 . S
C1077 H1064 0.930 . S
C1077 C1076 1.388 . S
C1077 C1078 1.390 . S
C1078 C1077 1.390 . S
C1078 C1079 1.394 . S
C1078 C1084 1.465 . S
C1079 C1074 1.399 . S
C1079 C1078 1.394 . S
C1079 C1080 1.516 . S
C1080 C1079 1.516 . S
C1080 C1081 1.502 . S
C1080 C1082 1.561 . S
C1080 C1083 1.526 . S
C1081 H1065 0.959 . S
C1081 H1066 0.959 . S
C1081 H1067 0.961 . S
C1081 C1080 1.502 . S
C1082 H1068 0.960 . S
C1082 H1069 0.961 . S
C1082 H1070 0.959 . S
C1082 C1080 1.561 . S
C1083 C1080 1.526 . S
C1083 C1084 1.396 . S
C1083 C1088 1.390 . S
C1084 C1078 1.465 . S
C1084 C1083 1.396 . S
C1084 C1085 1.399 . S
C1085 H1071 0.929 . S
C1085 C1084 1.399 . S
C1085 C1086 1.385 . S
C1086 H1072 0.931 . S
C1086 C1085 1.385 . S
C1086 C1087 1.389 . S
C1087 C1086 1.389 . S
C1087 C1088 1.387 . S
C1088 H1073 0.930 . S
C1088 C1083 1.390 . S
C1088 C1087 1.387 . S
H1089 C1101 0.930 . S
H1090 C1103 0.930 . S
H1091 C1104 0.930 . S
H1092 C1108 0.959 . S
H1093 C1108 0.959 . S
H1094 C1108 0.961 . S
H1095 C1109 0.960 . S
H1096 C1109 0.961 . S
H1097 C1109 0.959 . S
H1098 C1112 0.929 . S
H1099 C1113 0.931 . S
H1100 C1115 0.930 . S
C1101 H1089 0.930 . S
C1101 C1102 1.399 . S
C1101 C1106 1.399 . S
C1102 C1101 1.399 . S
C1102 C1103 1.376 . S
C1103 H1090 0.930 . S
C1103 C1102 1.376 . S
C1103 C1104 1.388 . S
C1104 H1091 0.930 . S
C1104 C1103 1.388 . S
C1104 C1105 1.390 . S
C1105 C1104 1.390 . S
C1105 C1106 1.394 . S
C1105 C1111 1.465 1_545 S
C1106 C1101 1.399 . S
C1106 C1105 1.394 . S
C1106 C1107 1.516 . S
C1107 C1106 1.516 . S
C1107 C1108 1.502 . S
C1107 C1109 1.561 . S
C1107 C1110 1.526 1_545 S
C1108 H1092 0.959 . S
C1108 H1093 0.959 . S
C1108 H1094 0.961 . S
C1108 C1107 1.502 . S
C1109 H1095 0.960 . S
C1109 H1096 0.961 . S
C1109 H1097 0.959 . S
C1109 C1107 1.561 . S
C1110 C1107 1.526 1_565 S
C1110 C1111 1.396 . S
C1110 C1115 1.390 . S
C1111 C1105 1.465 1_565 S
C1111 C1110 1.396 . S
C1111 C1112 1.399 . S
C1112 H1098 0.929 . S
C1112 C1111 1.399 . S
C1112 C1113 1.385 . S
C1113 H1099 0.931 . S
C1113 C1112 1.385 . S
C1113 C1114 1.389 . S
C1114 C1113 1.389 . S
C1114 C1115 1.387 . S
C1115 H1100 0.930 . S
C1115 C1110 1.390 . S
C1115 C1114 1.387 . S
H1116 C1128 0.930 . S
H1117 C1130 0.930 . S
H1118 C1131 0.930 . S
H1119 C1135 0.959 . S
H1120 C1135 0.959 . S
H1121 C1135 0.961 . S
H1122 C1136 0.960 . S
H1123 C1136 0.961 1_455 S
H1124 C1136 0.959 . S
H1125 C1139 0.929 . S
H1126 C1140 0.931 . S
H1127 C1142 0.930 . S
C1128 H1116 0.930 . S
C1128 C1129 1.399 . S
C1128 C1133 1.399 . S
C1129 C1128 1.399 . S
C1129 C1130 1.376 . S
C1130 H1117 0.930 . S
C1130 C1129 1.376 . S
C1130 C1131 1.388 . S
C1131 H1118 0.930 . S
C1131 C1130 1.388 . S
C1131 C1132 1.390 . S
C1132 C1131 1.390 . S
C1132 C1133 1.394 . S
C1132 C1138 1.465 1_655 S
C1133 C1128 1.399 . S
C1133 C1132 1.394 . S
C1133 C1134 1.516 1_655 S
C1134 C1133 1.516 1_455 S
C1134 C1135 1.502 . S
C1134 C1136 1.561 1_455 S
C1134 C1137 1.526 . S
C1135 H1119 0.959 . S
C1135 H1120 0.959 . S
C1135 H1121 0.961 . S
C1135 C1134 1.502 . S
C1136 H1122 0.960 . S
C1136 H1123 0.961 1_655 S
C1136 H1124 0.959 . S
C1136 C1134 1.561 1_655 S
C1137 C1134 1.526 . S
C1137 C1138 1.396 . S
C1137 C1142 1.390 . S
C1138 C1132 1.465 1_455 S
C1138 C1137 1.396 . S
C1138 C1139 1.399 . S
C1139 H1125 0.929 . S
C1139 C1138 1.399 . S
C1139 C1140 1.385 . S
C1140 H1126 0.931 . S
C1140 C1139 1.385 . S
C1140 C1141 1.389 . S
C1141 C1140 1.389 . S
C1141 C1142 1.387 . S
C1142 H1127 0.930 . S
C1142 C1137 1.390 . S
C1142 C1141 1.387 . S
H1143 C1155 0.930 . S
H1144 C1157 0.930 . S
H1145 C1158 0.930 . S
H1146 C1162 0.959 . S
H1147 C1162 0.959 . S
H1148 C1162 0.961 . S
H1149 C1163 0.960 . S
H1150 C1163 0.961 . S
H1151 C1163 0.959 . S
H1152 C1166 0.929 . S
H1153 C1167 0.931 . S
H1154 C1169 0.930 . S
C1155 H1143 0.930 . S
C1155 C1156 1.399 . S
C1155 C1160 1.399 . S
C1156 C1155 1.399 . S
C1156 C1157 1.376 . S
C1157 H1144 0.930 . S
C1157 C1156 1.376 . S
C1157 C1158 1.388 . S
C1158 H1145 0.930 . S
C1158 C1157 1.388 . S
C1158 C1159 1.390 . S
C1159 C1158 1.390 . S
C1159 C1160 1.394 . S
C1159 C1165 1.465 . S
C1160 C1155 1.399 . S
C1160 C1159 1.394 . S
C1160 C1161 1.516 . S
C1161 C1160 1.516 . S
C1161 C1162 1.502 . S
C1161 C1163 1.561 . S
C1161 C1164 1.526 . S
C1162 H1146 0.959 . S
C1162 H1147 0.959 . S
C1162 H1148 0.961 . S
C1162 C1161 1.502 . S
C1163 H1149 0.960 . S
C1163 H1150 0.961 . S
C1163 H1151 0.959 . S
C1163 C1161 1.561 . S
C1164 C1161 1.526 . S
C1164 C1165 1.396 . S
C1164 C1169 1.390 . S
C1165 C1159 1.465 . S
C1165 C1164 1.396 . S
C1165 C1166 1.399 . S
C1166 H1152 0.929 . S
C1166 C1165 1.399 . S
C1166 C1167 1.385 . S
C1167 H1153 0.931 . S
C1167 C1166 1.385 . S
C1167 C1168 1.389 . S
C1168 C1167 1.389 . S
C1168 C1169 1.387 . S
C1169 H1154 0.930 . S
C1169 C1164 1.390 . S
C1169 C1168 1.387 . S
H1170 C1182 0.930 . S
H1171 C1184 0.930 . S
H1172 C1185 0.930 . S
H1173 C1189 0.959 . S
H1174 C1189 0.959 . S
H1175 C1189 0.961 . S
H1176 C1190 0.960 . S
H1177 C1190 0.961 . S
H1178 C1190 0.959 . S
H1179 C1193 0.929 . S
H1180 C1194 0.931 . S
H1181 C1196 0.930 . S
C1182 H1170 0.930 . S
C1182 C1183 1.399 . S
C1182 C1187 1.399 . S
C1183 C1182 1.399 . S
C1183 C1184 1.376 . S
C1184 H1171 0.930 . S
C1184 C1183 1.376 . S
C1184 C1185 1.388 . S
C1185 H1172 0.930 . S
C1185 C1184 1.388 . S
C1185 C1186 1.390 . S
C1186 C1185 1.390 . S
C1186 C1187 1.394 . S
C1186 C1192 1.465 . S
C1187 C1182 1.399 . S
C1187 C1186 1.394 . S
C1187 C1188 1.516 . S
C1188 C1187 1.516 . S
C1188 C1189 1.502 . S
C1188 C1190 1.561 . S
C1188 C1191 1.526 . S
C1189 H1173 0.959 . S
C1189 H1174 0.959 . S
C1189 H1175 0.961 . S
C1189 C1188 1.502 . S
C1190 H1176 0.960 . S
C1190 H1177 0.961 . S
C1190 H1178 0.959 . S
C1190 C1188 1.561 . S
C1191 C1188 1.526 . S
C1191 C1192 1.396 . S
C1191 C1196 1.390 . S
C1192 C1186 1.465 . S
C1192 C1191 1.396 . S
C1192 C1193 1.399 . S
C1193 H1179 0.929 . S
C1193 C1192 1.399 . S
C1193 C1194 1.385 . S
C1194 H1180 0.931 . S
C1194 C1193 1.385 . S
C1194 C1195 1.389 . S
C1195 C1194 1.389 . S
C1195 C1196 1.387 . S
C1196 H1181 0.930 . S
C1196 C1191 1.390 . S
C1196 C1195 1.387 . S
H1197 C1209 0.930 . S
H1198 C1211 0.930 . S
H1199 C1212 0.930 . S
H1200 C1216 0.959 . S
H1201 C1216 0.959 . S
H1202 C1216 0.961 . S
H1203 C1217 0.960 . S
H1204 C1217 0.961 . S
H1205 C1217 0.959 . S
H1206 C1220 0.929 . S
H1207 C1221 0.931 . S
H1208 C1223 0.930 . S
C1209 H1197 0.930 . S
C1209 C1210 1.399 . S
C1209 C1214 1.399 . S
C1210 C1209 1.399 . S
C1210 C1211 1.376 . S
C1211 H1198 0.930 . S
C1211 C1210 1.376 . S
C1211 C1212 1.388 . S
C1212 H1199 0.930 . S
C1212 C1211 1.388 . S
C1212 C1213 1.390 . S
C1213 C1212 1.390 . S
C1213 C1214 1.394 . S
C1213 C1219 1.465 . S
C1214 C1209 1.399 . S
C1214 C1213 1.394 . S
C1214 C1215 1.516 . S
C1215 C1214 1.516 . S
C1215 C1216 1.502 . S
C1215 C1217 1.561 . S
C1215 C1218 1.526 . S
C1216 H1200 0.959 . S
C1216 H1201 0.959 . S
C1216 H1202 0.961 . S
C1216 C1215 1.502 . S
C1217 H1203 0.960 . S
C1217 H1204 0.961 . S
C1217 H1205 0.959 . S
C1217 C1215 1.561 . S
C1218 C1215 1.526 . S
C1218 C1219 1.396 . S
C1218 C1223 1.390 . S
C1219 C1213 1.465 . S
C1219 C1218 1.396 . S
C1219 C1220 1.399 . S
C1220 H1206 0.929 . S
C1220 C1219 1.399 . S
C1220 C1221 1.385 . S
C1221 H1207 0.931 . S
C1221 C1220 1.385 . S
C1221 C1222 1.389 . S
C1222 C1221 1.389 . S
C1222 C1223 1.387 . S
C1223 H1208 0.930 . S
C1223 C1218 1.390 . S
C1223 C1222 1.387 . S
H1224 C1236 0.930 . S
H1225 C1238 0.930 . S
H1226 C1239 0.930 . S
H1227 C1243 0.959 . S
H1228 C1243 0.959 . S
H1229 C1243 0.961 . S
H1230 C1244 0.960 . S
H1231 C1244 0.961 . S
H1232 C1244 0.959 . S
H1233 C1247 0.929 . S
H1234 C1248 0.931 . S
H1235 C1250 0.930 . S
C1236 H1224 0.930 . S
C1236 C1237 1.399 . S
C1236 C1241 1.399 . S
C1237 C1236 1.399 . S
C1237 C1238 1.376 . S
C1238 H1225 0.930 . S
C1238 C1237 1.376 . S
C1238 C1239 1.388 . S
C1239 H1226 0.930 . S
C1239 C1238 1.388 . S
C1239 C1240 1.390 . S
C1240 C1239 1.390 . S
C1240 C1241 1.394 . S
C1240 C1246 1.465 . S
C1241 C1236 1.399 . S
C1241 C1240 1.394 . S
C1241 C1242 1.516 . S
C1242 C1241 1.516 . S
C1242 C1243 1.502 . S
C1242 C1244 1.561 . S
C1242 C1245 1.526 . S
C1243 H1227 0.959 . S
C1243 H1228 0.959 . S
C1243 H1229 0.961 . S
C1243 C1242 1.502 . S
C1244 H1230 0.960 . S
C1244 H1231 0.961 . S
C1244 H1232 0.959 . S
C1244 C1242 1.561 . S
C1245 C1242 1.526 . S
C1245 C1246 1.396 . S
C1245 C1250 1.390 . S
C1246 C1240 1.465 . S
C1246 C1245 1.396 . S
C1246 C1247 1.399 . S
C1247 H1233 0.929 . S
C1247 C1246 1.399 . S
C1247 C1248 1.385 . S
C1248 H1234 0.931 . S
C1248 C1247 1.385 . S
C1248 C1249 1.389 . S
C1249 C1248 1.389 . S
C1249 C1250 1.387 . S
C1250 H1235 0.930 . S
C1250 C1245 1.390 . S
C1250 C1249 1.387 . S
H1251 C1263 0.930 . S
H1252 C1265 0.930 . S
H1253 C1266 0.930 . S
H1254 C1270 0.959 . S
H1255 C1270 0.959 . S
H1256 C1270 0.961 . S
H1257 C1271 0.960 . S
H1258 C1271 0.961 . S
H1259 C1271 0.959 . S
H1260 C1274 0.929 . S
H1261 C1275 0.931 . S
H1262 C1277 0.930 . S
C1263 H1251 0.930 . S
C1263 C1264 1.399 . S
C1263 C1268 1.399 . S
C1264 C1263 1.399 . S
C1264 C1265 1.376 . S
C1265 H1252 0.930 . S
C1265 C1264 1.376 . S
C1265 C1266 1.388 . S
C1266 H1253 0.930 . S
C1266 C1265 1.388 . S
C1266 C1267 1.390 . S
C1267 C1266 1.390 . S
C1267 C1268 1.394 . S
C1267 C1273 1.465 1_565 S
C1268 C1263 1.399 . S
C1268 C1267 1.394 . S
C1268 C1269 1.516 . S
C1269 C1268 1.516 . S
C1269 C1270 1.502 . S
C1269 C1271 1.561 . S
C1269 C1272 1.526 1_565 S
C1270 H1254 0.959 . S
C1270 H1255 0.959 . S
C1270 H1256 0.961 . S
C1270 C1269 1.502 . S
C1271 H1257 0.960 . S
C1271 H1258 0.961 . S
C1271 H1259 0.959 . S
C1271 C1269 1.561 . S
C1272 C1269 1.526 1_545 S
C1272 C1273 1.396 . S
C1272 C1277 1.390 . S
C1273 C1267 1.465 1_545 S
C1273 C1272 1.396 . S
C1273 C1274 1.399 . S
C1274 H1260 0.929 . S
C1274 C1273 1.399 . S
C1274 C1275 1.385 . S
C1275 H1261 0.931 . S
C1275 C1274 1.385 . S
C1275 C1276 1.389 . S
C1276 C1275 1.389 . S
C1276 C1277 1.387 . S
C1277 H1262 0.930 . S
C1277 C1272 1.390 . S
C1277 C1276 1.387 . S
H1278 C1290 0.930 . S
H1279 C1292 0.930 . S
H1280 C1293 0.930 1_655 S
H1281 C1297 0.959 . S
H1282 C1297 0.959 . S
H1283 C1297 0.961 . S
H1284 C1298 0.960 . S
H1285 C1298 0.961 . S
H1286 C1298 0.959 . S
H1287 C1301 0.929 . S
H1288 C1302 0.931 . S
H1289 C1304 0.930 . S
C1290 H1278 0.930 . S
C1290 C1291 1.399 . S
C1290 C1295 1.399 . S
C1291 C1290 1.399 . S
C1291 C1292 1.376 . S
C1292 H1279 0.930 . S
C1292 C1291 1.376 . S
C1292 C1293 1.388 . S
C1293 H1280 0.930 1_455 S
C1293 C1292 1.388 . S
C1293 C1294 1.390 1_455 S
C1294 C1293 1.390 1_655 S
C1294 C1295 1.394 1_655 S
C1294 C1300 1.465 . S
C1295 C1290 1.399 . S
C1295 C1294 1.394 1_455 S
C1295 C1296 1.516 . S
C1296 C1295 1.516 . S
C1296 C1297 1.502 . S
C1296 C1298 1.561 . S
C1296 C1299 1.526 1_455 S
C1297 H1281 0.959 . S
C1297 H1282 0.959 . S
C1297 H1283 0.961 . S
C1297 C1296 1.502 . S
C1298 H1284 0.960 . S
C1298 H1285 0.961 . S
C1298 H1286 0.959 . S
C1298 C1296 1.561 . S
C1299 C1296 1.526 1_655 S
C1299 C1300 1.396 . S
C1299 C1304 1.390 . S
C1300 C1294 1.465 . S
C1300 C1299 1.396 . S
C1300 C1301 1.399 . S
C1301 H1287 0.929 . S
C1301 C1300 1.399 . S
C1301 C1302 1.385 . S
C1302 H1288 0.931 . S
C1302 C1301 1.385 . S
C1302 C1303 1.389 . S
C1303 C1302 1.389 . S
C1303 C1304 1.387 . S
C1304 H1289 0.930 . S
C1304 C1299 1.390 . S
C1304 C1303 1.387 . S
H1305 C1317 0.930 . S
H1306 C1319 0.930 . S
H1307 C1320 0.930 . S
H1308 C1324 0.959 . S
H1309 C1324 0.959 . S
H1310 C1324 0.961 . S
H1311 C1325 0.960 . S
H1312 C1325 0.961 . S
H1313 C1325 0.959 . S
H1314 C1328 0.929 . S
H1315 C1329 0.931 . S
H1316 C1331 0.930 . S
C1317 H1305 0.930 . S
C1317 C1318 1.399 . S
C1317 C1322 1.399 . S
C1318 C1317 1.399 . S
C1318 C1319 1.376 . S
C1319 H1306 0.930 . S
C1319 C1318 1.376 . S
C1319 C1320 1.388 . S
C1320 H1307 0.930 . S
C1320 C1319 1.388 . S
C1320 C1321 1.390 . S
C1321 C1320 1.390 . S
C1321 C1322 1.394 . S
C1321 C1327 1.465 . S
C1322 C1317 1.399 . S
C1322 C1321 1.394 . S
C1322 C1323 1.516 . S
C1323 C1322 1.516 . S
C1323 C1324 1.502 . S
C1323 C1325 1.561 . S
C1323 C1326 1.526 . S
C1324 H1308 0.959 . S
C1324 H1309 0.959 . S
C1324 H1310 0.961 . S
C1324 C1323 1.502 . S
C1325 H1311 0.960 . S
C1325 H1312 0.961 . S
C1325 H1313 0.959 . S
C1325 C1323 1.561 . S
C1326 C1323 1.526 . S
C1326 C1327 1.396 . S
C1326 C1331 1.390 . S
C1327 C1321 1.465 . S
C1327 C1326 1.396 . S
C1327 C1328 1.399 . S
C1328 H1314 0.929 . S
C1328 C1327 1.399 . S
C1328 C1329 1.385 . S
C1329 H1315 0.931 . S
C1329 C1328 1.385 . S
C1329 C1330 1.389 . S
C1330 C1329 1.389 . S
C1330 C1331 1.387 . S
C1331 H1316 0.930 . S
C1331 C1326 1.390 . S
C1331 C1330 1.387 . S
H1332 C1344 0.930 . S
H1333 C1346 0.930 . S
H1334 C1347 0.930 . S
H1335 C1351 0.959 . S
H1336 C1351 0.959 . S
H1337 C1351 0.961 1_455 S
H1338 C1352 0.960 . S
H1339 C1352 0.956 1_655 S
H1340 C1352 0.959 . S
H1341 C1355 0.929 . S
H1342 C1356 0.931 . S
H1343 C1358 0.930 . S
C1344 H1332 0.930 . S
C1344 C1345 1.399 . S
C1344 C1349 1.399 . S
C1345 C1344 1.399 . S
C1345 C1346 1.376 . S
C1346 H1333 0.930 . S
C1346 C1345 1.376 . S
C1346 C1347 1.388 . S
C1347 H1334 0.930 . S
C1347 C1346 1.388 . S
C1347 C1348 1.390 . S
C1348 C1347 1.390 . S
C1348 C1349 1.394 . S
C1348 C1354 1.465 1_455 S
C1349 C1344 1.399 . S
C1349 C1348 1.394 . S
C1349 C1350 1.516 . S
C1350 C1349 1.516 . S
C1350 C1351 1.502 1_455 S
C1350 C1352 1.561 . S
C1350 C1353 1.526 1_455 S
C1351 H1335 0.959 . S
C1351 H1336 0.959 . S
C1351 H1337 0.961 1_655 S
C1351 C1350 1.502 1_655 S
C1352 H1338 0.960 . S
C1352 H1339 0.956 1_455 S
C1352 H1340 0.959 . S
C1352 C1350 1.561 . S
C1353 C1350 1.526 1_655 S
C1353 C1354 1.396 . S
C1353 C1358 1.390 . S
C1354 C1348 1.465 1_655 S
C1354 C1353 1.396 . S
C1354 C1355 1.399 . S
C1355 H1341 0.929 . S
C1355 C1354 1.399 . S
C1355 C1356 1.385 . S
C1356 H1342 0.931 . S
C1356 C1355 1.385 . S
C1356 C1357 1.389 . S
C1357 C1356 1.389 . S
C1357 C1358 1.387 . S
C1358 H1343 0.930 . S
C1358 C1353 1.390 . S
C1358 C1357 1.387 . S
H1359 C1371 0.930 . S
H1360 C1373 0.930 . S
H1361 C1374 0.930 . S
H1362 C1378 0.959 . S
H1363 C1378 0.959 . S
H1364 C1378 0.961 . S
H1365 C1379 0.960 . S
H1366 C1379 0.961 . S
H1367 C1379 0.959 . S
H1368 C1382 0.929 . S
H1369 C1383 0.931 . S
H1370 C1385 0.930 . S
C1371 H1359 0.930 . S
C1371 C1372 1.399 . S
C1371 C1376 1.399 . S
C1372 C1371 1.399 . S
C1372 C1373 1.376 . S
C1373 H1360 0.930 . S
C1373 C1372 1.376 . S
C1373 C1374 1.388 . S
C1374 H1361 0.930 . S
C1374 C1373 1.388 . S
C1374 C1375 1.390 . S
C1375 C1374 1.390 . S
C1375 C1376 1.394 . S
C1375 C1381 1.465 . S
C1376 C1371 1.399 . S
C1376 C1375 1.394 . S
C1376 C1377 1.516 . S
C1377 C1376 1.516 . S
C1377 C1378 1.502 . S
C1377 C1379 1.561 . S
C1377 C1380 1.526 . S
C1378 H1362 0.959 . S
C1378 H1363 0.959 . S
C1378 H1364 0.961 . S
C1378 C1377 1.502 . S
C1379 H1365 0.960 . S
C1379 H1366 0.961 . S
C1379 H1367 0.959 . S
C1379 C1377 1.561 . S
C1380 C1377 1.526 . S
C1380 C1381 1.396 . S
C1380 C1385 1.390 . S
C1381 C1375 1.465 . S
C1381 C1380 1.396 . S
C1381 C1382 1.399 . S
C1382 H1368 0.929 . S
C1382 C1381 1.399 . S
C1382 C1383 1.385 . S
C1383 H1369 0.931 . S
C1383 C1382 1.385 . S
C1383 C1384 1.389 . S
C1384 C1383 1.389 . S
C1384 C1385 1.387 . S
C1385 H1370 0.930 . S
C1385 C1380 1.390 . S
C1385 C1384 1.387 . S
H1386 C1398 0.930 . S
H1387 C1400 0.930 . S
H1388 C1401 0.930 . S
H1389 C1405 0.959 . S
H1390 C1405 0.959 . S
H1391 C1405 0.961 . S
H1392 C1406 0.960 . S
H1393 C1406 0.961 . S
H1394 C1406 0.959 . S
H1395 C1409 0.929 . S
H1396 C1410 0.931 . S
H1397 C1412 0.930 . S
C1398 H1386 0.930 . S
C1398 C1399 1.399 . S
C1398 C1403 1.399 . S
C1399 C1398 1.399 . S
C1399 C1400 1.376 . S
C1400 H1387 0.930 . S
C1400 C1399 1.376 . S
C1400 C1401 1.388 . S
C1401 H1388 0.930 . S
C1401 C1400 1.388 . S
C1401 C1402 1.390 . S
C1402 C1401 1.390 . S
C1402 C1403 1.394 . S
C1402 C1408 1.465 1_565 S
C1403 C1398 1.399 . S
C1403 C1402 1.394 . S
C1403 C1404 1.516 . S
C1404 C1403 1.516 . S
C1404 C1405 1.502 . S
C1404 C1406 1.561 . S
C1404 C1407 1.526 1_565 S
C1405 H1389 0.959 . S
C1405 H1390 0.959 . S
C1405 H1391 0.961 . S
C1405 C1404 1.502 . S
C1406 H1392 0.960 . S
C1406 H1393 0.961 . S
C1406 H1394 0.959 . S
C1406 C1404 1.561 . S
C1407 C1404 1.526 1_545 S
C1407 C1408 1.396 . S
C1407 C1412 1.390 . S
C1408 C1402 1.465 1_545 S
C1408 C1407 1.396 . S
C1408 C1409 1.399 . S
C1409 H1395 0.929 . S
C1409 C1408 1.399 . S
C1409 C1410 1.385 . S
C1410 H1396 0.931 . S
C1410 C1409 1.385 . S
C1410 C1411 1.389 . S
C1411 C1410 1.389 . S
C1411 C1412 1.387 . S
C1412 H1397 0.930 . S
C1412 C1407 1.390 . S
C1412 C1411 1.387 . S
H1413 C1425 0.930 . S
H1414 C1427 0.930 . S
H1415 C1428 0.930 . S
H1416 C1432 0.959 . S
H1417 C1432 0.959 . S
H1418 C1432 0.961 . S
H1419 C1433 0.960 . S
H1420 C1433 0.961 . S
H1421 C1433 0.959 . S
H1422 C1436 0.929 . S
H1423 C1437 0.931 . S
H1424 C1439 0.930 . S
C1425 H1413 0.930 . S
C1425 C1426 1.399 . S
C1425 C1430 1.399 . S
C1426 C1425 1.399 . S
C1426 C1427 1.376 . S
C1427 H1414 0.930 . S
C1427 C1426 1.376 . S
C1427 C1428 1.388 . S
C1428 H1415 0.930 . S
C1428 C1427 1.388 . S
C1428 C1429 1.390 . S
C1429 C1428 1.390 . S
C1429 C1430 1.394 . S
C1429 C1435 1.465 . S
C1430 C1425 1.399 . S
C1430 C1429 1.394 . S
C1430 C1431 1.516 . S
C1431 C1430 1.516 . S
C1431 C1432 1.502 . S
C1431 C1433 1.561 . S
C1431 C1434 1.526 . S
C1432 H1416 0.959 . S
C1432 H1417 0.959 . S
C1432 H1418 0.961 . S
C1432 C1431 1.502 . S
C1433 H1419 0.960 . S
C1433 H1420 0.961 . S
C1433 H1421 0.959 . S
C1433 C1431 1.561 . S
C1434 C1431 1.526 . S
C1434 C1435 1.396 . S
C1434 C1439 1.390 . S
C1435 C1429 1.465 . S
C1435 C1434 1.396 . S
C1435 C1436 1.399 . S
C1436 H1422 0.929 . S
C1436 C1435 1.399 . S
C1436 C1437 1.385 . S
C1437 H1423 0.931 . S
C1437 C1436 1.385 . S
C1437 C1438 1.389 . S
C1438 C1437 1.389 . S
C1438 C1439 1.387 . S
C1439 H1424 0.930 . S
C1439 C1434 1.390 . S
C1439 C1438 1.387 . S
H1440 C1452 0.930 . S
H1441 C1454 0.930 . S
H1442 C1455 0.930 . S
H1443 C1459 0.959 . S
H1444 C1459 0.959 . S
H1445 C1459 0.961 . S
H1446 C1460 0.960 . S
H1447 C1460 0.961 . S
H1448 C1460 0.959 . S
H1449 C1463 0.929 . S
H1450 C1464 0.931 . S
H1451 C1466 0.930 . S
C1452 H1440 0.930 . S
C1452 C1453 1.399 . S
C1452 C1457 1.399 . S
C1453 C1452 1.399 . S
C1453 C1454 1.376 . S
C1454 H1441 0.930 . S
C1454 C1453 1.376 . S
C1454 C1455 1.388 . S
C1455 H1442 0.930 . S
C1455 C1454 1.388 . S
C1455 C1456 1.390 . S
C1456 C1455 1.390 . S
C1456 C1457 1.394 . S
C1456 C1462 1.465 . S
C1457 C1452 1.399 . S
C1457 C1456 1.394 . S
C1457 C1458 1.516 . S
C1458 C1457 1.516 . S
C1458 C1459 1.502 . S
C1458 C1460 1.561 . S
C1458 C1461 1.526 . S
C1459 H1443 0.959 . S
C1459 H1444 0.959 . S
C1459 H1445 0.961 . S
C1459 C1458 1.502 . S
C1460 H1446 0.960 . S
C1460 H1447 0.961 . S
C1460 H1448 0.959 . S
C1460 C1458 1.561 . S
C1461 C1458 1.526 . S
C1461 C1462 1.396 . S
C1461 C1466 1.390 . S
C1462 C1456 1.465 . S
C1462 C1461 1.396 . S
C1462 C1463 1.399 . S
C1463 H1449 0.929 . S
C1463 C1462 1.399 . S
C1463 C1464 1.385 . S
C1464 H1450 0.931 . S
C1464 C1463 1.385 . S
C1464 C1465 1.389 . S
C1465 C1464 1.389 . S
C1465 C1466 1.387 . S
C1466 H1451 0.930 . S
C1466 C1461 1.390 . S
C1466 C1465 1.387 . S
H1467 C1479 0.930 . S
H1468 C1481 0.930 . S
H1469 C1482 0.930 . S
H1470 C1486 0.959 . S
H1471 C1486 0.959 . S
H1472 C1486 0.961 . S
H1473 C1487 0.960 . S
H1474 C1487 0.961 . S
H1475 C1487 0.959 . S
H1476 C1490 0.929 . S
H1477 C1491 0.931 . S
H1478 C1493 0.930 . S
C1479 H1467 0.930 . S
C1479 C1480 1.399 . S
C1479 C1484 1.399 . S
C1480 C1479 1.399 . S
C1480 C1481 1.376 . S
C1481 H1468 0.930 . S
C1481 C1480 1.376 . S
C1481 C1482 1.388 . S
C1482 H1469 0.930 . S
C1482 C1481 1.388 . S
C1482 C1483 1.390 . S
C1483 C1482 1.390 . S
C1483 C1484 1.394 . S
C1483 C1489 1.465 . S
C1484 C1479 1.399 . S
C1484 C1483 1.394 . S
C1484 C1485 1.516 . S
C1485 C1484 1.516 . S
C1485 C1486 1.502 . S
C1485 C1487 1.561 . S
C1485 C1488 1.526 . S
C1486 H1470 0.959 . S
C1486 H1471 0.959 . S
C1486 H1472 0.961 . S
C1486 C1485 1.502 . S
C1487 H1473 0.960 . S
C1487 H1474 0.961 . S
C1487 H1475 0.959 . S
C1487 C1485 1.561 . S
C1488 C1485 1.526 . S
C1488 C1489 1.396 . S
C1488 C1493 1.390 . S
C1489 C1483 1.465 . S
C1489 C1488 1.396 . S
C1489 C1490 1.399 . S
C1490 H1476 0.929 . S
C1490 C1489 1.399 . S
C1490 C1491 1.385 . S
C1491 H1477 0.931 . S
C1491 C1490 1.385 . S
C1491 C1492 1.389 . S
C1492 C1491 1.389 . S
C1492 C1493 1.387 . S
C1493 H1478 0.930 . S
C1493 C1488 1.390 . S
C1493 C1492 1.387 . S
H1494 C1506 0.930 . S
H1495 C1508 0.930 . S
H1496 C1509 0.930 . S
H1497 C1513 0.959 . S
H1498 C1513 0.959 . S
H1499 C1513 0.961 . S
H1500 C1514 0.960 . S
H1501 C1514 0.961 . S
H1502 C1514 0.959 . S
H1503 C1517 0.929 . S
H1504 C1518 0.931 . S
H1505 C1520 0.930 . S
C1506 H1494 0.930 . S
C1506 C1507 1.399 . S
C1506 C1511 1.399 . S
C1507 C1506 1.399 . S
C1507 C1508 1.376 . S
C1508 H1495 0.930 . S
C1508 C1507 1.376 . S
C1508 C1509 1.388 . S
C1509 H1496 0.930 . S
C1509 C1508 1.388 . S
C1509 C1510 1.390 . S
C1510 C1509 1.390 . S
C1510 C1511 1.394 . S
C1510 C1516 1.465 . S
C1511 C1506 1.399 . S
C1511 C1510 1.394 . S
C1511 C1512 1.516 . S
C1512 C1511 1.516 . S
C1512 C1513 1.502 . S
C1512 C1514 1.561 1_565 S
C1512 C1515 1.526 . S
C1513 H1497 0.959 . S
C1513 H1498 0.959 . S
C1513 H1499 0.961 . S
C1513 C1512 1.502 . S
C1514 H1500 0.960 . S
C1514 H1501 0.961 . S
C1514 H1502 0.959 . S
C1514 C1512 1.561 1_545 S
C1515 C1512 1.526 . S
C1515 C1516 1.396 . S
C1515 C1520 1.390 . S
C1516 C1510 1.465 . S
C1516 C1515 1.396 . S
C1516 C1517 1.399 . S
C1517 H1503 0.929 . S
C1517 C1516 1.399 . S
C1517 C1518 1.385 . S
C1518 H1504 0.931 . S
C1518 C1517 1.385 . S
C1518 C1519 1.389 . S
C1519 C1518 1.389 . S
C1519 C1520 1.387 . S
C1520 H1505 0.930 . S
C1520 C1515 1.390 . S
C1520 C1519 1.387 . S
H1521 C1533 0.930 . S
H1522 C1535 0.930 . S
H1523 C1536 0.930 . S
H1524 C1540 0.959 1_655 S
H1525 C1540 0.959 . S
H1526 C1540 0.961 . S
H1527 C1541 0.960 . S
H1528 C1541 0.961 . S
H1529 C1541 0.959 . S
H1530 C1544 0.929 . S
H1531 C1545 0.931 . S
H1532 C1547 0.930 . S
C1533 H1521 0.930 . S
C1533 C1534 1.399 . S
C1533 C1538 1.399 . S
C1534 C1533 1.399 . S
C1534 C1535 1.376 . S
C1535 H1522 0.930 . S
C1535 C1534 1.376 . S
C1535 C1536 1.388 . S
C1536 H1523 0.930 . S
C1536 C1535 1.388 . S
C1536 C1537 1.390 . S
C1537 C1536 1.390 . S
C1537 C1538 1.394 . S
C1537 C1543 1.465 . S
C1538 C1533 1.399 . S
C1538 C1537 1.394 . S
C1538 C1539 1.516 . S
C1539 C1538 1.516 . S
C1539 C1540 1.502 . S
C1539 C1541 1.561 . S
C1539 C1542 1.526 . S
C1540 H1524 0.959 1_455 S
C1540 H1525 0.959 . S
C1540 H1526 0.961 . S
C1540 C1539 1.502 . S
C1541 H1527 0.960 . S
C1541 H1528 0.961 . S
C1541 H1529 0.959 . S
C1541 C1539 1.561 . S
C1542 C1539 1.526 . S
C1542 C1543 1.396 . S
C1542 C1547 1.390 . S
C1543 C1537 1.465 . S
C1543 C1542 1.396 . S
C1543 C1544 1.399 . S
C1544 H1530 0.929 . S
C1544 C1543 1.399 . S
C1544 C1545 1.385 . S
C1545 H1531 0.931 . S
C1545 C1544 1.385 . S
C1545 C1546 1.389 . S
C1546 C1545 1.389 . S
C1546 C1547 1.387 . S
C1547 H1532 0.930 . S
C1547 C1542 1.390 . S
C1547 C1546 1.387 . S
H1548 C1560 0.930 . S
H1549 C1562 0.930 . S
H1550 C1563 0.930 . S
H1551 C1567 0.959 . S
H1552 C1567 0.959 . S
H1553 C1567 0.961 . S
H1554 C1568 0.960 . S
H1555 C1568 0.961 . S
H1556 C1568 0.959 . S
H1557 C1571 0.929 . S
H1558 C1572 0.931 . S
H1559 C1574 0.930 . S
C1560 H1548 0.930 . S
C1560 C1561 1.399 . S
C1560 C1565 1.399 . S
C1561 C1560 1.399 . S
C1561 C1562 1.376 . S
C1562 H1549 0.930 . S
C1562 C1561 1.376 . S
C1562 C1563 1.388 . S
C1563 H1550 0.930 . S
C1563 C1562 1.388 . S
C1563 C1564 1.390 . S
C1564 C1563 1.390 . S
C1564 C1565 1.394 . S
C1564 C1570 1.465 . S
C1565 C1560 1.399 . S
C1565 C1564 1.394 . S
C1565 C1566 1.516 . S
C1566 C1565 1.516 . S
C1566 C1567 1.502 . S
C1566 C1568 1.561 . S
C1566 C1569 1.526 . S
C1567 H1551 0.959 . S
C1567 H1552 0.959 . S
C1567 H1553 0.961 . S
C1567 C1566 1.502 . S
C1568 H1554 0.960 . S
C1568 H1555 0.961 . S
C1568 H1556 0.959 . S
C1568 C1566 1.561 . S
C1569 C1566 1.526 . S
C1569 C1570 1.396 . S
C1569 C1574 1.390 . S
C1570 C1564 1.465 . S
C1570 C1569 1.396 . S
C1570 C1571 1.399 . S
C1571 H1557 0.929 . S
C1571 C1570 1.399 . S
C1571 C1572 1.385 . S
C1572 H1558 0.931 . S
C1572 C1571 1.385 . S
C1572 C1573 1.389 . S
C1573 C1572 1.389 . S
C1573 C1574 1.387 . S
C1574 H1559 0.930 . S
C1574 C1569 1.390 . S
C1574 C1573 1.387 . S
H1575 C1587 0.930 1_455 S
H1576 C1589 0.930 . S
H1577 C1590 0.930 . S
H1578 C1594 0.959 . S
H1579 C1594 0.959 . S
H1580 C1594 0.961 . S
H1581 C1595 0.958 1_455 S
H1582 C1595 0.958 1_455 S
H1583 C1595 0.977 . S
H1584 C1598 0.929 . S
H1585 C1599 0.931 . S
H1586 C1601 0.930 1_455 S
C1587 H1575 0.930 1_655 S
C1587 C1588 1.399 . S
C1587 C1592 1.399 . S
C1588 C1587 1.399 . S
C1588 C1589 1.376 . S
C1589 H1576 0.930 . S
C1589 C1588 1.376 . S
C1589 C1590 1.388 . S
C1590 H1577 0.930 . S
C1590 C1589 1.388 . S
C1590 C1591 1.390 . S
C1591 C1590 1.390 . S
C1591 C1592 1.394 . S
C1591 C1597 1.465 . S
C1592 C1587 1.399 . S
C1592 C1591 1.394 . S
C1592 C1593 1.516 1_655 S
C1593 C1592 1.516 1_455 S
C1593 C1594 1.502 . S
C1593 C1595 1.549 1_455 S
C1593 C1596 1.526 1_455 S
C1594 H1578 0.959 . S
C1594 H1579 0.959 . S
C1594 H1580 0.961 . S
C1594 C1593 1.502 . S
C1595 H1581 0.958 1_655 S
C1595 H1582 0.958 1_655 S
C1595 H1583 0.977 . S
C1595 C1593 1.549 1_655 S
C1596 C1593 1.526 1_655 S
C1596 C1597 1.396 . S
C1596 C1601 1.390 . S
C1597 C1591 1.465 . S
C1597 C1596 1.396 . S
C1597 C1598 1.399 . S
C1598 H1584 0.929 . S
C1598 C1597 1.399 . S
C1598 C1599 1.385 . S
C1599 H1585 0.931 . S
C1599 C1598 1.385 . S
C1599 C1600 1.389 . S
C1600 C1599 1.389 . S
C1600 C1601 1.387 . S
C1601 H1586 0.930 1_655 S
C1601 C1596 1.390 . S
C1601 C1600 1.387 . S
H1602 C1614 0.930 . S
H1603 C1616 0.930 . S
H1604 C1617 0.930 . S
H1605 C1621 0.959 . S
H1606 C1621 0.959 . S
H1607 C1621 0.961 . S
H1608 C1622 0.960 . S
H1609 C1622 0.961 . S
H1610 C1622 0.959 . S
H1611 C1625 0.929 . S
H1612 C1626 0.931 . S
H1613 C1628 0.930 . S
C1614 H1602 0.930 . S
C1614 C1615 1.399 . S
C1614 C1619 1.399 . S
C1615 C1614 1.399 . S
C1615 C1616 1.376 . S
C1616 H1603 0.930 . S
C1616 C1615 1.376 . S
C1616 C1617 1.388 . S
C1617 H1604 0.930 . S
C1617 C1616 1.388 . S
C1617 C1618 1.390 . S
C1618 C1617 1.390 . S
C1618 C1619 1.394 . S
C1618 C1624 1.465 . S
C1619 C1614 1.399 . S
C1619 C1618 1.394 . S
C1619 C1620 1.516 . S
C1620 C1619 1.516 . S
C1620 C1621 1.502 . S
C1620 C1622 1.561 . S
C1620 C1623 1.526 . S
C1621 H1605 0.959 . S
C1621 H1606 0.959 . S
C1621 H1607 0.961 . S
C1621 C1620 1.502 . S
C1622 H1608 0.960 . S
C1622 H1609 0.961 . S
C1622 H1610 0.959 . S
C1622 C1620 1.561 . S
C1623 C1620 1.526 . S
C1623 C1624 1.396 . S
C1623 C1628 1.390 . S
C1624 C1618 1.465 . S
C1624 C1623 1.396 . S
C1624 C1625 1.399 . S
C1625 H1611 0.929 . S
C1625 C1624 1.399 . S
C1625 C1626 1.385 . S
C1626 H1612 0.931 . S
C1626 C1625 1.385 . S
C1626 C1627 1.389 . S
C1627 C1626 1.389 . S
C1627 C1628 1.387 . S
C1628 H1613 0.930 . S
C1628 C1623 1.390 . S
C1628 C1627 1.387 . S
H1629 C1641 0.930 . S
H1630 C1643 0.930 . S
H1631 C1644 0.930 1_565 S
H1632 C1648 0.959 . S
H1633 C1648 0.959 . S
H1634 C1648 0.961 . S
H1635 C1649 0.960 . S
H1636 C1649 0.961 . S
H1637 C1649 0.959 . S
H1638 C1652 0.929 . S
H1639 C1653 0.931 . S
H1640 C1655 0.930 . S
C1641 H1629 0.930 . S
C1641 C1642 1.399 . S
C1641 C1646 1.399 . S
C1642 C1641 1.399 . S
C1642 C1643 1.376 . S
C1643 H1630 0.930 . S
C1643 C1642 1.376 . S
C1643 C1644 1.388 . S
C1644 H1631 0.930 1_545 S
C1644 C1643 1.388 . S
C1644 C1645 1.390 . S
C1645 C1644 1.390 . S
C1645 C1646 1.394 . S
C1645 C1651 1.465 . S
C1646 C1641 1.399 . S
C1646 C1645 1.394 . S
C1646 C1647 1.516 . S
C1647 C1646 1.516 . S
C1647 C1648 1.502 . S
C1647 C1649 1.561 . S
C1647 C1650 1.526 . S
C1648 H1632 0.959 . S
C1648 H1633 0.959 . S
C1648 H1634 0.961 . S
C1648 C1647 1.502 . S
C1649 H1635 0.960 . S
C1649 H1636 0.961 . S
C1649 H1637 0.959 . S
C1649 C1647 1.561 . S
C1650 C1647 1.526 . S
C1650 C1651 1.396 . S
C1650 C1655 1.390 . S
C1651 C1645 1.465 . S
C1651 C1650 1.396 . S
C1651 C1652 1.399 1_545 S
C1652 H1638 0.929 . S
C1652 C1651 1.399 1_565 S
C1652 C1653 1.385 . S
C1653 H1639 0.931 . S
C1653 C1652 1.385 . S
C1653 C1654 1.389 1_565 S
C1654 C1653 1.389 1_545 S
C1654 C1655 1.387 . S
C1655 H1640 0.930 . S
C1655 C1650 1.390 . S
C1655 C1654 1.387 . S
H1656 C1668 0.930 . S
H1657 C1670 0.930 . S
H1658 C1671 0.930 . S
H1659 C1675 0.959 . S
H1660 C1675 0.959 . S
H1661 C1675 0.961 . S
H1662 C1676 0.960 . S
H1663 C1676 0.961 . S
H1664 C1676 0.959 . S
H1665 C1679 0.929 . S
H1666 C1680 0.931 . S
H1667 C1682 0.930 . S
C1668 H1656 0.930 . S
C1668 C1669 1.399 . S
C1668 C1673 1.399 . S
C1669 C1668 1.399 . S
C1669 C1670 1.376 . S
C1670 H1657 0.930 . S
C1670 C1669 1.376 . S
C1670 C1671 1.388 . S
C1671 H1658 0.930 . S
C1671 C1670 1.388 . S
C1671 C1672 1.390 . S
C1672 C1671 1.390 . S
C1672 C1673 1.394 . S
C1672 C1678 1.465 . S
C1673 C1668 1.399 . S
C1673 C1672 1.394 . S
C1673 C1674 1.516 . S
C1674 C1673 1.516 . S
C1674 C1675 1.502 . S
C1674 C1676 1.561 . S
C1674 C1677 1.526 . S
C1675 H1659 0.959 . S
C1675 H1660 0.959 . S
C1675 H1661 0.961 . S
C1675 C1674 1.502 . S
C1676 H1662 0.960 . S
C1676 H1663 0.961 . S
C1676 H1664 0.959 . S
C1676 C1674 1.561 . S
C1677 C1674 1.526 . S
C1677 C1678 1.396 . S
C1677 C1682 1.390 . S
C1678 C1672 1.465 . S
C1678 C1677 1.396 . S
C1678 C1679 1.399 . S
C1679 H1665 0.929 . S
C1679 C1678 1.399 . S
C1679 C1680 1.385 . S
C1680 H1666 0.931 . S
C1680 C1679 1.385 . S
C1680 C1681 1.389 . S
C1681 C1680 1.389 . S
C1681 C1682 1.387 . S
C1682 H1667 0.930 . S
C1682 C1677 1.390 . S
C1682 C1681 1.387 . S
H1683 C1695 0.930 . S
H1684 C1697 0.930 . S
H1685 C1698 0.930 . S
H1686 C1702 0.959 . S
H1687 C1702 0.959 . S
H1688 C1702 0.961 . S
H1689 C1703 0.960 . S
H1690 C1703 0.961 . S
H1691 C1703 0.959 . S
H1692 C1706 0.929 . S
H1693 C1707 0.931 . S
H1694 C1709 0.930 . S
C1695 H1683 0.930 . S
C1695 C1696 1.399 . S
C1695 C1700 1.399 . S
C1696 C1695 1.399 . S
C1696 C1697 1.376 . S
C1697 H1684 0.930 . S
C1697 C1696 1.376 . S
C1697 C1698 1.388 . S
C1698 H1685 0.930 . S
C1698 C1697 1.388 . S
C1698 C1699 1.390 . S
C1699 C1698 1.390 . S
C1699 C1700 1.394 . S
C1699 C1705 1.465 . S
C1700 C1695 1.399 . S
C1700 C1699 1.394 . S
C1700 C1701 1.516 . S
C1701 C1700 1.516 . S
C1701 C1702 1.502 . S
C1701 C1703 1.561 . S
C1701 C1704 1.526 . S
C1702 H1686 0.959 . S
C1702 H1687 0.959 . S
C1702 H1688 0.961 . S
C1702 C1701 1.502 . S
C1703 H1689 0.960 . S
C1703 H1690 0.961 . S
C1703 H1691 0.959 . S
C1703 C1701 1.561 . S
C1704 C1701 1.526 . S
C1704 C1705 1.396 . S
C1704 C1709 1.390 . S
C1705 C1699 1.465 . S
C1705 C1704 1.396 . S
C1705 C1706 1.399 . S
C1706 H1692 0.929 . S
C1706 C1705 1.399 . S
C1706 C1707 1.385 . S
C1707 H1693 0.931 . S
C1707 C1706 1.385 . S
C1707 C1708 1.389 . S
C1708 C1707 1.389 . S
C1708 C1709 1.387 . S
C1709 H1694 0.930 . S
C1709 C1704 1.390 . S
C1709 C1708 1.387 . S
H1710 C1722 0.930 . S
H1711 C1724 0.930 . S
H1712 C1725 0.930 . S
H1713 C1729 0.959 . S
H1714 C1729 0.959 . S
H1715 C1729 0.961 . S
H1716 C1730 0.960 . S
H1717 C1730 0.961 . S
H1718 C1730 0.959 . S
H1719 C1733 0.929 . S
H1720 C1734 0.931 . S
H1721 C1736 0.930 . S
C1722 H1710 0.930 . S
C1722 C1723 1.399 . S
C1722 C1727 1.399 . S
C1723 C1722 1.399 . S
C1723 C1724 1.376 . S
C1724 H1711 0.930 . S
C1724 C1723 1.376 . S
C1724 C1725 1.388 . S
C1725 H1712 0.930 . S
C1725 C1724 1.388 . S
C1725 C1726 1.390 . S
C1726 C1725 1.390 . S
C1726 C1727 1.394 . S
C1726 C1732 1.465 . S
C1727 C1722 1.399 . S
C1727 C1726 1.394 . S
C1727 C1728 1.516 . S
C1728 C1727 1.516 . S
C1728 C1729 1.502 . S
C1728 C1730 1.561 . S
C1728 C1731 1.526 . S
C1729 H1713 0.959 . S
C1729 H1714 0.959 . S
C1729 H1715 0.961 . S
C1729 C1728 1.502 . S
C1730 H1716 0.960 . S
C1730 H1717 0.961 . S
C1730 H1718 0.959 . S
C1730 C1728 1.561 . S
C1731 C1728 1.526 . S
C1731 C1732 1.396 . S
C1731 C1736 1.390 . S
C1732 C1726 1.465 . S
C1732 C1731 1.396 . S
C1732 C1733 1.399 . S
C1733 H1719 0.929 . S
C1733 C1732 1.399 . S
C1733 C1734 1.385 . S
C1734 H1720 0.931 . S
C1734 C1733 1.385 . S
C1734 C1735 1.389 . S
C1735 C1734 1.389 . S
C1735 C1736 1.387 . S
C1736 H1721 0.930 . S
C1736 C1731 1.390 . S
C1736 C1735 1.387 . S
H1737 C1749 0.930 . S
H1738 C1751 0.930 . S
H1739 C1752 0.930 . S
H1740 C1756 0.959 . S
H1741 C1756 0.959 . S
H1742 C1756 0.961 . S
H1743 C1757 0.960 . S
H1744 C1757 0.961 . S
H1745 C1757 0.959 . S
H1746 C1760 0.929 . S
H1747 C1761 0.931 . S
H1748 C1763 0.930 . S
C1749 H1737 0.930 . S
C1749 C1750 1.399 . S
C1749 C1754 1.399 . S
C1750 C1749 1.399 . S
C1750 C1751 1.376 . S
C1751 H1738 0.930 . S
C1751 C1750 1.376 . S
C1751 C1752 1.388 . S
C1752 H1739 0.930 . S
C1752 C1751 1.388 . S
C1752 C1753 1.390 . S
C1753 C1752 1.390 . S
C1753 C1754 1.394 . S
C1753 C1759 1.465 . S
C1754 C1749 1.399 . S
C1754 C1753 1.394 . S
C1754 C1755 1.516 . S
C1755 C1754 1.516 . S
C1755 C1756 1.502 . S
C1755 C1757 1.561 . S
C1755 C1758 1.526 . S
C1756 H1740 0.959 . S
C1756 H1741 0.959 . S
C1756 H1742 0.961 . S
C1756 C1755 1.502 . S
C1757 H1743 0.960 . S
C1757 H1744 0.961 . S
C1757 H1745 0.959 . S
C1757 C1755 1.561 . S
C1758 C1755 1.526 . S
C1758 C1759 1.396 . S
C1758 C1763 1.390 . S
C1759 C1753 1.465 . S
C1759 C1758 1.396 . S
C1759 C1760 1.399 . S
C1760 H1746 0.929 . S
C1760 C1759 1.399 . S
C1760 C1761 1.385 . S
C1761 H1747 0.931 . S
C1761 C1760 1.385 . S
C1761 C1762 1.389 . S
C1762 C1761 1.389 . S
C1762 C1763 1.387 . S
C1763 H1748 0.930 . S
C1763 C1758 1.390 . S
C1763 C1762 1.387 . S
H1764 C1776 0.930 . S
H1765 C1778 0.930 . S
H1766 C1779 0.930 . S
H1767 C1783 0.959 . S
H1768 C1783 0.959 . S
H1769 C1783 0.961 . S
H1770 C1784 0.960 . S
H1771 C1784 0.961 . S
H1772 C1784 0.959 . S
H1773 C1787 0.929 . S
H1774 C1788 0.931 . S
H1775 C1790 0.930 . S
C1776 H1764 0.930 . S
C1776 C1777 1.399 . S
C1776 C1781 1.399 . S
C1777 C1776 1.399 . S
C1777 C1778 1.376 . S
C1778 H1765 0.930 . S
C1778 C1777 1.376 . S
C1778 C1779 1.388 . S
C1779 H1766 0.930 . S
C1779 C1778 1.388 . S
C1779 C1780 1.390 . S
C1780 C1779 1.390 . S
C1780 C1781 1.394 . S
C1780 C1786 1.465 . S
C1781 C1776 1.399 . S
C1781 C1780 1.394 . S
C1781 C1782 1.516 . S
C1782 C1781 1.516 . S
C1782 C1783 1.502 . S
C1782 C1784 1.561 . S
C1782 C1785 1.526 . S
C1783 H1767 0.959 . S
C1783 H1768 0.959 . S
C1783 H1769 0.961 . S
C1783 C1782 1.502 . S
C1784 H1770 0.960 . S
C1784 H1771 0.961 . S
C1784 H1772 0.959 . S
C1784 C1782 1.561 . S
C1785 C1782 1.526 . S
C1785 C1786 1.396 . S
C1785 C1790 1.390 . S
C1786 C1780 1.465 . S
C1786 C1785 1.396 . S
C1786 C1787 1.399 . S
C1787 H1773 0.929 . S
C1787 C1786 1.399 . S
C1787 C1788 1.385 . S
C1788 H1774 0.931 . S
C1788 C1787 1.385 . S
C1788 C1789 1.389 . S
C1789 C1788 1.389 . S
C1789 C1790 1.387 . S
C1790 H1775 0.930 . S
C1790 C1785 1.390 . S
C1790 C1789 1.387 . S
H1791 C1803 0.930 . S
H1792 C1805 0.930 . S
H1793 C1806 0.930 . S
H1794 C1810 0.959 . S
H1795 C1810 0.959 . S
H1796 C1810 0.961 . S
H1797 C1811 0.960 . S
H1798 C1811 0.961 . S
H1799 C1811 0.959 . S
H1800 C1814 0.929 . S
H1801 C1815 0.931 . S
H1802 C1817 0.930 . S
C1803 H1791 0.930 . S
C1803 C1804 1.399 . S
C1803 C1808 1.399 . S
C1804 C1803 1.399 . S
C1804 C1805 1.376 . S
C1805 H1792 0.930 . S
C1805 C1804 1.376 . S
C1805 C1806 1.388 . S
C1806 H1793 0.930 . S
C1806 C1805 1.388 . S
C1806 C1807 1.390 . S
C1807 C1806 1.390 . S
C1807 C1808 1.394 . S
C1807 C1813 1.465 . S
C1808 C1803 1.399 . S
C1808 C1807 1.394 . S
C1808 C1809 1.516 . S
C1809 C1808 1.516 . S
C1809 C1810 1.502 . S
C1809 C1811 1.561 . S
C1809 C1812 1.526 . S
C1810 H1794 0.959 . S
C1810 H1795 0.959 . S
C1810 H1796 0.961 . S
C1810 C1809 1.502 . S
C1811 H1797 0.960 . S
C1811 H1798 0.961 . S
C1811 H1799 0.959 . S
C1811 C1809 1.561 . S
C1812 C1809 1.526 . S
C1812 C1813 1.396 . S
C1812 C1817 1.390 . S
C1813 C1807 1.465 . S
C1813 C1812 1.396 . S
C1813 C1814 1.399 . S
C1814 H1800 0.929 . S
C1814 C1813 1.399 . S
C1814 C1815 1.385 . S
C1815 H1801 0.931 . S
C1815 C1814 1.385 . S
C1815 C1816 1.389 . S
C1816 C1815 1.389 . S
C1816 C1817 1.387 . S
C1817 H1802 0.930 . S
C1817 C1812 1.390 . S
C1817 C1816 1.387 . S
H1818 C1830 0.930 . S
H1819 C1832 0.930 . S
H1820 C1833 0.930 . S
H1821 C1837 0.959 . S
H1822 C1837 0.959 . S
H1823 C1837 0.961 . S
H1824 C1838 0.960 . S
H1825 C1838 0.961 . S
H1826 C1838 0.959 . S
H1827 C1841 0.929 . S
H1828 C1842 0.931 . S
H1829 C1844 0.930 . S
C1830 H1818 0.930 . S
C1830 C1831 1.399 . S
C1830 C1835 1.399 . S
C1831 C1830 1.399 . S
C1831 C1832 1.376 . S
C1832 H1819 0.930 . S
C1832 C1831 1.376 . S
C1832 C1833 1.388 . S
C1833 H1820 0.930 . S
C1833 C1832 1.388 . S
C1833 C1834 1.390 . S
C1834 C1833 1.390 . S
C1834 C1835 1.394 . S
C1834 C1840 1.465 . S
C1835 C1830 1.399 . S
C1835 C1834 1.394 . S
C1835 C1836 1.516 . S
C1836 C1835 1.516 . S
C1836 C1837 1.502 . S
C1836 C1838 1.561 . S
C1836 C1839 1.526 . S
C1837 H1821 0.959 . S
C1837 H1822 0.959 . S
C1837 H1823 0.961 . S
C1837 C1836 1.502 . S
C1838 H1824 0.960 . S
C1838 H1825 0.961 . S
C1838 H1826 0.959 . S
C1838 C1836 1.561 . S
C1839 C1836 1.526 . S
C1839 C1840 1.396 . S
C1839 C1844 1.390 . S
C1840 C1834 1.465 . S
C1840 C1839 1.396 . S
C1840 C1841 1.399 . S
C1841 H1827 0.929 . S
C1841 C1840 1.399 . S
C1841 C1842 1.385 . S
C1842 H1828 0.931 . S
C1842 C1841 1.385 . S
C1842 C1843 1.389 . S
C1843 C1842 1.389 . S
C1843 C1844 1.387 . S
C1844 H1829 0.930 . S
C1844 C1839 1.390 . S
C1844 C1843 1.387 . S
H1845 C1857 0.930 . S
H1846 C1859 0.930 . S
H1847 C1860 0.930 . S
H1848 C1864 0.959 . S
H1849 C1864 0.959 . S
H1850 C1864 0.961 . S
H1851 C1865 0.960 . S
H1852 C1865 0.961 . S
H1853 C1865 0.959 . S
H1854 C1868 0.929 . S
H1855 C1869 0.931 . S
H1856 C1871 0.930 . S
C1857 H1845 0.930 . S
C1857 C1858 1.399 . S
C1857 C1862 1.399 . S
C1858 C1857 1.399 . S
C1858 C1859 1.376 . S
C1859 H1846 0.930 . S
C1859 C1858 1.376 . S
C1859 C1860 1.388 . S
C1860 H1847 0.930 . S
C1860 C1859 1.388 . S
C1860 C1861 1.390 . S
C1861 C1860 1.390 . S
C1861 C1862 1.394 . S
C1861 C1867 1.465 . S
C1862 C1857 1.399 . S
C1862 C1861 1.394 . S
C1862 C1863 1.516 . S
C1863 C1862 1.516 . S
C1863 C1864 1.502 . S
C1863 C1865 1.561 . S
C1863 C1866 1.526 . S
C1864 H1848 0.959 . S
C1864 H1849 0.959 . S
C1864 H1850 0.961 . S
C1864 C1863 1.502 . S
C1865 H1851 0.960 . S
C1865 H1852 0.961 . S
C1865 H1853 0.959 . S
C1865 C1863 1.561 . S
C1866 C1863 1.526 . S
C1866 C1867 1.396 . S
C1866 C1871 1.390 . S
C1867 C1861 1.465 . S
C1867 C1866 1.396 . S
C1867 C1868 1.399 . S
C1868 H1854 0.929 . S
C1868 C1867 1.399 . S
C1868 C1869 1.385 . S
C1869 H1855 0.931 . S
C1869 C1868 1.385 . S
C1869 C1870 1.389 . S
C1870 C1869 1.389 . S
C1870 C1871 1.387 . S
C1871 H1856 0.930 . S
C1871 C1866 1.390 . S
C1871 C1870 1.387 . S
H1872 C1884 0.930 . S
H1873 C1886 0.930 . S
H1874 C1887 0.930 . S
H1875 C1891 0.959 . S
H1876 C1891 0.959 . S
H1877 C1891 0.961 . S
H1878 C1892 0.960 . S
H1879 C1892 0.961 . S
H1880 C1892 0.959 . S
H1881 C1895 0.929 . S
H1882 C1896 0.931 . S
H1883 C1898 0.930 . S
C1884 H1872 0.930 . S
C1884 C1885 1.399 . S
C1884 C1889 1.399 . S
C1885 C1884 1.399 . S
C1885 C1886 1.376 . S
C1886 H1873 0.930 . S
C1886 C1885 1.376 . S
C1886 C1887 1.388 . S
C1887 H1874 0.930 . S
C1887 C1886 1.388 . S
C1887 C1888 1.390 . S
C1888 C1887 1.390 . S
C1888 C1889 1.394 . S
C1888 C1894 1.465 . S
C1889 C1884 1.399 . S
C1889 C1888 1.394 . S
C1889 C1890 1.516 . S
C1890 C1889 1.516 . S
C1890 C1891 1.502 . S
C1890 C1892 1.561 . S
C1890 C1893 1.526 . S
C1891 H1875 0.959 . S
C1891 H1876 0.959 . S
C1891 H1877 0.961 . S
C1891 C1890 1.502 . S
C1892 H1878 0.960 . S
C1892 H1879 0.961 . S
C1892 H1880 0.959 . S
C1892 C1890 1.561 . S
C1893 C1890 1.526 . S
C1893 C1894 1.396 . S
C1893 C1898 1.390 . S
C1894 C1888 1.465 . S
C1894 C1893 1.396 . S
C1894 C1895 1.399 . S
C1895 H1881 0.929 . S
C1895 C1894 1.399 . S
C1895 C1896 1.385 . S
C1896 H1882 0.931 . S
C1896 C1895 1.385 . S
C1896 C1897 1.389 . S
C1897 C1896 1.389 . S
C1897 C1898 1.387 . S
C1898 H1883 0.930 . S
C1898 C1893 1.390 . S
C1898 C1897 1.387 . S
H1899 C1911 0.930 . S
H1900 C1913 0.930 . S
H1901 C1914 0.930 . S
H1902 C1918 0.959 . S
H1903 C1918 0.959 . S
H1904 C1918 0.961 . S
H1905 C1919 0.960 . S
H1906 C1919 0.961 . S
H1907 C1919 0.959 . S
H1908 C1922 0.929 . S
H1909 C1923 0.931 . S
H1910 C1925 0.930 . S
C1911 H1899 0.930 . S
C1911 C1912 1.399 . S
C1911 C1916 1.399 . S
C1912 C1911 1.399 . S
C1912 C1913 1.376 . S
C1913 H1900 0.930 . S
C1913 C1912 1.376 . S
C1913 C1914 1.388 . S
C1914 H1901 0.930 . S
C1914 C1913 1.388 . S
C1914 C1915 1.390 . S
C1915 C1914 1.390 . S
C1915 C1916 1.394 . S
C1915 C1921 1.465 . S
C1916 C1911 1.399 . S
C1916 C1915 1.394 . S
C1916 C1917 1.516 . S
C1917 C1916 1.516 . S
C1917 C1918 1.502 . S
C1917 C1919 1.561 . S
C1917 C1920 1.526 . S
C1918 H1902 0.959 . S
C1918 H1903 0.959 . S
C1918 H1904 0.961 . S
C1918 C1917 1.502 . S
C1919 H1905 0.960 . S
C1919 H1906 0.961 . S
C1919 H1907 0.959 . S
C1919 C1917 1.561 . S
C1920 C1917 1.526 . S
C1920 C1921 1.396 . S
C1920 C1925 1.390 . S
C1921 C1915 1.465 . S
C1921 C1920 1.396 . S
C1921 C1922 1.399 . S
C1922 H1908 0.929 . S
C1922 C1921 1.399 . S
C1922 C1923 1.385 . S
C1923 H1909 0.931 . S
C1923 C1922 1.385 . S
C1923 C1924 1.389 . S
C1924 C1923 1.389 . S
C1924 C1925 1.387 . S
C1925 H1910 0.930 . S
C1925 C1920 1.390 . S
C1925 C1924 1.387 . S
H1926 C1938 0.930 . S
H1927 C1940 0.930 . S
H1928 C1941 0.930 . S
H1929 C1945 0.959 . S
H1930 C1945 0.959 . S
H1931 C1945 0.961 . S
H1932 C1946 0.960 . S
H1933 C1946 0.961 . S
H1934 C1946 0.959 . S
H1935 C1949 0.929 . S
H1936 C1950 0.931 . S
H1937 C1952 0.930 . S
C1938 H1926 0.930 . S
C1938 C1939 1.399 . S
C1938 C1943 1.399 . S
C1939 C1938 1.399 . S
C1939 C1940 1.376 . S
C1940 H1927 0.930 . S
C1940 C1939 1.376 . S
C1940 C1941 1.388 . S
C1941 H1928 0.930 . S
C1941 C1940 1.388 . S
C1941 C1942 1.390 . S
C1942 C1941 1.390 . S
C1942 C1943 1.394 . S
C1942 C1948 1.465 . S
C1943 C1938 1.399 . S
C1943 C1942 1.394 . S
C1943 C1944 1.516 . S
C1944 C1943 1.516 . S
C1944 C1945 1.502 . S
C1944 C1946 1.561 . S
C1944 C1947 1.526 . S
C1945 H1929 0.959 . S
C1945 H1930 0.959 . S
C1945 H1931 0.961 . S
C1945 C1944 1.502 . S
C1946 H1932 0.960 . S
C1946 H1933 0.961 . S
C1946 H1934 0.959 . S
C1946 C1944 1.561 . S
C1947 C1944 1.526 . S
C1947 C1948 1.396 . S
C1947 C1952 1.390 . S
C1948 C1942 1.465 . S
C1948 C1947 1.396 . S
C1948 C1949 1.399 . S
C1949 H1935 0.929 . S
C1949 C1948 1.399 . S
C1949 C1950 1.385 . S
C1950 H1936 0.931 . S
C1950 C1949 1.385 . S
C1950 C1951 1.389 . S
C1951 C1950 1.389 . S
C1951 C1952 1.387 . S
C1952 H1937 0.930 . S
C1952 C1947 1.390 . S
C1952 C1951 1.387 . S
H1953 C1965 0.930 . S
H1954 C1967 0.930 . S
H1955 C1968 0.930 . S
H1956 C1972 0.959 . S
H1957 C1972 0.959 . S
H1958 C1972 0.961 . S
H1959 C1973 0.960 . S
H1960 C1973 0.961 . S
H1961 C1973 0.959 . S
H1962 C1976 0.929 . S
H1963 C1977 0.931 . S
H1964 C1979 0.930 . S
C1965 H1953 0.930 . S
C1965 C1966 1.399 . S
C1965 C1970 1.399 . S
C1966 C1965 1.399 . S
C1966 C1967 1.376 . S
C1967 H1954 0.930 . S
C1967 C1966 1.376 . S
C1967 C1968 1.388 . S
C1968 H1955 0.930 . S
C1968 C1967 1.388 . S
C1968 C1969 1.390 . S
C1969 C1968 1.390 . S
C1969 C1970 1.394 . S
C1969 C1975 1.465 . S
C1970 C1965 1.399 . S
C1970 C1969 1.394 . S
C1970 C1971 1.516 . S
C1971 C1970 1.516 . S
C1971 C1972 1.502 . S
C1971 C1973 1.561 . S
C1971 C1974 1.526 . S
C1972 H1956 0.959 . S
C1972 H1957 0.959 . S
C1972 H1958 0.961 . S
C1972 C1971 1.502 . S
C1973 H1959 0.960 . S
C1973 H1960 0.961 . S
C1973 H1961 0.959 . S
C1973 C1971 1.561 . S
C1974 C1971 1.526 . S
C1974 C1975 1.396 . S
C1974 C1979 1.390 . S
C1975 C1969 1.465 . S
C1975 C1974 1.396 . S
C1975 C1976 1.399 . S
C1976 H1962 0.929 . S
C1976 C1975 1.399 . S
C1976 C1977 1.385 . S
C1977 H1963 0.931 . S
C1977 C1976 1.385 . S
C1977 C1978 1.389 . S
C1978 C1977 1.389 . S
C1978 C1979 1.387 . S
C1979 H1964 0.930 . S
C1979 C1974 1.390 . S
C1979 C1978 1.387 . S
C535 C124 1.531 . S
C547 C165 1.578 . S
C562 C130 1.703 . S
C574 C205 1.725 . S
C589 C115 1.551 . S
C601 C257 1.593 . S
C616 C106 1.486 . S
C628 C217 1.445 . S
C655 C245 1.455 . S
C643 C85 1.424 . S
C670 C97 1.277 . S
C682 C177 1.309 . S
C709 C184 1.590 . S
C697 C103 1.566 . S
C736 C224 1.700 . S
C724 C88 1.694 . S
C751 C94 1.590 . S
C763 C244 1.548 . S
C778 C121 1.493 . S
C790 C204 1.449 . S
C805 C133 1.425 . S
C817 C264 1.423 . S
C844 C164 1.331 . S
C832 C112 1.309 . S
C871 C285 1.557 . S
C859 C16 1.570 . S
C886 C22 1.730 . S
C898 C325 1.714 . S
C913 C7 1.558 . S
C925 C377 1.549 . S
C940 C160 1.479 . S
C952 C337 1.488 . S
C967 C139 1.441 . S
C979 C365 1.456 . S
C994 C151 1.288 . S
C1006 C297 1.335 . S
C1021 C157 1.558 . S
C1033 C304 1.595 . S
C1048 C142 1.678 . S
C1060 C344 1.708 . S
C1087 C364 1.546 . S
C1075 C148 1.589 . S
C1102 C13 1.448 . S
C1114 C324 1.481 . S
C1141 C384 1.433 . S
C1129 C25 1.405 . S
C1156 C4 1.303 . S
C1168 C284 1.357 . S
C1195 C405 1.552 . S
C1183 C70 1.573 . S
C1210 C76 1.703 . S
C1222 C445 1.729 . S
C1249 C497 1.546 . S
C1237 C61 1.567 . S
C1276 C457 1.492 . S
C1264 C52 1.463 . S
C1303 C485 1.452 . S
C1291 C31 1.453 . S
C1318 C43 1.318 . S
C1330 C417 1.331 . S
C1345 C49 1.559 . S
C1357 C424 1.599 . S
C1372 C34 1.704 . S
C1384 C464 1.690 . S
C1411 C484 1.582 . S
C1399 C40 1.538 . S
C1426 C67 1.449 . S
C1438 C444 1.487 . S
C1453 C79 1.411 . S
C1465 C504 1.431 . S
C1480 C58 1.322 . S
C1492 C404 1.323 . S
C1507 C140 1.397 . S
C1519 C188 1.359 . S
C1546 C228 1.731 . S
C1534 C149 1.725 . S
C1561 C158 1.549 . S
C1573 C251 1.536 . S
C1588 C59 1.737 . S
C1600 C211 1.739 . S
C1615 C68 1.522 . S
C1627 C268 1.527 . S
C1654 C171 1.387 . S
C1642 C77 1.397 . S
C1669 C32 1.395 . S
C1681 C308 1.394 . S
C1696 C41 1.737 . S
C1708 C348 1.702 . S
C1723 C50 1.531 . S
C1735 C371 1.531 . S
C1750 C113 1.736 . S
C1762 C331 1.745 . S
C1789 C388 1.526 . S
C1777 C122 1.523 . S
C1804 C131 1.399 . S
C1816 C291 1.373 . S
C1831 C86 1.395 . S
C1843 C428 1.390 . S
C1858 C95 1.727 . S
C1870 C468 1.715 . S
C1897 C491 1.538 . S
C1885 C104 1.550 . S
C1912 C5 1.736 . S
C1924 C451 1.747 . S
C1939 C14 1.521 . S
C1951 C508 1.508 . S
C1966 C23 1.388 . S
C1978 C411 1.392 . S
