# Generated by pormake.
# Topology anh, (6,3)-cn, num edge types: 1
# Building blocks:
#     Node 0, Type 0, BuildingBlock: BETDEL_clean_sbu_0, # of connection points: 6
#     Node 1, Type 0, BuildingBlock: BETDEL_clean_sbu_0, # of connection points: 6
#     Node 2, Type 0, BuildingBlock: BETDEL_clean_sbu_0, # of connection points: 6
#     Node 3, Type 1, BuildingBlock: QEWDON_clean_linker_0, # of connection points: 3
#     Node 4, Type 1, BuildingBlock: QEWDON_clean_linker_0, # of connection points: 3
#     Node 5, Type 1, BuildingBlock: QEWDON_clean_linker_0, # of connection points: 3
#     Node 6, Type 1, BuildingBlock: QEWDON_clean_linker_0, # of connection points: 3
#     Node 7, Type 1, BuildingBlock: QEWDON_clean_linker_0, # of connection points: 3
#     Node 8, Type 1, BuildingBlock: QEWDON_clean_linker_0, # of connection points: 3
#     Edge 9, Type (0, 1), BuildingBlock: XUDNAN_clean_linker_2, # of connection points: 2
#     Edge 10, Type (0, 1), BuildingBlock: XUDNAN_clean_linker_2, # of connection points: 2
#     Edge 11, Type (0, 1), BuildingBlock: XUDNAN_clean_linker_2, # of connection points: 2
#     Edge 12, Type (0, 1), BuildingBlock: XUDNAN_clean_linker_2, # of connection points: 2
#     Edge 13, Type (0, 1), BuildingBlock: XUDNAN_clean_linker_2, # of connection points: 2
#     Edge 14, Type (0, 1), BuildingBlock: XUDNAN_clean_linker_2, # of connection points: 2
#     Edge 15, Type (0, 1), BuildingBlock: XUDNAN_clean_linker_2, # of connection points: 2
#     Edge 16, Type (0, 1), BuildingBlock: XUDNAN_clean_linker_2, # of connection points: 2
#     Edge 17, Type (0, 1), BuildingBlock: XUDNAN_clean_linker_2, # of connection points: 2
#     Edge 18, Type (0, 1), BuildingBlock: XUDNAN_clean_linker_2, # of connection points: 2
#     Edge 19, Type (0, 1), BuildingBlock: XUDNAN_clean_linker_2, # of connection points: 2
#     Edge 20, Type (0, 1), BuildingBlock: XUDNAN_clean_linker_2, # of connection points: 2
#     Edge 21, Type (0, 1), BuildingBlock: XUDNAN_clean_linker_2, # of connection points: 2
#     Edge 22, Type (0, 1), BuildingBlock: XUDNAN_clean_linker_2, # of connection points: 2
#     Edge 23, Type (0, 1), BuildingBlock: XUDNAN_clean_linker_2, # of connection points: 2
#     Edge 24, Type (0, 1), BuildingBlock: XUDNAN_clean_linker_2, # of connection points: 2
#     Edge 25, Type (0, 1), BuildingBlock: XUDNAN_clean_linker_2, # of connection points: 2
#     Edge 26, Type (0, 1), BuildingBlock: XUDNAN_clean_linker_2, # of connection points: 2
# Relax obj value: 0.094
# Max RMSD: 0.136
# Mean RMSD: 0.126
data_MOF--net-anh--node1-BETDEL_clean_sbu_0--node2-QEWDON_clean_linker_0--edge1-XUDNAN_clean_linker_2
_symmetry_space_group_name_H-M    P1
_symmetry_Int_Tables_number       1
_symmetry_cell_setting            triclinic
loop_
_symmetry_equiv_pos_as_xyz
'x, y, z'
_cell_length_a     31.34865
_cell_length_b     31.337807
_cell_length_c     46.818172
_cell_angle_alpha  93.491697
_cell_angle_beta   93.590096
_cell_angle_gamma 120.3009
loop_
_atom_site_label
_atom_site_type_symbol
_atom_site_fract_x
_atom_site_fract_y
_atom_site_fract_z
_atom_type_partial_charge
Dy0 Dy 0.06021 0.4811 0.1608 0.0
C1 C 0.9499 0.57558 0.18383 0.0
C2 C 0.11885 0.44437 0.14544 0.0
Dy3 Dy 1.00341 0.5336 0.16729 0.0
O4 O 0.10831 0.44911 0.17133 0.0
O5 O 0.09746 0.45997 0.12778 0.0
O6 O 0.0403 0.45254 0.20359 0.0
O7 O 0.05236 0.52344 0.19705 0.0
C8 C 0.03883 0.49083 0.21438 0.0
C9 C 1.02196 0.52327 0.11294 0.0
O10 O 0.08027 0.5976 0.18016 0.0
O11 O 0.12095 0.5612 0.15968 0.0
O12 O 0.98616 0.59466 0.16801 0.0
O13 O 0.94208 0.53277 0.19049 0.0
O14 O 1.0163 0.55898 0.12348 0.0
O15 O 1.01101 0.49135 0.13062 0.0
O16 O 0.98343 0.41448 0.15215 0.0
O17 O 0.94245 0.45395 0.16859 0.0
C18 C 0.12052 0.60107 0.17047 0.0
C19 C 0.94279 0.41289 0.16012 0.0
Dy20 Dy 0.52696 0.05333 0.49535 0.0
C21 C 0.74303 0.19294 0.51138 0.0
C22 C 0.42788 0.99703 0.47814 0.0
Dy23 Dy 0.64574 0.12131 0.49814 0.0
O24 O 0.44809 1.00519 0.50446 0.0
O25 O 0.46179 1.02023 0.46109 0.0
O26 O 0.53475 0.03924 0.54078 0.0
O27 O 0.58847 0.10692 0.52685 0.0
C28 C 0.57731 0.08011 0.54742 0.0
C29 C 0.60263 0.07846 0.44442 0.0
O30 O 0.63602 0.04739 0.50819 0.0
O31 O 0.55174 0.99705 0.49081 0.0
O32 O 0.71731 0.18255 0.48656 0.0
O33 O 0.71575 0.16289 0.52939 0.0
O34 O 0.65034 0.10695 0.45037 0.0
O35 O 0.58338 0.0757 0.4673 0.0
O36 O 0.53478 0.12914 0.49354 0.0
O37 O 0.62165 0.17803 0.49692 0.0
C38 C 0.59542 1.00272 0.50069 0.0
C39 C 0.57674 0.17297 0.49458 0.0
Dy40 Dy 0.62952 0.59684 0.82935 0.0
C41 C 0.53986 0.39005 0.85272 0.0
C42 C 0.66382 0.68133 0.80353 0.0
Dy43 Dy 0.57067 0.481 0.83489 0.0
O44 O 0.6886 0.67508 0.82458 0.0
O45 O 0.62039 0.64158 0.79693 0.0
O46 O 0.64191 0.62431 0.87685 0.0
O47 O 0.60303 0.54922 0.86238 0.0
C48 C 0.61762 0.57951 0.88455 0.0
C49 C 0.57254 0.50833 0.78152 0.0
O50 O 0.51364 0.49997 0.84595 0.0
O51 O 0.54827 0.57652 0.8273 0.0
O52 O 0.52428 0.39813 0.82841 0.0
O53 O 0.57182 0.43202 0.86752 0.0
O54 O 0.53603 0.46769 0.7891 0.0
O55 O 0.60705 0.52904 0.80184 0.0
O56 O 0.69254 0.58127 0.82847 0.0
O57 O 0.64919 0.49639 0.83453 0.0
C58 C 0.51053 0.53818 0.83766 0.0
C59 C 0.69096 0.53858 0.83182 0.0
H60 H 0.55801 0.04067 0.22993 0.0
C61 C 0.52481 1.00686 0.22063 0.0
C62 C 0.4977 0.96905 0.23823 0.0
C63 C 0.50798 1.00255 0.19139 0.0
H64 H 0.43125 0.89734 0.23899 0.0
C65 C 0.45422 0.92568 0.2257 0.0
C66 C 0.4374 0.91968 0.19651 0.0
C67 C 0.4644 0.9582 0.17948 0.0
C68 C 0.5325 0.04623 0.17425 0.0
H69 H 0.45085 0.95375 0.157 0.0
C70 C 0.58468 0.07984 0.17767 0.0
C71 C 0.60607 0.12271 0.1627 0.0
C72 C 0.50265 0.0562 0.15533 0.0
H73 H 0.46259 0.03246 0.15263 0.0
C74 C 0.52368 0.09781 0.14021 0.0
H75 H 0.6085 0.07309 0.19211 0.0
C76 C 0.57478 0.13081 0.14386 0.0
H77 H 0.58993 0.16265 0.13164 0.0
H78 H 0.5001 0.1048 0.12574 0.0
H79 H 0.55744 0.5941 0.56547 0.0
C80 C 0.55975 0.56323 0.55565 0.0
C81 C 0.56378 0.53057 0.57347 0.0
C82 C 0.55635 0.55479 0.52545 0.0
H83 H 0.56812 0.46436 0.57508 0.0
C84 C 0.5643 0.48889 0.56113 0.0
C85 C 0.56252 0.47991 0.53123 0.0
C86 C 0.55933 0.51353 0.51361 0.0
C87 C 0.54589 0.58633 0.50625 0.0
H88 H 0.55845 0.50691 0.49056 0.0
C89 C 0.56258 0.63753 0.51421 0.0
C90 C 0.54936 0.66484 0.49604 0.0
C91 C 0.51614 0.56377 0.47982 0.0
H92 H 0.50084 0.52467 0.47315 0.0
C93 C 0.50427 0.59069 0.46169 0.0
H94 H 0.58526 0.65597 0.53445 0.0
C95 C 0.52069 0.64051 0.46958 0.0
H96 H 0.51102 0.66014 0.45465 0.0
H97 H 0.48169 0.57259 0.44137 0.0
H98 H 0.13065 0.55572 0.90024 0.0
C99 C 0.09691 0.55228 0.89009 0.0
C100 C 0.05858 0.54389 0.90716 0.0
C101 C 0.09265 0.55862 0.86064 0.0
H102 H 0.98634 0.53597 0.90823 0.0
C103 C 1.01578 0.54243 0.89496 0.0
C104 C 1.0095 0.54709 0.86567 0.0
C105 C 0.04751 0.554 0.84852 0.0
C106 C 0.13596 0.57316 0.84306 0.0
H107 H 0.0419 0.55657 0.82579 0.0
C108 C 0.17266 0.5598 0.84895 0.0
C109 C 0.21393 0.5758 0.83258 0.0
C110 C 0.14196 0.603 0.82058 0.0
H111 H 0.1166 0.61613 0.81585 0.0
C112 C 0.18147 0.61761 0.80401 0.0
H113 H 0.16939 0.53734 0.86624 0.0
C114 C 0.21683 0.60403 0.80976 0.0
H115 H 0.24636 0.6155 0.79595 0.0
H116 H 0.1849 0.64001 0.78661 0.0
H117 H 0.98765 0.5632 0.43297 0.0
C118 C 1.01916 0.60079 0.4348 0.0
C119 C 0.04438 0.61925 0.41056 0.0
C120 C 0.03384 0.63095 0.46125 0.0
H121 H 0.10587 0.68191 0.39493 0.0
C122 C 0.08467 0.66829 0.41307 0.0
C123 C 0.0995 0.6992 0.43907 0.0
C124 C 0.07384 0.68018 0.46304 0.0
C125 C 1.00787 0.61121 0.48712 0.0
H126 H 0.08544 0.70364 0.48328 0.0
C127 C 0.99293 0.56245 0.49325 0.0
C128 C 0.9682 0.54358 0.51766 0.0
C129 C 0.99824 0.64125 0.50602 0.0
H130 H 1.00849 0.67864 0.50176 0.0
C131 C 0.97447 0.6231 0.53045 0.0
H132 H 1.00112 0.53935 0.47919 0.0
C133 C 0.95939 0.57464 0.53624 0.0
H134 H 0.93959 0.56113 0.55487 0.0
H135 H 0.96701 0.64647 0.54474 0.0
H136 H 0.63433 0.04716 0.75512 0.0
C137 C 0.632 0.07564 0.76804 0.0
C138 C 0.63911 0.11832 0.75578 0.0
C139 C 0.61869 0.06793 0.79619 0.0
H140 H 0.6368 0.18588 0.76291 0.0
C141 C 0.63386 0.15392 0.7724 0.0
C142 C 0.62152 0.14682 0.80073 0.0
C143 C 0.6151 0.10447 0.81266 0.0
C144 C 0.6031 1.01948 0.80714 0.0
H145 H 0.60433 0.09859 0.83429 0.0
C146 C 0.62892 0.99471 0.80151 0.0
C147 C 0.61106 0.9466 0.80912 0.0
C148 C 0.56011 0.99613 0.82155 0.0
H149 H 0.53882 1.01392 0.82573 0.0
C150 C 0.54303 0.9486 0.82979 0.0
H151 H 0.66209 1.01217 0.79046 0.0
C152 C 0.56808 0.92362 0.82337 0.0
H153 H 0.55393 0.88636 0.82944 0.0
H154 H 0.50978 0.93074 0.84067 0.0
H155 H 0.53387 0.55682 0.09876 0.0
C156 C 0.56965 0.56654 0.10962 0.0
C157 C 0.60834 0.5745 0.09306 0.0
C158 C 0.57758 0.57269 0.13994 0.0
H159 H 0.68559 0.59576 0.09435 0.0
C160 C 0.65548 0.58973 0.10694 0.0
C161 C 0.6634 0.59489 0.13701 0.0
C162 C 0.62445 0.58567 0.15337 0.0
C163 C 0.5376 0.56671 0.15765 0.0
H164 H 0.63098 0.58885 0.17662 0.0
C165 C 0.48768 0.53091 0.14858 0.0
C166 C 0.44954 0.52717 0.16437 0.0
C167 C 0.54904 0.59782 0.18341 0.0
H168 H 0.58692 0.62656 0.19078 0.0
C169 C 0.51145 0.59318 0.19966 0.0
H170 H 0.47832 0.50597 0.12914 0.0
C171 C 0.46197 0.55839 0.19017 0.0
H172 H 0.43342 0.55721 0.20256 0.0
H173 H 0.52061 0.61754 0.21931 0.0
H174 H 0.17174 0.42136 0.18256 0.0
H175 H 0.15433 0.44538 0.09352 0.0
H176 H 0.23252 0.44756 0.08568 0.0
H177 H 0.28781 0.50692 0.19601 0.0
H178 H 0.30869 0.4762 0.2196 0.0
H179 H 0.24459 0.45886 0.21603 0.0
H180 H 0.21815 0.36721 0.20098 0.0
H181 H 0.28257 0.38413 0.20493 0.0
H182 H 0.24444 0.35253 0.17144 0.0
H183 H 0.3203 0.47049 0.09097 0.0
H184 H 0.40901 0.51103 0.10848 0.0
H185 H 0.37079 0.47131 0.19424 0.0
C186 C 0.18327 0.42463 0.16109 0.0
C187 C 0.15731 0.43301 0.1386 0.0
C188 C 0.17373 0.43846 0.11092 0.0
C189 C 0.21797 0.43952 0.10628 0.0
C190 C 0.24471 0.43443 0.12947 0.0
C191 C 0.22749 0.42621 0.15628 0.0
C192 C 0.26688 0.43123 0.17889 0.0
C193 C 0.27761 0.47065 0.20406 0.0
C194 C 0.25213 0.38076 0.18969 0.0
C195 C 0.31027 0.44803 0.16123 0.0
C196 C 0.29637 0.44801 0.13258 0.0
C197 C 0.33137 0.46897 0.11307 0.0
C198 C 0.3818 0.49195 0.12325 0.0
C199 C 0.39676 0.49416 0.15275 0.0
C200 C 0.36036 0.47002 0.17158 0.0
H201 H 0.79794 0.25555 0.4741 0.0
H202 H 0.7941 0.23647 0.56497 0.0
H203 H 0.8635 0.32358 0.57644 0.0
H204 H 0.93502 0.34765 0.4756 0.0
H205 H 0.92276 0.38123 0.44954 0.0
H206 H 0.8824 0.3149 0.44855 0.0
H207 H 0.80676 0.32695 0.45128 0.0
H208 H 0.84669 0.39306 0.45265 0.0
H209 H 0.80711 0.36701 0.48074 0.0
H210 H 0.92257 0.41649 0.57787 0.0
H211 H 0.96536 0.5051 0.56946 0.0
H212 H 0.92514 0.46223 0.47753 0.0
C213 C 0.81303 0.26903 0.49638 0.0
C214 C 0.79121 0.23934 0.51867 0.0
C215 C 0.811 0.25852 0.54759 0.0
C216 C 0.85029 0.30795 0.55425 0.0
C217 C 0.86927 0.3372 0.53169 0.0
C218 C 0.85148 0.31809 0.50328 0.0
C219 C 0.87244 0.35822 0.48317 0.0
C220 C 0.90511 0.35 0.46303 0.0
C221 C 0.83077 0.36149 0.46598 0.0
C222 C 0.90331 0.4034 0.5047 0.0
C223 C 0.90194 0.39063 0.53253 0.0
C224 C 0.92449 0.42674 0.55612 0.0
C225 C 0.9483 0.47701 0.55114 0.0
C226 C 0.94874 0.49077 0.52279 0.0
C227 C 0.9267 0.4532 0.49938 0.0
H228 H 0.6054 0.70064 0.76888 0.0
H229 H 0.75042 0.76998 0.81773 0.0
H230 H 0.76091 0.85265 0.81298 0.0
H231 H 0.62916 0.81001 0.72425 0.0
H232 H 0.56718 0.79729 0.72845 0.0
H233 H 0.57945 0.74692 0.72519 0.0
H234 H 0.54117 0.71862 0.77286 0.0
H235 H 0.53002 0.76921 0.77677 0.0
H236 H 0.56668 0.76177 0.80509 0.0
H237 H 0.74615 0.9229 0.81519 0.0
H238 H 0.70773 0.97418 0.82384 0.0
H239 H 0.56974 0.85796 0.77696 0.0
C240 C 0.64044 0.73345 0.77719 0.0
C241 C 0.67718 0.72944 0.79355 0.0
C242 C 0.72207 0.77268 0.80489 0.0
C243 C 0.72834 0.81972 0.80219 0.0
C244 C 0.6894 0.82245 0.78804 0.0
C245 C 0.64644 0.78031 0.77533 0.0
C246 C 0.60582 0.79131 0.76718 0.0
C247 C 0.59478 0.7861 0.73431 0.0
C248 C 0.55822 0.75832 0.78135 0.0
C249 C 0.63097 0.84497 0.77963 0.0
C250 C 0.67981 0.86298 0.79047 0.0
C251 C 0.7085 0.90977 0.80603 0.0
C252 C 0.68643 0.93843 0.81103 0.0
C253 C 0.63601 0.91942 0.80108 0.0
C254 C 0.60848 0.87293 0.78461 0.0
H255 H 0.85576 0.52628 0.19909 0.0
H256 H 0.9699 0.66865 0.17647 0.0
H257 H 0.90886 0.69588 0.17131 0.0
H258 H 0.7692 0.50802 0.14853 0.0
H259 H 0.71575 0.47937 0.16831 0.0
H260 H 0.76973 0.47589 0.17911 0.0
H261 H 0.77596 0.5159 0.2304 0.0
H262 H 0.72108 0.51863 0.21999 0.0
H263 H 0.77759 0.57425 0.235 0.0
H264 H 0.83445 0.69902 0.15588 0.0
H265 H 0.7513 0.68049 0.13566 0.0
H266 H 0.68424 0.5373 0.16903 0.0
C267 C 0.8682 0.56403 0.19452 0.0
C268 C 0.91722 0.59557 0.1883 0.0
C269 C 0.93234 0.64416 0.18144 0.0
C270 C 0.89799 0.65999 0.17857 0.0
C271 C 0.84895 0.62689 0.18295 0.0
C272 C 0.83413 0.58021 0.19139 0.0
C273 C 0.77812 0.54908 0.19033 0.0
C274 C 0.75702 0.50027 0.17038 0.0
C275 C 0.76226 0.53889 0.22075 0.0
C276 C 0.76377 0.58409 0.17789 0.0
C277 C 0.80519 0.62916 0.17434 0.0
C278 C 0.80164 0.66472 0.15951 0.0
C279 C 0.75457 0.65384 0.1479 0.0
C280 C 0.71203 0.60798 0.15136 0.0
C281 C 0.71649 0.57317 0.16697 0.0
H282 H 0.3624 0.92425 0.50772 0.0
H283 H 0.37574 0.98814 0.42687 0.0
H284 H 0.28888 0.92292 0.40977 0.0
H285 H 0.29875 0.80113 0.477 0.0
H286 H 0.26017 0.77671 0.5057 0.0
H287 H 0.32019 0.83234 0.51305 0.0
H288 H 0.27948 0.87969 0.53444 0.0
H289 H 0.21921 0.82406 0.52718 0.0
H290 H 0.23006 0.88059 0.51312 0.0
H291 H 0.20262 0.84772 0.40065 0.0
H292 H 0.12585 0.76594 0.39872 0.0
H293 H 0.17272 0.74845 0.48433 0.0
C294 C 0.34656 0.9252 0.4867 0.0
C295 C 0.37516 0.96143 0.4687 0.0
C296 C 0.35398 0.9608 0.441 0.0
C297 C 0.30476 0.92407 0.4312 0.0
C298 C 0.27771 0.8882 0.44933 0.0
C299 C 0.298 0.88837 0.47644 0.0
C300 C 0.26323 0.84295 0.49055 0.0
C301 C 0.287 0.81143 0.49693 0.0
C302 C 0.24703 0.85772 0.51794 0.0
C303 C 0.22043 0.81673 0.46697 0.0
C304 C 0.22909 0.84378 0.44357 0.0
C305 C 0.19542 0.82627 0.41887 0.0
C306 C 0.15212 0.77958 0.4179 0.0
C307 C 0.14321 0.75051 0.44132 0.0
C308 C 0.17776 0.76992 0.46626 0.0
H309 H 0.49425 0.30623 0.81597 0.0
H310 H 0.58147 0.36965 0.89894 0.0
H311 H 0.60145 0.30287 0.89801 0.0
H312 H 0.45582 0.16933 0.82264 0.0
H313 H 0.46364 0.16181 0.7852 0.0
H314 H 0.44185 0.20257 0.79713 0.0
H315 H 0.51332 0.27385 0.77421 0.0
H316 H 0.53674 0.2344 0.76328 0.0
H317 H 0.57675 0.29198 0.78567 0.0
H318 H 0.62916 0.24413 0.88259 0.0
H319 H 0.65587 0.1926 0.85569 0.0
H320 H 0.55499 0.17214 0.78151 0.0
C321 C 0.51515 0.30433 0.83466 0.0
C322 C 0.53629 0.34266 0.85753 0.0
C323 C 0.56462 0.34011 0.88135 0.0
C324 C 0.57622 0.3024 0.88094 0.0
C325 C 0.55875 0.26767 0.85669 0.0
C326 C 0.52783 0.26765 0.83421 0.0
C327 C 0.52137 0.2326 0.80846 0.0
C328 C 0.46747 0.18898 0.80305 0.0
C329 C 0.53808 0.25988 0.78135 0.0
C330 C 0.55614 0.21563 0.81917 0.0
C331 C 0.57637 0.2351 0.84726 0.0
C332 C 0.61264 0.22769 0.86084 0.0
C333 C 0.62798 0.199 0.84539 0.0
C334 C 0.60778 0.17925 0.81657 0.0
C335 C 0.57132 0.18747 0.80345 0.0
H336 H 0.52154 0.90441 0.4864 0.0
H337 H 0.67599 0.99622 0.52188 0.0
H338 H 0.68043 0.92052 0.52736 0.0
H339 H 0.48878 0.80564 0.5322 0.0
H340 H 0.44829 0.75724 0.50408 0.0
H341 H 0.45723 0.81866 0.50355 0.0
H342 H 0.48482 0.82283 0.4523 0.0
H343 H 0.47572 0.76137 0.45259 0.0
H344 H 0.53505 0.81233 0.44583 0.0
H345 H 0.66772 0.83233 0.52806 0.0
H346 H 0.64016 0.7426 0.52162 0.0
H347 H 0.49392 0.70962 0.48686 0.0
C348 C 0.55643 0.90886 0.4954 0.0
C349 C 0.59847 0.95683 0.50368 0.0
C350 C 0.6432 0.9603 0.51529 0.0
C351 C 0.64603 0.91728 0.51857 0.0
C352 C 0.60385 0.87067 0.51026 0.0
C353 C 0.5599 0.86636 0.49885 0.0
C354 C 0.52007 0.81218 0.49098 0.0
C355 C 0.47599 0.79758 0.50877 0.0
C356 C 0.50292 0.80157 0.4585 0.0
C357 C 0.54843 0.78656 0.49945 0.0
C358 C 0.59665 0.82073 0.51069 0.0
C359 C 0.6299 0.80538 0.51936 0.0
C360 C 0.61382 0.75416 0.51584 0.0
C361 C 0.5649 0.71856 0.50359 0.0
C362 C 0.5318 0.73552 0.49596 0.0
H363 H 0.78142 0.59676 0.86461 0.0
H364 H 0.70391 0.47408 0.79727 0.0
H365 H 0.77905 0.46715 0.79587 0.0
H366 H 0.90593 0.65192 0.8411 0.0
H367 H 0.93663 0.66562 0.87714 0.0
H368 H 0.8786 0.66423 0.87093 0.0
H369 H 0.84045 0.59915 0.90731 0.0
H370 H 0.89835 0.60043 0.91366 0.0
H371 H 0.84175 0.54232 0.90237 0.0
H372 H 0.86331 0.47346 0.80201 0.0
H373 H 0.94571 0.48591 0.81901 0.0
H374 H 0.96624 0.59943 0.88525 0.0
C375 C 0.78072 0.56904 0.84928 0.0
C376 C 0.73717 0.53648 0.83064 0.0
C377 C 0.73705 0.49964 0.81151 0.0
C378 C 0.77962 0.49555 0.81053 0.0
C379 C 0.82196 0.52795 0.82926 0.0
C380 C 0.82261 0.56354 0.84859 0.0
C381 C 0.87138 0.5908 0.86806 0.0
C382 C 0.89982 0.64645 0.86406 0.0
C383 C 0.86243 0.58267 0.89972 0.0
C384 C 0.89801 0.5651 0.85666 0.0
C385 C 0.86922 0.52955 0.83394 0.0
C386 C 0.88608 0.50117 0.81982 0.0
C387 C 0.93306 0.50864 0.8295 0.0
C388 C 0.96245 0.54358 0.85341 0.0
C389 C 0.9446 0.57238 0.86693 0.0
H390 H 0.21992 0.63353 0.18537 0.0
H391 H 0.11971 0.68227 0.15485 0.0
H392 H 0.19103 0.767 0.15352 0.0
H393 H 0.2983 0.74378 0.23326 0.0
H394 H 0.35505 0.74454 0.2277 0.0
H395 H 0.29682 0.68649 0.22339 0.0
H396 H 0.31291 0.66825 0.17171 0.0
H397 H 0.3711 0.72649 0.17582 0.0
H398 H 0.32502 0.71283 0.14618 0.0
H399 H 0.27285 0.84677 0.15585 0.0
H400 H 0.35815 0.91856 0.16797 0.0
H401 H 0.40553 0.82093 0.20078 0.0
C402 C 0.21328 0.66203 0.17811 0.0
C403 C 0.16439 0.65136 0.16994 0.0
C404 C 0.15689 0.68975 0.16118 0.0
C405 C 0.19719 0.7379 0.16017 0.0
C406 C 0.24494 0.74748 0.16846 0.0
C407 C 0.25319 0.7109 0.17773 0.0
C408 C 0.30782 0.7324 0.18794 0.0
C409 C 0.3149 0.72646 0.21997 0.0
C410 C 0.33055 0.70857 0.1693 0.0
C411 C 0.32873 0.78665 0.18314 0.0
C412 C 0.29195 0.79426 0.1713 0.0
C413 C 0.302 0.84125 0.16509 0.0
C414 C 0.35062 0.88179 0.17185 0.0
C415 C 0.38849 0.87533 0.18515 0.0
C416 C 0.37734 0.82691 0.19048 0.0
H417 H 0.51975 0.20269 0.52355 0.0
H418 H 0.63174 0.24972 0.46398 0.0
H419 H 0.63567 0.33048 0.46408 0.0
H420 H 0.457 0.26765 0.49674 0.0
H421 H 0.4483 0.2854 0.53228 0.0
H422 H 0.45016 0.2292 0.52526 0.0
H423 H 0.5213 0.26019 0.56657 0.0
H424 H 0.51973 0.31648 0.57365 0.0
H425 H 0.57698 0.31976 0.56623 0.0
H426 H 0.62973 0.40782 0.47176 0.0
H427 H 0.61885 0.47747 0.48916 0.0
H428 H 0.51417 0.38329 0.54594 0.0
C429 C 0.54421 0.22964 0.51006 0.0
C430 C 0.57484 0.21948 0.49332 0.0
C431 C 0.60762 0.25643 0.47673 0.0
C432 C 0.61006 0.30246 0.47663 0.0
C433 C 0.58 0.31171 0.4936 0.0
C434 C 0.54794 0.27652 0.51021 0.0
C435 C 0.52276 0.29763 0.52827 0.0
C436 C 0.46619 0.26821 0.52014 0.0
C437 C 0.53599 0.29857 0.56059 0.0
C438 C 0.54582 0.35004 0.51932 0.0
C439 C 0.57822 0.35712 0.49898 0.0
C440 C 0.60429 0.40257 0.48762 0.0
C441 C 0.59765 0.44196 0.49753 0.0
C442 C 0.56565 0.43622 0.51892 0.0
C443 C 0.53914 0.38921 0.52968 0.0
H444 H 0.48587 0.61002 0.82633 0.0
H445 H 0.42518 0.46278 0.85467 0.0
H446 H 0.34502 0.45786 0.85839 0.0
H447 H 0.42093 0.6505 0.87291 0.0
H448 H 0.41027 0.68445 0.84641 0.0
H449 H 0.4638 0.67728 0.84637 0.0
H450 H 0.43694 0.63886 0.79328 0.0
H451 H 0.3833 0.64581 0.79309 0.0
H452 H 0.37563 0.5856 0.78338 0.0
H453 H 0.2692 0.46688 0.85738 0.0
H454 H 0.20469 0.48975 0.85148 0.0
H455 H 0.31467 0.63263 0.82641 0.0
C456 C 0.45583 0.57682 0.83342 0.0
C457 C 0.46241 0.53683 0.84016 0.0
C458 C 0.42171 0.49412 0.84935 0.0
C459 C 0.37571 0.49085 0.85159 0.0
C460 C 0.37043 0.53067 0.84475 0.0
C461 C 0.4094 0.57297 0.83596 0.0
C462 C 0.39345 0.61021 0.82966 0.0
C463 C 0.42393 0.65847 0.85006 0.0
C464 C 0.39757 0.62071 0.79797 0.0
C465 C 0.33944 0.58194 0.83594 0.0
C466 C 0.32691 0.53616 0.84465 0.0
C467 C 0.27875 0.5029 0.85081 0.0
C468 C 0.24227 0.51644 0.84762 0.0
C469 C 0.25385 0.56303 0.83839 0.0
C470 C 0.30369 0.59632 0.83302 0.0
H471 H 0.84756 0.39309 0.16586 0.0
H472 H 0.93357 0.32077 0.15547 0.0
H473 H 0.85823 0.23925 0.15798 0.0
H474 H 0.76733 0.31362 0.21548 0.0
H475 H 0.71306 0.3132 0.19986 0.0
H476 H 0.77399 0.36607 0.19803 0.0
H477 H 0.75678 0.35757 0.14257 0.0
H478 H 0.69568 0.30493 0.14419 0.0
H479 H 0.73783 0.29911 0.12202 0.0
H480 H 0.7724 0.16465 0.16189 0.0
H481 H 0.68276 0.10372 0.16248 0.0
H482 H 0.65303 0.22472 0.16948 0.0
C483 C 0.85066 0.36016 0.16414 0.0
C484 C 0.89677 0.3636 0.16049 0.0
C485 C 0.89883 0.31934 0.15815 0.0
C486 C 0.8562 0.27276 0.15972 0.0
C487 C 0.81146 0.27075 0.16349 0.0
C488 C 0.80836 0.31329 0.1654 0.0
C489 C 0.7555 0.30088 0.16832 0.0
C490 C 0.75231 0.32487 0.19714 0.0
C491 C 0.73526 0.31654 0.14275 0.0
C492 C 0.72928 0.24472 0.16761 0.0
C493 C 0.76222 0.22801 0.16514 0.0
C494 C 0.74633 0.17742 0.16384 0.0
C495 C 0.69538 0.14303 0.1644 0.0
C496 C 0.66073 0.15926 0.16595 0.0
C497 C 0.67843 0.21098 0.16807 0.0
H498 H 1.02891 0.58361 0.0722 0.0
H499 H 0.03381 0.45026 0.08504 0.0
H500 H 0.0511 0.44459 0.03434 0.0
H501 H 0.9636 0.54058 0.00203 0.0
H502 H 0.99545 0.60101 0.98921 0.0
H503 H 0.98742 0.59591 0.02681 0.0
H504 H 0.08264 0.65245 0.0398 0.0
H505 H 0.09101 0.65741 0.00219 0.0
H506 H 0.12384 0.63554 0.02412 0.0
H507 H 0.06772 0.45452 0.98139 0.0
H508 H 0.07272 0.47339 0.93052 0.0
H509 H 0.05118 0.59687 0.95291 0.0
C510 C 0.03389 0.55329 0.06446 0.0
C511 C 0.03092 0.5178 0.08266 0.0
C512 C 0.03686 0.47831 0.07157 0.0
C513 C 0.04663 0.47485 0.04282 0.0
C514 C 0.04966 0.51083 0.02547 0.0
C515 C 0.04277 0.54889 0.03589 0.0
C516 C 0.04458 0.58115 0.01269 0.0
C517 C 0.9948 0.57953 0.00737 0.0
C518 C 0.08812 0.63481 0.02015 0.0
C519 C 0.05333 0.55528 0.9874 0.0
C520 C 0.05697 0.51526 0.99517 0.0
C521 C 0.06488 0.48576 0.97514 0.0
C522 C 0.06797 0.49686 0.9464 0.0
C523 C 0.06238 0.53654 0.93798 0.0
C524 C 0.05563 0.56636 0.95886 0.0
H525 H 0.60687 0.12016 0.39495 0.0
H526 H 0.54337 0.9786 0.43021 0.0
H527 H 0.51138 0.93464 0.3809 0.0
H528 H 0.50213 0.07979 0.33883 0.0
H529 H 0.5421 0.11766 0.31344 0.0
H530 H 0.55897 0.13692 0.35148 0.0
H531 H 0.64351 0.14236 0.34687 0.0
H532 H 0.62645 0.12207 0.30896 0.0
H533 H 0.64441 0.08844 0.33196 0.0
H534 H 0.49612 0.90752 0.32735 0.0
H535 H 0.48286 0.89731 0.27451 0.0
H536 H 0.54527 0.05687 0.275 0.0
C537 C 0.58549 0.07989 0.39217 0.0
C538 C 0.57732 0.05242 0.41603 0.0
C539 C 0.54937 0.99996 0.41199 0.0
C540 C 0.53152 0.97485 0.38413 0.0
C541 C 0.54107 1.00302 0.36084 0.0
C542 C 0.56607 0.05437 0.36466 0.0
C543 C 0.56972 0.07587 0.3362 0.0
C544 C 0.54153 0.10422 0.33491 0.0
C545 C 0.62427 0.10914 0.33069 0.0
C546 C 0.54397 0.02864 0.31566 0.0
C547 C 0.5285 0.98713 0.33025 0.0
C548 C 0.50669 0.93965 0.31575 0.0
C549 C 0.49902 0.93429 0.2856 0.0
C550 C 0.51172 0.97602 0.27009 0.0
C551 C 0.53516 0.02389 0.28565 0.0
H552 H 0.50959 0.45591 0.73279 0.0
H553 H 0.64716 0.59241 0.76312 0.0
H554 H 0.65503 0.61711 0.71373 0.0
H555 H 0.5538 0.43308 0.66903 0.0
H556 H 0.49484 0.40591 0.64728 0.0
H557 H 0.49672 0.40206 0.6855 0.0
H558 H 0.44331 0.44341 0.68971 0.0
H559 H 0.44143 0.44753 0.65147 0.0
H560 H 0.46393 0.50268 0.6762 0.0
H561 H 0.64863 0.62607 0.66059 0.0
H562 H 0.6341 0.61392 0.60729 0.0
H563 H 0.5055 0.46801 0.61107 0.0
C564 C 0.54092 0.49136 0.72908 0.0
C565 C 0.57689 0.52314 0.75194 0.0
C566 C 0.61826 0.56839 0.7461 0.0
C567 C 0.62316 0.5826 0.71807 0.0
C568 C 0.58694 0.55054 0.69599 0.0
C569 C 0.54706 0.50546 0.70109 0.0
C570 C 0.51599 0.47563 0.67323 0.0
C571 C 0.51533 0.42626 0.66849 0.0
C572 C 0.46303 0.46681 0.67263 0.0
C573 C 0.54478 0.51078 0.65165 0.0
C574 C 0.58503 0.55423 0.66524 0.0
C575 C 0.61722 0.59221 0.64973 0.0
C576 C 0.60862 0.58515 0.61954 0.0
C577 C 0.56875 0.54013 0.60524 0.0
C578 C 0.53622 0.50279 0.62157 0.0
H579 H 0.55792 0.02198 0.59054 0.0
H580 H 0.65308 0.17294 0.57067 0.0
H581 H 0.68712 0.19869 0.62216 0.0
H582 H 0.52365 0.05182 0.65342 0.0
H583 H 0.5222 1.00239 0.67192 0.0
H584 H 0.51166 0.99523 0.63332 0.0
H585 H 0.58351 0.97729 0.62987 0.0
H586 H 0.59419 0.98423 0.66859 0.0
H587 H 0.64436 0.02122 0.64785 0.0
H588 H 0.70251 0.2087 0.67715 0.0
H589 H 0.69914 0.20192 0.72952 0.0
H590 H 0.59149 0.04424 0.71151 0.0
C591 C 0.58672 0.06029 0.59689 0.0
C592 C 0.60304 0.09555 0.57681 0.0
C593 C 0.64045 0.14537 0.58584 0.0
C594 C 0.65989 0.16022 0.61498 0.0
C595 C 0.64174 0.12458 0.63449 0.0
C596 C 0.60627 0.07551 0.62563 0.0
C597 C 0.58966 0.04495 0.65072 0.0
C598 C 0.53349 0.02231 0.65243 0.0
C599 C 0.60379 1.00454 0.64916 0.0
C600 C 0.62002 0.08468 0.67531 0.0
C601 C 0.65037 0.1303 0.66569 0.0
C602 C 0.67941 0.17299 0.68486 0.0
C603 C 0.67701 0.16886 0.71453 0.0
C604 C 0.64551 0.12243 0.72468 0.0
C605 C 0.61715 0.07997 0.70463 0.0
H606 H 0.66756 0.64057 0.9334 0.0
H607 H 0.54752 0.49177 0.90246 0.0
H608 H 0.53028 0.47435 0.95275 0.0
H609 H 0.71152 0.60603 0.99607 0.0
H610 H 0.72755 0.66239 0.01805 0.0
H611 H 0.72957 0.66253 0.9797 0.0
H612 H 0.66982 0.69702 0.97693 0.0
H613 H 0.66729 0.69662 0.01523 0.0
H614 H 0.61069 0.66377 0.9911 0.0
H615 H 0.52428 0.47541 0.00665 0.0
H616 H 0.53536 0.49159 0.05988 0.0
H617 H 0.66208 0.63828 0.05488 0.0
C618 C 0.63775 0.60426 0.93726 0.0
C619 C 0.60871 0.56746 0.91425 0.0
C620 C 0.57026 0.52028 0.91995 0.0
C621 C 0.5601 0.51022 0.94837 0.0
C622 C 0.5892 0.54762 0.97066 0.0
C623 C 0.6277 0.59344 0.96539 0.0
C624 C 0.65439 0.6269 0.99302 0.0
C625 C 0.70898 0.64022 0.99693 0.0
C626 C 0.65027 0.67384 0.99412 0.0
C627 C 0.62471 0.59298 0.01475 0.0
C628 C 0.58692 0.54758 0.00148 0.0
C629 C 0.55394 0.51069 0.01725 0.0
C630 C 0.56029 0.52025 0.04738 0.0
C631 C 0.59963 0.56604 0.06129 0.0
C632 C 0.63196 0.60282 0.0447 0.0
H633 H 0.04191 0.57237 0.24152 0.0
H634 H 1.01526 0.4254 0.25464 0.0
H635 H 1.00471 0.43882 0.30566 0.0
H636 H 0.11429 0.63262 0.30681 0.0
H637 H 0.09022 0.67353 0.31272 0.0
H638 H 0.0902 0.65023 0.27665 0.0
H639 H 0.99525 0.61453 0.26719 0.0
H640 H 0.99501 0.63789 0.3033 0.0
H641 H 0.9545 0.57289 0.29099 0.0
H642 H 1.00521 0.47138 0.35616 0.0
H643 H 1.01788 0.521 0.40228 0.0
H644 H 0.04153 0.64574 0.35593 0.0
C645 C 0.03313 0.54278 0.25507 0.0
C646 C 1.02944 0.49788 0.24426 0.0
C647 C 1.01823 0.46009 0.26258 0.0
C648 C 1.012 0.4673 0.29153 0.0
C649 C 1.01666 0.51233 0.30171 0.0
C650 C 1.02671 0.54935 0.28399 0.0
C651 C 0.0329 0.59541 0.30064 0.0
C652 C 0.08499 0.64059 0.29911 0.0
C653 C 0.99197 0.60578 0.28989 0.0
C654 C 1.02646 0.57914 0.33065 0.0
C655 C 1.0165 0.53091 0.33078 0.0
C656 C 1.01218 0.50892 0.35628 0.0
C657 C 1.01919 0.53732 0.38239 0.0
C658 C 0.03066 0.58728 0.38279 0.0
C659 C 0.0331 0.60777 0.35642 0.0
loop_
_geom_bond_atom_site_label_1
_geom_bond_atom_site_label_2
_geom_bond_distance
_geom_bond_site_symmetry_2
_ccdc_geom_bond_type
Dy0 O4 2.398 . S
Dy0 O5 2.491 . S
Dy0 O6 2.403 . S
Dy0 O7 2.664 . S
Dy0 O11 2.326 . S
Dy0 O15 2.310 . S
Dy0 O16 2.351 1_455 S
C1 O12 1.185 . S
C1 O13 1.355 . S
C2 O4 1.185 . S
C2 O5 1.355 . S
Dy3 O7 2.319 . S
Dy3 O10 2.365 . S
Dy3 O12 2.381 1_455 S
Dy3 O13 2.477 1_455 S
Dy3 O14 2.407 . S
Dy3 O15 2.680 . S
Dy3 O17 2.325 1_455 S
O4 Dy0 2.398 . S
O4 C2 1.185 . S
O5 Dy0 2.491 . S
O5 C2 1.355 . S
O6 Dy0 2.403 . S
O6 C8 1.254 . S
O7 Dy0 2.664 . S
O7 Dy3 2.319 . S
O7 C8 1.268 . S
C8 O6 1.254 . S
C8 O7 1.268 . S
C9 O14 1.254 . S
C9 O15 1.268 . S
O10 Dy3 2.365 . S
O10 C18 1.249 . S
O11 Dy0 2.326 . S
O11 C18 1.267 . S
O12 C1 1.185 . S
O12 Dy3 2.381 1_655 S
O13 C1 1.355 . S
O13 Dy3 2.477 1_655 S
O14 Dy3 2.407 . S
O14 C9 1.254 . S
O15 Dy0 2.310 . S
O15 Dy3 2.680 . S
O15 C9 1.268 . S
O16 Dy0 2.351 1_655 S
O16 C19 1.249 . S
O17 Dy3 2.325 1_655 S
O17 C19 1.267 . S
C18 O10 1.249 . S
C18 O11 1.267 . S
C19 O16 1.249 . S
C19 O17 1.267 . S
Dy20 O24 2.384 1_545 S
Dy20 O25 2.476 1_545 S
Dy20 O26 2.401 . S
Dy20 O27 2.666 . S
Dy20 O31 2.305 1_545 S
Dy20 O35 2.308 . S
Dy20 O36 2.374 . S
C21 O32 1.185 . S
C21 O33 1.355 . S
C22 O24 1.185 . S
C22 O25 1.355 . S
Dy23 O27 2.310 . S
Dy23 O30 2.351 1_545 S
Dy23 O32 2.398 . S
Dy23 O33 2.491 . S
Dy23 O34 2.403 . S
Dy23 O35 2.664 . S
Dy23 O37 2.326 . S
O24 Dy20 2.384 1_565 S
O24 C22 1.185 . S
O25 Dy20 2.476 1_565 S
O25 C22 1.355 . S
O26 Dy20 2.401 . S
O26 C28 1.254 . S
O27 Dy20 2.666 . S
O27 Dy23 2.310 . S
O27 C28 1.268 . S
C28 O26 1.254 . S
C28 O27 1.268 . S
C29 O34 1.254 . S
C29 O35 1.268 . S
O30 Dy23 2.351 1_565 S
O30 C38 1.249 . S
O31 Dy20 2.305 1_565 S
O31 C38 1.267 . S
O32 C21 1.185 . S
O32 Dy23 2.398 . S
O33 C21 1.355 . S
O33 Dy23 2.491 . S
O34 Dy23 2.403 . S
O34 C29 1.254 . S
O35 Dy20 2.308 . S
O35 Dy23 2.664 . S
O35 C29 1.268 . S
O36 Dy20 2.374 . S
O36 C39 1.249 . S
O37 Dy23 2.326 . S
O37 C39 1.267 . S
C38 O30 1.249 . S
C38 O31 1.267 . S
C39 O36 1.249 . S
C39 O37 1.267 . S
Dy40 O44 2.398 . S
Dy40 O45 2.491 . S
Dy40 O46 2.403 . S
Dy40 O47 2.664 . S
Dy40 O51 2.326 . S
Dy40 O55 2.310 . S
Dy40 O56 2.351 . S
C41 O52 1.185 . S
C41 O53 1.355 . S
C42 O44 1.185 . S
C42 O45 1.355 . S
Dy43 O47 2.310 . S
Dy43 O50 2.351 . S
Dy43 O52 2.398 . S
Dy43 O53 2.491 . S
Dy43 O54 2.403 . S
Dy43 O55 2.664 . S
Dy43 O57 2.326 . S
O44 Dy40 2.398 . S
O44 C42 1.185 . S
O45 Dy40 2.491 . S
O45 C42 1.355 . S
O46 Dy40 2.403 . S
O46 C48 1.254 . S
O47 Dy40 2.664 . S
O47 Dy43 2.310 . S
O47 C48 1.268 . S
C48 O46 1.254 . S
C48 O47 1.268 . S
C49 O54 1.254 . S
C49 O55 1.268 . S
O50 Dy43 2.351 . S
O50 C58 1.249 . S
O51 Dy40 2.326 . S
O51 C58 1.267 . S
O52 C41 1.185 . S
O52 Dy43 2.398 . S
O53 C41 1.355 . S
O53 Dy43 2.491 . S
O54 Dy43 2.403 . S
O54 C49 1.254 . S
O55 Dy40 2.310 . S
O55 Dy43 2.664 . S
O55 C49 1.268 . S
O56 Dy40 2.351 . S
O56 C59 1.249 . S
O57 Dy43 2.326 . S
O57 C59 1.267 . S
C58 O50 1.249 . S
C58 O51 1.267 . S
C59 O56 1.249 . S
C59 O57 1.267 . S
H60 C61 0.949 . S
C61 H60 0.949 . S
C61 C62 1.395 . S
C61 C63 1.391 . S
C62 C61 1.395 . S
C62 C65 1.390 1_545 S
C63 C61 1.391 . S
C63 C67 1.387 1_545 S
C63 C68 1.491 . S
H64 C65 0.950 . S
C65 C62 1.390 1_565 S
C65 H64 0.950 . S
C65 C66 1.378 . S
C66 C65 1.378 . S
C66 C67 1.409 . S
C67 C63 1.387 1_565 S
C67 C66 1.409 . S
C67 H69 0.951 . S
C68 C63 1.491 . S
C68 C70 1.382 . S
C68 C72 1.404 . S
H69 C67 0.951 . S
C70 C68 1.382 . S
C70 C71 1.390 . S
C70 H75 0.949 . S
C71 C70 1.390 . S
C71 C76 1.399 . S
C72 C68 1.404 . S
C72 H73 0.950 . S
C72 C74 1.375 . S
H73 C72 0.950 . S
C74 C72 1.375 . S
C74 C76 1.382 . S
C74 H78 0.950 . S
H75 C70 0.949 . S
C76 C71 1.399 . S
C76 C74 1.382 . S
C76 H77 0.952 . S
H77 C76 0.952 . S
H78 C74 0.950 . S
H79 C80 0.949 . S
C80 H79 0.949 . S
C80 C81 1.395 . S
C80 C82 1.391 . S
C81 C80 1.395 . S
C81 C84 1.390 . S
C82 C80 1.391 . S
C82 C86 1.387 . S
C82 C87 1.491 . S
H83 C84 0.950 . S
C84 C81 1.390 . S
C84 H83 0.950 . S
C84 C85 1.378 . S
C85 C84 1.378 . S
C85 C86 1.409 . S
C86 C82 1.387 . S
C86 C85 1.409 . S
C86 H88 0.951 . S
C87 C82 1.491 . S
C87 C89 1.382 . S
C87 C91 1.404 . S
H88 C86 0.951 . S
C89 C87 1.382 . S
C89 C90 1.390 . S
C89 H94 0.949 . S
C90 C89 1.390 . S
C90 C95 1.399 . S
C91 C87 1.404 . S
C91 H92 0.950 . S
C91 C93 1.375 . S
H92 C91 0.950 . S
C93 C91 1.375 . S
C93 C95 1.382 . S
C93 H97 0.950 . S
H94 C89 0.949 . S
C95 C90 1.399 . S
C95 C93 1.382 . S
C95 H96 0.952 . S
H96 C95 0.952 . S
H97 C93 0.950 . S
H98 C99 0.949 . S
C99 H98 0.949 . S
C99 C100 1.395 . S
C99 C101 1.391 . S
C100 C99 1.395 . S
C100 C103 1.390 . S
C101 C99 1.391 . S
C101 C105 1.387 . S
C101 C106 1.491 . S
H102 C103 0.950 1_655 S
C103 C100 1.390 . S
C103 H102 0.950 1_455 S
C103 C104 1.378 1_455 S
C104 C103 1.378 1_655 S
C104 C105 1.409 1_655 S
C105 C101 1.387 . S
C105 C104 1.409 1_455 S
C105 H107 0.951 . S
C106 C101 1.491 . S
C106 C108 1.382 . S
C106 C110 1.404 . S
H107 C105 0.951 . S
C108 C106 1.382 . S
C108 C109 1.390 . S
C108 H113 0.949 . S
C109 C108 1.390 . S
C109 C114 1.399 . S
C110 C106 1.404 . S
C110 H111 0.950 . S
C110 C112 1.375 . S
H111 C110 0.950 . S
C112 C110 1.375 . S
C112 C114 1.382 . S
C112 H116 0.950 . S
H113 C108 0.949 . S
C114 C109 1.399 . S
C114 C112 1.382 . S
C114 H115 0.952 . S
H115 C114 0.952 . S
H116 C112 0.950 . S
H117 C118 0.949 . S
C118 H117 0.949 . S
C118 C119 1.395 1_655 S
C118 C120 1.391 . S
C119 C118 1.395 1_455 S
C119 C122 1.390 . S
C120 C118 1.391 . S
C120 C124 1.389 1_655 S
C120 C125 1.489 . S
H121 C122 0.950 . S
C122 C119 1.390 . S
C122 H121 0.950 . S
C122 C123 1.378 . S
C123 C122 1.378 . S
C123 C124 1.409 . S
C124 C120 1.389 1_455 S
C124 C123 1.409 . S
C124 H126 0.951 . S
C125 C120 1.489 . S
C125 C127 1.382 . S
C125 C129 1.404 . S
H126 C124 0.951 . S
C127 C125 1.382 . S
C127 C128 1.390 . S
C127 H132 0.949 . S
C128 C127 1.390 . S
C128 C133 1.399 . S
C129 C125 1.404 . S
C129 H130 0.950 . S
C129 C131 1.375 . S
H130 C129 0.950 . S
C131 C129 1.375 . S
C131 C133 1.382 . S
C131 H135 0.950 . S
H132 C127 0.949 . S
C133 C128 1.399 . S
C133 C131 1.382 . S
C133 H134 0.952 . S
H134 C133 0.952 . S
H135 C131 0.950 . S
H136 C137 0.949 1_565 S
C137 H136 0.949 1_545 S
C137 C138 1.395 . S
C137 C139 1.391 . S
C138 C137 1.395 . S
C138 C141 1.390 . S
C139 C137 1.391 . S
C139 C143 1.387 . S
C139 C144 1.491 1_545 S
H140 C141 0.950 . S
C141 C138 1.390 . S
C141 H140 0.950 . S
C141 C142 1.378 . S
C142 C141 1.378 . S
C142 C143 1.409 . S
C143 C139 1.387 . S
C143 C142 1.409 . S
C143 H145 0.951 . S
C144 C139 1.491 1_565 S
C144 C146 1.382 . S
C144 C148 1.404 . S
H145 C143 0.951 . S
C146 C144 1.382 . S
C146 C147 1.390 . S
C146 H151 0.949 . S
C147 C146 1.390 . S
C147 C152 1.399 . S
C148 C144 1.404 . S
C148 H149 0.950 1_565 S
C148 C150 1.375 . S
H149 C148 0.950 1_545 S
C150 C148 1.375 . S
C150 C152 1.382 . S
C150 H154 0.950 . S
H151 C146 0.949 . S
C152 C147 1.399 . S
C152 C150 1.382 . S
C152 H153 0.952 . S
H153 C152 0.952 . S
H154 C150 0.950 . S
H155 C156 0.949 . S
C156 H155 0.949 . S
C156 C157 1.395 . S
C156 C158 1.391 . S
C157 C156 1.395 . S
C157 C160 1.390 . S
C158 C156 1.391 . S
C158 C162 1.387 . S
C158 C163 1.491 . S
H159 C160 0.950 . S
C160 C157 1.390 . S
C160 H159 0.950 . S
C160 C161 1.378 . S
C161 C160 1.378 . S
C161 C162 1.409 . S
C162 C158 1.387 . S
C162 C161 1.409 . S
C162 H164 0.951 . S
C163 C158 1.491 . S
C163 C165 1.382 . S
C163 C167 1.404 . S
H164 C162 0.951 . S
C165 C163 1.382 . S
C165 C166 1.390 . S
C165 H170 0.949 . S
C166 C165 1.390 . S
C166 C171 1.399 . S
C167 C163 1.404 . S
C167 H168 0.950 . S
C167 C169 1.375 . S
H168 C167 0.950 . S
C169 C167 1.375 . S
C169 C171 1.382 . S
C169 H173 0.950 . S
H170 C165 0.949 . S
C171 C166 1.399 . S
C171 C169 1.382 . S
C171 H172 0.952 . S
H172 C171 0.952 . S
H173 C169 0.950 . S
H174 C186 0.930 . S
H175 C188 0.930 . S
H176 C189 0.930 . S
H177 C193 0.959 . S
H178 C193 0.959 . S
H179 C193 0.961 . S
H180 C194 0.960 . S
H181 C194 0.961 . S
H182 C194 0.959 . S
H183 C197 0.929 . S
H184 C198 0.931 . S
H185 C200 0.930 . S
C186 H174 0.930 . S
C186 C187 1.399 . S
C186 C191 1.399 . S
C187 C186 1.399 . S
C187 C188 1.376 . S
C188 H175 0.930 . S
C188 C187 1.376 . S
C188 C189 1.388 . S
C189 H176 0.930 . S
C189 C188 1.388 . S
C189 C190 1.390 . S
C190 C189 1.390 . S
C190 C191 1.394 . S
C190 C196 1.465 . S
C191 C186 1.399 . S
C191 C190 1.394 . S
C191 C192 1.516 . S
C192 C191 1.516 . S
C192 C193 1.502 . S
C192 C194 1.561 . S
C192 C195 1.526 . S
C193 H177 0.959 . S
C193 H178 0.959 . S
C193 H179 0.961 . S
C193 C192 1.502 . S
C194 H180 0.960 . S
C194 H181 0.961 . S
C194 H182 0.959 . S
C194 C192 1.561 . S
C195 C192 1.526 . S
C195 C196 1.396 . S
C195 C200 1.390 . S
C196 C190 1.465 . S
C196 C195 1.396 . S
C196 C197 1.399 . S
C197 H183 0.929 . S
C197 C196 1.399 . S
C197 C198 1.385 . S
C198 H184 0.931 . S
C198 C197 1.385 . S
C198 C199 1.389 . S
C199 C198 1.389 . S
C199 C200 1.387 . S
C200 H185 0.930 . S
C200 C195 1.390 . S
C200 C199 1.387 . S
H201 C213 0.930 . S
H202 C215 0.930 . S
H203 C216 0.930 . S
H204 C220 0.959 . S
H205 C220 0.959 . S
H206 C220 0.961 . S
H207 C221 0.960 . S
H208 C221 0.961 . S
H209 C221 0.959 . S
H210 C224 0.929 . S
H211 C225 0.931 . S
H212 C227 0.930 . S
C213 H201 0.930 . S
C213 C214 1.399 . S
C213 C218 1.399 . S
C214 C213 1.399 . S
C214 C215 1.376 . S
C215 H202 0.930 . S
C215 C214 1.376 . S
C215 C216 1.388 . S
C216 H203 0.930 . S
C216 C215 1.388 . S
C216 C217 1.390 . S
C217 C216 1.390 . S
C217 C218 1.394 . S
C217 C223 1.465 . S
C218 C213 1.399 . S
C218 C217 1.394 . S
C218 C219 1.516 . S
C219 C218 1.516 . S
C219 C220 1.502 . S
C219 C221 1.561 . S
C219 C222 1.526 . S
C220 H204 0.959 . S
C220 H205 0.959 . S
C220 H206 0.961 . S
C220 C219 1.502 . S
C221 H207 0.960 . S
C221 H208 0.961 . S
C221 H209 0.959 . S
C221 C219 1.561 . S
C222 C219 1.526 . S
C222 C223 1.396 . S
C222 C227 1.390 . S
C223 C217 1.465 . S
C223 C222 1.396 . S
C223 C224 1.399 . S
C224 H210 0.929 . S
C224 C223 1.399 . S
C224 C225 1.385 . S
C225 H211 0.931 . S
C225 C224 1.385 . S
C225 C226 1.389 . S
C226 C225 1.389 . S
C226 C227 1.387 . S
C227 H212 0.930 . S
C227 C222 1.390 . S
C227 C226 1.387 . S
H228 C240 0.930 . S
H229 C242 0.930 . S
H230 C243 0.930 . S
H231 C247 0.959 . S
H232 C247 0.959 . S
H233 C247 0.961 . S
H234 C248 0.960 . S
H235 C248 0.961 . S
H236 C248 0.959 . S
H237 C251 0.929 . S
H238 C252 0.931 . S
H239 C254 0.930 . S
C240 H228 0.930 . S
C240 C241 1.399 . S
C240 C245 1.399 . S
C241 C240 1.399 . S
C241 C242 1.376 . S
C242 H229 0.930 . S
C242 C241 1.376 . S
C242 C243 1.388 . S
C243 H230 0.930 . S
C243 C242 1.388 . S
C243 C244 1.390 . S
C244 C243 1.390 . S
C244 C245 1.394 . S
C244 C250 1.465 . S
C245 C240 1.399 . S
C245 C244 1.394 . S
C245 C246 1.516 . S
C246 C245 1.516 . S
C246 C247 1.502 . S
C246 C248 1.561 . S
C246 C249 1.526 . S
C247 H231 0.959 . S
C247 H232 0.959 . S
C247 H233 0.961 . S
C247 C246 1.502 . S
C248 H234 0.960 . S
C248 H235 0.961 . S
C248 H236 0.959 . S
C248 C246 1.561 . S
C249 C246 1.526 . S
C249 C250 1.396 . S
C249 C254 1.390 . S
C250 C244 1.465 . S
C250 C249 1.396 . S
C250 C251 1.399 . S
C251 H237 0.929 . S
C251 C250 1.399 . S
C251 C252 1.385 . S
C252 H238 0.931 . S
C252 C251 1.385 . S
C252 C253 1.389 . S
C253 C252 1.389 . S
C253 C254 1.387 . S
C254 H239 0.930 . S
C254 C249 1.390 . S
C254 C253 1.387 . S
H255 C267 0.930 . S
H256 C269 0.930 . S
H257 C270 0.930 . S
H258 C274 0.959 . S
H259 C274 0.959 . S
H260 C274 0.961 . S
H261 C275 0.960 . S
H262 C275 0.961 . S
H263 C275 0.959 . S
H264 C278 0.929 . S
H265 C279 0.931 . S
H266 C281 0.930 . S
C267 H255 0.930 . S
C267 C268 1.399 . S
C267 C272 1.399 . S
C268 C267 1.399 . S
C268 C269 1.376 . S
C269 H256 0.930 . S
C269 C268 1.376 . S
C269 C270 1.388 . S
C270 H257 0.930 . S
C270 C269 1.388 . S
C270 C271 1.390 . S
C271 C270 1.390 . S
C271 C272 1.394 . S
C271 C277 1.465 . S
C272 C267 1.399 . S
C272 C271 1.394 . S
C272 C273 1.516 . S
C273 C272 1.516 . S
C273 C274 1.502 . S
C273 C275 1.561 . S
C273 C276 1.526 . S
C274 H258 0.959 . S
C274 H259 0.959 . S
C274 H260 0.961 . S
C274 C273 1.502 . S
C275 H261 0.960 . S
C275 H262 0.961 . S
C275 H263 0.959 . S
C275 C273 1.561 . S
C276 C273 1.526 . S
C276 C277 1.396 . S
C276 C281 1.390 . S
C277 C271 1.465 . S
C277 C276 1.396 . S
C277 C278 1.399 . S
C278 H264 0.929 . S
C278 C277 1.399 . S
C278 C279 1.385 . S
C279 H265 0.931 . S
C279 C278 1.385 . S
C279 C280 1.389 . S
C280 C279 1.389 . S
C280 C281 1.387 . S
C281 H266 0.930 . S
C281 C276 1.390 . S
C281 C280 1.387 . S
H282 C294 0.930 . S
H283 C296 0.930 . S
H284 C297 0.930 . S
H285 C301 0.959 . S
H286 C301 0.959 . S
H287 C301 0.961 . S
H288 C302 0.960 . S
H289 C302 0.961 . S
H290 C302 0.959 . S
H291 C305 0.929 . S
H292 C306 0.931 . S
H293 C308 0.930 . S
C294 H282 0.930 . S
C294 C295 1.399 . S
C294 C299 1.399 . S
C295 C294 1.399 . S
C295 C296 1.376 . S
C296 H283 0.930 . S
C296 C295 1.376 . S
C296 C297 1.388 . S
C297 H284 0.930 . S
C297 C296 1.388 . S
C297 C298 1.390 . S
C298 C297 1.390 . S
C298 C299 1.394 . S
C298 C304 1.465 . S
C299 C294 1.399 . S
C299 C298 1.394 . S
C299 C300 1.516 . S
C300 C299 1.516 . S
C300 C301 1.502 . S
C300 C302 1.561 . S
C300 C303 1.526 . S
C301 H285 0.959 . S
C301 H286 0.959 . S
C301 H287 0.961 . S
C301 C300 1.502 . S
C302 H288 0.960 . S
C302 H289 0.961 . S
C302 H290 0.959 . S
C302 C300 1.561 . S
C303 C300 1.526 . S
C303 C304 1.396 . S
C303 C308 1.390 . S
C304 C298 1.465 . S
C304 C303 1.396 . S
C304 C305 1.399 . S
C305 H291 0.929 . S
C305 C304 1.399 . S
C305 C306 1.385 . S
C306 H292 0.931 . S
C306 C305 1.385 . S
C306 C307 1.389 . S
C307 C306 1.389 . S
C307 C308 1.387 . S
C308 H293 0.930 . S
C308 C303 1.390 . S
C308 C307 1.387 . S
H309 C321 0.930 . S
H310 C323 0.930 . S
H311 C324 0.930 . S
H312 C328 0.959 . S
H313 C328 0.959 . S
H314 C328 0.961 . S
H315 C329 0.960 . S
H316 C329 0.961 . S
H317 C329 0.959 . S
H318 C332 0.929 . S
H319 C333 0.931 . S
H320 C335 0.930 . S
C321 H309 0.930 . S
C321 C322 1.399 . S
C321 C326 1.399 . S
C322 C321 1.399 . S
C322 C323 1.376 . S
C323 H310 0.930 . S
C323 C322 1.376 . S
C323 C324 1.388 . S
C324 H311 0.930 . S
C324 C323 1.388 . S
C324 C325 1.390 . S
C325 C324 1.390 . S
C325 C326 1.394 . S
C325 C331 1.465 . S
C326 C321 1.399 . S
C326 C325 1.394 . S
C326 C327 1.516 . S
C327 C326 1.516 . S
C327 C328 1.502 . S
C327 C329 1.561 . S
C327 C330 1.526 . S
C328 H312 0.959 . S
C328 H313 0.959 . S
C328 H314 0.961 . S
C328 C327 1.502 . S
C329 H315 0.960 . S
C329 H316 0.961 . S
C329 H317 0.959 . S
C329 C327 1.561 . S
C330 C327 1.526 . S
C330 C331 1.396 . S
C330 C335 1.390 . S
C331 C325 1.465 . S
C331 C330 1.396 . S
C331 C332 1.399 . S
C332 H318 0.929 . S
C332 C331 1.399 . S
C332 C333 1.385 . S
C333 H319 0.931 . S
C333 C332 1.385 . S
C333 C334 1.389 . S
C334 C333 1.389 . S
C334 C335 1.387 . S
C335 H320 0.930 . S
C335 C330 1.390 . S
C335 C334 1.387 . S
H336 C348 0.930 . S
H337 C350 0.930 . S
H338 C351 0.930 . S
H339 C355 0.959 . S
H340 C355 0.959 . S
H341 C355 0.961 . S
H342 C356 0.960 . S
H343 C356 0.961 . S
H344 C356 0.959 . S
H345 C359 0.929 . S
H346 C360 0.931 . S
H347 C362 0.930 . S
C348 H336 0.930 . S
C348 C349 1.399 . S
C348 C353 1.399 . S
C349 C348 1.399 . S
C349 C350 1.376 . S
C350 H337 0.930 . S
C350 C349 1.376 . S
C350 C351 1.388 . S
C351 H338 0.930 . S
C351 C350 1.388 . S
C351 C352 1.390 . S
C352 C351 1.390 . S
C352 C353 1.394 . S
C352 C358 1.465 . S
C353 C348 1.399 . S
C353 C352 1.394 . S
C353 C354 1.516 . S
C354 C353 1.516 . S
C354 C355 1.502 . S
C354 C356 1.561 . S
C354 C357 1.526 . S
C355 H339 0.959 . S
C355 H340 0.959 . S
C355 H341 0.961 . S
C355 C354 1.502 . S
C356 H342 0.960 . S
C356 H343 0.961 . S
C356 H344 0.959 . S
C356 C354 1.561 . S
C357 C354 1.526 . S
C357 C358 1.396 . S
C357 C362 1.390 . S
C358 C352 1.465 . S
C358 C357 1.396 . S
C358 C359 1.399 . S
C359 H345 0.929 . S
C359 C358 1.399 . S
C359 C360 1.385 . S
C360 H346 0.931 . S
C360 C359 1.385 . S
C360 C361 1.389 . S
C361 C360 1.389 . S
C361 C362 1.387 . S
C362 H347 0.930 . S
C362 C357 1.390 . S
C362 C361 1.387 . S
H363 C375 0.930 . S
H364 C377 0.930 . S
H365 C378 0.930 . S
H366 C382 0.959 . S
H367 C382 0.959 . S
H368 C382 0.961 . S
H369 C383 0.960 . S
H370 C383 0.961 . S
H371 C383 0.959 . S
H372 C386 0.929 . S
H373 C387 0.931 . S
H374 C389 0.930 . S
C375 H363 0.930 . S
C375 C376 1.399 . S
C375 C380 1.399 . S
C376 C375 1.399 . S
C376 C377 1.376 . S
C377 H364 0.930 . S
C377 C376 1.376 . S
C377 C378 1.388 . S
C378 H365 0.930 . S
C378 C377 1.388 . S
C378 C379 1.390 . S
C379 C378 1.390 . S
C379 C380 1.394 . S
C379 C385 1.465 . S
C380 C375 1.399 . S
C380 C379 1.394 . S
C380 C381 1.516 . S
C381 C380 1.516 . S
C381 C382 1.502 . S
C381 C383 1.561 . S
C381 C384 1.526 . S
C382 H366 0.959 . S
C382 H367 0.959 . S
C382 H368 0.961 . S
C382 C381 1.502 . S
C383 H369 0.960 . S
C383 H370 0.961 . S
C383 H371 0.959 . S
C383 C381 1.561 . S
C384 C381 1.526 . S
C384 C385 1.396 . S
C384 C389 1.390 . S
C385 C379 1.465 . S
C385 C384 1.396 . S
C385 C386 1.399 . S
C386 H372 0.929 . S
C386 C385 1.399 . S
C386 C387 1.385 . S
C387 H373 0.931 . S
C387 C386 1.385 . S
C387 C388 1.389 . S
C388 C387 1.389 . S
C388 C389 1.387 . S
C389 H374 0.930 . S
C389 C384 1.390 . S
C389 C388 1.387 . S
H390 C402 0.930 . S
H391 C404 0.930 . S
H392 C405 0.930 . S
H393 C409 0.959 . S
H394 C409 0.959 . S
H395 C409 0.961 . S
H396 C410 0.960 . S
H397 C410 0.961 . S
H398 C410 0.959 . S
H399 C413 0.929 . S
H400 C414 0.931 . S
H401 C416 0.930 . S
C402 H390 0.930 . S
C402 C403 1.399 . S
C402 C407 1.399 . S
C403 C402 1.399 . S
C403 C404 1.376 . S
C404 H391 0.930 . S
C404 C403 1.376 . S
C404 C405 1.388 . S
C405 H392 0.930 . S
C405 C404 1.388 . S
C405 C406 1.390 . S
C406 C405 1.390 . S
C406 C407 1.394 . S
C406 C412 1.465 . S
C407 C402 1.399 . S
C407 C406 1.394 . S
C407 C408 1.516 . S
C408 C407 1.516 . S
C408 C409 1.502 . S
C408 C410 1.561 . S
C408 C411 1.526 . S
C409 H393 0.959 . S
C409 H394 0.959 . S
C409 H395 0.961 . S
C409 C408 1.502 . S
C410 H396 0.960 . S
C410 H397 0.961 . S
C410 H398 0.959 . S
C410 C408 1.561 . S
C411 C408 1.526 . S
C411 C412 1.396 . S
C411 C416 1.390 . S
C412 C406 1.465 . S
C412 C411 1.396 . S
C412 C413 1.399 . S
C413 H399 0.929 . S
C413 C412 1.399 . S
C413 C414 1.385 . S
C414 H400 0.931 . S
C414 C413 1.385 . S
C414 C415 1.389 . S
C415 C414 1.389 . S
C415 C416 1.387 . S
C416 H401 0.930 . S
C416 C411 1.390 . S
C416 C415 1.387 . S
H417 C429 0.930 . S
H418 C431 0.930 . S
H419 C432 0.930 . S
H420 C436 0.959 . S
H421 C436 0.959 . S
H422 C436 0.961 . S
H423 C437 0.960 . S
H424 C437 0.961 . S
H425 C437 0.959 . S
H426 C440 0.929 . S
H427 C441 0.931 . S
H428 C443 0.930 . S
C429 H417 0.930 . S
C429 C430 1.399 . S
C429 C434 1.399 . S
C430 C429 1.399 . S
C430 C431 1.376 . S
C431 H418 0.930 . S
C431 C430 1.376 . S
C431 C432 1.388 . S
C432 H419 0.930 . S
C432 C431 1.388 . S
C432 C433 1.390 . S
C433 C432 1.390 . S
C433 C434 1.394 . S
C433 C439 1.465 . S
C434 C429 1.399 . S
C434 C433 1.394 . S
C434 C435 1.516 . S
C435 C434 1.516 . S
C435 C436 1.502 . S
C435 C437 1.561 . S
C435 C438 1.526 . S
C436 H420 0.959 . S
C436 H421 0.959 . S
C436 H422 0.961 . S
C436 C435 1.502 . S
C437 H423 0.960 . S
C437 H424 0.961 . S
C437 H425 0.959 . S
C437 C435 1.561 . S
C438 C435 1.526 . S
C438 C439 1.396 . S
C438 C443 1.390 . S
C439 C433 1.465 . S
C439 C438 1.396 . S
C439 C440 1.399 . S
C440 H426 0.929 . S
C440 C439 1.399 . S
C440 C441 1.385 . S
C441 H427 0.931 . S
C441 C440 1.385 . S
C441 C442 1.389 . S
C442 C441 1.389 . S
C442 C443 1.387 . S
C443 H428 0.930 . S
C443 C438 1.390 . S
C443 C442 1.387 . S
H444 C456 0.930 . S
H445 C458 0.930 . S
H446 C459 0.930 . S
H447 C463 0.959 . S
H448 C463 0.959 . S
H449 C463 0.961 . S
H450 C464 0.960 . S
H451 C464 0.961 . S
H452 C464 0.959 . S
H453 C467 0.929 . S
H454 C468 0.931 . S
H455 C470 0.930 . S
C456 H444 0.930 . S
C456 C457 1.399 . S
C456 C461 1.399 . S
C457 C456 1.399 . S
C457 C458 1.376 . S
C458 H445 0.930 . S
C458 C457 1.376 . S
C458 C459 1.388 . S
C459 H446 0.930 . S
C459 C458 1.388 . S
C459 C460 1.390 . S
C460 C459 1.390 . S
C460 C461 1.394 . S
C460 C466 1.465 . S
C461 C456 1.399 . S
C461 C460 1.394 . S
C461 C462 1.516 . S
C462 C461 1.516 . S
C462 C463 1.502 . S
C462 C464 1.561 . S
C462 C465 1.526 . S
C463 H447 0.959 . S
C463 H448 0.959 . S
C463 H449 0.961 . S
C463 C462 1.502 . S
C464 H450 0.960 . S
C464 H451 0.961 . S
C464 H452 0.959 . S
C464 C462 1.561 . S
C465 C462 1.526 . S
C465 C466 1.396 . S
C465 C470 1.390 . S
C466 C460 1.465 . S
C466 C465 1.396 . S
C466 C467 1.399 . S
C467 H453 0.929 . S
C467 C466 1.399 . S
C467 C468 1.385 . S
C468 H454 0.931 . S
C468 C467 1.385 . S
C468 C469 1.389 . S
C469 C468 1.389 . S
C469 C470 1.387 . S
C470 H455 0.930 . S
C470 C465 1.390 . S
C470 C469 1.387 . S
H471 C483 0.930 . S
H472 C485 0.930 . S
H473 C486 0.930 . S
H474 C490 0.959 . S
H475 C490 0.959 . S
H476 C490 0.961 . S
H477 C491 0.960 . S
H478 C491 0.961 . S
H479 C491 0.959 . S
H480 C494 0.929 . S
H481 C495 0.931 . S
H482 C497 0.930 . S
C483 H471 0.930 . S
C483 C484 1.399 . S
C483 C488 1.399 . S
C484 C483 1.399 . S
C484 C485 1.376 . S
C485 H472 0.930 . S
C485 C484 1.376 . S
C485 C486 1.388 . S
C486 H473 0.930 . S
C486 C485 1.388 . S
C486 C487 1.390 . S
C487 C486 1.390 . S
C487 C488 1.394 . S
C487 C493 1.465 . S
C488 C483 1.399 . S
C488 C487 1.394 . S
C488 C489 1.516 . S
C489 C488 1.516 . S
C489 C490 1.502 . S
C489 C491 1.561 . S
C489 C492 1.526 . S
C490 H474 0.959 . S
C490 H475 0.959 . S
C490 H476 0.961 . S
C490 C489 1.502 . S
C491 H477 0.960 . S
C491 H478 0.961 . S
C491 H479 0.959 . S
C491 C489 1.561 . S
C492 C489 1.526 . S
C492 C493 1.396 . S
C492 C497 1.390 . S
C493 C487 1.465 . S
C493 C492 1.396 . S
C493 C494 1.399 . S
C494 H480 0.929 . S
C494 C493 1.399 . S
C494 C495 1.385 . S
C495 H481 0.931 . S
C495 C494 1.385 . S
C495 C496 1.389 . S
C496 C495 1.389 . S
C496 C497 1.387 . S
C497 H482 0.930 . S
C497 C492 1.390 . S
C497 C496 1.387 . S
H498 C510 0.930 . S
H499 C512 0.930 . S
H500 C513 0.930 . S
H501 C517 0.960 1_655 S
H502 C517 0.964 . S
H503 C517 0.956 1_554 S
H504 C518 0.960 . S
H505 C518 0.961 1_556 S
H506 C518 0.959 . S
H507 C521 0.929 . S
H508 C522 0.931 . S
H509 C524 0.930 . S
C510 H498 0.930 . S
C510 C511 1.399 . S
C510 C515 1.399 . S
C511 C510 1.399 . S
C511 C512 1.376 . S
C512 H499 0.930 . S
C512 C511 1.376 . S
C512 C513 1.388 . S
C513 H500 0.930 . S
C513 C512 1.388 . S
C513 C514 1.390 . S
C514 C513 1.390 . S
C514 C515 1.394 . S
C514 C520 1.465 1_554 S
C515 C510 1.399 . S
C515 C514 1.394 . S
C515 C516 1.516 . S
C516 C515 1.516 . S
C516 C517 1.501 1_554 S
C516 C518 1.561 . S
C516 C519 1.526 1_554 S
C517 H501 0.960 1_455 S
C517 H502 0.964 . S
C517 H503 0.956 1_556 S
C517 C516 1.501 1_556 S
C518 H504 0.960 . S
C518 H505 0.961 1_554 S
C518 H506 0.959 . S
C518 C516 1.561 . S
C519 C516 1.526 1_556 S
C519 C520 1.396 . S
C519 C524 1.390 . S
C520 C514 1.465 1_556 S
C520 C519 1.396 . S
C520 C521 1.399 . S
C521 H507 0.929 . S
C521 C520 1.399 . S
C521 C522 1.385 . S
C522 H508 0.931 . S
C522 C521 1.385 . S
C522 C523 1.389 . S
C523 C522 1.389 . S
C523 C524 1.387 . S
C524 H509 0.930 . S
C524 C519 1.390 . S
C524 C523 1.387 . S
H525 C537 0.930 . S
H526 C539 0.930 . S
H527 C540 0.930 . S
H528 C544 0.959 . S
H529 C544 0.959 . S
H530 C544 0.961 . S
H531 C545 0.960 . S
H532 C545 0.961 . S
H533 C545 0.959 . S
H534 C548 0.929 . S
H535 C549 0.931 . S
H536 C551 0.930 . S
C537 H525 0.930 . S
C537 C538 1.399 . S
C537 C542 1.399 . S
C538 C537 1.399 . S
C538 C539 1.376 1_545 S
C539 H526 0.930 . S
C539 C538 1.376 1_565 S
C539 C540 1.388 . S
C540 H527 0.930 . S
C540 C539 1.388 . S
C540 C541 1.378 1_565 S
C541 C540 1.378 1_545 S
C541 C542 1.409 . S
C541 C547 1.465 1_545 S
C542 C537 1.399 . S
C542 C541 1.409 . S
C542 C543 1.516 . S
C543 C542 1.516 . S
C543 C544 1.502 . S
C543 C545 1.561 . S
C543 C546 1.526 . S
C544 H528 0.959 . S
C544 H529 0.959 . S
C544 H530 0.961 . S
C544 C543 1.502 . S
C545 H531 0.960 . S
C545 H532 0.961 . S
C545 H533 0.959 . S
C545 C543 1.561 . S
C546 C543 1.526 . S
C546 C547 1.396 1_545 S
C546 C551 1.390 . S
C547 C541 1.465 1_565 S
C547 C546 1.396 1_565 S
C547 C548 1.399 . S
C548 H534 0.929 . S
C548 C547 1.399 . S
C548 C549 1.385 . S
C549 H535 0.931 . S
C549 C548 1.385 . S
C549 C550 1.389 1_565 S
C550 C549 1.389 1_545 S
C550 C551 1.387 . S
C551 H536 0.930 . S
C551 C546 1.390 . S
C551 C550 1.387 . S
H552 C564 0.930 . S
H553 C566 0.930 . S
H554 C567 0.930 . S
H555 C571 0.959 . S
H556 C571 0.959 . S
H557 C571 0.961 . S
H558 C572 0.960 . S
H559 C572 0.961 . S
H560 C572 0.959 . S
H561 C575 0.929 . S
H562 C576 0.931 . S
H563 C578 0.930 . S
C564 H552 0.930 . S
C564 C565 1.399 . S
C564 C569 1.399 . S
C565 C564 1.399 . S
C565 C566 1.376 . S
C566 H553 0.930 . S
C566 C565 1.376 . S
C566 C567 1.388 . S
C567 H554 0.930 . S
C567 C566 1.388 . S
C567 C568 1.390 . S
C568 C567 1.390 . S
C568 C569 1.394 . S
C568 C574 1.465 . S
C569 C564 1.399 . S
C569 C568 1.394 . S
C569 C570 1.516 . S
C570 C569 1.516 . S
C570 C571 1.502 . S
C570 C572 1.561 . S
C570 C573 1.526 . S
C571 H555 0.959 . S
C571 H556 0.959 . S
C571 H557 0.961 . S
C571 C570 1.502 . S
C572 H558 0.960 . S
C572 H559 0.961 . S
C572 H560 0.959 . S
C572 C570 1.561 . S
C573 C570 1.526 . S
C573 C574 1.396 . S
C573 C578 1.390 . S
C574 C568 1.465 . S
C574 C573 1.396 . S
C574 C575 1.399 . S
C575 H561 0.929 . S
C575 C574 1.399 . S
C575 C576 1.385 . S
C576 H562 0.931 . S
C576 C575 1.385 . S
C576 C577 1.389 . S
C577 C576 1.389 . S
C577 C578 1.387 . S
C578 H563 0.930 . S
C578 C573 1.390 . S
C578 C577 1.387 . S
H579 C591 0.930 1_565 S
H580 C593 0.930 . S
H581 C594 0.930 . S
H582 C598 0.959 . S
H583 C598 0.959 . S
H584 C598 0.961 . S
H585 C599 0.960 . S
H586 C599 0.961 . S
H587 C599 0.959 . S
H588 C602 0.929 . S
H589 C603 0.931 . S
H590 C605 0.930 1_565 S
C591 H579 0.930 1_545 S
C591 C592 1.399 . S
C591 C596 1.399 . S
C592 C591 1.399 . S
C592 C593 1.376 . S
C593 H580 0.930 . S
C593 C592 1.376 . S
C593 C594 1.388 . S
C594 H581 0.930 . S
C594 C593 1.388 . S
C594 C595 1.390 . S
C595 C594 1.390 . S
C595 C596 1.394 . S
C595 C601 1.465 . S
C596 C591 1.399 . S
C596 C595 1.394 . S
C596 C597 1.516 1_545 S
C597 C596 1.516 1_565 S
C597 C598 1.502 . S
C597 C599 1.561 . S
C597 C600 1.526 1_565 S
C598 H582 0.959 . S
C598 H583 0.959 . S
C598 H584 0.961 . S
C598 C597 1.502 . S
C599 H585 0.960 . S
C599 H586 0.961 . S
C599 H587 0.959 . S
C599 C597 1.561 . S
C600 C597 1.526 1_545 S
C600 C601 1.396 . S
C600 C605 1.390 . S
C601 C595 1.465 . S
C601 C600 1.396 . S
C601 C602 1.399 . S
C602 H588 0.929 . S
C602 C601 1.399 . S
C602 C603 1.385 . S
C603 H589 0.931 . S
C603 C602 1.385 . S
C603 C604 1.389 . S
C604 C603 1.389 . S
C604 C605 1.387 . S
C605 H590 0.930 1_545 S
C605 C600 1.390 . S
C605 C604 1.387 . S
H606 C618 0.930 . S
H607 C620 0.930 . S
H608 C621 0.930 . S
H609 C625 0.959 . S
H610 C625 0.959 . S
H611 C625 0.961 1_556 S
H612 C626 0.960 . S
H613 C626 0.961 1_554 S
H614 C626 0.959 . S
H615 C629 0.929 . S
H616 C630 0.931 . S
H617 C632 0.930 . S
C618 H606 0.930 . S
C618 C619 1.399 . S
C618 C623 1.399 . S
C619 C618 1.399 . S
C619 C620 1.376 . S
C620 H607 0.930 . S
C620 C619 1.376 . S
C620 C621 1.388 . S
C621 H608 0.930 . S
C621 C620 1.388 . S
C621 C622 1.390 . S
C622 C621 1.390 . S
C622 C623 1.394 . S
C622 C628 1.465 1_556 S
C623 C618 1.399 . S
C623 C622 1.394 . S
C623 C624 1.516 . S
C624 C623 1.516 . S
C624 C625 1.502 1_556 S
C624 C626 1.561 . S
C624 C627 1.526 1_556 S
C625 H609 0.959 . S
C625 H610 0.959 . S
C625 H611 0.961 1_554 S
C625 C624 1.502 1_554 S
C626 H612 0.960 . S
C626 H613 0.961 1_556 S
C626 H614 0.959 . S
C626 C624 1.561 . S
C627 C624 1.526 1_554 S
C627 C628 1.396 . S
C627 C632 1.390 . S
C628 C622 1.465 1_554 S
C628 C627 1.396 . S
C628 C629 1.399 . S
C629 H615 0.929 . S
C629 C628 1.399 . S
C629 C630 1.385 . S
C630 H616 0.931 . S
C630 C629 1.385 . S
C630 C631 1.389 . S
C631 C630 1.389 . S
C631 C632 1.387 . S
C632 H617 0.930 . S
C632 C627 1.390 . S
C632 C631 1.387 . S
H633 C645 0.930 . S
H634 C647 0.930 . S
H635 C648 0.930 . S
H636 C652 0.959 . S
H637 C652 0.959 . S
H638 C652 0.961 . S
H639 C653 0.960 . S
H640 C653 0.961 . S
H641 C653 0.959 . S
H642 C656 0.929 . S
H643 C657 0.931 . S
H644 C659 0.930 . S
C645 H633 0.930 . S
C645 C646 1.399 . S
C645 C650 1.399 . S
C646 C645 1.399 . S
C646 C647 1.376 1_455 S
C647 H634 0.930 . S
C647 C646 1.376 1_655 S
C647 C648 1.388 . S
C648 H635 0.930 . S
C648 C647 1.388 . S
C648 C649 1.390 1_655 S
C649 C648 1.390 1_455 S
C649 C650 1.394 . S
C649 C655 1.465 . S
C650 C645 1.399 . S
C650 C649 1.394 . S
C650 C651 1.516 . S
C651 C650 1.516 . S
C651 C652 1.502 . S
C651 C653 1.561 . S
C651 C654 1.526 . S
C652 H636 0.959 . S
C652 H637 0.959 . S
C652 H638 0.961 . S
C652 C651 1.502 . S
C653 H639 0.960 . S
C653 H640 0.961 . S
C653 H641 0.959 . S
C653 C651 1.561 . S
C654 C651 1.526 . S
C654 C655 1.396 . S
C654 C659 1.390 . S
C655 C649 1.465 . S
C655 C654 1.396 . S
C655 C656 1.399 1_455 S
C656 H642 0.929 . S
C656 C655 1.399 1_655 S
C656 C657 1.385 . S
C657 H643 0.931 . S
C657 C656 1.385 . S
C657 C658 1.389 1_655 S
C658 C657 1.389 1_455 S
C658 C659 1.387 . S
C659 H644 0.930 . S
C659 C654 1.390 . S
C659 C658 1.387 . S
C187 C2 1.229 . S
C199 C166 1.134 . S
C214 C21 1.127 . S
C226 C128 1.053 . S
C241 C42 1.201 . S
C253 C147 1.090 . S
C268 C1 0.897 . S
C280 C161 0.868 . S
C307 C123 0.949 . S
C295 C22 0.989 . S
C334 C142 0.948 . S
C322 C41 0.943 . S
C349 C38 1.966 . S
C361 C90 1.946 . S
C376 C59 1.859 . S
C388 C104 1.858 . S
C403 C18 1.778 . S
C415 C66 1.738 . S
C442 C85 1.818 . S
C430 C39 1.875 . S
C469 C109 1.900 . S
C457 C58 1.976 . S
C484 C19 2.059 . S
C496 C71 2.011 . S
C523 C100 1.596 . S
C511 C9 1.597 . S
C538 C29 1.532 . S
C550 C62 1.649 . S
C565 C49 1.593 . S
C577 C81 1.629 . S
C604 C138 1.551 . S
C592 C28 1.579 . S
C631 C157 1.535 . S
C619 C48 1.516 . S
C646 C8 1.443 . S
C658 C119 1.504 . S
