# Generated by pormake.
# Topology rtl, (3,6)-cn, num edge types: 1
# Building blocks:
#     Node 0, Type 0, BuildingBlock: MIDCAF_clean_linker_0, # of connection points: 3
#     Node 1, Type 0, BuildingBlock: MIDCAF_clean_linker_0, # of connection points: 3
#     Node 2, Type 0, BuildingBlock: MIDCAF_clean_linker_0, # of connection points: 3
#     Node 3, Type 0, BuildingBlock: MIDCAF_clean_linker_0, # of connection points: 3
#     Node 4, Type 1, BuildingBlock: KUMJIN_clean_sbu_1, # of connection points: 6
#     Node 5, Type 1, BuildingBlock: KUMJIN_clean_sbu_1, # of connection points: 6
#     Edge 6, Type (0, 1), BuildingBlock: XUDNAN_clean_linker_2, # of connection points: 2
#     Edge 7, Type (0, 1), BuildingBlock: XUDNAN_clean_linker_2, # of connection points: 2
#     Edge 8, Type (0, 1), BuildingBlock: XUDNAN_clean_linker_2, # of connection points: 2
#     Edge 9, Type (0, 1), BuildingBlock: XUDNAN_clean_linker_2, # of connection points: 2
#     Edge 10, Type (0, 1), BuildingBlock: XUDNAN_clean_linker_2, # of connection points: 2
#     Edge 11, Type (0, 1), BuildingBlock: XUDNAN_clean_linker_2, # of connection points: 2
#     Edge 12, Type (0, 1), BuildingBlock: XUDNAN_clean_linker_2, # of connection points: 2
#     Edge 13, Type (0, 1), BuildingBlock: XUDNAN_clean_linker_2, # of connection points: 2
#     Edge 14, Type (0, 1), BuildingBlock: XUDNAN_clean_linker_2, # of connection points: 2
#     Edge 15, Type (0, 1), BuildingBlock: XUDNAN_clean_linker_2, # of connection points: 2
#     Edge 16, Type (0, 1), BuildingBlock: XUDNAN_clean_linker_2, # of connection points: 2
#     Edge 17, Type (0, 1), BuildingBlock: XUDNAN_clean_linker_2, # of connection points: 2
# Relax obj value: 0.018
# Max RMSD: 0.096
# Mean RMSD: 0.058
data_MOF--net-rtl--node1-KUMJIN_clean_sbu_1--node2-MIDCAF_clean_linker_0--edge1-XUDNAN_clean_linker_2
_symmetry_space_group_name_H-M    P1
_symmetry_Int_Tables_number       1
_symmetry_cell_setting            triclinic
loop_
_symmetry_equiv_pos_as_xyz
'x, y, z'
_cell_length_a     39.441556
_cell_length_b     40.078602
_cell_length_c     35.064887
_cell_angle_alpha  79.888798
_cell_angle_beta   99.616719
_cell_angle_gamma 90.273718
loop_
_atom_site_label
_atom_site_type_symbol
_atom_site_fract_x
_atom_site_fract_y
_atom_site_fract_z
_atom_type_partial_charge
C0 C 0.19453 0.943 0.10241 0.0
C1 C 0.19819 0.92377 0.14047 0.0
C2 C 0.21821 0.89355 0.14926 0.0
C3 C 0.23312 0.88221 0.12018 0.0
H4 H 0.28544 0.79235 0.08418 0.0
H5 H 0.32216 0.74279 0.08411 0.0
H6 H 0.36347 0.79868 0.98599 0.0
H7 H 0.3265 0.84716 0.98538 0.0
H8 H 0.22889 0.85075 0.92267 0.0
H9 H 0.20083 0.86785 0.85523 0.0
H10 H 0.17553 0.966 0.87949 0.0
H11 H 0.20263 0.94799 0.94835 0.0
H12 H 0.20514 0.94676 0.04413 0.0
H13 H 0.17994 0.96675 0.09487 0.0
H14 H 0.22128 0.87791 0.17819 0.0
H15 H 0.24748 0.85833 0.12755 0.0
N16 N 0.26514 0.86219 0.05748 0.0
N17 N 0.2609 0.86246 0.98986 0.0
N18 N 0.22603 0.89956 0.01168 0.0
C19 C 0.27578 0.85009 0.02743 0.0
C20 C 0.2359 0.88697 0.98172 0.0
C21 C 0.24047 0.88737 0.0496 0.0
C22 C 0.30275 0.82325 0.03429 0.0
C23 C 0.30308 0.79415 0.06336 0.0
C24 C 0.32408 0.76588 0.06334 0.0
C25 C 0.34507 0.76665 0.03445 0.0
C26 C 0.34695 0.79703 0.008 0.0
C27 C 0.32585 0.82483 0.0077 0.0
C28 C 0.21844 0.89818 0.94071 0.0
C29 C 0.21749 0.87605 0.91372 0.0
C30 C 0.20145 0.88597 0.87489 0.0
C31 C 0.18649 0.91862 0.86157 0.0
C32 C 0.18671 0.94065 0.88876 0.0
C33 C 0.20239 0.93043 0.92809 0.0
C34 C 0.22802 0.90072 0.08167 0.0
C35 C 0.20913 0.93156 0.07335 0.0
C36 C 0.58693 0.66117 0.50232 0.0
C37 C 0.60324 0.66673 0.4691 0.0
C38 C 0.63126 0.6886 0.46884 0.0
C39 C 0.64303 0.70399 0.50123 0.0
H40 H 0.67891 0.80084 0.53959 0.0
H41 H 0.72437 0.84073 0.52915 0.0
H42 H 0.7814 0.79868 0.64369 0.0
H43 H 0.73461 0.7594 0.65488 0.0
H44 H 0.6537 0.73779 0.70603 0.0
H45 H 0.63716 0.71292 0.76854 0.0
H46 H 0.59935 0.62535 0.71962 0.0
H47 H 0.61461 0.65079 0.65684 0.0
H48 H 0.586 0.671 0.56012 0.0
H49 H 0.56487 0.64505 0.50329 0.0
H50 H 0.64485 0.69311 0.44409 0.0
H51 H 0.66507 0.72016 0.50026 0.0
N52 N 0.6641 0.73735 0.56822 0.0
N53 N 0.66893 0.73638 0.63609 0.0
N54 N 0.63219 0.69905 0.60543 0.0
C55 C 0.678 0.7497 0.60092 0.0
C56 C 0.64577 0.71111 0.63842 0.0
C57 C 0.64123 0.71199 0.57024 0.0
C58 C 0.70353 0.77668 0.59773 0.0
C59 C 0.70088 0.80042 0.56282 0.0
C60 C 0.72702 0.8232 0.55683 0.0
C61 C 0.75695 0.82227 0.58518 0.0
C62 C 0.75869 0.80001 0.62129 0.0
C63 C 0.73201 0.77747 0.62762 0.0
C64 C 0.63564 0.69625 0.67647 0.0
C65 C 0.6418 0.71327 0.70861 0.0
C66 C 0.63239 0.69891 0.74451 0.0
C67 C 0.61705 0.66698 0.74928 0.0
C68 C 0.61058 0.65018 0.71694 0.0
C69 C 0.61961 0.6647 0.68094 0.0
C70 C 0.62733 0.69757 0.53486 0.0
C71 C 0.59895 0.67624 0.53487 0.0
C72 C 0.83135 0.07752 0.95939 0.0
C73 C 0.81408 0.08779 0.9206 0.0
C74 C 0.78452 0.10892 0.91422 0.0
C75 C 0.77286 0.11982 0.94571 0.0
H76 H 0.7046 0.19072 0.97342 0.0
H77 H 0.66807 0.24155 0.9634 0.0
H78 H 0.69785 0.24866 0.08603 0.0
H79 H 0.73289 0.19752 0.09633 0.0
H80 H 0.77077 0.14073 0.15293 0.0
H81 H 0.80341 0.12679 0.21891 0.0
H82 H 0.86947 0.05888 0.18015 0.0
H83 H 0.83694 0.07303 0.1131 0.0
H84 H 0.83392 0.08002 0.02015 0.0
H85 H 0.8546 0.06189 0.96552 0.0
H86 H 0.77029 0.11704 0.88485 0.0
H87 H 0.75016 0.13624 0.93962 0.0
N88 N 0.75504 0.14791 0.01132 0.0
N89 N 0.76056 0.14656 0.07909 0.0
N90 N 0.79353 0.10889 0.05554 0.0
C91 C 0.74578 0.16026 0.04196 0.0
C92 C 0.78426 0.12088 0.08633 0.0
C93 C 0.7789 0.12211 0.01791 0.0
C94 C 0.72189 0.19001 0.03559 0.0
C95 C 0.70307 0.20298 0.99827 0.0
C96 C 0.68227 0.23227 0.99252 0.0
C97 C 0.68011 0.24949 0.02385 0.0
C98 C 0.69832 0.23595 0.06129 0.0
C99 C 0.71874 0.20658 0.06711 0.0
C100 C 0.80155 0.10848 0.12733 0.0
C101 C 0.79198 0.12254 0.15817 0.0
C102 C 0.81062 0.11457 0.19611 0.0
C103 C 0.83906 0.0921 0.20434 0.0
C104 C 0.84754 0.07628 0.17437 0.0
C105 C 0.82899 0.08451 0.13604 0.0
C106 C 0.79033 0.1097 0.98443 0.0
C107 C 0.81956 0.08817 0.99084 0.0
C108 C 0.40583 0.34509 0.57749 0.0
C109 C 0.40748 0.32139 0.61269 0.0
C110 C 0.40179 0.28709 0.61005 0.0
C111 C 0.39253 0.27716 0.57356 0.0
H112 H 0.29741 0.24228 0.52305 0.0
H113 H 0.24839 0.2061 0.52417 0.0
H114 H 0.25788 0.18582 0.40924 0.0
H115 H 0.30659 0.22374 0.4074 0.0
H116 H 0.34872 0.28921 0.35492 0.0
H117 H 0.36527 0.32175 0.29499 0.0
H118 H 0.43684 0.37738 0.36553 0.0
H119 H 0.4208 0.34535 0.4249 0.0
H120 H 0.39515 0.35392 0.51442 0.0
H121 H 0.40949 0.3718 0.57796 0.0
H122 H 0.40384 0.26782 0.63619 0.0
H123 H 0.38709 0.25076 0.57266 0.0
N124 N 0.35055 0.26795 0.49938 0.0
N125 N 0.34612 0.27419 0.43089 0.0
N126 N 0.38587 0.30591 0.46683 0.0
C127 C 0.33541 0.25946 0.46486 0.0
C128 C 0.37162 0.29742 0.43175 0.0
C129 C 0.37567 0.29099 0.50071 0.0
C130 C 0.30607 0.23605 0.46503 0.0
C131 C 0.28931 0.23004 0.49795 0.0
C132 C 0.26116 0.20891 0.49879 0.0
C133 C 0.24901 0.19271 0.46694 0.0
C134 C 0.2661 0.19824 0.43414 0.0
C135 C 0.29416 0.21987 0.43308 0.0
C136 C 0.38298 0.31487 0.39496 0.0
C137 C 0.3682 0.30817 0.35768 0.0
C138 C 0.37778 0.32666 0.32333 0.0
C139 C 0.40204 0.35237 0.3256 0.0
C140 C 0.41768 0.35809 0.36281 0.0
C141 C 0.4084 0.33959 0.39693 0.0
C142 C 0.38972 0.30105 0.53868 0.0
C143 C 0.39743 0.33493 0.54089 0.0
Eu144 Eu 0.02842 0.9709 0.50392 0.0
C145 C 0.9527 0.10504 0.50884 0.0
N146 N 0.98414 0.09371 0.52932 0.0
C147 C 0.00746 0.14854 0.51217 0.0
C148 C 0.94793 0.13853 0.48778 0.0
C149 C 0.0111 0.11508 0.53228 0.0
C150 C 0.97584 0.16025 0.48955 0.0
C151 C 0.89309 0.09346 0.48528 0.0
C152 C 0.92551 0.08263 0.50771 0.0
C153 C 0.88844 0.12668 0.46394 0.0
C154 C 0.91572 0.14915 0.46527 0.0
Eu155 Eu 0.98773 0.03696 0.56222 0.0
N156 N 0.93089 0.05022 0.52796 0.0
C157 C 0.86617 0.07061 0.48503 0.0
C158 C 0.90409 0.02869 0.52974 0.0
C159 C 0.8716 0.03826 0.50779 0.0
H160 H 0.0354 0.10653 0.55047 0.0
H161 H 0.85061 0.02081 0.50888 0.0
H162 H 0.97874 0.90219 0.52058 0.0
H163 H 0.16766 0.97885 0.52728 0.0
H164 H 0.90712 0.0045 0.54883 0.0
H165 H 0.84093 0.07794 0.46811 0.0
H166 H 0.10749 1.00004 0.50541 0.0
H167 H 0.02903 0.16531 0.51422 0.0
H168 H 0.86375 0.1353 0.44641 0.0
H169 H 0.91167 0.17471 0.44868 0.0
H170 H 0.98561 0.84241 0.55192 0.0
H171 H 0.97318 0.18615 0.47378 0.0
H172 H 0.1796 0.919 0.55938 0.0
N173 N 0.03164 0.9132 0.53519 0.0
C174 C 0.06391 0.89975 0.54879 0.0
C175 C 0.00782 0.85838 0.55193 0.0
C176 C 0.06924 0.86508 0.56547 0.0
C177 C 1.00388 0.89272 0.53506 0.0
C178 C 0.04061 0.84455 0.56761 0.0
N179 N 0.08602 0.95322 0.52691 0.0
C180 C 0.1126 0.97411 0.52015 0.0
C181 C 0.12574 0.90677 0.55596 0.0
C182 C 0.09188 0.92016 0.54377 0.0
C183 C 0.15323 0.92829 0.55022 0.0
C184 C 0.1466 0.96211 0.53219 0.0
H185 H 0.04363 0.8178 0.58005 0.0
H186 H 0.10743 0.82519 0.59113 0.0
H187 H 0.1569 0.8618 0.58315 0.0
O188 O 0.0482 0.98458 0.44838 0.0
O189 O 0.05756 0.97734 0.5637 0.0
O190 O 0.01616 0.98975 0.59868 0.0
O191 O 0.01848 0.93955 0.45891 0.0
O192 O 0.04429 0.02551 0.49421 0.0
O193 O 0.04365 0.04497 0.55285 0.0
O194 O 0.95431 0.04709 0.60365 0.0
O195 O 0.98355 0.04842 0.49566 0.0
O196 O 0.97633 0.99595 0.47991 0.0
O197 O 0.0073 0.0648 0.60919 0.0
O198 O 0.96612 0.98364 0.57215 0.0
O199 O 0.97481 0.96219 0.5171 0.0
C200 C 0.04737 0.97935 0.59714 0.0
C201 C 0.06325 0.93664 0.42304 0.0
C202 C 0.09785 0.92858 0.37375 0.0
C203 C 0.10983 0.89711 0.39665 0.0
C204 C 0.07547 0.90504 0.44527 0.0
C205 C 0.09874 0.88556 0.4322 0.0
C206 C 0.07453 0.94834 0.38726 0.0
C207 C 0.05542 0.0455 0.5195 0.0
C208 C 0.0378 0.95673 0.43628 0.0
C209 C 0.10291 0.85173 0.5782 0.0
C210 C 0.13108 0.87252 0.57349 0.0
C211 C 0.972 0.02879 0.47044 0.0
C212 C 0.97325 0.0801 0.65553 0.0
C213 C 0.94133 0.08731 0.7078 0.0
C214 C 0.96006 0.11654 0.71312 0.0
C215 C 0.99188 0.10912 0.66186 0.0
C216 C 0.94808 0.069 0.67889 0.0
C217 C 0.98524 0.1272 0.69044 0.0
C218 C 0.95932 0.96209 0.54758 0.0
C219 C 0.97803 0.06399 0.62198 0.0
H220 H 0.12713 0.88097 0.38661 0.0
H221 H 0.06659 0.895 0.47239 0.0
H222 H 0.10777 0.86114 0.44938 0.0
H223 H 0.06503 0.97262 0.36995 0.0
H224 H 0.95556 0.13089 0.73534 0.0
H225 H 0.01097 0.11841 0.64393 0.0
H226 H 0.93341 0.04672 0.67416 0.0
H227 H 0.99951 0.14974 0.69485 0.0
Eu228 Eu 0.46855 0.48678 0.98967 0.0
C229 C 0.61638 0.53571 0.0691 0.0
N230 N 0.59872 0.50665 0.0761 0.0
C231 C 0.65091 0.47369 0.08421 0.0
C232 C 0.65202 0.53476 0.06837 0.0
C233 C 0.61574 0.47595 0.08535 0.0
C234 C 0.66907 0.50321 0.07524 0.0
C235 C 0.61686 0.59726 0.05896 0.0
C236 C 0.59913 0.56661 0.06472 0.0
C237 C 0.65214 0.59639 0.05726 0.0
C238 C 0.66966 0.56523 0.06192 0.0
Eu239 Eu 0.53941 0.51347 0.07823 0.0
N240 N 0.56488 0.56671 0.06564 0.0
C241 C 0.59853 0.62785 0.055 0.0
C242 C 0.54717 0.59633 0.06339 0.0
C243 C 0.56356 0.62735 0.0575 0.0
H244 H 0.60259 0.4531 0.0947 0.0
H245 H 0.54929 0.65082 0.05521 0.0
H246 H 0.40024 0.53752 0.98316 0.0
H247 H 0.48666 0.34977 0.04202 0.0
H248 H 0.52044 0.59607 0.06642 0.0
H249 H 0.6112 0.65193 0.05046 0.0
H250 H 0.50265 0.40617 0.01139 0.0
H251 H 0.66411 0.44922 0.09101 0.0
H252 H 0.66617 0.61966 0.05267 0.0
H253 H 0.697 0.56496 0.0611 0.0
H254 H 0.34107 0.53301 0.99831 0.0
H255 H 0.69642 0.5014 0.07491 0.0
H256 H 0.42935 0.34138 0.06146 0.0
N257 N 0.41239 0.48525 1.00358 0.0
C258 C 0.40131 0.4542 0.01828 0.0
C259 C 0.35781 0.51073 0.00424 0.0
C260 C 0.36794 0.4505 0.02761 0.0
C261 C 0.39127 0.51327 0.99588 0.0
C262 C 0.34613 0.47924 0.02033 0.0
N263 N 0.45633 0.43058 0.01662 0.0
C264 C 0.47827 0.40343 0.02125 0.0
C265 C 0.41337 0.39407 0.04199 0.0
C266 C 0.42397 0.42626 0.02542 0.0
C267 C 0.43648 0.36647 0.04862 0.0
C268 C 0.46893 0.37113 0.0379 0.0
H269 H 0.32026 0.47739 0.02701 0.0
H270 H 0.33198 0.41513 0.05167 0.0
H271 H 0.37169 0.36583 0.06434 0.0
O272 O 0.45694 0.45878 0.94082 0.0
O273 O 0.45702 0.48589 0.05148 0.0
O274 O 0.50871 0.46593 0.08515 0.0
O275 O 0.43905 0.5116 0.93338 0.0
O276 O 0.52223 0.46493 0.99656 0.0
O277 O 0.54353 0.46094 0.06253 0.0
O278 O 0.52493 0.53255 0.12855 0.0
O279 O 0.54263 0.54261 0.01702 0.0
O280 O 0.51571 0.51231 0.96977 0.0
O281 O 0.56809 0.49772 0.13734 0.0
O282 O 0.48739 0.5423 0.0616 0.0
O283 O 0.46875 0.54192 0.99511 0.0
C284 C 0.47555 0.46842 0.08299 0.0
C285 C 0.4257 0.48393 0.87604 0.0
C286 C 0.41928 0.45643 0.81832 0.0
C287 C 0.40292 0.48604 0.79535 0.0
C288 C 0.40887 0.51308 0.85247 0.0
C289 C 0.39751 0.51402 0.81244 0.0
C290 C 0.43037 0.45531 0.85885 0.0
C291 C 0.54574 0.45443 0.0275 0.0
C292 C 0.44124 0.48492 0.9172 0.0
C293 C 0.3575 0.41845 0.04419 0.0
C294 C 0.38015 0.39037 0.05144 0.0
C295 C 0.53653 0.5359 0.98099 0.0
C296 C 0.57367 0.54099 0.17537 0.0
C297 C 0.58406 0.57396 0.22834 0.0
C298 C 0.61564 0.58399 0.21696 0.0
C299 C 0.60598 0.55043 0.1657 0.0
C300 C 0.56291 0.55262 0.20711 0.0
C301 C 0.62649 0.5722 0.18588 0.0
C302 C 0.47027 0.55602 0.02658 0.0
C303 C 0.55179 0.51857 0.15287 0.0
H304 H 0.3939 0.48735 0.76418 0.0
H305 H 0.40509 0.53547 0.86479 0.0
H306 H 0.38476 0.53667 0.79448 0.0
H307 H 0.44351 0.43268 0.87653 0.0
H308 H 0.63264 0.59993 0.23309 0.0
H309 H 0.61584 0.54053 0.14303 0.0
H310 H 0.53841 0.54487 0.21544 0.0
H311 H 0.65123 0.57935 0.17793 0.0
H312 H 0.22848 0.15092 0.53043 0.0
H313 H 0.198 0.18675 0.40492 0.0
H314 H 0.14497 0.15434 0.40609 0.0
H315 H 0.19461 0.06717 0.53351 0.0
H316 H 0.17988 0.0661 0.57967 0.0
H317 H 0.21625 0.09117 0.56891 0.0
H318 H 0.18572 0.14428 0.58158 0.0
H319 H 0.1491 0.11939 0.59198 0.0
H320 H 0.14343 0.15687 0.55446 0.0
H321 H 0.09532 0.11905 0.42019 0.0
H322 H 0.05255 0.08037 0.44599 0.0
H323 H 0.11266 0.06899 0.56323 0.0
C324 C 0.21063 0.15223 0.50316 0.0
C325 C 0.21775 0.17152 0.46749 0.0
C326 C 0.19374 0.17182 0.43249 0.0
C327 C 0.16326 0.15375 0.43291 0.0
C328 C 0.15688 0.13564 0.46858 0.0
C329 C 0.17984 0.1346 0.50309 0.0
C330 C 0.16647 0.11318 0.53745 0.0
C331 C 0.19075 0.08259 0.55596 0.0
C332 C 0.16085 0.13473 0.56818 0.0
C333 C 0.13248 0.10215 0.51671 0.0
C334 C 0.12759 0.11557 0.47699 0.0
C335 C 0.09879 0.10847 0.45122 0.0
C336 C 0.07468 0.08648 0.46617 0.0
C337 C 0.07932 0.07186 0.50656 0.0
C338 C 0.10829 0.08029 0.53236 0.0
H339 H 0.3845 0.71648 0.08868 0.0
H340 H 0.34162 0.74563 0.96483 0.0
H341 H 0.36922 0.69556 0.95056 0.0
H342 H 0.4662 0.68436 0.07423 0.0
H343 H 0.46952 0.64913 0.11453 0.0
H344 H 0.44624 0.68728 0.11623 0.0
H345 H 0.39216 0.65231 0.1271 0.0
H346 H 0.41539 0.61408 0.12561 0.0
H347 H 0.37531 0.62533 0.09268 0.0
H348 H 0.40169 0.64462 0.94821 0.0
H349 H 0.43636 0.59244 0.95803 0.0
H350 H 0.45846 0.59275 0.08376 0.0
C351 C 0.38087 0.7121 0.05868 0.0
C352 C 0.36134 0.7353 0.02773 0.0
C353 C 0.35709 0.7287 0.98884 0.0
C354 C 0.3725 0.7002 0.98043 0.0
C355 C 0.39206 0.67825 0.01121 0.0
C356 C 0.3963 0.68353 0.0496 0.0
C357 C 0.41899 0.65551 0.07676 0.0
C358 C 0.45221 0.66994 0.09661 0.0
C359 C 0.39927 0.63563 0.10735 0.0
C360 C 0.42652 0.63386 0.04747 0.0
C361 C 0.41074 0.64778 0.0099 0.0
C362 C 0.41405 0.63326 0.97751 0.0
C363 C 0.43388 0.60348 0.98352 0.0
C364 C 0.45012 0.58814 0.02176 0.0
C365 C 0.44638 0.60371 0.05419 0.0
H366 H 0.80297 0.85851 0.63089 0.0
H367 H 0.78023 0.82911 0.51589 0.0
H368 H 0.82826 0.8624 0.4953 0.0
H369 H 0.8286 0.94398 0.59729 0.0
H370 H 0.86353 0.94421 0.63758 0.0
H371 H 0.82686 0.91825 0.64455 0.0
H372 H 0.86706 0.86513 0.66865 0.0
H373 H 0.90381 0.89102 0.66192 0.0
H374 H 0.89644 0.85471 0.63799 0.0
H375 H 0.87528 0.89954 0.485 0.0
H376 H 0.9246 0.93624 0.48641 0.0
H377 H 0.9227 0.94099 0.6091 0.0
C378 C 0.80828 0.85904 0.60149 0.0
C379 C 0.7872 0.84181 0.57467 0.0
C380 C 0.79517 0.84292 0.53654 0.0
C381 C 0.82261 0.86157 0.5246 0.0
C382 C 0.8423 0.87878 0.5512 0.0
C383 C 0.83601 0.87759 0.58896 0.0
C384 C 0.86209 0.89845 0.61129 0.0
C385 C 0.84419 0.92797 0.62339 0.0
C386 C 0.88363 0.87597 0.64709 0.0
C387 C 0.8838 0.91131 0.57997 0.0
C388 C 0.87138 0.89966 0.54561 0.0
C389 C 0.88571 0.90843 0.51187 0.0
C390 C 0.91397 0.92929 0.51318 0.0
C391 C 0.92838 0.94088 0.54827 0.0
C392 C 0.91269 0.93212 0.58208 0.0
H393 H 0.64239 0.27369 0.07359 0.0
H394 H 0.67435 0.30045 0.95955 0.0
H395 H 0.64495 0.35605 0.94967 0.0
H396 H 0.55925 0.31605 0.04716 0.0
H397 H 0.56133 0.33023 0.09347 0.0
H398 H 0.5839 0.29186 0.0912 0.0
H399 H 0.64077 0.31583 0.12313 0.0
H400 H 0.61837 0.35441 0.12511 0.0
H401 H 0.65518 0.35614 0.10058 0.0
H402 H 0.6126 0.40854 0.95171 0.0
H403 H 0.57707 0.45443 0.9648 0.0
H404 H 0.56836 0.39558 0.07883 0.0
C405 C 0.64343 0.29125 0.04659 0.0
C406 C 0.66069 0.2824 0.01726 0.0
C407 C 0.66083 0.30613 0.98217 0.0
C408 C 0.6445 0.338 0.97643 0.0
C409 C 0.6283 0.346 0.00613 0.0
C410 C 0.6275 0.32335 0.04049 0.0
C411 C 0.60828 0.33849 0.06773 0.0
C412 C 0.57629 0.31793 0.07532 0.0
C413 C 0.63208 0.34139 0.10643 0.0
C414 C 0.59837 0.37316 0.04319 0.0
C415 C 0.61022 0.37686 0.00776 0.0
C416 C 0.60335 0.40606 0.97942 0.0
C417 C 0.58324 0.43195 0.98712 0.0
C418 C 0.57044 0.42858 0.02293 0.0
C419 C 0.57853 0.39902 0.05159 0.0
H420 H 0.22084 0.91928 0.21981 0.0
H421 H 0.13272 0.95066 0.12833 0.0
H422 H 0.09986 0.96371 0.17798 0.0
H423 H 0.17485 0.87565 0.28743 0.0
H424 H 0.20093 0.88729 0.33017 0.0
H425 H 0.21939 0.88576 0.28697 0.0
H426 H 0.23793 0.94816 0.28496 0.0
H427 H 0.21938 0.94986 0.32823 0.0
H428 H 0.20615 0.98058 0.28411 0.0
H429 H 0.07416 0.96641 0.23808 0.0
H430 H 0.05756 0.95673 0.30399 0.0
H431 H 0.16229 0.92381 0.35608 0.0
C432 C 0.19479 0.92931 0.21012 0.0
C433 C 0.17952 0.9342 0.17009 0.0
C434 C 0.14531 0.94738 0.15869 0.0
C435 C 0.12635 0.9548 0.1867 0.0
C436 C 0.14199 0.94912 0.22599 0.0
C437 C 0.17549 0.93679 0.23769 0.0
C438 C 0.18528 0.92998 0.28197 0.0
C439 C 0.19571 0.89245 0.29752 0.0
C440 C 0.21388 0.95356 0.29561 0.0
C441 C 0.1516 0.93894 0.29334 0.0
C442 C 0.1271 0.95054 0.2607 0.0
C443 C 0.0933 0.95795 0.26392 0.0
C444 C 0.08413 0.95252 0.30146 0.0
C445 C 0.10866 0.93951 0.3351 0.0
C446 C 0.14298 0.93366 0.33087 0.0
H447 H 0.56148 0.62774 0.7653 0.0
H448 H 0.65532 0.66846 0.82163 0.0
H449 H 0.64382 0.64031 0.88619 0.0
H450 H 0.51025 0.63341 0.84021 0.0
H451 H 0.48933 0.59375 0.83635 0.0
H452 H 0.50395 0.61815 0.7942 0.0
H453 H 0.5399 0.5663 0.78731 0.0
H454 H 0.52539 0.54172 0.82944 0.0
H455 H 0.57079 0.54605 0.82864 0.0
H456 H 0.62479 0.60554 0.94376 0.0
H457 H 0.59766 0.5679 0.99188 0.0
H458 H 0.515 0.5499 0.90045 0.0
C459 C 0.57969 0.63069 0.79117 0.0
C460 C 0.60923 0.65064 0.78824 0.0
C461 C 0.63217 0.65399 0.82298 0.0
C462 C 0.62603 0.63784 0.85983 0.0
C463 C 0.59692 0.61825 0.86157 0.0
C464 C 0.57405 0.61457 0.82831 0.0
C465 C 0.5451 0.59139 0.83864 0.0
C466 C 0.51008 0.61032 0.82665 0.0
C467 C 0.54532 0.55947 0.81989 0.0
C468 C 0.55531 0.5828 0.88298 0.0
C469 C 0.58539 0.59852 0.89533 0.0
C470 C 0.60082 0.59368 0.93454 0.0
C471 C 0.5849 0.57256 0.96201 0.0
C472 C 0.55356 0.55687 0.95069 0.0
C473 C 0.53881 0.56178 0.91033 0.0
H474 H 0.85912 0.03319 0.25704 0.0
H475 H 0.86904 0.14243 0.23895 0.0
H476 H 0.90504 0.13775 0.30445 0.0
H477 H 0.8519 0.02344 0.35937 0.0
H478 H 0.87605 0.98388 0.37367 0.0
H479 H 0.85224 0.99531 0.32455 0.0
H480 H 0.90776 0.98818 0.29599 0.0
H481 H 0.93169 0.97669 0.34507 0.0
H482 H 0.94538 0.01138 0.31138 0.0
H483 H 0.93973 0.12184 0.37087 0.0
H484 H 0.97011 0.09552 0.43623 0.0
H485 H 0.93561 0.99658 0.41402 0.0
C486 C 0.86922 0.05597 0.2669 0.0
C487 C 0.86149 0.08819 0.24315 0.0
C488 C 0.87466 0.11758 0.25696 0.0
C489 C 0.89516 0.11517 0.29398 0.0
C490 C 0.90206 0.08317 0.31694 0.0
C491 C 0.88946 0.05406 0.30418 0.0
C492 C 0.89989 0.02301 0.33558 0.0
C493 C 0.86812 0.00538 0.34908 0.0
C494 C 0.92253 0.99836 0.32113 0.0
C495 C 0.92037 0.03933 0.36772 0.0
C496 C 0.92137 0.07403 0.35617 0.0
C497 C 0.93891 0.09471 0.38045 0.0
C498 C 0.95585 0.07954 0.4177 0.0
C499 C 0.95465 0.04412 0.43061 0.0
C500 C 0.93685 0.02377 0.40508 0.0
H501 H 0.44565 0.37494 0.6356 0.0
H502 H 0.38004 0.29435 0.67837 0.0
H503 H 0.38527 0.31485 0.74097 0.0
H504 H 0.49979 0.38064 0.73179 0.0
H505 H 0.50069 0.42623 0.72019 0.0
H506 H 0.49774 0.40152 0.68152 0.0
H507 H 0.44235 0.43519 0.645 0.0
H508 H 0.44533 0.46015 0.68323 0.0
H509 H 0.40661 0.43756 0.67056 0.0
H510 H 0.39219 0.34739 0.79656 0.0
H511 H 0.3952 0.39271 0.83674 0.0
H512 H 0.45184 0.45453 0.75589 0.0
C513 C 0.43258 0.36129 0.65812 0.0
C514 C 0.41285 0.33256 0.65176 0.0
C515 C 0.39629 0.31569 0.68248 0.0
C516 C 0.39896 0.32725 0.71833 0.0
C517 C 0.41811 0.35591 0.72325 0.0
C518 C 0.43446 0.37284 0.69387 0.0
C519 C 0.44992 0.4053 0.70466 0.0
C520 C 0.48938 0.40329 0.70985 0.0
C521 C 0.43515 0.43637 0.67405 0.0
C522 C 0.43808 0.40488 0.74368 0.0
C523 C 0.4208 0.3756 0.75457 0.0
C524 C 0.406 0.37025 0.78856 0.0
C525 C 0.40791 0.39601 0.81128 0.0
C526 C 0.42377 0.42691 0.79933 0.0
C527 C 0.43979 0.43095 0.76571 0.0
H528 H 0.60116 0.69077 0.39006 0.0
H529 H 0.58102 0.60141 0.47222 0.0
H530 H 0.5655 0.57047 0.41729 0.0
H531 H 0.53477 0.67804 0.30676 0.0
H532 H 0.56221 0.69223 0.27117 0.0
H533 H 0.56691 0.70908 0.31612 0.0
H534 H 0.63142 0.69074 0.3319 0.0
H535 H 0.62694 0.67408 0.28699 0.0
H536 H 0.64332 0.64713 0.33317 0.0
H537 H 0.55744 0.54741 0.35451 0.0
H538 H 0.56148 0.53319 0.28957 0.0
H539 H 0.58849 0.63681 0.2488 0.0
C540 C 0.59324 0.66478 0.39659 0.0
C541 C 0.59199 0.64874 0.4356 0.0
C542 C 0.5814 0.61465 0.44261 0.0
C543 C 0.57262 0.59676 0.41156 0.0
C544 C 0.57451 0.61324 0.3736 0.0
C545 C 0.58466 0.64646 0.36601 0.0
C546 C 0.58761 0.65735 0.32315 0.0
C547 C 0.5613 0.68587 0.30313 0.0
C548 C 0.62451 0.66792 0.31856 0.0
C549 C 0.57865 0.6247 0.30812 0.0
C550 C 0.5705 0.59975 0.33747 0.0
C551 C 0.56327 0.56688 0.33112 0.0
C552 C 0.56541 0.55907 0.2941 0.0
C553 C 0.57511 0.58395 0.26421 0.0
C554 C 0.58087 0.61735 0.27112 0.0
H555 H 0.81582 0.12602 0.84767 0.0
H556 H 0.84436 0.02666 0.9177 0.0
H557 H 0.87292 0.0123 0.86505 0.0
H558 H 0.80198 0.09618 0.74978 0.0
H559 H 0.81858 0.13489 0.72603 0.0
H560 H 0.79592 0.1354 0.76655 0.0
H561 H 0.84811 0.16286 0.80351 0.0
H562 H 0.87078 0.16256 0.76323 0.0
H563 H 0.88994 0.14228 0.81209 0.0
H564 H 0.9044 0.01134 0.80827 0.0
H565 H 0.93836 0.02544 0.75444 0.0
H566 H 0.88835 0.12471 0.72126 0.0
C567 C 0.82703 0.10081 0.85151 0.0
C568 C 0.8278 0.07756 0.88704 0.0
C569 C 0.84373 0.04517 0.89107 0.0
C570 C 0.85969 0.03658 0.86107 0.0
C571 C 0.85907 0.06038 0.82681 0.0
C572 C 0.84285 0.09174 0.82176 0.0
C573 C 0.84832 0.11388 0.78369 0.0
C574 C 0.81417 0.12048 0.7548 0.0
C575 C 0.86532 0.14735 0.79112 0.0
C576 C 0.87228 0.09108 0.76962 0.0
C577 C 0.87728 0.05987 0.79414 0.0
C578 C 0.90019 0.03546 0.78847 0.0
C579 C 0.91929 0.04358 0.75778 0.0
C580 C 0.91581 0.07606 0.73375 0.0
C581 C 0.89124 0.0996 0.73909 0.0
H582 H 0.41993 0.33491 0.25837 0.0
H583 H 0.40157 0.42117 0.31226 0.0
H584 H 0.41586 0.46 0.25474 0.0
H585 H 0.49279 0.36838 0.21794 0.0
H586 H 0.48239 0.35164 0.17303 0.0
H587 H 0.46836 0.33029 0.21709 0.0
H588 H 0.40518 0.33441 0.18059 0.0
H589 H 0.41942 0.35549 0.1365 0.0
H590 H 0.38679 0.37523 0.15604 0.0
H591 H 0.4319 0.48982 0.19181 0.0
H592 H 0.4532 0.50838 0.12901 0.0
H593 H 0.46519 0.40351 0.11716 0.0
C594 C 0.41853 0.36199 0.2577 0.0
C595 C 0.40955 0.37507 0.28976 0.0
C596 C 0.40854 0.41062 0.28815 0.0
C597 C 0.41643 0.4329 0.25551 0.0
C598 C 0.42545 0.41933 0.22459 0.0
C599 C 0.42678 0.38472 0.22536 0.0
C600 C 0.43904 0.37696 0.18893 0.0
C601 C 0.47265 0.35555 0.19993 0.0
C602 C 0.41092 0.35948 0.16406 0.0
C603 C 0.44486 0.41252 0.1681 0.0
C604 C 0.43619 0.43659 0.18884 0.0
C605 C 0.43878 0.47123 0.17529 0.0
C606 C 0.45078 0.48157 0.13968 0.0
C607 C 0.46061 0.45731 0.11862 0.0
C608 C 0.45765 0.42242 0.13293 0.0
H609 H 0.12742 0.95773 0.82763 0.0
H610 H 0.21277 0.90408 0.79914 0.0
H611 H 0.18671 0.91562 0.72949 0.0
H612 H 0.06097 0.93184 0.7618 0.0
H613 H 0.03826 0.97216 0.74615 0.0
H614 H 0.06447 0.96257 0.79411 0.0
H615 H 0.09921 0.01675 0.77837 0.0
H616 H 0.0728 0.02674 0.73043 0.0
H617 H 0.11889 0.02347 0.7349 0.0
H618 H 0.15192 0.93013 0.66449 0.0
H619 H 0.10966 0.94781 0.60553 0.0
H620 H 0.04411 0.99145 0.67256 0.0
C621 C 0.1409 0.94898 0.80663 0.0
C622 C 0.17187 0.92932 0.81916 0.0
C623 C 0.18861 0.91832 0.79063 0.0
C624 C 0.1742 0.92504 0.75084 0.0
C625 C 0.14331 0.94346 0.73965 0.0
C626 C 0.12696 0.95581 0.76635 0.0
C627 C 0.09362 0.97463 0.7457 0.0
C628 C 0.06249 0.95935 0.76298 0.0
C629 C 0.09628 0.01265 0.74746 0.0
C630 C 0.09279 0.96861 0.7039 0.0
C631 C 0.12234 0.95142 0.7013 0.0
C632 C 0.12854 0.94342 0.66617 0.0
C633 C 0.10393 0.95322 0.63262 0.0
C634 C 0.07275 0.96989 0.63405 0.0
C635 C 0.06726 0.97798 0.67041 0.0
loop_
_geom_bond_atom_site_label_1
_geom_bond_atom_site_label_2
_geom_bond_distance
_geom_bond_site_symmetry_2
_ccdc_geom_bond_type
C0 C1 1.384 . S
C0 H13 0.947 . S
C0 C35 1.382 . S
C1 C0 1.384 . S
C1 C2 1.378 . S
C2 C1 1.378 . S
C2 C3 1.378 . S
C2 H14 0.952 . S
C3 C2 1.378 . S
C3 H15 0.950 . S
C3 C34 1.383 . S
H4 C23 0.947 . S
H5 C24 0.946 . S
H6 C26 0.953 . S
H7 C27 0.945 . S
H8 C29 0.952 . S
H9 C30 0.949 . S
H10 C32 0.950 . S
H11 C33 0.948 . S
H12 C35 0.951 . S
H13 C0 0.947 . S
H14 C2 0.952 . S
H15 C3 0.950 . S
N16 C19 1.382 . S
N16 C21 1.363 . S
N17 C19 1.371 1_556 S
N17 C20 1.372 . S
N18 C20 1.361 1_554 S
N18 C21 1.377 . S
C19 N16 1.382 . S
C19 N17 1.371 1_554 S
C19 C22 1.480 . S
C20 N17 1.372 . S
C20 N18 1.361 1_556 S
C20 C28 1.457 . S
C21 N16 1.363 . S
C21 N18 1.377 . S
C21 C34 1.479 . S
C22 C19 1.480 . S
C22 C23 1.383 . S
C22 C27 1.385 1_554 S
C23 H4 0.947 . S
C23 C22 1.383 . S
C23 C24 1.388 . S
C24 H5 0.946 . S
C24 C23 1.388 . S
C24 C25 1.384 . S
C25 C24 1.384 . S
C25 C26 1.377 1_554 S
C26 H6 0.953 . S
C26 C25 1.377 1_556 S
C26 C27 1.369 . S
C27 H7 0.945 . S
C27 C22 1.385 1_556 S
C27 C26 1.369 . S
C28 C20 1.457 . S
C28 C29 1.372 . S
C28 C33 1.364 . S
C29 H8 0.952 . S
C29 C28 1.372 . S
C29 C30 1.389 . S
C30 H9 0.949 . S
C30 C29 1.389 . S
C30 C31 1.387 . S
C31 C30 1.387 . S
C31 C32 1.372 . S
C32 H10 0.950 . S
C32 C31 1.372 . S
C32 C33 1.379 . S
C33 H11 0.948 . S
C33 C28 1.364 . S
C33 C32 1.379 . S
C34 C3 1.383 . S
C34 C21 1.479 . S
C34 C35 1.398 . S
C35 C0 1.382 . S
C35 H12 0.951 . S
C35 C34 1.398 . S
C36 C37 1.384 . S
C36 H49 0.947 . S
C36 C71 1.382 . S
C37 C36 1.384 . S
C37 C38 1.378 . S
C38 C37 1.378 . S
C38 C39 1.378 . S
C38 H50 0.952 . S
C39 C38 1.378 . S
C39 H51 0.950 . S
C39 C70 1.383 . S
H40 C59 0.947 . S
H41 C60 0.946 . S
H42 C62 0.953 . S
H43 C63 0.945 . S
H44 C65 0.952 . S
H45 C66 0.949 . S
H46 C68 0.950 . S
H47 C69 0.948 . S
H48 C71 0.951 . S
H49 C36 0.947 . S
H50 C38 0.952 . S
H51 C39 0.950 . S
N52 C55 1.382 . S
N52 C57 1.363 . S
N53 C55 1.371 . S
N53 C56 1.372 . S
N54 C56 1.361 . S
N54 C57 1.377 . S
C55 N52 1.382 . S
C55 N53 1.371 . S
C55 C58 1.480 . S
C56 N53 1.372 . S
C56 N54 1.361 . S
C56 C64 1.457 . S
C57 N52 1.363 . S
C57 N54 1.377 . S
C57 C70 1.479 . S
C58 C55 1.480 . S
C58 C59 1.383 . S
C58 C63 1.385 . S
C59 H40 0.947 . S
C59 C58 1.383 . S
C59 C60 1.388 . S
C60 H41 0.946 . S
C60 C59 1.388 . S
C60 C61 1.384 . S
C61 C60 1.384 . S
C61 C62 1.377 . S
C62 H42 0.953 . S
C62 C61 1.377 . S
C62 C63 1.369 . S
C63 H43 0.945 . S
C63 C58 1.385 . S
C63 C62 1.369 . S
C64 C56 1.457 . S
C64 C65 1.372 . S
C64 C69 1.364 . S
C65 H44 0.952 . S
C65 C64 1.372 . S
C65 C66 1.389 . S
C66 H45 0.949 . S
C66 C65 1.389 . S
C66 C67 1.387 . S
C67 C66 1.387 . S
C67 C68 1.372 . S
C68 H46 0.950 . S
C68 C67 1.372 . S
C68 C69 1.379 . S
C69 H47 0.948 . S
C69 C64 1.364 . S
C69 C68 1.379 . S
C70 C39 1.383 . S
C70 C57 1.479 . S
C70 C71 1.398 . S
C71 C36 1.382 . S
C71 H48 0.951 . S
C71 C70 1.398 . S
C72 C73 1.384 . S
C72 H85 0.947 . S
C72 C107 1.382 . S
C73 C72 1.384 . S
C73 C74 1.378 . S
C74 C73 1.378 . S
C74 C75 1.378 . S
C74 H86 0.952 . S
C75 C74 1.378 . S
C75 H87 0.950 . S
C75 C106 1.383 . S
H76 C95 0.947 . S
H77 C96 0.946 . S
H78 C98 0.953 . S
H79 C99 0.945 . S
H80 C101 0.952 . S
H81 C102 0.949 . S
H82 C104 0.950 . S
H83 C105 0.948 . S
H84 C107 0.951 1_554 S
H85 C72 0.947 . S
H86 C74 0.952 . S
H87 C75 0.950 . S
N88 C91 1.382 . S
N88 C93 1.363 . S
N89 C91 1.371 . S
N89 C92 1.372 . S
N90 C92 1.361 . S
N90 C93 1.377 . S
C91 N88 1.382 . S
C91 N89 1.371 . S
C91 C94 1.480 . S
C92 N89 1.372 . S
C92 N90 1.361 . S
C92 C100 1.457 . S
C93 N88 1.363 . S
C93 N90 1.377 . S
C93 C106 1.479 1_554 S
C94 C91 1.480 . S
C94 C95 1.383 1_554 S
C94 C99 1.385 . S
C95 H76 0.947 . S
C95 C94 1.383 1_556 S
C95 C96 1.388 . S
C96 H77 0.946 . S
C96 C95 1.388 . S
C96 C97 1.384 1_556 S
C97 C96 1.384 1_554 S
C97 C98 1.377 . S
C98 H78 0.953 . S
C98 C97 1.377 . S
C98 C99 1.369 . S
C99 H79 0.945 . S
C99 C94 1.385 . S
C99 C98 1.369 . S
C100 C92 1.457 . S
C100 C101 1.372 . S
C100 C105 1.364 . S
C101 H80 0.952 . S
C101 C100 1.372 . S
C101 C102 1.389 . S
C102 H81 0.949 . S
C102 C101 1.389 . S
C102 C103 1.387 . S
C103 C102 1.387 . S
C103 C104 1.372 . S
C104 H82 0.950 . S
C104 C103 1.372 . S
C104 C105 1.379 . S
C105 H83 0.948 . S
C105 C100 1.364 . S
C105 C104 1.379 . S
C106 C75 1.383 . S
C106 C93 1.479 1_556 S
C106 C107 1.398 . S
C107 C72 1.382 . S
C107 H84 0.951 1_556 S
C107 C106 1.398 . S
C108 C109 1.384 . S
C108 H121 0.947 . S
C108 C143 1.382 . S
C109 C108 1.384 . S
C109 C110 1.378 . S
C110 C109 1.378 . S
C110 C111 1.378 . S
C110 H122 0.952 . S
C111 C110 1.378 . S
C111 H123 0.950 . S
C111 C142 1.383 . S
H112 C131 0.947 . S
H113 C132 0.946 . S
H114 C134 0.953 . S
H115 C135 0.945 . S
H116 C137 0.952 . S
H117 C138 0.949 . S
H118 C140 0.950 . S
H119 C141 0.948 . S
H120 C143 0.951 . S
H121 C108 0.947 . S
H122 C110 0.952 . S
H123 C111 0.950 . S
N124 C127 1.382 . S
N124 C129 1.363 . S
N125 C127 1.371 . S
N125 C128 1.372 . S
N126 C128 1.361 . S
N126 C129 1.377 . S
C127 N124 1.382 . S
C127 N125 1.371 . S
C127 C130 1.480 . S
C128 N125 1.372 . S
C128 N126 1.361 . S
C128 C136 1.457 . S
C129 N124 1.363 . S
C129 N126 1.377 . S
C129 C142 1.479 . S
C130 C127 1.480 . S
C130 C131 1.383 . S
C130 C135 1.385 . S
C131 H112 0.947 . S
C131 C130 1.383 . S
C131 C132 1.388 . S
C132 H113 0.946 . S
C132 C131 1.388 . S
C132 C133 1.384 . S
C133 C132 1.384 . S
C133 C134 1.377 . S
C134 H114 0.953 . S
C134 C133 1.377 . S
C134 C135 1.369 . S
C135 H115 0.945 . S
C135 C130 1.385 . S
C135 C134 1.369 . S
C136 C128 1.457 . S
C136 C137 1.372 . S
C136 C141 1.364 . S
C137 H116 0.952 . S
C137 C136 1.372 . S
C137 C138 1.389 . S
C138 H117 0.949 . S
C138 C137 1.389 . S
C138 C139 1.387 . S
C139 C138 1.387 . S
C139 C140 1.372 . S
C140 H118 0.950 . S
C140 C139 1.372 . S
C140 C141 1.379 . S
C141 H119 0.948 . S
C141 C136 1.364 . S
C141 C140 1.379 . S
C142 C111 1.383 . S
C142 C129 1.479 . S
C142 C143 1.398 . S
C143 C108 1.382 . S
C143 H120 0.951 . S
C143 C142 1.398 . S
Eu144 N173 2.600 . S
Eu144 N179 2.562 . S
Eu144 O188 2.462 . S
Eu144 O189 2.373 . S
Eu144 O191 2.432 . S
Eu144 O192 2.291 1_565 S
Eu144 O196 2.335 1_455 S
Eu144 O199 2.372 1_455 S
Eu144 C208 2.787 . S
C145 N146 1.365 . S
C145 C148 1.405 . S
C145 C152 1.448 . S
N146 C145 1.365 . S
N146 C149 1.310 1_655 S
N146 Eu155 2.600 . S
C147 C149 1.398 1_655 S
C147 C150 1.367 . S
C147 H167 0.931 1_655 S
C148 C145 1.405 . S
C148 C150 1.403 . S
C148 C154 1.439 . S
C149 N146 1.310 1_455 S
C149 C147 1.398 1_455 S
C149 H160 0.939 . S
C150 C147 1.367 . S
C150 C148 1.403 . S
C150 H171 0.929 . S
C151 C152 1.430 . S
C151 C153 1.387 . S
C151 C157 1.404 . S
C152 C145 1.448 . S
C152 C151 1.430 . S
C152 N156 1.351 . S
C153 C151 1.387 . S
C153 C154 1.374 . S
C153 H168 0.931 . S
C154 C148 1.439 . S
C154 C153 1.374 . S
C154 H169 0.931 . S
Eu155 N146 2.600 . S
Eu155 N156 2.562 . S
Eu155 O190 2.335 1_655 S
Eu155 O193 2.372 1_655 S
Eu155 O194 2.462 . S
Eu155 O195 2.373 . S
Eu155 O197 2.432 . S
Eu155 O198 2.291 1_545 S
Eu155 C219 2.787 . S
N156 C152 1.351 . S
N156 Eu155 2.562 . S
N156 C158 1.325 . S
C157 C151 1.404 . S
C157 C159 1.366 . S
C157 H165 0.930 . S
C158 N156 1.325 . S
C158 C159 1.416 . S
C158 H164 0.929 . S
C159 C157 1.366 . S
C159 C158 1.416 . S
C159 H161 0.930 . S
H160 C149 0.939 . S
H161 C159 0.930 . S
H162 C177 0.930 1_655 S
H163 C184 0.930 . S
H164 C158 0.929 . S
H165 C157 0.930 . S
H166 C180 0.929 . S
H167 C147 0.931 1_455 S
H168 C153 0.931 . S
H169 C154 0.931 . S
H170 C175 0.931 1_655 S
H171 C150 0.929 . S
H172 C183 0.930 . S
N173 Eu144 2.600 . S
N173 C174 1.365 . S
N173 C177 1.319 . S
C174 N173 1.365 . S
C174 C176 1.405 . S
C174 C182 1.448 . S
C175 H170 0.931 1_455 S
C175 C177 1.397 . S
C175 C178 1.367 . S
C176 C174 1.405 . S
C176 C178 1.403 . S
C176 C209 1.439 . S
C177 H162 0.930 1_455 S
C177 N173 1.319 . S
C177 C175 1.397 . S
C178 C175 1.367 . S
C178 C176 1.403 . S
C178 H185 0.929 . S
N179 Eu144 2.562 . S
N179 C180 1.325 . S
N179 C182 1.351 . S
C180 H166 0.929 . S
C180 N179 1.325 . S
C180 C184 1.416 . S
C181 C182 1.430 . S
C181 C183 1.404 . S
C181 C210 1.387 . S
C182 C174 1.448 . S
C182 N179 1.351 . S
C182 C181 1.430 . S
C183 H172 0.930 . S
C183 C181 1.404 . S
C183 C184 1.366 . S
C184 H163 0.930 . S
C184 C180 1.416 . S
C184 C183 1.366 . S
H185 C178 0.929 . S
H186 C209 0.931 . S
H187 C210 0.931 . S
O188 Eu144 2.462 . S
O188 C208 1.252 . S
O189 Eu144 2.373 . S
O189 C200 1.249 . S
O190 Eu155 2.335 1_455 S
O190 C200 1.264 1_545 S
O191 Eu144 2.432 . S
O191 C208 1.268 . S
O192 Eu144 2.291 1_545 S
O192 C207 1.255 . S
O193 Eu155 2.372 1_455 S
O193 C207 1.257 . S
O194 Eu155 2.462 . S
O194 C219 1.252 . S
O195 Eu155 2.373 . S
O195 C211 1.249 . S
O196 Eu144 2.335 1_655 S
O196 C211 1.264 1_565 S
O197 Eu155 2.432 . S
O197 C219 1.268 . S
O198 Eu155 2.291 1_565 S
O198 C218 1.255 . S
O199 Eu144 2.372 1_655 S
O199 C218 1.257 . S
C200 O189 1.249 . S
C200 O190 1.264 1_565 S
C201 C204 1.382 . S
C201 C206 1.390 . S
C201 C208 1.506 . S
C202 C203 1.398 . S
C202 C206 1.392 . S
C203 C202 1.398 . S
C203 C205 1.372 . S
C203 H220 0.931 . S
C204 C201 1.382 . S
C204 C205 1.390 . S
C204 H221 0.931 . S
C205 C203 1.372 . S
C205 C204 1.390 . S
C205 H222 0.929 . S
C206 C201 1.390 . S
C206 C202 1.392 . S
C206 H223 0.930 . S
C207 O192 1.255 . S
C207 O193 1.257 . S
C208 Eu144 2.787 . S
C208 O188 1.252 . S
C208 O191 1.268 . S
C208 C201 1.506 . S
C209 C176 1.439 . S
C209 H186 0.931 . S
C209 C210 1.374 . S
C210 C181 1.387 . S
C210 H187 0.931 . S
C210 C209 1.374 . S
C211 O195 1.249 . S
C211 O196 1.264 1_545 S
C212 C215 1.382 . S
C212 C216 1.390 . S
C212 C219 1.506 . S
C213 C214 1.398 . S
C213 C216 1.392 . S
C214 C213 1.398 . S
C214 C217 1.372 . S
C214 H224 0.931 . S
C215 C212 1.382 . S
C215 C217 1.390 . S
C215 H225 0.931 . S
C216 C212 1.390 . S
C216 C213 1.392 . S
C216 H226 0.930 . S
C217 C214 1.372 . S
C217 C215 1.390 . S
C217 H227 0.929 . S
C218 O198 1.255 . S
C218 O199 1.257 . S
C219 Eu155 2.787 . S
C219 O194 1.252 . S
C219 O197 1.268 . S
C219 C212 1.506 . S
H220 C203 0.931 . S
H221 C204 0.931 . S
H222 C205 0.929 . S
H223 C206 0.930 . S
H224 C214 0.931 . S
H225 C215 0.931 . S
H226 C216 0.930 . S
H227 C217 0.929 . S
Eu228 N257 2.600 . S
Eu228 N263 2.562 1_556 S
Eu228 O272 2.462 . S
Eu228 O273 2.373 1_556 S
Eu228 O275 2.432 . S
Eu228 O276 2.291 1_556 S
Eu228 O280 2.335 . S
Eu228 O283 2.379 . S
Eu228 C292 2.787 . S
C229 N230 1.365 . S
C229 C232 1.405 . S
C229 C236 1.448 . S
N230 C229 1.365 . S
N230 C233 1.319 . S
N230 Eu239 2.600 . S
C231 C233 1.397 . S
C231 C234 1.367 . S
C231 H251 0.931 . S
C232 C229 1.405 . S
C232 C234 1.403 . S
C232 C238 1.439 . S
C233 N230 1.319 . S
C233 C231 1.397 . S
C233 H244 0.930 . S
C234 C231 1.367 . S
C234 C232 1.403 . S
C234 H255 0.929 . S
C235 C236 1.430 . S
C235 C237 1.387 . S
C235 C241 1.404 . S
C236 C229 1.448 . S
C236 C235 1.430 . S
C236 N240 1.351 . S
C237 C235 1.387 . S
C237 C238 1.374 . S
C237 H252 0.931 . S
C238 C232 1.439 . S
C238 C237 1.374 . S
C238 H253 0.931 . S
Eu239 N230 2.600 . S
Eu239 N240 2.562 . S
Eu239 O274 2.335 . S
Eu239 O277 2.372 . S
Eu239 O278 2.462 . S
Eu239 O279 2.373 1_554 S
Eu239 O281 2.432 . S
Eu239 O282 2.291 . S
Eu239 C303 2.787 . S
N240 C236 1.351 . S
N240 Eu239 2.562 . S
N240 C242 1.325 . S
C241 C235 1.404 . S
C241 C243 1.366 . S
C241 H249 0.930 . S
C242 N240 1.325 . S
C242 C243 1.416 . S
C242 H248 0.929 . S
C243 C241 1.366 . S
C243 C242 1.416 . S
C243 H245 0.930 . S
H244 C233 0.930 . S
H245 C243 0.930 . S
H246 C261 0.930 . S
H247 C268 0.930 . S
H248 C242 0.929 . S
H249 C241 0.930 . S
H250 C264 0.929 . S
H251 C231 0.931 . S
H252 C237 0.931 . S
H253 C238 0.931 . S
H254 C259 0.931 . S
H255 C234 0.929 . S
H256 C267 0.930 . S
N257 Eu228 2.600 . S
N257 C258 1.365 1_556 S
N257 C261 1.319 . S
C258 N257 1.365 1_554 S
C258 C260 1.405 . S
C258 C266 1.448 . S
C259 H254 0.931 . S
C259 C261 1.397 . S
C259 C262 1.367 1_556 S
C260 C258 1.405 . S
C260 C262 1.403 . S
C260 C293 1.439 . S
C261 H246 0.930 . S
C261 N257 1.319 . S
C261 C259 1.397 . S
C262 C259 1.367 1_554 S
C262 C260 1.403 . S
C262 H269 0.929 . S
N263 Eu228 2.562 1_554 S
N263 C264 1.325 . S
N263 C266 1.351 . S
C264 H250 0.929 . S
C264 N263 1.325 . S
C264 C268 1.416 . S
C265 C266 1.430 . S
C265 C267 1.404 . S
C265 C294 1.387 . S
C266 C258 1.448 . S
C266 N263 1.351 . S
C266 C265 1.430 . S
C267 H256 0.930 . S
C267 C265 1.404 . S
C267 C268 1.366 . S
C268 H247 0.930 . S
C268 C264 1.416 . S
C268 C267 1.366 . S
H269 C262 0.929 . S
H270 C293 0.931 . S
H271 C294 0.931 . S
O272 Eu228 2.462 . S
O272 C292 1.252 . S
O273 Eu228 2.373 1_554 S
O273 C284 1.249 . S
O274 Eu239 2.335 . S
O274 C284 1.264 . S
O275 Eu228 2.432 . S
O275 C292 1.268 . S
O276 Eu228 2.291 1_554 S
O276 C291 1.255 . S
O277 Eu239 2.372 . S
O277 C291 1.257 . S
O278 Eu239 2.462 . S
O278 C303 1.252 . S
O279 Eu239 2.373 1_556 S
O279 C295 1.249 . S
O280 Eu228 2.335 . S
O280 C295 1.264 . S
O281 Eu239 2.432 . S
O281 C303 1.268 . S
O282 Eu239 2.291 . S
O282 C302 1.255 . S
O283 Eu228 2.379 . S
O283 C302 1.242 1_556 S
C284 O273 1.249 . S
C284 O274 1.264 . S
C285 C288 1.382 . S
C285 C290 1.390 . S
C285 C292 1.506 . S
C286 C287 1.398 . S
C286 C290 1.392 . S
C287 C286 1.398 . S
C287 C289 1.372 . S
C287 H304 0.931 . S
C288 C285 1.382 . S
C288 C289 1.390 . S
C288 H305 0.931 . S
C289 C287 1.372 . S
C289 C288 1.390 . S
C289 H306 0.929 . S
C290 C285 1.390 . S
C290 C286 1.392 . S
C290 H307 0.930 . S
C291 O276 1.255 . S
C291 O277 1.257 . S
C292 Eu228 2.787 . S
C292 O272 1.252 . S
C292 O275 1.268 . S
C292 C285 1.506 . S
C293 C260 1.439 . S
C293 H270 0.931 . S
C293 C294 1.374 . S
C294 C265 1.387 . S
C294 H271 0.931 . S
C294 C293 1.374 . S
C295 O279 1.249 . S
C295 O280 1.264 . S
C296 C299 1.382 . S
C296 C300 1.390 . S
C296 C303 1.506 . S
C297 C298 1.398 . S
C297 C300 1.392 . S
C298 C297 1.398 . S
C298 C301 1.372 . S
C298 H308 0.931 . S
C299 C296 1.382 . S
C299 C301 1.390 . S
C299 H309 0.931 . S
C300 C296 1.390 . S
C300 C297 1.392 . S
C300 H310 0.930 . S
C301 C298 1.372 . S
C301 C299 1.390 . S
C301 H311 0.929 . S
C302 O282 1.255 . S
C302 O283 1.242 1_554 S
C303 Eu239 2.787 . S
C303 O278 1.252 . S
C303 O281 1.268 . S
C303 C296 1.506 . S
H304 C287 0.931 . S
H305 C288 0.931 . S
H306 C289 0.929 . S
H307 C290 0.930 . S
H308 C298 0.931 . S
H309 C299 0.931 . S
H310 C300 0.930 . S
H311 C301 0.929 . S
H312 C324 0.930 . S
H313 C326 0.930 . S
H314 C327 0.930 . S
H315 C331 0.959 . S
H316 C331 0.959 . S
H317 C331 0.961 . S
H318 C332 0.960 . S
H319 C332 0.961 . S
H320 C332 0.959 . S
H321 C335 0.929 . S
H322 C336 0.931 . S
H323 C338 0.930 . S
C324 H312 0.930 . S
C324 C325 1.399 . S
C324 C329 1.399 . S
C325 C324 1.399 . S
C325 C326 1.376 . S
C326 H313 0.930 . S
C326 C325 1.376 . S
C326 C327 1.388 . S
C327 H314 0.930 . S
C327 C326 1.388 . S
C327 C328 1.390 . S
C328 C327 1.390 . S
C328 C329 1.394 . S
C328 C334 1.465 . S
C329 C324 1.399 . S
C329 C328 1.394 . S
C329 C330 1.516 . S
C330 C329 1.516 . S
C330 C331 1.502 . S
C330 C332 1.561 . S
C330 C333 1.526 . S
C331 H315 0.959 . S
C331 H316 0.959 . S
C331 H317 0.961 . S
C331 C330 1.502 . S
C332 H318 0.960 . S
C332 H319 0.961 . S
C332 H320 0.959 . S
C332 C330 1.561 . S
C333 C330 1.526 . S
C333 C334 1.396 . S
C333 C338 1.390 . S
C334 C328 1.465 . S
C334 C333 1.396 . S
C334 C335 1.399 . S
C335 H321 0.929 . S
C335 C334 1.399 . S
C335 C336 1.385 . S
C336 H322 0.931 . S
C336 C335 1.385 . S
C336 C337 1.389 . S
C337 C336 1.389 . S
C337 C338 1.387 . S
C338 H323 0.930 . S
C338 C333 1.390 . S
C338 C337 1.387 . S
H339 C351 0.930 . S
H340 C353 0.930 . S
H341 C354 0.930 . S
H342 C358 0.959 . S
H343 C358 0.959 . S
H344 C358 0.961 . S
H345 C359 0.960 . S
H346 C359 0.961 . S
H347 C359 0.959 . S
H348 C362 0.929 . S
H349 C363 0.931 . S
H350 C365 0.930 . S
C351 H339 0.930 . S
C351 C352 1.399 . S
C351 C356 1.399 . S
C352 C351 1.399 . S
C352 C353 1.376 1_554 S
C353 H340 0.930 . S
C353 C352 1.376 1_556 S
C353 C354 1.388 . S
C354 H341 0.930 . S
C354 C353 1.388 . S
C354 C355 1.390 1_556 S
C355 C354 1.390 1_554 S
C355 C356 1.394 . S
C355 C361 1.465 . S
C356 C351 1.399 . S
C356 C355 1.394 . S
C356 C357 1.516 . S
C357 C356 1.516 . S
C357 C358 1.502 . S
C357 C359 1.561 . S
C357 C360 1.526 . S
C358 H342 0.959 . S
C358 H343 0.959 . S
C358 H344 0.961 . S
C358 C357 1.502 . S
C359 H345 0.960 . S
C359 H346 0.961 . S
C359 H347 0.959 . S
C359 C357 1.561 . S
C360 C357 1.526 . S
C360 C361 1.396 . S
C360 C365 1.390 . S
C361 C355 1.465 . S
C361 C360 1.396 . S
C361 C362 1.399 1_554 S
C362 H348 0.929 . S
C362 C361 1.399 1_556 S
C362 C363 1.385 . S
C363 H349 0.931 . S
C363 C362 1.385 . S
C363 C364 1.389 1_556 S
C364 C363 1.389 1_554 S
C364 C365 1.387 . S
C365 H350 0.930 . S
C365 C360 1.390 . S
C365 C364 1.387 . S
H366 C378 0.930 . S
H367 C380 0.930 . S
H368 C381 0.930 . S
H369 C385 0.959 . S
H370 C385 0.959 . S
H371 C385 0.961 . S
H372 C386 0.960 . S
H373 C386 0.961 . S
H374 C386 0.959 . S
H375 C389 0.929 . S
H376 C390 0.931 . S
H377 C392 0.930 . S
C378 H366 0.930 . S
C378 C379 1.399 . S
C378 C383 1.399 . S
C379 C378 1.399 . S
C379 C380 1.376 . S
C380 H367 0.930 . S
C380 C379 1.376 . S
C380 C381 1.388 . S
C381 H368 0.930 . S
C381 C380 1.388 . S
C381 C382 1.390 . S
C382 C381 1.390 . S
C382 C383 1.394 . S
C382 C388 1.465 . S
C383 C378 1.399 . S
C383 C382 1.394 . S
C383 C384 1.516 . S
C384 C383 1.516 . S
C384 C385 1.502 . S
C384 C386 1.561 . S
C384 C387 1.526 . S
C385 H369 0.959 . S
C385 H370 0.959 . S
C385 H371 0.961 . S
C385 C384 1.502 . S
C386 H372 0.960 . S
C386 H373 0.961 . S
C386 H374 0.959 . S
C386 C384 1.561 . S
C387 C384 1.526 . S
C387 C388 1.396 . S
C387 C392 1.390 . S
C388 C382 1.465 . S
C388 C387 1.396 . S
C388 C389 1.399 . S
C389 H375 0.929 . S
C389 C388 1.399 . S
C389 C390 1.385 . S
C390 H376 0.931 . S
C390 C389 1.385 . S
C390 C391 1.389 . S
C391 C390 1.389 . S
C391 C392 1.387 . S
C392 H377 0.930 . S
C392 C387 1.390 . S
C392 C391 1.387 . S
H393 C405 0.930 . S
H394 C407 0.930 . S
H395 C408 0.930 . S
H396 C412 0.959 . S
H397 C412 0.959 . S
H398 C412 0.961 . S
H399 C413 0.960 . S
H400 C413 0.961 . S
H401 C413 0.959 . S
H402 C416 0.929 . S
H403 C417 0.931 . S
H404 C419 0.930 . S
C405 H393 0.930 . S
C405 C406 1.399 . S
C405 C410 1.399 . S
C406 C405 1.399 . S
C406 C407 1.376 1_554 S
C407 H394 0.930 . S
C407 C406 1.376 1_556 S
C407 C408 1.388 . S
C408 H395 0.930 . S
C408 C407 1.388 . S
C408 C409 1.390 1_556 S
C409 C408 1.390 1_554 S
C409 C410 1.394 . S
C409 C415 1.465 . S
C410 C405 1.399 . S
C410 C409 1.394 . S
C410 C411 1.516 . S
C411 C410 1.516 . S
C411 C412 1.502 . S
C411 C413 1.561 . S
C411 C414 1.526 . S
C412 H396 0.959 . S
C412 H397 0.959 . S
C412 H398 0.961 . S
C412 C411 1.502 . S
C413 H399 0.960 . S
C413 H400 0.961 . S
C413 H401 0.959 . S
C413 C411 1.561 . S
C414 C411 1.526 . S
C414 C415 1.396 . S
C414 C419 1.390 . S
C415 C409 1.465 . S
C415 C414 1.396 . S
C415 C416 1.399 1_554 S
C416 H402 0.929 . S
C416 C415 1.399 1_556 S
C416 C417 1.385 . S
C417 H403 0.931 . S
C417 C416 1.385 . S
C417 C418 1.389 1_556 S
C418 C417 1.389 1_554 S
C418 C419 1.387 . S
C419 H404 0.930 . S
C419 C414 1.390 . S
C419 C418 1.387 . S
H420 C432 0.930 . S
H421 C434 0.930 . S
H422 C435 0.930 . S
H423 C439 0.959 . S
H424 C439 0.959 . S
H425 C439 0.961 . S
H426 C440 0.960 . S
H427 C440 0.961 . S
H428 C440 0.959 . S
H429 C443 0.929 . S
H430 C444 0.931 . S
H431 C446 0.930 . S
C432 H420 0.930 . S
C432 C433 1.399 . S
C432 C437 1.399 . S
C433 C432 1.399 . S
C433 C434 1.376 . S
C434 H421 0.930 . S
C434 C433 1.376 . S
C434 C435 1.388 . S
C435 H422 0.930 . S
C435 C434 1.388 . S
C435 C436 1.390 . S
C436 C435 1.390 . S
C436 C437 1.394 . S
C436 C442 1.465 . S
C437 C432 1.399 . S
C437 C436 1.394 . S
C437 C438 1.516 . S
C438 C437 1.516 . S
C438 C439 1.502 . S
C438 C440 1.561 . S
C438 C441 1.526 . S
C439 H423 0.959 . S
C439 H424 0.959 . S
C439 H425 0.961 . S
C439 C438 1.502 . S
C440 H426 0.960 . S
C440 H427 0.961 . S
C440 H428 0.959 . S
C440 C438 1.561 . S
C441 C438 1.526 . S
C441 C442 1.396 . S
C441 C446 1.390 . S
C442 C436 1.465 . S
C442 C441 1.396 . S
C442 C443 1.399 . S
C443 H429 0.929 . S
C443 C442 1.399 . S
C443 C444 1.385 . S
C444 H430 0.931 . S
C444 C443 1.385 . S
C444 C445 1.389 . S
C445 C444 1.389 . S
C445 C446 1.387 . S
C446 H431 0.930 . S
C446 C441 1.390 . S
C446 C445 1.387 . S
H447 C459 0.930 . S
H448 C461 0.930 . S
H449 C462 0.930 . S
H450 C466 0.959 . S
H451 C466 0.959 . S
H452 C466 0.961 . S
H453 C467 0.960 . S
H454 C467 0.961 . S
H455 C467 0.959 . S
H456 C470 0.929 . S
H457 C471 0.931 . S
H458 C473 0.930 . S
C459 H447 0.930 . S
C459 C460 1.399 . S
C459 C464 1.399 . S
C460 C459 1.399 . S
C460 C461 1.376 . S
C461 H448 0.930 . S
C461 C460 1.376 . S
C461 C462 1.388 . S
C462 H449 0.930 . S
C462 C461 1.388 . S
C462 C463 1.390 . S
C463 C462 1.390 . S
C463 C464 1.394 . S
C463 C469 1.465 . S
C464 C459 1.399 . S
C464 C463 1.394 . S
C464 C465 1.516 . S
C465 C464 1.516 . S
C465 C466 1.502 . S
C465 C467 1.561 . S
C465 C468 1.526 . S
C466 H450 0.959 . S
C466 H451 0.959 . S
C466 H452 0.961 . S
C466 C465 1.502 . S
C467 H453 0.960 . S
C467 H454 0.961 . S
C467 H455 0.959 . S
C467 C465 1.561 . S
C468 C465 1.526 . S
C468 C469 1.396 . S
C468 C473 1.390 . S
C469 C463 1.465 . S
C469 C468 1.396 . S
C469 C470 1.399 . S
C470 H456 0.929 . S
C470 C469 1.399 . S
C470 C471 1.385 . S
C471 H457 0.931 . S
C471 C470 1.385 . S
C471 C472 1.389 . S
C472 C471 1.389 . S
C472 C473 1.387 . S
C473 H458 0.930 . S
C473 C468 1.390 . S
C473 C472 1.387 . S
H474 C486 0.930 . S
H475 C488 0.930 . S
H476 C489 0.930 . S
H477 C493 0.959 1_545 S
H478 C493 0.959 . S
H479 C493 0.961 . S
H480 C494 0.960 . S
H481 C494 0.961 . S
H482 C494 0.959 . S
H483 C497 0.929 . S
H484 C498 0.931 . S
H485 C500 0.930 1_565 S
C486 H474 0.930 . S
C486 C487 1.399 . S
C486 C491 1.399 . S
C487 C486 1.399 . S
C487 C488 1.376 . S
C488 H475 0.930 . S
C488 C487 1.376 . S
C488 C489 1.388 . S
C489 H476 0.930 . S
C489 C488 1.388 . S
C489 C490 1.390 . S
C490 C489 1.390 . S
C490 C491 1.394 . S
C490 C496 1.465 . S
C491 C486 1.399 . S
C491 C490 1.394 . S
C491 C492 1.516 . S
C492 C491 1.516 . S
C492 C493 1.502 1_545 S
C492 C494 1.561 1_545 S
C492 C495 1.526 . S
C493 H477 0.959 1_565 S
C493 H478 0.959 . S
C493 H479 0.961 . S
C493 C492 1.502 1_565 S
C494 H480 0.960 . S
C494 H481 0.961 . S
C494 H482 0.959 . S
C494 C492 1.561 1_565 S
C495 C492 1.526 . S
C495 C496 1.396 . S
C495 C500 1.390 . S
C496 C490 1.465 . S
C496 C495 1.396 . S
C496 C497 1.399 . S
C497 H483 0.929 . S
C497 C496 1.399 . S
C497 C498 1.385 . S
C498 H484 0.931 . S
C498 C497 1.385 . S
C498 C499 1.389 . S
C499 C498 1.389 . S
C499 C500 1.387 . S
C500 H485 0.930 1_545 S
C500 C495 1.390 . S
C500 C499 1.387 . S
H501 C513 0.930 . S
H502 C515 0.930 . S
H503 C516 0.930 . S
H504 C520 0.959 . S
H505 C520 0.959 . S
H506 C520 0.961 . S
H507 C521 0.960 . S
H508 C521 0.961 . S
H509 C521 0.959 . S
H510 C524 0.929 . S
H511 C525 0.931 . S
H512 C527 0.930 . S
C513 H501 0.930 . S
C513 C514 1.399 . S
C513 C518 1.399 . S
C514 C513 1.399 . S
C514 C515 1.376 . S
C515 H502 0.930 . S
C515 C514 1.376 . S
C515 C516 1.388 . S
C516 H503 0.930 . S
C516 C515 1.388 . S
C516 C517 1.390 . S
C517 C516 1.390 . S
C517 C518 1.394 . S
C517 C523 1.465 . S
C518 C513 1.399 . S
C518 C517 1.394 . S
C518 C519 1.516 . S
C519 C518 1.516 . S
C519 C520 1.502 . S
C519 C521 1.561 . S
C519 C522 1.526 . S
C520 H504 0.959 . S
C520 H505 0.959 . S
C520 H506 0.961 . S
C520 C519 1.502 . S
C521 H507 0.960 . S
C521 H508 0.961 . S
C521 H509 0.959 . S
C521 C519 1.561 . S
C522 C519 1.526 . S
C522 C523 1.396 . S
C522 C527 1.390 . S
C523 C517 1.465 . S
C523 C522 1.396 . S
C523 C524 1.399 . S
C524 H510 0.929 . S
C524 C523 1.399 . S
C524 C525 1.385 . S
C525 H511 0.931 . S
C525 C524 1.385 . S
C525 C526 1.389 . S
C526 C525 1.389 . S
C526 C527 1.387 . S
C527 H512 0.930 . S
C527 C522 1.390 . S
C527 C526 1.387 . S
H528 C540 0.930 . S
H529 C542 0.930 . S
H530 C543 0.930 . S
H531 C547 0.959 . S
H532 C547 0.959 . S
H533 C547 0.961 . S
H534 C548 0.960 . S
H535 C548 0.961 . S
H536 C548 0.959 . S
H537 C551 0.929 . S
H538 C552 0.931 . S
H539 C554 0.930 . S
C540 H528 0.930 . S
C540 C541 1.399 . S
C540 C545 1.399 . S
C541 C540 1.399 . S
C541 C542 1.376 . S
C542 H529 0.930 . S
C542 C541 1.376 . S
C542 C543 1.388 . S
C543 H530 0.930 . S
C543 C542 1.388 . S
C543 C544 1.390 . S
C544 C543 1.390 . S
C544 C545 1.394 . S
C544 C550 1.465 . S
C545 C540 1.399 . S
C545 C544 1.394 . S
C545 C546 1.516 . S
C546 C545 1.516 . S
C546 C547 1.502 . S
C546 C548 1.561 . S
C546 C549 1.526 . S
C547 H531 0.959 . S
C547 H532 0.959 . S
C547 H533 0.961 . S
C547 C546 1.502 . S
C548 H534 0.960 . S
C548 H535 0.961 . S
C548 H536 0.959 . S
C548 C546 1.561 . S
C549 C546 1.526 . S
C549 C550 1.396 . S
C549 C554 1.390 . S
C550 C544 1.465 . S
C550 C549 1.396 . S
C550 C551 1.399 . S
C551 H537 0.929 . S
C551 C550 1.399 . S
C551 C552 1.385 . S
C552 H538 0.931 . S
C552 C551 1.385 . S
C552 C553 1.389 . S
C553 C552 1.389 . S
C553 C554 1.387 . S
C554 H539 0.930 . S
C554 C549 1.390 . S
C554 C553 1.387 . S
H555 C567 0.930 . S
H556 C569 0.930 . S
H557 C570 0.930 . S
H558 C574 0.959 . S
H559 C574 0.959 . S
H560 C574 0.961 . S
H561 C575 0.960 . S
H562 C575 0.961 . S
H563 C575 0.959 . S
H564 C578 0.929 . S
H565 C579 0.931 . S
H566 C581 0.930 . S
C567 H555 0.930 . S
C567 C568 1.399 . S
C567 C572 1.399 . S
C568 C567 1.399 . S
C568 C569 1.376 . S
C569 H556 0.930 . S
C569 C568 1.376 . S
C569 C570 1.388 . S
C570 H557 0.930 . S
C570 C569 1.388 . S
C570 C571 1.390 . S
C571 C570 1.390 . S
C571 C572 1.394 . S
C571 C577 1.465 . S
C572 C567 1.399 . S
C572 C571 1.394 . S
C572 C573 1.516 . S
C573 C572 1.516 . S
C573 C574 1.502 . S
C573 C575 1.561 . S
C573 C576 1.526 . S
C574 H558 0.959 . S
C574 H559 0.959 . S
C574 H560 0.961 . S
C574 C573 1.502 . S
C575 H561 0.960 . S
C575 H562 0.961 . S
C575 H563 0.959 . S
C575 C573 1.561 . S
C576 C573 1.526 . S
C576 C577 1.396 . S
C576 C581 1.390 . S
C577 C571 1.465 . S
C577 C576 1.396 . S
C577 C578 1.399 . S
C578 H564 0.929 . S
C578 C577 1.399 . S
C578 C579 1.385 . S
C579 H565 0.931 . S
C579 C578 1.385 . S
C579 C580 1.389 . S
C580 C579 1.389 . S
C580 C581 1.387 . S
C581 H566 0.930 . S
C581 C576 1.390 . S
C581 C580 1.387 . S
H582 C594 0.930 . S
H583 C596 0.930 . S
H584 C597 0.930 . S
H585 C601 0.959 . S
H586 C601 0.959 . S
H587 C601 0.961 . S
H588 C602 0.960 . S
H589 C602 0.961 . S
H590 C602 0.959 . S
H591 C605 0.929 . S
H592 C606 0.931 . S
H593 C608 0.930 . S
C594 H582 0.930 . S
C594 C595 1.399 . S
C594 C599 1.399 . S
C595 C594 1.399 . S
C595 C596 1.376 . S
C596 H583 0.930 . S
C596 C595 1.376 . S
C596 C597 1.388 . S
C597 H584 0.930 . S
C597 C596 1.388 . S
C597 C598 1.390 . S
C598 C597 1.390 . S
C598 C599 1.394 . S
C598 C604 1.465 . S
C599 C594 1.399 . S
C599 C598 1.394 . S
C599 C600 1.516 . S
C600 C599 1.516 . S
C600 C601 1.502 . S
C600 C602 1.561 . S
C600 C603 1.526 . S
C601 H585 0.959 . S
C601 H586 0.959 . S
C601 H587 0.961 . S
C601 C600 1.502 . S
C602 H588 0.960 . S
C602 H589 0.961 . S
C602 H590 0.959 . S
C602 C600 1.561 . S
C603 C600 1.526 . S
C603 C604 1.396 . S
C603 C608 1.390 . S
C604 C598 1.465 . S
C604 C603 1.396 . S
C604 C605 1.399 . S
C605 H591 0.929 . S
C605 C604 1.399 . S
C605 C606 1.385 . S
C606 H592 0.931 . S
C606 C605 1.385 . S
C606 C607 1.389 . S
C607 C606 1.389 . S
C607 C608 1.387 . S
C608 H593 0.930 . S
C608 C603 1.390 . S
C608 C607 1.387 . S
H609 C621 0.930 . S
H610 C623 0.930 . S
H611 C624 0.930 . S
H612 C628 0.959 . S
H613 C628 0.959 . S
H614 C628 0.961 . S
H615 C629 0.960 . S
H616 C629 0.961 . S
H617 C629 0.959 . S
H618 C632 0.929 . S
H619 C633 0.931 . S
H620 C635 0.930 . S
C621 H609 0.930 . S
C621 C622 1.399 . S
C621 C626 1.399 . S
C622 C621 1.399 . S
C622 C623 1.376 . S
C623 H610 0.930 . S
C623 C622 1.376 . S
C623 C624 1.388 . S
C624 H611 0.930 . S
C624 C623 1.388 . S
C624 C625 1.390 . S
C625 C624 1.390 . S
C625 C626 1.394 . S
C625 C631 1.465 . S
C626 C621 1.399 . S
C626 C625 1.394 . S
C626 C627 1.516 . S
C627 C626 1.516 . S
C627 C628 1.502 . S
C627 C629 1.561 1_565 S
C627 C630 1.526 . S
C628 H612 0.959 . S
C628 H613 0.959 . S
C628 H614 0.961 . S
C628 C627 1.502 . S
C629 H615 0.960 . S
C629 H616 0.961 . S
C629 H617 0.959 . S
C629 C627 1.561 1_545 S
C630 C627 1.526 . S
C630 C631 1.396 . S
C630 C635 1.390 . S
C631 C625 1.465 . S
C631 C630 1.396 . S
C631 C632 1.399 . S
C632 H618 0.929 . S
C632 C631 1.399 . S
C632 C633 1.385 . S
C633 H619 0.931 . S
C633 C632 1.385 . S
C633 C634 1.389 . S
C634 C633 1.389 . S
C634 C635 1.387 . S
C635 H620 0.930 . S
C635 C630 1.390 . S
C635 C634 1.387 . S
C337 C207 1.646 . S
C325 C133 1.644 . S
C352 C25 1.600 . S
C364 C302 1.598 . S
C379 C61 1.594 . S
C391 C218 1.609 . S
C406 C97 1.572 . S
C418 C291 1.634 . S
C445 C202 1.397 . S
C433 C1 1.552 . S
C472 C295 1.604 . S
C460 C67 1.574 . S
C487 C103 1.542 . S
C499 C211 1.616 . S
C514 C109 1.519 . S
C526 C286 1.382 . S
C553 C297 1.353 . S
C541 C37 1.508 . S
C580 C213 1.426 . S
C568 C73 1.532 . S
C607 C284 1.605 . S
C595 C139 1.587 . S
C622 C31 1.611 . S
C634 C200 1.617 . S
