# Generated by pormake.
# Topology zzz, (3,6)-cn, num edge types: 1
# Building blocks:
#     Node 0, Type 0, BuildingBlock: VETTIZ_charged_linker_0, # of connection points: 3
#     Node 1, Type 0, BuildingBlock: VETTIZ_charged_linker_0, # of connection points: 3
#     Node 2, Type 0, BuildingBlock: VETTIZ_charged_linker_0, # of connection points: 3
#     Node 3, Type 0, BuildingBlock: VETTIZ_charged_linker_0, # of connection points: 3
#     Node 4, Type 0, BuildingBlock: VETTIZ_charged_linker_0, # of connection points: 3
#     Node 5, Type 0, BuildingBlock: VETTIZ_charged_linker_0, # of connection points: 3
#     Node 6, Type 0, BuildingBlock: VETTIZ_charged_linker_0, # of connection points: 3
#     Node 7, Type 0, BuildingBlock: VETTIZ_charged_linker_0, # of connection points: 3
#     Node 8, Type 1, BuildingBlock: KUMJIN_clean_sbu_1, # of connection points: 6
#     Node 9, Type 1, BuildingBlock: KUMJIN_clean_sbu_1, # of connection points: 6
#     Node 10, Type 1, BuildingBlock: KUMJIN_clean_sbu_1, # of connection points: 6
#     Node 11, Type 1, BuildingBlock: KUMJIN_clean_sbu_1, # of connection points: 6
#     Edge 12, Type (0, 1), BuildingBlock: UVAHIK_clean_linker_0, # of connection points: 2
#     Edge 13, Type (0, 1), BuildingBlock: UVAHIK_clean_linker_0, # of connection points: 2
#     Edge 14, Type (0, 1), BuildingBlock: UVAHIK_clean_linker_0, # of connection points: 2
#     Edge 15, Type (0, 1), BuildingBlock: UVAHIK_clean_linker_0, # of connection points: 2
#     Edge 16, Type (0, 1), BuildingBlock: UVAHIK_clean_linker_0, # of connection points: 2
#     Edge 17, Type (0, 1), BuildingBlock: UVAHIK_clean_linker_0, # of connection points: 2
#     Edge 18, Type (0, 1), BuildingBlock: UVAHIK_clean_linker_0, # of connection points: 2
#     Edge 19, Type (0, 1), BuildingBlock: UVAHIK_clean_linker_0, # of connection points: 2
#     Edge 20, Type (0, 1), BuildingBlock: UVAHIK_clean_linker_0, # of connection points: 2
#     Edge 21, Type (0, 1), BuildingBlock: UVAHIK_clean_linker_0, # of connection points: 2
#     Edge 22, Type (0, 1), BuildingBlock: UVAHIK_clean_linker_0, # of connection points: 2
#     Edge 23, Type (0, 1), BuildingBlock: UVAHIK_clean_linker_0, # of connection points: 2
#     Edge 24, Type (0, 1), BuildingBlock: UVAHIK_clean_linker_0, # of connection points: 2
#     Edge 25, Type (0, 1), BuildingBlock: UVAHIK_clean_linker_0, # of connection points: 2
#     Edge 26, Type (0, 1), BuildingBlock: UVAHIK_clean_linker_0, # of connection points: 2
#     Edge 27, Type (0, 1), BuildingBlock: UVAHIK_clean_linker_0, # of connection points: 2
#     Edge 28, Type (0, 1), BuildingBlock: UVAHIK_clean_linker_0, # of connection points: 2
#     Edge 29, Type (0, 1), BuildingBlock: UVAHIK_clean_linker_0, # of connection points: 2
#     Edge 30, Type (0, 1), BuildingBlock: UVAHIK_clean_linker_0, # of connection points: 2
#     Edge 31, Type (0, 1), BuildingBlock: UVAHIK_clean_linker_0, # of connection points: 2
#     Edge 32, Type (0, 1), BuildingBlock: UVAHIK_clean_linker_0, # of connection points: 2
#     Edge 33, Type (0, 1), BuildingBlock: UVAHIK_clean_linker_0, # of connection points: 2
#     Edge 34, Type (0, 1), BuildingBlock: UVAHIK_clean_linker_0, # of connection points: 2
#     Edge 35, Type (0, 1), BuildingBlock: UVAHIK_clean_linker_0, # of connection points: 2
# Relax obj value: 0.294
# Max RMSD: 0.212
# Mean RMSD: 0.182
data_MOF--net-zzz--node1-KUMJIN_clean_sbu_1--node2-VETTIZ_charged_linker_0--edge1-UVAHIK_clean_linker_0
_symmetry_space_group_name_H-M    P1
_symmetry_Int_Tables_number       1
_symmetry_cell_setting            triclinic
loop_
_symmetry_equiv_pos_as_xyz
'x, y, z'
_cell_length_a     69.770826
_cell_length_b     69.908721
_cell_length_c     25.892551
_cell_angle_alpha  89.969043
_cell_angle_beta   90.001435
_cell_angle_gamma 90.313124
loop_
_atom_site_label
_atom_site_type_symbol
_atom_site_fract_x
_atom_site_fract_y
_atom_site_fract_z
_atom_type_partial_charge
C0 C 0.80187 0.54157 0.22938 0.0
C1 C 0.82019 0.54901 0.24248 0.0
C2 C 0.82876 0.56256 0.20949 0.0
C3 C 0.80149 0.5613 0.15178 0.0
C4 C 0.7926 0.5482 0.18401 0.0
C5 C 0.77279 0.54291 0.16372 0.0
H6 H 0.70334 0.5608 0.98074 0.0
C7 C 0.78853 0.56571 0.10836 0.0
C8 C 0.77128 0.55545 0.1153 0.0
H9 H 0.69962 0.51851 0.10156 0.0
H10 H 0.73164 0.52766 0.13206 0.0
H11 H 0.72489 0.59474 0.0447 0.0
H12 H 0.74075 0.54878 0.94514 0.0
H13 H 0.75929 0.56537 0.93616 0.0
H14 H 0.73503 0.57185 0.91968 0.0
H15 H 0.72053 0.59402 0.9764 0.0
H16 H 0.74245 0.60386 1.00241 0.0
C17 C 0.75771 0.54829 0.20464 0.0
C18 C 0.77268 0.52143 0.15016 0.0
C19 C 0.81412 0.60308 0.95472 0.0
C20 C 0.80574 0.6081 0.90714 0.0
C21 C 0.78566 0.60703 0.90209 0.0
C22 C 0.77436 0.59926 0.94164 0.0
C23 C 0.78322 0.59232 0.98664 0.0
C24 C 0.80261 0.5952 0.99379 0.0
C25 C 0.80938 0.58744 0.04487 0.0
C26 C 0.7912 0.57769 0.06456 0.0
C27 C 0.77606 0.58057 0.03014 0.0
C28 C 0.81544 0.60465 0.07924 0.0
C29 C 0.82558 0.57284 0.03448 0.0
C30 C 0.7092 0.55371 0.01445 0.0
C31 C 0.6988 0.53926 0.03936 0.0
C32 C 0.70732 0.52986 0.08189 0.0
C33 C 0.72587 0.53518 0.09947 0.0
C34 C 0.73614 0.54974 0.07349 0.0
C35 C 0.72764 0.55844 0.03127 0.0
C36 C 0.74073 0.57205 1.004 0.0
C37 C 0.75844 0.57078 0.03737 0.0
C38 C 0.75592 0.55794 0.07894 0.0
C39 C 0.73173 0.59226 1.00648 0.0
C40 C 0.74412 0.56431 0.94834 0.0
H41 H 0.82715 0.57883 0.1413 0.0
H42 H 0.79488 0.53119 0.25418 0.0
H43 H 0.78576 0.51765 0.12791 0.0
H44 H 0.7604 0.51735 0.12567 0.0
H45 H 0.77239 0.51255 0.18576 0.0
H46 H 0.75994 0.56328 0.21777 0.0
H47 H 0.75878 0.53877 0.23889 0.0
H48 H 0.74295 0.54739 0.18956 0.0
H49 H 0.82949 0.60381 0.96007 0.0
H50 H 0.77878 0.61127 0.8664 0.0
H51 H 0.75927 0.59815 0.93452 0.0
H52 H 0.8097 0.61845 0.06459 0.0
H53 H 0.83128 0.60618 0.08103 0.0
H54 H 0.80971 0.60341 0.11907 0.0
H55 H 0.82164 0.56327 1.00181 0.0
H56 H 0.82841 0.5633 0.0675 0.0
H57 H 0.83918 0.58026 0.02428 0.0
H58 H 0.84283 0.56836 0.21828 0.0
C59 C 0.8196 0.56867 0.16461 0.0
C60 C 0.92522 0.80169 0.9436 0.0
C61 C 0.92032 0.82112 0.94881 0.0
C62 C 0.91838 0.82871 0.99909 0.0
C63 C 0.9311 0.79953 0.03562 0.0
C64 C 0.93046 0.7912 0.98743 0.0
C65 C 0.93743 0.77088 0.98837 0.0
H66 H 0.99186 0.70286 0.0984 0.0
C67 C 0.94122 0.78633 0.07074 0.0
C68 C 0.94484 0.76945 0.04362 0.0
H69 H 0.95583 0.69922 0.9628 0.0
H70 H 0.94396 0.73068 0.97889 0.0
H71 H 1.00409 0.7501 0.08555 0.0
H72 H 0.95726 0.72497 0.17355 0.0
H73 H 0.97168 0.74086 0.21051 0.0
H74 H 0.98183 0.719 0.18684 0.0
H75 H 0.00857 0.73409 0.13856 0.0
H76 H 1.003 0.75885 0.1496 0.0
C77 C 0.95374 0.76881 0.94811 0.0
C78 C 0.9199 0.75754 0.97861 0.0
C79 C 0.96498 0.81345 0.23978 0.0
C80 C 0.97887 0.80797 0.27566 0.0
C81 C 0.98812 0.79021 0.26912 0.0
C82 C 0.98338 0.77809 0.2271 0.0
C83 C 0.96953 0.78401 0.19081 0.0
C84 C 0.9608 0.80159 0.19773 0.0
C85 C 0.94792 0.80688 0.15389 0.0
C86 C 0.94983 0.78945 0.11964 0.0
C87 C 0.96224 0.77572 0.14126 0.0
C88 C 0.95594 0.82543 0.12821 0.0
C89 C 0.92725 0.8087 0.17512 0.0
C90 C 0.98141 0.70902 0.07243 0.0
C91 C 0.97483 0.69863 0.02884 0.0
C92 C 0.96107 0.70691 0.99636 0.0
C93 C 0.95417 0.72523 1.00572 0.0
C94 C 0.96105 0.73569 0.04803 0.0
C95 C 0.97396 0.72753 0.08185 0.0
C96 C 0.97815 0.74091 0.12687 0.0
C97 C 0.96541 0.75809 0.11418 0.0
C98 C 0.95608 0.75492 0.06671 0.0
C99 C 0.99962 0.74628 0.12551 0.0
C100 C 0.972 0.73096 0.1774 0.0
H101 H 0.92299 0.82494 0.07932 0.0
H102 H 0.92651 0.79513 0.90597 0.0
H103 H 0.90602 0.76525 0.98108 0.0
H104 H 0.91884 0.74603 1.00806 0.0
H105 H 0.9205 0.75094 0.93962 0.0
H106 H 0.96422 0.78077 0.95194 0.0
H107 H 0.94795 0.76902 0.90816 0.0
H108 H 0.96201 0.75553 0.95255 0.0
H109 H 0.95799 0.82721 0.24322 0.0
H110 H 0.99903 0.78578 0.2963 0.0
H111 H 0.99085 0.76477 0.22387 0.0
H112 H 0.97087 0.82873 0.14055 0.0
H113 H 0.94712 0.83809 0.13812 0.0
H114 H 0.95691 0.82426 0.08567 0.0
H115 H 0.92408 0.79708 0.20331 0.0
H116 H 0.91623 0.80725 0.14467 0.0
H117 H 0.92527 0.82258 0.19524 0.0
H118 H 0.9137 0.84329 1.00484 0.0
C119 C 0.92383 0.81805 0.04243 0.0
C120 C 0.81163 0.98334 0.06135 0.0
C121 C 0.82138 0.97479 0.01932 0.0
C122 C 0.81238 0.95969 0.99263 0.0
C123 C 0.78471 0.9615 0.04864 0.0
C124 C 0.79333 0.97623 0.07585 0.0
C125 C 0.78075 0.9826 0.12057 0.0
H126 H 0.698 0.96621 0.25905 0.0
C127 C 0.76605 0.95698 0.07257 0.0
C128 C 0.76358 0.96896 0.11584 0.0
H129 H 0.739 0.01128 0.28805 0.0
H130 H 0.75844 1.00033 0.2151 0.0
H131 H 0.69489 0.97444 0.14859 0.0
H132 H 0.7272 0.93228 0.22977 0.0
H133 H 0.71725 0.92065 0.17575 0.0
H134 H 0.70163 0.93178 0.22229 0.0
H135 H 0.68468 0.95163 0.16427 0.0
H136 H 0.69678 0.95589 0.10366 0.0
C137 C 0.77493 1.00358 0.11132 0.0
C138 C 0.79178 0.97961 0.1715 0.0
C139 C 0.72007 0.91156 0.98081 0.0
C140 C 0.70075 0.90664 0.99081 0.0
C141 C 0.69331 0.91066 0.04044 0.0
C142 C 0.70407 0.92076 0.07691 0.0
C143 C 0.72237 0.92753 0.06381 0.0
C144 C 0.73043 0.92229 0.01736 0.0
C145 C 0.75005 0.93103 1.01022 0.0
C146 C 0.75165 0.94351 0.05838 0.0
C147 C 0.7354 0.94131 0.08935 0.0
C148 C 0.74976 0.94318 0.9601 0.0
C149 C 0.76495 0.91461 1.01018 0.0
C150 C 0.71137 0.97354 0.25055 0.0
C151 C 0.71717 0.9893 0.28 0.0
C152 C 0.7343 0.99894 0.26612 0.0
C153 C 0.74552 0.99256 0.22385 0.0
C154 C 0.73932 0.97667 0.19455 0.0
C155 C 0.72229 0.96774 0.20827 0.0
C156 C 0.71637 0.95248 0.17121 0.0
C157 C 0.73293 0.95291 0.13367 0.0
C158 C 0.74667 0.96693 0.14703 0.0
C159 C 0.69717 0.95873 0.14568 0.0
C160 C 0.71539 0.93324 0.20103 0.0
H161 H 0.7884 0.94156 0.98463 0.0
H162 H 0.81824 0.99492 0.0828 0.0
H163 H 0.79787 0.96495 0.17301 0.0
H164 H 0.78253 0.9811 0.20575 0.0
H165 H 0.80381 0.99002 0.17488 0.0
H166 H 0.77021 1.00566 0.07068 0.0
H167 H 0.78721 0.0134 0.11862 0.0
H168 H 0.76279 0.00798 0.13574 0.0
H169 H 0.72674 0.90818 0.94426 0.0
H170 H 0.67862 0.90737 0.0505 0.0
H171 H 0.6972 0.92377 0.11296 0.0
H172 H 0.73629 0.95158 0.95761 0.0
H173 H 0.75056 0.93393 0.92532 0.0
H174 H 0.76145 0.95384 0.95805 0.0
H175 H 0.7592 0.90137 0.02854 0.0
H176 H 0.77789 0.91824 0.03307 0.0
H177 H 0.76933 0.9108 0.97027 0.0
H178 H 0.81939 0.953 0.95998 0.0
C179 C 0.79428 0.95304 1.00698 0.0
C180 C 0.53754 0.72721 0.22356 0.0
C181 C 0.54482 0.7089 0.23643 0.0
C182 C 0.5588 0.70071 0.20434 0.0
C183 C 0.55907 0.72875 0.14952 0.0
C184 C 0.54509 0.73702 0.17991 0.0
C185 C 0.5399 0.75678 0.15944 0.0
H186 H 0.5647 0.82971 0.99184 0.0
C187 C 0.56507 0.74254 0.10942 0.0
C188 C 0.55438 0.75944 0.11538 0.0
H189 H 0.51433 0.82821 0.08802 0.0
H190 H 0.52399 0.79705 0.12259 0.0
H191 H 0.59524 0.8086 0.07295 0.0
H192 H 0.55881 0.7944 0.94668 0.0
H193 H 0.5752 0.77561 0.94566 0.0
H194 H 0.58356 0.79982 0.93623 0.0
H195 H 0.59928 0.81487 1.00657 0.0
H196 H 0.60813 0.79275 0.0333 0.0
C197 C 0.54274 0.77173 0.2025 0.0
C198 C 0.51913 0.75587 0.1391 0.0
C199 C 0.61 0.72171 0.96644 0.0
C200 C 0.61845 0.73166 0.92466 0.0
C201 C 0.61879 0.75185 0.92639 0.0
C202 C 0.60878 0.76178 0.96472 0.0
C203 C 0.59851 0.75148 1.00231 0.0
C204 C 0.60034 0.73191 1.00494 0.0
C205 C 0.58988 0.72361 0.05072 0.0
C206 C 0.57942 0.74119 0.07071 0.0
C207 C 0.58436 0.75732 0.04164 0.0
C208 C 0.60513 0.71624 0.08962 0.0
C209 C 0.57571 0.70805 0.03135 0.0
C210 C 0.55591 0.82289 0.02114 0.0
C211 C 0.53899 0.83151 0.03785 0.0
C212 C 0.52755 0.82184 0.07473 0.0
C213 C 0.5331 0.80375 0.09443 0.0
C214 C 0.54993 0.79502 0.07579 0.0
C215 C 0.56079 0.80472 0.03925 0.0
C216 C 0.57676 0.79296 0.01801 0.0
C217 C 0.57392 0.77449 0.04749 0.0
C218 C 0.55857 0.77562 0.08286 0.0
C219 C 0.59594 0.80278 0.033 0.0
C220 C 0.57361 0.79058 0.95872 0.0
H221 H 0.57633 0.70315 0.13862 0.0
H222 H 0.52669 0.73381 0.2474 0.0
H223 H 0.51683 0.74271 0.11574 0.0
H224 H 0.51567 0.76794 0.11341 0.0
H225 H 0.50874 0.75563 0.17161 0.0
H226 H 0.55737 0.77058 0.21921 0.0
H227 H 0.53218 0.76948 0.23408 0.0
H228 H 0.54114 0.78649 0.18808 0.0
H229 H 0.60961 0.70626 0.96769 0.0
H230 H 0.62601 0.76008 0.89671 0.0
H231 H 0.60875 0.77708 0.96231 0.0
H232 H 0.61976 0.72177 0.08088 0.0
H233 H 0.60598 0.70038 0.08925 0.0
H234 H 0.6022 0.72111 0.12961 0.0
H235 H 0.56787 0.71315 0.99662 0.0
H236 H 0.56461 0.70431 0.06003 0.0
H237 H 0.58341 0.69475 0.02071 0.0
H238 H 0.56439 0.68662 0.21286 0.0
C239 C 0.56585 0.71042 0.16128 0.0
C240 C 0.3136 0.48553 0.17415 0.0
C241 C 0.32312 0.48047 0.22055 0.0
C242 C 0.31371 0.46858 0.25618 0.0
C243 C 0.28599 0.4664 0.20035 0.0
C244 C 0.29492 0.47816 0.16466 0.0
C245 C 0.28209 0.48134 0.11783 0.0
H246 H 0.19627 0.45893 0.99968 0.0
C247 C 0.26718 0.46045 0.17979 0.0
C248 C 0.26464 0.46876 0.13071 0.0
H249 H 0.23852 0.49896 0.94241 0.0
H250 H 0.25902 0.49209 0.01671 0.0
H251 H 0.22388 0.42664 0.03283 0.0
H252 H 0.19838 0.4734 0.11495 0.0
H253 H 0.1958 0.45301 0.15379 0.0
H254 H 0.18509 0.45325 0.09082 0.0
H255 H 0.19972 0.4254 0.05622 0.0
H256 H 0.21977 0.41798 0.09552 0.0
C257 C 0.29257 0.47434 0.06905 0.0
C258 C 0.27683 0.50272 0.11567 0.0
C259 C 0.22173 0.42371 0.29638 0.0
C260 C 0.2031 0.4163 0.28896 0.0
C261 C 0.19624 0.41445 0.23786 0.0
C262 C 0.20652 0.42217 0.19622 0.0
C263 C 0.22399 0.43166 0.20551 0.0
C264 C 0.2319 0.43111 0.25422 0.0
C265 C 0.25133 0.44044 0.256 0.0
C266 C 0.25288 0.44838 0.20143 0.0
C267 C 0.23667 0.44351 0.17249 0.0
C268 C 0.26632 0.42453 0.26658 0.0
C269 C 0.25086 0.45662 0.297 0.0
C270 C 0.21007 0.46606 1.00219 0.0
C271 C 0.21577 0.47928 0.96442 0.0
C272 C 0.23367 0.48866 0.97087 0.0
C273 C 0.24555 0.48467 0.01402 0.0
C274 C 0.23938 0.47139 0.05164 0.0
C275 C 0.2218 0.46245 0.04478 0.0
C276 C 0.21651 0.44952 0.08855 0.0
C277 C 0.23377 0.45188 0.12328 0.0
C278 C 0.24744 0.46465 0.10209 0.0
C279 C 0.21471 0.4288 0.0675 0.0
C280 C 0.19795 0.45749 0.11345 0.0
H281 H 0.28911 0.45282 0.27584 0.0
H282 H 0.32056 0.49472 0.14611 0.0
H283 H 0.27231 0.50785 0.15443 0.0
H284 H 0.26473 0.50557 0.08945 0.0
H285 H 0.28933 0.51148 0.10313 0.0
H286 H 0.29824 0.45967 0.07518 0.0
H287 H 0.30484 0.48392 0.05959 0.0
H288 H 0.28303 0.47362 0.03515 0.0
H289 H 0.22783 0.42519 0.33457 0.0
H290 H 0.1824 0.40798 0.23019 0.0
H291 H 0.19999 0.4213 0.1588 0.0
H292 H 0.26058 0.40998 0.25811 0.0
H293 H 0.27097 0.42455 0.30761 0.0
H294 H 0.27911 0.42592 0.24139 0.0
H295 H 0.23711 0.46457 0.29485 0.0
H296 H 0.26214 0.46754 0.29145 0.0
H297 H 0.25219 0.45072 0.33667 0.0
H298 H 0.32067 0.46465 0.29206 0.0
C299 C 0.29534 0.4616 0.24647 0.0
C300 C 0.11279 0.23647 0.28287 0.0
C301 C 0.1159 0.21666 0.28572 0.0
C302 C 0.1128 0.2055 0.24107 0.0
C303 C 0.09867 0.23275 0.19784 0.0
C304 C 0.10367 0.24409 0.23938 0.0
C305 C 0.09555 0.26388 0.2352 0.0
H306 H 0.02764 0.32275 0.1453 0.0
C307 C 0.08553 0.24386 0.16457 0.0
C308 C 0.08351 0.26203 0.18637 0.0
H309 H 0.07306 0.33379 0.25536 0.0
H310 H 0.08688 0.30347 0.23699 0.0
H311 H 0.05978 0.30154 0.05702 0.0
H312 H 0.021 0.27514 0.16785 0.0
H313 H 0.01858 0.26588 0.1043 0.0
H314 H 0.01216 0.29028 0.11701 0.0
H315 H 0.03431 0.30516 0.05323 0.0
H316 H 0.045 0.28353 0.0296 0.0
C317 C 0.11255 0.27811 0.22821 0.0
C318 C 0.08306 0.26752 0.28388 0.0
C319 C 0.05472 0.21016 0.01317 0.0
C320 C 0.03961 0.2143 0.97954 0.0
C321 C 0.0298 0.2318 0.98557 0.0
C322 C 0.03541 0.24512 0.0241 0.0
C323 C 0.05079 0.24073 0.0574 0.0
C324 C 0.05985 0.22326 0.05167 0.0
C325 C 0.07453 0.2197 0.09259 0.0
C326 C 0.07403 0.23842 0.12182 0.0
C327 C 0.06008 0.25096 0.1017 0.0
C328 C 0.09418 0.21661 0.0661 0.0
C329 C 0.06748 0.20253 0.12603 0.0
C330 C 0.04049 0.31839 0.16547 0.0
C331 C 0.04913 0.33063 0.20265 0.0
C332 C 0.06611 0.32473 0.2269 0.0
C333 C 0.07414 0.30701 0.21634 0.0
C334 C 0.0651 0.29458 0.1815 0.0
C335 C 0.04907 0.30045 0.15466 0.0
C336 C 0.04323 0.28548 0.11475 0.0
C337 C 0.05785 0.26955 0.12463 0.0
C338 C 0.07014 0.27509 0.16516 0.0
C339 C 0.04559 0.29433 0.06055 0.0
C340 C 0.02258 0.27881 0.12626 0.0
H341 H 0.10163 0.20409 0.16515 0.0
H342 H 0.11553 0.24551 0.31604 0.0
H343 H 0.07417 0.2547 0.29301 0.0
H344 H 0.0728 0.2793 0.27952 0.0
H345 H 0.09216 0.27068 0.31806 0.0
H346 H 0.12598 0.27079 0.21647 0.0
H347 H 0.1157 0.28593 0.26459 0.0
H348 H 0.10981 0.28861 0.19695 0.0
H349 H 0.06214 0.19662 1.01043 0.0
H350 H 0.01793 0.2352 0.96031 0.0
H351 H 0.02747 0.25818 0.02708 0.0
H352 H 0.09631 0.22708 0.0342 0.0
H353 H 0.09514 0.20202 0.04936 0.0
H354 H 0.10641 0.21883 0.09257 0.0
H355 H 0.05184 0.1998 0.12146 0.0
H356 H 0.06931 0.20511 0.16793 0.0
H357 H 0.07496 0.18911 0.11537 0.0
H358 H 0.11518 0.1902 0.24165 0.0
C359 C 0.10441 0.21351 0.19695 0.0
C360 C 0.29696 0.03718 1.00712 0.0
C361 C 0.31507 0.04348 0.9887 0.0
C362 C 0.32386 0.05936 0.01201 0.0
C363 C 0.29778 0.06197 0.07313 0.0
C364 C 0.28847 0.04682 0.04954 0.0
C365 C 0.26938 0.04265 0.07598 0.0
H366 H 0.20699 0.06768 0.27093 0.0
C367 C 0.28614 0.06858 0.11712 0.0
C368 C 0.26911 0.05771 0.11907 0.0
H369 H 0.1985 0.02205 0.16108 0.0
H370 H 0.22931 0.02972 0.12073 0.0
H371 H 0.24747 0.05715 0.29645 0.0
H372 H 0.2249 0.09924 0.19286 0.0
H373 H 0.24394 0.1101 0.22672 0.0
H374 H 0.2236 0.10088 0.26196 0.0
H375 H 0.24036 0.08029 0.31878 0.0
H376 H 0.26448 0.07562 0.29716 0.0
C377 C 0.26989 0.02214 0.09786 0.0
C378 C 0.25313 0.04578 0.03659 0.0
C379 C 0.31679 0.11409 0.24483 0.0
C380 C 0.31101 0.12094 0.29353 0.0
C381 C 0.29149 0.11925 0.30725 0.0
C382 C 0.27858 0.10915 0.27566 0.0
C383 C 0.28523 0.10062 0.22984 0.0
C384 C 0.3038 0.10397 0.21405 0.0
C385 C 0.30855 0.09378 0.16467 0.0
C386 C 0.29015 0.08259 0.15533 0.0
C387 C 0.27661 0.0866 0.19357 0.0
C388 C 0.32584 0.08041 0.17519 0.0
C389 C 0.31208 0.10918 0.12236 0.0
C390 C 0.21151 0.05948 0.23762 0.0
C391 C 0.20009 0.04451 0.2187 0.0
C392 C 0.20699 0.03376 0.17635 0.0
C393 C 0.22482 0.03827 0.15291 0.0
C394 C 0.23603 0.05347 0.17252 0.0
C395 C 0.22919 0.06358 0.21462 0.0
C396 C 0.24303 0.07836 0.23366 0.0
C397 C 0.25916 0.07616 0.19524 0.0
C398 C 0.25526 0.06161 0.15877 0.0
C399 C 0.24915 0.07278 0.28942 0.0
C400 C 0.23345 0.09824 0.22904 0.0
H401 H 0.32315 0.08038 0.06977 0.0
H402 H 0.28983 0.02503 0.98953 0.0
H403 H 0.25504 0.05973 0.01654 0.0
H404 H 0.23888 0.04615 0.05494 0.0
H405 H 0.2531 0.03431 1.00689 0.0
H406 H 0.28352 0.01969 0.11911 0.0
H407 H 0.26892 0.01142 0.06628 0.0
H408 H 0.25823 0.01935 0.12564 0.0
H409 H 0.33159 0.11493 0.23256 0.0
H410 H 0.28639 0.12482 0.34372 0.0
H411 H 0.26415 0.10763 0.2894 0.0
H412 H 0.32458 0.07365 0.21397 0.0
H413 H 0.33958 0.08849 0.17411 0.0
H414 H 0.32684 0.06832 0.14804 0.0
H415 H 0.30539 0.12311 0.13245 0.0
H416 H 0.30547 0.10521 0.0849 0.0
H417 H 0.32762 0.1119 0.11655 0.0
H418 H 0.33766 0.06447 0.99833 0.0
C419 C 0.31535 0.06863 0.05361 0.0
C420 C 0.48127 0.30131 1.00094 0.0
C421 C 0.47479 0.31989 0.98738 0.0
C422 C 0.46207 0.32929 0.02075 0.0
C423 C 0.46201 0.30235 0.07939 0.0
C424 C 0.47441 0.29265 0.04717 0.0
C425 C 0.47873 0.27282 0.06874 0.0
H426 H 0.45795 0.20679 0.25979 0.0
C427 C 0.45701 0.28997 0.12357 0.0
C428 C 0.46627 0.27224 0.11762 0.0
H429 H 0.49954 0.19929 0.1384 0.0
H430 H 0.49183 0.23108 0.10422 0.0
H431 H 0.47144 0.24379 0.29101 0.0
H432 H 0.42488 0.22806 0.19265 0.0
H433 H 0.41645 0.24665 0.23227 0.0
H434 H 0.42522 0.22493 0.26145 0.0
H435 H 0.44803 0.23937 0.31669 0.0
H436 H 0.45577 0.26302 0.29774 0.0
C437 C 0.50026 0.27191 0.0818 0.0
C438 C 0.47245 0.25761 0.0291 0.0
C439 C 0.42201 0.3187 0.27601 0.0
C440 C 0.41675 0.3111 0.32443 0.0
C441 C 0.41595 0.29105 0.33024 0.0
C442 C 0.4226 0.279 0.29103 0.0
C443 C 0.43013 0.28704 0.2455 0.0
C444 C 0.42865 0.30644 0.2373 0.0
C445 C 0.43672 0.31236 0.18581 0.0
C446 C 0.44521 0.29357 0.16714 0.0
C447 C 0.44141 0.27893 0.20245 0.0
C448 C 0.45243 0.32779 0.19508 0.0
C449 C 0.41976 0.31903 0.15142 0.0
C450 C 0.46519 0.21169 0.22513 0.0
C451 C 0.47904 0.2003 0.20132 0.0
C452 C 0.48867 0.20774 0.15746 0.0
C453 C 0.4842 0.22616 0.13772 0.0
C454 C 0.47025 0.23741 0.16275 0.0
C455 C 0.46126 0.22992 0.20605 0.0
C456 C 0.44823 0.2438 0.2318 0.0
C457 C 0.4503 0.26091 0.19664 0.0
C458 C 0.463 0.25739 0.15523 0.0
C459 C 0.45607 0.2477 0.28718 0.0
C460 C 0.42758 0.23549 0.22997 0.0
H461 H 0.44624 0.32894 0.0896 0.0
H462 H 0.49105 0.2937 0.97595 0.0
H463 H 0.45741 0.26012 0.01673 0.0
H464 H 0.47301 0.243 0.04512 0.0
H465 H 0.48174 0.25816 0.99426 0.0
H466 H 0.50472 0.28476 0.10419 0.0
H467 H 0.50901 0.2714 0.04597 0.0
H468 H 0.50383 0.25941 0.10584 0.0
H469 H 0.42268 0.33399 0.26968 0.0
H470 H 0.41135 0.28472 0.36639 0.0
H471 H 0.42257 0.26394 0.29893 0.0
H472 H 0.46151 0.32386 0.22874 0.0
H473 H 0.44595 0.34195 0.20318 0.0
H474 H 0.46245 0.32944 0.16243 0.0
H475 H 0.40564 0.31414 0.16663 0.0
H476 H 0.4205 0.31296 0.11191 0.0
H477 H 0.41921 0.33488 0.14877 0.0
H478 H 0.45708 0.34356 0.01173 0.0
C479 C 0.45571 0.32071 0.06617 0.0
Eu480 Eu 0.98993 0.02293 0.57221 0.0
C481 C 0.04756 1.00377 0.77528 0.0
N482 N 0.04991 0.00982 0.72599 0.0
C483 C 0.07581 0.0303 0.75228 0.0
C484 C 0.05897 0.01116 0.81563 0.0
C485 C 0.06423 0.0224 0.7136 0.0
C486 C 0.07302 0.02482 0.80366 0.0
C487 C 0.03225 0.98183 0.83487 0.0
C488 C 0.03444 0.98938 0.78469 0.0
C489 C 0.04299 0.98963 0.87576 0.0
C490 C 0.05633 1.00428 0.86615 0.0
Eu491 Eu 0.02888 0.99712 0.66294 0.0
N492 N 0.0246 0.98202 0.74414 0.0
C493 C 0.01973 0.96635 0.84211 0.0
C494 C 0.01301 0.9664 0.75057 0.0
C495 C 0.01022 0.95847 0.79961 0.0
H496 H 0.06638 0.02667 0.67392 0.0
H497 H 1.00076 0.94628 0.80455 0.0
H498 H 0.95163 0.03515 0.64539 0.0
H499 H 0.98587 0.98245 0.39254 0.0
H500 H 1.00557 0.96022 0.71797 0.0
H501 H 0.01763 0.96013 0.88004 0.0
H502 H 0.99795 1.00764 0.45184 0.0
H503 H 0.08688 0.04058 0.74245 0.0
H504 H 0.0414 0.98414 0.91467 0.0
H505 H 0.06484 0.00987 0.89778 0.0
H506 H 0.92044 0.02108 0.67118 0.0
H507 H 0.08208 0.03088 0.83354 0.0
H508 H 0.95762 0.96288 0.41733 0.0
N509 N 0.95822 0.01274 0.59295 0.0
C510 C 0.95116 0.99772 0.5658 0.0
C511 C 0.92907 0.01415 0.64199 0.0
C512 C 0.93328 0.98941 0.57803 0.0
C513 C 0.94682 0.02196 0.62775 0.0
C514 C 0.9225 0.99746 0.61802 0.0
N515 N 0.97691 1.002 0.50919 0.0
C516 C 0.98542 0.99931 0.46227 0.0
C517 C 0.95339 0.97775 0.48977 0.0
C518 C 0.96087 0.99216 0.52213 0.0
C519 C 0.96283 0.97391 0.44321 0.0
C520 C 0.97871 0.985 0.42895 0.0
H521 H 0.90868 0.99152 0.62871 0.0
H522 H 0.91277 0.96727 0.55739 0.0
H523 H 0.93056 0.9569 0.48016 0.0
O524 O 1.00044 0.04647 0.52498 0.0
O525 O 1.00429 0.99469 0.55322 0.0
O526 O 1.00403 0.97977 0.63021 0.0
O527 O 0.97009 0.04334 0.5367 0.0
O528 O 0.01907 0.01665 0.53786 0.0
O529 O 0.0387 0.02075 0.60763 0.0
O530 O 0.05173 0.97608 0.67028 0.0
O531 O 0.02689 0.02892 0.68241 0.0
O532 O 1.00186 0.04262 0.63524 0.0
O533 O 0.04198 0.98424 0.59444 0.0
O534 O 0.9973 0.99332 0.68308 0.0
O535 O 0.9842 0.02197 0.65923 0.0
C536 C 1.00126 0.97918 0.5803 0.0
C537 C 0.9834 0.0748 0.53779 0.0
C538 C 1.00091 0.10493 0.54704 0.0
C539 C 0.98655 0.11173 0.58012 0.0
C540 C 0.96897 0.08188 0.57042 0.0
C541 C 0.97053 0.10032 0.59113 0.0
C542 C 0.99904 0.08663 0.52543 0.0
C543 C 0.03593 0.02093 0.55736 0.0
C544 C 0.98381 0.0546 0.52108 0.0
C545 C 0.92631 0.9741 0.5481 0.0
C546 C 0.93641 0.96823 0.50404 0.0
C547 C 0.01572 0.04347 0.67023 0.0
C548 C 0.05043 0.95219 0.60646 0.0
C549 C 0.03289 0.92194 0.61395 0.0
C550 C 0.04582 0.91362 0.57894 0.0
C551 C 0.06318 0.94372 0.57169 0.0
C552 C 0.03525 0.94137 0.62661 0.0
C553 C 0.06081 0.92451 0.55787 0.0
C554 C 0.98487 1.00711 0.69038 0.0
C555 C 0.05242 0.97242 0.62093 0.0
H556 H 0.98771 0.12583 0.59722 0.0
H557 H 0.95679 0.07306 0.58107 0.0
H558 H 0.95949 0.10561 0.61667 0.0
H559 H 0.01035 0.08117 0.50083 0.0
H560 H 0.04458 0.89869 0.56837 0.0
H561 H 0.07487 0.95195 0.55522 0.0
H562 H 0.02509 0.94833 0.65171 0.0
H563 H 0.0707 0.91798 0.53102 0.0
Eu564 Eu 0.52308 0.0365 0.67203 0.0
C565 C 0.50015 0.95482 0.61261 0.0
N566 N 0.51195 0.96701 0.58682 0.0
C567 C 0.53504 0.94211 0.57553 0.0
C568 C 0.50584 0.93591 0.62333 0.0
C569 C 0.52884 0.9608 0.56629 0.0
C570 C 0.52363 0.92969 0.60489 0.0
C571 C 0.46918 0.94857 0.65153 0.0
C572 C 0.48206 0.9611 0.62639 0.0
C573 C 0.47519 0.93009 0.66522 0.0
C574 C 0.49348 0.92376 0.65101 0.0
Eu575 Eu 0.50068 0.99837 0.57334 0.0
N576 N 0.47655 0.9789 0.61157 0.0
C577 C 0.45038 0.95468 0.6601 0.0
C578 C 0.45775 0.98408 0.61506 0.0
C579 C 0.44453 0.97235 0.64074 0.0
H580 H 0.53765 0.97047 0.54381 0.0
H581 H 0.42978 0.97683 0.64484 0.0
H582 H 0.48434 0.04934 0.74392 0.0
H583 H 0.57165 0.08385 0.56755 0.0
H584 H 0.45282 0.9972 0.59772 0.0
H585 H 0.44005 0.9455 0.67936 0.0
H586 H 0.56156 0.0542 0.61294 0.0
H587 H 0.54863 0.93732 0.56026 0.0
H588 H 0.46557 0.92036 0.68515 0.0
H589 H 0.49771 0.90928 0.66041 0.0
H590 H 0.46095 0.07551 0.74701 0.0
H591 H 0.52851 0.91526 0.61222 0.0
H592 H 0.54926 0.11112 0.56112 0.0
N593 N 0.50107 0.06202 0.68403 0.0
C594 C 0.50473 0.07835 0.65723 0.0
C595 C 0.47303 0.07638 0.72088 0.0
C596 C 0.4921 0.09402 0.65914 0.0
C597 C 0.48614 0.06135 0.71816 0.0
C598 C 0.4758 0.09264 0.6904 0.0
N599 N 0.53394 0.06478 0.63134 0.0
C600 C 0.55189 0.0662 0.61069 0.0
C601 C 0.52684 0.09696 0.6049 0.0
C602 C 0.52186 0.07989 0.63069 0.0
C603 C 0.54488 0.09825 0.58133 0.0
C604 C 0.55757 0.08289 0.58493 0.0
H605 H 0.46573 0.10434 0.69296 0.0
H606 H 0.48686 0.12286 0.63189 0.0
H607 H 0.51729 0.1254 0.58416 0.0
O608 O 0.55123 0.0351 0.7077 0.0
O609 O 0.52101 0.04314 0.58598 0.0
O610 O 0.4924 0.0297 0.56446 0.0
O611 O 0.52812 0.04847 0.74923 0.0
O612 O 0.54519 0.01811 0.63013 0.0
O613 O 0.53082 0.00862 0.55333 0.0
O614 O 0.48222 0.98531 0.51496 0.0
O615 O 0.52068 0.98822 0.63839 0.0
O616 O 0.51276 0.00814 0.70436 0.0
O617 O 0.50877 0.99861 0.49185 0.0
O618 O 0.47963 0.01827 0.61451 0.0
O619 O 0.49442 0.02252 0.69283 0.0
C620 C 0.50527 0.04327 0.5584 0.0
C621 C 0.54914 0.02878 0.79677 0.0
C622 C 0.55903 0.99766 0.83097 0.0
C623 C 0.55815 1.00537 0.88122 0.0
C624 C 0.54838 0.0361 0.84702 0.0
C625 C 0.55262 0.02434 0.88905 0.0
C626 C 0.55381 0.00941 0.78922 0.0
C627 C 0.54614 0.01262 0.58134 0.0
C628 C 0.54525 0.0413 0.75219 0.0
C629 C 0.4965 0.11077 0.6314 0.0
C630 C 0.51386 0.11224 0.60434 0.0
C631 C 0.51814 0.99128 0.68799 0.0
C632 C 0.48306 1.00032 0.43388 0.0
C633 C 0.46222 0.02577 0.40272 0.0
C634 C 0.46423 0.01854 0.35223 0.0
C635 C 0.48497 0.99341 0.38345 0.0
C636 C 0.47184 0.01653 0.44338 0.0
C637 C 0.47559 1.00252 0.34279 0.0
C638 C 0.47874 0.02102 0.66477 0.0
C639 C 0.49291 0.99065 0.47639 0.0
H640 H 0.5624 0.99706 0.91454 0.0
H641 H 0.54461 0.05091 0.85369 0.0
H642 H 0.55215 0.03011 0.92782 0.0
H643 H 0.55375 1.0036 0.75048 0.0
H644 H 0.45675 0.025 0.32008 0.0
H645 H 0.49367 0.98094 0.3756 0.0
H646 H 0.47068 0.0219 0.48245 0.0
H647 H 0.477 0.99707 0.30386 0.0
Eu648 Eu 0.53059 0.50417 0.58336 0.0
C649 C 0.44851 0.53199 0.70308 0.0
N650 N 0.46039 0.5391 0.66649 0.0
C651 C 0.43375 0.55365 0.62342 0.0
C652 C 0.42855 0.53488 0.7006 0.0
C653 C 0.45347 0.55049 0.62806 0.0
C654 C 0.42119 0.54557 0.65948 0.0
C655 C 0.44501 0.51644 0.78592 0.0
C656 C 0.45658 0.52304 0.74491 0.0
C657 C 0.425 0.51836 0.78272 0.0
C658 C 0.41677 0.5276 0.74008 0.0
Eu659 Eu 0.49346 0.53212 0.67315 0.0
N660 N 0.47593 0.52196 0.74699 0.0
C661 C 0.45395 0.50871 0.8295 0.0
C662 C 0.48476 0.51536 0.79051 0.0
C663 C 0.47395 0.50838 0.83203 0.0
H664 H 0.46319 0.55687 0.60042 0.0
H665 H 0.48104 0.50283 0.86601 0.0
H666 H 0.56879 0.53342 0.58444 0.0
H667 H 0.50447 0.46162 0.42056 0.0
H668 H 0.50018 0.51521 0.79304 0.0
H669 H 0.4456 0.50346 0.86186 0.0
H670 H 0.50983 0.46965 0.51251 0.0
H671 H 0.42829 0.56235 0.59218 0.0
H672 H 0.41583 0.51325 0.81361 0.0
H673 H 0.40138 0.5295 0.73872 0.0
H674 H 0.58792 0.55267 0.5227 0.0
H675 H 0.40594 0.54814 0.65609 0.0
H676 H 0.51857 0.48213 0.35222 0.0
N677 N 0.55091 0.52137 0.52638 0.0
C678 C 0.5477 0.51924 0.47512 0.0
C679 C 0.57657 0.54342 0.50878 0.0
C680 C 0.55836 0.52973 0.4384 0.0
C681 C 0.56574 0.5325 0.54359 0.0
C682 C 0.57262 0.5423 0.45596 0.0
N683 N 0.52618 0.49456 0.49625 0.0
C684 C 0.51611 0.47852 0.48284 0.0
C685 C 0.53238 0.50131 0.40653 0.0
C686 C 0.5349 0.50531 0.45948 0.0
C687 C 0.52088 0.48568 0.39247 0.0
C688 C 0.51298 0.47403 0.43088 0.0
H689 H 0.58111 0.55065 0.42902 0.0
H690 H 0.56288 0.53479 0.35666 0.0
H691 H 0.54011 0.50982 0.32869 0.0
O692 O 0.55415 0.48501 0.56391 0.0
O693 O 0.53023 0.53683 0.58579 0.0
O694 O 0.49836 0.54245 0.59106 0.0
O695 O 0.54359 0.48577 0.64193 0.0
O696 O 0.49956 0.50059 0.5548 0.0
O697 O 0.47974 0.52227 0.59739 0.0
O698 O 0.51652 0.55297 0.68197 0.0
O699 O 0.49988 0.50133 0.6963 0.0
O700 O 0.50632 0.4864 0.61899 0.0
O701 O 0.48842 0.55951 0.71186 0.0
O702 O 0.51926 0.51798 0.71144 0.0
O703 O 0.54087 0.52363 0.64777 0.0
C704 C 0.51527 0.5471 0.57297 0.0
C705 C 0.55449 0.45633 0.6109 0.0
C706 C 0.53726 0.42644 0.5945 0.0
C707 C 0.55342 0.41625 0.6115 0.0
C708 C 0.57044 0.446 0.6277 0.0
C709 C 0.56986 0.42601 0.62814 0.0
C710 C 0.53797 0.44656 0.595 0.0
C711 C 0.48307 0.50963 0.56047 0.0
C712 C 0.55497 0.47729 0.60959 0.0
C713 C 0.55501 0.52671 0.38551 0.0
C714 C 0.54204 0.5125 0.36958 0.0
C715 C 0.50158 0.4857 0.66824 0.0
C716 C 0.50711 0.58473 0.67489 0.0
C717 C 0.52764 0.61162 0.64968 0.0
C718 C 0.51219 0.61936 0.62173 0.0
C719 C 0.4919 0.59266 0.64683 0.0
C720 C 0.52493 0.59405 0.67525 0.0
C721 C 0.49452 0.60985 0.62016 0.0
C722 C 0.53716 0.52009 0.69651 0.0
C723 C 0.50548 0.56607 0.70085 0.0
H724 H 0.55354 0.40076 0.61105 0.0
H725 H 0.58332 0.45338 0.64028 0.0
H726 H 0.58224 0.41805 0.64094 0.0
H727 H 0.52565 0.45479 0.58324 0.0
H728 H 0.51353 0.63296 0.60203 0.0
H729 H 0.47811 0.58553 0.64505 0.0
H730 H 0.53676 0.58735 0.69531 0.0
H731 H 0.48276 0.61592 0.59848 0.0
Eu732 Eu 0.02426 0.53238 0.57179 0.0
C733 C 0.03315 0.46199 0.70331 0.0
N734 N 0.01978 0.46471 0.66596 0.0
C735 C 0.02801 0.43455 0.62786 0.0
C736 C 0.04523 0.44587 0.70282 0.0
C737 C 0.01626 0.45066 0.63052 0.0
C738 C 0.04285 0.43234 0.66353 0.0
C739 C 0.04665 0.47183 0.78544 0.0
C740 C 0.03383 0.47467 0.74411 0.0
C741 C 0.05944 0.4564 0.78381 0.0
C742 C 0.05874 0.44344 0.74253 0.0
Eu743 Eu 1.0021 0.49371 0.66997 0.0
N744 N 0.02151 0.48958 0.744 0.0
C745 C 0.04594 0.4844 0.82751 0.0
C746 C 0.02006 0.50136 0.78589 0.0
C747 C 0.03238 0.49906 0.82807 0.0
H748 H 1.00424 0.45169 0.60449 0.0
H749 H 0.03153 0.50868 0.86071 0.0
H750 H 1.00271 0.57279 0.60722 0.0
H751 H 0.02895 0.50128 0.37807 0.0
H752 H 0.00978 0.51288 0.78582 0.0
H753 H 0.05555 0.48272 0.86005 0.0
H754 H 0.04 0.50828 0.46661 0.0
H755 H 0.02545 0.42373 0.59875 0.0
H756 H 0.06959 0.45411 0.81483 0.0
H757 H 0.0683 0.43129 0.74246 0.0
H758 H 0.97809 0.59503 0.57354 0.0
H759 H 0.05182 0.41975 0.66172 0.0
H760 H 1.00058 0.51793 0.3429 0.0
N761 N 1.00149 0.5546 0.54162 0.0
C762 C 0.99451 0.55178 0.49329 0.0
C763 C 0.98248 0.58284 0.55075 0.0
C764 C 0.98039 0.56393 0.47266 0.0
C765 C 0.99638 0.5703 0.56968 0.0
C766 C 0.97422 0.57947 0.50236 0.0
N767 N 0.01672 0.5267 0.48377 0.0
C768 C 0.02702 0.51481 0.45268 0.0
C769 C 0.99572 0.53424 0.41274 0.0
C770 C 1.0021 0.53713 0.46385 0.0
C771 C 1.00505 0.52061 0.38233 0.0
C772 C 0.02104 0.51116 0.40206 0.0
H773 H 0.96341 0.58916 0.48787 0.0
H774 H 0.96213 0.56939 0.40662 0.0
H775 H 0.97557 0.54337 0.35407 0.0
O776 O 0.04444 0.54716 0.52084 0.0
O777 O 0.99188 0.53206 0.58788 0.0
O778 O 0.98528 0.50032 0.59723 0.0
O779 O 0.04377 0.55425 0.60174 0.0
O780 O 0.03075 0.5009 0.55489 0.0
O781 O 1.00374 0.48543 0.58457 0.0
O782 O 0.97961 0.49765 0.72687 0.0
O783 O 0.03064 0.50859 0.6857 0.0
O784 O 0.04413 0.50997 0.60611 0.0
O785 O 0.98163 0.4706 0.68761 0.0
O786 O 0.99513 0.52489 0.68895 0.0
O787 O 0.0202 0.54265 0.65433 0.0
C788 C 0.98036 0.51736 0.58104 0.0
C789 C 0.07373 0.55442 0.56141 0.0
C790 C 0.10213 0.53417 0.56054 0.0
C791 C 0.11355 0.55044 0.57015 0.0
C792 C 0.08529 0.57046 0.57094 0.0
C793 C 0.10513 0.56844 0.5754 0.0
C794 C 0.08216 0.53634 0.5568 0.0
C795 C 0.0183 0.48667 0.55231 0.0
C796 C 0.05284 0.55636 0.55826 0.0
C797 C 0.97321 0.56041 0.42287 0.0
C798 C 0.98083 0.54556 0.39301 0.0
C799 C 0.04585 0.50778 0.65617 0.0
C800 C 0.95073 0.48343 0.70092 0.0
C801 C 0.92429 0.50404 0.67377 0.0
C802 C 0.91156 0.4886 0.68232 0.0
C803 C 0.93786 0.46834 0.70914 0.0
C804 C 0.944 0.50081 0.68061 0.0
C805 C 0.91839 0.47084 0.69886 0.0
C806 C 1.00637 0.54018 0.68848 0.0
C807 C 0.971 0.48163 0.71593 0.0
H808 H 0.129 0.54934 0.57257 0.0
H809 H 0.07896 0.5845 0.57511 0.0
H810 H 0.11404 0.58088 0.58261 0.0
H811 H 0.07307 0.52395 0.55046 0.0
H812 H 0.89623 0.49032 0.6786 0.0
H813 H 0.94281 0.45478 0.72422 0.0
H814 H 0.95419 0.51212 0.6723 0.0
H815 H 0.90842 0.45919 0.70576 0.0
C816 C 0.17651 0.02193 0.26202 0.0
C817 C 0.18134 0.04041 0.2447 0.0
C818 C 0.16021 0.01892 0.29315 0.0
C819 C 0.11429 0.04158 0.33499 0.0
H820 H 0.119 0.0086 0.45465 0.0
C821 C 0.04943 0.02438 0.46766 0.0
C822 C 0.05251 0.02342 0.52135 0.0
C823 C 0.06484 0.02593 0.43315 0.0
C824 C 0.11745 0.01797 0.42161 0.0
H825 H 0.17231 0.07001 0.24459 0.0
H826 H 0.1441 0.06482 0.29817 0.0
H827 H 0.14582 0.01178 0.39444 0.0
H828 H 0.0745 0.02334 0.58046 0.0
H829 H 0.1014 0.02624 0.52033 0.0
H830 H 0.08614 0.04812 0.36254 0.0
C831 C 0.15277 0.05259 0.288 0.0
C832 C 0.13278 0.01959 0.3866 0.0
C833 C 0.16905 0.0556 0.25739 0.0
C834 C 0.07152 0.02413 0.5395 0.0
C835 C 0.08699 0.02561 0.50487 0.0
C836 C 0.09897 0.0399 0.36979 0.0
C837 C 0.14825 0.03427 0.30719 0.0
C838 C 0.13149 0.03154 0.34294 0.0
C839 C 0.08388 0.02652 0.45112 0.0
C840 C 0.10032 0.02815 0.41383 0.0
H841 H 0.18574 0.00996 0.2533 0.0
H842 H 0.15709 1.00457 0.30663 0.0
H843 H 0.11263 0.05079 0.30167 0.0
H844 H 0.03504 0.02381 0.45202 0.0
H845 H 0.06181 0.02634 0.39216 0.0
C846 C 0.50211 0.17613 0.23909 0.0
C847 C 0.48335 0.18124 0.22499 0.0
C848 C 0.50541 0.16005 0.27066 0.0
C849 C 0.48152 0.11592 0.32506 0.0
H850 H 0.51945 0.12127 0.43351 0.0
C851 C 0.48471 0.06397 0.50085 0.0
C852 C 0.50293 0.05818 0.51768 0.0
C853 C 0.48279 0.07851 0.46364 0.0
C854 C 0.50891 0.11943 0.40319 0.0
H855 H 0.45352 0.17274 0.23065 0.0
H856 H 0.45914 0.14512 0.28534 0.0
H857 H 0.5159 0.14658 0.36929 0.0
H858 H 0.53341 0.06287 0.50745 0.0
H859 H 0.53011 0.08809 0.44304 0.0
H860 H 0.47442 0.08893 0.35947 0.0
C861 C 0.47142 0.15329 0.27218 0.0
C862 C 0.50691 0.13396 0.36604 0.0
C863 C 0.46816 0.16927 0.24083 0.0
C864 C 0.51914 0.06717 0.49606 0.0
C865 C 0.51725 0.08168 0.45901 0.0
C866 C 0.48346 0.10147 0.36232 0.0
C867 C 0.49004 0.14862 0.28873 0.0
C868 C 0.49309 0.13252 0.3265 0.0
C869 C 0.49905 0.08757 0.44211 0.0
C870 C 0.49709 0.10303 0.40215 0.0
H871 H 0.51412 0.18511 0.22796 0.0
H872 H 0.52 0.15681 0.28171 0.0
H873 H 0.47095 0.11398 0.29489 0.0
H874 H 0.47194 0.05755 0.51726 0.0
H875 H 0.46855 0.08293 0.4525 0.0
C876 C 0.34575 0.50421 0.26033 0.0
C877 C 0.34286 0.48679 0.23435 0.0
C878 C 0.36263 0.50752 0.28873 0.0
C879 C 0.39968 0.47986 0.35883 0.0
H880 H 0.42455 0.52911 0.37602 0.0
C881 C 0.46629 0.48958 0.49238 0.0
C882 C 0.46779 0.50668 0.5207 0.0
C883 C 0.45214 0.48729 0.45414 0.0
C884 C 0.41767 0.51527 0.37225 0.0
H885 H 0.35561 0.4595 0.21622 0.0
H886 H 0.38524 0.4654 0.26416 0.0
H887 H 0.39861 0.52556 0.31345 0.0
H888 H 0.45559 0.5349 0.52976 0.0
H889 H 0.43064 0.53074 0.46542 0.0
H890 H 0.41835 0.46962 0.41828 0.0
C891 C 0.37447 0.47649 0.26328 0.0
C892 C 0.40278 0.51323 0.33607 0.0
C893 C 0.35764 0.47322 0.23493 0.0
C894 C 0.45471 0.52139 0.50972 0.0
C895 C 0.44054 0.5191 0.47182 0.0
C896 C 0.41449 0.48191 0.39515 0.0
C897 C 0.37693 0.49338 0.29223 0.0
C898 C 0.39349 0.49551 0.32892 0.0
C899 C 0.43902 0.50205 0.44318 0.0
C900 C 0.42366 0.49968 0.40278 0.0
H901 H 0.33436 0.51467 0.26185 0.0
H902 H 0.36388 0.52064 0.31069 0.0
H903 H 0.39269 0.46606 0.35534 0.0
H904 H 0.4759 0.47783 0.50011 0.0
H905 H 0.45164 0.47398 0.43283 0.0
C906 C 0.02392 0.35034 0.24718 0.0
C907 C 0.04115 0.34942 0.21911 0.0
C908 C 0.01963 0.36657 0.27719 0.0
C909 C 0.04564 0.40334 0.35025 0.0
H910 H 0.99686 0.42889 0.36508 0.0
C911 C 0.03795 0.46868 0.48641 0.0
C912 C 0.02036 0.47172 0.51145 0.0
C913 C 0.03972 0.45463 0.44799 0.0
C914 C 0.01055 0.42177 0.36221 0.0
H915 H 0.06662 0.36531 0.19746 0.0
H916 H 0.05914 0.3935 0.24911 0.0
H917 H 1.00031 0.4032 0.30181 0.0
H918 H 0.99081 0.46209 0.51564 0.0
H919 H 0.99406 0.43708 0.45109 0.0
H920 H 0.05583 0.42108 0.41161 0.0
C921 C 0.04902 0.38169 0.24859 0.0
C922 C 0.01251 0.40707 0.32553 0.0
C923 C 0.05319 0.36563 0.21845 0.0
C924 C 1.00463 0.46017 0.4973 0.0
C925 C 1.00645 0.44591 0.45954 0.0
C926 C 0.04362 0.41776 0.38741 0.0
C927 C 0.0326 0.38208 0.28003 0.0
C928 C 0.03014 0.39777 0.31881 0.0
C929 C 0.02403 0.44286 0.43406 0.0
C930 C 0.02607 0.42735 0.39398 0.0
H931 H 0.01455 0.33796 0.24922 0.0
H932 H 1.00685 0.36642 0.30092 0.0
H933 H 0.05934 0.39623 0.34687 0.0
H934 H 0.05045 0.47713 0.4966 0.0
H935 H 0.05345 0.45314 0.42903 0.0
C936 C 0.85498 0.96678 0.99404 0.0
C937 C 0.84088 0.98081 1.00169 0.0
C938 C 0.8717 0.97089 0.96633 0.0
C939 C 0.90284 0.00915 0.91216 0.0
H940 H 0.91387 0.97071 0.80858 0.0
C941 C 0.95987 0.02095 0.74988 0.0
C942 C 0.96993 1.00498 0.73128 0.0
C943 C 0.94489 0.01876 0.78567 0.0
C944 C 0.91133 0.98149 0.83775 0.0
H945 H 0.83392 0.01055 0.98886 0.0
H946 H 0.86346 0.01792 0.94066 0.0
H947 H 0.88719 0.96601 0.86744 0.0
H948 H 0.97243 0.97419 0.73747 0.0
H949 H 0.94713 0.97042 0.80126 0.0
H950 H 0.92717 0.02455 0.88269 0.0
C951 C 0.86146 1.00366 0.95619 0.0
C952 C 0.89589 0.9788 0.87157 0.0
C953 C 0.84458 0.9995 0.98403 0.0
C954 C 0.96509 0.98684 0.75093 0.0
C955 C 0.95028 0.98466 0.78709 0.0
C956 C 0.91848 0.01178 0.87851 0.0
C957 C 0.87489 0.98919 0.94535 0.0
C958 C 0.89144 0.99251 0.90944 0.0
C959 C 0.93968 1.00053 0.80448 0.0
C960 C 0.92303 0.99793 0.84082 0.0
H961 H 0.8526 0.95227 1.00744 0.0
H962 H 0.88189 0.95951 0.95989 0.0
H963 H 0.89989 0.01997 0.94095 0.0
H964 H 0.96337 0.03518 0.73613 0.0
H965 H 0.93709 0.03136 0.79752 0.0
C966 C 0.54542 0.86591 0.01613 0.0
C967 C 0.53328 0.84983 0.01285 0.0
C968 C 0.5426 0.88186 0.98415 0.0
C969 C 0.5236 0.89461 0.85641 0.0
H970 H 0.52777 0.94693 0.90472 0.0
C971 C 0.53128 0.95916 0.71525 0.0
C972 C 0.52031 0.97546 0.72628 0.0
C973 C 0.53263 0.94409 0.75101 0.0
C974 C 0.5266 0.93242 0.89044 0.0
H975 H 0.50859 0.83792 0.97367 0.0
H976 H 0.50365 0.86578 0.91738 0.0
H977 H 0.52955 0.92058 0.96654 0.0
H978 H 0.50288 0.98901 0.78497 0.0
H979 H 0.50537 0.96298 0.84726 0.0
H980 H 0.52091 0.90643 0.78021 0.0
C981 C 0.51527 0.86611 0.94509 0.0
C982 C 0.52767 0.91729 0.92597 0.0
C983 C 0.51791 0.85027 0.9778 0.0
C984 C 0.51135 0.97662 0.77485 0.0
C985 C 0.51282 0.96168 0.81076 0.0
C986 C 0.52289 0.90974 0.82073 0.0
C987 C 0.5278 0.88198 0.9472 0.0
C988 C 0.52612 0.89817 0.90951 0.0
C989 C 0.52329 0.94507 0.7992 0.0
C990 C 0.52437 0.92889 0.8372 0.0
H991 H 0.5576 0.86581 0.04207 0.0
H992 H 0.5526 0.89373 0.98662 0.0
H993 H 0.52254 0.88007 0.84226 0.0
H994 H 0.53896 0.95811 0.6791 0.0
H995 H 0.5412 0.93176 0.74113 0.0
C996 C 0.67588 0.5157 0.99829 0.0
C997 C 0.67957 0.53406 0.01817 0.0
C998 C 0.65941 0.51216 0.96831 0.0
C999 C 0.63187 0.51365 0.87541 0.0
H1000 H 0.58319 0.53782 0.90462 0.0
C1001 C 0.57224 0.522 0.71997 0.0
C1002 C 0.553 0.5199 0.73539 0.0
C1003 C 0.58711 0.52211 0.75655 0.0
C1004 C 0.5966 0.5308 0.89594 0.0
H1005 H 0.66848 0.56282 0.02418 0.0
H1006 H 0.63976 0.55667 0.97307 0.0
H1007 H 0.60924 0.54014 0.96714 0.0
H1008 H 0.53451 0.51591 0.80187 0.0
H1009 H 0.56031 0.51611 0.86536 0.0
H1010 H 0.61923 0.50438 0.80407 0.0
C1011 C 0.64945 0.54492 0.98039 0.0
C1012 C 0.61165 0.53227 0.93172 0.0
C1013 C 0.66594 0.54848 1.00976 0.0
C1014 C 0.54908 0.51771 0.7884 0.0
C1015 C 0.56393 0.5179 0.82498 0.0
C1016 C 0.61685 0.51227 0.83945 0.0
C1017 C 0.64615 0.52685 0.95802 0.0
C1018 C 0.62959 0.52389 0.92181 0.0
C1019 C 0.58318 0.52019 0.80969 0.0
C1020 C 0.59902 0.52097 0.84894 0.0
H1021 H 0.68624 0.50438 1.0035 0.0
H1022 H 0.65726 0.49801 0.95225 0.0
H1023 H 0.64549 0.50716 0.86605 0.0
H1024 H 0.57587 0.52366 0.67956 0.0
H1025 H 0.60169 0.52411 0.74316 0.0
C1026 C 0.99983 0.67766 0.9893 0.0
C1027 C 0.98203 0.67941 0.01406 0.0
C1028 C 1.00415 0.6612 0.9605 0.0
C1029 C 0.98823 0.61112 0.93044 0.0
H1030 H 0.00893 0.62257 0.79499 0.0
C1031 C 0.98825 0.55511 0.76307 0.0
C1032 C 1.00389 0.55528 0.72873 0.0
C1033 C 0.98625 0.56949 0.80067 0.0
C1034 C 1.00342 0.61895 0.83285 0.0
H1035 H 0.95516 0.66502 0.03008 0.0
H1036 H 0.96276 0.63619 0.9811 0.0
H1037 H 1.00567 0.64803 0.85818 0.0
H1038 H 0.02988 0.57073 0.70817 0.0
H1039 H 0.02662 0.59526 0.7736 0.0
H1040 H 0.98592 0.582 0.90491 0.0
C1041 C 0.97351 0.64738 0.98391 0.0
C1042 C 1.00157 0.63364 0.86931 0.0
C1043 C 0.96917 0.66387 0.0123 0.0
C1044 C 0.01751 0.57012 0.7334 0.0
C1045 C 0.01558 0.58436 0.771 0.0
C1046 C 0.99018 0.59636 0.89399 0.0
C1047 C 0.99075 0.6461 0.95591 0.0
C1048 C 0.99388 0.63 0.91861 0.0
C1049 C 0.99987 0.58439 0.80512 0.0
C1050 C 0.99776 0.60005 0.8445 0.0
H1051 H 0.00983 0.68957 0.98907 0.0
H1052 H 0.01768 0.66063 0.94009 0.0
H1053 H 0.98236 0.60771 0.96807 0.0
H1054 H 0.97745 0.54396 0.76067 0.0
H1055 H 0.97382 0.56907 0.82569 0.0
C1056 C 0.10547 0.21344 0.37731 0.0
C1057 C 0.11738 0.20716 0.33697 0.0
C1058 C 0.10158 0.20164 0.41934 0.0
C1059 C 0.09663 0.15013 0.43598 0.0
H1060 H 0.06843 0.16755 0.55591 0.0
C1061 C 0.02445 0.11829 0.48442 0.0
C1062 C 0.01828 0.11637 0.53566 0.0
C1063 C 0.04169 0.12747 0.47314 0.0
C1064 C 0.07651 0.16223 0.5233 0.0
H1065 H 0.13689 0.18481 0.31331 0.0
H1066 H 0.13041 0.16424 0.38764 0.0
H1067 H 0.09357 0.1877 0.51942 0.0
H1068 H 0.02511 0.12267 0.61549 0.0
H1069 H 0.05553 0.13886 0.59578 0.0
H1070 H 0.07958 0.12472 0.43975 0.0
C1071 C 0.12349 0.17805 0.38569 0.0
C1072 C 0.09083 0.17388 0.50197 0.0
C1073 C 0.12728 0.18985 0.34313 0.0
C1074 C 0.02951 0.12416 0.57558 0.0
C1075 C 0.04694 0.1333 0.5643 0.0
C1076 C 0.08262 0.13838 0.45784 0.0
C1077 C 0.10952 0.18323 0.42235 0.0
C1078 C 0.10006 0.16858 0.45576 0.0
C1079 C 0.05332 0.13484 0.5129 0.0
C1080 C 0.07147 0.14488 0.49942 0.0
H1081 H 0.09744 0.2266 0.37407 0.0
H1082 H 0.0907 0.20629 0.44627 0.0
H1083 H 0.10339 0.14533 0.40071 0.0
H1084 H 0.01593 0.11259 0.45293 0.0
H1085 H 0.04578 0.12897 0.43299 0.0
C1086 C 0.32406 0.11927 0.3837 0.0
C1087 C 0.32595 0.1259 0.33261 0.0
C1088 C 0.34024 0.11688 0.41473 0.0
C1089 C 0.3944 0.11774 0.40949 0.0
H1090 H 0.38694 0.06549 0.45577 0.0
C1091 C 0.4484 0.05754 0.3772 0.0
C1092 C 0.44969 0.0425 0.41307 0.0
C1093 C 0.43561 0.07256 0.38507 0.0
C1094 C 0.38938 0.0802 0.44432 0.0
H1095 H 0.34576 0.13921 0.27868 0.0
H1096 H 0.37397 0.13359 0.33053 0.0
H1097 H 0.35949 0.08548 0.44183 0.0
H1098 H 0.43886 0.03188 0.48642 0.0
H1099 H 0.41683 0.05823 0.5004 0.0
H1100 H 0.42449 0.1115 0.40815 0.0
C1101 C 0.36016 0.13014 0.34718 0.0
C1102 C 0.37352 0.09185 0.43648 0.0
C1103 C 0.34389 0.1331 0.31682 0.0
C1104 C 0.43842 0.04326 0.45808 0.0
C1105 C 0.42569 0.05832 0.46604 0.0
C1106 C 0.41033 0.10593 0.41683 0.0
C1107 C 0.35867 0.12049 0.39475 0.0
C1108 C 0.3757 0.11052 0.41667 0.0
C1109 C 0.42381 0.07289 0.42902 0.0
C1110 C 0.40787 0.08679 0.43226 0.0
H1111 H 0.31049 0.11392 0.39811 0.0
H1112 H 0.33842 0.11035 0.45236 0.0
H1113 H 0.39673 0.13216 0.39548 0.0
H1114 H 0.45711 0.05763 0.3426 0.0
H1115 H 0.43439 0.08346 0.35552 0.0
C1116 C 0.42565 0.31822 0.41599 0.0
C1117 C 0.41626 0.32388 0.37035 0.0
C1118 C 0.43131 0.3318 0.45244 0.0
C1119 C 0.44298 0.36489 0.52398 0.0
H1120 H 0.47456 0.39757 0.43765 0.0
C1121 C 0.51352 0.39905 0.5972 0.0
C1122 C 0.51981 0.41638 0.57522 0.0
C1123 C 0.49691 0.38997 0.57898 0.0
C1124 C 0.46556 0.38907 0.46293 0.0
H1125 H 0.4026 0.34777 0.33182 0.0
H1126 H 0.41312 0.37158 0.39485 0.0
H1127 H 0.44931 0.3788 0.39888 0.0
H1128 H 0.51383 0.43718 0.51531 0.0
H1129 H 0.4843 0.42257 0.48708 0.0
H1130 H 0.45949 0.37505 0.58814 0.0
C1131 C 0.41624 0.35664 0.40189 0.0
C1132 C 0.45099 0.37826 0.44046 0.0
C1133 C 0.41035 0.34302 0.36567 0.0
C1134 C 0.50909 0.42432 0.53467 0.0
C1135 C 0.49229 0.41561 0.51753 0.0
C1136 C 0.45738 0.37606 0.54681 0.0
C1137 C 0.42784 0.35127 0.44375 0.0
C1138 C 0.43991 0.36566 0.47041 0.0
C1139 C 0.48609 0.39813 0.53873 0.0
C1140 C 0.46925 0.38789 0.51628 0.0
H1141 H 0.43052 0.30367 0.42119 0.0
H1142 H 0.44026 0.32725 0.48432 0.0
H1143 H 0.43464 0.35521 0.54786 0.0
H1144 H 0.52126 0.39258 0.62889 0.0
H1145 H 0.49284 0.37638 0.59584 0.0
C1146 C 0.17052 0.41931 0.32891 0.0
C1147 C 0.1899 0.4141 0.33402 0.0
C1148 C 0.1594 0.42311 0.37236 0.0
C1149 C 0.16838 0.44737 0.4893 0.0
H1150 H 0.11309 0.4447 0.50218 0.0
C1151 C 0.12691 0.50925 0.58156 0.0
C1152 C 0.11093 0.51508 0.55256 0.0
C1153 C 0.13537 0.49146 0.57261 0.0
C1154 C 0.12856 0.44558 0.49933 0.0
H1155 H 0.21163 0.40573 0.3897 0.0
H1156 H 0.19244 0.41357 0.46554 0.0
H1157 H 0.13 0.42005 0.45366 0.0
H1158 H 0.09144 0.50673 0.49107 0.0
H1159 H 0.10628 0.47619 0.47486 0.0
H1160 H 0.16696 0.47378 0.53021 0.0
C1161 C 0.18601 0.41474 0.4276 0.0
C1162 C 0.13823 0.43134 0.47203 0.0
C1163 C 0.19704 0.41049 0.38401 0.0
C1164 C 0.10348 0.5026 0.51495 0.0
C1165 C 0.11196 0.48493 0.50585 0.0
C1166 C 0.15871 0.46172 0.51597 0.0
C1167 C 0.16745 0.42209 0.42194 0.0
C1168 C 0.15811 0.43269 0.46445 0.0
C1169 C 0.12816 0.47918 0.5341 0.0
C1170 C 0.13858 0.46157 0.51874 0.0
H1171 H 0.1643 0.42239 0.29157 0.0
H1172 H 0.14516 0.42886 0.3667 0.0
H1173 H 0.18371 0.44888 0.48374 0.0
H1174 H 0.13277 0.51834 0.61158 0.0
H1175 H 0.14767 0.4874 0.59556 0.0
C1176 C 0.92875 0.85245 0.9075 0.0
C1177 C 0.92077 0.83399 0.90282 0.0
C1178 C 0.93375 0.86298 0.86383 0.0
C1179 C 0.95302 0.85364 0.73792 0.0
H1180 H 0.95492 0.90904 0.73205 0.0
C1181 C 1.00716 0.89632 0.61005 0.0
C1182 C 0.0169 0.91075 0.63763 0.0
C1183 C 0.99109 0.88717 0.63142 0.0
C1184 C 0.95439 0.89354 0.73285 0.0
H1185 H 0.9098 0.81321 0.8477 0.0
H1186 H 0.91935 0.83143 0.77124 0.0
H1187 H 0.93176 0.89323 0.78865 0.0
H1188 H 0.01839 0.92535 0.71163 0.0
H1189 H 0.99043 0.90984 0.74799 0.0
H1190 H 0.97646 0.85401 0.68442 0.0
C1191 C 0.92176 0.83757 0.8091 0.0
C1192 C 0.9411 0.88452 0.76505 0.0
C1193 C 0.91642 0.82711 0.85299 0.0
C1194 C 0.01076 0.91506 0.68802 0.0
C1195 C 0.9947 0.90612 0.70905 0.0
C1196 C 0.96633 0.86269 0.7056 0.0
C1197 C 0.93115 0.85529 0.81424 0.0
C1198 C 0.94094 0.86451 0.76985 0.0
C1199 C 0.98452 0.89229 0.68078 0.0
C1200 C 0.96775 0.88273 0.70481 0.0
H1201 H 0.93267 0.85829 0.94475 0.0
H1202 H 0.94117 0.87649 0.8692 0.0
H1203 H 0.95333 0.83819 0.74105 0.0
H1204 H 0.0115 0.89249 0.57134 0.0
H1205 H 0.9836 0.87641 0.609 0.0
C1206 C 0.66954 0.89219 0.95946 0.0
C1207 C 0.68736 0.90082 0.94821 0.0
C1208 C 0.65423 0.89368 0.92488 0.0
C1209 C 0.64157 0.9289 0.82407 0.0
H1210 H 0.59085 0.9077 0.84728 0.0
C1211 C 0.57867 0.97497 0.77739 0.0
C1212 C 0.56744 0.97833 0.82168 0.0
C1213 C 0.58989 0.95859 0.77352 0.0
C1214 C 0.60496 0.91363 0.83987 0.0
H1215 H 0.70402 0.91351 0.88566 0.0
H1216 H 0.67827 0.91384 0.82406 0.0
H1217 H 0.61907 0.88926 0.87194 0.0
H1218 H 0.55736 0.96554 0.89317 0.0
H1219 H 0.5777 0.93746 0.88758 0.0
H1220 H 0.62765 0.95338 0.7935 0.0
C1221 C 0.67544 0.90783 0.86184 0.0
C1222 C 0.62119 0.90314 0.85431 0.0
C1223 C 0.69051 0.90723 0.8973 0.0
C1224 C 0.56627 0.96382 0.85932 0.0
C1225 C 0.57771 0.9475 0.85569 0.0
C1226 C 0.62549 0.93913 0.80892 0.0
C1227 C 0.65665 0.90298 0.87708 0.0
C1228 C 0.63974 0.91108 0.84907 0.0
C1229 C 0.59049 0.94532 0.81418 0.0
C1230 C 0.60698 0.93205 0.81873 0.0
H1231 H 0.66678 0.88579 0.99679 0.0
H1232 H 0.64024 0.8891 0.93812 0.0
H1233 H 0.65532 0.93595 0.81984 0.0
H1234 H 0.58014 0.98561 0.74729 0.0
H1235 H 0.5993 0.9571 0.74051 0.0
C1236 C 0.62101 0.7297 0.82774 0.0
C1237 C 0.62389 0.72119 0.87648 0.0
C1238 C 0.62067 0.71859 0.78295 0.0
C1239 C 0.62173 0.66721 0.73746 0.0
H1240 H 0.57555 0.68332 0.66679 0.0
C1241 C 0.55663 0.62101 0.70141 0.0
C1242 C 0.54615 0.62223 0.65505 0.0
C1243 C 0.57306 0.63202 0.70894 0.0
C1244 C 0.58877 0.67874 0.68485 0.0
H1245 H 0.63208 0.69473 0.91429 0.0
H1246 H 0.62962 0.67522 0.83781 0.0
H1247 H 0.59354 0.70627 0.717 0.0
H1248 H 0.54565 0.63545 0.57904 0.0
H1249 H 0.57377 0.65584 0.59417 0.0
H1250 H 0.61526 0.63902 0.70953 0.0
C1251 C 0.62782 0.69049 0.8335 0.0
C1252 C 0.59925 0.69196 0.71383 0.0
C1253 C 0.62882 0.70171 0.87807 0.0
C1254 C 0.55303 0.6344 0.6157 0.0
C1255 C 0.56929 0.64587 0.6239 0.0
C1256 C 0.61097 0.65389 0.7093 0.0
C1257 C 0.62249 0.6986 0.78583 0.0
C1258 C 0.61525 0.68615 0.74309 0.0
C1259 C 0.57925 0.64493 0.67096 0.0
C1260 C 0.59386 0.65939 0.68507 0.0
H1261 H 0.61737 0.74465 0.824 0.0
H1262 H 0.61743 0.72556 0.74666 0.0
H1263 H 0.63434 0.66229 0.75778 0.0
H1264 H 0.5517 0.61228 0.73332 0.0
H1265 H 0.5802 0.63138 0.74608 0.0
C1266 C 0.83573 0.62061 0.86455 0.0
C1267 C 0.81805 0.61098 0.86093 0.0
C1268 C 0.84938 0.61883 0.8253 0.0
C1269 C 0.87876 0.59429 0.77336 0.0
H1270 H 0.86876 0.57942 0.63161 0.0
C1271 C 0.89871 0.52716 0.64411 0.0
C1272 C 0.91697 0.52392 0.66551 0.0
C1273 C 0.88981 0.54493 0.64966 0.0
C1274 C 0.87186 0.5836 0.67101 0.0
H1275 H 0.80017 0.5935 0.81089 0.0
H1276 H 0.82383 0.59019 0.7435 0.0
H1277 H 0.84592 0.59976 0.67715 0.0
H1278 H 0.94124 0.53833 0.70226 0.0
H1279 H 0.92642 0.56915 0.70771 0.0
H1280 H 0.90377 0.57721 0.76932 0.0
C1281 C 0.82723 0.59936 0.77597 0.0
C1282 C 0.8588 0.5953 0.69706 0.0
C1283 C 0.81358 0.60123 0.81495 0.0
C1284 C 0.92713 0.53978 0.68551 0.0
C1285 C 0.91846 0.55763 0.68953 0.0
C1286 C 0.89171 0.58262 0.74752 0.0
C1287 C 0.84568 0.60721 0.78198 0.0
C1288 C 0.86165 0.59996 0.74941 0.0
C1289 C 0.89918 0.56002 0.67552 0.0
C1290 C 0.888 0.57633 0.69683 0.0
H1291 H 0.83944 0.62856 0.89905 0.0
H1292 H 0.86332 0.62545 0.83057 0.0
H1293 H 0.88141 0.59731 0.81375 0.0
H1294 H 0.89072 0.51567 0.62604 0.0
H1295 H 0.87503 0.54623 0.63752 0.0
C1296 C 0.0174 0.18897 0.94423 0.0
C1297 C 0.03433 0.19981 0.9397 0.0
C1298 C 0.01426 0.17289 0.91258 0.0
C1299 C 0.02937 0.14919 0.79085 0.0
H1300 H 0.01432 0.10216 0.85963 0.0
C1301 C 0.01041 0.07895 0.68006 0.0
C1302 C 0.01809 0.06179 0.69942 0.0
C1303 C 0.01203 0.0961 0.70789 0.0
C1304 C 0.01857 0.11516 0.83981 0.0
H1305 H 0.06102 0.20261 0.8978 0.0
H1306 H 0.0553 0.17505 0.8414 0.0
H1307 H 0.01687 0.13188 0.90919 0.0
H1308 H 0.03352 0.04942 0.76391 0.0
H1309 H 0.03621 0.0793 0.81262 0.0
H1310 H 0.03103 0.13247 0.72142 0.0
C1311 C 0.04443 0.17887 0.86935 0.0
C1312 C 0.01984 0.13225 0.86814 0.0
C1313 C 0.0477 0.19469 0.90156 0.0
C1314 C 0.02751 0.06232 0.7475 0.0
C1315 C 0.02892 0.07945 0.77569 0.0
C1316 C 0.02779 0.13216 0.76232 0.0
C1317 C 0.02788 0.16746 0.87518 0.0
C1318 C 0.02542 0.14949 0.84418 0.0
C1319 C 0.02118 0.09659 0.7563 0.0
C1320 C 0.02254 0.11485 0.78649 0.0
H1321 H 1.00701 0.19239 0.97389 0.0
H1322 H 1.00131 0.16452 0.91793 0.0
H1323 H 0.03364 0.16219 0.77106 0.0
H1324 H 1.00313 0.07913 0.64323 0.0
H1325 H 1.00575 0.10895 0.69193 0.0
C1326 C 0.3242 0.04011 0.89555 0.0
C1327 C 0.326 0.03387 0.94688 0.0
C1328 C 0.33848 0.03599 0.85891 0.0
C1329 C 0.38365 1.00752 0.83776 0.0
H1330 H 0.39709 0.04969 0.7472 0.0
C1331 C 0.45856 0.01473 0.74324 0.0
C1332 C 0.45985 0.02105 0.69177 0.0
C1333 C 0.441 0.01473 0.76951 0.0
C1334 C 0.39342 0.03765 0.77168 0.0
H1335 H 0.34394 0.01816 0.99983 0.0
H1336 H 0.36871 0.01087 0.93667 0.0
H1337 H 0.36835 0.05161 0.80046 0.0
H1338 H 0.4436 0.03251 0.62771 0.0
H1339 H 0.41284 0.03273 0.67386 0.0
H1340 H 0.40915 0.9939 0.81014 0.0
C1341 C 0.35618 0.01857 0.92375 0.0
C1342 C 0.37681 0.0387 0.80226 0.0
C1343 C 0.34188 0.02263 0.96016 0.0
C1344 C 0.44308 0.02747 0.66725 0.0
C1345 C 0.42548 0.02769 0.69383 0.0
C1346 C 0.40032 1.00656 0.80752 0.0
C1347 C 0.35506 0.02572 0.87289 0.0
C1348 C 0.37178 0.02376 0.83643 0.0
C1349 C 0.42419 0.02127 0.74536 0.0
C1350 C 0.40562 0.02172 0.77458 0.0
H1351 H 0.31237 0.04923 0.88458 0.0
H1352 H 0.33684 0.04149 0.82008 0.0
H1353 H 0.38018 0.99552 0.86255 0.0
H1354 H 0.47117 0.00966 0.76331 0.0
H1355 H 0.44069 0.00993 0.80927 0.0
C1356 C 0.46624 0.33743 0.90648 0.0
C1357 C 0.48059 0.33035 0.93944 0.0
C1358 C 0.47029 0.35173 0.87008 0.0
C1359 C 0.50529 0.39132 0.8474 0.0
H1360 H 0.4748 0.3989 0.724 0.0
C1361 C 0.5015 0.4655 0.74869 0.0
C1362 C 0.49954 0.46676 0.6947 0.0
C1363 C 0.50032 0.44783 0.77419 0.0
C1364 C 0.48366 0.39703 0.75793 0.0
H1365 H 0.51075 0.33212 0.9579 0.0
H1366 H 0.51814 0.35666 0.89295 0.0
H1367 H 0.47205 0.36906 0.77187 0.0
H1368 H 0.49413 0.45021 0.62552 0.0
H1369 H 0.49209 0.41937 0.66986 0.0
H1370 H 0.51724 0.41905 0.83289 0.0
C1371 C 0.50355 0.35142 0.89595 0.0
C1372 C 0.4819 0.37987 0.78597 0.0
C1373 C 0.49944 0.33706 0.93262 0.0
C1374 C 0.49602 0.44979 0.66701 0.0
C1375 C 0.49475 0.43206 0.69262 0.0
C1376 C 0.50715 0.4084 0.81919 0.0
C1377 C 0.48888 0.35948 0.86529 0.0
C1378 C 0.49239 0.37685 0.83183 0.0
C1379 C 0.49712 0.43072 0.74665 0.0
C1380 C 0.49607 0.41177 0.77455 0.0
H1381 H 0.45152 0.33274 0.91124 0.0
H1382 H 0.45848 0.3575 0.84805 0.0
H1383 H 0.51355 0.38981 0.88253 0.0
H1384 H 0.50426 0.47818 0.77153 0.0
H1385 H 0.50172 0.4477 0.81581 0.0
C1386 C 0.19177 0.46822 0.89796 0.0
C1387 C 0.2024 0.48328 0.92029 0.0
C1388 C 0.17689 0.47182 0.86308 0.0
C1389 C 0.14355 0.51074 0.82268 0.0
H1390 H 0.12744 0.4727 0.72267 0.0
C1391 C 0.06797 0.51319 0.73104 0.0
C1392 C 0.06508 0.50627 0.68069 0.0
C1393 C 0.08566 0.5111 0.75591 0.0
C1394 C 0.13175 0.48368 0.74978 0.0
H1395 H 0.20629 0.51402 0.9203 0.0
H1396 H 0.18081 0.52036 0.85769 0.0
H1397 H 0.1573 0.4685 0.76924 0.0
H1398 H 0.07863 0.49169 0.61684 0.0
H1399 H 0.10952 0.48787 0.66019 0.0
H1400 H 0.11839 0.52629 0.80184 0.0
C1401 C 0.18359 0.50568 0.86857 0.0
C1402 C 0.14888 0.4811 0.77735 0.0
C1403 C 0.19847 0.50205 0.90398 0.0
C1404 C 0.08044 0.49732 0.65551 0.0
C1405 C 0.09816 0.49508 0.68061 0.0
C1406 C 0.12655 0.51344 0.79465 0.0
C1407 C 0.1722 0.49063 0.84852 0.0
C1408 C 0.15491 0.49439 0.81511 0.0
C1409 C 0.10116 0.50207 0.73116 0.0
C1410 C 0.1201 0.49977 0.75845 0.0
H1411 H 0.19454 0.45353 0.9088 0.0
H1412 H 0.16854 0.45976 0.84937 0.0
H1413 H 0.14742 0.5213 0.85146 0.0
H1414 H 0.05648 0.52027 0.75147 0.0
H1415 H 0.08697 0.51628 0.79514 0.0
C1416 C 0.9709 0.82531 0.35745 0.0
C1417 C 0.98396 0.82166 0.31746 0.0
C1418 C 0.97363 0.84087 0.39094 0.0
C1419 C 0.00915 0.87925 0.4293 0.0
H1420 H 0.96324 0.90572 0.47312 0.0
C1421 C 0.98672 0.9464 0.57143 0.0
C1422 C 0.99952 0.96049 0.55367 0.0
C1423 C 0.98466 0.92903 0.5447 0.0
C1424 C 0.97621 0.89841 0.46164 0.0
H1425 H 0.01012 0.83138 0.28104 0.0
H1426 H 0.01481 0.85874 0.33837 0.0
H1427 H 0.96042 0.87612 0.4241 0.0
H1428 H 0.02046 0.9674 0.49477 0.0
H1429 H 0.01766 0.93676 0.44976 0.0
H1430 H 0.02485 0.90207 0.46557 0.0
C1431 C 1.00271 0.84934 0.3454 0.0
C1432 C 0.97463 0.88129 0.43363 0.0
C1433 C 1.00009 0.8336 0.31239 0.0
C1434 C 0.01048 0.95677 0.5093 0.0
C1435 C 0.00892 0.93919 0.48367 0.0
C1436 C 0.01071 0.89651 0.45668 0.0
C1437 C 0.9893 0.85351 0.38461 0.0
C1438 C 0.99107 0.87141 0.41672 0.0
C1439 C 0.99595 0.92508 0.50087 0.0
C1440 C 0.99426 0.90639 0.47298 0.0
H1441 H 0.9582 0.81647 0.36169 0.0
H1442 H 0.96318 0.84317 0.42114 0.0
H1443 H 0.0222 0.87203 0.4182 0.0
H1444 H 0.97804 0.94896 0.6054 0.0
H1445 H 0.97454 0.9185 0.55904 0.0
C1446 C 0.69806 0.98204 0.35961 0.0
C1447 C 0.70443 0.99554 0.32305 0.0
C1448 C 0.68293 0.9862 0.39325 0.0
C1449 C 0.63976 0.01633 0.39986 0.0
H1450 H 0.63565 0.99567 0.53847 0.0
C1451 C 0.5666 1.00744 0.50245 0.0
C1452 C 0.56529 0.01157 0.55557 0.0
C1453 C 0.58438 1.00706 0.47735 0.0
C1454 C 0.63658 1.00171 0.50003 0.0
H1455 H 0.70038 0.02433 0.29464 0.0
H1456 H 0.67397 0.03179 0.35387 0.0
H1457 H 0.66593 0.99326 0.49155 0.0
H1458 H 0.58202 0.01839 0.6238 0.0
H1459 H 0.61307 0.01763 0.57996 0.0
H1460 H 0.61041 0.02467 0.40813 0.0
C1461 C 0.68064 0.01787 0.35626 0.0
C1462 C 0.65394 1.00019 0.47288 0.0
C1463 C 0.69595 0.01372 0.32278 0.0
C1464 C 0.58239 0.01512 0.58293 0.0
C1465 C 0.60025 0.01463 0.55778 0.0
C1466 C 0.6224 0.01776 0.42687 0.0
C1467 C 0.67358 1.00397 0.39107 0.0
C1468 C 0.65573 1.00726 0.42211 0.0
C1469 C 0.60149 0.01071 0.50449 0.0
C1470 C 0.62044 0.01023 0.47709 0.0
H1471 H 0.70423 0.96785 0.36048 0.0
H1472 H 0.67789 0.97505 0.419 0.0
H1473 H 0.64045 0.02179 0.36075 0.0
H1474 H 0.55384 1.00459 0.47987 0.0
H1475 H 0.58472 1.00366 0.43656 0.0
C1476 C 0.55308 0.69238 0.31898 0.0
C1477 C 0.53895 0.69778 0.28318 0.0
C1478 C 0.5495 0.67804 0.3556 0.0
C1479 C 0.51178 0.64798 0.41876 0.0
H1480 H 0.55309 0.61132 0.42952 0.0
C1481 C 0.50185 0.57369 0.51839 0.0
C1482 C 0.51758 0.56539 0.54377 0.0
C1483 C 0.50394 0.59079 0.49034 0.0
C1484 C 0.54147 0.62151 0.42797 0.0
H1485 H 0.50964 0.69286 0.25927 0.0
H1486 H 0.50319 0.66783 0.32389 0.0
H1487 H 0.55712 0.6396 0.37609 0.0
H1488 H 0.54764 0.56928 0.56182 0.0
H1489 H 0.5513 0.59909 0.51382 0.0
H1490 H 0.49615 0.62982 0.47091 0.0
C1491 C 0.51708 0.67482 0.32381 0.0
C1492 C 0.54379 0.63782 0.39701 0.0
C1493 C 0.5207 0.68926 0.28694 0.0
C1494 C 0.53535 0.57493 0.54151 0.0
C1495 C 0.53742 0.59211 0.51386 0.0
C1496 C 0.5095 0.63167 0.45016 0.0
C1497 C 0.53168 0.66853 0.35747 0.0
C1498 C 0.529 0.65133 0.39177 0.0
C1499 C 0.52181 0.60024 0.48719 0.0
C1500 C 0.5243 0.61809 0.45513 0.0
H1501 H 0.56732 0.69859 0.31684 0.0
H1502 H 0.56097 0.67397 0.38146 0.0
H1503 H 0.50012 0.65809 0.41613 0.0
H1504 H 0.48791 0.56679 0.51945 0.0
H1505 H 0.49157 0.59633 0.47015 0.0
C1506 C 0.83806 0.55739 0.32338 0.0
C1507 C 0.83112 0.54321 0.28954 0.0
C1508 C 0.85193 0.55314 0.36076 0.0
C1509 C 0.89129 0.51893 0.38463 0.0
H1510 H 0.89459 0.54448 0.51727 0.0
C1511 C 0.95378 0.50394 0.52635 0.0
C1512 C 0.96187 0.51958 0.55283 0.0
C1513 C 0.93673 0.50591 0.49825 0.0
C1514 C 0.89403 0.53736 0.48015 0.0
H1515 H 0.83281 0.51322 0.26992 0.0
H1516 H 0.85692 0.50559 0.33581 0.0
H1517 H 0.86627 0.54884 0.46311 0.0
H1518 H 0.95765 0.54927 0.57303 0.0
H1519 H 0.9281 0.55294 0.52309 0.0
H1520 H 0.91915 0.50774 0.40104 0.0
C1521 C 0.85173 0.52012 0.33312 0.0
C1522 C 0.8777 0.53982 0.44905 0.0
C1523 C 0.83768 0.52439 0.29582 0.0
C1524 C 0.95208 0.5371 0.55192 0.0
C1525 C 0.93496 0.53909 0.52382 0.0
C1526 C 0.90761 0.51652 0.41563 0.0
C1527 C 0.85944 0.53456 0.36525 0.0
C1528 C 0.87613 0.53076 0.40056 0.0
C1529 C 0.92713 0.52357 0.49596 0.0
C1530 C 0.90933 0.52579 0.46374 0.0
H1531 H 0.83341 0.57208 0.31917 0.0
H1532 H 0.85752 0.56471 0.38419 0.0
H1533 H 0.89088 0.512 0.34726 0.0
H1534 H 0.96082 0.49017 0.52659 0.0
H1535 H 0.93104 0.4935 0.47836 0.0
loop_
_geom_bond_atom_site_label_1
_geom_bond_atom_site_label_2
_geom_bond_distance
_geom_bond_site_symmetry_2
_ccdc_geom_bond_type
C0 C1 1.391 . S
C0 C4 1.391 . S
C0 H42 0.948 . S
C1 C0 1.391 . S
C1 C2 1.391 . S
C2 C1 1.391 . S
C2 H58 0.947 . S
C2 C59 1.392 . S
C3 C4 1.391 . S
C3 C7 1.397 . S
C3 C59 1.419 . S
C4 C0 1.391 . S
C4 C3 1.391 . S
C4 C5 1.399 . S
C5 C4 1.399 . S
C5 C8 1.396 . S
C5 C17 1.453 . S
C5 C18 1.684 . S
H6 C30 0.948 . S
C7 C3 1.397 . S
C7 C8 1.394 . S
C7 C26 1.723 . S
C8 C5 1.396 . S
C8 C7 1.394 . S
C8 C38 1.723 . S
H9 C32 0.947 . S
H10 C33 0.948 . S
H11 C39 0.982 . S
H12 C40 0.979 . S
H13 C40 0.980 . S
H14 C40 0.983 . S
H15 C39 0.979 . S
H16 C39 0.977 . S
C17 C5 1.453 . S
C17 H46 0.982 . S
C17 H47 0.979 . S
C17 H48 0.977 . S
C18 C5 1.684 . S
C18 H43 0.979 . S
C18 H44 0.980 . S
C18 H45 0.983 . S
C19 C20 1.391 . S
C19 C24 1.391 . S
C19 H49 0.948 . S
C20 C19 1.391 . S
C20 C21 1.391 . S
C21 C20 1.391 . S
C21 C22 1.392 . S
C21 H50 0.947 1_554 S
C22 C21 1.392 . S
C22 C23 1.419 . S
C22 H51 0.948 . S
C23 C22 1.419 . S
C23 C24 1.391 . S
C23 C27 1.397 . S
C24 C19 1.391 . S
C24 C23 1.391 . S
C24 C25 1.399 . S
C25 C24 1.399 . S
C25 C26 1.396 . S
C25 C28 1.453 . S
C25 C29 1.684 . S
C26 C7 1.723 . S
C26 C25 1.396 . S
C26 C27 1.394 . S
C27 C23 1.397 . S
C27 C26 1.394 . S
C27 C37 1.723 . S
C28 C25 1.453 . S
C28 H52 0.982 . S
C28 H53 0.979 . S
C28 H54 0.977 . S
C29 C25 1.684 . S
C29 H55 0.979 . S
C29 H56 0.980 . S
C29 H57 0.983 . S
C30 H6 0.948 . S
C30 C31 1.391 . S
C30 C35 1.391 . S
C31 C30 1.391 . S
C31 C32 1.391 . S
C32 H9 0.947 . S
C32 C31 1.391 . S
C32 C33 1.392 . S
C33 H10 0.948 . S
C33 C32 1.392 . S
C33 C34 1.419 . S
C34 C33 1.419 . S
C34 C35 1.391 . S
C34 C38 1.397 . S
C35 C30 1.391 . S
C35 C34 1.391 . S
C35 C36 1.399 . S
C36 C35 1.399 . S
C36 C37 1.396 . S
C36 C39 1.453 . S
C36 C40 1.684 . S
C37 C27 1.723 . S
C37 C36 1.396 . S
C37 C38 1.394 . S
C38 C8 1.723 . S
C38 C34 1.397 . S
C38 C37 1.394 . S
C39 H11 0.982 . S
C39 H15 0.979 . S
C39 H16 0.977 . S
C39 C36 1.453 . S
C40 H12 0.979 . S
C40 H13 0.980 . S
C40 H14 0.983 . S
C40 C36 1.684 . S
H41 C59 0.948 . S
H42 C0 0.948 . S
H43 C18 0.979 . S
H44 C18 0.980 . S
H45 C18 0.983 . S
H46 C17 0.982 . S
H47 C17 0.979 . S
H48 C17 0.977 . S
H49 C19 0.948 . S
H50 C21 0.947 1_556 S
H51 C22 0.948 . S
H52 C28 0.982 . S
H53 C28 0.979 . S
H54 C28 0.977 . S
H55 C29 0.979 . S
H56 C29 0.980 . S
H57 C29 0.983 . S
H58 C2 0.947 . S
C59 C2 1.392 . S
C59 C3 1.419 . S
C59 H41 0.948 . S
C60 C61 1.391 . S
C60 C64 1.391 . S
C60 H102 0.948 1_554 S
C61 C60 1.391 . S
C61 C62 1.391 . S
C62 C61 1.391 . S
C62 H118 0.947 . S
C62 C119 1.392 . S
C63 C64 1.391 . S
C63 C67 1.397 . S
C63 C119 1.419 . S
C64 C60 1.391 . S
C64 C63 1.391 . S
C64 C65 1.399 . S
C65 C64 1.399 . S
C65 C68 1.396 . S
C65 C77 1.453 . S
C65 C78 1.684 . S
H66 C90 0.948 . S
C67 C63 1.397 . S
C67 C68 1.394 . S
C67 C86 1.723 . S
C68 C65 1.396 . S
C68 C67 1.394 . S
C68 C98 1.723 . S
H69 C92 0.947 . S
H70 C93 0.948 . S
H71 C99 0.982 . S
H72 C100 0.979 . S
H73 C100 0.980 . S
H74 C100 0.983 . S
H75 C99 0.979 . S
H76 C99 0.977 . S
C77 C65 1.453 . S
C77 H106 0.982 . S
C77 H107 0.979 . S
C77 H108 0.977 . S
C78 C65 1.684 . S
C78 H103 0.979 . S
C78 H104 0.980 . S
C78 H105 0.983 1_554 S
C79 C80 1.391 . S
C79 C84 1.391 . S
C79 H109 0.948 . S
C80 C79 1.391 . S
C80 C81 1.391 . S
C81 C80 1.391 . S
C81 C82 1.392 . S
C81 H110 0.947 . S
C82 C81 1.392 . S
C82 C83 1.419 . S
C82 H111 0.948 . S
C83 C82 1.419 . S
C83 C84 1.391 . S
C83 C87 1.397 . S
C84 C79 1.391 . S
C84 C83 1.391 . S
C84 C85 1.399 . S
C85 C84 1.399 . S
C85 C86 1.396 . S
C85 C88 1.453 . S
C85 C89 1.684 . S
C86 C67 1.723 . S
C86 C85 1.396 . S
C86 C87 1.394 . S
C87 C83 1.397 . S
C87 C86 1.394 . S
C87 C97 1.723 . S
C88 C85 1.453 . S
C88 H112 0.982 . S
C88 H113 0.979 . S
C88 H114 0.977 . S
C89 C85 1.684 . S
C89 H115 0.979 . S
C89 H116 0.980 . S
C89 H117 0.983 . S
C90 H66 0.948 . S
C90 C91 1.391 . S
C90 C95 1.391 . S
C91 C90 1.391 . S
C91 C92 1.391 . S
C92 H69 0.947 . S
C92 C91 1.391 . S
C92 C93 1.392 . S
C93 H70 0.948 . S
C93 C92 1.392 . S
C93 C94 1.419 . S
C94 C93 1.419 . S
C94 C95 1.391 . S
C94 C98 1.397 . S
C95 C90 1.391 . S
C95 C94 1.391 . S
C95 C96 1.399 . S
C96 C95 1.399 . S
C96 C97 1.396 . S
C96 C99 1.453 . S
C96 C100 1.684 . S
C97 C87 1.723 . S
C97 C96 1.396 . S
C97 C98 1.394 . S
C98 C68 1.723 . S
C98 C94 1.397 . S
C98 C97 1.394 . S
C99 H71 0.982 . S
C99 H75 0.979 . S
C99 H76 0.977 . S
C99 C96 1.453 . S
C100 H72 0.979 . S
C100 H73 0.980 . S
C100 H74 0.983 . S
C100 C96 1.684 . S
H101 C119 0.948 . S
H102 C60 0.948 1_556 S
H103 C78 0.979 . S
H104 C78 0.980 . S
H105 C78 0.983 1_556 S
H106 C77 0.982 . S
H107 C77 0.979 . S
H108 C77 0.977 . S
H109 C79 0.948 . S
H110 C81 0.947 . S
H111 C82 0.948 . S
H112 C88 0.982 . S
H113 C88 0.979 . S
H114 C88 0.977 . S
H115 C89 0.979 . S
H116 C89 0.980 . S
H117 C89 0.983 . S
H118 C62 0.947 . S
C119 C62 1.392 . S
C119 C63 1.419 . S
C119 H101 0.948 . S
C120 C121 1.391 . S
C120 C124 1.391 . S
C120 H162 0.948 . S
C121 C120 1.391 . S
C121 C122 1.391 . S
C122 C121 1.391 . S
C122 H178 0.947 . S
C122 C179 1.392 . S
C123 C124 1.391 . S
C123 C127 1.397 . S
C123 C179 1.419 . S
C124 C120 1.391 . S
C124 C123 1.391 . S
C124 C125 1.399 . S
C125 C124 1.399 . S
C125 C128 1.396 . S
C125 C137 1.453 . S
C125 C138 1.684 . S
H126 C150 0.948 . S
C127 C123 1.397 . S
C127 C128 1.394 . S
C127 C146 1.723 . S
C128 C125 1.396 . S
C128 C127 1.394 . S
C128 C158 1.723 . S
H129 C152 0.947 . S
H130 C153 0.948 . S
H131 C159 0.982 . S
H132 C160 0.979 . S
H133 C160 0.980 . S
H134 C160 0.983 . S
H135 C159 0.979 . S
H136 C159 0.977 . S
C137 C125 1.453 . S
C137 H166 0.982 . S
C137 H167 0.979 . S
C137 H168 0.977 . S
C138 C125 1.684 . S
C138 H163 0.979 . S
C138 H164 0.980 . S
C138 H165 0.983 . S
C139 C140 1.391 . S
C139 C144 1.391 . S
C139 H169 0.948 1_554 S
C140 C139 1.391 . S
C140 C141 1.391 . S
C141 C140 1.391 . S
C141 C142 1.392 . S
C141 H170 0.947 . S
C142 C141 1.392 . S
C142 C143 1.419 . S
C142 H171 0.948 . S
C143 C142 1.419 . S
C143 C144 1.391 . S
C143 C147 1.397 . S
C144 C139 1.391 . S
C144 C143 1.391 . S
C144 C145 1.399 . S
C145 C144 1.399 . S
C145 C146 1.396 . S
C145 C148 1.453 . S
C145 C149 1.684 . S
C146 C127 1.723 . S
C146 C145 1.396 . S
C146 C147 1.394 . S
C147 C143 1.397 . S
C147 C146 1.394 . S
C147 C157 1.723 . S
C148 C145 1.453 . S
C148 H172 0.982 . S
C148 H173 0.979 . S
C148 H174 0.977 . S
C149 C145 1.684 . S
C149 H175 0.979 . S
C149 H176 0.980 . S
C149 H177 0.983 1_554 S
C150 H126 0.948 . S
C150 C151 1.391 . S
C150 C155 1.391 . S
C151 C150 1.391 . S
C151 C152 1.391 . S
C152 H129 0.947 . S
C152 C151 1.391 . S
C152 C153 1.392 . S
C153 H130 0.948 . S
C153 C152 1.392 . S
C153 C154 1.419 . S
C154 C153 1.419 . S
C154 C155 1.391 . S
C154 C158 1.397 . S
C155 C150 1.391 . S
C155 C154 1.391 . S
C155 C156 1.399 . S
C156 C155 1.399 . S
C156 C157 1.396 . S
C156 C159 1.453 . S
C156 C160 1.684 . S
C157 C147 1.723 . S
C157 C156 1.396 . S
C157 C158 1.394 . S
C158 C128 1.723 . S
C158 C154 1.397 . S
C158 C157 1.394 . S
C159 H131 0.982 . S
C159 H135 0.979 . S
C159 H136 0.977 . S
C159 C156 1.453 . S
C160 H132 0.979 . S
C160 H133 0.980 . S
C160 H134 0.983 . S
C160 C156 1.684 . S
H161 C179 0.948 . S
H162 C120 0.948 . S
H163 C138 0.979 . S
H164 C138 0.980 . S
H165 C138 0.983 . S
H166 C137 0.982 . S
H167 C137 0.979 . S
H168 C137 0.977 . S
H169 C139 0.948 1_556 S
H170 C141 0.947 . S
H171 C142 0.948 . S
H172 C148 0.982 . S
H173 C148 0.979 . S
H174 C148 0.977 . S
H175 C149 0.979 . S
H176 C149 0.980 . S
H177 C149 0.983 1_556 S
H178 C122 0.947 . S
C179 C122 1.392 . S
C179 C123 1.419 . S
C179 H161 0.948 . S
C180 C181 1.391 . S
C180 C184 1.391 . S
C180 H222 0.948 . S
C181 C180 1.391 . S
C181 C182 1.391 . S
C182 C181 1.391 . S
C182 H238 0.947 . S
C182 C239 1.392 . S
C183 C184 1.391 . S
C183 C187 1.397 . S
C183 C239 1.419 . S
C184 C180 1.391 . S
C184 C183 1.391 . S
C184 C185 1.399 . S
C185 C184 1.399 . S
C185 C188 1.396 . S
C185 C197 1.453 . S
C185 C198 1.684 . S
H186 C210 0.948 . S
C187 C183 1.397 . S
C187 C188 1.394 . S
C187 C206 1.723 . S
C188 C185 1.396 . S
C188 C187 1.394 . S
C188 C218 1.723 . S
H189 C212 0.947 . S
H190 C213 0.948 . S
H191 C219 0.982 . S
H192 C220 0.979 . S
H193 C220 0.980 . S
H194 C220 0.983 . S
H195 C219 0.979 . S
H196 C219 0.977 . S
C197 C185 1.453 . S
C197 H226 0.982 . S
C197 H227 0.979 . S
C197 H228 0.977 . S
C198 C185 1.684 . S
C198 H223 0.979 . S
C198 H224 0.980 . S
C198 H225 0.983 . S
C199 C200 1.391 . S
C199 C204 1.391 . S
C199 H229 0.948 . S
C200 C199 1.391 . S
C200 C201 1.391 . S
C201 C200 1.391 . S
C201 C202 1.392 . S
C201 H230 0.947 1_554 S
C202 C201 1.392 . S
C202 C203 1.419 . S
C202 H231 0.948 . S
C203 C202 1.419 . S
C203 C204 1.391 . S
C203 C207 1.397 . S
C204 C199 1.391 . S
C204 C203 1.391 . S
C204 C205 1.399 . S
C205 C204 1.399 . S
C205 C206 1.396 . S
C205 C208 1.453 . S
C205 C209 1.684 . S
C206 C187 1.723 . S
C206 C205 1.396 . S
C206 C207 1.394 . S
C207 C203 1.397 . S
C207 C206 1.394 . S
C207 C217 1.723 . S
C208 C205 1.453 . S
C208 H232 0.982 . S
C208 H233 0.979 . S
C208 H234 0.977 . S
C209 C205 1.684 . S
C209 H235 0.979 . S
C209 H236 0.980 . S
C209 H237 0.983 . S
C210 H186 0.948 . S
C210 C211 1.391 . S
C210 C215 1.391 . S
C211 C210 1.391 . S
C211 C212 1.391 . S
C212 H189 0.947 . S
C212 C211 1.391 . S
C212 C213 1.392 . S
C213 H190 0.948 . S
C213 C212 1.392 . S
C213 C214 1.419 . S
C214 C213 1.419 . S
C214 C215 1.391 . S
C214 C218 1.397 . S
C215 C210 1.391 . S
C215 C214 1.391 . S
C215 C216 1.399 . S
C216 C215 1.399 . S
C216 C217 1.396 . S
C216 C219 1.453 . S
C216 C220 1.684 . S
C217 C207 1.723 . S
C217 C216 1.396 . S
C217 C218 1.394 . S
C218 C188 1.723 . S
C218 C214 1.397 . S
C218 C217 1.394 . S
C219 H191 0.982 . S
C219 H195 0.979 . S
C219 H196 0.977 . S
C219 C216 1.453 . S
C220 H192 0.979 . S
C220 H193 0.980 . S
C220 H194 0.983 . S
C220 C216 1.684 . S
H221 C239 0.948 . S
H222 C180 0.948 . S
H223 C198 0.979 . S
H224 C198 0.980 . S
H225 C198 0.983 . S
H226 C197 0.982 . S
H227 C197 0.979 . S
H228 C197 0.977 . S
H229 C199 0.948 . S
H230 C201 0.947 1_556 S
H231 C202 0.948 . S
H232 C208 0.982 . S
H233 C208 0.979 . S
H234 C208 0.977 . S
H235 C209 0.979 . S
H236 C209 0.980 . S
H237 C209 0.983 . S
H238 C182 0.947 . S
C239 C182 1.392 . S
C239 C183 1.419 . S
C239 H221 0.948 . S
C240 C241 1.391 . S
C240 C244 1.391 . S
C240 H282 0.948 . S
C241 C240 1.391 . S
C241 C242 1.391 . S
C242 C241 1.391 . S
C242 H298 0.947 . S
C242 C299 1.392 . S
C243 C244 1.391 . S
C243 C247 1.397 . S
C243 C299 1.419 . S
C244 C240 1.391 . S
C244 C243 1.391 . S
C244 C245 1.399 1_554 S
C245 C244 1.399 1_556 S
C245 C248 1.396 1_556 S
C245 C257 1.453 . S
C245 C258 1.684 . S
H246 C270 0.948 . S
C247 C243 1.397 . S
C247 C248 1.394 . S
C247 C266 1.723 . S
C248 C245 1.396 1_554 S
C248 C247 1.394 . S
C248 C278 1.723 1_554 S
H249 C272 0.947 . S
H250 C273 0.948 . S
H251 C279 0.982 . S
H252 C280 0.979 . S
H253 C280 0.980 1_554 S
H254 C280 0.983 . S
H255 C279 0.979 . S
H256 C279 0.977 1_554 S
C257 C245 1.453 . S
C257 H286 0.982 . S
C257 H287 0.979 . S
C257 H288 0.977 . S
C258 C245 1.684 . S
C258 H283 0.979 . S
C258 H284 0.980 . S
C258 H285 0.983 . S
C259 C260 1.391 . S
C259 C264 1.391 . S
C259 H289 0.948 . S
C260 C259 1.391 . S
C260 C261 1.391 . S
C261 C260 1.391 . S
C261 C262 1.392 . S
C261 H290 0.947 . S
C262 C261 1.392 . S
C262 C263 1.419 . S
C262 H291 0.948 . S
C263 C262 1.419 . S
C263 C264 1.391 . S
C263 C267 1.397 . S
C264 C259 1.391 . S
C264 C263 1.391 . S
C264 C265 1.399 . S
C265 C264 1.399 . S
C265 C266 1.396 . S
C265 C268 1.453 . S
C265 C269 1.684 . S
C266 C247 1.723 . S
C266 C265 1.396 . S
C266 C267 1.394 . S
C267 C263 1.397 . S
C267 C266 1.394 . S
C267 C277 1.723 . S
C268 C265 1.453 . S
C268 H292 0.982 . S
C268 H293 0.979 . S
C268 H294 0.977 . S
C269 C265 1.684 . S
C269 H295 0.979 . S
C269 H296 0.980 . S
C269 H297 0.983 . S
C270 H246 0.948 . S
C270 C271 1.391 . S
C270 C275 1.391 . S
C271 C270 1.391 . S
C271 C272 1.391 . S
C272 H249 0.947 . S
C272 C271 1.391 . S
C272 C273 1.392 . S
C273 H250 0.948 . S
C273 C272 1.392 . S
C273 C274 1.419 . S
C274 C273 1.419 . S
C274 C275 1.391 . S
C274 C278 1.397 . S
C275 C270 1.391 . S
C275 C274 1.391 . S
C275 C276 1.399 . S
C276 C275 1.399 . S
C276 C277 1.396 1_556 S
C276 C279 1.453 . S
C276 C280 1.684 . S
C277 C267 1.723 . S
C277 C276 1.396 1_554 S
C277 C278 1.394 1_554 S
C278 C248 1.723 1_556 S
C278 C274 1.397 . S
C278 C277 1.394 1_556 S
C279 H251 0.982 . S
C279 H255 0.979 . S
C279 H256 0.977 1_556 S
C279 C276 1.453 . S
C280 H252 0.979 . S
C280 H253 0.980 1_556 S
C280 H254 0.983 . S
C280 C276 1.684 . S
H281 C299 0.948 . S
H282 C240 0.948 . S
H283 C258 0.979 . S
H284 C258 0.980 . S
H285 C258 0.983 . S
H286 C257 0.982 . S
H287 C257 0.979 . S
H288 C257 0.977 . S
H289 C259 0.948 . S
H290 C261 0.947 . S
H291 C262 0.948 . S
H292 C268 0.982 . S
H293 C268 0.979 . S
H294 C268 0.977 . S
H295 C269 0.979 . S
H296 C269 0.980 . S
H297 C269 0.983 . S
H298 C242 0.947 . S
C299 C242 1.392 . S
C299 C243 1.419 . S
C299 H281 0.948 . S
C300 C301 1.391 . S
C300 C304 1.391 . S
C300 H342 0.948 . S
C301 C300 1.391 . S
C301 C302 1.391 . S
C302 C301 1.391 . S
C302 H358 0.947 . S
C302 C359 1.392 . S
C303 C304 1.391 . S
C303 C307 1.397 . S
C303 C359 1.419 . S
C304 C300 1.391 . S
C304 C303 1.391 . S
C304 C305 1.399 . S
C305 C304 1.399 . S
C305 C308 1.396 . S
C305 C317 1.453 . S
C305 C318 1.684 . S
H306 C330 0.948 . S
C307 C303 1.397 . S
C307 C308 1.394 . S
C307 C326 1.723 . S
C308 C305 1.396 . S
C308 C307 1.394 . S
C308 C338 1.723 . S
H309 C332 0.947 . S
H310 C333 0.948 . S
H311 C339 0.982 . S
H312 C340 0.979 . S
H313 C340 0.980 . S
H314 C340 0.983 . S
H315 C339 0.979 . S
H316 C339 0.977 . S
C317 C305 1.453 . S
C317 H346 0.982 . S
C317 H347 0.979 . S
C317 H348 0.977 . S
C318 C305 1.684 . S
C318 H343 0.979 . S
C318 H344 0.980 . S
C318 H345 0.983 . S
C319 C320 1.391 . S
C319 C324 1.391 . S
C319 H349 0.948 . S
C320 C319 1.391 . S
C320 C321 1.391 . S
C321 C320 1.391 . S
C321 C322 1.392 . S
C321 H350 0.947 . S
C322 C321 1.392 . S
C322 C323 1.419 . S
C322 H351 0.948 . S
C323 C322 1.419 . S
C323 C324 1.391 . S
C323 C327 1.397 . S
C324 C319 1.391 . S
C324 C323 1.391 . S
C324 C325 1.399 . S
C325 C324 1.399 . S
C325 C326 1.396 1_556 S
C325 C328 1.453 . S
C325 C329 1.684 . S
C326 C307 1.723 . S
C326 C325 1.396 1_554 S
C326 C327 1.394 1_554 S
C327 C323 1.397 . S
C327 C326 1.394 1_556 S
C327 C337 1.723 1_556 S
C328 C325 1.453 . S
C328 H352 0.982 . S
C328 H353 0.979 . S
C328 H354 0.977 1_556 S
C329 C325 1.684 . S
C329 H355 0.979 . S
C329 H356 0.980 1_556 S
C329 H357 0.983 . S
C330 H306 0.948 . S
C330 C331 1.391 . S
C330 C335 1.391 . S
C331 C330 1.391 . S
C331 C332 1.391 . S
C332 H309 0.947 . S
C332 C331 1.391 . S
C332 C333 1.392 . S
C333 H310 0.948 . S
C333 C332 1.392 . S
C333 C334 1.419 . S
C334 C333 1.419 . S
C334 C335 1.391 . S
C334 C338 1.397 . S
C335 C330 1.391 . S
C335 C334 1.391 . S
C335 C336 1.399 1_554 S
C336 C335 1.399 1_556 S
C336 C337 1.396 1_556 S
C336 C339 1.453 . S
C336 C340 1.684 . S
C337 C327 1.723 1_554 S
C337 C336 1.396 1_554 S
C337 C338 1.394 . S
C338 C308 1.723 . S
C338 C334 1.397 . S
C338 C337 1.394 . S
C339 H311 0.982 . S
C339 H315 0.979 . S
C339 H316 0.977 . S
C339 C336 1.453 . S
C340 H312 0.979 . S
C340 H313 0.980 . S
C340 H314 0.983 . S
C340 C336 1.684 . S
H341 C359 0.948 . S
H342 C300 0.948 . S
H343 C318 0.979 . S
H344 C318 0.980 . S
H345 C318 0.983 . S
H346 C317 0.982 . S
H347 C317 0.979 . S
H348 C317 0.977 . S
H349 C319 0.948 . S
H350 C321 0.947 . S
H351 C322 0.948 . S
H352 C328 0.982 . S
H353 C328 0.979 . S
H354 C328 0.977 1_554 S
H355 C329 0.979 . S
H356 C329 0.980 1_554 S
H357 C329 0.983 . S
H358 C302 0.947 . S
C359 C302 1.392 . S
C359 C303 1.419 . S
C359 H341 0.948 . S
C360 C361 1.391 . S
C360 C364 1.391 . S
C360 H402 0.948 . S
C361 C360 1.391 . S
C361 C362 1.391 . S
C362 C361 1.391 . S
C362 H418 0.947 . S
C362 C419 1.392 . S
C363 C364 1.391 . S
C363 C367 1.397 . S
C363 C419 1.419 . S
C364 C360 1.391 . S
C364 C363 1.391 . S
C364 C365 1.399 . S
C365 C364 1.399 . S
C365 C368 1.396 . S
C365 C377 1.453 . S
C365 C378 1.684 . S
H366 C390 0.948 . S
C367 C363 1.397 . S
C367 C368 1.394 . S
C367 C386 1.723 1_556 S
C368 C365 1.396 . S
C368 C367 1.394 . S
C368 C398 1.723 1_556 S
H369 C392 0.947 . S
H370 C393 0.948 1_556 S
H371 C399 0.982 . S
H372 C400 0.979 . S
H373 C400 0.980 . S
H374 C400 0.983 . S
H375 C399 0.979 . S
H376 C399 0.977 . S
C377 C365 1.453 . S
C377 H406 0.982 . S
C377 H407 0.979 . S
C377 H408 0.977 . S
C378 C365 1.684 . S
C378 H403 0.979 . S
C378 H404 0.980 . S
C378 H405 0.983 . S
C379 C380 1.391 . S
C379 C384 1.391 . S
C379 H409 0.948 . S
C380 C379 1.391 . S
C380 C381 1.391 . S
C381 C380 1.391 . S
C381 C382 1.392 . S
C381 H410 0.947 . S
C382 C381 1.392 . S
C382 C383 1.419 . S
C382 H411 0.948 . S
C383 C382 1.419 . S
C383 C384 1.391 . S
C383 C387 1.397 . S
C384 C379 1.391 . S
C384 C383 1.391 . S
C384 C385 1.399 . S
C385 C384 1.399 . S
C385 C386 1.396 . S
C385 C388 1.453 . S
C385 C389 1.684 . S
C386 C367 1.723 1_554 S
C386 C385 1.396 . S
C386 C387 1.394 . S
C387 C383 1.397 . S
C387 C386 1.394 . S
C387 C397 1.723 . S
C388 C385 1.453 . S
C388 H412 0.982 . S
C388 H413 0.979 . S
C388 H414 0.977 1_554 S
C389 C385 1.684 . S
C389 H415 0.979 . S
C389 H416 0.980 1_554 S
C389 H417 0.983 . S
C390 H366 0.948 . S
C390 C391 1.391 . S
C390 C395 1.391 . S
C391 C390 1.391 . S
C391 C392 1.391 . S
C392 H369 0.947 . S
C392 C391 1.391 . S
C392 C393 1.392 . S
C393 H370 0.948 1_554 S
C393 C392 1.392 . S
C393 C394 1.419 . S
C394 C393 1.419 . S
C394 C395 1.391 . S
C394 C398 1.397 . S
C395 C390 1.391 . S
C395 C394 1.391 . S
C395 C396 1.399 . S
C396 C395 1.399 . S
C396 C397 1.396 . S
C396 C399 1.453 . S
C396 C400 1.684 . S
C397 C387 1.723 . S
C397 C396 1.396 . S
C397 C398 1.394 . S
C398 C368 1.723 1_554 S
C398 C394 1.397 . S
C398 C397 1.394 . S
C399 H371 0.982 . S
C399 H375 0.979 . S
C399 H376 0.977 . S
C399 C396 1.453 . S
C400 H372 0.979 . S
C400 H373 0.980 . S
C400 H374 0.983 . S
C400 C396 1.684 . S
H401 C419 0.948 . S
H402 C360 0.948 . S
H403 C378 0.979 . S
H404 C378 0.980 . S
H405 C378 0.983 . S
H406 C377 0.982 . S
H407 C377 0.979 . S
H408 C377 0.977 . S
H409 C379 0.948 . S
H410 C381 0.947 . S
H411 C382 0.948 . S
H412 C388 0.982 . S
H413 C388 0.979 . S
H414 C388 0.977 1_556 S
H415 C389 0.979 . S
H416 C389 0.980 1_556 S
H417 C389 0.983 . S
H418 C362 0.947 . S
C419 C362 1.392 . S
C419 C363 1.419 . S
C419 H401 0.948 . S
C420 C421 1.391 . S
C420 C424 1.391 . S
C420 H462 0.948 . S
C421 C420 1.391 . S
C421 C422 1.391 . S
C422 C421 1.391 . S
C422 H478 0.947 . S
C422 C479 1.392 . S
C423 C424 1.391 . S
C423 C427 1.397 . S
C423 C479 1.419 . S
C424 C420 1.391 . S
C424 C423 1.391 . S
C424 C425 1.399 . S
C425 C424 1.399 . S
C425 C428 1.396 . S
C425 C437 1.453 . S
C425 C438 1.684 . S
H426 C450 0.948 . S
C427 C423 1.397 . S
C427 C428 1.394 . S
C427 C446 1.723 1_556 S
C428 C425 1.396 . S
C428 C427 1.394 . S
C428 C458 1.723 1_556 S
H429 C452 0.947 1_556 S
H430 C453 0.948 1_556 S
H431 C459 0.982 . S
H432 C460 0.979 . S
H433 C460 0.980 . S
H434 C460 0.983 . S
H435 C459 0.979 . S
H436 C459 0.977 . S
C437 C425 1.453 . S
C437 H466 0.982 . S
C437 H467 0.979 . S
C437 H468 0.977 . S
C438 C425 1.684 . S
C438 H463 0.979 . S
C438 H464 0.980 . S
C438 H465 0.983 . S
C439 C440 1.391 . S
C439 C444 1.391 . S
C439 H469 0.948 . S
C440 C439 1.391 . S
C440 C441 1.391 . S
C441 C440 1.391 . S
C441 C442 1.392 . S
C441 H470 0.947 . S
C442 C441 1.392 . S
C442 C443 1.419 . S
C442 H471 0.948 . S
C443 C442 1.419 . S
C443 C444 1.391 . S
C443 C447 1.397 . S
C444 C439 1.391 . S
C444 C443 1.391 . S
C444 C445 1.399 . S
C445 C444 1.399 . S
C445 C446 1.396 . S
C445 C448 1.453 . S
C445 C449 1.684 . S
C446 C427 1.723 1_554 S
C446 C445 1.396 . S
C446 C447 1.394 . S
C447 C443 1.397 . S
C447 C446 1.394 . S
C447 C457 1.723 . S
C448 C445 1.453 . S
C448 H472 0.982 . S
C448 H473 0.979 . S
C448 H474 0.977 1_554 S
C449 C445 1.684 . S
C449 H475 0.979 . S
C449 H476 0.980 1_554 S
C449 H477 0.983 . S
C450 H426 0.948 . S
C450 C451 1.391 . S
C450 C455 1.391 . S
C451 C450 1.391 . S
C451 C452 1.391 . S
C452 H429 0.947 1_554 S
C452 C451 1.391 . S
C452 C453 1.392 . S
C453 H430 0.948 1_554 S
C453 C452 1.392 . S
C453 C454 1.419 . S
C454 C453 1.419 . S
C454 C455 1.391 . S
C454 C458 1.397 . S
C455 C450 1.391 . S
C455 C454 1.391 . S
C455 C456 1.399 . S
C456 C455 1.399 . S
C456 C457 1.396 . S
C456 C459 1.453 . S
C456 C460 1.684 . S
C457 C447 1.723 . S
C457 C456 1.396 . S
C457 C458 1.394 . S
C458 C428 1.723 1_554 S
C458 C454 1.397 . S
C458 C457 1.394 . S
C459 H431 0.982 . S
C459 H435 0.979 . S
C459 H436 0.977 . S
C459 C456 1.453 . S
C460 H432 0.979 . S
C460 H433 0.980 . S
C460 H434 0.983 . S
C460 C456 1.684 . S
H461 C479 0.948 . S
H462 C420 0.948 . S
H463 C438 0.979 . S
H464 C438 0.980 . S
H465 C438 0.983 . S
H466 C437 0.982 . S
H467 C437 0.979 . S
H468 C437 0.977 . S
H469 C439 0.948 . S
H470 C441 0.947 . S
H471 C442 0.948 . S
H472 C448 0.982 . S
H473 C448 0.979 . S
H474 C448 0.977 1_556 S
H475 C449 0.979 . S
H476 C449 0.980 1_556 S
H477 C449 0.983 . S
H478 C422 0.947 . S
C479 C422 1.392 . S
C479 C423 1.419 . S
C479 H461 0.948 . S
Eu480 N509 2.600 . S
Eu480 N515 2.562 . S
Eu480 O524 2.464 . S
Eu480 O525 2.373 1_545 S
Eu480 O527 2.432 . S
Eu480 O528 2.291 1_655 S
Eu480 O532 2.335 1_655 S
Eu480 O535 2.372 . S
Eu480 C544 2.787 . S
C481 N482 1.346 1_545 S
C481 C484 1.405 . S
C481 C488 1.448 . S
N482 C481 1.346 1_565 S
N482 C485 1.325 . S
N482 Eu491 2.610 . S
C483 C485 1.397 1_545 S
C483 C486 1.367 . S
C483 H503 0.931 . S
C484 C481 1.405 . S
C484 C486 1.403 . S
C484 C490 1.439 . S
C485 N482 1.325 . S
C485 C483 1.397 1_565 S
C485 H496 0.930 . S
C486 C483 1.367 . S
C486 C484 1.403 . S
C486 H507 0.929 . S
C487 C488 1.430 . S
C487 C489 1.387 . S
C487 C493 1.404 . S
C488 C481 1.448 . S
C488 C487 1.430 . S
C488 N492 1.351 . S
C489 C487 1.387 . S
C489 C490 1.374 . S
C489 H504 0.931 . S
C490 C484 1.439 . S
C490 C489 1.374 . S
C490 H505 0.931 . S
Eu491 N482 2.610 . S
Eu491 N492 2.562 1_565 S
Eu491 O526 2.335 . S
Eu491 O529 2.372 . S
Eu491 O530 2.462 . S
Eu491 O531 2.373 1_565 S
Eu491 O533 2.432 . S
Eu491 O534 2.291 1_465 S
Eu491 C555 2.787 . S
N492 C488 1.351 . S
N492 Eu491 2.562 1_545 S
N492 C494 1.325 . S
C493 C487 1.404 . S
C493 C495 1.366 . S
C493 H501 0.930 . S
C494 N492 1.325 . S
C494 C495 1.416 . S
C494 H500 0.929 1_455 S
C495 C493 1.366 . S
C495 C494 1.416 . S
C495 H497 0.935 1_455 S
H496 C485 0.930 . S
H497 C495 0.935 1_655 S
H498 C513 0.930 . S
H499 C520 0.931 1_455 S
H500 C494 0.929 1_655 S
H501 C493 0.930 . S
H502 C516 0.884 1_455 S
H503 C483 0.931 . S
H504 C489 0.931 . S
H505 C490 0.931 . S
H506 C511 0.931 . S
H507 C486 0.929 . S
H508 C519 0.930 . S
N509 Eu480 2.600 . S
N509 C510 1.365 . S
N509 C513 1.319 . S
C510 N509 1.365 . S
C510 C512 1.389 1_545 S
C510 C518 1.448 . S
C511 H506 0.931 . S
C511 C513 1.397 . S
C511 C514 1.367 . S
C512 C510 1.389 1_565 S
C512 C514 1.398 1_565 S
C512 C545 1.462 . S
C513 H498 0.930 . S
C513 N509 1.319 . S
C513 C511 1.397 . S
C514 C511 1.367 . S
C514 C512 1.398 1_545 S
C514 H521 0.929 1_545 S
N515 Eu480 2.562 . S
N515 C516 1.366 . S
N515 C518 1.351 . S
C516 H502 0.884 1_655 S
C516 N515 1.366 . S
C516 C520 1.413 1_545 S
C517 C518 1.430 1_565 S
C517 C519 1.404 . S
C517 C546 1.387 . S
C518 C510 1.448 . S
C518 N515 1.351 . S
C518 C517 1.430 1_545 S
C519 H508 0.930 . S
C519 C517 1.404 . S
C519 C520 1.370 . S
C520 H499 0.931 1_655 S
C520 C516 1.413 1_565 S
C520 C519 1.370 . S
H521 C514 0.929 1_565 S
H522 C545 0.931 . S
H523 C546 0.931 . S
O524 Eu480 2.464 . S
O524 C544 1.259 . S
O525 Eu480 2.373 1_565 S
O525 C536 1.249 . S
O526 Eu491 2.335 . S
O526 C536 1.264 1_455 S
O527 Eu480 2.432 . S
O527 C544 1.268 . S
O528 Eu480 2.291 1_455 S
O528 C543 1.255 . S
O529 Eu491 2.372 . S
O529 C543 1.257 1_565 S
O530 Eu491 2.462 . S
O530 C555 1.252 . S
O531 Eu491 2.373 1_545 S
O531 C547 1.249 . S
O532 Eu480 2.335 1_455 S
O532 C547 1.264 . S
O533 Eu491 2.432 . S
O533 C555 1.268 . S
O534 Eu491 2.291 1_645 S
O534 C554 1.255 . S
O535 Eu480 2.372 . S
O535 C554 1.257 . S
C536 O525 1.249 . S
C536 O526 1.264 1_655 S
C537 C540 1.382 . S
C537 C542 1.390 . S
C537 C544 1.506 . S
C538 C539 1.398 . S
C538 C542 1.392 . S
C539 C538 1.398 . S
C539 C541 1.372 . S
C539 H556 0.931 . S
C540 C537 1.382 . S
C540 C541 1.390 . S
C540 H557 0.931 . S
C541 C539 1.372 . S
C541 C540 1.390 . S
C541 H558 0.929 . S
C542 C537 1.390 . S
C542 C538 1.392 . S
C542 H559 0.930 1_655 S
C543 O528 1.255 . S
C543 O529 1.257 1_545 S
C544 Eu480 2.787 . S
C544 O524 1.259 . S
C544 O527 1.268 . S
C544 C537 1.506 . S
C545 C512 1.462 . S
C545 H522 0.931 . S
C545 C546 1.374 . S
C546 C517 1.387 . S
C546 H523 0.931 . S
C546 C545 1.374 . S
C547 O531 1.249 . S
C547 O532 1.264 . S
C548 C551 1.382 . S
C548 C552 1.390 . S
C548 C555 1.506 . S
C549 C550 1.398 . S
C549 C552 1.392 . S
C550 C549 1.398 . S
C550 C553 1.372 . S
C550 H560 0.931 . S
C551 C548 1.382 . S
C551 C553 1.390 . S
C551 H561 0.931 . S
C552 C548 1.390 . S
C552 C549 1.392 . S
C552 H562 0.905 1_455 S
C553 C550 1.372 . S
C553 C551 1.390 . S
C553 H563 0.929 . S
C554 O534 1.255 . S
C554 O535 1.257 . S
C555 Eu491 2.787 . S
C555 O530 1.252 . S
C555 O533 1.268 . S
C555 C548 1.506 . S
H556 C539 0.931 . S
H557 C540 0.931 . S
H558 C541 0.929 . S
H559 C542 0.930 1_455 S
H560 C550 0.931 . S
H561 C551 0.931 . S
H562 C552 0.905 1_655 S
H563 C553 0.929 . S
Eu564 N593 2.600 . S
Eu564 N599 2.562 . S
Eu564 O608 2.462 . S
Eu564 O609 2.373 . S
Eu564 O611 2.432 . S
Eu564 O612 2.291 . S
Eu564 O616 2.335 1_545 S
Eu564 O619 2.372 . S
Eu564 C628 2.787 . S
C565 N566 1.365 . S
C565 C568 1.405 . S
C565 C572 1.448 . S
N566 C565 1.365 . S
N566 C569 1.319 . S
N566 Eu575 2.600 . S
C567 C569 1.397 . S
C567 C570 1.367 . S
C567 H587 0.931 . S
C568 C565 1.405 . S
C568 C570 1.403 . S
C568 C574 1.439 . S
C569 N566 1.319 . S
C569 C567 1.397 . S
C569 H580 0.930 . S
C570 C567 1.367 . S
C570 C568 1.403 . S
C570 H591 0.929 . S
C571 C572 1.430 . S
C571 C573 1.387 . S
C571 C577 1.404 . S
C572 C565 1.448 . S
C572 C571 1.430 . S
C572 N576 1.351 . S
C573 C571 1.387 . S
C573 C574 1.374 . S
C573 H588 0.931 . S
C574 C568 1.439 . S
C574 C573 1.374 . S
C574 H589 0.931 . S
Eu575 N566 2.600 . S
Eu575 N576 2.562 . S
Eu575 O610 2.335 1_565 S
Eu575 O613 2.372 . S
Eu575 O614 2.462 . S
Eu575 O615 2.373 . S
Eu575 O617 2.432 . S
Eu575 O618 2.291 1_565 S
Eu575 C639 2.787 . S
N576 C572 1.351 . S
N576 Eu575 2.562 . S
N576 C578 1.325 . S
C577 C571 1.404 . S
C577 C579 1.366 . S
C577 H585 0.930 . S
C578 N576 1.325 . S
C578 C579 1.416 . S
C578 H584 0.929 . S
C579 C577 1.366 . S
C579 C578 1.416 . S
C579 H581 0.930 . S
H580 C569 0.930 . S
H581 C579 0.930 . S
H582 C597 0.930 . S
H583 C604 0.930 . S
H584 C578 0.929 . S
H585 C577 0.930 . S
H586 C600 0.929 . S
H587 C567 0.931 . S
H588 C573 0.931 . S
H589 C574 0.931 . S
H590 C595 0.931 . S
H591 C570 0.929 . S
H592 C603 0.930 . S
N593 Eu564 2.600 . S
N593 C594 1.365 . S
N593 C597 1.319 . S
C594 N593 1.365 . S
C594 C596 1.405 . S
C594 C602 1.448 . S
C595 H590 0.931 . S
C595 C597 1.397 . S
C595 C598 1.367 . S
C596 C594 1.405 . S
C596 C598 1.403 . S
C596 C629 1.439 . S
C597 H582 0.930 . S
C597 N593 1.319 . S
C597 C595 1.397 . S
C598 C595 1.367 . S
C598 C596 1.403 . S
C598 H605 0.929 . S
N599 Eu564 2.562 . S
N599 C600 1.325 . S
N599 C602 1.351 . S
C600 H586 0.929 . S
C600 N599 1.325 . S
C600 C604 1.416 . S
C601 C602 1.430 . S
C601 C603 1.404 . S
C601 C630 1.387 . S
C602 C594 1.448 . S
C602 N599 1.351 . S
C602 C601 1.430 . S
C603 H592 0.930 . S
C603 C601 1.404 . S
C603 C604 1.366 . S
C604 H583 0.930 . S
C604 C600 1.416 . S
C604 C603 1.366 . S
H605 C598 0.929 . S
H606 C629 0.931 . S
H607 C630 0.931 . S
O608 Eu564 2.462 . S
O608 C628 1.252 . S
O609 Eu564 2.373 . S
O609 C620 1.249 . S
O610 Eu575 2.335 1_545 S
O610 C620 1.264 . S
O611 Eu564 2.432 . S
O611 C628 1.268 . S
O612 Eu564 2.291 . S
O612 C627 1.255 1_545 S
O613 Eu575 2.372 . S
O613 C627 1.257 . S
O614 Eu575 2.462 . S
O614 C639 1.252 . S
O615 Eu575 2.373 . S
O615 C631 1.249 . S
O616 Eu564 2.335 1_565 S
O616 C631 1.264 . S
O617 Eu575 2.432 . S
O617 C639 1.268 . S
O618 Eu575 2.291 1_545 S
O618 C638 1.255 . S
O619 Eu564 2.372 . S
O619 C638 1.257 . S
C620 O609 1.249 . S
C620 O610 1.264 . S
C621 C624 1.382 . S
C621 C626 1.390 . S
C621 C628 1.506 . S
C622 C623 1.398 . S
C622 C626 1.392 . S
C623 C622 1.398 . S
C623 C625 1.372 . S
C623 H640 0.931 . S
C624 C621 1.382 . S
C624 C625 1.390 . S
C624 H641 0.931 . S
C625 C623 1.372 . S
C625 C624 1.390 . S
C625 H642 0.929 . S
C626 C621 1.390 . S
C626 C622 1.392 . S
C626 H643 0.930 . S
C627 O612 1.255 1_565 S
C627 O613 1.257 . S
C628 Eu564 2.787 . S
C628 O608 1.252 . S
C628 O611 1.268 . S
C628 C621 1.506 . S
C629 C596 1.439 . S
C629 H606 0.931 . S
C629 C630 1.374 . S
C630 C601 1.387 . S
C630 H607 0.931 . S
C630 C629 1.374 . S
C631 O615 1.249 . S
C631 O616 1.264 . S
C632 C635 1.382 . S
C632 C636 1.390 1_565 S
C632 C639 1.506 . S
C633 C634 1.398 1_545 S
C633 C636 1.392 . S
C634 C633 1.398 1_565 S
C634 C637 1.372 . S
C634 H644 0.931 . S
C635 C632 1.382 . S
C635 C637 1.390 . S
C635 H645 0.931 . S
C636 C632 1.390 1_545 S
C636 C633 1.392 . S
C636 H646 0.930 . S
C637 C634 1.372 . S
C637 C635 1.390 . S
C637 H647 0.929 . S
C638 O618 1.255 . S
C638 O619 1.257 . S
C639 Eu575 2.787 . S
C639 O614 1.252 . S
C639 O617 1.268 . S
C639 C632 1.506 . S
H640 C623 0.931 . S
H641 C624 0.931 . S
H642 C625 0.929 . S
H643 C626 0.930 . S
H644 C634 0.931 . S
H645 C635 0.931 . S
H646 C636 0.930 . S
H647 C637 0.929 . S
Eu648 N677 2.600 . S
Eu648 N683 2.562 . S
Eu648 O692 2.462 . S
Eu648 O693 2.373 . S
Eu648 O695 2.432 . S
Eu648 O696 2.291 . S
Eu648 O700 2.335 . S
Eu648 O703 2.372 . S
Eu648 C712 2.787 . S
C649 N650 1.365 . S
C649 C652 1.405 . S
C649 C656 1.448 . S
N650 C649 1.365 . S
N650 C653 1.319 . S
N650 Eu659 2.600 . S
C651 C653 1.397 . S
C651 C654 1.367 . S
C651 H671 0.931 . S
C652 C649 1.405 . S
C652 C654 1.403 . S
C652 C658 1.439 . S
C653 N650 1.319 . S
C653 C651 1.397 . S
C653 H664 0.930 . S
C654 C651 1.367 . S
C654 C652 1.403 . S
C654 H675 0.929 . S
C655 C656 1.430 . S
C655 C657 1.387 . S
C655 C661 1.404 . S
C656 C649 1.448 . S
C656 C655 1.430 . S
C656 N660 1.351 . S
C657 C655 1.387 . S
C657 C658 1.374 . S
C657 H672 0.931 . S
C658 C652 1.439 . S
C658 C657 1.374 . S
C658 H673 0.931 . S
Eu659 N650 2.600 . S
Eu659 N660 2.562 . S
Eu659 O694 2.335 . S
Eu659 O697 2.372 . S
Eu659 O698 2.462 . S
Eu659 O699 2.373 . S
Eu659 O701 2.432 . S
Eu659 O702 2.291 . S
Eu659 C723 2.787 . S
N660 C656 1.351 . S
N660 Eu659 2.562 . S
N660 C662 1.325 . S
C661 C655 1.404 . S
C661 C663 1.366 . S
C661 H669 0.930 . S
C662 N660 1.325 . S
C662 C663 1.416 . S
C662 H668 0.929 . S
C663 C661 1.366 . S
C663 C662 1.416 . S
C663 H665 0.930 . S
H664 C653 0.930 . S
H665 C663 0.930 . S
H666 C681 0.930 . S
H667 C688 0.930 . S
H668 C662 0.929 . S
H669 C661 0.930 . S
H670 C684 0.929 . S
H671 C651 0.931 . S
H672 C657 0.931 . S
H673 C658 0.931 . S
H674 C679 0.931 . S
H675 C654 0.929 . S
H676 C687 0.930 . S
N677 Eu648 2.600 . S
N677 C678 1.365 . S
N677 C681 1.319 . S
C678 N677 1.365 . S
C678 C680 1.405 . S
C678 C686 1.448 . S
C679 H674 0.931 . S
C679 C681 1.397 . S
C679 C682 1.367 . S
C680 C678 1.405 . S
C680 C682 1.403 . S
C680 C713 1.439 . S
C681 H666 0.930 . S
C681 N677 1.319 . S
C681 C679 1.397 . S
C682 C679 1.367 . S
C682 C680 1.403 . S
C682 H689 0.929 . S
N683 Eu648 2.562 . S
N683 C684 1.325 . S
N683 C686 1.351 . S
C684 H670 0.929 . S
C684 N683 1.325 . S
C684 C688 1.416 . S
C685 C686 1.430 . S
C685 C687 1.404 . S
C685 C714 1.387 . S
C686 C678 1.448 . S
C686 N683 1.351 . S
C686 C685 1.430 . S
C687 H676 0.930 . S
C687 C685 1.404 . S
C687 C688 1.366 . S
C688 H667 0.930 . S
C688 C684 1.416 . S
C688 C687 1.366 . S
H689 C682 0.929 . S
H690 C713 0.931 . S
H691 C714 0.931 . S
O692 Eu648 2.462 . S
O692 C712 1.252 . S
O693 Eu648 2.373 . S
O693 C704 1.249 . S
O694 Eu659 2.335 . S
O694 C704 1.264 . S
O695 Eu648 2.432 . S
O695 C712 1.268 . S
O696 Eu648 2.291 . S
O696 C711 1.255 . S
O697 Eu659 2.372 . S
O697 C711 1.257 . S
O698 Eu659 2.462 . S
O698 C723 1.252 . S
O699 Eu659 2.373 . S
O699 C715 1.249 . S
O700 Eu648 2.335 . S
O700 C715 1.264 . S
O701 Eu659 2.432 . S
O701 C723 1.268 . S
O702 Eu659 2.291 . S
O702 C722 1.255 . S
O703 Eu648 2.372 . S
O703 C722 1.257 . S
C704 O693 1.249 . S
C704 O694 1.264 . S
C705 C708 1.382 . S
C705 C710 1.390 . S
C705 C712 1.506 . S
C706 C707 1.398 . S
C706 C710 1.392 . S
C707 C706 1.398 . S
C707 C709 1.372 . S
C707 H724 0.931 . S
C708 C705 1.382 . S
C708 C709 1.390 . S
C708 H725 0.931 . S
C709 C707 1.372 . S
C709 C708 1.390 . S
C709 H726 0.929 . S
C710 C705 1.390 . S
C710 C706 1.392 . S
C710 H727 0.930 . S
C711 O696 1.255 . S
C711 O697 1.257 . S
C712 Eu648 2.787 . S
C712 O692 1.252 . S
C712 O695 1.268 . S
C712 C705 1.506 . S
C713 C680 1.439 . S
C713 H690 0.931 . S
C713 C714 1.374 . S
C714 C685 1.387 . S
C714 H691 0.931 . S
C714 C713 1.374 . S
C715 O699 1.249 . S
C715 O700 1.264 . S
C716 C719 1.382 . S
C716 C720 1.390 . S
C716 C723 1.506 . S
C717 C718 1.398 . S
C717 C720 1.392 . S
C718 C717 1.398 . S
C718 C721 1.372 . S
C718 H728 0.931 . S
C719 C716 1.382 . S
C719 C721 1.390 . S
C719 H729 0.931 . S
C720 C716 1.390 . S
C720 C717 1.392 . S
C720 H730 0.930 . S
C721 C718 1.372 . S
C721 C719 1.390 . S
C721 H731 0.929 . S
C722 O702 1.255 . S
C722 O703 1.257 . S
C723 Eu659 2.787 . S
C723 O698 1.252 . S
C723 O701 1.268 . S
C723 C716 1.506 . S
H724 C707 0.931 . S
H725 C708 0.931 . S
H726 C709 0.929 . S
H727 C710 0.930 . S
H728 C718 0.931 . S
H729 C719 0.931 . S
H730 C720 0.930 . S
H731 C721 0.929 . S
Eu732 N761 2.600 . S
Eu732 N767 2.562 . S
Eu732 O776 2.462 . S
Eu732 O777 2.373 1_455 S
Eu732 O779 2.432 . S
Eu732 O780 2.291 . S
Eu732 O784 2.335 . S
Eu732 O787 2.372 . S
Eu732 C796 2.787 . S
C733 N734 1.365 1_455 S
C733 C736 1.405 . S
C733 C740 1.448 . S
N734 C733 1.365 1_655 S
N734 C737 1.319 . S
N734 Eu743 2.600 . S
C735 C737 1.382 1_455 S
C735 C738 1.390 . S
C735 H755 0.926 1_455 S
C736 C733 1.405 . S
C736 C738 1.403 . S
C736 C742 1.439 . S
C737 N734 1.319 . S
C737 C735 1.382 1_655 S
C737 H748 0.930 . S
C738 C735 1.390 . S
C738 C736 1.403 . S
C738 H759 0.929 . S
C739 C740 1.430 . S
C739 C741 1.387 . S
C739 C745 1.404 . S
C740 C733 1.448 . S
C740 C739 1.430 . S
C740 N744 1.361 . S
C741 C739 1.387 . S
C741 C742 1.374 . S
C741 H756 0.931 . S
C742 C736 1.439 . S
C742 C741 1.374 . S
C742 H757 0.931 . S
Eu743 N734 2.600 . S
Eu743 N744 2.554 1_655 S
Eu743 O778 2.335 . S
Eu743 O781 2.372 . S
Eu743 O782 2.462 . S
Eu743 O783 2.373 1_655 S
Eu743 O785 2.432 . S
Eu743 O786 2.297 . S
Eu743 C807 2.787 . S
N744 C740 1.361 . S
N744 Eu743 2.554 1_455 S
N744 C746 1.328 . S
C745 C739 1.404 . S
C745 C747 1.366 . S
C745 H753 0.930 . S
C746 N744 1.328 . S
C746 C747 1.416 . S
C746 H752 0.929 1_455 S
C747 C745 1.366 . S
C747 C746 1.416 . S
C747 H749 0.930 . S
H748 C737 0.930 . S
H749 C747 0.930 . S
H750 C765 0.930 . S
H751 C772 0.930 . S
H752 C746 0.929 1_655 S
H753 C745 0.930 . S
H754 C768 0.929 . S
H755 C735 0.926 1_655 S
H756 C741 0.931 . S
H757 C742 0.931 . S
H758 C763 0.931 . S
H759 C738 0.929 . S
H760 C771 0.930 . S
N761 Eu732 2.600 . S
N761 C762 1.365 . S
N761 C765 1.319 . S
C762 N761 1.365 . S
C762 C764 1.405 1_455 S
C762 C770 1.448 . S
C763 H758 0.931 . S
C763 C765 1.397 . S
C763 C766 1.386 . S
C764 C762 1.405 1_655 S
C764 C766 1.399 1_655 S
C764 C797 1.439 . S
C765 H750 0.930 . S
C765 N761 1.319 . S
C765 C763 1.397 . S
C766 C763 1.386 . S
C766 C764 1.399 1_455 S
C766 H773 0.917 1_455 S
N767 Eu732 2.562 . S
N767 C768 1.325 . S
N767 C770 1.351 . S
C768 H754 0.929 . S
C768 N767 1.325 . S
C768 C772 1.416 1_455 S
C769 C770 1.430 1_655 S
C769 C771 1.404 . S
C769 C798 1.387 . S
C770 C762 1.448 . S
C770 N767 1.351 . S
C770 C769 1.430 1_455 S
C771 H760 0.930 . S
C771 C769 1.404 . S
C771 C772 1.366 . S
C772 H751 0.930 . S
C772 C768 1.416 1_655 S
C772 C771 1.366 . S
H773 C766 0.917 1_655 S
H774 C797 0.931 . S
H775 C798 0.931 . S
O776 Eu732 2.462 . S
O776 C796 1.252 . S
O777 Eu732 2.373 1_655 S
O777 C788 1.249 . S
O778 Eu743 2.335 . S
O778 C788 1.264 . S
O779 Eu732 2.432 . S
O779 C796 1.268 . S
O780 Eu732 2.291 . S
O780 C795 1.255 . S
O781 Eu743 2.372 . S
O781 C795 1.257 1_655 S
O782 Eu743 2.462 . S
O782 C807 1.252 . S
O783 Eu743 2.373 1_455 S
O783 C799 1.249 . S
O784 Eu732 2.335 . S
O784 C799 1.264 . S
O785 Eu743 2.432 . S
O785 C807 1.268 . S
O786 Eu743 2.297 . S
O786 C806 1.251 1_655 S
O787 Eu732 2.372 . S
O787 C806 1.257 . S
C788 O777 1.249 . S
C788 O778 1.264 . S
C789 C792 1.382 . S
C789 C794 1.390 . S
C789 C796 1.506 . S
C790 C791 1.398 . S
C790 C794 1.392 . S
C791 C790 1.398 . S
C791 C793 1.372 . S
C791 H808 0.931 . S
C792 C789 1.382 . S
C792 C793 1.390 . S
C792 H809 0.931 . S
C793 C791 1.372 . S
C793 C792 1.390 . S
C793 H810 0.929 . S
C794 C789 1.390 . S
C794 C790 1.392 . S
C794 H811 0.930 . S
C795 O780 1.255 . S
C795 O781 1.257 1_455 S
C796 Eu732 2.787 . S
C796 O776 1.252 . S
C796 O779 1.268 . S
C796 C789 1.506 . S
C797 C764 1.439 . S
C797 H774 0.931 . S
C797 C798 1.374 . S
C798 C769 1.387 . S
C798 H775 0.931 . S
C798 C797 1.374 . S
C799 O783 1.249 . S
C799 O784 1.264 . S
C800 C803 1.382 . S
C800 C804 1.390 . S
C800 C807 1.506 . S
C801 C802 1.398 . S
C801 C804 1.392 . S
C802 C801 1.398 . S
C802 C805 1.372 . S
C802 H812 0.931 . S
C803 C800 1.382 . S
C803 C805 1.390 . S
C803 H813 0.931 . S
C804 C800 1.390 . S
C804 C801 1.392 . S
C804 H814 0.930 . S
C805 C802 1.372 . S
C805 C803 1.390 . S
C805 H815 0.929 . S
C806 O786 1.251 1_455 S
C806 O787 1.257 . S
C807 Eu743 2.787 . S
C807 O782 1.252 . S
C807 O785 1.268 . S
C807 C800 1.506 . S
H808 C791 0.931 . S
H809 C792 0.931 . S
H810 C793 0.929 . S
H811 C794 0.930 . S
H812 C802 0.931 . S
H813 C803 0.931 . S
H814 C804 0.930 . S
H815 C805 0.929 . S
C816 C817 1.349 . S
C816 C818 1.327 . S
C816 H841 0.950 . S
C817 C816 1.349 . S
C817 C833 1.349 . S
C818 C816 1.327 . S
C818 C837 1.429 . S
C818 H842 0.950 . S
C819 C836 1.574 . S
C819 C838 1.368 . S
C819 H843 0.949 . S
H820 C824 0.893 1_565 S
C821 C822 1.349 . S
C821 C823 1.327 . S
C821 H844 0.950 . S
C822 C821 1.349 . S
C822 C834 1.349 . S
C823 C821 1.327 . S
C823 C839 1.429 . S
C823 H845 0.950 . S
C824 H820 0.893 1_545 S
C824 C832 1.574 . S
C824 C840 1.368 . S
H825 C833 0.950 . S
H826 C831 0.950 . S
H827 C832 0.949 . S
H828 C834 0.950 1_565 S
H829 C835 0.950 1_565 S
H830 C836 0.949 . S
C831 H826 0.950 . S
C831 C833 1.327 . S
C831 C837 1.429 . S
C832 C824 1.574 . S
C832 H827 0.949 . S
C832 C838 1.368 . S
C833 C817 1.349 . S
C833 H825 0.950 . S
C833 C831 1.327 . S
C834 C822 1.349 . S
C834 H828 0.950 1_545 S
C834 C835 1.327 . S
C835 H829 0.950 1_545 S
C835 C834 1.327 . S
C835 C839 1.429 . S
C836 C819 1.574 . S
C836 H830 0.949 . S
C836 C840 1.368 . S
C837 C818 1.429 . S
C837 C831 1.429 . S
C837 C838 1.523 . S
C838 C819 1.368 . S
C838 C832 1.368 . S
C838 C837 1.523 . S
C839 C823 1.429 . S
C839 C835 1.429 . S
C839 C840 1.523 . S
C840 C824 1.368 . S
C840 C836 1.368 . S
C840 C839 1.523 . S
H841 C816 0.950 . S
H842 C818 0.950 . S
H843 C819 0.949 . S
H844 C821 0.950 . S
H845 C823 0.950 . S
C846 C847 1.349 . S
C846 C848 1.327 . S
C846 H871 0.950 . S
C847 C846 1.349 . S
C847 C863 1.349 . S
C848 C846 1.327 . S
C848 C867 1.429 . S
C848 H872 0.950 . S
C849 C866 1.574 . S
C849 C868 1.368 . S
C849 H873 0.949 . S
H850 C854 0.949 . S
C851 C852 1.349 . S
C851 C853 1.327 . S
C851 H874 0.950 . S
C852 C851 1.349 . S
C852 C864 1.349 . S
C853 C851 1.327 . S
C853 C869 1.429 . S
C853 H875 0.950 . S
C854 H850 0.949 . S
C854 C862 1.574 . S
C854 C870 1.368 . S
H855 C863 0.950 . S
H856 C861 0.950 . S
H857 C862 0.949 . S
H858 C864 0.950 . S
H859 C865 0.950 . S
H860 C866 0.949 . S
C861 H856 0.950 . S
C861 C863 1.327 . S
C861 C867 1.429 . S
C862 C854 1.574 . S
C862 H857 0.949 . S
C862 C868 1.368 . S
C863 C847 1.349 . S
C863 H855 0.950 . S
C863 C861 1.327 . S
C864 C852 1.349 . S
C864 H858 0.950 . S
C864 C865 1.327 . S
C865 H859 0.950 . S
C865 C864 1.327 . S
C865 C869 1.429 . S
C866 C849 1.574 . S
C866 H860 0.949 . S
C866 C870 1.368 . S
C867 C848 1.429 . S
C867 C861 1.429 . S
C867 C868 1.523 . S
C868 C849 1.368 . S
C868 C862 1.368 . S
C868 C867 1.523 . S
C869 C853 1.429 . S
C869 C865 1.429 . S
C869 C870 1.523 . S
C870 C854 1.368 . S
C870 C866 1.368 . S
C870 C869 1.523 . S
H871 C846 0.950 . S
H872 C848 0.950 . S
H873 C849 0.949 . S
H874 C851 0.950 . S
H875 C853 0.950 . S
C876 C877 1.349 . S
C876 C878 1.327 . S
C876 H901 0.950 . S
C877 C876 1.349 . S
C877 C893 1.349 . S
C878 C876 1.327 . S
C878 C897 1.429 . S
C878 H902 0.950 . S
C879 C896 1.574 . S
C879 C898 1.368 . S
C879 H903 0.949 . S
H880 C884 0.949 . S
C881 C882 1.349 . S
C881 C883 1.327 . S
C881 H904 0.950 . S
C882 C881 1.349 . S
C882 C894 1.349 . S
C883 C881 1.327 . S
C883 C899 1.429 . S
C883 H905 0.950 . S
C884 H880 0.949 . S
C884 C892 1.574 . S
C884 C900 1.368 . S
H885 C893 0.950 . S
H886 C891 0.950 . S
H887 C892 0.949 . S
H888 C894 0.950 . S
H889 C895 0.950 . S
H890 C896 0.949 . S
C891 H886 0.950 . S
C891 C893 1.327 . S
C891 C897 1.429 . S
C892 C884 1.574 . S
C892 H887 0.949 . S
C892 C898 1.368 . S
C893 C877 1.349 . S
C893 H885 0.950 . S
C893 C891 1.327 . S
C894 C882 1.349 . S
C894 H888 0.950 . S
C894 C895 1.327 . S
C895 H889 0.950 . S
C895 C894 1.327 . S
C895 C899 1.429 . S
C896 C879 1.574 . S
C896 H890 0.949 . S
C896 C900 1.368 . S
C897 C878 1.429 . S
C897 C891 1.429 . S
C897 C898 1.523 . S
C898 C879 1.368 . S
C898 C892 1.368 . S
C898 C897 1.523 . S
C899 C883 1.429 . S
C899 C895 1.429 . S
C899 C900 1.523 . S
C900 C884 1.368 . S
C900 C896 1.368 . S
C900 C899 1.523 . S
H901 C876 0.950 . S
H902 C878 0.950 . S
H903 C879 0.949 . S
H904 C881 0.950 . S
H905 C883 0.950 . S
C906 C907 1.349 . S
C906 C908 1.327 . S
C906 H931 0.950 . S
C907 C906 1.349 . S
C907 C923 1.349 . S
C908 C906 1.327 . S
C908 C927 1.429 . S
C908 H932 0.950 . S
C909 C926 1.574 . S
C909 C928 1.368 . S
C909 H933 0.949 . S
H910 C914 0.949 . S
C911 C912 1.349 . S
C911 C913 1.327 . S
C911 H934 0.950 . S
C912 C911 1.349 . S
C912 C924 1.349 . S
C913 C911 1.327 . S
C913 C929 1.429 . S
C913 H935 0.950 . S
C914 H910 0.949 . S
C914 C922 1.574 . S
C914 C930 1.368 . S
H915 C923 0.950 . S
H916 C921 0.950 . S
H917 C922 0.949 . S
H918 C924 0.950 . S
H919 C925 0.950 . S
H920 C926 0.949 . S
C921 H916 0.950 . S
C921 C923 1.327 . S
C921 C927 1.429 . S
C922 C914 1.574 . S
C922 H917 0.949 . S
C922 C928 1.368 . S
C923 C907 1.349 . S
C923 H915 0.950 . S
C923 C921 1.327 . S
C924 C912 1.349 . S
C924 H918 0.950 . S
C924 C925 1.327 . S
C925 H919 0.950 . S
C925 C924 1.327 . S
C925 C929 1.429 . S
C926 C909 1.574 . S
C926 H920 0.949 . S
C926 C930 1.368 . S
C927 C908 1.429 . S
C927 C921 1.429 . S
C927 C928 1.523 . S
C928 C909 1.368 . S
C928 C922 1.368 . S
C928 C927 1.523 . S
C929 C913 1.429 . S
C929 C925 1.429 . S
C929 C930 1.523 . S
C930 C914 1.368 . S
C930 C926 1.368 . S
C930 C929 1.523 . S
H931 C906 0.950 . S
H932 C908 0.950 . S
H933 C909 0.949 . S
H934 C911 0.950 . S
H935 C913 0.950 . S
C936 C937 1.349 . S
C936 C938 1.327 1_554 S
C936 H961 0.950 . S
C937 C936 1.349 . S
C937 C953 1.349 . S
C938 C936 1.327 1_556 S
C938 C957 1.429 . S
C938 H962 0.950 . S
C939 C956 1.574 . S
C939 C958 1.368 . S
C939 H963 0.949 1_565 S
H940 C944 0.949 . S
C941 C942 1.349 1_545 S
C941 C943 1.327 . S
C941 H964 0.950 . S
C942 C941 1.349 1_565 S
C942 C954 1.349 . S
C943 C941 1.327 . S
C943 C959 1.429 1_545 S
C943 H965 0.950 . S
C944 H940 0.949 . S
C944 C952 1.574 . S
C944 C960 1.368 . S
H945 C953 0.950 . S
H946 C951 0.950 . S
H947 C952 0.949 . S
H948 C954 0.950 . S
H949 C955 0.950 . S
H950 C956 0.949 1_545 S
C951 H946 0.950 . S
C951 C953 1.327 . S
C951 C957 1.429 1_554 S
C952 C944 1.574 . S
C952 H947 0.949 . S
C952 C958 1.368 . S
C953 C937 1.349 . S
C953 H945 0.950 . S
C953 C951 1.327 . S
C954 C942 1.349 . S
C954 H948 0.950 . S
C954 C955 1.327 . S
C955 H949 0.950 . S
C955 C954 1.327 . S
C955 C959 1.429 . S
C956 C939 1.574 . S
C956 H950 0.949 1_565 S
C956 C960 1.368 . S
C957 C938 1.429 . S
C957 C951 1.429 1_556 S
C957 C958 1.523 . S
C958 C939 1.368 . S
C958 C952 1.368 . S
C958 C957 1.523 . S
C959 C943 1.429 1_565 S
C959 C955 1.429 . S
C959 C960 1.523 . S
C960 C944 1.368 . S
C960 C956 1.368 . S
C960 C959 1.523 . S
H961 C936 0.950 . S
H962 C938 0.950 . S
H963 C939 0.949 1_545 S
H964 C941 0.950 . S
H965 C943 0.950 . S
C966 C967 1.349 . S
C966 C968 1.327 . S
C966 H991 0.950 . S
C967 C966 1.349 . S
C967 C983 1.349 . S
C968 C966 1.327 . S
C968 C987 1.429 1_554 S
C968 H992 0.950 . S
C969 C986 1.574 . S
C969 C988 1.368 . S
C969 H993 0.949 . S
H970 C974 0.949 . S
C971 C972 1.349 . S
C971 C973 1.327 . S
C971 H994 0.950 . S
C972 C971 1.349 . S
C972 C984 1.349 . S
C973 C971 1.327 . S
C973 C989 1.429 . S
C973 H995 0.950 . S
C974 H970 0.949 . S
C974 C982 1.574 . S
C974 C990 1.368 . S
H975 C983 0.950 . S
H976 C981 0.950 1_556 S
H977 C982 0.949 . S
H978 C984 0.950 . S
H979 C985 0.950 . S
H980 C986 0.949 . S
C981 H976 0.950 1_554 S
C981 C983 1.327 . S
C981 C987 1.429 1_554 S
C982 C974 1.574 . S
C982 H977 0.949 . S
C982 C988 1.368 . S
C983 C967 1.349 . S
C983 H975 0.950 . S
C983 C981 1.327 . S
C984 C972 1.349 . S
C984 H978 0.950 . S
C984 C985 1.327 . S
C985 H979 0.950 . S
C985 C984 1.327 . S
C985 C989 1.429 . S
C986 C969 1.574 . S
C986 H980 0.949 . S
C986 C990 1.368 . S
C987 C968 1.429 1_556 S
C987 C981 1.429 1_556 S
C987 C988 1.523 . S
C988 C969 1.368 . S
C988 C982 1.368 . S
C988 C987 1.523 . S
C989 C973 1.429 . S
C989 C985 1.429 . S
C989 C990 1.523 . S
C990 C974 1.368 . S
C990 C986 1.368 . S
C990 C989 1.523 . S
H991 C966 0.950 . S
H992 C968 0.950 . S
H993 C969 0.949 . S
H994 C971 0.950 . S
H995 C973 0.950 . S
C996 C997 1.349 . S
C996 C998 1.327 . S
C996 H1021 0.950 . S
C997 C996 1.349 . S
C997 C1013 1.349 . S
C998 C996 1.327 . S
C998 C1017 1.429 1_554 S
C998 H1022 0.950 . S
C999 C1016 1.574 . S
C999 C1018 1.368 . S
C999 H1023 0.949 . S
H1000 C1004 0.949 . S
C1001 C1002 1.349 . S
C1001 C1003 1.327 . S
C1001 H1024 0.950 . S
C1002 C1001 1.349 . S
C1002 C1014 1.349 . S
C1003 C1001 1.327 . S
C1003 C1019 1.429 . S
C1003 H1025 0.950 . S
C1004 H1000 0.949 . S
C1004 C1012 1.574 . S
C1004 C1020 1.368 . S
H1005 C1013 0.950 . S
H1006 C1011 0.950 . S
H1007 C1012 0.949 . S
H1008 C1014 0.950 . S
H1009 C1015 0.950 . S
H1010 C1016 0.949 . S
C1011 H1006 0.950 . S
C1011 C1013 1.327 1_556 S
C1011 C1017 1.429 . S
C1012 C1004 1.574 . S
C1012 H1007 0.949 . S
C1012 C1018 1.368 . S
C1013 C997 1.349 . S
C1013 H1005 0.950 . S
C1013 C1011 1.327 1_554 S
C1014 C1002 1.349 . S
C1014 H1008 0.950 . S
C1014 C1015 1.327 . S
C1015 H1009 0.950 . S
C1015 C1014 1.327 . S
C1015 C1019 1.429 . S
C1016 C999 1.574 . S
C1016 H1010 0.949 . S
C1016 C1020 1.368 . S
C1017 C998 1.429 1_556 S
C1017 C1011 1.429 . S
C1017 C1018 1.523 . S
C1018 C999 1.368 . S
C1018 C1012 1.368 . S
C1018 C1017 1.523 . S
C1019 C1003 1.429 . S
C1019 C1015 1.429 . S
C1019 C1020 1.523 . S
C1020 C1004 1.368 . S
C1020 C1016 1.368 . S
C1020 C1019 1.523 . S
H1021 C996 0.950 . S
H1022 C998 0.950 . S
H1023 C999 0.949 . S
H1024 C1001 0.950 . S
H1025 C1003 0.950 . S
C1026 C1027 1.349 . S
C1026 C1028 1.327 1_554 S
C1026 H1051 0.950 . S
C1027 C1026 1.349 . S
C1027 C1043 1.349 . S
C1028 C1026 1.327 1_556 S
C1028 C1047 1.429 . S
C1028 H1052 0.950 . S
C1029 C1046 1.574 . S
C1029 C1048 1.368 . S
C1029 H1053 0.949 . S
H1030 C1034 0.949 . S
C1031 C1032 1.349 . S
C1031 C1033 1.327 . S
C1031 H1054 0.950 . S
C1032 C1031 1.349 . S
C1032 C1044 1.349 . S
C1033 C1031 1.327 . S
C1033 C1049 1.429 . S
C1033 H1055 0.950 . S
C1034 H1030 0.949 . S
C1034 C1042 1.574 . S
C1034 C1050 1.368 . S
H1035 C1043 0.950 . S
H1036 C1041 0.950 . S
H1037 C1042 0.949 . S
H1038 C1044 0.950 . S
H1039 C1045 0.950 . S
H1040 C1046 0.949 . S
C1041 H1036 0.950 . S
C1041 C1043 1.327 . S
C1041 C1047 1.429 1_554 S
C1042 C1034 1.574 . S
C1042 H1037 0.949 . S
C1042 C1048 1.368 . S
C1043 C1027 1.349 . S
C1043 H1035 0.950 . S
C1043 C1041 1.327 . S
C1044 C1032 1.349 . S
C1044 H1038 0.950 . S
C1044 C1045 1.327 . S
C1045 H1039 0.950 . S
C1045 C1044 1.327 . S
C1045 C1049 1.429 . S
C1046 C1029 1.574 . S
C1046 H1040 0.949 . S
C1046 C1050 1.368 . S
C1047 C1028 1.429 . S
C1047 C1041 1.429 1_556 S
C1047 C1048 1.523 . S
C1048 C1029 1.368 . S
C1048 C1042 1.368 . S
C1048 C1047 1.523 . S
C1049 C1033 1.429 . S
C1049 C1045 1.429 . S
C1049 C1050 1.523 . S
C1050 C1034 1.368 . S
C1050 C1046 1.368 . S
C1050 C1049 1.523 . S
H1051 C1026 0.950 . S
H1052 C1028 0.950 . S
H1053 C1029 0.949 . S
H1054 C1031 0.950 . S
H1055 C1033 0.950 . S
C1056 C1057 1.349 . S
C1056 C1058 1.327 . S
C1056 H1081 0.950 . S
C1057 C1056 1.349 . S
C1057 C1073 1.349 . S
C1058 C1056 1.327 . S
C1058 C1077 1.429 . S
C1058 H1082 0.950 . S
C1059 C1076 1.574 . S
C1059 C1078 1.368 . S
C1059 H1083 0.949 . S
H1060 C1064 0.949 . S
C1061 C1062 1.349 . S
C1061 C1063 1.327 . S
C1061 H1084 0.950 . S
C1062 C1061 1.349 . S
C1062 C1074 1.349 1_455 S
C1063 C1061 1.327 . S
C1063 C1079 1.429 . S
C1063 H1085 0.950 . S
C1064 H1060 0.949 . S
C1064 C1072 1.574 . S
C1064 C1080 1.368 . S
H1065 C1073 0.950 . S
H1066 C1071 0.950 . S
H1067 C1072 0.949 . S
H1068 C1074 0.950 . S
H1069 C1075 0.950 1_655 S
H1070 C1076 0.949 . S
C1071 H1066 0.950 . S
C1071 C1073 1.327 . S
C1071 C1077 1.429 . S
C1072 C1064 1.574 . S
C1072 H1067 0.949 . S
C1072 C1078 1.368 . S
C1073 C1057 1.349 . S
C1073 H1065 0.950 . S
C1073 C1071 1.327 . S
C1074 C1062 1.349 1_655 S
C1074 H1068 0.950 . S
C1074 C1075 1.327 1_655 S
C1075 H1069 0.950 1_455 S
C1075 C1074 1.327 1_455 S
C1075 C1079 1.429 . S
C1076 C1059 1.574 . S
C1076 H1070 0.949 . S
C1076 C1080 1.368 . S
C1077 C1058 1.429 . S
C1077 C1071 1.429 . S
C1077 C1078 1.523 . S
C1078 C1059 1.368 . S
C1078 C1072 1.368 . S
C1078 C1077 1.523 . S
C1079 C1063 1.429 . S
C1079 C1075 1.429 . S
C1079 C1080 1.523 . S
C1080 C1064 1.368 . S
C1080 C1076 1.368 . S
C1080 C1079 1.523 . S
H1081 C1056 0.950 . S
H1082 C1058 0.950 . S
H1083 C1059 0.949 . S
H1084 C1061 0.950 . S
H1085 C1063 0.950 . S
C1086 C1087 1.349 . S
C1086 C1088 1.327 . S
C1086 H1111 0.950 . S
C1087 C1086 1.349 . S
C1087 C1103 1.349 . S
C1088 C1086 1.327 . S
C1088 C1107 1.429 . S
C1088 H1112 0.950 . S
C1089 C1106 1.574 . S
C1089 C1108 1.368 . S
C1089 H1113 0.949 . S
H1090 C1094 0.949 . S
C1091 C1092 1.349 . S
C1091 C1093 1.327 . S
C1091 H1114 0.950 . S
C1092 C1091 1.349 . S
C1092 C1104 1.349 1_545 S
C1093 C1091 1.327 . S
C1093 C1109 1.429 . S
C1093 H1115 0.950 . S
C1094 H1090 0.949 . S
C1094 C1102 1.574 . S
C1094 C1110 1.368 . S
H1095 C1103 0.950 . S
H1096 C1101 0.950 . S
H1097 C1102 0.949 . S
H1098 C1104 0.950 . S
H1099 C1105 0.931 1_565 S
H1100 C1106 0.949 . S
C1101 H1096 0.950 . S
C1101 C1103 1.327 . S
C1101 C1107 1.429 . S
C1102 C1094 1.574 . S
C1102 H1097 0.949 . S
C1102 C1108 1.368 . S
C1103 C1087 1.349 . S
C1103 H1095 0.950 . S
C1103 C1101 1.327 . S
C1104 C1092 1.349 1_565 S
C1104 H1098 0.950 . S
C1104 C1105 1.315 1_565 S
C1105 H1099 0.931 1_545 S
C1105 C1104 1.315 1_545 S
C1105 C1109 1.460 . S
C1106 C1089 1.574 . S
C1106 H1100 0.949 . S
C1106 C1110 1.368 . S
C1107 C1088 1.429 . S
C1107 C1101 1.429 . S
C1107 C1108 1.523 . S
C1108 C1089 1.368 . S
C1108 C1102 1.368 . S
C1108 C1107 1.523 . S
C1109 C1093 1.429 . S
C1109 C1105 1.460 . S
C1109 C1110 1.523 . S
C1110 C1094 1.368 . S
C1110 C1106 1.368 . S
C1110 C1109 1.523 . S
H1111 C1086 0.950 . S
H1112 C1088 0.950 . S
H1113 C1089 0.949 . S
H1114 C1091 0.950 . S
H1115 C1093 0.950 . S
C1116 C1117 1.349 . S
C1116 C1118 1.327 . S
C1116 H1141 0.950 . S
C1117 C1116 1.349 . S
C1117 C1133 1.349 . S
C1118 C1116 1.327 . S
C1118 C1137 1.429 . S
C1118 H1142 0.950 . S
C1119 C1136 1.574 . S
C1119 C1138 1.368 . S
C1119 H1143 0.949 . S
H1120 C1124 0.949 . S
C1121 C1122 1.349 . S
C1121 C1123 1.327 . S
C1121 H1144 0.950 . S
C1122 C1121 1.349 . S
C1122 C1134 1.349 . S
C1123 C1121 1.327 . S
C1123 C1139 1.429 . S
C1123 H1145 0.950 . S
C1124 H1120 0.949 . S
C1124 C1132 1.574 . S
C1124 C1140 1.368 . S
H1125 C1133 0.950 . S
H1126 C1131 0.950 . S
H1127 C1132 0.949 . S
H1128 C1134 0.950 . S
H1129 C1135 0.950 . S
H1130 C1136 0.949 . S
C1131 H1126 0.950 . S
C1131 C1133 1.327 . S
C1131 C1137 1.429 . S
C1132 C1124 1.574 . S
C1132 H1127 0.949 . S
C1132 C1138 1.368 . S
C1133 C1117 1.349 . S
C1133 H1125 0.950 . S
C1133 C1131 1.327 . S
C1134 C1122 1.349 . S
C1134 H1128 0.950 . S
C1134 C1135 1.327 . S
C1135 H1129 0.950 . S
C1135 C1134 1.327 . S
C1135 C1139 1.429 . S
C1136 C1119 1.574 . S
C1136 H1130 0.949 . S
C1136 C1140 1.368 . S
C1137 C1118 1.429 . S
C1137 C1131 1.429 . S
C1137 C1138 1.523 . S
C1138 C1119 1.368 . S
C1138 C1132 1.368 . S
C1138 C1137 1.523 . S
C1139 C1123 1.429 . S
C1139 C1135 1.429 . S
C1139 C1140 1.523 . S
C1140 C1124 1.368 . S
C1140 C1136 1.368 . S
C1140 C1139 1.523 . S
H1141 C1116 0.950 . S
H1142 C1118 0.950 . S
H1143 C1119 0.949 . S
H1144 C1121 0.950 . S
H1145 C1123 0.950 . S
C1146 C1147 1.349 . S
C1146 C1148 1.327 . S
C1146 H1171 0.950 . S
C1147 C1146 1.349 . S
C1147 C1163 1.349 . S
C1148 C1146 1.327 . S
C1148 C1167 1.429 . S
C1148 H1172 0.950 . S
C1149 C1166 1.574 . S
C1149 C1168 1.368 . S
C1149 H1173 0.949 . S
H1150 C1154 0.949 . S
C1151 C1152 1.349 . S
C1151 C1153 1.327 . S
C1151 H1174 0.950 . S
C1152 C1151 1.349 . S
C1152 C1164 1.349 . S
C1153 C1151 1.327 . S
C1153 C1169 1.429 . S
C1153 H1175 0.950 . S
C1154 H1150 0.949 . S
C1154 C1162 1.574 . S
C1154 C1170 1.368 . S
H1155 C1163 0.950 . S
H1156 C1161 0.950 . S
H1157 C1162 0.949 . S
H1158 C1164 0.950 . S
H1159 C1165 0.950 . S
H1160 C1166 0.949 . S
C1161 H1156 0.950 . S
C1161 C1163 1.327 . S
C1161 C1167 1.429 . S
C1162 C1154 1.574 . S
C1162 H1157 0.949 . S
C1162 C1168 1.368 . S
C1163 C1147 1.349 . S
C1163 H1155 0.950 . S
C1163 C1161 1.327 . S
C1164 C1152 1.349 . S
C1164 H1158 0.950 . S
C1164 C1165 1.327 . S
C1165 H1159 0.950 . S
C1165 C1164 1.327 . S
C1165 C1169 1.429 . S
C1166 C1149 1.574 . S
C1166 H1160 0.949 . S
C1166 C1170 1.368 . S
C1167 C1148 1.429 . S
C1167 C1161 1.429 . S
C1167 C1168 1.523 . S
C1168 C1149 1.368 . S
C1168 C1162 1.368 . S
C1168 C1167 1.523 . S
C1169 C1153 1.429 . S
C1169 C1165 1.429 . S
C1169 C1170 1.523 . S
C1170 C1154 1.368 . S
C1170 C1166 1.368 . S
C1170 C1169 1.523 . S
H1171 C1146 0.950 . S
H1172 C1148 0.950 . S
H1173 C1149 0.949 . S
H1174 C1151 0.950 . S
H1175 C1153 0.950 . S
C1176 C1177 1.349 . S
C1176 C1178 1.327 . S
C1176 H1201 0.950 . S
C1177 C1176 1.349 . S
C1177 C1193 1.349 1_554 S
C1178 C1176 1.327 . S
C1178 C1197 1.429 1_554 S
C1178 H1202 0.950 . S
C1179 C1196 1.574 . S
C1179 C1198 1.368 . S
C1179 H1203 0.949 . S
H1180 C1184 0.949 1_455 S
C1181 C1182 1.349 1_655 S
C1181 C1183 1.327 . S
C1181 H1204 0.950 . S
C1182 C1181 1.349 1_455 S
C1182 C1194 1.349 . S
C1183 C1181 1.327 . S
C1183 C1199 1.429 . S
C1183 H1205 0.950 . S
C1184 H1180 0.949 1_655 S
C1184 C1192 1.574 . S
C1184 C1200 1.368 . S
H1185 C1193 0.950 . S
H1186 C1191 0.950 . S
H1187 C1192 0.949 . S
H1188 C1194 0.950 . S
H1189 C1195 0.950 . S
H1190 C1196 0.949 . S
C1191 H1186 0.950 . S
C1191 C1193 1.327 . S
C1191 C1197 1.429 . S
C1192 C1184 1.574 . S
C1192 H1187 0.949 . S
C1192 C1198 1.368 . S
C1193 C1177 1.349 1_556 S
C1193 H1185 0.950 . S
C1193 C1191 1.327 . S
C1194 C1182 1.349 . S
C1194 H1188 0.950 . S
C1194 C1195 1.327 . S
C1195 H1189 0.950 . S
C1195 C1194 1.327 . S
C1195 C1199 1.429 1_455 S
C1196 C1179 1.574 . S
C1196 H1190 0.949 . S
C1196 C1200 1.368 . S
C1197 C1178 1.429 1_556 S
C1197 C1191 1.429 . S
C1197 C1198 1.523 . S
C1198 C1179 1.368 . S
C1198 C1192 1.368 . S
C1198 C1197 1.523 . S
C1199 C1183 1.429 . S
C1199 C1195 1.429 1_655 S
C1199 C1200 1.523 . S
C1200 C1184 1.368 . S
C1200 C1196 1.368 . S
C1200 C1199 1.523 . S
H1201 C1176 0.950 . S
H1202 C1178 0.950 . S
H1203 C1179 0.949 . S
H1204 C1181 0.950 . S
H1205 C1183 0.950 . S
C1206 C1207 1.349 1_556 S
C1206 C1208 1.327 . S
C1206 H1231 0.950 . S
C1207 C1206 1.349 1_554 S
C1207 C1223 1.349 . S
C1208 C1206 1.327 . S
C1208 C1227 1.429 . S
C1208 H1232 0.950 . S
C1209 C1226 1.574 1_565 S
C1209 C1228 1.368 . S
C1209 H1233 0.949 1_565 S
H1210 C1214 0.949 . S
C1211 C1212 1.349 . S
C1211 C1213 1.327 . S
C1211 H1234 0.950 . S
C1212 C1211 1.349 . S
C1212 C1224 1.349 1_545 S
C1213 C1211 1.327 . S
C1213 C1229 1.429 1_545 S
C1213 H1235 0.950 . S
C1214 H1210 0.949 . S
C1214 C1222 1.574 . S
C1214 C1230 1.368 . S
H1215 C1223 0.950 . S
H1216 C1221 0.950 . S
H1217 C1222 0.949 . S
H1218 C1224 0.950 . S
H1219 C1225 0.950 . S
H1220 C1226 0.949 . S
C1221 H1216 0.950 . S
C1221 C1223 1.327 1_556 S
C1221 C1227 1.429 . S
C1222 C1214 1.574 . S
C1222 H1217 0.949 . S
C1222 C1228 1.368 . S
C1223 C1207 1.349 . S
C1223 H1215 0.950 . S
C1223 C1221 1.327 1_554 S
C1224 C1212 1.349 1_565 S
C1224 H1218 0.950 . S
C1224 C1225 1.327 . S
C1225 H1219 0.950 . S
C1225 C1224 1.327 . S
C1225 C1229 1.429 . S
C1226 C1209 1.574 1_545 S
C1226 H1220 0.949 . S
C1226 C1230 1.368 1_545 S
C1227 C1208 1.429 . S
C1227 C1221 1.429 . S
C1227 C1228 1.523 . S
C1228 C1209 1.368 . S
C1228 C1222 1.368 . S
C1228 C1227 1.523 . S
C1229 C1213 1.429 1_565 S
C1229 C1225 1.429 . S
C1229 C1230 1.523 . S
C1230 C1214 1.368 . S
C1230 C1226 1.368 1_565 S
C1230 C1229 1.523 . S
H1231 C1206 0.950 . S
H1232 C1208 0.950 . S
H1233 C1209 0.949 1_545 S
H1234 C1211 0.950 . S
H1235 C1213 0.950 . S
C1236 C1237 1.349 1_556 S
C1236 C1238 1.327 . S
C1236 H1261 0.950 . S
C1237 C1236 1.349 1_554 S
C1237 C1253 1.349 . S
C1238 C1236 1.327 . S
C1238 C1257 1.429 . S
C1238 H1262 0.950 . S
C1239 C1256 1.574 . S
C1239 C1258 1.368 . S
C1239 H1263 0.949 . S
H1240 C1244 0.949 . S
C1241 C1242 1.349 . S
C1241 C1243 1.327 . S
C1241 H1264 0.950 . S
C1242 C1241 1.349 . S
C1242 C1254 1.349 . S
C1243 C1241 1.327 . S
C1243 C1259 1.429 . S
C1243 H1265 0.950 . S
C1244 H1240 0.949 . S
C1244 C1252 1.574 . S
C1244 C1260 1.368 . S
H1245 C1253 0.950 . S
H1246 C1251 0.946 1_554 S
H1247 C1252 0.949 . S
H1248 C1254 0.950 . S
H1249 C1255 0.950 . S
H1250 C1256 0.949 . S
C1251 H1246 0.946 1_556 S
C1251 C1253 1.315 1_556 S
C1251 C1257 1.444 . S
C1252 C1244 1.574 . S
C1252 H1247 0.949 . S
C1252 C1258 1.368 . S
C1253 C1237 1.349 . S
C1253 H1245 0.950 . S
C1253 C1251 1.315 1_554 S
C1254 C1242 1.349 . S
C1254 H1248 0.950 . S
C1254 C1255 1.327 . S
C1255 H1249 0.950 . S
C1255 C1254 1.327 . S
C1255 C1259 1.429 . S
C1256 C1239 1.574 . S
C1256 H1250 0.949 . S
C1256 C1260 1.368 . S
C1257 C1238 1.429 . S
C1257 C1251 1.444 . S
C1257 C1258 1.523 . S
C1258 C1239 1.368 . S
C1258 C1252 1.368 . S
C1258 C1257 1.523 . S
C1259 C1243 1.429 . S
C1259 C1255 1.429 . S
C1259 C1260 1.523 . S
C1260 C1244 1.368 . S
C1260 C1256 1.368 . S
C1260 C1259 1.523 . S
H1261 C1236 0.950 . S
H1262 C1238 0.950 . S
H1263 C1239 0.949 . S
H1264 C1241 0.950 . S
H1265 C1243 0.950 . S
C1266 C1267 1.349 . S
C1266 C1268 1.327 1_554 S
C1266 H1291 0.950 . S
C1267 C1266 1.349 . S
C1267 C1283 1.349 1_554 S
C1268 C1266 1.327 1_556 S
C1268 C1287 1.429 . S
C1268 H1292 0.950 . S
C1269 C1286 1.574 . S
C1269 C1288 1.368 . S
C1269 H1293 0.949 . S
H1270 C1274 0.949 . S
C1271 C1272 1.349 . S
C1271 C1273 1.327 . S
C1271 H1294 0.950 . S
C1272 C1271 1.349 . S
C1272 C1284 1.349 . S
C1273 C1271 1.327 . S
C1273 C1289 1.429 . S
C1273 H1295 0.950 . S
C1274 H1270 0.949 . S
C1274 C1282 1.574 . S
C1274 C1290 1.368 . S
H1275 C1283 0.950 1_554 S
H1276 C1281 0.950 . S
H1277 C1282 0.949 . S
H1278 C1284 0.950 . S
H1279 C1285 0.950 . S
H1280 C1286 0.949 . S
C1281 H1276 0.950 . S
C1281 C1283 1.327 . S
C1281 C1287 1.429 . S
C1282 C1274 1.574 . S
C1282 H1277 0.949 . S
C1282 C1288 1.368 . S
C1283 C1267 1.349 1_556 S
C1283 H1275 0.950 1_556 S
C1283 C1281 1.327 . S
C1284 C1272 1.349 . S
C1284 H1278 0.950 . S
C1284 C1285 1.327 . S
C1285 H1279 0.950 . S
C1285 C1284 1.327 . S
C1285 C1289 1.429 . S
C1286 C1269 1.574 . S
C1286 H1280 0.949 . S
C1286 C1290 1.368 . S
C1287 C1268 1.429 . S
C1287 C1281 1.429 . S
C1287 C1288 1.523 . S
C1288 C1269 1.368 . S
C1288 C1282 1.368 . S
C1288 C1287 1.523 . S
C1289 C1273 1.429 . S
C1289 C1285 1.429 . S
C1289 C1290 1.523 . S
C1290 C1274 1.368 . S
C1290 C1286 1.368 . S
C1290 C1289 1.523 . S
H1291 C1266 0.950 . S
H1292 C1268 0.950 . S
H1293 C1269 0.949 . S
H1294 C1271 0.950 . S
H1295 C1273 0.950 . S
C1296 C1297 1.349 . S
C1296 C1298 1.327 . S
C1296 H1321 0.950 . S
C1297 C1296 1.349 . S
C1297 C1313 1.349 . S
C1298 C1296 1.327 . S
C1298 C1317 1.429 . S
C1298 H1322 0.950 . S
C1299 C1316 1.574 . S
C1299 C1318 1.368 . S
C1299 H1323 0.949 . S
H1300 C1304 0.949 . S
C1301 C1302 1.349 . S
C1301 C1303 1.327 . S
C1301 H1324 0.950 . S
C1302 C1301 1.349 . S
C1302 C1314 1.349 . S
C1303 C1301 1.327 . S
C1303 C1319 1.429 . S
C1303 H1325 0.950 . S
C1304 H1300 0.949 . S
C1304 C1312 1.574 . S
C1304 C1320 1.368 . S
H1305 C1313 0.950 . S
H1306 C1311 0.950 . S
H1307 C1312 0.949 . S
H1308 C1314 0.950 . S
H1309 C1315 0.950 . S
H1310 C1316 0.949 . S
C1311 H1306 0.950 . S
C1311 C1313 1.327 . S
C1311 C1317 1.429 . S
C1312 C1304 1.574 . S
C1312 H1307 0.949 . S
C1312 C1318 1.368 . S
C1313 C1297 1.349 . S
C1313 H1305 0.950 . S
C1313 C1311 1.327 . S
C1314 C1302 1.349 . S
C1314 H1308 0.950 . S
C1314 C1315 1.327 . S
C1315 H1309 0.950 . S
C1315 C1314 1.327 . S
C1315 C1319 1.429 . S
C1316 C1299 1.574 . S
C1316 H1310 0.949 . S
C1316 C1320 1.368 . S
C1317 C1298 1.429 . S
C1317 C1311 1.429 . S
C1317 C1318 1.523 . S
C1318 C1299 1.368 . S
C1318 C1312 1.368 . S
C1318 C1317 1.523 . S
C1319 C1303 1.429 . S
C1319 C1315 1.429 . S
C1319 C1320 1.523 . S
C1320 C1304 1.368 . S
C1320 C1316 1.368 . S
C1320 C1319 1.523 . S
H1321 C1296 0.950 . S
H1322 C1298 0.950 . S
H1323 C1299 0.949 . S
H1324 C1301 0.950 . S
H1325 C1303 0.950 . S
C1326 C1327 1.349 . S
C1326 C1328 1.327 . S
C1326 H1351 0.950 . S
C1327 C1326 1.349 . S
C1327 C1343 1.349 . S
C1328 C1326 1.327 . S
C1328 C1347 1.429 . S
C1328 H1352 0.950 . S
C1329 C1346 1.574 . S
C1329 C1348 1.368 . S
C1329 H1353 0.949 . S
H1330 C1334 0.949 . S
C1331 C1332 1.349 . S
C1331 C1333 1.327 . S
C1331 H1354 0.950 1_545 S
C1332 C1331 1.349 . S
C1332 C1344 1.349 . S
C1333 C1331 1.327 . S
C1333 C1349 1.429 . S
C1333 H1355 0.950 1_545 S
C1334 H1330 0.949 . S
C1334 C1342 1.574 . S
C1334 C1350 1.368 . S
H1335 C1343 0.950 . S
H1336 C1341 0.950 . S
H1337 C1342 0.949 . S
H1338 C1344 0.950 . S
H1339 C1345 0.950 . S
H1340 C1346 0.949 . S
C1341 H1336 0.950 . S
C1341 C1343 1.327 . S
C1341 C1347 1.429 . S
C1342 C1334 1.574 . S
C1342 H1337 0.949 . S
C1342 C1348 1.368 . S
C1343 C1327 1.349 . S
C1343 H1335 0.950 . S
C1343 C1341 1.327 . S
C1344 C1332 1.349 . S
C1344 H1338 0.950 . S
C1344 C1345 1.327 . S
C1345 H1339 0.950 . S
C1345 C1344 1.327 . S
C1345 C1349 1.429 . S
C1346 C1329 1.574 . S
C1346 H1340 0.949 . S
C1346 C1350 1.368 . S
C1347 C1328 1.429 . S
C1347 C1341 1.429 . S
C1347 C1348 1.523 . S
C1348 C1329 1.368 . S
C1348 C1342 1.368 . S
C1348 C1347 1.523 . S
C1349 C1333 1.429 . S
C1349 C1345 1.429 . S
C1349 C1350 1.523 . S
C1350 C1334 1.368 . S
C1350 C1346 1.368 . S
C1350 C1349 1.523 . S
H1351 C1326 0.950 . S
H1352 C1328 0.950 . S
H1353 C1329 0.949 . S
H1354 C1331 0.950 1_565 S
H1355 C1333 0.950 1_565 S
C1356 C1357 1.349 . S
C1356 C1358 1.327 . S
C1356 H1381 0.950 . S
C1357 C1356 1.349 . S
C1357 C1373 1.349 . S
C1358 C1356 1.327 . S
C1358 C1377 1.429 . S
C1358 H1382 0.950 . S
C1359 C1376 1.574 . S
C1359 C1378 1.368 . S
C1359 H1383 0.949 . S
H1360 C1364 0.949 . S
C1361 C1362 1.349 . S
C1361 C1363 1.327 . S
C1361 H1384 0.950 . S
C1362 C1361 1.349 . S
C1362 C1374 1.349 . S
C1363 C1361 1.327 . S
C1363 C1379 1.429 . S
C1363 H1385 0.950 . S
C1364 H1360 0.949 . S
C1364 C1372 1.574 . S
C1364 C1380 1.368 . S
H1365 C1373 0.950 . S
H1366 C1371 0.950 . S
H1367 C1372 0.949 . S
H1368 C1374 0.950 . S
H1369 C1375 0.950 . S
H1370 C1376 0.949 . S
C1371 H1366 0.950 . S
C1371 C1373 1.327 . S
C1371 C1377 1.429 . S
C1372 C1364 1.574 . S
C1372 H1367 0.949 . S
C1372 C1378 1.368 . S
C1373 C1357 1.349 . S
C1373 H1365 0.950 . S
C1373 C1371 1.327 . S
C1374 C1362 1.349 . S
C1374 H1368 0.950 . S
C1374 C1375 1.327 . S
C1375 H1369 0.950 . S
C1375 C1374 1.327 . S
C1375 C1379 1.429 . S
C1376 C1359 1.574 . S
C1376 H1370 0.949 . S
C1376 C1380 1.368 . S
C1377 C1358 1.429 . S
C1377 C1371 1.429 . S
C1377 C1378 1.523 . S
C1378 C1359 1.368 . S
C1378 C1372 1.368 . S
C1378 C1377 1.523 . S
C1379 C1363 1.429 . S
C1379 C1375 1.429 . S
C1379 C1380 1.523 . S
C1380 C1364 1.368 . S
C1380 C1376 1.368 . S
C1380 C1379 1.523 . S
H1381 C1356 0.950 . S
H1382 C1358 0.950 . S
H1383 C1359 0.949 . S
H1384 C1361 0.950 . S
H1385 C1363 0.950 . S
C1386 C1387 1.349 . S
C1386 C1388 1.327 . S
C1386 H1411 0.950 . S
C1387 C1386 1.349 . S
C1387 C1403 1.349 . S
C1388 C1386 1.327 . S
C1388 C1407 1.429 . S
C1388 H1412 0.950 . S
C1389 C1406 1.574 . S
C1389 C1408 1.368 . S
C1389 H1413 0.949 . S
H1390 C1394 0.949 . S
C1391 C1392 1.349 . S
C1391 C1393 1.327 . S
C1391 H1414 0.950 . S
C1392 C1391 1.349 . S
C1392 C1404 1.349 . S
C1393 C1391 1.327 . S
C1393 C1409 1.429 . S
C1393 H1415 0.950 . S
C1394 H1390 0.949 . S
C1394 C1402 1.574 . S
C1394 C1410 1.368 . S
H1395 C1403 0.950 . S
H1396 C1401 0.950 . S
H1397 C1402 0.949 . S
H1398 C1404 0.950 . S
H1399 C1405 0.950 . S
H1400 C1406 0.949 . S
C1401 H1396 0.950 . S
C1401 C1403 1.327 . S
C1401 C1407 1.429 . S
C1402 C1394 1.574 . S
C1402 H1397 0.949 . S
C1402 C1408 1.368 . S
C1403 C1387 1.349 . S
C1403 H1395 0.950 . S
C1403 C1401 1.327 . S
C1404 C1392 1.349 . S
C1404 H1398 0.950 . S
C1404 C1405 1.327 . S
C1405 H1399 0.950 . S
C1405 C1404 1.327 . S
C1405 C1409 1.429 . S
C1406 C1389 1.574 . S
C1406 H1400 0.949 . S
C1406 C1410 1.368 . S
C1407 C1388 1.429 . S
C1407 C1401 1.429 . S
C1407 C1408 1.523 . S
C1408 C1389 1.368 . S
C1408 C1402 1.368 . S
C1408 C1407 1.523 . S
C1409 C1393 1.429 . S
C1409 C1405 1.429 . S
C1409 C1410 1.523 . S
C1410 C1394 1.368 . S
C1410 C1406 1.368 . S
C1410 C1409 1.523 . S
H1411 C1386 0.950 . S
H1412 C1388 0.950 . S
H1413 C1389 0.949 . S
H1414 C1391 0.950 . S
H1415 C1393 0.950 . S
C1416 C1417 1.349 . S
C1416 C1418 1.327 . S
C1416 H1441 0.950 . S
C1417 C1416 1.349 . S
C1417 C1433 1.349 . S
C1418 C1416 1.327 . S
C1418 C1437 1.429 . S
C1418 H1442 0.950 . S
C1419 C1436 1.574 . S
C1419 C1438 1.368 . S
C1419 H1443 0.949 . S
H1420 C1424 0.949 . S
C1421 C1422 1.349 . S
C1421 C1423 1.327 . S
C1421 H1444 0.950 1_655 S
C1422 C1421 1.349 . S
C1422 C1434 1.349 . S
C1423 C1421 1.327 . S
C1423 C1439 1.429 . S
C1423 H1445 0.970 . S
C1424 H1420 0.949 . S
C1424 C1432 1.574 . S
C1424 C1440 1.368 . S
H1425 C1433 0.950 . S
H1426 C1431 0.950 . S
H1427 C1432 0.949 . S
H1428 C1434 0.950 . S
H1429 C1435 0.950 . S
H1430 C1436 0.949 . S
C1431 H1426 0.950 . S
C1431 C1433 1.327 . S
C1431 C1437 1.429 . S
C1432 C1424 1.574 . S
C1432 H1427 0.949 . S
C1432 C1438 1.368 . S
C1433 C1417 1.349 . S
C1433 H1425 0.950 . S
C1433 C1431 1.327 . S
C1434 C1422 1.349 . S
C1434 H1428 0.950 . S
C1434 C1435 1.327 . S
C1435 H1429 0.950 . S
C1435 C1434 1.327 . S
C1435 C1439 1.429 . S
C1436 C1419 1.574 . S
C1436 H1430 0.949 . S
C1436 C1440 1.368 . S
C1437 C1418 1.429 . S
C1437 C1431 1.429 . S
C1437 C1438 1.523 . S
C1438 C1419 1.368 . S
C1438 C1432 1.368 . S
C1438 C1437 1.523 . S
C1439 C1423 1.429 . S
C1439 C1435 1.429 . S
C1439 C1440 1.523 . S
C1440 C1424 1.368 . S
C1440 C1436 1.368 . S
C1440 C1439 1.523 . S
H1441 C1416 0.950 . S
H1442 C1418 0.950 . S
H1443 C1419 0.949 . S
H1444 C1421 0.950 1_455 S
H1445 C1423 0.970 . S
C1446 C1447 1.349 . S
C1446 C1448 1.327 . S
C1446 H1471 0.950 . S
C1447 C1446 1.349 . S
C1447 C1463 1.349 . S
C1448 C1446 1.327 . S
C1448 C1467 1.429 . S
C1448 H1472 0.950 . S
C1449 C1466 1.574 . S
C1449 C1468 1.368 . S
C1449 H1473 0.949 . S
H1450 C1454 0.949 . S
C1451 C1452 1.349 . S
C1451 C1453 1.327 . S
C1451 H1474 0.972 . S
C1452 C1451 1.349 . S
C1452 C1464 1.349 . S
C1453 C1451 1.327 . S
C1453 C1469 1.429 . S
C1453 H1475 0.950 . S
C1454 H1450 0.949 . S
C1454 C1462 1.574 . S
C1454 C1470 1.368 . S
H1455 C1463 0.950 . S
H1456 C1461 0.950 . S
H1457 C1462 0.949 . S
H1458 C1464 0.950 . S
H1459 C1465 0.950 . S
H1460 C1466 0.949 . S
C1461 H1456 0.950 . S
C1461 C1463 1.327 . S
C1461 C1467 1.429 . S
C1462 C1454 1.574 . S
C1462 H1457 0.949 . S
C1462 C1468 1.368 . S
C1463 C1447 1.349 . S
C1463 H1455 0.950 . S
C1463 C1461 1.327 . S
C1464 C1452 1.349 . S
C1464 H1458 0.950 . S
C1464 C1465 1.327 . S
C1465 H1459 0.950 . S
C1465 C1464 1.327 . S
C1465 C1469 1.429 . S
C1466 C1449 1.574 . S
C1466 H1460 0.949 . S
C1466 C1470 1.368 . S
C1467 C1448 1.429 . S
C1467 C1461 1.429 . S
C1467 C1468 1.523 . S
C1468 C1449 1.368 . S
C1468 C1462 1.368 . S
C1468 C1467 1.523 . S
C1469 C1453 1.429 . S
C1469 C1465 1.429 . S
C1469 C1470 1.523 . S
C1470 C1454 1.368 . S
C1470 C1466 1.368 . S
C1470 C1469 1.523 . S
H1471 C1446 0.950 . S
H1472 C1448 0.950 . S
H1473 C1449 0.949 . S
H1474 C1451 0.972 . S
H1475 C1453 0.950 . S
C1476 C1477 1.349 . S
C1476 C1478 1.327 . S
C1476 H1501 0.950 . S
C1477 C1476 1.349 . S
C1477 C1493 1.349 . S
C1478 C1476 1.327 . S
C1478 C1497 1.429 . S
C1478 H1502 0.950 . S
C1479 C1496 1.574 . S
C1479 C1498 1.368 . S
C1479 H1503 0.949 . S
H1480 C1484 0.949 . S
C1481 C1482 1.349 . S
C1481 C1483 1.327 . S
C1481 H1504 0.950 . S
C1482 C1481 1.349 . S
C1482 C1494 1.349 . S
C1483 C1481 1.327 . S
C1483 C1499 1.429 . S
C1483 H1505 0.950 . S
C1484 H1480 0.949 . S
C1484 C1492 1.574 . S
C1484 C1500 1.368 . S
H1485 C1493 0.950 . S
H1486 C1491 0.950 . S
H1487 C1492 0.949 . S
H1488 C1494 0.950 . S
H1489 C1495 0.950 . S
H1490 C1496 0.949 . S
C1491 H1486 0.950 . S
C1491 C1493 1.327 . S
C1491 C1497 1.429 . S
C1492 C1484 1.574 . S
C1492 H1487 0.949 . S
C1492 C1498 1.368 . S
C1493 C1477 1.349 . S
C1493 H1485 0.950 . S
C1493 C1491 1.327 . S
C1494 C1482 1.349 . S
C1494 H1488 0.950 . S
C1494 C1495 1.327 . S
C1495 H1489 0.950 . S
C1495 C1494 1.327 . S
C1495 C1499 1.429 . S
C1496 C1479 1.574 . S
C1496 H1490 0.949 . S
C1496 C1500 1.368 . S
C1497 C1478 1.429 . S
C1497 C1491 1.429 . S
C1497 C1498 1.523 . S
C1498 C1479 1.368 . S
C1498 C1492 1.368 . S
C1498 C1497 1.523 . S
C1499 C1483 1.429 . S
C1499 C1495 1.429 . S
C1499 C1500 1.523 . S
C1500 C1484 1.368 . S
C1500 C1496 1.368 . S
C1500 C1499 1.523 . S
H1501 C1476 0.950 . S
H1502 C1478 0.950 . S
H1503 C1479 0.949 . S
H1504 C1481 0.950 . S
H1505 C1483 0.950 . S
C1506 C1507 1.349 . S
C1506 C1508 1.327 . S
C1506 H1531 0.950 . S
C1507 C1506 1.349 . S
C1507 C1523 1.349 . S
C1508 C1506 1.327 . S
C1508 C1527 1.429 . S
C1508 H1532 0.950 . S
C1509 C1526 1.574 . S
C1509 C1528 1.368 . S
C1509 H1533 0.949 . S
H1510 C1514 0.949 . S
C1511 C1512 1.349 . S
C1511 C1513 1.327 . S
C1511 H1534 0.950 . S
C1512 C1511 1.349 . S
C1512 C1524 1.349 . S
C1513 C1511 1.327 . S
C1513 C1529 1.429 . S
C1513 H1535 0.950 . S
C1514 H1510 0.949 . S
C1514 C1522 1.574 . S
C1514 C1530 1.368 . S
H1515 C1523 0.950 . S
H1516 C1521 0.950 . S
H1517 C1522 0.949 . S
H1518 C1524 0.950 . S
H1519 C1525 0.950 . S
H1520 C1526 0.949 . S
C1521 H1516 0.950 . S
C1521 C1523 1.327 . S
C1521 C1527 1.429 . S
C1522 C1514 1.574 . S
C1522 H1517 0.949 . S
C1522 C1528 1.368 . S
C1523 C1507 1.349 . S
C1523 H1515 0.950 . S
C1523 C1521 1.327 . S
C1524 C1512 1.349 . S
C1524 H1518 0.950 . S
C1524 C1525 1.327 . S
C1525 H1519 0.950 . S
C1525 C1524 1.327 . S
C1525 C1529 1.429 . S
C1526 C1509 1.574 . S
C1526 H1520 0.949 . S
C1526 C1530 1.368 . S
C1527 C1508 1.429 . S
C1527 C1521 1.429 . S
C1527 C1528 1.523 . S
C1528 C1509 1.368 . S
C1528 C1522 1.368 . S
C1528 C1527 1.523 . S
C1529 C1513 1.429 . S
C1529 C1525 1.429 . S
C1529 C1530 1.523 . S
C1530 C1514 1.368 . S
C1530 C1526 1.368 . S
C1530 C1529 1.523 . S
H1531 C1506 0.950 . S
H1532 C1508 0.950 . S
H1533 C1509 0.949 . S
H1534 C1511 0.950 . S
H1535 C1513 0.950 . S
C817 C391 2.179 . S
C822 C543 2.194 . S
C852 C620 2.209 . S
C847 C451 2.190 . S
C882 C711 2.187 . S
C877 C241 1.911 . S
C912 C795 2.174 . S
C907 C331 1.900 . S
C942 C554 2.194 1_565 S
C937 C121 1.958 . S
C967 C211 2.155 . S
C972 C631 2.210 . S
C997 C31 2.137 . S
C1002 C722 2.187 . S
C1027 C91 1.938 . S
C1032 C806 2.173 1_655 S
C1062 C538 0.426 1_455 S
C1057 C301 0.483 . S
C1092 C633 0.524 . S
C1087 C380 0.212 . S
C1122 C706 0.424 . S
C1117 C440 0.253 . S
C1147 C260 0.481 . S
C1152 C790 0.421 . S
C1177 C61 0.385 . S
C1182 C549 0.426 . S
C1212 C622 0.524 . S
C1207 C140 0.376 . S
C1242 C717 0.423 . S
C1237 C200 0.389 . S
C1267 C20 0.374 . S
C1272 C801 0.421 . S
C1297 C320 2.521 . S
C1302 C547 2.657 . S
C1327 C361 2.241 . S
C1332 C638 2.675 . S
C1362 C715 2.679 . S
C1357 C421 2.264 . S
C1392 C799 2.681 . S
C1387 C271 2.545 . S
C1417 C80 2.552 . S
C1422 C536 2.658 . S
C1452 C627 2.675 . S
C1447 C151 2.549 . S
C1482 C704 2.679 . S
C1477 C181 2.227 . S
C1507 C1 2.233 . S
C1512 C788 2.682 . S
