# Generated by pormake.
# Topology pto, (3,4)-cn, num edge types: 1
# Building blocks:
#     Node 0, Type 0, BuildingBlock: MIDCAF_clean_linker_0, # of connection points: 3
#     Node 1, Type 0, BuildingBlock: MIDCAF_clean_linker_0, # of connection points: 3
#     Node 2, Type 0, BuildingBlock: MIDCAF_clean_linker_0, # of connection points: 3
#     Node 3, Type 0, BuildingBlock: MIDCAF_clean_linker_0, # of connection points: 3
#     Node 4, Type 0, BuildingBlock: MIDCAF_clean_linker_0, # of connection points: 3
#     Node 5, Type 0, BuildingBlock: MIDCAF_clean_linker_0, # of connection points: 3
#     Node 6, Type 0, BuildingBlock: MIDCAF_clean_linker_0, # of connection points: 3
#     Node 7, Type 0, BuildingBlock: MIDCAF_clean_linker_0, # of connection points: 3
#     Node 8, Type 1, BuildingBlock: KOZSID_clean_sbu_0, # of connection points: 4
#     Node 9, Type 1, BuildingBlock: KOZSID_clean_sbu_0, # of connection points: 4
#     Node 10, Type 1, BuildingBlock: KOZSID_clean_sbu_0, # of connection points: 4
#     Node 11, Type 1, BuildingBlock: KOZSID_clean_sbu_0, # of connection points: 4
#     Node 12, Type 1, BuildingBlock: KOZSID_clean_sbu_0, # of connection points: 4
#     Node 13, Type 1, BuildingBlock: KOZSID_clean_sbu_0, # of connection points: 4
#     Edge 14, Type (0, 1), BuildingBlock: AJUNOK_clean_linker_0, # of connection points: 2
#     Edge 15, Type (0, 1), BuildingBlock: AJUNOK_clean_linker_0, # of connection points: 2
#     Edge 16, Type (0, 1), BuildingBlock: AJUNOK_clean_linker_0, # of connection points: 2
#     Edge 17, Type (0, 1), BuildingBlock: AJUNOK_clean_linker_0, # of connection points: 2
#     Edge 18, Type (0, 1), BuildingBlock: AJUNOK_clean_linker_0, # of connection points: 2
#     Edge 19, Type (0, 1), BuildingBlock: AJUNOK_clean_linker_0, # of connection points: 2
#     Edge 20, Type (0, 1), BuildingBlock: AJUNOK_clean_linker_0, # of connection points: 2
#     Edge 21, Type (0, 1), BuildingBlock: AJUNOK_clean_linker_0, # of connection points: 2
#     Edge 22, Type (0, 1), BuildingBlock: AJUNOK_clean_linker_0, # of connection points: 2
#     Edge 23, Type (0, 1), BuildingBlock: AJUNOK_clean_linker_0, # of connection points: 2
#     Edge 24, Type (0, 1), BuildingBlock: AJUNOK_clean_linker_0, # of connection points: 2
#     Edge 25, Type (0, 1), BuildingBlock: AJUNOK_clean_linker_0, # of connection points: 2
#     Edge 26, Type (0, 1), BuildingBlock: AJUNOK_clean_linker_0, # of connection points: 2
#     Edge 27, Type (0, 1), BuildingBlock: AJUNOK_clean_linker_0, # of connection points: 2
#     Edge 28, Type (0, 1), BuildingBlock: AJUNOK_clean_linker_0, # of connection points: 2
#     Edge 29, Type (0, 1), BuildingBlock: AJUNOK_clean_linker_0, # of connection points: 2
#     Edge 30, Type (0, 1), BuildingBlock: AJUNOK_clean_linker_0, # of connection points: 2
#     Edge 31, Type (0, 1), BuildingBlock: AJUNOK_clean_linker_0, # of connection points: 2
#     Edge 32, Type (0, 1), BuildingBlock: AJUNOK_clean_linker_0, # of connection points: 2
#     Edge 33, Type (0, 1), BuildingBlock: AJUNOK_clean_linker_0, # of connection points: 2
#     Edge 34, Type (0, 1), BuildingBlock: AJUNOK_clean_linker_0, # of connection points: 2
#     Edge 35, Type (0, 1), BuildingBlock: AJUNOK_clean_linker_0, # of connection points: 2
#     Edge 36, Type (0, 1), BuildingBlock: AJUNOK_clean_linker_0, # of connection points: 2
#     Edge 37, Type (0, 1), BuildingBlock: AJUNOK_clean_linker_0, # of connection points: 2
# Relax obj value: 0.000
# Max RMSD: 0.028
# Mean RMSD: 0.012
data_MOF--net-pto--node1-KOZSID_clean_sbu_0--node2-MIDCAF_clean_linker_0--edge1-AJUNOK_clean_linker_0
_symmetry_space_group_name_H-M    P1
_symmetry_Int_Tables_number       1
_symmetry_cell_setting            triclinic
loop_
_symmetry_equiv_pos_as_xyz
'x, y, z'
_cell_length_a     37.180868
_cell_length_b     50.053482
_cell_length_c     43.73387
_cell_angle_alpha  86.969639
_cell_angle_beta   86.844079
_cell_angle_gamma 93.437887
loop_
_atom_site_label
_atom_site_type_symbol
_atom_site_fract_x
_atom_site_fract_y
_atom_site_fract_z
_atom_type_partial_charge
C0 C 0.35032 0.23336 0.22106 0.0
C1 C 0.36437 0.25743 0.20589 0.0
C2 C 0.35587 0.2819 0.21778 0.0
C3 C 0.33307 0.28232 0.24424 0.0
H4 H 0.24096 0.32104 0.27524 0.0
H5 H 0.20362 0.35897 0.28141 0.0
H6 H 0.1768 0.33242 0.37577 0.0
H7 H 0.21411 0.29408 0.3698 0.0
H8 H 0.22453 0.23001 0.38661 0.0
H9 H 0.21741 0.19026 0.42194 0.0
H10 H 0.29729 0.15213 0.367 0.0
H11 H 0.30417 0.19136 0.33147 0.0
H12 H 0.31758 0.21485 0.25912 0.0
H13 H 0.35672 0.21428 0.21222 0.0
H14 H 0.36651 0.30068 0.20634 0.0
H15 H 0.32674 0.30151 0.25278 0.0
N16 N 0.27534 0.28038 0.29247 0.0
N17 N 0.2493 0.25947 0.33839 0.0
N18 N 0.291 0.23737 0.30817 0.0
C19 C 0.2525 0.28093 0.31775 0.0
C20 C 0.26855 0.23759 0.33376 0.0
C21 C 0.29467 0.25872 0.28752 0.0
C22 C 0.23049 0.30438 0.32201 0.0
C23 C 0.22725 0.32319 0.29738 0.0
C24 C 0.2057 0.34486 0.3008 0.0
C25 C 0.18715 0.34839 0.32895 0.0
C26 C 0.19084 0.33003 0.35381 0.0
C27 C 0.21209 0.30808 0.35032 0.0
C28 C 0.26471 0.2139 0.35595 0.0
C29 C 0.24057 0.21316 0.38199 0.0
C30 C 0.23652 0.19045 0.4023 0.0
C31 C 0.25636 0.16797 0.39692 0.0
C32 C 0.28099 0.16891 0.37132 0.0
C33 C 0.28506 0.19153 0.35105 0.0
C34 C 0.31901 0.25824 0.25962 0.0
C35 C 0.3281 0.23374 0.24788 0.0
C36 C 0.19849 0.6819 0.74665 0.0
C37 C 0.175 0.68053 0.72266 0.0
C38 C 0.17074 0.70385 0.70418 0.0
C39 C 0.18996 0.72799 0.70942 0.0
H40 H 0.20258 0.81054 0.68271 0.0
H41 H 0.19798 0.85214 0.65169 0.0
H42 H 0.28504 0.88963 0.69865 0.0
H43 H 0.2892 0.84857 0.73011 0.0
H44 H 0.31162 0.82156 0.79189 0.0
H45 H 0.3504 0.82194 0.8351 0.0
H46 H 0.33213 0.73614 0.84925 0.0
H47 H 0.29352 0.73547 0.80593 0.0
H48 H 0.23537 0.70606 0.77072 0.0
H49 H 0.20164 0.66446 0.76177 0.0
H50 H 0.15268 0.70336 0.68558 0.0
H51 H 0.18614 0.74557 0.69472 0.0
N52 N 0.23061 0.77776 0.72207 0.0
N53 N 0.27157 0.80091 0.75177 0.0
N54 N 0.25642 0.75529 0.76308 0.0
C55 C 0.24941 0.80094 0.72806 0.0
C56 C 0.27524 0.77821 0.76939 0.0
C57 C 0.23404 0.75479 0.73954 0.0
C58 C 0.24617 0.82612 0.70906 0.0
C59 C 0.22062 0.82768 0.68657 0.0
C60 C 0.21798 0.85151 0.66877 0.0
C61 C 0.24079 0.8743 0.67303 0.0
C62 C 0.2664 0.87269 0.69538 0.0
C63 C 0.26895 0.84898 0.71325 0.0
C64 C 0.29924 0.77849 0.79542 0.0
C65 C 0.31579 0.80272 0.80414 0.0
C66 C 0.33785 0.80302 0.82901 0.0
C67 C 0.3439 0.77911 0.84566 0.0
C68 C 0.32787 0.75485 0.83676 0.0
C69 C 0.30566 0.75453 0.812 0.0
C70 C 0.21366 0.72932 0.7334 0.0
C71 C 0.21762 0.70592 0.7519 0.0
C72 C 0.70421 0.75117 0.2264 0.0
C73 C 0.69046 0.77536 0.21619 0.0
C74 C 0.69807 0.79858 0.23194 0.0
C75 C 0.71937 0.79767 0.25732 0.0
H76 H 0.73301 0.8306 0.34507 0.0
H77 H 0.73709 0.86818 0.37818 0.0
H78 H 0.8416 0.84504 0.40456 0.0
H79 H 0.83672 0.80665 0.37261 0.0
H80 H 0.837 0.73634 0.37283 0.0
H81 H 0.8702 0.69613 0.38153 0.0
H82 H 0.84283 0.66984 0.29281 0.0
H83 H 0.80898 0.70929 0.2844 0.0
H84 H 0.73619 0.73133 0.25864 0.0
H85 H 0.69869 0.733 0.21461 0.0
H86 H 0.68735 0.8174 0.22471 0.0
H87 H 0.72489 0.81596 0.26886 0.0
N88 N 0.75985 0.79338 0.31232 0.0
N89 N 0.8014 0.77089 0.34119 0.0
N90 N 0.77686 0.75103 0.29898 0.0
C91 C 0.78184 0.79268 0.33615 0.0
C92 C 0.79896 0.74994 0.32267 0.0
C93 C 0.75726 0.77263 0.29359 0.0
C94 C 0.78446 0.81553 0.35631 0.0
C95 C 0.7568 0.83343 0.35806 0.0
C96 C 0.75918 0.85505 0.37697 0.0
C97 C 0.78948 0.85951 0.39432 0.0
C98 C 0.81738 0.84178 0.39225 0.0
C99 C 0.81472 0.81987 0.37373 0.0
C100 C 0.82 0.726 0.32802 0.0
C101 C 0.83796 0.72194 0.35522 0.0
C102 C 0.85701 0.69894 0.36022 0.0
C103 C 0.85852 0.67957 0.33812 0.0
C104 C 0.84122 0.68394 0.31071 0.0
C105 C 0.82202 0.70674 0.30581 0.0
C106 C 0.73372 0.77355 0.26729 0.0
C107 C 0.72579 0.7503 0.25155 0.0
C108 C 0.8209 0.20833 0.68159 0.0
C109 C 0.79265 0.18832 0.68278 0.0
C110 C 0.76213 0.19066 0.70257 0.0
C111 C 0.76014 0.21239 0.72128 0.0
H112 H 0.7138 0.23188 0.80513 0.0
H113 H 0.67419 0.22824 0.85183 0.0
H114 H 0.71202 0.30779 0.87361 0.0
H115 H 0.75194 0.3115 0.82739 0.0
H116 H 0.80636 0.34482 0.78429 0.0
H117 H 0.8435 0.38618 0.77344 0.0
H118 H 0.89368 0.35299 0.69386 0.0
H119 H 0.85677 0.31111 0.70482 0.0
H120 H 0.84096 0.24539 0.69859 0.0
H121 H 0.84457 0.20705 0.66628 0.0
H122 H 0.74002 0.17545 0.70386 0.0
H123 H 0.73632 0.21348 0.73646 0.0
N124 N 0.76307 0.25352 0.76562 0.0
N125 N 0.78241 0.29689 0.77762 0.0
N126 N 0.80765 0.27826 0.73394 0.0
C127 C 0.76105 0.27417 0.78446 0.0
C128 C 0.80571 0.2992 0.75245 0.0
C129 C 0.78631 0.25536 0.74035 0.0
C130 C 0.73631 0.27194 0.81246 0.0
C131 C 0.7138 0.24861 0.81986 0.0
C132 C 0.69103 0.2465 0.84657 0.0
C133 C 0.69043 0.26757 0.86653 0.0
C134 C 0.71253 0.29099 0.859 0.0
C135 C 0.73522 0.29314 0.83233 0.0
C136 C 0.82853 0.32445 0.7455 0.0
C137 C 0.82529 0.34614 0.76446 0.0
C138 C 0.84647 0.36998 0.7582 0.0
C139 C 0.87158 0.37278 0.7329 0.0
C140 C 0.8749 0.35124 0.7138 0.0
C141 C 0.85359 0.3273 0.72002 0.0
C142 C 0.78839 0.23249 0.72021 0.0
C143 C 0.8187 0.23032 0.69996 0.0
C144 C 0.67973 0.80122 0.83614 0.0
C145 C 0.6775 0.77935 0.85778 0.0
C146 C 0.69877 0.75761 0.85253 0.0
C147 C 0.72167 0.75764 0.82608 0.0
H148 H 0.80269 0.71731 0.787 0.0
H149 H 0.84032 0.67971 0.77986 0.0
H150 H 0.86891 0.70899 0.68666 0.0
H151 H 0.83123 0.74701 0.6936 0.0
H152 H 0.81605 0.80993 0.67639 0.0
H153 H 0.82284 0.85043 0.64226 0.0
H154 H 0.74829 0.88901 0.702 0.0
H155 H 0.74164 0.84894 0.73628 0.0
H156 H 0.70376 0.81856 0.79357 0.0
H157 H 0.66413 0.81847 0.83988 0.0
H158 H 0.69751 0.74047 0.86884 0.0
H159 H 0.73763 0.74051 0.82281 0.0
N160 N 0.76878 0.75851 0.77111 0.0
N161 N 0.79446 0.78034 0.72556 0.0
N162 N 0.75183 0.8013 0.75607 0.0
C163 C 0.79167 0.75857 0.74577 0.0
C164 C 0.77462 0.80185 0.73061 0.0
C165 C 0.74867 0.77973 0.77641 0.0
C166 C 0.814 0.73535 0.74091 0.0
C167 C 0.81684 0.71585 0.7649 0.0
C168 C 0.83854 0.69434 0.76093 0.0
C169 C 0.85771 0.69166 0.73283 0.0
C170 C 0.85438 0.71069 0.70856 0.0
C171 C 0.83294 0.73247 0.71262 0.0
C172 C 0.77828 0.82605 0.70918 0.0
C173 C 0.80099 0.82699 0.68224 0.0
C174 C 0.80476 0.85012 0.66258 0.0
C175 C 0.78596 0.8728 0.66943 0.0
C176 C 0.76327 0.87187 0.69624 0.0
C177 C 0.75938 0.84879 0.71582 0.0
C178 C 0.72397 0.77952 0.80432 0.0
C179 C 0.70266 0.8013 0.80969 0.0
C180 C 0.82135 0.19438 0.40132 0.0
C181 C 0.80074 0.17083 0.3959 0.0
C182 C 0.77807 0.17103 0.37126 0.0
C183 C 0.77621 0.19421 0.35229 0.0
H184 H 0.73191 0.22165 0.27414 0.0
H185 H 0.69269 0.22098 0.23136 0.0
H186 H 0.71214 0.30661 0.21558 0.0
H187 H 0.75218 0.30737 0.25793 0.0
H188 H 0.80685 0.33828 0.29737 0.0
H189 H 0.84286 0.3792 0.30583 0.0
H190 H 0.90079 0.33636 0.37362 0.0
H191 H 0.865 0.29512 0.36515 0.0
H192 H 0.83583 0.23537 0.38719 0.0
H193 H 0.83906 0.19478 0.42017 0.0
H194 H 0.76126 0.15336 0.36693 0.0
H195 H 0.75829 0.19358 0.33361 0.0
N196 N 0.77229 0.24248 0.31387 0.0
N197 N 0.78908 0.28774 0.30125 0.0
N198 N 0.81402 0.26552 0.34286 0.0
C199 C 0.76943 0.26496 0.29557 0.0
C200 C 0.81149 0.28822 0.32479 0.0
C201 C 0.79443 0.24255 0.33759 0.0
C202 C 0.74521 0.26459 0.26965 0.0
C203 C 0.72782 0.2404 0.26169 0.0
C204 C 0.7051 0.24001 0.23726 0.0
C205 C 0.69893 0.2638 0.22037 0.0
C206 C 0.71644 0.28795 0.22815 0.0
C207 C 0.73931 0.28835 0.2525 0.0
C208 C 0.83304 0.31326 0.33047 0.0
C209 C 0.82724 0.33744 0.31409 0.0
C210 C 0.84774 0.36097 0.31901 0.0
C211 C 0.87473 0.3609 0.34023 0.0
C212 C 0.88047 0.33688 0.35682 0.0
C213 C 0.85979 0.31331 0.35205 0.0
C214 C 0.79688 0.21784 0.35759 0.0
C215 C 0.81953 0.21761 0.38234 0.0
C216 C 0.2578 0.17459 0.7034 0.0
C217 C 0.25197 0.1786 0.67202 0.0
C218 C 0.24941 0.205 0.65987 0.0
C219 C 0.25167 0.22669 0.67877 0.0
H220 H 0.21192 0.30439 0.69023 0.0
H221 H 0.17742 0.34408 0.68179 0.0
H222 H 0.19935 0.36846 0.77239 0.0
H223 H 0.23377 0.32918 0.78099 0.0
H224 H 0.3022 0.30503 0.8109 0.0
H225 H 0.33916 0.30285 0.85503 0.0
H226 H 0.35054 0.21854 0.84386 0.0
H227 H 0.31428 0.22074 0.799 0.0
H228 H 0.26527 0.19246 0.7462 0.0
H229 H 0.25969 0.15457 0.71361 0.0
H230 H 0.24624 0.20902 0.63564 0.0
H231 H 0.24954 0.24674 0.6687 0.0
N232 N 0.24351 0.26827 0.72354 0.0
N233 N 0.26559 0.28707 0.76735 0.0
N234 N 0.28013 0.2438 0.75542 0.0
C235 C 0.24569 0.2891 0.74228 0.0
C236 C 0.28303 0.26461 0.77405 0.0
C237 C 0.26057 0.24551 0.73008 0.0
C238 C 0.22567 0.3135 0.73631 0.0
C239 C 0.20954 0.31826 0.70831 0.0
C240 C 0.18995 0.34102 0.70338 0.0
C241 C 0.18582 0.35929 0.72644 0.0
C242 C 0.20202 0.35462 0.75429 0.0
C243 C 0.22187 0.33212 0.75911 0.0
C244 C 0.30506 0.26303 0.80135 0.0
C245 C 0.31235 0.28594 0.81784 0.0
C246 C 0.33336 0.28468 0.84334 0.0
C247 C 0.34728 0.26043 0.85325 0.0
C248 C 0.34018 0.23753 0.83676 0.0
C249 C 0.31932 0.2388 0.81109 0.0
C250 C 0.25759 0.22258 0.71007 0.0
C251 C 0.26088 0.19631 0.72212 0.0
C252 C 0.21535 0.67055 0.33267 0.0
C253 C 0.17735 0.66956 0.33335 0.0
C254 C 0.16037 0.69367 0.32808 0.0
C255 C 0.18075 0.71803 0.32271 0.0
H256 H 0.22475 0.79152 0.37872 0.0
H257 H 0.22143 0.83045 0.40968 0.0
H258 H 0.26603 0.88152 0.33244 0.0
H259 H 0.27088 0.84244 0.30183 0.0
H260 H 0.30603 0.81372 0.24317 0.0
H261 H 0.34641 0.81622 0.19686 0.0
H262 H 0.35712 0.73093 0.2067 0.0
H263 H 0.31634 0.72814 0.25279 0.0
H264 H 0.26491 0.69492 0.32507 0.0
H265 H 0.22946 0.65253 0.33687 0.0
H266 H 0.13137 0.69377 0.32705 0.0
H267 H 0.16701 0.73623 0.31839 0.0
N268 N 0.23416 0.76623 0.32835 0.0
N269 N 0.27664 0.79115 0.29488 0.0
N270 N 0.26419 0.74538 0.28833 0.0
C271 C 0.25285 0.78987 0.31974 0.0
C272 C 0.28249 0.769 0.27909 0.0
C273 C 0.23981 0.74397 0.31272 0.0
C274 C 0.24837 0.8138 0.33785 0.0
C275 C 0.23376 0.81105 0.36827 0.0
C276 C 0.23179 0.83339 0.38603 0.0
C277 C 0.24401 0.85907 0.37372 0.0
C278 C 0.25743 0.86194 0.34295 0.0
C279 C 0.25991 0.83954 0.32532 0.0
C280 C 0.30789 0.77071 0.25164 0.0
C281 C 0.31704 0.79549 0.23556 0.0
C282 C 0.33995 0.79694 0.209 0.0
C283 C 0.35457 0.77374 0.1983 0.0
C284 C 0.34608 0.74907 0.21459 0.0
C285 C 0.32268 0.74751 0.24086 0.0
C286 C 0.21853 0.71868 0.32121 0.0
C287 C 0.23572 0.6948 0.32615 0.0
C288 C 0.08152 0.55256 0.37053 0.0
C289 C 0.09656 0.55857 0.3979 0.0
C290 C 0.07787 0.54273 0.42048 0.0
C291 C 0.0529 0.52776 0.40565 0.0
N292 N 0.05481 0.53285 0.37491 0.0
Co293 Co 0.02455 0.51484 0.34451 0.0
N294 N 0.99452 0.49368 0.37796 0.0
C295 C 0.99642 0.49592 0.40851 0.0
C296 C 0.97255 0.47853 0.4258 0.0
C297 C 0.95462 0.46413 0.40507 0.0
C298 C 0.96872 0.47359 0.37623 0.0
N299 N 0.99558 0.4957 0.31399 0.0
C300 C 0.97083 0.47466 0.31838 0.0
C301 C 0.95904 0.46595 0.2908 0.0
C302 C 0.97752 0.48174 0.2681 0.0
C303 C 0.99946 0.49903 0.28307 0.0
N304 N 0.05337 0.53701 0.31107 0.0
C305 C 0.04861 0.53689 0.28062 0.0
C306 C 0.06952 0.55619 0.26343 0.0
C307 C 0.08839 0.56985 0.28412 0.0
C308 C 0.07819 0.5578 0.31292 0.0
N309 N 0.05894 0.48604 0.34262 0.0
C310 C 0.10143 0.44144 0.33897 0.0
C311 C 0.09567 0.45748 0.31281 0.0
C312 C 0.07451 0.47948 0.31511 0.0
C313 C 0.08703 0.44885 0.3672 0.0
C314 C 0.06615 0.47111 0.36852 0.0
N315 N 0.98999 0.54362 0.34639 0.0
C316 C 0.94957 0.5726 0.32123 0.0
C317 C 0.94401 0.58631 0.34784 0.0
C318 C 0.96149 0.57825 0.37385 0.0
C319 C 0.98385 0.55678 0.37277 0.0
C320 C 0.97255 0.55158 0.32096 0.0
H321 H 0.99605 0.55135 0.3935 0.0
H322 H 0.97605 0.54236 0.29974 0.0
H323 H 0.07068 0.49064 0.29425 0.0
H324 H 0.05556 0.47552 0.3907 0.0
C325 C 0.02458 0.51133 0.42011 0.0
C326 C 0.09164 0.56745 0.34141 0.0
C327 C 0.95872 0.46164 0.34803 0.0
C328 C 0.02386 0.51866 0.26885 0.0
H329 H 0.11792 0.57359 0.40131 0.0
H330 H 0.08109 0.54292 0.44492 0.0
H331 H 0.96989 0.47565 0.45055 0.0
H332 H 0.93443 0.44784 0.41053 0.0
H333 H 0.93954 0.44958 0.28746 0.0
H334 H 0.97563 0.48048 0.2436 0.0
H335 H 0.0703 0.56029 0.23884 0.0
H336 H 0.10687 0.58712 0.27849 0.0
H337 H 0.10732 0.45303 0.29054 0.0
H338 H 0.09109 0.43714 0.38814 0.0
H339 H 0.93679 0.57846 0.30044 0.0
H340 H 0.95771 0.58835 0.395 0.0
C341 C 0.07656 0.56725 0.74442 0.0
C342 C 0.08753 0.57598 0.77225 0.0
C343 C 0.06857 0.56014 0.79465 0.0
C344 C 0.04715 0.54279 0.77929 0.0
N345 N 0.0518 0.54617 0.74839 0.0
Co346 Co 0.02381 0.52691 0.71733 0.0
N347 N 0.99448 0.5046 0.75033 0.0
C348 C 0.99794 0.50496 0.78095 0.0
C349 C 0.97573 0.48614 0.79778 0.0
C350 C 0.95746 0.47255 0.77663 0.0
C351 C 0.96959 0.484 0.74803 0.0
N352 N 0.99474 0.50854 0.68634 0.0
C353 C 0.96891 0.48817 0.69024 0.0
C354 C 0.9557 0.48112 0.66253 0.0
C355 C 0.97426 0.49737 0.64023 0.0
C356 C 0.99756 0.51339 0.65556 0.0
N357 N 0.05422 0.54837 0.68434 0.0
C358 C 0.05286 0.54634 0.65372 0.0
C359 C 0.07681 0.56395 0.6368 0.0
C360 C 0.09422 0.57829 0.65787 0.0
C361 C 0.07972 0.56861 0.68651 0.0
N362 N 0.05876 0.49832 0.71615 0.0
C363 C 0.1023 0.45399 0.71627 0.0
C364 C 0.08777 0.46355 0.68931 0.0
C365 C 0.06658 0.48574 0.68968 0.0
C366 C 0.09563 0.46758 0.74287 0.0
C367 C 0.07405 0.48946 0.74232 0.0
N368 N 0.98885 0.55543 0.71861 0.0
C369 C 0.96042 0.59234 0.69369 0.0
C370 C 0.9453 0.59956 0.72179 0.0
C371 C 0.95074 0.58343 0.74795 0.0
C372 C 0.97249 0.56176 0.7459 0.0
C373 C 0.98179 0.57028 0.6926 0.0
H374 H 0.97608 0.5507 0.76685 0.0
H375 H 0.99285 0.56594 0.67054 0.0
H376 H 0.05623 0.49198 0.66839 0.0
H377 H 0.06968 0.49855 0.76353 0.0
C378 C 0.0223 0.52323 0.79317 0.0
C379 C 0.08945 0.58029 0.71494 0.0
C380 C 0.95774 0.47387 0.71938 0.0
C381 C 0.02554 0.53046 0.64162 0.0
H382 H 0.10679 0.59241 0.77596 0.0
H383 H 0.06977 0.56143 0.8192 0.0
H384 H 0.97351 0.48247 0.82244 0.0
H385 H 0.93787 0.45579 0.78165 0.0
H386 H 0.93556 0.46527 0.65879 0.0
H387 H 0.97221 0.49672 0.61569 0.0
H388 H 0.08 0.56688 0.61208 0.0
H389 H 0.11444 0.59462 0.65276 0.0
H390 H 0.09183 0.45355 0.66814 0.0
H391 H 0.10679 0.46122 0.76424 0.0
H392 H 0.95656 0.60405 0.67271 0.0
H393 H 0.93846 0.5876 0.77009 0.0
C394 C 0.27439 0.97958 0.5761 0.0
C395 C 0.30708 0.96942 0.58319 0.0
C396 C 0.33192 0.97884 0.5603 0.0
C397 C 0.31317 0.99425 0.54063 0.0
N398 N 0.27818 0.99552 0.54994 0.0
Co399 Co 0.24165 0.0149 0.52753 0.0
N400 N 0.27963 0.03594 0.50118 0.0
C401 C 0.31421 0.02985 0.49659 0.0
C402 C 0.33411 0.0482 0.47708 0.0
C403 C 0.31052 0.06696 0.46882 0.0
C404 C 0.27746 0.05893 0.48386 0.0
N405 N 0.20533 0.03428 0.50495 0.0
C406 C 0.20947 0.05744 0.48733 0.0
C407 C 0.1769 0.06421 0.47595 0.0
C408 C 0.15161 0.04441 0.48673 0.0
C409 C 0.17006 0.02677 0.50408 0.0
N410 N 0.20345 0.99377 0.55371 0.0
C411 C 0.16823 0.99088 0.54791 0.0
C412 C 0.14822 0.9746 0.56954 0.0
C413 C 0.17239 0.96633 0.59 0.0
C414 C 0.20597 0.97803 0.57959 0.0
N415 N 0.24297 0.04281 0.55719 0.0
C416 C 0.24468 0.08611 0.59542 0.0
C417 C 0.21185 0.07289 0.58901 0.0
C418 C 0.21156 0.05157 0.56964 0.0
C419 C 0.2767 0.07636 0.58324 0.0
C420 C 0.27526 0.05461 0.56447 0.0
N421 N 0.24037 0.98709 0.49764 0.0
C422 C 0.23769 0.94043 0.48656 0.0
C423 C 0.23995 0.94729 0.45512 0.0
C424 C 0.24211 0.97439 0.44522 0.0
C425 C 0.2419 0.99399 0.46686 0.0
C426 C 0.23828 0.96058 0.50739 0.0
H427 H 0.24318 0.01473 0.45863 0.0
H428 H 0.23728 0.95458 0.53139 0.0
H429 H 0.18584 0.04245 0.56437 0.0
H430 H 0.30033 0.04776 0.55528 0.0
C431 C 0.3282 0.00986 0.51511 0.0
C432 C 0.23987 0.9707 0.59247 0.0
C433 C 0.2441 0.07246 0.47948 0.0
C434 C 0.15439 0.00603 0.52399 0.0
H435 H 0.31219 0.95593 0.60242 0.0
H436 H 0.3603 0.97509 0.5584 0.0
H437 H 0.36267 0.04855 0.47065 0.0
H438 H 0.31688 0.08447 0.45345 0.0
H439 H 0.17194 0.08161 0.46138 0.0
H440 H 0.12294 0.04363 0.48341 0.0
H441 H 0.11944 0.96958 0.57054 0.0
H442 H 0.16623 0.95259 0.6098 0.0
H443 H 0.18643 0.07896 0.59879 0.0
H444 H 0.30274 0.0858 0.58761 0.0
H445 H 0.23619 0.91962 0.49497 0.0
H446 H 0.24372 0.98035 0.42098 0.0
C447 C 0.46539 0.8032 0.07387 0.0
C448 C 0.455 0.82789 0.08303 0.0
C449 C 0.4754 0.84698 0.06533 0.0
C450 C 0.49717 0.83299 0.04656 0.0
N451 N 0.49178 0.80604 0.05103 0.0
Co452 Co 0.51894 0.77817 0.0297 0.0
N453 N 0.55083 0.80638 0.00541 0.0
C454 C 0.55055 0.83326 0.00735 0.0
C455 C 0.57525 0.8475 0.98742 0.0
C456 C 0.59209 0.82862 0.97153 0.0
C457 C 0.5765 0.80388 0.98269 0.0
N458 N 0.54575 0.75032 0.00805 0.0
C459 C 0.57171 0.7532 0.98489 0.0
C460 C 0.58197 0.72858 0.97544 0.0
C461 C 0.5616 0.70943 0.99309 0.0
C462 C 0.54008 0.72338 0.01214 0.0
N463 N 0.48738 0.74995 0.05427 0.0
C464 C 0.48842 0.72305 0.05295 0.0
C465 C 0.46367 0.70877 0.07275 0.0
C466 C 0.44602 0.72762 0.08798 0.0
C467 C 0.46126 0.75244 0.07664 0.0
N468 N 0.48417 0.77853 0.99679 0.0
C469 C 0.4368 0.7791 0.94863 0.0
C470 C 0.44543 0.75497 0.96307 0.0
C471 C 0.46891 0.75514 0.98693 0.0
C472 C 0.45225 0.80294 0.9587 0.0
C473 C 0.47549 0.80221 0.9827 0.0
N474 N 0.55374 0.77785 0.06263 0.0
C475 C 0.58849 0.75353 0.09878 0.0
C476 C 0.60074 0.77735 0.11113 0.0
C477 C 0.5892 0.8014 0.0987 0.0
C478 C 0.56617 0.80121 0.07455 0.0
C479 C 0.56522 0.75423 0.07475 0.0
H480 H 0.55848 0.82023 0.06622 0.0
H481 H 0.55669 0.73538 0.06656 0.0
H482 H 0.47445 0.73609 0.99689 0.0
H483 H 0.48638 0.82106 0.98921 0.0
C484 C 0.52491 0.84456 0.0264 0.0
C485 C 0.45054 0.77768 0.08843 0.0
C486 C 0.58612 0.7787 0.97018 0.0
C487 C 0.51328 0.71178 0.03315 0.0
H488 H 0.43534 0.83179 0.10115 0.0
H489 H 0.47523 0.8685 0.06669 0.0
H490 H 0.57974 0.86905 0.98421 0.0
H491 H 0.61296 0.8326 0.95333 0.0
H492 H 0.6016 0.72483 0.95723 0.0
H493 H 0.56182 0.68792 0.99169 0.0
H494 H 0.45924 0.6872 0.07595 0.0
H495 H 0.42461 0.72356 0.10569 0.0
H496 H 0.43396 0.73599 0.95609 0.0
H497 H 0.44694 0.82212 0.94778 0.0
H498 H 0.59684 0.73438 0.10758 0.0
H499 H 0.59728 0.82036 0.10793 0.0
C500 C 0.83065 0.98627 0.58315 0.0
C501 C 0.86342 0.97929 0.59393 0.0
C502 C 0.88953 0.99554 0.57795 0.0
C503 C 0.87131 0.01144 0.55842 0.0
N504 N 0.83509 0.00652 0.56117 0.0
Co505 Co 0.79841 0.02481 0.53695 0.0
N506 N 0.83706 0.04549 0.51004 0.0
C507 C 0.8731 0.0434 0.51084 0.0
C508 C 0.89293 0.06001 0.48945 0.0
C509 C 0.86809 0.07363 0.47413 0.0
C510 C 0.83441 0.06453 0.48719 0.0
N511 N 0.7617 0.04406 0.51377 0.0
C512 C 0.76626 0.0641 0.49154 0.0
C513 C 0.73345 0.0729 0.48276 0.0
C514 C 0.70722 0.05818 0.5004 0.0
C515 C 0.72542 0.04133 0.51886 0.0
N516 N 0.75978 0.00301 0.56272 0.0
C517 C 0.72368 0.00382 0.56073 0.0
C518 C 0.70394 0.98527 0.58 0.0
C519 C 0.72892 0.97136 0.59474 0.0
C520 C 0.76257 0.98232 0.58355 0.0
N521 N 0.79855 0.05377 0.56649 0.0
C522 C 0.7981 0.09661 0.60609 0.0
C523 C 0.76662 0.08085 0.60196 0.0
C524 C 0.76741 0.05981 0.5822 0.0
C525 C 0.82987 0.09038 0.5902 0.0
C526 C 0.82959 0.06891 0.57102 0.0
N527 N 0.79826 0.99589 0.50756 0.0
C528 C 0.76585 0.96571 0.47578 0.0
C529 C 0.7969 0.95214 0.46968 0.0
C530 C 0.82889 0.96124 0.48201 0.0
C531 C 0.82906 0.98317 0.5005 0.0
C532 C 0.76704 0.98728 0.4948 0.0
H533 H 0.85436 0.98927 0.50909 0.0
H534 H 0.74225 0.9964 0.49921 0.0
H535 H 0.74234 0.0489 0.57988 0.0
H536 H 0.85482 0.06524 0.55984 0.0
C537 C 0.88752 0.02806 0.53424 0.0
C538 C 0.79633 0.9719 0.59283 0.0
C539 C 0.80093 0.07568 0.47834 0.0
C540 C 0.70922 0.02219 0.54047 0.0
H541 H 0.86808 0.96345 0.61078 0.0
H542 H 0.91845 0.99484 0.57927 0.0
H543 H 0.92202 0.06266 0.48618 0.0
H544 H 0.87413 0.08907 0.456 0.0
H545 H 0.72898 0.08846 0.46549 0.0
H546 H 0.67832 0.05962 0.49987 0.0
H547 H 0.67487 0.98199 0.58264 0.0
H548 H 0.72309 0.95475 0.61151 0.0
H549 H 0.74134 0.08471 0.61393 0.0
H550 H 0.85485 0.10233 0.59199 0.0
H551 H 0.74051 0.95926 0.46653 0.0
H552 H 0.8537 0.95151 0.47735 0.0
C553 C 0.47201 0.28368 0.08064 0.0
C554 C 0.46032 0.30802 0.0898 0.0
C555 C 0.48001 0.32758 0.07224 0.0
C556 C 0.50238 0.31416 0.05335 0.0
N557 N 0.49784 0.28715 0.05741 0.0
Co558 Co 0.52539 0.26001 0.03523 0.0
N559 N 0.55523 0.2889 0.01011 0.0
C560 C 0.55254 0.31569 0.01107 0.0
C561 C 0.57548 0.3305 0.99022 0.0
C562 C 0.59372 0.31211 0.97471 0.0
C563 C 0.58089 0.28702 0.98719 0.0
N564 N 0.55351 0.23289 0.01355 0.0
C565 C 0.57981 0.23635 0.9907 0.0
C566 C 0.59238 0.21208 0.98226 0.0
C567 C 0.57296 0.19253 1.00008 0.0
C568 C 0.54988 0.20592 0.0184 0.0
N569 N 0.49501 0.23111 0.05988 0.0
C570 C 0.4967 0.20431 0.05795 0.0
C571 C 0.47343 0.18945 0.07849 0.0
C572 C 0.45591 0.20779 0.09466 0.0
C573 C 0.4694 0.23294 0.08288 0.0
N574 N 0.48978 0.25934 0.0029 0.0
C575 C 0.44091 0.25862 0.95584 0.0
C576 C 0.45482 0.23501 0.96708 0.0
C577 C 0.4788 0.23578 0.99059 0.0
C578 C 0.45173 0.28258 0.96855 0.0
C579 C 0.47602 0.2825 0.99181 0.0
N580 N 0.56089 0.26068 0.06762 0.0
C581 C 0.5924 0.23752 0.10699 0.0
C582 C 0.60683 0.26177 0.11676 0.0
C583 C 0.59901 0.28543 0.10087 0.0
C584 C 0.57606 0.28445 0.07662 0.0
C585 C 0.56985 0.23742 0.08249 0.0
H586 H 0.57059 0.30321 0.06582 0.0
H587 H 0.5597 0.21828 0.07625 0.0
H588 H 0.48818 0.21706 0.99829 0.0
H589 H 0.48346 0.30148 1.00021 0.0
C590 C 0.52788 0.32634 0.03157 0.0
C591 C 0.45821 0.25791 0.09517 0.0
C592 C 0.59312 0.26204 0.9758 0.0
C593 C 0.52284 0.19371 0.03877 0.0
H594 H 0.43987 0.31131 0.10755 0.0
H595 H 0.47841 0.34904 0.07327 0.0
H596 H 0.57825 0.35209 0.98645 0.0
H597 H 0.61385 0.31666 0.95605 0.0
H598 H 0.61306 0.20884 0.96469 0.0
H599 H 0.57484 0.17108 0.99928 0.0
H600 H 0.47051 0.16784 0.08205 0.0
H601 H 0.43611 0.20308 0.11353 0.0
H602 H 0.44701 0.21596 0.95791 0.0
H603 H 0.442 0.30144 0.96019 0.0
H604 H 0.59847 0.21864 0.11823 0.0
H605 H 0.60984 0.30468 0.10761 0.0
C606 C 0.17008 0.3897 0.35476 0.0
C607 C 0.16397 0.37127 0.33215 0.0
C608 C 0.14959 0.41225 0.35701 0.0
C609 C 0.12218 0.41707 0.3368 0.0
H610 H 0.1914 0.38698 0.37035 0.0
H611 H 0.15574 0.4263 0.37429 0.0
S612 S 0.09279 0.37295 0.27609 0.0
N613 N 0.12697 0.35814 0.29073 0.0
N614 N 0.08804 0.4002 0.29524 0.0
C615 C 0.11506 0.39824 0.31479 0.0
C616 C 0.13605 0.37543 0.3124 0.0
C617 C 0.11636 0.6546 0.71579 0.0
C618 C 0.15406 0.65497 0.71785 0.0
C619 C 0.09566 0.63038 0.71407 0.0
C620 C 0.11204 0.60583 0.71413 0.0
H621 H 0.10262 0.67306 0.71656 0.0
H622 H 0.06661 0.63076 0.71338 0.0
S623 S 0.20962 0.5958 0.71659 0.0
N624 N 0.20694 0.62855 0.71787 0.0
N625 N 0.16776 0.58314 0.71486 0.0
C626 C 0.14961 0.60589 0.71517 0.0
C627 C 0.17071 0.63045 0.71699 0.0
C628 C 0.91411 0.6572 0.35321 0.0
C629 C 0.87877 0.65512 0.34312 0.0
C630 C 0.93472 0.63466 0.35566 0.0
C631 C 0.92075 0.60932 0.34796 0.0
H632 H 0.92636 0.67653 0.35828 0.0
H633 H 0.96218 0.63724 0.36262 0.0
S634 S 0.82834 0.59242 0.32428 0.0
N635 N 0.8296 0.62506 0.32842 0.0
N636 N 0.86866 0.58292 0.33244 0.0
C637 C 0.88509 0.60675 0.33902 0.0
C638 C 0.86402 0.62959 0.33675 0.0
C639 C 0.87761 0.42296 0.72715 0.0
C640 C 0.89402 0.3983 0.72681 0.0
C641 C 0.8983 0.44741 0.72378 0.0
C642 C 0.93604 0.44798 0.72001 0.0
H643 H 0.84855 0.42334 0.73039 0.0
H644 H 0.88482 0.46597 0.72477 0.0
S645 S 0.99238 0.38958 0.71756 0.0
N646 N 0.95054 0.37628 0.72231 0.0
N647 N 0.98923 0.4224 0.71584 0.0
C648 C 0.95283 0.4237 0.71907 0.0
C649 C 0.93185 0.39878 0.72244 0.0
C650 C 0.25347 0.14541 0.44979 0.0
C651 C 0.25149 0.14351 0.41789 0.0
C652 C 0.25064 0.12236 0.46977 0.0
C653 C 0.2454 0.09678 0.45845 0.0
H654 H 0.25805 0.1648 0.45929 0.0
H655 H 0.25291 0.12448 0.49412 0.0
S656 S 0.23638 0.08082 0.37744 0.0
N657 N 0.24235 0.11384 0.3763 0.0
N658 N 0.23744 0.07067 0.4139 0.0
C659 C 0.24276 0.09458 0.42682 0.0
C660 C 0.24568 0.11792 0.40651 0.0
C661 C 0.39546 0.76213 0.87392 0.0
C662 C 0.36706 0.77939 0.87221 0.0
C663 C 0.41779 0.76212 0.89872 0.0
C664 C 0.41247 0.77931 0.9228 0.0
H665 H 0.40075 0.74877 0.85571 0.0
H666 H 0.43972 0.74881 0.89884 0.0
S667 S 0.33987 0.82667 0.93046 0.0
N668 N 0.3336 0.81308 0.89742 0.0
N669 N 0.37535 0.81292 0.9442 0.0
C670 C 0.38378 0.79635 0.9216 0.0
C671 C 0.36114 0.79642 0.89628 0.0
C672 C 0.78195 0.90815 0.40286 0.0
C673 C 0.79203 0.8829 0.41401 0.0
C674 C 0.78357 0.93044 0.42098 0.0
C675 C 0.79577 0.92842 0.45079 0.0
H676 H 0.77298 0.9108 0.37981 0.0
H677 H 0.77556 0.94947 0.4115 0.0
S678 S 0.8232 0.86688 0.49173 0.0
N679 N 0.81279 0.8571 0.45766 0.0
N680 N 0.81692 0.89927 0.49121 0.0
C681 C 0.8059 0.90343 0.46232 0.0
C682 C 0.8038 0.88062 0.44406 0.0
C683 C 0.6295 0.25749 0.89354 0.0
C684 C 0.66636 0.26537 0.89492 0.0
C685 C 0.60599 0.25627 0.91986 0.0
C686 C 0.61862 0.26276 0.94838 0.0
H687 H 0.61863 0.25275 0.87185 0.0
H688 H 0.5777 0.25049 0.91789 0.0
S689 S 0.71274 0.28256 0.96493 0.0
N690 N 0.71452 0.27836 0.92767 0.0
N691 N 0.67009 0.27606 0.97704 0.0
C692 C 0.65536 0.27006 0.9503 0.0
C693 C 0.67929 0.2714 0.92357 0.0
C694 C 0.23834 0.89778 0.62122 0.0
C695 C 0.23906 0.89927 0.65324 0.0
C696 C 0.23834 0.921 0.60185 0.0
C697 C 0.23897 0.94652 0.6138 0.0
H698 H 0.23855 0.87855 0.61097 0.0
H699 H 0.23819 0.91904 0.5773 0.0
S700 S 0.23894 0.96162 0.69565 0.0
N701 N 0.23878 0.92859 0.69595 0.0
N702 N 0.2392 0.9722 0.6592 0.0
C703 C 0.23913 0.94843 0.64559 0.0
C704 C 0.23911 0.9248 0.66541 0.0
C705 C 0.63774 0.75825 0.18809 0.0
C706 C 0.66813 0.77623 0.18914 0.0
C707 C 0.61624 0.75868 0.16274 0.0
C708 C 0.62447 0.77699 0.13741 0.0
H709 H 0.63027 0.74398 0.20721 0.0
H710 H 0.59267 0.74481 0.16321 0.0
S711 S 0.70314 0.82659 0.12786 0.0
N712 N 0.70653 0.81186 0.16218 0.0
N713 N 0.66654 0.81242 0.11425 0.0
C714 C 0.65524 0.79473 0.13798 0.0
C715 C 0.67696 0.79441 0.16389 0.0
C716 C 0.76767 0.1593 0.64315 0.0
C717 C 0.79482 0.16499 0.66339 0.0
C718 C 0.76903 0.13723 0.62473 0.0
C719 C 0.79738 0.11981 0.6261 0.0
H720 H 0.74543 0.17221 0.64129 0.0
H721 H 0.74786 0.13399 0.60902 0.0
S722 S 0.87346 0.12489 0.67751 0.0
N723 N 0.85 0.15104 0.68482 0.0
N724 N 0.85214 0.10908 0.65095 0.0
C725 C 0.82439 0.12511 0.64673 0.0
C726 C 0.82319 0.14778 0.66519 0.0
C727 C 0.4243 0.26639 0.17741 0.0
C728 C 0.38786 0.25708 0.17759 0.0
C729 C 0.44699 0.2663 0.15072 0.0
C730 C 0.43377 0.25726 0.12333 0.0
H731 H 0.43532 0.2736 0.1981 0.0
H732 H 0.47502 0.27343 0.1514 0.0
S733 S 0.34003 0.23232 0.11155 0.0
N734 N 0.33941 0.23914 0.14813 0.0
N735 N 0.38185 0.23983 0.09762 0.0
C736 C 0.39729 0.24833 0.12312 0.0
C737 C 0.37437 0.248 0.15038 0.0
C738 C 0.87644 0.65126 0.70583 0.0
C739 C 0.88144 0.66911 0.72923 0.0
C740 C 0.89743 0.62896 0.70329 0.0
C741 C 0.92426 0.62384 0.72398 0.0
H742 H 0.85557 0.65419 0.68986 0.0
H743 H 0.89205 0.61532 0.68543 0.0
S744 S 0.95083 0.66662 0.78684 0.0
N745 N 0.91685 0.68145 0.77191 0.0
N746 N 0.95675 0.63999 0.76685 0.0
C747 C 0.93033 0.64218 0.74675 0.0
C748 C 0.90883 0.66469 0.74944 0.0
C749 C 0.87981 0.40986 0.34982 0.0
C750 C 0.89683 0.38596 0.34468 0.0
C751 C 0.90002 0.43419 0.35204 0.0
C752 C 0.93785 0.43539 0.34909 0.0
H753 H 0.85063 0.40978 0.3518 0.0
H754 H 0.88603 0.45228 0.35534 0.0
S755 S 0.9956 0.37905 0.3352 0.0
N756 N 0.95396 0.36529 0.33667 0.0
N757 N 0.99175 0.41114 0.34091 0.0
C758 C 0.95527 0.41175 0.34442 0.0
C759 C 0.9348 0.38697 0.34226 0.0
C760 C 0.13602 0.38721 0.74404 0.0
C761 C 0.1639 0.38289 0.72217 0.0
C762 C 0.11599 0.40998 0.74159 0.0
C763 C 0.12322 0.42951 0.7173 0.0
H764 H 0.12964 0.37284 0.76327 0.0
H765 H 0.09461 0.4123 0.75892 0.0
S766 S 0.19441 0.42799 0.65458 0.0
N767 N 0.19808 0.39999 0.6756 0.0
N768 N 0.1609 0.44315 0.6712 0.0
C769 C 0.15094 0.42533 0.69512 0.0
C770 C 0.17116 0.40196 0.69752 0.0
C771 C 0.16849 0.62058 0.3236 0.0
C772 C 0.15582 0.64327 0.33758 0.0
C773 C 0.14814 0.59599 0.32568 0.0
C774 C 0.11386 0.59327 0.34103 0.0
H775 H 0.194 0.62188 0.31025 0.0
H776 H 0.1589 0.57911 0.31453 0.0
S777 S 0.06907 0.64522 0.38375 0.0
N778 N 0.10781 0.66024 0.37001 0.0
N779 N 0.06855 0.61453 0.37166 0.0
C780 C 0.10103 0.6154 0.35565 0.0
C781 C 0.12214 0.64028 0.35435 0.0
C782 C 0.79753 0.9226 0.66171 0.0
C783 C 0.79015 0.89767 0.6491 0.0
C784 C 0.80019 0.94652 0.6433 0.0
C785 C 0.79552 0.9463 0.6117 0.0
H786 H 0.8012 0.92362 0.68604 0.0
H787 H 0.80551 0.96535 0.65385 0.0
S788 S 0.77493 0.88682 0.56742 0.0
N789 N 0.77765 0.87449 0.60296 0.0
N790 N 0.78297 0.91957 0.56842 0.0
C791 C 0.78833 0.92167 0.59871 0.0
C792 C 0.78567 0.89729 0.61738 0.0
C793 C 0.68589 0.2768 0.16605 0.0
C794 C 0.67469 0.26341 0.19442 0.0
C795 C 0.66374 0.27634 0.14109 0.0
C796 C 0.62966 0.26237 0.14353 0.0
H797 H 0.71223 0.28739 0.16296 0.0
H798 H 0.67359 0.28665 0.11957 0.0
S799 S 0.58619 0.22628 0.21347 0.0
N800 N 0.62612 0.23737 0.224 0.0
N801 N 0.58476 0.23627 0.17699 0.0
C802 C 0.61784 0.24932 0.17187 0.0
C803 C 0.64028 0.24989 0.19731 0.0
C804 C 0.27323 0.13461 0.65526 0.0
C805 C 0.24933 0.15526 0.65213 0.0
C806 C 0.27142 0.11241 0.63701 0.0
C807 C 0.24575 0.1099 0.61466 0.0
H808 H 0.29382 0.13568 0.67181 0.0
H809 H 0.29018 0.09697 0.64064 0.0
S810 S 0.17705 0.15848 0.59694 0.0
N811 N 0.19856 0.17139 0.62527 0.0
N812 N 0.19651 0.1305 0.58982 0.0
C813 C 0.22184 0.1305 0.61108 0.0
C814 C 0.22337 0.15296 0.62998 0.0
C815 C 0.41396 0.76675 0.17125 0.0
C816 C 0.37865 0.7752 0.1701 0.0
C817 C 0.43719 0.76792 0.14477 0.0
C818 C 0.42564 0.77723 0.11628 0.0
H819 H 0.42375 0.7594 0.19281 0.0
H820 H 0.46431 0.76141 0.1465 0.0
S821 S 0.33521 0.80014 0.10079 0.0
N822 N 0.33298 0.79253 0.1381 0.0
N823 N 0.37642 0.79398 0.08814 0.0
C824 C 0.39029 0.78532 0.11474 0.0
C825 C 0.36683 0.78453 0.14173 0.0
C826 C 0.7979 0.14806 0.44852 0.0
C827 C 0.80207 0.14634 0.41648 0.0
C828 C 0.79779 0.12512 0.4684 0.0
C829 C 0.80208 0.09977 0.45691 0.0
H830 H 0.79401 0.1672 0.45826 0.0
H831 H 0.79409 0.12714 0.4929 0.0
S832 S 0.81563 0.08438 0.37542 0.0
N833 N 0.81194 0.11714 0.37445 0.0
N834 N 0.81138 0.07407 0.41203 0.0
C835 C 0.80672 0.09772 0.42514 0.0
C836 C 0.80678 0.12101 0.40486 0.0
C837 C 0.40287 0.2467 0.87848 0.0
C838 C 0.36995 0.25922 0.88024 0.0
C839 C 0.4254 0.24624 0.90319 0.0
C840 C 0.41593 0.25838 0.93052 0.0
H841 H 0.41169 0.23769 0.8576 0.0
H842 H 0.4508 0.23683 0.90063 0.0
S843 S 0.33112 0.29133 0.94808 0.0
N844 N 0.32784 0.28223 0.91254 0.0
N845 N 0.37047 0.28167 0.95874 0.0
C846 C 0.38278 0.2704 0.93289 0.0
C847 C 0.35974 0.27075 0.90783 0.0
C848 C 0.21236 0.88587 0.41275 0.0
C849 C 0.24299 0.88259 0.39319 0.0
C850 C 0.21135 0.90709 0.43241 0.0
C851 C 0.24072 0.92603 0.43291 0.0
H852 H 0.18897 0.87186 0.41297 0.0
H853 H 0.18747 0.90869 0.44739 0.0
S854 S 0.32783 0.92618 0.38759 0.0
N855 N 0.30406 0.89977 0.37671 0.0
N856 N 0.30143 0.94012 0.41298 0.0
C857 C 0.27131 0.92328 0.41339 0.0
C858 C 0.27262 0.90148 0.39366 0.0
C859 C 0.66744 0.77337 0.91492 0.0
C860 C 0.65364 0.77936 0.88616 0.0
C861 C 0.64553 0.77332 0.94208 0.0
C862 C 0.60911 0.77908 0.94131 0.0
H863 H 0.69548 0.76897 0.91646 0.0
H864 H 0.65706 0.76872 0.96382 0.0
S865 S 0.55934 0.79489 0.87232 0.0
N866 N 0.6008 0.79047 0.85876 0.0
N867 N 0.55981 0.79038 0.90998 0.0
C868 C 0.59488 0.78497 0.9129 0.0
C869 C 0.61711 0.78512 0.88526 0.0
loop_
_geom_bond_atom_site_label_1
_geom_bond_atom_site_label_2
_geom_bond_distance
_geom_bond_site_symmetry_2
_ccdc_geom_bond_type
C0 C1 1.384 . S
C0 H13 0.947 . S
C0 C35 1.382 . S
C1 C0 1.384 . S
C1 C2 1.378 . S
C2 C1 1.378 . S
C2 C3 1.378 . S
C2 H14 0.952 . S
C3 C2 1.378 . S
C3 H15 0.950 . S
C3 C34 1.383 . S
H4 C23 0.947 . S
H5 C24 0.946 . S
H6 C26 0.953 . S
H7 C27 0.945 . S
H8 C29 0.952 . S
H9 C30 0.949 . S
H10 C32 0.950 . S
H11 C33 0.948 . S
H12 C35 0.951 . S
H13 C0 0.947 . S
H14 C2 0.952 . S
H15 C3 0.950 . S
N16 C19 1.382 . S
N16 C21 1.363 . S
N17 C19 1.371 . S
N17 C20 1.372 . S
N18 C20 1.361 . S
N18 C21 1.377 . S
C19 N16 1.382 . S
C19 N17 1.371 . S
C19 C22 1.480 . S
C20 N17 1.372 . S
C20 N18 1.361 . S
C20 C28 1.457 . S
C21 N16 1.363 . S
C21 N18 1.377 . S
C21 C34 1.479 . S
C22 C19 1.480 . S
C22 C23 1.383 . S
C22 C27 1.385 . S
C23 H4 0.947 . S
C23 C22 1.383 . S
C23 C24 1.388 . S
C24 H5 0.946 . S
C24 C23 1.388 . S
C24 C25 1.384 . S
C25 C24 1.384 . S
C25 C26 1.377 . S
C26 H6 0.953 . S
C26 C25 1.377 . S
C26 C27 1.369 . S
C27 H7 0.945 . S
C27 C22 1.385 . S
C27 C26 1.369 . S
C28 C20 1.457 . S
C28 C29 1.372 . S
C28 C33 1.364 . S
C29 H8 0.952 . S
C29 C28 1.372 . S
C29 C30 1.389 . S
C30 H9 0.949 . S
C30 C29 1.389 . S
C30 C31 1.387 . S
C31 C30 1.387 . S
C31 C32 1.372 . S
C32 H10 0.950 . S
C32 C31 1.372 . S
C32 C33 1.379 . S
C33 H11 0.948 . S
C33 C28 1.364 . S
C33 C32 1.379 . S
C34 C3 1.383 . S
C34 C21 1.479 . S
C34 C35 1.398 . S
C35 C0 1.382 . S
C35 H12 0.951 . S
C35 C34 1.398 . S
C36 C37 1.384 . S
C36 H49 0.947 . S
C36 C71 1.382 . S
C37 C36 1.384 . S
C37 C38 1.378 . S
C38 C37 1.378 . S
C38 C39 1.378 . S
C38 H50 0.952 . S
C39 C38 1.378 . S
C39 H51 0.950 . S
C39 C70 1.383 . S
H40 C59 0.947 . S
H41 C60 0.946 . S
H42 C62 0.953 . S
H43 C63 0.945 . S
H44 C65 0.952 . S
H45 C66 0.949 . S
H46 C68 0.950 . S
H47 C69 0.948 . S
H48 C71 0.951 . S
H49 C36 0.947 . S
H50 C38 0.952 . S
H51 C39 0.950 . S
N52 C55 1.382 . S
N52 C57 1.363 . S
N53 C55 1.371 . S
N53 C56 1.372 . S
N54 C56 1.361 . S
N54 C57 1.377 . S
C55 N52 1.382 . S
C55 N53 1.371 . S
C55 C58 1.480 . S
C56 N53 1.372 . S
C56 N54 1.361 . S
C56 C64 1.457 . S
C57 N52 1.363 . S
C57 N54 1.377 . S
C57 C70 1.479 . S
C58 C55 1.480 . S
C58 C59 1.383 . S
C58 C63 1.385 . S
C59 H40 0.947 . S
C59 C58 1.383 . S
C59 C60 1.388 . S
C60 H41 0.946 . S
C60 C59 1.388 . S
C60 C61 1.384 . S
C61 C60 1.384 . S
C61 C62 1.377 . S
C62 H42 0.953 . S
C62 C61 1.377 . S
C62 C63 1.369 . S
C63 H43 0.945 . S
C63 C58 1.385 . S
C63 C62 1.369 . S
C64 C56 1.457 . S
C64 C65 1.372 . S
C64 C69 1.364 . S
C65 H44 0.952 . S
C65 C64 1.372 . S
C65 C66 1.389 . S
C66 H45 0.949 . S
C66 C65 1.389 . S
C66 C67 1.387 . S
C67 C66 1.387 . S
C67 C68 1.372 . S
C68 H46 0.950 . S
C68 C67 1.372 . S
C68 C69 1.379 . S
C69 H47 0.948 . S
C69 C64 1.364 . S
C69 C68 1.379 . S
C70 C39 1.383 . S
C70 C57 1.479 . S
C70 C71 1.398 . S
C71 C36 1.382 . S
C71 H48 0.951 . S
C71 C70 1.398 . S
C72 C73 1.384 . S
C72 H85 0.947 . S
C72 C107 1.382 . S
C73 C72 1.384 . S
C73 C74 1.378 . S
C74 C73 1.378 . S
C74 C75 1.378 . S
C74 H86 0.952 . S
C75 C74 1.378 . S
C75 H87 0.950 . S
C75 C106 1.383 . S
H76 C95 0.947 . S
H77 C96 0.946 . S
H78 C98 0.953 . S
H79 C99 0.945 . S
H80 C101 0.952 . S
H81 C102 0.949 . S
H82 C104 0.950 . S
H83 C105 0.948 . S
H84 C107 0.951 . S
H85 C72 0.947 . S
H86 C74 0.952 . S
H87 C75 0.950 . S
N88 C91 1.382 . S
N88 C93 1.363 . S
N89 C91 1.371 . S
N89 C92 1.372 . S
N90 C92 1.361 . S
N90 C93 1.377 . S
C91 N88 1.382 . S
C91 N89 1.371 . S
C91 C94 1.480 . S
C92 N89 1.372 . S
C92 N90 1.361 . S
C92 C100 1.457 . S
C93 N88 1.363 . S
C93 N90 1.377 . S
C93 C106 1.479 . S
C94 C91 1.480 . S
C94 C95 1.383 . S
C94 C99 1.385 . S
C95 H76 0.947 . S
C95 C94 1.383 . S
C95 C96 1.388 . S
C96 H77 0.946 . S
C96 C95 1.388 . S
C96 C97 1.384 . S
C97 C96 1.384 . S
C97 C98 1.377 . S
C98 H78 0.953 . S
C98 C97 1.377 . S
C98 C99 1.369 . S
C99 H79 0.945 . S
C99 C94 1.385 . S
C99 C98 1.369 . S
C100 C92 1.457 . S
C100 C101 1.372 . S
C100 C105 1.364 . S
C101 H80 0.952 . S
C101 C100 1.372 . S
C101 C102 1.389 . S
C102 H81 0.949 . S
C102 C101 1.389 . S
C102 C103 1.387 . S
C103 C102 1.387 . S
C103 C104 1.372 . S
C104 H82 0.950 . S
C104 C103 1.372 . S
C104 C105 1.379 . S
C105 H83 0.948 . S
C105 C100 1.364 . S
C105 C104 1.379 . S
C106 C75 1.383 . S
C106 C93 1.479 . S
C106 C107 1.398 . S
C107 C72 1.382 . S
C107 H84 0.951 . S
C107 C106 1.398 . S
C108 C109 1.384 . S
C108 H121 0.947 . S
C108 C143 1.382 . S
C109 C108 1.384 . S
C109 C110 1.378 . S
C110 C109 1.378 . S
C110 C111 1.378 . S
C110 H122 0.952 . S
C111 C110 1.378 . S
C111 H123 0.950 . S
C111 C142 1.383 . S
H112 C131 0.947 . S
H113 C132 0.946 . S
H114 C134 0.953 . S
H115 C135 0.945 . S
H116 C137 0.952 . S
H117 C138 0.949 . S
H118 C140 0.950 . S
H119 C141 0.948 . S
H120 C143 0.951 . S
H121 C108 0.947 . S
H122 C110 0.952 . S
H123 C111 0.950 . S
N124 C127 1.382 . S
N124 C129 1.363 . S
N125 C127 1.371 . S
N125 C128 1.372 . S
N126 C128 1.361 . S
N126 C129 1.377 . S
C127 N124 1.382 . S
C127 N125 1.371 . S
C127 C130 1.480 . S
C128 N125 1.372 . S
C128 N126 1.361 . S
C128 C136 1.457 . S
C129 N124 1.363 . S
C129 N126 1.377 . S
C129 C142 1.479 . S
C130 C127 1.480 . S
C130 C131 1.383 . S
C130 C135 1.385 . S
C131 H112 0.947 . S
C131 C130 1.383 . S
C131 C132 1.388 . S
C132 H113 0.946 . S
C132 C131 1.388 . S
C132 C133 1.384 . S
C133 C132 1.384 . S
C133 C134 1.377 . S
C134 H114 0.953 . S
C134 C133 1.377 . S
C134 C135 1.369 . S
C135 H115 0.945 . S
C135 C130 1.385 . S
C135 C134 1.369 . S
C136 C128 1.457 . S
C136 C137 1.372 . S
C136 C141 1.364 . S
C137 H116 0.952 . S
C137 C136 1.372 . S
C137 C138 1.389 . S
C138 H117 0.949 . S
C138 C137 1.389 . S
C138 C139 1.387 . S
C139 C138 1.387 . S
C139 C140 1.372 . S
C140 H118 0.950 . S
C140 C139 1.372 . S
C140 C141 1.379 . S
C141 H119 0.948 . S
C141 C136 1.364 . S
C141 C140 1.379 . S
C142 C111 1.383 . S
C142 C129 1.479 . S
C142 C143 1.398 . S
C143 C108 1.382 . S
C143 H120 0.951 . S
C143 C142 1.398 . S
C144 C145 1.384 . S
C144 H157 0.947 . S
C144 C179 1.382 . S
C145 C144 1.384 . S
C145 C146 1.378 . S
C146 C145 1.378 . S
C146 C147 1.378 . S
C146 H158 0.952 . S
C147 C146 1.378 . S
C147 H159 0.950 . S
C147 C178 1.383 . S
H148 C167 0.947 . S
H149 C168 0.946 . S
H150 C170 0.953 . S
H151 C171 0.945 . S
H152 C173 0.952 . S
H153 C174 0.949 . S
H154 C176 0.950 . S
H155 C177 0.948 . S
H156 C179 0.951 . S
H157 C144 0.947 . S
H158 C146 0.952 . S
H159 C147 0.950 . S
N160 C163 1.382 . S
N160 C165 1.363 . S
N161 C163 1.371 . S
N161 C164 1.372 . S
N162 C164 1.361 . S
N162 C165 1.377 . S
C163 N160 1.382 . S
C163 N161 1.371 . S
C163 C166 1.480 . S
C164 N161 1.372 . S
C164 N162 1.361 . S
C164 C172 1.457 . S
C165 N160 1.363 . S
C165 N162 1.377 . S
C165 C178 1.479 . S
C166 C163 1.480 . S
C166 C167 1.383 . S
C166 C171 1.385 . S
C167 H148 0.947 . S
C167 C166 1.383 . S
C167 C168 1.388 . S
C168 H149 0.946 . S
C168 C167 1.388 . S
C168 C169 1.384 . S
C169 C168 1.384 . S
C169 C170 1.377 . S
C170 H150 0.953 . S
C170 C169 1.377 . S
C170 C171 1.369 . S
C171 H151 0.945 . S
C171 C166 1.385 . S
C171 C170 1.369 . S
C172 C164 1.457 . S
C172 C173 1.372 . S
C172 C177 1.364 . S
C173 H152 0.952 . S
C173 C172 1.372 . S
C173 C174 1.389 . S
C174 H153 0.949 . S
C174 C173 1.389 . S
C174 C175 1.387 . S
C175 C174 1.387 . S
C175 C176 1.372 . S
C176 H154 0.950 . S
C176 C175 1.372 . S
C176 C177 1.379 . S
C177 H155 0.948 . S
C177 C172 1.364 . S
C177 C176 1.379 . S
C178 C147 1.383 . S
C178 C165 1.479 . S
C178 C179 1.398 . S
C179 C144 1.382 . S
C179 H156 0.951 . S
C179 C178 1.398 . S
C180 C181 1.384 . S
C180 H193 0.947 . S
C180 C215 1.382 . S
C181 C180 1.384 . S
C181 C182 1.378 . S
C182 C181 1.378 . S
C182 C183 1.378 . S
C182 H194 0.952 . S
C183 C182 1.378 . S
C183 H195 0.950 . S
C183 C214 1.383 . S
H184 C203 0.947 . S
H185 C204 0.946 . S
H186 C206 0.953 . S
H187 C207 0.945 . S
H188 C209 0.952 . S
H189 C210 0.949 . S
H190 C212 0.950 . S
H191 C213 0.948 . S
H192 C215 0.951 . S
H193 C180 0.947 . S
H194 C182 0.952 . S
H195 C183 0.950 . S
N196 C199 1.382 . S
N196 C201 1.363 . S
N197 C199 1.371 . S
N197 C200 1.372 . S
N198 C200 1.361 . S
N198 C201 1.377 . S
C199 N196 1.382 . S
C199 N197 1.371 . S
C199 C202 1.480 . S
C200 N197 1.372 . S
C200 N198 1.361 . S
C200 C208 1.457 . S
C201 N196 1.363 . S
C201 N198 1.377 . S
C201 C214 1.479 . S
C202 C199 1.480 . S
C202 C203 1.383 . S
C202 C207 1.385 . S
C203 H184 0.947 . S
C203 C202 1.383 . S
C203 C204 1.388 . S
C204 H185 0.946 . S
C204 C203 1.388 . S
C204 C205 1.384 . S
C205 C204 1.384 . S
C205 C206 1.377 . S
C206 H186 0.953 . S
C206 C205 1.377 . S
C206 C207 1.369 . S
C207 H187 0.945 . S
C207 C202 1.385 . S
C207 C206 1.369 . S
C208 C200 1.457 . S
C208 C209 1.372 . S
C208 C213 1.364 . S
C209 H188 0.952 . S
C209 C208 1.372 . S
C209 C210 1.389 . S
C210 H189 0.949 . S
C210 C209 1.389 . S
C210 C211 1.387 . S
C211 C210 1.387 . S
C211 C212 1.372 . S
C212 H190 0.950 . S
C212 C211 1.372 . S
C212 C213 1.379 . S
C213 H191 0.948 . S
C213 C208 1.364 . S
C213 C212 1.379 . S
C214 C183 1.383 . S
C214 C201 1.479 . S
C214 C215 1.398 . S
C215 C180 1.382 . S
C215 H192 0.951 . S
C215 C214 1.398 . S
C216 C217 1.384 . S
C216 H229 0.947 . S
C216 C251 1.382 . S
C217 C216 1.384 . S
C217 C218 1.378 . S
C218 C217 1.378 . S
C218 C219 1.378 . S
C218 H230 0.952 . S
C219 C218 1.378 . S
C219 H231 0.950 . S
C219 C250 1.383 . S
H220 C239 0.947 . S
H221 C240 0.946 . S
H222 C242 0.953 . S
H223 C243 0.945 . S
H224 C245 0.952 . S
H225 C246 0.949 . S
H226 C248 0.950 . S
H227 C249 0.948 . S
H228 C251 0.951 . S
H229 C216 0.947 . S
H230 C218 0.952 . S
H231 C219 0.950 . S
N232 C235 1.382 . S
N232 C237 1.363 . S
N233 C235 1.371 . S
N233 C236 1.372 . S
N234 C236 1.361 . S
N234 C237 1.377 . S
C235 N232 1.382 . S
C235 N233 1.371 . S
C235 C238 1.480 . S
C236 N233 1.372 . S
C236 N234 1.361 . S
C236 C244 1.457 . S
C237 N232 1.363 . S
C237 N234 1.377 . S
C237 C250 1.479 . S
C238 C235 1.480 . S
C238 C239 1.383 . S
C238 C243 1.385 . S
C239 H220 0.947 . S
C239 C238 1.383 . S
C239 C240 1.388 . S
C240 H221 0.946 . S
C240 C239 1.388 . S
C240 C241 1.384 . S
C241 C240 1.384 . S
C241 C242 1.377 . S
C242 H222 0.953 . S
C242 C241 1.377 . S
C242 C243 1.369 . S
C243 H223 0.945 . S
C243 C238 1.385 . S
C243 C242 1.369 . S
C244 C236 1.457 . S
C244 C245 1.372 . S
C244 C249 1.364 . S
C245 H224 0.952 . S
C245 C244 1.372 . S
C245 C246 1.389 . S
C246 H225 0.949 . S
C246 C245 1.389 . S
C246 C247 1.387 . S
C247 C246 1.387 . S
C247 C248 1.372 . S
C248 H226 0.950 . S
C248 C247 1.372 . S
C248 C249 1.379 . S
C249 H227 0.948 . S
C249 C244 1.364 . S
C249 C248 1.379 . S
C250 C219 1.383 . S
C250 C237 1.479 . S
C250 C251 1.398 . S
C251 C216 1.382 . S
C251 H228 0.951 . S
C251 C250 1.398 . S
C252 C253 1.384 . S
C252 H265 0.947 . S
C252 C287 1.382 . S
C253 C252 1.384 . S
C253 C254 1.378 . S
C254 C253 1.378 . S
C254 C255 1.378 . S
C254 H266 0.952 . S
C255 C254 1.378 . S
C255 H267 0.950 . S
C255 C286 1.383 . S
H256 C275 0.947 . S
H257 C276 0.946 . S
H258 C278 0.953 . S
H259 C279 0.945 . S
H260 C281 0.952 . S
H261 C282 0.949 . S
H262 C284 0.950 . S
H263 C285 0.948 . S
H264 C287 0.951 . S
H265 C252 0.947 . S
H266 C254 0.952 . S
H267 C255 0.950 . S
N268 C271 1.382 . S
N268 C273 1.363 . S
N269 C271 1.371 . S
N269 C272 1.372 . S
N270 C272 1.361 . S
N270 C273 1.377 . S
C271 N268 1.382 . S
C271 N269 1.371 . S
C271 C274 1.480 . S
C272 N269 1.372 . S
C272 N270 1.361 . S
C272 C280 1.457 . S
C273 N268 1.363 . S
C273 N270 1.377 . S
C273 C286 1.479 . S
C274 C271 1.480 . S
C274 C275 1.383 . S
C274 C279 1.385 . S
C275 H256 0.947 . S
C275 C274 1.383 . S
C275 C276 1.388 . S
C276 H257 0.946 . S
C276 C275 1.388 . S
C276 C277 1.384 . S
C277 C276 1.384 . S
C277 C278 1.377 . S
C278 H258 0.953 . S
C278 C277 1.377 . S
C278 C279 1.369 . S
C279 H259 0.945 . S
C279 C274 1.385 . S
C279 C278 1.369 . S
C280 C272 1.457 . S
C280 C281 1.372 . S
C280 C285 1.364 . S
C281 H260 0.952 . S
C281 C280 1.372 . S
C281 C282 1.389 . S
C282 H261 0.949 . S
C282 C281 1.389 . S
C282 C283 1.387 . S
C283 C282 1.387 . S
C283 C284 1.372 . S
C284 H262 0.950 . S
C284 C283 1.372 . S
C284 C285 1.379 . S
C285 H263 0.948 . S
C285 C280 1.364 . S
C285 C284 1.379 . S
C286 C255 1.383 . S
C286 C273 1.479 . S
C286 C287 1.398 . S
C287 C252 1.382 . S
C287 H264 0.951 . S
C287 C286 1.398 . S
C288 C289 1.443 . S
C288 N292 1.376 . S
C288 C326 1.389 . S
C289 C288 1.443 . S
C289 C290 1.340 . S
C289 H329 0.951 . S
C290 C289 1.340 . S
C290 C291 1.439 . S
C290 H330 0.950 . S
C291 C290 1.439 . S
C291 N292 1.374 . S
C291 C325 1.395 . S
N292 C288 1.376 . S
N292 C291 1.374 . S
N292 Co293 2.008 . S
Co293 N292 2.008 . S
Co293 N294 1.995 1_455 S
Co293 N299 2.008 . S
Co293 N304 1.995 . S
Co293 N309 2.282 . S
Co293 N315 2.282 1_455 S
N294 Co293 1.995 1_655 S
N294 C295 1.376 . S
N294 C298 1.383 . S
C295 N294 1.376 . S
C295 C296 1.446 . S
C295 C325 1.391 1_655 S
C296 C295 1.446 . S
C296 C297 1.339 . S
C296 H331 0.949 . S
C297 C296 1.339 . S
C297 C298 1.439 . S
C297 H332 0.950 . S
C298 N294 1.383 . S
C298 C297 1.439 . S
C298 C327 1.392 . S
N299 Co293 2.008 . S
N299 C300 1.376 1_455 S
N299 C303 1.374 . S
C300 N299 1.376 1_655 S
C300 C301 1.443 . S
C300 C327 1.389 . S
C301 C300 1.443 . S
C301 C302 1.340 . S
C301 H333 0.951 . S
C302 C301 1.340 . S
C302 C303 1.439 1_655 S
C302 H334 0.950 . S
C303 N299 1.374 . S
C303 C302 1.439 1_455 S
C303 C328 1.395 . S
N304 Co293 1.995 . S
N304 C305 1.376 . S
N304 C308 1.383 . S
C305 N304 1.376 . S
C305 C306 1.446 . S
C305 C328 1.391 . S
C306 C305 1.446 . S
C306 C307 1.339 . S
C306 H335 0.949 . S
C307 C306 1.339 . S
C307 C308 1.439 . S
C307 H336 0.950 . S
C308 N304 1.383 . S
C308 C307 1.439 . S
C308 C326 1.392 . S
N309 Co293 2.282 . S
N309 C312 1.332 . S
N309 C314 1.332 . S
C310 C311 1.386 . S
C310 C313 1.388 . S
C311 C310 1.386 . S
C311 C312 1.382 . S
C311 H337 0.950 . S
C312 N309 1.332 . S
C312 C311 1.382 . S
C312 H323 0.952 . S
C313 C310 1.388 . S
C313 C314 1.382 . S
C313 H338 0.950 . S
C314 N309 1.332 . S
C314 C313 1.382 . S
C314 H324 0.948 . S
N315 Co293 2.282 1_655 S
N315 C319 1.332 . S
N315 C320 1.332 . S
C316 C317 1.388 . S
C316 C320 1.382 . S
C316 H339 0.950 . S
C317 C316 1.388 . S
C317 C318 1.386 . S
C318 C317 1.386 . S
C318 C319 1.382 . S
C318 H340 0.950 . S
C319 N315 1.332 . S
C319 C318 1.382 . S
C319 H321 0.952 . S
C320 N315 1.332 . S
C320 C316 1.382 . S
C320 H322 0.948 . S
H321 C319 0.952 . S
H322 C320 0.948 . S
H323 C312 0.952 . S
H324 C314 0.948 . S
C325 C291 1.395 . S
C325 C295 1.391 1_455 S
C326 C288 1.389 . S
C326 C308 1.392 . S
C327 C298 1.392 . S
C327 C300 1.389 . S
C328 C303 1.395 . S
C328 C305 1.391 . S
H329 C289 0.951 . S
H330 C290 0.950 . S
H331 C296 0.949 . S
H332 C297 0.950 . S
H333 C301 0.951 . S
H334 C302 0.950 . S
H335 C306 0.949 . S
H336 C307 0.950 . S
H337 C311 0.950 . S
H338 C313 0.950 . S
H339 C316 0.950 . S
H340 C318 0.950 . S
C341 C342 1.443 . S
C341 N345 1.376 . S
C341 C379 1.389 . S
C342 C341 1.443 . S
C342 C343 1.340 . S
C342 H382 0.951 . S
C343 C342 1.340 . S
C343 C344 1.439 . S
C343 H383 0.950 . S
C344 C343 1.439 . S
C344 N345 1.374 . S
C344 C378 1.395 . S
N345 C341 1.376 . S
N345 C344 1.374 . S
N345 Co346 2.008 . S
Co346 N345 2.008 . S
Co346 N347 1.995 1_455 S
Co346 N352 2.008 1_455 S
Co346 N357 1.995 . S
Co346 N362 2.282 . S
Co346 N368 2.282 1_455 S
N347 Co346 1.995 1_655 S
N347 C348 1.376 . S
N347 C351 1.383 . S
C348 N347 1.376 . S
C348 C349 1.446 . S
C348 C378 1.391 1_655 S
C349 C348 1.446 . S
C349 C350 1.339 . S
C349 H384 0.949 . S
C350 C349 1.339 . S
C350 C351 1.439 . S
C350 H385 0.950 . S
C351 N347 1.383 . S
C351 C350 1.439 . S
C351 C380 1.392 . S
N352 Co346 2.008 1_655 S
N352 C353 1.376 . S
N352 C356 1.374 1_655 S
C353 N352 1.376 . S
C353 C354 1.443 . S
C353 C380 1.389 . S
C354 C353 1.443 . S
C354 C355 1.340 . S
C354 H386 0.951 . S
C355 C354 1.340 . S
C355 C356 1.439 1_655 S
C355 H387 0.950 . S
C356 N352 1.374 1_455 S
C356 C355 1.439 1_455 S
C356 C381 1.395 . S
N357 Co346 1.995 . S
N357 C358 1.376 . S
N357 C361 1.383 . S
C358 N357 1.376 . S
C358 C359 1.446 . S
C358 C381 1.391 . S
C359 C358 1.446 . S
C359 C360 1.339 . S
C359 H388 0.949 . S
C360 C359 1.339 . S
C360 C361 1.439 . S
C360 H389 0.950 . S
C361 N357 1.383 . S
C361 C360 1.439 . S
C361 C379 1.392 . S
N362 Co346 2.282 . S
N362 C365 1.332 . S
N362 C367 1.332 . S
C363 C364 1.386 . S
C363 C366 1.388 . S
C364 C363 1.386 . S
C364 C365 1.382 . S
C364 H390 0.950 . S
C365 N362 1.332 . S
C365 C364 1.382 . S
C365 H376 0.952 . S
C366 C363 1.388 . S
C366 C367 1.382 . S
C366 H391 0.950 . S
C367 N362 1.332 . S
C367 C366 1.382 . S
C367 H377 0.948 . S
N368 Co346 2.282 1_655 S
N368 C372 1.332 . S
N368 C373 1.332 . S
C369 C370 1.388 . S
C369 C373 1.382 . S
C369 H392 0.950 . S
C370 C369 1.388 . S
C370 C371 1.386 . S
C371 C370 1.386 . S
C371 C372 1.382 . S
C371 H393 0.950 . S
C372 N368 1.332 . S
C372 C371 1.382 . S
C372 H374 0.952 . S
C373 N368 1.332 . S
C373 C369 1.382 . S
C373 H375 0.948 . S
H374 C372 0.952 . S
H375 C373 0.948 . S
H376 C365 0.952 . S
H377 C367 0.948 . S
C378 C344 1.395 . S
C378 C348 1.391 1_455 S
C379 C341 1.389 . S
C379 C361 1.392 . S
C380 C351 1.392 . S
C380 C353 1.389 . S
C381 C356 1.395 . S
C381 C358 1.391 . S
H382 C342 0.951 . S
H383 C343 0.950 . S
H384 C349 0.949 . S
H385 C350 0.950 . S
H386 C354 0.951 . S
H387 C355 0.950 . S
H388 C359 0.949 . S
H389 C360 0.950 . S
H390 C364 0.950 . S
H391 C366 0.950 . S
H392 C369 0.950 . S
H393 C371 0.950 . S
C394 C395 1.443 . S
C394 N398 1.376 . S
C394 C432 1.389 . S
C395 C394 1.443 . S
C395 C396 1.340 . S
C395 H435 0.951 . S
C396 C395 1.340 . S
C396 C397 1.439 . S
C396 H436 0.950 . S
C397 C396 1.439 . S
C397 N398 1.374 . S
C397 C431 1.395 1_565 S
N398 C394 1.376 . S
N398 C397 1.374 . S
N398 Co399 2.008 1_565 S
Co399 N398 2.008 1_545 S
Co399 N400 1.995 . S
Co399 N405 2.008 . S
Co399 N410 1.995 1_545 S
Co399 N415 2.282 . S
Co399 N421 2.282 1_545 S
N400 Co399 1.995 . S
N400 C401 1.376 . S
N400 C404 1.383 . S
C401 N400 1.376 . S
C401 C402 1.446 . S
C401 C431 1.391 . S
C402 C401 1.446 . S
C402 C403 1.339 . S
C402 H437 0.949 . S
C403 C402 1.339 . S
C403 C404 1.439 . S
C403 H438 0.950 . S
C404 N400 1.383 . S
C404 C403 1.439 . S
C404 C433 1.392 . S
N405 Co399 2.008 . S
N405 C406 1.376 . S
N405 C409 1.374 . S
C406 N405 1.376 . S
C406 C407 1.443 . S
C406 C433 1.389 . S
C407 C406 1.443 . S
C407 C408 1.340 . S
C407 H439 0.951 . S
C408 C407 1.340 . S
C408 C409 1.439 . S
C408 H440 0.950 . S
C409 N405 1.374 . S
C409 C408 1.439 . S
C409 C434 1.395 . S
N410 Co399 1.995 1_565 S
N410 C411 1.376 . S
N410 C414 1.383 . S
C411 N410 1.376 . S
C411 C412 1.446 . S
C411 C434 1.391 1_565 S
C412 C411 1.446 . S
C412 C413 1.339 . S
C412 H441 0.949 . S
C413 C412 1.339 . S
C413 C414 1.439 . S
C413 H442 0.950 . S
C414 N410 1.383 . S
C414 C413 1.439 . S
C414 C432 1.392 . S
N415 Co399 2.282 . S
N415 C418 1.332 . S
N415 C420 1.332 . S
C416 C417 1.386 . S
C416 C419 1.388 . S
C417 C416 1.386 . S
C417 C418 1.382 . S
C417 H443 0.950 . S
C418 N415 1.332 . S
C418 C417 1.382 . S
C418 H429 0.952 . S
C419 C416 1.388 . S
C419 C420 1.382 . S
C419 H444 0.950 . S
C420 N415 1.332 . S
C420 C419 1.382 . S
C420 H430 0.948 . S
N421 Co399 2.282 1_565 S
N421 C425 1.332 . S
N421 C426 1.332 . S
C422 C423 1.388 . S
C422 C426 1.382 . S
C422 H445 0.950 . S
C423 C422 1.388 . S
C423 C424 1.386 . S
C424 C423 1.386 . S
C424 C425 1.382 . S
C424 H446 0.950 . S
C425 N421 1.332 . S
C425 C424 1.382 . S
C425 H427 0.952 . S
C426 N421 1.332 . S
C426 C422 1.382 . S
C426 H428 0.948 . S
H427 C425 0.952 . S
H428 C426 0.948 . S
H429 C418 0.952 . S
H430 C420 0.948 . S
C431 C397 1.395 1_545 S
C431 C401 1.391 . S
C432 C394 1.389 . S
C432 C414 1.392 . S
C433 C404 1.392 . S
C433 C406 1.389 . S
C434 C409 1.395 . S
C434 C411 1.391 1_545 S
H435 C395 0.951 . S
H436 C396 0.950 . S
H437 C402 0.949 . S
H438 C403 0.950 . S
H439 C407 0.951 . S
H440 C408 0.950 . S
H441 C412 0.949 . S
H442 C413 0.950 . S
H443 C417 0.950 . S
H444 C419 0.950 . S
H445 C422 0.950 . S
H446 C424 0.950 . S
C447 C448 1.443 . S
C447 N451 1.376 . S
C447 C485 1.389 . S
C448 C447 1.443 . S
C448 C449 1.340 . S
C448 H488 0.951 . S
C449 C448 1.340 . S
C449 C450 1.439 . S
C449 H489 0.950 . S
C450 C449 1.439 . S
C450 N451 1.374 . S
C450 C484 1.395 . S
N451 C447 1.376 . S
N451 C450 1.374 . S
N451 Co452 2.008 . S
Co452 N451 2.008 . S
Co452 N453 1.995 . S
Co452 N458 2.008 1_554 S
Co452 N463 1.995 . S
Co452 N468 2.282 1_554 S
Co452 N474 2.282 . S
N453 Co452 1.995 . S
N453 C454 1.376 . S
N453 C457 1.382 1_554 S
C454 N453 1.376 . S
C454 C455 1.446 1_554 S
C454 C484 1.391 . S
C455 C454 1.446 1_556 S
C455 C456 1.339 . S
C455 H490 0.949 . S
C456 C455 1.339 . S
C456 C457 1.439 . S
C456 H491 0.950 . S
C457 N453 1.382 1_556 S
C457 C456 1.439 . S
C457 C486 1.392 . S
N458 Co452 2.008 1_556 S
N458 C459 1.376 . S
N458 C462 1.374 1_556 S
C459 N458 1.376 . S
C459 C460 1.443 . S
C459 C486 1.389 . S
C460 C459 1.443 . S
C460 C461 1.340 . S
C460 H492 0.951 . S
C461 C460 1.340 . S
C461 C462 1.424 1_556 S
C461 H493 0.950 . S
C462 N458 1.374 1_554 S
C462 C461 1.424 1_554 S
C462 C487 1.407 . S
N463 Co452 1.995 . S
N463 C464 1.376 . S
N463 C467 1.383 . S
C464 N463 1.376 . S
C464 C465 1.446 . S
C464 C487 1.391 . S
C465 C464 1.446 . S
C465 C466 1.339 . S
C465 H494 0.949 . S
C466 C465 1.339 . S
C466 C467 1.439 . S
C466 H495 0.950 . S
C467 N463 1.383 . S
C467 C466 1.439 . S
C467 C485 1.392 . S
N468 Co452 2.282 1_556 S
N468 C471 1.332 . S
N468 C473 1.332 . S
C469 C470 1.386 . S
C469 C472 1.388 . S
C470 C469 1.386 . S
C470 C471 1.382 . S
C470 H496 0.950 . S
C471 N468 1.332 . S
C471 C470 1.382 . S
C471 H482 0.952 . S
C472 C469 1.388 . S
C472 C473 1.382 . S
C472 H497 0.950 . S
C473 N468 1.332 . S
C473 C472 1.382 . S
C473 H483 0.948 . S
N474 Co452 2.282 . S
N474 C478 1.332 . S
N474 C479 1.332 . S
C475 C476 1.388 . S
C475 C479 1.382 . S
C475 H498 0.950 . S
C476 C475 1.388 . S
C476 C477 1.386 . S
C477 C476 1.386 . S
C477 C478 1.382 . S
C477 H499 0.950 . S
C478 N474 1.332 . S
C478 C477 1.382 . S
C478 H480 0.952 . S
C479 N474 1.332 . S
C479 C475 1.382 . S
C479 H481 0.948 . S
H480 C478 0.952 . S
H481 C479 0.948 . S
H482 C471 0.952 . S
H483 C473 0.948 . S
C484 C450 1.395 . S
C484 C454 1.391 . S
C485 C447 1.389 . S
C485 C467 1.392 . S
C486 C457 1.392 . S
C486 C459 1.389 . S
C487 C462 1.407 . S
C487 C464 1.391 . S
H488 C448 0.951 . S
H489 C449 0.950 . S
H490 C455 0.949 . S
H491 C456 0.950 . S
H492 C460 0.951 . S
H493 C461 0.950 . S
H494 C465 0.949 . S
H495 C466 0.950 . S
H496 C470 0.950 . S
H497 C472 0.950 . S
H498 C475 0.950 . S
H499 C477 0.950 . S
C500 C501 1.443 . S
C500 N504 1.376 1_565 S
C500 C538 1.389 . S
C501 C500 1.443 . S
C501 C502 1.340 . S
C501 H541 0.951 . S
C502 C501 1.340 . S
C502 C503 1.439 1_565 S
C502 H542 0.950 . S
C503 C502 1.439 1_545 S
C503 N504 1.374 . S
C503 C537 1.395 . S
N504 C500 1.376 1_545 S
N504 C503 1.374 . S
N504 Co505 2.008 . S
Co505 N504 2.008 . S
Co505 N506 1.995 . S
Co505 N511 2.008 . S
Co505 N516 1.995 . S
Co505 N521 2.282 . S
Co505 N527 2.282 1_545 S
N506 Co505 1.995 . S
N506 C507 1.376 . S
N506 C510 1.383 . S
C507 N506 1.376 . S
C507 C508 1.446 . S
C507 C537 1.391 . S
C508 C507 1.446 . S
C508 C509 1.339 . S
C508 H543 0.949 . S
C509 C508 1.339 . S
C509 C510 1.439 . S
C509 H544 0.950 . S
C510 N506 1.383 . S
C510 C509 1.439 . S
C510 C539 1.392 . S
N511 Co505 2.008 . S
N511 C512 1.376 . S
N511 C515 1.374 . S
C512 N511 1.376 . S
C512 C513 1.443 . S
C512 C539 1.389 . S
C513 C512 1.443 . S
C513 C514 1.340 . S
C513 H545 0.951 . S
C514 C513 1.340 . S
C514 C515 1.439 . S
C514 H546 0.950 . S
C515 N511 1.374 . S
C515 C514 1.439 . S
C515 C540 1.395 . S
N516 Co505 1.995 . S
N516 C517 1.376 . S
N516 C520 1.383 1_545 S
C517 N516 1.376 . S
C517 C518 1.446 1_545 S
C517 C540 1.391 . S
C518 C517 1.446 1_565 S
C518 C519 1.339 . S
C518 H547 0.949 . S
C519 C518 1.339 . S
C519 C520 1.439 . S
C519 H548 0.950 . S
C520 N516 1.383 1_565 S
C520 C519 1.439 . S
C520 C538 1.392 . S
N521 Co505 2.282 . S
N521 C524 1.332 . S
N521 C526 1.332 . S
C522 C523 1.386 . S
C522 C525 1.388 . S
C523 C522 1.386 . S
C523 C524 1.382 . S
C523 H549 0.950 . S
C524 N521 1.332 . S
C524 C523 1.382 . S
C524 H535 0.952 . S
C525 C522 1.388 . S
C525 C526 1.382 . S
C525 H550 0.950 . S
C526 N521 1.332 . S
C526 C525 1.382 . S
C526 H536 0.948 . S
N527 Co505 2.282 1_565 S
N527 C531 1.332 . S
N527 C532 1.332 . S
C528 C529 1.388 . S
C528 C532 1.382 . S
C528 H551 0.950 . S
C529 C528 1.388 . S
C529 C530 1.386 . S
C530 C529 1.386 . S
C530 C531 1.382 . S
C530 H552 0.950 . S
C531 N527 1.332 . S
C531 C530 1.382 . S
C531 H533 0.952 . S
C532 N527 1.332 . S
C532 C528 1.382 . S
C532 H534 0.948 . S
H533 C531 0.952 . S
H534 C532 0.948 . S
H535 C524 0.952 . S
H536 C526 0.948 . S
C537 C503 1.395 . S
C537 C507 1.391 . S
C538 C500 1.389 . S
C538 C520 1.392 . S
C539 C510 1.392 . S
C539 C512 1.389 . S
C540 C515 1.395 . S
C540 C517 1.391 . S
H541 C501 0.951 . S
H542 C502 0.950 . S
H543 C508 0.949 . S
H544 C509 0.950 . S
H545 C513 0.951 . S
H546 C514 0.950 . S
H547 C518 0.949 . S
H548 C519 0.950 . S
H549 C523 0.950 . S
H550 C525 0.950 . S
H551 C528 0.950 . S
H552 C530 0.950 . S
C553 C554 1.443 . S
C553 N557 1.376 . S
C553 C591 1.389 . S
C554 C553 1.443 . S
C554 C555 1.340 . S
C554 H594 0.951 . S
C555 C554 1.340 . S
C555 C556 1.439 . S
C555 H595 0.950 . S
C556 C555 1.439 . S
C556 N557 1.374 . S
C556 C590 1.395 . S
N557 C553 1.376 . S
N557 C556 1.374 . S
N557 Co558 2.008 . S
Co558 N557 2.008 . S
Co558 N559 1.995 . S
Co558 N564 2.008 . S
Co558 N569 1.995 . S
Co558 N574 2.281 . S
Co558 N580 2.282 . S
N559 Co558 1.995 . S
N559 C560 1.376 . S
N559 C563 1.383 1_554 S
C560 N559 1.376 . S
C560 C561 1.446 1_554 S
C560 C590 1.391 . S
C561 C560 1.446 1_556 S
C561 C562 1.339 . S
C561 H596 0.949 . S
C562 C561 1.339 . S
C562 C563 1.439 . S
C562 H597 0.950 . S
C563 N559 1.383 1_556 S
C563 C562 1.439 . S
C563 C592 1.392 . S
N564 Co558 2.008 . S
N564 C565 1.376 1_554 S
N564 C568 1.374 . S
C565 N564 1.376 1_556 S
C565 C566 1.443 . S
C565 C592 1.389 . S
C566 C565 1.443 . S
C566 C567 1.340 . S
C566 H598 0.951 . S
C567 C566 1.340 . S
C567 C568 1.439 1_556 S
C567 H599 0.950 . S
C568 N564 1.374 . S
C568 C567 1.439 1_554 S
C568 C593 1.395 . S
N569 Co558 1.995 . S
N569 C570 1.376 . S
N569 C573 1.383 . S
C570 N569 1.376 . S
C570 C571 1.446 . S
C570 C593 1.391 . S
C571 C570 1.446 . S
C571 C572 1.339 . S
C571 H600 0.949 . S
C572 C571 1.339 . S
C572 C573 1.439 . S
C572 H601 0.950 . S
C573 N569 1.383 . S
C573 C572 1.439 . S
C573 C591 1.392 . S
N574 Co558 2.281 . S
N574 C577 1.333 1_554 S
N574 C579 1.333 1_554 S
C575 C576 1.386 . S
C575 C578 1.388 . S
C576 C575 1.386 . S
C576 C577 1.382 . S
C576 H602 0.950 . S
C577 N574 1.333 1_556 S
C577 C576 1.382 . S
C577 H588 0.952 1_556 S
C578 C575 1.388 . S
C578 C579 1.382 . S
C578 H603 0.950 . S
C579 N574 1.333 1_556 S
C579 C578 1.382 . S
C579 H589 0.948 . S
N580 Co558 2.282 . S
N580 C584 1.332 . S
N580 C585 1.332 . S
C581 C582 1.388 . S
C581 C585 1.382 . S
C581 H604 0.950 . S
C582 C581 1.388 . S
C582 C583 1.386 . S
C583 C582 1.386 . S
C583 C584 1.382 . S
C583 H605 0.950 . S
C584 N580 1.332 . S
C584 C583 1.382 . S
C584 H586 0.952 . S
C585 N580 1.332 . S
C585 C581 1.382 . S
C585 H587 0.948 . S
H586 C584 0.952 . S
H587 C585 0.948 . S
H588 C577 0.952 1_554 S
H589 C579 0.948 . S
C590 C556 1.395 . S
C590 C560 1.391 . S
C591 C553 1.389 . S
C591 C573 1.392 . S
C592 C563 1.392 . S
C592 C565 1.389 . S
C593 C568 1.395 . S
C593 C570 1.391 . S
H594 C554 0.951 . S
H595 C555 0.950 . S
H596 C561 0.949 . S
H597 C562 0.950 . S
H598 C566 0.951 . S
H599 C567 0.950 . S
H600 C571 0.949 . S
H601 C572 0.950 . S
H602 C576 0.950 . S
H603 C578 0.950 . S
H604 C581 0.950 . S
H605 C583 0.950 . S
C606 C607 1.369 . S
C606 C608 1.419 . S
C606 H610 0.930 . S
C607 C606 1.369 . S
C607 C616 1.429 . S
C608 C606 1.419 . S
C608 C609 1.363 . S
C608 H611 0.929 . S
C609 C608 1.363 . S
C609 C615 1.428 . S
H610 C606 0.930 . S
H611 C608 0.929 . S
S612 N613 1.613 . S
S612 N614 1.610 . S
N613 S612 1.613 . S
N613 C616 1.350 . S
N614 S612 1.610 . S
N614 C615 1.351 . S
C615 C609 1.428 . S
C615 N614 1.351 . S
C615 C616 1.434 . S
C616 C607 1.429 . S
C616 N613 1.350 . S
C616 C615 1.434 . S
C617 C618 1.369 . S
C617 C619 1.419 . S
C617 H621 0.930 . S
C618 C617 1.369 . S
C618 C627 1.429 . S
C619 C617 1.419 . S
C619 C620 1.363 . S
C619 H622 0.929 . S
C620 C619 1.363 . S
C620 C626 1.428 . S
H621 C617 0.930 . S
H622 C619 0.929 . S
S623 N624 1.613 . S
S623 N625 1.610 . S
N624 S623 1.613 . S
N624 C627 1.350 . S
N625 S623 1.610 . S
N625 C626 1.351 . S
C626 C620 1.428 . S
C626 N625 1.351 . S
C626 C627 1.434 . S
C627 C618 1.429 . S
C627 N624 1.350 . S
C627 C626 1.434 . S
C628 C629 1.369 . S
C628 C630 1.419 . S
C628 H632 0.930 . S
C629 C628 1.369 . S
C629 C638 1.429 . S
C630 C628 1.419 . S
C630 C631 1.363 . S
C630 H633 0.929 . S
C631 C630 1.363 . S
C631 C637 1.428 . S
H632 C628 0.930 . S
H633 C630 0.929 . S
S634 N635 1.613 . S
S634 N636 1.610 . S
N635 S634 1.613 . S
N635 C638 1.350 . S
N636 S634 1.610 . S
N636 C637 1.351 . S
C637 C631 1.428 . S
C637 N636 1.351 . S
C637 C638 1.434 . S
C638 C629 1.429 . S
C638 N635 1.350 . S
C638 C637 1.434 . S
C639 C640 1.369 . S
C639 C641 1.419 . S
C639 H643 0.930 . S
C640 C639 1.369 . S
C640 C649 1.429 . S
C641 C639 1.419 . S
C641 C642 1.363 . S
C641 H644 0.929 . S
C642 C641 1.363 . S
C642 C648 1.428 . S
H643 C639 0.930 . S
H644 C641 0.929 . S
S645 N646 1.613 . S
S645 N647 1.610 . S
N646 S645 1.613 . S
N646 C649 1.350 . S
N647 S645 1.610 . S
N647 C648 1.351 . S
C648 C642 1.428 . S
C648 N647 1.351 . S
C648 C649 1.434 . S
C649 C640 1.429 . S
C649 N646 1.350 . S
C649 C648 1.434 . S
C650 C651 1.369 . S
C650 C652 1.419 . S
C650 H654 0.930 . S
C651 C650 1.369 . S
C651 C660 1.429 . S
C652 C650 1.419 . S
C652 C653 1.363 . S
C652 H655 0.929 . S
C653 C652 1.363 . S
C653 C659 1.428 . S
H654 C650 0.930 . S
H655 C652 0.929 . S
S656 N657 1.613 . S
S656 N658 1.610 . S
N657 S656 1.613 . S
N657 C660 1.350 . S
N658 S656 1.610 . S
N658 C659 1.351 . S
C659 C653 1.428 . S
C659 N658 1.351 . S
C659 C660 1.434 . S
C660 C651 1.429 . S
C660 N657 1.350 . S
C660 C659 1.434 . S
C661 C662 1.369 . S
C661 C663 1.419 . S
C661 H665 0.930 . S
C662 C661 1.369 . S
C662 C671 1.429 . S
C663 C661 1.419 . S
C663 C664 1.363 . S
C663 H666 0.929 . S
C664 C663 1.363 . S
C664 C670 1.428 . S
H665 C661 0.930 . S
H666 C663 0.929 . S
S667 N668 1.613 . S
S667 N669 1.610 . S
N668 S667 1.613 . S
N668 C671 1.350 . S
N669 S667 1.610 . S
N669 C670 1.351 . S
C670 C664 1.428 . S
C670 N669 1.351 . S
C670 C671 1.434 . S
C671 C662 1.429 . S
C671 N668 1.350 . S
C671 C670 1.434 . S
C672 C673 1.369 . S
C672 C674 1.419 . S
C672 H676 0.930 . S
C673 C672 1.369 . S
C673 C682 1.429 . S
C674 C672 1.419 . S
C674 C675 1.363 . S
C674 H677 0.929 . S
C675 C674 1.363 . S
C675 C681 1.428 . S
H676 C672 0.930 . S
H677 C674 0.929 . S
S678 N679 1.613 . S
S678 N680 1.610 . S
N679 S678 1.613 . S
N679 C682 1.350 . S
N680 S678 1.610 . S
N680 C681 1.351 . S
C681 C675 1.428 . S
C681 N680 1.351 . S
C681 C682 1.434 . S
C682 C673 1.429 . S
C682 N679 1.350 . S
C682 C681 1.434 . S
C683 C684 1.369 . S
C683 C685 1.419 . S
C683 H687 0.930 . S
C684 C683 1.369 . S
C684 C693 1.429 . S
C685 C683 1.419 . S
C685 C686 1.363 . S
C685 H688 0.929 . S
C686 C685 1.363 . S
C686 C692 1.428 . S
H687 C683 0.930 . S
H688 C685 0.929 . S
S689 N690 1.613 . S
S689 N691 1.610 . S
N690 S689 1.613 . S
N690 C693 1.350 . S
N691 S689 1.610 . S
N691 C692 1.351 . S
C692 C686 1.428 . S
C692 N691 1.351 . S
C692 C693 1.434 . S
C693 C684 1.429 . S
C693 N690 1.350 . S
C693 C692 1.434 . S
C694 C695 1.369 . S
C694 C696 1.419 . S
C694 H698 0.930 . S
C695 C694 1.369 . S
C695 C704 1.429 . S
C696 C694 1.419 . S
C696 C697 1.363 . S
C696 H699 0.929 . S
C697 C696 1.363 . S
C697 C703 1.428 . S
H698 C694 0.930 . S
H699 C696 0.929 . S
S700 N701 1.613 . S
S700 N702 1.610 . S
N701 S700 1.613 . S
N701 C704 1.350 . S
N702 S700 1.610 . S
N702 C703 1.351 . S
C703 C697 1.428 . S
C703 N702 1.351 . S
C703 C704 1.434 . S
C704 C695 1.429 . S
C704 N701 1.350 . S
C704 C703 1.434 . S
C705 C706 1.369 . S
C705 C707 1.419 . S
C705 H709 0.930 . S
C706 C705 1.369 . S
C706 C715 1.429 . S
C707 C705 1.419 . S
C707 C708 1.363 . S
C707 H710 0.929 . S
C708 C707 1.363 . S
C708 C714 1.428 . S
H709 C705 0.930 . S
H710 C707 0.929 . S
S711 N712 1.613 . S
S711 N713 1.610 . S
N712 S711 1.613 . S
N712 C715 1.350 . S
N713 S711 1.610 . S
N713 C714 1.351 . S
C714 C708 1.428 . S
C714 N713 1.351 . S
C714 C715 1.434 . S
C715 C706 1.429 . S
C715 N712 1.350 . S
C715 C714 1.434 . S
C716 C717 1.369 . S
C716 C718 1.419 . S
C716 H720 0.930 . S
C717 C716 1.369 . S
C717 C726 1.429 . S
C718 C716 1.419 . S
C718 C719 1.363 . S
C718 H721 0.929 . S
C719 C718 1.363 . S
C719 C725 1.428 . S
H720 C716 0.930 . S
H721 C718 0.929 . S
S722 N723 1.613 . S
S722 N724 1.610 . S
N723 S722 1.613 . S
N723 C726 1.350 . S
N724 S722 1.610 . S
N724 C725 1.351 . S
C725 C719 1.428 . S
C725 N724 1.351 . S
C725 C726 1.434 . S
C726 C717 1.429 . S
C726 N723 1.350 . S
C726 C725 1.434 . S
C727 C728 1.369 . S
C727 C729 1.419 . S
C727 H731 0.930 . S
C728 C727 1.369 . S
C728 C737 1.429 . S
C729 C727 1.419 . S
C729 C730 1.363 . S
C729 H732 0.929 . S
C730 C729 1.363 . S
C730 C736 1.428 . S
H731 C727 0.930 . S
H732 C729 0.929 . S
S733 N734 1.613 . S
S733 N735 1.610 . S
N734 S733 1.613 . S
N734 C737 1.350 . S
N735 S733 1.610 . S
N735 C736 1.351 . S
C736 C730 1.428 . S
C736 N735 1.351 . S
C736 C737 1.434 . S
C737 C728 1.429 . S
C737 N734 1.350 . S
C737 C736 1.434 . S
C738 C739 1.369 . S
C738 C740 1.419 . S
C738 H742 0.930 . S
C739 C738 1.369 . S
C739 C748 1.429 . S
C740 C738 1.419 . S
C740 C741 1.363 . S
C740 H743 0.929 . S
C741 C740 1.363 . S
C741 C747 1.428 . S
H742 C738 0.930 . S
H743 C740 0.929 . S
S744 N745 1.613 . S
S744 N746 1.610 . S
N745 S744 1.613 . S
N745 C748 1.350 . S
N746 S744 1.610 . S
N746 C747 1.351 . S
C747 C741 1.428 . S
C747 N746 1.351 . S
C747 C748 1.434 . S
C748 C739 1.429 . S
C748 N745 1.350 . S
C748 C747 1.434 . S
C749 C750 1.369 . S
C749 C751 1.419 . S
C749 H753 0.930 . S
C750 C749 1.369 . S
C750 C759 1.429 . S
C751 C749 1.419 . S
C751 C752 1.363 . S
C751 H754 0.929 . S
C752 C751 1.363 . S
C752 C758 1.428 . S
H753 C749 0.930 . S
H754 C751 0.929 . S
S755 N756 1.613 . S
S755 N757 1.610 . S
N756 S755 1.613 . S
N756 C759 1.350 . S
N757 S755 1.610 . S
N757 C758 1.351 . S
C758 C752 1.428 . S
C758 N757 1.351 . S
C758 C759 1.434 . S
C759 C750 1.429 . S
C759 N756 1.350 . S
C759 C758 1.434 . S
C760 C761 1.369 . S
C760 C762 1.419 . S
C760 H764 0.930 . S
C761 C760 1.369 . S
C761 C770 1.429 . S
C762 C760 1.419 . S
C762 C763 1.363 . S
C762 H765 0.929 . S
C763 C762 1.363 . S
C763 C769 1.428 . S
H764 C760 0.930 . S
H765 C762 0.929 . S
S766 N767 1.613 . S
S766 N768 1.610 . S
N767 S766 1.613 . S
N767 C770 1.350 . S
N768 S766 1.610 . S
N768 C769 1.351 . S
C769 C763 1.428 . S
C769 N768 1.351 . S
C769 C770 1.434 . S
C770 C761 1.429 . S
C770 N767 1.350 . S
C770 C769 1.434 . S
C771 C772 1.369 . S
C771 C773 1.419 . S
C771 H775 0.930 . S
C772 C771 1.369 . S
C772 C781 1.429 . S
C773 C771 1.419 . S
C773 C774 1.363 . S
C773 H776 0.929 . S
C774 C773 1.363 . S
C774 C780 1.428 . S
H775 C771 0.930 . S
H776 C773 0.929 . S
S777 N778 1.613 . S
S777 N779 1.610 . S
N778 S777 1.613 . S
N778 C781 1.350 . S
N779 S777 1.610 . S
N779 C780 1.351 . S
C780 C774 1.428 . S
C780 N779 1.351 . S
C780 C781 1.434 . S
C781 C772 1.429 . S
C781 N778 1.350 . S
C781 C780 1.434 . S
C782 C783 1.369 . S
C782 C784 1.419 . S
C782 H786 0.930 . S
C783 C782 1.369 . S
C783 C792 1.429 . S
C784 C782 1.419 . S
C784 C785 1.363 . S
C784 H787 0.929 . S
C785 C784 1.363 . S
C785 C791 1.428 . S
H786 C782 0.930 . S
H787 C784 0.929 . S
S788 N789 1.613 . S
S788 N790 1.610 . S
N789 S788 1.613 . S
N789 C792 1.350 . S
N790 S788 1.610 . S
N790 C791 1.351 . S
C791 C785 1.428 . S
C791 N790 1.351 . S
C791 C792 1.434 . S
C792 C783 1.429 . S
C792 N789 1.350 . S
C792 C791 1.434 . S
C793 C794 1.369 . S
C793 C795 1.419 . S
C793 H797 0.930 . S
C794 C793 1.369 . S
C794 C803 1.429 . S
C795 C793 1.419 . S
C795 C796 1.363 . S
C795 H798 0.929 . S
C796 C795 1.363 . S
C796 C802 1.428 . S
H797 C793 0.930 . S
H798 C795 0.929 . S
S799 N800 1.613 . S
S799 N801 1.610 . S
N800 S799 1.613 . S
N800 C803 1.350 . S
N801 S799 1.610 . S
N801 C802 1.351 . S
C802 C796 1.428 . S
C802 N801 1.351 . S
C802 C803 1.434 . S
C803 C794 1.429 . S
C803 N800 1.350 . S
C803 C802 1.434 . S
C804 C805 1.369 . S
C804 C806 1.419 . S
C804 H808 0.930 . S
C805 C804 1.369 . S
C805 C814 1.429 . S
C806 C804 1.419 . S
C806 C807 1.363 . S
C806 H809 0.929 . S
C807 C806 1.363 . S
C807 C813 1.428 . S
H808 C804 0.930 . S
H809 C806 0.929 . S
S810 N811 1.613 . S
S810 N812 1.610 . S
N811 S810 1.613 . S
N811 C814 1.350 . S
N812 S810 1.610 . S
N812 C813 1.351 . S
C813 C807 1.428 . S
C813 N812 1.351 . S
C813 C814 1.434 . S
C814 C805 1.429 . S
C814 N811 1.350 . S
C814 C813 1.434 . S
C815 C816 1.369 . S
C815 C817 1.419 . S
C815 H819 0.930 . S
C816 C815 1.369 . S
C816 C825 1.429 . S
C817 C815 1.419 . S
C817 C818 1.363 . S
C817 H820 0.929 . S
C818 C817 1.363 . S
C818 C824 1.428 . S
H819 C815 0.930 . S
H820 C817 0.929 . S
S821 N822 1.613 . S
S821 N823 1.610 . S
N822 S821 1.613 . S
N822 C825 1.350 . S
N823 S821 1.610 . S
N823 C824 1.351 . S
C824 C818 1.428 . S
C824 N823 1.351 . S
C824 C825 1.434 . S
C825 C816 1.429 . S
C825 N822 1.350 . S
C825 C824 1.434 . S
C826 C827 1.369 . S
C826 C828 1.419 . S
C826 H830 0.930 . S
C827 C826 1.369 . S
C827 C836 1.429 . S
C828 C826 1.419 . S
C828 C829 1.363 . S
C828 H831 0.929 . S
C829 C828 1.363 . S
C829 C835 1.428 . S
H830 C826 0.930 . S
H831 C828 0.929 . S
S832 N833 1.613 . S
S832 N834 1.610 . S
N833 S832 1.613 . S
N833 C836 1.350 . S
N834 S832 1.610 . S
N834 C835 1.351 . S
C835 C829 1.428 . S
C835 N834 1.351 . S
C835 C836 1.434 . S
C836 C827 1.429 . S
C836 N833 1.350 . S
C836 C835 1.434 . S
C837 C838 1.369 . S
C837 C839 1.419 . S
C837 H841 0.930 . S
C838 C837 1.369 . S
C838 C847 1.429 . S
C839 C837 1.419 . S
C839 C840 1.363 . S
C839 H842 0.929 . S
C840 C839 1.363 . S
C840 C846 1.428 . S
H841 C837 0.930 . S
H842 C839 0.929 . S
S843 N844 1.613 . S
S843 N845 1.610 . S
N844 S843 1.613 . S
N844 C847 1.350 . S
N845 S843 1.610 . S
N845 C846 1.351 . S
C846 C840 1.428 . S
C846 N845 1.351 . S
C846 C847 1.434 . S
C847 C838 1.429 . S
C847 N844 1.350 . S
C847 C846 1.434 . S
C848 C849 1.369 . S
C848 C850 1.419 . S
C848 H852 0.930 . S
C849 C848 1.369 . S
C849 C858 1.429 . S
C850 C848 1.419 . S
C850 C851 1.363 . S
C850 H853 0.929 . S
C851 C850 1.363 . S
C851 C857 1.428 . S
H852 C848 0.930 . S
H853 C850 0.929 . S
S854 N855 1.613 . S
S854 N856 1.610 . S
N855 S854 1.613 . S
N855 C858 1.350 . S
N856 S854 1.610 . S
N856 C857 1.351 . S
C857 C851 1.428 . S
C857 N856 1.351 . S
C857 C858 1.434 . S
C858 C849 1.429 . S
C858 N855 1.350 . S
C858 C857 1.434 . S
C859 C860 1.369 . S
C859 C861 1.419 . S
C859 H863 0.930 . S
C860 C859 1.369 . S
C860 C869 1.429 . S
C861 C859 1.419 . S
C861 C862 1.363 . S
C861 H864 0.929 . S
C862 C861 1.363 . S
C862 C868 1.428 . S
H863 C859 0.930 . S
H864 C861 0.929 . S
S865 N866 1.613 . S
S865 N867 1.610 . S
N866 S865 1.613 . S
N866 C869 1.350 . S
N867 S865 1.610 . S
N867 C868 1.351 . S
C868 C862 1.428 . S
C868 N867 1.351 . S
C868 C869 1.434 . S
C869 C860 1.429 . S
C869 N866 1.350 . S
C869 C868 1.434 . S
C609 C310 1.549 . S
C607 C25 1.553 . S
C620 C379 1.537 . S
C618 C37 1.546 . S
C631 C317 1.556 . S
C629 C103 1.563 . S
C642 C380 1.546 . S
C640 C139 1.549 . S
C653 C433 1.552 . S
C651 C31 1.561 . S
C664 C469 1.527 . S
C662 C67 1.529 . S
C673 C97 1.560 . S
C675 C529 1.571 . S
C686 C592 1.519 . S
C684 C133 1.522 . S
C697 C432 1.539 . S
C695 C61 1.553 . S
C706 C73 1.518 . S
C708 C476 1.532 . S
C719 C522 1.563 . S
C717 C109 1.573 . S
C730 C591 1.527 . S
C728 C1 1.531 . S
C739 C169 1.544 . S
C741 C370 1.550 . S
C752 C327 1.544 . S
C750 C211 1.543 . S
C761 C241 1.548 . S
C763 C363 1.539 . S
C772 C253 1.541 . S
C774 C326 1.544 . S
C785 C538 1.571 . S
C783 C175 1.563 . S
C796 C582 1.525 . S
C794 C205 1.515 . S
C807 C416 1.551 . S
C805 C217 1.558 . S
C816 C283 1.517 . S
C818 C485 1.530 . S
C829 C539 1.558 . S
C827 C181 1.558 . S
C840 C575 1.527 . S
C838 C247 1.531 . S
C851 C423 1.550 . S
C849 C277 1.544 . S
C860 C145 1.527 . S
C862 C486 1.535 . S
