# Generated by pormake.
# Topology pth, (4,4)-cn, num edge types: 1
# Building blocks:
#     Node 0, Type 0, BuildingBlock: CEKHIL_clean_sbu_0, # of connection points: 4
#     Node 1, Type 0, BuildingBlock: CEKHIL_clean_sbu_0, # of connection points: 4
#     Node 2, Type 0, BuildingBlock: CEKHIL_clean_sbu_0, # of connection points: 4
#     Node 3, Type 1, BuildingBlock: NAHDIM_clean_linker_0, # of connection points: 4
#     Node 4, Type 1, BuildingBlock: NAHDIM_clean_linker_0, # of connection points: 4
#     Node 5, Type 1, BuildingBlock: NAHDIM_clean_linker_0, # of connection points: 4
#     Edge 6, Type (0, 1), BuildingBlock: XIVTED_clean_linker_0, # of connection points: 2
#     Edge 7, Type (0, 1), BuildingBlock: XIVTED_clean_linker_0, # of connection points: 2
#     Edge 8, Type (0, 1), BuildingBlock: XIVTED_clean_linker_0, # of connection points: 2
#     Edge 9, Type (0, 1), BuildingBlock: XIVTED_clean_linker_0, # of connection points: 2
#     Edge 10, Type (0, 1), BuildingBlock: XIVTED_clean_linker_0, # of connection points: 2
#     Edge 11, Type (0, 1), BuildingBlock: XIVTED_clean_linker_0, # of connection points: 2
#     Edge 12, Type (0, 1), BuildingBlock: XIVTED_clean_linker_0, # of connection points: 2
#     Edge 13, Type (0, 1), BuildingBlock: XIVTED_clean_linker_0, # of connection points: 2
#     Edge 14, Type (0, 1), BuildingBlock: XIVTED_clean_linker_0, # of connection points: 2
#     Edge 15, Type (0, 1), BuildingBlock: XIVTED_clean_linker_0, # of connection points: 2
#     Edge 16, Type (0, 1), BuildingBlock: XIVTED_clean_linker_0, # of connection points: 2
#     Edge 17, Type (0, 1), BuildingBlock: XIVTED_clean_linker_0, # of connection points: 2
# Relax obj value: 0.007
# Max RMSD: 0.047
# Mean RMSD: 0.045
data_MOF--net-pth--node1-CEKHIL_clean_sbu_0--node2-NAHDIM_clean_linker_0--edge1-XIVTED_clean_linker_0
_symmetry_space_group_name_H-M    P1
_symmetry_Int_Tables_number       1
_symmetry_cell_setting            triclinic
loop_
_symmetry_equiv_pos_as_xyz
'x, y, z'
_cell_length_a     31.522186
_cell_length_b     31.58824
_cell_length_c     82.087674
_cell_angle_alpha  90.749978
_cell_angle_beta   90.53885
_cell_angle_gamma 120.28963
loop_
_atom_site_label
_atom_site_type_symbol
_atom_site_fract_x
_atom_site_fract_y
_atom_site_fract_z
_atom_type_partial_charge
Co0 Co 0.01943 0.0546 0.04647 0.0
O1 O 0.9843 0.9945 0.05794 0.0
O2 O 0.05148 0.0164 0.04369 0.0
C3 C 0.02163 0.10369 0.06691 0.0
O4 O 0.06548 0.11429 0.03337 0.0
Co5 Co 0.9679 0.1141 0.03904 0.0
O6 O 0.03447 0.16462 0.03211 0.0
C7 C 0.94037 0.02402 0.0201 0.0
C8 C 0.01736 0.98464 0.053 0.0
C9 C 0.06854 0.15502 0.02937 0.0
O10 O 0.97689 0.0227 0.0266 0.0
O11 O 0.92725 0.05473 0.0245 0.0
O12 O 0.05337 0.08906 0.06645 0.0
O13 O 0.98676 0.08443 0.05599 0.0
Co14 Co 0.03793 0.07736 0.36713 0.0
O15 O -0.00063 0.09271 0.35281 0.0
O16 O 0.07025 0.14767 0.36441 0.0
C17 C 0.03402 0.01634 0.35153 0.0
O18 O 0.08844 0.07454 0.38212 0.0
Co19 Co 0.99148 0.9743 0.3827 0.0
O20 O 0.06126 0.99516 0.38723 0.0
C21 C 0.96756 0.04748 0.39557 0.0
C22 C 0.03362 0.13825 0.35464 0.0
C23 C 0.09488 0.04018 0.38768 0.0
O24 O 0.00017 0.08055 0.38643 0.0
O25 O 0.9564 0.00247 0.39497 0.0
O26 O 0.06588 0.06162 0.34841 0.0
O27 O 0.00312 0.00992 0.36278 0.0
Co28 Co 0.02548 0.05567 0.69909 0.0
O29 O 0.08151 0.08878 0.6852 0.0
O30 O 0.06154 0.02132 0.69884 0.0
C31 C 0.97052 0.05713 0.68177 0.0
O32 O 0.97066 0.00976 0.71391 0.0
Co33 Co 0.96827 0.10514 0.71193 0.0
O34 O 0.9215 0.03958 0.72041 0.0
C35 C 0.06522 0.1328 0.72642 0.0
C36 C 0.09091 0.05434 0.68878 0.0
C37 C 0.93232 0.00581 0.72074 0.0
O38 O 0.06584 0.09795 0.7183 0.0
O39 O 0.03152 0.14377 0.72461 0.0
O40 O 0.98266 0.02365 0.68012 0.0
O41 O 0.99459 0.09046 0.69284 0.0
C42 C 0.90371 0.68291 0.29499 0.0
C43 C 0.95855 0.71135 0.29127 0.0
C44 C 0.98555 0.69477 0.26595 0.0
C45 C 0.03602 0.71277 0.26758 0.0
C46 C 0.05817 0.69061 0.25895 0.0
C47 C 0.0287 0.64904 0.24881 0.0
C48 C 0.97744 0.63079 0.24728 0.0
C49 C 0.95674 0.65474 0.25564 0.0
C50 C 0.11285 0.71137 0.26072 0.0
C51 C 0.94418 0.58552 0.2371 0.0
C52 C 0.0322 0.34423 0.30053 0.0
C53 C 0.02491 0.37466 0.28856 0.0
C54 C 0.06811 0.45187 0.27433 0.0
C55 C 0.02871 0.44023 0.26347 0.0
C56 C 0.03067 0.47475 0.25251 0.0
C57 C 0.07336 0.52173 0.25207 0.0
C58 C 0.11389 0.53303 0.26249 0.0
C59 C 0.11066 0.4979 0.27353 0.0
C60 C 0.98629 0.46136 0.24176 0.0
C61 C 0.1601 0.58258 0.26221 0.0
C62 C 0.10395 0.4459 0.14976 0.0
C63 C 0.05736 0.43187 0.15583 0.0
C64 C 0.04782 0.46671 0.163 0.0
C65 C 0.08591 0.51636 0.16421 0.0
C66 C 0.13229 0.53081 0.15747 0.0
C67 C 0.1405 0.4953 0.15013 0.0
C68 C 0.99727 0.45041 0.16943 0.0
C69 C 0.1734 0.58353 0.15834 0.0
C70 C 0.98043 0.7938 0.15146 0.0
C71 C 0.01107 0.7795 0.14084 0.0
C72 C 0.00531 0.70073 0.14608 0.0
C73 C 0.97132 0.65462 0.15184 0.0
C74 C 0.98687 0.62534 0.15958 0.0
C75 C 0.03777 0.64278 0.16146 0.0
C76 C 0.0723 0.68803 0.1547 0.0
C77 C 0.05568 0.71644 0.14693 0.0
C78 C 0.94897 0.57658 0.16625 0.0
C79 C 0.12673 0.70695 0.15611 0.0
C80 C 0.05073 0.62324 0.2403 0.0
C81 C 0.05985 0.59149 0.24939 0.0
C82 C 0.07321 0.56011 0.24186 0.0
C83 C 0.07851 0.56087 0.22475 0.0
C84 C 0.0917 0.52972 0.21674 0.0
C85 C 0.09271 0.52784 0.1998 0.0
C86 C 0.08035 0.55691 0.19025 0.0
C87 C 0.0777 0.55276 0.17304 0.0
C88 C 0.06479 0.58184 0.16394 0.0
C89 C 0.05471 0.61545 0.1716 0.0
C90 C 0.05771 0.62056 0.18878 0.0
C91 C 0.04826 0.65444 0.19684 0.0
C92 C 0.04772 0.65665 0.21376 0.0
C93 C 0.05616 0.62478 0.22323 0.0
C94 C 0.06892 0.59262 0.21539 0.0
C95 C 0.0696 0.59046 0.19813 0.0
C96 C 0.14971 0.37357 0.15776 0.0
C97 C 0.1029 0.36832 0.14998 0.0
O98 O 0.96394 0.71521 0.27455 0.0
O99 O 0.98812 0.72881 0.13976 0.0
O100 O 0.11443 0.41275 0.14319 0.0
O101 O 0.0659 0.42008 0.28581 0.0
H102 H 0.97536 0.69043 0.29633 0.0
H103 H 0.88624 0.64609 0.28897 0.0
H104 H 0.88532 0.7027 0.29041 0.0
H105 H 0.89808 0.67786 0.30833 0.0
H106 H 0.05785 0.74413 0.2756 0.0
H107 H 0.91767 0.64135 0.25458 0.0
H108 H 0.11994 0.68527 0.26747 0.0
H109 H 0.1313 0.74721 0.2674 0.0
H110 H 0.1295 0.71617 0.24853 0.0
H111 H 0.90476 0.57107 0.23972 0.0
H112 H 0.95292 0.55613 0.23928 0.0
H113 H 0.94978 0.59454 0.22399 0.0
H114 H 0.99021 0.37561 0.28991 0.0
H115 H 0.0061 0.33842 0.31073 0.0
H116 H 0.06635 0.36998 0.30789 0.0
H117 H 0.02516 0.2815 0.28536 0.0
H118 H 0.99579 0.40451 0.26366 0.0
H119 H 0.14109 0.50656 0.28181 0.0
H120 H 0.99585 0.46141 0.22879 0.0
H121 H 0.9746 0.48892 0.24336 0.0
H122 H 0.95468 0.4246 0.24446 0.0
H123 H 0.19039 0.58368 0.26958 0.0
H124 H 0.15233 0.61084 0.26712 0.0
H125 H 0.17242 0.59231 0.24947 0.0
H126 H 0.07543 0.35828 0.15978 0.0
H127 H 0.02838 0.39384 0.15485 0.0
H128 H 0.17602 0.50571 0.14509 0.0
H129 H -0.00083 0.45377 0.18293 0.0
H130 H 0.97034 0.41178 0.16591 0.0
H131 H 0.98371 0.47441 0.1648 0.0
H132 H 0.20779 0.58853 0.15295 0.0
H133 H 0.181 0.59663 0.17124 0.0
H134 H 0.1621 0.60683 0.15175 0.0
H135 H 0.04771 0.79576 0.147 0.0
H136 H 0.99783 0.83436 0.15233 0.0
H137 H 0.97809 0.77974 0.16395 0.0
H138 H 0.94252 0.77805 0.14638 0.0
H139 H 0.93249 0.64234 0.15076 0.0
H140 H 0.08211 0.75087 0.14163 0.0
H141 H 0.95093 0.57855 0.17977 0.0
H142 H 0.95672 0.54745 0.16227 0.0
H143 H 0.91104 0.56597 0.16227 0.0
H144 H 0.14885 0.74242 0.14991 0.0
H145 H 0.13511 0.67963 0.15071 0.0
H146 H 0.13807 0.71196 0.16917 0.0
H147 H 0.05364 0.58913 0.26241 0.0
H148 H 0.10057 0.50589 0.22349 0.0
H149 H 0.10238 0.50261 0.19428 0.0
H150 H 0.06171 0.57763 0.15077 0.0
H151 H 0.0404 0.67912 0.19019 0.0
H152 H 0.03953 0.68292 0.21932 0.0
H153 H 0.17779 0.38164 0.14835 0.0
H154 H 0.14175 0.33954 0.16409 0.0
H155 H 0.16509 0.40412 0.16692 0.0
C156 C 0.38206 0.00578 0.6464 0.0
C157 C 0.36959 0.03837 0.63614 0.0
C158 C 0.39274 0.03399 0.60843 0.0
C159 C 0.42418 0.08354 0.60498 0.0
C160 C 0.46229 0.09758 0.59385 0.0
C161 C 0.46911 0.06122 0.58608 0.0
C162 C 0.4356 0.01102 0.58886 0.0
C163 C 0.39731 0.99803 0.59988 0.0
C164 C 0.49624 0.15136 0.59081 0.0
C165 C 0.44146 0.97121 0.58072 0.0
C166 C 0.8709 0.1926 0.58804 0.0
C167 C 0.82134 0.15287 0.59434 0.0
C168 C 0.74506 0.15486 0.59618 0.0
C169 C 0.71271 0.1042 0.59407 0.0
C170 C 0.66367 0.08613 0.58922 0.0
C171 C 0.64704 0.11948 0.5864 0.0
C172 C 0.67824 0.16994 0.59009 0.0
C173 C 0.72697 0.18696 0.59504 0.0
C174 C 0.6306 0.03186 0.58603 0.0
C175 C 0.66111 0.20626 0.58769 0.0
C176 C 0.74034 0.1457 0.48572 0.0
C177 C 0.707 0.09614 0.48874 0.0
C178 C 0.66069 0.0817 0.49523 0.0
C179 C 0.64749 0.11754 0.49867 0.0
C180 C 0.67991 0.16704 0.4947 0.0
C181 C 0.72583 0.18038 0.48812 0.0
C182 C 0.62649 0.02843 0.49893 0.0
C183 C 0.66683 0.20611 0.49805 0.0
C184 C 0.269 0.03151 0.48913 0.0
C185 C 0.31187 0.0594 0.47762 0.0
C186 C 0.3817 0.04671 0.48253 0.0
C187 C 0.39067 0.00903 0.48648 0.0
C188 C 0.4351 0.01925 0.49397 0.0
C189 C 0.47129 0.06851 0.49752 0.0
C190 C 0.46366 0.10698 0.49266 0.0
C191 C 0.41904 0.0957 0.48505 0.0
C192 C 0.4428 0.97744 0.4985 0.0
C193 C 0.50232 0.15997 0.49577 0.0
C194 C 0.51385 0.07586 0.57639 0.0
C195 C 0.55752 0.08917 0.58499 0.0
C196 C 0.60116 0.10332 0.57682 0.0
C197 C 0.60155 0.10341 0.55961 0.0
C198 C 0.64487 0.11671 0.55105 0.0
C199 C 0.64509 0.11679 0.53415 0.0
C200 C 0.6021 0.10396 0.52508 0.0
C201 C 0.60214 0.10414 0.50785 0.0
C202 C 0.55897 0.09197 0.49918 0.0
C203 C 0.51556 0.07968 0.50733 0.0
C204 C 0.51469 0.07886 0.52456 0.0
C205 C 0.47161 0.06665 0.53314 0.0
C206 C 0.47114 0.06559 0.5501 0.0
C207 C 0.51378 0.07698 0.55915 0.0
C208 C 0.55777 0.0903 0.55075 0.0
C209 C 0.55814 0.09092 0.53345 0.0
C210 C 0.8603 0.18419 0.49551 0.0
C211 C 0.81684 0.14379 0.48571 0.0
O212 O 0.35866 0.0202 0.62024 0.0
O213 O 0.33706 0.03412 0.476 0.0
O214 O 0.7866 0.16126 0.48051 0.0
O215 O 0.79402 0.17427 0.5988 0.0
H216 H 0.40281 0.07567 0.63662 0.0
H217 H 0.41599 0.00765 0.6418 0.0
H218 H 0.35198 0.96689 0.6457 0.0
H219 H 0.38867 0.01857 0.65934 0.0
H220 H 0.41931 0.11126 0.61117 0.0
H221 H 0.37221 0.95981 0.60245 0.0
H222 H 0.53224 0.16354 0.59693 0.0
H223 H 0.48136 0.17425 0.59557 0.0
H224 H 0.50276 0.15773 0.57756 0.0
H225 H 0.41293 0.93396 0.58445 0.0
H226 H 0.47825 0.97652 0.58377 0.0
H227 H 0.43914 0.97346 0.56729 0.0
H228 H 0.80284 0.12607 0.58406 0.0
H229 H 0.89342 0.1763 0.58422 0.0
H230 H 0.89142 0.22124 0.59761 0.0
H231 H 0.86503 0.21024 0.57731 0.0
H232 H 0.72592 0.07883 0.59572 0.0
H233 H 0.75197 0.22585 0.59713 0.0
H234 H 0.594 0.01907 0.59141 0.0
H235 H 0.64636 0.0102 0.59109 0.0
H236 H 0.62504 0.02464 0.57268 0.0
H237 H 0.68806 0.24332 0.59263 0.0
H238 H 0.62539 0.19332 0.59374 0.0
H239 H 0.65531 0.20914 0.57448 0.0
H240 H 0.79731 0.11274 0.49417 0.0
H241 H 0.71717 0.06876 0.48614 0.0
H242 H 0.75148 0.21838 0.48542 0.0
H243 H 0.62235 0.02409 0.51232 0.0
H244 H 0.64018 0.00447 0.4942 0.0
H245 H 0.58949 0.01592 0.49353 0.0
H246 H 0.69531 0.24264 0.49374 0.0
H247 H 0.6623 0.20888 0.51135 0.0
H248 H 0.63123 0.19586 0.49197 0.0
H249 H 0.33543 0.09658 0.48308 0.0
H250 H 0.24826 0.05111 0.49071 0.0
H251 H 0.28319 0.02877 0.50127 0.0
H252 H 0.24358 0.99383 0.48429 0.0
H253 H 0.3621 0.97137 0.48407 0.0
H254 H 0.41385 0.12529 0.48106 0.0
H255 H 0.44306 0.97479 0.51197 0.0
H256 H 0.479 0.98441 0.49416 0.0
H257 H 0.41355 0.94175 0.49332 0.0
H258 H 0.49051 0.18565 0.49141 0.0
H259 H 0.53663 0.16814 0.48951 0.0
H260 H 0.51101 0.16671 0.50902 0.0
H261 H 0.55764 0.08891 0.59821 0.0
H262 H 0.67927 0.12714 0.55729 0.0
H263 H 0.67957 0.12725 0.52831 0.0
H264 H 0.55925 0.09242 0.48597 0.0
H265 H 0.43766 0.05762 0.52685 0.0
H266 H 0.43697 0.05583 0.55605 0.0
H267 H 0.88536 0.17111 0.4996 0.0
H268 H 0.84668 0.19429 0.50648 0.0
H269 H 0.88126 0.21752 0.48813 0.0
C270 C 0.80646 0.73398 0.8111 0.0
C271 C 0.7666 0.73543 0.80075 0.0
C272 C 0.69311 0.71336 0.81688 0.0
C273 C 0.66243 0.7311 0.82159 0.0
C274 C 0.61651 0.70013 0.82837 0.0
C275 C 0.60177 0.65045 0.83096 0.0
C276 C 0.63289 0.63226 0.82633 0.0
C277 C 0.67815 0.66384 0.8192 0.0
C278 C 0.58399 0.7206 0.83291 0.0
C279 C 0.6185 0.57952 0.829 0.0
C280 C 0.28724 0.32557 0.77902 0.0
C281 C 0.33198 0.36088 0.78832 0.0
C282 C 0.36534 0.43789 0.80384 0.0
C283 C 0.3999 0.43116 0.81264 0.0
C284 C 0.43332 0.46738 0.82356 0.0
C285 C 0.4326 0.51155 0.82566 0.0
C286 C 0.39758 0.51834 0.81699 0.0
C287 C 0.36419 0.48121 0.80622 0.0
C288 C 0.46971 0.45853 0.8328 0.0
C289 C 0.3957 0.56486 0.81907 0.0
C290 C 0.32851 0.42907 0.92869 0.0
C291 C 0.36443 0.42002 0.92222 0.0
C292 C 0.4057 0.45717 0.9145 0.0
C293 C 0.41124 0.5043 0.91318 0.0
C294 C 0.37539 0.51366 0.9197 0.0
C295 C 0.33466 0.47594 0.92749 0.0
C296 C 0.44368 0.44611 0.90787 0.0
C297 C 0.38004 0.5634 0.91835 0.0
C298 C 0.7921 0.72799 0.93553 0.0
C299 C 0.75827 0.74877 0.93895 0.0
C300 C 0.67248 0.68694 0.93698 0.0
C301 C 0.65388 0.63755 0.93305 0.0
C302 C 0.61062 0.61128 0.92367 0.0
C303 C 0.5847 0.63486 0.91862 0.0
C304 C 0.60238 0.68439 0.9233 0.0
C305 C 0.64663 0.71016 0.93229 0.0
C306 C 0.59294 0.55848 0.91906 0.0
C307 C 0.57489 0.71016 0.91863 0.0
C308 C 0.55476 0.61796 0.8391 0.0
C309 C 0.51446 0.58511 0.82942 0.0
C310 C 0.47016 0.55109 0.83643 0.0
C311 C 0.46499 0.55116 0.85352 0.0
C312 C 0.42051 0.51837 0.86092 0.0
C313 C 0.4167 0.51674 0.8778 0.0
C314 C 0.45741 0.54743 0.88792 0.0
C315 C 0.45494 0.54367 0.90507 0.0
C316 C 0.49621 0.57432 0.91478 0.0
C317 C 0.54063 0.60818 0.9078 0.0
C318 C 0.54388 0.61242 0.89066 0.0
C319 C 0.58826 0.64538 0.88322 0.0
C320 C 0.59169 0.64789 0.86636 0.0
C321 C 0.551 0.61721 0.85625 0.0
C322 C 0.50583 0.5839 0.86347 0.0
C323 C 0.50216 0.58178 0.8807 0.0
C324 C 0.22527 0.32393 0.92262 0.0
C325 C 0.26639 0.34403 0.93557 0.0
O326 O 0.7372 0.74562 0.81056 0.0
O327 O 0.71535 0.71174 0.94547 0.0
O328 O 0.28834 0.3947 0.9366 0.0
O329 O 0.33278 0.40362 0.79302 0.0
H330 H 0.74409 0.69945 0.79429 0.0
H331 H 0.78949 0.70495 0.82033 0.0
H332 H 0.8298 0.76972 0.81755 0.0
H333 H 0.83005 0.72571 0.80327 0.0
H334 H 0.67451 0.76946 0.81978 0.0
H335 H 0.70196 0.64989 0.81581 0.0
H336 H 0.54645 0.69689 0.82768 0.0
H337 H 0.59858 0.75856 0.82856 0.0
H338 H 0.58083 0.72091 0.84636 0.0
H339 H 0.64935 0.5728 0.82678 0.0
H340 H 0.58766 0.55553 0.82055 0.0
H341 H 0.60565 0.56879 0.84164 0.0
H342 H 0.36742 0.36698 0.78338 0.0
H343 H 0.30041 0.32153 0.76667 0.0
H344 H 0.26975 0.34685 0.77438 0.0
H345 H 0.24946 0.26211 0.79576 0.0
H346 H 0.40113 0.39775 0.81104 0.0
H347 H 0.3373 0.48607 0.79946 0.0
H348 H 0.46412 0.45961 0.84609 0.0
H349 H 0.50772 0.488 0.83027 0.0
H350 H 0.46616 0.42262 0.82954 0.0
H351 H 0.36484 0.56365 0.81201 0.0
H352 H 0.43075 0.5965 0.815 0.0
H353 H 0.39172 0.57127 0.83216 0.0
H354 H 0.29285 0.3324 0.93207 0.0
H355 H 0.36165 0.38475 0.92336 0.0
H356 H 0.30703 0.48277 0.93259 0.0
H357 H 0.44626 0.45117 0.89449 0.0
H358 H 0.43496 0.40811 0.9104 0.0
H359 H 0.48029 0.47209 0.91331 0.0
H360 H 0.34808 0.56431 0.92354 0.0
H361 H 0.3834 0.57379 0.90535 0.0
H362 H 0.41399 0.59133 0.92484 0.0
H363 H 0.75048 0.76103 0.92718 0.0
H364 H 0.82497 0.75431 0.92873 0.0
H365 H 0.77217 0.69394 0.92793 0.0
H366 H 0.80405 0.719 0.94712 0.0
H367 H 0.67416 0.62006 0.93698 0.0
H368 H 0.66116 0.74834 0.93571 0.0
H369 H 0.58365 0.55177 0.90584 0.0
H370 H 0.55911 0.53445 0.92586 0.0
H371 H 0.62075 0.54782 0.92197 0.0
H372 H 0.59036 0.74664 0.92479 0.0
H373 H 0.53555 0.68736 0.92178 0.0
H374 H 0.57665 0.71531 0.90525 0.0
H375 H 0.51833 0.58455 0.81631 0.0
H376 H 0.38826 0.4934 0.85372 0.0
H377 H 0.38163 0.49055 0.88284 0.0
H378 H 0.49436 0.57025 0.9279 0.0
H379 H 0.62107 0.6694 0.89033 0.0
H380 H 0.62695 0.67372 0.86136 0.0
H381 H 0.20707 0.28331 0.92169 0.0
H382 H 0.24081 0.33917 0.91057 0.0
H383 H 0.19736 0.33429 0.92565 0.0
H384 H 0.0559 0.11291 0.09782 0.0
H385 H 0.09748 0.37339 0.11603 0.0
H386 H 0.99631 0.17469 0.06442 0.0
H387 H 0.06069 0.26993 0.15479 0.0
H388 H 0.06898 0.30583 0.09615 0.0
H389 H 0.06731 0.17482 0.11835 0.0
C390 C 0.04504 0.13948 0.09487 0.0
C391 C 0.02525 0.13899 0.07947 0.0
C392 C 0.06668 0.29805 0.10903 0.0
C393 C 0.03908 0.21015 0.10268 0.0
C394 C 0.08307 0.33655 0.12042 0.0
C395 C 0.08187 0.32738 0.1372 0.0
C396 C 0.05028 0.2504 0.11439 0.0
C397 C 0.06274 0.27867 0.14201 0.0
C398 C 0.0513 0.1745 0.10658 0.0
C399 C 0.01154 0.17395 0.07621 0.0
N400 N 0.04849 0.2421 0.13067 0.0
N401 N 0.01953 0.20888 0.08767 0.0
H402 H 0.97453 0.13735 0.40027 0.0
H403 H 0.81233 0.0555 0.48053 0.0
H404 H 0.90315 0.99028 0.41882 0.0
H405 H 0.86243 0.19529 0.45817 0.0
H406 H 0.84594 0.03133 0.45791 0.0
H407 H 0.93464 0.16 0.42132 0.0
C408 C 0.95044 0.10978 0.40871 0.0
C409 C 0.94247 0.06186 0.40777 0.0
C410 C 0.84938 0.06721 0.45787 0.0
C411 C 0.89683 0.08763 0.43191 0.0
C412 C 0.83015 0.08096 0.47078 0.0
C413 C 0.83465 0.12744 0.47121 0.0
C414 C 0.87378 0.10036 0.44534 0.0
C415 C 0.85827 0.15912 0.45828 0.0
C416 C 0.9276 0.12273 0.4207 0.0
C417 C 0.91063 0.0277 0.41903 0.0
N418 N 0.87723 0.14512 0.44592 0.0
N419 N 0.88927 0.04132 0.43065 0.0
H420 H 0.92604 0.91603 0.71892 0.0
H421 H 0.7987 0.83396 0.8043 0.0
H422 H 0.87072 0.99674 0.74533 0.0
H423 H 0.78947 0.72713 0.76897 0.0
H424 H 0.83433 0.89698 0.78372 0.0
H425 H 0.88311 0.84798 0.73769 0.0
C426 C 0.90456 0.91928 0.72857 0.0
C427 C 0.90218 0.96224 0.73064 0.0
C428 C 0.82406 0.85965 0.78042 0.0
C429 C 0.85404 0.8852 0.7522 0.0
C430 C 0.80379 0.8237 0.79215 0.0
C431 C 0.78981 0.77495 0.78818 0.0
C432 C 0.83174 0.84722 0.7647 0.0
C433 C 0.79888 0.76411 0.7724 0.0
C434 C 0.88009 0.88046 0.73923 0.0
C435 C 0.87358 0.96436 0.74327 0.0
N436 N 0.8194 0.80004 0.76119 0.0
N437 N 0.85119 0.92666 0.75371 0.0
H438 H 0.93956 0.89601 0.0601 0.0
H439 H 0.09304 0.85589 0.12731 0.0
H440 H 0.09788 0.97848 0.06176 0.0
H441 H 0.94102 0.75062 0.1164 0.0
H442 H 0.09801 0.89574 0.10146 0.0
H443 H 0.94087 0.83563 0.07799 0.0
C444 C 0.97467 0.90062 0.06393 0.0
C445 C 0.01865 0.94235 0.05965 0.0
C446 C 0.06382 0.86334 0.10455 0.0
C447 C 0.02056 0.87455 0.08059 0.0
C448 C 0.06096 0.84073 0.11932 0.0
C449 C 0.01646 0.80021 0.12402 0.0
C450 C 0.02159 0.8458 0.09456 0.0
C451 C 0.97593 0.78198 0.11325 0.0
C452 C 0.97546 0.86626 0.07419 0.0
C453 C 0.06319 0.9467 0.06484 0.0
N454 N 0.97927 0.80534 0.09914 0.0
N455 N 0.06303 0.9138 0.07541 0.0
H456 H 0.15833 0.12595 0.40413 0.0
H457 H 0.28029 0.9942 0.45146 0.0
H458 H 0.1352 0.9825 0.39181 0.0
H459 H 0.29767 0.13332 0.46679 0.0
H460 H 0.24068 0.99769 0.42632 0.0
H461 H 0.2233 0.13792 0.42354 0.0
C462 C 0.1677 0.09748 0.40523 0.0
C463 C 0.14073 0.05276 0.39662 0.0
C464 C 0.25377 0.0279 0.43504 0.0
C465 C 0.21434 0.06594 0.41881 0.0
C466 C 0.27659 0.02598 0.44938 0.0
C467 C 0.29275 0.06382 0.46116 0.0
C468 C 0.2459 0.06735 0.43255 0.0
C469 C 0.28606 0.10363 0.45794 0.0
C470 C 0.20453 0.10419 0.41638 0.0
C471 C 0.15439 0.01713 0.39847 0.0
N472 N 0.2627 0.10417 0.444 0.0
N473 N 0.18978 0.02425 0.4095 0.0
H474 H 0.14996 0.13015 0.7323 0.0
H475 H 0.24661 0.34778 0.81053 0.0
H476 H 0.07043 0.2007 0.74867 0.0
H477 H 0.34618 0.27326 0.7868 0.0
H478 H 0.16991 0.28355 0.78764 0.0
H479 H 0.21416 0.1782 0.7528 0.0
C480 C 0.14591 0.15561 0.74018 0.0
C481 C 0.10468 0.16139 0.7387 0.0
C482 C 0.20402 0.28324 0.78837 0.0
C483 C 0.17781 0.21615 0.76213 0.0
C484 C 0.24959 0.32071 0.8032 0.0
C485 C 0.30905 0.32334 0.79945 0.0
C486 C 0.21551 0.24593 0.77456 0.0
C487 C 0.3123 0.27366 0.78824 0.0
C488 C 0.18259 0.18304 0.75185 0.0
C489 C 0.10155 0.19507 0.74927 0.0
N490 N 0.26581 0.24292 0.77577 0.0
N491 N 0.1376 0.2211 0.76055 0.0
H492 H 0.92944 0.1143 0.68578 0.0
H493 H 0.82441 0.06754 0.59455 0.0
H494 H 0.92965 0.00617 0.65317 0.0
H495 H 0.838 0.18328 0.62653 0.0
H496 H 0.84791 0.0337 0.61733 0.0
H497 H 0.87996 0.12807 0.66592 0.0
C498 C 0.91862 0.09308 0.67448 0.0
C499 C 0.93445 0.05978 0.67094 0.0
C500 C 0.84495 0.06603 0.61942 0.0
C501 C 0.87836 0.07582 0.64804 0.0
C502 C 0.83149 0.08523 0.60645 0.0
C503 C 0.8291 0.12806 0.60872 0.0
C504 C 0.85657 0.09022 0.63469 0.0
C505 C 0.83909 0.14999 0.62431 0.0
C506 C 0.89037 0.10096 0.66313 0.0
C507 C 0.91866 0.03263 0.65626 0.0
N508 N 0.8527 0.13101 0.63666 0.0
N509 N 0.89207 0.04182 0.6452 0.0
H510 H 0.97721 0.98989 0.99694 0.0
H511 H 0.72473 0.76617 0.96834 0.0
H512 H 0.84153 0.97713 0.01318 0.0
H513 H 0.84644 0.83425 0.93539 0.0
H514 H 0.76751 0.83731 0.9867 0.0
H515 H 0.93116 0.9267 0.97599 0.0
C516 C 0.93769 0.97383 0.99604 0.0
C517 C 0.91298 0.98844 0.00681 0.0
C518 C 0.78466 0.83648 0.97542 0.0
C519 C 0.86025 0.91581 0.98313 0.0
C520 C 0.7605 0.7957 0.96494 0.0
C521 C 0.78278 0.79311 0.95046 0.0
C522 C 0.83158 0.87465 0.97154 0.0
C523 C 0.82862 0.83362 0.94665 0.0
C524 C 0.91156 0.93806 0.98405 0.0
C525 C 0.86184 0.96683 0.00506 0.0
N526 N 0.85191 0.87228 0.95725 0.0
N527 N 0.83693 0.93088 0.99359 0.0
H528 H -0.001 0.92439 0.36296 0.0
H529 H 0.98158 0.80145 0.27832 0.0
H530 H 0.06796 0.0135 0.32122 0.0
H531 H 0.98828 0.73447 0.32303 0.0
H532 H 0.01134 0.87919 0.29321 0.0
H533 H 0.99225 0.85356 0.34831 0.0
C534 C 0.01302 0.92909 0.35074 0.0
C535 C 0.0337 0.97465 0.34322 0.0
C536 C 0.00717 0.84767 0.29967 0.0
C537 C 0.02528 0.89364 0.32629 0.0
C538 C 0.99017 0.80327 0.2912 0.0
C539 C 0.98273 0.76144 0.29947 0.0
C540 C 0.01527 0.8498 0.31657 0.0
C541 C 0.99372 0.76591 0.31622 0.0
C542 C 0.0094 0.88872 0.34241 0.0
C543 C 0.05164 0.97882 0.32739 0.0
N544 N 0.00876 0.8091 0.32428 0.0
N545 N 0.04619 0.93848 0.31929 0.0
H546 H 0.10513 0.97591 0.68721 0.0
H547 H 0.36704 0.12039 0.64614 0.0
H548 H 0.1697 0.12686 0.67309 0.0
H549 H 0.27477 0.96318 0.64173 0.0
H550 H 0.29921 0.12464 0.65877 0.0
H551 H 0.17188 0.97162 0.67369 0.0
C552 C 0.13351 0.00822 0.68135 0.0
C553 C 0.13196 0.05183 0.68126 0.0
C554 C 0.29383 0.08924 0.65501 0.0
C555 C 0.20829 0.04718 0.66587 0.0
C556 C 0.33249 0.08677 0.64783 0.0
C557 C 0.32682 0.04128 0.64313 0.0
C558 C 0.24928 0.04589 0.65767 0.0
C559 C 0.28102 0.99891 0.64544 0.0
C560 C 0.17135 0.00563 0.67355 0.0
C561 C 0.16948 0.0925 0.6734 0.0
N562 N 0.24416 0.00218 0.65272 0.0
N563 N 0.20631 0.08929 0.6661 0.0
H564 H 0.13717 0.14023 0.01396 0.0
H565 H 0.2208 0.37298 0.95802 0.0
H566 H 0.09418 0.24886 0.02158 0.0
H567 H 0.26362 0.2646 0.94988 0.0
H568 H 0.18331 0.33375 0.98357 0.0
H569 H 0.19411 0.19179 0.99316 0.0
C570 C 0.14031 0.17529 0.0115 0.0
C571 C 0.11004 0.18973 0.01931 0.0
C572 C 0.20142 0.31884 0.97631 0.0
C573 C 0.17468 0.24859 0.99537 0.0
C574 C 0.22287 0.34129 0.96174 0.0
C575 C 0.24588 0.32234 0.95193 0.0
C576 C 0.20217 0.27658 0.981 0.0
C577 C 0.24667 0.28063 0.95719 0.0
C578 C 0.17266 0.20461 -0.00046 0.0
C579 C 0.11602 0.23573 0.01566 0.0
N580 N 0.22492 0.25899 0.97132 0.0
N581 N 0.14713 0.26317 0.00381 0.0
H582 H 0.95272 0.13671 0.34237 0.0
H583 H 0.11756 0.37228 0.2762 0.0
H584 H 0.11086 0.22505 0.34425 0.0
H585 H 0.92971 0.28008 0.28361 0.0
H586 H 0.11983 0.31482 0.30312 0.0
H587 H 0.95018 0.1924 0.32263 0.0
C588 C 0.98691 0.1683 0.33876 0.0
C589 C 0.03206 0.17625 0.34486 0.0
C590 C 0.08537 0.31043 0.29871 0.0
C591 C 0.02955 0.23954 0.322 0.0
C592 C 0.08425 0.34352 0.28145 0.0
C593 C 0.02289 0.338 0.27845 0.0
C594 C 0.02897 0.26951 0.30851 0.0
C595 C 0.96581 0.28524 0.28608 0.0
C596 C 0.98547 0.20008 0.32747 0.0
C597 C 0.0753 0.21782 0.33984 0.0
N598 N 0.97579 0.25943 0.30149 0.0
N599 N 0.07306 0.24764 0.32845 0.0
loop_
_geom_bond_atom_site_label_1
_geom_bond_atom_site_label_2
_geom_bond_distance
_geom_bond_site_symmetry_2
_ccdc_geom_bond_type
Co0 O1 2.216 . S
Co0 O2 2.091 . S
Co0 O4 2.004 . S
Co0 O10 2.021 . S
Co0 O12 2.137 . S
Co0 O13 2.244 . S
O1 Co0 2.216 . S
O1 C8 1.247 1_545 S
O2 Co0 2.091 . S
O2 C8 1.261 1_545 S
C3 O12 1.247 . S
C3 O13 1.272 . S
O4 Co0 2.004 . S
O4 C9 1.259 . S
Co5 O6 2.061 1_655 S
Co5 O11 2.052 . S
Co5 O13 2.135 1_655 S
O6 Co5 2.061 1_455 S
O6 C9 1.235 . S
C7 O10 1.238 1_655 S
C7 O11 1.241 . S
C8 O1 1.247 1_565 S
C8 O2 1.261 1_565 S
C9 O4 1.259 . S
C9 O6 1.235 . S
O10 Co0 2.021 . S
O10 C7 1.238 1_455 S
O11 Co5 2.052 . S
O11 C7 1.241 . S
O12 Co0 2.137 . S
O12 C3 1.247 . S
O13 Co0 2.244 . S
O13 C3 1.272 . S
O13 Co5 2.135 1_455 S
Co14 O15 2.216 . S
Co14 O16 2.091 . S
Co14 O18 2.004 . S
Co14 O24 2.021 . S
Co14 O26 2.137 . S
Co14 O27 2.244 . S
O15 Co14 2.216 . S
O15 C22 1.247 . S
O16 Co14 2.091 . S
O16 C22 1.261 . S
C17 O26 1.247 . S
C17 O27 1.272 . S
O18 Co14 2.004 . S
O18 C23 1.259 . S
Co19 O20 2.061 1_565 S
Co19 O25 2.052 1_465 S
Co19 O27 2.135 1_565 S
O20 Co19 2.061 1_545 S
O20 C23 1.235 . S
C21 O24 1.238 1_655 S
C21 O25 1.241 . S
C22 O15 1.247 . S
C22 O16 1.261 . S
C23 O18 1.259 . S
C23 O20 1.235 . S
O24 Co14 2.021 . S
O24 C21 1.238 1_455 S
O25 Co19 2.052 1_645 S
O25 C21 1.241 . S
O26 Co14 2.137 . S
O26 C17 1.247 . S
O27 Co14 2.244 . S
O27 C17 1.272 . S
O27 Co19 2.135 1_545 S
Co28 O29 2.216 . S
Co28 O30 2.091 . S
Co28 O32 2.004 1_445 S
Co28 O38 2.021 . S
Co28 O40 2.137 1_455 S
Co28 O41 2.244 1_455 S
O29 Co28 2.216 . S
O29 C36 1.247 . S
O30 Co28 2.091 . S
O30 C36 1.261 . S
C31 O40 1.247 . S
C31 O41 1.272 . S
O32 Co28 2.004 1_665 S
O32 C37 1.259 . S
Co33 O34 2.061 . S
Co33 O39 2.052 1_655 S
Co33 O41 2.135 . S
O34 Co33 2.061 . S
O34 C37 1.235 1_545 S
C35 O38 1.238 . S
C35 O39 1.241 . S
C36 O29 1.247 . S
C36 O30 1.261 . S
C37 O32 1.259 . S
C37 O34 1.235 1_565 S
O38 Co28 2.021 . S
O38 C35 1.238 . S
O39 Co33 2.052 1_455 S
O39 C35 1.241 . S
O40 Co28 2.137 1_655 S
O40 C31 1.247 . S
O41 Co28 2.244 1_655 S
O41 C31 1.272 . S
O41 Co33 2.135 . S
C42 C43 1.560 1_655 S
C42 H103 0.959 . S
C42 H104 0.959 . S
C42 H105 0.960 . S
C43 C42 1.560 1_455 S
C43 O98 1.426 1_455 S
C43 H102 0.980 . S
C44 C45 1.407 . S
C44 C49 1.418 1_455 S
C44 O98 1.334 1_455 S
C45 C44 1.407 . S
C45 C46 1.360 . S
C45 H106 0.929 . S
C46 C45 1.360 . S
C46 C47 1.401 . S
C46 C50 1.527 . S
C47 C46 1.401 . S
C47 C48 1.405 1_455 S
C47 C80 1.587 . S
C48 C47 1.405 1_655 S
C48 C49 1.332 . S
C48 C51 1.496 . S
C49 C44 1.418 1_655 S
C49 C48 1.332 . S
C49 H107 0.929 . S
C50 C46 1.527 . S
C50 H108 0.959 . S
C50 H109 0.961 . S
C50 H110 0.961 . S
C51 C48 1.496 . S
C51 H111 0.960 . S
C51 H112 0.960 . S
C51 H113 0.961 . S
C52 C53 1.517 . S
C52 H115 0.961 . S
C52 H116 0.960 . S
C52 H117 0.959 . S
C53 C52 1.517 . S
C53 O101 1.468 . S
C53 H114 0.980 . S
C54 C55 1.349 . S
C54 C59 1.367 . S
C54 O101 1.408 . S
C55 C54 1.349 . S
C55 C56 1.407 . S
C55 H118 0.930 . S
C56 C55 1.407 . S
C56 C57 1.449 . S
C56 C60 1.535 1_455 S
C57 C56 1.449 . S
C57 C58 1.384 . S
C57 C82 1.553 . S
C58 C57 1.384 . S
C58 C59 1.364 . S
C58 C61 1.450 . S
C59 C54 1.367 . S
C59 C58 1.364 . S
C59 H119 0.931 . S
C60 C56 1.535 1_655 S
C60 H120 0.959 . S
C60 H121 0.961 . S
C60 H122 0.959 . S
C61 C58 1.450 . S
C61 H123 0.960 . S
C61 H124 0.960 . S
C61 H125 0.960 . S
C62 C63 1.309 . S
C62 C67 1.304 . S
C62 O100 1.435 . S
C63 C62 1.309 . S
C63 C64 1.476 . S
C63 H127 0.936 . S
C64 C63 1.476 . S
C64 C65 1.400 . S
C64 C68 1.567 1_455 S
C65 C64 1.400 . S
C65 C66 1.373 . S
C65 C87 1.432 . S
C66 C65 1.373 . S
C66 C67 1.339 . S
C66 C69 1.530 . S
C67 C62 1.304 . S
C67 C66 1.339 . S
C67 H128 0.930 . S
C68 C64 1.567 1_655 S
C68 H129 0.961 . S
C68 H130 0.960 . S
C68 H131 0.958 . S
C69 C66 1.530 . S
C69 H132 0.961 . S
C69 H133 0.960 . S
C69 H134 0.960 . S
C70 C71 1.530 1_655 S
C70 H136 0.961 1_655 S
C70 H137 0.961 . S
C70 H138 0.959 . S
C71 C70 1.530 1_455 S
C71 O99 1.412 1_455 S
C71 H135 0.980 . S
C72 C73 1.288 . S
C72 C77 1.377 1_655 S
C72 O99 1.393 . S
C73 C72 1.288 . S
C73 C74 1.369 . S
C73 H139 0.932 . S
C74 C73 1.369 . S
C74 C75 1.398 1_655 S
C74 C78 1.527 . S
C75 C74 1.398 1_455 S
C75 C76 1.380 . S
C75 C89 1.497 . S
C76 C75 1.380 . S
C76 C77 1.383 . S
C76 C79 1.603 . S
C77 C72 1.377 1_455 S
C77 C76 1.383 . S
C77 H140 0.929 . S
C78 C74 1.527 . S
C78 H141 0.961 . S
C78 H142 0.959 . S
C78 H143 0.959 . S
C79 C76 1.603 . S
C79 H144 0.960 . S
C79 H145 0.962 . S
C79 H146 0.961 . S
C80 C47 1.587 . S
C80 C81 1.360 . S
C80 C93 1.412 . S
C81 C80 1.360 . S
C81 C82 1.365 . S
C81 H147 0.929 . S
C82 C57 1.553 . S
C82 C81 1.365 . S
C82 C83 1.404 . S
C83 C82 1.404 . S
C83 C84 1.395 . S
C83 C94 1.451 . S
C84 C83 1.395 . S
C84 C85 1.322 . S
C84 H148 0.930 . S
C85 C84 1.322 . S
C85 C86 1.459 . S
C85 H149 0.929 . S
C86 C85 1.459 . S
C86 C87 1.445 . S
C86 C95 1.395 . S
C87 C65 1.432 . S
C87 C86 1.445 . S
C87 C88 1.370 . S
C88 C87 1.370 . S
C88 C89 1.438 . S
C88 H150 0.930 . S
C89 C75 1.497 . S
C89 C88 1.438 . S
C89 C90 1.360 . S
C90 C89 1.360 . S
C90 C91 1.401 . S
C90 C95 1.446 . S
C91 C90 1.401 . S
C91 C92 1.347 . S
C91 H151 0.929 . S
C92 C91 1.347 . S
C92 C93 1.455 . S
C92 H152 0.930 . S
C93 C80 1.412 . S
C93 C92 1.455 . S
C93 C94 1.331 . S
C94 C83 1.451 . S
C94 C93 1.331 . S
C94 C95 1.497 . S
C95 C86 1.395 . S
C95 C90 1.446 . S
C95 C94 1.497 . S
C96 C97 1.582 . S
C96 H153 0.962 . S
C96 H154 0.959 . S
C96 H155 0.958 . S
C97 C96 1.582 . S
C97 O100 1.458 . S
C97 H126 0.980 . S
O98 C43 1.426 1_655 S
O98 C44 1.334 1_655 S
O99 C71 1.412 1_655 S
O99 C72 1.393 . S
O100 C62 1.435 . S
O100 C97 1.458 . S
O101 C53 1.468 . S
O101 C54 1.408 . S
H102 C43 0.980 . S
H103 C42 0.959 . S
H104 C42 0.959 . S
H105 C42 0.960 . S
H106 C45 0.929 . S
H107 C49 0.929 . S
H108 C50 0.959 . S
H109 C50 0.961 . S
H110 C50 0.961 . S
H111 C51 0.960 . S
H112 C51 0.960 . S
H113 C51 0.961 . S
H114 C53 0.980 . S
H115 C52 0.961 . S
H116 C52 0.960 . S
H117 C52 0.959 . S
H118 C55 0.930 . S
H119 C59 0.931 . S
H120 C60 0.959 . S
H121 C60 0.961 . S
H122 C60 0.959 . S
H123 C61 0.960 . S
H124 C61 0.960 . S
H125 C61 0.960 . S
H126 C97 0.980 . S
H127 C63 0.936 . S
H128 C67 0.930 . S
H129 C68 0.961 . S
H130 C68 0.960 . S
H131 C68 0.958 . S
H132 C69 0.961 . S
H133 C69 0.960 . S
H134 C69 0.960 . S
H135 C71 0.980 . S
H136 C70 0.961 1_455 S
H137 C70 0.961 . S
H138 C70 0.959 . S
H139 C73 0.932 . S
H140 C77 0.929 . S
H141 C78 0.961 . S
H142 C78 0.959 . S
H143 C78 0.959 . S
H144 C79 0.960 . S
H145 C79 0.962 . S
H146 C79 0.961 . S
H147 C81 0.929 . S
H148 C84 0.930 . S
H149 C85 0.929 . S
H150 C88 0.930 . S
H151 C91 0.929 . S
H152 C92 0.930 . S
H153 C96 0.962 . S
H154 C96 0.959 . S
H155 C96 0.958 . S
C156 C157 1.560 1_565 S
C156 H217 0.959 . S
C156 H218 0.959 . S
C156 H219 0.960 1_565 S
C157 C156 1.560 1_545 S
C157 O212 1.426 . S
C157 H216 0.980 . S
C158 C159 1.407 . S
C158 C163 1.418 . S
C158 O212 1.334 . S
C159 C158 1.407 . S
C159 C160 1.360 . S
C159 H220 0.929 . S
C160 C159 1.360 . S
C160 C161 1.401 . S
C160 C164 1.527 . S
C161 C160 1.401 . S
C161 C162 1.405 . S
C161 C194 1.587 . S
C162 C161 1.405 . S
C162 C163 1.332 . S
C162 C165 1.496 1_545 S
C163 C158 1.418 . S
C163 C162 1.332 . S
C163 H221 0.929 1_545 S
C164 C160 1.527 . S
C164 H222 0.959 . S
C164 H223 0.961 . S
C164 H224 0.961 . S
C165 C162 1.496 1_565 S
C165 H225 0.960 . S
C165 H226 0.960 . S
C165 H227 0.961 . S
C166 C167 1.517 . S
C166 H229 0.961 . S
C166 H230 0.960 . S
C166 H231 0.959 . S
C167 C166 1.517 . S
C167 O215 1.468 . S
C167 H228 0.980 . S
C168 C169 1.349 . S
C168 C173 1.367 . S
C168 O215 1.408 . S
C169 C168 1.349 . S
C169 C170 1.407 . S
C169 H232 0.930 . S
C170 C169 1.407 . S
C170 C171 1.449 . S
C170 C174 1.535 . S
C171 C170 1.449 . S
C171 C172 1.384 . S
C171 C196 1.553 . S
C172 C171 1.384 . S
C172 C173 1.364 . S
C172 C175 1.450 . S
C173 C168 1.367 . S
C173 C172 1.364 . S
C173 H233 0.931 . S
C174 C170 1.535 . S
C174 H234 0.959 . S
C174 H235 0.961 . S
C174 H236 0.959 . S
C175 C172 1.450 . S
C175 H237 0.960 . S
C175 H238 0.960 . S
C175 H239 0.960 . S
C176 C177 1.309 . S
C176 C181 1.304 . S
C176 O214 1.435 . S
C177 C176 1.309 . S
C177 C178 1.476 . S
C177 H241 0.930 . S
C178 C177 1.476 . S
C178 C179 1.400 . S
C178 C182 1.567 . S
C179 C178 1.400 . S
C179 C180 1.373 . S
C179 C201 1.432 . S
C180 C179 1.373 . S
C180 C181 1.339 . S
C180 C183 1.530 . S
C181 C176 1.304 . S
C181 C180 1.339 . S
C181 H242 0.930 . S
C182 C178 1.567 . S
C182 H243 0.961 . S
C182 H244 0.960 1_545 S
C182 H245 0.958 1_545 S
C183 C180 1.530 . S
C183 H246 0.961 . S
C183 H247 0.960 . S
C183 H248 0.960 . S
C184 C185 1.530 . S
C184 H250 0.961 . S
C184 H251 0.961 . S
C184 H252 0.959 . S
C185 C184 1.530 . S
C185 O213 1.412 . S
C185 H249 0.980 . S
C186 C187 1.288 . S
C186 C191 1.377 . S
C186 O213 1.393 . S
C187 C186 1.288 . S
C187 C188 1.369 . S
C187 H253 0.932 1_545 S
C188 C187 1.369 . S
C188 C189 1.398 . S
C188 C192 1.527 1_545 S
C189 C188 1.398 . S
C189 C190 1.380 . S
C189 C203 1.497 . S
C190 C189 1.380 . S
C190 C191 1.383 . S
C190 C193 1.603 . S
C191 C186 1.377 . S
C191 C190 1.383 . S
C191 H254 0.929 . S
C192 C188 1.527 1_565 S
C192 H255 0.961 . S
C192 H256 0.959 . S
C192 H257 0.959 . S
C193 C190 1.603 . S
C193 H258 0.960 . S
C193 H259 0.962 . S
C193 H260 0.961 . S
C194 C161 1.587 . S
C194 C195 1.360 . S
C194 C207 1.412 . S
C195 C194 1.360 . S
C195 C196 1.365 . S
C195 H261 0.929 . S
C196 C171 1.553 . S
C196 C195 1.365 . S
C196 C197 1.404 . S
C197 C196 1.404 . S
C197 C198 1.395 . S
C197 C208 1.451 . S
C198 C197 1.395 . S
C198 C199 1.322 . S
C198 H262 0.930 . S
C199 C198 1.322 . S
C199 C200 1.459 . S
C199 H263 0.929 . S
C200 C199 1.459 . S
C200 C201 1.445 . S
C200 C209 1.395 . S
C201 C179 1.432 . S
C201 C200 1.445 . S
C201 C202 1.370 . S
C202 C201 1.370 . S
C202 C203 1.438 . S
C202 H264 0.930 . S
C203 C189 1.497 . S
C203 C202 1.438 . S
C203 C204 1.360 . S
C204 C203 1.360 . S
C204 C205 1.401 . S
C204 C209 1.446 . S
C205 C204 1.401 . S
C205 C206 1.347 . S
C205 H265 0.929 . S
C206 C205 1.347 . S
C206 C207 1.455 . S
C206 H266 0.930 . S
C207 C194 1.412 . S
C207 C206 1.455 . S
C207 C208 1.331 . S
C208 C197 1.451 . S
C208 C207 1.331 . S
C208 C209 1.497 . S
C209 C200 1.395 . S
C209 C204 1.446 . S
C209 C208 1.497 . S
C210 C211 1.582 . S
C210 H267 0.962 . S
C210 H268 0.959 . S
C210 H269 0.958 . S
C211 C210 1.582 . S
C211 O214 1.458 . S
C211 H240 0.980 . S
O212 C157 1.426 . S
O212 C158 1.334 . S
O213 C185 1.412 . S
O213 C186 1.393 . S
O214 C176 1.435 . S
O214 C211 1.458 . S
O215 C167 1.468 . S
O215 C168 1.408 . S
H216 C157 0.980 . S
H217 C156 0.959 . S
H218 C156 0.959 . S
H219 C156 0.960 1_545 S
H220 C159 0.929 . S
H221 C163 0.929 1_565 S
H222 C164 0.959 . S
H223 C164 0.961 . S
H224 C164 0.961 . S
H225 C165 0.960 . S
H226 C165 0.960 . S
H227 C165 0.961 . S
H228 C167 0.980 . S
H229 C166 0.961 . S
H230 C166 0.960 . S
H231 C166 0.959 . S
H232 C169 0.930 . S
H233 C173 0.931 . S
H234 C174 0.959 . S
H235 C174 0.961 . S
H236 C174 0.959 . S
H237 C175 0.960 . S
H238 C175 0.960 . S
H239 C175 0.960 . S
H240 C211 0.980 . S
H241 C177 0.930 . S
H242 C181 0.930 . S
H243 C182 0.961 . S
H244 C182 0.960 1_565 S
H245 C182 0.958 1_565 S
H246 C183 0.961 . S
H247 C183 0.960 . S
H248 C183 0.960 . S
H249 C185 0.980 . S
H250 C184 0.961 . S
H251 C184 0.961 . S
H252 C184 0.959 . S
H253 C187 0.932 1_565 S
H254 C191 0.929 . S
H255 C192 0.961 . S
H256 C192 0.959 . S
H257 C192 0.959 . S
H258 C193 0.960 . S
H259 C193 0.962 . S
H260 C193 0.961 . S
H261 C195 0.929 . S
H262 C198 0.930 . S
H263 C199 0.929 . S
H264 C202 0.930 . S
H265 C205 0.929 . S
H266 C206 0.930 . S
H267 C210 0.962 . S
H268 C210 0.959 . S
H269 C210 0.958 . S
C270 C271 1.560 . S
C270 H331 0.959 . S
C270 H332 0.959 . S
C270 H333 0.960 . S
C271 C270 1.560 . S
C271 O326 1.426 . S
C271 H330 0.980 . S
C272 C273 1.407 . S
C272 C277 1.418 . S
C272 O326 1.334 . S
C273 C272 1.407 . S
C273 C274 1.360 . S
C273 H334 0.929 . S
C274 C273 1.360 . S
C274 C275 1.401 . S
C274 C278 1.527 . S
C275 C274 1.401 . S
C275 C276 1.405 . S
C275 C308 1.587 . S
C276 C275 1.405 . S
C276 C277 1.332 . S
C276 C279 1.496 . S
C277 C272 1.418 . S
C277 C276 1.332 . S
C277 H335 0.929 . S
C278 C274 1.527 . S
C278 H336 0.959 . S
C278 H337 0.961 . S
C278 H338 0.961 . S
C279 C276 1.496 . S
C279 H339 0.960 . S
C279 H340 0.960 . S
C279 H341 0.961 . S
C280 C281 1.517 . S
C280 H343 0.961 . S
C280 H344 0.960 . S
C280 H345 0.959 . S
C281 C280 1.517 . S
C281 O329 1.468 . S
C281 H342 0.980 . S
C282 C283 1.349 . S
C282 C287 1.367 . S
C282 O329 1.408 . S
C283 C282 1.349 . S
C283 C284 1.407 . S
C283 H346 0.930 . S
C284 C283 1.407 . S
C284 C285 1.449 . S
C284 C288 1.535 . S
C285 C284 1.449 . S
C285 C286 1.384 . S
C285 C310 1.553 . S
C286 C285 1.384 . S
C286 C287 1.364 . S
C286 C289 1.450 . S
C287 C282 1.367 . S
C287 C286 1.364 . S
C287 H347 0.931 . S
C288 C284 1.535 . S
C288 H348 0.959 . S
C288 H349 0.961 . S
C288 H350 0.959 . S
C289 C286 1.450 . S
C289 H351 0.960 . S
C289 H352 0.960 . S
C289 H353 0.960 . S
C290 C291 1.309 . S
C290 C295 1.304 . S
C290 O328 1.435 . S
C291 C290 1.309 . S
C291 C292 1.476 . S
C291 H355 0.930 . S
C292 C291 1.476 . S
C292 C293 1.400 . S
C292 C296 1.567 . S
C293 C292 1.400 . S
C293 C294 1.373 . S
C293 C315 1.432 . S
C294 C293 1.373 . S
C294 C295 1.339 . S
C294 C297 1.530 . S
C295 C290 1.304 . S
C295 C294 1.339 . S
C295 H356 0.930 . S
C296 C292 1.567 . S
C296 H357 0.961 . S
C296 H358 0.960 . S
C296 H359 0.958 . S
C297 C294 1.530 . S
C297 H360 0.961 . S
C297 H361 0.960 . S
C297 H362 0.960 . S
C298 C299 1.530 . S
C298 H364 0.961 . S
C298 H365 0.961 . S
C298 H366 0.959 . S
C299 C298 1.530 . S
C299 O327 1.412 . S
C299 H363 0.980 . S
C300 C301 1.288 . S
C300 C305 1.377 . S
C300 O327 1.393 . S
C301 C300 1.288 . S
C301 C302 1.369 . S
C301 H367 0.932 . S
C302 C301 1.369 . S
C302 C303 1.398 . S
C302 C306 1.527 . S
C303 C302 1.398 . S
C303 C304 1.380 . S
C303 C317 1.497 . S
C304 C303 1.380 . S
C304 C305 1.383 . S
C304 C307 1.603 . S
C305 C300 1.377 . S
C305 C304 1.383 . S
C305 H368 0.929 . S
C306 C302 1.527 . S
C306 H369 0.961 . S
C306 H370 0.959 . S
C306 H371 0.959 . S
C307 C304 1.603 . S
C307 H372 0.960 . S
C307 H373 0.962 . S
C307 H374 0.961 . S
C308 C275 1.587 . S
C308 C309 1.360 . S
C308 C321 1.412 . S
C309 C308 1.360 . S
C309 C310 1.365 . S
C309 H375 0.929 . S
C310 C285 1.553 . S
C310 C309 1.365 . S
C310 C311 1.404 . S
C311 C310 1.404 . S
C311 C312 1.395 . S
C311 C322 1.451 . S
C312 C311 1.395 . S
C312 C313 1.322 . S
C312 H376 0.930 . S
C313 C312 1.322 . S
C313 C314 1.459 . S
C313 H377 0.929 . S
C314 C313 1.459 . S
C314 C315 1.445 . S
C314 C323 1.395 . S
C315 C293 1.432 . S
C315 C314 1.445 . S
C315 C316 1.370 . S
C316 C315 1.370 . S
C316 C317 1.438 . S
C316 H378 0.930 . S
C317 C303 1.497 . S
C317 C316 1.438 . S
C317 C318 1.360 . S
C318 C317 1.360 . S
C318 C319 1.401 . S
C318 C323 1.446 . S
C319 C318 1.401 . S
C319 C320 1.347 . S
C319 H379 0.929 . S
C320 C319 1.347 . S
C320 C321 1.455 . S
C320 H380 0.930 . S
C321 C308 1.412 . S
C321 C320 1.455 . S
C321 C322 1.331 . S
C322 C311 1.451 . S
C322 C321 1.331 . S
C322 C323 1.497 . S
C323 C314 1.395 . S
C323 C318 1.446 . S
C323 C322 1.497 . S
C324 C325 1.582 . S
C324 H381 0.962 . S
C324 H382 0.959 . S
C324 H383 0.958 . S
C325 C324 1.582 . S
C325 O328 1.458 . S
C325 H354 0.980 . S
O326 C271 1.426 . S
O326 C272 1.334 . S
O327 C299 1.412 . S
O327 C300 1.393 . S
O328 C290 1.435 . S
O328 C325 1.458 . S
O329 C281 1.468 . S
O329 C282 1.408 . S
H330 C271 0.980 . S
H331 C270 0.959 . S
H332 C270 0.959 . S
H333 C270 0.960 . S
H334 C273 0.929 . S
H335 C277 0.929 . S
H336 C278 0.959 . S
H337 C278 0.961 . S
H338 C278 0.961 . S
H339 C279 0.960 . S
H340 C279 0.960 . S
H341 C279 0.961 . S
H342 C281 0.980 . S
H343 C280 0.961 . S
H344 C280 0.960 . S
H345 C280 0.959 . S
H346 C283 0.930 . S
H347 C287 0.931 . S
H348 C288 0.959 . S
H349 C288 0.961 . S
H350 C288 0.959 . S
H351 C289 0.960 . S
H352 C289 0.960 . S
H353 C289 0.960 . S
H354 C325 0.980 . S
H355 C291 0.930 . S
H356 C295 0.930 . S
H357 C296 0.961 . S
H358 C296 0.960 . S
H359 C296 0.958 . S
H360 C297 0.961 . S
H361 C297 0.960 . S
H362 C297 0.960 . S
H363 C299 0.980 . S
H364 C298 0.961 . S
H365 C298 0.961 . S
H366 C298 0.959 . S
H367 C301 0.932 . S
H368 C305 0.929 . S
H369 C306 0.961 . S
H370 C306 0.959 . S
H371 C306 0.959 . S
H372 C307 0.960 . S
H373 C307 0.962 . S
H374 C307 0.961 . S
H375 C309 0.929 . S
H376 C312 0.930 . S
H377 C313 0.929 . S
H378 C316 0.930 . S
H379 C319 0.929 . S
H380 C320 0.930 . S
H381 C324 0.962 . S
H382 C324 0.959 . S
H383 C324 0.958 . S
H384 C390 0.930 . S
H385 C394 0.930 . S
H386 C399 0.929 . S
H387 C397 0.929 1_655 S
H388 C392 0.929 . S
H389 C398 0.929 . S
C390 H384 0.930 . S
C390 C391 1.367 . S
C390 C398 1.378 . S
C391 C390 1.367 . S
C391 C399 1.433 . S
C392 H388 0.929 . S
C392 C394 1.378 . S
C392 C396 1.350 . S
C393 C396 1.463 . S
C393 C398 1.350 . S
C393 N401 1.427 . S
C394 H385 0.930 . S
C394 C392 1.378 . S
C394 C395 1.367 . S
C395 C394 1.367 . S
C395 C397 1.433 . S
C396 C392 1.350 . S
C396 C393 1.463 . S
C396 N400 1.427 . S
C397 H387 0.929 1_455 S
C397 C395 1.433 . S
C397 N400 1.384 . S
C398 H389 0.929 . S
C398 C390 1.378 . S
C398 C393 1.350 . S
C399 H386 0.929 . S
C399 C391 1.433 . S
C399 N401 1.384 . S
N400 C396 1.427 . S
N400 C397 1.384 . S
N401 C393 1.427 . S
N401 C399 1.384 . S
H402 C408 0.930 . S
H403 C412 0.930 . S
H404 C417 0.929 . S
H405 C415 0.929 . S
H406 C410 0.929 . S
H407 C416 0.929 . S
C408 H402 0.930 . S
C408 C409 1.367 . S
C408 C416 1.378 . S
C409 C408 1.367 . S
C409 C417 1.433 . S
C410 H406 0.929 . S
C410 C412 1.378 . S
C410 C414 1.350 . S
C411 C414 1.463 . S
C411 C416 1.350 . S
C411 N419 1.427 . S
C412 H403 0.930 . S
C412 C410 1.378 . S
C412 C413 1.367 . S
C413 C412 1.367 . S
C413 C415 1.433 . S
C414 C410 1.350 . S
C414 C411 1.463 . S
C414 N418 1.427 . S
C415 H405 0.929 . S
C415 C413 1.433 . S
C415 N418 1.384 . S
C416 H407 0.929 . S
C416 C408 1.378 . S
C416 C411 1.350 . S
C417 H404 0.929 . S
C417 C409 1.433 . S
C417 N419 1.384 . S
N418 C414 1.427 . S
N418 C415 1.384 . S
N419 C411 1.427 . S
N419 C417 1.384 . S
H420 C426 0.930 . S
H421 C430 0.930 . S
H422 C435 0.929 1_545 S
H423 C433 0.929 . S
H424 C428 0.929 . S
H425 C434 0.929 . S
C426 H420 0.930 . S
C426 C427 1.367 . S
C426 C434 1.378 . S
C427 C426 1.367 . S
C427 C435 1.433 . S
C428 H424 0.929 . S
C428 C430 1.378 . S
C428 C432 1.350 . S
C429 C432 1.463 . S
C429 C434 1.350 . S
C429 N437 1.427 . S
C430 H421 0.930 . S
C430 C428 1.378 . S
C430 C431 1.367 . S
C431 C430 1.367 . S
C431 C433 1.433 . S
C432 C428 1.350 . S
C432 C429 1.463 . S
C432 N436 1.427 . S
C433 H423 0.929 . S
C433 C431 1.433 . S
C433 N436 1.384 . S
C434 H425 0.929 . S
C434 C426 1.378 . S
C434 C429 1.350 . S
C435 H422 0.929 1_565 S
C435 C427 1.433 . S
C435 N437 1.384 . S
N436 C432 1.427 . S
N436 C433 1.384 . S
N437 C429 1.427 . S
N437 C435 1.384 . S
H438 C444 0.930 . S
H439 C448 0.930 . S
H440 C453 0.929 . S
H441 C451 0.929 . S
H442 C446 0.929 . S
H443 C452 0.929 . S
C444 H438 0.930 . S
C444 C445 1.367 1_655 S
C444 C452 1.378 . S
C445 C444 1.367 1_455 S
C445 C453 1.433 . S
C446 H442 0.929 . S
C446 C448 1.378 . S
C446 C450 1.350 . S
C447 C450 1.463 . S
C447 C452 1.350 1_455 S
C447 N455 1.427 . S
C448 H439 0.930 . S
C448 C446 1.378 . S
C448 C449 1.367 . S
C449 C448 1.367 . S
C449 C451 1.433 1_455 S
C450 C446 1.350 . S
C450 C447 1.463 . S
C450 N454 1.427 1_455 S
C451 H441 0.929 . S
C451 C449 1.433 1_655 S
C451 N454 1.384 . S
C452 H443 0.929 . S
C452 C444 1.378 . S
C452 C447 1.350 1_655 S
C453 H440 0.929 . S
C453 C445 1.433 . S
C453 N455 1.384 . S
N454 C450 1.427 1_655 S
N454 C451 1.384 . S
N455 C447 1.427 . S
N455 C453 1.384 . S
H456 C462 0.930 . S
H457 C466 0.930 . S
H458 C471 0.929 . S
H459 C469 0.929 . S
H460 C464 0.929 . S
H461 C470 0.929 . S
C462 H456 0.930 . S
C462 C463 1.367 . S
C462 C470 1.378 . S
C463 C462 1.367 . S
C463 C471 1.433 . S
C464 H460 0.929 . S
C464 C466 1.378 . S
C464 C468 1.350 . S
C465 C468 1.463 . S
C465 C470 1.350 . S
C465 N473 1.427 . S
C466 H457 0.930 . S
C466 C464 1.378 . S
C466 C467 1.367 . S
C467 C466 1.367 . S
C467 C469 1.433 . S
C468 C464 1.350 . S
C468 C465 1.463 . S
C468 N472 1.427 . S
C469 H459 0.929 . S
C469 C467 1.433 . S
C469 N472 1.384 . S
C470 H461 0.929 . S
C470 C462 1.378 . S
C470 C465 1.350 . S
C471 H458 0.929 . S
C471 C463 1.433 . S
C471 N473 1.384 . S
N472 C468 1.427 . S
N472 C469 1.384 . S
N473 C465 1.427 . S
N473 C471 1.384 . S
H474 C480 0.930 . S
H475 C484 0.930 . S
H476 C489 0.929 . S
H477 C487 0.929 . S
H478 C482 0.929 . S
H479 C488 0.929 . S
C480 H474 0.930 . S
C480 C481 1.367 . S
C480 C488 1.378 . S
C481 C480 1.367 . S
C481 C489 1.433 . S
C482 H478 0.929 . S
C482 C484 1.378 . S
C482 C486 1.350 . S
C483 C486 1.463 . S
C483 C488 1.350 . S
C483 N491 1.427 . S
C484 H475 0.930 . S
C484 C482 1.378 . S
C484 C485 1.367 . S
C485 C484 1.367 . S
C485 C487 1.433 . S
C486 C482 1.350 . S
C486 C483 1.463 . S
C486 N490 1.427 . S
C487 H477 0.929 . S
C487 C485 1.433 . S
C487 N490 1.384 . S
C488 H479 0.929 . S
C488 C480 1.378 . S
C488 C483 1.350 . S
C489 H476 0.929 . S
C489 C481 1.433 . S
C489 N491 1.384 . S
N490 C486 1.427 . S
N490 C487 1.384 . S
N491 C483 1.427 . S
N491 C489 1.384 . S
H492 C498 0.930 . S
H493 C502 0.930 . S
H494 C507 0.929 . S
H495 C505 0.929 . S
H496 C500 0.929 . S
H497 C506 0.929 . S
C498 H492 0.930 . S
C498 C499 1.367 . S
C498 C506 1.378 . S
C499 C498 1.367 . S
C499 C507 1.433 . S
C500 H496 0.929 . S
C500 C502 1.378 . S
C500 C504 1.350 . S
C501 C504 1.463 . S
C501 C506 1.350 . S
C501 N509 1.427 . S
C502 H493 0.930 . S
C502 C500 1.378 . S
C502 C503 1.367 . S
C503 C502 1.367 . S
C503 C505 1.433 . S
C504 C500 1.350 . S
C504 C501 1.463 . S
C504 N508 1.427 . S
C505 H495 0.929 . S
C505 C503 1.433 . S
C505 N508 1.384 . S
C506 H497 0.929 . S
C506 C498 1.378 . S
C506 C501 1.350 . S
C507 H494 0.929 . S
C507 C499 1.433 . S
C507 N509 1.384 . S
N508 C504 1.427 . S
N508 C505 1.384 . S
N509 C501 1.427 . S
N509 C507 1.384 . S
H510 C516 0.930 . S
H511 C520 0.930 . S
H512 C525 0.929 . S
H513 C523 0.929 . S
H514 C518 0.929 . S
H515 C524 0.929 . S
C516 H510 0.930 . S
C516 C517 1.367 1_556 S
C516 C524 1.378 . S
C517 C516 1.367 1_554 S
C517 C525 1.433 . S
C518 H514 0.929 . S
C518 C520 1.378 . S
C518 C522 1.350 . S
C519 C522 1.463 . S
C519 C524 1.350 . S
C519 N527 1.427 1_556 S
C520 H511 0.930 . S
C520 C518 1.378 . S
C520 C521 1.367 . S
C521 C520 1.367 . S
C521 C523 1.433 . S
C522 C518 1.350 . S
C522 C519 1.463 . S
C522 N526 1.427 . S
C523 H513 0.929 . S
C523 C521 1.433 . S
C523 N526 1.384 . S
C524 H515 0.929 . S
C524 C516 1.378 . S
C524 C519 1.350 . S
C525 H512 0.929 . S
C525 C517 1.433 . S
C525 N527 1.384 . S
N526 C522 1.427 . S
N526 C523 1.384 . S
N527 C519 1.427 1_554 S
N527 C525 1.384 . S
H528 C534 0.930 . S
H529 C538 0.930 . S
H530 C543 0.929 1_545 S
H531 C541 0.929 . S
H532 C536 0.929 . S
H533 C542 0.929 . S
C534 H528 0.930 . S
C534 C535 1.367 . S
C534 C542 1.378 . S
C535 C534 1.367 . S
C535 C543 1.433 . S
C536 H532 0.929 . S
C536 C538 1.378 . S
C536 C540 1.350 . S
C537 C540 1.463 . S
C537 C542 1.350 . S
C537 N545 1.427 . S
C538 H529 0.930 . S
C538 C536 1.378 . S
C538 C539 1.367 . S
C539 C538 1.367 . S
C539 C541 1.433 . S
C540 C536 1.350 . S
C540 C537 1.463 . S
C540 N544 1.427 . S
C541 H531 0.929 . S
C541 C539 1.433 . S
C541 N544 1.384 . S
C542 H533 0.929 . S
C542 C534 1.378 . S
C542 C537 1.350 . S
C543 H530 0.929 1_565 S
C543 C535 1.433 . S
C543 N545 1.384 . S
N544 C540 1.427 . S
N544 C541 1.384 . S
N545 C537 1.427 . S
N545 C543 1.384 . S
H546 C552 0.930 1_565 S
H547 C556 0.930 . S
H548 C561 0.929 . S
H549 C559 0.929 1_565 S
H550 C554 0.929 . S
H551 C560 0.929 1_565 S
C552 H546 0.930 1_545 S
C552 C553 1.367 . S
C552 C560 1.378 . S
C553 C552 1.367 . S
C553 C561 1.433 . S
C554 H550 0.929 . S
C554 C556 1.378 . S
C554 C558 1.350 . S
C555 C558 1.463 . S
C555 C560 1.350 . S
C555 N563 1.427 . S
C556 H547 0.930 . S
C556 C554 1.378 . S
C556 C557 1.367 . S
C557 C556 1.367 . S
C557 C559 1.433 . S
C558 C554 1.350 . S
C558 C555 1.463 . S
C558 N562 1.427 . S
C559 H549 0.929 1_545 S
C559 C557 1.433 . S
C559 N562 1.384 . S
C560 H551 0.929 1_545 S
C560 C552 1.378 . S
C560 C555 1.350 . S
C561 H548 0.929 . S
C561 C553 1.433 . S
C561 N563 1.384 . S
N562 C558 1.427 . S
N562 C559 1.384 . S
N563 C555 1.427 . S
N563 C561 1.384 . S
H564 C570 0.930 . S
H565 C574 0.930 . S
H566 C579 0.929 . S
H567 C577 0.929 . S
H568 C572 0.929 . S
H569 C578 0.929 . S
C570 H564 0.930 . S
C570 C571 1.367 . S
C570 C578 1.378 1_554 S
C571 C570 1.367 . S
C571 C579 1.433 . S
C572 H568 0.929 . S
C572 C574 1.378 . S
C572 C576 1.350 . S
C573 C576 1.463 . S
C573 C578 1.350 . S
C573 N581 1.427 . S
C574 H565 0.930 . S
C574 C572 1.378 . S
C574 C575 1.367 . S
C575 C574 1.367 . S
C575 C577 1.433 . S
C576 C572 1.350 . S
C576 C573 1.463 . S
C576 N580 1.427 . S
C577 H567 0.929 . S
C577 C575 1.433 . S
C577 N580 1.384 . S
C578 H569 0.929 . S
C578 C570 1.378 1_556 S
C578 C573 1.350 . S
C579 H566 0.929 . S
C579 C571 1.433 . S
C579 N581 1.384 1_554 S
N580 C576 1.427 . S
N580 C577 1.384 . S
N581 C573 1.427 . S
N581 C579 1.384 1_556 S
H582 C588 0.930 1_655 S
H583 C592 0.930 . S
H584 C597 0.929 . S
H585 C595 0.929 1_655 S
H586 C590 0.929 . S
H587 C596 0.929 1_655 S
C588 H582 0.930 1_455 S
C588 C589 1.367 . S
C588 C596 1.378 . S
C589 C588 1.367 . S
C589 C597 1.433 . S
C590 H586 0.929 . S
C590 C592 1.378 . S
C590 C594 1.350 . S
C591 C594 1.463 . S
C591 C596 1.350 . S
C591 N599 1.427 . S
C592 H583 0.930 . S
C592 C590 1.378 . S
C592 C593 1.367 . S
C593 C592 1.367 . S
C593 C595 1.433 . S
C594 C590 1.350 . S
C594 C591 1.463 . S
C594 N598 1.427 . S
C595 H585 0.929 1_455 S
C595 C593 1.433 . S
C595 N598 1.384 . S
C596 H587 0.929 1_455 S
C596 C588 1.378 . S
C596 C591 1.350 . S
C597 H584 0.929 . S
C597 C589 1.433 . S
C597 N599 1.384 . S
N598 C594 1.427 . S
N598 C595 1.384 . S
N599 C591 1.427 . S
N599 C597 1.384 . S
C395 C97 1.156 . S
C391 C3 1.576 . S
C409 C21 1.596 . S
C413 C211 1.194 . S
C427 C37 1.341 . S
C431 C271 1.074 . S
C445 C8 1.426 . S
C449 C71 1.160 . S
C467 C185 1.136 . S
C463 C23 1.433 . S
C481 C35 1.493 . S
C485 C281 0.938 . S
C503 C167 0.926 . S
C499 C31 1.501 . S
C517 C7 1.429 1_565 S
C521 C299 1.153 . S
C539 C43 1.096 . S
C535 C17 1.349 1_565 S
C557 C157 1.053 . S
C553 C36 1.317 . S
C575 C325 1.185 . S
C571 C9 1.567 . S
C589 C22 1.493 . S
C593 C53 0.878 . S
