# Generated by pormake.
# Topology llj, (12,3)-cn, num edge types: 1
# Building blocks:
#     Node 0, Type 0, BuildingBlock: QEWDON_clean_sbu_0, # of connection points: 12
#     Node 1, Type 0, BuildingBlock: QEWDON_clean_sbu_0, # of connection points: 12
#     Node 2, Type 1, BuildingBlock: MIDCAF_clean_linker_0, # of connection points: 3
#     Node 3, Type 1, BuildingBlock: MIDCAF_clean_linker_0, # of connection points: 3
#     Node 4, Type 1, BuildingBlock: MIDCAF_clean_linker_0, # of connection points: 3
#     Node 5, Type 1, BuildingBlock: MIDCAF_clean_linker_0, # of connection points: 3
#     Node 6, Type 1, BuildingBlock: MIDCAF_clean_linker_0, # of connection points: 3
#     Node 7, Type 1, BuildingBlock: MIDCAF_clean_linker_0, # of connection points: 3
#     Node 8, Type 1, BuildingBlock: MIDCAF_clean_linker_0, # of connection points: 3
#     Node 9, Type 1, BuildingBlock: MIDCAF_clean_linker_0, # of connection points: 3
#     Edge 10, Type (0, 1), BuildingBlock: XUDNAN_clean_linker_2, # of connection points: 2
#     Edge 11, Type (0, 1), BuildingBlock: XUDNAN_clean_linker_2, # of connection points: 2
#     Edge 12, Type (0, 1), BuildingBlock: XUDNAN_clean_linker_2, # of connection points: 2
#     Edge 13, Type (0, 1), BuildingBlock: XUDNAN_clean_linker_2, # of connection points: 2
#     Edge 14, Type (0, 1), BuildingBlock: XUDNAN_clean_linker_2, # of connection points: 2
#     Edge 15, Type (0, 1), BuildingBlock: XUDNAN_clean_linker_2, # of connection points: 2
#     Edge 16, Type (0, 1), BuildingBlock: XUDNAN_clean_linker_2, # of connection points: 2
#     Edge 17, Type (0, 1), BuildingBlock: XUDNAN_clean_linker_2, # of connection points: 2
#     Edge 18, Type (0, 1), BuildingBlock: XUDNAN_clean_linker_2, # of connection points: 2
#     Edge 19, Type (0, 1), BuildingBlock: XUDNAN_clean_linker_2, # of connection points: 2
#     Edge 20, Type (0, 1), BuildingBlock: XUDNAN_clean_linker_2, # of connection points: 2
#     Edge 21, Type (0, 1), BuildingBlock: XUDNAN_clean_linker_2, # of connection points: 2
#     Edge 22, Type (0, 1), BuildingBlock: XUDNAN_clean_linker_2, # of connection points: 2
#     Edge 23, Type (0, 1), BuildingBlock: XUDNAN_clean_linker_2, # of connection points: 2
#     Edge 24, Type (0, 1), BuildingBlock: XUDNAN_clean_linker_2, # of connection points: 2
#     Edge 25, Type (0, 1), BuildingBlock: XUDNAN_clean_linker_2, # of connection points: 2
#     Edge 26, Type (0, 1), BuildingBlock: XUDNAN_clean_linker_2, # of connection points: 2
#     Edge 27, Type (0, 1), BuildingBlock: XUDNAN_clean_linker_2, # of connection points: 2
#     Edge 28, Type (0, 1), BuildingBlock: XUDNAN_clean_linker_2, # of connection points: 2
#     Edge 29, Type (0, 1), BuildingBlock: XUDNAN_clean_linker_2, # of connection points: 2
#     Edge 30, Type (0, 1), BuildingBlock: XUDNAN_clean_linker_2, # of connection points: 2
#     Edge 31, Type (0, 1), BuildingBlock: XUDNAN_clean_linker_2, # of connection points: 2
#     Edge 32, Type (0, 1), BuildingBlock: XUDNAN_clean_linker_2, # of connection points: 2
#     Edge 33, Type (0, 1), BuildingBlock: XUDNAN_clean_linker_2, # of connection points: 2
# Relax obj value: 0.011
# Max RMSD: 0.055
# Mean RMSD: 0.051
data_MOF--net-llj--node1-QEWDON_clean_sbu_0--node2-MIDCAF_clean_linker_0--edge1-XUDNAN_clean_linker_2
_symmetry_space_group_name_H-M    P1
_symmetry_Int_Tables_number       1
_symmetry_cell_setting            triclinic
loop_
_symmetry_equiv_pos_as_xyz
'x, y, z'
_cell_length_a     45.040021
_cell_length_b     44.931458
_cell_length_c     31.419053
_cell_angle_alpha  89.960915
_cell_angle_beta   89.904295
_cell_angle_gamma 89.989521
loop_
_atom_site_label
_atom_site_type_symbol
_atom_site_fract_x
_atom_site_fract_y
_atom_site_fract_z
_atom_type_partial_charge
Zn0 Zn 0.94253 0.0648 0.98749 0.0
Zn1 Zn 0.95693 0.05299 0.08722 0.0
O2 O 0.97427 0.05197 0.02831 0.0
H3 H 0.99207 0.04193 0.01893 0.0
C4 C 0.94136 0.99434 0.91847 0.0
O5 O 0.9248 0.00121 0.9515 0.0
Zn6 Zn 0.06545 0.94356 0.05759 0.0
Zn7 Zn 0.05507 0.94183 0.95752 0.0
O8 O 0.03408 0.94722 0.01307 0.0
H9 H 0.01569 0.95817 0.01497 0.0
Zn10 Zn 0.96255 0.95177 0.98013 0.0
O11 O 0.95922 0.97756 0.03209 0.0
Zn12 Zn 0.95929 0.94676 0.07788 0.0
H13 H 0.97101 0.99542 0.03309 0.0
Zn14 Zn 0.04763 0.0462 0.95085 0.0
O15 O 0.051 0.02181 0.0045 0.0
H16 H 0.03866 0.0046 0.00922 0.0
Zn17 Zn 0.06158 0.05081 0.0496 0.0
C18 C 0.06017 0.999 0.89122 0.0
O19 O 0.07718 0.99114 0.92323 0.0
O20 O 0.90758 0.08378 0.01811 0.0
O21 O 0.91862 0.0785 0.08683 0.0
O22 O 0.09231 0.91659 0.96551 0.0
O23 O 0.09874 0.91545 0.03586 0.0
O24 O 0.93953 0.91313 0.98849 0.0
O25 O 0.93453 0.91047 0.05897 0.0
C26 C 0.01555 0.06942 0.11627 0.0
O27 O 0.07107 0.08545 0.95358 0.0
O28 O 0.08097 0.08784 0.02294 0.0
O29 O 0.02707 0.92942 0.90896 0.0
C30 C 0.90173 0.08836 0.0572 0.0
O31 O 0.95688 0.08782 0.93478 0.0
C32 C 0.01817 0.92839 0.11528 0.0
O33 O 0.95998 0.97322 0.92183 0.0
C34 C 0.10629 0.90739 -0.00179 0.0
O35 O 0.04506 0.02277 0.89419 0.0
C36 C 0.94432 0.99424 0.13638 0.0
O37 O 0.98826 0.06964 0.12707 0.0
O38 O 0.02253 0.05994 0.07945 0.0
C39 C 0.92948 0.90019 0.02163 0.0
O40 O 0.04628 0.92797 0.11144 0.0
O41 O 0.00255 0.93604 0.08356 0.0
C42 C 0.09144 0.00264 0.09493 0.0
O43 O 0.94524 0.96597 0.13325 0.0
O44 O 0.9496 0.00968 0.10323 0.0
C45 C 0.08293 0.09855 0.98529 0.0
O46 O 0.08934 0.03082 0.09136 0.0
O47 O 0.07755 0.98652 0.06821 0.0
C48 C 0.00826 0.90958 0.91899 0.0
O49 O 0.00842 0.89884 0.9579 0.0
C50 C 0.97689 0.07701 0.91094 0.0
O51 O 0.9879 0.05066 0.91979 0.0
Zn52 Zn 0.50111 0.59599 0.54101 0.0
Zn53 Zn 0.46487 0.57767 0.61654 0.0
O54 O 0.47946 0.55871 0.5623 0.0
H55 H 0.48559 0.53826 0.55875 0.0
C56 C 0.42566 0.4979 0.3931 0.0
O57 O 0.44911 0.51014 0.4107 0.0
Zn58 Zn 0.54419 0.44263 0.5637 0.0
Zn59 Zn 0.50707 0.40971 0.49611 0.0
O60 O 0.51886 0.45114 0.51343 0.0
H61 H 0.5117 0.47019 0.50351 0.0
Zn62 Zn 0.43122 0.46152 0.46878 0.0
O63 O 0.44793 0.49357 0.50685 0.0
Zn64 Zn 0.44336 0.47864 0.56617 0.0
H65 H 0.46023 0.51009 0.49806 0.0
Zn66 Zn 0.58605 0.53156 0.49316 0.0
O67 O 0.547 0.52917 0.52525 0.0
H68 H 0.5276 0.53161 0.51269 0.0
Zn69 Zn 0.56317 0.54806 0.5775 0.0
C70 C 0.56504 0.51075 0.41116 0.0
O71 O 0.54059 0.524 0.4239 0.0
O72 O 0.47686 0.63435 0.54939 0.0
O73 O 0.44986 0.61972 0.60461 0.0
O74 O 0.54202 0.38078 0.50571 0.0
O75 O 0.57059 0.40583 0.55116 0.0
O76 O 0.40627 0.43176 0.5031 0.0
O77 O 0.40994 0.44792 0.57008 0.0
C78 C 0.52355 0.56935 0.65105 0.0
O79 O 0.60734 0.57201 0.49833 0.0
O80 O 0.58763 0.58417 0.56066 0.0
O81 O 0.48088 0.40619 0.44188 0.0
C82 C 0.45663 0.63929 0.57678 0.0
O83 O 0.53083 0.59606 0.49005 0.0
C84 C 0.49149 0.44704 0.61371 0.0
O85 O 0.41371 0.4756 0.4111 0.0
C86 C 0.56575 0.38299 0.52768 0.0
O87 O 0.58757 0.51049 0.43542 0.0
C88 C 0.42145 0.52971 0.62726 0.0
O89 O 0.49743 0.57732 0.6615 0.0
O90 O 0.52817 0.56227 0.61236 0.0
C91 C 0.39903 0.43021 0.5423 0.0
O92 O 0.51746 0.43596 0.61504 0.0
O93 O 0.48272 0.45941 0.57968 0.0
C94 C 0.58245 0.48967 0.6037 0.0
O95 O 0.43815 0.51551 0.60174 0.0
O96 O 0.4294 0.55562 0.63872 0.0
C97 C 0.60391 0.59046 0.52865 0.0
O98 O 0.58687 0.51725 0.61008 0.0
O99 O 0.56507 0.48177 0.57403 0.0
C100 C 0.48315 0.42733 0.41518 0.0
O101 O 0.50174 0.44914 0.42315 0.0
C102 C 0.54287 0.62135 0.48441 0.0
O103 O 0.53625 0.64298 0.51091 0.0
C104 C 0.38614 0.38386 0.11526 0.0
C105 C 0.37172 0.38362 0.15489 0.0
C106 C 0.3427 0.37212 0.15755 0.0
C107 C 0.32784 0.36272 0.12065 0.0
H108 H 0.27744 0.28708 0.05052 0.0
H109 H 0.23939 0.24914 0.04072 0.0
H110 H 0.20435 0.29854 0.9338 0.0
H111 H 0.24331 0.33542 0.94233 0.0
H112 H 0.30865 0.35908 0.88266 0.0
H113 H 0.33243 0.38214 0.82072 0.0
H114 H 0.38339 0.43875 0.90433 0.0
H115 H 0.35943 0.41656 0.96546 0.0
H116 H 0.38302 0.3761 0.04856 0.0
H117 H 0.40879 0.39171 0.1123 0.0
H118 H 0.33108 0.37158 0.18775 0.0
H119 H 0.30508 0.35513 0.12312 0.0
N120 N 0.30238 0.34018 0.03817 0.0
N121 N 0.29762 0.35073 0.96496 0.0
N122 N 0.33456 0.374 0.00505 0.0
C123 C 0.28825 0.33577 0.00031 0.0
C124 C 0.3208 0.37 0.96725 0.0
C125 C 0.32566 0.35937 0.04053 0.0
C126 C 0.26358 0.31409 0.99692 0.0
C127 C 0.26147 0.28987 0.0251 0.0
C128 C 0.23949 0.26817 0.01957 0.0
C129 C 0.21882 0.27045 0.98613 0.0
C130 C 0.2203 0.29545 0.95915 0.0
C131 C 0.24256 0.31679 0.9642 0.0
C132 C 0.33233 0.3857 0.9291 0.0
C133 C 0.32458 0.37679 0.88769 0.0
C134 C 0.33834 0.38986 0.85224 0.0
C135 C 0.35994 0.4122 0.85756 0.0
C136 C 0.36663 0.4219 0.89891 0.0
C137 C 0.35303 0.40887 0.93413 0.0
C138 C 0.34182 0.36486 0.08072 0.0
C139 C 0.37137 0.37476 0.0787 0.0
C140 C 0.61285 0.4111 0.10761 0.0
C141 C 0.61714 0.40335 0.15043 0.0
C142 C 0.63476 0.37847 0.16028 0.0
C143 C 0.64791 0.36171 0.12796 0.0
H144 H 0.71864 0.30161 0.09884 0.0
H145 H 0.75099 0.26002 0.11521 0.0
H146 H 0.72393 0.21661 -0.00141 0.0
H147 H 0.69309 0.25945 0.98105 0.0
H148 H 0.65893 0.3108 0.9051 0.0
H149 H 0.64837 0.32946 0.83353 0.0
H150 H 0.65786 0.41976 0.87935 0.0
H151 H 0.66648 0.40107 0.95068 0.0
H152 H 0.62234 0.40112 0.04259 0.0
H153 H 0.59967 0.43036 0.09909 0.0
H154 H 0.63817 0.37177 0.19304 0.0
H155 H 0.66131 0.34266 0.13671 0.0
N156 N 0.67329 0.32679 0.05964 0.0
N157 N 0.6815 0.31859 0.98666 0.0
N158 N 0.65443 0.36027 0.00952 0.0
C159 C 0.68528 0.31011 0.0279 0.0
C160 C 0.6663 0.34393 0.97747 0.0
C161 C 0.65753 0.35174 0.05063 0.0
C162 C 0.70348 0.28382 0.03856 0.0
C163 C 0.71954 0.28309 0.0768 0.0
C164 C 0.73794 0.25902 0.08635 0.0
C165 C 0.74023 0.23468 0.05835 0.0
C166 C 0.72337 0.23513 0.02058 0.0
C167 C 0.7055 0.2596 0.01055 0.0
C168 C 0.66307 0.35452 0.93335 0.0
C169 C 0.65886 0.3346 0.89954 0.0
C170 C 0.65295 0.34534 0.85856 0.0
C171 C 0.65174 0.3762 0.85064 0.0
C172 C 0.65755 0.39592 0.88435 0.0
C173 C 0.66276 0.38522 0.92525 0.0
C174 C 0.64377 0.36952 0.08506 0.0
C175 C 0.62606 0.39441 0.07527 0.0
C176 C 0.64082 0.58509 0.94114 0.0
C177 C 0.65105 0.59435 0.90085 0.0
C178 C 0.67453 0.61492 0.89901 0.0
C179 C 0.68761 0.62574 0.93607 0.0
H180 H 0.76749 0.66445 0.98016 0.0
H181 H 0.80619 0.70155 0.96987 0.0
H182 H 0.78195 0.74291 0.08924 0.0
H183 H 0.74437 0.70482 0.10047 0.0
H184 H 0.71744 0.65359 0.16513 0.0
H185 H 0.69547 0.65253 0.23549 0.0
H186 H 0.61765 0.60908 0.18521 0.0
H187 H 0.6397 0.61006 0.1137 0.0
H188 H 0.6455 0.58857 0.009 0.0
H189 H 0.62288 0.56916 0.94382 0.0
H190 H 0.68256 0.62327 0.86877 0.0
H191 H 0.7055 0.64169 0.93283 0.0
N192 N 0.71539 0.64748 0.01139 0.0
N193 N 0.71633 0.65497 0.08491 0.0
N194 N 0.68002 0.62387 0.05496 0.0
C195 C 0.72791 0.66045 0.04592 0.0
C196 C 0.69262 0.63662 0.08997 0.0
C197 C 0.69144 0.62922 0.01541 0.0
C198 C 0.7527 0.68182 0.04093 0.0
C199 C 0.77063 0.68132 0.00436 0.0
C200 C 0.79272 0.70275 -0.00161 0.0
C201 C 0.79702 0.72564 0.0284 0.0
C202 C 0.77963 0.72553 0.06563 0.0
C203 C 0.75788 0.70375 0.07196 0.0
C204 C 0.68014 0.63238 0.13337 0.0
C205 C 0.6957 0.64359 0.16872 0.0
C206 C 0.68313 0.64303 0.20923 0.0
C207 C 0.65469 0.63117 0.2157 0.0
C208 C 0.63965 0.61837 0.18104 0.0
C209 C 0.65225 0.61903 0.14012 0.0
C210 C 0.6775 0.61662 0.97641 0.0
C211 C 0.65389 0.59612 0.97853 0.0
C212 C 0.29151 0.52335 0.88739 0.0
C213 C 0.27956 0.53144 0.84771 0.0
C214 C 0.25682 0.55294 0.84665 0.0
C215 C 0.24786 0.56757 0.88377 0.0
H216 H 0.25096 0.66385 0.93139 0.0
H217 H 0.23561 0.71548 0.92675 0.0
H218 H 0.17933 0.70325 0.03735 0.0
H219 H 0.19723 0.65225 0.04381 0.0
H220 H 0.26364 0.62042 0.10774 0.0
H221 H 0.29165 0.60879 0.1718 0.0
H222 H 0.31154 0.52148 0.12225 0.0
H223 H 0.28357 0.53295 0.05773 0.0
H224 H 0.29292 0.53183 0.95437 0.0
H225 H 0.30923 0.50712 0.88947 0.0
H226 H 0.24665 0.55928 0.81677 0.0
H227 H 0.23109 0.58477 0.88142 0.0
N228 N 0.24147 0.60615 0.95751 0.0
N229 N 0.24547 0.61361 0.03118 0.0
N230 N 0.26317 0.56944 0.00056 0.0
C231 C 0.23675 0.62348 0.99234 0.0
C232 C 0.25877 0.58664 0.0356 0.0
C233 C 0.25432 0.57886 0.96145 0.0
C234 C 0.2251 0.65406 0.98773 0.0
C235 C 0.23519 0.67227 0.95451 0.0
C236 C 0.22612 0.70197 0.95182 0.0
C237 C 0.20581 0.71404 0.98142 0.0
C238 C 0.19539 0.69537 0.01435 0.0
C239 C 0.20532 0.66591 0.01783 0.0
C240 C 0.27168 0.57779 0.07716 0.0
C241 C 0.27352 0.59853 0.11058 0.0
C242 C 0.28966 0.59196 0.14729 0.0
C243 C 0.30401 0.5644 0.15167 0.0
C244 C 0.30061 0.54289 0.11966 0.0
C245 C 0.28471 0.54956 0.08264 0.0
C246 C 0.26111 0.56079 0.92305 0.0
C247 C 0.2823 0.53776 0.92465 0.0
C248 C 0.90488 0.85649 0.63427 0.0
C249 C 0.88722 0.85571 0.67118 0.0
C250 C 0.85689 0.84878 0.66728 0.0
C251 C 0.8446 0.84245 0.62748 0.0
H252 H 0.77193 0.80561 0.57072 0.0
H253 H 0.72755 0.77537 0.569 0.0
H254 H 0.73962 0.76082 0.43417 0.0
H255 H 0.7849 0.79083 0.43593 0.0
H256 H 0.83403 0.85394 0.39493 0.0
H257 H 0.86436 0.87321 0.33617 0.0
H258 H 0.9438 0.85375 0.4081 0.0
H259 H 0.91367 0.83591 0.46682 0.0
H260 H 0.90695 0.85101 0.56684 0.0
H261 H 0.92843 0.86118 0.63611 0.0
H262 H 0.84253 0.84842 0.69496 0.0
H263 H 0.82117 0.83718 0.62562 0.0
N264 N 0.8225 0.82327 0.54491 0.0
N265 N 0.82669 0.82332 0.47033 0.0
N266 N 0.86511 0.84253 0.51258 0.0
C267 C 0.81094 0.81656 0.50611 0.0
C268 C 0.85386 0.8363 0.47357 0.0
C269 C 0.84955 0.83629 0.54838 0.0
C270 C 0.78221 0.80055 0.50351 0.0
C271 C 0.76514 0.79625 0.5405 0.0
C272 C 0.73942 0.77906 0.53947 0.0
C273 C 0.72994 0.76573 0.5014 0.0
C274 C 0.74648 0.77062 0.46405 0.0
C275 C 0.77232 0.78797 0.46505 0.0
C276 C 0.87153 0.84392 0.43558 0.0
C277 C 0.85799 0.85355 0.39775 0.0
C278 C 0.87536 0.86453 0.36417 0.0
C279 C 0.90649 0.86567 0.36784 0.0
C280 C 0.91987 0.85419 0.40474 0.0
C281 C 0.90261 0.84374 0.43832 0.0
C282 C 0.86232 0.84317 0.59064 0.0
C283 C 0.89256 0.85044 0.59449 0.0
C284 C 0.10177 0.87329 0.60434 0.0
C285 C 0.11506 0.88064 0.64348 0.0
C286 C 0.14545 0.87428 0.64908 0.0
C287 C 0.16226 0.86204 0.61597 0.0
H288 H 0.23387 0.80384 0.5862 0.0
H289 H 0.28118 0.77883 0.59751 0.0
H290 H 0.30147 0.7874 0.46369 0.0
H291 H 0.25441 0.81281 0.45226 0.0
H292 H 0.20697 0.8431 0.38915 0.0
H293 H 0.19726 0.86954 0.32216 0.0
H294 H 0.1219 0.91294 0.37967 0.0
H295 H 0.13091 0.88665 0.44601 0.0
H296 H 0.10801 0.85719 0.54082 0.0
H297 H 0.07833 0.87705 0.59905 0.0
H298 H 0.15673 0.87999 0.67835 0.0
H299 H 0.18579 0.85843 0.62087 0.0
N300 N 0.19374 0.83271 0.5452 0.0
N301 N 0.2035 0.83539 0.47182 0.0
N302 N 0.15994 0.85626 0.49969 0.0
C303 C 0.21162 0.82626 0.51149 0.0
C304 C 0.17764 0.85042 0.46567 0.0
C305 C 0.16776 0.84751 0.53944 0.0
C306 C 0.24022 0.81045 0.51827 0.0
C307 C 0.24836 0.80043 0.55909 0.0
C308 C 0.27546 0.78594 0.56562 0.0
C309 C 0.29515 0.7812 0.53156 0.0
C310 C 0.287 0.7911 0.49074 0.0
C311 C 0.25987 0.8055 0.48415 0.0
C312 C 0.16996 0.86296 0.42329 0.0
C313 C 0.18799 0.85785 0.38732 0.0
C314 C 0.18242 0.8728 0.34893 0.0
C315 C 0.15892 0.89319 0.34613 0.0
C316 C 0.14015 0.89726 0.38125 0.0
C317 C 0.14544 0.88218 0.41927 0.0
C318 C 0.14925 0.85643 0.57621 0.0
C319 C 0.11873 0.86167 0.57098 0.0
C320 C 0.10197 0.15169 0.39431 0.0
C321 C 0.12347 0.14599 0.3628 0.0
C322 C 0.1534 0.15259 0.37185 0.0
C323 C 0.16154 0.16438 0.41143 0.0
H324 H 0.20837 0.24262 0.47131 0.0
H325 H 0.2462 0.28036 0.48428 0.0
H326 H 0.24454 0.25925 0.61851 0.0
H327 H 0.2062 0.22236 0.60579 0.0
H328 H 0.13631 0.20991 0.63712 0.0
H329 H 0.10464 0.19757 0.69756 0.0
H330 H 0.06494 0.12619 0.62551 0.0
H331 H 0.09655 0.13844 0.56473 0.0
H332 H 0.09299 0.16676 0.45749 0.0
H333 H 0.07862 0.14787 0.38834 0.0
H334 H 0.17068 0.14821 0.3487 0.0
H335 H 0.18474 0.16896 0.41765 0.0
N336 N 0.1722 0.19838 0.49128 0.0
N337 N 0.16172 0.20099 0.56439 0.0
N338 N 0.13125 0.17277 0.51978 0.0
C339 C 0.17902 0.2088 0.53077 0.0
C340 C 0.13789 0.18296 0.55922 0.0
C341 C 0.14826 0.18029 0.4857 0.0
C342 C 0.20405 0.22964 0.53751 0.0
C343 C 0.21629 0.24586 0.50351 0.0
C344 C 0.23806 0.26745 0.51098 0.0
C345 C 0.24826 0.27307 0.55256 0.0
C346 C 0.23674 0.25604 0.58625 0.0
C347 C 0.21484 0.23471 0.57886 0.0
C348 C 0.11895 0.17517 0.59605 0.0
C349 C 0.12091 0.19153 0.63408 0.0
C350 C 0.10266 0.18462 0.66862 0.0
C351 C 0.08235 0.16102 0.66604 0.0
C352 C 0.08056 0.14441 0.6283 0.0
C353 C 0.09856 0.15154 0.59351 0.0
C354 C 0.14001 0.16925 0.44302 0.0
C355 C 0.11017 0.16283 0.43399 0.0
C356 C 0.90739 0.11985 0.42391 0.0
C357 C 0.89016 0.11334 0.38792 0.0
C358 C 0.86165 0.12606 0.38462 0.0
C359 C 0.85007 0.14349 0.41782 0.0
H360 H 0.78303 0.20498 0.45719 0.0
H361 H 0.73834 0.23529 0.45365 0.0
H362 H 0.7423 0.24973 0.58933 0.0
H363 H 0.78735 0.2196 0.59305 0.0
H364 H 0.82385 0.14886 0.64009 0.0
H365 H 0.84524 0.1213 0.69984 0.0
H366 H 0.93306 0.13527 0.64776 0.0
H367 H 0.91148 0.16138 0.58742 0.0
H368 H 0.90963 0.14085 0.48466 0.0
H369 H 0.92969 0.11108 0.42701 0.0
H370 H 0.84778 0.12144 0.35729 0.0
H371 H 0.82759 0.15185 0.41526 0.0
N372 N 0.82854 0.17949 0.49133 0.0
N373 N 0.82817 0.18353 0.56613 0.0
N374 N 0.86567 0.15654 0.53175 0.0
C375 C 0.81593 0.19049 0.52767 0.0
C376 C 0.85322 0.16672 0.56815 0.0
C377 C 0.85356 0.16253 0.49328 0.0
C378 C 0.78884 0.20953 0.52546 0.0
C379 C 0.77454 0.21461 0.48636 0.0
C380 C 0.74878 0.23195 0.48432 0.0
C381 C 0.73659 0.24481 0.52126 0.0
C382 C 0.7512 0.24034 0.56024 0.0
C383 C 0.77694 0.22283 0.56235 0.0
C384 C 0.86602 0.15693 0.60904 0.0
C385 C 0.84776 0.14662 0.64215 0.0
C386 C 0.86007 0.13081 0.67634 0.0
C387 C 0.89088 0.12542 0.67816 0.0
C388 C 0.9092 0.13811 0.64674 0.0
C389 C 0.89688 0.15338 0.61238 0.0
C390 C 0.86678 0.14845 0.45491 0.0
C391 C 0.89587 0.1371 0.45693 0.0
H392 H 0.11075 0.13439 0.04445 0.0
H393 H 0.09509 0.12483 0.90866 0.0
H394 H 0.12664 0.16848 0.89484 0.0
H395 H 0.11093 0.21593 0.04523 0.0
H396 H 0.13987 0.21816 0.08465 0.0
H397 H 0.11494 0.1868 0.0843 0.0
H398 H 0.15982 0.15095 0.07971 0.0
H399 H 0.18492 0.18214 0.07975 0.0
H400 H 0.18641 0.15531 0.03718 0.0
H401 H 0.16252 0.21059 0.89489 0.0
H402 H 0.19859 0.25037 0.90891 0.0
H403 H 0.18928 0.23502 0.04493 0.0
C404 C 0.11372 0.14162 0.01183 0.0
C405 C 0.10043 0.12603 0.97766 0.0
C406 C 0.10497 0.13629 0.93545 0.0
C407 C 0.12289 0.16111 0.9272 0.0
C408 C 0.13597 0.17566 0.96147 0.0
C409 C 0.13144 0.16653 0.00297 0.0
C410 C 0.14856 0.18596 0.03385 0.0
C411 C 0.1273 0.20271 0.06377 0.0
C412 C 0.17128 0.16748 0.0591 0.0
C413 C 0.1638 0.20707 0.00309 0.0
C414 C 0.15618 0.20067 0.96154 0.0
C415 C 0.16827 0.2162 0.92733 0.0
C416 C 0.18863 0.23899 0.93574 0.0
C417 C 0.19664 0.24638 0.97811 0.0
C418 C 0.18387 0.23005 0.01215 0.0
H419 H 0.86397 0.11501 0.00084 0.0
H420 H 0.88112 0.10565 0.1358 0.0
H421 H 0.83833 0.13835 0.15163 0.0
H422 H 0.84909 0.19147 0.00515 0.0
H423 H 0.82122 0.19063 0.96406 0.0
H424 H 0.8505 0.16341 0.96419 0.0
H425 H 0.81147 0.12102 0.96425 0.0
H426 H 0.78199 0.14815 0.96422 0.0
H427 H 0.78338 0.12008 0.00518 0.0
H428 H 0.79416 0.17357 0.15164 0.0
H429 H 0.75588 0.21134 0.13667 0.0
H430 H 0.77253 0.20136 0.0011 0.0
C431 C 0.85853 0.11931 0.03386 0.0
C432 C 0.87546 0.10695 0.06737 0.0
C433 C 0.8679 0.11399 0.10989 0.0
C434 C 0.84372 0.13269 0.11905 0.0
C435 C 0.82761 0.14452 0.08513 0.0
C436 C 0.83497 0.13831 0.04339 0.0
C437 C 0.81611 0.15587 0.01253 0.0
C438 C 0.83538 0.17657 0.98488 0.0
C439 C 0.79711 0.13503 0.98493 0.0
C440 C 0.79713 0.17329 0.04341 0.0
C441 C 0.80367 0.16608 0.08511 0.0
C442 C 0.78901 0.17951 0.11909 0.0
C443 C 0.76745 0.20119 0.11018 0.0
C444 C 0.76116 0.20976 0.06761 0.0
C445 C 0.77617 0.19521 0.03398 0.0
H446 H 0.90852 0.86025 0.08221 0.0
H447 H 0.90717 0.87997 0.94674 0.0
H448 H 0.87555 0.83654 0.93428 0.0
H449 H 0.90958 0.77925 0.07097 0.0
H450 H 0.88543 0.77294 0.11588 0.0
H451 H 0.90924 0.80516 0.11477 0.0
H452 H 0.86371 0.83935 0.1259 0.0
H453 H 0.83967 0.80733 0.12701 0.0
H454 H 0.8328 0.83699 0.08965 0.0
H455 H 0.84214 0.79337 0.93583 0.0
H456 H 0.80891 0.7515 0.95131 0.0
H457 H 0.83224 0.75709 0.08535 0.0
C458 C 0.90168 0.8553 0.04996 0.0
C459 C 0.91068 0.87347 0.01544 0.0
C460 C 0.90107 0.86627 0.97371 0.0
C461 C 0.88294 0.84164 0.96621 0.0
C462 C 0.87447 0.82426 0.00072 0.0
C463 C 0.88348 0.83057 0.04176 0.0
C464 C 0.87046 0.80829 0.073 0.0
C465 C 0.89516 0.79034 0.09494 0.0
C466 C 0.85047 0.82393 0.10582 0.0
C467 C 0.85245 0.78889 0.04299 0.0
C468 C 0.85524 0.79859 0.0015 0.0
C469 C 0.84008 0.78519 0.9681 0.0
C470 C 0.8214 0.76116 0.97725 0.0
C471 C 0.81812 0.75047 0.01949 0.0
C472 C 0.83408 0.76462 0.05272 0.0
H473 H 0.12875 0.8666 0.05599 0.0
H474 H 0.13452 0.89465 0.92387 0.0
H475 H 0.16378 0.85011 0.90696 0.0
H476 H 0.20511 0.83145 0.0599 0.0
H477 H 0.19226 0.80174 0.09383 0.0
H478 H 0.17536 0.83805 0.09719 0.0
H479 H 0.1239 0.81423 0.08405 0.0
H480 H 0.14058 0.77797 0.07976 0.0
H481 H 0.11806 0.79213 0.03692 0.0
H482 H 0.18385 0.79924 0.90112 0.0
H483 H 0.20005 0.74754 0.90822 0.0
H484 H 0.1865 0.75279 0.04525 0.0
C485 C 0.13712 0.8639 0.02389 0.0
C486 C 0.12925 0.88419 0.9913 0.0
C487 C 0.14013 0.87947 0.94944 0.0
C488 C 0.15681 0.85418 0.93942 0.0
C489 C 0.16294 0.8339 0.97168 0.0
C490 C 0.1541 0.83869 0.01328 0.0
C491 C 0.16231 0.81229 0.04113 0.0
C492 C 0.18512 0.82143 0.07502 0.0
C493 C 0.13455 0.79834 0.06166 0.0
C494 C 0.176 0.79159 0.00826 0.0
C495 C 0.17609 0.80462 0.96849 0.0
C496 C 0.18494 0.78911 0.93234 0.0
C497 C 0.19436 0.75959 0.93688 0.0
C498 C 0.19547 0.74569 0.97748 0.0
C499 C 0.18612 0.76227 0.01361 0.0
H500 H 0.65046 0.60849 0.47805 0.0
H501 H 0.58728 0.64017 0.57221 0.0
H502 H 0.60851 0.69052 0.56681 0.0
H503 H 0.71086 0.64788 0.51895 0.0
H504 H 0.72777 0.65597 0.46821 0.0
H505 H 0.70484 0.62347 0.47425 0.0
H506 H 0.67068 0.64127 0.41199 0.0
H507 H 0.69493 0.67291 0.40556 0.0
H508 H 0.65579 0.6785 0.41358 0.0
H509 H 0.6379 0.73635 0.55494 0.0
H510 H 0.67736 0.77352 0.54377 0.0
H511 H 0.724 0.71168 0.4612 0.0
C512 C 0.64091 0.62613 0.49713 0.0
C513 C 0.61719 0.62044 0.5255 0.0
C514 C 0.60555 0.64397 0.55042 0.0
C515 C 0.61723 0.67274 0.54722 0.0
C516 C 0.6407 0.6776 0.5192 0.0
C517 C 0.65267 0.65494 0.49488 0.0
C518 C 0.68004 0.66542 0.47106 0.0
C519 C 0.70749 0.64711 0.48391 0.0
C520 C 0.67504 0.66444 0.42269 0.0
C521 C 0.68207 0.69723 0.48691 0.0
C522 C 0.65868 0.70395 0.51374 0.0
C523 C 0.65629 0.73143 0.53388 0.0
C524 C 0.67891 0.75232 0.52754 0.0
C525 C 0.7039 0.74546 0.50189 0.0
C526 C 0.705 0.7178 0.48044 0.0
H527 H 0.40119 0.64997 0.60976 0.0
H528 H 0.47102 0.69024 0.53371 0.0
H529 H 0.43845 0.73317 0.51891 0.0
H530 H 0.34338 0.66823 0.5421 0.0
H531 H 0.31639 0.67565 0.58317 0.0
H532 H 0.34639 0.65019 0.59319 0.0
H533 H 0.36226 0.68102 0.65892 0.0
H534 H 0.3321 0.70653 0.64939 0.0
H535 H 0.36961 0.72026 0.65306 0.0
H536 H 0.39684 0.76906 0.50626 0.0
H537 H 0.34937 0.79588 0.49781 0.0
H538 H 0.30616 0.73162 0.58043 0.0
C539 C 0.40996 0.66822 0.59104 0.0
C540 C 0.43876 0.66685 0.57319 0.0
C541 C 0.44909 0.69085 0.54789 0.0
C542 C 0.43076 0.71536 0.53935 0.0
C543 C 0.40217 0.71558 0.55634 0.0
C544 C 0.39186 0.69274 0.58189 0.0
C545 C 0.35945 0.69723 0.5933 0.0
C546 C 0.34029 0.67129 0.57695 0.0
C547 C 0.35564 0.70152 0.64154 0.0
C548 C 0.35297 0.72575 0.56929 0.0
C549 C 0.37799 0.73612 0.54855 0.0
C550 C 0.37717 0.76131 0.52269 0.0
C551 C 0.35005 0.77625 0.51779 0.0
C552 C 0.32402 0.76588 0.53844 0.0
C553 C 0.32573 0.74041 0.56481 0.0
H554 H 0.38376 0.38032 0.49833 0.0
H555 H 0.36398 0.42924 0.61399 0.0
H556 H 0.32478 0.39256 0.63171 0.0
H557 H 0.31039 0.36348 0.47092 0.0
H558 H 0.31858 0.32687 0.45061 0.0
H559 H 0.34657 0.35543 0.44914 0.0
H560 H 0.38259 0.32145 0.49122 0.0
H561 H 0.3548 0.29263 0.49258 0.0
H562 H 0.37094 0.30592 0.54147 0.0
H563 H 0.28509 0.35257 0.63318 0.0
H564 H 0.24939 0.31199 0.61999 0.0
H565 H 0.29654 0.28903 0.50389 0.0
C566 C 0.37139 0.38323 0.52763 0.0
C567 C 0.37697 0.40754 0.55496 0.0
C568 C 0.36029 0.41054 0.59293 0.0
C569 C 0.33793 0.3899 0.60311 0.0
C570 C 0.33274 0.36642 0.57503 0.0
C571 C 0.3492 0.36291 0.53823 0.0
C572 C 0.33874 0.33646 0.51255 0.0
C573 C 0.32793 0.34616 0.4682 0.0
C574 C 0.36323 0.31271 0.50929 0.0
C575 C 0.3133 0.32593 0.5401 0.0
C576 C 0.31026 0.34336 0.5761 0.0
C577 C 0.28756 0.33852 0.60543 0.0
C578 C 0.26747 0.31529 0.59773 0.0
C579 C 0.27021 0.2971 0.561 0.0
C580 C 0.29362 0.30256 0.53209 0.0
H581 H 0.62164 0.37886 0.5651 0.0
H582 H 0.56047 0.33152 0.48242 0.0
H583 H 0.5969 0.29143 0.47373 0.0
H584 H 0.68784 0.36033 0.50797 0.0
H585 H 0.71057 0.35538 0.55461 0.0
H586 H 0.67934 0.38042 0.55614 0.0
H587 H 0.6579 0.35202 0.62091 0.0
H588 H 0.68907 0.32689 0.61972 0.0
H589 H 0.65177 0.31247 0.61724 0.0
H590 H 0.63973 0.25709 0.47136 0.0
H591 H 0.68689 0.22966 0.47681 0.0
H592 H 0.72155 0.29787 0.56103 0.0
C593 C 0.61583 0.35995 0.54549 0.0
C594 C 0.588 0.35854 0.52452 0.0
C595 C 0.58148 0.33337 0.4989 0.0
C596 C 0.60207 0.31034 0.49371 0.0
C597 C 0.62923 0.3125 0.51444 0.0
C598 C 0.63622 0.3365 0.54 0.0
C599 C 0.66736 0.33317 0.55805 0.0
C600 C 0.68746 0.35885 0.5433 0.0
C601 C 0.66646 0.331 0.60688 0.0
C602 C 0.67673 0.30377 0.53813 0.0
C603 C 0.65426 0.29233 0.51319 0.0
C604 C 0.65752 0.26578 0.49083 0.0
C605 C 0.68451 0.25045 0.49389 0.0
C606 C 0.70807 0.26162 0.5191 0.0
C607 C 0.70393 0.28861 0.54175 0.0
H608 H 0.0142 0.06353 0.20252 0.0
H609 H 0.06754 0.09828 0.09901 0.0
H610 H 0.10378 0.11812 0.15069 0.0
H611 H 0.02244 0.12309 0.27157 0.0
H612 H 0.02489 0.10116 0.31949 0.0
H613 H 0.00496 0.08704 0.27424 0.0
H614 H 0.03765 0.03963 0.27415 0.0
H615 H 0.05768 0.05341 0.31968 0.0
H616 H 0.0775 0.04313 0.272 0.0
H617 H 0.13057 0.13934 0.21411 0.0
H618 H 0.14748 0.15794 0.28375 0.0
H619 H 0.07839 0.10617 0.346 0.0
C620 C 0.03378 0.07493 0.19079 0.0
C621 C 0.03837 0.07917 0.14678 0.0
C622 C 0.06407 0.09426 0.13251 0.0
C623 C 0.08464 0.10573 0.16169 0.0
C624 C 0.07928 0.10151 0.20498 0.0
C625 C 0.05469 0.08609 0.21946 0.0
C626 C 0.05347 0.0855 0.26757 0.0
C627 C 0.02474 0.10007 0.28416 0.0
C628 C 0.05679 0.05352 0.28433 0.0
C629 C 0.08053 0.10411 0.27791 0.0
C630 C 0.09522 0.11299 0.24145 0.0
C631 C 0.11964 0.132 0.24297 0.0
C632 C 0.12919 0.14233 0.28281 0.0
C633 C 0.11444 0.13355 0.32073 0.0
C634 C 0.09008 0.11372 0.31789 0.0
H635 H 0.91803 0.04793 0.15419 0.0
H636 H 0.95908 0.97147 0.21377 0.0
H637 H 0.95118 0.99405 0.28459 0.0
H638 H 0.94524 0.105 0.22687 0.0
H639 H 0.9107 0.12518 0.22397 0.0
H640 H 0.92281 0.10262 0.17979 0.0
H641 H 0.87073 0.07128 0.18599 0.0
H642 H 0.86161 0.09774 0.22719 0.0
H643 H 0.86068 0.05835 0.2379 0.0
H644 H 0.9382 0.02511 0.34888 0.0
H645 H 0.91952 0.06095 0.40198 0.0
H646 H 0.88596 0.11711 0.30038 0.0
C647 C 0.92578 0.03625 0.18207 0.0
C648 C 0.93961 0.00821 0.17848 0.0
C649 C 0.94855 0.99304 0.21586 0.0
C650 C 0.94422 0.00575 0.25618 0.0
C651 C 0.9305 0.0335 0.25861 0.0
C652 C 0.92114 0.04842 0.2226 0.0
C653 C 0.90554 0.0772 0.23406 0.0
C654 C 0.922 0.1041 0.21502 0.0
C655 C 0.87274 0.07618 0.22043 0.0
C656 C 0.90815 0.07655 0.28205 0.0
C657 C 0.92257 0.0511 0.29559 0.0
C658 C 0.92704 0.04519 0.33859 0.0
C659 C 0.91646 0.06579 0.3685 0.0
C660 C 0.90148 0.09204 0.35541 0.0
C661 C 0.89726 0.09731 0.31148 0.0
H662 H 0.96584 0.89983 0.1324 0.0
H663 H 0.04006 0.94497 0.19182 0.0
H664 H 0.01811 0.93567 0.2627 0.0
H665 H 0.90924 0.92645 0.20612 0.0
H666 H 0.88889 0.89189 0.20604 0.0
H667 H 0.90982 0.9029 0.1597 0.0
H668 H 0.93878 0.85321 0.16174 0.0
H669 H 0.9179 0.84184 0.20783 0.0
H670 H 0.95789 0.84251 0.20976 0.0
H671 H 0.9885 0.922 0.32611 0.0
H672 H 0.95484 0.90129 0.38014 0.0
H673 H 0.90033 0.86279 0.28031 0.0
C674 C 0.97722 0.90793 0.16041 0.0
C675 C 0.00456 0.92305 0.15703 0.0
C676 C 0.01922 0.93303 0.19411 0.0
C677 C 0.00685 0.92805 0.23434 0.0
C678 C 0.97986 0.91302 0.23672 0.0
C679 C 0.96524 0.90296 0.20088 0.0
C680 C 0.93698 0.88657 0.21259 0.0
C681 C 0.90961 0.90294 0.19508 0.0
C682 C 0.93797 0.85411 0.19707 0.0
C683 C 0.93837 0.88849 0.26072 0.0
C684 C 0.96303 0.90433 0.27374 0.0
C685 C 0.96926 0.90929 0.31644 0.0
C686 C 0.9501 0.89718 0.34688 0.0
C687 C 0.92523 0.87986 0.33458 0.0
C688 C 0.91909 0.87593 0.29079 0.0
H689 H 0.10181 0.94328 0.11609 0.0
H690 H 0.11665 0.03394 0.15929 0.0
H691 H 0.13982 0.01499 0.22432 0.0
H692 H 0.0815 0.91397 0.21799 0.0
H693 H 0.09934 0.87862 0.20958 0.0
H694 H 0.08589 0.89953 0.16475 0.0
H695 H 0.13881 0.89713 0.13161 0.0
H696 H 0.15212 0.87696 0.17738 0.0
H697 H 0.16995 0.91113 0.16152 0.0
H698 H 0.15704 0.98767 0.28702 0.0
H699 H 0.16737 0.95243 0.34541 0.0
H700 H 0.14202 0.87869 0.26435 0.0
C701 C 0.10996 0.95909 0.13913 0.0
C702 C 0.10715 0.99013 0.13239 0.0
C703 C 0.11853 0.01006 0.16334 0.0
C704 C 0.13182 0.99954 0.20054 0.0
C705 C 0.13377 0.96897 0.20655 0.0
C706 C 0.12322 0.9489 0.1769 0.0
C707 C 0.1268 0.91714 0.19283 0.0
C708 C 0.09657 0.90142 0.19646 0.0
C709 C 0.1482 0.89956 0.16413 0.0
C710 C 0.14021 0.92272 0.23646 0.0
C711 C 0.14425 0.95285 0.2433 0.0
C712 C 0.1544 0.964 0.28194 0.0
C713 C 0.16014 0.9439 0.31488 0.0
C714 C 0.15572 0.91304 0.309 0.0
C715 C 0.14609 0.9022 0.26913 0.0
H716 H 0.09092 0.94772 0.8747 0.0
H717 H 0.02804 0.00949 0.8187 0.0
H718 H 0.03097 0.98226 0.75068 0.0
H719 H 0.13766 0.94013 0.78929 0.0
H720 H 0.14434 0.90079 0.79537 0.0
H721 H 0.13453 0.92287 0.84095 0.0
H722 H 0.09008 0.8881 0.85676 0.0
H723 H 0.09972 0.86561 0.81128 0.0
H724 H 0.06293 0.88112 0.81587 0.0
H725 H 0.04646 0.95291 0.68666 0.0
H726 H 0.07109 0.92243 0.63218 0.0
H727 H 0.12094 0.8768 0.731 0.0
C728 C 0.07745 0.95532 0.84832 0.0
C729 C 0.05966 0.9811 0.85175 0.0
C730 C 0.04219 0.99012 0.81659 0.0
C731 C 0.04357 0.97466 0.7779 0.0
C732 C 0.06207 0.94986 0.77522 0.0
C733 C 0.07826 0.9399 0.80971 0.0
C734 C 0.09734 0.91338 0.79802 0.0
C735 C 0.13042 0.9197 0.80639 0.0
C736 C 0.08688 0.88539 0.82189 0.0
C737 C 0.09079 0.91116 0.75087 0.0
C738 C 0.07007 0.93211 0.73851 0.0
C739 C 0.06221 0.93594 0.69605 0.0
C740 C 0.07627 0.91828 0.66528 0.0
C741 C 0.09796 0.89686 0.67699 0.0
C742 C 0.10467 0.89297 0.72066 0.0
H743 H 0.01041 0.05709 0.84411 0.0
H744 H 0.96938 0.13643 0.8964 0.0
H745 H 0.99026 0.16621 0.83756 0.0
H746 H 0.07798 0.09163 0.81321 0.0
H747 H 0.08232 0.07006 0.76524 0.0
H748 H 0.06253 0.05473 0.80996 0.0
H749 H 0.01589 0.0458 0.76182 0.0
H750 H 0.03678 0.06027 0.7175 0.0
H751 H 0.00151 0.07651 0.7312 0.0
H752 H 0.01766 0.18778 0.77567 0.0
H753 H 0.04907 0.19957 0.71327 0.0
H754 H 0.07259 0.10628 0.70158 0.0
C755 C 0.00581 0.08069 0.8431 0.0
C756 C 0.98838 0.09446 0.87479 0.0
C757 C 0.98262 0.1254 0.87231 0.0
C758 C 0.99436 0.1425 0.83904 0.0
C759 C 0.01177 0.12829 0.80858 0.0
C760 C 0.01739 0.09807 0.81014 0.0
C761 C 0.0377 0.08849 0.77427 0.0
C762 C 0.06685 0.07547 0.79171 0.0
C763 C 0.02202 0.06643 0.74446 0.0
C764 C 0.04279 0.1181 0.75251 0.0
C765 C 0.0276 0.14076 0.77278 0.0
C766 C 0.02952 0.17023 0.75931 0.0
C767 C 0.04747 0.17672 0.72406 0.0
C768 C 0.06308 0.15381 0.70271 0.0
C769 C 0.06055 0.12414 0.71705 0.0
H770 H 0.90341 0.0405 0.90138 0.0
H771 H 0.97346 0.98694 0.84503 0.0
H772 H 0.96901 0.01562 0.77828 0.0
H773 H 0.85883 0.04611 0.80783 0.0
H774 H 0.84736 0.08388 0.81791 0.0
H775 H 0.85649 0.05971 0.86171 0.0
H776 H 0.89598 0.09761 0.88871 0.0
H777 H 0.88565 0.12196 0.8456 0.0
H778 H 0.92377 0.11095 0.85202 0.0
H779 H 0.95524 0.04837 0.71691 0.0
H780 H 0.93498 0.08434 0.66562 0.0
H781 H 0.875 0.11808 0.76272 0.0
C782 C 0.91786 0.03479 0.87504 0.0
C783 C 0.93869 0.01136 0.87834 0.0
C784 C 0.95723 0.00469 0.84316 0.0
C785 C 0.95495 0.02093 0.80517 0.0
C786 C 0.93414 0.04385 0.80301 0.0
C787 C 0.91598 0.05086 0.83701 0.0
C788 C 0.89503 0.07614 0.8261 0.0
C789 C 0.86251 0.06583 0.82852 0.0
C790 C 0.90044 0.10326 0.85485 0.0
C791 C 0.90433 0.08235 0.78061 0.0
C792 C 0.92681 0.06336 0.76793 0.0
C793 C 0.93818 0.06388 0.72678 0.0
C794 C 0.92657 0.08457 0.69792 0.0
C795 C 0.90369 0.10457 0.71017 0.0
C796 C 0.89251 0.10328 0.75224 0.0
H797 H 0.00192 0.92707 0.83574 0.0
H798 H 0.96573 0.86714 0.93119 0.0
H799 H 0.92956 0.84838 0.8789 0.0
H800 H 0.93304 0.94542 0.78483 0.0
H801 H 0.94812 0.94543 0.73162 0.0
H802 H 0.9715 0.95479 0.77603 0.0
H803 H 0.00887 0.9137 0.75614 0.0
H804 H 0.98661 0.90471 0.71041 0.0
H805 H 0.99608 0.87614 0.74837 0.0
H806 H 0.89857 0.8349 0.81611 0.0
H807 H 0.87501 0.82703 0.74629 0.0
H808 H 0.93037 0.89663 0.69203 0.0
C809 C 0.98629 0.91012 0.84572 0.0
C810 C 0.98654 0.89864 0.8876 0.0
C811 C 0.96586 0.87634 0.89932 0.0
C812 C 0.94521 0.86554 0.86988 0.0
C813 C 0.94553 0.87731 0.8289 0.0
C814 C 0.96553 0.89905 0.81673 0.0
C815 C 0.96173 0.90724 0.77032 0.0
C816 C 0.95305 0.94017 0.76544 0.0
C817 C 0.98999 0.89999 0.74478 0.0
C818 C 0.9364 0.88671 0.75837 0.0
C819 C 0.92744 0.86964 0.79262 0.0
C820 C 0.90515 0.84833 0.78909 0.0
C821 C 0.89176 0.84417 0.74933 0.0
C822 C 0.90065 0.8613 0.71361 0.0
C823 C 0.92316 0.883 0.71853 0.0
H824 H 0.51741 0.56886 0.73803 0.0
H825 H 0.58387 0.57037 0.63824 0.0
H826 H 0.62343 0.56904 0.69192 0.0
H827 H 0.55392 0.61952 0.80403 0.0
H828 H 0.54333 0.60204 0.85343 0.0
H829 H 0.52022 0.59798 0.80718 0.0
H830 H 0.52359 0.54053 0.81395 0.0
H831 H 0.54687 0.54446 0.86025 0.0
H832 H 0.55952 0.52289 0.81539 0.0
H833 H 0.65584 0.57059 0.75616 0.0
H834 H 0.67891 0.5808 0.82557 0.0
H835 H 0.59162 0.58362 0.88443 0.0
C836 C 0.5403 0.56844 0.72744 0.0
C837 C 0.54748 0.56846 0.68354 0.0
C838 C 0.5777 0.56877 0.67126 0.0
C839 C 0.6004 0.56828 0.70172 0.0
C840 C 0.59257 0.56804 0.74461 0.0
C841 C 0.56326 0.56846 0.75755 0.0
C842 C 0.56093 0.57122 0.80558 0.0
C843 C 0.54359 0.59936 0.81828 0.0
C844 C 0.54689 0.5431 0.82493 0.0
C845 C 0.59349 0.57361 0.81739 0.0
C846 C 0.61132 0.57083 0.78179 0.0
C847 C 0.64209 0.57293 0.78425 0.0
C848 C 0.65497 0.57899 0.82386 0.0
C849 C 0.63714 0.58358 0.86057 0.0
C850 C 0.60598 0.58003 0.85725 0.0
H851 H 0.37309 0.56228 0.64399 0.0
H852 H 0.4058 0.47188 0.64919 0.0
H853 H 0.36546 0.45888 0.70001 0.0
H854 H 0.36202 0.5723 0.74521 0.0
H855 H 0.3285 0.59413 0.74215 0.0
H856 H 0.3538 0.59376 0.69813 0.0
H857 H 0.31208 0.57606 0.64751 0.0
H858 H 0.28619 0.57696 0.69133 0.0
H859 H 0.29077 0.54336 0.6607 0.0
H860 H 0.33055 0.46074 0.76488 0.0
H861 H 0.30103 0.47507 0.82829 0.0
H862 H 0.29139 0.56415 0.77702 0.0
C863 C 0.37106 0.5394 0.65451 0.0
C864 C 0.39297 0.51826 0.64395 0.0
C865 C 0.38954 0.48852 0.65776 0.0
C866 C 0.36666 0.48101 0.68656 0.0
C867 C 0.34701 0.50335 0.69968 0.0
C868 C 0.34843 0.53171 0.68266 0.0
C869 C 0.32735 0.55285 0.70469 0.0
C870 C 0.34393 0.5798 0.72367 0.0
C871 C 0.30262 0.56288 0.67424 0.0
C872 C 0.31532 0.53268 0.73901 0.0
C873 C 0.32638 0.50405 0.73548 0.0
C874 C 0.32111 0.48283 0.76711 0.0
C875 C 0.30449 0.49124 0.8032 0.0
C876 C 0.29338 0.52067 0.8074 0.0
C877 C 0.29849 0.54121 0.77423 0.0
H878 H 0.46023 0.40082 0.64792 0.0
H879 H 0.48107 0.49417 0.66479 0.0
H880 H 0.4487 0.49592 0.72863 0.0
H881 H 0.38304 0.40546 0.67951 0.0
H882 H 0.38358 0.36977 0.70548 0.0
H883 H 0.4083 0.37696 0.6615 0.0
H884 H 0.45284 0.36223 0.71044 0.0
H885 H 0.42771 0.35602 0.75419 0.0
H886 H 0.45813 0.38175 0.75997 0.0
H887 H 0.41164 0.48808 0.78743 0.0
H888 H 0.37738 0.46991 0.84308 0.0
H889 H 0.38195 0.38105 0.78918 0.0
C890 C 0.45792 0.4215 0.66531 0.0
C891 C 0.47275 0.44744 0.65182 0.0
C892 C 0.46956 0.4742 0.67494 0.0
C893 C 0.45138 0.47534 0.71116 0.0
C894 C 0.43643 0.44952 0.72334 0.0
C895 C 0.43965 0.42305 0.70133 0.0
C896 C 0.42124 0.39852 0.72128 0.0
C897 C 0.39767 0.38698 0.69004 0.0
C898 C 0.44117 0.37314 0.73744 0.0
C899 C 0.40702 0.41536 0.75772 0.0
C900 C 0.41583 0.44481 0.75806 0.0
C901 C 0.40505 0.46492 0.78803 0.0
C902 C 0.38562 0.45438 0.8195 0.0
C903 C 0.37723 0.42397 0.82088 0.0
C904 C 0.3877 0.40445 0.78893 0.0
H905 H 0.58025 0.49309 0.68961 0.0
H906 H 0.61177 0.43816 0.58571 0.0
H907 H 0.63253 0.40207 0.6376 0.0
H908 H 0.64174 0.4826 0.75876 0.0
H909 H 0.61955 0.48144 0.80654 0.0
H910 H 0.60688 0.50224 0.76111 0.0
H911 H 0.55769 0.47257 0.76098 0.0
H912 H 0.57004 0.45168 0.80656 0.0
H913 H 0.55871 0.43248 0.75891 0.0
H914 H 0.65163 0.37347 0.70131 0.0
H915 H 0.66585 0.35337 0.77156 0.0
H916 H 0.61865 0.42605 0.83293 0.0
C917 C 0.59144 0.47335 0.67793 0.0
C918 C 0.5942 0.46789 0.63398 0.0
C919 C 0.60889 0.44204 0.61946 0.0
C920 C 0.62092 0.42168 0.64861 0.0
C921 C 0.61773 0.42759 0.69194 0.0
C922 C 0.60313 0.4527 0.70651 0.0
C923 C 0.60242 0.45386 0.75455 0.0
C924 C 0.61863 0.48167 0.7712 0.0
C925 C 0.57031 0.45255 0.77122 0.0
C926 C 0.6193 0.42566 0.76482 0.0
C927 C 0.62806 0.41086 0.72839 0.0
C928 C 0.64462 0.38468 0.7301 0.0
C929 C 0.65243 0.37333 0.77019 0.0
C930 C 0.64345 0.38804 0.80802 0.0
C931 C 0.62644 0.41443 0.80489 0.0
H932 H 0.61296 0.48311 0.37573 0.0
H933 H 0.5217 0.50831 0.35002 0.0
H934 H 0.52495 0.48412 0.27942 0.0
H935 H 0.64 0.49577 0.26881 0.0
H936 H 0.66557 0.46493 0.27096 0.0
H937 H 0.65579 0.48453 0.31898 0.0
H938 H 0.63897 0.43489 0.35362 0.0
H939 H 0.64859 0.41511 0.30575 0.0
H940 H 0.61155 0.4123 0.3272 0.0
H941 H 0.53823 0.4556 0.2124 0.0
H942 H 0.56055 0.42595 0.1542 0.0
H943 H 0.6434 0.42149 0.22424 0.0
C944 C 0.59361 0.48359 0.35533 0.0
C945 C 0.56688 0.49711 0.36858 0.0
C946 C 0.54223 0.49758 0.34069 0.0
C947 C 0.54393 0.48408 0.3005 0.0
C948 C 0.57058 0.47062 0.28866 0.0
C949 C 0.59501 0.47052 0.3152 0.0
C950 C 0.6211 0.45467 0.29521 0.0
C951 C 0.64715 0.47626 0.28806 0.0
C952 C 0.63059 0.42764 0.32205 0.0
C953 C 0.60738 0.44521 0.25356 0.0
C954 C 0.5783 0.45473 0.25016 0.0
C955 C 0.56105 0.44821 0.21459 0.0
C956 C 0.57393 0.43147 0.1817 0.0
C957 C 0.60367 0.4214 0.18481 0.0
C958 C 0.62051 0.42856 0.22119 0.0
H959 H 0.56135 0.58228 0.4218 0.0
H960 H 0.56994 0.67375 0.46466 0.0
H961 H 0.60069 0.68524 0.40212 0.0
H962 H 0.63854 0.57745 0.37593 0.0
H963 H 0.62568 0.55356 0.33366 0.0
H964 H 0.60758 0.55305 0.38478 0.0
H965 H 0.55723 0.564 0.34538 0.0
H966 H 0.57673 0.56544 0.29539 0.0
H967 H 0.55464 0.59673 0.31244 0.0
H968 H 0.62853 0.6878 0.33417 0.0
H969 H 0.65172 0.68134 0.26368 0.0
H970 H 0.62514 0.58849 0.26292 0.0
C971 C 0.56998 0.60462 0.4182 0.0
C972 C 0.56301 0.62716 0.44803 0.0
C973 C 0.57478 0.65612 0.44222 0.0
C974 C 0.59243 0.66287 0.40685 0.0
C975 C 0.59846 0.64035 0.37771 0.0
C976 C 0.58787 0.61174 0.38304 0.0
C977 C 0.59703 0.59203 0.34601 0.0
C978 C 0.61848 0.56756 0.36094 0.0
C979 C 0.56978 0.57878 0.32346 0.0
C980 C 0.61302 0.61446 0.31814 0.0
C981 C 0.61415 0.642 0.33764 0.0
C982 C 0.62797 0.66631 0.31865 0.0
C983 C 0.64113 0.66239 0.27869 0.0
C984 C 0.64027 0.63442 0.25792 0.0
C985 C 0.62591 0.61017 0.27793 0.0
H986 H 0.3795 0.47614 0.34481 0.0
H987 H 0.44139 0.54997 0.35454 0.0
H988 H 0.41681 0.57462 0.29406 0.0
H989 H 0.37363 0.47675 0.22743 0.0
H990 H 0.33501 0.46669 0.22959 0.0
H991 H 0.35971 0.45483 0.27136 0.0
H992 H 0.32356 0.48014 0.32557 0.0
H993 H 0.30038 0.49325 0.28282 0.0
H994 H 0.31577 0.51934 0.32033 0.0
H995 H 0.38427 0.5927 0.23574 0.0
H996 H 0.34782 0.60139 0.17853 0.0
H997 H 0.30722 0.51576 0.20497 0.0
C998 C 0.388 0.49739 0.33401 0.0
C999 C 0.41226 0.51124 0.35462 0.0
C1000 C 0.42284 0.53895 0.33935 0.0
C1001 C 0.40899 0.55318 0.30506 0.0
C1002 C 0.38475 0.5393 0.28612 0.0
C1003 C 0.37452 0.51188 0.29959 0.0
C1004 C 0.34779 0.50209 0.27381 0.0
C1005 C 0.35445 0.47334 0.24913 0.0
C1006 C 0.32025 0.4985 0.30235 0.0
C1007 C 0.34459 0.52839 0.24392 0.0
C1008 C 0.36606 0.54964 0.25183 0.0
C1009 C 0.36744 0.57618 0.22904 0.0
C1010 C 0.34655 0.58099 0.19684 0.0
C1011 C 0.32472 0.55929 0.1875 0.0
C1012 C 0.32377 0.53265 0.21139 0.0
H1013 H 0.44078 0.38691 0.38918 0.0
H1014 H 0.48631 0.46772 0.35079 0.0
H1015 H 0.45984 0.46708 0.28245 0.0
H1016 H 0.44274 0.35117 0.28998 0.0
H1017 H 0.4062 0.33501 0.29376 0.0
H1018 H 0.42685 0.343 0.34139 0.0
H1019 H 0.38335 0.3753 0.36951 0.0
H1020 H 0.36249 0.36736 0.32194 0.0
H1021 H 0.3694 0.40539 0.33723 0.0
H1022 H 0.43228 0.45565 0.21666 0.0
H1023 H 0.40325 0.43528 0.15719 0.0
H1024 H 0.3747 0.3617 0.23702 0.0
C1025 C 0.44498 0.40459 0.36652 0.0
C1026 C 0.46589 0.42727 0.37518 0.0
C1027 C 0.47072 0.44998 0.3447 0.0
C1028 C 0.45562 0.44991 0.30586 0.0
C1029 C 0.43555 0.42705 0.29804 0.0
C1030 C 0.42993 0.40493 0.32752 0.0
C1031 C 0.40801 0.38236 0.31021 0.0
C1032 C 0.42179 0.35104 0.30874 0.0
C1033 C 0.3791 0.38263 0.33628 0.0
C1034 C 0.40308 0.39472 0.26585 0.0
C1035 C 0.41907 0.42064 0.25981 0.0
C1036 C 0.4195 0.43548 0.22101 0.0
C1037 C 0.40309 0.4236 0.18735 0.0
C1038 C 0.38686 0.39678 0.19236 0.0
C1039 C 0.38655 0.38243 0.23241 0.0
loop_
_geom_bond_atom_site_label_1
_geom_bond_atom_site_label_2
_geom_bond_distance
_geom_bond_site_symmetry_2
_ccdc_geom_bond_type
Zn0 O2 1.933 1_556 S
Zn0 O20 1.985 . S
Zn0 O31 1.955 . S
Zn1 O2 1.911 . S
Zn1 O21 1.970 . S
Zn1 O37 1.945 . S
Zn1 O44 1.981 . S
O2 Zn0 1.933 1_554 S
O2 Zn1 1.911 . S
O2 H3 0.841 1_655 S
H3 O2 0.841 1_455 S
C4 O5 1.246 . S
C4 O33 1.276 1_545 S
O5 C4 1.246 . S
Zn6 O8 1.911 . S
Zn6 O23 1.970 . S
Zn6 O40 1.945 . S
Zn6 O47 1.981 . S
Zn7 O8 1.933 1_556 S
Zn7 O22 1.985 . S
Zn7 O29 1.955 . S
O8 Zn6 1.911 . S
O8 Zn7 1.933 1_554 S
O8 H9 0.841 1_455 S
H9 O8 0.841 1_655 S
Zn10 O11 1.933 1_556 S
Zn10 O24 1.985 . S
Zn10 O33 1.955 . S
O11 Zn10 1.933 1_554 S
O11 Zn12 1.911 . S
O11 H13 0.841 1_565 S
Zn12 O11 1.911 . S
Zn12 O25 1.970 . S
Zn12 O41 1.981 . S
Zn12 O43 1.945 . S
H13 O11 0.841 1_545 S
Zn14 O15 1.933 1_556 S
Zn14 O27 1.985 . S
Zn14 O35 1.955 . S
O15 Zn14 1.933 1_554 S
O15 H16 0.841 1_545 S
O15 Zn17 1.911 . S
H16 O15 0.841 1_565 S
Zn17 O15 1.911 . S
Zn17 O28 1.970 . S
Zn17 O38 1.981 . S
Zn17 O46 1.945 . S
C18 O19 1.246 . S
C18 O35 1.276 1_565 S
O19 C18 1.246 . S
O20 Zn0 1.985 . S
O20 C30 1.245 1_556 S
O21 Zn1 1.970 . S
O21 C30 1.263 . S
O22 Zn7 1.985 . S
O22 C34 1.245 1_556 S
O23 Zn6 1.970 . S
O23 C34 1.263 . S
O24 Zn10 1.985 . S
O24 C39 1.245 1_556 S
O25 Zn12 1.970 . S
O25 C39 1.263 . S
C26 O37 1.262 1_455 S
C26 O38 1.245 . S
O27 Zn14 1.985 . S
O27 C45 1.245 1_556 S
O28 Zn17 1.970 . S
O28 C45 1.263 . S
O29 Zn7 1.955 . S
O29 C48 1.276 1_455 S
C30 O20 1.245 1_554 S
C30 O21 1.263 . S
O31 Zn0 1.955 . S
O31 C50 1.276 1_655 S
C32 O40 1.262 1_655 S
C32 O41 1.245 . S
O33 C4 1.276 1_565 S
O33 Zn10 1.955 . S
C34 O22 1.245 1_554 S
C34 O23 1.263 . S
O35 Zn14 1.955 . S
O35 C18 1.276 1_545 S
C36 O43 1.262 1_545 S
C36 O44 1.245 . S
O37 Zn1 1.945 . S
O37 C26 1.262 1_655 S
O38 Zn17 1.981 . S
O38 C26 1.245 . S
C39 O24 1.245 1_554 S
C39 O25 1.263 . S
O40 Zn6 1.945 . S
O40 C32 1.262 1_455 S
O41 Zn12 1.981 . S
O41 C32 1.245 . S
C42 O46 1.262 1_565 S
C42 O47 1.245 . S
O43 Zn12 1.945 . S
O43 C36 1.262 1_565 S
O44 Zn1 1.981 . S
O44 C36 1.245 . S
C45 O27 1.245 1_554 S
C45 O28 1.263 . S
O46 Zn17 1.945 . S
O46 C42 1.262 1_545 S
O47 Zn6 1.981 . S
O47 C42 1.245 . S
C48 O29 1.276 1_655 S
C48 O49 1.246 . S
O49 C48 1.246 . S
C50 O31 1.276 1_455 S
C50 O51 1.246 . S
O51 C50 1.246 . S
Zn52 O54 1.933 . S
Zn52 O72 1.985 . S
Zn52 O83 1.955 . S
Zn53 O54 1.911 . S
Zn53 O73 1.970 . S
Zn53 O89 1.945 . S
Zn53 O96 1.981 . S
O54 Zn52 1.933 . S
O54 Zn53 1.911 . S
O54 H55 0.841 . S
H55 O54 0.841 . S
C56 O57 1.246 . S
C56 O85 1.276 . S
O57 C56 1.246 . S
Zn58 O60 1.911 . S
Zn58 O75 1.970 . S
Zn58 O92 1.945 . S
Zn58 O99 1.981 . S
Zn59 O60 1.933 . S
Zn59 O74 1.985 . S
Zn59 O81 1.955 . S
O60 Zn58 1.911 . S
O60 Zn59 1.933 . S
O60 H61 0.841 . S
H61 O60 0.841 . S
Zn62 O63 1.933 . S
Zn62 O76 1.985 . S
Zn62 O85 1.955 . S
O63 Zn62 1.933 . S
O63 Zn64 1.911 . S
O63 H65 0.841 . S
Zn64 O63 1.911 . S
Zn64 O77 1.970 . S
Zn64 O93 1.981 . S
Zn64 O95 1.945 . S
H65 O63 0.841 . S
Zn66 O67 1.933 . S
Zn66 O79 1.985 . S
Zn66 O87 1.955 . S
O67 Zn66 1.933 . S
O67 H68 0.841 . S
O67 Zn69 1.911 . S
H68 O67 0.841 . S
Zn69 O67 1.911 . S
Zn69 O80 1.970 . S
Zn69 O90 1.981 . S
Zn69 O98 1.945 . S
C70 O71 1.246 . S
C70 O87 1.276 . S
O71 C70 1.246 . S
O72 Zn52 1.985 . S
O72 C82 1.245 . S
O73 Zn53 1.970 . S
O73 C82 1.263 . S
O74 Zn59 1.985 . S
O74 C86 1.245 . S
O75 Zn58 1.970 . S
O75 C86 1.263 . S
O76 Zn62 1.985 . S
O76 C91 1.245 . S
O77 Zn64 1.970 . S
O77 C91 1.263 . S
C78 O89 1.262 . S
C78 O90 1.245 . S
O79 Zn66 1.985 . S
O79 C97 1.245 . S
O80 Zn69 1.970 . S
O80 C97 1.263 . S
O81 Zn59 1.955 . S
O81 C100 1.276 . S
C82 O72 1.245 . S
C82 O73 1.263 . S
O83 Zn52 1.955 . S
O83 C102 1.276 . S
C84 O92 1.262 . S
C84 O93 1.245 . S
O85 C56 1.276 . S
O85 Zn62 1.955 . S
C86 O74 1.245 . S
C86 O75 1.263 . S
O87 Zn66 1.955 . S
O87 C70 1.276 . S
C88 O95 1.262 . S
C88 O96 1.245 . S
O89 Zn53 1.945 . S
O89 C78 1.262 . S
O90 Zn69 1.981 . S
O90 C78 1.245 . S
C91 O76 1.245 . S
C91 O77 1.263 . S
O92 Zn58 1.945 . S
O92 C84 1.262 . S
O93 Zn64 1.981 . S
O93 C84 1.245 . S
C94 O98 1.262 . S
C94 O99 1.245 . S
O95 Zn64 1.945 . S
O95 C88 1.262 . S
O96 Zn53 1.981 . S
O96 C88 1.245 . S
C97 O79 1.245 . S
C97 O80 1.263 . S
O98 Zn69 1.945 . S
O98 C94 1.262 . S
O99 Zn58 1.981 . S
O99 C94 1.245 . S
C100 O81 1.276 . S
C100 O101 1.246 . S
O101 C100 1.246 . S
C102 O83 1.276 . S
C102 O103 1.246 . S
O103 C102 1.246 . S
C104 C105 1.384 . S
C104 H117 0.947 . S
C104 C139 1.382 . S
C105 C104 1.384 . S
C105 C106 1.378 . S
C106 C105 1.378 . S
C106 C107 1.378 . S
C106 H118 0.952 . S
C107 C106 1.378 . S
C107 H119 0.950 . S
C107 C138 1.383 . S
H108 C127 0.947 . S
H109 C128 0.946 . S
H110 C130 0.953 . S
H111 C131 0.945 . S
H112 C133 0.952 . S
H113 C134 0.949 . S
H114 C136 0.950 . S
H115 C137 0.948 . S
H116 C139 0.951 . S
H117 C104 0.947 . S
H118 C106 0.952 . S
H119 C107 0.950 . S
N120 C123 1.382 . S
N120 C125 1.363 . S
N121 C123 1.371 1_556 S
N121 C124 1.372 . S
N122 C124 1.361 1_554 S
N122 C125 1.377 . S
C123 N120 1.382 . S
C123 N121 1.371 1_554 S
C123 C126 1.480 . S
C124 N121 1.372 . S
C124 N122 1.361 1_556 S
C124 C132 1.457 . S
C125 N120 1.363 . S
C125 N122 1.377 . S
C125 C138 1.479 . S
C126 C123 1.480 . S
C126 C127 1.383 . S
C126 C131 1.385 1_554 S
C127 H108 0.947 . S
C127 C126 1.383 . S
C127 C128 1.388 . S
C128 H109 0.946 . S
C128 C127 1.388 . S
C128 C129 1.384 . S
C129 C128 1.384 . S
C129 C130 1.377 1_554 S
C130 H110 0.953 . S
C130 C129 1.377 1_556 S
C130 C131 1.369 . S
C131 H111 0.945 . S
C131 C126 1.385 1_556 S
C131 C130 1.369 . S
C132 C124 1.457 . S
C132 C133 1.372 . S
C132 C137 1.364 . S
C133 H112 0.952 . S
C133 C132 1.372 . S
C133 C134 1.389 . S
C134 H113 0.949 . S
C134 C133 1.389 . S
C134 C135 1.387 . S
C135 C134 1.387 . S
C135 C136 1.372 . S
C136 H114 0.950 . S
C136 C135 1.372 . S
C136 C137 1.379 . S
C137 H115 0.948 . S
C137 C132 1.364 . S
C137 C136 1.379 . S
C138 C107 1.383 . S
C138 C125 1.479 . S
C138 C139 1.398 . S
C139 C104 1.382 . S
C139 H116 0.951 . S
C139 C138 1.398 . S
C140 C141 1.384 . S
C140 H153 0.947 . S
C140 C175 1.382 . S
C141 C140 1.384 . S
C141 C142 1.378 . S
C142 C141 1.378 . S
C142 C143 1.378 . S
C142 H154 0.952 . S
C143 C142 1.378 . S
C143 H155 0.950 . S
C143 C174 1.383 . S
H144 C163 0.947 . S
H145 C164 0.946 . S
H146 C166 0.953 . S
H147 C167 0.945 . S
H148 C169 0.952 . S
H149 C170 0.949 . S
H150 C172 0.950 . S
H151 C173 0.948 . S
H152 C175 0.951 . S
H153 C140 0.947 . S
H154 C142 0.952 . S
H155 C143 0.950 . S
N156 C159 1.382 . S
N156 C161 1.363 . S
N157 C159 1.371 1_556 S
N157 C160 1.372 . S
N158 C160 1.361 1_554 S
N158 C161 1.377 . S
C159 N156 1.382 . S
C159 N157 1.371 1_554 S
C159 C162 1.480 . S
C160 N157 1.372 . S
C160 N158 1.361 1_556 S
C160 C168 1.457 . S
C161 N156 1.363 . S
C161 N158 1.377 . S
C161 C174 1.479 . S
C162 C159 1.480 . S
C162 C163 1.383 . S
C162 C167 1.385 1_554 S
C163 H144 0.947 . S
C163 C162 1.383 . S
C163 C164 1.388 . S
C164 H145 0.946 . S
C164 C163 1.388 . S
C164 C165 1.384 . S
C165 C164 1.384 . S
C165 C166 1.377 1_554 S
C166 H146 0.953 . S
C166 C165 1.377 1_556 S
C166 C167 1.369 . S
C167 H147 0.945 . S
C167 C162 1.385 1_556 S
C167 C166 1.369 . S
C168 C160 1.457 . S
C168 C169 1.372 . S
C168 C173 1.364 . S
C169 H148 0.952 . S
C169 C168 1.372 . S
C169 C170 1.389 . S
C170 H149 0.949 . S
C170 C169 1.389 . S
C170 C171 1.387 . S
C171 C170 1.387 . S
C171 C172 1.372 . S
C172 H150 0.950 . S
C172 C171 1.372 . S
C172 C173 1.379 . S
C173 H151 0.948 . S
C173 C168 1.364 . S
C173 C172 1.379 . S
C174 C143 1.383 . S
C174 C161 1.479 . S
C174 C175 1.398 . S
C175 C140 1.382 . S
C175 H152 0.951 . S
C175 C174 1.398 . S
C176 C177 1.384 . S
C176 H189 0.947 . S
C176 C211 1.382 . S
C177 C176 1.384 . S
C177 C178 1.378 . S
C178 C177 1.378 . S
C178 C179 1.378 . S
C178 H190 0.952 . S
C179 C178 1.378 . S
C179 H191 0.950 . S
C179 C210 1.383 . S
H180 C199 0.947 . S
H181 C200 0.946 . S
H182 C202 0.953 . S
H183 C203 0.945 . S
H184 C205 0.952 . S
H185 C206 0.949 . S
H186 C208 0.950 . S
H187 C209 0.948 . S
H188 C211 0.951 . S
H189 C176 0.947 . S
H190 C178 0.952 . S
H191 C179 0.950 . S
N192 C195 1.382 1_556 S
N192 C197 1.363 . S
N193 C195 1.371 . S
N193 C196 1.372 . S
N194 C196 1.361 . S
N194 C197 1.377 1_554 S
C195 N192 1.382 1_554 S
C195 N193 1.371 . S
C195 C198 1.480 . S
C196 N193 1.372 . S
C196 N194 1.361 . S
C196 C204 1.457 . S
C197 N192 1.363 . S
C197 N194 1.377 1_556 S
C197 C210 1.479 . S
C198 C195 1.480 . S
C198 C199 1.383 1_554 S
C198 C203 1.385 . S
C199 H180 0.947 . S
C199 C198 1.383 1_556 S
C199 C200 1.388 . S
C200 H181 0.946 . S
C200 C199 1.388 . S
C200 C201 1.384 1_556 S
C201 C200 1.384 1_554 S
C201 C202 1.377 . S
C202 H182 0.953 . S
C202 C201 1.377 . S
C202 C203 1.369 . S
C203 H183 0.945 . S
C203 C198 1.385 . S
C203 C202 1.369 . S
C204 C196 1.457 . S
C204 C205 1.372 . S
C204 C209 1.364 . S
C205 H184 0.952 . S
C205 C204 1.372 . S
C205 C206 1.389 . S
C206 H185 0.949 . S
C206 C205 1.389 . S
C206 C207 1.387 . S
C207 C206 1.387 . S
C207 C208 1.372 . S
C208 H186 0.950 . S
C208 C207 1.372 . S
C208 C209 1.379 . S
C209 H187 0.948 . S
C209 C204 1.364 . S
C209 C208 1.379 . S
C210 C179 1.383 . S
C210 C197 1.479 . S
C210 C211 1.398 . S
C211 C176 1.382 . S
C211 H188 0.951 . S
C211 C210 1.398 . S
C212 C213 1.384 . S
C212 H225 0.947 . S
C212 C247 1.382 . S
C213 C212 1.384 . S
C213 C214 1.378 . S
C214 C213 1.378 . S
C214 C215 1.378 . S
C214 H226 0.952 . S
C215 C214 1.378 . S
C215 H227 0.950 . S
C215 C246 1.383 . S
H216 C235 0.947 . S
H217 C236 0.946 . S
H218 C238 0.953 . S
H219 C239 0.945 . S
H220 C241 0.952 . S
H221 C242 0.949 . S
H222 C244 0.950 . S
H223 C245 0.948 . S
H224 C247 0.951 . S
H225 C212 0.947 . S
H226 C214 0.952 . S
H227 C215 0.950 . S
N228 C231 1.382 1_556 S
N228 C233 1.363 . S
N229 C231 1.371 . S
N229 C232 1.372 . S
N230 C232 1.361 . S
N230 C233 1.377 1_554 S
C231 N228 1.382 1_554 S
C231 N229 1.371 . S
C231 C234 1.480 . S
C232 N229 1.372 . S
C232 N230 1.361 . S
C232 C240 1.457 . S
C233 N228 1.363 . S
C233 N230 1.377 1_556 S
C233 C246 1.479 . S
C234 C231 1.480 . S
C234 C235 1.383 1_554 S
C234 C239 1.385 . S
C235 H216 0.947 . S
C235 C234 1.383 1_556 S
C235 C236 1.388 . S
C236 H217 0.946 . S
C236 C235 1.388 . S
C236 C237 1.384 1_556 S
C237 C236 1.384 1_554 S
C237 C238 1.377 . S
C238 H218 0.953 . S
C238 C237 1.377 . S
C238 C239 1.369 . S
C239 H219 0.945 . S
C239 C234 1.385 . S
C239 C238 1.369 . S
C240 C232 1.457 . S
C240 C241 1.372 . S
C240 C245 1.364 . S
C241 H220 0.952 . S
C241 C240 1.372 . S
C241 C242 1.389 . S
C242 H221 0.949 . S
C242 C241 1.389 . S
C242 C243 1.387 . S
C243 C242 1.387 . S
C243 C244 1.372 . S
C244 H222 0.950 . S
C244 C243 1.372 . S
C244 C245 1.379 . S
C245 H223 0.948 . S
C245 C240 1.364 . S
C245 C244 1.379 . S
C246 C215 1.383 . S
C246 C233 1.479 . S
C246 C247 1.398 . S
C247 C212 1.382 . S
C247 H224 0.951 . S
C247 C246 1.398 . S
C248 C249 1.384 . S
C248 H261 0.947 . S
C248 C283 1.382 . S
C249 C248 1.384 . S
C249 C250 1.378 . S
C250 C249 1.378 . S
C250 C251 1.378 . S
C250 H262 0.952 . S
C251 C250 1.378 . S
C251 H263 0.950 . S
C251 C282 1.383 . S
H252 C271 0.947 . S
H253 C272 0.946 . S
H254 C274 0.953 . S
H255 C275 0.945 . S
H256 C277 0.952 . S
H257 C278 0.949 . S
H258 C280 0.950 . S
H259 C281 0.948 . S
H260 C283 0.951 . S
H261 C248 0.947 . S
H262 C250 0.952 . S
H263 C251 0.950 . S
N264 C267 1.382 . S
N264 C269 1.363 . S
N265 C267 1.371 . S
N265 C268 1.372 . S
N266 C268 1.361 . S
N266 C269 1.377 . S
C267 N264 1.382 . S
C267 N265 1.371 . S
C267 C270 1.480 . S
C268 N265 1.372 . S
C268 N266 1.361 . S
C268 C276 1.457 . S
C269 N264 1.363 . S
C269 N266 1.377 . S
C269 C282 1.479 . S
C270 C267 1.480 . S
C270 C271 1.383 . S
C270 C275 1.385 . S
C271 H252 0.947 . S
C271 C270 1.383 . S
C271 C272 1.388 . S
C272 H253 0.946 . S
C272 C271 1.388 . S
C272 C273 1.384 . S
C273 C272 1.384 . S
C273 C274 1.377 . S
C274 H254 0.953 . S
C274 C273 1.377 . S
C274 C275 1.369 . S
C275 H255 0.945 . S
C275 C270 1.385 . S
C275 C274 1.369 . S
C276 C268 1.457 . S
C276 C277 1.372 . S
C276 C281 1.364 . S
C277 H256 0.952 . S
C277 C276 1.372 . S
C277 C278 1.389 . S
C278 H257 0.949 . S
C278 C277 1.389 . S
C278 C279 1.387 . S
C279 C278 1.387 . S
C279 C280 1.372 . S
C280 H258 0.950 . S
C280 C279 1.372 . S
C280 C281 1.379 . S
C281 H259 0.948 . S
C281 C276 1.364 . S
C281 C280 1.379 . S
C282 C251 1.383 . S
C282 C269 1.479 . S
C282 C283 1.398 . S
C283 C248 1.382 . S
C283 H260 0.951 . S
C283 C282 1.398 . S
C284 C285 1.384 . S
C284 H297 0.947 . S
C284 C319 1.382 . S
C285 C284 1.384 . S
C285 C286 1.378 . S
C286 C285 1.378 . S
C286 C287 1.378 . S
C286 H298 0.952 . S
C287 C286 1.378 . S
C287 H299 0.950 . S
C287 C318 1.383 . S
H288 C307 0.947 . S
H289 C308 0.946 . S
H290 C310 0.953 . S
H291 C311 0.945 . S
H292 C313 0.952 . S
H293 C314 0.949 . S
H294 C316 0.950 . S
H295 C317 0.948 . S
H296 C319 0.951 . S
H297 C284 0.947 . S
H298 C286 0.952 . S
H299 C287 0.950 . S
N300 C303 1.382 . S
N300 C305 1.363 . S
N301 C303 1.371 . S
N301 C304 1.372 . S
N302 C304 1.361 . S
N302 C305 1.377 . S
C303 N300 1.382 . S
C303 N301 1.371 . S
C303 C306 1.480 . S
C304 N301 1.372 . S
C304 N302 1.361 . S
C304 C312 1.457 . S
C305 N300 1.363 . S
C305 N302 1.377 . S
C305 C318 1.479 . S
C306 C303 1.480 . S
C306 C307 1.383 . S
C306 C311 1.385 . S
C307 H288 0.947 . S
C307 C306 1.383 . S
C307 C308 1.388 . S
C308 H289 0.946 . S
C308 C307 1.388 . S
C308 C309 1.384 . S
C309 C308 1.384 . S
C309 C310 1.377 . S
C310 H290 0.953 . S
C310 C309 1.377 . S
C310 C311 1.369 . S
C311 H291 0.945 . S
C311 C306 1.385 . S
C311 C310 1.369 . S
C312 C304 1.457 . S
C312 C313 1.372 . S
C312 C317 1.364 . S
C313 H292 0.952 . S
C313 C312 1.372 . S
C313 C314 1.389 . S
C314 H293 0.949 . S
C314 C313 1.389 . S
C314 C315 1.387 . S
C315 C314 1.387 . S
C315 C316 1.372 . S
C316 H294 0.950 . S
C316 C315 1.372 . S
C316 C317 1.379 . S
C317 H295 0.948 . S
C317 C312 1.364 . S
C317 C316 1.379 . S
C318 C287 1.383 . S
C318 C305 1.479 . S
C318 C319 1.398 . S
C319 C284 1.382 . S
C319 H296 0.951 . S
C319 C318 1.398 . S
C320 C321 1.384 . S
C320 H333 0.947 . S
C320 C355 1.382 . S
C321 C320 1.384 . S
C321 C322 1.378 . S
C322 C321 1.378 . S
C322 C323 1.378 . S
C322 H334 0.952 . S
C323 C322 1.378 . S
C323 H335 0.950 . S
C323 C354 1.383 . S
H324 C343 0.947 . S
H325 C344 0.946 . S
H326 C346 0.953 . S
H327 C347 0.945 . S
H328 C349 0.952 . S
H329 C350 0.949 . S
H330 C352 0.950 . S
H331 C353 0.948 . S
H332 C355 0.951 . S
H333 C320 0.947 . S
H334 C322 0.952 . S
H335 C323 0.950 . S
N336 C339 1.382 . S
N336 C341 1.363 . S
N337 C339 1.371 . S
N337 C340 1.372 . S
N338 C340 1.361 . S
N338 C341 1.377 . S
C339 N336 1.382 . S
C339 N337 1.371 . S
C339 C342 1.480 . S
C340 N337 1.372 . S
C340 N338 1.361 . S
C340 C348 1.457 . S
C341 N336 1.363 . S
C341 N338 1.377 . S
C341 C354 1.479 . S
C342 C339 1.480 . S
C342 C343 1.383 . S
C342 C347 1.385 . S
C343 H324 0.947 . S
C343 C342 1.383 . S
C343 C344 1.388 . S
C344 H325 0.946 . S
C344 C343 1.388 . S
C344 C345 1.384 . S
C345 C344 1.384 . S
C345 C346 1.377 . S
C346 H326 0.953 . S
C346 C345 1.377 . S
C346 C347 1.369 . S
C347 H327 0.945 . S
C347 C342 1.385 . S
C347 C346 1.369 . S
C348 C340 1.457 . S
C348 C349 1.372 . S
C348 C353 1.364 . S
C349 H328 0.952 . S
C349 C348 1.372 . S
C349 C350 1.389 . S
C350 H329 0.949 . S
C350 C349 1.389 . S
C350 C351 1.387 . S
C351 C350 1.387 . S
C351 C352 1.372 . S
C352 H330 0.950 . S
C352 C351 1.372 . S
C352 C353 1.379 . S
C353 H331 0.948 . S
C353 C348 1.364 . S
C353 C352 1.379 . S
C354 C323 1.383 . S
C354 C341 1.479 . S
C354 C355 1.398 . S
C355 C320 1.382 . S
C355 H332 0.951 . S
C355 C354 1.398 . S
C356 C357 1.384 . S
C356 H369 0.947 . S
C356 C391 1.382 . S
C357 C356 1.384 . S
C357 C358 1.378 . S
C358 C357 1.378 . S
C358 C359 1.378 . S
C358 H370 0.952 . S
C359 C358 1.378 . S
C359 H371 0.950 . S
C359 C390 1.383 . S
H360 C379 0.947 . S
H361 C380 0.946 . S
H362 C382 0.953 . S
H363 C383 0.945 . S
H364 C385 0.952 . S
H365 C386 0.949 . S
H366 C388 0.950 . S
H367 C389 0.948 . S
H368 C391 0.951 . S
H369 C356 0.947 . S
H370 C358 0.952 . S
H371 C359 0.950 . S
N372 C375 1.382 . S
N372 C377 1.363 . S
N373 C375 1.371 . S
N373 C376 1.372 . S
N374 C376 1.361 . S
N374 C377 1.377 . S
C375 N372 1.382 . S
C375 N373 1.371 . S
C375 C378 1.480 . S
C376 N373 1.372 . S
C376 N374 1.361 . S
C376 C384 1.457 . S
C377 N372 1.363 . S
C377 N374 1.377 . S
C377 C390 1.479 . S
C378 C375 1.480 . S
C378 C379 1.383 . S
C378 C383 1.385 . S
C379 H360 0.947 . S
C379 C378 1.383 . S
C379 C380 1.388 . S
C380 H361 0.946 . S
C380 C379 1.388 . S
C380 C381 1.384 . S
C381 C380 1.384 . S
C381 C382 1.377 . S
C382 H362 0.953 . S
C382 C381 1.377 . S
C382 C383 1.369 . S
C383 H363 0.945 . S
C383 C378 1.385 . S
C383 C382 1.369 . S
C384 C376 1.457 . S
C384 C385 1.372 . S
C384 C389 1.364 . S
C385 H364 0.952 . S
C385 C384 1.372 . S
C385 C386 1.389 . S
C386 H365 0.949 . S
C386 C385 1.389 . S
C386 C387 1.387 . S
C387 C386 1.387 . S
C387 C388 1.372 . S
C388 H366 0.950 . S
C388 C387 1.372 . S
C388 C389 1.379 . S
C389 H367 0.948 . S
C389 C384 1.364 . S
C389 C388 1.379 . S
C390 C359 1.383 . S
C390 C377 1.479 . S
C390 C391 1.398 . S
C391 C356 1.382 . S
C391 H368 0.951 . S
C391 C390 1.398 . S
H392 C404 0.930 . S
H393 C406 0.930 . S
H394 C407 0.930 . S
H395 C411 0.959 . S
H396 C411 0.959 . S
H397 C411 0.961 . S
H398 C412 0.960 . S
H399 C412 0.961 . S
H400 C412 0.959 . S
H401 C415 0.929 . S
H402 C416 0.931 . S
H403 C418 0.930 . S
C404 H392 0.930 . S
C404 C405 1.399 . S
C404 C409 1.399 . S
C405 C404 1.399 . S
C405 C406 1.376 1_554 S
C406 H393 0.930 . S
C406 C405 1.376 1_556 S
C406 C407 1.388 . S
C407 H394 0.930 . S
C407 C406 1.388 . S
C407 C408 1.390 1_556 S
C408 C407 1.390 1_554 S
C408 C409 1.394 . S
C408 C414 1.466 . S
C409 C404 1.399 . S
C409 C408 1.394 . S
C409 C410 1.516 . S
C410 C409 1.516 . S
C410 C411 1.502 . S
C410 C412 1.561 . S
C410 C413 1.526 . S
C411 H395 0.959 . S
C411 H396 0.959 . S
C411 H397 0.961 . S
C411 C410 1.502 . S
C412 H398 0.960 . S
C412 H399 0.961 . S
C412 H400 0.959 . S
C412 C410 1.561 . S
C413 C410 1.526 . S
C413 C414 1.413 . S
C413 C418 1.390 . S
C414 C408 1.466 . S
C414 C413 1.413 . S
C414 C415 1.385 1_554 S
C415 H401 0.929 . S
C415 C414 1.385 1_556 S
C415 C416 1.385 . S
C416 H402 0.931 . S
C416 C415 1.385 . S
C416 C417 1.389 1_556 S
C417 C416 1.389 1_554 S
C417 C418 1.387 . S
C418 H403 0.930 . S
C418 C413 1.390 . S
C418 C417 1.387 . S
H419 C431 0.930 . S
H420 C433 0.930 . S
H421 C434 0.930 . S
H422 C438 0.959 . S
H423 C438 0.959 . S
H424 C438 0.961 . S
H425 C439 0.960 . S
H426 C439 0.961 . S
H427 C439 0.959 . S
H428 C442 0.929 . S
H429 C443 0.931 . S
H430 C445 0.930 . S
C431 H419 0.930 . S
C431 C432 1.399 1_556 S
C431 C436 1.398 1_556 S
C432 C431 1.399 1_554 S
C432 C433 1.376 . S
C433 H420 0.930 . S
C433 C432 1.376 . S
C433 C434 1.388 . S
C434 H421 0.930 . S
C434 C433 1.388 . S
C434 C435 1.390 . S
C435 C434 1.390 . S
C435 C436 1.400 . S
C435 C441 1.465 . S
C436 C431 1.398 1_554 S
C436 C435 1.400 . S
C436 C437 1.512 1_554 S
C437 C436 1.512 1_556 S
C437 C438 1.502 . S
C437 C439 1.561 . S
C437 C440 1.524 . S
C438 H422 0.959 . S
C438 H423 0.959 . S
C438 H424 0.961 . S
C438 C437 1.502 . S
C439 H425 0.960 . S
C439 H426 0.961 . S
C439 H427 0.959 . S
C439 C437 1.561 . S
C440 C437 1.524 . S
C440 C441 1.399 1_556 S
C440 C445 1.389 . S
C441 C435 1.465 . S
C441 C440 1.399 1_554 S
C441 C442 1.399 . S
C442 H428 0.929 . S
C442 C441 1.399 . S
C442 C443 1.385 . S
C443 H429 0.931 . S
C443 C442 1.385 . S
C443 C444 1.389 . S
C444 C443 1.389 . S
C444 C445 1.387 1_554 S
C445 H430 0.930 . S
C445 C440 1.389 . S
C445 C444 1.387 1_556 S
H446 C458 0.930 . S
H447 C460 0.930 . S
H448 C461 0.930 . S
H449 C465 0.959 . S
H450 C465 0.959 . S
H451 C465 0.961 . S
H452 C466 0.960 . S
H453 C466 0.961 . S
H454 C466 0.959 . S
H455 C469 0.929 . S
H456 C470 0.931 . S
H457 C472 0.930 . S
C458 H446 0.930 . S
C458 C459 1.399 . S
C458 C463 1.399 . S
C459 C458 1.399 . S
C459 C460 1.376 1_554 S
C460 H447 0.930 . S
C460 C459 1.376 1_556 S
C460 C461 1.388 . S
C461 H448 0.930 . S
C461 C460 1.388 . S
C461 C462 1.390 1_556 S
C462 C461 1.390 1_554 S
C462 C463 1.394 . S
C462 C468 1.465 . S
C463 C458 1.399 . S
C463 C462 1.394 . S
C463 C464 1.516 . S
C464 C463 1.516 . S
C464 C465 1.502 . S
C464 C466 1.561 . S
C464 C467 1.526 . S
C465 H449 0.959 . S
C465 H450 0.959 . S
C465 H451 0.961 . S
C465 C464 1.502 . S
C466 H452 0.960 . S
C466 H453 0.961 . S
C466 H454 0.959 . S
C466 C464 1.561 . S
C467 C464 1.526 . S
C467 C468 1.396 . S
C467 C472 1.390 . S
C468 C462 1.465 . S
C468 C467 1.396 . S
C468 C469 1.399 1_554 S
C469 H455 0.929 . S
C469 C468 1.399 1_556 S
C469 C470 1.385 . S
C470 H456 0.931 . S
C470 C469 1.385 . S
C470 C471 1.389 1_556 S
C471 C470 1.389 1_554 S
C471 C472 1.387 . S
C472 H457 0.930 . S
C472 C467 1.390 . S
C472 C471 1.387 . S
H473 C485 0.930 . S
H474 C487 0.930 . S
H475 C488 0.930 . S
H476 C492 0.959 . S
H477 C492 0.959 . S
H478 C492 0.961 . S
H479 C493 0.960 . S
H480 C493 0.961 . S
H481 C493 0.959 . S
H482 C496 0.929 . S
H483 C497 0.931 . S
H484 C499 0.930 . S
C485 H473 0.930 . S
C485 C486 1.399 . S
C485 C490 1.399 . S
C486 C485 1.399 . S
C486 C487 1.376 1_554 S
C487 H474 0.930 . S
C487 C486 1.376 1_556 S
C487 C488 1.388 . S
C488 H475 0.930 . S
C488 C487 1.388 . S
C488 C489 1.390 1_556 S
C489 C488 1.390 1_554 S
C489 C490 1.394 . S
C489 C495 1.465 . S
C490 C485 1.399 . S
C490 C489 1.394 . S
C490 C491 1.516 . S
C491 C490 1.516 . S
C491 C492 1.502 . S
C491 C493 1.561 . S
C491 C494 1.526 . S
C492 H476 0.959 . S
C492 H477 0.959 . S
C492 H478 0.961 . S
C492 C491 1.502 . S
C493 H479 0.960 . S
C493 H480 0.961 . S
C493 H481 0.959 . S
C493 C491 1.561 . S
C494 C491 1.526 . S
C494 C495 1.396 . S
C494 C499 1.390 . S
C495 C489 1.465 . S
C495 C494 1.396 . S
C495 C496 1.399 1_554 S
C496 H482 0.929 . S
C496 C495 1.399 1_556 S
C496 C497 1.385 . S
C497 H483 0.931 . S
C497 C496 1.385 . S
C497 C498 1.389 1_556 S
C498 C497 1.389 1_554 S
C498 C499 1.387 . S
C499 H484 0.930 . S
C499 C494 1.390 . S
C499 C498 1.387 . S
H500 C512 0.930 . S
H501 C514 0.930 . S
H502 C515 0.930 . S
H503 C519 0.959 . S
H504 C519 0.959 . S
H505 C519 0.961 . S
H506 C520 0.960 . S
H507 C520 0.961 . S
H508 C520 0.959 . S
H509 C523 0.929 . S
H510 C524 0.931 . S
H511 C526 0.930 . S
C512 H500 0.930 . S
C512 C513 1.399 . S
C512 C517 1.399 . S
C513 C512 1.399 . S
C513 C514 1.376 . S
C514 H501 0.930 . S
C514 C513 1.376 . S
C514 C515 1.388 . S
C515 H502 0.930 . S
C515 C514 1.388 . S
C515 C516 1.390 . S
C516 C515 1.390 . S
C516 C517 1.394 . S
C516 C522 1.465 . S
C517 C512 1.399 . S
C517 C516 1.394 . S
C517 C518 1.516 . S
C518 C517 1.516 . S
C518 C519 1.502 . S
C518 C520 1.561 . S
C518 C521 1.526 . S
C519 H503 0.959 . S
C519 H504 0.959 . S
C519 H505 0.961 . S
C519 C518 1.502 . S
C520 H506 0.960 . S
C520 H507 0.961 . S
C520 H508 0.959 . S
C520 C518 1.561 . S
C521 C518 1.526 . S
C521 C522 1.396 . S
C521 C526 1.390 . S
C522 C516 1.465 . S
C522 C521 1.396 . S
C522 C523 1.399 . S
C523 H509 0.929 . S
C523 C522 1.399 . S
C523 C524 1.385 . S
C524 H510 0.931 . S
C524 C523 1.385 . S
C524 C525 1.389 . S
C525 C524 1.389 . S
C525 C526 1.387 . S
C526 H511 0.930 . S
C526 C521 1.390 . S
C526 C525 1.387 . S
H527 C539 0.930 . S
H528 C541 0.930 . S
H529 C542 0.930 . S
H530 C546 0.959 . S
H531 C546 0.959 . S
H532 C546 0.961 . S
H533 C547 0.960 . S
H534 C547 0.961 . S
H535 C547 0.959 . S
H536 C550 0.929 . S
H537 C551 0.931 . S
H538 C553 0.930 . S
C539 H527 0.930 . S
C539 C540 1.399 . S
C539 C544 1.399 . S
C540 C539 1.399 . S
C540 C541 1.376 . S
C541 H528 0.930 . S
C541 C540 1.376 . S
C541 C542 1.388 . S
C542 H529 0.930 . S
C542 C541 1.388 . S
C542 C543 1.390 . S
C543 C542 1.390 . S
C543 C544 1.394 . S
C543 C549 1.465 . S
C544 C539 1.399 . S
C544 C543 1.394 . S
C544 C545 1.516 . S
C545 C544 1.516 . S
C545 C546 1.502 . S
C545 C547 1.561 . S
C545 C548 1.526 . S
C546 H530 0.959 . S
C546 H531 0.959 . S
C546 H532 0.961 . S
C546 C545 1.502 . S
C547 H533 0.960 . S
C547 H534 0.961 . S
C547 H535 0.959 . S
C547 C545 1.561 . S
C548 C545 1.526 . S
C548 C549 1.396 . S
C548 C553 1.390 . S
C549 C543 1.465 . S
C549 C548 1.396 . S
C549 C550 1.399 . S
C550 H536 0.929 . S
C550 C549 1.399 . S
C550 C551 1.385 . S
C551 H537 0.931 . S
C551 C550 1.385 . S
C551 C552 1.389 . S
C552 C551 1.389 . S
C552 C553 1.387 . S
C553 H538 0.930 . S
C553 C548 1.390 . S
C553 C552 1.387 . S
H554 C566 0.930 . S
H555 C568 0.930 . S
H556 C569 0.930 . S
H557 C573 0.959 . S
H558 C573 0.959 . S
H559 C573 0.961 . S
H560 C574 0.960 . S
H561 C574 0.961 . S
H562 C574 0.959 . S
H563 C577 0.929 . S
H564 C578 0.931 . S
H565 C580 0.930 . S
C566 H554 0.930 . S
C566 C567 1.399 . S
C566 C571 1.399 . S
C567 C566 1.399 . S
C567 C568 1.376 . S
C568 H555 0.930 . S
C568 C567 1.376 . S
C568 C569 1.388 . S
C569 H556 0.930 . S
C569 C568 1.388 . S
C569 C570 1.390 . S
C570 C569 1.390 . S
C570 C571 1.394 . S
C570 C576 1.465 . S
C571 C566 1.399 . S
C571 C570 1.394 . S
C571 C572 1.516 . S
C572 C571 1.516 . S
C572 C573 1.502 . S
C572 C574 1.561 . S
C572 C575 1.526 . S
C573 H557 0.959 . S
C573 H558 0.959 . S
C573 H559 0.961 . S
C573 C572 1.502 . S
C574 H560 0.960 . S
C574 H561 0.961 . S
C574 H562 0.959 . S
C574 C572 1.561 . S
C575 C572 1.526 . S
C575 C576 1.396 . S
C575 C580 1.390 . S
C576 C570 1.465 . S
C576 C575 1.396 . S
C576 C577 1.399 . S
C577 H563 0.929 . S
C577 C576 1.399 . S
C577 C578 1.385 . S
C578 H564 0.931 . S
C578 C577 1.385 . S
C578 C579 1.389 . S
C579 C578 1.389 . S
C579 C580 1.387 . S
C580 H565 0.930 . S
C580 C575 1.390 . S
C580 C579 1.387 . S
H581 C593 0.930 . S
H582 C595 0.930 . S
H583 C596 0.930 . S
H584 C600 0.959 . S
H585 C600 0.959 . S
H586 C600 0.961 . S
H587 C601 0.960 . S
H588 C601 0.961 . S
H589 C601 0.959 . S
H590 C604 0.929 . S
H591 C605 0.931 . S
H592 C607 0.930 . S
C593 H581 0.930 . S
C593 C594 1.399 . S
C593 C598 1.399 . S
C594 C593 1.399 . S
C594 C595 1.376 . S
C595 H582 0.930 . S
C595 C594 1.376 . S
C595 C596 1.388 . S
C596 H583 0.930 . S
C596 C595 1.388 . S
C596 C597 1.390 . S
C597 C596 1.390 . S
C597 C598 1.394 . S
C597 C603 1.465 . S
C598 C593 1.399 . S
C598 C597 1.394 . S
C598 C599 1.516 . S
C599 C598 1.516 . S
C599 C600 1.502 . S
C599 C601 1.561 . S
C599 C602 1.526 . S
C600 H584 0.959 . S
C600 H585 0.959 . S
C600 H586 0.961 . S
C600 C599 1.502 . S
C601 H587 0.960 . S
C601 H588 0.961 . S
C601 H589 0.959 . S
C601 C599 1.561 . S
C602 C599 1.526 . S
C602 C603 1.396 . S
C602 C607 1.390 . S
C603 C597 1.465 . S
C603 C602 1.396 . S
C603 C604 1.399 . S
C604 H590 0.929 . S
C604 C603 1.399 . S
C604 C605 1.385 . S
C605 H591 0.931 . S
C605 C604 1.385 . S
C605 C606 1.389 . S
C606 C605 1.389 . S
C606 C607 1.387 . S
C607 H592 0.930 . S
C607 C602 1.390 . S
C607 C606 1.387 . S
H608 C620 0.930 . S
H609 C622 0.930 . S
H610 C623 0.930 . S
H611 C627 0.959 . S
H612 C627 0.959 . S
H613 C627 0.961 . S
H614 C628 0.960 . S
H615 C628 0.961 . S
H616 C628 0.959 . S
H617 C631 0.929 . S
H618 C632 0.931 . S
H619 C634 0.930 . S
C620 H608 0.930 . S
C620 C621 1.399 . S
C620 C625 1.399 . S
C621 C620 1.399 . S
C621 C622 1.376 . S
C622 H609 0.930 . S
C622 C621 1.376 . S
C622 C623 1.388 . S
C623 H610 0.930 . S
C623 C622 1.388 . S
C623 C624 1.390 . S
C624 C623 1.390 . S
C624 C625 1.394 . S
C624 C630 1.465 . S
C625 C620 1.399 . S
C625 C624 1.394 . S
C625 C626 1.516 . S
C626 C625 1.516 . S
C626 C627 1.502 . S
C626 C628 1.561 . S
C626 C629 1.526 . S
C627 H611 0.959 . S
C627 H612 0.959 . S
C627 H613 0.961 . S
C627 C626 1.502 . S
C628 H614 0.960 . S
C628 H615 0.961 . S
C628 H616 0.959 . S
C628 C626 1.561 . S
C629 C626 1.526 . S
C629 C630 1.396 . S
C629 C634 1.390 . S
C630 C624 1.465 . S
C630 C629 1.396 . S
C630 C631 1.399 . S
C631 H617 0.929 . S
C631 C630 1.399 . S
C631 C632 1.385 . S
C632 H618 0.931 . S
C632 C631 1.385 . S
C632 C633 1.389 . S
C633 C632 1.389 . S
C633 C634 1.387 . S
C634 H619 0.930 . S
C634 C629 1.390 . S
C634 C633 1.387 . S
H635 C647 0.930 . S
H636 C649 0.930 1_565 S
H637 C650 0.930 1_565 S
H638 C654 0.959 . S
H639 C654 0.959 . S
H640 C654 0.961 . S
H641 C655 0.960 . S
H642 C655 0.961 . S
H643 C655 0.959 . S
H644 C658 0.929 1_565 S
H645 C659 0.931 . S
H646 C661 0.930 . S
C647 H635 0.930 . S
C647 C648 1.399 . S
C647 C652 1.399 . S
C648 C647 1.399 . S
C648 C649 1.376 . S
C649 H636 0.930 1_545 S
C649 C648 1.376 . S
C649 C650 1.388 . S
C650 H637 0.930 1_545 S
C650 C649 1.388 . S
C650 C651 1.390 . S
C651 C650 1.390 . S
C651 C652 1.394 . S
C651 C657 1.465 . S
C652 C647 1.399 . S
C652 C651 1.394 . S
C652 C653 1.516 . S
C653 C652 1.516 . S
C653 C654 1.502 . S
C653 C655 1.561 . S
C653 C656 1.526 . S
C654 H638 0.959 . S
C654 H639 0.959 . S
C654 H640 0.961 . S
C654 C653 1.502 . S
C655 H641 0.960 . S
C655 H642 0.961 . S
C655 H643 0.959 . S
C655 C653 1.561 . S
C656 C653 1.526 . S
C656 C657 1.396 . S
C656 C661 1.390 . S
C657 C651 1.465 . S
C657 C656 1.396 . S
C657 C658 1.399 . S
C658 H644 0.929 1_545 S
C658 C657 1.399 . S
C658 C659 1.385 . S
C659 H645 0.931 . S
C659 C658 1.385 . S
C659 C660 1.389 . S
C660 C659 1.389 . S
C660 C661 1.387 . S
C661 H646 0.930 . S
C661 C656 1.390 . S
C661 C660 1.387 . S
H662 C674 0.930 . S
H663 C676 0.930 . S
H664 C677 0.930 . S
H665 C681 0.959 . S
H666 C681 0.959 . S
H667 C681 0.961 . S
H668 C682 0.960 . S
H669 C682 0.961 . S
H670 C682 0.959 . S
H671 C685 0.929 . S
H672 C686 0.931 . S
H673 C688 0.930 . S
C674 H662 0.930 . S
C674 C675 1.399 . S
C674 C679 1.399 . S
C675 C674 1.399 . S
C675 C676 1.376 . S
C676 H663 0.930 . S
C676 C675 1.376 . S
C676 C677 1.388 . S
C677 H664 0.930 . S
C677 C676 1.388 . S
C677 C678 1.390 . S
C678 C677 1.390 . S
C678 C679 1.394 . S
C678 C684 1.465 . S
C679 C674 1.399 . S
C679 C678 1.394 . S
C679 C680 1.516 . S
C680 C679 1.516 . S
C680 C681 1.502 . S
C680 C682 1.561 1_655 S
C680 C683 1.526 . S
C681 H665 0.959 . S
C681 H666 0.959 . S
C681 H667 0.961 . S
C681 C680 1.502 . S
C682 H668 0.960 . S
C682 H669 0.961 . S
C682 H670 0.959 . S
C682 C680 1.561 1_455 S
C683 C680 1.526 . S
C683 C684 1.396 . S
C683 C688 1.390 . S
C684 C678 1.465 . S
C684 C683 1.396 . S
C684 C685 1.399 . S
C685 H671 0.929 . S
C685 C684 1.399 . S
C685 C686 1.385 . S
C686 H672 0.931 . S
C686 C685 1.385 . S
C686 C687 1.389 . S
C687 C686 1.389 . S
C687 C688 1.387 . S
C688 H673 0.930 . S
C688 C683 1.390 . S
C688 C687 1.387 . S
H689 C701 0.930 . S
H690 C703 0.930 1_545 S
H691 C704 0.930 1_545 S
H692 C708 0.959 . S
H693 C708 0.959 . S
H694 C708 0.961 . S
H695 C709 0.960 . S
H696 C709 0.961 . S
H697 C709 0.959 . S
H698 C712 0.929 1_545 S
H699 C713 0.931 . S
H700 C715 0.930 . S
C701 H689 0.930 . S
C701 C702 1.399 . S
C701 C706 1.399 . S
C702 C701 1.399 . S
C702 C703 1.376 . S
C703 H690 0.930 1_565 S
C703 C702 1.376 . S
C703 C704 1.388 . S
C704 H691 0.930 1_565 S
C704 C703 1.388 . S
C704 C705 1.390 . S
C705 C704 1.390 . S
C705 C706 1.394 . S
C705 C711 1.465 . S
C706 C701 1.399 . S
C706 C705 1.394 . S
C706 C707 1.516 . S
C707 C706 1.516 . S
C707 C708 1.502 . S
C707 C709 1.561 . S
C707 C710 1.526 . S
C708 H692 0.959 . S
C708 H693 0.959 . S
C708 H694 0.961 . S
C708 C707 1.502 . S
C709 H695 0.960 . S
C709 H696 0.961 . S
C709 H697 0.959 . S
C709 C707 1.561 . S
C710 C707 1.526 . S
C710 C711 1.396 . S
C710 C715 1.390 . S
C711 C705 1.465 . S
C711 C710 1.396 . S
C711 C712 1.399 . S
C712 H698 0.929 1_565 S
C712 C711 1.399 . S
C712 C713 1.385 . S
C713 H699 0.931 . S
C713 C712 1.385 . S
C713 C714 1.389 . S
C714 C713 1.389 . S
C714 C715 1.387 . S
C715 H700 0.930 . S
C715 C710 1.390 . S
C715 C714 1.387 . S
H716 C728 0.930 . S
H717 C730 0.930 . S
H718 C731 0.930 . S
H719 C735 0.959 . S
H720 C735 0.959 . S
H721 C735 0.961 . S
H722 C736 0.960 . S
H723 C736 0.961 . S
H724 C736 0.959 . S
H725 C739 0.929 . S
H726 C740 0.931 . S
H727 C742 0.930 . S
C728 H716 0.930 . S
C728 C729 1.399 . S
C728 C733 1.399 . S
C729 C728 1.399 . S
C729 C730 1.376 . S
C730 H717 0.930 . S
C730 C729 1.376 . S
C730 C731 1.388 . S
C731 H718 0.930 . S
C731 C730 1.388 . S
C731 C732 1.390 . S
C732 C731 1.390 . S
C732 C733 1.394 . S
C732 C738 1.465 . S
C733 C728 1.399 . S
C733 C732 1.394 . S
C733 C734 1.516 . S
C734 C733 1.516 . S
C734 C735 1.502 . S
C734 C736 1.561 . S
C734 C737 1.526 . S
C735 H719 0.959 . S
C735 H720 0.959 . S
C735 H721 0.961 . S
C735 C734 1.502 . S
C736 H722 0.960 . S
C736 H723 0.961 . S
C736 H724 0.959 . S
C736 C734 1.561 . S
C737 C734 1.526 . S
C737 C738 1.396 . S
C737 C742 1.390 . S
C738 C732 1.465 . S
C738 C737 1.396 . S
C738 C739 1.399 . S
C739 H725 0.929 . S
C739 C738 1.399 . S
C739 C740 1.385 . S
C740 H726 0.931 . S
C740 C739 1.385 . S
C740 C741 1.389 . S
C741 C740 1.389 . S
C741 C742 1.387 . S
C742 H727 0.930 . S
C742 C737 1.390 . S
C742 C741 1.387 . S
H743 C755 0.930 . S
H744 C757 0.930 . S
H745 C758 0.930 . S
H746 C762 0.959 . S
H747 C762 0.959 . S
H748 C762 0.961 . S
H749 C763 0.960 . S
H750 C763 0.961 . S
H751 C763 0.959 . S
H752 C766 0.929 . S
H753 C767 0.931 . S
H754 C769 0.930 . S
C755 H743 0.930 . S
C755 C756 1.399 . S
C755 C760 1.399 . S
C756 C755 1.399 . S
C756 C757 1.376 . S
C757 H744 0.930 . S
C757 C756 1.376 . S
C757 C758 1.388 . S
C758 H745 0.930 . S
C758 C757 1.388 . S
C758 C759 1.390 . S
C759 C758 1.390 . S
C759 C760 1.394 . S
C759 C765 1.465 . S
C760 C755 1.399 . S
C760 C759 1.394 . S
C760 C761 1.516 . S
C761 C760 1.516 . S
C761 C762 1.502 . S
C761 C763 1.561 . S
C761 C764 1.526 . S
C762 H746 0.959 . S
C762 H747 0.959 . S
C762 H748 0.961 . S
C762 C761 1.502 . S
C763 H749 0.960 . S
C763 H750 0.961 . S
C763 H751 0.959 . S
C763 C761 1.561 . S
C764 C761 1.526 . S
C764 C765 1.396 . S
C764 C769 1.390 . S
C765 C759 1.465 . S
C765 C764 1.396 . S
C765 C766 1.399 . S
C766 H752 0.929 . S
C766 C765 1.399 . S
C766 C767 1.385 . S
C767 H753 0.931 . S
C767 C766 1.385 . S
C767 C768 1.389 . S
C768 C767 1.389 . S
C768 C769 1.387 . S
C769 H754 0.930 . S
C769 C764 1.390 . S
C769 C768 1.387 . S
H770 C782 0.930 . S
H771 C784 0.930 . S
H772 C785 0.930 . S
H773 C789 0.959 . S
H774 C789 0.959 . S
H775 C789 0.961 . S
H776 C790 0.960 . S
H777 C790 0.961 . S
H778 C790 0.959 . S
H779 C793 0.929 . S
H780 C794 0.931 . S
H781 C796 0.930 . S
C782 H770 0.930 . S
C782 C783 1.399 . S
C782 C787 1.399 . S
C783 C782 1.399 . S
C783 C784 1.376 . S
C784 H771 0.930 . S
C784 C783 1.376 . S
C784 C785 1.388 . S
C785 H772 0.930 . S
C785 C784 1.388 . S
C785 C786 1.390 . S
C786 C785 1.390 . S
C786 C787 1.394 . S
C786 C792 1.465 . S
C787 C782 1.399 . S
C787 C786 1.394 . S
C787 C788 1.516 . S
C788 C787 1.516 . S
C788 C789 1.502 . S
C788 C790 1.561 . S
C788 C791 1.526 . S
C789 H773 0.959 . S
C789 H774 0.959 . S
C789 H775 0.961 . S
C789 C788 1.502 . S
C790 H776 0.960 . S
C790 H777 0.961 . S
C790 H778 0.959 . S
C790 C788 1.561 . S
C791 C788 1.526 . S
C791 C792 1.396 . S
C791 C796 1.390 . S
C792 C786 1.465 . S
C792 C791 1.396 . S
C792 C793 1.399 . S
C793 H779 0.929 . S
C793 C792 1.399 . S
C793 C794 1.385 . S
C794 H780 0.931 . S
C794 C793 1.385 . S
C794 C795 1.389 . S
C795 C794 1.389 . S
C795 C796 1.387 . S
C796 H781 0.930 . S
C796 C791 1.390 . S
C796 C795 1.387 . S
H797 C809 0.930 . S
H798 C811 0.930 . S
H799 C812 0.930 . S
H800 C816 0.959 . S
H801 C816 0.959 . S
H802 C816 0.961 . S
H803 C817 0.960 . S
H804 C817 0.961 . S
H805 C817 0.959 . S
H806 C820 0.929 . S
H807 C821 0.931 . S
H808 C823 0.930 . S
C809 H797 0.930 . S
C809 C810 1.399 . S
C809 C814 1.399 . S
C810 C809 1.399 . S
C810 C811 1.376 . S
C811 H798 0.930 . S
C811 C810 1.376 . S
C811 C812 1.388 . S
C812 H799 0.930 . S
C812 C811 1.388 . S
C812 C813 1.390 . S
C813 C812 1.390 . S
C813 C814 1.394 . S
C813 C819 1.465 . S
C814 C809 1.399 . S
C814 C813 1.394 . S
C814 C815 1.516 . S
C815 C814 1.516 . S
C815 C816 1.502 . S
C815 C817 1.561 . S
C815 C818 1.526 . S
C816 H800 0.959 . S
C816 H801 0.959 . S
C816 H802 0.961 . S
C816 C815 1.502 . S
C817 H803 0.960 . S
C817 H804 0.961 . S
C817 H805 0.959 . S
C817 C815 1.561 . S
C818 C815 1.526 . S
C818 C819 1.396 . S
C818 C823 1.390 . S
C819 C813 1.465 . S
C819 C818 1.396 . S
C819 C820 1.399 . S
C820 H806 0.929 . S
C820 C819 1.399 . S
C820 C821 1.385 . S
C821 H807 0.931 . S
C821 C820 1.385 . S
C821 C822 1.389 . S
C822 C821 1.389 . S
C822 C823 1.387 . S
C823 H808 0.930 . S
C823 C818 1.390 . S
C823 C822 1.387 . S
H824 C836 0.930 . S
H825 C838 0.930 . S
H826 C839 0.930 . S
H827 C843 0.959 . S
H828 C843 0.959 . S
H829 C843 0.961 . S
H830 C844 0.960 . S
H831 C844 0.961 . S
H832 C844 0.959 . S
H833 C847 0.929 . S
H834 C848 0.931 . S
H835 C850 0.930 . S
C836 H824 0.930 . S
C836 C837 1.399 . S
C836 C841 1.399 . S
C837 C836 1.399 . S
C837 C838 1.376 . S
C838 H825 0.930 . S
C838 C837 1.376 . S
C838 C839 1.388 . S
C839 H826 0.930 . S
C839 C838 1.388 . S
C839 C840 1.390 . S
C840 C839 1.390 . S
C840 C841 1.394 . S
C840 C846 1.465 . S
C841 C836 1.399 . S
C841 C840 1.394 . S
C841 C842 1.516 . S
C842 C841 1.516 . S
C842 C843 1.502 . S
C842 C844 1.561 . S
C842 C845 1.526 . S
C843 H827 0.959 . S
C843 H828 0.959 . S
C843 H829 0.961 . S
C843 C842 1.502 . S
C844 H830 0.960 . S
C844 H831 0.961 . S
C844 H832 0.959 . S
C844 C842 1.561 . S
C845 C842 1.526 . S
C845 C846 1.396 . S
C845 C850 1.390 . S
C846 C840 1.465 . S
C846 C845 1.396 . S
C846 C847 1.399 . S
C847 H833 0.929 . S
C847 C846 1.399 . S
C847 C848 1.385 . S
C848 H834 0.931 . S
C848 C847 1.385 . S
C848 C849 1.389 . S
C849 C848 1.389 . S
C849 C850 1.387 . S
C850 H835 0.930 . S
C850 C845 1.390 . S
C850 C849 1.387 . S
H851 C863 0.930 . S
H852 C865 0.930 . S
H853 C866 0.930 . S
H854 C870 0.959 . S
H855 C870 0.959 . S
H856 C870 0.961 . S
H857 C871 0.960 . S
H858 C871 0.961 . S
H859 C871 0.959 . S
H860 C874 0.929 . S
H861 C875 0.931 . S
H862 C877 0.930 . S
C863 H851 0.930 . S
C863 C864 1.399 . S
C863 C868 1.399 . S
C864 C863 1.399 . S
C864 C865 1.376 . S
C865 H852 0.930 . S
C865 C864 1.376 . S
C865 C866 1.388 . S
C866 H853 0.930 . S
C866 C865 1.388 . S
C866 C867 1.390 . S
C867 C866 1.390 . S
C867 C868 1.394 . S
C867 C873 1.465 . S
C868 C863 1.399 . S
C868 C867 1.394 . S
C868 C869 1.516 . S
C869 C868 1.516 . S
C869 C870 1.502 . S
C869 C871 1.561 . S
C869 C872 1.526 . S
C870 H854 0.959 . S
C870 H855 0.959 . S
C870 H856 0.961 . S
C870 C869 1.502 . S
C871 H857 0.960 . S
C871 H858 0.961 . S
C871 H859 0.959 . S
C871 C869 1.561 . S
C872 C869 1.526 . S
C872 C873 1.396 . S
C872 C877 1.390 . S
C873 C867 1.465 . S
C873 C872 1.396 . S
C873 C874 1.399 . S
C874 H860 0.929 . S
C874 C873 1.399 . S
C874 C875 1.385 . S
C875 H861 0.931 . S
C875 C874 1.385 . S
C875 C876 1.389 . S
C876 C875 1.389 . S
C876 C877 1.387 . S
C877 H862 0.930 . S
C877 C872 1.390 . S
C877 C876 1.387 . S
H878 C890 0.930 . S
H879 C892 0.930 . S
H880 C893 0.930 . S
H881 C897 0.959 . S
H882 C897 0.959 . S
H883 C897 0.961 . S
H884 C898 0.960 . S
H885 C898 0.961 . S
H886 C898 0.959 . S
H887 C901 0.929 . S
H888 C902 0.931 . S
H889 C904 0.930 . S
C890 H878 0.930 . S
C890 C891 1.399 . S
C890 C895 1.399 . S
C891 C890 1.399 . S
C891 C892 1.376 . S
C892 H879 0.930 . S
C892 C891 1.376 . S
C892 C893 1.388 . S
C893 H880 0.930 . S
C893 C892 1.388 . S
C893 C894 1.390 . S
C894 C893 1.390 . S
C894 C895 1.394 . S
C894 C900 1.465 . S
C895 C890 1.399 . S
C895 C894 1.394 . S
C895 C896 1.516 . S
C896 C895 1.516 . S
C896 C897 1.502 . S
C896 C898 1.561 . S
C896 C899 1.526 . S
C897 H881 0.959 . S
C897 H882 0.959 . S
C897 H883 0.961 . S
C897 C896 1.502 . S
C898 H884 0.960 . S
C898 H885 0.961 . S
C898 H886 0.959 . S
C898 C896 1.561 . S
C899 C896 1.526 . S
C899 C900 1.396 . S
C899 C904 1.390 . S
C900 C894 1.465 . S
C900 C899 1.396 . S
C900 C901 1.399 . S
C901 H887 0.929 . S
C901 C900 1.399 . S
C901 C902 1.385 . S
C902 H888 0.931 . S
C902 C901 1.385 . S
C902 C903 1.389 . S
C903 C902 1.389 . S
C903 C904 1.387 . S
C904 H889 0.930 . S
C904 C899 1.390 . S
C904 C903 1.387 . S
H905 C917 0.930 . S
H906 C919 0.930 . S
H907 C920 0.930 . S
H908 C924 0.959 . S
H909 C924 0.959 . S
H910 C924 0.961 . S
H911 C925 0.960 . S
H912 C925 0.961 . S
H913 C925 0.959 . S
H914 C928 0.929 . S
H915 C929 0.931 . S
H916 C931 0.930 . S
C917 H905 0.930 . S
C917 C918 1.399 . S
C917 C922 1.399 . S
C918 C917 1.399 . S
C918 C919 1.376 . S
C919 H906 0.930 . S
C919 C918 1.376 . S
C919 C920 1.388 . S
C920 H907 0.930 . S
C920 C919 1.388 . S
C920 C921 1.390 . S
C921 C920 1.390 . S
C921 C922 1.394 . S
C921 C927 1.465 . S
C922 C917 1.399 . S
C922 C921 1.394 . S
C922 C923 1.516 . S
C923 C922 1.516 . S
C923 C924 1.502 . S
C923 C925 1.561 . S
C923 C926 1.526 . S
C924 H908 0.959 . S
C924 H909 0.959 . S
C924 H910 0.961 . S
C924 C923 1.502 . S
C925 H911 0.960 . S
C925 H912 0.961 . S
C925 H913 0.959 . S
C925 C923 1.561 . S
C926 C923 1.526 . S
C926 C927 1.396 . S
C926 C931 1.390 . S
C927 C921 1.465 . S
C927 C926 1.396 . S
C927 C928 1.399 . S
C928 H914 0.929 . S
C928 C927 1.399 . S
C928 C929 1.385 . S
C929 H915 0.931 . S
C929 C928 1.385 . S
C929 C930 1.389 . S
C930 C929 1.389 . S
C930 C931 1.387 . S
C931 H916 0.930 . S
C931 C926 1.390 . S
C931 C930 1.387 . S
H932 C944 0.930 . S
H933 C946 0.930 . S
H934 C947 0.930 . S
H935 C951 0.959 . S
H936 C951 0.959 . S
H937 C951 0.961 . S
H938 C952 0.960 . S
H939 C952 0.961 . S
H940 C952 0.959 . S
H941 C955 0.929 . S
H942 C956 0.931 . S
H943 C958 0.930 . S
C944 H932 0.930 . S
C944 C945 1.399 . S
C944 C949 1.399 . S
C945 C944 1.399 . S
C945 C946 1.376 . S
C946 H933 0.930 . S
C946 C945 1.376 . S
C946 C947 1.388 . S
C947 H934 0.930 . S
C947 C946 1.388 . S
C947 C948 1.390 . S
C948 C947 1.390 . S
C948 C949 1.394 . S
C948 C954 1.465 . S
C949 C944 1.399 . S
C949 C948 1.394 . S
C949 C950 1.516 . S
C950 C949 1.516 . S
C950 C951 1.502 . S
C950 C952 1.561 . S
C950 C953 1.526 . S
C951 H935 0.959 . S
C951 H936 0.959 . S
C951 H937 0.961 . S
C951 C950 1.502 . S
C952 H938 0.960 . S
C952 H939 0.961 . S
C952 H940 0.959 . S
C952 C950 1.561 . S
C953 C950 1.526 . S
C953 C954 1.396 . S
C953 C958 1.390 . S
C954 C948 1.465 . S
C954 C953 1.396 . S
C954 C955 1.399 . S
C955 H941 0.929 . S
C955 C954 1.399 . S
C955 C956 1.385 . S
C956 H942 0.931 . S
C956 C955 1.385 . S
C956 C957 1.389 . S
C957 C956 1.389 . S
C957 C958 1.387 . S
C958 H943 0.930 . S
C958 C953 1.390 . S
C958 C957 1.387 . S
H959 C971 0.930 . S
H960 C973 0.930 . S
H961 C974 0.930 . S
H962 C978 0.959 . S
H963 C978 0.959 . S
H964 C978 0.961 . S
H965 C979 0.960 . S
H966 C979 0.961 . S
H967 C979 0.959 . S
H968 C982 0.929 . S
H969 C983 0.931 . S
H970 C985 0.930 . S
C971 H959 0.930 . S
C971 C972 1.399 . S
C971 C976 1.399 . S
C972 C971 1.399 . S
C972 C973 1.376 . S
C973 H960 0.930 . S
C973 C972 1.376 . S
C973 C974 1.388 . S
C974 H961 0.930 . S
C974 C973 1.388 . S
C974 C975 1.390 . S
C975 C974 1.390 . S
C975 C976 1.394 . S
C975 C981 1.465 . S
C976 C971 1.399 . S
C976 C975 1.394 . S
C976 C977 1.516 . S
C977 C976 1.516 . S
C977 C978 1.502 . S
C977 C979 1.561 . S
C977 C980 1.526 . S
C978 H962 0.959 . S
C978 H963 0.959 . S
C978 H964 0.961 . S
C978 C977 1.502 . S
C979 H965 0.960 . S
C979 H966 0.961 . S
C979 H967 0.959 . S
C979 C977 1.561 . S
C980 C977 1.526 . S
C980 C981 1.396 . S
C980 C985 1.390 . S
C981 C975 1.465 . S
C981 C980 1.396 . S
C981 C982 1.399 . S
C982 H968 0.929 . S
C982 C981 1.399 . S
C982 C983 1.385 . S
C983 H969 0.931 . S
C983 C982 1.385 . S
C983 C984 1.389 . S
C984 C983 1.389 . S
C984 C985 1.387 . S
C985 H970 0.930 . S
C985 C980 1.390 . S
C985 C984 1.387 . S
H986 C998 0.930 . S
H987 C1000 0.930 . S
H988 C1001 0.930 . S
H989 C1005 0.959 . S
H990 C1005 0.959 . S
H991 C1005 0.961 . S
H992 C1006 0.960 . S
H993 C1006 0.961 . S
H994 C1006 0.959 . S
H995 C1009 0.929 . S
H996 C1010 0.931 . S
H997 C1012 0.930 . S
C998 H986 0.930 . S
C998 C999 1.399 . S
C998 C1003 1.399 . S
C999 C998 1.399 . S
C999 C1000 1.376 . S
C1000 H987 0.930 . S
C1000 C999 1.376 . S
C1000 C1001 1.388 . S
C1001 H988 0.930 . S
C1001 C1000 1.388 . S
C1001 C1002 1.390 . S
C1002 C1001 1.390 . S
C1002 C1003 1.394 . S
C1002 C1008 1.465 . S
C1003 C998 1.399 . S
C1003 C1002 1.394 . S
C1003 C1004 1.516 . S
C1004 C1003 1.516 . S
C1004 C1005 1.502 . S
C1004 C1006 1.561 . S
C1004 C1007 1.526 . S
C1005 H989 0.959 . S
C1005 H990 0.959 . S
C1005 H991 0.961 . S
C1005 C1004 1.502 . S
C1006 H992 0.960 . S
C1006 H993 0.961 . S
C1006 H994 0.959 . S
C1006 C1004 1.561 . S
C1007 C1004 1.526 . S
C1007 C1008 1.396 . S
C1007 C1012 1.390 . S
C1008 C1002 1.465 . S
C1008 C1007 1.396 . S
C1008 C1009 1.399 . S
C1009 H995 0.929 . S
C1009 C1008 1.399 . S
C1009 C1010 1.385 . S
C1010 H996 0.931 . S
C1010 C1009 1.385 . S
C1010 C1011 1.389 . S
C1011 C1010 1.389 . S
C1011 C1012 1.387 . S
C1012 H997 0.930 . S
C1012 C1007 1.390 . S
C1012 C1011 1.387 . S
H1013 C1025 0.930 . S
H1014 C1027 0.930 . S
H1015 C1028 0.930 . S
H1016 C1032 0.959 . S
H1017 C1032 0.959 . S
H1018 C1032 0.961 . S
H1019 C1033 0.960 . S
H1020 C1033 0.961 . S
H1021 C1033 0.959 . S
H1022 C1036 0.929 . S
H1023 C1037 0.931 . S
H1024 C1039 0.930 . S
C1025 H1013 0.930 . S
C1025 C1026 1.399 . S
C1025 C1030 1.399 . S
C1026 C1025 1.399 . S
C1026 C1027 1.376 . S
C1027 H1014 0.930 . S
C1027 C1026 1.376 . S
C1027 C1028 1.388 . S
C1028 H1015 0.930 . S
C1028 C1027 1.388 . S
C1028 C1029 1.390 . S
C1029 C1028 1.390 . S
C1029 C1030 1.394 . S
C1029 C1035 1.465 . S
C1030 C1025 1.399 . S
C1030 C1029 1.394 . S
C1030 C1031 1.516 . S
C1031 C1030 1.516 . S
C1031 C1032 1.502 . S
C1031 C1033 1.561 . S
C1031 C1034 1.526 . S
C1032 H1016 0.959 . S
C1032 H1017 0.959 . S
C1032 H1018 0.961 . S
C1032 C1031 1.502 . S
C1033 H1019 0.960 . S
C1033 H1020 0.961 . S
C1033 H1021 0.959 . S
C1033 C1031 1.561 . S
C1034 C1031 1.526 . S
C1034 C1035 1.396 . S
C1034 C1039 1.390 . S
C1035 C1029 1.465 . S
C1035 C1034 1.396 . S
C1035 C1036 1.399 . S
C1036 H1022 0.929 . S
C1036 C1035 1.399 . S
C1036 C1037 1.385 . S
C1037 H1023 0.931 . S
C1037 C1036 1.385 . S
C1037 C1038 1.389 . S
C1038 C1037 1.389 . S
C1038 C1039 1.387 . S
C1039 H1024 0.930 . S
C1039 C1034 1.390 . S
C1039 C1038 1.387 . S
C405 C45 1.602 . S
C417 C129 1.651 . S
C432 C30 1.638 . S
C444 C165 1.649 . S
C459 C39 1.599 . S
C471 C201 1.628 . S
C498 C237 1.630 . S
C486 C34 1.598 . S
C513 C97 1.641 . S
C525 C273 1.647 . S
C552 C309 1.654 . S
C540 C82 1.598 . S
C579 C345 1.634 . S
C567 C91 1.600 . S
C606 C381 1.623 . S
C594 C86 1.603 . S
C633 C321 1.537 . S
C621 C26 1.467 . S
C660 C357 1.539 . S
C648 C36 1.455 . S
C687 C279 1.530 . S
C675 C32 1.519 . S
C714 C315 1.563 . S
C702 C42 1.443 . S
C729 C18 1.584 . S
C741 C285 1.642 . S
C768 C351 1.638 . S
C756 C50 1.521 . S
C783 C4 1.591 . S
C795 C387 1.590 . S
C810 C48 1.514 . S
C822 C249 1.665 . S
C849 C177 1.494 . S
C837 C78 1.524 . S
C864 C88 1.442 . S
C876 C213 1.550 . S
C903 C135 1.537 . S
C891 C84 1.488 . S
C930 C171 1.569 . S
C918 C94 1.467 . S
C957 C141 1.627 . S
C945 C70 1.601 . S
C984 C207 1.637 . S
C972 C102 1.523 . S
C999 C56 1.575 . S
C1011 C243 1.586 . S
C1026 C100 1.606 . S
C1038 C105 1.628 . S
