# Generated by pormake.
# Topology ptr, (4,4)-cn, num edge types: 1
# Building blocks:
#     Node 0, Type 0, BuildingBlock: QUQFOY_clean_sbu_1, # of connection points: 4
#     Node 1, Type 0, BuildingBlock: QUQFOY_clean_sbu_1, # of connection points: 4
#     Node 2, Type 0, BuildingBlock: QUQFOY_clean_sbu_1, # of connection points: 4
#     Node 3, Type 0, BuildingBlock: QUQFOY_clean_sbu_1, # of connection points: 4
#     Node 4, Type 0, BuildingBlock: QUQFOY_clean_sbu_1, # of connection points: 4
#     Node 5, Type 0, BuildingBlock: QUQFOY_clean_sbu_1, # of connection points: 4
#     Node 6, Type 0, BuildingBlock: QUQFOY_clean_sbu_1, # of connection points: 4
#     Node 7, Type 0, BuildingBlock: QUQFOY_clean_sbu_1, # of connection points: 4
#     Node 8, Type 0, BuildingBlock: QUQFOY_clean_sbu_1, # of connection points: 4
#     Node 9, Type 0, BuildingBlock: QUQFOY_clean_sbu_1, # of connection points: 4
#     Node 10, Type 0, BuildingBlock: QUQFOY_clean_sbu_1, # of connection points: 4
#     Node 11, Type 0, BuildingBlock: QUQFOY_clean_sbu_1, # of connection points: 4
#     Node 12, Type 0, BuildingBlock: QUQFOY_clean_sbu_1, # of connection points: 4
#     Node 13, Type 0, BuildingBlock: QUQFOY_clean_sbu_1, # of connection points: 4
#     Node 14, Type 0, BuildingBlock: QUQFOY_clean_sbu_1, # of connection points: 4
#     Node 15, Type 0, BuildingBlock: QUQFOY_clean_sbu_1, # of connection points: 4
#     Node 16, Type 0, BuildingBlock: QUQFOY_clean_sbu_1, # of connection points: 4
#     Node 17, Type 0, BuildingBlock: QUQFOY_clean_sbu_1, # of connection points: 4
#     Node 18, Type 1, BuildingBlock: AZAVOO_clean_linker_0, # of connection points: 4
#     Node 19, Type 1, BuildingBlock: AZAVOO_clean_linker_0, # of connection points: 4
#     Node 20, Type 1, BuildingBlock: AZAVOO_clean_linker_0, # of connection points: 4
#     Node 21, Type 1, BuildingBlock: AZAVOO_clean_linker_0, # of connection points: 4
#     Node 22, Type 1, BuildingBlock: AZAVOO_clean_linker_0, # of connection points: 4
#     Node 23, Type 1, BuildingBlock: AZAVOO_clean_linker_0, # of connection points: 4
#     Node 24, Type 1, BuildingBlock: AZAVOO_clean_linker_0, # of connection points: 4
#     Node 25, Type 1, BuildingBlock: AZAVOO_clean_linker_0, # of connection points: 4
#     Node 26, Type 1, BuildingBlock: AZAVOO_clean_linker_0, # of connection points: 4
#     Node 27, Type 1, BuildingBlock: AZAVOO_clean_linker_0, # of connection points: 4
#     Node 28, Type 1, BuildingBlock: AZAVOO_clean_linker_0, # of connection points: 4
#     Node 29, Type 1, BuildingBlock: AZAVOO_clean_linker_0, # of connection points: 4
#     Node 30, Type 1, BuildingBlock: AZAVOO_clean_linker_0, # of connection points: 4
#     Node 31, Type 1, BuildingBlock: AZAVOO_clean_linker_0, # of connection points: 4
#     Node 32, Type 1, BuildingBlock: AZAVOO_clean_linker_0, # of connection points: 4
#     Node 33, Type 1, BuildingBlock: AZAVOO_clean_linker_0, # of connection points: 4
#     Node 34, Type 1, BuildingBlock: AZAVOO_clean_linker_0, # of connection points: 4
#     Node 35, Type 1, BuildingBlock: AZAVOO_clean_linker_0, # of connection points: 4
#     Edge 36, Type (0, 1), BuildingBlock: XUDNAN_clean_linker_2, # of connection points: 2
#     Edge 37, Type (0, 1), BuildingBlock: XUDNAN_clean_linker_2, # of connection points: 2
#     Edge 38, Type (0, 1), BuildingBlock: XUDNAN_clean_linker_2, # of connection points: 2
#     Edge 39, Type (0, 1), BuildingBlock: XUDNAN_clean_linker_2, # of connection points: 2
#     Edge 40, Type (0, 1), BuildingBlock: XUDNAN_clean_linker_2, # of connection points: 2
#     Edge 41, Type (0, 1), BuildingBlock: XUDNAN_clean_linker_2, # of connection points: 2
#     Edge 42, Type (0, 1), BuildingBlock: XUDNAN_clean_linker_2, # of connection points: 2
#     Edge 43, Type (0, 1), BuildingBlock: XUDNAN_clean_linker_2, # of connection points: 2
#     Edge 44, Type (0, 1), BuildingBlock: XUDNAN_clean_linker_2, # of connection points: 2
#     Edge 45, Type (0, 1), BuildingBlock: XUDNAN_clean_linker_2, # of connection points: 2
#     Edge 46, Type (0, 1), BuildingBlock: XUDNAN_clean_linker_2, # of connection points: 2
#     Edge 47, Type (0, 1), BuildingBlock: XUDNAN_clean_linker_2, # of connection points: 2
#     Edge 48, Type (0, 1), BuildingBlock: XUDNAN_clean_linker_2, # of connection points: 2
#     Edge 49, Type (0, 1), BuildingBlock: XUDNAN_clean_linker_2, # of connection points: 2
#     Edge 50, Type (0, 1), BuildingBlock: XUDNAN_clean_linker_2, # of connection points: 2
#     Edge 51, Type (0, 1), BuildingBlock: XUDNAN_clean_linker_2, # of connection points: 2
#     Edge 52, Type (0, 1), BuildingBlock: XUDNAN_clean_linker_2, # of connection points: 2
#     Edge 53, Type (0, 1), BuildingBlock: XUDNAN_clean_linker_2, # of connection points: 2
#     Edge 54, Type (0, 1), BuildingBlock: XUDNAN_clean_linker_2, # of connection points: 2
#     Edge 55, Type (0, 1), BuildingBlock: XUDNAN_clean_linker_2, # of connection points: 2
#     Edge 56, Type (0, 1), BuildingBlock: XUDNAN_clean_linker_2, # of connection points: 2
#     Edge 57, Type (0, 1), BuildingBlock: XUDNAN_clean_linker_2, # of connection points: 2
#     Edge 58, Type (0, 1), BuildingBlock: XUDNAN_clean_linker_2, # of connection points: 2
#     Edge 59, Type (0, 1), BuildingBlock: XUDNAN_clean_linker_2, # of connection points: 2
#     Edge 60, Type (0, 1), BuildingBlock: XUDNAN_clean_linker_2, # of connection points: 2
#     Edge 61, Type (0, 1), BuildingBlock: XUDNAN_clean_linker_2, # of connection points: 2
#     Edge 62, Type (0, 1), BuildingBlock: XUDNAN_clean_linker_2, # of connection points: 2
#     Edge 63, Type (0, 1), BuildingBlock: XUDNAN_clean_linker_2, # of connection points: 2
#     Edge 64, Type (0, 1), BuildingBlock: XUDNAN_clean_linker_2, # of connection points: 2
#     Edge 65, Type (0, 1), BuildingBlock: XUDNAN_clean_linker_2, # of connection points: 2
#     Edge 66, Type (0, 1), BuildingBlock: XUDNAN_clean_linker_2, # of connection points: 2
#     Edge 67, Type (0, 1), BuildingBlock: XUDNAN_clean_linker_2, # of connection points: 2
#     Edge 68, Type (0, 1), BuildingBlock: XUDNAN_clean_linker_2, # of connection points: 2
#     Edge 69, Type (0, 1), BuildingBlock: XUDNAN_clean_linker_2, # of connection points: 2
#     Edge 70, Type (0, 1), BuildingBlock: XUDNAN_clean_linker_2, # of connection points: 2
#     Edge 71, Type (0, 1), BuildingBlock: XUDNAN_clean_linker_2, # of connection points: 2
#     Edge 72, Type (0, 1), BuildingBlock: XUDNAN_clean_linker_2, # of connection points: 2
#     Edge 73, Type (0, 1), BuildingBlock: XUDNAN_clean_linker_2, # of connection points: 2
#     Edge 74, Type (0, 1), BuildingBlock: XUDNAN_clean_linker_2, # of connection points: 2
#     Edge 75, Type (0, 1), BuildingBlock: XUDNAN_clean_linker_2, # of connection points: 2
#     Edge 76, Type (0, 1), BuildingBlock: XUDNAN_clean_linker_2, # of connection points: 2
#     Edge 77, Type (0, 1), BuildingBlock: XUDNAN_clean_linker_2, # of connection points: 2
#     Edge 78, Type (0, 1), BuildingBlock: XUDNAN_clean_linker_2, # of connection points: 2
#     Edge 79, Type (0, 1), BuildingBlock: XUDNAN_clean_linker_2, # of connection points: 2
#     Edge 80, Type (0, 1), BuildingBlock: XUDNAN_clean_linker_2, # of connection points: 2
#     Edge 81, Type (0, 1), BuildingBlock: XUDNAN_clean_linker_2, # of connection points: 2
#     Edge 82, Type (0, 1), BuildingBlock: XUDNAN_clean_linker_2, # of connection points: 2
#     Edge 83, Type (0, 1), BuildingBlock: XUDNAN_clean_linker_2, # of connection points: 2
#     Edge 84, Type (0, 1), BuildingBlock: XUDNAN_clean_linker_2, # of connection points: 2
#     Edge 85, Type (0, 1), BuildingBlock: XUDNAN_clean_linker_2, # of connection points: 2
#     Edge 86, Type (0, 1), BuildingBlock: XUDNAN_clean_linker_2, # of connection points: 2
#     Edge 87, Type (0, 1), BuildingBlock: XUDNAN_clean_linker_2, # of connection points: 2
#     Edge 88, Type (0, 1), BuildingBlock: XUDNAN_clean_linker_2, # of connection points: 2
#     Edge 89, Type (0, 1), BuildingBlock: XUDNAN_clean_linker_2, # of connection points: 2
#     Edge 90, Type (0, 1), BuildingBlock: XUDNAN_clean_linker_2, # of connection points: 2
#     Edge 91, Type (0, 1), BuildingBlock: XUDNAN_clean_linker_2, # of connection points: 2
#     Edge 92, Type (0, 1), BuildingBlock: XUDNAN_clean_linker_2, # of connection points: 2
#     Edge 93, Type (0, 1), BuildingBlock: XUDNAN_clean_linker_2, # of connection points: 2
#     Edge 94, Type (0, 1), BuildingBlock: XUDNAN_clean_linker_2, # of connection points: 2
#     Edge 95, Type (0, 1), BuildingBlock: XUDNAN_clean_linker_2, # of connection points: 2
#     Edge 96, Type (0, 1), BuildingBlock: XUDNAN_clean_linker_2, # of connection points: 2
#     Edge 97, Type (0, 1), BuildingBlock: XUDNAN_clean_linker_2, # of connection points: 2
#     Edge 98, Type (0, 1), BuildingBlock: XUDNAN_clean_linker_2, # of connection points: 2
#     Edge 99, Type (0, 1), BuildingBlock: XUDNAN_clean_linker_2, # of connection points: 2
#     Edge 100, Type (0, 1), BuildingBlock: XUDNAN_clean_linker_2, # of connection points: 2
#     Edge 101, Type (0, 1), BuildingBlock: XUDNAN_clean_linker_2, # of connection points: 2
#     Edge 102, Type (0, 1), BuildingBlock: XUDNAN_clean_linker_2, # of connection points: 2
#     Edge 103, Type (0, 1), BuildingBlock: XUDNAN_clean_linker_2, # of connection points: 2
#     Edge 104, Type (0, 1), BuildingBlock: XUDNAN_clean_linker_2, # of connection points: 2
#     Edge 105, Type (0, 1), BuildingBlock: XUDNAN_clean_linker_2, # of connection points: 2
#     Edge 106, Type (0, 1), BuildingBlock: XUDNAN_clean_linker_2, # of connection points: 2
#     Edge 107, Type (0, 1), BuildingBlock: XUDNAN_clean_linker_2, # of connection points: 2
# Relax obj value: 0.049
# Max RMSD: 0.181
# Mean RMSD: 0.120
data_MOF--net-ptr--node1-QUQFOY_clean_sbu_1--node2-AZAVOO_clean_linker_0--edge1-XUDNAN_clean_linker_2
_symmetry_space_group_name_H-M    P1
_symmetry_Int_Tables_number       1
_symmetry_cell_setting            triclinic
loop_
_symmetry_equiv_pos_as_xyz
'x, y, z'
_cell_length_a     83.915985
_cell_length_b     82.440998
_cell_length_c     70.610707
_cell_angle_alpha  92.556411
_cell_angle_beta   92.067939
_cell_angle_gamma 120.0298
loop_
_atom_site_label
_atom_site_type_symbol
_atom_site_fract_x
_atom_site_fract_y
_atom_site_fract_z
_atom_type_partial_charge
O0 O 0.02956 0.4025 0.04105 0.0
Cd1 Cd 0.03217 0.38511 0.0211 0.0
Cd2 Cd 0.99553 0.36553 0.02308 0.0
O3 O 1.00172 0.38153 0.04865 0.0
O4 O 0.05516 0.38446 0.02778 0.0
O5 O 0.02698 0.36023 0.02977 0.0
C6 C 0.04465 0.36758 0.03274 0.0
C7 C 0.96826 0.3363 0.0177 0.0
C8 C 0.01623 0.39756 0.05171 0.0
C9 C 0.01254 0.38723 0.98792 0.0
O10 O 0.99933 0.37951 0.99872 0.0
O11 O 0.02828 0.38959 0.99302 0.0
O12 O 0.96809 0.35166 0.02109 0.0
O13 O 0.98403 0.33713 0.0191 0.0
O14 O 0.6114 0.6117 0.08307 0.0
Cd15 Cd 0.6258 0.62541 0.06021 0.0
Cd16 Cd 0.63813 0.602 0.06483 0.0
O17 O 0.62691 0.59774 0.09114 0.0
O18 O 0.62023 0.64612 0.05821 0.0
O19 O 0.64823 0.65135 0.06585 0.0
C20 C 0.63728 0.65791 0.06316 0.0
C21 C 0.66896 0.61332 0.05889 0.0
C22 C 0.61454 0.60192 0.09444 0.0
C23 C 0.61372 0.59428 0.03019 0.0
O24 O 0.61975 0.58708 0.04199 0.0
O25 O 0.6167 0.61087 0.03368 0.0
O26 O 0.65875 0.59655 0.06421 0.0
O27 O 0.66196 0.62416 0.05817 0.0
O28 O 0.40134 0.0043 0.9945 0.0
Cd29 Cd 0.39602 0.01432 0.01956 0.0
Cd30 Cd 0.375 0.97668 0.02281 0.0
O31 O 0.38068 0.97417 0.99495 0.0
O32 O 0.40079 0.04026 0.01495 0.0
O33 O 0.37323 0.01639 0.0196 0.0
C34 C 0.38328 0.03366 0.01574 0.0
C35 C 0.34538 0.96449 0.03356 0.0
C36 C 0.39317 0.98769 0.98661 0.0
C37 C 0.40798 0.99869 0.05071 0.0
O38 O 0.39591 0.98276 0.04295 0.0
O39 O 0.40952 0.01377 0.0448 0.0
O40 O 0.35215 0.95371 0.03009 0.0
O41 O 0.35516 0.98193 0.03012 0.0
O42 O 0.99598 0.6034 0.01757 0.0
Cd43 Cd 0.98515 0.61331 0.03759 0.0
Cd44 Cd 0.02231 0.63679 0.0501 0.0
O45 O 0.02529 0.62256 0.0267 0.0
O46 O 0.96134 0.60919 0.02579 0.0
O47 O 0.98537 0.63745 0.034 0.0
C48 C 0.96875 0.62723 0.0264 0.0
C49 C 0.04634 0.6677 0.05783 0.0
C50 C 0.01295 0.60929 0.01556 0.0
C51 C 0.9954 0.60948 0.07711 0.0
O52 O 0.01145 0.62251 0.07392 0.0
O53 O 0.98223 0.60305 0.06432 0.0
O54 O 0.04863 0.6535 0.05922 0.0
O55 O 0.03034 0.66456 0.05155 0.0
O56 O 0.39866 0.40032 0.98551 0.0
Cd57 Cd 0.39182 0.38185 0.00669 0.0
Cd58 Cd 0.37494 0.40138 0.01912 0.0
O59 O 0.38446 0.41548 0.99474 0.0
O60 O 0.40108 0.36494 0.99812 0.0
O61 O 0.3715 0.3547 1.00114 0.0
C62 C 0.38435 0.35117 0.99689 0.0
C63 C 0.34407 0.38704 0.02622 0.0
C64 C 0.39436 0.41288 0.9831 0.0
C65 C 0.40485 0.4034 0.0453 0.0
O66 O 0.39355 0.40914 0.04226 0.0
O67 O 0.40584 0.39215 0.03313 0.0
O68 O 0.35474 0.40502 0.02851 0.0
O69 O 0.35074 0.37718 0.01899 0.0
O70 O 0.59998 0.99004 0.06475 0.0
Cd71 Cd 0.61294 0.98888 0.04094 0.0
Cd72 Cd 0.63144 0.02513 0.05047 0.0
O73 O 0.62017 0.01848 0.07679 0.0
O74 O 0.60322 0.96134 0.03707 0.0
O75 O 0.63258 0.9817 0.04488 0.0
C76 C 0.61947 0.96443 0.04209 0.0
C77 C 0.66256 0.0392 0.04456 0.0
C78 C 0.60567 0.00272 0.07829 0.0
C79 C 0.60639 0.01274 0.01523 0.0
O80 O 0.61463 0.02555 0.02863 0.0
O81 O 0.60591 0.99711 0.01611 0.0
O82 O 0.6559 0.04893 0.0521 0.0
O83 O 0.65177 0.02127 0.04143 0.0
O84 O 0.68743 0.73483 0.38017 0.0
Cd85 Cd 0.70015 0.72599 0.361 0.0
Cd86 Cd 0.66452 0.70397 0.3468 0.0
O87 O 0.65864 0.71311 0.37179 0.0
O88 O 0.72576 0.73658 0.37244 0.0
O89 O 0.70604 0.70605 0.36867 0.0
C90 C 0.72219 0.71968 0.37461 0.0
C91 C 0.6474 0.67214 0.33651 0.0
C92 C 0.6703 0.72695 0.38281 0.0
C93 C 0.69069 0.73373 0.3225 0.0
O94 O 0.67401 0.7224 0.32564 0.0
O95 O 0.70369 0.73608 0.33417 0.0
O96 O 0.64055 0.68303 0.33543 0.0
O97 O 0.66406 0.67926 0.34392 0.0
O98 O 0.27809 0.93587 0.42176 0.0
Cd99 Cd 0.28453 0.9544 0.40058 0.0
Cd100 Cd 0.30475 0.93784 0.39243 0.0
O101 O 0.29861 0.92687 0.41868 0.0
O102 O 0.27252 0.96858 0.40969 0.0
O103 O 0.30258 0.98211 0.40731 0.0
C104 C 0.28859 0.98337 0.41238 0.0
C105 C 0.33452 0.95399 0.38186 0.0
C106 C 0.28565 0.92678 0.42757 0.0
C107 C 0.27275 0.92961 0.36513 0.0
O108 O 0.28379 0.92448 0.3714 0.0
O109 O 0.27216 0.94324 0.37352 0.0
O110 O 0.32576 0.93595 0.3824 0.0
O111 O 0.32671 0.96305 0.38828 0.0
O112 O 0.07338 0.33987 0.33056 0.0
Cd113 Cd 0.06499 0.34828 0.35417 0.0
Cd114 Cd 0.04613 0.3113 0.35971 0.0
O115 O 0.05454 0.30957 0.33264 0.0
O116 O 0.06604 0.37239 0.34902 0.0
O117 O 0.03999 0.3458 0.35197 0.0
C118 C 0.04823 0.36331 0.34841 0.0
C119 C 0.01552 0.29123 0.36647 0.0
C120 C 0.06651 0.32301 0.32378 0.0
C121 C 0.07688 0.33688 0.38897 0.0
O122 O 0.06516 0.3201 0.38289 0.0
O123 O 0.07864 0.35066 0.37999 0.0
O124 O 0.02674 0.28505 0.36395 0.0
O125 O 0.0215 0.30884 0.36469 0.0
O126 O 0.663 0.94213 0.34601 0.0
Cd127 Cd 0.64931 0.94893 0.36574 0.0
Cd128 Cd 0.68449 0.96732 0.38373 0.0
O129 O 0.69146 0.95847 0.35907 0.0
O130 O 0.62675 0.94539 0.35134 0.0
O131 O 0.6488 0.97301 0.36409 0.0
C132 C 0.63332 0.96325 0.35407 0.0
C133 C 0.70473 0.99631 0.4 0.0
C134 C 0.68008 0.94757 0.34563 0.0
C135 C 0.65307 0.93514 0.40281 0.0
O136 O 0.67005 0.94725 0.40233 0.0
O137 O 0.64155 0.93352 0.38959 0.0
O138 O 0.70794 0.98259 0.39967 0.0
O139 O 0.69053 0.99414 0.38999 0.0
O140 O 0.06419 0.73034 0.32086 0.0
Cd141 Cd 0.05585 0.71069 0.34102 0.0
Cd142 Cd 0.04192 0.73174 0.35508 0.0
O143 O 0.05065 0.74595 0.33068 0.0
O144 O 0.05793 0.68951 0.32901 0.0
O145 O 0.03139 0.68669 0.33671 0.0
C146 C 0.04027 0.67919 0.32932 0.0
C147 C 0.01154 0.71837 0.36379 0.0
C148 C 0.06034 0.74328 0.31884 0.0
C149 C 0.07149 0.73054 0.37946 0.0
O150 O 0.06163 0.73806 0.37685 0.0
O151 O 0.07068 0.71833 0.36718 0.0
O152 O 0.02286 0.73622 0.36646 0.0
O153 O 0.01729 0.70817 0.35543 0.0
O154 O 0.2677 0.32254 0.40198 0.0
Cd155 Cd 0.2797 0.32198 0.37713 0.0
Cd156 Cd 0.29728 0.35931 0.38471 0.0
O157 O 0.28591 0.3526 0.41099 0.0
O158 O 0.2768 0.2964 0.37344 0.0
O159 O 0.30359 0.32219 0.38146 0.0
C160 C 0.29416 0.30414 0.37836 0.0
C161 C 0.32855 0.37903 0.38002 0.0
C162 C 0.27304 0.33629 0.41432 0.0
C163 C 0.27161 0.34385 0.34956 0.0
O164 O 0.28042 0.3576 0.36188 0.0
O165 O 0.2706 0.32816 0.35204 0.0
O166 O 0.31854 0.38566 0.38633 0.0
O167 O 0.32111 0.36099 0.37772 0.0
O168 O 0.3587 0.06236 0.71201 0.0
Cd169 Cd 0.36313 0.04922 0.68914 0.0
Cd170 Cd 0.32671 0.03823 0.68066 0.0
O171 O 0.32875 0.051 0.70737 0.0
O172 O 0.38667 0.05043 0.69756 0.0
O173 O 0.36011 0.02376 0.69308 0.0
C174 C 0.3774 0.03251 0.6988 0.0
C175 C 0.30135 0.0086 0.67154 0.0
C176 C 0.34379 0.06084 0.71745 0.0
C177 C 0.35479 0.06316 0.65384 0.0
O178 O 0.33825 0.05529 0.65867 0.0
O179 O 0.36705 0.06173 0.66357 0.0
O180 O 0.29987 0.02343 0.67298 0.0
O181 O 0.3173 0.01045 0.67585 0.0
O182 O 0.94503 0.27498 0.7536 0.0
Cd183 Cd 0.95509 0.28784 0.72871 0.0
Cd184 Cd 0.96789 0.2631 0.72884 0.0
O185 O 0.95907 0.25847 0.75615 0.0
O186 O 0.94898 0.30828 0.72909 0.0
O187 O 0.97767 0.31392 0.73177 0.0
C188 C 0.96635 0.32023 0.73145 0.0
C189 C 0.99661 0.26873 0.71936 0.0
C190 C 0.94871 0.26419 0.7628 0.0
C191 C 0.93986 0.25683 0.69771 0.0
O192 O 0.94754 0.2497 0.70739 0.0
O193 O 0.94255 0.27307 0.70269 0.0
O194 O 0.98434 0.25254 0.72444 0.0
O195 O 0.9932 0.28235 0.72115 0.0
O196 O 0.74362 0.68097 0.66936 0.0
Cd197 Cd 0.73544 0.69056 0.69255 0.0
Cd198 Cd 0.71664 0.65378 0.69807 0.0
O199 O 0.7238 0.65077 0.67089 0.0
O200 O 0.74298 0.71722 0.68858 0.0
O201 O 0.7138 0.6946 0.6881 0.0
C202 C 0.72573 0.71206 0.68652 0.0
C203 C 0.68619 0.64067 0.70629 0.0
C204 C 0.73625 0.6641 0.66232 0.0
C205 C 0.74635 0.67802 0.72768 0.0
O206 O 0.73602 0.66128 0.7206 0.0
O207 O 0.74697 0.69167 0.71936 0.0
O208 O 0.69389 0.63055 0.70438 0.0
O209 O 0.6956 0.65812 0.70263 0.0
O210 O 0.32931 0.2733 0.68654 0.0
Cd211 Cd 0.31696 0.28218 0.70585 0.0
Cd212 Cd 0.35261 0.30716 0.7184 0.0
O213 O 0.35816 0.29471 0.69532 0.0
O214 O 0.29334 0.27833 0.69364 0.0
O215 O 0.31785 0.30638 0.70112 0.0
C216 C 0.30125 0.29638 0.69341 0.0
C217 C 0.37107 0.33948 0.72619 0.0
C218 C 0.34649 0.28071 0.6844 0.0
C219 C 0.32714 0.27886 0.74542 0.0
O220 O 0.34293 0.29224 0.74204 0.0
O221 O 0.31384 0.2722 0.73276 0.0
O222 O 0.37707 0.32807 0.72891 0.0
O223 O 0.35474 0.33268 0.71807 0.0
O224 O 0.73293 0.06664 0.6557 0.0
Cd225 Cd 0.72352 0.04663 0.67555 0.0
Cd226 Cd 0.71094 0.06898 0.6894 0.0
O227 O 0.71995 0.08296 0.66499 0.0
O228 O 0.72505 0.02525 0.66306 0.0
O229 O 0.69876 0.02305 0.67077 0.0
C230 C 0.70734 0.01534 0.66317 0.0
C231 C 0.68036 0.05513 0.69745 0.0
C232 C 0.72961 0.07992 0.65344 0.0
C233 C 0.73929 0.06627 0.71412 0.0
O234 O 0.73052 0.0749 0.71118 0.0
O235 O 0.73763 0.05345 0.70211 0.0
O236 O 0.6914 0.07303 0.70026 0.0
O237 O 0.68656 0.04521 0.6894 0.0
O238 O 0.93679 0.66644 0.74449 0.0
Cd239 Cd 0.94367 0.65756 0.71983 0.0
Cd240 Cd 0.96952 0.69414 0.7209 0.0
O241 O 0.96076 0.69525 0.74783 0.0
O242 O 0.93321 0.62989 0.72066 0.0
O243 O 0.96318 0.65029 0.72287 0.0
C244 C 0.9499 0.63314 0.7231 0.0
C245 C 0.99991 0.70461 0.71341 0.0
C246 C 0.94608 0.68218 0.75405 0.0
C247 C 0.94049 0.67903 0.6884 0.0
O248 O 0.95317 0.69337 0.69809 0.0
O249 O 0.9351 0.66266 0.69383 0.0
O250 O 0.99445 0.71636 0.71772 0.0
O251 O 0.98846 0.68697 0.71482 0.0
H252 H 0.15178 0.35675 0.03614 0.0
H253 H 0.28613 0.34006 0.1857 0.0
H254 H 0.15624 0.36303 0.14579 0.0
H255 H 0.13092 0.3634 0.128 0.0
H256 H 0.10697 0.30426 0.11158 0.0
H257 H 0.13215 0.30397 0.12992 0.0
H258 H 0.17862 0.36698 0.1158 0.0
H259 H 0.1693 0.36838 0.08295 0.0
H260 H 0.15489 0.31055 0.07088 0.0
H261 H 0.16405 0.30931 0.10389 0.0
H262 H 0.21554 0.37025 0.1212 0.0
H263 H 0.23784 0.37496 0.09761 0.0
H264 H 0.22385 0.31696 0.09985 0.0
H265 H 0.20083 0.31223 0.12248 0.0
H266 H 0.2266 0.3705 0.17209 0.0
H267 H 0.25735 0.37678 0.18293 0.0
H268 H 0.24082 0.31888 0.16738 0.0
H269 H 0.21011 0.31279 0.15678 0.0
H270 H 0.18937 0.36072 0.19942 0.0
H271 H 0.20217 0.36428 0.23186 0.0
H272 H 0.20657 0.31467 0.22072 0.0
H273 H 0.19212 0.31033 0.18887 0.0
H274 H 0.15563 0.3563 0.17976 0.0
H275 H 0.13382 0.35004 0.2043 0.0
H276 H 0.12752 0.295 0.20866 0.0
H277 H 0.14864 0.3011 0.18348 0.0
O278 O 0.15576 0.356 0.04895 0.0
O279 O 0.1496 0.32662 0.04313 0.0
O280 O 0.28192 0.36762 0.18921 0.0
O281 O 0.27412 0.338 0.18144 0.0
C282 C 0.1634 0.3344 0.14605 0.0
C283 C 0.17627 0.33684 0.13244 0.0
C284 C 0.19319 0.33815 0.13804 0.0
C285 C 0.19753 0.33753 0.1574 0.0
C286 C 0.18466 0.33488 0.17111 0.0
C287 C 0.16742 0.33306 0.16537 0.0
C288 C 0.14587 0.3334 0.13949 0.0
C289 C 0.14512 0.34999 0.13901 0.0
C290 C 0.13082 0.35025 0.1285 0.0
C291 C 0.11702 0.33392 0.11812 0.0
C292 C 0.11726 0.31705 0.11951 0.0
C293 C 0.13159 0.31682 0.13007 0.0
C294 C 0.17192 0.33803 0.11217 0.0
C295 C 0.17351 0.35467 0.106 0.0
C296 C 0.16816 0.35541 0.08724 0.0
C297 C 0.16128 0.33955 0.0743 0.0
C298 C 0.1601 0.32301 0.08049 0.0
C299 C 0.16537 0.32226 0.09929 0.0
C300 C 0.20672 0.34096 0.12368 0.0
C301 C 0.21726 0.35857 0.11646 0.0
C302 C 0.23012 0.36125 0.10309 0.0
C303 C 0.23282 0.34638 0.09681 0.0
C304 C 0.22204 0.3287 0.10406 0.0
C305 C 0.20902 0.32599 0.11721 0.0
C306 C 0.21623 0.34125 0.16352 0.0
C307 C 0.22971 0.35923 0.17099 0.0
C308 C 0.24723 0.36276 0.17718 0.0
C309 C 0.25156 0.34833 0.17598 0.0
C310 C 0.23798 0.33032 0.16845 0.0
C311 C 0.22046 0.32682 0.16229 0.0
C312 C 0.18999 0.33539 0.19163 0.0
C313 C 0.1926 0.35032 0.20416 0.0
C314 C 0.20026 0.3525 0.22266 0.0
C315 C 0.20595 0.34006 0.22893 0.0
C316 C 0.20238 0.32454 0.21659 0.0
C317 C 0.19428 0.32212 0.19823 0.0
C318 C 0.15347 0.32903 0.17956 0.0
C319 C 0.14918 0.34273 0.18569 0.0
C320 C 0.13693 0.33922 0.19995 0.0
C321 C 0.12886 0.32199 0.20851 0.0
C322 C 0.13316 0.30828 0.2022 0.0
C323 C 0.14532 0.31177 0.18787 0.0
C324 C 0.15521 0.34027 0.05451 0.0
C325 C 0.27013 0.35197 0.18262 0.0
H326 H 0.65669 0.80078 0.03796 0.0
H327 H 0.67936 0.94707 0.21251 0.0
H328 H 0.65048 0.79661 0.15242 0.0
H329 H 0.64497 0.76801 0.13454 0.0
H330 H 0.70115 0.79663 0.1183 0.0
H331 H 0.70666 0.82549 0.13632 0.0
H332 H 0.64851 0.81148 0.11866 0.0
H333 H 0.64684 0.80236 0.08494 0.0
H334 H 0.70031 0.85141 0.0798 0.0
H335 H 0.70198 0.86016 0.11371 0.0
H336 H 0.64344 0.84052 0.12337 0.0
H337 H 0.63223 0.85441 0.10108 0.0
H338 H 0.67956 0.90921 0.1178 0.0
H339 H 0.6921 0.89436 0.13769 0.0
H340 H 0.64589 0.86104 0.1705 0.0
H341 H 0.64056 0.88521 0.18526 0.0
H342 H 0.69948 0.92346 0.19184 0.0
H343 H 0.70458 0.89925 0.17685 0.0
H344 H 0.65827 0.84348 0.2049 0.0
H345 H 0.66252 0.859 0.23656 0.0
H346 H 0.72048 0.89503 0.22845 0.0
H347 H 0.71612 0.87897 0.19711 0.0
H348 H 0.65894 0.80448 0.18612 0.0
H349 H 0.6644 0.78663 0.20947 0.0
H350 H 0.72228 0.82922 0.21502 0.0
H351 H 0.71677 0.84605 0.19037 0.0
O352 O 0.65764 0.80468 0.0513 0.0
O353 O 0.68499 0.8303 0.04931 0.0
O354 O 0.65086 0.91755 0.20166 0.0
O355 O 0.68105 0.93747 0.20607 0.0
C356 C 0.68052 0.83113 0.15265 0.0
C357 C 0.67699 0.84155 0.13938 0.0
C358 C 0.67541 0.8572 0.14573 0.0
C359 C 0.67872 0.86314 0.16529 0.0
C360 C 0.68357 0.85353 0.17836 0.0
C361 C 0.68399 0.83723 0.17216 0.0
C362 C 0.67904 0.81306 0.14592 0.0
C363 C 0.66187 0.79653 0.14574 0.0
C364 C 0.65867 0.78028 0.13535 0.0
C365 C 0.67264 0.78023 0.12506 0.0
C366 C 0.69025 0.79636 0.12628 0.0
C367 C 0.69341 0.81276 0.13658 0.0
C368 C 0.67548 0.83635 0.11869 0.0
C369 C 0.65994 0.82013 0.11029 0.0
C370 C 0.65897 0.81501 0.09098 0.0
C371 C 0.67347 0.82612 0.07967 0.0
C372 C 0.68892 0.84252 0.08811 0.0
C373 C 0.68989 0.84758 0.10745 0.0
C374 C 0.66874 0.86628 0.13215 0.0
C375 C 0.65173 0.85544 0.12176 0.0
C376 C 0.64504 0.86365 0.1093 0.0
C377 C 0.6546 0.88324 0.10766 0.0
C378 C 0.67171 0.89411 0.11821 0.0
C379 C 0.67883 0.88567 0.12999 0.0
C380 C 0.6756 0.87842 0.17262 0.0
C381 C 0.6576 0.87474 0.17492 0.0
C382 C 0.65461 0.88853 0.18344 0.0
C383 C 0.66961 0.90624 0.18983 0.0
C384 C 0.68763 0.90997 0.18715 0.0
C385 C 0.69059 0.89618 0.17857 0.0
C386 C 0.6869 0.86008 0.19879 0.0
C387 C 0.67197 0.85434 0.21025 0.0
C388 C 0.6744 0.86342 0.22821 0.0
C389 C 0.6918 0.87849 0.23496 0.0
C390 C 0.70693 0.88341 0.22382 0.0
C391 C 0.70449 0.87425 0.2059 0.0
C392 C 0.68751 0.82635 0.18624 0.0
C393 C 0.67287 0.80968 0.19204 0.0
C394 C 0.67601 0.79968 0.20571 0.0
C395 C 0.69382 0.80642 0.21433 0.0
C396 C 0.70845 0.8233 0.20852 0.0
C397 C 0.70533 0.83307 0.19453 0.0
C398 C 0.67245 0.82057 0.05918 0.0
C399 C 0.66653 0.92072 0.19949 0.0
H400 H 0.16061 0.82918 0.03749 0.0
H401 H 0.29152 0.95531 0.2119 0.0
H402 H 0.13784 0.83285 0.13251 0.0
H403 H 0.1177 0.80251 0.11468 0.0
H404 H 0.14614 0.77857 0.14422 0.0
H405 H 0.16646 0.80893 0.16145 0.0
H406 H 0.16546 0.86246 0.11394 0.0
H407 H 0.16098 0.85151 0.08032 0.0
H408 H 0.18794 0.81974 0.09251 0.0
H409 H 0.1924 0.83091 0.12606 0.0
H410 H 0.19609 0.8939 0.12427 0.0
H411 H 0.21909 0.91211 0.10197 0.0
H412 H 0.25427 0.89202 0.12421 0.0
H413 H 0.23073 0.87315 0.14569 0.0
H414 H 0.20671 0.91112 0.16904 0.0
H415 H 0.23423 0.94038 0.18135 0.0
H416 H 0.25999 0.9087 0.19856 0.0
H417 H 0.23246 0.87962 0.18603 0.0
H418 H 0.18259 0.88704 0.20672 0.0
H419 H 0.19231 0.89449 0.24084 0.0
H420 H 0.21509 0.8577 0.2374 0.0
H421 H 0.2053 0.85036 0.2037 0.0
H422 H 0.13931 0.84599 0.17969 0.0
H423 H 0.11663 0.82915 0.20275 0.0
H424 H 0.15034 0.80686 0.22373 0.0
H425 H 0.17232 0.82291 0.19988 0.0
O426 O 0.16264 0.83344 0.05082 0.0
O427 O 0.17658 0.81734 0.05784 0.0
O428 O 0.26673 0.95963 0.19753 0.0
O429 O 0.2805 0.94398 0.20683 0.0
C430 C 0.16873 0.84209 0.15543 0.0
C431 C 0.18164 0.8538 0.14276 0.0
C432 C 0.19755 0.87067 0.14972 0.0
C433 C 0.20079 0.87566 0.16944 0.0
C434 C 0.18812 0.86385 0.18216 0.0
C435 C 0.17181 0.84731 0.17513 0.0
C436 C 0.15369 0.82311 0.14819 0.0
C437 C 0.1394 0.82091 0.13542 0.0
C438 C 0.1279 0.80358 0.12528 0.0
C439 C 0.13058 0.78826 0.12781 0.0
C440 C 0.14399 0.79022 0.14169 0.0
C441 C 0.15546 0.80749 0.15174 0.0
C442 C 0.17932 0.84753 0.12233 0.0
C443 C 0.17048 0.85324 0.10926 0.0
C444 C 0.1679 0.84692 0.0901 0.0
C445 C 0.1741 0.83475 0.08372 0.0
C446 C 0.18301 0.82911 0.09693 0.0
C447 C 0.1856 0.83548 0.11608 0.0
C448 C 0.21173 0.88218 0.13654 0.0
C449 C 0.20872 0.89336 0.12419 0.0
C450 C 0.22198 0.90388 0.11158 0.0
C451 C 0.2386 0.90357 0.11123 0.0
C452 C 0.24154 0.89238 0.12379 0.0
C453 C 0.2282 0.88174 0.13624 0.0
C454 C 0.21758 0.8933 0.1768 0.0
C455 C 0.21833 0.91057 0.17547 0.0
C456 C 0.23405 0.92723 0.18252 0.0
C457 C 0.2493 0.92687 0.19101 0.0
C458 C 0.24849 0.90949 0.19218 0.0
C459 C 0.23277 0.89285 0.18509 0.0
C460 C 0.19296 0.8679 0.20289 0.0
C461 C 0.1895 0.88049 0.21348 0.0
C462 C 0.19516 0.8848 0.23287 0.0
C463 C 0.20427 0.87651 0.24187 0.0
C464 C 0.20773 0.86399 0.23105 0.0
C465 C 0.20218 0.85979 0.21179 0.0
C466 C 0.15761 0.83593 0.18832 0.0
C467 C 0.14166 0.83729 0.18916 0.0
C468 C 0.1288 0.82779 0.20248 0.0
C469 C 0.13171 0.81679 0.21534 0.0
C470 C 0.14751 0.81504 0.21402 0.0
C471 C 0.16024 0.82441 0.20054 0.0
C472 C 0.17122 0.82796 0.06338 0.0
C473 C 0.26599 0.94451 0.19862 0.0
H474 H 0.3254 0.17683 0.02675 0.0
H475 H 0.34589 0.06408 0.8554 0.0
H476 H 0.30817 0.18367 0.92694 0.0
H477 H 0.31861 0.21452 0.94366 0.0
H478 H 0.3726 0.23509 0.92245 0.0
H479 H 0.3624 0.20429 0.90679 0.0
H480 H 0.30427 0.14598 0.94776 0.0
H481 H 0.3078 0.15505 0.98181 0.0
H482 H 0.3651 0.19625 0.97633 0.0
H483 H 0.36143 0.18685 0.94237 0.0
H484 H 0.30407 0.10873 0.92711 0.0
H485 H 0.31015 0.08932 0.94804 0.0
H486 H 0.36718 0.13363 0.95692 0.0
H487 H 0.36111 0.15235 0.93507 0.0
H488 H 0.29808 0.10222 0.88993 0.0
H489 H 0.29889 0.07461 0.87697 0.0
H490 H 0.35793 0.10869 0.87361 0.0
H491 H 0.3569 0.13612 0.88674 0.0
H492 H 0.2988 0.12228 0.85836 0.0
H493 H 0.30367 0.10894 0.8289 0.0
H494 H 0.36029 0.15428 0.8319 0.0
H495 H 0.35558 0.16681 0.86171 0.0
H496 H 0.29672 0.16549 0.87241 0.0
H497 H 0.29536 0.18713 0.85033 0.0
H498 H 0.35486 0.21824 0.852 0.0
H499 H 0.3561 0.1964 0.87352 0.0
O500 O 0.32433 0.17341 0.01328 0.0
O501 O 0.35368 0.19445 0.00968 0.0
O502 O 0.31492 0.05762 0.86342 0.0
O503 O 0.34521 0.07466 0.8609 0.0
C504 C 0.32977 0.17252 0.90858 0.0
C505 C 0.33018 0.1604 0.92194 0.0
C506 C 0.32889 0.14325 0.91569 0.0
C507 C 0.32679 0.13804 0.89606 0.0
C508 C 0.32599 0.14993 0.88264 0.0
C509 C 0.32736 0.16712 0.88889 0.0
C510 C 0.33443 0.19182 0.91532 0.0
C511 C 0.3221 0.19503 0.92555 0.0
C512 C 0.32808 0.21262 0.93509 0.0
C513 C 0.3465 0.22717 0.93456 0.0
C514 C 0.35841 0.22411 0.92339 0.0
C515 C 0.3525 0.2066 0.91407 0.0
C516 C 0.33253 0.16589 0.94261 0.0
C517 C 0.31757 0.15694 0.95397 0.0
C518 C 0.31962 0.16217 0.97339 0.0
C519 C 0.33672 0.17643 0.98178 0.0
C520 C 0.35173 0.18526 0.97032 0.0
C521 C 0.34966 0.17998 0.95091 0.0
C522 C 0.33215 0.13192 0.92951 0.0
C523 C 0.31786 0.11418 0.93356 0.0
C524 C 0.32137 0.10319 0.9457 0.0
C525 C 0.3392 0.10984 0.95422 0.0
C526 C 0.35336 0.12785 0.9504 0.0
C527 C 0.34988 0.1387 0.93808 0.0
C528 C 0.32744 0.12107 0.88937 0.0
C529 C 0.31118 0.10361 0.8866 0.0
C530 C 0.31169 0.0879 0.87911 0.0
C531 C 0.32849 0.08945 0.87422 0.0
C532 C 0.34478 0.107 0.87722 0.0
C533 C 0.34425 0.12266 0.88477 0.0
C534 C 0.32684 0.14551 0.8622 0.0
C535 C 0.31206 0.12965 0.85227 0.0
C536 C 0.31488 0.12204 0.83545 0.0
C537 C 0.33249 0.13033 0.82831 0.0
C538 C 0.34668 0.14732 0.83728 0.0
C539 C 0.34392 0.15474 0.85415 0.0
C540 C 0.32652 0.1796 0.87484 0.0
C541 C 0.30943 0.17692 0.86787 0.0
C542 C 0.30866 0.1892 0.85526 0.0
C543 C 0.32501 0.20446 0.84968 0.0
C544 C 0.34206 0.20677 0.85633 0.0
C545 C 0.3428 0.19435 0.86865 0.0
C546 C 0.33883 0.18202 1.0024 0.0
C547 C 0.32905 0.07292 0.86588 0.0
H548 H 0.81745 0.18131 0.03608 0.0
H549 H 0.74935 0.02271 0.88159 0.0
H550 H 0.82747 0.18862 0.93674 0.0
H551 H 0.84787 0.21935 0.95248 0.0
H552 H 0.89497 0.21349 0.93996 0.0
H553 H 0.87396 0.18166 0.92584 0.0
H554 H 0.79942 0.15604 0.95547 0.0
H555 H 0.802 0.1664 0.989 0.0
H556 H 0.85495 0.1696 0.99581 0.0
H557 H 0.85206 0.15895 0.9623 0.0
H558 H 0.77312 0.11848 0.92715 0.0
H559 H 0.75083 0.10104 0.95038 0.0
H560 H 0.794 0.10095 0.98537 0.0
H561 H 0.81613 0.11753 0.96155 0.0
H562 H 0.77665 0.11408 0.88875 0.0
H563 H 0.75413 0.08198 0.87663 0.0
H564 H 0.78722 0.06192 0.90414 0.0
H565 H 0.80975 0.09416 0.91596 0.0
H566 H 0.80135 0.14565 0.87122 0.0
H567 H 0.79119 0.1317 0.83887 0.0
H568 H 0.82404 0.10486 0.84453 0.0
H569 H 0.83294 0.11791 0.87752 0.0
H570 H 0.83379 0.18642 0.88928 0.0
H571 H 0.85465 0.20818 0.86737 0.0
H572 H 0.88516 0.17867 0.86697 0.0
H573 H 0.86371 0.15657 0.88836 0.0
O574 O 0.81669 0.17716 0.02286 0.0
O575 O 0.84392 0.17873 0.02557 0.0
O576 O 0.74156 0.04658 0.87229 0.0
O577 O 0.75803 0.03554 0.8862 0.0
C578 C 0.83605 0.16289 0.92335 0.0
C579 C 0.82391 0.15029 0.93609 0.0
C580 C 0.81015 0.13185 0.92943 0.0
C581 C 0.80882 0.12596 0.91004 0.0
C582 C 0.82091 0.1385 0.89731 0.0
C583 C 0.83467 0.15689 0.90396 0.0
C584 C 0.84915 0.18276 0.9303 0.0
C585 C 0.8422 0.19396 0.9374 0.0
C586 C 0.85403 0.21175 0.94622 0.0
C587 C 0.87328 0.21921 0.94756 0.0
C588 C 0.88028 0.20821 0.93961 0.0
C589 C 0.8683 0.1901 0.93122 0.0
C590 C 0.82549 0.15663 0.95649 0.0
C591 C 0.8115 0.15887 0.96426 0.0
C592 C 0.81305 0.16485 0.9834 0.0
C593 C 0.82868 0.16881 0.9951 0.0
C594 C 0.84272 0.16664 0.98721 0.0
C595 C 0.84112 0.16059 0.96808 0.0
C596 C 0.79631 0.11926 0.94253 0.0
C597 C 0.77769 0.11416 0.93949 0.0
C598 C 0.76498 0.10429 0.95281 0.0
C599 C 0.77073 0.09971 0.96966 0.0
C600 C 0.78925 0.10437 0.97251 0.0
C601 C 0.80187 0.11382 0.95893 0.0
C602 C 0.7949 0.10643 0.90308 0.0
C603 C 0.77906 0.10275 0.89202 0.0
C604 C 0.76619 0.08439 0.88519 0.0
C605 C 0.7689 0.06937 0.88938 0.0
C606 C 0.78472 0.07315 0.90062 0.0
C607 C 0.7976 0.09153 0.90741 0.0
C608 C 0.81782 0.13275 0.87668 0.0
C609 C 0.80656 0.13699 0.86532 0.0
C610 C 0.80084 0.12902 0.84672 0.0
C611 C 0.80664 0.11694 0.83888 0.0
C612 C 0.81886 0.11365 0.8501 0.0
C613 C 0.82422 0.12132 0.86889 0.0
C614 C 0.84728 0.16998 0.89047 0.0
C615 C 0.84496 0.18466 0.8844 0.0
C616 C 0.85702 0.19717 0.87197 0.0
C617 C 0.87179 0.19536 0.86545 0.0
C618 C 0.87389 0.18043 0.87146 0.0
C619 C 0.86171 0.16784 0.88379 0.0
C620 C 0.83029 0.1752 0.01543 0.0
C621 C 0.7553 0.04985 0.88208 0.0
H622 H 0.85828 0.66565 0.04531 0.0
H623 H 0.71398 0.64694 0.89367 0.0
H624 H 0.87514 0.69263 0.94208 0.0
H625 H 0.90091 0.69155 0.95763 0.0
H626 H 0.87124 0.63101 0.94687 0.0
H627 H 0.84666 0.63275 0.92951 0.0
H628 H 0.84412 0.68654 0.9711 0.0
H629 H 0.85192 0.68328 1.00393 0.0
H630 H 0.83128 0.62414 0.99026 0.0
H631 H 0.82351 0.62762 0.95751 0.0
H632 H 0.80315 0.6827 0.95565 0.0
H633 H 0.78113 0.6752 0.98042 0.0
H634 H 0.76829 0.6174 0.97513 0.0
H635 H 0.7903 0.62506 0.95061 0.0
H636 H 0.80555 0.69238 0.90996 0.0
H637 H 0.77734 0.69291 0.90119 0.0
H638 H 0.74523 0.63307 0.90689 0.0
H639 H 0.77357 0.63271 0.91542 0.0
H640 H 0.84028 0.69741 0.88549 0.0
H641 H 0.83175 0.70357 0.85431 0.0
H642 H 0.78426 0.64741 0.8487 0.0
H643 H 0.79375 0.64104 0.87918 0.0
H644 H 0.87318 0.69614 0.90832 0.0
H645 H 0.8951 0.7024 0.88417 0.0
H646 H 0.8551 0.651 0.85201 0.0
H647 H 0.83402 0.64406 0.8773 0.0
O648 O 0.85497 0.6666 0.03229 0.0
O649 O 0.84414 0.63626 0.02455 0.0
O650 O 0.74249 0.67787 0.89434 0.0
O651 O 0.72534 0.64714 0.89713 0.0
C652 C 0.84212 0.66302 0.92835 0.0
C653 C 0.82907 0.65957 0.94204 0.0
C654 C 0.81235 0.65896 0.93703 0.0
C655 C 0.8088 0.66225 0.91832 0.0
C656 C 0.82176 0.66562 0.90444 0.0
C657 C 0.83851 0.66601 0.90945 0.0
C658 C 0.85921 0.66284 0.93425 0.0
C659 C 0.87467 0.67927 0.94232 0.0
C660 C 0.8892 0.6785 0.95171 0.0
C661 C 0.88825 0.66113 0.95404 0.0
C662 C 0.8729 0.64474 0.94526 0.0
C663 C 0.8587 0.64565 0.93528 0.0
C664 C 0.8333 0.65733 0.962 0.0
C665 C 0.84125 0.67289 0.97528 0.0
C666 C 0.84571 0.67099 0.99399 0.0
C667 C 0.84226 0.65345 0.99972 0.0
C668 C 0.83414 0.63784 0.98633 0.0
C669 C 0.82969 0.63978 0.96763 0.0
C670 C 0.79844 0.65446 0.95145 0.0
C671 C 0.7955 0.66842 0.95983 0.0
C672 C 0.78288 0.66409 0.97392 0.0
C673 C 0.77308 0.64574 0.97993 0.0
C674 C 0.77586 0.63176 0.97116 0.0
C675 C 0.78838 0.63608 0.95708 0.0
C676 C 0.79158 0.66252 0.91335 0.0
C677 C 0.7924 0.67941 0.9093 0.0
C678 C 0.77627 0.67967 0.90431 0.0
C679 C 0.75901 0.66302 0.90335 0.0
C680 C 0.75827 0.64614 0.90751 0.0
C681 C 0.77442 0.6459 0.91245 0.0
C682 C 0.81759 0.66881 0.8847 0.0
C683 C 0.82827 0.68633 0.87731 0.0
C684 C 0.82319 0.68988 0.85956 0.0
C685 C 0.80712 0.6761 0.84896 0.0
C686 C 0.79682 0.65835 0.85622 0.0
C687 C 0.80211 0.65471 0.87378 0.0
C688 C 0.85209 0.66944 0.89487 0.0
C689 C 0.86938 0.68593 0.89637 0.0
C690 C 0.88178 0.68969 0.88223 0.0
C691 C 0.87699 0.67731 0.86587 0.0
C692 C 0.85958 0.66076 0.86444 0.0
C693 C 0.84736 0.65681 0.87885 0.0
C694 C 0.84714 0.65151 0.01957 0.0
C695 C 0.74184 0.6632 0.898 0.0
H696 H 0.8308 0.70134 0.37581 0.0
H697 H 0.94733 0.66153 0.52673 0.0
H698 H 0.83307 0.70509 0.49088 0.0
H699 H 0.81372 0.71409 0.47304 0.0
H700 H 0.78299 0.65813 0.44545 0.0
H701 H 0.80196 0.64892 0.46429 0.0
H702 H 0.85189 0.70595 0.45655 0.0
H703 H 0.84496 0.70965 0.42361 0.0
H704 H 0.82729 0.65127 0.40917 0.0
H705 H 0.83399 0.64771 0.44228 0.0
H706 H 0.88623 0.70515 0.46181 0.0
H707 H 0.90846 0.70922 0.43841 0.0
H708 H 0.89186 0.65043 0.43955 0.0
H709 H 0.86886 0.64636 0.46199 0.0
H710 H 0.89713 0.70252 0.51139 0.0
H711 H 0.92621 0.70484 0.52261 0.0
H712 H 0.9028 0.64538 0.50811 0.0
H713 H 0.87379 0.64327 0.49709 0.0
H714 H 0.86151 0.69811 0.53759 0.0
H715 H 0.87477 0.70184 0.56984 0.0
H716 H 0.87134 0.64787 0.5614 0.0
H717 H 0.85665 0.64365 0.52958 0.0
H718 H 0.83016 0.69651 0.52237 0.0
H719 H 0.80825 0.6913 0.54643 0.0
H720 H 0.79261 0.63262 0.54444 0.0
H721 H 0.81372 0.63784 0.51947 0.0
O722 O 0.83361 0.6996 0.38872 0.0
O723 O 0.82519 0.66967 0.38189 0.0
O724 O 0.94741 0.69155 0.52954 0.0
O725 O 0.93603 0.66104 0.52232 0.0
C726 C 0.83397 0.67299 0.48548 0.0
C727 C 0.84652 0.67406 0.472 0.0
C728 C 0.8623 0.67311 0.47771 0.0
C729 C 0.86577 0.67144 0.49702 0.0
C730 C 0.8532 0.67016 0.51056 0.0
C731 C 0.83708 0.67057 0.50473 0.0
C732 C 0.81873 0.67623 0.47925 0.0
C733 C 0.82148 0.69442 0.48189 0.0
C734 C 0.81066 0.69967 0.47129 0.0
C735 C 0.79708 0.68694 0.45752 0.0
C736 C 0.79329 0.66825 0.45599 0.0
C737 C 0.80406 0.66293 0.4668 0.0
C738 C 0.84329 0.67653 0.45178 0.0
C739 C 0.84649 0.69398 0.44624 0.0
C740 C 0.84255 0.69606 0.42742 0.0
C741 C 0.83551 0.68073 0.41376 0.0
C742 C 0.83265 0.66334 0.41934 0.0
C743 C 0.83651 0.66127 0.4382 0.0
C744 C 0.876 0.67549 0.46368 0.0
C745 C 0.88736 0.69315 0.45688 0.0
C746 C 0.90019 0.69547 0.44362 0.0
C747 C 0.90212 0.68018 0.43705 0.0
C748 C 0.89065 0.66248 0.44398 0.0
C749 C 0.87763 0.66015 0.45703 0.0
C750 C 0.88346 0.67277 0.50334 0.0
C751 C 0.89837 0.69005 0.5106 0.0
C752 C 0.91493 0.69132 0.51701 0.0
C753 C 0.91684 0.67529 0.51623 0.0
C754 C 0.90182 0.65799 0.50888 0.0
C755 C 0.88526 0.65675 0.5025 0.0
C756 C 0.85822 0.67067 0.53113 0.0
C757 C 0.86304 0.68681 0.54291 0.0
C758 C 0.87094 0.68904 0.56127 0.0
C759 C 0.87462 0.67539 0.56813 0.0
C760 C 0.86872 0.65869 0.55668 0.0
C761 C 0.86045 0.6563 0.53841 0.0
C762 C 0.82317 0.66745 0.51872 0.0
C763 C 0.82157 0.68242 0.52667 0.0
C764 C 0.80927 0.67946 0.54076 0.0
C765 C 0.79855 0.6615 0.54746 0.0
C766 C 0.80028 0.64655 0.53942 0.0
C767 C 0.81242 0.64951 0.52519 0.0
C768 C 0.83112 0.68293 0.39382 0.0
C769 C 0.93437 0.67653 0.52311 0.0
H770 H 0.29098 0.13646 0.38085 0.0
H771 H 0.38527 0.30546 0.5231 0.0
H772 H 0.30693 0.13792 0.48282 0.0
H773 H 0.2954 0.10533 0.47188 0.0
H774 H 0.35102 0.1148 0.47659 0.0
H775 H 0.36255 0.14793 0.48646 0.0
H776 H 0.30734 0.16836 0.45955 0.0
H777 H 0.29569 0.15508 0.42698 0.0
H778 H 0.34558 0.15331 0.41837 0.0
H779 H 0.35717 0.16682 0.4509 0.0
H780 H 0.32013 0.20804 0.48446 0.0
H781 H 0.31484 0.22677 0.46178 0.0
H782 H 0.35506 0.2254 0.42642 0.0
H783 H 0.36122 0.2076 0.44977 0.0
H784 H 0.33123 0.21264 0.52509 0.0
H785 H 0.33841 0.24444 0.53537 0.0
H786 H 0.38607 0.26726 0.50181 0.0
H787 H 0.3789 0.23536 0.49187 0.0
H788 H 0.32984 0.17848 0.54414 0.0
H789 H 0.33467 0.19304 0.57616 0.0
H790 H 0.38939 0.23605 0.56365 0.0
H791 H 0.38485 0.22042 0.53201 0.0
H792 H 0.32375 0.14674 0.53155 0.0
H793 H 0.32942 0.1297 0.55577 0.0
H794 H 0.38643 0.15545 0.5416 0.0
H795 H 0.38081 0.17363 0.51873 0.0
O796 O 0.29589 0.14178 0.39367 0.0
O797 O 0.32176 0.14108 0.39 0.0
O798 O 0.35755 0.28027 0.53641 0.0
O799 O 0.38213 0.29272 0.51926 0.0
C800 C 0.34224 0.16546 0.49082 0.0
C801 C 0.34016 0.17663 0.47736 0.0
C802 C 0.34432 0.19514 0.48286 0.0
C803 C 0.35047 0.20237 0.50192 0.0
C804 C 0.35258 0.19121 0.51539 0.0
C805 C 0.34882 0.1729 0.50972 0.0
C806 C 0.33556 0.1453 0.48549 0.0
C807 C 0.31663 0.13296 0.48151 0.0
C808 C 0.31006 0.11424 0.47541 0.0
C809 C 0.32224 0.10727 0.47348 0.0
C810 C 0.34125 0.11967 0.47772 0.0
C811 C 0.34786 0.13856 0.4836 0.0
C812 C 0.33314 0.16865 0.45753 0.0
C813 C 0.31578 0.16521 0.45056 0.0
C814 C 0.30913 0.15756 0.43197 0.0
C815 C 0.31971 0.15314 0.42006 0.0
C816 C 0.33709 0.15656 0.42715 0.0
C817 C 0.34373 0.16426 0.44573 0.0
C818 C 0.34122 0.20657 0.46895 0.0
C819 C 0.32811 0.21209 0.47205 0.0
C820 C 0.32504 0.22271 0.45908 0.0
C821 C 0.33461 0.22753 0.44247 0.0
C822 C 0.34755 0.22184 0.43918 0.0
C823 C 0.35101 0.21165 0.45244 0.0
C824 C 0.35462 0.22171 0.50784 0.0
C825 C 0.34327 0.22453 0.52006 0.0
C826 C 0.34737 0.2427 0.52586 0.0
C827 C 0.36284 0.2584 0.51943 0.0
C828 C 0.37408 0.25549 0.50705 0.0
C829 C 0.37 0.2373 0.50132 0.0
C830 C 0.35704 0.19824 0.53576 0.0
C831 C 0.34316 0.19057 0.54857 0.0
C832 C 0.34582 0.1992 0.56677 0.0
C833 C 0.36229 0.21598 0.57243 0.0
C834 C 0.37658 0.22309 0.55989 0.0
C835 C 0.37401 0.21421 0.54176 0.0
C836 C 0.35193 0.1616 0.52361 0.0
C837 C 0.33748 0.14876 0.53386 0.0
C838 C 0.34076 0.13883 0.54757 0.0
C839 C 0.35847 0.14111 0.5509 0.0
C840 C 0.37274 0.1536 0.53999 0.0
C841 C 0.36954 0.16391 0.52671 0.0
C842 C 0.31259 0.14497 0.40034 0.0
C843 C 0.36728 0.27775 0.52559 0.0
H844 H 0.82051 0.15517 0.36905 0.0
H845 H 0.96951 0.2785 0.52179 0.0
H846 H 0.8044 0.16302 0.46664 0.0
H847 H 0.77823 0.13176 0.45646 0.0
H848 H 0.80489 0.10642 0.48686 0.0
H849 H 0.83047 0.13746 0.49722 0.0
H850 H 0.83913 0.1952 0.44428 0.0
H851 H 0.83067 0.18274 0.41107 0.0
H852 H 0.83763 0.13588 0.42451 0.0
H853 H 0.84627 0.14862 0.45762 0.0
H854 H 0.87699 0.23002 0.46244 0.0
H855 H 0.89946 0.24355 0.43818 0.0
H856 H 0.90735 0.19557 0.43818 0.0
H857 H 0.88461 0.18207 0.46184 0.0
H858 H 0.87785 0.23823 0.51057 0.0
H859 H 0.90793 0.26591 0.51989 0.0
H860 H 0.9345 0.23387 0.50615 0.0
H861 H 0.90433 0.20627 0.49709 0.0
H862 H 0.8489 0.21254 0.53863 0.0
H863 H 0.85965 0.22 0.57254 0.0
H864 H 0.89381 0.19516 0.56412 0.0
H865 H 0.88315 0.18788 0.53054 0.0
H866 H 0.8084 0.17696 0.51126 0.0
H867 H 0.78659 0.16196 0.5356 0.0
H868 H 0.82255 0.14396 0.56037 0.0
H869 H 0.84381 0.15827 0.53545 0.0
O870 O 0.82397 0.15988 0.38223 0.0
O871 O 0.8276 0.136 0.38992 0.0
O872 O 0.94311 0.28362 0.5251 0.0
O873 O 0.95744 0.26779 0.51818 0.0
C874 C 0.836 0.1711 0.4877 0.0
C875 C 0.84821 0.18035 0.47347 0.0
C876 C 0.86551 0.19658 0.47842 0.0
C877 C 0.87062 0.20355 0.49763 0.0
C878 C 0.8585 0.19425 0.5119 0.0
C879 C 0.84099 0.17827 0.50689 0.0
C880 C 0.81923 0.15249 0.48283 0.0
C881 C 0.80436 0.15066 0.4713 0.0
C882 C 0.78952 0.1328 0.46538 0.0
C883 C 0.78937 0.11652 0.47089 0.0
C884 C 0.80426 0.11856 0.48267 0.0
C885 C 0.81896 0.13633 0.4886 0.0
C886 C 0.84316 0.17273 0.45334 0.0
C887 C 0.83883 0.18226 0.43999 0.0
C888 C 0.83399 0.1751 0.42105 0.0
C889 C 0.83341 0.15828 0.41514 0.0
C890 C 0.83788 0.14884 0.42859 0.0
C891 C 0.84277 0.15604 0.44751 0.0
C892 C 0.87907 0.205 0.46374 0.0
C893 C 0.88355 0.22246 0.45707 0.0
C894 C 0.89646 0.23019 0.4433 0.0
C895 C 0.90513 0.22059 0.43606 0.0
C896 C 0.90066 0.20317 0.44303 0.0
C897 C 0.88773 0.19545 0.45665 0.0
C898 C 0.88895 0.22033 0.50299 0.0
C899 C 0.8902 0.23725 0.50956 0.0
C900 C 0.90739 0.25302 0.51487 0.0
C901 C 0.92364 0.25212 0.51371 0.0
C902 C 0.92229 0.23508 0.50716 0.0
C903 C 0.90508 0.21931 0.50189 0.0
C904 C 0.86525 0.19966 0.53219 0.0
C905 C 0.85878 0.20885 0.54416 0.0
C906 C 0.86496 0.21313 0.56343 0.0
C907 C 0.87744 0.20801 0.57093 0.0
C908 C 0.88402 0.19905 0.55877 0.0
C909 C 0.87804 0.19499 0.53959 0.0
C910 C 0.82781 0.16893 0.52171 0.0
C911 C 0.8115 0.16971 0.52192 0.0
C912 C 0.79913 0.16124 0.53593 0.0
C913 C 0.80284 0.15184 0.55007 0.0
C914 C 0.81913 0.15091 0.54963 0.0
C915 C 0.83143 0.15928 0.53553 0.0
C916 C 0.82817 0.15066 0.39503 0.0
C917 C 0.94194 0.26882 0.51935 0.0
H918 H 0.98834 0.50879 0.35822 0.0
H919 H 0.00723 0.39603 0.17493 0.0
H920 H 0.97076 0.51438 0.24081 0.0
H921 H 0.97351 0.54346 0.25492 0.0
H922 H 0.02889 0.56096 0.27722 0.0
H923 H 0.02629 0.53244 0.26227 0.0
H924 H 0.97116 0.49054 0.27635 0.0
H925 H 0.97315 0.49737 0.31071 0.0
H926 H 0.02864 0.50649 0.31446 0.0
H927 H 0.02654 0.49984 0.28005 0.0
H928 H 0.97345 0.45189 0.27252 0.0
H929 H 0.97752 0.43123 0.29359 0.0
H930 H 0.0303 0.44761 0.27093 0.0
H931 H 0.02652 0.46891 0.25087 0.0
H932 H 0.96805 0.43476 0.22645 0.0
H933 H 0.96658 0.4068 0.211 0.0
H934 H 0.02233 0.44102 0.19438 0.0
H935 H 0.02371 0.46875 0.21015 0.0
H936 H 0.96841 0.45727 0.18971 0.0
H937 H 0.97258 0.44789 0.15773 0.0
H938 H 0.02949 0.4929 0.16296 0.0
H939 H 0.02488 0.50247 0.19446 0.0
H940 H 0.96662 0.49365 0.19841 0.0
H941 H 0.96513 0.51546 0.1769 0.0
H942 H 0.0213 0.55712 0.19554 0.0
H943 H 0.02252 0.53532 0.2171 0.0
O944 O 0.98784 0.50611 0.34465 0.0
O945 O 0.01628 0.51053 0.34583 0.0
O946 O 0.97942 0.38953 0.1915 0.0
O947 O 0.00765 0.40672 0.18169 0.0
C948 C 0.99665 0.50345 0.24248 0.0
C949 C 0.99746 0.49074 0.25482 0.0
C950 C 0.99737 0.47451 0.24727 0.0
C951 C 0.9962 0.47088 0.22738 0.0
C952 C 0.99533 0.48352 0.21505 0.0
C953 C 0.99541 0.49973 0.22255 0.0
C954 C 0.99829 0.52125 0.25057 0.0
C955 C 0.98352 0.52462 0.24859 0.0
C956 C 0.98508 0.54117 0.25682 0.0
C957 C 1.00142 0.5546 0.26727 0.0
C958 C 0.01621 0.55115 0.26905 0.0
C959 C 0.01469 0.53474 0.26068 0.0
C960 C 0.99867 0.49461 0.27574 0.0
C961 C 0.98373 0.49402 0.28463 0.0
C962 C 0.9849 0.49791 0.30425 0.0
C963 C 1.00104 0.50245 0.31534 0.0
C964 C 0.01599 0.50301 0.30635 0.0
C965 C 0.01481 0.49916 0.28672 0.0
C966 C 0.99965 0.46185 0.26009 0.0
C967 C 0.98593 0.45109 0.27227 0.0
C968 C 0.98824 0.43918 0.28418 0.0
C969 C 0.00425 0.4377 0.28402 0.0
C970 C 0.01794 0.44858 0.27176 0.0
C971 C 0.01571 0.4606 0.26006 0.0
C972 C 0.99593 0.45377 0.21931 0.0
C973 C 0.97998 0.43613 0.21964 0.0
C974 C 0.97916 0.42021 0.21074 0.0
C975 C 0.9943 0.4217 0.20132 0.0
C976 C 0.0104 0.43938 0.2014 0.0
C977 C 0.01123 0.45525 0.2104 0.0
C978 C 0.99635 0.48054 0.19435 0.0
C979 C 0.98157 0.46542 0.18363 0.0
C980 C 0.98408 0.45994 0.16548 0.0
C981 C 1.00146 0.46943 0.15782 0.0
C982 C 0.01586 0.48535 0.16821 0.0
C983 C 0.01327 0.4909 0.18626 0.0
C984 C 0.99462 0.51297 0.20943 0.0
C985 C 0.97858 0.50751 0.19782 0.0
C986 C 0.97778 0.51995 0.18549 0.0
C987 C 0.99305 0.53809 0.18457 0.0
C988 C 0.00916 0.5434 0.19614 0.0
C989 C 0.00994 0.53095 0.20843 0.0
C990 C 1.00225 0.50661 0.33618 0.0
C991 C 0.99328 0.40498 0.19127 0.0
H992 H 0.50249 0.51474 0.37363 0.0
H993 H 0.38768 0.37184 0.21266 0.0
H994 H 0.50788 0.52846 0.27462 0.0
H995 H 0.53549 0.55632 0.2886 0.0
H996 H 0.569 0.53401 0.26765 0.0
H997 H 0.54097 0.50557 0.25451 0.0
H998 H 0.47705 0.5007 0.29322 0.0
H999 H 0.48395 0.5083 0.32748 0.0
H1000 H 0.52429 0.49033 0.32572 0.0
H1001 H 0.51706 0.48255 0.29147 0.0
H1002 H 0.44526 0.47421 0.26636 0.0
H1003 H 0.42231 0.46094 0.2901 0.0
H1004 H 0.44889 0.43156 0.31156 0.0
H1005 H 0.47215 0.44525 0.28789 0.0
H1006 H 0.44376 0.46484 0.22129 0.0
H1007 H 0.41466 0.43743 0.20883 0.0
H1008 H 0.43068 0.40109 0.23557 0.0
H1009 H 0.45983 0.42861 0.24775 0.0
H1010 H 0.47696 0.49263 0.20093 0.0
H1011 H 0.46819 0.4808 0.16751 0.0
H1012 H 0.47472 0.43336 0.17934 0.0
H1013 H 0.48399 0.44561 0.21246 0.0
H1014 H 0.50959 0.52847 0.23217 0.0
H1015 H 0.52926 0.55011 0.20978 0.0
H1016 H 0.54011 0.50752 0.1862 0.0
H1017 H 0.52147 0.4864 0.20992 0.0
O1018 O 0.49992 0.51157 0.36007 0.0
O1019 O 0.52058 0.50225 0.35838 0.0
O1020 O 0.3915 0.40222 0.20392 0.0
O1021 O 0.39906 0.38292 0.21744 0.0
C1022 C 0.50523 0.49749 0.25627 0.0
C1023 C 0.49223 0.48621 0.26911 0.0
C1024 C 0.47521 0.47055 0.2622 0.0
C1025 C 0.47173 0.46533 0.24253 0.0
C1026 C 0.48498 0.47615 0.22966 0.0
C1027 C 0.5015 0.49268 0.23643 0.0
C1028 C 0.52237 0.51488 0.26373 0.0
C1029 C 0.52117 0.52953 0.27315 0.0
C1030 C 0.53703 0.54557 0.28094 0.0
C1031 C 0.55455 0.54749 0.27923 0.0
C1032 C 0.55574 0.5329 0.26947 0.0
C1033 C 0.53977 0.51672 0.2618 0.0
C1034 C 0.49644 0.49091 0.28992 0.0
C1035 C 0.48725 0.49826 0.30029 0.0
C1036 C 0.49128 0.50267 0.31985 0.0
C1037 C 0.50465 0.49989 0.32935 0.0
C1038 C 0.5139 0.49261 0.31885 0.0
C1039 C 0.50981 0.48816 0.2993 0.0
C1040 C 0.46038 0.46072 0.27542 0.0
C1041 C 0.44602 0.46475 0.27604 0.0
C1042 C 0.43301 0.45725 0.28964 0.0
C1043 C 0.43391 0.44532 0.30271 0.0
C1044 C 0.44787 0.44067 0.3016 0.0
C1045 C 0.46113 0.44847 0.28815 0.0
C1046 C 0.4539 0.44869 0.23535 0.0
C1047 C 0.44096 0.45094 0.22439 0.0
C1048 C 0.42435 0.43526 0.21732 0.0
C1049 C 0.42035 0.41705 0.22118 0.0
C1050 C 0.43332 0.41489 0.23232 0.0
C1051 C 0.44995 0.43059 0.23933 0.0
C1052 C 0.48119 0.47002 0.20908 0.0
C1053 C 0.47679 0.47986 0.19618 0.0
C1054 C 0.47161 0.47298 0.17716 0.0
C1055 C 0.4707 0.45609 0.17074 0.0
C1056 C 0.47552 0.44653 0.1837 0.0
C1057 C 0.48073 0.45344 0.20265 0.0
C1058 C 0.51404 0.5058 0.22279 0.0
C1059 C 0.51647 0.52389 0.22242 0.0
C1060 C 0.52755 0.53618 0.20934 0.0
C1061 C 0.53612 0.53056 0.19584 0.0
C1062 C 0.5339 0.51247 0.19642 0.0
C1063 C 0.52307 0.50027 0.20985 0.0
C1064 C 0.50891 0.50462 0.35013 0.0
C1065 C 0.40276 0.40034 0.21364 0.0
H1066 H 0.52872 0.02176 0.37183 0.0
H1067 H 0.38258 0.98201 0.20776 0.0
H1068 H 0.54499 0.02966 0.26045 0.0
H1069 H 0.57042 0.02782 0.27641 0.0
H1070 H 0.53368 0.96853 0.28199 0.0
H1071 H 0.50892 0.97042 0.26513 0.0
H1072 H 0.51542 0.03234 0.29263 0.0
H1073 H 0.52356 0.03364 0.32654 0.0
H1074 H 0.49618 0.97297 0.32356 0.0
H1075 H 0.48813 0.97191 0.2897 0.0
H1076 H 0.47157 0.02783 0.27451 0.0
H1077 H 0.44844 0.02396 0.29673 0.0
H1078 H 0.43645 0.96712 0.30376 0.0
H1079 H 0.45837 0.97073 0.28034 0.0
H1080 H 0.4723 0.03234 0.23506 0.0
H1081 H 0.4438 0.03105 0.22347 0.0
H1082 H 0.41487 0.97048 0.22376 0.0
H1083 H 0.44351 0.972 0.23526 0.0
H1084 H 0.49492 0.0333 0.20902 0.0
H1085 H 0.48502 0.03237 0.17568 0.0
H1086 H 0.46327 0.97235 0.17053 0.0
H1087 H 0.47356 0.97358 0.20365 0.0
H1088 H 0.52689 0.02972 0.2115 0.0
H1089 H 0.5438 0.02658 0.1854 0.0
H1090 H 0.5293 0.9711 0.20159 0.0
H1091 H 0.51137 0.97386 0.22657 0.0
O1092 O 0.52528 0.02092 0.35843 0.0
O1093 O 0.51099 0.98971 0.35615 0.0
O1094 O 0.40954 0.01411 0.2125 0.0
O1095 O 0.39403 0.98294 0.2124 0.0
C1096 C 0.50898 1.0017 0.25482 0.0
C1097 C 0.49669 1.00152 0.26816 0.0
C1098 C 0.4806 0.00173 0.26203 0.0
C1099 C 0.47724 0.00303 0.24258 0.0
C1100 C 0.48974 0.00377 0.22923 0.0
C1101 C 0.50557 0.00288 0.23528 0.0
C1102 C 0.52512 1.00019 0.26169 0.0
C1103 C 0.54265 0.01622 0.26472 0.0
C1104 C 0.55708 0.01516 0.27409 0.0
C1105 C 0.55415 0.99806 0.28077 0.0
C1106 C 0.53667 0.9819 0.27691 0.0
C1107 C 0.52239 0.98295 0.26736 0.0
C1108 C 0.50119 0.00205 0.28877 0.0
C1109 C 0.51116 0.01936 0.29937 0.0
C1110 C 0.5158 0.02005 0.31871 0.0
C1111 C 0.51053 0.0034 0.32777 0.0
C1112 C 0.50046 0.98605 0.31704 0.0
C1113 C 0.49583 0.9854 0.29771 0.0
C1114 C 0.4668 0.99962 0.27589 0.0
C1115 C 0.4638 0.01451 0.28076 0.0
C1116 C 0.45068 0.0123 0.29368 0.0
C1117 C 0.44047 0.99522 0.30227 0.0
C1118 C 0.44367 0.98039 0.29732 0.0
C1119 C 0.45648 0.9825 0.28412 0.0
C1120 C 0.45991 0.00227 0.23593 0.0
C1121 C 0.45978 0.01882 0.23259 0.0
C1122 C 0.44349 0.01804 0.22599 0.0
C1123 C 0.42705 1.00065 0.22266 0.0
C1124 C 0.42727 0.98409 0.22615 0.0
C1125 C 0.44358 0.98491 0.23273 0.0
C1126 C 0.48503 0.00352 0.20868 0.0
C1127 C 0.48817 0.02001 0.20057 0.0
C1128 C 0.48238 0.01942 0.18158 0.0
C1129 C 0.47334 0.00229 0.17037 0.0
C1130 C 0.47045 0.98584 0.17859 0.0
C1131 C 0.47626 0.98647 0.19754 0.0
C1132 C 0.5178 0.002 0.22096 0.0
C1133 C 0.52742 0.01691 0.2094 0.0
C1134 C 0.53724 0.01515 0.19457 0.0
C1135 C 0.53782 0.99849 0.19116 0.0
C1136 C 0.52886 0.98397 0.20342 0.0
C1137 C 0.5188 0.98562 0.21797 0.0
C1138 C 0.51557 0.00419 0.34829 0.0
C1139 C 0.40973 0.99972 0.21556 0.0
H1140 H 0.48691 0.01946 0.70075 0.0
H1141 H 0.61665 0.00934 0.86728 0.0
H1142 H 0.48539 0.02801 0.81719 0.0
H1143 H 0.45958 0.02719 0.79892 0.0
H1144 H 0.4442 0.97216 0.77368 0.0
H1145 H 0.46974 0.97296 0.79231 0.0
H1146 H 0.50757 0.03255 0.7823 0.0
H1147 H 0.49937 0.03223 0.74865 0.0
H1148 H 0.49683 0.97885 0.73836 0.0
H1149 H 0.50475 0.97921 0.77215 0.0
H1150 H 0.54717 0.038 0.78506 0.0
H1151 H 0.57016 0.04203 0.76249 0.0
H1152 H 0.56374 0.98841 0.7755 0.0
H1153 H 0.54034 0.98426 0.7975 0.0
H1154 H 0.56572 0.04097 0.82579 0.0
H1155 H 0.59589 0.04634 0.83757 0.0
H1156 H 0.5701 0.98928 0.85431 0.0
H1157 H 0.54006 0.98402 0.84225 0.0
H1158 H 0.54301 0.03897 0.86033 0.0
H1159 H 0.55572 0.04254 0.89287 0.0
H1160 H 0.52088 0.98287 0.89764 0.0
H1161 H 0.50842 0.97941 0.86471 0.0
H1162 H 0.50301 0.02696 0.86269 0.0
H1163 H 0.4811 0.0198 0.88707 0.0
H1164 H 0.44511 0.96528 0.85776 0.0
H1165 H 0.46802 0.97197 0.83455 0.0
O1166 O 0.4903 0.01936 0.71399 0.0
O1167 O 0.48974 0.99222 0.70931 0.0
O1168 O 0.61755 0.03666 0.85318 0.0
O1169 O 0.60491 0.00754 0.86235 0.0
C1170 C 0.49745 0.00301 0.81338 0.0
C1171 C 0.51084 0.00575 0.80027 0.0
C1172 C 0.52817 0.00843 0.8067 0.0
C1173 C 0.53238 0.00899 0.82633 0.0
C1174 C 0.51927 0.00683 0.83957 0.0
C1175 C 0.50159 0.00347 0.83312 0.0
C1176 C 0.47946 1.00057 0.80606 0.0
C1177 C 0.47607 0.01554 0.80818 0.0
C1178 C 0.46148 0.01515 0.79752 0.0
C1179 C 0.45 0.99974 0.78458 0.0
C1180 C 0.45268 0.9842 0.78354 0.0
C1181 C 0.46727 0.98461 0.7942 0.0
C1182 C 0.50669 0.00588 0.77965 0.0
C1183 C 0.50523 0.0208 0.77275 0.0
C1184 C 0.50056 0.02059 0.75352 0.0
C1185 C 0.49741 0.00549 0.74081 0.0
C1186 C 0.49915 0.99067 0.74776 0.0
C1187 C 0.50373 0.99086 0.76703 0.0
C1188 C 0.54204 0.01081 0.79287 0.0
C1189 C 0.55065 0.02707 0.78289 0.0
C1190 C 0.56389 0.02941 0.77013 0.0
C1191 C 0.56882 0.01554 0.76716 0.0
C1192 C 0.5601 0.99924 0.7772 0.0
C1193 C 0.54683 0.9969 0.7899 0.0
C1194 C 0.55073 0.01211 0.83316 0.0
C1195 C 0.56665 0.02962 0.8319 0.0
C1196 C 0.58385 0.03266 0.83868 0.0
C1197 C 0.58541 0.01824 0.84691 0.0
C1198 C 0.5694 1.00069 0.84808 0.0
C1199 C 0.55222 0.99765 0.84123 0.0
C1200 C 0.52476 0.00895 0.86019 0.0
C1201 C 0.53791 0.02671 0.86851 0.0
C1202 C 0.54511 0.02872 0.88713 0.0
C1203 C 0.53932 0.01299 0.89788 0.0
C1204 C 0.52574 0.99523 0.88967 0.0
C1205 C 0.51847 0.99324 0.87097 0.0
C1206 C 0.48733 0.99991 0.84693 0.0
C1207 C 0.49047 0.01339 0.86165 0.0
C1208 C 0.47771 0.00934 0.87548 0.0
C1209 C 0.46121 0.99184 0.87463 0.0
C1210 C 0.45779 0.9787 0.85931 0.0
C1211 C 0.47079 0.98261 0.84579 0.0
C1212 C 0.49227 0.00523 0.72042 0.0
C1213 C 0.60362 0.02144 0.8543 0.0
H1214 H 0.96841 0.47516 0.70737 0.0
H1215 H 0.03188 0.62293 0.87475 0.0
H1216 H 0.9744 0.46368 0.80773 0.0
H1217 H 0.96859 0.43551 0.78891 0.0
H1218 H 0.02654 0.45323 0.79546 0.0
H1219 H 0.03224 0.48159 0.81459 0.0
H1220 H 0.97228 0.49311 0.78907 0.0
H1221 H 0.96534 0.48446 0.75495 0.0
H1222 H 0.02164 0.49766 0.74916 0.0
H1223 H 0.02844 0.50649 0.78329 0.0
H1224 H 0.97376 0.52156 0.81833 0.0
H1225 H 0.96245 0.5376 0.79828 0.0
H1226 H 0.01347 0.56253 0.7702 0.0
H1227 H 0.02473 0.54625 0.79041 0.0
H1228 H 0.98654 0.52951 0.86003 0.0
H1229 H 0.98903 0.55799 0.87527 0.0
H1230 H 0.03941 0.59165 0.84766 0.0
H1231 H 0.0369 0.56299 0.83276 0.0
H1232 H 0.99106 0.50015 0.87777 0.0
H1233 H 0.99586 0.51442 0.9102 0.0
H1234 H 0.05043 0.55781 0.89787 0.0
H1235 H 0.04566 0.54315 0.8658 0.0
H1236 H 0.9829 0.4625 0.84485 0.0
H1237 H 0.98122 0.43972 0.8662 0.0
H1238 H 0.03626 0.47957 0.89023 0.0
H1239 H 0.0387 0.50139 0.86663 0.0
O1240 O 0.97151 0.47883 0.72081 0.0
O1241 O 1.0006 0.48577 0.7186 0.0
O1242 O 0.00474 0.59347 0.88293 0.0
O1243 O 0.03048 0.61145 0.86877 0.0
C1244 C 0.00726 0.49311 0.82115 0.0
C1245 C 0.00503 0.50543 0.80939 0.0
C1246 C 0.00601 0.52189 0.81744 0.0
C1247 C 0.01061 0.52682 0.83704 0.0
C1248 C 0.01359 0.51496 0.8488 0.0
C1249 C 0.01126 0.49768 0.84103 0.0
C1250 C 1.00375 0.47475 0.81242 0.0
C1251 C 0.98582 0.46138 0.80535 0.0
C1252 C 0.98256 0.44536 0.79448 0.0
C1253 C 0.99717 0.44234 0.79039 0.0
C1254 C 0.01502 0.45521 0.79837 0.0
C1255 C 0.0183 0.47136 0.8093 0.0
C1256 C 1.00091 0.50062 0.78859 0.0
C1257 C 0.98314 0.49433 0.78036 0.0
C1258 C 0.97919 0.4893 0.76089 0.0
C1259 C 0.99294 0.49039 0.74931 0.0
C1260 C 0.01074 0.49669 0.75765 0.0
C1261 C 0.01468 0.50176 0.77713 0.0
C1262 C 1.00004 0.53274 0.80581 0.0
C1263 C 0.98256 0.53059 0.80795 0.0
C1264 C 0.97608 0.53965 0.79641 0.0
C1265 C 0.98703 0.55118 0.78258 0.0
C1266 C 0.00478 0.55376 0.78078 0.0
C1267 C 0.0112 0.54447 0.79224 0.0
C1268 C 0.01163 0.54421 0.84544 0.0
C1269 C 0.99812 0.54305 0.85733 0.0
C1270 C 0.99956 0.55934 0.86598 0.0
C1271 C 0.01447 0.57711 0.86274 0.0
C1272 C 0.02779 0.5782 0.8505 0.0
C1273 C 0.02637 0.56187 0.84193 0.0
C1274 C 0.01802 0.52061 0.86946 0.0
C1275 C 0.00427 0.51234 0.88234 0.0
C1276 C 0.00696 0.52068 0.90075 0.0
C1277 C 0.02344 0.53742 0.90655 0.0
C1278 C 0.03764 0.54486 0.89398 0.0
C1279 C 0.03496 0.5365 0.87562 0.0
C1280 C 0.01099 0.48364 0.85386 0.0
C1281 C 0.9949 0.46611 0.85418 0.0
C1282 C 0.9938 0.45321 0.8669 0.0
C1283 C 0.0084 0.45781 0.88053 0.0
C1284 C 0.02472 0.47531 0.87999 0.0
C1285 C 0.02607 0.48797 0.86662 0.0
C1286 C 0.98866 0.48488 0.72865 0.0
C1287 C 0.01619 0.59445 0.8721 0.0
H1288 H 0.48681 0.50383 0.70396 0.0
H1289 H 0.63149 0.61389 0.88151 0.0
H1290 H 0.4692 0.50415 0.81481 0.0
H1291 H 0.44286 0.47609 0.79866 0.0
H1292 H 0.47779 0.45211 0.7896 0.0
H1293 H 0.50351 0.47961 0.80669 0.0
H1294 H 0.49282 0.52567 0.78501 0.0
H1295 H 0.48627 0.51791 0.75073 0.0
H1296 H 0.52877 0.50283 0.74979 0.0
H1297 H 0.53502 0.51044 0.78413 0.0
H1298 H 0.53293 0.56174 0.79036 0.0
H1299 H 0.55607 0.58124 0.76875 0.0
H1300 H 0.59232 0.56227 0.79055 0.0
H1301 H 0.56871 0.5421 0.81124 0.0
H1302 H 0.54821 0.57867 0.83664 0.0
H1303 H 0.57691 0.60586 0.85034 0.0
H1304 H 0.59725 0.56895 0.86571 0.0
H1305 H 0.56859 0.54195 0.85176 0.0
H1306 H 0.52384 0.55475 0.87367 0.0
H1307 H 0.53511 0.56105 0.90729 0.0
H1308 H 0.55071 0.51852 0.90083 0.0
H1309 H 0.53905 0.51212 0.86764 0.0
H1310 H 0.47923 0.51929 0.84844 0.0
H1311 H 0.45617 0.50293 0.87116 0.0
H1312 H 0.48283 0.47123 0.88518 0.0
H1313 H 0.50487 0.48667 0.8612 0.0
O1314 O 0.48966 0.50685 0.71751 0.0
O1315 O 0.51174 0.49942 0.71777 0.0
O1316 O 0.60909 0.62181 0.86741 0.0
O1317 O 0.62007 0.60342 0.87586 0.0
C1318 C 0.50472 0.51131 0.82025 0.0
C1319 C 0.51806 0.52299 0.8079 0.0
C1320 C 0.53499 0.53846 0.81542 0.0
C1321 C 0.53871 0.54196 0.83531 0.0
C1322 C 0.5255 0.53014 0.84763 0.0
C1323 C 0.50826 0.51517 0.84013 0.0
C1324 C 0.48817 0.49376 0.81219 0.0
C1325 C 0.47095 0.49257 0.8098 0.0
C1326 C 0.45601 0.47664 0.80027 0.0
C1327 C 0.45812 0.46175 0.79276 0.0
C1328 C 0.47543 0.46303 0.79549 0.0
C1329 C 0.49023 0.47879 0.80519 0.0
C1330 C 0.51441 0.51864 0.78702 0.0
C1331 C 0.50068 0.52066 0.77737 0.0
C1332 C 0.49698 0.51624 0.75778 0.0
C1333 C 0.507 0.50976 0.74751 0.0
C1334 C 0.52081 0.50781 0.75727 0.0
C1335 C 0.52445 0.51219 0.77686 0.0
C1336 C 0.54916 0.55057 0.80246 0.0
C1337 C 0.54584 0.56174 0.79035 0.0
C1338 C 0.55916 0.57299 0.77812 0.0
C1339 C 0.57613 0.5734 0.77787 0.0
C1340 C 0.57934 0.56213 0.79008 0.0
C1341 C 0.56595 0.55076 0.80213 0.0
C1342 C 0.5563 0.55837 0.84334 0.0
C1343 C 0.55891 0.57652 0.84294 0.0
C1344 C 0.5753 0.592 0.85079 0.0
C1345 C 0.58936 0.58957 0.85919 0.0
C1346 C 0.5867 0.57133 0.85943 0.0
C1347 C 0.57033 0.55587 0.85152 0.0
C1348 C 0.53041 0.53281 0.86836 0.0
C1349 C 0.52938 0.5466 0.87971 0.0
C1350 C 0.53599 0.55029 0.89882 0.0
C1351 C 0.54379 0.54026 0.90681 0.0
C1352 C 0.54447 0.52625 0.89534 0.0
C1353 C 0.53783 0.52256 0.87633 0.0
C1354 C 0.49371 0.50417 0.85316 0.0
C1355 C 0.47984 0.50854 0.85618 0.0
C1356 C 0.46681 0.49932 0.86942 0.0
C1357 C 0.46765 0.48583 0.88033 0.0
C1358 C 0.48148 0.4813 0.87697 0.0
C1359 C 0.49427 0.49026 0.86339 0.0
C1360 C 0.503 0.50502 0.72671 0.0
C1361 C 0.60673 0.60594 0.8677 0.0
H1362 H 0.661 0.86019 0.69002 0.0
H1363 H 0.68091 0.72843 0.54241 0.0
H1364 H 0.63335 0.8475 0.57997 0.0
H1365 H 0.63578 0.87669 0.59302 0.0
H1366 H 0.69535 0.90316 0.5955 0.0
H1367 H 0.69255 0.87453 0.58092 0.0
H1368 H 0.63877 0.82365 0.6131 0.0
H1369 H 0.64257 0.83599 0.64616 0.0
H1370 H 0.70164 0.86819 0.64196 0.0
H1371 H 0.6976 0.85578 0.6089 0.0
H1372 H 0.64469 0.78341 0.60189 0.0
H1373 H 0.65484 0.76861 0.6252 0.0
H1374 H 0.71131 0.81282 0.62141 0.0
H1375 H 0.70099 0.82749 0.59856 0.0
H1376 H 0.63398 0.77353 0.55361 0.0
H1377 H 0.63429 0.7446 0.54501 0.0
H1378 H 0.6935 0.77423 0.55662 0.0
H1379 H 0.69301 0.80309 0.56493 0.0
H1380 H 0.62901 0.80079 0.52539 0.0
H1381 H 0.62593 0.78549 0.49385 0.0
H1382 H 0.68356 0.80142 0.49975 0.0
H1383 H 0.68666 0.81764 0.53043 0.0
H1384 H 0.6267 0.83344 0.54603 0.0
H1385 H 0.62053 0.84896 0.52035 0.0
H1386 H 0.67614 0.87016 0.50336 0.0
H1387 H 0.6823 0.85515 0.52952 0.0
O1388 O 0.65981 0.85542 0.67695 0.0
O1389 O 0.69009 0.87163 0.67408 0.0
O1390 O 0.64995 0.72509 0.53987 0.0
O1391 O 0.68038 0.73965 0.54576 0.0
C1392 C 0.66161 0.84075 0.57417 0.0
C1393 C 0.66539 0.83153 0.58858 0.0
C1394 C 0.66637 0.81526 0.58393 0.0
C1395 C 0.66314 0.80791 0.56487 0.0
C1396 C 0.65952 0.81718 0.55036 0.0
C1397 C 0.65853 0.83351 0.55502 0.0
C1398 C 0.66276 0.85899 0.5793 0.0
C1399 C 0.64687 0.85986 0.58273 0.0
C1400 C 0.64835 0.87651 0.59056 0.0
C1401 C 0.66579 0.89244 0.59561 0.0
C1402 C 0.68165 0.89151 0.59154 0.0
C1403 C 0.68012 0.87505 0.58328 0.0
C1404 C 0.66791 0.83874 0.60872 0.0
C1405 C 0.65251 0.83331 0.6194 0.0
C1406 C 0.65473 0.8404 0.63826 0.0
C1407 C 0.67242 0.85306 0.64672 0.0
C1408 C 0.68783 0.85844 0.6359 0.0
C1409 C 0.68558 0.85134 0.61705 0.0
C1410 C 0.67209 0.80666 0.59879 0.0
C1411 C 0.6592 0.78995 0.60633 0.0
C1412 C 0.66505 0.78147 0.61952 0.0
C1413 C 0.68389 0.7896 0.62532 0.0
C1414 C 0.69667 0.80638 0.61766 0.0
C1415 C 0.69082 0.8148 0.60456 0.0
C1416 C 0.66344 0.79033 0.56005 0.0
C1417 C 0.64699 0.77371 0.55432 0.0
C1418 C 0.64721 0.75722 0.54942 0.0
C1419 C 0.66393 0.75709 0.55018 0.0
C1420 C 0.68039 0.77382 0.55593 0.0
C1421 C 0.68015 0.7903 0.56078 0.0
C1422 C 0.65803 0.81022 0.53023 0.0
C1423 C 0.64104 0.80137 0.51956 0.0
C1424 C 0.63927 0.79241 0.50166 0.0
C1425 C 0.65443 0.79196 0.49423 0.0
C1426 C 0.67161 0.80162 0.50472 0.0
C1427 C 0.67341 0.81081 0.52241 0.0
C1428 C 0.65501 0.84337 0.53977 0.0
C1429 C 0.6376 0.84167 0.53691 0.0
C1430 C 0.63405 0.85037 0.52208 0.0
C1431 C 0.64783 0.86085 0.50976 0.0
C1432 C 0.66529 0.86249 0.51274 0.0
C1433 C 0.66883 0.85385 0.52761 0.0
C1434 C 0.67472 0.86063 0.66672 0.0
C1435 C 0.66425 0.73962 0.54495 0.0
H1436 H 0.16731 0.86893 0.69462 0.0
H1437 H 0.07442 0.69196 0.54299 0.0
H1438 H 0.17603 0.86056 0.57572 0.0
H1439 H 0.19715 0.89262 0.58894 0.0
H1440 H 0.22349 0.87188 0.62668 0.0
H1441 H 0.20264 0.83984 0.61288 0.0
H1442 H 0.15391 0.84544 0.61347 0.0
H1443 H 0.15788 0.85899 0.64603 0.0
H1444 H 0.17505 0.82074 0.66555 0.0
H1445 H 0.17122 0.80748 0.63287 0.0
H1446 H 0.11694 0.80327 0.60814 0.0
H1447 H 0.09413 0.78404 0.63003 0.0
H1448 H 0.12175 0.75203 0.63709 0.0
H1449 H 0.14378 0.77074 0.61425 0.0
H1450 H 0.10581 0.78125 0.57361 0.0
H1451 H 0.07988 0.75001 0.56358 0.0
H1452 H 0.11799 0.72983 0.55531 0.0
H1453 H 0.14377 0.7611 0.5656 0.0
H1454 H 0.12576 0.79974 0.54096 0.0
H1455 H 0.11564 0.78612 0.5085 0.0
H1456 H 0.16312 0.77882 0.50567 0.0
H1457 H 0.17259 0.79164 0.5388 0.0
H1458 H 0.16579 0.83669 0.53667 0.0
H1459 H 0.18856 0.85325 0.51358 0.0
H1460 H 0.22908 0.84696 0.54702 0.0
H1461 H 0.20596 0.82966 0.56948 0.0
O1462 O 0.1658 0.86334 0.68185 0.0
O1463 O 0.17437 0.84326 0.69118 0.0
O1464 O 0.06538 0.71544 0.55179 0.0
O1465 O 0.0844 0.70441 0.54717 0.0
C1466 C 0.17281 0.8283 0.5876 0.0
C1467 C 0.16018 0.81758 0.60102 0.0
C1468 C 0.1452 0.79952 0.59548 0.0
C1469 C 0.1424 0.79239 0.57635 0.0
C1470 C 0.15458 0.8033 0.56273 0.0
C1471 C 0.1702 0.82102 0.56847 0.0
C1472 C 0.18771 0.84784 0.5934 0.0
C1473 C 0.18667 0.86299 0.58649 0.0
C1474 C 0.19861 0.88127 0.59423 0.0
C1475 C 0.2118 0.88476 0.60911 0.0
C1476 C 0.21354 0.86968 0.61521 0.0
C1477 C 0.2016 0.85137 0.6074 0.0
C1478 C 0.1623 0.82551 0.62085 0.0
C1479 C 0.15855 0.84004 0.62481 0.0
C1480 C 0.16081 0.84773 0.64342 0.0
C1481 C 0.16679 0.84095 0.6584 0.0
C1482 C 0.17042 0.82629 0.65435 0.0
C1483 C 0.16821 0.81865 0.63572 0.0
C1484 C 0.13194 0.78833 0.60956 0.0
C1485 C 0.11801 0.79209 0.61446 0.0
C1486 C 0.10507 0.78114 0.62714 0.0
C1487 C 0.10597 0.76637 0.63547 0.0
C1488 C 0.12029 0.76298 0.63075 0.0
C1489 C 0.13303 0.77375 0.61781 0.0
C1490 C 0.12663 0.77336 0.57051 0.0
C1491 C 0.1085 0.77001 0.56983 0.0
C1492 C 0.09373 0.75218 0.56399 0.0
C1493 C 0.09686 0.7374 0.55866 0.0
C1494 C 0.11508 0.74087 0.55934 0.0
C1495 C 0.12983 0.75871 0.56521 0.0
C1496 C 0.14985 0.7966 0.54229 0.0
C1497 C 0.13401 0.79524 0.53331 0.0
C1498 C 0.12835 0.7876 0.51463 0.0
C1499 C 0.13857 0.78138 0.50432 0.0
C1500 C 0.15477 0.78323 0.51322 0.0
C1501 C 0.16032 0.79071 0.53208 0.0
C1502 C 0.18413 0.83177 0.55468 0.0
C1503 C 0.17955 0.83878 0.53891 0.0
C1504 C 0.19267 0.84842 0.52583 0.0
C1505 C 0.21071 0.85143 0.52836 0.0
C1506 C 0.21528 0.84464 0.54439 0.0
C1507 C 0.20212 0.83488 0.55736 0.0
C1508 C 0.16923 0.84919 0.67815 0.0
C1509 C 0.08123 0.71846 0.55235 0.0
H1510 H 0.18614 0.33626 0.70937 0.0
H1511 H 0.04089 0.28901 0.54697 0.0
H1512 H 0.20253 0.35541 0.61216 0.0
H1513 H 0.22886 0.35557 0.62826 0.0
H1514 H 0.2129 0.30192 0.59895 0.0
H1515 H 0.18615 0.30159 0.58348 0.0
H1516 H 0.16533 0.34779 0.63332 0.0
H1517 H 0.17374 0.3476 0.66683 0.0
H1518 H 0.17616 0.29713 0.65394 0.0
H1519 H 0.16743 0.2973 0.62056 0.0
H1520 H 0.12369 0.33684 0.60995 0.0
H1521 H 0.09839 0.32493 0.63104 0.0
H1522 H 0.10661 0.27808 0.64095 0.0
H1523 H 0.12997 0.2888 0.6181 0.0
H1524 H 0.13054 0.34798 0.56928 0.0
H1525 H 0.10027 0.34268 0.55797 0.0
H1526 H 0.07681 0.28313 0.56372 0.0
H1527 H 0.1072 0.28862 0.57482 0.0
H1528 H 0.16487 0.35908 0.55016 0.0
H1529 H 0.15598 0.36462 0.51892 0.0
H1530 H 0.12351 0.30456 0.50531 0.0
H1531 H 0.1316 0.29935 0.53718 0.0
H1532 H 0.20425 0.35618 0.56366 0.0
H1533 H 0.22406 0.35595 0.53886 0.0
H1534 H 0.1823 0.29907 0.52015 0.0
H1535 H 0.16308 0.29928 0.54507 0.0
O1536 O 0.18268 0.33598 0.69607 0.0
O1537 O 0.18388 0.31013 0.68866 0.0
O1538 O 0.06576 0.32225 0.54871 0.0
O1539 O 0.053 0.29151 0.55145 0.0
C1540 C 0.17433 0.32651 0.59045 0.0
C1541 C 0.16117 0.32313 0.60409 0.0
C1542 C 0.14345 0.32007 0.59839 0.0
C1543 C 0.13949 0.32187 0.5792 0.0
C1544 C 0.15283 0.32585 0.56571 0.0
C1545 C 0.16992 0.3273 0.57111 0.0
C1546 C 0.19239 0.32848 0.59667 0.0
C1547 C 0.20498 0.3439 0.60889 0.0
C1548 C 0.22005 0.34396 0.61808 0.0
C1549 C 0.22292 0.32864 0.6151 0.0
C1550 C 0.21091 0.31377 0.60187 0.0
C1551 C 0.19577 0.31368 0.59277 0.0
C1552 C 0.16592 0.32266 0.62449 0.0
C1553 C 0.16761 0.33667 0.63779 0.0
C1554 C 0.17246 0.33655 0.6569 0.0
C1555 C 0.17569 0.32239 0.66305 0.0
C1556 C 0.17382 0.30827 0.64968 0.0
C1557 C 0.16892 0.30838 0.63059 0.0
C1558 C 0.12872 0.31368 0.61227 0.0
C1559 C 0.11976 0.32382 0.61645 0.0
C1560 C 0.10542 0.31709 0.62884 0.0
C1561 C 0.10005 0.3003 0.63779 0.0
C1562 C 0.10965 0.29066 0.63402 0.0
C1563 C 0.12343 0.29701 0.62116 0.0
C1564 C 0.12103 0.31868 0.57285 0.0
C1565 C 0.11884 0.33381 0.56805 0.0
C1566 C 0.10154 0.33074 0.56162 0.0
C1567 C 0.08611 0.31247 0.55993 0.0
C1568 C 0.08838 0.29736 0.56486 0.0
C1569 C 0.10571 0.30045 0.57123 0.0
C1570 C 0.14892 0.32884 0.54588 0.0
C1571 C 0.15596 0.34715 0.54032 0.0
C1572 C 0.15091 0.35025 0.52236 0.0
C1573 C 0.13896 0.33505 0.5094 0.0
C1574 C 0.1324 0.31665 0.51493 0.0
C1575 C 0.13719 0.3136 0.53306 0.0
C1576 C 0.1822 0.32774 0.55618 0.0
C1577 C 0.19948 0.34369 0.5542 0.0
C1578 C 0.2107 0.34357 0.53996 0.0
C1579 C 0.20485 0.32744 0.52758 0.0
C1580 C 0.18744 0.31162 0.5296 0.0
C1581 C 0.17633 0.31175 0.54375 0.0
C1582 C 0.18099 0.32239 0.68334 0.0
C1583 C 0.06772 0.30912 0.55303 0.0
H1584 H 0.99626 0.39036 0.0835 0.0
H1585 H 0.03787 0.43565 0.05337 0.0
H1586 H 0.03781 0.45886 0.07657 0.0
H1587 H 0.97058 0.41247 0.09642 0.0
H1588 H 0.9663 0.40389 0.1198 0.0
H1589 H 0.96949 0.39059 0.1009 0.0
H1590 H 0.99611 0.39103 0.12119 0.0
H1591 H 0.99277 0.40408 0.14023 0.0
H1592 H 0.01516 0.41319 0.13091 0.0
H1593 H 0.03207 0.47719 0.10187 0.0
H1594 H 0.02369 0.48951 0.12989 0.0
H1595 H 0.98762 0.43243 0.1451 0.0
C1596 C 0.00541 0.40516 0.08186 0.0
C1597 C 0.01702 0.4112 0.06659 0.0
C1598 C 0.02891 0.43069 0.065 0.0
C1599 C 0.02891 0.44399 0.07804 0.0
C1600 C 0.01713 0.43761 0.09277 0.0
C1601 C 0.00584 0.41867 0.09499 0.0
C1602 C 0.99496 0.41562 0.11246 0.0
C1603 C 0.9741 0.40502 0.10706 0.0
C1604 C 1.00006 0.40538 0.12706 0.0
C1605 C 1.00174 0.43579 0.11952 0.0
C1606 C 0.01439 0.44823 0.10786 0.0
C1607 C 0.02235 0.46759 0.11127 0.0
C1608 C 0.01755 0.47446 0.12728 0.0
C1609 C 0.00507 0.46201 0.13986 0.0
C1610 C 0.99698 0.44239 0.13571 0.0
H1611 H 0.61357 0.57684 0.12003 0.0
H1612 H 0.58828 0.60992 0.10543 0.0
H1613 H 0.56634 0.59577 0.13001 0.0
H1614 H 0.5722 0.53522 0.1284 0.0
H1615 H 0.5817 0.52926 0.14842 0.0
H1616 H 0.59643 0.54269 0.13039 0.0
H1617 H 0.61795 0.56896 0.15592 0.0
H1618 H 0.60338 0.55553 0.17407 0.0
H1619 H 0.60841 0.57928 0.1716 0.0
H1620 H 0.54552 0.57651 0.15396 0.0
H1621 H 0.52827 0.55483 0.17793 0.0
H1622 H 0.5675 0.53497 0.17911 0.0
C1623 C 0.6036 0.58131 0.12221 0.0
C1624 C 0.60271 0.59452 0.11069 0.0
C1625 C 0.58931 0.59984 0.11396 0.0
C1626 C 0.57673 0.59187 0.12792 0.0
C1627 C 0.5777 0.57864 0.1387 0.0
C1628 C 0.59089 0.57351 0.13624 0.0
C1629 C 0.58854 0.55866 0.14967 0.0
C1630 C 0.58448 0.54038 0.13855 0.0
C1631 C 0.60558 0.56606 0.16365 0.0
C1632 C 0.57183 0.55611 0.15977 0.0
C1633 C 0.56585 0.56779 0.15313 0.0
C1634 C 0.55028 0.56756 0.15958 0.0
C1635 C 0.54063 0.55523 0.17337 0.0
C1636 C 0.54663 0.54334 0.18087 0.0
C1637 C 0.56246 0.5438 0.17379 0.0
H1638 H 0.41983 0.02039 0.08475 0.0
H1639 H 0.42422 0.97754 0.05134 0.0
H1640 H 0.44365 0.97591 0.07737 0.0
H1641 H 0.46638 0.04362 0.10954 0.0
H1642 H 0.4583 0.04711 0.13182 0.0
H1643 H 0.44659 0.04672 0.10975 0.0
H1644 H 0.4158 0.02021 0.12083 0.0
H1645 H 0.42741 0.02051 0.14289 0.0
H1646 H 0.41452 0.99893 0.12812 0.0
H1647 H 0.46112 0.97754 0.1072 0.0
H1648 H 0.4743 0.9811 0.13988 0.0
H1649 H 0.45706 0.02132 0.15531 0.0
C1650 C 0.42528 0.01102 0.08284 0.0
C1651 C 0.42077 0.99925 0.06599 0.0
C1652 C 0.42762 0.98672 0.06413 0.0
C1653 C 0.43872 0.98574 0.0788 0.0
C1654 C 0.44268 0.99724 0.09537 0.0
C1655 C 0.43611 0.00957 0.09759 0.0
C1656 C 0.44111 0.01906 0.11756 0.0
C1657 C 0.45386 0.0404 0.11713 0.0
C1658 C 0.42367 0.01439 0.12796 0.0
C1659 C 0.45127 0.00996 0.12619 0.0
C1660 C 0.45221 0.99762 0.11303 0.0
C1661 C 0.46048 0.98717 0.11766 0.0
C1662 C 0.46781 0.98918 0.13633 0.0
C1663 C 0.46665 1.00138 0.15028 0.0
C1664 C 0.45843 0.01206 0.14498 0.0
H1665 H 0.41459 0.01339 0.96178 0.0
H1666 H 0.38597 0.95373 0.97014 0.0
H1667 H 0.39896 0.94805 0.94142 0.0
H1668 H 0.40891 0.0081 0.90937 0.0
H1669 H 0.43134 0.02824 0.90696 0.0
H1670 H 0.41872 0.02735 0.92738 0.0
H1671 H 0.44653 0.03285 0.94953 0.0
H1672 H 0.45916 0.03357 0.92921 0.0
H1673 H 0.45554 0.01715 0.94688 0.0
H1674 H 0.41782 0.94942 0.91394 0.0
H1675 H 0.43905 0.9572 0.88836 0.0
H1676 H 0.45351 0.01572 0.89629 0.0
C1677 C 0.41083 0.99908 0.95743 0.0
C1678 C 0.39926 0.984 0.96825 0.0
C1679 C 0.39471 0.9655 0.96205 0.0
C1680 C 0.40206 0.96214 0.94577 0.0
C1681 C 0.41373 0.97738 0.93568 0.0
C1682 C 0.41785 0.99545 0.9411 0.0
C1683 C 0.43107 0.00942 0.92802 0.0
C1684 C 0.42196 0.01883 0.91729 0.0
C1685 C 0.44914 0.02411 0.93908 0.0
C1686 C 0.43414 0.99645 0.91471 0.0
C1687 C 0.42402 0.97805 0.91938 0.0
C1688 C 0.42548 0.96373 0.90987 0.0
C1689 C 0.43754 0.96832 0.8952 0.0
C1690 C 0.44795 0.98709 0.88992 0.0
C1691 C 0.44598 1.00124 0.89986 0.0
H1692 H 0.03772 0.41148 0.96338 0.0
H1693 H 0.97913 0.37857 0.97198 0.0
H1694 H 0.97223 0.3922 0.94505 0.0
H1695 H 0.03816 0.45267 0.95123 0.0
H1696 H 0.05405 0.45836 0.93278 0.0
H1697 H 0.05493 0.44509 0.95196 0.0
H1698 H 0.05093 0.41851 0.92784 0.0
H1699 H 0.05025 0.43181 0.90856 0.0
H1700 H 0.03163 0.40815 0.91038 0.0
H1701 H 0.97142 0.41182 0.92067 0.0
H1702 H 0.97628 0.43388 0.89661 0.0
H1703 H 0.03497 0.45265 0.90014 0.0
C1704 C 0.02344 0.40688 0.95932 0.0
C1705 C 0.00901 0.39402 0.96998 0.0
C1706 C 0.9905 0.38849 0.96425 0.0
C1707 C 0.98637 0.39614 0.94891 0.0
C1708 C 1.00083 0.40917 0.93912 0.0
C1709 C 0.01897 0.41432 0.94375 0.0
C1710 C 0.03173 0.42901 0.93083 0.0
C1711 C 0.04553 0.44737 0.9424 0.0
C1712 C 0.04172 0.42141 0.91868 0.0
C1713 C 0.01788 0.43155 0.91869 0.0
C1714 C 1.00019 0.41996 0.92389 0.0
C1715 C 0.98512 0.42055 0.91596 0.0
C1716 C 0.98807 0.43311 0.90206 0.0
C1717 C 0.00595 0.44476 0.89571 0.0
C1718 C 0.02108 0.44395 0.90436 0.0
H1719 H 0.60509 0.60667 0.99795 0.0
H1720 H 0.59688 0.55622 0.0233 0.0
H1721 H 0.57709 0.53696 0.99512 0.0
H1722 H 0.55946 0.58721 0.97544 0.0
H1723 H 0.56721 0.59965 0.95427 0.0
H1724 H 0.58051 0.60963 0.97659 0.0
H1725 H 0.60935 0.61214 0.96166 0.0
H1726 H 0.59619 0.60232 0.93925 0.0
H1727 H 0.60795 0.59148 0.95009 0.0
H1728 H 0.55767 0.52308 0.96467 0.0
H1729 H 0.54197 0.5156 0.93265 0.0
H1730 H 0.56409 0.57511 0.92617 0.0
C1731 C 0.59911 0.59157 0.99757 0.0
C1732 C 0.60248 0.58295 0.01287 0.0
C1733 C 0.59455 0.56316 0.01174 0.0
C1734 C 0.58321 0.55208 0.99583 0.0
C1735 C 0.58005 0.56099 0.98108 0.0
C1736 C 0.58793 0.58029 0.98167 0.0
C1737 C 0.58283 0.58634 0.96356 0.0
C1738 C 0.57185 0.5963 0.96772 0.0
C1739 C 0.60011 0.5988 0.95302 0.0
C1740 C 0.57081 0.56742 0.95275 0.0
C1741 C 0.56928 0.55299 0.9632 0.0
C1742 C 0.55889 0.53426 0.95627 0.0
C1743 C 0.55009 0.53017 0.93802 0.0
C1744 C 0.55188 0.54475 0.92676 0.0
C1745 C 0.56224 0.5636 0.93443 0.0
H1746 H 0.99118 0.58535 0.9853 0.0
H1747 H 0.04683 0.61254 0.01179 0.0
H1748 H 0.05535 0.59624 0.98748 0.0
H1749 H 0.98698 0.54086 0.97242 0.0
H1750 H 0.97446 0.53753 0.94995 0.0
H1751 H 0.97268 0.55128 0.96944 0.0
H1752 H 0.98313 0.57949 0.9485 0.0
H1753 H 0.98475 0.56576 0.9289 0.0
H1754 H 0.00444 0.58816 0.93695 0.0
H1755 H 0.0576 0.57647 0.96047 0.0
H1756 H 0.05395 0.55635 0.93172 0.0
H1757 H 0.99713 0.54307 0.92249 0.0
C1758 C 0.00517 0.5879 0.98602 0.0
C1759 C 0.01832 0.60018 1.00052 0.0
C1760 C 0.03652 0.60323 1.00081 0.0
C1761 C 0.04147 0.59398 0.98711 0.0
C1762 C 0.02811 0.58183 0.97313 0.0
C1763 C 0.01039 0.57893 0.97237 0.0
C1764 C 0.99875 0.56554 0.95561 0.0
C1765 C 0.98224 0.54775 0.96226 0.0
C1766 C 0.9924 0.57533 0.94167 0.0
C1767 C 0.01265 0.56124 0.94714 0.0
C1768 C 0.02949 0.5707 0.95746 0.0
C1769 C 0.04449 0.56903 0.95224 0.0
C1770 C 0.04229 0.55762 0.93587 0.0
C1771 C 0.02524 0.54806 0.92485 0.0
C1772 C 0.01023 0.54985 0.93076 0.0
H1773 H 0.4109 0.40775 0.95239 0.0
H1774 H 0.39568 0.44638 0.97833 0.0
H1775 H 0.41149 0.46862 0.95391 0.0
H1776 H 0.4553 0.4413 0.94124 0.0
H1777 H 0.45467 0.42968 0.91875 0.0
H1778 H 0.44097 0.41615 0.93731 0.0
H1779 H 0.41145 0.40215 0.91467 0.0
H1780 H 0.42508 0.4155 0.89595 0.0
H1781 H 0.40574 0.4177 0.90286 0.0
H1782 H 0.43173 0.48795 0.92874 0.0
H1783 H 0.45283 0.50204 0.90339 0.0
H1784 H 0.45309 0.44987 0.89241 0.0
C1785 C 0.41065 0.42077 0.95281 0.0
C1786 C 0.40205 0.42532 0.96732 0.0
C1787 C 0.40208 0.44252 0.96732 0.0
C1788 C 0.41107 0.45527 0.95353 0.0
C1789 C 0.41975 0.4505 0.93968 0.0
C1790 C 0.41937 0.43354 0.93904 0.0
C1791 C 0.43011 0.432 0.92294 0.0
C1792 C 0.44622 0.42965 0.93052 0.0
C1793 C 0.41733 0.41588 0.90823 0.0
C1794 C 0.43701 0.45095 0.91492 0.0
C1795 C 0.43087 0.4614 0.92477 0.0
C1796 C 0.43628 0.47973 0.92066 0.0
C1797 C 0.44822 0.48758 0.90607 0.0
C1798 C 0.45457 0.47708 0.89554 0.0
C1799 C 0.4487 0.45843 0.9001 0.0
H1800 H 0.59039 0.99041 0.98196 0.0
H1801 H 0.6003 0.04215 0.01191 0.0
H1802 H 0.58326 0.04705 0.98578 0.0
H1803 H 0.5959 0.00746 0.93504 0.0
H1804 H 0.57809 0.98537 0.92372 0.0
H1805 H 0.59087 0.98573 0.94494 0.0
H1806 H 0.56025 0.96663 0.96115 0.0
H1807 H 0.54739 0.96634 0.94002 0.0
H1808 H 0.54445 0.97539 0.96253 0.0
H1809 H 0.56491 0.04632 0.95674 0.0
H1810 H 0.54802 0.04095 0.92565 0.0
H1811 H 0.55064 0.99022 0.9139 0.0
C1812 C 0.58898 0.00277 0.98303 0.0
C1813 C 0.59668 0.01587 0.99906 0.0
C1814 C 0.59459 0.03192 0.9998 0.0
C1815 C 0.58486 0.03481 0.98505 0.0
C1816 C 0.57734 0.02159 0.96956 0.0
C1817 C 0.5794 0.00597 0.96834 0.0
C1818 C 0.57032 0.99418 0.94985 0.0
C1819 C 0.58465 0.99313 0.93767 0.0
C1820 C 0.55467 0.97447 0.95362 0.0
C1821 C 0.56282 0.00562 0.94093 0.0
C1822 C 0.56696 0.02131 0.9526 0.0
C1823 C 0.56165 0.03412 0.94743 0.0
C1824 C 0.55212 0.03098 0.92971 0.0
C1825 C 0.54804 0.01521 0.91728 0.0
C1826 C 0.55332 0.00227 0.92315 0.0
H1827 H 0.60926 0.02732 0.10868 0.0
H1828 H 0.57714 0.96897 0.08653 0.0
H1829 H 0.55736 0.96181 0.11326 0.0
H1830 H 0.6066 0.01756 0.15918 0.0
H1831 H 0.60447 0.03758 0.16651 0.0
H1832 H 0.61695 0.03828 0.14602 0.0
H1833 H 0.59601 0.04641 0.12555 0.0
H1834 H 0.58341 0.04563 0.14593 0.0
H1835 H 0.57134 0.03114 0.12456 0.0
H1836 H 0.53976 0.9609 0.14077 0.0
H1837 H 0.52584 0.96607 0.16867 0.0
H1838 H 0.56946 0.02463 0.17475 0.0
C1839 C 0.59821 0.01301 0.1096 0.0
C1840 C 0.59481 0.99874 0.09539 0.0
C1841 C 0.58007 0.98021 0.0971 0.0
C1842 C 0.56872 0.97594 0.11228 0.0
C1843 C 0.57221 0.9903 0.12582 0.0
C1844 C 0.58663 0.00843 0.12479 0.0
C1845 C 0.58691 0.02119 0.1412 0.0
C1846 C 0.6048 0.02912 0.15399 0.0
C1847 C 0.58426 0.03703 0.13386 0.0
C1848 C 0.57028 0.00738 0.15135 0.0
C1849 C 0.56209 0.98966 0.14217 0.0
C1850 C 0.54621 0.97464 0.1483 0.0
C1851 C 0.53848 0.97772 0.16433 0.0
C1852 C 0.54665 0.99568 0.17428 0.0
C1853 C 0.56281 0.01071 0.16756 0.0
H1854 H 0.97725 0.57241 0.08505 0.0
H1855 H 0.00861 0.62916 0.11121 0.0
H1856 H 0.00841 0.6167 0.14241 0.0
H1857 H 0.94976 0.54967 0.12649 0.0
H1858 H 0.95155 0.52894 0.12223 0.0
H1859 H 0.95131 0.5421 0.10262 0.0
H1860 H 0.98216 0.54542 0.09267 0.0
H1861 H 0.98258 0.53243 0.1123 0.0
H1862 H 1.00183 0.55556 0.10969 0.0
H1863 H 0.00762 0.59855 0.16988 0.0
H1864 H 0.00687 0.57585 0.19192 0.0
H1865 H 0.97766 0.5307 0.14779 0.0
C1866 C 0.98348 0.58211 0.09751 0.0
C1867 C 0.99264 0.60171 0.0959 0.0
C1868 C 1.00133 0.61409 0.11229 0.0
C1869 C 1.00126 0.60714 0.13004 0.0
C1870 C 0.99259 0.58776 0.13114 0.0
C1871 C 0.98384 0.57538 0.11534 0.0
C1872 C 0.97739 0.55533 0.12007 0.0
C1873 C 0.95624 0.5433 0.11771 0.0
C1874 C 0.98654 0.54669 0.10797 0.0
C1875 C 0.98427 0.55847 0.14081 0.0
C1876 C 0.99274 0.57725 0.14696 0.0
C1877 C 1.00091 0.58377 0.16529 0.0
C1878 C 1.00057 0.57079 0.17765 0.0
C1879 C 0.99229 0.55148 0.17161 0.0
C1880 C 0.98385 0.54529 0.15297 0.0
H1881 H 0.40367 0.42397 0.07638 0.0
H1882 H 0.43379 0.39791 0.05426 0.0
H1883 H 0.45451 0.4094 0.08347 0.0
H1884 H 0.44275 0.46533 0.09945 0.0
H1885 H 0.43051 0.46608 0.11962 0.0
H1886 H 0.41819 0.45607 0.09684 0.0
H1887 H 0.39621 0.42505 0.11179 0.0
H1888 H 0.40839 0.43499 0.13464 0.0
H1889 H 0.40577 0.41318 0.12476 0.0
H1890 H 0.472 0.4238 0.1151 0.0
H1891 H 0.48422 0.43895 0.14736 0.0
H1892 H 0.4421 0.4548 0.14914 0.0
C1893 C 0.41465 0.4207 0.07763 0.0
C1894 C 0.41712 0.41007 0.06296 0.0
C1895 C 0.43159 0.40601 0.06527 0.0
C1896 C 0.44347 0.41252 0.0818 0.0
C1897 C 0.44067 0.42301 0.09593 0.0
C1898 C 0.42656 0.42699 0.09406 0.0
C1899 C 0.42626 0.43817 0.11153 0.0
C1900 C 0.42963 0.45756 0.10656 0.0
C1901 C 0.40808 0.42719 0.12125 0.0
C1902 C 0.44242 0.43985 0.12353 0.0
C1903 C 0.45059 0.43109 0.11424 0.0
C1904 C 0.46568 0.43065 0.12254 0.0
C1905 C 0.47246 0.43923 0.14091 0.0
C1906 C 0.46412 0.44805 0.15084 0.0
C1907 C 0.44898 0.44843 0.14187 0.0
H1908 H 0.6897 0.76069 0.40388 0.0
H1909 H 0.6364 0.70937 0.39762 0.0
H1910 H 0.62585 0.72114 0.42435 0.0
H1911 H 0.6933 0.76639 0.45423 0.0
H1912 H 0.70391 0.79161 0.45528 0.0
H1913 H 0.70703 0.77933 0.43534 0.0
H1914 H 0.69438 0.79452 0.41233 0.0
H1915 H 0.69119 0.80683 0.43223 0.0
H1916 H 0.67202 0.79195 0.41548 0.0
H1917 H 0.62184 0.73774 0.45303 0.0
H1918 H 0.62447 0.75799 0.48109 0.0
H1919 H 0.67961 0.79947 0.46703 0.0
C1920 C 0.67579 0.75192 0.4081 0.0
C1921 C 0.66389 0.73407 0.3987 0.0
C1922 C 0.64575 0.7231 0.40459 0.0
C1923 C 0.63963 0.72966 0.41974 0.0
C1924 C 0.65172 0.74732 0.4287 0.0
C1925 C 0.66938 0.75834 0.42302 0.0
C1926 C 0.6797 0.77672 0.43511 0.0
C1927 C 0.697 0.77861 0.44561 0.0
C1928 C 0.68461 0.7935 0.42306 0.0
C1929 C 0.66523 0.77415 0.44873 0.0
C1930 C 0.64918 0.75713 0.4448 0.0
C1931 C 0.63423 0.75125 0.45607 0.0
C1932 C 0.63582 0.76297 0.47192 0.0
C1933 C 0.65221 0.78048 0.47634 0.0
C1934 C 0.66693 0.78616 0.46427 0.0
H1935 H 0.25977 0.92568 0.45084 0.0
H1936 H 0.2945 0.90133 0.44136 0.0
H1937 H 0.27994 0.88011 0.46698 0.0
H1938 H 0.25981 0.92353 0.50246 0.0
H1939 H 0.23613 0.91789 0.50289 0.0
H1940 H 0.2502 0.93187 0.48473 0.0
H1941 H 0.22603 0.90822 0.45882 0.0
H1942 H 0.21197 0.89408 0.47687 0.0
H1943 H 0.21934 0.88374 0.45866 0.0
H1944 H 0.25984 0.86001 0.4922 0.0
H1945 H 0.2369 0.84358 0.5156 0.0
H1946 H 0.21605 0.88188 0.50895 0.0
C1947 C 0.26452 0.91606 0.45426 0.0
C1948 C 0.27832 0.9152 0.44405 0.0
C1949 C 0.28404 0.90233 0.44901 0.0
C1950 C 0.27581 0.8902 0.46352 0.0
C1951 C 0.26199 0.8912 0.47302 0.0
C1952 C 0.25653 0.90394 0.46868 0.0
C1953 C 0.24105 0.9019 0.48058 0.0
C1954 C 0.24717 0.91986 0.49343 0.0
C1955 C 0.22357 0.89667 0.46798 0.0
C1956 C 0.23839 0.88578 0.4921 0.0
C1957 C 0.25062 0.87982 0.48759 0.0
C1958 C 0.25037 0.86473 0.496 0.0
C1959 C 0.23732 0.85554 0.50937 0.0
C1960 C 0.22466 0.86145 0.51429 0.0
C1961 C 0.22536 0.87685 0.50547 0.0
H1962 H 0.06967 0.31429 0.41859 0.0
H1963 H 0.11114 0.36713 0.39852 0.0
H1964 H 0.1318 0.37217 0.42679 0.0
H1965 H 0.07778 0.33089 0.46835 0.0
H1966 H 0.07358 0.30877 0.47653 0.0
H1967 H 0.06228 0.30926 0.45457 0.0
H1968 H 0.07553 0.29084 0.4369 0.0
H1969 H 0.08699 0.29043 0.45878 0.0
H1970 H 0.1001 0.3 0.43841 0.0
H1971 H 0.14852 0.37052 0.4564 0.0
H1972 H 0.15897 0.36404 0.48668 0.0
H1973 H 0.10536 0.3137 0.48887 0.0
C1974 C 0.08311 0.32692 0.42015 0.0
C1975 C 0.08888 0.34028 0.40631 0.0
C1976 C 0.10645 0.35675 0.40898 0.0
C1977 C 0.1183 0.35968 0.42493 0.0
C1978 C 0.11225 0.34617 0.43823 0.0
C1979 C 0.09495 0.33026 0.43617 0.0
C1980 C 0.09155 0.31824 0.45285 0.0
C1981 C 0.07534 0.31671 0.46372 0.0
C1982 C 0.08836 0.29873 0.44634 0.0
C1983 C 0.10972 0.32976 0.46451 0.0
C1984 C 0.12152 0.34571 0.45575 0.0
C1985 C 0.13928 0.35821 0.46355 0.0
C1986 C 0.14504 0.35445 0.48088 0.0
C1987 C 0.133 0.33844 0.49048 0.0
C1988 C 0.1151 0.32595 0.48198 0.0
H1989 H 0.09567 0.34761 0.30425 0.0
H1990 H 0.05147 0.28948 0.30219 0.0
H1991 H 0.06205 0.28303 0.27203 0.0
H1992 H 0.09476 0.35327 0.25394 0.0
H1993 H 0.11947 0.36766 0.25376 0.0
H1994 H 0.10809 0.36779 0.27487 0.0
H1995 H 0.12892 0.35879 0.29438 0.0
H1996 H 0.14039 0.35868 0.27335 0.0
H1997 H 0.12986 0.33814 0.28675 0.0
H1998 H 0.07763 0.28299 0.24203 0.0
H1999 H 0.09745 0.28908 0.21516 0.0
H2000 H 0.1321 0.34695 0.23773 0.0
C2001 C 0.08812 0.33353 0.29744 0.0
C2002 C 0.07267 0.31906 0.30558 0.0
C2003 C 0.06333 0.3008 0.29624 0.0
C2004 C 0.06921 0.29701 0.27909 0.0
C2005 C 0.08451 0.3116 0.27149 0.0
C2006 C 0.09387 0.32947 0.28041 0.0
C2007 C 0.11021 0.34256 0.2696 0.0
C2008 C 0.10799 0.35877 0.26263 0.0
C2009 C 0.12842 0.34997 0.28175 0.0
C2010 C 0.1086 0.32926 0.25318 0.0
C2011 C 0.09365 0.31149 0.25446 0.0
C2012 C 0.08942 0.29684 0.24093 0.0
C2013 C 0.10085 0.30042 0.22577 0.0
C2014 C 0.11641 0.31849 0.22428 0.0
C2015 C 0.1202 0.33305 0.23822 0.0
H2016 H 0.66786 0.74262 0.30277 0.0
H2017 H 0.72292 0.75019 0.3043 0.0
H2018 H 0.72967 0.76907 0.27625 0.0
H2019 H 0.6597 0.73926 0.25197 0.0
H2020 H 0.64786 0.75243 0.2528 0.0
H2021 H 0.64722 0.73886 0.27236 0.0
H2022 H 0.66012 0.76861 0.29555 0.0
H2023 H 0.66077 0.78225 0.27607 0.0
H2024 H 0.68141 0.78933 0.29098 0.0
H2025 H 0.72996 0.78671 0.24751 0.0
H2026 H 0.72461 0.80315 0.22189 0.0
H2027 H 0.67024 0.78609 0.24141 0.0
C2028 C 0.68129 0.74808 0.29711 0.0
C2029 C 0.69482 0.74478 0.30557 0.0
C2030 C 0.71235 0.75251 0.29798 0.0
C2031 C 0.71628 0.76321 0.28204 0.0
C2032 C 0.70261 0.76624 0.27407 0.0
C2033 C 0.68554 0.75904 0.28149 0.0
C2034 C 0.67353 0.76501 0.27092 0.0
C2035 C 0.65605 0.74787 0.26145 0.0
C2036 C 0.66868 0.77702 0.28417 0.0
C2037 C 0.68644 0.77661 0.25629 0.0
C2038 C 0.70309 0.77704 0.2582 0.0
C2039 C 0.71703 0.78662 0.24602 0.0
C2040 C 0.71389 0.79607 0.23157 0.0
C2041 C 0.69701 0.7961 0.22952 0.0
C2042 C 0.6832 0.7862 0.2422 0.0
H2043 H 0.26168 0.94243 0.3348 0.0
H2044 H 0.2549 0.8919 0.35855 0.0
H2045 H 0.23388 0.8727 0.33101 0.0
H2046 H 0.2147 0.92212 0.3119 0.0
H2047 H 0.22266 0.93502 0.29102 0.0
H2048 H 0.23544 0.94482 0.31365 0.0
H2049 H 0.26491 0.94847 0.29918 0.0
H2050 H 0.25224 0.93876 0.27654 0.0
H2051 H 0.26428 0.92825 0.28749 0.0
H2052 H 0.21498 0.85907 0.30076 0.0
H2053 H 0.2013 0.85181 0.26787 0.0
H2054 H 0.22164 0.9111 0.26208 0.0
C2055 C 0.25545 0.9273 0.33428 0.0
C2056 C 0.2597 0.91856 0.34882 0.0
C2057 C 0.25176 0.8988 0.34752 0.0
C2058 C 0.23973 0.88778 0.33202 0.0
C2059 C 0.23594 0.89676 0.31779 0.0
C2060 C 0.24368 0.91607 0.31861 0.0
C2061 C 0.23867 0.92218 0.30045 0.0
C2062 C 0.22718 0.93159 0.30451 0.0
C2063 C 0.25606 0.93518 0.29032 0.0
C2064 C 0.22716 0.90332 0.28928 0.0
C2065 C 0.22554 0.88887 0.29975 0.0
C2066 C 0.21612 0.87025 0.2924 0.0
C2067 C 0.20849 0.86628 0.27367 0.0
C2068 C 0.21051 0.88088 0.26236 0.0
C2069 C 0.21966 0.89961 0.27045 0.0
H2070 H 0.66113 0.92962 0.31175 0.0
H2071 H 0.7131 0.94829 0.34405 0.0
H2072 H 0.72215 0.93309 0.31904 0.0
H2073 H 0.65306 0.8851 0.29555 0.0
H2074 H 0.64354 0.88514 0.27226 0.0
H2075 H 0.64163 0.89844 0.29207 0.0
H2076 H 0.65758 0.92872 0.27397 0.0
H2077 H 0.65936 0.91547 0.25399 0.0
H2078 H 0.67974 0.93589 0.26477 0.0
H2079 H 0.72446 0.9138 0.29134 0.0
H2080 H 0.7207 0.89389 0.26237 0.0
H2081 H 0.66769 0.88908 0.24797 0.0
C2082 C 0.67451 0.9307 0.31351 0.0
C2083 C 0.68639 0.94012 0.3299 0.0
C2084 C 0.7038 0.94123 0.33158 0.0
C2085 C 0.70903 0.93258 0.31748 0.0
C2086 C 0.6968 0.92308 0.30169 0.0
C2087 C 0.68001 0.92233 0.29952 0.0
C2088 C 0.66925 0.91108 0.28136 0.0
C2089 C 0.65078 0.89392 0.28557 0.0
C2090 C 0.66632 0.92353 0.26772 0.0
C2091 C 0.68241 0.90523 0.27384 0.0
C2092 C 0.69825 0.9123 0.28571 0.0
C2093 C 0.7122 0.90837 0.28184 0.0
C2094 C 0.70995 0.89708 0.26533 0.0
C2095 C 0.69388 0.88984 0.25286 0.0
C2096 C 0.68001 0.89407 0.2573 0.0
H2097 H 0.07947 0.73986 0.2897 0.0
H2098 H 0.05885 0.77516 0.31242 0.0
H2099 H 0.07365 0.79709 0.28747 0.0
H2100 H 0.123 0.77633 0.27894 0.0
H2101 H 0.12407 0.76458 0.25729 0.0
H2102 H 0.11084 0.75102 0.27608 0.0
H2103 H 0.08175 0.73359 0.2528 0.0
H2104 H 0.09493 0.74702 0.23388 0.0
H2105 H 0.07414 0.74697 0.23957 0.0
H2106 H 0.09266 0.81634 0.26142 0.0
H2107 H 0.11347 0.83085 0.23583 0.0
H2108 H 0.12063 0.78227 0.22944 0.0
C2109 C 0.07786 0.75209 0.28935 0.0
C2110 C 0.06798 0.75576 0.30307 0.0
C2111 C 0.06629 0.77198 0.30206 0.0
C2112 C 0.07466 0.78454 0.28794 0.0
C2113 C 0.08454 0.78061 0.27484 0.0
C2114 C 0.08604 0.76469 0.27533 0.0
C2115 C 0.09784 0.76395 0.25995 0.0
C2116 C 0.11495 0.76398 0.26859 0.0
C2117 C 0.08648 0.74687 0.24571 0.0
C2118 C 0.10308 0.78215 0.25095 0.0
C2119 C 0.09522 0.79152 0.25969 0.0
C2120 C 0.09865 0.80897 0.25429 0.0
C2121 C 0.11043 0.81706 0.23962 0.0
C2122 C 0.11865 0.8077 0.23041 0.0
C2123 C 0.11473 0.78992 0.23619 0.0
H2124 H 0.24545 0.31687 0.32318 0.0
H2125 H 0.27851 0.37716 0.33639 0.0
H2126 H 0.265 0.38246 0.30749 0.0
H2127 H 0.2481 0.31767 0.27244 0.0
H2128 H 0.22459 0.29912 0.2671 0.0
H2129 H 0.23681 0.29982 0.2889 0.0
H2130 H 0.21096 0.29947 0.30815 0.0
H2131 H 0.19865 0.29875 0.2864 0.0
H2132 H 0.20454 0.31706 0.30484 0.0
H2133 H 0.24913 0.38155 0.27677 0.0
H2134 H 0.23088 0.37454 0.2465 0.0
H2135 H 0.20608 0.31475 0.25368 0.0
C2136 C 0.24984 0.33117 0.31997 0.0
C2137 C 0.26309 0.3466 0.3321 0.0
C2138 C 0.26836 0.3651 0.32743 0.0
C2139 C 0.26079 0.36828 0.31099 0.0
C2140 C 0.24779 0.35283 0.29938 0.0
C2141 C 0.24223 0.33463 0.30366 0.0
C2142 C 0.22782 0.3206 0.28875 0.0
C2143 C 0.23475 0.30859 0.27871 0.0
C2144 C 0.2094 0.30824 0.29757 0.0
C2145 C 0.22634 0.3338 0.2754 0.0
C2146 C 0.23806 0.35231 0.28182 0.0
C2147 C 0.23967 0.36711 0.27172 0.0
C2148 C 0.22903 0.36293 0.25456 0.0
C2149 C 0.21665 0.34406 0.24764 0.0
C2150 C 0.21536 0.32934 0.25837 0.0
H2151 H 0.26677 0.36027 0.43742 0.0
H2152 H 0.25928 0.30418 0.43255 0.0
H2153 H 0.24339 0.29705 0.46233 0.0
H2154 H 0.27308 0.36741 0.48971 0.0
H2155 H 0.25993 0.37922 0.49124 0.0
H2156 H 0.27242 0.3808 0.4705 0.0
H2157 H 0.24233 0.36821 0.44906 0.0
H2158 H 0.22977 0.36661 0.4697 0.0
H2159 H 0.22239 0.34617 0.45359 0.0
H2160 H 0.22741 0.2953 0.49164 0.0
H2161 H 0.21036 0.29826 0.51793 0.0
H2162 H 0.22621 0.35482 0.50354 0.0
C2163 C 0.26205 0.34663 0.44285 0.0
C2164 C 0.26438 0.33281 0.43275 0.0
C2165 C 0.25764 0.31496 0.44004 0.0
C2166 C 0.24868 0.3108 0.457 0.0
C2167 C 0.24637 0.32458 0.46649 0.0
C2168 C 0.25271 0.34209 0.45968 0.0
C2169 C 0.24709 0.35375 0.47199 0.0
C2170 C 0.26415 0.37134 0.48142 0.0
C2171 C 0.23466 0.35899 0.46039 0.0
C2172 C 0.23643 0.33994 0.48659 0.0
C2173 C 0.23645 0.32332 0.48322 0.0
C2174 C 0.22726 0.30824 0.49441 0.0
C2175 C 0.21749 0.31002 0.50925 0.0
C2176 C 0.21673 0.32668 0.51274 0.0
C2177 C 0.22663 0.34196 0.50138 0.0
H2178 H 0.67376 0.93834 0.43498 0.0
H2179 H 0.61948 0.90316 0.40632 0.0
H2180 H 0.61141 0.8809 0.43158 0.0
H2181 H 0.68096 0.90212 0.44841 0.0
H2182 H 0.69275 0.91361 0.47107 0.0
H2183 H 0.69356 0.92741 0.4517 0.0
H2184 H 0.68059 0.94429 0.47246 0.0
H2185 H 0.67988 0.93064 0.49198 0.0
H2186 H 0.65929 0.93055 0.48359 0.0
H2187 H 0.61041 0.86131 0.45899 0.0
H2188 H 0.61619 0.84666 0.4862 0.0
H2189 H 0.67097 0.89543 0.4968 0.0
C2190 C 0.66006 0.92608 0.43405 0.0
C2191 C 0.64725 0.9225 0.41862 0.0
C2192 C 0.6295 0.90626 0.41804 0.0
C2193 C 0.62481 0.89353 0.43231 0.0
C2194 C 0.63797 0.89735 0.44712 0.0
C2195 C 0.65518 0.91335 0.44813 0.0
C2196 C 0.66715 0.91401 0.46503 0.0
C2197 C 0.68463 0.9143 0.45866 0.0
C2198 C 0.672 0.93087 0.4791 0.0
C2199 C 0.65417 0.89565 0.47322 0.0
C2200 C 0.63736 0.88626 0.4628 0.0
C2201 C 0.62345 0.86868 0.46737 0.0
C2202 C 0.62684 0.8605 0.48292 0.0
C2203 C 0.64403 0.86988 0.49373 0.0
C2204 C 0.65774 0.88777 0.48878 0.0
H2205 H 0.08118 0.76039 0.4051 0.0
H2206 H 0.08977 0.71327 0.39352 0.0
H2207 H 0.10948 0.72213 0.42342 0.0
H2208 H 0.12758 0.79292 0.42578 0.0
H2209 H 0.1196 0.80347 0.4431 0.0
H2210 H 0.10685 0.79378 0.42046 0.0
H2211 H 0.07736 0.77256 0.43758 0.0
H2212 H 0.08999 0.78216 0.46025 0.0
H2213 H 0.07791 0.75714 0.45458 0.0
H2214 H 0.12664 0.73516 0.45583 0.0
H2215 H 0.14001 0.75135 0.48752 0.0
H2216 H 0.12143 0.79087 0.47658 0.0
C2217 C 0.08726 0.75196 0.40876 0.0
C2218 C 0.08387 0.73609 0.39697 0.0
C2219 C 0.09219 0.7255 0.4023 0.0
C2220 C 0.10341 0.73044 0.41925 0.0
C2221 C 0.10634 0.7461 0.43059 0.0
C2222 C 0.0986 0.75677 0.42546 0.0
C2223 C 0.10356 0.77274 0.44023 0.0
C2224 C 0.11509 0.79186 0.43189 0.0
C2225 C 0.08617 0.77103 0.44866 0.0
C2226 C 0.115 0.76918 0.45469 0.0
C2227 C 0.11652 0.75381 0.4489 0.0
C2228 C 0.12575 0.74738 0.46038 0.0
C2229 C 0.13342 0.75677 0.47834 0.0
C2230 C 0.13186 0.77246 0.48465 0.0
C2231 C 0.12276 0.77883 0.47239 0.0
H2232 H 0.31788 0.06929 0.73052 0.0
H2233 H 0.37112 0.07483 0.7457 0.0
H2234 H 0.37332 0.09238 0.77566 0.0
H2235 H 0.32966 0.11536 0.74876 0.0
H2236 H 0.30741 0.10839 0.75761 0.0
H2237 H 0.30925 0.09523 0.73759 0.0
H2238 H 0.29278 0.06474 0.75526 0.0
H2239 H 0.29083 0.0778 0.77532 0.0
H2240 H 0.30186 0.06406 0.77856 0.0
H2241 H 0.37045 0.10968 0.80342 0.0
H2242 H 0.36272 0.12632 0.82784 0.0
H2243 H 0.31175 0.11097 0.79502 0.0
C2244 C 0.32989 0.07404 0.74026 0.0
C2245 C 0.34433 0.07066 0.73574 0.0
C2246 C 0.35992 0.07729 0.74877 0.0
C2247 C 0.36129 0.08724 0.76588 0.0
C2248 C 0.34701 0.09055 0.7698 0.0
C2249 C 0.33159 0.08419 0.75744 0.0
C2250 C 0.31856 0.09032 0.76502 0.0
C2251 C 0.31608 0.10308 0.75144 0.0
C2252 C 0.2999 0.07321 0.76876 0.0
C2253 C 0.32919 0.10119 0.78346 0.0
C2254 C 0.3455 0.101 0.78588 0.0
C2255 C 0.35778 0.11005 0.80166 0.0
C2256 C 0.35333 0.11963 0.81536 0.0
C2257 C 0.3368 0.12028 0.81319 0.0
C2258 C 0.3245 0.11077 0.79705 0.0
H2259 H 0.93547 0.22945 0.77683 0.0
H2260 H 0.94165 0.28438 0.7892 0.0
H2261 H 0.9245 0.27327 0.818 0.0
H2262 H 0.88937 0.20396 0.78933 0.0
H2263 H 0.89131 0.18527 0.79942 0.0
H2264 H 0.90606 0.19804 0.78113 0.0
H2265 H 0.9349 0.20634 0.80311 0.0
H2266 H 0.92022 0.1935 0.82146 0.0
H2267 H 0.93785 0.21776 0.82639 0.0
H2268 H 0.90551 0.25595 0.8445 0.0
H2269 H 0.88491 0.23335 0.86632 0.0
H2270 H 0.88882 0.18876 0.83556 0.0
C2271 C 0.93359 0.23923 0.7859 0.0
C2272 C 0.94012 0.25787 0.78099 0.0
C2273 C 0.93688 0.2701 0.79282 0.0
C2274 C 0.92718 0.26392 0.80921 0.0
C2275 C 0.9206 0.24538 0.81348 0.0
C2276 C 0.92358 0.23315 0.80215 0.0
C2277 C 0.91365 0.21352 0.80911 0.0
C2278 C 0.89924 0.19937 0.79383 0.0
C2279 C 0.92748 0.20742 0.81539 0.0
C2280 C 0.90451 0.2166 0.82597 0.0
C2281 C 0.9089 0.23513 0.82835 0.0
C2282 C 0.90193 0.24138 0.84275 0.0
C2283 C 0.89006 0.22835 0.85498 0.0
C2284 C 0.88498 0.20913 0.85266 0.0
C2285 C 0.89251 0.20332 0.83796 0.0
H2286 H 0.75255 0.65315 0.74694 0.0
H2287 H 0.76524 0.71118 0.74961 0.0
H2288 H 0.78301 0.71723 0.78027 0.0
H2289 H 0.74666 0.64642 0.79619 0.0
H2290 H 0.75734 0.63217 0.79749 0.0
H2291 H 0.74601 0.63246 0.77546 0.0
H2292 H 0.776 0.64226 0.75837 0.0
H2293 H 0.78743 0.64197 0.78035 0.0
H2294 H 0.79716 0.66286 0.76744 0.0
H2295 H 0.79795 0.71658 0.81142 0.0
H2296 H 0.80978 0.70957 0.84045 0.0
H2297 H 0.78906 0.65245 0.81673 0.0
C2298 C 0.75912 0.66715 0.75392 0.0
C2299 C 0.75745 0.68168 0.74584 0.0
C2300 C 0.76633 0.69982 0.75546 0.0
C2301 C 0.77645 0.7034 0.7729 0.0
C2302 C 0.77774 0.68877 0.78049 0.0
C2303 C 0.76944 0.67104 0.77127 0.0
C2304 C 0.77289 0.65776 0.78259 0.0
C2305 C 0.75464 0.64123 0.78827 0.0
C2306 C 0.78404 0.65081 0.77153 0.0
C2307 C 0.78419 0.67073 0.79975 0.0
C2308 C 0.78683 0.68854 0.79825 0.0
C2309 C 0.79622 0.70275 0.81264 0.0
C2310 C 0.80304 0.69865 0.82905 0.0
C2311 C 0.8006 0.68048 0.83097 0.0
C2312 C 0.79113 0.66645 0.81593 0.0
H2313 H 0.76757 0.6873 0.64476 0.0
H2314 H 0.71882 0.63174 0.63881 0.0
H2315 H 0.72902 0.6252 0.60843 0.0
H2316 H 0.76988 0.69659 0.59534 0.0
H2317 H 0.79471 0.70837 0.59612 0.0
H2318 H 0.78333 0.70881 0.61712 0.0
H2319 H 0.80035 0.69492 0.63576 0.0
H2320 H 0.81183 0.69451 0.61485 0.0
H2321 H 0.79861 0.67327 0.62668 0.0
H2322 H 0.74447 0.62502 0.57833 0.0
H2323 H 0.76455 0.63051 0.55184 0.0
H2324 H 0.80403 0.68554 0.57865 0.0
C2325 C 0.75897 0.67378 0.63704 0.0
C2326 C 0.74232 0.66006 0.64413 0.0
C2327 C 0.73162 0.64246 0.63368 0.0
C2328 C 0.73727 0.63864 0.61638 0.0
C2329 C 0.75375 0.6525 0.60981 0.0
C2330 C 0.76451 0.66966 0.6199 0.0
C2331 C 0.7819 0.68193 0.61005 0.0
C2332 C 0.78248 0.69999 0.60432 0.0
C2333 C 0.79919 0.68641 0.62258 0.0
C2334 C 0.77923 0.66904 0.59279 0.0
C2335 C 0.76287 0.65218 0.59283 0.0
C2336 C 0.75738 0.63813 0.57824 0.0
C2337 C 0.76898 0.64135 0.5633 0.0
C2338 C 0.78601 0.65844 0.56308 0.0
C2339 C 0.79105 0.67242 0.57811 0.0
H2340 H 0.3321 0.0614 0.62397 0.0
H2341 H 0.38888 0.09245 0.64735 0.0
H2342 H 0.39647 0.115 0.62254 0.0
H2343 H 0.34313 0.0684 0.57359 0.0
H2344 H 0.32308 0.07025 0.56749 0.0
H2345 H 0.32257 0.05591 0.58625 0.0
H2346 H 0.31318 0.0745 0.60937 0.0
H2347 H 0.31388 0.08904 0.59078 0.0
H2348 H 0.32754 0.09969 0.61282 0.0
H2349 H 0.39675 0.13626 0.59778 0.0
H2350 H 0.39077 0.15286 0.57298 0.0
H2351 H 0.33446 0.10618 0.5636 0.0
C2352 C 0.3462 0.07277 0.62368 0.0
C2353 C 0.3599 0.0752 0.63761 0.0
C2354 C 0.3782 0.09024 0.63674 0.0
C2355 C 0.38262 0.10316 0.62275 0.0
C2356 C 0.36867 0.10061 0.60951 0.0
C2357 C 0.35092 0.08557 0.60961 0.0
C2358 C 0.33841 0.08618 0.59398 0.0
C2359 C 0.33139 0.06917 0.57946 0.0
C2360 C 0.32231 0.08743 0.60224 0.0
C2361 C 0.35175 0.10424 0.58544 0.0
C2362 C 0.36911 0.11237 0.59463 0.0
C2363 C 0.38334 0.12977 0.59014 0.0
C2364 C 0.37979 0.13905 0.57584 0.0
C2365 C 0.36217 0.13086 0.56589 0.0
C2366 C 0.34807 0.11308 0.57083 0.0
H2367 H 0.92818 0.26975 0.66785 0.0
H2368 H 0.92474 0.21935 0.68859 0.0
H2369 H 0.90617 0.20112 0.65952 0.0
H2370 H 0.88163 0.24675 0.64349 0.0
H2371 H 0.88921 0.26142 0.62377 0.0
H2372 H 0.90088 0.27041 0.64701 0.0
H2373 H 0.93197 0.27854 0.63311 0.0
H2374 H 0.92041 0.26959 0.60987 0.0
H2375 H 0.93398 0.26039 0.62011 0.0
H2376 H 0.88995 0.18865 0.62774 0.0
H2377 H 0.87743 0.18279 0.59442 0.0
H2378 H 0.89126 0.24096 0.59348 0.0
C2379 C 0.92325 0.25483 0.66639 0.0
C2380 C 0.92787 0.24598 0.68056 0.0
C2381 C 0.92142 0.22647 0.67796 0.0
C2382 C 0.91078 0.21595 0.66152 0.0
C2383 C 0.90667 0.2251 0.64774 0.0
C2384 C 0.91268 0.24408 0.64993 0.0
C2385 C 0.90726 0.2506 0.63232 0.0
C2386 C 0.89395 0.25771 0.63693 0.0
C2387 C 0.92443 0.26567 0.62332 0.0
C2388 C 0.8976 0.23238 0.61982 0.0
C2389 C 0.8973 0.21784 0.62913 0.0
C2390 C 0.88996 0.19987 0.62034 0.0
C2391 C 0.88296 0.19669 0.60141 0.0
C2392 C 0.88339 0.21141 0.59144 0.0
C2393 C 0.89053 0.22941 0.60089 0.0
H2394 H 0.32587 0.25701 0.65369 0.0
H2395 H 0.38147 0.28676 0.6804 0.0
H2396 H 0.39171 0.27307 0.65502 0.0
H2397 H 0.32524 0.21476 0.63828 0.0
H2398 H 0.31238 0.21159 0.61609 0.0
H2399 H 0.30949 0.22358 0.63646 0.0
H2400 H 0.31787 0.25249 0.61711 0.0
H2401 H 0.32067 0.24054 0.59665 0.0
H2402 H 0.33927 0.26331 0.60558 0.0
H2403 H 0.39556 0.25535 0.62673 0.0
H2404 H 0.39301 0.23653 0.59731 0.0
H2405 H 0.33521 0.22008 0.58875 0.0
C2406 C 0.3402 0.26062 0.65427 0.0
C2407 C 0.35285 0.27288 0.6691 0.0
C2408 C 0.37153 0.27741 0.66917 0.0
C2409 C 0.37746 0.26966 0.65485 0.0
C2410 C 0.36458 0.25755 0.64048 0.0
C2411 C 0.34638 0.25321 0.64003 0.0
C2412 C 0.33534 0.24025 0.62283 0.0
C2413 C 0.31969 0.22143 0.62878 0.0
C2414 C 0.32785 0.24972 0.60977 0.0
C2415 C 0.35012 0.23783 0.61372 0.0
C2416 C 0.36688 0.24782 0.62411 0.0
C2417 C 0.38251 0.24756 0.61843 0.0
C2418 C 0.38094 0.23689 0.60164 0.0
C2419 C 0.3639 0.2267 0.59066 0.0
C2420 C 0.34837 0.22731 0.59692 0.0
H2421 H 0.75027 0.07673 0.62585 0.0
H2422 H 0.72779 0.11134 0.64554 0.0
H2423 H 0.74318 0.13297 0.62052 0.0
H2424 H 0.79402 0.11383 0.61601 0.0
H2425 H 0.79611 0.10185 0.59509 0.0
H2426 H 0.78246 0.08853 0.61378 0.0
H2427 H 0.75413 0.07 0.5897 0.0
H2428 H 0.76773 0.0832 0.57089 0.0
H2429 H 0.74644 0.08264 0.57532 0.0
H2430 H 0.76255 0.15178 0.59439 0.0
H2431 H 0.78368 0.16584 0.56889 0.0
H2432 H 0.79276 0.11838 0.56593 0.0
C2433 C 0.7484 0.08874 0.62483 0.0
C2434 C 0.73779 0.09231 0.6377 0.0
C2435 C 0.73579 0.10826 0.63584 0.0
C2436 C 0.7445 0.12065 0.62168 0.0
C2437 C 0.75506 0.11683 0.60942 0.0
C2438 C 0.75694 0.10119 0.61079 0.0
C2439 C 0.76941 0.10049 0.59619 0.0
C2440 C 0.78651 0.10122 0.60585 0.0
C2441 C 0.75879 0.08305 0.5822 0.0
C2442 C 0.77451 0.11834 0.58656 0.0
C2443 C 0.76605 0.12754 0.59433 0.0
C2444 C 0.76908 0.14458 0.58806 0.0
C2445 C 0.78104 0.15241 0.57348 0.0
C2446 C 0.78987 0.14322 0.56528 0.0
C2447 C 0.78641 0.12589 0.57195 0.0
H2448 H 0.91058 0.65254 0.66498 0.0
H2449 H 0.95217 0.71183 0.67145 0.0
H2450 H 0.93948 0.71704 0.64197 0.0
H2451 H 0.91027 0.64723 0.61402 0.0
H2452 H 0.8857 0.63156 0.61056 0.0
H2453 H 0.89786 0.63221 0.63239 0.0
H2454 H 0.87599 0.63923 0.65158 0.0
H2455 H 0.86376 0.6386 0.6298 0.0
H2456 H 0.87344 0.65904 0.64633 0.0
H2457 H 0.92331 0.71606 0.61162 0.0
H2458 H 0.90397 0.70905 0.58211 0.0
H2459 H 0.87153 0.65066 0.59521 0.0
C2460 C 0.91699 0.66661 0.66019 0.0
C2461 C 0.93241 0.68176 0.67061 0.0
C2462 C 0.94035 0.69997 0.66384 0.0
C2463 C 0.93326 0.7031 0.64706 0.0
C2464 C 0.91812 0.68794 0.63716 0.0
C2465 C 0.90999 0.67005 0.64343 0.0
C2466 C 0.89379 0.65631 0.62994 0.0
C2467 C 0.89711 0.64092 0.62121 0.0
C2468 C 0.87567 0.6478 0.64002 0.0
C2469 C 0.89422 0.6693 0.61512 0.0
C2470 C 0.90841 0.68746 0.61963 0.0
C2471 C 0.91198 0.70194 0.60804 0.0
C2472 C 0.90075 0.69782 0.59134 0.0
C2473 C 0.88592 0.67935 0.58636 0.0
C2474 C 0.8827 0.66492 0.59851 0.0
H2475 H 0.92098 0.65573 0.77602 0.0
H2476 H 0.95534 0.71595 0.77272 0.0
H2477 H 0.94197 0.7213 0.80134 0.0
H2478 H 0.881 0.65541 0.79066 0.0
H2479 H 0.87502 0.63716 0.80678 0.0
H2480 H 0.88776 0.63802 0.7865 0.0
H2481 H 0.91358 0.63889 0.80854 0.0
H2482 H 0.90084 0.63787 0.82889 0.0
H2483 H 0.9243 0.6567 0.82793 0.0
H2484 H 0.92288 0.71996 0.82871 0.0
H2485 H 0.9016 0.7123 0.85425 0.0
H2486 H 0.88152 0.65286 0.84134 0.0
C2487 C 0.92581 0.67005 0.78139 0.0
C2488 C 0.93918 0.68544 0.77207 0.0
C2489 C 0.94518 0.70395 0.77964 0.0
C2490 C 0.93762 0.70712 0.79586 0.0
C2491 C 0.92427 0.69164 0.80452 0.0
C2492 C 0.91862 0.67347 0.79771 0.0
C2493 C 0.9041 0.65929 0.80966 0.0
C2494 C 0.88589 0.64673 0.79768 0.0
C2495 C 0.91113 0.64749 0.81933 0.0
C2496 C 0.90218 0.67231 0.82404 0.0
C2497 C 0.91387 0.6909 0.82078 0.0
C2498 C 0.91394 0.70545 0.83164 0.0
C2499 C 0.90183 0.70091 0.84628 0.0
C2500 C 0.8899 0.68192 0.85022 0.0
C2501 C 0.89024 0.66751 0.83883 0.0
H2502 H 0.30584 0.24197 0.75398 0.0
H2503 H 0.34446 0.29798 0.77893 0.0
H2504 H 0.34518 0.28499 0.80947 0.0
H2505 H 0.28109 0.22265 0.7982 0.0
H2506 H 0.27913 0.2001 0.7929 0.0
H2507 H 0.2791 0.21394 0.77385 0.0
H2508 H 0.30646 0.21227 0.76003 0.0
H2509 H 0.30669 0.1986 0.77909 0.0
H2510 H 0.32732 0.22016 0.77487 0.0
H2511 H 0.3452 0.26619 0.83565 0.0
H2512 H 0.34386 0.24238 0.85654 0.0
H2513 H 0.30544 0.19805 0.81531 0.0
C2514 C 0.31391 0.25149 0.76609 0.0
C2515 C 0.32494 0.271 0.76419 0.0
C2516 C 0.33585 0.28301 0.78013 0.0
C2517 C 0.33631 0.27577 0.79755 0.0
C2518 C 0.3258 0.25645 0.79885 0.0
C2519 C 0.31469 0.24443 0.78364 0.0
C2520 C 0.30624 0.22408 0.78842 0.0
C2521 C 0.28514 0.21464 0.78834 0.0
C2522 C 0.31203 0.21314 0.7748 0.0
C2523 C 0.31484 0.2266 0.8084 0.0
C2524 C 0.3259 0.24542 0.81416 0.0
C2525 C 0.33636 0.2514 0.83146 0.0
C2526 C 0.33561 0.23781 0.84316 0.0
C2527 C 0.32452 0.21844 0.83754 0.0
C2528 C 0.31379 0.21277 0.82005 0.0
H2529 H 0.75521 0.09926 0.73635 0.0
H2530 H 0.75024 0.04423 0.73195 0.0
H2531 H 0.76857 0.0518 0.76263 0.0
H2532 H 0.80274 0.1244 0.75759 0.0
H2533 H 0.7987 0.14015 0.77247 0.0
H2534 H 0.78589 0.13059 0.74983 0.0
H2535 H 0.75524 0.11757 0.76648 0.0
H2536 H 0.76793 0.12701 0.78915 0.0
H2537 H 0.75107 0.10235 0.78552 0.0
H2538 H 0.78481 0.0644 0.79533 0.0
H2539 H 0.79917 0.08147 0.82629 0.0
H2540 H 0.79616 0.1295 0.80769 0.0
C2541 C 0.75809 0.08884 0.74177 0.0
C2542 C 0.75123 0.07112 0.73183 0.0
C2543 C 0.75541 0.05792 0.73931 0.0
C2544 C 0.76579 0.06208 0.75673 0.0
C2545 C 0.77216 0.07963 0.76627 0.0
C2546 C 0.76869 0.0929 0.75891 0.0
C2547 C 0.77695 0.11064 0.772 0.0
C2548 C 0.79197 0.12744 0.7624 0.0
C2549 C 0.7619 0.11461 0.77868 0.0
C2550 C 0.78517 0.10511 0.78817 0.0
C2551 C 0.78226 0.08718 0.78463 0.0
C2552 C 0.78753 0.07861 0.79807 0.0
C2553 C 0.79587 0.08856 0.81563 0.0
C2554 C 0.79909 0.10704 0.81961 0.0
C2555 C 0.79386 0.1154 0.8054 0.0
H2556 H 0.08101 0.38071 0.04386 0.0
H2557 H 0.02611 0.33244 0.04603 0.0
H2558 H 0.03877 0.31781 0.06701 0.0
H2559 H 0.10616 0.35453 0.04491 0.0
H2560 H 0.12523 0.37293 0.05959 0.0
H2561 H 0.11208 0.37865 0.04326 0.0
H2562 H 0.10577 0.39585 0.07104 0.0
H2563 H 0.11869 0.39 0.08747 0.0
H2564 H 0.09517 0.38335 0.09152 0.0
H2565 H 0.05718 0.30961 0.08996 0.0
H2566 H 0.07996 0.30811 0.11195 0.0
H2567 H 0.12273 0.36163 0.09445 0.0
C2568 C 0.07168 0.36688 0.0484 0.0
C2569 C 0.05255 0.35769 0.04319 0.0
C2570 C 0.04082 0.33972 0.0497 0.0
C2571 C 0.04789 0.3313 0.06167 0.0
C2572 C 0.06674 0.34097 0.06693 0.0
C2573 C 0.0785 0.35829 0.06034 0.0
C2574 C 0.09806 0.36615 0.06878 0.0
C2575 C 0.11115 0.36818 0.05321 0.0
C2576 C 0.10481 0.38495 0.08039 0.0
C2577 C 0.09538 0.35079 0.0815 0.0
C2578 C 0.07727 0.33631 0.08015 0.0
C2579 C 0.07144 0.32079 0.09096 0.0
C2580 C 0.08449 0.32004 0.1034 0.0
C2581 C 0.10314 0.33477 0.10504 0.0
C2582 C 0.10855 0.35026 0.0938 0.0
H2583 H 0.66606 0.68416 0.08738 0.0
H2584 H 0.62171 0.67677 0.04791 0.0
H2585 H 0.62863 0.70894 0.05715 0.0
H2586 H 0.65698 0.7073 0.12372 0.0
H2587 H 0.68062 0.72345 0.13193 0.0
H2588 H 0.6745 0.70112 0.12011 0.0
H2589 H 0.69851 0.71786 0.09535 0.0
H2590 H 0.70483 0.7403 0.1072 0.0
H2591 H 0.69762 0.7357 0.08224 0.0
H2592 H 0.63731 0.73974 0.07318 0.0
H2593 H 0.64771 0.76796 0.095 0.0
H2594 H 0.68652 0.75616 0.1246 0.0
C2595 C 0.65825 0.68959 0.08026 0.0
C2596 C 0.64348 0.67807 0.06677 0.0
C2597 C 0.63314 0.6854 0.05819 0.0
C2598 C 0.63701 0.70367 0.06331 0.0
C2599 C 0.65125 0.71448 0.07706 0.0
C2600 C 0.66182 0.70782 0.08538 0.0
C2601 C 0.67512 0.72173 0.1011 0.0
C2602 C 0.67158 0.71286 0.12035 0.0
C2603 C 0.69521 0.72935 0.09617 0.0
C2604 C 0.66991 0.7369 0.10071 0.0
C2605 C 0.65626 0.73247 0.08654 0.0
C2606 C 0.6482 0.74353 0.08412 0.0
C2607 C 0.65411 0.75944 0.0966 0.0
C2608 C 0.66792 0.76416 0.11132 0.0
C2609 C 0.67615 0.75294 0.11323 0.0
H2610 H 0.32332 0.92959 0.04652 0.0
H2611 H 0.32748 0.98383 0.04131 0.0
H2612 H 0.2996 0.97352 0.05908 0.0
H2613 H 0.27247 0.90142 0.04253 0.0
H2614 H 0.27189 0.88567 0.05976 0.0
H2615 H 0.29123 0.89675 0.04518 0.0
H2616 H 0.31346 0.91011 0.07548 0.0
H2617 H 0.29421 0.89923 0.09014 0.0
H2618 H 0.31008 0.92417 0.09341 0.0
H2619 H 0.27288 0.95834 0.07973 0.0
H2620 H 0.2487 0.93905 0.10087 0.0
H2621 H 0.26129 0.89429 0.09193 0.0
C2622 C 0.31818 0.93918 0.04879 0.0
C2623 C 0.32757 0.95751 0.04244 0.0
C2624 C 0.3205 0.9697 0.04596 0.0
C2625 C 0.30467 0.96398 0.05606 0.0
C2626 C 0.29597 0.94597 0.06247 0.0
C2627 C 0.30237 0.93369 0.05886 0.0
C2628 C 0.29095 0.91542 0.06807 0.0
C2629 C 0.28105 0.89884 0.05298 0.0
C2630 C 0.30289 0.91205 0.08264 0.0
C2631 C 0.27738 0.91951 0.07774 0.0
C2632 C 0.28045 0.93716 0.07426 0.0
C2633 C 0.27016 0.94436 0.08232 0.0
C2634 C 0.25636 0.93323 0.09425 0.0
C2635 C 0.25292 0.91504 0.09805 0.0
C2636 C 0.26358 0.90815 0.0895 0.0
H2637 H 0.39703 0.06417 0.99436 0.0
H2638 H 0.34972 0.02805 0.02541 0.0
H2639 H 0.33397 0.04492 0.01466 0.0
H2640 H 0.39472 0.10738 1.00143 0.0
H2641 H 0.40102 0.11405 0.97768 0.0
H2642 H 0.40933 0.10053 0.98954 0.0
H2643 H 0.39541 0.07511 0.96138 0.0
H2644 H 0.387 0.0885 0.94949 0.0
H2645 H 0.37123 0.06447 0.95414 0.0
H2646 H 0.32282 0.06481 0.99922 0.0
H2647 H 0.31676 0.08547 0.9797 0.0
H2648 H 0.37058 0.107 0.95699 0.0
C2649 C 0.38354 0.06012 0.99927 0.0
C2650 C 0.37469 0.04499 0.01095 0.0
C2651 C 0.3568 0.03972 0.0166 0.0
C2652 C 0.34777 0.04922 0.01058 0.0
C2653 C 0.35673 0.06386 0.99876 0.0
C2654 C 0.37421 0.06925 0.99313 0.0
C2655 C 0.38022 0.08443 0.97923 0.0
C2656 C 0.39734 0.10268 0.98747 0.0
C2657 C 0.38366 0.07772 0.95992 0.0
C2658 C 0.36336 0.08663 0.97781 0.0
C2659 C 0.35004 0.07479 0.98932 0.0
C2660 C 0.33316 0.07413 0.99014 0.0
C2661 C 0.32978 0.08583 0.97885 0.0
C2662 C 0.34313 0.09791 0.96669 0.0
C2663 C 0.36016 0.09825 0.96632 0.0
H2664 H 0.96257 0.30047 0.00944 0.0
H2665 H 0.93547 0.33361 0.00748 0.0
H2666 H 0.90867 0.30738 0.98953 0.0
H2667 H 0.94759 0.27801 0.96357 0.0
H2668 H 0.94335 0.25528 0.96979 0.0
H2669 H 0.96033 0.27616 0.98365 0.0
H2670 H 0.94374 0.26287 0.01425 0.0
H2671 H 0.92689 0.2418 1.00053 0.0
H2672 H 0.91953 0.25514 0.01491 0.0
H2673 H 0.88689 0.27981 0.96827 0.0
H2674 H 0.86829 0.24981 0.94955 0.0
H2675 H 0.90703 0.2322 0.96794 0.0
C2676 C 0.95083 0.30203 0.00558 0.0
C2677 C 0.9512 0.31917 0.00986 0.0
C2678 C 0.93557 0.32067 0.00446 0.0
C2679 C 0.92027 0.30586 0.99414 0.0
C2680 C 0.92057 0.28944 0.9896 0.0
C2681 C 0.93516 0.28717 0.99553 0.0
C2682 C 0.9317 0.26786 0.98869 0.0
C2683 C 0.94663 0.26943 0.97565 0.0
C2684 C 0.93038 0.25623 0.00561 0.0
C2685 C 0.91314 0.25994 0.97766 0.0
C2686 C 0.90716 0.27278 0.97824 0.0
C2687 C 0.8911 0.26936 0.96819 0.0
C2688 C 0.88052 0.25211 0.95766 0.0
C2689 C 0.88571 0.23814 0.95756 0.0
C2690 C 0.90247 0.24236 0.9676 0.0
H2691 H 0.68769 0.63941 0.03327 0.0
H2692 H 0.69138 0.5994 0.06836 0.0
H2693 H 0.72007 0.60562 0.05384 0.0
H2694 H 0.70076 0.62568 0.99202 0.0
H2695 H 0.71375 0.64883 0.98359 0.0
H2696 H 0.69511 0.6435 0.99861 0.0
H2697 H 0.71723 0.67131 0.02246 0.0
H2698 H 0.73594 0.67682 0.00743 0.0
H2699 H 0.73813 0.67268 0.03198 0.0
H2700 H 0.74662 0.61393 0.03369 0.0
H2701 H 0.76916 0.62353 0.00912 0.0
H2702 H 0.74771 0.65722 0.98587 0.0
C2703 C 0.69487 0.63241 0.0383 0.0
C2704 C 0.68746 0.61912 0.05216 0.0
C2705 C 0.6969 0.60976 0.0579 0.0
C2706 C 0.71321 0.61321 0.04974 0.0
C2707 C 0.71989 0.62601 0.03575 0.0
C2708 C 0.71106 0.63551 0.03008 0.0
C2709 C 0.72022 0.64724 0.01356 0.0
C2710 C 0.70665 0.64093 0.99591 0.0
C2711 C 0.72837 0.66826 0.0192 0.0
C2712 C 0.73533 0.64255 0.01061 0.0
C2713 C 0.73499 0.63044 0.02372 0.0
C2714 C 0.74708 0.62349 0.02342 0.0
C2715 C 0.75974 0.62891 0.00929 0.0
C2716 C 0.76019 0.64106 0.99546 0.0
C2717 C 0.74791 0.64812 0.99635 0.0
H2718 H 0.94383 0.61343 0.99568 0.0
H2719 H 0.97117 0.66059 0.03787 0.0
H2720 H 0.95387 0.67473 0.02379 0.0
H2721 H 0.94521 0.64132 0.9568 0.0
H2722 H 0.92323 0.62342 0.94585 0.0
H2723 H 0.93735 0.61688 0.95962 0.0
H2724 H 0.91026 0.59822 0.9808 0.0
H2725 H 0.89608 0.60473 0.96711 0.0
H2726 H 0.89965 0.60994 0.99248 0.0
H2727 H 0.93184 0.68237 0.00628 0.0
H2728 H 0.90918 0.68465 0.98536 0.0
H2729 H 0.89941 0.63452 0.95187 0.0
C2730 C 0.94609 0.6267 1.002 0.0
C2731 C 0.95862 0.63585 0.01801 0.0
C2732 C 0.96155 0.65336 0.02565 0.0
C2733 C 0.95178 0.66145 0.01776 0.0
C2734 C 0.93948 0.65204 1.00198 0.0
C2735 C 0.93685 0.6352 0.994 0.0
C2736 C 0.92341 0.62831 0.97662 0.0
C2737 C 0.93287 0.62744 0.95866 0.0
C2738 C 0.90634 0.60917 0.97943 0.0
C2739 C 0.91858 0.64371 0.97628 0.0
C2740 C 0.92785 0.65716 0.99111 0.0
C2741 C 0.92482 0.67214 0.99435 0.0
C2742 C 0.91198 0.67341 0.98214 0.0
C2743 C 0.90248 0.65998 0.9665 0.0
C2744 C 0.90611 0.64504 0.96361 0.0
H2745 H 0.35265 0.32194 0.97839 0.0
H2746 H 0.40752 0.33755 1.0014 0.0
H2747 H 0.40259 0.30664 0.98988 0.0
H2748 H 0.33001 0.27157 0.9873 0.0
H2749 H 0.31608 0.26412 0.96518 0.0
H2750 H 0.32297 0.28676 0.97688 0.0
H2751 H 0.33745 0.30275 0.94633 0.0
H2752 H 0.33065 0.28019 0.93456 0.0
H2753 H 0.3545 0.29859 0.93591 0.0
H2754 H 0.39278 0.27522 0.97496 0.0
H2755 H 0.37901 0.24497 0.95605 0.0
H2756 H 0.33078 0.2494 0.94088 0.0
C2757 C 0.36344 0.31865 0.98128 0.0
C2758 C 0.38043 0.33205 0.99091 0.0
C2759 C 0.39441 0.32747 0.99407 0.0
C2760 C 0.39172 0.30993 0.98766 0.0
C2761 C 0.375 0.29713 0.97796 0.0
C2762 C 0.36108 0.3012 0.97468 0.0
C2763 C 0.34501 0.2853 0.96263 0.0
C2764 C 0.32748 0.27641 0.97366 0.0
C2765 C 0.34172 0.29212 0.94374 0.0
C2766 C 0.35224 0.27186 0.95948 0.0
C2767 C 0.36949 0.27896 0.96868 0.0
C2768 C 0.3793 0.2695 0.96765 0.0
C2769 C 0.37141 0.25239 0.95673 0.0
C2770 C 0.35394 0.24493 0.94675 0.0
C2771 C 0.34412 0.25471 0.9484 0.0
H2772 H 0.67396 0.03133 0.01152 0.0
H2773 H 0.69337 0.06914 0.06239 0.0
H2774 H 0.72432 0.08696 0.04991 0.0
H2775 H 0.7173 0.03205 1.00206 0.0
H2776 H 0.7139 0.03237 0.97676 0.0
H2777 H 0.69427 0.02099 0.99091 0.0
H2778 H 0.68172 0.04164 0.97792 0.0
H2779 H 0.70132 0.05312 0.96381 0.0
H2780 H 0.69613 0.06686 0.98036 0.0
H2781 H 0.75273 0.10144 0.03116 0.0
H2782 H 0.77543 0.1133 0.00654 0.0
H2783 H 0.73655 0.06781 0.96668 0.0
C2784 C 0.68491 0.04305 0.02023 0.0
C2785 C 0.68149 0.04865 0.03811 0.0
C2786 C 0.69586 0.06451 0.0488 0.0
C2787 C 0.71345 0.07466 0.04182 0.0
C2788 C 0.71632 0.06898 0.02397 0.0
C2789 C 0.70238 0.05364 0.01323 0.0
C2790 C 0.70839 0.05172 0.99365 0.0
C2791 C 0.70847 0.03318 0.99068 0.0
C2792 C 0.69617 0.05345 0.97802 0.0
C2793 C 0.72782 0.06847 0.99497 0.0
C2794 C 0.73227 0.078 0.01271 0.0
C2795 C 0.74941 0.09404 0.01725 0.0
C2796 C 0.76223 0.10063 1.00323 0.0
C2797 C 0.75772 0.09142 0.98479 0.0
C2798 C 0.74032 0.07507 0.98069 0.0
H2799 H 0.652 0.96543 0.05297 0.0
H2800 H 0.59287 0.9278 0.04334 0.0
H2801 H 0.59588 0.90262 0.05729 0.0
H2802 H 0.66455 0.92809 0.04301 0.0
H2803 H 0.68337 0.93854 0.06103 0.0
H2804 H 0.67695 0.95317 0.04841 0.0
H2805 H 0.67305 0.96686 0.0805 0.0
H2806 H 0.67913 0.95206 0.09319 0.0
H2807 H 0.65756 0.95115 0.09682 0.0
H2808 H 0.60415 0.88373 0.07729 0.0
H2809 H 0.6177 0.86994 0.09747 0.0
H2810 H 0.67239 0.91756 0.09075 0.0
C2811 C 0.63978 0.95173 0.0533 0.0
C2812 C 0.62218 0.94864 0.04705 0.0
C2813 C 0.6065 0.93056 0.04793 0.0
C2814 C 0.60805 0.91613 0.05591 0.0
C2815 C 0.62543 0.91982 0.0626 0.0
C2816 C 0.64111 0.93697 0.06094 0.0
C2817 C 0.65802 0.93723 0.0698 0.0
C2818 C 0.67152 0.93938 0.05466 0.0
C2819 C 0.66749 0.95274 0.08604 0.0
C2820 C 0.6492 0.91782 0.07731 0.0
C2821 C 0.63039 0.90814 0.07306 0.0
C2822 C 0.61897 0.89081 0.08006 0.0
C2823 C 0.62697 0.88297 0.09147 0.0
C2824 C 0.6464 0.89211 0.09549 0.0
C2825 C 0.65756 0.90989 0.08815 0.0
H2826 H 0.04413 0.6978 0.07317 0.0
H2827 H 0.0829 0.68004 0.05754 0.0
H2828 H 0.10868 0.71007 0.07169 0.0
H2829 H 0.07458 0.74882 0.06674 0.0
H2830 H 0.06673 0.7559 0.08725 0.0
H2831 H 0.05141 0.7341 0.07365 0.0
H2832 H 0.04618 0.71625 0.10417 0.0
H2833 H 0.06159 0.73793 0.11782 0.0
H2834 H 0.06579 0.71852 0.11798 0.0
H2835 H 0.12985 0.74024 0.08966 0.0
H2836 H 0.14559 0.76945 0.11045 0.0
H2837 H 0.09351 0.76796 0.11583 0.0
C2838 C 0.05811 0.70052 0.07227 0.0
C2839 C 0.06159 0.68672 0.06409 0.0
C2840 C 0.07998 0.69048 0.06367 0.0
C2841 C 0.09471 0.7075 0.07163 0.0
C2842 C 0.09084 0.72062 0.08007 0.0
C2843 C 0.07304 0.71743 0.08043 0.0
C2844 C 0.07269 0.73333 0.09181 0.0
C2845 C 0.06595 0.74365 0.0791 0.0
C2846 C 0.06087 0.72607 0.10896 0.0
C2847 C 0.093 0.74566 0.09807 0.0
C2848 C 0.10318 0.73808 0.09094 0.0
C2849 C 0.12207 0.74639 0.09526 0.0
C2850 C 0.13085 0.76288 0.10724 0.0
C2851 C 0.12076 0.77088 0.11493 0.0
C2852 C 0.10159 0.76223 0.11008 0.0
H2853 H 0.33063 0.40198 0.05202 0.0
H2854 H 0.31515 0.35152 0.01616 0.0
H2855 H 0.28427 0.33605 0.02907 0.0
H2856 H 0.30911 0.37843 0.09239 0.0
H2857 H 0.30214 0.39501 0.0999 0.0
H2858 H 0.32226 0.40255 0.08658 0.0
H2859 H 0.30848 0.41487 0.0614 0.0
H2860 H 0.2883 0.40737 0.07467 0.0
H2861 H 0.28589 0.3992 0.05006 0.0
H2862 H 0.25525 0.326 0.0466 0.0
H2863 H 0.23112 0.32156 0.06817 0.0
H2864 H 0.26685 0.37798 0.09415 0.0
C2865 C 0.32064 0.38778 0.04662 0.0
C2866 C 0.32519 0.37801 0.0329 0.0
C2867 C 0.3119 0.35929 0.02657 0.0
C2868 C 0.29433 0.35042 0.0338 0.0
C2869 C 0.29038 0.3604 0.04749 0.0
C2870 C 0.30321 0.37865 0.0539 0.0
C2871 C 0.29603 0.3859 0.06958 0.0
C2872 C 0.3081 0.39075 0.08821 0.0
C2873 C 0.29459 0.40284 0.06356 0.0
C2874 C 0.27715 0.36888 0.07105 0.0
C2875 C 0.27405 0.35438 0.05808 0.0
C2876 C 0.25758 0.33724 0.05687 0.0
C2877 C 0.244 0.33481 0.06933 0.0
C2878 C 0.247 0.34935 0.08305 0.0
C2879 C 0.26386 0.36663 0.08373 0.0
H2880 H 0.71686 0.68895 0.39363 0.0
H2881 H 0.75923 0.7434 0.37763 0.0
H2882 H 0.78286 0.73986 0.39565 0.0
H2883 H 0.73508 0.69434 0.44091 0.0
H2884 H 0.72936 0.67025 0.44222 0.0
H2885 H 0.71576 0.67591 0.42649 0.0
H2886 H 0.72175 0.6592 0.39803 0.0
H2887 H 0.73529 0.65338 0.4137 0.0
H2888 H 0.74514 0.66605 0.3931 0.0
H2889 H 0.80166 0.73156 0.41638 0.0
H2890 H 0.81482 0.71909 0.43927 0.0
H2891 H 0.76057 0.67031 0.44344 0.0
C2892 C 0.73116 0.69992 0.39363 0.0
C2893 C 0.73625 0.71641 0.38411 0.0
C2894 C 0.75504 0.73066 0.38478 0.0
C2895 C 0.76857 0.72875 0.39494 0.0
C2896 C 0.76312 0.71255 0.40447 0.0
C2897 C 0.7449 0.69834 0.40395 0.0
C2898 C 0.74276 0.68295 0.4165 0.0
C2899 C 0.72998 0.68074 0.43248 0.0
C2900 C 0.73582 0.66429 0.40462 0.0
C2901 C 0.76257 0.69091 0.42432 0.0
C2902 C 0.77404 0.70792 0.417 0.0
C2903 C 0.79283 0.71827 0.42225 0.0
C2904 C 0.80013 0.71114 0.43543 0.0
C2905 C 0.78869 0.69388 0.44343 0.0
C2906 C 0.76966 0.68353 0.43758 0.0
H2907 H 0.31847 0.01964 0.41419 0.0
H2908 H 0.26345 0.98585 0.43354 0.0
H2909 H 0.26682 0.01348 0.45207 0.0
H2910 H 0.33948 0.049 0.45752 0.0
H2911 H 0.35321 0.0702 0.4458 0.0
H2912 H 0.34692 0.04771 0.43415 0.0
H2913 H 0.33219 0.05488 0.40519 0.0
H2914 H 0.3386 0.07746 0.41669 0.0
H2915 H 0.31486 0.06133 0.40881 0.0
H2916 H 0.27626 0.04395 0.46954 0.0
H2917 H 0.28991 0.07672 0.48231 0.0
H2918 H 0.33799 0.09207 0.44999 0.0
C2919 C 0.30715 0.01812 0.42229 0.0
C2920 C 0.2907 1.00056 0.42243 0.0
C2921 C 0.27614 0.99915 0.43312 0.0
C2922 C 0.27795 0.01474 0.44381 0.0
C2923 C 0.29433 0.03177 0.44352 0.0
C2924 C 0.30859 0.0337 0.43286 0.0
C2925 C 0.3244 0.05391 0.43458 0.0
C2926 C 0.34204 0.05528 0.44355 0.0
C2927 C 0.3277 0.06239 0.41516 0.0
C2928 C 0.31674 0.06291 0.44791 0.0
C2929 C 0.29948 0.04977 0.45303 0.0
C2930 C 0.28967 0.05446 0.46543 0.0
C2931 C 0.29752 0.07319 0.4725 0.0
C2932 C 0.31492 0.08718 0.46694 0.0
C2933 C 0.32473 0.0818 0.45464 0.0
H2934 H 0.9957 0.29931 0.39129 0.0
H2935 H 0.99349 0.25429 0.35504 0.0
H2936 H 0.96323 0.23198 0.36664 0.0
H2937 H 0.97875 0.27248 0.4305 0.0
H2938 H 0.9658 0.28322 0.43851 0.0
H2939 H 0.98579 0.29628 0.4253 0.0
H2940 H 0.9661 0.3023 0.40059 0.0
H2941 H 0.94602 0.28928 0.41377 0.0
H2942 H 0.94554 0.28267 0.38899 0.0
H2943 H 0.93439 0.21427 0.38342 0.0
H2944 H 0.9098 0.20171 0.40577 0.0
H2945 H 0.9319 0.25767 0.43327 0.0
C2946 C 0.98855 0.28486 0.38544 0.0
C2947 C 0.99668 0.27851 0.37203 0.0
C2948 C 0.98734 0.2594 0.36518 0.0
C2949 C 0.97015 0.24666 0.37164 0.0
C2950 C 0.96262 0.25324 0.38515 0.0
C2951 C 0.97155 0.27185 0.39209 0.0
C2952 C 0.9614 0.27481 0.40802 0.0
C2953 C 0.97367 0.28212 0.42668 0.0
C2954 C 0.95435 0.28805 0.40251 0.0
C2955 C 0.94557 0.25491 0.40914 0.0
C2956 C 0.94639 0.24278 0.39558 0.0
C2957 C 0.9336 0.22363 0.3941 0.0
C2958 C 0.91977 0.2166 0.407 0.0
C2959 C 0.91895 0.22862 0.42147 0.0
C2960 C 0.93193 0.2481 0.42228 0.0
H2961 H 0.06189 0.39977 0.33961 0.0
H2962 H 0.01067 0.34715 0.34281 0.0
H2963 H 0.99338 0.36128 0.32897 0.0
H2964 H 0.04305 0.4311 0.35014 0.0
H2965 H 0.05734 0.44768 0.33374 0.0
H2966 H 0.06534 0.43401 0.3458 0.0
H2967 H 0.07031 0.42187 0.31331 0.0
H2968 H 0.06218 0.43535 0.30116 0.0
H2969 H 0.0513 0.41037 0.29556 0.0
H2970 H 0.98213 0.38016 0.31155 0.0
H2971 H 0.97775 0.40247 0.29299 0.0
H2972 H 0.03625 0.44309 0.30238 0.0
C2973 C 0.047 0.39131 0.33779 0.0
C2974 C 0.03763 0.37236 0.34236 0.0
C2975 C 0.01815 0.36173 0.33952 0.0
C2976 C 0.0082 0.36963 0.33166 0.0
C2977 C 0.01792 0.38823 0.32688 0.0
C2978 C 0.03687 0.39899 0.33003 0.0
C2979 C 0.04416 0.41828 0.32269 0.0
C2980 C 0.05299 0.43368 0.33907 0.0
C2981 C 0.05779 0.42165 0.30727 0.0
C2982 C 0.02643 0.41652 0.31443 0.0
C2983 C 0.01142 0.39915 0.31708 0.0
C2984 C 0.99374 0.39394 0.3097 0.0
C2985 C 0.99138 0.40677 0.29924 0.0
C2986 C 0.00662 0.42464 0.29622 0.0
C2987 C 0.0243 0.42954 0.30422 0.0
H2988 H 0.61471 0.65557 0.31516 0.0
H2989 H 0.65533 0.64383 0.34073 0.0
H2990 H 0.63656 0.61063 0.32801 0.0
H2991 H 0.57479 0.61262 0.32393 0.0
H2992 H 0.56265 0.61087 0.30166 0.0
H2993 H 0.57948 0.63358 0.31258 0.0
H2994 H 0.59711 0.64141 0.28182 0.0
H2995 H 0.58034 0.6187 0.27081 0.0
H2996 H 0.60447 0.62579 0.27216 0.0
H2997 H 0.61238 0.57825 0.31317 0.0
H2998 H 0.58531 0.54991 0.29754 0.0
H2999 H 0.56179 0.58391 0.28063 0.0
C3000 C 0.61971 0.64605 0.31813 0.0
C3001 C 0.63645 0.65226 0.32902 0.0
C3002 C 0.64253 0.63936 0.33243 0.0
C3003 C 0.63197 0.6205 0.32525 0.0
C3004 C 0.61549 0.61486 0.31457 0.0
C3005 C 0.60948 0.62733 0.31096 0.0
C3006 C 0.59132 0.61789 0.29914 0.0
C3007 C 0.57617 0.6188 0.30998 0.0
C3008 C 0.59345 0.62646 0.27984 0.0
C3009 C 0.58786 0.59805 0.29685 0.0
C3010 C 0.60192 0.59652 0.30579 0.0
C3011 C 0.60138 0.57935 0.30598 0.0
C3012 C 0.586 0.56334 0.29695 0.0
C3013 C 0.57136 0.56461 0.28783 0.0
C3014 C 0.57256 0.58232 0.28765 0.0
H3015 H 0.34773 0.93879 0.35606 0.0
H3016 H 0.3613 0.99124 0.38697 0.0
H3017 H 0.39041 0.00752 0.37069 0.0
H3018 H 0.39402 0.94621 0.35496 0.0
H3019 H 0.39023 0.93568 0.3311 0.0
H3020 H 0.37122 0.9281 0.34613 0.0
H3021 H 0.35322 0.93551 0.32063 0.0
H3022 H 0.37217 0.94312 0.30554 0.0
H3023 H 0.36371 0.9587 0.31208 0.0
H3024 H 0.41822 0.01788 0.35084 0.0
H3025 H 0.44141 0.02188 0.32823 0.0
H3026 H 0.40778 0.96299 0.30835 0.0
C3027 C 0.35695 0.95365 0.35963 0.0
C3028 C 0.3524 0.96373 0.37298 0.0
C3029 C 0.3646 0.98325 0.37688 0.0
C3030 C 0.38115 0.99258 0.36772 0.0
C3031 C 0.38515 0.98224 0.3545 0.0
C3032 C 0.3733 0.96322 0.35037 0.0
C3033 C 0.38021 0.9555 0.33485 0.0
C3034 C 0.38416 0.94049 0.34221 0.0
C3035 C 0.36652 0.94776 0.31724 0.0
C3036 C 0.39787 0.97311 0.33093 0.0
C3037 C 0.40059 0.98835 0.3425 0.0
C3038 C 0.41612 0.00605 0.3416 0.0
C3039 C 0.42917 0.0082 0.32852 0.0
C3040 C 0.42656 0.99282 0.31625 0.0
C3041 C 0.41055 0.97507 0.31759 0.0
H3042 H 0.60571 0.94801 0.32573 0.0
H3043 H 0.63928 0.99885 0.36219 0.0
H3044 H 0.62333 0.01377 0.34688 0.0
H3045 H 0.60572 0.97127 0.28369 0.0
H3046 H 0.58234 0.95393 0.27575 0.0
H3047 H 0.59624 0.9473 0.28978 0.0
H3048 H 0.57131 0.93422 0.31434 0.0
H3049 H 0.55732 0.94077 0.30037 0.0
H3050 H 0.56371 0.94925 0.32499 0.0
H3051 H 0.60277 0.02263 0.32805 0.0
H3052 H 0.57987 0.02492 0.3072 0.0
H3053 H 0.56147 0.96892 0.28162 0.0
C3054 C 0.60967 0.96226 0.33059 0.0
C3055 C 0.62366 0.97224 0.34527 0.0
C3056 C 0.62858 0.99093 0.35101 0.0
C3057 C 0.6196 0.99952 0.34238 0.0
C3058 C 0.60591 0.98928 0.32789 0.0
C3059 C 0.60105 0.97109 0.32198 0.0
C3060 C 0.58609 0.96319 0.30596 0.0
C3061 C 0.59302 0.95866 0.28771 0.0
C3062 C 0.56857 0.94583 0.31177 0.0
C3063 C 0.58306 0.97967 0.30392 0.0
C3064 C 0.59459 0.99458 0.31669 0.0
C3065 C 0.59383 0.0111 0.31784 0.0
C3066 C 0.58085 0.01232 0.30577 0.0
C3067 C 0.56881 0.99716 0.29257 0.0
C3068 C 0.57023 0.98074 0.2916 0.0
H3069 H 0.05472 0.66178 0.30805 0.0
H3070 H 1.00395 0.65219 0.33175 0.0
H3071 H 0.98804 0.61938 0.31773 0.0
H3072 H 0.03354 0.6341 0.26379 0.0
H3073 H 0.04949 0.62552 0.26263 0.0
H3074 H 0.0567 0.64817 0.27447 0.0
H3075 H 0.06616 0.63796 0.3051 0.0
H3076 H 0.05899 0.6153 0.29336 0.0
H3077 H 0.04945 0.61691 0.31535 0.0
H3078 H 0.97806 0.58716 0.30177 0.0
H3079 H 0.97479 0.55854 0.28516 0.0
H3080 H 0.03187 0.59012 0.27079 0.0
C3081 C 0.04025 0.6528 0.31034 0.0
C3082 C 0.03059 0.65952 0.32108 0.0
C3083 C 0.01164 0.64733 0.32359 0.0
C3084 C 1.00249 0.62869 0.31568 0.0
C3085 C 0.01246 0.62253 0.30516 0.0
C3086 C 0.03091 0.63427 0.30243 0.0
C3087 C 0.03854 0.62432 0.29055 0.0
C3088 C 0.04494 0.63358 0.27175 0.0
C3089 C 0.0542 0.62358 0.30176 0.0
C3090 C 0.02158 0.60503 0.28723 0.0
C3091 C 0.00666 0.60424 0.29572 0.0
C3092 C 0.98962 0.58769 0.29493 0.0
C3093 C 0.98787 0.57151 0.28533 0.0
C3094 C 1.00305 0.57199 0.2766 0.0
C3095 C 0.02003 0.58912 0.27747 0.0
H3096 H 0.34983 0.36999 0.35799 0.0
H3097 H 0.34902 0.41713 0.3869 0.0
H3098 H 0.37758 0.43905 0.37232 0.0
H3099 H 0.40117 0.39157 0.36013 0.0
H3100 H 0.40061 0.38147 0.33678 0.0
H3101 H 0.38153 0.36936 0.35148 0.0
H3102 H 0.35919 0.36839 0.32459 0.0
H3103 H 0.37817 0.38064 0.3099 0.0
H3104 H 0.36335 0.39002 0.31509 0.0
H3105 H 0.40367 0.45591 0.3517 0.0
H3106 H 0.42668 0.46664 0.32746 0.0
H3107 H 0.41131 0.40892 0.31196 0.0
C3108 C 0.35597 0.3849 0.36171 0.0
C3109 C 0.34723 0.39183 0.37373 0.0
C3110 C 0.35548 0.41147 0.37785 0.0
C3111 C 0.37173 0.42405 0.36963 0.0
C3112 C 0.37966 0.41681 0.35737 0.0
C3113 C 0.37221 0.39769 0.35357 0.0
C3114 C 0.38277 0.39369 0.33881 0.0
C3115 C 0.39208 0.38341 0.34731 0.0
C3116 C 0.37011 0.38253 0.32105 0.0
C3117 C 0.39695 0.41352 0.33452 0.0
C3118 C 0.39495 0.42662 0.3455 0.0
C3119 C 0.40556 0.4458 0.34325 0.0
C3120 C 0.41851 0.45176 0.32939 0.0
C3121 C 0.42081 0.43862 0.31796 0.0
C3122 C 0.41003 0.41927 0.32075 0.0
H3123 H 0.31677 0.30839 0.40899 0.0
H3124 H 0.28873 0.27271 0.35782 0.0
H3125 H 0.29929 0.2508 0.36711 0.0
H3126 H 0.35598 0.29957 0.41361 0.0
H3127 H 0.35514 0.29892 0.43905 0.0
H3128 H 0.3483 0.31337 0.42672 0.0
H3129 H 0.31664 0.2967 0.44153 0.0
H3130 H 0.32332 0.28215 0.45379 0.0
H3131 H 0.30254 0.27148 0.43831 0.0
H3132 H 0.31131 0.23183 0.38309 0.0
H3133 H 0.32115 0.21585 0.40572 0.0
H3134 H 0.33848 0.26238 0.44785 0.0
C3135 C 0.31343 0.29629 0.39946 0.0
C3136 C 0.3024 0.29242 0.38244 0.0
C3137 C 0.29747 0.27602 0.37073 0.0
C3138 C 0.30343 0.26355 0.3759 0.0
C3139 C 0.31399 0.26754 0.39301 0.0
C3140 C 0.31879 0.28344 0.4047 0.0
C3141 C 0.32811 0.28327 0.42343 0.0
C3142 C 0.34807 0.29976 0.42584 0.0
C3143 C 0.31698 0.2834 0.44025 0.0
C3144 C 0.32755 0.26468 0.42059 0.0
C3145 C 0.31976 0.25601 0.40278 0.0
C3146 C 0.31751 0.23854 0.39702 0.0
C3147 C 0.32314 0.22959 0.4099 0.0
C3148 C 0.33054 0.23795 0.4284 0.0
C3149 C 0.33288 0.25576 0.43373 0.0
H3150 H 0.72032 0.03399 0.39371 0.0
H3151 H 0.71397 0.99551 0.43661 0.0
H3152 H 0.73234 0.02227 0.46011 0.0
H3153 H 0.76759 0.06662 0.40766 0.0
H3154 H 0.76636 0.08726 0.4028 0.0
H3155 H 0.75094 0.06518 0.38979 0.0
H3156 H 0.72295 0.0678 0.40014 0.0
H3157 H 0.73833 0.08987 0.41329 0.0
H3158 H 0.7204 0.07091 0.42506 0.0
H3159 H 0.75148 0.05261 0.4788 0.0
H3160 H 0.77367 0.08505 0.4909 0.0
H3161 H 0.77063 0.1045 0.43541 0.0
C3162 C 0.72265 0.03132 0.40813 0.0
C3163 C 0.71565 0.01278 0.4135 0.0
C3164 C 0.71926 0.00968 0.43231 0.0
C3165 C 0.72955 0.02475 0.44577 0.0
C3166 C 0.73641 0.04289 0.44011 0.0
C3167 C 0.7334 0.04633 0.4217 0.0
C3168 C 0.74392 0.06725 0.41906 0.0
C3169 C 0.75804 0.07184 0.40393 0.0
C3170 C 0.7306 0.07437 0.41409 0.0
C3171 C 0.75338 0.07492 0.43877 0.0
C3172 C 0.74851 0.06059 0.45073 0.0
C3173 C 0.75552 0.06397 0.46955 0.0
C3174 C 0.76824 0.08246 0.47625 0.0
C3175 C 0.77417 0.09738 0.46408 0.0
C3176 C 0.7663 0.09351 0.44517 0.0
H3177 H 0.99954 0.73366 0.39096 0.0
H3178 H 0.98172 0.68348 0.3537 0.0
H3179 H 0.95124 0.66863 0.36741 0.0
H3180 H 0.97827 0.7097 0.43138 0.0
H3181 H 0.9722 0.72674 0.43978 0.0
H3182 H 0.99196 0.7339 0.42596 0.0
H3183 H 0.97853 0.74744 0.40181 0.0
H3184 H 0.95872 0.74035 0.41558 0.0
H3185 H 0.95564 0.73254 0.39078 0.0
H3186 H 0.9228 0.65915 0.38574 0.0
H3187 H 0.89927 0.65527 0.40788 0.0
H3188 H 0.93682 0.71093 0.43463 0.0
C3189 C 0.98913 0.71965 0.38545 0.0
C3190 C 0.99292 0.70979 0.3711 0.0
C3191 C 0.97907 0.69133 0.36461 0.0
C3192 C 0.96172 0.6828 0.37229 0.0
C3193 C 0.95851 0.69285 0.38659 0.0
C3194 C 0.97188 0.71084 0.39316 0.0
C3195 C 0.96538 0.71823 0.40938 0.0
C3196 C 0.97768 0.72238 0.42771 0.0
C3197 C 0.96451 0.73567 0.40406 0.0
C3198 C 0.94627 0.70158 0.41095 0.0
C3199 C 0.94249 0.68715 0.39759 0.0
C3200 C 0.92567 0.67034 0.39633 0.0
C3201 C 0.91243 0.66822 0.40912 0.0
C3202 C 0.9161 0.68273 0.42319 0.0
C3203 C 0.93333 0.69963 0.42396 0.0
H3204 H 0.4129 0.04812 0.71393 0.0
H3205 H 0.36104 0.99532 0.70646 0.0
H3206 H 0.37422 0.98066 0.72679 0.0
H3207 H 0.44338 0.02788 0.715 0.0
H3208 H 0.45929 0.04555 0.73277 0.0
H3209 H 0.44628 0.0511 0.71608 0.0
H3210 H 0.43377 0.06181 0.74411 0.0
H3211 H 0.44649 0.05602 0.76087 0.0
H3212 H 0.42189 0.04572 0.76192 0.0
H3213 H 0.39252 0.97258 0.75022 0.0
H3214 H 0.41471 0.97143 0.7734 0.0
H3215 H 0.45434 0.02964 0.76523 0.0
C3216 C 0.4044 0.03335 0.71619 0.0
C3217 C 0.38594 0.02284 0.70849 0.0
C3218 C 0.37525 0.00363 0.71206 0.0
C3219 C 0.38261 0.99519 0.72365 0.0
C3220 C 0.40069 0.00615 0.73149 0.0
C3221 C 0.4115 0.02476 0.72771 0.0
C3222 C 0.4302 0.03376 0.73852 0.0
C3223 C 0.4457 0.03993 0.72477 0.0
C3224 C 0.43325 0.0503 0.75216 0.0
C3225 C 0.42814 0.01743 0.74928 0.0
C3226 C 0.41109 1.00157 0.74498 0.0
C3227 C 0.40597 0.98487 0.75354 0.0
C3228 C 0.41867 0.98435 0.76668 0.0
C3229 C 0.43625 1.00046 0.77123 0.0
C3230 C 0.44093 0.01716 0.76233 0.0
H3231 H 0.99264 0.34582 0.75798 0.0
H3232 H 0.95315 0.33948 0.71282 0.0
H3233 H 0.95992 0.37187 0.72083 0.0
H3234 H 0.97941 0.36854 0.79076 0.0
H3235 H 1.00205 0.38425 0.80195 0.0
H3236 H 0.99699 0.36206 0.7906 0.0
H3237 H 0.02443 0.3791 0.76943 0.0
H3238 H 0.02968 0.40139 0.78084 0.0
H3239 H 0.0258 0.39742 0.75536 0.0
H3240 H 0.96818 0.4031 0.7355 0.0
H3241 H 0.97665 0.43117 0.75666 0.0
H3242 H 0.00963 0.41719 0.79389 0.0
C3243 C 0.98598 0.35158 0.74939 0.0
C3244 C 0.97268 0.34041 0.73452 0.0
C3245 C 0.96357 0.34799 0.72407 0.0
C3246 C 0.96735 0.36636 0.7285 0.0
C3247 C 0.98014 0.37689 0.74357 0.0
C3248 C 0.98933 0.36983 0.75391 0.0
C3249 C 1.00071 0.38329 0.77083 0.0
C3250 C 0.9944 0.37397 0.78964 0.0
C3251 C 0.02139 0.39074 0.769 0.0
C3252 C 0.99604 0.39871 0.76865 0.0
C3253 C 0.98441 0.39482 0.75262 0.0
C3254 C 0.97739 0.40638 0.74801 0.0
C3255 C 0.98216 0.42221 0.76021 0.0
C3256 C 0.99367 0.42629 0.777 0.0
C3257 C 1.00097 0.41453 0.78106 0.0
H3258 H 0.6639 0.60494 0.71689 0.0
H3259 H 0.66696 0.65886 0.71349 0.0
H3260 H 0.63787 0.64681 0.72955 0.0
H3261 H 0.61314 0.57566 0.70989 0.0
H3262 H 0.61222 0.55926 0.72647 0.0
H3263 H 0.63223 0.57157 0.71301 0.0
H3264 H 0.65303 0.58393 0.74433 0.0
H3265 H 0.63311 0.57183 0.75788 0.0
H3266 H 0.64835 0.59677 0.76249 0.0
H3267 H 0.61008 0.62983 0.74877 0.0
H3268 H 0.58535 0.60901 0.76867 0.0
H3269 H 0.59996 0.56587 0.75859 0.0
C3270 C 0.65828 0.61412 0.71916 0.0
C3271 C 0.6677 0.63284 0.71386 0.0
C3272 C 0.65997 0.64444 0.71732 0.0
C3273 C 0.64344 0.63772 0.72645 0.0
C3274 C 0.63475 0.61933 0.7319 0.0
C3275 C 0.64181 0.60763 0.72822 0.0
C3276 C 0.63033 0.58879 0.73637 0.0
C3277 C 0.62145 0.57288 0.72048 0.0
C3278 C 0.6419 0.58513 0.75114 0.0
C3279 C 0.61598 0.59187 0.74564 0.0
C3280 C 0.61867 0.60952 0.7428 0.0
C3281 C 0.60765 0.61585 0.75081 0.0
C3282 C 0.59356 0.60387 0.76203 0.0
C3283 C 0.59056 0.5857 0.76519 0.0
C3284 C 0.6019 0.57968 0.75665 0.0
H3285 H 0.69578 0.70621 0.6639 0.0
H3286 H 0.74349 0.7491 0.69832 0.0
H3287 H 0.73582 0.77302 0.68891 0.0
H3288 H 0.70192 0.73399 0.62556 0.0
H3289 H 0.67772 0.72475 0.61946 0.0
H3290 H 0.68526 0.71048 0.63098 0.0
H3291 H 0.6634 0.70573 0.65785 0.0
H3292 H 0.65578 0.72 0.64638 0.0
H3293 H 0.66505 0.72595 0.67073 0.0
H3294 H 0.72428 0.79252 0.67446 0.0
H3295 H 0.71094 0.80688 0.65418 0.0
H3296 H 0.67192 0.75185 0.62712 0.0
C3297 C 0.7043 0.72056 0.6698 0.0
C3298 C 0.72006 0.72583 0.68205 0.0
C3299 C 0.73128 0.74482 0.68902 0.0
C3300 C 0.72699 0.75846 0.68382 0.0
C3301 C 0.71154 0.75293 0.67146 0.0
C3302 C 0.70042 0.73447 0.66441 0.0
C3303 C 0.68579 0.73266 0.64982 0.0
C3304 C 0.6878 0.72503 0.63031 0.0
C3305 C 0.66635 0.72035 0.65661 0.0
C3306 C 0.69064 0.75301 0.64956 0.0
C3307 C 0.70534 0.76439 0.6624 0.0
C3308 C 0.71274 0.78376 0.66436 0.0
C3309 C 0.70515 0.79181 0.65266 0.0
C3310 C 0.69046 0.78055 0.63892 0.0
C3311 C 0.68295 0.76084 0.63764 0.0
H3312 H 0.30086 0.97605 0.65933 0.0
H3313 H 0.26555 1.00003 0.66697 0.0
H3314 H 0.23894 0.97073 0.65268 0.0
H3315 H 0.28048 0.9524 0.61417 0.0
H3316 H 0.2823 0.93195 0.61831 0.0
H3317 H 0.29855 0.95432 0.63036 0.0
H3318 H 0.29028 0.93981 0.66287 0.0
H3319 H 0.27408 0.91736 0.65091 0.0
H3320 H 0.26654 0.92779 0.66883 0.0
H3321 H 0.21648 0.93974 0.6364 0.0
H3322 H 0.19915 0.90832 0.61961 0.0
H3323 H 0.24871 0.90408 0.62166 0.0
C3324 C 0.28747 0.97501 0.65825 0.0
C3325 C 0.28528 0.99033 0.66434 0.0
C3326 C 0.26758 0.9885 0.66244 0.0
C3327 C 0.25235 0.9719 0.65434 0.0
C3328 C 0.25501 0.95721 0.64818 0.0
C3329 C 0.27207 0.9585 0.65008 0.0
C3330 C 0.27116 0.94078 0.64162 0.0
C3331 C 0.28388 0.94513 0.62514 0.0
C3332 C 0.27579 0.93085 0.65698 0.0
C3333 C 0.25099 0.92945 0.63454 0.0
C3334 C 0.24197 0.93923 0.63854 0.0
C3335 C 0.22338 0.93193 0.63318 0.0
C3336 C 0.21369 0.91413 0.62348 0.0
C3337 C 0.22258 0.90378 0.61913 0.0
C3338 C 0.2415 0.91159 0.62485 0.0
H3339 H 0.02644 0.30108 0.70773 0.0
H3340 H 1.00341 0.24078 0.70858 0.0
H3341 H 0.02763 0.24266 0.6887 0.0
H3342 H 0.03869 0.30527 0.66033 0.0
H3343 H 0.06026 0.32704 0.66457 0.0
H3344 H 0.04187 0.32154 0.68002 0.0
H3345 H 0.0635 0.32573 0.70922 0.0
H3346 H 0.08205 0.33149 0.69388 0.0
H3347 H 0.07543 0.31263 0.70935 0.0
H3348 H 0.05144 0.25009 0.66554 0.0
H3349 H 0.07632 0.26312 0.64393 0.0
H3350 H 0.08699 0.31939 0.66034 0.0
C3351 C 0.02673 0.28835 0.70404 0.0
C3352 C 0.01294 0.27076 0.70976 0.0
C3353 C 0.01378 0.25442 0.7045 0.0
C3354 C 0.02748 0.25532 0.69311 0.0
C3355 C 0.04051 0.27271 0.6873 0.0
C3356 C 0.04058 0.28902 0.69287 0.0
C3357 C 0.05625 0.30583 0.68442 0.0
C3358 C 0.04881 0.31548 0.67157 0.0
C3359 C 0.07013 0.31974 0.70016 0.0
C3360 C 0.06461 0.29629 0.67288 0.0
C3361 C 0.05518 0.27717 0.67469 0.0
C3362 C 0.05934 0.26512 0.66446 0.0
C3363 C 0.07375 0.2728 0.65228 0.0
C3364 C 0.08432 0.2925 0.65061 0.0
C3365 C 0.07945 0.30432 0.66111 0.0
H3366 H 0.266 0.2791 0.67679 0.0
H3367 H 0.31566 0.33362 0.6872 0.0
H3368 H 0.30115 0.34789 0.66829 0.0
H3369 H 0.25586 0.28423 0.62904 0.0
H3370 H 0.23121 0.27232 0.63068 0.0
H3371 H 0.24513 0.26648 0.64572 0.0
H3372 H 0.232 0.27362 0.67561 0.0
H3373 H 0.21788 0.27927 0.66064 0.0
H3374 H 0.23345 0.29612 0.67917 0.0
H3375 H 0.28164 0.35591 0.64682 0.0
H3376 H 0.25808 0.35735 0.6261 0.0
H3377 H 0.22096 0.29772 0.63058 0.0
C3378 C 0.27377 0.29408 0.67528 0.0
C3379 C 0.29198 0.30524 0.68351 0.0
C3380 C 0.30168 0.32478 0.68111 0.0
C3381 C 0.29357 0.33302 0.67033 0.0
C3382 C 0.27572 0.32155 0.66214 0.0
C3383 C 0.26587 0.30253 0.66465 0.0
C3384 C 0.24696 0.29329 0.65423 0.0
C3385 C 0.24467 0.27819 0.63902 0.0
C3386 C 0.23167 0.2851 0.66825 0.0
C3387 C 0.24777 0.31001 0.64528 0.0
C3388 C 0.26446 0.32619 0.64998 0.0
C3389 C 0.26845 0.34335 0.64318 0.0
C3390 C 0.25495 0.34404 0.63146 0.0
C3391 C 0.23761 0.32766 0.62665 0.0
C3392 C 0.23413 0.31045 0.63368 0.0
H3393 H 0.71871 1.00001 0.63551 0.0
H3394 H 0.67319 0.98689 0.67093 0.0
H3395 H 0.65678 0.95415 0.65659 0.0
H3396 H 0.69014 0.97168 0.5935 0.0
H3397 H 0.7065 0.96482 0.5865 0.0
H3398 H 0.71445 0.98712 0.59951 0.0
H3399 H 0.73107 0.97827 0.62519 0.0
H3400 H 0.72317 0.95596 0.61228 0.0
H3401 H 0.7181 0.9568 0.63677 0.0
H3402 H 0.64663 0.92224 0.63995 0.0
H3403 H 0.64261 0.89436 0.62132 0.0
H3404 H 0.69337 0.92952 0.59428 0.0
C3405 C 0.70528 0.99024 0.64026 0.0
C3406 C 0.69726 0.99588 0.65445 0.0
C3407 C 0.67957 0.9828 0.66009 0.0
C3408 C 0.67017 0.96421 0.65203 0.0
C3409 C 0.67852 0.95908 0.6381 0.0
C3410 C 0.69558 0.9718 0.63209 0.0
C3411 C 0.70147 0.96286 0.61676 0.0
C3412 C 0.70324 0.97218 0.59795 0.0
C3413 C 0.71952 0.96351 0.62314 0.0
C3414 C 0.68527 0.94298 0.61538 0.0
C3415 C 0.67221 0.94104 0.62784 0.0
C3416 C 0.65659 0.92369 0.62987 0.0
C3417 C 0.65436 0.9079 0.61902 0.0
C3418 C 0.66756 0.90953 0.60605 0.0
C3419 C 0.68304 0.9275 0.60411 0.0
H3420 H 0.02613 0.74066 0.70673 0.0
H3421 H 0.01393 0.68288 0.70015 0.0
H3422 H 0.04121 0.69279 0.68145 0.0
H3423 H 0.03896 0.75213 0.66102 0.0
H3424 H 0.05737 0.77579 0.66735 0.0
H3425 H 0.03836 0.76473 0.68227 0.0
H3426 H 0.06099 0.7708 0.71123 0.0
H3427 H 0.08013 0.78214 0.69644 0.0
H3428 H 0.07734 0.76277 0.70964 0.0
H3429 H 0.06732 0.70832 0.66 0.0
H3430 H 0.09141 0.72847 0.63928 0.0
H3431 H 0.08775 0.77655 0.66113 0.0
C3432 C 0.02945 0.73015 0.7018 0.0
C3433 C 0.01789 0.71098 0.705 0.0
C3434 C 0.02261 0.69765 0.69802 0.0
C3435 C 0.03808 0.70315 0.68733 0.0
C3436 C 0.04883 0.72206 0.68391 0.0
C3437 C 0.04489 0.73541 0.69118 0.0
C3438 C 0.05803 0.75463 0.68456 0.0
C3439 C 0.04755 0.76226 0.67312 0.0
C3440 C 0.06982 0.7684 0.70148 0.0
C3441 C 0.06962 0.74991 0.67198 0.0
C3442 C 0.06415 0.73107 0.67186 0.0
C3443 C 0.072 0.72318 0.66033 0.0
C3444 C 0.08581 0.73484 0.64865 0.0
C3445 C 0.09178 0.75428 0.64858 0.0
C3446 C 0.08357 0.7618 0.66063 0.0
H3447 H 0.98196 0.63615 0.73842 0.0
H3448 H 0.92568 0.59544 0.71814 0.0
H3449 H 0.93024 0.56981 0.72858 0.0
H3450 H 1.00249 0.60631 0.72691 0.0
H3451 H 0.01769 0.61489 0.7482 0.0
H3452 H 0.01085 0.62988 0.73697 0.0
H3453 H 0.99874 0.63503 0.7686 0.0
H3454 H 0.00543 0.62 0.77987 0.0
H3455 H 0.98191 0.61495 0.78006 0.0
H3456 H 0.93961 0.54901 0.74395 0.0
H3457 H 0.95339 0.53421 0.76308 0.0
H3458 H 1.00362 0.58813 0.77382 0.0
C3459 C 0.97076 0.6218 0.73574 0.0
C3460 C 0.95349 0.61777 0.72732 0.0
C3461 C 0.93904 0.59885 0.72447 0.0
C3462 C 0.94151 0.58419 0.73033 0.0
C3463 C 0.95853 0.58865 0.73899 0.0
C3464 C 0.97296 0.60697 0.74162 0.0
C3465 C 0.98936 0.608 0.75263 0.0
C3466 C 0.00609 0.61519 0.74045 0.0
C3467 C 0.99413 0.62022 0.7714 0.0
C3468 C 0.98171 0.58747 0.75617 0.0
C3469 C 0.96395 0.57656 0.74802 0.0
C3470 C 0.95358 0.55736 0.75022 0.0
C3471 C 0.96147 0.54911 0.76119 0.0
C3472 C 0.97955 0.56002 0.76988 0.0
C3473 C 0.98988 0.57941 0.76708 0.0
H3474 H 0.40088 0.35486 0.75172 0.0
H3475 H 0.36612 0.36896 0.71752 0.0
H3476 H 0.38432 0.40196 0.73107 0.0
H3477 H 0.40494 0.38349 0.79325 0.0
H3478 H 0.42846 0.38984 0.79955 0.0
H3479 H 0.41311 0.36768 0.78661 0.0
H3480 H 0.43609 0.37611 0.76016 0.0
H3481 H 0.45154 0.39826 0.77306 0.0
H3482 H 0.44371 0.39773 0.74881 0.0
H3483 H 0.40701 0.43369 0.74832 0.0
H3484 H 0.43165 0.46101 0.76782 0.0
H3485 H 0.44962 0.42487 0.79215 0.0
C3486 C 0.39717 0.3649 0.74689 0.0
C3487 C 0.38221 0.35941 0.73341 0.0
C3488 C 0.37761 0.37292 0.72776 0.0
C3489 C 0.38785 0.39166 0.7354 0.0
C3490 C 0.40245 0.39654 0.7488 0.0
C3491 C 0.40702 0.38349 0.75454 0.0
C3492 C 0.42294 0.39205 0.76949 0.0
C3493 C 0.417 0.38271 0.78834 0.0
C3494 C 0.43955 0.39097 0.76245 0.0
C3495 C 0.42684 0.41206 0.77116 0.0
C3496 C 0.41494 0.41445 0.75911 0.0
C3497 C 0.41628 0.43192 0.75792 0.0
C3498 C 0.43025 0.44734 0.7692 0.0
C3499 C 0.44264 0.44519 0.78163 0.0
C3500 C 0.44062 0.42718 0.78267 0.0
H3501 H 0.66577 0.07113 0.72075 0.0
H3502 H 0.6525 0.01866 0.68999 0.0
H3503 H 0.62186 0.00314 0.70322 0.0
H3504 H 0.64518 0.05118 0.76277 0.0
H3505 H 0.63685 0.06718 0.76768 0.0
H3506 H 0.65707 0.07451 0.75458 0.0
H3507 H 0.64189 0.08286 0.72696 0.0
H3508 H 0.62162 0.07559 0.74002 0.0
H3509 H 0.61958 0.06529 0.71637 0.0
H3510 H 0.59318 0.99303 0.72104 0.0
H3511 H 0.56883 0.98903 0.74215 0.0
H3512 H 0.6014 0.04791 0.76208 0.0
C3513 C 0.65632 0.05645 0.71654 0.0
C3514 C 0.66149 0.04614 0.70421 0.0
C3515 C 0.64882 0.02687 0.69933 0.0
C3516 C 0.63137 0.01794 0.70677 0.0
C3517 C 0.62682 0.02845 0.7191 0.0
C3518 C 0.63892 0.0473 0.72393 0.0
C3519 C 0.63106 0.0552 0.73822 0.0
C3520 C 0.64327 0.06243 0.75692 0.0
C3521 C 0.62838 0.07065 0.72989 0.0
C3522 C 0.61272 0.03782 0.74082 0.0
C3523 C 0.61047 0.02257 0.72958 0.0
C3524 C 0.59479 0.00489 0.72988 0.0
C3525 C 0.58108 0.00273 0.74203 0.0
C3526 C 0.58316 0.01813 0.75383 0.0
C3527 C 0.59921 0.0359 0.75306 0.0
loop_
_geom_bond_atom_site_label_1
_geom_bond_atom_site_label_2
_geom_bond_distance
_geom_bond_site_symmetry_2
_ccdc_geom_bond_type
O0 Cd1 2.223 . S
O0 C8 1.315 . S
Cd1 O0 2.223 . S
Cd1 O4 2.297 . S
Cd1 O5 2.439 . S
Cd1 O11 2.240 . S
Cd2 O3 2.240 . S
Cd2 O10 2.223 . S
Cd2 O12 2.297 1_554 S
Cd2 O13 2.439 . S
O3 Cd2 2.240 . S
O3 C8 1.279 1_655 S
O4 Cd1 2.297 . S
O4 C6 1.247 . S
O5 Cd1 2.439 . S
O5 C6 1.208 . S
C6 O4 1.247 . S
C6 O5 1.208 . S
C7 O12 1.247 . S
C7 O13 1.208 1_556 S
C8 O0 1.315 . S
C8 O3 1.279 1_455 S
C9 O10 1.344 1_556 S
C9 O11 1.252 1_656 S
O10 Cd2 2.223 . S
O10 C9 1.344 1_554 S
O11 Cd1 2.240 . S
O11 C9 1.252 1_454 S
O12 Cd2 2.297 1_556 S
O12 C7 1.247 . S
O13 Cd2 2.439 . S
O13 C7 1.208 1_554 S
O14 Cd15 2.223 . S
O14 C22 1.315 . S
Cd15 O14 2.223 . S
Cd15 O18 2.297 . S
Cd15 O19 2.439 . S
Cd15 O25 2.240 . S
Cd16 O17 2.240 . S
Cd16 O24 2.223 . S
Cd16 O26 2.297 . S
Cd16 O27 2.439 . S
O17 Cd16 2.240 . S
O17 C22 1.279 . S
O18 Cd15 2.297 . S
O18 C20 1.247 . S
O19 Cd15 2.439 . S
O19 C20 1.208 . S
C20 O18 1.247 . S
C20 O19 1.208 . S
C21 O26 1.247 . S
C21 O27 1.208 . S
C22 O14 1.315 . S
C22 O17 1.279 . S
C23 O24 1.315 . S
C23 O25 1.279 . S
O24 Cd16 2.223 . S
O24 C23 1.315 . S
O25 Cd15 2.240 . S
O25 C23 1.279 . S
O26 Cd16 2.297 . S
O26 C21 1.247 . S
O27 Cd16 2.439 . S
O27 C21 1.208 . S
O28 Cd29 2.223 . S
O28 C36 1.311 1_554 S
Cd29 O28 2.223 . S
Cd29 O32 2.297 1_554 S
Cd29 O33 2.439 . S
Cd29 O39 2.240 . S
Cd30 O31 2.240 . S
Cd30 O38 2.223 . S
Cd30 O40 2.297 . S
Cd30 O41 2.439 . S
O31 Cd30 2.240 . S
O31 C36 1.279 1_564 S
O32 Cd29 2.297 1_556 S
O32 C34 1.247 . S
O33 Cd29 2.439 . S
O33 C34 1.208 1_554 S
C34 O32 1.247 . S
C34 O33 1.208 1_556 S
C35 O40 1.247 . S
C35 O41 1.208 . S
C36 O28 1.311 1_556 S
C36 O31 1.279 1_546 S
C37 O38 1.353 . S
C37 O39 1.243 1_565 S
O38 Cd30 2.223 . S
O38 C37 1.353 . S
O39 Cd29 2.240 . S
O39 C37 1.243 1_545 S
O40 Cd30 2.297 . S
O40 C35 1.247 . S
O41 Cd30 2.439 . S
O41 C35 1.208 . S
O42 Cd43 2.223 . S
O42 C50 1.315 . S
Cd43 O42 2.223 . S
Cd43 O46 2.297 . S
Cd43 O47 2.439 . S
Cd43 O53 2.240 . S
Cd44 O45 2.240 . S
Cd44 O52 2.223 . S
Cd44 O54 2.297 . S
Cd44 O55 2.439 . S
O45 Cd44 2.240 . S
O45 C50 1.279 1_455 S
O46 Cd43 2.297 . S
O46 C48 1.247 . S
O47 Cd43 2.439 . S
O47 C48 1.208 . S
C48 O46 1.247 . S
C48 O47 1.208 . S
C49 O54 1.247 . S
C49 O55 1.208 . S
C50 O42 1.315 . S
C50 O45 1.279 1_655 S
C51 O52 1.315 . S
C51 O53 1.279 1_455 S
O52 Cd44 2.223 . S
O52 C51 1.315 . S
O53 Cd43 2.240 . S
O53 C51 1.279 1_655 S
O54 Cd44 2.297 . S
O54 C49 1.247 . S
O55 Cd44 2.439 . S
O55 C49 1.208 . S
O56 Cd57 2.228 . S
O56 C64 1.315 . S
Cd57 O56 2.228 . S
Cd57 O60 2.304 . S
Cd57 O61 2.442 . S
Cd57 O67 2.233 1_556 S
Cd58 O59 2.240 1_554 S
Cd58 O66 2.223 . S
Cd58 O68 2.297 . S
Cd58 O69 2.439 . S
O59 Cd58 2.240 1_556 S
O59 C64 1.279 . S
O60 Cd57 2.304 . S
O60 C62 1.247 . S
O61 Cd57 2.442 . S
O61 C62 1.208 . S
C62 O60 1.247 . S
C62 O61 1.208 . S
C63 O68 1.247 . S
C63 O69 1.208 . S
C64 O56 1.315 . S
C64 O59 1.279 . S
C65 O66 1.315 . S
C65 O67 1.279 . S
O66 Cd58 2.223 . S
O66 C65 1.315 . S
O67 Cd57 2.233 1_554 S
O67 C65 1.279 . S
O68 Cd58 2.297 . S
O68 C63 1.247 . S
O69 Cd58 2.439 . S
O69 C63 1.208 . S
O70 Cd71 2.223 . S
O70 C78 1.305 1_565 S
Cd71 O70 2.223 . S
Cd71 O74 2.297 . S
Cd71 O75 2.439 . S
Cd71 O81 2.240 . S
Cd72 O73 2.240 . S
Cd72 O80 2.223 . S
Cd72 O82 2.297 . S
Cd72 O83 2.439 . S
O73 Cd72 2.240 . S
O73 C78 1.279 . S
O74 Cd71 2.297 . S
O74 C76 1.247 . S
O75 Cd71 2.439 . S
O75 C76 1.208 . S
C76 O74 1.247 . S
C76 O75 1.208 . S
C77 O82 1.247 . S
C77 O83 1.208 . S
C78 O70 1.305 1_545 S
C78 O73 1.279 . S
C79 O80 1.375 . S
C79 O81 1.222 1_545 S
O80 Cd72 2.223 . S
O80 C79 1.375 . S
O81 Cd71 2.240 . S
O81 C79 1.222 1_565 S
O82 Cd72 2.297 . S
O82 C77 1.247 . S
O83 Cd72 2.439 . S
O83 C77 1.208 . S
O84 Cd85 2.223 . S
O84 C92 1.315 . S
Cd85 O84 2.223 . S
Cd85 O88 2.297 . S
Cd85 O89 2.439 . S
Cd85 O95 2.240 . S
Cd86 O87 2.240 . S
Cd86 O94 2.223 . S
Cd86 O96 2.297 . S
Cd86 O97 2.439 . S
O87 Cd86 2.240 . S
O87 C92 1.279 . S
O88 Cd85 2.297 . S
O88 C90 1.247 . S
O89 Cd85 2.439 . S
O89 C90 1.208 . S
C90 O88 1.247 . S
C90 O89 1.208 . S
C91 O96 1.247 . S
C91 O97 1.208 . S
C92 O84 1.315 . S
C92 O87 1.279 . S
C93 O94 1.315 . S
C93 O95 1.279 . S
O94 Cd86 2.223 . S
O94 C93 1.315 . S
O95 Cd85 2.240 . S
O95 C93 1.279 . S
O96 Cd86 2.297 . S
O96 C91 1.247 . S
O97 Cd86 2.439 . S
O97 C91 1.208 . S
O98 Cd99 2.223 . S
O98 C106 1.315 . S
Cd99 O98 2.223 . S
Cd99 O102 2.297 . S
Cd99 O103 2.439 . S
Cd99 O109 2.240 . S
Cd100 O101 2.240 . S
Cd100 O108 2.223 . S
Cd100 O110 2.297 . S
Cd100 O111 2.439 . S
O101 Cd100 2.240 . S
O101 C106 1.279 . S
O102 Cd99 2.297 . S
O102 C104 1.246 . S
O103 Cd99 2.439 . S
O103 C104 1.218 . S
C104 O102 1.246 . S
C104 O103 1.218 . S
C105 O110 1.247 . S
C105 O111 1.208 . S
C106 O98 1.315 . S
C106 O101 1.279 . S
C107 O108 1.315 . S
C107 O109 1.279 . S
O108 Cd100 2.223 . S
O108 C107 1.315 . S
O109 Cd99 2.240 . S
O109 C107 1.279 . S
O110 Cd100 2.297 . S
O110 C105 1.247 . S
O111 Cd100 2.439 . S
O111 C105 1.208 . S
O112 Cd113 2.223 . S
O112 C120 1.315 . S
Cd113 O112 2.223 . S
Cd113 O116 2.297 . S
Cd113 O117 2.439 . S
Cd113 O123 2.240 . S
Cd114 O115 2.240 . S
Cd114 O122 2.223 . S
Cd114 O124 2.297 . S
Cd114 O125 2.439 . S
O115 Cd114 2.240 . S
O115 C120 1.279 . S
O116 Cd113 2.297 . S
O116 C118 1.247 . S
O117 Cd113 2.439 . S
O117 C118 1.208 . S
C118 O116 1.247 . S
C118 O117 1.208 . S
C119 O124 1.247 . S
C119 O125 1.208 . S
C120 O112 1.315 . S
C120 O115 1.279 . S
C121 O122 1.315 . S
C121 O123 1.279 . S
O122 Cd114 2.223 . S
O122 C121 1.315 . S
O123 Cd113 2.240 . S
O123 C121 1.279 . S
O124 Cd114 2.297 . S
O124 C119 1.247 . S
O125 Cd114 2.439 . S
O125 C119 1.208 . S
O126 Cd127 2.223 . S
O126 C134 1.315 . S
Cd127 O126 2.223 . S
Cd127 O130 2.297 . S
Cd127 O131 2.439 . S
Cd127 O137 2.240 . S
Cd128 O129 2.240 . S
Cd128 O136 2.223 . S
Cd128 O138 2.296 . S
Cd128 O139 2.439 1_565 S
O129 Cd128 2.240 . S
O129 C134 1.279 . S
O130 Cd127 2.297 . S
O130 C132 1.247 . S
O131 Cd127 2.439 . S
O131 C132 1.208 . S
C132 O130 1.247 . S
C132 O131 1.208 . S
C133 O138 1.250 1_545 S
C133 O139 1.208 . S
C134 O126 1.315 . S
C134 O129 1.279 . S
C135 O136 1.315 . S
C135 O137 1.279 . S
O136 Cd128 2.223 . S
O136 C135 1.315 . S
O137 Cd127 2.240 . S
O137 C135 1.279 . S
O138 Cd128 2.296 . S
O138 C133 1.250 1_565 S
O139 Cd128 2.439 1_545 S
O139 C133 1.208 . S
O140 Cd141 2.223 . S
O140 C148 1.315 . S
Cd141 O140 2.223 . S
Cd141 O144 2.297 . S
Cd141 O145 2.439 . S
Cd141 O151 2.240 . S
Cd142 O143 2.240 . S
Cd142 O150 2.223 . S
Cd142 O152 2.297 . S
Cd142 O153 2.439 . S
O143 Cd142 2.240 . S
O143 C148 1.279 . S
O144 Cd141 2.297 . S
O144 C146 1.247 . S
O145 Cd141 2.439 . S
O145 C146 1.208 . S
C146 O144 1.247 . S
C146 O145 1.208 . S
C147 O152 1.247 1_655 S
C147 O153 1.208 1_655 S
C148 O140 1.315 . S
C148 O143 1.279 . S
C149 O150 1.315 . S
C149 O151 1.279 . S
O150 Cd142 2.223 . S
O150 C149 1.315 . S
O151 Cd141 2.240 . S
O151 C149 1.279 . S
O152 Cd142 2.297 . S
O152 C147 1.247 1_455 S
O153 Cd142 2.439 . S
O153 C147 1.208 1_455 S
O154 Cd155 2.223 . S
O154 C162 1.315 . S
Cd155 O154 2.223 . S
Cd155 O158 2.297 . S
Cd155 O159 2.439 . S
Cd155 O165 2.240 . S
Cd156 O157 2.240 . S
Cd156 O164 2.223 . S
Cd156 O166 2.297 . S
Cd156 O167 2.439 . S
O157 Cd156 2.240 . S
O157 C162 1.279 . S
O158 Cd155 2.297 . S
O158 C160 1.247 . S
O159 Cd155 2.439 . S
O159 C160 1.208 . S
C160 O158 1.247 . S
C160 O159 1.208 . S
C161 O166 1.247 . S
C161 O167 1.208 . S
C162 O154 1.315 . S
C162 O157 1.279 . S
C163 O164 1.315 . S
C163 O165 1.279 . S
O164 Cd156 2.223 . S
O164 C163 1.315 . S
O165 Cd155 2.240 . S
O165 C163 1.279 . S
O166 Cd156 2.297 . S
O166 C161 1.247 . S
O167 Cd156 2.439 . S
O167 C161 1.208 . S
O168 Cd169 2.223 . S
O168 C176 1.315 . S
Cd169 O168 2.223 . S
Cd169 O172 2.297 . S
Cd169 O173 2.439 . S
Cd169 O179 2.240 . S
Cd170 O171 2.240 . S
Cd170 O178 2.223 . S
Cd170 O180 2.299 1_545 S
Cd170 O181 2.439 1_545 S
O171 Cd170 2.240 . S
O171 C176 1.279 . S
O172 Cd169 2.297 . S
O172 C174 1.247 . S
O173 Cd169 2.439 . S
O173 C174 1.208 . S
C174 O172 1.247 . S
C174 O173 1.208 . S
C175 O180 1.244 . S
C175 O181 1.208 . S
C176 O168 1.315 . S
C176 O171 1.279 . S
C177 O178 1.315 . S
C177 O179 1.279 . S
O178 Cd170 2.223 . S
O178 C177 1.315 . S
O179 Cd169 2.240 . S
O179 C177 1.279 . S
O180 Cd170 2.299 1_565 S
O180 C175 1.244 . S
O181 Cd170 2.439 1_565 S
O181 C175 1.208 . S
O182 Cd183 2.223 . S
O182 C190 1.315 . S
Cd183 O182 2.223 . S
Cd183 O186 2.297 . S
Cd183 O187 2.439 . S
Cd183 O193 2.240 . S
Cd184 O185 2.240 . S
Cd184 O192 2.223 . S
Cd184 O194 2.297 . S
Cd184 O195 2.440 1_655 S
O185 Cd184 2.240 . S
O185 C190 1.279 . S
O186 Cd183 2.297 . S
O186 C188 1.247 . S
O187 Cd183 2.439 . S
O187 C188 1.208 . S
C188 O186 1.247 . S
C188 O187 1.208 . S
C189 O194 1.247 1_455 S
C189 O195 1.205 . S
C190 O182 1.315 . S
C190 O185 1.279 . S
C191 O192 1.315 . S
C191 O193 1.279 . S
O192 Cd184 2.223 . S
O192 C191 1.315 . S
O193 Cd183 2.240 . S
O193 C191 1.279 . S
O194 Cd184 2.297 . S
O194 C189 1.247 1_655 S
O195 Cd184 2.440 1_455 S
O195 C189 1.205 . S
O196 Cd197 2.223 . S
O196 C204 1.315 . S
Cd197 O196 2.223 . S
Cd197 O200 2.297 . S
Cd197 O201 2.439 . S
Cd197 O207 2.240 . S
Cd198 O199 2.240 . S
Cd198 O206 2.223 . S
Cd198 O208 2.297 . S
Cd198 O209 2.439 . S
O199 Cd198 2.240 . S
O199 C204 1.279 . S
O200 Cd197 2.297 . S
O200 C202 1.247 . S
O201 Cd197 2.439 . S
O201 C202 1.208 . S
C202 O200 1.247 . S
C202 O201 1.208 . S
C203 O208 1.247 . S
C203 O209 1.208 . S
C204 O196 1.315 . S
C204 O199 1.279 . S
C205 O206 1.315 . S
C205 O207 1.279 . S
O206 Cd198 2.223 . S
O206 C205 1.315 . S
O207 Cd197 2.240 . S
O207 C205 1.279 . S
O208 Cd198 2.297 . S
O208 C203 1.247 . S
O209 Cd198 2.439 . S
O209 C203 1.208 . S
O210 Cd211 2.223 . S
O210 C218 1.315 . S
Cd211 O210 2.223 . S
Cd211 O214 2.297 . S
Cd211 O215 2.439 . S
Cd211 O221 2.240 . S
Cd212 O213 2.240 . S
Cd212 O220 2.223 . S
Cd212 O222 2.297 . S
Cd212 O223 2.439 . S
O213 Cd212 2.240 . S
O213 C218 1.279 . S
O214 Cd211 2.297 . S
O214 C216 1.247 . S
O215 Cd211 2.439 . S
O215 C216 1.208 . S
C216 O214 1.247 . S
C216 O215 1.208 . S
C217 O222 1.247 . S
C217 O223 1.208 . S
C218 O210 1.315 . S
C218 O213 1.279 . S
C219 O220 1.315 . S
C219 O221 1.279 . S
O220 Cd212 2.223 . S
O220 C219 1.315 . S
O221 Cd211 2.240 . S
O221 C219 1.279 . S
O222 Cd212 2.297 . S
O222 C217 1.247 . S
O223 Cd212 2.439 . S
O223 C217 1.208 . S
O224 Cd225 2.223 . S
O224 C232 1.315 . S
Cd225 O224 2.223 . S
Cd225 O228 2.297 . S
Cd225 O229 2.439 . S
Cd225 O235 2.240 . S
Cd226 O227 2.240 . S
Cd226 O234 2.223 . S
Cd226 O236 2.297 . S
Cd226 O237 2.439 . S
O227 Cd226 2.240 . S
O227 C232 1.279 . S
O228 Cd225 2.297 . S
O228 C230 1.247 . S
O229 Cd225 2.439 . S
O229 C230 1.213 . S
C230 O228 1.247 . S
C230 O229 1.213 . S
C231 O236 1.247 . S
C231 O237 1.208 . S
C232 O224 1.315 . S
C232 O227 1.279 . S
C233 O234 1.315 . S
C233 O235 1.279 . S
O234 Cd226 2.223 . S
O234 C233 1.315 . S
O235 Cd225 2.240 . S
O235 C233 1.279 . S
O236 Cd226 2.297 . S
O236 C231 1.247 . S
O237 Cd226 2.439 . S
O237 C231 1.208 . S
O238 Cd239 2.223 . S
O238 C246 1.315 . S
Cd239 O238 2.223 . S
Cd239 O242 2.297 . S
Cd239 O243 2.439 . S
Cd239 O249 2.240 . S
Cd240 O241 2.240 . S
Cd240 O248 2.223 . S
Cd240 O250 2.297 . S
Cd240 O251 2.439 . S
O241 Cd240 2.240 . S
O241 C246 1.279 . S
O242 Cd239 2.297 . S
O242 C244 1.247 . S
O243 Cd239 2.439 . S
O243 C244 1.208 . S
C244 O242 1.247 . S
C244 O243 1.208 . S
C245 O250 1.247 . S
C245 O251 1.208 . S
C246 O238 1.315 . S
C246 O241 1.279 . S
C247 O248 1.315 . S
C247 O249 1.279 . S
O248 Cd240 2.223 . S
O248 C247 1.315 . S
O249 Cd239 2.240 . S
O249 C247 1.279 . S
O250 Cd240 2.297 . S
O250 C245 1.247 . S
O251 Cd240 2.439 . S
O251 C245 1.208 . S
H252 O278 0.856 . S
H253 O281 0.854 . S
H254 C289 0.930 . S
H255 C290 0.930 . S
H256 C292 0.930 . S
H257 C293 0.930 . S
H258 C295 0.931 . S
H259 C296 0.930 . S
H260 C298 0.930 . S
H261 C299 0.929 . S
H262 C301 0.930 . S
H263 C302 0.931 . S
H264 C304 0.930 . S
H265 C305 0.929 . S
H266 C307 0.931 . S
H267 C308 0.930 . S
H268 C310 0.930 . S
H269 C311 0.932 . S
H270 C313 0.930 . S
H271 C314 0.929 . S
H272 C316 0.931 . S
H273 C317 0.930 . S
H274 C319 0.929 . S
H275 C320 0.931 . S
H276 C322 0.930 . S
H277 C323 0.929 . S
O278 H252 0.856 . S
O278 C324 1.300 . S
O279 C324 1.209 . S
O280 C325 1.199 . S
O281 H253 0.854 . S
O281 C325 1.297 . S
C282 C283 1.404 . S
C282 C287 1.397 . S
C282 C288 1.492 . S
C283 C282 1.404 . S
C283 C284 1.396 . S
C283 C294 1.492 . S
C284 C283 1.396 . S
C284 C285 1.397 . S
C284 C300 1.509 . S
C285 C284 1.397 . S
C285 C286 1.412 . S
C285 C306 1.485 . S
C286 C285 1.412 . S
C286 C287 1.388 . S
C286 C312 1.490 . S
C287 C282 1.397 . S
C287 C286 1.388 . S
C287 C318 1.519 . S
C288 C282 1.492 . S
C288 C289 1.363 . S
C288 C293 1.390 . S
C289 H254 0.930 . S
C289 C288 1.363 . S
C289 C290 1.372 . S
C290 H255 0.930 . S
C290 C289 1.372 . S
C290 C291 1.383 . S
C291 C290 1.383 . S
C291 C292 1.395 . S
C292 H256 0.930 . S
C292 C291 1.395 . S
C292 C293 1.362 . S
C293 H257 0.930 . S
C293 C288 1.390 . S
C293 C292 1.362 . S
C294 C283 1.492 . S
C294 C295 1.377 . S
C294 C299 1.397 . S
C295 H258 0.931 . S
C295 C294 1.377 . S
C295 C296 1.376 . S
C296 H259 0.930 . S
C296 C295 1.376 . S
C296 C297 1.376 . S
C297 C296 1.376 . S
C297 C298 1.378 . S
C297 C324 1.486 . S
C298 H260 0.930 . S
C298 C297 1.378 . S
C298 C299 1.376 . S
C299 H261 0.929 . S
C299 C294 1.397 . S
C299 C298 1.376 . S
C300 C284 1.509 . S
C300 C301 1.391 . S
C300 C305 1.386 . S
C301 H262 0.930 . S
C301 C300 1.391 . S
C301 C302 1.375 . S
C302 H263 0.931 . S
C302 C301 1.375 . S
C302 C303 1.375 . S
C303 C302 1.375 . S
C303 C304 1.361 . S
C304 H264 0.930 . S
C304 C303 1.361 . S
C304 C305 1.399 . S
C305 H265 0.929 . S
C305 C300 1.386 . S
C305 C304 1.399 . S
C306 C285 1.485 . S
C306 C307 1.394 . S
C306 C311 1.360 . S
C307 H266 0.931 . S
C307 C306 1.394 . S
C307 C308 1.372 . S
C308 H267 0.930 . S
C308 C307 1.372 . S
C308 C309 1.397 . S
C309 C308 1.397 . S
C309 C310 1.390 . S
C309 C325 1.476 . S
C310 H268 0.930 . S
C310 C309 1.390 . S
C310 C311 1.366 . S
C311 H269 0.932 . S
C311 C306 1.360 . S
C311 C310 1.366 . S
C312 C286 1.490 . S
C312 C313 1.380 . S
C312 C317 1.386 . S
C313 H270 0.930 . S
C313 C312 1.380 . S
C313 C314 1.381 . S
C314 H271 0.929 . S
C314 C313 1.381 . S
C314 C315 1.371 . S
C315 C314 1.371 . S
C315 C316 1.380 . S
C316 H272 0.931 . S
C316 C315 1.380 . S
C316 C317 1.387 . S
C317 H273 0.930 . S
C317 C312 1.386 . S
C317 C316 1.387 . S
C318 C287 1.519 . S
C318 C319 1.377 . S
C318 C323 1.361 . S
C319 H274 0.929 . S
C319 C318 1.377 . S
C319 C320 1.386 . S
C320 H275 0.931 . S
C320 C319 1.386 . S
C320 C321 1.363 . S
C321 C320 1.363 . S
C321 C322 1.385 . S
C322 H276 0.930 . S
C322 C321 1.385 . S
C322 C323 1.396 . S
C323 H277 0.929 . S
C323 C318 1.361 . S
C323 C322 1.396 . S
C324 O278 1.300 . S
C324 O279 1.209 . S
C324 C297 1.486 . S
C325 O280 1.199 . S
C325 O281 1.297 . S
C325 C309 1.476 . S
H326 O352 0.856 . S
H327 O355 0.854 . S
H328 C363 0.930 . S
H329 C364 0.930 . S
H330 C366 0.930 . S
H331 C367 0.930 . S
H332 C369 0.931 . S
H333 C370 0.930 . S
H334 C372 0.930 . S
H335 C373 0.929 . S
H336 C375 0.930 . S
H337 C376 0.931 . S
H338 C378 0.930 . S
H339 C379 0.929 . S
H340 C381 0.931 . S
H341 C382 0.930 . S
H342 C384 0.930 . S
H343 C385 0.932 . S
H344 C387 0.930 . S
H345 C388 0.929 . S
H346 C390 0.931 . S
H347 C391 0.930 . S
H348 C393 0.929 . S
H349 C394 0.931 . S
H350 C396 0.930 . S
H351 C397 0.929 . S
O352 H326 0.856 . S
O352 C398 1.300 . S
O353 C398 1.209 . S
O354 C399 1.199 . S
O355 H327 0.854 . S
O355 C399 1.297 . S
C356 C357 1.404 . S
C356 C361 1.397 . S
C356 C362 1.492 . S
C357 C356 1.404 . S
C357 C358 1.396 . S
C357 C368 1.492 . S
C358 C357 1.396 . S
C358 C359 1.397 . S
C358 C374 1.509 . S
C359 C358 1.397 . S
C359 C360 1.412 . S
C359 C380 1.485 . S
C360 C359 1.412 . S
C360 C361 1.388 . S
C360 C386 1.490 . S
C361 C356 1.397 . S
C361 C360 1.388 . S
C361 C392 1.519 . S
C362 C356 1.492 . S
C362 C363 1.363 . S
C362 C367 1.390 . S
C363 H328 0.930 . S
C363 C362 1.363 . S
C363 C364 1.372 . S
C364 H329 0.930 . S
C364 C363 1.372 . S
C364 C365 1.383 . S
C365 C364 1.383 . S
C365 C366 1.395 . S
C366 H330 0.930 . S
C366 C365 1.395 . S
C366 C367 1.362 . S
C367 H331 0.930 . S
C367 C362 1.390 . S
C367 C366 1.362 . S
C368 C357 1.492 . S
C368 C369 1.377 . S
C368 C373 1.397 . S
C369 H332 0.931 . S
C369 C368 1.377 . S
C369 C370 1.376 . S
C370 H333 0.930 . S
C370 C369 1.376 . S
C370 C371 1.376 . S
C371 C370 1.376 . S
C371 C372 1.378 . S
C371 C398 1.486 . S
C372 H334 0.930 . S
C372 C371 1.378 . S
C372 C373 1.376 . S
C373 H335 0.929 . S
C373 C368 1.397 . S
C373 C372 1.376 . S
C374 C358 1.509 . S
C374 C375 1.391 . S
C374 C379 1.386 . S
C375 H336 0.930 . S
C375 C374 1.391 . S
C375 C376 1.375 . S
C376 H337 0.931 . S
C376 C375 1.375 . S
C376 C377 1.375 . S
C377 C376 1.375 . S
C377 C378 1.361 . S
C378 H338 0.930 . S
C378 C377 1.361 . S
C378 C379 1.399 . S
C379 H339 0.929 . S
C379 C374 1.386 . S
C379 C378 1.399 . S
C380 C359 1.485 . S
C380 C381 1.394 . S
C380 C385 1.360 . S
C381 H340 0.931 . S
C381 C380 1.394 . S
C381 C382 1.372 . S
C382 H341 0.930 . S
C382 C381 1.372 . S
C382 C383 1.397 . S
C383 C382 1.397 . S
C383 C384 1.390 . S
C383 C399 1.476 . S
C384 H342 0.930 . S
C384 C383 1.390 . S
C384 C385 1.366 . S
C385 H343 0.932 . S
C385 C380 1.360 . S
C385 C384 1.366 . S
C386 C360 1.490 . S
C386 C387 1.380 . S
C386 C391 1.386 . S
C387 H344 0.930 . S
C387 C386 1.380 . S
C387 C388 1.381 . S
C388 H345 0.929 . S
C388 C387 1.381 . S
C388 C389 1.371 . S
C389 C388 1.371 . S
C389 C390 1.380 . S
C390 H346 0.931 . S
C390 C389 1.380 . S
C390 C391 1.387 . S
C391 H347 0.930 . S
C391 C386 1.386 . S
C391 C390 1.387 . S
C392 C361 1.519 . S
C392 C393 1.377 . S
C392 C397 1.361 . S
C393 H348 0.929 . S
C393 C392 1.377 . S
C393 C394 1.386 . S
C394 H349 0.931 . S
C394 C393 1.386 . S
C394 C395 1.363 . S
C395 C394 1.363 . S
C395 C396 1.385 . S
C396 H350 0.930 . S
C396 C395 1.385 . S
C396 C397 1.396 . S
C397 H351 0.929 . S
C397 C392 1.361 . S
C397 C396 1.396 . S
C398 O352 1.300 . S
C398 O353 1.209 . S
C398 C371 1.486 . S
C399 O354 1.199 . S
C399 O355 1.297 . S
C399 C383 1.476 . S
H400 O426 0.856 . S
H401 O429 0.854 . S
H402 C437 0.930 . S
H403 C438 0.930 . S
H404 C440 0.930 . S
H405 C441 0.930 . S
H406 C443 0.931 . S
H407 C444 0.930 . S
H408 C446 0.930 . S
H409 C447 0.929 . S
H410 C449 0.930 . S
H411 C450 0.931 . S
H412 C452 0.930 . S
H413 C453 0.929 . S
H414 C455 0.931 . S
H415 C456 0.930 . S
H416 C458 0.930 . S
H417 C459 0.932 . S
H418 C461 0.930 . S
H419 C462 0.929 . S
H420 C464 0.931 . S
H421 C465 0.930 . S
H422 C467 0.929 . S
H423 C468 0.931 . S
H424 C470 0.930 . S
H425 C471 0.929 . S
O426 H400 0.856 . S
O426 C472 1.300 . S
O427 C472 1.209 . S
O428 C473 1.199 . S
O429 H401 0.854 . S
O429 C473 1.297 . S
C430 C431 1.404 . S
C430 C435 1.397 . S
C430 C436 1.492 . S
C431 C430 1.404 . S
C431 C432 1.396 . S
C431 C442 1.492 . S
C432 C431 1.396 . S
C432 C433 1.397 . S
C432 C448 1.509 . S
C433 C432 1.397 . S
C433 C434 1.412 . S
C433 C454 1.485 . S
C434 C433 1.412 . S
C434 C435 1.388 . S
C434 C460 1.490 . S
C435 C430 1.397 . S
C435 C434 1.388 . S
C435 C466 1.519 . S
C436 C430 1.492 . S
C436 C437 1.363 . S
C436 C441 1.390 . S
C437 H402 0.930 . S
C437 C436 1.363 . S
C437 C438 1.372 . S
C438 H403 0.930 . S
C438 C437 1.372 . S
C438 C439 1.383 . S
C439 C438 1.383 . S
C439 C440 1.395 . S
C440 H404 0.930 . S
C440 C439 1.395 . S
C440 C441 1.362 . S
C441 H405 0.930 . S
C441 C436 1.390 . S
C441 C440 1.362 . S
C442 C431 1.492 . S
C442 C443 1.377 . S
C442 C447 1.397 . S
C443 H406 0.931 . S
C443 C442 1.377 . S
C443 C444 1.376 . S
C444 H407 0.930 . S
C444 C443 1.376 . S
C444 C445 1.376 . S
C445 C444 1.376 . S
C445 C446 1.378 . S
C445 C472 1.486 . S
C446 H408 0.930 . S
C446 C445 1.378 . S
C446 C447 1.376 . S
C447 H409 0.929 . S
C447 C442 1.397 . S
C447 C446 1.376 . S
C448 C432 1.509 . S
C448 C449 1.391 . S
C448 C453 1.386 . S
C449 H410 0.930 . S
C449 C448 1.391 . S
C449 C450 1.375 . S
C450 H411 0.931 . S
C450 C449 1.375 . S
C450 C451 1.375 . S
C451 C450 1.375 . S
C451 C452 1.361 . S
C452 H412 0.930 . S
C452 C451 1.361 . S
C452 C453 1.399 . S
C453 H413 0.929 . S
C453 C448 1.386 . S
C453 C452 1.399 . S
C454 C433 1.485 . S
C454 C455 1.394 . S
C454 C459 1.360 . S
C455 H414 0.931 . S
C455 C454 1.394 . S
C455 C456 1.372 . S
C456 H415 0.930 . S
C456 C455 1.372 . S
C456 C457 1.397 . S
C457 C456 1.397 . S
C457 C458 1.390 . S
C457 C473 1.476 . S
C458 H416 0.930 . S
C458 C457 1.390 . S
C458 C459 1.366 . S
C459 H417 0.932 . S
C459 C454 1.360 . S
C459 C458 1.366 . S
C460 C434 1.490 . S
C460 C461 1.380 . S
C460 C465 1.386 . S
C461 H418 0.930 . S
C461 C460 1.380 . S
C461 C462 1.381 . S
C462 H419 0.929 . S
C462 C461 1.381 . S
C462 C463 1.371 . S
C463 C462 1.371 . S
C463 C464 1.380 . S
C464 H420 0.931 . S
C464 C463 1.380 . S
C464 C465 1.387 . S
C465 H421 0.930 . S
C465 C460 1.386 . S
C465 C464 1.387 . S
C466 C435 1.519 . S
C466 C467 1.377 . S
C466 C471 1.361 . S
C467 H422 0.929 . S
C467 C466 1.377 . S
C467 C468 1.386 . S
C468 H423 0.931 . S
C468 C467 1.386 . S
C468 C469 1.363 . S
C469 C468 1.363 . S
C469 C470 1.385 . S
C470 H424 0.930 . S
C470 C469 1.385 . S
C470 C471 1.396 . S
C471 H425 0.929 . S
C471 C466 1.361 . S
C471 C470 1.396 . S
C472 O426 1.300 . S
C472 O427 1.209 . S
C472 C445 1.486 . S
C473 O428 1.199 . S
C473 O429 1.297 . S
C473 C457 1.476 . S
H474 O500 0.856 . S
H475 O503 0.854 . S
H476 C511 0.930 . S
H477 C512 0.930 . S
H478 C514 0.930 . S
H479 C515 0.930 . S
H480 C517 0.931 . S
H481 C518 0.930 . S
H482 C520 0.930 . S
H483 C521 0.929 . S
H484 C523 0.930 . S
H485 C524 0.931 . S
H486 C526 0.930 . S
H487 C527 0.929 . S
H488 C529 0.931 . S
H489 C530 0.930 . S
H490 C532 0.930 . S
H491 C533 0.932 . S
H492 C535 0.930 . S
H493 C536 0.929 . S
H494 C538 0.931 . S
H495 C539 0.930 . S
H496 C541 0.929 . S
H497 C542 0.931 . S
H498 C544 0.930 . S
H499 C545 0.929 . S
O500 H474 0.856 . S
O500 C546 1.300 . S
O501 C546 1.209 . S
O502 C547 1.199 . S
O503 H475 0.854 . S
O503 C547 1.297 . S
C504 C505 1.404 . S
C504 C509 1.397 . S
C504 C510 1.492 . S
C505 C504 1.404 . S
C505 C506 1.396 . S
C505 C516 1.492 . S
C506 C505 1.396 . S
C506 C507 1.397 . S
C506 C522 1.509 . S
C507 C506 1.397 . S
C507 C508 1.412 . S
C507 C528 1.485 . S
C508 C507 1.412 . S
C508 C509 1.388 . S
C508 C534 1.490 . S
C509 C504 1.397 . S
C509 C508 1.388 . S
C509 C540 1.519 . S
C510 C504 1.492 . S
C510 C511 1.363 . S
C510 C515 1.390 . S
C511 H476 0.930 . S
C511 C510 1.363 . S
C511 C512 1.372 . S
C512 H477 0.930 . S
C512 C511 1.372 . S
C512 C513 1.383 . S
C513 C512 1.383 . S
C513 C514 1.395 . S
C514 H478 0.930 . S
C514 C513 1.395 . S
C514 C515 1.362 . S
C515 H479 0.930 . S
C515 C510 1.390 . S
C515 C514 1.362 . S
C516 C505 1.492 . S
C516 C517 1.377 . S
C516 C521 1.397 . S
C517 H480 0.931 . S
C517 C516 1.377 . S
C517 C518 1.376 . S
C518 H481 0.930 . S
C518 C517 1.376 . S
C518 C519 1.376 . S
C519 C518 1.376 . S
C519 C520 1.378 . S
C519 C546 1.486 . S
C520 H482 0.930 . S
C520 C519 1.378 . S
C520 C521 1.376 . S
C521 H483 0.929 . S
C521 C516 1.397 . S
C521 C520 1.376 . S
C522 C506 1.509 . S
C522 C523 1.391 . S
C522 C527 1.386 . S
C523 H484 0.930 . S
C523 C522 1.391 . S
C523 C524 1.375 . S
C524 H485 0.931 . S
C524 C523 1.375 . S
C524 C525 1.375 . S
C525 C524 1.375 . S
C525 C526 1.361 . S
C526 H486 0.930 . S
C526 C525 1.361 . S
C526 C527 1.399 . S
C527 H487 0.929 . S
C527 C522 1.386 . S
C527 C526 1.399 . S
C528 C507 1.485 . S
C528 C529 1.394 . S
C528 C533 1.360 . S
C529 H488 0.931 . S
C529 C528 1.394 . S
C529 C530 1.372 . S
C530 H489 0.930 . S
C530 C529 1.372 . S
C530 C531 1.397 . S
C531 C530 1.397 . S
C531 C532 1.390 . S
C531 C547 1.476 . S
C532 H490 0.930 . S
C532 C531 1.390 . S
C532 C533 1.366 . S
C533 H491 0.932 . S
C533 C528 1.360 . S
C533 C532 1.366 . S
C534 C508 1.490 . S
C534 C535 1.380 . S
C534 C539 1.386 . S
C535 H492 0.930 . S
C535 C534 1.380 . S
C535 C536 1.381 . S
C536 H493 0.929 . S
C536 C535 1.381 . S
C536 C537 1.371 . S
C537 C536 1.371 . S
C537 C538 1.380 . S
C538 H494 0.931 . S
C538 C537 1.380 . S
C538 C539 1.387 . S
C539 H495 0.930 . S
C539 C534 1.386 . S
C539 C538 1.387 . S
C540 C509 1.519 . S
C540 C541 1.377 . S
C540 C545 1.361 . S
C541 H496 0.929 . S
C541 C540 1.377 . S
C541 C542 1.386 . S
C542 H497 0.931 . S
C542 C541 1.386 . S
C542 C543 1.363 . S
C543 C542 1.363 . S
C543 C544 1.385 . S
C544 H498 0.930 . S
C544 C543 1.385 . S
C544 C545 1.396 . S
C545 H499 0.929 . S
C545 C540 1.361 . S
C545 C544 1.396 . S
C546 O500 1.300 . S
C546 O501 1.209 . S
C546 C519 1.486 . S
C547 O502 1.199 . S
C547 O503 1.297 . S
C547 C531 1.476 . S
H548 O574 0.856 1_554 S
H549 O577 0.854 . S
H550 C585 0.930 . S
H551 C586 0.930 . S
H552 C588 0.930 . S
H553 C589 0.930 . S
H554 C591 0.931 . S
H555 C592 0.930 . S
H556 C594 0.930 . S
H557 C595 0.929 . S
H558 C597 0.930 . S
H559 C598 0.931 . S
H560 C600 0.930 . S
H561 C601 0.929 . S
H562 C603 0.931 . S
H563 C604 0.930 . S
H564 C606 0.930 . S
H565 C607 0.932 . S
H566 C609 0.930 . S
H567 C610 0.929 . S
H568 C612 0.931 . S
H569 C613 0.930 . S
H570 C615 0.929 . S
H571 C616 0.931 . S
H572 C618 0.930 . S
H573 C619 0.929 . S
O574 H548 0.856 1_556 S
O574 C620 1.300 . S
O575 C620 1.209 . S
O576 C621 1.199 . S
O577 H549 0.854 . S
O577 C621 1.297 . S
C578 C579 1.404 . S
C578 C583 1.397 . S
C578 C584 1.492 . S
C579 C578 1.404 . S
C579 C580 1.396 . S
C579 C590 1.492 . S
C580 C579 1.396 . S
C580 C581 1.397 . S
C580 C596 1.509 . S
C581 C580 1.397 . S
C581 C582 1.412 . S
C581 C602 1.485 . S
C582 C581 1.412 . S
C582 C583 1.388 . S
C582 C608 1.490 . S
C583 C578 1.397 . S
C583 C582 1.388 . S
C583 C614 1.519 . S
C584 C578 1.492 . S
C584 C585 1.363 . S
C584 C589 1.390 . S
C585 H550 0.930 . S
C585 C584 1.363 . S
C585 C586 1.372 . S
C586 H551 0.930 . S
C586 C585 1.372 . S
C586 C587 1.383 . S
C587 C586 1.383 . S
C587 C588 1.395 . S
C588 H552 0.930 . S
C588 C587 1.395 . S
C588 C589 1.362 . S
C589 H553 0.930 . S
C589 C584 1.390 . S
C589 C588 1.362 . S
C590 C579 1.492 . S
C590 C591 1.377 . S
C590 C595 1.397 . S
C591 H554 0.931 . S
C591 C590 1.377 . S
C591 C592 1.376 . S
C592 H555 0.930 . S
C592 C591 1.376 . S
C592 C593 1.376 . S
C593 C592 1.376 . S
C593 C594 1.378 . S
C593 C620 1.486 . S
C594 H556 0.930 . S
C594 C593 1.378 . S
C594 C595 1.376 . S
C595 H557 0.929 . S
C595 C590 1.397 . S
C595 C594 1.376 . S
C596 C580 1.509 . S
C596 C597 1.391 . S
C596 C601 1.386 . S
C597 H558 0.930 . S
C597 C596 1.391 . S
C597 C598 1.375 . S
C598 H559 0.931 . S
C598 C597 1.375 . S
C598 C599 1.375 . S
C599 C598 1.375 . S
C599 C600 1.361 . S
C600 H560 0.930 . S
C600 C599 1.361 . S
C600 C601 1.399 . S
C601 H561 0.929 . S
C601 C596 1.386 . S
C601 C600 1.399 . S
C602 C581 1.485 . S
C602 C603 1.394 . S
C602 C607 1.360 . S
C603 H562 0.931 . S
C603 C602 1.394 . S
C603 C604 1.372 . S
C604 H563 0.930 . S
C604 C603 1.372 . S
C604 C605 1.397 . S
C605 C604 1.397 . S
C605 C606 1.390 . S
C605 C621 1.476 . S
C606 H564 0.930 . S
C606 C605 1.390 . S
C606 C607 1.366 . S
C607 H565 0.932 . S
C607 C602 1.360 . S
C607 C606 1.366 . S
C608 C582 1.490 . S
C608 C609 1.380 . S
C608 C613 1.386 . S
C609 H566 0.930 . S
C609 C608 1.380 . S
C609 C610 1.381 . S
C610 H567 0.929 . S
C610 C609 1.381 . S
C610 C611 1.371 . S
C611 C610 1.371 . S
C611 C612 1.380 . S
C612 H568 0.931 . S
C612 C611 1.380 . S
C612 C613 1.387 . S
C613 H569 0.930 . S
C613 C608 1.386 . S
C613 C612 1.387 . S
C614 C583 1.519 . S
C614 C615 1.377 . S
C614 C619 1.361 . S
C615 H570 0.929 . S
C615 C614 1.377 . S
C615 C616 1.386 . S
C616 H571 0.931 . S
C616 C615 1.386 . S
C616 C617 1.363 . S
C617 C616 1.363 . S
C617 C618 1.385 . S
C618 H572 0.930 . S
C618 C617 1.385 . S
C618 C619 1.396 . S
C619 H573 0.929 . S
C619 C614 1.361 . S
C619 C618 1.396 . S
C620 O574 1.300 . S
C620 O575 1.209 . S
C620 C593 1.486 . S
C621 O576 1.199 . S
C621 O577 1.297 . S
C621 C605 1.476 . S
H622 O648 0.856 . S
H623 O651 0.854 . S
H624 C659 0.930 . S
H625 C660 0.930 . S
H626 C662 0.930 . S
H627 C663 0.930 . S
H628 C665 0.931 . S
H629 C666 0.930 . S
H630 C668 0.930 . S
H631 C669 0.929 . S
H632 C671 0.930 . S
H633 C672 0.931 . S
H634 C674 0.930 . S
H635 C675 0.929 . S
H636 C677 0.931 . S
H637 C678 0.930 . S
H638 C680 0.930 . S
H639 C681 0.932 . S
H640 C683 0.930 . S
H641 C684 0.929 . S
H642 C686 0.931 . S
H643 C687 0.930 . S
H644 C689 0.929 . S
H645 C690 0.931 . S
H646 C692 0.930 . S
H647 C693 0.929 . S
O648 H622 0.856 . S
O648 C694 1.300 1_554 S
O649 C694 1.209 . S
O650 C695 1.199 . S
O651 H623 0.854 . S
O651 C695 1.297 . S
C652 C653 1.404 . S
C652 C657 1.397 . S
C652 C658 1.492 . S
C653 C652 1.404 . S
C653 C654 1.396 . S
C653 C664 1.492 . S
C654 C653 1.396 . S
C654 C655 1.397 . S
C654 C670 1.509 . S
C655 C654 1.397 . S
C655 C656 1.412 . S
C655 C676 1.485 . S
C656 C655 1.412 . S
C656 C657 1.388 . S
C656 C682 1.490 . S
C657 C652 1.397 . S
C657 C656 1.388 . S
C657 C688 1.519 . S
C658 C652 1.492 . S
C658 C659 1.363 . S
C658 C663 1.390 . S
C659 H624 0.930 . S
C659 C658 1.363 . S
C659 C660 1.372 . S
C660 H625 0.930 . S
C660 C659 1.372 . S
C660 C661 1.383 . S
C661 C660 1.383 . S
C661 C662 1.395 . S
C662 H626 0.930 . S
C662 C661 1.395 . S
C662 C663 1.362 . S
C663 H627 0.930 . S
C663 C658 1.390 . S
C663 C662 1.362 . S
C664 C653 1.492 . S
C664 C665 1.377 . S
C664 C669 1.397 . S
C665 H628 0.931 . S
C665 C664 1.377 . S
C665 C666 1.376 . S
C666 H629 0.930 . S
C666 C665 1.376 . S
C666 C667 1.376 . S
C667 C666 1.376 . S
C667 C668 1.378 . S
C667 C694 1.486 . S
C668 H630 0.930 . S
C668 C667 1.378 . S
C668 C669 1.376 . S
C669 H631 0.929 . S
C669 C664 1.397 . S
C669 C668 1.376 . S
C670 C654 1.509 . S
C670 C671 1.391 . S
C670 C675 1.386 . S
C671 H632 0.930 . S
C671 C670 1.391 . S
C671 C672 1.375 . S
C672 H633 0.931 . S
C672 C671 1.375 . S
C672 C673 1.375 . S
C673 C672 1.375 . S
C673 C674 1.361 . S
C674 H634 0.930 . S
C674 C673 1.361 . S
C674 C675 1.399 . S
C675 H635 0.929 . S
C675 C670 1.386 . S
C675 C674 1.399 . S
C676 C655 1.485 . S
C676 C677 1.394 . S
C676 C681 1.360 . S
C677 H636 0.931 . S
C677 C676 1.394 . S
C677 C678 1.372 . S
C678 H637 0.930 . S
C678 C677 1.372 . S
C678 C679 1.397 . S
C679 C678 1.397 . S
C679 C680 1.390 . S
C679 C695 1.476 . S
C680 H638 0.930 . S
C680 C679 1.390 . S
C680 C681 1.366 . S
C681 H639 0.932 . S
C681 C676 1.360 . S
C681 C680 1.366 . S
C682 C656 1.490 . S
C682 C683 1.380 . S
C682 C687 1.386 . S
C683 H640 0.930 . S
C683 C682 1.380 . S
C683 C684 1.381 . S
C684 H641 0.929 . S
C684 C683 1.381 . S
C684 C685 1.371 . S
C685 C684 1.371 . S
C685 C686 1.380 . S
C686 H642 0.931 . S
C686 C685 1.380 . S
C686 C687 1.387 . S
C687 H643 0.930 . S
C687 C682 1.386 . S
C687 C686 1.387 . S
C688 C657 1.519 . S
C688 C689 1.377 . S
C688 C693 1.361 . S
C689 H644 0.929 . S
C689 C688 1.377 . S
C689 C690 1.386 . S
C690 H645 0.931 . S
C690 C689 1.386 . S
C690 C691 1.363 . S
C691 C690 1.363 . S
C691 C692 1.385 . S
C692 H646 0.930 . S
C692 C691 1.385 . S
C692 C693 1.396 . S
C693 H647 0.929 . S
C693 C688 1.361 . S
C693 C692 1.396 . S
C694 O648 1.300 1_556 S
C694 O649 1.209 . S
C694 C667 1.486 . S
C695 O650 1.199 . S
C695 O651 1.297 . S
C695 C679 1.476 . S
H696 O722 0.856 . S
H697 O725 0.854 . S
H698 C733 0.930 . S
H699 C734 0.930 . S
H700 C736 0.930 . S
H701 C737 0.930 . S
H702 C739 0.931 . S
H703 C740 0.930 . S
H704 C742 0.930 . S
H705 C743 0.929 . S
H706 C745 0.930 . S
H707 C746 0.931 . S
H708 C748 0.930 . S
H709 C749 0.929 . S
H710 C751 0.931 . S
H711 C752 0.930 . S
H712 C754 0.930 . S
H713 C755 0.932 . S
H714 C757 0.930 . S
H715 C758 0.929 . S
H716 C760 0.931 . S
H717 C761 0.930 . S
H718 C763 0.929 . S
H719 C764 0.931 . S
H720 C766 0.930 . S
H721 C767 0.929 . S
O722 H696 0.856 . S
O722 C768 1.300 . S
O723 C768 1.209 . S
O724 C769 1.199 . S
O725 H697 0.854 . S
O725 C769 1.297 . S
C726 C727 1.404 . S
C726 C731 1.397 . S
C726 C732 1.492 . S
C727 C726 1.404 . S
C727 C728 1.396 . S
C727 C738 1.492 . S
C728 C727 1.396 . S
C728 C729 1.397 . S
C728 C744 1.509 . S
C729 C728 1.397 . S
C729 C730 1.412 . S
C729 C750 1.485 . S
C730 C729 1.412 . S
C730 C731 1.388 . S
C730 C756 1.490 . S
C731 C726 1.397 . S
C731 C730 1.388 . S
C731 C762 1.519 . S
C732 C726 1.492 . S
C732 C733 1.363 . S
C732 C737 1.390 . S
C733 H698 0.930 . S
C733 C732 1.363 . S
C733 C734 1.372 . S
C734 H699 0.930 . S
C734 C733 1.372 . S
C734 C735 1.383 . S
C735 C734 1.383 . S
C735 C736 1.395 . S
C736 H700 0.930 . S
C736 C735 1.395 . S
C736 C737 1.362 . S
C737 H701 0.930 . S
C737 C732 1.390 . S
C737 C736 1.362 . S
C738 C727 1.492 . S
C738 C739 1.377 . S
C738 C743 1.397 . S
C739 H702 0.931 . S
C739 C738 1.377 . S
C739 C740 1.376 . S
C740 H703 0.930 . S
C740 C739 1.376 . S
C740 C741 1.376 . S
C741 C740 1.376 . S
C741 C742 1.378 . S
C741 C768 1.486 . S
C742 H704 0.930 . S
C742 C741 1.378 . S
C742 C743 1.376 . S
C743 H705 0.929 . S
C743 C738 1.397 . S
C743 C742 1.376 . S
C744 C728 1.509 . S
C744 C745 1.391 . S
C744 C749 1.386 . S
C745 H706 0.930 . S
C745 C744 1.391 . S
C745 C746 1.375 . S
C746 H707 0.931 . S
C746 C745 1.375 . S
C746 C747 1.375 . S
C747 C746 1.375 . S
C747 C748 1.361 . S
C748 H708 0.930 . S
C748 C747 1.361 . S
C748 C749 1.399 . S
C749 H709 0.929 . S
C749 C744 1.386 . S
C749 C748 1.399 . S
C750 C729 1.485 . S
C750 C751 1.394 . S
C750 C755 1.360 . S
C751 H710 0.931 . S
C751 C750 1.394 . S
C751 C752 1.372 . S
C752 H711 0.930 . S
C752 C751 1.372 . S
C752 C753 1.397 . S
C753 C752 1.397 . S
C753 C754 1.390 . S
C753 C769 1.476 . S
C754 H712 0.930 . S
C754 C753 1.390 . S
C754 C755 1.366 . S
C755 H713 0.932 . S
C755 C750 1.360 . S
C755 C754 1.366 . S
C756 C730 1.490 . S
C756 C757 1.380 . S
C756 C761 1.386 . S
C757 H714 0.930 . S
C757 C756 1.380 . S
C757 C758 1.381 . S
C758 H715 0.929 . S
C758 C757 1.381 . S
C758 C759 1.371 . S
C759 C758 1.371 . S
C759 C760 1.380 . S
C760 H716 0.931 . S
C760 C759 1.380 . S
C760 C761 1.387 . S
C761 H717 0.930 . S
C761 C756 1.386 . S
C761 C760 1.387 . S
C762 C731 1.519 . S
C762 C763 1.377 . S
C762 C767 1.361 . S
C763 H718 0.929 . S
C763 C762 1.377 . S
C763 C764 1.386 . S
C764 H719 0.931 . S
C764 C763 1.386 . S
C764 C765 1.363 . S
C765 C764 1.363 . S
C765 C766 1.385 . S
C766 H720 0.930 . S
C766 C765 1.385 . S
C766 C767 1.396 . S
C767 H721 0.929 . S
C767 C762 1.361 . S
C767 C766 1.396 . S
C768 O722 1.300 . S
C768 O723 1.209 . S
C768 C741 1.486 . S
C769 O724 1.199 . S
C769 O725 1.297 . S
C769 C753 1.476 . S
H770 O796 0.856 . S
H771 O799 0.854 . S
H772 C807 0.930 . S
H773 C808 0.930 . S
H774 C810 0.930 . S
H775 C811 0.930 . S
H776 C813 0.931 . S
H777 C814 0.930 . S
H778 C816 0.930 . S
H779 C817 0.929 . S
H780 C819 0.930 . S
H781 C820 0.931 . S
H782 C822 0.930 . S
H783 C823 0.929 . S
H784 C825 0.931 . S
H785 C826 0.930 . S
H786 C828 0.930 . S
H787 C829 0.932 . S
H788 C831 0.930 . S
H789 C832 0.929 . S
H790 C834 0.931 . S
H791 C835 0.930 . S
H792 C837 0.929 . S
H793 C838 0.931 . S
H794 C840 0.930 . S
H795 C841 0.929 . S
O796 H770 0.856 . S
O796 C842 1.300 . S
O797 C842 1.209 . S
O798 C843 1.199 . S
O799 H771 0.854 . S
O799 C843 1.297 . S
C800 C801 1.404 . S
C800 C805 1.397 . S
C800 C806 1.492 . S
C801 C800 1.404 . S
C801 C802 1.396 . S
C801 C812 1.492 . S
C802 C801 1.396 . S
C802 C803 1.397 . S
C802 C818 1.509 . S
C803 C802 1.397 . S
C803 C804 1.412 . S
C803 C824 1.485 . S
C804 C803 1.412 . S
C804 C805 1.388 . S
C804 C830 1.490 . S
C805 C800 1.397 . S
C805 C804 1.388 . S
C805 C836 1.519 . S
C806 C800 1.492 . S
C806 C807 1.363 . S
C806 C811 1.390 . S
C807 H772 0.930 . S
C807 C806 1.363 . S
C807 C808 1.372 . S
C808 H773 0.930 . S
C808 C807 1.372 . S
C808 C809 1.383 . S
C809 C808 1.383 . S
C809 C810 1.395 . S
C810 H774 0.930 . S
C810 C809 1.395 . S
C810 C811 1.362 . S
C811 H775 0.930 . S
C811 C806 1.390 . S
C811 C810 1.362 . S
C812 C801 1.492 . S
C812 C813 1.377 . S
C812 C817 1.397 . S
C813 H776 0.931 . S
C813 C812 1.377 . S
C813 C814 1.376 . S
C814 H777 0.930 . S
C814 C813 1.376 . S
C814 C815 1.376 . S
C815 C814 1.376 . S
C815 C816 1.378 . S
C815 C842 1.486 . S
C816 H778 0.930 . S
C816 C815 1.378 . S
C816 C817 1.376 . S
C817 H779 0.929 . S
C817 C812 1.397 . S
C817 C816 1.376 . S
C818 C802 1.509 . S
C818 C819 1.391 . S
C818 C823 1.386 . S
C819 H780 0.930 . S
C819 C818 1.391 . S
C819 C820 1.375 . S
C820 H781 0.931 . S
C820 C819 1.375 . S
C820 C821 1.375 . S
C821 C820 1.375 . S
C821 C822 1.361 . S
C822 H782 0.930 . S
C822 C821 1.361 . S
C822 C823 1.399 . S
C823 H783 0.929 . S
C823 C818 1.386 . S
C823 C822 1.399 . S
C824 C803 1.485 . S
C824 C825 1.394 . S
C824 C829 1.360 . S
C825 H784 0.931 . S
C825 C824 1.394 . S
C825 C826 1.372 . S
C826 H785 0.930 . S
C826 C825 1.372 . S
C826 C827 1.397 . S
C827 C826 1.397 . S
C827 C828 1.390 . S
C827 C843 1.476 . S
C828 H786 0.930 . S
C828 C827 1.390 . S
C828 C829 1.366 . S
C829 H787 0.932 . S
C829 C824 1.360 . S
C829 C828 1.366 . S
C830 C804 1.490 . S
C830 C831 1.380 . S
C830 C835 1.386 . S
C831 H788 0.930 . S
C831 C830 1.380 . S
C831 C832 1.381 . S
C832 H789 0.929 . S
C832 C831 1.381 . S
C832 C833 1.371 . S
C833 C832 1.371 . S
C833 C834 1.380 . S
C834 H790 0.931 . S
C834 C833 1.380 . S
C834 C835 1.387 . S
C835 H791 0.930 . S
C835 C830 1.386 . S
C835 C834 1.387 . S
C836 C805 1.519 . S
C836 C837 1.377 . S
C836 C841 1.361 . S
C837 H792 0.929 . S
C837 C836 1.377 . S
C837 C838 1.386 . S
C838 H793 0.931 . S
C838 C837 1.386 . S
C838 C839 1.363 . S
C839 C838 1.363 . S
C839 C840 1.385 . S
C840 H794 0.930 . S
C840 C839 1.385 . S
C840 C841 1.396 . S
C841 H795 0.929 . S
C841 C836 1.361 . S
C841 C840 1.396 . S
C842 O796 1.300 . S
C842 O797 1.209 . S
C842 C815 1.486 . S
C843 O798 1.199 . S
C843 O799 1.297 . S
C843 C827 1.476 . S
H844 O870 0.856 . S
H845 O873 0.854 . S
H846 C881 0.930 . S
H847 C882 0.930 . S
H848 C884 0.930 . S
H849 C885 0.930 . S
H850 C887 0.931 . S
H851 C888 0.930 . S
H852 C890 0.930 . S
H853 C891 0.929 . S
H854 C893 0.930 . S
H855 C894 0.931 . S
H856 C896 0.930 . S
H857 C897 0.929 . S
H858 C899 0.931 . S
H859 C900 0.930 . S
H860 C902 0.930 . S
H861 C903 0.932 . S
H862 C905 0.930 . S
H863 C906 0.929 . S
H864 C908 0.931 . S
H865 C909 0.930 . S
H866 C911 0.929 . S
H867 C912 0.931 . S
H868 C914 0.930 . S
H869 C915 0.929 . S
O870 H844 0.856 . S
O870 C916 1.300 . S
O871 C916 1.209 . S
O872 C917 1.199 . S
O873 H845 0.854 . S
O873 C917 1.297 . S
C874 C875 1.404 . S
C874 C879 1.397 . S
C874 C880 1.492 . S
C875 C874 1.404 . S
C875 C876 1.396 . S
C875 C886 1.492 . S
C876 C875 1.396 . S
C876 C877 1.397 . S
C876 C892 1.509 . S
C877 C876 1.397 . S
C877 C878 1.412 . S
C877 C898 1.485 . S
C878 C877 1.412 . S
C878 C879 1.388 . S
C878 C904 1.490 . S
C879 C874 1.397 . S
C879 C878 1.388 . S
C879 C910 1.519 . S
C880 C874 1.492 . S
C880 C881 1.363 . S
C880 C885 1.390 . S
C881 H846 0.930 . S
C881 C880 1.363 . S
C881 C882 1.372 . S
C882 H847 0.930 . S
C882 C881 1.372 . S
C882 C883 1.383 . S
C883 C882 1.383 . S
C883 C884 1.395 . S
C884 H848 0.930 . S
C884 C883 1.395 . S
C884 C885 1.362 . S
C885 H849 0.930 . S
C885 C880 1.390 . S
C885 C884 1.362 . S
C886 C875 1.492 . S
C886 C887 1.377 . S
C886 C891 1.397 . S
C887 H850 0.931 . S
C887 C886 1.377 . S
C887 C888 1.376 . S
C888 H851 0.930 . S
C888 C887 1.376 . S
C888 C889 1.376 . S
C889 C888 1.376 . S
C889 C890 1.378 . S
C889 C916 1.486 . S
C890 H852 0.930 . S
C890 C889 1.378 . S
C890 C891 1.376 . S
C891 H853 0.929 . S
C891 C886 1.397 . S
C891 C890 1.376 . S
C892 C876 1.509 . S
C892 C893 1.391 . S
C892 C897 1.386 . S
C893 H854 0.930 . S
C893 C892 1.391 . S
C893 C894 1.375 . S
C894 H855 0.931 . S
C894 C893 1.375 . S
C894 C895 1.375 . S
C895 C894 1.375 . S
C895 C896 1.361 . S
C896 H856 0.930 . S
C896 C895 1.361 . S
C896 C897 1.399 . S
C897 H857 0.929 . S
C897 C892 1.386 . S
C897 C896 1.399 . S
C898 C877 1.485 . S
C898 C899 1.394 . S
C898 C903 1.360 . S
C899 H858 0.931 . S
C899 C898 1.394 . S
C899 C900 1.372 . S
C900 H859 0.930 . S
C900 C899 1.372 . S
C900 C901 1.397 . S
C901 C900 1.397 . S
C901 C902 1.390 . S
C901 C917 1.476 . S
C902 H860 0.930 . S
C902 C901 1.390 . S
C902 C903 1.366 . S
C903 H861 0.932 . S
C903 C898 1.360 . S
C903 C902 1.366 . S
C904 C878 1.490 . S
C904 C905 1.380 . S
C904 C909 1.386 . S
C905 H862 0.930 . S
C905 C904 1.380 . S
C905 C906 1.381 . S
C906 H863 0.929 . S
C906 C905 1.381 . S
C906 C907 1.371 . S
C907 C906 1.371 . S
C907 C908 1.380 . S
C908 H864 0.931 . S
C908 C907 1.380 . S
C908 C909 1.387 . S
C909 H865 0.930 . S
C909 C904 1.386 . S
C909 C908 1.387 . S
C910 C879 1.519 . S
C910 C911 1.377 . S
C910 C915 1.361 . S
C911 H866 0.929 . S
C911 C910 1.377 . S
C911 C912 1.386 . S
C912 H867 0.931 . S
C912 C911 1.386 . S
C912 C913 1.363 . S
C913 C912 1.363 . S
C913 C914 1.385 . S
C914 H868 0.930 . S
C914 C913 1.385 . S
C914 C915 1.396 . S
C915 H869 0.929 . S
C915 C910 1.361 . S
C915 C914 1.396 . S
C916 O870 1.300 . S
C916 O871 1.209 . S
C916 C889 1.486 . S
C917 O872 1.199 . S
C917 O873 1.297 . S
C917 C901 1.476 . S
H918 O944 0.856 . S
H919 O947 0.854 . S
H920 C955 0.930 . S
H921 C956 0.930 . S
H922 C958 0.930 . S
H923 C959 0.930 . S
H924 C961 0.931 . S
H925 C962 0.921 1_655 S
H926 C964 0.930 . S
H927 C965 0.929 . S
H928 C967 0.930 . S
H929 C968 0.929 . S
H930 C970 0.930 . S
H931 C971 0.929 . S
H932 C973 0.931 . S
H933 C974 0.930 . S
H934 C976 0.930 . S
H935 C977 0.932 . S
H936 C979 0.930 . S
H937 C980 0.929 . S
H938 C982 0.931 . S
H939 C983 0.930 . S
H940 C985 0.929 . S
H941 C986 0.931 . S
H942 C988 0.930 . S
H943 C989 0.929 . S
O944 H918 0.856 . S
O944 C990 1.300 . S
O945 C990 1.209 . S
O946 C991 1.199 1_655 S
O947 H919 0.854 . S
O947 C991 1.297 . S
C948 C949 1.404 . S
C948 C953 1.394 . S
C948 C954 1.492 . S
C949 C948 1.404 . S
C949 C950 1.396 . S
C949 C960 1.492 . S
C950 C949 1.396 . S
C950 C951 1.397 . S
C950 C966 1.509 . S
C951 C950 1.397 . S
C951 C952 1.425 . S
C951 C972 1.485 . S
C952 C951 1.425 . S
C952 C953 1.401 . S
C952 C978 1.491 1_455 S
C953 C948 1.394 . S
C953 C952 1.401 . S
C953 C984 1.494 1_455 S
C954 C948 1.492 . S
C954 C955 1.363 1_455 S
C954 C959 1.390 . S
C955 H920 0.930 . S
C955 C954 1.363 1_655 S
C955 C956 1.372 . S
C956 H921 0.930 . S
C956 C955 1.372 . S
C956 C957 1.383 . S
C957 C956 1.383 . S
C957 C958 1.395 1_655 S
C958 H922 0.930 . S
C958 C957 1.395 1_455 S
C958 C959 1.362 . S
C959 H923 0.930 . S
C959 C954 1.390 . S
C959 C958 1.362 . S
C960 C949 1.492 . S
C960 C961 1.377 1_455 S
C960 C965 1.397 . S
C961 H924 0.931 . S
C961 C960 1.377 1_655 S
C961 C962 1.377 1_655 S
C962 H925 0.921 1_455 S
C962 C961 1.377 1_455 S
C962 C963 1.383 . S
C963 C962 1.383 . S
C963 C964 1.378 . S
C963 C990 1.486 . S
C964 H926 0.930 . S
C964 C963 1.378 . S
C964 C965 1.376 . S
C965 H927 0.929 . S
C965 C960 1.397 . S
C965 C964 1.376 . S
C966 C950 1.509 . S
C966 C967 1.391 1_455 S
C966 C971 1.386 . S
C967 H928 0.930 . S
C967 C966 1.391 1_655 S
C967 C968 1.372 . S
C968 H929 0.929 . S
C968 C967 1.372 . S
C968 C969 1.380 1_655 S
C969 C968 1.380 1_455 S
C969 C970 1.361 . S
C970 H930 0.930 . S
C970 C969 1.361 . S
C970 C971 1.399 . S
C971 H931 0.929 . S
C971 C966 1.386 . S
C971 C970 1.399 . S
C972 C951 1.485 . S
C972 C973 1.394 1_455 S
C972 C977 1.360 . S
C973 H932 0.931 . S
C973 C972 1.394 1_655 S
C973 C974 1.372 . S
C974 H933 0.930 . S
C974 C973 1.372 . S
C974 C975 1.397 1_655 S
C975 C974 1.397 1_455 S
C975 C976 1.390 . S
C975 C991 1.476 . S
C976 H934 0.930 . S
C976 C975 1.390 . S
C976 C977 1.366 . S
C977 H935 0.932 . S
C977 C972 1.360 . S
C977 C976 1.366 . S
C978 C952 1.491 1_655 S
C978 C979 1.380 . S
C978 C983 1.386 1_655 S
C979 H936 0.930 . S
C979 C978 1.380 . S
C979 C980 1.381 . S
C980 H937 0.929 . S
C980 C979 1.381 . S
C980 C981 1.371 . S
C981 C980 1.371 . S
C981 C982 1.380 1_655 S
C982 H938 0.931 . S
C982 C981 1.380 1_455 S
C982 C983 1.387 . S
C983 H939 0.930 . S
C983 C978 1.386 1_455 S
C983 C982 1.387 . S
C984 C953 1.494 1_655 S
C984 C985 1.395 . S
C984 C989 1.349 1_655 S
C985 H940 0.929 . S
C985 C984 1.395 . S
C985 C986 1.386 . S
C986 H941 0.931 . S
C986 C985 1.386 . S
C986 C987 1.364 1_655 S
C987 C986 1.364 1_455 S
C987 C988 1.384 . S
C988 H942 0.930 . S
C988 C987 1.384 . S
C988 C989 1.396 . S
C989 H943 0.929 . S
C989 C984 1.349 1_455 S
C989 C988 1.396 . S
C990 O944 1.300 . S
C990 O945 1.209 . S
C990 C963 1.486 . S
C991 O946 1.199 1_455 S
C991 O947 1.297 . S
C991 C975 1.476 . S
H992 O1018 0.856 . S
H993 O1021 0.854 . S
H994 C1029 0.930 . S
H995 C1030 0.930 . S
H996 C1032 0.930 . S
H997 C1033 0.930 . S
H998 C1035 0.931 . S
H999 C1036 0.930 . S
H1000 C1038 0.930 . S
H1001 C1039 0.929 . S
H1002 C1041 0.930 . S
H1003 C1042 0.931 . S
H1004 C1044 0.930 . S
H1005 C1045 0.929 . S
H1006 C1047 0.931 . S
H1007 C1048 0.930 . S
H1008 C1050 0.930 . S
H1009 C1051 0.932 . S
H1010 C1053 0.930 . S
H1011 C1054 0.929 . S
H1012 C1056 0.931 . S
H1013 C1057 0.930 . S
H1014 C1059 0.929 . S
H1015 C1060 0.931 . S
H1016 C1062 0.930 . S
H1017 C1063 0.929 . S
O1018 H992 0.856 . S
O1018 C1064 1.300 . S
O1019 C1064 1.209 . S
O1020 C1065 1.199 . S
O1021 H993 0.854 . S
O1021 C1065 1.297 . S
C1022 C1023 1.404 . S
C1022 C1027 1.397 . S
C1022 C1028 1.492 . S
C1023 C1022 1.404 . S
C1023 C1024 1.396 . S
C1023 C1034 1.492 . S
C1024 C1023 1.396 . S
C1024 C1025 1.397 . S
C1024 C1040 1.509 . S
C1025 C1024 1.397 . S
C1025 C1026 1.412 . S
C1025 C1046 1.485 . S
C1026 C1025 1.412 . S
C1026 C1027 1.388 . S
C1026 C1052 1.490 . S
C1027 C1022 1.397 . S
C1027 C1026 1.388 . S
C1027 C1058 1.519 . S
C1028 C1022 1.492 . S
C1028 C1029 1.363 . S
C1028 C1033 1.390 . S
C1029 H994 0.930 . S
C1029 C1028 1.363 . S
C1029 C1030 1.372 . S
C1030 H995 0.930 . S
C1030 C1029 1.372 . S
C1030 C1031 1.383 . S
C1031 C1030 1.383 . S
C1031 C1032 1.395 . S
C1032 H996 0.930 . S
C1032 C1031 1.395 . S
C1032 C1033 1.362 . S
C1033 H997 0.930 . S
C1033 C1028 1.390 . S
C1033 C1032 1.362 . S
C1034 C1023 1.492 . S
C1034 C1035 1.377 . S
C1034 C1039 1.397 . S
C1035 H998 0.931 . S
C1035 C1034 1.377 . S
C1035 C1036 1.376 . S
C1036 H999 0.930 . S
C1036 C1035 1.376 . S
C1036 C1037 1.376 . S
C1037 C1036 1.376 . S
C1037 C1038 1.378 . S
C1037 C1064 1.486 . S
C1038 H1000 0.930 . S
C1038 C1037 1.378 . S
C1038 C1039 1.376 . S
C1039 H1001 0.929 . S
C1039 C1034 1.397 . S
C1039 C1038 1.376 . S
C1040 C1024 1.509 . S
C1040 C1041 1.391 . S
C1040 C1045 1.386 . S
C1041 H1002 0.930 . S
C1041 C1040 1.391 . S
C1041 C1042 1.375 . S
C1042 H1003 0.931 . S
C1042 C1041 1.375 . S
C1042 C1043 1.375 . S
C1043 C1042 1.375 . S
C1043 C1044 1.361 . S
C1044 H1004 0.930 . S
C1044 C1043 1.361 . S
C1044 C1045 1.399 . S
C1045 H1005 0.929 . S
C1045 C1040 1.386 . S
C1045 C1044 1.399 . S
C1046 C1025 1.485 . S
C1046 C1047 1.394 . S
C1046 C1051 1.360 . S
C1047 H1006 0.931 . S
C1047 C1046 1.394 . S
C1047 C1048 1.372 . S
C1048 H1007 0.930 . S
C1048 C1047 1.372 . S
C1048 C1049 1.397 . S
C1049 C1048 1.397 . S
C1049 C1050 1.390 . S
C1049 C1065 1.476 . S
C1050 H1008 0.930 . S
C1050 C1049 1.390 . S
C1050 C1051 1.366 . S
C1051 H1009 0.932 . S
C1051 C1046 1.360 . S
C1051 C1050 1.366 . S
C1052 C1026 1.490 . S
C1052 C1053 1.380 . S
C1052 C1057 1.386 . S
C1053 H1010 0.930 . S
C1053 C1052 1.380 . S
C1053 C1054 1.381 . S
C1054 H1011 0.929 . S
C1054 C1053 1.381 . S
C1054 C1055 1.371 . S
C1055 C1054 1.371 . S
C1055 C1056 1.380 . S
C1056 H1012 0.931 . S
C1056 C1055 1.380 . S
C1056 C1057 1.387 . S
C1057 H1013 0.930 . S
C1057 C1052 1.386 . S
C1057 C1056 1.387 . S
C1058 C1027 1.519 . S
C1058 C1059 1.377 . S
C1058 C1063 1.361 . S
C1059 H1014 0.929 . S
C1059 C1058 1.377 . S
C1059 C1060 1.386 . S
C1060 H1015 0.931 . S
C1060 C1059 1.386 . S
C1060 C1061 1.363 . S
C1061 C1060 1.363 . S
C1061 C1062 1.385 . S
C1062 H1016 0.930 . S
C1062 C1061 1.385 . S
C1062 C1063 1.396 . S
C1063 H1017 0.929 . S
C1063 C1058 1.361 . S
C1063 C1062 1.396 . S
C1064 O1018 1.300 . S
C1064 O1019 1.209 . S
C1064 C1037 1.486 . S
C1065 O1020 1.199 . S
C1065 O1021 1.297 . S
C1065 C1049 1.476 . S
H1066 O1092 0.856 . S
H1067 O1095 0.854 . S
H1068 C1103 0.930 . S
H1069 C1104 0.930 . S
H1070 C1106 0.930 . S
H1071 C1107 0.930 . S
H1072 C1109 0.931 . S
H1073 C1110 0.930 . S
H1074 C1112 0.930 . S
H1075 C1113 0.929 . S
H1076 C1115 0.930 . S
H1077 C1116 0.931 . S
H1078 C1118 0.930 . S
H1079 C1119 0.929 . S
H1080 C1121 0.931 . S
H1081 C1122 0.930 . S
H1082 C1124 0.930 . S
H1083 C1125 0.932 . S
H1084 C1127 0.930 . S
H1085 C1128 0.929 . S
H1086 C1130 0.931 . S
H1087 C1131 0.930 . S
H1088 C1133 0.929 . S
H1089 C1134 0.931 . S
H1090 C1136 0.930 . S
H1091 C1137 0.929 . S
O1092 H1066 0.856 . S
O1092 C1138 1.300 . S
O1093 C1138 1.209 . S
O1094 C1139 1.199 1_545 S
O1095 H1067 0.854 . S
O1095 C1139 1.297 . S
C1096 C1097 1.404 . S
C1096 C1101 1.412 . S
C1096 C1102 1.492 . S
C1097 C1096 1.404 . S
C1097 C1098 1.396 . S
C1097 C1108 1.492 . S
C1098 C1097 1.396 . S
C1098 C1099 1.397 . S
C1098 C1114 1.509 . S
C1099 C1098 1.397 . S
C1099 C1100 1.408 . S
C1099 C1120 1.485 . S
C1100 C1099 1.408 . S
C1100 C1101 1.375 . S
C1100 C1126 1.483 1_565 S
C1101 C1096 1.412 . S
C1101 C1100 1.375 . S
C1101 C1132 1.535 . S
C1102 C1096 1.492 . S
C1102 C1103 1.363 1_565 S
C1102 C1107 1.390 . S
C1103 H1068 0.930 . S
C1103 C1102 1.363 1_545 S
C1103 C1104 1.372 . S
C1104 H1069 0.930 . S
C1104 C1103 1.372 . S
C1104 C1105 1.383 . S
C1105 C1104 1.383 . S
C1105 C1106 1.395 1_545 S
C1106 H1070 0.930 . S
C1106 C1105 1.395 1_565 S
C1106 C1107 1.362 . S
C1107 H1071 0.930 . S
C1107 C1102 1.390 . S
C1107 C1106 1.362 . S
C1108 C1097 1.492 . S
C1108 C1109 1.377 1_565 S
C1108 C1113 1.397 . S
C1109 H1072 0.931 . S
C1109 C1108 1.377 1_545 S
C1109 C1110 1.376 . S
C1110 H1073 0.930 . S
C1110 C1109 1.376 . S
C1110 C1111 1.376 1_545 S
C1111 C1110 1.376 1_565 S
C1111 C1112 1.378 . S
C1111 C1138 1.486 . S
C1112 H1074 0.930 . S
C1112 C1111 1.378 . S
C1112 C1113 1.376 . S
C1113 H1075 0.929 . S
C1113 C1108 1.397 . S
C1113 C1112 1.376 . S
C1114 C1098 1.509 . S
C1114 C1115 1.391 1_565 S
C1114 C1119 1.386 . S
C1115 H1076 0.930 . S
C1115 C1114 1.391 1_545 S
C1115 C1116 1.375 . S
C1116 H1077 0.931 . S
C1116 C1115 1.375 . S
C1116 C1117 1.375 1_545 S
C1117 C1116 1.375 1_565 S
C1117 C1118 1.361 . S
C1118 H1078 0.930 . S
C1118 C1117 1.361 . S
C1118 C1119 1.399 . S
C1119 H1079 0.929 . S
C1119 C1114 1.386 . S
C1119 C1118 1.399 . S
C1120 C1099 1.485 . S
C1120 C1121 1.394 1_565 S
C1120 C1125 1.360 . S
C1121 H1080 0.931 . S
C1121 C1120 1.394 1_545 S
C1121 C1122 1.372 . S
C1122 H1081 0.930 . S
C1122 C1121 1.372 . S
C1122 C1123 1.397 1_545 S
C1123 C1122 1.397 1_565 S
C1123 C1124 1.390 . S
C1123 C1139 1.476 . S
C1124 H1082 0.930 . S
C1124 C1123 1.390 . S
C1124 C1125 1.366 . S
C1125 H1083 0.932 . S
C1125 C1120 1.360 . S
C1125 C1124 1.366 . S
C1126 C1100 1.483 1_545 S
C1126 C1127 1.380 . S
C1126 C1131 1.386 1_545 S
C1127 H1084 0.930 . S
C1127 C1126 1.380 . S
C1127 C1128 1.381 . S
C1128 H1085 0.929 . S
C1128 C1127 1.381 . S
C1128 C1129 1.371 . S
C1129 C1128 1.371 . S
C1129 C1130 1.380 1_545 S
C1130 H1086 0.931 . S
C1130 C1129 1.380 1_565 S
C1130 C1131 1.387 . S
C1131 H1087 0.930 . S
C1131 C1126 1.386 1_565 S
C1131 C1130 1.387 . S
C1132 C1101 1.535 . S
C1132 C1133 1.379 1_565 S
C1132 C1137 1.357 . S
C1133 H1088 0.929 . S
C1133 C1132 1.379 1_545 S
C1133 C1134 1.386 . S
C1134 H1089 0.931 . S
C1134 C1133 1.386 . S
C1134 C1135 1.363 1_545 S
C1135 C1134 1.363 1_565 S
C1135 C1136 1.385 . S
C1136 H1090 0.930 . S
C1136 C1135 1.385 . S
C1136 C1137 1.396 . S
C1137 H1091 0.929 . S
C1137 C1132 1.357 . S
C1137 C1136 1.396 . S
C1138 O1092 1.300 . S
C1138 O1093 1.209 . S
C1138 C1111 1.486 . S
C1139 O1094 1.199 1_565 S
C1139 O1095 1.297 . S
C1139 C1123 1.476 . S
H1140 O1166 0.856 . S
H1141 O1169 0.854 . S
H1142 C1177 0.930 . S
H1143 C1178 0.930 . S
H1144 C1180 0.930 . S
H1145 C1181 0.930 . S
H1146 C1183 0.931 . S
H1147 C1184 0.930 . S
H1148 C1186 0.930 . S
H1149 C1187 0.929 . S
H1150 C1189 0.930 . S
H1151 C1190 0.931 . S
H1152 C1192 0.930 . S
H1153 C1193 0.929 . S
H1154 C1195 0.931 . S
H1155 C1196 0.930 . S
H1156 C1198 0.930 . S
H1157 C1199 0.932 . S
H1158 C1201 0.930 . S
H1159 C1202 0.929 . S
H1160 C1204 0.931 . S
H1161 C1205 0.930 . S
H1162 C1207 0.929 . S
H1163 C1208 0.931 . S
H1164 C1210 0.930 . S
H1165 C1211 0.929 . S
O1166 H1140 0.856 . S
O1166 C1212 1.300 . S
O1167 C1212 1.209 1_565 S
O1168 C1213 1.199 1_545 S
O1169 H1141 0.854 . S
O1169 C1213 1.297 . S
C1170 C1171 1.404 . S
C1170 C1175 1.397 1_545 S
C1170 C1176 1.492 . S
C1171 C1170 1.404 . S
C1171 C1172 1.425 . S
C1171 C1182 1.492 . S
C1172 C1171 1.425 . S
C1172 C1173 1.381 1_545 S
C1172 C1188 1.503 . S
C1173 C1172 1.381 1_565 S
C1173 C1174 1.415 . S
C1173 C1194 1.498 . S
C1174 C1173 1.415 . S
C1174 C1175 1.371 . S
C1174 C1200 1.490 . S
C1175 C1170 1.397 1_565 S
C1175 C1174 1.371 . S
C1175 C1206 1.519 . S
C1176 C1170 1.492 . S
C1176 C1177 1.363 . S
C1176 C1181 1.390 1_545 S
C1177 H1142 0.930 . S
C1177 C1176 1.363 . S
C1177 C1178 1.372 . S
C1178 H1143 0.930 . S
C1178 C1177 1.372 . S
C1178 C1179 1.383 . S
C1179 C1178 1.383 . S
C1179 C1180 1.395 1_545 S
C1180 H1144 0.930 . S
C1180 C1179 1.395 1_565 S
C1180 C1181 1.362 . S
C1181 H1145 0.930 . S
C1181 C1176 1.390 1_565 S
C1181 C1180 1.362 . S
C1182 C1171 1.492 . S
C1182 C1183 1.377 . S
C1182 C1187 1.397 1_545 S
C1183 H1146 0.931 . S
C1183 C1182 1.377 . S
C1183 C1184 1.376 . S
C1184 H1147 0.930 . S
C1184 C1183 1.376 . S
C1184 C1185 1.376 . S
C1185 C1184 1.376 . S
C1185 C1186 1.378 1_545 S
C1185 C1212 1.486 . S
C1186 H1148 0.930 . S
C1186 C1185 1.378 1_565 S
C1186 C1187 1.376 . S
C1187 H1149 0.929 . S
C1187 C1182 1.397 1_565 S
C1187 C1186 1.376 . S
C1188 C1172 1.503 . S
C1188 C1189 1.406 . S
C1188 C1193 1.361 1_545 S
C1189 H1150 0.930 . S
C1189 C1188 1.406 . S
C1189 C1190 1.375 . S
C1190 H1151 0.931 . S
C1190 C1189 1.375 . S
C1190 C1191 1.370 . S
C1191 C1190 1.370 . S
C1191 C1192 1.364 1_545 S
C1192 H1152 0.930 . S
C1192 C1191 1.364 1_565 S
C1192 C1193 1.399 . S
C1193 H1153 0.929 . S
C1193 C1188 1.361 1_565 S
C1193 C1192 1.399 . S
C1194 C1173 1.498 . S
C1194 C1195 1.394 1_565 S
C1194 C1199 1.360 . S
C1195 H1154 0.931 . S
C1195 C1194 1.394 1_545 S
C1195 C1196 1.372 . S
C1196 H1155 0.930 . S
C1196 C1195 1.372 . S
C1196 C1197 1.397 1_545 S
C1197 C1196 1.397 1_565 S
C1197 C1198 1.390 . S
C1197 C1213 1.476 . S
C1198 H1156 0.930 . S
C1198 C1197 1.390 . S
C1198 C1199 1.366 . S
C1199 H1157 0.932 . S
C1199 C1194 1.360 . S
C1199 C1198 1.366 . S
C1200 C1174 1.490 . S
C1200 C1201 1.355 1_565 S
C1200 C1205 1.417 . S
C1201 H1158 0.930 . S
C1201 C1200 1.355 1_545 S
C1201 C1202 1.381 . S
C1202 H1159 0.929 . S
C1202 C1201 1.381 . S
C1202 C1203 1.423 . S
C1203 C1202 1.423 . S
C1203 C1204 1.337 1_545 S
C1204 H1160 0.931 . S
C1204 C1203 1.337 1_565 S
C1204 C1205 1.387 . S
C1205 H1161 0.930 . S
C1205 C1200 1.417 . S
C1205 C1204 1.387 . S
C1206 C1175 1.519 . S
C1206 C1207 1.377 1_565 S
C1206 C1211 1.361 . S
C1207 H1162 0.929 . S
C1207 C1206 1.377 1_545 S
C1207 C1208 1.386 . S
C1208 H1163 0.931 . S
C1208 C1207 1.386 . S
C1208 C1209 1.363 1_545 S
C1209 C1208 1.363 1_565 S
C1209 C1210 1.385 . S
C1210 H1164 0.930 . S
C1210 C1209 1.385 . S
C1210 C1211 1.396 . S
C1211 H1165 0.929 . S
C1211 C1206 1.361 . S
C1211 C1210 1.396 . S
C1212 O1166 1.300 . S
C1212 O1167 1.209 1_545 S
C1212 C1185 1.486 . S
C1213 O1168 1.199 1_565 S
C1213 O1169 1.297 . S
C1213 C1197 1.476 . S
H1214 O1240 0.856 . S
H1215 O1243 0.854 . S
H1216 C1251 0.930 . S
H1217 C1252 0.930 . S
H1218 C1254 0.930 . S
H1219 C1255 0.930 . S
H1220 C1257 0.931 . S
H1221 C1258 0.930 . S
H1222 C1260 0.930 . S
H1223 C1261 0.929 . S
H1224 C1263 0.930 . S
H1225 C1264 0.931 . S
H1226 C1266 0.930 . S
H1227 C1267 0.929 . S
H1228 C1269 0.931 . S
H1229 C1270 0.930 . S
H1230 C1272 0.930 . S
H1231 C1273 0.932 . S
H1232 C1275 0.930 . S
H1233 C1276 0.929 . S
H1234 C1278 0.931 . S
H1235 C1279 0.930 . S
H1236 C1281 0.929 . S
H1237 C1282 0.931 . S
H1238 C1284 0.930 . S
H1239 C1285 0.929 . S
O1240 H1214 0.856 . S
O1240 C1286 1.300 . S
O1241 C1286 1.209 1_455 S
O1242 C1287 1.199 1_655 S
O1243 H1215 0.854 . S
O1243 C1287 1.297 . S
C1244 C1245 1.404 . S
C1244 C1249 1.396 1_655 S
C1244 C1250 1.492 . S
C1245 C1244 1.404 . S
C1245 C1246 1.396 . S
C1245 C1256 1.492 . S
C1246 C1245 1.396 . S
C1246 C1247 1.397 1_655 S
C1246 C1262 1.509 . S
C1247 C1246 1.397 1_455 S
C1247 C1248 1.399 . S
C1247 C1268 1.485 . S
C1248 C1247 1.399 . S
C1248 C1249 1.410 . S
C1248 C1274 1.485 . S
C1249 C1244 1.396 1_455 S
C1249 C1248 1.410 . S
C1249 C1280 1.516 . S
C1250 C1244 1.492 . S
C1250 C1251 1.363 . S
C1250 C1255 1.390 1_655 S
C1251 H1216 0.930 . S
C1251 C1250 1.363 . S
C1251 C1252 1.372 . S
C1252 H1217 0.930 . S
C1252 C1251 1.372 . S
C1252 C1253 1.383 . S
C1253 C1252 1.383 . S
C1253 C1254 1.395 1_655 S
C1254 H1218 0.930 . S
C1254 C1253 1.395 1_455 S
C1254 C1255 1.362 . S
C1255 H1219 0.930 . S
C1255 C1250 1.390 1_455 S
C1255 C1254 1.362 . S
C1256 C1245 1.492 . S
C1256 C1257 1.377 . S
C1256 C1261 1.397 1_655 S
C1257 H1220 0.931 . S
C1257 C1256 1.377 . S
C1257 C1258 1.376 . S
C1258 H1221 0.930 . S
C1258 C1257 1.376 . S
C1258 C1259 1.376 . S
C1259 C1258 1.376 . S
C1259 C1260 1.378 1_655 S
C1259 C1286 1.486 . S
C1260 H1222 0.930 . S
C1260 C1259 1.378 1_455 S
C1260 C1261 1.376 . S
C1261 H1223 0.929 . S
C1261 C1256 1.397 1_455 S
C1261 C1260 1.376 . S
C1262 C1246 1.509 . S
C1262 C1263 1.391 . S
C1262 C1267 1.386 1_655 S
C1263 H1224 0.930 . S
C1263 C1262 1.391 . S
C1263 C1264 1.375 . S
C1264 H1225 0.931 . S
C1264 C1263 1.375 . S
C1264 C1265 1.375 . S
C1265 C1264 1.375 . S
C1265 C1266 1.361 1_655 S
C1266 H1226 0.930 . S
C1266 C1265 1.361 1_455 S
C1266 C1267 1.399 . S
C1267 H1227 0.929 . S
C1267 C1262 1.386 1_455 S
C1267 C1266 1.399 . S
C1268 C1247 1.485 . S
C1268 C1269 1.394 1_455 S
C1268 C1273 1.360 . S
C1269 H1228 0.931 . S
C1269 C1268 1.394 1_655 S
C1269 C1270 1.372 . S
C1270 H1229 0.930 . S
C1270 C1269 1.372 . S
C1270 C1271 1.397 1_655 S
C1271 C1270 1.397 1_455 S
C1271 C1272 1.390 . S
C1271 C1287 1.476 . S
C1272 H1230 0.930 . S
C1272 C1271 1.390 . S
C1272 C1273 1.366 . S
C1273 H1231 0.932 . S
C1273 C1268 1.360 . S
C1273 C1272 1.366 . S
C1274 C1248 1.485 . S
C1274 C1275 1.380 1_455 S
C1274 C1279 1.386 . S
C1275 H1232 0.930 . S
C1275 C1274 1.380 1_655 S
C1275 C1276 1.381 . S
C1276 H1233 0.929 . S
C1276 C1275 1.381 . S
C1276 C1277 1.350 1_655 S
C1277 C1276 1.350 1_455 S
C1277 C1278 1.413 . S
C1278 H1234 0.931 . S
C1278 C1277 1.413 . S
C1278 C1279 1.387 . S
C1279 H1235 0.930 . S
C1279 C1274 1.386 . S
C1279 C1278 1.387 . S
C1280 C1249 1.516 . S
C1280 C1281 1.377 1_455 S
C1280 C1285 1.361 . S
C1281 H1236 0.929 . S
C1281 C1280 1.377 1_655 S
C1281 C1282 1.386 . S
C1282 H1237 0.931 . S
C1282 C1281 1.386 . S
C1282 C1283 1.363 1_655 S
C1283 C1282 1.363 1_455 S
C1283 C1284 1.385 . S
C1284 H1238 0.930 . S
C1284 C1283 1.385 . S
C1284 C1285 1.396 . S
C1285 H1239 0.929 . S
C1285 C1280 1.361 . S
C1285 C1284 1.396 . S
C1286 O1240 1.300 . S
C1286 O1241 1.209 1_655 S
C1286 C1259 1.486 . S
C1287 O1242 1.199 1_455 S
C1287 O1243 1.297 . S
C1287 C1271 1.476 . S
H1288 O1314 0.856 . S
H1289 O1317 0.854 . S
H1290 C1325 0.930 . S
H1291 C1326 0.930 . S
H1292 C1328 0.930 . S
H1293 C1329 0.930 . S
H1294 C1331 0.931 . S
H1295 C1332 0.930 . S
H1296 C1334 0.930 . S
H1297 C1335 0.929 . S
H1298 C1337 0.930 . S
H1299 C1338 0.931 . S
H1300 C1340 0.930 . S
H1301 C1341 0.929 . S
H1302 C1343 0.931 . S
H1303 C1344 0.930 . S
H1304 C1346 0.930 . S
H1305 C1347 0.932 . S
H1306 C1349 0.930 . S
H1307 C1350 0.929 . S
H1308 C1352 0.931 . S
H1309 C1353 0.930 . S
H1310 C1355 0.929 . S
H1311 C1356 0.931 . S
H1312 C1358 0.930 . S
H1313 C1359 0.929 . S
O1314 H1288 0.856 . S
O1314 C1360 1.300 . S
O1315 C1360 1.209 . S
O1316 C1361 1.199 . S
O1317 H1289 0.854 . S
O1317 C1361 1.297 . S
C1318 C1319 1.404 . S
C1318 C1323 1.397 . S
C1318 C1324 1.492 . S
C1319 C1318 1.404 . S
C1319 C1320 1.396 . S
C1319 C1330 1.492 . S
C1320 C1319 1.396 . S
C1320 C1321 1.397 . S
C1320 C1336 1.509 . S
C1321 C1320 1.397 . S
C1321 C1322 1.412 . S
C1321 C1342 1.485 . S
C1322 C1321 1.412 . S
C1322 C1323 1.388 . S
C1322 C1348 1.490 . S
C1323 C1318 1.397 . S
C1323 C1322 1.388 . S
C1323 C1354 1.519 . S
C1324 C1318 1.492 . S
C1324 C1325 1.363 . S
C1324 C1329 1.390 . S
C1325 H1290 0.930 . S
C1325 C1324 1.363 . S
C1325 C1326 1.372 . S
C1326 H1291 0.930 . S
C1326 C1325 1.372 . S
C1326 C1327 1.383 . S
C1327 C1326 1.383 . S
C1327 C1328 1.395 . S
C1328 H1292 0.930 . S
C1328 C1327 1.395 . S
C1328 C1329 1.362 . S
C1329 H1293 0.930 . S
C1329 C1324 1.390 . S
C1329 C1328 1.362 . S
C1330 C1319 1.492 . S
C1330 C1331 1.377 . S
C1330 C1335 1.397 . S
C1331 H1294 0.931 . S
C1331 C1330 1.377 . S
C1331 C1332 1.376 . S
C1332 H1295 0.930 . S
C1332 C1331 1.376 . S
C1332 C1333 1.376 . S
C1333 C1332 1.376 . S
C1333 C1334 1.378 . S
C1333 C1360 1.486 . S
C1334 H1296 0.930 . S
C1334 C1333 1.378 . S
C1334 C1335 1.376 . S
C1335 H1297 0.929 . S
C1335 C1330 1.397 . S
C1335 C1334 1.376 . S
C1336 C1320 1.509 . S
C1336 C1337 1.391 . S
C1336 C1341 1.386 . S
C1337 H1298 0.930 . S
C1337 C1336 1.391 . S
C1337 C1338 1.375 . S
C1338 H1299 0.931 . S
C1338 C1337 1.375 . S
C1338 C1339 1.375 . S
C1339 C1338 1.375 . S
C1339 C1340 1.361 . S
C1340 H1300 0.930 . S
C1340 C1339 1.361 . S
C1340 C1341 1.399 . S
C1341 H1301 0.929 . S
C1341 C1336 1.386 . S
C1341 C1340 1.399 . S
C1342 C1321 1.485 . S
C1342 C1343 1.394 . S
C1342 C1347 1.360 . S
C1343 H1302 0.931 . S
C1343 C1342 1.394 . S
C1343 C1344 1.372 . S
C1344 H1303 0.930 . S
C1344 C1343 1.372 . S
C1344 C1345 1.397 . S
C1345 C1344 1.397 . S
C1345 C1346 1.390 . S
C1345 C1361 1.476 . S
C1346 H1304 0.930 . S
C1346 C1345 1.390 . S
C1346 C1347 1.366 . S
C1347 H1305 0.932 . S
C1347 C1342 1.360 . S
C1347 C1346 1.366 . S
C1348 C1322 1.490 . S
C1348 C1349 1.380 . S
C1348 C1353 1.386 . S
C1349 H1306 0.930 . S
C1349 C1348 1.380 . S
C1349 C1350 1.381 . S
C1350 H1307 0.929 . S
C1350 C1349 1.381 . S
C1350 C1351 1.371 . S
C1351 C1350 1.371 . S
C1351 C1352 1.380 . S
C1352 H1308 0.931 . S
C1352 C1351 1.380 . S
C1352 C1353 1.387 . S
C1353 H1309 0.930 . S
C1353 C1348 1.386 . S
C1353 C1352 1.387 . S
C1354 C1323 1.519 . S
C1354 C1355 1.377 . S
C1354 C1359 1.361 . S
C1355 H1310 0.929 . S
C1355 C1354 1.377 . S
C1355 C1356 1.386 . S
C1356 H1311 0.931 . S
C1356 C1355 1.386 . S
C1356 C1357 1.363 . S
C1357 C1356 1.363 . S
C1357 C1358 1.385 . S
C1358 H1312 0.930 . S
C1358 C1357 1.385 . S
C1358 C1359 1.396 . S
C1359 H1313 0.929 . S
C1359 C1354 1.361 . S
C1359 C1358 1.396 . S
C1360 O1314 1.300 . S
C1360 O1315 1.209 . S
C1360 C1333 1.486 . S
C1361 O1316 1.199 . S
C1361 O1317 1.297 . S
C1361 C1345 1.476 . S
H1362 O1388 0.856 . S
H1363 O1391 0.854 . S
H1364 C1399 0.930 . S
H1365 C1400 0.930 . S
H1366 C1402 0.930 . S
H1367 C1403 0.930 . S
H1368 C1405 0.931 . S
H1369 C1406 0.930 . S
H1370 C1408 0.930 . S
H1371 C1409 0.929 . S
H1372 C1411 0.930 . S
H1373 C1412 0.931 . S
H1374 C1414 0.930 . S
H1375 C1415 0.929 . S
H1376 C1417 0.931 . S
H1377 C1418 0.930 . S
H1378 C1420 0.930 . S
H1379 C1421 0.932 . S
H1380 C1423 0.930 . S
H1381 C1424 0.929 . S
H1382 C1426 0.931 . S
H1383 C1427 0.930 . S
H1384 C1429 0.929 . S
H1385 C1430 0.931 . S
H1386 C1432 0.930 . S
H1387 C1433 0.929 . S
O1388 H1362 0.856 . S
O1388 C1434 1.300 . S
O1389 C1434 1.209 . S
O1390 C1435 1.199 . S
O1391 H1363 0.854 . S
O1391 C1435 1.297 . S
C1392 C1393 1.404 . S
C1392 C1397 1.397 . S
C1392 C1398 1.492 . S
C1393 C1392 1.404 . S
C1393 C1394 1.396 . S
C1393 C1404 1.492 . S
C1394 C1393 1.396 . S
C1394 C1395 1.397 . S
C1394 C1410 1.509 . S
C1395 C1394 1.397 . S
C1395 C1396 1.412 . S
C1395 C1416 1.485 . S
C1396 C1395 1.412 . S
C1396 C1397 1.388 . S
C1396 C1422 1.490 . S
C1397 C1392 1.397 . S
C1397 C1396 1.388 . S
C1397 C1428 1.519 . S
C1398 C1392 1.492 . S
C1398 C1399 1.363 . S
C1398 C1403 1.390 . S
C1399 H1364 0.930 . S
C1399 C1398 1.363 . S
C1399 C1400 1.372 . S
C1400 H1365 0.930 . S
C1400 C1399 1.372 . S
C1400 C1401 1.383 . S
C1401 C1400 1.383 . S
C1401 C1402 1.395 . S
C1402 H1366 0.930 . S
C1402 C1401 1.395 . S
C1402 C1403 1.362 . S
C1403 H1367 0.930 . S
C1403 C1398 1.390 . S
C1403 C1402 1.362 . S
C1404 C1393 1.492 . S
C1404 C1405 1.377 . S
C1404 C1409 1.397 . S
C1405 H1368 0.931 . S
C1405 C1404 1.377 . S
C1405 C1406 1.376 . S
C1406 H1369 0.930 . S
C1406 C1405 1.376 . S
C1406 C1407 1.376 . S
C1407 C1406 1.376 . S
C1407 C1408 1.378 . S
C1407 C1434 1.486 . S
C1408 H1370 0.930 . S
C1408 C1407 1.378 . S
C1408 C1409 1.376 . S
C1409 H1371 0.929 . S
C1409 C1404 1.397 . S
C1409 C1408 1.376 . S
C1410 C1394 1.509 . S
C1410 C1411 1.391 . S
C1410 C1415 1.386 . S
C1411 H1372 0.930 . S
C1411 C1410 1.391 . S
C1411 C1412 1.375 . S
C1412 H1373 0.931 . S
C1412 C1411 1.375 . S
C1412 C1413 1.375 . S
C1413 C1412 1.375 . S
C1413 C1414 1.361 . S
C1414 H1374 0.930 . S
C1414 C1413 1.361 . S
C1414 C1415 1.399 . S
C1415 H1375 0.929 . S
C1415 C1410 1.386 . S
C1415 C1414 1.399 . S
C1416 C1395 1.485 . S
C1416 C1417 1.394 . S
C1416 C1421 1.360 . S
C1417 H1376 0.931 . S
C1417 C1416 1.394 . S
C1417 C1418 1.372 . S
C1418 H1377 0.930 . S
C1418 C1417 1.372 . S
C1418 C1419 1.397 . S
C1419 C1418 1.397 . S
C1419 C1420 1.390 . S
C1419 C1435 1.476 . S
C1420 H1378 0.930 . S
C1420 C1419 1.390 . S
C1420 C1421 1.366 . S
C1421 H1379 0.932 . S
C1421 C1416 1.360 . S
C1421 C1420 1.366 . S
C1422 C1396 1.490 . S
C1422 C1423 1.380 . S
C1422 C1427 1.386 . S
C1423 H1380 0.930 . S
C1423 C1422 1.380 . S
C1423 C1424 1.381 . S
C1424 H1381 0.929 . S
C1424 C1423 1.381 . S
C1424 C1425 1.371 . S
C1425 C1424 1.371 . S
C1425 C1426 1.380 . S
C1426 H1382 0.931 . S
C1426 C1425 1.380 . S
C1426 C1427 1.387 . S
C1427 H1383 0.930 . S
C1427 C1422 1.386 . S
C1427 C1426 1.387 . S
C1428 C1397 1.519 . S
C1428 C1429 1.377 . S
C1428 C1433 1.361 . S
C1429 H1384 0.929 . S
C1429 C1428 1.377 . S
C1429 C1430 1.386 . S
C1430 H1385 0.931 . S
C1430 C1429 1.386 . S
C1430 C1431 1.363 . S
C1431 C1430 1.363 . S
C1431 C1432 1.385 . S
C1432 H1386 0.930 . S
C1432 C1431 1.385 . S
C1432 C1433 1.396 . S
C1433 H1387 0.929 . S
C1433 C1428 1.361 . S
C1433 C1432 1.396 . S
C1434 O1388 1.300 . S
C1434 O1389 1.209 . S
C1434 C1407 1.486 . S
C1435 O1390 1.199 . S
C1435 O1391 1.297 . S
C1435 C1419 1.476 . S
H1436 O1462 0.856 . S
H1437 O1465 0.854 . S
H1438 C1473 0.930 . S
H1439 C1474 0.930 . S
H1440 C1476 0.930 . S
H1441 C1477 0.930 . S
H1442 C1479 0.931 . S
H1443 C1480 0.930 . S
H1444 C1482 0.930 . S
H1445 C1483 0.929 . S
H1446 C1485 0.930 . S
H1447 C1486 0.931 . S
H1448 C1488 0.930 . S
H1449 C1489 0.929 . S
H1450 C1491 0.931 . S
H1451 C1492 0.930 . S
H1452 C1494 0.930 . S
H1453 C1495 0.932 . S
H1454 C1497 0.930 . S
H1455 C1498 0.929 . S
H1456 C1500 0.931 . S
H1457 C1501 0.930 . S
H1458 C1503 0.929 . S
H1459 C1504 0.931 . S
H1460 C1506 0.930 . S
H1461 C1507 0.929 . S
O1462 H1436 0.856 . S
O1462 C1508 1.300 . S
O1463 C1508 1.209 . S
O1464 C1509 1.199 . S
O1465 H1437 0.854 . S
O1465 C1509 1.297 . S
C1466 C1467 1.404 . S
C1466 C1471 1.397 . S
C1466 C1472 1.492 . S
C1467 C1466 1.404 . S
C1467 C1468 1.396 . S
C1467 C1478 1.492 . S
C1468 C1467 1.396 . S
C1468 C1469 1.397 . S
C1468 C1484 1.509 . S
C1469 C1468 1.397 . S
C1469 C1470 1.412 . S
C1469 C1490 1.485 . S
C1470 C1469 1.412 . S
C1470 C1471 1.388 . S
C1470 C1496 1.490 . S
C1471 C1466 1.397 . S
C1471 C1470 1.388 . S
C1471 C1502 1.519 . S
C1472 C1466 1.492 . S
C1472 C1473 1.363 . S
C1472 C1477 1.390 . S
C1473 H1438 0.930 . S
C1473 C1472 1.363 . S
C1473 C1474 1.372 . S
C1474 H1439 0.930 . S
C1474 C1473 1.372 . S
C1474 C1475 1.383 . S
C1475 C1474 1.383 . S
C1475 C1476 1.395 . S
C1476 H1440 0.930 . S
C1476 C1475 1.395 . S
C1476 C1477 1.362 . S
C1477 H1441 0.930 . S
C1477 C1472 1.390 . S
C1477 C1476 1.362 . S
C1478 C1467 1.492 . S
C1478 C1479 1.377 . S
C1478 C1483 1.397 . S
C1479 H1442 0.931 . S
C1479 C1478 1.377 . S
C1479 C1480 1.376 . S
C1480 H1443 0.930 . S
C1480 C1479 1.376 . S
C1480 C1481 1.376 . S
C1481 C1480 1.376 . S
C1481 C1482 1.378 . S
C1481 C1508 1.486 . S
C1482 H1444 0.930 . S
C1482 C1481 1.378 . S
C1482 C1483 1.376 . S
C1483 H1445 0.929 . S
C1483 C1478 1.397 . S
C1483 C1482 1.376 . S
C1484 C1468 1.509 . S
C1484 C1485 1.391 . S
C1484 C1489 1.386 . S
C1485 H1446 0.930 . S
C1485 C1484 1.391 . S
C1485 C1486 1.375 . S
C1486 H1447 0.931 . S
C1486 C1485 1.375 . S
C1486 C1487 1.375 . S
C1487 C1486 1.375 . S
C1487 C1488 1.361 . S
C1488 H1448 0.930 . S
C1488 C1487 1.361 . S
C1488 C1489 1.399 . S
C1489 H1449 0.929 . S
C1489 C1484 1.386 . S
C1489 C1488 1.399 . S
C1490 C1469 1.485 . S
C1490 C1491 1.394 . S
C1490 C1495 1.360 . S
C1491 H1450 0.931 . S
C1491 C1490 1.394 . S
C1491 C1492 1.372 . S
C1492 H1451 0.930 . S
C1492 C1491 1.372 . S
C1492 C1493 1.397 . S
C1493 C1492 1.397 . S
C1493 C1494 1.390 . S
C1493 C1509 1.476 . S
C1494 H1452 0.930 . S
C1494 C1493 1.390 . S
C1494 C1495 1.366 . S
C1495 H1453 0.932 . S
C1495 C1490 1.360 . S
C1495 C1494 1.366 . S
C1496 C1470 1.490 . S
C1496 C1497 1.380 . S
C1496 C1501 1.386 . S
C1497 H1454 0.930 . S
C1497 C1496 1.380 . S
C1497 C1498 1.381 . S
C1498 H1455 0.929 . S
C1498 C1497 1.381 . S
C1498 C1499 1.371 . S
C1499 C1498 1.371 . S
C1499 C1500 1.380 . S
C1500 H1456 0.931 . S
C1500 C1499 1.380 . S
C1500 C1501 1.387 . S
C1501 H1457 0.930 . S
C1501 C1496 1.386 . S
C1501 C1500 1.387 . S
C1502 C1471 1.519 . S
C1502 C1503 1.377 . S
C1502 C1507 1.361 . S
C1503 H1458 0.929 . S
C1503 C1502 1.377 . S
C1503 C1504 1.386 . S
C1504 H1459 0.931 . S
C1504 C1503 1.386 . S
C1504 C1505 1.363 . S
C1505 C1504 1.363 . S
C1505 C1506 1.385 . S
C1506 H1460 0.930 . S
C1506 C1505 1.385 . S
C1506 C1507 1.396 . S
C1507 H1461 0.929 . S
C1507 C1502 1.361 . S
C1507 C1506 1.396 . S
C1508 O1462 1.300 . S
C1508 O1463 1.209 . S
C1508 C1481 1.486 . S
C1509 O1464 1.199 . S
C1509 O1465 1.297 . S
C1509 C1493 1.476 . S
H1510 O1536 0.856 . S
H1511 O1539 0.854 . S
H1512 C1547 0.930 . S
H1513 C1548 0.930 . S
H1514 C1550 0.930 . S
H1515 C1551 0.930 . S
H1516 C1553 0.931 . S
H1517 C1554 0.930 . S
H1518 C1556 0.930 . S
H1519 C1557 0.929 . S
H1520 C1559 0.930 . S
H1521 C1560 0.931 . S
H1522 C1562 0.930 . S
H1523 C1563 0.929 . S
H1524 C1565 0.931 . S
H1525 C1566 0.930 . S
H1526 C1568 0.930 . S
H1527 C1569 0.932 . S
H1528 C1571 0.930 . S
H1529 C1572 0.929 . S
H1530 C1574 0.931 . S
H1531 C1575 0.930 . S
H1532 C1577 0.929 . S
H1533 C1578 0.931 . S
H1534 C1580 0.930 . S
H1535 C1581 0.929 . S
O1536 H1510 0.856 . S
O1536 C1582 1.300 . S
O1537 C1582 1.209 . S
O1538 C1583 1.199 . S
O1539 H1511 0.854 . S
O1539 C1583 1.297 . S
C1540 C1541 1.404 . S
C1540 C1545 1.397 . S
C1540 C1546 1.492 . S
C1541 C1540 1.404 . S
C1541 C1542 1.396 . S
C1541 C1552 1.492 . S
C1542 C1541 1.396 . S
C1542 C1543 1.397 . S
C1542 C1558 1.509 . S
C1543 C1542 1.397 . S
C1543 C1544 1.412 . S
C1543 C1564 1.485 . S
C1544 C1543 1.412 . S
C1544 C1545 1.388 . S
C1544 C1570 1.490 . S
C1545 C1540 1.397 . S
C1545 C1544 1.388 . S
C1545 C1576 1.519 . S
C1546 C1540 1.492 . S
C1546 C1547 1.363 . S
C1546 C1551 1.390 . S
C1547 H1512 0.930 . S
C1547 C1546 1.363 . S
C1547 C1548 1.372 . S
C1548 H1513 0.930 . S
C1548 C1547 1.372 . S
C1548 C1549 1.383 . S
C1549 C1548 1.383 . S
C1549 C1550 1.395 . S
C1550 H1514 0.930 . S
C1550 C1549 1.395 . S
C1550 C1551 1.362 . S
C1551 H1515 0.930 . S
C1551 C1546 1.390 . S
C1551 C1550 1.362 . S
C1552 C1541 1.492 . S
C1552 C1553 1.377 . S
C1552 C1557 1.397 . S
C1553 H1516 0.931 . S
C1553 C1552 1.377 . S
C1553 C1554 1.376 . S
C1554 H1517 0.930 . S
C1554 C1553 1.376 . S
C1554 C1555 1.376 . S
C1555 C1554 1.376 . S
C1555 C1556 1.378 . S
C1555 C1582 1.486 . S
C1556 H1518 0.930 . S
C1556 C1555 1.378 . S
C1556 C1557 1.376 . S
C1557 H1519 0.929 . S
C1557 C1552 1.397 . S
C1557 C1556 1.376 . S
C1558 C1542 1.509 . S
C1558 C1559 1.391 . S
C1558 C1563 1.386 . S
C1559 H1520 0.930 . S
C1559 C1558 1.391 . S
C1559 C1560 1.375 . S
C1560 H1521 0.931 . S
C1560 C1559 1.375 . S
C1560 C1561 1.375 . S
C1561 C1560 1.375 . S
C1561 C1562 1.361 . S
C1562 H1522 0.930 . S
C1562 C1561 1.361 . S
C1562 C1563 1.399 . S
C1563 H1523 0.929 . S
C1563 C1558 1.386 . S
C1563 C1562 1.399 . S
C1564 C1543 1.485 . S
C1564 C1565 1.394 . S
C1564 C1569 1.360 . S
C1565 H1524 0.931 . S
C1565 C1564 1.394 . S
C1565 C1566 1.372 . S
C1566 H1525 0.930 . S
C1566 C1565 1.372 . S
C1566 C1567 1.397 . S
C1567 C1566 1.397 . S
C1567 C1568 1.390 . S
C1567 C1583 1.476 . S
C1568 H1526 0.930 . S
C1568 C1567 1.390 . S
C1568 C1569 1.366 . S
C1569 H1527 0.932 . S
C1569 C1564 1.360 . S
C1569 C1568 1.366 . S
C1570 C1544 1.490 . S
C1570 C1571 1.380 . S
C1570 C1575 1.386 . S
C1571 H1528 0.930 . S
C1571 C1570 1.380 . S
C1571 C1572 1.381 . S
C1572 H1529 0.929 . S
C1572 C1571 1.381 . S
C1572 C1573 1.371 . S
C1573 C1572 1.371 . S
C1573 C1574 1.380 . S
C1574 H1530 0.931 . S
C1574 C1573 1.380 . S
C1574 C1575 1.387 . S
C1575 H1531 0.930 . S
C1575 C1570 1.386 . S
C1575 C1574 1.387 . S
C1576 C1545 1.519 . S
C1576 C1577 1.377 . S
C1576 C1581 1.361 . S
C1577 H1532 0.929 . S
C1577 C1576 1.377 . S
C1577 C1578 1.386 . S
C1578 H1533 0.931 . S
C1578 C1577 1.386 . S
C1578 C1579 1.363 . S
C1579 C1578 1.363 . S
C1579 C1580 1.385 . S
C1580 H1534 0.930 . S
C1580 C1579 1.385 . S
C1580 C1581 1.396 . S
C1581 H1535 0.929 . S
C1581 C1576 1.361 . S
C1581 C1580 1.396 . S
C1582 O1536 1.300 . S
C1582 O1537 1.209 . S
C1582 C1555 1.486 . S
C1583 O1538 1.199 . S
C1583 O1539 1.297 . S
C1583 C1567 1.476 . S
H1584 C1596 0.930 . S
H1585 C1598 0.930 . S
H1586 C1599 0.930 . S
H1587 C1603 0.959 . S
H1588 C1603 0.959 . S
H1589 C1603 0.961 . S
H1590 C1604 0.960 . S
H1591 C1604 0.961 . S
H1592 C1604 0.959 1_455 S
H1593 C1607 0.929 . S
H1594 C1608 0.931 1_455 S
H1595 C1610 0.930 . S
C1596 H1584 0.930 . S
C1596 C1597 1.365 1_655 S
C1596 C1601 1.399 . S
C1597 C1596 1.365 1_455 S
C1597 C1598 1.384 . S
C1598 H1585 0.930 . S
C1598 C1597 1.384 . S
C1598 C1599 1.388 . S
C1599 H1586 0.930 . S
C1599 C1598 1.388 . S
C1599 C1600 1.416 . S
C1600 C1599 1.416 . S
C1600 C1601 1.391 1_455 S
C1600 C1606 1.439 1_455 S
C1601 C1596 1.399 . S
C1601 C1600 1.391 1_655 S
C1601 C1602 1.516 . S
C1602 C1601 1.516 . S
C1602 C1603 1.502 . S
C1602 C1604 1.561 . S
C1602 C1605 1.526 . S
C1603 H1587 0.959 . S
C1603 H1588 0.959 . S
C1603 H1589 0.961 . S
C1603 C1602 1.502 . S
C1604 H1590 0.960 . S
C1604 H1591 0.961 . S
C1604 H1592 0.959 1_655 S
C1604 C1602 1.561 . S
C1605 C1602 1.526 . S
C1605 C1606 1.396 . S
C1605 C1610 1.390 . S
C1606 C1600 1.439 1_655 S
C1606 C1605 1.396 . S
C1606 C1607 1.399 1_655 S
C1607 H1593 0.929 . S
C1607 C1606 1.399 1_455 S
C1607 C1608 1.385 1_455 S
C1608 H1594 0.931 1_655 S
C1608 C1607 1.385 1_655 S
C1608 C1609 1.389 . S
C1609 C1608 1.389 . S
C1609 C1610 1.387 . S
C1610 H1595 0.930 . S
C1610 C1605 1.390 . S
C1610 C1609 1.387 . S
H1611 C1623 0.930 . S
H1612 C1625 0.930 . S
H1613 C1626 0.930 . S
H1614 C1630 0.959 . S
H1615 C1630 0.959 . S
H1616 C1630 0.961 . S
H1617 C1631 0.960 . S
H1618 C1631 0.961 . S
H1619 C1631 0.959 . S
H1620 C1634 0.929 . S
H1621 C1635 0.931 . S
H1622 C1637 0.930 . S
C1623 H1611 0.930 . S
C1623 C1624 1.399 . S
C1623 C1628 1.399 . S
C1624 C1623 1.399 . S
C1624 C1625 1.376 . S
C1625 H1612 0.930 . S
C1625 C1624 1.376 . S
C1625 C1626 1.388 . S
C1626 H1613 0.930 . S
C1626 C1625 1.388 . S
C1626 C1627 1.390 . S
C1627 C1626 1.390 . S
C1627 C1628 1.394 . S
C1627 C1633 1.465 . S
C1628 C1623 1.399 . S
C1628 C1627 1.394 . S
C1628 C1629 1.516 . S
C1629 C1628 1.516 . S
C1629 C1630 1.502 . S
C1629 C1631 1.561 . S
C1629 C1632 1.526 . S
C1630 H1614 0.959 . S
C1630 H1615 0.959 . S
C1630 H1616 0.961 . S
C1630 C1629 1.502 . S
C1631 H1617 0.960 . S
C1631 H1618 0.961 . S
C1631 H1619 0.959 . S
C1631 C1629 1.561 . S
C1632 C1629 1.526 . S
C1632 C1633 1.396 . S
C1632 C1637 1.390 . S
C1633 C1627 1.465 . S
C1633 C1632 1.396 . S
C1633 C1634 1.399 . S
C1634 H1620 0.929 . S
C1634 C1633 1.399 . S
C1634 C1635 1.385 . S
C1635 H1621 0.931 . S
C1635 C1634 1.385 . S
C1635 C1636 1.389 . S
C1636 C1635 1.389 . S
C1636 C1637 1.387 . S
C1637 H1622 0.930 . S
C1637 C1632 1.390 . S
C1637 C1636 1.387 . S
H1638 C1650 0.930 . S
H1639 C1652 0.930 . S
H1640 C1653 0.930 . S
H1641 C1657 0.959 . S
H1642 C1657 0.959 . S
H1643 C1657 0.961 . S
H1644 C1658 0.960 . S
H1645 C1658 0.961 . S
H1646 C1658 0.959 . S
H1647 C1661 0.929 . S
H1648 C1662 0.931 . S
H1649 C1664 0.930 . S
C1650 H1638 0.930 . S
C1650 C1651 1.399 . S
C1650 C1655 1.399 . S
C1651 C1650 1.399 . S
C1651 C1652 1.376 1_545 S
C1652 H1639 0.930 . S
C1652 C1651 1.376 1_565 S
C1652 C1653 1.388 . S
C1653 H1640 0.930 . S
C1653 C1652 1.388 . S
C1653 C1654 1.390 . S
C1654 C1653 1.390 . S
C1654 C1655 1.394 1_565 S
C1654 C1660 1.478 1_565 S
C1655 C1650 1.399 . S
C1655 C1654 1.394 1_545 S
C1655 C1656 1.516 . S
C1656 C1655 1.516 . S
C1656 C1657 1.502 . S
C1656 C1658 1.561 . S
C1656 C1659 1.526 . S
C1657 H1641 0.959 . S
C1657 H1642 0.959 . S
C1657 H1643 0.961 . S
C1657 C1656 1.502 . S
C1658 H1644 0.960 . S
C1658 H1645 0.961 . S
C1658 H1646 0.959 . S
C1658 C1656 1.561 . S
C1659 C1656 1.526 . S
C1659 C1660 1.429 . S
C1659 C1664 1.390 . S
C1660 C1654 1.478 1_545 S
C1660 C1659 1.429 . S
C1660 C1661 1.362 1_545 S
C1661 H1647 0.929 . S
C1661 C1660 1.362 1_565 S
C1661 C1662 1.385 . S
C1662 H1648 0.931 . S
C1662 C1661 1.385 . S
C1662 C1663 1.389 1_565 S
C1663 C1662 1.389 1_545 S
C1663 C1664 1.387 . S
C1664 H1649 0.930 . S
C1664 C1659 1.390 . S
C1664 C1663 1.387 . S
H1665 C1677 0.930 . S
H1666 C1679 0.930 . S
H1667 C1680 0.930 . S
H1668 C1684 0.959 1_565 S
H1669 C1684 0.959 . S
H1670 C1684 0.961 . S
H1671 C1685 0.960 . S
H1672 C1685 0.961 . S
H1673 C1685 0.959 . S
H1674 C1688 0.929 . S
H1675 C1689 0.931 . S
H1676 C1691 0.930 1_545 S
C1677 H1665 0.930 . S
C1677 C1678 1.399 1_545 S
C1677 C1682 1.379 1_545 S
C1678 C1677 1.399 1_565 S
C1678 C1679 1.376 . S
C1679 H1666 0.930 . S
C1679 C1678 1.376 . S
C1679 C1680 1.388 . S
C1680 H1667 0.930 . S
C1680 C1679 1.388 . S
C1680 C1681 1.390 . S
C1681 C1680 1.390 . S
C1681 C1682 1.435 . S
C1681 C1687 1.465 . S
C1682 C1677 1.379 1_565 S
C1682 C1681 1.435 . S
C1682 C1683 1.502 1_565 S
C1683 C1682 1.502 1_545 S
C1683 C1684 1.502 . S
C1683 C1685 1.561 . S
C1683 C1686 1.526 1_545 S
C1684 H1668 0.959 1_545 S
C1684 H1669 0.959 . S
C1684 H1670 0.961 . S
C1684 C1683 1.502 . S
C1685 H1671 0.960 . S
C1685 H1672 0.961 . S
C1685 H1673 0.959 . S
C1685 C1683 1.561 . S
C1686 C1683 1.526 1_565 S
C1686 C1687 1.396 . S
C1686 C1691 1.390 . S
C1687 C1681 1.465 . S
C1687 C1686 1.396 . S
C1687 C1688 1.399 . S
C1688 H1674 0.929 . S
C1688 C1687 1.399 . S
C1688 C1689 1.385 . S
C1689 H1675 0.931 . S
C1689 C1688 1.385 . S
C1689 C1690 1.389 . S
C1690 C1689 1.389 . S
C1690 C1691 1.387 . S
C1691 H1676 0.930 1_565 S
C1691 C1686 1.390 . S
C1691 C1690 1.387 . S
H1692 C1704 0.930 . S
H1693 C1706 0.930 . S
H1694 C1707 0.930 . S
H1695 C1711 0.959 . S
H1696 C1711 0.959 . S
H1697 C1711 0.961 . S
H1698 C1712 0.960 . S
H1699 C1712 0.961 . S
H1700 C1712 0.959 . S
H1701 C1715 0.929 . S
H1702 C1716 0.931 . S
H1703 C1718 0.930 . S
C1704 H1692 0.930 . S
C1704 C1705 1.399 . S
C1704 C1709 1.399 . S
C1705 C1704 1.399 . S
C1705 C1706 1.376 1_455 S
C1706 H1693 0.930 . S
C1706 C1705 1.376 1_655 S
C1706 C1707 1.388 . S
C1707 H1694 0.930 . S
C1707 C1706 1.388 . S
C1707 C1708 1.390 . S
C1708 C1707 1.390 . S
C1708 C1709 1.394 1_655 S
C1708 C1714 1.463 . S
C1709 C1704 1.399 . S
C1709 C1708 1.394 1_455 S
C1709 C1710 1.516 . S
C1710 C1709 1.516 . S
C1710 C1711 1.502 . S
C1710 C1712 1.561 . S
C1710 C1713 1.526 . S
C1711 H1695 0.959 . S
C1711 H1696 0.959 . S
C1711 H1697 0.961 . S
C1711 C1710 1.502 . S
C1712 H1698 0.960 . S
C1712 H1699 0.961 . S
C1712 H1700 0.959 . S
C1712 C1710 1.561 . S
C1713 C1710 1.526 . S
C1713 C1714 1.390 1_455 S
C1713 C1718 1.390 . S
C1714 C1708 1.463 . S
C1714 C1713 1.390 1_655 S
C1714 C1715 1.405 . S
C1715 H1701 0.929 . S
C1715 C1714 1.405 . S
C1715 C1716 1.385 . S
C1716 H1702 0.931 . S
C1716 C1715 1.385 . S
C1716 C1717 1.389 1_655 S
C1717 C1716 1.389 1_455 S
C1717 C1718 1.387 . S
C1718 H1703 0.930 . S
C1718 C1713 1.390 . S
C1718 C1717 1.387 . S
H1719 C1731 0.930 . S
H1720 C1733 0.930 . S
H1721 C1734 0.930 . S
H1722 C1738 0.959 . S
H1723 C1738 0.959 . S
H1724 C1738 0.997 . S
H1725 C1739 0.960 . S
H1726 C1739 0.961 . S
H1727 C1739 0.959 . S
H1728 C1742 0.929 . S
H1729 C1743 0.931 . S
H1730 C1745 0.930 . S
C1731 H1719 0.930 . S
C1731 C1732 1.399 . S
C1731 C1736 1.399 1_554 S
C1732 C1731 1.399 . S
C1732 C1733 1.376 . S
C1733 H1720 0.930 . S
C1733 C1732 1.376 . S
C1733 C1734 1.388 1_554 S
C1734 H1721 0.930 . S
C1734 C1733 1.388 1_556 S
C1734 C1735 1.390 . S
C1735 C1734 1.390 . S
C1735 C1736 1.394 . S
C1735 C1741 1.465 . S
C1736 C1731 1.399 1_556 S
C1736 C1735 1.394 . S
C1736 C1737 1.516 . S
C1737 C1736 1.516 . S
C1737 C1738 1.502 . S
C1737 C1739 1.561 . S
C1737 C1740 1.526 . S
C1738 H1722 0.959 . S
C1738 H1723 0.959 . S
C1738 H1724 0.997 . S
C1738 C1737 1.502 . S
C1739 H1725 0.960 . S
C1739 H1726 0.961 . S
C1739 H1727 0.959 . S
C1739 C1737 1.561 . S
C1740 C1737 1.526 . S
C1740 C1741 1.396 . S
C1740 C1745 1.390 . S
C1741 C1735 1.465 . S
C1741 C1740 1.396 . S
C1741 C1742 1.399 . S
C1742 H1728 0.929 . S
C1742 C1741 1.399 . S
C1742 C1743 1.385 . S
C1743 H1729 0.931 . S
C1743 C1742 1.385 . S
C1743 C1744 1.389 . S
C1744 C1743 1.389 . S
C1744 C1745 1.387 . S
C1745 H1730 0.930 . S
C1745 C1740 1.390 . S
C1745 C1744 1.387 . S
H1746 C1758 0.954 . S
H1747 C1760 0.930 . S
H1748 C1761 0.930 . S
H1749 C1765 0.959 . S
H1750 C1765 0.959 . S
H1751 C1765 0.961 . S
H1752 C1766 0.960 . S
H1753 C1766 0.961 . S
H1754 C1766 0.959 . S
H1755 C1769 0.929 . S
H1756 C1770 0.931 . S
H1757 C1772 0.936 . S
C1758 H1746 0.954 . S
C1758 C1759 1.399 1_556 S
C1758 C1763 1.399 . S
C1759 C1758 1.399 1_554 S
C1759 C1760 1.376 . S
C1760 H1747 0.930 . S
C1760 C1759 1.376 . S
C1760 C1761 1.388 . S
C1761 H1748 0.930 . S
C1761 C1760 1.388 . S
C1761 C1762 1.390 1_554 S
C1762 C1761 1.390 1_556 S
C1762 C1763 1.394 . S
C1762 C1768 1.465 . S
C1763 C1758 1.399 . S
C1763 C1762 1.394 . S
C1763 C1764 1.516 . S
C1764 C1763 1.516 . S
C1764 C1765 1.502 1_455 S
C1764 C1766 1.561 . S
C1764 C1767 1.526 . S
C1765 H1749 0.959 . S
C1765 H1750 0.959 . S
C1765 H1751 0.961 . S
C1765 C1764 1.502 1_655 S
C1766 H1752 0.960 . S
C1766 H1753 0.961 . S
C1766 H1754 0.959 . S
C1766 C1764 1.561 . S
C1767 C1764 1.526 . S
C1767 C1768 1.396 . S
C1767 C1772 1.390 . S
C1768 C1762 1.465 . S
C1768 C1767 1.396 . S
C1768 C1769 1.399 . S
C1769 H1755 0.929 . S
C1769 C1768 1.399 . S
C1769 C1770 1.385 . S
C1770 H1756 0.931 . S
C1770 C1769 1.385 . S
C1770 C1771 1.398 . S
C1771 C1770 1.398 . S
C1771 C1772 1.364 . S
C1772 H1757 0.936 . S
C1772 C1767 1.390 . S
C1772 C1771 1.364 . S
H1773 C1785 0.930 . S
H1774 C1787 0.930 . S
H1775 C1788 0.930 . S
H1776 C1792 0.959 . S
H1777 C1792 0.959 . S
H1778 C1792 0.961 . S
H1779 C1793 0.960 . S
H1780 C1793 0.961 . S
H1781 C1793 0.959 . S
H1782 C1796 0.929 . S
H1783 C1797 0.931 . S
H1784 C1799 0.930 . S
C1785 H1773 0.930 . S
C1785 C1786 1.399 . S
C1785 C1790 1.399 . S
C1786 C1785 1.399 . S
C1786 C1787 1.376 . S
C1787 H1774 0.930 . S
C1787 C1786 1.376 . S
C1787 C1788 1.388 . S
C1788 H1775 0.930 . S
C1788 C1787 1.388 . S
C1788 C1789 1.390 . S
C1789 C1788 1.390 . S
C1789 C1790 1.394 . S
C1789 C1795 1.465 . S
C1790 C1785 1.399 . S
C1790 C1789 1.394 . S
C1790 C1791 1.516 . S
C1791 C1790 1.516 . S
C1791 C1792 1.502 . S
C1791 C1793 1.561 . S
C1791 C1794 1.526 . S
C1792 H1776 0.959 . S
C1792 H1777 0.959 . S
C1792 H1778 0.961 . S
C1792 C1791 1.502 . S
C1793 H1779 0.960 . S
C1793 H1780 0.961 . S
C1793 H1781 0.959 . S
C1793 C1791 1.561 . S
C1794 C1791 1.526 . S
C1794 C1795 1.396 . S
C1794 C1799 1.390 . S
C1795 C1789 1.465 . S
C1795 C1794 1.396 . S
C1795 C1796 1.399 . S
C1796 H1782 0.929 . S
C1796 C1795 1.399 . S
C1796 C1797 1.385 . S
C1797 H1783 0.931 . S
C1797 C1796 1.385 . S
C1797 C1798 1.389 . S
C1798 C1797 1.389 . S
C1798 C1799 1.387 . S
C1799 H1784 0.930 . S
C1799 C1794 1.390 . S
C1799 C1798 1.387 . S
H1800 C1812 0.930 . S
H1801 C1814 0.930 . S
H1802 C1815 0.942 . S
H1803 C1819 0.959 . S
H1804 C1819 0.959 . S
H1805 C1819 0.961 . S
H1806 C1820 0.960 . S
H1807 C1820 0.961 . S
H1808 C1820 0.959 . S
H1809 C1823 0.929 . S
H1810 C1824 0.931 . S
H1811 C1826 0.930 . S
C1812 H1800 0.930 . S
C1812 C1813 1.399 1_556 S
C1812 C1817 1.399 . S
C1813 C1812 1.399 1_554 S
C1813 C1814 1.376 1_565 S
C1814 H1801 0.930 . S
C1814 C1813 1.376 1_545 S
C1814 C1815 1.388 1_554 S
C1815 H1802 0.942 . S
C1815 C1814 1.388 1_556 S
C1815 C1816 1.390 . S
C1816 C1815 1.390 . S
C1816 C1817 1.394 1_545 S
C1816 C1822 1.465 . S
C1817 C1812 1.399 . S
C1817 C1816 1.394 1_565 S
C1817 C1818 1.516 . S
C1818 C1817 1.516 . S
C1818 C1819 1.502 . S
C1818 C1820 1.561 . S
C1818 C1821 1.526 . S
C1819 H1803 0.959 . S
C1819 H1804 0.959 . S
C1819 H1805 0.961 . S
C1819 C1818 1.502 . S
C1820 H1806 0.960 . S
C1820 H1807 0.961 . S
C1820 H1808 0.959 . S
C1820 C1818 1.561 . S
C1821 C1818 1.526 . S
C1821 C1822 1.396 1_565 S
C1821 C1826 1.390 . S
C1822 C1816 1.465 . S
C1822 C1821 1.396 1_545 S
C1822 C1823 1.399 . S
C1823 H1809 0.929 . S
C1823 C1822 1.399 . S
C1823 C1824 1.385 . S
C1824 H1810 0.931 . S
C1824 C1823 1.385 . S
C1824 C1825 1.389 . S
C1825 C1824 1.389 . S
C1825 C1826 1.387 1_545 S
C1826 H1811 0.930 . S
C1826 C1821 1.390 . S
C1826 C1825 1.387 1_565 S
H1827 C1839 0.930 . S
H1828 C1841 0.930 . S
H1829 C1842 0.930 . S
H1830 C1846 0.959 . S
H1831 C1846 0.959 . S
H1832 C1846 0.961 . S
H1833 C1847 0.960 . S
H1834 C1847 0.961 . S
H1835 C1847 0.959 . S
H1836 C1850 0.929 . S
H1837 C1851 0.931 . S
H1838 C1853 0.930 . S
C1839 H1827 0.930 . S
C1839 C1840 1.399 . S
C1839 C1844 1.399 . S
C1840 C1839 1.399 . S
C1840 C1841 1.376 1_545 S
C1841 H1828 0.930 . S
C1841 C1840 1.376 1_565 S
C1841 C1842 1.388 . S
C1842 H1829 0.930 . S
C1842 C1841 1.388 . S
C1842 C1843 1.390 . S
C1843 C1842 1.390 . S
C1843 C1844 1.394 1_565 S
C1843 C1849 1.465 . S
C1844 C1839 1.399 . S
C1844 C1843 1.394 1_545 S
C1844 C1845 1.516 . S
C1845 C1844 1.516 . S
C1845 C1846 1.502 . S
C1845 C1847 1.561 . S
C1845 C1848 1.526 . S
C1846 H1830 0.959 . S
C1846 H1831 0.959 . S
C1846 H1832 0.961 . S
C1846 C1845 1.502 . S
C1847 H1833 0.960 . S
C1847 H1834 0.961 . S
C1847 H1835 0.959 . S
C1847 C1845 1.561 . S
C1848 C1845 1.526 . S
C1848 C1849 1.396 1_545 S
C1848 C1853 1.390 . S
C1849 C1843 1.465 . S
C1849 C1848 1.396 1_565 S
C1849 C1850 1.399 . S
C1850 H1836 0.929 . S
C1850 C1849 1.399 . S
C1850 C1851 1.385 . S
C1851 H1837 0.931 . S
C1851 C1850 1.385 . S
C1851 C1852 1.389 . S
C1852 C1851 1.389 . S
C1852 C1853 1.387 1_565 S
C1853 H1838 0.930 . S
C1853 C1848 1.390 . S
C1853 C1852 1.387 1_545 S
H1854 C1866 0.930 . S
H1855 C1868 0.930 . S
H1856 C1869 0.930 . S
H1857 C1873 0.959 . S
H1858 C1873 0.959 . S
H1859 C1873 0.961 . S
H1860 C1874 0.960 . S
H1861 C1874 0.961 . S
H1862 C1874 0.982 . S
H1863 C1877 0.929 . S
H1864 C1878 0.931 . S
H1865 C1880 0.930 . S
C1866 H1854 0.930 . S
C1866 C1867 1.399 1_655 S
C1866 C1871 1.399 . S
C1867 C1866 1.399 1_455 S
C1867 C1868 1.375 . S
C1868 H1855 0.930 . S
C1868 C1867 1.375 . S
C1868 C1869 1.388 . S
C1869 H1856 0.930 . S
C1869 C1868 1.388 . S
C1869 C1870 1.390 . S
C1870 C1869 1.390 . S
C1870 C1871 1.394 1_455 S
C1870 C1876 1.465 . S
C1871 C1866 1.399 . S
C1871 C1870 1.394 1_655 S
C1871 C1872 1.516 . S
C1872 C1871 1.516 . S
C1872 C1873 1.502 . S
C1872 C1874 1.561 . S
C1872 C1875 1.526 . S
C1873 H1857 0.959 . S
C1873 H1858 0.959 . S
C1873 H1859 0.961 . S
C1873 C1872 1.502 . S
C1874 H1860 0.960 . S
C1874 H1861 0.961 . S
C1874 H1862 0.982 . S
C1874 C1872 1.561 . S
C1875 C1872 1.526 . S
C1875 C1876 1.396 1_655 S
C1875 C1880 1.390 . S
C1876 C1870 1.465 . S
C1876 C1875 1.396 1_455 S
C1876 C1877 1.399 . S
C1877 H1863 0.929 . S
C1877 C1876 1.399 . S
C1877 C1878 1.385 . S
C1878 H1864 0.931 . S
C1878 C1877 1.385 . S
C1878 C1879 1.389 . S
C1879 C1878 1.389 . S
C1879 C1880 1.387 1_455 S
C1880 H1865 0.930 . S
C1880 C1875 1.390 . S
C1880 C1879 1.387 1_655 S
H1881 C1893 0.930 . S
H1882 C1895 0.930 . S
H1883 C1896 0.930 . S
H1884 C1900 0.959 . S
H1885 C1900 0.959 . S
H1886 C1900 0.961 . S
H1887 C1901 0.960 . S
H1888 C1901 0.961 . S
H1889 C1901 0.959 . S
H1890 C1904 0.929 . S
H1891 C1905 0.931 . S
H1892 C1907 0.930 . S
C1893 H1881 0.930 . S
C1893 C1894 1.399 . S
C1893 C1898 1.399 . S
C1894 C1893 1.399 . S
C1894 C1895 1.376 . S
C1895 H1882 0.930 . S
C1895 C1894 1.376 . S
C1895 C1896 1.388 . S
C1896 H1883 0.930 . S
C1896 C1895 1.388 . S
C1896 C1897 1.390 . S
C1897 C1896 1.390 . S
C1897 C1898 1.394 . S
C1897 C1903 1.465 . S
C1898 C1893 1.399 . S
C1898 C1897 1.394 . S
C1898 C1899 1.516 . S
C1899 C1898 1.516 . S
C1899 C1900 1.502 . S
C1899 C1901 1.561 . S
C1899 C1902 1.526 . S
C1900 H1884 0.959 . S
C1900 H1885 0.959 . S
C1900 H1886 0.961 . S
C1900 C1899 1.502 . S
C1901 H1887 0.960 . S
C1901 H1888 0.961 . S
C1901 H1889 0.959 . S
C1901 C1899 1.561 . S
C1902 C1899 1.526 . S
C1902 C1903 1.396 . S
C1902 C1907 1.390 . S
C1903 C1897 1.465 . S
C1903 C1902 1.396 . S
C1903 C1904 1.399 . S
C1904 H1890 0.929 . S
C1904 C1903 1.399 . S
C1904 C1905 1.385 . S
C1905 H1891 0.931 . S
C1905 C1904 1.385 . S
C1905 C1906 1.389 . S
C1906 C1905 1.389 . S
C1906 C1907 1.387 . S
C1907 H1892 0.930 . S
C1907 C1902 1.390 . S
C1907 C1906 1.387 . S
H1908 C1920 0.930 . S
H1909 C1922 0.930 . S
H1910 C1923 0.930 . S
H1911 C1927 0.959 . S
H1912 C1927 0.959 . S
H1913 C1927 0.961 . S
H1914 C1928 0.960 . S
H1915 C1928 0.961 . S
H1916 C1928 0.959 . S
H1917 C1931 0.929 . S
H1918 C1932 0.931 . S
H1919 C1934 0.930 . S
C1920 H1908 0.930 . S
C1920 C1921 1.399 . S
C1920 C1925 1.399 . S
C1921 C1920 1.399 . S
C1921 C1922 1.376 . S
C1922 H1909 0.930 . S
C1922 C1921 1.376 . S
C1922 C1923 1.388 . S
C1923 H1910 0.930 . S
C1923 C1922 1.388 . S
C1923 C1924 1.390 . S
C1924 C1923 1.390 . S
C1924 C1925 1.394 . S
C1924 C1930 1.465 . S
C1925 C1920 1.399 . S
C1925 C1924 1.394 . S
C1925 C1926 1.516 . S
C1926 C1925 1.516 . S
C1926 C1927 1.502 . S
C1926 C1928 1.561 . S
C1926 C1929 1.526 . S
C1927 H1911 0.959 . S
C1927 H1912 0.959 . S
C1927 H1913 0.961 . S
C1927 C1926 1.502 . S
C1928 H1914 0.960 . S
C1928 H1915 0.961 . S
C1928 H1916 0.959 . S
C1928 C1926 1.561 . S
C1929 C1926 1.526 . S
C1929 C1930 1.396 . S
C1929 C1934 1.390 . S
C1930 C1924 1.465 . S
C1930 C1929 1.396 . S
C1930 C1931 1.399 . S
C1931 H1917 0.929 . S
C1931 C1930 1.399 . S
C1931 C1932 1.385 . S
C1932 H1918 0.931 . S
C1932 C1931 1.385 . S
C1932 C1933 1.389 . S
C1933 C1932 1.389 . S
C1933 C1934 1.387 . S
C1934 H1919 0.930 . S
C1934 C1929 1.390 . S
C1934 C1933 1.387 . S
H1935 C1947 0.930 . S
H1936 C1949 0.930 . S
H1937 C1950 0.930 . S
H1938 C1954 0.959 . S
H1939 C1954 0.959 . S
H1940 C1954 0.961 . S
H1941 C1955 0.960 . S
H1942 C1955 0.961 . S
H1943 C1955 0.959 . S
H1944 C1958 0.929 . S
H1945 C1959 0.931 . S
H1946 C1961 0.930 . S
C1947 H1935 0.930 . S
C1947 C1948 1.399 . S
C1947 C1952 1.399 . S
C1948 C1947 1.399 . S
C1948 C1949 1.376 . S
C1949 H1936 0.930 . S
C1949 C1948 1.376 . S
C1949 C1950 1.388 . S
C1950 H1937 0.930 . S
C1950 C1949 1.388 . S
C1950 C1951 1.390 . S
C1951 C1950 1.390 . S
C1951 C1952 1.394 . S
C1951 C1957 1.465 . S
C1952 C1947 1.399 . S
C1952 C1951 1.394 . S
C1952 C1953 1.516 . S
C1953 C1952 1.516 . S
C1953 C1954 1.502 . S
C1953 C1955 1.561 . S
C1953 C1956 1.526 . S
C1954 H1938 0.959 . S
C1954 H1939 0.959 . S
C1954 H1940 0.961 . S
C1954 C1953 1.502 . S
C1955 H1941 0.960 . S
C1955 H1942 0.961 . S
C1955 H1943 0.959 . S
C1955 C1953 1.561 . S
C1956 C1953 1.526 . S
C1956 C1957 1.396 . S
C1956 C1961 1.390 . S
C1957 C1951 1.465 . S
C1957 C1956 1.396 . S
C1957 C1958 1.399 . S
C1958 H1944 0.929 . S
C1958 C1957 1.399 . S
C1958 C1959 1.385 . S
C1959 H1945 0.931 . S
C1959 C1958 1.385 . S
C1959 C1960 1.389 . S
C1960 C1959 1.389 . S
C1960 C1961 1.387 . S
C1961 H1946 0.930 . S
C1961 C1956 1.390 . S
C1961 C1960 1.387 . S
H1962 C1974 0.930 . S
H1963 C1976 0.930 . S
H1964 C1977 0.930 . S
H1965 C1981 0.959 . S
H1966 C1981 0.959 . S
H1967 C1981 0.961 . S
H1968 C1982 0.960 . S
H1969 C1982 0.961 . S
H1970 C1982 0.959 . S
H1971 C1985 0.929 . S
H1972 C1986 0.931 . S
H1973 C1988 0.930 . S
C1974 H1962 0.930 . S
C1974 C1975 1.399 . S
C1974 C1979 1.399 . S
C1975 C1974 1.399 . S
C1975 C1976 1.376 . S
C1976 H1963 0.930 . S
C1976 C1975 1.376 . S
C1976 C1977 1.388 . S
C1977 H1964 0.930 . S
C1977 C1976 1.388 . S
C1977 C1978 1.390 . S
C1978 C1977 1.390 . S
C1978 C1979 1.394 . S
C1978 C1984 1.465 . S
C1979 C1974 1.399 . S
C1979 C1978 1.394 . S
C1979 C1980 1.516 . S
C1980 C1979 1.516 . S
C1980 C1981 1.502 . S
C1980 C1982 1.561 . S
C1980 C1983 1.526 . S
C1981 H1965 0.959 . S
C1981 H1966 0.959 . S
C1981 H1967 0.961 . S
C1981 C1980 1.502 . S
C1982 H1968 0.960 . S
C1982 H1969 0.961 . S
C1982 H1970 0.959 . S
C1982 C1980 1.561 . S
C1983 C1980 1.526 . S
C1983 C1984 1.396 . S
C1983 C1988 1.390 . S
C1984 C1978 1.465 . S
C1984 C1983 1.396 . S
C1984 C1985 1.399 . S
C1985 H1971 0.929 . S
C1985 C1984 1.399 . S
C1985 C1986 1.385 . S
C1986 H1972 0.931 . S
C1986 C1985 1.385 . S
C1986 C1987 1.389 . S
C1987 C1986 1.389 . S
C1987 C1988 1.387 . S
C1988 H1973 0.930 . S
C1988 C1983 1.390 . S
C1988 C1987 1.387 . S
H1989 C2001 0.930 . S
H1990 C2003 0.930 . S
H1991 C2004 0.930 . S
H1992 C2008 0.959 . S
H1993 C2008 0.959 . S
H1994 C2008 0.961 . S
H1995 C2009 0.960 . S
H1996 C2009 0.961 . S
H1997 C2009 0.959 . S
H1998 C2012 0.929 . S
H1999 C2013 0.931 . S
H2000 C2015 0.930 . S
C2001 H1989 0.930 . S
C2001 C2002 1.399 . S
C2001 C2006 1.399 . S
C2002 C2001 1.399 . S
C2002 C2003 1.376 . S
C2003 H1990 0.930 . S
C2003 C2002 1.376 . S
C2003 C2004 1.388 . S
C2004 H1991 0.930 . S
C2004 C2003 1.388 . S
C2004 C2005 1.390 . S
C2005 C2004 1.390 . S
C2005 C2006 1.394 . S
C2005 C2011 1.465 . S
C2006 C2001 1.399 . S
C2006 C2005 1.394 . S
C2006 C2007 1.516 . S
C2007 C2006 1.516 . S
C2007 C2008 1.502 . S
C2007 C2009 1.561 . S
C2007 C2010 1.526 . S
C2008 H1992 0.959 . S
C2008 H1993 0.959 . S
C2008 H1994 0.961 . S
C2008 C2007 1.502 . S
C2009 H1995 0.960 . S
C2009 H1996 0.961 . S
C2009 H1997 0.959 . S
C2009 C2007 1.561 . S
C2010 C2007 1.526 . S
C2010 C2011 1.396 . S
C2010 C2015 1.390 . S
C2011 C2005 1.465 . S
C2011 C2010 1.396 . S
C2011 C2012 1.399 . S
C2012 H1998 0.929 . S
C2012 C2011 1.399 . S
C2012 C2013 1.385 . S
C2013 H1999 0.931 . S
C2013 C2012 1.385 . S
C2013 C2014 1.389 . S
C2014 C2013 1.389 . S
C2014 C2015 1.387 . S
C2015 H2000 0.930 . S
C2015 C2010 1.390 . S
C2015 C2014 1.387 . S
H2016 C2028 0.930 . S
H2017 C2030 0.930 . S
H2018 C2031 0.930 . S
H2019 C2035 0.959 . S
H2020 C2035 0.959 . S
H2021 C2035 0.961 . S
H2022 C2036 0.960 . S
H2023 C2036 0.961 . S
H2024 C2036 0.959 . S
H2025 C2039 0.929 . S
H2026 C2040 0.931 . S
H2027 C2042 0.930 . S
C2028 H2016 0.930 . S
C2028 C2029 1.399 . S
C2028 C2033 1.399 . S
C2029 C2028 1.399 . S
C2029 C2030 1.376 . S
C2030 H2017 0.930 . S
C2030 C2029 1.376 . S
C2030 C2031 1.388 . S
C2031 H2018 0.930 . S
C2031 C2030 1.388 . S
C2031 C2032 1.390 . S
C2032 C2031 1.390 . S
C2032 C2033 1.394 . S
C2032 C2038 1.465 . S
C2033 C2028 1.399 . S
C2033 C2032 1.394 . S
C2033 C2034 1.516 . S
C2034 C2033 1.516 . S
C2034 C2035 1.502 . S
C2034 C2036 1.561 . S
C2034 C2037 1.526 . S
C2035 H2019 0.959 . S
C2035 H2020 0.959 . S
C2035 H2021 0.961 . S
C2035 C2034 1.502 . S
C2036 H2022 0.960 . S
C2036 H2023 0.961 . S
C2036 H2024 0.959 . S
C2036 C2034 1.561 . S
C2037 C2034 1.526 . S
C2037 C2038 1.396 . S
C2037 C2042 1.390 . S
C2038 C2032 1.465 . S
C2038 C2037 1.396 . S
C2038 C2039 1.399 . S
C2039 H2025 0.929 . S
C2039 C2038 1.399 . S
C2039 C2040 1.385 . S
C2040 H2026 0.931 . S
C2040 C2039 1.385 . S
C2040 C2041 1.389 . S
C2041 C2040 1.389 . S
C2041 C2042 1.387 . S
C2042 H2027 0.930 . S
C2042 C2037 1.390 . S
C2042 C2041 1.387 . S
H2043 C2055 0.930 . S
H2044 C2057 0.930 . S
H2045 C2058 0.930 . S
H2046 C2062 0.959 . S
H2047 C2062 0.959 . S
H2048 C2062 0.961 . S
H2049 C2063 0.960 . S
H2050 C2063 0.961 . S
H2051 C2063 0.959 . S
H2052 C2066 0.929 . S
H2053 C2067 0.931 . S
H2054 C2069 0.930 . S
C2055 H2043 0.930 . S
C2055 C2056 1.399 . S
C2055 C2060 1.399 . S
C2056 C2055 1.399 . S
C2056 C2057 1.376 . S
C2057 H2044 0.930 . S
C2057 C2056 1.376 . S
C2057 C2058 1.388 . S
C2058 H2045 0.930 . S
C2058 C2057 1.388 . S
C2058 C2059 1.390 . S
C2059 C2058 1.390 . S
C2059 C2060 1.394 . S
C2059 C2065 1.465 . S
C2060 C2055 1.399 . S
C2060 C2059 1.394 . S
C2060 C2061 1.516 . S
C2061 C2060 1.516 . S
C2061 C2062 1.502 . S
C2061 C2063 1.561 . S
C2061 C2064 1.526 . S
C2062 H2046 0.959 . S
C2062 H2047 0.959 . S
C2062 H2048 0.961 . S
C2062 C2061 1.502 . S
C2063 H2049 0.960 . S
C2063 H2050 0.961 . S
C2063 H2051 0.959 . S
C2063 C2061 1.561 . S
C2064 C2061 1.526 . S
C2064 C2065 1.396 . S
C2064 C2069 1.390 . S
C2065 C2059 1.465 . S
C2065 C2064 1.396 . S
C2065 C2066 1.399 . S
C2066 H2052 0.929 . S
C2066 C2065 1.399 . S
C2066 C2067 1.385 . S
C2067 H2053 0.931 . S
C2067 C2066 1.385 . S
C2067 C2068 1.389 . S
C2068 C2067 1.389 . S
C2068 C2069 1.387 . S
C2069 H2054 0.930 . S
C2069 C2064 1.390 . S
C2069 C2068 1.387 . S
H2070 C2082 0.930 . S
H2071 C2084 0.930 . S
H2072 C2085 0.930 . S
H2073 C2089 0.959 . S
H2074 C2089 0.959 . S
H2075 C2089 0.961 . S
H2076 C2090 0.960 . S
H2077 C2090 0.961 . S
H2078 C2090 0.959 . S
H2079 C2093 0.929 . S
H2080 C2094 0.931 . S
H2081 C2096 0.930 . S
C2082 H2070 0.930 . S
C2082 C2083 1.399 . S
C2082 C2087 1.399 . S
C2083 C2082 1.399 . S
C2083 C2084 1.376 . S
C2084 H2071 0.930 . S
C2084 C2083 1.376 . S
C2084 C2085 1.388 . S
C2085 H2072 0.930 . S
C2085 C2084 1.388 . S
C2085 C2086 1.390 . S
C2086 C2085 1.390 . S
C2086 C2087 1.394 . S
C2086 C2092 1.465 . S
C2087 C2082 1.399 . S
C2087 C2086 1.394 . S
C2087 C2088 1.516 . S
C2088 C2087 1.516 . S
C2088 C2089 1.502 . S
C2088 C2090 1.561 . S
C2088 C2091 1.526 . S
C2089 H2073 0.959 . S
C2089 H2074 0.959 . S
C2089 H2075 0.961 . S
C2089 C2088 1.502 . S
C2090 H2076 0.960 . S
C2090 H2077 0.961 . S
C2090 H2078 0.959 . S
C2090 C2088 1.561 . S
C2091 C2088 1.526 . S
C2091 C2092 1.396 . S
C2091 C2096 1.390 . S
C2092 C2086 1.465 . S
C2092 C2091 1.396 . S
C2092 C2093 1.399 . S
C2093 H2079 0.929 . S
C2093 C2092 1.399 . S
C2093 C2094 1.385 . S
C2094 H2080 0.931 . S
C2094 C2093 1.385 . S
C2094 C2095 1.389 . S
C2095 C2094 1.389 . S
C2095 C2096 1.387 . S
C2096 H2081 0.930 . S
C2096 C2091 1.390 . S
C2096 C2095 1.387 . S
H2097 C2109 0.930 . S
H2098 C2111 0.930 . S
H2099 C2112 0.930 . S
H2100 C2116 0.959 . S
H2101 C2116 0.959 . S
H2102 C2116 0.961 . S
H2103 C2117 0.960 . S
H2104 C2117 0.961 . S
H2105 C2117 0.959 . S
H2106 C2120 0.929 . S
H2107 C2121 0.931 . S
H2108 C2123 0.930 . S
C2109 H2097 0.930 . S
C2109 C2110 1.399 . S
C2109 C2114 1.399 . S
C2110 C2109 1.399 . S
C2110 C2111 1.376 . S
C2111 H2098 0.930 . S
C2111 C2110 1.376 . S
C2111 C2112 1.388 . S
C2112 H2099 0.930 . S
C2112 C2111 1.388 . S
C2112 C2113 1.390 . S
C2113 C2112 1.390 . S
C2113 C2114 1.394 . S
C2113 C2119 1.465 . S
C2114 C2109 1.399 . S
C2114 C2113 1.394 . S
C2114 C2115 1.516 . S
C2115 C2114 1.516 . S
C2115 C2116 1.502 . S
C2115 C2117 1.561 . S
C2115 C2118 1.526 . S
C2116 H2100 0.959 . S
C2116 H2101 0.959 . S
C2116 H2102 0.961 . S
C2116 C2115 1.502 . S
C2117 H2103 0.960 . S
C2117 H2104 0.961 . S
C2117 H2105 0.959 . S
C2117 C2115 1.561 . S
C2118 C2115 1.526 . S
C2118 C2119 1.396 . S
C2118 C2123 1.390 . S
C2119 C2113 1.465 . S
C2119 C2118 1.396 . S
C2119 C2120 1.399 . S
C2120 H2106 0.929 . S
C2120 C2119 1.399 . S
C2120 C2121 1.385 . S
C2121 H2107 0.931 . S
C2121 C2120 1.385 . S
C2121 C2122 1.389 . S
C2122 C2121 1.389 . S
C2122 C2123 1.387 . S
C2123 H2108 0.930 . S
C2123 C2118 1.390 . S
C2123 C2122 1.387 . S
H2124 C2136 0.930 . S
H2125 C2138 0.930 . S
H2126 C2139 0.930 . S
H2127 C2143 0.959 . S
H2128 C2143 0.959 . S
H2129 C2143 0.961 . S
H2130 C2144 0.960 . S
H2131 C2144 0.961 . S
H2132 C2144 0.959 . S
H2133 C2147 0.929 . S
H2134 C2148 0.931 . S
H2135 C2150 0.930 . S
C2136 H2124 0.930 . S
C2136 C2137 1.399 . S
C2136 C2141 1.399 . S
C2137 C2136 1.399 . S
C2137 C2138 1.376 . S
C2138 H2125 0.930 . S
C2138 C2137 1.376 . S
C2138 C2139 1.388 . S
C2139 H2126 0.930 . S
C2139 C2138 1.388 . S
C2139 C2140 1.390 . S
C2140 C2139 1.390 . S
C2140 C2141 1.394 . S
C2140 C2146 1.465 . S
C2141 C2136 1.399 . S
C2141 C2140 1.394 . S
C2141 C2142 1.516 . S
C2142 C2141 1.516 . S
C2142 C2143 1.502 . S
C2142 C2144 1.561 . S
C2142 C2145 1.526 . S
C2143 H2127 0.959 . S
C2143 H2128 0.959 . S
C2143 H2129 0.961 . S
C2143 C2142 1.502 . S
C2144 H2130 0.960 . S
C2144 H2131 0.961 . S
C2144 H2132 0.959 . S
C2144 C2142 1.561 . S
C2145 C2142 1.526 . S
C2145 C2146 1.396 . S
C2145 C2150 1.390 . S
C2146 C2140 1.465 . S
C2146 C2145 1.396 . S
C2146 C2147 1.399 . S
C2147 H2133 0.929 . S
C2147 C2146 1.399 . S
C2147 C2148 1.385 . S
C2148 H2134 0.931 . S
C2148 C2147 1.385 . S
C2148 C2149 1.389 . S
C2149 C2148 1.389 . S
C2149 C2150 1.387 . S
C2150 H2135 0.930 . S
C2150 C2145 1.390 . S
C2150 C2149 1.387 . S
H2151 C2163 0.930 . S
H2152 C2165 0.930 . S
H2153 C2166 0.930 . S
H2154 C2170 0.959 . S
H2155 C2170 0.959 . S
H2156 C2170 0.961 . S
H2157 C2171 0.960 . S
H2158 C2171 0.961 . S
H2159 C2171 0.959 . S
H2160 C2174 0.929 . S
H2161 C2175 0.931 . S
H2162 C2177 0.930 . S
C2163 H2151 0.930 . S
C2163 C2164 1.399 . S
C2163 C2168 1.399 . S
C2164 C2163 1.399 . S
C2164 C2165 1.376 . S
C2165 H2152 0.930 . S
C2165 C2164 1.376 . S
C2165 C2166 1.388 . S
C2166 H2153 0.930 . S
C2166 C2165 1.388 . S
C2166 C2167 1.390 . S
C2167 C2166 1.390 . S
C2167 C2168 1.394 . S
C2167 C2173 1.465 . S
C2168 C2163 1.399 . S
C2168 C2167 1.394 . S
C2168 C2169 1.516 . S
C2169 C2168 1.516 . S
C2169 C2170 1.502 . S
C2169 C2171 1.561 . S
C2169 C2172 1.526 . S
C2170 H2154 0.959 . S
C2170 H2155 0.959 . S
C2170 H2156 0.961 . S
C2170 C2169 1.502 . S
C2171 H2157 0.960 . S
C2171 H2158 0.961 . S
C2171 H2159 0.959 . S
C2171 C2169 1.561 . S
C2172 C2169 1.526 . S
C2172 C2173 1.396 . S
C2172 C2177 1.390 . S
C2173 C2167 1.465 . S
C2173 C2172 1.396 . S
C2173 C2174 1.399 . S
C2174 H2160 0.929 . S
C2174 C2173 1.399 . S
C2174 C2175 1.385 . S
C2175 H2161 0.931 . S
C2175 C2174 1.385 . S
C2175 C2176 1.389 . S
C2176 C2175 1.389 . S
C2176 C2177 1.387 . S
C2177 H2162 0.930 . S
C2177 C2172 1.390 . S
C2177 C2176 1.387 . S
H2178 C2190 0.930 . S
H2179 C2192 0.930 . S
H2180 C2193 0.930 . S
H2181 C2197 0.959 . S
H2182 C2197 0.959 . S
H2183 C2197 0.961 . S
H2184 C2198 0.960 . S
H2185 C2198 0.961 . S
H2186 C2198 0.959 . S
H2187 C2201 0.929 . S
H2188 C2202 0.931 . S
H2189 C2204 0.930 . S
C2190 H2178 0.930 . S
C2190 C2191 1.399 . S
C2190 C2195 1.399 . S
C2191 C2190 1.399 . S
C2191 C2192 1.376 . S
C2192 H2179 0.930 . S
C2192 C2191 1.376 . S
C2192 C2193 1.388 . S
C2193 H2180 0.930 . S
C2193 C2192 1.388 . S
C2193 C2194 1.390 . S
C2194 C2193 1.390 . S
C2194 C2195 1.394 . S
C2194 C2200 1.465 . S
C2195 C2190 1.399 . S
C2195 C2194 1.394 . S
C2195 C2196 1.516 . S
C2196 C2195 1.516 . S
C2196 C2197 1.502 . S
C2196 C2198 1.561 . S
C2196 C2199 1.526 . S
C2197 H2181 0.959 . S
C2197 H2182 0.959 . S
C2197 H2183 0.961 . S
C2197 C2196 1.502 . S
C2198 H2184 0.960 . S
C2198 H2185 0.961 . S
C2198 H2186 0.959 . S
C2198 C2196 1.561 . S
C2199 C2196 1.526 . S
C2199 C2200 1.396 . S
C2199 C2204 1.390 . S
C2200 C2194 1.465 . S
C2200 C2199 1.396 . S
C2200 C2201 1.399 . S
C2201 H2187 0.929 . S
C2201 C2200 1.399 . S
C2201 C2202 1.385 . S
C2202 H2188 0.931 . S
C2202 C2201 1.385 . S
C2202 C2203 1.389 . S
C2203 C2202 1.389 . S
C2203 C2204 1.387 . S
C2204 H2189 0.930 . S
C2204 C2199 1.390 . S
C2204 C2203 1.387 . S
H2205 C2217 0.930 . S
H2206 C2219 0.930 . S
H2207 C2220 0.930 . S
H2208 C2224 0.959 . S
H2209 C2224 0.959 . S
H2210 C2224 0.961 . S
H2211 C2225 0.960 . S
H2212 C2225 0.961 . S
H2213 C2225 0.959 . S
H2214 C2228 0.929 . S
H2215 C2229 0.931 . S
H2216 C2231 0.930 . S
C2217 H2205 0.930 . S
C2217 C2218 1.399 . S
C2217 C2222 1.399 . S
C2218 C2217 1.399 . S
C2218 C2219 1.376 . S
C2219 H2206 0.930 . S
C2219 C2218 1.376 . S
C2219 C2220 1.388 . S
C2220 H2207 0.930 . S
C2220 C2219 1.388 . S
C2220 C2221 1.390 . S
C2221 C2220 1.390 . S
C2221 C2222 1.394 . S
C2221 C2227 1.465 . S
C2222 C2217 1.399 . S
C2222 C2221 1.394 . S
C2222 C2223 1.516 . S
C2223 C2222 1.516 . S
C2223 C2224 1.502 . S
C2223 C2225 1.561 . S
C2223 C2226 1.526 . S
C2224 H2208 0.959 . S
C2224 H2209 0.959 . S
C2224 H2210 0.961 . S
C2224 C2223 1.502 . S
C2225 H2211 0.960 . S
C2225 H2212 0.961 . S
C2225 H2213 0.959 . S
C2225 C2223 1.561 . S
C2226 C2223 1.526 . S
C2226 C2227 1.396 . S
C2226 C2231 1.390 . S
C2227 C2221 1.465 . S
C2227 C2226 1.396 . S
C2227 C2228 1.399 . S
C2228 H2214 0.929 . S
C2228 C2227 1.399 . S
C2228 C2229 1.385 . S
C2229 H2215 0.931 . S
C2229 C2228 1.385 . S
C2229 C2230 1.389 . S
C2230 C2229 1.389 . S
C2230 C2231 1.387 . S
C2231 H2216 0.930 . S
C2231 C2226 1.390 . S
C2231 C2230 1.387 . S
H2232 C2244 0.930 . S
H2233 C2246 0.930 . S
H2234 C2247 0.930 . S
H2235 C2251 0.959 . S
H2236 C2251 0.959 . S
H2237 C2251 0.961 . S
H2238 C2252 0.960 . S
H2239 C2252 0.961 . S
H2240 C2252 0.959 . S
H2241 C2255 0.929 . S
H2242 C2256 0.931 . S
H2243 C2258 0.930 . S
C2244 H2232 0.930 . S
C2244 C2245 1.399 . S
C2244 C2249 1.399 . S
C2245 C2244 1.399 . S
C2245 C2246 1.376 . S
C2246 H2233 0.930 . S
C2246 C2245 1.376 . S
C2246 C2247 1.388 . S
C2247 H2234 0.930 . S
C2247 C2246 1.388 . S
C2247 C2248 1.390 . S
C2248 C2247 1.390 . S
C2248 C2249 1.394 . S
C2248 C2254 1.465 . S
C2249 C2244 1.399 . S
C2249 C2248 1.394 . S
C2249 C2250 1.516 . S
C2250 C2249 1.516 . S
C2250 C2251 1.502 . S
C2250 C2252 1.561 . S
C2250 C2253 1.526 . S
C2251 H2235 0.959 . S
C2251 H2236 0.959 . S
C2251 H2237 0.961 . S
C2251 C2250 1.502 . S
C2252 H2238 0.960 . S
C2252 H2239 0.961 . S
C2252 H2240 0.959 . S
C2252 C2250 1.561 . S
C2253 C2250 1.526 . S
C2253 C2254 1.396 . S
C2253 C2258 1.390 . S
C2254 C2248 1.465 . S
C2254 C2253 1.396 . S
C2254 C2255 1.399 . S
C2255 H2241 0.929 . S
C2255 C2254 1.399 . S
C2255 C2256 1.385 . S
C2256 H2242 0.931 . S
C2256 C2255 1.385 . S
C2256 C2257 1.389 . S
C2257 C2256 1.389 . S
C2257 C2258 1.387 . S
C2258 H2243 0.930 . S
C2258 C2253 1.390 . S
C2258 C2257 1.387 . S
H2259 C2271 0.930 . S
H2260 C2273 0.930 . S
H2261 C2274 0.930 . S
H2262 C2278 0.959 . S
H2263 C2278 0.959 . S
H2264 C2278 0.961 . S
H2265 C2279 0.960 . S
H2266 C2279 0.961 . S
H2267 C2279 0.959 . S
H2268 C2282 0.929 . S
H2269 C2283 0.931 . S
H2270 C2285 0.930 . S
C2271 H2259 0.930 . S
C2271 C2272 1.399 . S
C2271 C2276 1.399 . S
C2272 C2271 1.399 . S
C2272 C2273 1.376 . S
C2273 H2260 0.930 . S
C2273 C2272 1.376 . S
C2273 C2274 1.388 . S
C2274 H2261 0.930 . S
C2274 C2273 1.388 . S
C2274 C2275 1.390 . S
C2275 C2274 1.390 . S
C2275 C2276 1.394 . S
C2275 C2281 1.465 . S
C2276 C2271 1.399 . S
C2276 C2275 1.394 . S
C2276 C2277 1.516 . S
C2277 C2276 1.516 . S
C2277 C2278 1.502 . S
C2277 C2279 1.561 . S
C2277 C2280 1.526 . S
C2278 H2262 0.959 . S
C2278 H2263 0.959 . S
C2278 H2264 0.961 . S
C2278 C2277 1.502 . S
C2279 H2265 0.960 . S
C2279 H2266 0.961 . S
C2279 H2267 0.959 . S
C2279 C2277 1.561 . S
C2280 C2277 1.526 . S
C2280 C2281 1.396 . S
C2280 C2285 1.390 . S
C2281 C2275 1.465 . S
C2281 C2280 1.396 . S
C2281 C2282 1.399 . S
C2282 H2268 0.929 . S
C2282 C2281 1.399 . S
C2282 C2283 1.385 . S
C2283 H2269 0.931 . S
C2283 C2282 1.385 . S
C2283 C2284 1.389 . S
C2284 C2283 1.389 . S
C2284 C2285 1.387 . S
C2285 H2270 0.930 . S
C2285 C2280 1.390 . S
C2285 C2284 1.387 . S
H2286 C2298 0.930 . S
H2287 C2300 0.930 . S
H2288 C2301 0.930 . S
H2289 C2305 0.959 . S
H2290 C2305 0.959 . S
H2291 C2305 0.961 . S
H2292 C2306 0.960 . S
H2293 C2306 0.961 . S
H2294 C2306 0.959 . S
H2295 C2309 0.929 . S
H2296 C2310 0.931 . S
H2297 C2312 0.930 . S
C2298 H2286 0.930 . S
C2298 C2299 1.399 . S
C2298 C2303 1.399 . S
C2299 C2298 1.399 . S
C2299 C2300 1.376 . S
C2300 H2287 0.930 . S
C2300 C2299 1.376 . S
C2300 C2301 1.388 . S
C2301 H2288 0.930 . S
C2301 C2300 1.388 . S
C2301 C2302 1.390 . S
C2302 C2301 1.390 . S
C2302 C2303 1.394 . S
C2302 C2308 1.465 . S
C2303 C2298 1.399 . S
C2303 C2302 1.394 . S
C2303 C2304 1.516 . S
C2304 C2303 1.516 . S
C2304 C2305 1.502 . S
C2304 C2306 1.561 . S
C2304 C2307 1.526 . S
C2305 H2289 0.959 . S
C2305 H2290 0.959 . S
C2305 H2291 0.961 . S
C2305 C2304 1.502 . S
C2306 H2292 0.960 . S
C2306 H2293 0.961 . S
C2306 H2294 0.959 . S
C2306 C2304 1.561 . S
C2307 C2304 1.526 . S
C2307 C2308 1.396 . S
C2307 C2312 1.390 . S
C2308 C2302 1.465 . S
C2308 C2307 1.396 . S
C2308 C2309 1.399 . S
C2309 H2295 0.929 . S
C2309 C2308 1.399 . S
C2309 C2310 1.385 . S
C2310 H2296 0.931 . S
C2310 C2309 1.385 . S
C2310 C2311 1.389 . S
C2311 C2310 1.389 . S
C2311 C2312 1.387 . S
C2312 H2297 0.930 . S
C2312 C2307 1.390 . S
C2312 C2311 1.387 . S
H2313 C2325 0.930 . S
H2314 C2327 0.930 . S
H2315 C2328 0.930 . S
H2316 C2332 0.959 . S
H2317 C2332 0.959 . S
H2318 C2332 0.961 . S
H2319 C2333 0.960 . S
H2320 C2333 0.961 . S
H2321 C2333 0.959 . S
H2322 C2336 0.929 . S
H2323 C2337 0.931 . S
H2324 C2339 0.930 . S
C2325 H2313 0.930 . S
C2325 C2326 1.399 . S
C2325 C2330 1.399 . S
C2326 C2325 1.399 . S
C2326 C2327 1.376 . S
C2327 H2314 0.930 . S
C2327 C2326 1.376 . S
C2327 C2328 1.388 . S
C2328 H2315 0.930 . S
C2328 C2327 1.388 . S
C2328 C2329 1.390 . S
C2329 C2328 1.390 . S
C2329 C2330 1.394 . S
C2329 C2335 1.465 . S
C2330 C2325 1.399 . S
C2330 C2329 1.394 . S
C2330 C2331 1.516 . S
C2331 C2330 1.516 . S
C2331 C2332 1.502 . S
C2331 C2333 1.561 . S
C2331 C2334 1.526 . S
C2332 H2316 0.959 . S
C2332 H2317 0.959 . S
C2332 H2318 0.961 . S
C2332 C2331 1.502 . S
C2333 H2319 0.960 . S
C2333 H2320 0.961 . S
C2333 H2321 0.959 . S
C2333 C2331 1.561 . S
C2334 C2331 1.526 . S
C2334 C2335 1.396 . S
C2334 C2339 1.390 . S
C2335 C2329 1.465 . S
C2335 C2334 1.396 . S
C2335 C2336 1.399 . S
C2336 H2322 0.929 . S
C2336 C2335 1.399 . S
C2336 C2337 1.385 . S
C2337 H2323 0.931 . S
C2337 C2336 1.385 . S
C2337 C2338 1.389 . S
C2338 C2337 1.389 . S
C2338 C2339 1.387 . S
C2339 H2324 0.930 . S
C2339 C2334 1.390 . S
C2339 C2338 1.387 . S
H2340 C2352 0.930 . S
H2341 C2354 0.930 . S
H2342 C2355 0.930 . S
H2343 C2359 0.959 . S
H2344 C2359 0.959 . S
H2345 C2359 0.961 . S
H2346 C2360 0.960 . S
H2347 C2360 0.961 . S
H2348 C2360 0.959 . S
H2349 C2363 0.929 . S
H2350 C2364 0.931 . S
H2351 C2366 0.930 . S
C2352 H2340 0.930 . S
C2352 C2353 1.399 . S
C2352 C2357 1.399 . S
C2353 C2352 1.399 . S
C2353 C2354 1.376 . S
C2354 H2341 0.930 . S
C2354 C2353 1.376 . S
C2354 C2355 1.388 . S
C2355 H2342 0.930 . S
C2355 C2354 1.388 . S
C2355 C2356 1.390 . S
C2356 C2355 1.390 . S
C2356 C2357 1.394 . S
C2356 C2362 1.465 . S
C2357 C2352 1.399 . S
C2357 C2356 1.394 . S
C2357 C2358 1.516 . S
C2358 C2357 1.516 . S
C2358 C2359 1.502 . S
C2358 C2360 1.561 . S
C2358 C2361 1.526 . S
C2359 H2343 0.959 . S
C2359 H2344 0.959 . S
C2359 H2345 0.961 . S
C2359 C2358 1.502 . S
C2360 H2346 0.960 . S
C2360 H2347 0.961 . S
C2360 H2348 0.959 . S
C2360 C2358 1.561 . S
C2361 C2358 1.526 . S
C2361 C2362 1.396 . S
C2361 C2366 1.390 . S
C2362 C2356 1.465 . S
C2362 C2361 1.396 . S
C2362 C2363 1.399 . S
C2363 H2349 0.929 . S
C2363 C2362 1.399 . S
C2363 C2364 1.385 . S
C2364 H2350 0.931 . S
C2364 C2363 1.385 . S
C2364 C2365 1.389 . S
C2365 C2364 1.389 . S
C2365 C2366 1.387 . S
C2366 H2351 0.930 . S
C2366 C2361 1.390 . S
C2366 C2365 1.387 . S
H2367 C2379 0.930 . S
H2368 C2381 0.930 . S
H2369 C2382 0.930 . S
H2370 C2386 0.959 . S
H2371 C2386 0.959 . S
H2372 C2386 0.961 . S
H2373 C2387 0.960 . S
H2374 C2387 0.961 . S
H2375 C2387 0.959 . S
H2376 C2390 0.929 . S
H2377 C2391 0.931 . S
H2378 C2393 0.930 . S
C2379 H2367 0.930 . S
C2379 C2380 1.399 . S
C2379 C2384 1.399 . S
C2380 C2379 1.399 . S
C2380 C2381 1.376 . S
C2381 H2368 0.930 . S
C2381 C2380 1.376 . S
C2381 C2382 1.388 . S
C2382 H2369 0.930 . S
C2382 C2381 1.388 . S
C2382 C2383 1.390 . S
C2383 C2382 1.390 . S
C2383 C2384 1.394 . S
C2383 C2389 1.465 . S
C2384 C2379 1.399 . S
C2384 C2383 1.394 . S
C2384 C2385 1.516 . S
C2385 C2384 1.516 . S
C2385 C2386 1.502 . S
C2385 C2387 1.561 . S
C2385 C2388 1.526 . S
C2386 H2370 0.959 . S
C2386 H2371 0.959 . S
C2386 H2372 0.961 . S
C2386 C2385 1.502 . S
C2387 H2373 0.960 . S
C2387 H2374 0.961 . S
C2387 H2375 0.959 . S
C2387 C2385 1.561 . S
C2388 C2385 1.526 . S
C2388 C2389 1.396 . S
C2388 C2393 1.390 . S
C2389 C2383 1.465 . S
C2389 C2388 1.396 . S
C2389 C2390 1.399 . S
C2390 H2376 0.929 . S
C2390 C2389 1.399 . S
C2390 C2391 1.385 . S
C2391 H2377 0.931 . S
C2391 C2390 1.385 . S
C2391 C2392 1.389 . S
C2392 C2391 1.389 . S
C2392 C2393 1.387 . S
C2393 H2378 0.930 . S
C2393 C2388 1.390 . S
C2393 C2392 1.387 . S
H2394 C2406 0.930 . S
H2395 C2408 0.930 . S
H2396 C2409 0.930 . S
H2397 C2413 0.959 . S
H2398 C2413 0.959 . S
H2399 C2413 0.961 . S
H2400 C2414 0.960 . S
H2401 C2414 0.961 . S
H2402 C2414 0.959 . S
H2403 C2417 0.929 . S
H2404 C2418 0.931 . S
H2405 C2420 0.930 . S
C2406 H2394 0.930 . S
C2406 C2407 1.399 . S
C2406 C2411 1.399 . S
C2407 C2406 1.399 . S
C2407 C2408 1.376 . S
C2408 H2395 0.930 . S
C2408 C2407 1.376 . S
C2408 C2409 1.388 . S
C2409 H2396 0.930 . S
C2409 C2408 1.388 . S
C2409 C2410 1.390 . S
C2410 C2409 1.390 . S
C2410 C2411 1.394 . S
C2410 C2416 1.465 . S
C2411 C2406 1.399 . S
C2411 C2410 1.394 . S
C2411 C2412 1.516 . S
C2412 C2411 1.516 . S
C2412 C2413 1.502 . S
C2412 C2414 1.561 . S
C2412 C2415 1.526 . S
C2413 H2397 0.959 . S
C2413 H2398 0.959 . S
C2413 H2399 0.961 . S
C2413 C2412 1.502 . S
C2414 H2400 0.960 . S
C2414 H2401 0.961 . S
C2414 H2402 0.959 . S
C2414 C2412 1.561 . S
C2415 C2412 1.526 . S
C2415 C2416 1.396 . S
C2415 C2420 1.390 . S
C2416 C2410 1.465 . S
C2416 C2415 1.396 . S
C2416 C2417 1.399 . S
C2417 H2403 0.929 . S
C2417 C2416 1.399 . S
C2417 C2418 1.385 . S
C2418 H2404 0.931 . S
C2418 C2417 1.385 . S
C2418 C2419 1.389 . S
C2419 C2418 1.389 . S
C2419 C2420 1.387 . S
C2420 H2405 0.930 . S
C2420 C2415 1.390 . S
C2420 C2419 1.387 . S
H2421 C2433 0.930 . S
H2422 C2435 0.930 . S
H2423 C2436 0.930 . S
H2424 C2440 0.959 . S
H2425 C2440 0.959 . S
H2426 C2440 0.961 . S
H2427 C2441 0.960 . S
H2428 C2441 0.961 . S
H2429 C2441 0.959 . S
H2430 C2444 0.929 . S
H2431 C2445 0.931 . S
H2432 C2447 0.930 . S
C2433 H2421 0.930 . S
C2433 C2434 1.399 . S
C2433 C2438 1.399 . S
C2434 C2433 1.399 . S
C2434 C2435 1.376 . S
C2435 H2422 0.930 . S
C2435 C2434 1.376 . S
C2435 C2436 1.388 . S
C2436 H2423 0.930 . S
C2436 C2435 1.388 . S
C2436 C2437 1.390 . S
C2437 C2436 1.390 . S
C2437 C2438 1.394 . S
C2437 C2443 1.465 . S
C2438 C2433 1.399 . S
C2438 C2437 1.394 . S
C2438 C2439 1.516 . S
C2439 C2438 1.516 . S
C2439 C2440 1.502 . S
C2439 C2441 1.561 . S
C2439 C2442 1.526 . S
C2440 H2424 0.959 . S
C2440 H2425 0.959 . S
C2440 H2426 0.961 . S
C2440 C2439 1.502 . S
C2441 H2427 0.960 . S
C2441 H2428 0.961 . S
C2441 H2429 0.959 . S
C2441 C2439 1.561 . S
C2442 C2439 1.526 . S
C2442 C2443 1.396 . S
C2442 C2447 1.390 . S
C2443 C2437 1.465 . S
C2443 C2442 1.396 . S
C2443 C2444 1.399 . S
C2444 H2430 0.929 . S
C2444 C2443 1.399 . S
C2444 C2445 1.385 . S
C2445 H2431 0.931 . S
C2445 C2444 1.385 . S
C2445 C2446 1.389 . S
C2446 C2445 1.389 . S
C2446 C2447 1.387 . S
C2447 H2432 0.930 . S
C2447 C2442 1.390 . S
C2447 C2446 1.387 . S
H2448 C2460 0.930 . S
H2449 C2462 0.930 . S
H2450 C2463 0.930 . S
H2451 C2467 0.959 . S
H2452 C2467 0.959 . S
H2453 C2467 0.961 . S
H2454 C2468 0.960 . S
H2455 C2468 0.961 . S
H2456 C2468 0.959 . S
H2457 C2471 0.929 . S
H2458 C2472 0.931 . S
H2459 C2474 0.930 . S
C2460 H2448 0.930 . S
C2460 C2461 1.399 . S
C2460 C2465 1.399 . S
C2461 C2460 1.399 . S
C2461 C2462 1.376 . S
C2462 H2449 0.930 . S
C2462 C2461 1.376 . S
C2462 C2463 1.388 . S
C2463 H2450 0.930 . S
C2463 C2462 1.388 . S
C2463 C2464 1.390 . S
C2464 C2463 1.390 . S
C2464 C2465 1.394 . S
C2464 C2470 1.465 . S
C2465 C2460 1.399 . S
C2465 C2464 1.394 . S
C2465 C2466 1.516 . S
C2466 C2465 1.516 . S
C2466 C2467 1.502 . S
C2466 C2468 1.561 . S
C2466 C2469 1.526 . S
C2467 H2451 0.959 . S
C2467 H2452 0.959 . S
C2467 H2453 0.961 . S
C2467 C2466 1.502 . S
C2468 H2454 0.960 . S
C2468 H2455 0.961 . S
C2468 H2456 0.959 . S
C2468 C2466 1.561 . S
C2469 C2466 1.526 . S
C2469 C2470 1.396 . S
C2469 C2474 1.390 . S
C2470 C2464 1.465 . S
C2470 C2469 1.396 . S
C2470 C2471 1.399 . S
C2471 H2457 0.929 . S
C2471 C2470 1.399 . S
C2471 C2472 1.385 . S
C2472 H2458 0.931 . S
C2472 C2471 1.385 . S
C2472 C2473 1.389 . S
C2473 C2472 1.389 . S
C2473 C2474 1.387 . S
C2474 H2459 0.930 . S
C2474 C2469 1.390 . S
C2474 C2473 1.387 . S
H2475 C2487 0.930 . S
H2476 C2489 0.930 . S
H2477 C2490 0.930 . S
H2478 C2494 0.959 . S
H2479 C2494 0.959 . S
H2480 C2494 0.961 . S
H2481 C2495 0.960 . S
H2482 C2495 0.961 . S
H2483 C2495 0.959 . S
H2484 C2498 0.929 . S
H2485 C2499 0.931 . S
H2486 C2501 0.930 . S
C2487 H2475 0.930 . S
C2487 C2488 1.399 . S
C2487 C2492 1.399 . S
C2488 C2487 1.399 . S
C2488 C2489 1.376 . S
C2489 H2476 0.930 . S
C2489 C2488 1.376 . S
C2489 C2490 1.388 . S
C2490 H2477 0.930 . S
C2490 C2489 1.388 . S
C2490 C2491 1.390 . S
C2491 C2490 1.390 . S
C2491 C2492 1.394 . S
C2491 C2497 1.465 . S
C2492 C2487 1.399 . S
C2492 C2491 1.394 . S
C2492 C2493 1.516 . S
C2493 C2492 1.516 . S
C2493 C2494 1.502 . S
C2493 C2495 1.561 . S
C2493 C2496 1.526 . S
C2494 H2478 0.959 . S
C2494 H2479 0.959 . S
C2494 H2480 0.961 . S
C2494 C2493 1.502 . S
C2495 H2481 0.960 . S
C2495 H2482 0.961 . S
C2495 H2483 0.959 . S
C2495 C2493 1.561 . S
C2496 C2493 1.526 . S
C2496 C2497 1.396 . S
C2496 C2501 1.390 . S
C2497 C2491 1.465 . S
C2497 C2496 1.396 . S
C2497 C2498 1.399 . S
C2498 H2484 0.929 . S
C2498 C2497 1.399 . S
C2498 C2499 1.385 . S
C2499 H2485 0.931 . S
C2499 C2498 1.385 . S
C2499 C2500 1.389 . S
C2500 C2499 1.389 . S
C2500 C2501 1.387 . S
C2501 H2486 0.930 . S
C2501 C2496 1.390 . S
C2501 C2500 1.387 . S
H2502 C2514 0.930 . S
H2503 C2516 0.930 . S
H2504 C2517 0.930 . S
H2505 C2521 0.959 . S
H2506 C2521 0.959 . S
H2507 C2521 0.961 . S
H2508 C2522 0.960 . S
H2509 C2522 0.961 . S
H2510 C2522 0.959 . S
H2511 C2525 0.929 . S
H2512 C2526 0.931 . S
H2513 C2528 0.930 . S
C2514 H2502 0.930 . S
C2514 C2515 1.399 . S
C2514 C2519 1.399 . S
C2515 C2514 1.399 . S
C2515 C2516 1.376 . S
C2516 H2503 0.930 . S
C2516 C2515 1.376 . S
C2516 C2517 1.388 . S
C2517 H2504 0.930 . S
C2517 C2516 1.388 . S
C2517 C2518 1.390 . S
C2518 C2517 1.390 . S
C2518 C2519 1.394 . S
C2518 C2524 1.465 . S
C2519 C2514 1.399 . S
C2519 C2518 1.394 . S
C2519 C2520 1.516 . S
C2520 C2519 1.516 . S
C2520 C2521 1.502 . S
C2520 C2522 1.561 . S
C2520 C2523 1.526 . S
C2521 H2505 0.959 . S
C2521 H2506 0.959 . S
C2521 H2507 0.961 . S
C2521 C2520 1.502 . S
C2522 H2508 0.960 . S
C2522 H2509 0.961 . S
C2522 H2510 0.959 . S
C2522 C2520 1.561 . S
C2523 C2520 1.526 . S
C2523 C2524 1.396 . S
C2523 C2528 1.390 . S
C2524 C2518 1.465 . S
C2524 C2523 1.396 . S
C2524 C2525 1.399 . S
C2525 H2511 0.929 . S
C2525 C2524 1.399 . S
C2525 C2526 1.385 . S
C2526 H2512 0.931 . S
C2526 C2525 1.385 . S
C2526 C2527 1.389 . S
C2527 C2526 1.389 . S
C2527 C2528 1.387 . S
C2528 H2513 0.930 . S
C2528 C2523 1.390 . S
C2528 C2527 1.387 . S
H2529 C2541 0.930 . S
H2530 C2543 0.930 . S
H2531 C2544 0.930 . S
H2532 C2548 0.959 . S
H2533 C2548 0.959 . S
H2534 C2548 0.961 . S
H2535 C2549 0.960 . S
H2536 C2549 0.961 . S
H2537 C2549 0.959 . S
H2538 C2552 0.929 . S
H2539 C2553 0.931 . S
H2540 C2555 0.930 . S
C2541 H2529 0.930 . S
C2541 C2542 1.399 . S
C2541 C2546 1.399 . S
C2542 C2541 1.399 . S
C2542 C2543 1.376 . S
C2543 H2530 0.930 . S
C2543 C2542 1.376 . S
C2543 C2544 1.388 . S
C2544 H2531 0.930 . S
C2544 C2543 1.388 . S
C2544 C2545 1.390 . S
C2545 C2544 1.390 . S
C2545 C2546 1.394 . S
C2545 C2551 1.465 . S
C2546 C2541 1.399 . S
C2546 C2545 1.394 . S
C2546 C2547 1.516 . S
C2547 C2546 1.516 . S
C2547 C2548 1.502 . S
C2547 C2549 1.561 . S
C2547 C2550 1.526 . S
C2548 H2532 0.959 . S
C2548 H2533 0.959 . S
C2548 H2534 0.961 . S
C2548 C2547 1.502 . S
C2549 H2535 0.960 . S
C2549 H2536 0.961 . S
C2549 H2537 0.959 . S
C2549 C2547 1.561 . S
C2550 C2547 1.526 . S
C2550 C2551 1.396 . S
C2550 C2555 1.390 . S
C2551 C2545 1.465 . S
C2551 C2550 1.396 . S
C2551 C2552 1.399 . S
C2552 H2538 0.929 . S
C2552 C2551 1.399 . S
C2552 C2553 1.385 . S
C2553 H2539 0.931 . S
C2553 C2552 1.385 . S
C2553 C2554 1.389 . S
C2554 C2553 1.389 . S
C2554 C2555 1.387 . S
C2555 H2540 0.930 . S
C2555 C2550 1.390 . S
C2555 C2554 1.387 . S
H2556 C2568 0.930 . S
H2557 C2570 0.930 . S
H2558 C2571 0.930 . S
H2559 C2575 0.959 . S
H2560 C2575 0.959 . S
H2561 C2575 0.961 . S
H2562 C2576 0.960 . S
H2563 C2576 0.961 . S
H2564 C2576 0.959 . S
H2565 C2579 0.929 . S
H2566 C2580 0.931 . S
H2567 C2582 0.930 . S
C2568 H2556 0.930 . S
C2568 C2569 1.399 . S
C2568 C2573 1.399 . S
C2569 C2568 1.399 . S
C2569 C2570 1.376 . S
C2570 H2557 0.930 . S
C2570 C2569 1.376 . S
C2570 C2571 1.388 . S
C2571 H2558 0.930 . S
C2571 C2570 1.388 . S
C2571 C2572 1.390 . S
C2572 C2571 1.390 . S
C2572 C2573 1.394 . S
C2572 C2578 1.465 . S
C2573 C2568 1.399 . S
C2573 C2572 1.394 . S
C2573 C2574 1.516 . S
C2574 C2573 1.516 . S
C2574 C2575 1.502 . S
C2574 C2576 1.561 . S
C2574 C2577 1.526 . S
C2575 H2559 0.959 . S
C2575 H2560 0.959 . S
C2575 H2561 0.961 . S
C2575 C2574 1.502 . S
C2576 H2562 0.960 . S
C2576 H2563 0.961 . S
C2576 H2564 0.959 . S
C2576 C2574 1.561 . S
C2577 C2574 1.526 . S
C2577 C2578 1.396 . S
C2577 C2582 1.390 . S
C2578 C2572 1.465 . S
C2578 C2577 1.396 . S
C2578 C2579 1.399 . S
C2579 H2565 0.929 . S
C2579 C2578 1.399 . S
C2579 C2580 1.385 . S
C2580 H2566 0.931 . S
C2580 C2579 1.385 . S
C2580 C2581 1.389 . S
C2581 C2580 1.389 . S
C2581 C2582 1.387 . S
C2582 H2567 0.930 . S
C2582 C2577 1.390 . S
C2582 C2581 1.387 . S
H2583 C2595 0.930 . S
H2584 C2597 0.930 . S
H2585 C2598 0.930 . S
H2586 C2602 0.959 . S
H2587 C2602 0.959 . S
H2588 C2602 0.961 . S
H2589 C2603 0.960 . S
H2590 C2603 0.961 . S
H2591 C2603 0.959 . S
H2592 C2606 0.929 . S
H2593 C2607 0.931 . S
H2594 C2609 0.930 . S
C2595 H2583 0.930 . S
C2595 C2596 1.399 . S
C2595 C2600 1.399 . S
C2596 C2595 1.399 . S
C2596 C2597 1.376 . S
C2597 H2584 0.930 . S
C2597 C2596 1.376 . S
C2597 C2598 1.388 . S
C2598 H2585 0.930 . S
C2598 C2597 1.388 . S
C2598 C2599 1.390 . S
C2599 C2598 1.390 . S
C2599 C2600 1.394 . S
C2599 C2605 1.465 . S
C2600 C2595 1.399 . S
C2600 C2599 1.394 . S
C2600 C2601 1.516 . S
C2601 C2600 1.516 . S
C2601 C2602 1.502 . S
C2601 C2603 1.561 . S
C2601 C2604 1.526 . S
C2602 H2586 0.959 . S
C2602 H2587 0.959 . S
C2602 H2588 0.961 . S
C2602 C2601 1.502 . S
C2603 H2589 0.960 . S
C2603 H2590 0.961 . S
C2603 H2591 0.959 . S
C2603 C2601 1.561 . S
C2604 C2601 1.526 . S
C2604 C2605 1.396 . S
C2604 C2609 1.390 . S
C2605 C2599 1.465 . S
C2605 C2604 1.396 . S
C2605 C2606 1.399 . S
C2606 H2592 0.929 . S
C2606 C2605 1.399 . S
C2606 C2607 1.385 . S
C2607 H2593 0.931 . S
C2607 C2606 1.385 . S
C2607 C2608 1.389 . S
C2608 C2607 1.389 . S
C2608 C2609 1.387 . S
C2609 H2594 0.930 . S
C2609 C2604 1.390 . S
C2609 C2608 1.387 . S
H2610 C2622 0.930 . S
H2611 C2624 0.930 . S
H2612 C2625 0.930 . S
H2613 C2629 0.959 . S
H2614 C2629 0.959 . S
H2615 C2629 0.961 . S
H2616 C2630 0.960 . S
H2617 C2630 0.961 . S
H2618 C2630 0.959 . S
H2619 C2633 0.929 . S
H2620 C2634 0.931 . S
H2621 C2636 0.930 . S
C2622 H2610 0.930 . S
C2622 C2623 1.399 . S
C2622 C2627 1.399 . S
C2623 C2622 1.399 . S
C2623 C2624 1.376 . S
C2624 H2611 0.930 . S
C2624 C2623 1.376 . S
C2624 C2625 1.388 . S
C2625 H2612 0.930 . S
C2625 C2624 1.388 . S
C2625 C2626 1.390 . S
C2626 C2625 1.390 . S
C2626 C2627 1.394 . S
C2626 C2632 1.465 . S
C2627 C2622 1.399 . S
C2627 C2626 1.394 . S
C2627 C2628 1.516 . S
C2628 C2627 1.516 . S
C2628 C2629 1.502 . S
C2628 C2630 1.561 . S
C2628 C2631 1.526 . S
C2629 H2613 0.959 . S
C2629 H2614 0.959 . S
C2629 H2615 0.961 . S
C2629 C2628 1.502 . S
C2630 H2616 0.960 . S
C2630 H2617 0.961 . S
C2630 H2618 0.959 . S
C2630 C2628 1.561 . S
C2631 C2628 1.526 . S
C2631 C2632 1.396 . S
C2631 C2636 1.390 . S
C2632 C2626 1.465 . S
C2632 C2631 1.396 . S
C2632 C2633 1.399 . S
C2633 H2619 0.929 . S
C2633 C2632 1.399 . S
C2633 C2634 1.385 . S
C2634 H2620 0.931 . S
C2634 C2633 1.385 . S
C2634 C2635 1.389 . S
C2635 C2634 1.389 . S
C2635 C2636 1.387 . S
C2636 H2621 0.930 . S
C2636 C2631 1.390 . S
C2636 C2635 1.387 . S
H2637 C2649 0.930 . S
H2638 C2651 0.930 . S
H2639 C2652 0.930 1_554 S
H2640 C2656 0.959 . S
H2641 C2656 0.959 . S
H2642 C2656 0.961 . S
H2643 C2657 0.960 . S
H2644 C2657 0.961 . S
H2645 C2657 0.959 . S
H2646 C2660 0.929 . S
H2647 C2661 0.931 . S
H2648 C2663 0.930 . S
C2649 H2637 0.930 . S
C2649 C2650 1.399 . S
C2649 C2654 1.399 . S
C2650 C2649 1.399 . S
C2650 C2651 1.376 1_556 S
C2651 H2638 0.930 . S
C2651 C2650 1.376 1_554 S
C2651 C2652 1.388 1_554 S
C2652 H2639 0.930 1_556 S
C2652 C2651 1.388 1_556 S
C2652 C2653 1.390 . S
C2653 C2652 1.390 . S
C2653 C2654 1.394 . S
C2653 C2659 1.465 . S
C2654 C2649 1.399 . S
C2654 C2653 1.394 . S
C2654 C2655 1.516 . S
C2655 C2654 1.516 . S
C2655 C2656 1.502 . S
C2655 C2657 1.561 . S
C2655 C2658 1.526 . S
C2656 H2640 0.959 . S
C2656 H2641 0.959 . S
C2656 H2642 0.961 . S
C2656 C2655 1.502 . S
C2657 H2643 0.960 . S
C2657 H2644 0.961 . S
C2657 H2645 0.959 . S
C2657 C2655 1.561 . S
C2658 C2655 1.526 . S
C2658 C2659 1.396 . S
C2658 C2663 1.390 . S
C2659 C2653 1.465 . S
C2659 C2658 1.396 . S
C2659 C2660 1.399 . S
C2660 H2646 0.929 . S
C2660 C2659 1.399 . S
C2660 C2661 1.385 . S
C2661 H2647 0.931 . S
C2661 C2660 1.385 . S
C2661 C2662 1.389 . S
C2662 C2661 1.389 . S
C2662 C2663 1.387 . S
C2663 H2648 0.930 . S
C2663 C2658 1.390 . S
C2663 C2662 1.387 . S
H2664 C2676 0.930 . S
H2665 C2678 0.930 . S
H2666 C2679 0.930 . S
H2667 C2683 0.959 . S
H2668 C2683 0.959 . S
H2669 C2683 0.961 . S
H2670 C2684 0.960 . S
H2671 C2684 0.961 . S
H2672 C2684 0.959 . S
H2673 C2687 0.929 . S
H2674 C2688 0.931 . S
H2675 C2690 0.930 . S
C2676 H2664 0.930 . S
C2676 C2677 1.399 . S
C2676 C2681 1.399 . S
C2677 C2676 1.399 . S
C2677 C2678 1.376 . S
C2678 H2665 0.930 . S
C2678 C2677 1.376 . S
C2678 C2679 1.388 . S
C2679 H2666 0.930 . S
C2679 C2678 1.388 . S
C2679 C2680 1.390 . S
C2680 C2679 1.390 . S
C2680 C2681 1.394 . S
C2680 C2686 1.465 . S
C2681 C2676 1.399 . S
C2681 C2680 1.394 . S
C2681 C2682 1.516 . S
C2682 C2681 1.516 . S
C2682 C2683 1.502 . S
C2682 C2684 1.561 . S
C2682 C2685 1.526 . S
C2683 H2667 0.959 . S
C2683 H2668 0.959 . S
C2683 H2669 0.961 . S
C2683 C2682 1.502 . S
C2684 H2670 0.960 . S
C2684 H2671 0.961 . S
C2684 H2672 0.959 . S
C2684 C2682 1.561 . S
C2685 C2682 1.526 . S
C2685 C2686 1.396 . S
C2685 C2690 1.390 . S
C2686 C2680 1.465 . S
C2686 C2685 1.396 . S
C2686 C2687 1.399 . S
C2687 H2673 0.929 . S
C2687 C2686 1.399 . S
C2687 C2688 1.385 . S
C2688 H2674 0.931 . S
C2688 C2687 1.385 . S
C2688 C2689 1.389 . S
C2689 C2688 1.389 . S
C2689 C2690 1.387 . S
C2690 H2675 0.930 . S
C2690 C2685 1.390 . S
C2690 C2689 1.387 . S
H2691 C2703 0.901 1_556 S
H2692 C2705 0.930 . S
H2693 C2706 0.930 . S
H2694 C2710 0.959 . S
H2695 C2710 0.959 . S
H2696 C2710 0.961 . S
H2697 C2711 0.960 . S
H2698 C2711 0.961 . S
H2699 C2711 0.959 . S
H2700 C2714 0.974 . S
H2701 C2715 0.931 . S
H2702 C2717 0.930 . S
C2703 H2691 0.901 1_554 S
C2703 C2704 1.399 . S
C2703 C2708 1.399 1_554 S
C2704 C2703 1.399 . S
C2704 C2705 1.376 . S
C2705 H2692 0.930 . S
C2705 C2704 1.376 . S
C2705 C2706 1.388 . S
C2706 H2693 0.930 . S
C2706 C2705 1.388 . S
C2706 C2707 1.390 . S
C2707 C2706 1.390 . S
C2707 C2708 1.394 1_554 S
C2707 C2713 1.465 1_554 S
C2708 C2703 1.399 1_556 S
C2708 C2707 1.394 1_556 S
C2708 C2709 1.516 . S
C2709 C2708 1.516 . S
C2709 C2710 1.502 . S
C2709 C2711 1.561 . S
C2709 C2712 1.526 . S
C2710 H2694 0.959 . S
C2710 H2695 0.959 . S
C2710 H2696 0.961 . S
C2710 C2709 1.502 . S
C2711 H2697 0.960 . S
C2711 H2698 0.961 . S
C2711 H2699 0.959 . S
C2711 C2709 1.561 . S
C2712 C2709 1.526 . S
C2712 C2713 1.396 . S
C2712 C2717 1.390 . S
C2713 C2707 1.465 1_556 S
C2713 C2712 1.396 . S
C2713 C2714 1.393 1_556 S
C2714 H2700 0.974 . S
C2714 C2713 1.393 1_554 S
C2714 C2715 1.347 1_554 S
C2715 H2701 0.931 . S
C2715 C2714 1.347 1_556 S
C2715 C2716 1.389 . S
C2716 C2715 1.389 . S
C2716 C2717 1.387 . S
C2717 H2702 0.930 . S
C2717 C2712 1.390 . S
C2717 C2716 1.387 . S
H2718 C2730 0.930 . S
H2719 C2732 0.930 . S
H2720 C2733 0.947 . S
H2721 C2737 0.959 . S
H2722 C2737 0.959 . S
H2723 C2737 0.961 . S
H2724 C2738 0.960 . S
H2725 C2738 0.961 . S
H2726 C2738 0.959 . S
H2727 C2741 0.929 . S
H2728 C2742 0.931 . S
H2729 C2744 0.930 . S
C2730 H2718 0.930 . S
C2730 C2731 1.399 . S
C2730 C2735 1.399 . S
C2731 C2730 1.399 . S
C2731 C2732 1.376 1_556 S
C2732 H2719 0.930 . S
C2732 C2731 1.376 1_554 S
C2732 C2733 1.402 . S
C2733 H2720 0.947 . S
C2733 C2732 1.402 . S
C2733 C2734 1.359 1_554 S
C2734 C2733 1.359 1_556 S
C2734 C2735 1.394 . S
C2734 C2740 1.465 . S
C2735 C2730 1.399 . S
C2735 C2734 1.394 . S
C2735 C2736 1.516 . S
C2736 C2735 1.516 . S
C2736 C2737 1.502 . S
C2736 C2738 1.561 . S
C2736 C2739 1.526 . S
C2737 H2721 0.959 . S
C2737 H2722 0.959 . S
C2737 H2723 0.961 . S
C2737 C2736 1.502 . S
C2738 H2724 0.960 . S
C2738 H2725 0.961 . S
C2738 H2726 0.959 . S
C2738 C2736 1.561 . S
C2739 C2736 1.526 . S
C2739 C2740 1.396 . S
C2739 C2744 1.390 . S
C2740 C2734 1.465 . S
C2740 C2739 1.396 . S
C2740 C2741 1.399 . S
C2741 H2727 0.929 . S
C2741 C2740 1.399 . S
C2741 C2742 1.385 . S
C2742 H2728 0.931 . S
C2742 C2741 1.385 . S
C2742 C2743 1.389 . S
C2743 C2742 1.389 . S
C2743 C2744 1.387 . S
C2744 H2729 0.930 . S
C2744 C2739 1.390 . S
C2744 C2743 1.387 . S
H2745 C2757 0.930 . S
H2746 C2759 0.930 . S
H2747 C2760 0.930 . S
H2748 C2764 0.959 . S
H2749 C2764 0.959 . S
H2750 C2764 0.961 . S
H2751 C2765 0.960 . S
H2752 C2765 0.961 . S
H2753 C2765 0.959 . S
H2754 C2768 0.929 . S
H2755 C2769 0.931 . S
H2756 C2771 0.930 . S
C2757 H2745 0.930 . S
C2757 C2758 1.399 . S
C2757 C2762 1.399 . S
C2758 C2757 1.399 . S
C2758 C2759 1.376 . S
C2759 H2746 0.930 . S
C2759 C2758 1.376 . S
C2759 C2760 1.388 . S
C2760 H2747 0.930 . S
C2760 C2759 1.388 . S
C2760 C2761 1.390 . S
C2761 C2760 1.390 . S
C2761 C2762 1.394 . S
C2761 C2767 1.465 . S
C2762 C2757 1.399 . S
C2762 C2761 1.394 . S
C2762 C2763 1.516 . S
C2763 C2762 1.516 . S
C2763 C2764 1.502 . S
C2763 C2765 1.561 . S
C2763 C2766 1.526 . S
C2764 H2748 0.959 . S
C2764 H2749 0.959 . S
C2764 H2750 0.961 . S
C2764 C2763 1.502 . S
C2765 H2751 0.960 . S
C2765 H2752 0.961 . S
C2765 H2753 0.959 . S
C2765 C2763 1.561 . S
C2766 C2763 1.526 . S
C2766 C2767 1.396 . S
C2766 C2771 1.390 . S
C2767 C2761 1.465 . S
C2767 C2766 1.396 . S
C2767 C2768 1.399 . S
C2768 H2754 0.929 . S
C2768 C2767 1.399 . S
C2768 C2769 1.385 . S
C2769 H2755 0.931 . S
C2769 C2768 1.385 . S
C2769 C2770 1.389 . S
C2770 C2769 1.389 . S
C2770 C2771 1.387 . S
C2771 H2756 0.930 . S
C2771 C2766 1.390 . S
C2771 C2770 1.387 . S
H2772 C2784 0.930 . S
H2773 C2786 0.930 . S
H2774 C2787 0.930 . S
H2775 C2791 0.959 . S
H2776 C2791 0.959 . S
H2777 C2791 0.961 . S
H2778 C2792 0.960 . S
H2779 C2792 0.961 . S
H2780 C2792 0.959 . S
H2781 C2795 0.956 . S
H2782 C2796 0.931 . S
H2783 C2798 0.930 . S
C2784 H2772 0.930 . S
C2784 C2785 1.399 1_556 S
C2784 C2789 1.399 . S
C2785 C2784 1.399 1_554 S
C2785 C2786 1.376 . S
C2786 H2773 0.930 . S
C2786 C2785 1.376 . S
C2786 C2787 1.388 . S
C2787 H2774 0.930 . S
C2787 C2786 1.388 . S
C2787 C2788 1.390 1_554 S
C2788 C2787 1.390 1_556 S
C2788 C2789 1.394 . S
C2788 C2794 1.465 . S
C2789 C2784 1.399 . S
C2789 C2788 1.394 . S
C2789 C2790 1.516 . S
C2790 C2789 1.516 . S
C2790 C2791 1.502 . S
C2790 C2792 1.561 . S
C2790 C2793 1.526 . S
C2791 H2775 0.959 . S
C2791 H2776 0.959 . S
C2791 H2777 0.961 . S
C2791 C2790 1.502 . S
C2792 H2778 0.960 . S
C2792 H2779 0.961 . S
C2792 H2780 0.959 . S
C2792 C2790 1.561 . S
C2793 C2790 1.526 . S
C2793 C2794 1.396 . S
C2793 C2798 1.390 . S
C2794 C2788 1.465 . S
C2794 C2793 1.396 . S
C2794 C2795 1.399 . S
C2795 H2781 0.956 . S
C2795 C2794 1.399 . S
C2795 C2796 1.385 . S
C2796 H2782 0.931 . S
C2796 C2795 1.385 . S
C2796 C2797 1.389 . S
C2797 C2796 1.389 . S
C2797 C2798 1.387 . S
C2798 H2783 0.930 . S
C2798 C2793 1.390 . S
C2798 C2797 1.387 . S
H2799 C2811 0.930 . S
H2800 C2813 0.930 . S
H2801 C2814 0.930 . S
H2802 C2818 0.959 . S
H2803 C2818 0.959 . S
H2804 C2818 0.961 . S
H2805 C2819 0.960 . S
H2806 C2819 0.961 . S
H2807 C2819 0.959 . S
H2808 C2822 0.929 . S
H2809 C2823 0.931 . S
H2810 C2825 0.930 . S
C2811 H2799 0.930 . S
C2811 C2812 1.399 . S
C2811 C2816 1.399 . S
C2812 C2811 1.399 . S
C2812 C2813 1.376 . S
C2813 H2800 0.930 . S
C2813 C2812 1.376 . S
C2813 C2814 1.388 . S
C2814 H2801 0.930 . S
C2814 C2813 1.388 . S
C2814 C2815 1.390 . S
C2815 C2814 1.390 . S
C2815 C2816 1.394 . S
C2815 C2821 1.465 . S
C2816 C2811 1.399 . S
C2816 C2815 1.394 . S
C2816 C2817 1.516 . S
C2817 C2816 1.516 . S
C2817 C2818 1.502 . S
C2817 C2819 1.561 . S
C2817 C2820 1.526 . S
C2818 H2802 0.959 . S
C2818 H2803 0.959 . S
C2818 H2804 0.961 . S
C2818 C2817 1.502 . S
C2819 H2805 0.960 . S
C2819 H2806 0.961 . S
C2819 H2807 0.959 . S
C2819 C2817 1.561 . S
C2820 C2817 1.526 . S
C2820 C2821 1.396 . S
C2820 C2825 1.390 . S
C2821 C2815 1.465 . S
C2821 C2820 1.396 . S
C2821 C2822 1.399 . S
C2822 H2808 0.929 . S
C2822 C2821 1.399 . S
C2822 C2823 1.385 . S
C2823 H2809 0.931 . S
C2823 C2822 1.385 . S
C2823 C2824 1.389 . S
C2824 C2823 1.389 . S
C2824 C2825 1.387 . S
C2825 H2810 0.930 . S
C2825 C2820 1.390 . S
C2825 C2824 1.387 . S
H2826 C2838 0.930 . S
H2827 C2840 0.930 . S
H2828 C2841 0.930 . S
H2829 C2845 0.959 . S
H2830 C2845 0.959 . S
H2831 C2845 0.961 . S
H2832 C2846 0.960 . S
H2833 C2846 0.961 . S
H2834 C2846 0.959 . S
H2835 C2849 0.929 . S
H2836 C2850 0.931 . S
H2837 C2852 0.930 . S
C2838 H2826 0.930 . S
C2838 C2839 1.399 . S
C2838 C2843 1.399 . S
C2839 C2838 1.399 . S
C2839 C2840 1.376 . S
C2840 H2827 0.930 . S
C2840 C2839 1.376 . S
C2840 C2841 1.388 . S
C2841 H2828 0.930 . S
C2841 C2840 1.388 . S
C2841 C2842 1.390 . S
C2842 C2841 1.390 . S
C2842 C2843 1.394 . S
C2842 C2848 1.465 . S
C2843 C2838 1.399 . S
C2843 C2842 1.394 . S
C2843 C2844 1.516 . S
C2844 C2843 1.516 . S
C2844 C2845 1.502 . S
C2844 C2846 1.561 . S
C2844 C2847 1.526 . S
C2845 H2829 0.959 . S
C2845 H2830 0.959 . S
C2845 H2831 0.961 . S
C2845 C2844 1.502 . S
C2846 H2832 0.960 . S
C2846 H2833 0.961 . S
C2846 H2834 0.959 . S
C2846 C2844 1.561 . S
C2847 C2844 1.526 . S
C2847 C2848 1.396 . S
C2847 C2852 1.390 . S
C2848 C2842 1.465 . S
C2848 C2847 1.396 . S
C2848 C2849 1.399 . S
C2849 H2835 0.929 . S
C2849 C2848 1.399 . S
C2849 C2850 1.385 . S
C2850 H2836 0.931 . S
C2850 C2849 1.385 . S
C2850 C2851 1.389 . S
C2851 C2850 1.389 . S
C2851 C2852 1.387 . S
C2852 H2837 0.930 . S
C2852 C2847 1.390 . S
C2852 C2851 1.387 . S
H2853 C2865 0.930 . S
H2854 C2867 0.930 . S
H2855 C2868 0.930 . S
H2856 C2872 0.959 . S
H2857 C2872 0.959 . S
H2858 C2872 0.961 . S
H2859 C2873 0.960 . S
H2860 C2873 0.961 . S
H2861 C2873 0.959 . S
H2862 C2876 0.929 . S
H2863 C2877 0.931 . S
H2864 C2879 0.930 . S
C2865 H2853 0.930 . S
C2865 C2866 1.399 . S
C2865 C2870 1.399 . S
C2866 C2865 1.399 . S
C2866 C2867 1.376 . S
C2867 H2854 0.930 . S
C2867 C2866 1.376 . S
C2867 C2868 1.388 . S
C2868 H2855 0.930 . S
C2868 C2867 1.388 . S
C2868 C2869 1.390 . S
C2869 C2868 1.390 . S
C2869 C2870 1.394 . S
C2869 C2875 1.465 . S
C2870 C2865 1.399 . S
C2870 C2869 1.394 . S
C2870 C2871 1.516 . S
C2871 C2870 1.516 . S
C2871 C2872 1.502 . S
C2871 C2873 1.561 . S
C2871 C2874 1.526 . S
C2872 H2856 0.959 . S
C2872 H2857 0.959 . S
C2872 H2858 0.961 . S
C2872 C2871 1.502 . S
C2873 H2859 0.960 . S
C2873 H2860 0.961 . S
C2873 H2861 0.959 . S
C2873 C2871 1.561 . S
C2874 C2871 1.526 . S
C2874 C2875 1.396 . S
C2874 C2879 1.390 . S
C2875 C2869 1.465 . S
C2875 C2874 1.396 . S
C2875 C2876 1.399 . S
C2876 H2862 0.929 . S
C2876 C2875 1.399 . S
C2876 C2877 1.385 . S
C2877 H2863 0.931 . S
C2877 C2876 1.385 . S
C2877 C2878 1.389 . S
C2878 C2877 1.389 . S
C2878 C2879 1.387 . S
C2879 H2864 0.930 . S
C2879 C2874 1.390 . S
C2879 C2878 1.387 . S
H2880 C2892 0.930 . S
H2881 C2894 0.930 . S
H2882 C2895 0.930 . S
H2883 C2899 0.959 . S
H2884 C2899 0.959 . S
H2885 C2899 0.961 . S
H2886 C2900 0.960 . S
H2887 C2900 0.961 . S
H2888 C2900 0.959 . S
H2889 C2903 0.929 . S
H2890 C2904 0.931 . S
H2891 C2906 0.930 . S
C2892 H2880 0.930 . S
C2892 C2893 1.399 . S
C2892 C2897 1.399 . S
C2893 C2892 1.399 . S
C2893 C2894 1.376 . S
C2894 H2881 0.930 . S
C2894 C2893 1.376 . S
C2894 C2895 1.388 . S
C2895 H2882 0.930 . S
C2895 C2894 1.388 . S
C2895 C2896 1.390 . S
C2896 C2895 1.390 . S
C2896 C2897 1.394 . S
C2896 C2902 1.465 . S
C2897 C2892 1.399 . S
C2897 C2896 1.394 . S
C2897 C2898 1.516 . S
C2898 C2897 1.516 . S
C2898 C2899 1.502 . S
C2898 C2900 1.561 . S
C2898 C2901 1.526 . S
C2899 H2883 0.959 . S
C2899 H2884 0.959 . S
C2899 H2885 0.961 . S
C2899 C2898 1.502 . S
C2900 H2886 0.960 . S
C2900 H2887 0.961 . S
C2900 H2888 0.959 . S
C2900 C2898 1.561 . S
C2901 C2898 1.526 . S
C2901 C2902 1.396 . S
C2901 C2906 1.390 . S
C2902 C2896 1.465 . S
C2902 C2901 1.396 . S
C2902 C2903 1.399 . S
C2903 H2889 0.929 . S
C2903 C2902 1.399 . S
C2903 C2904 1.385 . S
C2904 H2890 0.931 . S
C2904 C2903 1.385 . S
C2904 C2905 1.389 . S
C2905 C2904 1.389 . S
C2905 C2906 1.387 . S
C2906 H2891 0.930 . S
C2906 C2901 1.390 . S
C2906 C2905 1.387 . S
H2907 C2919 0.930 . S
H2908 C2921 0.930 . S
H2909 C2922 0.930 . S
H2910 C2926 0.959 . S
H2911 C2926 0.959 . S
H2912 C2926 0.961 . S
H2913 C2927 0.960 . S
H2914 C2927 0.961 . S
H2915 C2927 0.959 . S
H2916 C2930 0.929 . S
H2917 C2931 0.931 . S
H2918 C2933 0.930 . S
C2919 H2907 0.930 . S
C2919 C2920 1.399 . S
C2919 C2924 1.399 . S
C2920 C2919 1.399 . S
C2920 C2921 1.376 . S
C2921 H2908 0.930 . S
C2921 C2920 1.376 . S
C2921 C2922 1.388 . S
C2922 H2909 0.930 . S
C2922 C2921 1.388 . S
C2922 C2923 1.390 . S
C2923 C2922 1.390 . S
C2923 C2924 1.394 . S
C2923 C2929 1.465 . S
C2924 C2919 1.399 . S
C2924 C2923 1.394 . S
C2924 C2925 1.516 . S
C2925 C2924 1.516 . S
C2925 C2926 1.502 . S
C2925 C2927 1.561 . S
C2925 C2928 1.526 . S
C2926 H2910 0.959 . S
C2926 H2911 0.959 . S
C2926 H2912 0.961 . S
C2926 C2925 1.502 . S
C2927 H2913 0.960 . S
C2927 H2914 0.961 . S
C2927 H2915 0.959 . S
C2927 C2925 1.561 . S
C2928 C2925 1.526 . S
C2928 C2929 1.396 . S
C2928 C2933 1.390 . S
C2929 C2923 1.465 . S
C2929 C2928 1.396 . S
C2929 C2930 1.399 . S
C2930 H2916 0.929 . S
C2930 C2929 1.399 . S
C2930 C2931 1.385 . S
C2931 H2917 0.931 . S
C2931 C2930 1.385 . S
C2931 C2932 1.389 . S
C2932 C2931 1.389 . S
C2932 C2933 1.387 . S
C2933 H2918 0.930 . S
C2933 C2928 1.390 . S
C2933 C2932 1.387 . S
H2934 C2946 0.930 . S
H2935 C2948 0.930 . S
H2936 C2949 0.930 . S
H2937 C2953 0.959 . S
H2938 C2953 0.959 . S
H2939 C2953 0.961 . S
H2940 C2954 0.960 . S
H2941 C2954 0.961 . S
H2942 C2954 0.959 . S
H2943 C2957 0.929 . S
H2944 C2958 0.931 . S
H2945 C2960 0.930 . S
C2946 H2934 0.930 . S
C2946 C2947 1.399 . S
C2946 C2951 1.399 . S
C2947 C2946 1.399 . S
C2947 C2948 1.376 . S
C2948 H2935 0.930 . S
C2948 C2947 1.376 . S
C2948 C2949 1.388 . S
C2949 H2936 0.930 . S
C2949 C2948 1.388 . S
C2949 C2950 1.390 . S
C2950 C2949 1.390 . S
C2950 C2951 1.394 . S
C2950 C2956 1.465 . S
C2951 C2946 1.399 . S
C2951 C2950 1.394 . S
C2951 C2952 1.516 . S
C2952 C2951 1.516 . S
C2952 C2953 1.502 . S
C2952 C2954 1.561 . S
C2952 C2955 1.526 . S
C2953 H2937 0.959 . S
C2953 H2938 0.959 . S
C2953 H2939 0.961 . S
C2953 C2952 1.502 . S
C2954 H2940 0.960 . S
C2954 H2941 0.961 . S
C2954 H2942 0.959 . S
C2954 C2952 1.561 . S
C2955 C2952 1.526 . S
C2955 C2956 1.396 . S
C2955 C2960 1.390 . S
C2956 C2950 1.465 . S
C2956 C2955 1.396 . S
C2956 C2957 1.399 . S
C2957 H2943 0.929 . S
C2957 C2956 1.399 . S
C2957 C2958 1.385 . S
C2958 H2944 0.931 . S
C2958 C2957 1.385 . S
C2958 C2959 1.389 . S
C2959 C2958 1.389 . S
C2959 C2960 1.387 . S
C2960 H2945 0.930 . S
C2960 C2955 1.390 . S
C2960 C2959 1.387 . S
H2961 C2973 0.930 . S
H2962 C2975 0.930 . S
H2963 C2976 0.930 . S
H2964 C2980 0.959 . S
H2965 C2980 0.959 . S
H2966 C2980 0.961 . S
H2967 C2981 0.960 . S
H2968 C2981 0.961 . S
H2969 C2981 0.959 . S
H2970 C2984 0.929 . S
H2971 C2985 0.931 . S
H2972 C2987 0.930 . S
C2973 H2961 0.930 . S
C2973 C2974 1.399 . S
C2973 C2978 1.399 . S
C2974 C2973 1.399 . S
C2974 C2975 1.376 . S
C2975 H2962 0.930 . S
C2975 C2974 1.376 . S
C2975 C2976 1.388 . S
C2976 H2963 0.930 . S
C2976 C2975 1.388 . S
C2976 C2977 1.390 . S
C2977 C2976 1.390 . S
C2977 C2978 1.394 . S
C2977 C2983 1.465 . S
C2978 C2973 1.399 . S
C2978 C2977 1.394 . S
C2978 C2979 1.516 . S
C2979 C2978 1.516 . S
C2979 C2980 1.502 . S
C2979 C2981 1.561 . S
C2979 C2982 1.526 . S
C2980 H2964 0.959 . S
C2980 H2965 0.959 . S
C2980 H2966 0.961 . S
C2980 C2979 1.502 . S
C2981 H2967 0.960 . S
C2981 H2968 0.961 . S
C2981 H2969 0.959 . S
C2981 C2979 1.561 . S
C2982 C2979 1.526 . S
C2982 C2983 1.396 . S
C2982 C2987 1.390 . S
C2983 C2977 1.465 . S
C2983 C2982 1.396 . S
C2983 C2984 1.399 . S
C2984 H2970 0.929 . S
C2984 C2983 1.399 . S
C2984 C2985 1.385 . S
C2985 H2971 0.931 . S
C2985 C2984 1.385 . S
C2985 C2986 1.389 . S
C2986 C2985 1.389 . S
C2986 C2987 1.387 . S
C2987 H2972 0.930 . S
C2987 C2982 1.390 . S
C2987 C2986 1.387 . S
H2988 C3000 0.930 . S
H2989 C3002 0.930 . S
H2990 C3003 0.930 . S
H2991 C3007 0.959 . S
H2992 C3007 0.959 . S
H2993 C3007 0.961 . S
H2994 C3008 0.960 . S
H2995 C3008 0.961 . S
H2996 C3008 0.959 . S
H2997 C3011 0.929 . S
H2998 C3012 0.931 . S
H2999 C3014 0.930 . S
C3000 H2988 0.930 . S
C3000 C3001 1.399 . S
C3000 C3005 1.399 . S
C3001 C3000 1.399 . S
C3001 C3002 1.376 . S
C3002 H2989 0.930 . S
C3002 C3001 1.376 . S
C3002 C3003 1.388 . S
C3003 H2990 0.930 . S
C3003 C3002 1.388 . S
C3003 C3004 1.390 . S
C3004 C3003 1.390 . S
C3004 C3005 1.394 . S
C3004 C3010 1.465 . S
C3005 C3000 1.399 . S
C3005 C3004 1.394 . S
C3005 C3006 1.516 . S
C3006 C3005 1.516 . S
C3006 C3007 1.502 . S
C3006 C3008 1.561 . S
C3006 C3009 1.526 . S
C3007 H2991 0.959 . S
C3007 H2992 0.959 . S
C3007 H2993 0.961 . S
C3007 C3006 1.502 . S
C3008 H2994 0.960 . S
C3008 H2995 0.961 . S
C3008 H2996 0.959 . S
C3008 C3006 1.561 . S
C3009 C3006 1.526 . S
C3009 C3010 1.396 . S
C3009 C3014 1.390 . S
C3010 C3004 1.465 . S
C3010 C3009 1.396 . S
C3010 C3011 1.399 . S
C3011 H2997 0.929 . S
C3011 C3010 1.399 . S
C3011 C3012 1.385 . S
C3012 H2998 0.931 . S
C3012 C3011 1.385 . S
C3012 C3013 1.389 . S
C3013 C3012 1.389 . S
C3013 C3014 1.387 . S
C3014 H2999 0.930 . S
C3014 C3009 1.390 . S
C3014 C3013 1.387 . S
H3015 C3027 0.930 . S
H3016 C3029 0.948 . S
H3017 C3030 0.930 1_545 S
H3018 C3034 0.959 . S
H3019 C3034 0.959 . S
H3020 C3034 0.961 . S
H3021 C3035 0.960 . S
H3022 C3035 0.961 . S
H3023 C3035 0.959 . S
H3024 C3038 0.929 . S
H3025 C3039 0.964 . S
H3026 C3041 0.930 . S
C3027 H3015 0.930 . S
C3027 C3028 1.399 . S
C3027 C3032 1.399 . S
C3028 C3027 1.399 . S
C3028 C3029 1.376 . S
C3029 H3016 0.948 . S
C3029 C3028 1.376 . S
C3029 C3030 1.388 . S
C3030 H3017 0.930 1_565 S
C3030 C3029 1.388 . S
C3030 C3031 1.390 . S
C3031 C3030 1.390 . S
C3031 C3032 1.394 . S
C3031 C3037 1.465 . S
C3032 C3027 1.399 . S
C3032 C3031 1.394 . S
C3032 C3033 1.516 . S
C3033 C3032 1.516 . S
C3033 C3034 1.502 . S
C3033 C3035 1.561 . S
C3033 C3036 1.526 . S
C3034 H3018 0.959 . S
C3034 H3019 0.959 . S
C3034 H3020 0.961 . S
C3034 C3033 1.502 . S
C3035 H3021 0.960 . S
C3035 H3022 0.961 . S
C3035 H3023 0.959 . S
C3035 C3033 1.561 . S
C3036 C3033 1.526 . S
C3036 C3037 1.396 . S
C3036 C3041 1.390 . S
C3037 C3031 1.465 . S
C3037 C3036 1.396 . S
C3037 C3038 1.399 1_565 S
C3038 H3024 0.929 . S
C3038 C3037 1.399 1_545 S
C3038 C3039 1.414 . S
C3039 H3025 0.964 . S
C3039 C3038 1.414 . S
C3039 C3040 1.330 1_545 S
C3040 C3039 1.330 1_565 S
C3040 C3041 1.387 . S
C3041 H3026 0.930 . S
C3041 C3036 1.390 . S
C3041 C3040 1.387 . S
H3042 C3054 0.930 . S
H3043 C3056 0.930 1_545 S
H3044 C3057 0.930 . S
H3045 C3061 0.959 . S
H3046 C3061 0.959 . S
H3047 C3061 0.961 . S
H3048 C3062 0.960 . S
H3049 C3062 0.961 . S
H3050 C3062 0.959 . S
H3051 C3065 0.929 . S
H3052 C3066 0.931 . S
H3053 C3068 0.930 . S
C3054 H3042 0.930 . S
C3054 C3055 1.399 . S
C3054 C3059 1.399 . S
C3055 C3054 1.399 . S
C3055 C3056 1.376 . S
C3056 H3043 0.930 1_565 S
C3056 C3055 1.376 . S
C3056 C3057 1.388 1_565 S
C3057 H3044 0.930 . S
C3057 C3056 1.388 1_545 S
C3057 C3058 1.390 1_545 S
C3058 C3057 1.390 1_565 S
C3058 C3059 1.394 . S
C3058 C3064 1.501 . S
C3059 C3054 1.399 . S
C3059 C3058 1.394 . S
C3059 C3060 1.516 . S
C3060 C3059 1.516 . S
C3060 C3061 1.502 . S
C3060 C3062 1.561 . S
C3060 C3063 1.526 . S
C3061 H3045 0.959 . S
C3061 H3046 0.959 . S
C3061 H3047 0.961 . S
C3061 C3060 1.502 . S
C3062 H3048 0.960 . S
C3062 H3049 0.961 . S
C3062 H3050 0.959 . S
C3062 C3060 1.561 . S
C3063 C3060 1.526 . S
C3063 C3064 1.430 . S
C3063 C3068 1.390 . S
C3064 C3058 1.501 . S
C3064 C3063 1.430 . S
C3064 C3065 1.340 1_565 S
C3065 H3051 0.929 . S
C3065 C3064 1.340 1_545 S
C3065 C3066 1.385 . S
C3066 H3052 0.931 . S
C3066 C3065 1.385 . S
C3066 C3067 1.389 . S
C3067 C3066 1.389 . S
C3067 C3068 1.387 1_545 S
C3068 H3053 0.930 . S
C3068 C3063 1.390 . S
C3068 C3067 1.387 1_565 S
H3069 C3081 0.930 . S
H3070 C3083 0.930 . S
H3071 C3084 0.930 . S
H3072 C3088 0.959 . S
H3073 C3088 0.959 . S
H3074 C3088 0.961 . S
H3075 C3089 0.960 . S
H3076 C3089 0.961 . S
H3077 C3089 0.959 . S
H3078 C3092 0.929 . S
H3079 C3093 0.931 . S
H3080 C3095 0.930 1_655 S
C3081 H3069 0.930 . S
C3081 C3082 1.399 . S
C3081 C3086 1.399 . S
C3082 C3081 1.399 . S
C3082 C3083 1.376 . S
C3083 H3070 0.930 . S
C3083 C3082 1.376 . S
C3083 C3084 1.388 . S
C3084 H3071 0.930 . S
C3084 C3083 1.388 . S
C3084 C3085 1.390 . S
C3085 C3084 1.390 . S
C3085 C3086 1.394 . S
C3085 C3091 1.465 . S
C3086 C3081 1.399 . S
C3086 C3085 1.394 . S
C3086 C3087 1.516 . S
C3087 C3086 1.516 . S
C3087 C3088 1.502 1_455 S
C3087 C3089 1.561 . S
C3087 C3090 1.526 . S
C3088 H3072 0.959 . S
C3088 H3073 0.959 . S
C3088 H3074 0.961 . S
C3088 C3087 1.502 1_655 S
C3089 H3075 0.960 . S
C3089 H3076 0.961 . S
C3089 H3077 0.959 . S
C3089 C3087 1.561 . S
C3090 C3087 1.526 . S
C3090 C3091 1.396 . S
C3090 C3095 1.390 . S
C3091 C3085 1.465 . S
C3091 C3090 1.396 . S
C3091 C3092 1.399 . S
C3092 H3078 0.929 . S
C3092 C3091 1.399 . S
C3092 C3093 1.385 . S
C3093 H3079 0.931 . S
C3093 C3092 1.385 . S
C3093 C3094 1.375 1_455 S
C3094 C3093 1.375 1_655 S
C3094 C3095 1.410 1_655 S
C3095 H3080 0.930 1_455 S
C3095 C3090 1.390 . S
C3095 C3094 1.410 1_455 S
H3096 C3108 0.930 . S
H3097 C3110 0.930 . S
H3098 C3111 0.930 . S
H3099 C3115 0.959 . S
H3100 C3115 0.959 . S
H3101 C3115 0.961 . S
H3102 C3116 0.960 . S
H3103 C3116 0.961 . S
H3104 C3116 0.959 . S
H3105 C3119 0.929 . S
H3106 C3120 0.931 . S
H3107 C3122 0.930 . S
C3108 H3096 0.930 . S
C3108 C3109 1.399 . S
C3108 C3113 1.399 . S
C3109 C3108 1.399 . S
C3109 C3110 1.376 . S
C3110 H3097 0.930 . S
C3110 C3109 1.376 . S
C3110 C3111 1.388 . S
C3111 H3098 0.930 . S
C3111 C3110 1.388 . S
C3111 C3112 1.390 . S
C3112 C3111 1.390 . S
C3112 C3113 1.394 . S
C3112 C3118 1.465 . S
C3113 C3108 1.399 . S
C3113 C3112 1.394 . S
C3113 C3114 1.516 . S
C3114 C3113 1.516 . S
C3114 C3115 1.502 . S
C3114 C3116 1.561 . S
C3114 C3117 1.526 . S
C3115 H3099 0.959 . S
C3115 H3100 0.959 . S
C3115 H3101 0.961 . S
C3115 C3114 1.502 . S
C3116 H3102 0.960 . S
C3116 H3103 0.961 . S
C3116 H3104 0.959 . S
C3116 C3114 1.561 . S
C3117 C3114 1.526 . S
C3117 C3118 1.396 . S
C3117 C3122 1.390 . S
C3118 C3112 1.465 . S
C3118 C3117 1.396 . S
C3118 C3119 1.399 . S
C3119 H3105 0.929 . S
C3119 C3118 1.399 . S
C3119 C3120 1.385 . S
C3120 H3106 0.931 . S
C3120 C3119 1.385 . S
C3120 C3121 1.389 . S
C3121 C3120 1.389 . S
C3121 C3122 1.387 . S
C3122 H3107 0.930 . S
C3122 C3117 1.390 . S
C3122 C3121 1.387 . S
H3123 C3135 0.930 . S
H3124 C3137 0.930 . S
H3125 C3138 0.930 . S
H3126 C3142 0.959 . S
H3127 C3142 0.959 . S
H3128 C3142 0.961 . S
H3129 C3143 0.960 . S
H3130 C3143 0.961 . S
H3131 C3143 0.959 . S
H3132 C3146 0.929 . S
H3133 C3147 0.931 . S
H3134 C3149 0.930 . S
C3135 H3123 0.930 . S
C3135 C3136 1.399 . S
C3135 C3140 1.399 . S
C3136 C3135 1.399 . S
C3136 C3137 1.376 . S
C3137 H3124 0.930 . S
C3137 C3136 1.376 . S
C3137 C3138 1.388 . S
C3138 H3125 0.930 . S
C3138 C3137 1.388 . S
C3138 C3139 1.390 . S
C3139 C3138 1.390 . S
C3139 C3140 1.394 . S
C3139 C3145 1.465 . S
C3140 C3135 1.399 . S
C3140 C3139 1.394 . S
C3140 C3141 1.516 . S
C3141 C3140 1.516 . S
C3141 C3142 1.502 . S
C3141 C3143 1.561 . S
C3141 C3144 1.526 . S
C3142 H3126 0.959 . S
C3142 H3127 0.959 . S
C3142 H3128 0.961 . S
C3142 C3141 1.502 . S
C3143 H3129 0.960 . S
C3143 H3130 0.961 . S
C3143 H3131 0.959 . S
C3143 C3141 1.561 . S
C3144 C3141 1.526 . S
C3144 C3145 1.396 . S
C3144 C3149 1.390 . S
C3145 C3139 1.465 . S
C3145 C3144 1.396 . S
C3145 C3146 1.399 . S
C3146 H3132 0.929 . S
C3146 C3145 1.399 . S
C3146 C3147 1.385 . S
C3147 H3133 0.931 . S
C3147 C3146 1.385 . S
C3147 C3148 1.389 . S
C3148 C3147 1.389 . S
C3148 C3149 1.387 . S
C3149 H3134 0.930 . S
C3149 C3144 1.390 . S
C3149 C3148 1.387 . S
H3150 C3162 0.930 . S
H3151 C3164 0.930 . S
H3152 C3165 0.930 . S
H3153 C3169 0.959 . S
H3154 C3169 0.959 . S
H3155 C3169 0.961 . S
H3156 C3170 0.960 . S
H3157 C3170 0.961 . S
H3158 C3170 0.959 . S
H3159 C3173 0.929 . S
H3160 C3174 0.931 . S
H3161 C3176 0.930 . S
C3162 H3150 0.930 . S
C3162 C3163 1.399 . S
C3162 C3167 1.399 . S
C3163 C3162 1.399 . S
C3163 C3164 1.376 . S
C3164 H3151 0.930 . S
C3164 C3163 1.376 . S
C3164 C3165 1.388 . S
C3165 H3152 0.930 . S
C3165 C3164 1.388 . S
C3165 C3166 1.390 . S
C3166 C3165 1.390 . S
C3166 C3167 1.394 . S
C3166 C3172 1.465 . S
C3167 C3162 1.399 . S
C3167 C3166 1.394 . S
C3167 C3168 1.516 . S
C3168 C3167 1.516 . S
C3168 C3169 1.502 . S
C3168 C3170 1.561 . S
C3168 C3171 1.526 . S
C3169 H3153 0.959 . S
C3169 H3154 0.959 . S
C3169 H3155 0.961 . S
C3169 C3168 1.502 . S
C3170 H3156 0.960 . S
C3170 H3157 0.961 . S
C3170 H3158 0.959 . S
C3170 C3168 1.561 . S
C3171 C3168 1.526 . S
C3171 C3172 1.396 . S
C3171 C3176 1.390 . S
C3172 C3166 1.465 . S
C3172 C3171 1.396 . S
C3172 C3173 1.399 . S
C3173 H3159 0.929 . S
C3173 C3172 1.399 . S
C3173 C3174 1.385 . S
C3174 H3160 0.931 . S
C3174 C3173 1.385 . S
C3174 C3175 1.389 . S
C3175 C3174 1.389 . S
C3175 C3176 1.387 . S
C3176 H3161 0.930 . S
C3176 C3171 1.390 . S
C3176 C3175 1.387 . S
H3177 C3189 0.930 . S
H3178 C3191 0.930 . S
H3179 C3192 0.930 . S
H3180 C3196 0.959 . S
H3181 C3196 0.959 . S
H3182 C3196 0.961 . S
H3183 C3197 0.960 . S
H3184 C3197 0.961 . S
H3185 C3197 0.959 . S
H3186 C3200 0.929 . S
H3187 C3201 0.931 . S
H3188 C3203 0.930 . S
C3189 H3177 0.930 . S
C3189 C3190 1.399 . S
C3189 C3194 1.399 . S
C3190 C3189 1.399 . S
C3190 C3191 1.376 . S
C3191 H3178 0.930 . S
C3191 C3190 1.376 . S
C3191 C3192 1.388 . S
C3192 H3179 0.930 . S
C3192 C3191 1.388 . S
C3192 C3193 1.390 . S
C3193 C3192 1.390 . S
C3193 C3194 1.394 . S
C3193 C3199 1.465 . S
C3194 C3189 1.399 . S
C3194 C3193 1.394 . S
C3194 C3195 1.516 . S
C3195 C3194 1.516 . S
C3195 C3196 1.502 . S
C3195 C3197 1.561 . S
C3195 C3198 1.526 . S
C3196 H3180 0.959 . S
C3196 H3181 0.959 . S
C3196 H3182 0.961 . S
C3196 C3195 1.502 . S
C3197 H3183 0.960 . S
C3197 H3184 0.961 . S
C3197 H3185 0.959 . S
C3197 C3195 1.561 . S
C3198 C3195 1.526 . S
C3198 C3199 1.396 . S
C3198 C3203 1.390 . S
C3199 C3193 1.465 . S
C3199 C3198 1.396 . S
C3199 C3200 1.399 . S
C3200 H3186 0.929 . S
C3200 C3199 1.399 . S
C3200 C3201 1.385 . S
C3201 H3187 0.931 . S
C3201 C3200 1.385 . S
C3201 C3202 1.389 . S
C3202 C3201 1.389 . S
C3202 C3203 1.387 . S
C3203 H3188 0.930 . S
C3203 C3198 1.390 . S
C3203 C3202 1.387 . S
H3204 C3216 0.930 . S
H3205 C3218 0.930 1_565 S
H3206 C3219 0.930 . S
H3207 C3223 0.959 . S
H3208 C3223 0.959 . S
H3209 C3223 0.961 . S
H3210 C3224 0.960 . S
H3211 C3224 0.961 . S
H3212 C3224 0.959 . S
H3213 C3227 0.929 . S
H3214 C3228 0.931 . S
H3215 C3230 0.930 . S
C3216 H3204 0.930 . S
C3216 C3217 1.399 . S
C3216 C3221 1.399 . S
C3217 C3216 1.399 . S
C3217 C3218 1.376 . S
C3218 H3205 0.930 1_545 S
C3218 C3217 1.376 . S
C3218 C3219 1.388 1_545 S
C3219 H3206 0.930 . S
C3219 C3218 1.388 1_565 S
C3219 C3220 1.390 1_565 S
C3220 C3219 1.390 1_545 S
C3220 C3221 1.394 . S
C3220 C3226 1.465 . S
C3221 C3216 1.399 . S
C3221 C3220 1.394 . S
C3221 C3222 1.516 . S
C3222 C3221 1.516 . S
C3222 C3223 1.502 . S
C3222 C3224 1.561 . S
C3222 C3225 1.526 . S
C3223 H3207 0.959 . S
C3223 H3208 0.959 . S
C3223 H3209 0.961 . S
C3223 C3222 1.502 . S
C3224 H3210 0.960 . S
C3224 H3211 0.961 . S
C3224 H3212 0.959 . S
C3224 C3222 1.561 . S
C3225 C3222 1.526 . S
C3225 C3226 1.396 . S
C3225 C3230 1.390 . S
C3226 C3220 1.465 . S
C3226 C3225 1.396 . S
C3226 C3227 1.399 1_545 S
C3227 H3213 0.929 . S
C3227 C3226 1.399 1_565 S
C3227 C3228 1.385 . S
C3228 H3214 0.931 . S
C3228 C3227 1.385 . S
C3228 C3229 1.389 1_565 S
C3229 C3228 1.389 1_545 S
C3229 C3230 1.387 . S
C3230 H3215 0.930 . S
C3230 C3225 1.390 . S
C3230 C3229 1.387 . S
H3231 C3243 0.930 . S
H3232 C3245 0.930 . S
H3233 C3246 0.930 . S
H3234 C3250 0.959 . S
H3235 C3250 0.959 . S
H3236 C3250 0.961 . S
H3237 C3251 0.960 . S
H3238 C3251 0.961 . S
H3239 C3251 0.959 . S
H3240 C3254 0.929 . S
H3241 C3255 0.931 . S
H3242 C3257 0.930 . S
C3243 H3231 0.930 . S
C3243 C3244 1.399 . S
C3243 C3248 1.399 . S
C3244 C3243 1.399 . S
C3244 C3245 1.376 . S
C3245 H3232 0.930 . S
C3245 C3244 1.376 . S
C3245 C3246 1.388 . S
C3246 H3233 0.930 . S
C3246 C3245 1.388 . S
C3246 C3247 1.390 . S
C3247 C3246 1.390 . S
C3247 C3248 1.394 . S
C3247 C3253 1.465 . S
C3248 C3243 1.399 . S
C3248 C3247 1.394 . S
C3248 C3249 1.516 . S
C3249 C3248 1.516 . S
C3249 C3250 1.502 . S
C3249 C3251 1.561 1_655 S
C3249 C3252 1.526 . S
C3250 H3234 0.959 . S
C3250 H3235 0.959 . S
C3250 H3236 0.961 . S
C3250 C3249 1.502 . S
C3251 H3237 0.960 . S
C3251 H3238 0.961 . S
C3251 H3239 0.959 . S
C3251 C3249 1.561 1_455 S
C3252 C3249 1.526 . S
C3252 C3253 1.396 . S
C3252 C3257 1.390 . S
C3253 C3247 1.465 . S
C3253 C3252 1.396 . S
C3253 C3254 1.399 . S
C3254 H3240 0.929 . S
C3254 C3253 1.399 . S
C3254 C3255 1.385 . S
C3255 H3241 0.931 . S
C3255 C3254 1.385 . S
C3255 C3256 1.389 . S
C3256 C3255 1.389 . S
C3256 C3257 1.387 . S
C3257 H3242 0.930 . S
C3257 C3252 1.390 . S
C3257 C3256 1.387 . S
H3258 C3270 0.930 . S
H3259 C3272 0.930 . S
H3260 C3273 0.930 . S
H3261 C3277 0.959 . S
H3262 C3277 0.959 . S
H3263 C3277 0.961 . S
H3264 C3278 0.960 . S
H3265 C3278 0.961 . S
H3266 C3278 0.959 . S
H3267 C3281 0.929 . S
H3268 C3282 0.931 . S
H3269 C3284 0.930 . S
C3270 H3258 0.930 . S
C3270 C3271 1.399 . S
C3270 C3275 1.399 . S
C3271 C3270 1.399 . S
C3271 C3272 1.376 . S
C3272 H3259 0.930 . S
C3272 C3271 1.376 . S
C3272 C3273 1.388 . S
C3273 H3260 0.930 . S
C3273 C3272 1.388 . S
C3273 C3274 1.390 . S
C3274 C3273 1.390 . S
C3274 C3275 1.394 . S
C3274 C3280 1.465 . S
C3275 C3270 1.399 . S
C3275 C3274 1.394 . S
C3275 C3276 1.516 . S
C3276 C3275 1.516 . S
C3276 C3277 1.502 . S
C3276 C3278 1.561 . S
C3276 C3279 1.526 . S
C3277 H3261 0.959 . S
C3277 H3262 0.959 . S
C3277 H3263 0.961 . S
C3277 C3276 1.502 . S
C3278 H3264 0.960 . S
C3278 H3265 0.961 . S
C3278 H3266 0.959 . S
C3278 C3276 1.561 . S
C3279 C3276 1.526 . S
C3279 C3280 1.396 . S
C3279 C3284 1.390 . S
C3280 C3274 1.465 . S
C3280 C3279 1.396 . S
C3280 C3281 1.399 . S
C3281 H3267 0.929 . S
C3281 C3280 1.399 . S
C3281 C3282 1.385 . S
C3282 H3268 0.931 . S
C3282 C3281 1.385 . S
C3282 C3283 1.389 . S
C3283 C3282 1.389 . S
C3283 C3284 1.387 . S
C3284 H3269 0.930 . S
C3284 C3279 1.390 . S
C3284 C3283 1.387 . S
H3285 C3297 0.930 . S
H3286 C3299 0.930 . S
H3287 C3300 0.930 . S
H3288 C3304 0.959 . S
H3289 C3304 0.959 . S
H3290 C3304 0.961 . S
H3291 C3305 0.960 . S
H3292 C3305 0.961 . S
H3293 C3305 0.959 . S
H3294 C3308 0.929 . S
H3295 C3309 0.931 . S
H3296 C3311 0.930 . S
C3297 H3285 0.930 . S
C3297 C3298 1.399 . S
C3297 C3302 1.399 . S
C3298 C3297 1.399 . S
C3298 C3299 1.376 . S
C3299 H3286 0.930 . S
C3299 C3298 1.376 . S
C3299 C3300 1.388 . S
C3300 H3287 0.930 . S
C3300 C3299 1.388 . S
C3300 C3301 1.390 . S
C3301 C3300 1.390 . S
C3301 C3302 1.394 . S
C3301 C3307 1.465 . S
C3302 C3297 1.399 . S
C3302 C3301 1.394 . S
C3302 C3303 1.516 . S
C3303 C3302 1.516 . S
C3303 C3304 1.502 . S
C3303 C3305 1.561 . S
C3303 C3306 1.526 . S
C3304 H3288 0.959 . S
C3304 H3289 0.959 . S
C3304 H3290 0.961 . S
C3304 C3303 1.502 . S
C3305 H3291 0.960 . S
C3305 H3292 0.961 . S
C3305 H3293 0.959 . S
C3305 C3303 1.561 . S
C3306 C3303 1.526 . S
C3306 C3307 1.396 . S
C3306 C3311 1.390 . S
C3307 C3301 1.465 . S
C3307 C3306 1.396 . S
C3307 C3308 1.399 . S
C3308 H3294 0.929 . S
C3308 C3307 1.399 . S
C3308 C3309 1.385 . S
C3309 H3295 0.931 . S
C3309 C3308 1.385 . S
C3309 C3310 1.389 . S
C3310 C3309 1.389 . S
C3310 C3311 1.387 . S
C3311 H3296 0.930 . S
C3311 C3306 1.390 . S
C3311 C3310 1.387 . S
H3312 C3324 0.930 . S
H3313 C3326 0.930 . S
H3314 C3327 0.930 . S
H3315 C3331 0.959 . S
H3316 C3331 0.959 . S
H3317 C3331 0.961 . S
H3318 C3332 0.960 . S
H3319 C3332 0.961 . S
H3320 C3332 0.959 . S
H3321 C3335 0.929 . S
H3322 C3336 0.931 . S
H3323 C3338 0.930 . S
C3324 H3312 0.930 . S
C3324 C3325 1.399 . S
C3324 C3329 1.399 . S
C3325 C3324 1.399 . S
C3325 C3326 1.376 . S
C3326 H3313 0.930 . S
C3326 C3325 1.376 . S
C3326 C3327 1.388 . S
C3327 H3314 0.930 . S
C3327 C3326 1.388 . S
C3327 C3328 1.390 . S
C3328 C3327 1.390 . S
C3328 C3329 1.394 . S
C3328 C3334 1.465 . S
C3329 C3324 1.399 . S
C3329 C3328 1.394 . S
C3329 C3330 1.516 . S
C3330 C3329 1.516 . S
C3330 C3331 1.502 . S
C3330 C3332 1.561 . S
C3330 C3333 1.526 . S
C3331 H3315 0.959 . S
C3331 H3316 0.959 . S
C3331 H3317 0.961 . S
C3331 C3330 1.502 . S
C3332 H3318 0.960 . S
C3332 H3319 0.961 . S
C3332 H3320 0.959 . S
C3332 C3330 1.561 . S
C3333 C3330 1.526 . S
C3333 C3334 1.396 . S
C3333 C3338 1.390 . S
C3334 C3328 1.465 . S
C3334 C3333 1.396 . S
C3334 C3335 1.399 . S
C3335 H3321 0.929 . S
C3335 C3334 1.399 . S
C3335 C3336 1.385 . S
C3336 H3322 0.931 . S
C3336 C3335 1.385 . S
C3336 C3337 1.389 . S
C3337 C3336 1.389 . S
C3337 C3338 1.387 . S
C3338 H3323 0.930 . S
C3338 C3333 1.390 . S
C3338 C3337 1.387 . S
H3339 C3351 0.930 . S
H3340 C3353 0.930 . S
H3341 C3354 0.930 . S
H3342 C3358 0.959 . S
H3343 C3358 0.959 . S
H3344 C3358 0.961 . S
H3345 C3359 0.960 . S
H3346 C3359 0.961 . S
H3347 C3359 0.959 . S
H3348 C3362 0.929 . S
H3349 C3363 0.931 . S
H3350 C3365 0.930 . S
C3351 H3339 0.930 . S
C3351 C3352 1.399 . S
C3351 C3356 1.399 . S
C3352 C3351 1.399 . S
C3352 C3353 1.376 . S
C3353 H3340 0.930 . S
C3353 C3352 1.376 . S
C3353 C3354 1.388 . S
C3354 H3341 0.930 . S
C3354 C3353 1.388 . S
C3354 C3355 1.390 . S
C3355 C3354 1.390 . S
C3355 C3356 1.394 . S
C3355 C3361 1.465 . S
C3356 C3351 1.399 . S
C3356 C3355 1.394 . S
C3356 C3357 1.516 . S
C3357 C3356 1.516 . S
C3357 C3358 1.502 . S
C3357 C3359 1.561 . S
C3357 C3360 1.526 . S
C3358 H3342 0.959 . S
C3358 H3343 0.959 . S
C3358 H3344 0.961 . S
C3358 C3357 1.502 . S
C3359 H3345 0.960 . S
C3359 H3346 0.961 . S
C3359 H3347 0.959 . S
C3359 C3357 1.561 . S
C3360 C3357 1.526 . S
C3360 C3361 1.396 . S
C3360 C3365 1.390 . S
C3361 C3355 1.465 . S
C3361 C3360 1.396 . S
C3361 C3362 1.399 . S
C3362 H3348 0.929 . S
C3362 C3361 1.399 . S
C3362 C3363 1.385 . S
C3363 H3349 0.931 . S
C3363 C3362 1.385 . S
C3363 C3364 1.389 . S
C3364 C3363 1.389 . S
C3364 C3365 1.387 . S
C3365 H3350 0.930 . S
C3365 C3360 1.390 . S
C3365 C3364 1.387 . S
H3366 C3378 0.930 . S
H3367 C3380 0.930 . S
H3368 C3381 0.930 . S
H3369 C3385 0.959 . S
H3370 C3385 0.959 . S
H3371 C3385 0.961 . S
H3372 C3386 0.960 . S
H3373 C3386 0.961 . S
H3374 C3386 0.959 . S
H3375 C3389 0.929 . S
H3376 C3390 0.931 . S
H3377 C3392 0.930 . S
C3378 H3366 0.930 . S
C3378 C3379 1.399 . S
C3378 C3383 1.399 . S
C3379 C3378 1.399 . S
C3379 C3380 1.376 . S
C3380 H3367 0.930 . S
C3380 C3379 1.376 . S
C3380 C3381 1.388 . S
C3381 H3368 0.930 . S
C3381 C3380 1.388 . S
C3381 C3382 1.390 . S
C3382 C3381 1.390 . S
C3382 C3383 1.394 . S
C3382 C3388 1.465 . S
C3383 C3378 1.399 . S
C3383 C3382 1.394 . S
C3383 C3384 1.516 . S
C3384 C3383 1.516 . S
C3384 C3385 1.502 . S
C3384 C3386 1.561 . S
C3384 C3387 1.526 . S
C3385 H3369 0.959 . S
C3385 H3370 0.959 . S
C3385 H3371 0.961 . S
C3385 C3384 1.502 . S
C3386 H3372 0.960 . S
C3386 H3373 0.961 . S
C3386 H3374 0.959 . S
C3386 C3384 1.561 . S
C3387 C3384 1.526 . S
C3387 C3388 1.396 . S
C3387 C3392 1.390 . S
C3388 C3382 1.465 . S
C3388 C3387 1.396 . S
C3388 C3389 1.399 . S
C3389 H3375 0.929 . S
C3389 C3388 1.399 . S
C3389 C3390 1.385 . S
C3390 H3376 0.931 . S
C3390 C3389 1.385 . S
C3390 C3391 1.389 . S
C3391 C3390 1.389 . S
C3391 C3392 1.387 . S
C3392 H3377 0.930 . S
C3392 C3387 1.390 . S
C3392 C3391 1.387 . S
H3393 C3405 0.930 . S
H3394 C3407 0.930 . S
H3395 C3408 0.930 . S
H3396 C3412 0.959 . S
H3397 C3412 0.959 . S
H3398 C3412 0.961 . S
H3399 C3413 0.960 . S
H3400 C3413 0.961 . S
H3401 C3413 0.959 . S
H3402 C3416 0.929 . S
H3403 C3417 0.931 . S
H3404 C3419 0.930 . S
C3405 H3393 0.930 . S
C3405 C3406 1.399 . S
C3405 C3410 1.399 . S
C3406 C3405 1.399 . S
C3406 C3407 1.376 . S
C3407 H3394 0.930 . S
C3407 C3406 1.376 . S
C3407 C3408 1.388 . S
C3408 H3395 0.930 . S
C3408 C3407 1.388 . S
C3408 C3409 1.390 . S
C3409 C3408 1.390 . S
C3409 C3410 1.394 . S
C3409 C3415 1.465 . S
C3410 C3405 1.399 . S
C3410 C3409 1.394 . S
C3410 C3411 1.516 . S
C3411 C3410 1.516 . S
C3411 C3412 1.502 . S
C3411 C3413 1.561 . S
C3411 C3414 1.526 . S
C3412 H3396 0.959 . S
C3412 H3397 0.959 . S
C3412 H3398 0.961 . S
C3412 C3411 1.502 . S
C3413 H3399 0.960 . S
C3413 H3400 0.961 . S
C3413 H3401 0.959 . S
C3413 C3411 1.561 . S
C3414 C3411 1.526 . S
C3414 C3415 1.396 . S
C3414 C3419 1.390 . S
C3415 C3409 1.465 . S
C3415 C3414 1.396 . S
C3415 C3416 1.399 . S
C3416 H3402 0.929 . S
C3416 C3415 1.399 . S
C3416 C3417 1.385 . S
C3417 H3403 0.931 . S
C3417 C3416 1.385 . S
C3417 C3418 1.389 . S
C3418 C3417 1.389 . S
C3418 C3419 1.387 . S
C3419 H3404 0.930 . S
C3419 C3414 1.390 . S
C3419 C3418 1.387 . S
H3420 C3432 0.930 . S
H3421 C3434 0.930 1_655 S
H3422 C3435 0.930 . S
H3423 C3439 0.959 . S
H3424 C3439 0.959 . S
H3425 C3439 0.961 . S
H3426 C3440 0.960 . S
H3427 C3440 0.961 . S
H3428 C3440 0.959 . S
H3429 C3443 0.929 . S
H3430 C3444 0.931 . S
H3431 C3446 0.930 . S
C3432 H3420 0.930 . S
C3432 C3433 1.399 . S
C3432 C3437 1.399 . S
C3433 C3432 1.399 . S
C3433 C3434 1.376 . S
C3434 H3421 0.930 1_455 S
C3434 C3433 1.376 . S
C3434 C3435 1.388 . S
C3435 H3422 0.930 . S
C3435 C3434 1.388 . S
C3435 C3436 1.390 . S
C3436 C3435 1.390 . S
C3436 C3437 1.394 . S
C3436 C3442 1.465 . S
C3437 C3432 1.399 . S
C3437 C3436 1.394 . S
C3437 C3438 1.516 . S
C3438 C3437 1.516 . S
C3438 C3439 1.502 . S
C3438 C3440 1.561 . S
C3438 C3441 1.526 . S
C3439 H3423 0.959 . S
C3439 H3424 0.959 . S
C3439 H3425 0.961 . S
C3439 C3438 1.502 . S
C3440 H3426 0.960 . S
C3440 H3427 0.961 . S
C3440 H3428 0.959 . S
C3440 C3438 1.561 . S
C3441 C3438 1.526 . S
C3441 C3442 1.396 . S
C3441 C3446 1.390 . S
C3442 C3436 1.465 . S
C3442 C3441 1.396 . S
C3442 C3443 1.399 . S
C3443 H3429 0.929 . S
C3443 C3442 1.399 . S
C3443 C3444 1.385 . S
C3444 H3430 0.931 . S
C3444 C3443 1.385 . S
C3444 C3445 1.389 . S
C3445 C3444 1.389 . S
C3445 C3446 1.387 . S
C3446 H3431 0.930 . S
C3446 C3441 1.390 . S
C3446 C3445 1.387 . S
H3447 C3459 0.930 . S
H3448 C3461 0.930 . S
H3449 C3462 0.930 . S
H3450 C3466 0.959 . S
H3451 C3466 0.959 . S
H3452 C3466 0.961 . S
H3453 C3467 0.960 . S
H3454 C3467 0.961 . S
H3455 C3467 0.959 . S
H3456 C3470 0.929 . S
H3457 C3471 0.931 . S
H3458 C3473 0.930 1_455 S
C3459 H3447 0.930 . S
C3459 C3460 1.399 . S
C3459 C3464 1.399 . S
C3460 C3459 1.399 . S
C3460 C3461 1.376 . S
C3461 H3448 0.930 . S
C3461 C3460 1.376 . S
C3461 C3462 1.388 . S
C3462 H3449 0.930 . S
C3462 C3461 1.388 . S
C3462 C3463 1.390 . S
C3463 C3462 1.390 . S
C3463 C3464 1.394 . S
C3463 C3469 1.465 . S
C3464 C3459 1.399 . S
C3464 C3463 1.394 . S
C3464 C3465 1.516 . S
C3465 C3464 1.516 . S
C3465 C3466 1.502 1_655 S
C3465 C3467 1.561 . S
C3465 C3468 1.526 . S
C3466 H3450 0.959 . S
C3466 H3451 0.959 . S
C3466 H3452 0.961 . S
C3466 C3465 1.502 1_455 S
C3467 H3453 0.960 . S
C3467 H3454 0.961 . S
C3467 H3455 0.959 . S
C3467 C3465 1.561 . S
C3468 C3465 1.526 . S
C3468 C3469 1.396 . S
C3468 C3473 1.390 . S
C3469 C3463 1.465 . S
C3469 C3468 1.396 . S
C3469 C3470 1.399 . S
C3470 H3456 0.929 . S
C3470 C3469 1.399 . S
C3470 C3471 1.385 . S
C3471 H3457 0.931 . S
C3471 C3470 1.385 . S
C3471 C3472 1.389 . S
C3472 C3471 1.389 . S
C3472 C3473 1.387 . S
C3473 H3458 0.930 1_655 S
C3473 C3468 1.390 . S
C3473 C3472 1.387 . S
H3474 C3486 0.930 . S
H3475 C3488 0.930 . S
H3476 C3489 0.930 . S
H3477 C3493 0.959 . S
H3478 C3493 0.959 . S
H3479 C3493 0.961 . S
H3480 C3494 0.960 . S
H3481 C3494 0.961 . S
H3482 C3494 0.959 . S
H3483 C3497 0.929 . S
H3484 C3498 0.931 . S
H3485 C3500 0.930 . S
C3486 H3474 0.930 . S
C3486 C3487 1.399 . S
C3486 C3491 1.399 . S
C3487 C3486 1.399 . S
C3487 C3488 1.376 . S
C3488 H3475 0.930 . S
C3488 C3487 1.376 . S
C3488 C3489 1.388 . S
C3489 H3476 0.930 . S
C3489 C3488 1.388 . S
C3489 C3490 1.390 . S
C3490 C3489 1.390 . S
C3490 C3491 1.394 . S
C3490 C3496 1.465 . S
C3491 C3486 1.399 . S
C3491 C3490 1.394 . S
C3491 C3492 1.516 . S
C3492 C3491 1.516 . S
C3492 C3493 1.502 . S
C3492 C3494 1.561 . S
C3492 C3495 1.526 . S
C3493 H3477 0.959 . S
C3493 H3478 0.959 . S
C3493 H3479 0.961 . S
C3493 C3492 1.502 . S
C3494 H3480 0.960 . S
C3494 H3481 0.961 . S
C3494 H3482 0.959 . S
C3494 C3492 1.561 . S
C3495 C3492 1.526 . S
C3495 C3496 1.396 . S
C3495 C3500 1.390 . S
C3496 C3490 1.465 . S
C3496 C3495 1.396 . S
C3496 C3497 1.399 . S
C3497 H3483 0.929 . S
C3497 C3496 1.399 . S
C3497 C3498 1.385 . S
C3498 H3484 0.931 . S
C3498 C3497 1.385 . S
C3498 C3499 1.389 . S
C3499 C3498 1.389 . S
C3499 C3500 1.387 . S
C3500 H3485 0.930 . S
C3500 C3495 1.390 . S
C3500 C3499 1.387 . S
H3501 C3513 0.930 . S
H3502 C3515 0.930 . S
H3503 C3516 0.930 1_565 S
H3504 C3520 0.959 . S
H3505 C3520 0.959 . S
H3506 C3520 0.961 . S
H3507 C3521 0.960 . S
H3508 C3521 0.961 . S
H3509 C3521 0.959 . S
H3510 C3524 0.929 . S
H3511 C3525 0.931 . S
H3512 C3527 0.930 . S
C3513 H3501 0.930 . S
C3513 C3514 1.399 . S
C3513 C3518 1.399 . S
C3514 C3513 1.399 . S
C3514 C3515 1.376 . S
C3515 H3502 0.930 . S
C3515 C3514 1.376 . S
C3515 C3516 1.388 . S
C3516 H3503 0.930 1_545 S
C3516 C3515 1.388 . S
C3516 C3517 1.390 . S
C3517 C3516 1.390 . S
C3517 C3518 1.394 . S
C3517 C3523 1.465 . S
C3518 C3513 1.399 . S
C3518 C3517 1.394 . S
C3518 C3519 1.516 . S
C3519 C3518 1.516 . S
C3519 C3520 1.502 . S
C3519 C3521 1.561 . S
C3519 C3522 1.526 . S
C3520 H3504 0.959 . S
C3520 H3505 0.959 . S
C3520 H3506 0.961 . S
C3520 C3519 1.502 . S
C3521 H3507 0.960 . S
C3521 H3508 0.961 . S
C3521 H3509 0.959 . S
C3521 C3519 1.561 . S
C3522 C3519 1.526 . S
C3522 C3523 1.396 . S
C3522 C3527 1.390 . S
C3523 C3517 1.465 . S
C3523 C3522 1.396 . S
C3523 C3524 1.399 1_545 S
C3524 H3510 0.929 . S
C3524 C3523 1.399 1_565 S
C3524 C3525 1.385 . S
C3525 H3511 0.931 . S
C3525 C3524 1.385 . S
C3525 C3526 1.389 1_565 S
C3526 C3525 1.389 1_545 S
C3526 C3527 1.387 . S
C3527 H3512 0.930 . S
C3527 C3522 1.390 . S
C3527 C3526 1.387 . S
C1597 C8 1.219 . S
C1609 C981 1.149 . S
C1624 C22 1.561 . S
C1636 C1061 1.533 . S
C1663 C1129 1.347 . S
C1651 C37 1.385 1_545 S
C1678 C36 1.747 1_565 S
C1690 C1209 1.748 . S
C1705 C9 1.471 1_455 S
C1717 C1283 1.474 . S
C1732 C23 1.611 . S
C1744 C1351 1.516 . S
C1759 C50 1.116 1_455 S
C1771 C1277 1.129 . S
C1798 C1357 1.480 . S
C1786 C64 1.478 . S
C1825 C1203 1.361 . S
C1813 C79 1.342 1_565 S
C1840 C78 1.671 . S
C1852 C1135 1.717 . S
C1879 C987 1.465 . S
C1867 C51 1.393 . S
C1894 C65 1.476 . S
C1906 C1055 1.467 . S
C1921 C92 1.410 . S
C1933 C1425 1.323 . S
C1948 C106 1.619 . S
C1960 C1505 1.579 . S
C1987 C1573 1.559 . S
C1975 C121 1.606 . S
C2002 C120 1.896 . S
C2014 C321 1.875 . S
C2029 C93 1.655 . S
C2041 C395 1.637 . S
C2056 C107 1.634 . S
C2068 C463 1.536 . S
C2083 C134 1.149 . S
C2095 C389 1.148 . S
C2110 C148 1.500 . S
C2122 C469 1.506 . S
C2149 C315 1.415 . S
C2137 C163 1.396 . S
C2176 C1579 1.841 . S
C2164 C162 1.809 . S
C2203 C1431 1.512 . S
C2191 C135 1.516 . S
C2230 C1499 1.466 . S
C2218 C149 1.485 . S
C2245 C176 1.307 . S
C2257 C537 1.154 . S
C2272 C190 1.624 . S
C2284 C617 1.602 . S
C2299 C205 1.604 . S
C2311 C685 1.557 . S
C2326 C204 1.974 . S
C2338 C765 1.944 . S
C2365 C839 1.625 . S
C2353 C177 1.655 . S
C2392 C907 1.601 . S
C2380 C191 1.688 . S
C2419 C833 1.231 . S
C2407 C218 1.230 . S
C2446 C913 1.504 . S
C2434 C232 1.505 . S
C2461 C247 1.387 . S
C2473 C759 1.397 . S
C2500 C691 1.773 . S
C2488 C246 1.758 . S
C2515 C219 1.486 . S
C2527 C543 1.519 . S
C2554 C611 1.433 . S
C2542 C233 1.448 . S
C2581 C291 1.936 . S
C2569 C6 1.951 . S
C2596 C20 1.416 . S
C2608 C365 1.419 . S
C2635 C451 1.470 . S
C2623 C35 1.475 . S
C2662 C525 1.214 . S
C2650 C34 1.182 . S
C2689 C587 1.586 . S
C2677 C7 1.575 . S
C2716 C673 1.529 . S
C2704 C21 1.516 . S
C2731 C48 2.101 1_556 S
C2743 C661 1.981 . S
C2758 C62 1.578 . S
C2770 C513 1.500 . S
C2785 C77 1.650 . S
C2797 C599 1.616 . S
C2812 C76 1.401 . S
C2824 C377 1.301 . S
C2851 C439 1.643 . S
C2839 C49 1.750 . S
C2866 C63 1.703 . S
C2878 C303 1.680 . S
C2905 C735 1.871 . S
C2893 C90 1.914 . S
C2920 C104 1.490 1_545 S
C2932 C809 1.541 . S
C2947 C119 1.474 1_655 S
C2959 C895 1.498 . S
C2986 C969 1.079 . S
C2974 C118 1.091 . S
C3001 C91 1.570 . S
C3013 C1031 1.546 . S
C3028 C105 1.471 . S
C3040 C1117 1.467 . S
C3055 C132 1.914 . S
C3067 C1105 1.842 . S
C3082 C146 1.451 . S
C3094 C957 1.409 . S
C3121 C1043 1.537 . S
C3109 C161 1.597 . S
C3136 C160 1.358 . S
C3148 C821 1.334 . S
C3163 C133 1.785 . S
C3175 C883 1.732 . S
C3202 C747 1.729 . S
C3190 C147 1.753 . S
C3229 C1179 1.831 . S
C3217 C174 1.850 . S
C3244 C188 1.378 . S
C3256 C1253 1.386 . S
C3271 C203 1.424 . S
C3283 C1339 1.429 . S
C3310 C1413 1.202 . S
C3298 C202 1.151 . S
C3337 C1475 1.596 . S
C3325 C175 1.591 . S
C3352 C189 1.553 . S
C3364 C1561 1.576 . S
C3379 C216 2.078 . S
C3391 C1549 1.991 . S
C3406 C230 1.656 1_565 S
C3418 C1401 1.622 . S
C3445 C1487 1.604 . S
C3433 C245 1.662 1_455 S
C3472 C1265 1.187 . S
C3460 C244 1.154 . S
C3499 C1327 1.623 . S
C3487 C217 1.696 . S
C3514 C231 1.541 . S
C3526 C1191 1.553 . S
