# Generated by pormake.
# Topology ssa, (4,4)-cn, num edge types: 1
# Building blocks:
#     Node 0, Type 0, BuildingBlock: NAWXER_clean_sbu_0, # of connection points: 4
#     Node 1, Type 0, BuildingBlock: NAWXER_clean_sbu_0, # of connection points: 4
#     Node 2, Type 0, BuildingBlock: NAWXER_clean_sbu_0, # of connection points: 4
#     Node 3, Type 0, BuildingBlock: NAWXER_clean_sbu_0, # of connection points: 4
#     Node 4, Type 0, BuildingBlock: NAWXER_clean_sbu_0, # of connection points: 4
#     Node 5, Type 0, BuildingBlock: NAWXER_clean_sbu_0, # of connection points: 4
#     Node 6, Type 1, BuildingBlock: KUFVIS_clean_linker_0, # of connection points: 4
#     Node 7, Type 1, BuildingBlock: KUFVIS_clean_linker_0, # of connection points: 4
#     Node 8, Type 1, BuildingBlock: KUFVIS_clean_linker_0, # of connection points: 4
#     Node 9, Type 1, BuildingBlock: KUFVIS_clean_linker_0, # of connection points: 4
#     Node 10, Type 1, BuildingBlock: KUFVIS_clean_linker_0, # of connection points: 4
#     Node 11, Type 1, BuildingBlock: KUFVIS_clean_linker_0, # of connection points: 4
#     Edge 12, Type (0, 1), BuildingBlock: XIVTED_clean_linker_0, # of connection points: 2
#     Edge 13, Type (0, 1), BuildingBlock: XIVTED_clean_linker_0, # of connection points: 2
#     Edge 14, Type (0, 1), BuildingBlock: XIVTED_clean_linker_0, # of connection points: 2
#     Edge 15, Type (0, 1), BuildingBlock: XIVTED_clean_linker_0, # of connection points: 2
#     Edge 16, Type (0, 1), BuildingBlock: XIVTED_clean_linker_0, # of connection points: 2
#     Edge 17, Type (0, 1), BuildingBlock: XIVTED_clean_linker_0, # of connection points: 2
#     Edge 18, Type (0, 1), BuildingBlock: XIVTED_clean_linker_0, # of connection points: 2
#     Edge 19, Type (0, 1), BuildingBlock: XIVTED_clean_linker_0, # of connection points: 2
#     Edge 20, Type (0, 1), BuildingBlock: XIVTED_clean_linker_0, # of connection points: 2
#     Edge 21, Type (0, 1), BuildingBlock: XIVTED_clean_linker_0, # of connection points: 2
#     Edge 22, Type (0, 1), BuildingBlock: XIVTED_clean_linker_0, # of connection points: 2
#     Edge 23, Type (0, 1), BuildingBlock: XIVTED_clean_linker_0, # of connection points: 2
#     Edge 24, Type (0, 1), BuildingBlock: XIVTED_clean_linker_0, # of connection points: 2
#     Edge 25, Type (0, 1), BuildingBlock: XIVTED_clean_linker_0, # of connection points: 2
#     Edge 26, Type (0, 1), BuildingBlock: XIVTED_clean_linker_0, # of connection points: 2
#     Edge 27, Type (0, 1), BuildingBlock: XIVTED_clean_linker_0, # of connection points: 2
#     Edge 28, Type (0, 1), BuildingBlock: XIVTED_clean_linker_0, # of connection points: 2
#     Edge 29, Type (0, 1), BuildingBlock: XIVTED_clean_linker_0, # of connection points: 2
#     Edge 30, Type (0, 1), BuildingBlock: XIVTED_clean_linker_0, # of connection points: 2
#     Edge 31, Type (0, 1), BuildingBlock: XIVTED_clean_linker_0, # of connection points: 2
#     Edge 32, Type (0, 1), BuildingBlock: XIVTED_clean_linker_0, # of connection points: 2
#     Edge 33, Type (0, 1), BuildingBlock: XIVTED_clean_linker_0, # of connection points: 2
#     Edge 34, Type (0, 1), BuildingBlock: XIVTED_clean_linker_0, # of connection points: 2
#     Edge 35, Type (0, 1), BuildingBlock: XIVTED_clean_linker_0, # of connection points: 2
# Relax obj value: 0.007
# Max RMSD: 0.057
# Mean RMSD: 0.038
data_MOF--net-ssa--node1-NAWXER_clean_sbu_0--node2-KUFVIS_clean_linker_0--edge1-XIVTED_clean_linker_0
_symmetry_space_group_name_H-M    P1
_symmetry_Int_Tables_number       1
_symmetry_cell_setting            triclinic
loop_
_symmetry_equiv_pos_as_xyz
'x, y, z'
_cell_length_a     51.610916
_cell_length_b     51.613454
_cell_length_c     29.300859
_cell_angle_alpha  90.486466
_cell_angle_beta   90.283496
_cell_angle_gamma 119.80907
loop_
_atom_site_label
_atom_site_type_symbol
_atom_site_fract_x
_atom_site_fract_y
_atom_site_fract_z
_atom_type_partial_charge
C0 C 0.03621 0.57487 0.03608 0.0
C1 C 0.97197 0.47042 -0.00784 0.0
O2 O 1.01386 0.5548 0.0572 0.0
Zn3 Zn 1.00388 0.52278 0.01412 0.0
O4 O 0.04351 0.56849 -0.00248 0.0
Zn5 Zn 0.02765 0.52998 0.95273 0.0
O6 O 1.01531 0.54256 0.89887 0.0
O7 O 0.9863 0.53575 0.95775 0.0
O8 O 0.99199 0.48494 0.9623 0.0
O9 O 0.97074 0.48369 0.02805 0.0
O10 O 0.0434 0.51802 0.01801 0.0
O11 O 0.06222 0.52492 0.9487 0.0
C12 C 0.99278 0.54271 0.91582 0.0
C13 C 0.06347 0.51952 -0.00937 0.0
C14 C 0.52137 0.04298 0.55857 0.0
C15 C 0.55031 0.97226 0.49918 0.0
O16 O 0.52109 0.02123 0.57906 0.0
Zn17 Zn 0.5338 1.0059 0.52851 0.0
O18 O 0.52829 0.04709 0.5163 0.0
Zn19 Zn 0.54248 0.02742 0.46458 0.0
O20 O 0.51088 0.01337 0.41931 0.0
O21 O 0.4964 0.98692 0.48214 0.0
O22 O 0.55242 0.99133 0.46937 0.0
O23 O 0.54003 0.97238 0.53846 0.0
O24 O 0.57866 0.04223 0.51882 0.0
O25 O 0.58105 0.0615 0.45074 0.0
C26 C 0.49067 0.99186 0.44155 0.0
C27 C 0.59352 0.06164 0.48836 0.0
C28 C 0.53338 0.47264 0.00781 0.0
C29 C 0.57809 0.5805 0.03592 0.0
O30 O 0.52734 0.48651 0.97737 0.0
Zn31 Zn 0.53707 0.5303 0.9612 0.0
O32 O 0.54973 0.48693 0.04198 0.0
Zn33 Zn 0.55627 0.52641 0.02458 0.0
O34 O 0.51316 0.52287 0.02955 0.0
O35 O 0.49731 0.52598 0.96066 0.0
O36 O 0.58062 0.56195 0.06134 0.0
O37 O 0.56275 0.57127 -0.00122 0.0
O38 O 0.5598 0.53661 0.90534 0.0
O39 O 0.5837 0.53478 0.96683 0.0
C40 C 0.49319 0.52308 0.00355 0.0
C41 C 0.58279 0.53781 0.9237 0.0
C42 C 0.07325 0.55277 0.46222 0.0
C43 C 1.00052 0.46007 0.53351 0.0
O44 O 0.0716 0.54587 0.50403 0.0
Zn45 Zn 0.03642 0.50703 0.49824 0.0
O46 O 0.05316 0.53478 0.43379 0.0
Zn47 Zn 1.01291 0.49134 0.43568 0.0
O48 O 0.98058 0.49874 0.42033 0.0
O49 O 1.00183 0.51805 0.487 0.0
O50 O 0.99444 0.46087 0.49126 0.0
O51 O 0.02317 0.48228 0.5516 0.0
O52 O 0.05128 0.48318 0.45441 0.0
O53 O 0.02218 0.46858 0.39315 0.0
C54 C 0.98214 0.51339 0.45626 0.0
C55 C 0.04383 0.46962 0.41556 0.0
C56 C 0.53605 0.97943 0.06314 0.0
C57 C 0.50315 0.04618 0.00372 0.0
O58 O 0.53463 1.0004 0.08385 0.0
Zn59 Zn 0.52148 0.01452 0.03306 0.0
O60 O 0.52969 0.97496 0.02046 0.0
Zn61 Zn 0.51471 0.99329 0.96821 0.0
O62 O 0.54705 1.00924 0.92487 0.0
O63 O 0.55935 0.03508 -0.01069 0.0
O64 O 0.50255 0.02775 0.97341 0.0
O65 O 0.51331 0.04669 0.04352 0.0
O66 O 0.47743 0.97739 0.01974 0.0
O67 O 0.47689 0.95838 0.95149 0.0
C68 C 0.56621 0.03104 0.94893 0.0
C69 C 0.46351 0.958 -0.01198 0.0
C70 C 0.5418 0.5081 0.53004 0.0
C71 C 0.43623 0.476 0.49972 0.0
O72 O 0.52453 0.51179 0.55691 0.0
Zn73 Zn 0.48811 0.49079 0.51985 0.0
O74 O 0.53132 0.49342 0.49267 0.0
Zn75 Zn 0.49052 0.47114 0.45511 0.0
O76 O 0.50102 0.496 0.40007 0.0
O77 O 0.50063 0.51925 0.46343 0.0
O78 O 0.44841 0.4675 0.46956 0.0
O79 O 0.45106 0.49029 0.5351 0.0
O80 O 0.47716 0.44537 0.52307 0.0
O81 O 0.48253 0.42985 0.45504 0.0
C82 C 0.50474 0.51957 0.42047 0.0
C83 C 0.47612 0.42476 0.4971 0.0
H84 H 0.35267 0.50139 0.24583 0.0
H85 H 0.2648 0.47641 0.29007 0.0
H86 H 0.28538 0.48605 0.14571 0.0
H87 H 0.24966 0.49902 0.14343 0.0
H88 H 0.15824 0.45787 0.18259 0.0
H89 H 0.21956 0.44571 0.26591 0.0
C90 C 0.33002 0.49598 0.23744 0.0
C91 C 0.32167 0.49562 0.19172 0.0
C92 C 0.30935 0.48835 0.27252 0.0
C93 C 0.27992 0.4809 0.262 0.0
C94 C 0.27056 0.4801 0.21618 0.0
C95 C 0.2918 0.48704 0.18116 0.0
C96 C 0.23899 0.47253 0.20531 0.0
C97 C 0.23223 0.48419 0.16621 0.0
C98 C 0.20285 0.47788 0.15747 0.0
C99 C 0.18033 0.46076 0.1882 0.0
C100 C 0.1865 0.45012 0.22811 0.0
C101 C 0.21552 0.45508 0.23565 0.0
H102 H 0.71044 0.15288 0.7211 0.0
H103 H 0.77329 0.21267 0.82062 0.0
H104 H 0.78125 0.23683 0.6776 0.0
H105 H 0.82851 0.2629 0.69324 0.0
H106 H 0.88403 0.33186 0.78834 0.0
H107 H 0.80028 0.26094 0.83325 0.0
C108 C 0.73035 0.17386 0.72965 0.0
C109 C 0.74572 0.19372 0.69476 0.0
C110 C 0.73974 0.1809 0.77515 0.0
C111 C 0.76558 0.20825 0.78554 0.0
C112 C 0.7816 0.229 0.75079 0.0
C113 C 0.77063 0.2215 0.70528 0.0
C114 C 0.80999 0.25777 0.76151 0.0
C115 C 0.83162 0.27239 0.7272 0.0
C116 C 0.85813 0.29924 0.73644 0.0
C117 C 0.86375 0.31099 0.78078 0.0
C118 C 0.84336 0.2968 0.81566 0.0
C119 C 0.81619 0.27075 0.80599 0.0
H120 H 0.57504 0.69251 0.22655 0.0
H121 H 0.59944 0.78308 0.19793 0.0
H122 H 0.54554 0.73876 0.31574 0.0
H123 H 0.57944 0.79129 0.34285 0.0
H124 H 0.56531 0.86242 0.2994 0.0
H125 H 0.56094 0.7985 0.20057 0.0
C126 C 0.57429 0.71259 0.23557 0.0
C127 C 0.55827 0.71255 0.27373 0.0
C128 C 0.5893 0.73778 0.2085 0.0
C129 C 0.5881 0.76367 0.21943 0.0
C130 C 0.57258 0.76448 0.25866 0.0
C131 C 0.55796 0.73876 0.28602 0.0
C132 C 0.57078 0.79171 0.27015 0.0
C133 C 0.57458 0.80244 0.31574 0.0
C134 C 0.57276 0.82811 0.32594 0.0
C135 C 0.56652 0.84251 0.29111 0.0
C136 C 0.56193 0.83195 0.24608 0.0
C137 C 0.56461 0.80682 0.23545 0.0
H138 H 0.88735 0.56429 0.65347 0.0
H139 H 0.82313 0.5694 0.73927 0.0
H140 H 0.80498 0.54906 0.59461 0.0
H141 H 0.77679 0.57049 0.60384 0.0
H142 H 0.70327 0.55346 0.68956 0.0
H143 H 0.77381 0.5422 0.74414 0.0
C144 C 0.86612 0.56358 0.65755 0.0
C145 C 0.84773 0.55774 0.6193 0.0
C146 C 0.85716 0.56715 0.70094 0.0
C147 C 0.82925 0.5654 0.70578 0.0
C148 C 0.80984 0.55913 0.66771 0.0
C149 C 0.81936 0.5548 0.62439 0.0
C150 C 0.77997 0.55721 0.67341 0.0
C151 C 0.76619 0.5639 0.63675 0.0
C152 C 0.73862 0.56267 0.64279 0.0
C153 C 0.72479 0.55481 0.68506 0.0
C154 C 0.73736 0.54754 0.7213 0.0
C155 C 0.76486 0.54867 0.71576 0.0
H156 H 0.16267 0.70122 0.26975 0.0
H157 H 0.21811 0.77489 0.18411 0.0
H158 H 0.25255 0.76232 0.3121 0.0
H159 H 0.27851 0.81532 0.30779 0.0
H160 H 0.3435 0.87096 0.2094 0.0
H161 H 0.26658 0.79029 0.16442 0.0
C162 C 0.18355 0.72167 0.26394 0.0
C163 C 0.20666 0.73072 0.29598 0.0
C164 C 0.18766 0.73708 0.22321 0.0
C165 C 0.21528 0.76273 0.21534 0.0
C166 C 0.23903 0.77254 0.24734 0.0
C167 C 0.23446 0.75609 0.2878 0.0
C168 C 0.2686 0.79933 0.2375 0.0
C169 C 0.28616 0.81938 0.27285 0.0
C170 C 0.31315 0.84543 0.26286 0.0
C171 C 0.32257 0.85114 0.21752 0.0
C172 C 0.30576 0.83152 0.18226 0.0
C173 C 0.27908 0.8055 0.19215 0.0
H174 H 0.48412 0.3309 0.76512 0.0
H175 H 0.50454 0.27446 0.84566 0.0
H176 H 0.48161 0.25426 0.70238 0.0
H177 H 0.50969 0.23109 0.71164 0.0
H178 H 0.49339 0.15689 0.79564 0.0
H179 H 0.47716 0.22445 0.84988 0.0
C180 C 0.48662 0.3113 0.76773 0.0
C181 C 0.48279 0.29382 0.72868 0.0
C182 C 0.49419 0.30425 0.80994 0.0
C183 C 0.49819 0.27937 0.81298 0.0
C184 C 0.49308 0.26047 0.7747 0.0
C185 C 0.48594 0.26837 0.73226 0.0
C186 C 0.49355 0.23184 0.77999 0.0
C187 C 0.50231 0.21953 0.74373 0.0
C188 C 0.50247 0.19257 0.74952 0.0
C189 C 0.49347 0.17778 0.79108 0.0
C190 C 0.48476 0.18941 0.82713 0.0
C191 C 0.48472 0.21627 0.82174 0.0
H192 H 0.09606 0.498 0.94682 0.0
H193 H 0.2054 0.53137 0.16067 0.0
H194 H 0.08867 0.53511 0.07529 0.0
H195 H 0.17909 0.45451 0.07356 0.0
H196 H 0.17523 0.54563 0.11348 0.0
H197 H 0.1375 0.49296 0.9793 0.0
C198 C 0.1033 0.50526 0.98167 0.0
C199 C 0.08874 0.51666 0.00865 0.0
C200 C 0.17681 0.52615 0.10386 0.0
C201 C 0.13642 0.51189 0.04515 0.0
C202 C 0.19438 0.51832 0.13027 0.0
C203 C 0.19499 0.49202 0.12044 0.0
C204 C 0.15983 0.50757 0.06733 0.0
C205 C 0.17952 0.47523 0.08162 0.0
C206 C 0.12687 0.50241 5e-05 0.0
C207 C 0.099 0.52582 0.05354 0.0
N208 N 0.16226 0.48312 0.05659 0.0
N209 N 0.12226 0.52336 0.0703 0.0
H210 H 0.61816 0.12179 0.47626 0.0
H211 H 0.75305 0.15371 0.64485 0.0
H212 H 0.63722 0.05528 0.52899 0.0
H213 H 0.71297 0.20956 0.63979 0.0
H214 H 0.72292 0.12554 0.57845 0.0
H215 H 0.66416 0.16095 0.51336 0.0
C216 C 0.6326 0.11557 0.49429 0.0
C217 C 0.62402 0.0854 0.49991 0.0
C218 C 0.72132 0.1445 0.59098 0.0
C219 C 0.67624 0.12968 0.54193 0.0
C220 C 0.73867 0.16069 0.62852 0.0
C221 C 0.73537 0.18387 0.64747 0.0
C222 C 0.70029 0.15135 0.57266 0.0
C223 C 0.71617 0.19188 0.62575 0.0
C224 C 0.65863 0.13783 0.51565 0.0
C225 C 0.6431 0.07834 0.52413 0.0
N226 N 0.69887 0.17527 0.5898 0.0
N227 N 0.66821 0.1003 0.54449 0.0
H228 H 0.5694 0.62305 -0.00491 0.0
H229 H 0.64008 0.73457 0.20633 0.0
H230 H 0.61512 0.61032 0.10901 0.0
H231 H 0.56982 0.72957 0.12044 0.0
H232 H 0.64707 0.70219 0.15238 0.0
H233 H 0.58408 0.67296 0.02437 0.0
C234 C 0.58295 0.63088 0.02588 0.0
C235 C 0.59056 0.61217 0.05014 0.0
C236 C 0.63093 0.70912 0.14437 0.0
C237 C 0.60765 0.66953 0.08343 0.0
C238 C 0.62736 0.72809 0.17467 0.0
C239 C 0.60419 0.73449 0.16784 0.0
C240 C 0.61124 0.69666 0.10706 0.0
C241 C 0.58793 0.72513 0.12679 0.0
C242 C 0.59135 0.65944 0.04246 0.0
C243 C 0.60836 0.62375 0.08958 0.0
N244 N 0.5912 0.70598 0.09842 0.0
N245 N 0.61602 0.65157 0.10528 0.0
H246 H 0.99282 0.56488 0.49815 0.0
H247 H 0.82877 0.50656 0.56866 0.0
H248 H 0.92242 0.48498 0.43461 0.0
H249 H 0.89455 0.6001 0.57277 0.0
H250 H 0.85986 0.49803 0.51402 0.0
H251 H 0.95601 0.57868 0.52209 0.0
C252 C 0.96958 0.55047 0.4887 0.0
C253 C 0.96057 0.52375 0.46458 0.0
C254 C 0.86697 0.52059 0.52561 0.0
C255 C 0.91811 0.53897 0.49276 0.0
C256 C 0.84909 0.52547 0.55639 0.0
C257 C 0.85922 0.55405 0.57506 0.0
C258 C 0.89529 0.54441 0.51447 0.0
C259 C 0.88603 0.57775 0.55898 0.0
C260 C 0.94856 0.55838 0.50217 0.0
C261 C 0.93021 0.50585 0.45308 0.0
N262 N 0.90346 0.57231 0.53046 0.0
N263 N 0.90989 0.51343 0.46818 0.0
H264 H 0.41845 0.96656 0.01537 0.0
H265 H 0.33664 0.81153 0.1316 0.0
H266 H 0.43889 0.89735 0.98163 0.0
H267 H 0.30193 0.87203 0.12913 0.0
H268 H 0.3687 0.83786 0.06679 0.0
H269 H 0.37085 0.92907 0.04668 0.0
C270 C 0.41243 0.94324 0.01358 0.0
C271 C 0.43243 0.93489 -0.00388 0.0
C272 C 0.35333 0.84477 0.07932 0.0
C273 C 0.37857 0.89189 0.03347 0.0
C274 C 0.33492 0.82959 0.11604 0.0
C275 C 0.31674 0.83972 0.13532 0.0
C276 C 0.35385 0.87053 0.06275 0.0
C277 C 0.31565 0.86358 0.11487 0.0
C278 C 0.38528 0.9218 0.03149 0.0
C279 C 0.42385 0.90451 -0.00531 0.0
N280 N 0.3344 0.87854 0.08024 0.0
N281 N 0.39779 0.88409 0.01425 0.0
H282 H 0.43344 0.39415 0.55922 0.0
H283 H 0.51163 0.30415 0.64657 0.0
H284 H 0.50395 0.39156 0.48487 0.0
H285 H 0.43712 0.30449 0.71168 0.0
H286 H 0.50436 0.32873 0.58002 0.0
H287 H 0.42905 0.35395 0.60733 0.0
C288 C 0.44759 0.38458 0.55248 0.0
C289 C 0.46913 0.39618 0.51822 0.0
C290 C 0.48924 0.32288 0.60849 0.0
C291 C 0.46506 0.35072 0.57434 0.0
C292 C 0.4933 0.30873 0.6463 0.0
C293 C 0.47516 0.30268 0.68477 0.0
C294 C 0.46688 0.33092 0.60939 0.0
C295 C 0.45184 0.30917 0.68292 0.0
C296 C 0.4452 0.36168 0.58009 0.0
C297 C 0.48694 0.38305 0.51086 0.0
N298 N 0.44861 0.32321 0.64621 0.0
N299 N 0.48495 0.36137 0.53936 0.0
H300 H 0.5942 0.97945 0.44108 0.0
H301 H 0.53166 0.81126 0.39347 0.0
H302 H 0.52677 0.91459 0.52889 0.0
H303 H 0.6217 0.87697 0.35958 0.0
H304 H 0.53065 0.84626 0.44965 0.0
H305 H 0.60578 0.94142 0.41451 0.0
C306 C 0.58202 0.95721 0.45507 0.0
C307 C 0.55935 0.95006 0.4869 0.0
C308 C 0.55108 0.85261 0.4313 0.0
C309 C 0.57217 0.90619 0.45618 0.0
C310 C 0.55179 0.83244 0.39974 0.0
C311 C 0.57687 0.84126 0.37217 0.0
C312 C 0.57537 0.88188 0.43423 0.0
C313 C 0.60206 0.86931 0.38054 0.0
C314 C 0.58878 0.93554 0.44017 0.0
C315 C 0.54441 0.92096 0.50423 0.0
N316 N 0.60041 0.88894 0.40989 0.0
N317 N 0.55063 0.89985 0.48791 0.0
H318 H 0.64138 0.56441 0.94851 0.0
H319 H 0.68493 0.49725 0.73601 0.0
H320 H 0.58062 0.5152 0.83805 0.0
H321 H 0.7494 0.58009 0.80018 0.0
H322 H 0.64714 0.49375 0.78965 0.0
H323 H 0.68177 0.56273 0.90715 0.0
C324 C 0.63664 0.55348 0.91533 0.0
C325 C 0.60774 0.54018 0.89632 0.0
C326 C 0.66977 0.51226 0.79281 0.0
C327 C 0.6534 0.53721 0.85003 0.0
C328 C 0.69144 0.51393 0.76294 0.0
C329 C 0.72026 0.53892 0.764 0.0
C330 C 0.67709 0.5356 0.82418 0.0
C331 C 0.7275 0.56033 0.79875 0.0
C332 C 0.65961 0.55241 0.89202 0.0
C333 C 0.60268 0.52611 0.85351 0.0
N334 N 0.70587 0.55843 0.82724 0.0
N335 N 0.62526 0.52475 0.83194 0.0
H336 H 0.10435 0.60685 0.50696 0.0
H337 H 0.21443 0.6828 0.29786 0.0
H338 H 0.10032 0.56201 0.38003 0.0
H339 H 0.18309 0.73151 0.37875 0.0
H340 H 0.18671 0.63933 0.34664 0.0
H341 H 0.14554 0.65343 0.47621 0.0
C342 C 0.11235 0.60677 0.47288 0.0
C343 C 0.09877 0.58074 0.44568 0.0
C344 C 0.18674 0.65987 0.35466 0.0
C345 C 0.14612 0.63325 0.41128 0.0
C346 C 0.20291 0.68476 0.32736 0.0
C347 C 0.20122 0.71073 0.33479 0.0
C348 C 0.16885 0.66106 0.38961 0.0
C349 C 0.18522 0.71194 0.37253 0.0
C350 C 0.13576 0.63323 0.4555 0.0
C351 C 0.10992 0.58171 0.40182 0.0
N352 N 0.16926 0.68724 0.39834 0.0
N353 N 0.13299 0.6075 0.38604 0.0
H354 H 0.45906 0.03612 0.94339 0.0
H355 H 0.51725 0.20528 0.90613 0.0
H356 H 0.52305 0.10324 0.03563 0.0
H357 H 0.43658 0.13544 0.84402 0.0
H358 H 0.5149 0.16985 0.96347 0.0
H359 H 0.44587 0.07228 0.91488 0.0
C360 C 0.47011 0.05849 0.95795 0.0
C361 C 0.49248 0.06692 -0.00868 0.0
C362 C 0.49709 0.1625 0.93836 0.0
C363 C 0.47788 0.10872 0.95837 0.0
C364 C 0.49828 0.18282 0.90599 0.0
C365 C 0.47713 0.17306 0.87045 0.0
C366 C 0.47486 0.13229 0.93433 0.0
C367 C 0.45329 0.14367 0.87101 0.0
C368 C 0.46246 0.07912 0.94189 0.0
C369 C 0.5058 0.096 0.00959 0.0
N370 N 0.45315 0.12412 0.90179 0.0
N371 N 0.49878 0.11613 -0.00788 0.0
H372 H 0.38733 0.4284 0.46215 0.0
H373 H 0.35149 0.53399 0.3247 0.0
H374 H 0.42139 0.51976 0.50519 0.0
H375 H 0.29006 0.43928 0.32593 0.0
H376 H 0.37463 0.52946 0.39521 0.0
H377 H 0.34813 0.43064 0.4181 0.0
C378 C 0.3858 0.44858 0.46367 0.0
C379 C 0.4075 0.4739 0.48739 0.0
C380 C 0.35558 0.50976 0.38082 0.0
C381 C 0.36364 0.47714 0.43538 0.0
C382 C 0.34243 0.51237 0.34064 0.0
C383 C 0.3189 0.48697 0.31974 0.0
C384 C 0.34571 0.48139 0.39943 0.0
C385 C 0.30809 0.45938 0.34128 0.0
C386 C 0.36355 0.44994 0.4383 0.0
C387 C 0.40487 0.49967 0.4877 0.0
N388 N 0.322 0.45719 0.37945 0.0
N389 N 0.38385 0.50092 0.46099 0.0
H390 H 0.9119 0.44204 0.0087 0.0
H391 H 0.88443 0.29594 0.87192 0.0
H392 H 0.98098 0.42776 0.95285 0.0
H393 H 0.82443 0.33097 0.86057 0.0
H394 H 0.91314 0.33389 0.9303 0.0
H395 H 0.87417 0.3921 0.98043 0.0
C396 C 0.91912 0.42807 -0.00843 0.0
C397 C 0.94949 0.43895 0.98272 0.0
C398 C 0.89309 0.33262 0.91622 0.0
C399 C 0.90682 0.3821 0.95136 0.0
C400 C 0.87651 0.31077 0.88342 0.0
C401 C 0.85206 0.31038 0.86171 0.0
C402 C 0.88517 0.35426 0.92725 0.0
C403 C 0.84302 0.33046 0.87695 0.0
C404 C 0.89764 0.39975 0.97538 0.0
C405 C 0.95775 0.42021 0.96002 0.0
N406 N 0.85993 0.35204 0.90836 0.0
N407 N 0.93654 0.39273 0.94505 0.0
H408 H 1.00556 0.57042 0.83299 0.0
H409 H 0.84119 0.53855 0.78326 0.0
H410 H 0.93654 0.53243 0.93445 0.0
H411 H 0.91779 0.60296 0.70856 0.0
H412 H 0.87497 0.53625 0.8402 0.0
H413 H 0.97304 0.58161 0.78623 0.0
C414 C 0.9836 0.56449 0.84547 0.0
C415 C 0.97373 0.55038 0.88759 0.0
C416 C 0.88434 0.55124 0.8117 0.0
C417 C 0.93631 0.563 0.83419 0.0
C418 C 0.86507 0.55275 0.77942 0.0
C419 C 0.87668 0.57061 0.74073 0.0
C420 C 0.91536 0.56747 0.80488 0.0
C421 C 0.90786 0.58837 0.73734 0.0
C422 C 0.9651 0.57104 0.81891 0.0
C423 C 0.94507 0.54335 0.90218 0.0
N424 N 0.92608 0.58597 0.7685 0.0
N425 N 0.92725 0.54945 0.87531 0.0
H426 H 0.46647 1.00102 0.36417 0.0
H427 H 0.33234 0.8341 0.3441 0.0
H428 H 0.44757 0.93681 0.47048 0.0
H429 H 0.33867 0.90607 0.26235 0.0
H430 H 0.37278 0.87096 0.39343 0.0
H431 H 0.41893 0.96626 0.32737 0.0
C432 C 0.45225 0.97967 0.3799 0.0
C433 C 0.46111 0.97178 0.42033 0.0
C434 C 0.36495 0.87867 0.36512 0.0
C435 C 0.40663 0.93168 0.37819 0.0
C436 C 0.34173 0.85766 0.33722 0.0
C437 C 0.33248 0.86704 0.29873 0.0
C438 C 0.37903 0.90915 0.35411 0.0
C439 C 0.34555 0.89785 0.29118 0.0
C440 C 0.42502 0.95985 0.35899 0.0
C441 C 0.44165 0.94383 0.43931 0.0
N442 N 0.36841 0.91772 0.31811 0.0
N443 N 0.41548 0.92464 0.41781 0.0
H444 H 0.56601 0.44402 0.0149 0.0
H445 H 0.45343 0.31889 0.84011 0.0
H446 H 0.47935 0.43024 0.97634 0.0
H447 H 0.54041 0.33117 0.87246 0.0
H448 H 0.45938 0.35356 0.90162 0.0
H449 H 0.55385 0.39678 0.97606 0.0
C450 C 0.54401 0.43045 -0.00018 0.0
C451 C 0.52363 0.44095 -0.00137 0.0
C452 C 0.47715 0.34856 0.89577 0.0
C453 C 0.50986 0.38757 0.95343 0.0
C454 C 0.47375 0.32882 0.86052 0.0
C455 C 0.49665 0.32256 0.85081 0.0
C456 C 0.50388 0.36265 0.92131 0.0
C457 C 0.52231 0.33558 0.87878 0.0
C458 C 0.53721 0.40371 0.97718 0.0
C459 C 0.49569 0.42292 0.97787 0.0
N460 N 0.52547 0.35543 0.91238 0.0
N461 N 0.48979 0.39736 0.95568 0.0
H462 H 0.09545 0.4742 0.44965 0.0
H463 H 0.12641 0.41021 0.22061 0.0
H464 H 0.03313 0.43655 0.33673 0.0
H465 H 0.19469 0.46608 0.31843 0.0
H466 H 0.08833 0.40629 0.27389 0.0
H467 H 0.12794 0.45888 0.41212 0.0
C468 C 0.08837 0.46235 0.41725 0.0
C469 C 0.06173 0.45712 0.39591 0.0
C470 C 0.11161 0.41883 0.28412 0.0
C471 C 0.09885 0.43944 0.35291 0.0
C472 C 0.13334 0.42093 0.25385 0.0
C473 C 0.16379 0.43904 0.2647 0.0
C474 C 0.12041 0.43493 0.32552 0.0
C475 C 0.17151 0.45202 0.30851 0.0
C476 C 0.10696 0.4536 0.39588 0.0
C477 C 0.05365 0.44145 0.35412 0.0
N478 N 0.14997 0.45023 0.33698 0.0
N479 N 0.07229 0.43345 0.33376 0.0
H480 H 0.61 0.08259 -0.01104 0.0
H481 H 0.72097 0.19318 0.8557 0.0
H482 H 0.58994 0.02881 0.86626 0.0
H483 H 0.71544 0.12017 0.77535 0.0
H484 H 0.68196 0.15716 0.90525 0.0
H485 H 0.65711 0.11963 0.95571 0.0
C486 C 0.61548 0.07854 0.95498 0.0
C487 C 0.59573 0.05265 0.93013 0.0
C488 C 0.68981 0.14889 0.87765 0.0
C489 C 0.64954 0.09542 0.89141 0.0
C490 C 0.71218 0.16955 0.84935 0.0
C491 C 0.72125 0.15968 0.8111 0.0
C492 C 0.67646 0.11815 0.86751 0.0
C493 C 0.70874 0.12876 0.80404 0.0
C494 C 0.64234 0.09991 0.93584 0.0
C495 C 0.60427 0.04853 0.8865 0.0
N496 N 0.68667 0.10916 0.83145 0.0
N497 N 0.63049 0.06972 0.86853 0.0
H498 H 0.49515 0.52787 0.33013 0.0
H499 H 0.56472 0.70456 0.36433 0.0
H500 H 0.53188 0.57512 0.45742 0.0
H501 H 0.51863 0.65705 0.24157 0.0
H502 H 0.55032 0.6567 0.40053 0.0
H503 H 0.50356 0.5749 0.29631 0.0
C504 C 0.5053 0.54814 0.35068 0.0
C505 C 0.51278 0.54761 0.39656 0.0
C506 C 0.54293 0.65668 0.36588 0.0
C507 C 0.52195 0.60109 0.35874 0.0
C508 C 0.5508 0.68399 0.34556 0.0
C509 C 0.54294 0.68464 0.3 0.0
C510 C 0.52732 0.62999 0.34021 0.0
C511 C 0.52525 0.65737 0.27679 0.0
C512 C 0.50977 0.57487 0.33165 0.0
C513 C 0.52557 0.57445 0.42193 0.0
N514 N 0.5184 0.63116 0.29689 0.0
N515 N 0.52971 0.6 0.40275 0.0
H516 H 0.50528 0.08231 0.52437 0.0
H517 H 0.54483 0.17632 0.75612 0.0
H518 H 0.5289 0.05572 0.64997 0.0
H519 H 0.47973 0.1754 0.66241 0.0
H520 H 0.54973 0.14064 0.70683 0.0
H521 H 0.50379 0.12312 0.56598 0.0
C522 C 0.50991 0.08491 0.56073 0.0
C523 C 0.51707 0.06549 0.58385 0.0
C524 C 0.5347 0.14856 0.69665 0.0
C525 C 0.51634 0.11253 0.63096 0.0
C526 C 0.53215 0.16916 0.72443 0.0
C527 C 0.51166 0.17858 0.71342 0.0
C528 C 0.51686 0.13744 0.65724 0.0
C529 C 0.49582 0.16871 0.67195 0.0
C530 C 0.50913 0.10821 0.58429 0.0
C531 C 0.523 0.06994 0.63087 0.0
N532 N 0.49852 0.14835 0.6454 0.0
N533 N 0.52282 0.09317 0.65275 0.0
H534 H 0.43593 0.49944 0.96819 0.0
H535 H 0.37797 0.54339 0.19245 0.0
H536 H 0.48993 0.54328 0.08751 0.0
H537 H 0.31815 0.46703 0.10971 0.0
H538 H 0.41867 0.55266 0.14124 0.0
H539 H 0.39202 0.49537 0.00826 0.0
C540 C 0.43857 0.50842 0.00252 0.0
C541 C 0.4665 0.52149 0.02478 0.0
C542 C 0.39659 0.53401 0.13397 0.0
C543 C 0.41695 0.51747 0.06999 0.0
C544 C 0.37334 0.52871 0.16318 0.0
C545 C 0.34475 0.50403 0.15589 0.0
C546 C 0.39139 0.51464 0.09684 0.0
C547 C 0.3399 0.48622 0.11669 0.0
C548 C 0.41359 0.506 0.02531 0.0
C549 C 0.46877 0.53272 0.06925 0.0
N550 N 0.36313 0.49165 0.08878 0.0
N551 N 0.44443 0.53055 0.09023 0.0
H552 H 1.01102 0.44569 0.61882 0.0
H553 H 0.84601 0.31087 0.65015 0.0
H554 H 0.94524 0.41392 0.51007 0.0
H555 H 0.91923 0.32737 0.74014 0.0
H556 H 0.88179 0.34722 0.59689 0.0
H557 H 0.97741 0.40226 0.66378 0.0
C558 C 0.98955 0.42955 0.60436 0.0
C559 C 0.98088 0.43352 0.56074 0.0
C560 C 0.89004 0.34256 0.62802 0.0
C561 C 0.94225 0.38379 0.612 0.0
C562 C 0.86964 0.32163 0.65824 0.0
C563 C 0.87961 0.31642 0.69997 0.0
C564 C 0.92053 0.35851 0.63986 0.0
C565 C 0.9105 0.33121 0.70883 0.0
C566 C 0.97043 0.40466 0.62992 0.0
C567 C 0.95284 0.41177 0.54359 0.0
N568 N 0.9298 0.35189 0.6794 0.0
N569 N 0.93441 0.38798 0.56942 0.0
H570 H 0.53127 0.96932 0.15473 0.0
H571 H 0.58678 0.85161 0.16144 0.0
H572 H 0.55359 0.94096 0.02914 0.0
H573 H 0.52047 0.84953 0.25275 0.0
H574 H 0.58084 0.88742 0.11353 0.0
H575 H 0.53562 0.93039 0.195 0.0
C576 C 0.53748 0.95516 0.13573 0.0
C577 C 0.542 0.95831 0.08854 0.0
C578 C 0.56739 0.87872 0.1438 0.0
C579 C 0.54687 0.91367 0.13434 0.0
C580 C 0.57057 0.85817 0.17082 0.0
C581 C 0.55445 0.84803 0.21143 0.0
C582 C 0.54833 0.88929 0.15812 0.0
C583 C 0.53382 0.85732 0.22222 0.0
C584 C 0.53964 0.93276 0.15862 0.0
C585 C 0.54979 0.93916 0.06557 0.0
N586 N 0.53174 0.87779 0.19622 0.0
N587 N 0.55211 0.91764 0.08875 0.0
H588 H 0.57656 0.55121 0.59387 0.0
H589 H 0.71471 0.52728 0.56751 0.0
H590 H 0.58083 0.49483 0.48797 0.0
H591 H 0.7205 0.60382 0.63713 0.0
H592 H 0.66806 0.51811 0.53113 0.0
H593 H 0.63028 0.57227 0.60778 0.0
C594 C 0.58875 0.54325 0.57362 0.0
C595 C 0.5741 0.52105 0.54003 0.0
C596 C 0.68001 0.53752 0.5532 0.0
C597 C 0.63552 0.54514 0.55541 0.0
C598 C 0.70696 0.54306 0.57324 0.0
C599 C 0.72128 0.56619 0.6055 0.0
C600 C 0.66725 0.555 0.56624 0.0
C601 C 0.70998 0.58569 0.61244 0.0
C602 C 0.61946 0.55549 0.58118 0.0
C603 C 0.59112 0.51182 0.5144 0.0
N604 N 0.68314 0.57914 0.59412 0.0
N605 N 0.62079 0.52365 0.52293 0.0
H606 H 0.02623 0.59778 0.1146 0.0
H607 H 0.19415 0.72849 0.13262 0.0
H608 H 0.08967 0.61995 0.00577 0.0
H609 H 0.12737 0.71388 0.23273 0.0
H610 H 0.1546 0.69443 0.08015 0.0
H611 H 0.06098 0.64451 0.15347 0.0
C612 C 0.04731 0.61262 0.09861 0.0
C613 C 0.0552 0.6047 0.05719 0.0
C614 C 0.14851 0.69913 0.11323 0.0
C615 C 0.09526 0.65821 0.10167 0.0
C616 C 0.1711 0.71883 0.14305 0.0
C617 C 0.16405 0.7236 0.18738 0.0
C618 C 0.11875 0.68395 0.12807 0.0
C619 C 0.13379 0.7103 0.19916 0.0
C620 C 0.06715 0.63938 0.12077 0.0
C621 C 0.08273 0.62498 0.03787 0.0
N622 N 0.11231 0.69065 0.17005 0.0
N623 N 0.10193 0.65057 0.06059 0.0
loop_
_geom_bond_atom_site_label_1
_geom_bond_atom_site_label_2
_geom_bond_distance
_geom_bond_site_symmetry_2
_ccdc_geom_bond_type
C0 O2 1.247 . S
C0 O4 1.269 . S
C1 O8 1.247 . S
C1 O9 1.258 1_556 S
O2 C0 1.247 . S
O2 Zn3 2.028 1_455 S
Zn3 O2 2.028 1_655 S
Zn3 O7 2.035 . S
Zn3 O9 2.035 . S
Zn3 O10 2.028 1_655 S
O4 C0 1.269 . S
O4 Zn5 2.029 1_554 S
Zn5 O4 2.029 1_556 S
Zn5 O6 2.028 1_455 S
Zn5 O8 2.028 1_455 S
Zn5 O11 2.029 1_556 S
O6 Zn5 2.028 1_655 S
O6 C12 1.247 . S
O7 Zn3 2.035 . S
O7 C12 1.258 1_554 S
O8 C1 1.247 . S
O8 Zn5 2.028 1_655 S
O9 C1 1.258 1_554 S
O9 Zn3 2.035 . S
O10 Zn3 2.028 1_455 S
O10 C13 1.247 . S
O11 Zn5 2.029 1_554 S
O11 C13 1.269 . S
C12 O6 1.247 . S
C12 O7 1.258 1_556 S
C13 O10 1.247 . S
C13 O11 1.269 . S
C14 O16 1.247 . S
C14 O18 1.258 . S
C15 O22 1.247 . S
C15 O23 1.258 . S
O16 C14 1.247 . S
O16 Zn17 2.028 1_545 S
Zn17 O16 2.028 1_565 S
Zn17 O21 2.035 . S
Zn17 O23 2.035 . S
Zn17 O24 2.028 1_565 S
O18 C14 1.258 . S
O18 Zn19 2.035 . S
Zn19 O18 2.035 . S
Zn19 O20 2.028 1_545 S
Zn19 O22 2.028 1_545 S
Zn19 O25 2.035 . S
O20 Zn19 2.028 1_565 S
O20 C26 1.247 . S
O21 Zn17 2.035 . S
O21 C26 1.258 . S
O22 C15 1.247 . S
O22 Zn19 2.028 1_565 S
O23 C15 1.258 . S
O23 Zn17 2.035 . S
O24 Zn17 2.028 1_545 S
O24 C27 1.247 . S
O25 Zn19 2.035 . S
O25 C27 1.258 . S
C26 O20 1.247 . S
C26 O21 1.258 . S
C27 O24 1.247 . S
C27 O25 1.258 . S
C28 O30 1.247 . S
C28 O32 1.258 1_556 S
C29 O36 1.247 . S
C29 O37 1.269 . S
O30 C28 1.247 . S
O30 Zn31 2.028 . S
Zn31 O30 2.028 . S
Zn31 O35 2.028 1_556 S
Zn31 O37 2.028 1_556 S
Zn31 O38 2.028 . S
O32 C28 1.258 1_554 S
O32 Zn33 2.035 . S
Zn33 O32 2.035 . S
Zn33 O34 2.028 . S
Zn33 O36 2.028 . S
Zn33 O39 2.035 . S
O34 Zn33 2.028 . S
O34 C40 1.247 . S
O35 Zn31 2.028 1_554 S
O35 C40 1.269 . S
O36 C29 1.247 . S
O36 Zn33 2.028 . S
O37 C29 1.269 . S
O37 Zn31 2.028 1_554 S
O38 Zn31 2.028 . S
O38 C41 1.247 . S
O39 Zn33 2.035 . S
O39 C41 1.258 1_554 S
C40 O34 1.247 . S
C40 O35 1.269 . S
C41 O38 1.247 . S
C41 O39 1.258 1_556 S
C42 O44 1.247 . S
C42 O46 1.258 . S
C43 O50 1.247 . S
C43 O51 1.258 . S
O44 C42 1.247 . S
O44 Zn45 2.028 . S
Zn45 O44 2.028 . S
Zn45 O49 2.035 1_455 S
Zn45 O51 2.035 1_455 S
Zn45 O52 2.028 . S
O46 C42 1.258 . S
O46 Zn47 2.035 1_455 S
Zn47 O46 2.035 1_655 S
Zn47 O48 2.028 . S
Zn47 O50 2.028 . S
Zn47 O53 2.035 1_655 S
O48 Zn47 2.028 . S
O48 C54 1.247 . S
O49 Zn45 2.035 1_655 S
O49 C54 1.258 . S
O50 C43 1.247 . S
O50 Zn47 2.028 . S
O51 C43 1.258 . S
O51 Zn45 2.035 1_655 S
O52 Zn45 2.028 . S
O52 C55 1.247 . S
O53 Zn47 2.035 1_455 S
O53 C55 1.258 . S
C54 O48 1.247 . S
C54 O49 1.258 . S
C55 O52 1.247 . S
C55 O53 1.258 . S
C56 O58 1.247 . S
C56 O60 1.258 . S
C57 O64 1.247 . S
C57 O65 1.258 1_556 S
O58 C56 1.247 . S
O58 Zn59 2.028 1_565 S
Zn59 O58 2.028 1_545 S
Zn59 O63 2.035 . S
Zn59 O65 2.035 . S
Zn59 O66 2.028 1_545 S
O60 C56 1.258 . S
O60 Zn61 2.035 1_554 S
Zn61 O60 2.035 1_556 S
Zn61 O62 2.028 1_565 S
Zn61 O64 2.028 1_565 S
Zn61 O67 2.035 1_556 S
O62 Zn61 2.028 1_545 S
O62 C68 1.247 . S
O63 Zn59 2.035 . S
O63 C68 1.258 1_554 S
O64 C57 1.247 . S
O64 Zn61 2.028 1_545 S
O65 C57 1.258 1_554 S
O65 Zn59 2.035 . S
O66 Zn59 2.028 1_565 S
O66 C69 1.247 . S
O67 Zn61 2.035 1_554 S
O67 C69 1.258 . S
C68 O62 1.247 . S
C68 O63 1.258 1_556 S
C69 O66 1.247 . S
C69 O67 1.258 . S
C70 O72 1.247 . S
C70 O74 1.258 . S
C71 O78 1.247 . S
C71 O79 1.258 . S
O72 C70 1.247 . S
O72 Zn73 2.028 . S
Zn73 O72 2.028 . S
Zn73 O77 2.035 . S
Zn73 O79 2.035 . S
Zn73 O80 2.028 . S
O74 C70 1.258 . S
O74 Zn75 2.035 . S
Zn75 O74 2.035 . S
Zn75 O76 2.028 . S
Zn75 O78 2.028 . S
Zn75 O81 2.035 . S
O76 Zn75 2.028 . S
O76 C82 1.247 . S
O77 Zn73 2.035 . S
O77 C82 1.258 . S
O78 C71 1.247 . S
O78 Zn75 2.028 . S
O79 C71 1.258 . S
O79 Zn73 2.035 . S
O80 Zn73 2.028 . S
O80 C83 1.247 . S
O81 Zn75 2.035 . S
O81 C83 1.258 . S
C82 O76 1.247 . S
C82 O77 1.258 . S
C83 O80 1.247 . S
C83 O81 1.258 . S
H84 C90 0.930 . S
H85 C93 0.931 . S
H86 C95 0.931 . S
H87 C97 0.930 . S
H88 C99 0.930 . S
H89 C101 0.931 . S
C90 H84 0.930 . S
C90 C91 1.380 . S
C90 C92 1.394 . S
C91 C90 1.380 . S
C91 C95 1.382 . S
C92 C90 1.394 . S
C92 C93 1.400 . S
C93 H85 0.931 . S
C93 C92 1.400 . S
C93 C94 1.375 . S
C94 C93 1.375 . S
C94 C95 1.415 . S
C94 C96 1.501 . S
C95 H86 0.931 . S
C95 C91 1.382 . S
C95 C94 1.415 . S
C96 C94 1.501 . S
C96 C97 1.384 . S
C96 C101 1.408 . S
C97 H87 0.930 . S
C97 C96 1.384 . S
C97 C98 1.389 . S
C98 C97 1.389 . S
C98 C99 1.405 . S
C99 H88 0.930 . S
C99 C98 1.405 . S
C99 C100 1.364 . S
C100 C99 1.364 . S
C100 C101 1.400 . S
C101 H89 0.931 . S
C101 C96 1.408 . S
C101 C100 1.400 . S
H102 C108 0.930 . S
H103 C111 0.931 . S
H104 C113 0.931 . S
H105 C115 0.930 . S
H106 C117 0.930 . S
H107 C119 0.931 . S
C108 H102 0.930 . S
C108 C109 1.380 . S
C108 C110 1.394 . S
C109 C108 1.380 . S
C109 C113 1.382 . S
C110 C108 1.394 . S
C110 C111 1.400 . S
C111 H103 0.931 . S
C111 C110 1.400 . S
C111 C112 1.375 . S
C112 C111 1.375 . S
C112 C113 1.415 . S
C112 C114 1.501 . S
C113 H104 0.931 . S
C113 C109 1.382 . S
C113 C112 1.415 . S
C114 C112 1.501 . S
C114 C115 1.384 . S
C114 C119 1.408 . S
C115 H105 0.930 . S
C115 C114 1.384 . S
C115 C116 1.389 . S
C116 C115 1.389 . S
C116 C117 1.405 . S
C117 H106 0.930 . S
C117 C116 1.405 . S
C117 C118 1.364 . S
C118 C117 1.364 . S
C118 C119 1.400 . S
C119 H107 0.931 . S
C119 C114 1.408 . S
C119 C118 1.400 . S
H120 C126 0.930 . S
H121 C129 0.931 . S
H122 C131 0.931 . S
H123 C133 0.930 . S
H124 C135 0.930 . S
H125 C137 0.931 . S
C126 H120 0.930 . S
C126 C127 1.380 . S
C126 C128 1.394 . S
C127 C126 1.380 . S
C127 C131 1.382 . S
C128 C126 1.394 . S
C128 C129 1.400 . S
C129 H121 0.931 . S
C129 C128 1.400 . S
C129 C130 1.375 . S
C130 C129 1.375 . S
C130 C131 1.415 . S
C130 C132 1.501 . S
C131 H122 0.931 . S
C131 C127 1.382 . S
C131 C130 1.415 . S
C132 C130 1.501 . S
C132 C133 1.384 . S
C132 C137 1.408 . S
C133 H123 0.930 . S
C133 C132 1.384 . S
C133 C134 1.389 . S
C134 C133 1.389 . S
C134 C135 1.405 . S
C135 H124 0.930 . S
C135 C134 1.405 . S
C135 C136 1.364 . S
C136 C135 1.364 . S
C136 C137 1.400 . S
C137 H125 0.931 . S
C137 C132 1.408 . S
C137 C136 1.400 . S
H138 C144 0.930 . S
H139 C147 0.931 . S
H140 C149 0.931 . S
H141 C151 0.930 . S
H142 C153 0.930 . S
H143 C155 0.931 . S
C144 H138 0.930 . S
C144 C145 1.380 . S
C144 C146 1.394 . S
C145 C144 1.380 . S
C145 C149 1.382 . S
C146 C144 1.394 . S
C146 C147 1.400 . S
C147 H139 0.931 . S
C147 C146 1.400 . S
C147 C148 1.375 . S
C148 C147 1.375 . S
C148 C149 1.415 . S
C148 C150 1.501 . S
C149 H140 0.931 . S
C149 C145 1.382 . S
C149 C148 1.415 . S
C150 C148 1.501 . S
C150 C151 1.384 . S
C150 C155 1.408 . S
C151 H141 0.930 . S
C151 C150 1.384 . S
C151 C152 1.389 . S
C152 C151 1.389 . S
C152 C153 1.405 . S
C153 H142 0.930 . S
C153 C152 1.405 . S
C153 C154 1.364 . S
C154 C153 1.364 . S
C154 C155 1.400 . S
C155 H143 0.931 . S
C155 C150 1.408 . S
C155 C154 1.400 . S
H156 C162 0.930 . S
H157 C165 0.931 . S
H158 C167 0.931 . S
H159 C169 0.930 . S
H160 C171 0.930 . S
H161 C173 0.931 . S
C162 H156 0.930 . S
C162 C163 1.380 . S
C162 C164 1.394 . S
C163 C162 1.380 . S
C163 C167 1.382 . S
C164 C162 1.394 . S
C164 C165 1.400 . S
C165 H157 0.931 . S
C165 C164 1.400 . S
C165 C166 1.375 . S
C166 C165 1.375 . S
C166 C167 1.415 . S
C166 C168 1.501 . S
C167 H158 0.931 . S
C167 C163 1.382 . S
C167 C166 1.415 . S
C168 C166 1.501 . S
C168 C169 1.384 . S
C168 C173 1.408 . S
C169 H159 0.930 . S
C169 C168 1.384 . S
C169 C170 1.389 . S
C170 C169 1.389 . S
C170 C171 1.405 . S
C171 H160 0.930 . S
C171 C170 1.405 . S
C171 C172 1.364 . S
C172 C171 1.364 . S
C172 C173 1.400 . S
C173 H161 0.931 . S
C173 C168 1.408 . S
C173 C172 1.400 . S
H174 C180 0.930 . S
H175 C183 0.931 . S
H176 C185 0.931 . S
H177 C187 0.930 . S
H178 C189 0.930 . S
H179 C191 0.931 . S
C180 H174 0.930 . S
C180 C181 1.380 . S
C180 C182 1.394 . S
C181 C180 1.380 . S
C181 C185 1.382 . S
C182 C180 1.394 . S
C182 C183 1.400 . S
C183 H175 0.931 . S
C183 C182 1.400 . S
C183 C184 1.375 . S
C184 C183 1.375 . S
C184 C185 1.415 . S
C184 C186 1.501 . S
C185 H176 0.931 . S
C185 C181 1.382 . S
C185 C184 1.415 . S
C186 C184 1.501 . S
C186 C187 1.384 . S
C186 C191 1.408 . S
C187 H177 0.930 . S
C187 C186 1.384 . S
C187 C188 1.389 . S
C188 C187 1.389 . S
C188 C189 1.405 . S
C189 H178 0.930 . S
C189 C188 1.405 . S
C189 C190 1.364 . S
C190 C189 1.364 . S
C190 C191 1.400 . S
C191 H179 0.931 . S
C191 C186 1.408 . S
C191 C190 1.400 . S
H192 C198 0.930 . S
H193 C202 0.930 . S
H194 C207 0.929 . S
H195 C205 0.929 . S
H196 C200 0.929 . S
H197 C206 0.929 . S
C198 H192 0.930 . S
C198 C199 1.367 . S
C198 C206 1.378 . S
C199 C198 1.367 . S
C199 C207 1.433 . S
C200 H196 0.929 . S
C200 C202 1.378 . S
C200 C204 1.350 . S
C201 C204 1.463 . S
C201 C206 1.350 . S
C201 N209 1.427 . S
C202 H193 0.930 . S
C202 C200 1.378 . S
C202 C203 1.367 . S
C203 C202 1.367 . S
C203 C205 1.433 . S
C204 C200 1.350 . S
C204 C201 1.463 . S
C204 N208 1.427 . S
C205 H195 0.929 . S
C205 C203 1.433 . S
C205 N208 1.384 . S
C206 H197 0.929 . S
C206 C198 1.378 . S
C206 C201 1.350 . S
C207 H194 0.929 . S
C207 C199 1.433 . S
C207 N209 1.384 . S
N208 C204 1.427 . S
N208 C205 1.384 . S
N209 C201 1.427 . S
N209 C207 1.384 . S
H210 C216 0.930 . S
H211 C220 0.930 . S
H212 C225 0.929 . S
H213 C223 0.929 . S
H214 C218 0.929 . S
H215 C224 0.929 . S
C216 H210 0.930 . S
C216 C217 1.367 . S
C216 C224 1.378 . S
C217 C216 1.367 . S
C217 C225 1.433 . S
C218 H214 0.929 . S
C218 C220 1.378 . S
C218 C222 1.350 . S
C219 C222 1.463 . S
C219 C224 1.350 . S
C219 N227 1.427 . S
C220 H211 0.930 . S
C220 C218 1.378 . S
C220 C221 1.367 . S
C221 C220 1.367 . S
C221 C223 1.433 . S
C222 C218 1.350 . S
C222 C219 1.463 . S
C222 N226 1.427 . S
C223 H213 0.929 . S
C223 C221 1.433 . S
C223 N226 1.384 . S
C224 H215 0.929 . S
C224 C216 1.378 . S
C224 C219 1.350 . S
C225 H212 0.929 . S
C225 C217 1.433 . S
C225 N227 1.384 . S
N226 C222 1.427 . S
N226 C223 1.384 . S
N227 C219 1.427 . S
N227 C225 1.384 . S
H228 C234 0.930 . S
H229 C238 0.930 . S
H230 C243 0.929 . S
H231 C241 0.929 . S
H232 C236 0.929 . S
H233 C242 0.929 . S
C234 H228 0.930 . S
C234 C235 1.367 . S
C234 C242 1.378 . S
C235 C234 1.367 . S
C235 C243 1.433 . S
C236 H232 0.929 . S
C236 C238 1.378 . S
C236 C240 1.350 . S
C237 C240 1.463 . S
C237 C242 1.350 . S
C237 N245 1.427 . S
C238 H229 0.930 . S
C238 C236 1.378 . S
C238 C239 1.367 . S
C239 C238 1.367 . S
C239 C241 1.433 . S
C240 C236 1.350 . S
C240 C237 1.463 . S
C240 N244 1.427 . S
C241 H231 0.929 . S
C241 C239 1.433 . S
C241 N244 1.384 . S
C242 H233 0.929 . S
C242 C234 1.378 . S
C242 C237 1.350 . S
C243 H230 0.929 . S
C243 C235 1.433 . S
C243 N245 1.384 . S
N244 C240 1.427 . S
N244 C241 1.384 . S
N245 C237 1.427 . S
N245 C243 1.384 . S
H246 C252 0.930 . S
H247 C256 0.930 . S
H248 C261 0.929 . S
H249 C259 0.929 . S
H250 C254 0.929 . S
H251 C260 0.929 . S
C252 H246 0.930 . S
C252 C253 1.367 . S
C252 C260 1.378 . S
C253 C252 1.367 . S
C253 C261 1.433 . S
C254 H250 0.929 . S
C254 C256 1.378 . S
C254 C258 1.350 . S
C255 C258 1.463 . S
C255 C260 1.350 . S
C255 N263 1.427 . S
C256 H247 0.930 . S
C256 C254 1.378 . S
C256 C257 1.367 . S
C257 C256 1.367 . S
C257 C259 1.433 . S
C258 C254 1.350 . S
C258 C255 1.463 . S
C258 N262 1.427 . S
C259 H249 0.929 . S
C259 C257 1.433 . S
C259 N262 1.384 . S
C260 H251 0.929 . S
C260 C252 1.378 . S
C260 C255 1.350 . S
C261 H248 0.929 . S
C261 C253 1.433 . S
C261 N263 1.384 . S
N262 C258 1.427 . S
N262 C259 1.384 . S
N263 C255 1.427 . S
N263 C261 1.384 . S
H264 C270 0.930 . S
H265 C274 0.930 . S
H266 C279 0.929 . S
H267 C277 0.929 . S
H268 C272 0.929 . S
H269 C278 0.929 . S
C270 H264 0.930 . S
C270 C271 1.367 . S
C270 C278 1.378 . S
C271 C270 1.367 . S
C271 C279 1.433 . S
C272 H268 0.929 . S
C272 C274 1.378 . S
C272 C276 1.350 . S
C273 C276 1.463 . S
C273 C278 1.350 . S
C273 N281 1.427 . S
C274 H265 0.930 . S
C274 C272 1.378 . S
C274 C275 1.367 . S
C275 C274 1.367 . S
C275 C277 1.433 . S
C276 C272 1.350 . S
C276 C273 1.463 . S
C276 N280 1.427 . S
C277 H267 0.929 . S
C277 C275 1.433 . S
C277 N280 1.384 . S
C278 H269 0.929 . S
C278 C270 1.378 . S
C278 C273 1.350 . S
C279 H266 0.929 . S
C279 C271 1.433 . S
C279 N281 1.384 . S
N280 C276 1.427 . S
N280 C277 1.384 . S
N281 C273 1.427 . S
N281 C279 1.384 . S
H282 C288 0.930 . S
H283 C292 0.930 . S
H284 C297 0.929 . S
H285 C295 0.929 . S
H286 C290 0.929 . S
H287 C296 0.929 . S
C288 H282 0.930 . S
C288 C289 1.367 . S
C288 C296 1.378 . S
C289 C288 1.367 . S
C289 C297 1.433 . S
C290 H286 0.929 . S
C290 C292 1.378 . S
C290 C294 1.350 . S
C291 C294 1.463 . S
C291 C296 1.350 . S
C291 N299 1.427 . S
C292 H283 0.930 . S
C292 C290 1.378 . S
C292 C293 1.367 . S
C293 C292 1.367 . S
C293 C295 1.433 . S
C294 C290 1.350 . S
C294 C291 1.463 . S
C294 N298 1.427 . S
C295 H285 0.929 . S
C295 C293 1.433 . S
C295 N298 1.384 . S
C296 H287 0.929 . S
C296 C288 1.378 . S
C296 C291 1.350 . S
C297 H284 0.929 . S
C297 C289 1.433 . S
C297 N299 1.384 . S
N298 C294 1.427 . S
N298 C295 1.384 . S
N299 C291 1.427 . S
N299 C297 1.384 . S
H300 C306 0.930 . S
H301 C310 0.930 . S
H302 C315 0.929 . S
H303 C313 0.929 . S
H304 C308 0.929 . S
H305 C314 0.929 . S
C306 H300 0.930 . S
C306 C307 1.367 . S
C306 C314 1.378 . S
C307 C306 1.367 . S
C307 C315 1.433 . S
C308 H304 0.929 . S
C308 C310 1.378 . S
C308 C312 1.350 . S
C309 C312 1.463 . S
C309 C314 1.350 . S
C309 N317 1.427 . S
C310 H301 0.930 . S
C310 C308 1.378 . S
C310 C311 1.367 . S
C311 C310 1.367 . S
C311 C313 1.433 . S
C312 C308 1.350 . S
C312 C309 1.463 . S
C312 N316 1.427 . S
C313 H303 0.929 . S
C313 C311 1.433 . S
C313 N316 1.384 . S
C314 H305 0.929 . S
C314 C306 1.378 . S
C314 C309 1.350 . S
C315 H302 0.929 . S
C315 C307 1.433 . S
C315 N317 1.384 . S
N316 C312 1.427 . S
N316 C313 1.384 . S
N317 C309 1.427 . S
N317 C315 1.384 . S
H318 C324 0.930 . S
H319 C328 0.930 . S
H320 C333 0.929 . S
H321 C331 0.929 . S
H322 C326 0.929 . S
H323 C332 0.929 . S
C324 H318 0.930 . S
C324 C325 1.367 . S
C324 C332 1.378 . S
C325 C324 1.367 . S
C325 C333 1.433 . S
C326 H322 0.929 . S
C326 C328 1.378 . S
C326 C330 1.350 . S
C327 C330 1.463 . S
C327 C332 1.350 . S
C327 N335 1.427 . S
C328 H319 0.930 . S
C328 C326 1.378 . S
C328 C329 1.367 . S
C329 C328 1.367 . S
C329 C331 1.433 . S
C330 C326 1.350 . S
C330 C327 1.463 . S
C330 N334 1.427 . S
C331 H321 0.929 . S
C331 C329 1.433 . S
C331 N334 1.384 . S
C332 H323 0.929 . S
C332 C324 1.378 . S
C332 C327 1.350 . S
C333 H320 0.929 . S
C333 C325 1.433 . S
C333 N335 1.384 . S
N334 C330 1.427 . S
N334 C331 1.384 . S
N335 C327 1.427 . S
N335 C333 1.384 . S
H336 C342 0.930 . S
H337 C346 0.930 . S
H338 C351 0.929 . S
H339 C349 0.929 . S
H340 C344 0.929 . S
H341 C350 0.929 . S
C342 H336 0.930 . S
C342 C343 1.367 . S
C342 C350 1.378 . S
C343 C342 1.367 . S
C343 C351 1.433 . S
C344 H340 0.929 . S
C344 C346 1.378 . S
C344 C348 1.350 . S
C345 C348 1.463 . S
C345 C350 1.350 . S
C345 N353 1.427 . S
C346 H337 0.930 . S
C346 C344 1.378 . S
C346 C347 1.367 . S
C347 C346 1.367 . S
C347 C349 1.433 . S
C348 C344 1.350 . S
C348 C345 1.463 . S
C348 N352 1.427 . S
C349 H339 0.929 . S
C349 C347 1.433 . S
C349 N352 1.384 . S
C350 H341 0.929 . S
C350 C342 1.378 . S
C350 C345 1.350 . S
C351 H338 0.929 . S
C351 C343 1.433 . S
C351 N353 1.384 . S
N352 C348 1.427 . S
N352 C349 1.384 . S
N353 C345 1.427 . S
N353 C351 1.384 . S
H354 C360 0.930 . S
H355 C364 0.930 . S
H356 C369 0.929 . S
H357 C367 0.929 . S
H358 C362 0.929 . S
H359 C368 0.929 . S
C360 H354 0.930 . S
C360 C361 1.367 . S
C360 C368 1.378 . S
C361 C360 1.367 . S
C361 C369 1.433 . S
C362 H358 0.929 . S
C362 C364 1.378 . S
C362 C366 1.350 . S
C363 C366 1.463 . S
C363 C368 1.350 . S
C363 N371 1.427 . S
C364 H355 0.930 . S
C364 C362 1.378 . S
C364 C365 1.367 . S
C365 C364 1.367 . S
C365 C367 1.433 . S
C366 C362 1.350 . S
C366 C363 1.463 . S
C366 N370 1.427 . S
C367 H357 0.929 . S
C367 C365 1.433 . S
C367 N370 1.384 . S
C368 H359 0.929 . S
C368 C360 1.378 . S
C368 C363 1.350 . S
C369 H356 0.929 . S
C369 C361 1.433 . S
C369 N371 1.384 . S
N370 C366 1.427 . S
N370 C367 1.384 . S
N371 C363 1.427 . S
N371 C369 1.384 . S
H372 C378 0.930 . S
H373 C382 0.930 . S
H374 C387 0.929 . S
H375 C385 0.929 . S
H376 C380 0.929 . S
H377 C386 0.929 . S
C378 H372 0.930 . S
C378 C379 1.367 . S
C378 C386 1.378 . S
C379 C378 1.367 . S
C379 C387 1.433 . S
C380 H376 0.929 . S
C380 C382 1.378 . S
C380 C384 1.350 . S
C381 C384 1.463 . S
C381 C386 1.350 . S
C381 N389 1.427 . S
C382 H373 0.930 . S
C382 C380 1.378 . S
C382 C383 1.367 . S
C383 C382 1.367 . S
C383 C385 1.433 . S
C384 C380 1.350 . S
C384 C381 1.463 . S
C384 N388 1.427 . S
C385 H375 0.929 . S
C385 C383 1.433 . S
C385 N388 1.384 . S
C386 H377 0.929 . S
C386 C378 1.378 . S
C386 C381 1.350 . S
C387 H374 0.929 . S
C387 C379 1.433 . S
C387 N389 1.384 . S
N388 C384 1.427 . S
N388 C385 1.384 . S
N389 C381 1.427 . S
N389 C387 1.384 . S
H390 C396 0.930 . S
H391 C400 0.930 . S
H392 C405 0.929 . S
H393 C403 0.929 . S
H394 C398 0.929 . S
H395 C404 0.929 . S
C396 H390 0.930 . S
C396 C397 1.367 . S
C396 C404 1.378 . S
C397 C396 1.367 . S
C397 C405 1.433 . S
C398 H394 0.929 . S
C398 C400 1.378 . S
C398 C402 1.350 . S
C399 C402 1.463 . S
C399 C404 1.350 . S
C399 N407 1.427 . S
C400 H391 0.930 . S
C400 C398 1.378 . S
C400 C401 1.367 . S
C401 C400 1.367 . S
C401 C403 1.433 . S
C402 C398 1.350 . S
C402 C399 1.463 . S
C402 N406 1.427 . S
C403 H393 0.929 . S
C403 C401 1.433 . S
C403 N406 1.384 . S
C404 H395 0.929 . S
C404 C396 1.378 . S
C404 C399 1.350 . S
C405 H392 0.929 . S
C405 C397 1.433 . S
C405 N407 1.384 . S
N406 C402 1.427 . S
N406 C403 1.384 . S
N407 C399 1.427 . S
N407 C405 1.384 . S
H408 C414 0.930 . S
H409 C418 0.930 . S
H410 C423 0.929 . S
H411 C421 0.929 . S
H412 C416 0.929 . S
H413 C422 0.929 . S
C414 H408 0.930 . S
C414 C415 1.367 . S
C414 C422 1.378 . S
C415 C414 1.367 . S
C415 C423 1.433 . S
C416 H412 0.929 . S
C416 C418 1.378 . S
C416 C420 1.350 . S
C417 C420 1.463 . S
C417 C422 1.350 . S
C417 N425 1.427 . S
C418 H409 0.930 . S
C418 C416 1.378 . S
C418 C419 1.367 . S
C419 C418 1.367 . S
C419 C421 1.433 . S
C420 C416 1.350 . S
C420 C417 1.463 . S
C420 N424 1.427 . S
C421 H411 0.929 . S
C421 C419 1.433 . S
C421 N424 1.384 . S
C422 H413 0.929 . S
C422 C414 1.378 . S
C422 C417 1.350 . S
C423 H410 0.929 . S
C423 C415 1.433 . S
C423 N425 1.384 . S
N424 C420 1.427 . S
N424 C421 1.384 . S
N425 C417 1.427 . S
N425 C423 1.384 . S
H426 C432 0.930 . S
H427 C436 0.930 . S
H428 C441 0.929 . S
H429 C439 0.929 . S
H430 C434 0.929 . S
H431 C440 0.929 . S
C432 H426 0.930 . S
C432 C433 1.367 . S
C432 C440 1.378 . S
C433 C432 1.367 . S
C433 C441 1.433 . S
C434 H430 0.929 . S
C434 C436 1.378 . S
C434 C438 1.350 . S
C435 C438 1.463 . S
C435 C440 1.350 . S
C435 N443 1.427 . S
C436 H427 0.930 . S
C436 C434 1.378 . S
C436 C437 1.367 . S
C437 C436 1.367 . S
C437 C439 1.433 . S
C438 C434 1.350 . S
C438 C435 1.463 . S
C438 N442 1.427 . S
C439 H429 0.929 . S
C439 C437 1.433 . S
C439 N442 1.384 . S
C440 H431 0.929 . S
C440 C432 1.378 . S
C440 C435 1.350 . S
C441 H428 0.929 . S
C441 C433 1.433 . S
C441 N443 1.384 . S
N442 C438 1.427 . S
N442 C439 1.384 . S
N443 C435 1.427 . S
N443 C441 1.384 . S
H444 C450 0.930 . S
H445 C454 0.930 . S
H446 C459 0.929 . S
H447 C457 0.929 . S
H448 C452 0.929 . S
H449 C458 0.929 . S
C450 H444 0.930 . S
C450 C451 1.367 . S
C450 C458 1.378 . S
C451 C450 1.367 . S
C451 C459 1.433 . S
C452 H448 0.929 . S
C452 C454 1.378 . S
C452 C456 1.350 . S
C453 C456 1.463 . S
C453 C458 1.350 . S
C453 N461 1.427 . S
C454 H445 0.930 . S
C454 C452 1.378 . S
C454 C455 1.367 . S
C455 C454 1.367 . S
C455 C457 1.433 . S
C456 C452 1.350 . S
C456 C453 1.463 . S
C456 N460 1.427 . S
C457 H447 0.929 . S
C457 C455 1.433 . S
C457 N460 1.384 . S
C458 H449 0.929 . S
C458 C450 1.378 . S
C458 C453 1.350 . S
C459 H446 0.929 . S
C459 C451 1.433 . S
C459 N461 1.384 . S
N460 C456 1.427 . S
N460 C457 1.384 . S
N461 C453 1.427 . S
N461 C459 1.384 . S
H462 C468 0.930 . S
H463 C472 0.930 . S
H464 C477 0.929 . S
H465 C475 0.929 . S
H466 C470 0.929 . S
H467 C476 0.929 . S
C468 H462 0.930 . S
C468 C469 1.367 . S
C468 C476 1.378 . S
C469 C468 1.367 . S
C469 C477 1.433 . S
C470 H466 0.929 . S
C470 C472 1.378 . S
C470 C474 1.350 . S
C471 C474 1.463 . S
C471 C476 1.350 . S
C471 N479 1.427 . S
C472 H463 0.930 . S
C472 C470 1.378 . S
C472 C473 1.367 . S
C473 C472 1.367 . S
C473 C475 1.433 . S
C474 C470 1.350 . S
C474 C471 1.463 . S
C474 N478 1.427 . S
C475 H465 0.929 . S
C475 C473 1.433 . S
C475 N478 1.384 . S
C476 H467 0.929 . S
C476 C468 1.378 . S
C476 C471 1.350 . S
C477 H464 0.929 . S
C477 C469 1.433 . S
C477 N479 1.384 . S
N478 C474 1.427 . S
N478 C475 1.384 . S
N479 C471 1.427 . S
N479 C477 1.384 . S
H480 C486 0.930 . S
H481 C490 0.930 . S
H482 C495 0.929 . S
H483 C493 0.929 . S
H484 C488 0.929 . S
H485 C494 0.929 . S
C486 H480 0.930 . S
C486 C487 1.367 . S
C486 C494 1.378 . S
C487 C486 1.367 . S
C487 C495 1.433 . S
C488 H484 0.929 . S
C488 C490 1.378 . S
C488 C492 1.350 . S
C489 C492 1.463 . S
C489 C494 1.350 . S
C489 N497 1.427 . S
C490 H481 0.930 . S
C490 C488 1.378 . S
C490 C491 1.367 . S
C491 C490 1.367 . S
C491 C493 1.433 . S
C492 C488 1.350 . S
C492 C489 1.463 . S
C492 N496 1.427 . S
C493 H483 0.929 . S
C493 C491 1.433 . S
C493 N496 1.384 . S
C494 H485 0.929 . S
C494 C486 1.378 . S
C494 C489 1.350 . S
C495 H482 0.929 . S
C495 C487 1.433 . S
C495 N497 1.384 . S
N496 C492 1.427 . S
N496 C493 1.384 . S
N497 C489 1.427 . S
N497 C495 1.384 . S
H498 C504 0.930 . S
H499 C508 0.930 . S
H500 C513 0.929 . S
H501 C511 0.929 . S
H502 C506 0.929 . S
H503 C512 0.929 . S
C504 H498 0.930 . S
C504 C505 1.367 . S
C504 C512 1.378 . S
C505 C504 1.367 . S
C505 C513 1.433 . S
C506 H502 0.929 . S
C506 C508 1.378 . S
C506 C510 1.350 . S
C507 C510 1.463 . S
C507 C512 1.350 . S
C507 N515 1.427 . S
C508 H499 0.930 . S
C508 C506 1.378 . S
C508 C509 1.367 . S
C509 C508 1.367 . S
C509 C511 1.433 . S
C510 C506 1.350 . S
C510 C507 1.463 . S
C510 N514 1.427 . S
C511 H501 0.929 . S
C511 C509 1.433 . S
C511 N514 1.384 . S
C512 H503 0.929 . S
C512 C504 1.378 . S
C512 C507 1.350 . S
C513 H500 0.929 . S
C513 C505 1.433 . S
C513 N515 1.384 . S
N514 C510 1.427 . S
N514 C511 1.384 . S
N515 C507 1.427 . S
N515 C513 1.384 . S
H516 C522 0.930 . S
H517 C526 0.930 . S
H518 C531 0.929 . S
H519 C529 0.929 . S
H520 C524 0.929 . S
H521 C530 0.929 . S
C522 H516 0.930 . S
C522 C523 1.367 . S
C522 C530 1.378 . S
C523 C522 1.367 . S
C523 C531 1.433 . S
C524 H520 0.929 . S
C524 C526 1.378 . S
C524 C528 1.350 . S
C525 C528 1.463 . S
C525 C530 1.350 . S
C525 N533 1.427 . S
C526 H517 0.930 . S
C526 C524 1.378 . S
C526 C527 1.367 . S
C527 C526 1.367 . S
C527 C529 1.433 . S
C528 C524 1.350 . S
C528 C525 1.463 . S
C528 N532 1.427 . S
C529 H519 0.929 . S
C529 C527 1.433 . S
C529 N532 1.384 . S
C530 H521 0.929 . S
C530 C522 1.378 . S
C530 C525 1.350 . S
C531 H518 0.929 . S
C531 C523 1.433 . S
C531 N533 1.384 . S
N532 C528 1.427 . S
N532 C529 1.384 . S
N533 C525 1.427 . S
N533 C531 1.384 . S
H534 C540 0.930 . S
H535 C544 0.930 . S
H536 C549 0.929 . S
H537 C547 0.929 . S
H538 C542 0.929 . S
H539 C548 0.929 . S
C540 H534 0.930 . S
C540 C541 1.367 . S
C540 C548 1.378 . S
C541 C540 1.367 . S
C541 C549 1.433 . S
C542 H538 0.929 . S
C542 C544 1.378 . S
C542 C546 1.350 . S
C543 C546 1.463 . S
C543 C548 1.350 . S
C543 N551 1.427 . S
C544 H535 0.930 . S
C544 C542 1.378 . S
C544 C545 1.367 . S
C545 C544 1.367 . S
C545 C547 1.433 . S
C546 C542 1.350 . S
C546 C543 1.463 . S
C546 N550 1.427 . S
C547 H537 0.929 . S
C547 C545 1.433 . S
C547 N550 1.384 . S
C548 H539 0.929 . S
C548 C540 1.378 . S
C548 C543 1.350 . S
C549 H536 0.929 . S
C549 C541 1.433 . S
C549 N551 1.384 . S
N550 C546 1.427 . S
N550 C547 1.384 . S
N551 C543 1.427 . S
N551 C549 1.384 . S
H552 C558 0.930 . S
H553 C562 0.930 . S
H554 C567 0.929 . S
H555 C565 0.929 . S
H556 C560 0.929 . S
H557 C566 0.929 . S
C558 H552 0.930 . S
C558 C559 1.367 . S
C558 C566 1.378 . S
C559 C558 1.367 . S
C559 C567 1.433 . S
C560 H556 0.929 . S
C560 C562 1.378 . S
C560 C564 1.350 . S
C561 C564 1.463 . S
C561 C566 1.350 . S
C561 N569 1.427 . S
C562 H553 0.930 . S
C562 C560 1.378 . S
C562 C563 1.367 . S
C563 C562 1.367 . S
C563 C565 1.433 . S
C564 C560 1.350 . S
C564 C561 1.463 . S
C564 N568 1.427 . S
C565 H555 0.929 . S
C565 C563 1.433 . S
C565 N568 1.384 . S
C566 H557 0.929 . S
C566 C558 1.378 . S
C566 C561 1.350 . S
C567 H554 0.929 . S
C567 C559 1.433 . S
C567 N569 1.384 . S
N568 C564 1.427 . S
N568 C565 1.384 . S
N569 C561 1.427 . S
N569 C567 1.384 . S
H570 C576 0.930 . S
H571 C580 0.930 . S
H572 C585 0.929 . S
H573 C583 0.929 . S
H574 C578 0.929 . S
H575 C584 0.929 . S
C576 H570 0.930 . S
C576 C577 1.367 . S
C576 C584 1.378 . S
C577 C576 1.367 . S
C577 C585 1.433 . S
C578 H574 0.929 . S
C578 C580 1.378 . S
C578 C582 1.350 . S
C579 C582 1.463 . S
C579 C584 1.350 . S
C579 N587 1.427 . S
C580 H571 0.930 . S
C580 C578 1.378 . S
C580 C581 1.367 . S
C581 C580 1.367 . S
C581 C583 1.433 . S
C582 C578 1.350 . S
C582 C579 1.463 . S
C582 N586 1.427 . S
C583 H573 0.929 . S
C583 C581 1.433 . S
C583 N586 1.384 . S
C584 H575 0.929 . S
C584 C576 1.378 . S
C584 C579 1.350 . S
C585 H572 0.929 . S
C585 C577 1.433 . S
C585 N587 1.384 . S
N586 C582 1.427 . S
N586 C583 1.384 . S
N587 C579 1.427 . S
N587 C585 1.384 . S
H588 C594 0.930 . S
H589 C598 0.930 . S
H590 C603 0.929 . S
H591 C601 0.929 . S
H592 C596 0.929 . S
H593 C602 0.929 . S
C594 H588 0.930 . S
C594 C595 1.367 . S
C594 C602 1.378 . S
C595 C594 1.367 . S
C595 C603 1.433 . S
C596 H592 0.929 . S
C596 C598 1.378 . S
C596 C600 1.350 . S
C597 C600 1.463 . S
C597 C602 1.350 . S
C597 N605 1.427 . S
C598 H589 0.930 . S
C598 C596 1.378 . S
C598 C599 1.367 . S
C599 C598 1.367 . S
C599 C601 1.433 . S
C600 C596 1.350 . S
C600 C597 1.463 . S
C600 N604 1.427 . S
C601 H591 0.929 . S
C601 C599 1.433 . S
C601 N604 1.384 . S
C602 H593 0.929 . S
C602 C594 1.378 . S
C602 C597 1.350 . S
C603 H590 0.929 . S
C603 C595 1.433 . S
C603 N605 1.384 . S
N604 C600 1.427 . S
N604 C601 1.384 . S
N605 C597 1.427 . S
N605 C603 1.384 . S
H606 C612 0.930 . S
H607 C616 0.930 . S
H608 C621 0.929 . S
H609 C619 0.929 . S
H610 C614 0.929 . S
H611 C620 0.929 . S
C612 H606 0.930 . S
C612 C613 1.367 . S
C612 C620 1.378 . S
C613 C612 1.367 . S
C613 C621 1.433 . S
C614 H610 0.929 . S
C614 C616 1.378 . S
C614 C618 1.350 . S
C615 C618 1.463 . S
C615 C620 1.350 . S
C615 N623 1.427 . S
C616 H607 0.930 . S
C616 C614 1.378 . S
C616 C617 1.367 . S
C617 C616 1.367 . S
C617 C619 1.433 . S
C618 C614 1.350 . S
C618 C615 1.463 . S
C618 N622 1.427 . S
C619 H609 0.929 . S
C619 C617 1.433 . S
C619 N622 1.384 . S
C620 H611 0.929 . S
C620 C612 1.378 . S
C620 C615 1.350 . S
C621 H608 0.929 . S
C621 C613 1.433 . S
C621 N623 1.384 . S
N622 C618 1.427 . S
N622 C619 1.384 . S
N623 C615 1.427 . S
N623 C621 1.384 . S
C199 C13 1.589 . S
C203 C98 1.503 . S
C217 C27 1.596 . S
C221 C109 1.532 . S
C239 C128 1.510 . S
C235 C29 1.588 . S
C257 C145 1.529 . S
C253 C54 1.593 . S
C275 C172 1.529 . S
C271 C69 1.586 . S
C293 C181 1.517 . S
C289 C83 1.596 . S
C307 C15 1.591 . S
C311 C134 1.512 . S
C325 C41 1.592 . S
C329 C154 1.526 . S
C347 C163 1.511 . S
C343 C42 1.590 . S
C365 C190 1.524 . S
C361 C57 1.592 . S
C379 C71 1.587 . S
C383 C92 1.516 . S
C401 C118 1.522 . S
C397 C1 1.591 . S
C419 C146 1.560 . S
C415 C12 1.646 . S
C433 C26 1.656 . S
C437 C170 1.566 . S
C455 C182 1.552 . S
C451 C28 1.645 . S
C469 C55 1.656 . S
C473 C100 1.536 . S
C487 C68 1.646 . S
C491 C110 1.552 . S
C505 C82 1.658 . S
C509 C127 1.560 . S
C523 C14 1.651 . S
C527 C188 1.559 . S
C545 C91 1.542 . S
C541 C40 1.652 . S
C559 C43 1.653 . S
C563 C116 1.565 . S
C577 C56 1.654 . S
C581 C136 1.548 . S
C595 C70 1.650 . S
C599 C152 1.559 . S
C613 C0 1.649 . S
C617 C164 1.557 . S
