# Generated by pormake.
# Topology dag, (6,3)-cn, num edge types: 1
# Building blocks:
#     Node 0, Type 0, BuildingBlock: OJICUG_clean_sbu_0, # of connection points: 6
#     Node 1, Type 0, BuildingBlock: OJICUG_clean_sbu_0, # of connection points: 6
#     Node 2, Type 0, BuildingBlock: OJICUG_clean_sbu_0, # of connection points: 6
#     Node 3, Type 0, BuildingBlock: OJICUG_clean_sbu_0, # of connection points: 6
#     Node 4, Type 1, BuildingBlock: KAKCAD_clean_linker_0, # of connection points: 3
#     Node 5, Type 1, BuildingBlock: KAKCAD_clean_linker_0, # of connection points: 3
#     Node 6, Type 1, BuildingBlock: KAKCAD_clean_linker_0, # of connection points: 3
#     Node 7, Type 1, BuildingBlock: KAKCAD_clean_linker_0, # of connection points: 3
#     Node 8, Type 1, BuildingBlock: KAKCAD_clean_linker_0, # of connection points: 3
#     Node 9, Type 1, BuildingBlock: KAKCAD_clean_linker_0, # of connection points: 3
#     Node 10, Type 1, BuildingBlock: KAKCAD_clean_linker_0, # of connection points: 3
#     Node 11, Type 1, BuildingBlock: KAKCAD_clean_linker_0, # of connection points: 3
#     Edge 12, Type (0, 1), BuildingBlock: CIFDUS_clean_linker_0, # of connection points: 2
#     Edge 13, Type (0, 1), BuildingBlock: CIFDUS_clean_linker_0, # of connection points: 2
#     Edge 14, Type (0, 1), BuildingBlock: CIFDUS_clean_linker_0, # of connection points: 2
#     Edge 15, Type (0, 1), BuildingBlock: CIFDUS_clean_linker_0, # of connection points: 2
#     Edge 16, Type (0, 1), BuildingBlock: CIFDUS_clean_linker_0, # of connection points: 2
#     Edge 17, Type (0, 1), BuildingBlock: CIFDUS_clean_linker_0, # of connection points: 2
#     Edge 18, Type (0, 1), BuildingBlock: CIFDUS_clean_linker_0, # of connection points: 2
#     Edge 19, Type (0, 1), BuildingBlock: CIFDUS_clean_linker_0, # of connection points: 2
#     Edge 20, Type (0, 1), BuildingBlock: CIFDUS_clean_linker_0, # of connection points: 2
#     Edge 21, Type (0, 1), BuildingBlock: CIFDUS_clean_linker_0, # of connection points: 2
#     Edge 22, Type (0, 1), BuildingBlock: CIFDUS_clean_linker_0, # of connection points: 2
#     Edge 23, Type (0, 1), BuildingBlock: CIFDUS_clean_linker_0, # of connection points: 2
#     Edge 24, Type (0, 1), BuildingBlock: CIFDUS_clean_linker_0, # of connection points: 2
#     Edge 25, Type (0, 1), BuildingBlock: CIFDUS_clean_linker_0, # of connection points: 2
#     Edge 26, Type (0, 1), BuildingBlock: CIFDUS_clean_linker_0, # of connection points: 2
#     Edge 27, Type (0, 1), BuildingBlock: CIFDUS_clean_linker_0, # of connection points: 2
#     Edge 28, Type (0, 1), BuildingBlock: CIFDUS_clean_linker_0, # of connection points: 2
#     Edge 29, Type (0, 1), BuildingBlock: CIFDUS_clean_linker_0, # of connection points: 2
#     Edge 30, Type (0, 1), BuildingBlock: CIFDUS_clean_linker_0, # of connection points: 2
#     Edge 31, Type (0, 1), BuildingBlock: CIFDUS_clean_linker_0, # of connection points: 2
#     Edge 32, Type (0, 1), BuildingBlock: CIFDUS_clean_linker_0, # of connection points: 2
#     Edge 33, Type (0, 1), BuildingBlock: CIFDUS_clean_linker_0, # of connection points: 2
#     Edge 34, Type (0, 1), BuildingBlock: CIFDUS_clean_linker_0, # of connection points: 2
#     Edge 35, Type (0, 1), BuildingBlock: CIFDUS_clean_linker_0, # of connection points: 2
# Relax obj value: 0.252
# Max RMSD: 0.199
# Mean RMSD: 0.164
data_MOF--net-dag--node1-OJICUG_clean_sbu_0--node2-KAKCAD_clean_linker_0--edge1-CIFDUS_clean_linker_0
_symmetry_space_group_name_H-M    P1
_symmetry_Int_Tables_number       1
_symmetry_cell_setting            triclinic
loop_
_symmetry_equiv_pos_as_xyz
'x, y, z'
_cell_length_a     39.71474
_cell_length_b     41.494658
_cell_length_c     40.741934
_cell_angle_alpha  95.158494
_cell_angle_beta   90.134138
_cell_angle_gamma 90.069868
loop_
_atom_site_label
_atom_site_type_symbol
_atom_site_fract_x
_atom_site_fract_y
_atom_site_fract_z
_atom_type_partial_charge
Sc0 Sc 0.11742 0.87262 0.04895 0.0
Sc1 Sc 0.13399 0.78972 0.04081 0.0
Sc2 Sc 0.19224 0.84489 0.0807 0.0
O3 O 0.14799 0.83551 0.05676 0.0
C4 C 0.18989 0.90553 0.04152 0.0
C5 C 0.11678 0.83154 0.98002 0.0
C6 C 0.21263 0.78824 0.02604 0.0
C7 C 0.06251 0.81777 0.05884 0.0
C8 C 0.13947 0.89158 0.1215 0.0
C9 C 0.16417 0.78303 0.11273 0.0
O10 O 0.15798 0.90601 0.0432 0.0
O11 O 0.11904 0.80459 0.99285 0.0
O12 O 0.22052 0.81023 0.04855 0.0
O13 O 0.0716 0.84608 0.05338 0.0
O14 O 0.16927 0.88102 0.11582 0.0
O15 O 0.14784 0.77138 0.08738 0.0
O16 O 0.1155 0.88712 0.10081 0.0
O17 O 0.08318 0.79453 0.05914 0.0
O18 O 0.18042 0.80953 0.11409 0.0
O19 O 0.11833 0.8589 0.99693 0.0
O20 O 0.20725 0.88178 0.04952 0.0
O21 O 0.1825 0.77937 0.02002 0.0
Sc22 Sc 0.69026 0.65886 0.47666 0.0
Sc23 Sc 0.63702 0.72146 0.51197 0.0
Sc24 Sc 0.61986 0.63978 0.52264 0.0
O25 O 0.64912 0.67348 0.50379 0.0
C26 C 0.63662 0.60578 0.45088 0.0
C27 C 0.66396 0.71763 0.43791 0.0
C28 C 0.56609 0.68812 0.49516 0.0
C29 C 0.71694 0.72019 0.52265 0.0
C30 C 0.69231 0.61048 0.53359 0.0
C31 C 0.61815 0.69595 0.58112 0.0
O32 O 0.66258 0.6227 0.44614 0.0
O33 O 0.64755 0.73128 0.46199 0.0
O34 O 0.57528 0.66104 0.50443 0.0
O35 O 0.72131 0.69375 0.50476 0.0
O36 O 0.6618 0.61508 0.54193 0.0
O37 O 0.62444 0.7188 0.56332 0.0
O38 O 0.70574 0.62359 0.50979 0.0
O39 O 0.68812 0.73335 0.52743 0.0
O40 O 0.61619 0.66654 0.5699 0.0
O41 O 0.68035 0.69161 0.43982 0.0
O42 O 0.62 0.60877 0.47757 0.0
O43 O 0.58505 0.713 0.49668 0.0
Sc44 Sc 0.85603 0.22394 0.99766 0.0
Sc45 Sc 0.8056 0.15611 0.97468 0.0
Sc46 Sc 0.88392 0.14606 0.00992 0.0
O47 O 0.84849 0.17553 0.99406 0.0
C48 C 0.92805 0.19492 0.9745 0.0
C49 C 0.82054 0.21323 0.92853 0.0
C50 C 0.85712 0.10553 0.94476 0.0
C51 C 0.77862 0.21693 0.01794 0.0
C52 C 0.88813 0.20679 0.06392 0.0
C53 C 0.81951 0.11313 0.035 0.0
O54 O 0.90894 0.21888 0.9833 0.0
O55 O 0.80288 0.18989 0.93738 0.0
O56 O 0.87475 0.10826 0.97093 0.0
O57 O 0.80422 0.23423 0.01247 0.0
O58 O 0.89832 0.17953 0.05104 0.0
O59 O 0.80283 0.11947 0.00959 0.0
O60 O 0.86861 0.22504 0.04926 0.0
O61 O 0.77639 0.18698 0.00848 0.0
O62 O 0.84873 0.12463 0.04139 0.0
O63 O 0.84368 0.2267 0.94654 0.0
O64 O 0.92068 0.16588 0.97924 0.0
O65 O 0.8327 0.12416 0.9397 0.0
Sc66 Sc 0.37115 0.37057 0.54015 0.0
Sc67 Sc 0.30344 0.33112 0.57439 0.0
Sc68 Sc 0.36544 0.28571 0.52804 0.0
O69 O 0.34663 0.32904 0.54746 0.0
C70 C 0.37746 0.33131 0.46964 0.0
C71 C 0.29399 0.39174 0.53361 0.0
C72 C 0.28677 0.27529 0.51708 0.0
C73 C 0.34944 0.38458 0.61483 0.0
C74 C 0.43252 0.32275 0.55124 0.0
C75 C 0.34088 0.27035 0.59979 0.0
O76 O 0.37503 0.35758 0.48811 0.0
O77 O 0.28139 0.36795 0.5469 0.0
O78 O 0.31724 0.27018 0.50878 0.0
O79 O 0.36988 0.38715 0.59133 0.0
O80 O 0.41606 0.29663 0.54502 0.0
O81 O 0.32165 0.29481 0.60409 0.0
O82 O 0.4197 0.35054 0.54936 0.0
O83 O 0.3232 0.36688 0.61183 0.0
O84 O 0.35692 0.26283 0.57317 0.0
O85 O 0.3255 0.39625 0.53104 0.0
O86 O 0.37582 0.30358 0.48067 0.0
O87 O 0.27817 0.29546 0.54095 0.0
C88 C 0.00173 0.21245 0.253 0.0
C89 C 0.97176 0.20103 0.2377 0.0
C90 C 0.0149 0.19754 0.27961 0.0
C91 C 0.99846 0.17077 0.29116 0.0
C92 C 0.9672 0.16097 0.27748 0.0
C93 C 0.95386 0.17608 0.25107 0.0
C94 C 0.0162 0.15051 0.31383 0.0
C95 C 0.03363 0.16474 0.34131 0.0
C96 C 0.05488 0.14614 0.35969 0.0
C97 C 0.05774 0.11268 0.35098 0.0
C98 C 0.04088 0.09802 0.32305 0.0
C99 C 0.0198 0.11723 0.305 0.0
C100 C 0.04869 0.06417 0.3096 0.0
C101 C 0.08167 0.05198 0.3109 0.0
C102 C 0.02425 0.04527 0.29173 0.0
C103 C 0.0332 0.01668 0.2731 0.0
C104 C 0.06672 0.00562 0.2725 0.0
C105 C 0.07776 0.1625 0.38468 0.0
C106 C 0.09656 0.18937 0.37663 0.0
C107 C 0.08254 0.15064 0.41561 0.0
C108 C 0.10601 0.16533 0.43795 0.0
C109 C 0.12541 0.19161 0.42934 0.0
C110 C 0.12018 0.20369 0.39867 0.0
C111 C 0.09045 0.02291 0.29293 0.0
H112 H 0.01593 0.23172 0.2432 0.0
H113 H 0.03916 0.20548 0.28954 0.0
H114 H 0.95397 0.1405 0.28609 0.0
H115 H 0.93084 0.16661 0.23958 0.0
H116 H 0.03167 0.19061 0.34765 0.0
H117 H 0.00823 0.10694 0.28233 0.0
H118 H 0.07465 0.09854 0.36484 0.0
H119 H 0.10137 0.06568 0.32423 0.0
H120 H 0.99837 0.05333 0.29082 0.0
H121 H 0.01402 0.00436 0.25777 0.0
H122 H 0.09377 0.19875 0.3528 0.0
H123 H 0.06833 0.12995 0.42234 0.0
H124 H 0.11626 0.01475 0.29412 0.0
H125 H 0.1347 0.22406 0.39157 0.0
H126 H 0.10975 0.15557 0.46147 0.0
C127 C 0.38959 0.52713 0.77608 0.0
C128 C 0.41492 0.5048 0.76574 0.0
C129 C 0.39725 0.55447 0.79745 0.0
C130 C 0.43038 0.56012 0.80862 0.0
C131 C 0.45511 0.53669 0.80033 0.0
C132 C 0.44739 0.50917 0.77938 0.0
C133 C 0.4401 0.59239 0.82425 0.0
C134 C 0.42219 0.60713 0.85112 0.0
C135 C 0.4285 0.63961 0.86277 0.0
C136 C 0.45349 0.65699 0.84725 0.0
C137 C 0.47168 0.64244 0.82032 0.0
C138 C 0.46496 0.61002 0.80933 0.0
C139 C 0.4948 0.66159 0.8009 0.0
C140 C 0.48583 0.69275 0.79298 0.0
C141 C 0.52393 0.64721 0.78666 0.0
C142 C 0.54179 0.66217 0.76279 0.0
C143 C 0.53136 0.69225 0.75289 0.0
C144 C 0.40693 0.65628 0.88891 0.0
C145 C 0.37225 0.64957 0.88968 0.0
C146 C 0.4202 0.68027 0.91203 0.0
C147 C 0.39907 0.69796 0.93443 0.0
C148 C 0.36423 0.69189 0.93432 0.0
C149 C 0.35129 0.6669 0.91225 0.0
C150 C 0.50404 0.70799 0.76939 0.0
H151 H 0.36439 0.52475 0.76594 0.0
H152 H 0.3778 0.57235 0.80327 0.0
H153 H 0.4808 0.54044 0.80888 0.0
H154 H 0.46731 0.49205 0.77264 0.0
H155 H 0.40296 0.59334 0.86249 0.0
H156 H 0.47743 0.59902 0.78748 0.0
H157 H 0.4579 0.68224 0.85524 0.0
H158 H 0.46351 0.70458 0.80341 0.0
H159 H 0.53194 0.6235 0.7927 0.0
H160 H 0.56245 0.64899 0.75065 0.0
H161 H 0.36089 0.63164 0.87209 0.0
H162 H 0.44687 0.68574 0.91252 0.0
H163 H 0.4957 0.73147 0.76301 0.0
H164 H 0.32471 0.66102 0.91197 0.0
H165 H 0.40988 0.71704 0.95106 0.0
C166 C 0.84904 0.78021 0.07781 0.0
C167 C 0.87346 0.77196 0.10064 0.0
C168 C 0.81674 0.78927 0.08834 0.0
C169 C 0.80825 0.79005 0.12182 0.0
C170 C 0.83143 0.77826 0.14396 0.0
C171 C 0.86384 0.76928 0.13343 0.0
C172 C 0.77843 0.80853 0.13455 0.0
C173 C 0.75756 0.79687 0.15847 0.0
C174 C 0.73272 0.8168 0.17427 0.0
C175 C 0.72886 0.84878 0.16583 0.0
C176 C 0.7498 0.8607 0.14194 0.0
C177 C 0.77394 0.84021 0.12603 0.0
C178 C 0.74925 0.8952 0.13525 0.0
C179 C 0.71949 0.91029 0.12604 0.0
C180 C 0.77964 0.91255 0.13574 0.0
C181 C 0.78072 0.94366 0.12555 0.0
C182 C 0.75137 0.9584 0.11472 0.0
C183 C 0.71411 0.80497 0.20226 0.0
C184 C 0.70032 0.77367 0.19952 0.0
C185 C 0.71408 0.82309 0.23307 0.0
C186 C 0.70276 0.80926 0.26108 0.0
C187 C 0.6911 0.7771 0.25874 0.0
C188 C 0.68878 0.75992 0.22745 0.0
C189 C 0.72056 0.94163 0.11567 0.0
H190 H 0.85569 0.78198 0.05226 0.0
H191 H 0.79914 0.79784 0.07072 0.0
H192 H 0.82559 0.77876 0.16996 0.0
H193 H 0.88219 0.76313 0.15157 0.0
H194 H 0.76177 0.77276 0.16591 0.0
H195 H 0.79063 0.84964 0.10815 0.0
H196 H 0.71062 0.86466 0.1787 0.0
H197 H 0.69575 0.89738 0.12551 0.0
H198 H 0.80291 0.9016 0.14312 0.0
H199 H 0.80498 0.95551 0.12474 0.0
H200 H 0.69974 0.75933 0.17595 0.0
H201 H 0.7249 0.84716 0.23591 0.0
H202 H 0.69746 0.95243 0.10775 0.0
H203 H 0.67922 0.73537 0.22471 0.0
H204 H 0.70516 0.8231 0.28481 0.0
C205 C 0.63476 0.3013 0.62445 0.0
C206 C 0.62677 0.29706 0.59078 0.0
C207 C 0.66787 0.3073 0.63468 0.0
C208 C 0.69367 0.30946 0.61142 0.0
C209 C 0.68593 0.30376 0.57769 0.0
C210 C 0.65271 0.29736 0.56745 0.0
C211 C 0.72751 0.32105 0.62263 0.0
C212 C 0.74214 0.30979 0.65073 0.0
C213 C 0.7706 0.32506 0.6656 0.0
C214 C 0.78541 0.35114 0.65119 0.0
C215 C 0.77127 0.36253 0.6227 0.0
C216 C 0.7426 0.34697 0.60839 0.0
C217 C 0.78235 0.39363 0.61078 0.0
C218 C 0.7872 0.42098 0.63328 0.0
C219 C 0.78273 0.39752 0.57686 0.0
C220 C 0.78447 0.42838 0.56579 0.0
C221 C 0.78593 0.45598 0.58845 0.0
C222 C 0.78211 0.31586 0.69811 0.0
C223 C 0.75824 0.31144 0.7227 0.0
C224 C 0.81638 0.31113 0.70486 0.0
C225 C 0.82637 0.30088 0.73526 0.0
C226 C 0.80222 0.29532 0.75934 0.0
C227 C 0.76816 0.30133 0.7529 0.0
C228 C 0.78903 0.45184 0.6222 0.0
H229 H 0.61514 0.30109 0.64287 0.0
H230 H 0.67291 0.312 0.66081 0.0
H231 H 0.70537 0.30521 0.55928 0.0
H232 H 0.64706 0.29433 0.54133 0.0
H233 H 0.73045 0.28983 0.66189 0.0
H234 H 0.73021 0.35687 0.58779 0.0
H235 H 0.80676 0.36362 0.66311 0.0
H236 H 0.78691 0.41889 0.65958 0.0
H237 H 0.77949 0.37683 0.55893 0.0
H238 H 0.78196 0.43066 0.53963 0.0
H239 H 0.73174 0.3158 0.71856 0.0
H240 H 0.83528 0.31449 0.68634 0.0
H241 H 0.79073 0.47263 0.64023 0.0
H242 H 0.74904 0.29811 0.77125 0.0
H243 H 0.85281 0.29641 0.73956 0.0
C244 C 0.59791 0.4788 0.2645 0.0
C245 C 0.59756 0.47612 0.29867 0.0
C246 C 0.58519 0.4537 0.24263 0.0
C247 C 0.57187 0.42567 0.25465 0.0
C248 C 0.57263 0.42266 0.28869 0.0
C249 C 0.58536 0.44753 0.3104 0.0
C250 C 0.55693 0.39938 0.2322 0.0
C251 C 0.57428 0.38649 0.20415 0.0
C252 C 0.56199 0.35897 0.18492 0.0
C253 C 0.53185 0.3444 0.19456 0.0
C254 C 0.5143 0.35739 0.22251 0.0
C255 C 0.52661 0.38513 0.24069 0.0
C256 C 0.48597 0.34016 0.23649 0.0
C257 C 0.45507 0.35601 0.24204 0.0
C258 C 0.49251 0.31191 0.25187 0.0
C259 C 0.4702 0.3018 0.27541 0.0
C260 C 0.44088 0.31973 0.28371 0.0
C261 C 0.58247 0.34417 0.15683 0.0
C262 C 0.60266 0.36363 0.13821 0.0
C263 C 0.58404 0.31038 0.14993 0.0
C264 C 0.60629 0.29647 0.12623 0.0
C265 C 0.62829 0.31588 0.10939 0.0
C266 C 0.62556 0.3497 0.11517 0.0
C267 C 0.4325 0.34563 0.26515 0.0
H268 H 0.60711 0.5006 0.25478 0.0
H269 H 0.58496 0.45654 0.21646 0.0
H270 H 0.56338 0.40095 0.29859 0.0
H271 H 0.58557 0.44437 0.33651 0.0
H272 H 0.59845 0.39682 0.19861 0.0
H273 H 0.51332 0.39468 0.26269 0.0
H274 H 0.52211 0.32283 0.18079 0.0
H275 H 0.44963 0.37794 0.23047 0.0
H276 H 0.51644 0.29959 0.24822 0.0
H277 H 0.47761 0.28183 0.2892 0.0
H278 H 0.60154 0.38976 0.14204 0.0
H279 H 0.56917 0.2944 0.1637 0.0
H280 H 0.4097 0.35944 0.27028 0.0
H281 H 0.64201 0.36562 0.10293 0.0
H282 H 0.60674 0.27036 0.12179 0.0
C283 C 0.12477 0.17174 0.8687 0.0
C284 C 0.11302 0.18093 0.90068 0.0
C285 C 0.15904 0.16613 0.86299 0.0
C286 C 0.18221 0.1693 0.88921 0.0
C287 C 0.17066 0.17991 0.92094 0.0
C288 C 0.13641 0.18586 0.92659 0.0
C289 C 0.21766 0.15885 0.88388 0.0
C290 C 0.23574 0.16737 0.85642 0.0
C291 C 0.26831 0.15523 0.84997 0.0
C292 C 0.28273 0.13395 0.87094 0.0
C293 C 0.26477 0.12501 0.89833 0.0
C294 C 0.23257 0.13798 0.90493 0.0
C295 C 0.27716 0.09925 0.91809 0.0
C296 C 0.28417 0.06836 0.90266 0.0
C297 C 0.27616 0.1037 0.95262 0.0
C298 C 0.27882 0.07719 0.97125 0.0
C299 C 0.28189 0.04568 0.95565 0.0
C300 C 0.2867 0.16459 0.82085 0.0
C301 C 0.27155 0.16052 0.7896 0.0
C302 C 0.31819 0.1799 0.82445 0.0
C303 C 0.33334 0.19272 0.79751 0.0
C304 C 0.31748 0.1898 0.7665 0.0
C305 C 0.28694 0.17279 0.76259 0.0
C306 C 0.28644 0.04172 0.9213 0.0
H307 H 0.10729 0.16792 0.84827 0.0
H308 H 0.16715 0.15777 0.83832 0.0
H309 H 0.18802 0.18277 0.94155 0.0
H310 H 0.12802 0.19269 0.95152 0.0
H311 H 0.22451 0.1836 0.84008 0.0
H312 H 0.21817 0.13012 0.92535 0.0
H313 H 0.30744 0.12378 0.8655 0.0
H314 H 0.28489 0.06433 0.87602 0.0
H315 H 0.27111 0.12738 0.96505 0.0
H316 H 0.27596 0.08108 0.99775 0.0
H317 H 0.24731 0.14864 0.7863 0.0
H318 H 0.33024 0.18335 0.8484 0.0
H319 H 0.2887 0.01779 0.90851 0.0
H320 H 0.27401 0.17053 0.73905 0.0
H321 H 0.3569 0.20576 0.80109 0.0
C322 C 0.35317 0.71688 0.42693 0.0
C323 C 0.37529 0.69373 0.43804 0.0
C324 C 0.32029 0.70805 0.41704 0.0
C325 C 0.30897 0.67604 0.41847 0.0
C326 C 0.33111 0.65321 0.43006 0.0
C327 C 0.36364 0.66197 0.4399 0.0
C328 C 0.27469 0.66556 0.40722 0.0
C329 C 0.26132 0.67463 0.37751 0.0
C330 C 0.23109 0.66082 0.36451 0.0
C331 C 0.21458 0.63722 0.38147 0.0
C332 C 0.22737 0.62862 0.41158 0.0
C333 C 0.25682 0.64343 0.42456 0.0
C334 C 0.21369 0.60112 0.42802 0.0
C335 C 0.20685 0.60511 0.46192 0.0
C336 C 0.21616 0.56972 0.41224 0.0
C337 C 0.2163 0.54295 0.43082 0.0
C338 C 0.21388 0.54734 0.46537 0.0
C339 C 0.21786 0.67035 0.3326 0.0
C340 C 0.21954 0.70282 0.32551 0.0
C341 C 0.20465 0.64722 0.30859 0.0
C342 C 0.19396 0.65635 0.27797 0.0
C343 C 0.19626 0.68879 0.27073 0.0
C344 C 0.2091 0.71187 0.29498 0.0
C345 C 0.20675 0.5784 0.48044 0.0
H346 H 0.3615 0.74153 0.42523 0.0
H347 H 0.30374 0.7262 0.40834 0.0
H348 H 0.32356 0.62822 0.43097 0.0
H349 H 0.37983 0.64367 0.44887 0.0
H350 H 0.2754 0.69114 0.3636 0.0
H351 H 0.26696 0.63621 0.44752 0.0
H352 H 0.19187 0.6256 0.37144 0.0
H353 H 0.20479 0.62914 0.47456 0.0
H354 H 0.22172 0.56611 0.38614 0.0
H355 H 0.22188 0.51935 0.41849 0.0
H356 H 0.2292 0.72133 0.34355 0.0
H357 H 0.20331 0.62193 0.31311 0.0
H358 H 0.20419 0.58241 0.50696 0.0
H359 H 0.21186 0.73699 0.29018 0.0
H360 H 0.18399 0.63799 0.25996 0.0
C361 C 0.06819 0.83328 0.77193 0.0
C362 C 0.05603 0.8109 0.79304 0.0
C363 C 0.04739 0.84427 0.74759 0.0
C364 C 0.01421 0.83279 0.74369 0.0
C365 C 0.00365 0.80736 0.76178 0.0
C366 C 0.02435 0.79655 0.78633 0.0
C367 C 0.98854 0.85235 0.72809 0.0
C368 C 0.96393 0.83788 0.70675 0.0
C369 C 0.93546 0.8556 0.69853 0.0
C370 C 0.93145 0.8876 0.71235 0.0
C371 C 0.95568 0.90236 0.7339 0.0
C372 C 0.98492 0.88492 0.74023 0.0
C373 C 0.94801 0.93357 0.75359 0.0
C374 C 0.92761 0.95728 0.74084 0.0
C375 C 0.95827 0.93837 0.78675 0.0
C376 C 0.94732 0.96515 0.80688 0.0
C377 C 0.92486 0.98747 0.79488 0.0
C378 C 0.9082 0.84021 0.67782 0.0
C379 C 0.91513 0.82444 0.64666 0.0
C380 C 0.8747 0.84262 0.6887 0.0
C381 C 0.8485 0.8302 0.66853 0.0
C382 C 0.85513 0.81527 0.63687 0.0
C383 C 0.88881 0.8122 0.62628 0.0
C384 C 0.91591 0.98378 0.76133 0.0
H385 H 0.09282 0.84421 0.77592 0.0
H386 H 0.05618 0.86374 0.73376 0.0
H387 H 0.9781 0.79825 0.75945 0.0
H388 H 0.01413 0.7793 0.80209 0.0
H389 H 0.9661 0.81253 0.69791 0.0
H390 H 0.00385 0.89585 0.7569 0.0
H391 H 0.90847 0.90036 0.70741 0.0
H392 H 0.91976 0.9549 0.71528 0.0
H393 H 0.97346 0.9207 0.79797 0.0
H394 H 0.9557 0.96772 0.83229 0.0
H395 H 0.94077 0.82245 0.63771 0.0
H396 H 0.86876 0.85421 0.71289 0.0
H397 H 0.89877 0.00057 0.75116 0.0
H398 H 0.8948 0.80104 0.60195 0.0
H399 H 0.823 0.83223 0.67785 0.0
H400 H 0.08296 0.89256 0.15882 0.0
H401 H 0.18126 0.93595 0.1533 0.0
H402 H 0.16819 0.97397 0.20094 0.0
H403 H 0.12706 0.99781 0.24042 0.0
H404 H 0.03041 0.95142 0.24953 0.0
H405 H 0.04458 0.91184 0.20387 0.0
C406 C 0.10158 0.91018 0.16832 0.0
C407 C 0.13285 0.91179 0.15246 0.0
C408 C 0.09409 0.93159 0.19603 0.0
C409 C 0.15702 0.9343 0.16518 0.0
C410 C 0.1495 0.95611 0.1923 0.0
C411 C 0.1093 0.9786 0.2333 0.0
C412 C 0.07735 0.97827 0.24833 0.0
C413 C 0.11788 0.95534 0.20752 0.0
C414 C 0.05477 0.95314 0.23797 0.0
C415 C 0.06293 0.93025 0.21193 0.0
H416 H 0.56273 0.72427 0.6083 0.0
H417 H 0.6576 0.68181 0.63193 0.0
H418 H 0.64113 0.68262 0.68991 0.0
H419 H 0.59675 0.68822 0.73165 0.0
H420 H 0.49894 0.72378 0.70561 0.0
H421 H 0.51985 0.73418 0.65157 0.0
C422 C 0.58004 0.71616 0.62648 0.0
C423 C 0.61135 0.70333 0.61633 0.0
C424 C 0.56972 0.71528 0.65934 0.0
C425 C 0.63349 0.69208 0.63959 0.0
C426 C 0.62398 0.69236 0.67259 0.0
C427 C 0.57998 0.69839 0.71427 0.0
C428 C 0.54612 0.70467 0.72281 0.0
C429 C 0.59163 0.70271 0.68245 0.0
C430 C 0.52518 0.71884 0.70014 0.0
C431 C 0.537 0.72447 0.6689 0.0
H432 H 0.76737 0.07093 0.0222 0.0
H433 H 0.84041 0.10258 0.097 0.0
H434 H 0.82221 0.05996 0.13044 0.0
H435 H 0.78965 0.01068 0.13604 0.0
H436 H 0.71953 0.97652 0.05958 0.0
H437 H 0.73161 0.02375 0.02989 0.0
C438 C 0.77899 0.06882 0.04603 0.0
C439 C 0.80554 0.08972 0.05683 0.0
C440 C 0.76888 0.04379 0.06492 0.0
C441 C 0.82024 0.0866 0.08782 0.0
C442 C 0.80983 0.06224 0.10703 0.0
C443 C 0.77686 0.01363 0.11295 0.0
C444 C 0.75404 0.98981 0.0999 0.0
C445 C 0.78484 0.04018 0.09541 0.0
C446 C 0.73706 0.99449 0.07037 0.0
C447 C 0.74424 0.02135 0.05315 0.0
H448 H 0.47933 0.2763 0.5335 0.0
H449 H 0.46487 0.36629 0.59359 0.0
H450 H 0.52334 0.36549 0.61176 0.0
H451 H 0.57875 0.34005 0.60993 0.0
H452 H 0.59543 0.25202 0.54771 0.0
H453 H 0.53599 0.25118 0.53077 0.0
C454 C 0.48904 0.29558 0.55069 0.0
C455 C 0.46787 0.32128 0.56223 0.0
C456 C 0.52302 0.29536 0.56051 0.0
C457 C 0.48077 0.34636 0.5842 0.0
C458 C 0.51415 0.3459 0.59467 0.0
C459 C 0.56923 0.32054 0.59286 0.0
C460 C 0.59109 0.29593 0.58033 0.0
C461 C 0.53549 0.32064 0.58289 0.0
C462 C 0.57885 0.27115 0.55768 0.0
C463 C 0.54495 0.27067 0.54808 0.0
H464 H 0.66641 0.58781 0.3914 0.0
H465 H 0.57926 0.56971 0.45049 0.0
H466 H 0.55918 0.52946 0.40803 0.0
H467 H 0.5665 0.49848 0.35497 0.0
H468 H 0.6536 0.51461 0.29556 0.0
H469 H 0.67313 0.55707 0.33699 0.0
C470 C 0.64302 0.5751 0.39497 0.0
C471 C 0.62462 0.5817 0.42434 0.0
C472 C 0.63147 0.55173 0.37036 0.0
C473 C 0.59422 0.56504 0.42839 0.0
C474 C 0.58258 0.54201 0.40405 0.0
C475 C 0.58991 0.51112 0.35116 0.0
C476 C 0.60879 0.50316 0.32247 0.0
C477 C 0.60111 0.53499 0.37514 0.0
C478 C 0.63857 0.52036 0.31745 0.0
C479 C 0.64983 0.54447 0.34121 0.0
H480 H 0.96043 0.15484 0.92946 0.0
H481 H 0.96984 0.24736 0.986 0.0
H482 H 0.02791 0.25232 0.96666 0.0
H483 H 0.07749 0.22782 0.93716 0.0
H484 H 0.06659 0.13557 0.8802 0.0
H485 H 0.00753 0.13314 0.89598 0.0
C486 C 0.9751 0.17625 0.9373 0.0
C487 C 0.9611 0.20052 0.9594 0.0
C488 C 0.00823 0.17889 0.9261 0.0
C489 C 0.98012 0.22837 0.96895 0.0
C490 C 0.01336 0.2311 0.95807 0.0
C491 C 0.06201 0.20738 0.92803 0.0
C492 C 0.07638 0.18186 0.90765 0.0
C493 C 0.02792 0.20613 0.93721 0.0
C494 C 0.05604 0.15564 0.89567 0.0
C495 C 0.02233 0.15412 0.90485 0.0
H496 H 0.29882 0.45575 0.54758 0.0
H497 H 0.23907 0.38247 0.49316 0.0
H498 H 0.20637 0.42452 0.46857 0.0
H499 H 0.19851 0.48245 0.45931 0.0
H500 H 0.25815 0.55471 0.51602 0.0
H501 H 0.28656 0.51286 0.54353 0.0
C502 C 0.27837 0.44909 0.53058 0.0
C503 C 0.2715 0.41633 0.52172 0.0
C504 C 0.25961 0.47322 0.51709 0.0
C505 C 0.24471 0.40771 0.50016 0.0
C506 C 0.22617 0.4317 0.48608 0.0
C507 C 0.21733 0.48895 0.47808 0.0
C508 C 0.2261 0.52169 0.48559 0.0
C509 C 0.23388 0.46459 0.49386 0.0
C510 C 0.25046 0.5298 0.51008 0.0
C511 C 0.26706 0.50585 0.52562 0.0
H512 H 0.10139 0.77999 0.93548 0.0
H513 H 0.11963 0.88312 0.94318 0.0
H514 H 0.10611 0.88474 0.88519 0.0
H515 H 0.08419 0.85835 0.8339 0.0
H516 H 0.06451 0.75566 0.82503 0.0
H517 H 0.08364 0.75246 0.88187 0.0
C518 C 0.10274 0.80276 0.92441 0.0
C519 C 0.11112 0.83143 0.94396 0.0
C520 C 0.09455 0.80368 0.89086 0.0
C521 C 0.11284 0.86069 0.92903 0.0
C522 C 0.10518 0.86169 0.89575 0.0
C523 C 0.08498 0.83502 0.84394 0.0
C524 C 0.07301 0.80726 0.8251 0.0
C525 C 0.09539 0.8335 0.87664 0.0
C526 C 0.07342 0.77744 0.83902 0.0
C527 C 0.08431 0.77562 0.87153 0.0
H528 H 0.86587 0.11018 0.87939 0.0
H529 H 0.86875 0.04306 0.95421 0.0
H530 H 0.88771 0.0 0.9136 0.0
H531 H 0.90535 0.98222 0.85788 0.0
H532 H 0.90906 0.05028 0.78377 0.0
H533 H 0.88483 0.09211 0.82283 0.0
C534 C 0.8703 0.08597 0.88651 0.0
C535 C 0.86581 0.07948 0.91947 0.0
C536 C 0.88243 0.06168 0.86329 0.0
C537 C 0.8721 0.04836 0.92885 0.0
C538 C 0.88294 0.02384 0.90571 0.0
C539 C 0.90147 0.00631 0.85026 0.0
C540 C 0.90954 0.01312 0.81799 0.0
C541 C 0.8887 0.0304 0.87305 0.0
C542 C 0.903 0.04424 0.80838 0.0
C543 C 0.88932 0.06824 0.83077 0.0
H544 H 0.38864 0.28187 0.42145 0.0
H545 H 0.3806 0.38601 0.43734 0.0
H546 H 0.39603 0.39094 0.3804 0.0
H547 H 0.41698 0.36664 0.32801 0.0
H548 H 0.42545 0.26282 0.31062 0.0
H549 H 0.4047 0.25696 0.36632 0.0
C550 C 0.38995 0.30563 0.41241 0.0
C551 C 0.38388 0.33352 0.434 0.0
C552 C 0.3991 0.30844 0.37942 0.0
C553 C 0.38547 0.36407 0.4216 0.0
C554 C 0.39428 0.36699 0.38893 0.0
C555 C 0.41337 0.34258 0.33585 0.0
C556 C 0.42282 0.31522 0.31499 0.0
C557 C 0.4018 0.33943 0.36785 0.0
C558 C 0.4187 0.28435 0.3262 0.0
C559 C 0.40683 0.28098 0.35807 0.0
H560 H 0.24963 0.91009 0.00833 0.0
H561 H 0.16747 0.9668 0.05205 0.0
H562 H 0.19106 0.01551 0.03235 0.0
H563 H 0.23152 0.0412 0.99891 0.0
H564 H 0.3129 0.98594 0.95216 0.0
H565 H 0.29317 0.93746 0.97679 0.0
C566 C 0.23723 0.93321 0.01378 0.0
C567 C 0.20666 0.93478 0.03129 0.0
C568 C 0.25063 0.96132 0.00172 0.0
C569 C 0.19073 0.96485 0.03817 0.0
C570 C 0.20424 0.99278 0.02702 0.0
C571 C 0.24562 0.01883 0.99478 0.0
C572 C 0.27383 0.01729 0.97398 0.0
C573 C 0.23373 0.99118 0.00827 0.0
C574 C 0.29108 0.98775 0.96811 0.0
C575 C 0.27977 0.96005 0.98214 0.0
H576 H 0.51606 0.73395 0.50278 0.0
H577 H 0.54289 0.64295 0.4497 0.0
H578 H 0.48741 0.6389 0.42427 0.0
H579 H 0.4302 0.65845 0.4204 0.0
H580 H 0.39996 0.74687 0.47606 0.0
H581 H 0.45783 0.75526 0.4965 0.0
C582 C 0.50969 0.71355 0.48534 0.0
C583 C 0.53326 0.68862 0.47832 0.0
C584 C 0.47716 0.71087 0.47135 0.0
C585 C 0.5249 0.66219 0.45578 0.0
C586 C 0.49324 0.65987 0.44116 0.0
C587 C 0.43623 0.6796 0.43703 0.0
C588 C 0.41076 0.70168 0.44717 0.0
C589 C 0.46898 0.68361 0.44938 0.0
C590 C 0.41916 0.72947 0.46792 0.0
C591 C 0.45218 0.73412 0.4798 0.0
H592 H 0.40787 0.41472 0.63313 0.0
H593 H 0.30787 0.39657 0.66857 0.0
H594 H 0.31998 0.43044 0.71963 0.0
H595 H 0.3583 0.46749 0.7529 0.0
H596 H 0.45734 0.48622 0.71514 0.0
H597 H 0.44634 0.44928 0.66669 0.0
C598 C 0.3886 0.41807 0.65195 0.0
C599 C 0.35683 0.40341 0.64676 0.0
C600 C 0.39564 0.43757 0.68102 0.0
C601 C 0.33249 0.40768 0.67179 0.0
C602 C 0.33939 0.42709 0.70099 0.0
C603 C 0.37749 0.46344 0.73411 0.0
C604 C 0.40868 0.47964 0.73794 0.0
C605 C 0.37076 0.44253 0.70567 0.0
C606 C 0.43336 0.47372 0.7134 0.0
C607 C 0.42699 0.45282 0.68538 0.0
H608 H 0.03185 0.76632 0.08468 0.0
H609 H 0.01112 0.85634 0.04281 0.0
H610 H 0.95117 0.84834 0.04974 0.0
H611 H 0.90472 0.8176 0.06952 0.0
H612 H 0.92336 0.72884 0.11387 0.0
H613 H 0.98403 0.73444 0.10404 0.0
C614 C 0.01417 0.78408 0.077 0.0
C615 C 0.02611 0.81198 0.06344 0.0
C616 C 0.97937 0.77955 0.08138 0.0
C617 C 0.00282 0.83482 0.05368 0.0
C618 C 0.96842 0.83024 0.05746 0.0
C619 C 0.92195 0.79905 0.07638 0.0
C620 C 0.90961 0.77258 0.09187 0.0
C621 C 0.95647 0.80287 0.07143 0.0
C622 C 0.93235 0.74932 0.10166 0.0
C623 C 0.96696 0.75259 0.09613 0.0
H624 H 0.7477 0.57601 0.51181 0.0
H625 H 0.68071 0.59219 0.59499 0.0
H626 H 0.70724 0.54823 0.62121 0.0
H627 H 0.74419 0.50128 0.61747 0.0
H628 H 0.80993 0.48285 0.53376 0.0
H629 H 0.78923 0.53171 0.51084 0.0
C630 C 0.73936 0.5703 0.53595 0.0
C631 C 0.71199 0.58712 0.55122 0.0
C632 C 0.75424 0.54439 0.55064 0.0
C633 C 0.70141 0.57935 0.58247 0.0
C634 C 0.71658 0.55421 0.59752 0.0
C635 C 0.75481 0.5084 0.5947 0.0
C636 C 0.77856 0.4884 0.57734 0.0
C637 C 0.74229 0.53599 0.5814 0.0
C638 C 0.79142 0.4977 0.54747 0.0
C639 C 0.77957 0.5256 0.53436 0.0
H640 H 0.95148 0.20908 0.08659 0.0
H641 H 0.84854 0.22459 0.11692 0.0
H642 H 0.86588 0.228 0.17502 0.0
H643 H 0.90971 0.2188 0.21654 0.0
H644 H 0.01263 0.20406 0.18504 0.0
H645 H 0.99616 0.20888 0.12808 0.0
C646 C 0.93305 0.21401 0.10603 0.0
C647 C 0.8989 0.21635 0.09787 0.0
C648 C 0.94321 0.21588 0.13907 0.0
C649 C 0.87504 0.22288 0.12291 0.0
C650 C 0.88492 0.22455 0.15602 0.0
C651 C 0.92852 0.21734 0.19721 0.0
C652 C 0.96225 0.21085 0.20489 0.0
C653 C 0.91882 0.21992 0.16435 0.0
C654 C 0.98655 0.20927 0.17977 0.0
C655 C 0.97712 0.21173 0.14714 0.0
H656 H 0.18098 0.72081 0.12239 0.0
H657 H 0.14393 0.81002 0.17161 0.0
H658 H 0.14664 0.78712 0.22468 0.0
H659 H 0.16398 0.7438 0.25748 0.0
H660 H 0.20675 0.65625 0.20979 0.0
H661 H 0.19653 0.67589 0.15584 0.0
C662 C 0.17303 0.73486 0.14476 0.0
C663 C 0.16228 0.76694 0.14336 0.0
C664 C 0.17581 0.72189 0.17544 0.0
C665 C 0.15237 0.78526 0.17235 0.0
C666 C 0.15395 0.77222 0.20263 0.0
C667 C 0.1712 0.72899 0.23533 0.0
C668 C 0.18654 0.69879 0.23782 0.0
C669 C 0.16645 0.7409 0.20456 0.0
C670 C 0.19474 0.67954 0.20871 0.0
C671 C 0.18918 0.69088 0.1778 0.0
H672 H 0.72063 0.77864 0.55912 0.0
H673 H 0.78047 0.6953 0.52538 0.0
H674 H 0.8285 0.71775 0.55681 0.0
H675 H 0.85283 0.7595 0.59614 0.0
H676 H 0.79382 0.84359 0.6288 0.0
H677 H 0.74616 0.82207 0.59588 0.0
C678 C 0.7442 0.76543 0.55846 0.0
C679 C 0.7467 0.73522 0.53998 0.0
C680 C 0.77189 0.77843 0.57668 0.0
C681 C 0.77764 0.71861 0.53934 0.0
C682 C 0.8052 0.73137 0.55741 0.0
C683 C 0.82975 0.7734 0.59569 0.0
C684 C 0.82689 0.80296 0.61522 0.0
C685 C 0.80251 0.76107 0.57645 0.0
C686 C 0.79655 0.82042 0.61457 0.0
C687 C 0.76932 0.80825 0.59557 0.0
H688 H 0.74622 0.27334 0.00994 0.0
H689 H 0.74875 0.19283 0.06979 0.0
H690 H 0.70267 0.21643 0.10354 0.0
H691 H 0.6629 0.26022 0.11663 0.0
H692 H 0.65529 0.33795 0.05315 0.0
H693 H 0.7025 0.31544 0.02057 0.0
C694 C 0.73659 0.26114 0.03043 0.0
C695 C 0.75081 0.23164 0.03769 0.0
C696 C 0.70935 0.27434 0.04907 0.0
C697 C 0.73801 0.21561 0.06389 0.0
C698 C 0.71175 0.22908 0.08315 0.0
C699 C 0.67081 0.27199 0.09524 0.0
C700 C 0.65534 0.30095 0.08767 0.0
C701 C 0.69722 0.2584 0.07593 0.0
C702 C 0.66696 0.31604 0.06019 0.0
C703 C 0.69389 0.30306 0.04131 0.0
H704 H 0.34641 0.29025 0.66417 0.0
H705 H 0.34144 0.20433 0.59654 0.0
H706 H 0.33686 0.17075 0.64293 0.0
H707 H 0.32794 0.16689 0.70256 0.0
H708 H 0.33446 0.25323 0.76962 0.0
H709 H 0.3454 0.28565 0.72368 0.0
C710 C 0.3448 0.26411 0.65968 0.0
C711 C 0.34375 0.24968 0.62719 0.0
C712 C 0.34239 0.24515 0.68633 0.0
C713 C 0.34223 0.21585 0.62147 0.0
C714 C 0.33944 0.19673 0.64794 0.0
C715 C 0.33234 0.19272 0.70702 0.0
C716 C 0.33018 0.20776 0.73929 0.0
C717 C 0.33854 0.21123 0.68044 0.0
C718 C 0.33622 0.24115 0.74499 0.0
C719 C 0.3422 0.25972 0.71872 0.0
H720 H 0.6882 0.69181 0.37903 0.0
H721 H 0.63995 0.7773 0.42541 0.0
H722 H 0.64223 0.80256 0.37358 0.0
H723 H 0.65984 0.80112 0.31552 0.0
H724 H 0.7093 0.71583 0.27024 0.0
H725 H 0.70391 0.68962 0.32103 0.0
C726 C 0.67814 0.71597 0.37791 0.0
C727 C 0.66421 0.73268 0.40624 0.0
C728 C 0.67951 0.73037 0.3481 0.0
C729 C 0.65095 0.76385 0.40407 0.0
C730 C 0.65224 0.77836 0.37442 0.0
C731 C 0.66941 0.7768 0.31679 0.0
C732 C 0.68487 0.76051 0.28901 0.0
C733 C 0.66678 0.76196 0.34636 0.0
C734 C 0.69675 0.7288 0.29097 0.0
C735 C 0.694 0.71386 0.32015 0.0
H736 H 0.85527 0.25888 0.8977 0.0
H737 H 0.77035 0.19358 0.88544 0.0
H738 H 0.75835 0.21245 0.83188 0.0
H739 H 0.77112 0.2477 0.7888 0.0
H740 H 0.85511 0.31376 0.80033 0.0
H741 H 0.86868 0.29388 0.85364 0.0
C742 C 0.83411 0.24879 0.88336 0.0
C743 C 0.81369 0.22492 0.89583 0.0
C744 C 0.82726 0.25972 0.85236 0.0
C745 C 0.78652 0.212 0.87667 0.0
C746 C 0.77958 0.22275 0.84594 0.0
C747 C 0.79228 0.25794 0.80308 0.0
C748 C 0.81187 0.2824 0.79082 0.0
C749 C 0.79965 0.24667 0.83366 0.0
C750 C 0.83972 0.29482 0.8092 0.0
C751 C 0.84734 0.2836 0.83974 0.0
H752 H 0.22231 0.26293 0.53547 0.0
H753 H 0.2919 0.24751 0.45428 0.0
H754 H 0.24833 0.21948 0.42058 0.0
H755 H 0.1902 0.20067 0.41343 0.0
H756 H 0.12044 0.21415 0.49432 0.0
H757 H 0.16443 0.24132 0.52912 0.0
C758 C 0.22789 0.25343 0.51041 0.0
C759 C 0.26026 0.2575 0.49737 0.0
C760 C 0.20276 0.23694 0.49118 0.0
C761 C 0.26725 0.24467 0.46498 0.0
C762 C 0.24233 0.22868 0.44563 0.0
C763 C 0.18471 0.20956 0.43872 0.0
C764 C 0.15222 0.20582 0.45133 0.0
C765 C 0.21 0.22489 0.45839 0.0
C766 C 0.1454 0.21683 0.48422 0.0
C767 C 0.17044 0.23245 0.50398 0.0
H768 H 0.27754 0.77406 0.04244 0.0
H769 H 0.20657 0.76731 0.96169 0.0
H770 H 0.24782 0.73858 0.92604 0.0
H771 H 0.3029 0.71394 0.91802 0.0
H772 H 0.3735 0.71641 0.99887 0.0
H773 H 0.33391 0.74881 0.03401 0.0
C774 C 0.27135 0.76648 0.01697 0.0
C775 C 0.23905 0.77263 0.00474 0.0
C776 C 0.29505 0.7492 0.99664 0.0
C777 C 0.23116 0.76255 0.97176 0.0
C778 C 0.25473 0.74618 0.95132 0.0
C779 C 0.30957 0.72113 0.94346 0.0
C780 C 0.34098 0.71233 0.95585 0.0
C781 C 0.28651 0.73898 0.96361 0.0
C782 C 0.34954 0.72291 0.9886 0.0
C783 C 0.32683 0.7413 0.00878 0.0
loop_
_geom_bond_atom_site_label_1
_geom_bond_atom_site_label_2
_geom_bond_distance
_geom_bond_site_symmetry_2
_ccdc_geom_bond_type
Sc0 O3 2.025 . S
Sc0 O10 2.105 . S
Sc0 O13 2.105 . S
Sc0 O16 2.105 . S
Sc0 O19 2.105 1_554 S
Sc1 O3 2.025 . S
Sc1 O11 2.105 1_554 S
Sc1 O15 2.105 . S
Sc1 O17 2.105 . S
Sc1 O21 2.105 . S
Sc2 O3 2.025 . S
Sc2 O12 2.105 . S
Sc2 O14 2.105 . S
Sc2 O18 2.105 . S
Sc2 O20 2.105 . S
O3 Sc0 2.025 . S
O3 Sc1 2.025 . S
O3 Sc2 2.025 . S
C4 O10 1.268 . S
C4 O20 1.268 . S
C5 O11 1.268 . S
C5 O19 1.268 . S
C6 O12 1.268 . S
C6 O21 1.268 . S
C7 O13 1.268 . S
C7 O17 1.268 . S
C8 O14 1.268 . S
C8 O16 1.268 . S
C9 O15 1.268 . S
C9 O18 1.268 . S
O10 Sc0 2.105 . S
O10 C4 1.268 . S
O11 Sc1 2.105 1_556 S
O11 C5 1.268 . S
O12 Sc2 2.105 . S
O12 C6 1.268 . S
O13 Sc0 2.105 . S
O13 C7 1.268 . S
O14 Sc2 2.105 . S
O14 C8 1.268 . S
O15 Sc1 2.105 . S
O15 C9 1.268 . S
O16 Sc0 2.105 . S
O16 C8 1.268 . S
O17 Sc1 2.105 . S
O17 C7 1.268 . S
O18 Sc2 2.105 . S
O18 C9 1.268 . S
O19 Sc0 2.105 1_556 S
O19 C5 1.268 . S
O20 Sc2 2.105 . S
O20 C4 1.268 . S
O21 Sc1 2.105 . S
O21 C6 1.268 . S
Sc22 O25 2.025 . S
Sc22 O32 2.105 . S
Sc22 O35 2.105 . S
Sc22 O38 2.105 . S
Sc22 O41 2.105 . S
Sc23 O25 2.025 . S
Sc23 O33 2.105 . S
Sc23 O37 2.105 . S
Sc23 O39 2.105 . S
Sc23 O43 2.105 . S
Sc24 O25 2.025 . S
Sc24 O34 2.105 . S
Sc24 O36 2.105 . S
Sc24 O40 2.105 . S
Sc24 O42 2.105 . S
O25 Sc22 2.025 . S
O25 Sc23 2.025 . S
O25 Sc24 2.025 . S
C26 O32 1.268 . S
C26 O42 1.268 . S
C27 O33 1.268 . S
C27 O41 1.268 . S
C28 O34 1.268 . S
C28 O43 1.268 . S
C29 O35 1.268 . S
C29 O39 1.268 . S
C30 O36 1.268 . S
C30 O38 1.268 . S
C31 O37 1.268 . S
C31 O40 1.268 . S
O32 Sc22 2.105 . S
O32 C26 1.268 . S
O33 Sc23 2.105 . S
O33 C27 1.268 . S
O34 Sc24 2.105 . S
O34 C28 1.268 . S
O35 Sc22 2.105 . S
O35 C29 1.268 . S
O36 Sc24 2.105 . S
O36 C30 1.268 . S
O37 Sc23 2.105 . S
O37 C31 1.268 . S
O38 Sc22 2.105 . S
O38 C30 1.268 . S
O39 Sc23 2.105 . S
O39 C29 1.268 . S
O40 Sc24 2.105 . S
O40 C31 1.268 . S
O41 Sc22 2.105 . S
O41 C27 1.268 . S
O42 Sc24 2.105 . S
O42 C26 1.268 . S
O43 Sc23 2.105 . S
O43 C28 1.268 . S
Sc44 O47 2.026 . S
Sc44 O54 2.105 1_554 S
Sc44 O57 2.105 . S
Sc44 O60 2.105 . S
Sc44 O63 2.105 1_554 S
Sc45 O47 2.025 1_556 S
Sc45 O55 2.105 . S
Sc45 O59 2.105 1_556 S
Sc45 O61 2.105 1_556 S
Sc45 O65 2.105 . S
Sc46 O47 2.026 . S
Sc46 O56 2.105 1_554 S
Sc46 O58 2.105 . S
Sc46 O62 2.105 . S
Sc46 O64 2.105 1_554 S
O47 Sc44 2.026 . S
O47 Sc45 2.025 1_554 S
O47 Sc46 2.026 . S
C48 O54 1.268 . S
C48 O64 1.268 . S
C49 O55 1.268 . S
C49 O63 1.268 . S
C50 O56 1.268 . S
C50 O65 1.268 . S
C51 O57 1.268 . S
C51 O61 1.268 . S
C52 O58 1.268 . S
C52 O60 1.268 . S
C53 O59 1.268 . S
C53 O62 1.268 . S
O54 Sc44 2.105 1_556 S
O54 C48 1.268 . S
O55 Sc45 2.105 . S
O55 C49 1.268 . S
O56 Sc46 2.105 1_556 S
O56 C50 1.268 . S
O57 Sc44 2.105 . S
O57 C51 1.268 . S
O58 Sc46 2.105 . S
O58 C52 1.268 . S
O59 Sc45 2.105 1_554 S
O59 C53 1.268 . S
O60 Sc44 2.105 . S
O60 C52 1.268 . S
O61 Sc45 2.105 1_554 S
O61 C51 1.268 . S
O62 Sc46 2.105 . S
O62 C53 1.268 . S
O63 Sc44 2.105 1_556 S
O63 C49 1.268 . S
O64 Sc46 2.105 1_556 S
O64 C48 1.268 . S
O65 Sc45 2.105 . S
O65 C50 1.268 . S
Sc66 O69 2.025 . S
Sc66 O76 2.105 . S
Sc66 O79 2.105 . S
Sc66 O82 2.105 . S
Sc66 O85 2.105 . S
Sc67 O69 2.025 . S
Sc67 O77 2.105 . S
Sc67 O81 2.105 . S
Sc67 O83 2.105 . S
Sc67 O87 2.105 . S
Sc68 O69 2.025 . S
Sc68 O78 2.105 . S
Sc68 O80 2.105 . S
Sc68 O84 2.105 . S
Sc68 O86 2.105 . S
O69 Sc66 2.025 . S
O69 Sc67 2.025 . S
O69 Sc68 2.025 . S
C70 O76 1.268 . S
C70 O86 1.268 . S
C71 O77 1.268 . S
C71 O85 1.268 . S
C72 O78 1.268 . S
C72 O87 1.268 . S
C73 O79 1.268 . S
C73 O83 1.268 . S
C74 O80 1.268 . S
C74 O82 1.268 . S
C75 O81 1.268 . S
C75 O84 1.268 . S
O76 Sc66 2.105 . S
O76 C70 1.268 . S
O77 Sc67 2.105 . S
O77 C71 1.268 . S
O78 Sc68 2.105 . S
O78 C72 1.268 . S
O79 Sc66 2.105 . S
O79 C73 1.268 . S
O80 Sc68 2.105 . S
O80 C74 1.268 . S
O81 Sc67 2.105 . S
O81 C75 1.268 . S
O82 Sc66 2.105 . S
O82 C74 1.268 . S
O83 Sc67 2.105 . S
O83 C73 1.268 . S
O84 Sc68 2.105 . S
O84 C75 1.268 . S
O85 Sc66 2.105 . S
O85 C71 1.268 . S
O86 Sc68 2.105 . S
O86 C70 1.268 . S
O87 Sc67 2.105 . S
O87 C72 1.268 . S
C88 C89 1.386 . S
C88 C90 1.397 1_655 S
C88 H112 0.931 . S
C89 C88 1.386 . S
C89 C93 1.397 . S
C90 C88 1.397 1_455 S
C90 C91 1.384 . S
C90 H113 0.930 . S
C91 C90 1.384 . S
C91 C92 1.377 1_455 S
C91 C94 1.481 . S
C92 C91 1.377 1_655 S
C92 C93 1.389 . S
C92 H114 0.929 . S
C93 C89 1.397 . S
C93 C92 1.389 . S
C93 H115 0.931 . S
C94 C91 1.481 . S
C94 C95 1.387 . S
C94 C99 1.390 . S
C95 C94 1.387 . S
C95 C96 1.401 . S
C95 H116 0.930 . S
C96 C95 1.401 . S
C96 C97 1.376 . S
C96 C105 1.511 . S
C97 C96 1.376 . S
C97 C98 1.392 . S
C97 H118 0.931 . S
C98 C97 1.392 . S
C98 C99 1.361 . S
C98 C100 1.500 . S
C99 C94 1.390 . S
C99 C98 1.361 . S
C99 H117 0.931 . S
C100 C98 1.500 . S
C100 C101 1.371 . S
C100 C102 1.365 . S
C101 C100 1.371 . S
C101 C111 1.386 . S
C101 H119 0.931 . S
C102 C100 1.365 . S
C102 C103 1.409 . S
C102 H120 0.929 . S
C103 C102 1.409 . S
C103 C104 1.380 1_545 S
C103 H121 0.930 1_545 S
C104 C103 1.380 1_565 S
C104 C111 1.357 1_565 S
C105 C96 1.511 . S
C105 C106 1.341 . S
C105 C107 1.371 . S
C106 C105 1.341 . S
C106 C110 1.394 . S
C106 H122 0.930 . S
C107 C105 1.371 . S
C107 C108 1.392 . S
C107 H123 0.931 . S
C108 C107 1.392 . S
C108 C109 1.331 . S
C108 H126 0.932 . S
C109 C108 1.331 . S
C109 C110 1.336 . S
C110 C106 1.394 . S
C110 C109 1.336 . S
C110 H125 0.929 . S
C111 C101 1.386 . S
C111 C104 1.357 1_545 S
C111 H124 0.928 . S
H112 C88 0.931 . S
H113 C90 0.930 . S
H114 C92 0.929 . S
H115 C93 0.931 . S
H116 C95 0.930 . S
H117 C99 0.931 . S
H118 C97 0.931 . S
H119 C101 0.931 . S
H120 C102 0.929 . S
H121 C103 0.930 1_565 S
H122 C106 0.930 . S
H123 C107 0.931 . S
H124 C111 0.928 . S
H125 C110 0.929 . S
H126 C108 0.932 . S
C127 C128 1.386 . S
C127 C129 1.397 . S
C127 H151 0.931 . S
C128 C127 1.386 . S
C128 C132 1.397 . S
C129 C127 1.397 . S
C129 C130 1.384 . S
C129 H152 0.930 . S
C130 C129 1.384 . S
C130 C131 1.377 . S
C130 C133 1.481 . S
C131 C130 1.377 . S
C131 C132 1.389 . S
C131 H153 0.929 . S
C132 C128 1.397 . S
C132 C131 1.389 . S
C132 H154 0.931 . S
C133 C130 1.481 . S
C133 C134 1.387 . S
C133 C138 1.390 . S
C134 C133 1.387 . S
C134 C135 1.401 . S
C134 H155 0.930 . S
C135 C134 1.401 . S
C135 C136 1.376 . S
C135 C144 1.511 . S
C136 C135 1.376 . S
C136 C137 1.392 . S
C136 H157 0.931 . S
C137 C136 1.392 . S
C137 C138 1.361 . S
C137 C139 1.500 . S
C138 C133 1.390 . S
C138 C137 1.361 . S
C138 H156 0.931 . S
C139 C137 1.500 . S
C139 C140 1.371 . S
C139 C141 1.365 . S
C140 C139 1.371 . S
C140 C150 1.386 . S
C140 H158 0.931 . S
C141 C139 1.365 . S
C141 C142 1.409 . S
C141 H159 0.929 . S
C142 C141 1.409 . S
C142 C143 1.380 . S
C142 H160 0.930 . S
C143 C142 1.380 . S
C143 C150 1.357 . S
C144 C135 1.511 . S
C144 C145 1.341 . S
C144 C146 1.371 . S
C145 C144 1.341 . S
C145 C149 1.394 . S
C145 H161 0.930 . S
C146 C144 1.371 . S
C146 C147 1.392 . S
C146 H162 0.931 . S
C147 C146 1.392 . S
C147 C148 1.331 . S
C147 H165 0.932 . S
C148 C147 1.331 . S
C148 C149 1.336 . S
C149 C145 1.394 . S
C149 C148 1.336 . S
C149 H164 0.929 . S
C150 C140 1.386 . S
C150 C143 1.357 . S
C150 H163 0.928 . S
H151 C127 0.931 . S
H152 C129 0.930 . S
H153 C131 0.929 . S
H154 C132 0.931 . S
H155 C134 0.930 . S
H156 C138 0.931 . S
H157 C136 0.931 . S
H158 C140 0.931 . S
H159 C141 0.929 . S
H160 C142 0.930 . S
H161 C145 0.930 . S
H162 C146 0.931 . S
H163 C150 0.928 . S
H164 C149 0.929 . S
H165 C147 0.932 . S
C166 C167 1.386 . S
C166 C168 1.397 . S
C166 H190 0.931 . S
C167 C166 1.386 . S
C167 C171 1.397 . S
C168 C166 1.397 . S
C168 C169 1.384 . S
C168 H191 0.930 . S
C169 C168 1.384 . S
C169 C170 1.377 . S
C169 C172 1.481 . S
C170 C169 1.377 . S
C170 C171 1.389 . S
C170 H192 0.929 . S
C171 C167 1.397 . S
C171 C170 1.389 . S
C171 H193 0.931 . S
C172 C169 1.481 . S
C172 C173 1.387 . S
C172 C177 1.390 . S
C173 C172 1.387 . S
C173 C174 1.401 . S
C173 H194 0.930 . S
C174 C173 1.401 . S
C174 C175 1.376 . S
C174 C183 1.511 . S
C175 C174 1.376 . S
C175 C176 1.392 . S
C175 H196 0.931 . S
C176 C175 1.392 . S
C176 C177 1.361 . S
C176 C178 1.500 . S
C177 C172 1.390 . S
C177 C176 1.361 . S
C177 H195 0.931 . S
C178 C176 1.500 . S
C178 C179 1.371 . S
C178 C180 1.365 . S
C179 C178 1.371 . S
C179 C189 1.386 . S
C179 H197 0.931 . S
C180 C178 1.365 . S
C180 C181 1.409 . S
C180 H198 0.929 . S
C181 C180 1.409 . S
C181 C182 1.380 . S
C181 H199 0.930 . S
C182 C181 1.380 . S
C182 C189 1.357 . S
C183 C174 1.511 . S
C183 C184 1.341 . S
C183 C185 1.371 . S
C184 C183 1.341 . S
C184 C188 1.394 . S
C184 H200 0.930 . S
C185 C183 1.371 . S
C185 C186 1.392 . S
C185 H201 0.931 . S
C186 C185 1.392 . S
C186 C187 1.331 . S
C186 H204 0.932 . S
C187 C186 1.331 . S
C187 C188 1.336 . S
C188 C184 1.394 . S
C188 C187 1.336 . S
C188 H203 0.929 . S
C189 C179 1.386 . S
C189 C182 1.357 . S
C189 H202 0.928 . S
H190 C166 0.931 . S
H191 C168 0.930 . S
H192 C170 0.929 . S
H193 C171 0.931 . S
H194 C173 0.930 . S
H195 C177 0.931 . S
H196 C175 0.931 . S
H197 C179 0.931 . S
H198 C180 0.929 . S
H199 C181 0.930 . S
H200 C184 0.930 . S
H201 C185 0.931 . S
H202 C189 0.928 . S
H203 C188 0.929 . S
H204 C186 0.932 . S
C205 C206 1.386 . S
C205 C207 1.397 . S
C205 H229 0.931 . S
C206 C205 1.386 . S
C206 C210 1.397 . S
C207 C205 1.397 . S
C207 C208 1.384 . S
C207 H230 0.930 . S
C208 C207 1.384 . S
C208 C209 1.377 . S
C208 C211 1.481 . S
C209 C208 1.377 . S
C209 C210 1.389 . S
C209 H231 0.929 . S
C210 C206 1.397 . S
C210 C209 1.389 . S
C210 H232 0.931 . S
C211 C208 1.481 . S
C211 C212 1.387 . S
C211 C216 1.390 . S
C212 C211 1.387 . S
C212 C213 1.401 . S
C212 H233 0.930 . S
C213 C212 1.401 . S
C213 C214 1.376 . S
C213 C222 1.511 . S
C214 C213 1.376 . S
C214 C215 1.392 . S
C214 H235 0.931 . S
C215 C214 1.392 . S
C215 C216 1.361 . S
C215 C217 1.500 . S
C216 C211 1.390 . S
C216 C215 1.361 . S
C216 H234 0.931 . S
C217 C215 1.500 . S
C217 C218 1.371 . S
C217 C219 1.365 . S
C218 C217 1.371 . S
C218 C228 1.386 . S
C218 H236 0.931 . S
C219 C217 1.365 . S
C219 C220 1.409 . S
C219 H237 0.929 . S
C220 C219 1.409 . S
C220 C221 1.380 . S
C220 H238 0.930 . S
C221 C220 1.380 . S
C221 C228 1.357 . S
C222 C213 1.511 . S
C222 C223 1.341 . S
C222 C224 1.371 . S
C223 C222 1.341 . S
C223 C227 1.394 . S
C223 H239 0.930 . S
C224 C222 1.371 . S
C224 C225 1.392 . S
C224 H240 0.931 . S
C225 C224 1.392 . S
C225 C226 1.331 . S
C225 H243 0.932 . S
C226 C225 1.331 . S
C226 C227 1.336 . S
C227 C223 1.394 . S
C227 C226 1.336 . S
C227 H242 0.929 . S
C228 C218 1.386 . S
C228 C221 1.357 . S
C228 H241 0.928 . S
H229 C205 0.931 . S
H230 C207 0.930 . S
H231 C209 0.929 . S
H232 C210 0.931 . S
H233 C212 0.930 . S
H234 C216 0.931 . S
H235 C214 0.931 . S
H236 C218 0.931 . S
H237 C219 0.929 . S
H238 C220 0.930 . S
H239 C223 0.930 . S
H240 C224 0.931 . S
H241 C228 0.928 . S
H242 C227 0.929 . S
H243 C225 0.932 . S
C244 C245 1.386 . S
C244 C246 1.397 . S
C244 H268 0.931 . S
C245 C244 1.386 . S
C245 C249 1.397 . S
C246 C244 1.397 . S
C246 C247 1.384 . S
C246 H269 0.930 . S
C247 C246 1.384 . S
C247 C248 1.377 . S
C247 C250 1.481 . S
C248 C247 1.377 . S
C248 C249 1.389 . S
C248 H270 0.929 . S
C249 C245 1.397 . S
C249 C248 1.389 . S
C249 H271 0.931 . S
C250 C247 1.481 . S
C250 C251 1.387 . S
C250 C255 1.390 . S
C251 C250 1.387 . S
C251 C252 1.401 . S
C251 H272 0.930 . S
C252 C251 1.401 . S
C252 C253 1.376 . S
C252 C261 1.511 . S
C253 C252 1.376 . S
C253 C254 1.392 . S
C253 H274 0.931 . S
C254 C253 1.392 . S
C254 C255 1.361 . S
C254 C256 1.500 . S
C255 C250 1.390 . S
C255 C254 1.361 . S
C255 H273 0.931 . S
C256 C254 1.500 . S
C256 C257 1.371 . S
C256 C258 1.365 . S
C257 C256 1.371 . S
C257 C267 1.386 . S
C257 H275 0.931 . S
C258 C256 1.365 . S
C258 C259 1.409 . S
C258 H276 0.929 . S
C259 C258 1.409 . S
C259 C260 1.380 . S
C259 H277 0.930 . S
C260 C259 1.380 . S
C260 C267 1.357 . S
C261 C252 1.511 . S
C261 C262 1.341 . S
C261 C263 1.371 . S
C262 C261 1.341 . S
C262 C266 1.394 . S
C262 H278 0.930 . S
C263 C261 1.371 . S
C263 C264 1.392 . S
C263 H279 0.931 . S
C264 C263 1.392 . S
C264 C265 1.331 . S
C264 H282 0.932 . S
C265 C264 1.331 . S
C265 C266 1.336 . S
C266 C262 1.394 . S
C266 C265 1.336 . S
C266 H281 0.929 . S
C267 C257 1.386 . S
C267 C260 1.357 . S
C267 H280 0.928 . S
H268 C244 0.931 . S
H269 C246 0.930 . S
H270 C248 0.929 . S
H271 C249 0.931 . S
H272 C251 0.930 . S
H273 C255 0.931 . S
H274 C253 0.931 . S
H275 C257 0.931 . S
H276 C258 0.929 . S
H277 C259 0.930 . S
H278 C262 0.930 . S
H279 C263 0.931 . S
H280 C267 0.928 . S
H281 C266 0.929 . S
H282 C264 0.932 . S
C283 C284 1.386 . S
C283 C285 1.397 . S
C283 H307 0.931 . S
C284 C283 1.386 . S
C284 C288 1.397 . S
C285 C283 1.397 . S
C285 C286 1.384 . S
C285 H308 0.930 . S
C286 C285 1.384 . S
C286 C287 1.377 . S
C286 C289 1.481 . S
C287 C286 1.377 . S
C287 C288 1.389 . S
C287 H309 0.929 . S
C288 C284 1.397 . S
C288 C287 1.389 . S
C288 H310 0.931 . S
C289 C286 1.481 . S
C289 C290 1.387 . S
C289 C294 1.390 . S
C290 C289 1.387 . S
C290 C291 1.401 . S
C290 H311 0.930 . S
C291 C290 1.401 . S
C291 C292 1.376 . S
C291 C300 1.511 . S
C292 C291 1.376 . S
C292 C293 1.392 . S
C292 H313 0.931 . S
C293 C292 1.392 . S
C293 C294 1.361 . S
C293 C295 1.500 . S
C294 C289 1.390 . S
C294 C293 1.361 . S
C294 H312 0.931 . S
C295 C293 1.500 . S
C295 C296 1.371 . S
C295 C297 1.365 . S
C296 C295 1.371 . S
C296 C306 1.386 . S
C296 H314 0.931 . S
C297 C295 1.365 . S
C297 C298 1.409 . S
C297 H315 0.929 . S
C298 C297 1.409 . S
C298 C299 1.380 . S
C298 H316 0.930 . S
C299 C298 1.380 . S
C299 C306 1.357 . S
C300 C291 1.511 . S
C300 C301 1.341 . S
C300 C302 1.371 . S
C301 C300 1.341 . S
C301 C305 1.394 . S
C301 H317 0.930 . S
C302 C300 1.371 . S
C302 C303 1.392 . S
C302 H318 0.931 . S
C303 C302 1.392 . S
C303 C304 1.331 . S
C303 H321 0.932 . S
C304 C303 1.331 . S
C304 C305 1.336 . S
C305 C301 1.394 . S
C305 C304 1.336 . S
C305 H320 0.929 . S
C306 C296 1.386 . S
C306 C299 1.357 . S
C306 H319 0.928 . S
H307 C283 0.931 . S
H308 C285 0.930 . S
H309 C287 0.929 . S
H310 C288 0.931 . S
H311 C290 0.930 . S
H312 C294 0.931 . S
H313 C292 0.931 . S
H314 C296 0.931 . S
H315 C297 0.929 . S
H316 C298 0.930 . S
H317 C301 0.930 . S
H318 C302 0.931 . S
H319 C306 0.928 . S
H320 C305 0.929 . S
H321 C303 0.932 . S
C322 C323 1.386 . S
C322 C324 1.397 . S
C322 H346 0.931 . S
C323 C322 1.386 . S
C323 C327 1.397 . S
C324 C322 1.397 . S
C324 C325 1.384 . S
C324 H347 0.930 . S
C325 C324 1.384 . S
C325 C326 1.377 . S
C325 C328 1.481 . S
C326 C325 1.377 . S
C326 C327 1.389 . S
C326 H348 0.929 . S
C327 C323 1.397 . S
C327 C326 1.389 . S
C327 H349 0.931 . S
C328 C325 1.481 . S
C328 C329 1.387 . S
C328 C333 1.390 . S
C329 C328 1.387 . S
C329 C330 1.401 . S
C329 H350 0.930 . S
C330 C329 1.401 . S
C330 C331 1.376 . S
C330 C339 1.511 . S
C331 C330 1.376 . S
C331 C332 1.392 . S
C331 H352 0.931 . S
C332 C331 1.392 . S
C332 C333 1.361 . S
C332 C334 1.500 . S
C333 C328 1.390 . S
C333 C332 1.361 . S
C333 H351 0.931 . S
C334 C332 1.500 . S
C334 C335 1.371 . S
C334 C336 1.365 . S
C335 C334 1.371 . S
C335 C345 1.386 . S
C335 H353 0.931 . S
C336 C334 1.365 . S
C336 C337 1.409 . S
C336 H354 0.929 . S
C337 C336 1.409 . S
C337 C338 1.380 . S
C337 H355 0.930 . S
C338 C337 1.380 . S
C338 C345 1.357 . S
C339 C330 1.511 . S
C339 C340 1.341 . S
C339 C341 1.371 . S
C340 C339 1.341 . S
C340 C344 1.394 . S
C340 H356 0.930 . S
C341 C339 1.371 . S
C341 C342 1.392 . S
C341 H357 0.931 . S
C342 C341 1.392 . S
C342 C343 1.331 . S
C342 H360 0.932 . S
C343 C342 1.331 . S
C343 C344 1.336 . S
C344 C340 1.394 . S
C344 C343 1.336 . S
C344 H359 0.929 . S
C345 C335 1.386 . S
C345 C338 1.357 . S
C345 H358 0.928 . S
H346 C322 0.931 . S
H347 C324 0.930 . S
H348 C326 0.929 . S
H349 C327 0.931 . S
H350 C329 0.930 . S
H351 C333 0.931 . S
H352 C331 0.931 . S
H353 C335 0.931 . S
H354 C336 0.929 . S
H355 C337 0.930 . S
H356 C340 0.930 . S
H357 C341 0.931 . S
H358 C345 0.928 . S
H359 C344 0.929 . S
H360 C342 0.932 . S
C361 C362 1.386 . S
C361 C363 1.397 . S
C361 H385 0.931 . S
C362 C361 1.386 . S
C362 C366 1.397 . S
C363 C361 1.397 . S
C363 C364 1.384 1_455 S
C363 H386 0.930 . S
C364 C363 1.384 1_655 S
C364 C365 1.377 . S
C364 C367 1.481 . S
C365 C364 1.377 . S
C365 C366 1.389 1_655 S
C365 H387 0.929 . S
C366 C362 1.397 . S
C366 C365 1.389 1_455 S
C366 H388 0.931 . S
C367 C364 1.481 . S
C367 C368 1.387 . S
C367 C372 1.390 . S
C368 C367 1.387 . S
C368 C369 1.401 . S
C368 H389 0.930 . S
C369 C368 1.401 . S
C369 C370 1.376 . S
C369 C378 1.511 . S
C370 C369 1.376 . S
C370 C371 1.392 . S
C370 H391 0.931 . S
C371 C370 1.392 . S
C371 C372 1.361 . S
C371 C373 1.500 . S
C372 C367 1.390 . S
C372 C371 1.361 . S
C372 H390 0.931 . S
C373 C371 1.500 . S
C373 C374 1.371 . S
C373 C375 1.365 . S
C374 C373 1.371 . S
C374 C384 1.386 . S
C374 H392 0.931 . S
C375 C373 1.365 . S
C375 C376 1.409 . S
C375 H393 0.929 . S
C376 C375 1.409 . S
C376 C377 1.380 1_565 S
C376 H394 0.930 . S
C377 C376 1.380 1_545 S
C377 C384 1.357 1_545 S
C378 C369 1.511 . S
C378 C379 1.341 . S
C378 C380 1.371 . S
C379 C378 1.341 . S
C379 C383 1.394 . S
C379 H395 0.930 . S
C380 C378 1.371 . S
C380 C381 1.392 . S
C380 H396 0.931 . S
C381 C380 1.392 . S
C381 C382 1.331 . S
C381 H399 0.932 . S
C382 C381 1.331 . S
C382 C383 1.336 . S
C383 C379 1.394 . S
C383 C382 1.336 . S
C383 H398 0.929 . S
C384 C374 1.386 . S
C384 C377 1.357 1_565 S
C384 H397 0.928 1_565 S
H385 C361 0.931 . S
H386 C363 0.930 . S
H387 C365 0.929 . S
H388 C366 0.931 . S
H389 C368 0.930 . S
H390 C372 0.931 . S
H391 C370 0.931 . S
H392 C374 0.931 . S
H393 C375 0.929 . S
H394 C376 0.930 . S
H395 C379 0.930 . S
H396 C380 0.931 . S
H397 C384 0.928 1_545 S
H398 C383 0.929 . S
H399 C381 0.932 . S
H400 C406 0.930 . S
H401 C409 0.930 . S
H402 C410 0.930 . S
H403 C411 0.930 . S
H404 C414 0.930 . S
H405 C415 0.930 . S
C406 H400 0.930 . S
C406 C407 1.355 . S
C406 C408 1.415 . S
C407 C406 1.355 . S
C407 C409 1.419 . S
C408 C406 1.415 . S
C408 C413 1.425 . S
C408 C415 1.409 . S
C409 H401 0.930 . S
C409 C407 1.419 . S
C409 C410 1.362 . S
C410 H402 0.930 . S
C410 C409 1.362 . S
C410 C413 1.409 . S
C411 H403 0.930 . S
C411 C412 1.355 . S
C411 C413 1.415 . S
C412 C411 1.355 . S
C412 C414 1.419 . S
C413 C408 1.425 . S
C413 C410 1.409 . S
C413 C411 1.415 . S
C414 H404 0.930 . S
C414 C412 1.419 . S
C414 C415 1.362 . S
C415 H405 0.930 . S
C415 C408 1.409 . S
C415 C414 1.362 . S
H416 C422 0.930 . S
H417 C425 0.930 . S
H418 C426 0.930 . S
H419 C427 0.930 . S
H420 C430 0.930 . S
H421 C431 0.930 . S
C422 H416 0.930 . S
C422 C423 1.355 . S
C422 C424 1.415 . S
C423 C422 1.355 . S
C423 C425 1.419 . S
C424 C422 1.415 . S
C424 C429 1.425 . S
C424 C431 1.409 . S
C425 H417 0.930 . S
C425 C423 1.419 . S
C425 C426 1.362 . S
C426 H418 0.930 . S
C426 C425 1.362 . S
C426 C429 1.409 . S
C427 H419 0.930 . S
C427 C428 1.355 . S
C427 C429 1.415 . S
C428 C427 1.355 . S
C428 C430 1.419 . S
C429 C424 1.425 . S
C429 C426 1.409 . S
C429 C427 1.415 . S
C430 H420 0.930 . S
C430 C428 1.419 . S
C430 C431 1.362 . S
C431 H421 0.930 . S
C431 C424 1.409 . S
C431 C430 1.362 . S
H432 C438 0.930 . S
H433 C441 0.930 . S
H434 C442 0.930 . S
H435 C443 0.930 . S
H436 C446 0.930 . S
H437 C447 0.930 . S
C438 H432 0.930 . S
C438 C439 1.355 . S
C438 C440 1.415 . S
C439 C438 1.355 . S
C439 C441 1.419 . S
C440 C438 1.415 . S
C440 C445 1.425 . S
C440 C447 1.409 1_545 S
C441 H433 0.930 . S
C441 C439 1.419 . S
C441 C442 1.362 . S
C442 H434 0.930 . S
C442 C441 1.362 . S
C442 C445 1.409 . S
C443 H435 0.930 . S
C443 C444 1.355 1_545 S
C443 C445 1.415 . S
C444 C443 1.355 1_565 S
C444 C446 1.419 . S
C445 C440 1.425 . S
C445 C442 1.409 . S
C445 C443 1.415 . S
C446 H436 0.930 . S
C446 C444 1.419 . S
C446 C447 1.362 . S
C447 H437 0.930 . S
C447 C440 1.409 1_565 S
C447 C446 1.362 . S
H448 C454 0.930 . S
H449 C457 0.930 . S
H450 C458 0.930 . S
H451 C459 0.930 . S
H452 C462 0.930 . S
H453 C463 0.930 . S
C454 H448 0.930 . S
C454 C455 1.355 . S
C454 C456 1.415 . S
C455 C454 1.355 . S
C455 C457 1.419 . S
C456 C454 1.415 . S
C456 C461 1.425 . S
C456 C463 1.409 . S
C457 H449 0.930 . S
C457 C455 1.419 . S
C457 C458 1.362 . S
C458 H450 0.930 . S
C458 C457 1.362 . S
C458 C461 1.409 . S
C459 H451 0.930 . S
C459 C460 1.355 . S
C459 C461 1.415 . S
C460 C459 1.355 . S
C460 C462 1.419 . S
C461 C456 1.425 . S
C461 C458 1.409 . S
C461 C459 1.415 . S
C462 H452 0.930 . S
C462 C460 1.419 . S
C462 C463 1.362 . S
C463 H453 0.930 . S
C463 C456 1.409 . S
C463 C462 1.362 . S
H464 C470 0.930 . S
H465 C473 0.930 . S
H466 C474 0.930 . S
H467 C475 0.930 . S
H468 C478 0.930 . S
H469 C479 0.930 . S
C470 H464 0.930 . S
C470 C471 1.355 . S
C470 C472 1.415 . S
C471 C470 1.355 . S
C471 C473 1.419 . S
C472 C470 1.415 . S
C472 C477 1.425 . S
C472 C479 1.409 . S
C473 H465 0.930 . S
C473 C471 1.419 . S
C473 C474 1.362 . S
C474 H466 0.930 . S
C474 C473 1.362 . S
C474 C477 1.409 . S
C475 H467 0.930 . S
C475 C476 1.355 . S
C475 C477 1.415 . S
C476 C475 1.355 . S
C476 C478 1.419 . S
C477 C472 1.425 . S
C477 C474 1.409 . S
C477 C475 1.415 . S
C478 H468 0.930 . S
C478 C476 1.419 . S
C478 C479 1.362 . S
C479 H469 0.930 . S
C479 C472 1.409 . S
C479 C478 1.362 . S
H480 C486 0.930 . S
H481 C489 0.930 1_554 S
H482 C490 0.930 1_554 S
H483 C491 0.930 . S
H484 C494 0.930 . S
H485 C495 0.930 . S
C486 H480 0.930 . S
C486 C487 1.355 . S
C486 C488 1.415 1_655 S
C487 C486 1.355 . S
C487 C489 1.419 . S
C488 C486 1.415 1_455 S
C488 C493 1.425 . S
C488 C495 1.409 . S
C489 H481 0.930 1_556 S
C489 C487 1.419 . S
C489 C490 1.362 1_655 S
C490 H482 0.930 1_556 S
C490 C489 1.362 1_455 S
C490 C493 1.409 . S
C491 H483 0.930 . S
C491 C492 1.355 . S
C491 C493 1.415 . S
C492 C491 1.355 . S
C492 C494 1.419 . S
C493 C488 1.425 . S
C493 C490 1.409 . S
C493 C491 1.415 . S
C494 H484 0.930 . S
C494 C492 1.419 . S
C494 C495 1.362 . S
C495 H485 0.930 . S
C495 C488 1.409 . S
C495 C494 1.362 . S
H496 C502 0.930 . S
H497 C505 0.930 . S
H498 C506 0.930 . S
H499 C507 0.930 . S
H500 C510 0.930 . S
H501 C511 0.930 . S
C502 H496 0.930 . S
C502 C503 1.355 . S
C502 C504 1.415 . S
C503 C502 1.355 . S
C503 C505 1.419 . S
C504 C502 1.415 . S
C504 C509 1.425 . S
C504 C511 1.409 . S
C505 H497 0.930 . S
C505 C503 1.419 . S
C505 C506 1.362 . S
C506 H498 0.930 . S
C506 C505 1.362 . S
C506 C509 1.409 . S
C507 H499 0.930 . S
C507 C508 1.355 . S
C507 C509 1.415 . S
C508 C507 1.355 . S
C508 C510 1.419 . S
C509 C504 1.425 . S
C509 C506 1.409 . S
C509 C507 1.415 . S
C510 H500 0.930 . S
C510 C508 1.419 . S
C510 C511 1.362 . S
C511 H501 0.930 . S
C511 C504 1.409 . S
C511 C510 1.362 . S
H512 C518 0.930 . S
H513 C521 0.930 . S
H514 C522 0.930 . S
H515 C523 0.930 . S
H516 C526 0.930 . S
H517 C527 0.930 . S
C518 H512 0.930 . S
C518 C519 1.355 . S
C518 C520 1.415 . S
C519 C518 1.355 . S
C519 C521 1.419 . S
C520 C518 1.415 . S
C520 C525 1.425 . S
C520 C527 1.409 . S
C521 H513 0.930 . S
C521 C519 1.419 . S
C521 C522 1.362 . S
C522 H514 0.930 . S
C522 C521 1.362 . S
C522 C525 1.409 . S
C523 H515 0.930 . S
C523 C524 1.355 . S
C523 C525 1.415 . S
C524 C523 1.355 . S
C524 C526 1.419 . S
C525 C520 1.425 . S
C525 C522 1.409 . S
C525 C523 1.415 . S
C526 H516 0.930 . S
C526 C524 1.419 . S
C526 C527 1.362 . S
C527 H517 0.930 . S
C527 C520 1.409 . S
C527 C526 1.362 . S
H528 C534 0.930 . S
H529 C537 0.930 . S
H530 C538 0.930 . S
H531 C539 0.930 . S
H532 C542 0.930 . S
H533 C543 0.930 . S
C534 H528 0.930 . S
C534 C535 1.355 . S
C534 C536 1.415 . S
C535 C534 1.355 . S
C535 C537 1.419 . S
C536 C534 1.415 . S
C536 C541 1.425 . S
C536 C543 1.409 . S
C537 H529 0.930 . S
C537 C535 1.419 . S
C537 C538 1.362 . S
C538 H530 0.930 . S
C538 C537 1.362 . S
C538 C541 1.409 . S
C539 H531 0.930 . S
C539 C540 1.355 . S
C539 C541 1.415 . S
C540 C539 1.355 . S
C540 C542 1.419 . S
C541 C536 1.425 . S
C541 C538 1.409 . S
C541 C539 1.415 . S
C542 H532 0.930 . S
C542 C540 1.419 . S
C542 C543 1.362 . S
C543 H533 0.930 . S
C543 C536 1.409 . S
C543 C542 1.362 . S
H544 C550 0.930 . S
H545 C553 0.930 . S
H546 C554 0.930 . S
H547 C555 0.930 . S
H548 C558 0.930 . S
H549 C559 0.930 . S
C550 H544 0.930 . S
C550 C551 1.355 . S
C550 C552 1.415 . S
C551 C550 1.355 . S
C551 C553 1.419 . S
C552 C550 1.415 . S
C552 C557 1.425 . S
C552 C559 1.409 . S
C553 H545 0.930 . S
C553 C551 1.419 . S
C553 C554 1.362 . S
C554 H546 0.930 . S
C554 C553 1.362 . S
C554 C557 1.409 . S
C555 H547 0.930 . S
C555 C556 1.355 . S
C555 C557 1.415 . S
C556 C555 1.355 . S
C556 C558 1.419 . S
C557 C552 1.425 . S
C557 C554 1.409 . S
C557 C555 1.415 . S
C558 H548 0.930 . S
C558 C556 1.419 . S
C558 C559 1.362 . S
C559 H549 0.930 . S
C559 C552 1.409 . S
C559 C558 1.362 . S
H560 C566 0.930 . S
H561 C569 0.930 . S
H562 C570 0.938 . S
H563 C571 0.930 . S
H564 C574 0.930 . S
H565 C575 0.930 . S
C566 H560 0.930 . S
C566 C567 1.355 . S
C566 C568 1.415 . S
C567 C566 1.355 . S
C567 C569 1.419 1_556 S
C568 C566 1.415 . S
C568 C573 1.425 . S
C568 C575 1.409 . S
C569 H561 0.930 . S
C569 C567 1.419 1_554 S
C569 C570 1.370 . S
C570 H562 0.938 . S
C570 C569 1.370 . S
C570 C573 1.395 1_554 S
C571 H563 0.930 . S
C571 C572 1.355 . S
C571 C573 1.415 1_545 S
C572 C571 1.355 . S
C572 C574 1.419 1_545 S
C573 C568 1.425 . S
C573 C570 1.395 1_556 S
C573 C571 1.415 1_565 S
C574 H564 0.930 . S
C574 C572 1.419 1_565 S
C574 C575 1.362 . S
C575 H565 0.930 . S
C575 C568 1.409 . S
C575 C574 1.362 . S
H576 C582 0.930 . S
H577 C585 0.930 . S
H578 C586 0.930 . S
H579 C587 0.930 . S
H580 C590 0.930 . S
H581 C591 0.930 . S
C582 H576 0.930 . S
C582 C583 1.355 . S
C582 C584 1.415 . S
C583 C582 1.355 . S
C583 C585 1.419 . S
C584 C582 1.415 . S
C584 C589 1.425 . S
C584 C591 1.409 . S
C585 H577 0.930 . S
C585 C583 1.419 . S
C585 C586 1.362 . S
C586 H578 0.930 . S
C586 C585 1.362 . S
C586 C589 1.409 . S
C587 H579 0.930 . S
C587 C588 1.355 . S
C587 C589 1.415 . S
C588 C587 1.355 . S
C588 C590 1.419 . S
C589 C584 1.425 . S
C589 C586 1.409 . S
C589 C587 1.415 . S
C590 H580 0.930 . S
C590 C588 1.419 . S
C590 C591 1.362 . S
C591 H581 0.930 . S
C591 C584 1.409 . S
C591 C590 1.362 . S
H592 C598 0.930 . S
H593 C601 0.930 . S
H594 C602 0.930 . S
H595 C603 0.930 . S
H596 C606 0.930 . S
H597 C607 0.930 . S
C598 H592 0.930 . S
C598 C599 1.355 . S
C598 C600 1.415 . S
C599 C598 1.355 . S
C599 C601 1.419 . S
C600 C598 1.415 . S
C600 C605 1.425 . S
C600 C607 1.409 . S
C601 H593 0.930 . S
C601 C599 1.419 . S
C601 C602 1.362 . S
C602 H594 0.930 . S
C602 C601 1.362 . S
C602 C605 1.409 . S
C603 H595 0.930 . S
C603 C604 1.355 . S
C603 C605 1.415 . S
C604 C603 1.355 . S
C604 C606 1.419 . S
C605 C600 1.425 . S
C605 C602 1.409 . S
C605 C603 1.415 . S
C606 H596 0.930 . S
C606 C604 1.419 . S
C606 C607 1.362 . S
C607 H597 0.930 . S
C607 C600 1.409 . S
C607 C606 1.362 . S
H608 C614 0.930 . S
H609 C617 0.930 . S
H610 C618 0.930 . S
H611 C619 0.930 . S
H612 C622 0.930 . S
H613 C623 0.930 . S
C614 H608 0.930 . S
C614 C615 1.355 . S
C614 C616 1.415 1_455 S
C615 C614 1.355 . S
C615 C617 1.419 . S
C616 C614 1.415 1_655 S
C616 C621 1.425 . S
C616 C623 1.409 . S
C617 H609 0.930 . S
C617 C615 1.419 . S
C617 C618 1.362 1_455 S
C618 H610 0.930 . S
C618 C617 1.362 1_655 S
C618 C621 1.409 . S
C619 H611 0.930 . S
C619 C620 1.355 . S
C619 C621 1.415 . S
C620 C619 1.355 . S
C620 C622 1.419 . S
C621 C616 1.425 . S
C621 C618 1.409 . S
C621 C619 1.415 . S
C622 H612 0.930 . S
C622 C620 1.419 . S
C622 C623 1.362 . S
C623 H613 0.930 . S
C623 C616 1.409 . S
C623 C622 1.362 . S
H624 C630 0.930 . S
H625 C633 0.930 . S
H626 C634 0.930 . S
H627 C635 0.930 . S
H628 C638 0.930 . S
H629 C639 0.930 . S
C630 H624 0.930 . S
C630 C631 1.355 . S
C630 C632 1.415 . S
C631 C630 1.355 . S
C631 C633 1.419 . S
C632 C630 1.415 . S
C632 C637 1.425 . S
C632 C639 1.409 . S
C633 H625 0.930 . S
C633 C631 1.419 . S
C633 C634 1.362 . S
C634 H626 0.930 . S
C634 C633 1.362 . S
C634 C637 1.409 . S
C635 H627 0.930 . S
C635 C636 1.355 . S
C635 C637 1.415 . S
C636 C635 1.355 . S
C636 C638 1.419 . S
C637 C632 1.425 . S
C637 C634 1.409 . S
C637 C635 1.415 . S
C638 H628 0.930 . S
C638 C636 1.419 . S
C638 C639 1.362 . S
C639 H629 0.930 . S
C639 C632 1.409 . S
C639 C638 1.362 . S
H640 C646 0.930 . S
H641 C649 0.930 . S
H642 C650 0.930 . S
H643 C651 0.930 . S
H644 C654 0.930 . S
H645 C655 0.930 . S
C646 H640 0.930 . S
C646 C647 1.355 . S
C646 C648 1.415 . S
C647 C646 1.355 . S
C647 C649 1.419 . S
C648 C646 1.415 . S
C648 C653 1.425 . S
C648 C655 1.409 . S
C649 H641 0.930 . S
C649 C647 1.419 . S
C649 C650 1.362 . S
C650 H642 0.930 . S
C650 C649 1.362 . S
C650 C653 1.409 . S
C651 H643 0.930 . S
C651 C652 1.355 . S
C651 C653 1.415 . S
C652 C651 1.355 . S
C652 C654 1.419 . S
C653 C648 1.425 . S
C653 C650 1.409 . S
C653 C651 1.415 . S
C654 H644 0.930 . S
C654 C652 1.419 . S
C654 C655 1.362 . S
C655 H645 0.930 . S
C655 C648 1.409 . S
C655 C654 1.362 . S
H656 C662 0.930 . S
H657 C665 0.930 . S
H658 C666 0.930 . S
H659 C667 0.930 . S
H660 C670 0.930 . S
H661 C671 0.930 . S
C662 H656 0.930 . S
C662 C663 1.355 . S
C662 C664 1.415 . S
C663 C662 1.355 . S
C663 C665 1.419 . S
C664 C662 1.415 . S
C664 C669 1.425 . S
C664 C671 1.409 . S
C665 H657 0.930 . S
C665 C663 1.419 . S
C665 C666 1.362 . S
C666 H658 0.930 . S
C666 C665 1.362 . S
C666 C669 1.409 . S
C667 H659 0.930 . S
C667 C668 1.355 . S
C667 C669 1.415 . S
C668 C667 1.355 . S
C668 C670 1.419 . S
C669 C664 1.425 . S
C669 C666 1.409 . S
C669 C667 1.415 . S
C670 H660 0.930 . S
C670 C668 1.419 . S
C670 C671 1.362 . S
C671 H661 0.930 . S
C671 C664 1.409 . S
C671 C670 1.362 . S
H672 C678 0.930 . S
H673 C681 0.930 . S
H674 C682 0.930 . S
H675 C683 0.930 . S
H676 C686 0.930 . S
H677 C687 0.930 . S
C678 H672 0.930 . S
C678 C679 1.355 . S
C678 C680 1.415 . S
C679 C678 1.355 . S
C679 C681 1.419 . S
C680 C678 1.415 . S
C680 C685 1.425 . S
C680 C687 1.409 . S
C681 H673 0.930 . S
C681 C679 1.419 . S
C681 C682 1.362 . S
C682 H674 0.930 . S
C682 C681 1.362 . S
C682 C685 1.409 . S
C683 H675 0.930 . S
C683 C684 1.355 . S
C683 C685 1.415 . S
C684 C683 1.355 . S
C684 C686 1.419 . S
C685 C680 1.425 . S
C685 C682 1.409 . S
C685 C683 1.415 . S
C686 H676 0.930 . S
C686 C684 1.419 . S
C686 C687 1.362 . S
C687 H677 0.930 . S
C687 C680 1.409 . S
C687 C686 1.362 . S
H688 C694 0.930 . S
H689 C697 0.930 . S
H690 C698 0.930 . S
H691 C699 0.930 . S
H692 C702 0.930 . S
H693 C703 0.930 . S
C694 H688 0.930 . S
C694 C695 1.355 . S
C694 C696 1.415 . S
C695 C694 1.355 . S
C695 C697 1.419 . S
C696 C694 1.415 . S
C696 C701 1.425 . S
C696 C703 1.409 . S
C697 H689 0.930 . S
C697 C695 1.419 . S
C697 C698 1.362 . S
C698 H690 0.930 . S
C698 C697 1.362 . S
C698 C701 1.409 . S
C699 H691 0.930 . S
C699 C700 1.355 . S
C699 C701 1.415 . S
C700 C699 1.355 . S
C700 C702 1.419 . S
C701 C696 1.425 . S
C701 C698 1.409 . S
C701 C699 1.415 . S
C702 H692 0.930 . S
C702 C700 1.419 . S
C702 C703 1.362 . S
C703 H693 0.930 . S
C703 C696 1.409 . S
C703 C702 1.362 . S
H704 C710 0.930 . S
H705 C713 0.930 . S
H706 C714 0.930 . S
H707 C715 0.930 . S
H708 C718 0.930 . S
H709 C719 0.930 . S
C710 H704 0.930 . S
C710 C711 1.355 . S
C710 C712 1.415 . S
C711 C710 1.355 . S
C711 C713 1.419 . S
C712 C710 1.415 . S
C712 C717 1.425 . S
C712 C719 1.409 . S
C713 H705 0.930 . S
C713 C711 1.419 . S
C713 C714 1.362 . S
C714 H706 0.930 . S
C714 C713 1.362 . S
C714 C717 1.409 . S
C715 H707 0.930 . S
C715 C716 1.355 . S
C715 C717 1.415 . S
C716 C715 1.355 . S
C716 C718 1.419 . S
C717 C712 1.425 . S
C717 C714 1.409 . S
C717 C715 1.415 . S
C718 H708 0.930 . S
C718 C716 1.419 . S
C718 C719 1.362 . S
C719 H709 0.930 . S
C719 C712 1.409 . S
C719 C718 1.362 . S
H720 C726 0.930 . S
H721 C729 0.930 . S
H722 C730 0.930 . S
H723 C731 0.930 . S
H724 C734 0.930 . S
H725 C735 0.930 . S
C726 H720 0.930 . S
C726 C727 1.355 . S
C726 C728 1.415 . S
C727 C726 1.355 . S
C727 C729 1.419 . S
C728 C726 1.415 . S
C728 C733 1.425 . S
C728 C735 1.409 . S
C729 H721 0.930 . S
C729 C727 1.419 . S
C729 C730 1.362 . S
C730 H722 0.930 . S
C730 C729 1.362 . S
C730 C733 1.409 . S
C731 H723 0.930 . S
C731 C732 1.355 . S
C731 C733 1.415 . S
C732 C731 1.355 . S
C732 C734 1.419 . S
C733 C728 1.425 . S
C733 C730 1.409 . S
C733 C731 1.415 . S
C734 H724 0.930 . S
C734 C732 1.419 . S
C734 C735 1.362 . S
C735 H725 0.930 . S
C735 C728 1.409 . S
C735 C734 1.362 . S
H736 C742 0.930 . S
H737 C745 0.930 . S
H738 C746 0.930 . S
H739 C747 0.930 . S
H740 C750 0.930 . S
H741 C751 0.930 . S
C742 H736 0.930 . S
C742 C743 1.355 . S
C742 C744 1.415 . S
C743 C742 1.355 . S
C743 C745 1.419 . S
C744 C742 1.415 . S
C744 C749 1.425 . S
C744 C751 1.409 . S
C745 H737 0.930 . S
C745 C743 1.419 . S
C745 C746 1.362 . S
C746 H738 0.930 . S
C746 C745 1.362 . S
C746 C749 1.409 . S
C747 H739 0.930 . S
C747 C748 1.355 . S
C747 C749 1.415 . S
C748 C747 1.355 . S
C748 C750 1.419 . S
C749 C744 1.425 . S
C749 C746 1.409 . S
C749 C747 1.415 . S
C750 H740 0.930 . S
C750 C748 1.419 . S
C750 C751 1.362 . S
C751 H741 0.930 . S
C751 C744 1.409 . S
C751 C750 1.362 . S
H752 C758 0.930 . S
H753 C761 0.930 . S
H754 C762 0.930 . S
H755 C763 0.930 . S
H756 C766 0.930 . S
H757 C767 0.930 . S
C758 H752 0.930 . S
C758 C759 1.355 . S
C758 C760 1.415 . S
C759 C758 1.355 . S
C759 C761 1.419 . S
C760 C758 1.415 . S
C760 C765 1.425 . S
C760 C767 1.409 . S
C761 H753 0.930 . S
C761 C759 1.419 . S
C761 C762 1.362 . S
C762 H754 0.930 . S
C762 C761 1.362 . S
C762 C765 1.409 . S
C763 H755 0.930 . S
C763 C764 1.355 . S
C763 C765 1.415 . S
C764 C763 1.355 . S
C764 C766 1.419 . S
C765 C760 1.425 . S
C765 C762 1.409 . S
C765 C763 1.415 . S
C766 H756 0.930 . S
C766 C764 1.419 . S
C766 C767 1.362 . S
C767 H757 0.930 . S
C767 C760 1.409 . S
C767 C766 1.362 . S
H768 C774 0.930 . S
H769 C777 0.930 . S
H770 C778 0.930 . S
H771 C779 0.930 . S
H772 C782 0.930 . S
H773 C783 0.931 1_554 S
C774 H768 0.930 . S
C774 C775 1.355 1_554 S
C774 C776 1.415 1_554 S
C775 C774 1.355 1_556 S
C775 C777 1.419 . S
C776 C774 1.415 1_556 S
C776 C781 1.425 . S
C776 C783 1.409 . S
C777 H769 0.930 . S
C777 C775 1.419 . S
C777 C778 1.362 . S
C778 H770 0.930 . S
C778 C777 1.362 . S
C778 C781 1.409 . S
C779 H771 0.930 . S
C779 C780 1.355 . S
C779 C781 1.415 . S
C780 C779 1.355 . S
C780 C782 1.419 . S
C781 C776 1.425 . S
C781 C778 1.409 . S
C781 C779 1.415 . S
C782 H772 0.930 . S
C782 C780 1.419 . S
C782 C783 1.362 . S
C783 H773 0.931 1_556 S
C783 C776 1.409 . S
C783 C782 1.362 . S
C407 C8 1.662 . S
C412 C104 1.591 . S
C423 C31 1.631 . S
C428 C143 1.489 . S
C439 C53 1.882 . S
C444 C182 1.701 . S
C460 C206 1.491 . S
C455 C74 1.519 . S
C476 C245 1.562 . S
C471 C26 1.656 . S
C487 C48 1.463 . S
C492 C284 1.451 . S
C503 C71 1.881 . S
C508 C338 1.765 . S
C519 C5 1.638 . S
C524 C362 1.454 . S
C535 C50 1.657 . S
C540 C377 1.605 . S
C556 C260 1.491 . S
C551 C70 1.629 . S
C572 C299 1.763 . S
C567 C4 1.852 1_556 S
C583 C28 1.517 . S
C588 C323 1.501 . S
C604 C128 1.530 . S
C599 C73 1.662 . S
C615 C7 1.460 . S
C620 C167 1.486 . S
C636 C221 1.776 . S
C631 C30 1.859 . S
C652 C89 1.468 . S
C647 C52 1.633 . S
C668 C343 1.530 . S
C663 C9 1.613 . S
C684 C382 1.391 . S
C679 C29 1.422 . S
C695 C51 1.450 . S
C700 C265 1.434 . S
C716 C304 1.516 . S
C711 C75 1.633 . S
C732 C187 1.552 . S
C727 C27 1.638 . S
C743 C49 1.622 . S
C748 C226 1.560 . S
C764 C109 1.442 . S
C759 C72 1.454 . S
C780 C148 1.440 . S
C775 C6 1.455 1_556 S
