# Generated by pormake.
# Topology rtl, (3,6)-cn, num edge types: 1
# Building blocks:
#     Node 0, Type 0, BuildingBlock: QEWDON_clean_linker_0, # of connection points: 3
#     Node 1, Type 0, BuildingBlock: QEWDON_clean_linker_0, # of connection points: 3
#     Node 2, Type 0, BuildingBlock: QEWDON_clean_linker_0, # of connection points: 3
#     Node 3, Type 0, BuildingBlock: QEWDON_clean_linker_0, # of connection points: 3
#     Node 4, Type 1, BuildingBlock: KUMBUR_clean_sbu_1, # of connection points: 6
#     Node 5, Type 1, BuildingBlock: KUMBUR_clean_sbu_1, # of connection points: 6
#     Edge 6, Type (0, 1), BuildingBlock: EZIPEK_clean_linker_0, # of connection points: 2
#     Edge 7, Type (0, 1), BuildingBlock: EZIPEK_clean_linker_0, # of connection points: 2
#     Edge 8, Type (0, 1), BuildingBlock: EZIPEK_clean_linker_0, # of connection points: 2
#     Edge 9, Type (0, 1), BuildingBlock: EZIPEK_clean_linker_0, # of connection points: 2
#     Edge 10, Type (0, 1), BuildingBlock: EZIPEK_clean_linker_0, # of connection points: 2
#     Edge 11, Type (0, 1), BuildingBlock: EZIPEK_clean_linker_0, # of connection points: 2
#     Edge 12, Type (0, 1), BuildingBlock: EZIPEK_clean_linker_0, # of connection points: 2
#     Edge 13, Type (0, 1), BuildingBlock: EZIPEK_clean_linker_0, # of connection points: 2
#     Edge 14, Type (0, 1), BuildingBlock: EZIPEK_clean_linker_0, # of connection points: 2
#     Edge 15, Type (0, 1), BuildingBlock: EZIPEK_clean_linker_0, # of connection points: 2
#     Edge 16, Type (0, 1), BuildingBlock: EZIPEK_clean_linker_0, # of connection points: 2
#     Edge 17, Type (0, 1), BuildingBlock: EZIPEK_clean_linker_0, # of connection points: 2
# Relax obj value: 0.086
# Max RMSD: 0.289
# Mean RMSD: 0.218
data_MOF--net-rtl--node1-KUMBUR_clean_sbu_1--node2-QEWDON_clean_linker_0--edge1-EZIPEK_clean_linker_0
_symmetry_space_group_name_H-M    P1
_symmetry_Int_Tables_number       1
_symmetry_cell_setting            triclinic
loop_
_symmetry_equiv_pos_as_xyz
'x, y, z'
_cell_length_a     28.249223
_cell_length_b     28.609704
_cell_length_c     20.289645
_cell_angle_alpha  75.111569
_cell_angle_beta   100.49105
_cell_angle_gamma 91.46173
loop_
_atom_site_label
_atom_site_type_symbol
_atom_site_fract_x
_atom_site_fract_y
_atom_site_fract_z
_atom_type_partial_charge
H0 H 0.2343 0.80961 0.13737 0.0
C1 C 0.2144 0.8268 0.08618 0.0
C2 C 0.16994 0.85026 0.07969 0.0
C3 C 0.23439 0.82736 0.02729 0.0
H4 H 0.11203 0.89391 1.0078 0.0
C5 C 0.14564 0.87462 0.01322 0.0
C6 C 0.16508 0.87526 0.95387 0.0
C7 C 0.20912 0.8509 0.96115 0.0
C8 C 0.28512 0.81126 0.03604 0.0
H9 H 0.225 0.85281 0.91575 0.0
C10 C 0.29768 0.76761 0.02252 0.0
C11 C 0.34667 0.7535 0.03312 0.0
C12 C 0.32168 0.84064 0.05891 0.0
H13 H 0.31273 0.87432 0.06939 0.0
C14 C 0.36999 0.82705 0.0682 0.0
H15 H 0.26976 0.74444 1.00539 0.0
C16 C 0.38247 0.78373 0.0556 0.0
H17 H 0.42018 0.77344 0.06406 0.0
H18 H 0.39788 0.85004 0.08574 0.0
H19 H 0.74307 0.70992 0.6085 0.0
C20 C 0.7213 0.697 0.64805 0.0
C21 C 0.68109 0.66869 0.63427 0.0
C22 C 0.73531 0.70547 0.71425 0.0
H23 H 0.62297 0.62809 0.67491 0.0
C24 C 0.65363 0.65034 0.68568 0.0
C25 C 0.66645 0.65826 0.75178 0.0
C26 C 0.70734 0.68582 0.76602 0.0
C27 C 0.78191 0.72973 0.73165 0.0
H28 H 0.71764 0.69119 0.81762 0.0
C29 C 0.79711 0.7713 0.68549 0.0
C30 C 0.84207 0.79219 0.70371 0.0
C31 C 0.81271 0.70959 0.79504 0.0
H32 H 0.80296 0.6773 0.8309 0.0
C33 C 0.85705 0.72996 0.81254 0.0
H34 H 0.77394 0.78782 0.63664 0.0
C35 C 0.87159 0.7709 0.76747 0.0
H36 H 0.90599 0.7864 0.78265 0.0
H37 H 0.8803 0.71391 0.86148 0.0
H38 H 0.79867 0.18687 0.21923 0.0
C39 C 0.8161 0.18273 0.17763 0.0
C40 C 0.86057 0.15738 0.1935 0.0
C41 C 0.79296 0.20011 0.10806 0.0
H42 H 0.91606 0.1303 0.15201 0.0
C43 C 0.88221 0.15049 0.13971 0.0
C44 C 0.85953 0.16727 0.0704 0.0
C45 C 0.81498 0.19204 0.05478 0.0
C46 C 0.74302 0.22052 0.09057 0.0
H47 H 0.79685 0.20388 1.0012 0.0
C48 C 0.73107 0.26377 0.10603 0.0
C49 C 0.68343 0.28296 0.08469 0.0
C50 C 0.70685 0.19655 0.05539 0.0
H51 H 0.71509 0.16326 0.04325 0.0
C52 C 0.65982 0.21515 0.03539 0.0
H53 H 0.75865 0.28295 0.13248 0.0
C54 C 0.64824 0.25817 0.04949 0.0
H55 H 0.61178 0.27255 0.03207 0.0
H56 H 0.63234 0.1964 1.00811 0.0
H57 H 0.32517 0.29896 0.53205 0.0
C58 C 0.34192 0.31761 0.48888 0.0
C59 C 0.37187 0.35685 0.4955 0.0
C60 C 0.33573 0.30121 0.428 0.0
H61 H 0.41931 0.40945 0.44746 0.0
C62 C 0.39567 0.37974 0.44149 0.0
C63 C 0.38887 0.3654 0.37954 0.0
C64 C 0.35833 0.32659 0.37267 0.0
C65 C 0.31003 0.25515 0.4242 0.0
H66 H 0.35317 0.3156 0.3246 0.0
C67 C 0.26763 0.24164 0.45236 0.0
C68 C 0.24565 0.19704 0.44869 0.0
C69 C 0.32974 0.22302 0.39361 0.0
H70 H 0.36275 0.23119 0.37332 0.0
C71 C 0.30801 0.17928 0.39008 0.0
H72 H 0.25159 0.26555 0.4762 0.0
C73 C 0.26635 0.1664 0.41724 0.0
H74 H 0.25011 0.13216 0.41384 0.0
H75 H 0.32375 0.15507 0.36645 0.0
Tb76 Tb 0.05642 0.9748 0.52651 0.0
C77 C 0.98265 0.18013 0.54633 0.0
N78 N 1.0129 0.1467 0.5935 0.0
C79 C 0.06497 0.20988 0.61928 0.0
C80 C 0.99364 0.22963 0.53056 0.0
C81 C 0.05204 0.16126 0.63339 0.0
C82 C 0.03614 0.24414 0.56659 0.0
C83 C 0.90466 0.19841 0.47181 0.0
C84 C 0.93889 0.16488 0.51785 0.0
C85 C 0.91648 0.24743 0.45221 0.0
C86 C 0.96093 0.26305 0.48167 0.0
Tb87 Tb 0.98998 0.06759 0.61018 0.0
N88 N 0.92895 0.11738 0.5385 0.0
C89 C 0.85922 0.1818 0.44861 0.0
C90 C 0.88328 0.10182 0.52102 0.0
C91 C 0.8482 0.13341 0.47438 0.0
H92 H 0.07425 0.13494 0.67458 0.0
H93 H 0.81268 0.12047 0.45861 0.0
H94 H 0.02975 0.86341 0.60526 0.0
H95 H 0.23341 0.04998 0.5061 0.0
H96 H 0.87441 0.06451 0.54141 0.0
H97 H 0.83196 0.20629 0.41281 0.0
H98 H 0.14746 0.03903 0.46385 0.0
H99 H 0.09699 0.2209 0.64926 0.0
H100 H 0.89096 0.27372 0.41611 0.0
H101 H 0.96895 0.3012 0.46807 0.0
H102 H 0.06751 0.7974 0.70411 0.0
H103 H 0.04596 0.28184 0.55609 0.0
H104 H 0.27458 0.99778 0.61808 0.0
N105 N 0.0907 0.90857 0.61012 0.0
C106 C 0.1371 0.91233 0.64009 0.0
C107 C 0.08745 0.82965 0.68678 0.0
C108 C 0.1601 0.87579 0.69679 0.0
C109 C 0.0662 0.86708 0.6307 0.0
C110 C 0.13435 0.83436 0.72076 0.0
N111 N 0.13824 0.98485 0.55468 0.0
C112 C 0.16435 0.01723 0.51411 0.0
C113 C 0.21104 0.95634 0.63733 0.0
C114 C 0.16168 0.95236 0.61171 0.0
C115 C 0.23656 0.99343 0.60039 0.0
C116 C 0.21344 0.02295 0.5372 0.0
H117 H 0.15063 0.80546 0.7644 0.0
H118 H 0.22637 0.85423 0.77085 0.0
H119 H 0.2714 0.92458 0.71791 0.0
O120 O 0.09351 0.95331 0.45781 0.0
O121 O 0.05266 0.96076 0.63755 0.0
O122 O 0.06004 0.03412 0.66135 0.0
O123 O 0.01959 0.93564 0.4579 0.0
O124 O 0.07103 0.05236 0.49449 0.0
O125 O 0.06235 0.08655 0.58357 0.0
O126 O 0.98879 0.03169 0.71434 0.0
O127 O 0.95674 0.04665 0.51664 0.0
O128 O 1.0135 0.0369 0.45416 0.0
O129 O 0.95089 0.09893 0.6679 0.0
O130 O 0.94948 1.00046 0.6028 0.0
O131 O 0.99024 0.94488 0.56406 0.0
C132 C 0.06871 0.9874 0.68061 0.0
C133 C 0.06699 0.88772 0.41154 0.0
C134 C 0.09572 0.84868 0.33119 0.0
C135 C 0.09101 0.80341 0.37687 0.0
C136 C 0.06219 0.84212 0.45597 0.0
C137 C 0.07416 0.80024 0.43857 0.0
C138 C 0.08344 0.89078 0.3489 0.0
C139 C 0.08231 0.08492 0.52997 0.0
C140 C 0.0568 0.93287 0.42948 0.0
C141 C 0.20818 0.88146 0.72643 0.0
C142 C 0.23372 0.92165 0.69653 0.0
C143 C 0.97308 0.05691 0.45858 0.0
C144 C 0.98244 0.08319 0.78697 0.0
C145 C 0.96737 0.11408 0.88305 0.0
C146 C 0.01721 0.1174 0.90428 0.0
C147 C 0.03211 0.08686 0.80905 0.0
C148 C 0.95005 0.09707 0.82403 0.0
C149 C 0.04934 0.10387 0.86738 0.0
C150 C 0.95431 0.9571 0.5911 0.0
C151 C 0.96401 0.06577 0.72492 0.0
H152 H 0.10031 0.77051 0.3646 0.0
H153 H 0.04944 0.83885 0.50402 0.0
H154 H 0.07054 0.76514 0.47322 0.0
H155 H 0.08722 0.92593 0.31421 0.0
H156 H 0.03117 0.13039 0.94957 0.0
H157 H 0.0575 0.07663 0.78115 0.0
H158 H 0.91159 0.09455 0.80728 0.0
H159 H 0.08773 0.10653 0.88404 0.0
Tb160 Tb 0.47166 0.48255 0.99845 0.0
C161 C 0.65305 0.5923 0.05216 0.0
N162 N 0.63852 0.55171 0.09468 0.0
C163 C 0.71711 0.5154 0.11149 0.0
C164 C 0.69922 0.59492 0.03442 0.0
C165 C 0.67121 0.51496 0.1284 0.0
C166 C 0.73076 0.55505 0.06293 0.0
C167 C 0.63757 0.67679 0.99118 0.0
C168 C 0.62277 0.63266 0.03053 0.0
C169 C 0.68249 0.67891 0.97028 0.0
C170 C 0.71315 0.63793 0.99148 0.0
Tb171 Tb 0.5609 0.55496 0.11369 0.0
N172 N 0.57888 0.62875 0.04945 0.0
C173 C 0.6069 0.71746 0.97479 0.0
C174 C 0.54971 0.66865 0.03651 0.0
C175 C 0.56306 0.71349 0.99837 0.0
H176 H 0.66257 0.48523 0.16903 0.0
H177 H 0.53948 0.74488 0.98695 0.0
H178 H 0.36526 0.52417 1.00523 0.0
H179 H 0.53777 0.29807 0.04924 0.0
H180 H 0.51595 0.66568 0.05499 0.0
H181 H 0.617 0.75213 0.94481 0.0
H182 H 0.53595 0.38576 0.99658 0.0
H183 H 0.74217 0.48545 0.13674 0.0
H184 H 0.69419 0.71223 0.93879 0.0
H185 H 0.74819 0.64039 0.9764 0.0
H186 H 0.29575 0.49387 0.06141 0.0
H187 H 0.76653 0.55552 0.05056 0.0
H188 H 0.47598 0.26127 0.11729 0.0
N189 N 0.40447 0.45732 0.04404 0.0
C190 C 0.40296 0.40952 0.07554 0.0
C191 C 0.32592 0.46985 0.06643 0.0
C192 C 0.36396 0.39036 0.10759 0.0
C193 C 0.36536 0.48696 0.03497 0.0
C194 C 0.32565 0.42152 0.10413 0.0
N195 N 0.47618 0.39988 0.04018 0.0
C196 C 0.50985 0.3708 0.02869 0.0
C197 C 0.43893 0.32948 0.10267 0.0
C198 C 0.44005 0.37976 0.07342 0.0
C199 C 0.4754 0.30006 0.09541 0.0
C200 C 0.51054 0.32076 0.05733 0.0
H201 H 0.29503 0.4083 0.1283 0.0
H202 H 0.33468 0.32533 0.16612 0.0
H203 H 0.40031 0.27186 0.16152 0.0
O204 O 0.44414 0.44417 0.92439 0.0
O205 O 0.45893 0.48695 0.10073 0.0
O206 O 0.53255 0.48683 0.17024 0.0
O207 O 0.43377 0.52099 0.90127 0.0
O208 O 0.54912 0.46187 0.0242 0.0
O209 O 0.57965 0.47786 0.12971 0.0
O210 O 0.53862 0.58948 0.18311 0.0
O211 O 0.54301 0.58124 0.99924 0.0
O212 O 0.53714 0.51276 0.96217 0.0
O213 O 0.61251 0.56893 0.19507 0.0
O214 O 0.48418 0.57775 0.08945 0.0
O215 O 0.4486 0.55766 0.9876 0.0
C216 C 0.48795 0.47196 0.16065 0.0
C217 C 0.44142 0.48743 0.80818 0.0
C218 C 0.43251 0.45978 0.70248 0.0
C219 C 0.46468 0.49511 0.67709 0.0
C220 C 0.4734 0.52276 0.78179 0.0
C221 C 0.48507 0.52634 0.71672 0.0
C222 C 0.42114 0.45585 0.76828 0.0
C223 C 0.57914 0.45187 0.08443 0.0
C224 C 0.4286 0.48301 0.87679 0.0
C225 C 0.36396 0.34072 0.14025 0.0
C226 C 0.40132 0.31028 0.13758 0.0
C227 C 0.54944 0.55813 0.9531 0.0
C228 C 0.58372 0.56919 0.29663 0.0
C229 C 0.60777 0.58113 0.41269 0.0
C230 C 0.58861 0.53611 0.4404 0.0
C231 C 0.56501 0.52413 0.32519 0.0
C232 C 0.60529 0.59757 0.34061 0.0
C233 C 0.56733 0.50782 0.39676 0.0
C234 C 0.4512 0.58466 0.03212 0.0
C235 C 0.58111 0.5871 0.22133 0.0
H236 H 0.47392 0.49847 0.62657 0.0
H237 H 0.48936 0.54759 0.81134 0.0
H238 H 0.50989 0.55351 0.69686 0.0
H239 H 0.39635 0.42852 0.78804 0.0
H240 H 0.59029 0.52289 0.49585 0.0
H241 H 0.54865 0.50158 0.29236 0.0
H242 H 0.62011 0.63229 0.31901 0.0
H243 H 0.55268 0.47311 0.41845 0.0
C244 C 0.20369 0.15073 0.54436 0.0
C245 C 0.20052 0.18043 0.47599 0.0
C246 C 0.12105 0.14815 0.44209 0.0
C247 C 0.12254 0.11913 0.51132 0.0
N248 N 0.16797 0.08999 0.62697 0.0
N249 N 0.15162 0.21773 0.36634 0.0
C250 C 0.16418 0.12077 0.56256 0.0
C251 C 0.15741 0.18266 0.42745 0.0
N252 N 0.24596 0.1489 0.5903 0.0
N253 N 0.08748 0.14049 0.38852 0.0
H254 H 0.17796 0.24319 0.35441 0.0
H255 H 0.11908 0.22476 0.33144 0.0
H256 H 0.06177 0.11397 0.39407 0.0
H257 H 0.08837 0.15696 0.33664 0.0
H258 H 0.2537 0.12477 0.63902 0.0
H259 H 0.27443 0.17167 0.5788 0.0
H260 H 0.19301 0.09304 0.66998 0.0
H261 H 0.1467 0.05965 0.63638 0.0
C262 C 0.38028 0.70492 0.96391 0.0
C263 C 0.36188 0.70626 0.02409 0.0
C264 C 0.3873 0.62148 0.07647 0.0
C265 C 0.41248 0.6225 0.02174 0.0
N266 N 0.41387 0.65677 0.90034 0.0
N267 N 0.34782 0.6661 0.13851 0.0
C268 C 0.40331 0.6617 0.96124 0.0
C269 C 0.36449 0.66428 0.08002 0.0
N270 N 0.3775 0.74578 0.91053 0.0
N271 N 0.38225 0.57841 0.12233 0.0
H272 H 0.32951 0.69618 0.14245 0.0
H273 H 0.35462 0.63891 0.18459 0.0
H274 H 0.39643 0.5463 0.11822 0.0
H275 H 0.35967 0.57357 0.15868 0.0
H276 H 0.39585 0.74982 0.8694 0.0
H277 H 0.3585 0.77692 0.90917 0.0
H278 H 0.40483 0.68252 0.85316 0.0
H279 H 0.42638 0.62444 0.89472 0.0
C280 C 0.88512 0.83756 0.60745 0.0
C281 C 0.85881 0.83812 0.66029 0.0
C282 C 0.89177 0.91714 0.66673 0.0
C283 C 0.91706 0.91863 0.61076 0.0
N284 N 0.92025 0.88543 0.51272 0.0
N285 N 0.82408 0.88556 0.72178 0.0
C286 C 0.90845 0.88039 0.57644 0.0
C287 C 0.8573 0.88072 0.68264 0.0
N288 N 0.88888 0.79586 0.5877 0.0
N289 N 0.90336 0.94663 0.71018 0.0
H290 H 0.79895 0.859 0.73497 0.0
H291 H 0.8182 0.91786 0.73419 0.0
H292 H 0.93234 0.96921 0.70909 0.0
H293 H 0.88867 0.94333 0.75466 0.0
H294 H 0.91238 0.79166 0.55542 0.0
H295 H 0.87068 0.76461 0.60723 0.0
H296 H 0.91147 0.86011 0.48384 0.0
H297 H 0.93265 0.91752 0.48458 0.0
C298 C 0.64824 0.33067 0.15361 0.0
C299 C 0.66921 0.33011 0.0953 0.0
C300 C 0.64516 0.41548 0.04368 0.0
C301 C 0.61778 0.41373 0.09629 0.0
N302 N 0.61236 0.37783 0.21617 0.0
N303 N 0.68935 0.37198 0.98528 0.0
C304 C 0.62513 0.37387 0.15608 0.0
C305 C 0.66905 0.3729 0.04117 0.0
N306 N 0.6481 0.289 0.20489 0.0
N307 N 0.65092 0.45891 0.99887 0.0
H308 H 0.70909 0.34223 0.98318 0.0
H309 H 0.68473 0.39965 0.93969 0.0
H310 H 0.63559 0.49091 1.00177 0.0
H311 H 0.67504 0.46428 0.96461 0.0
H312 H 0.62763 0.28473 0.24375 0.0
H313 H 0.66662 0.25754 0.20636 0.0
H314 H 0.62087 0.35173 0.26312 0.0
H315 H 0.59773 0.40933 0.22148 0.0
C316 C 0.17478 0.8761 0.1911 0.0
C317 C 0.15001 0.85141 0.143 0.0
C318 C 0.08596 0.83227 0.21271 0.0
C319 C 0.11373 0.85151 0.26506 0.0
N320 N 0.18881 0.88453 0.30892 0.0
N321 N 0.08557 0.79915 0.11394 0.0
C322 C 0.1593 0.87158 0.25551 0.0
C323 C 0.10647 0.82768 0.15537 0.0
N324 N 0.21219 0.90526 0.17435 0.0
N325 N 0.03935 0.81972 0.21663 0.0
H326 H 0.0997 0.7943 0.07207 0.0
H327 H 0.05677 0.77684 0.12485 0.0
H328 H 0.0228 0.82337 0.25705 0.0
H329 H 1.01576 0.81022 0.17661 0.0
H330 H 0.22835 0.92806 0.20411 0.0
H331 H 0.22401 0.91034 0.12726 0.0
H332 H 0.22445 0.89436 0.3075 0.0
H333 H 0.17927 0.88123 0.35716 0.0
C334 C 0.60291 0.66018 0.82467 0.0
C335 C 0.63794 0.63383 0.80608 0.0
C336 C 0.6044 0.55766 0.86471 0.0
C337 C 0.57422 0.58341 0.89324 0.0
N338 N 0.53157 0.6586 0.87608 0.0
N339 N 0.67801 0.5578 0.81972 0.0
C340 C 0.57003 0.63477 0.8667 0.0
C341 C 0.64047 0.58273 0.82979 0.0
N342 N 0.60162 0.70958 0.80293 0.0
N343 N 0.59585 0.51067 0.86337 0.0
H344 H 0.70545 0.57483 0.79488 0.0
H345 H 0.68441 0.52093 0.84242 0.0
H346 H 0.56589 0.49195 0.87785 0.0
H347 H 0.61455 0.49236 0.83746 0.0
H348 H 0.58078 0.73184 0.82009 0.0
H349 H 0.62395 0.72898 0.77042 0.0
H350 H 0.52301 0.69501 0.85355 0.0
H351 H 0.50494 0.64058 0.90119 0.0
C352 C 0.91686 0.15973 0.30372 0.0
C353 C 0.88356 0.13381 0.26632 0.0
C354 C 0.90282 0.05989 0.36088 0.0
C355 C 0.94095 0.08401 0.39366 0.0
N356 N 0.98424 0.15718 0.39753 0.0
N357 N 0.84537 0.059 0.25655 0.0
C358 C 0.94779 0.13413 0.36548 0.0
C359 C 0.87643 0.08387 0.29444 0.0
N360 N 0.91837 0.20894 0.2804 0.0
N361 N 0.89109 0.0144 0.39401 0.0
H362 H 0.82338 0.07578 0.2096 0.0
H363 H 0.84318 0.02147 0.26956 0.0
H364 H 0.90955 0.99597 0.44258 0.0
H365 H 0.86065 0.99661 0.37653 0.0
H366 H 0.93807 0.23099 0.30844 0.0
H367 H 0.89666 0.22846 0.23484 0.0
H368 H 0.99503 0.19201 0.37641 0.0
H369 H 1.00538 0.14037 0.44498 0.0
C370 C 0.41903 0.35702 0.6127 0.0
C371 C 0.37949 0.37533 0.55872 0.0
C372 C 0.36722 0.44123 0.61156 0.0
C373 C 0.41095 0.42711 0.65916 0.0
N374 N 0.4786 0.37172 0.70753 0.0
N375 N 0.31501 0.43382 0.5056 0.0
C376 C 0.43654 0.38455 0.66112 0.0
C377 C 0.35279 0.41674 0.55853 0.0
N378 N 0.43982 0.31345 0.61705 0.0
N379 N 0.33966 0.47812 0.61721 0.0
H380 H 0.3021 0.41535 0.46803 0.0
H381 H 0.29766 0.46707 0.49691 0.0
H382 H 0.34978 0.49738 0.65458 0.0
H383 H 0.30521 0.48742 0.58863 0.0
H384 H 0.46609 0.29567 0.6582 0.0
H385 H 0.42801 0.29296 0.58169 0.0
H386 H 0.50215 0.34454 0.70689 0.0
H387 H 0.49128 0.38991 0.7455 0.0
C388 C 0.62696 0.67407 0.52006 0.0
C389 C 0.66883 0.65389 0.56816 0.0
C390 C 0.6771 0.5953 0.50119 0.0
C391 C 0.63114 0.61023 0.46029 0.0
N392 N 0.56064 0.66238 0.43172 0.0
N393 N 0.73261 0.59315 0.60813 0.0
C394 C 0.60584 0.64974 0.46925 0.0
C395 C 0.69408 0.61434 0.55916 0.0
N396 N 0.60756 0.71652 0.5233 0.0
N397 N 0.70455 0.56306 0.48419 0.0
H398 H 0.74673 0.60637 0.65082 0.0
H399 H 0.74869 0.56059 0.60905 0.0
H400 H 0.69301 0.54842 0.44202 0.0
H401 H 0.74027 0.55429 0.50766 0.0
H402 H 0.57964 0.73563 0.48613 0.0
H403 H 0.62247 0.73494 0.56012 0.0
H404 H 0.53805 0.68704 0.44143 0.0
H405 H 0.54427 0.64586 0.39343 0.0
C406 C 0.88129 0.10647 1.01036 0.0
C407 C 0.88131 0.15515 0.01503 0.0
C408 C 0.92787 0.178 0.921 0.0
C409 C 0.93385 0.12837 0.92374 0.0
N410 N 0.92023 0.04446 0.97569 0.0
N411 N 0.90766 0.23709 0.97905 0.0
C412 C 0.91125 0.09232 0.96924 0.0
C413 C 0.90505 0.19104 0.971 0.0
N414 N 0.85197 0.07396 0.04448 0.0
N415 N 0.94343 0.21264 0.86982 0.0
H416 H 0.89097 0.24812 0.01452 0.0
H417 H 0.92912 0.26346 0.95419 0.0
H418 H 0.96008 0.20422 0.8323 0.0
H419 H 0.93598 0.24944 0.86065 0.0
H420 H 0.84666 0.03922 0.03773 0.0
H421 H 0.82931 0.08322 0.07465 0.0
H422 H 0.90947 0.01659 0.01386 0.0
H423 H 0.94164 0.03252 0.94622 0.0
C424 C 0.45081 0.36757 0.30215 0.0
C425 C 0.41467 0.39155 0.32279 0.0
C426 C 0.43805 0.46879 0.25241 0.0
C427 C 0.46726 0.44431 0.22178 0.0
N428 N 0.50238 0.3696 0.21786 0.0
N429 N 0.36849 0.46481 0.30698 0.0
C430 C 0.47402 0.39335 0.24695 0.0
C431 C 0.40677 0.44213 0.29483 0.0
N432 N 0.46435 0.32095 0.33703 0.0
N433 N 0.44237 0.51733 0.24477 0.0
H434 H 0.34349 0.4464 0.33568 0.0
H435 H 0.35899 0.50091 0.28249 0.0
H436 H 0.46635 0.53762 0.21612 0.0
H437 H 0.42571 0.53614 0.27235 0.0
H438 H 0.49365 0.30303 0.32932 0.0
H439 H 0.44898 0.30132 0.3784 0.0
H440 H 0.50618 0.33212 0.22981 0.0
H441 H 0.51936 0.38757 0.17738 0.0
C442 C 0.15711 0.95129 0.85617 0.0
C443 C 0.14049 0.90455 0.88448 0.0
C444 C 0.07251 0.91662 0.78691 0.0
C445 C 0.09049 0.96241 0.7552 0.0
N446 N 0.14117 0.0294 0.77474 0.0
N447 N 0.08734 0.8392 0.8721 0.0
C448 C 0.13048 0.98152 0.79374 0.0
C449 C 0.09952 0.88633 0.84857 0.0
N450 N 0.19927 0.96656 0.88839 0.0
N451 N 0.02723 0.9039 0.76167 0.0
H452 H 0.1059 0.81608 0.91747 0.0
H453 H 0.06181 0.82169 0.84357 0.0
H454 H 1.00422 0.92728 0.72184 0.0
H455 H 1.01 0.87338 0.78573 0.0
H456 H 0.21786 0.99635 0.86526 0.0
H457 H 0.21804 0.94738 0.93652 0.0
H458 H 0.16637 0.04618 0.8047 0.0
H459 H 0.12098 0.05476 0.73447 0.0
loop_
_geom_bond_atom_site_label_1
_geom_bond_atom_site_label_2
_geom_bond_distance
_geom_bond_site_symmetry_2
_ccdc_geom_bond_type
H0 C1 0.949 . S
C1 H0 0.949 . S
C1 C2 1.395 . S
C1 C3 1.391 . S
C2 C1 1.395 . S
C2 C5 1.390 . S
C3 C1 1.391 . S
C3 C7 1.387 1_554 S
C3 C8 1.491 . S
H4 C5 0.950 . S
C5 C2 1.390 . S
C5 H4 0.950 . S
C5 C6 1.378 1_554 S
C6 C5 1.378 1_556 S
C6 C7 1.409 . S
C7 C3 1.387 1_556 S
C7 C6 1.409 . S
C7 H9 0.951 . S
C8 C3 1.491 . S
C8 C10 1.382 . S
C8 C12 1.404 1_554 S
H9 C7 0.951 . S
C10 C8 1.382 . S
C10 C11 1.390 . S
C10 H15 0.949 . S
C11 C10 1.390 . S
C11 C16 1.399 . S
C12 C8 1.404 1_556 S
C12 H13 0.950 . S
C12 C14 1.375 . S
H13 C12 0.950 . S
C14 C12 1.375 . S
C14 C16 1.382 1_556 S
C14 H18 0.950 . S
H15 C10 0.949 . S
C16 C11 1.399 . S
C16 C14 1.382 1_554 S
C16 H17 0.952 . S
H17 C16 0.952 . S
H18 C14 0.950 . S
H19 C20 0.949 . S
C20 H19 0.949 . S
C20 C21 1.395 . S
C20 C22 1.391 . S
C21 C20 1.395 . S
C21 C24 1.390 . S
C22 C20 1.391 . S
C22 C26 1.387 . S
C22 C27 1.491 . S
H23 C24 0.950 . S
C24 C21 1.390 . S
C24 H23 0.950 . S
C24 C25 1.378 . S
C25 C24 1.378 . S
C25 C26 1.409 . S
C26 C22 1.387 . S
C26 C25 1.409 . S
C26 H28 0.951 . S
C27 C22 1.491 . S
C27 C29 1.382 . S
C27 C31 1.404 . S
H28 C26 0.951 . S
C29 C27 1.382 . S
C29 C30 1.390 . S
C29 H34 0.949 . S
C30 C29 1.390 . S
C30 C35 1.399 . S
C31 C27 1.404 . S
C31 H32 0.950 . S
C31 C33 1.375 . S
H32 C31 0.950 . S
C33 C31 1.375 . S
C33 C35 1.382 . S
C33 H37 0.950 . S
H34 C29 0.949 . S
C35 C30 1.399 . S
C35 C33 1.382 . S
C35 H36 0.952 . S
H36 C35 0.952 . S
H37 C33 0.950 . S
H38 C39 0.949 . S
C39 H38 0.949 . S
C39 C40 1.395 . S
C39 C41 1.391 . S
C40 C39 1.395 . S
C40 C43 1.390 . S
C41 C39 1.391 . S
C41 C45 1.387 . S
C41 C46 1.491 . S
H42 C43 0.950 . S
C43 C40 1.390 . S
C43 H42 0.950 . S
C43 C44 1.378 . S
C44 C43 1.378 . S
C44 C45 1.409 . S
C45 C41 1.387 . S
C45 C44 1.409 . S
C45 H47 0.951 1_554 S
C46 C41 1.491 . S
C46 C48 1.382 . S
C46 C50 1.404 1_554 S
H47 C45 0.951 1_556 S
C48 C46 1.382 . S
C48 C49 1.390 . S
C48 H53 0.949 . S
C49 C48 1.390 . S
C49 C54 1.399 . S
C50 C46 1.404 1_556 S
C50 H51 0.950 . S
C50 C52 1.375 . S
H51 C50 0.950 . S
C52 C50 1.375 . S
C52 C54 1.382 1_556 S
C52 H56 0.950 . S
H53 C48 0.949 . S
C54 C49 1.399 . S
C54 C52 1.382 1_554 S
C54 H55 0.952 1_554 S
H55 C54 0.952 1_556 S
H56 C52 0.950 . S
H57 C58 0.949 . S
C58 H57 0.949 . S
C58 C59 1.395 . S
C58 C60 1.391 . S
C59 C58 1.395 . S
C59 C62 1.390 . S
C60 C58 1.391 . S
C60 C64 1.387 . S
C60 C65 1.491 . S
H61 C62 0.950 . S
C62 C59 1.390 . S
C62 H61 0.950 . S
C62 C63 1.378 . S
C63 C62 1.378 . S
C63 C64 1.409 . S
C64 C60 1.387 . S
C64 C63 1.409 . S
C64 H66 0.951 . S
C65 C60 1.491 . S
C65 C67 1.382 . S
C65 C69 1.404 . S
H66 C64 0.951 . S
C67 C65 1.382 . S
C67 C68 1.390 . S
C67 H72 0.949 . S
C68 C67 1.390 . S
C68 C73 1.399 . S
C69 C65 1.404 . S
C69 H70 0.950 . S
C69 C71 1.375 . S
H70 C69 0.950 . S
C71 C69 1.375 . S
C71 C73 1.382 . S
C71 H75 0.950 . S
H72 C67 0.949 . S
C73 C68 1.399 . S
C73 C71 1.382 . S
C73 H74 0.952 . S
H74 C73 0.952 . S
H75 C71 0.950 . S
Tb76 N105 2.617 . S
Tb76 N111 2.572 . S
Tb76 O120 2.465 . S
Tb76 O121 2.387 . S
Tb76 O123 2.428 . S
Tb76 O124 2.308 1_565 S
Tb76 O128 2.349 1_465 S
Tb76 O131 2.393 1_455 S
Tb76 C140 2.802 . S
C77 N78 1.379 . S
C77 C80 1.416 . S
C77 C84 1.424 . S
N78 C77 1.379 . S
N78 C81 1.334 1_655 S
N78 Tb87 2.617 . S
C79 C81 1.390 . S
C79 C82 1.339 1_455 S
C79 H99 0.930 . S
C80 C77 1.416 . S
C80 C82 1.416 . S
C80 C86 1.448 . S
C81 N78 1.334 1_455 S
C81 C79 1.390 . S
C81 H92 0.930 . S
C82 C79 1.339 1_655 S
C82 C80 1.416 . S
C82 H103 0.930 . S
C83 C84 1.413 . S
C83 C85 1.427 . S
C83 C89 1.416 . S
C84 C77 1.424 . S
C84 C83 1.413 . S
C84 N88 1.361 . S
C85 C83 1.427 . S
C85 C86 1.328 . S
C85 H100 0.929 . S
C86 C80 1.448 . S
C86 C85 1.328 . S
C86 H101 0.930 . S
Tb87 N78 2.617 . S
Tb87 N88 2.572 . S
Tb87 O122 2.349 1_655 S
Tb87 O125 2.393 1_655 S
Tb87 O126 2.465 . S
Tb87 O127 2.387 . S
Tb87 O129 2.428 . S
Tb87 O130 2.308 1_545 S
Tb87 C151 2.802 . S
N88 C84 1.361 . S
N88 Tb87 2.572 . S
N88 C90 1.340 . S
C89 C83 1.416 . S
C89 C91 1.332 . S
C89 H97 0.931 . S
C90 N88 1.340 . S
C90 C91 1.407 . S
C90 H96 0.930 . S
C91 C89 1.332 . S
C91 C90 1.407 . S
C91 H93 0.929 . S
H92 C81 0.930 . S
H93 C91 0.929 . S
H94 C109 0.930 1_655 S
H95 C116 0.929 . S
H96 C90 0.930 . S
H97 C89 0.931 . S
H98 C112 0.930 . S
H99 C79 0.930 . S
H100 C85 0.929 . S
H101 C86 0.930 . S
H102 C107 0.930 1_655 S
H103 C82 0.930 . S
H104 C115 0.931 . S
N105 Tb76 2.617 . S
N105 C106 1.379 . S
N105 C109 1.334 . S
C106 N105 1.379 . S
C106 C108 1.416 . S
C106 C114 1.424 . S
C107 H102 0.930 1_455 S
C107 C109 1.390 . S
C107 C110 1.339 . S
C108 C106 1.416 . S
C108 C110 1.416 . S
C108 C141 1.448 . S
C109 H94 0.930 1_455 S
C109 N105 1.334 . S
C109 C107 1.390 . S
C110 C107 1.339 . S
C110 C108 1.416 . S
C110 H117 0.930 . S
N111 Tb76 2.572 . S
N111 C112 1.340 . S
N111 C114 1.361 . S
C112 H98 0.930 . S
C112 N111 1.340 . S
C112 C116 1.407 . S
C113 C114 1.413 . S
C113 C115 1.416 . S
C113 C142 1.427 . S
C114 C106 1.424 . S
C114 N111 1.361 . S
C114 C113 1.413 . S
C115 H104 0.931 . S
C115 C113 1.416 . S
C115 C116 1.332 . S
C116 H95 0.929 . S
C116 C112 1.407 . S
C116 C115 1.332 . S
H117 C110 0.930 . S
H118 C141 0.930 . S
H119 C142 0.929 . S
O120 Tb76 2.465 . S
O120 C140 1.264 . S
O121 Tb76 2.387 . S
O121 C132 1.264 . S
O122 Tb87 2.349 1_455 S
O122 C132 1.243 1_545 S
O123 Tb76 2.428 . S
O123 C140 1.256 . S
O124 Tb76 2.308 1_545 S
O124 C139 1.266 . S
O125 Tb87 2.393 1_455 S
O125 C139 1.248 . S
O126 Tb87 2.465 . S
O126 C151 1.264 . S
O127 Tb87 2.387 . S
O127 C143 1.264 . S
O128 Tb76 2.349 1_645 S
O128 C143 1.243 . S
O129 Tb87 2.428 . S
O129 C151 1.256 . S
O130 Tb87 2.308 1_565 S
O130 C150 1.266 . S
O131 Tb76 2.393 1_655 S
O131 C150 1.248 . S
C132 O121 1.264 . S
C132 O122 1.243 1_565 S
C133 C136 1.399 . S
C133 C138 1.383 . S
C133 C140 1.496 . S
C134 C135 1.399 . S
C134 C138 1.389 . S
C135 C134 1.399 . S
C135 C137 1.380 . S
C135 H152 0.929 . S
C136 C133 1.399 . S
C136 C137 1.392 . S
C136 H153 0.929 . S
C137 C135 1.380 . S
C137 C136 1.392 . S
C137 H154 0.929 . S
C138 C133 1.383 . S
C138 C134 1.389 . S
C138 H155 0.931 . S
C139 O124 1.266 . S
C139 O125 1.248 . S
C140 Tb76 2.802 . S
C140 O120 1.264 . S
C140 O123 1.256 . S
C140 C133 1.496 . S
C141 C108 1.448 . S
C141 H118 0.930 . S
C141 C142 1.328 . S
C142 C113 1.427 . S
C142 H119 0.929 . S
C142 C141 1.328 . S
C143 O127 1.264 . S
C143 O128 1.243 . S
C144 C147 1.399 . S
C144 C148 1.383 . S
C144 C151 1.496 . S
C145 C146 1.399 . S
C145 C148 1.389 . S
C146 C145 1.399 . S
C146 C149 1.380 . S
C146 H156 0.929 . S
C147 C144 1.399 . S
C147 C149 1.392 . S
C147 H157 0.929 . S
C148 C144 1.383 . S
C148 C145 1.389 . S
C148 H158 0.931 . S
C149 C146 1.380 . S
C149 C147 1.392 . S
C149 H159 0.929 . S
C150 O130 1.266 . S
C150 O131 1.248 . S
C151 Tb87 2.802 . S
C151 O126 1.264 . S
C151 O129 1.256 . S
C151 C144 1.496 . S
H152 C135 0.929 . S
H153 C136 0.929 . S
H154 C137 0.929 . S
H155 C138 0.931 . S
H156 C146 0.929 . S
H157 C147 0.929 . S
H158 C148 0.931 . S
H159 C149 0.929 . S
Tb160 N189 2.617 . S
Tb160 N195 2.572 . S
Tb160 O204 2.465 1_554 S
Tb160 O205 2.387 . S
Tb160 O207 2.428 1_554 S
Tb160 O208 2.308 . S
Tb160 O212 2.349 1_554 S
Tb160 O215 2.393 . S
Tb160 C224 2.802 1_554 S
C161 N162 1.379 . S
C161 C164 1.416 . S
C161 C168 1.424 . S
N162 C161 1.379 . S
N162 C165 1.334 . S
N162 Tb171 2.617 . S
C163 C165 1.390 . S
C163 C166 1.339 . S
C163 H183 0.930 . S
C164 C161 1.416 . S
C164 C166 1.416 . S
C164 C170 1.448 . S
C165 N162 1.334 . S
C165 C163 1.390 . S
C165 H176 0.930 . S
C166 C163 1.339 . S
C166 C164 1.416 . S
C166 H187 0.930 . S
C167 C168 1.413 . S
C167 C169 1.427 . S
C167 C173 1.416 . S
C168 C161 1.424 . S
C168 C167 1.413 . S
C168 N172 1.361 . S
C169 C167 1.427 . S
C169 C170 1.328 . S
C169 H184 0.929 . S
C170 C164 1.448 . S
C170 C169 1.328 . S
C170 H185 0.930 . S
Tb171 N162 2.617 . S
Tb171 N172 2.572 . S
Tb171 O206 2.349 . S
Tb171 O209 2.393 . S
Tb171 O210 2.465 . S
Tb171 O211 2.387 . S
Tb171 O213 2.428 . S
Tb171 O214 2.308 . S
Tb171 C235 2.802 . S
N172 C168 1.361 . S
N172 Tb171 2.572 . S
N172 C174 1.340 . S
C173 C167 1.416 . S
C173 C175 1.332 . S
C173 H181 0.931 . S
C174 N172 1.340 . S
C174 C175 1.407 . S
C174 H180 0.930 . S
C175 C173 1.332 . S
C175 C174 1.407 . S
C175 H177 0.929 . S
H176 C165 0.930 . S
H177 C175 0.929 . S
H178 C193 0.930 . S
H179 C200 0.929 . S
H180 C174 0.930 . S
H181 C173 0.931 . S
H182 C196 0.930 . S
H183 C163 0.930 . S
H184 C169 0.929 . S
H185 C170 0.930 . S
H186 C191 0.930 . S
H187 C166 0.930 . S
H188 C199 0.931 . S
N189 Tb160 2.617 . S
N189 C190 1.379 . S
N189 C193 1.334 1_554 S
C190 N189 1.379 . S
C190 C192 1.416 . S
C190 C198 1.424 . S
C191 H186 0.930 . S
C191 C193 1.390 . S
C191 C194 1.339 1_556 S
C192 C190 1.416 . S
C192 C194 1.416 . S
C192 C225 1.448 . S
C193 H178 0.930 . S
C193 N189 1.334 1_556 S
C193 C191 1.390 . S
C194 C191 1.339 1_554 S
C194 C192 1.416 . S
C194 H201 0.930 . S
N195 Tb160 2.572 . S
N195 C196 1.340 . S
N195 C198 1.361 . S
C196 H182 0.930 . S
C196 N195 1.340 . S
C196 C200 1.407 . S
C197 C198 1.413 . S
C197 C199 1.416 . S
C197 C226 1.427 . S
C198 C190 1.424 . S
C198 N195 1.361 . S
C198 C197 1.413 . S
C199 H188 0.931 . S
C199 C197 1.416 . S
C199 C200 1.332 . S
C200 H179 0.929 . S
C200 C196 1.407 . S
C200 C199 1.332 . S
H201 C194 0.930 . S
H202 C225 0.930 . S
H203 C226 0.929 . S
O204 Tb160 2.465 1_556 S
O204 C224 1.264 . S
O205 Tb160 2.387 . S
O205 C216 1.264 . S
O206 Tb171 2.349 . S
O206 C216 1.243 . S
O207 Tb160 2.428 1_556 S
O207 C224 1.256 . S
O208 Tb160 2.308 . S
O208 C223 1.266 . S
O209 Tb171 2.393 . S
O209 C223 1.248 . S
O210 Tb171 2.465 . S
O210 C235 1.264 . S
O211 Tb171 2.387 . S
O211 C227 1.264 1_554 S
O212 Tb160 2.349 1_556 S
O212 C227 1.243 . S
O213 Tb171 2.428 . S
O213 C235 1.256 . S
O214 Tb171 2.308 . S
O214 C234 1.266 . S
O215 Tb160 2.393 . S
O215 C234 1.248 . S
C216 O205 1.264 . S
C216 O206 1.243 . S
C217 C220 1.399 . S
C217 C222 1.383 . S
C217 C224 1.496 . S
C218 C219 1.399 . S
C218 C222 1.389 . S
C219 C218 1.399 . S
C219 C221 1.380 . S
C219 H236 0.929 . S
C220 C217 1.399 . S
C220 C221 1.392 . S
C220 H237 0.929 . S
C221 C219 1.380 . S
C221 C220 1.392 . S
C221 H238 0.929 . S
C222 C217 1.383 . S
C222 C218 1.389 . S
C222 H239 0.931 . S
C223 O208 1.266 . S
C223 O209 1.248 . S
C224 Tb160 2.802 1_556 S
C224 O204 1.264 . S
C224 O207 1.256 . S
C224 C217 1.496 . S
C225 C192 1.448 . S
C225 H202 0.930 . S
C225 C226 1.328 . S
C226 C197 1.427 . S
C226 H203 0.929 . S
C226 C225 1.328 . S
C227 O211 1.264 1_556 S
C227 O212 1.243 . S
C228 C231 1.399 . S
C228 C232 1.383 . S
C228 C235 1.496 . S
C229 C230 1.399 . S
C229 C232 1.389 . S
C230 C229 1.399 . S
C230 C233 1.380 . S
C230 H240 0.929 . S
C231 C228 1.399 . S
C231 C233 1.392 . S
C231 H241 0.929 . S
C232 C228 1.383 . S
C232 C229 1.389 . S
C232 H242 0.931 . S
C233 C230 1.380 . S
C233 C231 1.392 . S
C233 H243 0.929 . S
C234 O214 1.266 . S
C234 O215 1.248 . S
C235 Tb171 2.802 . S
C235 O210 1.264 . S
C235 O213 1.256 . S
C235 C228 1.496 . S
H236 C219 0.929 . S
H237 C220 0.929 . S
H238 C221 0.929 . S
H239 C222 0.931 . S
H240 C230 0.929 . S
H241 C231 0.929 . S
H242 C232 0.931 . S
H243 C233 0.929 . S
C244 C245 1.363 . S
C244 C250 1.379 . S
C244 N252 1.356 . S
C245 C244 1.363 . S
C245 C251 1.363 . S
C246 C247 1.363 . S
C246 C251 1.379 . S
C246 N253 1.356 . S
C247 C246 1.363 . S
C247 C250 1.363 . S
N248 C250 1.356 . S
N248 H260 0.984 . S
N248 H261 0.985 . S
N249 C251 1.356 . S
N249 H254 0.984 . S
N249 H255 0.985 . S
C250 C244 1.379 . S
C250 C247 1.363 . S
C250 N248 1.356 . S
C251 C245 1.363 . S
C251 C246 1.379 . S
C251 N249 1.356 . S
N252 C244 1.356 . S
N252 H258 0.984 . S
N252 H259 0.984 . S
N253 C246 1.356 . S
N253 H256 0.984 . S
N253 H257 0.985 . S
H254 N249 0.984 . S
H255 N249 0.985 . S
H256 N253 0.984 . S
H257 N253 0.985 . S
H258 N252 0.984 . S
H259 N252 0.984 . S
H260 N248 0.984 . S
H261 N248 0.985 . S
C262 C263 1.363 . S
C262 C268 1.379 . S
C262 N270 1.356 1_554 S
C263 C262 1.363 . S
C263 C269 1.363 . S
C264 C265 1.363 . S
C264 C269 1.379 . S
C264 N271 1.356 . S
C265 C264 1.363 . S
C265 C268 1.363 . S
N266 C268 1.356 1_556 S
N266 H278 0.984 . S
N266 H279 0.985 . S
N267 C269 1.356 . S
N267 H272 0.984 . S
N267 H273 0.985 . S
C268 C262 1.379 . S
C268 C265 1.363 . S
C268 N266 1.356 1_554 S
C269 C263 1.363 . S
C269 C264 1.379 . S
C269 N267 1.356 . S
N270 C262 1.356 1_556 S
N270 H276 0.984 . S
N270 H277 0.984 . S
N271 C264 1.356 . S
N271 H274 0.984 . S
N271 H275 0.985 . S
H272 N267 0.984 . S
H273 N267 0.985 . S
H274 N271 0.984 . S
H275 N271 0.985 . S
H276 N270 0.984 . S
H277 N270 0.984 . S
H278 N266 0.984 . S
H279 N266 0.985 . S
C280 C281 1.363 . S
C280 C286 1.379 . S
C280 N288 1.356 . S
C281 C280 1.363 . S
C281 C287 1.363 . S
C282 C283 1.363 . S
C282 C287 1.379 . S
C282 N289 1.356 . S
C283 C282 1.363 . S
C283 C286 1.363 . S
N284 C286 1.356 . S
N284 H296 0.984 . S
N284 H297 0.985 . S
N285 C287 1.356 . S
N285 H290 0.984 . S
N285 H291 0.985 . S
C286 C280 1.379 . S
C286 C283 1.363 . S
C286 N284 1.356 . S
C287 C281 1.363 . S
C287 C282 1.379 . S
C287 N285 1.356 . S
N288 C280 1.356 . S
N288 H294 0.984 . S
N288 H295 0.984 . S
N289 C282 1.356 . S
N289 H292 0.984 . S
N289 H293 0.985 . S
H290 N285 0.984 . S
H291 N285 0.985 . S
H292 N289 0.984 . S
H293 N289 0.985 . S
H294 N288 0.984 . S
H295 N288 0.984 . S
H296 N284 0.984 . S
H297 N284 0.985 . S
C298 C299 1.363 . S
C298 C304 1.379 . S
C298 N306 1.356 . S
C299 C298 1.363 . S
C299 C305 1.363 . S
C300 C301 1.363 . S
C300 C305 1.379 . S
C300 N307 1.356 1_554 S
C301 C300 1.363 . S
C301 C304 1.363 . S
N302 C304 1.356 . S
N302 H314 0.984 . S
N302 H315 0.985 . S
N303 C305 1.356 1_556 S
N303 H308 0.984 1_556 S
N303 H309 0.985 . S
C304 C298 1.379 . S
C304 C301 1.363 . S
C304 N302 1.356 . S
C305 C299 1.363 . S
C305 C300 1.379 . S
C305 N303 1.356 1_554 S
N306 C298 1.356 . S
N306 H312 0.984 . S
N306 H313 0.984 . S
N307 C300 1.356 1_556 S
N307 H310 0.984 1_556 S
N307 H311 0.985 . S
H308 N303 0.984 1_554 S
H309 N303 0.985 . S
H310 N307 0.984 1_554 S
H311 N307 0.985 . S
H312 N306 0.984 . S
H313 N306 0.984 . S
H314 N302 0.984 . S
H315 N302 0.985 . S
C316 C317 1.363 . S
C316 C322 1.379 . S
C316 N324 1.356 . S
C317 C316 1.363 . S
C317 C323 1.363 . S
C318 C319 1.363 . S
C318 C323 1.379 . S
C318 N325 1.356 . S
C319 C318 1.363 . S
C319 C322 1.363 . S
N320 C322 1.356 . S
N320 H332 0.984 1_565 S
N320 H333 0.985 . S
N321 C323 1.356 . S
N321 H326 0.984 . S
N321 H327 0.985 . S
C322 C316 1.379 . S
C322 C319 1.363 . S
C322 N320 1.356 . S
C323 C317 1.363 . S
C323 C318 1.379 . S
C323 N321 1.356 . S
N324 C316 1.356 . S
N324 H330 0.984 . S
N324 H331 0.984 . S
N325 C318 1.356 . S
N325 H328 0.984 . S
N325 H329 0.985 . S
H326 N321 0.984 . S
H327 N321 0.985 . S
H328 N325 0.984 . S
H329 N325 0.985 . S
H330 N324 0.984 . S
H331 N324 0.984 . S
H332 N320 0.984 1_545 S
H333 N320 0.985 . S
C334 C335 1.363 . S
C334 C340 1.379 . S
C334 N342 1.356 . S
C335 C334 1.363 . S
C335 C341 1.363 . S
C336 C337 1.363 . S
C336 C341 1.379 . S
C336 N343 1.356 . S
C337 C336 1.363 . S
C337 C340 1.363 . S
N338 C340 1.356 . S
N338 H350 0.984 . S
N338 H351 0.985 . S
N339 C341 1.356 . S
N339 H344 0.984 . S
N339 H345 0.985 . S
C340 C334 1.379 . S
C340 C337 1.363 . S
C340 N338 1.356 . S
C341 C335 1.363 . S
C341 C336 1.379 . S
C341 N339 1.356 . S
N342 C334 1.356 . S
N342 H348 0.984 . S
N342 H349 0.984 . S
N343 C336 1.356 . S
N343 H346 0.984 . S
N343 H347 0.985 . S
H344 N339 0.984 . S
H345 N339 0.985 . S
H346 N343 0.984 . S
H347 N343 0.985 . S
H348 N342 0.984 . S
H349 N342 0.984 . S
H350 N338 0.984 . S
H351 N338 0.985 . S
C352 C353 1.363 . S
C352 C358 1.379 . S
C352 N360 1.356 . S
C353 C352 1.363 . S
C353 C359 1.363 . S
C354 C355 1.363 . S
C354 C359 1.379 . S
C354 N361 1.356 1_545 S
C355 C354 1.363 . S
C355 C358 1.363 . S
N356 C358 1.356 . S
N356 H368 0.984 . S
N356 H369 0.985 . S
N357 C359 1.356 . S
N357 H362 0.984 . S
N357 H363 0.985 . S
C358 C352 1.379 . S
C358 C355 1.363 . S
C358 N356 1.356 . S
C359 C353 1.363 . S
C359 C354 1.379 . S
C359 N357 1.356 . S
N360 C352 1.356 . S
N360 H366 0.984 . S
N360 H367 0.984 . S
N361 C354 1.356 1_565 S
N361 H364 0.984 . S
N361 H365 0.985 . S
H362 N357 0.984 . S
H363 N357 0.985 . S
H364 N361 0.984 . S
H365 N361 0.985 . S
H366 N360 0.984 . S
H367 N360 0.984 . S
H368 N356 0.984 . S
H369 N356 0.985 . S
C370 C371 1.363 . S
C370 C376 1.379 . S
C370 N378 1.356 . S
C371 C370 1.363 . S
C371 C377 1.363 . S
C372 C373 1.363 . S
C372 C377 1.379 . S
C372 N379 1.356 . S
C373 C372 1.363 . S
C373 C376 1.363 . S
N374 C376 1.356 . S
N374 H386 0.984 . S
N374 H387 0.985 . S
N375 C377 1.356 . S
N375 H380 0.984 . S
N375 H381 0.985 . S
C376 C370 1.379 . S
C376 C373 1.363 . S
C376 N374 1.356 . S
C377 C371 1.363 . S
C377 C372 1.379 . S
C377 N375 1.356 . S
N378 C370 1.356 . S
N378 H384 0.984 . S
N378 H385 0.984 . S
N379 C372 1.356 . S
N379 H382 0.984 . S
N379 H383 0.985 . S
H380 N375 0.984 . S
H381 N375 0.985 . S
H382 N379 0.984 . S
H383 N379 0.985 . S
H384 N378 0.984 . S
H385 N378 0.984 . S
H386 N374 0.984 . S
H387 N374 0.985 . S
C388 C389 1.363 . S
C388 C394 1.379 . S
C388 N396 1.356 . S
C389 C388 1.363 . S
C389 C395 1.363 . S
C390 C391 1.363 . S
C390 C395 1.379 . S
C390 N397 1.356 . S
C391 C390 1.363 . S
C391 C394 1.363 . S
N392 C394 1.356 . S
N392 H404 0.984 . S
N392 H405 0.985 . S
N393 C395 1.356 . S
N393 H398 0.984 . S
N393 H399 0.985 . S
C394 C388 1.379 . S
C394 C391 1.363 . S
C394 N392 1.356 . S
C395 C389 1.363 . S
C395 C390 1.379 . S
C395 N393 1.356 . S
N396 C388 1.356 . S
N396 H402 0.984 . S
N396 H403 0.984 . S
N397 C390 1.356 . S
N397 H400 0.984 . S
N397 H401 0.985 . S
H398 N393 0.984 . S
H399 N393 0.985 . S
H400 N397 0.984 . S
H401 N397 0.985 . S
H402 N396 0.984 . S
H403 N396 0.984 . S
H404 N392 0.984 . S
H405 N392 0.985 . S
C406 C407 1.363 . S
C406 C412 1.379 . S
C406 N414 1.356 1_556 S
C407 C406 1.363 . S
C407 C413 1.363 . S
C408 C409 1.363 . S
C408 C413 1.379 . S
C408 N415 1.356 . S
C409 C408 1.363 . S
C409 C412 1.363 . S
N410 C412 1.356 1_565 S
N410 H422 0.984 . S
N410 H423 0.985 . S
N411 C413 1.356 . S
N411 H416 0.984 . S
N411 H417 0.985 . S
C412 C406 1.379 . S
C412 C409 1.363 . S
C412 N410 1.356 1_545 S
C413 C407 1.363 . S
C413 C408 1.379 . S
C413 N411 1.356 . S
N414 C406 1.356 1_554 S
N414 H420 0.984 . S
N414 H421 0.984 . S
N415 C408 1.356 . S
N415 H418 0.984 . S
N415 H419 0.985 . S
H416 N411 0.984 . S
H417 N411 0.985 . S
H418 N415 0.984 . S
H419 N415 0.985 . S
H420 N414 0.984 . S
H421 N414 0.984 . S
H422 N410 0.984 . S
H423 N410 0.985 . S
C424 C425 1.363 . S
C424 C430 1.379 . S
C424 N432 1.356 . S
C425 C424 1.363 . S
C425 C431 1.363 . S
C426 C427 1.363 . S
C426 C431 1.379 . S
C426 N433 1.356 . S
C427 C426 1.363 . S
C427 C430 1.363 . S
N428 C430 1.356 . S
N428 H440 0.984 . S
N428 H441 0.985 . S
N429 C431 1.356 . S
N429 H434 0.984 . S
N429 H435 0.985 . S
C430 C424 1.379 . S
C430 C427 1.363 . S
C430 N428 1.356 . S
C431 C425 1.363 . S
C431 C426 1.379 . S
C431 N429 1.356 . S
N432 C424 1.356 . S
N432 H438 0.984 . S
N432 H439 0.984 . S
N433 C426 1.356 . S
N433 H436 0.984 . S
N433 H437 0.985 . S
H434 N429 0.984 . S
H435 N429 0.985 . S
H436 N433 0.984 . S
H437 N433 0.985 . S
H438 N432 0.984 . S
H439 N432 0.984 . S
H440 N428 0.984 . S
H441 N428 0.985 . S
C442 C443 1.363 . S
C442 C448 1.379 . S
C442 N450 1.356 . S
C443 C442 1.363 . S
C443 C449 1.363 . S
C444 C445 1.363 . S
C444 C449 1.379 . S
C444 N451 1.356 . S
C445 C444 1.363 . S
C445 C448 1.363 . S
N446 C448 1.356 1_545 S
N446 H458 0.984 . S
N446 H459 0.985 . S
N447 C449 1.356 . S
N447 H452 0.984 . S
N447 H453 0.985 . S
C448 C442 1.379 . S
C448 C445 1.363 . S
C448 N446 1.356 1_565 S
C449 C443 1.363 . S
C449 C444 1.379 . S
C449 N447 1.356 . S
N450 C442 1.356 . S
N450 H456 0.984 1_565 S
N450 H457 0.984 . S
N451 C444 1.356 . S
N451 H454 0.984 . S
N451 H455 0.985 . S
H452 N447 0.984 . S
H453 N447 0.985 . S
H454 N451 0.984 . S
H455 N451 0.985 . S
H456 N450 0.984 1_545 S
H457 N450 0.984 . S
H458 N446 0.984 . S
H459 N446 0.985 . S
C247 C139 1.661 . S
C245 C68 1.634 . S
C263 C11 1.535 . S
C265 C234 1.699 . S
C281 C30 1.597 . S
C283 C150 1.693 . S
C299 C49 1.594 . S
C301 C223 1.640 . S
C319 C134 1.475 . S
C317 C2 1.648 . S
C337 C227 1.761 . S
C335 C25 1.754 . S
C353 C40 1.677 . S
C355 C143 1.706 . S
C371 C59 1.650 . S
C373 C218 1.487 . S
C391 C229 1.439 . S
C389 C21 1.599 . S
C409 C145 1.390 . S
C407 C44 1.590 1_556 S
C427 C216 1.661 . S
C425 C63 1.658 . S
C443 C6 1.634 . S
C445 C132 1.649 . S
