# Generated by pormake.
# Topology pyr, (3,6)-cn, num edge types: 1
# Building blocks:
#     Node 0, Type 0, BuildingBlock: VETTIZ_charged_linker_0, # of connection points: 3
#     Node 1, Type 0, BuildingBlock: VETTIZ_charged_linker_0, # of connection points: 3
#     Node 2, Type 0, BuildingBlock: VETTIZ_charged_linker_0, # of connection points: 3
#     Node 3, Type 0, BuildingBlock: VETTIZ_charged_linker_0, # of connection points: 3
#     Node 4, Type 0, BuildingBlock: VETTIZ_charged_linker_0, # of connection points: 3
#     Node 5, Type 0, BuildingBlock: VETTIZ_charged_linker_0, # of connection points: 3
#     Node 6, Type 0, BuildingBlock: VETTIZ_charged_linker_0, # of connection points: 3
#     Node 7, Type 0, BuildingBlock: VETTIZ_charged_linker_0, # of connection points: 3
#     Node 8, Type 1, BuildingBlock: VOLQOD_clean_sbu_1, # of connection points: 6
#     Node 9, Type 1, BuildingBlock: VOLQOD_clean_sbu_1, # of connection points: 6
#     Node 10, Type 1, BuildingBlock: VOLQOD_clean_sbu_1, # of connection points: 6
#     Node 11, Type 1, BuildingBlock: VOLQOD_clean_sbu_1, # of connection points: 6
#     Edge 12, Type (0, 1), BuildingBlock: UVAHIK_clean_linker_0, # of connection points: 2
#     Edge 13, Type (0, 1), BuildingBlock: UVAHIK_clean_linker_0, # of connection points: 2
#     Edge 14, Type (0, 1), BuildingBlock: UVAHIK_clean_linker_0, # of connection points: 2
#     Edge 15, Type (0, 1), BuildingBlock: UVAHIK_clean_linker_0, # of connection points: 2
#     Edge 16, Type (0, 1), BuildingBlock: UVAHIK_clean_linker_0, # of connection points: 2
#     Edge 17, Type (0, 1), BuildingBlock: UVAHIK_clean_linker_0, # of connection points: 2
#     Edge 18, Type (0, 1), BuildingBlock: UVAHIK_clean_linker_0, # of connection points: 2
#     Edge 19, Type (0, 1), BuildingBlock: UVAHIK_clean_linker_0, # of connection points: 2
#     Edge 20, Type (0, 1), BuildingBlock: UVAHIK_clean_linker_0, # of connection points: 2
#     Edge 21, Type (0, 1), BuildingBlock: UVAHIK_clean_linker_0, # of connection points: 2
#     Edge 22, Type (0, 1), BuildingBlock: UVAHIK_clean_linker_0, # of connection points: 2
#     Edge 23, Type (0, 1), BuildingBlock: UVAHIK_clean_linker_0, # of connection points: 2
#     Edge 24, Type (0, 1), BuildingBlock: UVAHIK_clean_linker_0, # of connection points: 2
#     Edge 25, Type (0, 1), BuildingBlock: UVAHIK_clean_linker_0, # of connection points: 2
#     Edge 26, Type (0, 1), BuildingBlock: UVAHIK_clean_linker_0, # of connection points: 2
#     Edge 27, Type (0, 1), BuildingBlock: UVAHIK_clean_linker_0, # of connection points: 2
#     Edge 28, Type (0, 1), BuildingBlock: UVAHIK_clean_linker_0, # of connection points: 2
#     Edge 29, Type (0, 1), BuildingBlock: UVAHIK_clean_linker_0, # of connection points: 2
#     Edge 30, Type (0, 1), BuildingBlock: UVAHIK_clean_linker_0, # of connection points: 2
#     Edge 31, Type (0, 1), BuildingBlock: UVAHIK_clean_linker_0, # of connection points: 2
#     Edge 32, Type (0, 1), BuildingBlock: UVAHIK_clean_linker_0, # of connection points: 2
#     Edge 33, Type (0, 1), BuildingBlock: UVAHIK_clean_linker_0, # of connection points: 2
#     Edge 34, Type (0, 1), BuildingBlock: UVAHIK_clean_linker_0, # of connection points: 2
#     Edge 35, Type (0, 1), BuildingBlock: UVAHIK_clean_linker_0, # of connection points: 2
# Relax obj value: 0.035
# Max RMSD: 0.119
# Mean RMSD: 0.042
data_MOF--net-pry--node1-VOLQOD_clean_sbu_1--node2-VETTIZ_charged_linker_0--edge1-UVAHIK_clean_linker_0
_symmetry_space_group_name_H-M    P1
_symmetry_Int_Tables_number       1
_symmetry_cell_setting            triclinic
loop_
_symmetry_equiv_pos_as_xyz
'x, y, z'
_cell_length_a     55.730398
_cell_length_b     55.70706
_cell_length_c     55.982758
_cell_angle_alpha  90.068168
_cell_angle_beta   90.0104
_cell_angle_gamma 90.079213
loop_
_atom_site_label
_atom_site_type_symbol
_atom_site_fract_x
_atom_site_fract_y
_atom_site_fract_z
_atom_type_partial_charge
C0 C 0.11399 0.11226 0.21842 0.0
C1 C 0.09365 0.12147 0.23006 0.0
C2 C 0.08111 0.14075 0.21959 0.0
C3 C 0.10933 0.14147 0.1866 0.0
C4 C 0.12137 0.12236 0.19676 0.0
C5 C 0.14226 0.1142 0.18187 0.0
H6 H 0.20965 0.12612 0.08216 0.0
C7 C 0.12158 0.14756 0.16396 0.0
C8 C 0.14072 0.13146 0.161 0.0
H9 H 0.21945 0.0764 0.14073 0.0
H10 H 0.18447 0.09226 0.16022 0.0
H11 H 0.19883 0.17137 0.11634 0.0
H12 H 0.15311 0.12218 0.07831 0.0
H13 H 0.13959 0.15055 0.07621 0.0
H14 H 0.169 0.1459 0.06348 0.0
H15 H 0.19571 0.17174 0.08443 0.0
H16 H 0.17565 0.18831 0.10353 0.0
C17 C 0.16551 0.11793 0.19665 0.0
C18 C 0.13758 0.0879 0.17408 0.0
C19 C 0.09482 0.21992 0.11542 0.0
C20 C 0.10293 0.22986 0.09374 0.0
C21 C 0.12101 0.21776 0.08085 0.0
C22 C 0.13148 0.19679 0.08977 0.0
C23 C 0.12383 0.18763 0.11184 0.0
C24 C 0.10543 0.19883 0.12404 0.0
C25 C 0.09908 0.1859 0.1468 0.0
C26 C 0.11735 0.16567 0.14661 0.0
C27 C 0.13187 0.16692 0.12616 0.0
C28 C 0.10314 0.20332 0.16799 0.0
C29 C 0.07301 0.1764 0.14456 0.0
C30 C 0.2044 0.1187 0.09925 0.0
C31 C 0.21741 0.0998 0.10974 0.0
C32 C 0.20961 0.0906 0.13191 0.0
C33 C 0.18934 0.1 0.14337 0.0
C34 C 0.17671 0.11899 0.13273 0.0
C35 C 0.18434 0.12806 0.11108 0.0
C36 C 0.1692 0.14879 0.10284 0.0
C37 C 0.1511 0.15051 0.12305 0.0
C38 C 0.15556 0.13297 0.14045 0.0
C39 C 0.18554 0.1713 0.10149 0.0
C40 C 0.15715 0.14174 0.07888 0.0
H41 H 0.07873 0.1656 0.19099 0.0
H42 H 0.12378 0.09722 0.22582 0.0
H43 H 0.11821 0.08495 0.17024 0.0
H44 H 0.14688 0.083 0.15737 0.0
H45 H 0.14289 0.07511 0.18834 0.0
H46 H 0.16401 0.13397 0.20842 0.0
H47 H 0.16919 0.1022 0.20824 0.0
H48 H 0.18141 0.12154 0.18541 0.0
H49 H 0.08097 0.22867 0.12581 0.0
H50 H 0.12718 0.22454 0.0638 0.0
H51 H 0.14529 0.18864 0.07919 0.0
H52 H 0.12025 0.21338 0.16568 0.0
H53 H 0.08838 0.21664 0.16921 0.0
H54 H 0.10474 0.19408 0.18532 0.0
H55 H 0.06828 0.17258 0.12562 0.0
H56 H 0.07033 0.15911 0.15387 0.0
H57 H 0.05989 0.18971 0.15144 0.0
H58 H 0.06546 0.14821 0.22832 0.0
C59 C 0.08889 0.15084 0.19798 0.0
C60 C 0.30837 0.89168 0.60485 0.0
C61 C 0.29706 0.91199 0.61459 0.0
C62 C 0.30789 0.92397 0.63399 0.0
C63 C 0.34025 0.89492 0.63423 0.0
C64 C 0.32991 0.88357 0.61483 0.0
C65 C 0.3443 0.86232 0.60653 0.0
H66 H 0.43698 0.78622 0.62399 0.0
C67 C 0.36221 0.88156 0.64069 0.0
C68 C 0.36479 0.86257 0.6244 0.0
H69 H 0.38479 0.786 0.56667 0.0
H70 H 0.36667 0.82166 0.58264 0.0
H71 H 0.44778 0.84203 0.62053 0.0
H72 H 0.4006 0.80215 0.66676 0.0
H73 H 0.41683 0.82293 0.68418 0.0
H74 H 0.43273 0.8 0.66802 0.0
H75 H 0.45889 0.82584 0.6459 0.0
H76 H 0.44841 0.85642 0.64843 0.0
C77 C 0.3531 0.8673 0.58071 0.0
C78 C 0.32842 0.83962 0.60913 0.0
C79 C 0.40987 0.90614 0.71407 0.0
C80 C 0.43087 0.89721 0.72481 0.0
C81 C 0.44258 0.87745 0.71415 0.0
C82 C 0.43337 0.86663 0.69345 0.0
C83 C 0.41225 0.87566 0.68313 0.0
C84 C 0.40103 0.89526 0.69331 0.0
C85 C 0.37911 0.90282 0.67962 0.0
C86 C 0.37892 0.88443 0.65961 0.0
C87 C 0.39824 0.86842 0.66188 0.0
C88 C 0.38326 0.92864 0.67014 0.0
C89 C 0.35707 0.9001 0.69629 0.0
C90 C 0.42178 0.79392 0.61472 0.0
C91 C 0.41215 0.78288 0.59418 0.0
C92 C 0.39226 0.79364 0.58284 0.0
C93 C 0.38181 0.81452 0.59205 0.0
C94 C 0.39133 0.825 0.61281 0.0
C95 C 0.41122 0.81495 0.62358 0.0
C96 C 0.41939 0.82917 0.64498 0.0
C97 C 0.40087 0.84917 0.64542 0.0
C98 C 0.38436 0.84644 0.62667 0.0
C99 C 0.445 0.83881 0.63995 0.0
C100 C 0.41749 0.81282 0.66725 0.0
H101 H 0.33657 0.92525 0.65881 0.0
H102 H 0.30065 0.88234 0.58969 0.0
H103 H 0.31822 0.84014 0.62621 0.0
H104 H 0.33882 0.82282 0.60977 0.0
H105 H 0.31522 0.83837 0.59431 0.0
H106 H 0.35506 0.88688 0.57734 0.0
H107 H 0.34029 0.8601 0.56728 0.0
H108 H 0.37114 0.85983 0.57721 0.0
H109 H 0.40019 0.92108 0.72182 0.0
H110 H 0.45901 0.87041 0.72169 0.0
H111 H 0.44305 0.85163 0.68629 0.0
H112 H 0.40261 0.93199 0.66652 0.0
H113 H 0.3772 0.94228 0.68331 0.0
H114 H 0.37427 0.93193 0.65285 0.0
H115 H 0.35855 0.88349 0.7072 0.0
H116 H 0.33998 0.89825 0.68652 0.0
H117 H 0.35568 0.91555 0.70877 0.0
H118 H 0.29942 0.93958 0.64187 0.0
C119 C 0.32938 0.91553 0.64388 0.0
C120 C 0.59948 0.31754 0.92933 0.0
C121 C 0.57796 0.30638 0.92213 0.0
C122 C 0.56362 0.3178 0.90474 0.0
C123 C 0.593 0.34963 0.90074 0.0
C124 C 0.6065 0.33913 0.91858 0.0
C125 C 0.62885 0.35329 0.92411 0.0
H126 H 0.7012 0.44767 0.89915 0.0
C127 C 0.60593 0.37119 0.89234 0.0
C128 C 0.62679 0.37364 0.90622 0.0
H129 H 0.71101 0.39299 0.95315 0.0
H130 H 0.67353 0.37468 0.94187 0.0
H131 H 0.64324 0.45513 0.90626 0.0
H132 H 0.68684 0.41235 0.85942 0.0
H133 H 0.66139 0.42003 0.84275 0.0
H134 H 0.6811 0.44343 0.85347 0.0
H135 H 0.66177 0.46739 0.88302 0.0
H136 H 0.63149 0.45764 0.87715 0.0
C137 C 0.62708 0.36238 0.95023 0.0
C138 C 0.65086 0.33711 0.91901 0.0
C139 C 0.57675 0.41529 0.81845 0.0
C140 C 0.58652 0.43417 0.80483 0.0
C141 C 0.60726 0.44597 0.81335 0.0
C142 C 0.61839 0.43871 0.83457 0.0
C143 C 0.60895 0.41921 0.8474 0.0
C144 C 0.58832 0.40801 0.83943 0.0
C145 C 0.58129 0.38713 0.85497 0.0
C146 C 0.60142 0.38736 0.87327 0.0
C147 C 0.6175 0.40623 0.86876 0.0
C148 C 0.55662 0.39271 0.86648 0.0
C149 C 0.58169 0.36415 0.83935 0.0
C150 C 0.6954 0.4317 0.90854 0.0
C151 C 0.70922 0.42191 0.92717 0.0
C152 C 0.70065 0.40124 0.93902 0.0
C153 C 0.67891 0.39047 0.93231 0.0
C154 C 0.66557 0.40028 0.9134 0.0
C155 C 0.67387 0.42058 0.90189 0.0
C156 C 0.65785 0.42801 0.8816 0.0
C157 C 0.63827 0.40912 0.88317 0.0
C158 C 0.64288 0.39293 0.9018 0.0
C159 C 0.64809 0.45344 0.88705 0.0
C160 C 0.67242 0.42607 0.85803 0.0
H161 H 0.55944 0.34688 0.88074 0.0
H162 H 0.61103 0.30938 0.94257 0.0
H163 H 0.64775 0.32585 0.90287 0.0
H164 H 0.66731 0.3474 0.91505 0.0
H165 H 0.65445 0.32485 0.93423 0.0
H166 H 0.60816 0.36648 0.95509 0.0
H167 H 0.63376 0.34867 0.96299 0.0
H168 H 0.63685 0.37939 0.95318 0.0
H169 H 0.56064 0.40605 0.81273 0.0
H170 H 0.61545 0.46035 0.80321 0.0
H171 H 0.63427 0.44822 0.83987 0.0
H172 H 0.55411 0.41236 0.86903 0.0
H173 H 0.54164 0.38614 0.85511 0.0
H174 H 0.5548 0.38502 0.8846 0.0
H175 H 0.5976 0.36418 0.82734 0.0
H176 H 0.58316 0.34747 0.84979 0.0
H177 H 0.5654 0.363 0.82796 0.0
H178 H 0.54664 0.31008 0.89929 0.0
C179 C 0.57102 0.33929 0.89404 0.0
C180 C 0.93021 0.69156 0.4184 0.0
C181 C 0.92017 0.70266 0.43861 0.0
C182 C 0.90141 0.69099 0.45089 0.0
C183 C 0.90155 0.65888 0.42156 0.0
C184 C 0.92068 0.66981 0.41023 0.0
C185 C 0.92868 0.65627 0.38841 0.0
H186 H 0.90687 0.56998 0.30659 0.0
C187 C 0.89468 0.63754 0.40736 0.0
C188 C 0.91062 0.63587 0.38799 0.0
H189 H 0.96675 0.61951 0.30945 0.0
H190 H 0.95241 0.63506 0.34692 0.0
H191 H 0.91095 0.55488 0.36263 0.0
H192 H 0.86707 0.60534 0.32438 0.0
H193 H 0.84856 0.59162 0.34575 0.0
H194 H 0.86224 0.57352 0.32276 0.0
H195 H 0.88643 0.54564 0.34397 0.0
H196 H 0.88206 0.55322 0.37502 0.0
C197 C 0.95461 0.64716 0.39269 0.0
C198 C 0.92592 0.67307 0.36653 0.0
C199 C 0.82009 0.58972 0.42942 0.0
C200 C 0.80768 0.57085 0.41803 0.0
C201 C 0.81727 0.56117 0.39676 0.0
C202 C 0.83856 0.57018 0.38695 0.0
C203 C 0.85041 0.58932 0.39829 0.0
C204 C 0.84119 0.59874 0.41918 0.0
C205 C 0.85566 0.61974 0.42814 0.0
C206 C 0.87528 0.62109 0.40936 0.0
C207 C 0.87207 0.60321 0.39194 0.0
C208 C 0.86585 0.6133 0.45305 0.0
C209 C 0.83928 0.64222 0.42787 0.0
C210 C 0.91714 0.58394 0.31538 0.0
C211 C 0.93782 0.59373 0.3047 0.0
C212 C 0.95044 0.61202 0.31687 0.0
C213 C 0.94217 0.62096 0.33876 0.0
C214 C 0.92105 0.61155 0.34874 0.0
C215 C 0.90924 0.59297 0.33737 0.0
C216 C 0.88757 0.58464 0.35107 0.0
C217 C 0.8882 0.60151 0.37239 0.0
C218 C 0.90762 0.61746 0.3707 0.0
C219 C 0.8917 0.55817 0.35851 0.0
C220 C 0.8651 0.58875 0.33527 0.0
H221 H 0.87749 0.66136 0.45233 0.0
H222 H 0.94496 0.69986 0.40888 0.0
H223 H 0.90867 0.68306 0.36748 0.0
H224 H 0.92543 0.66341 0.34935 0.0
H225 H 0.94068 0.68647 0.36589 0.0
H226 H 0.95835 0.64468 0.41206 0.0
H227 H 0.96809 0.66003 0.38564 0.0
H228 H 0.95778 0.62926 0.3847 0.0
H229 H 0.8135 0.59751 0.44588 0.0
H230 H 0.80799 0.54701 0.38724 0.0
H231 H 0.8447 0.56216 0.37064 0.0
H232 H 0.87127 0.59409 0.45371 0.0
H233 H 0.85225 0.61625 0.46725 0.0
H234 H 0.88226 0.62348 0.45752 0.0
H235 H 0.82668 0.64165 0.41246 0.0
H236 H 0.84929 0.65916 0.42557 0.0
H237 H 0.82836 0.64336 0.44442 0.0
H238 H 0.89337 0.69919 0.4665 0.0
C239 C 0.89208 0.66914 0.44249 0.0
C240 C 0.93782 0.85246 0.95572 0.0
C241 C 0.95671 0.84046 0.94411 0.0
C242 C 0.96926 0.85225 0.9257 0.0
C243 C 0.94224 0.88609 0.92852 0.0
C244 C 0.9308 0.87519 0.94755 0.0
C245 C 0.90965 0.88961 0.95621 0.0
H246 H 0.82841 0.9765 0.9335 0.0
C247 C 0.9288 0.90801 0.9223 0.0
C248 C 0.90976 0.91035 0.93854 0.0
H249 H 0.83023 0.928 0.99364 0.0
H250 H 0.86897 0.9131 0.98086 0.0
H251 H 0.84633 0.94043 0.89512 0.0
H252 H 0.88533 0.99194 0.93738 0.0
H253 H 0.89752 0.99273 0.90845 0.0
H254 H 0.86642 0.0006 0.91292 0.0
H255 H 0.84473 0.97212 0.88967 0.0
H256 H 0.86765 0.95374 0.87627 0.0
C257 C 0.88687 0.87383 0.95375 0.0
C258 C 0.91488 0.89817 0.98203 0.0
C259 C 0.94862 0.95093 0.84496 0.0
C260 C 0.93659 0.96864 0.83167 0.0
C261 C 0.91684 0.98049 0.84213 0.0
C262 C 0.9085 0.97392 0.86484 0.0
C263 C 0.91979 0.95508 0.87716 0.0
C264 C 0.9398 0.94428 0.86738 0.0
C265 C 0.94879 0.92377 0.88229 0.0
C266 C 0.9308 0.92395 0.90264 0.0
C267 C 0.91388 0.94231 0.89955 0.0
C268 C 0.94726 0.90047 0.86703 0.0
C269 C 0.97435 0.93015 0.89114 0.0
C270 C 0.83724 0.96273 0.94394 0.0
C271 C 0.8262 0.95312 0.96436 0.0
C272 C 0.83842 0.93561 0.97781 0.0
C273 C 0.86078 0.92687 0.97026 0.0
C274 C 0.87095 0.9357 0.94903 0.0
C275 C 0.85958 0.95393 0.93673 0.0
C276 C 0.87331 0.96163 0.91494 0.0
C277 C 0.8946 0.94473 0.91593 0.0
C278 C 0.89289 0.92924 0.93567 0.0
C279 C 0.85729 0.95697 0.89274 0.0
C280 C 0.88099 0.98815 0.91834 0.0
H281 H 0.97216 0.88279 0.9035 0.0
H282 H 0.92787 0.84378 0.96991 0.0
H283 H 0.93448 0.90052 0.98507 0.0
H284 H 0.90704 0.916 0.98586 0.0
H285 H 0.90822 0.88501 0.99537 0.0
H286 H 0.88675 0.8644 0.93622 0.0
H287 H 0.88619 0.85999 0.96801 0.0
H288 H 0.87005 0.88414 0.95434 0.0
H289 H 0.96408 0.94169 0.83771 0.0
H290 H 0.90709 0.99409 0.83233 0.0
H291 H 0.89301 0.98316 0.87151 0.0
H292 H 0.93326 0.90187 0.85292 0.0
H293 H 0.96457 0.89665 0.85797 0.0
H294 H 0.94183 0.88458 0.87751 0.0
H295 H 0.97555 0.94948 0.89602 0.0
H296 H 0.97945 0.92033 0.90751 0.0
H297 H 0.98793 0.92666 0.87703 0.0
H298 H 0.98414 0.84349 0.91681 0.0
C299 C 0.96226 0.87505 0.91799 0.0
C300 C 0.6755 0.06373 0.45803 0.0
C301 C 0.6874 0.04304 0.44976 0.0
C302 C 0.67574 0.02818 0.43294 0.0
C303 C 0.64242 0.05595 0.4309 0.0
C304 C 0.65307 0.06974 0.44848 0.0
C305 C 0.63839 0.09153 0.45464 0.0
H306 H 0.54835 0.16689 0.42535 0.0
C307 C 0.62023 0.06817 0.42325 0.0
C308 C 0.61749 0.08882 0.4374 0.0
H309 H 0.59929 0.17395 0.48314 0.0
H310 H 0.61506 0.1345 0.47441 0.0
H311 H 0.53415 0.11287 0.43605 0.0
H312 H 0.58515 0.14374 0.38724 0.0
H313 H 0.5682 0.12203 0.3718 0.0
H314 H 0.55324 0.14743 0.38469 0.0
H315 H 0.52501 0.12462 0.40767 0.0
H316 H 0.53467 0.09383 0.41103 0.0
C317 C 0.63025 0.08945 0.48103 0.0
C318 C 0.65373 0.11407 0.44913 0.0
C319 C 0.57817 0.04097 0.34743 0.0
C320 C 0.55864 0.05028 0.33454 0.0
C321 C 0.54492 0.06891 0.34468 0.0
C322 C 0.55148 0.07915 0.3666 0.0
C323 C 0.57207 0.0708 0.37843 0.0
C324 C 0.58448 0.0514 0.36931 0.0
C325 C 0.6055 0.04453 0.38472 0.0
C326 C 0.60414 0.06362 0.40409 0.0
C327 C 0.58478 0.07919 0.40004 0.0
C328 C 0.601 0.01899 0.39477 0.0
C329 C 0.62856 0.0469 0.36943 0.0
C330 C 0.56291 0.15988 0.4361 0.0
C331 C 0.57285 0.17361 0.45471 0.0
C332 C 0.59136 0.16369 0.4687 0.0
C333 C 0.6006 0.14087 0.46348 0.0
C334 C 0.59128 0.12787 0.44404 0.0
C335 C 0.57228 0.13712 0.43117 0.0
C336 C 0.56429 0.12059 0.41146 0.0
C337 C 0.58194 0.10005 0.41434 0.0
C338 C 0.59797 0.10462 0.43318 0.0
C339 C 0.53813 0.1126 0.41658 0.0
C340 C 0.5677 0.13401 0.38745 0.0
H341 H 0.64564 0.02269 0.41047 0.0
H342 H 0.68384 0.07558 0.47093 0.0
H343 H 0.66326 0.11194 0.43179 0.0
H344 H 0.64307 0.1306 0.44728 0.0
H345 H 0.66747 0.11703 0.46321 0.0
H346 H 0.62847 0.07035 0.48656 0.0
H347 H 0.64335 0.09812 0.49326 0.0
H348 H 0.61225 0.09724 0.48408 0.0
H349 H 0.58874 0.02634 0.34025 0.0
H350 H 0.52979 0.07638 0.33508 0.0
H351 H 0.54076 0.09376 0.37304 0.0
H352 H 0.5815 0.01478 0.39571 0.0
H353 H 0.60955 0.00507 0.3834 0.0
H354 H 0.60747 0.01703 0.41337 0.0
H355 H 0.62825 0.06386 0.35895 0.0
H356 H 0.64515 0.04766 0.38009 0.0
H357 H 0.63011 0.03174 0.35661 0.0
H358 H 0.68412 0.01178 0.42674 0.0
C359 C 0.65333 0.03448 0.42355 0.0
C360 C 0.44759 0.57669 0.17763 0.0
C361 C 0.4377 0.55627 0.18859 0.0
C362 C 0.41923 0.54359 0.1769 0.0
C363 C 0.41917 0.57297 0.14499 0.0
C364 C 0.43823 0.58457 0.1558 0.0
C365 C 0.4464 0.60618 0.1419 0.0
H366 H 0.4241 0.68719 0.05522 0.0
C367 C 0.41249 0.58674 0.12346 0.0
C368 C 0.42869 0.60596 0.12127 0.0
H369 H 0.48287 0.68665 0.10555 0.0
H370 H 0.47029 0.64773 0.12 0.0
H371 H 0.38369 0.66641 0.09124 0.0
H372 H 0.42953 0.63312 0.03907 0.0
H373 H 0.40296 0.61614 0.03933 0.0
H374 H 0.40198 0.64737 0.03061 0.0
H375 H 0.38176 0.67176 0.05966 0.0
H376 H 0.36623 0.64712 0.07332 0.0
C377 C 0.44326 0.62856 0.15805 0.0
C378 C 0.47249 0.60181 0.13337 0.0
C379 C 0.33421 0.56811 0.08068 0.0
C380 C 0.32261 0.57875 0.06109 0.0
C381 C 0.33445 0.59693 0.04819 0.0
C382 C 0.35702 0.60528 0.05546 0.0
C383 C 0.36784 0.59539 0.07587 0.0
C384 C 0.35686 0.57654 0.08761 0.0
C385 C 0.37162 0.5675 0.10823 0.0
C386 C 0.39282 0.58468 0.10745 0.0
C387 C 0.39023 0.60124 0.08874 0.0
C388 C 0.35661 0.57053 0.13131 0.0
C389 C 0.37921 0.54127 0.10286 0.0
C390 C 0.43423 0.67862 0.06934 0.0
C391 C 0.45425 0.69006 0.07954 0.0
C392 C 0.46737 0.67815 0.09746 0.0
C393 C 0.45993 0.65566 0.10594 0.0
C394 C 0.43912 0.645 0.09642 0.0
C395 C 0.42709 0.65614 0.07793 0.0
C396 C 0.40575 0.64191 0.06955 0.0
C397 C 0.40662 0.62063 0.08646 0.0
C398 C 0.42597 0.62275 0.1024 0.0
C399 C 0.38307 0.6575 0.07345 0.0
C400 C 0.41004 0.6343 0.04324 0.0
H401 H 0.39547 0.54178 0.14737 0.0
H402 H 0.4621 0.58651 0.18607 0.0
H403 H 0.4762 0.58233 0.13104 0.0
H404 H 0.47607 0.60975 0.11561 0.0
H405 H 0.48571 0.60894 0.14643 0.0
H406 H 0.42576 0.62785 0.1676 0.0
H407 H 0.45769 0.62951 0.17172 0.0
H408 H 0.44308 0.64559 0.14808 0.0
H409 H 0.32566 0.55377 0.09059 0.0
H410 H 0.32582 0.60533 0.03301 0.0
H411 H 0.36489 0.61956 0.04529 0.0
H412 H 0.34803 0.58855 0.13178 0.0
H413 H 0.34214 0.55683 0.13224 0.0
H414 H 0.36735 0.56933 0.14778 0.0
H415 H 0.37972 0.53765 0.08332 0.0
H416 H 0.39763 0.53732 0.10913 0.0
H417 H 0.36653 0.52823 0.11098 0.0
H418 H 0.41137 0.52781 0.18506 0.0
C419 C 0.40992 0.55183 0.15514 0.0
C420 C 0.05791 0.33536 0.587 0.0
C421 C 0.06616 0.3212 0.56788 0.0
C422 C 0.08535 0.32967 0.55381 0.0
C423 C 0.08914 0.36471 0.57918 0.0
C424 C 0.06956 0.35703 0.59224 0.0
C425 C 0.06363 0.37392 0.61239 0.0
H426 H 0.09706 0.46703 0.68232 0.0
C427 C 0.09834 0.38693 0.59031 0.0
C428 C 0.08325 0.39268 0.60956 0.0
H429 H 0.03416 0.42208 0.68911 0.0
H430 H 0.04385 0.40228 0.65197 0.0
H431 H 0.09104 0.47693 0.62631 0.0
H432 H 0.13313 0.42533 0.6652 0.0
H433 H 0.15142 0.43848 0.64317 0.0
H434 H 0.13863 0.4571 0.66605 0.0
H435 H 0.11896 0.48499 0.64012 0.0
H436 H 0.11774 0.473 0.61012 0.0
C437 C 0.03835 0.38456 0.60784 0.0
C438 C 0.06601 0.35986 0.63613 0.0
C439 C 0.17847 0.42079 0.56339 0.0
C440 C 0.19255 0.44013 0.57139 0.0
C441 C 0.1833 0.45558 0.58907 0.0
C442 C 0.16082 0.45117 0.59941 0.0
C443 C 0.14745 0.43107 0.59203 0.0
C444 C 0.15603 0.41668 0.57383 0.0
C445 C 0.13914 0.39649 0.56786 0.0
C446 C 0.11923 0.40082 0.58586 0.0
C447 C 0.12437 0.42086 0.6002 0.0
C448 C 0.13034 0.39985 0.54179 0.0
C449 C 0.15247 0.37254 0.5725 0.0
C450 C 0.08539 0.45293 0.67575 0.0
C451 C 0.06499 0.44589 0.68877 0.0
C452 C 0.04994 0.42785 0.67938 0.0
C453 C 0.05572 0.41623 0.65792 0.0
C454 C 0.07682 0.42263 0.64574 0.0
C455 C 0.09089 0.44117 0.65433 0.0
C456 C 0.11236 0.44589 0.63874 0.0
C457 C 0.10913 0.42675 0.61966 0.0
C458 C 0.08848 0.41296 0.62407 0.0
C459 C 0.11016 0.47156 0.62833 0.0
C460 C 0.1352 0.44166 0.65395 0.0
H461 H 0.11163 0.35655 0.54824 0.0
H462 H 0.04293 0.32951 0.59788 0.0
H463 H 0.08232 0.34837 0.63588 0.0
H464 H 0.06807 0.37153 0.6519 0.0
H465 H 0.05025 0.34798 0.63899 0.0
H466 H 0.0343 0.3855 0.5884 0.0
H467 H 0.02417 0.37343 0.61633 0.0
H468 H 0.03672 0.40329 0.6142 0.0
H469 H 0.18495 0.40889 0.54951 0.0
H470 H 0.19386 0.4706 0.59552 0.0
H471 H 0.15497 0.46325 0.61316 0.0
H472 H 0.1306 0.41909 0.53647 0.0
H473 H 0.14187 0.3899 0.52899 0.0
H474 H 0.11145 0.39421 0.53934 0.0
H475 H 0.16302 0.37358 0.58935 0.0
H476 H 0.14036 0.35708 0.57485 0.0
H477 H 0.16516 0.36843 0.55775 0.0
H478 H 0.09213 0.31906 0.53906 0.0
C479 C 0.09681 0.35136 0.55931 0.0
O480 O 0.99311 0.06218 0.5357 0.0
Zn481 Zn 0.98114 0.02812 0.53573 0.0
O482 O 0.00243 0.00718 0.51749 0.0
Zn483 Zn 0.98616 0.99664 0.48838 0.0
Zn484 Zn 0.03164 0.02478 0.5093 0.0
Zn485 Zn 0.01059 0.97923 0.5368 0.0
O486 O 0.98524 0.96045 0.48636 0.0
O487 O 0.99817 0.94869 0.522 0.0
O488 O 0.94764 0.02761 0.52231 0.0
O489 O 0.95161 0.00727 0.48843 0.0
O490 O 0.00238 0.0099 0.45894 0.0
O491 O 0.0353 0.02699 0.47358 0.0
O492 O 0.06121 0.00885 0.52287 0.0
O493 O 0.97912 0.01761 0.56999 0.0
O494 O 0.04637 0.97603 0.53988 0.0
O495 O 0.99751 0.9823 0.57023 0.0
C496 C 0.01321 0.07154 0.53016 0.0
C497 C 0.98949 0.9439 0.50148 0.0
C498 C 0.02211 0.02109 0.45592 0.0
C499 C 0.93872 0.01891 0.50323 0.0
C500 C 0.06415 0.98919 0.53411 0.0
C501 C 0.98597 0.99883 0.58096 0.0
O502 O 0.02998 0.059 0.52104 0.0
O503 O 0.50554 0.05591 0.99291 0.0
Zn504 Zn 0.49159 0.02281 0.99655 0.0
O505 O 0.51101 0.0037 0.01862 0.0
Zn506 Zn 0.52639 0.97749 0.00131 0.0
Zn507 Zn 0.53568 0.024 0.03327 0.0
Zn508 Zn 0.49031 0.9902 0.04332 0.0
O509 O 0.5185 0.94537 0.01587 0.0
O510 O 0.49006 0.95409 0.04224 0.0
O511 O 0.49003 0.00729 0.96386 0.0
O512 O 0.51456 0.97613 0.96749 0.0
O513 O 0.56228 0.9813 0.00074 0.0
O514 O 0.56886 0.01214 0.02506 0.0
O515 O 0.53289 0.02384 0.06913 0.0
O516 O 0.45767 0.02672 0.0089 0.0
O517 O 0.50164 5e-05 0.07606 0.0
O518 O 0.45648 0.00198 0.03996 0.0
C519 C 0.52143 0.06773 0.00431 0.0
C520 C 0.50293 0.93882 0.03118 0.0
C521 C 0.57659 0.99548 0.01152 0.0
C522 C 0.50023 0.9888 0.95509 0.0
C523 C 0.51862 0.0134 0.08356 0.0
C524 C 0.44628 0.01681 0.026 0.0
O525 O 0.53359 0.05812 0.02105 0.0
O526 O 0.52759 0.49763 0.55031 0.0
Zn527 Zn 0.525 0.50958 0.51641 0.0
O528 O 0.50447 0.48839 0.49727 0.0
Zn529 Zn 0.5228 0.47445 0.47074 0.0
Zn530 Zn 0.49198 0.46246 0.5173 0.0
Zn531 Zn 0.47781 0.5072 0.48465 0.0
O532 O 0.50883 0.48416 0.43882 0.0
O533 O 0.47889 0.50849 0.44879 0.0
O534 O 0.55819 0.51142 0.50236 0.0
O535 O 0.55715 0.48607 0.47168 0.0
O536 O 0.5233 0.43823 0.47236 0.0
O537 O 0.50284 0.4302 0.50542 0.0
O538 O 0.45577 0.46235 0.51768 0.0
O539 O 0.51177 0.54323 0.51837 0.0
O540 O 0.44609 0.4932 0.49455 0.0
O541 O 0.47835 0.54106 0.49698 0.0
C542 C 0.51797 0.48022 0.56154 0.0
C543 C 0.49175 0.49819 0.43303 0.0
C544 C 0.51487 0.42326 0.48737 0.0
C545 C 0.56844 0.5009 0.48492 0.0
C546 C 0.44007 0.47561 0.50776 0.0
C547 C 0.49288 0.55291 0.51 0.0
O548 O 0.50381 0.46562 0.55112 0.0
O549 O 0.98664 0.51588 0.05105 0.0
Zn550 Zn 0.98913 0.50335 0.01725 0.0
O551 O 0.00903 0.52437 0.99725 0.0
Zn552 Zn 0.98987 0.53727 0.97084 0.0
Zn553 Zn 0.02147 0.55065 0.01682 0.0
Zn554 Zn 0.036 0.50624 0.98419 0.0
O555 O 0.00321 0.52714 0.93883 0.0
O556 O 0.03487 0.50497 0.94833 0.0
O557 O 0.95562 0.5006 0.00394 0.0
O558 O 0.956 0.52455 0.97223 0.0
O559 O 0.9889 0.57359 0.97193 0.0
O560 O 0.01065 0.58247 0.00403 0.0
O561 O 0.05766 0.5506 0.01802 0.0
O562 O 0.00334 0.47013 0.01932 0.0
O563 O 0.06759 0.52095 0.99344 0.0
O564 O 0.03608 0.47244 0.99685 0.0
C565 C 0.99581 0.53398 0.06156 0.0
C566 C 0.02103 0.51421 0.93276 0.0
C567 C 0.99793 0.58894 0.98628 0.0
C568 C 0.94507 0.51009 0.98611 0.0
C569 C 0.07346 0.53803 0.00738 0.0
C570 C 0.02213 0.46061 0.01049 0.0
O571 O 0.00945 0.54853 0.05049 0.0
C572 C 0.06131 0.10514 0.25668 0.0
C573 C 0.08558 0.11085 0.25296 0.0
C574 C 0.05395 0.09424 0.27796 0.0
C575 C 0.07785 0.0603 0.32997 0.0
H576 H 0.01718 0.07773 0.35906 0.0
C577 C 0.05279 0.03693 0.42726 0.0
C578 C 0.02939 0.0285 0.43157 0.0
C579 C 0.05931 0.04533 0.40468 0.0
C580 C 0.03405 0.07249 0.35098 0.0
H581 H 0.12104 0.11035 0.26881 0.0
H582 H 0.1082 0.09196 0.30613 0.0
H583 H 0.02915 0.09634 0.32148 0.0
H584 H 0.9946 0.02198 0.41537 0.0
H585 H 0.00601 0.03692 0.37594 0.0
H586 H 0.08297 0.03695 0.35991 0.0
C587 C 0.09489 0.09518 0.29241 0.0
C588 C 0.04091 0.08311 0.32942 0.0
C589 C 0.10226 0.10583 0.27107 0.0
C590 C 0.01278 0.02831 0.41265 0.0
C591 C 0.01924 0.03699 0.39012 0.0
C592 C 0.07109 0.04987 0.35163 0.0
C593 C 0.07067 0.08904 0.29607 0.0
C594 C 0.06299 0.07727 0.3187 0.0
C595 C 0.04253 0.04574 0.38596 0.0
C596 C 0.04919 0.05595 0.36242 0.0
H597 H 0.04811 0.10857 0.2429 0.0
H598 H 0.03522 0.08949 0.27999 0.0
H599 H 0.09473 0.05495 0.32201 0.0
H600 H 0.06604 0.03729 0.44141 0.0
H601 H 0.07733 0.05214 0.40204 0.0
C602 C 0.45041 0.89379 0.7652 0.0
C603 C 0.44024 0.9082 0.74722 0.0
C604 C 0.45846 0.904 0.78655 0.0
C605 C 0.44862 0.95507 0.82608 0.0
H606 H 0.51019 0.9376 0.85316 0.0
C607 C 0.48275 0.99672 0.91447 0.0
C608 C 0.49489 0.98133 0.93025 0.0
C609 C 0.47736 0.98925 0.8912 0.0
C610 C 0.49281 0.94247 0.84602 0.0
H611 H 0.43129 0.94486 0.73753 0.0
H612 H 0.44473 0.96248 0.77515 0.0
H613 H 0.49834 0.92149 0.81439 0.0
H614 H 0.51076 0.94597 0.93395 0.0
H615 H 0.50076 0.93275 0.89387 0.0
H616 H 0.4426 0.97536 0.85795 0.0
C617 C 0.44634 0.94326 0.77261 0.0
C618 C 0.4861 0.9333 0.82376 0.0
C619 C 0.43855 0.93311 0.75112 0.0
C620 C 0.50156 0.95838 0.92222 0.0
C621 C 0.49596 0.95083 0.89911 0.0
C622 C 0.45518 0.96402 0.84849 0.0
C623 C 0.4563 0.92879 0.79056 0.0
C624 C 0.46388 0.93937 0.81366 0.0
C625 C 0.48376 0.96613 0.88327 0.0
C626 C 0.47729 0.95768 0.85885 0.0
H627 H 0.45163 0.87451 0.76306 0.0
H628 H 0.46581 0.89238 0.80023 0.0
H629 H 0.43126 0.95984 0.81879 0.0
H630 H 0.47749 0.01457 0.92005 0.0
H631 H 0.46827 0.00166 0.87941 0.0
C632 C 0.57611 0.46452 0.77313 0.0
C633 C 0.5761 0.44059 0.78119 0.0
C634 C 0.56805 0.47017 0.75017 0.0
C635 C 0.53094 0.44834 0.70047 0.0
H636 H 0.57341 0.48633 0.66071 0.0
C637 C 0.51777 0.45508 0.59862 0.0
C638 C 0.52336 0.47684 0.58722 0.0
C639 C 0.52309 0.45174 0.62277 0.0
C640 C 0.56109 0.47606 0.67163 0.0
H641 H 0.56723 0.40391 0.77126 0.0
H642 H 0.55255 0.41396 0.73158 0.0
H643 H 0.58383 0.47909 0.70235 0.0
H644 H 0.53853 0.51235 0.59239 0.0
H645 H 0.54718 0.5068 0.63466 0.0
H646 H 0.50803 0.44546 0.66997 0.0
C647 C 0.55878 0.4283 0.74311 0.0
C648 C 0.56713 0.47187 0.69549 0.0
C649 C 0.56711 0.42259 0.76593 0.0
C650 C 0.53417 0.49529 0.60058 0.0
C651 C 0.53924 0.49205 0.62482 0.0
C652 C 0.52474 0.45275 0.67669 0.0
C653 C 0.55949 0.45208 0.73488 0.0
C654 C 0.55225 0.45776 0.71006 0.0
C655 C 0.53388 0.47019 0.63621 0.0
C656 C 0.53988 0.46643 0.66187 0.0
H657 H 0.58247 0.47891 0.78451 0.0
H658 H 0.56852 0.4887 0.74435 0.0
H659 H 0.51903 0.4376 0.71141 0.0
H660 H 0.50958 0.44044 0.5888 0.0
H661 H 0.51911 0.4345 0.63076 0.0
C662 C 0.95504 0.60211 0.26411 0.0
C663 C 0.94574 0.58554 0.28065 0.0
C664 C 0.96178 0.59471 0.24125 0.0
C665 C 0.9495 0.5492 0.19609 0.0
H666 H 0.00934 0.57109 0.16823 0.0
C667 C 0.97949 0.52067 0.10121 0.0
C668 C 0.99063 0.53834 0.08713 0.0
C669 C 0.97492 0.52487 0.12543 0.0
C670 C 0.99244 0.56503 0.17563 0.0
H671 H 0.93672 0.54801 0.28611 0.0
H672 H 0.94796 0.53528 0.24588 0.0
H673 H -0.00015 0.58134 0.2095 0.0
H674 H 0.00536 0.57443 0.08739 0.0
H675 H 0.99683 0.58197 0.12924 0.0
H676 H 0.94166 0.53354 0.16206 0.0
C677 C 0.94995 0.554 0.25074 0.0
C678 C 0.98708 0.57083 0.19929 0.0
C679 C 0.94345 0.56134 0.27374 0.0
C680 C 0.99693 0.56033 0.09775 0.0
C681 C 0.99219 0.5646 0.12184 0.0
C682 C 0.95475 0.54359 0.17231 0.0
C683 C 0.95915 0.57064 0.23429 0.0
C684 C 0.96546 0.56318 0.20968 0.0
C685 C 0.98122 0.5469 0.13604 0.0
C686 C 0.97617 0.55168 0.1617 0.0
H687 H 0.9566 0.62097 0.26856 0.0
H688 H 0.96849 0.60799 0.22879 0.0
H689 H 0.9326 0.54328 0.2036 0.0
H690 H 0.97451 0.50348 0.09361 0.0
H691 H 0.96671 0.51073 0.13588 0.0
C692 C 0.24489 0.0655 0.09947 0.0
C693 C 0.23935 0.0901 0.09803 0.0
C694 C 0.26611 0.05661 0.08961 0.0
C695 C 0.31316 0.06865 0.04547 0.0
H696 H 0.35316 0.03004 0.087 0.0
C697 C 0.41173 0.0454 0.02253 0.0
C698 C 0.42101 0.02343 0.03064 0.0
C699 C 0.38857 0.05259 0.02897 0.0
C700 C 0.34208 0.04037 0.07493 0.0
H701 H 0.25186 0.12452 0.08471 0.0
H702 H 0.28857 0.10877 0.06695 0.0
H703 H 0.31439 0.04403 0.10117 0.0
H704 H 0.41285 0.99118 0.05071 0.0
H705 H 0.37225 0.00319 0.06111 0.0
H706 H 0.34063 0.06476 0.01906 0.0
C707 C 0.27638 0.09646 0.07574 0.0
C708 C 0.31988 0.04848 0.08314 0.0
C709 C 0.25529 0.10543 0.08586 0.0
C710 C 0.40632 0.00836 0.04444 0.0
C711 C 0.38307 0.01535 0.05055 0.0
C712 C 0.33527 0.06026 0.03709 0.0
C713 C 0.28214 0.07202 0.07781 0.0
C714 C 0.30527 0.06281 0.06857 0.0
C715 C 0.37406 0.0378 0.04338 0.0
C716 C 0.35009 0.04611 0.05177 0.0
H717 H 0.23283 0.05305 0.10823 0.0
H718 H 0.27001 0.03763 0.09119 0.0
H719 H 0.30212 0.07953 0.03382 0.0
H720 H 0.42268 0.05746 0.01196 0.0
H721 H 0.38242 0.07011 0.02332 0.0
C722 C 0.26963 0.94474 0.6005 0.0
C723 C 0.27372 0.92027 0.605 0.0
C724 C 0.24738 0.9525 0.59194 0.0
C725 C 0.18395 0.93581 0.59109 0.0
H726 H 0.17905 0.97966 0.53757 0.0
C727 C 0.09276 0.95785 0.54861 0.0
C728 C 0.08863 0.98149 0.54095 0.0
C729 C 0.11564 0.9506 0.5557 0.0
C730 C 0.18009 0.96768 0.55275 0.0
H731 H 0.25778 0.88477 0.6042 0.0
H732 H 0.21886 0.89834 0.58939 0.0
H733 H 0.21854 0.96686 0.55152 0.0
H734 H 0.10537 0.01607 0.53461 0.0
H735 H 0.14521 0.00363 0.54762 0.0
H736 H 0.1457 0.93692 0.59284 0.0
C737 C 0.23287 0.91149 0.59243 0.0
C738 C 0.20271 0.96031 0.56067 0.0
C739 C 0.25517 0.90371 0.60071 0.0
C740 C 0.10798 0.99769 0.54033 0.0
C741 C 0.13086 0.9905 0.54767 0.0
C742 C 0.16138 0.94336 0.58338 0.0
C743 C 0.22873 0.93596 0.58803 0.0
C744 C 0.20484 0.94417 0.57981 0.0
C745 C 0.13495 0.96689 0.55558 0.0
C746 C 0.15912 0.95926 0.56399 0.0
H747 H 0.28368 0.95786 0.60351 0.0
H748 H 0.24461 0.97148 0.58881 0.0
H749 H 0.18509 0.92366 0.60614 0.0
H750 H 0.07831 0.94483 0.54908 0.0
H751 H 0.11818 0.93214 0.56115 0.0
C752 C 0.74791 0.44228 0.91599 0.0
C753 C 0.73278 0.43273 0.93372 0.0
C754 C 0.77019 0.45205 0.92198 0.0
C755 C 0.80613 0.47459 0.97344 0.0
H756 H 0.85935 0.46393 0.9301 0.0
C757 C 0.90588 0.4914 0.99799 0.0
C758 C 0.91986 0.50347 0.98088 0.0
C759 C 0.88245 0.48419 0.99262 0.0
C760 C 0.8446 0.46724 0.94226 0.0
H761 H 0.72929 0.4264 0.97181 0.0
H762 H 0.76858 0.44242 0.9821 0.0
H763 H 0.81984 0.44819 0.92013 0.0
H764 H 0.92006 0.51771 0.9448 0.0
H765 H 0.87927 0.50482 0.93539 0.0
H766 H 0.83134 0.49304 0.99588 0.0
C767 C 0.76299 0.44283 0.96358 0.0
C768 C 0.8219 0.4583 0.93653 0.0
C769 C 0.74055 0.43329 0.95762 0.0
C770 C 0.90978 0.50846 0.9584 0.0
C771 C 0.88648 0.50098 0.95294 0.0
C772 C 0.82894 0.48327 0.9793 0.0
C773 C 0.77815 0.45227 0.94582 0.0
C774 C 0.80232 0.4619 0.952 0.0
C775 C 0.87265 0.48864 0.96994 0.0
C776 C 0.84837 0.47973 0.96373 0.0
H777 H 0.74275 0.44189 0.89735 0.0
H778 H 0.78117 0.45949 0.90784 0.0
H779 H 0.79144 0.47806 0.98561 0.0
H780 H 0.91307 0.48734 0.0155 0.0
H781 H 0.87221 0.47457 0.006 0.0
C782 C 0.76797 0.57786 0.43829 0.0
C783 C 0.78437 0.56192 0.42761 0.0
C784 C 0.74562 0.56973 0.44622 0.0
C785 C 0.70043 0.52456 0.43417 0.0
H786 H 0.67582 0.54041 0.497 0.0
C787 C 0.60772 0.49079 0.46558 0.0
C788 C 0.59389 0.50637 0.47971 0.0
C789 C 0.63168 0.49617 0.46046 0.0
C790 C 0.68224 0.53609 0.47926 0.0
H791 H 0.7902 0.52465 0.41774 0.0
H792 H 0.75078 0.51077 0.43079 0.0
H793 H 0.71633 0.55271 0.48589 0.0
H794 H 0.5943 0.53991 0.4994 0.0
H795 H 0.63565 0.54978 0.48974 0.0
H796 H 0.6662 0.50886 0.42697 0.0
C797 C 0.75539 0.52955 0.43296 0.0
C798 C 0.7055 0.54302 0.473 0.0
C799 C 0.7779 0.53757 0.42538 0.0
C800 C 0.60453 0.52742 0.48862 0.0
C801 C 0.62835 0.533 0.4832 0.0
C802 C 0.67702 0.51795 0.44026 0.0
C803 C 0.73902 0.54559 0.44333 0.0
C804 C 0.71476 0.53739 0.45037 0.0
C805 C 0.64228 0.51746 0.46904 0.0
C806 C 0.66755 0.52373 0.46286 0.0
H807 H 0.77203 0.5968 0.43993 0.0
H808 H 0.73319 0.58251 0.45393 0.0
H809 H 0.70709 0.52024 0.4165 0.0
H810 H 0.60009 0.4743 0.45862 0.0
H811 H 0.64191 0.48352 0.44989 0.0
C812 C 0.0689 0.25899 0.08747 0.0
C813 C 0.0933 0.25312 0.08488 0.0
C814 C 0.06016 0.28108 0.0794 0.0
C815 C 0.08089 0.34214 0.06253 0.0
H816 H 0.01862 0.34678 0.03194 0.0
C817 C 0.0515 0.42666 0.01178 0.0
C818 C 0.02863 0.43576 0.01728 0.0
C819 C 0.05841 0.40395 0.01971 0.0
C820 C 0.03597 0.34574 0.04061 0.0
H821 H 0.12766 0.26614 0.07197 0.0
H822 H 0.11234 0.30399 0.05711 0.0
H823 H 0.0326 0.30794 0.04668 0.0
H824 H 0.9948 0.42771 0.03476 0.0
H825 H 0.0069 0.38786 0.04841 0.0
H826 H 0.08443 0.37982 0.05605 0.0
C827 C 0.09996 0.29178 0.06575 0.0
C828 C 0.04396 0.32354 0.04913 0.0
C829 C 0.1087 0.26983 0.07395 0.0
C830 C 0.01257 0.42128 0.03027 0.0
C831 C 0.01944 0.39842 0.03801 0.0
C832 C 0.07301 0.36422 0.05382 0.0
C833 C 0.07562 0.29778 0.06849 0.0
C834 C 0.06661 0.32144 0.06006 0.0
C835 C 0.04257 0.38972 0.03314 0.0
C836 C 0.05055 0.36623 0.04264 0.0
H837 H 0.05648 0.24646 0.0956 0.0
H838 H 0.04136 0.28519 0.08201 0.0
H839 H 0.09817 0.34136 0.07134 0.0
H840 H 0.06432 0.43728 0.00179 0.0
H841 H 0.07626 0.39755 0.01544 0.0
C842 C 0.56 0.26529 0.91713 0.0
C843 C 0.57094 0.28253 0.93194 0.0
C844 C 0.55418 0.24258 0.9259 0.0
C845 C 0.54591 0.2079 0.98207 0.0
H846 H 0.55397 0.15357 0.93944 0.0
C847 C 0.54035 0.10801 0.01197 0.0
C848 C 0.52632 0.09293 0.99738 0.0
C849 C 0.54545 0.13156 0.00492 0.0
C850 C 0.55148 0.1686 0.95149 0.0
H851 H 0.58385 0.28934 0.96791 0.0
H852 H 0.57463 0.24938 0.98292 0.0
H853 H 0.56383 0.19374 0.9255 0.0
H854 H 0.50653 0.0909 0.96403 0.0
H855 H 0.51572 0.13181 0.95168 0.0
H856 H 0.53407 0.18236 0.00823 0.0
C857 C 0.57013 0.2536 0.96459 0.0
C858 C 0.55702 0.19166 0.94349 0.0
C859 C 0.57573 0.27646 0.95586 0.0
C860 C 0.51738 0.102 0.97571 0.0
C861 C 0.52273 0.12539 0.96855 0.0
C862 C 0.54063 0.18472 0.99017 0.0
C863 C 0.55943 0.2363 0.94966 0.0
C864 C 0.55408 0.21168 0.95857 0.0
C865 C 0.53692 0.14036 0.983 0.0
C866 C 0.54315 0.1649 0.97486 0.0
H867 H 0.55632 0.2691 0.89853 0.0
H868 H 0.54555 0.22992 0.91397 0.0
H869 H 0.54314 0.22287 0.9941 0.0
H870 H 0.54745 0.1016 0.0288 0.0
H871 H 0.55652 0.14272 0.01634 0.0
C872 C 0.93233 0.7326 0.47006 0.0
C873 C 0.92829 0.72695 0.44591 0.0
C874 C 0.9395 0.75576 0.47669 0.0
C875 C 0.93747 0.81828 0.45618 0.0
H876 H 0.99006 0.8286 0.50037 0.0
C877 C 0.977 0.91243 0.47192 0.0
C878 C 0.98363 0.91868 0.49533 0.0
C879 C 0.97075 0.8888 0.46628 0.0
C880 C 0.97513 0.82605 0.48825 0.0
H881 H 0.9283 0.74115 0.40986 0.0
H882 H 0.94081 0.78145 0.42142 0.0
H883 H 0.97782 0.78771 0.49028 0.0
H884 H 0.98901 0.90489 0.53118 0.0
H885 H 0.97761 0.86382 0.52145 0.0
H886 H 0.93443 0.85646 0.45429 0.0
C887 C 0.93846 0.76803 0.43522 0.0
C888 C 0.96816 0.80262 0.48246 0.0
C889 C 0.93154 0.74489 0.42858 0.0
C890 C 0.98409 0.90069 0.51293 0.0
C891 C 0.97767 0.87708 0.50732 0.0
C892 C 0.94429 0.84167 0.46208 0.0
C893 C 0.94244 0.77374 0.45933 0.0
C894 C 0.94939 0.79852 0.46621 0.0
C895 C 0.97078 0.87086 0.48395 0.0
C896 C 0.96333 0.84588 0.47804 0.0
H897 H 0.93007 0.71909 0.48377 0.0
H898 H 0.94232 0.75972 0.49543 0.0
H899 H 0.92267 0.81566 0.44389 0.0
H900 H 0.97662 0.92579 0.45788 0.0
H901 H 0.966 0.88458 0.44799 0.0
C902 C 0.40736 0.74244 0.57483 0.0
C903 C 0.42246 0.76013 0.58469 0.0
C904 C 0.41688 0.72123 0.56555 0.0
C905 C 0.46777 0.68057 0.56979 0.0
H906 H 0.44605 0.658 0.50789 0.0
C907 C 0.5039 0.59273 0.52808 0.0
C908 C 0.48705 0.57805 0.51636 0.0
C909 C 0.49784 0.61608 0.53504 0.0
C910 C 0.45213 0.66388 0.52531 0.0
H911 H 0.45956 0.76917 0.59249 0.0
H912 H 0.47607 0.73168 0.57687 0.0
H913 H 0.4318 0.6964 0.52316 0.0
H914 H 0.45065 0.57651 0.50265 0.0
H915 H 0.43993 0.61676 0.51528 0.0
H916 H 0.48741 0.64773 0.57244 0.0
C917 C 0.45684 0.73445 0.57631 0.0
C918 C 0.44403 0.68593 0.53399 0.0
C919 C 0.44734 0.75585 0.58534 0.0
C920 C 0.46414 0.58736 0.51149 0.0
C921 C 0.45803 0.61057 0.51863 0.0
C922 C 0.47568 0.65835 0.56124 0.0
C923 C 0.4417 0.71703 0.56618 0.0
C924 C 0.45155 0.69436 0.55642 0.0
C925 C 0.47474 0.62521 0.5306 0.0
C926 C 0.46772 0.64958 0.53901 0.0
H927 H 0.38808 0.74478 0.57453 0.0
H928 H 0.40476 0.70791 0.55821 0.0
H929 H 0.4737 0.68659 0.58723 0.0
H930 H 0.52176 0.58616 0.53198 0.0
H931 H 0.5113 0.62696 0.54388 0.0
C932 C 0.94202 0.99623 0.79638 0.0
C933 C 0.94326 0.97309 0.80634 0.0
C934 C 0.94685 -0.00016 0.77212 0.0
C935 C 0.9492 0.96653 0.71482 0.0
H936 H 0.98378 0.02252 0.69223 0.0
C937 C 0.98479 0.97447 0.61856 0.0
C938 C 0.98075 0.99637 0.60677 0.0
C939 C 0.98 0.97222 0.64294 0.0
C940 C 0.97392 0.0069 0.6983 0.0
H941 H 0.95061 0.93563 0.79841 0.0
H942 H 0.95999 0.94209 0.75667 0.0
H943 H 0.97629 0.01766 0.73496 0.0
H944 H 0.96869 0.03312 0.61145 0.0
H945 H 0.96047 0.02913 0.65408 0.0
H946 H 0.94719 0.9556 0.67822 0.0
C947 C 0.95484 0.95741 0.76742 0.0
C948 C 0.96958 0.00413 0.72274 0.0
C949 C 0.94986 0.95378 0.79154 0.0
C950 C 0.97194 0.01598 0.61995 0.0
C951 C 0.96737 0.01377 0.6444 0.0
C952 C 0.95371 0.96921 0.69046 0.0
C953 C 0.95307 0.9804 0.75731 0.0
C954 C 0.95729 0.98382 0.73131 0.0
C955 C 0.97129 0.99185 0.6561 0.0
C956 C 0.9662 0.98935 0.68196 0.0
H957 H 0.9372 0.01154 0.8073 0.0
H958 H 0.94518 0.01778 0.76488 0.0
H959 H 0.93919 0.95095 0.7207 0.0
H960 H 0.99158 0.95902 0.60896 0.0
H961 H 0.9834 0.95516 0.65157 0.0
C962 C 0.53067 0.03802 0.30148 0.0
C963 C 0.55411 0.04246 0.30965 0.0
C964 C 0.52643 0.03306 0.27734 0.0
C965 C 0.55102 0.04627 0.2188 0.0
H966 H 0.51231 0.9932 0.19579 0.0
C967 C 0.54409 0.02496 0.11855 0.0
C968 C 0.52213 0.01647 0.10958 0.0
C969 C 0.54765 0.02738 0.14312 0.0
C970 C 0.52286 0.00834 0.20191 0.0
H971 H 0.59148 0.04487 0.29912 0.0
H972 H 0.58403 0.03638 0.257 0.0
H973 H 0.51887 0.9982 0.23868 0.0
H974 H 0.48653 0.00414 0.11934 0.0
H975 H 0.4924 0.00919 0.16217 0.0
H976 H 0.55455 0.05699 0.18239 0.0
C977 C 0.56899 0.03664 0.26926 0.0
C978 C 0.52669 0.01108 0.22646 0.0
C979 C 0.57326 0.04126 0.29338 0.0
C980 C 0.50372 0.0106 0.12571 0.0
C981 C 0.50716 0.01334 0.1503 0.0
C982 C 0.54694 0.04375 0.19434 0.0
C983 C 0.54552 0.03285 0.26096 0.0
C984 C 0.54099 0.02995 0.23507 0.0
C985 C 0.5292 0.02171 0.15934 0.0
C986 C 0.53298 0.02463 0.18552 0.0
H987 H 0.51561 0.03876 0.31369 0.0
H988 H 0.50816 0.03026 0.27133 0.0
H989 H 0.5618 0.06122 0.22505 0.0
H990 H 0.55873 0.02938 0.10661 0.0
H991 H 0.56503 0.03339 0.14938 0.0
C992 C 0.44568 0.56642 0.23126 0.0
C993 C 0.44536 0.54923 0.2129 0.0
C994 C 0.45122 0.55974 0.25463 0.0
C995 C 0.48293 0.51662 0.29112 0.0
H996 H 0.43666 0.53334 0.34009 0.0
C997 C 0.4947 0.48703 0.38966 0.0
C998 C 0.48685 0.50296 0.4075 0.0
C999 C 0.48966 0.49155 0.36559 0.0
C1000 C 0.45001 0.52884 0.32677 0.0
H1001 H 0.45118 0.51177 0.20431 0.0
H1002 H 0.46157 0.50013 0.24535 0.0
H1003 H 0.4287 0.54378 0.29864 0.0
H1004 H 0.46816 0.53643 0.41404 0.0
H1005 H 0.46029 0.54484 0.37226 0.0
H1006 H 0.50476 0.50254 0.31921 0.0
C1007 C 0.45728 0.5187 0.24157 0.0
C1008 C 0.44531 0.5347 0.303 0.0
C1009 C 0.45128 0.52532 0.21821 0.0
C1010 C 0.47419 0.52364 0.40075 0.0
C1011 C 0.46953 0.52837 0.37673 0.0
C1012 C 0.48787 0.51112 0.31501 0.0
C1013 C 0.45693 0.53581 0.26001 0.0
C1014 C 0.46177 0.52878 0.285 0.0
C1015 C 0.47699 0.5123 0.35879 0.0
C1016 C 0.47153 0.51732 0.3332 0.0
H1017 H 0.44097 0.58494 0.22766 0.0
H1018 H 0.45096 0.57326 0.26855 0.0
H1019 H 0.49594 0.51199 0.2775 0.0
H1020 H 0.50439 0.47086 0.39433 0.0
H1021 H 0.49542 0.47857 0.35239 0.0
C1022 C 0.03713 0.46285 0.71978 0.0
C1023 C 0.06038 0.45604 0.71282 0.0
C1024 C 0.03275 0.47093 0.74305 0.0
C1025 C 0.05593 0.46488 0.80367 0.0
H1026 H 0.01871 0.52187 0.81795 0.0
C1027 C 0.0478 0.50008 0.89975 0.0
C1028 C 0.02561 0.50943 0.90714 0.0
C1029 C 0.052 0.49484 0.87572 0.0
C1030 C 0.02887 0.50572 0.81429 0.0
H1031 H 0.09725 0.45245 0.72466 0.0
H1032 H 0.08957 0.46646 0.76525 0.0
H1033 H 0.02578 0.51043 0.77637 0.0
H1034 H 0.99045 0.52079 0.89503 0.0
H1035 H 0.99749 0.51097 0.85317 0.0
H1036 H 0.05861 0.45964 0.84133 0.0
C1037 C 0.07477 0.4656 0.75272 0.0
C1038 C 0.03297 0.49925 0.79048 0.0
C1039 C 0.07919 0.4578 0.72944 0.0
C1040 C 0.00778 0.51369 0.8899 0.0
C1041 C 0.01188 0.50817 0.86586 0.0
C1042 C 0.05163 0.47117 0.82741 0.0
C1043 C 0.05147 0.47201 0.75984 0.0
C1044 C 0.0467 0.47887 0.78497 0.0
C1045 C 0.034 0.4985 0.85849 0.0
C1046 C 0.0382 0.49177 0.83307 0.0
H1047 H 0.02233 0.46178 0.70728 0.0
H1048 H 0.0146 0.47567 0.74812 0.0
H1049 H 0.06623 0.44883 0.79992 0.0
H1050 H 0.06203 0.49684 0.91253 0.0
H1051 H 0.06944 0.48796 0.87068 0.0
C1052 C 0.78356 0.95969 0.95271 0.0
C1053 C 0.80132 0.96005 0.97047 0.0
C1054 C 0.75985 0.96538 0.95824 0.0
C1055 C 0.71767 0.97069 0.00935 0.0
H1056 H 0.67781 0.00118 0.96139 0.0
C1057 C 0.61911 0.00193 0.02475 0.0
C1058 C 0.60273 0.99273 0.00794 0.0
C1059 C 0.64382 -0.00073 0.02126 0.0
C1060 C 0.68877 0.99265 0.97492 0.0
H1061 H 0.80841 0.96691 0.00788 0.0
H1062 H 0.76699 0.97774 0.01753 0.0
H1063 H 0.72039 0.99525 0.95358 0.0
H1064 H 0.59937 0.97379 0.97422 0.0
H1065 H 0.64255 0.96972 0.96789 0.0
H1066 H 0.68582 0.96869 0.03082 0.0
C1067 C 0.77124 0.97248 -0.0006 0.0
C1068 C 0.71314 0.98909 0.97044 0.0
C1069 C 0.79497 0.9664 0.9939 0.0
C1070 C 0.61154 0.98099 0.98753 0.0
C1071 C 0.63621 0.97877 0.98383 0.0
C1072 C 0.69333 0.97466 0.01399 0.0
C1073 C 0.75333 0.97194 0.98164 0.0
C1074 C 0.72784 0.97759 0.98737 0.0
C1075 C 0.65254 0.98783 0.00067 0.0
C1076 C 0.67862 0.98526 0.99662 0.0
H1077 H 0.78791 0.95442 0.93458 0.0
H1078 H 0.74656 0.96411 0.94419 0.0
H1079 H 0.72828 0.96152 0.02272 0.0
H1080 H 0.61284 0.01099 0.0407 0.0
H1081 H 0.65612 0.00644 0.03446 0.0
C1082 C 0.7201 0.04259 0.48087 0.0
C1083 C 0.71243 0.03785 0.45738 0.0
C1084 C 0.74411 0.03933 0.48735 0.0
C1085 C 0.7999 0.00872 0.46936 0.0
H1086 H 0.83164 0.06046 0.50337 0.0
C1087 C 0.90274 0.01383 0.47681 0.0
C1088 C 0.91268 0.02153 0.4986 0.0
C1089 C 0.87806 0.01539 0.47279 0.0
C1090 C 0.823 0.04568 0.49418 0.0
H1091 H 0.72417 0.02588 0.42235 0.0
H1092 H 0.76578 0.0198 0.4338 0.0
H1093 H 0.78871 0.06296 0.49531 0.0
H1094 H 0.9044 0.03701 0.53323 0.0
H1095 H 0.86132 0.03938 0.52633 0.0
H1096 H 0.83408 0.99139 0.4682 0.0
C1097 C 0.75317 0.02583 0.44725 0.0
C1098 C 0.79839 0.04713 0.48957 0.0
C1099 C 0.72926 0.02924 0.44072 0.0
C1100 C 0.89737 0.03103 0.51618 0.0
C1101 C 0.87266 0.03248 0.5122 0.0
C1102 C 0.82445 0.0072 0.47408 0.0
C1103 C 0.76092 0.03109 0.47054 0.0
C1104 C 0.78665 0.02878 0.47687 0.0
C1105 C 0.86269 0.02456 0.4905 0.0
C1106 C 0.83637 0.02579 0.4863 0.0
H1107 H 0.70757 0.0489 0.49425 0.0
H1108 H 0.74954 0.04326 0.50552 0.0
H1109 H 0.79125 0.99415 0.45982 0.0
H1110 H 0.91401 0.00654 0.46282 0.0
H1111 H 0.87106 0.00956 0.45569 0.0
C1112 C 0.27996 0.5723 0.07297 0.0
C1113 C 0.2976 0.57217 0.0551 0.0
C1114 C 0.25598 0.56784 0.06727 0.0
C1115 C 0.21391 0.56679 0.01559 0.0
H1116 H 0.17196 0.53583 0.0615 0.0
C1117 C 0.11665 0.53496 0.99547 0.0
C1118 C 0.09918 0.54279 0.01183 0.0
C1119 C 0.14102 0.53864 9e-05 0.0
C1120 C 0.18349 0.5446 0.04859 0.0
H1121 H 0.30429 0.56663 0.01741 0.0
H1122 H 0.26253 0.55777 0.00748 0.0
H1123 H 0.21448 0.54042 0.07061 0.0
H1124 H 0.09354 0.56063 0.04583 0.0
H1125 H 0.13625 0.56651 0.05414 0.0
H1126 H 0.18276 0.57014 0.99332 0.0
C1127 C 0.26698 0.56208 0.02581 0.0
C1128 C 0.20785 0.54736 0.05381 0.0
C1129 C 0.29094 0.56697 0.03148 0.0
C1130 C 0.10657 0.55448 0.03284 0.0
C1131 C 0.13096 0.55773 0.03768 0.0
C1132 C 0.18961 0.56361 0.01022 0.0
C1133 C 0.24911 0.56275 0.04359 0.0
C1134 C 0.22337 0.55874 0.0375 0.0
C1135 C 0.14837 0.54978 0.02137 0.0
C1136 C 0.17418 0.55272 0.02678 0.0
H1137 H 0.2846 0.57664 0.09127 0.0
H1138 H 0.24278 0.56905 0.0814 0.0
H1139 H 0.22511 0.57602 0.00275 0.0
H1140 H 0.11149 0.52596 0.97908 0.0
H1141 H 0.15415 0.53229 0.9873 0.0
C1142 C 0.23295 0.42357 0.56134 0.0
C1143 C 0.21732 0.44332 0.56236 0.0
C1144 C 0.25672 0.42657 0.5541 0.0
C1145 C 0.29702 0.46545 0.52009 0.0
H1146 H 0.34667 0.43907 0.56085 0.0
C1147 C 0.39711 0.48868 0.50712 0.0
C1148 C 0.4143 0.47097 0.51218 0.0
C1149 C 0.37289 0.48476 0.5122 0.0
C1150 C 0.33309 0.4462 0.549 0.0
H1151 H 0.21407 0.48154 0.55608 0.0
H1152 H 0.25575 0.48676 0.54308 0.0
H1153 H 0.30466 0.43314 0.5712 0.0
H1154 H 0.41945 0.43493 0.52585 0.0
H1155 H 0.37712 0.42775 0.53397 0.0
H1156 H 0.32531 0.47814 0.4976 0.0
C1157 C 0.24953 0.469 0.54798 0.0
C1158 C 0.30901 0.44288 0.55503 0.0
C1159 C 0.2258 0.46606 0.55554 0.0
C1160 C 0.40667 0.44904 0.52195 0.0
C1161 C 0.38239 0.44499 0.52675 0.0
C1162 C 0.32112 0.46851 0.51387 0.0
C1163 C 0.26528 0.44932 0.54747 0.0
C1164 C 0.29076 0.45257 0.54071 0.0
C1165 C 0.3652 0.4629 0.52218 0.0
C1166 C 0.33949 0.45904 0.52832 0.0
H1167 H 0.22694 0.40588 0.56671 0.0
H1168 H 0.26845 0.41108 0.5537 0.0
H1169 H 0.28325 0.47288 0.50862 0.0
H1170 H 0.40242 0.50585 0.49973 0.0
H1171 H 0.36029 0.49913 0.5088 0.0
C1172 C 0.96376 0.79838 0.93067 0.0
C1173 C 0.96195 0.81498 0.94946 0.0
C1174 C 0.96798 0.77417 0.9353 0.0
C1175 C 0.96503 0.72856 0.98354 0.0
H1176 H 0.00367 0.69173 0.93905 0.0
C1177 C 0.99731 0.63133 0.00113 0.0
C1178 C 0.99356 0.61484 0.98244 0.0
C1179 C 0.99336 0.65583 0.99761 0.0
C1180 C 0.99272 0.70179 0.95153 0.0
H1181 H 0.96323 0.81938 0.98786 0.0
H1182 H 0.97144 0.77704 0.99609 0.0
H1183 H 0.99802 0.73458 0.93254 0.0
H1184 H 0.98278 0.61116 0.94539 0.0
H1185 H 0.97632 0.65412 0.93913 0.0
H1186 H 0.96036 0.69564 0.00281 0.0
C1187 C 0.96906 0.78264 0.97773 0.0
C1188 C 0.98938 0.72633 0.94779 0.0
C1189 C 0.96449 0.8069 0.97307 0.0
C1190 C 0.98579 0.62339 0.96014 0.0
C1191 C 0.98221 0.64796 0.95652 0.0
C1192 C 0.96867 0.70405 0.98745 0.0
C1193 C 0.97081 0.76595 0.95888 0.0
C1194 C 0.97527 0.74002 0.96359 0.0
C1195 C 0.98594 0.66438 0.97523 0.0
C1196 C 0.98236 0.69041 0.97135 0.0
H1197 H 0.96137 0.80405 0.91231 0.0
H1198 H 0.96858 0.76185 0.92035 0.0
H1199 H 0.95376 0.73838 0.9959 0.0
H1200 H 0.0032 0.62531 0.01856 0.0
H1201 H 0.99651 0.66814 0.01227 0.0
C1202 C 0.48413 0.72155 0.0674 0.0
C1203 C 0.46039 0.71496 0.07262 0.0
C1204 C 0.48971 0.7453 0.06143 0.0
C1205 C 0.46108 0.80278 0.04256 0.0
H1206 H 0.52046 0.83096 0.06548 0.0
C1207 C 0.47781 0.90477 0.04618 0.0
C1208 C 0.49926 0.91294 0.03575 0.0
C1209 C 0.4739 0.88027 0.04971 0.0
C1210 C 0.50391 0.82322 0.05883 0.0
H1211 H 0.42397 0.72798 0.07628 0.0
H1212 H 0.43367 0.76939 0.06668 0.0
H1213 H 0.51202 0.78866 0.07331 0.0
H1214 H 0.53365 0.90184 0.02133 0.0
H1215 H 0.52695 0.85894 0.02807 0.0
H1216 H 0.45266 0.83768 0.02893 0.0
C1217 C 0.44796 0.75625 0.06629 0.0
C1218 C 0.49909 0.79897 0.06318 0.0
C1219 C 0.44236 0.73251 0.07191 0.0
C1220 C 0.5169 0.89609 0.02933 0.0
C1221 C 0.51315 0.87159 0.03326 0.0
C1222 C 0.46574 0.82707 0.03857 0.0
C1223 C 0.47169 0.76299 0.06091 0.0
C1224 C 0.4775 0.78847 0.05527 0.0
C1225 C 0.49151 0.86347 0.04326 0.0
C1226 C 0.4871 0.83753 0.04681 0.0
H1227 H 0.49833 0.70828 0.06771 0.0
H1228 H 0.50812 0.74971 0.05706 0.0
H1229 H 0.44454 0.79525 0.03567 0.0
H1230 H 0.46385 0.91728 0.05126 0.0
H1231 H 0.45715 0.87444 0.05763 0.0
C1232 C 0.05163 0.28882 0.5402 0.0
C1233 C 0.05607 0.29694 0.56355 0.0
C1234 C 0.04438 0.26516 0.53607 0.0
C1235 C 0.02069 0.21052 0.56613 0.0
H1236 H 0.05113 0.17779 0.51304 0.0
C1237 C 0.99786 0.1124 0.5411 0.0
C1238 C 0.01699 0.09759 0.534 0.0
C1239 C 0.00129 0.13706 0.54422 0.0
C1240 C 0.0426 0.1866 0.52805 0.0
H1241 H 0.05602 0.28677 0.60092 0.0
H1242 H 0.04366 0.24546 0.59375 0.0
H1243 H 0.05888 0.22027 0.51952 0.0
H1244 H 0.05483 0.0971 0.52492 0.0
H1245 H 0.06094 0.13995 0.53084 0.0
H1246 H 0.00517 0.1766 0.5752 0.0
C1247 C 0.04531 0.25743 0.57861 0.0
C1248 C 0.04676 0.21108 0.53156 0.0
C1249 C 0.05241 0.28113 0.58274 0.0
C1250 C 0.03968 0.10798 0.53027 0.0
C1251 C 0.04313 0.13261 0.53351 0.0
C1252 C 0.01662 0.186 0.56268 0.0
C1253 C 0.04158 0.24904 0.5552 0.0
C1254 C 0.03599 0.22331 0.55074 0.0
C1255 C 0.02397 0.14747 0.54042 0.0
C1256 C 0.02768 0.1737 0.54371 0.0
H1257 H 0.05401 0.30072 0.52509 0.0
H1258 H 0.0412 0.25942 0.51785 0.0
H1259 H 0.0119 0.21944 0.58093 0.0
H1260 H 0.9801 0.10502 0.54402 0.0
H1261 H 0.98608 0.14801 0.54926 0.0
C1262 C 0.56003 0.20732 0.48162 0.0
C1263 C 0.56491 0.19868 0.45857 0.0
C1264 C 0.5532 0.23122 0.48509 0.0
C1265 C 0.53081 0.28499 0.45233 0.0
H1266 H 0.55482 0.31909 0.50786 0.0
C1267 C 0.52782 0.38837 0.4621 0.0
C1268 C 0.51944 0.39729 0.48407 0.0
C1269 C 0.53229 0.36386 0.45915 0.0
C1270 C 0.54783 0.30971 0.49237 0.0
H1271 H 0.56687 0.20827 0.42112 0.0
H1272 H 0.55562 0.25001 0.42714 0.0
H1273 H 0.5646 0.27678 0.5025 0.0
H1274 H 0.5093 0.38743 0.5202 0.0
H1275 H 0.51747 0.34471 0.51507 0.0
H1276 H 0.51468 0.31828 0.44194 0.0
C1277 C 0.55629 0.23829 0.44253 0.0
C1278 C 0.55332 0.28543 0.48933 0.0
C1279 C 0.56283 0.21436 0.43906 0.0
C1280 C 0.51569 0.38115 0.50302 0.0
C1281 C 0.52048 0.35671 0.50016 0.0
C1282 C 0.52559 0.30934 0.45523 0.0
C1283 C 0.5514 0.24707 0.46559 0.0
C1284 C 0.54494 0.27275 0.46923 0.0
C1285 C 0.5288 0.34783 0.4782 0.0
C1286 C 0.53408 0.32194 0.47526 0.0
H1287 H 0.56132 0.19553 0.49695 0.0
H1288 H 0.54918 0.23721 0.50306 0.0
H1289 H 0.52363 0.27575 0.43688 0.0
H1290 H 0.53085 0.40031 0.44714 0.0
H1291 H 0.53887 0.35748 0.44208 0.0
loop_
_geom_bond_atom_site_label_1
_geom_bond_atom_site_label_2
_geom_bond_distance
_geom_bond_site_symmetry_2
_ccdc_geom_bond_type
C0 C1 1.391 . S
C0 C4 1.391 . S
C0 H42 0.948 . S
C1 C0 1.391 . S
C1 C2 1.391 . S
C2 C1 1.391 . S
C2 H58 0.947 . S
C2 C59 1.392 . S
C3 C4 1.391 . S
C3 C7 1.397 . S
C3 C59 1.419 . S
C4 C0 1.391 . S
C4 C3 1.391 . S
C4 C5 1.399 . S
C5 C4 1.399 . S
C5 C8 1.396 . S
C5 C17 1.453 . S
C5 C18 1.684 . S
H6 C30 0.948 . S
C7 C3 1.397 . S
C7 C8 1.394 . S
C7 C26 1.723 . S
C8 C5 1.396 . S
C8 C7 1.394 . S
C8 C38 1.723 . S
H9 C32 0.947 . S
H10 C33 0.948 . S
H11 C39 0.982 . S
H12 C40 0.979 . S
H13 C40 0.980 . S
H14 C40 0.983 . S
H15 C39 0.979 . S
H16 C39 0.977 . S
C17 C5 1.453 . S
C17 H46 0.982 . S
C17 H47 0.979 . S
C17 H48 0.977 . S
C18 C5 1.684 . S
C18 H43 0.979 . S
C18 H44 0.980 . S
C18 H45 0.983 . S
C19 C20 1.391 . S
C19 C24 1.391 . S
C19 H49 0.948 . S
C20 C19 1.391 . S
C20 C21 1.391 . S
C21 C20 1.391 . S
C21 C22 1.392 . S
C21 H50 0.947 . S
C22 C21 1.392 . S
C22 C23 1.419 . S
C22 H51 0.948 . S
C23 C22 1.419 . S
C23 C24 1.391 . S
C23 C27 1.397 . S
C24 C19 1.391 . S
C24 C23 1.391 . S
C24 C25 1.399 . S
C25 C24 1.399 . S
C25 C26 1.396 . S
C25 C28 1.453 . S
C25 C29 1.684 . S
C26 C7 1.723 . S
C26 C25 1.396 . S
C26 C27 1.394 . S
C27 C23 1.397 . S
C27 C26 1.394 . S
C27 C37 1.723 . S
C28 C25 1.453 . S
C28 H52 0.982 . S
C28 H53 0.979 . S
C28 H54 0.977 . S
C29 C25 1.684 . S
C29 H55 0.979 . S
C29 H56 0.980 . S
C29 H57 0.983 . S
C30 H6 0.948 . S
C30 C31 1.391 . S
C30 C35 1.391 . S
C31 C30 1.391 . S
C31 C32 1.391 . S
C32 H9 0.947 . S
C32 C31 1.391 . S
C32 C33 1.392 . S
C33 H10 0.948 . S
C33 C32 1.392 . S
C33 C34 1.419 . S
C34 C33 1.419 . S
C34 C35 1.391 . S
C34 C38 1.397 . S
C35 C30 1.391 . S
C35 C34 1.391 . S
C35 C36 1.399 . S
C36 C35 1.399 . S
C36 C37 1.396 . S
C36 C39 1.453 . S
C36 C40 1.684 . S
C37 C27 1.723 . S
C37 C36 1.396 . S
C37 C38 1.394 . S
C38 C8 1.723 . S
C38 C34 1.397 . S
C38 C37 1.394 . S
C39 H11 0.982 . S
C39 H15 0.979 . S
C39 H16 0.977 . S
C39 C36 1.453 . S
C40 H12 0.979 . S
C40 H13 0.980 . S
C40 H14 0.983 . S
C40 C36 1.684 . S
H41 C59 0.948 . S
H42 C0 0.948 . S
H43 C18 0.979 . S
H44 C18 0.980 . S
H45 C18 0.983 . S
H46 C17 0.982 . S
H47 C17 0.979 . S
H48 C17 0.977 . S
H49 C19 0.948 . S
H50 C21 0.947 . S
H51 C22 0.948 . S
H52 C28 0.982 . S
H53 C28 0.979 . S
H54 C28 0.977 . S
H55 C29 0.979 . S
H56 C29 0.980 . S
H57 C29 0.983 . S
H58 C2 0.947 . S
C59 C2 1.392 . S
C59 C3 1.419 . S
C59 H41 0.948 . S
C60 C61 1.391 . S
C60 C64 1.391 . S
C60 H102 0.948 . S
C61 C60 1.391 . S
C61 C62 1.391 . S
C62 C61 1.391 . S
C62 H118 0.947 . S
C62 C119 1.392 . S
C63 C64 1.391 . S
C63 C67 1.397 . S
C63 C119 1.419 . S
C64 C60 1.391 . S
C64 C63 1.391 . S
C64 C65 1.399 . S
C65 C64 1.399 . S
C65 C68 1.396 . S
C65 C77 1.453 . S
C65 C78 1.684 . S
H66 C90 0.948 . S
C67 C63 1.397 . S
C67 C68 1.394 . S
C67 C86 1.723 . S
C68 C65 1.396 . S
C68 C67 1.394 . S
C68 C98 1.723 . S
H69 C92 0.947 . S
H70 C93 0.948 . S
H71 C99 0.982 . S
H72 C100 0.979 . S
H73 C100 0.980 . S
H74 C100 0.983 . S
H75 C99 0.979 . S
H76 C99 0.977 . S
C77 C65 1.453 . S
C77 H106 0.982 . S
C77 H107 0.979 . S
C77 H108 0.977 . S
C78 C65 1.684 . S
C78 H103 0.979 . S
C78 H104 0.980 . S
C78 H105 0.983 . S
C79 C80 1.391 . S
C79 C84 1.391 . S
C79 H109 0.948 . S
C80 C79 1.391 . S
C80 C81 1.391 . S
C81 C80 1.391 . S
C81 C82 1.392 . S
C81 H110 0.947 . S
C82 C81 1.392 . S
C82 C83 1.419 . S
C82 H111 0.948 . S
C83 C82 1.419 . S
C83 C84 1.391 . S
C83 C87 1.397 . S
C84 C79 1.391 . S
C84 C83 1.391 . S
C84 C85 1.399 . S
C85 C84 1.399 . S
C85 C86 1.396 . S
C85 C88 1.453 . S
C85 C89 1.684 . S
C86 C67 1.723 . S
C86 C85 1.396 . S
C86 C87 1.394 . S
C87 C83 1.397 . S
C87 C86 1.394 . S
C87 C97 1.723 . S
C88 C85 1.453 . S
C88 H112 0.982 . S
C88 H113 0.979 . S
C88 H114 0.977 . S
C89 C85 1.684 . S
C89 H115 0.979 . S
C89 H116 0.980 . S
C89 H117 0.983 . S
C90 H66 0.948 . S
C90 C91 1.391 . S
C90 C95 1.391 . S
C91 C90 1.391 . S
C91 C92 1.391 . S
C92 H69 0.947 . S
C92 C91 1.391 . S
C92 C93 1.392 . S
C93 H70 0.948 . S
C93 C92 1.392 . S
C93 C94 1.419 . S
C94 C93 1.419 . S
C94 C95 1.391 . S
C94 C98 1.397 . S
C95 C90 1.391 . S
C95 C94 1.391 . S
C95 C96 1.399 . S
C96 C95 1.399 . S
C96 C97 1.396 . S
C96 C99 1.453 . S
C96 C100 1.684 . S
C97 C87 1.723 . S
C97 C96 1.396 . S
C97 C98 1.394 . S
C98 C68 1.723 . S
C98 C94 1.397 . S
C98 C97 1.394 . S
C99 H71 0.982 . S
C99 H75 0.979 . S
C99 H76 0.977 . S
C99 C96 1.453 . S
C100 H72 0.979 . S
C100 H73 0.980 . S
C100 H74 0.983 . S
C100 C96 1.684 . S
H101 C119 0.948 . S
H102 C60 0.948 . S
H103 C78 0.979 . S
H104 C78 0.980 . S
H105 C78 0.983 . S
H106 C77 0.982 . S
H107 C77 0.979 . S
H108 C77 0.977 . S
H109 C79 0.948 . S
H110 C81 0.947 . S
H111 C82 0.948 . S
H112 C88 0.982 . S
H113 C88 0.979 . S
H114 C88 0.977 . S
H115 C89 0.979 . S
H116 C89 0.980 . S
H117 C89 0.983 . S
H118 C62 0.947 . S
C119 C62 1.392 . S
C119 C63 1.419 . S
C119 H101 0.948 . S
C120 C121 1.391 . S
C120 C124 1.391 . S
C120 H162 0.948 . S
C121 C120 1.391 . S
C121 C122 1.391 . S
C122 C121 1.391 . S
C122 H178 0.947 . S
C122 C179 1.392 . S
C123 C124 1.391 . S
C123 C127 1.397 . S
C123 C179 1.419 . S
C124 C120 1.391 . S
C124 C123 1.391 . S
C124 C125 1.399 . S
C125 C124 1.399 . S
C125 C128 1.396 . S
C125 C137 1.453 . S
C125 C138 1.684 . S
H126 C150 0.948 . S
C127 C123 1.397 . S
C127 C128 1.394 . S
C127 C146 1.723 . S
C128 C125 1.396 . S
C128 C127 1.394 . S
C128 C158 1.723 . S
H129 C152 0.947 . S
H130 C153 0.948 . S
H131 C159 0.982 . S
H132 C160 0.979 . S
H133 C160 0.980 . S
H134 C160 0.983 . S
H135 C159 0.979 . S
H136 C159 0.977 . S
C137 C125 1.453 . S
C137 H166 0.982 . S
C137 H167 0.979 . S
C137 H168 0.977 . S
C138 C125 1.684 . S
C138 H163 0.979 . S
C138 H164 0.980 . S
C138 H165 0.983 . S
C139 C140 1.391 . S
C139 C144 1.391 . S
C139 H169 0.948 . S
C140 C139 1.391 . S
C140 C141 1.391 . S
C141 C140 1.391 . S
C141 C142 1.392 . S
C141 H170 0.947 . S
C142 C141 1.392 . S
C142 C143 1.419 . S
C142 H171 0.948 . S
C143 C142 1.419 . S
C143 C144 1.391 . S
C143 C147 1.397 . S
C144 C139 1.391 . S
C144 C143 1.391 . S
C144 C145 1.399 . S
C145 C144 1.399 . S
C145 C146 1.396 . S
C145 C148 1.453 . S
C145 C149 1.684 . S
C146 C127 1.723 . S
C146 C145 1.396 . S
C146 C147 1.394 . S
C147 C143 1.397 . S
C147 C146 1.394 . S
C147 C157 1.723 . S
C148 C145 1.453 . S
C148 H172 0.982 . S
C148 H173 0.979 . S
C148 H174 0.977 . S
C149 C145 1.684 . S
C149 H175 0.979 . S
C149 H176 0.980 . S
C149 H177 0.983 . S
C150 H126 0.948 . S
C150 C151 1.391 . S
C150 C155 1.391 . S
C151 C150 1.391 . S
C151 C152 1.391 . S
C152 H129 0.947 . S
C152 C151 1.391 . S
C152 C153 1.392 . S
C153 H130 0.948 . S
C153 C152 1.392 . S
C153 C154 1.419 . S
C154 C153 1.419 . S
C154 C155 1.391 . S
C154 C158 1.397 . S
C155 C150 1.391 . S
C155 C154 1.391 . S
C155 C156 1.399 . S
C156 C155 1.399 . S
C156 C157 1.396 . S
C156 C159 1.453 . S
C156 C160 1.684 . S
C157 C147 1.723 . S
C157 C156 1.396 . S
C157 C158 1.394 . S
C158 C128 1.723 . S
C158 C154 1.397 . S
C158 C157 1.394 . S
C159 H131 0.982 . S
C159 H135 0.979 . S
C159 H136 0.977 . S
C159 C156 1.453 . S
C160 H132 0.979 . S
C160 H133 0.980 . S
C160 H134 0.983 . S
C160 C156 1.684 . S
H161 C179 0.948 . S
H162 C120 0.948 . S
H163 C138 0.979 . S
H164 C138 0.980 . S
H165 C138 0.983 . S
H166 C137 0.982 . S
H167 C137 0.979 . S
H168 C137 0.977 . S
H169 C139 0.948 . S
H170 C141 0.947 . S
H171 C142 0.948 . S
H172 C148 0.982 . S
H173 C148 0.979 . S
H174 C148 0.977 . S
H175 C149 0.979 . S
H176 C149 0.980 . S
H177 C149 0.983 . S
H178 C122 0.947 . S
C179 C122 1.392 . S
C179 C123 1.419 . S
C179 H161 0.948 . S
C180 C181 1.391 . S
C180 C184 1.391 . S
C180 H222 0.948 . S
C181 C180 1.391 . S
C181 C182 1.391 . S
C182 C181 1.391 . S
C182 H238 0.947 . S
C182 C239 1.392 . S
C183 C184 1.391 . S
C183 C187 1.397 . S
C183 C239 1.419 . S
C184 C180 1.391 . S
C184 C183 1.391 . S
C184 C185 1.399 . S
C185 C184 1.399 . S
C185 C188 1.396 . S
C185 C197 1.453 . S
C185 C198 1.684 . S
H186 C210 0.948 . S
C187 C183 1.397 . S
C187 C188 1.394 . S
C187 C206 1.723 . S
C188 C185 1.396 . S
C188 C187 1.394 . S
C188 C218 1.723 . S
H189 C212 0.947 . S
H190 C213 0.948 . S
H191 C219 0.982 . S
H192 C220 0.979 . S
H193 C220 0.980 . S
H194 C220 0.983 . S
H195 C219 0.979 . S
H196 C219 0.977 . S
C197 C185 1.453 . S
C197 H226 0.982 . S
C197 H227 0.979 . S
C197 H228 0.977 . S
C198 C185 1.684 . S
C198 H223 0.979 . S
C198 H224 0.980 . S
C198 H225 0.983 . S
C199 C200 1.391 . S
C199 C204 1.391 . S
C199 H229 0.948 . S
C200 C199 1.391 . S
C200 C201 1.391 . S
C201 C200 1.391 . S
C201 C202 1.392 . S
C201 H230 0.947 . S
C202 C201 1.392 . S
C202 C203 1.419 . S
C202 H231 0.948 . S
C203 C202 1.419 . S
C203 C204 1.391 . S
C203 C207 1.397 . S
C204 C199 1.391 . S
C204 C203 1.391 . S
C204 C205 1.399 . S
C205 C204 1.399 . S
C205 C206 1.396 . S
C205 C208 1.453 . S
C205 C209 1.684 . S
C206 C187 1.723 . S
C206 C205 1.396 . S
C206 C207 1.394 . S
C207 C203 1.397 . S
C207 C206 1.394 . S
C207 C217 1.723 . S
C208 C205 1.453 . S
C208 H232 0.982 . S
C208 H233 0.979 . S
C208 H234 0.977 . S
C209 C205 1.684 . S
C209 H235 0.979 . S
C209 H236 0.980 . S
C209 H237 0.983 . S
C210 H186 0.948 . S
C210 C211 1.391 . S
C210 C215 1.391 . S
C211 C210 1.391 . S
C211 C212 1.391 . S
C212 H189 0.947 . S
C212 C211 1.391 . S
C212 C213 1.392 . S
C213 H190 0.948 . S
C213 C212 1.392 . S
C213 C214 1.419 . S
C214 C213 1.419 . S
C214 C215 1.391 . S
C214 C218 1.397 . S
C215 C210 1.391 . S
C215 C214 1.391 . S
C215 C216 1.399 . S
C216 C215 1.399 . S
C216 C217 1.396 . S
C216 C219 1.453 . S
C216 C220 1.684 . S
C217 C207 1.723 . S
C217 C216 1.396 . S
C217 C218 1.394 . S
C218 C188 1.723 . S
C218 C214 1.397 . S
C218 C217 1.394 . S
C219 H191 0.982 . S
C219 H195 0.979 . S
C219 H196 0.977 . S
C219 C216 1.453 . S
C220 H192 0.979 . S
C220 H193 0.980 . S
C220 H194 0.983 . S
C220 C216 1.684 . S
H221 C239 0.948 . S
H222 C180 0.948 . S
H223 C198 0.979 . S
H224 C198 0.980 . S
H225 C198 0.983 . S
H226 C197 0.982 . S
H227 C197 0.979 . S
H228 C197 0.977 . S
H229 C199 0.948 . S
H230 C201 0.947 . S
H231 C202 0.948 . S
H232 C208 0.982 . S
H233 C208 0.979 . S
H234 C208 0.977 . S
H235 C209 0.979 . S
H236 C209 0.980 . S
H237 C209 0.983 . S
H238 C182 0.947 . S
C239 C182 1.392 . S
C239 C183 1.419 . S
C239 H221 0.948 . S
C240 C241 1.391 . S
C240 C244 1.391 . S
C240 H282 0.948 . S
C241 C240 1.391 . S
C241 C242 1.391 . S
C242 C241 1.391 . S
C242 H298 0.947 . S
C242 C299 1.392 . S
C243 C244 1.391 . S
C243 C247 1.397 . S
C243 C299 1.419 . S
C244 C240 1.391 . S
C244 C243 1.391 . S
C244 C245 1.399 . S
C245 C244 1.399 . S
C245 C248 1.396 . S
C245 C257 1.453 . S
C245 C258 1.684 . S
H246 C270 0.948 . S
C247 C243 1.397 . S
C247 C248 1.394 . S
C247 C266 1.723 . S
C248 C245 1.396 . S
C248 C247 1.394 . S
C248 C278 1.723 . S
H249 C272 0.947 . S
H250 C273 0.948 . S
H251 C279 0.982 . S
H252 C280 0.979 1_545 S
H253 C280 0.980 . S
H254 C280 0.983 1_545 S
H255 C279 0.979 . S
H256 C279 0.977 . S
C257 C245 1.453 . S
C257 H286 0.982 . S
C257 H287 0.979 . S
C257 H288 0.977 . S
C258 C245 1.684 . S
C258 H283 0.979 . S
C258 H284 0.980 . S
C258 H285 0.983 . S
C259 C260 1.391 . S
C259 C264 1.391 . S
C259 H289 0.948 . S
C260 C259 1.391 . S
C260 C261 1.391 . S
C261 C260 1.391 . S
C261 C262 1.392 . S
C261 H290 0.947 . S
C262 C261 1.392 . S
C262 C263 1.419 . S
C262 H291 0.948 . S
C263 C262 1.419 . S
C263 C264 1.391 . S
C263 C267 1.397 . S
C264 C259 1.391 . S
C264 C263 1.391 . S
C264 C265 1.399 . S
C265 C264 1.399 . S
C265 C266 1.396 . S
C265 C268 1.453 . S
C265 C269 1.684 . S
C266 C247 1.723 . S
C266 C265 1.396 . S
C266 C267 1.394 . S
C267 C263 1.397 . S
C267 C266 1.394 . S
C267 C277 1.723 . S
C268 C265 1.453 . S
C268 H292 0.982 . S
C268 H293 0.979 . S
C268 H294 0.977 . S
C269 C265 1.684 . S
C269 H295 0.979 . S
C269 H296 0.980 . S
C269 H297 0.983 . S
C270 H246 0.948 . S
C270 C271 1.391 . S
C270 C275 1.391 . S
C271 C270 1.391 . S
C271 C272 1.391 . S
C272 H249 0.947 . S
C272 C271 1.391 . S
C272 C273 1.392 . S
C273 H250 0.948 . S
C273 C272 1.392 . S
C273 C274 1.419 . S
C274 C273 1.419 . S
C274 C275 1.391 . S
C274 C278 1.397 . S
C275 C270 1.391 . S
C275 C274 1.391 . S
C275 C276 1.399 . S
C276 C275 1.399 . S
C276 C277 1.396 . S
C276 C279 1.453 . S
C276 C280 1.684 . S
C277 C267 1.723 . S
C277 C276 1.396 . S
C277 C278 1.394 . S
C278 C248 1.723 . S
C278 C274 1.397 . S
C278 C277 1.394 . S
C279 H251 0.982 . S
C279 H255 0.979 . S
C279 H256 0.977 . S
C279 C276 1.453 . S
C280 H252 0.979 1_565 S
C280 H253 0.980 . S
C280 H254 0.983 1_565 S
C280 C276 1.684 . S
H281 C299 0.948 . S
H282 C240 0.948 . S
H283 C258 0.979 . S
H284 C258 0.980 . S
H285 C258 0.983 . S
H286 C257 0.982 . S
H287 C257 0.979 . S
H288 C257 0.977 . S
H289 C259 0.948 . S
H290 C261 0.947 . S
H291 C262 0.948 . S
H292 C268 0.982 . S
H293 C268 0.979 . S
H294 C268 0.977 . S
H295 C269 0.979 . S
H296 C269 0.980 . S
H297 C269 0.983 . S
H298 C242 0.947 . S
C299 C242 1.392 . S
C299 C243 1.419 . S
C299 H281 0.948 . S
C300 C301 1.391 . S
C300 C304 1.391 . S
C300 H342 0.948 . S
C301 C300 1.391 . S
C301 C302 1.391 . S
C302 C301 1.391 . S
C302 H358 0.947 . S
C302 C359 1.392 . S
C303 C304 1.391 . S
C303 C307 1.397 . S
C303 C359 1.419 . S
C304 C300 1.391 . S
C304 C303 1.391 . S
C304 C305 1.399 . S
C305 C304 1.399 . S
C305 C308 1.396 . S
C305 C317 1.453 . S
C305 C318 1.684 . S
H306 C330 0.948 . S
C307 C303 1.397 . S
C307 C308 1.394 . S
C307 C326 1.723 . S
C308 C305 1.396 . S
C308 C307 1.394 . S
C308 C338 1.723 . S
H309 C332 0.947 . S
H310 C333 0.948 . S
H311 C339 0.982 . S
H312 C340 0.979 . S
H313 C340 0.980 . S
H314 C340 0.983 . S
H315 C339 0.979 . S
H316 C339 0.977 . S
C317 C305 1.453 . S
C317 H346 0.982 . S
C317 H347 0.979 . S
C317 H348 0.977 . S
C318 C305 1.684 . S
C318 H343 0.979 . S
C318 H344 0.980 . S
C318 H345 0.983 . S
C319 C320 1.391 . S
C319 C324 1.391 . S
C319 H349 0.948 . S
C320 C319 1.391 . S
C320 C321 1.391 . S
C321 C320 1.391 . S
C321 C322 1.392 . S
C321 H350 0.947 . S
C322 C321 1.392 . S
C322 C323 1.419 . S
C322 H351 0.948 . S
C323 C322 1.419 . S
C323 C324 1.391 . S
C323 C327 1.397 . S
C324 C319 1.391 . S
C324 C323 1.391 . S
C324 C325 1.399 . S
C325 C324 1.399 . S
C325 C326 1.396 . S
C325 C328 1.453 . S
C325 C329 1.684 . S
C326 C307 1.723 . S
C326 C325 1.396 . S
C326 C327 1.394 . S
C327 C323 1.397 . S
C327 C326 1.394 . S
C327 C337 1.723 . S
C328 C325 1.453 . S
C328 H352 0.982 . S
C328 H353 0.979 . S
C328 H354 0.977 . S
C329 C325 1.684 . S
C329 H355 0.979 . S
C329 H356 0.980 . S
C329 H357 0.983 . S
C330 H306 0.948 . S
C330 C331 1.391 . S
C330 C335 1.391 . S
C331 C330 1.391 . S
C331 C332 1.391 . S
C332 H309 0.947 . S
C332 C331 1.391 . S
C332 C333 1.392 . S
C333 H310 0.948 . S
C333 C332 1.392 . S
C333 C334 1.419 . S
C334 C333 1.419 . S
C334 C335 1.391 . S
C334 C338 1.397 . S
C335 C330 1.391 . S
C335 C334 1.391 . S
C335 C336 1.399 . S
C336 C335 1.399 . S
C336 C337 1.396 . S
C336 C339 1.453 . S
C336 C340 1.684 . S
C337 C327 1.723 . S
C337 C336 1.396 . S
C337 C338 1.394 . S
C338 C308 1.723 . S
C338 C334 1.397 . S
C338 C337 1.394 . S
C339 H311 0.982 . S
C339 H315 0.979 . S
C339 H316 0.977 . S
C339 C336 1.453 . S
C340 H312 0.979 . S
C340 H313 0.980 . S
C340 H314 0.983 . S
C340 C336 1.684 . S
H341 C359 0.948 . S
H342 C300 0.948 . S
H343 C318 0.979 . S
H344 C318 0.980 . S
H345 C318 0.983 . S
H346 C317 0.982 . S
H347 C317 0.979 . S
H348 C317 0.977 . S
H349 C319 0.948 . S
H350 C321 0.947 . S
H351 C322 0.948 . S
H352 C328 0.982 . S
H353 C328 0.979 . S
H354 C328 0.977 . S
H355 C329 0.979 . S
H356 C329 0.980 . S
H357 C329 0.983 . S
H358 C302 0.947 . S
C359 C302 1.392 . S
C359 C303 1.419 . S
C359 H341 0.948 . S
C360 C361 1.391 . S
C360 C364 1.391 . S
C360 H402 0.948 . S
C361 C360 1.391 . S
C361 C362 1.391 . S
C362 C361 1.391 . S
C362 H418 0.947 . S
C362 C419 1.392 . S
C363 C364 1.391 . S
C363 C367 1.397 . S
C363 C419 1.419 . S
C364 C360 1.391 . S
C364 C363 1.391 . S
C364 C365 1.399 . S
C365 C364 1.399 . S
C365 C368 1.396 . S
C365 C377 1.453 . S
C365 C378 1.684 . S
H366 C390 0.948 . S
C367 C363 1.397 . S
C367 C368 1.394 . S
C367 C386 1.723 . S
C368 C365 1.396 . S
C368 C367 1.394 . S
C368 C398 1.723 . S
H369 C392 0.947 . S
H370 C393 0.948 . S
H371 C399 0.982 . S
H372 C400 0.979 . S
H373 C400 0.980 . S
H374 C400 0.983 . S
H375 C399 0.979 . S
H376 C399 0.977 . S
C377 C365 1.453 . S
C377 H406 0.982 . S
C377 H407 0.979 . S
C377 H408 0.977 . S
C378 C365 1.684 . S
C378 H403 0.979 . S
C378 H404 0.980 . S
C378 H405 0.983 . S
C379 C380 1.391 . S
C379 C384 1.391 . S
C379 H409 0.948 . S
C380 C379 1.391 . S
C380 C381 1.391 . S
C381 C380 1.391 . S
C381 C382 1.392 . S
C381 H410 0.947 . S
C382 C381 1.392 . S
C382 C383 1.419 . S
C382 H411 0.948 . S
C383 C382 1.419 . S
C383 C384 1.391 . S
C383 C387 1.397 . S
C384 C379 1.391 . S
C384 C383 1.391 . S
C384 C385 1.399 . S
C385 C384 1.399 . S
C385 C386 1.396 . S
C385 C388 1.453 . S
C385 C389 1.684 . S
C386 C367 1.723 . S
C386 C385 1.396 . S
C386 C387 1.394 . S
C387 C383 1.397 . S
C387 C386 1.394 . S
C387 C397 1.723 . S
C388 C385 1.453 . S
C388 H412 0.982 . S
C388 H413 0.979 . S
C388 H414 0.977 . S
C389 C385 1.684 . S
C389 H415 0.979 . S
C389 H416 0.980 . S
C389 H417 0.983 . S
C390 H366 0.948 . S
C390 C391 1.391 . S
C390 C395 1.391 . S
C391 C390 1.391 . S
C391 C392 1.391 . S
C392 H369 0.947 . S
C392 C391 1.391 . S
C392 C393 1.392 . S
C393 H370 0.948 . S
C393 C392 1.392 . S
C393 C394 1.419 . S
C394 C393 1.419 . S
C394 C395 1.391 . S
C394 C398 1.397 . S
C395 C390 1.391 . S
C395 C394 1.391 . S
C395 C396 1.399 . S
C396 C395 1.399 . S
C396 C397 1.396 . S
C396 C399 1.453 . S
C396 C400 1.684 . S
C397 C387 1.723 . S
C397 C396 1.396 . S
C397 C398 1.394 . S
C398 C368 1.723 . S
C398 C394 1.397 . S
C398 C397 1.394 . S
C399 H371 0.982 . S
C399 H375 0.979 . S
C399 H376 0.977 . S
C399 C396 1.453 . S
C400 H372 0.979 . S
C400 H373 0.980 . S
C400 H374 0.983 . S
C400 C396 1.684 . S
H401 C419 0.948 . S
H402 C360 0.948 . S
H403 C378 0.979 . S
H404 C378 0.980 . S
H405 C378 0.983 . S
H406 C377 0.982 . S
H407 C377 0.979 . S
H408 C377 0.977 . S
H409 C379 0.948 . S
H410 C381 0.947 . S
H411 C382 0.948 . S
H412 C388 0.982 . S
H413 C388 0.979 . S
H414 C388 0.977 . S
H415 C389 0.979 . S
H416 C389 0.980 . S
H417 C389 0.983 . S
H418 C362 0.947 . S
C419 C362 1.392 . S
C419 C363 1.419 . S
C419 H401 0.948 . S
C420 C421 1.391 . S
C420 C424 1.391 . S
C420 H462 0.948 . S
C421 C420 1.391 . S
C421 C422 1.391 . S
C422 C421 1.391 . S
C422 H478 0.947 . S
C422 C479 1.392 . S
C423 C424 1.391 . S
C423 C427 1.397 . S
C423 C479 1.419 . S
C424 C420 1.391 . S
C424 C423 1.391 . S
C424 C425 1.399 . S
C425 C424 1.399 . S
C425 C428 1.396 . S
C425 C437 1.453 . S
C425 C438 1.684 . S
H426 C450 0.948 . S
C427 C423 1.397 . S
C427 C428 1.394 . S
C427 C446 1.723 . S
C428 C425 1.396 . S
C428 C427 1.394 . S
C428 C458 1.723 . S
H429 C452 0.947 . S
H430 C453 0.948 . S
H431 C459 0.982 . S
H432 C460 0.979 . S
H433 C460 0.980 . S
H434 C460 0.983 . S
H435 C459 0.979 . S
H436 C459 0.977 . S
C437 C425 1.453 . S
C437 H466 0.982 . S
C437 H467 0.979 . S
C437 H468 0.977 . S
C438 C425 1.684 . S
C438 H463 0.979 . S
C438 H464 0.980 . S
C438 H465 0.983 . S
C439 C440 1.391 . S
C439 C444 1.391 . S
C439 H469 0.948 . S
C440 C439 1.391 . S
C440 C441 1.391 . S
C441 C440 1.391 . S
C441 C442 1.392 . S
C441 H470 0.947 . S
C442 C441 1.392 . S
C442 C443 1.419 . S
C442 H471 0.948 . S
C443 C442 1.419 . S
C443 C444 1.391 . S
C443 C447 1.397 . S
C444 C439 1.391 . S
C444 C443 1.391 . S
C444 C445 1.399 . S
C445 C444 1.399 . S
C445 C446 1.396 . S
C445 C448 1.453 . S
C445 C449 1.684 . S
C446 C427 1.723 . S
C446 C445 1.396 . S
C446 C447 1.394 . S
C447 C443 1.397 . S
C447 C446 1.394 . S
C447 C457 1.723 . S
C448 C445 1.453 . S
C448 H472 0.982 . S
C448 H473 0.979 . S
C448 H474 0.977 . S
C449 C445 1.684 . S
C449 H475 0.979 . S
C449 H476 0.980 . S
C449 H477 0.983 . S
C450 H426 0.948 . S
C450 C451 1.391 . S
C450 C455 1.391 . S
C451 C450 1.391 . S
C451 C452 1.391 . S
C452 H429 0.947 . S
C452 C451 1.391 . S
C452 C453 1.392 . S
C453 H430 0.948 . S
C453 C452 1.392 . S
C453 C454 1.419 . S
C454 C453 1.419 . S
C454 C455 1.391 . S
C454 C458 1.397 . S
C455 C450 1.391 . S
C455 C454 1.391 . S
C455 C456 1.399 . S
C456 C455 1.399 . S
C456 C457 1.396 . S
C456 C459 1.453 . S
C456 C460 1.684 . S
C457 C447 1.723 . S
C457 C456 1.396 . S
C457 C458 1.394 . S
C458 C428 1.723 . S
C458 C454 1.397 . S
C458 C457 1.394 . S
C459 H431 0.982 . S
C459 H435 0.979 . S
C459 H436 0.977 . S
C459 C456 1.453 . S
C460 H432 0.979 . S
C460 H433 0.980 . S
C460 H434 0.983 . S
C460 C456 1.684 . S
H461 C479 0.948 . S
H462 C420 0.948 . S
H463 C438 0.979 . S
H464 C438 0.980 . S
H465 C438 0.983 . S
H466 C437 0.982 . S
H467 C437 0.979 . S
H468 C437 0.977 . S
H469 C439 0.948 . S
H470 C441 0.947 . S
H471 C442 0.948 . S
H472 C448 0.982 . S
H473 C448 0.979 . S
H474 C448 0.977 . S
H475 C449 0.979 . S
H476 C449 0.980 . S
H477 C449 0.983 . S
H478 C422 0.947 . S
C479 C422 1.392 . S
C479 C423 1.419 . S
C479 H461 0.948 . S
O480 Zn481 1.970 . S
O480 C496 1.188 1_655 S
Zn481 O480 1.970 . S
Zn481 O482 1.949 1_655 S
Zn481 O488 1.919 . S
Zn481 O493 1.924 . S
O482 Zn481 1.949 1_455 S
O482 Zn483 1.923 1_445 S
O482 Zn484 1.950 . S
O482 Zn485 1.945 1_545 S
Zn483 O482 1.923 1_665 S
Zn483 O486 1.933 . S
Zn483 O489 1.941 1_565 S
Zn483 O490 1.965 1_665 S
Zn484 O482 1.950 . S
Zn484 O491 1.938 . S
Zn484 O492 1.902 1_545 S
Zn484 O502 1.953 . S
Zn485 O482 1.945 1_565 S
Zn485 O487 1.932 1_455 S
Zn485 O494 1.977 . S
Zn485 O495 1.910 1_455 S
O486 Zn483 1.933 . S
O486 C497 1.226 . S
O487 Zn485 1.932 1_655 S
O487 C497 1.307 . S
O488 Zn481 1.919 . S
O488 C499 1.253 . S
O489 Zn483 1.941 1_545 S
O489 C499 1.283 . S
O490 Zn483 1.965 1_445 S
O490 C498 1.303 . S
O491 Zn484 1.938 . S
O491 C498 1.247 . S
O492 Zn484 1.902 1_565 S
O492 C500 1.311 . S
O493 Zn481 1.924 . S
O493 C501 1.293 1_545 S
O494 Zn485 1.977 . S
O494 C500 1.272 . S
O495 Zn485 1.910 1_655 S
O495 C501 1.251 . S
C496 O480 1.188 1_455 S
C496 O502 1.298 . S
C497 O486 1.226 . S
C497 O487 1.307 . S
C498 O490 1.303 . S
C498 O491 1.247 . S
C499 O488 1.253 . S
C499 O489 1.283 . S
C500 O492 1.311 . S
C500 O494 1.272 . S
C501 O493 1.293 1_565 S
C501 O495 1.251 . S
O502 Zn484 1.953 . S
O502 C496 1.298 . S
O503 Zn504 1.953 . S
O503 C519 1.225 . S
Zn504 O503 1.953 . S
Zn504 O505 1.949 1_556 S
Zn504 O511 1.919 . S
Zn504 O516 1.924 1_556 S
O505 Zn504 1.949 1_554 S
O505 Zn506 1.923 1_545 S
O505 Zn507 1.950 . S
O505 Zn508 1.945 1_545 S
Zn506 O505 1.923 1_565 S
Zn506 O509 1.933 . S
Zn506 O512 1.941 1_554 S
Zn506 O513 1.965 . S
Zn507 O505 1.950 . S
Zn507 O514 1.938 . S
Zn507 O515 1.906 . S
Zn507 O525 1.953 . S
Zn508 O505 1.945 1_565 S
Zn508 O510 1.932 . S
Zn508 O517 1.977 1_565 S
Zn508 O518 1.910 1_565 S
O509 Zn506 1.933 . S
O509 C520 1.226 . S
O510 Zn508 1.932 . S
O510 C520 1.307 . S
O511 Zn504 1.919 . S
O511 C522 1.253 1_545 S
O512 Zn506 1.941 1_556 S
O512 C522 1.283 . S
O513 Zn506 1.965 . S
O513 C521 1.303 . S
O514 Zn507 1.938 . S
O514 C521 1.247 1_545 S
O515 Zn507 1.906 . S
O515 C523 1.304 . S
O516 Zn504 1.924 1_554 S
O516 C524 1.311 . S
O517 Zn508 1.977 1_545 S
O517 C523 1.272 . S
O518 Zn508 1.910 1_545 S
O518 C524 1.231 . S
C519 O503 1.225 . S
C519 O525 1.298 1_556 S
C520 O509 1.226 . S
C520 O510 1.307 . S
C521 O513 1.303 . S
C521 O514 1.247 1_565 S
C522 O511 1.253 1_565 S
C522 O512 1.283 . S
C523 O515 1.304 . S
C523 O517 1.272 . S
C524 O516 1.311 . S
C524 O518 1.231 . S
O525 Zn507 1.953 . S
O525 C519 1.298 1_554 S
O526 Zn527 1.953 . S
O526 C542 1.225 . S
Zn527 O526 1.953 . S
Zn527 O528 1.949 . S
Zn527 O534 1.919 . S
Zn527 O539 1.924 . S
O528 Zn527 1.949 . S
O528 Zn529 1.923 . S
O528 Zn530 1.950 . S
O528 Zn531 1.945 . S
Zn529 O528 1.923 . S
Zn529 O532 1.933 . S
Zn529 O535 1.941 . S
Zn529 O536 1.965 . S
Zn530 O528 1.950 . S
Zn530 O537 1.938 . S
Zn530 O538 1.906 . S
Zn530 O548 1.953 . S
Zn531 O528 1.945 . S
Zn531 O533 1.932 . S
Zn531 O540 1.977 . S
Zn531 O541 1.910 . S
O532 Zn529 1.933 . S
O532 C543 1.226 . S
O533 Zn531 1.932 . S
O533 C543 1.307 . S
O534 Zn527 1.919 . S
O534 C545 1.253 . S
O535 Zn529 1.941 . S
O535 C545 1.283 . S
O536 Zn529 1.965 . S
O536 C544 1.303 . S
O537 Zn530 1.938 . S
O537 C544 1.247 . S
O538 Zn530 1.906 . S
O538 C546 1.304 . S
O539 Zn527 1.924 . S
O539 C547 1.311 . S
O540 Zn531 1.977 . S
O540 C546 1.272 . S
O541 Zn531 1.910 . S
O541 C547 1.231 . S
C542 O526 1.225 . S
C542 O548 1.298 . S
C543 O532 1.226 . S
C543 O533 1.307 . S
C544 O536 1.303 . S
C544 O537 1.247 . S
C545 O534 1.253 . S
C545 O535 1.283 . S
C546 O538 1.304 . S
C546 O540 1.272 . S
C547 O539 1.311 . S
C547 O541 1.231 . S
O548 Zn530 1.953 . S
O548 C542 1.298 . S
O549 Zn550 1.953 . S
O549 C565 1.225 . S
Zn550 O549 1.953 . S
Zn550 O551 1.949 1_655 S
Zn550 O557 1.919 . S
Zn550 O562 1.924 . S
O551 Zn550 1.949 1_455 S
O551 Zn552 1.923 1_454 S
O551 Zn553 1.950 . S
O551 Zn554 1.945 1_554 S
Zn552 O551 1.923 1_656 S
Zn552 O555 1.933 1_655 S
Zn552 O558 1.941 . S
Zn552 O559 1.965 . S
Zn553 O551 1.950 . S
Zn553 O560 1.938 . S
Zn553 O561 1.906 . S
Zn553 O571 1.953 . S
Zn554 O551 1.945 1_556 S
Zn554 O556 1.932 . S
Zn554 O563 1.977 1_556 S
Zn554 O564 1.910 1_556 S
O555 Zn552 1.933 1_455 S
O555 C566 1.226 . S
O556 Zn554 1.932 . S
O556 C566 1.307 . S
O557 Zn550 1.919 . S
O557 C568 1.253 1_554 S
O558 Zn552 1.941 . S
O558 C568 1.283 . S
O559 Zn552 1.965 . S
O559 C567 1.303 . S
O560 Zn553 1.938 . S
O560 C567 1.247 1_454 S
O561 Zn553 1.906 . S
O561 C569 1.304 . S
O562 Zn550 1.924 . S
O562 C570 1.311 1_655 S
O563 Zn554 1.977 1_554 S
O563 C569 1.272 . S
O564 Zn554 1.910 1_554 S
O564 C570 1.231 . S
C565 O549 1.225 . S
C565 O571 1.298 1_655 S
C566 O555 1.226 . S
C566 O556 1.307 . S
C567 O559 1.303 . S
C567 O560 1.247 1_656 S
C568 O557 1.253 1_556 S
C568 O558 1.283 . S
C569 O561 1.304 . S
C569 O563 1.272 . S
C570 O562 1.311 1_455 S
C570 O564 1.231 . S
O571 Zn553 1.953 . S
O571 C565 1.298 1_455 S
C572 C573 1.349 . S
C572 C574 1.327 . S
C572 H597 0.950 . S
C573 C572 1.349 . S
C573 C589 1.349 . S
C574 C572 1.327 . S
C574 C593 1.429 . S
C574 H598 0.950 . S
C575 C592 1.574 . S
C575 C594 1.368 . S
C575 H599 0.949 . S
H576 C580 0.949 . S
C577 C578 1.349 . S
C577 C579 1.327 . S
C577 H600 0.950 . S
C578 C577 1.349 . S
C578 C590 1.349 . S
C579 C577 1.327 . S
C579 C595 1.429 . S
C579 H601 0.950 . S
C580 H576 0.949 . S
C580 C588 1.574 . S
C580 C596 1.368 . S
H581 C589 0.950 . S
H582 C587 0.950 . S
H583 C588 0.949 . S
H584 C590 0.950 . S
H585 C591 0.950 . S
H586 C592 0.949 . S
C587 H582 0.950 . S
C587 C589 1.327 . S
C587 C593 1.429 . S
C588 C580 1.574 . S
C588 H583 0.949 . S
C588 C594 1.368 . S
C589 C573 1.349 . S
C589 H581 0.950 . S
C589 C587 1.327 . S
C590 C578 1.349 . S
C590 H584 0.950 . S
C590 C591 1.327 . S
C591 H585 0.950 . S
C591 C590 1.327 . S
C591 C595 1.429 . S
C592 C575 1.574 . S
C592 H586 0.949 . S
C592 C596 1.368 . S
C593 C574 1.429 . S
C593 C587 1.429 . S
C593 C594 1.523 . S
C594 C575 1.368 . S
C594 C588 1.368 . S
C594 C593 1.523 . S
C595 C579 1.429 . S
C595 C591 1.429 . S
C595 C596 1.523 . S
C596 C580 1.368 . S
C596 C592 1.368 . S
C596 C595 1.523 . S
H597 C572 0.950 . S
H598 C574 0.950 . S
H599 C575 0.949 . S
H600 C577 0.950 . S
H601 C579 0.950 . S
C602 C603 1.349 . S
C602 C604 1.327 . S
C602 H627 0.950 . S
C603 C602 1.349 . S
C603 C619 1.349 . S
C604 C602 1.327 . S
C604 C623 1.429 . S
C604 H628 0.950 . S
C605 C622 1.574 . S
C605 C624 1.368 . S
C605 H629 0.949 . S
H606 C610 0.949 . S
C607 C608 1.349 . S
C607 C609 1.327 . S
C607 H630 0.930 1_565 S
C608 C607 1.349 . S
C608 C620 1.349 . S
C609 C607 1.327 . S
C609 C625 1.429 . S
C609 H631 0.950 . S
C610 H606 0.949 . S
C610 C618 1.574 . S
C610 C626 1.368 . S
H611 C619 0.950 . S
H612 C617 0.950 . S
H613 C618 0.949 . S
H614 C620 0.950 . S
H615 C621 0.950 . S
H616 C622 0.949 . S
C617 H612 0.950 . S
C617 C619 1.327 . S
C617 C623 1.429 . S
C618 C610 1.574 . S
C618 H613 0.949 . S
C618 C624 1.368 . S
C619 C603 1.349 . S
C619 H611 0.950 . S
C619 C617 1.327 . S
C620 C608 1.349 . S
C620 H614 0.950 . S
C620 C621 1.327 . S
C621 H615 0.950 . S
C621 C620 1.327 . S
C621 C625 1.429 . S
C622 C605 1.574 . S
C622 H616 0.949 . S
C622 C626 1.368 . S
C623 C604 1.429 . S
C623 C617 1.429 . S
C623 C624 1.523 . S
C624 C605 1.368 . S
C624 C618 1.368 . S
C624 C623 1.523 . S
C625 C609 1.429 . S
C625 C621 1.429 . S
C625 C626 1.523 . S
C626 C610 1.368 . S
C626 C622 1.368 . S
C626 C625 1.523 . S
H627 C602 0.950 . S
H628 C604 0.950 . S
H629 C605 0.949 . S
H630 C607 0.930 1_545 S
H631 C609 0.950 . S
C632 C633 1.349 . S
C632 C634 1.327 . S
C632 H657 0.950 . S
C633 C632 1.349 . S
C633 C649 1.349 . S
C634 C632 1.327 . S
C634 C653 1.429 . S
C634 H658 0.950 . S
C635 C652 1.574 . S
C635 C654 1.368 . S
C635 H659 0.949 . S
H636 C640 0.949 . S
C637 C638 1.349 . S
C637 C639 1.327 . S
C637 H660 0.950 . S
C638 C637 1.349 . S
C638 C650 1.349 . S
C639 C637 1.327 . S
C639 C655 1.429 . S
C639 H661 0.950 . S
C640 H636 0.949 . S
C640 C648 1.574 . S
C640 C656 1.368 . S
H641 C649 0.950 . S
H642 C647 0.950 . S
H643 C648 0.949 . S
H644 C650 0.950 . S
H645 C651 0.950 . S
H646 C652 0.949 . S
C647 H642 0.950 . S
C647 C649 1.327 . S
C647 C653 1.429 . S
C648 C640 1.574 . S
C648 H643 0.949 . S
C648 C654 1.368 . S
C649 C633 1.349 . S
C649 H641 0.950 . S
C649 C647 1.327 . S
C650 C638 1.349 . S
C650 H644 0.950 . S
C650 C651 1.327 . S
C651 H645 0.950 . S
C651 C650 1.327 . S
C651 C655 1.429 . S
C652 C635 1.574 . S
C652 H646 0.949 . S
C652 C656 1.368 . S
C653 C634 1.429 . S
C653 C647 1.429 . S
C653 C654 1.523 . S
C654 C635 1.368 . S
C654 C648 1.368 . S
C654 C653 1.523 . S
C655 C639 1.429 . S
C655 C651 1.429 . S
C655 C656 1.523 . S
C656 C640 1.368 . S
C656 C652 1.368 . S
C656 C655 1.523 . S
H657 C632 0.950 . S
H658 C634 0.950 . S
H659 C635 0.949 . S
H660 C637 0.950 . S
H661 C639 0.950 . S
C662 C663 1.349 . S
C662 C664 1.327 . S
C662 H687 0.950 . S
C663 C662 1.349 . S
C663 C679 1.349 . S
C664 C662 1.327 . S
C664 C683 1.429 . S
C664 H688 0.950 . S
C665 C682 1.574 . S
C665 C684 1.368 . S
C665 H689 0.949 . S
H666 C670 0.949 . S
C667 C668 1.349 . S
C667 C669 1.327 . S
C667 H690 0.950 . S
C668 C667 1.349 . S
C668 C680 1.349 . S
C669 C667 1.327 . S
C669 C685 1.429 . S
C669 H691 0.950 . S
C670 H666 0.949 . S
C670 C678 1.574 . S
C670 C686 1.368 . S
H671 C679 0.950 . S
H672 C677 0.950 . S
H673 C678 0.949 . S
H674 C680 0.950 1_455 S
H675 C681 0.950 . S
H676 C682 0.949 . S
C677 H672 0.950 . S
C677 C679 1.327 . S
C677 C683 1.429 . S
C678 C670 1.574 . S
C678 H673 0.949 . S
C678 C684 1.368 . S
C679 C663 1.349 . S
C679 H671 0.950 . S
C679 C677 1.327 . S
C680 C668 1.349 . S
C680 H674 0.950 1_655 S
C680 C681 1.327 . S
C681 H675 0.950 . S
C681 C680 1.327 . S
C681 C685 1.429 . S
C682 C665 1.574 . S
C682 H676 0.949 . S
C682 C686 1.368 . S
C683 C664 1.429 . S
C683 C677 1.429 . S
C683 C684 1.523 . S
C684 C665 1.368 . S
C684 C678 1.368 . S
C684 C683 1.523 . S
C685 C669 1.429 . S
C685 C681 1.429 . S
C685 C686 1.523 . S
C686 C670 1.368 . S
C686 C682 1.368 . S
C686 C685 1.523 . S
H687 C662 0.950 . S
H688 C664 0.950 . S
H689 C665 0.949 . S
H690 C667 0.950 . S
H691 C669 0.950 . S
C692 C693 1.349 . S
C692 C694 1.327 . S
C692 H717 0.950 . S
C693 C692 1.349 . S
C693 C709 1.349 . S
C694 C692 1.327 . S
C694 C713 1.429 . S
C694 H718 0.950 . S
C695 C712 1.574 . S
C695 C714 1.368 . S
C695 H719 0.949 . S
H696 C700 0.949 . S
C697 C698 1.349 . S
C697 C699 1.327 . S
C697 H720 0.950 . S
C698 C697 1.349 . S
C698 C710 1.349 . S
C699 C697 1.327 . S
C699 C715 1.429 . S
C699 H721 0.950 . S
C700 H696 0.949 . S
C700 C708 1.574 . S
C700 C716 1.368 . S
H701 C709 0.950 . S
H702 C707 0.950 . S
H703 C708 0.949 . S
H704 C710 0.950 . S
H705 C711 0.950 . S
H706 C712 0.949 . S
C707 H702 0.950 . S
C707 C709 1.327 . S
C707 C713 1.429 . S
C708 C700 1.574 . S
C708 H703 0.949 . S
C708 C714 1.368 . S
C709 C693 1.349 . S
C709 H701 0.950 . S
C709 C707 1.327 . S
C710 C698 1.349 . S
C710 H704 0.950 . S
C710 C711 1.327 . S
C711 H705 0.950 . S
C711 C710 1.327 . S
C711 C715 1.429 . S
C712 C695 1.574 . S
C712 H706 0.949 . S
C712 C716 1.368 . S
C713 C694 1.429 . S
C713 C707 1.429 . S
C713 C714 1.523 . S
C714 C695 1.368 . S
C714 C708 1.368 . S
C714 C713 1.523 . S
C715 C699 1.429 . S
C715 C711 1.429 . S
C715 C716 1.523 . S
C716 C700 1.368 . S
C716 C712 1.368 . S
C716 C715 1.523 . S
H717 C692 0.950 . S
H718 C694 0.950 . S
H719 C695 0.949 . S
H720 C697 0.950 . S
H721 C699 0.950 . S
C722 C723 1.349 . S
C722 C724 1.327 . S
C722 H747 0.950 . S
C723 C722 1.349 . S
C723 C739 1.349 . S
C724 C722 1.327 . S
C724 C743 1.429 . S
C724 H748 0.950 . S
C725 C742 1.574 . S
C725 C744 1.368 . S
C725 H749 0.949 . S
H726 C730 0.949 . S
C727 C728 1.349 . S
C727 C729 1.327 . S
C727 H750 0.950 . S
C728 C727 1.349 . S
C728 C740 1.349 . S
C729 C727 1.327 . S
C729 C745 1.429 . S
C729 H751 0.950 . S
C730 H726 0.949 . S
C730 C738 1.574 . S
C730 C746 1.368 . S
H731 C739 0.950 . S
H732 C737 0.950 . S
H733 C738 0.949 . S
H734 C740 0.950 . S
H735 C741 0.950 . S
H736 C742 0.949 . S
C737 H732 0.950 . S
C737 C739 1.327 . S
C737 C743 1.429 . S
C738 C730 1.574 . S
C738 H733 0.949 . S
C738 C744 1.368 . S
C739 C723 1.349 . S
C739 H731 0.950 . S
C739 C737 1.327 . S
C740 C728 1.349 . S
C740 H734 0.950 . S
C740 C741 1.327 . S
C741 H735 0.950 . S
C741 C740 1.327 . S
C741 C745 1.429 . S
C742 C725 1.574 . S
C742 H736 0.949 . S
C742 C746 1.368 . S
C743 C724 1.429 . S
C743 C737 1.429 . S
C743 C744 1.523 . S
C744 C725 1.368 . S
C744 C738 1.368 . S
C744 C743 1.523 . S
C745 C729 1.429 . S
C745 C741 1.429 . S
C745 C746 1.523 . S
C746 C730 1.368 . S
C746 C742 1.368 . S
C746 C745 1.523 . S
H747 C722 0.950 . S
H748 C724 0.950 . S
H749 C725 0.949 . S
H750 C727 0.950 . S
H751 C729 0.950 . S
C752 C753 1.349 . S
C752 C754 1.327 . S
C752 H777 0.950 . S
C753 C752 1.349 . S
C753 C769 1.349 . S
C754 C752 1.327 . S
C754 C773 1.429 . S
C754 H778 0.950 . S
C755 C772 1.574 . S
C755 C774 1.368 . S
C755 H779 0.949 . S
H756 C760 0.949 . S
C757 C758 1.349 . S
C757 C759 1.327 . S
C757 H780 0.950 . S
C758 C757 1.349 . S
C758 C770 1.349 . S
C759 C757 1.327 . S
C759 C775 1.429 . S
C759 H781 0.950 . S
C760 H756 0.949 . S
C760 C768 1.574 . S
C760 C776 1.368 . S
H761 C769 0.950 . S
H762 C767 0.950 . S
H763 C768 0.949 . S
H764 C770 0.950 . S
H765 C771 0.950 . S
H766 C772 0.949 . S
C767 H762 0.950 . S
C767 C769 1.327 . S
C767 C773 1.429 . S
C768 C760 1.574 . S
C768 H763 0.949 . S
C768 C774 1.368 . S
C769 C753 1.349 . S
C769 H761 0.950 . S
C769 C767 1.327 . S
C770 C758 1.349 . S
C770 H764 0.950 . S
C770 C771 1.327 . S
C771 H765 0.950 . S
C771 C770 1.327 . S
C771 C775 1.429 . S
C772 C755 1.574 . S
C772 H766 0.949 . S
C772 C776 1.368 . S
C773 C754 1.429 . S
C773 C767 1.429 . S
C773 C774 1.523 . S
C774 C755 1.368 . S
C774 C768 1.368 . S
C774 C773 1.523 . S
C775 C759 1.429 . S
C775 C771 1.429 . S
C775 C776 1.523 . S
C776 C760 1.368 . S
C776 C772 1.368 . S
C776 C775 1.523 . S
H777 C752 0.950 . S
H778 C754 0.950 . S
H779 C755 0.949 . S
H780 C757 0.950 . S
H781 C759 0.950 . S
C782 C783 1.349 . S
C782 C784 1.327 . S
C782 H807 0.950 . S
C783 C782 1.349 . S
C783 C799 1.349 . S
C784 C782 1.327 . S
C784 C803 1.429 . S
C784 H808 0.950 . S
C785 C802 1.574 . S
C785 C804 1.368 . S
C785 H809 0.949 . S
H786 C790 0.949 . S
C787 C788 1.349 . S
C787 C789 1.327 . S
C787 H810 0.950 . S
C788 C787 1.349 . S
C788 C800 1.349 . S
C789 C787 1.327 . S
C789 C805 1.429 . S
C789 H811 0.950 . S
C790 H786 0.949 . S
C790 C798 1.574 . S
C790 C806 1.368 . S
H791 C799 0.950 . S
H792 C797 0.950 . S
H793 C798 0.949 . S
H794 C800 0.950 . S
H795 C801 0.950 . S
H796 C802 0.949 . S
C797 H792 0.950 . S
C797 C799 1.327 . S
C797 C803 1.429 . S
C798 C790 1.574 . S
C798 H793 0.949 . S
C798 C804 1.368 . S
C799 C783 1.349 . S
C799 H791 0.950 . S
C799 C797 1.327 . S
C800 C788 1.349 . S
C800 H794 0.950 . S
C800 C801 1.327 . S
C801 H795 0.950 . S
C801 C800 1.327 . S
C801 C805 1.429 . S
C802 C785 1.574 . S
C802 H796 0.949 . S
C802 C806 1.368 . S
C803 C784 1.429 . S
C803 C797 1.429 . S
C803 C804 1.523 . S
C804 C785 1.368 . S
C804 C798 1.368 . S
C804 C803 1.523 . S
C805 C789 1.429 . S
C805 C801 1.429 . S
C805 C806 1.523 . S
C806 C790 1.368 . S
C806 C802 1.368 . S
C806 C805 1.523 . S
H807 C782 0.950 . S
H808 C784 0.950 . S
H809 C785 0.949 . S
H810 C787 0.950 . S
H811 C789 0.950 . S
C812 C813 1.349 . S
C812 C814 1.327 . S
C812 H837 0.950 . S
C813 C812 1.349 . S
C813 C829 1.349 . S
C814 C812 1.327 . S
C814 C833 1.429 . S
C814 H838 0.950 . S
C815 C832 1.574 . S
C815 C834 1.368 . S
C815 H839 0.949 . S
H816 C820 0.949 . S
C817 C818 1.349 . S
C817 C819 1.327 . S
C817 H840 0.950 . S
C818 C817 1.349 . S
C818 C830 1.349 . S
C819 C817 1.327 . S
C819 C835 1.429 . S
C819 H841 0.950 . S
C820 H816 0.949 . S
C820 C828 1.574 . S
C820 C836 1.368 . S
H821 C829 0.950 . S
H822 C827 0.950 . S
H823 C828 0.949 . S
H824 C830 0.950 1_655 S
H825 C831 0.950 . S
H826 C832 0.949 . S
C827 H822 0.950 . S
C827 C829 1.327 . S
C827 C833 1.429 . S
C828 C820 1.574 . S
C828 H823 0.949 . S
C828 C834 1.368 . S
C829 C813 1.349 . S
C829 H821 0.950 . S
C829 C827 1.327 . S
C830 C818 1.349 . S
C830 H824 0.950 1_455 S
C830 C831 1.327 . S
C831 H825 0.950 . S
C831 C830 1.327 . S
C831 C835 1.429 . S
C832 C815 1.574 . S
C832 H826 0.949 . S
C832 C836 1.368 . S
C833 C814 1.429 . S
C833 C827 1.429 . S
C833 C834 1.523 . S
C834 C815 1.368 . S
C834 C828 1.368 . S
C834 C833 1.523 . S
C835 C819 1.429 . S
C835 C831 1.429 . S
C835 C836 1.523 . S
C836 C820 1.368 . S
C836 C832 1.368 . S
C836 C835 1.523 . S
H837 C812 0.950 . S
H838 C814 0.950 . S
H839 C815 0.949 . S
H840 C817 0.950 . S
H841 C819 0.950 . S
C842 C843 1.349 . S
C842 C844 1.327 . S
C842 H867 0.950 . S
C843 C842 1.349 . S
C843 C859 1.349 . S
C844 C842 1.327 . S
C844 C863 1.429 . S
C844 H868 0.950 . S
C845 C862 1.574 . S
C845 C864 1.368 . S
C845 H869 0.949 . S
H846 C850 0.949 . S
C847 C848 1.349 1_554 S
C847 C849 1.327 1_554 S
C847 H870 0.950 . S
C848 C847 1.349 1_556 S
C848 C860 1.349 . S
C849 C847 1.327 1_556 S
C849 C865 1.429 . S
C849 H871 0.950 1_556 S
C850 H846 0.949 . S
C850 C858 1.574 . S
C850 C866 1.368 . S
H851 C859 0.950 . S
H852 C857 0.950 . S
H853 C858 0.949 . S
H854 C860 0.950 . S
H855 C861 0.950 . S
H856 C862 0.949 . S
C857 H852 0.950 . S
C857 C859 1.327 . S
C857 C863 1.429 . S
C858 C850 1.574 . S
C858 H853 0.949 . S
C858 C864 1.368 . S
C859 C843 1.349 . S
C859 H851 0.950 . S
C859 C857 1.327 . S
C860 C848 1.349 . S
C860 H854 0.950 . S
C860 C861 1.327 . S
C861 H855 0.950 . S
C861 C860 1.327 . S
C861 C865 1.429 . S
C862 C845 1.574 . S
C862 H856 0.949 . S
C862 C866 1.368 . S
C863 C844 1.429 . S
C863 C857 1.429 . S
C863 C864 1.523 . S
C864 C845 1.368 . S
C864 C858 1.368 . S
C864 C863 1.523 . S
C865 C849 1.429 . S
C865 C861 1.429 . S
C865 C866 1.523 . S
C866 C850 1.368 . S
C866 C862 1.368 . S
C866 C865 1.523 . S
H867 C842 0.950 . S
H868 C844 0.950 . S
H869 C845 0.949 . S
H870 C847 0.950 . S
H871 C849 0.950 1_554 S
C872 C873 1.349 . S
C872 C874 1.327 . S
C872 H897 0.950 . S
C873 C872 1.349 . S
C873 C889 1.349 . S
C874 C872 1.327 . S
C874 C893 1.429 . S
C874 H898 0.950 . S
C875 C892 1.574 . S
C875 C894 1.368 . S
C875 H899 0.949 . S
H876 C880 0.949 . S
C877 C878 1.349 . S
C877 C879 1.327 . S
C877 H900 0.950 . S
C878 C877 1.349 . S
C878 C890 1.349 . S
C879 C877 1.327 . S
C879 C895 1.429 . S
C879 H901 0.950 . S
C880 H876 0.949 . S
C880 C888 1.574 . S
C880 C896 1.368 . S
H881 C889 0.950 . S
H882 C887 0.950 . S
H883 C888 0.949 . S
H884 C890 0.950 1_455 S
H885 C891 0.950 . S
H886 C892 0.949 . S
C887 H882 0.950 . S
C887 C889 1.327 . S
C887 C893 1.429 . S
C888 C880 1.574 . S
C888 H883 0.949 . S
C888 C894 1.368 . S
C889 C873 1.349 . S
C889 H881 0.950 . S
C889 C887 1.327 . S
C890 C878 1.349 . S
C890 H884 0.950 1_655 S
C890 C891 1.327 . S
C891 H885 0.950 . S
C891 C890 1.327 . S
C891 C895 1.429 . S
C892 C875 1.574 . S
C892 H886 0.949 . S
C892 C896 1.368 . S
C893 C874 1.429 . S
C893 C887 1.429 . S
C893 C894 1.523 . S
C894 C875 1.368 . S
C894 C888 1.368 . S
C894 C893 1.523 . S
C895 C879 1.429 . S
C895 C891 1.429 . S
C895 C896 1.523 . S
C896 C880 1.368 . S
C896 C892 1.368 . S
C896 C895 1.523 . S
H897 C872 0.950 . S
H898 C874 0.950 . S
H899 C875 0.949 . S
H900 C877 0.950 . S
H901 C879 0.950 . S
C902 C903 1.349 . S
C902 C904 1.327 . S
C902 H927 0.950 . S
C903 C902 1.349 . S
C903 C919 1.349 . S
C904 C902 1.327 . S
C904 C923 1.429 . S
C904 H928 0.950 . S
C905 C922 1.574 . S
C905 C924 1.368 . S
C905 H929 0.949 . S
H906 C910 0.949 . S
C907 C908 1.349 . S
C907 C909 1.327 . S
C907 H930 0.950 . S
C908 C907 1.349 . S
C908 C920 1.349 . S
C909 C907 1.327 . S
C909 C925 1.429 . S
C909 H931 0.950 . S
C910 H906 0.949 . S
C910 C918 1.574 . S
C910 C926 1.368 . S
H911 C919 0.950 . S
H912 C917 0.950 . S
H913 C918 0.949 . S
H914 C920 0.950 . S
H915 C921 0.950 . S
H916 C922 0.949 . S
C917 H912 0.950 . S
C917 C919 1.327 . S
C917 C923 1.429 . S
C918 C910 1.574 . S
C918 H913 0.949 . S
C918 C924 1.368 . S
C919 C903 1.349 . S
C919 H911 0.950 . S
C919 C917 1.327 . S
C920 C908 1.349 . S
C920 H914 0.950 . S
C920 C921 1.327 . S
C921 H915 0.950 . S
C921 C920 1.327 . S
C921 C925 1.429 . S
C922 C905 1.574 . S
C922 H916 0.949 . S
C922 C926 1.368 . S
C923 C904 1.429 . S
C923 C917 1.429 . S
C923 C924 1.523 . S
C924 C905 1.368 . S
C924 C918 1.368 . S
C924 C923 1.523 . S
C925 C909 1.429 . S
C925 C921 1.429 . S
C925 C926 1.523 . S
C926 C910 1.368 . S
C926 C922 1.368 . S
C926 C925 1.523 . S
H927 C902 0.950 . S
H928 C904 0.950 . S
H929 C905 0.949 . S
H930 C907 0.950 . S
H931 C909 0.950 . S
C932 C933 1.349 . S
C932 C934 1.327 . S
C932 H957 0.950 1_565 S
C933 C932 1.349 . S
C933 C949 1.349 . S
C934 C932 1.327 . S
C934 C953 1.429 . S
C934 H958 0.950 1_565 S
C935 C952 1.574 . S
C935 C954 1.368 . S
C935 H959 0.949 . S
H936 C940 0.949 . S
C937 C938 1.378 . S
C937 C939 1.327 . S
C937 H960 0.950 . S
C938 C937 1.378 . S
C938 C950 1.325 1_565 S
C939 C937 1.327 . S
C939 C955 1.429 . S
C939 H961 0.950 . S
C940 H936 0.949 . S
C940 C948 1.574 . S
C940 C956 1.368 1_545 S
H941 C949 0.950 . S
H942 C947 0.950 . S
H943 C948 0.949 . S
H944 C950 0.950 1_455 S
H945 C951 0.950 . S
H946 C952 0.949 . S
C947 H942 0.950 . S
C947 C949 1.327 . S
C947 C953 1.429 . S
C948 C940 1.574 . S
C948 H943 0.949 . S
C948 C954 1.368 1_545 S
C949 C933 1.349 . S
C949 H941 0.950 . S
C949 C947 1.327 . S
C950 C938 1.325 1_545 S
C950 H944 0.950 1_655 S
C950 C951 1.327 . S
C951 H945 0.950 . S
C951 C950 1.327 . S
C951 C955 1.429 1_545 S
C952 C935 1.574 . S
C952 H946 0.949 . S
C952 C956 1.368 . S
C953 C934 1.429 . S
C953 C947 1.429 . S
C953 C954 1.523 . S
C954 C935 1.368 . S
C954 C948 1.368 1_565 S
C954 C953 1.523 . S
C955 C939 1.429 . S
C955 C951 1.429 1_565 S
C955 C956 1.523 . S
C956 C940 1.368 1_565 S
C956 C952 1.368 . S
C956 C955 1.523 . S
H957 C932 0.950 1_545 S
H958 C934 0.950 1_545 S
H959 C935 0.949 . S
H960 C937 0.950 . S
H961 C939 0.950 . S
C962 C963 1.349 . S
C962 C964 1.327 . S
C962 H987 0.950 . S
C963 C962 1.349 . S
C963 C979 1.349 . S
C964 C962 1.327 . S
C964 C983 1.429 . S
C964 H988 0.950 . S
C965 C982 1.574 . S
C965 C984 1.368 . S
C965 H989 0.949 . S
H966 C970 0.949 1_565 S
C967 C968 1.349 . S
C967 C969 1.327 . S
C967 H990 0.950 . S
C968 C967 1.349 . S
C968 C980 1.349 1_545 S
C969 C967 1.327 . S
C969 C985 1.429 . S
C969 H991 0.950 . S
C970 H966 0.949 1_545 S
C970 C978 1.574 . S
C970 C986 1.368 . S
H971 C979 0.950 . S
H972 C977 0.950 . S
H973 C978 0.930 1_565 S
H974 C980 0.950 . S
H975 C981 0.936 1_565 S
H976 C982 0.949 . S
C977 H972 0.950 . S
C977 C979 1.327 . S
C977 C983 1.429 . S
C978 C970 1.574 . S
C978 H973 0.930 1_545 S
C978 C984 1.368 . S
C979 C963 1.349 . S
C979 H971 0.950 . S
C979 C977 1.327 . S
C980 C968 1.349 1_565 S
C980 H974 0.950 . S
C980 C981 1.325 1_565 S
C981 H975 0.936 1_545 S
C981 C980 1.325 1_545 S
C981 C985 1.444 . S
C982 C965 1.574 . S
C982 H976 0.949 . S
C982 C986 1.368 . S
C983 C964 1.429 . S
C983 C977 1.429 . S
C983 C984 1.523 . S
C984 C965 1.368 . S
C984 C978 1.368 . S
C984 C983 1.523 . S
C985 C969 1.429 . S
C985 C981 1.444 . S
C985 C986 1.523 . S
C986 C970 1.368 . S
C986 C982 1.368 . S
C986 C985 1.523 . S
H987 C962 0.950 . S
H988 C964 0.950 . S
H989 C965 0.949 . S
H990 C967 0.950 . S
H991 C969 0.950 . S
C992 C993 1.349 . S
C992 C994 1.327 . S
C992 H1017 0.950 . S
C993 C992 1.349 . S
C993 C1009 1.349 . S
C994 C992 1.327 . S
C994 C1013 1.429 . S
C994 H1018 0.950 . S
C995 C1012 1.574 . S
C995 C1014 1.368 . S
C995 H1019 0.949 . S
H996 C1000 0.949 . S
C997 C998 1.349 . S
C997 C999 1.327 . S
C997 H1020 0.950 . S
C998 C997 1.349 . S
C998 C1010 1.349 . S
C999 C997 1.327 . S
C999 C1015 1.429 . S
C999 H1021 0.950 . S
C1000 H996 0.949 . S
C1000 C1008 1.574 . S
C1000 C1016 1.368 . S
H1001 C1009 0.950 . S
H1002 C1007 0.950 . S
H1003 C1008 0.949 . S
H1004 C1010 0.950 . S
H1005 C1011 0.950 . S
H1006 C1012 0.949 . S
C1007 H1002 0.950 . S
C1007 C1009 1.327 . S
C1007 C1013 1.429 . S
C1008 C1000 1.574 . S
C1008 H1003 0.949 . S
C1008 C1014 1.368 . S
C1009 C993 1.349 . S
C1009 H1001 0.950 . S
C1009 C1007 1.327 . S
C1010 C998 1.349 . S
C1010 H1004 0.950 . S
C1010 C1011 1.327 . S
C1011 H1005 0.950 . S
C1011 C1010 1.327 . S
C1011 C1015 1.429 . S
C1012 C995 1.574 . S
C1012 H1006 0.949 . S
C1012 C1016 1.368 . S
C1013 C994 1.429 . S
C1013 C1007 1.429 . S
C1013 C1014 1.523 . S
C1014 C995 1.368 . S
C1014 C1008 1.368 . S
C1014 C1013 1.523 . S
C1015 C999 1.429 . S
C1015 C1011 1.429 . S
C1015 C1016 1.523 . S
C1016 C1000 1.368 . S
C1016 C1012 1.368 . S
C1016 C1015 1.523 . S
H1017 C992 0.950 . S
H1018 C994 0.950 . S
H1019 C995 0.949 . S
H1020 C997 0.950 . S
H1021 C999 0.950 . S
C1022 C1023 1.349 . S
C1022 C1024 1.327 . S
C1022 H1047 0.950 . S
C1023 C1022 1.349 . S
C1023 C1039 1.349 . S
C1024 C1022 1.327 . S
C1024 C1043 1.429 . S
C1024 H1048 0.950 . S
C1025 C1042 1.574 . S
C1025 C1044 1.368 . S
C1025 H1049 0.949 . S
H1026 C1030 0.949 . S
C1027 C1028 1.349 . S
C1027 C1029 1.327 . S
C1027 H1050 0.950 . S
C1028 C1027 1.349 . S
C1028 C1040 1.349 . S
C1029 C1027 1.327 . S
C1029 C1045 1.429 . S
C1029 H1051 0.950 . S
C1030 H1026 0.949 . S
C1030 C1038 1.574 . S
C1030 C1046 1.368 . S
H1031 C1039 0.950 . S
H1032 C1037 0.950 . S
H1033 C1038 0.949 . S
H1034 C1040 0.950 . S
H1035 C1041 0.950 . S
H1036 C1042 0.949 . S
C1037 H1032 0.950 . S
C1037 C1039 1.327 . S
C1037 C1043 1.429 . S
C1038 C1030 1.574 . S
C1038 H1033 0.949 . S
C1038 C1044 1.368 . S
C1039 C1023 1.349 . S
C1039 H1031 0.950 . S
C1039 C1037 1.327 . S
C1040 C1028 1.349 . S
C1040 H1034 0.950 . S
C1040 C1041 1.327 . S
C1041 H1035 0.950 . S
C1041 C1040 1.327 . S
C1041 C1045 1.429 . S
C1042 C1025 1.574 . S
C1042 H1036 0.949 . S
C1042 C1046 1.368 . S
C1043 C1024 1.429 . S
C1043 C1037 1.429 . S
C1043 C1044 1.523 . S
C1044 C1025 1.368 . S
C1044 C1038 1.368 . S
C1044 C1043 1.523 . S
C1045 C1029 1.429 . S
C1045 C1041 1.429 . S
C1045 C1046 1.523 . S
C1046 C1030 1.368 . S
C1046 C1042 1.368 . S
C1046 C1045 1.523 . S
H1047 C1022 0.950 . S
H1048 C1024 0.950 . S
H1049 C1025 0.949 . S
H1050 C1027 0.950 . S
H1051 C1029 0.950 . S
C1052 C1053 1.349 . S
C1052 C1054 1.327 . S
C1052 H1077 0.950 . S
C1053 C1052 1.349 . S
C1053 C1069 1.349 . S
C1054 C1052 1.327 . S
C1054 C1073 1.429 . S
C1054 H1078 0.950 . S
C1055 C1072 1.577 . S
C1055 C1074 1.368 . S
C1055 H1079 0.949 1_556 S
H1056 C1060 0.949 1_545 S
C1057 C1058 1.349 1_554 S
C1057 C1059 1.327 . S
C1057 H1080 0.950 . S
C1058 C1057 1.349 1_556 S
C1058 C1070 1.349 1_565 S
C1059 C1057 1.327 . S
C1059 C1075 1.429 1_554 S
C1059 H1081 0.950 . S
C1060 H1056 0.949 1_565 S
C1060 C1068 1.574 . S
C1060 C1076 1.368 . S
H1061 C1069 0.950 . S
H1062 C1067 0.950 1_554 S
H1063 C1068 0.949 . S
H1064 C1070 0.950 . S
H1065 C1071 0.949 . S
H1066 C1072 0.932 1_554 S
C1067 H1062 0.950 1_556 S
C1067 C1069 1.327 . S
C1067 C1073 1.429 . S
C1068 C1060 1.574 . S
C1068 H1063 0.949 . S
C1068 C1074 1.368 . S
C1069 C1053 1.349 . S
C1069 H1061 0.950 . S
C1069 C1067 1.327 . S
C1070 C1058 1.349 1_545 S
C1070 H1064 0.950 . S
C1070 C1071 1.327 . S
C1071 H1065 0.949 . S
C1071 C1070 1.327 . S
C1071 C1075 1.429 1_545 S
C1072 C1055 1.577 . S
C1072 H1066 0.932 1_556 S
C1072 C1076 1.384 . S
C1073 C1054 1.429 . S
C1073 C1067 1.429 . S
C1073 C1074 1.523 . S
C1074 C1055 1.368 . S
C1074 C1068 1.368 . S
C1074 C1073 1.523 . S
C1075 C1059 1.429 1_556 S
C1075 C1071 1.429 1_565 S
C1075 C1076 1.523 . S
C1076 C1060 1.368 . S
C1076 C1072 1.384 . S
C1076 C1075 1.523 . S
H1077 C1052 0.950 . S
H1078 C1054 0.950 . S
H1079 C1055 0.949 1_554 S
H1080 C1057 0.950 . S
H1081 C1059 0.950 . S
C1082 C1083 1.349 . S
C1082 C1084 1.327 . S
C1082 H1107 0.950 . S
C1083 C1082 1.349 . S
C1083 C1099 1.349 . S
C1084 C1082 1.327 . S
C1084 C1103 1.429 . S
C1084 H1108 0.950 . S
C1085 C1102 1.574 . S
C1085 C1104 1.368 . S
C1085 H1109 0.949 . S
H1086 C1090 0.949 . S
C1087 C1088 1.349 . S
C1087 C1089 1.327 . S
C1087 H1110 0.960 . S
C1088 C1087 1.349 . S
C1088 C1100 1.349 . S
C1089 C1087 1.327 . S
C1089 C1105 1.429 . S
C1089 H1111 0.950 . S
C1090 H1086 0.949 . S
C1090 C1098 1.574 . S
C1090 C1106 1.368 . S
H1091 C1099 0.950 . S
H1092 C1097 0.950 . S
H1093 C1098 0.949 . S
H1094 C1100 0.950 . S
H1095 C1101 0.950 . S
H1096 C1102 0.949 . S
C1097 H1092 0.950 . S
C1097 C1099 1.327 . S
C1097 C1103 1.429 . S
C1098 C1090 1.574 . S
C1098 H1093 0.949 . S
C1098 C1104 1.368 . S
C1099 C1083 1.349 . S
C1099 H1091 0.950 . S
C1099 C1097 1.327 . S
C1100 C1088 1.349 . S
C1100 H1094 0.950 . S
C1100 C1101 1.327 . S
C1101 H1095 0.950 . S
C1101 C1100 1.327 . S
C1101 C1105 1.429 . S
C1102 C1085 1.574 . S
C1102 H1096 0.949 . S
C1102 C1106 1.368 . S
C1103 C1084 1.429 . S
C1103 C1097 1.429 . S
C1103 C1104 1.523 . S
C1104 C1085 1.368 . S
C1104 C1098 1.368 . S
C1104 C1103 1.523 . S
C1105 C1089 1.429 . S
C1105 C1101 1.429 . S
C1105 C1106 1.523 . S
C1106 C1090 1.368 . S
C1106 C1102 1.368 . S
C1106 C1105 1.523 . S
H1107 C1082 0.950 . S
H1108 C1084 0.950 . S
H1109 C1085 0.949 . S
H1110 C1087 0.960 . S
H1111 C1089 0.950 . S
C1112 C1113 1.349 . S
C1112 C1114 1.327 . S
C1112 H1137 0.950 . S
C1113 C1112 1.349 . S
C1113 C1129 1.349 . S
C1114 C1112 1.327 . S
C1114 C1133 1.429 . S
C1114 H1138 0.950 . S
C1115 C1132 1.574 . S
C1115 C1134 1.368 . S
C1115 H1139 0.949 . S
H1116 C1120 0.949 . S
C1117 C1118 1.349 1_556 S
C1117 C1119 1.333 . S
C1117 H1140 0.950 . S
C1118 C1117 1.349 1_554 S
C1118 C1130 1.349 . S
C1119 C1117 1.333 . S
C1119 C1135 1.406 1_556 S
C1119 H1141 0.967 . S
C1120 H1116 0.949 . S
C1120 C1128 1.574 . S
C1120 C1136 1.368 . S
H1121 C1129 0.950 . S
H1122 C1127 0.950 . S
H1123 C1128 0.949 . S
H1124 C1130 0.950 . S
H1125 C1131 0.950 . S
H1126 C1132 0.949 1_556 S
C1127 H1122 0.950 . S
C1127 C1129 1.327 . S
C1127 C1133 1.429 . S
C1128 C1120 1.574 . S
C1128 H1123 0.949 . S
C1128 C1134 1.368 . S
C1129 C1113 1.349 . S
C1129 H1121 0.950 . S
C1129 C1127 1.327 . S
C1130 C1118 1.349 . S
C1130 H1124 0.950 . S
C1130 C1131 1.327 . S
C1131 H1125 0.950 . S
C1131 C1130 1.327 . S
C1131 C1135 1.429 . S
C1132 C1115 1.574 . S
C1132 H1126 0.949 1_554 S
C1132 C1136 1.368 . S
C1133 C1114 1.429 . S
C1133 C1127 1.429 . S
C1133 C1134 1.523 . S
C1134 C1115 1.368 . S
C1134 C1128 1.368 . S
C1134 C1133 1.523 . S
C1135 C1119 1.406 1_554 S
C1135 C1131 1.429 . S
C1135 C1136 1.523 . S
C1136 C1120 1.368 . S
C1136 C1132 1.368 . S
C1136 C1135 1.523 . S
H1137 C1112 0.950 . S
H1138 C1114 0.950 . S
H1139 C1115 0.949 . S
H1140 C1117 0.950 . S
H1141 C1119 0.967 . S
C1142 C1143 1.349 . S
C1142 C1144 1.327 . S
C1142 H1167 0.950 . S
C1143 C1142 1.349 . S
C1143 C1159 1.349 . S
C1144 C1142 1.327 . S
C1144 C1163 1.429 . S
C1144 H1168 0.950 . S
C1145 C1162 1.574 . S
C1145 C1164 1.368 . S
C1145 H1169 0.949 . S
H1146 C1150 0.949 . S
C1147 C1148 1.349 . S
C1147 C1149 1.327 . S
C1147 H1170 0.950 . S
C1148 C1147 1.349 . S
C1148 C1160 1.349 . S
C1149 C1147 1.327 . S
C1149 C1165 1.429 . S
C1149 H1171 0.950 . S
C1150 H1146 0.949 . S
C1150 C1158 1.574 . S
C1150 C1166 1.368 . S
H1151 C1159 0.950 . S
H1152 C1157 0.950 . S
H1153 C1158 0.949 . S
H1154 C1160 0.950 . S
H1155 C1161 0.950 . S
H1156 C1162 0.949 . S
C1157 H1152 0.950 . S
C1157 C1159 1.327 . S
C1157 C1163 1.429 . S
C1158 C1150 1.574 . S
C1158 H1153 0.949 . S
C1158 C1164 1.368 . S
C1159 C1143 1.349 . S
C1159 H1151 0.950 . S
C1159 C1157 1.327 . S
C1160 C1148 1.349 . S
C1160 H1154 0.950 . S
C1160 C1161 1.327 . S
C1161 H1155 0.950 . S
C1161 C1160 1.327 . S
C1161 C1165 1.429 . S
C1162 C1145 1.574 . S
C1162 H1156 0.949 . S
C1162 C1166 1.368 . S
C1163 C1144 1.429 . S
C1163 C1157 1.429 . S
C1163 C1164 1.523 . S
C1164 C1145 1.368 . S
C1164 C1158 1.368 . S
C1164 C1163 1.523 . S
C1165 C1149 1.429 . S
C1165 C1161 1.429 . S
C1165 C1166 1.523 . S
C1166 C1150 1.368 . S
C1166 C1162 1.368 . S
C1166 C1165 1.523 . S
H1167 C1142 0.950 . S
H1168 C1144 0.950 . S
H1169 C1145 0.949 . S
H1170 C1147 0.950 . S
H1171 C1149 0.950 . S
C1172 C1173 1.349 . S
C1172 C1174 1.327 . S
C1172 H1197 0.950 . S
C1173 C1172 1.349 . S
C1173 C1189 1.349 . S
C1174 C1172 1.327 . S
C1174 C1193 1.429 . S
C1174 H1198 0.950 . S
C1175 C1192 1.574 . S
C1175 C1194 1.368 . S
C1175 H1199 0.949 1_556 S
H1176 C1180 0.949 . S
C1177 C1178 1.349 1_554 S
C1177 C1179 1.327 . S
C1177 H1200 0.950 . S
C1178 C1177 1.349 1_556 S
C1178 C1190 1.349 . S
C1179 C1177 1.327 . S
C1179 C1195 1.429 1_554 S
C1179 H1201 0.950 . S
C1180 H1176 0.949 . S
C1180 C1188 1.574 . S
C1180 C1196 1.368 . S
H1181 C1189 0.950 . S
H1182 C1187 0.950 . S
H1183 C1188 0.949 . S
H1184 C1190 0.928 1_455 S
H1185 C1191 0.950 . S
H1186 C1192 0.949 1_554 S
C1187 H1182 0.950 . S
C1187 C1189 1.327 . S
C1187 C1193 1.429 . S
C1188 C1180 1.574 . S
C1188 H1183 0.949 . S
C1188 C1194 1.368 . S
C1189 C1173 1.349 . S
C1189 H1181 0.950 . S
C1189 C1187 1.327 . S
C1190 C1178 1.349 . S
C1190 H1184 0.928 1_655 S
C1190 C1191 1.327 . S
C1191 H1185 0.950 . S
C1191 C1190 1.327 . S
C1191 C1195 1.429 . S
C1192 C1175 1.574 . S
C1192 H1186 0.949 1_556 S
C1192 C1196 1.368 . S
C1193 C1174 1.429 . S
C1193 C1187 1.429 . S
C1193 C1194 1.523 . S
C1194 C1175 1.368 . S
C1194 C1188 1.368 . S
C1194 C1193 1.523 . S
C1195 C1179 1.429 1_556 S
C1195 C1191 1.429 . S
C1195 C1196 1.523 . S
C1196 C1180 1.368 . S
C1196 C1192 1.368 . S
C1196 C1195 1.523 . S
H1197 C1172 0.950 . S
H1198 C1174 0.950 . S
H1199 C1175 0.949 1_554 S
H1200 C1177 0.950 . S
H1201 C1179 0.950 . S
C1202 C1203 1.349 . S
C1202 C1204 1.327 . S
C1202 H1227 0.950 . S
C1203 C1202 1.349 . S
C1203 C1219 1.349 . S
C1204 C1202 1.327 . S
C1204 C1223 1.429 . S
C1204 H1228 0.950 . S
C1205 C1222 1.574 . S
C1205 C1224 1.368 . S
C1205 H1229 0.949 . S
H1206 C1210 0.949 . S
C1207 C1208 1.349 . S
C1207 C1209 1.327 . S
C1207 H1230 0.950 . S
C1208 C1207 1.349 . S
C1208 C1220 1.349 . S
C1209 C1207 1.327 . S
C1209 C1225 1.429 . S
C1209 H1231 0.950 . S
C1210 H1206 0.949 . S
C1210 C1218 1.574 . S
C1210 C1226 1.368 . S
H1211 C1219 0.950 . S
H1212 C1217 0.950 . S
H1213 C1218 0.949 . S
H1214 C1220 0.950 . S
H1215 C1221 0.950 . S
H1216 C1222 0.949 . S
C1217 H1212 0.950 . S
C1217 C1219 1.327 . S
C1217 C1223 1.429 . S
C1218 C1210 1.574 . S
C1218 H1213 0.949 . S
C1218 C1224 1.368 . S
C1219 C1203 1.349 . S
C1219 H1211 0.950 . S
C1219 C1217 1.327 . S
C1220 C1208 1.349 . S
C1220 H1214 0.950 . S
C1220 C1221 1.327 . S
C1221 H1215 0.950 . S
C1221 C1220 1.327 . S
C1221 C1225 1.429 . S
C1222 C1205 1.574 . S
C1222 H1216 0.949 . S
C1222 C1226 1.368 . S
C1223 C1204 1.429 . S
C1223 C1217 1.429 . S
C1223 C1224 1.523 . S
C1224 C1205 1.368 . S
C1224 C1218 1.368 . S
C1224 C1223 1.523 . S
C1225 C1209 1.429 . S
C1225 C1221 1.429 . S
C1225 C1226 1.523 . S
C1226 C1210 1.368 . S
C1226 C1222 1.368 . S
C1226 C1225 1.523 . S
H1227 C1202 0.950 . S
H1228 C1204 0.950 . S
H1229 C1205 0.949 . S
H1230 C1207 0.950 . S
H1231 C1209 0.950 . S
C1232 C1233 1.349 . S
C1232 C1234 1.327 . S
C1232 H1257 0.950 . S
C1233 C1232 1.349 . S
C1233 C1249 1.349 . S
C1234 C1232 1.327 . S
C1234 C1253 1.429 . S
C1234 H1258 0.950 . S
C1235 C1252 1.574 . S
C1235 C1254 1.368 . S
C1235 H1259 0.949 . S
H1236 C1240 0.949 . S
C1237 C1238 1.349 . S
C1237 C1239 1.327 . S
C1237 H1260 0.950 . S
C1238 C1237 1.349 . S
C1238 C1250 1.349 . S
C1239 C1237 1.327 . S
C1239 C1255 1.429 . S
C1239 H1261 0.950 . S
C1240 H1236 0.949 . S
C1240 C1248 1.574 . S
C1240 C1256 1.368 . S
H1241 C1249 0.950 . S
H1242 C1247 0.950 . S
H1243 C1248 0.949 . S
H1244 C1250 0.950 . S
H1245 C1251 0.950 . S
H1246 C1252 0.949 . S
C1247 H1242 0.950 . S
C1247 C1249 1.327 . S
C1247 C1253 1.429 . S
C1248 C1240 1.574 . S
C1248 H1243 0.949 . S
C1248 C1254 1.368 . S
C1249 C1233 1.349 . S
C1249 H1241 0.950 . S
C1249 C1247 1.327 . S
C1250 C1238 1.349 . S
C1250 H1244 0.950 . S
C1250 C1251 1.327 . S
C1251 H1245 0.950 . S
C1251 C1250 1.327 . S
C1251 C1255 1.429 . S
C1252 C1235 1.574 . S
C1252 H1246 0.949 . S
C1252 C1256 1.368 . S
C1253 C1234 1.429 . S
C1253 C1247 1.429 . S
C1253 C1254 1.523 . S
C1254 C1235 1.368 . S
C1254 C1248 1.368 . S
C1254 C1253 1.523 . S
C1255 C1239 1.429 . S
C1255 C1251 1.429 . S
C1255 C1256 1.523 . S
C1256 C1240 1.368 . S
C1256 C1252 1.368 . S
C1256 C1255 1.523 . S
H1257 C1232 0.950 . S
H1258 C1234 0.950 . S
H1259 C1235 0.949 . S
H1260 C1237 0.950 . S
H1261 C1239 0.950 . S
C1262 C1263 1.349 . S
C1262 C1264 1.327 . S
C1262 H1287 0.950 . S
C1263 C1262 1.349 . S
C1263 C1279 1.349 . S
C1264 C1262 1.327 . S
C1264 C1283 1.429 . S
C1264 H1288 0.950 . S
C1265 C1282 1.574 . S
C1265 C1284 1.368 . S
C1265 H1289 0.949 . S
H1266 C1270 0.949 . S
C1267 C1268 1.349 . S
C1267 C1269 1.327 . S
C1267 H1290 0.950 . S
C1268 C1267 1.349 . S
C1268 C1280 1.349 . S
C1269 C1267 1.327 . S
C1269 C1285 1.429 . S
C1269 H1291 0.950 . S
C1270 H1266 0.949 . S
C1270 C1278 1.574 . S
C1270 C1286 1.368 . S
H1271 C1279 0.950 . S
H1272 C1277 0.950 . S
H1273 C1278 0.949 . S
H1274 C1280 0.950 . S
H1275 C1281 0.950 . S
H1276 C1282 0.949 . S
C1277 H1272 0.950 . S
C1277 C1279 1.327 . S
C1277 C1283 1.429 . S
C1278 C1270 1.574 . S
C1278 H1273 0.949 . S
C1278 C1284 1.368 . S
C1279 C1263 1.349 . S
C1279 H1271 0.950 . S
C1279 C1277 1.327 . S
C1280 C1268 1.349 . S
C1280 H1274 0.950 . S
C1280 C1281 1.327 . S
C1281 H1275 0.950 . S
C1281 C1280 1.327 . S
C1281 C1285 1.429 . S
C1282 C1265 1.574 . S
C1282 H1276 0.949 . S
C1282 C1286 1.368 . S
C1283 C1264 1.429 . S
C1283 C1277 1.429 . S
C1283 C1284 1.523 . S
C1284 C1265 1.368 . S
C1284 C1278 1.368 . S
C1284 C1283 1.523 . S
C1285 C1269 1.429 . S
C1285 C1281 1.429 . S
C1285 C1286 1.523 . S
C1286 C1270 1.368 . S
C1286 C1282 1.368 . S
C1286 C1285 1.523 . S
H1287 C1262 0.950 . S
H1288 C1264 0.950 . S
H1289 C1265 0.949 . S
H1290 C1267 0.950 . S
H1291 C1269 0.950 . S
C573 C1 1.600 . S
C578 C498 1.584 . S
C603 C80 1.573 . S
C608 C522 1.576 . S
C638 C542 1.408 . S
C633 C140 1.357 . S
C663 C211 1.373 . S
C668 C565 1.427 . S
C698 C524 1.692 . S
C693 C31 1.716 . S
C728 C500 1.681 . S
C723 C61 1.684 . S
C758 C568 1.586 . S
C753 C151 1.578 . S
C788 C545 1.572 . S
C783 C200 1.560 . S
C813 C20 1.338 . S
C818 C570 1.318 . S
C848 C519 1.672 . S
C843 C121 1.613 . S
C873 C181 1.608 . S
C878 C497 1.663 . S
C903 C91 1.305 . S
C908 C547 1.306 . S
C938 C501 1.685 . S
C933 C260 1.679 . S
C963 C320 1.573 . S
C968 C523 1.638 . S
C993 C361 1.829 . S
C998 C543 1.853 . S
C1023 C451 1.774 . S
C1028 C566 1.855 . S
C1053 C271 1.578 . S
C1058 C521 1.559 1_556 S
C1088 C499 1.586 . S
C1083 C301 1.511 . S
C1118 C569 1.482 . S
C1113 C380 1.498 . S
C1148 C546 1.525 . S
C1143 C440 1.504 . S
C1173 C241 1.968 . S
C1178 C567 1.941 . S
C1208 C520 1.582 . S
C1203 C391 1.562 . S
C1238 C496 1.591 . S
C1233 C421 1.519 . S
C1263 C331 1.877 . S
C1268 C544 1.918 . S
