# Generated by pormake.
# Topology pyr, (3,6)-cn, num edge types: 1
# Building blocks:
#     Node 0, Type 0, BuildingBlock: QEWDON_clean_linker_0, # of connection points: 3
#     Node 1, Type 0, BuildingBlock: QEWDON_clean_linker_0, # of connection points: 3
#     Node 2, Type 0, BuildingBlock: QEWDON_clean_linker_0, # of connection points: 3
#     Node 3, Type 0, BuildingBlock: QEWDON_clean_linker_0, # of connection points: 3
#     Node 4, Type 0, BuildingBlock: QEWDON_clean_linker_0, # of connection points: 3
#     Node 5, Type 0, BuildingBlock: QEWDON_clean_linker_0, # of connection points: 3
#     Node 6, Type 0, BuildingBlock: QEWDON_clean_linker_0, # of connection points: 3
#     Node 7, Type 0, BuildingBlock: QEWDON_clean_linker_0, # of connection points: 3
#     Node 8, Type 1, BuildingBlock: MIFKUJ_clean_sbu_0, # of connection points: 6
#     Node 9, Type 1, BuildingBlock: MIFKUJ_clean_sbu_0, # of connection points: 6
#     Node 10, Type 1, BuildingBlock: MIFKUJ_clean_sbu_0, # of connection points: 6
#     Node 11, Type 1, BuildingBlock: MIFKUJ_clean_sbu_0, # of connection points: 6
#     Edge 12, Type (0, 1), BuildingBlock: AJUNOK_clean_linker_0, # of connection points: 2
#     Edge 13, Type (0, 1), BuildingBlock: AJUNOK_clean_linker_0, # of connection points: 2
#     Edge 14, Type (0, 1), BuildingBlock: AJUNOK_clean_linker_0, # of connection points: 2
#     Edge 15, Type (0, 1), BuildingBlock: AJUNOK_clean_linker_0, # of connection points: 2
#     Edge 16, Type (0, 1), BuildingBlock: AJUNOK_clean_linker_0, # of connection points: 2
#     Edge 17, Type (0, 1), BuildingBlock: AJUNOK_clean_linker_0, # of connection points: 2
#     Edge 18, Type (0, 1), BuildingBlock: AJUNOK_clean_linker_0, # of connection points: 2
#     Edge 19, Type (0, 1), BuildingBlock: AJUNOK_clean_linker_0, # of connection points: 2
#     Edge 20, Type (0, 1), BuildingBlock: AJUNOK_clean_linker_0, # of connection points: 2
#     Edge 21, Type (0, 1), BuildingBlock: AJUNOK_clean_linker_0, # of connection points: 2
#     Edge 22, Type (0, 1), BuildingBlock: AJUNOK_clean_linker_0, # of connection points: 2
#     Edge 23, Type (0, 1), BuildingBlock: AJUNOK_clean_linker_0, # of connection points: 2
#     Edge 24, Type (0, 1), BuildingBlock: AJUNOK_clean_linker_0, # of connection points: 2
#     Edge 25, Type (0, 1), BuildingBlock: AJUNOK_clean_linker_0, # of connection points: 2
#     Edge 26, Type (0, 1), BuildingBlock: AJUNOK_clean_linker_0, # of connection points: 2
#     Edge 27, Type (0, 1), BuildingBlock: AJUNOK_clean_linker_0, # of connection points: 2
#     Edge 28, Type (0, 1), BuildingBlock: AJUNOK_clean_linker_0, # of connection points: 2
#     Edge 29, Type (0, 1), BuildingBlock: AJUNOK_clean_linker_0, # of connection points: 2
#     Edge 30, Type (0, 1), BuildingBlock: AJUNOK_clean_linker_0, # of connection points: 2
#     Edge 31, Type (0, 1), BuildingBlock: AJUNOK_clean_linker_0, # of connection points: 2
#     Edge 32, Type (0, 1), BuildingBlock: AJUNOK_clean_linker_0, # of connection points: 2
#     Edge 33, Type (0, 1), BuildingBlock: AJUNOK_clean_linker_0, # of connection points: 2
#     Edge 34, Type (0, 1), BuildingBlock: AJUNOK_clean_linker_0, # of connection points: 2
#     Edge 35, Type (0, 1), BuildingBlock: AJUNOK_clean_linker_0, # of connection points: 2
# Relax obj value: 0.098
# Max RMSD: 0.267
# Mean RMSD: 0.177
data_MOF--net-pyr--node1-MIFKUJ_clean_sbu_0--node2-QEWDON_clean_linker_0--edge1-AJUNOK_clean_linker_0
_symmetry_space_group_name_H-M    P1
_symmetry_Int_Tables_number       1
_symmetry_cell_setting            triclinic
loop_
_symmetry_equiv_pos_as_xyz
'x, y, z'
_cell_length_a     29.419174
_cell_length_b     26.804166
_cell_length_c     29.95791
_cell_angle_alpha  84.556722
_cell_angle_beta   87.914878
_cell_angle_gamma 108.71201
loop_
_atom_site_label
_atom_site_type_symbol
_atom_site_fract_x
_atom_site_fract_y
_atom_site_fract_z
_atom_type_partial_charge
H0 H 0.28081 0.25474 0.20074 0.0
C1 C 0.25561 0.22983 0.22745 0.0
C2 C 0.25731 0.17882 0.24219 0.0
C3 C 0.22221 0.24944 0.24815 0.0
H4 H 0.22789 0.11071 0.29251 0.0
C5 C 0.22545 0.14857 0.2788 0.0
C6 C 0.19107 0.16755 0.29871 0.0
C7 C 0.18959 0.21771 0.2828 0.0
C8 C 0.22516 0.30562 0.23983 0.0
H9 H 0.16478 0.23367 0.29945 0.0
C10 C 0.2008 0.32336 0.20537 0.0
C11 C 0.19412 0.3735 0.20479 0.0
C12 C 0.24558 0.33916 0.27208 0.0
H13 H 0.26393 0.32581 0.29909 0.0
C14 C 0.24029 0.38891 0.27128 0.0
H15 H 0.18657 0.29745 0.18007 0.0
C16 C 0.21402 0.4055 0.23872 0.0
H17 H 0.20857 0.44325 0.24102 0.0
H18 H 0.25514 0.41401 0.297 0.0
H19 H 0.31457 0.87393 0.81124 0.0
C20 C 0.33841 0.86284 0.78867 0.0
C21 C 0.38478 0.86531 0.80104 0.0
C22 C 0.32135 0.8418 0.74891 0.0
H23 H 0.44986 0.84936 0.78185 0.0
C24 C 0.41416 0.84762 0.77254 0.0
C25 C 0.3974 0.82653 0.73276 0.0
C26 C 0.35111 0.82431 0.72112 0.0
C27 C 0.27007 0.82893 0.73983 0.0
H28 H 0.33699 0.80609 0.6915 0.0
C29 C 0.25053 0.86826 0.72389 0.0
C30 C 0.20192 0.85378 0.71363 0.0
C31 C 0.24097 0.77546 0.74499 0.0
H32 H 0.2556 0.74466 0.75672 0.0
C33 C 0.19295 0.76121 0.73485 0.0
H34 H 0.27294 0.90956 0.71923 0.0
C35 C 0.17347 0.80006 0.71928 0.0
H36 H 0.13619 0.78813 0.71112 0.0
H37 H 0.17083 0.71988 0.7388 0.0
H38 H 0.71508 0.45758 0.86847 0.0
C39 C 0.70115 0.41687 0.88391 0.0
C40 C 0.73125 0.39476 0.90852 0.0
C41 C 0.6523 0.38804 0.88215 0.0
H42 H 0.73449 0.32667 0.95161 0.0
C43 C 0.71233 0.34296 0.93051 0.0
C44 C 0.6636 0.31404 0.9285 0.0
C45 C 0.6341 0.3363 0.90377 0.0
C46 C 0.61856 0.41424 0.86422 0.0
H47 H 0.59602 0.31438 0.90375 0.0
C48 C 0.62587 0.4405 0.82035 0.0
C49 C 0.59331 0.46553 0.8046 0.0
C50 C 0.5786 0.41332 0.89194 0.0
H51 H 0.57249 0.39364 0.92599 0.0
C52 C 0.54656 0.43842 0.8763 0.0
H53 H 0.65626 0.44099 0.79852 0.0
C54 C 0.55386 0.46453 0.83288 0.0
H55 H 0.52824 0.48323 0.82099 0.0
H56 H 0.51591 0.43751 0.89787 0.0
H57 H 0.88312 0.78529 0.25281 0.0
C58 C 0.8575 0.7633 0.28037 0.0
C59 C 0.8611 0.78157 0.32289 0.0
C60 C 0.81917 0.7179 0.2732 0.0
H61 H 0.82983 0.76935 0.39067 0.0
C62 C 0.82734 0.75416 0.3582 0.0
C63 C 0.78906 0.70931 0.35159 0.0
C64 C 0.78516 0.69109 0.30904 0.0
C65 C 0.81257 0.69972 0.22797 0.0
H66 H 0.75561 0.65609 0.30379 0.0
C67 C 0.84987 0.68931 0.20383 0.0
C68 C 0.84171 0.66865 0.16233 0.0
C69 C 0.76772 0.69059 0.20953 0.0
H70 H 0.73855 0.69857 0.22738 0.0
C71 C 0.76005 0.67108 0.16792 0.0
H72 H 0.88437 0.69531 0.21798 0.0
C73 C 0.79675 0.65979 0.1445 0.0
H74 H 0.78999 0.64368 0.11264 0.0
H75 H 0.72538 0.66409 0.15403 0.0
H76 H 0.80768 0.8119 0.86469 0.0
C77 C 0.82537 0.83033 0.83211 0.0
C78 C 0.86886 0.82335 0.81762 0.0
C79 C 0.80271 0.85809 0.80375 0.0
H80 H 0.92486 0.84367 0.76355 0.0
C81 C 0.89155 0.84881 0.77535 0.0
C82 C 0.86974 0.87818 0.74697 0.0
C83 C 0.82515 0.88216 0.76151 0.0
C84 C 0.75224 0.85439 0.81503 0.0
H85 H 0.80733 0.90342 0.73961 0.0
C86 C 0.73949 0.87922 0.85065 0.0
C87 C 0.69077 0.87396 0.86074 0.0
C88 C 0.71613 0.82399 0.79006 0.0
H89 H 0.72525 0.80437 0.76274 0.0
C90 C 0.66798 0.81791 0.80051 0.0
H91 H 0.76723 0.9027 0.87004 0.0
C92 C 0.65531 0.84265 0.83555 0.0
H93 H 0.61772 0.83829 0.84231 0.0
H94 H 0.64037 0.79423 0.78116 0.0
H95 H 0.73851 0.19933 0.43762 0.0
C96 C 0.72327 0.18987 0.40587 0.0
C97 C 0.74505 0.16545 0.37571 0.0
C98 C 0.68043 0.19992 0.39621 0.0
H99 H 0.73586 0.12719 0.31448 0.0
C100 C 0.72191 0.14965 0.33634 0.0
C101 C 0.67877 0.15932 0.32669 0.0
C102 C 0.65982 0.18676 0.35588 0.0
C103 C 0.65003 0.2103 0.43205 0.0
H104 H 0.62658 0.19441 0.34896 0.0
C105 C 0.64828 0.26148 0.43684 0.0
C106 C 0.61503 0.26801 0.46901 0.0
C107 C 0.61814 0.16631 0.45883 0.0
H108 H 0.61833 0.12662 0.4548 0.0
C109 C 0.5849 0.17286 0.49009 0.0
H110 H 0.6725 0.29563 0.41606 0.0
C111 C 0.58336 0.22338 0.49525 0.0
H112 H 0.55759 0.2278 0.52006 0.0
H113 H 0.5602 0.13866 0.51033 0.0
H114 H 0.39702 0.74309 0.26755 0.0
C115 C 0.36207 0.73228 0.25378 0.0
C116 C 0.35108 0.76911 0.223 0.0
C117 C 0.32836 0.68106 0.26536 0.0
H118 H 0.29949 0.78089 0.1771 0.0
C119 C 0.30709 0.75408 0.203 0.0
C120 C 0.27376 0.70383 0.21411 0.0
C121 C 0.28377 0.6679 0.24583 0.0
C122 C 0.34013 0.63971 0.29508 0.0
H123 H 0.25708 0.62905 0.25409 0.0
C124 C 0.36764 0.65237 0.33255 0.0
C125 C 0.37793 0.61227 0.35986 0.0
C126 C 0.32368 0.58648 0.28566 0.0
H127 H 0.30385 0.57527 0.25643 0.0
C128 C 0.33325 0.54683 0.31335 0.0
H129 H 0.38102 0.69289 0.34052 0.0
C130 C 0.36022 0.55958 0.35028 0.0
H131 H 0.36799 0.52838 0.37111 0.0
H132 H 0.32024 0.50616 0.30579 0.0
H133 H 0.24705 0.43059 0.78257 0.0
C134 C 0.23245 0.39774 0.76305 0.0
C135 C 0.25715 0.39538 0.7227 0.0
C136 C 0.18945 0.35728 0.7787 0.0
H137 H 0.25752 0.34982 0.6672 0.0
C138 C 0.23827 0.3523 0.69801 0.0
C139 C 0.19503 0.31206 0.71288 0.0
C140 C 0.17103 0.3146 0.75345 0.0
C141 C 0.16437 0.35847 0.8221 0.0
H142 H 0.13818 0.28302 0.76568 0.0
C143 C 0.15527 0.4047 0.83229 0.0
C144 C 0.13174 0.40535 0.87368 0.0
C145 C 0.14933 0.313 0.85363 0.0
H146 H 0.1562 0.27704 0.84667 0.0
C147 C 0.12596 0.31378 0.89478 0.0
H148 H 0.16627 0.43993 0.80817 0.0
C149 C 0.11732 0.35977 0.90489 0.0
H150 H 0.09912 0.35979 0.937 0.0
H151 H 0.11465 0.2787 0.91895 0.0
Zn152 Zn 0.06879 0.05029 0.56564 0.0
Zn153 Zn 0.95372 0.02968 0.47508 0.0
C154 C 0.12675 0.13625 0.60555 0.0
O155 O 0.15886 0.11923 0.58608 0.0
C156 C 0.96414 0.95657 0.41186 0.0
O157 O 0.00831 0.96757 0.42426 0.0
O158 O 0.10209 0.00042 0.59342 0.0
O159 O 0.9979 0.01425 0.56305 0.0
O160 O 0.92706 0.98863 0.53707 0.0
C161 C 0.10487 -0.00489 0.63581 0.0
O162 O 0.08518 0.02119 0.66103 0.0
O163 O 0.08246 0.11256 0.60129 0.0
C164 C 0.90624 0.09098 0.41979 0.0
O165 O 0.92372 0.07077 0.38772 0.0
O166 O 0.91673 0.08196 0.46006 0.0
O167 O 0.02803 0.06007 0.46985 0.0
O168 O 0.09682 0.07773 0.50208 0.0
O169 O 0.9358 0.97742 0.42971 0.0
C170 C 0.95343 0.98794 0.5697 0.0
C171 C 0.07399 0.07881 0.46682 0.0
Zn172 Zn 0.52377 -0.00522 0.02868 0.0
Zn173 Zn 0.48145 0.07594 0.12201 0.0
C174 C 0.46358 0.92624 0.97154 0.0
O175 O 0.48072 0.89306 0.99481 0.0
C176 C 0.56788 0.0926 0.17261 0.0
O177 O 0.59035 0.1008 0.13255 0.0
O178 O 0.57541 0.9646 0.00791 0.0
O179 O 0.55196 0.075 0.02203 0.0
O180 O 0.52588 0.12022 0.07001 0.0
C181 C 0.60409 0.98726 0.97373 0.0
O182 O 0.60235 0.03254 0.95432 0.0
O183 O 0.47395 0.9733 0.9822 0.0
C184 C 0.40388 0.09517 0.17436 0.0
O185 O 0.41043 0.0578 0.20238 0.0
O186 O 0.43005 0.11054 0.13753 0.0
O187 O 0.44802 8e-05 0.11051 0.0
O188 O 0.49759 0.95809 0.09113 0.0
O189 O 0.52213 0.07943 0.17588 0.0
C190 C 0.55199 0.11864 0.03566 0.0
C191 C 0.46587 0.9631 0.11879 0.0
Zn192 Zn 0.54964 0.54167 0.53233 0.0
Zn193 Zn 0.51635 0.6238 0.59979 0.0
C194 C 0.64778 0.61451 0.5024 0.0
O195 O 0.66211 0.60036 0.54117 0.0
C196 C 0.4437 0.54976 0.66113 0.0
O197 O 0.47225 0.57379 0.69081 0.0
O198 O 0.55205 0.47412 0.50763 0.0
O199 O 0.56049 0.53032 0.59747 0.0
O200 O 0.57309 0.60683 0.62458 0.0
C201 C 0.58851 0.46124 0.51887 0.0
O202 O 0.61877 0.49102 0.54435 0.0
O203 O 0.60346 0.59756 0.49545 0.0
C204 C 0.48365 0.71237 0.61865 0.0
O205 O 0.46874 0.70905 0.5779 0.0
O206 O 0.50698 0.68246 0.63335 0.0
O207 O 0.51407 0.64122 0.53293 0.0
O208 O 0.48952 0.55769 0.51741 0.0
O209 O 0.45658 0.56259 0.61955 0.0
C210 C 0.57509 0.55998 0.62807 0.0
C211 C 0.49003 0.60542 0.50994 0.0
Zn212 Zn 0.99572 0.61702 0.96498 0.0
Zn213 Zn 0.05686 0.55975 0.05662 0.0
C214 C 0.92208 0.53389 0.93418 0.0
O215 O 0.95271 0.54805 0.89872 0.0
C216 C 0.10592 0.63157 0.11349 0.0
O217 O 0.06566 0.60781 0.13836 0.0
O218 O 0.98405 0.67704 0.92458 0.0
O219 O 0.0084 0.63935 0.02759 0.0
O220 O 0.99279 0.56611 0.07369 0.0
C221 C 0.94361 0.68339 0.93293 0.0
O222 O 0.91599 0.65517 0.96795 0.0
O223 O 0.93234 0.5578 0.96897 0.0
C224 C 0.07988 0.46107 0.08434 0.0
O225 O 0.0714 0.44769 0.04365 0.0
O226 O 0.07216 0.50226 0.09595 0.0
O227 O 0.06963 0.551 0.99307 0.0
O228 O 0.04397 0.58851 0.93435 0.0
O229 O 0.10843 0.62273 0.07274 0.0
C230 C 0.98305 0.6077 0.06032 0.0
C231 C 0.06782 0.55997 0.95097 0.0
C232 C 0.18056 0.12815 0.37907 0.0
C233 C 0.15973 0.13848 0.33932 0.0
C234 C 0.15239 0.10854 0.41972 0.0
C235 C 0.10205 0.09794 0.42236 0.0
H236 H 0.2192 0.13731 0.37915 0.0
H237 H 0.17059 0.10234 0.44949 0.0
S238 S 0.02988 0.11485 0.32638 0.0
N239 N 0.08582 0.13448 0.30414 0.0
N240 N 0.03261 0.09696 0.38026 0.0
C241 C 0.08064 0.10636 0.38227 0.0
C242 C 0.10951 0.12682 0.34092 0.0
C243 C 0.41866 0.84727 0.87384 0.0
C244 C 0.40123 0.881 0.84566 0.0
C245 C 0.43684 0.86157 0.91505 0.0
C246 C 0.43887 0.91055 0.92991 0.0
H247 H 0.4186 0.80948 0.86376 0.0
H248 H 0.45056 0.83429 0.93481 0.0
S249 S 0.39551 0.01222 0.86934 0.0
N250 N 0.3852 0.96462 0.83606 0.0
N251 N 0.41969 0.99198 0.9135 0.0
C252 C 0.42023 0.94412 0.90257 0.0
C253 C 0.40129 0.92921 0.86056 0.0
C254 C 0.6046 0.54499 0.74975 0.0
C255 C 0.59812 0.49063 0.75798 0.0
C256 C 0.60006 0.56789 0.70685 0.0
C257 C 0.5882 0.53701 0.67081 0.0
H258 H 0.61132 0.56949 0.77714 0.0
H259 H 0.60366 0.6096 0.70255 0.0
S260 S 0.57006 0.39256 0.67544 0.0
N261 N 0.58179 0.40678 0.72709 0.0
N262 N 0.57288 0.44905 0.6463 0.0
C263 C 0.58403 0.4828 0.67842 0.0
C264 C 0.58902 0.45977 0.72209 0.0
C265 C 0.91574 0.69114 0.1107 0.0
C266 C 0.87884 0.65314 0.13838 0.0
C267 C 0.94908 0.67609 0.0851 0.0
C268 C 0.94683 0.6226 0.08681 0.0
H269 H 0.91834 0.73257 0.10834 0.0
H270 H 0.97698 0.70665 0.06412 0.0
S271 S 0.85585 0.50828 0.15413 0.0
N272 N 0.8411 0.56031 0.16588 0.0
N273 N 0.90388 0.53167 0.11843 0.0
C274 C 0.90998 0.58439 0.11474 0.0
C275 C 0.87592 0.59976 0.14036 0.0
C276 C 0.34186 0.19114 0.21055 0.0
C277 C 0.29371 0.15812 0.221 0.0
C278 C 0.3771 0.17136 0.19325 0.0
C279 C 0.36564 0.11776 0.18611 0.0
H280 H 0.35285 0.2322 0.21716 0.0
H281 H 0.41391 0.19764 0.18719 0.0
S282 S 0.24449 0.01635 0.20209 0.0
N283 N 0.23611 0.07023 0.21803 0.0
N284 N 0.30247 0.03326 0.18708 0.0
C285 C 0.3176 0.08496 0.19475 0.0
C286 C 0.28165 0.10503 0.21177 0.0
C287 C 0.19613 0.92306 0.65389 0.0
C288 C 0.18006 0.89369 0.69619 0.0
C289 C 0.17145 0.95566 0.63427 0.0
C290 C 0.13049 0.96062 0.65674 0.0
H291 H 0.22696 0.91943 0.63527 0.0
H292 H 0.18455 0.97717 0.60138 0.0
S293 S 0.07474 0.89251 0.76856 0.0
N294 N 0.12121 0.87187 0.76 0.0
N295 N 0.07545 0.93379 0.72376 0.0
C296 C 0.11489 0.93237 0.69951 0.0
C297 C 0.13951 0.8987 0.71906 0.0
C298 C 0.78709 0.47651 0.93453 0.0
C299 C 0.78043 0.42839 0.91625 0.0
C300 C 0.83312 0.50945 0.94219 0.0
C301 C 0.874 0.49582 0.93095 0.0
H302 H 0.75642 0.48872 0.94301 0.0
H303 H 0.83686 0.54662 0.95559 0.0
S304 S 0.87605 0.37348 0.88411 0.0
N305 N 0.81839 0.36772 0.88903 0.0
N306 N 0.90529 0.43073 0.90213 0.0
C307 C 0.86794 0.44766 0.91322 0.0
C308 C 0.82099 0.41355 0.90629 0.0
C309 C 0.76638 0.67113 0.4318 0.0
C310 C 0.75221 0.68396 0.38907 0.0
C311 C 0.73258 0.65025 0.46857 0.0
C312 C 0.68327 0.64157 0.46407 0.0
H313 H 0.80397 0.67707 0.43678 0.0
H314 H 0.74526 0.64012 0.50056 0.0
S315 S 0.62827 0.6723 0.35949 0.0
N316 N 0.68622 0.68909 0.34453 0.0
N317 N 0.62239 0.64983 0.41335 0.0
C318 C 0.6688 0.65525 0.42148 0.0
C319 C 0.70329 0.67627 0.38405 0.0
C320 C 0.17833 0.44819 0.15751 0.0
C321 C 0.16571 0.39314 0.17061 0.0
C322 C 0.14986 0.46932 0.13027 0.0
C323 C 0.10863 0.43647 0.11288 0.0
H324 H 0.21041 0.47579 0.16866 0.0
H325 H 0.16063 0.51194 0.1223 0.0
S326 S 0.06059 0.29003 0.13244 0.0
N327 N 0.10813 0.30612 0.16243 0.0
N328 N 0.05768 0.34646 0.10748 0.0
C329 C 0.0967 0.38147 0.12303 0.0
C330 C 0.12455 0.35966 0.15257 0.0
C331 C 0.64007 0.21583 0.94622 0.0
C332 C 0.64055 0.26504 0.95864 0.0
C333 C 0.61205 0.16868 0.97185 0.0
C334 C 0.58347 0.16926 0.01061 0.0
H335 H 0.66019 0.21376 0.91583 0.0
H336 H 0.61206 0.13161 0.96049 0.0
S337 S 0.57551 0.28999 0.05766 0.0
N338 N 0.61258 0.31283 0.01222 0.0
N339 N 0.56001 0.22479 0.06082 0.0
C340 C 0.58525 0.21893 0.02388 0.0
C341 C 0.61375 0.26666 0.99774 0.0
C342 C 0.88084 0.87606 0.333 0.0
C343 C 0.89651 0.83198 0.33149 0.0
C344 C 0.90492 0.91799 0.35689 0.0
C345 C 0.94558 0.91725 0.37995 0.0
H346 H 0.84745 0.87602 0.31883 0.0
H347 H 0.89001 0.94981 0.3593 0.0
S348 S 1.00374 0.81313 0.38159 0.0
N349 N 0.95691 0.79162 0.3514 0.0
N350 N 1.00322 0.87105 0.39575 0.0
C351 C 0.96396 0.87543 0.37536 0.0
C352 C 0.93906 0.8325 0.35128 0.0
C353 C 0.42991 0.81343 0.65782 0.0
C354 C 0.42579 0.80225 0.70493 0.0
C355 C 0.45051 0.78568 0.63034 0.0
C356 C 0.46803 0.74572 0.6488 0.0
H357 H 0.4159 0.84296 0.64199 0.0
H358 H 0.45162 0.79481 0.59422 0.0
S359 S 0.46642 0.70175 0.77046 0.0
N360 N 0.4414 0.74884 0.76899 0.0
N361 N 0.48096 0.6974 0.71756 0.0
C362 C 0.46582 0.73553 0.69602 0.0
C363 C 0.44452 0.76361 0.724 0.0
C364 C 0.93924 0.93837 0.69525 0.0
C365 C 0.89187 0.9028 0.70115 0.0
C366 C 0.95898 0.96527 0.65269 0.0
C367 C 0.93239 0.95739 0.61424 0.0
H368 H 0.9607 0.94669 0.72396 0.0
H369 H 0.99495 0.99345 0.6501 0.0
S370 S 0.80824 0.86383 0.61123 0.0
N371 N 0.82004 0.85811 0.66455 0.0
N372 N 0.85682 0.90817 0.58495 0.0
C373 C 0.88543 0.92046 0.61964 0.0
C374 C 0.86535 0.8933 0.6629 0.0
C375 C 0.67331 0.14515 0.24485 0.0
C376 C 0.65087 0.13742 0.28835 0.0
C377 C 0.64642 0.12894 0.20786 0.0
C378 C 0.59601 0.10437 0.21292 0.0
H379 H 0.71168 0.16546 0.23911 0.0
H380 H 0.66525 0.13722 0.17487 0.0
S381 S 0.52102 0.06879 0.32094 0.0
N382 N 0.57606 0.09838 0.33513 0.0
N383 N 0.52555 0.06927 0.26582 0.0
C384 C 0.57355 0.09428 0.25663 0.0
C385 C 0.60093 0.11043 0.29423 0.0
C386 C 0.45679 0.62375 0.39119 0.0
C387 C 0.40934 0.62416 0.39724 0.0
C388 C 0.48408 0.6211 0.42809 0.0
C389 C 0.46481 0.61924 0.47196 0.0
H390 H 0.47175 0.62214 0.35797 0.0
H391 H 0.51951 0.61774 0.42248 0.0
S392 S 0.34344 0.62213 0.50545 0.0
N393 N 0.34491 0.62472 0.45003 0.0
N394 N 0.39677 0.62051 0.51961 0.0
C395 C 0.41848 0.62257 0.47835 0.0
C396 C 0.39051 0.6249 0.44079 0.0
C397 C 0.14577 0.47981 0.9202 0.0
C398 C 0.12206 0.45332 0.88525 0.0
C399 C 0.13069 0.51852 0.93833 0.0
C400 C 0.09109 0.53177 0.92238 0.0
H401 H 0.17451 0.46851 0.93518 0.0
H402 H 0.14831 0.53581 0.967 0.0
S403 S 0.01962 0.47615 0.82855 0.0
N404 N 0.0597 0.44495 0.83293 0.0
N405 N 0.03107 0.51799 0.86701 0.0
C406 C 0.06938 0.50819 0.88514 0.0
C407 C 0.08485 0.46865 0.86666 0.0
C408 C 0.63731 0.87569 0.92732 0.0
C409 C 0.67587 0.90286 0.89552 0.0
C410 C 0.61632 0.90315 0.95483 0.0
C411 C 0.63264 0.95892 0.95109 0.0
H412 H 0.62197 0.83291 0.92965 0.0
H413 H 0.5853 0.88056 0.97723 0.0
S414 S 0.73573 0.04842 0.87644 0.0
N415 N 0.73203 0.98838 0.86458 0.0
N416 N 0.69251 0.04006 0.91599 0.0
C417 C 0.67294 0.98636 0.92131 0.0
C418 C 0.69464 0.95833 0.89366 0.0
C419 C 0.79309 0.13024 0.43139 0.0
C420 C 0.78912 0.15173 0.38739 0.0
C421 C 0.83233 0.11329 0.4423 0.0
C422 C 0.86905 0.11653 0.40957 0.0
H423 H 0.76476 0.12456 0.45738 0.0
H424 H 0.8327 0.09529 0.47617 0.0
S425 S 0.8793 0.17581 0.29095 0.0
N426 N 0.82838 0.18034 0.31218 0.0
N427 N 0.90102 0.14706 0.33226 0.0
C428 C 0.86659 0.13989 0.36598 0.0
C429 C 0.82697 0.15772 0.355 0.0
C430 C 0.1891 0.69699 0.19977 0.0
C431 C 0.2315 0.68675 0.18777 0.0
C432 C 0.14883 0.68074 0.17442 0.0
C433 C 0.15037 0.655 0.13585 0.0
H434 H 0.18691 0.71691 0.2292 0.0
H435 H 0.11611 0.68777 0.18533 0.0
S436 S 0.25399 0.61956 0.09106 0.0
N437 N 0.27327 0.64955 0.13574 0.0
N438 N 0.1983 0.62012 0.08718 0.0
C439 C 0.19327 0.64576 0.12314 0.0
C440 C 0.23371 0.66136 0.14942 0.0
C441 C 0.3407 0.45147 0.73621 0.0
C442 C 0.30363 0.43669 0.70685 0.0
C443 C 0.38592 0.48793 0.7211 0.0
C444 C 0.39581 0.51076 0.67603 0.0
H445 H 0.33505 0.4339 0.7709 0.0
H446 H 0.41347 0.49775 0.74486 0.0
S447 S 0.30928 0.48875 0.58682 0.0
N448 N 0.27856 0.45042 0.63157 0.0
N449 N 0.36361 0.51809 0.60285 0.0
C450 C 0.35865 0.49703 0.64656 0.0
C451 C 0.31258 0.46026 0.66206 0.0
C452 C 0.93782 0.80013 0.85227 0.0
C453 C 0.88829 0.78643 0.84548 0.0
C454 C 0.95601 0.76633 0.87981 0.0
C455 C 0.92522 0.71798 0.90201 0.0
H456 H 0.96258 0.83769 0.83692 0.0
H457 H 0.99416 0.77876 0.88466 0.0
S458 S 0.7941 0.65983 0.89043 0.0
N459 N 0.80999 0.71768 0.85926 0.0
N460 N 0.84373 0.65593 0.91217 0.0
C461 C 0.87604 0.70309 0.89437 0.0
C462 C 0.8577 0.7368 0.86586 0.0
C463 C 0.43046 0.82656 0.18565 0.0
C464 C 0.38599 0.82203 0.20735 0.0
C465 C 0.45747 0.8735 0.15903 0.0
C466 C 0.44065 0.9173 0.15283 0.0
H467 H 0.44281 0.79252 0.18664 0.0
H468 H 0.49054 0.87434 0.14138 0.0
S469 S 0.32927 0.92672 0.20867 0.0
N470 N 0.32937 0.86665 0.22633 0.0
N471 N 0.37857 0.95402 0.17511 0.0
C472 C 0.39789 0.91423 0.17741 0.0
C473 C 0.37102 0.86684 0.20499 0.0
C474 C 0.20704 0.24079 0.67064 0.0
C475 C 0.17602 0.26667 0.68643 0.0
C476 C 0.19063 0.19879 0.64458 0.0
C477 C 0.14244 0.18075 0.63339 0.0
H478 H 0.24435 0.25293 0.67869 0.0
H479 H 0.21606 0.18022 0.63336 0.0
S480 S 0.04683 0.23597 0.66579 0.0
N481 N 0.09507 0.27215 0.68842 0.0
N482 N 0.06383 0.19242 0.64 0.0
C483 C 0.11086 0.20606 0.64924 0.0
C484 C 0.12772 0.24913 0.67566 0.0
C485 C 0.59017 0.34847 0.45077 0.0
C486 C 0.61405 0.32087 0.47824 0.0
C487 C 0.58166 0.39395 0.46399 0.0
C488 C 0.59718 0.41328 0.50486 0.0
H489 H 0.57659 0.33379 0.41975 0.0
H490 H 0.56278 0.41395 0.4422 0.0
S491 S 0.66118 0.35432 0.58834 0.0
N492 N 0.65288 0.31557 0.54764 0.0
N493 N 0.63777 0.4009 0.57236 0.0
C494 C 0.62197 0.38632 0.53195 0.0
C495 C 0.63016 0.34012 0.51867 0.0
loop_
_geom_bond_atom_site_label_1
_geom_bond_atom_site_label_2
_geom_bond_distance
_geom_bond_site_symmetry_2
_ccdc_geom_bond_type
H0 C1 0.949 . S
C1 H0 0.949 . S
C1 C2 1.395 . S
C1 C3 1.391 . S
C2 C1 1.395 . S
C2 C5 1.390 . S
C3 C1 1.391 . S
C3 C7 1.387 . S
C3 C8 1.491 . S
H4 C5 0.950 . S
C5 C2 1.390 . S
C5 H4 0.950 . S
C5 C6 1.378 . S
C6 C5 1.378 . S
C6 C7 1.409 . S
C7 C3 1.387 . S
C7 C6 1.409 . S
C7 H9 0.951 . S
C8 C3 1.491 . S
C8 C10 1.382 . S
C8 C12 1.404 . S
H9 C7 0.951 . S
C10 C8 1.382 . S
C10 C11 1.390 . S
C10 H15 0.949 . S
C11 C10 1.390 . S
C11 C16 1.399 . S
C12 C8 1.404 . S
C12 H13 0.950 . S
C12 C14 1.375 . S
H13 C12 0.950 . S
C14 C12 1.375 . S
C14 C16 1.382 . S
C14 H18 0.950 . S
H15 C10 0.949 . S
C16 C11 1.399 . S
C16 C14 1.382 . S
C16 H17 0.952 . S
H17 C16 0.952 . S
H18 C14 0.950 . S
H19 C20 0.949 . S
C20 H19 0.949 . S
C20 C21 1.395 . S
C20 C22 1.391 . S
C21 C20 1.395 . S
C21 C24 1.390 . S
C22 C20 1.391 . S
C22 C26 1.387 . S
C22 C27 1.491 . S
H23 C24 0.950 . S
C24 C21 1.390 . S
C24 H23 0.950 . S
C24 C25 1.378 . S
C25 C24 1.378 . S
C25 C26 1.409 . S
C26 C22 1.387 . S
C26 C25 1.409 . S
C26 H28 0.951 . S
C27 C22 1.491 . S
C27 C29 1.382 . S
C27 C31 1.404 . S
H28 C26 0.951 . S
C29 C27 1.382 . S
C29 C30 1.390 . S
C29 H34 0.949 . S
C30 C29 1.390 . S
C30 C35 1.399 . S
C31 C27 1.404 . S
C31 H32 0.950 . S
C31 C33 1.375 . S
H32 C31 0.950 . S
C33 C31 1.375 . S
C33 C35 1.382 . S
C33 H37 0.950 . S
H34 C29 0.949 . S
C35 C30 1.399 . S
C35 C33 1.382 . S
C35 H36 0.952 . S
H36 C35 0.952 . S
H37 C33 0.950 . S
H38 C39 0.949 . S
C39 H38 0.949 . S
C39 C40 1.395 . S
C39 C41 1.391 . S
C40 C39 1.395 . S
C40 C43 1.390 . S
C41 C39 1.391 . S
C41 C45 1.387 . S
C41 C46 1.491 . S
H42 C43 0.950 . S
C43 C40 1.390 . S
C43 H42 0.950 . S
C43 C44 1.378 . S
C44 C43 1.378 . S
C44 C45 1.409 . S
C45 C41 1.387 . S
C45 C44 1.409 . S
C45 H47 0.951 . S
C46 C41 1.491 . S
C46 C48 1.382 . S
C46 C50 1.404 . S
H47 C45 0.951 . S
C48 C46 1.382 . S
C48 C49 1.390 . S
C48 H53 0.949 . S
C49 C48 1.390 . S
C49 C54 1.399 . S
C50 C46 1.404 . S
C50 H51 0.950 . S
C50 C52 1.375 . S
H51 C50 0.950 . S
C52 C50 1.375 . S
C52 C54 1.382 . S
C52 H56 0.950 . S
H53 C48 0.949 . S
C54 C49 1.399 . S
C54 C52 1.382 . S
C54 H55 0.952 . S
H55 C54 0.952 . S
H56 C52 0.950 . S
H57 C58 0.949 . S
C58 H57 0.949 . S
C58 C59 1.395 . S
C58 C60 1.391 . S
C59 C58 1.395 . S
C59 C62 1.390 . S
C60 C58 1.391 . S
C60 C64 1.387 . S
C60 C65 1.491 . S
H61 C62 0.950 . S
C62 C59 1.390 . S
C62 H61 0.950 . S
C62 C63 1.378 . S
C63 C62 1.378 . S
C63 C64 1.409 . S
C64 C60 1.387 . S
C64 C63 1.409 . S
C64 H66 0.951 . S
C65 C60 1.491 . S
C65 C67 1.382 . S
C65 C69 1.404 . S
H66 C64 0.951 . S
C67 C65 1.382 . S
C67 C68 1.390 . S
C67 H72 0.949 . S
C68 C67 1.390 . S
C68 C73 1.399 . S
C69 C65 1.404 . S
C69 H70 0.950 . S
C69 C71 1.375 . S
H70 C69 0.950 . S
C71 C69 1.375 . S
C71 C73 1.382 . S
C71 H75 0.950 . S
H72 C67 0.949 . S
C73 C68 1.399 . S
C73 C71 1.382 . S
C73 H74 0.952 . S
H74 C73 0.952 . S
H75 C71 0.950 . S
H76 C77 0.949 . S
C77 H76 0.949 . S
C77 C78 1.395 . S
C77 C79 1.391 . S
C78 C77 1.395 . S
C78 C81 1.390 . S
C79 C77 1.391 . S
C79 C83 1.387 . S
C79 C84 1.491 . S
H80 C81 0.950 . S
C81 C78 1.390 . S
C81 H80 0.950 . S
C81 C82 1.378 . S
C82 C81 1.378 . S
C82 C83 1.409 . S
C83 C79 1.387 . S
C83 C82 1.409 . S
C83 H85 0.951 . S
C84 C79 1.491 . S
C84 C86 1.382 . S
C84 C88 1.404 . S
H85 C83 0.951 . S
C86 C84 1.382 . S
C86 C87 1.390 . S
C86 H91 0.949 . S
C87 C86 1.390 . S
C87 C92 1.399 . S
C88 C84 1.404 . S
C88 H89 0.950 . S
C88 C90 1.375 . S
H89 C88 0.950 . S
C90 C88 1.375 . S
C90 C92 1.382 . S
C90 H94 0.950 . S
H91 C86 0.949 . S
C92 C87 1.399 . S
C92 C90 1.382 . S
C92 H93 0.952 . S
H93 C92 0.952 . S
H94 C90 0.950 . S
H95 C96 0.949 . S
C96 H95 0.949 . S
C96 C97 1.395 . S
C96 C98 1.391 . S
C97 C96 1.395 . S
C97 C100 1.390 . S
C98 C96 1.391 . S
C98 C102 1.387 . S
C98 C103 1.491 . S
H99 C100 0.950 . S
C100 C97 1.390 . S
C100 H99 0.950 . S
C100 C101 1.378 . S
C101 C100 1.378 . S
C101 C102 1.409 . S
C102 C98 1.387 . S
C102 C101 1.409 . S
C102 H104 0.951 . S
C103 C98 1.491 . S
C103 C105 1.382 . S
C103 C107 1.404 . S
H104 C102 0.951 . S
C105 C103 1.382 . S
C105 C106 1.390 . S
C105 H110 0.949 . S
C106 C105 1.390 . S
C106 C111 1.399 . S
C107 C103 1.404 . S
C107 H108 0.950 . S
C107 C109 1.375 . S
H108 C107 0.950 . S
C109 C107 1.375 . S
C109 C111 1.382 . S
C109 H113 0.950 . S
H110 C105 0.949 . S
C111 C106 1.399 . S
C111 C109 1.382 . S
C111 H112 0.952 . S
H112 C111 0.952 . S
H113 C109 0.950 . S
H114 C115 0.949 . S
C115 H114 0.949 . S
C115 C116 1.395 . S
C115 C117 1.391 . S
C116 C115 1.395 . S
C116 C119 1.390 . S
C117 C115 1.391 . S
C117 C121 1.387 . S
C117 C122 1.491 . S
H118 C119 0.950 . S
C119 C116 1.390 . S
C119 H118 0.950 . S
C119 C120 1.378 . S
C120 C119 1.378 . S
C120 C121 1.409 . S
C121 C117 1.387 . S
C121 C120 1.409 . S
C121 H123 0.951 . S
C122 C117 1.491 . S
C122 C124 1.382 . S
C122 C126 1.404 . S
H123 C121 0.951 . S
C124 C122 1.382 . S
C124 C125 1.390 . S
C124 H129 0.949 . S
C125 C124 1.390 . S
C125 C130 1.399 . S
C126 C122 1.404 . S
C126 H127 0.950 . S
C126 C128 1.375 . S
H127 C126 0.950 . S
C128 C126 1.375 . S
C128 C130 1.382 . S
C128 H132 0.950 . S
H129 C124 0.949 . S
C130 C125 1.399 . S
C130 C128 1.382 . S
C130 H131 0.952 . S
H131 C130 0.952 . S
H132 C128 0.950 . S
H133 C134 0.949 . S
C134 H133 0.949 . S
C134 C135 1.395 . S
C134 C136 1.391 . S
C135 C134 1.395 . S
C135 C138 1.390 . S
C136 C134 1.391 . S
C136 C140 1.387 . S
C136 C141 1.491 . S
H137 C138 0.950 . S
C138 C135 1.390 . S
C138 H137 0.950 . S
C138 C139 1.378 . S
C139 C138 1.378 . S
C139 C140 1.409 . S
C140 C136 1.387 . S
C140 C139 1.409 . S
C140 H142 0.951 . S
C141 C136 1.491 . S
C141 C143 1.382 . S
C141 C145 1.404 . S
H142 C140 0.951 . S
C143 C141 1.382 . S
C143 C144 1.390 . S
C143 H148 0.949 . S
C144 C143 1.390 . S
C144 C149 1.399 . S
C145 C141 1.404 . S
C145 H146 0.950 . S
C145 C147 1.375 . S
H146 C145 0.950 . S
C147 C145 1.375 . S
C147 C149 1.382 . S
C147 H151 0.950 . S
H148 C143 0.949 . S
C149 C144 1.399 . S
C149 C147 1.382 . S
C149 H150 0.952 . S
H150 C149 0.952 . S
H151 C147 0.950 . S
Zn152 O158 1.969 . S
Zn152 O159 1.965 1_545 S
Zn152 O163 2.024 . S
Zn152 O168 1.969 . S
Zn153 O160 1.969 1_545 S
Zn153 O166 1.969 . S
Zn153 O167 1.965 1_655 S
Zn153 O169 2.024 1_545 S
C154 O155 1.229 . S
C154 O163 1.058 . S
O155 C154 1.229 . S
C156 O157 1.229 . S
C156 O169 1.058 . S
O157 C156 1.229 . S
O158 Zn152 1.969 . S
O158 C161 1.267 1_545 S
O159 Zn152 1.965 1_565 S
O159 C170 1.260 1_455 S
O160 Zn153 1.969 1_565 S
O160 C170 1.258 . S
C161 O158 1.267 1_565 S
C161 O162 1.229 . S
O162 C161 1.229 . S
O163 Zn152 2.024 . S
O163 C154 1.058 . S
C164 O165 1.228 . S
C164 O166 1.267 . S
O165 C164 1.228 . S
O166 Zn153 1.969 . S
O166 C164 1.267 . S
O167 Zn153 1.965 1_455 S
O167 C171 1.260 . S
O168 Zn152 1.969 . S
O168 C171 1.258 . S
O169 Zn153 2.024 1_565 S
O169 C156 1.058 . S
C170 O159 1.260 1_655 S
C170 O160 1.258 . S
C171 O167 1.260 . S
C171 O168 1.258 . S
Zn172 O178 1.969 . S
Zn172 O179 1.965 1_565 S
Zn172 O183 2.024 1_554 S
Zn172 O188 1.969 . S
Zn173 O180 1.969 . S
Zn173 O186 1.969 . S
Zn173 O187 1.965 1_545 S
Zn173 O189 2.024 . S
C174 O175 1.229 . S
C174 O183 1.058 . S
O175 C174 1.229 . S
C176 O177 1.229 . S
C176 O189 1.058 . S
O177 C176 1.229 . S
O178 Zn172 1.969 . S
O178 C181 1.267 1_554 S
O179 Zn172 1.965 1_545 S
O179 C190 1.260 . S
O180 Zn173 1.969 . S
O180 C190 1.258 . S
C181 O178 1.267 1_556 S
C181 O182 1.228 . S
O182 C181 1.228 . S
O183 Zn172 2.024 1_556 S
O183 C174 1.058 . S
C184 O185 1.228 . S
C184 O186 1.267 . S
O185 C184 1.228 . S
O186 Zn173 1.969 . S
O186 C184 1.267 . S
O187 Zn173 1.965 1_565 S
O187 C191 1.260 . S
O188 Zn172 1.969 . S
O188 C191 1.258 . S
O189 Zn173 2.024 . S
O189 C176 1.058 . S
C190 O179 1.260 . S
C190 O180 1.258 . S
C191 O187 1.260 . S
C191 O188 1.258 . S
Zn192 O198 1.969 . S
Zn192 O199 1.965 . S
Zn192 O203 2.024 . S
Zn192 O208 1.969 . S
Zn193 O200 1.969 . S
Zn193 O206 1.969 . S
Zn193 O207 1.965 . S
Zn193 O209 2.024 . S
C194 O195 1.229 . S
C194 O203 1.058 . S
O195 C194 1.229 . S
C196 O197 1.229 . S
C196 O209 1.058 . S
O197 C196 1.229 . S
O198 Zn192 1.969 . S
O198 C201 1.267 . S
O199 Zn192 1.965 . S
O199 C210 1.260 . S
O200 Zn193 1.969 . S
O200 C210 1.258 . S
C201 O198 1.267 . S
C201 O202 1.228 . S
O202 C201 1.228 . S
O203 Zn192 2.024 . S
O203 C194 1.058 . S
C204 O205 1.228 . S
C204 O206 1.267 . S
O205 C204 1.228 . S
O206 Zn193 1.969 . S
O206 C204 1.267 . S
O207 Zn193 1.965 . S
O207 C211 1.260 . S
O208 Zn192 1.969 . S
O208 C211 1.258 . S
O209 Zn193 2.024 . S
O209 C196 1.058 . S
C210 O199 1.260 . S
C210 O200 1.258 . S
C211 O207 1.260 . S
C211 O208 1.258 . S
Zn212 O218 1.971 1_655 S
Zn212 O219 1.965 1_656 S
Zn212 O223 2.024 . S
Zn212 O228 1.969 1_655 S
Zn213 O220 1.969 . S
Zn213 O226 1.969 . S
Zn213 O227 1.965 1_554 S
Zn213 O229 2.024 . S
C214 O215 1.229 . S
C214 O223 1.058 . S
O215 C214 1.229 . S
C216 O217 1.229 . S
C216 O229 1.058 . S
O217 C216 1.229 . S
O218 Zn212 1.971 1_455 S
O218 C221 1.245 1_455 S
O219 Zn212 1.965 1_454 S
O219 C230 1.260 . S
O220 Zn213 1.969 . S
O220 C230 1.258 . S
C221 O218 1.245 1_655 S
C221 O222 1.228 . S
O222 C221 1.228 . S
O223 Zn212 2.024 . S
O223 C214 1.058 . S
C224 O225 1.228 . S
C224 O226 1.267 . S
O225 C224 1.228 . S
O226 Zn213 1.969 . S
O226 C224 1.267 . S
O227 Zn213 1.965 1_556 S
O227 C231 1.260 . S
O228 Zn212 1.969 1_455 S
O228 C231 1.258 . S
O229 Zn213 2.024 . S
O229 C216 1.058 . S
C230 O219 1.260 . S
C230 O220 1.258 . S
C231 O227 1.260 . S
C231 O228 1.258 . S
C232 C233 1.369 . S
C232 C234 1.419 . S
C232 H236 0.930 . S
C233 C232 1.369 . S
C233 C242 1.429 . S
C234 C232 1.419 . S
C234 C235 1.363 . S
C234 H237 0.929 . S
C235 C234 1.363 . S
C235 C241 1.428 . S
H236 C232 0.930 . S
H237 C234 0.929 . S
S238 N239 1.613 . S
S238 N240 1.610 . S
N239 S238 1.613 . S
N239 C242 1.350 . S
N240 S238 1.610 . S
N240 C241 1.351 . S
C241 C235 1.428 . S
C241 N240 1.351 . S
C241 C242 1.434 . S
C242 C233 1.429 . S
C242 N239 1.350 . S
C242 C241 1.434 . S
C243 C244 1.369 . S
C243 C245 1.419 . S
C243 H247 0.930 . S
C244 C243 1.369 . S
C244 C253 1.429 . S
C245 C243 1.419 . S
C245 C246 1.363 . S
C245 H248 0.929 . S
C246 C245 1.363 . S
C246 C252 1.428 . S
H247 C243 0.930 . S
H248 C245 0.929 . S
S249 N250 1.613 . S
S249 N251 1.610 . S
N250 S249 1.613 . S
N250 C253 1.350 . S
N251 S249 1.610 . S
N251 C252 1.351 . S
C252 C246 1.428 . S
C252 N251 1.351 . S
C252 C253 1.434 . S
C253 C244 1.429 . S
C253 N250 1.350 . S
C253 C252 1.434 . S
C254 C255 1.369 . S
C254 C256 1.419 . S
C254 H258 0.930 . S
C255 C254 1.369 . S
C255 C264 1.429 . S
C256 C254 1.419 . S
C256 C257 1.363 . S
C256 H259 0.929 . S
C257 C256 1.363 . S
C257 C263 1.428 . S
H258 C254 0.930 . S
H259 C256 0.929 . S
S260 N261 1.613 . S
S260 N262 1.610 . S
N261 S260 1.613 . S
N261 C264 1.350 . S
N262 S260 1.610 . S
N262 C263 1.351 . S
C263 C257 1.428 . S
C263 N262 1.351 . S
C263 C264 1.434 . S
C264 C255 1.429 . S
C264 N261 1.350 . S
C264 C263 1.434 . S
C265 C266 1.369 . S
C265 C267 1.419 . S
C265 H269 0.930 . S
C266 C265 1.369 . S
C266 C275 1.429 . S
C267 C265 1.419 . S
C267 C268 1.363 . S
C267 H270 0.929 1_655 S
C268 C267 1.363 . S
C268 C274 1.428 . S
H269 C265 0.930 . S
H270 C267 0.929 1_455 S
S271 N272 1.613 . S
S271 N273 1.610 . S
N272 S271 1.613 . S
N272 C275 1.350 . S
N273 S271 1.610 . S
N273 C274 1.351 . S
C274 C268 1.428 . S
C274 N273 1.351 . S
C274 C275 1.434 . S
C275 C266 1.429 . S
C275 N272 1.350 . S
C275 C274 1.434 . S
C276 C277 1.369 . S
C276 C278 1.419 . S
C276 H280 0.930 . S
C277 C276 1.369 . S
C277 C286 1.429 . S
C278 C276 1.419 . S
C278 C279 1.363 . S
C278 H281 0.929 . S
C279 C278 1.363 . S
C279 C285 1.428 . S
H280 C276 0.930 . S
H281 C278 0.929 . S
S282 N283 1.613 . S
S282 N284 1.610 . S
N283 S282 1.613 . S
N283 C286 1.350 . S
N284 S282 1.610 . S
N284 C285 1.351 . S
C285 C279 1.428 . S
C285 N284 1.351 . S
C285 C286 1.434 . S
C286 C277 1.429 . S
C286 N283 1.350 . S
C286 C285 1.434 . S
C287 C288 1.369 . S
C287 C289 1.419 . S
C287 H291 0.930 . S
C288 C287 1.369 . S
C288 C297 1.429 . S
C289 C287 1.419 . S
C289 C290 1.363 . S
C289 H292 0.929 1_565 S
C290 C289 1.363 . S
C290 C296 1.428 . S
H291 C287 0.930 . S
H292 C289 0.929 1_545 S
S293 N294 1.613 . S
S293 N295 1.610 . S
N294 S293 1.613 . S
N294 C297 1.350 . S
N295 S293 1.610 . S
N295 C296 1.351 . S
C296 C290 1.428 . S
C296 N295 1.351 . S
C296 C297 1.434 . S
C297 C288 1.429 . S
C297 N294 1.350 . S
C297 C296 1.434 . S
C298 C299 1.369 . S
C298 C300 1.419 . S
C298 H302 0.930 . S
C299 C298 1.369 . S
C299 C308 1.429 . S
C300 C298 1.419 . S
C300 C301 1.363 . S
C300 H303 0.929 . S
C301 C300 1.363 . S
C301 C307 1.428 . S
H302 C298 0.930 . S
H303 C300 0.929 . S
S304 N305 1.613 . S
S304 N306 1.610 . S
N305 S304 1.613 . S
N305 C308 1.350 . S
N306 S304 1.610 . S
N306 C307 1.351 . S
C307 C301 1.428 . S
C307 N306 1.351 . S
C307 C308 1.434 . S
C308 C299 1.429 . S
C308 N305 1.350 . S
C308 C307 1.434 . S
C309 C310 1.369 . S
C309 C311 1.419 . S
C309 H313 0.930 . S
C310 C309 1.369 . S
C310 C319 1.429 . S
C311 C309 1.419 . S
C311 C312 1.363 . S
C311 H314 0.929 . S
C312 C311 1.363 . S
C312 C318 1.428 . S
H313 C309 0.930 . S
H314 C311 0.929 . S
S315 N316 1.613 . S
S315 N317 1.610 . S
N316 S315 1.613 . S
N316 C319 1.350 . S
N317 S315 1.610 . S
N317 C318 1.351 . S
C318 C312 1.428 . S
C318 N317 1.351 . S
C318 C319 1.434 . S
C319 C310 1.429 . S
C319 N316 1.350 . S
C319 C318 1.434 . S
C320 C321 1.369 . S
C320 C322 1.419 . S
C320 H324 0.930 . S
C321 C320 1.369 . S
C321 C330 1.429 . S
C322 C320 1.419 . S
C322 C323 1.363 . S
C322 H325 0.929 . S
C323 C322 1.363 . S
C323 C329 1.428 . S
H324 C320 0.930 . S
H325 C322 0.929 . S
S326 N327 1.613 . S
S326 N328 1.610 . S
N327 S326 1.613 . S
N327 C330 1.350 . S
N328 S326 1.610 . S
N328 C329 1.351 . S
C329 C323 1.428 . S
C329 N328 1.351 . S
C329 C330 1.434 . S
C330 C321 1.429 . S
C330 N327 1.350 . S
C330 C329 1.434 . S
C331 C332 1.369 . S
C331 C333 1.419 . S
C331 H335 0.930 . S
C332 C331 1.369 . S
C332 C341 1.429 . S
C333 C331 1.419 . S
C333 C334 1.363 . S
C333 H336 0.929 . S
C334 C333 1.363 . S
C334 C340 1.424 1_556 S
H335 C331 0.930 . S
H336 C333 0.929 . S
S337 N338 1.613 1_554 S
S337 N339 1.610 . S
N338 S337 1.613 1_556 S
N338 C341 1.350 . S
N339 S337 1.610 . S
N339 C340 1.365 . S
C340 C334 1.424 1_554 S
C340 N339 1.365 . S
C340 C341 1.425 1_554 S
C341 C332 1.429 . S
C341 N338 1.350 . S
C341 C340 1.425 1_556 S
C342 C343 1.369 . S
C342 C344 1.419 . S
C342 H346 0.930 . S
C343 C342 1.369 . S
C343 C352 1.429 . S
C344 C342 1.419 . S
C344 C345 1.363 . S
C344 H347 0.929 . S
C345 C344 1.363 . S
C345 C351 1.428 . S
H346 C342 0.930 . S
H347 C344 0.929 . S
S348 N349 1.613 . S
S348 N350 1.610 . S
N349 S348 1.613 . S
N349 C352 1.350 . S
N350 S348 1.610 . S
N350 C351 1.351 . S
C351 C345 1.428 . S
C351 N350 1.351 . S
C351 C352 1.434 . S
C352 C343 1.429 . S
C352 N349 1.350 . S
C352 C351 1.434 . S
C353 C354 1.369 . S
C353 C355 1.419 . S
C353 H357 0.930 . S
C354 C353 1.369 . S
C354 C363 1.429 . S
C355 C353 1.419 . S
C355 C356 1.363 . S
C355 H358 0.929 . S
C356 C355 1.363 . S
C356 C362 1.428 . S
H357 C353 0.930 . S
H358 C355 0.929 . S
S359 N360 1.613 . S
S359 N361 1.610 . S
N360 S359 1.613 . S
N360 C363 1.350 . S
N361 S359 1.610 . S
N361 C362 1.351 . S
C362 C356 1.428 . S
C362 N361 1.351 . S
C362 C363 1.434 . S
C363 C354 1.429 . S
C363 N360 1.350 . S
C363 C362 1.434 . S
C364 C365 1.369 . S
C364 C366 1.419 . S
C364 H368 0.930 . S
C365 C364 1.369 . S
C365 C374 1.429 . S
C366 C364 1.419 . S
C366 C367 1.363 . S
C366 H369 0.929 . S
C367 C366 1.363 . S
C367 C373 1.428 . S
H368 C364 0.930 . S
H369 C366 0.929 . S
S370 N371 1.613 . S
S370 N372 1.610 . S
N371 S370 1.613 . S
N371 C374 1.350 . S
N372 S370 1.610 . S
N372 C373 1.351 . S
C373 C367 1.428 . S
C373 N372 1.351 . S
C373 C374 1.434 . S
C374 C365 1.429 . S
C374 N371 1.350 . S
C374 C373 1.434 . S
C375 C376 1.369 . S
C375 C377 1.419 . S
C375 H379 0.930 . S
C376 C375 1.369 . S
C376 C385 1.429 . S
C377 C375 1.419 . S
C377 C378 1.363 . S
C377 H380 0.929 . S
C378 C377 1.363 . S
C378 C384 1.428 . S
H379 C375 0.930 . S
H380 C377 0.929 . S
S381 N382 1.613 . S
S381 N383 1.610 . S
N382 S381 1.613 . S
N382 C385 1.350 . S
N383 S381 1.610 . S
N383 C384 1.351 . S
C384 C378 1.428 . S
C384 N383 1.351 . S
C384 C385 1.434 . S
C385 C376 1.429 . S
C385 N382 1.350 . S
C385 C384 1.434 . S
C386 C387 1.369 . S
C386 C388 1.419 . S
C386 H390 0.930 . S
C387 C386 1.369 . S
C387 C396 1.429 . S
C388 C386 1.419 . S
C388 C389 1.363 . S
C388 H391 0.929 . S
C389 C388 1.363 . S
C389 C395 1.428 . S
H390 C386 0.930 . S
H391 C388 0.929 . S
S392 N393 1.613 . S
S392 N394 1.610 . S
N393 S392 1.613 . S
N393 C396 1.350 . S
N394 S392 1.610 . S
N394 C395 1.351 . S
C395 C389 1.428 . S
C395 N394 1.351 . S
C395 C396 1.434 . S
C396 C387 1.429 . S
C396 N393 1.350 . S
C396 C395 1.434 . S
C397 C398 1.369 . S
C397 C399 1.419 . S
C397 H401 0.930 . S
C398 C397 1.369 . S
C398 C407 1.429 . S
C399 C397 1.419 . S
C399 C400 1.363 . S
C399 H402 0.929 . S
C400 C399 1.363 . S
C400 C406 1.428 . S
H401 C397 0.930 . S
H402 C399 0.929 . S
S403 N404 1.613 1_655 S
S403 N405 1.610 1_655 S
N404 S403 1.613 1_455 S
N404 C407 1.350 . S
N405 S403 1.610 1_455 S
N405 C406 1.351 . S
C406 C400 1.428 . S
C406 N405 1.351 . S
C406 C407 1.434 . S
C407 C398 1.429 . S
C407 N404 1.350 . S
C407 C406 1.434 . S
C408 C409 1.369 . S
C408 C410 1.419 . S
C408 H412 0.930 . S
C409 C408 1.369 . S
C409 C418 1.429 . S
C410 C408 1.419 . S
C410 C411 1.363 . S
C410 H413 0.929 . S
C411 C410 1.363 . S
C411 C417 1.428 . S
H412 C408 0.930 . S
H413 C410 0.929 . S
S414 N415 1.613 1_545 S
S414 N416 1.610 . S
N415 S414 1.613 1_565 S
N415 C418 1.350 . S
N416 S414 1.610 . S
N416 C417 1.351 1_545 S
C417 C411 1.428 . S
C417 N416 1.351 1_565 S
C417 C418 1.434 . S
C418 C409 1.429 . S
C418 N415 1.350 . S
C418 C417 1.434 . S
C419 C420 1.369 . S
C419 C421 1.419 . S
C419 H423 0.930 . S
C420 C419 1.369 . S
C420 C429 1.429 . S
C421 C419 1.419 . S
C421 C422 1.363 . S
C421 H424 0.929 . S
C422 C421 1.363 . S
C422 C428 1.428 . S
H423 C419 0.930 . S
H424 C421 0.929 . S
S425 N426 1.613 . S
S425 N427 1.610 . S
N426 S425 1.613 . S
N426 C429 1.350 . S
N427 S425 1.610 . S
N427 C428 1.351 . S
C428 C422 1.428 . S
C428 N427 1.351 . S
C428 C429 1.434 . S
C429 C420 1.429 . S
C429 N426 1.350 . S
C429 C428 1.434 . S
C430 C431 1.369 . S
C430 C432 1.419 . S
C430 H434 0.930 . S
C431 C430 1.369 . S
C431 C440 1.429 . S
C432 C430 1.419 . S
C432 C433 1.363 . S
C432 H435 0.929 . S
C433 C432 1.363 . S
C433 C439 1.428 . S
H434 C430 0.930 . S
H435 C432 0.929 . S
S436 N437 1.613 . S
S436 N438 1.610 . S
N437 S436 1.613 . S
N437 C440 1.350 . S
N438 S436 1.610 . S
N438 C439 1.351 . S
C439 C433 1.428 . S
C439 N438 1.351 . S
C439 C440 1.434 . S
C440 C431 1.429 . S
C440 N437 1.350 . S
C440 C439 1.434 . S
C441 C442 1.369 . S
C441 C443 1.419 . S
C441 H445 0.930 . S
C442 C441 1.369 . S
C442 C451 1.429 . S
C443 C441 1.419 . S
C443 C444 1.363 . S
C443 H446 0.929 . S
C444 C443 1.363 . S
C444 C450 1.428 . S
H445 C441 0.930 . S
H446 C443 0.929 . S
S447 N448 1.613 . S
S447 N449 1.610 . S
N448 S447 1.613 . S
N448 C451 1.350 . S
N449 S447 1.610 . S
N449 C450 1.351 . S
C450 C444 1.428 . S
C450 N449 1.351 . S
C450 C451 1.434 . S
C451 C442 1.429 . S
C451 N448 1.350 . S
C451 C450 1.434 . S
C452 C453 1.369 . S
C452 C454 1.419 . S
C452 H456 0.930 . S
C453 C452 1.369 . S
C453 C462 1.429 . S
C454 C452 1.419 . S
C454 C455 1.363 . S
C454 H457 0.929 . S
C455 C454 1.363 . S
C455 C461 1.428 . S
H456 C452 0.930 . S
H457 C454 0.929 . S
S458 N459 1.613 . S
S458 N460 1.610 . S
N459 S458 1.613 . S
N459 C462 1.350 . S
N460 S458 1.610 . S
N460 C461 1.351 . S
C461 C455 1.428 . S
C461 N460 1.351 . S
C461 C462 1.434 . S
C462 C453 1.429 . S
C462 N459 1.350 . S
C462 C461 1.434 . S
C463 C464 1.369 . S
C463 C465 1.419 . S
C463 H467 0.930 . S
C464 C463 1.369 . S
C464 C473 1.429 . S
C465 C463 1.419 . S
C465 C466 1.363 . S
C465 H468 0.929 . S
C466 C465 1.363 . S
C466 C472 1.428 . S
H467 C463 0.930 . S
H468 C465 0.929 . S
S469 N470 1.613 . S
S469 N471 1.610 . S
N470 S469 1.613 . S
N470 C473 1.350 . S
N471 S469 1.610 . S
N471 C472 1.351 . S
C472 C466 1.428 . S
C472 N471 1.351 . S
C472 C473 1.434 . S
C473 C464 1.429 . S
C473 N470 1.350 . S
C473 C472 1.434 . S
C474 C475 1.369 . S
C474 C476 1.419 . S
C474 H478 0.930 . S
C475 C474 1.369 . S
C475 C484 1.429 . S
C476 C474 1.419 . S
C476 C477 1.363 . S
C476 H479 0.929 . S
C477 C476 1.363 . S
C477 C483 1.428 . S
H478 C474 0.930 . S
H479 C476 0.929 . S
S480 N481 1.613 . S
S480 N482 1.610 . S
N481 S480 1.613 . S
N481 C484 1.350 . S
N482 S480 1.610 . S
N482 C483 1.351 . S
C483 C477 1.428 . S
C483 N482 1.351 . S
C483 C484 1.434 . S
C484 C475 1.429 . S
C484 N481 1.350 . S
C484 C483 1.434 . S
C485 C486 1.369 . S
C485 C487 1.419 . S
C485 H489 0.930 . S
C486 C485 1.369 . S
C486 C495 1.429 . S
C487 C485 1.419 . S
C487 C488 1.363 . S
C487 H490 0.929 . S
C488 C487 1.363 . S
C488 C494 1.428 . S
H489 C485 0.930 . S
H490 C487 0.929 . S
S491 N492 1.613 . S
S491 N493 1.610 . S
N492 S491 1.613 . S
N492 C495 1.350 . S
N493 S491 1.610 . S
N493 C494 1.351 . S
C494 C488 1.428 . S
C494 N493 1.351 . S
C494 C495 1.434 . S
C495 C486 1.429 . S
C495 N492 1.350 . S
C495 C494 1.434 . S
C233 C6 1.727 . S
C235 C171 1.736 . S
C244 C21 1.660 . S
C246 C174 1.598 . S
C257 C210 1.301 . S
C255 C49 1.214 . S
C266 C68 1.522 . S
C268 C230 1.558 1_655 S
C279 C184 2.198 . S
C277 C2 2.199 . S
C290 C161 1.236 . S
C288 C30 1.173 . S
C301 C214 1.466 . S
C299 C40 1.505 . S
C312 C194 1.273 . S
C310 C63 1.445 . S
C321 C11 1.341 . S
C323 C224 1.361 . S
C334 C190 1.826 1_556 S
C332 C44 1.849 . S
C343 C59 1.395 . S
C345 C156 1.379 . S
C354 C25 1.597 . S
C356 C204 1.510 . S
C367 C170 1.796 . S
C365 C82 1.803 . S
C376 C101 1.472 . S
C378 C176 1.464 . S
C387 C125 1.576 . S
C389 C211 1.673 . S
C398 C144 1.400 . S
C400 C231 1.350 . S
C409 C87 1.432 . S
C411 C181 1.434 . S
C422 C164 2.071 . S
C420 C97 2.043 . S
C433 C216 1.378 . S
C431 C120 1.608 . S
C444 C196 1.349 . S
C442 C135 1.361 . S
C453 C78 1.745 . S
C455 C221 1.602 . S
C466 C191 1.421 . S
C464 C116 1.414 . S
C477 C154 1.742 . S
C475 C139 1.804 . S
C486 C106 1.176 . S
C488 C201 1.281 . S
