# Generated by pormake.
# Topology pyr, (3,6)-cn, num edge types: 1
# Building blocks:
#     Node 0, Type 0, BuildingBlock: CUQRIR_clean_linker_1, # of connection points: 3
#     Node 1, Type 0, BuildingBlock: CUQRIR_clean_linker_1, # of connection points: 3
#     Node 2, Type 0, BuildingBlock: CUQRIR_clean_linker_1, # of connection points: 3
#     Node 3, Type 0, BuildingBlock: CUQRIR_clean_linker_1, # of connection points: 3
#     Node 4, Type 0, BuildingBlock: CUQRIR_clean_linker_1, # of connection points: 3
#     Node 5, Type 0, BuildingBlock: CUQRIR_clean_linker_1, # of connection points: 3
#     Node 6, Type 0, BuildingBlock: CUQRIR_clean_linker_1, # of connection points: 3
#     Node 7, Type 0, BuildingBlock: CUQRIR_clean_linker_1, # of connection points: 3
#     Node 8, Type 1, BuildingBlock: VOLQOD_clean_sbu_1, # of connection points: 6
#     Node 9, Type 1, BuildingBlock: VOLQOD_clean_sbu_1, # of connection points: 6
#     Node 10, Type 1, BuildingBlock: VOLQOD_clean_sbu_1, # of connection points: 6
#     Node 11, Type 1, BuildingBlock: VOLQOD_clean_sbu_1, # of connection points: 6
#     Edge 12, Type (0, 1), BuildingBlock: TEMPAE_clean_linker_10, # of connection points: 2
#     Edge 13, Type (0, 1), BuildingBlock: TEMPAE_clean_linker_10, # of connection points: 2
#     Edge 14, Type (0, 1), BuildingBlock: TEMPAE_clean_linker_10, # of connection points: 2
#     Edge 15, Type (0, 1), BuildingBlock: TEMPAE_clean_linker_10, # of connection points: 2
#     Edge 16, Type (0, 1), BuildingBlock: TEMPAE_clean_linker_10, # of connection points: 2
#     Edge 17, Type (0, 1), BuildingBlock: TEMPAE_clean_linker_10, # of connection points: 2
#     Edge 18, Type (0, 1), BuildingBlock: TEMPAE_clean_linker_10, # of connection points: 2
#     Edge 19, Type (0, 1), BuildingBlock: TEMPAE_clean_linker_10, # of connection points: 2
#     Edge 20, Type (0, 1), BuildingBlock: TEMPAE_clean_linker_10, # of connection points: 2
#     Edge 21, Type (0, 1), BuildingBlock: TEMPAE_clean_linker_10, # of connection points: 2
#     Edge 22, Type (0, 1), BuildingBlock: TEMPAE_clean_linker_10, # of connection points: 2
#     Edge 23, Type (0, 1), BuildingBlock: TEMPAE_clean_linker_10, # of connection points: 2
#     Edge 24, Type (0, 1), BuildingBlock: TEMPAE_clean_linker_10, # of connection points: 2
#     Edge 25, Type (0, 1), BuildingBlock: TEMPAE_clean_linker_10, # of connection points: 2
#     Edge 26, Type (0, 1), BuildingBlock: TEMPAE_clean_linker_10, # of connection points: 2
#     Edge 27, Type (0, 1), BuildingBlock: TEMPAE_clean_linker_10, # of connection points: 2
#     Edge 28, Type (0, 1), BuildingBlock: TEMPAE_clean_linker_10, # of connection points: 2
#     Edge 29, Type (0, 1), BuildingBlock: TEMPAE_clean_linker_10, # of connection points: 2
#     Edge 30, Type (0, 1), BuildingBlock: TEMPAE_clean_linker_10, # of connection points: 2
#     Edge 31, Type (0, 1), BuildingBlock: TEMPAE_clean_linker_10, # of connection points: 2
#     Edge 32, Type (0, 1), BuildingBlock: TEMPAE_clean_linker_10, # of connection points: 2
#     Edge 33, Type (0, 1), BuildingBlock: TEMPAE_clean_linker_10, # of connection points: 2
#     Edge 34, Type (0, 1), BuildingBlock: TEMPAE_clean_linker_10, # of connection points: 2
#     Edge 35, Type (0, 1), BuildingBlock: TEMPAE_clean_linker_10, # of connection points: 2
# Relax obj value: 0.117
# Max RMSD: 0.211
# Mean RMSD: 0.164
data_MOF--net-pry--node1-VOLQOD_clean_sbu_1--node2-CUQRIR_clean_linker_1--edge1-TEMPAE_clean_linker_10
_symmetry_space_group_name_H-M    P1
_symmetry_Int_Tables_number       1
_symmetry_cell_setting            triclinic
loop_
_symmetry_equiv_pos_as_xyz
'x, y, z'
_cell_length_a     34.94942
_cell_length_b     34.863645
_cell_length_c     34.449982
_cell_angle_alpha  88.25057
_cell_angle_beta   92.057189
_cell_angle_gamma 94.012449
loop_
_atom_site_label
_atom_site_type_symbol
_atom_site_fract_x
_atom_site_fract_y
_atom_site_fract_z
_atom_type_partial_charge
C0 C 0.12793 0.1869 0.15811 0.0
N1 N 0.15537 0.16226 0.167 0.0
N2 N 0.13154 0.20119 0.12142 0.0
C3 C 0.09812 0.19788 0.18546 0.0
C4 C 0.16207 0.18426 0.10821 0.0
N5 N 0.17614 0.16006 0.13576 0.0
C6 C 0.17975 0.19318 0.06956 0.0
H7 H 0.07173 0.20598 0.16936 0.0
H8 H 0.10981 0.2231 0.20208 0.0
H9 H 0.09053 0.17387 0.20628 0.0
H10 H 0.21025 0.20363 0.07423 0.0
H11 H 0.16431 0.21502 0.05234 0.0
H12 H 0.17927 0.16647 0.0528 0.0
C13 C 0.39619 0.86291 0.64946 0.0
N14 N 0.38752 0.89068 0.67373 0.0
N15 N 0.4217 0.83991 0.66686 0.0
C16 C 0.3765 0.85541 0.61049 0.0
C17 C 0.42766 0.85409 0.70287 0.0
N18 N 0.40664 0.88478 0.70715 0.0
C19 C 0.45482 0.83872 0.73342 0.0
H20 H 0.37712 0.82481 0.60275 0.0
H21 H 0.39151 0.87348 0.5879 0.0
H22 H 0.34614 0.86286 0.61037 0.0
H23 H 0.47727 0.8229 0.72013 0.0
H24 H 0.43836 0.81868 0.7533 0.0
H25 H 0.46861 0.86244 0.75089 0.0
C26 C 0.57191 0.38524 0.90725 0.0
N27 N 0.59648 0.38174 0.93809 0.0
N28 N 0.57903 0.41928 0.88818 0.0
C29 C 0.54344 0.35384 0.89338 0.0
C30 C 0.60894 0.43642 0.90868 0.0
N31 N 0.61945 0.41367 0.93926 0.0
C32 C 0.63213 0.47203 0.8951 0.0
H33 H 0.55829 0.33416 0.8752 0.0
H34 H 0.5199 0.36604 0.87555 0.0
H35 H 0.53135 0.33686 0.91841 0.0
H36 H 0.61796 0.48666 0.87003 0.0
H37 H 0.66084 0.46409 0.88667 0.0
H38 H 0.63655 0.49239 0.91923 0.0
C39 C 0.88104 0.6214 0.3578 0.0
N40 N 0.91063 0.64731 0.34999 0.0
N41 N 0.8672 0.62719 0.39311 0.0
C42 C 0.8641 0.59188 0.33003 0.0
C43 C 0.88915 0.65777 0.4064 0.0
N44 N 0.91565 0.67012 0.38021 0.0
C45 C 0.88247 0.67741 0.44359 0.0
H46 H 0.8434 0.60559 0.30975 0.0
H47 H 0.84862 0.56768 0.34587 0.0
H48 H 0.88684 0.58076 0.31265 0.0
H49 H 0.87166 0.65619 0.46596 0.0
H50 H 0.86041 0.69848 0.43798 0.0
H51 H 0.90925 0.69292 0.45476 0.0
C52 C 0.87858 0.90685 0.92292 0.0
N53 N 0.90566 0.90064 0.89709 0.0
N54 N 0.86038 0.93882 0.91252 0.0
C55 C 0.8661 0.87874 0.95496 0.0
C56 C 0.87682 0.95136 0.87906 0.0
N57 N 0.90408 0.92797 0.8695 0.0
C58 C 0.867 0.987 0.85619 0.0
H59 H 0.87143 0.84882 0.94775 0.0
H60 H 0.83511 0.87983 0.96037 0.0
H61 H 0.88265 0.88619 0.98209 0.0
H62 H 0.85507 0.00803 0.8752 0.0
H63 H 0.84521 0.97904 0.83309 0.0
H64 H 0.89279 0.00056 0.84203 0.0
C65 C 0.67994 0.14819 0.45893 0.0
N66 N 0.69011 0.11779 0.43895 0.0
N67 N 0.64177 0.15239 0.45409 0.0
C68 C 0.70771 0.17565 0.48037 0.0
C69 C 0.62927 0.12289 0.43116 0.0
N70 N 0.65855 0.10192 0.42176 0.0
C71 C 0.58898 0.11682 0.41439 0.0
H72 H 0.6941 0.18835 0.50501 0.0
H73 H 0.71743 0.19941 0.4601 0.0
H74 H 0.73315 0.161 0.49171 0.0
H75 H 0.58793 0.12865 0.38412 0.0
H76 H 0.56832 0.1312 0.43178 0.0
H77 H 0.58036 0.08562 0.41341 0.0
C78 C 0.38795 0.57835 0.10664 0.0
N79 N 0.41127 0.60397 0.12665 0.0
N80 N 0.37096 0.5954 0.07531 0.0
C81 C 0.3801 0.53678 0.11873 0.0
C82 C 0.38574 0.63231 0.07643 0.0
N83 N 0.41 0.63756 0.10763 0.0
C84 C 0.37249 0.66431 0.04995 0.0
H85 H 0.37159 0.51929 0.09304 0.0
H86 H 0.35628 0.53398 0.13925 0.0
H87 H 0.40589 0.52556 0.13362 0.0
H88 H 0.34402 0.67229 0.05905 0.0
H89 H 0.36933 0.65473 0.01957 0.0
H90 H 0.39297 0.69008 0.05085 0.0
C91 C 0.07964 0.40347 0.62304 0.0
N92 N 0.10804 0.39454 0.59992 0.0
N93 N 0.08492 0.44057 0.63394 0.0
C94 C 0.04909 0.37488 0.63839 0.0
C95 C 0.11775 0.45361 0.61661 0.0
N96 N 0.13206 0.42553 0.5963 0.0
C97 C 0.13532 0.49418 0.61862 0.0
H98 H 0.02109 0.38082 0.62412 0.0
H99 H 0.0466 0.378 0.67015 0.0
H100 H 0.05498 0.34478 0.63264 0.0
H101 H 0.1575 0.496 0.64245 0.0
H102 H 0.11319 0.51443 0.62438 0.0
H103 H 0.14941 0.50283 0.59104 0.0
O104 O 0.04884 0.09835 0.55373 0.0
Zn105 Zn 0.02466 0.04446 0.54605 0.0
O106 O 0.05674 0.01399 0.51558 0.0
Zn107 Zn 0.03162 0.00469 0.46504 0.0
Zn108 Zn 0.10604 0.0428 0.50845 0.0
Zn109 Zn 0.06521 0.96473 0.54231 0.0
O110 O 0.02671 0.94813 0.45431 0.0
O111 O 0.04777 0.9194 0.50866 0.0
O112 O 0.97303 0.04986 0.51892 0.0
O113 O 0.9783 0.0243 0.46133 0.0
O114 O 0.06333 0.02957 0.42279 0.0
O115 O 0.11966 0.04586 0.45195 0.0
O116 O 0.14787 0.01925 0.54067 0.0
O117 O 0.01543 0.01845 0.59818 0.0
O118 O 0.12131 0.96181 0.55833 0.0
O119 O 0.03703 0.96045 0.59257 0.0
C120 C 0.08041 0.1153 0.5431 0.0
C121 C 0.03374 0.91777 0.47399 0.0
C122 C 0.09834 0.04222 0.42131 0.0
C123 C 0.95886 0.04117 0.48546 0.0
C124 C 0.14999 0.98649 0.55764 0.0
C125 C 0.02044 0.98472 0.61189 0.0
O126 O 0.10456 0.09744 0.52509 0.0
O127 O 0.51472 0.09959 0.02432 0.0
Zn128 Zn 0.48733 0.04691 0.03151 0.0
O129 O 0.51832 0.01337 0.06432 0.0
Zn130 Zn 0.52919 0.96881 0.03487 0.0
Zn131 Zn 0.56672 0.04129 0.07845 0.0
Zn132 Zn 0.49179 0.99702 0.11212 0.0
O133 O 0.50933 0.92012 0.06183 0.0
O134 O 0.48242 0.93891 0.11502 0.0
O135 O 0.47314 0.02431 0.97856 0.0
O136 O 0.50331 0.97034 0.98195 0.0
O137 O 0.58574 0.96684 0.026 0.0
O138 O 0.61008 0.0217 0.05069 0.0
O139 O 0.57917 0.03569 0.13552 0.0
O140 O 0.43876 0.05526 0.05817 0.0
O141 O 0.52438 0.01145 0.16011 0.0
O142 O 0.44076 0.02152 0.11397 0.0
C143 C 0.54483 0.11591 0.04027 0.0
C144 C 0.49139 0.91248 0.09295 0.0
C145 C 0.61394 0.99124 0.03232 0.0
C146 C 0.48221 0.99344 0.96337 0.0
C147 C 0.55917 0.02461 0.16442 0.0
C148 C 0.42392 0.04412 0.09018 0.0
O149 O 0.56637 0.09734 0.06351 0.0
O150 O 0.54504 0.50693 0.5901 0.0
Zn151 Zn 0.54091 0.53375 0.53787 0.0
O152 O 0.50505 0.50419 0.5034 0.0
Zn153 Zn 0.53242 0.4893 0.45869 0.0
Zn154 Zn 0.48396 0.45776 0.53036 0.0
Zn155 Zn 0.46318 0.53563 0.48639 0.0
O156 O 0.50707 0.5074 0.40858 0.0
O157 O 0.46605 0.54795 0.4289 0.0
O158 O 0.59366 0.54336 0.51548 0.0
O159 O 0.58616 0.51333 0.45961 0.0
O160 O 0.53847 0.43243 0.45969 0.0
O161 O 0.50451 0.40996 0.50982 0.0
O162 O 0.42627 0.45273 0.52569 0.0
O163 O 0.52106 0.58489 0.54868 0.0
O164 O 0.41145 0.50761 0.49644 0.0
O165 O 0.46564 0.58538 0.51526 0.0
C166 C 0.52523 0.47919 0.6062 0.0
C167 C 0.48318 0.53296 0.40167 0.0
C168 C 0.52619 0.40472 0.48183 0.0
C169 C 0.6069 0.53334 0.48362 0.0
C170 C 0.40139 0.47495 0.51196 0.0
C171 C 0.49062 0.60117 0.53866 0.0
O172 O 0.49947 0.45925 0.58713 0.0
O173 O 0.97061 0.54096 0.08221 0.0
Zn174 Zn 0.967 0.50925 0.0339 0.0
O175 O 0.99151 0.53803 0.99073 0.0
Zn176 Zn 0.9534 0.55231 0.95086 0.0
Zn177 Zn 0.01965 0.58448 0.00985 0.0
Zn178 Zn 0.02682 0.50549 0.96778 0.0
O179 O 0.96631 0.5344 0.89754 0.0
O180 O 0.01564 0.49887 0.91118 0.0
O181 O 0.91088 0.49701 0.02043 0.0
O182 O 0.90115 0.52802 0.96398 0.0
O183 O 0.95188 0.60994 0.94566 0.0
O184 O 0.00536 0.63088 0.97775 0.0
O185 O 0.07679 0.58088 0.00665 0.0
O186 O 0.99073 0.45824 0.04535 0.0
O187 O 0.08118 0.5268 0.97518 0.0
O188 O 0.02524 0.45359 0.99314 0.0
C189 C 0.98696 0.57366 0.09067 0.0
C190 C 0.99143 0.51244 0.88701 0.0
C191 C 0.97642 0.63696 0.95549 0.0
C192 C 0.88872 0.50653 0.99209 0.0
C193 C 0.09681 0.55645 0.9915 0.0
C194 C 0.0118 0.43927 0.02457 0.0
O195 O 0.00676 0.59352 0.06584 0.0
C196 C 0.1598 0.10216 0.20546 0.0
C197 C 0.16132 0.14234 0.20357 0.0
C198 C 0.1576 0.08227 0.24141 0.0
C199 C 0.15615 0.10334 0.27578 0.0
C200 C 0.1614 0.14398 0.27404 0.0
C201 C 0.16444 0.16297 0.23782 0.0
C202 C 0.15345 0.0389 0.24223 0.0
C203 C 0.15985 0.16762 0.30989 0.0
C204 C 0.08831 0.06478 0.35281 0.0
C205 C 0.11369 0.05488 0.38329 0.0
C206 C 0.10195 0.07965 0.31737 0.0
C207 C 0.142 0.08393 0.31192 0.0
C208 C 0.16782 0.07236 0.3419 0.0
C209 C 0.15335 0.05842 0.37756 0.0
C210 C 0.07342 0.0922 0.28631 0.0
C211 C 0.21062 0.07556 0.33666 0.0
H212 H 0.15783 0.08641 0.17874 0.0
H213 H 0.16669 0.19413 0.23598 0.0
H214 H 0.16982 0.02685 0.2674 0.0
H215 H 0.12279 0.0291 0.24534 0.0
H216 H 0.16348 0.02705 0.21509 0.0
H217 H 0.16924 0.19833 0.30425 0.0
H218 H 0.12995 0.16606 0.31994 0.0
H219 H 0.17813 0.15609 0.33384 0.0
H220 H 0.05765 0.06223 0.35709 0.0
H221 H 0.17306 0.05042 0.40095 0.0
H222 H 0.07719 0.077 0.25903 0.0
H223 H 0.07853 0.12348 0.27982 0.0
H224 H 0.04322 0.08646 0.29506 0.0
H225 H 0.21756 0.06398 0.3083 0.0
H226 H 0.22625 0.05998 0.36022 0.0
H227 H 0.22134 0.10626 0.33664 0.0
C228 C 0.3926 0.89207 0.77558 0.0
C229 C 0.40709 0.90799 0.74093 0.0
C230 C 0.40019 0.91063 0.81088 0.0
C231 C 0.42359 0.9455 0.81148 0.0
C232 C 0.43618 0.96288 0.77599 0.0
C233 C 0.42754 0.94389 0.74099 0.0
C234 C 0.38562 0.89136 0.84783 0.0
C235 C 0.46146 0.99977 0.77526 0.0
C236 C 0.43525 0.99918 0.9066 0.0
C237 C 0.46804 0.98352 0.92352 0.0
C238 C 0.42058 0.98763 0.86983 0.0
C239 C 0.43952 0.96029 0.84933 0.0
C240 C 0.47332 0.94542 0.8658 0.0
C241 C 0.48694 0.95697 0.90269 0.0
C242 C 0.38424 0.00374 0.85343 0.0
C243 C 0.49481 0.91665 0.84474 0.0
H244 H 0.37696 0.86412 0.77514 0.0
H245 H 0.43899 0.9557 0.714 0.0
H246 H 0.40981 0.87899 0.86449 0.0
H247 H 0.37353 0.91259 0.86648 0.0
H248 H 0.36325 0.86783 0.84191 0.0
H249 H 0.46395 0.01241 0.74539 0.0
H250 H 0.45022 0.02126 0.79418 0.0
H251 H 0.49062 0.9939 0.78671 0.0
H252 H 0.42041 0.01961 0.92257 0.0
H253 H 0.51252 0.94501 0.91532 0.0
H254 H 0.36119 0.98028 0.85112 0.0
H255 H 0.38873 0.01592 0.82369 0.0
H256 H 0.37426 0.02647 0.87178 0.0
H257 H 0.4764 0.88969 0.84101 0.0
H258 H 0.52177 0.90953 0.86057 0.0
H259 H 0.50203 0.9281 0.8153 0.0
C260 C 0.58396 0.40639 0.81931 0.0
C261 C 0.56882 0.42742 0.84831 0.0
C262 C 0.57574 0.41467 0.78003 0.0
C263 C 0.55174 0.4447 0.76976 0.0
C264 C 0.53602 0.46577 0.79916 0.0
C265 C 0.54494 0.45689 0.83832 0.0
C266 C 0.59323 0.39172 0.74956 0.0
C267 C 0.51021 0.49785 0.78923 0.0
C268 C 0.56241 0.48956 0.66884 0.0
C269 C 0.53177 0.47054 0.64815 0.0
C270 C 0.56889 0.4818 0.7086 0.0
C271 C 0.54402 0.45453 0.72817 0.0
C272 C 0.5128 0.43554 0.70765 0.0
C273 C 0.50711 0.44367 0.66783 0.0
C274 C 0.60269 0.50238 0.72954 0.0
C275 C 0.48563 0.40638 0.72769 0.0
H276 H 0.60271 0.38383 0.82763 0.0
H277 H 0.53358 0.47298 0.8612 0.0
H278 H 0.57033 0.37812 0.73037 0.0
H279 H 0.61183 0.41111 0.73098 0.0
H280 H 0.61069 0.36885 0.76254 0.0
H281 H 0.49938 0.51055 0.81555 0.0
H282 H 0.52607 0.52092 0.77218 0.0
H283 H 0.48533 0.48699 0.77082 0.0
H284 H 0.58161 0.51038 0.65392 0.0
H285 H 0.48321 0.42901 0.65216 0.0
H286 H 0.62272 0.48117 0.74113 0.0
H287 H 0.59279 0.51769 0.75469 0.0
H288 H 0.6187 0.52353 0.71032 0.0
H289 H 0.50154 0.38176 0.73912 0.0
H290 H 0.46189 0.39524 0.70791 0.0
H291 H 0.47311 0.41943 0.75288 0.0
C292 C 0.91008 0.66208 0.28009 0.0
C293 C 0.93021 0.65109 0.31397 0.0
C294 C 0.92363 0.65494 0.24331 0.0
C295 C 0.95809 0.6362 0.24053 0.0
C296 C 0.98015 0.62813 0.27479 0.0
C297 C 0.96577 0.63557 0.31121 0.0
C298 C 0.8992 0.66421 0.2077 0.0
C299 C 0.01714 0.60847 0.27324 0.0
C300 C 0.95939 0.56775 0.15695 0.0
C301 C 0.98156 0.58927 0.12973 0.0
C302 C 0.95224 0.58253 0.19322 0.0
C303 C 0.96765 0.61985 0.20281 0.0
C304 C 0.99071 0.64151 0.1759 0.0
C305 C 0.99737 0.626 0.13967 0.0
C306 C 0.92749 0.55839 0.22105 0.0
C307 C 0.00772 0.68131 0.18511 0.0
H308 H 0.8823 0.67363 0.28259 0.0
H309 H 0.98082 0.62652 0.33761 0.0
H310 H 0.91712 0.67794 0.18451 0.0
H311 H 0.88518 0.63717 0.19614 0.0
H312 H 0.87649 0.6836 0.21422 0.0
H313 H 0.03391 0.61021 0.30122 0.0
H314 H 0.01057 0.57767 0.26679 0.0
H315 H 0.03516 0.62137 0.24971 0.0
H316 H 0.94708 0.53934 0.14977 0.0
H317 H 0.01458 0.64292 0.11895 0.0
H318 H 0.90138 0.57335 0.22692 0.0
H319 H 0.94329 0.55442 0.24923 0.0
H320 H 0.91845 0.52959 0.2096 0.0
H321 H 0.98437 0.70082 0.18845 0.0
H322 H 0.0268 0.69357 0.16208 0.0
H323 H 0.02439 0.68062 0.21312 0.0
C324 C 0.21149 0.11005 0.10735 0.0
C325 C 0.21018 0.13955 0.13371 0.0
C326 C 0.24535 0.09145 0.10316 0.0
C327 C 0.27866 0.10317 0.1256 0.0
C328 C 0.27691 0.13219 0.15329 0.0
C329 C 0.24248 0.14992 0.15714 0.0
C330 C 0.24587 0.06031 0.07373 0.0
C331 C 0.31184 0.14578 0.17746 0.0
C332 C 0.36429 0.04119 0.12923 0.0
C333 C 0.38679 0.05889 0.09993 0.0
C334 C 0.32887 0.05515 0.13797 0.0
C335 C 0.31608 0.08786 0.11731 0.0
C336 C 0.33892 0.10608 0.08809 0.0
C337 C 0.37379 0.09125 0.07961 0.0
C338 C 0.30498 0.03474 0.16896 0.0
C339 C 0.32655 0.14134 0.06573 0.0
H340 H 0.18605 0.102 0.08973 0.0
H341 H 0.24101 0.17285 0.17746 0.0
H342 H 0.26435 0.07052 0.04946 0.0
H343 H 0.25827 0.03442 0.08714 0.0
H344 H 0.21671 0.05194 0.06155 0.0
H345 H 0.30487 0.16622 0.19987 0.0
H346 H 0.32511 0.12097 0.19209 0.0
H347 H 0.33358 0.16031 0.1583 0.0
H348 H 0.37408 0.01612 0.14497 0.0
H349 H 0.39111 0.10537 0.05716 0.0
H350 H 0.27663 0.02442 0.15624 0.0
H351 H 0.29954 0.05498 0.19204 0.0
H352 H 0.31904 0.00978 0.18248 0.0
H353 H 0.29897 0.13441 0.04966 0.0
H354 H 0.34811 0.15267 0.0446 0.0
H355 H 0.32169 0.16441 0.08613 0.0
C356 C 0.32623 0.91633 0.68887 0.0
C357 C 0.35867 0.91766 0.66612 0.0
C358 C 0.29294 0.93359 0.67535 0.0
C359 C 0.29209 0.95154 0.63788 0.0
C360 C 0.32607 0.95596 0.61655 0.0
C361 C 0.3592 0.93954 0.63138 0.0
C362 C 0.25779 0.92965 0.69971 0.0
C363 C 0.32646 0.9743 0.57628 0.0
C364 C 0.19824 0.94013 0.57908 0.0
C365 C 0.18612 0.97756 0.57839 0.0
C366 C 0.23272 0.9314 0.59837 0.0
C367 C 0.25486 0.96054 0.61864 0.0
C368 C 0.24211 0.99815 0.61898 0.0
C369 C 0.20819 0.0064 0.59822 0.0
C370 C 0.24584 0.89114 0.59642 0.0
C371 C 0.26417 0.02956 0.64137 0.0
H372 H 0.32586 0.89927 0.71568 0.0
H373 H 0.38463 0.94069 0.61416 0.0
H374 H 0.24269 0.95664 0.69838 0.0
H375 H 0.23756 0.90643 0.68824 0.0
H376 H 0.26516 0.92233 0.73057 0.0
H377 H 0.35605 0.97958 0.56564 0.0
H378 H 0.30981 0.95499 0.55583 0.0
H379 H 0.3126 0.00196 0.57562 0.0
H380 H 0.18118 0.91788 0.56369 0.0
H381 H 0.19847 0.03526 0.59817 0.0
H382 H 0.24848 0.87815 0.62609 0.0
H383 H 0.27464 0.8921 0.58369 0.0
H384 H 0.22576 0.87212 0.57868 0.0
H385 H 0.26857 0.01999 0.67213 0.0
H386 H 0.24919 0.05666 0.64056 0.0
H387 H 0.29299 0.03566 0.62922 0.0
C388 C 0.66292 0.44924 0.98478 0.0
C389 C 0.65565 0.41822 0.96019 0.0
C390 C 0.70061 0.46122 0.99652 0.0
C391 C 0.73152 0.44162 0.98308 0.0
C392 C 0.72388 0.40814 0.96101 0.0
C393 C 0.6859 0.39693 0.94968 0.0
C394 C 0.70744 0.49687 0.02025 0.0
C395 C 0.75592 0.38629 0.94621 0.0
C396 C 0.82331 0.50101 0.95986 0.0
C397 C 0.84799 0.4912 0.99104 0.0
C398 C 0.78526 0.48542 0.95736 0.0
C399 C 0.7714 0.45932 0.98677 0.0
C400 C 0.79583 0.44975 0.0187 0.0
C401 C 0.83386 0.4658 0.02047 0.0
C402 C 0.76003 0.49644 0.92281 0.0
C403 C 0.78197 0.42213 0.05061 0.0
H404 H 0.63926 0.46573 0.9924 0.0
H405 H 0.68009 0.37346 0.92997 0.0
H406 H 0.72963 0.49274 0.04354 0.0
H407 H 0.71812 0.52125 0.00121 0.0
H408 H 0.68076 0.50484 0.03366 0.0
H409 H 0.74521 0.35791 0.9348 0.0
H410 H 0.77017 0.40335 0.92242 0.0
H411 H 0.77794 0.3817 0.96956 0.0
H412 H 0.83381 0.52063 0.93701 0.0
H413 H 0.85265 0.45802 0.04473 0.0
H414 H 0.73379 0.50878 0.93279 0.0
H415 H 0.75068 0.47048 0.90618 0.0
H416 H 0.77493 0.51775 0.9029 0.0
H417 H 0.75573 0.43211 0.06313 0.0
H418 H 0.80401 0.41895 0.07432 0.0
H419 H 0.77416 0.39342 0.03845 0.0
C420 C 0.82937 0.58571 0.43852 0.0
C421 C 0.83095 0.61256 0.40759 0.0
C422 C 0.79392 0.57177 0.45323 0.0
C423 C 0.75957 0.58549 0.43666 0.0
C424 C 0.76134 0.61297 0.4055 0.0
C425 C 0.79712 0.62604 0.39123 0.0
C426 C 0.79316 0.54222 0.48618 0.0
C427 C 0.72546 0.62849 0.38719 0.0
C428 C 0.6646 0.52666 0.44429 0.0
C429 C 0.64694 0.54536 0.47365 0.0
C430 C 0.70176 0.53864 0.43292 0.0
C431 C 0.72163 0.57044 0.45097 0.0
C432 C 0.70434 0.58899 0.48118 0.0
C433 C 0.66725 0.57604 0.49236 0.0
C434 C 0.71941 0.51779 0.40095 0.0
C435 C 0.72454 0.62324 0.50083 0.0
H436 H 0.85591 0.57567 0.45095 0.0
H437 H 0.79892 0.64708 0.36743 0.0
H438 H 0.77845 0.5531 0.5112 0.0
H439 H 0.77657 0.51557 0.4769 0.0
H440 H 0.82243 0.53485 0.49603 0.0
H441 H 0.73194 0.65057 0.36398 0.0
H442 H 0.70685 0.60469 0.37445 0.0
H443 H 0.70883 0.64144 0.40965 0.0
H444 H 0.64928 0.50264 0.42995 0.0
H445 H 0.65377 0.59066 0.51501 0.0
H446 H 0.748 0.50854 0.41078 0.0
H447 H 0.7238 0.5375 0.37536 0.0
H448 H 0.70119 0.49209 0.39164 0.0
H449 H 0.75324 0.61596 0.51241 0.0
H450 H 0.70798 0.63329 0.52504 0.0
H451 H 0.72909 0.64731 0.4793 0.0
C452 C 0.13179 0.26966 0.10388 0.0
C453 C 0.11267 0.23314 0.10452 0.0
C454 C 0.11284 0.30193 0.09068 0.0
C455 C 0.07384 0.29727 0.07789 0.0
C456 C 0.05458 0.26015 0.0781 0.0
C457 C 0.07435 0.2284 0.09151 0.0
C458 C 0.1344 0.34101 0.0908 0.0
C459 C 0.01312 0.25408 0.06451 0.0
C460 C 0.01954 0.38797 0.07642 0.0
C461 C 0.02325 0.40077 0.03767 0.0
C462 C 0.0347 0.35348 0.08972 0.0
C463 C 0.05371 0.33132 0.06356 0.0
C464 C 0.05585 0.34317 0.02405 0.0
C465 C 0.04066 0.37773 0.01162 0.0
C466 C 0.03188 0.34163 0.13209 0.0
C467 C 0.07562 0.32017 0.99521 0.0
H468 H 0.16139 0.27285 0.11446 0.0
H469 H 0.05988 0.19988 0.09248 0.0
H470 H 0.13461 0.35384 0.06093 0.0
H471 H 0.11975 0.36063 0.10921 0.0
H472 H 0.16455 0.33962 0.10184 0.0
H473 H 0.00245 0.22332 0.06633 0.0
H474 H 0.9949 0.2709 0.08238 0.0
H475 H 0.00961 0.26469 0.03399 0.0
H476 H 0.00613 0.40559 0.09669 0.0
H477 H 0.04328 0.38716 0.98149 0.0
H478 H 0.06098 0.34325 0.14619 0.0
H479 H 0.02003 0.31137 0.13509 0.0
H480 H 0.01354 0.36024 0.14792 0.0
H481 H 0.10674 0.32051 0.00295 0.0
H482 H 0.07217 0.33173 0.96497 0.0
H483 H 0.06409 0.28971 0.99623 0.0
C484 C 0.61483 0.31544 0.94335 0.0
C485 C 0.60089 0.34709 0.96077 0.0
C486 C 0.61015 0.2786 0.9606 0.0
C487 C 0.59062 0.27349 0.9959 0.0
C488 C 0.57906 0.30599 0.01502 0.0
C489 C 0.58437 0.3426 0.99707 0.0
C490 C 0.62322 0.24486 0.93938 0.0
C491 C 0.55829 0.30178 0.05272 0.0
C492 C 0.53188 0.17836 0.00614 0.0
C493 C 0.55564 0.15696 0.03083 0.0
C494 C 0.54257 0.21664 0.99546 0.0
C495 C 0.57794 0.23401 0.00976 0.0
C496 C 0.60168 0.21297 0.03538 0.0
C497 C 0.59025 0.17469 0.04565 0.0
C498 C 0.51638 0.23822 0.9681 0.0
C499 C 0.63957 0.23057 0.05114 0.0
H500 H 0.62715 0.31933 0.91495 0.0
H501 H 0.57323 0.36732 0.00997 0.0
H502 H 0.63867 0.22548 0.95963 0.0
H503 H 0.5978 0.22793 0.92707 0.0
H504 H 0.6423 0.25416 0.91524 0.0
H505 H 0.55654 0.32988 0.06667 0.0
H506 H 0.52867 0.28913 0.047 0.0
H507 H 0.57276 0.28199 0.07336 0.0
H508 H 0.50503 0.16506 0.99469 0.0
H509 H 0.60882 0.15847 0.06481 0.0
H510 H 0.53116 0.24598 0.9407 0.0
H511 H 0.50934 0.26543 0.9812 0.0
H512 H 0.48917 0.22112 0.96089 0.0
H513 H 0.65936 0.23691 0.02694 0.0
H514 H 0.65346 0.2113 0.07283 0.0
H515 H 0.63542 0.25826 0.06491 0.0
C516 C 0.97768 0.70747 0.38805 0.0
C517 C 0.93795 0.70632 0.3813 0.0
C518 C 0.9983 0.74191 0.3987 0.0
C519 C 0.97831 0.77539 0.40349 0.0
C520 C 0.93847 0.77467 0.39417 0.0
C521 C 0.91893 0.74021 0.3827 0.0
C522 C 0.04094 0.7418 0.40712 0.0
C523 C 0.91581 0.80942 0.39923 0.0
C524 C 0.01202 0.84798 0.47957 0.0
C525 C 0.02392 0.87999 0.45637 0.0
C526 C 0.99839 0.81322 0.46272 0.0
C527 C 0.99772 0.8101 0.42175 0.0
C528 C 0.01196 0.84163 0.39838 0.0
C529 C 0.02432 0.8764 0.41591 0.0
C530 C 0.98277 0.78054 0.48867 0.0
C531 C 0.01286 0.83909 0.35476 0.0
H532 H 0.99214 0.68104 0.3872 0.0
H533 H 0.88811 0.7389 0.37743 0.0
H534 H 0.0561 0.76803 0.39445 0.0
H535 H 0.0467 0.74186 0.43899 0.0
H536 H 0.05309 0.71606 0.39547 0.0
H537 H 0.88553 0.80468 0.38855 0.0
H538 H 0.91597 0.81632 0.43048 0.0
H539 H 0.92919 0.83485 0.38351 0.0
H540 H 0.01156 0.85068 0.51082 0.0
H541 H 0.03399 0.90096 0.39788 0.0
H542 H 0.99703 0.75392 0.48311 0.0
H543 H 0.95163 0.77463 0.48202 0.0
H544 H 0.98679 0.78697 0.52 0.0
H545 H 0.02542 0.81218 0.34674 0.0
H546 H 0.02967 0.86398 0.34137 0.0
H547 H 0.98317 0.83829 0.34216 0.0
C548 C 0.45553 0.81035 0.61554 0.0
C549 C 0.43688 0.80681 0.65086 0.0
C550 C 0.4667 0.77781 0.59712 0.0
C551 C 0.45888 0.74093 0.61457 0.0
C552 C 0.44113 0.7374 0.65098 0.0
C553 C 0.43034 0.77052 0.66873 0.0
C554 C 0.48573 0.7828 0.55847 0.0
C555 C 0.43232 0.69858 0.67048 0.0
C556 C 0.44805 0.65454 0.54958 0.0
C557 C 0.48331 0.63815 0.55631 0.0
C558 C 0.43988 0.68816 0.56813 0.0
C559 C 0.46769 0.70593 0.59392 0.0
C560 C 0.5036 0.69004 0.60027 0.0
C561 C 0.51097 0.65633 0.58145 0.0
C562 C 0.40123 0.70432 0.56063 0.0
C563 C 0.53403 0.70835 0.62738 0.0
H564 H 0.46048 0.83864 0.602 0.0
H565 H 0.4155 0.76805 0.69587 0.0
H566 H 0.51307 0.76837 0.55948 0.0
H567 H 0.4669 0.76898 0.53553 0.0
H568 H 0.49181 0.81357 0.55001 0.0
H569 H 0.42033 0.70098 0.69967 0.0
H570 H 0.41128 0.68124 0.65218 0.0
H571 H 0.45868 0.68263 0.67357 0.0
H572 H 0.42646 0.64074 0.5303 0.0
H573 H 0.53835 0.64399 0.58682 0.0
H574 H 0.40503 0.73454 0.54962 0.0
H575 H 0.38578 0.70454 0.58819 0.0
H576 H 0.38303 0.68747 0.53922 0.0
H577 H 0.54093 0.73874 0.61816 0.0
H578 H 0.56088 0.69301 0.62834 0.0
H579 H 0.52311 0.70851 0.65722 0.0
C580 C 0.9637 0.93618 0.83341 0.0
C581 C 0.92383 0.92952 0.83362 0.0
C582 C 0.98251 0.94229 0.79814 0.0
C583 C 0.96067 0.9413 0.76264 0.0
C584 C 0.92053 0.93248 0.76296 0.0
C585 C 0.90261 0.92681 0.79854 0.0
C586 C 0.02533 0.95162 0.79894 0.0
C587 C 0.89623 0.93072 0.72582 0.0
C588 C 0.99342 0.00142 0.67499 0.0
C589 C 0.00682 0.97363 0.65121 0.0
C590 C 0.97962 0.99141 0.7119 0.0
C591 C 0.97891 0.9526 0.72532 0.0
C592 C 0.99308 0.92449 0.70189 0.0
C593 C 0.00698 0.93536 0.66513 0.0
C594 C 0.96491 0.02227 0.73615 0.0
C595 C 0.99252 0.88279 0.7152 0.0
H596 H 0.97978 0.93815 0.86085 0.0
H597 H 0.87175 0.9211 0.79919 0.0
H598 H 0.0392 0.93336 0.77851 0.0
H599 H 0.03151 0.982 0.78926 0.0
H600 H 0.03853 0.94749 0.82846 0.0
H601 H 0.866 0.92041 0.73102 0.0
H602 H 0.89641 0.95976 0.71169 0.0
H603 H 0.90828 0.91136 0.70515 0.0
H604 H 0.99348 0.03112 0.6647 0.0
H605 H 0.01735 0.91368 0.64703 0.0
H606 H 0.97937 0.02223 0.76535 0.0
H607 H 0.93371 0.01625 0.74037 0.0
H608 H 0.96957 0.05143 0.7225 0.0
H609 H 0.00683 0.88017 0.74434 0.0
H610 H 0.00694 0.86495 0.69474 0.0
H611 H 0.9624 0.87095 0.71791 0.0
C612 C 0.64151 0.04409 0.38421 0.0
C613 C 0.65807 0.08167 0.38612 0.0
C614 C 0.62986 0.02845 0.3482 0.0
C615 C 0.63377 0.05167 0.31387 0.0
C616 C 0.6532 0.08864 0.3157 0.0
C617 C 0.66563 0.10291 0.35187 0.0
C618 C 0.61073 0.98833 0.34729 0.0
C619 C 0.65734 0.11477 0.28009 0.0
C620 C 0.6148 0.01799 0.21084 0.0
C621 C 0.57689 0.02774 0.20375 0.0
C622 C 0.63298 0.02311 0.24751 0.0
C623 C 0.61326 0.03994 0.27709 0.0
C624 C 0.57463 0.04908 0.27022 0.0
C625 C 0.55666 0.04214 0.23377 0.0
C626 C 0.67355 0.01154 0.25424 0.0
C627 C 0.5529 0.06805 0.30065 0.0
H628 H 0.63547 0.02803 0.41098 0.0
H629 H 0.6779 0.13224 0.35392 0.0
H630 H 0.57918 0.98994 0.34428 0.0
H631 H 0.62 0.97275 0.32202 0.0
H632 H 0.61724 0.9715 0.37434 0.0
H633 H 0.67593 0.14127 0.28599 0.0
H634 H 0.66955 0.09961 0.2561 0.0
H635 H 0.62858 0.12333 0.26988 0.0
H636 H 0.63025 0.00637 0.18764 0.0
H637 H 0.52739 0.04977 0.22813 0.0
H638 H 0.67626 0.99506 0.28217 0.0
H639 H 0.69353 0.0376 0.2562 0.0
H640 H 0.68271 0.9938 0.23044 0.0
H641 H 0.5229 0.07273 0.2909 0.0
H642 H 0.56774 0.09629 0.30773 0.0
H643 H 0.55226 0.05018 0.32783 0.0
C644 C 0.3966 0.58801 0.19447 0.0
C645 C 0.42371 0.59899 0.16661 0.0
C646 C 0.40798 0.579 0.23281 0.0
C647 C 0.44743 0.58251 0.24387 0.0
C648 C 0.47482 0.5957 0.21625 0.0
C649 C 0.46261 0.60328 0.17763 0.0
C650 C 0.37786 0.56444 0.26109 0.0
C651 C 0.517 0.60092 0.22727 0.0
C652 C 0.46674 0.58409 0.35286 0.0
C653 C 0.47563 0.54605 0.36115 0.0
C654 C 0.4594 0.59695 0.3145 0.0
C655 C 0.45974 0.57075 0.28395 0.0
C656 C 0.46899 0.53237 0.29216 0.0
C657 C 0.47742 0.52063 0.33066 0.0
C658 C 0.45075 0.63837 0.30672 0.0
C659 C 0.46863 0.50331 0.26049 0.0
H660 H 0.36644 0.58558 0.18581 0.0
H661 H 0.48343 0.61156 0.15587 0.0
H662 H 0.38393 0.53515 0.27207 0.0
H663 H 0.37868 0.58324 0.28653 0.0
H664 H 0.34843 0.56325 0.24767 0.0
H665 H 0.53392 0.61534 0.20362 0.0
H666 H 0.52138 0.6182 0.25379 0.0
H667 H 0.52838 0.57249 0.23405 0.0
H668 H 0.46592 0.60395 0.37639 0.0
H669 H 0.48423 0.49119 0.33706 0.0
H670 H 0.42049 0.63983 0.29626 0.0
H671 H 0.46914 0.65138 0.28352 0.0
H672 H 0.45535 0.65591 0.33308 0.0
H673 H 0.43936 0.49947 0.24695 0.0
H674 H 0.47733 0.47485 0.2716 0.0
H675 H 0.48826 0.51384 0.23731 0.0
C676 C 0.08879 0.47246 0.69671 0.0
C677 C 0.06657 0.45788 0.66517 0.0
C678 C 0.0716 0.48519 0.7296 0.0
C679 C 0.03111 0.48197 0.73162 0.0
C680 C 0.0084 0.46853 0.6993 0.0
C681 C 0.02648 0.45706 0.66618 0.0
C682 C 0.09696 0.5 0.7631 0.0
C683 C 0.96521 0.46405 0.70058 0.0
C684 C 0.00287 0.46642 0.83593 0.0
C685 C 0.99427 0.50343 0.84578 0.0
C686 C 0.01181 0.45838 0.79787 0.0
C687 C 0.01341 0.48844 0.76927 0.0
C688 C 0.0028 0.52547 0.7786 0.0
C689 C 0.99283 0.53243 0.81682 0.0
C690 C 0.02193 0.41823 0.78893 0.0
C691 C 0.00482 0.55841 0.74913 0.0
H692 H 0.11974 0.47226 0.69641 0.0
H693 H 0.00936 0.4461 0.64159 0.0
H694 H 0.08672 0.52712 0.77362 0.0
H695 H 0.09571 0.47862 0.78763 0.0
H696 H 0.12738 0.50536 0.75496 0.0
H697 H 0.95162 0.45794 0.67157 0.0
H698 H 0.9567 0.43993 0.72094 0.0
H699 H 0.95374 0.49036 0.71161 0.0
H700 H 0.00366 0.44395 0.85837 0.0
H701 H 0.98644 0.56114 0.8246 0.0
H702 H 0.05326 0.41819 0.78477 0.0
H703 H 0.00709 0.40853 0.76157 0.0
H704 H 0.01414 0.39715 0.81266 0.0
H705 H 0.03536 0.56753 0.74414 0.0
H706 H 0.99038 0.58359 0.75904 0.0
H707 H 0.99154 0.54938 0.72085 0.0
C708 C 0.7936 0.95666 0.90709 0.0
C709 C 0.82708 0.95209 0.92976 0.0
C710 C 0.75968 0.96557 0.92417 0.0
C711 C 0.75914 0.96885 0.96499 0.0
C712 C 0.79316 0.96509 0.98793 0.0
C713 C 0.82693 0.95725 0.96987 0.0
C714 C 0.72415 0.97023 0.89867 0.0
C715 C 0.79351 0.96778 0.0316 0.0
C716 C 0.677 0.01695 0.00762 0.0
C717 C 0.65162 0.9852 0.01653 0.0
C718 C 0.7122 0.01208 0.99086 0.0
C719 C 0.72255 0.97451 0.98375 0.0
C720 C 0.69747 0.94228 0.99358 0.0
C721 C 0.66199 0.94805 0.00942 0.0
C722 C 0.73784 0.04713 0.97988 0.0
C723 C 0.70802 0.90173 0.98715 0.0
H724 H 0.79365 0.95194 0.87617 0.0
H725 H 0.85305 0.95378 0.98716 0.0
H726 H 0.70239 0.94636 0.90495 0.0
H727 H 0.7113 0.99749 0.90498 0.0
H728 H 0.73033 0.97029 0.86725 0.0
H729 H 0.82268 0.96548 0.04502 0.0
H730 H 0.78265 0.99542 0.03987 0.0
H731 H 0.77406 0.94438 0.04397 0.0
H732 H 0.66887 0.04576 0.01277 0.0
H733 H 0.64249 0.92349 0.01653 0.0
H734 H 0.74213 0.04796 0.9481 0.0
H735 H 0.76652 0.04561 0.99447 0.0
H736 H 0.72572 0.07434 0.9878 0.0
H737 H 0.71093 0.89739 0.95566 0.0
H738 H 0.68627 0.8798 0.99839 0.0
H739 H 0.73619 0.89687 0.00168 0.0
C740 C 0.75896 0.12902 0.42564 0.0
C741 C 0.72789 0.10411 0.43682 0.0
C742 C 0.79668 0.11756 0.42935 0.0
C743 C 0.80329 0.08021 0.44437 0.0
C744 C 0.77163 0.05412 0.45312 0.0
C745 C 0.73423 0.06642 0.44908 0.0
C746 C 0.82951 0.14614 0.41925 0.0
C747 C 0.77733 0.01401 0.46896 0.0
C748 C 0.90272 0.04282 0.43764 0.0
C749 C 0.91901 0.05091 0.47463 0.0
C750 C 0.86509 0.05211 0.42728 0.0
C751 C 0.84318 0.06985 0.45454 0.0
C752 C 0.8594 0.07799 0.4919 0.0
C753 C 0.89701 0.06848 0.50145 0.0
C754 C 0.84881 0.04303 0.38716 0.0
C755 C 0.83698 0.09682 0.52187 0.0
H756 H 0.75372 0.1579 0.41531 0.0
H757 H 0.70996 0.04727 0.45743 0.0
H758 H 0.84575 0.15479 0.44622 0.0
H759 H 0.84972 0.13289 0.40041 0.0
H760 H 0.81945 0.17241 0.40419 0.0
H761 H 0.74985 0.99601 0.47024 0.0
H762 H 0.7973 0.99957 0.45084 0.0
H763 H 0.79044 0.01561 0.49874 0.0
H764 H 0.9194 0.02928 0.41665 0.0
H765 H 0.90916 0.07485 0.53011 0.0
H766 H 0.84066 0.06983 0.37178 0.0
H767 H 0.82233 0.0237 0.38935 0.0
H768 H 0.86947 0.02907 0.36936 0.0
H769 H 0.82842 0.1252 0.51052 0.0
H770 H 0.85367 0.10111 0.54964 0.0
H771 H 0.81025 0.07889 0.52795 0.0
C772 C 0.32762 0.58406 0.0181 0.0
C773 C 0.33399 0.58351 0.05843 0.0
C774 C 0.29026 0.57828 0.00187 0.0
C775 C 0.25901 0.57106 0.02676 0.0
C776 C 0.26574 0.56859 0.06747 0.0
C777 C 0.30307 0.57545 0.08277 0.0
C778 C 0.28405 0.58167 0.95837 0.0
C779 C 0.23334 0.56033 0.09506 0.0
C780 C 0.15764 0.5973 0.00247 0.0
C781 C 0.1391 0.56116 0.9952 0.0
C782 C 0.19739 0.60134 0.00994 0.0
C783 C 0.21886 0.56832 0.01102 0.0
C784 C 0.20059 0.53206 0.00195 0.0
C785 C 0.16092 0.52898 0.99378 0.0
C786 C 0.21606 0.64065 0.0187 0.0
C787 C 0.22238 0.49611 0.00348 0.0
H788 H 0.35172 0.59029 0.99947 0.0
H789 H 0.30798 0.57605 0.11398 0.0
H790 H 0.26623 0.55641 0.94751 0.0
H791 H 0.26821 0.60754 0.9509 0.0
H792 H 0.31154 0.58413 0.94296 0.0
H793 H 0.24392 0.55594 0.12556 0.0
H794 H 0.21451 0.5847 0.09397 0.0
H795 H 0.21547 0.53426 0.08628 0.0
H796 H 0.14095 0.62233 0.00308 0.0
H797 H 0.14673 0.50093 0.98821 0.0
H798 H 0.2426 0.6463 0.00211 0.0
H799 H 0.22441 0.64184 0.05004 0.0
H800 H 0.19657 0.66391 0.01159 0.0
H801 H 0.24935 0.50082 0.98747 0.0
H802 H 0.20514 0.47112 0.99112 0.0
H803 H 0.23043 0.48885 0.03415 0.0
C804 C 0.20179 0.43666 0.60521 0.0
C805 C 0.16993 0.42646 0.58106 0.0
C806 C 0.23867 0.44166 0.59048 0.0
C807 C 0.24388 0.43563 0.55061 0.0
C808 C 0.21193 0.4234 0.52641 0.0
C809 C 0.17514 0.41905 0.54199 0.0
C810 C 0.27184 0.4546 0.6174 0.0
C811 C 0.21645 0.41605 0.48395 0.0
C812 C 0.33257 0.49097 0.51213 0.0
C813 C 0.36002 0.46353 0.51658 0.0
C814 C 0.29409 0.48168 0.52114 0.0
C815 C 0.28266 0.44392 0.53447 0.0
C816 C 0.30969 0.41548 0.53668 0.0
C817 C 0.34809 0.42567 0.52797 0.0
C818 C 0.2662 0.51292 0.51862 0.0
C819 C 0.29852 0.37475 0.55016 0.0
H820 H 0.19758 0.44142 0.63565 0.0
H821 H 0.1503 0.41103 0.52352 0.0
H822 H 0.29457 0.43396 0.61721 0.0
H823 H 0.28467 0.48296 0.60713 0.0
H824 H 0.26296 0.4572 0.6478 0.0
H825 H 0.18961 0.403 0.47013 0.0
H826 H 0.22453 0.44355 0.46832 0.0
H827 H 0.23986 0.39668 0.48033 0.0
H828 H 0.34143 0.52026 0.50326 0.0
H829 H 0.36898 0.40412 0.53104 0.0
H830 H 0.25779 0.51961 0.5483 0.0
H831 H 0.23968 0.50304 0.50213 0.0
H832 H 0.27863 0.53978 0.50446 0.0
H833 H 0.29305 0.37417 0.5817 0.0
H834 H 0.32131 0.35496 0.54515 0.0
H835 H 0.27161 0.3638 0.53495 0.0
C836 C 0.92519 0.84226 0.86691 0.0
C837 C 0.92847 0.86786 0.89754 0.0
C838 C 0.9394 0.80565 0.87135 0.0
C839 C 0.95578 0.79422 0.90774 0.0
C840 C 0.96189 0.82124 0.93756 0.0
C841 C 0.94882 0.85807 0.93169 0.0
C842 C 0.93398 0.77826 0.83823 0.0
C843 C 0.97844 0.81016 0.9771 0.0
C844 C 0.93466 0.69083 0.9418 0.0
C845 C 0.97096 0.67642 0.94118 0.0
C846 C 0.92935 0.72911 0.93056 0.0
C847 C 0.96086 0.75295 0.91688 0.0
C848 C 0.99724 0.7379 0.91448 0.0
C849 C 0.00206 0.69994 0.92753 0.0
C850 C 0.89032 0.74438 0.93464 0.0
C851 C 0.03102 0.76195 0.89854 0.0
H852 H 0.90921 0.84976 0.84058 0.0
H853 H 0.95146 0.87828 0.95508 0.0
H854 H 0.95929 0.76098 0.83623 0.0
H855 H 0.90861 0.75803 0.84333 0.0
H856 H 0.92921 0.79377 0.81001 0.0
H857 H 0.98491 0.83552 0.99559 0.0
H858 H 0.95751 0.78995 0.99213 0.0
H859 H 0.00509 0.79516 0.97438 0.0
H860 H 0.91072 0.67254 0.95253 0.0
H861 H 0.03006 0.68845 0.92666 0.0
H862 H 0.87922 0.75494 0.90601 0.0
H863 H 0.89267 0.76913 0.95431 0.0
H864 H 0.86908 0.72222 0.9464 0.0
H865 H 0.02281 0.77573 0.87028 0.0
H866 H 0.05599 0.74464 0.89439 0.0
H867 H 0.04002 0.78533 0.91871 0.0
C868 C 0.39894 0.70088 0.13212 0.0
C869 C 0.42462 0.67421 0.12181 0.0
C870 C 0.41081 0.73997 0.13488 0.0
C871 C 0.44956 0.75222 0.12812 0.0
C872 C 0.47643 0.72455 0.12212 0.0
C873 C 0.46343 0.6858 0.11833 0.0
C874 C 0.381 0.76839 0.14063 0.0
C875 C 0.51821 0.73624 0.116 0.0
C876 C 0.4685 0.84684 0.07295 0.0
C877 C 0.48005 0.87192 0.10277 0.0
C878 C 0.45793 0.80804 0.08109 0.0
C879 C 0.4602 0.79364 0.11996 0.0
C880 C 0.47225 0.81876 0.15025 0.0
C881 C 0.48145 0.8579 0.14134 0.0
C882 C 0.44415 0.78252 0.04801 0.0
C883 C 0.47612 0.80414 0.19179 0.0
H884 H 0.36887 0.6915 0.13462 0.0
H885 H 0.48302 0.66506 0.10985 0.0
H886 H 0.39183 0.79078 0.16122 0.0
H887 H 0.37439 0.78313 0.11242 0.0
H888 H 0.35392 0.7541 0.1516 0.0
H889 H 0.53633 0.71136 0.1198 0.0
H890 H 0.52161 0.74836 0.08607 0.0
H891 H 0.52888 0.75881 0.1365 0.0
H892 H 0.46715 0.85779 0.04316 0.0
H893 H 0.49077 0.87731 0.16435 0.0
H894 H 0.41531 0.76869 0.05398 0.0
H895 H 0.46385 0.75922 0.04525 0.0
H896 H 0.44247 0.79866 0.01976 0.0
H897 H 0.44834 0.7904 0.2014 0.0
H898 H 0.48559 0.82744 0.21199 0.0
H899 H 0.49724 0.78177 0.19393 0.0
C900 C 0.09496 0.34383 0.55286 0.0
C901 C 0.11399 0.35685 0.58678 0.0
C902 C 0.0934 0.3048 0.54371 0.0
C903 C 0.11084 0.27832 0.5696 0.0
C904 C 0.13187 0.29191 0.60296 0.0
C905 C 0.13323 0.33121 0.61111 0.0
C906 C 0.07111 0.29162 0.50763 0.0
C907 C 0.15072 0.26468 0.63136 0.0
C908 C 0.06402 0.17663 0.5728 0.0
C909 C 0.08891 0.15676 0.55091 0.0
C910 C 0.07118 0.21605 0.57946 0.0
C911 C 0.10392 0.23624 0.56372 0.0
C912 C 0.12935 0.21637 0.5419 0.0
C913 C 0.12161 0.17688 0.53583 0.0
C914 C 0.04345 0.23621 0.6031 0.0
C915 C 0.16443 0.23696 0.52452 0.0
H916 H 0.07978 0.36401 0.53457 0.0
H917 H 0.14736 0.34168 0.63762 0.0
H918 H 0.08811 0.27254 0.4909 0.0
H919 H 0.04446 0.27471 0.51605 0.0
H920 H 0.06308 0.31617 0.48843 0.0
H921 H 0.16933 0.2802 0.65344 0.0
H922 H 0.12829 0.24652 0.64661 0.0
H923 H 0.16828 0.24514 0.61586 0.0
H924 H 0.03876 0.16143 0.58466 0.0
H925 H 0.14103 0.16188 0.51882 0.0
H926 H 0.03058 0.25922 0.58508 0.0
H927 H 0.0589 0.25018 0.62818 0.0
H928 H 0.01993 0.21621 0.61418 0.0
H929 H 0.15562 0.25994 0.50377 0.0
H930 H 0.18183 0.21721 0.509 0.0
H931 H 0.18277 0.25108 0.54763 0.0
C932 C 0.61831 0.20083 0.49654 0.0
C933 C 0.62243 0.18688 0.4594 0.0
C934 C 0.60127 0.23562 0.50146 0.0
C935 C 0.58674 0.25591 0.46845 0.0
C936 C 0.58949 0.24095 0.43102 0.0
C937 C 0.60807 0.20709 0.42691 0.0
C938 C 0.59993 0.25127 0.54172 0.0
C939 C 0.57343 0.26104 0.39519 0.0
C940 C 0.5171 0.3329 0.48322 0.0
C941 C 0.54081 0.36652 0.47748 0.0
C942 C 0.53152 0.29653 0.48005 0.0
C943 C 0.57085 0.29397 0.47257 0.0
C944 C 0.59501 0.32796 0.46762 0.0
C945 C 0.57951 0.36382 0.46941 0.0
C946 C 0.5046 0.26094 0.484 0.0
C947 C 0.63734 0.32647 0.46079 0.0
H948 H 0.62895 0.18476 0.52159 0.0
H949 H 0.61176 0.19645 0.39816 0.0
H950 H 0.61636 0.27966 0.54285 0.0
H951 H 0.56992 0.25586 0.5488 0.0
H952 H 0.61209 0.23177 0.56433 0.0
H953 H 0.57423 0.24345 0.36891 0.0
H954 H 0.5433 0.26766 0.39952 0.0
H955 H 0.59022 0.28876 0.38981 0.0
H956 H 0.48717 0.33511 0.48948 0.0
H957 H 0.59798 0.38989 0.46562 0.0
H958 H 0.51459 0.2422 0.50835 0.0
H959 H 0.50455 0.24412 0.45716 0.0
H960 H 0.47472 0.26791 0.48924 0.0
H961 H 0.65086 0.30862 0.48396 0.0
H962 H 0.65261 0.35551 0.46019 0.0
H963 H 0.64144 0.31279 0.43273 0.0
loop_
_geom_bond_atom_site_label_1
_geom_bond_atom_site_label_2
_geom_bond_distance
_geom_bond_site_symmetry_2
_ccdc_geom_bond_type
C0 N1 1.317 . S
C0 N2 1.348 . S
C0 C3 1.485 . S
N1 C0 1.317 . S
N1 N5 1.370 . S
N2 C0 1.348 . S
N2 C4 1.346 . S
C3 C0 1.485 . S
C3 H7 0.960 . S
C3 H8 0.961 . S
C3 H9 0.960 . S
C4 N2 1.346 . S
C4 N5 1.307 . S
C4 C6 1.486 . S
N5 N1 1.370 . S
N5 C4 1.307 . S
C6 C4 1.486 . S
C6 H10 0.960 . S
C6 H11 0.960 . S
C6 H12 0.959 . S
H7 C3 0.960 . S
H8 C3 0.961 . S
H9 C3 0.960 . S
H10 C6 0.960 . S
H11 C6 0.960 . S
H12 C6 0.959 . S
C13 N14 1.317 . S
C13 N15 1.348 . S
C13 C16 1.485 . S
N14 C13 1.317 . S
N14 N18 1.370 . S
N15 C13 1.348 . S
N15 C17 1.346 . S
C16 C13 1.485 . S
C16 H20 0.960 . S
C16 H21 0.961 . S
C16 H22 0.960 . S
C17 N15 1.346 . S
C17 N18 1.307 . S
C17 C19 1.486 . S
N18 N14 1.370 . S
N18 C17 1.307 . S
C19 C17 1.486 . S
C19 H23 0.960 . S
C19 H24 0.960 . S
C19 H25 0.959 . S
H20 C16 0.960 . S
H21 C16 0.961 . S
H22 C16 0.960 . S
H23 C19 0.960 . S
H24 C19 0.960 . S
H25 C19 0.959 . S
C26 N27 1.317 . S
C26 N28 1.348 . S
C26 C29 1.485 . S
N27 C26 1.317 . S
N27 N31 1.370 . S
N28 C26 1.348 . S
N28 C30 1.346 . S
C29 C26 1.485 . S
C29 H33 0.960 . S
C29 H34 0.961 . S
C29 H35 0.960 . S
C30 N28 1.346 . S
C30 N31 1.307 . S
C30 C32 1.486 . S
N31 N27 1.370 . S
N31 C30 1.307 . S
C32 C30 1.486 . S
C32 H36 0.960 . S
C32 H37 0.960 . S
C32 H38 0.959 . S
H33 C29 0.960 . S
H34 C29 0.961 . S
H35 C29 0.960 . S
H36 C32 0.960 . S
H37 C32 0.960 . S
H38 C32 0.959 . S
C39 N40 1.317 . S
C39 N41 1.348 . S
C39 C42 1.485 . S
N40 C39 1.317 . S
N40 N44 1.370 . S
N41 C39 1.348 . S
N41 C43 1.346 . S
C42 C39 1.485 . S
C42 H46 0.960 . S
C42 H47 0.961 . S
C42 H48 0.960 . S
C43 N41 1.346 . S
C43 N44 1.307 . S
C43 C45 1.486 . S
N44 N40 1.370 . S
N44 C43 1.307 . S
C45 C43 1.486 . S
C45 H49 0.960 . S
C45 H50 0.960 . S
C45 H51 0.959 . S
H46 C42 0.960 . S
H47 C42 0.961 . S
H48 C42 0.960 . S
H49 C45 0.960 . S
H50 C45 0.960 . S
H51 C45 0.959 . S
C52 N53 1.317 . S
C52 N54 1.348 . S
C52 C55 1.485 . S
N53 C52 1.317 . S
N53 N57 1.370 . S
N54 C52 1.348 . S
N54 C56 1.346 . S
C55 C52 1.485 . S
C55 H59 0.960 . S
C55 H60 0.961 1_556 S
C55 H61 0.960 1_556 S
C56 N54 1.346 . S
C56 N57 1.307 . S
C56 C58 1.486 1_565 S
N57 N53 1.370 . S
N57 C56 1.307 . S
C58 C56 1.486 1_545 S
C58 H62 0.960 . S
C58 H63 0.960 . S
C58 H64 0.959 . S
H59 C55 0.960 . S
H60 C55 0.961 1_554 S
H61 C55 0.960 1_554 S
H62 C58 0.960 . S
H63 C58 0.960 . S
H64 C58 0.959 . S
C65 N66 1.317 . S
C65 N67 1.348 . S
C65 C68 1.485 . S
N66 C65 1.317 . S
N66 N70 1.370 . S
N67 C65 1.348 . S
N67 C69 1.346 . S
C68 C65 1.485 . S
C68 H72 0.960 . S
C68 H73 0.961 . S
C68 H74 0.960 . S
C69 N67 1.346 . S
C69 N70 1.307 . S
C69 C71 1.486 . S
N70 N66 1.370 . S
N70 C69 1.307 . S
C71 C69 1.486 . S
C71 H75 0.960 . S
C71 H76 0.960 . S
C71 H77 0.959 . S
H72 C68 0.960 . S
H73 C68 0.961 . S
H74 C68 0.960 . S
H75 C71 0.960 . S
H76 C71 0.960 . S
H77 C71 0.959 . S
C78 N79 1.317 . S
C78 N80 1.348 . S
C78 C81 1.485 . S
N79 C78 1.317 . S
N79 N83 1.370 . S
N80 C78 1.348 . S
N80 C82 1.346 . S
C81 C78 1.485 . S
C81 H85 0.960 . S
C81 H86 0.961 . S
C81 H87 0.960 . S
C82 N80 1.346 . S
C82 N83 1.307 . S
C82 C84 1.486 . S
N83 N79 1.370 . S
N83 C82 1.307 . S
C84 C82 1.486 . S
C84 H88 0.960 . S
C84 H89 0.960 . S
C84 H90 0.959 . S
H85 C81 0.960 . S
H86 C81 0.961 . S
H87 C81 0.960 . S
H88 C84 0.960 . S
H89 C84 0.960 . S
H90 C84 0.959 . S
C91 N92 1.317 . S
C91 N93 1.348 . S
C91 C94 1.485 . S
N92 C91 1.317 . S
N92 N96 1.370 . S
N93 C91 1.348 . S
N93 C95 1.346 . S
C94 C91 1.485 . S
C94 H98 0.960 . S
C94 H99 0.961 . S
C94 H100 0.960 . S
C95 N93 1.346 . S
C95 N96 1.307 . S
C95 C97 1.486 . S
N96 N92 1.370 . S
N96 C95 1.307 . S
C97 C95 1.486 . S
C97 H101 0.960 . S
C97 H102 0.960 . S
C97 H103 0.959 . S
H98 C94 0.960 . S
H99 C94 0.961 . S
H100 C94 0.960 . S
H101 C97 0.960 . S
H102 C97 0.960 . S
H103 C97 0.959 . S
O104 Zn105 1.953 . S
O104 C120 1.225 . S
Zn105 O104 1.953 . S
Zn105 O106 1.949 . S
Zn105 O112 1.919 1_455 S
Zn105 O117 1.924 . S
O106 Zn105 1.949 . S
O106 Zn107 1.923 1_545 S
O106 Zn108 1.950 . S
O106 Zn109 1.945 1_545 S
Zn107 O106 1.923 1_565 S
Zn107 O110 1.933 . S
Zn107 O113 1.941 1_465 S
Zn107 O114 1.965 1_565 S
Zn108 O106 1.950 . S
Zn108 O115 1.938 . S
Zn108 O116 1.906 . S
Zn108 O126 1.953 . S
Zn109 O106 1.945 1_565 S
Zn109 O111 1.932 . S
Zn109 O118 1.977 . S
Zn109 O119 1.910 . S
O110 Zn107 1.933 . S
O110 C121 1.226 . S
O111 Zn109 1.932 . S
O111 C121 1.307 . S
O112 Zn105 1.919 1_655 S
O112 C123 1.253 . S
O113 Zn107 1.941 1_645 S
O113 C123 1.283 . S
O114 Zn107 1.965 1_545 S
O114 C122 1.303 . S
O115 Zn108 1.938 . S
O115 C122 1.247 . S
O116 Zn108 1.906 . S
O116 C124 1.304 1_545 S
O117 Zn105 1.924 . S
O117 C125 1.311 1_545 S
O118 Zn109 1.977 . S
O118 C124 1.272 . S
O119 Zn109 1.910 . S
O119 C125 1.231 . S
C120 O104 1.225 . S
C120 O126 1.298 . S
C121 O110 1.226 . S
C121 O111 1.307 . S
C122 O114 1.303 . S
C122 O115 1.247 . S
C123 O112 1.253 . S
C123 O113 1.283 . S
C124 O116 1.304 1_565 S
C124 O118 1.272 . S
C125 O117 1.311 1_565 S
C125 O119 1.231 . S
O126 Zn108 1.953 . S
O126 C120 1.298 . S
O127 Zn128 1.955 . S
O127 C143 1.231 . S
Zn128 O127 1.955 . S
Zn128 O129 1.949 . S
Zn128 O135 1.919 1_554 S
Zn128 O140 1.924 . S
O129 Zn128 1.949 . S
O129 Zn130 1.923 1_545 S
O129 Zn131 1.950 . S
O129 Zn132 1.945 . S
Zn130 O129 1.923 1_565 S
Zn130 O133 1.933 . S
Zn130 O136 1.941 1_554 S
Zn130 O137 1.965 . S
Zn131 O129 1.950 . S
Zn131 O138 1.938 . S
Zn131 O139 1.906 . S
Zn131 O149 1.953 . S
Zn132 O129 1.945 . S
Zn132 O134 1.932 1_545 S
Zn132 O141 1.977 . S
Zn132 O142 1.910 . S
O133 Zn130 1.933 . S
O133 C144 1.226 . S
O134 Zn132 1.932 1_565 S
O134 C144 1.307 . S
O135 Zn128 1.919 1_556 S
O135 C146 1.253 1_545 S
O136 Zn130 1.941 1_556 S
O136 C146 1.283 . S
O137 Zn130 1.965 . S
O137 C145 1.303 1_565 S
O138 Zn131 1.938 . S
O138 C145 1.247 . S
O139 Zn131 1.906 . S
O139 C147 1.304 . S
O140 Zn128 1.924 . S
O140 C148 1.311 . S
O141 Zn132 1.977 . S
O141 C147 1.272 . S
O142 Zn132 1.910 . S
O142 C148 1.231 . S
C143 O127 1.231 . S
C143 O149 1.298 . S
C144 O133 1.226 . S
C144 O134 1.307 . S
C145 O137 1.303 1_545 S
C145 O138 1.247 . S
C146 O135 1.253 1_565 S
C146 O136 1.283 . S
C147 O139 1.304 . S
C147 O141 1.272 . S
C148 O140 1.311 . S
C148 O142 1.231 . S
O149 Zn131 1.953 . S
O149 C143 1.298 . S
O150 Zn151 1.953 . S
O150 C166 1.225 . S
Zn151 O150 1.953 . S
Zn151 O152 1.949 . S
Zn151 O158 1.919 . S
Zn151 O163 1.924 . S
O152 Zn151 1.949 . S
O152 Zn153 1.923 . S
O152 Zn154 1.950 . S
O152 Zn155 1.945 . S
Zn153 O152 1.923 . S
Zn153 O156 1.933 . S
Zn153 O159 1.941 . S
Zn153 O160 1.965 . S
Zn154 O152 1.950 . S
Zn154 O161 1.938 . S
Zn154 O162 1.906 . S
Zn154 O172 1.953 . S
Zn155 O152 1.945 . S
Zn155 O157 1.932 . S
Zn155 O164 1.977 . S
Zn155 O165 1.910 . S
O156 Zn153 1.933 . S
O156 C167 1.226 . S
O157 Zn155 1.932 . S
O157 C167 1.307 . S
O158 Zn151 1.919 . S
O158 C169 1.253 . S
O159 Zn153 1.941 . S
O159 C169 1.283 . S
O160 Zn153 1.965 . S
O160 C168 1.303 . S
O161 Zn154 1.938 . S
O161 C168 1.247 . S
O162 Zn154 1.906 . S
O162 C170 1.304 . S
O163 Zn151 1.924 . S
O163 C171 1.311 . S
O164 Zn155 1.977 . S
O164 C170 1.272 . S
O165 Zn155 1.910 . S
O165 C171 1.231 . S
C166 O150 1.225 . S
C166 O172 1.298 . S
C167 O156 1.226 . S
C167 O157 1.307 . S
C168 O160 1.303 . S
C168 O161 1.247 . S
C169 O158 1.253 . S
C169 O159 1.283 . S
C170 O162 1.304 . S
C170 O164 1.272 . S
C171 O163 1.311 . S
C171 O165 1.231 . S
O172 Zn154 1.953 . S
O172 C166 1.298 . S
O173 Zn174 1.953 . S
O173 C189 1.225 . S
Zn174 O173 1.953 . S
Zn174 O175 1.949 1_655 S
Zn174 O181 1.935 . S
Zn174 O186 1.924 . S
O175 Zn174 1.949 1_455 S
O175 Zn176 1.923 1_454 S
O175 Zn177 1.950 . S
O175 Zn178 1.945 1_554 S
Zn176 O175 1.923 1_656 S
Zn176 O179 1.933 1_655 S
Zn176 O182 1.941 . S
Zn176 O183 1.965 . S
Zn177 O175 1.950 . S
Zn177 O184 1.938 . S
Zn177 O185 1.906 . S
Zn177 O195 1.953 . S
Zn178 O175 1.945 1_556 S
Zn178 O180 1.932 . S
Zn178 O187 1.977 1_556 S
Zn178 O188 1.910 1_556 S
O179 Zn176 1.933 1_455 S
O179 C190 1.226 . S
O180 Zn178 1.932 . S
O180 C190 1.307 . S
O181 Zn174 1.935 . S
O181 C192 1.226 1_554 S
O182 Zn176 1.941 . S
O182 C192 1.283 . S
O183 Zn176 1.965 . S
O183 C191 1.303 . S
O184 Zn177 1.938 . S
O184 C191 1.247 1_454 S
O185 Zn177 1.906 . S
O185 C193 1.304 . S
O186 Zn174 1.924 . S
O186 C194 1.311 1_655 S
O187 Zn178 1.977 1_554 S
O187 C193 1.272 . S
O188 Zn178 1.910 1_554 S
O188 C194 1.231 . S
C189 O173 1.225 . S
C189 O195 1.298 1_655 S
C190 O179 1.226 . S
C190 O180 1.307 . S
C191 O183 1.303 . S
C191 O184 1.247 1_656 S
C192 O181 1.226 1_556 S
C192 O182 1.283 . S
C193 O185 1.304 . S
C193 O187 1.272 . S
C194 O186 1.311 1_455 S
C194 O188 1.231 . S
O195 Zn177 1.953 . S
O195 C189 1.298 1_455 S
C196 C197 1.391 . S
C196 C198 1.394 . S
C196 H212 0.931 . S
C197 C196 1.391 . S
C197 C201 1.376 . S
C198 C196 1.394 . S
C198 C199 1.369 . S
C198 C202 1.531 . S
C199 C198 1.369 . S
C199 C200 1.410 . S
C199 C207 1.503 . S
C200 C199 1.410 . S
C200 C201 1.392 . S
C200 C203 1.511 . S
C201 C197 1.376 . S
C201 C200 1.392 . S
C201 H213 0.929 . S
C202 C198 1.531 . S
C202 H214 0.960 . S
C202 H215 0.962 . S
C202 H216 0.960 . S
C203 C200 1.511 . S
C203 H217 0.961 . S
C203 H218 0.961 . S
C203 H219 0.961 . S
C204 C205 1.370 . S
C204 C206 1.363 . S
C204 H220 0.931 . S
C205 C204 1.370 . S
C205 C209 1.408 . S
C206 C204 1.363 . S
C206 C207 1.370 . S
C206 C210 1.524 . S
C207 C199 1.503 . S
C207 C206 1.370 . S
C207 C208 1.403 . S
C208 C207 1.403 . S
C208 C209 1.404 . S
C208 C211 1.539 . S
C209 C205 1.408 . S
C209 C208 1.404 . S
C209 H221 0.930 . S
C210 C206 1.524 . S
C210 H222 0.956 . S
C210 H223 0.961 . S
C210 H224 0.961 . S
C211 C208 1.539 . S
C211 H225 0.958 . S
C211 H226 0.961 . S
C211 H227 0.960 . S
H212 C196 0.931 . S
H213 C201 0.929 . S
H214 C202 0.960 . S
H215 C202 0.962 . S
H216 C202 0.960 . S
H217 C203 0.961 . S
H218 C203 0.961 . S
H219 C203 0.961 . S
H220 C204 0.931 . S
H221 C209 0.930 . S
H222 C210 0.956 . S
H223 C210 0.961 . S
H224 C210 0.961 . S
H225 C211 0.958 . S
H226 C211 0.961 . S
H227 C211 0.960 . S
C228 C229 1.391 . S
C228 C230 1.394 . S
C228 H244 0.931 . S
C229 C228 1.391 . S
C229 C233 1.376 . S
C230 C228 1.394 . S
C230 C231 1.369 . S
C230 C234 1.531 . S
C231 C230 1.369 . S
C231 C232 1.410 . S
C231 C239 1.503 . S
C232 C231 1.410 . S
C232 C233 1.392 . S
C232 C235 1.511 . S
C233 C229 1.376 . S
C233 C232 1.392 . S
C233 H245 0.929 . S
C234 C230 1.531 . S
C234 H246 0.960 . S
C234 H247 0.962 . S
C234 H248 0.960 . S
C235 C232 1.511 . S
C235 H249 0.961 . S
C235 H250 0.961 . S
C235 H251 0.961 . S
C236 C237 1.370 . S
C236 C238 1.363 . S
C236 H252 0.931 1_565 S
C237 C236 1.370 . S
C237 C241 1.408 . S
C238 C236 1.363 . S
C238 C239 1.370 . S
C238 C242 1.524 . S
C239 C231 1.503 . S
C239 C238 1.370 . S
C239 C240 1.403 . S
C240 C239 1.403 . S
C240 C241 1.404 . S
C240 C243 1.539 . S
C241 C237 1.408 . S
C241 C240 1.404 . S
C241 H253 0.930 . S
C242 C238 1.524 . S
C242 H254 0.956 . S
C242 H255 0.961 . S
C242 H256 0.961 1_565 S
C243 C240 1.539 . S
C243 H257 0.958 . S
C243 H258 0.961 . S
C243 H259 0.960 . S
H244 C228 0.931 . S
H245 C233 0.929 . S
H246 C234 0.960 . S
H247 C234 0.962 . S
H248 C234 0.960 . S
H249 C235 0.961 . S
H250 C235 0.961 . S
H251 C235 0.961 . S
H252 C236 0.931 1_545 S
H253 C241 0.930 . S
H254 C242 0.956 . S
H255 C242 0.961 . S
H256 C242 0.961 1_545 S
H257 C243 0.958 . S
H258 C243 0.961 . S
H259 C243 0.960 . S
C260 C261 1.391 . S
C260 C262 1.394 . S
C260 H276 0.931 . S
C261 C260 1.391 . S
C261 C265 1.376 . S
C262 C260 1.394 . S
C262 C263 1.369 . S
C262 C266 1.531 . S
C263 C262 1.369 . S
C263 C264 1.410 . S
C263 C271 1.503 . S
C264 C263 1.410 . S
C264 C265 1.392 . S
C264 C267 1.511 . S
C265 C261 1.376 . S
C265 C264 1.392 . S
C265 H277 0.929 . S
C266 C262 1.531 . S
C266 H278 0.960 . S
C266 H279 0.962 . S
C266 H280 0.960 . S
C267 C264 1.511 . S
C267 H281 0.961 . S
C267 H282 0.961 . S
C267 H283 0.961 . S
C268 C269 1.370 . S
C268 C270 1.363 . S
C268 H284 0.931 . S
C269 C268 1.370 . S
C269 C273 1.408 . S
C270 C268 1.363 . S
C270 C271 1.370 . S
C270 C274 1.524 . S
C271 C263 1.503 . S
C271 C270 1.370 . S
C271 C272 1.403 . S
C272 C271 1.403 . S
C272 C273 1.404 . S
C272 C275 1.539 . S
C273 C269 1.408 . S
C273 C272 1.404 . S
C273 H285 0.930 . S
C274 C270 1.524 . S
C274 H286 0.956 . S
C274 H287 0.961 . S
C274 H288 0.961 . S
C275 C272 1.539 . S
C275 H289 0.958 . S
C275 H290 0.961 . S
C275 H291 0.960 . S
H276 C260 0.931 . S
H277 C265 0.929 . S
H278 C266 0.960 . S
H279 C266 0.962 . S
H280 C266 0.960 . S
H281 C267 0.961 . S
H282 C267 0.961 . S
H283 C267 0.961 . S
H284 C268 0.931 . S
H285 C273 0.930 . S
H286 C274 0.956 . S
H287 C274 0.961 . S
H288 C274 0.961 . S
H289 C275 0.958 . S
H290 C275 0.961 . S
H291 C275 0.960 . S
C292 C293 1.391 . S
C292 C294 1.394 . S
C292 H308 0.931 . S
C293 C292 1.391 . S
C293 C297 1.376 . S
C294 C292 1.394 . S
C294 C295 1.369 . S
C294 C298 1.531 . S
C295 C294 1.369 . S
C295 C296 1.410 . S
C295 C303 1.503 . S
C296 C295 1.410 . S
C296 C297 1.392 . S
C296 C299 1.511 . S
C297 C293 1.376 . S
C297 C296 1.392 . S
C297 H309 0.929 . S
C298 C294 1.531 . S
C298 H310 0.960 . S
C298 H311 0.962 . S
C298 H312 0.960 . S
C299 C296 1.511 . S
C299 H313 0.961 . S
C299 H314 0.961 . S
C299 H315 0.961 . S
C300 C301 1.370 . S
C300 C302 1.363 . S
C300 H316 0.942 . S
C301 C300 1.370 . S
C301 C305 1.408 . S
C302 C300 1.363 . S
C302 C303 1.370 . S
C302 C306 1.524 . S
C303 C295 1.503 . S
C303 C302 1.370 . S
C303 C304 1.403 . S
C304 C303 1.403 . S
C304 C305 1.404 . S
C304 C307 1.539 . S
C305 C301 1.408 . S
C305 C304 1.404 . S
C305 H317 0.930 . S
C306 C302 1.524 . S
C306 H318 0.956 . S
C306 H319 0.968 . S
C306 H320 0.961 1_655 S
C307 C304 1.539 . S
C307 H321 0.958 . S
C307 H322 0.961 . S
C307 H323 0.960 . S
H308 C292 0.931 . S
H309 C297 0.929 . S
H310 C298 0.960 . S
H311 C298 0.962 . S
H312 C298 0.960 . S
H313 C299 0.961 . S
H314 C299 0.961 . S
H315 C299 0.961 . S
H316 C300 0.942 . S
H317 C305 0.930 . S
H318 C306 0.956 . S
H319 C306 0.968 . S
H320 C306 0.961 1_455 S
H321 C307 0.958 . S
H322 C307 0.961 . S
H323 C307 0.960 . S
C324 C325 1.391 . S
C324 C326 1.394 . S
C324 H340 0.931 . S
C325 C324 1.391 . S
C325 C329 1.376 . S
C326 C324 1.394 . S
C326 C327 1.369 . S
C326 C330 1.531 . S
C327 C326 1.369 . S
C327 C328 1.410 . S
C327 C335 1.503 . S
C328 C327 1.410 . S
C328 C329 1.392 . S
C328 C331 1.511 . S
C329 C325 1.376 . S
C329 C328 1.392 . S
C329 H341 0.929 . S
C330 C326 1.531 . S
C330 H342 0.960 . S
C330 H343 0.962 . S
C330 H344 0.960 . S
C331 C328 1.511 . S
C331 H345 0.961 . S
C331 H346 0.961 . S
C331 H347 0.961 . S
C332 C333 1.370 . S
C332 C334 1.363 . S
C332 H348 0.931 . S
C333 C332 1.370 . S
C333 C337 1.408 . S
C334 C332 1.363 . S
C334 C335 1.370 . S
C334 C338 1.524 . S
C335 C327 1.503 . S
C335 C334 1.370 . S
C335 C336 1.403 . S
C336 C335 1.403 . S
C336 C337 1.404 . S
C336 C339 1.539 . S
C337 C333 1.408 . S
C337 C336 1.404 . S
C337 H349 0.930 . S
C338 C334 1.524 . S
C338 H350 0.956 . S
C338 H351 0.961 . S
C338 H352 0.961 . S
C339 C336 1.539 . S
C339 H353 0.958 . S
C339 H354 0.961 . S
C339 H355 0.960 . S
H340 C324 0.931 . S
H341 C329 0.929 . S
H342 C330 0.960 . S
H343 C330 0.962 . S
H344 C330 0.960 . S
H345 C331 0.961 . S
H346 C331 0.961 . S
H347 C331 0.961 . S
H348 C332 0.931 . S
H349 C337 0.930 . S
H350 C338 0.956 . S
H351 C338 0.961 . S
H352 C338 0.961 . S
H353 C339 0.958 . S
H354 C339 0.961 . S
H355 C339 0.960 . S
C356 C357 1.391 . S
C356 C358 1.394 . S
C356 H372 0.931 . S
C357 C356 1.391 . S
C357 C361 1.376 . S
C358 C356 1.394 . S
C358 C359 1.369 . S
C358 C362 1.531 . S
C359 C358 1.369 . S
C359 C360 1.410 . S
C359 C367 1.503 . S
C360 C359 1.410 . S
C360 C361 1.392 . S
C360 C363 1.511 . S
C361 C357 1.376 . S
C361 C360 1.392 . S
C361 H373 0.929 . S
C362 C358 1.531 . S
C362 H374 0.960 . S
C362 H375 0.962 . S
C362 H376 0.960 . S
C363 C360 1.511 . S
C363 H377 0.961 . S
C363 H378 0.961 . S
C363 H379 0.961 . S
C364 C365 1.370 . S
C364 C366 1.363 . S
C364 H380 0.931 . S
C365 C364 1.370 . S
C365 C369 1.408 . S
C366 C364 1.363 . S
C366 C367 1.370 . S
C366 C370 1.524 . S
C367 C359 1.503 . S
C367 C366 1.370 . S
C367 C368 1.403 . S
C368 C367 1.403 . S
C368 C369 1.404 . S
C368 C371 1.539 1_565 S
C369 C365 1.408 . S
C369 C368 1.404 . S
C369 H381 0.930 1_565 S
C370 C366 1.524 . S
C370 H382 0.956 . S
C370 H383 0.961 . S
C370 H384 0.961 . S
C371 C368 1.539 1_545 S
C371 H385 0.958 . S
C371 H386 0.961 . S
C371 H387 0.960 1_545 S
H372 C356 0.931 . S
H373 C361 0.929 . S
H374 C362 0.960 . S
H375 C362 0.962 . S
H376 C362 0.960 . S
H377 C363 0.961 . S
H378 C363 0.961 . S
H379 C363 0.961 . S
H380 C364 0.931 . S
H381 C369 0.930 1_545 S
H382 C370 0.956 . S
H383 C370 0.961 . S
H384 C370 0.961 . S
H385 C371 0.958 . S
H386 C371 0.961 . S
H387 C371 0.960 1_565 S
C388 C389 1.391 . S
C388 C390 1.394 . S
C388 H404 0.931 . S
C389 C388 1.391 . S
C389 C393 1.376 . S
C390 C388 1.394 . S
C390 C391 1.369 . S
C390 C394 1.531 . S
C391 C390 1.369 . S
C391 C392 1.410 . S
C391 C399 1.503 . S
C392 C391 1.410 . S
C392 C393 1.392 . S
C392 C395 1.511 . S
C393 C389 1.376 . S
C393 C392 1.392 . S
C393 H405 0.929 . S
C394 C390 1.531 . S
C394 H406 0.960 . S
C394 H407 0.962 . S
C394 H408 0.960 . S
C395 C392 1.511 . S
C395 H409 0.961 . S
C395 H410 0.961 . S
C395 H411 0.961 . S
C396 C397 1.370 . S
C396 C398 1.363 . S
C396 H412 0.931 . S
C397 C396 1.370 . S
C397 C401 1.408 . S
C398 C396 1.363 . S
C398 C399 1.370 . S
C398 C402 1.524 . S
C399 C391 1.503 . S
C399 C398 1.370 . S
C399 C400 1.403 . S
C400 C399 1.403 . S
C400 C401 1.404 . S
C400 C403 1.539 1_556 S
C401 C397 1.408 . S
C401 C400 1.404 . S
C401 H413 0.930 1_556 S
C402 C398 1.524 . S
C402 H414 0.956 . S
C402 H415 0.961 . S
C402 H416 0.961 . S
C403 C400 1.539 1_554 S
C403 H417 0.958 . S
C403 H418 0.961 . S
C403 H419 0.960 1_554 S
H404 C388 0.931 . S
H405 C393 0.929 . S
H406 C394 0.960 . S
H407 C394 0.962 . S
H408 C394 0.960 . S
H409 C395 0.961 . S
H410 C395 0.961 . S
H411 C395 0.961 . S
H412 C396 0.931 . S
H413 C401 0.930 1_554 S
H414 C402 0.956 . S
H415 C402 0.961 . S
H416 C402 0.961 . S
H417 C403 0.958 . S
H418 C403 0.961 . S
H419 C403 0.960 1_556 S
C420 C421 1.391 . S
C420 C422 1.394 . S
C420 H436 0.931 . S
C421 C420 1.391 . S
C421 C425 1.376 . S
C422 C420 1.394 . S
C422 C423 1.369 . S
C422 C426 1.531 . S
C423 C422 1.369 . S
C423 C424 1.410 . S
C423 C431 1.503 . S
C424 C423 1.410 . S
C424 C425 1.392 . S
C424 C427 1.511 . S
C425 C421 1.376 . S
C425 C424 1.392 . S
C425 H437 0.929 . S
C426 C422 1.531 . S
C426 H438 0.960 . S
C426 H439 0.962 . S
C426 H440 0.960 . S
C427 C424 1.511 . S
C427 H441 0.961 . S
C427 H442 0.961 . S
C427 H443 0.961 . S
C428 C429 1.370 . S
C428 C430 1.363 . S
C428 H444 0.931 . S
C429 C428 1.370 . S
C429 C433 1.408 . S
C430 C428 1.363 . S
C430 C431 1.370 . S
C430 C434 1.524 . S
C431 C423 1.503 . S
C431 C430 1.370 . S
C431 C432 1.403 . S
C432 C431 1.403 . S
C432 C433 1.404 . S
C432 C435 1.539 . S
C433 C429 1.408 . S
C433 C432 1.404 . S
C433 H445 0.930 . S
C434 C430 1.524 . S
C434 H446 0.956 . S
C434 H447 0.961 . S
C434 H448 0.961 . S
C435 C432 1.539 . S
C435 H449 0.958 . S
C435 H450 0.961 . S
C435 H451 0.960 . S
H436 C420 0.931 . S
H437 C425 0.929 . S
H438 C426 0.960 . S
H439 C426 0.962 . S
H440 C426 0.960 . S
H441 C427 0.961 . S
H442 C427 0.961 . S
H443 C427 0.961 . S
H444 C428 0.931 . S
H445 C433 0.930 . S
H446 C434 0.956 . S
H447 C434 0.961 . S
H448 C434 0.961 . S
H449 C435 0.958 . S
H450 C435 0.961 . S
H451 C435 0.960 . S
C452 C453 1.391 . S
C452 C454 1.394 . S
C452 H468 0.931 . S
C453 C452 1.391 . S
C453 C457 1.376 . S
C454 C452 1.394 . S
C454 C455 1.369 . S
C454 C458 1.531 . S
C455 C454 1.369 . S
C455 C456 1.410 . S
C455 C463 1.503 . S
C456 C455 1.410 . S
C456 C457 1.392 . S
C456 C459 1.511 . S
C457 C453 1.376 . S
C457 C456 1.392 . S
C457 H469 0.929 . S
C458 C454 1.531 . S
C458 H470 0.960 . S
C458 H471 0.962 . S
C458 H472 0.960 . S
C459 C456 1.511 . S
C459 H473 0.961 . S
C459 H474 0.961 . S
C459 H475 0.975 . S
C460 C461 1.370 . S
C460 C462 1.363 . S
C460 H476 0.931 . S
C461 C460 1.370 . S
C461 C465 1.408 . S
C462 C460 1.363 . S
C462 C463 1.370 . S
C462 C466 1.524 . S
C463 C455 1.503 . S
C463 C462 1.370 . S
C463 C464 1.403 . S
C464 C463 1.403 . S
C464 C465 1.404 . S
C464 C467 1.539 . S
C465 C461 1.408 . S
C465 C464 1.404 . S
C465 H477 0.930 . S
C466 C462 1.524 . S
C466 H478 0.956 . S
C466 H479 0.961 . S
C466 H480 0.961 . S
C467 C464 1.539 . S
C467 H481 0.958 1_554 S
C467 H482 0.955 1_554 S
C467 H483 0.960 . S
H468 C452 0.931 . S
H469 C457 0.929 . S
H470 C458 0.960 . S
H471 C458 0.962 . S
H472 C458 0.960 . S
H473 C459 0.961 . S
H474 C459 0.961 . S
H475 C459 0.975 . S
H476 C460 0.931 . S
H477 C465 0.930 . S
H478 C466 0.956 . S
H479 C466 0.961 . S
H480 C466 0.961 . S
H481 C467 0.958 1_556 S
H482 C467 0.955 1_556 S
H483 C467 0.960 . S
C484 C485 1.391 . S
C484 C486 1.394 . S
C484 H500 0.931 . S
C485 C484 1.391 . S
C485 C489 1.376 . S
C486 C484 1.394 . S
C486 C487 1.369 . S
C486 C490 1.531 . S
C487 C486 1.369 . S
C487 C488 1.410 . S
C487 C495 1.503 . S
C488 C487 1.410 . S
C488 C489 1.392 . S
C488 C491 1.511 1_556 S
C489 C485 1.376 . S
C489 C488 1.392 . S
C489 H501 0.929 . S
C490 C486 1.531 . S
C490 H502 0.960 . S
C490 H503 0.962 . S
C490 H504 0.960 . S
C491 C488 1.511 1_554 S
C491 H505 0.961 . S
C491 H506 0.961 . S
C491 H507 0.961 . S
C492 C493 1.370 1_556 S
C492 C494 1.363 . S
C492 H508 0.931 1_556 S
C493 C492 1.370 1_554 S
C493 C497 1.408 1_554 S
C494 C492 1.363 . S
C494 C495 1.370 . S
C494 C498 1.524 . S
C495 C487 1.503 . S
C495 C494 1.370 . S
C495 C496 1.403 . S
C496 C495 1.403 . S
C496 C497 1.404 . S
C496 C499 1.539 . S
C497 C493 1.408 1_556 S
C497 C496 1.404 . S
C497 H509 0.930 . S
C498 C494 1.524 . S
C498 H510 0.956 . S
C498 H511 0.961 . S
C498 H512 0.961 . S
C499 C496 1.539 . S
C499 H513 0.958 . S
C499 H514 0.961 . S
C499 H515 0.960 . S
H500 C484 0.931 . S
H501 C489 0.929 . S
H502 C490 0.960 . S
H503 C490 0.962 . S
H504 C490 0.960 . S
H505 C491 0.961 . S
H506 C491 0.961 . S
H507 C491 0.961 . S
H508 C492 0.931 1_554 S
H509 C497 0.930 . S
H510 C498 0.956 . S
H511 C498 0.961 . S
H512 C498 0.961 . S
H513 C499 0.958 . S
H514 C499 0.961 . S
H515 C499 0.960 . S
C516 C517 1.391 . S
C516 C518 1.394 . S
C516 H532 0.931 . S
C517 C516 1.391 . S
C517 C521 1.376 . S
C518 C516 1.394 . S
C518 C519 1.369 . S
C518 C522 1.531 . S
C519 C518 1.369 . S
C519 C520 1.410 . S
C519 C527 1.503 . S
C520 C519 1.410 . S
C520 C521 1.392 . S
C520 C523 1.511 . S
C521 C517 1.376 . S
C521 C520 1.392 . S
C521 H533 0.929 . S
C522 C518 1.531 . S
C522 H534 0.960 1_655 S
C522 H535 0.962 . S
C522 H536 0.960 . S
C523 C520 1.511 . S
C523 H537 0.961 . S
C523 H538 0.961 . S
C523 H539 0.961 . S
C524 C525 1.370 1_655 S
C524 C526 1.363 . S
C524 H540 0.931 . S
C525 C524 1.370 1_455 S
C525 C529 1.408 . S
C526 C524 1.363 . S
C526 C527 1.370 . S
C526 C530 1.524 . S
C527 C519 1.503 . S
C527 C526 1.370 . S
C527 C528 1.403 1_655 S
C528 C527 1.403 1_455 S
C528 C529 1.404 . S
C528 C531 1.539 . S
C529 C525 1.408 . S
C529 C528 1.404 . S
C529 H541 0.930 . S
C530 C526 1.524 . S
C530 H542 0.956 . S
C530 H543 0.961 . S
C530 H544 0.961 . S
C531 C528 1.539 . S
C531 H545 0.958 . S
C531 H546 0.961 . S
C531 H547 0.960 . S
H532 C516 0.931 . S
H533 C521 0.929 . S
H534 C522 0.960 1_455 S
H535 C522 0.962 . S
H536 C522 0.960 . S
H537 C523 0.961 . S
H538 C523 0.961 . S
H539 C523 0.961 . S
H540 C524 0.931 . S
H541 C529 0.930 . S
H542 C530 0.956 . S
H543 C530 0.961 . S
H544 C530 0.961 . S
H545 C531 0.958 . S
H546 C531 0.961 . S
H547 C531 0.960 . S
C548 C549 1.391 . S
C548 C550 1.394 . S
C548 H564 0.931 . S
C549 C548 1.391 . S
C549 C553 1.376 . S
C550 C548 1.394 . S
C550 C551 1.369 . S
C550 C554 1.531 . S
C551 C550 1.369 . S
C551 C552 1.410 . S
C551 C559 1.503 . S
C552 C551 1.410 . S
C552 C553 1.392 . S
C552 C555 1.511 . S
C553 C549 1.376 . S
C553 C552 1.392 . S
C553 H565 0.929 . S
C554 C550 1.531 . S
C554 H566 0.960 . S
C554 H567 0.962 . S
C554 H568 0.960 . S
C555 C552 1.511 . S
C555 H569 0.961 . S
C555 H570 0.961 . S
C555 H571 0.961 . S
C556 C557 1.370 . S
C556 C558 1.363 . S
C556 H572 0.931 . S
C557 C556 1.370 . S
C557 C561 1.408 . S
C558 C556 1.363 . S
C558 C559 1.370 . S
C558 C562 1.524 . S
C559 C551 1.503 . S
C559 C558 1.370 . S
C559 C560 1.403 . S
C560 C559 1.403 . S
C560 C561 1.404 . S
C560 C563 1.539 . S
C561 C557 1.408 . S
C561 C560 1.404 . S
C561 H573 0.930 . S
C562 C558 1.524 . S
C562 H574 0.956 . S
C562 H575 0.961 . S
C562 H576 0.961 . S
C563 C560 1.539 . S
C563 H577 0.958 . S
C563 H578 0.961 . S
C563 H579 0.960 . S
H564 C548 0.931 . S
H565 C553 0.929 . S
H566 C554 0.960 . S
H567 C554 0.962 . S
H568 C554 0.960 . S
H569 C555 0.961 . S
H570 C555 0.961 . S
H571 C555 0.961 . S
H572 C556 0.931 . S
H573 C561 0.930 . S
H574 C562 0.956 . S
H575 C562 0.961 . S
H576 C562 0.961 . S
H577 C563 0.958 . S
H578 C563 0.961 . S
H579 C563 0.960 . S
C580 C581 1.391 . S
C580 C582 1.394 . S
C580 H596 0.932 1_655 S
C581 C580 1.391 . S
C581 C585 1.376 . S
C582 C580 1.394 . S
C582 C583 1.369 . S
C582 C586 1.531 1_655 S
C583 C582 1.369 . S
C583 C584 1.410 . S
C583 C591 1.503 . S
C584 C583 1.410 . S
C584 C585 1.392 . S
C584 C587 1.511 1_565 S
C585 C581 1.376 . S
C585 C584 1.392 . S
C585 H597 0.929 . S
C586 C582 1.531 1_455 S
C586 H598 0.960 . S
C586 H599 0.962 . S
C586 H600 0.960 . S
C587 C584 1.511 1_545 S
C587 H601 0.961 . S
C587 H602 0.961 . S
C587 H603 0.961 1_545 S
C588 C589 1.370 1_545 S
C588 C590 1.363 . S
C588 H604 0.931 . S
C589 C588 1.370 1_565 S
C589 C593 1.408 1_455 S
C590 C588 1.363 . S
C590 C591 1.370 1_445 S
C590 C594 1.524 . S
C591 C583 1.503 . S
C591 C590 1.370 1_665 S
C591 C592 1.403 . S
C592 C591 1.403 . S
C592 C593 1.404 . S
C592 C595 1.539 . S
C593 C589 1.408 1_655 S
C593 C592 1.404 . S
C593 H605 0.930 . S
C594 C590 1.524 . S
C594 H606 0.956 . S
C594 H607 0.961 1_455 S
C594 H608 0.961 . S
C595 C592 1.539 . S
C595 H609 0.958 . S
C595 H610 0.961 . S
C595 H611 0.960 . S
H596 C580 0.932 1_455 S
H597 C585 0.929 . S
H598 C586 0.960 . S
H599 C586 0.962 . S
H600 C586 0.960 . S
H601 C587 0.961 . S
H602 C587 0.961 . S
H603 C587 0.961 1_565 S
H604 C588 0.931 . S
H605 C593 0.930 . S
H606 C594 0.956 . S
H607 C594 0.961 1_655 S
H608 C594 0.961 . S
H609 C595 0.958 . S
H610 C595 0.961 . S
H611 C595 0.960 . S
C612 C613 1.391 . S
C612 C614 1.394 . S
C612 H628 0.931 . S
C613 C612 1.391 . S
C613 C617 1.376 . S
C614 C612 1.394 . S
C614 C615 1.369 . S
C614 C618 1.531 . S
C615 C614 1.369 . S
C615 C616 1.410 . S
C615 C623 1.503 . S
C616 C615 1.410 . S
C616 C617 1.392 . S
C616 C619 1.511 . S
C617 C613 1.376 . S
C617 C616 1.392 . S
C617 H629 0.929 . S
C618 C614 1.531 . S
C618 H630 0.960 . S
C618 H631 0.962 . S
C618 H632 0.960 . S
C619 C616 1.511 . S
C619 H633 0.961 . S
C619 H634 0.961 . S
C619 H635 0.961 . S
C620 C621 1.370 . S
C620 C622 1.363 . S
C620 H636 0.931 1_545 S
C621 C620 1.370 . S
C621 C625 1.408 . S
C622 C620 1.363 . S
C622 C623 1.370 . S
C622 C626 1.524 1_545 S
C623 C615 1.503 . S
C623 C622 1.370 . S
C623 C624 1.403 . S
C624 C623 1.403 . S
C624 C625 1.404 . S
C624 C627 1.539 . S
C625 C621 1.408 . S
C625 C624 1.404 . S
C625 H637 0.930 . S
C626 C622 1.524 1_565 S
C626 H638 0.956 . S
C626 H639 0.961 . S
C626 H640 0.961 . S
C627 C624 1.539 . S
C627 H641 0.958 . S
C627 H642 0.961 . S
C627 H643 0.960 . S
H628 C612 0.931 . S
H629 C617 0.929 . S
H630 C618 0.960 . S
H631 C618 0.962 . S
H632 C618 0.960 . S
H633 C619 0.961 . S
H634 C619 0.961 . S
H635 C619 0.961 . S
H636 C620 0.931 1_565 S
H637 C625 0.930 . S
H638 C626 0.956 . S
H639 C626 0.961 . S
H640 C626 0.961 . S
H641 C627 0.958 . S
H642 C627 0.961 . S
H643 C627 0.960 . S
C644 C645 1.391 . S
C644 C646 1.394 . S
C644 H660 0.931 . S
C645 C644 1.391 . S
C645 C649 1.376 . S
C646 C644 1.394 . S
C646 C647 1.369 . S
C646 C650 1.531 . S
C647 C646 1.369 . S
C647 C648 1.410 . S
C647 C655 1.503 . S
C648 C647 1.410 . S
C648 C649 1.392 . S
C648 C651 1.511 . S
C649 C645 1.376 . S
C649 C648 1.392 . S
C649 H661 0.929 . S
C650 C646 1.531 . S
C650 H662 0.960 . S
C650 H663 0.962 . S
C650 H664 0.960 . S
C651 C648 1.511 . S
C651 H665 0.961 . S
C651 H666 0.961 . S
C651 H667 0.961 . S
C652 C653 1.370 . S
C652 C654 1.363 . S
C652 H668 0.931 . S
C653 C652 1.370 . S
C653 C657 1.408 . S
C654 C652 1.363 . S
C654 C655 1.370 . S
C654 C658 1.524 . S
C655 C647 1.503 . S
C655 C654 1.370 . S
C655 C656 1.403 . S
C656 C655 1.403 . S
C656 C657 1.404 . S
C656 C659 1.539 . S
C657 C653 1.408 . S
C657 C656 1.404 . S
C657 H669 0.930 . S
C658 C654 1.524 . S
C658 H670 0.956 . S
C658 H671 0.961 . S
C658 H672 0.961 . S
C659 C656 1.539 . S
C659 H673 0.958 . S
C659 H674 0.961 . S
C659 H675 0.960 . S
H660 C644 0.931 . S
H661 C649 0.929 . S
H662 C650 0.960 . S
H663 C650 0.962 . S
H664 C650 0.960 . S
H665 C651 0.961 . S
H666 C651 0.961 . S
H667 C651 0.961 . S
H668 C652 0.931 . S
H669 C657 0.930 . S
H670 C658 0.956 . S
H671 C658 0.961 . S
H672 C658 0.961 . S
H673 C659 0.958 . S
H674 C659 0.961 . S
H675 C659 0.960 . S
C676 C677 1.391 . S
C676 C678 1.394 . S
C676 H692 0.931 . S
C677 C676 1.391 . S
C677 C681 1.376 . S
C678 C676 1.394 . S
C678 C679 1.369 . S
C678 C682 1.531 . S
C679 C678 1.369 . S
C679 C680 1.410 . S
C679 C687 1.503 . S
C680 C679 1.410 . S
C680 C681 1.392 . S
C680 C683 1.511 1_455 S
C681 C677 1.376 . S
C681 C680 1.392 . S
C681 H693 0.929 . S
C682 C678 1.531 . S
C682 H694 0.960 . S
C682 H695 0.962 . S
C682 H696 0.960 . S
C683 C680 1.511 1_655 S
C683 H697 0.961 . S
C683 H698 0.961 . S
C683 H699 0.961 . S
C684 C685 1.370 . S
C684 C686 1.363 . S
C684 H700 0.931 . S
C685 C684 1.370 . S
C685 C689 1.408 . S
C686 C684 1.363 . S
C686 C687 1.370 . S
C686 C690 1.524 . S
C687 C679 1.503 . S
C687 C686 1.370 . S
C687 C688 1.403 . S
C688 C687 1.403 . S
C688 C689 1.404 . S
C688 C691 1.539 . S
C689 C685 1.408 . S
C689 C688 1.404 . S
C689 H701 0.930 . S
C690 C686 1.524 . S
C690 H702 0.956 . S
C690 H703 0.961 . S
C690 H704 0.961 . S
C691 C688 1.539 . S
C691 H705 0.958 . S
C691 H706 0.961 . S
C691 H707 0.960 . S
H692 C676 0.931 . S
H693 C681 0.929 . S
H694 C682 0.960 . S
H695 C682 0.962 . S
H696 C682 0.960 . S
H697 C683 0.961 . S
H698 C683 0.961 . S
H699 C683 0.961 . S
H700 C684 0.931 . S
H701 C689 0.930 . S
H702 C690 0.956 . S
H703 C690 0.961 . S
H704 C690 0.961 . S
H705 C691 0.958 . S
H706 C691 0.961 . S
H707 C691 0.960 . S
C708 C709 1.391 . S
C708 C710 1.394 . S
C708 H724 0.931 . S
C709 C708 1.391 . S
C709 C713 1.364 1_565 S
C710 C708 1.394 . S
C710 C711 1.369 . S
C710 C714 1.531 . S
C711 C710 1.369 . S
C711 C712 1.410 1_566 S
C711 C719 1.503 . S
C712 C711 1.410 1_544 S
C712 C713 1.395 1_554 S
C712 C715 1.511 . S
C713 C709 1.364 1_545 S
C713 C712 1.395 1_556 S
C713 H725 0.938 1_556 S
C714 C710 1.531 . S
C714 H726 0.960 . S
C714 H727 0.962 . S
C714 H728 0.960 . S
C715 C712 1.511 . S
C715 H729 0.961 . S
C715 H730 0.961 . S
C715 H731 0.961 . S
C716 C717 1.370 1_556 S
C716 C718 1.363 . S
C716 H732 0.931 . S
C717 C716 1.370 1_554 S
C717 C721 1.408 1_545 S
C718 C716 1.363 . S
C718 C719 1.370 1_545 S
C718 C722 1.524 . S
C719 C711 1.503 . S
C719 C718 1.370 1_565 S
C719 C720 1.403 1_556 S
C720 C719 1.403 1_554 S
C720 C721 1.404 . S
C720 C723 1.539 . S
C721 C717 1.408 1_565 S
C721 C720 1.404 . S
C721 H733 0.930 . S
C722 C718 1.524 . S
C722 H734 0.956 . S
C722 H735 0.961 . S
C722 H736 0.961 . S
C723 C720 1.539 . S
C723 H737 0.958 . S
C723 H738 0.961 . S
C723 H739 0.960 . S
H724 C708 0.931 . S
H725 C713 0.938 1_554 S
H726 C714 0.960 . S
H727 C714 0.962 . S
H728 C714 0.960 . S
H729 C715 0.961 . S
H730 C715 0.961 . S
H731 C715 0.961 . S
H732 C716 0.931 . S
H733 C721 0.930 . S
H734 C722 0.956 . S
H735 C722 0.961 . S
H736 C722 0.961 . S
H737 C723 0.958 . S
H738 C723 0.961 . S
H739 C723 0.960 . S
C740 C741 1.391 . S
C740 C742 1.394 . S
C740 H756 0.931 . S
C741 C740 1.391 . S
C741 C745 1.376 . S
C742 C740 1.394 . S
C742 C743 1.369 . S
C742 C746 1.531 . S
C743 C742 1.369 . S
C743 C744 1.410 . S
C743 C751 1.503 . S
C744 C743 1.410 . S
C744 C745 1.392 . S
C744 C747 1.511 1_545 S
C745 C741 1.376 . S
C745 C744 1.392 . S
C745 H757 0.929 . S
C746 C742 1.531 . S
C746 H758 0.960 . S
C746 H759 0.962 . S
C746 H760 0.960 . S
C747 C744 1.511 1_565 S
C747 H761 0.961 . S
C747 H762 0.961 . S
C747 H763 0.961 . S
C748 C749 1.370 . S
C748 C750 1.363 . S
C748 H764 0.931 . S
C749 C748 1.370 . S
C749 C753 1.408 . S
C750 C748 1.363 . S
C750 C751 1.370 . S
C750 C754 1.524 . S
C751 C743 1.503 . S
C751 C750 1.370 . S
C751 C752 1.403 . S
C752 C751 1.403 . S
C752 C753 1.404 . S
C752 C755 1.539 . S
C753 C749 1.408 . S
C753 C752 1.404 . S
C753 H765 0.930 . S
C754 C750 1.524 . S
C754 H766 0.956 . S
C754 H767 0.961 . S
C754 H768 0.961 . S
C755 C752 1.539 . S
C755 H769 0.958 . S
C755 H770 0.961 . S
C755 H771 0.960 . S
H756 C740 0.931 . S
H757 C745 0.929 . S
H758 C746 0.960 . S
H759 C746 0.962 . S
H760 C746 0.960 . S
H761 C747 0.961 . S
H762 C747 0.961 . S
H763 C747 0.961 . S
H764 C748 0.931 . S
H765 C753 0.930 . S
H766 C754 0.956 . S
H767 C754 0.961 . S
H768 C754 0.961 . S
H769 C755 0.958 . S
H770 C755 0.961 . S
H771 C755 0.960 . S
C772 C773 1.391 . S
C772 C774 1.394 . S
C772 H788 0.931 . S
C773 C772 1.391 . S
C773 C777 1.376 . S
C774 C772 1.394 . S
C774 C775 1.369 . S
C774 C778 1.531 . S
C775 C774 1.369 . S
C775 C776 1.410 . S
C775 C783 1.503 . S
C776 C775 1.410 . S
C776 C777 1.392 . S
C776 C779 1.511 . S
C777 C773 1.376 . S
C777 C776 1.392 . S
C777 H789 0.929 . S
C778 C774 1.531 . S
C778 H790 0.960 . S
C778 H791 0.962 1_554 S
C778 H792 0.961 . S
C779 C776 1.511 . S
C779 H793 0.961 . S
C779 H794 0.961 . S
C779 H795 0.961 . S
C780 C781 1.370 . S
C780 C782 1.363 . S
C780 H796 0.931 1_554 S
C781 C780 1.370 . S
C781 C785 1.408 . S
C782 C780 1.363 . S
C782 C783 1.370 . S
C782 C786 1.524 . S
C783 C775 1.503 . S
C783 C782 1.370 . S
C783 C784 1.403 . S
C784 C783 1.403 . S
C784 C785 1.404 . S
C784 C787 1.539 . S
C785 C781 1.408 . S
C785 C784 1.404 . S
C785 H797 0.930 . S
C786 C782 1.524 . S
C786 H798 0.956 1_554 S
C786 H799 0.961 . S
C786 H800 0.961 1_554 S
C787 C784 1.539 . S
C787 H801 0.958 . S
C787 H802 0.961 . S
C787 H803 0.960 . S
H788 C772 0.931 . S
H789 C777 0.929 . S
H790 C778 0.960 . S
H791 C778 0.962 1_556 S
H792 C778 0.961 . S
H793 C779 0.961 . S
H794 C779 0.961 . S
H795 C779 0.961 . S
H796 C780 0.931 1_556 S
H797 C785 0.930 . S
H798 C786 0.956 1_556 S
H799 C786 0.961 . S
H800 C786 0.961 1_556 S
H801 C787 0.958 . S
H802 C787 0.961 . S
H803 C787 0.960 . S
C804 C805 1.391 . S
C804 C806 1.394 . S
C804 H820 0.931 . S
C805 C804 1.391 . S
C805 C809 1.376 . S
C806 C804 1.394 . S
C806 C807 1.369 . S
C806 C810 1.531 . S
C807 C806 1.369 . S
C807 C808 1.410 . S
C807 C815 1.503 . S
C808 C807 1.410 . S
C808 C809 1.392 . S
C808 C811 1.511 . S
C809 C805 1.376 . S
C809 C808 1.392 . S
C809 H821 0.929 . S
C810 C806 1.531 . S
C810 H822 0.960 . S
C810 H823 0.962 . S
C810 H824 0.960 . S
C811 C808 1.511 . S
C811 H825 0.961 . S
C811 H826 0.961 . S
C811 H827 0.961 . S
C812 C813 1.370 . S
C812 C814 1.363 . S
C812 H828 0.931 . S
C813 C812 1.370 . S
C813 C817 1.408 . S
C814 C812 1.363 . S
C814 C815 1.370 . S
C814 C818 1.524 . S
C815 C807 1.503 . S
C815 C814 1.370 . S
C815 C816 1.403 . S
C816 C815 1.403 . S
C816 C817 1.404 . S
C816 C819 1.539 . S
C817 C813 1.408 . S
C817 C816 1.404 . S
C817 H829 0.930 . S
C818 C814 1.524 . S
C818 H830 0.956 . S
C818 H831 0.961 . S
C818 H832 0.961 . S
C819 C816 1.539 . S
C819 H833 0.958 . S
C819 H834 0.961 . S
C819 H835 0.960 . S
H820 C804 0.931 . S
H821 C809 0.929 . S
H822 C810 0.960 . S
H823 C810 0.962 . S
H824 C810 0.960 . S
H825 C811 0.961 . S
H826 C811 0.961 . S
H827 C811 0.961 . S
H828 C812 0.931 . S
H829 C817 0.930 . S
H830 C818 0.956 . S
H831 C818 0.961 . S
H832 C818 0.961 . S
H833 C819 0.958 . S
H834 C819 0.961 . S
H835 C819 0.960 . S
C836 C837 1.391 . S
C836 C838 1.394 . S
C836 H852 0.931 . S
C837 C836 1.391 . S
C837 C841 1.376 . S
C838 C836 1.394 . S
C838 C839 1.369 . S
C838 C842 1.531 . S
C839 C838 1.369 . S
C839 C840 1.410 . S
C839 C847 1.503 . S
C840 C839 1.410 . S
C840 C841 1.392 . S
C840 C843 1.511 1_656 S
C841 C837 1.376 . S
C841 C840 1.392 . S
C841 H853 0.929 . S
C842 C838 1.531 . S
C842 H854 0.960 . S
C842 H855 0.962 . S
C842 H856 0.960 . S
C843 C840 1.511 1_454 S
C843 H857 0.961 . S
C843 H858 0.961 . S
C843 H859 0.961 1_554 S
C844 C845 1.370 . S
C844 C846 1.363 . S
C844 H860 0.931 1_556 S
C845 C844 1.370 . S
C845 C849 1.408 . S
C846 C844 1.363 . S
C846 C847 1.370 . S
C846 C850 1.524 1_556 S
C847 C839 1.503 . S
C847 C846 1.370 . S
C847 C848 1.403 . S
C848 C847 1.403 . S
C848 C849 1.404 . S
C848 C851 1.539 1_655 S
C849 C845 1.408 . S
C849 C848 1.404 . S
C849 H861 0.930 1_655 S
C850 C846 1.524 1_554 S
C850 H862 0.956 1_554 S
C850 H863 0.961 . S
C850 H864 0.961 . S
C851 C848 1.539 1_455 S
C851 H865 0.958 . S
C851 H866 0.961 . S
C851 H867 0.960 . S
H852 C836 0.931 . S
H853 C841 0.929 . S
H854 C842 0.960 . S
H855 C842 0.962 . S
H856 C842 0.960 . S
H857 C843 0.961 . S
H858 C843 0.961 . S
H859 C843 0.961 1_556 S
H860 C844 0.931 1_554 S
H861 C849 0.930 1_455 S
H862 C850 0.956 1_556 S
H863 C850 0.961 . S
H864 C850 0.961 . S
H865 C851 0.958 . S
H866 C851 0.961 . S
H867 C851 0.960 . S
C868 C869 1.391 . S
C868 C870 1.394 . S
C868 H884 0.931 . S
C869 C868 1.391 . S
C869 C873 1.376 . S
C870 C868 1.394 . S
C870 C871 1.369 . S
C870 C874 1.531 . S
C871 C870 1.369 . S
C871 C872 1.410 . S
C871 C879 1.503 . S
C872 C871 1.410 . S
C872 C873 1.392 . S
C872 C875 1.511 . S
C873 C869 1.376 . S
C873 C872 1.392 . S
C873 H885 0.929 . S
C874 C870 1.531 . S
C874 H886 0.960 . S
C874 H887 0.962 . S
C874 H888 0.960 . S
C875 C872 1.511 . S
C875 H889 0.961 . S
C875 H890 0.961 . S
C875 H891 0.961 . S
C876 C877 1.370 . S
C876 C878 1.363 . S
C876 H892 0.931 . S
C877 C876 1.370 . S
C877 C881 1.408 . S
C878 C876 1.363 . S
C878 C879 1.370 . S
C878 C882 1.524 . S
C879 C871 1.503 . S
C879 C878 1.370 . S
C879 C880 1.403 . S
C880 C879 1.403 . S
C880 C881 1.404 . S
C880 C883 1.539 . S
C881 C877 1.408 . S
C881 C880 1.404 . S
C881 H893 0.930 . S
C882 C878 1.524 . S
C882 H894 0.956 . S
C882 H895 0.961 . S
C882 H896 0.961 . S
C883 C880 1.539 . S
C883 H897 0.958 . S
C883 H898 0.961 . S
C883 H899 0.960 . S
H884 C868 0.931 . S
H885 C873 0.929 . S
H886 C874 0.960 . S
H887 C874 0.962 . S
H888 C874 0.960 . S
H889 C875 0.961 . S
H890 C875 0.961 . S
H891 C875 0.961 . S
H892 C876 0.931 . S
H893 C881 0.930 . S
H894 C882 0.956 . S
H895 C882 0.961 . S
H896 C882 0.961 . S
H897 C883 0.958 . S
H898 C883 0.961 . S
H899 C883 0.960 . S
C900 C901 1.391 . S
C900 C902 1.394 . S
C900 H916 0.931 . S
C901 C900 1.391 . S
C901 C905 1.376 . S
C902 C900 1.394 . S
C902 C903 1.369 . S
C902 C906 1.531 . S
C903 C902 1.369 . S
C903 C904 1.410 . S
C903 C911 1.503 . S
C904 C903 1.410 . S
C904 C905 1.392 . S
C904 C907 1.511 . S
C905 C901 1.376 . S
C905 C904 1.392 . S
C905 H917 0.929 . S
C906 C902 1.531 . S
C906 H918 0.960 . S
C906 H919 0.962 . S
C906 H920 0.960 . S
C907 C904 1.511 . S
C907 H921 0.961 . S
C907 H922 0.961 . S
C907 H923 0.961 . S
C908 C909 1.370 . S
C908 C910 1.363 . S
C908 H924 0.931 . S
C909 C908 1.370 . S
C909 C913 1.408 . S
C910 C908 1.363 . S
C910 C911 1.370 . S
C910 C914 1.524 . S
C911 C903 1.503 . S
C911 C910 1.370 . S
C911 C912 1.403 . S
C912 C911 1.403 . S
C912 C913 1.404 . S
C912 C915 1.539 . S
C913 C909 1.408 . S
C913 C912 1.404 . S
C913 H925 0.930 . S
C914 C910 1.524 . S
C914 H926 0.956 . S
C914 H927 0.961 . S
C914 H928 0.961 . S
C915 C912 1.539 . S
C915 H929 0.958 . S
C915 H930 0.961 . S
C915 H931 0.960 . S
H916 C900 0.931 . S
H917 C905 0.929 . S
H918 C906 0.960 . S
H919 C906 0.962 . S
H920 C906 0.960 . S
H921 C907 0.961 . S
H922 C907 0.961 . S
H923 C907 0.961 . S
H924 C908 0.931 . S
H925 C913 0.930 . S
H926 C914 0.956 . S
H927 C914 0.961 . S
H928 C914 0.961 . S
H929 C915 0.958 . S
H930 C915 0.961 . S
H931 C915 0.960 . S
C932 C933 1.391 . S
C932 C934 1.394 . S
C932 H948 0.931 . S
C933 C932 1.391 . S
C933 C937 1.376 . S
C934 C932 1.394 . S
C934 C935 1.369 . S
C934 C938 1.531 . S
C935 C934 1.369 . S
C935 C936 1.410 . S
C935 C943 1.503 . S
C936 C935 1.410 . S
C936 C937 1.392 . S
C936 C939 1.511 . S
C937 C933 1.376 . S
C937 C936 1.392 . S
C937 H949 0.929 . S
C938 C934 1.531 . S
C938 H950 0.960 . S
C938 H951 0.962 . S
C938 H952 0.960 . S
C939 C936 1.511 . S
C939 H953 0.961 . S
C939 H954 0.961 . S
C939 H955 0.961 . S
C940 C941 1.370 . S
C940 C942 1.363 . S
C940 H956 0.931 . S
C941 C940 1.370 . S
C941 C945 1.408 . S
C942 C940 1.363 . S
C942 C943 1.370 . S
C942 C946 1.524 . S
C943 C935 1.503 . S
C943 C942 1.370 . S
C943 C944 1.403 . S
C944 C943 1.403 . S
C944 C945 1.404 . S
C944 C947 1.539 . S
C945 C941 1.408 . S
C945 C944 1.404 . S
C945 H957 0.930 . S
C946 C942 1.524 . S
C946 H958 0.956 . S
C946 H959 0.961 . S
C946 H960 0.961 . S
C947 C944 1.539 . S
C947 H961 0.958 . S
C947 H962 0.961 . S
C947 H963 0.960 . S
H948 C932 0.931 . S
H949 C937 0.929 . S
H950 C938 0.960 . S
H951 C938 0.962 . S
H952 C938 0.960 . S
H953 C939 0.961 . S
H954 C939 0.961 . S
H955 C939 0.961 . S
H956 C940 0.931 . S
H957 C945 0.930 . S
H958 C946 0.956 . S
H959 C946 0.961 . S
H960 C946 0.961 . S
H961 C947 0.958 . S
H962 C947 0.961 . S
H963 C947 0.960 . S
C197 N1 1.544 . S
C205 C122 1.529 . S
C229 N18 1.865 . S
C237 C146 1.875 . S
C269 C166 1.004 . S
C261 N28 0.998 . S
C293 N40 1.557 . S
C301 C189 1.604 . S
C333 C148 1.981 . S
C325 N5 1.955 . S
C365 C124 1.690 . S
C357 N14 1.719 . S
C397 C192 1.509 . S
C389 N31 1.535 . S
C429 C169 1.223 . S
C421 N41 1.229 . S
C453 N2 1.386 . S
C461 C194 1.328 . S
C493 C143 1.687 . S
C485 N27 1.663 . S
C517 N44 1.707 . S
C525 C121 1.724 . S
C549 N15 1.273 . S
C557 C171 1.245 . S
C589 C125 1.844 . S
C581 N57 1.836 . S
C613 N70 1.303 . S
C621 C147 1.359 . S
C645 N79 1.572 . S
C653 C167 1.628 . S
C677 N93 1.519 . S
C685 C190 1.527 . S
C709 N54 1.414 . S
C717 C145 1.411 . S
C749 C123 1.949 . S
C741 N66 1.924 . S
C781 C193 0.972 . S
C773 N80 1.014 . S
C813 C170 1.490 . S
C805 N96 1.525 . S
C837 N53 1.760 . S
C845 C191 1.722 . S
C877 C144 1.489 . S
C869 N83 1.479 . S
C909 C120 1.675 . S
C901 N92 1.592 . S
C933 N67 1.592 . S
C941 C168 1.632 . S
