# Generated by pormake.
# Topology nom, (4,4)-cn, num edge types: 1
# Building blocks:
#     Node 0, Type 0, BuildingBlock: MIFKUJ_clean_linker_1, # of connection points: 4
#     Node 1, Type 0, BuildingBlock: MIFKUJ_clean_linker_1, # of connection points: 4
#     Node 2, Type 0, BuildingBlock: MIFKUJ_clean_linker_1, # of connection points: 4
#     Node 3, Type 0, BuildingBlock: MIFKUJ_clean_linker_1, # of connection points: 4
#     Node 4, Type 0, BuildingBlock: MIFKUJ_clean_linker_1, # of connection points: 4
#     Node 5, Type 0, BuildingBlock: MIFKUJ_clean_linker_1, # of connection points: 4
#     Node 6, Type 1, BuildingBlock: UXUYUI_clean_sbu_0, # of connection points: 4
#     Node 7, Type 1, BuildingBlock: UXUYUI_clean_sbu_0, # of connection points: 4
#     Node 8, Type 1, BuildingBlock: UXUYUI_clean_sbu_0, # of connection points: 4
#     Node 9, Type 1, BuildingBlock: UXUYUI_clean_sbu_0, # of connection points: 4
#     Node 10, Type 1, BuildingBlock: UXUYUI_clean_sbu_0, # of connection points: 4
#     Node 11, Type 1, BuildingBlock: UXUYUI_clean_sbu_0, # of connection points: 4
#     Edge 12, Type (0, 1), BuildingBlock: XIVTED_clean_linker_0, # of connection points: 2
#     Edge 13, Type (0, 1), BuildingBlock: XIVTED_clean_linker_0, # of connection points: 2
#     Edge 14, Type (0, 1), BuildingBlock: XIVTED_clean_linker_0, # of connection points: 2
#     Edge 15, Type (0, 1), BuildingBlock: XIVTED_clean_linker_0, # of connection points: 2
#     Edge 16, Type (0, 1), BuildingBlock: XIVTED_clean_linker_0, # of connection points: 2
#     Edge 17, Type (0, 1), BuildingBlock: XIVTED_clean_linker_0, # of connection points: 2
#     Edge 18, Type (0, 1), BuildingBlock: XIVTED_clean_linker_0, # of connection points: 2
#     Edge 19, Type (0, 1), BuildingBlock: XIVTED_clean_linker_0, # of connection points: 2
#     Edge 20, Type (0, 1), BuildingBlock: XIVTED_clean_linker_0, # of connection points: 2
#     Edge 21, Type (0, 1), BuildingBlock: XIVTED_clean_linker_0, # of connection points: 2
#     Edge 22, Type (0, 1), BuildingBlock: XIVTED_clean_linker_0, # of connection points: 2
#     Edge 23, Type (0, 1), BuildingBlock: XIVTED_clean_linker_0, # of connection points: 2
#     Edge 24, Type (0, 1), BuildingBlock: XIVTED_clean_linker_0, # of connection points: 2
#     Edge 25, Type (0, 1), BuildingBlock: XIVTED_clean_linker_0, # of connection points: 2
#     Edge 26, Type (0, 1), BuildingBlock: XIVTED_clean_linker_0, # of connection points: 2
#     Edge 27, Type (0, 1), BuildingBlock: XIVTED_clean_linker_0, # of connection points: 2
#     Edge 28, Type (0, 1), BuildingBlock: XIVTED_clean_linker_0, # of connection points: 2
#     Edge 29, Type (0, 1), BuildingBlock: XIVTED_clean_linker_0, # of connection points: 2
#     Edge 30, Type (0, 1), BuildingBlock: XIVTED_clean_linker_0, # of connection points: 2
#     Edge 31, Type (0, 1), BuildingBlock: XIVTED_clean_linker_0, # of connection points: 2
#     Edge 32, Type (0, 1), BuildingBlock: XIVTED_clean_linker_0, # of connection points: 2
#     Edge 33, Type (0, 1), BuildingBlock: XIVTED_clean_linker_0, # of connection points: 2
#     Edge 34, Type (0, 1), BuildingBlock: XIVTED_clean_linker_0, # of connection points: 2
#     Edge 35, Type (0, 1), BuildingBlock: XIVTED_clean_linker_0, # of connection points: 2
# Relax obj value: 0.035
# Max RMSD: 0.144
# Mean RMSD: 0.118
data_MOF--net-nom--node1-UXUYUI_clean_sbu_0--node2-MIFKUJ_clean_linker_1--edge1-XIVTED_clean_linker_0
_symmetry_space_group_name_H-M    P1
_symmetry_Int_Tables_number       1
_symmetry_cell_setting            triclinic
loop_
_symmetry_equiv_pos_as_xyz
'x, y, z'
_cell_length_a     63.660954
_cell_length_b     63.642956
_cell_length_c     67.822671
_cell_angle_alpha  89.992076
_cell_angle_beta   89.998842
_cell_angle_gamma 120.0319
loop_
_atom_site_label
_atom_site_type_symbol
_atom_site_fract_x
_atom_site_fract_y
_atom_site_fract_z
_atom_type_partial_charge
H0 H 0.9915 0.46418 0.29017 0.0
H1 H 0.96237 0.44824 0.26305 0.0
H2 H 0.94281 0.50317 0.27435 0.0
H3 H 0.97148 0.51844 0.30185 0.0
H4 H 0.03144 0.51395 0.29479 0.0
H5 H 0.95344 0.45658 0.32756 0.0
H6 H 0.91131 0.44383 0.33614 0.0
H7 H 0.93507 0.51404 0.36248 0.0
H8 H 0.97684 0.52683 0.35338 0.0
H9 H 0.04132 0.55046 0.37509 0.0
H10 H 0.07022 0.56337 0.40241 0.0
H11 H 0.0993 0.51997 0.37915 0.0
H12 H 0.07009 0.50682 0.35199 0.0
H13 H 0.00555 0.50838 0.36449 0.0
H14 H 0.07545 0.56837 0.33696 0.0
H15 H 0.11752 0.59411 0.32686 0.0
H16 H 0.11166 0.53745 0.28832 0.0
H17 H 0.06958 0.51109 0.29913 0.0
C18 C 0.98347 0.49233 0.29806 0.0
C19 C 0.98087 0.47272 0.28677 0.0
C20 C 0.9643 0.46374 0.2712 0.0
C21 C 0.9502 0.47441 0.26646 0.0
C22 C 0.95302 0.49422 0.27777 0.0
C23 C 0.96949 0.50307 0.29344 0.0
C24 C 0.00108 0.50165 0.31451 0.0
C25 C 0.02586 0.51229 0.31009 0.0
C26 C 0.99376 0.50108 0.33427 0.0
C27 C 0.96822 0.49272 0.33969 0.0
C28 C 0.94949 0.46923 0.33506 0.0
C29 C 0.92548 0.46192 0.34011 0.0
C30 C 0.91985 0.47798 0.3499 0.0
C31 C 0.93873 0.50138 0.35466 0.0
C32 C 0.96265 0.50864 0.34963 0.0
C33 C 0.0536 0.52775 0.36146 0.0
C34 C 0.05385 0.54364 0.37592 0.0
C35 C 0.07049 0.55116 0.39143 0.0
C36 C 0.08706 0.54272 0.39289 0.0
C37 C 0.08664 0.52662 0.37849 0.0
C38 C 0.07009 0.51924 0.3629 0.0
C39 C 0.03603 0.51994 0.34491 0.0
C40 C 0.01128 0.5097 0.34925 0.0
C41 C 0.04352 0.52233 0.32497 0.0
C42 C 0.06942 0.53749 0.3192 0.0
C43 C 0.08331 0.56112 0.32676 0.0
C44 C 0.10733 0.57592 0.32089 0.0
C45 C 0.11782 0.56768 0.30692 0.0
C46 C 0.10392 0.5442 0.2991 0.0
C47 C 0.07994 0.52917 0.30527 0.0
H48 H 0.4677 0.9756 0.52435 0.0
H49 H 0.44008 0.93381 0.53431 0.0
H50 H 0.48682 0.91141 0.50651 0.0
H51 H 0.51443 0.95346 0.49644 0.0
H52 H 0.51489 0.00559 0.53368 0.0
H53 H 0.46819 0.9696 0.4727 0.0
H54 H 0.45376 0.94131 0.44493 0.0
H55 H 0.52792 0.9622 0.43061 0.0
H56 H 0.54211 0.99096 0.45802 0.0
H57 H 0.57364 0.06998 0.46825 0.0
H58 H 0.5863 0.11071 0.45569 0.0
H59 H 0.5321 0.11348 0.4922 0.0
H60 H 0.51906 0.07265 0.50415 0.0
H61 H 0.53164 0.03016 0.46348 0.0
H62 H 0.57837 0.07345 0.51845 0.0
H63 H 0.59456 0.10216 0.5459 0.0
H64 H 0.52373 0.06707 0.57316 0.0
H65 H 0.50752 0.03865 0.54559 0.0
C66 C 0.49306 0.96763 0.50959 0.0
C67 C 0.47208 0.96171 0.52048 0.0
C68 C 0.45635 0.93782 0.52623 0.0
C69 C 0.4613 0.91929 0.52128 0.0
C70 C 0.48237 0.92523 0.51037 0.0
C71 C 0.49817 0.94923 0.50463 0.0
C72 C 0.50937 0.99318 0.50363 0.0
C73 C 0.51847 0.01108 0.51834 0.0
C74 C 0.51509 0.00014 0.48369 0.0
C75 C 0.50619 0.98224 0.46742 0.0
C76 C 0.48127 0.96793 0.46361 0.0
C77 C 0.47308 0.95169 0.44777 0.0
C78 C 0.48967 0.94944 0.43547 0.0
C79 C 0.51463 0.96372 0.43952 0.0
C80 C 0.52279 0.98007 0.45526 0.0
C81 C 0.54556 0.06834 0.48728 0.0
C82 C 0.56463 0.07947 0.47363 0.0
C83 C 0.57192 0.10278 0.46655 0.0
C84 C 0.5601 0.11525 0.47288 0.0
C85 C 0.54135 0.10423 0.48684 0.0
C86 C 0.53409 0.08099 0.49389 0.0
C87 C 0.53615 0.04283 0.49351 0.0
C88 C 0.52849 0.02487 0.47888 0.0
C89 C 0.53198 0.03584 0.51359 0.0
C90 C 0.54167 0.05389 0.52988 0.0
C91 C 0.56623 0.07214 0.53019 0.0
C92 C 0.57549 0.08853 0.54589 0.0
C93 C 0.56044 0.08678 0.56171 0.0
C94 C 0.53585 0.06864 0.56131 0.0
C95 C 0.52656 0.0524 0.54555 0.0
H96 H 0.54289 0.56838 0.70069 0.0
H97 H 0.52845 0.58316 0.72785 0.0
H98 H 0.45435 0.53335 0.71071 0.0
H99 H 0.46893 0.51815 0.68403 0.0
H100 H 0.53268 0.5201 0.69467 0.0
H101 H 0.5157 0.57915 0.65901 0.0
H102 H 0.48676 0.59238 0.64983 0.0
H103 H 0.4382 0.52098 0.62643 0.0
H104 H 0.46696 0.5079 0.63569 0.0
H105 H 0.50685 0.48387 0.61401 0.0
H106 H 0.52207 0.46931 0.58738 0.0
H107 H 0.59382 0.50726 0.61304 0.0
H108 H 0.57866 0.52251 0.63925 0.0
H109 H 0.51493 0.5258 0.62428 0.0
H110 H 0.51811 0.46358 0.65559 0.0
H111 H 0.53152 0.43591 0.66701 0.0
H112 H 0.58842 0.49386 0.70102 0.0
H113 H 0.57523 0.5218 0.68904 0.0
C114 C 0.50699 0.54238 0.69023 0.0
C115 C 0.52354 0.56069 0.70281 0.0
C116 C 0.51526 0.56924 0.71822 0.0
C117 C 0.49024 0.55949 0.72142 0.0
C118 C 0.47372 0.5411 0.70877 0.0
C119 C 0.48202 0.53256 0.69338 0.0
C120 C 0.51593 0.5331 0.67417 0.0
C121 C 0.52937 0.52188 0.67923 0.0
C122 C 0.51 0.53378 0.65418 0.0
C123 C 0.49339 0.54254 0.64808 0.0
C124 C 0.49883 0.56643 0.65187 0.0
C125 C 0.48237 0.57396 0.64656 0.0
C126 C 0.46019 0.55763 0.63754 0.0
C127 C 0.455 0.53384 0.63359 0.0
C128 C 0.47149 0.52642 0.63872 0.0
C129 C 0.54157 0.50422 0.62869 0.0
C130 C 0.52589 0.48917 0.61385 0.0
C131 C 0.53458 0.48065 0.59874 0.0
C132 C 0.55916 0.48705 0.59812 0.0
C133 C 0.57485 0.50218 0.61298 0.0
C134 C 0.56615 0.51071 0.62808 0.0
C135 C 0.53233 0.51337 0.64468 0.0
C136 C 0.51883 0.5245 0.63966 0.0
C137 C 0.53672 0.51109 0.66481 0.0
C138 C 0.54587 0.49485 0.67125 0.0
C139 C 0.53372 0.47047 0.66526 0.0
C140 C 0.54122 0.45458 0.67199 0.0
C141 C 0.56094 0.46266 0.68501 0.0
C142 C 0.57328 0.48716 0.69087 0.0
C143 C 0.56571 0.50309 0.68413 0.0
H144 H 0.0435 0.57233 0.79072 0.0
H145 H 0.07195 0.58685 0.76293 0.0
H146 H 0.08978 0.53085 0.77456 0.0
H147 H 0.06128 0.51643 0.80233 0.0
H148 H 0.00227 0.5214 0.79584 0.0
H149 H 0.08008 0.58138 0.82953 0.0
H150 H 0.12262 0.59497 0.83769 0.0
H151 H 0.10129 0.52332 0.85967 0.0
H152 H 0.05902 0.50992 0.85153 0.0
H153 H 0.99634 0.48967 0.87821 0.0
H154 H 0.96811 0.47751 0.90594 0.0
H155 H 0.93373 0.51436 0.87943 0.0
H156 H 0.96225 0.52686 0.85188 0.0
H157 H 0.02981 0.52942 0.86528 0.0
H158 H 0.96129 0.46699 0.83744 0.0
H159 H 0.91937 0.43978 0.82779 0.0
H160 H 0.92042 0.49694 0.79261 0.0
H161 H 0.9627 0.52421 0.80232 0.0
C162 C 0.05044 0.54343 0.79858 0.0
C163 C 0.05359 0.56325 0.78727 0.0
C164 C 0.06992 0.57158 0.7715 0.0
C165 C 0.08308 0.55998 0.76661 0.0
C166 C 0.07975 0.54001 0.77792 0.0
C167 C 0.06361 0.53185 0.79381 0.0
C168 C 0.03309 0.53468 0.8152 0.0
C169 C 0.00821 0.52361 0.81108 0.0
C170 C 0.04083 0.53593 0.83489 0.0
C171 C 0.0665 0.54465 0.83992 0.0
C172 C 0.08465 0.56866 0.8361 0.0
C173 C 0.10885 0.57641 0.84083 0.0
C174 C 0.11521 0.56015 0.84922 0.0
C175 C 0.09694 0.53615 0.85301 0.0
C176 C 0.0728 0.52853 0.84851 0.0
C177 C 0.98137 0.50906 0.86285 0.0
C178 C 0.98284 0.49528 0.8784 0.0
C179 C 0.9667 0.48835 0.89426 0.0
C180 C 0.9487 0.49497 0.89484 0.0
C181 C 0.94721 0.50872 0.87926 0.0
C182 C 0.96349 0.51584 0.86349 0.0
C183 C 0.99875 0.51674 0.8461 0.0
C184 C 0.02365 0.52753 0.85013 0.0
C185 C 0.9909 0.5137 0.82623 0.0
C186 C 0.96504 0.49776 0.82084 0.0
C187 C 0.95241 0.47383 0.82791 0.0
C188 C 0.9284 0.45827 0.82238 0.0
C189 C 0.91648 0.46622 0.80953 0.0
C190 C 0.92916 0.49021 0.80241 0.0
C191 C 0.95326 0.50583 0.80799 0.0
H192 H 0.56296 0.0588 0.02473 0.0
H193 H 0.58979 0.10061 0.03511 0.0
H194 H 0.54525 0.12305 0.00378 0.0
H195 H 0.51788 0.08086 0.99378 0.0
H196 H 0.51708 0.02794 0.03175 0.0
H197 H 0.56431 0.06935 0.97255 0.0
H198 H 0.57754 0.09889 0.94561 0.0
H199 H 0.50292 0.06949 0.92754 0.0
H200 H 0.48984 0.04011 0.9545 0.0
H201 H 0.46127 0.96493 0.96459 0.0
H202 H 0.44931 0.92457 0.95168 0.0
H203 H 0.50157 0.92093 0.99014 0.0
H204 H 0.51427 0.96159 0.00211 0.0
H205 H 0.50231 0.00484 0.96116 0.0
H206 H 0.45462 0.96132 0.01656 0.0
H207 H 0.43899 0.93138 0.04325 0.0
H208 H 0.51076 0.96443 0.06873 0.0
H209 H 0.52634 0.994 0.04188 0.0
C210 C 0.53849 0.06667 0.00833 0.0
C211 C 0.55875 0.07263 0.02025 0.0
C212 C 0.57409 0.09653 0.02619 0.0
C213 C 0.56959 0.11504 0.02024 0.0
C214 C 0.54923 0.10912 0.00841 0.0
C215 C 0.53364 0.08507 0.00268 0.0
C216 C 0.52289 0.04114 0.00187 0.0
C217 C 0.51395 0.02287 0.0163 0.0
C218 C 0.51775 0.03453 0.98176 0.0
C219 C 0.52606 0.05271 0.96566 0.0
C220 C 0.55081 0.06945 0.9629 0.0
C221 C 0.55833 0.08633 0.94752 0.0
C222 C 0.54126 0.08653 0.93445 0.0
C223 C 0.51653 0.06963 0.93721 0.0
C224 C 0.50902 0.05289 0.95264 0.0
C225 C 0.48847 0.96623 0.9845 0.0
C226 C 0.47005 0.95536 0.97028 0.0
C227 C 0.46313 0.93221 0.96301 0.0
C228 C 0.47455 0.91952 0.9698 0.0
C229 C 0.49264 0.9303 0.98433 0.0
C230 C 0.49965 0.95345 0.99146 0.0
C231 C 0.49748 0.99161 0.99102 0.0
C232 C 0.50506 0.00985 0.97663 0.0
C233 C 0.50113 0.99822 0.01117 0.0
C234 C 0.49167 0.97984 0.02718 0.0
C235 C 0.467 0.96199 0.02782 0.0
C236 C 0.45806 0.94502 0.04316 0.0
C237 C 0.47365 0.94555 0.05808 0.0
C238 C 0.49835 0.96338 0.05734 0.0
C239 C 0.50724 0.98042 0.04209 0.0
H240 H 0.49005 0.47011 0.2028 0.0
H241 H 0.50252 0.45359 0.23005 0.0
H242 H 0.57745 0.49838 0.21267 0.0
H243 H 0.56493 0.51515 0.18563 0.0
H244 H 0.50232 0.51747 0.19582 0.0
H245 H 0.51822 0.45695 0.1614 0.0
H246 H 0.54673 0.44302 0.15274 0.0
H247 H 0.59563 0.51351 0.12791 0.0
H248 H 0.56742 0.52735 0.13684 0.0
H249 H 0.52828 0.55311 0.11517 0.0
H250 H 0.5127 0.567 0.08823 0.0
H251 H 0.44068 0.52719 0.11315 0.0
H252 H 0.45627 0.51297 0.13985 0.0
H253 H 0.51994 0.51029 0.12568 0.0
H254 H 0.51701 0.57332 0.15541 0.0
H255 H 0.50396 0.60144 0.16622 0.0
H256 H 0.44742 0.54471 0.20143 0.0
H257 H 0.46067 0.51645 0.19046 0.0
C258 C 0.5265 0.49358 0.192 0.0
C259 C 0.50916 0.47639 0.20488 0.0
C260 C 0.51631 0.46701 0.22045 0.0
C261 C 0.54095 0.47463 0.22343 0.0
C262 C 0.55831 0.4919 0.21054 0.0
C263 C 0.55117 0.50146 0.19508 0.0
C264 C 0.51862 0.50359 0.1757 0.0
C265 C 0.50565 0.5154 0.18045 0.0
C266 C 0.52458 0.50253 0.15575 0.0
C267 C 0.54081 0.49322 0.14986 0.0
C268 C 0.53509 0.46933 0.15408 0.0
C269 C 0.5513 0.46139 0.14905 0.0
C270 C 0.57348 0.47726 0.1398 0.0
C271 C 0.57888 0.50099 0.13531 0.0
C272 C 0.56268 0.50885 0.14024 0.0
C273 C 0.49346 0.53206 0.12956 0.0
C274 C 0.50913 0.54731 0.11479 0.0
C275 C 0.50024 0.5554 0.0995 0.0
C276 C 0.47547 0.54821 0.09859 0.0
C277 C 0.4598 0.53287 0.11336 0.0
C278 C 0.46873 0.52489 0.12871 0.0
C279 C 0.50285 0.52337 0.14576 0.0
C280 C 0.5161 0.5119 0.14102 0.0
C281 C 0.49857 0.52616 0.16579 0.0
C282 C 0.48956 0.54264 0.17185 0.0
C283 C 0.50151 0.56675 0.16516 0.0
C284 C 0.49403 0.58285 0.17138 0.0
C285 C 0.47455 0.57528 0.18459 0.0
C286 C 0.4626 0.55113 0.19135 0.0
C287 C 0.47008 0.53495 0.18504 0.0
Li288 Li 0.63787 0.40095 0.42759 0.0
Li289 Li 0.63067 0.36315 0.412 0.0
Li290 Li 0.66887 0.40286 0.4056 0.0
Li291 Li 0.63052 0.39483 0.39099 0.0
C292 C 0.66212 0.38477 0.45017 0.0
N293 N 0.67198 0.38585 0.48997 0.0
C294 C 0.64828 0.36433 0.46191 0.0
C295 C 0.68124 0.4056 0.45862 0.0
C296 C 0.65347 0.36528 0.48201 0.0
C297 C 0.68587 0.40583 0.47878 0.0
C298 C 0.58442 0.35879 0.41296 0.0
C299 C 0.5497 0.32741 0.39575 0.0
N300 N 0.53616 0.32282 0.41239 0.0
C301 C 0.57007 0.35397 0.42981 0.0
C302 C 0.57408 0.34558 0.39573 0.0
C303 C 0.54575 0.33564 0.42926 0.0
C304 C 0.63721 0.43704 0.45181 0.0
N305 N 0.63113 0.41333 0.45078 0.0
C306 C 0.61278 0.40565 0.48266 0.0
C307 C 0.61913 0.39766 0.46575 0.0
C308 C 0.61858 0.42999 0.48412 0.0
C309 C 0.63115 0.44583 0.46845 0.0
H310 H 0.64629 0.44902 0.43953 0.0
H311 H 0.61407 0.37879 0.4644 0.0
C312 C 0.63125 0.31973 0.40781 0.0
N313 N 0.61862 0.32948 0.4161 0.0
C314 C 0.62475 0.29568 0.41166 0.0
C315 C 0.59229 0.29212 0.43246 0.0
C316 C 0.59943 0.31623 0.4282 0.0
C317 C 0.60518 0.28161 0.42431 0.0
H318 H 0.64671 0.33083 0.3985 0.0
H319 H 0.59025 0.3246 0.43522 0.0
C320 C 0.67376 0.44723 0.40327 0.0
N321 N 0.7133 0.4932 0.39823 0.0
C322 C 0.67727 0.45944 0.38536 0.0
C323 C 0.69013 0.45859 0.41871 0.0
C324 C 0.69743 0.48262 0.38308 0.0
C325 C 0.71007 0.48178 0.41586 0.0
C326 C 0.64437 0.36674 0.36837 0.0
C327 C 0.66173 0.37826 0.35358 0.0
C328 C 0.62351 0.34456 0.36437 0.0
C329 C 0.65759 0.36775 0.33487 0.0
C330 C 0.62004 0.33461 0.34548 0.0
N331 N 0.63699 0.34634 0.33123 0.0
C332 C 0.71591 0.41075 0.41242 0.0
C333 C 0.71224 0.43026 0.38394 0.0
C334 C 0.74013 0.41858 0.40794 0.0
N335 N 0.70252 0.41659 0.4004 0.0
C336 C 0.73638 0.43852 0.37891 0.0
C337 C 0.75058 0.43243 0.39085 0.0
H338 H 0.70761 0.39946 0.42521 0.0
H339 H 0.70102 0.43411 0.37436 0.0
C340 C 0.59411 0.39869 0.36976 0.0
N341 N 0.61668 0.40147 0.36862 0.0
C342 C 0.58434 0.40458 0.35367 0.0
C343 C 0.62144 0.41664 0.33571 0.0
C344 C 0.63039 0.41033 0.35208 0.0
C345 C 0.59811 0.41385 0.33635 0.0
H346 H 0.5838 0.39224 0.38325 0.0
H347 H 0.64862 0.41326 0.3518 0.0
O348 O 0.65719 0.38422 0.43046 0.0
O349 O 0.60833 0.3766 0.4133 0.0
O350 O 0.65427 0.4244 0.40572 0.0
O351 O 0.64819 0.37676 0.38682 0.0
H352 H 0.63355 0.34799 0.45563 0.0
H353 H 0.69252 0.42136 0.44971 0.0
H354 H 0.64277 0.34965 0.49129 0.0
H355 H 0.70055 0.42188 0.48551 0.0
H356 H 0.5415 0.31703 0.38251 0.0
H357 H 0.57763 0.36419 0.44321 0.0
H358 H 0.58466 0.34956 0.38239 0.0
H359 H 0.53449 0.33161 0.44224 0.0
H360 H 0.60332 0.39284 0.49443 0.0
H361 H 0.63563 0.46463 0.46878 0.0
H362 H 0.63508 0.28826 0.40494 0.0
H363 H 0.57743 0.28213 0.44263 0.0
H364 H 0.66464 0.4511 0.37333 0.0
H365 H 0.68741 0.44963 0.43277 0.0
H366 H 0.70045 0.4922 0.36925 0.0
H367 H 0.72294 0.49071 0.42767 0.0
H368 H 0.67815 0.39524 0.35646 0.0
H369 H 0.61026 0.33494 0.37576 0.0
H370 H 0.67078 0.37661 0.32324 0.0
H371 H 0.60393 0.3175 0.34218 0.0
H372 H 0.75048 0.41364 0.41764 0.0
H373 H 0.74356 0.4488 0.36544 0.0
H374 H 0.56621 0.40194 0.35485 0.0
H375 H 0.63301 0.42429 0.32292 0.0
Li376 Li 0.25139 0.63955 0.59859 0.0
Li377 Li 0.28336 0.63273 0.5845 0.0
Li378 Li 0.28246 0.66846 0.57713 0.0
Li379 Li 0.25246 0.63152 0.56261 0.0
C380 C 0.29819 0.67968 0.61324 0.0
N381 N 0.3215 0.72449 0.63155 0.0
C382 C 0.32317 0.69132 0.6167 0.0
C383 C 0.28507 0.69083 0.61915 0.0
C384 C 0.33462 0.71398 0.62594 0.0
C385 C 0.29717 0.71346 0.62839 0.0
C386 C 0.24108 0.59165 0.59915 0.0
C387 C 0.21575 0.55021 0.60976 0.0
N388 N 0.22775 0.55577 0.62728 0.0
C389 C 0.25317 0.59695 0.61726 0.0
C390 C 0.22222 0.56811 0.59535 0.0
C391 C 0.24615 0.57856 0.63129 0.0
C392 C 0.20594 0.62155 0.61669 0.0
N393 N 0.23016 0.63276 0.62034 0.0
C394 C 0.22322 0.63103 0.65507 0.0
C395 C 0.23902 0.63753 0.63905 0.0
C396 C 0.19807 0.61914 0.65179 0.0
C397 C 0.18946 0.61447 0.6323 0.0
H398 H 0.19946 0.61775 0.60165 0.0
H399 H 0.25834 0.64591 0.64154 0.0
C400 C 0.32853 0.63776 0.59098 0.0
N401 N 0.30478 0.62055 0.5892 0.0
C402 C 0.34589 0.63119 0.59527 0.0
C403 C 0.31418 0.58909 0.59475 0.0
C404 C 0.29739 0.59652 0.59057 0.0
C405 C 0.33879 0.60656 0.59743 0.0
H406 H 0.33395 0.65666 0.58913 0.0
H407 H 0.27852 0.5831 0.58842 0.0
C408 C 0.24328 0.67419 0.56955 0.0
N409 N 0.23611 0.71139 0.55696 0.0
C410 C 0.2499 0.68339 0.55045 0.0
C411 C 0.23284 0.68374 0.58222 0.0
C412 C 0.24618 0.70226 0.54438 0.0
C413 C 0.2294 0.70259 0.57558 0.0
C414 C 0.29259 0.63487 0.54478 0.0
C415 C 0.31037 0.64677 0.53035 0.0
C416 C 0.27952 0.60949 0.54521 0.0
C417 C 0.31487 0.6331 0.51666 0.0
C418 C 0.28457 0.59647 0.53126 0.0
N419 N 0.302 0.60844 0.5174 0.0
C420 C 0.32517 0.70653 0.56283 0.0
C421 C 0.30009 0.72049 0.57646 0.0
C422 C 0.34272 0.73012 0.55777 0.0
N423 N 0.30422 0.70209 0.57173 0.0
C424 C 0.31722 0.74445 0.5717 0.0
C425 C 0.33879 0.74946 0.56207 0.0
H426 H 0.32832 0.69168 0.55974 0.0
H427 H 0.28361 0.7167 0.58395 0.0
C428 C 0.21022 0.59776 0.54202 0.0
N429 N 0.23273 0.61748 0.54006 0.0
C430 C 0.19493 0.58847 0.52565 0.0
C431 C 0.22648 0.61979 0.5056 0.0
C432 C 0.24116 0.62837 0.5223 0.0
C433 C 0.20292 0.59976 0.50719 0.0
H434 H 0.20396 0.58963 0.55639 0.0
H435 H 0.25916 0.64403 0.52118 0.0
O436 O 0.28664 0.65771 0.60381 0.0
O437 O 0.24737 0.60937 0.58522 0.0
O438 O 0.24679 0.65579 0.57584 0.0
O439 O 0.28805 0.64818 0.55822 0.0
H440 H 0.33366 0.68302 0.61234 0.0
H441 H 0.26581 0.6823 0.61632 0.0
H442 H 0.35396 0.72321 0.62867 0.0
H443 H 0.28724 0.72233 0.63293 0.0
H444 H 0.20118 0.53191 0.60702 0.0
H445 H 0.26786 0.61502 0.62046 0.0
H446 H 0.21267 0.56372 0.58141 0.0
H447 H 0.25535 0.58241 0.64536 0.0
H448 H 0.23055 0.6346 0.66989 0.0
H449 H 0.1702 0.60544 0.62917 0.0
H450 H 0.36457 0.64533 0.59726 0.0
H451 H 0.30795 0.56987 0.59577 0.0
H452 H 0.25815 0.67631 0.54054 0.0
H453 H 0.22753 0.67671 0.59703 0.0
H454 H 0.25137 0.7097 0.52968 0.0
H455 H 0.22143 0.71023 0.58523 0.0
H456 H 0.32056 0.66639 0.5297 0.0
H457 H 0.2656 0.59984 0.55611 0.0
H458 H 0.32859 0.6421 0.50542 0.0
H459 H 0.27462 0.57684 0.53146 0.0
H460 H 0.35932 0.73321 0.55078 0.0
H461 H 0.31345 0.75882 0.57527 0.0
H462 H 0.17681 0.57314 0.52754 0.0
H463 H 0.23345 0.62883 0.4916 0.0
Li464 Li 0.66825 0.28435 0.75173 0.0
Li465 Li 0.63045 0.25356 0.76548 0.0
Li466 Li 0.63836 0.25336 0.7308 0.0
Li467 Li 0.63118 0.28412 0.74407 0.0
C468 C 0.67292 0.24358 0.74581 0.0
N469 N 0.70691 0.2327 0.73126 0.0
C470 C 0.67432 0.2239 0.75338 0.0
C471 C 0.68884 0.25777 0.73086 0.0
C472 C 0.69162 0.21869 0.74582 0.0
C473 C 0.70588 0.25196 0.72369 0.0
C474 C 0.65728 0.29531 0.78839 0.0
C475 C 0.66958 0.32145 0.8169 0.0
N476 N 0.67876 0.30825 0.82514 0.0
C477 C 0.66683 0.282 0.79714 0.0
C478 C 0.65866 0.31519 0.79833 0.0
C479 C 0.67762 0.28883 0.81573 0.0
C480 C 0.71085 0.32907 0.75046 0.0
N481 N 0.70156 0.30592 0.75701 0.0
C482 C 0.73873 0.31621 0.77332 0.0
C483 C 0.71498 0.29914 0.76807 0.0
C484 C 0.74869 0.34042 0.76709 0.0
C485 C 0.73454 0.3467 0.75529 0.0
H486 H 0.69957 0.33394 0.74191 0.0
H487 H 0.70708 0.28063 0.7732 0.0
C488 C 0.61233 0.21006 0.7859 0.0
N489 N 0.61553 0.23276 0.78746 0.0
C490 C 0.60263 0.19379 0.8016 0.0
C491 C 0.59941 0.22448 0.82018 0.0
C492 C 0.60905 0.24013 0.80405 0.0
C493 C 0.59624 0.20101 0.81911 0.0
H494 H 0.61765 0.20473 0.77251 0.0
H495 H 0.61162 0.25823 0.80487 0.0
C496 C 0.65236 0.29396 0.70715 0.0
N497 N 0.64253 0.3046 0.66997 0.0
C498 C 0.62913 0.28029 0.6991 0.0
C499 C 0.67059 0.31302 0.69629 0.0
C500 C 0.62452 0.28596 0.68029 0.0
C501 C 0.66526 0.31812 0.67751 0.0
C502 C 0.58599 0.24355 0.75069 0.0
C503 C 0.56464 0.22455 0.74279 0.0
C504 C 0.58467 0.2574 0.76614 0.0
C505 C 0.54229 0.21965 0.75051 0.0
C506 C 0.56198 0.25193 0.77346 0.0
N507 N 0.54143 0.23332 0.76556 0.0
C508 C 0.61195 0.21051 0.70955 0.0
C509 C 0.64784 0.23929 0.69318 0.0
C510 C 0.60564 0.1945 0.6937 0.0
N511 N 0.63261 0.23246 0.70893 0.0
C512 C 0.64228 0.22378 0.67701 0.0
C513 C 0.62082 0.20108 0.67707 0.0
H514 H 0.60019 0.20561 0.72228 0.0
H515 H 0.66415 0.25689 0.69304 0.0
C516 C 0.63328 0.32874 0.74485 0.0
N517 N 0.61913 0.30543 0.73879 0.0
C518 C 0.62678 0.34615 0.74043 0.0
C519 C 0.59112 0.31513 0.72374 0.0
C520 C 0.59831 0.29831 0.7285 0.0
C521 C 0.60555 0.33948 0.72958 0.0
H522 H 0.64984 0.33386 0.75287 0.0
H523 H 0.58756 0.27971 0.72361 0.0
O524 O 0.65603 0.24881 0.75315 0.0
O525 O 0.64677 0.28917 0.77014 0.0
O526 O 0.65745 0.28885 0.72555 0.0
O527 O 0.60795 0.24847 0.74318 0.0
H528 H 0.66216 0.21277 0.76499 0.0
H529 H 0.68814 0.27313 0.72485 0.0
H530 H 0.6929 0.2035 0.75154 0.0
H531 H 0.7183 0.26278 0.71212 0.0
H532 H 0.67078 0.3368 0.82475 0.0
H533 H 0.66593 0.26655 0.7897 0.0
H534 H 0.65136 0.32568 0.79173 0.0
H535 H 0.68508 0.2787 0.82267 0.0
H536 H 0.74912 0.31056 0.78227 0.0
H537 H 0.74139 0.3652 0.75039 0.0
H538 H 0.60073 0.17597 0.80021 0.0
H539 H 0.59445 0.23065 0.83333 0.0
H540 H 0.61478 0.26543 0.70723 0.0
H541 H 0.68868 0.32375 0.70231 0.0
H542 H 0.60663 0.27553 0.67388 0.0
H543 H 0.6792 0.33283 0.66894 0.0
H544 H 0.56534 0.21371 0.73078 0.0
H545 H 0.60092 0.27228 0.7724 0.0
H546 H 0.52563 0.20499 0.74452 0.0
H547 H 0.5607 0.26249 0.7854 0.0
H548 H 0.58873 0.17739 0.69432 0.0
H549 H 0.65468 0.22951 0.66464 0.0
H550 H 0.63829 0.36462 0.74544 0.0
H551 H 0.5748 0.30925 0.71511 0.0
Li552 Li 0.39743 0.63405 0.92748 0.0
Li553 Li 0.4051 0.67152 0.91113 0.0
Li554 Li 0.36563 0.63271 0.90541 0.0
Li555 Li 0.40375 0.63956 0.89113 0.0
C556 C 0.36742 0.65033 0.94732 0.0
N557 N 0.34367 0.64862 0.98195 0.0
C558 C 0.37845 0.66907 0.96113 0.0
C559 C 0.34407 0.63098 0.95097 0.0
C560 C 0.36623 0.6678 0.9786 0.0
C561 C 0.33243 0.63037 0.9686 0.0
C562 C 0.44933 0.67705 0.91612 0.0
C563 C 0.48348 0.71504 0.90563 0.0
N564 N 0.49431 0.71711 0.92337 0.0
C565 C 0.46088 0.67945 0.93419 0.0
C566 C 0.46079 0.69487 0.90165 0.0
C567 C 0.48359 0.69987 0.9376 0.0
C568 C 0.40558 0.60109 0.94964 0.0
N569 N 0.40436 0.62179 0.9507 0.0
C570 C 0.41612 0.62694 0.9846 0.0
C571 C 0.40956 0.63477 0.96769 0.0
C572 C 0.41746 0.60557 0.98399 0.0
C573 C 0.41191 0.59249 0.96623 0.0
H574 H 0.40203 0.59146 0.9358 0.0
H575 H 0.40929 0.65158 0.96798 0.0
C576 C 0.41179 0.71783 0.90256 0.0
N577 N 0.41819 0.70536 0.91514 0.0
C578 C 0.41921 0.74218 0.90619 0.0
C579 C 0.4401 0.74046 0.93539 0.0
C580 C 0.43207 0.71613 0.93131 0.0
C581 C 0.43341 0.75371 0.92288 0.0
H582 H 0.40043 0.7087 0.88997 0.0
H583 H 0.43635 0.70564 0.94137 0.0
C584 C 0.36263 0.58688 0.91057 0.0
N585 N 0.3293 0.5394 0.92017 0.0
C586 C 0.35701 0.56825 0.89702 0.0
C587 C 0.35148 0.58131 0.92908 0.0
C588 C 0.34005 0.54438 0.90213 0.0
C589 C 0.33464 0.55721 0.93364 0.0
C590 C 0.38715 0.65981 0.86623 0.0
C591 C 0.36724 0.64287 0.85528 0.0
C592 C 0.40741 0.67815 0.85653 0.0
C593 C 0.36809 0.64437 0.83471 0.0
C594 C 0.40757 0.67902 0.83594 0.0
N595 N 0.38808 0.66224 0.82555 0.0
C596 C 0.32587 0.63846 0.89991 0.0
C597 C 0.31575 0.59737 0.89672 0.0
C598 C 0.30225 0.63253 0.89499 0.0
N599 N 0.33217 0.62099 0.90056 0.0
C600 C 0.29185 0.59059 0.8919 0.0
C601 C 0.28487 0.60832 0.89073 0.0
H602 H 0.33944 0.65715 0.9028 0.0
H603 H 0.32114 0.5838 0.89702 0.0
C604 C 0.44058 0.64246 0.86534 0.0
N605 N 0.41631 0.63169 0.86865 0.0
C606 C 0.44932 0.63585 0.84897 0.0
C607 C 0.40792 0.60729 0.83977 0.0
C608 C 0.40002 0.61443 0.8563 0.0
C609 C 0.43289 0.61791 0.83599 0.0
H610 H 0.45316 0.65591 0.87553 0.0
H611 H 0.38082 0.60615 0.85932 0.0
O612 O 0.37901 0.6515 0.92999 0.0
O613 O 0.42699 0.65729 0.9126 0.0
O614 O 0.37916 0.61036 0.90574 0.0
O615 O 0.38683 0.65839 0.88636 0.0
H616 H 0.39635 0.68435 0.95849 0.0
H617 H 0.33488 0.61664 0.94027 0.0
H618 H 0.37467 0.68208 0.98947 0.0
H619 H 0.3144 0.61544 0.97162 0.0
H620 H 0.49247 0.72906 0.89461 0.0
H621 H 0.45239 0.66573 0.94549 0.0
H622 H 0.45214 0.69325 0.88758 0.0
H623 H 0.49269 0.70202 0.95155 0.0
H624 H 0.42022 0.63756 0.99799 0.0
H625 H 0.41315 0.57618 0.96502 0.0
H626 H 0.41376 0.75182 0.89616 0.0
H627 H 0.45067 0.74855 0.94859 0.0
H628 H 0.36561 0.57217 0.88269 0.0
H629 H 0.356 0.59536 0.9399 0.0
H630 H 0.33546 0.5298 0.89175 0.0
H631 H 0.32589 0.55267 0.94792 0.0
H632 H 0.35142 0.62853 0.86255 0.0
H633 H 0.42286 0.69154 0.8648 0.0
H634 H 0.35289 0.63128 0.82604 0.0
H635 H 0.42319 0.69304 0.82823 0.0
H636 H 0.2979 0.64691 0.89398 0.0
H637 H 0.27904 0.57165 0.88902 0.0
H638 H 0.46872 0.64428 0.84677 0.0
H639 H 0.39459 0.59365 0.83004 0.0
Li640 Li 0.75015 0.40331 0.08414 0.0
Li641 Li 0.78049 0.39508 0.09886 0.0
Li642 Li 0.78021 0.40324 0.06248 0.0
Li643 Li 0.74947 0.36458 0.07635 0.0
C644 C 0.78847 0.44684 0.09111 0.0
N645 N 0.79259 0.49021 0.1032 0.0
C646 C 0.7934 0.45398 0.11084 0.0
C647 C 0.78599 0.46192 0.07748 0.0
C648 C 0.79534 0.47594 0.11668 0.0
C649 C 0.78803 0.48372 0.08389 0.0
C650 C 0.7362 0.36217 0.11858 0.0
C651 C 0.73103 0.32795 0.13773 0.0
N652 N 0.71887 0.33305 0.15166 0.0
C653 C 0.72342 0.36691 0.13299 0.0
C654 C 0.73986 0.34241 0.12088 0.0
C655 C 0.71489 0.35204 0.14965 0.0
C656 C 0.71344 0.41498 0.07649 0.0
N657 N 0.72984 0.41637 0.09001 0.0
C658 C 0.71475 0.43306 0.11393 0.0
C659 C 0.73078 0.42517 0.10844 0.0
C660 C 0.69735 0.43153 0.10038 0.0
C661 C 0.69693 0.42252 0.08138 0.0
H662 H 0.71276 0.40746 0.06207 0.0
H663 H 0.74356 0.42543 0.11907 0.0
C664 C 0.8245 0.40849 0.11811 0.0
N665 N 0.80073 0.4011 0.12129 0.0
C666 C 0.84062 0.41517 0.13396 0.0
C667 C 0.80737 0.40612 0.15606 0.0
C668 C 0.79198 0.39982 0.13979 0.0
C669 C 0.83217 0.41427 0.15328 0.0
H670 H 0.83104 0.40972 0.10319 0.0
H671 H 0.77321 0.39459 0.14197 0.0
C672 C 0.74155 0.38929 0.03897 0.0
N673 N 0.73654 0.39536 0.99923 0.0
C674 C 0.7331 0.36955 0.0261 0.0
C675 C 0.74711 0.41204 0.03167 0.0
C676 C 0.73077 0.37301 0.00605 0.0
C677 C 0.74456 0.41477 0.01153 0.0
C678 C 0.79278 0.3616 0.0755 0.0
C679 C 0.79924 0.35546 0.05762 0.0
C680 C 0.79496 0.35124 0.093 0.0
C681 C 0.80707 0.3385 0.05748 0.0
C682 C 0.80288 0.33437 0.09226 0.0
N683 N 0.80868 0.32837 0.07465 0.0
C684 C 0.81852 0.44103 0.04078 0.0
C685 C 0.79703 0.40349 0.02391 0.0
C686 C 0.83423 0.45137 0.02477 0.0
N687 N 0.80042 0.41748 0.04006 0.0
C688 C 0.81212 0.41313 0.00752 0.0
C689 C 0.83115 0.43732 0.00788 0.0
H690 H 0.82098 0.45167 0.0539 0.0
H691 H 0.78279 0.3847 0.02385 0.0
C692 C 0.70624 0.32013 0.08008 0.0
N693 N 0.72815 0.33111 0.07087 0.0
C694 C 0.68898 0.2962 0.07558 0.0
C695 C 0.71684 0.29546 0.05175 0.0
C696 C 0.7337 0.31934 0.0569 0.0
C697 C 0.69412 0.28365 0.06111 0.0
H698 H 0.70191 0.33015 0.09059 0.0
H699 H 0.75083 0.32873 0.04924 0.0
O700 O 0.78623 0.42527 0.08516 0.0
O701 O 0.7447 0.37661 0.1022 0.0
O702 O 0.74422 0.38632 0.05861 0.0
O703 O 0.78539 0.37845 0.07592 0.0
H704 H 0.7955 0.44262 0.12158 0.0
H705 H 0.78255 0.45687 0.06211 0.0
H706 H 0.79898 0.4816 0.13193 0.0
H707 H 0.78602 0.49551 0.07351 0.0
H708 H 0.73375 0.31261 0.13967 0.0
H709 H 0.72019 0.38196 0.13137 0.0
H710 H 0.74902 0.33802 0.10962 0.0
H711 H 0.70509 0.35559 0.16096 0.0
H712 H 0.71543 0.4395 0.12882 0.0
H713 H 0.6839 0.42118 0.07047 0.0
H714 H 0.85962 0.4217 0.13101 0.0
H715 H 0.79992 0.40483 0.17065 0.0
H716 H 0.72851 0.35178 0.0315 0.0
H717 H 0.75339 0.42742 0.04145 0.0
H718 H 0.72439 0.35792 0.99591 0.0
H719 H 0.74895 0.43231 0.00567 0.0
H720 H 0.79806 0.36356 0.04397 0.0
H721 H 0.79082 0.3563 0.10706 0.0
H722 H 0.81191 0.33343 0.04371 0.0
H723 H 0.80453 0.32615 0.10569 0.0
H724 H 0.84862 0.47013 0.02559 0.0
H725 H 0.80936 0.40156 0.99493 0.0
H726 H 0.6715 0.28789 0.08286 0.0
H727 H 0.72145 0.28639 0.04048 0.0
Li728 Li 0.40073 0.78244 0.26552 0.0
Li729 Li 0.36535 0.74959 0.24994 0.0
Li730 Li 0.40498 0.75342 0.24465 0.0
Li731 Li 0.39508 0.78226 0.2294 0.0
C732 C 0.39614 0.74157 0.28574 0.0
N733 N 0.41507 0.73068 0.31825 0.0
C734 C 0.38083 0.7273 0.30096 0.0
C735 C 0.42103 0.75011 0.28697 0.0
C736 C 0.39076 0.72205 0.3173 0.0
C737 C 0.43027 0.74445 0.30354 0.0
C738 C 0.36029 0.78805 0.26387 0.0
C739 C 0.33948 0.80918 0.27396 0.0
N740 N 0.33186 0.79544 0.29061 0.0
C741 C 0.35223 0.77411 0.28107 0.0
C742 C 0.35386 0.80572 0.26026 0.0
C743 C 0.33789 0.77813 0.2944 0.0
C744 C 0.4279 0.82725 0.2848 0.0
N745 N 0.41257 0.8032 0.28798 0.0
C746 C 0.4134 0.80982 0.32273 0.0
C747 C 0.40511 0.79434 0.30647 0.0
C748 C 0.42927 0.83481 0.31997 0.0
C749 C 0.43653 0.84346 0.30065 0.0
H750 H 0.43323 0.83386 0.2699 0.0
H751 H 0.39247 0.77529 0.30867 0.0
C752 C 0.32864 0.70476 0.26199 0.0
N753 N 0.33237 0.72576 0.25366 0.0
C754 C 0.30523 0.68643 0.26661 0.0
C755 C 0.28975 0.71127 0.25324 0.0
C756 C 0.31358 0.72931 0.24906 0.0
C757 C 0.28546 0.68967 0.2624 0.0
H758 H 0.34396 0.70242 0.2653 0.0
H759 H 0.31712 0.74626 0.2425 0.0
C760 C 0.44905 0.80079 0.24223 0.0
N761 N 0.4989 0.8246 0.23785 0.0
C762 C 0.45942 0.80674 0.22343 0.0
C763 C 0.46407 0.80737 0.25882 0.0
C764 C 0.48464 0.81865 0.22152 0.0
C765 C 0.48922 0.81929 0.25629 0.0
C766 C 0.36252 0.73926 0.21015 0.0
C767 C 0.35819 0.71965 0.19815 0.0
C768 C 0.34923 0.75105 0.20722 0.0
C769 C 0.3406 0.71214 0.18337 0.0
C770 C 0.33179 0.743 0.19229 0.0
N771 N 0.32788 0.72387 0.18077 0.0
C772 C 0.40777 0.71135 0.24779 0.0
C773 C 0.43911 0.74152 0.22809 0.0
C774 C 0.41528 0.69477 0.2432 0.0
N775 N 0.41963 0.73416 0.24016 0.0
C776 C 0.44724 0.7255 0.22308 0.0
C777 C 0.43501 0.70163 0.23041 0.0
H778 H 0.39188 0.70575 0.25688 0.0
H779 H 0.44781 0.75946 0.22176 0.0
C780 C 0.40102 0.82305 0.20778 0.0
N781 N 0.40114 0.80179 0.20665 0.0
C782 C 0.40698 0.8381 0.19124 0.0
C783 C 0.41275 0.80888 0.17275 0.0
C784 C 0.40657 0.79438 0.18958 0.0
C785 C 0.41327 0.8312 0.1735 0.0
H786 H 0.39674 0.8285 0.22162 0.0
H787 H 0.40659 0.7774 0.18917 0.0
O788 O 0.38662 0.74688 0.26968 0.0
O789 O 0.37441 0.78456 0.25056 0.0
O790 O 0.42438 0.7895 0.24439 0.0
O791 O 0.37964 0.74671 0.2247 0.0
H792 H 0.3615 0.72053 0.30022 0.0
H793 H 0.43302 0.76074 0.27517 0.0
H794 H 0.37915 0.71114 0.32924 0.0
H795 H 0.44951 0.75095 0.30468 0.0
H796 H 0.33437 0.8228 0.27136 0.0
H797 H 0.35692 0.7603 0.28412 0.0
H798 H 0.35993 0.81664 0.247 0.0
H799 H 0.33154 0.76747 0.30777 0.0
H800 H 0.40748 0.80222 0.33731 0.0
H801 H 0.44837 0.86259 0.29772 0.0
H802 H 0.30262 0.66991 0.27345 0.0
H803 H 0.27495 0.71447 0.2499 0.0
H804 H 0.44812 0.80199 0.21044 0.0
H805 H 0.45646 0.80351 0.27351 0.0
H806 H 0.49288 0.82318 0.20705 0.0
H807 H 0.50104 0.8244 0.269 0.0
H808 H 0.36834 0.71033 0.20027 0.0
H809 H 0.35229 0.76625 0.21636 0.0
H810 H 0.33706 0.69698 0.17397 0.0
H811 H 0.32137 0.75194 0.18986 0.0
H812 H 0.40504 0.67645 0.24889 0.0
H813 H 0.46262 0.73159 0.21325 0.0
H814 H 0.40739 0.85526 0.1925 0.0
H815 H 0.41718 0.80273 0.15932 0.0
H816 H 0.15791 0.59395 0.32971 0.0
H817 H 0.24366 0.67042 0.2405 0.0
H818 H 0.13476 0.57872 0.26907 0.0
H819 H 0.27095 0.66643 0.29777 0.0
H820 H 0.2028 0.63935 0.25096 0.0
H821 H 0.19896 0.62305 0.31856 0.0
C822 C 0.16156 0.59671 0.31404 0.0
C823 C 0.14301 0.58399 0.30027 0.0
C824 C 0.21778 0.64522 0.26117 0.0
C825 C 0.18976 0.61734 0.28741 0.0
C826 C 0.24101 0.66302 0.25527 0.0
C827 C 0.26065 0.67091 0.26829 0.0
C828 C 0.21419 0.6356 0.28032 0.0
C829 C 0.25632 0.66065 0.28721 0.0
C830 C 0.18495 0.61323 0.30768 0.0
C831 C 0.14865 0.58807 0.28013 0.0
N832 N 0.23354 0.64364 0.2927 0.0
N833 N 0.17152 0.6046 0.27428 0.0
H834 H 0.52954 0.13148 0.46133 0.0
H835 H 0.63613 0.26451 0.43254 0.0
H836 H 0.60556 0.1538 0.46524 0.0
H837 H 0.55995 0.2416 0.4287 0.0
H838 H 0.62541 0.22364 0.44307 0.0
H839 H 0.54045 0.1714 0.44836 0.0
C840 C 0.54856 0.14484 0.45956 0.0
C841 C 0.56667 0.13935 0.46455 0.0
C842 C 0.61103 0.22752 0.43984 0.0
C843 C 0.57932 0.1851 0.44944 0.0
C844 C 0.61713 0.25082 0.43369 0.0
C845 C 0.5989 0.25653 0.42975 0.0
C846 C 0.58651 0.20976 0.4421 0.0
C847 C 0.57461 0.23813 0.43183 0.0
C848 C 0.55478 0.1676 0.45202 0.0
C849 C 0.591 0.1572 0.46149 0.0
N850 N 0.56914 0.21561 0.4379 0.0
N851 N 0.59662 0.17932 0.45421 0.0
H852 H 0.41134 0.53295 0.64422 0.0
H853 H 0.38618 0.62673 0.58512 0.0
H854 H 0.46835 0.59928 0.61887 0.0
H855 H 0.33281 0.5698 0.62215 0.0
H856 H 0.41599 0.61545 0.59536 0.0
H857 H 0.38172 0.54465 0.63427 0.0
C858 C 0.4176 0.54998 0.63652 0.0
C859 C 0.44231 0.56514 0.63229 0.0
C860 C 0.39775 0.60545 0.60124 0.0
C861 C 0.40853 0.57866 0.62086 0.0
C862 C 0.38071 0.61192 0.59546 0.0
C863 C 0.35689 0.59926 0.60282 0.0
C864 C 0.39094 0.58606 0.61437 0.0
C865 C 0.35081 0.57989 0.61586 0.0
C866 C 0.40071 0.5567 0.63093 0.0
C867 C 0.44948 0.58715 0.62253 0.0
N868 N 0.36771 0.57389 0.6212 0.0
N869 N 0.43264 0.5932 0.61703 0.0
H870 H 0.89657 0.4607 0.77264 0.0
H871 H 0.76913 0.34639 0.80364 0.0
H872 H 0.87871 0.43275 0.83199 0.0
H873 H 0.78426 0.37744 0.74522 0.0
H874 H 0.80948 0.37774 0.81411 0.0
H875 H 0.85548 0.43076 0.76227 0.0
C876 C 0.88395 0.44845 0.78354 0.0
C877 C 0.89117 0.44918 0.80321 0.0
C878 C 0.804 0.37773 0.799 0.0
C879 C 0.84422 0.41461 0.79136 0.0
C880 C 0.78102 0.3597 0.79297 0.0
C881 C 0.77334 0.35921 0.77349 0.0
C882 C 0.81953 0.39541 0.78546 0.0
C883 C 0.78937 0.37724 0.76041 0.0
C884 C 0.86054 0.43124 0.77758 0.0
C885 C 0.8741 0.4326 0.81662 0.0
N886 N 0.81173 0.39457 0.76661 0.0
N887 N 0.85149 0.41597 0.81043 0.0
H888 H 0.42952 0.88192 0.95938 0.0
H889 H 0.47754 0.79033 0.93533 0.0
H890 H 0.50518 0.90223 0.96101 0.0
H891 H 0.40481 0.77456 0.92199 0.0
H892 H 0.48774 0.83117 0.94561 0.0
H893 H 0.41975 0.84225 0.94625 0.0
C894 C 0.4441 0.87813 0.95687 0.0
C895 C 0.4682 0.89544 0.96147 0.0
C896 C 0.46959 0.81885 0.94031 0.0
C897 C 0.45709 0.84994 0.94666 0.0
C898 C 0.46375 0.79552 0.93452 0.0
C899 C 0.4403 0.77905 0.92784 0.0
C900 C 0.45177 0.82571 0.93963 0.0
C901 C 0.42317 0.78678 0.92689 0.0
C902 C 0.43849 0.85544 0.94943 0.0
C903 C 0.48628 0.88934 0.95811 0.0
N904 N 0.4292 0.8095 0.93286 0.0
N905 N 0.48034 0.8671 0.95101 0.0
H906 H 0.56469 0.4344 0.12296 0.0
H907 H 0.70486 0.47115 0.12184 0.0
H908 H 0.62256 0.50225 0.14542 0.0
H909 H 0.64857 0.40759 0.09262 0.0
H910 H 0.67451 0.48162 0.13228 0.0
H911 H 0.5947 0.42281 0.11364 0.0
C912 C 0.58369 0.44676 0.12606 0.0
C913 C 0.59117 0.46937 0.13486 0.0
C914 C 0.66878 0.4654 0.12356 0.0
C915 C 0.62557 0.45635 0.12415 0.0
C916 C 0.68609 0.45937 0.11766 0.0
C917 C 0.67924 0.4385 0.10631 0.0
C918 C 0.64438 0.45038 0.11818 0.0
C919 C 0.6547 0.42403 0.10113 0.0
C920 C 0.60081 0.44022 0.12062 0.0
C921 C 0.61604 0.48479 0.13839 0.0
N922 N 0.63814 0.43021 0.10715 0.0
N923 N 0.63232 0.47801 0.13302 0.0
H924 H 0.44601 0.87748 0.49991 0.0
H925 H 0.35456 0.79123 0.58355 0.0
H926 H 0.43789 0.90323 0.5567 0.0
H927 H 0.36481 0.765 0.52775 0.0
H928 H 0.38498 0.83246 0.57391 0.0
H929 H 0.41676 0.83604 0.51 0.0
C930 C 0.43824 0.87441 0.51456 0.0
C931 C 0.44435 0.89389 0.52744 0.0
C932 C 0.3806 0.81768 0.56378 0.0
C933 C 0.4106 0.84652 0.539 0.0
C934 C 0.36311 0.79416 0.56923 0.0
C935 C 0.35713 0.77463 0.55644 0.0
C936 C 0.39214 0.82174 0.54537 0.0
C937 C 0.36908 0.77946 0.53818 0.0
C938 C 0.42142 0.85075 0.52027 0.0
C939 C 0.43343 0.88883 0.54616 0.0
N940 N 0.38596 0.80252 0.53318 0.0
N941 N 0.41707 0.86567 0.55135 0.0
H942 H 0.60689 0.46968 0.68959 0.0
H943 H 0.56025 0.33469 0.72907 0.0
H944 H 0.5314 0.41618 0.6979 0.0
H945 H 0.63552 0.38633 0.71727 0.0
H946 H 0.54955 0.36498 0.719 0.0
H947 H 0.61804 0.44021 0.70138 0.0
C948 C 0.59268 0.45179 0.69401 0.0
C949 C 0.56817 0.44534 0.69264 0.0
C950 C 0.56842 0.36972 0.71865 0.0
C951 C 0.58077 0.41149 0.70602 0.0
C952 C 0.57453 0.35237 0.7243 0.0
C953 C 0.59882 0.35793 0.724 0.0
C954 C 0.58672 0.39284 0.7126 0.0
C955 C 0.61659 0.38131 0.71799 0.0
C956 C 0.59904 0.43494 0.70064 0.0
C957 C 0.5505 0.42182 0.69841 0.0
N958 N 0.61018 0.39787 0.71249 0.0
N959 N 0.55714 0.40577 0.70481 0.0
H960 H 0.1403 0.53679 0.841 0.0
H961 H 0.25675 0.62703 0.90412 0.0
H962 H 0.14804 0.60122 0.86885 0.0
H963 H 0.25591 0.57469 0.8631 0.0
H964 H 0.21605 0.61638 0.89316 0.0
H965 H 0.18178 0.54883 0.85081 0.0
C966 C 0.15079 0.5535 0.84918 0.0
C967 C 0.14075 0.56801 0.85418 0.0
C968 C 0.22483 0.60728 0.88655 0.0
C969 C 0.18816 0.58188 0.86551 0.0
C970 C 0.24812 0.6134 0.89275 0.0
C971 C 0.25988 0.60173 0.88456 0.0
C972 C 0.21307 0.58923 0.87218 0.0
C973 C 0.24749 0.58388 0.87012 0.0
C974 C 0.17447 0.56041 0.8547 0.0
C975 C 0.15518 0.58961 0.8646 0.0
N976 N 0.22478 0.57815 0.86445 0.0
N977 N 0.17813 0.59582 0.87006 0.0
H978 H 0.58949 0.15581 0.99716 0.0
H979 H 0.66512 0.24562 0.08529 0.0
H980 H 0.58818 0.13188 0.05689 0.0
H981 H 0.68051 0.2651 0.0239 0.0
H982 H 0.63362 0.20486 0.07548 0.0
H983 H 0.61945 0.19725 0.00709 0.0
C984 C 0.59534 0.15936 0.0124 0.0
C985 C 0.58646 0.14044 0.02623 0.0
C986 C 0.64393 0.21803 0.06416 0.0
C987 C 0.62069 0.1876 0.03764 0.0
C988 C 0.66183 0.2413 0.06974 0.0
C989 C 0.67548 0.2587 0.05538 0.0
C990 C 0.63945 0.2122 0.04405 0.0
C991 C 0.67059 0.25211 0.03544 0.0
C992 C 0.61255 0.18293 0.01802 0.0
C993 C 0.59479 0.14593 0.04574 0.0
N994 N 0.6529 0.2294 0.03035 0.0
N995 N 0.61142 0.16901 0.05087 0.0
H996 H 0.46205 0.58111 0.2221 0.0
H997 H 0.44766 0.69529 0.19324 0.0
H998 H 0.47079 0.60964 0.16305 0.0
H999 H 0.4371 0.66635 0.25228 0.0
H1000 H 0.45675 0.66428 0.18214 0.0
H1001 H 0.4524 0.61177 0.23351 0.0
C1002 C 0.46171 0.59366 0.2115 0.0
C1003 C 0.46732 0.59285 0.19159 0.0
C1004 C 0.4525 0.66472 0.19754 0.0
C1005 C 0.45665 0.62821 0.2046 0.0
C1006 C 0.44752 0.68258 0.20393 0.0
C1007 C 0.44169 0.68351 0.22375 0.0
C1008 C 0.45167 0.64758 0.21103 0.0
C1009 C 0.44128 0.66619 0.23683 0.0
C1010 C 0.45638 0.61128 0.21805 0.0
C1011 C 0.46694 0.60981 0.17858 0.0
N1012 N 0.44621 0.64894 0.23024 0.0
N1013 N 0.46175 0.6268 0.18532 0.0
H1014 H 0.88495 0.43438 0.36514 0.0
H1015 H 0.78549 0.47579 0.3753 0.0
H1016 H 0.89692 0.50456 0.34704 0.0
H1017 H 0.77301 0.40527 0.39295 0.0
H1018 H 0.82637 0.48658 0.36475 0.0
H1019 H 0.84368 0.4231 0.37502 0.0
C1020 C 0.87884 0.44734 0.3631 0.0
C1021 C 0.89445 0.47048 0.35531 0.0
C1022 C 0.81471 0.46875 0.37096 0.0
C1023 C 0.84734 0.45781 0.3668 0.0
C1024 C 0.79133 0.46255 0.37692 0.0
C1025 C 0.77579 0.4396 0.38504 0.0
C1026 C 0.82264 0.45186 0.37308 0.0
C1027 C 0.78447 0.4233 0.38703 0.0
C1028 C 0.85533 0.44096 0.36887 0.0
C1029 C 0.88565 0.48666 0.35325 0.0
N1030 N 0.80728 0.42973 0.38106 0.0
N1031 N 0.86271 0.48003 0.35898 0.0
H1032 H 0.0996 0.51508 0.41564 0.0
H1033 H 0.19619 0.62757 0.48002 0.0
H1034 H 0.11467 0.58861 0.40767 0.0
H1035 H 0.17209 0.55299 0.495 0.0
H1036 H 0.16873 0.61372 0.45179 0.0
H1037 H 0.12839 0.52874 0.44313 0.0
C1038 C 0.10908 0.53412 0.41961 0.0
C1039 C 0.1047 0.55073 0.40939 0.0
C1040 C 0.16944 0.60036 0.46123 0.0
C1041 C 0.13755 0.56646 0.44084 0.0
C1042 C 0.18525 0.60826 0.47727 0.0
C1043 C 0.18649 0.59141 0.48986 0.0
C1044 C 0.1548 0.57539 0.45762 0.0
C1045 C 0.17156 0.56659 0.48576 0.0
C1046 C 0.12538 0.54187 0.43537 0.0
C1047 C 0.11727 0.57514 0.41529 0.0
N1048 N 0.15637 0.55933 0.46996 0.0
N1049 N 0.13314 0.58226 0.43059 0.0
H1050 H 0.55232 0.07549 0.6009 0.0
H1051 H 0.6267 0.21308 0.63771 0.0
H1052 H 0.59125 0.13608 0.56141 0.0
H1053 H 0.59896 0.15134 0.67683 0.0
H1054 H 0.61345 0.18546 0.60955 0.0
H1055 H 0.56823 0.10326 0.62889 0.0
C1056 C 0.56416 0.09467 0.59813 0.0
C1057 C 0.57038 0.10351 0.57879 0.0
C1058 C 0.61037 0.17798 0.6243 0.0
C1059 C 0.5888 0.13543 0.6108 0.0
C1060 C 0.61807 0.19375 0.64042 0.0
C1061 C 0.61388 0.18457 0.65975 0.0
C1062 C 0.59826 0.1528 0.6275 0.0
C1063 C 0.6022 0.15928 0.66226 0.0
C1064 C 0.57337 0.11051 0.61412 0.0
C1065 C 0.58612 0.12849 0.57608 0.0
N1066 N 0.59472 0.14432 0.64634 0.0
N1067 N 0.59468 0.14361 0.5919 0.0
H1068 H 0.45232 0.53233 0.74639 0.0
H1069 H 0.47057 0.64579 0.81081 0.0
H1070 H 0.5081 0.60619 0.73464 0.0
H1071 H 0.41528 0.57162 0.8222 0.0
H1072 H 0.48467 0.63186 0.78285 0.0
H1073 H 0.43823 0.54665 0.77395 0.0
C1074 C 0.46151 0.5516 0.74951 0.0
C1075 C 0.48141 0.56808 0.73813 0.0
C1076 C 0.46943 0.61865 0.79146 0.0
C1077 C 0.46553 0.58462 0.76991 0.0
C1078 C 0.46145 0.62658 0.80749 0.0
C1079 C 0.44166 0.60987 0.81887 0.0
C1080 C 0.45758 0.59382 0.78677 0.0
C1081 C 0.43036 0.58522 0.81369 0.0
C1082 C 0.45354 0.55976 0.76535 0.0
C1083 C 0.49287 0.5928 0.74314 0.0
N1084 N 0.43848 0.57796 0.79806 0.0
N1085 N 0.48475 0.60032 0.75864 0.0
H1086 H 0.95902 0.49675 0.93418 0.0
H1087 H 0.82034 0.43241 0.96845 0.0
H1088 H 0.89951 0.4765 0.89383 0.0
H1089 H 0.88069 0.465 0.00891 0.0
H1090 H 0.84892 0.44733 0.94085 0.0
H1091 H 0.93046 0.48394 0.96174 0.0
C1092 C 0.93992 0.48953 0.93113 0.0
C1093 C 0.93161 0.48762 0.91169 0.0
C1094 C 0.85591 0.45134 0.95576 0.0
C1095 C 0.89883 0.47302 0.94315 0.0
C1096 C 0.83962 0.44274 0.97151 0.0
C1097 C 0.84817 0.44744 0.991 0.0
C1098 C 0.88096 0.46453 0.95951 0.0
C1099 C 0.87331 0.46115 0.99412 0.0
C1100 C 0.92365 0.48237 0.94687 0.0
C1101 C 0.90671 0.47846 0.9086 0.0
N1102 N 0.88882 0.46908 0.97854 0.0
N1103 N 0.89118 0.47138 0.92416 0.0
H1104 H 0.49409 0.92057 0.07425 0.0
H1105 H 0.39371 0.8579 0.15883 0.0
H1106 H 0.43181 0.93011 0.07937 0.0
H1107 H 0.45109 0.84182 0.14857 0.0
H1108 H 0.40781 0.88525 0.13036 0.0
H1109 H 0.47901 0.89237 0.10202 0.0
C1110 C 0.47725 0.91676 0.08126 0.0
C1111 C 0.46422 0.92776 0.07452 0.0
C1112 C 0.41725 0.87566 0.13431 0.0
C1113 C 0.44677 0.8954 0.10631 0.0
C1114 C 0.40929 0.86016 0.15061 0.0
C1115 C 0.42121 0.84752 0.15607 0.0
C1116 C 0.4374 0.8787 0.12347 0.0
C1117 C 0.44115 0.85094 0.14476 0.0
C1118 C 0.46858 0.90056 0.09706 0.0
C1119 C 0.44233 0.92188 0.08398 0.0
N1120 N 0.44866 0.86624 0.12906 0.0
N1121 N 0.43434 0.90618 0.09946 0.0
H1122 H 0.5253 0.46825 0.26168 0.0
H1123 H 0.6044 0.40936 0.29676 0.0
H1124 H 0.57379 0.45875 0.22309 0.0
H1125 H 0.57026 0.43574 0.33704 0.0
H1126 H 0.59017 0.4236 0.26916 0.0
H1127 H 0.53817 0.4523 0.28905 0.0
C1128 C 0.53856 0.46267 0.25895 0.0
C1129 C 0.54852 0.46484 0.2401 0.0
C1130 C 0.58578 0.42622 0.28406 0.0
C1131 C 0.56338 0.44665 0.27134 0.0
C1132 C 0.59399 0.41819 0.29985 0.0
C1133 C 0.58863 0.4214 0.31934 0.0
C1134 C 0.57196 0.43741 0.28772 0.0
C1135 C 0.57459 0.43253 0.32232 0.0
C1136 C 0.546 0.4537 0.2746 0.0
C1137 C 0.56585 0.45761 0.23744 0.0
N1138 N 0.56677 0.44013 0.3067 0.0
N1139 N 0.57269 0.44877 0.25288 0.0
H1140 H 0.51059 0.95628 0.39883 0.0
H1141 H 0.40405 0.83321 0.35339 0.0
H1142 H 0.44896 0.90418 0.43276 0.0
H1143 H 0.47424 0.87508 0.32575 0.0
H1144 H 0.4188 0.86072 0.38155 0.0
H1145 H 0.49619 0.92841 0.37088 0.0
C1146 C 0.49413 0.93892 0.4005 0.0
C1147 C 0.48104 0.9326 0.41829 0.0
C1148 C 0.43097 0.86384 0.36933 0.0
C1149 C 0.46419 0.90078 0.38608 0.0
C1150 C 0.42262 0.84806 0.35325 0.0
C1151 C 0.43794 0.85169 0.33712 0.0
C1152 C 0.45477 0.8836 0.36927 0.0
C1153 C 0.46164 0.87167 0.33768 0.0
C1154 C 0.48586 0.92307 0.38447 0.0
C1155 C 0.45951 0.91004 0.41931 0.0
N1156 N 0.4693 0.88688 0.35347 0.0
N1157 N 0.45175 0.89498 0.40344 0.0
H1158 H 0.53713 0.44174 0.58145 0.0
H1159 H 0.64363 0.47359 0.50363 0.0
H1160 H 0.60217 0.5119 0.5779 0.0
H1161 H 0.57556 0.40593 0.50426 0.0
H1162 H 0.62974 0.48743 0.53177 0.0
H1163 H 0.55194 0.42772 0.55416 0.0
C1164 C 0.5545 0.45424 0.57488 0.0
C1165 C 0.56836 0.47809 0.58193 0.0
C1166 C 0.61788 0.46953 0.52577 0.0
C1167 C 0.58559 0.46204 0.55076 0.0
C1168 C 0.62575 0.46166 0.50963 0.0
C1169 C 0.61077 0.43854 0.50153 0.0
C1170 C 0.59485 0.45419 0.53388 0.0
C1171 C 0.58791 0.42375 0.51015 0.0
C1172 C 0.56301 0.44618 0.55935 0.0
C1173 C 0.59097 0.49331 0.57308 0.0
N1174 N 0.58066 0.43184 0.52581 0.0
N1175 N 0.59884 0.48505 0.55793 0.0
H1176 H 0.08739 0.53269 0.73746 0.0
H1177 H 0.2003 0.64468 0.68498 0.0
H1178 H 0.1172 0.60667 0.75714 0.0
H1179 H 0.15707 0.57505 0.657 0.0
H1180 H 0.17234 0.63041 0.71306 0.0
H1181 H 0.11527 0.54717 0.70936 0.0
C1182 C 0.0999 0.55198 0.7359 0.0
C1183 C 0.10001 0.56852 0.74963 0.0
C1184 C 0.16893 0.61829 0.70074 0.0
C1185 C 0.1319 0.58521 0.71755 0.0
C1186 C 0.18493 0.62638 0.68478 0.0
C1187 C 0.18095 0.61103 0.66865 0.0
C1188 C 0.149 0.59457 0.70069 0.0
C1189 C 0.16065 0.58755 0.66905 0.0
C1190 C 0.11568 0.56024 0.71981 0.0
C1191 C 0.1164 0.59334 0.7468 0.0
N1192 N 0.14551 0.57999 0.68486 0.0
N1193 N 0.13177 0.60093 0.73112 0.0
H1194 H 0.57557 0.13498 0.9346 0.0
H1195 H 0.56302 0.15236 0.81906 0.0
H1196 H 0.52504 0.07779 0.89631 0.0
H1197 H 0.60821 0.21147 0.85813 0.0
H1198 H 0.54931 0.1247 0.8472 0.0
H1199 H 0.5884 0.16322 0.90675 0.0
C1200 C 0.56724 0.12835 0.92032 0.0
C1201 C 0.54919 0.10398 0.91778 0.0
C1202 C 0.56216 0.14373 0.84965 0.0
C1203 C 0.56368 0.13621 0.88589 0.0
C1204 C 0.57008 0.15951 0.83357 0.0
C1205 C 0.58685 0.18426 0.83623 0.0
C1206 C 0.57117 0.15268 0.86858 0.0
C1207 C 0.5951 0.19258 0.85542 0.0
C1208 C 0.57446 0.1445 0.90446 0.0
C1209 C 0.5388 0.09646 0.899 0.0
N1210 N 0.58728 0.17681 0.87084 0.0
N1211 N 0.54624 0.11248 0.88379 0.0
H1212 H 0.4339 0.52153 0.07713 0.0
H1213 H 0.45451 0.63338 0.00942 0.0
H1214 H 0.49548 0.5938 0.0827 0.0
H1215 H 0.39873 0.55933 0.99842 0.0
H1216 H 0.46797 0.61966 0.03786 0.0
H1217 H 0.41897 0.53551 0.04978 0.0
C1218 C 0.44419 0.54038 0.07268 0.0
C1219 C 0.46599 0.55652 0.08218 0.0
C1220 C 0.45277 0.6064 0.02925 0.0
C1221 C 0.4491 0.57261 0.05082 0.0
C1222 C 0.44496 0.61425 0.01309 0.0
C1223 C 0.42544 0.59747 0.00154 0.0
C1224 C 0.44092 0.5816 0.03398 0.0
C1225 C 0.414 0.57285 0.0068 0.0
C1226 C 0.43574 0.54831 0.05699 0.0
C1227 C 0.47875 0.58068 0.07563 0.0
N1228 N 0.42189 0.56566 0.02266 0.0
N1229 N 0.4701 0.58799 0.06038 0.0
H1230 H 0.95546 0.45731 0.23064 0.0
H1231 H 0.83157 0.43931 0.18605 0.0
H1232 H 0.90507 0.47004 0.26396 0.0
H1233 H 0.87183 0.40861 0.15943 0.0
H1234 H 0.85974 0.45316 0.21374 0.0
H1235 H 0.92651 0.44188 0.20342 0.0
C1236 C 0.93826 0.45672 0.23233 0.0
C1237 C 0.93275 0.46501 0.24971 0.0
C1238 C 0.86236 0.44331 0.20187 0.0
C1239 C 0.89968 0.44773 0.21835 0.0
C1240 C 0.84617 0.43523 0.18607 0.0
C1241 C 0.84917 0.42261 0.17034 0.0
C1242 C 0.88192 0.43899 0.20193 0.0
C1243 C 0.8689 0.4185 0.17106 0.0
C1244 C 0.92179 0.448 0.21671 0.0
C1245 C 0.91033 0.46423 0.25079 0.0
N1246 N 0.88454 0.42672 0.18656 0.0
N1247 N 0.89467 0.45582 0.23532 0.0
loop_
_geom_bond_atom_site_label_1
_geom_bond_atom_site_label_2
_geom_bond_distance
_geom_bond_site_symmetry_2
_ccdc_geom_bond_type
H0 C19 0.949 . S
H1 C20 0.950 . S
H2 C22 0.950 . S
H3 C23 0.950 . S
H4 C25 0.950 . S
H5 C28 0.950 . S
H6 C29 0.950 . S
H7 C31 0.951 . S
H8 C32 0.949 . S
H9 C34 0.949 . S
H10 C35 0.950 . S
H11 C37 0.950 . S
H12 C38 0.950 . S
H13 C40 0.950 . S
H14 C43 0.950 . S
H15 C44 0.950 . S
H16 C46 0.951 . S
H17 C47 0.949 . S
C18 C19 1.376 . S
C18 C23 1.386 . S
C18 C24 1.484 1_655 S
C19 H0 0.949 . S
C19 C18 1.376 . S
C19 C20 1.397 . S
C20 H1 0.950 . S
C20 C19 1.397 . S
C20 C21 1.391 . S
C21 C20 1.391 . S
C21 C22 1.405 . S
C22 H2 0.950 . S
C22 C21 1.405 . S
C22 C23 1.367 . S
C23 H3 0.950 . S
C23 C18 1.386 . S
C23 C22 1.367 . S
C24 C18 1.484 1_455 S
C24 C25 1.380 . S
C24 C26 1.403 1_455 S
C25 H4 0.950 . S
C25 C24 1.380 . S
C25 C41 1.411 . S
C26 C24 1.403 1_655 S
C26 C27 1.489 . S
C26 C40 1.411 1_655 S
C27 C26 1.489 . S
C27 C28 1.383 . S
C27 C32 1.382 . S
C28 H5 0.950 . S
C28 C27 1.383 . S
C28 C29 1.395 . S
C29 H6 0.950 . S
C29 C28 1.395 . S
C29 C30 1.288 . S
C30 C29 1.288 . S
C30 C31 1.392 . S
C31 H7 0.951 . S
C31 C30 1.392 . S
C31 C32 1.392 . S
C32 H8 0.949 . S
C32 C27 1.382 . S
C32 C31 1.392 . S
C33 C34 1.376 . S
C33 C38 1.386 . S
C33 C39 1.483 . S
C34 H9 0.949 . S
C34 C33 1.376 . S
C34 C35 1.397 . S
C35 H10 0.950 . S
C35 C34 1.397 . S
C35 C36 1.391 . S
C36 C35 1.391 . S
C36 C37 1.405 . S
C37 H11 0.950 . S
C37 C36 1.405 . S
C37 C38 1.367 . S
C38 H12 0.950 . S
C38 C33 1.386 . S
C38 C37 1.367 . S
C39 C33 1.483 . S
C39 C40 1.382 . S
C39 C41 1.403 . S
C40 H13 0.950 . S
C40 C26 1.411 1_455 S
C40 C39 1.382 . S
C41 C25 1.411 . S
C41 C39 1.403 . S
C41 C42 1.489 . S
C42 C41 1.489 . S
C42 C43 1.383 . S
C42 C47 1.382 . S
C43 H14 0.950 . S
C43 C42 1.383 . S
C43 C44 1.395 . S
C44 H15 0.950 . S
C44 C43 1.395 . S
C44 C45 1.288 . S
C45 C44 1.288 . S
C45 C46 1.392 . S
C46 H16 0.951 . S
C46 C45 1.392 . S
C46 C47 1.392 . S
C47 H17 0.949 . S
C47 C42 1.382 . S
C47 C46 1.392 . S
H48 C67 0.949 . S
H49 C68 0.950 . S
H50 C70 0.950 . S
H51 C71 0.950 . S
H52 C73 0.950 . S
H53 C76 0.950 . S
H54 C77 0.950 . S
H55 C79 0.951 . S
H56 C80 0.961 . S
H57 C82 0.949 . S
H58 C83 0.950 . S
H59 C85 0.950 . S
H60 C86 0.950 . S
H61 C88 0.950 . S
H62 C91 0.950 . S
H63 C92 0.950 . S
H64 C94 0.951 . S
H65 C95 0.949 . S
C66 C67 1.376 . S
C66 C71 1.386 . S
C66 C72 1.483 . S
C67 H48 0.949 . S
C67 C66 1.376 . S
C67 C68 1.397 . S
C68 H49 0.950 . S
C68 C67 1.397 . S
C68 C69 1.391 . S
C69 C68 1.391 . S
C69 C70 1.405 . S
C70 H50 0.950 . S
C70 C69 1.405 . S
C70 C71 1.367 . S
C71 H51 0.950 . S
C71 C66 1.386 . S
C71 C70 1.367 . S
C72 C66 1.483 . S
C72 C73 1.382 1_565 S
C72 C74 1.403 1_565 S
C73 H52 0.950 . S
C73 C72 1.382 1_545 S
C73 C89 1.411 . S
C74 C72 1.403 1_545 S
C74 C75 1.489 1_545 S
C74 C88 1.411 . S
C75 C74 1.489 1_565 S
C75 C76 1.383 . S
C75 C80 1.382 . S
C76 H53 0.950 . S
C76 C75 1.383 . S
C76 C77 1.395 . S
C77 H54 0.950 . S
C77 C76 1.395 . S
C77 C78 1.288 . S
C78 C77 1.288 . S
C78 C79 1.392 . S
C79 H55 0.951 . S
C79 C78 1.392 . S
C79 C80 1.392 . S
C80 H56 0.961 . S
C80 C75 1.382 . S
C80 C79 1.392 . S
C81 C82 1.376 . S
C81 C86 1.386 . S
C81 C87 1.483 . S
C82 H57 0.949 . S
C82 C81 1.376 . S
C82 C83 1.397 . S
C83 H58 0.950 . S
C83 C82 1.397 . S
C83 C84 1.391 . S
C84 C83 1.391 . S
C84 C85 1.405 . S
C85 H59 0.950 . S
C85 C84 1.405 . S
C85 C86 1.367 . S
C86 H60 0.950 . S
C86 C81 1.386 . S
C86 C85 1.367 . S
C87 C81 1.483 . S
C87 C88 1.382 . S
C87 C89 1.403 . S
C88 H61 0.950 . S
C88 C74 1.411 . S
C88 C87 1.382 . S
C89 C73 1.411 . S
C89 C87 1.403 . S
C89 C90 1.489 . S
C90 C89 1.489 . S
C90 C91 1.383 . S
C90 C95 1.382 . S
C91 H62 0.950 . S
C91 C90 1.383 . S
C91 C92 1.395 . S
C92 H63 0.950 . S
C92 C91 1.395 . S
C92 C93 1.288 . S
C93 C92 1.288 . S
C93 C94 1.392 . S
C94 H64 0.951 . S
C94 C93 1.392 . S
C94 C95 1.392 . S
C95 H65 0.949 . S
C95 C90 1.382 . S
C95 C94 1.392 . S
H96 C115 0.949 . S
H97 C116 0.950 . S
H98 C118 0.950 . S
H99 C119 0.950 . S
H100 C121 0.950 . S
H101 C124 0.950 . S
H102 C125 0.950 . S
H103 C127 0.951 . S
H104 C128 0.949 . S
H105 C130 0.949 . S
H106 C131 0.950 . S
H107 C133 0.950 . S
H108 C134 0.950 . S
H109 C136 0.950 . S
H110 C139 0.950 . S
H111 C140 0.950 . S
H112 C142 0.951 . S
H113 C143 0.949 . S
C114 C115 1.376 . S
C114 C119 1.386 . S
C114 C120 1.483 . S
C115 H96 0.949 . S
C115 C114 1.376 . S
C115 C116 1.397 . S
C116 H97 0.950 . S
C116 C115 1.397 . S
C116 C117 1.391 . S
C117 C116 1.391 . S
C117 C118 1.405 . S
C118 H98 0.950 . S
C118 C117 1.405 . S
C118 C119 1.367 . S
C119 H99 0.950 . S
C119 C114 1.386 . S
C119 C118 1.367 . S
C120 C114 1.483 . S
C120 C121 1.382 . S
C120 C122 1.403 . S
C121 H100 0.950 . S
C121 C120 1.382 . S
C121 C137 1.411 . S
C122 C120 1.403 . S
C122 C123 1.489 . S
C122 C136 1.411 . S
C123 C122 1.489 . S
C123 C124 1.383 . S
C123 C128 1.382 . S
C124 H101 0.950 . S
C124 C123 1.383 . S
C124 C125 1.395 . S
C125 H102 0.950 . S
C125 C124 1.395 . S
C125 C126 1.288 . S
C126 C125 1.288 . S
C126 C127 1.392 . S
C127 H103 0.951 . S
C127 C126 1.392 . S
C127 C128 1.392 . S
C128 H104 0.949 . S
C128 C123 1.382 . S
C128 C127 1.392 . S
C129 C130 1.376 . S
C129 C134 1.386 . S
C129 C135 1.483 . S
C130 H105 0.949 . S
C130 C129 1.376 . S
C130 C131 1.397 . S
C131 H106 0.950 . S
C131 C130 1.397 . S
C131 C132 1.391 . S
C132 C131 1.391 . S
C132 C133 1.405 . S
C133 H107 0.950 . S
C133 C132 1.405 . S
C133 C134 1.367 . S
C134 H108 0.950 . S
C134 C129 1.386 . S
C134 C133 1.367 . S
C135 C129 1.483 . S
C135 C136 1.382 . S
C135 C137 1.403 . S
C136 H109 0.950 . S
C136 C122 1.411 . S
C136 C135 1.382 . S
C137 C121 1.411 . S
C137 C135 1.403 . S
C137 C138 1.489 . S
C138 C137 1.489 . S
C138 C139 1.383 . S
C138 C143 1.382 . S
C139 H110 0.950 . S
C139 C138 1.383 . S
C139 C140 1.395 . S
C140 H111 0.950 . S
C140 C139 1.395 . S
C140 C141 1.288 . S
C141 C140 1.288 . S
C141 C142 1.392 . S
C142 H112 0.951 . S
C142 C141 1.392 . S
C142 C143 1.392 . S
C143 H113 0.949 . S
C143 C138 1.382 . S
C143 C142 1.392 . S
H144 C163 0.949 . S
H145 C164 0.950 . S
H146 C166 0.950 . S
H147 C167 0.950 . S
H148 C169 0.950 . S
H149 C172 0.950 . S
H150 C173 0.950 . S
H151 C175 0.951 . S
H152 C176 0.949 . S
H153 C178 0.949 . S
H154 C179 0.950 . S
H155 C181 0.950 . S
H156 C182 0.950 . S
H157 C184 0.950 . S
H158 C187 0.950 . S
H159 C188 0.950 . S
H160 C190 0.951 . S
H161 C191 0.949 . S
C162 C163 1.376 . S
C162 C167 1.386 . S
C162 C168 1.483 . S
C163 H144 0.949 . S
C163 C162 1.376 . S
C163 C164 1.397 . S
C164 H145 0.950 . S
C164 C163 1.397 . S
C164 C165 1.391 . S
C165 C164 1.391 . S
C165 C166 1.405 . S
C166 H146 0.950 . S
C166 C165 1.405 . S
C166 C167 1.367 . S
C167 H147 0.950 . S
C167 C162 1.386 . S
C167 C166 1.367 . S
C168 C162 1.483 . S
C168 C169 1.382 . S
C168 C170 1.403 . S
C169 H148 0.950 . S
C169 C168 1.382 . S
C169 C185 1.411 1_455 S
C170 C168 1.403 . S
C170 C171 1.489 . S
C170 C184 1.411 . S
C171 C170 1.489 . S
C171 C172 1.383 . S
C171 C176 1.382 . S
C172 H149 0.950 . S
C172 C171 1.383 . S
C172 C173 1.395 . S
C173 H150 0.950 . S
C173 C172 1.395 . S
C173 C174 1.288 . S
C174 C173 1.288 . S
C174 C175 1.392 . S
C175 H151 0.951 . S
C175 C174 1.392 . S
C175 C176 1.392 . S
C176 H152 0.949 . S
C176 C171 1.382 . S
C176 C175 1.392 . S
C177 C178 1.376 . S
C177 C182 1.386 . S
C177 C183 1.479 1_655 S
C178 H153 0.949 . S
C178 C177 1.376 . S
C178 C179 1.397 . S
C179 H154 0.950 . S
C179 C178 1.397 . S
C179 C180 1.391 . S
C180 C179 1.391 . S
C180 C181 1.405 . S
C181 H155 0.950 . S
C181 C180 1.405 . S
C181 C182 1.367 . S
C182 H156 0.950 . S
C182 C177 1.386 . S
C182 C181 1.367 . S
C183 C177 1.479 1_455 S
C183 C184 1.388 . S
C183 C185 1.401 1_455 S
C184 H157 0.950 . S
C184 C170 1.411 . S
C184 C183 1.388 . S
C185 C169 1.411 1_655 S
C185 C183 1.401 1_655 S
C185 C186 1.489 . S
C186 C185 1.489 . S
C186 C187 1.383 . S
C186 C191 1.382 . S
C187 H158 0.950 . S
C187 C186 1.383 . S
C187 C188 1.395 . S
C188 H159 0.950 . S
C188 C187 1.395 . S
C188 C189 1.288 . S
C189 C188 1.288 . S
C189 C190 1.392 . S
C190 H160 0.951 . S
C190 C189 1.392 . S
C190 C191 1.392 . S
C191 H161 0.949 . S
C191 C186 1.382 . S
C191 C190 1.392 . S
H192 C211 0.949 . S
H193 C212 0.950 . S
H194 C214 0.950 . S
H195 C215 0.932 1_556 S
H196 C217 0.950 . S
H197 C220 0.950 . S
H198 C221 0.950 . S
H199 C223 0.951 . S
H200 C224 0.949 . S
H201 C226 0.949 . S
H202 C227 0.950 . S
H203 C229 0.950 . S
H204 C230 0.950 . S
H205 C232 0.950 . S
H206 C235 0.950 . S
H207 C236 0.950 . S
H208 C238 0.951 . S
H209 C239 0.960 . S
C210 C211 1.376 . S
C210 C215 1.394 . S
C210 C216 1.478 1_554 S
C211 H192 0.949 . S
C211 C210 1.376 . S
C211 C212 1.397 . S
C212 H193 0.950 . S
C212 C211 1.397 . S
C212 C213 1.391 . S
C213 C212 1.391 . S
C213 C214 1.405 . S
C214 H194 0.950 . S
C214 C213 1.405 . S
C214 C215 1.379 . S
C215 H195 0.932 1_554 S
C215 C210 1.394 . S
C215 C214 1.379 . S
C216 C210 1.478 1_556 S
C216 C217 1.367 1_556 S
C216 C218 1.422 . S
C217 H196 0.950 . S
C217 C216 1.367 1_554 S
C217 C233 1.411 . S
C218 C216 1.422 . S
C218 C219 1.489 . S
C218 C232 1.411 . S
C219 C218 1.489 . S
C219 C220 1.383 . S
C219 C224 1.382 . S
C220 H197 0.950 . S
C220 C219 1.383 . S
C220 C221 1.395 . S
C221 H198 0.950 . S
C221 C220 1.395 . S
C221 C222 1.288 . S
C222 C221 1.288 . S
C222 C223 1.392 . S
C223 H199 0.951 . S
C223 C222 1.392 . S
C223 C224 1.392 . S
C224 H200 0.949 . S
C224 C219 1.382 . S
C224 C223 1.392 . S
C225 C226 1.376 . S
C225 C230 1.386 . S
C225 C231 1.483 . S
C226 H201 0.949 . S
C226 C225 1.376 . S
C226 C227 1.397 . S
C227 H202 0.950 . S
C227 C226 1.397 . S
C227 C228 1.391 . S
C228 C227 1.391 . S
C228 C229 1.405 . S
C229 H203 0.950 . S
C229 C228 1.405 . S
C229 C230 1.367 . S
C230 H204 0.950 . S
C230 C225 1.386 . S
C230 C229 1.367 . S
C231 C225 1.483 . S
C231 C232 1.382 1_565 S
C231 C233 1.403 1_566 S
C232 H205 0.950 . S
C232 C218 1.411 . S
C232 C231 1.382 1_545 S
C233 C217 1.411 . S
C233 C231 1.403 1_544 S
C233 C234 1.489 1_545 S
C234 C233 1.489 1_565 S
C234 C235 1.383 . S
C234 C239 1.382 . S
C235 H206 0.950 . S
C235 C234 1.383 . S
C235 C236 1.395 . S
C236 H207 0.950 . S
C236 C235 1.395 . S
C236 C237 1.288 . S
C237 C236 1.288 . S
C237 C238 1.392 . S
C238 H208 0.951 . S
C238 C237 1.392 . S
C238 C239 1.392 . S
C239 H209 0.960 . S
C239 C234 1.382 . S
C239 C238 1.392 . S
H240 C259 0.949 . S
H241 C260 0.950 . S
H242 C262 0.950 . S
H243 C263 0.950 . S
H244 C265 0.950 . S
H245 C268 0.950 . S
H246 C269 0.950 . S
H247 C271 0.951 . S
H248 C272 0.949 . S
H249 C274 0.949 . S
H250 C275 0.950 . S
H251 C277 0.950 . S
H252 C278 0.950 . S
H253 C280 0.950 . S
H254 C283 0.950 . S
H255 C284 0.950 . S
H256 C286 0.951 . S
H257 C287 0.949 . S
C258 C259 1.376 . S
C258 C263 1.386 . S
C258 C264 1.483 . S
C259 H240 0.949 . S
C259 C258 1.376 . S
C259 C260 1.397 . S
C260 H241 0.950 . S
C260 C259 1.397 . S
C260 C261 1.391 . S
C261 C260 1.391 . S
C261 C262 1.405 . S
C262 H242 0.950 . S
C262 C261 1.405 . S
C262 C263 1.367 . S
C263 H243 0.950 . S
C263 C258 1.386 . S
C263 C262 1.367 . S
C264 C258 1.483 . S
C264 C265 1.382 . S
C264 C266 1.403 . S
C265 H244 0.950 . S
C265 C264 1.382 . S
C265 C281 1.411 . S
C266 C264 1.403 . S
C266 C267 1.489 . S
C266 C280 1.411 . S
C267 C266 1.489 . S
C267 C268 1.383 . S
C267 C272 1.382 . S
C268 H245 0.950 . S
C268 C267 1.383 . S
C268 C269 1.395 . S
C269 H246 0.950 . S
C269 C268 1.395 . S
C269 C270 1.288 . S
C270 C269 1.288 . S
C270 C271 1.392 . S
C271 H247 0.951 . S
C271 C270 1.392 . S
C271 C272 1.392 . S
C272 H248 0.949 . S
C272 C267 1.382 . S
C272 C271 1.392 . S
C273 C274 1.376 . S
C273 C278 1.386 . S
C273 C279 1.483 . S
C274 H249 0.949 . S
C274 C273 1.376 . S
C274 C275 1.397 . S
C275 H250 0.950 . S
C275 C274 1.397 . S
C275 C276 1.391 . S
C276 C275 1.391 . S
C276 C277 1.405 . S
C277 H251 0.950 . S
C277 C276 1.405 . S
C277 C278 1.367 . S
C278 H252 0.950 . S
C278 C273 1.386 . S
C278 C277 1.367 . S
C279 C273 1.483 . S
C279 C280 1.382 . S
C279 C281 1.403 . S
C280 H253 0.950 . S
C280 C266 1.411 . S
C280 C279 1.382 . S
C281 C265 1.411 . S
C281 C279 1.403 . S
C281 C282 1.489 . S
C282 C281 1.489 . S
C282 C283 1.383 . S
C282 C287 1.382 . S
C283 H254 0.950 . S
C283 C282 1.383 . S
C283 C284 1.395 . S
C284 H255 0.950 . S
C284 C283 1.395 . S
C284 C285 1.288 . S
C285 C284 1.288 . S
C285 C286 1.392 . S
C286 H256 0.951 . S
C286 C285 1.392 . S
C286 C287 1.392 . S
C287 H257 0.949 . S
C287 C282 1.382 . S
C287 C286 1.392 . S
Li288 N305 1.990 . S
Li288 O348 1.956 . S
Li288 O349 1.970 . S
Li288 O350 1.961 . S
Li289 N313 1.990 . S
Li289 O348 1.970 . S
Li289 O349 1.956 . S
Li289 O351 1.961 . S
Li290 N335 1.990 . S
Li290 O348 1.961 . S
Li290 O350 1.956 . S
Li290 O351 1.970 . S
Li291 N341 1.990 . S
Li291 O349 1.961 . S
Li291 O350 1.970 . S
Li291 O351 1.956 . S
C292 C294 1.348 . S
C292 C295 1.356 . S
C292 O348 1.325 . S
N293 C296 1.314 . S
N293 C297 1.279 . S
C294 C292 1.348 . S
C294 C296 1.353 . S
C294 H352 0.929 . S
C295 C292 1.356 . S
C295 C297 1.358 . S
C295 H353 0.930 . S
C296 N293 1.314 . S
C296 C294 1.353 . S
C296 H354 0.930 . S
C297 N293 1.279 . S
C297 C295 1.358 . S
C297 H355 0.930 . S
C298 C301 1.348 . S
C298 C302 1.356 . S
C298 O349 1.325 . S
C299 N300 1.279 . S
C299 C302 1.358 . S
C299 H356 0.930 . S
N300 C299 1.279 . S
N300 C303 1.314 . S
C301 C298 1.348 . S
C301 C303 1.353 . S
C301 H357 0.929 . S
C302 C298 1.356 . S
C302 C299 1.358 . S
C302 H358 0.930 . S
C303 N300 1.314 . S
C303 C301 1.353 . S
C303 H359 0.930 . S
C304 N305 1.314 . S
C304 C309 1.353 . S
C304 H310 0.930 . S
N305 Li288 1.990 . S
N305 C304 1.314 . S
N305 C307 1.279 . S
C306 C307 1.358 . S
C306 C308 1.356 . S
C306 H360 0.930 . S
C307 N305 1.279 . S
C307 C306 1.358 . S
C307 H311 0.930 . S
C308 C306 1.356 . S
C308 C309 1.348 . S
C309 C304 1.353 . S
C309 C308 1.348 . S
C309 H361 0.929 . S
H310 C304 0.930 . S
H311 C307 0.930 . S
C312 N313 1.314 . S
C312 C314 1.353 . S
C312 H318 0.930 . S
N313 Li289 1.990 . S
N313 C312 1.314 . S
N313 C316 1.279 . S
C314 C312 1.353 . S
C314 C317 1.348 . S
C314 H362 0.929 . S
C315 C316 1.358 . S
C315 C317 1.356 . S
C315 H363 0.930 . S
C316 N313 1.279 . S
C316 C315 1.358 . S
C316 H319 0.930 . S
C317 C314 1.348 . S
C317 C315 1.356 . S
H318 C312 0.930 . S
H319 C316 0.930 . S
C320 C322 1.348 . S
C320 C323 1.356 . S
C320 O350 1.325 . S
N321 C324 1.314 . S
N321 C325 1.279 . S
C322 C320 1.348 . S
C322 C324 1.353 . S
C322 H364 0.929 . S
C323 C320 1.356 . S
C323 C325 1.358 . S
C323 H365 0.930 . S
C324 N321 1.314 . S
C324 C322 1.353 . S
C324 H366 0.930 . S
C325 N321 1.279 . S
C325 C323 1.358 . S
C325 H367 0.930 . S
C326 C327 1.348 . S
C326 C328 1.356 . S
C326 O351 1.325 . S
C327 C326 1.348 . S
C327 C329 1.353 . S
C327 H368 0.929 . S
C328 C326 1.356 . S
C328 C330 1.358 . S
C328 H369 0.930 . S
C329 C327 1.353 . S
C329 N331 1.314 . S
C329 H370 0.930 . S
C330 C328 1.358 . S
C330 N331 1.279 . S
C330 H371 0.930 . S
N331 C329 1.314 . S
N331 C330 1.279 . S
C332 C334 1.353 . S
C332 N335 1.314 . S
C332 H338 0.930 . S
C333 N335 1.279 . S
C333 C336 1.358 . S
C333 H339 0.930 . S
C334 C332 1.353 . S
C334 C337 1.348 . S
C334 H372 0.929 . S
N335 Li290 1.990 . S
N335 C332 1.314 . S
N335 C333 1.279 . S
C336 C333 1.358 . S
C336 C337 1.356 . S
C336 H373 0.930 . S
C337 C334 1.348 . S
C337 C336 1.356 . S
H338 C332 0.930 . S
H339 C333 0.930 . S
C340 N341 1.314 . S
C340 C342 1.353 . S
C340 H346 0.930 . S
N341 Li291 1.990 . S
N341 C340 1.314 . S
N341 C344 1.279 . S
C342 C340 1.353 . S
C342 C345 1.348 . S
C342 H374 0.929 . S
C343 C344 1.358 . S
C343 C345 1.356 . S
C343 H375 0.930 . S
C344 N341 1.279 . S
C344 C343 1.358 . S
C344 H347 0.930 . S
C345 C342 1.348 . S
C345 C343 1.356 . S
H346 C340 0.930 . S
H347 C344 0.930 . S
O348 Li288 1.956 . S
O348 Li289 1.970 . S
O348 Li290 1.961 . S
O348 C292 1.325 . S
O349 Li288 1.970 . S
O349 Li289 1.956 . S
O349 Li291 1.961 . S
O349 C298 1.325 . S
O350 Li288 1.961 . S
O350 Li290 1.956 . S
O350 Li291 1.970 . S
O350 C320 1.325 . S
O351 Li289 1.961 . S
O351 Li290 1.970 . S
O351 Li291 1.956 . S
O351 C326 1.325 . S
H352 C294 0.929 . S
H353 C295 0.930 . S
H354 C296 0.930 . S
H355 C297 0.930 . S
H356 C299 0.930 . S
H357 C301 0.929 . S
H358 C302 0.930 . S
H359 C303 0.930 . S
H360 C306 0.930 . S
H361 C309 0.929 . S
H362 C314 0.929 . S
H363 C315 0.930 . S
H364 C322 0.929 . S
H365 C323 0.930 . S
H366 C324 0.930 . S
H367 C325 0.930 . S
H368 C327 0.929 . S
H369 C328 0.930 . S
H370 C329 0.930 . S
H371 C330 0.930 . S
H372 C334 0.929 . S
H373 C336 0.930 . S
H374 C342 0.929 . S
H375 C343 0.930 . S
Li376 N393 1.990 . S
Li376 O436 1.956 . S
Li376 O437 1.970 . S
Li376 O438 1.961 . S
Li377 N401 1.990 . S
Li377 O436 1.970 . S
Li377 O437 1.956 . S
Li377 O439 1.961 . S
Li378 N423 1.990 . S
Li378 O436 1.961 . S
Li378 O438 1.956 . S
Li378 O439 1.970 . S
Li379 N429 1.990 . S
Li379 O437 1.961 . S
Li379 O438 1.970 . S
Li379 O439 1.956 . S
C380 C382 1.348 . S
C380 C383 1.356 . S
C380 O436 1.325 . S
N381 C384 1.314 . S
N381 C385 1.279 . S
C382 C380 1.348 . S
C382 C384 1.353 . S
C382 H440 0.929 . S
C383 C380 1.356 . S
C383 C385 1.358 . S
C383 H441 0.930 . S
C384 N381 1.314 . S
C384 C382 1.353 . S
C384 H442 0.930 . S
C385 N381 1.279 . S
C385 C383 1.358 . S
C385 H443 0.930 . S
C386 C389 1.348 . S
C386 C390 1.356 . S
C386 O437 1.325 . S
C387 N388 1.279 . S
C387 C390 1.358 . S
C387 H444 0.930 . S
N388 C387 1.279 . S
N388 C391 1.314 . S
C389 C386 1.348 . S
C389 C391 1.353 . S
C389 H445 0.929 . S
C390 C386 1.356 . S
C390 C387 1.358 . S
C390 H446 0.930 . S
C391 N388 1.314 . S
C391 C389 1.353 . S
C391 H447 0.930 . S
C392 N393 1.314 . S
C392 C397 1.353 . S
C392 H398 0.930 . S
N393 Li376 1.990 . S
N393 C392 1.314 . S
N393 C395 1.279 . S
C394 C395 1.358 . S
C394 C396 1.356 . S
C394 H448 0.930 . S
C395 N393 1.279 . S
C395 C394 1.358 . S
C395 H399 0.930 . S
C396 C394 1.356 . S
C396 C397 1.348 . S
C397 C392 1.353 . S
C397 C396 1.348 . S
C397 H449 0.929 . S
H398 C392 0.930 . S
H399 C395 0.930 . S
C400 N401 1.314 . S
C400 C402 1.353 . S
C400 H406 0.930 . S
N401 Li377 1.990 . S
N401 C400 1.314 . S
N401 C404 1.279 . S
C402 C400 1.353 . S
C402 C405 1.348 . S
C402 H450 0.929 . S
C403 C404 1.358 . S
C403 C405 1.356 . S
C403 H451 0.930 . S
C404 N401 1.279 . S
C404 C403 1.358 . S
C404 H407 0.930 . S
C405 C402 1.348 . S
C405 C403 1.356 . S
H406 C400 0.930 . S
H407 C404 0.930 . S
C408 C410 1.348 . S
C408 C411 1.356 . S
C408 O438 1.325 . S
N409 C412 1.314 . S
N409 C413 1.279 . S
C410 C408 1.348 . S
C410 C412 1.353 . S
C410 H452 0.929 . S
C411 C408 1.356 . S
C411 C413 1.358 . S
C411 H453 0.930 . S
C412 N409 1.314 . S
C412 C410 1.353 . S
C412 H454 0.930 . S
C413 N409 1.279 . S
C413 C411 1.358 . S
C413 H455 0.930 . S
C414 C415 1.348 . S
C414 C416 1.356 . S
C414 O439 1.325 . S
C415 C414 1.348 . S
C415 C417 1.353 . S
C415 H456 0.929 . S
C416 C414 1.356 . S
C416 C418 1.358 . S
C416 H457 0.930 . S
C417 C415 1.353 . S
C417 N419 1.314 . S
C417 H458 0.930 . S
C418 C416 1.358 . S
C418 N419 1.279 . S
C418 H459 0.930 . S
N419 C417 1.314 . S
N419 C418 1.279 . S
C420 C422 1.353 . S
C420 N423 1.314 . S
C420 H426 0.930 . S
C421 N423 1.279 . S
C421 C424 1.358 . S
C421 H427 0.930 . S
C422 C420 1.353 . S
C422 C425 1.348 . S
C422 H460 0.929 . S
N423 Li378 1.990 . S
N423 C420 1.314 . S
N423 C421 1.279 . S
C424 C421 1.358 . S
C424 C425 1.356 . S
C424 H461 0.930 . S
C425 C422 1.348 . S
C425 C424 1.356 . S
H426 C420 0.930 . S
H427 C421 0.930 . S
C428 N429 1.314 . S
C428 C430 1.353 . S
C428 H434 0.930 . S
N429 Li379 1.990 . S
N429 C428 1.314 . S
N429 C432 1.279 . S
C430 C428 1.353 . S
C430 C433 1.348 . S
C430 H462 0.929 . S
C431 C432 1.358 . S
C431 C433 1.356 . S
C431 H463 0.930 . S
C432 N429 1.279 . S
C432 C431 1.358 . S
C432 H435 0.930 . S
C433 C430 1.348 . S
C433 C431 1.356 . S
H434 C428 0.930 . S
H435 C432 0.930 . S
O436 Li376 1.956 . S
O436 Li377 1.970 . S
O436 Li378 1.961 . S
O436 C380 1.325 . S
O437 Li376 1.970 . S
O437 Li377 1.956 . S
O437 Li379 1.961 . S
O437 C386 1.325 . S
O438 Li376 1.961 . S
O438 Li378 1.956 . S
O438 Li379 1.970 . S
O438 C408 1.325 . S
O439 Li377 1.961 . S
O439 Li378 1.970 . S
O439 Li379 1.956 . S
O439 C414 1.325 . S
H440 C382 0.929 . S
H441 C383 0.930 . S
H442 C384 0.930 . S
H443 C385 0.930 . S
H444 C387 0.930 . S
H445 C389 0.929 . S
H446 C390 0.930 . S
H447 C391 0.930 . S
H448 C394 0.930 . S
H449 C397 0.929 . S
H450 C402 0.929 . S
H451 C403 0.930 . S
H452 C410 0.929 . S
H453 C411 0.930 . S
H454 C412 0.930 . S
H455 C413 0.930 . S
H456 C415 0.929 . S
H457 C416 0.930 . S
H458 C417 0.930 . S
H459 C418 0.930 . S
H460 C422 0.929 . S
H461 C424 0.930 . S
H462 C430 0.929 . S
H463 C431 0.930 . S
Li464 N481 1.990 . S
Li464 O524 1.956 . S
Li464 O525 1.970 . S
Li464 O526 1.961 . S
Li465 N489 1.990 . S
Li465 O524 1.970 . S
Li465 O525 1.956 . S
Li465 O527 1.961 . S
Li466 N511 1.990 . S
Li466 O524 1.961 . S
Li466 O526 1.956 . S
Li466 O527 1.970 . S
Li467 N517 1.990 . S
Li467 O525 1.961 . S
Li467 O526 1.970 . S
Li467 O527 1.956 . S
C468 C470 1.348 . S
C468 C471 1.356 . S
C468 O524 1.325 . S
N469 C472 1.314 . S
N469 C473 1.279 . S
C470 C468 1.348 . S
C470 C472 1.353 . S
C470 H528 0.929 . S
C471 C468 1.356 . S
C471 C473 1.358 . S
C471 H529 0.930 . S
C472 N469 1.314 . S
C472 C470 1.353 . S
C472 H530 0.930 . S
C473 N469 1.279 . S
C473 C471 1.358 . S
C473 H531 0.930 . S
C474 C477 1.348 . S
C474 C478 1.356 . S
C474 O525 1.325 . S
C475 N476 1.279 . S
C475 C478 1.358 . S
C475 H532 0.930 . S
N476 C475 1.279 . S
N476 C479 1.314 . S
C477 C474 1.348 . S
C477 C479 1.353 . S
C477 H533 0.929 . S
C478 C474 1.356 . S
C478 C475 1.358 . S
C478 H534 0.930 . S
C479 N476 1.314 . S
C479 C477 1.353 . S
C479 H535 0.930 . S
C480 N481 1.314 . S
C480 C485 1.353 . S
C480 H486 0.930 . S
N481 Li464 1.990 . S
N481 C480 1.314 . S
N481 C483 1.279 . S
C482 C483 1.358 . S
C482 C484 1.356 . S
C482 H536 0.930 . S
C483 N481 1.279 . S
C483 C482 1.358 . S
C483 H487 0.930 . S
C484 C482 1.356 . S
C484 C485 1.348 . S
C485 C480 1.353 . S
C485 C484 1.348 . S
C485 H537 0.929 . S
H486 C480 0.930 . S
H487 C483 0.930 . S
C488 N489 1.314 . S
C488 C490 1.353 . S
C488 H494 0.930 . S
N489 Li465 1.990 . S
N489 C488 1.314 . S
N489 C492 1.279 . S
C490 C488 1.353 . S
C490 C493 1.348 . S
C490 H538 0.929 . S
C491 C492 1.358 . S
C491 C493 1.356 . S
C491 H539 0.930 . S
C492 N489 1.279 . S
C492 C491 1.358 . S
C492 H495 0.930 . S
C493 C490 1.348 . S
C493 C491 1.356 . S
H494 C488 0.930 . S
H495 C492 0.930 . S
C496 C498 1.348 . S
C496 C499 1.356 . S
C496 O526 1.325 . S
N497 C500 1.314 . S
N497 C501 1.279 . S
C498 C496 1.348 . S
C498 C500 1.353 . S
C498 H540 0.929 . S
C499 C496 1.356 . S
C499 C501 1.358 . S
C499 H541 0.930 . S
C500 N497 1.314 . S
C500 C498 1.353 . S
C500 H542 0.930 . S
C501 N497 1.279 . S
C501 C499 1.358 . S
C501 H543 0.930 . S
C502 C503 1.348 . S
C502 C504 1.356 . S
C502 O527 1.325 . S
C503 C502 1.348 . S
C503 C505 1.353 . S
C503 H544 0.929 . S
C504 C502 1.356 . S
C504 C506 1.358 . S
C504 H545 0.930 . S
C505 C503 1.353 . S
C505 N507 1.314 . S
C505 H546 0.930 . S
C506 C504 1.358 . S
C506 N507 1.279 . S
C506 H547 0.930 . S
N507 C505 1.314 . S
N507 C506 1.279 . S
C508 C510 1.353 . S
C508 N511 1.314 . S
C508 H514 0.930 . S
C509 N511 1.279 . S
C509 C512 1.358 . S
C509 H515 0.930 . S
C510 C508 1.353 . S
C510 C513 1.348 . S
C510 H548 0.929 . S
N511 Li466 1.990 . S
N511 C508 1.314 . S
N511 C509 1.279 . S
C512 C509 1.358 . S
C512 C513 1.356 . S
C512 H549 0.930 . S
C513 C510 1.348 . S
C513 C512 1.356 . S
H514 C508 0.930 . S
H515 C509 0.930 . S
C516 N517 1.314 . S
C516 C518 1.353 . S
C516 H522 0.930 . S
N517 Li467 1.990 . S
N517 C516 1.314 . S
N517 C520 1.279 . S
C518 C516 1.353 . S
C518 C521 1.348 . S
C518 H550 0.929 . S
C519 C520 1.358 . S
C519 C521 1.356 . S
C519 H551 0.930 . S
C520 N517 1.279 . S
C520 C519 1.358 . S
C520 H523 0.930 . S
C521 C518 1.348 . S
C521 C519 1.356 . S
H522 C516 0.930 . S
H523 C520 0.930 . S
O524 Li464 1.956 . S
O524 Li465 1.970 . S
O524 Li466 1.961 . S
O524 C468 1.325 . S
O525 Li464 1.970 . S
O525 Li465 1.956 . S
O525 Li467 1.961 . S
O525 C474 1.325 . S
O526 Li464 1.961 . S
O526 Li466 1.956 . S
O526 Li467 1.970 . S
O526 C496 1.325 . S
O527 Li465 1.961 . S
O527 Li466 1.970 . S
O527 Li467 1.956 . S
O527 C502 1.325 . S
H528 C470 0.929 . S
H529 C471 0.930 . S
H530 C472 0.930 . S
H531 C473 0.930 . S
H532 C475 0.930 . S
H533 C477 0.929 . S
H534 C478 0.930 . S
H535 C479 0.930 . S
H536 C482 0.930 . S
H537 C485 0.929 . S
H538 C490 0.929 . S
H539 C491 0.930 . S
H540 C498 0.929 . S
H541 C499 0.930 . S
H542 C500 0.930 . S
H543 C501 0.930 . S
H544 C503 0.929 . S
H545 C504 0.930 . S
H546 C505 0.930 . S
H547 C506 0.930 . S
H548 C510 0.929 . S
H549 C512 0.930 . S
H550 C518 0.929 . S
H551 C519 0.930 . S
Li552 N569 1.990 . S
Li552 O612 1.956 . S
Li552 O613 1.970 . S
Li552 O614 1.961 . S
Li553 N577 1.990 . S
Li553 O612 1.970 . S
Li553 O613 1.956 . S
Li553 O615 1.961 . S
Li554 N599 1.990 . S
Li554 O612 1.961 . S
Li554 O614 1.956 . S
Li554 O615 1.970 . S
Li555 N605 1.990 . S
Li555 O613 1.961 . S
Li555 O614 1.970 . S
Li555 O615 1.956 . S
C556 C558 1.348 . S
C556 C559 1.356 . S
C556 O612 1.325 . S
N557 C560 1.314 . S
N557 C561 1.279 . S
C558 C556 1.348 . S
C558 C560 1.353 . S
C558 H616 0.929 . S
C559 C556 1.356 . S
C559 C561 1.358 . S
C559 H617 0.930 . S
C560 N557 1.314 . S
C560 C558 1.353 . S
C560 H618 0.930 . S
C561 N557 1.279 . S
C561 C559 1.358 . S
C561 H619 0.930 . S
C562 C565 1.348 . S
C562 C566 1.356 . S
C562 O613 1.325 . S
C563 N564 1.279 . S
C563 C566 1.358 . S
C563 H620 0.930 . S
N564 C563 1.279 . S
N564 C567 1.314 . S
C565 C562 1.348 . S
C565 C567 1.353 . S
C565 H621 0.929 . S
C566 C562 1.356 . S
C566 C563 1.358 . S
C566 H622 0.930 . S
C567 N564 1.314 . S
C567 C565 1.353 . S
C567 H623 0.930 . S
C568 N569 1.314 . S
C568 C573 1.353 . S
C568 H574 0.930 . S
N569 Li552 1.990 . S
N569 C568 1.314 . S
N569 C571 1.279 . S
C570 C571 1.358 . S
C570 C572 1.356 . S
C570 H624 0.930 1_556 S
C571 N569 1.279 . S
C571 C570 1.358 . S
C571 H575 0.930 . S
C572 C570 1.356 . S
C572 C573 1.348 . S
C573 C568 1.353 . S
C573 C572 1.348 . S
C573 H625 0.929 . S
H574 C568 0.930 . S
H575 C571 0.930 . S
C576 N577 1.314 . S
C576 C578 1.353 . S
C576 H582 0.930 . S
N577 Li553 1.990 . S
N577 C576 1.314 . S
N577 C580 1.279 . S
C578 C576 1.353 . S
C578 C581 1.348 . S
C578 H626 0.929 . S
C579 C580 1.358 . S
C579 C581 1.356 . S
C579 H627 0.930 . S
C580 N577 1.279 . S
C580 C579 1.358 . S
C580 H583 0.930 . S
C581 C578 1.348 . S
C581 C579 1.356 . S
H582 C576 0.930 . S
H583 C580 0.930 . S
C584 C586 1.348 . S
C584 C587 1.356 . S
C584 O614 1.325 . S
N585 C588 1.314 . S
N585 C589 1.279 . S
C586 C584 1.348 . S
C586 C588 1.353 . S
C586 H628 0.929 . S
C587 C584 1.356 . S
C587 C589 1.358 . S
C587 H629 0.930 . S
C588 N585 1.314 . S
C588 C586 1.353 . S
C588 H630 0.930 . S
C589 N585 1.279 . S
C589 C587 1.358 . S
C589 H631 0.930 . S
C590 C591 1.348 . S
C590 C592 1.356 . S
C590 O615 1.325 . S
C591 C590 1.348 . S
C591 C593 1.353 . S
C591 H632 0.929 . S
C592 C590 1.356 . S
C592 C594 1.358 . S
C592 H633 0.930 . S
C593 C591 1.353 . S
C593 N595 1.314 . S
C593 H634 0.930 . S
C594 C592 1.358 . S
C594 N595 1.279 . S
C594 H635 0.930 . S
N595 C593 1.314 . S
N595 C594 1.279 . S
C596 C598 1.353 . S
C596 N599 1.314 . S
C596 H602 0.930 . S
C597 N599 1.279 . S
C597 C600 1.358 . S
C597 H603 0.930 . S
C598 C596 1.353 . S
C598 C601 1.348 . S
C598 H636 0.929 . S
N599 Li554 1.990 . S
N599 C596 1.314 . S
N599 C597 1.279 . S
C600 C597 1.358 . S
C600 C601 1.356 . S
C600 H637 0.930 . S
C601 C598 1.348 . S
C601 C600 1.356 . S
H602 C596 0.930 . S
H603 C597 0.930 . S
C604 N605 1.314 . S
C604 C606 1.353 . S
C604 H610 0.930 . S
N605 Li555 1.990 . S
N605 C604 1.314 . S
N605 C608 1.279 . S
C606 C604 1.353 . S
C606 C609 1.348 . S
C606 H638 0.929 . S
C607 C608 1.358 . S
C607 C609 1.356 . S
C607 H639 0.930 . S
C608 N605 1.279 . S
C608 C607 1.358 . S
C608 H611 0.930 . S
C609 C606 1.348 . S
C609 C607 1.356 . S
H610 C604 0.930 . S
H611 C608 0.930 . S
O612 Li552 1.956 . S
O612 Li553 1.970 . S
O612 Li554 1.961 . S
O612 C556 1.325 . S
O613 Li552 1.970 . S
O613 Li553 1.956 . S
O613 Li555 1.961 . S
O613 C562 1.325 . S
O614 Li552 1.961 . S
O614 Li554 1.956 . S
O614 Li555 1.970 . S
O614 C584 1.325 . S
O615 Li553 1.961 . S
O615 Li554 1.970 . S
O615 Li555 1.956 . S
O615 C590 1.325 . S
H616 C558 0.929 . S
H617 C559 0.930 . S
H618 C560 0.930 . S
H619 C561 0.930 . S
H620 C563 0.930 . S
H621 C565 0.929 . S
H622 C566 0.930 . S
H623 C567 0.930 . S
H624 C570 0.930 1_554 S
H625 C573 0.929 . S
H626 C578 0.929 . S
H627 C579 0.930 . S
H628 C586 0.929 . S
H629 C587 0.930 . S
H630 C588 0.930 . S
H631 C589 0.930 . S
H632 C591 0.929 . S
H633 C592 0.930 . S
H634 C593 0.930 . S
H635 C594 0.930 . S
H636 C598 0.929 . S
H637 C600 0.930 . S
H638 C606 0.929 . S
H639 C607 0.930 . S
Li640 N657 1.990 . S
Li640 O700 1.956 . S
Li640 O701 1.970 . S
Li640 O702 1.961 . S
Li641 N665 1.990 . S
Li641 O700 1.970 . S
Li641 O701 1.956 . S
Li641 O703 1.961 . S
Li642 N687 1.990 . S
Li642 O700 1.961 . S
Li642 O702 1.956 . S
Li642 O703 1.970 . S
Li643 N693 1.990 . S
Li643 O701 1.961 . S
Li643 O702 1.970 . S
Li643 O703 1.956 . S
C644 C646 1.348 . S
C644 C647 1.356 . S
C644 O700 1.325 . S
N645 C648 1.314 . S
N645 C649 1.279 . S
C646 C644 1.348 . S
C646 C648 1.353 . S
C646 H704 0.929 . S
C647 C644 1.356 . S
C647 C649 1.358 . S
C647 H705 0.930 . S
C648 N645 1.314 . S
C648 C646 1.353 . S
C648 H706 0.930 . S
C649 N645 1.279 . S
C649 C647 1.358 . S
C649 H707 0.930 . S
C650 C653 1.348 . S
C650 C654 1.356 . S
C650 O701 1.325 . S
C651 N652 1.279 . S
C651 C654 1.358 . S
C651 H708 0.930 . S
N652 C651 1.279 . S
N652 C655 1.314 . S
C653 C650 1.348 . S
C653 C655 1.353 . S
C653 H709 0.929 . S
C654 C650 1.356 . S
C654 C651 1.358 . S
C654 H710 0.930 . S
C655 N652 1.314 . S
C655 C653 1.353 . S
C655 H711 0.930 . S
C656 N657 1.314 . S
C656 C661 1.353 . S
C656 H662 0.930 . S
N657 Li640 1.990 . S
N657 C656 1.314 . S
N657 C659 1.279 . S
C658 C659 1.358 . S
C658 C660 1.356 . S
C658 H712 0.930 . S
C659 N657 1.279 . S
C659 C658 1.358 . S
C659 H663 0.930 . S
C660 C658 1.356 . S
C660 C661 1.348 . S
C661 C656 1.353 . S
C661 C660 1.348 . S
C661 H713 0.929 . S
H662 C656 0.930 . S
H663 C659 0.930 . S
C664 N665 1.314 . S
C664 C666 1.353 . S
C664 H670 0.930 . S
N665 Li641 1.990 . S
N665 C664 1.314 . S
N665 C668 1.279 . S
C666 C664 1.353 . S
C666 C669 1.348 . S
C666 H714 0.929 . S
C667 C668 1.358 . S
C667 C669 1.356 . S
C667 H715 0.930 . S
C668 N665 1.279 . S
C668 C667 1.358 . S
C668 H671 0.930 . S
C669 C666 1.348 . S
C669 C667 1.356 . S
H670 C664 0.930 . S
H671 C668 0.930 . S
C672 C674 1.348 . S
C672 C675 1.356 . S
C672 O702 1.325 . S
N673 C676 1.314 . S
N673 C677 1.279 . S
C674 C672 1.348 . S
C674 C676 1.353 . S
C674 H716 0.929 . S
C675 C672 1.356 . S
C675 C677 1.358 . S
C675 H717 0.930 . S
C676 N673 1.314 . S
C676 C674 1.353 . S
C676 H718 0.930 . S
C677 N673 1.279 . S
C677 C675 1.358 . S
C677 H719 0.930 . S
C678 C679 1.348 . S
C678 C680 1.356 . S
C678 O703 1.325 . S
C679 C678 1.348 . S
C679 C681 1.353 . S
C679 H720 0.929 . S
C680 C678 1.356 . S
C680 C682 1.358 . S
C680 H721 0.930 . S
C681 C679 1.353 . S
C681 N683 1.314 . S
C681 H722 0.930 . S
C682 C680 1.358 . S
C682 N683 1.279 . S
C682 H723 0.930 . S
N683 C681 1.314 . S
N683 C682 1.279 . S
C684 C686 1.353 . S
C684 N687 1.314 . S
C684 H690 0.930 . S
C685 N687 1.279 . S
C685 C688 1.358 . S
C685 H691 0.930 . S
C686 C684 1.353 . S
C686 C689 1.348 . S
C686 H724 0.929 . S
N687 Li642 1.990 . S
N687 C684 1.314 . S
N687 C685 1.279 . S
C688 C685 1.358 . S
C688 C689 1.356 . S
C688 H725 0.930 1_554 S
C689 C686 1.348 . S
C689 C688 1.356 . S
H690 C684 0.930 . S
H691 C685 0.930 . S
C692 N693 1.314 . S
C692 C694 1.353 . S
C692 H698 0.930 . S
N693 Li643 1.990 . S
N693 C692 1.314 . S
N693 C696 1.279 . S
C694 C692 1.353 . S
C694 C697 1.348 . S
C694 H726 0.929 . S
C695 C696 1.358 . S
C695 C697 1.356 . S
C695 H727 0.930 . S
C696 N693 1.279 . S
C696 C695 1.358 . S
C696 H699 0.930 . S
C697 C694 1.348 . S
C697 C695 1.356 . S
H698 C692 0.930 . S
H699 C696 0.930 . S
O700 Li640 1.956 . S
O700 Li641 1.970 . S
O700 Li642 1.961 . S
O700 C644 1.325 . S
O701 Li640 1.970 . S
O701 Li641 1.956 . S
O701 Li643 1.961 . S
O701 C650 1.325 . S
O702 Li640 1.961 . S
O702 Li642 1.956 . S
O702 Li643 1.970 . S
O702 C672 1.325 . S
O703 Li641 1.961 . S
O703 Li642 1.970 . S
O703 Li643 1.956 . S
O703 C678 1.325 . S
H704 C646 0.929 . S
H705 C647 0.930 . S
H706 C648 0.930 . S
H707 C649 0.930 . S
H708 C651 0.930 . S
H709 C653 0.929 . S
H710 C654 0.930 . S
H711 C655 0.930 . S
H712 C658 0.930 . S
H713 C661 0.929 . S
H714 C666 0.929 . S
H715 C667 0.930 . S
H716 C674 0.929 . S
H717 C675 0.930 . S
H718 C676 0.930 . S
H719 C677 0.930 . S
H720 C679 0.929 . S
H721 C680 0.930 . S
H722 C681 0.930 . S
H723 C682 0.930 . S
H724 C686 0.929 . S
H725 C688 0.930 1_556 S
H726 C694 0.929 . S
H727 C695 0.930 . S
Li728 N745 1.990 . S
Li728 O788 1.956 . S
Li728 O789 1.970 . S
Li728 O790 1.961 . S
Li729 N753 1.990 . S
Li729 O788 1.970 . S
Li729 O789 1.956 . S
Li729 O791 1.961 . S
Li730 N775 1.990 . S
Li730 O788 1.961 . S
Li730 O790 1.956 . S
Li730 O791 1.970 . S
Li731 N781 1.990 . S
Li731 O789 1.961 . S
Li731 O790 1.970 . S
Li731 O791 1.956 . S
C732 C734 1.348 . S
C732 C735 1.356 . S
C732 O788 1.325 . S
N733 C736 1.314 . S
N733 C737 1.279 . S
C734 C732 1.348 . S
C734 C736 1.353 . S
C734 H792 0.929 . S
C735 C732 1.356 . S
C735 C737 1.358 . S
C735 H793 0.930 . S
C736 N733 1.314 . S
C736 C734 1.353 . S
C736 H794 0.930 . S
C737 N733 1.279 . S
C737 C735 1.358 . S
C737 H795 0.930 . S
C738 C741 1.348 . S
C738 C742 1.356 . S
C738 O789 1.325 . S
C739 N740 1.279 . S
C739 C742 1.358 . S
C739 H796 0.930 . S
N740 C739 1.279 . S
N740 C743 1.314 . S
C741 C738 1.348 . S
C741 C743 1.353 . S
C741 H797 0.929 . S
C742 C738 1.356 . S
C742 C739 1.358 . S
C742 H798 0.930 . S
C743 N740 1.314 . S
C743 C741 1.353 . S
C743 H799 0.930 . S
C744 N745 1.314 . S
C744 C749 1.353 . S
C744 H750 0.930 . S
N745 Li728 1.990 . S
N745 C744 1.314 . S
N745 C747 1.279 . S
C746 C747 1.358 . S
C746 C748 1.356 . S
C746 H800 0.930 . S
C747 N745 1.279 . S
C747 C746 1.358 . S
C747 H751 0.930 . S
C748 C746 1.356 . S
C748 C749 1.348 . S
C749 C744 1.353 . S
C749 C748 1.348 . S
C749 H801 0.929 . S
H750 C744 0.930 . S
H751 C747 0.930 . S
C752 N753 1.314 . S
C752 C754 1.353 . S
C752 H758 0.930 . S
N753 Li729 1.990 . S
N753 C752 1.314 . S
N753 C756 1.279 . S
C754 C752 1.353 . S
C754 C757 1.348 . S
C754 H802 0.929 . S
C755 C756 1.358 . S
C755 C757 1.356 . S
C755 H803 0.930 . S
C756 N753 1.279 . S
C756 C755 1.358 . S
C756 H759 0.930 . S
C757 C754 1.348 . S
C757 C755 1.356 . S
H758 C752 0.930 . S
H759 C756 0.930 . S
C760 C762 1.348 . S
C760 C763 1.356 . S
C760 O790 1.325 . S
N761 C764 1.314 . S
N761 C765 1.279 . S
C762 C760 1.348 . S
C762 C764 1.353 . S
C762 H804 0.929 . S
C763 C760 1.356 . S
C763 C765 1.358 . S
C763 H805 0.930 . S
C764 N761 1.314 . S
C764 C762 1.353 . S
C764 H806 0.930 . S
C765 N761 1.279 . S
C765 C763 1.358 . S
C765 H807 0.930 . S
C766 C767 1.348 . S
C766 C768 1.356 . S
C766 O791 1.325 . S
C767 C766 1.348 . S
C767 C769 1.353 . S
C767 H808 0.929 . S
C768 C766 1.356 . S
C768 C770 1.358 . S
C768 H809 0.930 . S
C769 C767 1.353 . S
C769 N771 1.314 . S
C769 H810 0.930 . S
C770 C768 1.358 . S
C770 N771 1.279 . S
C770 H811 0.930 . S
N771 C769 1.314 . S
N771 C770 1.279 . S
C772 C774 1.353 . S
C772 N775 1.314 . S
C772 H778 0.930 . S
C773 N775 1.279 . S
C773 C776 1.358 . S
C773 H779 0.930 . S
C774 C772 1.353 . S
C774 C777 1.348 . S
C774 H812 0.929 . S
N775 Li730 1.990 . S
N775 C772 1.314 . S
N775 C773 1.279 . S
C776 C773 1.358 . S
C776 C777 1.356 . S
C776 H813 0.930 . S
C777 C774 1.348 . S
C777 C776 1.356 . S
H778 C772 0.930 . S
H779 C773 0.930 . S
C780 N781 1.314 . S
C780 C782 1.353 . S
C780 H786 0.930 . S
N781 Li731 1.990 . S
N781 C780 1.314 . S
N781 C784 1.279 . S
C782 C780 1.353 . S
C782 C785 1.348 . S
C782 H814 0.929 . S
C783 C784 1.358 . S
C783 C785 1.356 . S
C783 H815 0.930 . S
C784 N781 1.279 . S
C784 C783 1.358 . S
C784 H787 0.930 . S
C785 C782 1.348 . S
C785 C783 1.356 . S
H786 C780 0.930 . S
H787 C784 0.930 . S
O788 Li728 1.956 . S
O788 Li729 1.970 . S
O788 Li730 1.961 . S
O788 C732 1.325 . S
O789 Li728 1.970 . S
O789 Li729 1.956 . S
O789 Li731 1.961 . S
O789 C738 1.325 . S
O790 Li728 1.961 . S
O790 Li730 1.956 . S
O790 Li731 1.970 . S
O790 C760 1.325 . S
O791 Li729 1.961 . S
O791 Li730 1.970 . S
O791 Li731 1.956 . S
O791 C766 1.325 . S
H792 C734 0.929 . S
H793 C735 0.930 . S
H794 C736 0.930 . S
H795 C737 0.930 . S
H796 C739 0.930 . S
H797 C741 0.929 . S
H798 C742 0.930 . S
H799 C743 0.930 . S
H800 C746 0.930 . S
H801 C749 0.929 . S
H802 C754 0.929 . S
H803 C755 0.930 . S
H804 C762 0.929 . S
H805 C763 0.930 . S
H806 C764 0.930 . S
H807 C765 0.930 . S
H808 C767 0.929 . S
H809 C768 0.930 . S
H810 C769 0.930 . S
H811 C770 0.930 . S
H812 C774 0.929 . S
H813 C776 0.930 . S
H814 C782 0.929 . S
H815 C783 0.930 . S
H816 C822 0.930 . S
H817 C826 0.930 . S
H818 C831 0.929 . S
H819 C829 0.929 . S
H820 C824 0.929 . S
H821 C830 0.929 . S
C822 H816 0.930 . S
C822 C823 1.367 . S
C822 C830 1.378 . S
C823 C822 1.367 . S
C823 C831 1.433 . S
C824 H820 0.929 . S
C824 C826 1.378 . S
C824 C828 1.350 . S
C825 C828 1.463 . S
C825 C830 1.350 . S
C825 N833 1.427 . S
C826 H817 0.930 . S
C826 C824 1.378 . S
C826 C827 1.367 . S
C827 C826 1.367 . S
C827 C829 1.433 . S
C828 C824 1.350 . S
C828 C825 1.463 . S
C828 N832 1.427 . S
C829 H819 0.929 . S
C829 C827 1.433 . S
C829 N832 1.384 . S
C830 H821 0.929 . S
C830 C822 1.378 . S
C830 C825 1.350 . S
C831 H818 0.929 . S
C831 C823 1.433 . S
C831 N833 1.384 . S
N832 C828 1.427 . S
N832 C829 1.384 . S
N833 C825 1.427 . S
N833 C831 1.384 . S
H834 C840 0.930 . S
H835 C844 0.930 . S
H836 C849 0.929 . S
H837 C847 0.929 . S
H838 C842 0.929 . S
H839 C848 0.929 . S
C840 H834 0.930 . S
C840 C841 1.367 . S
C840 C848 1.378 . S
C841 C840 1.367 . S
C841 C849 1.433 . S
C842 H838 0.929 . S
C842 C844 1.378 . S
C842 C846 1.350 . S
C843 C846 1.463 . S
C843 C848 1.350 . S
C843 N851 1.427 . S
C844 H835 0.930 . S
C844 C842 1.378 . S
C844 C845 1.367 . S
C845 C844 1.367 . S
C845 C847 1.433 . S
C846 C842 1.350 . S
C846 C843 1.463 . S
C846 N850 1.427 . S
C847 H837 0.929 . S
C847 C845 1.433 . S
C847 N850 1.384 . S
C848 H839 0.929 . S
C848 C840 1.378 . S
C848 C843 1.350 . S
C849 H836 0.929 . S
C849 C841 1.433 . S
C849 N851 1.384 . S
N850 C846 1.427 . S
N850 C847 1.384 . S
N851 C843 1.427 . S
N851 C849 1.384 . S
H852 C858 0.930 . S
H853 C862 0.930 . S
H854 C867 0.929 . S
H855 C865 0.929 . S
H856 C860 0.929 . S
H857 C866 0.929 . S
C858 H852 0.930 . S
C858 C859 1.367 . S
C858 C866 1.378 . S
C859 C858 1.367 . S
C859 C867 1.433 . S
C860 H856 0.929 . S
C860 C862 1.378 . S
C860 C864 1.350 . S
C861 C864 1.463 . S
C861 C866 1.350 . S
C861 N869 1.427 . S
C862 H853 0.930 . S
C862 C860 1.378 . S
C862 C863 1.367 . S
C863 C862 1.367 . S
C863 C865 1.433 . S
C864 C860 1.350 . S
C864 C861 1.463 . S
C864 N868 1.427 . S
C865 H855 0.929 . S
C865 C863 1.433 . S
C865 N868 1.384 . S
C866 H857 0.929 . S
C866 C858 1.378 . S
C866 C861 1.350 . S
C867 H854 0.929 . S
C867 C859 1.433 . S
C867 N869 1.384 . S
N868 C864 1.427 . S
N868 C865 1.384 . S
N869 C861 1.427 . S
N869 C867 1.384 . S
H870 C876 0.930 . S
H871 C880 0.930 . S
H872 C885 0.929 . S
H873 C883 0.929 . S
H874 C878 0.929 . S
H875 C884 0.929 . S
C876 H870 0.930 . S
C876 C877 1.367 . S
C876 C884 1.378 . S
C877 C876 1.367 . S
C877 C885 1.433 . S
C878 H874 0.929 . S
C878 C880 1.378 . S
C878 C882 1.350 . S
C879 C882 1.463 . S
C879 C884 1.350 . S
C879 N887 1.427 . S
C880 H871 0.930 . S
C880 C878 1.378 . S
C880 C881 1.367 . S
C881 C880 1.367 . S
C881 C883 1.433 . S
C882 C878 1.350 . S
C882 C879 1.463 . S
C882 N886 1.427 . S
C883 H873 0.929 . S
C883 C881 1.433 . S
C883 N886 1.384 . S
C884 H875 0.929 . S
C884 C876 1.378 . S
C884 C879 1.350 . S
C885 H872 0.929 . S
C885 C877 1.433 . S
C885 N887 1.384 . S
N886 C882 1.427 . S
N886 C883 1.384 . S
N887 C879 1.427 . S
N887 C885 1.384 . S
H888 C894 0.930 . S
H889 C898 0.930 . S
H890 C903 0.929 . S
H891 C901 0.929 . S
H892 C896 0.929 . S
H893 C902 0.929 . S
C894 H888 0.930 . S
C894 C895 1.367 . S
C894 C902 1.378 . S
C895 C894 1.367 . S
C895 C903 1.433 . S
C896 H892 0.929 . S
C896 C898 1.378 . S
C896 C900 1.350 . S
C897 C900 1.463 . S
C897 C902 1.350 . S
C897 N905 1.427 . S
C898 H889 0.930 . S
C898 C896 1.378 . S
C898 C899 1.367 . S
C899 C898 1.367 . S
C899 C901 1.433 . S
C900 C896 1.350 . S
C900 C897 1.463 . S
C900 N904 1.427 . S
C901 H891 0.929 . S
C901 C899 1.433 . S
C901 N904 1.384 . S
C902 H893 0.929 . S
C902 C894 1.378 . S
C902 C897 1.350 . S
C903 H890 0.929 . S
C903 C895 1.433 . S
C903 N905 1.384 . S
N904 C900 1.427 . S
N904 C901 1.384 . S
N905 C897 1.427 . S
N905 C903 1.384 . S
H906 C912 0.930 . S
H907 C916 0.930 . S
H908 C921 0.929 . S
H909 C919 0.929 . S
H910 C914 0.929 . S
H911 C920 0.929 . S
C912 H906 0.930 . S
C912 C913 1.367 . S
C912 C920 1.378 . S
C913 C912 1.367 . S
C913 C921 1.433 . S
C914 H910 0.929 . S
C914 C916 1.378 . S
C914 C918 1.350 . S
C915 C918 1.463 . S
C915 C920 1.350 . S
C915 N923 1.427 . S
C916 H907 0.930 . S
C916 C914 1.378 . S
C916 C917 1.367 . S
C917 C916 1.367 . S
C917 C919 1.433 . S
C918 C914 1.350 . S
C918 C915 1.463 . S
C918 N922 1.427 . S
C919 H909 0.929 . S
C919 C917 1.433 . S
C919 N922 1.384 . S
C920 H911 0.929 . S
C920 C912 1.378 . S
C920 C915 1.350 . S
C921 H908 0.929 . S
C921 C913 1.433 . S
C921 N923 1.384 . S
N922 C918 1.427 . S
N922 C919 1.384 . S
N923 C915 1.427 . S
N923 C921 1.384 . S
H924 C930 0.930 . S
H925 C934 0.930 . S
H926 C939 0.929 . S
H927 C937 0.929 . S
H928 C932 0.929 . S
H929 C938 0.929 . S
C930 H924 0.930 . S
C930 C931 1.367 . S
C930 C938 1.378 . S
C931 C930 1.367 . S
C931 C939 1.433 . S
C932 H928 0.929 . S
C932 C934 1.378 . S
C932 C936 1.350 . S
C933 C936 1.463 . S
C933 C938 1.350 . S
C933 N941 1.427 . S
C934 H925 0.930 . S
C934 C932 1.378 . S
C934 C935 1.367 . S
C935 C934 1.367 . S
C935 C937 1.433 . S
C936 C932 1.350 . S
C936 C933 1.463 . S
C936 N940 1.427 . S
C937 H927 0.929 . S
C937 C935 1.433 . S
C937 N940 1.384 . S
C938 H929 0.929 . S
C938 C930 1.378 . S
C938 C933 1.350 . S
C939 H926 0.929 . S
C939 C931 1.433 . S
C939 N941 1.384 . S
N940 C936 1.427 . S
N940 C937 1.384 . S
N941 C933 1.427 . S
N941 C939 1.384 . S
H942 C948 0.930 . S
H943 C952 0.930 . S
H944 C957 0.929 . S
H945 C955 0.929 . S
H946 C950 0.929 . S
H947 C956 0.929 . S
C948 H942 0.930 . S
C948 C949 1.367 . S
C948 C956 1.378 . S
C949 C948 1.367 . S
C949 C957 1.433 . S
C950 H946 0.929 . S
C950 C952 1.378 . S
C950 C954 1.350 . S
C951 C954 1.463 . S
C951 C956 1.350 . S
C951 N959 1.427 . S
C952 H943 0.930 . S
C952 C950 1.378 . S
C952 C953 1.367 . S
C953 C952 1.367 . S
C953 C955 1.433 . S
C954 C950 1.350 . S
C954 C951 1.463 . S
C954 N958 1.427 . S
C955 H945 0.929 . S
C955 C953 1.433 . S
C955 N958 1.384 . S
C956 H947 0.929 . S
C956 C948 1.378 . S
C956 C951 1.350 . S
C957 H944 0.929 . S
C957 C949 1.433 . S
C957 N959 1.384 . S
N958 C954 1.427 . S
N958 C955 1.384 . S
N959 C951 1.427 . S
N959 C957 1.384 . S
H960 C966 0.930 . S
H961 C970 0.930 . S
H962 C975 0.929 . S
H963 C973 0.929 . S
H964 C968 0.929 . S
H965 C974 0.929 . S
C966 H960 0.930 . S
C966 C967 1.367 . S
C966 C974 1.378 . S
C967 C966 1.367 . S
C967 C975 1.433 . S
C968 H964 0.929 . S
C968 C970 1.378 . S
C968 C972 1.350 . S
C969 C972 1.463 . S
C969 C974 1.350 . S
C969 N977 1.427 . S
C970 H961 0.930 . S
C970 C968 1.378 . S
C970 C971 1.367 . S
C971 C970 1.367 . S
C971 C973 1.433 . S
C972 C968 1.350 . S
C972 C969 1.463 . S
C972 N976 1.427 . S
C973 H963 0.929 . S
C973 C971 1.433 . S
C973 N976 1.384 . S
C974 H965 0.929 . S
C974 C966 1.378 . S
C974 C969 1.350 . S
C975 H962 0.929 . S
C975 C967 1.433 . S
C975 N977 1.384 . S
N976 C972 1.427 . S
N976 C973 1.384 . S
N977 C969 1.427 . S
N977 C975 1.384 . S
H978 C984 0.930 1_556 S
H979 C988 0.930 . S
H980 C993 0.929 . S
H981 C991 0.929 . S
H982 C986 0.929 . S
H983 C992 0.929 . S
C984 H978 0.930 1_554 S
C984 C985 1.367 . S
C984 C992 1.378 . S
C985 C984 1.367 . S
C985 C993 1.433 . S
C986 H982 0.929 . S
C986 C988 1.378 . S
C986 C990 1.350 . S
C987 C990 1.463 . S
C987 C992 1.350 . S
C987 N995 1.427 . S
C988 H979 0.930 . S
C988 C986 1.378 . S
C988 C989 1.367 . S
C989 C988 1.367 . S
C989 C991 1.433 . S
C990 C986 1.350 . S
C990 C987 1.463 . S
C990 N994 1.427 . S
C991 H981 0.929 . S
C991 C989 1.433 . S
C991 N994 1.384 . S
C992 H983 0.929 . S
C992 C984 1.378 . S
C992 C987 1.350 . S
C993 H980 0.929 . S
C993 C985 1.433 . S
C993 N995 1.384 . S
N994 C990 1.427 . S
N994 C991 1.384 . S
N995 C987 1.427 . S
N995 C993 1.384 . S
H996 C1002 0.930 . S
H997 C1006 0.930 . S
H998 C1011 0.929 . S
H999 C1009 0.929 . S
H1000 C1004 0.929 . S
H1001 C1010 0.929 . S
C1002 H996 0.930 . S
C1002 C1003 1.367 . S
C1002 C1010 1.378 . S
C1003 C1002 1.367 . S
C1003 C1011 1.433 . S
C1004 H1000 0.929 . S
C1004 C1006 1.378 . S
C1004 C1008 1.350 . S
C1005 C1008 1.463 . S
C1005 C1010 1.350 . S
C1005 N1013 1.427 . S
C1006 H997 0.930 . S
C1006 C1004 1.378 . S
C1006 C1007 1.367 . S
C1007 C1006 1.367 . S
C1007 C1009 1.433 . S
C1008 C1004 1.350 . S
C1008 C1005 1.463 . S
C1008 N1012 1.427 . S
C1009 H999 0.929 . S
C1009 C1007 1.433 . S
C1009 N1012 1.384 . S
C1010 H1001 0.929 . S
C1010 C1002 1.378 . S
C1010 C1005 1.350 . S
C1011 H998 0.929 . S
C1011 C1003 1.433 . S
C1011 N1013 1.384 . S
N1012 C1008 1.427 . S
N1012 C1009 1.384 . S
N1013 C1005 1.427 . S
N1013 C1011 1.384 . S
H1014 C1020 0.930 . S
H1015 C1024 0.930 . S
H1016 C1029 0.929 . S
H1017 C1027 0.929 . S
H1018 C1022 0.929 . S
H1019 C1028 0.929 . S
C1020 H1014 0.930 . S
C1020 C1021 1.367 . S
C1020 C1028 1.378 . S
C1021 C1020 1.367 . S
C1021 C1029 1.433 . S
C1022 H1018 0.929 . S
C1022 C1024 1.378 . S
C1022 C1026 1.350 . S
C1023 C1026 1.463 . S
C1023 C1028 1.350 . S
C1023 N1031 1.427 . S
C1024 H1015 0.930 . S
C1024 C1022 1.378 . S
C1024 C1025 1.367 . S
C1025 C1024 1.367 . S
C1025 C1027 1.433 . S
C1026 C1022 1.350 . S
C1026 C1023 1.463 . S
C1026 N1030 1.427 . S
C1027 H1017 0.929 . S
C1027 C1025 1.433 . S
C1027 N1030 1.384 . S
C1028 H1019 0.929 . S
C1028 C1020 1.378 . S
C1028 C1023 1.350 . S
C1029 H1016 0.929 . S
C1029 C1021 1.433 . S
C1029 N1031 1.384 . S
N1030 C1026 1.427 . S
N1030 C1027 1.384 . S
N1031 C1023 1.427 . S
N1031 C1029 1.384 . S
H1032 C1038 0.930 . S
H1033 C1042 0.930 . S
H1034 C1047 0.929 . S
H1035 C1045 0.929 . S
H1036 C1040 0.929 . S
H1037 C1046 0.929 . S
C1038 H1032 0.930 . S
C1038 C1039 1.367 . S
C1038 C1046 1.378 . S
C1039 C1038 1.367 . S
C1039 C1047 1.433 . S
C1040 H1036 0.929 . S
C1040 C1042 1.378 . S
C1040 C1044 1.350 . S
C1041 C1044 1.463 . S
C1041 C1046 1.350 . S
C1041 N1049 1.427 . S
C1042 H1033 0.930 . S
C1042 C1040 1.378 . S
C1042 C1043 1.367 . S
C1043 C1042 1.367 . S
C1043 C1045 1.433 . S
C1044 C1040 1.350 . S
C1044 C1041 1.463 . S
C1044 N1048 1.427 . S
C1045 H1035 0.929 . S
C1045 C1043 1.433 . S
C1045 N1048 1.384 . S
C1046 H1037 0.929 . S
C1046 C1038 1.378 . S
C1046 C1041 1.350 . S
C1047 H1034 0.929 . S
C1047 C1039 1.433 . S
C1047 N1049 1.384 . S
N1048 C1044 1.427 . S
N1048 C1045 1.384 . S
N1049 C1041 1.427 . S
N1049 C1047 1.384 . S
H1050 C1056 0.930 . S
H1051 C1060 0.930 . S
H1052 C1065 0.929 . S
H1053 C1063 0.929 . S
H1054 C1058 0.929 . S
H1055 C1064 0.929 . S
C1056 H1050 0.930 . S
C1056 C1057 1.367 . S
C1056 C1064 1.378 . S
C1057 C1056 1.367 . S
C1057 C1065 1.433 . S
C1058 H1054 0.929 . S
C1058 C1060 1.378 . S
C1058 C1062 1.350 . S
C1059 C1062 1.463 . S
C1059 C1064 1.350 . S
C1059 N1067 1.427 . S
C1060 H1051 0.930 . S
C1060 C1058 1.378 . S
C1060 C1061 1.367 . S
C1061 C1060 1.367 . S
C1061 C1063 1.433 . S
C1062 C1058 1.350 . S
C1062 C1059 1.463 . S
C1062 N1066 1.427 . S
C1063 H1053 0.929 . S
C1063 C1061 1.433 . S
C1063 N1066 1.384 . S
C1064 H1055 0.929 . S
C1064 C1056 1.378 . S
C1064 C1059 1.350 . S
C1065 H1052 0.929 . S
C1065 C1057 1.433 . S
C1065 N1067 1.384 . S
N1066 C1062 1.427 . S
N1066 C1063 1.384 . S
N1067 C1059 1.427 . S
N1067 C1065 1.384 . S
H1068 C1074 0.930 . S
H1069 C1078 0.930 . S
H1070 C1083 0.929 . S
H1071 C1081 0.929 . S
H1072 C1076 0.929 . S
H1073 C1082 0.929 . S
C1074 H1068 0.930 . S
C1074 C1075 1.367 . S
C1074 C1082 1.378 . S
C1075 C1074 1.367 . S
C1075 C1083 1.433 . S
C1076 H1072 0.929 . S
C1076 C1078 1.378 . S
C1076 C1080 1.350 . S
C1077 C1080 1.463 . S
C1077 C1082 1.350 . S
C1077 N1085 1.427 . S
C1078 H1069 0.930 . S
C1078 C1076 1.378 . S
C1078 C1079 1.367 . S
C1079 C1078 1.367 . S
C1079 C1081 1.433 . S
C1080 C1076 1.350 . S
C1080 C1077 1.463 . S
C1080 N1084 1.427 . S
C1081 H1071 0.929 . S
C1081 C1079 1.433 . S
C1081 N1084 1.384 . S
C1082 H1073 0.929 . S
C1082 C1074 1.378 . S
C1082 C1077 1.350 . S
C1083 H1070 0.929 . S
C1083 C1075 1.433 . S
C1083 N1085 1.384 . S
N1084 C1080 1.427 . S
N1084 C1081 1.384 . S
N1085 C1077 1.427 . S
N1085 C1083 1.384 . S
H1086 C1092 0.930 . S
H1087 C1096 0.930 . S
H1088 C1101 0.929 . S
H1089 C1099 0.929 1_554 S
H1090 C1094 0.929 . S
H1091 C1100 0.929 . S
C1092 H1086 0.930 . S
C1092 C1093 1.367 . S
C1092 C1100 1.378 . S
C1093 C1092 1.367 . S
C1093 C1101 1.433 . S
C1094 H1090 0.929 . S
C1094 C1096 1.378 . S
C1094 C1098 1.350 . S
C1095 C1098 1.463 . S
C1095 C1100 1.350 . S
C1095 N1103 1.427 . S
C1096 H1087 0.930 . S
C1096 C1094 1.378 . S
C1096 C1097 1.367 . S
C1097 C1096 1.367 . S
C1097 C1099 1.433 . S
C1098 C1094 1.350 . S
C1098 C1095 1.463 . S
C1098 N1102 1.427 . S
C1099 H1089 0.929 1_556 S
C1099 C1097 1.433 . S
C1099 N1102 1.384 . S
C1100 H1091 0.929 . S
C1100 C1092 1.378 . S
C1100 C1095 1.350 . S
C1101 H1088 0.929 . S
C1101 C1093 1.433 . S
C1101 N1103 1.384 . S
N1102 C1098 1.427 . S
N1102 C1099 1.384 . S
N1103 C1095 1.427 . S
N1103 C1101 1.384 . S
H1104 C1110 0.930 . S
H1105 C1114 0.930 . S
H1106 C1119 0.929 . S
H1107 C1117 0.929 . S
H1108 C1112 0.929 . S
H1109 C1118 0.929 . S
C1110 H1104 0.930 . S
C1110 C1111 1.367 . S
C1110 C1118 1.378 . S
C1111 C1110 1.367 . S
C1111 C1119 1.433 . S
C1112 H1108 0.929 . S
C1112 C1114 1.378 . S
C1112 C1116 1.350 . S
C1113 C1116 1.463 . S
C1113 C1118 1.350 . S
C1113 N1121 1.427 . S
C1114 H1105 0.930 . S
C1114 C1112 1.378 . S
C1114 C1115 1.367 . S
C1115 C1114 1.367 . S
C1115 C1117 1.433 . S
C1116 C1112 1.350 . S
C1116 C1113 1.463 . S
C1116 N1120 1.427 . S
C1117 H1107 0.929 . S
C1117 C1115 1.433 . S
C1117 N1120 1.384 . S
C1118 H1109 0.929 . S
C1118 C1110 1.378 . S
C1118 C1113 1.350 . S
C1119 H1106 0.929 . S
C1119 C1111 1.433 . S
C1119 N1121 1.384 . S
N1120 C1116 1.427 . S
N1120 C1117 1.384 . S
N1121 C1113 1.427 . S
N1121 C1119 1.384 . S
H1122 C1128 0.930 . S
H1123 C1132 0.930 . S
H1124 C1137 0.929 . S
H1125 C1135 0.929 . S
H1126 C1130 0.929 . S
H1127 C1136 0.929 . S
C1128 H1122 0.930 . S
C1128 C1129 1.367 . S
C1128 C1136 1.378 . S
C1129 C1128 1.367 . S
C1129 C1137 1.433 . S
C1130 H1126 0.929 . S
C1130 C1132 1.378 . S
C1130 C1134 1.350 . S
C1131 C1134 1.463 . S
C1131 C1136 1.350 . S
C1131 N1139 1.427 . S
C1132 H1123 0.930 . S
C1132 C1130 1.378 . S
C1132 C1133 1.367 . S
C1133 C1132 1.367 . S
C1133 C1135 1.433 . S
C1134 C1130 1.350 . S
C1134 C1131 1.463 . S
C1134 N1138 1.427 . S
C1135 H1125 0.929 . S
C1135 C1133 1.433 . S
C1135 N1138 1.384 . S
C1136 H1127 0.929 . S
C1136 C1128 1.378 . S
C1136 C1131 1.350 . S
C1137 H1124 0.929 . S
C1137 C1129 1.433 . S
C1137 N1139 1.384 . S
N1138 C1134 1.427 . S
N1138 C1135 1.384 . S
N1139 C1131 1.427 . S
N1139 C1137 1.384 . S
H1140 C1146 0.930 . S
H1141 C1150 0.930 . S
H1142 C1155 0.929 . S
H1143 C1153 0.929 . S
H1144 C1148 0.929 . S
H1145 C1154 0.929 . S
C1146 H1140 0.930 . S
C1146 C1147 1.367 . S
C1146 C1154 1.378 . S
C1147 C1146 1.367 . S
C1147 C1155 1.433 . S
C1148 H1144 0.929 . S
C1148 C1150 1.378 . S
C1148 C1152 1.350 . S
C1149 C1152 1.463 . S
C1149 C1154 1.350 . S
C1149 N1157 1.427 . S
C1150 H1141 0.930 . S
C1150 C1148 1.378 . S
C1150 C1151 1.367 . S
C1151 C1150 1.367 . S
C1151 C1153 1.433 . S
C1152 C1148 1.350 . S
C1152 C1149 1.463 . S
C1152 N1156 1.427 . S
C1153 H1143 0.929 . S
C1153 C1151 1.433 . S
C1153 N1156 1.384 . S
C1154 H1145 0.929 . S
C1154 C1146 1.378 . S
C1154 C1149 1.350 . S
C1155 H1142 0.929 . S
C1155 C1147 1.433 . S
C1155 N1157 1.384 . S
N1156 C1152 1.427 . S
N1156 C1153 1.384 . S
N1157 C1149 1.427 . S
N1157 C1155 1.384 . S
H1158 C1164 0.930 . S
H1159 C1168 0.930 . S
H1160 C1173 0.929 . S
H1161 C1171 0.929 . S
H1162 C1166 0.929 . S
H1163 C1172 0.929 . S
C1164 H1158 0.930 . S
C1164 C1165 1.367 . S
C1164 C1172 1.378 . S
C1165 C1164 1.367 . S
C1165 C1173 1.433 . S
C1166 H1162 0.929 . S
C1166 C1168 1.378 . S
C1166 C1170 1.350 . S
C1167 C1170 1.463 . S
C1167 C1172 1.350 . S
C1167 N1175 1.427 . S
C1168 H1159 0.930 . S
C1168 C1166 1.378 . S
C1168 C1169 1.367 . S
C1169 C1168 1.367 . S
C1169 C1171 1.433 . S
C1170 C1166 1.350 . S
C1170 C1167 1.463 . S
C1170 N1174 1.427 . S
C1171 H1161 0.929 . S
C1171 C1169 1.433 . S
C1171 N1174 1.384 . S
C1172 H1163 0.929 . S
C1172 C1164 1.378 . S
C1172 C1167 1.350 . S
C1173 H1160 0.929 . S
C1173 C1165 1.433 . S
C1173 N1175 1.384 . S
N1174 C1170 1.427 . S
N1174 C1171 1.384 . S
N1175 C1167 1.427 . S
N1175 C1173 1.384 . S
H1176 C1182 0.930 . S
H1177 C1186 0.930 . S
H1178 C1191 0.929 . S
H1179 C1189 0.929 . S
H1180 C1184 0.929 . S
H1181 C1190 0.929 . S
C1182 H1176 0.930 . S
C1182 C1183 1.367 . S
C1182 C1190 1.378 . S
C1183 C1182 1.367 . S
C1183 C1191 1.433 . S
C1184 H1180 0.929 . S
C1184 C1186 1.378 . S
C1184 C1188 1.350 . S
C1185 C1188 1.463 . S
C1185 C1190 1.350 . S
C1185 N1193 1.427 . S
C1186 H1177 0.930 . S
C1186 C1184 1.378 . S
C1186 C1187 1.367 . S
C1187 C1186 1.367 . S
C1187 C1189 1.433 . S
C1188 C1184 1.350 . S
C1188 C1185 1.463 . S
C1188 N1192 1.427 . S
C1189 H1179 0.929 . S
C1189 C1187 1.433 . S
C1189 N1192 1.384 . S
C1190 H1181 0.929 . S
C1190 C1182 1.378 . S
C1190 C1185 1.350 . S
C1191 H1178 0.929 . S
C1191 C1183 1.433 . S
C1191 N1193 1.384 . S
N1192 C1188 1.427 . S
N1192 C1189 1.384 . S
N1193 C1185 1.427 . S
N1193 C1191 1.384 . S
H1194 C1200 0.930 . S
H1195 C1204 0.930 . S
H1196 C1209 0.929 . S
H1197 C1207 0.929 . S
H1198 C1202 0.929 . S
H1199 C1208 0.929 . S
C1200 H1194 0.930 . S
C1200 C1201 1.367 . S
C1200 C1208 1.378 . S
C1201 C1200 1.367 . S
C1201 C1209 1.433 . S
C1202 H1198 0.929 . S
C1202 C1204 1.378 . S
C1202 C1206 1.350 . S
C1203 C1206 1.463 . S
C1203 C1208 1.350 . S
C1203 N1211 1.427 . S
C1204 H1195 0.930 . S
C1204 C1202 1.378 . S
C1204 C1205 1.367 . S
C1205 C1204 1.367 . S
C1205 C1207 1.433 . S
C1206 C1202 1.350 . S
C1206 C1203 1.463 . S
C1206 N1210 1.427 . S
C1207 H1197 0.929 . S
C1207 C1205 1.433 . S
C1207 N1210 1.384 . S
C1208 H1199 0.929 . S
C1208 C1200 1.378 . S
C1208 C1203 1.350 . S
C1209 H1196 0.929 . S
C1209 C1201 1.433 . S
C1209 N1211 1.384 . S
N1210 C1206 1.427 . S
N1210 C1207 1.384 . S
N1211 C1203 1.427 . S
N1211 C1209 1.384 . S
H1212 C1218 0.930 . S
H1213 C1222 0.930 . S
H1214 C1227 0.929 . S
H1215 C1225 0.929 . S
H1216 C1220 0.929 . S
H1217 C1226 0.929 . S
C1218 H1212 0.930 . S
C1218 C1219 1.367 . S
C1218 C1226 1.378 . S
C1219 C1218 1.367 . S
C1219 C1227 1.433 . S
C1220 H1216 0.929 . S
C1220 C1222 1.378 . S
C1220 C1224 1.350 . S
C1221 C1224 1.463 . S
C1221 C1226 1.350 . S
C1221 N1229 1.427 . S
C1222 H1213 0.930 . S
C1222 C1220 1.378 . S
C1222 C1223 1.367 . S
C1223 C1222 1.367 . S
C1223 C1225 1.433 . S
C1224 C1220 1.350 . S
C1224 C1221 1.463 . S
C1224 N1228 1.427 . S
C1225 H1215 0.929 . S
C1225 C1223 1.433 . S
C1225 N1228 1.384 . S
C1226 H1217 0.929 . S
C1226 C1218 1.378 . S
C1226 C1221 1.350 . S
C1227 H1214 0.929 . S
C1227 C1219 1.433 . S
C1227 N1229 1.384 . S
N1228 C1224 1.427 . S
N1228 C1225 1.384 . S
N1229 C1221 1.427 . S
N1229 C1227 1.384 . S
H1230 C1236 0.930 . S
H1231 C1240 0.930 . S
H1232 C1245 0.929 . S
H1233 C1243 0.929 . S
H1234 C1238 0.929 . S
H1235 C1244 0.929 . S
C1236 H1230 0.930 . S
C1236 C1237 1.367 . S
C1236 C1244 1.378 . S
C1237 C1236 1.367 . S
C1237 C1245 1.433 . S
C1238 H1234 0.929 . S
C1238 C1240 1.378 . S
C1238 C1242 1.350 . S
C1239 C1242 1.463 . S
C1239 C1244 1.350 . S
C1239 N1247 1.427 . S
C1240 H1231 0.930 . S
C1240 C1238 1.378 . S
C1240 C1241 1.367 . S
C1241 C1240 1.367 . S
C1241 C1243 1.433 . S
C1242 C1238 1.350 . S
C1242 C1239 1.463 . S
C1242 N1246 1.427 . S
C1243 H1233 0.929 . S
C1243 C1241 1.433 . S
C1243 N1246 1.384 . S
C1244 H1235 0.929 . S
C1244 C1236 1.378 . S
C1244 C1239 1.350 . S
C1245 H1232 0.929 . S
C1245 C1237 1.433 . S
C1245 N1247 1.384 . S
N1246 C1242 1.427 . S
N1246 C1243 1.384 . S
N1247 C1239 1.427 . S
N1247 C1245 1.384 . S
C827 C757 1.655 . S
C823 C45 1.662 . S
C841 C84 1.645 . S
C845 C317 1.649 . S
C859 C126 1.596 . S
C863 C405 1.652 . S
C877 C189 1.657 . S
C881 C484 1.649 . S
C899 C581 1.657 . S
C895 C228 1.651 . S
C913 C270 1.608 . S
C917 C660 1.658 . S
C931 C69 1.630 . S
C935 C425 1.657 . S
C949 C141 1.663 . S
C953 C521 1.656 . S
C967 C174 1.596 . S
C971 C601 1.651 . S
C989 C697 1.655 . S
C985 C213 1.626 . S
C1007 C777 1.648 . S
C1003 C285 1.657 . S
C1025 C337 1.658 . S
C1021 C30 1.608 . S
C1039 C36 1.489 . S
C1043 C433 1.482 . S
C1057 C93 1.488 . S
C1061 C513 1.482 . S
C1079 C609 1.487 . S
C1075 C117 1.487 . S
C1093 C180 1.491 . S
C1097 C689 1.487 1_556 S
C1115 C785 1.484 . S
C1111 C237 1.486 . S
C1133 C345 1.487 . S
C1129 C261 1.488 . S
C1151 C748 1.481 . S
C1147 C78 1.478 . S
C1165 C132 1.489 . S
C1169 C308 1.487 . S
C1187 C396 1.487 . S
C1183 C165 1.488 . S
C1201 C222 1.481 . S
C1205 C493 1.482 . S
C1219 C276 1.490 . S
C1223 C572 1.483 1_554 S
C1237 C21 1.486 . S
C1241 C669 1.484 . S
