# Generated by pormake.
# Topology ptr, (4,4)-cn, num edge types: 1
# Building blocks:
#     Node 0, Type 0, BuildingBlock: QUQFOY_clean_sbu_1, # of connection points: 4
#     Node 1, Type 0, BuildingBlock: QUQFOY_clean_sbu_1, # of connection points: 4
#     Node 2, Type 0, BuildingBlock: QUQFOY_clean_sbu_1, # of connection points: 4
#     Node 3, Type 0, BuildingBlock: QUQFOY_clean_sbu_1, # of connection points: 4
#     Node 4, Type 0, BuildingBlock: QUQFOY_clean_sbu_1, # of connection points: 4
#     Node 5, Type 0, BuildingBlock: QUQFOY_clean_sbu_1, # of connection points: 4
#     Node 6, Type 0, BuildingBlock: QUQFOY_clean_sbu_1, # of connection points: 4
#     Node 7, Type 0, BuildingBlock: QUQFOY_clean_sbu_1, # of connection points: 4
#     Node 8, Type 0, BuildingBlock: QUQFOY_clean_sbu_1, # of connection points: 4
#     Node 9, Type 0, BuildingBlock: QUQFOY_clean_sbu_1, # of connection points: 4
#     Node 10, Type 0, BuildingBlock: QUQFOY_clean_sbu_1, # of connection points: 4
#     Node 11, Type 0, BuildingBlock: QUQFOY_clean_sbu_1, # of connection points: 4
#     Node 12, Type 0, BuildingBlock: QUQFOY_clean_sbu_1, # of connection points: 4
#     Node 13, Type 0, BuildingBlock: QUQFOY_clean_sbu_1, # of connection points: 4
#     Node 14, Type 0, BuildingBlock: QUQFOY_clean_sbu_1, # of connection points: 4
#     Node 15, Type 0, BuildingBlock: QUQFOY_clean_sbu_1, # of connection points: 4
#     Node 16, Type 0, BuildingBlock: QUQFOY_clean_sbu_1, # of connection points: 4
#     Node 17, Type 0, BuildingBlock: QUQFOY_clean_sbu_1, # of connection points: 4
#     Node 18, Type 1, BuildingBlock: AZAVOO_clean_linker_0, # of connection points: 4
#     Node 19, Type 1, BuildingBlock: AZAVOO_clean_linker_0, # of connection points: 4
#     Node 20, Type 1, BuildingBlock: AZAVOO_clean_linker_0, # of connection points: 4
#     Node 21, Type 1, BuildingBlock: AZAVOO_clean_linker_0, # of connection points: 4
#     Node 22, Type 1, BuildingBlock: AZAVOO_clean_linker_0, # of connection points: 4
#     Node 23, Type 1, BuildingBlock: AZAVOO_clean_linker_0, # of connection points: 4
#     Node 24, Type 1, BuildingBlock: AZAVOO_clean_linker_0, # of connection points: 4
#     Node 25, Type 1, BuildingBlock: AZAVOO_clean_linker_0, # of connection points: 4
#     Node 26, Type 1, BuildingBlock: AZAVOO_clean_linker_0, # of connection points: 4
#     Node 27, Type 1, BuildingBlock: AZAVOO_clean_linker_0, # of connection points: 4
#     Node 28, Type 1, BuildingBlock: AZAVOO_clean_linker_0, # of connection points: 4
#     Node 29, Type 1, BuildingBlock: AZAVOO_clean_linker_0, # of connection points: 4
#     Node 30, Type 1, BuildingBlock: AZAVOO_clean_linker_0, # of connection points: 4
#     Node 31, Type 1, BuildingBlock: AZAVOO_clean_linker_0, # of connection points: 4
#     Node 32, Type 1, BuildingBlock: AZAVOO_clean_linker_0, # of connection points: 4
#     Node 33, Type 1, BuildingBlock: AZAVOO_clean_linker_0, # of connection points: 4
#     Node 34, Type 1, BuildingBlock: AZAVOO_clean_linker_0, # of connection points: 4
#     Node 35, Type 1, BuildingBlock: AZAVOO_clean_linker_0, # of connection points: 4
#     Edge 36, Type (0, 1), BuildingBlock: EZIPEK_clean_linker_0, # of connection points: 2
#     Edge 37, Type (0, 1), BuildingBlock: EZIPEK_clean_linker_0, # of connection points: 2
#     Edge 38, Type (0, 1), BuildingBlock: EZIPEK_clean_linker_0, # of connection points: 2
#     Edge 39, Type (0, 1), BuildingBlock: EZIPEK_clean_linker_0, # of connection points: 2
#     Edge 40, Type (0, 1), BuildingBlock: EZIPEK_clean_linker_0, # of connection points: 2
#     Edge 41, Type (0, 1), BuildingBlock: EZIPEK_clean_linker_0, # of connection points: 2
#     Edge 42, Type (0, 1), BuildingBlock: EZIPEK_clean_linker_0, # of connection points: 2
#     Edge 43, Type (0, 1), BuildingBlock: EZIPEK_clean_linker_0, # of connection points: 2
#     Edge 44, Type (0, 1), BuildingBlock: EZIPEK_clean_linker_0, # of connection points: 2
#     Edge 45, Type (0, 1), BuildingBlock: EZIPEK_clean_linker_0, # of connection points: 2
#     Edge 46, Type (0, 1), BuildingBlock: EZIPEK_clean_linker_0, # of connection points: 2
#     Edge 47, Type (0, 1), BuildingBlock: EZIPEK_clean_linker_0, # of connection points: 2
#     Edge 48, Type (0, 1), BuildingBlock: EZIPEK_clean_linker_0, # of connection points: 2
#     Edge 49, Type (0, 1), BuildingBlock: EZIPEK_clean_linker_0, # of connection points: 2
#     Edge 50, Type (0, 1), BuildingBlock: EZIPEK_clean_linker_0, # of connection points: 2
#     Edge 51, Type (0, 1), BuildingBlock: EZIPEK_clean_linker_0, # of connection points: 2
#     Edge 52, Type (0, 1), BuildingBlock: EZIPEK_clean_linker_0, # of connection points: 2
#     Edge 53, Type (0, 1), BuildingBlock: EZIPEK_clean_linker_0, # of connection points: 2
#     Edge 54, Type (0, 1), BuildingBlock: EZIPEK_clean_linker_0, # of connection points: 2
#     Edge 55, Type (0, 1), BuildingBlock: EZIPEK_clean_linker_0, # of connection points: 2
#     Edge 56, Type (0, 1), BuildingBlock: EZIPEK_clean_linker_0, # of connection points: 2
#     Edge 57, Type (0, 1), BuildingBlock: EZIPEK_clean_linker_0, # of connection points: 2
#     Edge 58, Type (0, 1), BuildingBlock: EZIPEK_clean_linker_0, # of connection points: 2
#     Edge 59, Type (0, 1), BuildingBlock: EZIPEK_clean_linker_0, # of connection points: 2
#     Edge 60, Type (0, 1), BuildingBlock: EZIPEK_clean_linker_0, # of connection points: 2
#     Edge 61, Type (0, 1), BuildingBlock: EZIPEK_clean_linker_0, # of connection points: 2
#     Edge 62, Type (0, 1), BuildingBlock: EZIPEK_clean_linker_0, # of connection points: 2
#     Edge 63, Type (0, 1), BuildingBlock: EZIPEK_clean_linker_0, # of connection points: 2
#     Edge 64, Type (0, 1), BuildingBlock: EZIPEK_clean_linker_0, # of connection points: 2
#     Edge 65, Type (0, 1), BuildingBlock: EZIPEK_clean_linker_0, # of connection points: 2
#     Edge 66, Type (0, 1), BuildingBlock: EZIPEK_clean_linker_0, # of connection points: 2
#     Edge 67, Type (0, 1), BuildingBlock: EZIPEK_clean_linker_0, # of connection points: 2
#     Edge 68, Type (0, 1), BuildingBlock: EZIPEK_clean_linker_0, # of connection points: 2
#     Edge 69, Type (0, 1), BuildingBlock: EZIPEK_clean_linker_0, # of connection points: 2
#     Edge 70, Type (0, 1), BuildingBlock: EZIPEK_clean_linker_0, # of connection points: 2
#     Edge 71, Type (0, 1), BuildingBlock: EZIPEK_clean_linker_0, # of connection points: 2
#     Edge 72, Type (0, 1), BuildingBlock: EZIPEK_clean_linker_0, # of connection points: 2
#     Edge 73, Type (0, 1), BuildingBlock: EZIPEK_clean_linker_0, # of connection points: 2
#     Edge 74, Type (0, 1), BuildingBlock: EZIPEK_clean_linker_0, # of connection points: 2
#     Edge 75, Type (0, 1), BuildingBlock: EZIPEK_clean_linker_0, # of connection points: 2
#     Edge 76, Type (0, 1), BuildingBlock: EZIPEK_clean_linker_0, # of connection points: 2
#     Edge 77, Type (0, 1), BuildingBlock: EZIPEK_clean_linker_0, # of connection points: 2
#     Edge 78, Type (0, 1), BuildingBlock: EZIPEK_clean_linker_0, # of connection points: 2
#     Edge 79, Type (0, 1), BuildingBlock: EZIPEK_clean_linker_0, # of connection points: 2
#     Edge 80, Type (0, 1), BuildingBlock: EZIPEK_clean_linker_0, # of connection points: 2
#     Edge 81, Type (0, 1), BuildingBlock: EZIPEK_clean_linker_0, # of connection points: 2
#     Edge 82, Type (0, 1), BuildingBlock: EZIPEK_clean_linker_0, # of connection points: 2
#     Edge 83, Type (0, 1), BuildingBlock: EZIPEK_clean_linker_0, # of connection points: 2
#     Edge 84, Type (0, 1), BuildingBlock: EZIPEK_clean_linker_0, # of connection points: 2
#     Edge 85, Type (0, 1), BuildingBlock: EZIPEK_clean_linker_0, # of connection points: 2
#     Edge 86, Type (0, 1), BuildingBlock: EZIPEK_clean_linker_0, # of connection points: 2
#     Edge 87, Type (0, 1), BuildingBlock: EZIPEK_clean_linker_0, # of connection points: 2
#     Edge 88, Type (0, 1), BuildingBlock: EZIPEK_clean_linker_0, # of connection points: 2
#     Edge 89, Type (0, 1), BuildingBlock: EZIPEK_clean_linker_0, # of connection points: 2
#     Edge 90, Type (0, 1), BuildingBlock: EZIPEK_clean_linker_0, # of connection points: 2
#     Edge 91, Type (0, 1), BuildingBlock: EZIPEK_clean_linker_0, # of connection points: 2
#     Edge 92, Type (0, 1), BuildingBlock: EZIPEK_clean_linker_0, # of connection points: 2
#     Edge 93, Type (0, 1), BuildingBlock: EZIPEK_clean_linker_0, # of connection points: 2
#     Edge 94, Type (0, 1), BuildingBlock: EZIPEK_clean_linker_0, # of connection points: 2
#     Edge 95, Type (0, 1), BuildingBlock: EZIPEK_clean_linker_0, # of connection points: 2
#     Edge 96, Type (0, 1), BuildingBlock: EZIPEK_clean_linker_0, # of connection points: 2
#     Edge 97, Type (0, 1), BuildingBlock: EZIPEK_clean_linker_0, # of connection points: 2
#     Edge 98, Type (0, 1), BuildingBlock: EZIPEK_clean_linker_0, # of connection points: 2
#     Edge 99, Type (0, 1), BuildingBlock: EZIPEK_clean_linker_0, # of connection points: 2
#     Edge 100, Type (0, 1), BuildingBlock: EZIPEK_clean_linker_0, # of connection points: 2
#     Edge 101, Type (0, 1), BuildingBlock: EZIPEK_clean_linker_0, # of connection points: 2
#     Edge 102, Type (0, 1), BuildingBlock: EZIPEK_clean_linker_0, # of connection points: 2
#     Edge 103, Type (0, 1), BuildingBlock: EZIPEK_clean_linker_0, # of connection points: 2
#     Edge 104, Type (0, 1), BuildingBlock: EZIPEK_clean_linker_0, # of connection points: 2
#     Edge 105, Type (0, 1), BuildingBlock: EZIPEK_clean_linker_0, # of connection points: 2
#     Edge 106, Type (0, 1), BuildingBlock: EZIPEK_clean_linker_0, # of connection points: 2
#     Edge 107, Type (0, 1), BuildingBlock: EZIPEK_clean_linker_0, # of connection points: 2
# Relax obj value: 0.052
# Max RMSD: 0.178
# Mean RMSD: 0.114
data_MOF--net-ptr--node1-QUQFOY_clean_sbu_1--node2-AZAVOO_clean_linker_0--edge1-EZIPEK_clean_linker_0
_symmetry_space_group_name_H-M    P1
_symmetry_Int_Tables_number       1
_symmetry_cell_setting            triclinic
loop_
_symmetry_equiv_pos_as_xyz
'x, y, z'
_cell_length_a     65.225243
_cell_length_b     64.545287
_cell_length_c     55.022754
_cell_angle_alpha  92.728529
_cell_angle_beta   92.056857
_cell_angle_gamma 120.178
loop_
_atom_site_label
_atom_site_type_symbol
_atom_site_fract_x
_atom_site_fract_y
_atom_site_fract_z
_atom_type_partial_charge
O0 O 0.03039 0.42014 0.04716 0.0
Cd1 Cd 0.04138 0.40124 0.02546 0.0
Cd2 Cd 0.99663 0.3737 0.01836 0.0
O3 O 0.99835 0.38679 0.05417 0.0
O4 O 0.07237 0.40698 0.04024 0.0
O5 O 0.03887 0.37162 0.03844 0.0
C6 C 0.06108 0.38488 0.04576 0.0
C7 C 0.97253 0.33328 0.00552 0.0
C8 C 0.01299 0.40887 0.06015 0.0
C9 C 0.02333 0.40661 0.97983 0.0
O10 O 1.00405 0.39672 0.99054 0.0
O11 O 0.04178 0.40731 0.98915 0.0
O12 O 0.96356 0.34677 0.00992 0.0
O13 O 0.99518 0.34238 0.00947 0.0
O14 O 0.60224 0.5967 0.09355 0.0
Cd15 Cd 0.61593 0.62034 0.06677 0.0
Cd16 Cd 0.63663 0.59441 0.05686 0.0
O17 O 0.62543 0.58098 0.09053 0.0
O18 O 0.61196 0.64799 0.07734 0.0
O19 O 0.64714 0.65074 0.07491 0.0
C20 C 0.63481 0.66068 0.08034 0.0
C21 C 0.67539 0.61321 0.045 0.0
C22 C 0.60967 0.58328 0.10135 0.0
C23 C 0.6004 0.59078 0.01949 0.0
O24 O 0.61171 0.58099 0.02758 0.0
O25 O 0.60103 0.60844 0.03149 0.0
O26 O 0.66351 0.59024 0.04653 0.0
O27 O 0.66595 0.62573 0.05198 0.0
O28 O 0.42575 0.01272 0.9921 0.0
Cd29 Cd 0.41496 0.02302 0.02299 0.0
Cd30 Cd 0.39117 0.97492 0.02684 0.0
O31 O 0.40024 0.97367 0.99106 0.0
O32 O 0.41866 0.05503 0.017 0.0
O33 O 0.38377 0.0221 0.01979 0.0
C34 C 0.39576 0.0445 0.01553 0.0
C35 C 0.3527 0.95463 0.03964 0.0
C36 C 0.41638 0.99179 0.98135 0.0
C37 C 0.42967 0.00575 0.0658 0.0
O38 O 0.41667 0.98483 0.05529 0.0
O39 O 0.43065 0.02402 0.05683 0.0
O40 O 0.3639 0.94333 0.03488 0.0
O41 O 0.36262 0.97704 0.03541 0.0
O42 O 0.99518 0.58936 0.00912 0.0
Cd43 Cd 0.98234 0.60305 0.03513 0.0
Cd44 Cd 0.02914 0.62969 0.04997 0.0
O45 O 0.03335 0.61615 0.01678 0.0
O46 O 0.95074 0.5964 0.021 0.0
O47 O 0.98215 0.63311 0.02735 0.0
C48 C 0.96038 0.61919 0.01885 0.0
C49 C 0.05134 0.67031 0.06301 0.0
C50 C 0.01667 0.59836 0.00387 0.0
C51 C 0.99666 0.59331 0.08335 0.0
O52 O 0.01786 0.60718 0.07795 0.0
O53 O 0.97909 0.59025 0.06961 0.0
O54 O 0.06086 0.65699 0.06248 0.0
O55 O 0.02939 0.66093 0.05495 0.0
O56 O 0.41652 0.4047 0.98426 0.0
Cd57 Cd 0.4027 0.38107 0.01113 0.0
Cd58 Cd 0.38432 0.4094 0.02292 0.0
O59 O 0.39676 0.4239 0.98997 0.0
O60 O 0.40553 0.35285 0.99998 0.0
O61 O 0.37093 0.35122 0.00304 0.0
C62 C 0.38265 0.34074 0.99708 0.0
C63 C 0.34529 0.39282 0.03371 0.0
C64 C 0.41097 0.42002 0.97796 0.0
C65 C 0.41933 0.40917 0.05956 0.0
O66 O 0.40843 0.41979 0.05269 0.0
O67 O 0.41827 0.39191 0.04637 0.0
O68 O 0.35892 0.4158 0.03362 0.0
O69 O 0.35322 0.37915 0.02585 0.0
O70 O 0.59595 0.98698 0.07913 0.0
Cd71 Cd 0.60899 0.98281 0.0468 0.0
Cd72 Cd 0.62286 0.03051 0.04837 0.0
O73 O 0.61036 0.02615 0.08313 0.0
O74 O 0.60639 0.95074 0.04871 0.0
O75 O 0.64081 0.98492 0.04988 0.0
C76 C 0.62926 0.962 0.05163 0.0
C77 C 0.66183 0.05284 0.03792 0.0
C78 C 0.59886 0.00554 0.09147 0.0
C79 C 0.58984 0.99945 0.00617 0.0
O80 O 0.59884 0.01955 0.01859 0.0
O81 O 0.59255 0.98253 0.01359 0.0
O82 O 0.64983 0.06327 0.04296 0.0
O83 O 0.65242 0.03022 0.04104 0.0
O84 O 0.69428 0.75393 0.38308 0.0
Cd85 Cd 0.70587 0.73597 0.3608 0.0
Cd86 Cd 0.66105 0.70784 0.3531 0.0
O87 O 0.66215 0.72022 0.38909 0.0
O88 O 0.73726 0.74261 0.37537 0.0
O89 O 0.70453 0.70662 0.37318 0.0
C90 C 0.72666 0.72041 0.38054 0.0
C91 C 0.63802 0.66744 0.33956 0.0
C92 C 0.67669 0.74218 0.3957 0.0
C93 C 0.68776 0.74174 0.31525 0.0
O94 O 0.66832 0.73125 0.32566 0.0
O95 O 0.70632 0.74274 0.32468 0.0
O96 O 0.62838 0.68031 0.34405 0.0
O97 O 0.66072 0.67714 0.34384 0.0
O98 O 0.26324 0.92948 0.42369 0.0
Cd99 Cd 0.27783 0.95366 0.39742 0.0
Cd100 Cd 0.2964 0.92592 0.38643 0.0
O101 O 0.28547 0.9127 0.42021 0.0
O102 O 0.27529 0.98195 0.40903 0.0
O103 O 0.30972 0.98323 0.40588 0.0
C104 C 0.29816 0.99382 0.4121 0.0
C105 C 0.3348 0.94233 0.37371 0.0
C106 C 0.27006 0.91547 0.43118 0.0
C107 C 0.26065 0.92473 0.34993 0.0
O108 O 0.27085 0.91374 0.35776 0.0
O109 O 0.26274 0.94303 0.36205 0.0
O110 O 0.32149 0.91942 0.37484 0.0
O111 O 0.327 0.95611 0.38153 0.0
O112 O 0.09404 0.3514 0.32981 0.0
Cd113 Cd 0.08158 0.36097 0.35986 0.0
Cd114 Cd 0.0566 0.31269 0.36159 0.0
O115 O 0.0674 0.31253 0.32648 0.0
O116 O 0.08548 0.3932 0.35446 0.0
O117 O 0.05049 0.35971 0.35438 0.0
C118 C 0.0626 0.38238 0.35132 0.0
C119 C 0.01719 0.29277 0.37216 0.0
C120 C 0.08451 0.33089 0.31809 0.0
C121 C 0.09355 0.3417 0.4026 0.0
O122 O 0.08101 0.32128 0.39091 0.0
O123 O 0.09481 0.36041 0.39449 0.0
O124 O 0.02831 0.2812 0.36843 0.0
O125 O 0.02781 0.31521 0.36803 0.0
O126 O 0.65923 0.92176 0.34698 0.0
Cd127 Cd 0.64611 0.93502 0.37311 0.0
Cd128 Cd 0.69284 0.96197 0.38815 0.0
O129 O 0.69726 0.94892 0.35483 0.0
O130 O 0.61453 0.92833 0.35885 0.0
O131 O 0.64582 0.96508 0.36549 0.0
C132 C 0.62412 0.95113 0.3568 0.0
C133 C 0.71519 0.00252 0.40125 0.0
C134 C 0.68076 0.93114 0.34177 0.0
C135 C 0.66052 0.92513 0.42123 0.0
O136 O 0.6817 0.93924 0.41593 0.0
O137 O 0.6429 0.922 0.4075 0.0
O138 O 0.72461 0.98911 0.40062 0.0
O139 O 0.6932 0.99323 0.39343 0.0
O140 O 0.08131 0.73894 0.31402 0.0
Cd141 Cd 0.06733 0.71538 0.34092 0.0
Cd142 Cd 0.04916 0.74391 0.35234 0.0
O143 O 0.06118 0.75784 0.31907 0.0
O144 O 0.07046 0.6873 0.33001 0.0
O145 O 0.0357 0.68542 0.33257 0.0
C146 C 0.04761 0.67508 0.32684 0.0
C147 C 0.01037 0.72739 0.3639 0.0
C148 C 0.07556 0.75401 0.30732 0.0
C149 C 0.08413 0.74396 0.38905 0.0
O150 O 0.07367 0.75488 0.38179 0.0
O151 O 0.08263 0.72628 0.37624 0.0
O152 O 0.02383 0.75034 0.36324 0.0
O153 O 0.01826 0.71367 0.35608 0.0
O154 O 0.25742 0.32156 0.41257 0.0
Cd155 Cd 0.26945 0.31212 0.38216 0.0
Cd156 Cd 0.2929 0.36034 0.37938 0.0
O157 O 0.28173 0.36093 0.41425 0.0
O158 O 0.26499 0.27971 0.38739 0.0
O159 O 0.30034 0.31273 0.38722 0.0
C160 C 0.28784 0.29009 0.39034 0.0
C161 C 0.33225 0.38107 0.36865 0.0
C162 C 0.26579 0.34231 0.42348 0.0
C163 C 0.25563 0.32989 0.33917 0.0
O164 O 0.26841 0.3507 0.34998 0.0
O165 O 0.25474 0.31158 0.34789 0.0
O166 O 0.32052 0.39206 0.37212 0.0
O167 O 0.32231 0.35876 0.3733 0.0
O168 O 0.35364 0.07691 0.72771 0.0
Cd169 Cd 0.36783 0.06439 0.70202 0.0
Cd170 Cd 0.3218 0.039 0.68472 0.0
O171 O 0.31561 0.05152 0.7173 0.0
O172 O 0.39862 0.07062 0.71792 0.0
O173 O 0.36799 0.03399 0.70821 0.0
C174 C 0.38916 0.04765 0.71837 0.0
C175 C 0.29967 0.99867 0.67088 0.0
C176 C 0.33184 0.06834 0.73149 0.0
C177 C 0.35661 0.07682 0.65393 0.0
O178 O 0.33502 0.06266 0.65787 0.0
O179 O 0.37339 0.07919 0.66849 0.0
O180 O 0.29064 0.0124 0.67021 0.0
O181 O 0.32114 0.00754 0.68025 0.0
O182 O 0.93228 0.26018 0.755 0.0
Cd183 Cd 0.95129 0.28354 0.7289 0.0
Cd184 Cd 0.96505 0.25259 0.72432 0.0
O185 O 0.9559 0.24521 0.75962 0.0
O186 O 0.94794 0.31231 0.73548 0.0
O187 O 0.9821 0.31293 0.74126 0.0
C188 C 0.97017 0.3239 0.74276 0.0
C189 C 1.00264 0.26864 0.70982 0.0
C190 C 0.93912 0.24803 0.76685 0.0
C191 C 0.93422 0.25096 0.68423 0.0
O192 O 0.9375 0.23729 0.69766 0.0
O193 O 0.9423 0.27274 0.69193 0.0
O194 O 0.99058 0.24619 0.71403 0.0
O195 O 0.99405 0.2823 0.71549 0.0
O196 O 0.75554 0.68213 0.6608 0.0
Cd197 Cd 0.74396 0.69055 0.69236 0.0
Cd198 Cd 0.72546 0.64273 0.69619 0.0
O199 O 0.73498 0.64249 0.6606 0.0
O200 O 0.74543 0.72168 0.68692 0.0
O201 O 0.71173 0.68747 0.68981 0.0
C202 C 0.7225 0.70994 0.68571 0.0
C203 C 0.68721 0.62028 0.70892 0.0
C204 C 0.74882 0.66148 0.65041 0.0
C205 C 0.76264 0.676 0.73478 0.0
O206 O 0.75154 0.65493 0.72427 0.0
O207 O 0.76097 0.69304 0.726 0.0
O208 O 0.69972 0.61034 0.7044 0.0
O209 O 0.69577 0.64255 0.70466 0.0
O210 O 0.32713 0.25684 0.68209 0.0
Cd211 Cd 0.31322 0.26972 0.7077 0.0
Cd212 Cd 0.35939 0.29593 0.72464 0.0
O213 O 0.36511 0.2829 0.69203 0.0
O214 O 0.28218 0.26338 0.69234 0.0
O215 O 0.31335 0.30003 0.70038 0.0
C216 C 0.29192 0.28628 0.69089 0.0
C217 C 0.3815 0.33649 0.73766 0.0
C218 C 0.34892 0.26569 0.67814 0.0
C219 C 0.32529 0.25869 0.75631 0.0
O220 O 0.34679 0.27299 0.75216 0.0
O221 O 0.30833 0.25576 0.74166 0.0
O222 O 0.39078 0.32297 0.73812 0.0
O223 O 0.35978 0.32727 0.72891 0.0
O224 O 0.7528 0.07237 0.64993 0.0
Cd225 Cd 0.73803 0.0492 0.67708 0.0
Cd226 Cd 0.71999 0.07803 0.68676 0.0
O227 O 0.73213 0.09088 0.65315 0.0
O228 O 0.74063 0.02053 0.66716 0.0
O229 O 0.7062 0.01957 0.66841 0.0
C230 C 0.71781 0.00872 0.66341 0.0
C231 C 0.68131 0.06227 0.69842 0.0
C232 C 0.74694 0.08705 0.64224 0.0
C233 C 0.75428 0.0789 0.72464 0.0
O234 O 0.74446 0.09002 0.71628 0.0
O235 O 0.75242 0.06058 0.71277 0.0
O236 O 0.69488 0.08509 0.69694 0.0
O237 O 0.68904 0.04816 0.69153 0.0
O238 O 0.92819 0.65123 0.74452 0.0
Cd239 Cd 0.94094 0.64634 0.71225 0.0
Cd240 Cd 0.95622 0.69422 0.7134 0.0
O241 O 0.94428 0.69065 0.74836 0.0
O242 O 0.93744 0.61391 0.71431 0.0
O243 O 0.97234 0.64755 0.71533 0.0
C244 C 0.96029 0.62464 0.71712 0.0
C245 C 0.99506 0.71612 0.70233 0.0
C246 C 0.93202 0.67019 0.75678 0.0
C247 C 0.92216 0.66337 0.67179 0.0
O248 O 0.93169 0.68355 0.68412 0.0
O249 O 0.92462 0.64625 0.67905 0.0
O250 O 0.98331 0.72676 0.7076 0.0
O251 O 0.98548 0.69348 0.70549 0.0
H252 H 0.18529 0.39446 0.00318 0.0
H253 H 0.31234 0.32593 0.18569 0.0
H254 H 0.16993 0.38852 0.13859 0.0
H255 H 0.14104 0.39533 0.11587 0.0
H256 H 0.09274 0.31884 0.10595 0.0
H257 H 0.12188 0.31199 0.1286 0.0
H258 H 0.20759 0.39216 0.10662 0.0
H259 H 0.20319 0.4003 0.06431 0.0
H260 H 0.15132 0.32507 0.04747 0.0
H261 H 0.15577 0.31727 0.0899 0.0
H262 H 0.24909 0.38803 0.13606 0.0
H263 H 0.28123 0.3966 0.1091 0.0
H264 H 0.23607 0.32924 0.06714 0.0
H265 H 0.20394 0.32043 0.09444 0.0
H266 H 0.24482 0.37652 0.1891 0.0
H267 H 0.2813 0.37698 0.2022 0.0
H268 H 0.25712 0.31022 0.15869 0.0
H269 H 0.22062 0.30992 0.14585 0.0
H270 H 0.20288 0.36944 0.21585 0.0
H271 H 0.21564 0.36421 0.25657 0.0
H272 H 0.20002 0.29302 0.23197 0.0
H273 H 0.18745 0.29832 0.19115 0.0
H274 H 0.16132 0.37401 0.18866 0.0
H275 H 0.13768 0.3696 0.22394 0.0
H276 H 0.11707 0.2948 0.22354 0.0
H277 H 0.14034 0.29907 0.18801 0.0
O278 O 0.18684 0.39083 0.01978 0.0
O279 O 0.16031 0.35198 0.01207 0.0
O280 O 0.30908 0.35985 0.20375 0.0
O281 O 0.29804 0.32614 0.1808 0.0
C282 C 0.16769 0.34598 0.14351 0.0
C283 C 0.18491 0.34919 0.12678 0.0
C284 C 0.20523 0.34812 0.13433 0.0
C285 C 0.2081 0.34316 0.15851 0.0
C286 C 0.19053 0.339 0.17506 0.0
C287 C 0.17027 0.34047 0.16765 0.0
C288 C 0.14792 0.34977 0.13544 0.0
C289 C 0.15282 0.37324 0.13222 0.0
C290 C 0.13645 0.37712 0.11913 0.0
C291 C 0.11488 0.35758 0.10916 0.0
C292 C 0.1093 0.33411 0.11359 0.0
C293 C 0.12578 0.33022 0.12664 0.0
C294 C 0.18192 0.35417 0.10125 0.0
C295 C 0.19525 0.37751 0.09374 0.0
C296 C 0.19272 0.38208 0.06958 0.0
C297 C 0.17689 0.36333 0.05251 0.0
C298 C 0.16367 0.33991 0.06015 0.0
C299 C 0.1661 0.33541 0.08435 0.0
C300 C 0.22424 0.35355 0.11728 0.0
C301 C 0.2461 0.37512 0.12105 0.0
C302 C 0.26434 0.38005 0.10566 0.0
C303 C 0.26092 0.36357 0.08616 0.0
C304 C 0.23893 0.34218 0.08206 0.0
C305 C 0.22069 0.33718 0.09758 0.0
C306 C 0.23003 0.34309 0.1667 0.0
C307 C 0.24737 0.36193 0.18256 0.0
C308 C 0.26823 0.36221 0.18992 0.0
C309 C 0.27211 0.3436 0.18153 0.0
C310 C 0.25468 0.32478 0.16554 0.0
C311 C 0.23382 0.32455 0.15819 0.0
C312 C 0.19428 0.33427 0.20056 0.0
C313 C 0.20165 0.3525 0.2194 0.0
C314 C 0.20894 0.34955 0.24254 0.0
C315 C 0.20876 0.32826 0.24715 0.0
C316 C 0.20013 0.3095 0.22872 0.0
C317 C 0.19302 0.31253 0.20552 0.0
C318 C 0.15246 0.33683 0.18563 0.0
C319 C 0.15109 0.35649 0.19564 0.0
C320 C 0.13776 0.35401 0.21582 0.0
C321 C 0.12572 0.33189 0.2263 0.0
C322 C 0.12618 0.31197 0.21562 0.0
C323 C 0.13937 0.3144 0.19537 0.0
C324 C 0.17413 0.36827 0.02689 0.0
C325 C 0.29421 0.34377 0.18941 0.0
H326 H 0.62793 0.78061 0.00445 0.0
H327 H 0.70302 0.99436 0.1853 0.0
H328 H 0.63588 0.78392 0.13749 0.0
H329 H 0.62911 0.74464 0.12153 0.0
H330 H 0.70457 0.77155 0.12878 0.0
H331 H 0.71135 0.81097 0.14505 0.0
H332 H 0.63335 0.81961 0.10417 0.0
H333 H 0.6243 0.80212 0.062 0.0
H334 H 0.69646 0.81655 0.05912 0.0
H335 H 0.70534 0.83427 0.1012 0.0
H336 H 0.63594 0.86111 0.13316 0.0
H337 H 0.62804 0.88687 0.10777 0.0
H338 H 0.69634 0.91352 0.07789 0.0
H339 H 0.70439 0.88774 0.10363 0.0
H340 H 0.64865 0.87495 0.1862 0.0
H341 H 0.64942 0.91265 0.19654 0.0
H342 H 0.71751 0.95193 0.16551 0.0
H343 H 0.7165 0.91408 0.1553 0.0
H344 H 0.65268 0.83771 0.21546 0.0
H345 H 0.65523 0.85657 0.25615 0.0
H346 H 0.72657 0.91286 0.2455 0.0
H347 H 0.724 0.89398 0.20469 0.0
H348 H 0.64762 0.79121 0.18945 0.0
H349 H 0.65032 0.76845 0.22275 0.0
H350 H 0.725 0.82041 0.23604 0.0
H351 H 0.72238 0.84307 0.20249 0.0
O352 O 0.632 0.78796 0.02097 0.0
O353 O 0.66921 0.79551 0.02055 0.0
O354 O 0.66789 0.95829 0.1984 0.0
O355 O 0.70236 0.97922 0.18162 0.0
C356 C 0.678 0.82437 0.14961 0.0
C357 C 0.67518 0.83783 0.1316 0.0
C358 C 0.67658 0.85984 0.13843 0.0
C359 C 0.68167 0.86887 0.16313 0.0
C360 C 0.68484 0.85562 0.18112 0.0
C361 C 0.68283 0.83322 0.17439 0.0
C362 C 0.67408 0.80017 0.14243 0.0
C363 C 0.65092 0.78124 0.13595 0.0
C364 C 0.64707 0.75896 0.12684 0.0
C365 C 0.66636 0.75538 0.12398 0.0
C366 C 0.68953 0.77412 0.13093 0.0
C367 C 0.69337 0.79644 0.14025 0.0
C368 C 0.67004 0.82837 0.10563 0.0
C369 C 0.64725 0.81925 0.09428 0.0
C370 C 0.6421 0.80915 0.07024 0.0
C371 C 0.65965 0.80792 0.05719 0.0
C372 C 0.68254 0.81724 0.06864 0.0
C373 C 0.68767 0.82739 0.09264 0.0
C374 C 0.67076 0.87269 0.12027 0.0
C375 C 0.64903 0.87216 0.12082 0.0
C376 C 0.64452 0.88678 0.10637 0.0
C377 C 0.66162 0.90201 0.09107 0.0
C378 C 0.68293 0.90173 0.08956 0.0
C379 C 0.68749 0.8871 0.10415 0.0
C380 C 0.6826 0.89185 0.17018 0.0
C381 C 0.66379 0.89174 0.18184 0.0
C382 C 0.66423 0.91328 0.18761 0.0
C383 C 0.68355 0.93532 0.18186 0.0
C384 C 0.7024 0.9353 0.17024 0.0
C385 C 0.7019 0.91374 0.16441 0.0
C386 C 0.68815 0.86449 0.20717 0.0
C387 C 0.66909 0.85373 0.22215 0.0
C388 C 0.6705 0.86452 0.24524 0.0
C389 C 0.691 0.88615 0.25363 0.0
C390 C 0.71062 0.89617 0.23925 0.0
C391 C 0.70917 0.88542 0.21609 0.0
C392 C 0.68484 0.8187 0.19346 0.0
C393 C 0.66465 0.79746 0.19924 0.0
C394 C 0.66616 0.78455 0.2182 0.0
C395 C 0.68786 0.79278 0.23169 0.0
C396 C 0.70816 0.81378 0.22569 0.0
C397 C 0.70665 0.82668 0.20667 0.0
C398 C 0.65401 0.79679 0.03181 0.0
C399 C 0.68404 0.95824 0.18784 0.0
H400 H 0.16962 0.81613 0.99269 0.0
H401 H 0.32982 0.97468 0.21856 0.0
H402 H 0.13544 0.82401 0.11374 0.0
H403 H 0.10349 0.78602 0.09324 0.0
H404 H 0.12798 0.74669 0.13477 0.0
H405 H 0.1601 0.78461 0.155 0.0
H406 H 0.18116 0.86333 0.08976 0.0
H407 H 0.17557 0.84905 0.04668 0.0
H408 H 0.1844 0.78983 0.06656 0.0
H409 H 0.19005 0.80437 0.10954 0.0
H410 H 0.22498 0.90936 0.12085 0.0
H411 H 0.25853 0.93199 0.09547 0.0
H412 H 0.27166 0.87282 0.09147 0.0
H413 H 0.23838 0.85035 0.11699 0.0
H414 H 0.2155 0.91453 0.17849 0.0
H415 H 0.24993 0.95123 0.19733 0.0
H416 H 0.29395 0.91957 0.18615 0.0
H417 H 0.25928 0.88285 0.16749 0.0
H418 H 0.17502 0.87702 0.20828 0.0
H419 H 0.187 0.89309 0.25123 0.0
H420 H 0.24208 0.87472 0.25115 0.0
H421 H 0.22994 0.8584 0.20858 0.0
H422 H 0.13114 0.83124 0.17479 0.0
H423 H 0.10402 0.81097 0.20691 0.0
H424 H 0.1539 0.79248 0.23775 0.0
H425 H 0.18079 0.8124 0.20559 0.0
O426 O 0.17205 0.82156 0.00981 0.0
O427 O 0.17619 0.79115 0.02106 0.0
O428 O 0.29359 0.9774 0.21254 0.0
O429 O 0.31622 0.96077 0.21016 0.0
C430 C 0.17166 0.83 0.14517 0.0
C431 C 0.18916 0.84348 0.12886 0.0
C432 C 0.21007 0.865 0.13744 0.0
C433 C 0.21344 0.87312 0.16233 0.0
C434 C 0.19648 0.85923 0.17881 0.0
C435 C 0.1755 0.83774 0.17027 0.0
C436 C 0.15009 0.80708 0.13589 0.0
C437 C 0.13364 0.80717 0.11875 0.0
C438 C 0.11551 0.78559 0.10705 0.0
C439 C 0.11355 0.76367 0.11247 0.0
C440 C 0.12927 0.76348 0.13042 0.0
C441 C 0.14745 0.78504 0.14203 0.0
C442 C 0.18587 0.8348 0.10274 0.0
C443 C 0.18191 0.8473 0.08474 0.0
C444 C 0.1787 0.83909 0.06017 0.0
C445 C 0.17946 0.81825 0.05318 0.0
C446 C 0.18365 0.8059 0.07131 0.0
C447 C 0.18681 0.81412 0.09587 0.0
C448 C 0.22922 0.8782 0.12074 0.0
C449 C 0.23498 0.90122 0.11433 0.0
C450 C 0.254 0.91406 0.09985 0.0
C451 C 0.26745 0.90399 0.09161 0.0
C452 C 0.26138 0.88079 0.09758 0.0
C453 C 0.24243 0.868 0.11207 0.0
C454 C 0.23493 0.8961 0.17156 0.0
C455 C 0.23265 0.91566 0.1799 0.0
C456 C 0.25233 0.93658 0.19068 0.0
C457 C 0.27467 0.93828 0.19337 0.0
C458 C 0.27699 0.91881 0.18446 0.0
C459 C 0.25726 0.89789 0.17365 0.0
C460 C 0.20173 0.8667 0.20533 0.0
C461 C 0.18939 0.87612 0.21769 0.0
C462 C 0.19622 0.8853 0.24204 0.0
C463 C 0.21546 0.88513 0.25415 0.0
C464 C 0.22722 0.87499 0.24201 0.0
C465 C 0.22034 0.86574 0.21782 0.0
C466 C 0.15795 0.82333 0.1879 0.0
C467 C 0.13602 0.82247 0.18825 0.0
C468 C 0.12066 0.81105 0.20655 0.0
C469 C 0.1271 0.80038 0.22467 0.0
C470 C 0.1487 0.80067 0.22392 0.0
C471 C 0.16397 0.81197 0.20561 0.0
C472 C 0.17582 0.80944 0.02709 0.0
C473 C 0.29536 0.96006 0.20585 0.0
H474 H 0.35235 0.19985 0.0743 0.0
H475 H 0.35584 0.03305 0.87155 0.0
H476 H 0.30762 0.18631 0.94966 0.0
H477 H 0.31487 0.22523 0.96777 0.0
H478 H 0.3791 0.26167 0.92997 0.0
H479 H 0.37202 0.22284 0.91209 0.0
H480 H 0.31382 0.14845 0.97827 0.0
H481 H 0.32367 0.16477 0.02088 0.0
H482 H 0.39268 0.2204 0.00178 0.0
H483 H 0.38258 0.20388 0.95927 0.0
H484 H 0.31037 0.10185 0.95288 0.0
H485 H 0.32156 0.0773 0.97676 0.0
H486 H 0.39548 0.13179 0.97599 0.0
H487 H 0.38427 0.15638 0.95236 0.0
H488 H 0.29704 0.09045 0.89706 0.0
H489 H 0.29652 0.0533 0.8843 0.0
H490 H 0.37341 0.09202 0.88963 0.0
H491 H 0.37362 0.12899 0.9024 0.0
H492 H 0.29084 0.12134 0.86178 0.0
H493 H 0.28632 0.10113 0.82108 0.0
H494 H 0.36251 0.13429 0.82077 0.0
H495 H 0.36699 0.15419 0.86133 0.0
H496 H 0.29519 0.17633 0.88799 0.0
H497 H 0.28968 0.1978 0.85475 0.0
H498 H 0.35839 0.21565 0.83041 0.0
H499 H 0.36405 0.19464 0.86372 0.0
O500 O 0.34891 0.19354 0.05742 0.0
O501 O 0.384 0.222 0.04654 0.0
O502 O 0.31601 0.02853 0.87332 0.0
O503 O 0.35551 0.04745 0.87654 0.0
C504 C 0.33722 0.17836 0.92204 0.0
C505 C 0.34126 0.16538 0.93986 0.0
C506 C 0.34038 0.14362 0.93291 0.0
C507 C 0.33558 0.13482 0.90819 0.0
C508 C 0.33208 0.14795 0.89033 0.0
C509 C 0.33286 0.16973 0.89717 0.0
C510 C 0.33928 0.20177 0.92953 0.0
C511 C 0.32298 0.20272 0.9449 0.0
C512 C 0.32711 0.22482 0.95521 0.0
C513 C 0.34756 0.24618 0.95023 0.0
C514 C 0.36322 0.24532 0.93395 0.0
C515 C 0.35912 0.22324 0.92368 0.0
C516 C 0.34743 0.17508 0.96573 0.0
C517 C 0.33106 0.16412 0.98337 0.0
C518 C 0.33673 0.1735 0.00767 0.0
C519 C 0.35894 0.19395 0.01472 0.0
C520 C 0.37541 0.20467 0.99697 0.0
C521 C 0.36968 0.19532 0.97268 0.0
C522 C 0.34653 0.13088 0.95096 0.0
C523 C 0.32891 0.10876 0.95846 0.0
C524 C 0.33527 0.0948 0.97201 0.0
C525 C 0.35933 0.10276 0.97799 0.0
C526 C 0.37684 0.12544 0.97159 0.0
C527 C 0.37046 0.13944 0.9582 0.0
C528 C 0.33535 0.1123 0.90072 0.0
C529 C 0.31372 0.09081 0.89549 0.0
C530 C 0.31349 0.06965 0.88821 0.0
C531 C 0.33494 0.06969 0.88596 0.0
C532 C 0.35659 0.09135 0.89117 0.0
C533 C 0.35677 0.11247 0.89853 0.0
C534 C 0.32924 0.1393 0.86432 0.0
C535 C 0.30653 0.12468 0.85262 0.0
C536 C 0.30396 0.11314 0.82957 0.0
C537 C 0.32412 0.11629 0.81811 0.0
C538 C 0.34682 0.13178 0.82937 0.0
C539 C 0.34937 0.14316 0.85238 0.0
C540 C 0.32993 0.18376 0.87811 0.0
C541 C 0.30911 0.18506 0.8756 0.0
C542 C 0.30596 0.19721 0.85671 0.0
C543 C 0.32361 0.20815 0.84016 0.0
C544 C 0.34458 0.20723 0.84299 0.0
C545 C 0.34777 0.19522 0.86188 0.0
C546 C 0.3648 0.20406 0.04048 0.0
C547 C 0.33481 0.04728 0.87822 0.0
H548 H 0.83223 0.22158 0.07048 0.0
H549 H 0.69274 0.0099 0.88152 0.0
H550 H 0.84513 0.21911 0.9383 0.0
H551 H 0.87972 0.25638 0.95653 0.0
H552 H 0.92077 0.2209 0.95887 0.0
H553 H 0.88616 0.18361 0.94014 0.0
H554 H 0.80205 0.18446 0.96861 0.0
H555 H 0.8095 0.20179 0.01075 0.0
H556 H 0.86306 0.18194 0.0229 0.0
H557 H 0.85518 0.16438 0.98082 0.0
H558 H 0.75989 0.13986 0.93677 0.0
H559 H 0.72731 0.11833 0.96334 0.0
H560 H 0.76994 0.09614 0.00375 0.0
H561 H 0.80258 0.11757 0.97695 0.0
H562 H 0.76333 0.12876 0.88204 0.0
H563 H 0.72686 0.09192 0.86697 0.0
H564 H 0.74745 0.05067 0.91088 0.0
H565 H 0.78409 0.08761 0.92545 0.0
H566 H 0.80816 0.16586 0.85821 0.0
H567 H 0.79569 0.14875 0.81582 0.0
H568 H 0.8011 0.08733 0.83395 0.0
H569 H 0.81374 0.10452 0.8764 0.0
H570 H 0.8501 0.21047 0.8882 0.0
H571 H 0.87679 0.23069 0.85596 0.0
H572 H 0.89143 0.17269 0.84796 0.0
H573 H 0.86509 0.15265 0.88059 0.0
O574 O 0.82935 0.21435 0.05398 0.0
O575 O 0.85698 0.2041 0.05914 0.0
O576 O 0.69925 0.0463 0.86216 0.0
O577 O 0.70693 0.02475 0.88739 0.0
C578 C 0.84155 0.17578 0.92928 0.0
C579 C 0.82407 0.16339 0.94591 0.0
C580 C 0.80267 0.14222 0.93783 0.0
C581 C 0.79896 0.13314 0.91318 0.0
C582 C 0.81652 0.14541 0.89655 0.0
C583 C 0.83782 0.16682 0.9046 0.0
C584 C 0.86324 0.19877 0.93781 0.0
C585 C 0.8617 0.2195 0.94235 0.0
C586 C 0.88133 0.24064 0.95277 0.0
C587 C 0.90268 0.24127 0.959 0.0
C588 C 0.90441 0.22067 0.95409 0.0
C589 C 0.88479 0.19955 0.94336 0.0
C590 C 0.82803 0.17313 0.97172 0.0
C591 C 0.81523 0.1837 0.98048 0.0
C592 C 0.81959 0.19366 0.00452 0.0
C593 C 0.83691 0.19329 0.02019 0.0
C594 C 0.84961 0.18253 0.01133 0.0
C595 C 0.84516 0.17251 0.98732 0.0
C596 C 0.78354 0.13016 0.95484 0.0
C597 C 0.76227 0.13046 0.95141 0.0
C598 C 0.74378 0.11831 0.96658 0.0
C599 C 0.74633 0.10579 0.98551 0.0
C600 C 0.76777 0.10586 0.98932 0.0
C601 C 0.78629 0.11801 0.97407 0.0
C602 C 0.77644 0.11083 0.90467 0.0
C603 C 0.75998 0.11174 0.88829 0.0
C604 C 0.73914 0.09068 0.87977 0.0
C605 C 0.73431 0.06833 0.88763 0.0
C606 C 0.75066 0.06757 0.9044 0.0
C607 C 0.77157 0.08863 0.91279 0.0
C608 C 0.81181 0.13641 0.87039 0.0
C609 C 0.80713 0.14895 0.85295 0.0
C610 C 0.79997 0.13919 0.82886 0.0
C611 C 0.79738 0.11676 0.8219 0.0
C612 C 0.80301 0.10466 0.83906 0.0
C613 C 0.81017 0.11442 0.86318 0.0
C614 C 0.85577 0.18016 0.88687 0.0
C615 C 0.85949 0.20239 0.87993 0.0
C616 C 0.87459 0.21385 0.86152 0.0
C617 C 0.88603 0.20314 0.84971 0.0
C618 C 0.8828 0.18122 0.85701 0.0
C619 C 0.86781 0.16983 0.87553 0.0
C620 C 0.84175 0.2042 0.04561 0.0
C621 C 0.71241 0.04587 0.87827 0.0
H622 H 0.85132 0.64664 0.08167 0.0
H623 H 0.70141 0.67336 0.88536 0.0
H624 H 0.88863 0.69182 0.96018 0.0
H625 H 0.91767 0.68382 0.98087 0.0
H626 H 0.88552 0.61436 0.94107 0.0
H627 H 0.85625 0.62226 0.9205 0.0
H628 H 0.84831 0.68771 0.98999 0.0
H629 H 0.85188 0.67726 0.03152 0.0
H630 H 0.82733 0.6041 0.00395 0.0
H631 H 0.82406 0.61488 0.96251 0.0
H632 H 0.80706 0.69389 0.96841 0.0
H633 H 0.77506 0.68509 0.99596 0.0
H634 H 0.74773 0.60915 0.98117 0.0
H635 H 0.77979 0.61792 0.95408 0.0
H636 H 0.81634 0.70981 0.90723 0.0
H637 H 0.78527 0.71876 0.89538 0.0
H638 H 0.73186 0.64452 0.90203 0.0
H639 H 0.76315 0.6357 0.91334 0.0
H640 H 0.85169 0.70558 0.87229 0.0
H641 H 0.83969 0.71112 0.83115 0.0
H642 H 0.77659 0.64112 0.8292 0.0
H643 H 0.7886 0.63551 0.86998 0.0
H644 H 0.89241 0.69548 0.89877 0.0
H645 H 0.9145 0.69434 0.86482 0.0
H646 H 0.85166 0.62941 0.83437 0.0
H647 H 0.83087 0.63027 0.86865 0.0
O648 O 0.8497 0.65036 0.06513 0.0
O649 O 0.8373 0.61307 0.04997 0.0
O650 O 0.74231 0.7078 0.88516 0.0
O651 O 0.71403 0.67029 0.89002 0.0
C652 C 0.84982 0.66038 0.9308 0.0
C653 C 0.83352 0.65835 0.94823 0.0
C654 C 0.8141 0.66133 0.94169 0.0
C655 C 0.81117 0.66692 0.91782 0.0
C656 C 0.82647 0.66751 0.89991 0.0
C657 C 0.84576 0.66403 0.90629 0.0
C658 C 0.87039 0.65769 0.93869 0.0
C659 C 0.88826 0.67516 0.95537 0.0
C660 C 0.90472 0.67056 0.96726 0.0
C661 C 0.90364 0.64848 0.96255 0.0
C662 C 0.88664 0.63153 0.94487 0.0
C663 C 0.87009 0.6361 0.93302 0.0
C664 C 0.83613 0.65209 0.97331 0.0
C665 C 0.84382 0.66948 0.993 0.0
C666 C 0.84579 0.66344 0.01667 0.0
C667 C 0.83994 0.63985 0.02105 0.0
C668 C 0.83201 0.62243 0.00122 0.0
C669 C 0.83023 0.62855 0.97754 0.0
C670 C 0.79569 0.65653 0.95927 0.0
C671 C 0.79429 0.67539 0.97133 0.0
C672 C 0.77615 0.67039 0.98701 0.0
C673 C 0.75908 0.64647 0.99049 0.0
C674 C 0.76075 0.62769 0.97869 0.0
C675 C 0.77899 0.63268 0.9633 0.0
C676 C 0.79199 0.67218 0.9114 0.0
C677 C 0.79791 0.69552 0.90617 0.0
C678 C 0.78013 0.70057 0.8994 0.0
C679 C 0.75606 0.68236 0.89783 0.0
C680 C 0.7502 0.65898 0.90314 0.0
C681 C 0.76803 0.65392 0.90976 0.0
C682 C 0.82096 0.67018 0.87415 0.0
C683 C 0.83549 0.69131 0.8628 0.0
C684 C 0.82865 0.69449 0.83947 0.0
C685 C 0.80724 0.67652 0.8273 0.0
C686 C 0.79315 0.65515 0.83835 0.0
C687 C 0.79998 0.65197 0.86155 0.0
C688 C 0.8603 0.66238 0.88686 0.0
C689 C 0.88402 0.68025 0.88532 0.0
C690 C 0.89686 0.67914 0.86586 0.0
C691 C 0.88672 0.65955 0.84778 0.0
C692 C 0.86212 0.6429 0.84884 0.0
C693 C 0.8495 0.64379 0.8684 0.0
C694 C 0.84219 0.63353 0.0462 0.0
C695 C 0.73714 0.68767 0.89061 0.0
H696 H 0.85137 0.72883 0.33576 0.0
H697 H 0.97459 0.65566 0.52267 0.0
H698 H 0.83678 0.72516 0.4734 0.0
H699 H 0.80777 0.732 0.4509 0.0
H700 H 0.76074 0.65547 0.43823 0.0
H701 H 0.78997 0.64861 0.46063 0.0
H702 H 0.87472 0.72817 0.43928 0.0
H703 H 0.86989 0.73562 0.39682 0.0
H704 H 0.81781 0.66027 0.38128 0.0
H705 H 0.82278 0.65313 0.42382 0.0
H706 H 0.91687 0.72427 0.46883 0.0
H707 H 0.9484 0.73218 0.44124 0.0
H708 H 0.90215 0.66449 0.40032 0.0
H709 H 0.87064 0.65632 0.42825 0.0
H710 H 0.91455 0.71425 0.5206 0.0
H711 H 0.94951 0.7123 0.53467 0.0
H712 H 0.92038 0.64269 0.4952 0.0
H713 H 0.88533 0.64475 0.48156 0.0
H714 H 0.87888 0.70976 0.54818 0.0
H715 H 0.89115 0.70325 0.58849 0.0
H716 H 0.8607 0.62793 0.56666 0.0
H717 H 0.8483 0.63445 0.52627 0.0
H718 H 0.84198 0.71177 0.53607 0.0
H719 H 0.81719 0.70482 0.57078 0.0
H720 H 0.77071 0.63149 0.54223 0.0
H721 H 0.79611 0.63822 0.50791 0.0
O722 O 0.85309 0.72548 0.35243 0.0
O723 O 0.82645 0.68658 0.34539 0.0
O724 O 0.97436 0.69199 0.53853 0.0
O725 O 0.96097 0.65689 0.5173 0.0
C726 C 0.83522 0.68278 0.47701 0.0
C727 C 0.85227 0.68562 0.4602 0.0
C728 C 0.87274 0.68483 0.46784 0.0
C729 C 0.87592 0.68058 0.49222 0.0
C730 C 0.85873 0.67722 0.50896 0.0
C731 C 0.83839 0.67845 0.50145 0.0
C732 C 0.81535 0.68639 0.46891 0.0
C733 C 0.81989 0.70986 0.46648 0.0
C734 C 0.80347 0.71376 0.45351 0.0
C735 C 0.78222 0.69424 0.44286 0.0
C736 C 0.77704 0.67072 0.44641 0.0
C737 C 0.79356 0.66682 0.45933 0.0
C738 C 0.84903 0.69015 0.43455 0.0
C739 C 0.86226 0.71334 0.42665 0.0
C740 C 0.85947 0.71752 0.4024 0.0
C741 C 0.84346 0.69854 0.38564 0.0
C742 C 0.83031 0.67528 0.39369 0.0
C743 C 0.83303 0.67116 0.41798 0.0
C744 C 0.8915 0.68967 0.45062 0.0
C745 C 0.91352 0.71112 0.45394 0.0
C746 C 0.93141 0.71568 0.43819 0.0
C747 C 0.9275 0.69895 0.41876 0.0
C748 C 0.90539 0.67763 0.41516 0.0
C749 C 0.8875 0.67299 0.43105 0.0
C750 C 0.89735 0.67954 0.50027 0.0
C751 C 0.91571 0.69854 0.51515 0.0
C752 C 0.93568 0.69741 0.52307 0.0
C753 C 0.93771 0.67729 0.51611 0.0
C754 C 0.91936 0.65841 0.50094 0.0
C755 C 0.89934 0.65953 0.4931 0.0
C756 C 0.86246 0.67252 0.53443 0.0
C757 C 0.87422 0.69173 0.55233 0.0
C758 C 0.88133 0.68806 0.5752 0.0
C759 C 0.87684 0.66515 0.58042 0.0
C760 C 0.86422 0.64571 0.5629 0.0
C761 C 0.8571 0.6494 0.53999 0.0
C762 C 0.8209 0.67548 0.51953 0.0
C763 C 0.82628 0.6943 0.53711 0.0
C764 C 0.81221 0.69033 0.55689 0.0
C765 C 0.7923 0.66758 0.55918 0.0
C766 C 0.78607 0.64912 0.54081 0.0
C767 C 0.80043 0.65299 0.52122 0.0
C768 C 0.84044 0.70306 0.35993 0.0
C769 C 0.95881 0.67593 0.52469 0.0
H770 H 0.28663 0.10904 0.34483 0.0
H771 H 0.36435 0.32423 0.52384 0.0
H772 H 0.30127 0.1152 0.47744 0.0
H773 H 0.29421 0.07641 0.4596 0.0
H774 H 0.36977 0.10377 0.46311 0.0
H775 H 0.37687 0.14281 0.48104 0.0
H776 H 0.296 0.14901 0.44498 0.0
H777 H 0.28522 0.13092 0.40303 0.0
H778 H 0.35771 0.14773 0.3958 0.0
H779 H 0.36827 0.16597 0.43771 0.0
H780 H 0.29858 0.19009 0.47403 0.0
H781 H 0.28828 0.21476 0.44951 0.0
H782 H 0.35535 0.24354 0.41657 0.0
H783 H 0.36581 0.2189 0.44142 0.0
H784 H 0.3135 0.20515 0.52579 0.0
H785 H 0.31311 0.24225 0.53617 0.0
H786 H 0.38017 0.28294 0.50358 0.0
H787 H 0.38025 0.24566 0.49323 0.0
H788 H 0.32101 0.17001 0.55514 0.0
H789 H 0.32472 0.1899 0.59555 0.0
H790 H 0.39487 0.2466 0.58169 0.0
H791 H 0.39111 0.22672 0.54112 0.0
H792 H 0.31641 0.12388 0.53 0.0
H793 H 0.32178 0.10307 0.56374 0.0
H794 H 0.3966 0.15581 0.57141 0.0
H795 H 0.39123 0.17666 0.53757 0.0
O796 O 0.29136 0.11666 0.36123 0.0
O797 O 0.32881 0.1255 0.35856 0.0
O798 O 0.33023 0.2877 0.53764 0.0
O799 O 0.36416 0.30931 0.52015 0.0
C800 C 0.34352 0.15596 0.4878 0.0
C801 C 0.3392 0.16881 0.47011 0.0
C802 C 0.34028 0.19063 0.47714 0.0
C803 C 0.34658 0.20014 0.50164 0.0
C804 C 0.35139 0.18763 0.51926 0.0
C805 C 0.34976 0.16542 0.51239 0.0
C806 C 0.33957 0.13174 0.48052 0.0
C807 C 0.31629 0.1127 0.47478 0.0
C808 C 0.31228 0.09069 0.46457 0.0
C809 C 0.33148 0.08737 0.46003 0.0
C810 C 0.35478 0.10609 0.46658 0.0
C811 C 0.35881 0.12821 0.47685 0.0
C812 C 0.33294 0.15895 0.44427 0.0
C813 C 0.30957 0.14903 0.43419 0.0
C814 C 0.30345 0.13859 0.41027 0.0
C815 C 0.3206 0.13785 0.39606 0.0
C816 C 0.34407 0.14802 0.40622 0.0
C817 C 0.35016 0.15846 0.43013 0.0
C818 C 0.33294 0.20279 0.4595 0.0
C819 C 0.31088 0.20138 0.46121 0.0
C820 C 0.30502 0.2154 0.44728 0.0
C821 C 0.32108 0.2309 0.43134 0.0
C822 C 0.34275 0.23156 0.42875 0.0
C823 C 0.34866 0.21754 0.44281 0.0
C824 C 0.34699 0.2228 0.50895 0.0
C825 C 0.32817 0.22213 0.5211 0.0
C826 C 0.32794 0.24332 0.52688 0.0
C827 C 0.34663 0.26558 0.52071 0.0
C828 C 0.36553 0.26613 0.50865 0.0
C829 C 0.36566 0.2449 0.50276 0.0
C830 C 0.35579 0.19694 0.54525 0.0
C831 C 0.33746 0.18633 0.56109 0.0
C832 C 0.33952 0.1977 0.58403 0.0
C833 C 0.35997 0.21976 0.5914 0.0
C834 C 0.37898 0.22958 0.57622 0.0
C835 C 0.37685 0.21826 0.5532 0.0
C836 C 0.35346 0.15169 0.53126 0.0
C837 C 0.33403 0.13072 0.53866 0.0
C838 C 0.33707 0.11893 0.5579 0.0
C839 C 0.35956 0.12797 0.57002 0.0
C840 C 0.37914 0.1486 0.56222 0.0
C841 C 0.37608 0.16043 0.543 0.0
C842 C 0.31395 0.12635 0.37082 0.0
C843 C 0.34643 0.28813 0.52673 0.0
H844 H 0.82319 0.14363 0.32548 0.0
H845 H 0.99677 0.32274 0.52052 0.0
H846 H 0.79924 0.15639 0.45022 0.0
H847 H 0.76655 0.11788 0.43152 0.0
H848 H 0.79574 0.08024 0.46881 0.0
H849 H 0.8286 0.11872 0.48725 0.0
H850 H 0.84084 0.19403 0.42194 0.0
H851 H 0.83214 0.1781 0.37922 0.0
H852 H 0.84706 0.12242 0.3978 0.0
H853 H 0.85574 0.13856 0.44043 0.0
H854 H 0.88509 0.24138 0.44784 0.0
H855 H 0.91756 0.26483 0.42155 0.0
H856 H 0.93598 0.20932 0.41976 0.0
H857 H 0.90356 0.1859 0.44584 0.0
H858 H 0.87937 0.24765 0.50969 0.0
H859 H 0.91339 0.28769 0.52136 0.0
H860 H 0.96113 0.26241 0.5018 0.0
H861 H 0.92701 0.22246 0.49034 0.0
H862 H 0.84186 0.20221 0.54709 0.0
H863 H 0.85576 0.21355 0.59035 0.0
H864 H 0.92196 0.21765 0.57437 0.0
H865 H 0.9066 0.20257 0.53242 0.0
H866 H 0.79903 0.16314 0.50931 0.0
H867 H 0.77342 0.14216 0.54211 0.0
H868 H 0.82691 0.128 0.57161 0.0
H869 H 0.85237 0.14859 0.5386 0.0
O870 O 0.82691 0.14976 0.34242 0.0
O871 O 0.83434 0.12123 0.35303 0.0
O872 O 0.95776 0.31876 0.52739 0.0
O873 O 0.98301 0.30702 0.51624 0.0
C874 C 0.83808 0.16364 0.47794 0.0
C875 C 0.85381 0.17692 0.4602 0.0
C876 C 0.87459 0.19906 0.46713 0.0
C877 C 0.87981 0.20795 0.49189 0.0
C878 C 0.86506 0.19394 0.51 0.0
C879 C 0.84384 0.1719 0.50293 0.0
C880 C 0.81629 0.14035 0.4701 0.0
C881 C 0.79833 0.13981 0.45472 0.0
C882 C 0.77977 0.11794 0.44406 0.0
C883 C 0.7789 0.09636 0.44876 0.0
C884 C 0.79618 0.09677 0.46505 0.0
C885 C 0.81479 0.11864 0.47564 0.0
C886 C 0.84879 0.16736 0.43425 0.0
C887 C 0.84226 0.17843 0.41671 0.0
C888 C 0.83728 0.16927 0.39234 0.0
C889 C 0.83883 0.14893 0.3851 0.0
C890 C 0.84565 0.13807 0.40275 0.0
C891 C 0.85055 0.1472 0.42712 0.0
C892 C 0.89203 0.21198 0.44879 0.0
C893 C 0.89585 0.2341 0.44138 0.0
C894 C 0.91428 0.24741 0.42641 0.0
C895 C 0.92915 0.23878 0.41882 0.0
C896 C 0.92465 0.21621 0.42538 0.0
C897 C 0.90619 0.20288 0.44021 0.0
C898 C 0.90069 0.23221 0.49891 0.0
C899 C 0.8972 0.25081 0.50792 0.0
C900 C 0.91665 0.27366 0.51457 0.0
C901 C 0.93999 0.27829 0.51237 0.0
C902 C 0.94341 0.25951 0.50358 0.0
C903 C 0.92394 0.23669 0.49689 0.0
C904 C 0.87322 0.20163 0.53631 0.0
C905 C 0.85912 0.20499 0.55302 0.0
C906 C 0.86718 0.21177 0.57764 0.0
C907 C 0.89008 0.2168 0.58566 0.0
C908 C 0.90428 0.21396 0.56876 0.0
C909 C 0.89562 0.20566 0.54466 0.0
C910 C 0.82764 0.15751 0.52162 0.0
C911 C 0.80509 0.15522 0.52263 0.0
C912 C 0.79056 0.14338 0.54133 0.0
C913 C 0.79839 0.1337 0.55927 0.0
C914 C 0.82064 0.13543 0.55793 0.0
C915 C 0.83511 0.14714 0.53915 0.0
C916 C 0.83326 0.13908 0.35926 0.0
C917 C 0.96071 0.30259 0.51916 0.0
H918 H 0.00893 0.53057 0.40416 0.0
H919 H 0.00979 0.35924 0.20347 0.0
H920 H 0.97377 0.52121 0.27691 0.0
H921 H 0.98032 0.5599 0.29489 0.0
H922 H 0.04722 0.5968 0.26168 0.0
H923 H 0.04085 0.55819 0.24397 0.0
H924 H 0.97692 0.48189 0.30626 0.0
H925 H 0.98383 0.49703 0.34917 0.0
H926 H 0.05445 0.5533 0.33514 0.0
H927 H 0.04728 0.53798 0.2923 0.0
H928 H 0.97543 0.43459 0.28131 0.0
H929 H 0.98632 0.41048 0.30638 0.0
H930 H 0.05947 0.46784 0.31187 0.0
H931 H 0.04862 0.49189 0.28703 0.0
H932 H 0.96279 0.42959 0.2192 0.0
H933 H 0.95826 0.39087 0.20512 0.0
H934 H 0.03212 0.4177 0.22739 0.0
H935 H 0.03631 0.45615 0.24174 0.0
H936 H 0.97123 0.47398 0.18014 0.0
H937 H 0.97346 0.45893 0.13891 0.0
H938 H 0.03792 0.46038 0.16319 0.0
H939 H 0.03778 0.47907 0.20251 0.0
H940 H 0.96675 0.51432 0.21659 0.0
H941 H 0.96274 0.53598 0.18277 0.0
H942 H 0.03112 0.55111 0.15984 0.0
H943 H 0.03537 0.52988 0.19384 0.0
O944 O 1.00664 0.52476 0.38718 0.0
O945 O 0.04261 0.5536 0.37888 0.0
O946 O 0.97333 0.3616 0.19717 0.0
O947 O 0.01102 0.37431 0.209 0.0
C948 C 1.00496 0.51351 0.25184 0.0
C949 C 1.00718 0.49986 0.27013 0.0
C950 C 1.00598 0.47785 0.26363 0.0
C951 C 1.00264 0.46949 0.23883 0.0
C952 C 1.00237 0.48398 0.2204 0.0
C953 C 1.00286 0.50575 0.22689 0.0
C954 C 1.00683 0.5369 0.25912 0.0
C955 C 0.9896 0.53769 0.27312 0.0
C956 C 0.99332 0.55965 0.28336 0.0
C957 C 0.01428 0.58106 0.27964 0.0
C958 C 0.03094 0.58041 0.26467 0.0
C959 C 0.02726 0.55846 0.25449 0.0
C960 C 0.01153 0.50895 0.29619 0.0
C961 C 0.99386 0.49747 0.31253 0.0
C962 C 0.99786 0.50617 0.337 0.0
C963 C 0.01966 0.52644 0.34557 0.0
C964 C 0.03744 0.53769 0.32914 0.0
C965 C 0.03338 0.52903 0.30466 0.0
C966 C 0.01125 0.46496 0.28234 0.0
C967 C 0.99367 0.44218 0.2885 0.0
C968 C 0.99986 0.42849 0.30276 0.0
C969 C 0.02371 0.43741 0.31083 0.0
C970 C 0.04099 0.46073 0.30586 0.0
C971 C 0.0348 0.47442 0.29176 0.0
C972 C 0.99976 0.44556 0.23182 0.0
C973 C 0.97788 0.42694 0.2213 0.0
C974 C 0.97538 0.4049 0.21318 0.0
C975 C 0.99482 0.40114 0.21526 0.0
C976 C 0.01675 0.41991 0.22568 0.0
C977 C 0.01916 0.44184 0.23408 0.0
C978 C 1.00407 0.4771 0.19461 0.0
C979 C 0.98621 0.47177 0.17627 0.0
C980 C 0.98732 0.46288 0.15289 0.0
C981 C 1.00552 0.45787 0.14804 0.0
C982 C 0.02357 0.46384 0.16635 0.0
C983 C 0.02335 0.47426 0.18895 0.0
C984 C 1.00128 0.52037 0.20759 0.0
C985 C 0.981 0.52257 0.20447 0.0
C986 C 0.97868 0.53482 0.18521 0.0
C987 C 0.99659 0.54496 0.16883 0.0
C988 C 0.01712 0.5433 0.1723 0.0
C989 C 0.01951 0.53121 0.19162 0.0
C990 C 0.02376 0.53581 0.37151 0.0
C991 C 0.99231 0.37781 0.20656 0.0
H992 H 0.50333 0.55701 0.40136 0.0
H993 H 0.36033 0.34329 0.21711 0.0
H994 H 0.51479 0.55123 0.26686 0.0
H995 H 0.54822 0.58924 0.28539 0.0
H996 H 0.58986 0.55495 0.29487 0.0
H997 H 0.55644 0.51692 0.27583 0.0
H998 H 0.47291 0.5174 0.30017 0.0
H999 H 0.48045 0.53576 0.3419 0.0
H1000 H 0.53338 0.51537 0.35581 0.0
H1001 H 0.52547 0.49687 0.31411 0.0
H1002 H 0.42989 0.47028 0.27035 0.0
H1003 H 0.39772 0.44748 0.29696 0.0
H1004 H 0.44278 0.42807 0.33709 0.0
H1005 H 0.47491 0.45051 0.31009 0.0
H1006 H 0.43387 0.46155 0.21587 0.0
H1007 H 0.39624 0.42541 0.20211 0.0
H1008 H 0.41633 0.38289 0.24453 0.0
H1009 H 0.45408 0.41915 0.25788 0.0
H1010 H 0.47797 0.49701 0.19092 0.0
H1011 H 0.4643 0.47903 0.14896 0.0
H1012 H 0.47029 0.41805 0.16754 0.0
H1013 H 0.48423 0.43617 0.20956 0.0
H1014 H 0.51739 0.53987 0.21693 0.0
H1015 H 0.54453 0.55972 0.18487 0.0
H1016 H 0.56613 0.50663 0.18522 0.0
H1017 H 0.53877 0.4866 0.2172 0.0
O1018 O 0.50037 0.54933 0.38506 0.0
O1019 O 0.52759 0.53866 0.39117 0.0
O1020 O 0.36625 0.38035 0.19973 0.0
O1021 O 0.37514 0.35783 0.22221 0.0
C1022 C 0.51201 0.50798 0.26175 0.0
C1023 C 0.49474 0.49561 0.27857 0.0
C1024 C 0.47344 0.47421 0.27078 0.0
C1025 C 0.46956 0.46501 0.24614 0.0
C1026 C 0.48701 0.47718 0.22937 0.0
C1027 C 0.50826 0.49872 0.2372 0.0
C1028 C 0.53331 0.53144 0.26989 0.0
C1029 C 0.5313 0.55206 0.27244 0.0
C1030 C 0.55026 0.57362 0.28306 0.0
C1031 C 0.57139 0.57478 0.29147 0.0
C1032 C 0.57367 0.55432 0.28839 0.0
C1033 C 0.55474 0.53277 0.27748 0.0
C1034 C 0.49863 0.50581 0.30419 0.0
C1035 C 0.48598 0.51676 0.31234 0.0
C1036 C 0.49039 0.5273 0.33615 0.0
C1037 C 0.50757 0.52709 0.35218 0.0
C1038 C 0.52005 0.51587 0.34394 0.0
C1039 C 0.51559 0.50531 0.32015 0.0
C1040 C 0.45468 0.4619 0.28814 0.0
C1041 C 0.43289 0.4612 0.28493 0.0
C1042 C 0.41462 0.44833 0.30012 0.0
C1043 C 0.41796 0.43618 0.31894 0.0
C1044 C 0.43998 0.43744 0.3227 0.0
C1045 C 0.45823 0.4502 0.30735 0.0
C1046 C 0.44678 0.44294 0.23772 0.0
C1047 C 0.43019 0.44438 0.22202 0.0
C1048 C 0.40867 0.42373 0.21427 0.0
C1049 C 0.40329 0.40124 0.22219 0.0
C1050 C 0.41992 0.3999 0.23804 0.0
C1051 C 0.44149 0.42058 0.24571 0.0
C1052 C 0.48215 0.46793 0.20328 0.0
C1053 C 0.47694 0.48008 0.18581 0.0
C1054 C 0.46904 0.46979 0.16197 0.0
C1055 C 0.46617 0.44719 0.1553 0.0
C1056 C 0.4724 0.4355 0.17243 0.0
C1057 C 0.48034 0.44581 0.1963 0.0
C1058 C 0.52619 0.51186 0.21943 0.0
C1059 C 0.52824 0.53274 0.21038 0.0
C1060 C 0.54363 0.544 0.19212 0.0
C1061 C 0.55729 0.53462 0.18278 0.0
C1062 C 0.55578 0.51414 0.19232 0.0
C1063 C 0.54022 0.50276 0.21047 0.0
C1064 C 0.5125 0.53866 0.37732 0.0
C1065 C 0.38043 0.37925 0.21398 0.0
H1066 H 0.51133 0.98074 0.4163 0.0
H1067 H 0.3589 0.97371 0.18932 0.0
H1068 H 0.55008 0.02088 0.29527 0.0
H1069 H 0.57945 0.01418 0.31734 0.0
H1070 H 0.55082 0.94521 0.2773 0.0
H1071 H 0.52125 0.95177 0.25538 0.0
H1072 H 0.50705 0.01649 0.3216 0.0
H1073 H 0.51053 0.00822 0.36406 0.0
H1074 H 0.49219 0.93577 0.34018 0.0
H1075 H 0.48899 0.94437 0.29781 0.0
H1076 H 0.46367 0.01905 0.29348 0.0
H1077 H 0.43082 0.01026 0.31974 0.0
H1078 H 0.41134 0.93564 0.31614 0.0
H1079 H 0.44399 0.94436 0.28983 0.0
H1080 H 0.47011 0.03112 0.23888 0.0
H1081 H 0.43596 0.03255 0.22096 0.0
H1082 H 0.39339 0.95513 0.22017 0.0
H1083 H 0.42764 0.95401 0.23825 0.0
H1084 H 0.5103 0.03481 0.20809 0.0
H1085 H 0.4989 0.04054 0.16681 0.0
H1086 H 0.44704 0.96492 0.15652 0.0
H1087 H 0.45824 0.95926 0.19772 0.0
H1088 H 0.5545 0.02687 0.23136 0.0
H1089 H 0.57776 0.02737 0.19777 0.0
H1090 H 0.52003 0.95692 0.17104 0.0
H1091 H 0.49835 0.95651 0.20485 0.0
O1092 O 0.50975 0.9836 0.39941 0.0
O1093 O 0.50062 0.94667 0.38614 0.0
O1094 O 0.39277 0.01364 0.2037 0.0
O1095 O 0.37203 0.97375 0.19813 0.0
C1096 C 0.51273 0.98863 0.26451 0.0
C1097 C 0.4955 0.98604 0.28102 0.0
C1098 C 0.47531 0.9872 0.273 0.0
C1099 C 0.47254 0.9915 0.24856 0.0
C1100 C 0.48936 0.99363 0.23186 0.0
C1101 C 0.50931 0.99181 0.23968 0.0
C1102 C 0.53358 0.98688 0.27357 0.0
C1103 C 0.55055 0.0046 0.29075 0.0
C1104 C 0.56719 1.00076 0.30342 0.0
C1105 C 0.56719 0.97916 0.29901 0.0
C1106 C 0.5511 0.96199 0.28089 0.0
C1107 C 0.53438 0.96581 0.26827 0.0
C1108 C 0.49799 0.98109 0.3067 0.0
C1109 C 0.50389 0.99889 0.32562 0.0
C1110 C 0.50583 0.99409 0.34983 0.0
C1111 C 0.50172 0.97135 0.35551 0.0
C1112 C 0.49553 0.95348 0.33644 0.0
C1113 C 0.49379 0.95837 0.31224 0.0
C1114 C 0.45623 0.98235 0.2898 0.0
C1115 C 0.4524 1.00085 0.2985 0.0
C1116 C 0.43379 0.99587 0.31348 0.0
C1117 C 0.41877 0.97232 0.31989 0.0
C1118 C 0.42283 0.95392 0.31148 0.0
C1119 C 0.4414 0.95889 0.29652 0.0
C1120 C 0.45127 0.99248 0.23987 0.0
C1121 C 0.45329 0.01454 0.23511 0.0
C1122 C 0.43378 0.01529 0.22486 0.0
C1123 C 0.41199 0.99392 0.21899 0.0
C1124 C 0.40994 0.97189 0.22435 0.0
C1125 C 0.42941 0.9712 0.23477 0.0
C1126 C 0.48513 0.99661 0.20584 0.0
C1127 C 0.49684 0.01943 0.19672 0.0
C1128 C 0.49032 0.0227 0.1733 0.0
C1129 C 0.47217 0.00312 0.15871 0.0
C1130 C 0.46115 0.98017 0.16749 0.0
C1131 C 0.46754 0.97695 0.19091 0.0
C1132 C 0.52513 0.9912 0.22122 0.0
C1133 C 0.5477 0.011 0.21885 0.0
C1134 C 0.56123 0.01093 0.1996 0.0
C1135 C 0.55302 0.99068 0.18255 0.0
C1136 C 0.52944 0.97166 0.18459 0.0
C1137 C 0.51619 0.9716 0.20395 0.0
C1138 C 0.50396 0.96637 0.38123 0.0
C1139 C 0.39169 0.99447 0.20663 0.0
H1140 H 0.50716 0.05878 0.67007 0.0
H1141 H 0.6445 0.99595 0.87111 0.0
H1142 H 0.49474 0.0494 0.81528 0.0
H1143 H 0.46447 0.05491 0.79343 0.0
H1144 H 0.43221 0.98273 0.7599 0.0
H1145 H 0.4628 0.97738 0.78142 0.0
H1146 H 0.52498 0.05713 0.77468 0.0
H1147 H 0.51957 0.06487 0.73251 0.0
H1148 H 0.50122 0.99234 0.70891 0.0
H1149 H 0.50671 0.98488 0.75122 0.0
H1150 H 0.5711 0.05919 0.78206 0.0
H1151 H 0.60398 0.06863 0.75581 0.0
H1152 H 0.58513 0.99418 0.75104 0.0
H1153 H 0.55225 0.98474 0.77745 0.0
H1154 H 0.58861 0.05159 0.83044 0.0
H1155 H 0.62523 0.05334 0.84555 0.0
H1156 H 0.5864 0.97634 0.85035 0.0
H1157 H 0.54993 0.97484 0.83501 0.0
H1158 H 0.55756 0.04375 0.87415 0.0
H1159 H 0.56991 0.03904 0.91527 0.0
H1160 H 0.52095 0.96265 0.90542 0.0
H1161 H 0.50848 0.9674 0.86422 0.0
H1162 H 0.51014 0.04059 0.86893 0.0
H1163 H 0.48477 0.03309 0.90321 0.0
H1164 H 0.43793 0.9605 0.87276 0.0
H1165 H 0.4635 0.96798 0.83843 0.0
O1166 O 0.50943 0.0554 0.68658 0.0
O1167 O 0.50078 0.01818 0.67528 0.0
O1168 O 0.64924 0.03528 0.86249 0.0
O1169 O 0.63037 0.99565 0.86458 0.0
C1170 C 0.50222 0.01188 0.80834 0.0
C1171 C 0.51958 0.01588 0.7915 0.0
C1172 C 0.5406 0.01606 0.79901 0.0
C1173 C 0.54434 0.01229 0.82341 0.0
C1174 C 0.5272 0.00853 0.84036 0.0
C1175 C 0.50608 0.00828 0.83287 0.0
C1176 C 0.48086 0.01293 0.80007 0.0
C1177 C 0.48073 0.03452 0.80381 0.0
C1178 C 0.46363 0.03773 0.79122 0.0
C1179 C 0.44629 0.01929 0.77493 0.0
C1180 C 0.44548 0.99713 0.77239 0.0
C1181 C 0.46277 0.99404 0.78476 0.0
C1182 C 0.51605 0.02041 0.76594 0.0
C1183 C 0.5197 0.04293 0.76037 0.0
C1184 C 0.5167 0.04732 0.73626 0.0
C1185 C 0.50993 0.02921 0.71733 0.0
C1186 C 0.5064 0.00667 0.72305 0.0
C1187 C 0.50949 0.00233 0.74717 0.0
C1188 C 0.55927 0.02128 0.7816 0.0
C1189 C 0.57384 0.04486 0.77507 0.0
C1190 C 0.59255 0.05023 0.76016 0.0
C1191 C 0.59686 0.03207 0.75147 0.0
C1192 C 0.58193 0.00836 0.75748 0.0
C1193 C 0.56329 0.00302 0.77253 0.0
C1194 C 0.56668 0.01309 0.83158 0.0
C1195 C 0.58812 0.03511 0.83455 0.0
C1196 C 0.60897 0.03606 0.84328 0.0
C1197 C 0.60872 0.01497 0.84924 0.0
C1198 C 0.58721 0.9929 0.84594 0.0
C1199 C 0.56637 0.99198 0.8372 0.0
C1200 C 0.53216 0.00591 0.86625 0.0
C1201 C 0.54919 0.02606 0.88103 0.0
C1202 C 0.55622 0.02339 0.90439 0.0
C1203 C 0.54635 1.00051 0.91323 0.0
C1204 C 0.52868 0.98043 0.89883 0.0
C1205 C 0.52156 0.98313 0.87546 0.0
C1206 C 0.48861 0.00486 0.85115 0.0
C1207 C 0.49418 0.02321 0.86939 0.0
C1208 C 0.47981 0.01891 0.88896 0.0
C1209 C 0.45964 0.9962 0.89057 0.0
C1210 C 0.45348 0.9781 0.87182 0.0
C1211 C 0.46793 0.98241 0.85222 0.0
C1212 C 0.50644 0.03384 0.69178 0.0
C1213 C 0.63071 0.016 0.85912 0.0
H1214 H 0.95412 0.4379 0.67067 0.0
H1215 H 0.03328 0.65571 0.84888 0.0
H1216 H 0.96775 0.44426 0.80471 0.0
H1217 H 0.96182 0.4054 0.78836 0.0
H1218 H 0.03777 0.43574 0.78914 0.0
H1219 H 0.04371 0.47465 0.80598 0.0
H1220 H 0.96267 0.47875 0.77027 0.0
H1221 H 0.95221 0.46021 0.72847 0.0
H1222 H 0.02499 0.47772 0.72192 0.0
H1223 H 0.03523 0.49641 0.76367 0.0
H1224 H 0.96601 0.52177 0.79729 0.0
H1225 H 0.95786 0.54765 0.77234 0.0
H1226 H 0.02602 0.57478 0.74203 0.0
H1227 H 0.03433 0.54892 0.76733 0.0
H1228 H 0.97943 0.53633 0.84979 0.0
H1229 H 0.97993 0.57391 0.86001 0.0
H1230 H 0.0481 0.6135 0.8292 0.0
H1231 H 0.0473 0.57575 0.819 0.0
H1232 H 0.98547 0.50095 0.88035 0.0
H1233 H 0.98915 0.52114 0.92061 0.0
H1234 H 0.06014 0.57656 0.90743 0.0
H1235 H 0.05641 0.55637 0.86706 0.0
H1236 H 0.98027 0.45391 0.85493 0.0
H1237 H 0.98422 0.43195 0.88836 0.0
H1238 H 0.05913 0.48397 0.89867 0.0
H1239 H 0.05524 0.50585 0.865 0.0
O1240 O 0.95873 0.44569 0.68701 0.0
O1241 O 0.99632 0.45491 0.68467 0.0
O1242 O 0.99817 0.61953 0.86183 0.0
O1243 O 0.03271 0.64061 0.84522 0.0
C1244 C 0.00939 0.48611 0.81368 0.0
C1245 C 1.00571 0.49904 0.79565 0.0
C1246 C 1.00698 0.52102 0.80232 0.0
C1247 C 0.01263 0.53048 0.82687 0.0
C1248 C 0.01656 0.51773 0.8449 0.0
C1249 C 0.01475 0.49539 0.83834 0.0
C1250 C 1.00614 0.46214 0.80662 0.0
C1251 C 0.98311 0.44239 0.8018 0.0
C1252 C 0.97974 0.42035 0.79246 0.0
C1253 C 0.99937 0.41784 0.7876 0.0
C1254 C 0.02246 0.43743 0.7929 0.0
C1255 C 0.02583 0.45947 0.80253 0.0
C1256 C 0.99972 0.48901 0.76988 0.0
C1257 C 0.97637 0.47879 0.75966 0.0
C1258 C 0.97043 0.46812 0.73583 0.0
C1259 C 0.98776 0.46745 0.72186 0.0
C1260 C 0.01122 0.47793 0.73217 0.0
C1261 C 0.01712 0.48864 0.75597 0.0
C1262 C 1.00077 0.53358 0.78413 0.0
C1263 C 0.97899 0.53292 0.7849 0.0
C1264 C 0.97435 0.54762 0.77072 0.0
C1265 C 0.99136 0.56305 0.75546 0.0
C1266 C 0.01268 0.56284 0.75366 0.0
C1267 C 0.01738 0.54814 0.768 0.0
C1268 C 0.01339 0.55339 0.8338 0.0
C1269 C 0.99451 0.55316 0.84541 0.0
C1270 C 0.9948 0.57463 0.85113 0.0
C1271 C 0.01407 0.59672 0.84542 0.0
C1272 C 0.03302 0.59683 0.83389 0.0
C1273 C 0.03263 0.57532 0.82806 0.0
C1274 C 0.02068 0.5272 0.87083 0.0
C1275 C 1.00206 0.51706 0.88642 0.0
C1276 C 1.00411 0.52861 0.90926 0.0
C1277 C 0.02483 0.55039 0.9168 0.0
C1278 C 0.04403 0.55977 0.90185 0.0
C1279 C 0.04193 0.54826 0.87894 0.0
C1280 C 0.01751 0.48136 0.85746 0.0
C1281 C 0.99761 0.46033 0.86409 0.0
C1282 C 0.99983 0.44788 0.88313 0.0
C1283 C 0.02196 0.45636 0.89581 0.0
C1284 C 0.04196 0.47715 0.88893 0.0
C1285 C 0.03974 0.4896 0.86985 0.0
C1286 C 0.9813 0.45569 0.69673 0.0
C1287 C 0.01442 0.61957 0.85137 0.0
H1288 H 0.49757 0.48272 0.66284 0.0
H1289 H 0.67708 0.62505 0.87562 0.0
H1290 H 0.46936 0.49074 0.78599 0.0
H1291 H 0.43589 0.45316 0.76646 0.0
H1292 H 0.45978 0.41236 0.80626 0.0
H1293 H 0.49337 0.44982 0.82548 0.0
H1294 H 0.51493 0.52938 0.76122 0.0
H1295 H 0.50706 0.51551 0.7179 0.0
H1296 H 0.51335 0.45403 0.73449 0.0
H1297 H 0.52122 0.46812 0.77772 0.0
H1298 H 0.56158 0.57367 0.79224 0.0
H1299 H 0.59487 0.59614 0.76658 0.0
H1300 H 0.60405 0.53465 0.7573 0.0
H1301 H 0.57089 0.51224 0.78303 0.0
H1302 H 0.56093 0.58072 0.85032 0.0
H1303 H 0.59975 0.61409 0.86629 0.0
H1304 H 0.63161 0.57085 0.8493 0.0
H1305 H 0.59269 0.53758 0.83374 0.0
H1306 H 0.51716 0.54737 0.87743 0.0
H1307 H 0.53071 0.56394 0.92004 0.0
H1308 H 0.57666 0.53389 0.92166 0.0
H1309 H 0.56332 0.51755 0.87916 0.0
H1310 H 0.46817 0.49966 0.84684 0.0
H1311 H 0.44092 0.47982 0.87901 0.0
H1312 H 0.48831 0.45728 0.90786 0.0
H1313 H 0.51526 0.47666 0.8756 0.0
O1314 O 0.50084 0.48795 0.68003 0.0
O1315 O 0.50373 0.45639 0.68961 0.0
O1316 O 0.64448 0.63404 0.87735 0.0
O1317 O 0.66157 0.61237 0.8691 0.0
C1318 C 0.50615 0.49545 0.81575 0.0
C1319 C 0.52327 0.50816 0.79882 0.0
C1320 C 0.54532 0.52855 0.80694 0.0
C1321 C 0.55035 0.53621 0.832 0.0
C1322 C 0.53332 0.52361 0.84891 0.0
C1323 C 0.5112 0.50322 0.84086 0.0
C1324 C 0.4838 0.473 0.80716 0.0
C1325 C 0.46711 0.47368 0.79084 0.0
C1326 C 0.4481 0.45234 0.77972 0.0
C1327 C 0.44554 0.43011 0.78492 0.0
C1328 C 0.46152 0.42939 0.80211 0.0
C1329 C 0.48055 0.4507 0.81314 0.0
C1330 C 0.51848 0.49967 0.77257 0.0
C1331 C 0.51459 0.51293 0.75543 0.0
C1332 C 0.5101 0.50496 0.73071 0.0
C1333 C 0.50949 0.48361 0.72273 0.0
C1334 C 0.51363 0.4705 0.74001 0.0
C1335 C 0.51806 0.47846 0.76472 0.0
C1336 C 0.56379 0.54131 0.78945 0.0
C1337 C 0.57056 0.56495 0.78439 0.0
C1338 C 0.58946 0.57771 0.76978 0.0
C1339 C 0.60182 0.56698 0.76007 0.0
C1340 C 0.59461 0.54313 0.76454 0.0
C1341 C 0.57572 0.53037 0.77914 0.0
C1342 C 0.57404 0.55679 0.84082 0.0
C1343 C 0.57634 0.57854 0.85004 0.0
C1344 C 0.59852 0.59756 0.85912 0.0
C1345 C 0.61879 0.59512 0.85909 0.0
C1346 C 0.61639 0.57333 0.84963 0.0
C1347 C 0.5942 0.55433 0.84063 0.0
C1348 C 0.53935 0.53136 0.87528 0.0
C1349 C 0.52988 0.54409 0.88713 0.0
C1350 C 0.53758 0.55352 0.9113 0.0
C1351 C 0.55464 0.55007 0.92382 0.0
C1352 C 0.56344 0.53661 0.91222 0.0
C1353 C 0.55587 0.52736 0.88809 0.0
C1354 C 0.49376 0.48972 0.85898 0.0
C1355 C 0.47251 0.49019 0.85993 0.0
C1356 C 0.45707 0.479 0.87825 0.0
C1357 C 0.46276 0.46726 0.8958 0.0
C1358 C 0.48372 0.46634 0.8945 0.0
C1359 C 0.49905 0.47739 0.87617 0.0
C1360 C 0.50453 0.47509 0.6965 0.0
C1361 C 0.64233 0.61508 0.86906 0.0
H1362 H 0.67504 0.86348 0.74141 0.0
H1363 H 0.66805 0.6868 0.54344 0.0
H1364 H 0.63972 0.85449 0.6148 0.0
H1365 H 0.6481 0.89389 0.63266 0.0
H1366 H 0.71446 0.92815 0.59819 0.0
H1367 H 0.70629 0.88881 0.58063 0.0
H1368 H 0.64095 0.81439 0.64386 0.0
H1369 H 0.64866 0.82992 0.68669 0.0
H1370 H 0.72012 0.88376 0.67202 0.0
H1371 H 0.71216 0.86804 0.62927 0.0
H1372 H 0.63667 0.7665 0.61971 0.0
H1373 H 0.64571 0.74099 0.64468 0.0
H1374 H 0.72028 0.79441 0.64791 0.0
H1375 H 0.71123 0.81998 0.62347 0.0
H1376 H 0.6248 0.76068 0.55689 0.0
H1377 H 0.61885 0.72117 0.54367 0.0
H1378 H 0.69233 0.74601 0.56582 0.0
H1379 H 0.69797 0.78528 0.5792 0.0
H1380 H 0.63486 0.80573 0.51732 0.0
H1381 H 0.63711 0.79109 0.47589 0.0
H1382 H 0.70014 0.7899 0.50037 0.0
H1383 H 0.7001 0.80818 0.53997 0.0
H1384 H 0.6314 0.8465 0.55458 0.0
H1385 H 0.62748 0.86831 0.52086 0.0
H1386 H 0.69486 0.88152 0.49662 0.0
H1387 H 0.69902 0.86012 0.53052 0.0
O1388 O 0.67244 0.85748 0.72446 0.0
O1389 O 0.70885 0.88508 0.71584 0.0
O1390 O 0.63243 0.69056 0.53667 0.0
O1391 O 0.66988 0.70224 0.54852 0.0
C1392 C 0.66942 0.84488 0.58916 0.0
C1393 C 0.6711 0.83094 0.60746 0.0
C1394 C 0.66891 0.80847 0.60101 0.0
C1395 C 0.66536 0.80001 0.57622 0.0
C1396 C 0.66557 0.81469 0.55774 0.0
C1397 C 0.66685 0.83686 0.56421 0.0
C1398 C 0.6724 0.86878 0.5964 0.0
C1399 C 0.65585 0.87054 0.61072 0.0
C1400 C 0.66061 0.89292 0.62091 0.0
C1401 C 0.68193 0.91379 0.61678 0.0
C1402 C 0.69792 0.91218 0.60151 0.0
C1403 C 0.6932 0.88982 0.5914 0.0
C1404 C 0.67594 0.8402 0.63349 0.0
C1405 C 0.65826 0.82951 0.64998 0.0
C1406 C 0.66271 0.83843 0.67441 0.0
C1407 C 0.68498 0.85814 0.68276 0.0
C1408 C 0.70276 0.8686 0.66618 0.0
C1409 C 0.69825 0.85971 0.64175 0.0
C1410 C 0.67332 0.79504 0.61975 0.0
C1411 C 0.65485 0.77296 0.62642 0.0
C1412 C 0.65999 0.75847 0.6406 0.0
C1413 C 0.68369 0.76576 0.64787 0.0
C1414 C 0.70192 0.78848 0.64243 0.0
C1415 C 0.69676 0.80306 0.62857 0.0
C1416 C 0.6617 0.77574 0.56934 0.0
C1417 C 0.63951 0.75746 0.55909 0.0
C1418 C 0.6362 0.73495 0.55148 0.0
C1419 C 0.6551 0.73039 0.55382 0.0
C1420 C 0.67737 0.74885 0.5639 0.0
C1421 C 0.68059 0.77125 0.57176 0.0
C1422 C 0.66706 0.80756 0.53195 0.0
C1423 C 0.64952 0.80298 0.51349 0.0
C1424 C 0.65064 0.79432 0.48998 0.0
C1425 C 0.66847 0.78878 0.48507 0.0
C1426 C 0.68609 0.79379 0.50357 0.0
C1427 C 0.68591 0.80397 0.52633 0.0
C1428 C 0.66542 0.85157 0.54492 0.0
C1429 C 0.64546 0.85436 0.54218 0.0
C1430 C 0.64318 0.86669 0.52298 0.0
C1431 C 0.66083 0.87635 0.50628 0.0
C1432 C 0.68106 0.8741 0.50934 0.0
C1433 C 0.6834 0.86191 0.5286 0.0
C1434 C 0.68957 0.86777 0.70865 0.0
C1435 C 0.6517 0.70652 0.54578 0.0
H1436 H 0.16519 0.88259 0.73579 0.0
H1437 H 0.02151 0.67663 0.54492 0.0
H1438 H 0.17539 0.8816 0.60478 0.0
H1439 H 0.20906 0.91913 0.62365 0.0
H1440 H 0.25386 0.88784 0.61996 0.0
H1441 H 0.21997 0.85006 0.60099 0.0
H1442 H 0.13393 0.84662 0.6338 0.0
H1443 H 0.14166 0.86323 0.67623 0.0
H1444 H 0.19704 0.84554 0.68589 0.0
H1445 H 0.18889 0.82868 0.64353 0.0
H1446 H 0.09258 0.80389 0.60122 0.0
H1447 H 0.06015 0.78207 0.62788 0.0
H1448 H 0.10268 0.75878 0.66671 0.0
H1449 H 0.13515 0.78049 0.63981 0.0
H1450 H 0.09632 0.79485 0.54628 0.0
H1451 H 0.0587 0.75919 0.53152 0.0
H1452 H 0.07735 0.71522 0.57328 0.0
H1453 H 0.11514 0.75101 0.58756 0.0
H1454 H 0.14063 0.83027 0.52214 0.0
H1455 H 0.12764 0.81321 0.47981 0.0
H1456 H 0.13329 0.75174 0.49721 0.0
H1457 H 0.14629 0.76883 0.53965 0.0
H1458 H 0.18321 0.87483 0.55221 0.0
H1459 H 0.21001 0.89504 0.52003 0.0
H1460 H 0.22397 0.83661 0.51159 0.0
H1461 H 0.19748 0.81655 0.54411 0.0
O1462 O 0.1622 0.87563 0.71916 0.0
O1463 O 0.19079 0.86655 0.72303 0.0
O1464 O 0.02854 0.71414 0.52772 0.0
O1465 O 0.03633 0.691 0.55042 0.0
C1466 C 0.17405 0.83976 0.59302 0.0
C1467 C 0.15665 0.82706 0.60965 0.0
C1468 C 0.13523 0.80596 0.60144 0.0
C1469 C 0.13143 0.79724 0.57666 0.0
C1470 C 0.14909 0.80957 0.56015 0.0
C1471 C 0.17043 0.8309 0.5683 0.0
C1472 C 0.19528 0.86317 0.60154 0.0
C1473 C 0.19254 0.88293 0.60771 0.0
C1474 C 0.21166 0.90424 0.61849 0.0
C1475 C 0.23381 0.90612 0.6232 0.0
C1476 C 0.23684 0.88663 0.61639 0.0
C1477 C 0.21764 0.86523 0.60552 0.0
C1478 C 0.16076 0.83634 0.63566 0.0
C1479 C 0.14755 0.84613 0.6452 0.0
C1480 C 0.15208 0.8557 0.6694 0.0
C1481 C 0.17 0.85575 0.68445 0.0
C1482 C 0.18312 0.84579 0.67481 0.0
C1483 C 0.17851 0.83615 0.65063 0.0
C1484 C 0.11616 0.79364 0.61847 0.0
C1485 C 0.09496 0.79416 0.61552 0.0
C1486 C 0.07656 0.78185 0.63074 0.0
C1487 C 0.07913 0.76895 0.64926 0.0
C1488 C 0.10049 0.76878 0.65259 0.0
C1489 C 0.11892 0.78109 0.63728 0.0
C1490 C 0.10854 0.77549 0.56783 0.0
C1491 C 0.09233 0.77748 0.55207 0.0
C1492 C 0.07081 0.75709 0.54375 0.0
C1493 C 0.06503 0.73433 0.55119 0.0
C1494 C 0.08126 0.73246 0.56716 0.0
C1495 C 0.10284 0.75286 0.57537 0.0
C1496 C 0.14435 0.80075 0.53396 0.0
C1497 C 0.13954 0.81337 0.51672 0.0
C1498 C 0.13208 0.80363 0.49267 0.0
C1499 C 0.12937 0.78118 0.48554 0.0
C1500 C 0.13525 0.76907 0.50247 0.0
C1501 C 0.14263 0.77878 0.52657 0.0
C1502 C 0.18847 0.84426 0.55062 0.0
C1503 C 0.19245 0.86663 0.54384 0.0
C1504 C 0.20763 0.87809 0.52547 0.0
C1505 C 0.21893 0.86728 0.51354 0.0
C1506 C 0.21546 0.84523 0.5207 0.0
C1507 C 0.20037 0.83382 0.53917 0.0
C1508 C 0.17502 0.86626 0.71004 0.0
C1509 C 0.04219 0.71262 0.54235 0.0
H1510 H 0.18809 0.30686 0.74592 0.0
H1511 H 0.02085 0.29934 0.52946 0.0
H1512 H 0.22252 0.35728 0.62048 0.0
H1513 H 0.25228 0.35137 0.64302 0.0
H1514 H 0.21487 0.27668 0.61642 0.0
H1515 H 0.18489 0.28247 0.59439 0.0
H1516 H 0.18849 0.34804 0.65337 0.0
H1517 H 0.19249 0.33778 0.69486 0.0
H1518 H 0.14711 0.26237 0.67191 0.0
H1519 H 0.14341 0.27293 0.63045 0.0
H1520 H 0.14167 0.34412 0.64644 0.0
H1521 H 0.10895 0.33339 0.67341 0.0
H1522 H 0.06678 0.26566 0.63106 0.0
H1523 H 0.09951 0.27623 0.60433 0.0
H1524 H 0.12469 0.35454 0.59578 0.0
H1525 H 0.08747 0.35269 0.58268 0.0
H1526 H 0.06639 0.28722 0.53805 0.0
H1527 H 0.10356 0.28924 0.55138 0.0
H1528 H 0.15891 0.36905 0.55174 0.0
H1529 H 0.14628 0.37532 0.5114 0.0
H1530 H 0.13348 0.30587 0.48387 0.0
H1531 H 0.14609 0.29959 0.52416 0.0
H1532 H 0.20944 0.37047 0.55607 0.0
H1533 H 0.23347 0.3765 0.52075 0.0
H1534 H 0.20927 0.30072 0.51379 0.0
H1535 H 0.18527 0.29468 0.54906 0.0
O1536 O 0.18618 0.31052 0.72942 0.0
O1537 O 0.16234 0.27203 0.71683 0.0
O1538 O 0.04699 0.33392 0.5587 0.0
O1539 O 0.03567 0.30052 0.53506 0.0
C1540 C 0.18082 0.32227 0.59738 0.0
C1541 C 0.1631 0.31751 0.61395 0.0
C1542 C 0.14226 0.31766 0.60649 0.0
C1543 C 0.13928 0.32305 0.58253 0.0
C1544 C 0.15717 0.32843 0.56605 0.0
C1545 C 0.1779 0.32778 0.57335 0.0
C1546 C 0.20174 0.32038 0.60551 0.0
C1547 C 0.2212 0.33985 0.61886 0.0
C1548 C 0.23803 0.33645 0.63183 0.0
C1549 C 0.2357 0.3136 0.63135 0.0
C1550 C 0.217 0.29446 0.61687 0.0
C1551 C 0.20006 0.2978 0.60415 0.0
C1552 C 0.16579 0.31121 0.63897 0.0
C1553 C 0.17954 0.32932 0.65735 0.0
C1554 C 0.18171 0.32341 0.68104 0.0
C1555 C 0.17007 0.29925 0.68672 0.0
C1556 C 0.15627 0.28115 0.66816 0.0
C1557 C 0.15415 0.2871 0.64449 0.0
C1558 C 0.12293 0.31096 0.62341 0.0
C1559 C 0.12546 0.32688 0.64315 0.0
C1560 C 0.10687 0.32079 0.65847 0.0
C1561 C 0.08555 0.29873 0.65419 0.0
C1562 C 0.08314 0.28272 0.63464 0.0
C1563 C 0.10173 0.28876 0.61941 0.0
C1564 C 0.11685 0.32212 0.57438 0.0
C1565 C 0.112 0.33984 0.58316 0.0
C1566 C 0.09074 0.33873 0.57565 0.0
C1567 C 0.07398 0.31983 0.55925 0.0
C1568 C 0.07891 0.30203 0.55065 0.0
C1569 C 0.10016 0.30319 0.55814 0.0
C1570 C 0.15347 0.33389 0.54085 0.0
C1571 C 0.15393 0.35545 0.53684 0.0
C1572 C 0.14677 0.35903 0.51392 0.0
C1573 C 0.13899 0.34104 0.49477 0.0
C1574 C 0.13955 0.31996 0.49845 0.0
C1575 C 0.1468 0.31643 0.52134 0.0
C1576 C 0.19583 0.33217 0.55533 0.0
C1577 C 0.20987 0.35529 0.54737 0.0
C1578 C 0.22346 0.35871 0.52722 0.0
C1579 C 0.2231 0.33904 0.51475 0.0
C1580 C 0.20986 0.3161 0.52332 0.0
C1581 C 0.19633 0.3127 0.5435 0.0
C1582 C 0.17255 0.29302 0.71186 0.0
C1583 C 0.05144 0.3186 0.55106 0.0
C1584 C 0.03077 0.44131 0.09482 0.0
C1585 C 0.01034 0.4215 0.08225 0.0
C1586 C 0.98633 0.42417 0.11418 0.0
C1587 C 1.00611 0.44623 0.12414 0.0
N1588 N 0.04516 0.47938 0.1177 0.0
N1589 N 0.96718 0.39963 0.07684 0.0
C1590 C 0.02766 0.45605 0.11234 0.0
C1591 C 0.98759 0.4145 0.09092 0.0
N1592 N 0.0531 0.44528 0.09162 0.0
N1593 N 0.96684 0.41168 0.12714 0.0
H1594 H 0.96703 0.39405 0.05873 0.0
H1595 H 0.95046 0.39561 0.08218 0.0
H1596 H 0.96575 0.417 0.14499 0.0
H1597 H 0.95299 0.39456 0.12107 0.0
H1598 H 0.06809 0.45883 0.10181 0.0
H1599 H 0.05634 0.43314 0.08179 0.0
H1600 H 0.06052 0.4875 0.10819 0.0
H1601 H 0.04299 0.49116 0.12953 0.0
C1602 C 0.57478 0.54841 0.11768 0.0
C1603 C 0.59801 0.56869 0.12196 0.0
C1604 C 0.59529 0.56573 0.16619 0.0
C1605 C 0.57202 0.54549 0.16191 0.0
N1606 N 0.54061 0.51528 0.13414 0.0
N1607 N 0.63207 0.59467 0.14931 0.0
C1608 C 0.56212 0.53608 0.13777 0.0
C1609 C 0.60883 0.57667 0.14597 0.0
N1610 N 0.56461 0.54144 0.09434 0.0
N1611 N 0.60405 0.57488 0.18962 0.0
H1612 H 0.64222 0.60327 0.13486 0.0
H1613 H 0.64188 0.60007 0.16604 0.0
H1614 H 0.59497 0.56677 0.20481 0.0
H1615 H 0.61971 0.59107 0.19417 0.0
H1616 H 0.54679 0.52885 0.08993 0.0
H1617 H 0.57387 0.54906 0.07908 0.0
H1618 H 0.53343 0.506 0.1172 0.0
H1619 H 0.53032 0.5063 0.14836 0.0
C1620 C 0.43412 0.01272 0.1114 0.0
C1621 C 0.44267 0.00832 0.08949 0.0
C1622 C 0.47329 0.00471 0.11317 0.0
C1623 C 0.46323 0.00673 0.13496 0.0
N1624 N 0.43361 0.01143 0.15544 0.0
N1625 N 0.46964 0.99945 0.06887 0.0
C1626 C 0.44365 0.01064 0.13425 0.0
C1627 C 0.46215 0.00424 0.09021 0.0
N1628 N 0.41679 0.01875 0.11032 0.0
N1629 N 0.49364 0.00351 0.11456 0.0
H1630 H 0.46286 1.00039 0.05176 0.0
H1631 H 0.4818 0.99353 0.06793 0.0
H1632 H 0.5019 0.0033 0.13107 0.0
H1633 H 0.50334 0.00433 0.09966 0.0
H1634 H 0.41157 0.02477 0.12544 0.0
H1635 H 0.40845 0.01922 0.09401 0.0
H1636 H 0.41757 0.01118 0.15616 0.0
H1637 H 0.44069 0.01101 0.17257 0.0
C1638 C 0.43809 0.978 0.95402 0.0
C1639 C 0.42414 0.98909 0.95686 0.0
C1640 C 0.42925 0.99978 0.91427 0.0
C1641 C 0.44556 0.99145 0.91247 0.0
N1642 N 0.46609 0.97286 0.93008 0.0
N1643 N 0.40601 0.01038 0.94011 0.0
C1644 C 0.44988 0.98029 0.93209 0.0
C1645 C 0.41948 0.9998 0.93701 0.0
N1646 N 0.4403 0.96559 0.97243 0.0
N1647 N 0.42279 0.00721 0.894 0.0
H1648 H 0.39709 0.0091 0.9558 0.0
H1649 H 0.40434 0.02118 0.92768 0.0
H1650 H 0.42969 0.00743 0.87714 0.0
H1651 H 0.40931 0.01136 0.89322 0.0
H1652 H 0.44811 0.95501 0.9708 0.0
H1653 H 0.43292 0.96455 0.98914 0.0
H1654 H 0.47198 0.96674 0.94435 0.0
H1655 H 0.47477 0.97391 0.91424 0.0
C1656 C 0.02338 0.40958 0.93448 0.0
C1657 C 0.02488 0.41999 0.95824 0.0
C1658 C 0.02418 0.454 0.94107 0.0
C1659 C 0.0238 0.4442 0.91731 0.0
N1660 N 0.02664 0.41489 0.89108 0.0
N1661 N 0.03113 0.45385 0.98464 0.0
C1662 C 0.02447 0.42261 0.91392 0.0
C1663 C 0.02661 0.44275 0.96167 0.0
N1664 N 0.02015 0.38695 0.93162 0.0
N1665 N 0.02128 0.47354 0.94393 0.0
H1666 H 0.03285 0.44608 1.00021 0.0
H1667 H 0.03518 0.47155 0.98816 0.0
H1668 H 0.01968 0.48248 0.92932 0.0
H1669 H 0.01864 0.47987 0.96059 0.0
H1670 H 0.01618 0.37715 0.91482 0.0
H1671 H 0.01997 0.37725 0.94633 0.0
H1672 H 0.02961 0.40066 0.88761 0.0
H1673 H 0.02723 0.42388 0.87563 0.0
C1674 C 0.56563 0.55911 0.99287 0.0
C1675 C 0.58699 0.58177 0.99542 0.0
C1676 C 0.58607 0.58446 0.95111 0.0
C1677 C 0.56468 0.56184 0.94858 0.0
N1678 N 0.53182 0.52928 0.96646 0.0
N1679 N 0.61577 0.61792 0.97804 0.0
C1680 C 0.55372 0.54969 0.96934 0.0
C1681 C 0.59658 0.5951 0.97485 0.0
N1682 N 0.55708 0.54643 0.01294 0.0
N1683 N 0.59674 0.5953 0.93072 0.0
H1684 H 0.62458 0.62596 0.99501 0.0
H1685 H 0.62214 0.62961 0.96422 0.0
H1686 H 0.58905 0.58862 0.91308 0.0
H1687 H 0.61377 0.61021 0.931 0.0
H1688 H 0.54325 0.52868 0.01217 0.0
H1689 H 0.56458 0.55338 0.03061 0.0
H1690 H 0.52164 0.52074 0.98084 0.0
H1691 H 0.52295 0.52164 0.94941 0.0
C1692 C 0.02437 0.56743 0.98391 0.0
C1693 C 0.02198 0.58799 0.98213 0.0
C1694 C 0.02234 0.58447 0.93765 0.0
C1695 C 0.02547 0.56431 0.93941 0.0
N1696 N 0.03374 0.5391 0.96393 0.0
N1697 N 0.02307 0.61889 0.9584 0.0
C1698 C 0.0278 0.55655 0.96251 0.0
C1699 C 0.02245 0.59745 0.95931 0.0
N1700 N 0.0227 0.55797 0.00596 0.0
N1701 N 0.01807 0.59046 0.91528 0.0
H1702 H 0.02267 0.62861 0.9739 0.0
H1703 H 0.02592 0.62806 0.94267 0.0
H1704 H 0.01799 0.58155 0.89895 0.0
H1705 H 0.01285 0.60308 0.91282 0.0
H1706 H 0.02148 0.54146 0.00811 0.0
H1707 H 0.02119 0.56606 0.02214 0.0
H1708 H 0.03796 0.53415 0.98027 0.0
H1709 H 0.03633 0.53078 0.94857 0.0
C1710 C 0.41434 0.42122 0.93283 0.0
C1711 C 0.42164 0.4335 0.95639 0.0
C1712 C 0.45255 0.46954 0.93899 0.0
C1713 C 0.44716 0.45626 0.91604 0.0
N1714 N 0.42393 0.41933 0.89083 0.0
N1715 N 0.44847 0.46863 0.98267 0.0
C1716 C 0.42817 0.4321 0.91281 0.0
C1717 C 0.44078 0.4576 0.95966 0.0
N1718 N 0.39393 0.3993 0.92964 0.0
N1719 N 0.46885 0.49361 0.94092 0.0
H1720 H 0.43998 0.46066 0.99818 0.0
H1721 H 0.46408 0.48502 0.98667 0.0
H1722 H 0.47809 0.5028 0.92623 0.0
H1723 H 0.47194 0.5049 0.95645 0.0
H1724 H 0.38628 0.39029 0.91267 0.0
H1725 H 0.38343 0.39095 0.94397 0.0
H1726 H 0.41225 0.4009 0.88798 0.0
H1727 H 0.43319 0.42694 0.87557 0.0
C1728 C 0.55588 0.99798 0.9816 0.0
C1729 C 0.57685 0.99636 0.98231 0.0
C1730 C 0.57668 0.99563 0.93759 0.0
C1731 C 0.55592 0.99758 0.93693 0.0
N1732 N 0.52412 0.9982 0.95714 0.0
N1733 N 0.60572 0.99056 0.96136 0.0
C1734 C 0.54498 0.99795 0.95864 0.0
C1735 C 0.58669 0.99407 0.96038 0.0
N1736 N 0.54664 0.99982 0.003 0.0
N1737 N 0.58731 0.99626 0.9164 0.0
H1738 H 0.6146 0.99085 0.97759 0.0
H1739 H 0.61211 0.98602 0.9462 0.0
H1740 H 0.57994 0.9963 0.89927 0.0
H1741 H 0.60398 0.99796 0.91558 0.0
H1742 H 0.53297 0.00359 0.00434 0.0
H1743 H 0.55308 0.99805 0.01994 0.0
H1744 H 0.51384 0.9964 0.97176 0.0
H1745 H 0.51631 0.99918 0.94069 0.0
C1746 C 0.60225 0.01522 0.13747 0.0
C1747 C 0.58827 0.00219 0.11562 0.0
C1748 C 0.5572 0.97462 0.14049 0.0
C1749 C 0.5677 0.99101 0.1613 0.0
N1750 N 0.60636 0.01619 0.18169 0.0
N1751 N 0.55004 0.97099 0.09708 0.0
C1752 C 0.59214 0.00869 0.16055 0.0
C1753 C 0.56499 0.98246 0.11737 0.0
N1754 N 0.62512 0.03352 0.13637 0.0
N1755 N 0.54373 0.9506 0.14298 0.0
H1756 H 0.55425 0.97691 0.07966 0.0
H1757 H 0.53252 0.95721 0.09827 0.0
H1758 H 0.54272 0.94362 0.15993 0.0
H1759 H 0.53722 0.93786 0.12807 0.0
H1760 H 0.63498 0.0456 0.15118 0.0
H1761 H 0.63404 0.03739 0.12041 0.0
H1762 H 0.62473 0.02739 0.18258 0.0
H1763 H 0.59994 0.00849 0.19802 0.0
C1764 C 0.9994 0.59291 0.1288 0.0
C1765 C 0.99287 0.58001 0.10555 0.0
C1766 C 0.98435 0.54315 0.12468 0.0
C1767 C 0.99368 0.55674 0.14746 0.0
N1768 N 0.01121 0.59457 0.17156 0.0
N1769 N 0.98087 0.54344 0.08066 0.0
C1770 C 1.00135 0.58162 0.14967 0.0
C1771 C 0.98551 0.55519 0.10331 0.0
N1772 N 1.00329 0.61583 0.13086 0.0
N1773 N 0.97427 0.5187 0.12357 0.0
H1774 H 0.98112 0.55148 0.06459 0.0
H1775 H 0.9783 0.52623 0.07759 0.0
H1776 H 0.97364 0.50935 0.13875 0.0
H1777 H 0.96489 0.50745 0.1081 0.0
H1778 H 1.00598 0.62558 0.14744 0.0
H1779 H 1.0018 0.62444 0.11589 0.0
H1780 H 0.01966 0.61323 0.17383 0.0
H1781 H 0.01221 0.58674 0.18738 0.0
C1782 C 0.4201 0.40604 0.1046 0.0
C1783 C 0.43247 0.41649 0.0838 0.0
C1784 C 0.46845 0.44316 0.10999 0.0
C1785 C 0.45508 0.43519 0.13079 0.0
N1786 N 0.41755 0.41058 0.14817 0.0
N1787 N 0.46791 0.44575 0.06612 0.0
C1788 C 0.43075 0.41687 0.12821 0.0
C1789 C 0.45658 0.43519 0.08631 0.0
N1790 N 0.3983 0.38556 0.10174 0.0
N1791 N 0.49255 0.45787 0.11295 0.0
H1792 H 0.46 0.43973 0.04845 0.0
H1793 H 0.48455 0.46129 0.06694 0.0
H1794 H 0.50171 0.46369 0.13011 0.0
H1795 H 0.50366 0.4625 0.0986 0.0
H1796 H 0.3893 0.37576 0.11618 0.0
H1797 H 0.3902 0.37705 0.08465 0.0
H1798 H 0.39916 0.39942 0.14709 0.0
H1799 H 0.4247 0.41792 0.16582 0.0
C1800 C 0.6942 0.77337 0.43149 0.0
C1801 C 0.67381 0.75414 0.41822 0.0
C1802 C 0.64941 0.75621 0.45007 0.0
C1803 C 0.66927 0.77779 0.46084 0.0
N1804 N 0.70878 0.81078 0.45569 0.0
N1805 N 0.63073 0.73282 0.41202 0.0
C1806 C 0.69106 0.78771 0.44948 0.0
C1807 C 0.65096 0.74714 0.42658 0.0
N1808 N 0.71647 0.7771 0.42843 0.0
N1809 N 0.62953 0.74361 0.46246 0.0
H1810 H 0.63087 0.72763 0.39384 0.0
H1811 H 0.61396 0.72887 0.41711 0.0
H1812 H 0.62814 0.74852 0.48037 0.0
H1813 H 0.61556 0.72676 0.45583 0.0
H1814 H 0.73139 0.79014 0.4391 0.0
H1815 H 0.71962 0.76514 0.41813 0.0
H1816 H 0.72436 0.81904 0.44654 0.0
H1817 H 0.70664 0.82233 0.4679 0.0
C1818 C 0.23575 0.88059 0.44811 0.0
C1819 C 0.25864 0.90135 0.45213 0.0
C1820 C 0.25697 0.89743 0.49629 0.0
C1821 C 0.23307 0.87833 0.49237 0.0
N1822 N 0.19855 0.85323 0.46499 0.0
N1823 N 0.29073 0.93093 0.47965 0.0
C1824 C 0.22218 0.87018 0.46837 0.0
C1825 C 0.26927 0.91008 0.47613 0.0
N1826 N 0.22715 0.87066 0.42486 0.0
N1827 N 0.26794 0.90322 0.51926 0.0
H1828 H 0.30052 0.94017 0.46526 0.0
H1829 H 0.29822 0.93987 0.4967 0.0
H1830 H 0.25928 0.89454 0.53443 0.0
H1831 H 0.286 0.91531 0.52309 0.0
H1832 H 0.2117 0.85413 0.42079 0.0
H1833 H 0.23658 0.87796 0.40959 0.0
H1834 H 0.18887 0.84866 0.44821 0.0
H1835 H 0.18804 0.84492 0.47931 0.0
C1836 C 0.09147 0.33179 0.44632 0.0
C1837 C 0.10554 0.34318 0.42665 0.0
C1838 C 0.14192 0.35413 0.45198 0.0
C1839 C 0.1278 0.34304 0.47164 0.0
N1840 N 0.08994 0.32524 0.48945 0.0
N1841 N 0.144 0.36742 0.41104 0.0
C1842 C 0.10279 0.33301 0.46934 0.0
C1843 C 0.13077 0.35516 0.42963 0.0
N1844 N 0.06721 0.31948 0.44286 0.0
N1845 N 0.16591 0.36307 0.45457 0.0
H1846 H 0.13649 0.36742 0.39399 0.0
H1847 H 0.16237 0.37863 0.4127 0.0
H1848 H 0.17465 0.36353 0.47102 0.0
H1849 H 0.17712 0.369 0.44035 0.0
H1850 H 0.05592 0.30816 0.45525 0.0
H1851 H 0.05816 0.31951 0.4269 0.0
H1852 H 0.07211 0.32025 0.48986 0.0
H1853 H 0.09755 0.3255 0.50653 0.0
C1854 C 0.08074 0.32572 0.2722 0.0
C1855 C 0.0939 0.3287 0.29452 0.0
C1856 C 0.12794 0.33412 0.27209 0.0
C1857 C 0.11444 0.33013 0.24975 0.0
N1858 N 0.07704 0.31846 0.22807 0.0
N1859 N 0.12805 0.33123 0.31592 0.0
C1860 C 0.0905 0.32477 0.24968 0.0
C1861 C 0.11695 0.33159 0.2945 0.0
N1862 N 0.05937 0.32486 0.27255 0.0
N1863 N 0.15149 0.34101 0.2719 0.0
H1864 H 0.12048 0.32934 0.33265 0.0
H1865 H 0.14373 0.33066 0.31692 0.0
H1866 H 0.16003 0.34238 0.25588 0.0
H1867 H 0.16303 0.34699 0.28751 0.0
H1868 H 0.05017 0.32557 0.25706 0.0
H1869 H 0.05147 0.32506 0.28864 0.0
H1870 H 0.0588 0.31184 0.22686 0.0
H1871 H 0.08383 0.31818 0.21125 0.0
C1872 C 0.6886 0.74542 0.27001 0.0
C1873 C 0.68928 0.7553 0.29381 0.0
C1874 C 0.68836 0.78929 0.27684 0.0
C1875 C 0.68895 0.78011 0.25309 0.0
N1876 N 0.69301 0.7516 0.22684 0.0
N1877 N 0.69401 0.78837 0.32049 0.0
C1878 C 0.69006 0.75877 0.2496 0.0
C1879 C 0.69039 0.77777 0.2974 0.0
N1880 N 0.68583 0.72299 0.26693 0.0
N1881 N 0.68498 0.80853 0.27969 0.0
H1882 H 0.69539 0.78038 0.33604 0.0
H1883 H 0.69762 0.80589 0.32422 0.0
H1884 H 0.68368 0.81767 0.26512 0.0
H1885 H 0.68166 0.81439 0.29625 0.0
H1886 H 0.68249 0.71354 0.25002 0.0
H1887 H 0.68537 0.71306 0.28154 0.0
H1888 H 0.69636 0.73762 0.22338 0.0
H1889 H 0.69383 0.7608 0.21148 0.0
C1890 C 0.25631 0.92984 0.30549 0.0
C1891 C 0.2469 0.91633 0.326 0.0
C1892 C 0.21501 0.88318 0.29962 0.0
C1893 C 0.22445 0.8967 0.27916 0.0
N1894 N 0.25071 0.93434 0.2626 0.0
N1895 N 0.21498 0.88275 0.34376 0.0
C1896 C 0.24401 0.92057 0.28214 0.0
C1897 C 0.22547 0.89377 0.3234 0.0
N1898 N 0.27766 0.9509 0.30812 0.0
N1899 N 0.19661 0.85996 0.29618 0.0
H1900 H 0.22221 0.89014 0.36141 0.0
H1901 H 0.19824 0.86741 0.34336 0.0
H1902 H 0.18805 0.85196 0.27909 0.0
H1903 H 0.19059 0.84815 0.30993 0.0
H1904 H 0.287 0.96005 0.29353 0.0
H1905 H 0.28694 0.95861 0.32497 0.0
H1906 H 0.26327 0.95261 0.26393 0.0
H1907 H 0.2423 0.92796 0.24517 0.0
C1908 C 0.68745 0.93167 0.29736 0.0
C1909 C 0.68636 0.92137 0.3198 0.0
C1910 C 0.69268 0.89061 0.29936 0.0
C1911 C 0.69101 0.89924 0.27657 0.0
N1912 N 0.68415 0.92621 0.25323 0.0
N1913 N 0.68637 0.89042 0.3426 0.0
C1914 C 0.6879 0.91945 0.27539 0.0
C1915 C 0.68865 0.9007 0.32096 0.0
N1916 N 0.68811 0.95318 0.29712 0.0
N1917 N 0.6986 0.87311 0.30031 0.0
H1918 H 0.68442 0.89792 0.35896 0.0
H1919 H 0.68506 0.8738 0.34421 0.0
H1920 H 0.70165 0.86538 0.28479 0.0
H1921 H 0.70236 0.86755 0.31648 0.0
H1922 H 0.69143 0.96292 0.28176 0.0
H1923 H 0.68725 0.96234 0.31283 0.0
H1924 H 0.67898 0.93891 0.25113 0.0
H1925 H 0.68445 0.91785 0.23669 0.0
C1926 C 0.10543 0.7913 0.28869 0.0
C1927 C 0.08622 0.76724 0.28563 0.0
C1928 C 0.0927 0.76534 0.24209 0.0
C1929 C 0.1117 0.78951 0.24509 0.0
N1930 N 0.13348 0.82708 0.26961 0.0
N1931 N 0.05841 0.73284 0.25917 0.0
C1932 C 0.11717 0.80301 0.26792 0.0
C1933 C 0.07887 0.75473 0.26219 0.0
N1934 N 0.11318 0.80254 0.31162 0.0
N1935 N 0.08849 0.75228 0.2203 0.0
H1936 H 0.04791 0.72468 0.27356 0.0
H1937 H 0.05073 0.72367 0.24226 0.0
H1938 H 0.09786 0.75965 0.20502 0.0
H1939 H 0.07679 0.73384 0.21768 0.0
H1940 H 0.12885 0.81891 0.31549 0.0
H1941 H 0.10468 0.79477 0.32719 0.0
H1942 H 0.13664 0.83851 0.28505 0.0
H1943 H 0.14265 0.83613 0.25483 0.0
C1944 C 0.21807 0.31779 0.31344 0.0
C1945 C 0.24308 0.32751 0.31525 0.0
C1946 C 0.24473 0.33444 0.27167 0.0
C1947 C 0.22014 0.32678 0.2704 0.0
N1948 N 0.1833 0.31237 0.28966 0.0
N1949 N 0.28074 0.34665 0.29695 0.0
C1950 C 0.20672 0.31865 0.29116 0.0
C1951 C 0.25654 0.33621 0.29456 0.0
N1952 N 0.20523 0.30771 0.33304 0.0
N1953 N 0.2567 0.33958 0.25084 0.0
H1954 H 0.2899 0.34701 0.31301 0.0
H1955 H 0.29195 0.35614 0.28358 0.0
H1956 H 0.24886 0.33915 0.23384 0.0
H1957 H 0.27388 0.34258 0.24988 0.0
H1958 H 0.18675 0.29816 0.33237 0.0
H1959 H 0.21308 0.30763 0.34986 0.0
H1960 H 0.17303 0.30889 0.30461 0.0
H1961 H 0.17428 0.31182 0.27337 0.0
C1962 C 0.26983 0.34983 0.46919 0.0
C1963 C 0.25594 0.34443 0.44681 0.0
C1964 C 0.2216 0.33857 0.46907 0.0
C1965 C 0.23488 0.34201 0.49143 0.0
N1966 N 0.27081 0.34951 0.51343 0.0
N1967 N 0.2188 0.33332 0.42479 0.0
C1968 C 0.25887 0.34748 0.49168 0.0
C1969 C 0.23188 0.33878 0.4466 0.0
N1970 N 0.29346 0.3571 0.46888 0.0
N1971 N 0.19924 0.33544 0.46945 0.0
H1972 H 0.22618 0.33511 0.40797 0.0
H1973 H 0.2005 0.32619 0.4231 0.0
H1974 H 0.19099 0.33474 0.48552 0.0
H1975 H 0.18919 0.33486 0.45407 0.0
H1976 H 0.30526 0.3637 0.48428 0.0
H1977 H 0.3018 0.35794 0.45284 0.0
H1978 H 0.28737 0.35085 0.51502 0.0
H1979 H 0.26352 0.34854 0.5302 0.0
C1980 C 0.64943 0.88689 0.44095 0.0
C1981 C 0.65684 0.91172 0.44335 0.0
C1982 C 0.66572 0.91317 0.48736 0.0
C1983 C 0.65794 0.88827 0.48502 0.0
N1984 N 0.63819 0.85029 0.461 0.0
N1985 N 0.66752 0.94747 0.46891 0.0
C1986 C 0.64839 0.87476 0.46222 0.0
C1987 C 0.66359 0.92454 0.46664 0.0
N1988 N 0.64464 0.87522 0.41825 0.0
N1989 N 0.67585 0.92607 0.50922 0.0
H1990 H 0.66588 0.95614 0.45406 0.0
H1991 H 0.67035 0.95716 0.48557 0.0
H1992 H 0.67705 0.9182 0.52493 0.0
H1993 H 0.68437 0.94473 0.51154 0.0
H1994 H 0.64202 0.858 0.41506 0.0
H1995 H 0.64481 0.88333 0.40225 0.0
H1996 H 0.62866 0.83912 0.44554 0.0
H1997 H 0.63761 0.84087 0.47611 0.0
C1998 C 0.08485 0.73981 0.43389 0.0
C1999 C 0.09707 0.75131 0.41338 0.0
C2000 C 0.13222 0.77902 0.44017 0.0
C2001 C 0.11881 0.76975 0.46073 0.0
N2002 N 0.08139 0.74318 0.47738 0.0
N2003 N 0.13176 0.7826 0.39645 0.0
C2004 C 0.0949 0.75048 0.45769 0.0
C2005 C 0.12065 0.7711 0.41635 0.0
N2006 N 0.06372 0.71861 0.43059 0.0
N2007 N 0.15609 0.79496 0.44347 0.0
H2008 H 0.12418 0.7766 0.37866 0.0
H2009 H 0.14785 0.7988 0.39762 0.0
H2010 H 0.16507 0.80077 0.46071 0.0
H2011 H 0.16735 0.80077 0.42925 0.0
H2012 H 0.05506 0.70814 0.44479 0.0
H2013 H 0.05591 0.71028 0.41337 0.0
H2014 H 0.06313 0.73118 0.47594 0.0
H2015 H 0.08797 0.75055 0.49515 0.0
C2016 C 0.32687 0.10108 0.75134 0.0
C2017 C 0.32562 0.07856 0.75262 0.0
C2018 C 0.32031 0.07938 0.79643 0.0
C2019 C 0.32178 0.10201 0.79519 0.0
N2020 N 0.32168 0.13234 0.77148 0.0
N2021 N 0.31669 0.04394 0.77464 0.0
C2022 C 0.32348 0.11218 0.77257 0.0
C2023 C 0.32077 0.0669 0.77464 0.0
N2024 N 0.33201 0.11212 0.72996 0.0
N2025 N 0.31956 0.07039 0.81862 0.0
H2026 H 0.31754 0.03455 0.75911 0.0
H2027 H 0.31074 0.03346 0.78945 0.0
H2028 H 0.31835 0.07859 0.83486 0.0
H2029 H 0.32142 0.05554 0.82126 0.0
H2030 H 0.33596 0.12973 0.72838 0.0
H2031 H 0.33342 0.10396 0.71377 0.0
H2032 H 0.32056 0.13953 0.7553 0.0
H2033 H 0.31943 0.14095 0.78682 0.0
C2034 C 0.93681 0.24487 0.81213 0.0
C2035 C 0.92625 0.23582 0.78815 0.0
C2036 C 0.88915 0.20602 0.80458 0.0
C2037 C 0.90013 0.21414 0.82854 0.0
N2038 N 0.93508 0.23879 0.85543 0.0
N2039 N 0.89417 0.20537 0.76115 0.0
C2040 C 0.9242 0.23285 0.83241 0.0
C2041 C 0.9029 0.21569 0.78426 0.0
N2042 N 0.9585 0.26548 0.81551 0.0
N2043 N 0.86536 0.18959 0.80129 0.0
H2044 H 0.90372 0.21199 0.74579 0.0
H2045 H 0.87836 0.18911 0.75731 0.0
H2046 H 0.85473 0.18171 0.81568 0.0
H2047 H 0.85569 0.18504 0.7845 0.0
H2048 H 0.96603 0.27459 0.83248 0.0
H2049 H 0.96837 0.2745 0.80107 0.0
H2050 H 0.95322 0.25046 0.85924 0.0
H2051 H 0.92621 0.23066 0.87072 0.0
C2052 C 0.76842 0.68477 0.78031 0.0
C2053 C 0.77654 0.68008 0.75824 0.0
C2054 C 0.80646 0.67509 0.78145 0.0
C2055 C 0.79861 0.68023 0.80344 0.0
N2056 N 0.77593 0.69496 0.824 0.0
N2057 N 0.80617 0.6758 0.73734 0.0
C2058 C 0.78083 0.68676 0.80288 0.0
C2059 C 0.79651 0.67681 0.75869 0.0
N2060 N 0.74802 0.68589 0.77983 0.0
N2061 N 0.82274 0.66767 0.78235 0.0
H2062 H 0.79935 0.67718 0.72042 0.0
H2063 H 0.82206 0.67575 0.73648 0.0
H2064 H 0.83086 0.66684 0.79867 0.0
H2065 H 0.82716 0.66093 0.76712 0.0
H2066 H 0.73956 0.68624 0.79541 0.0
H2067 H 0.73841 0.68467 0.76374 0.0
H2068 H 0.76493 0.70231 0.82455 0.0
H2069 H 0.78451 0.69637 0.8409 0.0
C2070 C 0.77425 0.65212 0.62394 0.0
C2071 C 0.75752 0.65992 0.62618 0.0
C2072 C 0.7623 0.67125 0.58382 0.0
C2073 C 0.77874 0.66309 0.58147 0.0
N2074 N 0.79708 0.64164 0.59739 0.0
N2075 N 0.73191 0.67226 0.60729 0.0
C2076 C 0.78357 0.65211 0.60092 0.0
C2077 C 0.75045 0.66813 0.60579 0.0
N2078 N 0.78231 0.64608 0.64416 0.0
N2079 N 0.75836 0.68238 0.56519 0.0
H2080 H 0.72271 0.66981 0.623 0.0
H2081 H 0.72427 0.67607 0.59252 0.0
H2082 H 0.76566 0.68374 0.54837 0.0
H2083 H 0.74891 0.69137 0.56673 0.0
H2084 H 0.79662 0.64315 0.64445 0.0
H2085 H 0.77584 0.64567 0.66129 0.0
H2086 H 0.79877 0.63076 0.60973 0.0
H2087 H 0.80532 0.64234 0.58131 0.0
C2088 C 0.36575 0.11517 0.63604 0.0
C2089 C 0.36174 0.09146 0.63265 0.0
C2090 C 0.36133 0.09392 0.58828 0.0
C2091 C 0.36221 0.1163 0.59162 0.0
N2092 N 0.36302 0.14749 0.61837 0.0
N2093 N 0.35462 0.05745 0.60602 0.0
C2094 C 0.36412 0.1269 0.61543 0.0
C2095 C 0.35938 0.08065 0.60887 0.0
N2096 N 0.37094 0.12637 0.65901 0.0
N2097 N 0.36278 0.08563 0.56544 0.0
H2098 H 0.35431 0.04768 0.62072 0.0
H2099 H 0.3498 0.04744 0.58927 0.0
H2100 H 0.36419 0.09494 0.55001 0.0
H2101 H 0.36452 0.07062 0.56196 0.0
H2102 H 0.37649 0.14448 0.66253 0.0
H2103 H 0.3716 0.11806 0.67458 0.0
H2104 H 0.36149 0.15459 0.63513 0.0
H2105 H 0.36184 0.15667 0.60379 0.0
C2106 C 0.90767 0.25049 0.64904 0.0
C2107 C 0.92189 0.2417 0.65938 0.0
C2108 C 0.90941 0.21257 0.62402 0.0
C2109 C 0.8994 0.22456 0.61169 0.0
N2110 N 0.89446 0.25933 0.61143 0.0
N2111 N 0.94164 0.21881 0.65176 0.0
C2112 C 0.90001 0.2448 0.62387 0.0
C2113 C 0.92426 0.2239 0.64556 0.0
N2114 N 0.90053 0.26336 0.66317 0.0
N2115 N 0.90457 0.19025 0.61546 0.0
H2116 H 0.95499 0.22862 0.66552 0.0
H2117 H 0.94473 0.20709 0.64092 0.0
H2118 H 0.89264 0.18072 0.60046 0.0
H2119 H 0.91026 0.18027 0.62503 0.0
H2120 H 0.8887 0.26847 0.65647 0.0
H2121 H 0.9038 0.26614 0.68206 0.0
H2122 H 0.89671 0.2754 0.61938 0.0
H2123 H 0.89026 0.25684 0.59267 0.0
C2124 C 0.35873 0.23623 0.65841 0.0
C2125 C 0.35521 0.25609 0.65658 0.0
C2126 C 0.35622 0.25307 0.61217 0.0
C2127 C 0.36031 0.23353 0.61397 0.0
N2128 N 0.36996 0.20931 0.63854 0.0
N2129 N 0.35535 0.28661 0.63295 0.0
C2130 C 0.36298 0.22598 0.63707 0.0
C2131 C 0.35554 0.26557 0.63381 0.0
N2132 N 0.35727 0.22675 0.68042 0.0
N2133 N 0.35177 0.25891 0.58979 0.0
H2134 H 0.35455 0.29604 0.64847 0.0
H2135 H 0.35802 0.29582 0.61726 0.0
H2136 H 0.35234 0.25041 0.57346 0.0
H2137 H 0.34583 0.27096 0.58731 0.0
H2138 H 0.3569 0.21064 0.68256 0.0
H2139 H 0.35506 0.23438 0.69654 0.0
H2140 H 0.37439 0.20458 0.6549 0.0
H2141 H 0.37321 0.20153 0.6232 0.0
C2142 C 0.77633 0.1244 0.62326 0.0
C2143 C 0.75799 0.09992 0.62045 0.0
C2144 C 0.76572 0.09764 0.57732 0.0
C2145 C 0.78361 0.1223 0.57996 0.0
N2146 N 0.8033 0.16038 0.60378 0.0
N2147 N 0.73203 0.06442 0.59432 0.0
C2148 C 0.78806 0.13607 0.60245 0.0
C2149 C 0.75173 0.08689 0.59728 0.0
N2150 N 0.7833 0.13616 0.64601 0.0
N2151 N 0.76264 0.08436 0.55596 0.0
H2152 H 0.72134 0.05618 0.60857 0.0
H2153 H 0.72505 0.05475 0.5775 0.0
H2154 H 0.77212 0.09178 0.54076 0.0
H2155 H 0.75185 0.06575 0.5537 0.0
H2156 H 0.79838 0.15302 0.64978 0.0
H2157 H 0.77486 0.12838 0.6616 0.0
H2158 H 0.80546 0.17188 0.61882 0.0
H2159 H 0.81255 0.16945 0.58905 0.0
C2160 C 0.91879 0.65938 0.62603 0.0
C2161 C 0.90878 0.66039 0.64826 0.0
C2162 C 0.87571 0.6605 0.62553 0.0
C2163 C 0.88705 0.66204 0.60362 0.0
N2164 N 0.92032 0.66527 0.58275 0.0
N2165 N 0.87823 0.66241 0.66982 0.0
C2166 C 0.90873 0.66186 0.60375 0.0
C2167 C 0.8873 0.661 0.64817 0.0
N2168 N 0.93799 0.65618 0.62621 0.0
N2169 N 0.85366 0.65816 0.62452 0.0
H2170 H 0.88529 0.66109 0.68661 0.0
H2171 H 0.86435 0.66584 0.67139 0.0
H2172 H 0.845 0.65823 0.60825 0.0
H2173 H 0.84319 0.65452 0.63933 0.0
H2174 H 0.94447 0.65257 0.61053 0.0
H2175 H 0.94659 0.65536 0.64215 0.0
H2176 H 0.93754 0.66835 0.58209 0.0
H2177 H 0.91338 0.66675 0.56598 0.0
C2178 C 0.93587 0.68004 0.80272 0.0
C2179 C 0.92151 0.66753 0.78091 0.0
C2180 C 0.8893 0.64195 0.80586 0.0
C2181 C 0.90074 0.65833 0.82654 0.0
N2182 N 0.93986 0.6802 0.84677 0.0
N2183 N 0.88257 0.63804 0.76235 0.0
C2184 C 0.92564 0.6742 0.82578 0.0
C2185 C 0.89764 0.64897 0.78268 0.0
N2186 N 0.95922 0.69713 0.80161 0.0
N2187 N 0.87382 0.61831 0.80864 0.0
H2188 H 0.88725 0.64348 0.74486 0.0
H2189 H 0.86464 0.62531 0.76349 0.0
H2190 H 0.87148 0.61146 0.82579 0.0
H2191 H 0.86653 0.60534 0.79393 0.0
H2192 H 0.96954 0.70889 0.81647 0.0
H2193 H 0.9681 0.7004 0.78564 0.0
H2194 H 0.95835 0.68987 0.84749 0.0
H2195 H 0.93303 0.67246 0.86299 0.0
C2196 C 0.3134 0.21988 0.77513 0.0
C2197 C 0.32046 0.24462 0.77804 0.0
C2198 C 0.3273 0.2449 0.82225 0.0
C2199 C 0.32017 0.22017 0.81933 0.0
N2200 N 0.30192 0.18281 0.79434 0.0
N2201 N 0.3294 0.2795 0.80417 0.0
C2202 C 0.31167 0.20723 0.79616 0.0
C2203 C 0.32591 0.25675 0.80161 0.0
N2204 N 0.30969 0.20887 0.75223 0.0
N2205 N 0.33622 0.25721 0.84458 0.0
H2206 H 0.32838 0.28853 0.78935 0.0
H2207 H 0.33131 0.28867 0.82094 0.0
H2208 H 0.33675 0.24892 0.86022 0.0
H2209 H 0.34431 0.2758 0.84746 0.0
H2210 H 0.30742 0.19182 0.74879 0.0
H2211 H 0.3104 0.21737 0.73637 0.0
H2212 H 0.29321 0.17194 0.77846 0.0
H2213 H 0.30081 0.17306 0.80932 0.0
C2214 C 0.79034 0.1057 0.7527 0.0
C2215 C 0.76644 0.08654 0.74936 0.0
C2216 C 0.763 0.08671 0.79357 0.0
C2217 C 0.78718 0.10531 0.79701 0.0
N2218 N 0.8252 0.1295 0.78063 0.0
N2219 N 0.73136 0.05562 0.76616 0.0
C2220 C 0.80128 0.1139 0.77676 0.0
C2221 C 0.75323 0.07598 0.7697 0.0
N2222 N 0.80233 0.1164 0.73286 0.0
N2223 N 0.74904 0.08013 0.81297 0.0
H2224 H 0.72345 0.04753 0.74889 0.0
H2225 H 0.72186 0.04561 0.78027 0.0
H2226 H 0.75549 0.08744 0.83077 0.0
H2227 H 0.73067 0.06877 0.81127 0.0
H2228 H 0.81877 0.1322 0.73408 0.0
H2229 H 0.79516 0.11017 0.71498 0.0
H2230 H 0.83693 0.13479 0.76681 0.0
H2231 H 0.83371 0.1357 0.79805 0.0
C2232 C 0.09114 0.37183 0.05192 0.0
C2233 C 0.07316 0.37549 0.06135 0.0
C2234 C 0.0815 0.36602 0.10204 0.0
C2235 C 0.09918 0.36194 0.09246 0.0
N2236 N 0.11848 0.35704 0.05797 0.0
N2237 N 0.04889 0.37341 0.09432 0.0
C2238 C 0.10326 0.36365 0.06726 0.0
C2239 C 0.06752 0.37161 0.08608 0.0
N2240 N 0.0969 0.3766 0.02837 0.0
N2241 N 0.07873 0.36541 0.12657 0.0
H2242 H 0.03914 0.37886 0.08371 0.0
H2243 H 0.0421 0.36825 0.11121 0.0
H2244 H 0.08806 0.36053 0.13857 0.0
H2245 H 0.06824 0.37091 0.13538 0.0
H2246 H 0.11169 0.3772 0.02111 0.0
H2247 H 0.08748 0.38121 0.01619 0.0
H2248 H 0.12056 0.35543 0.03945 0.0
H2249 H 0.1279 0.35137 0.06877 0.0
C2250 C 0.6536 0.70488 0.07637 0.0
C2251 C 0.64634 0.68555 0.09149 0.0
C2252 C 0.65756 0.71328 0.12804 0.0
C2253 C 0.66196 0.73202 0.11284 0.0
N2254 N 0.66378 0.7463 0.07282 0.0
N2255 N 0.64066 0.67043 0.1314 0.0
C2256 C 0.66012 0.72807 0.08704 0.0
C2257 C 0.64834 0.68953 0.11728 0.0
N2258 N 0.65441 0.701 0.05186 0.0
N2259 N 0.66236 0.71831 0.15271 0.0
H2260 H 0.63479 0.65294 0.12422 0.0
H2261 H 0.63893 0.67153 0.15007 0.0
H2262 H 0.66866 0.73545 0.16117 0.0
H2263 H 0.66181 0.70609 0.16471 0.0
H2264 H 0.66166 0.71466 0.04002 0.0
H2265 H 0.6494 0.68411 0.04353 0.0
H2266 H 0.66003 0.744 0.05402 0.0
H2267 H 0.66953 0.76376 0.08 0.0
C2268 C 0.30888 0.92493 0.03961 0.0
C2269 C 0.33035 0.94287 0.05233 0.0
C2270 C 0.31055 0.93537 0.09077 0.0
C2271 C 0.28883 0.91818 0.07786 0.0
N2272 N 0.26604 0.89895 0.03986 0.0
N2273 N 0.35134 0.9676 0.08922 0.0
C2274 C 0.28763 0.91364 0.0522 0.0
C2275 C 0.33104 0.94893 0.07765 0.0
N2276 N 0.30893 0.91849 0.01559 0.0
N2277 N 0.31185 0.9379 0.11572 0.0
H2278 H 0.36723 0.97704 0.08079 0.0
H2279 H 0.35218 0.97484 0.10679 0.0
H2280 H 0.29721 0.92855 0.126 0.0
H2281 H 0.32768 0.94791 0.12646 0.0
H2282 H 0.29467 0.90372 0.0059 0.0
H2283 H 0.32388 0.92722 0.00555 0.0
H2284 H 0.26344 0.89668 0.02093 0.0
H2285 H 0.25021 0.89029 0.04857 0.0
C2286 C 0.38611 0.07744 0.02208 0.0
C2287 C 0.38371 0.05755 0.00738 0.0
C2288 C 0.36497 0.0671 0.97366 0.0
C2289 C 0.36649 0.08641 0.98866 0.0
N2290 N 0.37447 0.10756 0.02821 0.0
N2291 N 0.3666 0.03045 0.97104 0.0
C2292 C 0.37589 0.09087 0.01323 0.0
C2293 C 0.37164 0.05134 0.98383 0.0
N2294 N 0.39837 0.08359 0.0444 0.0
N2295 N 0.3584 0.06459 0.94931 0.0
H2296 H 0.37182 0.01872 0.97728 0.0
H2297 H 0.35548 0.02365 0.95511 0.0
H2298 H 0.35341 0.07572 0.94103 0.0
H2299 H 0.35981 0.05281 0.93682 0.0
H2300 H 0.40328 0.09949 0.05479 0.0
H2301 H 0.40467 0.07323 0.05213 0.0
H2302 H 0.37882 0.11013 0.04692 0.0
H2303 H 0.36706 0.11764 0.02224 0.0
C2304 C 0.95724 0.30372 0.96891 0.0
C2305 C 0.95719 0.3085 0.99437 0.0
C2306 C 0.92283 0.2682 0.99708 0.0
C2307 C 0.92282 0.26344 0.9716 0.0
N2308 N 0.94211 0.27436 0.93395 0.0
N2309 N 0.94347 0.29451 0.03358 0.0
C2310 C 0.94081 0.28047 0.95776 0.0
C2311 C 0.94103 0.29044 0.00874 0.0
N2312 N 0.97214 0.32182 0.95521 0.0
N2313 N 0.90502 0.25166 0.00993 0.0
H2314 H 0.95668 0.31065 0.04255 0.0
H2315 H 0.93379 0.28144 0.04543 0.0
H2316 H 0.89213 0.2347 0.00227 0.0
H2317 H 0.90222 0.25502 0.02783 0.0
H2318 H 0.97116 0.32046 0.93623 0.0
H2319 H 0.98474 0.33894 0.96274 0.0
H2320 H 0.95621 0.28489 0.92354 0.0
H2321 H 0.92986 0.2578 0.92497 0.0
C2322 C 0.69707 0.63025 0.00778 0.0
C2323 C 0.6977 0.62428 0.03222 0.0
C2324 C 0.73918 0.63428 0.0299 0.0
C2325 C 0.73869 0.64073 0.00564 0.0
N2326 N 0.71886 0.64862 0.9726 0.0
N2327 N 0.71977 0.62399 0.06802 0.0
C2328 C 0.71817 0.64001 0.99499 0.0
C2329 C 0.71892 0.6273 0.04373 0.0
N2330 N 0.67595 0.62535 0.99633 0.0
N2331 N 0.75886 0.63432 0.03944 0.0
H2332 H 0.70517 0.61878 0.07851 0.0
H2333 H 0.73523 0.62805 0.07826 0.0
H2334 H 0.77439 0.64046 0.03029 0.0
H2335 H 0.75952 0.62722 0.05583 0.0
H2336 H 0.67357 0.62648 0.97774 0.0
H2337 H 0.66011 0.61841 0.00502 0.0
H2338 H 0.70556 0.65125 0.96504 0.0
H2339 H 0.73356 0.65482 0.96212 0.0
C2340 C 0.92678 0.62754 0.01521 0.0
C2341 C 0.94712 0.62872 0.0054 0.0
C2342 C 0.94064 0.64577 0.96884 0.0
C2343 C 0.91903 0.64231 0.97757 0.0
N2344 N 0.89012 0.62804 0.0079 0.0
N2345 N 0.9721 0.63615 0.97176 0.0
C2346 C 0.91175 0.63275 1.0005 0.0
C2347 C 0.95383 0.63727 0.98198 0.0
N2348 N 0.92227 0.62212 0.03886 0.0
N2349 N 0.94871 0.65751 0.94817 0.0
H2350 H 0.98228 0.63017 0.98075 0.0
H2351 H 0.97611 0.63943 0.9537 0.0
H2352 H 0.93922 0.66347 0.93784 0.0
H2353 H 0.96555 0.663 0.94225 0.0
H2354 H 0.9092 0.62336 0.04803 0.0
H2355 H 0.93298 0.61829 0.0501 0.0
H2356 H 0.88247 0.61856 0.02299 0.0
H2357 H 0.87897 0.63223 0.99795 0.0
C2358 C 0.37155 0.29784 0.99954 0.0
C2359 C 0.37046 0.31562 0.98635 0.0
C2360 C 0.3498 0.28618 0.95136 0.0
C2361 C 0.3537 0.2694 0.9634 0.0
N2362 N 0.36978 0.25938 0.99812 0.0
N2363 N 0.36042 0.32782 0.9491 0.0
C2364 C 0.3648 0.27517 0.98738 0.0
C2365 C 0.35982 0.31004 0.96217 0.0
N2366 N 0.37859 0.30253 0.02386 0.0
N2367 N 0.33632 0.27917 0.92972 0.0
H2368 H 0.36735 0.34544 0.95642 0.0
H2369 H 0.35555 0.32558 0.93052 0.0
H2370 H 0.32897 0.26188 0.92123 0.0
H2371 H 0.33076 0.28973 0.92118 0.0
H2372 H 0.37753 0.28958 0.03515 0.0
H2373 H 0.38353 0.31895 0.03329 0.0
H2374 H 0.38032 0.26361 0.0143 0.0
H2375 H 0.36469 0.2424 0.99003 0.0
C2376 C 0.68524 0.05742 0.00139 0.0
C2377 C 0.68432 0.06565 0.02554 0.0
C2378 C 0.72441 0.10048 0.02369 0.0
C2379 C 0.72579 0.09135 1.00019 0.0
N2380 N 0.70978 0.05882 0.96875 0.0
N2381 N 0.70416 0.09259 0.0613 0.0
C2382 C 0.70691 0.06904 0.98973 0.0
C2383 C 0.70426 0.08652 0.03718 0.0
N2384 N 0.66504 0.03947 0.98893 0.0
N2385 N 0.74199 0.1228 0.03274 0.0
H2386 H 0.68973 0.08267 0.07166 0.0
H2387 H 0.719 0.10617 0.07155 0.0
H2388 H 0.75719 0.13327 0.02357 0.0
H2389 H 0.74083 0.13165 0.04848 0.0
H2390 H 0.66408 0.03462 0.97042 0.0
H2391 H 0.64853 0.03091 0.99633 0.0
H2392 H 0.69764 0.04138 0.96169 0.0
H2393 H 0.72535 0.0669 0.95954 0.0
C2394 C 0.63921 0.92946 0.04486 0.0
C2395 C 0.64149 0.94918 0.05972 0.0
C2396 C 0.66321 0.94142 0.09192 0.0
C2397 C 0.65771 0.91972 0.0786 0.0
N2398 N 0.64011 0.89224 0.04284 0.0
N2399 N 0.65324 0.97252 0.09865 0.0
C2400 C 0.64582 0.9136 0.05504 0.0
C2401 C 0.6532 0.95507 0.08345 0.0
N2402 N 0.6311 0.92622 0.02094 0.0
N2403 N 0.67784 0.94884 0.11281 0.0
H2404 H 0.64579 0.98278 0.09357 0.0
H2405 H 0.65889 0.97552 0.11708 0.0
H2406 H 0.68513 0.93902 0.11976 0.0
H2407 H 0.6845 0.96568 0.12203 0.0
H2408 H 0.631 0.91352 0.00847 0.0
H2409 H 0.62637 0.93773 0.01301 0.0
H2410 H 0.62904 0.88533 0.0269 0.0
H2411 H 0.64552 0.88072 0.04942 0.0
C2412 C 0.05969 0.70144 0.09703 0.0
C2413 C 0.06517 0.69538 0.07395 0.0
C2414 C 0.10175 0.73468 0.07549 0.0
C2415 C 0.09602 0.74092 0.09832 0.0
N2416 N 0.0677 0.73266 0.12865 0.0
N2417 N 0.08836 0.70749 0.03887 0.0
C2418 C 0.07434 0.72504 0.10838 0.0
C2419 C 0.0853 0.71244 0.06246 0.0
N2420 N 0.04126 0.68427 0.10872 0.0
N2421 N 0.12331 0.74963 0.06671 0.0
H2422 H 0.07651 0.69138 0.02884 0.0
H2423 H 0.10132 0.72 0.02852 0.0
H2424 H 0.13556 0.76632 0.07542 0.0
H2425 H 0.12978 0.74494 0.05168 0.0
H2426 H 0.03811 0.68667 0.12676 0.0
H2427 H 0.02994 0.66686 0.10097 0.0
H2428 H 0.05102 0.72294 0.13546 0.0
H2429 H 0.07823 0.74972 0.13757 0.0
C2430 C 0.31975 0.37146 0.06755 0.0
C2431 C 0.32233 0.3827 0.04535 0.0
C2432 C 0.28386 0.38044 0.04922 0.0
C2433 C 0.28099 0.36844 0.07089 0.0
N2434 N 0.29354 0.34818 0.09817 0.0
N2435 N 0.30537 0.39409 0.0127 0.0
C2436 C 0.29809 0.3625 0.07918 0.0
C2437 C 0.3039 0.38606 0.03547 0.0
N2438 N 0.33856 0.37072 0.07838 0.0
N2439 N 0.26779 0.38709 0.04223 0.0
H2440 H 0.31976 0.39821 0.0022 0.0
H2441 H 0.29158 0.39477 0.00337 0.0
H2442 H 0.25254 0.38257 0.05143 0.0
H2443 H 0.2702 0.39825 0.02825 0.0
H2444 H 0.33875 0.36543 0.09593 0.0
H2445 H 0.35488 0.37733 0.07074 0.0
H2446 H 0.30406 0.34102 0.10335 0.0
H2447 H 0.27809 0.34173 0.10751 0.0
C2448 C 0.75804 0.70904 0.38627 0.0
C2449 C 0.73939 0.71149 0.39584 0.0
C2450 C 0.7481 0.70162 0.43617 0.0
C2451 C 0.7664 0.69868 0.42643 0.0
N2452 N 0.78676 0.6959 0.39186 0.0
N2453 N 0.71454 0.70761 0.42882 0.0
C2454 C 0.77074 0.70128 0.40133 0.0
C2455 C 0.73368 0.70685 0.42045 0.0
N2456 N 0.76385 0.71454 0.36286 0.0
N2457 N 0.74514 0.70027 0.46065 0.0
H2458 H 0.70444 0.71281 0.41844 0.0
H2459 H 0.70772 0.70183 0.44557 0.0
H2460 H 0.75483 0.69567 0.47247 0.0
H2461 H 0.73411 0.70493 0.46963 0.0
H2462 H 0.77899 0.71604 0.35558 0.0
H2463 H 0.75404 0.71884 0.35086 0.0
H2464 H 0.78911 0.69491 0.37333 0.0
H2465 H 0.79671 0.6907 0.40246 0.0
C2466 C 0.31167 0.03746 0.40984 0.0
C2467 C 0.31053 0.01877 0.42334 0.0
C2468 C 0.32582 0.04591 0.46062 0.0
C2469 C 0.32684 0.06455 0.44712 0.0
N2470 N 0.32569 0.08007 0.40846 0.0
N2471 N 0.32037 0.00579 0.46013 0.0
C2472 C 0.32133 0.06092 0.42153 0.0
C2473 C 0.31902 0.02326 0.44826 0.0
N2474 N 0.30297 0.03256 0.38599 0.0
N2475 N 0.33021 0.04953 0.48541 0.0
H2476 H 0.31467 0.98868 0.45197 0.0
H2477 H 0.32865 0.00865 0.47748 0.0
H2478 H 0.33578 0.06605 0.49496 0.0
H2479 H 0.32707 0.03595 0.49678 0.0
H2480 H 0.30054 0.04448 0.37588 0.0
H2481 H 0.29706 0.01595 0.37648 0.0
H2482 H 0.32418 0.07927 0.3895 0.0
H2483 H 0.33272 0.09747 0.41653 0.0
C2484 C 0.97387 0.26071 0.36978 0.0
C2485 C 0.99359 0.2809 0.3827 0.0
C2486 C 0.97076 0.27382 0.419 0.0
C2487 C 0.95078 0.25418 0.40585 0.0
N2488 N 0.93155 0.23145 0.36774 0.0
N2489 N 0.00914 0.30979 0.41788 0.0
C2490 C 0.95182 0.24837 0.3809 0.0
C2491 C 0.99144 0.28854 0.40669 0.0
N2492 N 0.97628 0.25328 0.34693 0.0
N2493 N 0.97053 0.27762 0.44365 0.0
H2494 H 0.02506 0.32084 0.41022 0.0
H2495 H 1.00727 0.31756 0.43404 0.0
H2496 H 0.95582 0.26731 0.45347 0.0
H2497 H 0.98553 0.28964 0.45481 0.0
H2498 H 0.96368 0.23707 0.33769 0.0
H2499 H 0.99151 0.2629 0.33751 0.0
H2500 H 0.93042 0.22792 0.34894 0.0
H2501 H 0.91517 0.22218 0.37538 0.0
C2502 C 0.0498 0.41304 0.35682 0.0
C2503 C 0.05075 0.39508 0.34181 0.0
C2504 C 0.03303 0.40416 0.30681 0.0
C2505 C 0.03129 0.42156 0.32199 0.0
N2506 N 0.03416 0.44004 0.36196 0.0
N2507 N 0.0404 0.37093 0.30357 0.0
C2508 C 0.03856 0.42526 0.3472 0.0
C2509 C 0.04129 0.38971 0.31718 0.0
N2510 N 0.05991 0.41858 0.38015 0.0
N2511 N 0.02806 0.40237 0.28218 0.0
H2512 H 0.04788 0.36098 0.30967 0.0
H2513 H 0.03094 0.36412 0.28669 0.0
H2514 H 0.02165 0.41233 0.27388 0.0
H2515 H 0.03185 0.39236 0.26967 0.0
H2516 H 0.06229 0.43326 0.39121 0.0
H2517 H 0.06715 0.40913 0.38815 0.0
H2518 H 0.03689 0.44187 0.38087 0.0
H2519 H 0.02594 0.44916 0.35539 0.0
C2520 C 0.6064 0.62446 0.34191 0.0
C2521 C 0.62334 0.64263 0.32817 0.0
C2522 C 0.6093 0.61445 0.29163 0.0
C2523 C 0.59056 0.59728 0.30465 0.0
N2524 N 0.57037 0.58551 0.34176 0.0
N2525 N 0.64026 0.65604 0.28973 0.0
C2526 C 0.58896 0.6021 0.32975 0.0
C2527 C 0.62485 0.63784 0.30302 0.0
N2528 N 0.60741 0.6285 0.36666 0.0
N2529 N 0.61215 0.60833 0.26838 0.0
H2530 H 0.65215 0.67333 0.29742 0.0
H2531 H 0.64029 0.65459 0.27081 0.0
H2532 H 0.6006 0.59164 0.25921 0.0
H2533 H 0.62688 0.61902 0.25876 0.0
H2534 H 0.59712 0.61534 0.37819 0.0
H2535 H 0.62006 0.64469 0.37602 0.0
H2536 H 0.56643 0.58891 0.35914 0.0
H2537 H 0.55795 0.56849 0.33381 0.0
C2538 C 0.35712 0.95864 0.33662 0.0
C2539 C 0.35712 0.95213 0.36094 0.0
C2540 C 0.39872 0.96224 0.3594 0.0
C2541 C 0.39794 0.96651 0.3344 0.0
N2542 N 0.3758 0.96612 0.29815 0.0
N2543 N 0.37685 0.94579 0.39516 0.0
C2544 C 0.37703 0.96419 0.32276 0.0
C2545 C 0.37766 0.9534 0.37226 0.0
N2546 N 0.338 0.95942 0.32671 0.0
N2547 N 0.4198 0.9672 0.37094 0.0
H2548 H 0.36211 0.94033 0.40548 0.0
H2549 H 0.39016 0.94359 0.40344 0.0
H2550 H 0.43548 0.97357 0.36201 0.0
H2551 H 0.42228 0.9668 0.38966 0.0
H2552 H 0.33799 0.96676 0.31028 0.0
H2553 H 0.3225 0.95419 0.33566 0.0
H2554 H 0.36022 0.96181 0.28798 0.0
H2555 H 0.39001 0.97033 0.28734 0.0
C2556 C 0.59044 0.95934 0.35261 0.0
C2557 C 0.61094 0.96062 0.34311 0.0
C2558 C 0.60461 0.9774 0.30625 0.0
C2559 C 0.58279 0.97371 0.31462 0.0
N2560 N 0.55362 0.95936 0.34468 0.0
N2561 N 0.63632 0.96818 0.3098 0.0
C2562 C 0.5754 0.96428 0.33758 0.0
C2563 C 0.61784 0.96913 0.31971 0.0
N2564 N 0.58576 0.95402 0.37626 0.0
N2565 N 0.61284 0.98914 0.28561 0.0
H2566 H 0.64654 0.96238 0.31903 0.0
H2567 H 0.64048 0.97142 0.29177 0.0
H2568 H 0.60338 0.99501 0.27511 0.0
H2569 H 0.62979 0.99476 0.27992 0.0
H2570 H 0.57255 0.95519 0.3852 0.0
H2571 H 0.59648 0.95038 0.38771 0.0
H2572 H 0.5459 0.94995 0.35977 0.0
H2573 H 0.54242 0.96332 0.33447 0.0
C2574 C 0.026 0.64473 0.29138 0.0
C2575 C 0.03567 0.65004 0.31594 0.0
C2576 C 0.02983 0.60954 0.31723 0.0
C2577 C 0.01981 0.60408 0.2928 0.0
N2578 N 1.00392 0.61425 0.25818 0.0
N2579 N 0.04229 0.63657 0.35389 0.0
C2580 C 0.01645 0.62101 0.28038 0.0
C2581 C 0.03617 0.63211 0.32938 0.0
N2582 N 0.02708 0.66266 0.27821 0.0
N2583 N 0.03417 0.59353 0.32845 0.0
H2584 H 0.04694 0.65293 0.36329 0.0
H2585 H 0.04076 0.62352 0.3653 0.0
H2586 H 0.02926 0.5766 0.32037 0.0
H2587 H 0.04396 0.59751 0.34509 0.0
H2588 H 0.02299 0.66068 0.25948 0.0
H2589 H 0.03361 0.68017 0.2857 0.0
H2590 H 0.99873 0.6249 0.24922 0.0
H2591 H 0.99697 0.59708 0.24955 0.0
C2592 C 0.3594 0.3839 0.3357 0.0
C2593 C 0.35581 0.39351 0.35794 0.0
C2594 C 0.39402 0.43081 0.35548 0.0
C2595 C 0.39771 0.42094 0.33363 0.0
N2596 N 0.38683 0.38658 0.30567 0.0
N2597 N 0.37207 0.4235 0.39186 0.0
C2598 C 0.38135 0.39694 0.3247 0.0
C2599 C 0.37387 0.41623 0.36868 0.0
N2600 N 0.34136 0.36309 0.32412 0.0
N2601 N 0.40943 0.45431 0.36322 0.0
H2602 H 0.35789 0.41293 0.40225 0.0
H2603 H 0.38561 0.43879 0.40166 0.0
H2604 H 0.4248 0.46522 0.35448 0.0
H2605 H 0.40628 0.46345 0.37735 0.0
H2606 H 0.34182 0.35706 0.30637 0.0
H2607 H 0.32505 0.35257 0.33133 0.0
H2608 H 0.37698 0.36833 0.30013 0.0
H2609 H 0.40242 0.39578 0.29667 0.0
C2610 C 0.31092 0.28304 0.42304 0.0
C2611 C 0.29916 0.27669 0.39933 0.0
C2612 C 0.30339 0.24099 0.39565 0.0
C2613 C 0.31571 0.24775 0.41903 0.0
N2614 N 0.33562 0.27739 0.4529 0.0
N2615 N 0.28819 0.25265 0.36115 0.0
C2616 C 0.32098 0.26957 0.432 0.0
C2617 C 0.2966 0.25654 0.38503 0.0
N2618 N 0.31117 0.30093 0.43766 0.0
N2619 N 0.29754 0.21935 0.38398 0.0
H2620 H 0.28325 0.26385 0.35286 0.0
H2621 H 0.28799 0.23967 0.34901 0.0
H2622 H 0.30299 0.20797 0.39086 0.0
H2623 H 0.28619 0.21202 0.36825 0.0
H2624 H 0.31692 0.30444 0.45607 0.0
H2625 H 0.30379 0.31113 0.43207 0.0
H2626 H 0.34219 0.29434 0.46184 0.0
H2627 H 0.34293 0.26774 0.46025 0.0
C2628 C 0.7251 0.03366 0.43569 0.0
C2629 C 0.72926 0.02763 0.41192 0.0
C2630 C 0.76525 0.06719 0.41175 0.0
C2631 C 0.7609 0.07337 0.43536 0.0
N2632 N 0.73477 0.06483 0.46797 0.0
N2633 N 0.75004 0.03972 0.3753 0.0
C2634 C 0.74015 0.05732 0.44673 0.0
C2635 C 0.74837 0.04478 0.39932 0.0
N2636 N 0.70752 0.01642 0.44816 0.0
N2637 N 0.78596 0.08239 0.40163 0.0
H2638 H 0.73787 0.02345 0.36573 0.0
H2639 H 0.76213 0.05224 0.36428 0.0
H2640 H 0.79845 0.09921 0.40989 0.0
H2641 H 0.79156 0.07783 0.38582 0.0
H2642 H 0.70537 0.01877 0.46655 0.0
H2643 H 0.69585 0.99904 0.44055 0.0
H2644 H 0.71872 0.05495 0.47594 0.0
H2645 H 0.74565 0.08193 0.47669 0.0
C2646 C 0.98584 0.70665 0.39858 0.0
C2647 C 0.98775 0.71744 0.3762 0.0
C2648 C 0.94938 0.71516 0.38106 0.0
C2649 C 0.94714 0.70356 0.40291 0.0
N2650 N 0.96051 0.68383 0.42999 0.0
N2651 N 0.96983 0.72812 0.34383 0.0
C2652 C 0.9645 0.69783 0.41081 0.0
C2653 C 0.96903 0.72055 0.36674 0.0
N2654 N 1.00497 0.70624 0.40903 0.0
N2655 N 0.93311 0.72165 0.37443 0.0
H2656 H 0.98392 0.73207 0.33292 0.0
H2657 H 0.95577 0.72858 0.33483 0.0
H2658 H 0.91814 0.71731 0.38406 0.0
H2659 H 0.93511 0.73255 0.3603 0.0
H2660 H 1.00563 0.70128 0.42664 0.0
H2661 H 0.0211 0.71284 0.401 0.0
H2662 H 0.97122 0.67681 0.43494 0.0
H2663 H 0.9453 0.67746 0.43972 0.0
C2664 C 0.423 0.03965 0.72207 0.0
C2665 C 0.40209 0.03753 0.73141 0.0
C2666 C 0.40929 0.022 0.7688 0.0
C2667 C 0.43009 0.02394 0.75934 0.0
N2668 N 0.45497 0.03076 0.72578 0.0
N2669 N 0.37328 0.02391 0.76191 0.0
C2670 C 0.43637 0.03156 0.73555 0.0
C2671 C 0.39453 0.02768 0.75419 0.0
N2672 N 0.43031 0.04985 0.70048 0.0
N2673 N 0.40414 0.01546 0.79208 0.0
H2674 H 0.36259 0.02903 0.75248 0.0
H2675 H 0.3654 0.01444 0.77692 0.0
H2676 H 0.41395 0.01016 0.80282 0.0
H2677 H 0.39096 0.01637 0.80135 0.0
H2678 H 0.44683 0.05478 0.694 0.0
H2679 H 0.42019 0.0545 0.68935 0.0
H2680 H 0.45906 0.03359 0.70769 0.0
H2681 H 0.46553 0.02558 0.73533 0.0
C2682 C 0.98471 0.36751 0.73892 0.0
C2683 C 0.98118 0.34883 0.75383 0.0
C2684 C 0.99471 0.37702 0.7903 0.0
C2685 C 0.99538 0.39486 0.77572 0.0
N2686 N 0.99061 0.4076 0.73647 0.0
N2687 N 0.98113 0.33476 0.79369 0.0
C2688 C 0.99044 0.3903 0.75005 0.0
C2689 C 0.98605 0.35336 0.77951 0.0
N2690 N 0.98306 0.3635 0.71411 0.0
N2691 N 1.00232 0.38275 0.81446 0.0
H2692 H 0.97508 0.31725 0.78649 0.0
H2693 H 0.98155 0.33621 0.81264 0.0
H2694 H 0.00803 0.39969 0.8231 0.0
H2695 H 1.00469 0.37141 0.82556 0.0
H2696 H 0.98762 0.37689 0.70209 0.0
H2697 H 0.97896 0.34698 0.70548 0.0
H2698 H 0.9844 0.40457 0.71822 0.0
H2699 H 0.99591 0.4249 0.74379 0.0
C2700 C 0.64362 0.58963 0.70844 0.0
C2701 C 0.66495 0.60732 0.72154 0.0
C2702 C 0.64512 0.59791 0.75992 0.0
C2703 C 0.6234 0.58125 0.74664 0.0
N2704 N 0.60079 0.56347 0.70824 0.0
N2705 N 0.6857 0.63077 0.75908 0.0
C2706 C 0.62232 0.57771 0.72085 0.0
C2707 C 0.66556 0.61227 0.74708 0.0
N2708 N 0.64385 0.58403 0.68421 0.0
N2709 N 0.64646 0.5992 0.78488 0.0
H2710 H 0.70149 0.64091 0.7507 0.0
H2711 H 0.6864 0.6372 0.77699 0.0
H2712 H 0.6319 0.58907 0.79501 0.0
H2713 H 0.66231 0.60887 0.79567 0.0
H2714 H 0.62967 0.56951 0.67415 0.0
H2715 H 0.6589 0.59312 0.67438 0.0
H2716 H 0.59831 0.562 0.68931 0.0
H2717 H 0.58491 0.55439 0.71679 0.0
C2718 C 0.71022 0.74087 0.69257 0.0
C2719 C 0.70909 0.72167 0.67773 0.0
C2720 C 0.68911 0.72985 0.64407 0.0
C2721 C 0.69 0.74892 0.65897 0.0
N2722 N 0.69676 0.7696 0.69857 0.0
N2723 N 0.69348 0.69473 0.64118 0.0
C2724 C 0.69914 0.75349 0.68364 0.0
C2725 C 0.69705 0.71503 0.65416 0.0
N2726 N 0.7222 0.74723 0.71505 0.0
N2727 N 0.68209 0.72683 0.61981 0.0
H2728 H 0.70017 0.68407 0.64708 0.0
H2729 H 0.68234 0.68736 0.62532 0.0
H2730 H 0.67575 0.73694 0.61169 0.0
H2731 H 0.68409 0.71551 0.60724 0.0
H2732 H 0.72621 0.76276 0.72563 0.0
H2733 H 0.72917 0.73741 0.72276 0.0
H2734 H 0.70103 0.77229 0.71729 0.0
H2735 H 0.68858 0.77894 0.6925 0.0
C2736 C 0.26807 0.9557 0.67339 0.0
C2737 C 0.28578 0.97363 0.66006 0.0
C2738 C 0.27121 0.94629 0.62296 0.0
C2739 C 0.2534 0.92838 0.63626 0.0
N2740 N 0.23774 0.91371 0.67478 0.0
N2741 N 0.30765 0.985 0.62398 0.0
C2742 C 0.25279 0.93237 0.66176 0.0
C2743 C 0.28852 0.96852 0.63543 0.0
N2744 N 0.26546 0.96125 0.69695 0.0
N2745 N 0.27081 0.94248 0.59824 0.0
H2746 H 0.32036 1.00166 0.63245 0.0
H2747 H 0.31204 0.98155 0.60686 0.0
H2748 H 0.2587 0.92625 0.58858 0.0
H2749 H 0.28148 0.95575 0.587 0.0
H2750 H 0.2512 0.95002 0.70683 0.0
H2751 H 0.27711 0.9778 0.70635 0.0
H2752 H 0.23783 0.91472 0.69372 0.0
H2753 H 0.22633 0.89643 0.66674 0.0
C2754 C 0.02495 0.28602 0.67287 0.0
C2755 C 0.02462 0.2779 0.6965 0.0
C2756 C 0.06432 0.28315 0.69238 0.0
C2757 C 0.06517 0.29266 0.66945 0.0
N2758 N 0.04853 0.30749 0.63986 0.0
N2759 N 0.04522 0.27241 0.73055 0.0
C2760 C 0.04616 0.29547 0.66034 0.0
C2761 C 0.04468 0.2775 0.70678 0.0
N2762 N 1.00462 0.28347 0.66177 0.0
N2763 N 0.08192 0.27884 0.70001 0.0
H2764 H 0.0312 0.26834 0.7416 0.0
H2765 H 0.06023 0.2742 0.73995 0.0
H2766 H 0.09677 0.2832 0.69018 0.0
H2767 H 0.08105 0.26945 0.71517 0.0
H2768 H 1.00305 0.28644 0.64354 0.0
H2769 H 0.98853 0.27628 0.67001 0.0
H2770 H 0.0364 0.31245 0.63384 0.0
H2771 H 0.06369 0.31441 0.63 0.0
C2772 C 0.28658 0.30468 0.65371 0.0
C2773 C 0.27922 0.29611 0.67699 0.0
C2774 C 0.24384 0.29991 0.67072 0.0
C2775 C 0.25148 0.30901 0.64768 0.0
N2776 N 0.28178 0.32406 0.61892 0.0
N2777 N 0.25363 0.28967 0.7097 0.0
C2778 C 0.27345 0.31274 0.63975 0.0
C2779 C 0.25864 0.29494 0.68609 0.0
N2780 N 0.30535 0.30389 0.64436 0.0
N2781 N 0.22214 0.29548 0.67759 0.0
H2782 H 0.26419 0.28602 0.72139 0.0
H2783 H 0.2403 0.29084 0.71838 0.0
H2784 H 0.21132 0.29989 0.66734 0.0
H2785 H 0.21418 0.28621 0.69268 0.0
H2786 H 0.3099 0.30712 0.62643 0.0
H2787 H 0.31555 0.29832 0.65402 0.0
H2788 H 0.29882 0.32973 0.61348 0.0
H2789 H 0.27226 0.32947 0.60787 0.0
C2790 C 0.70592 0.96557 0.66602 0.0
C2791 C 0.70557 0.9836 0.65258 0.0
C2792 C 0.68537 0.95433 0.61734 0.0
C2793 C 0.68845 0.93722 0.62974 0.0
N2794 N 0.70308 0.9266 0.66511 0.0
N2795 N 0.69696 0.99619 0.61484 0.0
C2796 C 0.69895 0.94279 0.65397 0.0
C2797 C 0.69557 0.97821 0.62814 0.0
N2798 N 0.71242 0.97013 0.69046 0.0
N2799 N 0.67246 0.9476 0.59535 0.0
H2800 H 0.70405 0.01385 0.62212 0.0
H2801 H 0.69263 0.99408 0.59614 0.0
H2802 H 0.66506 0.93033 0.58683 0.0
H2803 H 0.66743 0.95842 0.5865 0.0
H2804 H 0.71081 0.95707 0.70188 0.0
H2805 H 0.71749 0.98663 0.69981 0.0
H2806 H 0.71315 0.93056 0.68157 0.0
H2807 H 0.69772 0.90953 0.65712 0.0
C2808 C 0.0376 0.74949 0.7014 0.0
C2809 C 0.01747 0.72877 0.68979 0.0
C2810 C 0.03965 0.73228 0.6536 0.0
C2811 C 0.05871 0.75446 0.66408 0.0
N2812 N 0.0754 0.78566 0.69688 0.0
N2813 N 0.99777 0.70282 0.65314 0.0
C2814 C 0.05764 0.76345 0.68777 0.0
C2815 C 0.01811 0.72066 0.66548 0.0
N2816 N 0.03776 0.75541 0.72562 0.0
N2817 N 0.04223 0.72218 0.63235 0.0
H2818 H 0.98136 0.69423 0.66076 0.0
H2819 H 0.99657 0.69807 0.63457 0.0
H2820 H 0.05767 0.73028 0.62296 0.0
H2821 H 0.02994 0.70482 0.6252 0.0
H2822 H 0.05273 0.76886 0.73582 0.0
H2823 H 0.02342 0.74548 0.73608 0.0
H2824 H 0.07446 0.79443 0.7128 0.0
H2825 H 0.09053 0.79612 0.68761 0.0
C2826 C 0.96919 0.59138 0.70999 0.0
C2827 C 0.97199 0.61124 0.72502 0.0
C2828 C 0.99334 0.6027 0.75693 0.0
C2829 C 0.98744 0.58096 0.7434 0.0
N2830 N 0.96925 0.55372 0.70756 0.0
N2831 N 0.98424 0.63438 0.76405 0.0
C2832 C 0.97541 0.57514 0.71993 0.0
C2833 C 0.98374 0.61679 0.7487 0.0
N2834 N 0.96098 0.58837 0.68614 0.0
N2835 N 0.00801 0.60977 0.77776 0.0
H2836 H 0.97712 0.64498 0.75912 0.0
H2837 H 0.98992 0.63719 0.78246 0.0
H2838 H 0.01501 0.59964 0.78456 0.0
H2839 H 0.01498 0.6266 0.7871 0.0
H2840 H 0.96053 0.57557 0.67354 0.0
H2841 H 0.95653 0.60015 0.67837 0.0
H2842 H 0.95806 0.54704 0.69168 0.0
H2843 H 0.97436 0.5419 0.71395 0.0
C2844 C 0.3907 0.36835 0.77109 0.0
C2845 C 0.39548 0.36175 0.7479 0.0
C2846 C 0.43206 0.40084 0.74801 0.0
C2847 C 0.42722 0.40754 0.77113 0.0
N2848 N 0.40009 0.40018 0.80252 0.0
N2849 N 0.41738 0.37293 0.7119 0.0
C2850 C 0.40587 0.39206 0.78196 0.0
C2851 C 0.41515 0.37844 0.73561 0.0
N2852 N 0.37242 0.35159 0.78327 0.0
N2853 N 0.45326 0.41548 0.73841 0.0
H2854 H 0.40519 0.35666 0.70235 0.0
H2855 H 0.42997 0.38514 0.70102 0.0
H2856 H 0.46582 0.43229 0.74664 0.0
H2857 H 0.45914 0.41046 0.72311 0.0
H2858 H 0.36971 0.35434 0.80138 0.0
H2859 H 0.36066 0.33419 0.77574 0.0
H2860 H 0.38371 0.39075 0.81002 0.0
H2861 H 0.41101 0.41736 0.81103 0.0
C2862 C 0.66094 0.05351 0.7374 0.0
C2863 C 0.65925 0.05307 0.71153 0.0
C2864 C 0.61651 0.03867 0.71168 0.0
C2865 C 0.61807 0.03832 0.73747 0.0
N2866 N 0.64053 0.04178 0.77474 0.0
N2867 N 0.63552 0.04227 0.67359 0.0
C2868 C 0.63994 0.04464 0.75028 0.0
C2869 C 0.63701 0.04472 0.69852 0.0
N2870 N 0.68277 0.06308 0.74969 0.0
N2871 N 0.59556 0.0338 0.69992 0.0
H2872 H 0.65032 0.04702 0.66354 0.0
H2873 H 0.61957 0.03408 0.66288 0.0
H2874 H 0.58006 0.02857 0.70891 0.0
H2875 H 0.59375 0.03623 0.68158 0.0
H2876 H 0.68567 0.06662 0.76854 0.0
H2877 H 0.6985 0.06899 0.74096 0.0
H2878 H 0.65519 0.04336 0.78468 0.0
H2879 H 0.62572 0.0361 0.78498 0.0
loop_
_geom_bond_atom_site_label_1
_geom_bond_atom_site_label_2
_geom_bond_distance
_geom_bond_site_symmetry_2
_ccdc_geom_bond_type
O0 Cd1 2.223 . S
O0 C8 1.315 . S
Cd1 O0 2.223 . S
Cd1 O4 2.297 . S
Cd1 O5 2.439 . S
Cd1 O11 2.224 1_554 S
Cd2 O3 2.240 . S
Cd2 O10 2.223 . S
Cd2 O12 2.297 1_554 S
Cd2 O13 2.439 . S
O3 Cd2 2.240 . S
O3 C8 1.279 1_655 S
O4 Cd1 2.297 . S
O4 C6 1.247 . S
O5 Cd1 2.439 . S
O5 C6 1.208 . S
C6 O4 1.247 . S
C6 O5 1.208 . S
C7 O12 1.247 . S
C7 O13 1.208 1_556 S
C8 O0 1.315 . S
C8 O3 1.279 1_455 S
C9 O10 1.315 1_556 S
C9 O11 1.284 1_655 S
O10 Cd2 2.223 . S
O10 C9 1.315 1_554 S
O11 Cd1 2.224 1_556 S
O11 C9 1.284 1_455 S
O12 Cd2 2.297 1_556 S
O12 C7 1.247 . S
O13 Cd2 2.439 . S
O13 C7 1.208 1_554 S
O14 Cd15 2.223 . S
O14 C22 1.315 . S
Cd15 O14 2.223 . S
Cd15 O18 2.297 . S
Cd15 O19 2.439 . S
Cd15 O25 2.240 . S
Cd16 O17 2.240 . S
Cd16 O24 2.223 . S
Cd16 O26 2.297 . S
Cd16 O27 2.439 . S
O17 Cd16 2.240 . S
O17 C22 1.279 . S
O18 Cd15 2.297 . S
O18 C20 1.247 . S
O19 Cd15 2.439 . S
O19 C20 1.208 . S
C20 O18 1.247 . S
C20 O19 1.208 . S
C21 O26 1.247 . S
C21 O27 1.208 . S
C22 O14 1.315 . S
C22 O17 1.279 . S
C23 O24 1.315 . S
C23 O25 1.279 . S
O24 Cd16 2.223 . S
O24 C23 1.315 . S
O25 Cd15 2.240 . S
O25 C23 1.279 . S
O26 Cd16 2.297 . S
O26 C21 1.247 . S
O27 Cd16 2.439 . S
O27 C21 1.208 . S
O28 Cd29 2.223 . S
O28 C36 1.312 1_544 S
Cd29 O28 2.223 . S
Cd29 O32 2.297 1_554 S
Cd29 O33 2.439 . S
Cd29 O39 2.240 . S
Cd30 O31 2.240 1_554 S
Cd30 O38 2.223 . S
Cd30 O40 2.297 . S
Cd30 O41 2.439 . S
O31 Cd30 2.240 1_556 S
O31 C36 1.279 . S
O32 Cd29 2.297 1_556 S
O32 C34 1.247 . S
O33 Cd29 2.439 . S
O33 C34 1.208 1_554 S
C34 O32 1.247 . S
C34 O33 1.208 1_556 S
C35 O40 1.247 . S
C35 O41 1.208 . S
C36 O28 1.312 1_566 S
C36 O31 1.279 . S
C37 O38 1.360 . S
C37 O39 1.236 1_565 S
O38 Cd30 2.223 . S
O38 C37 1.360 . S
O39 Cd29 2.240 . S
O39 C37 1.236 1_545 S
O40 Cd30 2.297 . S
O40 C35 1.247 . S
O41 Cd30 2.439 . S
O41 C35 1.208 . S
O42 Cd43 2.223 . S
O42 C50 1.315 . S
Cd43 O42 2.223 . S
Cd43 O46 2.297 . S
Cd43 O47 2.439 . S
Cd43 O53 2.240 . S
Cd44 O45 2.240 . S
Cd44 O52 2.223 . S
Cd44 O54 2.297 . S
Cd44 O55 2.439 . S
O45 Cd44 2.240 . S
O45 C50 1.279 1_455 S
O46 Cd43 2.297 . S
O46 C48 1.247 . S
O47 Cd43 2.439 . S
O47 C48 1.208 . S
C48 O46 1.247 . S
C48 O47 1.208 . S
C49 O54 1.247 . S
C49 O55 1.208 . S
C50 O42 1.315 . S
C50 O45 1.279 1_655 S
C51 O52 1.315 . S
C51 O53 1.279 1_455 S
O52 Cd44 2.223 . S
O52 C51 1.315 . S
O53 Cd43 2.240 . S
O53 C51 1.279 1_655 S
O54 Cd44 2.297 . S
O54 C49 1.247 . S
O55 Cd44 2.439 . S
O55 C49 1.208 . S
O56 Cd57 2.220 1_556 S
O56 C64 1.315 . S
Cd57 O56 2.220 1_554 S
Cd57 O60 2.293 1_554 S
Cd57 O61 2.437 1_554 S
Cd57 O67 2.244 . S
Cd58 O59 2.240 1_554 S
Cd58 O66 2.223 . S
Cd58 O68 2.297 . S
Cd58 O69 2.439 . S
O59 Cd58 2.240 1_556 S
O59 C64 1.279 . S
O60 Cd57 2.293 1_556 S
O60 C62 1.247 . S
O61 Cd57 2.437 1_556 S
O61 C62 1.208 . S
C62 O60 1.247 . S
C62 O61 1.208 . S
C63 O68 1.247 . S
C63 O69 1.208 . S
C64 O56 1.315 . S
C64 O59 1.279 . S
C65 O66 1.315 . S
C65 O67 1.279 . S
O66 Cd58 2.223 . S
O66 C65 1.315 . S
O67 Cd57 2.244 . S
O67 C65 1.279 . S
O68 Cd58 2.297 . S
O68 C63 1.247 . S
O69 Cd58 2.439 . S
O69 C63 1.208 . S
O70 Cd71 2.223 . S
O70 C78 1.302 1_565 S
Cd71 O70 2.223 . S
Cd71 O74 2.297 . S
Cd71 O75 2.439 . S
Cd71 O81 2.240 . S
Cd72 O73 2.240 . S
Cd72 O80 2.223 . S
Cd72 O82 2.297 . S
Cd72 O83 2.439 . S
O73 Cd72 2.240 . S
O73 C78 1.279 . S
O74 Cd71 2.297 . S
O74 C76 1.247 . S
O75 Cd71 2.439 . S
O75 C76 1.208 . S
C76 O74 1.247 . S
C76 O75 1.208 . S
C77 O82 1.247 . S
C77 O83 1.208 . S
C78 O70 1.302 1_545 S
C78 O73 1.279 . S
C79 O80 1.315 . S
C79 O81 1.279 1_545 S
O80 Cd72 2.223 . S
O80 C79 1.315 . S
O81 Cd71 2.240 . S
O81 C79 1.279 1_565 S
O82 Cd72 2.297 . S
O82 C77 1.247 . S
O83 Cd72 2.439 . S
O83 C77 1.208 . S
O84 Cd85 2.223 . S
O84 C92 1.315 . S
Cd85 O84 2.223 . S
Cd85 O88 2.297 . S
Cd85 O89 2.439 . S
Cd85 O95 2.240 . S
Cd86 O87 2.240 . S
Cd86 O94 2.223 . S
Cd86 O96 2.297 . S
Cd86 O97 2.439 . S
O87 Cd86 2.240 . S
O87 C92 1.279 . S
O88 Cd85 2.297 . S
O88 C90 1.247 . S
O89 Cd85 2.439 . S
O89 C90 1.208 . S
C90 O88 1.247 . S
C90 O89 1.208 . S
C91 O96 1.247 . S
C91 O97 1.208 . S
C92 O84 1.315 . S
C92 O87 1.279 . S
C93 O94 1.315 . S
C93 O95 1.279 . S
O94 Cd86 2.223 . S
O94 C93 1.315 . S
O95 Cd85 2.240 . S
O95 C93 1.279 . S
O96 Cd86 2.297 . S
O96 C91 1.247 . S
O97 Cd86 2.439 . S
O97 C91 1.208 . S
O98 Cd99 2.223 . S
O98 C106 1.315 . S
Cd99 O98 2.223 . S
Cd99 O102 2.297 . S
Cd99 O103 2.440 1_565 S
Cd99 O109 2.240 . S
Cd100 O101 2.240 . S
Cd100 O108 2.223 . S
Cd100 O110 2.297 . S
Cd100 O111 2.439 . S
O101 Cd100 2.240 . S
O101 C106 1.279 . S
O102 Cd99 2.297 . S
O102 C104 1.247 1_565 S
O103 Cd99 2.440 1_545 S
O103 C104 1.206 . S
C104 O102 1.247 1_545 S
C104 O103 1.206 . S
C105 O110 1.247 . S
C105 O111 1.208 . S
C106 O98 1.315 . S
C106 O101 1.279 . S
C107 O108 1.315 . S
C107 O109 1.279 . S
O108 Cd100 2.223 . S
O108 C107 1.315 . S
O109 Cd99 2.240 . S
O109 C107 1.279 . S
O110 Cd100 2.297 . S
O110 C105 1.247 . S
O111 Cd100 2.439 . S
O111 C105 1.208 . S
O112 Cd113 2.223 . S
O112 C120 1.315 . S
Cd113 O112 2.223 . S
Cd113 O116 2.297 . S
Cd113 O117 2.439 . S
Cd113 O123 2.240 . S
Cd114 O115 2.240 . S
Cd114 O122 2.223 . S
Cd114 O124 2.297 . S
Cd114 O125 2.439 . S
O115 Cd114 2.240 . S
O115 C120 1.279 . S
O116 Cd113 2.297 . S
O116 C118 1.247 . S
O117 Cd113 2.439 . S
O117 C118 1.208 . S
C118 O116 1.247 . S
C118 O117 1.208 . S
C119 O124 1.232 1_655 S
C119 O125 1.210 1_655 S
C120 O112 1.315 . S
C120 O115 1.279 . S
C121 O122 1.315 . S
C121 O123 1.279 . S
O122 Cd114 2.223 . S
O122 C121 1.315 . S
O123 Cd113 2.240 . S
O123 C121 1.279 . S
O124 Cd114 2.297 . S
O124 C119 1.232 1_455 S
O125 Cd114 2.439 . S
O125 C119 1.210 1_455 S
O126 Cd127 2.223 . S
O126 C134 1.315 . S
Cd127 O126 2.223 . S
Cd127 O130 2.297 . S
Cd127 O131 2.439 . S
Cd127 O137 2.240 . S
Cd128 O129 2.240 . S
Cd128 O136 2.223 . S
Cd128 O138 2.297 1_565 S
Cd128 O139 2.439 1_565 S
O129 Cd128 2.240 . S
O129 C134 1.279 . S
O130 Cd127 2.297 . S
O130 C132 1.247 . S
O131 Cd127 2.439 . S
O131 C132 1.208 . S
C132 O130 1.247 . S
C132 O131 1.208 . S
C133 O138 1.247 . S
C133 O139 1.208 . S
C134 O126 1.315 . S
C134 O129 1.279 . S
C135 O136 1.315 . S
C135 O137 1.279 . S
O136 Cd128 2.223 . S
O136 C135 1.315 . S
O137 Cd127 2.240 . S
O137 C135 1.279 . S
O138 Cd128 2.297 1_545 S
O138 C133 1.247 . S
O139 Cd128 2.439 1_545 S
O139 C133 1.208 . S
O140 Cd141 2.223 . S
O140 C148 1.315 . S
Cd141 O140 2.223 . S
Cd141 O144 2.297 . S
Cd141 O145 2.439 . S
Cd141 O151 2.240 . S
Cd142 O143 2.240 . S
Cd142 O150 2.223 . S
Cd142 O152 2.269 1_455 S
Cd142 O153 2.439 1_455 S
O143 Cd142 2.240 . S
O143 C148 1.279 . S
O144 Cd141 2.297 . S
O144 C146 1.247 . S
O145 Cd141 2.439 . S
O145 C146 1.208 . S
C146 O144 1.247 . S
C146 O145 1.208 . S
C147 O152 1.246 . S
C147 O153 1.208 . S
C148 O140 1.315 . S
C148 O143 1.279 . S
C149 O150 1.315 . S
C149 O151 1.279 . S
O150 Cd142 2.223 . S
O150 C149 1.315 . S
O151 Cd141 2.240 . S
O151 C149 1.279 . S
O152 Cd142 2.269 1_655 S
O152 C147 1.246 . S
O153 Cd142 2.439 1_655 S
O153 C147 1.208 . S
O154 Cd155 2.223 . S
O154 C162 1.315 . S
Cd155 O154 2.223 . S
Cd155 O158 2.297 . S
Cd155 O159 2.439 . S
Cd155 O165 2.240 . S
Cd156 O157 2.240 . S
Cd156 O164 2.223 . S
Cd156 O166 2.297 . S
Cd156 O167 2.439 . S
O157 Cd156 2.240 . S
O157 C162 1.279 . S
O158 Cd155 2.297 . S
O158 C160 1.247 . S
O159 Cd155 2.439 . S
O159 C160 1.208 . S
C160 O158 1.247 . S
C160 O159 1.208 . S
C161 O166 1.247 . S
C161 O167 1.208 . S
C162 O154 1.315 . S
C162 O157 1.279 . S
C163 O164 1.315 . S
C163 O165 1.279 . S
O164 Cd156 2.223 . S
O164 C163 1.315 . S
O165 Cd155 2.240 . S
O165 C163 1.279 . S
O166 Cd156 2.297 . S
O166 C161 1.247 . S
O167 Cd156 2.439 . S
O167 C161 1.208 . S
O168 Cd169 2.223 . S
O168 C176 1.315 . S
Cd169 O168 2.223 . S
Cd169 O172 2.297 . S
Cd169 O173 2.439 . S
Cd169 O179 2.240 . S
Cd170 O171 2.240 . S
Cd170 O178 2.223 . S
Cd170 O180 2.297 1_545 S
Cd170 O181 2.439 1_545 S
O171 Cd170 2.240 . S
O171 C176 1.279 . S
O172 Cd169 2.297 . S
O172 C174 1.247 . S
O173 Cd169 2.439 . S
O173 C174 1.208 . S
C174 O172 1.247 . S
C174 O173 1.208 . S
C175 O180 1.247 . S
C175 O181 1.208 . S
C176 O168 1.315 . S
C176 O171 1.279 . S
C177 O178 1.315 . S
C177 O179 1.279 . S
O178 Cd170 2.223 . S
O178 C177 1.315 . S
O179 Cd169 2.240 . S
O179 C177 1.279 . S
O180 Cd170 2.297 1_565 S
O180 C175 1.247 . S
O181 Cd170 2.439 1_565 S
O181 C175 1.208 . S
O182 Cd183 2.223 . S
O182 C190 1.315 . S
Cd183 O182 2.223 . S
Cd183 O186 2.297 . S
Cd183 O187 2.439 . S
Cd183 O193 2.240 . S
Cd184 O185 2.240 . S
Cd184 O192 2.223 . S
Cd184 O194 2.297 1_655 S
Cd184 O195 2.439 1_655 S
O185 Cd184 2.240 . S
O185 C190 1.279 . S
O186 Cd183 2.297 . S
O186 C188 1.247 . S
O187 Cd183 2.439 . S
O187 C188 1.208 . S
C188 O186 1.247 . S
C188 O187 1.208 . S
C189 O194 1.247 . S
C189 O195 1.208 . S
C190 O182 1.315 . S
C190 O185 1.279 . S
C191 O192 1.315 . S
C191 O193 1.279 . S
O192 Cd184 2.223 . S
O192 C191 1.315 . S
O193 Cd183 2.240 . S
O193 C191 1.279 . S
O194 Cd184 2.297 1_455 S
O194 C189 1.247 . S
O195 Cd184 2.439 1_455 S
O195 C189 1.208 . S
O196 Cd197 2.223 . S
O196 C204 1.315 . S
Cd197 O196 2.223 . S
Cd197 O200 2.297 . S
Cd197 O201 2.439 . S
Cd197 O207 2.240 . S
Cd198 O199 2.240 . S
Cd198 O206 2.223 . S
Cd198 O208 2.297 . S
Cd198 O209 2.439 . S
O199 Cd198 2.240 . S
O199 C204 1.279 . S
O200 Cd197 2.297 . S
O200 C202 1.247 . S
O201 Cd197 2.439 . S
O201 C202 1.208 . S
C202 O200 1.247 . S
C202 O201 1.208 . S
C203 O208 1.247 . S
C203 O209 1.208 . S
C204 O196 1.315 . S
C204 O199 1.279 . S
C205 O206 1.315 . S
C205 O207 1.279 . S
O206 Cd198 2.223 . S
O206 C205 1.315 . S
O207 Cd197 2.240 . S
O207 C205 1.279 . S
O208 Cd198 2.297 . S
O208 C203 1.247 . S
O209 Cd198 2.439 . S
O209 C203 1.208 . S
O210 Cd211 2.223 . S
O210 C218 1.315 . S
Cd211 O210 2.223 . S
Cd211 O214 2.297 . S
Cd211 O215 2.439 . S
Cd211 O221 2.240 . S
Cd212 O213 2.240 . S
Cd212 O220 2.223 . S
Cd212 O222 2.297 . S
Cd212 O223 2.439 . S
O213 Cd212 2.240 . S
O213 C218 1.279 . S
O214 Cd211 2.297 . S
O214 C216 1.247 . S
O215 Cd211 2.439 . S
O215 C216 1.208 . S
C216 O214 1.247 . S
C216 O215 1.208 . S
C217 O222 1.247 . S
C217 O223 1.208 . S
C218 O210 1.315 . S
C218 O213 1.279 . S
C219 O220 1.315 . S
C219 O221 1.279 . S
O220 Cd212 2.223 . S
O220 C219 1.315 . S
O221 Cd211 2.240 . S
O221 C219 1.279 . S
O222 Cd212 2.297 . S
O222 C217 1.247 . S
O223 Cd212 2.439 . S
O223 C217 1.208 . S
O224 Cd225 2.223 . S
O224 C232 1.315 . S
Cd225 O224 2.223 . S
Cd225 O228 2.297 . S
Cd225 O229 2.438 1_545 S
Cd225 O235 2.240 . S
Cd226 O227 2.240 . S
Cd226 O234 2.223 . S
Cd226 O236 2.297 . S
Cd226 O237 2.439 . S
O227 Cd226 2.240 . S
O227 C232 1.279 . S
O228 Cd225 2.297 . S
O228 C230 1.247 1_545 S
O229 Cd225 2.438 1_565 S
O229 C230 1.209 . S
C230 O228 1.247 1_565 S
C230 O229 1.209 . S
C231 O236 1.247 . S
C231 O237 1.208 . S
C232 O224 1.315 . S
C232 O227 1.279 . S
C233 O234 1.315 . S
C233 O235 1.279 . S
O234 Cd226 2.223 . S
O234 C233 1.315 . S
O235 Cd225 2.240 . S
O235 C233 1.279 . S
O236 Cd226 2.297 . S
O236 C231 1.247 . S
O237 Cd226 2.439 . S
O237 C231 1.208 . S
O238 Cd239 2.223 . S
O238 C246 1.315 . S
Cd239 O238 2.223 . S
Cd239 O242 2.297 . S
Cd239 O243 2.439 . S
Cd239 O249 2.240 . S
Cd240 O241 2.240 . S
Cd240 O248 2.223 . S
Cd240 O250 2.297 . S
Cd240 O251 2.439 . S
O241 Cd240 2.240 . S
O241 C246 1.279 . S
O242 Cd239 2.297 . S
O242 C244 1.247 . S
O243 Cd239 2.439 . S
O243 C244 1.208 . S
C244 O242 1.247 . S
C244 O243 1.208 . S
C245 O250 1.215 1_455 S
C245 O251 1.211 1_455 S
C246 O238 1.315 . S
C246 O241 1.279 . S
C247 O248 1.315 . S
C247 O249 1.279 . S
O248 Cd240 2.223 . S
O248 C247 1.315 . S
O249 Cd239 2.240 . S
O249 C247 1.279 . S
O250 Cd240 2.297 . S
O250 C245 1.215 1_655 S
O251 Cd240 2.439 . S
O251 C245 1.211 1_655 S
H252 O278 0.856 . S
H253 O281 0.854 . S
H254 C289 0.930 . S
H255 C290 0.930 . S
H256 C292 0.930 . S
H257 C293 0.930 . S
H258 C295 0.931 . S
H259 C296 0.930 . S
H260 C298 0.930 . S
H261 C299 0.929 . S
H262 C301 0.930 . S
H263 C302 0.931 . S
H264 C304 0.930 . S
H265 C305 0.929 . S
H266 C307 0.931 . S
H267 C308 0.930 . S
H268 C310 0.930 . S
H269 C311 0.932 . S
H270 C313 0.930 . S
H271 C314 0.929 . S
H272 C316 0.931 . S
H273 C317 0.930 . S
H274 C319 0.929 . S
H275 C320 0.931 . S
H276 C322 0.930 . S
H277 C323 0.929 . S
O278 H252 0.856 . S
O278 C324 1.300 . S
O279 C324 1.209 . S
O280 C325 1.199 . S
O281 H253 0.854 . S
O281 C325 1.297 . S
C282 C283 1.404 . S
C282 C287 1.397 . S
C282 C288 1.492 . S
C283 C282 1.404 . S
C283 C284 1.396 . S
C283 C294 1.492 . S
C284 C283 1.396 . S
C284 C285 1.397 . S
C284 C300 1.509 . S
C285 C284 1.397 . S
C285 C286 1.412 . S
C285 C306 1.485 . S
C286 C285 1.412 . S
C286 C287 1.388 . S
C286 C312 1.490 . S
C287 C282 1.397 . S
C287 C286 1.388 . S
C287 C318 1.519 . S
C288 C282 1.492 . S
C288 C289 1.363 . S
C288 C293 1.390 . S
C289 H254 0.930 . S
C289 C288 1.363 . S
C289 C290 1.372 . S
C290 H255 0.930 . S
C290 C289 1.372 . S
C290 C291 1.383 . S
C291 C290 1.383 . S
C291 C292 1.395 . S
C292 H256 0.930 . S
C292 C291 1.395 . S
C292 C293 1.362 . S
C293 H257 0.930 . S
C293 C288 1.390 . S
C293 C292 1.362 . S
C294 C283 1.492 . S
C294 C295 1.377 . S
C294 C299 1.397 . S
C295 H258 0.931 . S
C295 C294 1.377 . S
C295 C296 1.376 . S
C296 H259 0.930 . S
C296 C295 1.376 . S
C296 C297 1.376 . S
C297 C296 1.376 . S
C297 C298 1.378 . S
C297 C324 1.486 . S
C298 H260 0.930 . S
C298 C297 1.378 . S
C298 C299 1.376 . S
C299 H261 0.929 . S
C299 C294 1.397 . S
C299 C298 1.376 . S
C300 C284 1.509 . S
C300 C301 1.391 . S
C300 C305 1.386 . S
C301 H262 0.930 . S
C301 C300 1.391 . S
C301 C302 1.375 . S
C302 H263 0.931 . S
C302 C301 1.375 . S
C302 C303 1.375 . S
C303 C302 1.375 . S
C303 C304 1.361 . S
C304 H264 0.930 . S
C304 C303 1.361 . S
C304 C305 1.399 . S
C305 H265 0.929 . S
C305 C300 1.386 . S
C305 C304 1.399 . S
C306 C285 1.485 . S
C306 C307 1.394 . S
C306 C311 1.360 . S
C307 H266 0.931 . S
C307 C306 1.394 . S
C307 C308 1.372 . S
C308 H267 0.930 . S
C308 C307 1.372 . S
C308 C309 1.397 . S
C309 C308 1.397 . S
C309 C310 1.390 . S
C309 C325 1.476 . S
C310 H268 0.930 . S
C310 C309 1.390 . S
C310 C311 1.366 . S
C311 H269 0.932 . S
C311 C306 1.360 . S
C311 C310 1.366 . S
C312 C286 1.490 . S
C312 C313 1.380 . S
C312 C317 1.386 . S
C313 H270 0.930 . S
C313 C312 1.380 . S
C313 C314 1.381 . S
C314 H271 0.929 . S
C314 C313 1.381 . S
C314 C315 1.371 . S
C315 C314 1.371 . S
C315 C316 1.380 . S
C316 H272 0.931 . S
C316 C315 1.380 . S
C316 C317 1.387 . S
C317 H273 0.930 . S
C317 C312 1.386 . S
C317 C316 1.387 . S
C318 C287 1.519 . S
C318 C319 1.377 . S
C318 C323 1.361 . S
C319 H274 0.929 . S
C319 C318 1.377 . S
C319 C320 1.386 . S
C320 H275 0.931 . S
C320 C319 1.386 . S
C320 C321 1.363 . S
C321 C320 1.363 . S
C321 C322 1.385 . S
C322 H276 0.930 . S
C322 C321 1.385 . S
C322 C323 1.396 . S
C323 H277 0.929 . S
C323 C318 1.361 . S
C323 C322 1.396 . S
C324 O278 1.300 . S
C324 O279 1.209 . S
C324 C297 1.486 . S
C325 O280 1.199 . S
C325 O281 1.297 . S
C325 C309 1.476 . S
H326 O352 0.856 . S
H327 O355 0.854 . S
H328 C363 0.930 . S
H329 C364 0.930 . S
H330 C366 0.930 . S
H331 C367 0.930 . S
H332 C369 0.931 . S
H333 C370 0.930 . S
H334 C372 0.930 . S
H335 C373 0.929 . S
H336 C375 0.930 . S
H337 C376 0.931 . S
H338 C378 0.930 . S
H339 C379 0.929 . S
H340 C381 0.931 . S
H341 C382 0.930 . S
H342 C384 0.930 . S
H343 C385 0.932 . S
H344 C387 0.930 . S
H345 C388 0.929 . S
H346 C390 0.931 . S
H347 C391 0.930 . S
H348 C393 0.929 . S
H349 C394 0.931 . S
H350 C396 0.930 . S
H351 C397 0.929 . S
O352 H326 0.856 . S
O352 C398 1.300 . S
O353 C398 1.209 . S
O354 C399 1.199 . S
O355 H327 0.854 . S
O355 C399 1.297 . S
C356 C357 1.404 . S
C356 C361 1.397 . S
C356 C362 1.492 . S
C357 C356 1.404 . S
C357 C358 1.396 . S
C357 C368 1.492 . S
C358 C357 1.396 . S
C358 C359 1.397 . S
C358 C374 1.509 . S
C359 C358 1.397 . S
C359 C360 1.412 . S
C359 C380 1.485 . S
C360 C359 1.412 . S
C360 C361 1.388 . S
C360 C386 1.490 . S
C361 C356 1.397 . S
C361 C360 1.388 . S
C361 C392 1.519 . S
C362 C356 1.492 . S
C362 C363 1.363 . S
C362 C367 1.390 . S
C363 H328 0.930 . S
C363 C362 1.363 . S
C363 C364 1.372 . S
C364 H329 0.930 . S
C364 C363 1.372 . S
C364 C365 1.383 . S
C365 C364 1.383 . S
C365 C366 1.395 . S
C366 H330 0.930 . S
C366 C365 1.395 . S
C366 C367 1.362 . S
C367 H331 0.930 . S
C367 C362 1.390 . S
C367 C366 1.362 . S
C368 C357 1.492 . S
C368 C369 1.377 . S
C368 C373 1.397 . S
C369 H332 0.931 . S
C369 C368 1.377 . S
C369 C370 1.376 . S
C370 H333 0.930 . S
C370 C369 1.376 . S
C370 C371 1.376 . S
C371 C370 1.376 . S
C371 C372 1.378 . S
C371 C398 1.486 . S
C372 H334 0.930 . S
C372 C371 1.378 . S
C372 C373 1.376 . S
C373 H335 0.929 . S
C373 C368 1.397 . S
C373 C372 1.376 . S
C374 C358 1.509 . S
C374 C375 1.391 . S
C374 C379 1.386 . S
C375 H336 0.930 . S
C375 C374 1.391 . S
C375 C376 1.375 . S
C376 H337 0.931 . S
C376 C375 1.375 . S
C376 C377 1.375 . S
C377 C376 1.375 . S
C377 C378 1.361 . S
C378 H338 0.930 . S
C378 C377 1.361 . S
C378 C379 1.399 . S
C379 H339 0.929 . S
C379 C374 1.386 . S
C379 C378 1.399 . S
C380 C359 1.485 . S
C380 C381 1.394 . S
C380 C385 1.360 . S
C381 H340 0.931 . S
C381 C380 1.394 . S
C381 C382 1.372 . S
C382 H341 0.930 . S
C382 C381 1.372 . S
C382 C383 1.397 . S
C383 C382 1.397 . S
C383 C384 1.390 . S
C383 C399 1.476 . S
C384 H342 0.930 . S
C384 C383 1.390 . S
C384 C385 1.366 . S
C385 H343 0.932 . S
C385 C380 1.360 . S
C385 C384 1.366 . S
C386 C360 1.490 . S
C386 C387 1.380 . S
C386 C391 1.386 . S
C387 H344 0.930 . S
C387 C386 1.380 . S
C387 C388 1.381 . S
C388 H345 0.929 . S
C388 C387 1.381 . S
C388 C389 1.371 . S
C389 C388 1.371 . S
C389 C390 1.380 . S
C390 H346 0.931 . S
C390 C389 1.380 . S
C390 C391 1.387 . S
C391 H347 0.930 . S
C391 C386 1.386 . S
C391 C390 1.387 . S
C392 C361 1.519 . S
C392 C393 1.377 . S
C392 C397 1.361 . S
C393 H348 0.929 . S
C393 C392 1.377 . S
C393 C394 1.386 . S
C394 H349 0.931 . S
C394 C393 1.386 . S
C394 C395 1.363 . S
C395 C394 1.363 . S
C395 C396 1.385 . S
C396 H350 0.930 . S
C396 C395 1.385 . S
C396 C397 1.396 . S
C397 H351 0.929 . S
C397 C392 1.361 . S
C397 C396 1.396 . S
C398 O352 1.300 . S
C398 O353 1.209 . S
C398 C371 1.486 . S
C399 O354 1.199 . S
C399 O355 1.297 . S
C399 C383 1.476 . S
H400 O426 0.856 . S
H401 O429 0.854 . S
H402 C437 0.930 . S
H403 C438 0.930 . S
H404 C440 0.930 . S
H405 C441 0.930 . S
H406 C443 0.931 . S
H407 C444 0.930 . S
H408 C446 0.930 . S
H409 C447 0.929 . S
H410 C449 0.930 . S
H411 C450 0.931 . S
H412 C452 0.930 . S
H413 C453 0.929 . S
H414 C455 0.931 . S
H415 C456 0.930 . S
H416 C458 0.930 . S
H417 C459 0.932 . S
H418 C461 0.930 . S
H419 C462 0.929 . S
H420 C464 0.931 . S
H421 C465 0.930 . S
H422 C467 0.929 . S
H423 C468 0.931 . S
H424 C470 0.930 . S
H425 C471 0.929 . S
O426 H400 0.856 . S
O426 C472 1.300 . S
O427 C472 1.209 . S
O428 C473 1.199 . S
O429 H401 0.854 . S
O429 C473 1.297 . S
C430 C431 1.404 . S
C430 C435 1.397 . S
C430 C436 1.492 . S
C431 C430 1.404 . S
C431 C432 1.396 . S
C431 C442 1.492 . S
C432 C431 1.396 . S
C432 C433 1.397 . S
C432 C448 1.509 . S
C433 C432 1.397 . S
C433 C434 1.412 . S
C433 C454 1.485 . S
C434 C433 1.412 . S
C434 C435 1.388 . S
C434 C460 1.490 . S
C435 C430 1.397 . S
C435 C434 1.388 . S
C435 C466 1.519 . S
C436 C430 1.492 . S
C436 C437 1.363 . S
C436 C441 1.390 . S
C437 H402 0.930 . S
C437 C436 1.363 . S
C437 C438 1.372 . S
C438 H403 0.930 . S
C438 C437 1.372 . S
C438 C439 1.383 . S
C439 C438 1.383 . S
C439 C440 1.395 . S
C440 H404 0.930 . S
C440 C439 1.395 . S
C440 C441 1.362 . S
C441 H405 0.930 . S
C441 C436 1.390 . S
C441 C440 1.362 . S
C442 C431 1.492 . S
C442 C443 1.377 . S
C442 C447 1.397 . S
C443 H406 0.931 . S
C443 C442 1.377 . S
C443 C444 1.376 . S
C444 H407 0.930 . S
C444 C443 1.376 . S
C444 C445 1.376 . S
C445 C444 1.376 . S
C445 C446 1.378 . S
C445 C472 1.486 . S
C446 H408 0.930 . S
C446 C445 1.378 . S
C446 C447 1.376 . S
C447 H409 0.929 . S
C447 C442 1.397 . S
C447 C446 1.376 . S
C448 C432 1.509 . S
C448 C449 1.391 . S
C448 C453 1.386 . S
C449 H410 0.930 . S
C449 C448 1.391 . S
C449 C450 1.375 . S
C450 H411 0.931 . S
C450 C449 1.375 . S
C450 C451 1.375 . S
C451 C450 1.375 . S
C451 C452 1.361 . S
C452 H412 0.930 . S
C452 C451 1.361 . S
C452 C453 1.399 . S
C453 H413 0.929 . S
C453 C448 1.386 . S
C453 C452 1.399 . S
C454 C433 1.485 . S
C454 C455 1.394 . S
C454 C459 1.360 . S
C455 H414 0.931 . S
C455 C454 1.394 . S
C455 C456 1.372 . S
C456 H415 0.930 . S
C456 C455 1.372 . S
C456 C457 1.397 . S
C457 C456 1.397 . S
C457 C458 1.390 . S
C457 C473 1.476 . S
C458 H416 0.930 . S
C458 C457 1.390 . S
C458 C459 1.366 . S
C459 H417 0.932 . S
C459 C454 1.360 . S
C459 C458 1.366 . S
C460 C434 1.490 . S
C460 C461 1.380 . S
C460 C465 1.386 . S
C461 H418 0.930 . S
C461 C460 1.380 . S
C461 C462 1.381 . S
C462 H419 0.929 . S
C462 C461 1.381 . S
C462 C463 1.371 . S
C463 C462 1.371 . S
C463 C464 1.380 . S
C464 H420 0.931 . S
C464 C463 1.380 . S
C464 C465 1.387 . S
C465 H421 0.930 . S
C465 C460 1.386 . S
C465 C464 1.387 . S
C466 C435 1.519 . S
C466 C467 1.377 . S
C466 C471 1.361 . S
C467 H422 0.929 . S
C467 C466 1.377 . S
C467 C468 1.386 . S
C468 H423 0.931 . S
C468 C467 1.386 . S
C468 C469 1.363 . S
C469 C468 1.363 . S
C469 C470 1.385 . S
C470 H424 0.930 . S
C470 C469 1.385 . S
C470 C471 1.396 . S
C471 H425 0.929 . S
C471 C466 1.361 . S
C471 C470 1.396 . S
C472 O426 1.300 . S
C472 O427 1.209 . S
C472 C445 1.486 . S
C473 O428 1.199 . S
C473 O429 1.297 . S
C473 C457 1.476 . S
H474 O500 0.856 . S
H475 O503 0.854 . S
H476 C511 0.930 . S
H477 C512 0.930 . S
H478 C514 0.930 . S
H479 C515 0.930 . S
H480 C517 0.931 . S
H481 C518 0.930 . S
H482 C520 0.930 . S
H483 C521 0.929 . S
H484 C523 0.930 . S
H485 C524 0.931 . S
H486 C526 0.930 . S
H487 C527 0.929 . S
H488 C529 0.931 . S
H489 C530 0.930 . S
H490 C532 0.930 . S
H491 C533 0.932 . S
H492 C535 0.930 . S
H493 C536 0.929 . S
H494 C538 0.931 . S
H495 C539 0.930 . S
H496 C541 0.929 . S
H497 C542 0.931 . S
H498 C544 0.930 . S
H499 C545 0.929 . S
O500 H474 0.856 . S
O500 C546 1.300 . S
O501 C546 1.209 . S
O502 C547 1.199 . S
O503 H475 0.854 . S
O503 C547 1.297 . S
C504 C505 1.404 . S
C504 C509 1.397 . S
C504 C510 1.492 . S
C505 C504 1.404 . S
C505 C506 1.396 . S
C505 C516 1.492 . S
C506 C505 1.396 . S
C506 C507 1.397 . S
C506 C522 1.509 . S
C507 C506 1.397 . S
C507 C508 1.412 . S
C507 C528 1.485 . S
C508 C507 1.412 . S
C508 C509 1.388 . S
C508 C534 1.490 . S
C509 C504 1.397 . S
C509 C508 1.388 . S
C509 C540 1.519 . S
C510 C504 1.492 . S
C510 C511 1.363 . S
C510 C515 1.390 . S
C511 H476 0.930 . S
C511 C510 1.363 . S
C511 C512 1.372 . S
C512 H477 0.930 . S
C512 C511 1.372 . S
C512 C513 1.383 . S
C513 C512 1.383 . S
C513 C514 1.395 . S
C514 H478 0.930 . S
C514 C513 1.395 . S
C514 C515 1.362 . S
C515 H479 0.930 . S
C515 C510 1.390 . S
C515 C514 1.362 . S
C516 C505 1.492 . S
C516 C517 1.377 . S
C516 C521 1.397 . S
C517 H480 0.931 . S
C517 C516 1.377 . S
C517 C518 1.376 . S
C518 H481 0.930 . S
C518 C517 1.376 . S
C518 C519 1.376 . S
C519 C518 1.376 . S
C519 C520 1.378 . S
C519 C546 1.486 1_556 S
C520 H482 0.930 . S
C520 C519 1.378 . S
C520 C521 1.376 . S
C521 H483 0.929 . S
C521 C516 1.397 . S
C521 C520 1.376 . S
C522 C506 1.509 . S
C522 C523 1.391 . S
C522 C527 1.386 . S
C523 H484 0.930 . S
C523 C522 1.391 . S
C523 C524 1.375 . S
C524 H485 0.931 . S
C524 C523 1.375 . S
C524 C525 1.375 . S
C525 C524 1.375 . S
C525 C526 1.361 . S
C526 H486 0.930 . S
C526 C525 1.361 . S
C526 C527 1.399 . S
C527 H487 0.929 . S
C527 C522 1.386 . S
C527 C526 1.399 . S
C528 C507 1.485 . S
C528 C529 1.394 . S
C528 C533 1.360 . S
C529 H488 0.931 . S
C529 C528 1.394 . S
C529 C530 1.372 . S
C530 H489 0.930 . S
C530 C529 1.372 . S
C530 C531 1.397 . S
C531 C530 1.397 . S
C531 C532 1.390 . S
C531 C547 1.476 . S
C532 H490 0.930 . S
C532 C531 1.390 . S
C532 C533 1.366 . S
C533 H491 0.932 . S
C533 C528 1.360 . S
C533 C532 1.366 . S
C534 C508 1.490 . S
C534 C535 1.380 . S
C534 C539 1.386 . S
C535 H492 0.930 . S
C535 C534 1.380 . S
C535 C536 1.381 . S
C536 H493 0.929 . S
C536 C535 1.381 . S
C536 C537 1.371 . S
C537 C536 1.371 . S
C537 C538 1.380 . S
C538 H494 0.931 . S
C538 C537 1.380 . S
C538 C539 1.387 . S
C539 H495 0.930 . S
C539 C534 1.386 . S
C539 C538 1.387 . S
C540 C509 1.519 . S
C540 C541 1.377 . S
C540 C545 1.361 . S
C541 H496 0.929 . S
C541 C540 1.377 . S
C541 C542 1.386 . S
C542 H497 0.931 . S
C542 C541 1.386 . S
C542 C543 1.363 . S
C543 C542 1.363 . S
C543 C544 1.385 . S
C544 H498 0.930 . S
C544 C543 1.385 . S
C544 C545 1.396 . S
C545 H499 0.929 . S
C545 C540 1.361 . S
C545 C544 1.396 . S
C546 O500 1.300 . S
C546 O501 1.209 . S
C546 C519 1.486 1_554 S
C547 O502 1.199 . S
C547 O503 1.297 . S
C547 C531 1.476 . S
H548 O574 0.856 . S
H549 O577 0.854 1_565 S
H550 C585 0.930 . S
H551 C586 0.930 . S
H552 C588 0.930 . S
H553 C589 0.930 . S
H554 C591 0.931 . S
H555 C592 0.930 . S
H556 C594 0.930 . S
H557 C595 0.929 . S
H558 C597 0.930 . S
H559 C598 0.931 . S
H560 C600 0.930 . S
H561 C601 0.929 . S
H562 C603 0.931 . S
H563 C604 0.930 . S
H564 C606 0.930 . S
H565 C607 0.932 . S
H566 C609 0.930 . S
H567 C610 0.929 . S
H568 C612 0.931 . S
H569 C613 0.930 . S
H570 C615 0.929 . S
H571 C616 0.931 . S
H572 C618 0.930 . S
H573 C619 0.929 . S
O574 H548 0.856 . S
O574 C620 1.300 . S
O575 C620 1.209 . S
O576 C621 1.199 . S
O577 H549 0.854 1_545 S
O577 C621 1.297 . S
C578 C579 1.404 . S
C578 C583 1.397 . S
C578 C584 1.492 . S
C579 C578 1.404 . S
C579 C580 1.396 . S
C579 C590 1.492 . S
C580 C579 1.396 . S
C580 C581 1.397 . S
C580 C596 1.509 . S
C581 C580 1.397 . S
C581 C582 1.412 . S
C581 C602 1.485 . S
C582 C581 1.412 . S
C582 C583 1.388 . S
C582 C608 1.490 . S
C583 C578 1.397 . S
C583 C582 1.388 . S
C583 C614 1.519 . S
C584 C578 1.492 . S
C584 C585 1.363 . S
C584 C589 1.390 . S
C585 H550 0.930 . S
C585 C584 1.363 . S
C585 C586 1.372 . S
C586 H551 0.930 . S
C586 C585 1.372 . S
C586 C587 1.383 . S
C587 C586 1.383 . S
C587 C588 1.395 . S
C588 H552 0.930 . S
C588 C587 1.395 . S
C588 C589 1.362 . S
C589 H553 0.930 . S
C589 C584 1.390 . S
C589 C588 1.362 . S
C590 C579 1.492 . S
C590 C591 1.377 . S
C590 C595 1.397 . S
C591 H554 0.931 . S
C591 C590 1.377 . S
C591 C592 1.376 . S
C592 H555 0.930 . S
C592 C591 1.376 . S
C592 C593 1.376 . S
C593 C592 1.376 . S
C593 C594 1.378 . S
C593 C620 1.486 1_556 S
C594 H556 0.930 . S
C594 C593 1.378 . S
C594 C595 1.376 . S
C595 H557 0.929 . S
C595 C590 1.397 . S
C595 C594 1.376 . S
C596 C580 1.509 . S
C596 C597 1.391 . S
C596 C601 1.386 . S
C597 H558 0.930 . S
C597 C596 1.391 . S
C597 C598 1.375 . S
C598 H559 0.931 . S
C598 C597 1.375 . S
C598 C599 1.375 . S
C599 C598 1.375 . S
C599 C600 1.361 . S
C600 H560 0.930 . S
C600 C599 1.361 . S
C600 C601 1.399 . S
C601 H561 0.929 . S
C601 C596 1.386 . S
C601 C600 1.399 . S
C602 C581 1.485 . S
C602 C603 1.394 . S
C602 C607 1.360 . S
C603 H562 0.931 . S
C603 C602 1.394 . S
C603 C604 1.372 . S
C604 H563 0.930 . S
C604 C603 1.372 . S
C604 C605 1.397 . S
C605 C604 1.397 . S
C605 C606 1.390 . S
C605 C621 1.476 . S
C606 H564 0.930 . S
C606 C605 1.390 . S
C606 C607 1.366 . S
C607 H565 0.932 . S
C607 C602 1.360 . S
C607 C606 1.366 . S
C608 C582 1.490 . S
C608 C609 1.380 . S
C608 C613 1.386 . S
C609 H566 0.930 . S
C609 C608 1.380 . S
C609 C610 1.381 . S
C610 H567 0.929 . S
C610 C609 1.381 . S
C610 C611 1.371 . S
C611 C610 1.371 . S
C611 C612 1.380 . S
C612 H568 0.931 . S
C612 C611 1.380 . S
C612 C613 1.387 . S
C613 H569 0.930 . S
C613 C608 1.386 . S
C613 C612 1.387 . S
C614 C583 1.519 . S
C614 C615 1.377 . S
C614 C619 1.361 . S
C615 H570 0.929 . S
C615 C614 1.377 . S
C615 C616 1.386 . S
C616 H571 0.931 . S
C616 C615 1.386 . S
C616 C617 1.363 . S
C617 C616 1.363 . S
C617 C618 1.385 . S
C618 H572 0.930 . S
C618 C617 1.385 . S
C618 C619 1.396 . S
C619 H573 0.929 . S
C619 C614 1.361 . S
C619 C618 1.396 . S
C620 O574 1.300 . S
C620 O575 1.209 . S
C620 C593 1.486 1_554 S
C621 O576 1.199 . S
C621 O577 1.297 . S
C621 C605 1.476 . S
H622 O648 0.856 . S
H623 O651 0.854 . S
H624 C659 0.930 . S
H625 C660 0.930 . S
H626 C662 0.930 . S
H627 C663 0.930 . S
H628 C665 0.931 . S
H629 C666 0.930 1_554 S
H630 C668 0.930 . S
H631 C669 0.929 . S
H632 C671 0.930 . S
H633 C672 0.931 . S
H634 C674 0.930 . S
H635 C675 0.929 . S
H636 C677 0.931 . S
H637 C678 0.930 . S
H638 C680 0.930 . S
H639 C681 0.932 . S
H640 C683 0.930 . S
H641 C684 0.929 . S
H642 C686 0.931 . S
H643 C687 0.930 . S
H644 C689 0.929 . S
H645 C690 0.931 . S
H646 C692 0.930 . S
H647 C693 0.929 . S
O648 H622 0.856 . S
O648 C694 1.300 . S
O649 C694 1.209 . S
O650 C695 1.199 . S
O651 H623 0.854 . S
O651 C695 1.297 . S
C652 C653 1.404 . S
C652 C657 1.397 . S
C652 C658 1.492 . S
C653 C652 1.404 . S
C653 C654 1.396 . S
C653 C664 1.492 . S
C654 C653 1.396 . S
C654 C655 1.397 . S
C654 C670 1.509 . S
C655 C654 1.397 . S
C655 C656 1.412 . S
C655 C676 1.485 . S
C656 C655 1.412 . S
C656 C657 1.388 . S
C656 C682 1.490 . S
C657 C652 1.397 . S
C657 C656 1.388 . S
C657 C688 1.519 . S
C658 C652 1.492 . S
C658 C659 1.363 . S
C658 C663 1.390 . S
C659 H624 0.930 . S
C659 C658 1.363 . S
C659 C660 1.372 . S
C660 H625 0.930 . S
C660 C659 1.372 . S
C660 C661 1.383 . S
C661 C660 1.383 . S
C661 C662 1.395 . S
C662 H626 0.930 . S
C662 C661 1.395 . S
C662 C663 1.362 . S
C663 H627 0.930 . S
C663 C658 1.390 . S
C663 C662 1.362 . S
C664 C653 1.492 . S
C664 C665 1.377 . S
C664 C669 1.397 . S
C665 H628 0.931 . S
C665 C664 1.377 . S
C665 C666 1.376 . S
C666 H629 0.930 1_556 S
C666 C665 1.376 . S
C666 C667 1.376 1_556 S
C667 C666 1.376 1_554 S
C667 C668 1.378 1_554 S
C667 C694 1.486 . S
C668 H630 0.930 . S
C668 C667 1.378 1_556 S
C668 C669 1.376 . S
C669 H631 0.929 . S
C669 C664 1.397 . S
C669 C668 1.376 . S
C670 C654 1.509 . S
C670 C671 1.391 . S
C670 C675 1.386 . S
C671 H632 0.930 . S
C671 C670 1.391 . S
C671 C672 1.375 . S
C672 H633 0.931 . S
C672 C671 1.375 . S
C672 C673 1.375 . S
C673 C672 1.375 . S
C673 C674 1.361 . S
C674 H634 0.930 . S
C674 C673 1.361 . S
C674 C675 1.399 . S
C675 H635 0.929 . S
C675 C670 1.386 . S
C675 C674 1.399 . S
C676 C655 1.485 . S
C676 C677 1.394 . S
C676 C681 1.360 . S
C677 H636 0.931 . S
C677 C676 1.394 . S
C677 C678 1.372 . S
C678 H637 0.930 . S
C678 C677 1.372 . S
C678 C679 1.397 . S
C679 C678 1.397 . S
C679 C680 1.390 . S
C679 C695 1.476 . S
C680 H638 0.930 . S
C680 C679 1.390 . S
C680 C681 1.366 . S
C681 H639 0.932 . S
C681 C676 1.360 . S
C681 C680 1.366 . S
C682 C656 1.490 . S
C682 C683 1.380 . S
C682 C687 1.386 . S
C683 H640 0.930 . S
C683 C682 1.380 . S
C683 C684 1.381 . S
C684 H641 0.929 . S
C684 C683 1.381 . S
C684 C685 1.371 . S
C685 C684 1.371 . S
C685 C686 1.380 . S
C686 H642 0.931 . S
C686 C685 1.380 . S
C686 C687 1.387 . S
C687 H643 0.930 . S
C687 C682 1.386 . S
C687 C686 1.387 . S
C688 C657 1.519 . S
C688 C689 1.377 . S
C688 C693 1.361 . S
C689 H644 0.929 . S
C689 C688 1.377 . S
C689 C690 1.386 . S
C690 H645 0.931 . S
C690 C689 1.386 . S
C690 C691 1.363 . S
C691 C690 1.363 . S
C691 C692 1.385 . S
C692 H646 0.930 . S
C692 C691 1.385 . S
C692 C693 1.396 . S
C693 H647 0.929 . S
C693 C688 1.361 . S
C693 C692 1.396 . S
C694 O648 1.300 . S
C694 O649 1.209 . S
C694 C667 1.486 . S
C695 O650 1.199 . S
C695 O651 1.297 . S
C695 C679 1.476 . S
H696 O722 0.856 . S
H697 O725 0.854 . S
H698 C733 0.930 . S
H699 C734 0.930 . S
H700 C736 0.930 . S
H701 C737 0.930 . S
H702 C739 0.931 . S
H703 C740 0.930 . S
H704 C742 0.930 . S
H705 C743 0.929 . S
H706 C745 0.930 . S
H707 C746 0.931 . S
H708 C748 0.930 . S
H709 C749 0.929 . S
H710 C751 0.931 . S
H711 C752 0.930 . S
H712 C754 0.930 . S
H713 C755 0.932 . S
H714 C757 0.930 . S
H715 C758 0.929 . S
H716 C760 0.931 . S
H717 C761 0.930 . S
H718 C763 0.929 . S
H719 C764 0.931 . S
H720 C766 0.930 . S
H721 C767 0.929 . S
O722 H696 0.856 . S
O722 C768 1.300 . S
O723 C768 1.209 . S
O724 C769 1.199 . S
O725 H697 0.854 . S
O725 C769 1.297 . S
C726 C727 1.404 . S
C726 C731 1.397 . S
C726 C732 1.492 . S
C727 C726 1.404 . S
C727 C728 1.396 . S
C727 C738 1.492 . S
C728 C727 1.396 . S
C728 C729 1.397 . S
C728 C744 1.509 . S
C729 C728 1.397 . S
C729 C730 1.412 . S
C729 C750 1.485 . S
C730 C729 1.412 . S
C730 C731 1.388 . S
C730 C756 1.490 . S
C731 C726 1.397 . S
C731 C730 1.388 . S
C731 C762 1.519 . S
C732 C726 1.492 . S
C732 C733 1.363 . S
C732 C737 1.390 . S
C733 H698 0.930 . S
C733 C732 1.363 . S
C733 C734 1.372 . S
C734 H699 0.930 . S
C734 C733 1.372 . S
C734 C735 1.383 . S
C735 C734 1.383 . S
C735 C736 1.395 . S
C736 H700 0.930 . S
C736 C735 1.395 . S
C736 C737 1.362 . S
C737 H701 0.930 . S
C737 C732 1.390 . S
C737 C736 1.362 . S
C738 C727 1.492 . S
C738 C739 1.377 . S
C738 C743 1.397 . S
C739 H702 0.931 . S
C739 C738 1.377 . S
C739 C740 1.376 . S
C740 H703 0.930 . S
C740 C739 1.376 . S
C740 C741 1.376 . S
C741 C740 1.376 . S
C741 C742 1.378 . S
C741 C768 1.486 . S
C742 H704 0.930 . S
C742 C741 1.378 . S
C742 C743 1.376 . S
C743 H705 0.929 . S
C743 C738 1.397 . S
C743 C742 1.376 . S
C744 C728 1.509 . S
C744 C745 1.391 . S
C744 C749 1.386 . S
C745 H706 0.930 . S
C745 C744 1.391 . S
C745 C746 1.375 . S
C746 H707 0.931 . S
C746 C745 1.375 . S
C746 C747 1.375 . S
C747 C746 1.375 . S
C747 C748 1.361 . S
C748 H708 0.930 . S
C748 C747 1.361 . S
C748 C749 1.399 . S
C749 H709 0.929 . S
C749 C744 1.386 . S
C749 C748 1.399 . S
C750 C729 1.485 . S
C750 C751 1.394 . S
C750 C755 1.360 . S
C751 H710 0.931 . S
C751 C750 1.394 . S
C751 C752 1.372 . S
C752 H711 0.930 . S
C752 C751 1.372 . S
C752 C753 1.397 . S
C753 C752 1.397 . S
C753 C754 1.390 . S
C753 C769 1.476 . S
C754 H712 0.930 . S
C754 C753 1.390 . S
C754 C755 1.366 . S
C755 H713 0.932 . S
C755 C750 1.360 . S
C755 C754 1.366 . S
C756 C730 1.490 . S
C756 C757 1.380 . S
C756 C761 1.386 . S
C757 H714 0.930 . S
C757 C756 1.380 . S
C757 C758 1.381 . S
C758 H715 0.929 . S
C758 C757 1.381 . S
C758 C759 1.371 . S
C759 C758 1.371 . S
C759 C760 1.380 . S
C760 H716 0.931 . S
C760 C759 1.380 . S
C760 C761 1.387 . S
C761 H717 0.930 . S
C761 C756 1.386 . S
C761 C760 1.387 . S
C762 C731 1.519 . S
C762 C763 1.377 . S
C762 C767 1.361 . S
C763 H718 0.929 . S
C763 C762 1.377 . S
C763 C764 1.386 . S
C764 H719 0.931 . S
C764 C763 1.386 . S
C764 C765 1.363 . S
C765 C764 1.363 . S
C765 C766 1.385 . S
C766 H720 0.930 . S
C766 C765 1.385 . S
C766 C767 1.396 . S
C767 H721 0.929 . S
C767 C762 1.361 . S
C767 C766 1.396 . S
C768 O722 1.300 . S
C768 O723 1.209 . S
C768 C741 1.486 . S
C769 O724 1.199 . S
C769 O725 1.297 . S
C769 C753 1.476 . S
H770 O796 0.856 . S
H771 O799 0.854 . S
H772 C807 0.930 . S
H773 C808 0.930 . S
H774 C810 0.930 . S
H775 C811 0.930 . S
H776 C813 0.931 . S
H777 C814 0.930 . S
H778 C816 0.930 . S
H779 C817 0.929 . S
H780 C819 0.930 . S
H781 C820 0.931 . S
H782 C822 0.930 . S
H783 C823 0.929 . S
H784 C825 0.931 . S
H785 C826 0.930 . S
H786 C828 0.930 . S
H787 C829 0.932 . S
H788 C831 0.930 . S
H789 C832 0.929 . S
H790 C834 0.931 . S
H791 C835 0.930 . S
H792 C837 0.929 . S
H793 C838 0.931 . S
H794 C840 0.930 . S
H795 C841 0.929 . S
O796 H770 0.856 . S
O796 C842 1.300 . S
O797 C842 1.209 . S
O798 C843 1.199 . S
O799 H771 0.854 . S
O799 C843 1.297 . S
C800 C801 1.404 . S
C800 C805 1.397 . S
C800 C806 1.492 . S
C801 C800 1.404 . S
C801 C802 1.396 . S
C801 C812 1.492 . S
C802 C801 1.396 . S
C802 C803 1.397 . S
C802 C818 1.509 . S
C803 C802 1.397 . S
C803 C804 1.412 . S
C803 C824 1.485 . S
C804 C803 1.412 . S
C804 C805 1.388 . S
C804 C830 1.490 . S
C805 C800 1.397 . S
C805 C804 1.388 . S
C805 C836 1.519 . S
C806 C800 1.492 . S
C806 C807 1.363 . S
C806 C811 1.390 . S
C807 H772 0.930 . S
C807 C806 1.363 . S
C807 C808 1.372 . S
C808 H773 0.930 . S
C808 C807 1.372 . S
C808 C809 1.383 . S
C809 C808 1.383 . S
C809 C810 1.395 . S
C810 H774 0.930 . S
C810 C809 1.395 . S
C810 C811 1.362 . S
C811 H775 0.930 . S
C811 C806 1.390 . S
C811 C810 1.362 . S
C812 C801 1.492 . S
C812 C813 1.377 . S
C812 C817 1.397 . S
C813 H776 0.931 . S
C813 C812 1.377 . S
C813 C814 1.376 . S
C814 H777 0.930 . S
C814 C813 1.376 . S
C814 C815 1.376 . S
C815 C814 1.376 . S
C815 C816 1.378 . S
C815 C842 1.486 . S
C816 H778 0.930 . S
C816 C815 1.378 . S
C816 C817 1.376 . S
C817 H779 0.929 . S
C817 C812 1.397 . S
C817 C816 1.376 . S
C818 C802 1.509 . S
C818 C819 1.391 . S
C818 C823 1.386 . S
C819 H780 0.930 . S
C819 C818 1.391 . S
C819 C820 1.375 . S
C820 H781 0.931 . S
C820 C819 1.375 . S
C820 C821 1.375 . S
C821 C820 1.375 . S
C821 C822 1.361 . S
C822 H782 0.930 . S
C822 C821 1.361 . S
C822 C823 1.399 . S
C823 H783 0.929 . S
C823 C818 1.386 . S
C823 C822 1.399 . S
C824 C803 1.485 . S
C824 C825 1.394 . S
C824 C829 1.360 . S
C825 H784 0.931 . S
C825 C824 1.394 . S
C825 C826 1.372 . S
C826 H785 0.930 . S
C826 C825 1.372 . S
C826 C827 1.397 . S
C827 C826 1.397 . S
C827 C828 1.390 . S
C827 C843 1.476 . S
C828 H786 0.930 . S
C828 C827 1.390 . S
C828 C829 1.366 . S
C829 H787 0.932 . S
C829 C824 1.360 . S
C829 C828 1.366 . S
C830 C804 1.490 . S
C830 C831 1.380 . S
C830 C835 1.386 . S
C831 H788 0.930 . S
C831 C830 1.380 . S
C831 C832 1.381 . S
C832 H789 0.929 . S
C832 C831 1.381 . S
C832 C833 1.371 . S
C833 C832 1.371 . S
C833 C834 1.380 . S
C834 H790 0.931 . S
C834 C833 1.380 . S
C834 C835 1.387 . S
C835 H791 0.930 . S
C835 C830 1.386 . S
C835 C834 1.387 . S
C836 C805 1.519 . S
C836 C837 1.377 . S
C836 C841 1.361 . S
C837 H792 0.929 . S
C837 C836 1.377 . S
C837 C838 1.386 . S
C838 H793 0.931 . S
C838 C837 1.386 . S
C838 C839 1.363 . S
C839 C838 1.363 . S
C839 C840 1.385 . S
C840 H794 0.930 . S
C840 C839 1.385 . S
C840 C841 1.396 . S
C841 H795 0.929 . S
C841 C836 1.361 . S
C841 C840 1.396 . S
C842 O796 1.300 . S
C842 O797 1.209 . S
C842 C815 1.486 . S
C843 O798 1.199 . S
C843 O799 1.297 . S
C843 C827 1.476 . S
H844 O870 0.856 . S
H845 O873 0.854 . S
H846 C881 0.930 . S
H847 C882 0.930 . S
H848 C884 0.930 . S
H849 C885 0.930 . S
H850 C887 0.931 . S
H851 C888 0.930 . S
H852 C890 0.930 . S
H853 C891 0.929 . S
H854 C893 0.930 . S
H855 C894 0.931 . S
H856 C896 0.930 . S
H857 C897 0.929 . S
H858 C899 0.931 . S
H859 C900 0.930 . S
H860 C902 0.930 . S
H861 C903 0.932 . S
H862 C905 0.930 . S
H863 C906 0.929 . S
H864 C908 0.931 . S
H865 C909 0.930 . S
H866 C911 0.929 . S
H867 C912 0.931 . S
H868 C914 0.930 . S
H869 C915 0.929 . S
O870 H844 0.856 . S
O870 C916 1.300 . S
O871 C916 1.209 . S
O872 C917 1.199 . S
O873 H845 0.854 . S
O873 C917 1.297 . S
C874 C875 1.404 . S
C874 C879 1.397 . S
C874 C880 1.492 . S
C875 C874 1.404 . S
C875 C876 1.396 . S
C875 C886 1.492 . S
C876 C875 1.396 . S
C876 C877 1.397 . S
C876 C892 1.509 . S
C877 C876 1.397 . S
C877 C878 1.412 . S
C877 C898 1.485 . S
C878 C877 1.412 . S
C878 C879 1.388 . S
C878 C904 1.490 . S
C879 C874 1.397 . S
C879 C878 1.388 . S
C879 C910 1.519 . S
C880 C874 1.492 . S
C880 C881 1.363 . S
C880 C885 1.390 . S
C881 H846 0.930 . S
C881 C880 1.363 . S
C881 C882 1.372 . S
C882 H847 0.930 . S
C882 C881 1.372 . S
C882 C883 1.383 . S
C883 C882 1.383 . S
C883 C884 1.395 . S
C884 H848 0.930 . S
C884 C883 1.395 . S
C884 C885 1.362 . S
C885 H849 0.930 . S
C885 C880 1.390 . S
C885 C884 1.362 . S
C886 C875 1.492 . S
C886 C887 1.377 . S
C886 C891 1.397 . S
C887 H850 0.931 . S
C887 C886 1.377 . S
C887 C888 1.376 . S
C888 H851 0.930 . S
C888 C887 1.376 . S
C888 C889 1.376 . S
C889 C888 1.376 . S
C889 C890 1.378 . S
C889 C916 1.486 . S
C890 H852 0.930 . S
C890 C889 1.378 . S
C890 C891 1.376 . S
C891 H853 0.929 . S
C891 C886 1.397 . S
C891 C890 1.376 . S
C892 C876 1.509 . S
C892 C893 1.391 . S
C892 C897 1.386 . S
C893 H854 0.930 . S
C893 C892 1.391 . S
C893 C894 1.375 . S
C894 H855 0.931 . S
C894 C893 1.375 . S
C894 C895 1.375 . S
C895 C894 1.375 . S
C895 C896 1.361 . S
C896 H856 0.930 . S
C896 C895 1.361 . S
C896 C897 1.399 . S
C897 H857 0.929 . S
C897 C892 1.386 . S
C897 C896 1.399 . S
C898 C877 1.485 . S
C898 C899 1.394 . S
C898 C903 1.360 . S
C899 H858 0.931 . S
C899 C898 1.394 . S
C899 C900 1.372 . S
C900 H859 0.930 . S
C900 C899 1.372 . S
C900 C901 1.397 . S
C901 C900 1.397 . S
C901 C902 1.390 . S
C901 C917 1.476 . S
C902 H860 0.930 . S
C902 C901 1.390 . S
C902 C903 1.366 . S
C903 H861 0.932 . S
C903 C898 1.360 . S
C903 C902 1.366 . S
C904 C878 1.490 . S
C904 C905 1.380 . S
C904 C909 1.386 . S
C905 H862 0.930 . S
C905 C904 1.380 . S
C905 C906 1.381 . S
C906 H863 0.929 . S
C906 C905 1.381 . S
C906 C907 1.371 . S
C907 C906 1.371 . S
C907 C908 1.380 . S
C908 H864 0.931 . S
C908 C907 1.380 . S
C908 C909 1.387 . S
C909 H865 0.930 . S
C909 C904 1.386 . S
C909 C908 1.387 . S
C910 C879 1.519 . S
C910 C911 1.377 . S
C910 C915 1.361 . S
C911 H866 0.929 . S
C911 C910 1.377 . S
C911 C912 1.386 . S
C912 H867 0.931 . S
C912 C911 1.386 . S
C912 C913 1.363 . S
C913 C912 1.363 . S
C913 C914 1.385 . S
C914 H868 0.930 . S
C914 C913 1.385 . S
C914 C915 1.396 . S
C915 H869 0.929 . S
C915 C910 1.361 . S
C915 C914 1.396 . S
C916 O870 1.300 . S
C916 O871 1.209 . S
C916 C889 1.486 . S
C917 O872 1.199 . S
C917 O873 1.297 . S
C917 C901 1.476 . S
H918 O944 0.856 . S
H919 O947 0.854 . S
H920 C955 0.930 . S
H921 C956 0.930 . S
H922 C958 0.930 . S
H923 C959 0.930 . S
H924 C961 0.931 . S
H925 C962 0.930 1_655 S
H926 C964 0.930 . S
H927 C965 0.929 . S
H928 C967 0.930 . S
H929 C968 0.911 1_655 S
H930 C970 0.930 . S
H931 C971 0.929 . S
H932 C973 0.931 . S
H933 C974 0.930 . S
H934 C976 0.930 . S
H935 C977 0.932 . S
H936 C979 0.930 . S
H937 C980 0.929 . S
H938 C982 0.931 . S
H939 C983 0.930 . S
H940 C985 0.929 . S
H941 C986 0.931 . S
H942 C988 0.930 . S
H943 C989 0.929 . S
O944 H918 0.856 . S
O944 C990 1.300 . S
O945 C990 1.209 . S
O946 C991 1.199 1_655 S
O947 H919 0.854 . S
O947 C991 1.297 . S
C948 C949 1.404 . S
C948 C953 1.394 . S
C948 C954 1.492 . S
C949 C948 1.404 . S
C949 C950 1.396 . S
C949 C960 1.492 . S
C950 C949 1.396 . S
C950 C951 1.397 . S
C950 C966 1.509 . S
C951 C950 1.397 . S
C951 C952 1.421 . S
C951 C972 1.485 . S
C952 C951 1.421 . S
C952 C953 1.406 . S
C952 C978 1.490 1_455 S
C953 C948 1.394 . S
C953 C952 1.406 . S
C953 C984 1.488 1_455 S
C954 C948 1.492 . S
C954 C955 1.363 1_455 S
C954 C959 1.390 . S
C955 H920 0.930 . S
C955 C954 1.363 1_655 S
C955 C956 1.372 . S
C956 H921 0.930 . S
C956 C955 1.372 . S
C956 C957 1.383 . S
C957 C956 1.383 . S
C957 C958 1.395 1_655 S
C958 H922 0.930 . S
C958 C957 1.395 1_455 S
C958 C959 1.362 . S
C959 H923 0.930 . S
C959 C954 1.390 . S
C959 C958 1.362 . S
C960 C949 1.492 . S
C960 C961 1.377 1_455 S
C960 C965 1.397 . S
C961 H924 0.931 . S
C961 C960 1.377 1_655 S
C961 C962 1.376 1_655 S
C962 H925 0.930 1_455 S
C962 C961 1.376 1_455 S
C962 C963 1.376 . S
C963 C962 1.376 . S
C963 C964 1.378 . S
C963 C990 1.486 . S
C964 H926 0.930 . S
C964 C963 1.378 . S
C964 C965 1.376 . S
C965 H927 0.929 . S
C965 C960 1.397 . S
C965 C964 1.376 . S
C966 C950 1.509 . S
C966 C967 1.391 1_455 S
C966 C971 1.386 . S
C967 H928 0.930 . S
C967 C966 1.391 1_655 S
C967 C968 1.348 1_655 S
C968 H929 0.911 1_455 S
C968 C967 1.348 1_455 S
C968 C969 1.424 . S
C969 C968 1.424 . S
C969 C970 1.361 . S
C970 H930 0.930 . S
C970 C969 1.361 . S
C970 C971 1.399 . S
C971 H931 0.929 . S
C971 C966 1.386 . S
C971 C970 1.399 . S
C972 C951 1.485 . S
C972 C973 1.394 1_455 S
C972 C977 1.360 . S
C973 H932 0.931 . S
C973 C972 1.394 1_655 S
C973 C974 1.372 . S
C974 H933 0.930 . S
C974 C973 1.372 . S
C974 C975 1.397 1_655 S
C975 C974 1.397 1_455 S
C975 C976 1.390 . S
C975 C991 1.476 . S
C976 H934 0.930 . S
C976 C975 1.390 . S
C976 C977 1.366 . S
C977 H935 0.932 . S
C977 C972 1.360 . S
C977 C976 1.366 . S
C978 C952 1.490 1_655 S
C978 C979 1.380 . S
C978 C983 1.386 1_655 S
C979 H936 0.930 . S
C979 C978 1.380 . S
C979 C980 1.381 . S
C980 H937 0.929 . S
C980 C979 1.381 . S
C980 C981 1.371 . S
C981 C980 1.371 . S
C981 C982 1.380 1_655 S
C982 H938 0.931 . S
C982 C981 1.380 1_455 S
C982 C983 1.387 . S
C983 H939 0.930 . S
C983 C978 1.386 1_455 S
C983 C982 1.387 . S
C984 C953 1.488 1_655 S
C984 C985 1.413 . S
C984 C989 1.337 1_655 S
C985 H940 0.929 . S
C985 C984 1.413 . S
C985 C986 1.386 . S
C986 H941 0.931 . S
C986 C985 1.386 . S
C986 C987 1.384 . S
C987 C986 1.384 . S
C987 C988 1.354 1_655 S
C988 H942 0.930 . S
C988 C987 1.354 1_455 S
C988 C989 1.396 . S
C989 H943 0.929 . S
C989 C984 1.337 1_455 S
C989 C988 1.396 . S
C990 O944 1.300 . S
C990 O945 1.209 . S
C990 C963 1.486 . S
C991 O946 1.199 1_455 S
C991 O947 1.297 . S
C991 C975 1.476 . S
H992 O1018 0.856 . S
H993 O1021 0.854 . S
H994 C1029 0.930 . S
H995 C1030 0.930 . S
H996 C1032 0.930 . S
H997 C1033 0.930 . S
H998 C1035 0.931 . S
H999 C1036 0.930 . S
H1000 C1038 0.930 . S
H1001 C1039 0.929 . S
H1002 C1041 0.930 . S
H1003 C1042 0.931 . S
H1004 C1044 0.930 . S
H1005 C1045 0.929 . S
H1006 C1047 0.931 . S
H1007 C1048 0.930 . S
H1008 C1050 0.930 . S
H1009 C1051 0.932 . S
H1010 C1053 0.930 . S
H1011 C1054 0.929 . S
H1012 C1056 0.931 . S
H1013 C1057 0.930 . S
H1014 C1059 0.929 . S
H1015 C1060 0.931 . S
H1016 C1062 0.930 . S
H1017 C1063 0.929 . S
O1018 H992 0.856 . S
O1018 C1064 1.300 . S
O1019 C1064 1.209 . S
O1020 C1065 1.199 . S
O1021 H993 0.854 . S
O1021 C1065 1.297 . S
C1022 C1023 1.404 . S
C1022 C1027 1.397 . S
C1022 C1028 1.492 . S
C1023 C1022 1.404 . S
C1023 C1024 1.396 . S
C1023 C1034 1.492 . S
C1024 C1023 1.396 . S
C1024 C1025 1.397 . S
C1024 C1040 1.509 . S
C1025 C1024 1.397 . S
C1025 C1026 1.412 . S
C1025 C1046 1.485 . S
C1026 C1025 1.412 . S
C1026 C1027 1.388 . S
C1026 C1052 1.490 . S
C1027 C1022 1.397 . S
C1027 C1026 1.388 . S
C1027 C1058 1.519 . S
C1028 C1022 1.492 . S
C1028 C1029 1.363 . S
C1028 C1033 1.390 . S
C1029 H994 0.930 . S
C1029 C1028 1.363 . S
C1029 C1030 1.372 . S
C1030 H995 0.930 . S
C1030 C1029 1.372 . S
C1030 C1031 1.383 . S
C1031 C1030 1.383 . S
C1031 C1032 1.395 . S
C1032 H996 0.930 . S
C1032 C1031 1.395 . S
C1032 C1033 1.362 . S
C1033 H997 0.930 . S
C1033 C1028 1.390 . S
C1033 C1032 1.362 . S
C1034 C1023 1.492 . S
C1034 C1035 1.377 . S
C1034 C1039 1.397 . S
C1035 H998 0.931 . S
C1035 C1034 1.377 . S
C1035 C1036 1.376 . S
C1036 H999 0.930 . S
C1036 C1035 1.376 . S
C1036 C1037 1.376 . S
C1037 C1036 1.376 . S
C1037 C1038 1.378 . S
C1037 C1064 1.486 . S
C1038 H1000 0.930 . S
C1038 C1037 1.378 . S
C1038 C1039 1.376 . S
C1039 H1001 0.929 . S
C1039 C1034 1.397 . S
C1039 C1038 1.376 . S
C1040 C1024 1.509 . S
C1040 C1041 1.391 . S
C1040 C1045 1.386 . S
C1041 H1002 0.930 . S
C1041 C1040 1.391 . S
C1041 C1042 1.375 . S
C1042 H1003 0.931 . S
C1042 C1041 1.375 . S
C1042 C1043 1.375 . S
C1043 C1042 1.375 . S
C1043 C1044 1.361 . S
C1044 H1004 0.930 . S
C1044 C1043 1.361 . S
C1044 C1045 1.399 . S
C1045 H1005 0.929 . S
C1045 C1040 1.386 . S
C1045 C1044 1.399 . S
C1046 C1025 1.485 . S
C1046 C1047 1.394 . S
C1046 C1051 1.360 . S
C1047 H1006 0.931 . S
C1047 C1046 1.394 . S
C1047 C1048 1.372 . S
C1048 H1007 0.930 . S
C1048 C1047 1.372 . S
C1048 C1049 1.397 . S
C1049 C1048 1.397 . S
C1049 C1050 1.390 . S
C1049 C1065 1.476 . S
C1050 H1008 0.930 . S
C1050 C1049 1.390 . S
C1050 C1051 1.366 . S
C1051 H1009 0.932 . S
C1051 C1046 1.360 . S
C1051 C1050 1.366 . S
C1052 C1026 1.490 . S
C1052 C1053 1.380 . S
C1052 C1057 1.386 . S
C1053 H1010 0.930 . S
C1053 C1052 1.380 . S
C1053 C1054 1.381 . S
C1054 H1011 0.929 . S
C1054 C1053 1.381 . S
C1054 C1055 1.371 . S
C1055 C1054 1.371 . S
C1055 C1056 1.380 . S
C1056 H1012 0.931 . S
C1056 C1055 1.380 . S
C1056 C1057 1.387 . S
C1057 H1013 0.930 . S
C1057 C1052 1.386 . S
C1057 C1056 1.387 . S
C1058 C1027 1.519 . S
C1058 C1059 1.377 . S
C1058 C1063 1.361 . S
C1059 H1014 0.929 . S
C1059 C1058 1.377 . S
C1059 C1060 1.386 . S
C1060 H1015 0.931 . S
C1060 C1059 1.386 . S
C1060 C1061 1.363 . S
C1061 C1060 1.363 . S
C1061 C1062 1.385 . S
C1062 H1016 0.930 . S
C1062 C1061 1.385 . S
C1062 C1063 1.396 . S
C1063 H1017 0.929 . S
C1063 C1058 1.361 . S
C1063 C1062 1.396 . S
C1064 O1018 1.300 . S
C1064 O1019 1.209 . S
C1064 C1037 1.486 . S
C1065 O1020 1.199 . S
C1065 O1021 1.297 . S
C1065 C1049 1.476 . S
H1066 O1092 0.856 . S
H1067 O1095 0.854 . S
H1068 C1103 0.930 . S
H1069 C1104 0.930 . S
H1070 C1106 0.930 . S
H1071 C1107 0.930 . S
H1072 C1109 0.931 . S
H1073 C1110 0.968 . S
H1074 C1112 0.930 . S
H1075 C1113 0.929 . S
H1076 C1115 0.930 . S
H1077 C1116 0.931 . S
H1078 C1118 0.930 . S
H1079 C1119 0.929 . S
H1080 C1121 0.931 . S
H1081 C1122 0.930 . S
H1082 C1124 0.930 . S
H1083 C1125 0.932 . S
H1084 C1127 0.930 . S
H1085 C1128 0.929 . S
H1086 C1130 0.931 . S
H1087 C1131 0.930 . S
H1088 C1133 0.929 . S
H1089 C1134 0.931 . S
H1090 C1136 0.930 . S
H1091 C1137 0.929 . S
O1092 H1066 0.856 . S
O1092 C1138 1.300 . S
O1093 C1138 1.209 . S
O1094 C1139 1.199 1_545 S
O1095 H1067 0.854 . S
O1095 C1139 1.297 . S
C1096 C1097 1.404 . S
C1096 C1101 1.413 . S
C1096 C1102 1.492 . S
C1097 C1096 1.404 . S
C1097 C1098 1.396 . S
C1097 C1108 1.492 . S
C1098 C1097 1.396 . S
C1098 C1099 1.397 . S
C1098 C1114 1.509 . S
C1099 C1098 1.397 . S
C1099 C1100 1.409 . S
C1099 C1120 1.485 . S
C1100 C1099 1.409 . S
C1100 C1101 1.372 . S
C1100 C1126 1.485 1_565 S
C1101 C1096 1.413 . S
C1101 C1100 1.372 . S
C1101 C1132 1.533 1_565 S
C1102 C1096 1.492 . S
C1102 C1103 1.363 1_565 S
C1102 C1107 1.390 . S
C1103 H1068 0.930 . S
C1103 C1102 1.363 1_545 S
C1103 C1104 1.372 . S
C1104 H1069 0.930 . S
C1104 C1103 1.372 . S
C1104 C1105 1.383 . S
C1105 C1104 1.383 . S
C1105 C1106 1.395 1_545 S
C1106 H1070 0.930 . S
C1106 C1105 1.395 1_565 S
C1106 C1107 1.362 . S
C1107 H1071 0.930 . S
C1107 C1102 1.390 . S
C1107 C1106 1.362 . S
C1108 C1097 1.492 . S
C1108 C1109 1.377 1_565 S
C1108 C1113 1.397 . S
C1109 H1072 0.931 . S
C1109 C1108 1.377 1_545 S
C1109 C1110 1.396 . S
C1110 H1073 0.968 . S
C1110 C1109 1.396 . S
C1110 C1111 1.320 1_545 S
C1111 C1110 1.320 1_565 S
C1111 C1112 1.378 . S
C1111 C1138 1.486 . S
C1112 H1074 0.930 . S
C1112 C1111 1.378 . S
C1112 C1113 1.376 . S
C1113 H1075 0.929 . S
C1113 C1108 1.397 . S
C1113 C1112 1.376 . S
C1114 C1098 1.509 . S
C1114 C1115 1.391 1_565 S
C1114 C1119 1.386 . S
C1115 H1076 0.930 . S
C1115 C1114 1.391 1_545 S
C1115 C1116 1.375 . S
C1116 H1077 0.931 . S
C1116 C1115 1.375 . S
C1116 C1117 1.375 1_545 S
C1117 C1116 1.375 1_565 S
C1117 C1118 1.361 . S
C1118 H1078 0.930 . S
C1118 C1117 1.361 . S
C1118 C1119 1.399 . S
C1119 H1079 0.929 . S
C1119 C1114 1.386 . S
C1119 C1118 1.399 . S
C1120 C1099 1.485 . S
C1120 C1121 1.394 1_565 S
C1120 C1125 1.360 . S
C1121 H1080 0.931 . S
C1121 C1120 1.394 1_545 S
C1121 C1122 1.372 . S
C1122 H1081 0.930 . S
C1122 C1121 1.372 . S
C1122 C1123 1.397 1_545 S
C1123 C1122 1.397 1_565 S
C1123 C1124 1.390 . S
C1123 C1139 1.476 . S
C1124 H1082 0.930 . S
C1124 C1123 1.390 . S
C1124 C1125 1.366 . S
C1125 H1083 0.932 . S
C1125 C1120 1.360 . S
C1125 C1124 1.366 . S
C1126 C1100 1.485 1_545 S
C1126 C1127 1.380 . S
C1126 C1131 1.386 1_545 S
C1127 H1084 0.930 . S
C1127 C1126 1.380 . S
C1127 C1128 1.381 . S
C1128 H1085 0.929 . S
C1128 C1127 1.381 . S
C1128 C1129 1.371 . S
C1129 C1128 1.371 . S
C1129 C1130 1.380 1_545 S
C1130 H1086 0.931 . S
C1130 C1129 1.380 1_565 S
C1130 C1131 1.387 . S
C1131 H1087 0.930 . S
C1131 C1126 1.386 1_565 S
C1131 C1130 1.387 . S
C1132 C1101 1.533 1_545 S
C1132 C1133 1.377 . S
C1132 C1137 1.360 1_545 S
C1133 H1088 0.929 . S
C1133 C1132 1.377 . S
C1133 C1134 1.386 . S
C1134 H1089 0.931 . S
C1134 C1133 1.386 . S
C1134 C1135 1.363 1_545 S
C1135 C1134 1.363 1_565 S
C1135 C1136 1.385 . S
C1136 H1090 0.930 . S
C1136 C1135 1.385 . S
C1136 C1137 1.396 . S
C1137 H1091 0.929 . S
C1137 C1132 1.360 1_565 S
C1137 C1136 1.396 . S
C1138 O1092 1.300 . S
C1138 O1093 1.209 . S
C1138 C1111 1.486 . S
C1139 O1094 1.199 1_565 S
C1139 O1095 1.297 . S
C1139 C1123 1.476 . S
H1140 O1166 0.856 . S
H1141 O1169 0.854 . S
H1142 C1177 0.930 . S
H1143 C1178 0.930 . S
H1144 C1180 0.930 . S
H1145 C1181 0.930 . S
H1146 C1183 0.931 . S
H1147 C1184 0.930 . S
H1148 C1186 0.930 . S
H1149 C1187 0.929 . S
H1150 C1189 0.930 . S
H1151 C1190 0.931 . S
H1152 C1192 0.930 . S
H1153 C1193 0.929 . S
H1154 C1195 0.931 . S
H1155 C1196 0.930 . S
H1156 C1198 0.930 . S
H1157 C1199 0.932 . S
H1158 C1201 0.930 . S
H1159 C1202 0.929 . S
H1160 C1204 0.931 . S
H1161 C1205 0.930 . S
H1162 C1207 0.929 . S
H1163 C1208 0.931 . S
H1164 C1210 0.930 . S
H1165 C1211 0.929 . S
O1166 H1140 0.856 . S
O1166 C1212 1.300 . S
O1167 C1212 1.209 1_565 S
O1168 C1213 1.199 1_545 S
O1169 H1141 0.854 . S
O1169 C1213 1.297 . S
C1170 C1171 1.404 . S
C1170 C1175 1.397 1_545 S
C1170 C1176 1.492 . S
C1171 C1170 1.404 . S
C1171 C1172 1.396 . S
C1171 C1182 1.492 . S
C1172 C1171 1.396 . S
C1172 C1173 1.394 1_545 S
C1172 C1188 1.509 . S
C1173 C1172 1.394 1_565 S
C1173 C1174 1.419 . S
C1173 C1194 1.492 . S
C1174 C1173 1.419 . S
C1174 C1175 1.371 . S
C1174 C1200 1.488 . S
C1175 C1170 1.397 1_565 S
C1175 C1174 1.371 . S
C1175 C1206 1.519 . S
C1176 C1170 1.492 . S
C1176 C1177 1.363 . S
C1176 C1181 1.390 1_545 S
C1177 H1142 0.930 . S
C1177 C1176 1.363 . S
C1177 C1178 1.372 . S
C1178 H1143 0.930 . S
C1178 C1177 1.372 . S
C1178 C1179 1.383 . S
C1179 C1178 1.383 . S
C1179 C1180 1.395 1_545 S
C1180 H1144 0.930 . S
C1180 C1179 1.395 1_565 S
C1180 C1181 1.362 . S
C1181 H1145 0.930 . S
C1181 C1176 1.390 1_565 S
C1181 C1180 1.362 . S
C1182 C1171 1.492 . S
C1182 C1183 1.377 . S
C1182 C1187 1.397 1_545 S
C1183 H1146 0.931 . S
C1183 C1182 1.377 . S
C1183 C1184 1.376 . S
C1184 H1147 0.930 . S
C1184 C1183 1.376 . S
C1184 C1185 1.376 . S
C1185 C1184 1.376 . S
C1185 C1186 1.378 1_545 S
C1185 C1212 1.486 . S
C1186 H1148 0.930 . S
C1186 C1185 1.378 1_565 S
C1186 C1187 1.376 . S
C1187 H1149 0.929 . S
C1187 C1182 1.397 1_565 S
C1187 C1186 1.376 . S
C1188 C1172 1.509 . S
C1188 C1189 1.391 . S
C1188 C1193 1.386 1_545 S
C1189 H1150 0.930 . S
C1189 C1188 1.391 . S
C1189 C1190 1.375 . S
C1190 H1151 0.931 . S
C1190 C1189 1.375 . S
C1190 C1191 1.375 . S
C1191 C1190 1.375 . S
C1191 C1192 1.361 1_545 S
C1192 H1152 0.930 . S
C1192 C1191 1.361 1_565 S
C1192 C1193 1.399 . S
C1193 H1153 0.929 . S
C1193 C1188 1.386 1_565 S
C1193 C1192 1.399 . S
C1194 C1173 1.492 . S
C1194 C1195 1.394 1_565 S
C1194 C1199 1.360 . S
C1195 H1154 0.931 . S
C1195 C1194 1.394 1_545 S
C1195 C1196 1.372 . S
C1196 H1155 0.930 . S
C1196 C1195 1.372 . S
C1196 C1197 1.397 1_545 S
C1197 C1196 1.397 1_565 S
C1197 C1198 1.390 . S
C1197 C1213 1.476 . S
C1198 H1156 0.930 . S
C1198 C1197 1.390 . S
C1198 C1199 1.366 . S
C1199 H1157 0.932 . S
C1199 C1194 1.360 . S
C1199 C1198 1.366 . S
C1200 C1174 1.488 . S
C1200 C1201 1.343 1_565 S
C1200 C1205 1.433 . S
C1201 H1158 0.930 . S
C1201 C1200 1.343 1_545 S
C1201 C1202 1.381 . S
C1202 H1159 0.929 . S
C1202 C1201 1.381 . S
C1202 C1203 1.384 . S
C1203 C1202 1.384 . S
C1203 C1204 1.369 1_545 S
C1204 H1160 0.931 . S
C1204 C1203 1.369 1_565 S
C1204 C1205 1.387 . S
C1205 H1161 0.930 . S
C1205 C1200 1.433 . S
C1205 C1204 1.387 . S
C1206 C1175 1.519 . S
C1206 C1207 1.377 1_565 S
C1206 C1211 1.361 . S
C1207 H1162 0.929 . S
C1207 C1206 1.377 1_545 S
C1207 C1208 1.386 . S
C1208 H1163 0.931 . S
C1208 C1207 1.386 . S
C1208 C1209 1.363 1_545 S
C1209 C1208 1.363 1_565 S
C1209 C1210 1.385 . S
C1210 H1164 0.930 . S
C1210 C1209 1.385 . S
C1210 C1211 1.396 . S
C1211 H1165 0.929 . S
C1211 C1206 1.361 . S
C1211 C1210 1.396 . S
C1212 O1166 1.300 . S
C1212 O1167 1.209 1_545 S
C1212 C1185 1.486 . S
C1213 O1168 1.199 1_565 S
C1213 O1169 1.297 . S
C1213 C1197 1.476 . S
H1214 O1240 0.856 . S
H1215 O1243 0.854 . S
H1216 C1251 0.930 . S
H1217 C1252 0.930 . S
H1218 C1254 0.930 . S
H1219 C1255 0.930 . S
H1220 C1257 0.931 . S
H1221 C1258 0.930 . S
H1222 C1260 0.930 . S
H1223 C1261 0.929 . S
H1224 C1263 0.930 . S
H1225 C1264 0.931 . S
H1226 C1266 0.930 . S
H1227 C1267 0.929 . S
H1228 C1269 0.931 . S
H1229 C1270 0.930 . S
H1230 C1272 0.930 . S
H1231 C1273 0.932 . S
H1232 C1275 0.930 . S
H1233 C1276 0.929 . S
H1234 C1278 0.931 . S
H1235 C1279 0.930 . S
H1236 C1281 0.929 . S
H1237 C1282 0.931 . S
H1238 C1284 0.930 . S
H1239 C1285 0.929 . S
O1240 H1214 0.856 . S
O1240 C1286 1.300 . S
O1241 C1286 1.209 1_455 S
O1242 C1287 1.199 1_655 S
O1243 H1215 0.854 . S
O1243 C1287 1.297 . S
C1244 C1245 1.404 . S
C1244 C1249 1.396 1_655 S
C1244 C1250 1.492 . S
C1245 C1244 1.404 . S
C1245 C1246 1.396 . S
C1245 C1256 1.492 . S
C1246 C1245 1.396 . S
C1246 C1247 1.398 . S
C1246 C1262 1.509 . S
C1247 C1246 1.398 . S
C1247 C1248 1.398 1_655 S
C1247 C1268 1.483 1_655 S
C1248 C1247 1.398 1_455 S
C1248 C1249 1.413 . S
C1248 C1274 1.484 . S
C1249 C1244 1.396 1_455 S
C1249 C1248 1.413 . S
C1249 C1280 1.517 . S
C1250 C1244 1.492 . S
C1250 C1251 1.363 . S
C1250 C1255 1.390 1_655 S
C1251 H1216 0.930 . S
C1251 C1250 1.363 . S
C1251 C1252 1.372 . S
C1252 H1217 0.930 . S
C1252 C1251 1.372 . S
C1252 C1253 1.383 . S
C1253 C1252 1.383 . S
C1253 C1254 1.395 1_655 S
C1254 H1218 0.930 . S
C1254 C1253 1.395 1_455 S
C1254 C1255 1.362 . S
C1255 H1219 0.930 . S
C1255 C1250 1.390 1_455 S
C1255 C1254 1.362 . S
C1256 C1245 1.492 . S
C1256 C1257 1.377 . S
C1256 C1261 1.397 1_655 S
C1257 H1220 0.931 . S
C1257 C1256 1.377 . S
C1257 C1258 1.376 . S
C1258 H1221 0.930 . S
C1258 C1257 1.376 . S
C1258 C1259 1.376 . S
C1259 C1258 1.376 . S
C1259 C1260 1.378 1_655 S
C1259 C1286 1.486 . S
C1260 H1222 0.930 . S
C1260 C1259 1.378 1_455 S
C1260 C1261 1.376 . S
C1261 H1223 0.929 . S
C1261 C1256 1.397 1_455 S
C1261 C1260 1.376 . S
C1262 C1246 1.509 . S
C1262 C1263 1.391 . S
C1262 C1267 1.386 1_655 S
C1263 H1224 0.930 . S
C1263 C1262 1.391 . S
C1263 C1264 1.375 . S
C1264 H1225 0.931 . S
C1264 C1263 1.375 . S
C1264 C1265 1.375 . S
C1265 C1264 1.375 . S
C1265 C1266 1.361 1_655 S
C1266 H1226 0.930 . S
C1266 C1265 1.361 1_455 S
C1266 C1267 1.399 . S
C1267 H1227 0.929 . S
C1267 C1262 1.386 1_455 S
C1267 C1266 1.399 . S
C1268 C1247 1.483 1_455 S
C1268 C1269 1.394 1_455 S
C1268 C1273 1.360 . S
C1269 H1228 0.931 . S
C1269 C1268 1.394 1_655 S
C1269 C1270 1.372 . S
C1270 H1229 0.930 . S
C1270 C1269 1.372 . S
C1270 C1271 1.397 1_655 S
C1271 C1270 1.397 1_455 S
C1271 C1272 1.390 . S
C1271 C1287 1.476 . S
C1272 H1230 0.930 . S
C1272 C1271 1.390 . S
C1272 C1273 1.366 . S
C1273 H1231 0.932 . S
C1273 C1268 1.360 . S
C1273 C1272 1.366 . S
C1274 C1248 1.484 . S
C1274 C1275 1.380 1_455 S
C1274 C1279 1.386 . S
C1275 H1232 0.930 . S
C1275 C1274 1.380 1_655 S
C1275 C1276 1.381 . S
C1276 H1233 0.929 . S
C1276 C1275 1.381 . S
C1276 C1277 1.371 1_655 S
C1277 C1276 1.371 1_455 S
C1277 C1278 1.380 . S
C1278 H1234 0.931 . S
C1278 C1277 1.380 . S
C1278 C1279 1.387 . S
C1279 H1235 0.930 . S
C1279 C1274 1.386 . S
C1279 C1278 1.387 . S
C1280 C1249 1.517 . S
C1280 C1281 1.377 1_455 S
C1280 C1285 1.361 . S
C1281 H1236 0.929 . S
C1281 C1280 1.377 1_655 S
C1281 C1282 1.386 . S
C1282 H1237 0.931 . S
C1282 C1281 1.386 . S
C1282 C1283 1.363 1_655 S
C1283 C1282 1.363 1_455 S
C1283 C1284 1.385 . S
C1284 H1238 0.930 . S
C1284 C1283 1.385 . S
C1284 C1285 1.396 . S
C1285 H1239 0.929 . S
C1285 C1280 1.361 . S
C1285 C1284 1.396 . S
C1286 O1240 1.300 . S
C1286 O1241 1.209 1_655 S
C1286 C1259 1.486 . S
C1287 O1242 1.199 1_455 S
C1287 O1243 1.297 . S
C1287 C1271 1.476 . S
H1288 O1314 0.856 . S
H1289 O1317 0.854 . S
H1290 C1325 0.930 . S
H1291 C1326 0.930 . S
H1292 C1328 0.930 . S
H1293 C1329 0.930 . S
H1294 C1331 0.931 . S
H1295 C1332 0.930 . S
H1296 C1334 0.930 . S
H1297 C1335 0.929 . S
H1298 C1337 0.930 . S
H1299 C1338 0.931 . S
H1300 C1340 0.930 . S
H1301 C1341 0.929 . S
H1302 C1343 0.931 . S
H1303 C1344 0.930 . S
H1304 C1346 0.930 . S
H1305 C1347 0.932 . S
H1306 C1349 0.930 . S
H1307 C1350 0.929 . S
H1308 C1352 0.931 . S
H1309 C1353 0.930 . S
H1310 C1355 0.929 . S
H1311 C1356 0.931 . S
H1312 C1358 0.930 . S
H1313 C1359 0.929 . S
O1314 H1288 0.856 . S
O1314 C1360 1.300 . S
O1315 C1360 1.209 . S
O1316 C1361 1.199 . S
O1317 H1289 0.854 . S
O1317 C1361 1.297 . S
C1318 C1319 1.404 . S
C1318 C1323 1.397 . S
C1318 C1324 1.492 . S
C1319 C1318 1.404 . S
C1319 C1320 1.396 . S
C1319 C1330 1.492 . S
C1320 C1319 1.396 . S
C1320 C1321 1.397 . S
C1320 C1336 1.509 . S
C1321 C1320 1.397 . S
C1321 C1322 1.412 . S
C1321 C1342 1.485 . S
C1322 C1321 1.412 . S
C1322 C1323 1.388 . S
C1322 C1348 1.490 . S
C1323 C1318 1.397 . S
C1323 C1322 1.388 . S
C1323 C1354 1.519 . S
C1324 C1318 1.492 . S
C1324 C1325 1.363 . S
C1324 C1329 1.390 . S
C1325 H1290 0.930 . S
C1325 C1324 1.363 . S
C1325 C1326 1.372 . S
C1326 H1291 0.930 . S
C1326 C1325 1.372 . S
C1326 C1327 1.383 . S
C1327 C1326 1.383 . S
C1327 C1328 1.395 . S
C1328 H1292 0.930 . S
C1328 C1327 1.395 . S
C1328 C1329 1.362 . S
C1329 H1293 0.930 . S
C1329 C1324 1.390 . S
C1329 C1328 1.362 . S
C1330 C1319 1.492 . S
C1330 C1331 1.377 . S
C1330 C1335 1.397 . S
C1331 H1294 0.931 . S
C1331 C1330 1.377 . S
C1331 C1332 1.376 . S
C1332 H1295 0.930 . S
C1332 C1331 1.376 . S
C1332 C1333 1.376 . S
C1333 C1332 1.376 . S
C1333 C1334 1.378 . S
C1333 C1360 1.486 . S
C1334 H1296 0.930 . S
C1334 C1333 1.378 . S
C1334 C1335 1.376 . S
C1335 H1297 0.929 . S
C1335 C1330 1.397 . S
C1335 C1334 1.376 . S
C1336 C1320 1.509 . S
C1336 C1337 1.391 . S
C1336 C1341 1.386 . S
C1337 H1298 0.930 . S
C1337 C1336 1.391 . S
C1337 C1338 1.375 . S
C1338 H1299 0.931 . S
C1338 C1337 1.375 . S
C1338 C1339 1.375 . S
C1339 C1338 1.375 . S
C1339 C1340 1.361 . S
C1340 H1300 0.930 . S
C1340 C1339 1.361 . S
C1340 C1341 1.399 . S
C1341 H1301 0.929 . S
C1341 C1336 1.386 . S
C1341 C1340 1.399 . S
C1342 C1321 1.485 . S
C1342 C1343 1.394 . S
C1342 C1347 1.360 . S
C1343 H1302 0.931 . S
C1343 C1342 1.394 . S
C1343 C1344 1.372 . S
C1344 H1303 0.930 . S
C1344 C1343 1.372 . S
C1344 C1345 1.397 . S
C1345 C1344 1.397 . S
C1345 C1346 1.390 . S
C1345 C1361 1.476 . S
C1346 H1304 0.930 . S
C1346 C1345 1.390 . S
C1346 C1347 1.366 . S
C1347 H1305 0.932 . S
C1347 C1342 1.360 . S
C1347 C1346 1.366 . S
C1348 C1322 1.490 . S
C1348 C1349 1.380 . S
C1348 C1353 1.386 . S
C1349 H1306 0.930 . S
C1349 C1348 1.380 . S
C1349 C1350 1.381 . S
C1350 H1307 0.929 . S
C1350 C1349 1.381 . S
C1350 C1351 1.371 . S
C1351 C1350 1.371 . S
C1351 C1352 1.380 . S
C1352 H1308 0.931 . S
C1352 C1351 1.380 . S
C1352 C1353 1.387 . S
C1353 H1309 0.930 . S
C1353 C1348 1.386 . S
C1353 C1352 1.387 . S
C1354 C1323 1.519 . S
C1354 C1355 1.377 . S
C1354 C1359 1.361 . S
C1355 H1310 0.929 . S
C1355 C1354 1.377 . S
C1355 C1356 1.386 . S
C1356 H1311 0.931 . S
C1356 C1355 1.386 . S
C1356 C1357 1.363 . S
C1357 C1356 1.363 . S
C1357 C1358 1.385 . S
C1358 H1312 0.930 . S
C1358 C1357 1.385 . S
C1358 C1359 1.396 . S
C1359 H1313 0.929 . S
C1359 C1354 1.361 . S
C1359 C1358 1.396 . S
C1360 O1314 1.300 . S
C1360 O1315 1.209 . S
C1360 C1333 1.486 . S
C1361 O1316 1.199 . S
C1361 O1317 1.297 . S
C1361 C1345 1.476 . S
H1362 O1388 0.856 . S
H1363 O1391 0.854 . S
H1364 C1399 0.930 . S
H1365 C1400 0.930 . S
H1366 C1402 0.930 . S
H1367 C1403 0.930 . S
H1368 C1405 0.931 . S
H1369 C1406 0.930 . S
H1370 C1408 0.930 . S
H1371 C1409 0.929 . S
H1372 C1411 0.930 . S
H1373 C1412 0.931 . S
H1374 C1414 0.930 . S
H1375 C1415 0.929 . S
H1376 C1417 0.931 . S
H1377 C1418 0.930 . S
H1378 C1420 0.930 . S
H1379 C1421 0.932 . S
H1380 C1423 0.930 . S
H1381 C1424 0.929 . S
H1382 C1426 0.931 . S
H1383 C1427 0.930 . S
H1384 C1429 0.929 . S
H1385 C1430 0.931 . S
H1386 C1432 0.930 . S
H1387 C1433 0.929 . S
O1388 H1362 0.856 . S
O1388 C1434 1.300 . S
O1389 C1434 1.209 . S
O1390 C1435 1.199 . S
O1391 H1363 0.854 . S
O1391 C1435 1.297 . S
C1392 C1393 1.404 . S
C1392 C1397 1.397 . S
C1392 C1398 1.492 . S
C1393 C1392 1.404 . S
C1393 C1394 1.396 . S
C1393 C1404 1.492 . S
C1394 C1393 1.396 . S
C1394 C1395 1.397 . S
C1394 C1410 1.509 . S
C1395 C1394 1.397 . S
C1395 C1396 1.412 . S
C1395 C1416 1.485 . S
C1396 C1395 1.412 . S
C1396 C1397 1.388 . S
C1396 C1422 1.490 . S
C1397 C1392 1.397 . S
C1397 C1396 1.388 . S
C1397 C1428 1.519 . S
C1398 C1392 1.492 . S
C1398 C1399 1.363 . S
C1398 C1403 1.390 . S
C1399 H1364 0.930 . S
C1399 C1398 1.363 . S
C1399 C1400 1.372 . S
C1400 H1365 0.930 . S
C1400 C1399 1.372 . S
C1400 C1401 1.383 . S
C1401 C1400 1.383 . S
C1401 C1402 1.395 . S
C1402 H1366 0.930 . S
C1402 C1401 1.395 . S
C1402 C1403 1.362 . S
C1403 H1367 0.930 . S
C1403 C1398 1.390 . S
C1403 C1402 1.362 . S
C1404 C1393 1.492 . S
C1404 C1405 1.377 . S
C1404 C1409 1.397 . S
C1405 H1368 0.931 . S
C1405 C1404 1.377 . S
C1405 C1406 1.376 . S
C1406 H1369 0.930 . S
C1406 C1405 1.376 . S
C1406 C1407 1.376 . S
C1407 C1406 1.376 . S
C1407 C1408 1.378 . S
C1407 C1434 1.486 . S
C1408 H1370 0.930 . S
C1408 C1407 1.378 . S
C1408 C1409 1.376 . S
C1409 H1371 0.929 . S
C1409 C1404 1.397 . S
C1409 C1408 1.376 . S
C1410 C1394 1.509 . S
C1410 C1411 1.391 . S
C1410 C1415 1.386 . S
C1411 H1372 0.930 . S
C1411 C1410 1.391 . S
C1411 C1412 1.375 . S
C1412 H1373 0.931 . S
C1412 C1411 1.375 . S
C1412 C1413 1.375 . S
C1413 C1412 1.375 . S
C1413 C1414 1.361 . S
C1414 H1374 0.930 . S
C1414 C1413 1.361 . S
C1414 C1415 1.399 . S
C1415 H1375 0.929 . S
C1415 C1410 1.386 . S
C1415 C1414 1.399 . S
C1416 C1395 1.485 . S
C1416 C1417 1.394 . S
C1416 C1421 1.360 . S
C1417 H1376 0.931 . S
C1417 C1416 1.394 . S
C1417 C1418 1.372 . S
C1418 H1377 0.930 . S
C1418 C1417 1.372 . S
C1418 C1419 1.397 . S
C1419 C1418 1.397 . S
C1419 C1420 1.390 . S
C1419 C1435 1.476 . S
C1420 H1378 0.930 . S
C1420 C1419 1.390 . S
C1420 C1421 1.366 . S
C1421 H1379 0.932 . S
C1421 C1416 1.360 . S
C1421 C1420 1.366 . S
C1422 C1396 1.490 . S
C1422 C1423 1.380 . S
C1422 C1427 1.386 . S
C1423 H1380 0.930 . S
C1423 C1422 1.380 . S
C1423 C1424 1.381 . S
C1424 H1381 0.929 . S
C1424 C1423 1.381 . S
C1424 C1425 1.371 . S
C1425 C1424 1.371 . S
C1425 C1426 1.380 . S
C1426 H1382 0.931 . S
C1426 C1425 1.380 . S
C1426 C1427 1.387 . S
C1427 H1383 0.930 . S
C1427 C1422 1.386 . S
C1427 C1426 1.387 . S
C1428 C1397 1.519 . S
C1428 C1429 1.377 . S
C1428 C1433 1.361 . S
C1429 H1384 0.929 . S
C1429 C1428 1.377 . S
C1429 C1430 1.386 . S
C1430 H1385 0.931 . S
C1430 C1429 1.386 . S
C1430 C1431 1.363 . S
C1431 C1430 1.363 . S
C1431 C1432 1.385 . S
C1432 H1386 0.930 . S
C1432 C1431 1.385 . S
C1432 C1433 1.396 . S
C1433 H1387 0.929 . S
C1433 C1428 1.361 . S
C1433 C1432 1.396 . S
C1434 O1388 1.300 . S
C1434 O1389 1.209 . S
C1434 C1407 1.486 . S
C1435 O1390 1.199 . S
C1435 O1391 1.297 . S
C1435 C1419 1.476 . S
H1436 O1462 0.856 . S
H1437 O1465 0.854 . S
H1438 C1473 0.930 . S
H1439 C1474 0.930 . S
H1440 C1476 0.930 . S
H1441 C1477 0.930 . S
H1442 C1479 0.931 . S
H1443 C1480 0.930 . S
H1444 C1482 0.930 . S
H1445 C1483 0.929 . S
H1446 C1485 0.930 . S
H1447 C1486 0.931 . S
H1448 C1488 0.930 . S
H1449 C1489 0.929 . S
H1450 C1491 0.931 . S
H1451 C1492 0.930 . S
H1452 C1494 0.930 . S
H1453 C1495 0.932 . S
H1454 C1497 0.930 . S
H1455 C1498 0.929 . S
H1456 C1500 0.931 . S
H1457 C1501 0.930 . S
H1458 C1503 0.929 . S
H1459 C1504 0.931 . S
H1460 C1506 0.930 . S
H1461 C1507 0.929 . S
O1462 H1436 0.856 . S
O1462 C1508 1.300 . S
O1463 C1508 1.209 . S
O1464 C1509 1.199 . S
O1465 H1437 0.854 . S
O1465 C1509 1.297 . S
C1466 C1467 1.404 . S
C1466 C1471 1.397 . S
C1466 C1472 1.492 . S
C1467 C1466 1.404 . S
C1467 C1468 1.396 . S
C1467 C1478 1.492 . S
C1468 C1467 1.396 . S
C1468 C1469 1.397 . S
C1468 C1484 1.509 . S
C1469 C1468 1.397 . S
C1469 C1470 1.412 . S
C1469 C1490 1.485 . S
C1470 C1469 1.412 . S
C1470 C1471 1.388 . S
C1470 C1496 1.490 . S
C1471 C1466 1.397 . S
C1471 C1470 1.388 . S
C1471 C1502 1.519 . S
C1472 C1466 1.492 . S
C1472 C1473 1.363 . S
C1472 C1477 1.390 . S
C1473 H1438 0.930 . S
C1473 C1472 1.363 . S
C1473 C1474 1.372 . S
C1474 H1439 0.930 . S
C1474 C1473 1.372 . S
C1474 C1475 1.383 . S
C1475 C1474 1.383 . S
C1475 C1476 1.395 . S
C1476 H1440 0.930 . S
C1476 C1475 1.395 . S
C1476 C1477 1.362 . S
C1477 H1441 0.930 . S
C1477 C1472 1.390 . S
C1477 C1476 1.362 . S
C1478 C1467 1.492 . S
C1478 C1479 1.377 . S
C1478 C1483 1.397 . S
C1479 H1442 0.931 . S
C1479 C1478 1.377 . S
C1479 C1480 1.376 . S
C1480 H1443 0.930 . S
C1480 C1479 1.376 . S
C1480 C1481 1.376 . S
C1481 C1480 1.376 . S
C1481 C1482 1.378 . S
C1481 C1508 1.486 . S
C1482 H1444 0.930 . S
C1482 C1481 1.378 . S
C1482 C1483 1.376 . S
C1483 H1445 0.929 . S
C1483 C1478 1.397 . S
C1483 C1482 1.376 . S
C1484 C1468 1.509 . S
C1484 C1485 1.391 . S
C1484 C1489 1.386 . S
C1485 H1446 0.930 . S
C1485 C1484 1.391 . S
C1485 C1486 1.375 . S
C1486 H1447 0.931 . S
C1486 C1485 1.375 . S
C1486 C1487 1.375 . S
C1487 C1486 1.375 . S
C1487 C1488 1.361 . S
C1488 H1448 0.930 . S
C1488 C1487 1.361 . S
C1488 C1489 1.399 . S
C1489 H1449 0.929 . S
C1489 C1484 1.386 . S
C1489 C1488 1.399 . S
C1490 C1469 1.485 . S
C1490 C1491 1.394 . S
C1490 C1495 1.360 . S
C1491 H1450 0.931 . S
C1491 C1490 1.394 . S
C1491 C1492 1.372 . S
C1492 H1451 0.930 . S
C1492 C1491 1.372 . S
C1492 C1493 1.397 . S
C1493 C1492 1.397 . S
C1493 C1494 1.390 . S
C1493 C1509 1.476 . S
C1494 H1452 0.930 . S
C1494 C1493 1.390 . S
C1494 C1495 1.366 . S
C1495 H1453 0.932 . S
C1495 C1490 1.360 . S
C1495 C1494 1.366 . S
C1496 C1470 1.490 . S
C1496 C1497 1.380 . S
C1496 C1501 1.386 . S
C1497 H1454 0.930 . S
C1497 C1496 1.380 . S
C1497 C1498 1.381 . S
C1498 H1455 0.929 . S
C1498 C1497 1.381 . S
C1498 C1499 1.371 . S
C1499 C1498 1.371 . S
C1499 C1500 1.380 . S
C1500 H1456 0.931 . S
C1500 C1499 1.380 . S
C1500 C1501 1.387 . S
C1501 H1457 0.930 . S
C1501 C1496 1.386 . S
C1501 C1500 1.387 . S
C1502 C1471 1.519 . S
C1502 C1503 1.377 . S
C1502 C1507 1.361 . S
C1503 H1458 0.929 . S
C1503 C1502 1.377 . S
C1503 C1504 1.386 . S
C1504 H1459 0.931 . S
C1504 C1503 1.386 . S
C1504 C1505 1.363 . S
C1505 C1504 1.363 . S
C1505 C1506 1.385 . S
C1506 H1460 0.930 . S
C1506 C1505 1.385 . S
C1506 C1507 1.396 . S
C1507 H1461 0.929 . S
C1507 C1502 1.361 . S
C1507 C1506 1.396 . S
C1508 O1462 1.300 . S
C1508 O1463 1.209 . S
C1508 C1481 1.486 . S
C1509 O1464 1.199 . S
C1509 O1465 1.297 . S
C1509 C1493 1.476 . S
H1510 O1536 0.856 . S
H1511 O1539 0.854 . S
H1512 C1547 0.930 . S
H1513 C1548 0.930 . S
H1514 C1550 0.930 . S
H1515 C1551 0.930 . S
H1516 C1553 0.931 . S
H1517 C1554 0.930 . S
H1518 C1556 0.930 . S
H1519 C1557 0.929 . S
H1520 C1559 0.930 . S
H1521 C1560 0.931 . S
H1522 C1562 0.930 . S
H1523 C1563 0.929 . S
H1524 C1565 0.931 . S
H1525 C1566 0.930 . S
H1526 C1568 0.930 . S
H1527 C1569 0.932 . S
H1528 C1571 0.930 . S
H1529 C1572 0.929 . S
H1530 C1574 0.931 . S
H1531 C1575 0.930 . S
H1532 C1577 0.929 . S
H1533 C1578 0.931 . S
H1534 C1580 0.930 . S
H1535 C1581 0.929 . S
O1536 H1510 0.856 . S
O1536 C1582 1.300 . S
O1537 C1582 1.209 . S
O1538 C1583 1.199 . S
O1539 H1511 0.854 . S
O1539 C1583 1.297 . S
C1540 C1541 1.404 . S
C1540 C1545 1.397 . S
C1540 C1546 1.492 . S
C1541 C1540 1.404 . S
C1541 C1542 1.396 . S
C1541 C1552 1.492 . S
C1542 C1541 1.396 . S
C1542 C1543 1.397 . S
C1542 C1558 1.509 . S
C1543 C1542 1.397 . S
C1543 C1544 1.412 . S
C1543 C1564 1.485 . S
C1544 C1543 1.412 . S
C1544 C1545 1.388 . S
C1544 C1570 1.490 . S
C1545 C1540 1.397 . S
C1545 C1544 1.388 . S
C1545 C1576 1.519 . S
C1546 C1540 1.492 . S
C1546 C1547 1.363 . S
C1546 C1551 1.390 . S
C1547 H1512 0.930 . S
C1547 C1546 1.363 . S
C1547 C1548 1.372 . S
C1548 H1513 0.930 . S
C1548 C1547 1.372 . S
C1548 C1549 1.383 . S
C1549 C1548 1.383 . S
C1549 C1550 1.395 . S
C1550 H1514 0.930 . S
C1550 C1549 1.395 . S
C1550 C1551 1.362 . S
C1551 H1515 0.930 . S
C1551 C1546 1.390 . S
C1551 C1550 1.362 . S
C1552 C1541 1.492 . S
C1552 C1553 1.377 . S
C1552 C1557 1.397 . S
C1553 H1516 0.931 . S
C1553 C1552 1.377 . S
C1553 C1554 1.376 . S
C1554 H1517 0.930 . S
C1554 C1553 1.376 . S
C1554 C1555 1.376 . S
C1555 C1554 1.376 . S
C1555 C1556 1.378 . S
C1555 C1582 1.486 . S
C1556 H1518 0.930 . S
C1556 C1555 1.378 . S
C1556 C1557 1.376 . S
C1557 H1519 0.929 . S
C1557 C1552 1.397 . S
C1557 C1556 1.376 . S
C1558 C1542 1.509 . S
C1558 C1559 1.391 . S
C1558 C1563 1.386 . S
C1559 H1520 0.930 . S
C1559 C1558 1.391 . S
C1559 C1560 1.375 . S
C1560 H1521 0.931 . S
C1560 C1559 1.375 . S
C1560 C1561 1.375 . S
C1561 C1560 1.375 . S
C1561 C1562 1.361 . S
C1562 H1522 0.930 . S
C1562 C1561 1.361 . S
C1562 C1563 1.399 . S
C1563 H1523 0.929 . S
C1563 C1558 1.386 . S
C1563 C1562 1.399 . S
C1564 C1543 1.485 . S
C1564 C1565 1.394 . S
C1564 C1569 1.360 . S
C1565 H1524 0.931 . S
C1565 C1564 1.394 . S
C1565 C1566 1.372 . S
C1566 H1525 0.930 . S
C1566 C1565 1.372 . S
C1566 C1567 1.397 . S
C1567 C1566 1.397 . S
C1567 C1568 1.390 . S
C1567 C1583 1.476 . S
C1568 H1526 0.930 . S
C1568 C1567 1.390 . S
C1568 C1569 1.366 . S
C1569 H1527 0.932 . S
C1569 C1564 1.360 . S
C1569 C1568 1.366 . S
C1570 C1544 1.490 . S
C1570 C1571 1.380 . S
C1570 C1575 1.386 . S
C1571 H1528 0.930 . S
C1571 C1570 1.380 . S
C1571 C1572 1.381 . S
C1572 H1529 0.929 . S
C1572 C1571 1.381 . S
C1572 C1573 1.371 . S
C1573 C1572 1.371 . S
C1573 C1574 1.380 . S
C1574 H1530 0.931 . S
C1574 C1573 1.380 . S
C1574 C1575 1.387 . S
C1575 H1531 0.930 . S
C1575 C1570 1.386 . S
C1575 C1574 1.387 . S
C1576 C1545 1.519 . S
C1576 C1577 1.377 . S
C1576 C1581 1.361 . S
C1577 H1532 0.929 . S
C1577 C1576 1.377 . S
C1577 C1578 1.386 . S
C1578 H1533 0.931 . S
C1578 C1577 1.386 . S
C1578 C1579 1.363 . S
C1579 C1578 1.363 . S
C1579 C1580 1.385 . S
C1580 H1534 0.930 . S
C1580 C1579 1.385 . S
C1580 C1581 1.396 . S
C1581 H1535 0.929 . S
C1581 C1576 1.361 . S
C1581 C1580 1.396 . S
C1582 O1536 1.300 . S
C1582 O1537 1.209 . S
C1582 C1555 1.486 . S
C1583 O1538 1.199 . S
C1583 O1539 1.297 . S
C1583 C1567 1.476 . S
C1584 C1585 1.363 1_455 S
C1584 C1590 1.379 . S
C1584 N1592 1.356 . S
C1585 C1584 1.363 1_655 S
C1585 C1591 1.363 . S
C1586 C1587 1.363 . S
C1586 C1591 1.379 . S
C1586 N1593 1.356 . S
C1587 C1586 1.363 . S
C1587 C1590 1.363 1_655 S
N1588 C1590 1.356 . S
N1588 H1600 0.984 . S
N1588 H1601 0.985 . S
N1589 C1591 1.356 . S
N1589 H1594 0.984 . S
N1589 H1595 0.985 . S
C1590 C1584 1.379 . S
C1590 C1587 1.363 1_455 S
C1590 N1588 1.356 . S
C1591 C1585 1.363 . S
C1591 C1586 1.379 . S
C1591 N1589 1.356 . S
N1592 C1584 1.356 . S
N1592 H1598 0.984 . S
N1592 H1599 0.984 . S
N1593 C1586 1.356 . S
N1593 H1596 0.984 . S
N1593 H1597 0.985 . S
H1594 N1589 0.984 . S
H1595 N1589 0.985 . S
H1596 N1593 0.984 . S
H1597 N1593 0.985 . S
H1598 N1592 0.984 . S
H1599 N1592 0.984 . S
H1600 N1588 0.984 . S
H1601 N1588 0.985 . S
C1602 C1603 1.363 . S
C1602 C1608 1.379 . S
C1602 N1610 1.356 . S
C1603 C1602 1.363 . S
C1603 C1609 1.363 . S
C1604 C1605 1.363 . S
C1604 C1609 1.379 . S
C1604 N1611 1.356 . S
C1605 C1604 1.363 . S
C1605 C1608 1.363 . S
N1606 C1608 1.356 . S
N1606 H1618 0.984 . S
N1606 H1619 0.985 . S
N1607 C1609 1.356 . S
N1607 H1612 0.984 . S
N1607 H1613 0.985 . S
C1608 C1602 1.379 . S
C1608 C1605 1.363 . S
C1608 N1606 1.356 . S
C1609 C1603 1.363 . S
C1609 C1604 1.379 . S
C1609 N1607 1.356 . S
N1610 C1602 1.356 . S
N1610 H1616 0.984 . S
N1610 H1617 0.984 . S
N1611 C1604 1.356 . S
N1611 H1614 0.984 . S
N1611 H1615 0.985 . S
H1612 N1607 0.984 . S
H1613 N1607 0.985 . S
H1614 N1611 0.984 . S
H1615 N1611 0.985 . S
H1616 N1610 0.984 . S
H1617 N1610 0.984 . S
H1618 N1606 0.984 . S
H1619 N1606 0.985 . S
C1620 C1621 1.363 . S
C1620 C1626 1.379 . S
C1620 N1628 1.356 . S
C1621 C1620 1.363 . S
C1621 C1627 1.363 1_545 S
C1622 C1623 1.363 1_565 S
C1622 C1627 1.379 . S
C1622 N1629 1.356 . S
C1623 C1622 1.363 1_545 S
C1623 C1626 1.363 . S
N1624 C1626 1.356 . S
N1624 H1636 0.984 . S
N1624 H1637 0.985 . S
N1625 C1627 1.356 . S
N1625 H1630 0.984 . S
N1625 H1631 0.985 . S
C1626 C1620 1.379 . S
C1626 C1623 1.363 . S
C1626 N1624 1.356 . S
C1627 C1621 1.363 1_565 S
C1627 C1622 1.379 . S
C1627 N1625 1.356 . S
N1628 C1620 1.356 . S
N1628 H1634 0.984 . S
N1628 H1635 0.984 . S
N1629 C1622 1.356 . S
N1629 H1632 0.984 . S
N1629 H1633 0.985 . S
H1630 N1625 0.984 . S
H1631 N1625 0.985 . S
H1632 N1629 0.984 . S
H1633 N1629 0.985 . S
H1634 N1628 0.984 . S
H1635 N1628 0.984 . S
H1636 N1624 0.984 . S
H1637 N1624 0.985 . S
C1638 C1639 1.363 . S
C1638 C1644 1.379 . S
C1638 N1646 1.356 . S
C1639 C1638 1.363 . S
C1639 C1645 1.363 1_565 S
C1640 C1641 1.363 1_545 S
C1640 C1645 1.379 . S
C1640 N1647 1.356 . S
C1641 C1640 1.363 1_565 S
C1641 C1644 1.363 . S
N1642 C1644 1.356 . S
N1642 H1654 0.984 . S
N1642 H1655 0.985 . S
N1643 C1645 1.356 . S
N1643 H1648 0.984 . S
N1643 H1649 0.985 . S
C1644 C1638 1.379 . S
C1644 C1641 1.363 . S
C1644 N1642 1.356 . S
C1645 C1639 1.363 1_545 S
C1645 C1640 1.379 . S
C1645 N1643 1.356 . S
N1646 C1638 1.356 . S
N1646 H1652 0.984 . S
N1646 H1653 1.009 . S
N1647 C1640 1.356 . S
N1647 H1650 0.984 . S
N1647 H1651 0.985 . S
H1648 N1643 0.984 . S
H1649 N1643 0.985 . S
H1650 N1647 0.984 . S
H1651 N1647 0.985 . S
H1652 N1646 0.984 . S
H1653 N1646 1.009 . S
H1654 N1642 0.984 . S
H1655 N1642 0.985 . S
C1656 C1657 1.363 . S
C1656 C1662 1.379 . S
C1656 N1664 1.356 1_455 S
C1657 C1656 1.363 . S
C1657 C1663 1.363 . S
C1658 C1659 1.363 . S
C1658 C1663 1.379 . S
C1658 N1665 1.356 . S
C1659 C1658 1.363 . S
C1659 C1662 1.363 . S
N1660 C1662 1.356 . S
N1660 H1672 0.984 1_455 S
N1660 H1673 0.985 . S
N1661 C1663 1.356 1_554 S
N1661 H1666 0.984 . S
N1661 H1667 0.985 . S
C1662 C1656 1.379 . S
C1662 C1659 1.363 . S
C1662 N1660 1.356 . S
C1663 C1657 1.363 . S
C1663 C1658 1.379 . S
C1663 N1661 1.356 1_556 S
N1664 C1656 1.356 1_655 S
N1664 H1670 0.984 . S
N1664 H1671 0.984 . S
N1665 C1658 1.356 . S
N1665 H1668 0.984 . S
N1665 H1669 0.985 . S
H1666 N1661 0.984 . S
H1667 N1661 0.985 . S
H1668 N1665 0.984 . S
H1669 N1665 0.985 . S
H1670 N1664 0.984 . S
H1671 N1664 0.984 . S
H1672 N1660 0.984 1_655 S
H1673 N1660 0.985 . S
C1674 C1675 1.363 1_556 S
C1674 C1680 1.379 . S
C1674 N1682 1.356 1_556 S
C1675 C1674 1.363 1_554 S
C1675 C1681 1.363 . S
C1676 C1677 1.363 . S
C1676 C1681 1.379 1_556 S
C1676 N1683 1.356 . S
C1677 C1676 1.363 . S
C1677 C1680 1.363 . S
N1678 C1680 1.356 . S
N1678 H1690 0.984 . S
N1678 H1691 0.985 . S
N1679 C1681 1.356 . S
N1679 H1684 0.984 . S
N1679 H1685 0.985 . S
C1680 C1674 1.379 . S
C1680 C1677 1.363 . S
C1680 N1678 1.356 . S
C1681 C1675 1.363 . S
C1681 C1676 1.379 1_554 S
C1681 N1679 1.356 . S
N1682 C1674 1.356 1_554 S
N1682 H1688 0.984 . S
N1682 H1689 0.984 . S
N1683 C1676 1.356 . S
N1683 H1686 0.984 . S
N1683 H1687 0.985 . S
H1684 N1679 0.984 . S
H1685 N1679 0.985 . S
H1686 N1683 0.984 . S
H1687 N1683 0.985 . S
H1688 N1682 0.984 . S
H1689 N1682 0.984 . S
H1690 N1678 0.984 . S
H1691 N1678 0.985 . S
C1692 C1693 1.361 1_554 S
C1692 C1698 1.360 1_554 S
C1692 N1700 1.356 . S
C1693 C1692 1.361 1_556 S
C1693 C1699 1.367 1_455 S
C1694 C1695 1.363 1_655 S
C1694 C1699 1.379 . S
C1694 N1701 1.356 . S
C1695 C1694 1.363 1_455 S
C1695 C1698 1.405 . S
N1696 C1698 1.346 1_554 S
N1696 H1708 0.984 . S
N1696 H1709 0.985 1_554 S
N1697 C1699 1.356 . S
N1697 H1702 0.984 . S
N1697 H1703 0.985 . S
C1698 C1692 1.360 1_556 S
C1698 C1695 1.405 . S
C1698 N1696 1.346 1_556 S
C1699 C1693 1.367 1_655 S
C1699 C1694 1.379 . S
C1699 N1697 1.356 . S
N1700 C1692 1.356 . S
N1700 H1706 0.984 . S
N1700 H1707 0.984 . S
N1701 C1694 1.356 . S
N1701 H1704 0.984 . S
N1701 H1705 0.985 . S
H1702 N1697 0.984 . S
H1703 N1697 0.985 . S
H1704 N1701 0.984 . S
H1705 N1701 0.985 . S
H1706 N1700 0.984 . S
H1707 N1700 0.984 . S
H1708 N1696 0.984 . S
H1709 N1696 0.985 1_556 S
C1710 C1711 1.363 . S
C1710 C1716 1.379 . S
C1710 N1718 1.356 . S
C1711 C1710 1.363 . S
C1711 C1717 1.363 . S
C1712 C1713 1.363 . S
C1712 C1717 1.379 . S
C1712 N1719 1.356 . S
C1713 C1712 1.363 . S
C1713 C1716 1.363 . S
N1714 C1716 1.356 . S
N1714 H1726 0.984 . S
N1714 H1727 0.985 . S
N1715 C1717 1.356 . S
N1715 H1720 0.984 . S
N1715 H1721 0.985 . S
C1716 C1710 1.379 . S
C1716 C1713 1.363 . S
C1716 N1714 1.356 . S
C1717 C1711 1.363 . S
C1717 C1712 1.379 . S
C1717 N1715 1.356 . S
N1718 C1710 1.356 . S
N1718 H1724 0.984 . S
N1718 H1725 0.984 . S
N1719 C1712 1.356 . S
N1719 H1722 0.984 . S
N1719 H1723 0.985 . S
H1720 N1715 0.984 . S
H1721 N1715 0.985 . S
H1722 N1719 0.984 . S
H1723 N1719 0.985 . S
H1724 N1718 0.984 . S
H1725 N1718 0.984 . S
H1726 N1714 0.984 . S
H1727 N1714 0.985 . S
C1728 C1729 1.363 1_545 S
C1728 C1734 1.379 . S
C1728 N1736 1.356 1_556 S
C1729 C1728 1.363 1_565 S
C1729 C1735 1.363 . S
C1730 C1731 1.349 1_565 S
C1730 C1735 1.379 . S
C1730 N1737 1.356 . S
C1731 C1730 1.349 1_545 S
C1731 C1734 1.370 . S
N1732 C1734 1.356 . S
N1732 H1744 0.984 . S
N1732 H1745 0.985 . S
N1733 C1735 1.356 . S
N1733 H1738 0.984 . S
N1733 H1739 0.985 . S
C1734 C1728 1.379 . S
C1734 C1731 1.370 . S
C1734 N1732 1.356 . S
C1735 C1729 1.363 . S
C1735 C1730 1.379 . S
C1735 N1733 1.356 . S
N1736 C1728 1.356 1_554 S
N1736 H1742 0.984 . S
N1736 H1743 0.984 . S
N1737 C1730 1.356 . S
N1737 H1740 0.984 . S
N1737 H1741 0.985 . S
H1738 N1733 0.984 . S
H1739 N1733 0.985 . S
H1740 N1737 0.984 . S
H1741 N1737 0.985 . S
H1742 N1736 0.984 . S
H1743 N1736 0.984 . S
H1744 N1732 0.984 . S
H1745 N1732 0.985 . S
C1746 C1747 1.363 . S
C1746 C1752 1.379 . S
C1746 N1754 1.356 . S
C1747 C1746 1.363 . S
C1747 C1753 1.363 1_545 S
C1748 C1749 1.365 1_565 S
C1748 C1753 1.379 . S
C1748 N1755 1.356 . S
C1749 C1748 1.365 1_545 S
C1749 C1752 1.362 . S
N1750 C1752 1.356 . S
N1750 H1762 0.984 . S
N1750 H1763 0.985 . S
N1751 C1753 1.356 . S
N1751 H1756 0.984 . S
N1751 H1757 0.985 . S
C1752 C1746 1.379 . S
C1752 C1749 1.362 . S
C1752 N1750 1.356 . S
C1753 C1747 1.363 1_565 S
C1753 C1748 1.379 . S
C1753 N1751 1.356 . S
N1754 C1746 1.356 . S
N1754 H1760 0.984 . S
N1754 H1761 0.984 . S
N1755 C1748 1.356 . S
N1755 H1758 0.984 . S
N1755 H1759 0.985 . S
H1756 N1751 0.984 . S
H1757 N1751 0.985 . S
H1758 N1755 0.984 . S
H1759 N1755 0.985 . S
H1760 N1754 0.984 . S
H1761 N1754 0.984 . S
H1762 N1750 0.984 . S
H1763 N1750 0.985 . S
C1764 C1765 1.363 . S
C1764 C1770 1.379 . S
C1764 N1772 1.356 . S
C1765 C1764 1.363 . S
C1765 C1771 1.363 . S
C1766 C1767 1.360 . S
C1766 C1771 1.385 . S
C1766 N1773 1.321 1_655 S
C1767 C1766 1.360 . S
C1767 C1770 1.382 . S
N1768 C1770 1.356 . S
N1768 H1780 0.984 . S
N1768 H1781 1.011 . S
N1769 C1771 1.356 . S
N1769 H1774 0.984 . S
N1769 H1775 1.000 . S
C1770 C1764 1.379 . S
C1770 C1767 1.382 . S
C1770 N1768 1.356 . S
C1771 C1765 1.363 . S
C1771 C1766 1.385 . S
C1771 N1769 1.356 . S
N1772 C1764 1.356 . S
N1772 H1778 0.984 . S
N1772 H1779 0.984 . S
N1773 C1766 1.321 1_455 S
N1773 H1776 0.997 . S
N1773 H1777 1.002 . S
H1774 N1769 0.984 . S
H1775 N1769 1.000 . S
H1776 N1773 0.997 . S
H1777 N1773 1.002 . S
H1778 N1772 0.984 . S
H1779 N1772 0.984 . S
H1780 N1768 0.984 . S
H1781 N1768 1.011 . S
C1782 C1783 1.363 . S
C1782 C1788 1.379 . S
C1782 N1790 1.356 . S
C1783 C1782 1.363 . S
C1783 C1789 1.363 . S
C1784 C1785 1.363 . S
C1784 C1789 1.379 . S
C1784 N1791 1.356 . S
C1785 C1784 1.363 . S
C1785 C1788 1.363 . S
N1786 C1788 1.356 . S
N1786 H1798 0.984 . S
N1786 H1799 0.985 . S
N1787 C1789 1.356 . S
N1787 H1792 0.984 . S
N1787 H1793 0.985 . S
C1788 C1782 1.379 . S
C1788 C1785 1.363 . S
C1788 N1786 1.356 . S
C1789 C1783 1.363 . S
C1789 C1784 1.379 . S
C1789 N1787 1.356 . S
N1790 C1782 1.356 . S
N1790 H1796 0.984 . S
N1790 H1797 0.984 . S
N1791 C1784 1.356 . S
N1791 H1794 0.984 . S
N1791 H1795 0.985 . S
H1792 N1787 0.984 . S
H1793 N1787 0.985 . S
H1794 N1791 0.984 . S
H1795 N1791 0.985 . S
H1796 N1790 0.984 . S
H1797 N1790 0.984 . S
H1798 N1786 0.984 . S
H1799 N1786 0.985 . S
C1800 C1801 1.363 . S
C1800 C1806 1.379 . S
C1800 N1808 1.356 . S
C1801 C1800 1.363 . S
C1801 C1807 1.363 . S
C1802 C1803 1.363 . S
C1802 C1807 1.379 . S
C1802 N1809 1.356 . S
C1803 C1802 1.363 . S
C1803 C1806 1.363 . S
N1804 C1806 1.356 . S
N1804 H1816 0.984 . S
N1804 H1817 0.985 . S
N1805 C1807 1.356 . S
N1805 H1810 0.984 . S
N1805 H1811 0.985 . S
C1806 C1800 1.379 . S
C1806 C1803 1.363 . S
C1806 N1804 1.356 . S
C1807 C1801 1.363 . S
C1807 C1802 1.379 . S
C1807 N1805 1.356 . S
N1808 C1800 1.356 . S
N1808 H1814 0.984 . S
N1808 H1815 0.984 . S
N1809 C1802 1.356 . S
N1809 H1812 0.984 . S
N1809 H1813 0.985 . S
H1810 N1805 0.984 . S
H1811 N1805 0.985 . S
H1812 N1809 0.984 . S
H1813 N1809 0.985 . S
H1814 N1808 0.984 . S
H1815 N1808 0.984 . S
H1816 N1804 0.984 . S
H1817 N1804 0.985 . S
C1818 C1819 1.363 . S
C1818 C1824 1.379 . S
C1818 N1826 1.356 . S
C1819 C1818 1.363 . S
C1819 C1825 1.363 . S
C1820 C1821 1.363 . S
C1820 C1825 1.379 . S
C1820 N1827 1.356 . S
C1821 C1820 1.363 . S
C1821 C1824 1.363 . S
N1822 C1824 1.356 . S
N1822 H1834 0.984 . S
N1822 H1835 0.985 . S
N1823 C1825 1.356 . S
N1823 H1828 0.984 . S
N1823 H1829 0.985 . S
C1824 C1818 1.379 . S
C1824 C1821 1.363 . S
C1824 N1822 1.356 . S
C1825 C1819 1.363 . S
C1825 C1820 1.379 . S
C1825 N1823 1.356 . S
N1826 C1818 1.356 . S
N1826 H1832 0.984 . S
N1826 H1833 0.984 . S
N1827 C1820 1.356 . S
N1827 H1830 0.984 . S
N1827 H1831 0.985 . S
H1828 N1823 0.984 . S
H1829 N1823 0.985 . S
H1830 N1827 0.984 . S
H1831 N1827 0.985 . S
H1832 N1826 0.984 . S
H1833 N1826 0.984 . S
H1834 N1822 0.984 . S
H1835 N1822 0.985 . S
C1836 C1837 1.363 . S
C1836 C1842 1.379 . S
C1836 N1844 1.356 . S
C1837 C1836 1.363 . S
C1837 C1843 1.363 . S
C1838 C1839 1.363 . S
C1838 C1843 1.379 . S
C1838 N1845 1.356 . S
C1839 C1838 1.363 . S
C1839 C1842 1.363 . S
N1840 C1842 1.356 . S
N1840 H1852 0.984 . S
N1840 H1853 0.985 . S
N1841 C1843 1.356 . S
N1841 H1846 0.984 . S
N1841 H1847 0.985 . S
C1842 C1836 1.379 . S
C1842 C1839 1.363 . S
C1842 N1840 1.356 . S
C1843 C1837 1.363 . S
C1843 C1838 1.379 . S
C1843 N1841 1.356 . S
N1844 C1836 1.356 . S
N1844 H1850 0.984 . S
N1844 H1851 0.984 . S
N1845 C1838 1.356 . S
N1845 H1848 0.984 . S
N1845 H1849 0.985 . S
H1846 N1841 0.984 . S
H1847 N1841 0.985 . S
H1848 N1845 0.984 . S
H1849 N1845 0.985 . S
H1850 N1844 0.984 . S
H1851 N1844 0.984 . S
H1852 N1840 0.984 . S
H1853 N1840 0.985 . S
C1854 C1855 1.363 . S
C1854 C1860 1.379 . S
C1854 N1862 1.356 . S
C1855 C1854 1.363 . S
C1855 C1861 1.363 . S
C1856 C1857 1.363 . S
C1856 C1861 1.379 . S
C1856 N1863 1.356 . S
C1857 C1856 1.363 . S
C1857 C1860 1.363 . S
N1858 C1860 1.356 . S
N1858 H1870 0.984 . S
N1858 H1871 0.985 . S
N1859 C1861 1.356 . S
N1859 H1864 0.984 . S
N1859 H1865 0.985 . S
C1860 C1854 1.379 . S
C1860 C1857 1.363 . S
C1860 N1858 1.356 . S
C1861 C1855 1.363 . S
C1861 C1856 1.379 . S
C1861 N1859 1.356 . S
N1862 C1854 1.356 . S
N1862 H1868 0.984 . S
N1862 H1869 0.984 . S
N1863 C1856 1.356 . S
N1863 H1866 0.984 . S
N1863 H1867 0.985 . S
H1864 N1859 0.984 . S
H1865 N1859 0.985 . S
H1866 N1863 0.984 . S
H1867 N1863 0.985 . S
H1868 N1862 0.984 . S
H1869 N1862 0.984 . S
H1870 N1858 0.984 . S
H1871 N1858 0.985 . S
C1872 C1873 1.363 . S
C1872 C1878 1.379 . S
C1872 N1880 1.356 . S
C1873 C1872 1.363 . S
C1873 C1879 1.363 . S
C1874 C1875 1.363 . S
C1874 C1879 1.379 . S
C1874 N1881 1.356 . S
C1875 C1874 1.363 . S
C1875 C1878 1.363 . S
N1876 C1878 1.356 . S
N1876 H1888 0.984 . S
N1876 H1889 0.985 . S
N1877 C1879 1.356 . S
N1877 H1882 0.984 . S
N1877 H1883 0.985 . S
C1878 C1872 1.379 . S
C1878 C1875 1.363 . S
C1878 N1876 1.356 . S
C1879 C1873 1.363 . S
C1879 C1874 1.379 . S
C1879 N1877 1.356 . S
N1880 C1872 1.356 . S
N1880 H1886 0.984 . S
N1880 H1887 0.984 . S
N1881 C1874 1.356 . S
N1881 H1884 0.984 . S
N1881 H1885 0.985 . S
H1882 N1877 0.984 . S
H1883 N1877 0.985 . S
H1884 N1881 0.984 . S
H1885 N1881 0.985 . S
H1886 N1880 0.984 . S
H1887 N1880 0.984 . S
H1888 N1876 0.984 . S
H1889 N1876 0.985 . S
C1890 C1891 1.363 . S
C1890 C1896 1.379 . S
C1890 N1898 1.356 . S
C1891 C1890 1.363 . S
C1891 C1897 1.363 . S
C1892 C1893 1.363 . S
C1892 C1897 1.379 . S
C1892 N1899 1.356 . S
C1893 C1892 1.363 . S
C1893 C1896 1.363 . S
N1894 C1896 1.356 . S
N1894 H1906 0.984 . S
N1894 H1907 0.985 . S
N1895 C1897 1.356 . S
N1895 H1900 0.984 . S
N1895 H1901 0.985 . S
C1896 C1890 1.379 . S
C1896 C1893 1.363 . S
C1896 N1894 1.356 . S
C1897 C1891 1.363 . S
C1897 C1892 1.379 . S
C1897 N1895 1.356 . S
N1898 C1890 1.356 . S
N1898 H1904 0.984 . S
N1898 H1905 0.984 . S
N1899 C1892 1.356 . S
N1899 H1902 0.984 . S
N1899 H1903 0.985 . S
H1900 N1895 0.984 . S
H1901 N1895 0.985 . S
H1902 N1899 0.984 . S
H1903 N1899 0.985 . S
H1904 N1898 0.984 . S
H1905 N1898 0.984 . S
H1906 N1894 0.984 . S
H1907 N1894 0.985 . S
C1908 C1909 1.363 . S
C1908 C1914 1.379 . S
C1908 N1916 1.356 . S
C1909 C1908 1.363 . S
C1909 C1915 1.363 . S
C1910 C1911 1.363 . S
C1910 C1915 1.379 . S
C1910 N1917 1.356 . S
C1911 C1910 1.363 . S
C1911 C1914 1.363 . S
N1912 C1914 1.356 . S
N1912 H1924 0.984 . S
N1912 H1925 0.985 . S
N1913 C1915 1.356 . S
N1913 H1918 0.984 . S
N1913 H1919 0.985 . S
C1914 C1908 1.379 . S
C1914 C1911 1.363 . S
C1914 N1912 1.356 . S
C1915 C1909 1.363 . S
C1915 C1910 1.379 . S
C1915 N1913 1.356 . S
N1916 C1908 1.356 . S
N1916 H1922 0.984 . S
N1916 H1923 0.984 . S
N1917 C1910 1.356 . S
N1917 H1920 0.984 . S
N1917 H1921 0.985 . S
H1918 N1913 0.984 . S
H1919 N1913 0.985 . S
H1920 N1917 0.984 . S
H1921 N1917 0.985 . S
H1922 N1916 0.984 . S
H1923 N1916 0.984 . S
H1924 N1912 0.984 . S
H1925 N1912 0.985 . S
C1926 C1927 1.363 . S
C1926 C1932 1.379 . S
C1926 N1934 1.356 . S
C1927 C1926 1.363 . S
C1927 C1933 1.363 . S
C1928 C1929 1.363 . S
C1928 C1933 1.379 . S
C1928 N1935 1.356 . S
C1929 C1928 1.363 . S
C1929 C1932 1.363 . S
N1930 C1932 1.356 . S
N1930 H1942 0.984 . S
N1930 H1943 0.985 . S
N1931 C1933 1.356 . S
N1931 H1936 0.984 . S
N1931 H1937 0.985 . S
C1932 C1926 1.379 . S
C1932 C1929 1.363 . S
C1932 N1930 1.356 . S
C1933 C1927 1.363 . S
C1933 C1928 1.379 . S
C1933 N1931 1.356 . S
N1934 C1926 1.356 . S
N1934 H1940 0.984 . S
N1934 H1941 0.984 . S
N1935 C1928 1.356 . S
N1935 H1938 0.984 . S
N1935 H1939 0.985 . S
H1936 N1931 0.984 . S
H1937 N1931 0.985 . S
H1938 N1935 0.984 . S
H1939 N1935 0.985 . S
H1940 N1934 0.984 . S
H1941 N1934 0.984 . S
H1942 N1930 0.984 . S
H1943 N1930 0.985 . S
C1944 C1945 1.363 . S
C1944 C1950 1.379 . S
C1944 N1952 1.356 . S
C1945 C1944 1.363 . S
C1945 C1951 1.363 . S
C1946 C1947 1.363 . S
C1946 C1951 1.379 . S
C1946 N1953 1.356 . S
C1947 C1946 1.363 . S
C1947 C1950 1.363 . S
N1948 C1950 1.356 . S
N1948 H1960 0.984 . S
N1948 H1961 0.985 . S
N1949 C1951 1.356 . S
N1949 H1954 0.984 . S
N1949 H1955 0.985 . S
C1950 C1944 1.379 . S
C1950 C1947 1.363 . S
C1950 N1948 1.356 . S
C1951 C1945 1.363 . S
C1951 C1946 1.379 . S
C1951 N1949 1.356 . S
N1952 C1944 1.356 . S
N1952 H1958 0.984 . S
N1952 H1959 0.984 . S
N1953 C1946 1.356 . S
N1953 H1956 0.984 . S
N1953 H1957 0.985 . S
H1954 N1949 0.984 . S
H1955 N1949 0.985 . S
H1956 N1953 0.984 . S
H1957 N1953 0.985 . S
H1958 N1952 0.984 . S
H1959 N1952 0.984 . S
H1960 N1948 0.984 . S
H1961 N1948 0.985 . S
C1962 C1963 1.363 . S
C1962 C1968 1.379 . S
C1962 N1970 1.356 . S
C1963 C1962 1.363 . S
C1963 C1969 1.363 . S
C1964 C1965 1.363 . S
C1964 C1969 1.379 . S
C1964 N1971 1.356 . S
C1965 C1964 1.363 . S
C1965 C1968 1.363 . S
N1966 C1968 1.356 . S
N1966 H1978 0.984 . S
N1966 H1979 0.985 . S
N1967 C1969 1.356 . S
N1967 H1972 0.984 . S
N1967 H1973 0.985 . S
C1968 C1962 1.379 . S
C1968 C1965 1.363 . S
C1968 N1966 1.356 . S
C1969 C1963 1.363 . S
C1969 C1964 1.379 . S
C1969 N1967 1.356 . S
N1970 C1962 1.356 . S
N1970 H1976 0.984 . S
N1970 H1977 0.984 . S
N1971 C1964 1.356 . S
N1971 H1974 0.984 . S
N1971 H1975 0.985 . S
H1972 N1967 0.984 . S
H1973 N1967 0.985 . S
H1974 N1971 0.984 . S
H1975 N1971 0.985 . S
H1976 N1970 0.984 . S
H1977 N1970 0.984 . S
H1978 N1966 0.984 . S
H1979 N1966 0.985 . S
C1980 C1981 1.363 . S
C1980 C1986 1.379 . S
C1980 N1988 1.356 . S
C1981 C1980 1.363 . S
C1981 C1987 1.363 . S
C1982 C1983 1.363 . S
C1982 C1987 1.379 . S
C1982 N1989 1.356 . S
C1983 C1982 1.363 . S
C1983 C1986 1.363 . S
N1984 C1986 1.356 . S
N1984 H1996 0.984 . S
N1984 H1997 0.985 . S
N1985 C1987 1.356 . S
N1985 H1990 0.984 . S
N1985 H1991 0.985 . S
C1986 C1980 1.379 . S
C1986 C1983 1.363 . S
C1986 N1984 1.356 . S
C1987 C1981 1.363 . S
C1987 C1982 1.379 . S
C1987 N1985 1.356 . S
N1988 C1980 1.356 . S
N1988 H1994 0.984 . S
N1988 H1995 0.984 . S
N1989 C1982 1.356 . S
N1989 H1992 0.984 . S
N1989 H1993 0.985 . S
H1990 N1985 0.984 . S
H1991 N1985 0.985 . S
H1992 N1989 0.984 . S
H1993 N1989 0.985 . S
H1994 N1988 0.984 . S
H1995 N1988 0.984 . S
H1996 N1984 0.984 . S
H1997 N1984 0.985 . S
C1998 C1999 1.363 . S
C1998 C2004 1.379 . S
C1998 N2006 1.356 . S
C1999 C1998 1.363 . S
C1999 C2005 1.363 . S
C2000 C2001 1.363 . S
C2000 C2005 1.379 . S
C2000 N2007 1.356 . S
C2001 C2000 1.363 . S
C2001 C2004 1.363 . S
N2002 C2004 1.356 . S
N2002 H2014 0.984 . S
N2002 H2015 0.985 . S
N2003 C2005 1.356 . S
N2003 H2008 0.984 . S
N2003 H2009 0.985 . S
C2004 C1998 1.379 . S
C2004 C2001 1.363 . S
C2004 N2002 1.356 . S
C2005 C1999 1.363 . S
C2005 C2000 1.379 . S
C2005 N2003 1.356 . S
N2006 C1998 1.356 . S
N2006 H2012 0.984 . S
N2006 H2013 0.984 . S
N2007 C2000 1.356 . S
N2007 H2010 0.984 . S
N2007 H2011 0.985 . S
H2008 N2003 0.984 . S
H2009 N2003 0.985 . S
H2010 N2007 0.984 . S
H2011 N2007 0.985 . S
H2012 N2006 0.984 . S
H2013 N2006 0.984 . S
H2014 N2002 0.984 . S
H2015 N2002 0.985 . S
C2016 C2017 1.363 . S
C2016 C2022 1.379 . S
C2016 N2024 1.356 . S
C2017 C2016 1.363 . S
C2017 C2023 1.363 . S
C2018 C2019 1.363 . S
C2018 C2023 1.379 . S
C2018 N2025 1.356 . S
C2019 C2018 1.363 . S
C2019 C2022 1.363 . S
N2020 C2022 1.356 . S
N2020 H2032 0.984 . S
N2020 H2033 0.985 . S
N2021 C2023 1.356 . S
N2021 H2026 0.984 . S
N2021 H2027 0.985 . S
C2022 C2016 1.379 . S
C2022 C2019 1.363 . S
C2022 N2020 1.356 . S
C2023 C2017 1.363 . S
C2023 C2018 1.379 . S
C2023 N2021 1.356 . S
N2024 C2016 1.356 . S
N2024 H2030 0.984 . S
N2024 H2031 0.984 . S
N2025 C2018 1.356 . S
N2025 H2028 0.984 . S
N2025 H2029 0.985 . S
H2026 N2021 0.984 . S
H2027 N2021 0.985 . S
H2028 N2025 0.984 . S
H2029 N2025 0.985 . S
H2030 N2024 0.984 . S
H2031 N2024 0.984 . S
H2032 N2020 0.984 . S
H2033 N2020 0.985 . S
C2034 C2035 1.363 . S
C2034 C2040 1.379 . S
C2034 N2042 1.356 . S
C2035 C2034 1.363 . S
C2035 C2041 1.363 . S
C2036 C2037 1.363 . S
C2036 C2041 1.379 . S
C2036 N2043 1.356 . S
C2037 C2036 1.363 . S
C2037 C2040 1.363 . S
N2038 C2040 1.356 . S
N2038 H2050 0.984 . S
N2038 H2051 0.985 . S
N2039 C2041 1.356 . S
N2039 H2044 0.984 . S
N2039 H2045 0.985 . S
C2040 C2034 1.379 . S
C2040 C2037 1.363 . S
C2040 N2038 1.356 . S
C2041 C2035 1.363 . S
C2041 C2036 1.379 . S
C2041 N2039 1.356 . S
N2042 C2034 1.356 . S
N2042 H2048 0.984 . S
N2042 H2049 0.984 . S
N2043 C2036 1.356 . S
N2043 H2046 0.984 . S
N2043 H2047 0.985 . S
H2044 N2039 0.984 . S
H2045 N2039 0.985 . S
H2046 N2043 0.984 . S
H2047 N2043 0.985 . S
H2048 N2042 0.984 . S
H2049 N2042 0.984 . S
H2050 N2038 0.984 . S
H2051 N2038 0.985 . S
C2052 C2053 1.363 . S
C2052 C2058 1.379 . S
C2052 N2060 1.356 . S
C2053 C2052 1.363 . S
C2053 C2059 1.363 . S
C2054 C2055 1.363 . S
C2054 C2059 1.379 . S
C2054 N2061 1.356 . S
C2055 C2054 1.363 . S
C2055 C2058 1.363 . S
N2056 C2058 1.356 . S
N2056 H2068 0.984 . S
N2056 H2069 0.985 . S
N2057 C2059 1.356 . S
N2057 H2062 0.984 . S
N2057 H2063 0.985 . S
C2058 C2052 1.379 . S
C2058 C2055 1.363 . S
C2058 N2056 1.356 . S
C2059 C2053 1.363 . S
C2059 C2054 1.379 . S
C2059 N2057 1.356 . S
N2060 C2052 1.356 . S
N2060 H2066 0.984 . S
N2060 H2067 0.984 . S
N2061 C2054 1.356 . S
N2061 H2064 0.984 . S
N2061 H2065 0.985 . S
H2062 N2057 0.984 . S
H2063 N2057 0.985 . S
H2064 N2061 0.984 . S
H2065 N2061 0.985 . S
H2066 N2060 0.984 . S
H2067 N2060 0.984 . S
H2068 N2056 0.984 . S
H2069 N2056 0.985 . S
C2070 C2071 1.363 . S
C2070 C2076 1.379 . S
C2070 N2078 1.356 . S
C2071 C2070 1.363 . S
C2071 C2077 1.363 . S
C2072 C2073 1.363 . S
C2072 C2077 1.379 . S
C2072 N2079 1.356 . S
C2073 C2072 1.363 . S
C2073 C2076 1.363 . S
N2074 C2076 1.356 . S
N2074 H2086 0.984 . S
N2074 H2087 0.985 . S
N2075 C2077 1.356 . S
N2075 H2080 0.984 . S
N2075 H2081 0.985 . S
C2076 C2070 1.379 . S
C2076 C2073 1.363 . S
C2076 N2074 1.356 . S
C2077 C2071 1.363 . S
C2077 C2072 1.379 . S
C2077 N2075 1.356 . S
N2078 C2070 1.356 . S
N2078 H2084 0.984 . S
N2078 H2085 0.984 . S
N2079 C2072 1.356 . S
N2079 H2082 0.984 . S
N2079 H2083 0.985 . S
H2080 N2075 0.984 . S
H2081 N2075 0.985 . S
H2082 N2079 0.984 . S
H2083 N2079 0.985 . S
H2084 N2078 0.984 . S
H2085 N2078 0.984 . S
H2086 N2074 0.984 . S
H2087 N2074 0.985 . S
C2088 C2089 1.363 . S
C2088 C2094 1.379 . S
C2088 N2096 1.356 . S
C2089 C2088 1.363 . S
C2089 C2095 1.363 . S
C2090 C2091 1.363 . S
C2090 C2095 1.379 . S
C2090 N2097 1.356 . S
C2091 C2090 1.363 . S
C2091 C2094 1.363 . S
N2092 C2094 1.356 . S
N2092 H2104 0.984 . S
N2092 H2105 0.985 . S
N2093 C2095 1.356 . S
N2093 H2098 0.984 . S
N2093 H2099 0.985 . S
C2094 C2088 1.379 . S
C2094 C2091 1.363 . S
C2094 N2092 1.356 . S
C2095 C2089 1.363 . S
C2095 C2090 1.379 . S
C2095 N2093 1.356 . S
N2096 C2088 1.356 . S
N2096 H2102 0.984 . S
N2096 H2103 0.984 . S
N2097 C2090 1.356 . S
N2097 H2100 0.984 . S
N2097 H2101 0.985 . S
H2098 N2093 0.984 . S
H2099 N2093 0.985 . S
H2100 N2097 0.984 . S
H2101 N2097 0.985 . S
H2102 N2096 0.984 . S
H2103 N2096 0.984 . S
H2104 N2092 0.984 . S
H2105 N2092 0.985 . S
C2106 C2107 1.363 . S
C2106 C2112 1.379 . S
C2106 N2114 1.356 . S
C2107 C2106 1.363 . S
C2107 C2113 1.363 . S
C2108 C2109 1.363 . S
C2108 C2113 1.379 . S
C2108 N2115 1.356 . S
C2109 C2108 1.363 . S
C2109 C2112 1.363 . S
N2110 C2112 1.356 . S
N2110 H2122 0.984 . S
N2110 H2123 0.985 . S
N2111 C2113 1.356 . S
N2111 H2116 0.984 . S
N2111 H2117 0.985 . S
C2112 C2106 1.379 . S
C2112 C2109 1.363 . S
C2112 N2110 1.356 . S
C2113 C2107 1.363 . S
C2113 C2108 1.379 . S
C2113 N2111 1.356 . S
N2114 C2106 1.356 . S
N2114 H2120 0.984 . S
N2114 H2121 0.984 . S
N2115 C2108 1.356 . S
N2115 H2118 0.984 . S
N2115 H2119 0.985 . S
H2116 N2111 0.984 . S
H2117 N2111 0.985 . S
H2118 N2115 0.984 . S
H2119 N2115 0.985 . S
H2120 N2114 0.984 . S
H2121 N2114 0.984 . S
H2122 N2110 0.984 . S
H2123 N2110 0.985 . S
C2124 C2125 1.363 . S
C2124 C2130 1.379 . S
C2124 N2132 1.356 . S
C2125 C2124 1.363 . S
C2125 C2131 1.363 . S
C2126 C2127 1.363 . S
C2126 C2131 1.379 . S
C2126 N2133 1.356 . S
C2127 C2126 1.363 . S
C2127 C2130 1.363 . S
N2128 C2130 1.356 . S
N2128 H2140 0.984 . S
N2128 H2141 0.985 . S
N2129 C2131 1.356 . S
N2129 H2134 0.984 . S
N2129 H2135 0.985 . S
C2130 C2124 1.379 . S
C2130 C2127 1.363 . S
C2130 N2128 1.356 . S
C2131 C2125 1.363 . S
C2131 C2126 1.379 . S
C2131 N2129 1.356 . S
N2132 C2124 1.356 . S
N2132 H2138 0.984 . S
N2132 H2139 0.984 . S
N2133 C2126 1.356 . S
N2133 H2136 0.984 . S
N2133 H2137 0.985 . S
H2134 N2129 0.984 . S
H2135 N2129 0.985 . S
H2136 N2133 0.984 . S
H2137 N2133 0.985 . S
H2138 N2132 0.984 . S
H2139 N2132 0.984 . S
H2140 N2128 0.984 . S
H2141 N2128 0.985 . S
C2142 C2143 1.363 . S
C2142 C2148 1.379 . S
C2142 N2150 1.356 . S
C2143 C2142 1.363 . S
C2143 C2149 1.363 . S
C2144 C2145 1.363 . S
C2144 C2149 1.379 . S
C2144 N2151 1.356 . S
C2145 C2144 1.363 . S
C2145 C2148 1.363 . S
N2146 C2148 1.356 . S
N2146 H2158 0.984 . S
N2146 H2159 0.985 . S
N2147 C2149 1.356 . S
N2147 H2152 0.984 . S
N2147 H2153 0.985 . S
C2148 C2142 1.379 . S
C2148 C2145 1.363 . S
C2148 N2146 1.356 . S
C2149 C2143 1.363 . S
C2149 C2144 1.379 . S
C2149 N2147 1.356 . S
N2150 C2142 1.356 . S
N2150 H2156 0.984 . S
N2150 H2157 0.984 . S
N2151 C2144 1.356 . S
N2151 H2154 0.984 . S
N2151 H2155 0.985 . S
H2152 N2147 0.984 . S
H2153 N2147 0.985 . S
H2154 N2151 0.984 . S
H2155 N2151 0.985 . S
H2156 N2150 0.984 . S
H2157 N2150 0.984 . S
H2158 N2146 0.984 . S
H2159 N2146 0.985 . S
C2160 C2161 1.363 . S
C2160 C2166 1.379 . S
C2160 N2168 1.356 . S
C2161 C2160 1.363 . S
C2161 C2167 1.363 . S
C2162 C2163 1.363 . S
C2162 C2167 1.379 . S
C2162 N2169 1.356 . S
C2163 C2162 1.363 . S
C2163 C2166 1.363 . S
N2164 C2166 1.356 . S
N2164 H2176 0.984 . S
N2164 H2177 0.985 . S
N2165 C2167 1.356 . S
N2165 H2170 0.984 . S
N2165 H2171 0.985 . S
C2166 C2160 1.379 . S
C2166 C2163 1.363 . S
C2166 N2164 1.356 . S
C2167 C2161 1.363 . S
C2167 C2162 1.379 . S
C2167 N2165 1.356 . S
N2168 C2160 1.356 . S
N2168 H2174 0.984 . S
N2168 H2175 0.984 . S
N2169 C2162 1.356 . S
N2169 H2172 0.984 . S
N2169 H2173 0.985 . S
H2170 N2165 0.984 . S
H2171 N2165 0.985 . S
H2172 N2169 0.984 . S
H2173 N2169 0.985 . S
H2174 N2168 0.984 . S
H2175 N2168 0.984 . S
H2176 N2164 0.984 . S
H2177 N2164 0.985 . S
C2178 C2179 1.363 . S
C2178 C2184 1.379 . S
C2178 N2186 1.356 . S
C2179 C2178 1.363 . S
C2179 C2185 1.363 . S
C2180 C2181 1.363 . S
C2180 C2185 1.379 . S
C2180 N2187 1.356 . S
C2181 C2180 1.363 . S
C2181 C2184 1.363 . S
N2182 C2184 1.356 . S
N2182 H2194 0.984 . S
N2182 H2195 0.985 . S
N2183 C2185 1.356 . S
N2183 H2188 0.984 . S
N2183 H2189 0.985 . S
C2184 C2178 1.379 . S
C2184 C2181 1.363 . S
C2184 N2182 1.356 . S
C2185 C2179 1.363 . S
C2185 C2180 1.379 . S
C2185 N2183 1.356 . S
N2186 C2178 1.356 . S
N2186 H2192 0.984 . S
N2186 H2193 0.984 . S
N2187 C2180 1.356 . S
N2187 H2190 0.984 . S
N2187 H2191 0.985 . S
H2188 N2183 0.984 . S
H2189 N2183 0.985 . S
H2190 N2187 0.984 . S
H2191 N2187 0.985 . S
H2192 N2186 0.984 . S
H2193 N2186 0.984 . S
H2194 N2182 0.984 . S
H2195 N2182 0.985 . S
C2196 C2197 1.363 . S
C2196 C2202 1.379 . S
C2196 N2204 1.356 . S
C2197 C2196 1.363 . S
C2197 C2203 1.363 . S
C2198 C2199 1.363 . S
C2198 C2203 1.379 . S
C2198 N2205 1.356 . S
C2199 C2198 1.363 . S
C2199 C2202 1.363 . S
N2200 C2202 1.356 . S
N2200 H2212 0.984 . S
N2200 H2213 0.985 . S
N2201 C2203 1.356 . S
N2201 H2206 0.984 . S
N2201 H2207 0.985 . S
C2202 C2196 1.379 . S
C2202 C2199 1.363 . S
C2202 N2200 1.356 . S
C2203 C2197 1.363 . S
C2203 C2198 1.379 . S
C2203 N2201 1.356 . S
N2204 C2196 1.356 . S
N2204 H2210 0.984 . S
N2204 H2211 0.984 . S
N2205 C2198 1.356 . S
N2205 H2208 0.984 . S
N2205 H2209 0.985 . S
H2206 N2201 0.984 . S
H2207 N2201 0.985 . S
H2208 N2205 0.984 . S
H2209 N2205 0.985 . S
H2210 N2204 0.984 . S
H2211 N2204 0.984 . S
H2212 N2200 0.984 . S
H2213 N2200 0.985 . S
C2214 C2215 1.363 . S
C2214 C2220 1.379 . S
C2214 N2222 1.356 . S
C2215 C2214 1.363 . S
C2215 C2221 1.363 . S
C2216 C2217 1.363 . S
C2216 C2221 1.379 . S
C2216 N2223 1.356 . S
C2217 C2216 1.363 . S
C2217 C2220 1.363 . S
N2218 C2220 1.356 . S
N2218 H2230 0.984 . S
N2218 H2231 0.985 . S
N2219 C2221 1.356 . S
N2219 H2224 0.984 . S
N2219 H2225 0.985 . S
C2220 C2214 1.379 . S
C2220 C2217 1.363 . S
C2220 N2218 1.356 . S
C2221 C2215 1.363 . S
C2221 C2216 1.379 . S
C2221 N2219 1.356 . S
N2222 C2214 1.356 . S
N2222 H2228 0.984 . S
N2222 H2229 0.984 . S
N2223 C2216 1.356 . S
N2223 H2226 0.984 . S
N2223 H2227 0.985 . S
H2224 N2219 0.984 . S
H2225 N2219 0.985 . S
H2226 N2223 0.984 . S
H2227 N2223 0.985 . S
H2228 N2222 0.984 . S
H2229 N2222 0.984 . S
H2230 N2218 0.984 . S
H2231 N2218 0.985 . S
C2232 C2233 1.363 . S
C2232 C2238 1.379 . S
C2232 N2240 1.356 . S
C2233 C2232 1.363 . S
C2233 C2239 1.363 . S
C2234 C2235 1.363 . S
C2234 C2239 1.379 . S
C2234 N2241 1.356 . S
C2235 C2234 1.363 . S
C2235 C2238 1.363 . S
N2236 C2238 1.356 . S
N2236 H2248 0.984 . S
N2236 H2249 0.985 . S
N2237 C2239 1.356 . S
N2237 H2242 0.984 . S
N2237 H2243 0.985 . S
C2238 C2232 1.379 . S
C2238 C2235 1.363 . S
C2238 N2236 1.356 . S
C2239 C2233 1.363 . S
C2239 C2234 1.379 . S
C2239 N2237 1.356 . S
N2240 C2232 1.356 . S
N2240 H2246 0.984 . S
N2240 H2247 0.984 . S
N2241 C2234 1.356 . S
N2241 H2244 0.984 . S
N2241 H2245 0.985 . S
H2242 N2237 0.984 . S
H2243 N2237 0.985 . S
H2244 N2241 0.984 . S
H2245 N2241 0.985 . S
H2246 N2240 0.984 . S
H2247 N2240 0.984 . S
H2248 N2236 0.984 . S
H2249 N2236 0.985 . S
C2250 C2251 1.363 . S
C2250 C2256 1.379 . S
C2250 N2258 1.356 . S
C2251 C2250 1.363 . S
C2251 C2257 1.363 . S
C2252 C2253 1.363 . S
C2252 C2257 1.379 . S
C2252 N2259 1.356 . S
C2253 C2252 1.363 . S
C2253 C2256 1.363 . S
N2254 C2256 1.356 . S
N2254 H2266 0.984 . S
N2254 H2267 0.985 . S
N2255 C2257 1.356 . S
N2255 H2260 0.984 . S
N2255 H2261 0.985 . S
C2256 C2250 1.379 . S
C2256 C2253 1.363 . S
C2256 N2254 1.356 . S
C2257 C2251 1.363 . S
C2257 C2252 1.379 . S
C2257 N2255 1.356 . S
N2258 C2250 1.356 . S
N2258 H2264 0.984 . S
N2258 H2265 0.984 . S
N2259 C2252 1.356 . S
N2259 H2262 0.984 . S
N2259 H2263 0.985 . S
H2260 N2255 0.984 . S
H2261 N2255 0.985 . S
H2262 N2259 0.984 . S
H2263 N2259 0.985 . S
H2264 N2258 0.984 . S
H2265 N2258 0.984 . S
H2266 N2254 0.984 . S
H2267 N2254 0.985 . S
C2268 C2269 1.363 . S
C2268 C2274 1.379 . S
C2268 N2276 1.356 . S
C2269 C2268 1.363 . S
C2269 C2275 1.363 . S
C2270 C2271 1.363 . S
C2270 C2275 1.379 . S
C2270 N2277 1.356 . S
C2271 C2270 1.363 . S
C2271 C2274 1.363 . S
N2272 C2274 1.356 . S
N2272 H2284 0.984 . S
N2272 H2285 0.985 . S
N2273 C2275 1.356 . S
N2273 H2278 0.984 . S
N2273 H2279 0.985 . S
C2274 C2268 1.379 . S
C2274 C2271 1.363 . S
C2274 N2272 1.356 . S
C2275 C2269 1.363 . S
C2275 C2270 1.379 . S
C2275 N2273 1.356 . S
N2276 C2268 1.356 . S
N2276 H2282 0.984 . S
N2276 H2283 0.984 . S
N2277 C2270 1.356 . S
N2277 H2280 0.984 . S
N2277 H2281 0.985 . S
H2278 N2273 0.984 . S
H2279 N2273 0.985 . S
H2280 N2277 0.984 . S
H2281 N2277 0.985 . S
H2282 N2276 0.984 . S
H2283 N2276 0.984 . S
H2284 N2272 0.984 . S
H2285 N2272 0.985 . S
C2286 C2287 1.363 . S
C2286 C2292 1.379 . S
C2286 N2294 1.356 1_556 S
C2287 C2286 1.363 . S
C2287 C2293 1.363 . S
C2288 C2289 1.363 . S
C2288 C2293 1.379 . S
C2288 N2295 1.356 . S
C2289 C2288 1.363 . S
C2289 C2292 1.363 . S
N2290 C2292 1.356 . S
N2290 H2302 0.984 1_556 S
N2290 H2303 0.985 . S
N2291 C2293 1.356 . S
N2291 H2296 0.984 . S
N2291 H2297 0.985 . S
C2292 C2286 1.379 . S
C2292 C2289 1.363 . S
C2292 N2290 1.356 . S
C2293 C2287 1.363 . S
C2293 C2288 1.379 . S
C2293 N2291 1.356 . S
N2294 C2286 1.356 1_554 S
N2294 H2300 0.984 . S
N2294 H2301 0.984 . S
N2295 C2288 1.356 . S
N2295 H2298 0.984 . S
N2295 H2299 0.985 . S
H2296 N2291 0.984 . S
H2297 N2291 0.985 . S
H2298 N2295 0.984 . S
H2299 N2295 0.985 . S
H2300 N2294 0.984 . S
H2301 N2294 0.984 . S
H2302 N2290 0.984 1_554 S
H2303 N2290 0.985 . S
C2304 C2305 1.363 . S
C2304 C2310 1.379 . S
C2304 N2312 1.356 . S
C2305 C2304 1.363 . S
C2305 C2311 1.363 . S
C2306 C2307 1.363 . S
C2306 C2311 1.379 . S
C2306 N2313 1.356 . S
C2307 C2306 1.363 . S
C2307 C2310 1.363 . S
N2308 C2310 1.356 . S
N2308 H2320 0.984 . S
N2308 H2321 0.985 . S
N2309 C2311 1.356 . S
N2309 H2314 0.984 . S
N2309 H2315 0.985 . S
C2310 C2304 1.379 . S
C2310 C2307 1.363 . S
C2310 N2308 1.356 . S
C2311 C2305 1.363 . S
C2311 C2306 1.379 . S
C2311 N2309 1.356 . S
N2312 C2304 1.356 . S
N2312 H2318 0.984 . S
N2312 H2319 0.984 . S
N2313 C2306 1.356 . S
N2313 H2316 0.984 . S
N2313 H2317 0.985 . S
H2314 N2309 0.984 . S
H2315 N2309 0.985 . S
H2316 N2313 0.984 . S
H2317 N2313 0.985 . S
H2318 N2312 0.984 . S
H2319 N2312 0.984 . S
H2320 N2308 0.984 . S
H2321 N2308 0.985 . S
C2322 C2323 1.363 1_556 S
C2322 C2328 1.379 . S
C2322 N2330 1.356 . S
C2323 C2322 1.363 1_554 S
C2323 C2329 1.363 . S
C2324 C2325 1.363 1_554 S
C2324 C2329 1.379 . S
C2324 N2331 1.356 . S
C2325 C2324 1.363 1_556 S
C2325 C2328 1.363 . S
N2326 C2328 1.356 . S
N2326 H2338 0.984 . S
N2326 H2339 0.985 . S
N2327 C2329 1.356 . S
N2327 H2332 0.984 . S
N2327 H2333 0.985 . S
C2328 C2322 1.379 . S
C2328 C2325 1.363 . S
C2328 N2326 1.356 . S
C2329 C2323 1.363 . S
C2329 C2324 1.379 . S
C2329 N2327 1.356 . S
N2330 C2322 1.356 . S
N2330 H2336 0.984 . S
N2330 H2337 0.984 1_556 S
N2331 C2324 1.356 . S
N2331 H2334 0.984 . S
N2331 H2335 0.985 . S
H2332 N2327 0.984 . S
H2333 N2327 0.985 . S
H2334 N2331 0.984 . S
H2335 N2331 0.985 . S
H2336 N2330 0.984 . S
H2337 N2330 0.984 1_554 S
H2338 N2326 0.984 . S
H2339 N2326 0.985 . S
C2340 C2341 1.363 . S
C2340 C2346 1.379 . S
C2340 N2348 1.356 1_556 S
C2341 C2340 1.363 . S
C2341 C2347 1.363 . S
C2342 C2343 1.363 . S
C2342 C2347 1.379 . S
C2342 N2349 1.356 . S
C2343 C2342 1.363 . S
C2343 C2346 1.363 . S
N2344 C2346 1.356 . S
N2344 H2356 0.984 . S
N2344 H2357 0.985 . S
N2345 C2347 1.356 . S
N2345 H2350 0.984 . S
N2345 H2351 0.985 . S
C2346 C2340 1.379 . S
C2346 C2343 1.363 . S
C2346 N2344 1.356 . S
C2347 C2341 1.363 . S
C2347 C2342 1.379 . S
C2347 N2345 1.356 . S
N2348 C2340 1.356 1_554 S
N2348 H2354 0.984 . S
N2348 H2355 0.984 . S
N2349 C2342 1.356 . S
N2349 H2352 0.984 . S
N2349 H2353 0.985 . S
H2350 N2345 0.984 . S
H2351 N2345 0.985 . S
H2352 N2349 0.984 . S
H2353 N2349 0.985 . S
H2354 N2348 0.984 . S
H2355 N2348 0.984 . S
H2356 N2344 0.984 . S
H2357 N2344 0.985 . S
C2358 C2359 1.363 . S
C2358 C2364 1.379 . S
C2358 N2366 1.356 . S
C2359 C2358 1.363 . S
C2359 C2365 1.363 . S
C2360 C2361 1.363 . S
C2360 C2365 1.379 . S
C2360 N2367 1.356 . S
C2361 C2360 1.363 . S
C2361 C2364 1.363 . S
N2362 C2364 1.356 . S
N2362 H2374 0.984 . S
N2362 H2375 0.985 . S
N2363 C2365 1.356 . S
N2363 H2368 0.984 . S
N2363 H2369 0.985 . S
C2364 C2358 1.379 . S
C2364 C2361 1.363 . S
C2364 N2362 1.356 . S
C2365 C2359 1.363 . S
C2365 C2360 1.379 . S
C2365 N2363 1.356 . S
N2366 C2358 1.356 . S
N2366 H2372 0.984 . S
N2366 H2373 0.984 . S
N2367 C2360 1.356 . S
N2367 H2370 0.984 . S
N2367 H2371 0.985 . S
H2368 N2363 0.984 . S
H2369 N2363 0.985 . S
H2370 N2367 0.984 . S
H2371 N2367 0.985 . S
H2372 N2366 0.984 . S
H2373 N2366 0.984 . S
H2374 N2362 0.984 . S
H2375 N2362 0.985 . S
C2376 C2377 1.366 . S
C2376 C2382 1.379 . S
C2376 N2384 1.356 1_556 S
C2377 C2376 1.366 . S
C2377 C2383 1.377 . S
C2378 C2379 1.363 . S
C2378 C2383 1.379 . S
C2378 N2385 1.356 . S
C2379 C2378 1.363 . S
C2379 C2382 1.363 . S
N2380 C2382 1.356 . S
N2380 H2392 0.984 . S
N2380 H2393 0.985 . S
N2381 C2383 1.356 . S
N2381 H2386 0.984 1_556 S
N2381 H2387 0.985 . S
C2382 C2376 1.379 . S
C2382 C2379 1.363 . S
C2382 N2380 1.356 . S
C2383 C2377 1.377 . S
C2383 C2378 1.379 . S
C2383 N2381 1.356 . S
N2384 C2376 1.356 1_554 S
N2384 H2390 0.992 . S
N2384 H2391 0.984 . S
N2385 C2378 1.356 . S
N2385 H2388 0.984 . S
N2385 H2389 0.985 . S
H2386 N2381 0.984 1_554 S
H2387 N2381 0.985 . S
H2388 N2385 0.984 . S
H2389 N2385 0.985 . S
H2390 N2384 0.992 . S
H2391 N2384 0.984 . S
H2392 N2380 0.984 . S
H2393 N2380 0.985 . S
C2394 C2395 1.363 . S
C2394 C2400 1.379 . S
C2394 N2402 1.356 . S
C2395 C2394 1.363 . S
C2395 C2401 1.363 . S
C2396 C2397 1.363 . S
C2396 C2401 1.379 . S
C2396 N2403 1.356 . S
C2397 C2396 1.363 . S
C2397 C2400 1.363 . S
N2398 C2400 1.356 . S
N2398 H2410 0.984 . S
N2398 H2411 0.985 . S
N2399 C2401 1.356 . S
N2399 H2404 0.984 . S
N2399 H2405 0.985 . S
C2400 C2394 1.379 . S
C2400 C2397 1.363 . S
C2400 N2398 1.356 . S
C2401 C2395 1.363 . S
C2401 C2396 1.379 . S
C2401 N2399 1.356 . S
N2402 C2394 1.356 . S
N2402 H2408 0.984 . S
N2402 H2409 0.984 . S
N2403 C2396 1.356 . S
N2403 H2406 0.984 . S
N2403 H2407 0.985 . S
H2404 N2399 0.984 . S
H2405 N2399 0.985 . S
H2406 N2403 0.984 . S
H2407 N2403 0.985 . S
H2408 N2402 0.984 . S
H2409 N2402 0.984 . S
H2410 N2398 0.984 . S
H2411 N2398 0.985 . S
C2412 C2413 1.363 . S
C2412 C2418 1.379 . S
C2412 N2420 1.356 . S
C2413 C2412 1.363 . S
C2413 C2419 1.363 . S
C2414 C2415 1.363 . S
C2414 C2419 1.379 . S
C2414 N2421 1.356 . S
C2415 C2414 1.363 . S
C2415 C2418 1.363 . S
N2416 C2418 1.356 . S
N2416 H2428 0.984 . S
N2416 H2429 0.985 . S
N2417 C2419 1.356 . S
N2417 H2422 0.984 . S
N2417 H2423 0.985 . S
C2418 C2412 1.379 . S
C2418 C2415 1.363 . S
C2418 N2416 1.356 . S
C2419 C2413 1.363 . S
C2419 C2414 1.379 . S
C2419 N2417 1.356 . S
N2420 C2412 1.356 . S
N2420 H2426 0.984 . S
N2420 H2427 0.984 . S
N2421 C2414 1.356 . S
N2421 H2424 0.984 . S
N2421 H2425 0.985 . S
H2422 N2417 0.984 . S
H2423 N2417 0.985 . S
H2424 N2421 0.984 . S
H2425 N2421 0.985 . S
H2426 N2420 0.984 . S
H2427 N2420 0.984 . S
H2428 N2416 0.984 . S
H2429 N2416 0.985 . S
C2430 C2431 1.363 . S
C2430 C2436 1.379 . S
C2430 N2438 1.356 . S
C2431 C2430 1.363 . S
C2431 C2437 1.363 . S
C2432 C2433 1.363 . S
C2432 C2437 1.379 . S
C2432 N2439 1.356 . S
C2433 C2432 1.363 . S
C2433 C2436 1.363 . S
N2434 C2436 1.356 . S
N2434 H2446 0.984 . S
N2434 H2447 0.985 . S
N2435 C2437 1.356 . S
N2435 H2440 0.984 . S
N2435 H2441 0.985 . S
C2436 C2430 1.379 . S
C2436 C2433 1.363 . S
C2436 N2434 1.356 . S
C2437 C2431 1.363 . S
C2437 C2432 1.379 . S
C2437 N2435 1.356 . S
N2438 C2430 1.356 . S
N2438 H2444 0.984 . S
N2438 H2445 0.984 . S
N2439 C2432 1.356 . S
N2439 H2442 0.984 . S
N2439 H2443 0.985 . S
H2440 N2435 0.984 . S
H2441 N2435 0.985 . S
H2442 N2439 0.984 . S
H2443 N2439 0.985 . S
H2444 N2438 0.984 . S
H2445 N2438 0.984 . S
H2446 N2434 0.984 . S
H2447 N2434 0.985 . S
C2448 C2449 1.363 . S
C2448 C2454 1.379 . S
C2448 N2456 1.356 . S
C2449 C2448 1.363 . S
C2449 C2455 1.363 . S
C2450 C2451 1.363 . S
C2450 C2455 1.379 . S
C2450 N2457 1.356 . S
C2451 C2450 1.363 . S
C2451 C2454 1.363 . S
N2452 C2454 1.356 . S
N2452 H2464 0.984 . S
N2452 H2465 0.985 . S
N2453 C2455 1.356 . S
N2453 H2458 0.984 . S
N2453 H2459 0.985 . S
C2454 C2448 1.379 . S
C2454 C2451 1.363 . S
C2454 N2452 1.356 . S
C2455 C2449 1.363 . S
C2455 C2450 1.379 . S
C2455 N2453 1.356 . S
N2456 C2448 1.356 . S
N2456 H2462 0.984 . S
N2456 H2463 0.984 . S
N2457 C2450 1.356 . S
N2457 H2460 0.984 . S
N2457 H2461 0.985 . S
H2458 N2453 0.984 . S
H2459 N2453 0.985 . S
H2460 N2457 0.984 . S
H2461 N2457 0.985 . S
H2462 N2456 0.984 . S
H2463 N2456 0.984 . S
H2464 N2452 0.984 . S
H2465 N2452 0.985 . S
C2466 C2467 1.363 . S
C2466 C2472 1.379 . S
C2466 N2474 1.356 . S
C2467 C2466 1.363 . S
C2467 C2473 1.363 . S
C2468 C2469 1.363 . S
C2468 C2473 1.379 . S
C2468 N2475 1.356 . S
C2469 C2468 1.363 . S
C2469 C2472 1.363 . S
N2470 C2472 1.356 . S
N2470 H2482 0.984 . S
N2470 H2483 0.985 . S
N2471 C2473 1.356 . S
N2471 H2476 0.984 1_545 S
N2471 H2477 0.985 . S
C2472 C2466 1.379 . S
C2472 C2469 1.363 . S
C2472 N2470 1.356 . S
C2473 C2467 1.363 . S
C2473 C2468 1.379 . S
C2473 N2471 1.356 . S
N2474 C2466 1.356 . S
N2474 H2480 0.984 . S
N2474 H2481 0.984 . S
N2475 C2468 1.356 . S
N2475 H2478 0.984 . S
N2475 H2479 0.985 . S
H2476 N2471 0.984 1_565 S
H2477 N2471 0.985 . S
H2478 N2475 0.984 . S
H2479 N2475 0.985 . S
H2480 N2474 0.984 . S
H2481 N2474 0.984 . S
H2482 N2470 0.984 . S
H2483 N2470 0.985 . S
C2484 C2485 1.363 . S
C2484 C2490 1.379 . S
C2484 N2492 1.356 . S
C2485 C2484 1.363 . S
C2485 C2491 1.363 . S
C2486 C2487 1.363 . S
C2486 C2491 1.379 . S
C2486 N2493 1.356 . S
C2487 C2486 1.363 . S
C2487 C2490 1.363 . S
N2488 C2490 1.356 . S
N2488 H2500 0.984 . S
N2488 H2501 0.985 . S
N2489 C2491 1.356 1_455 S
N2489 H2494 0.984 . S
N2489 H2495 0.985 . S
C2490 C2484 1.379 . S
C2490 C2487 1.363 . S
C2490 N2488 1.356 . S
C2491 C2485 1.363 . S
C2491 C2486 1.379 . S
C2491 N2489 1.356 1_655 S
N2492 C2484 1.356 . S
N2492 H2498 0.984 . S
N2492 H2499 0.984 . S
N2493 C2486 1.356 . S
N2493 H2496 0.984 . S
N2493 H2497 0.985 . S
H2494 N2489 0.984 . S
H2495 N2489 0.985 . S
H2496 N2493 0.984 . S
H2497 N2493 0.985 . S
H2498 N2492 0.984 . S
H2499 N2492 0.984 . S
H2500 N2488 0.984 . S
H2501 N2488 0.985 . S
C2502 C2503 1.363 . S
C2502 C2508 1.379 . S
C2502 N2510 1.355 1_455 S
C2503 C2502 1.363 . S
C2503 C2509 1.363 . S
C2504 C2505 1.363 . S
C2504 C2509 1.379 . S
C2504 N2511 1.356 . S
C2505 C2504 1.363 . S
C2505 C2508 1.363 . S
N2506 C2508 1.356 1_655 S
N2506 H2518 0.984 . S
N2506 H2519 0.985 . S
N2507 C2509 1.356 . S
N2507 H2512 0.984 . S
N2507 H2513 0.985 . S
C2508 C2502 1.379 . S
C2508 C2505 1.363 . S
C2508 N2506 1.356 1_455 S
C2509 C2503 1.363 . S
C2509 C2504 1.379 . S
C2509 N2507 1.356 . S
N2510 C2502 1.355 1_655 S
N2510 H2516 0.994 . S
N2510 H2517 0.976 1_655 S
N2511 C2504 1.356 . S
N2511 H2514 0.984 . S
N2511 H2515 0.985 . S
H2512 N2507 0.984 . S
H2513 N2507 0.985 . S
H2514 N2511 0.984 . S
H2515 N2511 0.985 . S
H2516 N2510 0.994 . S
H2517 N2510 0.976 1_455 S
H2518 N2506 0.984 . S
H2519 N2506 0.985 . S
C2520 C2521 1.363 . S
C2520 C2526 1.379 . S
C2520 N2528 1.356 . S
C2521 C2520 1.363 . S
C2521 C2527 1.363 . S
C2522 C2523 1.363 . S
C2522 C2527 1.379 . S
C2522 N2529 1.356 . S
C2523 C2522 1.363 . S
C2523 C2526 1.363 . S
N2524 C2526 1.356 . S
N2524 H2536 0.984 . S
N2524 H2537 0.985 . S
N2525 C2527 1.356 . S
N2525 H2530 0.984 . S
N2525 H2531 0.985 . S
C2526 C2520 1.379 . S
C2526 C2523 1.363 . S
C2526 N2524 1.356 . S
C2527 C2521 1.363 . S
C2527 C2522 1.379 . S
C2527 N2525 1.356 . S
N2528 C2520 1.356 . S
N2528 H2534 0.984 . S
N2528 H2535 0.984 . S
N2529 C2522 1.356 . S
N2529 H2532 0.984 . S
N2529 H2533 0.985 . S
H2530 N2525 0.984 . S
H2531 N2525 0.985 . S
H2532 N2529 0.984 . S
H2533 N2529 0.985 . S
H2534 N2528 0.984 . S
H2535 N2528 0.984 . S
H2536 N2524 0.984 . S
H2537 N2524 0.985 . S
C2538 C2539 1.363 . S
C2538 C2544 1.379 . S
C2538 N2546 1.332 1_565 S
C2539 C2538 1.363 . S
C2539 C2545 1.363 . S
C2540 C2541 1.363 . S
C2540 C2545 1.379 . S
C2540 N2547 1.356 . S
C2541 C2540 1.363 . S
C2541 C2544 1.363 . S
N2542 C2544 1.356 1_545 S
N2542 H2554 0.984 . S
N2542 H2555 0.985 . S
N2543 C2545 1.356 . S
N2543 H2548 0.984 . S
N2543 H2549 0.985 . S
C2544 C2538 1.379 . S
C2544 C2541 1.363 . S
C2544 N2542 1.356 1_565 S
C2545 C2539 1.363 . S
C2545 C2540 1.379 . S
C2545 N2543 1.356 . S
N2546 C2538 1.332 1_545 S
N2546 H2552 1.011 . S
N2546 H2553 0.983 1_545 S
N2547 C2540 1.356 . S
N2547 H2550 0.984 . S
N2547 H2551 0.985 . S
H2548 N2543 0.984 . S
H2549 N2543 0.985 . S
H2550 N2547 0.984 . S
H2551 N2547 0.985 . S
H2552 N2546 1.011 . S
H2553 N2546 0.983 1_565 S
H2554 N2542 0.984 . S
H2555 N2542 0.985 . S
C2556 C2557 1.363 1_545 S
C2556 C2562 1.379 . S
C2556 N2564 1.356 . S
C2557 C2556 1.363 1_565 S
C2557 C2563 1.363 . S
C2558 C2559 1.363 . S
C2558 C2563 1.379 . S
C2558 N2565 1.356 . S
C2559 C2558 1.363 . S
C2559 C2562 1.363 1_565 S
N2560 C2562 1.356 . S
N2560 H2572 0.984 . S
N2560 H2573 0.985 . S
N2561 C2563 1.356 . S
N2561 H2566 0.984 . S
N2561 H2567 0.985 . S
C2562 C2556 1.379 . S
C2562 C2559 1.363 1_545 S
C2562 N2560 1.356 . S
C2563 C2557 1.363 . S
C2563 C2558 1.379 . S
C2563 N2561 1.356 . S
N2564 C2556 1.356 . S
N2564 H2570 0.984 . S
N2564 H2571 0.984 . S
N2565 C2558 1.356 . S
N2565 H2568 0.984 . S
N2565 H2569 0.985 . S
H2566 N2561 0.984 . S
H2567 N2561 0.985 . S
H2568 N2565 0.984 . S
H2569 N2565 0.985 . S
H2570 N2564 0.984 . S
H2571 N2564 0.984 . S
H2572 N2560 0.984 . S
H2573 N2560 0.985 . S
C2574 C2575 1.363 . S
C2574 C2580 1.379 1_455 S
C2574 N2582 1.356 . S
C2575 C2574 1.363 . S
C2575 C2581 1.363 . S
C2576 C2577 1.363 . S
C2576 C2581 1.379 . S
C2576 N2583 1.356 . S
C2577 C2576 1.363 . S
C2577 C2580 1.363 1_455 S
N2578 C2580 1.356 . S
N2578 H2590 0.984 . S
N2578 H2591 0.985 . S
N2579 C2581 1.356 . S
N2579 H2584 0.984 . S
N2579 H2585 0.985 . S
C2580 C2574 1.379 1_655 S
C2580 C2577 1.363 1_655 S
C2580 N2578 1.356 . S
C2581 C2575 1.363 . S
C2581 C2576 1.379 . S
C2581 N2579 1.356 . S
N2582 C2574 1.356 . S
N2582 H2588 0.984 1_455 S
N2582 H2589 0.984 . S
N2583 C2576 1.356 . S
N2583 H2586 0.984 . S
N2583 H2587 0.985 . S
H2584 N2579 0.984 . S
H2585 N2579 0.985 . S
H2586 N2583 0.984 . S
H2587 N2583 0.985 . S
H2588 N2582 0.984 1_655 S
H2589 N2582 0.984 . S
H2590 N2578 0.984 . S
H2591 N2578 0.985 . S
C2592 C2593 1.363 . S
C2592 C2598 1.379 . S
C2592 N2600 1.356 . S
C2593 C2592 1.363 . S
C2593 C2599 1.363 . S
C2594 C2595 1.363 . S
C2594 C2599 1.379 . S
C2594 N2601 1.356 . S
C2595 C2594 1.363 . S
C2595 C2598 1.363 . S
N2596 C2598 1.356 . S
N2596 H2608 0.984 . S
N2596 H2609 0.985 . S
N2597 C2599 1.356 . S
N2597 H2602 0.984 . S
N2597 H2603 0.985 . S
C2598 C2592 1.379 . S
C2598 C2595 1.363 . S
C2598 N2596 1.356 . S
C2599 C2593 1.363 . S
C2599 C2594 1.379 . S
C2599 N2597 1.356 . S
N2600 C2592 1.356 . S
N2600 H2606 0.984 . S
N2600 H2607 0.984 . S
N2601 C2594 1.356 . S
N2601 H2604 0.984 . S
N2601 H2605 0.985 . S
H2602 N2597 0.984 . S
H2603 N2597 0.985 . S
H2604 N2601 0.984 . S
H2605 N2601 0.985 . S
H2606 N2600 0.984 . S
H2607 N2600 0.984 . S
H2608 N2596 0.984 . S
H2609 N2596 0.985 . S
C2610 C2611 1.363 . S
C2610 C2616 1.379 . S
C2610 N2618 1.356 . S
C2611 C2610 1.363 . S
C2611 C2617 1.363 . S
C2612 C2613 1.363 . S
C2612 C2617 1.379 . S
C2612 N2619 1.356 . S
C2613 C2612 1.363 . S
C2613 C2616 1.363 . S
N2614 C2616 1.356 . S
N2614 H2626 0.984 . S
N2614 H2627 0.985 . S
N2615 C2617 1.356 . S
N2615 H2620 0.984 . S
N2615 H2621 0.985 . S
C2616 C2610 1.379 . S
C2616 C2613 1.363 . S
C2616 N2614 1.356 . S
C2617 C2611 1.363 . S
C2617 C2612 1.379 . S
C2617 N2615 1.356 . S
N2618 C2610 1.356 . S
N2618 H2624 0.984 . S
N2618 H2625 0.984 . S
N2619 C2612 1.356 . S
N2619 H2622 0.984 . S
N2619 H2623 0.985 . S
H2620 N2615 0.984 . S
H2621 N2615 0.985 . S
H2622 N2619 0.984 . S
H2623 N2619 0.985 . S
H2624 N2618 0.984 . S
H2625 N2618 0.984 . S
H2626 N2614 0.984 . S
H2627 N2614 0.985 . S
C2628 C2629 1.363 . S
C2628 C2634 1.379 . S
C2628 N2636 1.356 . S
C2629 C2628 1.363 . S
C2629 C2635 1.363 . S
C2630 C2631 1.363 . S
C2630 C2635 1.379 . S
C2630 N2637 1.356 . S
C2631 C2630 1.363 . S
C2631 C2634 1.363 . S
N2632 C2634 1.356 . S
N2632 H2644 0.984 . S
N2632 H2645 0.985 . S
N2633 C2635 1.356 . S
N2633 H2638 0.984 . S
N2633 H2639 0.985 . S
C2634 C2628 1.379 . S
C2634 C2631 1.363 . S
C2634 N2632 1.356 . S
C2635 C2629 1.363 . S
C2635 C2630 1.379 . S
C2635 N2633 1.356 . S
N2636 C2628 1.356 . S
N2636 H2642 0.984 . S
N2636 H2643 0.984 . S
N2637 C2630 1.356 . S
N2637 H2640 0.984 . S
N2637 H2641 0.985 . S
H2638 N2633 0.984 . S
H2639 N2633 0.985 . S
H2640 N2637 0.984 . S
H2641 N2637 0.985 . S
H2642 N2636 0.984 . S
H2643 N2636 0.984 . S
H2644 N2632 0.984 . S
H2645 N2632 0.985 . S
C2646 C2647 1.363 . S
C2646 C2652 1.379 . S
C2646 N2654 1.356 . S
C2647 C2646 1.363 . S
C2647 C2653 1.363 . S
C2648 C2649 1.363 . S
C2648 C2653 1.379 . S
C2648 N2655 1.356 . S
C2649 C2648 1.363 . S
C2649 C2652 1.363 . S
N2650 C2652 1.356 . S
N2650 H2662 0.984 . S
N2650 H2663 0.985 . S
N2651 C2653 1.356 . S
N2651 H2656 0.984 . S
N2651 H2657 0.985 . S
C2652 C2646 1.379 . S
C2652 C2649 1.363 . S
C2652 N2650 1.356 . S
C2653 C2647 1.363 . S
C2653 C2648 1.379 . S
C2653 N2651 1.356 . S
N2654 C2646 1.356 . S
N2654 H2660 0.984 . S
N2654 H2661 0.984 . S
N2655 C2648 1.356 . S
N2655 H2658 0.984 . S
N2655 H2659 0.985 . S
H2656 N2651 0.984 . S
H2657 N2651 0.985 . S
H2658 N2655 0.984 . S
H2659 N2655 0.985 . S
H2660 N2654 0.984 . S
H2661 N2654 0.984 . S
H2662 N2650 0.984 . S
H2663 N2650 0.985 . S
C2664 C2665 1.363 . S
C2664 C2670 1.379 . S
C2664 N2672 1.356 . S
C2665 C2664 1.363 . S
C2665 C2671 1.363 . S
C2666 C2667 1.364 1_565 S
C2666 C2671 1.380 1_565 S
C2666 N2673 1.354 . S
C2667 C2666 1.364 1_545 S
C2667 C2670 1.363 . S
N2668 C2670 1.356 . S
N2668 H2680 0.984 . S
N2668 H2681 0.985 . S
N2669 C2671 1.356 1_565 S
N2669 H2674 0.984 . S
N2669 H2675 0.985 . S
C2670 C2664 1.379 . S
C2670 C2667 1.363 . S
C2670 N2668 1.356 . S
C2671 C2665 1.363 . S
C2671 C2666 1.380 1_545 S
C2671 N2669 1.356 1_545 S
N2672 C2664 1.356 . S
N2672 H2678 0.984 . S
N2672 H2679 0.984 . S
N2673 C2666 1.354 . S
N2673 H2676 0.984 . S
N2673 H2677 0.985 . S
H2674 N2669 0.984 . S
H2675 N2669 0.985 . S
H2676 N2673 0.984 . S
H2677 N2673 0.985 . S
H2678 N2672 0.984 . S
H2679 N2672 0.984 . S
H2680 N2668 0.984 . S
H2681 N2668 0.985 . S
C2682 C2683 1.363 . S
C2682 C2688 1.382 1_655 S
C2682 N2690 1.356 1_655 S
C2683 C2682 1.363 . S
C2683 C2689 1.363 . S
C2684 C2685 1.363 . S
C2684 C2689 1.379 . S
C2684 N2691 1.356 . S
C2685 C2684 1.363 . S
C2685 C2688 1.356 1_655 S
N2686 C2688 1.358 . S
N2686 H2698 0.984 . S
N2686 H2699 0.985 . S
N2687 C2689 1.356 . S
N2687 H2692 0.984 . S
N2687 H2693 0.985 . S
C2688 C2682 1.382 1_455 S
C2688 C2685 1.356 1_455 S
C2688 N2686 1.358 . S
C2689 C2683 1.363 . S
C2689 C2684 1.379 . S
C2689 N2687 1.356 . S
N2690 C2682 1.356 1_455 S
N2690 H2696 0.984 . S
N2690 H2697 0.984 . S
N2691 C2684 1.356 . S
N2691 H2694 0.984 . S
N2691 H2695 0.985 . S
H2692 N2687 0.984 . S
H2693 N2687 0.985 . S
H2694 N2691 0.984 . S
H2695 N2691 0.985 . S
H2696 N2690 0.984 . S
H2697 N2690 0.984 . S
H2698 N2686 0.984 . S
H2699 N2686 0.985 . S
C2700 C2701 1.363 . S
C2700 C2706 1.379 . S
C2700 N2708 1.356 . S
C2701 C2700 1.363 . S
C2701 C2707 1.363 . S
C2702 C2703 1.363 . S
C2702 C2707 1.379 . S
C2702 N2709 1.356 . S
C2703 C2702 1.363 . S
C2703 C2706 1.363 . S
N2704 C2706 1.356 . S
N2704 H2716 0.984 . S
N2704 H2717 0.985 . S
N2705 C2707 1.356 . S
N2705 H2710 0.984 . S
N2705 H2711 0.985 . S
C2706 C2700 1.379 . S
C2706 C2703 1.363 . S
C2706 N2704 1.356 . S
C2707 C2701 1.363 . S
C2707 C2702 1.379 . S
C2707 N2705 1.356 . S
N2708 C2700 1.356 . S
N2708 H2714 0.984 . S
N2708 H2715 0.984 . S
N2709 C2702 1.356 . S
N2709 H2712 0.984 . S
N2709 H2713 0.985 . S
H2710 N2705 0.984 . S
H2711 N2705 0.985 . S
H2712 N2709 0.984 . S
H2713 N2709 0.985 . S
H2714 N2708 0.984 . S
H2715 N2708 0.984 . S
H2716 N2704 0.984 . S
H2717 N2704 0.985 . S
C2718 C2719 1.363 . S
C2718 C2724 1.379 . S
C2718 N2726 1.356 . S
C2719 C2718 1.363 . S
C2719 C2725 1.363 . S
C2720 C2721 1.363 . S
C2720 C2725 1.379 . S
C2720 N2727 1.356 . S
C2721 C2720 1.363 . S
C2721 C2724 1.363 . S
N2722 C2724 1.356 . S
N2722 H2734 0.984 . S
N2722 H2735 0.985 . S
N2723 C2725 1.356 . S
N2723 H2728 0.984 . S
N2723 H2729 0.985 . S
C2724 C2718 1.379 . S
C2724 C2721 1.363 . S
C2724 N2722 1.356 . S
C2725 C2719 1.363 . S
C2725 C2720 1.379 . S
C2725 N2723 1.356 . S
N2726 C2718 1.356 . S
N2726 H2732 0.984 . S
N2726 H2733 0.984 . S
N2727 C2720 1.356 . S
N2727 H2730 0.984 . S
N2727 H2731 0.985 . S
H2728 N2723 0.984 . S
H2729 N2723 0.985 . S
H2730 N2727 0.984 . S
H2731 N2727 0.985 . S
H2732 N2726 0.984 . S
H2733 N2726 0.984 . S
H2734 N2722 0.984 . S
H2735 N2722 0.985 . S
C2736 C2737 1.363 . S
C2736 C2742 1.379 . S
C2736 N2744 1.356 . S
C2737 C2736 1.363 . S
C2737 C2743 1.363 . S
C2738 C2739 1.363 . S
C2738 C2743 1.379 . S
C2738 N2745 1.356 . S
C2739 C2738 1.363 . S
C2739 C2742 1.363 . S
N2740 C2742 1.356 . S
N2740 H2752 0.984 . S
N2740 H2753 0.985 . S
N2741 C2743 1.356 . S
N2741 H2746 0.984 . S
N2741 H2747 0.985 . S
C2742 C2736 1.379 . S
C2742 C2739 1.363 . S
C2742 N2740 1.356 . S
C2743 C2737 1.363 . S
C2743 C2738 1.379 . S
C2743 N2741 1.356 . S
N2744 C2736 1.356 . S
N2744 H2750 0.984 . S
N2744 H2751 0.984 . S
N2745 C2738 1.356 . S
N2745 H2748 0.984 . S
N2745 H2749 0.985 . S
H2746 N2741 0.984 . S
H2747 N2741 0.985 . S
H2748 N2745 0.984 . S
H2749 N2745 0.985 . S
H2750 N2744 0.984 . S
H2751 N2744 0.984 . S
H2752 N2740 0.984 . S
H2753 N2740 0.985 . S
C2754 C2755 1.363 . S
C2754 C2760 1.379 . S
C2754 N2762 1.356 . S
C2755 C2754 1.363 . S
C2755 C2761 1.363 . S
C2756 C2757 1.363 . S
C2756 C2761 1.379 . S
C2756 N2763 1.356 . S
C2757 C2756 1.363 . S
C2757 C2760 1.363 . S
N2758 C2760 1.356 . S
N2758 H2770 0.984 . S
N2758 H2771 0.985 . S
N2759 C2761 1.356 . S
N2759 H2764 0.984 . S
N2759 H2765 0.985 . S
C2760 C2754 1.379 . S
C2760 C2757 1.363 . S
C2760 N2758 1.356 . S
C2761 C2755 1.363 . S
C2761 C2756 1.379 . S
C2761 N2759 1.356 . S
N2762 C2754 1.356 . S
N2762 H2768 0.984 . S
N2762 H2769 0.984 1_455 S
N2763 C2756 1.356 . S
N2763 H2766 0.984 . S
N2763 H2767 0.985 . S
H2764 N2759 0.984 . S
H2765 N2759 0.985 . S
H2766 N2763 0.984 . S
H2767 N2763 0.985 . S
H2768 N2762 0.984 . S
H2769 N2762 0.984 1_655 S
H2770 N2758 0.984 . S
H2771 N2758 0.985 . S
C2772 C2773 1.363 . S
C2772 C2778 1.379 . S
C2772 N2780 1.356 . S
C2773 C2772 1.363 . S
C2773 C2779 1.363 . S
C2774 C2775 1.363 . S
C2774 C2779 1.379 . S
C2774 N2781 1.356 . S
C2775 C2774 1.363 . S
C2775 C2778 1.363 . S
N2776 C2778 1.356 . S
N2776 H2788 0.984 . S
N2776 H2789 0.985 . S
N2777 C2779 1.356 . S
N2777 H2782 0.984 . S
N2777 H2783 0.985 . S
C2778 C2772 1.379 . S
C2778 C2775 1.363 . S
C2778 N2776 1.356 . S
C2779 C2773 1.363 . S
C2779 C2774 1.379 . S
C2779 N2777 1.356 . S
N2780 C2772 1.356 . S
N2780 H2786 0.984 . S
N2780 H2787 0.984 . S
N2781 C2774 1.356 . S
N2781 H2784 0.984 . S
N2781 H2785 0.985 . S
H2782 N2777 0.984 . S
H2783 N2777 0.985 . S
H2784 N2781 0.984 . S
H2785 N2781 0.985 . S
H2786 N2780 0.984 . S
H2787 N2780 0.984 . S
H2788 N2776 0.984 . S
H2789 N2776 0.985 . S
C2790 C2791 1.363 . S
C2790 C2796 1.379 . S
C2790 N2798 1.356 . S
C2791 C2790 1.363 . S
C2791 C2797 1.363 . S
C2792 C2793 1.363 . S
C2792 C2797 1.379 . S
C2792 N2799 1.356 . S
C2793 C2792 1.363 . S
C2793 C2796 1.363 . S
N2794 C2796 1.356 . S
N2794 H2806 0.984 . S
N2794 H2807 0.985 . S
N2795 C2797 1.356 . S
N2795 H2800 0.984 . S
N2795 H2801 0.985 . S
C2796 C2790 1.379 . S
C2796 C2793 1.363 . S
C2796 N2794 1.356 . S
C2797 C2791 1.363 . S
C2797 C2792 1.379 . S
C2797 N2795 1.356 . S
N2798 C2790 1.356 . S
N2798 H2804 0.984 . S
N2798 H2805 0.984 . S
N2799 C2792 1.356 . S
N2799 H2802 0.984 . S
N2799 H2803 0.985 . S
H2800 N2795 0.984 . S
H2801 N2795 0.985 . S
H2802 N2799 0.984 . S
H2803 N2799 0.985 . S
H2804 N2798 0.984 . S
H2805 N2798 0.984 . S
H2806 N2794 0.984 . S
H2807 N2794 0.985 . S
C2808 C2809 1.363 . S
C2808 C2814 1.379 . S
C2808 N2816 1.356 . S
C2809 C2808 1.363 . S
C2809 C2815 1.363 . S
C2810 C2811 1.363 . S
C2810 C2815 1.379 . S
C2810 N2817 1.356 . S
C2811 C2810 1.363 . S
C2811 C2814 1.363 . S
N2812 C2814 1.356 . S
N2812 H2824 0.984 . S
N2812 H2825 0.985 . S
N2813 C2815 1.356 . S
N2813 H2818 0.984 1_455 S
N2813 H2819 0.985 . S
C2814 C2808 1.379 . S
C2814 C2811 1.363 . S
C2814 N2812 1.356 . S
C2815 C2809 1.363 . S
C2815 C2810 1.379 . S
C2815 N2813 1.356 . S
N2816 C2808 1.356 . S
N2816 H2822 0.984 . S
N2816 H2823 0.984 . S
N2817 C2810 1.356 . S
N2817 H2820 0.984 . S
N2817 H2821 0.985 . S
H2818 N2813 0.984 1_655 S
H2819 N2813 0.985 . S
H2820 N2817 0.984 . S
H2821 N2817 0.985 . S
H2822 N2816 0.984 . S
H2823 N2816 0.984 . S
H2824 N2812 0.984 . S
H2825 N2812 0.985 . S
C2826 C2827 1.363 . S
C2826 C2832 1.379 . S
C2826 N2834 1.356 . S
C2827 C2826 1.363 . S
C2827 C2833 1.363 . S
C2828 C2829 1.363 . S
C2828 C2833 1.379 . S
C2828 N2835 1.356 . S
C2829 C2828 1.363 . S
C2829 C2832 1.363 . S
N2830 C2832 1.356 1_455 S
N2830 H2842 0.984 . S
N2830 H2843 0.985 . S
N2831 C2833 1.356 . S
N2831 H2836 0.984 . S
N2831 H2837 0.985 . S
C2832 C2826 1.379 . S
C2832 C2829 1.363 . S
C2832 N2830 1.356 1_655 S
C2833 C2827 1.363 . S
C2833 C2828 1.379 . S
C2833 N2831 1.356 . S
N2834 C2826 1.356 . S
N2834 H2840 0.984 1_655 S
N2834 H2841 0.984 . S
N2835 C2828 1.356 . S
N2835 H2838 0.984 . S
N2835 H2839 0.985 . S
H2836 N2831 0.984 . S
H2837 N2831 0.985 . S
H2838 N2835 0.984 . S
H2839 N2835 0.985 . S
H2840 N2834 0.984 1_455 S
H2841 N2834 0.984 . S
H2842 N2830 0.984 . S
H2843 N2830 0.985 . S
C2844 C2845 1.363 . S
C2844 C2850 1.379 . S
C2844 N2852 1.356 . S
C2845 C2844 1.363 . S
C2845 C2851 1.363 . S
C2846 C2847 1.363 . S
C2846 C2851 1.379 . S
C2846 N2853 1.356 . S
C2847 C2846 1.363 . S
C2847 C2850 1.363 . S
N2848 C2850 1.356 . S
N2848 H2860 0.984 . S
N2848 H2861 0.985 . S
N2849 C2851 1.356 . S
N2849 H2854 0.984 . S
N2849 H2855 0.985 . S
C2850 C2844 1.379 . S
C2850 C2847 1.363 . S
C2850 N2848 1.356 . S
C2851 C2845 1.363 . S
C2851 C2846 1.379 . S
C2851 N2849 1.356 . S
N2852 C2844 1.356 . S
N2852 H2858 0.984 . S
N2852 H2859 0.984 . S
N2853 C2846 1.356 . S
N2853 H2856 0.984 . S
N2853 H2857 0.985 . S
H2854 N2849 0.984 . S
H2855 N2849 0.985 . S
H2856 N2853 0.984 . S
H2857 N2853 0.985 . S
H2858 N2852 0.984 . S
H2859 N2852 0.984 . S
H2860 N2848 0.984 . S
H2861 N2848 0.985 . S
C2862 C2863 1.363 . S
C2862 C2868 1.379 . S
C2862 N2870 1.356 . S
C2863 C2862 1.363 . S
C2863 C2869 1.363 . S
C2864 C2865 1.363 . S
C2864 C2869 1.379 . S
C2864 N2871 1.356 1_545 S
C2865 C2864 1.363 . S
C2865 C2868 1.363 . S
N2866 C2868 1.356 . S
N2866 H2878 0.984 . S
N2866 H2879 0.985 . S
N2867 C2869 1.356 . S
N2867 H2872 0.984 . S
N2867 H2873 0.985 . S
C2868 C2862 1.379 . S
C2868 C2865 1.363 . S
C2868 N2866 1.356 . S
C2869 C2863 1.363 . S
C2869 C2864 1.379 . S
C2869 N2867 1.356 . S
N2870 C2862 1.356 . S
N2870 H2876 0.984 . S
N2870 H2877 0.984 . S
N2871 C2864 1.356 1_565 S
N2871 H2874 0.984 . S
N2871 H2875 0.985 . S
H2872 N2867 0.984 . S
H2873 N2867 0.985 . S
H2874 N2871 0.984 . S
H2875 N2871 0.985 . S
H2876 N2870 0.984 . S
H2877 N2870 0.984 . S
H2878 N2866 0.984 . S
H2879 N2866 0.985 . S
C1585 C8 1.402 1_655 S
C1587 C981 1.258 . S
C1603 C22 1.630 . S
C1605 C1061 1.579 . S
C1623 C1129 1.425 . S
C1621 C37 1.494 1_545 S
C1639 C36 1.738 . S
C1641 C1209 1.743 . S
C1657 C9 1.542 1_455 S
C1659 C1283 1.523 . S
C1675 C23 1.726 . S
C1677 C1351 1.591 . S
C1693 C50 1.258 1_456 S
C1695 C1277 1.190 . S
C1713 C1357 1.490 . S
C1711 C64 1.462 . S
C1731 C1203 1.380 . S
C1729 C79 1.373 1_566 S
C1747 C78 1.654 . S
C1749 C1135 1.711 1_545 S
C1767 C987 1.472 . S
C1765 C51 1.435 1_655 S
C1783 C65 1.494 . S
C1785 C1055 1.468 . S
C1801 C92 1.592 . S
C1803 C1425 1.395 . S
C1819 C106 1.678 . S
C1821 C1505 1.613 . S
C1839 C1573 1.562 . S
C1837 C121 1.691 . S
C1855 C120 1.903 . S
C1857 C321 1.849 . S
C1873 C93 1.700 . S
C1875 C395 1.628 . S
C1891 C107 1.753 . S
C1893 C463 1.615 . S
C1909 C134 1.285 . S
C1911 C389 1.207 . S
C1927 C148 1.489 . S
C1929 C469 1.513 . S
C1947 C315 1.432 . S
C1945 C163 1.445 . S
C1965 C1579 1.813 . S
C1963 C162 1.781 . S
C1983 C1431 1.522 . S
C1981 C135 1.515 . S
C2001 C1499 1.510 . S
C1999 C149 1.538 . S
C2017 C176 1.524 . S
C2019 C537 1.333 . S
C2035 C190 1.677 . S
C2037 C617 1.614 . S
C2053 C205 1.680 . S
C2055 C685 1.556 . S
C2071 C204 1.962 . S
C2073 C765 1.903 . S
C2091 C839 1.631 . S
C2089 C177 1.708 . S
C2109 C907 1.645 . S
C2107 C191 1.787 . S
C2127 C833 1.269 . S
C2125 C218 1.352 . S
C2145 C913 1.511 . S
C2143 C232 1.492 . S
C2161 C247 1.448 . S
C2163 C759 1.431 . S
C2181 C691 1.759 . S
C2179 C246 1.723 . S
C2197 C219 1.512 . S
C2199 C543 1.525 . S
C2217 C611 1.480 . S
C2215 C233 1.502 . S
C2235 C291 1.875 . S
C2233 C6 1.951 . S
C2251 C20 1.467 . S
C2253 C365 1.461 . S
C2271 C451 1.493 . S
C2269 C35 1.499 . S
C2289 C525 1.278 . S
C2287 C34 1.293 . S
C2307 C587 1.574 . S
C2305 C7 1.604 . S
C2325 C673 1.537 . S
C2323 C21 1.541 . S
C2341 C48 2.131 1_556 S
C2343 C661 1.970 . S
C2359 C62 1.672 . S
C2361 C513 1.574 . S
C2377 C77 1.731 1_556 S
C2379 C599 1.662 . S
C2395 C76 1.564 . S
C2397 C377 1.469 . S
C2415 C439 1.697 . S
C2413 C49 1.833 . S
C2431 C63 1.795 . S
C2433 C303 1.708 . S
C2451 C735 1.856 . S
C2449 C90 1.919 . S
C2467 C104 1.528 . S
C2469 C809 1.532 . S
C2485 C119 1.515 . S
C2487 C895 1.502 . S
C2505 C969 1.222 . S
C2503 C118 1.207 . S
C2521 C91 1.565 . S
C2523 C1031 1.548 . S
C2539 C105 1.469 . S
C2541 C1117 1.495 . S
C2557 C132 1.940 . S
C2559 C1105 1.831 1_565 S
C2575 C146 1.541 . S
C2577 C957 1.491 1_455 S
C2595 C1043 1.617 . S
C2593 C161 1.688 . S
C2611 C160 1.562 . S
C2613 C821 1.466 . S
C2629 C133 1.823 . S
C2631 C883 1.710 . S
C2649 C747 1.740 . S
C2647 C147 1.822 . S
C2667 C1179 1.798 . S
C2665 C174 1.840 . S
C2683 C188 1.419 . S
C2685 C1253 1.432 . S
C2701 C203 1.465 . S
C2703 C1339 1.468 . S
C2721 C1413 1.287 . S
C2719 C202 1.298 . S
C2739 C1475 1.596 . S
C2737 C175 1.608 . S
C2755 C189 1.577 . S
C2757 C1561 1.578 . S
C2773 C216 2.099 . S
C2775 C1549 1.945 . S
C2791 C230 1.725 . S
C2793 C1401 1.636 . S
C2811 C1487 1.656 . S
C2809 C245 1.765 . S
C2829 C1265 1.323 . S
C2827 C244 1.368 . S
C2847 C1327 1.662 . S
C2845 C217 1.776 . S
C2863 C231 1.607 . S
C2865 C1191 1.573 . S
