# Generated by pormake.
# Topology rtl, (3,6)-cn, num edge types: 1
# Building blocks:
#     Node 0, Type 0, BuildingBlock: CUQRIR_clean_linker_1, # of connection points: 3
#     Node 1, Type 0, BuildingBlock: CUQRIR_clean_linker_1, # of connection points: 3
#     Node 2, Type 0, BuildingBlock: CUQRIR_clean_linker_1, # of connection points: 3
#     Node 3, Type 0, BuildingBlock: CUQRIR_clean_linker_1, # of connection points: 3
#     Node 4, Type 1, BuildingBlock: LEVNOQ01_clean_sbu_1, # of connection points: 6
#     Node 5, Type 1, BuildingBlock: LEVNOQ01_clean_sbu_1, # of connection points: 6
#     Edge 6, Type (0, 1), BuildingBlock: CIFDUS_clean_linker_0, # of connection points: 2
#     Edge 7, Type (0, 1), BuildingBlock: CIFDUS_clean_linker_0, # of connection points: 2
#     Edge 8, Type (0, 1), BuildingBlock: CIFDUS_clean_linker_0, # of connection points: 2
#     Edge 9, Type (0, 1), BuildingBlock: CIFDUS_clean_linker_0, # of connection points: 2
#     Edge 10, Type (0, 1), BuildingBlock: CIFDUS_clean_linker_0, # of connection points: 2
#     Edge 11, Type (0, 1), BuildingBlock: CIFDUS_clean_linker_0, # of connection points: 2
#     Edge 12, Type (0, 1), BuildingBlock: CIFDUS_clean_linker_0, # of connection points: 2
#     Edge 13, Type (0, 1), BuildingBlock: CIFDUS_clean_linker_0, # of connection points: 2
#     Edge 14, Type (0, 1), BuildingBlock: CIFDUS_clean_linker_0, # of connection points: 2
#     Edge 15, Type (0, 1), BuildingBlock: CIFDUS_clean_linker_0, # of connection points: 2
#     Edge 16, Type (0, 1), BuildingBlock: CIFDUS_clean_linker_0, # of connection points: 2
#     Edge 17, Type (0, 1), BuildingBlock: CIFDUS_clean_linker_0, # of connection points: 2
# Relax obj value: 0.023
# Max RMSD: 0.123
# Mean RMSD: 0.101
data_MOF--net-rtl--node1-LEVNOQ01_clean_sbu_1--node2-CUQRIR_clean_linker_1--edge1-CIFDUS_clean_linker_0
_symmetry_space_group_name_H-M    P1
_symmetry_Int_Tables_number       1
_symmetry_cell_setting            triclinic
loop_
_symmetry_equiv_pos_as_xyz
'x, y, z'
_cell_length_a     29.063199
_cell_length_b     29.79163
_cell_length_c     17.182658
_cell_angle_alpha  90.200137
_cell_angle_beta   98.411838
_cell_angle_gamma 89.762811
loop_
_atom_site_label
_atom_site_type_symbol
_atom_site_fract_x
_atom_site_fract_y
_atom_site_fract_z
_atom_type_partial_charge
C0 C 0.22626 0.78848 0.03905 0.0
N1 N 0.18749 0.8104 0.05381 0.0
N2 N 0.25182 0.77444 0.1071 0.0
C3 C 0.23855 0.78014 0.95798 0.0
C4 C 0.22735 0.78861 0.16376 0.0
N5 N 0.18864 0.81105 0.13149 0.0
C6 C 0.24084 0.78013 0.2505 0.0
H7 H 0.21747 0.75174 0.93058 0.0
H8 H 0.27562 0.77137 0.95895 0.0
H9 H 0.23031 0.81017 0.92041 0.0
H10 H 0.2549 0.81153 0.27945 0.0
H11 H 0.26797 0.75387 0.2627 0.0
H12 H 0.20984 0.77034 0.27721 0.0
C13 C 0.70498 0.71926 0.69082 0.0
N14 N 0.68249 0.68124 0.66351 0.0
N15 N 0.71662 0.74364 0.63054 0.0
C16 C 0.71219 0.73455 0.77522 0.0
C17 C 0.70058 0.71938 0.56563 0.0
N18 N 0.67909 0.68174 0.58532 0.0
C19 C 0.70935 0.73097 0.48381 0.0
H20 H 0.68217 0.72497 0.80467 0.0
H21 H 0.71709 0.77143 0.77968 0.0
H22 H 0.74384 0.71806 0.80659 0.0
H23 H 0.71305 0.7002 0.44866 0.0
H24 H 0.74131 0.75144 0.48561 0.0
H25 H 0.67955 0.75086 0.45407 0.0
C26 C 0.81074 0.23549 0.04732 0.0
N27 N 0.83263 0.19791 0.02707 0.0
N28 N 0.79344 0.25926 0.98249 0.0
C29 C 0.80164 0.24654 0.12938 0.0
C30 C 0.80471 0.2346 0.92189 0.0
N31 N 0.82821 0.197 0.94877 0.0
C32 C 0.79502 0.2488 0.83715 0.0
H33 H 0.79779 0.21556 0.16341 0.0
H34 H 0.76969 0.26716 0.12834 0.0
H35 H 0.83148 0.26589 0.16008 0.0
H36 H 0.79106 0.28579 0.83234 0.0
H37 H 0.76208 0.23318 0.80926 0.0
H38 H 0.8234 0.23772 0.80471 0.0
C39 C 0.29243 0.26229 0.45161 0.0
N40 N 0.32375 0.2923 0.48666 0.0
N41 N 0.27184 0.24044 0.50578 0.0
C42 C 0.28543 0.25115 0.36529 0.0
C43 C 0.2923 0.25743 0.57533 0.0
N44 N 0.32397 0.28919 0.56407 0.0
C45 C 0.28349 0.24058 0.65441 0.0
H46 H 0.2532 0.23146 0.34812 0.0
H47 H 0.31562 0.23121 0.35177 0.0
H48 H 0.28374 0.2824 0.33004 0.0
H49 H 0.2732 0.20476 0.65153 0.0
H50 H 0.25447 0.26013 0.67326 0.0
H51 H 0.31479 0.24466 0.69926 0.0
O52 O 0.02018 0.02985 0.72419 0.0
Mg53 Mg 0.06028 0.0054 0.6387 0.0
O54 O 0.9581 0.03447 0.63438 0.0
Mg55 Mg 0.98954 -0.01114 0.54504 0.0
O56 O 0.05328 0.03957 0.53584 0.0
O57 O 0.11312 0.04739 0.63428 0.0
O58 O 0.02753 0.94429 0.46098 0.0
O59 O 0.95617 0.03714 0.4402 0.0
Mg60 Mg 0.92878 0.9395 0.42932 0.0
O61 O 0.92406 0.9422 0.54773 0.0
O62 O 0.97918 0.89832 0.39071 0.0
O63 O 0.90869 -0.00515 0.35989 0.0
O64 O 0.87375 0.90635 0.45599 0.0
C65 C 0.05761 0.92113 0.67055 0.0
C66 C 0.97845 0.04254 0.70402 0.0
C67 C 0.09275 0.05785 0.56507 0.0
C68 C 0.02004 0.91252 0.41084 0.0
C69 C 0.9271 0.03253 0.37703 0.0
C70 C 0.88749 0.91701 0.52849 0.0
O71 O 0.0912 0.94148 0.64882 0.0
O72 O 0.01704 0.93744 0.65047 0.0
O73 O 0.58079 0.48594 0.24538 0.0
Mg74 Mg 0.5552 0.43714 0.16322 0.0
O75 O 0.54272 0.53501 0.16557 0.0
Mg76 Mg 0.50096 0.49104 0.06321 0.0
O77 O 0.56295 0.44017 0.04611 0.0
O78 O 0.60943 0.40168 0.13996 0.0
O79 O 0.45937 0.44369 0.95851 0.0
O80 O 0.53651 0.53375 0.97395 0.0
Mg81 Mg 0.43584 0.52166 0.97525 0.0
O82 O 0.44522 0.54828 0.08523 0.0
O83 O 0.38919 0.46917 0.95903 0.0
O84 O 0.47499 0.53658 0.88452 0.0
O85 O 0.39862 0.57776 0.98165 0.0
C86 C 0.46812 0.41343 0.1928 0.0
C87 C 0.56938 0.52608 0.22963 0.0
C88 C 0.59814 0.41332 0.06756 0.0
C89 C 0.41544 0.43948 0.93743 0.0
C90 C 0.51785 0.5437 0.90437 0.0
C91 C 0.41485 0.57806 0.05535 0.0
O92 O 0.50686 0.39388 0.19736 0.0
O93 O 0.46132 0.44952 0.15257 0.0
H94 H 0.1789 0.23765 0.47574 0.0
H95 H 0.30235 0.15592 0.5127 0.0
H96 H 0.25526 0.08833 0.51941 0.0
H97 H 0.18042 0.05552 0.53665 0.0
H98 H 0.05604 0.13637 0.50198 0.0
H99 H 0.10135 0.20149 0.47002 0.0
C100 C 0.19493 0.20472 0.48317 0.0
C101 C 0.24358 0.20104 0.49455 0.0
C102 C 0.16751 0.16631 0.48758 0.0
C103 C 0.26479 0.15877 0.50414 0.0
C104 C 0.23795 0.12045 0.5082 0.0
C105 C 0.16315 0.08709 0.51943 0.0
C106 C 0.11535 0.09163 0.52183 0.0
C107 C 0.18948 0.12414 0.50303 0.0
C108 C 0.09289 0.13235 0.49973 0.0
C109 C 0.11888 0.16959 0.48253 0.0
H110 H 0.25931 0.69083 0.16325 0.0
H111 H 0.33564 0.79657 0.07082 0.0
H112 H 0.4008 0.74505 0.06212 0.0
H113 H 0.42846 0.66689 0.0587 0.0
H114 H 0.35281 0.56146 0.15393 0.0
H115 H 0.29557 0.61605 0.18759 0.0
C116 C 0.2909 0.70263 0.14352 0.0
C117 C 0.29278 0.74673 0.11588 0.0
C118 C 0.32813 0.67298 0.13981 0.0
C119 C 0.3336 0.76228 0.09076 0.0
C120 C 0.37067 0.73295 0.08604 0.0
C121 C 0.40064 0.65643 0.09033 0.0
C122 C 0.39461 0.61065 0.10441 0.0
C123 C 0.36745 0.6878 0.10741 0.0
C124 C 0.35825 0.59682 0.14396 0.0
C125 C 0.32517 0.62789 0.16186 0.0
H126 H 0.80343 0.7635 0.69754 0.0
H127 H 0.67916 0.81914 0.56593 0.0
H128 H 0.72121 0.88712 0.53974 0.0
H129 H 0.7961 0.92176 0.53003 0.0
H130 H 0.92222 0.86458 0.65315 0.0
H131 H 0.87709 0.80698 0.70994 0.0
C132 C 0.78561 0.79135 0.66553 0.0
C133 C 0.73874 0.78668 0.63252 0.0
C134 C 0.8105 0.82973 0.64905 0.0
C135 C 0.71543 0.82242 0.59088 0.0
C136 C 0.73947 0.86103 0.57589 0.0
C137 C 0.81338 0.89784 0.5722 0.0
C138 C 0.8621 0.89696 0.58737 0.0
C139 C 0.78743 0.86394 0.60122 0.0
C140 C 0.88458 0.86595 0.64146 0.0
C141 C 0.85881 0.8326 0.67273 0.0
H142 H 0.70558 0.26926 0.91136 0.0
H143 H 0.81941 0.33813 0.0493 0.0
H144 H 0.76808 0.40098 0.07056 0.0
H145 H 0.68866 0.42759 0.07265 0.0
H146 H 0.57307 0.35639 0.94419 0.0
H147 H 0.62688 0.30391 0.89323 0.0
C148 C 0.71908 0.29883 0.94375 0.0
C149 C 0.76573 0.29939 0.9797 0.0
C150 C 0.68895 0.33411 0.95734 0.0
C151 C 0.78338 0.33735 0.02203 0.0
C152 C 0.75408 0.37303 0.03416 0.0
C153 C 0.67552 0.40175 0.03057 0.0
C154 C 0.62735 0.39559 1.01182 0.0
C155 C 0.70646 0.3707 1.00526 0.0
C156 C 0.61019 0.36191 0.9583 0.0
C157 C 0.64094 0.33151 0.93043 0.0
H158 H 0.19787 0.86945 0.25189 0.0
H159 H 0.0983 0.78925 0.10255 0.0
H160 H 0.03689 0.81252 0.17807 0.0
H161 H 0.01248 0.85432 0.28791 0.0
H162 H 0.11255 0.93377 0.43971 0.0
H163 H 0.17352 0.91086 0.36365 0.0
C164 C 0.16276 0.85691 0.23671 0.0
C165 C 0.15231 0.82753 0.17258 0.0
C166 C 0.12816 0.86972 0.28138 0.0
C167 C 0.10666 0.81217 0.15158 0.0
C168 C 0.07185 0.82513 0.19508 0.0
C169 C 0.04769 0.86637 0.30497 0.0
C170 C 0.05793 0.89559 0.36967 0.0
C171 C 0.08234 0.85356 0.26051 0.0
C172 C 0.10373 0.91111 0.3904 0.0
C173 C 0.13856 0.89822 0.3467 0.0
H174 H 0.59339 0.65598 0.6397 0.0
H175 H 0.72323 0.63602 0.79122 0.0
H176 H 0.68431 0.58989 0.87992 0.0
H177 H 0.61177 0.55928 0.91804 0.0
H178 H 0.48254 0.57838 0.76201 0.0
H179 H 0.52271 0.61992 0.67109 0.0
C180 C 0.61315 0.64064 0.69127 0.0
C181 C 0.66081 0.64948 0.70962 0.0
C182 C 0.59055 0.61423 0.74148 0.0
C183 C 0.68625 0.62997 0.77693 0.0
C184 C 0.66404 0.60365 0.82741 0.0
C185 C 0.59252 0.57229 0.86394 0.0
C186 C 0.54411 0.56602 0.84763 0.0
C187 C 0.61592 0.59628 0.81112 0.0
C188 C 0.51978 0.58278 0.77666 0.0
C189 C 0.54268 0.60668 0.72435 0.0
H190 H 0.8947 0.20521 0.15948 0.0
H191 H 0.80919 0.11084 1.01364 0.0
H192 H 0.83208 0.05126 0.10913 0.0
H193 H 0.87234 0.02734 0.23602 0.0
H194 H 0.95676 0.12084 0.387 0.0
H195 H 0.93746 0.18005 0.28827 0.0
C196 C 0.88142 0.17146 0.1489 0.0
C197 C 0.85044 0.16217 0.07966 0.0
C198 C 0.89381 0.13771 0.20536 0.0
C199 C 0.83357 0.11843 0.06584 0.0
C200 C 0.84625 0.08461 0.12084 0.0
C201 C 0.88666 0.06063 0.24801 0.0
C202 C 0.91572 0.06962 0.31955 0.0
C203 C 0.87568 0.09409 0.19122 0.0
C204 C 0.93405 0.113 0.33293 0.0
C205 C 0.92315 0.14678 0.27632 0.0
H206 H 0.28695 0.33671 0.67042 0.0
H207 H 0.41806 0.3021 0.5978 0.0
H208 H 0.45939 0.34438 0.70881 0.0
H209 H 0.45766 0.39092 0.82973 0.0
H210 H 0.32513 0.41582 0.90781 0.0
H211 H 0.2854 0.37563 0.79476 0.0
C212 C 0.32461 0.33833 0.67915 0.0
C213 C 0.34917 0.3171 0.62484 0.0
C214 C 0.34805 0.36003 0.74576 0.0
C215 C 0.39801 0.31952 0.6366 0.0
C216 C 0.42175 0.34295 0.70131 0.0
C217 C 0.42025 0.38668 0.82274 0.0
C218 C 0.39451 0.40679 0.87715 0.0
C219 C 0.39712 0.36311 0.7569 0.0
C220 C 0.34592 0.40108 0.86682 0.0
C221 C 0.32297 0.37833 0.80176 0.0
H222 H 0.61693 0.69371 0.45483 0.0
H223 H 0.69651 0.59293 0.59503 0.0
H224 H 0.66888 0.53551 0.49693 0.0
H225 H 0.62567 0.51515 0.36882 0.0
H226 H 0.54823 0.61627 0.22453 0.0
H227 H 0.57269 0.67297 0.32565 0.0
C228 C 0.62816 0.65913 0.46347 0.0
C229 C 0.65887 0.64739 0.53161 0.0
C230 C 0.61324 0.62677 0.40563 0.0
C231 C 0.6726 0.60248 0.54334 0.0
C232 C 0.65719 0.56988 0.48692 0.0
C233 C 0.6141 0.54959 0.35903 0.0
C234 C 0.58531 0.56141 0.28864 0.0
C235 C 0.62814 0.58182 0.41733 0.0
C236 C 0.57064 0.60625 0.27766 0.0
C237 C 0.58443 0.63862 0.33568 0.0
H238 H 0.91605 0.1671 0.968 0.0
H239 H 0.78283 0.15192 0.82437 0.0
H240 H 0.81706 0.10163 0.73504 0.0
H241 H 0.8863 0.06518 0.69439 0.0
H242 H 0.01899 0.07872 0.84262 0.0
H243 H 0.98364 0.12564 0.93386 0.0
C244 C 0.89458 0.15208 0.91781 0.0
C245 C 0.84735 0.16356 0.9017 0.0
C246 C 0.91447 0.12305 0.86734 0.0
C247 C 0.81958 0.14413 0.83658 0.0
C248 C 0.8391 0.11534 0.78582 0.0
C249 C 0.90738 0.07824 0.74681 0.0
C250 C 0.95531 0.06871 0.76097 0.0
C251 C 0.88676 0.10519 0.79979 0.0
C252 C 0.98203 0.08553 0.82982 0.0
C253 C 0.96189 0.11251 0.88223 0.0
H254 H 0.31218 0.36862 0.40353 0.0
H255 H 0.40802 0.26102 0.47412 0.0
H256 H 0.46114 0.28897 0.38755 0.0
H257 H 0.47818 0.34129 0.28815 0.0
H258 H 0.38232 0.44875 0.21106 0.0
H259 H 0.33043 0.42313 0.30241 0.0
C260 C 0.34542 0.35242 0.40113 0.0
C261 C 0.35767 0.31419 0.44741 0.0
C262 C 0.37482 0.36787 0.34874 0.0
C263 C 0.39943 0.29173 0.44157 0.0
C264 C 0.42919 0.30724 0.39119 0.0
C265 C 0.4459 0.35926 0.29078 0.0
C266 C 0.43412 0.39684 0.2424 0.0
C267 C 0.4169 0.34484 0.34378 0.0
C268 C 0.3921 0.41953 0.24715 0.0
C269 C 0.36262 0.40509 0.29979 0.0
H270 H 0.13791 0.77744 0.92083 0.0
H271 H 0.16421 0.89743 0.06025 0.0
H272 H 0.11862 0.94168 0.95632 0.0
H273 H 0.08094 0.9477 0.81914 0.0
H274 H 0.06034 0.82934 0.67406 0.0
H275 H 0.09417 0.78265 0.78595 0.0
C276 C 0.13335 0.81323 0.92818 0.0
C277 C 0.15484 0.83445 0.99735 0.0
C278 C 0.10848 0.83858 0.86687 0.0
C279 C 0.14784 0.88057 1.00752 0.0
C280 C 0.12214 0.90583 0.9479 0.0
C281 C 0.08282 0.91149 0.81294 0.0
C282 C 0.06791 0.89163 0.73936 0.0
C283 C 0.10361 0.88543 0.87647 0.0
C284 C 0.07109 0.84499 0.73078 0.0
C285 C 0.09076 0.8185 0.79448 0.0
loop_
_geom_bond_atom_site_label_1
_geom_bond_atom_site_label_2
_geom_bond_distance
_geom_bond_site_symmetry_2
_ccdc_geom_bond_type
C0 N1 1.317 . S
C0 N2 1.348 . S
C0 C3 1.485 1_554 S
N1 C0 1.317 . S
N1 N5 1.370 . S
N2 C0 1.348 . S
N2 C4 1.346 . S
C3 C0 1.485 1_556 S
C3 H7 0.960 . S
C3 H8 0.961 . S
C3 H9 0.960 . S
C4 N2 1.346 . S
C4 N5 1.307 . S
C4 C6 1.486 . S
N5 N1 1.370 . S
N5 C4 1.307 . S
C6 C4 1.486 . S
C6 H10 0.960 . S
C6 H11 0.960 . S
C6 H12 0.959 . S
H7 C3 0.960 . S
H8 C3 0.961 . S
H9 C3 0.960 . S
H10 C6 0.960 . S
H11 C6 0.960 . S
H12 C6 0.959 . S
C13 N14 1.317 . S
C13 N15 1.348 . S
C13 C16 1.485 . S
N14 C13 1.317 . S
N14 N18 1.370 . S
N15 C13 1.348 . S
N15 C17 1.346 . S
C16 C13 1.485 . S
C16 H20 0.960 . S
C16 H21 0.961 . S
C16 H22 0.960 . S
C17 N15 1.346 . S
C17 N18 1.307 . S
C17 C19 1.486 . S
N18 N14 1.370 . S
N18 C17 1.307 . S
C19 C17 1.486 . S
C19 H23 0.960 . S
C19 H24 0.960 . S
C19 H25 0.959 . S
H20 C16 0.960 . S
H21 C16 0.961 . S
H22 C16 0.960 . S
H23 C19 0.960 . S
H24 C19 0.960 . S
H25 C19 0.959 . S
C26 N27 1.317 . S
C26 N28 1.346 1_554 S
C26 C29 1.485 . S
N27 C26 1.317 . S
N27 N31 1.370 1_554 S
N28 C26 1.346 1_556 S
N28 C30 1.349 . S
C29 C26 1.485 . S
C29 H33 0.960 . S
C29 H34 0.961 . S
C29 H35 0.960 . S
C30 N28 1.349 . S
C30 N31 1.307 . S
C30 C32 1.486 . S
N31 N27 1.370 1_556 S
N31 C30 1.307 . S
C32 C30 1.486 . S
C32 H36 0.960 . S
C32 H37 0.960 . S
C32 H38 0.959 . S
H33 C29 0.960 . S
H34 C29 0.961 . S
H35 C29 0.960 . S
H36 C32 0.960 . S
H37 C32 0.960 . S
H38 C32 0.959 . S
C39 N40 1.317 . S
C39 N41 1.348 . S
C39 C42 1.485 . S
N40 C39 1.317 . S
N40 N44 1.370 . S
N41 C39 1.348 . S
N41 C43 1.346 . S
C42 C39 1.485 . S
C42 H46 0.960 . S
C42 H47 0.961 . S
C42 H48 0.960 . S
C43 N41 1.346 . S
C43 N44 1.307 . S
C43 C45 1.486 . S
N44 N40 1.370 . S
N44 C43 1.307 . S
C45 C43 1.486 . S
C45 H49 0.960 . S
C45 H50 0.960 . S
C45 H51 0.959 . S
H46 C42 0.960 . S
H47 C42 0.961 . S
H48 C42 0.960 . S
H49 C45 0.960 . S
H50 C45 0.960 . S
H51 C45 0.959 . S
O52 Mg53 1.990 . S
O52 C66 1.253 1_455 S
Mg53 O52 1.990 . S
Mg53 O56 2.180 . S
Mg53 O57 2.117 . S
Mg53 O71 2.030 . S
O54 Mg55 2.072 1_655 S
O54 C66 1.260 . S
Mg55 O54 2.072 1_455 S
Mg55 O56 2.099 . S
Mg55 O58 2.079 1_545 S
Mg55 O59 2.072 1_455 S
Mg55 O61 2.099 1_445 S
Mg55 O72 2.079 1_545 S
O56 Mg53 2.180 . S
O56 Mg55 2.099 . S
O56 C67 1.279 . S
O57 Mg53 2.117 . S
O57 C67 1.250 . S
O58 Mg55 2.079 1_565 S
O58 C68 1.264 . S
O59 Mg55 2.072 1_655 S
O59 C69 1.260 . S
Mg60 O61 2.180 . S
Mg60 O62 2.030 1_655 S
Mg60 O63 1.990 1_565 S
Mg60 O64 2.117 . S
O61 Mg55 2.099 1_665 S
O61 Mg60 2.180 . S
O61 C70 1.279 . S
O62 Mg60 2.030 1_455 S
O62 C68 1.248 . S
O63 Mg60 1.990 1_545 S
O63 C69 1.253 . S
O64 Mg60 2.117 . S
O64 C70 1.250 . S
C65 O71 1.248 1_565 S
C65 O72 1.264 . S
C66 O52 1.253 1_655 S
C66 O54 1.260 . S
C67 O56 1.279 . S
C67 O57 1.250 . S
C68 O58 1.264 . S
C68 O62 1.248 . S
C69 O59 1.260 . S
C69 O63 1.253 . S
C70 O61 1.279 . S
C70 O64 1.250 . S
O71 Mg53 2.030 . S
O71 C65 1.248 1_545 S
O72 Mg55 2.079 1_565 S
O72 C65 1.264 . S
O73 Mg74 1.990 . S
O73 C87 1.253 . S
Mg74 O73 1.990 . S
Mg74 O77 2.180 . S
Mg74 O78 2.117 . S
Mg74 O92 2.030 . S
O75 Mg76 2.072 . S
O75 C87 1.260 . S
Mg76 O75 2.072 . S
Mg76 O77 2.099 . S
Mg76 O79 2.079 1_554 S
Mg76 O80 2.072 1_554 S
Mg76 O82 2.099 . S
Mg76 O93 2.079 . S
O77 Mg74 2.180 . S
O77 Mg76 2.099 . S
O77 C88 1.279 . S
O78 Mg74 2.117 . S
O78 C88 1.250 . S
O79 Mg76 2.079 1_556 S
O79 C89 1.264 . S
O80 Mg76 2.072 1_556 S
O80 C90 1.260 . S
Mg81 O82 2.180 1_556 S
Mg81 O83 2.030 . S
Mg81 O84 1.990 . S
Mg81 O85 2.117 . S
O82 Mg76 2.099 . S
O82 Mg81 2.180 1_554 S
O82 C91 1.279 . S
O83 Mg81 2.030 . S
O83 C89 1.248 . S
O84 Mg81 1.990 . S
O84 C90 1.253 . S
O85 Mg81 2.117 . S
O85 C91 1.250 1_556 S
C86 O92 1.248 . S
C86 O93 1.264 . S
C87 O73 1.253 . S
C87 O75 1.260 . S
C88 O77 1.279 . S
C88 O78 1.250 . S
C89 O79 1.264 . S
C89 O83 1.248 . S
C90 O80 1.260 . S
C90 O84 1.253 . S
C91 O82 1.279 . S
C91 O85 1.250 1_554 S
O92 Mg74 2.030 . S
O92 C86 1.248 . S
O93 Mg76 2.079 . S
O93 C86 1.264 . S
H94 C100 0.930 . S
H95 C103 0.930 . S
H96 C104 0.930 . S
H97 C105 0.930 . S
H98 C108 0.930 . S
H99 C109 0.930 . S
C100 H94 0.930 . S
C100 C101 1.355 . S
C100 C102 1.415 . S
C101 C100 1.355 . S
C101 C103 1.419 . S
C102 C100 1.415 . S
C102 C107 1.425 . S
C102 C109 1.409 . S
C103 H95 0.930 . S
C103 C101 1.419 . S
C103 C104 1.362 . S
C104 H96 0.930 . S
C104 C103 1.362 . S
C104 C107 1.409 . S
C105 H97 0.930 . S
C105 C106 1.355 . S
C105 C107 1.415 . S
C106 C105 1.355 . S
C106 C108 1.419 . S
C107 C102 1.425 . S
C107 C104 1.409 . S
C107 C105 1.415 . S
C108 H98 0.930 . S
C108 C106 1.419 . S
C108 C109 1.362 . S
C109 H99 0.930 . S
C109 C102 1.409 . S
C109 C108 1.362 . S
H110 C116 0.930 . S
H111 C119 0.930 . S
H112 C120 0.930 1_556 S
H113 C121 0.927 1_556 S
H114 C124 0.930 . S
H115 C125 0.930 . S
C116 H110 0.930 . S
C116 C117 1.355 . S
C116 C118 1.415 . S
C117 C116 1.355 . S
C117 C119 1.419 . S
C118 C116 1.415 . S
C118 C123 1.425 . S
C118 C125 1.409 . S
C119 H111 0.930 . S
C119 C117 1.419 . S
C119 C120 1.362 . S
C120 H112 0.930 1_554 S
C120 C119 1.362 . S
C120 C123 1.409 . S
C121 H113 0.927 1_554 S
C121 C122 1.355 . S
C121 C123 1.415 . S
C122 C121 1.355 . S
C122 C124 1.419 . S
C123 C118 1.425 . S
C123 C120 1.409 . S
C123 C121 1.415 . S
C124 H114 0.930 . S
C124 C122 1.419 . S
C124 C125 1.362 . S
C125 H115 0.930 . S
C125 C118 1.409 . S
C125 C124 1.362 . S
H126 C132 0.930 . S
H127 C135 0.930 . S
H128 C136 0.930 . S
H129 C137 0.930 . S
H130 C140 0.930 . S
H131 C141 0.930 . S
C132 H126 0.930 . S
C132 C133 1.355 . S
C132 C134 1.415 . S
C133 C132 1.355 . S
C133 C135 1.419 . S
C134 C132 1.415 . S
C134 C139 1.425 . S
C134 C141 1.409 . S
C135 H127 0.930 . S
C135 C133 1.419 . S
C135 C136 1.362 . S
C136 H128 0.930 . S
C136 C135 1.362 . S
C136 C139 1.409 . S
C137 H129 0.930 . S
C137 C138 1.355 . S
C137 C139 1.415 . S
C138 C137 1.355 . S
C138 C140 1.419 . S
C139 C134 1.425 . S
C139 C136 1.409 . S
C139 C137 1.415 . S
C140 H130 0.930 . S
C140 C138 1.419 . S
C140 C141 1.362 . S
C141 H131 0.930 . S
C141 C134 1.409 . S
C141 C140 1.362 . S
H142 C148 0.930 . S
H143 C151 0.930 . S
H144 C152 0.930 . S
H145 C153 0.930 . S
H146 C156 0.930 . S
H147 C157 0.930 . S
C148 H142 0.930 . S
C148 C149 1.355 1_556 S
C148 C150 1.415 . S
C149 C148 1.355 1_554 S
C149 C151 1.419 . S
C150 C148 1.415 . S
C150 C155 1.425 1_556 S
C150 C157 1.409 . S
C151 H143 0.930 . S
C151 C149 1.419 . S
C151 C152 1.362 . S
C152 H144 0.930 . S
C152 C151 1.362 . S
C152 C155 1.409 . S
C153 H145 0.930 . S
C153 C154 1.355 . S
C153 C155 1.415 . S
C154 C153 1.355 . S
C154 C156 1.419 1_554 S
C155 C150 1.425 1_554 S
C155 C152 1.409 . S
C155 C153 1.415 . S
C156 H146 0.930 . S
C156 C154 1.419 1_556 S
C156 C157 1.362 . S
C157 H147 0.930 . S
C157 C150 1.409 . S
C157 C156 1.362 . S
H158 C164 0.930 . S
H159 C167 0.930 . S
H160 C168 0.930 . S
H161 C169 0.930 . S
H162 C172 0.930 . S
H163 C173 0.930 . S
C164 H158 0.930 . S
C164 C165 1.355 . S
C164 C166 1.415 . S
C165 C164 1.355 . S
C165 C167 1.419 . S
C166 C164 1.415 . S
C166 C171 1.425 . S
C166 C173 1.409 . S
C167 H159 0.930 . S
C167 C165 1.419 . S
C167 C168 1.362 . S
C168 H160 0.930 . S
C168 C167 1.362 . S
C168 C171 1.409 . S
C169 H161 0.930 . S
C169 C170 1.355 . S
C169 C171 1.415 . S
C170 C169 1.355 . S
C170 C172 1.419 . S
C171 C166 1.425 . S
C171 C168 1.409 . S
C171 C169 1.415 . S
C172 H162 0.930 . S
C172 C170 1.419 . S
C172 C173 1.362 . S
C173 H163 0.930 . S
C173 C166 1.409 . S
C173 C172 1.362 . S
H174 C180 0.930 . S
H175 C183 0.930 . S
H176 C184 0.930 . S
H177 C185 0.930 . S
H178 C188 0.930 . S
H179 C189 0.930 . S
C180 H174 0.930 . S
C180 C181 1.355 . S
C180 C182 1.415 . S
C181 C180 1.355 . S
C181 C183 1.419 . S
C182 C180 1.415 . S
C182 C187 1.425 . S
C182 C189 1.409 . S
C183 H175 0.930 . S
C183 C181 1.419 . S
C183 C184 1.362 . S
C184 H176 0.930 . S
C184 C183 1.362 . S
C184 C187 1.409 . S
C185 H177 0.930 . S
C185 C186 1.355 . S
C185 C187 1.415 . S
C186 C185 1.355 . S
C186 C188 1.419 . S
C187 C182 1.425 . S
C187 C184 1.409 . S
C187 C185 1.415 . S
C188 H178 0.930 . S
C188 C186 1.419 . S
C188 C189 1.362 . S
C189 H179 0.930 . S
C189 C182 1.409 . S
C189 C188 1.362 . S
H190 C196 0.930 . S
H191 C199 0.930 . S
H192 C200 0.930 . S
H193 C201 0.930 . S
H194 C204 0.930 1_455 S
H195 C205 0.930 . S
C196 H190 0.930 . S
C196 C197 1.355 . S
C196 C198 1.415 . S
C197 C196 1.355 . S
C197 C199 1.419 . S
C198 C196 1.415 . S
C198 C203 1.425 . S
C198 C205 1.409 . S
C199 H191 0.930 . S
C199 C197 1.419 . S
C199 C200 1.362 . S
C200 H192 0.930 . S
C200 C199 1.362 . S
C200 C203 1.409 . S
C201 H193 0.930 . S
C201 C202 1.355 . S
C201 C203 1.415 . S
C202 C201 1.355 . S
C202 C204 1.419 . S
C203 C198 1.425 . S
C203 C200 1.409 . S
C203 C201 1.415 . S
C204 H194 0.930 1_655 S
C204 C202 1.419 . S
C204 C205 1.362 . S
C205 H195 0.930 . S
C205 C198 1.409 . S
C205 C204 1.362 . S
H206 C212 0.930 . S
H207 C215 0.930 . S
H208 C216 0.930 . S
H209 C217 0.930 . S
H210 C220 0.930 . S
H211 C221 0.930 . S
C212 H206 0.930 . S
C212 C213 1.355 . S
C212 C214 1.415 . S
C213 C212 1.355 . S
C213 C215 1.419 . S
C214 C212 1.415 . S
C214 C219 1.425 . S
C214 C221 1.409 . S
C215 H207 0.930 . S
C215 C213 1.419 . S
C215 C216 1.362 . S
C216 H208 0.930 . S
C216 C215 1.362 . S
C216 C219 1.409 . S
C217 H209 0.930 . S
C217 C218 1.355 . S
C217 C219 1.415 . S
C218 C217 1.355 . S
C218 C220 1.419 . S
C219 C214 1.425 . S
C219 C216 1.409 . S
C219 C217 1.415 . S
C220 H210 0.930 . S
C220 C218 1.419 . S
C220 C221 1.362 . S
C221 H211 0.930 . S
C221 C214 1.409 . S
C221 C220 1.362 . S
H222 C228 0.930 . S
H223 C231 0.930 . S
H224 C232 0.930 . S
H225 C233 0.930 . S
H226 C236 0.930 . S
H227 C237 0.930 . S
C228 H222 0.930 . S
C228 C229 1.355 . S
C228 C230 1.415 . S
C229 C228 1.355 . S
C229 C231 1.419 . S
C230 C228 1.415 . S
C230 C235 1.425 . S
C230 C237 1.409 . S
C231 H223 0.930 . S
C231 C229 1.419 . S
C231 C232 1.362 . S
C232 H224 0.930 . S
C232 C231 1.362 . S
C232 C235 1.409 . S
C233 H225 0.930 . S
C233 C234 1.355 . S
C233 C235 1.415 . S
C234 C233 1.355 . S
C234 C236 1.419 . S
C235 C230 1.425 . S
C235 C232 1.409 . S
C235 C233 1.415 . S
C236 H226 0.930 . S
C236 C234 1.419 . S
C236 C237 1.362 . S
C237 H227 0.930 . S
C237 C230 1.409 . S
C237 C236 1.362 . S
H238 C244 0.930 . S
H239 C247 0.930 . S
H240 C248 0.930 . S
H241 C249 0.930 . S
H242 C252 0.930 1_455 S
H243 C253 0.930 . S
C244 H238 0.930 . S
C244 C245 1.355 . S
C244 C246 1.415 . S
C245 C244 1.355 . S
C245 C247 1.419 . S
C246 C244 1.415 . S
C246 C251 1.425 . S
C246 C253 1.409 . S
C247 H239 0.930 . S
C247 C245 1.419 . S
C247 C248 1.362 . S
C248 H240 0.930 . S
C248 C247 1.362 . S
C248 C251 1.409 . S
C249 H241 0.930 . S
C249 C250 1.355 . S
C249 C251 1.415 . S
C250 C249 1.355 . S
C250 C252 1.419 . S
C251 C246 1.425 . S
C251 C248 1.409 . S
C251 C249 1.415 . S
C252 H242 0.930 1_655 S
C252 C250 1.419 . S
C252 C253 1.362 . S
C253 H243 0.930 . S
C253 C246 1.409 . S
C253 C252 1.362 . S
H254 C260 0.930 . S
H255 C263 0.930 . S
H256 C264 0.930 . S
H257 C265 0.930 . S
H258 C268 0.930 . S
H259 C269 0.930 . S
C260 H254 0.930 . S
C260 C261 1.355 . S
C260 C262 1.415 . S
C261 C260 1.355 . S
C261 C263 1.419 . S
C262 C260 1.415 . S
C262 C267 1.425 . S
C262 C269 1.409 . S
C263 H255 0.930 . S
C263 C261 1.419 . S
C263 C264 1.362 . S
C264 H256 0.930 . S
C264 C263 1.362 . S
C264 C267 1.409 . S
C265 H257 0.930 . S
C265 C266 1.355 . S
C265 C267 1.415 . S
C266 C265 1.355 . S
C266 C268 1.419 . S
C267 C262 1.425 . S
C267 C264 1.409 . S
C267 C265 1.415 . S
C268 H258 0.930 . S
C268 C266 1.419 . S
C268 C269 1.362 . S
C269 H259 0.930 . S
C269 C262 1.409 . S
C269 C268 1.362 . S
H270 C276 0.930 . S
H271 C279 0.930 1_554 S
H272 C280 0.930 . S
H273 C281 0.930 . S
H274 C284 0.930 . S
H275 C285 0.930 . S
C276 H270 0.930 . S
C276 C277 1.355 . S
C276 C278 1.415 . S
C277 C276 1.355 . S
C277 C279 1.419 . S
C278 C276 1.415 . S
C278 C283 1.425 . S
C278 C285 1.409 . S
C279 H271 0.930 1_556 S
C279 C277 1.419 . S
C279 C280 1.362 . S
C280 H272 0.930 . S
C280 C279 1.362 . S
C280 C283 1.409 . S
C281 H273 0.930 . S
C281 C282 1.355 . S
C281 C283 1.415 . S
C282 C281 1.355 . S
C282 C284 1.419 . S
C283 C278 1.425 . S
C283 C280 1.409 . S
C283 C281 1.415 . S
C284 H274 0.930 . S
C284 C282 1.419 . S
C284 C285 1.362 . S
C285 H275 0.930 . S
C285 C278 1.409 . S
C285 C284 1.362 . S
C106 C67 1.228 . S
C101 N41 1.475 . S
C117 N2 1.467 . S
C122 C91 1.305 . S
C133 N15 1.591 . S
C138 C70 1.386 . S
C149 N28 1.578 1_554 S
C154 C88 1.412 . S
C170 C68 1.479 . S
C165 N5 1.486 . S
C186 C90 1.470 . S
C181 N14 1.564 . S
C197 N27 1.536 . S
C202 C69 1.525 . S
C213 N44 1.486 . S
C218 C89 1.427 . S
C234 C87 1.522 . S
C229 N18 1.530 . S
C250 C66 1.479 . S
C245 N31 1.563 . S
C266 C86 1.479 . S
C261 N40 1.474 . S
C277 N1 1.479 1_556 S
C282 C65 1.469 . S
