# Generated by pormake.
# Topology nom, (4,4)-cn, num edge types: 1
# Building blocks:
#     Node 0, Type 0, BuildingBlock: KUFVIS_clean_linker_0, # of connection points: 4
#     Node 1, Type 0, BuildingBlock: KUFVIS_clean_linker_0, # of connection points: 4
#     Node 2, Type 0, BuildingBlock: KUFVIS_clean_linker_0, # of connection points: 4
#     Node 3, Type 0, BuildingBlock: KUFVIS_clean_linker_0, # of connection points: 4
#     Node 4, Type 0, BuildingBlock: KUFVIS_clean_linker_0, # of connection points: 4
#     Node 5, Type 0, BuildingBlock: KUFVIS_clean_linker_0, # of connection points: 4
#     Node 6, Type 1, BuildingBlock: GALJAG_clean_sbu_0, # of connection points: 4
#     Node 7, Type 1, BuildingBlock: GALJAG_clean_sbu_0, # of connection points: 4
#     Node 8, Type 1, BuildingBlock: GALJAG_clean_sbu_0, # of connection points: 4
#     Node 9, Type 1, BuildingBlock: GALJAG_clean_sbu_0, # of connection points: 4
#     Node 10, Type 1, BuildingBlock: GALJAG_clean_sbu_0, # of connection points: 4
#     Node 11, Type 1, BuildingBlock: GALJAG_clean_sbu_0, # of connection points: 4
#     Edge 12, Type (0, 1), BuildingBlock: KIFKEQ_clean_linker_1, # of connection points: 2
#     Edge 13, Type (0, 1), BuildingBlock: KIFKEQ_clean_linker_1, # of connection points: 2
#     Edge 14, Type (0, 1), BuildingBlock: KIFKEQ_clean_linker_1, # of connection points: 2
#     Edge 15, Type (0, 1), BuildingBlock: KIFKEQ_clean_linker_1, # of connection points: 2
#     Edge 16, Type (0, 1), BuildingBlock: KIFKEQ_clean_linker_1, # of connection points: 2
#     Edge 17, Type (0, 1), BuildingBlock: KIFKEQ_clean_linker_1, # of connection points: 2
#     Edge 18, Type (0, 1), BuildingBlock: KIFKEQ_clean_linker_1, # of connection points: 2
#     Edge 19, Type (0, 1), BuildingBlock: KIFKEQ_clean_linker_1, # of connection points: 2
#     Edge 20, Type (0, 1), BuildingBlock: KIFKEQ_clean_linker_1, # of connection points: 2
#     Edge 21, Type (0, 1), BuildingBlock: KIFKEQ_clean_linker_1, # of connection points: 2
#     Edge 22, Type (0, 1), BuildingBlock: KIFKEQ_clean_linker_1, # of connection points: 2
#     Edge 23, Type (0, 1), BuildingBlock: KIFKEQ_clean_linker_1, # of connection points: 2
#     Edge 24, Type (0, 1), BuildingBlock: KIFKEQ_clean_linker_1, # of connection points: 2
#     Edge 25, Type (0, 1), BuildingBlock: KIFKEQ_clean_linker_1, # of connection points: 2
#     Edge 26, Type (0, 1), BuildingBlock: KIFKEQ_clean_linker_1, # of connection points: 2
#     Edge 27, Type (0, 1), BuildingBlock: KIFKEQ_clean_linker_1, # of connection points: 2
#     Edge 28, Type (0, 1), BuildingBlock: KIFKEQ_clean_linker_1, # of connection points: 2
#     Edge 29, Type (0, 1), BuildingBlock: KIFKEQ_clean_linker_1, # of connection points: 2
#     Edge 30, Type (0, 1), BuildingBlock: KIFKEQ_clean_linker_1, # of connection points: 2
#     Edge 31, Type (0, 1), BuildingBlock: KIFKEQ_clean_linker_1, # of connection points: 2
#     Edge 32, Type (0, 1), BuildingBlock: KIFKEQ_clean_linker_1, # of connection points: 2
#     Edge 33, Type (0, 1), BuildingBlock: KIFKEQ_clean_linker_1, # of connection points: 2
#     Edge 34, Type (0, 1), BuildingBlock: KIFKEQ_clean_linker_1, # of connection points: 2
#     Edge 35, Type (0, 1), BuildingBlock: KIFKEQ_clean_linker_1, # of connection points: 2
# Relax obj value: 0.012
# Max RMSD: 0.070
# Mean RMSD: 0.062
data_MOF--net-nom--node1-GALJAG_clean_sbu_0--node2-KUFVIS_clean_linker_0--edge1-KIFKEQ_clean_linker_1
_symmetry_space_group_name_H-M    P1
_symmetry_Int_Tables_number       1
_symmetry_cell_setting            triclinic
loop_
_symmetry_equiv_pos_as_xyz
'x, y, z'
_cell_length_a     45.371992
_cell_length_b     45.375596
_cell_length_c     49.414926
_cell_angle_alpha  89.984809
_cell_angle_beta   89.937398
_cell_angle_gamma 120.1738
loop_
_atom_site_label
_atom_site_type_symbol
_atom_site_fract_x
_atom_site_fract_y
_atom_site_fract_z
_atom_type_partial_charge
H0 H 0.15406 0.62657 0.34148 0.0
H1 H 0.08036 0.60577 0.27932 0.0
H2 H 0.04874 0.55681 0.35785 0.0
H3 H 1.00331 0.56267 0.34938 0.0
H4 H 0.92808 0.52476 0.28682 0.0
H5 H 0.03191 0.55738 0.26653 0.0
C6 C 0.12778 0.61303 0.3346 0.0
C7 C 0.10211 0.5914 0.35241 0.0
C8 C 0.1201 0.61767 0.30815 0.0
C9 C 0.086 0.60073 0.29951 0.0
C10 C 0.05943 0.5788 0.31736 0.0
C11 C 0.06815 0.57383 0.34376 0.0
C12 C 1.02278 0.56255 0.30902 0.0
C13 C 0.99707 0.55624 0.32827 0.0
C14 C 0.963 0.5425 0.32026 0.0
C15 C 0.95449 0.53559 0.29296 0.0
C16 C 0.97923 0.5411 0.27361 0.0
C17 C 1.01318 0.55396 0.28167 0.0
H18 H 0.5434 0.14226 0.50557 0.0
H19 H 0.51317 0.06641 0.44376 0.0
H20 H 0.52541 0.04294 0.52657 0.0
H21 H 0.48121 0.99054 0.51406 0.0
H22 H 0.48336 0.92154 0.45603 0.0
H23 H 0.52919 0.02734 0.43585 0.0
C24 C 0.53547 0.11626 0.49975 0.0
C25 C 0.53414 0.09332 0.51926 0.0
C26 C 0.52861 0.10685 0.47256 0.0
C27 C 0.51921 0.07351 0.4648 0.0
C28 C 0.51716 0.04958 0.48422 0.0
C29 C 0.52544 0.0602 0.51142 0.0
C30 C 0.5072 1.01391 0.47625 0.0
C31 C 0.48926 0.98641 0.49448 0.0
C32 C 0.4815 0.95327 0.48749 0.0
C33 C 0.49066 0.94738 0.4619 0.0
C34 C 0.50706 0.97378 0.44313 0.0
C35 C 0.51562 1.00703 0.45038 0.0
H36 H 0.55917 0.43378 0.62811 0.0
H37 H 0.52211 0.47553 0.68756 0.0
H38 H 0.53037 0.50646 0.60358 0.0
H39 H 0.48589 0.5131 0.61515 0.0
H40 H 0.48016 0.58118 0.67191 0.0
H41 H 0.53294 0.52873 0.69414 0.0
C42 C 0.54864 0.44997 0.63296 0.0
C43 C 0.54431 0.46879 0.6125 0.0
C44 C 0.54117 0.45282 0.65987 0.0
C45 C 0.52852 0.47439 0.66663 0.0
C46 C 0.52405 0.49396 0.64644 0.0
C47 C 0.53255 0.49115 0.61938 0.0
C48 C 0.51147 0.51787 0.65357 0.0
C49 C 0.49269 0.52544 0.63473 0.0
C50 C 0.4825 0.54915 0.64108 0.0
C51 C 0.4896 0.56417 0.66669 0.0
C52 C 0.50692 0.55618 0.68608 0.0
C53 C 0.51836 0.53357 0.6793 0.0
H54 H 0.15609 0.55372 0.78443 0.0
H55 H 0.0826 0.51198 0.84837 0.0
H56 H 0.05012 0.50858 0.76528 0.0
H57 H 1.00392 0.46026 0.78022 0.0
H58 H 0.92986 0.44501 0.84071 0.0
H59 H 0.03525 0.51483 0.8565 0.0
C60 C 0.12967 0.54074 0.791 0.0
C61 C 0.10379 0.53064 0.77185 0.0
C62 C 0.12211 0.5348 0.81852 0.0
C63 C 0.08797 0.51746 0.82704 0.0
C64 C 0.06121 0.50762 0.80805 0.0
C65 C 0.06972 0.51497 0.78036 0.0
C66 C 1.02469 0.49016 0.81704 0.0
C67 C 0.99822 0.46673 0.79987 0.0
C68 C 0.96409 0.4505 0.80842 0.0
C69 C 0.95623 0.45765 0.83403 0.0
C70 C 0.98181 0.48042 0.85134 0.0
C71 C 1.01592 0.49672 0.84293 0.0
H72 H 0.49328 0.92198 0.00867 0.0
H73 H 0.56129 0.99059 0.9488 0.0
H74 H 0.55386 0.02812 0.02772 0.0
H75 H 0.60752 0.06876 0.01801 0.0
H76 H 0.65128 0.14213 0.95404 0.0
H77 H 0.56943 0.04186 0.93605 0.0
C78 C 0.51136 0.94784 0.00241 0.0
C79 C 0.52226 0.9744 0.02112 0.0
C80 C 0.525 0.95361 0.9763 0.0
C81 C 0.55007 0.9867 0.96877 0.0
C82 C 0.56051 1.01442 0.98687 0.0
C83 C 0.54648 1.00769 0.01325 0.0
C84 C 0.58575 0.05004 0.97808 0.0
C85 C 0.60805 0.07492 -0.00321 0.0
C86 C 0.63166 0.10811 0.98811 0.0
C87 C 0.63358 0.1163 0.96065 0.0
C88 C 0.61135 0.09246 0.9419 0.0
C89 C 0.58721 0.05965 0.95069 0.0
H90 H 0.51146 0.61585 0.12604 0.0
H91 H 0.56284 0.58857 0.1849 0.0
H92 H 0.54575 0.54668 0.10387 0.0
H93 H 0.59625 0.54831 0.11333 0.0
H94 H 0.60957 0.4856 0.17107 0.0
H95 H 0.5542 0.53523 0.19415 0.0
C96 C 0.52402 0.60164 0.13134 0.0
C97 C 0.52755 0.58123 0.11191 0.0
C98 C 0.53644 0.6041 0.15755 0.0
C99 C 0.55299 0.58608 0.16456 0.0
C100 C 0.55694 0.56525 0.14525 0.0
C101 C 0.54408 0.56319 0.11886 0.0
C102 C 0.57296 0.54448 0.15272 0.0
C103 C 0.59161 0.5373 0.13342 0.0
C104 C 0.60407 0.51545 0.13993 0.0
C105 C 0.59899 0.50165 0.16593 0.0
C106 C 0.58169 0.50925 0.18563 0.0
C107 C 0.56856 0.5305 0.17898 0.0
In108 In 0.66067 0.41137 0.39872 0.0
O109 O 0.71564 0.45408 0.40553 0.0
O110 O 0.70839 0.40926 0.38625 0.0
C111 C 0.64203 0.43449 0.44198 0.0
C112 C 0.63778 0.42981 0.35505 0.0
C113 C 0.62867 0.34294 0.40617 0.0
O114 O 0.66174 0.42249 0.44377 0.0
O115 O 0.63212 0.43533 0.41831 0.0
O116 O 0.64132 0.35652 0.3836 0.0
O117 O 0.63269 0.36378 0.42463 0.0
C118 C 0.72929 0.43873 0.39476 0.0
O119 O 0.61991 0.40184 0.36716 0.0
O120 O 0.66732 0.44797 0.36456 0.0
In121 In 0.28266 0.64871 0.56106 0.0
O122 O 0.30528 0.61439 0.55257 0.0
O123 O 0.3254 0.64903 0.58546 0.0
C124 C 0.2383 0.62993 0.51947 0.0
C125 C 0.23826 0.62102 0.60251 0.0
C126 C 0.32516 0.71589 0.55109 0.0
O127 O 0.26177 0.62272 0.52026 0.0
O128 O 0.23775 0.64712 0.53928 0.0
O129 O 0.30571 0.70542 0.57144 0.0
O130 O 0.32295 0.69258 0.53583 0.0
C131 C 0.32645 0.62613 0.57174 0.0
O132 O 0.25678 0.65284 0.59942 0.0
O133 O 0.24271 0.60334 0.58507 0.0
In134 In 0.65939 0.26966 0.73207 0.0
O135 O 0.71545 0.29853 0.7186 0.0
O136 O 0.70427 0.30076 0.76005 0.0
C137 C 0.63168 0.22797 0.68894 0.0
C138 C 0.64234 0.22342 0.77206 0.0
C139 C 0.63579 0.31383 0.72819 0.0
O140 O 0.66348 0.24587 0.69231 0.0
O141 O 0.61413 0.23168 0.70692 0.0
O142 O 0.62228 0.28796 0.74331 0.0
O143 O 0.6614 0.31766 0.71515 0.0
C144 C 0.72686 0.30935 0.74202 0.0
O145 O 0.63436 0.24636 0.77255 0.0
O146 O 0.65906 0.22393 0.75148 0.0
In147 In 0.42529 0.65278 0.89755 0.0
O148 O 0.36863 0.6215 0.90826 0.0
O149 O 0.38213 0.64842 0.87095 0.0
C150 C 0.44681 0.63003 0.93937 0.0
C151 C 0.45051 0.63283 0.85634 0.0
C152 C 0.44533 0.71874 0.90803 0.0
O153 O 0.41646 0.61449 0.93105 0.0
O154 O 0.46618 0.65726 0.92686 0.0
O155 O 0.45309 0.70944 0.88642 0.0
O156 O 0.42744 0.69481 0.92425 0.0
C157 C 0.35857 0.62896 0.88693 0.0
O158 O 0.46541 0.66291 0.86526 0.0
O159 O 0.42263 0.61298 0.86786 0.0
In160 In 0.80225 0.41311 0.06259 0.0
O161 O 0.82398 0.4103 0.10362 0.0
O162 O 0.84198 0.45914 0.08591 0.0
C163 C 0.76558 0.34437 0.05614 0.0
C164 C 0.75834 0.43589 0.07204 0.0
C165 C 0.84415 0.43342 0.01901 0.0
O166 O 0.79367 0.3591 0.0685 0.0
O167 O 0.75614 0.36422 0.04698 0.0
O168 O 0.81448 0.42917 0.01806 0.0
O169 O 0.85225 0.42682 0.0416 0.0
C170 C 0.84382 0.44213 0.10535 0.0
O171 O 0.78014 0.44765 0.05323 0.0
O172 O 0.75877 0.41279 0.08597 0.0
In173 In 0.42644 0.79564 0.23267 0.0
O174 O 0.46776 0.78107 0.23729 0.0
O175 O 0.42156 0.74523 0.21845 0.0
C176 C 0.4545 0.83964 0.27434 0.0
C177 C 0.44437 0.83706 0.18897 0.0
C178 C 0.35851 0.75889 0.24291 0.0
O179 O 0.44598 0.80859 0.27614 0.0
O180 O 0.44863 0.84834 0.25167 0.0
O181 O 0.37057 0.76245 0.21934 0.0
O182 O 0.38062 0.77347 0.26113 0.0
C183 C 0.45084 0.75228 0.22625 0.0
O184 O 0.41739 0.8282 0.20219 0.0
O185 O 0.4617 0.82418 0.19726 0.0
H186 H 0.14697 0.60172 0.26507 0.0
H187 H 0.15876 0.68602 0.31338 0.0
H188 H 0.20381 0.6381 0.24555 0.0
H189 H 0.21506 0.72263 0.29367 0.0
H190 H 0.3279 0.753 0.29148 0.0
H191 H 0.26742 0.72131 0.30214 0.0
H192 H 0.24445 0.68952 0.21872 0.0
H193 H 0.30555 0.72131 0.20802 0.0
C194 C 0.1612 0.62843 0.27059 0.0
C195 C 0.14865 0.64125 0.29057 0.0
C196 C 0.19377 0.64923 0.25956 0.0
C197 C 0.21421 0.68309 0.26847 0.0
C198 C 0.20025 0.69649 0.2868 0.0
C199 C 0.16789 0.67573 0.29783 0.0
C200 C 0.31001 0.73938 0.27535 0.0
C201 C 0.32152 0.73965 0.24892 0.0
C202 C 0.27526 0.72144 0.2814 0.0
C203 C 0.25102 0.70318 0.2612 0.0
C204 C 0.26248 0.70331 0.23472 0.0
C205 C 0.29742 0.72155 0.2286 0.0
H206 H 0.57683 0.13429 0.43303 0.0
H207 H 0.49398 0.14098 0.46936 0.0
H208 H 0.59756 0.19009 0.41174 0.0
H209 H 0.51393 0.19618 0.44766 0.0
H210 H 0.59439 0.31 0.45156 0.0
H211 H 0.56456 0.24931 0.46083 0.0
H212 H 0.59042 0.23017 0.38112 0.0
H213 H 0.62085 0.29172 0.37181 0.0
C214 C 0.5622 0.14703 0.43538 0.0
C215 C 0.53391 0.13355 0.4528 0.0
C216 C 0.5741 0.17902 0.4233 0.0
C217 C 0.55781 0.19789 0.42852 0.0
C218 C 0.52748 0.18262 0.44374 0.0
C219 C 0.51578 0.15087 0.4559 0.0
C220 C 0.59363 0.29294 0.43589 0.0
C221 C 0.61005 0.30568 0.41098 0.0
C222 C 0.57618 0.25802 0.44111 0.0
C223 C 0.5747 0.23478 0.42159 0.0
C224 C 0.59107 0.24743 0.39655 0.0
C225 C 0.60843 0.2826 0.39122 0.0
H226 H 0.50171 0.61177 0.62124 0.0
H227 H 0.41956 0.50739 0.61932 0.0
H228 H 0.4652 0.63011 0.59976 0.0
H229 H 0.38246 0.52571 0.59819 0.0
H230 H 0.33005 0.57315 0.54842 0.0
H231 H 0.37008 0.55346 0.55929 0.0
H232 H 0.41702 0.63247 0.61975 0.0
H233 H 0.3775 0.65212 0.60884 0.0
C234 C 0.47603 0.59268 0.6155 0.0
C235 C 0.46332 0.55824 0.62193 0.0
C236 C 0.45503 0.60317 0.60347 0.0
C237 C 0.42073 0.57945 0.59783 0.0
C238 C 0.40878 0.54458 0.60226 0.0
C239 C 0.42997 0.53404 0.61425 0.0
C240 C 0.34907 0.58634 0.56393 0.0
C241 C 0.35067 0.61419 0.57778 0.0
C242 C 0.37189 0.57502 0.57018 0.0
C243 C 0.39693 0.5916 0.59018 0.0
C244 C 0.3985 0.61954 0.60386 0.0
C245 C 0.37564 0.63065 0.59777 0.0
H246 H 0.92165 0.38382 0.81924 0.0
H247 H 0.94131 0.4621 0.76069 0.0
H248 H 0.86546 0.34728 0.7995 0.0
H249 H 0.88464 0.42557 0.74089 0.0
H250 H 0.78103 0.33691 0.70668 0.0
H251 H 0.84199 0.36836 0.71811 0.0
H252 H 0.81613 0.3574 0.80305 0.0
H253 H 0.75583 0.3264 0.79178 0.0
C254 C 0.91427 0.39266 0.80153 0.0
C255 C 0.93561 0.42566 0.79144 0.0
C256 C 0.88205 0.37195 0.79041 0.0
C257 C 0.87042 0.38388 0.76904 0.0
C258 C 0.89296 0.41573 0.75735 0.0
C259 C 0.92539 0.43655 0.76855 0.0
C260 C 0.7885 0.34132 0.72776 0.0
C261 C 0.76368 0.32918 0.74835 0.0
C262 C 0.82331 0.3593 0.73427 0.0
C263 C 0.8338 0.3649 0.76145 0.0
C264 C 0.80887 0.35289 0.78191 0.0
C265 C 0.77429 0.33537 0.77545 0.0
H266 H 0.45993 0.9067 0.96324 0.0
H267 H 0.56423 0.93305 0.94915 0.0
H268 H 0.44003 0.85108 0.9425 0.0
H269 H 0.54433 0.87705 0.92842 0.0
H270 H 0.49109 0.77567 0.87995 0.0
H271 H 0.51032 0.83532 0.89103 0.0
H272 H 0.44406 0.80233 0.96091 0.0
H273 H 0.42495 0.74313 0.94991 0.0
C274 C 0.47856 0.90078 0.95513 0.0
C275 C 0.51359 0.92394 0.95803 0.0
C276 C 0.4672 0.86891 0.94343 0.0
C277 C 0.49063 0.85945 0.93436 0.0
C278 C 0.52568 0.88365 0.93522 0.0
C279 C 0.53709 0.91571 0.94699 0.0
C280 C 0.48056 0.78126 0.89759 0.0
C281 C 0.45651 0.75476 0.91408 0.0
C282 C 0.49164 0.81536 0.90395 0.0
C283 C 0.47851 0.82349 0.9267 0.0
C284 C 0.45424 0.79689 0.94298 0.0
C285 C 0.44346 0.76295 0.93679 0.0
H286 H 0.66752 0.55672 0.1189 0.0
H287 H 0.58359 0.45324 0.11883 0.0
H288 H 0.70415 0.53771 0.09786 0.0
H289 H 0.61964 0.43419 0.09742 0.0
H290 H 0.70562 0.40953 0.10779 0.0
H291 H 0.66646 0.42989 0.11798 0.0
H292 H 0.71695 0.51034 0.05894 0.0
H293 H 0.75657 0.4899 0.04878 0.0
C294 C 0.65663 0.53017 0.11332 0.0
C295 C 0.62286 0.50638 0.12035 0.0
C296 C 0.67755 0.51922 0.10141 0.0
C297 C 0.66494 0.48433 0.09647 0.0
C298 C 0.6303 0.46111 0.10149 0.0
C299 C 0.60954 0.47201 0.11342 0.0
C300 C 0.70831 0.43146 0.09686 0.0
C301 C 0.73419 0.44811 0.0775 0.0
C302 C 0.68566 0.44298 0.10253 0.0
C303 C 0.68836 0.47157 0.08907 0.0
C304 C 0.71425 0.48829 0.06966 0.0
C305 C 0.73684 0.47654 0.06381 0.0
H306 H 0.41898 0.93104 0.51071 0.0
H307 H 0.50002 0.90793 0.50396 0.0
H308 H 0.38169 0.87441 0.53027 0.0
H309 H 0.46318 0.85176 0.52364 0.0
H310 H 0.37389 0.7428 0.51204 0.0
H311 H 0.41341 0.80262 0.50241 0.0
H312 H 0.37038 0.83188 0.56793 0.0
H313 H 0.33042 0.7715 0.57761 0.0
C314 C 0.42914 0.91429 0.51432 0.0
C315 C 0.4622 0.92362 0.50566 0.0
C316 C 0.40781 0.88187 0.5254 0.0
C317 C 0.41931 0.85838 0.52794 0.0
C318 C 0.45335 0.86899 0.52137 0.0
C319 C 0.47452 0.90121 0.51032 0.0
C320 C 0.37285 0.76192 0.52447 0.0
C321 C 0.34906 0.75243 0.54558 0.0
C322 C 0.39571 0.79624 0.5191 0.0
C323 C 0.39528 0.82201 0.53461 0.0
C324 C 0.3713 0.81259 0.55564 0.0
C325 C 0.34853 0.77808 0.5612 0.0
H326 H 0.50651 0.385 0.67033 0.0
H327 H 0.59576 0.47918 0.69332 0.0
H328 H 0.52903 0.35276 0.69336 0.0
H329 H 0.61868 0.44707 0.71626 0.0
H330 H 0.6651 0.37541 0.70259 0.0
H331 H 0.63983 0.41092 0.69378 0.0
H332 H 0.54907 0.33936 0.73723 0.0
H333 H 0.57449 0.30384 0.74622 0.0
C334 C 0.53028 0.39871 0.68135 0.0
C335 C 0.54927 0.43443 0.68046 0.0
C336 C 0.54327 0.38034 0.69443 0.0
C337 C 0.57578 0.39742 0.70639 0.0
C338 C 0.59368 0.43327 0.70704 0.0
C339 C 0.58045 0.45163 0.69425 0.0
C340 C 0.63995 0.3675 0.71058 0.0
C341 C 0.62169 0.33676 0.72494 0.0
C342 C 0.62558 0.38796 0.70573 0.0
C343 C 0.59248 0.37794 0.71488 0.0
C344 C 0.57458 0.34766 0.72989 0.0
C345 C 0.58915 0.32739 0.73505 0.0
H346 H 0.16509 0.60073 0.83073 0.0
H347 H 0.14513 0.49905 0.84729 0.0
H348 H 0.2212 0.62455 0.85171 0.0
H349 H 0.20169 0.52273 0.86805 0.0
H350 H 0.30302 0.5813 0.91526 0.0
H351 H 0.24271 0.55876 0.90449 0.0
H352 H 0.27187 0.6242 0.83423 0.0
H353 H 0.33177 0.6467 0.84501 0.0
C354 C 0.17243 0.58357 0.8397 0.0
C355 C 0.15094 0.54817 0.83764 0.0
C356 C 0.20464 0.59712 0.85139 0.0
C357 C 0.21612 0.57551 0.86108 0.0
C358 C 0.19352 0.54003 0.86085 0.0
C359 C 0.16115 0.52644 0.84911 0.0
C360 C 0.29645 0.59095 0.89761 0.0
C361 C 0.3221 0.61576 0.88096 0.0
C362 C 0.26196 0.57798 0.89142 0.0
C363 C 0.25251 0.58987 0.86865 0.0
C364 C 0.27826 0.61493 0.85221 0.0
C365 C 0.31262 0.62765 0.85825 0.0
H366 H 0.60909 0.13215 0.02872 0.0
H367 H 0.70071 0.14806 0.98915 0.0
H368 H 0.64167 0.18763 0.05111 0.0
H369 H 0.73336 0.20329 0.01155 0.0
H370 H 0.78574 0.29758 0.06514 0.0
H371 H 0.75359 0.23629 0.0556 0.0
H372 H 0.66817 0.24576 0.02882 0.0
H373 H 0.70024 0.3068 0.03813 0.0
C374 C 0.63642 0.14695 0.02569 0.0
C375 C 0.65248 0.13593 0.00732 0.0
C376 C 0.65499 0.17881 0.03822 0.0
C377 C 0.68999 0.19995 0.03283 0.0
C378 C 0.70651 0.18754 0.01624 0.0
C379 C 0.68787 0.15593 0.00344 0.0
C380 C 0.75997 0.28645 0.05747 0.0
C381 C 0.74557 0.307 0.05218 0.0
C382 C 0.74161 0.25142 0.05201 0.0
C383 C 0.70832 0.2362 0.04158 0.0
C384 C 0.69358 0.25663 0.03721 0.0
C385 C 0.71206 0.29165 0.04231 0.0
H386 H 0.57243 0.67279 0.16279 0.0
H387 H 0.48503 0.58242 0.19401 0.0
H388 H 0.5529 0.70823 0.18474 0.0
H389 H 0.46527 0.61768 0.2162 0.0
H390 H 0.41775 0.68767 0.20581 0.0
H391 H 0.44153 0.65115 0.19585 0.0
H392 H 0.5391 0.7282 0.22702 0.0
H393 H 0.5153 0.7649 0.23685 0.0
C394 C 0.54978 0.6607 0.17535 0.0
C395 C 0.53045 0.62506 0.17715 0.0
C396 C 0.53847 0.68091 0.18783 0.0
C397 C 0.50732 0.66575 0.20199 0.0
C398 C 0.48916 0.63009 0.20518 0.0
C399 C 0.50064 0.60992 0.19285 0.0
C400 C 0.44418 0.69668 0.21079 0.0
C401 C 0.46469 0.72923 0.22195 0.0
C402 C 0.45775 0.67563 0.2053 0.0
C403 C 0.49222 0.68673 0.2107 0.0
C404 C 0.51253 0.719 0.22247 0.0
C405 C 0.49887 0.73997 0.22814 0.0
H406 H 0.92195 0.56975 0.3237 0.0
H407 H 0.94028 0.49373 0.35937 0.0
H408 H 0.86769 0.54592 0.34783 0.0
H409 H 0.88565 0.46945 0.38352 0.0
H410 H 0.76504 0.40934 0.37572 0.0
H411 H 0.82568 0.43769 0.36449 0.0
H412 H 0.83833 0.53329 0.39307 0.0
H413 H 0.77769 0.50494 0.40436 0.0
C414 C 0.91476 0.54861 0.33747 0.0
C415 C 0.93521 0.53366 0.33991 0.0
C416 C 0.88373 0.53492 0.35126 0.0
C417 C 0.8723 0.50565 0.36742 0.0
C418 C 0.89373 0.49187 0.37105 0.0
C419 C 0.92507 0.50592 0.35752 0.0
C420 C 0.78088 0.43629 0.37998 0.0
C421 C 0.76657 0.45496 0.3907 0.0
C422 C 0.81565 0.45249 0.37374 0.0
C423 C 0.83675 0.48775 0.37786 0.0
C424 C 0.82265 0.50614 0.38953 0.0
C425 C 0.78796 0.48988 0.39603 0.0
H426 H 0.11151 0.54228 0.37552 0.0
H427 H 0.11638 0.638 0.39137 0.0
H428 H 0.13971 0.54654 0.4189 0.0
H429 H 0.14501 0.64292 0.43424 0.0
H430 H 0.18241 0.63725 0.51649 0.0
H431 H 0.14212 0.62141 0.4792 0.0
H432 H 0.19779 0.58288 0.43479 0.0
H433 H 0.23752 0.59788 0.47247 0.0
C434 C 0.11778 0.56367 0.38875 0.0
C435 C 0.1116 0.58964 0.38055 0.0
C436 C 0.13425 0.56639 0.41333 0.0
C437 C 0.14484 0.5952 0.42995 0.0
C438 C 0.13683 0.62019 0.42218 0.0
C439 C 0.12046 0.61745 0.39767 0.0
C440 C 0.18589 0.62518 0.49883 0.0
C441 C 0.2133 0.61911 0.49724 0.0
C442 C 0.16283 0.61613 0.47746 0.0
C443 C 0.16678 0.60099 0.45396 0.0
C444 C 0.19369 0.59405 0.45274 0.0
C445 C 0.21667 0.60295 0.4742 0.0
H446 H 0.5806 0.08875 0.55157 0.0
H447 H 0.50986 0.12602 0.55001 0.0
H448 H 0.60285 0.11732 0.59508 0.0
H449 H 0.53233 0.15502 0.59292 0.0
H450 H 0.56403 0.18613 0.6791 0.0
H451 H 0.53775 0.14759 0.64097 0.0
H452 H 0.63757 0.17762 0.60883 0.0
H453 H 0.66389 0.21576 0.64733 0.0
C454 C 0.56936 0.10243 0.56084 0.0
C455 C 0.54365 0.10534 0.54747 0.0
C456 C 0.58232 0.1191 0.58553 0.0
C457 C 0.56956 0.13868 0.59732 0.0
C458 C 0.54256 0.13995 0.58454 0.0
C459 C 0.52979 0.1235 0.5599 0.0
C460 C 0.58037 0.18439 0.66395 0.0
C461 C 0.61602 0.20418 0.66605 0.0
C462 C 0.56531 0.16234 0.6421 0.0
C463 C 0.58556 0.15959 0.62184 0.0
C464 C 0.62126 0.17882 0.62428 0.0
C465 C 0.63634 0.20091 0.64618 0.0
H466 H 0.49263 0.5209 0.73361 0.0
H467 H 0.5273 0.62149 0.70123 0.0
H468 H 0.4852 0.53999 0.77801 0.0
H469 H 0.51871 0.64025 0.74514 0.0
H470 H 0.51137 0.67023 0.83019 0.0
H471 H 0.53326 0.65244 0.7922 0.0
H472 H 0.44254 0.5528 0.79417 0.0
H473 H 0.4212 0.57033 0.83246 0.0
C474 C 0.49951 0.54731 0.73617 0.0
C475 C 0.51012 0.56961 0.71393 0.0
C476 C 0.49483 0.55814 0.76149 0.0
C477 C 0.50072 0.59145 0.765 0.0
C478 C 0.51401 0.61446 0.74323 0.0
C479 C 0.51872 0.60366 0.71799 0.0
C480 C 0.49629 0.64445 0.8226 0.0
C481 C 0.46445 0.62175 0.83411 0.0
C482 C 0.5088 0.63427 0.80085 0.0
C483 C 0.48968 0.6012 0.79012 0.0
C484 C 0.45823 0.57826 0.80218 0.0
C485 C 0.4458 0.58841 0.82396 0.0
H486 H 0.99215 0.45679 0.89858 0.0
H487 H 0.94667 0.51206 0.86465 0.0
H488 H 0.96153 0.44973 0.94094 0.0
H489 H 0.91705 0.50654 0.90732 0.0
H490 H 0.83044 0.4419 0.96676 0.0
H491 H 0.86921 0.46018 0.92825 0.0
H492 H 0.95078 0.47218 0.98069 0.0
H493 H 0.91151 0.4526 0.01897 0.0
C494 C 0.97669 0.46868 0.90072 0.0
C495 C 0.97178 0.48511 0.87864 0.0
C496 C 0.95903 0.4646 0.92492 0.0
C497 C 0.93631 0.47708 0.92744 0.0
C498 C 0.93365 0.49588 0.90588 0.0
C499 C 0.95097 0.49955 0.88162 0.0
C500 C 0.85667 0.44854 0.97003 0.0
C501 C 0.86788 0.44558 -0.00421 0.0
C502 C 0.87907 0.45938 0.94802 0.0
C503 C 0.91328 0.46786 0.95133 0.0
C504 C 0.92456 0.46549 0.97729 0.0
C505 C 0.90207 0.45435 -0.00075 0.0
H506 H 0.45666 0.93714 0.03871 0.0
H507 H 0.56073 0.99041 0.06684 0.0
H508 H 0.43791 0.9085 0.08229 0.0
H509 H 0.54197 0.96233 0.11087 0.0
H510 H 0.50284 0.86179 0.15951 0.0
H511 H 0.52179 0.90267 0.12244 0.0
H512 H 0.43108 0.91031 0.13112 0.0
H513 H 0.41183 0.86885 0.16806 0.0
C514 C 0.47533 0.94358 0.05463 0.0
C515 C 0.51015 0.96567 0.0494 0.0
C516 C 0.46462 0.92723 0.07962 0.0
C517 C 0.48855 0.93264 0.09987 0.0
C518 C 0.52302 0.95715 0.09545 0.0
C519 C 0.53373 0.9736 0.07042 0.0
C520 C 0.48697 0.87224 0.15355 0.0
C521 C 0.45571 0.86189 0.16651 0.0
C522 C 0.49803 0.89601 0.13252 0.0
C523 C 0.47808 0.90998 0.12396 0.0
C524 C 0.44696 0.89991 0.13717 0.0
C525 C 0.43592 0.87615 0.15828 0.0
H526 H 0.59943 0.54502 0.23292 0.0
H527 H 0.55994 0.44374 0.20054 0.0
H528 H 0.60793 0.52539 0.27683 0.0
H529 H 0.56897 0.42424 0.24404 0.0
H530 H 0.57561 0.39475 0.33035 0.0
H531 H 0.55473 0.41361 0.2923 0.0
H532 H 0.6501 0.50915 0.29036 0.0
H533 H 0.6707 0.49053 0.32846 0.0
C534 C 0.5917 0.51838 0.23545 0.0
C535 C 0.57934 0.49594 0.21337 0.0
C536 C 0.59691 0.50722 0.26043 0.0
C537 C 0.58962 0.4734 0.26376 0.0
C538 C 0.57473 0.45039 0.24221 0.0
C539 C 0.5697 0.46157 0.21726 0.0
C540 C 0.592 0.41983 0.32183 0.0
C541 C 0.62487 0.44108 0.33222 0.0
C542 C 0.58005 0.43062 0.30008 0.0
C543 C 0.60069 0.46294 0.28842 0.0
C544 C 0.63333 0.48436 0.29919 0.0
C545 C 0.64529 0.47354 0.32082 0.0
H546 H 0.48325 0.98583 0.39649 0.0
H547 H 0.53995 0.94032 0.42762 0.0
H548 H 0.47661 0.9572 0.35325 0.0
H549 H 0.53442 0.91245 0.38415 0.0
H550 H 0.46504 0.82576 0.32589 0.0
H551 H 0.48598 0.86461 0.36419 0.0
H552 H 0.49927 0.94726 0.31242 0.0
H553 H 0.47732 0.90795 0.27418 0.0
C554 C 0.49549 0.97081 0.39364 0.0
C555 C 0.51188 0.96502 0.41531 0.0
C556 C 0.49166 0.9543 0.3689 0.0
C557 C 0.50438 0.93192 0.36541 0.0
C558 C 0.52354 0.92878 0.3864 0.0
C559 C 0.52707 0.94501 0.41116 0.0
C560 C 0.47268 0.85227 0.32265 0.0
C561 C 0.46932 0.86376 0.29712 0.0
C562 C 0.48502 0.87469 0.34455 0.0
C563 C 0.49448 0.90918 0.34139 0.0
C564 C 0.49192 0.92083 0.31562 0.0
C565 C 0.47944 0.89833 0.29371 0.0
H566 H 0.58118 0.51984 0.57571 0.0
H567 H 0.52926 0.41045 0.58584 0.0
H568 H 0.60471 0.51425 0.53248 0.0
H569 H 0.55367 0.40523 0.54341 0.0
H570 H 0.6471 0.42022 0.49456 0.0
H571 H 0.62093 0.43047 0.53391 0.0
H572 H 0.58186 0.4804 0.48313 0.0
H573 H 0.60759 0.46959 0.44337 0.0
C574 C 0.57422 0.49464 0.56847 0.0
C575 C 0.55383 0.46562 0.58436 0.0
C576 C 0.58782 0.4915 0.54388 0.0
C577 C 0.58141 0.45939 0.53507 0.0
C578 C 0.55941 0.4303 0.55011 0.0
C579 C 0.54552 0.43334 0.57435 0.0
C580 C 0.63324 0.43369 0.49178 0.0
C581 C 0.6292 0.44396 0.46593 0.0
C582 C 0.61817 0.43939 0.51424 0.0
C583 C 0.59924 0.45594 0.51136 0.0
C584 C 0.59637 0.46759 0.48574 0.0
C585 C 0.611 0.46135 0.46311 0.0
H586 H 0.09491 0.57214 0.73692 0.0
H587 H 0.13624 0.5051 0.74288 0.0
H588 H 0.12244 0.59202 0.69258 0.0
H589 H 0.16383 0.52482 0.699 0.0
H590 H 0.1962 0.5534 0.61276 0.0
H591 H 0.1561 0.52759 0.65019 0.0
H592 H 0.18353 0.62779 0.67968 0.0
H593 H 0.22331 0.65362 0.642 0.0
C594 C 0.10906 0.56101 0.72831 0.0
C595 C 0.11352 0.53712 0.74306 0.0
C596 C 0.12509 0.57258 0.70318 0.0
C597 C 0.14551 0.56016 0.69241 0.0
C598 C 0.14804 0.53466 0.70656 0.0
C599 C 0.13232 0.52338 0.73167 0.0
C600 C 0.19349 0.56991 0.62714 0.0
C601 C 0.21314 0.60553 0.62464 0.0
C602 C 0.17053 0.55513 0.64855 0.0
C603 C 0.16667 0.57565 0.66789 0.0
C604 C 0.18558 0.61128 0.66491 0.0
C605 C 0.20862 0.62608 0.6435 0.0
H606 H 0.55871 0.08691 0.91138 0.0
H607 H 0.66672 0.12326 0.90893 0.0
H608 H 0.5627 0.11347 0.86731 0.0
H609 H 0.67084 0.14992 0.86512 0.0
H610 H 0.60174 0.21363 0.81581 0.0
H611 H 0.59073 0.17538 0.85405 0.0
H612 H 0.65254 0.13898 0.81665 0.0
H613 H 0.66365 0.17733 0.77837 0.0
C614 C 0.58309 0.09988 0.90108 0.0
C615 C 0.61244 0.10322 0.91348 0.0
C616 C 0.58544 0.1153 0.87604 0.0
C617 C 0.61711 0.13394 0.8629 0.0
C618 C 0.64605 0.13552 0.87465 0.0
C619 C 0.64376 0.12044 0.89976 0.0
C620 C 0.6127 0.19722 0.81564 0.0
C621 C 0.63377 0.19863 0.79425 0.0
C622 C 0.60616 0.17512 0.83741 0.0
C623 C 0.62078 0.15421 0.83831 0.0
C624 C 0.64112 0.15498 0.81655 0.0
C625 C 0.64742 0.17687 0.79466 0.0
H626 H 0.56025 0.59075 0.06346 0.0
H627 H 0.46406 0.56827 0.09868 0.0
H628 H 0.54026 0.59714 0.01896 0.0
H629 H 0.44434 0.57525 0.05466 0.0
H630 H 0.40955 0.57241 0.9694 0.0
H631 H 0.4284 0.55361 0.00867 0.0
H632 H 0.52947 0.64118 0.00023 0.0
H633 H 0.51078 0.65961 0.96073 0.0
C634 C 0.53462 0.58648 0.06153 0.0
C635 C 0.51378 0.57935 0.08444 0.0
C636 C 0.52329 0.59044 0.03618 0.0
C637 C 0.49085 0.58703 0.03335 0.0
C638 C 0.46934 0.57781 0.05606 0.0
C639 C 0.48071 0.57406 0.08132 0.0
C640 C 0.43586 0.58746 0.97581 0.0
C641 C 0.45862 0.61765 0.96219 0.0
C642 C 0.44664 0.57672 -0.0017 0.0
C643 C 0.4804 0.59594 0.0076 0.0
C644 C 0.50342 0.62554 -0.00663 0.0
C645 C 0.49263 0.63629 0.97091 0.0
H646 H 0.94751 0.56593 0.24268 0.0
H647 H 0.98504 0.49546 0.24136 0.0
H648 H 0.9188 0.54349 0.19959 0.0
H649 H 0.95636 0.47286 0.19787 0.0
H650 H 0.88715 0.50995 0.11347 0.0
H651 H 0.92656 0.53704 0.15102 0.0
H652 H 0.89454 0.43806 0.18577 0.0
H653 H 0.85532 0.4109 0.14801 0.0
C654 C 0.95028 0.54619 0.2327 0.0
C655 C 0.96839 0.53236 0.24518 0.0
C656 C 0.93393 0.53337 0.20804 0.0
C657 C 0.93511 0.50622 0.19546 0.0
C658 C 0.95474 0.49355 0.20728 0.0
C659 C 0.97143 0.50667 0.23193 0.0
C660 C 0.88862 0.49396 0.12907 0.0
C661 C 0.86794 0.45832 0.12795 0.0
C662 C 0.9112 0.50949 0.15055 0.0
C663 C 0.91368 0.48969 0.17132 0.0
C664 C 0.89354 0.45397 0.16987 0.0
C665 C 0.87083 0.43844 0.14842 0.0
loop_
_geom_bond_atom_site_label_1
_geom_bond_atom_site_label_2
_geom_bond_distance
_geom_bond_site_symmetry_2
_ccdc_geom_bond_type
H0 C6 0.930 . S
H1 C9 0.931 . S
H2 C11 0.931 . S
H3 C13 0.930 . S
H4 C15 0.930 . S
H5 C17 0.931 1_455 S
C6 H0 0.930 . S
C6 C7 1.380 . S
C6 C8 1.394 . S
C7 C6 1.380 . S
C7 C11 1.382 . S
C8 C6 1.394 . S
C8 C9 1.400 . S
C9 H1 0.931 . S
C9 C8 1.400 . S
C9 C10 1.375 . S
C10 C9 1.375 . S
C10 C11 1.415 . S
C10 C12 1.501 1_455 S
C11 H2 0.931 . S
C11 C7 1.382 . S
C11 C10 1.415 . S
C12 C10 1.501 1_655 S
C12 C13 1.384 . S
C12 C17 1.408 . S
C13 H3 0.930 . S
C13 C12 1.384 . S
C13 C14 1.389 . S
C14 C13 1.389 . S
C14 C15 1.405 . S
C15 H4 0.930 . S
C15 C14 1.405 . S
C15 C16 1.364 . S
C16 C15 1.364 . S
C16 C17 1.400 . S
C17 H5 0.931 1_655 S
C17 C12 1.408 . S
C17 C16 1.400 . S
H18 C24 0.930 . S
H19 C27 0.931 . S
H20 C29 0.931 . S
H21 C31 0.930 . S
H22 C33 0.930 . S
H23 C35 0.931 1_545 S
C24 H18 0.930 . S
C24 C25 1.380 . S
C24 C26 1.394 . S
C25 C24 1.380 . S
C25 C29 1.382 . S
C26 C24 1.394 . S
C26 C27 1.400 . S
C27 H19 0.931 . S
C27 C26 1.400 . S
C27 C28 1.375 . S
C28 C27 1.375 . S
C28 C29 1.415 . S
C28 C30 1.501 1_545 S
C29 H20 0.931 . S
C29 C25 1.382 . S
C29 C28 1.415 . S
C30 C28 1.501 1_565 S
C30 C31 1.384 . S
C30 C35 1.408 . S
C31 H21 0.930 . S
C31 C30 1.384 . S
C31 C32 1.389 . S
C32 C31 1.389 . S
C32 C33 1.405 . S
C33 H22 0.930 . S
C33 C32 1.405 . S
C33 C34 1.364 . S
C34 C33 1.364 . S
C34 C35 1.400 . S
C35 H23 0.931 1_565 S
C35 C30 1.408 . S
C35 C34 1.400 . S
H36 C42 0.930 . S
H37 C45 0.931 . S
H38 C47 0.931 . S
H39 C49 0.930 . S
H40 C51 0.930 . S
H41 C53 0.931 . S
C42 H36 0.930 . S
C42 C43 1.380 . S
C42 C44 1.394 . S
C43 C42 1.380 . S
C43 C47 1.382 . S
C44 C42 1.394 . S
C44 C45 1.400 . S
C45 H37 0.931 . S
C45 C44 1.400 . S
C45 C46 1.375 . S
C46 C45 1.375 . S
C46 C47 1.415 . S
C46 C48 1.501 . S
C47 H38 0.931 . S
C47 C43 1.382 . S
C47 C46 1.415 . S
C48 C46 1.501 . S
C48 C49 1.384 . S
C48 C53 1.408 . S
C49 H39 0.930 . S
C49 C48 1.384 . S
C49 C50 1.389 . S
C50 C49 1.389 . S
C50 C51 1.405 . S
C51 H40 0.930 . S
C51 C50 1.405 . S
C51 C52 1.364 . S
C52 C51 1.364 . S
C52 C53 1.400 . S
C53 H41 0.931 . S
C53 C48 1.408 . S
C53 C52 1.400 . S
H54 C60 0.930 . S
H55 C63 0.931 . S
H56 C65 0.931 . S
H57 C67 0.930 . S
H58 C69 0.930 . S
H59 C71 0.931 1_455 S
C60 H54 0.930 . S
C60 C61 1.380 . S
C60 C62 1.394 . S
C61 C60 1.380 . S
C61 C65 1.382 . S
C62 C60 1.394 . S
C62 C63 1.400 . S
C63 H55 0.931 . S
C63 C62 1.400 . S
C63 C64 1.375 . S
C64 C63 1.375 . S
C64 C65 1.415 . S
C64 C66 1.501 1_455 S
C65 H56 0.931 . S
C65 C61 1.382 . S
C65 C64 1.415 . S
C66 C64 1.501 1_655 S
C66 C67 1.384 . S
C66 C71 1.408 . S
C67 H57 0.930 . S
C67 C66 1.384 . S
C67 C68 1.389 . S
C68 C67 1.389 . S
C68 C69 1.405 . S
C69 H58 0.930 . S
C69 C68 1.405 . S
C69 C70 1.364 . S
C70 C69 1.364 . S
C70 C71 1.400 . S
C71 H59 0.931 1_655 S
C71 C66 1.408 . S
C71 C70 1.400 . S
H72 C78 0.930 . S
H73 C81 0.931 . S
H74 C83 0.931 1_545 S
H75 C85 0.930 . S
H76 C87 0.930 . S
H77 C89 0.931 . S
C78 H72 0.930 . S
C78 C79 1.380 . S
C78 C80 1.394 1_554 S
C79 C78 1.380 . S
C79 C83 1.382 . S
C80 C78 1.394 1_556 S
C80 C81 1.400 . S
C81 H73 0.931 . S
C81 C80 1.400 . S
C81 C82 1.375 . S
C82 C81 1.375 . S
C82 C83 1.415 1_556 S
C82 C84 1.501 1_565 S
C83 H74 0.931 1_565 S
C83 C79 1.382 . S
C83 C82 1.415 1_554 S
C84 C82 1.501 1_545 S
C84 C85 1.384 1_556 S
C84 C89 1.408 . S
C85 H75 0.930 . S
C85 C84 1.384 1_554 S
C85 C86 1.389 1_554 S
C86 C85 1.389 1_556 S
C86 C87 1.405 . S
C87 H76 0.930 . S
C87 C86 1.405 . S
C87 C88 1.364 . S
C88 C87 1.364 . S
C88 C89 1.400 . S
C89 H77 0.931 . S
C89 C84 1.408 . S
C89 C88 1.400 . S
H90 C96 0.930 . S
H91 C99 0.931 . S
H92 C101 0.931 . S
H93 C103 0.930 . S
H94 C105 0.930 . S
H95 C107 0.931 . S
C96 H90 0.930 . S
C96 C97 1.380 . S
C96 C98 1.394 . S
C97 C96 1.380 . S
C97 C101 1.382 . S
C98 C96 1.394 . S
C98 C99 1.400 . S
C99 H91 0.931 . S
C99 C98 1.400 . S
C99 C100 1.375 . S
C100 C99 1.375 . S
C100 C101 1.415 . S
C100 C102 1.501 . S
C101 H92 0.931 . S
C101 C97 1.382 . S
C101 C100 1.415 . S
C102 C100 1.501 . S
C102 C103 1.384 . S
C102 C107 1.408 . S
C103 H93 0.930 . S
C103 C102 1.384 . S
C103 C104 1.389 . S
C104 C103 1.389 . S
C104 C105 1.405 . S
C105 H94 0.930 . S
C105 C104 1.405 . S
C105 C106 1.364 . S
C106 C105 1.364 . S
C106 C107 1.400 . S
C107 H95 0.931 . S
C107 C102 1.408 . S
C107 C106 1.400 . S
In108 O109 2.294 . S
In108 O110 2.326 . S
In108 O114 2.266 . S
In108 O115 2.326 . S
In108 O116 2.266 . S
In108 O117 2.326 . S
In108 O119 2.294 . S
In108 O120 2.326 . S
O109 In108 2.294 . S
O109 C118 1.240 . S
O110 In108 2.326 . S
O110 C118 1.252 . S
C111 O114 1.252 . S
C111 O115 1.260 . S
C112 O119 1.240 . S
C112 O120 1.252 . S
C113 O116 1.252 . S
C113 O117 1.260 . S
O114 In108 2.266 . S
O114 C111 1.252 . S
O115 In108 2.326 . S
O115 C111 1.260 . S
O116 In108 2.266 . S
O116 C113 1.252 . S
O117 In108 2.326 . S
O117 C113 1.260 . S
C118 O109 1.240 . S
C118 O110 1.252 . S
O119 In108 2.294 . S
O119 C112 1.240 . S
O120 In108 2.326 . S
O120 C112 1.252 . S
In121 O122 2.294 . S
In121 O123 2.326 . S
In121 O127 2.266 . S
In121 O128 2.326 . S
In121 O129 2.266 . S
In121 O130 2.326 . S
In121 O132 2.294 . S
In121 O133 2.326 . S
O122 In121 2.294 . S
O122 C131 1.240 . S
O123 In121 2.326 . S
O123 C131 1.252 . S
C124 O127 1.252 . S
C124 O128 1.260 . S
C125 O132 1.240 . S
C125 O133 1.252 . S
C126 O129 1.252 . S
C126 O130 1.260 . S
O127 In121 2.266 . S
O127 C124 1.252 . S
O128 In121 2.326 . S
O128 C124 1.260 . S
O129 In121 2.266 . S
O129 C126 1.252 . S
O130 In121 2.326 . S
O130 C126 1.260 . S
C131 O122 1.240 . S
C131 O123 1.252 . S
O132 In121 2.294 . S
O132 C125 1.240 . S
O133 In121 2.326 . S
O133 C125 1.252 . S
In134 O135 2.294 . S
In134 O136 2.326 . S
In134 O140 2.266 . S
In134 O141 2.326 . S
In134 O142 2.266 . S
In134 O143 2.326 . S
In134 O145 2.294 . S
In134 O146 2.326 . S
O135 In134 2.294 . S
O135 C144 1.240 . S
O136 In134 2.326 . S
O136 C144 1.252 . S
C137 O140 1.252 . S
C137 O141 1.260 . S
C138 O145 1.240 . S
C138 O146 1.252 . S
C139 O142 1.252 . S
C139 O143 1.260 . S
O140 In134 2.266 . S
O140 C137 1.252 . S
O141 In134 2.326 . S
O141 C137 1.260 . S
O142 In134 2.266 . S
O142 C139 1.252 . S
O143 In134 2.326 . S
O143 C139 1.260 . S
C144 O135 1.240 . S
C144 O136 1.252 . S
O145 In134 2.294 . S
O145 C138 1.240 . S
O146 In134 2.326 . S
O146 C138 1.252 . S
In147 O148 2.294 . S
In147 O149 2.326 . S
In147 O153 2.266 . S
In147 O154 2.326 . S
In147 O155 2.266 . S
In147 O156 2.326 . S
In147 O158 2.294 . S
In147 O159 2.326 . S
O148 In147 2.294 . S
O148 C157 1.240 . S
O149 In147 2.326 . S
O149 C157 1.252 . S
C150 O153 1.252 . S
C150 O154 1.260 . S
C151 O158 1.240 . S
C151 O159 1.252 . S
C152 O155 1.252 . S
C152 O156 1.260 . S
O153 In147 2.266 . S
O153 C150 1.252 . S
O154 In147 2.326 . S
O154 C150 1.260 . S
O155 In147 2.266 . S
O155 C152 1.252 . S
O156 In147 2.326 . S
O156 C152 1.260 . S
C157 O148 1.240 . S
C157 O149 1.252 . S
O158 In147 2.294 . S
O158 C151 1.240 . S
O159 In147 2.326 . S
O159 C151 1.252 . S
In160 O161 2.294 . S
In160 O162 2.326 . S
In160 O166 2.266 . S
In160 O167 2.326 . S
In160 O168 2.266 . S
In160 O169 2.326 . S
In160 O171 2.294 . S
In160 O172 2.326 . S
O161 In160 2.294 . S
O161 C170 1.240 . S
O162 In160 2.326 . S
O162 C170 1.252 . S
C163 O166 1.252 . S
C163 O167 1.260 . S
C164 O171 1.240 . S
C164 O172 1.252 . S
C165 O168 1.252 . S
C165 O169 1.260 . S
O166 In160 2.266 . S
O166 C163 1.252 . S
O167 In160 2.326 . S
O167 C163 1.260 . S
O168 In160 2.266 . S
O168 C165 1.252 . S
O169 In160 2.326 . S
O169 C165 1.260 . S
C170 O161 1.240 . S
C170 O162 1.252 . S
O171 In160 2.294 . S
O171 C164 1.240 . S
O172 In160 2.326 . S
O172 C164 1.252 . S
In173 O174 2.294 . S
In173 O175 2.326 . S
In173 O179 2.266 . S
In173 O180 2.326 . S
In173 O181 2.266 . S
In173 O182 2.326 . S
In173 O184 2.294 . S
In173 O185 2.326 . S
O174 In173 2.294 . S
O174 C183 1.240 . S
O175 In173 2.326 . S
O175 C183 1.252 . S
C176 O179 1.252 . S
C176 O180 1.260 . S
C177 O184 1.240 . S
C177 O185 1.252 . S
C178 O181 1.252 . S
C178 O182 1.260 . S
O179 In173 2.266 . S
O179 C176 1.252 . S
O180 In173 2.326 . S
O180 C176 1.260 . S
O181 In173 2.266 . S
O181 C178 1.252 . S
O182 In173 2.326 . S
O182 C178 1.260 . S
C183 O174 1.240 . S
C183 O175 1.252 . S
O184 In173 2.294 . S
O184 C177 1.240 . S
O185 In173 2.326 . S
O185 C177 1.252 . S
H186 C194 0.950 . S
H187 C199 0.950 . S
H188 C196 0.950 . S
H189 C198 0.950 . S
H190 C200 0.950 . S
H191 C202 0.950 . S
H192 C204 0.950 . S
H193 C205 0.950 . S
C194 H186 0.950 . S
C194 C195 1.386 . S
C194 C196 1.391 . S
C195 C194 1.386 . S
C195 C199 1.393 . S
C196 H188 0.950 . S
C196 C194 1.391 . S
C196 C197 1.400 . S
C197 C196 1.400 . S
C197 C198 1.398 . S
C197 C203 1.491 . S
C198 H189 0.950 . S
C198 C197 1.398 . S
C198 C199 1.391 . S
C199 H187 0.950 . S
C199 C195 1.393 . S
C199 C198 1.391 . S
C200 H190 0.950 . S
C200 C201 1.386 . S
C200 C202 1.391 . S
C201 C200 1.386 . S
C201 C205 1.393 . S
C202 H191 0.950 . S
C202 C200 1.391 . S
C202 C203 1.400 . S
C203 C197 1.491 . S
C203 C202 1.400 . S
C203 C204 1.398 . S
C204 H192 0.950 . S
C204 C203 1.398 . S
C204 C205 1.391 . S
C205 H193 0.950 . S
C205 C201 1.393 . S
C205 C204 1.391 . S
H206 C214 0.950 . S
H207 C219 0.950 . S
H208 C216 0.950 . S
H209 C218 0.950 . S
H210 C220 0.950 . S
H211 C222 0.950 . S
H212 C224 0.950 . S
H213 C225 0.950 . S
C214 H206 0.950 . S
C214 C215 1.386 . S
C214 C216 1.391 . S
C215 C214 1.386 . S
C215 C219 1.393 . S
C216 H208 0.950 . S
C216 C214 1.391 . S
C216 C217 1.400 . S
C217 C216 1.400 . S
C217 C218 1.398 . S
C217 C223 1.491 . S
C218 H209 0.950 . S
C218 C217 1.398 . S
C218 C219 1.391 . S
C219 H207 0.950 . S
C219 C215 1.393 . S
C219 C218 1.391 . S
C220 H210 0.950 . S
C220 C221 1.386 . S
C220 C222 1.391 . S
C221 C220 1.386 . S
C221 C225 1.393 . S
C222 H211 0.950 . S
C222 C220 1.391 . S
C222 C223 1.400 . S
C223 C217 1.491 . S
C223 C222 1.400 . S
C223 C224 1.398 . S
C224 H212 0.950 . S
C224 C223 1.398 . S
C224 C225 1.391 . S
C225 H213 0.950 . S
C225 C221 1.393 . S
C225 C224 1.391 . S
H226 C234 0.950 . S
H227 C239 0.950 . S
H228 C236 0.950 . S
H229 C238 0.950 . S
H230 C240 0.950 . S
H231 C242 0.950 . S
H232 C244 0.950 . S
H233 C245 0.950 . S
C234 H226 0.950 . S
C234 C235 1.386 . S
C234 C236 1.391 . S
C235 C234 1.386 . S
C235 C239 1.393 . S
C236 H228 0.950 . S
C236 C234 1.391 . S
C236 C237 1.400 . S
C237 C236 1.400 . S
C237 C238 1.398 . S
C237 C243 1.491 . S
C238 H229 0.950 . S
C238 C237 1.398 . S
C238 C239 1.391 . S
C239 H227 0.950 . S
C239 C235 1.393 . S
C239 C238 1.391 . S
C240 H230 0.950 . S
C240 C241 1.386 . S
C240 C242 1.391 . S
C241 C240 1.386 . S
C241 C245 1.393 . S
C242 H231 0.950 . S
C242 C240 1.391 . S
C242 C243 1.400 . S
C243 C237 1.491 . S
C243 C242 1.400 . S
C243 C244 1.398 . S
C244 H232 0.950 . S
C244 C243 1.398 . S
C244 C245 1.391 . S
C245 H233 0.950 . S
C245 C241 1.393 . S
C245 C244 1.391 . S
H246 C254 0.950 . S
H247 C259 0.950 . S
H248 C256 0.950 . S
H249 C258 0.950 . S
H250 C260 0.950 . S
H251 C262 0.950 . S
H252 C264 0.950 . S
H253 C265 0.950 . S
C254 H246 0.950 . S
C254 C255 1.386 . S
C254 C256 1.391 . S
C255 C254 1.386 . S
C255 C259 1.393 . S
C256 H248 0.950 . S
C256 C254 1.391 . S
C256 C257 1.400 . S
C257 C256 1.400 . S
C257 C258 1.398 . S
C257 C263 1.491 . S
C258 H249 0.950 . S
C258 C257 1.398 . S
C258 C259 1.391 . S
C259 H247 0.950 . S
C259 C255 1.393 . S
C259 C258 1.391 . S
C260 H250 0.950 . S
C260 C261 1.386 . S
C260 C262 1.391 . S
C261 C260 1.386 . S
C261 C265 1.393 . S
C262 H251 0.950 . S
C262 C260 1.391 . S
C262 C263 1.400 . S
C263 C257 1.491 . S
C263 C262 1.400 . S
C263 C264 1.398 . S
C264 H252 0.950 . S
C264 C263 1.398 . S
C264 C265 1.391 . S
C265 H253 0.950 . S
C265 C261 1.393 . S
C265 C264 1.391 . S
H266 C274 0.950 1_554 S
H267 C279 0.950 . S
H268 C276 0.950 . S
H269 C278 0.950 . S
H270 C280 0.950 . S
H271 C282 0.950 . S
H272 C284 0.950 . S
H273 C285 0.950 . S
C274 H266 0.950 1_556 S
C274 C275 1.386 . S
C274 C276 1.391 . S
C275 C274 1.386 . S
C275 C279 1.393 . S
C276 H268 0.950 . S
C276 C274 1.391 . S
C276 C277 1.400 . S
C277 C276 1.400 . S
C277 C278 1.398 . S
C277 C283 1.491 . S
C278 H269 0.950 . S
C278 C277 1.398 . S
C278 C279 1.391 . S
C279 H267 0.950 . S
C279 C275 1.393 . S
C279 C278 1.391 . S
C280 H270 0.950 . S
C280 C281 1.386 . S
C280 C282 1.391 . S
C281 C280 1.386 . S
C281 C285 1.393 . S
C282 H271 0.950 . S
C282 C280 1.391 . S
C282 C283 1.400 . S
C283 C277 1.491 . S
C283 C282 1.400 . S
C283 C284 1.398 . S
C284 H272 0.950 . S
C284 C283 1.398 . S
C284 C285 1.391 . S
C285 H273 0.950 . S
C285 C281 1.393 . S
C285 C284 1.391 . S
H286 C294 0.950 . S
H287 C299 0.950 . S
H288 C296 0.950 . S
H289 C298 0.950 . S
H290 C300 0.950 . S
H291 C302 0.950 . S
H292 C304 0.950 . S
H293 C305 0.950 . S
C294 H286 0.950 . S
C294 C295 1.386 . S
C294 C296 1.391 . S
C295 C294 1.386 . S
C295 C299 1.393 . S
C296 H288 0.950 . S
C296 C294 1.391 . S
C296 C297 1.400 . S
C297 C296 1.400 . S
C297 C298 1.398 . S
C297 C303 1.491 . S
C298 H289 0.950 . S
C298 C297 1.398 . S
C298 C299 1.391 . S
C299 H287 0.950 . S
C299 C295 1.393 . S
C299 C298 1.391 . S
C300 H290 0.950 . S
C300 C301 1.386 . S
C300 C302 1.391 . S
C301 C300 1.386 . S
C301 C305 1.393 . S
C302 H291 0.950 . S
C302 C300 1.391 . S
C302 C303 1.400 . S
C303 C297 1.491 . S
C303 C302 1.400 . S
C303 C304 1.398 . S
C304 H292 0.950 . S
C304 C303 1.398 . S
C304 C305 1.391 . S
C305 H293 0.950 . S
C305 C301 1.393 . S
C305 C304 1.391 . S
H306 C314 0.950 . S
H307 C319 0.950 . S
H308 C316 0.950 . S
H309 C318 0.950 . S
H310 C320 0.950 . S
H311 C322 0.950 . S
H312 C324 0.950 . S
H313 C325 0.950 . S
C314 H306 0.950 . S
C314 C315 1.386 . S
C314 C316 1.391 . S
C315 C314 1.386 . S
C315 C319 1.393 . S
C316 H308 0.950 . S
C316 C314 1.391 . S
C316 C317 1.400 . S
C317 C316 1.400 . S
C317 C318 1.398 . S
C317 C323 1.491 . S
C318 H309 0.950 . S
C318 C317 1.398 . S
C318 C319 1.391 . S
C319 H307 0.950 . S
C319 C315 1.393 . S
C319 C318 1.391 . S
C320 H310 0.950 . S
C320 C321 1.386 . S
C320 C322 1.391 . S
C321 C320 1.386 . S
C321 C325 1.393 . S
C322 H311 0.950 . S
C322 C320 1.391 . S
C322 C323 1.400 . S
C323 C317 1.491 . S
C323 C322 1.400 . S
C323 C324 1.398 . S
C324 H312 0.950 . S
C324 C323 1.398 . S
C324 C325 1.391 . S
C325 H313 0.950 . S
C325 C321 1.393 . S
C325 C324 1.391 . S
H326 C334 0.950 . S
H327 C339 0.950 . S
H328 C336 0.950 . S
H329 C338 0.950 . S
H330 C340 0.950 . S
H331 C342 0.950 . S
H332 C344 0.950 . S
H333 C345 0.950 . S
C334 H326 0.950 . S
C334 C335 1.386 . S
C334 C336 1.391 . S
C335 C334 1.386 . S
C335 C339 1.393 . S
C336 H328 0.950 . S
C336 C334 1.391 . S
C336 C337 1.400 . S
C337 C336 1.400 . S
C337 C338 1.398 . S
C337 C343 1.491 . S
C338 H329 0.950 . S
C338 C337 1.398 . S
C338 C339 1.391 . S
C339 H327 0.950 . S
C339 C335 1.393 . S
C339 C338 1.391 . S
C340 H330 0.950 . S
C340 C341 1.386 . S
C340 C342 1.391 . S
C341 C340 1.386 . S
C341 C345 1.393 . S
C342 H331 0.950 . S
C342 C340 1.391 . S
C342 C343 1.400 . S
C343 C337 1.491 . S
C343 C342 1.400 . S
C343 C344 1.398 . S
C344 H332 0.950 . S
C344 C343 1.398 . S
C344 C345 1.391 . S
C345 H333 0.950 . S
C345 C341 1.393 . S
C345 C344 1.391 . S
H346 C354 0.950 . S
H347 C359 0.950 . S
H348 C356 0.950 . S
H349 C358 0.950 . S
H350 C360 0.950 . S
H351 C362 0.950 . S
H352 C364 0.950 . S
H353 C365 0.950 . S
C354 H346 0.950 . S
C354 C355 1.386 . S
C354 C356 1.391 . S
C355 C354 1.386 . S
C355 C359 1.393 . S
C356 H348 0.950 . S
C356 C354 1.391 . S
C356 C357 1.400 . S
C357 C356 1.400 . S
C357 C358 1.398 . S
C357 C363 1.491 . S
C358 H349 0.950 . S
C358 C357 1.398 . S
C358 C359 1.391 . S
C359 H347 0.950 . S
C359 C355 1.393 . S
C359 C358 1.391 . S
C360 H350 0.950 . S
C360 C361 1.386 . S
C360 C362 1.391 . S
C361 C360 1.386 . S
C361 C365 1.393 . S
C362 H351 0.950 . S
C362 C360 1.391 . S
C362 C363 1.400 . S
C363 C357 1.491 . S
C363 C362 1.400 . S
C363 C364 1.398 . S
C364 H352 0.950 . S
C364 C363 1.398 . S
C364 C365 1.391 . S
C365 H353 0.950 . S
C365 C361 1.393 . S
C365 C364 1.391 . S
H366 C374 0.950 . S
H367 C379 0.950 . S
H368 C376 0.950 . S
H369 C378 0.950 . S
H370 C380 0.950 . S
H371 C382 0.950 . S
H372 C384 0.950 1_556 S
H373 C385 0.950 . S
C374 H366 0.950 . S
C374 C375 1.386 1_556 S
C374 C376 1.391 . S
C375 C374 1.386 1_554 S
C375 C379 1.393 . S
C376 H368 0.950 . S
C376 C374 1.391 . S
C376 C377 1.400 1_556 S
C377 C376 1.400 1_554 S
C377 C378 1.398 . S
C377 C383 1.491 . S
C378 H369 0.950 . S
C378 C377 1.398 . S
C378 C379 1.391 . S
C379 H367 0.950 . S
C379 C375 1.393 . S
C379 C378 1.391 . S
C380 H370 0.950 . S
C380 C381 1.386 . S
C380 C382 1.391 . S
C381 C380 1.386 . S
C381 C385 1.393 . S
C382 H371 0.950 . S
C382 C380 1.391 . S
C382 C383 1.400 . S
C383 C377 1.491 . S
C383 C382 1.400 . S
C383 C384 1.398 . S
C384 H372 0.950 1_554 S
C384 C383 1.398 . S
C384 C385 1.391 . S
C385 H373 0.950 . S
C385 C381 1.393 . S
C385 C384 1.391 . S
H386 C394 0.950 . S
H387 C399 0.950 . S
H388 C396 0.950 . S
H389 C398 0.950 . S
H390 C400 0.950 . S
H391 C402 0.950 . S
H392 C404 0.950 . S
H393 C405 0.950 . S
C394 H386 0.950 . S
C394 C395 1.386 . S
C394 C396 1.391 . S
C395 C394 1.386 . S
C395 C399 1.393 . S
C396 H388 0.950 . S
C396 C394 1.391 . S
C396 C397 1.400 . S
C397 C396 1.400 . S
C397 C398 1.398 . S
C397 C403 1.491 . S
C398 H389 0.950 . S
C398 C397 1.398 . S
C398 C399 1.391 . S
C399 H387 0.950 . S
C399 C395 1.393 . S
C399 C398 1.391 . S
C400 H390 0.950 . S
C400 C401 1.386 . S
C400 C402 1.391 . S
C401 C400 1.386 . S
C401 C405 1.393 . S
C402 H391 0.950 . S
C402 C400 1.391 . S
C402 C403 1.400 . S
C403 C397 1.491 . S
C403 C402 1.400 . S
C403 C404 1.398 . S
C404 H392 0.950 . S
C404 C403 1.398 . S
C404 C405 1.391 . S
C405 H393 0.950 . S
C405 C401 1.393 . S
C405 C404 1.391 . S
H406 C414 0.950 . S
H407 C419 0.950 . S
H408 C416 0.950 . S
H409 C418 0.950 . S
H410 C420 0.950 . S
H411 C422 0.950 . S
H412 C424 0.950 . S
H413 C425 0.950 . S
C414 H406 0.950 . S
C414 C415 1.386 . S
C414 C416 1.391 . S
C415 C414 1.386 . S
C415 C419 1.393 . S
C416 H408 0.950 . S
C416 C414 1.391 . S
C416 C417 1.400 . S
C417 C416 1.400 . S
C417 C418 1.398 . S
C417 C423 1.491 . S
C418 H409 0.950 . S
C418 C417 1.398 . S
C418 C419 1.391 . S
C419 H407 0.950 . S
C419 C415 1.393 . S
C419 C418 1.391 . S
C420 H410 0.950 . S
C420 C421 1.386 . S
C420 C422 1.391 . S
C421 C420 1.386 . S
C421 C425 1.393 . S
C422 H411 0.950 . S
C422 C420 1.391 . S
C422 C423 1.400 . S
C423 C417 1.491 . S
C423 C422 1.400 . S
C423 C424 1.398 . S
C424 H412 0.950 . S
C424 C423 1.398 . S
C424 C425 1.391 . S
C425 H413 0.950 . S
C425 C421 1.393 . S
C425 C424 1.391 . S
H426 C434 0.950 . S
H427 C439 0.950 . S
H428 C436 0.950 . S
H429 C438 0.950 . S
H430 C440 0.950 . S
H431 C442 0.950 . S
H432 C444 0.950 . S
H433 C445 0.950 . S
C434 H426 0.950 . S
C434 C435 1.386 . S
C434 C436 1.391 . S
C435 C434 1.386 . S
C435 C439 1.393 . S
C436 H428 0.950 . S
C436 C434 1.391 . S
C436 C437 1.400 . S
C437 C436 1.400 . S
C437 C438 1.398 . S
C437 C443 1.491 . S
C438 H429 0.950 . S
C438 C437 1.398 . S
C438 C439 1.391 . S
C439 H427 0.950 . S
C439 C435 1.393 . S
C439 C438 1.391 . S
C440 H430 0.950 . S
C440 C441 1.386 . S
C440 C442 1.391 . S
C441 C440 1.386 . S
C441 C445 1.393 . S
C442 H431 0.950 . S
C442 C440 1.391 . S
C442 C443 1.400 . S
C443 C437 1.491 . S
C443 C442 1.400 . S
C443 C444 1.398 . S
C444 H432 0.950 . S
C444 C443 1.398 . S
C444 C445 1.391 . S
C445 H433 0.950 . S
C445 C441 1.393 . S
C445 C444 1.391 . S
H446 C454 0.950 . S
H447 C459 0.950 . S
H448 C456 0.950 . S
H449 C458 0.950 . S
H450 C460 0.950 . S
H451 C462 0.950 . S
H452 C464 0.950 . S
H453 C465 0.950 . S
C454 H446 0.950 . S
C454 C455 1.386 . S
C454 C456 1.391 . S
C455 C454 1.386 . S
C455 C459 1.393 . S
C456 H448 0.950 . S
C456 C454 1.391 . S
C456 C457 1.400 . S
C457 C456 1.400 . S
C457 C458 1.398 . S
C457 C463 1.491 . S
C458 H449 0.950 . S
C458 C457 1.398 . S
C458 C459 1.391 . S
C459 H447 0.950 . S
C459 C455 1.393 . S
C459 C458 1.391 . S
C460 H450 0.950 . S
C460 C461 1.386 . S
C460 C462 1.391 . S
C461 C460 1.386 . S
C461 C465 1.393 . S
C462 H451 0.950 . S
C462 C460 1.391 . S
C462 C463 1.400 . S
C463 C457 1.491 . S
C463 C462 1.400 . S
C463 C464 1.398 . S
C464 H452 0.950 . S
C464 C463 1.398 . S
C464 C465 1.391 . S
C465 H453 0.950 . S
C465 C461 1.393 . S
C465 C464 1.391 . S
H466 C474 0.950 . S
H467 C479 0.950 . S
H468 C476 0.950 . S
H469 C478 0.950 . S
H470 C480 0.950 . S
H471 C482 0.950 . S
H472 C484 0.950 . S
H473 C485 0.950 . S
C474 H466 0.950 . S
C474 C475 1.386 . S
C474 C476 1.391 . S
C475 C474 1.386 . S
C475 C479 1.393 . S
C476 H468 0.950 . S
C476 C474 1.391 . S
C476 C477 1.400 . S
C477 C476 1.400 . S
C477 C478 1.398 . S
C477 C483 1.491 . S
C478 H469 0.950 . S
C478 C477 1.398 . S
C478 C479 1.391 . S
C479 H467 0.950 . S
C479 C475 1.393 . S
C479 C478 1.391 . S
C480 H470 0.950 . S
C480 C481 1.386 . S
C480 C482 1.391 . S
C481 C480 1.386 . S
C481 C485 1.393 . S
C482 H471 0.950 . S
C482 C480 1.391 . S
C482 C483 1.400 . S
C483 C477 1.491 . S
C483 C482 1.400 . S
C483 C484 1.398 . S
C484 H472 0.950 . S
C484 C483 1.398 . S
C484 C485 1.391 . S
C485 H473 0.950 . S
C485 C481 1.393 . S
C485 C484 1.391 . S
H486 C494 0.950 . S
H487 C499 0.950 . S
H488 C496 0.950 . S
H489 C498 0.950 . S
H490 C500 0.950 . S
H491 C502 0.950 . S
H492 C504 0.950 . S
H493 C505 0.950 . S
C494 H486 0.950 . S
C494 C495 1.386 . S
C494 C496 1.391 . S
C495 C494 1.386 . S
C495 C499 1.393 . S
C496 H488 0.950 . S
C496 C494 1.391 . S
C496 C497 1.400 . S
C497 C496 1.400 . S
C497 C498 1.398 . S
C497 C503 1.491 . S
C498 H489 0.950 . S
C498 C497 1.398 . S
C498 C499 1.391 . S
C499 H487 0.950 . S
C499 C495 1.393 . S
C499 C498 1.391 . S
C500 H490 0.950 . S
C500 C501 1.386 1_556 S
C500 C502 1.391 . S
C501 C500 1.386 1_554 S
C501 C505 1.393 . S
C502 H491 0.950 . S
C502 C500 1.391 . S
C502 C503 1.400 . S
C503 C497 1.491 . S
C503 C502 1.400 . S
C503 C504 1.398 . S
C504 H492 0.950 . S
C504 C503 1.398 . S
C504 C505 1.391 1_556 S
C505 H493 0.950 . S
C505 C501 1.393 . S
C505 C504 1.391 1_554 S
H506 C514 0.950 . S
H507 C519 0.950 . S
H508 C516 0.950 . S
H509 C518 0.950 . S
H510 C520 0.950 . S
H511 C522 0.950 . S
H512 C524 0.950 . S
H513 C525 0.950 . S
C514 H506 0.950 . S
C514 C515 1.386 . S
C514 C516 1.391 . S
C515 C514 1.386 . S
C515 C519 1.393 . S
C516 H508 0.950 . S
C516 C514 1.391 . S
C516 C517 1.400 . S
C517 C516 1.400 . S
C517 C518 1.398 . S
C517 C523 1.491 . S
C518 H509 0.950 . S
C518 C517 1.398 . S
C518 C519 1.391 . S
C519 H507 0.950 . S
C519 C515 1.393 . S
C519 C518 1.391 . S
C520 H510 0.950 . S
C520 C521 1.386 . S
C520 C522 1.391 . S
C521 C520 1.386 . S
C521 C525 1.393 . S
C522 H511 0.950 . S
C522 C520 1.391 . S
C522 C523 1.400 . S
C523 C517 1.491 . S
C523 C522 1.400 . S
C523 C524 1.398 . S
C524 H512 0.950 . S
C524 C523 1.398 . S
C524 C525 1.391 . S
C525 H513 0.950 . S
C525 C521 1.393 . S
C525 C524 1.391 . S
H526 C534 0.950 . S
H527 C539 0.950 . S
H528 C536 0.950 . S
H529 C538 0.950 . S
H530 C540 0.950 . S
H531 C542 0.950 . S
H532 C544 0.950 . S
H533 C545 0.950 . S
C534 H526 0.950 . S
C534 C535 1.386 . S
C534 C536 1.391 . S
C535 C534 1.386 . S
C535 C539 1.393 . S
C536 H528 0.950 . S
C536 C534 1.391 . S
C536 C537 1.400 . S
C537 C536 1.400 . S
C537 C538 1.398 . S
C537 C543 1.491 . S
C538 H529 0.950 . S
C538 C537 1.398 . S
C538 C539 1.391 . S
C539 H527 0.950 . S
C539 C535 1.393 . S
C539 C538 1.391 . S
C540 H530 0.950 . S
C540 C541 1.386 . S
C540 C542 1.391 . S
C541 C540 1.386 . S
C541 C545 1.393 . S
C542 H531 0.950 . S
C542 C540 1.391 . S
C542 C543 1.400 . S
C543 C537 1.491 . S
C543 C542 1.400 . S
C543 C544 1.398 . S
C544 H532 0.950 . S
C544 C543 1.398 . S
C544 C545 1.391 . S
C545 H533 0.950 . S
C545 C541 1.393 . S
C545 C544 1.391 . S
H546 C554 0.950 . S
H547 C559 0.950 . S
H548 C556 0.950 . S
H549 C558 0.950 . S
H550 C560 0.950 . S
H551 C562 0.950 . S
H552 C564 0.950 . S
H553 C565 0.950 . S
C554 H546 0.950 . S
C554 C555 1.386 . S
C554 C556 1.391 . S
C555 C554 1.386 . S
C555 C559 1.393 . S
C556 H548 0.950 . S
C556 C554 1.391 . S
C556 C557 1.400 . S
C557 C556 1.400 . S
C557 C558 1.398 . S
C557 C563 1.491 . S
C558 H549 0.950 . S
C558 C557 1.398 . S
C558 C559 1.391 . S
C559 H547 0.950 . S
C559 C555 1.393 . S
C559 C558 1.391 . S
C560 H550 0.950 . S
C560 C561 1.386 . S
C560 C562 1.391 . S
C561 C560 1.386 . S
C561 C565 1.393 . S
C562 H551 0.950 . S
C562 C560 1.391 . S
C562 C563 1.400 . S
C563 C557 1.491 . S
C563 C562 1.400 . S
C563 C564 1.398 . S
C564 H552 0.950 . S
C564 C563 1.398 . S
C564 C565 1.391 . S
C565 H553 0.950 . S
C565 C561 1.393 . S
C565 C564 1.391 . S
H566 C574 0.950 . S
H567 C579 0.950 . S
H568 C576 0.950 . S
H569 C578 0.950 . S
H570 C580 0.950 . S
H571 C582 0.950 . S
H572 C584 0.950 . S
H573 C585 0.950 . S
C574 H566 0.950 . S
C574 C575 1.386 . S
C574 C576 1.391 . S
C575 C574 1.386 . S
C575 C579 1.393 . S
C576 H568 0.950 . S
C576 C574 1.391 . S
C576 C577 1.400 . S
C577 C576 1.400 . S
C577 C578 1.398 . S
C577 C583 1.491 . S
C578 H569 0.950 . S
C578 C577 1.398 . S
C578 C579 1.391 . S
C579 H567 0.950 . S
C579 C575 1.393 . S
C579 C578 1.391 . S
C580 H570 0.950 . S
C580 C581 1.386 . S
C580 C582 1.391 . S
C581 C580 1.386 . S
C581 C585 1.393 . S
C582 H571 0.950 . S
C582 C580 1.391 . S
C582 C583 1.400 . S
C583 C577 1.491 . S
C583 C582 1.400 . S
C583 C584 1.398 . S
C584 H572 0.950 . S
C584 C583 1.398 . S
C584 C585 1.391 . S
C585 H573 0.950 . S
C585 C581 1.393 . S
C585 C584 1.391 . S
H586 C594 0.950 . S
H587 C599 0.950 . S
H588 C596 0.950 . S
H589 C598 0.950 . S
H590 C600 0.950 . S
H591 C602 0.950 . S
H592 C604 0.950 . S
H593 C605 0.950 . S
C594 H586 0.950 . S
C594 C595 1.386 . S
C594 C596 1.391 . S
C595 C594 1.386 . S
C595 C599 1.393 . S
C596 H588 0.950 . S
C596 C594 1.391 . S
C596 C597 1.400 . S
C597 C596 1.400 . S
C597 C598 1.398 . S
C597 C603 1.491 . S
C598 H589 0.950 . S
C598 C597 1.398 . S
C598 C599 1.391 . S
C599 H587 0.950 . S
C599 C595 1.393 . S
C599 C598 1.391 . S
C600 H590 0.950 . S
C600 C601 1.386 . S
C600 C602 1.391 . S
C601 C600 1.386 . S
C601 C605 1.393 . S
C602 H591 0.950 . S
C602 C600 1.391 . S
C602 C603 1.400 . S
C603 C597 1.491 . S
C603 C602 1.400 . S
C603 C604 1.398 . S
C604 H592 0.950 . S
C604 C603 1.398 . S
C604 C605 1.391 . S
C605 H593 0.950 . S
C605 C601 1.393 . S
C605 C604 1.391 . S
H606 C614 0.950 . S
H607 C619 0.950 . S
H608 C616 0.950 . S
H609 C618 0.950 . S
H610 C620 0.950 . S
H611 C622 0.950 . S
H612 C624 0.950 . S
H613 C625 0.950 . S
C614 H606 0.950 . S
C614 C615 1.386 . S
C614 C616 1.391 . S
C615 C614 1.386 . S
C615 C619 1.393 . S
C616 H608 0.950 . S
C616 C614 1.391 . S
C616 C617 1.400 . S
C617 C616 1.400 . S
C617 C618 1.398 . S
C617 C623 1.491 . S
C618 H609 0.950 . S
C618 C617 1.398 . S
C618 C619 1.391 . S
C619 H607 0.950 . S
C619 C615 1.393 . S
C619 C618 1.391 . S
C620 H610 0.950 . S
C620 C621 1.386 . S
C620 C622 1.391 . S
C621 C620 1.386 . S
C621 C625 1.393 . S
C622 H611 0.950 . S
C622 C620 1.391 . S
C622 C623 1.400 . S
C623 C617 1.491 . S
C623 C622 1.400 . S
C623 C624 1.398 . S
C624 H612 0.950 . S
C624 C623 1.398 . S
C624 C625 1.391 . S
C625 H613 0.950 . S
C625 C621 1.393 . S
C625 C624 1.391 . S
H626 C634 0.950 . S
H627 C639 0.950 . S
H628 C636 0.950 . S
H629 C638 0.950 . S
H630 C640 0.950 . S
H631 C642 0.950 . S
H632 C644 0.950 . S
H633 C645 0.950 . S
C634 H626 0.950 . S
C634 C635 1.386 . S
C634 C636 1.391 . S
C635 C634 1.386 . S
C635 C639 1.393 . S
C636 H628 0.950 . S
C636 C634 1.391 . S
C636 C637 1.400 . S
C637 C636 1.400 . S
C637 C638 1.398 . S
C637 C643 1.491 . S
C638 H629 0.950 . S
C638 C637 1.398 . S
C638 C639 1.391 . S
C639 H627 0.950 . S
C639 C635 1.393 . S
C639 C638 1.391 . S
C640 H630 0.950 . S
C640 C641 1.386 . S
C640 C642 1.391 1_556 S
C641 C640 1.386 . S
C641 C645 1.393 . S
C642 H631 0.950 . S
C642 C640 1.391 1_554 S
C642 C643 1.400 . S
C643 C637 1.491 . S
C643 C642 1.400 . S
C643 C644 1.398 . S
C644 H632 0.950 . S
C644 C643 1.398 . S
C644 C645 1.391 1_554 S
C645 H633 0.950 . S
C645 C641 1.393 . S
C645 C644 1.391 1_556 S
H646 C654 0.950 . S
H647 C659 0.950 . S
H648 C656 0.950 . S
H649 C658 0.950 . S
H650 C660 0.950 . S
H651 C662 0.950 . S
H652 C664 0.950 . S
H653 C665 0.950 . S
C654 H646 0.950 . S
C654 C655 1.386 . S
C654 C656 1.391 . S
C655 C654 1.386 . S
C655 C659 1.393 . S
C656 H648 0.950 . S
C656 C654 1.391 . S
C656 C657 1.400 . S
C657 C656 1.400 . S
C657 C658 1.398 . S
C657 C663 1.491 . S
C658 H649 0.950 . S
C658 C657 1.398 . S
C658 C659 1.391 . S
C659 H647 0.950 . S
C659 C655 1.393 . S
C659 C658 1.391 . S
C660 H650 0.950 . S
C660 C661 1.386 . S
C660 C662 1.391 . S
C661 C660 1.386 . S
C661 C665 1.393 . S
C662 H651 0.950 . S
C662 C660 1.391 . S
C662 C663 1.400 . S
C663 C657 1.491 . S
C663 C662 1.400 . S
C663 C664 1.398 . S
C664 H652 0.950 . S
C664 C663 1.398 . S
C664 C665 1.391 . S
C665 H653 0.950 . S
C665 C661 1.393 . S
C665 C664 1.391 . S
C201 C178 1.605 . S
C195 C8 1.565 . S
C215 C26 1.572 . S
C221 C113 1.610 . S
C235 C50 1.578 . S
C241 C131 1.610 . S
C255 C68 1.554 . S
C261 C144 1.593 . S
C281 C152 1.605 . S
C275 C80 1.568 . S
C295 C104 1.555 . S
C301 C164 1.607 . S
C315 C32 1.568 . S
C321 C126 1.618 . S
C335 C44 1.552 . S
C341 C139 1.604 . S
C355 C62 1.568 . S
C361 C157 1.600 . S
C381 C163 1.609 . S
C375 C86 1.569 1_554 S
C401 C183 1.597 . S
C395 C98 1.547 . S
C421 C118 1.607 . S
C415 C14 1.555 . S
C435 C7 1.538 . S
C441 C124 1.587 . S
C455 C25 1.529 . S
C461 C137 1.587 . S
C481 C151 1.583 . S
C475 C52 1.548 . S
C495 C70 1.555 . S
C501 C165 1.593 . S
C521 C177 1.579 . S
C515 C79 1.520 . S
C541 C112 1.582 . S
C535 C106 1.547 . S
C561 C176 1.586 . S
C555 C34 1.547 . S
C575 C43 1.530 . S
C581 C111 1.585 . S
C601 C125 1.586 . S
C595 C61 1.527 . S
C615 C88 1.529 . S
C621 C138 1.578 . S
C635 C97 1.551 . S
C641 C150 1.590 . S
C655 C16 1.546 . S
C661 C170 1.587 . S
