# Generated by pormake.
# Topology ptr, (4,4)-cn, num edge types: 1
# Building blocks:
#     Node 0, Type 0, BuildingBlock: QUQFOY_clean_sbu_3, # of connection points: 4
#     Node 1, Type 0, BuildingBlock: QUQFOY_clean_sbu_3, # of connection points: 4
#     Node 2, Type 0, BuildingBlock: QUQFOY_clean_sbu_3, # of connection points: 4
#     Node 3, Type 0, BuildingBlock: QUQFOY_clean_sbu_3, # of connection points: 4
#     Node 4, Type 0, BuildingBlock: QUQFOY_clean_sbu_3, # of connection points: 4
#     Node 5, Type 0, BuildingBlock: QUQFOY_clean_sbu_3, # of connection points: 4
#     Node 6, Type 0, BuildingBlock: QUQFOY_clean_sbu_3, # of connection points: 4
#     Node 7, Type 0, BuildingBlock: QUQFOY_clean_sbu_3, # of connection points: 4
#     Node 8, Type 0, BuildingBlock: QUQFOY_clean_sbu_3, # of connection points: 4
#     Node 9, Type 0, BuildingBlock: QUQFOY_clean_sbu_3, # of connection points: 4
#     Node 10, Type 0, BuildingBlock: QUQFOY_clean_sbu_3, # of connection points: 4
#     Node 11, Type 0, BuildingBlock: QUQFOY_clean_sbu_3, # of connection points: 4
#     Node 12, Type 0, BuildingBlock: QUQFOY_clean_sbu_3, # of connection points: 4
#     Node 13, Type 0, BuildingBlock: QUQFOY_clean_sbu_3, # of connection points: 4
#     Node 14, Type 0, BuildingBlock: QUQFOY_clean_sbu_3, # of connection points: 4
#     Node 15, Type 0, BuildingBlock: QUQFOY_clean_sbu_3, # of connection points: 4
#     Node 16, Type 0, BuildingBlock: QUQFOY_clean_sbu_3, # of connection points: 4
#     Node 17, Type 0, BuildingBlock: QUQFOY_clean_sbu_3, # of connection points: 4
#     Node 18, Type 1, BuildingBlock: KUFVIS_clean_linker_0, # of connection points: 4
#     Node 19, Type 1, BuildingBlock: KUFVIS_clean_linker_0, # of connection points: 4
#     Node 20, Type 1, BuildingBlock: KUFVIS_clean_linker_0, # of connection points: 4
#     Node 21, Type 1, BuildingBlock: KUFVIS_clean_linker_0, # of connection points: 4
#     Node 22, Type 1, BuildingBlock: KUFVIS_clean_linker_0, # of connection points: 4
#     Node 23, Type 1, BuildingBlock: KUFVIS_clean_linker_0, # of connection points: 4
#     Node 24, Type 1, BuildingBlock: KUFVIS_clean_linker_0, # of connection points: 4
#     Node 25, Type 1, BuildingBlock: KUFVIS_clean_linker_0, # of connection points: 4
#     Node 26, Type 1, BuildingBlock: KUFVIS_clean_linker_0, # of connection points: 4
#     Node 27, Type 1, BuildingBlock: KUFVIS_clean_linker_0, # of connection points: 4
#     Node 28, Type 1, BuildingBlock: KUFVIS_clean_linker_0, # of connection points: 4
#     Node 29, Type 1, BuildingBlock: KUFVIS_clean_linker_0, # of connection points: 4
#     Node 30, Type 1, BuildingBlock: KUFVIS_clean_linker_0, # of connection points: 4
#     Node 31, Type 1, BuildingBlock: KUFVIS_clean_linker_0, # of connection points: 4
#     Node 32, Type 1, BuildingBlock: KUFVIS_clean_linker_0, # of connection points: 4
#     Node 33, Type 1, BuildingBlock: KUFVIS_clean_linker_0, # of connection points: 4
#     Node 34, Type 1, BuildingBlock: KUFVIS_clean_linker_0, # of connection points: 4
#     Node 35, Type 1, BuildingBlock: KUFVIS_clean_linker_0, # of connection points: 4
#     Edge 36, Type (0, 1), BuildingBlock: XIVTED_clean_linker_0, # of connection points: 2
#     Edge 37, Type (0, 1), BuildingBlock: XIVTED_clean_linker_0, # of connection points: 2
#     Edge 38, Type (0, 1), BuildingBlock: XIVTED_clean_linker_0, # of connection points: 2
#     Edge 39, Type (0, 1), BuildingBlock: XIVTED_clean_linker_0, # of connection points: 2
#     Edge 40, Type (0, 1), BuildingBlock: XIVTED_clean_linker_0, # of connection points: 2
#     Edge 41, Type (0, 1), BuildingBlock: XIVTED_clean_linker_0, # of connection points: 2
#     Edge 42, Type (0, 1), BuildingBlock: XIVTED_clean_linker_0, # of connection points: 2
#     Edge 43, Type (0, 1), BuildingBlock: XIVTED_clean_linker_0, # of connection points: 2
#     Edge 44, Type (0, 1), BuildingBlock: XIVTED_clean_linker_0, # of connection points: 2
#     Edge 45, Type (0, 1), BuildingBlock: XIVTED_clean_linker_0, # of connection points: 2
#     Edge 46, Type (0, 1), BuildingBlock: XIVTED_clean_linker_0, # of connection points: 2
#     Edge 47, Type (0, 1), BuildingBlock: XIVTED_clean_linker_0, # of connection points: 2
#     Edge 48, Type (0, 1), BuildingBlock: XIVTED_clean_linker_0, # of connection points: 2
#     Edge 49, Type (0, 1), BuildingBlock: XIVTED_clean_linker_0, # of connection points: 2
#     Edge 50, Type (0, 1), BuildingBlock: XIVTED_clean_linker_0, # of connection points: 2
#     Edge 51, Type (0, 1), BuildingBlock: XIVTED_clean_linker_0, # of connection points: 2
#     Edge 52, Type (0, 1), BuildingBlock: XIVTED_clean_linker_0, # of connection points: 2
#     Edge 53, Type (0, 1), BuildingBlock: XIVTED_clean_linker_0, # of connection points: 2
#     Edge 54, Type (0, 1), BuildingBlock: XIVTED_clean_linker_0, # of connection points: 2
#     Edge 55, Type (0, 1), BuildingBlock: XIVTED_clean_linker_0, # of connection points: 2
#     Edge 56, Type (0, 1), BuildingBlock: XIVTED_clean_linker_0, # of connection points: 2
#     Edge 57, Type (0, 1), BuildingBlock: XIVTED_clean_linker_0, # of connection points: 2
#     Edge 58, Type (0, 1), BuildingBlock: XIVTED_clean_linker_0, # of connection points: 2
#     Edge 59, Type (0, 1), BuildingBlock: XIVTED_clean_linker_0, # of connection points: 2
#     Edge 60, Type (0, 1), BuildingBlock: XIVTED_clean_linker_0, # of connection points: 2
#     Edge 61, Type (0, 1), BuildingBlock: XIVTED_clean_linker_0, # of connection points: 2
#     Edge 62, Type (0, 1), BuildingBlock: XIVTED_clean_linker_0, # of connection points: 2
#     Edge 63, Type (0, 1), BuildingBlock: XIVTED_clean_linker_0, # of connection points: 2
#     Edge 64, Type (0, 1), BuildingBlock: XIVTED_clean_linker_0, # of connection points: 2
#     Edge 65, Type (0, 1), BuildingBlock: XIVTED_clean_linker_0, # of connection points: 2
#     Edge 66, Type (0, 1), BuildingBlock: XIVTED_clean_linker_0, # of connection points: 2
#     Edge 67, Type (0, 1), BuildingBlock: XIVTED_clean_linker_0, # of connection points: 2
#     Edge 68, Type (0, 1), BuildingBlock: XIVTED_clean_linker_0, # of connection points: 2
#     Edge 69, Type (0, 1), BuildingBlock: XIVTED_clean_linker_0, # of connection points: 2
#     Edge 70, Type (0, 1), BuildingBlock: XIVTED_clean_linker_0, # of connection points: 2
#     Edge 71, Type (0, 1), BuildingBlock: XIVTED_clean_linker_0, # of connection points: 2
#     Edge 72, Type (0, 1), BuildingBlock: XIVTED_clean_linker_0, # of connection points: 2
#     Edge 73, Type (0, 1), BuildingBlock: XIVTED_clean_linker_0, # of connection points: 2
#     Edge 74, Type (0, 1), BuildingBlock: XIVTED_clean_linker_0, # of connection points: 2
#     Edge 75, Type (0, 1), BuildingBlock: XIVTED_clean_linker_0, # of connection points: 2
#     Edge 76, Type (0, 1), BuildingBlock: XIVTED_clean_linker_0, # of connection points: 2
#     Edge 77, Type (0, 1), BuildingBlock: XIVTED_clean_linker_0, # of connection points: 2
#     Edge 78, Type (0, 1), BuildingBlock: XIVTED_clean_linker_0, # of connection points: 2
#     Edge 79, Type (0, 1), BuildingBlock: XIVTED_clean_linker_0, # of connection points: 2
#     Edge 80, Type (0, 1), BuildingBlock: XIVTED_clean_linker_0, # of connection points: 2
#     Edge 81, Type (0, 1), BuildingBlock: XIVTED_clean_linker_0, # of connection points: 2
#     Edge 82, Type (0, 1), BuildingBlock: XIVTED_clean_linker_0, # of connection points: 2
#     Edge 83, Type (0, 1), BuildingBlock: XIVTED_clean_linker_0, # of connection points: 2
#     Edge 84, Type (0, 1), BuildingBlock: XIVTED_clean_linker_0, # of connection points: 2
#     Edge 85, Type (0, 1), BuildingBlock: XIVTED_clean_linker_0, # of connection points: 2
#     Edge 86, Type (0, 1), BuildingBlock: XIVTED_clean_linker_0, # of connection points: 2
#     Edge 87, Type (0, 1), BuildingBlock: XIVTED_clean_linker_0, # of connection points: 2
#     Edge 88, Type (0, 1), BuildingBlock: XIVTED_clean_linker_0, # of connection points: 2
#     Edge 89, Type (0, 1), BuildingBlock: XIVTED_clean_linker_0, # of connection points: 2
#     Edge 90, Type (0, 1), BuildingBlock: XIVTED_clean_linker_0, # of connection points: 2
#     Edge 91, Type (0, 1), BuildingBlock: XIVTED_clean_linker_0, # of connection points: 2
#     Edge 92, Type (0, 1), BuildingBlock: XIVTED_clean_linker_0, # of connection points: 2
#     Edge 93, Type (0, 1), BuildingBlock: XIVTED_clean_linker_0, # of connection points: 2
#     Edge 94, Type (0, 1), BuildingBlock: XIVTED_clean_linker_0, # of connection points: 2
#     Edge 95, Type (0, 1), BuildingBlock: XIVTED_clean_linker_0, # of connection points: 2
#     Edge 96, Type (0, 1), BuildingBlock: XIVTED_clean_linker_0, # of connection points: 2
#     Edge 97, Type (0, 1), BuildingBlock: XIVTED_clean_linker_0, # of connection points: 2
#     Edge 98, Type (0, 1), BuildingBlock: XIVTED_clean_linker_0, # of connection points: 2
#     Edge 99, Type (0, 1), BuildingBlock: XIVTED_clean_linker_0, # of connection points: 2
#     Edge 100, Type (0, 1), BuildingBlock: XIVTED_clean_linker_0, # of connection points: 2
#     Edge 101, Type (0, 1), BuildingBlock: XIVTED_clean_linker_0, # of connection points: 2
#     Edge 102, Type (0, 1), BuildingBlock: XIVTED_clean_linker_0, # of connection points: 2
#     Edge 103, Type (0, 1), BuildingBlock: XIVTED_clean_linker_0, # of connection points: 2
#     Edge 104, Type (0, 1), BuildingBlock: XIVTED_clean_linker_0, # of connection points: 2
#     Edge 105, Type (0, 1), BuildingBlock: XIVTED_clean_linker_0, # of connection points: 2
#     Edge 106, Type (0, 1), BuildingBlock: XIVTED_clean_linker_0, # of connection points: 2
#     Edge 107, Type (0, 1), BuildingBlock: XIVTED_clean_linker_0, # of connection points: 2
# Relax obj value: 0.043
# Max RMSD: 0.106
# Mean RMSD: 0.079
data_MOF--net-ptr--node1-QUQFOY_clean_sbu_3--node2-KUFVIS_clean_linker_0--edge1-XIVTED_clean_linker_0
_symmetry_space_group_name_H-M    P1
_symmetry_Int_Tables_number       1
_symmetry_cell_setting            triclinic
loop_
_symmetry_equiv_pos_as_xyz
'x, y, z'
_cell_length_a     80.145701
_cell_length_b     80.517354
_cell_length_c     50.156001
_cell_angle_alpha  90.224482
_cell_angle_beta   89.719539
_cell_angle_gamma 120.52007
loop_
_atom_site_label
_atom_site_type_symbol
_atom_site_fract_x
_atom_site_fract_y
_atom_site_fract_z
_atom_type_partial_charge
C0 C 0.95648 0.31994 0.01684 0.0
O1 O 0.94838 0.32874 0.02636 0.0
Cd2 Cd 0.96515 0.36212 0.03918 0.0
O3 O 0.9748 0.32881 0.01336 0.0
Cd4 Cd 0.00364 0.36164 0.0208 0.0
C5 C 0.9874 0.38393 0.98004 0.0
O6 O 0.99273 0.36734 0.06359 0.0
O7 O 0.01749 0.39198 0.04643 0.0
O8 O 0.01989 0.34383 0.03212 0.0
C9 C 0.00557 0.38498 0.06561 0.0
O10 O 0.9758 0.3819 -0.00112 0.0
C11 C 0.03571 0.35497 0.02022 0.0
O12 O 0.99795 0.37626 0.98131 0.0
O13 O 0.03674 0.36928 0.00807 0.0
C14 C 0.63673 0.68425 -0.00346 0.0
O15 O 0.61912 0.67484 0.98948 0.0
Cd16 Cd 0.60158 0.64073 0.98172 0.0
O17 O 0.64625 0.67562 -0.00042 0.0
Cd18 Cd 0.63933 0.64172 -0.00528 0.0
C19 C 0.6042 0.62169 0.04126 0.0
O20 O 0.62007 0.63164 0.95393 0.0
O21 O 0.61732 0.6087 0.97925 0.0
O22 O 0.66757 0.64689 0.96978 0.0
C23 C 0.61416 0.61385 0.95688 0.0
O24 O 0.59348 0.62348 0.02423 0.0
C25 C 0.67573 0.64336 0.9887 0.0
O26 O 0.62215 0.6285 0.03657 0.0
O27 O 0.66742 0.63969 0.0113 0.0
C28 C 0.32296 0.95153 -0.0026 0.0
O29 O 0.33143 0.94294 0.98843 0.0
Cd30 Cd 0.36497 0.95816 0.97731 0.0
O31 O 0.33214 0.96981 0.00047 0.0
Cd32 Cd 0.36536 0.99777 0.99186 0.0
C33 C 0.38742 0.98282 0.03513 0.0
O34 O 0.37083 0.98508 0.95133 0.0
O35 O 0.39642 0.00901 0.96828 0.0
O36 O 0.35814 0.02018 0.9696 0.0
C37 C 0.38878 0.997 0.94933 0.0
O38 O 0.38385 0.96935 0.0186 0.0
C39 C 0.36301 0.03207 0.98874 0.0
O40 O 0.38142 0.99451 0.03096 0.0
O41 O 0.36847 0.02786 0.0101 0.0
C42 C 0.95338 0.63281 0.01297 0.0
O43 O 0.94589 0.61585 0.02232 0.0
Cd44 Cd 0.96419 0.60117 0.03576 0.0
O45 O 0.97169 0.64319 0.00984 0.0
Cd46 Cd 0.00174 0.64182 0.01739 0.0
C47 C 0.98818 0.60263 0.97777 0.0
O48 O 0.9911 0.6255 0.06004 0.0
O49 O 0.01802 0.62912 0.04553 0.0
O50 O 0.01652 0.67612 0.02743 0.0
C51 C 0.00516 0.62278 0.0636 0.0
O52 O 0.97582 0.59272 -0.00427 0.0
C53 C 0.03175 0.6815 0.01367 0.0
O54 O 0.99841 0.62094 0.97962 0.0
O55 O 0.03312 0.6684 0.00142 0.0
C56 C 0.32706 0.36689 0.00822 0.0
O57 O 0.33698 0.38421 0.00015 0.0
Cd58 Cd 0.37004 0.39936 0.98584 0.0
O59 O 0.33467 0.35634 0.01008 0.0
Cd60 Cd 0.36597 0.35764 0.00143 0.0
C61 C 0.39316 0.39608 0.04186 0.0
O62 O 0.37009 0.37447 0.96029 0.0
O63 O 0.39388 0.37052 0.9699 0.0
O64 O 0.34491 0.32335 0.99245 0.0
C65 C 0.38657 0.37724 0.95397 0.0
O66 O 0.39076 0.4065 0.02501 0.0
C67 C 0.35536 0.31795 0.00411 0.0
O68 O 0.38457 0.37783 0.03908 0.0
O69 O 0.37096 0.33105 0.01456 0.0
C70 C 0.67713 0.04586 0.00663 0.0
O71 O 0.66703 0.05258 0.01609 0.0
Cd72 Cd 0.63365 0.03355 0.02778 0.0
O73 O 0.66966 0.02771 0.0031 0.0
Cd74 Cd 0.63765 0.99718 0.0108 0.0
C75 C 0.61441 0.011 0.96765 0.0
O76 O 0.63125 0.00754 0.05329 0.0
O77 O 0.60716 0.98186 0.03711 0.0
O78 O 0.65738 0.98313 0.02317 0.0
C79 C 0.61403 0.99379 0.05621 0.0
O80 O 0.61595 0.02281 0.98579 0.0
C81 C 0.64668 0.96683 0.01232 0.0
O82 O 0.62206 0.00056 0.97056 0.0
O83 O 0.63194 0.96467 -0.00014 0.0
C84 C 0.62414 0.65294 0.34646 0.0
O85 O 0.61507 0.66145 0.35314 0.0
Cd86 Cd 0.62928 0.69513 0.36192 0.0
O87 O 0.64255 0.66243 0.34387 0.0
Cd88 Cd 0.66953 0.69676 0.34938 0.0
C89 C 0.6536 0.71685 0.30379 0.0
O90 O 0.65674 0.70395 0.38899 0.0
O91 O 0.68043 0.72856 0.36967 0.0
O92 O 0.69246 0.69197 0.37489 0.0
C93 C 0.66865 0.72193 0.3891 0.0
O94 O 0.63991 0.71302 0.32017 0.0
C95 C 0.70445 0.69541 0.35616 0.0
O96 O 0.66585 0.71156 0.30851 0.0
O97 O 0.70017 0.69906 0.33342 0.0
C98 C 0.29399 0.0146 0.34306 0.0
O99 O 0.27621 0.0045 0.33689 0.0
Cd100 Cd 0.25989 0.97193 0.32131 0.0
O101 O 0.30505 0.00748 0.34175 0.0
Cd102 Cd 0.30236 0.97605 0.32862 0.0
C103 C 0.26713 0.94863 0.37349 0.0
O104 O 0.28187 0.97105 0.29028 0.0
O105 O 0.28534 0.94706 0.2999 0.0
O106 O 0.33598 0.99392 0.31227 0.0
C107 C 0.27788 0.9541 0.2848 0.0
O108 O 0.25542 0.9508 0.35886 0.0
C109 C 0.34127 0.98332 0.32376 0.0
O110 O 0.28522 0.95758 0.36835 0.0
O111 O 0.32857 0.9695 0.33768 0.0
C112 C 0.9914 0.29256 0.34128 0.0
O113 O 0.00025 0.2842 0.33294 0.0
Cd114 Cd 0.03358 0.2999 0.32032 0.0
O115 O 0.00014 0.3109 0.34342 0.0
Cd116 Cd 0.03313 0.33897 0.33373 0.0
C117 C 0.05797 0.32663 0.37581 0.0
O118 O 0.03791 0.32576 0.29316 0.0
O119 O 0.06367 0.35022 0.3088 0.0
O120 O 0.02584 0.36105 0.31086 0.0
C121 C 0.05572 0.33792 0.29025 0.0
O122 O 0.0543 0.31289 0.35976 0.0
C123 C 0.03062 0.3731 0.32978 0.0
O124 O 0.05095 0.33751 0.37203 0.0
O125 O 0.03592 0.36905 0.3514 0.0
C126 C 0.6194 0.96354 0.34853 0.0
O127 O 0.61321 0.94696 0.35852 0.0
Cd128 Cd 0.63413 0.93452 0.36824 0.0
O129 O 0.63742 0.97446 0.3436 0.0
Cd130 Cd 0.66812 0.97389 0.34897 0.0
C131 C 0.65474 0.93639 0.30725 0.0
O132 O 0.66173 0.95823 0.39278 0.0
O133 O 0.68476 0.95874 0.36976 0.0
O134 O 0.68339 0.0077 0.36236 0.0
C135 C 0.67563 0.95498 0.39165 0.0
O136 O 0.64391 0.92608 0.32631 0.0
C137 C 0.698 0.01377 0.34708 0.0
O138 O 0.66406 0.95472 0.30902 0.0
O139 O 0.69872 0.00132 0.33228 0.0
C140 C 0.98864 0.70144 0.33506 0.0
O141 O 0.99846 0.71837 0.32563 0.0
Cd142 Cd 0.03191 0.7331 0.3134 0.0
O143 O 0.99644 0.69122 0.33879 0.0
Cd144 Cd 0.02793 0.69257 0.33223 0.0
C145 C 0.05266 0.73154 0.37268 0.0
O146 O 0.03355 0.70823 0.28957 0.0
O147 O 0.05729 0.70549 0.30372 0.0
O148 O 0.00714 0.6583 0.32322 0.0
C149 C 0.05038 0.71106 0.2855 0.0
O150 O 0.05084 0.74158 0.3546 0.0
C151 C 0.01724 0.65288 0.33581 0.0
O152 O 0.04467 0.71331 0.37029 0.0
O153 O 0.03246 0.66596 0.34708 0.0
C154 C 0.34832 0.38398 0.34086 0.0
O155 O 0.33865 0.39117 0.35033 0.0
Cd156 Cd 0.30551 0.37242 0.36415 0.0
O157 O 0.34061 0.36573 0.33847 0.0
Cd158 Cd 0.30933 0.33532 0.3482 0.0
C159 C 0.28399 0.34743 0.30616 0.0
O160 O 0.30333 0.34666 0.39012 0.0
O161 O 0.27968 0.31976 0.37598 0.0
O162 O 0.33024 0.32294 0.36148 0.0
C163 C 0.28635 0.33264 0.39391 0.0
O164 O 0.28633 0.35998 0.32359 0.0
C165 C 0.32062 0.30664 0.35018 0.0
O166 O 0.29182 0.33714 0.30901 0.0
O167 O 0.3057 0.30356 0.33729 0.0
C168 C 0.28987 0.98956 0.67116 0.0
O169 O 0.2816 0.99888 0.67771 0.0
Cd170 Cd 0.29725 0.0316 0.69236 0.0
O171 O 0.30834 0.9978 0.67123 0.0
Cd172 Cd 0.3364 0.03099 0.68165 0.0
C173 C 0.32599 0.05741 0.63929 0.0
O174 O 0.3221 0.03573 0.72186 0.0
O175 O 0.34724 0.06117 0.70658 0.0
O176 O 0.35798 0.0236 0.70635 0.0
C177 C 0.33457 0.05343 0.72483 0.0
O178 O 0.31175 0.05338 0.65469 0.0
C179 C 0.3705 0.02803 0.68803 0.0
O180 O 0.3366 0.05004 0.64311 0.0
O181 O 0.367 0.03325 0.66593 0.0
C182 C 0.96834 0.35098 0.66749 0.0
O183 O 0.95043 0.34246 0.66183 0.0
Cd184 Cd 0.92967 0.30899 0.65152 0.0
O185 O 0.97727 0.34162 0.6684 0.0
Cd186 Cd 0.96917 0.30752 0.66134 0.0
C187 C 0.9336 0.28715 0.70813 0.0
O188 O 0.94793 0.3006 0.62347 0.0
O189 O 0.94688 0.27577 0.64118 0.0
O190 O 0.9972 0.31317 0.63508 0.0
C191 C 0.94106 0.28255 0.62304 0.0
O192 O 0.92301 0.28997 0.69207 0.0
C193 C 0.00518 0.30852 0.65301 0.0
O194 O 0.9515 0.29362 0.70323 0.0
O195 O 0.99676 0.3038 0.67556 0.0
C196 C 0.65538 0.62381 0.67337 0.0
O197 O 0.66503 0.61623 0.66517 0.0
Cd198 Cd 0.69843 0.63332 0.65298 0.0
O199 O 0.6635 0.64205 0.67639 0.0
Cd200 Cd 0.6962 0.67143 0.66893 0.0
C201 C 0.72089 0.65855 0.71052 0.0
O202 O 0.70077 0.65904 0.62729 0.0
O203 O 0.72566 0.68524 0.64042 0.0
O204 O 0.67738 0.68651 0.65762 0.0
C205 C 0.71804 0.67213 0.6229 0.0
O206 O 0.71836 0.64596 0.69302 0.0
C207 C 0.68873 0.70269 0.66836 0.0
O208 O 0.71295 0.66874 0.70808 0.0
O209 O 0.70357 0.70438 0.67994 0.0
C210 C 0.28164 0.29619 0.68868 0.0
O211 O 0.27411 0.27907 0.69742 0.0
Cd212 Cd 0.29201 0.26355 0.7082 0.0
O213 O 0.29992 0.30644 0.68503 0.0
Cd214 Cd 0.32946 0.3037 0.69094 0.0
C215 C 0.31385 0.26572 0.64825 0.0
O216 O 0.31926 0.28673 0.73336 0.0
O217 O 0.34502 0.28901 0.71643 0.0
O218 O 0.34606 0.33809 0.70186 0.0
C219 C 0.33297 0.28333 0.73551 0.0
O220 O 0.30183 0.25531 0.66625 0.0
C221 C 0.36119 0.34271 0.68821 0.0
O222 O 0.32455 0.28388 0.6514 0.0
O223 O 0.36157 0.32923 0.67551 0.0
C224 C 0.66394 0.0392 0.6601 0.0
O225 O 0.67496 0.05566 0.64991 0.0
Cd226 Cd 0.70869 0.06715 0.64148 0.0
O227 O 0.67058 0.0283 0.66606 0.0
Cd228 Cd 0.70108 0.02761 0.66332 0.0
C229 C 0.72592 0.06591 0.70362 0.0
O230 O 0.71138 0.04206 0.6192 0.0
O231 O 0.73307 0.04055 0.64269 0.0
O232 O 0.68081 0.99398 0.65113 0.0
C233 C 0.72821 0.04434 0.62057 0.0
O234 O 0.72622 0.07605 0.68398 0.0
C235 C 0.68794 0.98742 0.66768 0.0
O236 O 0.71627 0.04757 0.70239 0.0
O237 O 0.70135 -0.00037 0.68264 0.0
C238 C 0.01647 0.70979 0.6737 0.0
O239 O 0.00751 0.71793 0.68247 0.0
Cd240 Cd 0.97389 0.70156 0.69426 0.0
O241 O 0.00765 0.69149 0.67077 0.0
Cd242 Cd 0.97458 0.66271 0.67907 0.0
C243 C 0.95191 0.67735 0.636 0.0
O244 O 0.96854 0.67473 0.7204 0.0
O245 O 0.94411 0.64898 0.70486 0.0
O246 O 0.99197 0.64716 0.69499 0.0
C247 C 0.95099 0.66163 0.72307 0.0
O248 O 0.95502 0.69022 0.65331 0.0
C249 C 0.98181 0.63128 0.68287 0.0
O250 O 0.95862 0.6661 0.63915 0.0
O251 O 0.96833 0.62995 0.66813 0.0
H252 H 0.2259 0.32838 0.12053 0.0
H253 H 0.18165 0.32912 0.07413 0.0
H254 H 0.18333 0.33637 0.16008 0.0
H255 H 0.15286 0.32387 0.1577 0.0
H256 H 0.11253 0.3338 0.11616 0.0
H257 H 0.16219 0.34063 0.0742 0.0
C258 C 0.21268 0.32897 0.11965 0.0
C259 C 0.20478 0.33133 0.14318 0.0
C260 C 0.20469 0.32875 0.09486 0.0
C261 C 0.18786 0.32999 0.09353 0.0
C262 C 0.17924 0.33211 0.11703 0.0
C263 C 0.18853 0.33356 0.14171 0.0
C264 C 0.16063 0.33255 0.11618 0.0
C265 C 0.14909 0.32824 0.13945 0.0
C266 C 0.1321 0.32911 0.13966 0.0
C267 C 0.12571 0.33312 0.1161 0.0
C268 C 0.13627 0.33678 0.09249 0.0
C269 C 0.15394 0.33697 0.09252 0.0
H270 H 0.66437 0.8906 0.12251 0.0
H271 H 0.66114 0.84384 0.07781 0.0
H272 H 0.67267 0.84891 0.16298 0.0
H273 H 0.66214 0.81899 0.16276 0.0
H274 H 0.67138 0.77833 0.12062 0.0
H275 H 0.67182 0.82409 0.07712 0.0
C276 C 0.66533 0.87764 0.12201 0.0
C277 C 0.66804 0.87023 0.14563 0.0
C278 C 0.66339 0.8684 0.09766 0.0
C279 C 0.66351 0.851 0.09685 0.0
C280 C 0.66666 0.84322 0.12042 0.0
C281 C 0.66928 0.85347 0.14462 0.0
C282 C 0.66747 0.82481 0.12009 0.0
C283 C 0.66545 0.8146 0.14408 0.0
C284 C 0.6677 0.7984 0.14449 0.0
C285 C 0.67074 0.79147 0.12054 0.0
C286 C 0.67167 0.80039 0.09629 0.0
C287 C 0.67036 0.81717 0.09609 0.0
H288 H 0.21601 0.89648 0.12492 0.0
H289 H 0.18534 0.84497 0.07807 0.0
H290 H 0.16318 0.84964 0.15505 0.0
H291 H 0.1523 0.81834 0.15528 0.0
H292 H 0.10946 0.77322 0.10667 0.0
H293 H 0.15256 0.82552 0.06956 0.0
C294 C 0.20347 0.88221 0.12209 0.0
C295 C 0.18988 0.87403 0.14258 0.0
C296 C 0.20212 0.87178 0.09902 0.0
C297 C 0.18602 0.85318 0.09561 0.0
C298 C 0.17158 0.84482 0.11563 0.0
C299 C 0.17379 0.85554 0.13914 0.0
C300 C 0.15478 0.8247 0.11279 0.0
C301 C 0.14631 0.81313 0.13567 0.0
C302 C 0.12964 0.79487 0.1336 0.0
C303 C 0.12215 0.78753 0.10843 0.0
C304 C 0.13056 0.79834 0.08543 0.0
C305 C 0.1467 0.81702 0.08749 0.0
H306 H 0.33936 0.11001 0.89944 0.0
H307 H 0.35115 0.16029 0.94392 0.0
H308 H 0.32444 0.14935 0.86578 0.0
H309 H 0.33924 0.18073 0.86381 0.0
H310 H 0.3327 0.22182 0.90979 0.0
H311 H 0.33561 0.17664 0.95017 0.0
C312 C 0.33844 0.12297 0.90123 0.0
C313 C 0.33146 0.12873 0.87993 0.0
C314 C 0.34529 0.13417 0.9243 0.0
C315 C 0.34506 0.15145 0.92632 0.0
C316 C 0.3376 0.15743 0.90521 0.0
C317 C 0.33065 0.14565 0.88217 0.0
C318 C 0.33715 0.17583 0.90676 0.0
C319 C 0.33746 0.18563 0.88315 0.0
C320 C 0.33513 0.20174 0.88414 0.0
C321 C 0.33377 0.20892 0.90888 0.0
C322 C 0.3344 0.20019 0.93254 0.0
C323 C 0.33588 0.18357 0.9316 0.0
H324 H 0.77979 0.10893 0.88816 0.0
H325 H 0.81983 0.15718 0.93519 0.0
H326 H 0.82982 0.15474 0.8505 0.0
H327 H 0.84437 0.18582 0.85317 0.0
H328 H 0.89579 0.22615 0.89463 0.0
H329 H 0.85149 0.1775 0.93664 0.0
C330 C 0.79335 0.12253 0.88954 0.0
C331 C 0.80395 0.1312 0.86642 0.0
C332 C 0.79932 0.13161 0.91433 0.0
C333 C 0.81602 0.15001 0.91604 0.0
C334 C 0.82748 0.15889 0.89306 0.0
C335 C 0.82127 0.14894 0.86843 0.0
C336 C 0.84584 0.17829 0.89429 0.0
C337 C 0.853 0.18983 0.87108 0.0
C338 C 0.87114 0.20692 0.87075 0.0
C339 C 0.88176 0.21303 0.89441 0.0
C340 C 0.87433 0.20295 0.91827 0.0
C341 C 0.85656 0.18544 0.91817 0.0
H342 H 0.77426 0.66322 0.89089 0.0
H343 H 0.8153 0.65517 0.93446 0.0
H344 H 0.82841 0.6787 0.85424 0.0
H345 H 0.84633 0.66593 0.85195 0.0
H346 H 0.89475 0.67223 0.89548 0.0
H347 H 0.84685 0.66879 0.93848 0.0
C348 C 0.78851 0.66477 0.89199 0.0
C349 C 0.80067 0.67118 0.86975 0.0
C350 C 0.79395 0.65939 0.91533 0.0
C351 C 0.81189 0.66029 0.91658 0.0
C352 C 0.82477 0.66709 0.8945 0.0
C353 C 0.81893 0.67284 0.87133 0.0
C354 C 0.844 0.66794 0.89512 0.0
C355 C 0.85329 0.66781 0.87103 0.0
C356 C 0.87184 0.67014 0.87115 0.0
C357 C 0.8808 0.67139 0.89542 0.0
C358 C 0.87159 0.67032 0.91959 0.0
C359 C 0.85336 0.6689 0.91951 0.0
H360 H 0.89029 0.66215 0.45453 0.0
H361 H 0.84617 0.66466 0.41014 0.0
H362 H 0.84823 0.67002 0.4963 0.0
H363 H 0.81701 0.65667 0.4931 0.0
H364 H 0.77941 0.67186 0.45416 0.0
H365 H 0.82996 0.68025 0.4129 0.0
C366 C 0.8772 0.66299 0.45429 0.0
C367 C 0.86959 0.66513 0.47829 0.0
C368 C 0.86908 0.66332 0.42983 0.0
C369 C 0.85252 0.66503 0.42927 0.0
C370 C 0.84425 0.66696 0.45321 0.0
C371 C 0.85345 0.66759 0.47762 0.0
C372 C 0.8261 0.66816 0.45294 0.0
C373 C 0.81389 0.66246 0.47566 0.0
C374 C 0.79727 0.66401 0.47624 0.0
C375 C 0.79216 0.67042 0.45364 0.0
C376 C 0.80374 0.67601 0.43079 0.0
C377 C 0.8208 0.67509 0.43041 0.0
H378 H 0.33351 0.22879 0.45899 0.0
H379 H 0.34306 0.18832 0.41601 0.0
H380 H 0.33125 0.18168 0.50107 0.0
H381 H 0.3489 0.16853 0.501 0.0
H382 H 0.34528 0.11954 0.46218 0.0
H383 H 0.33205 0.15668 0.41789 0.0
C384 C 0.33475 0.21598 0.45899 0.0
C385 C 0.33281 0.20634 0.4829 0.0
C386 C 0.33797 0.20927 0.43493 0.0
C387 C 0.33974 0.19276 0.4347 0.0
C388 C 0.33773 0.18257 0.45866 0.0
C389 C 0.3336 0.18933 0.4825 0.0
C390 C 0.34033 0.16529 0.45921 0.0
C391 C 0.3458 0.15996 0.48309 0.0
C392 C 0.34723 0.14331 0.48442 0.0
C393 C 0.34467 0.13267 0.46121 0.0
C394 C 0.33964 0.13769 0.43716 0.0
C395 C 0.33698 0.15366 0.4363 0.0
H396 H 0.87805 0.22926 0.46364 0.0
H397 H 0.85574 0.179 0.41357 0.0
H398 H 0.83127 0.17568 0.49174 0.0
H399 H 0.83071 0.14676 0.48812 0.0
H400 H 0.78632 0.10033 0.4422 0.0
H401 H 0.82039 0.15599 0.40658 0.0
C402 C 0.86761 0.21418 0.46003 0.0
C403 C 0.85481 0.20336 0.48043 0.0
C404 C 0.86863 0.20551 0.43625 0.0
C405 C 0.85493 0.18593 0.43169 0.0
C406 C 0.84111 0.17497 0.4515 0.0
C407 C 0.84133 0.1839 0.47591 0.0
C408 C 0.82721 0.15397 0.44786 0.0
C409 C 0.82275 0.14136 0.46968 0.0
C410 C 0.80783 0.12201 0.46818 0.0
C411 C 0.79833 0.11501 0.44378 0.0
C412 C 0.80316 0.12699 0.42147 0.0
C413 C 0.81742 0.14656 0.42351 0.0
H414 H 0.01127 0.4498 0.23391 0.0
H415 H 0.02005 0.50021 0.27516 0.0
H416 H 0.9956 0.48716 0.19547 0.0
H417 H 0.00895 0.51865 0.19295 0.0
H418 H 0.9987 0.55841 0.23639 0.0
H419 H 0.00277 0.51476 0.27912 0.0
C420 C 0.00992 0.46255 0.23442 0.0
C421 C 0.00307 0.46744 0.21207 0.0
C422 C 0.01583 0.47421 0.25712 0.0
C423 C 0.01478 0.49107 0.25769 0.0
C424 C 0.00746 0.4962 0.23548 0.0
C425 C 0.00161 0.48406 0.2127 0.0
C426 C 0.0058 0.51396 0.23593 0.0
C427 C 0.00628 0.52339 0.21187 0.0
C428 C 0.00306 0.53897 0.21193 0.0
C429 C 0.00045 0.5459 0.23619 0.0
C430 C 0.00081 0.53749 0.2603 0.0
C431 C 0.00327 0.52145 0.26025 0.0
H432 H 0.45255 0.4401 0.22101 0.0
H433 H 0.4921 0.48965 0.26639 0.0
H434 H 0.50345 0.48455 0.18301 0.0
H435 H 0.51777 0.51571 0.1837 0.0
H436 H 0.56684 0.55907 0.22591 0.0
H437 H 0.52421 0.50924 0.2682 0.0
C438 C 0.46622 0.45362 0.22218 0.0
C439 C 0.47721 0.46155 0.19911 0.0
C440 C 0.47179 0.46347 0.2465 0.0
C441 C 0.48859 0.48182 0.24774 0.0
C442 C 0.50047 0.4899 0.2249 0.0
C443 C 0.49463 0.47925 0.2008 0.0
C444 C 0.51864 0.50941 0.2257 0.0
C445 C 0.52578 0.52053 0.20214 0.0
C446 C 0.54347 0.53803 0.20192 0.0
C447 C 0.55363 0.54509 0.22573 0.0
C448 C 0.54653 0.53499 0.24963 0.0
C449 C 0.52916 0.51709 0.24963 0.0
H450 H 0.43641 0.99141 0.22344 0.0
H451 H 0.47936 0.99061 0.27226 0.0
H452 H 0.48403 0.99172 0.18561 0.0
H453 H 0.50992 0.99286 0.18808 0.0
H454 H 0.55345 0.99228 0.23504 0.0
H455 H 0.50462 0.98879 0.27471 0.0
C456 C 0.44996 0.9915 0.22496 0.0
C457 C 0.45988 0.99188 0.20191 0.0
C458 C 0.45701 0.99092 0.25006 0.0
C459 C 0.47443 0.99081 0.25238 0.0
C460 C 0.48497 0.99101 0.22929 0.0
C461 C 0.4771 0.99146 0.20411 0.0
C462 C 0.50397 0.99102 0.23114 0.0
C463 C 0.51467 0.99209 0.20778 0.0
C464 C 0.53242 0.99267 0.20913 0.0
C465 C 0.53985 0.99214 0.2339 0.0
C466 C 0.52979 0.99078 0.25728 0.0
C467 C 0.51191 0.99008 0.25606 0.0
H468 H 0.56638 0.00649 0.77615 0.0
H469 H 0.52034 0.0053 0.73145 0.0
H470 H 0.52056 0.00812 0.81774 0.0
H471 H 0.48932 0.99029 0.813 0.0
H472 H 0.4485 0.0027 0.77785 0.0
H473 H 0.50129 0.01865 0.73606 0.0
C474 C 0.55268 0.00616 0.77584 0.0
C475 C 0.544 0.00659 0.79985 0.0
C476 C 0.54442 0.00615 0.75133 0.0
C477 C 0.52681 0.00596 0.75061 0.0
C478 C 0.51752 0.00608 0.77456 0.0
C479 C 0.52677 0.00712 0.79904 0.0
C480 C 0.49806 0.00461 0.77443 0.0
C481 C 0.48553 0.99637 0.79656 0.0
C482 C 0.46792 0.996 0.79809 0.0
C483 C 0.46201 0.00266 0.77659 0.0
C484 C 0.4738 0.01052 0.75412 0.0
C485 C 0.49193 0.01171 0.75303 0.0
H486 H 0.00172 0.55703 0.79638 0.0
H487 H 0.99486 0.50851 0.7521 0.0
H488 H 0.007 0.51337 0.83697 0.0
H489 H 0.99218 0.48208 0.83549 0.0
H490 H 0.00442 0.44281 0.79432 0.0
H491 H 0.00811 0.49042 0.75186 0.0
C492 C 0.00184 0.54362 0.79589 0.0
C493 C 0.00411 0.5359 0.81953 0.0
C494 C -0.00107 0.53397 0.77164 0.0
C495 C 0.99792 0.51603 0.77096 0.0
C496 C 0.00088 0.50811 0.79447 0.0
C497 C 0.00412 0.51848 0.81864 0.0
C498 C 0.00095 0.48941 0.79405 0.0
C499 C 0.99692 0.4782 0.81753 0.0
C500 C 0.99835 0.4615 0.81796 0.0
C501 C 0.00329 0.45565 0.79438 0.0
C502 C 0.00603 0.46559 0.77045 0.0
C503 C 0.0052 0.4826 0.7704 0.0
H504 H 0.55747 0.55775 0.78189 0.0
H505 H 0.50903 0.51506 0.73783 0.0
H506 H 0.51689 0.50532 0.82072 0.0
H507 H 0.48556 0.48936 0.82221 0.0
H508 H 0.44078 0.44109 0.7805 0.0
H509 H 0.48989 0.48344 0.73668 0.0
C510 C 0.54429 0.54377 0.78132 0.0
C511 C 0.5381 0.53234 0.80421 0.0
C512 C 0.53419 0.53731 0.75736 0.0
C513 C 0.51687 0.51946 0.75645 0.0
C514 C 0.50976 0.50779 0.77955 0.0
C515 C 0.52102 0.5143 0.80314 0.0
C516 C 0.49064 0.48913 0.77944 0.0
C517 C 0.48025 0.48168 0.80358 0.0
C518 C 0.46251 0.4643 0.80407 0.0
C519 C 0.45451 0.45462 0.78023 0.0
C520 C 0.46416 0.46169 0.75602 0.0
C521 C 0.48238 0.47867 0.75556 0.0
H522 H 0.66746 0.77899 0.56154 0.0
H523 H 0.68174 0.82953 0.60701 0.0
H524 H 0.66759 0.82631 0.523 0.0
H525 H 0.68575 0.85799 0.52556 0.0
H526 H 0.67587 0.89812 0.56925 0.0
H527 H 0.6685 0.84801 0.60873 0.0
C528 C 0.6693 0.7933 0.56257 0.0
C529 C 0.66752 0.80187 0.53945 0.0
C530 C 0.67412 0.80312 0.58687 0.0
C531 C 0.67742 0.82197 0.58814 0.0
C532 C 0.67491 0.83072 0.56524 0.0
C533 C 0.67001 0.82038 0.54089 0.0
C534 C 0.67657 0.85012 0.56674 0.0
C535 C 0.6815 0.86202 0.54386 0.0
C536 C 0.68118 0.87933 0.5444 0.0
C537 C 0.67653 0.885 0.56838 0.0
C538 C 0.67261 0.87406 0.59154 0.0
C539 C 0.67242 0.8566 0.59076 0.0
H540 H 0.11408 0.77097 0.55729 0.0
H541 H 0.1628 0.81438 0.60054 0.0
H542 H 0.15778 0.81959 0.51519 0.0
H543 H 0.18846 0.83538 0.51465 0.0
H544 H 0.23255 0.88622 0.55239 0.0
H545 H 0.18414 0.84547 0.59883 0.0
C546 C 0.12801 0.78426 0.55734 0.0
C547 C 0.13552 0.79408 0.53344 0.0
C548 C 0.13752 0.79178 0.58151 0.0
C549 C 0.15543 0.80919 0.5817 0.0
C550 C 0.16365 0.81941 0.55764 0.0
C551 C 0.15287 0.81187 0.53381 0.0
C552 C 0.18325 0.83767 0.5569 0.0
C553 C 0.19369 0.84396 0.53258 0.0
C554 C 0.21105 0.86166 0.53063 0.0
C555 C 0.21928 0.87235 0.55376 0.0
C556 C 0.20994 0.86624 0.57843 0.0
C557 C 0.19165 0.84927 0.57988 0.0
H558 H 0.10684 0.32874 0.55549 0.0
H559 H 0.14535 0.31918 0.60313 0.0
H560 H 0.16249 0.34434 0.52416 0.0
H561 H 0.17895 0.32983 0.52323 0.0
H562 H 0.22602 0.33581 0.56995 0.0
H563 H 0.17726 0.33322 0.60951 0.0
C564 C 0.1209 0.33005 0.55803 0.0
C565 C 0.13416 0.33683 0.53701 0.0
C566 C 0.12502 0.324 0.58192 0.0
C567 C 0.1428 0.3247 0.58493 0.0
C568 C 0.15669 0.33176 0.56398 0.0
C569 C 0.15216 0.3382 0.54033 0.0
C570 C 0.17562 0.33213 0.56607 0.0
C571 C 0.18541 0.33167 0.54269 0.0
C572 C 0.20385 0.33376 0.54398 0.0
C573 C 0.21214 0.33509 0.56885 0.0
C574 C 0.2024 0.33438 0.59238 0.0
C575 C 0.18426 0.33312 0.59107 0.0
H576 H 0.02711 0.42433 0.06958 0.0
H577 H 0.97915 0.4286 0.20714 0.0
H578 H 0.98075 0.37412 0.10815 0.0
H579 H 0.01847 0.47927 0.16233 0.0
H580 H 0.9782 0.40843 0.16993 0.0
H581 H 0.02372 0.44476 0.10278 0.0
C582 C 0.01626 0.41759 0.08509 0.0
C583 C 0.00426 0.39747 0.08619 0.0
C584 C 0.98681 0.42396 0.16799 0.0
C585 C 0.00021 0.42078 0.12414 0.0
C586 C 0.98725 0.43545 0.18915 0.0
C587 C -0.00108 0.45557 0.18772 0.0
C588 C 0.99836 0.43266 0.14536 0.0
C589 C 0.0092 0.46379 0.16408 0.0
C590 C 0.01424 0.42928 0.10393 0.0
C591 C 0.99037 0.38955 0.10662 0.0
N592 N 0.00891 0.45228 0.14394 0.0
N593 N 0.98878 0.40122 0.12484 0.0
H594 H 0.62223 0.61375 0.08127 0.0
H595 H 0.52466 0.54649 0.16326 0.0
H596 H 0.5661 0.60344 0.05703 0.0
H597 H 0.5808 0.55542 0.18418 0.0
H598 H 0.53925 0.56719 0.12417 0.0
H599 H 0.60715 0.59298 0.11977 0.0
C600 C 0.60674 0.60723 0.08411 0.0
C601 C 0.59543 0.61035 0.06581 0.0
C602 C 0.54835 0.56457 0.1373 0.0
C603 C 0.57799 0.58634 0.10987 0.0
C604 C 0.54 0.55265 0.15948 0.0
C605 C 0.55156 0.54933 0.17707 0.0
C606 C 0.56838 0.57319 0.13272 0.0
C607 C 0.5714 0.55783 0.17137 0.0
C608 C 0.59811 0.59528 0.10608 0.0
C609 C 0.5754 0.60146 0.07059 0.0
N610 N 0.57917 0.56939 0.14978 0.0
N611 N 0.56731 0.58981 0.09212 0.0
H612 H 0.39717 0.00909 0.07569 0.0
H613 H 0.4562 0.97037 0.1574 0.0
H614 H 0.40464 0.96216 0.04915 0.0
H615 H 0.44505 0.01434 0.18647 0.0
H616 H 0.44001 0.96928 0.11564 0.0
H617 H 0.41676 0.01288 0.11487 0.0
C618 C 0.40291 -0.00043 0.07808 0.0
C619 C 0.39913 0.9852 0.05913 0.0
C620 C 0.44119 0.97924 0.13111 0.0
C621 C 0.4217 0.98955 0.10394 0.0
C622 C 0.45056 0.97996 0.15486 0.0
C623 C 0.45181 0.99234 0.17552 0.0
C624 C 0.43303 0.99097 0.12801 0.0
C625 C 0.4441 0.00434 0.17123 0.0
C626 C 0.41413 0.00177 0.10045 0.0
C627 C 0.40705 0.97336 0.06328 0.0
N628 N 0.43495 0.00329 0.14803 0.0
N629 N 0.41793 0.97578 0.08524 0.0
H630 H 0.37584 0.97183 0.90759 0.0
H631 H 0.48166 0.00918 0.84799 0.0
H632 H 0.42832 0.01663 0.94396 0.0
H633 H 0.42882 0.97262 0.80509 0.0
H634 H 0.46249 0.0071 0.88729 0.0
H635 H 0.39525 0.96784 0.87337 0.0
C636 C 0.39147 0.98084 0.90838 0.0
C637 C 0.40049 0.99471 0.9285 0.0
C638 C 0.4551 0.99929 0.8694 0.0
C639 C 0.42279 0.9901 0.88949 0.0
C640 C 0.46603 0.00029 0.8471 0.0
C641 C 0.45676 0.99118 0.82326 0.0
C642 C 0.4348 0.98909 0.8678 0.0
C643 C 0.43648 0.98003 0.82304 0.0
C644 C 0.40253 0.9785 0.88887 0.0
C645 C 0.42078 0.00588 0.92865 0.0
N646 N 0.42616 0.97946 0.8449 0.0
N647 N 0.43126 0.00337 0.90935 0.0
H648 H 0.98271 0.41517 0.97906 0.0
H649 H 0.98072 0.42206 0.8226 0.0
H650 H 0.9952 0.37951 0.92811 0.0
H651 H 0.00728 0.47409 0.87014 0.0
H652 H 0.97853 0.40358 0.86216 0.0
H653 H 0.9847 0.43451 0.94012 0.0
C654 C 0.9858 0.41138 0.95965 0.0
C655 C 0.98879 0.39572 0.95672 0.0
C656 C 0.98481 0.41905 0.86385 0.0
C657 C 0.99067 0.41747 0.91233 0.0
C658 C 0.98619 0.42969 0.84127 0.0
C659 C 0.99469 0.44986 0.84273 0.0
C660 C 0.99141 0.42845 0.88836 0.0
C661 C 0.00063 0.45864 0.86792 0.0
C662 C 0.98701 0.42246 0.93757 0.0
C663 C 0.99288 0.39151 0.93121 0.0
N664 N -0.00114 0.44787 0.88979 0.0
N665 N 0.99348 0.40219 0.90989 0.0
H666 H 0.58503 0.57638 0.96311 0.0
H667 H 0.57754 0.55171 0.80927 0.0
H668 H 0.61789 0.61923 0.90332 0.0
H669 H 0.52511 0.53029 0.85577 0.0
H670 H 0.59632 0.57001 0.84797 0.0
H671 H 0.56625 0.55333 0.9274 0.0
C672 C 0.58835 0.58085 0.94248 0.0
C673 C 0.60292 0.59969 0.936 0.0
C674 C 0.58072 0.56109 0.84971 0.0
C675 C 0.58208 0.57348 0.89558 0.0
C676 C 0.56997 0.55068 0.8277 0.0
C677 C 0.54964 0.53989 0.82905 0.0
C678 C 0.57117 0.56037 0.87349 0.0
C679 C 0.54072 0.53853 0.85378 0.0
C680 C 0.57765 0.56777 0.92227 0.0
C681 C 0.60667 0.60487 0.90908 0.0
N682 N 0.55156 0.54884 0.87509 0.0
N683 N 0.59642 0.59176 0.88981 0.0
H684 H 0.97027 0.56374 0.96865 0.0
H685 H 0.02599 0.57438 0.83138 0.0
H686 H 0.01342 0.61848 0.9356 0.0
H687 H 0.9842 0.51966 0.86568 0.0
H688 H 0.02326 0.5907 0.87091 0.0
H689 H 0.97628 0.54732 0.93217 0.0
C690 C 0.98098 0.57234 0.95369 0.0
C691 C 0.99129 0.59257 0.95518 0.0
C692 C 0.01482 0.57512 0.86995 0.0
C693 C 0.99833 0.57376 0.91334 0.0
C694 C 0.0164 0.5658 0.84741 0.0
C695 C 0.00517 0.54565 0.84517 0.0
C696 C 0.00183 0.56422 0.89038 0.0
C697 C 0.99317 0.53521 0.86664 0.0
C698 C 0.98446 0.56292 0.9329 0.0
C699 C 0.00506 0.60289 0.93525 0.0
N700 N 0.99165 0.54463 0.88823 0.0
N701 N 0.00814 0.59337 0.91514 0.0
H702 H 0.37408 0.39351 0.91765 0.0
H703 H 0.47778 0.45741 0.84833 0.0
H704 H 0.42502 0.39216 0.9417 0.0
H705 H 0.42453 0.45019 0.81679 0.0
H706 H 0.45971 0.43724 0.88656 0.0
H707 H 0.39323 0.41725 0.88365 0.0
C708 C 0.3893 0.39816 0.91569 0.0
C709 C 0.39795 0.39078 0.93243 0.0
C710 C 0.45203 0.44025 0.8714 0.0
C711 C 0.42004 0.41814 0.89367 0.0
C712 C 0.46235 0.45191 0.8498 0.0
C713 C 0.45256 0.45532 0.82941 0.0
C714 C 0.43183 0.43208 0.87259 0.0
C715 C 0.43255 0.44772 0.83202 0.0
C716 C 0.40025 0.41177 0.89632 0.0
C717 C 0.41775 0.39739 0.92908 0.0
N718 N 0.42282 0.43635 0.85312 0.0
N719 N 0.42816 0.41073 0.91006 0.0
H720 H 0.6076 0.98764 0.92392 0.0
H721 H 0.54892 0.02822 0.84488 0.0
H722 H 0.5963 0.03104 0.95522 0.0
H723 H 0.55993 0.98471 0.81343 0.0
H724 H 0.5653 0.02864 0.88613 0.0
H725 H 0.58959 0.9858 0.88366 0.0
C726 C 0.60135 0.99677 0.92237 0.0
C727 C 0.60354 0.00954 0.94303 0.0
C728 C 0.5641 0.01897 0.87022 0.0
C729 C 0.58286 0.00749 0.89698 0.0
C730 C 0.55463 0.01864 0.84673 0.0
C731 C 0.55312 0.00649 0.82558 0.0
C732 C 0.57212 0.00704 0.87266 0.0
C733 C 0.56102 0.99454 0.82903 0.0
C734 C 0.59104 0.99571 0.89937 0.0
C735 C 0.59506 0.021 0.93986 0.0
N736 N 0.5702 0.99515 0.85204 0.0
N737 N 0.58514 0.01971 0.91731 0.0
H738 H 0.62509 0.01852 0.09842 0.0
H739 H 0.51923 0.97027 0.16403 0.0
H740 H 0.57524 0.96868 0.06484 0.0
H741 H 0.57076 0.01717 0.19917 0.0
H742 H 0.53874 0.97046 0.12597 0.0
H743 H 0.60478 0.0189 0.13441 0.0
C744 C 0.60986 0.0076 0.09867 0.0
C745 C 0.60186 0.99353 0.07861 0.0
C746 C 0.54574 0.98076 0.14196 0.0
C747 C 0.5784 0.99394 0.1198 0.0
C748 C 0.5346 0.98075 0.16353 0.0
C749 C 0.54345 0.99368 0.18476 0.0
C750 C 0.56581 0.99386 0.14164 0.0
C751 C 0.56342 0.00683 0.18333 0.0
C752 C 0.59824 0.00784 0.11922 0.0
C753 C 0.582 0.97977 0.07994 0.0
N754 N 0.57391 0.00655 0.16221 0.0
N755 N 0.57093 0.98032 0.10019 0.0
H756 H 0.97752 0.60458 0.10196 0.0
H757 H 0.02936 0.55287 0.17061 0.0
H758 H 0.03173 0.61167 0.07375 0.0
H759 H 0.97533 0.54693 0.1971 0.0
H760 H 0.02979 0.57266 0.1331 0.0
H761 H 0.97614 0.58234 0.13588 0.0
C762 C 0.9892 0.60152 0.10298 0.0
C763 C 0.00479 0.61005 0.08505 0.0
C764 C 0.01777 0.56688 0.14701 0.0
C765 C 0.00326 0.58441 0.12382 0.0
C766 C 0.01746 0.55547 0.16823 0.0
C767 C 0.00238 0.54843 0.18702 0.0
C768 C 0.00286 0.57116 0.14465 0.0
C769 C 0.98735 0.55231 0.18321 0.0
C770 C 0.98837 0.58874 0.12231 0.0
C771 C 0.01947 0.60546 0.08725 0.0
N772 N 0.98805 0.56349 0.16261 0.0
N773 N 0.01835 0.59295 0.10631 0.0
H774 H 0.402 0.37887 0.08215 0.0
H775 H 0.47607 0.47881 0.15289 0.0
H776 H 0.41585 0.43471 0.05232 0.0
H777 H 0.45932 0.4231 0.18614 0.0
H778 H 0.45733 0.46289 0.11296 0.0
H779 H 0.42528 0.39479 0.11815 0.0
C780 C 0.40989 0.39447 0.08317 0.0
C781 C 0.40683 0.40545 0.06424 0.0
C782 C 0.45792 0.45414 0.12886 0.0
C783 C 0.43367 0.42377 0.1053 0.0
C784 C 0.46881 0.46324 0.15154 0.0
C785 C 0.46913 0.45226 0.17298 0.0
C786 C 0.44723 0.43391 0.1276 0.0
C787 C 0.45922 0.4321 0.17023 0.0
C788 C 0.42325 0.40355 0.10368 0.0
C789 C 0.4176 0.42563 0.06652 0.0
N790 N 0.44852 0.42357 0.14809 0.0
N791 N 0.43049 0.43412 0.08669 0.0
H792 H 0.69104 0.76128 0.39331 0.0
H793 H 0.63959 0.76485 0.52829 0.0
H794 H 0.6427 0.71164 0.43001 0.0
H795 H 0.68787 0.81511 0.49287 0.0
H796 H 0.63809 0.74595 0.48924 0.0
H797 H 0.68829 0.78191 0.42692 0.0
C798 C 0.67984 0.75473 0.4084 0.0
C799 C 0.66718 0.7347 0.40901 0.0
C800 C 0.64887 0.76116 0.48977 0.0
C801 C 0.66388 0.75819 0.44736 0.0
C802 C 0.64967 0.77195 0.51201 0.0
C803 C 0.66399 0.79148 0.51382 0.0
C804 C 0.66263 0.76993 0.46928 0.0
C805 C 0.67661 0.80007 0.49216 0.0
C806 C 0.67823 0.76652 0.42751 0.0
C807 C 0.65286 0.72699 0.4289 0.0
N808 N 0.67582 0.78916 0.47089 0.0
N809 N 0.65166 0.73874 0.44732 0.0
H810 H 0.28736 0.94063 0.41035 0.0
H811 H 0.1916 0.862 0.48628 0.0
H812 H 0.22919 0.92454 0.38729 0.0
H813 H 0.24937 0.88186 0.51525 0.0
H814 H 0.20541 0.88153 0.44637 0.0
H815 H 0.27396 0.9168 0.44621 0.0
C816 C 0.27178 0.93214 0.41283 0.0
C817 C 0.2594 0.93472 0.39585 0.0
C818 C 0.2151 0.88148 0.46131 0.0
C819 C 0.24398 0.90727 0.43667 0.0
C820 C 0.20721 0.87012 0.48398 0.0
C821 C 0.21935 0.8704 0.50427 0.0
C822 C 0.23528 0.89327 0.45886 0.0
C823 C 0.23948 0.88145 0.50029 0.0
C824 C 0.26415 0.91848 0.43325 0.0
C825 C 0.23933 0.92319 0.39996 0.0
N826 N 0.24682 0.8926 0.47817 0.0
N827 N 0.23227 0.91001 0.41993 0.0
H828 H 0.06663 0.35227 0.41699 0.0
H829 H 0.13767 0.32369 0.48828 0.0
H830 H 0.07973 0.30998 0.3862 0.0
H831 H 0.11598 0.35713 0.52638 0.0
H832 H 0.1214 0.3236 0.4471 0.0
H833 H 0.08869 0.35838 0.45413 0.0
C834 C 0.07414 0.34427 0.418 0.0
C835 C 0.07116 0.33044 0.39855 0.0
C836 C 0.12041 0.33118 0.46437 0.0
C837 C 0.09659 0.33755 0.44086 0.0
C838 C 0.12988 0.33143 0.48777 0.0
C839 C 0.12801 0.34029 0.5108 0.0
C840 C 0.10902 0.33989 0.46402 0.0
C841 C 0.11756 0.34992 0.50912 0.0
C842 C 0.08677 0.34781 0.43918 0.0
C843 C 0.0814 0.32063 0.40085 0.0
N844 N 0.10829 0.3493 0.48621 0.0
N845 N 0.09362 0.32435 0.42162 0.0
H846 H 0.04215 0.3119 0.24957 0.0
H847 H 0.14689 0.34703 0.18723 0.0
H848 H 0.09512 0.35807 0.28299 0.0
H849 H 0.09316 0.30709 0.14861 0.0
H850 H 0.12853 0.34786 0.2259 0.0
H851 H 0.06099 0.30722 0.21525 0.0
C852 C 0.05777 0.32109 0.24965 0.0
C853 C 0.0671 0.33548 0.26905 0.0
C854 C 0.12077 0.33876 0.20908 0.0
C855 C 0.08877 0.33009 0.22989 0.0
C856 C 0.13124 0.33814 0.18717 0.0
C857 C 0.12146 0.3271 0.16471 0.0
C858 C 0.10044 0.32821 0.20846 0.0
C859 C 0.10119 0.31597 0.16545 0.0
C860 C 0.06852 0.31836 0.23009 0.0
C861 C 0.08736 0.34689 0.26828 0.0
N862 N 0.09134 0.31692 0.1869 0.0
N863 N 0.09755 0.34397 0.24896 0.0
H864 H 0.68183 0.72978 0.265 0.0
H865 H 0.64087 0.78766 0.18495 0.0
H866 H 0.63052 0.73104 0.28824 0.0
H867 H 0.69149 0.78543 0.16107 0.0
H868 H 0.63758 0.76805 0.22406 0.0
H869 H 0.68593 0.75065 0.22723 0.0
C870 C 0.67137 0.73434 0.26212 0.0
C871 C 0.65579 0.72859 0.27987 0.0
C872 C 0.64946 0.77192 0.21031 0.0
C873 C 0.6605 0.75266 0.23674 0.0
C874 C 0.65142 0.78325 0.18812 0.0
C875 C 0.6664 0.7881 0.16965 0.0
C876 C 0.6626 0.76543 0.21408 0.0
C877 C 0.67955 0.7818 0.17461 0.0
C878 C 0.67376 0.74633 0.24058 0.0
C879 C 0.64275 0.73506 0.27511 0.0
N880 N 0.6773 0.77075 0.19624 0.0
N881 N 0.64541 0.74674 0.25406 0.0
H882 H 0.25877 0.96523 0.25092 0.0
H883 H 0.19302 0.85959 0.18996 0.0
H884 H 0.26092 0.9152 0.27637 0.0
H885 H 0.19955 0.91109 0.15398 0.0
H886 H 0.21179 0.87873 0.22834 0.0
H887 H 0.23223 0.94475 0.22077 0.0
C888 C 0.25368 0.94994 0.25014 0.0
C889 C 0.26222 0.94194 0.26595 0.0
C890 C 0.20874 0.88578 0.21233 0.0
C891 C 0.23166 0.91839 0.2318 0.0
C892 C 0.19777 0.87481 0.19064 0.0
C893 C 0.19488 0.88384 0.16878 0.0
C894 C 0.21682 0.90588 0.21205 0.0
C895 C 0.20159 0.90365 0.17044 0.0
C896 C 0.23846 0.93825 0.23303 0.0
C897 C 0.25491 0.92201 0.26432 0.0
N898 N 0.21252 0.91408 0.19151 0.0
N899 N 0.24009 0.91093 0.24748 0.0
H900 H 0.67736 0.95341 0.26305 0.0
H901 H 0.64949 0.85318 0.19234 0.0
H902 H 0.63824 0.89767 0.29739 0.0
H903 H 0.68753 0.90889 0.15733 0.0
H904 H 0.64705 0.86923 0.23246 0.0
H905 H 0.68238 0.93737 0.22504 0.0
C906 C 0.66976 0.9378 0.26258 0.0
C907 C 0.6573 0.92689 0.28346 0.0
C908 C 0.65604 0.87795 0.21607 0.0
C909 C 0.66313 0.90841 0.24002 0.0
C910 C 0.65758 0.86879 0.19327 0.0
C911 C 0.66861 0.87971 0.17137 0.0
C912 C 0.6656 0.89819 0.217 0.0
C913 C 0.67862 0.8999 0.17358 0.0
C914 C 0.6727 0.92864 0.24089 0.0
C915 C 0.64793 0.9067 0.28175 0.0
N916 N 0.67678 0.90848 0.19588 0.0
N917 N 0.65104 0.89813 0.26043 0.0
H918 H 0.03866 0.72429 0.24406 0.0
H919 H 0.14392 0.78602 0.17778 0.0
H920 H 0.08909 0.72523 0.27582 0.0
H921 H 0.09119 0.77837 0.14355 0.0
H922 H 0.12496 0.7655 0.21548 0.0
H923 H 0.05845 0.74542 0.20814 0.0
C924 C 0.05392 0.72888 0.2434 0.0
C925 C 0.06224 0.72298 0.26293 0.0
C926 C 0.1176 0.76836 0.19969 0.0
C927 C 0.08512 0.74737 0.22184 0.0
C928 C 0.12841 0.78013 0.17834 0.0
C929 C 0.11904 0.78368 0.15748 0.0
C930 C 0.09738 0.76032 0.20014 0.0
C931 C 0.09892 0.77572 0.15903 0.0
C932 C 0.06525 0.741 0.22288 0.0
C933 C 0.0821 0.72941 0.26108 0.0
N934 N 0.0888 0.76441 0.17991 0.0
N935 N 0.09292 0.74134 0.24089 0.0
H936 H 0.26616 0.36766 0.29327 0.0
H937 H 0.21759 0.30755 0.16014 0.0
H938 H 0.27339 0.32083 0.2656 0.0
H939 H 0.21363 0.35683 0.18481 0.0
H940 H 0.23615 0.31082 0.20026 0.0
H941 H 0.24541 0.36275 0.25512 0.0
C942 C 0.26342 0.35634 0.27917 0.0
C943 C 0.27163 0.34467 0.28268 0.0
C944 C 0.23116 0.32087 0.19701 0.0
C945 C 0.2477 0.33893 0.23885 0.0
C946 C 0.22057 0.31903 0.17409 0.0
C947 C 0.21418 0.33204 0.16899 0.0
C948 C 0.23545 0.33586 0.21508 0.0
C949 C 0.21817 0.34642 0.18799 0.0
C950 C 0.25152 0.35354 0.25737 0.0
C951 C 0.26746 0.33022 0.2637 0.0
N952 N 0.22866 0.34802 0.21011 0.0
N953 N 0.2558 0.32777 0.24262 0.0
H954 H 0.29663 0.35936 0.43355 0.0
H955 H 0.19108 0.30945 0.50058 0.0
H956 H 0.24798 0.30667 0.40383 0.0
H957 H 0.24155 0.35952 0.53233 0.0
H958 H 0.21078 0.30927 0.46301 0.0
H959 H 0.27595 0.3604 0.46851 0.0
C960 C 0.28159 0.34796 0.43444 0.0
C961 C 0.27404 0.33288 0.41579 0.0
C962 C 0.2175 0.32035 0.47814 0.0
C963 C 0.25016 0.33403 0.45574 0.0
C964 C 0.20623 0.32053 0.49943 0.0
C965 C 0.21476 0.33444 0.51964 0.0
C966 C 0.23736 0.33423 0.47708 0.0
C967 C 0.23448 0.34839 0.51734 0.0
C968 C 0.26975 0.34858 0.45438 0.0
C969 C 0.25441 0.31853 0.41786 0.0
N970 N 0.2451 0.34788 0.49655 0.0
N971 N 0.24313 0.31946 0.43749 0.0
H972 H 0.68686 0.92827 0.38665 0.0
H973 H 0.69989 0.91885 0.54066 0.0
H974 H 0.67171 0.95784 0.44517 0.0
H975 H 0.67067 0.86732 0.49235 0.0
H976 H 0.70002 0.93775 0.50266 0.0
H977 H 0.69077 0.90989 0.42277 0.0
C978 C 0.68458 0.93103 0.40712 0.0
C979 C 0.67894 0.94453 0.41308 0.0
C980 C 0.69378 0.92232 0.50043 0.0
C981 C 0.68382 0.92405 0.45406 0.0
C982 C 0.69358 0.91146 0.52208 0.0
C983 C 0.68472 0.89129 0.52005 0.0
C984 C 0.68563 0.91312 0.47625 0.0
C985 C 0.67759 0.88277 0.49498 0.0
C986 C 0.68672 0.92051 0.42756 0.0
C987 C 0.676 0.94749 0.43982 0.0
N988 N 0.67812 0.89373 0.47403 0.0
N989 N 0.67865 0.93745 0.4594 0.0
H990 H 0.07171 0.77011 0.38518 0.0
H991 H 0.11982 0.75688 0.51679 0.0
H992 H 0.06184 0.71527 0.41368 0.0
H993 H 0.1269 0.81154 0.49302 0.0
H994 H 0.09993 0.74189 0.47753 0.0
H995 H 0.09293 0.78593 0.42329 0.0
C996 C 0.07393 0.76137 0.39947 0.0
C997 C 0.06493 0.74129 0.3962 0.0
C998 C 0.10584 0.75717 0.48078 0.0
C999 C 0.08932 0.75937 0.43975 0.0
C1000 C 0.11719 0.76574 0.50323 0.0
C1001 C 0.12488 0.78545 0.5083 0.0
C1002 C 0.1021 0.76837 0.46313 0.0
C1003 C 0.12131 0.79631 0.4898 0.0
C1004 C 0.08609 0.77044 0.42119 0.0
C1005 C 0.06841 0.73075 0.41535 0.0
N1006 N 0.11007 0.7876 0.46807 0.0
N1007 N 0.08033 0.73992 0.43624 0.0
H1008 H 0.35503 0.09265 0.7313 0.0
H1009 H 0.30797 0.08998 0.87238 0.0
H1010 H 0.30908 0.04049 0.76661 0.0
H1011 H 0.34568 0.14275 0.83041 0.0
H1012 H 0.30664 0.07165 0.83266 0.0
H1013 H 0.35111 0.1114 0.76663 0.0
C1014 C 0.34415 0.08517 0.74645 0.0
C1015 C 0.33249 0.065 0.74611 0.0
C1016 C 0.31495 0.08724 0.83192 0.0
C1017 C 0.32782 0.08632 0.78656 0.0
C1018 C 0.31564 0.09768 0.85454 0.0
C1019 C 0.32701 0.11785 0.8546 0.0
C1020 C 0.32597 0.09705 0.80936 0.0
C1021 C 0.33667 0.1272 0.83107 0.0
C1022 C 0.3418 0.09586 0.76656 0.0
C1023 C 0.31847 0.05604 0.7662 0.0
N1024 N 0.33619 0.1167 0.80948 0.0
N1025 N 0.31661 0.06674 0.7857 0.0
H1026 H 0.94966 0.29114 0.75749 0.0
H1027 H 0.86684 0.19417 0.81863 0.0
H1028 H 0.89713 0.25635 0.71302 0.0
H1029 H 0.89385 0.24644 0.86578 0.0
H1030 H 0.88171 0.21365 0.77866 0.0
H1031 H 0.93378 0.27138 0.79719 0.0
C1032 C 0.93485 0.27931 0.7561 0.0
C1033 C 0.92459 0.27542 0.73213 0.0
C1034 C 0.88431 0.2207 0.79789 0.0
C1035 C 0.90669 0.25268 0.77688 0.0
C1036 C 0.87573 0.20966 0.82071 0.0
C1037 C 0.87917 0.21854 0.8459 0.0
C1038 C 0.89678 0.24066 0.80033 0.0
C1039 C 0.89118 0.23874 0.84711 0.0
C1040 C 0.92582 0.26814 0.77866 0.0
C1041 C 0.90542 0.25992 0.73127 0.0
N1042 N 0.89974 0.24907 0.82473 0.0
N1043 N 0.89711 0.24896 0.75329 0.0
H1044 H 0.74359 0.64267 0.71856 0.0
H1045 H 0.7815 0.69084 0.86136 0.0
H1046 H 0.72856 0.68234 0.75396 0.0
H1047 H 0.80197 0.65732 0.82049 0.0
H1048 H 0.7635 0.68959 0.8214 0.0
H1049 H 0.7658 0.6488 0.75525 0.0
C1050 C 0.74489 0.65264 0.73409 0.0
C1051 C 0.73404 0.6619 0.73321 0.0
C1052 C 0.77214 0.68274 0.82102 0.0
C1053 C 0.75966 0.66909 0.77538 0.0
C1054 C 0.78245 0.68349 0.84379 0.0
C1055 C 0.79313 0.67405 0.84428 0.0
C1056 C 0.77235 0.6723 0.79865 0.0
C1057 C 0.794 0.66487 0.82093 0.0
C1058 C 0.75771 0.65623 0.75499 0.0
C1059 C 0.73654 0.6748 0.75385 0.0
N1060 N 0.78353 0.664 0.79919 0.0
N1061 N 0.74901 0.67793 0.77416 0.0
H1062 H 0.70509 0.64548 0.58295 0.0
H1063 H 0.81093 0.67986 0.52514 0.0
H1064 H 0.75741 0.693 0.61564 0.0
H1065 H 0.75812 0.64197 0.48307 0.0
H1066 H 0.79167 0.68045 0.56286 0.0
H1067 H 0.7245 0.64049 0.54977 0.0
C1068 C 0.72067 0.65492 0.58308 0.0
C1069 C 0.72965 0.66977 0.60195 0.0
C1070 C 0.78431 0.67179 0.54553 0.0
C1071 C 0.75197 0.66397 0.56426 0.0
C1072 C 0.79527 0.67126 0.52419 0.0
C1073 C 0.78604 0.66092 0.50102 0.0
C1074 C 0.76401 0.66183 0.54363 0.0
C1075 C 0.76574 0.65022 0.50057 0.0
C1076 C 0.73174 0.65201 0.5642 0.0
C1077 C 0.7499 0.68149 0.6013 0.0
N1078 N 0.75539 0.65107 0.52148 0.0
N1079 N 0.7604 0.67832 0.58274 0.0
H1080 H 0.30869 0.07847 0.62904 0.0
H1081 H 0.36968 0.1276 0.49697 0.0
H1082 H 0.35418 0.06912 0.60042 0.0
H1083 H 0.32751 0.14 0.53052 0.0
H1084 H 0.36627 0.10818 0.53629 0.0
H1085 H 0.31677 0.10233 0.5942 0.0
C1086 C 0.32037 0.08138 0.61538 0.0
C1087 C 0.33067 0.07161 0.61761 0.0
C1088 C 0.35798 0.11538 0.53524 0.0
C1089 C 0.34011 0.09918 0.57753 0.0
C1090 C 0.35996 0.12651 0.51284 0.0
C1091 C 0.34874 0.13531 0.51036 0.0
C1092 C 0.34457 0.11291 0.55521 0.0
C1093 C 0.33651 0.13357 0.53162 0.0
C1094 C 0.32506 0.09513 0.59553 0.0
C1095 C 0.34577 0.07619 0.5994 0.0
N1096 N 0.33457 0.12237 0.55296 0.0
N1097 N 0.34997 0.08957 0.58003 0.0
H1098 H 0.92206 0.29312 0.5882 0.0
H1099 H 0.85992 0.18816 0.52595 0.0
H1100 H 0.92244 0.24318 0.61835 0.0
H1101 H 0.85983 0.23825 0.49607 0.0
H1102 H 0.87737 0.20652 0.56543 0.0
H1103 H 0.89522 0.2722 0.55896 0.0
C1104 C 0.91649 0.27773 0.58868 0.0
C1105 C 0.92468 0.2699 0.60547 0.0
C1106 C 0.87315 0.21339 0.55057 0.0
C1107 C 0.89382 0.24581 0.5721 0.0
C1108 C 0.86292 0.20281 0.52819 0.0
C1109 C 0.85869 0.21181 0.50757 0.0
C1110 C 0.87923 0.23309 0.55217 0.0
C1111 C 0.86309 0.23089 0.51139 0.0
C1112 C 0.90106 0.26577 0.57209 0.0
C1113 C 0.91669 0.24984 0.60551 0.0
N1114 N 0.87347 0.24102 0.53298 0.0
N1115 N 0.90181 0.23849 0.58889 0.0
H1116 H 0.29394 0.22734 0.63466 0.0
H1117 H 0.35326 0.24383 0.49892 0.0
H1118 H 0.33878 0.28299 0.60633 0.0
H1119 H 0.30741 0.18789 0.52444 0.0
H1120 H 0.34847 0.25808 0.539 0.0
H1121 H 0.29874 0.21238 0.59509 0.0
C1122 C 0.30475 0.23644 0.6201 0.0
C1123 C 0.31597 0.25649 0.62387 0.0
C1124 C 0.33943 0.24268 0.53594 0.0
C1125 C 0.32158 0.23939 0.57861 0.0
C1126 C 0.34212 0.23454 0.51299 0.0
C1127 C 0.33057 0.21466 0.5082 0.0
C1128 C 0.32507 0.23091 0.5544 0.0
C1129 C 0.31666 0.20327 0.5274 0.0
C1130 C 0.30749 0.22786 0.59754 0.0
C1131 C 0.32977 0.2675 0.60433 0.0
N1132 N 0.31422 0.21158 0.54964 0.0
N1133 N 0.33218 0.25881 0.58261 0.0
H1134 H 0.76644 0.07138 0.62569 0.0
H1135 H 0.79177 0.08252 0.47203 0.0
H1136 H 0.72215 0.03973 0.56704 0.0
H1137 H 0.80699 0.13295 0.52015 0.0
H1138 H 0.77394 0.06222 0.51005 0.0
H1139 H 0.78923 0.08976 0.58951 0.0
C1140 C 0.76166 0.06808 0.60518 0.0
C1141 C 0.74246 0.05414 0.59916 0.0
C1142 C 0.78152 0.07776 0.51219 0.0
C1143 C 0.76836 0.07455 0.55819 0.0
C1144 C 0.79159 0.08941 0.49052 0.0
C1145 C 0.80057 0.10961 0.49245 0.0
C1146 C 0.78098 0.08633 0.53624 0.0
C1147 C 0.80044 0.11755 0.51747 0.0
C1148 C 0.77459 0.07857 0.58471 0.0
C1149 C 0.73684 0.05047 0.57237 0.0
N1150 N 0.79069 0.10587 0.53836 0.0
N1151 N 0.7498 0.06057 0.55277 0.0
H1152 H 0.9397 0.65028 0.59585 0.0
H1153 H 0.87914 0.6903 0.52042 0.0
H1154 H 0.93566 0.69906 0.62315 0.0
H1155 H 0.88255 0.64111 0.49369 0.0
H1156 H 0.89853 0.69279 0.55946 0.0
H1157 H 0.91818 0.64622 0.55881 0.0
C1158 C 0.93438 0.66019 0.59403 0.0
C1159 C 0.93958 0.67506 0.61267 0.0
C1160 C 0.89494 0.68138 0.54513 0.0
C1161 C 0.91478 0.6704 0.57039 0.0
C1162 C 0.88372 0.67986 0.52296 0.0
C1163 C 0.87933 0.66556 0.50367 0.0
C1164 C 0.90181 0.6685 0.54803 0.0
C1165 C 0.88585 0.65254 0.50786 0.0
C1166 C 0.92201 0.65781 0.57292 0.0
C1167 C 0.93211 0.68739 0.6093 0.0
N1168 N 0.89683 0.65439 0.52946 0.0
N1169 N 0.92013 0.68479 0.58862 0.0
H1170 H 0.91216 0.63701 0.73166 0.0
H1171 H 0.90853 0.69698 0.85691 0.0
H1172 H 0.96135 0.68924 0.76146 0.0
H1173 H 0.85868 0.64452 0.82933 0.0
H1174 H 0.9273 0.69551 0.81951 0.0
H1175 H 0.89171 0.64015 0.7654 0.0
C1176 C 0.91867 0.6491 0.74533 0.0
C1177 C 0.93851 0.66284 0.74383 0.0
C1178 C 0.91222 0.68437 0.82141 0.0
C1179 C 0.91521 0.6666 0.78226 0.0
C1180 C 0.90151 0.68525 0.84271 0.0
C1181 C 0.88211 0.67078 0.84623 0.0
C1182 C 0.90354 0.66881 0.80352 0.0
C1183 C 0.8736 0.65598 0.82721 0.0
C1184 C 0.90697 0.65092 0.7645 0.0
C1185 C 0.94616 0.67826 0.76195 0.0
N1186 N 0.88445 0.65525 0.80676 0.0
N1187 N 0.9345 0.6797 0.78039 0.0
H1188 H 0.30722 0.26699 0.77651 0.0
H1189 H 0.35923 0.21381 0.84028 0.0
H1190 H 0.35894 0.27111 0.74314 0.0
H1191 H 0.3082 0.21159 0.87269 0.0
H1192 H 0.35853 0.23305 0.8028 0.0
H1193 H 0.30688 0.2455 0.81084 0.0
C1194 C 0.31856 0.26342 0.77646 0.0
C1195 C 0.33317 0.2709 0.75697 0.0
C1196 C 0.34743 0.22823 0.81805 0.0
C1197 C 0.33282 0.24614 0.79624 0.0
C1198 C 0.34775 0.21715 0.83928 0.0
C1199 C 0.33386 0.2113 0.85967 0.0
C1200 C 0.33307 0.23336 0.81728 0.0
C1201 C 0.31935 0.21608 0.85756 0.0
C1202 C 0.31833 0.25108 0.79604 0.0
C1203 C 0.34744 0.2657 0.75785 0.0
N1204 N 0.3194 0.22689 0.83688 0.0
N1205 N 0.34692 0.25364 0.77719 0.0
H1206 H 0.73079 0.049 0.74788 0.0
H1207 H 0.80209 0.14884 0.8209 0.0
H1208 H 0.74857 0.10469 0.71353 0.0
H1209 H 0.78684 0.09305 0.85238 0.0
H1210 H 0.78405 0.13316 0.78031 0.0
H1211 H 0.75182 0.06504 0.78589 0.0
C1212 C 0.73904 0.06461 0.74836 0.0
C1213 C 0.73784 0.0755 0.72746 0.0
C1214 C 0.7848 0.12436 0.796 0.0
C1215 C 0.76214 0.094 0.77095 0.0
C1216 C 0.79526 0.13332 0.81906 0.0
C1217 C 0.79585 0.12222 0.84014 0.0
C1218 C 0.77481 0.10415 0.79403 0.0
C1219 C 0.78651 0.10214 0.83679 0.0
C1220 C 0.75114 0.07377 0.77004 0.0
C1221 C 0.74898 0.0957 0.72919 0.0
N1222 N 0.77625 0.09375 0.8143 0.0
N1223 N 0.76064 0.10429 0.75056 0.0
H1224 H 0.03482 0.32135 0.03078 0.0
H1225 H 0.14369 0.37125 0.07222 0.0
H1226 H 0.07443 0.38137 0.01363 0.0
H1227 H 0.10806 0.30992 0.06117 0.0
H1228 H 0.12044 0.37578 0.04621 0.0
H1229 H 0.06234 0.3169 0.0385 0.0
C1230 C 0.04935 0.33356 0.02836 0.0
C1231 C 0.05234 0.35179 0.02179 0.0
C1232 C 0.11804 0.36137 0.04862 0.0
C1233 C 0.08404 0.34688 0.03098 0.0
C1234 C 0.13146 0.35883 0.06313 0.0
C1235 C 0.12784 0.34021 0.0685 0.0
C1236 C 0.10072 0.34512 0.04007 0.0
C1237 C 0.11145 0.32451 0.05711 0.0
C1238 C 0.06508 0.331 0.03264 0.0
C1239 C 0.07149 0.36708 0.01874 0.0
N1240 N 0.09828 0.32728 0.04395 0.0
N1241 N 0.08663 0.36438 0.02385 0.0
H1242 H 0.67312 0.70885 0.0164 0.0
H1243 H 0.64624 0.78845 0.05478 0.0
H1244 H 0.62074 0.70716 0.99171 0.0
H1245 H 0.69718 0.78876 0.08258 0.0
H1246 H 0.64076 0.76318 0.02266 0.0
H1247 H 0.68569 0.74179 0.03246 0.0
C1248 C 0.66435 0.71546 0.01403 0.0
C1249 C 0.64568 0.70504 0.00311 0.0
C1250 C 0.65342 0.7691 0.03532 0.0
C1251 C 0.65999 0.7428 0.02155 0.0
C1252 C 0.65667 0.7837 0.0534 0.0
C1253 C 0.67205 0.7905 0.0715 0.0
C1254 C 0.66559 0.76123 0.03551 0.0
C1255 C 0.68503 0.78371 0.06911 0.0
C1256 C 0.67155 0.73431 0.02319 0.0
C1257 C 0.63509 0.71449 0.00035 0.0
N1258 N 0.68131 0.7692 0.05184 0.0
N1259 N 0.64228 0.73271 0.00981 0.0
H1260 H 0.29513 0.91572 0.98008 0.0
H1261 H 0.24013 0.88838 0.11157 0.0
H1262 H 0.30506 0.96047 0.03644 0.0
H1263 H 0.20209 0.87459 0.04402 0.0
H1264 H 0.26781 0.9081 0.08276 0.0
H1265 H 0.26346 0.89451 0.00119 0.0
C1266 C 0.29051 0.92118 -0.00343 0.0
C1267 C 0.30275 0.93982 0.00672 0.0
C1268 C 0.25339 0.90061 0.07428 0.0
C1269 C 0.26709 0.91567 0.03086 0.0
C1270 C 0.23761 0.88937 0.09058 0.0
C1271 C 0.21875 0.88029 0.08026 0.0
C1272 C 0.25042 0.90241 0.04729 0.0
C1273 C 0.21641 0.88152 0.05273 0.0
C1274 C 0.27249 0.90912 0.00841 0.0
C1275 C 0.29609 0.94623 0.02802 0.0
N1276 N 0.23217 0.89257 0.03701 0.0
N1277 N 0.27887 0.93399 0.03982 0.0
H1278 H 0.35288 0.05129 0.02488 0.0
H1279 H 0.38048 0.13745 0.92335 0.0
H1280 H 0.37436 0.05463 0.94492 0.0
H1281 H 0.32798 0.114 0.96968 0.0
H1282 H 0.38832 0.11518 0.94537 0.0
H1283 H 0.35243 0.08135 0.01676 0.0
C1284 C 0.35771 0.05849 0.00581 0.0
C1285 C 0.36345 0.05047 0.98538 0.0
C1286 C 0.37545 0.11543 0.95144 0.0
C1287 C 0.3637 0.08482 0.97651 0.0
C1288 C 0.37113 0.12828 0.93919 0.0
C1289 C 0.35364 0.12754 0.94489 0.0
C1290 C 0.3622 0.10181 0.96951 0.0
C1291 C 0.3417 0.11507 0.96504 0.0
C1292 C 0.35746 0.07553 0.00126 0.0
C1293 C 0.3696 0.06024 0.96104 0.0
N1294 N 0.34603 0.10237 0.9764 0.0
N1295 N 0.36964 0.07694 0.95732 0.0
H1296 H 0.96833 0.29619 -0.00475 0.0
H1297 H 0.86072 0.21391 0.96051 0.0
H1298 H 0.91706 0.29657 0.02113 0.0
H1299 H 0.91185 0.21499 0.93114 0.0
H1300 H 0.88085 0.23983 0.99178 0.0
H1301 H 0.94785 0.26309 0.97955 0.0
C1302 C 0.95279 0.28929 -0.00218 0.0
C1303 C 0.94442 0.29935 0.00913 0.0
C1304 C 0.88764 0.23407 0.97902 0.0
C1305 C 0.92084 0.26135 0.99123 0.0
C1306 C 0.87609 0.21906 0.96147 0.0
C1307 C 0.8847 0.21248 0.94314 0.0
C1308 C 0.90791 0.24254 0.97803 0.0
C1309 C 0.90472 0.21981 0.9449 0.0
C1310 C 0.94109 0.27034 0.98893 0.0
C1311 C 0.92418 0.28952 0.01221 0.0
N1312 N 0.91571 0.23472 0.96162 0.0
N1313 N 0.9131 0.27118 0.00305 0.0
H1314 H 0.68346 0.62867 0.94516 0.0
H1315 H 0.79346 0.6785 0.96007 0.0
H1316 H 0.70772 0.65556 0.02079 0.0
H1317 H 0.76136 0.62447 0.91836 0.0
H1318 H 0.7639 0.67109 0.98481 0.0
H1319 H 0.71296 0.62808 0.93511 0.0
C1320 C 0.69504 0.6344 0.95969 0.0
C1321 C 0.69329 0.64229 0.98372 0.0
C1322 C 0.76354 0.66052 0.97104 0.0
C1323 C 0.7272 0.64189 0.97225 0.0
C1324 C 0.78042 0.66466 0.95715 0.0
C1325 C 0.77973 0.652 0.93733 0.0
C1326 C 0.74596 0.64391 0.96438 0.0
C1327 C 0.76241 0.6345 0.93365 0.0
C1328 C 0.71178 0.63389 0.95408 0.0
C1329 C 0.70862 0.64938 0.00202 0.0
N1330 N 0.74607 0.63118 0.94652 0.0
N1331 N 0.72521 0.6494 -0.00434 0.0
H1332 H 0.96419 0.66922 -0.00429 0.0
H1333 H 0.85702 0.64066 0.95511 0.0
H1334 H 0.91364 0.61414 0.01374 0.0
H1335 H 0.90762 0.69574 0.93829 0.0
H1336 H 0.87647 0.63308 0.98475 0.0
H1337 H 0.94307 0.68109 0.98143 0.0
C1338 C 0.94865 0.65962 -0.00322 0.0
C1339 C 0.94071 0.64054 0.00558 0.0
C1340 C 0.88323 0.64705 0.97515 0.0
C1341 C 0.91636 0.6541 0.98927 0.0
C1342 C 0.87205 0.65147 0.95855 0.0
C1343 C 0.88081 0.66878 0.94419 0.0
C1344 C 0.90329 0.66002 0.97714 0.0
C1345 C 0.9004 0.68219 0.94898 0.0
C1346 C 0.93657 0.66646 0.98874 0.0
C1347 C 0.92044 0.62889 0.00683 0.0
N1348 N 0.91107 0.67739 0.96465 0.0
N1349 N 0.90898 0.63578 -0.0015 0.0
H1350 H 0.32013 0.28652 0.99301 0.0
H1351 H 0.36475 0.22099 0.96575 0.0
H1352 H 0.3784 0.30276 0.01536 0.0
H1353 H 0.30464 0.20267 0.95412 0.0
H1354 H 0.36829 0.2476 0.99369 0.0
H1355 H 0.31252 0.25331 0.9874 0.0
C1356 C 0.33128 0.28304 -0.00299 0.0
C1357 C 0.35002 0.29747 0.00415 0.0
C1358 C 0.35414 0.23738 0.98585 0.0
C1359 C 0.34149 0.25944 -0.00251 0.0
C1360 C 0.35208 0.22203 0.97023 0.0
C1361 C 0.33441 0.20976 0.95765 0.0
C1362 C 0.33846 0.24052 0.98842 0.0
C1363 C 0.31849 0.21189 0.96356 0.0
C1364 C 0.3269 0.26403 0.99393 0.0
C1365 C 0.36381 0.2921 0.00951 0.0
N1366 N 0.32099 0.22727 0.97801 0.0
N1367 N 0.35938 0.27356 0.00556 0.0
H1368 H 0.69699 0.0853 0.00969 0.0
H1369 H 0.78981 0.09647 0.93367 0.0
H1370 H 0.70409 0.03752 0.98663 0.0
H1371 H 0.77944 0.14344 0.9461 0.0
H1372 H 0.76201 0.076 0.96213 0.0
H1373 H 0.72996 0.10761 -0.00542 0.0
C1374 C 0.7055 0.07945 0.00161 0.0
C1375 C 0.6976 0.05943 -0.00088 0.0
C1376 C 0.76601 0.09088 0.95915 0.0
C1377 C 0.73551 0.08504 0.98187 0.0
C1378 C 0.78199 0.10261 0.94316 0.0
C1379 C 0.78683 0.12161 0.93757 0.0
C1380 C 0.75466 0.09815 0.96944 0.0
C1381 C 0.7762 0.12889 0.9501 0.0
C1382 C 0.72437 0.09225 0.99303 0.0
C1383 C 0.70946 0.0528 0.9887 0.0
N1384 N 0.76038 0.11704 0.96513 0.0
N1385 N 0.72775 0.06557 0.98029 0.0
H1386 H 0.68057 0.9692 0.02693 0.0
H1387 H 0.63036 0.8605 0.07141 0.0
H1388 H 0.62135 0.92795 0.00665 0.0
H1389 H 0.69212 0.89901 0.07174 0.0
H1390 H 0.62691 0.88323 0.04271 0.0
H1391 H 0.68554 0.94271 0.03904 0.0
C1392 C 0.66867 0.95453 0.02471 0.0
C1393 C 0.65048 0.95079 0.01601 0.0
C1394 C 0.64128 0.88645 0.04834 0.0
C1395 C 0.65595 0.92027 0.03028 0.0
C1396 C 0.64323 0.87337 0.06445 0.0
C1397 C 0.66156 0.87787 0.0736 0.0
C1398 C 0.65775 0.90427 0.04192 0.0
C1399 C 0.67777 0.89497 0.06477 0.0
C1400 C 0.67151 0.93937 0.03156 0.0
C1401 C 0.63561 0.93148 0.01334 0.0
N1402 N 0.67548 0.9077 0.04982 0.0
N1403 N 0.63856 0.91693 0.02091 0.0
H1404 H 0.06951 0.69632 -0.0022 0.0
H1405 H 0.09991 0.79813 0.0627 0.0
H1406 H 0.02993 0.71312 0.02892 0.0
H1407 H 0.13878 0.7764 0.0529 0.0
H1408 H 0.07616 0.77188 0.03462 0.0
H1409 H 0.09624 0.72958 0.00369 0.0
C1410 C 0.06639 0.70707 0.00541 0.0
C1411 C 0.04754 0.7019 0.01338 0.0
C1412 C 0.09015 0.77322 0.03779 0.0
C1413 C 0.07794 0.73989 0.01988 0.0
C1414 C 0.10381 0.78839 0.05341 0.0
C1415 C 0.12127 0.78938 0.05992 0.0
C1416 C 0.09396 0.75888 0.02896 0.0
C1417 C 0.1255 0.77615 0.04806 0.0
C1418 C 0.08164 0.72603 0.00875 0.0
C1419 C 0.0443 0.71641 0.02297 0.0
N1420 N 0.11175 0.76115 0.03359 0.0
N1421 N 0.05936 0.73468 0.02619 0.0
H1422 H 0.30083 0.33024 0.02487 0.0
H1423 H 0.21959 0.35651 0.05665 0.0
H1424 H 0.30582 0.38488 0.00596 0.0
H1425 H 0.21611 0.30341 0.08008 0.0
H1426 H 0.24738 0.36379 0.02818 0.0
H1427 H 0.26692 0.31754 0.0369 0.0
C1428 C 0.2948 0.33957 0.02317 0.0
C1429 C 0.30632 0.35877 0.01482 0.0
C1430 C 0.24024 0.35029 0.03898 0.0
C1431 C 0.26741 0.34425 0.02837 0.0
C1432 C 0.2242 0.34602 0.0549 0.0
C1433 C 0.21578 0.32947 0.07086 0.0
C1434 C 0.24785 0.33794 0.03927 0.0
C1435 C 0.22239 0.31641 0.06817 0.0
C1436 C 0.27539 0.33226 0.02989 0.0
C1437 C 0.2976 0.37007 0.01265 0.0
N1438 N 0.2383 0.32111 0.05313 0.0
N1439 N 0.27874 0.3627 0.01963 0.0
H1440 H 0.72681 0.70964 0.39998 0.0
H1441 H 0.78382 0.65715 0.38599 0.0
H1442 H 0.72378 0.6825 0.32447 0.0
H1443 H 0.80779 0.71135 0.42755 0.0
H1444 H 0.76242 0.66521 0.36129 0.0
H1445 H 0.75623 0.70912 0.41059 0.0
C1446 C 0.73245 0.70365 0.38557 0.0
C1447 C 0.72288 0.69604 0.36139 0.0
C1448 C 0.77292 0.67566 0.37503 0.0
C1449 C 0.75641 0.69512 0.37355 0.0
C1450 C 0.78526 0.67116 0.38887 0.0
C1451 C 0.79765 0.68371 0.40859 0.0
C1452 C 0.77271 0.69252 0.38165 0.0
C1453 C 0.79856 0.70142 0.41227 0.0
C1454 C 0.74932 0.70351 0.39152 0.0
C1455 C 0.73083 0.68854 0.34332 0.0
N1456 N 0.78589 0.70508 0.39947 0.0
N1457 N 0.74698 0.68788 0.35 0.0
H1458 H 0.27451 0.03427 0.34745 0.0
H1459 H 0.36335 0.12657 0.41464 0.0
H1460 H 0.33117 0.04126 0.35817 0.0
H1461 H 0.30591 0.11811 0.40901 0.0
H1462 H 0.35335 0.0983 0.38631 0.0
H1463 H 0.28701 0.06713 0.36335 0.0
C1464 C 0.28962 0.04272 0.35305 0.0
C1465 C 0.30175 0.03484 0.35175 0.0
C1466 C 0.343 0.1028 0.39078 0.0
C1467 C 0.31618 0.07267 0.36991 0.0
C1468 C 0.34876 0.11903 0.40673 0.0
C1469 C 0.33538 0.12456 0.41419 0.0
C1470 C 0.32365 0.0919 0.38245 0.0
C1471 C 0.31666 0.11433 0.40358 0.0
C1472 C 0.29675 0.06155 0.36205 0.0
C1473 C 0.32123 0.04662 0.35906 0.0
N1474 N 0.31123 0.09827 0.38858 0.0
N1475 N 0.32779 0.06488 0.368 0.0
H1476 H 0.97232 0.30175 0.37828 0.0
H1477 H 0.87023 0.20673 0.38084 0.0
H1478 H 0.96449 0.25612 0.32499 0.0
H1479 H 0.906 0.22978 0.45095 0.0
H1480 H 0.89875 0.22843 0.35318 0.0
H1481 H 0.94049 0.27986 0.39793 0.0
C1482 C 0.96374 0.2873 0.37032 0.0
C1483 C 0.97112 0.28062 0.35029 0.0
C1484 C 0.90007 0.22864 0.37468 0.0
C1485 C 0.93479 0.25581 0.37228 0.0
C1486 C 0.88395 0.21625 0.3904 0.0
C1487 C 0.88554 0.21684 0.41833 0.0
C1488 C 0.91754 0.24177 0.38719 0.0
C1489 C 0.90376 0.22936 0.42964 0.0
C1490 C 0.94566 0.27486 0.38154 0.0
C1491 C 0.95938 0.26169 0.34071 0.0
N1492 N 0.91889 0.24152 0.41411 0.0
N1493 N 0.94175 0.24983 0.35192 0.0
H1494 H 0.01944 0.39252 0.36401 0.0
H1495 H 0.05121 0.47803 0.25984 0.0
H1496 H 0.04408 0.39572 0.28627 0.0
H1497 H 0.99721 0.45506 0.30247 0.0
H1498 H 0.05847 0.45635 0.28469 0.0
H1499 H 0.01978 0.42282 0.35438 0.0
C1500 C 0.02513 0.39974 0.34514 0.0
C1501 C 0.03151 0.39162 0.32569 0.0
C1502 C 0.04538 0.4566 0.28934 0.0
C1503 C 0.03269 0.42622 0.31521 0.0
C1504 C 0.04138 0.46912 0.27547 0.0
C1505 C 0.02364 0.46827 0.27926 0.0
C1506 C 0.03153 0.44319 0.30706 0.0
C1507 C 0.0111 0.45617 0.29925 0.0
C1508 C 0.02535 0.41693 0.33973 0.0
C1509 C 0.03879 0.40143 0.30158 0.0
N1510 N 0.0151 0.44374 0.31214 0.0
N1511 N 0.03925 0.41824 0.29706 0.0
H1512 H 0.58559 0.62782 0.35543 0.0
H1513 H 0.58416 0.54755 0.26203 0.0
H1514 H 0.63698 0.6302 0.32392 0.0
H1515 H 0.53285 0.54582 0.292 0.0
H1516 H 0.60372 0.57343 0.29354 0.0
H1517 H 0.56644 0.59443 0.34066 0.0
C1518 C 0.59291 0.62128 0.34561 0.0
C1519 C 0.61292 0.63201 0.34045 0.0
C1520 C 0.58814 0.56707 0.29381 0.0
C1521 C 0.59094 0.59362 0.3234 0.0
C1522 C 0.57696 0.55216 0.27603 0.0
C1523 C 0.55692 0.5447 0.27437 0.0
C1524 C 0.57921 0.57474 0.30974 0.0
C1525 C 0.54827 0.5512 0.29273 0.0
C1526 C 0.58194 0.60214 0.33726 0.0
C1527 C 0.62159 0.62259 0.32804 0.0
N1528 N 0.55952 0.56617 0.30928 0.0
N1529 N 0.6105 0.60404 0.31959 0.0
H1530 H 0.37321 0.01493 0.30311 0.0
H1531 H 0.46056 0.02166 0.27749 0.0
H1532 H 0.35417 0.95856 0.33576 0.0
H1533 H 0.42615 0.95979 0.27258 0.0
H1534 H 0.43449 0.02196 0.30284 0.0
H1535 H 0.40475 0.01855 0.29355 0.0
C1536 C 0.37578 0.00343 0.30865 0.0
C1537 C 0.36101 0.9864 0.32016 0.0
C1538 C 0.43271 0.00827 0.29659 0.0
C1539 C 0.3973 0.99052 0.30962 0.0
C1540 C 0.44778 0.00809 0.28271 0.0
C1541 C 0.44547 0.99067 0.27323 0.0
C1542 C 0.41514 0.9909 0.30054 0.0
C1543 C 0.42849 0.97348 0.27988 0.0
C1544 C 0.39392 0.0056 0.30349 0.0
C1545 C 0.36516 0.97195 0.32688 0.0
N1546 N 0.41383 0.97403 0.29285 0.0
N1547 N 0.3828 0.9742 0.32108 0.0
H1548 H 0.62737 0.99862 0.32901 0.0
H1549 H 0.55952 0.0198 0.28457 0.0
H1550 H 0.57975 0.94313 0.35285 0.0
H1551 H 0.52098 0.95831 0.2847 0.0
H1552 H 0.58141 0.01593 0.31423 0.0
H1553 H 0.60433 0.00794 0.31488 0.0
C1554 C 0.61205 0.98848 0.33167 0.0
C1555 C 0.60554 0.96999 0.34194 0.0
C1556 C 0.56813 0.00323 0.30806 0.0
C1557 C 0.57879 0.98076 0.32633 0.0
C1558 C 0.55539 0.00553 0.2917 0.0
C1559 C 0.53845 0.98935 0.2824 0.0
C1560 C 0.56407 0.98455 0.31452 0.0
C1561 C 0.53385 0.97113 0.29172 0.0
C1562 C 0.59879 0.99393 0.32388 0.0
C1563 C 0.58547 0.95751 0.3449 0.0
N1564 N 0.54676 0.96918 0.30692 0.0
N1565 N 0.57284 0.96303 0.33681 0.0
H1566 H 0.98246 0.62143 0.32307 0.0
H1567 H 0.02942 0.55759 0.29636 0.0
H1568 H 0.04031 0.63786 0.34787 0.0
H1569 H 0.97022 0.54003 0.27844 0.0
H1570 H 0.03139 0.58318 0.32521 0.0
H1571 H 0.97553 0.58857 0.31594 0.0
C1572 C 0.99364 0.61804 0.32733 0.0
C1573 C 0.0121 0.63246 0.33557 0.0
C1574 C 0.01775 0.57334 0.31571 0.0
C1575 C 0.00438 0.59485 0.32709 0.0
C1576 C 0.01657 0.55859 0.29954 0.0
C1577 C -0.00033 0.54685 0.28502 0.0
C1578 C 0.00197 0.57639 0.31696 0.0
C1579 C 0.98351 0.54888 0.28935 0.0
C1580 C 0.98967 0.59924 0.32334 0.0
C1581 C 0.02594 0.6272 0.34121 0.0
N1582 N 0.98517 0.56365 0.30447 0.0
N1583 N 0.02193 0.6089 0.33635 0.0
H1584 H 0.36854 0.42353 0.33917 0.0
H1585 H 0.46067 0.42874 0.26883 0.0
H1586 H 0.37465 0.37412 0.32336 0.0
H1587 H 0.45222 0.47736 0.27489 0.0
H1588 H 0.43237 0.41011 0.29734 0.0
H1589 H 0.40161 0.44458 0.32309 0.0
C1590 C 0.37685 0.41708 0.33247 0.0
C1591 C 0.36868 0.39696 0.33234 0.0
C1592 C 0.43687 0.42496 0.29293 0.0
C1593 C 0.40664 0.42107 0.31406 0.0
C1594 C 0.45313 0.43564 0.27689 0.0
C1595 C 0.45868 0.45455 0.26955 0.0
C1596 C 0.42594 0.43318 0.30145 0.0
C1597 C 0.44842 0.46284 0.28029 0.0
C1598 C 0.39576 0.42914 0.32334 0.0
C1599 C 0.38023 0.3895 0.32357 0.0
N1600 N 0.4323 0.45198 0.29538 0.0
N1601 N 0.39856 0.40154 0.31466 0.0
H1602 H 0.35479 0.31138 0.36846 0.0
H1603 H 0.31019 0.20005 0.39738 0.0
H1604 H 0.2986 0.26773 0.34008 0.0
H1605 H 0.36782 0.24403 0.4196 0.0
H1606 H 0.30793 0.22335 0.36845 0.0
H1607 H 0.36193 0.28626 0.37998 0.0
C1608 C 0.34401 0.29649 0.36437 0.0
C1609 C 0.32596 0.29164 0.35364 0.0
C1610 C 0.32132 0.22777 0.37897 0.0
C1611 C 0.33396 0.26264 0.36714 0.0
C1612 C 0.32268 0.21439 0.39517 0.0
C1613 C 0.33927 0.22017 0.41063 0.0
C1614 C 0.33657 0.24708 0.37864 0.0
C1615 C 0.35487 0.23903 0.40774 0.0
C1616 C 0.34812 0.28211 0.37091 0.0
C1617 C 0.31265 0.2721 0.3485 0.0
N1618 N 0.35303 0.2519 0.39245 0.0
N1619 N 0.31679 0.25829 0.3557 0.0
H1620 H 0.73475 0.02935 0.32668 0.0
H1621 H 0.77084 0.12735 0.4069 0.0
H1622 H 0.69761 0.04446 0.36981 0.0
H1623 H 0.80794 0.10557 0.38364 0.0
H1624 H 0.74494 0.10252 0.37936 0.0
H1625 H 0.76213 0.06195 0.33454 0.0
C1626 C 0.73228 0.03962 0.33737 0.0
C1627 C 0.71396 0.03409 0.34804 0.0
C1628 C 0.75895 0.10357 0.37953 0.0
C1629 C 0.74514 0.07137 0.35691 0.0
C1630 C 0.7738 0.11792 0.39489 0.0
C1631 C 0.79149 0.11849 0.39728 0.0
C1632 C 0.76184 0.08965 0.36676 0.0
C1633 C 0.79451 0.10564 0.38199 0.0
C1634 C 0.74791 0.05821 0.34185 0.0
C1635 C 0.71156 0.04802 0.36162 0.0
N1636 N 0.77969 0.09148 0.36772 0.0
N1637 N 0.727 0.06594 0.36589 0.0
H1638 H 0.9672 0.71914 0.33052 0.0
H1639 H 0.87925 0.6374 0.41327 0.0
H1640 H 0.96283 0.66568 0.35494 0.0
H1641 H 0.88417 0.69154 0.39223 0.0
H1642 H 0.90581 0.6443 0.38264 0.0
H1643 H 0.93376 0.70664 0.34484 0.0
C1644 C 0.95919 0.70472 0.33873 0.0
C1645 C 0.96799 0.69358 0.34197 0.0
C1646 C 0.90081 0.65449 0.38417 0.0
C1647 C 0.92961 0.67916 0.35828 0.0
C1648 C 0.88553 0.65044 0.40143 0.0
C1649 C 0.87972 0.66402 0.40535 0.0
C1650 C 0.9105 0.67238 0.3711 0.0
C1651 C 0.88828 0.68073 0.38969 0.0
C1652 C 0.94005 0.69757 0.3468 0.0
C1653 C 0.95677 0.67491 0.35241 0.0
N1654 N 0.90357 0.68466 0.37365 0.0
N1655 N 0.93825 0.66838 0.36044 0.0
H1656 H 0.39038 0.037 0.73437 0.0
H1657 H 0.45461 0.99363 0.70797 0.0
H1658 H 0.39214 0.01972 0.65341 0.0
H1659 H 0.47514 0.04467 0.75616 0.0
H1660 H 0.43162 0.00101 0.68631 0.0
H1661 H 0.42036 0.03717 0.74363 0.0
C1662 C 0.39711 0.03322 0.71854 0.0
C1663 C 0.38877 0.02826 0.69314 0.0
C1664 C 0.44171 0.01098 0.70086 0.0
C1665 C 0.42299 0.02824 0.70368 0.0
C1666 C 0.45496 0.00691 0.71296 0.0
C1667 C 0.46689 0.01871 0.73361 0.0
C1668 C 0.4401 0.02658 0.71019 0.0
C1669 C 0.46634 0.03539 0.74007 0.0
C1670 C 0.4143 0.03351 0.72375 0.0
C1671 C 0.39818 0.02364 0.67326 0.0
N1672 N 0.45279 0.03855 0.72895 0.0
N1673 N 0.41466 0.02337 0.67907 0.0
H1674 H 0.00473 0.37335 0.68881 0.0
H1675 H 0.98372 0.45714 0.726 0.0
H1676 H 0.95498 0.37602 0.66224 0.0
H1677 H 0.0305 0.45212 0.75903 0.0
H1678 H 0.97841 0.43258 0.69285 0.0
H1679 H 0.01899 0.40637 0.70565 0.0
C1680 C 0.99692 0.38095 0.68617 0.0
C1681 C 0.97844 0.37173 0.67458 0.0
C1682 C 0.99016 0.43717 0.70692 0.0
C1683 C 0.99469 0.40952 0.69378 0.0
C1684 C 0.99335 0.45139 0.72562 0.0
C1685 C 0.00735 0.45639 0.7455 0.0
C1686 C 0.001 0.42788 0.70829 0.0
C1687 C 0.01934 0.44839 0.74424 0.0
C1688 C 0.00508 0.39981 0.69578 0.0
C1689 C 0.9691 0.38238 0.67148 0.0
N1690 N 0.01563 0.43422 0.72633 0.0
N1691 N 0.97721 0.40059 0.68131 0.0
H1692 H 0.63274 0.58532 0.66259 0.0
H1693 H 0.54422 0.5745 0.7473 0.0
H1694 H 0.62999 0.63343 0.69584 0.0
H1695 H 0.54737 0.52667 0.71446 0.0
H1696 H 0.57154 0.59653 0.71916 0.0
H1697 H 0.59865 0.56421 0.67338 0.0
C1698 C 0.62496 0.59149 0.67212 0.0
C1699 C 0.6344 0.61116 0.67879 0.0
C1700 C 0.56592 0.58118 0.71744 0.0
C1701 C 0.59514 0.58694 0.69113 0.0
C1702 C 0.55014 0.56859 0.73321 0.0
C1703 C 0.54373 0.54881 0.73329 0.0
C1704 C 0.57542 0.57389 0.70194 0.0
C1705 C 0.55193 0.54184 0.71494 0.0
C1706 C 0.60541 0.57941 0.67811 0.0
C1707 C 0.62341 0.61833 0.69066 0.0
N1708 N 0.5677 0.55442 0.70046 0.0
N1709 N 0.60443 0.60617 0.69676 0.0
H1710 H 0.6549 0.70122 0.65639 0.0
H1711 H 0.70676 0.81052 0.61382 0.0
H1712 H 0.71496 0.74133 0.67392 0.0
H1713 H 0.64503 0.77191 0.61135 0.0
H1714 H 0.70975 0.7874 0.64229 0.0
H1715 H 0.65042 0.72821 0.64582 0.0
C1716 C 0.66711 0.71576 0.65831 0.0
C1717 C 0.68538 0.71904 0.66569 0.0
C1718 C 0.69549 0.78423 0.6362 0.0
C1719 C 0.68048 0.75013 0.65319 0.0
C1720 C 0.69379 0.7975 0.62019 0.0
C1721 C 0.67564 0.793 0.61036 0.0
C1722 C 0.6789 0.76632 0.64196 0.0
C1723 C 0.65927 0.77583 0.61864 0.0
C1724 C 0.66455 0.73121 0.65234 0.0
C1725 C 0.70065 0.73818 0.66814 0.0
N1726 N 0.66132 0.76297 0.63358 0.0
N1727 N 0.69795 0.75302 0.66141 0.0
H1728 H 0.30154 0.9643 0.65495 0.0
H1729 H 0.1952 0.88344 0.61031 0.0
H1730 H 0.25029 0.9679 0.66925 0.0
H1731 H 0.24615 0.87926 0.59765 0.0
H1732 H 0.21422 0.91174 0.63876 0.0
H1733 H 0.28092 0.93109 0.63953 0.0
C1734 C 0.28598 0.9581 0.655 0.0
C1735 C 0.2777 0.96905 0.66311 0.0
C1736 C 0.22116 0.90439 0.63024 0.0
C1737 C 0.25396 0.93097 0.64553 0.0
C1738 C 0.21022 0.8881 0.6143 0.0
C1739 C 0.21919 0.87914 0.60158 0.0
C1740 C 0.24118 0.91175 0.63325 0.0
C1741 C 0.23878 0.88589 0.60704 0.0
C1742 C 0.27418 0.9391 0.64627 0.0
C1743 C 0.25739 0.96014 0.66293 0.0
N1744 N 0.24919 0.90196 0.62211 0.0
N1745 N 0.24626 0.94173 0.65407 0.0
H1746 H 0.01469 0.2986 0.60624 0.0
H1747 H 0.12363 0.34102 0.62853 0.0
H1748 H 0.03571 0.31666 0.68627 0.0
H1749 H 0.09082 0.29048 0.5799 0.0
H1750 H 0.09348 0.33406 0.6514 0.0
H1751 H 0.04413 0.29801 0.59549 0.0
C1752 C 0.02554 0.30243 0.62156 0.0
C1753 C 0.02285 0.30775 0.64713 0.0
C1754 C 0.09304 0.32412 0.63642 0.0
C1755 C 0.05668 0.30732 0.63487 0.0
C1756 C 0.11023 0.32797 0.6236 0.0
C1757 C 0.10962 0.31623 0.60245 0.0
C1758 C 0.07528 0.30877 0.62739 0.0
C1759 C 0.09184 0.29978 0.59624 0.0
C1760 C 0.04224 0.30192 0.6155 0.0
C1761 C 0.0373 0.31245 0.66632 0.0
N1762 N 0.0753 0.29682 0.60814 0.0
N1763 N 0.05386 0.31249 0.65967 0.0
H1764 H 0.24206 0.27803 0.69249 0.0
H1765 H 0.23747 0.36078 0.61269 0.0
H1766 H 0.29215 0.33222 0.66985 0.0
H1767 H 0.18779 0.30473 0.62785 0.0
H1768 H 0.25638 0.35359 0.64373 0.0
H1769 H 0.2212 0.29016 0.67791 0.0
C1770 C 0.24871 0.29255 0.68466 0.0
C1771 C 0.26893 0.304 0.68199 0.0
C1772 C 0.24121 0.34303 0.64088 0.0
C1773 C 0.24502 0.318 0.66535 0.0
C1774 C 0.23037 0.34724 0.62344 0.0
C1775 C 0.21112 0.33328 0.61771 0.0
C1776 C 0.23279 0.32461 0.65238 0.0
C1777 C 0.20259 0.31588 0.63186 0.0
C1778 C 0.23675 0.29948 0.67641 0.0
C1779 C 0.27666 0.32277 0.67197 0.0
N1780 N 0.2136 0.31186 0.64815 0.0
N1781 N 0.2647 0.32909 0.66377 0.0
H1782 H 0.70454 0.96955 0.69399 0.0
H1783 H 0.69759 0.89001 0.63278 0.0
H1784 H 0.65721 0.95814 0.64185 0.0
H1785 H 0.6418 0.87778 0.60478 0.0
H1786 H 0.69876 0.91453 0.66254 0.0
H1787 H 0.69705 0.93634 0.68775 0.0
C1788 C 0.69246 0.95998 0.68141 0.0
C1789 C 0.68183 0.96675 0.66779 0.0
C1790 C 0.68579 0.90601 0.65094 0.0
C1791 C 0.67344 0.92887 0.65993 0.0
C1792 C 0.68512 0.89184 0.63403 0.0
C1793 C 0.66962 0.88203 0.61638 0.0
C1794 C 0.67087 0.91038 0.64984 0.0
C1795 C 0.65398 0.88513 0.61819 0.0
C1796 C 0.68827 0.94102 0.67764 0.0
C1797 C 0.66611 0.95368 0.65221 0.0
N1798 N 0.6552 0.89935 0.63415 0.0
N1799 N 0.66257 0.93549 0.64844 0.0
H1800 H 0.04087 0.69809 0.65356 0.0
H1801 H 0.12455 0.8054 0.62143 0.0
H1802 H 0.03977 0.74899 0.67813 0.0
H1803 H 0.12539 0.75473 0.59571 0.0
H1804 H 0.09721 0.78525 0.65096 0.0
H1805 H 0.0746 0.7186 0.63959 0.0
C1806 C 0.04772 0.71355 0.65618 0.0
C1807 C 0.03731 0.72181 0.66665 0.0
C1808 C 0.10369 0.77857 0.63943 0.0
C1809 C 0.07602 0.74541 0.65079 0.0
C1810 C 0.1195 0.79014 0.62291 0.0
C1811 C 0.1271 0.78166 0.60609 0.0
C1812 C 0.09541 0.75841 0.63886 0.0
C1813 C 0.11984 0.76177 0.60839 0.0
C1814 C 0.06703 0.72527 0.6483 0.0
C1815 C 0.04709 0.74195 0.66984 0.0
N1816 N 0.10415 0.75076 0.62401 0.0
N1817 N 0.06578 0.75304 0.6617 0.0
H1818 H 0.95788 0.59304 0.66978 0.0
H1819 H 0.96597 0.52412 0.74371 0.0
H1820 H 0.01281 0.6321 0.70635 0.0
H1821 H 0.02688 0.56605 0.74726 0.0
H1822 H 0.96127 0.5457 0.71451 0.0
H1823 H 0.96184 0.56591 0.68269 0.0
C1824 C 0.97084 0.59591 0.68033 0.0
C1825 C 0.98489 0.61484 0.68739 0.0
C1826 C 0.97582 0.54995 0.72067 0.0
C1827 C 0.98938 0.58388 0.70269 0.0
C1828 C 0.97847 0.53752 0.73727 0.0
C1829 C 0.99685 0.54331 0.7476 0.0
C1830 C 0.99169 0.56832 0.71468 0.0
C1831 C 0.01252 0.56104 0.73943 0.0
C1832 C 0.97301 0.58038 0.68795 0.0
C1833 C 0.00147 0.61774 0.70084 0.0
N1834 N 0.00954 0.57305 0.72387 0.0
N1835 N 0.00318 0.60246 0.70815 0.0
H1836 H 0.39898 0.35505 0.67507 0.0
H1837 H 0.43468 0.46118 0.72943 0.0
H1838 H 0.36153 0.3757 0.70206 0.0
H1839 H 0.47018 0.43519 0.73068 0.0
H1840 H 0.41032 0.43374 0.70361 0.0
H1841 H 0.42702 0.3876 0.68122 0.0
C1842 C 0.39663 0.3665 0.68183 0.0
C1843 C 0.37794 0.36264 0.68845 0.0
C1844 C 0.42372 0.43431 0.70875 0.0
C1845 C 0.40983 0.39981 0.69512 0.0
C1846 C 0.43773 0.4501 0.72308 0.0
C1847 C 0.45444 0.45041 0.73195 0.0
C1848 C 0.4264 0.41868 0.70348 0.0
C1849 C 0.45755 0.43551 0.72389 0.0
C1850 C 0.41262 0.38503 0.68534 0.0
C1851 C 0.37571 0.37799 0.69708 0.0
N1852 N 0.44346 0.42001 0.71048 0.0
N1853 N 0.39147 0.39585 0.70032 0.0
H1854 H 0.64533 0.05987 0.65597 0.0
H1855 H 0.55215 0.97921 0.73221 0.0
H1856 H 0.63552 0.00361 0.67687 0.0
H1857 H 0.56261 0.03634 0.71705 0.0
H1858 H 0.57871 0.98543 0.70199 0.0
H1859 H 0.61203 0.04946 0.66936 0.0
C1860 C 0.63614 0.04528 0.66312 0.0
C1861 C 0.64337 0.03271 0.66577 0.0
C1862 C 0.57495 0.99648 0.70467 0.0
C1863 C 0.60523 0.0207 0.68097 0.0
C1864 C 0.55965 0.99283 0.72167 0.0
C1865 C 0.55531 0.00731 0.72699 0.0
C1866 C 0.5862 0.0149 0.69339 0.0
C1867 C 0.56554 0.02481 0.71324 0.0
C1868 C 0.61711 0.03934 0.6707 0.0
C1869 C 0.63072 0.01392 0.6749 0.0
N1870 N 0.58082 0.02829 0.69744 0.0
N1871 N 0.61237 0.00857 0.6824 0.0
loop_
_geom_bond_atom_site_label_1
_geom_bond_atom_site_label_2
_geom_bond_distance
_geom_bond_site_symmetry_2
_ccdc_geom_bond_type
C0 O1 1.306 1_556 S
C0 O3 1.160 . S
O1 C0 1.306 1_554 S
O1 Cd2 2.228 . S
Cd2 O1 2.228 . S
Cd2 O6 2.273 . S
Cd2 O10 2.277 1_554 S
O3 C0 1.160 . S
O3 Cd4 2.203 1_656 S
Cd4 O3 2.203 1_454 S
Cd4 O6 2.411 1_455 S
Cd4 O7 2.333 . S
Cd4 O8 2.352 . S
Cd4 O12 2.277 1_554 S
Cd4 O13 2.356 . S
C5 O10 1.209 1_455 S
C5 O12 1.226 . S
O6 Cd2 2.273 . S
O6 Cd4 2.411 1_655 S
O6 C9 1.295 1_655 S
O7 Cd4 2.333 . S
O7 C9 1.273 . S
O8 Cd4 2.352 . S
O8 C11 1.258 . S
C9 O6 1.295 1_455 S
C9 O7 1.273 . S
O10 Cd2 2.277 1_556 S
O10 C5 1.209 1_655 S
C11 O8 1.258 . S
C11 O13 1.282 . S
O12 Cd4 2.277 1_556 S
O12 C5 1.226 . S
O13 Cd4 2.356 . S
O13 C11 1.282 . S
C14 O15 1.306 . S
C14 O17 1.160 . S
O15 C14 1.306 . S
O15 Cd16 2.228 . S
Cd16 O15 2.228 . S
Cd16 O20 2.273 1_554 S
Cd16 O24 2.277 . S
O17 C14 1.160 . S
O17 Cd18 2.203 . S
Cd18 O17 2.203 . S
Cd18 O20 2.411 1_554 S
Cd18 O21 2.333 1_554 S
Cd18 O22 2.352 1_554 S
Cd18 O26 2.277 . S
Cd18 O27 2.356 . S
C19 O24 1.209 . S
C19 O26 1.226 . S
O20 Cd16 2.273 1_556 S
O20 Cd18 2.411 1_556 S
O20 C23 1.320 . S
O21 Cd18 2.333 1_556 S
O21 C23 1.214 . S
O22 Cd18 2.352 1_556 S
O22 C25 1.258 . S
C23 O20 1.320 . S
C23 O21 1.214 . S
O24 Cd16 2.277 . S
O24 C19 1.209 . S
C25 O22 1.258 . S
C25 O27 1.282 1_556 S
O26 Cd18 2.277 . S
O26 C19 1.226 . S
O27 Cd18 2.356 . S
O27 C25 1.282 1_554 S
C28 O29 1.306 . S
C28 O31 1.160 . S
O29 C28 1.306 . S
O29 Cd30 2.228 . S
Cd30 O29 2.228 . S
Cd30 O34 2.273 1_554 S
Cd30 O38 2.277 . S
O31 C28 1.160 . S
O31 Cd32 2.203 1_565 S
Cd32 O31 2.203 1_545 S
Cd32 O34 2.411 1_544 S
Cd32 O35 2.333 1_554 S
Cd32 O36 2.352 1_554 S
Cd32 O40 2.277 . S
Cd32 O41 2.356 . S
C33 O38 1.209 1_545 S
C33 O40 1.226 . S
O34 Cd30 2.273 1_556 S
O34 Cd32 2.411 1_566 S
O34 C37 1.320 1_565 S
O35 Cd32 2.333 1_556 S
O35 C37 1.214 . S
O36 Cd32 2.352 1_556 S
O36 C39 1.258 . S
C37 O34 1.320 1_545 S
C37 O35 1.214 . S
O38 Cd30 2.277 . S
O38 C33 1.209 1_565 S
C39 O36 1.258 . S
C39 O41 1.282 1_556 S
O40 Cd32 2.277 . S
O40 C33 1.226 . S
O41 Cd32 2.356 . S
O41 C39 1.282 1_554 S
C42 O43 1.306 1_556 S
C42 O45 1.160 . S
O43 C42 1.306 1_554 S
O43 Cd44 2.228 . S
Cd44 O43 2.228 . S
Cd44 O48 2.273 . S
Cd44 O52 2.277 1_554 S
O45 C42 1.160 . S
O45 Cd46 2.203 1_656 S
Cd46 O45 2.203 1_454 S
Cd46 O48 2.411 1_455 S
Cd46 O49 2.333 . S
Cd46 O50 2.352 . S
Cd46 O54 2.277 1_554 S
Cd46 O55 2.356 . S
C47 O52 1.209 1_455 S
C47 O54 1.226 . S
O48 Cd44 2.273 . S
O48 Cd46 2.411 1_655 S
O48 C51 1.277 1_655 S
O49 Cd46 2.333 . S
O49 C51 1.248 . S
O50 Cd46 2.352 . S
O50 C53 1.258 . S
C51 O48 1.277 1_455 S
C51 O49 1.248 . S
O52 Cd44 2.277 1_556 S
O52 C47 1.209 1_655 S
C53 O50 1.258 . S
C53 O55 1.282 . S
O54 Cd46 2.277 1_556 S
O54 C47 1.226 . S
O55 Cd46 2.356 . S
O55 C53 1.282 . S
C56 O57 1.306 . S
C56 O59 1.160 . S
O57 C56 1.306 . S
O57 Cd58 2.228 . S
Cd58 O57 2.228 . S
Cd58 O62 2.273 1_554 S
Cd58 O66 2.277 . S
O59 C56 1.160 . S
O59 Cd60 2.203 . S
Cd60 O59 2.203 . S
Cd60 O62 2.411 1_554 S
Cd60 O63 2.333 1_554 S
Cd60 O64 2.352 1_554 S
Cd60 O68 2.277 . S
Cd60 O69 2.356 . S
C61 O66 1.209 . S
C61 O68 1.226 . S
O62 Cd58 2.273 1_556 S
O62 Cd60 2.411 1_556 S
O62 C65 1.320 . S
O63 Cd60 2.333 1_556 S
O63 C65 1.214 . S
O64 Cd60 2.352 1_556 S
O64 C67 1.258 . S
C65 O62 1.320 . S
C65 O63 1.214 . S
O66 Cd58 2.277 . S
O66 C61 1.209 . S
C67 O64 1.258 . S
C67 O69 1.282 1_556 S
O68 Cd60 2.277 . S
O68 C61 1.226 . S
O69 Cd60 2.356 . S
O69 C67 1.282 1_554 S
C70 O71 1.306 1_556 S
C70 O73 1.160 . S
O71 C70 1.306 1_554 S
O71 Cd72 2.228 . S
Cd72 O71 2.228 . S
Cd72 O76 2.273 . S
Cd72 O80 2.277 1_554 S
O73 C70 1.160 . S
O73 Cd74 2.203 1_546 S
Cd74 O73 2.203 1_564 S
Cd74 O76 2.411 1_565 S
Cd74 O77 2.333 . S
Cd74 O78 2.352 . S
Cd74 O82 2.277 1_554 S
Cd74 O83 2.356 . S
C75 O80 1.174 1_565 S
C75 O82 1.275 . S
O76 Cd72 2.273 . S
O76 Cd74 2.411 1_545 S
O76 C79 1.342 . S
O77 Cd74 2.333 . S
O77 C79 1.167 1_565 S
O78 Cd74 2.352 . S
O78 C81 1.258 . S
C79 O76 1.342 . S
C79 O77 1.167 1_545 S
O80 Cd72 2.277 1_556 S
O80 C75 1.174 1_545 S
C81 O78 1.258 . S
C81 O83 1.282 . S
O82 Cd74 2.277 1_556 S
O82 C75 1.275 . S
O83 Cd74 2.356 . S
O83 C81 1.282 . S
C84 O85 1.306 . S
C84 O87 1.160 . S
O85 C84 1.306 . S
O85 Cd86 2.228 . S
Cd86 O85 2.228 . S
Cd86 O90 2.273 . S
Cd86 O94 2.277 . S
O87 C84 1.160 . S
O87 Cd88 2.203 . S
Cd88 O87 2.203 . S
Cd88 O90 2.411 . S
Cd88 O91 2.333 . S
Cd88 O92 2.352 . S
Cd88 O96 2.277 . S
Cd88 O97 2.356 . S
C89 O94 1.209 . S
C89 O96 1.226 . S
O90 Cd86 2.273 . S
O90 Cd88 2.411 . S
O90 C93 1.320 . S
O91 Cd88 2.333 . S
O91 C93 1.214 . S
O92 Cd88 2.352 . S
O92 C95 1.258 . S
C93 O90 1.320 . S
C93 O91 1.214 . S
O94 Cd86 2.277 . S
O94 C89 1.209 . S
C95 O92 1.258 . S
C95 O97 1.282 . S
O96 Cd88 2.277 . S
O96 C89 1.226 . S
O97 Cd88 2.356 . S
O97 C95 1.282 . S
C98 O99 1.306 . S
C98 O101 1.160 . S
O99 C98 1.306 . S
O99 Cd100 2.228 1_545 S
Cd100 O99 2.228 1_565 S
Cd100 O104 2.273 . S
Cd100 O108 2.277 . S
O101 C98 1.160 . S
O101 Cd102 2.203 1_545 S
Cd102 O101 2.203 1_565 S
Cd102 O104 2.411 . S
Cd102 O105 2.333 . S
Cd102 O106 2.359 . S
Cd102 O110 2.277 . S
Cd102 O111 2.356 . S
C103 O108 1.209 . S
C103 O110 1.226 . S
O104 Cd100 2.273 . S
O104 Cd102 2.411 . S
O104 C107 1.320 . S
O105 Cd102 2.333 . S
O105 C107 1.214 . S
O106 Cd102 2.359 . S
O106 C109 1.292 . S
C107 O104 1.320 . S
C107 O105 1.214 . S
O108 Cd100 2.277 . S
O108 C103 1.209 . S
C109 O106 1.292 . S
C109 O111 1.282 . S
O110 Cd102 2.277 . S
O110 C103 1.226 . S
O111 Cd102 2.356 . S
O111 C109 1.282 . S
C112 O113 1.306 . S
C112 O115 1.160 . S
O113 C112 1.306 . S
O113 Cd114 2.228 1_655 S
Cd114 O113 2.228 1_455 S
Cd114 O118 2.273 . S
Cd114 O122 2.277 . S
O115 C112 1.160 . S
O115 Cd116 2.203 1_655 S
Cd116 O115 2.203 1_455 S
Cd116 O118 2.411 . S
Cd116 O119 2.333 . S
Cd116 O120 2.352 . S
Cd116 O124 2.277 . S
Cd116 O125 2.356 . S
C117 O122 1.209 . S
C117 O124 1.226 . S
O118 Cd114 2.273 . S
O118 Cd116 2.411 . S
O118 C121 1.320 . S
O119 Cd116 2.333 . S
O119 C121 1.214 . S
O120 Cd116 2.352 . S
O120 C123 1.258 . S
C121 O118 1.320 . S
C121 O119 1.214 . S
O122 Cd114 2.277 . S
O122 C117 1.209 . S
C123 O120 1.258 . S
C123 O125 1.282 . S
O124 Cd116 2.277 . S
O124 C117 1.226 . S
O125 Cd116 2.356 . S
O125 C123 1.282 . S
C126 O127 1.306 . S
C126 O129 1.160 . S
O127 C126 1.306 . S
O127 Cd128 2.228 . S
Cd128 O127 2.228 . S
Cd128 O132 2.273 . S
Cd128 O136 2.277 . S
O129 C126 1.160 . S
O129 Cd130 2.203 . S
Cd130 O129 2.203 . S
Cd130 O132 2.411 . S
Cd130 O133 2.333 . S
Cd130 O134 2.352 1_565 S
Cd130 O138 2.277 . S
Cd130 O139 2.356 1_565 S
C131 O136 1.209 . S
C131 O138 1.226 . S
O132 Cd128 2.273 . S
O132 Cd130 2.411 . S
O132 C135 1.320 . S
O133 Cd130 2.333 . S
O133 C135 1.214 . S
O134 Cd130 2.352 1_545 S
O134 C137 1.258 . S
C135 O132 1.320 . S
C135 O133 1.214 . S
O136 Cd128 2.277 . S
O136 C131 1.209 . S
C137 O134 1.258 . S
C137 O139 1.282 . S
O138 Cd130 2.277 . S
O138 C131 1.226 . S
O139 Cd130 2.356 1_545 S
O139 C137 1.282 . S
C140 O141 1.306 . S
C140 O143 1.160 . S
O141 C140 1.306 . S
O141 Cd142 2.228 1_655 S
Cd142 O141 2.228 1_455 S
Cd142 O146 2.273 . S
Cd142 O150 2.277 . S
O143 C140 1.160 . S
O143 Cd144 2.203 1_655 S
Cd144 O143 2.203 1_455 S
Cd144 O146 2.411 . S
Cd144 O147 2.333 . S
Cd144 O148 2.352 . S
Cd144 O152 2.277 . S
Cd144 O153 2.356 . S
C145 O150 1.209 . S
C145 O152 1.226 . S
O146 Cd142 2.273 . S
O146 Cd144 2.411 . S
O146 C149 1.320 . S
O147 Cd144 2.333 . S
O147 C149 1.214 . S
O148 Cd144 2.352 . S
O148 C151 1.258 . S
C149 O146 1.320 . S
C149 O147 1.214 . S
O150 Cd142 2.277 . S
O150 C145 1.209 . S
C151 O148 1.258 . S
C151 O153 1.282 . S
O152 Cd144 2.277 . S
O152 C145 1.226 . S
O153 Cd144 2.356 . S
O153 C151 1.282 . S
C154 O155 1.306 . S
C154 O157 1.160 . S
O155 C154 1.306 . S
O155 Cd156 2.228 . S
Cd156 O155 2.228 . S
Cd156 O160 2.273 . S
Cd156 O164 2.277 . S
O157 C154 1.160 . S
O157 Cd158 2.203 . S
Cd158 O157 2.203 . S
Cd158 O160 2.411 . S
Cd158 O161 2.333 . S
Cd158 O162 2.352 . S
Cd158 O166 2.277 . S
Cd158 O167 2.356 . S
C159 O164 1.209 . S
C159 O166 1.226 . S
O160 Cd156 2.273 . S
O160 Cd158 2.411 . S
O160 C163 1.320 . S
O161 Cd158 2.333 . S
O161 C163 1.214 . S
O162 Cd158 2.352 . S
O162 C165 1.258 . S
C163 O160 1.320 . S
C163 O161 1.214 . S
O164 Cd156 2.277 . S
O164 C159 1.209 . S
C165 O162 1.258 . S
C165 O167 1.282 . S
O166 Cd158 2.277 . S
O166 C159 1.226 . S
O167 Cd158 2.356 . S
O167 C165 1.282 . S
C168 O169 1.306 . S
C168 O171 1.160 . S
O169 C168 1.306 . S
O169 Cd170 2.228 1_565 S
Cd170 O169 2.228 1_545 S
Cd170 O174 2.273 . S
Cd170 O178 2.277 . S
O171 C168 1.160 . S
O171 Cd172 2.203 1_565 S
Cd172 O171 2.203 1_545 S
Cd172 O174 2.411 . S
Cd172 O175 2.333 . S
Cd172 O176 2.352 . S
Cd172 O180 2.277 . S
Cd172 O181 2.356 . S
C173 O178 1.209 . S
C173 O180 1.226 . S
O174 Cd170 2.273 . S
O174 Cd172 2.411 . S
O174 C177 1.320 . S
O175 Cd172 2.333 . S
O175 C177 1.214 . S
O176 Cd172 2.352 . S
O176 C179 1.258 . S
C177 O174 1.320 . S
C177 O175 1.214 . S
O178 Cd170 2.277 . S
O178 C173 1.209 . S
C179 O176 1.258 . S
C179 O181 1.282 . S
O180 Cd172 2.277 . S
O180 C173 1.226 . S
O181 Cd172 2.356 . S
O181 C179 1.282 . S
C182 O183 1.306 . S
C182 O185 1.160 . S
O183 C182 1.306 . S
O183 Cd184 2.228 . S
Cd184 O183 2.228 . S
Cd184 O188 2.273 . S
Cd184 O192 2.277 . S
O185 C182 1.160 . S
O185 Cd186 2.203 . S
Cd186 O185 2.203 . S
Cd186 O188 2.411 . S
Cd186 O189 2.333 . S
Cd186 O190 2.352 1_655 S
Cd186 O194 2.277 . S
Cd186 O195 2.356 1_655 S
C187 O192 1.209 . S
C187 O194 1.226 . S
O188 Cd184 2.273 . S
O188 Cd186 2.411 . S
O188 C191 1.320 . S
O189 Cd186 2.333 . S
O189 C191 1.214 . S
O190 Cd186 2.352 1_455 S
O190 C193 1.258 . S
C191 O188 1.320 . S
C191 O189 1.214 . S
O192 Cd184 2.277 . S
O192 C187 1.209 . S
C193 O190 1.258 . S
C193 O195 1.282 . S
O194 Cd186 2.277 . S
O194 C187 1.226 . S
O195 Cd186 2.356 1_455 S
O195 C193 1.282 . S
C196 O197 1.306 . S
C196 O199 1.160 . S
O197 C196 1.306 . S
O197 Cd198 2.228 . S
Cd198 O197 2.228 . S
Cd198 O202 2.273 . S
Cd198 O206 2.277 . S
O199 C196 1.160 . S
O199 Cd200 2.203 . S
Cd200 O199 2.203 . S
Cd200 O202 2.411 . S
Cd200 O203 2.333 . S
Cd200 O204 2.352 . S
Cd200 O208 2.277 . S
Cd200 O209 2.356 . S
C201 O206 1.209 . S
C201 O208 1.226 . S
O202 Cd198 2.273 . S
O202 Cd200 2.411 . S
O202 C205 1.320 . S
O203 Cd200 2.333 . S
O203 C205 1.214 . S
O204 Cd200 2.352 . S
O204 C207 1.258 . S
C205 O202 1.320 . S
C205 O203 1.214 . S
O206 Cd198 2.277 . S
O206 C201 1.209 . S
C207 O204 1.258 . S
C207 O209 1.282 . S
O208 Cd200 2.277 . S
O208 C201 1.226 . S
O209 Cd200 2.356 . S
O209 C207 1.282 . S
C210 O211 1.306 . S
C210 O213 1.160 . S
O211 C210 1.306 . S
O211 Cd212 2.228 . S
Cd212 O211 2.228 . S
Cd212 O216 2.273 . S
Cd212 O220 2.277 . S
O213 C210 1.160 . S
O213 Cd214 2.203 . S
Cd214 O213 2.203 . S
Cd214 O216 2.411 . S
Cd214 O217 2.333 . S
Cd214 O218 2.352 . S
Cd214 O222 2.277 . S
Cd214 O223 2.356 . S
C215 O220 1.209 . S
C215 O222 1.226 . S
O216 Cd212 2.273 . S
O216 Cd214 2.411 . S
O216 C219 1.320 . S
O217 Cd214 2.333 . S
O217 C219 1.214 . S
O218 Cd214 2.352 . S
O218 C221 1.258 . S
C219 O216 1.320 . S
C219 O217 1.214 . S
O220 Cd212 2.277 . S
O220 C215 1.209 . S
C221 O218 1.258 . S
C221 O223 1.282 . S
O222 Cd214 2.277 . S
O222 C215 1.226 . S
O223 Cd214 2.356 . S
O223 C221 1.282 . S
C224 O225 1.306 . S
C224 O227 1.160 . S
O225 C224 1.306 . S
O225 Cd226 2.228 . S
Cd226 O225 2.228 . S
Cd226 O230 2.273 . S
Cd226 O234 2.277 . S
O227 C224 1.160 . S
O227 Cd228 2.203 . S
Cd228 O227 2.203 . S
Cd228 O230 2.411 . S
Cd228 O231 2.333 . S
Cd228 O232 2.352 1_545 S
Cd228 O236 2.277 . S
Cd228 O237 2.356 1_545 S
C229 O234 1.209 . S
C229 O236 1.226 . S
O230 Cd226 2.273 . S
O230 Cd228 2.411 . S
O230 C233 1.320 . S
O231 Cd228 2.333 . S
O231 C233 1.214 . S
O232 Cd228 2.352 1_565 S
O232 C235 1.258 . S
C233 O230 1.320 . S
C233 O231 1.214 . S
O234 Cd226 2.277 . S
O234 C229 1.209 . S
C235 O232 1.258 . S
C235 O237 1.282 . S
O236 Cd228 2.277 . S
O236 C229 1.226 . S
O237 Cd228 2.356 1_565 S
O237 C235 1.282 . S
C238 O239 1.306 . S
C238 O241 1.160 . S
O239 C238 1.306 . S
O239 Cd240 2.228 1_455 S
Cd240 O239 2.228 1_655 S
Cd240 O244 2.273 . S
Cd240 O248 2.277 . S
O241 C238 1.160 . S
O241 Cd242 2.203 1_455 S
Cd242 O241 2.203 1_655 S
Cd242 O244 2.411 . S
Cd242 O245 2.333 . S
Cd242 O246 2.385 . S
Cd242 O250 2.277 . S
Cd242 O251 2.356 . S
C243 O248 1.209 . S
C243 O250 1.226 . S
O244 Cd240 2.273 . S
O244 Cd242 2.411 . S
O244 C247 1.320 . S
O245 Cd242 2.333 . S
O245 C247 1.214 . S
O246 Cd242 2.385 . S
O246 C249 1.259 . S
C247 O244 1.320 . S
C247 O245 1.214 . S
O248 Cd240 2.277 . S
O248 C243 1.209 . S
C249 O246 1.259 . S
C249 O251 1.282 . S
O250 Cd242 2.277 . S
O250 C243 1.226 . S
O251 Cd242 2.356 . S
O251 C249 1.282 . S
H252 C258 0.930 . S
H253 C261 0.931 . S
H254 C263 0.931 . S
H255 C265 0.930 . S
H256 C267 0.930 . S
H257 C269 0.931 . S
C258 H252 0.930 . S
C258 C259 1.380 . S
C258 C260 1.394 . S
C259 C258 1.380 . S
C259 C263 1.382 . S
C260 C258 1.394 . S
C260 C261 1.400 . S
C261 H253 0.931 . S
C261 C260 1.400 . S
C261 C262 1.375 . S
C262 C261 1.375 . S
C262 C263 1.415 . S
C262 C264 1.501 . S
C263 H254 0.931 . S
C263 C259 1.382 . S
C263 C262 1.415 . S
C264 C262 1.501 . S
C264 C265 1.384 . S
C264 C269 1.408 . S
C265 H255 0.930 . S
C265 C264 1.384 . S
C265 C266 1.389 . S
C266 C265 1.389 . S
C266 C267 1.405 . S
C267 H256 0.930 . S
C267 C266 1.405 . S
C267 C268 1.364 . S
C268 C267 1.364 . S
C268 C269 1.400 . S
C269 H257 0.931 . S
C269 C264 1.408 . S
C269 C268 1.400 . S
H270 C276 0.930 . S
H271 C279 0.931 . S
H272 C281 0.931 . S
H273 C283 0.930 . S
H274 C285 0.930 . S
H275 C287 0.931 . S
C276 H270 0.930 . S
C276 C277 1.380 . S
C276 C278 1.394 . S
C277 C276 1.380 . S
C277 C281 1.382 . S
C278 C276 1.394 . S
C278 C279 1.400 . S
C279 H271 0.931 . S
C279 C278 1.400 . S
C279 C280 1.375 . S
C280 C279 1.375 . S
C280 C281 1.415 . S
C280 C282 1.501 . S
C281 H272 0.931 . S
C281 C277 1.382 . S
C281 C280 1.415 . S
C282 C280 1.501 . S
C282 C283 1.384 . S
C282 C287 1.408 . S
C283 H273 0.930 . S
C283 C282 1.384 . S
C283 C284 1.389 . S
C284 C283 1.389 . S
C284 C285 1.405 . S
C285 H274 0.930 . S
C285 C284 1.405 . S
C285 C286 1.364 . S
C286 C285 1.364 . S
C286 C287 1.400 . S
C287 H275 0.931 . S
C287 C282 1.408 . S
C287 C286 1.400 . S
H288 C294 0.930 . S
H289 C297 0.931 . S
H290 C299 0.931 . S
H291 C301 0.930 . S
H292 C303 0.930 . S
H293 C305 0.931 . S
C294 H288 0.930 . S
C294 C295 1.380 . S
C294 C296 1.394 . S
C295 C294 1.380 . S
C295 C299 1.382 . S
C296 C294 1.394 . S
C296 C297 1.400 . S
C297 H289 0.931 . S
C297 C296 1.400 . S
C297 C298 1.375 . S
C298 C297 1.375 . S
C298 C299 1.415 . S
C298 C300 1.501 . S
C299 H290 0.931 . S
C299 C295 1.382 . S
C299 C298 1.415 . S
C300 C298 1.501 . S
C300 C301 1.384 . S
C300 C305 1.408 . S
C301 H291 0.930 . S
C301 C300 1.384 . S
C301 C302 1.389 . S
C302 C301 1.389 . S
C302 C303 1.405 . S
C303 H292 0.930 . S
C303 C302 1.405 . S
C303 C304 1.364 . S
C304 C303 1.364 . S
C304 C305 1.400 . S
C305 H293 0.931 . S
C305 C300 1.408 . S
C305 C304 1.400 . S
H306 C312 0.930 . S
H307 C315 0.931 . S
H308 C317 0.931 . S
H309 C319 0.930 . S
H310 C321 0.930 . S
H311 C323 0.931 . S
C312 H306 0.930 . S
C312 C313 1.380 . S
C312 C314 1.394 . S
C313 C312 1.380 . S
C313 C317 1.382 . S
C314 C312 1.394 . S
C314 C315 1.400 . S
C315 H307 0.931 . S
C315 C314 1.400 . S
C315 C316 1.375 . S
C316 C315 1.375 . S
C316 C317 1.415 . S
C316 C318 1.501 . S
C317 H308 0.931 . S
C317 C313 1.382 . S
C317 C316 1.415 . S
C318 C316 1.501 . S
C318 C319 1.384 . S
C318 C323 1.408 . S
C319 H309 0.930 . S
C319 C318 1.384 . S
C319 C320 1.389 . S
C320 C319 1.389 . S
C320 C321 1.405 . S
C321 H310 0.930 . S
C321 C320 1.405 . S
C321 C322 1.364 . S
C322 C321 1.364 . S
C322 C323 1.400 . S
C323 H311 0.931 . S
C323 C318 1.408 . S
C323 C322 1.400 . S
H324 C330 0.930 . S
H325 C333 0.931 . S
H326 C335 0.931 . S
H327 C337 0.930 . S
H328 C339 0.930 . S
H329 C341 0.931 . S
C330 H324 0.930 . S
C330 C331 1.380 . S
C330 C332 1.394 . S
C331 C330 1.380 . S
C331 C335 1.382 . S
C332 C330 1.394 . S
C332 C333 1.400 . S
C333 H325 0.931 . S
C333 C332 1.400 . S
C333 C334 1.375 . S
C334 C333 1.375 . S
C334 C335 1.415 . S
C334 C336 1.501 . S
C335 H326 0.931 . S
C335 C331 1.382 . S
C335 C334 1.415 . S
C336 C334 1.501 . S
C336 C337 1.384 . S
C336 C341 1.408 . S
C337 H327 0.930 . S
C337 C336 1.384 . S
C337 C338 1.389 . S
C338 C337 1.389 . S
C338 C339 1.405 . S
C339 H328 0.930 . S
C339 C338 1.405 . S
C339 C340 1.364 . S
C340 C339 1.364 . S
C340 C341 1.400 . S
C341 H329 0.931 . S
C341 C336 1.408 . S
C341 C340 1.400 . S
H342 C348 0.930 . S
H343 C351 0.931 . S
H344 C353 0.931 . S
H345 C355 0.930 . S
H346 C357 0.930 . S
H347 C359 0.931 . S
C348 H342 0.930 . S
C348 C349 1.380 . S
C348 C350 1.394 . S
C349 C348 1.380 . S
C349 C353 1.382 . S
C350 C348 1.394 . S
C350 C351 1.400 . S
C351 H343 0.931 . S
C351 C350 1.400 . S
C351 C352 1.375 . S
C352 C351 1.375 . S
C352 C353 1.415 . S
C352 C354 1.501 . S
C353 H344 0.931 . S
C353 C349 1.382 . S
C353 C352 1.415 . S
C354 C352 1.501 . S
C354 C355 1.384 . S
C354 C359 1.408 . S
C355 H345 0.930 . S
C355 C354 1.384 . S
C355 C356 1.389 . S
C356 C355 1.389 . S
C356 C357 1.405 . S
C357 H346 0.930 . S
C357 C356 1.405 . S
C357 C358 1.364 . S
C358 C357 1.364 . S
C358 C359 1.400 . S
C359 H347 0.931 . S
C359 C354 1.408 . S
C359 C358 1.400 . S
H360 C366 0.930 . S
H361 C369 0.931 . S
H362 C371 0.931 . S
H363 C373 0.930 . S
H364 C375 0.930 . S
H365 C377 0.931 . S
C366 H360 0.930 . S
C366 C367 1.380 . S
C366 C368 1.394 . S
C367 C366 1.380 . S
C367 C371 1.382 . S
C368 C366 1.394 . S
C368 C369 1.400 . S
C369 H361 0.931 . S
C369 C368 1.400 . S
C369 C370 1.375 . S
C370 C369 1.375 . S
C370 C371 1.415 . S
C370 C372 1.501 . S
C371 H362 0.931 . S
C371 C367 1.382 . S
C371 C370 1.415 . S
C372 C370 1.501 . S
C372 C373 1.384 . S
C372 C377 1.408 . S
C373 H363 0.930 . S
C373 C372 1.384 . S
C373 C374 1.389 . S
C374 C373 1.389 . S
C374 C375 1.405 . S
C375 H364 0.930 . S
C375 C374 1.405 . S
C375 C376 1.364 . S
C376 C375 1.364 . S
C376 C377 1.400 . S
C377 H365 0.931 . S
C377 C372 1.408 . S
C377 C376 1.400 . S
H378 C384 0.930 . S
H379 C387 0.931 . S
H380 C389 0.931 . S
H381 C391 0.930 . S
H382 C393 0.930 . S
H383 C395 0.931 . S
C384 H378 0.930 . S
C384 C385 1.380 . S
C384 C386 1.394 . S
C385 C384 1.380 . S
C385 C389 1.382 . S
C386 C384 1.394 . S
C386 C387 1.400 . S
C387 H379 0.931 . S
C387 C386 1.400 . S
C387 C388 1.375 . S
C388 C387 1.375 . S
C388 C389 1.415 . S
C388 C390 1.501 . S
C389 H380 0.931 . S
C389 C385 1.382 . S
C389 C388 1.415 . S
C390 C388 1.501 . S
C390 C391 1.384 . S
C390 C395 1.408 . S
C391 H381 0.930 . S
C391 C390 1.384 . S
C391 C392 1.389 . S
C392 C391 1.389 . S
C392 C393 1.405 . S
C393 H382 0.930 . S
C393 C392 1.405 . S
C393 C394 1.364 . S
C394 C393 1.364 . S
C394 C395 1.400 . S
C395 H383 0.931 . S
C395 C390 1.408 . S
C395 C394 1.400 . S
H396 C402 0.930 . S
H397 C405 0.931 . S
H398 C407 0.931 . S
H399 C409 0.930 . S
H400 C411 0.930 . S
H401 C413 0.931 . S
C402 H396 0.930 . S
C402 C403 1.380 . S
C402 C404 1.394 . S
C403 C402 1.380 . S
C403 C407 1.382 . S
C404 C402 1.394 . S
C404 C405 1.400 . S
C405 H397 0.931 . S
C405 C404 1.400 . S
C405 C406 1.375 . S
C406 C405 1.375 . S
C406 C407 1.415 . S
C406 C408 1.501 . S
C407 H398 0.931 . S
C407 C403 1.382 . S
C407 C406 1.415 . S
C408 C406 1.501 . S
C408 C409 1.384 . S
C408 C413 1.408 . S
C409 H399 0.930 . S
C409 C408 1.384 . S
C409 C410 1.389 . S
C410 C409 1.389 . S
C410 C411 1.405 . S
C411 H400 0.930 . S
C411 C410 1.405 . S
C411 C412 1.364 . S
C412 C411 1.364 . S
C412 C413 1.400 . S
C413 H401 0.931 . S
C413 C408 1.408 . S
C413 C412 1.400 . S
H414 C420 0.925 . S
H415 C423 0.931 . S
H416 C425 0.931 . S
H417 C427 0.930 . S
H418 C429 0.930 . S
H419 C431 0.939 1_655 S
C420 H414 0.925 . S
C420 C421 1.384 . S
C420 C422 1.395 1_655 S
C421 C420 1.384 . S
C421 C425 1.382 . S
C422 C420 1.395 1_455 S
C422 C423 1.400 . S
C423 H415 0.931 . S
C423 C422 1.400 . S
C423 C424 1.375 . S
C424 C423 1.375 . S
C424 C425 1.415 1_455 S
C424 C426 1.501 . S
C425 H416 0.931 . S
C425 C421 1.382 . S
C425 C424 1.415 1_655 S
C426 C424 1.501 . S
C426 C427 1.384 . S
C426 C431 1.419 . S
C427 H417 0.930 . S
C427 C426 1.384 . S
C427 C428 1.389 . S
C428 C427 1.389 . S
C428 C429 1.405 . S
C429 H418 0.930 . S
C429 C428 1.405 . S
C429 C430 1.360 . S
C430 C429 1.360 . S
C430 C431 1.391 . S
C431 H419 0.939 1_455 S
C431 C426 1.419 . S
C431 C430 1.391 . S
H432 C438 0.930 . S
H433 C441 0.931 . S
H434 C443 0.931 . S
H435 C445 0.930 . S
H436 C447 0.930 . S
H437 C449 0.931 . S
C438 H432 0.930 . S
C438 C439 1.380 . S
C438 C440 1.394 . S
C439 C438 1.380 . S
C439 C443 1.382 . S
C440 C438 1.394 . S
C440 C441 1.400 . S
C441 H433 0.931 . S
C441 C440 1.400 . S
C441 C442 1.375 . S
C442 C441 1.375 . S
C442 C443 1.415 . S
C442 C444 1.501 . S
C443 H434 0.931 . S
C443 C439 1.382 . S
C443 C442 1.415 . S
C444 C442 1.501 . S
C444 C445 1.384 . S
C444 C449 1.408 . S
C445 H435 0.930 . S
C445 C444 1.384 . S
C445 C446 1.389 . S
C446 C445 1.389 . S
C446 C447 1.405 . S
C447 H436 0.930 . S
C447 C446 1.405 . S
C447 C448 1.364 . S
C448 C447 1.364 . S
C448 C449 1.400 . S
C449 H437 0.931 . S
C449 C444 1.408 . S
C449 C448 1.400 . S
H450 C456 0.960 . S
H451 C459 0.931 . S
H452 C461 0.931 . S
H453 C463 0.930 . S
H454 C465 0.930 . S
H455 C467 0.916 . S
C456 H450 0.960 . S
C456 C457 1.374 . S
C456 C458 1.373 1_545 S
C457 C456 1.374 . S
C457 C461 1.382 . S
C458 C456 1.373 1_565 S
C458 C459 1.400 . S
C459 H451 0.931 . S
C459 C458 1.400 . S
C459 C460 1.375 . S
C460 C459 1.375 . S
C460 C461 1.415 1_565 S
C460 C462 1.501 . S
C461 H452 0.931 . S
C461 C457 1.382 . S
C461 C460 1.415 1_545 S
C462 C460 1.501 . S
C462 C463 1.384 . S
C462 C467 1.397 . S
C463 H453 0.930 . S
C463 C462 1.384 . S
C463 C464 1.389 . S
C464 C463 1.389 . S
C464 C465 1.405 . S
C465 H454 0.930 . S
C465 C464 1.405 . S
C465 C466 1.380 . S
C466 C465 1.380 . S
C466 C467 1.402 . S
C467 H455 0.916 . S
C467 C462 1.397 . S
C467 C466 1.402 . S
H468 C474 0.918 . S
H469 C477 0.931 . S
H470 C479 0.927 1_545 S
H471 C481 0.930 . S
H472 C483 0.900 . S
H473 C485 0.931 . S
C474 H468 0.918 . S
C474 C475 1.381 . S
C474 C476 1.416 1_545 S
C475 C474 1.381 . S
C475 C479 1.399 1_545 S
C476 C474 1.416 1_565 S
C476 C477 1.371 . S
C477 H469 0.931 . S
C477 C476 1.371 . S
C477 C478 1.375 . S
C478 C477 1.375 . S
C478 C479 1.412 . S
C478 C480 1.501 . S
C479 H470 0.927 1_565 S
C479 C475 1.399 1_565 S
C479 C478 1.412 . S
C480 C478 1.501 . S
C480 C481 1.384 . S
C480 C485 1.408 1_565 S
C481 H471 0.930 . S
C481 C480 1.384 . S
C481 C482 1.389 . S
C482 C481 1.389 . S
C482 C483 1.431 . S
C483 H472 0.900 . S
C483 C482 1.431 . S
C483 C484 1.373 1_565 S
C484 C483 1.373 1_545 S
C484 C485 1.400 . S
C485 H473 0.931 . S
C485 C480 1.408 1_545 S
C485 C484 1.400 . S
H486 C492 0.958 . S
H487 C495 0.931 . S
H488 C497 0.934 1_655 S
H489 C499 0.930 . S
H490 C501 0.930 . S
H491 C503 0.931 . S
C492 H486 0.958 . S
C492 C493 1.378 . S
C492 C494 1.366 1_655 S
C493 C492 1.378 . S
C493 C497 1.359 1_655 S
C494 C492 1.366 1_455 S
C494 C495 1.433 . S
C495 H487 0.931 . S
C495 C494 1.433 . S
C495 C496 1.375 . S
C496 C495 1.375 . S
C496 C497 1.416 . S
C496 C498 1.501 . S
C497 H488 0.934 1_455 S
C497 C493 1.359 1_455 S
C497 C496 1.416 . S
C498 C496 1.501 . S
C498 C499 1.384 . S
C498 C503 1.408 1_455 S
C499 H489 0.930 . S
C499 C498 1.384 . S
C499 C500 1.389 . S
C500 C499 1.389 . S
C500 C501 1.405 . S
C501 H490 0.930 . S
C501 C500 1.405 . S
C501 C502 1.364 1_455 S
C502 C501 1.364 1_655 S
C502 C503 1.400 . S
C503 H491 0.931 . S
C503 C498 1.408 1_655 S
C503 C502 1.400 . S
H504 C510 0.930 . S
H505 C513 0.931 . S
H506 C515 0.931 . S
H507 C517 0.930 . S
H508 C519 0.930 . S
H509 C521 0.931 . S
C510 H504 0.930 . S
C510 C511 1.380 . S
C510 C512 1.394 . S
C511 C510 1.380 . S
C511 C515 1.382 . S
C512 C510 1.394 . S
C512 C513 1.400 . S
C513 H505 0.931 . S
C513 C512 1.400 . S
C513 C514 1.375 . S
C514 C513 1.375 . S
C514 C515 1.415 . S
C514 C516 1.501 . S
C515 H506 0.931 . S
C515 C511 1.382 . S
C515 C514 1.415 . S
C516 C514 1.501 . S
C516 C517 1.384 . S
C516 C521 1.408 . S
C517 H507 0.930 . S
C517 C516 1.384 . S
C517 C518 1.389 . S
C518 C517 1.389 . S
C518 C519 1.405 . S
C519 H508 0.930 . S
C519 C518 1.405 . S
C519 C520 1.364 . S
C520 C519 1.364 . S
C520 C521 1.400 . S
C521 H509 0.931 . S
C521 C516 1.408 . S
C521 C520 1.400 . S
H522 C528 0.930 . S
H523 C531 0.931 . S
H524 C533 0.931 . S
H525 C535 0.930 . S
H526 C537 0.930 . S
H527 C539 0.931 . S
C528 H522 0.930 . S
C528 C529 1.380 . S
C528 C530 1.394 . S
C529 C528 1.380 . S
C529 C533 1.382 . S
C530 C528 1.394 . S
C530 C531 1.400 . S
C531 H523 0.931 . S
C531 C530 1.400 . S
C531 C532 1.375 . S
C532 C531 1.375 . S
C532 C533 1.415 . S
C532 C534 1.501 . S
C533 H524 0.931 . S
C533 C529 1.382 . S
C533 C532 1.415 . S
C534 C532 1.501 . S
C534 C535 1.384 . S
C534 C539 1.408 . S
C535 H525 0.930 . S
C535 C534 1.384 . S
C535 C536 1.389 . S
C536 C535 1.389 . S
C536 C537 1.405 . S
C537 H526 0.930 . S
C537 C536 1.405 . S
C537 C538 1.364 . S
C538 C537 1.364 . S
C538 C539 1.400 . S
C539 H527 0.931 . S
C539 C534 1.408 . S
C539 C538 1.400 . S
H540 C546 0.930 . S
H541 C549 0.931 . S
H542 C551 0.931 . S
H543 C553 0.930 . S
H544 C555 0.930 . S
H545 C557 0.931 . S
C546 H540 0.930 . S
C546 C547 1.380 . S
C546 C548 1.394 . S
C547 C546 1.380 . S
C547 C551 1.382 . S
C548 C546 1.394 . S
C548 C549 1.400 . S
C549 H541 0.931 . S
C549 C548 1.400 . S
C549 C550 1.375 . S
C550 C549 1.375 . S
C550 C551 1.415 . S
C550 C552 1.501 . S
C551 H542 0.931 . S
C551 C547 1.382 . S
C551 C550 1.415 . S
C552 C550 1.501 . S
C552 C553 1.384 . S
C552 C557 1.408 . S
C553 H543 0.930 . S
C553 C552 1.384 . S
C553 C554 1.389 . S
C554 C553 1.389 . S
C554 C555 1.405 . S
C555 H544 0.930 . S
C555 C554 1.405 . S
C555 C556 1.364 . S
C556 C555 1.364 . S
C556 C557 1.400 . S
C557 H545 0.931 . S
C557 C552 1.408 . S
C557 C556 1.400 . S
H558 C564 0.930 . S
H559 C567 0.931 . S
H560 C569 0.931 . S
H561 C571 0.930 . S
H562 C573 0.930 . S
H563 C575 0.931 . S
C564 H558 0.930 . S
C564 C565 1.380 . S
C564 C566 1.394 . S
C565 C564 1.380 . S
C565 C569 1.382 . S
C566 C564 1.394 . S
C566 C567 1.400 . S
C567 H559 0.931 . S
C567 C566 1.400 . S
C567 C568 1.375 . S
C568 C567 1.375 . S
C568 C569 1.415 . S
C568 C570 1.501 . S
C569 H560 0.931 . S
C569 C565 1.382 . S
C569 C568 1.415 . S
C570 C568 1.501 . S
C570 C571 1.384 . S
C570 C575 1.408 . S
C571 H561 0.930 . S
C571 C570 1.384 . S
C571 C572 1.389 . S
C572 C571 1.389 . S
C572 C573 1.405 . S
C573 H562 0.930 . S
C573 C572 1.405 . S
C573 C574 1.364 . S
C574 C573 1.364 . S
C574 C575 1.400 . S
C575 H563 0.931 . S
C575 C570 1.408 . S
C575 C574 1.400 . S
H576 C582 0.930 . S
H577 C586 0.930 . S
H578 C591 0.929 . S
H579 C589 0.929 . S
H580 C584 0.929 . S
H581 C590 0.929 . S
C582 H576 0.930 . S
C582 C583 1.367 1_455 S
C582 C590 1.378 . S
C583 C582 1.367 1_655 S
C583 C591 1.433 . S
C584 H580 0.929 . S
C584 C586 1.378 . S
C584 C588 1.350 . S
C585 C588 1.463 . S
C585 C590 1.350 1_655 S
C585 N593 1.427 . S
C586 H577 0.930 . S
C586 C584 1.378 . S
C586 C587 1.367 . S
C587 C586 1.367 . S
C587 C589 1.433 1_655 S
C588 C584 1.350 . S
C588 C585 1.463 . S
C588 N592 1.427 1_655 S
C589 H579 0.929 . S
C589 C587 1.433 1_455 S
C589 N592 1.384 . S
C590 H581 0.929 . S
C590 C582 1.378 . S
C590 C585 1.350 1_455 S
C591 H578 0.929 . S
C591 C583 1.433 . S
C591 N593 1.384 . S
N592 C588 1.427 1_455 S
N592 C589 1.384 . S
N593 C585 1.427 . S
N593 C591 1.384 . S
H594 C600 0.930 . S
H595 C604 0.930 . S
H596 C609 0.929 . S
H597 C607 0.929 . S
H598 C602 0.929 . S
H599 C608 0.929 . S
C600 H594 0.930 . S
C600 C601 1.367 . S
C600 C608 1.378 . S
C601 C600 1.367 . S
C601 C609 1.433 . S
C602 H598 0.929 . S
C602 C604 1.378 . S
C602 C606 1.350 . S
C603 C606 1.463 . S
C603 C608 1.350 . S
C603 N611 1.427 . S
C604 H595 0.930 . S
C604 C602 1.378 . S
C604 C605 1.367 . S
C605 C604 1.367 . S
C605 C607 1.433 . S
C606 C602 1.350 . S
C606 C603 1.463 . S
C606 N610 1.427 . S
C607 H597 0.929 . S
C607 C605 1.433 . S
C607 N610 1.384 . S
C608 H599 0.929 . S
C608 C600 1.378 . S
C608 C603 1.350 . S
C609 H596 0.929 . S
C609 C601 1.433 . S
C609 N611 1.384 . S
N610 C606 1.427 . S
N610 C607 1.384 . S
N611 C603 1.427 . S
N611 C609 1.384 . S
H612 C618 0.930 . S
H613 C622 0.930 . S
H614 C627 0.929 . S
H615 C625 0.929 . S
H616 C620 0.929 . S
H617 C626 0.929 . S
C618 H612 0.930 . S
C618 C619 1.367 . S
C618 C626 1.378 . S
C619 C618 1.367 . S
C619 C627 1.433 1_545 S
C620 H616 0.929 . S
C620 C622 1.378 . S
C620 C624 1.350 1_565 S
C621 C624 1.463 . S
C621 C626 1.350 . S
C621 N629 1.427 1_545 S
C622 H613 0.930 . S
C622 C620 1.378 . S
C622 C623 1.367 1_565 S
C623 C622 1.367 1_545 S
C623 C625 1.433 . S
C624 C620 1.350 1_545 S
C624 C621 1.463 . S
C624 N628 1.427 . S
C625 H615 0.929 . S
C625 C623 1.433 . S
C625 N628 1.384 . S
C626 H617 0.929 . S
C626 C618 1.378 . S
C626 C621 1.350 . S
C627 H614 0.929 . S
C627 C619 1.433 1_565 S
C627 N629 1.384 . S
N628 C624 1.427 . S
N628 C625 1.384 . S
N629 C621 1.427 1_565 S
N629 C627 1.384 . S
H630 C636 0.930 . S
H631 C640 0.930 . S
H632 C645 0.929 . S
H633 C643 0.929 . S
H634 C638 0.929 . S
H635 C644 0.929 . S
C636 H630 0.930 . S
C636 C637 1.387 . S
C636 C644 1.378 . S
C637 C636 1.387 . S
C637 C645 1.441 1_565 S
C638 H634 0.929 . S
C638 C640 1.378 . S
C638 C642 1.350 1_545 S
C639 C642 1.463 . S
C639 C644 1.350 . S
C639 N647 1.427 1_565 S
C640 H631 0.930 . S
C640 C638 1.378 . S
C640 C641 1.367 1_545 S
C641 C640 1.367 1_565 S
C641 C643 1.433 . S
C642 C638 1.350 1_565 S
C642 C639 1.463 . S
C642 N646 1.427 . S
C643 H633 0.929 . S
C643 C641 1.433 . S
C643 N646 1.384 . S
C644 H635 0.929 . S
C644 C636 1.378 . S
C644 C639 1.350 . S
C645 H632 0.929 . S
C645 C637 1.441 1_545 S
C645 N647 1.384 . S
N646 C642 1.427 . S
N646 C643 1.384 . S
N647 C639 1.427 1_545 S
N647 C645 1.384 . S
H648 C654 0.930 . S
H649 C658 0.930 . S
H650 C663 0.929 . S
H651 C661 0.929 . S
H652 C656 0.929 . S
H653 C662 0.929 . S
C654 H648 0.930 . S
C654 C655 1.367 . S
C654 C662 1.378 . S
C655 C654 1.367 . S
C655 C663 1.433 1_455 S
C656 H652 0.929 . S
C656 C658 1.378 . S
C656 C660 1.350 1_655 S
C657 C660 1.463 . S
C657 C662 1.350 . S
C657 N665 1.427 1_455 S
C658 H649 0.930 . S
C658 C656 1.378 . S
C658 C659 1.367 1_655 S
C659 C658 1.367 1_455 S
C659 C661 1.433 . S
C660 C656 1.350 1_455 S
C660 C657 1.463 . S
C660 N664 1.427 . S
C661 H651 0.929 . S
C661 C659 1.433 . S
C661 N664 1.384 . S
C662 H653 0.929 . S
C662 C654 1.378 . S
C662 C657 1.350 . S
C663 H650 0.929 . S
C663 C655 1.433 1_655 S
C663 N665 1.384 . S
N664 C660 1.427 . S
N664 C661 1.384 . S
N665 C657 1.427 1_655 S
N665 C663 1.384 . S
H666 C672 0.930 . S
H667 C676 0.930 . S
H668 C681 0.929 . S
H669 C679 0.929 . S
H670 C674 0.929 . S
H671 C680 0.929 . S
C672 H666 0.930 . S
C672 C673 1.367 . S
C672 C680 1.378 . S
C673 C672 1.367 . S
C673 C681 1.433 . S
C674 H670 0.929 . S
C674 C676 1.378 . S
C674 C678 1.350 . S
C675 C678 1.463 . S
C675 C680 1.350 . S
C675 N683 1.427 . S
C676 H667 0.930 . S
C676 C674 1.378 . S
C676 C677 1.367 . S
C677 C676 1.367 . S
C677 C679 1.433 . S
C678 C674 1.350 . S
C678 C675 1.463 . S
C678 N682 1.427 . S
C679 H669 0.929 . S
C679 C677 1.433 . S
C679 N682 1.384 . S
C680 H671 0.929 . S
C680 C672 1.378 . S
C680 C675 1.350 . S
C681 H668 0.929 . S
C681 C673 1.433 . S
C681 N683 1.384 . S
N682 C678 1.427 . S
N682 C679 1.384 . S
N683 C675 1.427 . S
N683 C681 1.384 . S
H684 C690 0.930 . S
H685 C694 0.930 . S
H686 C699 0.929 . S
H687 C697 0.929 . S
H688 C692 0.929 . S
H689 C698 0.929 . S
C690 H684 0.930 . S
C690 C691 1.367 1_655 S
C690 C698 1.378 . S
C691 C690 1.367 1_455 S
C691 C699 1.433 . S
C692 H688 0.929 . S
C692 C694 1.378 . S
C692 C696 1.350 . S
C693 C696 1.463 . S
C693 C698 1.350 1_455 S
C693 N701 1.427 . S
C694 H685 0.930 . S
C694 C692 1.378 . S
C694 C695 1.366 1_455 S
C695 C694 1.366 1_655 S
C695 C697 1.435 . S
C696 C692 1.350 . S
C696 C693 1.463 . S
C696 N700 1.427 1_455 S
C697 H687 0.929 . S
C697 C695 1.435 . S
C697 N700 1.384 . S
C698 H689 0.929 . S
C698 C690 1.378 . S
C698 C693 1.350 1_655 S
C699 H686 0.929 . S
C699 C691 1.433 . S
C699 N701 1.384 . S
N700 C696 1.427 1_655 S
N700 C697 1.384 . S
N701 C693 1.427 . S
N701 C699 1.384 . S
H702 C708 0.930 . S
H703 C712 0.930 . S
H704 C717 0.929 . S
H705 C715 0.929 . S
H706 C710 0.929 . S
H707 C716 0.929 . S
C708 H702 0.930 . S
C708 C709 1.367 . S
C708 C716 1.378 . S
C709 C708 1.367 . S
C709 C717 1.433 . S
C710 H706 0.929 . S
C710 C712 1.378 . S
C710 C714 1.350 . S
C711 C714 1.463 . S
C711 C716 1.350 . S
C711 N719 1.427 . S
C712 H703 0.930 . S
C712 C710 1.378 . S
C712 C713 1.367 . S
C713 C712 1.367 . S
C713 C715 1.433 . S
C714 C710 1.350 . S
C714 C711 1.463 . S
C714 N718 1.427 . S
C715 H705 0.929 . S
C715 C713 1.433 . S
C715 N718 1.384 . S
C716 H707 0.929 . S
C716 C708 1.378 . S
C716 C711 1.350 . S
C717 H704 0.929 . S
C717 C709 1.433 . S
C717 N719 1.384 . S
N718 C714 1.427 . S
N718 C715 1.384 . S
N719 C711 1.427 . S
N719 C717 1.384 . S
H720 C726 0.930 . S
H721 C730 0.930 . S
H722 C735 0.929 . S
H723 C733 0.929 . S
H724 C728 0.929 . S
H725 C734 0.929 . S
C726 H720 0.930 . S
C726 C727 1.367 . S
C726 C734 1.378 . S
C727 C726 1.367 . S
C727 C735 1.433 1_565 S
C728 H724 0.929 . S
C728 C730 1.378 . S
C728 C732 1.371 . S
C729 C732 1.453 1_565 S
C729 C734 1.350 . S
C729 N737 1.427 1_565 S
C730 H721 0.930 . S
C730 C728 1.378 . S
C730 C731 1.403 . S
C731 C730 1.403 . S
C731 C733 1.373 1_545 S
C732 C728 1.371 . S
C732 C729 1.453 1_545 S
C732 N736 1.415 1_545 S
C733 H723 0.929 . S
C733 C731 1.373 1_565 S
C733 N736 1.384 . S
C734 H725 0.929 . S
C734 C726 1.378 . S
C734 C729 1.350 . S
C735 H722 0.929 . S
C735 C727 1.433 1_545 S
C735 N737 1.384 . S
N736 C732 1.415 1_565 S
N736 C733 1.384 . S
N737 C729 1.427 1_545 S
N737 C735 1.384 . S
H738 C744 0.930 . S
H739 C748 0.930 . S
H740 C753 0.929 . S
H741 C751 0.929 . S
H742 C746 0.929 . S
H743 C752 0.929 . S
C744 H738 0.930 . S
C744 C745 1.367 . S
C744 C752 1.378 . S
C745 C744 1.367 . S
C745 C753 1.433 1_545 S
C746 H742 0.929 . S
C746 C748 1.378 . S
C746 C750 1.346 1_565 S
C747 C750 1.460 . S
C747 C752 1.350 . S
C747 N755 1.427 1_545 S
C748 H739 0.930 . S
C748 C746 1.378 . S
C748 C749 1.418 . S
C749 C748 1.418 . S
C749 C751 1.404 1_565 S
C750 C746 1.346 1_545 S
C750 C747 1.460 . S
C750 N754 1.434 . S
C751 H741 0.929 . S
C751 C749 1.404 1_545 S
C751 N754 1.384 . S
C752 H743 0.929 . S
C752 C744 1.378 . S
C752 C747 1.350 . S
C753 H740 0.929 . S
C753 C745 1.433 1_565 S
C753 N755 1.384 . S
N754 C750 1.434 . S
N754 C751 1.384 . S
N755 C747 1.427 1_565 S
N755 C753 1.384 . S
H756 C762 0.930 . S
H757 C766 0.930 . S
H758 C771 0.929 . S
H759 C769 0.929 . S
H760 C764 0.929 . S
H761 C770 0.929 . S
C762 H756 0.930 . S
C762 C763 1.367 . S
C762 C770 1.378 . S
C763 C762 1.367 . S
C763 C771 1.433 1_655 S
C764 H760 0.929 . S
C764 C766 1.378 . S
C764 C768 1.356 . S
C765 C768 1.460 1_655 S
C765 C770 1.350 . S
C765 N773 1.427 1_655 S
C766 H757 0.930 . S
C766 C764 1.378 . S
C766 C767 1.396 . S
C767 C766 1.396 . S
C767 C769 1.384 1_455 S
C768 C764 1.356 . S
C768 C765 1.460 1_455 S
C768 N772 1.423 1_455 S
C769 H759 0.929 . S
C769 C767 1.384 1_655 S
C769 N772 1.384 . S
C770 H761 0.929 . S
C770 C762 1.378 . S
C770 C765 1.350 . S
C771 H758 0.929 . S
C771 C763 1.433 1_455 S
C771 N773 1.384 . S
N772 C768 1.423 1_655 S
N772 C769 1.384 . S
N773 C765 1.427 1_455 S
N773 C771 1.384 . S
H774 C780 0.930 . S
H775 C784 0.930 . S
H776 C789 0.929 . S
H777 C787 0.929 . S
H778 C782 0.929 . S
H779 C788 0.929 . S
C780 H774 0.930 . S
C780 C781 1.367 . S
C780 C788 1.378 . S
C781 C780 1.367 . S
C781 C789 1.433 . S
C782 H778 0.929 . S
C782 C784 1.378 . S
C782 C786 1.350 . S
C783 C786 1.463 . S
C783 C788 1.350 . S
C783 N791 1.427 . S
C784 H775 0.930 . S
C784 C782 1.378 . S
C784 C785 1.367 . S
C785 C784 1.367 . S
C785 C787 1.433 . S
C786 C782 1.350 . S
C786 C783 1.463 . S
C786 N790 1.427 . S
C787 H777 0.929 . S
C787 C785 1.433 . S
C787 N790 1.384 . S
C788 H779 0.929 . S
C788 C780 1.378 . S
C788 C783 1.350 . S
C789 H776 0.929 . S
C789 C781 1.433 . S
C789 N791 1.384 . S
N790 C786 1.427 . S
N790 C787 1.384 . S
N791 C783 1.427 . S
N791 C789 1.384 . S
H792 C798 0.930 . S
H793 C802 0.930 . S
H794 C807 0.929 . S
H795 C805 0.929 . S
H796 C800 0.929 . S
H797 C806 0.929 . S
C798 H792 0.930 . S
C798 C799 1.367 . S
C798 C806 1.378 . S
C799 C798 1.367 . S
C799 C807 1.433 . S
C800 H796 0.929 . S
C800 C802 1.378 . S
C800 C804 1.350 . S
C801 C804 1.463 . S
C801 C806 1.350 . S
C801 N809 1.427 . S
C802 H793 0.930 . S
C802 C800 1.378 . S
C802 C803 1.367 . S
C803 C802 1.367 . S
C803 C805 1.433 . S
C804 C800 1.350 . S
C804 C801 1.463 . S
C804 N808 1.427 . S
C805 H795 0.929 . S
C805 C803 1.433 . S
C805 N808 1.384 . S
C806 H797 0.929 . S
C806 C798 1.378 . S
C806 C801 1.350 . S
C807 H794 0.929 . S
C807 C799 1.433 . S
C807 N809 1.384 . S
N808 C804 1.427 . S
N808 C805 1.384 . S
N809 C801 1.427 . S
N809 C807 1.384 . S
H810 C816 0.930 . S
H811 C820 0.930 . S
H812 C825 0.929 . S
H813 C823 0.929 . S
H814 C818 0.929 . S
H815 C824 0.929 . S
C816 H810 0.930 . S
C816 C817 1.367 . S
C816 C824 1.378 . S
C817 C816 1.367 . S
C817 C825 1.433 . S
C818 H814 0.929 . S
C818 C820 1.378 . S
C818 C822 1.350 . S
C819 C822 1.463 . S
C819 C824 1.350 . S
C819 N827 1.427 . S
C820 H811 0.930 . S
C820 C818 1.378 . S
C820 C821 1.367 . S
C821 C820 1.367 . S
C821 C823 1.433 . S
C822 C818 1.350 . S
C822 C819 1.463 . S
C822 N826 1.427 . S
C823 H813 0.929 . S
C823 C821 1.433 . S
C823 N826 1.384 . S
C824 H815 0.929 . S
C824 C816 1.378 . S
C824 C819 1.350 . S
C825 H812 0.929 . S
C825 C817 1.433 . S
C825 N827 1.384 . S
N826 C822 1.427 . S
N826 C823 1.384 . S
N827 C819 1.427 . S
N827 C825 1.384 . S
H828 C834 0.930 . S
H829 C838 0.930 . S
H830 C843 0.929 . S
H831 C841 0.929 . S
H832 C836 0.929 . S
H833 C842 0.929 . S
C834 H828 0.930 . S
C834 C835 1.367 . S
C834 C842 1.378 . S
C835 C834 1.367 . S
C835 C843 1.433 . S
C836 H832 0.929 . S
C836 C838 1.378 . S
C836 C840 1.350 . S
C837 C840 1.463 . S
C837 C842 1.350 . S
C837 N845 1.427 . S
C838 H829 0.930 . S
C838 C836 1.378 . S
C838 C839 1.367 . S
C839 C838 1.367 . S
C839 C841 1.433 . S
C840 C836 1.350 . S
C840 C837 1.463 . S
C840 N844 1.427 . S
C841 H831 0.929 . S
C841 C839 1.433 . S
C841 N844 1.384 . S
C842 H833 0.929 . S
C842 C834 1.378 . S
C842 C837 1.350 . S
C843 H830 0.929 . S
C843 C835 1.433 . S
C843 N845 1.384 . S
N844 C840 1.427 . S
N844 C841 1.384 . S
N845 C837 1.427 . S
N845 C843 1.384 . S
H846 C852 0.930 . S
H847 C856 0.930 . S
H848 C861 0.929 . S
H849 C859 0.929 . S
H850 C854 0.929 . S
H851 C860 0.929 . S
C852 H846 0.930 . S
C852 C853 1.367 . S
C852 C860 1.378 . S
C853 C852 1.367 . S
C853 C861 1.433 . S
C854 H850 0.929 . S
C854 C856 1.378 . S
C854 C858 1.350 . S
C855 C858 1.463 . S
C855 C860 1.350 . S
C855 N863 1.427 . S
C856 H847 0.930 . S
C856 C854 1.378 . S
C856 C857 1.367 . S
C857 C856 1.367 . S
C857 C859 1.433 . S
C858 C854 1.350 . S
C858 C855 1.463 . S
C858 N862 1.427 . S
C859 H849 0.929 . S
C859 C857 1.433 . S
C859 N862 1.384 . S
C860 H851 0.929 . S
C860 C852 1.378 . S
C860 C855 1.350 . S
C861 H848 0.929 . S
C861 C853 1.433 . S
C861 N863 1.384 . S
N862 C858 1.427 . S
N862 C859 1.384 . S
N863 C855 1.427 . S
N863 C861 1.384 . S
H864 C870 0.930 . S
H865 C874 0.930 . S
H866 C879 0.929 . S
H867 C877 0.929 . S
H868 C872 0.929 . S
H869 C878 0.929 . S
C870 H864 0.930 . S
C870 C871 1.367 . S
C870 C878 1.378 . S
C871 C870 1.367 . S
C871 C879 1.433 . S
C872 H868 0.929 . S
C872 C874 1.378 . S
C872 C876 1.350 . S
C873 C876 1.463 . S
C873 C878 1.350 . S
C873 N881 1.427 . S
C874 H865 0.930 . S
C874 C872 1.378 . S
C874 C875 1.367 . S
C875 C874 1.367 . S
C875 C877 1.433 . S
C876 C872 1.350 . S
C876 C873 1.463 . S
C876 N880 1.427 . S
C877 H867 0.929 . S
C877 C875 1.433 . S
C877 N880 1.384 . S
C878 H869 0.929 . S
C878 C870 1.378 . S
C878 C873 1.350 . S
C879 H866 0.929 . S
C879 C871 1.433 . S
C879 N881 1.384 . S
N880 C876 1.427 . S
N880 C877 1.384 . S
N881 C873 1.427 . S
N881 C879 1.384 . S
H882 C888 0.930 . S
H883 C892 0.930 . S
H884 C897 0.929 . S
H885 C895 0.929 . S
H886 C890 0.929 . S
H887 C896 0.929 . S
C888 H882 0.930 . S
C888 C889 1.367 . S
C888 C896 1.378 . S
C889 C888 1.367 . S
C889 C897 1.433 . S
C890 H886 0.929 . S
C890 C892 1.378 . S
C890 C894 1.350 . S
C891 C894 1.463 . S
C891 C896 1.350 . S
C891 N899 1.427 . S
C892 H883 0.930 . S
C892 C890 1.378 . S
C892 C893 1.367 . S
C893 C892 1.367 . S
C893 C895 1.433 . S
C894 C890 1.350 . S
C894 C891 1.463 . S
C894 N898 1.427 . S
C895 H885 0.929 . S
C895 C893 1.433 . S
C895 N898 1.384 . S
C896 H887 0.929 . S
C896 C888 1.378 . S
C896 C891 1.350 . S
C897 H884 0.929 . S
C897 C889 1.433 . S
C897 N899 1.384 . S
N898 C894 1.427 . S
N898 C895 1.384 . S
N899 C891 1.427 . S
N899 C897 1.384 . S
H900 C906 0.930 . S
H901 C910 0.930 . S
H902 C915 0.929 . S
H903 C913 0.929 . S
H904 C908 0.929 . S
H905 C914 0.929 . S
C906 H900 0.930 . S
C906 C907 1.367 . S
C906 C914 1.378 . S
C907 C906 1.367 . S
C907 C915 1.433 . S
C908 H904 0.929 . S
C908 C910 1.378 . S
C908 C912 1.350 . S
C909 C912 1.463 . S
C909 C914 1.350 . S
C909 N917 1.427 . S
C910 H901 0.930 . S
C910 C908 1.378 . S
C910 C911 1.367 . S
C911 C910 1.367 . S
C911 C913 1.433 . S
C912 C908 1.350 . S
C912 C909 1.463 . S
C912 N916 1.427 . S
C913 H903 0.929 . S
C913 C911 1.433 . S
C913 N916 1.384 . S
C914 H905 0.929 . S
C914 C906 1.378 . S
C914 C909 1.350 . S
C915 H902 0.929 . S
C915 C907 1.433 . S
C915 N917 1.384 . S
N916 C912 1.427 . S
N916 C913 1.384 . S
N917 C909 1.427 . S
N917 C915 1.384 . S
H918 C924 0.930 . S
H919 C928 0.930 . S
H920 C933 0.929 . S
H921 C931 0.929 . S
H922 C926 0.929 . S
H923 C932 0.929 . S
C924 H918 0.930 . S
C924 C925 1.367 . S
C924 C932 1.378 . S
C925 C924 1.367 . S
C925 C933 1.433 . S
C926 H922 0.929 . S
C926 C928 1.378 . S
C926 C930 1.350 . S
C927 C930 1.463 . S
C927 C932 1.350 . S
C927 N935 1.427 . S
C928 H919 0.930 . S
C928 C926 1.378 . S
C928 C929 1.367 . S
C929 C928 1.367 . S
C929 C931 1.433 . S
C930 C926 1.350 . S
C930 C927 1.463 . S
C930 N934 1.427 . S
C931 H921 0.929 . S
C931 C929 1.433 . S
C931 N934 1.384 . S
C932 H923 0.929 . S
C932 C924 1.378 . S
C932 C927 1.350 . S
C933 H920 0.929 . S
C933 C925 1.433 . S
C933 N935 1.384 . S
N934 C930 1.427 . S
N934 C931 1.384 . S
N935 C927 1.427 . S
N935 C933 1.384 . S
H936 C942 0.930 . S
H937 C946 0.930 . S
H938 C951 0.929 . S
H939 C949 0.929 . S
H940 C944 0.929 . S
H941 C950 0.929 . S
C942 H936 0.930 . S
C942 C943 1.367 . S
C942 C950 1.378 . S
C943 C942 1.367 . S
C943 C951 1.433 . S
C944 H940 0.929 . S
C944 C946 1.378 . S
C944 C948 1.350 . S
C945 C948 1.463 . S
C945 C950 1.350 . S
C945 N953 1.427 . S
C946 H937 0.930 . S
C946 C944 1.378 . S
C946 C947 1.367 . S
C947 C946 1.367 . S
C947 C949 1.433 . S
C948 C944 1.350 . S
C948 C945 1.463 . S
C948 N952 1.427 . S
C949 H939 0.929 . S
C949 C947 1.433 . S
C949 N952 1.384 . S
C950 H941 0.929 . S
C950 C942 1.378 . S
C950 C945 1.350 . S
C951 H938 0.929 . S
C951 C943 1.433 . S
C951 N953 1.384 . S
N952 C948 1.427 . S
N952 C949 1.384 . S
N953 C945 1.427 . S
N953 C951 1.384 . S
H954 C960 0.930 . S
H955 C964 0.930 . S
H956 C969 0.929 . S
H957 C967 0.929 . S
H958 C962 0.929 . S
H959 C968 0.929 . S
C960 H954 0.930 . S
C960 C961 1.367 . S
C960 C968 1.378 . S
C961 C960 1.367 . S
C961 C969 1.433 . S
C962 H958 0.929 . S
C962 C964 1.378 . S
C962 C966 1.350 . S
C963 C966 1.463 . S
C963 C968 1.350 . S
C963 N971 1.427 . S
C964 H955 0.930 . S
C964 C962 1.378 . S
C964 C965 1.367 . S
C965 C964 1.367 . S
C965 C967 1.433 . S
C966 C962 1.350 . S
C966 C963 1.463 . S
C966 N970 1.427 . S
C967 H957 0.929 . S
C967 C965 1.433 . S
C967 N970 1.384 . S
C968 H959 0.929 . S
C968 C960 1.378 . S
C968 C963 1.350 . S
C969 H956 0.929 . S
C969 C961 1.433 . S
C969 N971 1.384 . S
N970 C966 1.427 . S
N970 C967 1.384 . S
N971 C963 1.427 . S
N971 C969 1.384 . S
H972 C978 0.930 . S
H973 C982 0.930 . S
H974 C987 0.929 . S
H975 C985 0.929 . S
H976 C980 0.929 . S
H977 C986 0.929 . S
C978 H972 0.930 . S
C978 C979 1.367 . S
C978 C986 1.378 . S
C979 C978 1.367 . S
C979 C987 1.433 . S
C980 H976 0.929 . S
C980 C982 1.378 . S
C980 C984 1.350 . S
C981 C984 1.463 . S
C981 C986 1.350 . S
C981 N989 1.427 . S
C982 H973 0.930 . S
C982 C980 1.378 . S
C982 C983 1.367 . S
C983 C982 1.367 . S
C983 C985 1.433 . S
C984 C980 1.350 . S
C984 C981 1.463 . S
C984 N988 1.427 . S
C985 H975 0.929 . S
C985 C983 1.433 . S
C985 N988 1.384 . S
C986 H977 0.929 . S
C986 C978 1.378 . S
C986 C981 1.350 . S
C987 H974 0.929 . S
C987 C979 1.433 . S
C987 N989 1.384 . S
N988 C984 1.427 . S
N988 C985 1.384 . S
N989 C981 1.427 . S
N989 C987 1.384 . S
H990 C996 0.930 . S
H991 C1000 0.930 . S
H992 C1005 0.929 . S
H993 C1003 0.929 . S
H994 C998 0.929 . S
H995 C1004 0.929 . S
C996 H990 0.930 . S
C996 C997 1.367 . S
C996 C1004 1.378 . S
C997 C996 1.367 . S
C997 C1005 1.433 . S
C998 H994 0.929 . S
C998 C1000 1.378 . S
C998 C1002 1.350 . S
C999 C1002 1.463 . S
C999 C1004 1.350 . S
C999 N1007 1.427 . S
C1000 H991 0.930 . S
C1000 C998 1.378 . S
C1000 C1001 1.367 . S
C1001 C1000 1.367 . S
C1001 C1003 1.433 . S
C1002 C998 1.350 . S
C1002 C999 1.463 . S
C1002 N1006 1.427 . S
C1003 H993 0.929 . S
C1003 C1001 1.433 . S
C1003 N1006 1.384 . S
C1004 H995 0.929 . S
C1004 C996 1.378 . S
C1004 C999 1.350 . S
C1005 H992 0.929 . S
C1005 C997 1.433 . S
C1005 N1007 1.384 . S
N1006 C1002 1.427 . S
N1006 C1003 1.384 . S
N1007 C999 1.427 . S
N1007 C1005 1.384 . S
H1008 C1014 0.930 . S
H1009 C1018 0.930 . S
H1010 C1023 0.929 . S
H1011 C1021 0.929 . S
H1012 C1016 0.929 . S
H1013 C1022 0.929 . S
C1014 H1008 0.930 . S
C1014 C1015 1.367 . S
C1014 C1022 1.378 . S
C1015 C1014 1.367 . S
C1015 C1023 1.433 . S
C1016 H1012 0.929 . S
C1016 C1018 1.378 . S
C1016 C1020 1.350 . S
C1017 C1020 1.463 . S
C1017 C1022 1.350 . S
C1017 N1025 1.427 . S
C1018 H1009 0.930 . S
C1018 C1016 1.378 . S
C1018 C1019 1.367 . S
C1019 C1018 1.367 . S
C1019 C1021 1.433 . S
C1020 C1016 1.350 . S
C1020 C1017 1.463 . S
C1020 N1024 1.427 . S
C1021 H1011 0.929 . S
C1021 C1019 1.433 . S
C1021 N1024 1.384 . S
C1022 H1013 0.929 . S
C1022 C1014 1.378 . S
C1022 C1017 1.350 . S
C1023 H1010 0.929 . S
C1023 C1015 1.433 . S
C1023 N1025 1.384 . S
N1024 C1020 1.427 . S
N1024 C1021 1.384 . S
N1025 C1017 1.427 . S
N1025 C1023 1.384 . S
H1026 C1032 0.930 . S
H1027 C1036 0.930 . S
H1028 C1041 0.929 . S
H1029 C1039 0.929 . S
H1030 C1034 0.929 . S
H1031 C1040 0.929 . S
C1032 H1026 0.930 . S
C1032 C1033 1.367 . S
C1032 C1040 1.378 . S
C1033 C1032 1.367 . S
C1033 C1041 1.433 . S
C1034 H1030 0.929 . S
C1034 C1036 1.378 . S
C1034 C1038 1.350 . S
C1035 C1038 1.463 . S
C1035 C1040 1.350 . S
C1035 N1043 1.427 . S
C1036 H1027 0.930 . S
C1036 C1034 1.378 . S
C1036 C1037 1.367 . S
C1037 C1036 1.367 . S
C1037 C1039 1.433 . S
C1038 C1034 1.350 . S
C1038 C1035 1.463 . S
C1038 N1042 1.427 . S
C1039 H1029 0.929 . S
C1039 C1037 1.433 . S
C1039 N1042 1.384 . S
C1040 H1031 0.929 . S
C1040 C1032 1.378 . S
C1040 C1035 1.350 . S
C1041 H1028 0.929 . S
C1041 C1033 1.433 . S
C1041 N1043 1.384 . S
N1042 C1038 1.427 . S
N1042 C1039 1.384 . S
N1043 C1035 1.427 . S
N1043 C1041 1.384 . S
H1044 C1050 0.930 . S
H1045 C1054 0.930 . S
H1046 C1059 0.929 . S
H1047 C1057 0.929 . S
H1048 C1052 0.929 . S
H1049 C1058 0.929 . S
C1050 H1044 0.930 . S
C1050 C1051 1.367 . S
C1050 C1058 1.378 . S
C1051 C1050 1.367 . S
C1051 C1059 1.433 . S
C1052 H1048 0.929 . S
C1052 C1054 1.378 . S
C1052 C1056 1.350 . S
C1053 C1056 1.463 . S
C1053 C1058 1.350 . S
C1053 N1061 1.427 . S
C1054 H1045 0.930 . S
C1054 C1052 1.378 . S
C1054 C1055 1.367 . S
C1055 C1054 1.367 . S
C1055 C1057 1.433 . S
C1056 C1052 1.350 . S
C1056 C1053 1.463 . S
C1056 N1060 1.427 . S
C1057 H1047 0.929 . S
C1057 C1055 1.433 . S
C1057 N1060 1.384 . S
C1058 H1049 0.929 . S
C1058 C1050 1.378 . S
C1058 C1053 1.350 . S
C1059 H1046 0.929 . S
C1059 C1051 1.433 . S
C1059 N1061 1.384 . S
N1060 C1056 1.427 . S
N1060 C1057 1.384 . S
N1061 C1053 1.427 . S
N1061 C1059 1.384 . S
H1062 C1068 0.930 . S
H1063 C1072 0.930 . S
H1064 C1077 0.929 . S
H1065 C1075 0.929 . S
H1066 C1070 0.929 . S
H1067 C1076 0.929 . S
C1068 H1062 0.930 . S
C1068 C1069 1.367 . S
C1068 C1076 1.378 . S
C1069 C1068 1.367 . S
C1069 C1077 1.433 . S
C1070 H1066 0.929 . S
C1070 C1072 1.378 . S
C1070 C1074 1.350 . S
C1071 C1074 1.463 . S
C1071 C1076 1.350 . S
C1071 N1079 1.427 . S
C1072 H1063 0.930 . S
C1072 C1070 1.378 . S
C1072 C1073 1.367 . S
C1073 C1072 1.367 . S
C1073 C1075 1.433 . S
C1074 C1070 1.350 . S
C1074 C1071 1.463 . S
C1074 N1078 1.427 . S
C1075 H1065 0.929 . S
C1075 C1073 1.433 . S
C1075 N1078 1.384 . S
C1076 H1067 0.929 . S
C1076 C1068 1.378 . S
C1076 C1071 1.350 . S
C1077 H1064 0.929 . S
C1077 C1069 1.433 . S
C1077 N1079 1.384 . S
N1078 C1074 1.427 . S
N1078 C1075 1.384 . S
N1079 C1071 1.427 . S
N1079 C1077 1.384 . S
H1080 C1086 0.930 . S
H1081 C1090 0.930 . S
H1082 C1095 0.929 . S
H1083 C1093 0.929 . S
H1084 C1088 0.929 . S
H1085 C1094 0.929 . S
C1086 H1080 0.930 . S
C1086 C1087 1.367 . S
C1086 C1094 1.378 . S
C1087 C1086 1.367 . S
C1087 C1095 1.433 . S
C1088 H1084 0.929 . S
C1088 C1090 1.378 . S
C1088 C1092 1.350 . S
C1089 C1092 1.463 . S
C1089 C1094 1.350 . S
C1089 N1097 1.427 . S
C1090 H1081 0.930 . S
C1090 C1088 1.378 . S
C1090 C1091 1.367 . S
C1091 C1090 1.367 . S
C1091 C1093 1.433 . S
C1092 C1088 1.350 . S
C1092 C1089 1.463 . S
C1092 N1096 1.427 . S
C1093 H1083 0.929 . S
C1093 C1091 1.433 . S
C1093 N1096 1.384 . S
C1094 H1085 0.929 . S
C1094 C1086 1.378 . S
C1094 C1089 1.350 . S
C1095 H1082 0.929 . S
C1095 C1087 1.433 . S
C1095 N1097 1.384 . S
N1096 C1092 1.427 . S
N1096 C1093 1.384 . S
N1097 C1089 1.427 . S
N1097 C1095 1.384 . S
H1098 C1104 0.930 . S
H1099 C1108 0.930 . S
H1100 C1113 0.929 . S
H1101 C1111 0.929 . S
H1102 C1106 0.929 . S
H1103 C1112 0.929 . S
C1104 H1098 0.930 . S
C1104 C1105 1.367 . S
C1104 C1112 1.378 . S
C1105 C1104 1.367 . S
C1105 C1113 1.433 . S
C1106 H1102 0.929 . S
C1106 C1108 1.378 . S
C1106 C1110 1.350 . S
C1107 C1110 1.463 . S
C1107 C1112 1.350 . S
C1107 N1115 1.427 . S
C1108 H1099 0.930 . S
C1108 C1106 1.378 . S
C1108 C1109 1.367 . S
C1109 C1108 1.367 . S
C1109 C1111 1.433 . S
C1110 C1106 1.350 . S
C1110 C1107 1.463 . S
C1110 N1114 1.427 . S
C1111 H1101 0.929 . S
C1111 C1109 1.433 . S
C1111 N1114 1.384 . S
C1112 H1103 0.929 . S
C1112 C1104 1.378 . S
C1112 C1107 1.350 . S
C1113 H1100 0.929 . S
C1113 C1105 1.433 . S
C1113 N1115 1.384 . S
N1114 C1110 1.427 . S
N1114 C1111 1.384 . S
N1115 C1107 1.427 . S
N1115 C1113 1.384 . S
H1116 C1122 0.930 . S
H1117 C1126 0.930 . S
H1118 C1131 0.929 . S
H1119 C1129 0.929 . S
H1120 C1124 0.929 . S
H1121 C1130 0.929 . S
C1122 H1116 0.930 . S
C1122 C1123 1.367 . S
C1122 C1130 1.378 . S
C1123 C1122 1.367 . S
C1123 C1131 1.433 . S
C1124 H1120 0.929 . S
C1124 C1126 1.378 . S
C1124 C1128 1.350 . S
C1125 C1128 1.463 . S
C1125 C1130 1.350 . S
C1125 N1133 1.427 . S
C1126 H1117 0.930 . S
C1126 C1124 1.378 . S
C1126 C1127 1.367 . S
C1127 C1126 1.367 . S
C1127 C1129 1.433 . S
C1128 C1124 1.350 . S
C1128 C1125 1.463 . S
C1128 N1132 1.427 . S
C1129 H1119 0.929 . S
C1129 C1127 1.433 . S
C1129 N1132 1.384 . S
C1130 H1121 0.929 . S
C1130 C1122 1.378 . S
C1130 C1125 1.350 . S
C1131 H1118 0.929 . S
C1131 C1123 1.433 . S
C1131 N1133 1.384 . S
N1132 C1128 1.427 . S
N1132 C1129 1.384 . S
N1133 C1125 1.427 . S
N1133 C1131 1.384 . S
H1134 C1140 0.930 . S
H1135 C1144 0.930 . S
H1136 C1149 0.929 . S
H1137 C1147 0.929 . S
H1138 C1142 0.929 . S
H1139 C1148 0.929 . S
C1140 H1134 0.930 . S
C1140 C1141 1.367 . S
C1140 C1148 1.378 . S
C1141 C1140 1.367 . S
C1141 C1149 1.433 . S
C1142 H1138 0.929 . S
C1142 C1144 1.378 . S
C1142 C1146 1.350 . S
C1143 C1146 1.463 . S
C1143 C1148 1.350 . S
C1143 N1151 1.427 . S
C1144 H1135 0.930 . S
C1144 C1142 1.378 . S
C1144 C1145 1.367 . S
C1145 C1144 1.367 . S
C1145 C1147 1.433 . S
C1146 C1142 1.350 . S
C1146 C1143 1.463 . S
C1146 N1150 1.427 . S
C1147 H1137 0.929 . S
C1147 C1145 1.433 . S
C1147 N1150 1.384 . S
C1148 H1139 0.929 . S
C1148 C1140 1.378 . S
C1148 C1143 1.350 . S
C1149 H1136 0.929 . S
C1149 C1141 1.433 . S
C1149 N1151 1.384 . S
N1150 C1146 1.427 . S
N1150 C1147 1.384 . S
N1151 C1143 1.427 . S
N1151 C1149 1.384 . S
H1152 C1158 0.930 . S
H1153 C1162 0.930 . S
H1154 C1167 0.929 . S
H1155 C1165 0.929 . S
H1156 C1160 0.929 . S
H1157 C1166 0.929 . S
C1158 H1152 0.930 . S
C1158 C1159 1.367 . S
C1158 C1166 1.378 . S
C1159 C1158 1.367 . S
C1159 C1167 1.433 . S
C1160 H1156 0.929 . S
C1160 C1162 1.378 . S
C1160 C1164 1.350 . S
C1161 C1164 1.463 . S
C1161 C1166 1.350 . S
C1161 N1169 1.427 . S
C1162 H1153 0.930 . S
C1162 C1160 1.378 . S
C1162 C1163 1.367 . S
C1163 C1162 1.367 . S
C1163 C1165 1.433 . S
C1164 C1160 1.350 . S
C1164 C1161 1.463 . S
C1164 N1168 1.427 . S
C1165 H1155 0.929 . S
C1165 C1163 1.433 . S
C1165 N1168 1.384 . S
C1166 H1157 0.929 . S
C1166 C1158 1.378 . S
C1166 C1161 1.350 . S
C1167 H1154 0.929 . S
C1167 C1159 1.433 . S
C1167 N1169 1.384 . S
N1168 C1164 1.427 . S
N1168 C1165 1.384 . S
N1169 C1161 1.427 . S
N1169 C1167 1.384 . S
H1170 C1176 0.930 . S
H1171 C1180 0.930 . S
H1172 C1185 0.929 . S
H1173 C1183 0.929 . S
H1174 C1178 0.929 . S
H1175 C1184 0.929 . S
C1176 H1170 0.930 . S
C1176 C1177 1.367 . S
C1176 C1184 1.378 . S
C1177 C1176 1.367 . S
C1177 C1185 1.433 . S
C1178 H1174 0.929 . S
C1178 C1180 1.378 . S
C1178 C1182 1.350 . S
C1179 C1182 1.463 . S
C1179 C1184 1.350 . S
C1179 N1187 1.427 . S
C1180 H1171 0.930 . S
C1180 C1178 1.378 . S
C1180 C1181 1.367 . S
C1181 C1180 1.367 . S
C1181 C1183 1.433 . S
C1182 C1178 1.350 . S
C1182 C1179 1.463 . S
C1182 N1186 1.427 . S
C1183 H1173 0.929 . S
C1183 C1181 1.433 . S
C1183 N1186 1.384 . S
C1184 H1175 0.929 . S
C1184 C1176 1.378 . S
C1184 C1179 1.350 . S
C1185 H1172 0.929 . S
C1185 C1177 1.433 . S
C1185 N1187 1.384 . S
N1186 C1182 1.427 . S
N1186 C1183 1.384 . S
N1187 C1179 1.427 . S
N1187 C1185 1.384 . S
H1188 C1194 0.930 . S
H1189 C1198 0.930 . S
H1190 C1203 0.929 . S
H1191 C1201 0.929 . S
H1192 C1196 0.929 . S
H1193 C1202 0.929 . S
C1194 H1188 0.930 . S
C1194 C1195 1.367 . S
C1194 C1202 1.378 . S
C1195 C1194 1.367 . S
C1195 C1203 1.433 . S
C1196 H1192 0.929 . S
C1196 C1198 1.378 . S
C1196 C1200 1.350 . S
C1197 C1200 1.463 . S
C1197 C1202 1.350 . S
C1197 N1205 1.427 . S
C1198 H1189 0.930 . S
C1198 C1196 1.378 . S
C1198 C1199 1.367 . S
C1199 C1198 1.367 . S
C1199 C1201 1.433 . S
C1200 C1196 1.350 . S
C1200 C1197 1.463 . S
C1200 N1204 1.427 . S
C1201 H1191 0.929 . S
C1201 C1199 1.433 . S
C1201 N1204 1.384 . S
C1202 H1193 0.929 . S
C1202 C1194 1.378 . S
C1202 C1197 1.350 . S
C1203 H1190 0.929 . S
C1203 C1195 1.433 . S
C1203 N1205 1.384 . S
N1204 C1200 1.427 . S
N1204 C1201 1.384 . S
N1205 C1197 1.427 . S
N1205 C1203 1.384 . S
H1206 C1212 0.930 . S
H1207 C1216 0.930 . S
H1208 C1221 0.929 . S
H1209 C1219 0.929 . S
H1210 C1214 0.929 . S
H1211 C1220 0.929 . S
C1212 H1206 0.930 . S
C1212 C1213 1.367 . S
C1212 C1220 1.378 . S
C1213 C1212 1.367 . S
C1213 C1221 1.433 . S
C1214 H1210 0.929 . S
C1214 C1216 1.378 . S
C1214 C1218 1.350 . S
C1215 C1218 1.463 . S
C1215 C1220 1.350 . S
C1215 N1223 1.427 . S
C1216 H1207 0.930 . S
C1216 C1214 1.378 . S
C1216 C1217 1.367 . S
C1217 C1216 1.367 . S
C1217 C1219 1.433 . S
C1218 C1214 1.350 . S
C1218 C1215 1.463 . S
C1218 N1222 1.427 . S
C1219 H1209 0.929 . S
C1219 C1217 1.433 . S
C1219 N1222 1.384 . S
C1220 H1211 0.929 . S
C1220 C1212 1.378 . S
C1220 C1215 1.350 . S
C1221 H1208 0.929 . S
C1221 C1213 1.433 . S
C1221 N1223 1.384 . S
N1222 C1218 1.427 . S
N1222 C1219 1.384 . S
N1223 C1215 1.427 . S
N1223 C1221 1.384 . S
H1224 C1230 0.930 . S
H1225 C1234 0.930 . S
H1226 C1239 0.929 . S
H1227 C1237 0.929 . S
H1228 C1232 0.929 . S
H1229 C1238 0.929 . S
C1230 H1224 0.930 . S
C1230 C1231 1.367 . S
C1230 C1238 1.378 . S
C1231 C1230 1.367 . S
C1231 C1239 1.433 . S
C1232 H1228 0.929 . S
C1232 C1234 1.378 . S
C1232 C1236 1.350 . S
C1233 C1236 1.463 . S
C1233 C1238 1.350 . S
C1233 N1241 1.427 . S
C1234 H1225 0.930 . S
C1234 C1232 1.378 . S
C1234 C1235 1.367 . S
C1235 C1234 1.367 . S
C1235 C1237 1.433 . S
C1236 C1232 1.350 . S
C1236 C1233 1.463 . S
C1236 N1240 1.427 . S
C1237 H1227 0.929 . S
C1237 C1235 1.433 . S
C1237 N1240 1.384 . S
C1238 H1229 0.929 . S
C1238 C1230 1.378 . S
C1238 C1233 1.350 . S
C1239 H1226 0.929 . S
C1239 C1231 1.433 . S
C1239 N1241 1.384 . S
N1240 C1236 1.427 . S
N1240 C1237 1.384 . S
N1241 C1233 1.427 . S
N1241 C1239 1.384 . S
H1242 C1248 0.930 . S
H1243 C1252 0.930 . S
H1244 C1257 0.929 . S
H1245 C1255 0.929 . S
H1246 C1250 0.929 . S
H1247 C1256 0.929 . S
C1248 H1242 0.930 . S
C1248 C1249 1.367 . S
C1248 C1256 1.378 . S
C1249 C1248 1.367 . S
C1249 C1257 1.433 . S
C1250 H1246 0.929 . S
C1250 C1252 1.378 . S
C1250 C1254 1.350 . S
C1251 C1254 1.463 . S
C1251 C1256 1.350 . S
C1251 N1259 1.427 . S
C1252 H1243 0.930 . S
C1252 C1250 1.378 . S
C1252 C1253 1.367 . S
C1253 C1252 1.367 . S
C1253 C1255 1.433 . S
C1254 C1250 1.350 . S
C1254 C1251 1.463 . S
C1254 N1258 1.427 . S
C1255 H1245 0.929 . S
C1255 C1253 1.433 . S
C1255 N1258 1.384 . S
C1256 H1247 0.929 . S
C1256 C1248 1.378 . S
C1256 C1251 1.350 . S
C1257 H1244 0.929 . S
C1257 C1249 1.433 . S
C1257 N1259 1.384 . S
N1258 C1254 1.427 . S
N1258 C1255 1.384 . S
N1259 C1251 1.427 . S
N1259 C1257 1.384 . S
H1260 C1266 0.930 . S
H1261 C1270 0.930 . S
H1262 C1275 0.929 . S
H1263 C1273 0.929 . S
H1264 C1268 0.929 . S
H1265 C1274 0.929 . S
C1266 H1260 0.930 . S
C1266 C1267 1.367 . S
C1266 C1274 1.378 . S
C1267 C1266 1.367 . S
C1267 C1275 1.433 . S
C1268 H1264 0.929 . S
C1268 C1270 1.378 . S
C1268 C1272 1.350 . S
C1269 C1272 1.463 . S
C1269 C1274 1.350 . S
C1269 N1277 1.427 . S
C1270 H1261 0.930 . S
C1270 C1268 1.378 . S
C1270 C1271 1.367 . S
C1271 C1270 1.367 . S
C1271 C1273 1.433 . S
C1272 C1268 1.350 . S
C1272 C1269 1.463 . S
C1272 N1276 1.427 . S
C1273 H1263 0.929 . S
C1273 C1271 1.433 . S
C1273 N1276 1.384 . S
C1274 H1265 0.929 . S
C1274 C1266 1.378 . S
C1274 C1269 1.350 . S
C1275 H1262 0.929 . S
C1275 C1267 1.433 . S
C1275 N1277 1.384 . S
N1276 C1272 1.427 . S
N1276 C1273 1.384 . S
N1277 C1269 1.427 . S
N1277 C1275 1.384 . S
H1278 C1284 0.930 1_554 S
H1279 C1288 0.930 . S
H1280 C1293 0.929 . S
H1281 C1291 0.929 . S
H1282 C1286 0.929 . S
H1283 C1292 0.929 . S
C1284 H1278 0.930 1_556 S
C1284 C1285 1.367 . S
C1284 C1292 1.378 . S
C1285 C1284 1.367 . S
C1285 C1293 1.433 . S
C1286 H1282 0.929 . S
C1286 C1288 1.378 . S
C1286 C1290 1.350 . S
C1287 C1290 1.463 . S
C1287 C1292 1.350 . S
C1287 N1295 1.427 . S
C1288 H1279 0.930 . S
C1288 C1286 1.378 . S
C1288 C1289 1.367 . S
C1289 C1288 1.367 . S
C1289 C1291 1.433 . S
C1290 C1286 1.350 . S
C1290 C1287 1.463 . S
C1290 N1294 1.427 . S
C1291 H1281 0.929 . S
C1291 C1289 1.433 . S
C1291 N1294 1.384 . S
C1292 H1283 0.929 . S
C1292 C1284 1.378 . S
C1292 C1287 1.350 . S
C1293 H1280 0.929 . S
C1293 C1285 1.433 . S
C1293 N1295 1.384 . S
N1294 C1290 1.427 . S
N1294 C1291 1.384 . S
N1295 C1287 1.427 . S
N1295 C1293 1.384 . S
H1296 C1302 0.930 . S
H1297 C1306 0.930 . S
H1298 C1311 0.929 . S
H1299 C1309 0.929 . S
H1300 C1304 0.929 . S
H1301 C1310 0.929 . S
C1302 H1296 0.930 . S
C1302 C1303 1.367 . S
C1302 C1310 1.378 . S
C1303 C1302 1.367 . S
C1303 C1311 1.433 . S
C1304 H1300 0.929 . S
C1304 C1306 1.378 . S
C1304 C1308 1.350 . S
C1305 C1308 1.463 . S
C1305 C1310 1.350 . S
C1305 N1313 1.427 . S
C1306 H1297 0.930 . S
C1306 C1304 1.378 . S
C1306 C1307 1.367 . S
C1307 C1306 1.367 . S
C1307 C1309 1.433 . S
C1308 C1304 1.350 . S
C1308 C1305 1.463 . S
C1308 N1312 1.427 . S
C1309 H1299 0.929 . S
C1309 C1307 1.433 . S
C1309 N1312 1.384 . S
C1310 H1301 0.929 . S
C1310 C1302 1.378 . S
C1310 C1305 1.350 . S
C1311 H1298 0.929 . S
C1311 C1303 1.433 . S
C1311 N1313 1.384 . S
N1312 C1308 1.427 . S
N1312 C1309 1.384 . S
N1313 C1305 1.427 . S
N1313 C1311 1.384 . S
H1314 C1320 0.930 . S
H1315 C1324 0.930 . S
H1316 C1329 0.929 1_554 S
H1317 C1327 0.929 . S
H1318 C1322 0.929 . S
H1319 C1328 0.929 . S
C1320 H1314 0.930 . S
C1320 C1321 1.367 . S
C1320 C1328 1.378 . S
C1321 C1320 1.367 . S
C1321 C1329 1.433 . S
C1322 H1318 0.929 . S
C1322 C1324 1.378 . S
C1322 C1326 1.350 . S
C1323 C1326 1.463 . S
C1323 C1328 1.350 . S
C1323 N1331 1.427 . S
C1324 H1315 0.930 . S
C1324 C1322 1.378 . S
C1324 C1325 1.367 . S
C1325 C1324 1.367 . S
C1325 C1327 1.433 . S
C1326 C1322 1.350 . S
C1326 C1323 1.463 . S
C1326 N1330 1.427 . S
C1327 H1317 0.929 . S
C1327 C1325 1.433 . S
C1327 N1330 1.384 . S
C1328 H1319 0.929 . S
C1328 C1320 1.378 . S
C1328 C1323 1.350 . S
C1329 H1316 0.929 1_556 S
C1329 C1321 1.433 . S
C1329 N1331 1.384 . S
N1330 C1326 1.427 . S
N1330 C1327 1.384 . S
N1331 C1323 1.427 . S
N1331 C1329 1.384 . S
H1332 C1338 0.930 . S
H1333 C1342 0.930 . S
H1334 C1347 0.929 . S
H1335 C1345 0.929 . S
H1336 C1340 0.929 . S
H1337 C1346 0.929 . S
C1338 H1332 0.930 . S
C1338 C1339 1.367 . S
C1338 C1346 1.378 . S
C1339 C1338 1.367 . S
C1339 C1347 1.433 . S
C1340 H1336 0.929 . S
C1340 C1342 1.378 . S
C1340 C1344 1.350 . S
C1341 C1344 1.463 . S
C1341 C1346 1.350 . S
C1341 N1349 1.427 . S
C1342 H1333 0.930 . S
C1342 C1340 1.378 . S
C1342 C1343 1.367 . S
C1343 C1342 1.367 . S
C1343 C1345 1.433 . S
C1344 C1340 1.350 . S
C1344 C1341 1.463 . S
C1344 N1348 1.427 . S
C1345 H1335 0.929 . S
C1345 C1343 1.433 . S
C1345 N1348 1.384 . S
C1346 H1337 0.929 . S
C1346 C1338 1.378 . S
C1346 C1341 1.350 . S
C1347 H1334 0.929 . S
C1347 C1339 1.433 . S
C1347 N1349 1.384 . S
N1348 C1344 1.427 . S
N1348 C1345 1.384 . S
N1349 C1341 1.427 . S
N1349 C1347 1.384 . S
H1350 C1356 0.930 . S
H1351 C1360 0.930 . S
H1352 C1365 0.929 . S
H1353 C1363 0.929 . S
H1354 C1358 0.929 . S
H1355 C1364 0.929 . S
C1356 H1350 0.930 . S
C1356 C1357 1.367 . S
C1356 C1364 1.378 . S
C1357 C1356 1.367 . S
C1357 C1365 1.433 . S
C1358 H1354 0.929 . S
C1358 C1360 1.378 . S
C1358 C1362 1.350 . S
C1359 C1362 1.463 . S
C1359 C1364 1.350 . S
C1359 N1367 1.427 . S
C1360 H1351 0.930 . S
C1360 C1358 1.378 . S
C1360 C1361 1.367 . S
C1361 C1360 1.367 . S
C1361 C1363 1.433 . S
C1362 C1358 1.350 . S
C1362 C1359 1.463 . S
C1362 N1366 1.427 . S
C1363 H1353 0.929 . S
C1363 C1361 1.433 . S
C1363 N1366 1.384 . S
C1364 H1355 0.929 . S
C1364 C1356 1.378 . S
C1364 C1359 1.350 . S
C1365 H1352 0.929 . S
C1365 C1357 1.433 . S
C1365 N1367 1.384 . S
N1366 C1362 1.427 . S
N1366 C1363 1.384 . S
N1367 C1359 1.427 . S
N1367 C1365 1.384 . S
H1368 C1374 0.930 1_554 S
H1369 C1378 0.930 . S
H1370 C1383 0.929 . S
H1371 C1381 0.929 . S
H1372 C1376 0.929 . S
H1373 C1382 0.929 . S
C1374 H1368 0.930 1_556 S
C1374 C1375 1.367 . S
C1374 C1382 1.378 . S
C1375 C1374 1.367 . S
C1375 C1383 1.433 . S
C1376 H1372 0.929 . S
C1376 C1378 1.378 . S
C1376 C1380 1.350 . S
C1377 C1380 1.463 . S
C1377 C1382 1.350 . S
C1377 N1385 1.427 . S
C1378 H1369 0.930 . S
C1378 C1376 1.378 . S
C1378 C1379 1.367 . S
C1379 C1378 1.367 . S
C1379 C1381 1.433 . S
C1380 C1376 1.350 . S
C1380 C1377 1.463 . S
C1380 N1384 1.427 . S
C1381 H1371 0.929 . S
C1381 C1379 1.433 . S
C1381 N1384 1.384 . S
C1382 H1373 0.929 . S
C1382 C1374 1.378 . S
C1382 C1377 1.350 . S
C1383 H1370 0.929 . S
C1383 C1375 1.433 . S
C1383 N1385 1.384 . S
N1384 C1380 1.427 . S
N1384 C1381 1.384 . S
N1385 C1377 1.427 . S
N1385 C1383 1.384 . S
H1386 C1392 0.930 . S
H1387 C1396 0.930 . S
H1388 C1401 0.929 . S
H1389 C1399 0.929 . S
H1390 C1394 0.929 . S
H1391 C1400 0.929 . S
C1392 H1386 0.930 . S
C1392 C1393 1.367 . S
C1392 C1400 1.378 . S
C1393 C1392 1.367 . S
C1393 C1401 1.433 . S
C1394 H1390 0.929 . S
C1394 C1396 1.378 . S
C1394 C1398 1.350 . S
C1395 C1398 1.463 . S
C1395 C1400 1.350 . S
C1395 N1403 1.427 . S
C1396 H1387 0.930 . S
C1396 C1394 1.378 . S
C1396 C1397 1.367 . S
C1397 C1396 1.367 . S
C1397 C1399 1.433 . S
C1398 C1394 1.350 . S
C1398 C1395 1.463 . S
C1398 N1402 1.427 . S
C1399 H1389 0.929 . S
C1399 C1397 1.433 . S
C1399 N1402 1.384 . S
C1400 H1391 0.929 . S
C1400 C1392 1.378 . S
C1400 C1395 1.350 . S
C1401 H1388 0.929 . S
C1401 C1393 1.433 . S
C1401 N1403 1.384 . S
N1402 C1398 1.427 . S
N1402 C1399 1.384 . S
N1403 C1395 1.427 . S
N1403 C1401 1.384 . S
H1404 C1410 0.930 . S
H1405 C1414 0.930 . S
H1406 C1419 0.929 . S
H1407 C1417 0.929 . S
H1408 C1412 0.929 . S
H1409 C1418 0.929 . S
C1410 H1404 0.930 . S
C1410 C1411 1.367 . S
C1410 C1418 1.378 . S
C1411 C1410 1.367 . S
C1411 C1419 1.433 . S
C1412 H1408 0.929 . S
C1412 C1414 1.378 . S
C1412 C1416 1.350 . S
C1413 C1416 1.463 . S
C1413 C1418 1.350 . S
C1413 N1421 1.427 . S
C1414 H1405 0.930 . S
C1414 C1412 1.378 . S
C1414 C1415 1.367 . S
C1415 C1414 1.367 . S
C1415 C1417 1.433 . S
C1416 C1412 1.350 . S
C1416 C1413 1.463 . S
C1416 N1420 1.427 . S
C1417 H1407 0.929 . S
C1417 C1415 1.433 . S
C1417 N1420 1.384 . S
C1418 H1409 0.929 . S
C1418 C1410 1.378 . S
C1418 C1413 1.350 . S
C1419 H1406 0.929 . S
C1419 C1411 1.433 . S
C1419 N1421 1.384 . S
N1420 C1416 1.427 . S
N1420 C1417 1.384 . S
N1421 C1413 1.427 . S
N1421 C1419 1.384 . S
H1422 C1428 0.930 . S
H1423 C1432 0.930 . S
H1424 C1437 0.929 . S
H1425 C1435 0.929 . S
H1426 C1430 0.929 . S
H1427 C1436 0.929 . S
C1428 H1422 0.930 . S
C1428 C1429 1.367 . S
C1428 C1436 1.378 . S
C1429 C1428 1.367 . S
C1429 C1437 1.433 . S
C1430 H1426 0.929 . S
C1430 C1432 1.378 . S
C1430 C1434 1.350 . S
C1431 C1434 1.463 . S
C1431 C1436 1.350 . S
C1431 N1439 1.427 . S
C1432 H1423 0.930 . S
C1432 C1430 1.378 . S
C1432 C1433 1.367 . S
C1433 C1432 1.367 . S
C1433 C1435 1.433 . S
C1434 C1430 1.350 . S
C1434 C1431 1.463 . S
C1434 N1438 1.427 . S
C1435 H1425 0.929 . S
C1435 C1433 1.433 . S
C1435 N1438 1.384 . S
C1436 H1427 0.929 . S
C1436 C1428 1.378 . S
C1436 C1431 1.350 . S
C1437 H1424 0.929 . S
C1437 C1429 1.433 . S
C1437 N1439 1.384 . S
N1438 C1434 1.427 . S
N1438 C1435 1.384 . S
N1439 C1431 1.427 . S
N1439 C1437 1.384 . S
H1440 C1446 0.930 . S
H1441 C1450 0.930 . S
H1442 C1455 0.929 . S
H1443 C1453 0.929 . S
H1444 C1448 0.929 . S
H1445 C1454 0.929 . S
C1446 H1440 0.930 . S
C1446 C1447 1.367 . S
C1446 C1454 1.378 . S
C1447 C1446 1.367 . S
C1447 C1455 1.433 . S
C1448 H1444 0.929 . S
C1448 C1450 1.378 . S
C1448 C1452 1.350 . S
C1449 C1452 1.463 . S
C1449 C1454 1.350 . S
C1449 N1457 1.427 . S
C1450 H1441 0.930 . S
C1450 C1448 1.378 . S
C1450 C1451 1.367 . S
C1451 C1450 1.367 . S
C1451 C1453 1.433 . S
C1452 C1448 1.350 . S
C1452 C1449 1.463 . S
C1452 N1456 1.427 . S
C1453 H1443 0.929 . S
C1453 C1451 1.433 . S
C1453 N1456 1.384 . S
C1454 H1445 0.929 . S
C1454 C1446 1.378 . S
C1454 C1449 1.350 . S
C1455 H1442 0.929 . S
C1455 C1447 1.433 . S
C1455 N1457 1.384 . S
N1456 C1452 1.427 . S
N1456 C1453 1.384 . S
N1457 C1449 1.427 . S
N1457 C1455 1.384 . S
H1458 C1464 0.930 . S
H1459 C1468 0.930 . S
H1460 C1473 0.929 . S
H1461 C1471 0.929 . S
H1462 C1466 0.929 . S
H1463 C1472 0.929 . S
C1464 H1458 0.930 . S
C1464 C1465 1.367 . S
C1464 C1472 1.378 . S
C1465 C1464 1.367 . S
C1465 C1473 1.433 . S
C1466 H1462 0.929 . S
C1466 C1468 1.378 . S
C1466 C1470 1.350 . S
C1467 C1470 1.463 . S
C1467 C1472 1.350 . S
C1467 N1475 1.427 . S
C1468 H1459 0.930 . S
C1468 C1466 1.378 . S
C1468 C1469 1.367 . S
C1469 C1468 1.367 . S
C1469 C1471 1.433 . S
C1470 C1466 1.350 . S
C1470 C1467 1.463 . S
C1470 N1474 1.427 . S
C1471 H1461 0.929 . S
C1471 C1469 1.433 . S
C1471 N1474 1.384 . S
C1472 H1463 0.929 . S
C1472 C1464 1.378 . S
C1472 C1467 1.350 . S
C1473 H1460 0.929 . S
C1473 C1465 1.433 . S
C1473 N1475 1.384 . S
N1474 C1470 1.427 . S
N1474 C1471 1.384 . S
N1475 C1467 1.427 . S
N1475 C1473 1.384 . S
H1476 C1482 0.930 . S
H1477 C1486 0.930 . S
H1478 C1491 0.929 . S
H1479 C1489 0.929 . S
H1480 C1484 0.929 . S
H1481 C1490 0.929 . S
C1482 H1476 0.930 . S
C1482 C1483 1.367 . S
C1482 C1490 1.378 . S
C1483 C1482 1.367 . S
C1483 C1491 1.433 . S
C1484 H1480 0.929 . S
C1484 C1486 1.378 . S
C1484 C1488 1.350 . S
C1485 C1488 1.463 . S
C1485 C1490 1.350 . S
C1485 N1493 1.427 . S
C1486 H1477 0.930 . S
C1486 C1484 1.378 . S
C1486 C1487 1.367 . S
C1487 C1486 1.367 . S
C1487 C1489 1.433 . S
C1488 C1484 1.350 . S
C1488 C1485 1.463 . S
C1488 N1492 1.427 . S
C1489 H1479 0.929 . S
C1489 C1487 1.433 . S
C1489 N1492 1.384 . S
C1490 H1481 0.929 . S
C1490 C1482 1.378 . S
C1490 C1485 1.350 . S
C1491 H1478 0.929 . S
C1491 C1483 1.433 . S
C1491 N1493 1.384 . S
N1492 C1488 1.427 . S
N1492 C1489 1.384 . S
N1493 C1485 1.427 . S
N1493 C1491 1.384 . S
H1494 C1500 0.945 . S
H1495 C1504 0.930 . S
H1496 C1509 0.929 . S
H1497 C1507 0.943 . S
H1498 C1502 0.929 . S
H1499 C1508 0.929 1_655 S
C1500 H1494 0.945 . S
C1500 C1501 1.367 . S
C1500 C1508 1.378 . S
C1501 C1500 1.367 . S
C1501 C1509 1.433 . S
C1502 H1498 0.929 . S
C1502 C1504 1.378 . S
C1502 C1506 1.350 . S
C1503 C1506 1.463 . S
C1503 C1508 1.350 . S
C1503 N1511 1.427 . S
C1504 H1495 0.930 . S
C1504 C1502 1.378 . S
C1504 C1505 1.367 . S
C1505 C1504 1.367 . S
C1505 C1507 1.429 1_455 S
C1506 C1502 1.350 . S
C1506 C1503 1.463 . S
C1506 N1510 1.427 . S
C1507 H1497 0.943 . S
C1507 C1505 1.429 1_655 S
C1507 N1510 1.374 1_655 S
C1508 H1499 0.929 1_455 S
C1508 C1500 1.378 . S
C1508 C1503 1.350 . S
C1509 H1496 0.929 . S
C1509 C1501 1.433 . S
C1509 N1511 1.384 . S
N1510 C1506 1.427 . S
N1510 C1507 1.374 1_455 S
N1511 C1503 1.427 . S
N1511 C1509 1.384 . S
H1512 C1518 0.930 . S
H1513 C1522 0.930 . S
H1514 C1527 0.929 . S
H1515 C1525 0.929 . S
H1516 C1520 0.929 . S
H1517 C1526 0.929 . S
C1518 H1512 0.930 . S
C1518 C1519 1.367 . S
C1518 C1526 1.378 . S
C1519 C1518 1.367 . S
C1519 C1527 1.433 . S
C1520 H1516 0.929 . S
C1520 C1522 1.378 . S
C1520 C1524 1.350 . S
C1521 C1524 1.463 . S
C1521 C1526 1.350 . S
C1521 N1529 1.427 . S
C1522 H1513 0.930 . S
C1522 C1520 1.378 . S
C1522 C1523 1.367 . S
C1523 C1522 1.367 . S
C1523 C1525 1.433 . S
C1524 C1520 1.350 . S
C1524 C1521 1.463 . S
C1524 N1528 1.427 . S
C1525 H1515 0.929 . S
C1525 C1523 1.433 . S
C1525 N1528 1.384 . S
C1526 H1517 0.929 . S
C1526 C1518 1.378 . S
C1526 C1521 1.350 . S
C1527 H1514 0.929 . S
C1527 C1519 1.433 . S
C1527 N1529 1.384 . S
N1528 C1524 1.427 . S
N1528 C1525 1.384 . S
N1529 C1521 1.427 . S
N1529 C1527 1.384 . S
H1530 C1536 0.930 . S
H1531 C1540 0.930 . S
H1532 C1545 0.929 . S
H1533 C1543 0.929 . S
H1534 C1538 0.929 . S
H1535 C1544 0.929 . S
C1536 H1530 0.930 . S
C1536 C1537 1.367 . S
C1536 C1544 1.378 . S
C1537 C1536 1.367 . S
C1537 C1545 1.433 . S
C1538 H1534 0.929 . S
C1538 C1540 1.378 . S
C1538 C1542 1.350 . S
C1539 C1542 1.463 . S
C1539 C1544 1.350 . S
C1539 N1547 1.427 . S
C1540 H1531 0.930 . S
C1540 C1538 1.378 . S
C1540 C1541 1.367 . S
C1541 C1540 1.367 . S
C1541 C1543 1.433 . S
C1542 C1538 1.350 . S
C1542 C1539 1.463 . S
C1542 N1546 1.427 . S
C1543 H1533 0.929 . S
C1543 C1541 1.433 . S
C1543 N1546 1.384 . S
C1544 H1535 0.929 . S
C1544 C1536 1.378 . S
C1544 C1539 1.350 . S
C1545 H1532 0.929 . S
C1545 C1537 1.433 . S
C1545 N1547 1.384 . S
N1546 C1542 1.427 . S
N1546 C1543 1.384 . S
N1547 C1539 1.427 . S
N1547 C1545 1.384 . S
H1548 C1554 0.930 . S
H1549 C1558 0.930 . S
H1550 C1563 0.929 . S
H1551 C1561 0.929 . S
H1552 C1556 0.935 . S
H1553 C1562 0.929 . S
C1554 H1548 0.930 . S
C1554 C1555 1.367 . S
C1554 C1562 1.378 . S
C1555 C1554 1.367 . S
C1555 C1563 1.433 . S
C1556 H1552 0.935 . S
C1556 C1558 1.413 . S
C1556 C1560 1.312 1_545 S
C1557 C1560 1.463 . S
C1557 C1562 1.350 . S
C1557 N1565 1.427 . S
C1558 H1549 0.930 . S
C1558 C1556 1.413 . S
C1558 C1559 1.364 1_545 S
C1559 C1558 1.364 1_565 S
C1559 C1561 1.456 . S
C1560 C1556 1.312 1_565 S
C1560 C1557 1.463 . S
C1560 N1564 1.427 . S
C1561 H1551 0.929 . S
C1561 C1559 1.456 . S
C1561 N1564 1.384 . S
C1562 H1553 0.929 . S
C1562 C1554 1.378 . S
C1562 C1557 1.350 . S
C1563 H1550 0.929 . S
C1563 C1555 1.433 . S
C1563 N1565 1.384 . S
N1564 C1560 1.427 . S
N1564 C1561 1.384 . S
N1565 C1557 1.427 . S
N1565 C1563 1.384 . S
H1566 C1572 0.930 . S
H1567 C1576 0.930 . S
H1568 C1581 0.929 . S
H1569 C1579 0.929 . S
H1570 C1574 0.929 . S
H1571 C1580 0.929 . S
C1572 H1566 0.930 . S
C1572 C1573 1.367 1_655 S
C1572 C1580 1.378 . S
C1573 C1572 1.367 1_455 S
C1573 C1581 1.433 . S
C1574 H1570 0.929 . S
C1574 C1576 1.378 . S
C1574 C1578 1.350 . S
C1575 C1578 1.463 . S
C1575 C1580 1.350 1_455 S
C1575 N1583 1.427 . S
C1576 H1567 0.930 . S
C1576 C1574 1.378 . S
C1576 C1577 1.391 . S
C1577 C1576 1.391 . S
C1577 C1579 1.393 1_455 S
C1578 C1574 1.350 . S
C1578 C1575 1.463 . S
C1578 N1582 1.427 1_455 S
C1579 H1569 0.929 . S
C1579 C1577 1.393 1_655 S
C1579 N1582 1.384 . S
C1580 H1571 0.929 . S
C1580 C1572 1.378 . S
C1580 C1575 1.350 1_655 S
C1581 H1568 0.929 . S
C1581 C1573 1.433 . S
C1581 N1583 1.384 . S
N1582 C1578 1.427 1_655 S
N1582 C1579 1.384 . S
N1583 C1575 1.427 . S
N1583 C1581 1.384 . S
H1584 C1590 0.930 . S
H1585 C1594 0.930 . S
H1586 C1599 0.929 . S
H1587 C1597 0.929 . S
H1588 C1592 0.929 . S
H1589 C1598 0.929 . S
C1590 H1584 0.930 . S
C1590 C1591 1.367 . S
C1590 C1598 1.378 . S
C1591 C1590 1.367 . S
C1591 C1599 1.433 . S
C1592 H1588 0.929 . S
C1592 C1594 1.378 . S
C1592 C1596 1.350 . S
C1593 C1596 1.463 . S
C1593 C1598 1.350 . S
C1593 N1601 1.427 . S
C1594 H1585 0.930 . S
C1594 C1592 1.378 . S
C1594 C1595 1.367 . S
C1595 C1594 1.367 . S
C1595 C1597 1.433 . S
C1596 C1592 1.350 . S
C1596 C1593 1.463 . S
C1596 N1600 1.427 . S
C1597 H1587 0.929 . S
C1597 C1595 1.433 . S
C1597 N1600 1.384 . S
C1598 H1589 0.929 . S
C1598 C1590 1.378 . S
C1598 C1593 1.350 . S
C1599 H1586 0.929 . S
C1599 C1591 1.433 . S
C1599 N1601 1.384 . S
N1600 C1596 1.427 . S
N1600 C1597 1.384 . S
N1601 C1593 1.427 . S
N1601 C1599 1.384 . S
H1602 C1608 0.930 . S
H1603 C1612 0.930 . S
H1604 C1617 0.929 . S
H1605 C1615 0.929 . S
H1606 C1610 0.929 . S
H1607 C1616 0.929 . S
C1608 H1602 0.930 . S
C1608 C1609 1.367 . S
C1608 C1616 1.378 . S
C1609 C1608 1.367 . S
C1609 C1617 1.433 . S
C1610 H1606 0.929 . S
C1610 C1612 1.378 . S
C1610 C1614 1.350 . S
C1611 C1614 1.463 . S
C1611 C1616 1.350 . S
C1611 N1619 1.427 . S
C1612 H1603 0.930 . S
C1612 C1610 1.378 . S
C1612 C1613 1.367 . S
C1613 C1612 1.367 . S
C1613 C1615 1.433 . S
C1614 C1610 1.350 . S
C1614 C1611 1.463 . S
C1614 N1618 1.427 . S
C1615 H1605 0.929 . S
C1615 C1613 1.433 . S
C1615 N1618 1.384 . S
C1616 H1607 0.929 . S
C1616 C1608 1.378 . S
C1616 C1611 1.350 . S
C1617 H1604 0.929 . S
C1617 C1609 1.433 . S
C1617 N1619 1.384 . S
N1618 C1614 1.427 . S
N1618 C1615 1.384 . S
N1619 C1611 1.427 . S
N1619 C1617 1.384 . S
H1620 C1626 0.930 . S
H1621 C1630 0.930 . S
H1622 C1635 0.929 . S
H1623 C1633 0.929 . S
H1624 C1628 0.929 . S
H1625 C1634 0.929 . S
C1626 H1620 0.930 . S
C1626 C1627 1.367 . S
C1626 C1634 1.378 . S
C1627 C1626 1.367 . S
C1627 C1635 1.433 . S
C1628 H1624 0.929 . S
C1628 C1630 1.378 . S
C1628 C1632 1.350 . S
C1629 C1632 1.463 . S
C1629 C1634 1.350 . S
C1629 N1637 1.427 . S
C1630 H1621 0.930 . S
C1630 C1628 1.378 . S
C1630 C1631 1.367 . S
C1631 C1630 1.367 . S
C1631 C1633 1.433 . S
C1632 C1628 1.350 . S
C1632 C1629 1.463 . S
C1632 N1636 1.427 . S
C1633 H1623 0.929 . S
C1633 C1631 1.433 . S
C1633 N1636 1.384 . S
C1634 H1625 0.929 . S
C1634 C1626 1.378 . S
C1634 C1629 1.350 . S
C1635 H1622 0.929 . S
C1635 C1627 1.433 . S
C1635 N1637 1.384 . S
N1636 C1632 1.427 . S
N1636 C1633 1.384 . S
N1637 C1629 1.427 . S
N1637 C1635 1.384 . S
H1638 C1644 0.930 . S
H1639 C1648 0.930 . S
H1640 C1653 0.929 . S
H1641 C1651 0.929 . S
H1642 C1646 0.929 . S
H1643 C1652 0.929 . S
C1644 H1638 0.930 . S
C1644 C1645 1.367 . S
C1644 C1652 1.378 . S
C1645 C1644 1.367 . S
C1645 C1653 1.433 . S
C1646 H1642 0.929 . S
C1646 C1648 1.378 . S
C1646 C1650 1.350 . S
C1647 C1650 1.463 . S
C1647 C1652 1.350 . S
C1647 N1655 1.427 . S
C1648 H1639 0.930 . S
C1648 C1646 1.378 . S
C1648 C1649 1.367 . S
C1649 C1648 1.367 . S
C1649 C1651 1.433 . S
C1650 C1646 1.350 . S
C1650 C1647 1.463 . S
C1650 N1654 1.427 . S
C1651 H1641 0.929 . S
C1651 C1649 1.433 . S
C1651 N1654 1.384 . S
C1652 H1643 0.929 . S
C1652 C1644 1.378 . S
C1652 C1647 1.350 . S
C1653 H1640 0.929 . S
C1653 C1645 1.433 . S
C1653 N1655 1.384 . S
N1654 C1650 1.427 . S
N1654 C1651 1.384 . S
N1655 C1647 1.427 . S
N1655 C1653 1.384 . S
H1656 C1662 0.930 . S
H1657 C1666 0.930 1_565 S
H1658 C1671 0.929 . S
H1659 C1669 0.929 . S
H1660 C1664 0.926 1_565 S
H1661 C1670 0.929 . S
C1662 H1656 0.930 . S
C1662 C1663 1.367 . S
C1662 C1670 1.378 . S
C1663 C1662 1.367 . S
C1663 C1671 1.433 . S
C1664 H1660 0.926 1_545 S
C1664 C1666 1.378 . S
C1664 C1668 1.350 . S
C1665 C1668 1.463 . S
C1665 C1670 1.350 . S
C1665 N1673 1.427 . S
C1666 H1657 0.930 1_545 S
C1666 C1664 1.378 . S
C1666 C1667 1.367 . S
C1667 C1666 1.367 . S
C1667 C1669 1.433 . S
C1668 C1664 1.350 . S
C1668 C1665 1.463 . S
C1668 N1672 1.427 . S
C1669 H1659 0.929 . S
C1669 C1667 1.433 . S
C1669 N1672 1.384 . S
C1670 H1661 0.929 . S
C1670 C1662 1.378 . S
C1670 C1665 1.350 . S
C1671 H1658 0.929 . S
C1671 C1663 1.433 . S
C1671 N1673 1.384 . S
N1672 C1668 1.427 . S
N1672 C1669 1.384 . S
N1673 C1665 1.427 . S
N1673 C1671 1.384 . S
H1674 C1680 0.931 1_455 S
H1675 C1684 0.930 . S
H1676 C1689 0.929 . S
H1677 C1687 0.929 . S
H1678 C1682 0.929 . S
H1679 C1688 0.927 . S
C1680 H1674 0.931 1_655 S
C1680 C1681 1.367 . S
C1680 C1688 1.384 1_655 S
C1681 C1680 1.367 . S
C1681 C1689 1.433 . S
C1682 H1678 0.929 . S
C1682 C1684 1.378 . S
C1682 C1686 1.350 . S
C1683 C1686 1.463 . S
C1683 C1688 1.345 1_655 S
C1683 N1691 1.427 . S
C1684 H1675 0.930 . S
C1684 C1682 1.378 . S
C1684 C1685 1.367 . S
C1685 C1684 1.367 . S
C1685 C1687 1.433 1_655 S
C1686 C1682 1.350 . S
C1686 C1683 1.463 . S
C1686 N1690 1.427 1_655 S
C1687 H1677 0.929 . S
C1687 C1685 1.433 1_455 S
C1687 N1690 1.384 . S
C1688 H1679 0.927 . S
C1688 C1680 1.384 1_455 S
C1688 C1683 1.345 1_455 S
C1689 H1676 0.929 . S
C1689 C1681 1.433 . S
C1689 N1691 1.384 . S
N1690 C1686 1.427 1_455 S
N1690 C1687 1.384 . S
N1691 C1683 1.427 . S
N1691 C1689 1.384 . S
H1692 C1698 0.930 . S
H1693 C1702 0.930 . S
H1694 C1707 0.929 . S
H1695 C1705 0.929 . S
H1696 C1700 0.929 . S
H1697 C1706 0.929 . S
C1698 H1692 0.930 . S
C1698 C1699 1.367 . S
C1698 C1706 1.378 . S
C1699 C1698 1.367 . S
C1699 C1707 1.433 . S
C1700 H1696 0.929 . S
C1700 C1702 1.378 . S
C1700 C1704 1.350 . S
C1701 C1704 1.463 . S
C1701 C1706 1.350 . S
C1701 N1709 1.427 . S
C1702 H1693 0.930 . S
C1702 C1700 1.378 . S
C1702 C1703 1.367 . S
C1703 C1702 1.367 . S
C1703 C1705 1.433 . S
C1704 C1700 1.350 . S
C1704 C1701 1.463 . S
C1704 N1708 1.427 . S
C1705 H1695 0.929 . S
C1705 C1703 1.433 . S
C1705 N1708 1.384 . S
C1706 H1697 0.929 . S
C1706 C1698 1.378 . S
C1706 C1701 1.350 . S
C1707 H1694 0.929 . S
C1707 C1699 1.433 . S
C1707 N1709 1.384 . S
N1708 C1704 1.427 . S
N1708 C1705 1.384 . S
N1709 C1701 1.427 . S
N1709 C1707 1.384 . S
H1710 C1716 0.930 . S
H1711 C1720 0.930 . S
H1712 C1725 0.929 . S
H1713 C1723 0.929 . S
H1714 C1718 0.929 . S
H1715 C1724 0.929 . S
C1716 H1710 0.930 . S
C1716 C1717 1.367 . S
C1716 C1724 1.378 . S
C1717 C1716 1.367 . S
C1717 C1725 1.433 . S
C1718 H1714 0.929 . S
C1718 C1720 1.378 . S
C1718 C1722 1.350 . S
C1719 C1722 1.463 . S
C1719 C1724 1.350 . S
C1719 N1727 1.427 . S
C1720 H1711 0.930 . S
C1720 C1718 1.378 . S
C1720 C1721 1.367 . S
C1721 C1720 1.367 . S
C1721 C1723 1.433 . S
C1722 C1718 1.350 . S
C1722 C1719 1.463 . S
C1722 N1726 1.427 . S
C1723 H1713 0.929 . S
C1723 C1721 1.433 . S
C1723 N1726 1.384 . S
C1724 H1715 0.929 . S
C1724 C1716 1.378 . S
C1724 C1719 1.350 . S
C1725 H1712 0.929 . S
C1725 C1717 1.433 . S
C1725 N1727 1.384 . S
N1726 C1722 1.427 . S
N1726 C1723 1.384 . S
N1727 C1719 1.427 . S
N1727 C1725 1.384 . S
H1728 C1734 0.930 . S
H1729 C1738 0.930 . S
H1730 C1743 0.929 . S
H1731 C1741 0.929 . S
H1732 C1736 0.929 . S
H1733 C1742 0.929 . S
C1734 H1728 0.930 . S
C1734 C1735 1.367 . S
C1734 C1742 1.378 . S
C1735 C1734 1.367 . S
C1735 C1743 1.433 . S
C1736 H1732 0.929 . S
C1736 C1738 1.378 . S
C1736 C1740 1.350 . S
C1737 C1740 1.463 . S
C1737 C1742 1.350 . S
C1737 N1745 1.427 . S
C1738 H1729 0.930 . S
C1738 C1736 1.378 . S
C1738 C1739 1.367 . S
C1739 C1738 1.367 . S
C1739 C1741 1.433 . S
C1740 C1736 1.350 . S
C1740 C1737 1.463 . S
C1740 N1744 1.427 . S
C1741 H1731 0.929 . S
C1741 C1739 1.433 . S
C1741 N1744 1.384 . S
C1742 H1733 0.929 . S
C1742 C1734 1.378 . S
C1742 C1737 1.350 . S
C1743 H1730 0.929 . S
C1743 C1735 1.433 . S
C1743 N1745 1.384 . S
N1744 C1740 1.427 . S
N1744 C1741 1.384 . S
N1745 C1737 1.427 . S
N1745 C1743 1.384 . S
H1746 C1752 0.930 . S
H1747 C1756 0.930 . S
H1748 C1761 0.929 . S
H1749 C1759 0.929 . S
H1750 C1754 0.929 . S
H1751 C1760 0.929 . S
C1752 H1746 0.930 . S
C1752 C1753 1.367 . S
C1752 C1760 1.378 . S
C1753 C1752 1.367 . S
C1753 C1761 1.433 . S
C1754 H1750 0.929 . S
C1754 C1756 1.378 . S
C1754 C1758 1.350 . S
C1755 C1758 1.463 . S
C1755 C1760 1.350 . S
C1755 N1763 1.427 . S
C1756 H1747 0.930 . S
C1756 C1754 1.378 . S
C1756 C1757 1.367 . S
C1757 C1756 1.367 . S
C1757 C1759 1.433 . S
C1758 C1754 1.350 . S
C1758 C1755 1.463 . S
C1758 N1762 1.427 . S
C1759 H1749 0.929 . S
C1759 C1757 1.433 . S
C1759 N1762 1.384 . S
C1760 H1751 0.929 . S
C1760 C1752 1.378 . S
C1760 C1755 1.350 . S
C1761 H1748 0.929 . S
C1761 C1753 1.433 . S
C1761 N1763 1.384 . S
N1762 C1758 1.427 . S
N1762 C1759 1.384 . S
N1763 C1755 1.427 . S
N1763 C1761 1.384 . S
H1764 C1770 0.930 . S
H1765 C1774 0.930 . S
H1766 C1779 0.929 . S
H1767 C1777 0.929 . S
H1768 C1772 0.929 . S
H1769 C1778 0.929 . S
C1770 H1764 0.930 . S
C1770 C1771 1.367 . S
C1770 C1778 1.378 . S
C1771 C1770 1.367 . S
C1771 C1779 1.433 . S
C1772 H1768 0.929 . S
C1772 C1774 1.378 . S
C1772 C1776 1.350 . S
C1773 C1776 1.463 . S
C1773 C1778 1.350 . S
C1773 N1781 1.427 . S
C1774 H1765 0.930 . S
C1774 C1772 1.378 . S
C1774 C1775 1.367 . S
C1775 C1774 1.367 . S
C1775 C1777 1.433 . S
C1776 C1772 1.350 . S
C1776 C1773 1.463 . S
C1776 N1780 1.427 . S
C1777 H1767 0.929 . S
C1777 C1775 1.433 . S
C1777 N1780 1.384 . S
C1778 H1769 0.929 . S
C1778 C1770 1.378 . S
C1778 C1773 1.350 . S
C1779 H1766 0.929 . S
C1779 C1771 1.433 . S
C1779 N1781 1.384 . S
N1780 C1776 1.427 . S
N1780 C1777 1.384 . S
N1781 C1773 1.427 . S
N1781 C1779 1.384 . S
H1782 C1788 0.930 . S
H1783 C1792 0.930 . S
H1784 C1797 0.929 . S
H1785 C1795 0.929 . S
H1786 C1790 0.929 . S
H1787 C1796 0.929 . S
C1788 H1782 0.930 . S
C1788 C1789 1.367 . S
C1788 C1796 1.378 . S
C1789 C1788 1.367 . S
C1789 C1797 1.433 . S
C1790 H1786 0.929 . S
C1790 C1792 1.378 . S
C1790 C1794 1.350 . S
C1791 C1794 1.463 . S
C1791 C1796 1.350 . S
C1791 N1799 1.427 . S
C1792 H1783 0.930 . S
C1792 C1790 1.378 . S
C1792 C1793 1.367 . S
C1793 C1792 1.367 . S
C1793 C1795 1.433 . S
C1794 C1790 1.350 . S
C1794 C1791 1.463 . S
C1794 N1798 1.427 . S
C1795 H1785 0.929 . S
C1795 C1793 1.433 . S
C1795 N1798 1.384 . S
C1796 H1787 0.929 . S
C1796 C1788 1.378 . S
C1796 C1791 1.350 . S
C1797 H1784 0.929 . S
C1797 C1789 1.433 . S
C1797 N1799 1.384 . S
N1798 C1794 1.427 . S
N1798 C1795 1.384 . S
N1799 C1791 1.427 . S
N1799 C1797 1.384 . S
H1800 C1806 0.930 . S
H1801 C1810 0.930 . S
H1802 C1815 0.929 . S
H1803 C1813 0.929 . S
H1804 C1808 0.929 . S
H1805 C1814 0.929 . S
C1806 H1800 0.930 . S
C1806 C1807 1.367 . S
C1806 C1814 1.378 . S
C1807 C1806 1.367 . S
C1807 C1815 1.433 . S
C1808 H1804 0.929 . S
C1808 C1810 1.378 . S
C1808 C1812 1.350 . S
C1809 C1812 1.463 . S
C1809 C1814 1.350 . S
C1809 N1817 1.427 . S
C1810 H1801 0.930 . S
C1810 C1808 1.378 . S
C1810 C1811 1.367 . S
C1811 C1810 1.367 . S
C1811 C1813 1.433 . S
C1812 C1808 1.350 . S
C1812 C1809 1.463 . S
C1812 N1816 1.427 . S
C1813 H1803 0.929 . S
C1813 C1811 1.433 . S
C1813 N1816 1.384 . S
C1814 H1805 0.929 . S
C1814 C1806 1.378 . S
C1814 C1809 1.350 . S
C1815 H1802 0.929 . S
C1815 C1807 1.433 . S
C1815 N1817 1.384 . S
N1816 C1812 1.427 . S
N1816 C1813 1.384 . S
N1817 C1809 1.427 . S
N1817 C1815 1.384 . S
H1818 C1824 0.931 . S
H1819 C1828 0.930 . S
H1820 C1833 0.929 . S
H1821 C1831 0.929 . S
H1822 C1826 0.929 . S
H1823 C1832 0.896 1_455 S
C1824 H1818 0.931 . S
C1824 C1825 1.367 . S
C1824 C1832 1.410 . S
C1825 C1824 1.367 . S
C1825 C1833 1.433 . S
C1826 H1822 0.929 . S
C1826 C1828 1.378 . S
C1826 C1830 1.350 . S
C1827 C1830 1.463 . S
C1827 C1832 1.355 . S
C1827 N1835 1.427 . S
C1828 H1819 0.930 . S
C1828 C1826 1.378 . S
C1828 C1829 1.371 . S
C1829 C1828 1.371 . S
C1829 C1831 1.433 1_655 S
C1830 C1826 1.350 . S
C1830 C1827 1.463 . S
C1830 N1834 1.427 1_655 S
C1831 H1821 0.929 . S
C1831 C1829 1.433 1_455 S
C1831 N1834 1.384 . S
C1832 H1823 0.896 1_655 S
C1832 C1824 1.410 . S
C1832 C1827 1.355 . S
C1833 H1820 0.929 . S
C1833 C1825 1.433 . S
C1833 N1835 1.384 . S
N1834 C1830 1.427 1_455 S
N1834 C1831 1.384 . S
N1835 C1827 1.427 . S
N1835 C1833 1.384 . S
H1836 C1842 0.930 . S
H1837 C1846 0.930 . S
H1838 C1851 0.929 . S
H1839 C1849 0.929 . S
H1840 C1844 0.929 . S
H1841 C1850 0.929 . S
C1842 H1836 0.930 . S
C1842 C1843 1.367 . S
C1842 C1850 1.378 . S
C1843 C1842 1.367 . S
C1843 C1851 1.433 . S
C1844 H1840 0.929 . S
C1844 C1846 1.378 . S
C1844 C1848 1.350 . S
C1845 C1848 1.463 . S
C1845 C1850 1.350 . S
C1845 N1853 1.427 . S
C1846 H1837 0.930 . S
C1846 C1844 1.378 . S
C1846 C1847 1.367 . S
C1847 C1846 1.367 . S
C1847 C1849 1.433 . S
C1848 C1844 1.350 . S
C1848 C1845 1.463 . S
C1848 N1852 1.427 . S
C1849 H1839 0.929 . S
C1849 C1847 1.433 . S
C1849 N1852 1.384 . S
C1850 H1841 0.929 . S
C1850 C1842 1.378 . S
C1850 C1845 1.350 . S
C1851 H1838 0.929 . S
C1851 C1843 1.433 . S
C1851 N1853 1.384 . S
N1852 C1848 1.427 . S
N1852 C1849 1.384 . S
N1853 C1845 1.427 . S
N1853 C1851 1.384 . S
H1854 C1860 0.930 . S
H1855 C1864 0.930 . S
H1856 C1869 0.929 . S
H1857 C1867 0.929 . S
H1858 C1862 0.928 . S
H1859 C1868 0.929 . S
C1860 H1854 0.930 . S
C1860 C1861 1.367 . S
C1860 C1868 1.378 . S
C1861 C1860 1.367 . S
C1861 C1869 1.433 . S
C1862 H1858 0.928 . S
C1862 C1864 1.378 . S
C1862 C1866 1.350 1_565 S
C1863 C1866 1.463 . S
C1863 C1868 1.350 . S
C1863 N1871 1.427 . S
C1864 H1855 0.930 . S
C1864 C1862 1.378 . S
C1864 C1865 1.360 1_565 S
C1865 C1864 1.360 1_545 S
C1865 C1867 1.436 . S
C1866 C1862 1.350 1_545 S
C1866 C1863 1.463 . S
C1866 N1870 1.427 . S
C1867 H1857 0.929 . S
C1867 C1865 1.436 . S
C1867 N1870 1.384 . S
C1868 H1859 0.929 . S
C1868 C1860 1.378 . S
C1868 C1863 1.350 . S
C1869 H1856 0.929 . S
C1869 C1861 1.433 . S
C1869 N1871 1.384 . S
N1870 C1866 1.427 . S
N1870 C1867 1.384 . S
N1871 C1863 1.427 . S
N1871 C1869 1.384 . S
C583 C9 1.509 1_655 S
C587 C421 1.514 . S
C601 C19 1.562 . S
C605 C446 1.535 . S
C623 C457 1.540 . S
C619 C33 1.572 . S
C637 C37 1.527 1_565 S
C641 C482 1.535 . S
C655 C5 1.527 . S
C659 C500 1.509 . S
C673 C23 1.592 . S
C677 C511 1.548 . S
C691 C47 1.536 . S
C695 C493 1.523 . S
C713 C518 1.556 . S
C709 C65 1.578 . S
C731 C475 1.526 . S
C727 C75 1.518 . S
C745 C79 1.524 . S
C749 C464 1.463 . S
C767 C428 1.558 . S
C763 C51 1.571 1_655 S
C781 C61 1.555 . S
C785 C439 1.536 . S
C799 C93 1.646 . S
C803 C529 1.605 . S
C817 C103 1.598 . S
C821 C554 1.572 . S
C839 C565 1.596 . S
C835 C117 1.634 . S
C853 C121 1.611 . S
C857 C266 1.579 . S
C871 C89 1.604 . S
C875 C284 1.573 . S
C889 C107 1.620 . S
C893 C295 1.574 . S
C907 C131 1.567 . S
C911 C277 1.546 . S
C925 C149 1.595 . S
C929 C302 1.573 . S
C947 C259 1.551 . S
C943 C159 1.570 . S
C965 C572 1.554 . S
C961 C163 1.582 . S
C983 C536 1.579 . S
C979 C135 1.609 . S
C1001 C547 1.568 . S
C997 C145 1.587 . S
C1015 C177 1.608 . S
C1019 C313 1.562 . S
C1033 C187 1.584 . S
C1037 C338 1.562 . S
C1051 C201 1.631 . S
C1055 C349 1.592 . S
C1069 C205 1.651 . S
C1073 C374 1.616 . S
C1091 C392 1.579 . S
C1087 C173 1.606 . S
C1109 C403 1.593 . S
C1105 C191 1.639 . S
C1127 C385 1.588 . S
C1123 C215 1.608 . S
C1145 C410 1.586 . S
C1141 C233 1.614 . S
C1159 C243 1.563 . S
C1163 C367 1.540 . S
C1181 C356 1.519 . S
C1177 C247 1.536 . S
C1195 C219 1.613 . S
C1199 C320 1.583 . S
C1217 C331 1.562 . S
C1213 C229 1.579 . S
C1235 C268 1.424 . S
C1231 C11 1.495 . S
C1249 C14 1.462 . S
C1253 C286 1.396 . S
C1271 C296 1.462 . S
C1267 C28 1.535 . S
C1289 C314 1.456 . S
C1285 C39 1.531 . S
C1307 C340 1.432 . S
C1303 C0 1.501 . S
C1325 C350 1.373 . S
C1321 C25 1.431 . S
C1339 C42 1.577 . S
C1343 C358 1.487 . S
C1357 C67 1.504 . S
C1361 C322 1.405 . S
C1375 C70 1.487 . S
C1379 C332 1.406 . S
C1393 C81 1.512 . S
C1397 C278 1.434 . S
C1415 C304 1.465 . S
C1411 C53 1.549 . S
C1429 C56 1.519 . S
C1433 C260 1.448 . S
C1451 C376 1.423 . S
C1447 C95 1.483 . S
C1465 C98 1.521 . S
C1469 C394 1.464 . S
C1483 C112 1.579 . S
C1487 C404 1.519 . S
C1505 C422 1.399 . S
C1501 C123 1.460 . S
C1519 C84 1.494 . S
C1523 C448 1.425 . S
C1537 C109 1.419 . S
C1541 C458 1.374 . S
C1555 C126 1.494 . S
C1559 C466 1.438 . S
C1573 C151 1.459 . S
C1577 C430 1.397 . S
C1595 C440 1.422 . S
C1591 C154 1.498 . S
C1609 C165 1.495 . S
C1613 C386 1.423 . S
C1627 C137 1.579 . S
C1631 C412 1.494 . S
C1649 C368 1.510 . S
C1645 C140 1.580 . S
C1667 C484 1.392 . S
C1663 C179 1.442 . S
C1681 C182 1.442 . S
C1685 C502 1.378 . S
C1699 C196 1.531 . S
C1703 C512 1.474 . S
C1721 C530 1.455 . S
C1717 C207 1.520 . S
C1739 C556 1.461 . S
C1735 C168 1.536 . S
C1753 C193 1.502 . S
C1757 C566 1.445 . S
C1771 C210 1.569 . S
C1775 C574 1.480 . S
C1789 C235 1.568 . S
C1793 C538 1.468 . S
C1811 C548 1.455 . S
C1807 C238 1.539 . S
C1829 C494 1.325 1_655 S
C1825 C249 1.416 . S
C1847 C520 1.457 . S
C1843 C221 1.538 . S
C1861 C224 1.474 . S
C1865 C476 1.438 1_545 S
