# Generated by pormake.
# Topology pyr, (3,6)-cn, num edge types: 1
# Building blocks:
#     Node 0, Type 0, BuildingBlock: INOVEN_clean_linker_0, # of connection points: 3
#     Node 1, Type 0, BuildingBlock: INOVEN_clean_linker_0, # of connection points: 3
#     Node 2, Type 0, BuildingBlock: INOVEN_clean_linker_0, # of connection points: 3
#     Node 3, Type 0, BuildingBlock: INOVEN_clean_linker_0, # of connection points: 3
#     Node 4, Type 0, BuildingBlock: INOVEN_clean_linker_0, # of connection points: 3
#     Node 5, Type 0, BuildingBlock: INOVEN_clean_linker_0, # of connection points: 3
#     Node 6, Type 0, BuildingBlock: INOVEN_clean_linker_0, # of connection points: 3
#     Node 7, Type 0, BuildingBlock: INOVEN_clean_linker_0, # of connection points: 3
#     Node 8, Type 1, BuildingBlock: FUNLAD_clean_sbu_0, # of connection points: 6
#     Node 9, Type 1, BuildingBlock: FUNLAD_clean_sbu_0, # of connection points: 6
#     Node 10, Type 1, BuildingBlock: FUNLAD_clean_sbu_0, # of connection points: 6
#     Node 11, Type 1, BuildingBlock: FUNLAD_clean_sbu_0, # of connection points: 6
#     Edge 12, Type (0, 1), BuildingBlock: AJUNOK_clean_linker_0, # of connection points: 2
#     Edge 13, Type (0, 1), BuildingBlock: AJUNOK_clean_linker_0, # of connection points: 2
#     Edge 14, Type (0, 1), BuildingBlock: AJUNOK_clean_linker_0, # of connection points: 2
#     Edge 15, Type (0, 1), BuildingBlock: AJUNOK_clean_linker_0, # of connection points: 2
#     Edge 16, Type (0, 1), BuildingBlock: AJUNOK_clean_linker_0, # of connection points: 2
#     Edge 17, Type (0, 1), BuildingBlock: AJUNOK_clean_linker_0, # of connection points: 2
#     Edge 18, Type (0, 1), BuildingBlock: AJUNOK_clean_linker_0, # of connection points: 2
#     Edge 19, Type (0, 1), BuildingBlock: AJUNOK_clean_linker_0, # of connection points: 2
#     Edge 20, Type (0, 1), BuildingBlock: AJUNOK_clean_linker_0, # of connection points: 2
#     Edge 21, Type (0, 1), BuildingBlock: AJUNOK_clean_linker_0, # of connection points: 2
#     Edge 22, Type (0, 1), BuildingBlock: AJUNOK_clean_linker_0, # of connection points: 2
#     Edge 23, Type (0, 1), BuildingBlock: AJUNOK_clean_linker_0, # of connection points: 2
#     Edge 24, Type (0, 1), BuildingBlock: AJUNOK_clean_linker_0, # of connection points: 2
#     Edge 25, Type (0, 1), BuildingBlock: AJUNOK_clean_linker_0, # of connection points: 2
#     Edge 26, Type (0, 1), BuildingBlock: AJUNOK_clean_linker_0, # of connection points: 2
#     Edge 27, Type (0, 1), BuildingBlock: AJUNOK_clean_linker_0, # of connection points: 2
#     Edge 28, Type (0, 1), BuildingBlock: AJUNOK_clean_linker_0, # of connection points: 2
#     Edge 29, Type (0, 1), BuildingBlock: AJUNOK_clean_linker_0, # of connection points: 2
#     Edge 30, Type (0, 1), BuildingBlock: AJUNOK_clean_linker_0, # of connection points: 2
#     Edge 31, Type (0, 1), BuildingBlock: AJUNOK_clean_linker_0, # of connection points: 2
#     Edge 32, Type (0, 1), BuildingBlock: AJUNOK_clean_linker_0, # of connection points: 2
#     Edge 33, Type (0, 1), BuildingBlock: AJUNOK_clean_linker_0, # of connection points: 2
#     Edge 34, Type (0, 1), BuildingBlock: AJUNOK_clean_linker_0, # of connection points: 2
#     Edge 35, Type (0, 1), BuildingBlock: AJUNOK_clean_linker_0, # of connection points: 2
# Relax obj value: 0.284
# Max RMSD: 0.214
# Mean RMSD: 0.132
data_MOF--net-pry--node1-FUNLAD_clean_sbu_0--node2-INOVEN_clean_linker_0--edge1-AJUNOK_clean_linker_0
_symmetry_space_group_name_H-M    P1
_symmetry_Int_Tables_number       1
_symmetry_cell_setting            triclinic
loop_
_symmetry_equiv_pos_as_xyz
'x, y, z'
_cell_length_a     24.437346
_cell_length_b     27.114948
_cell_length_c     28.139855
_cell_angle_alpha  90.217577
_cell_angle_beta   90.963016
_cell_angle_gamma 86.447242
loop_
_atom_site_label
_atom_site_type_symbol
_atom_site_fract_x
_atom_site_fract_y
_atom_site_fract_z
_atom_type_partial_charge
H0 H 0.08739 0.25761 0.27884 0.0
H1 H 0.2132 0.13929 0.26947 0.0
H2 H 0.19765 0.25144 0.16123 0.0
N3 N 0.11408 0.30619 0.20066 0.0
N4 N 0.12338 0.32214 0.15994 0.0
C5 C 0.12167 0.23926 0.26061 0.0
C6 C 0.14636 0.19432 0.279 0.0
C7 C 0.13986 0.26034 0.21816 0.0
C8 C 0.18396 0.23589 0.19403 0.0
C9 C 0.21089 0.19191 0.21168 0.0
C10 C 0.1917 0.1718 0.2544 0.0
H11 H 0.38805 0.87221 0.68215 0.0
H12 H 0.49767 0.87643 0.80387 0.0
H13 H 0.3634 0.98715 0.78495 0.0
N14 N 0.32697 0.94907 0.70129 0.0
N15 N 0.30354 0.99098 0.70513 0.0
C16 C 0.40155 0.88944 0.71482 0.0
C17 C 0.44763 0.86918 0.73959 0.0
C18 C 0.37208 0.93164 0.7303 0.0
C19 C 0.3875 0.95479 0.77283 0.0
C20 C 0.43278 0.9356 0.80048 0.0
C21 C 0.4626 0.89179 0.78367 0.0
H22 H 0.54073 0.49906 0.06705 0.0
H23 H 0.7081 0.45561 0.10283 0.0
H24 H 0.66179 0.60601 0.06734 0.0
N25 N 0.57257 0.57475 1.02199 0.0
N26 N 0.60127 0.59711 0.99416 0.0
C27 C 0.58121 0.50958 0.07791 0.0
C28 C 0.62121 0.47259 0.09117 0.0
C29 C 0.59684 0.5561 0.06484 0.0
C30 C 0.64976 0.56971 0.07743 0.0
C31 C 0.69078 0.53339 0.08962 0.0
C32 C 0.67626 0.48463 0.09664 0.0
H33 H 0.8879 0.56455 0.50025 0.0
H34 H 0.87926 0.67752 0.60687 0.0
H35 H 1.02116 0.65816 0.52047 0.0
N36 N 0.97028 0.60198 0.45799 0.0
N37 N 1.00687 0.62489 0.43902 0.0
C38 C 0.90874 0.59077 0.52217 0.0
C39 C 0.88035 0.61514 0.55937 0.0
C40 C 0.95879 0.60713 0.50705 0.0
C41 C 0.98412 0.64338 0.53374 0.0
C42 C 0.95405 0.67093 0.56757 0.0
C43 C 0.90401 0.65444 0.58286 0.0
H44 H 0.86417 1.00183 0.82761 0.0
H45 H 0.99264 0.88441 0.8204 0.0
H46 H 0.87946 0.89171 0.93634 0.0
N47 N 0.82099 0.97319 0.9075 0.0
N48 N 0.80191 0.95512 0.94405 0.0
C49 C 0.88596 0.96908 0.84207 0.0
C50 C 0.93105 0.94658 0.8176 0.0
C51 C 0.86726 0.94956 0.88448 0.0
C52 C 0.89426 0.90686 0.90372 0.0
C53 C 0.93984 0.88292 0.88198 0.0
C54 C 0.95768 0.90245 0.83787 0.0
H55 H 0.5803 0.24816 0.34504 0.0
H56 H 0.71002 0.13259 0.34844 0.0
H57 H 0.69824 0.24175 0.45999 0.0
N58 N 0.61118 0.29523 0.42405 0.0
N59 N 0.62352 0.30997 0.46492 0.0
C60 C 0.61634 0.23026 0.36198 0.0
C61 C 0.64178 0.18689 0.34154 0.0
C62 C 0.63648 0.25043 0.4047 0.0
C63 C 0.68283 0.22669 0.42704 0.0
C64 C 0.71023 0.18435 0.40733 0.0
C65 C 0.6889 0.16447 0.3647 0.0
H66 H 0.51668 0.62957 0.10674 0.0
H67 H 0.37494 0.68089 1.02462 0.0
H68 H 0.36705 0.55759 0.11767 0.0
N69 N 0.45542 0.5837 0.16559 0.0
N70 N 0.46357 0.62151 0.18955 0.0
C71 C 0.47607 0.62369 0.09249 0.0
C72 C 0.44997 0.66004 0.06335 0.0
C73 C 0.44459 0.59055 0.1163 0.0
C74 C 0.39193 0.58256 0.09879 0.0
C75 C 0.36784 0.61319 0.06279 0.0
C76 C 0.39683 0.65256 1.04581 0.0
H77 H 0.03928 0.5236 0.574 0.0
H78 H 0.20438 0.46118 0.56103 0.0
H79 H 0.17486 0.6131 0.6012 0.0
N80 N 0.06896 0.59924 0.6211 0.0
N81 N 0.08937 0.62538 0.65233 0.0
C82 C 0.08288 0.52866 0.57186 0.0
C83 C 0.11919 0.4875 0.56423 0.0
C84 C 0.10253 0.5729 0.58816 0.0
C85 C 0.1592 0.579 0.58798 0.0
C86 C 0.19612 0.53903 0.57747 0.0
C87 C 0.17599 0.49318 0.56528 0.0
C88 C 0.0617 0.1082 0.45644 0.0
N89 N 0.0309 0.18766 0.5821 0.0
C90 C 0.08262 0.20109 0.5735 0.0
C91 C 0.09459 0.25039 0.5738 0.0
C92 C 0.05292 0.28687 0.5821 0.0
C93 C 1.00032 0.27246 0.59319 0.0
C94 C 0.99008 0.22212 0.59297 0.0
Zn95 Zn 1.01746 0.11676 0.56171 0.0
C96 C 0.913 0.11018 0.50702 0.0
N97 N 1.00458 0.97257 0.50883 0.0
C98 C 0.04706 0.93875 0.50124 0.0
C99 C 0.95377 0.9583 0.5193 0.0
C100 C 0.94524 0.90901 0.52705 0.0
C101 C 0.98919 0.87362 0.52363 0.0
C102 C 0.04007 0.88848 0.50825 0.0
Zn103 Zn 1.01649 0.04318 0.52836 0.0
O104 O 0.05213 0.13645 0.49217 0.0
C105 C 0.11923 0.05169 0.58367 0.0
O106 O 0.05097 0.06292 0.4604 0.0
H107 H 0.92094 0.98535 0.52724 0.0
H108 H 0.11429 0.17405 0.56278 0.0
H109 H 0.0873 0.95088 0.49359 0.0
O110 O 0.09513 0.09378 0.58983 0.0
O111 O 0.09657 1.02097 0.55666 0.0
H112 H 0.94895 0.21096 0.59851 0.0
O113 O 0.98482 1.02229 0.59702 0.0
O114 O 0.98452 0.09418 0.63188 0.0
O115 O 0.9355 0.06727 0.49977 0.0
O116 O 0.93788 0.13973 0.53375 0.0
C117 C 0.97761 0.04775 0.63467 0.0
H118 H 0.13575 0.26 0.56554 0.0
H119 H 0.96696 0.29977 0.59944 0.0
H120 H 0.90546 0.89931 0.53915 0.0
H121 H 0.07457 0.86195 0.50374 0.0
C122 C 0.61091 1.03722 1.04155 0.0
N123 N 0.52985 0.17765 1.03779 0.0
C124 C 0.58309 0.18824 1.04553 0.0
C125 C 0.59756 0.23676 1.04954 0.0
C126 C 0.55697 0.27526 1.04645 0.0
C127 C 0.5028 0.26404 1.03541 0.0
C128 C 0.49 0.21449 1.03113 0.0
Zn129 Zn 0.51266 0.10743 0.05727 0.0
C130 C 0.46987 0.04065 0.98394 0.0
N131 N 0.49196 0.96592 0.11227 0.0
C132 C 0.535 0.93479 0.12617 0.0
C133 C 0.44411 0.94848 0.09589 0.0
C134 C 0.44025 0.89816 0.08802 0.0
C135 C 0.48581 0.86573 0.09764 0.0
C136 C 0.53267 0.88395 0.11924 0.0
Zn137 Zn 0.50473 1.03587 0.09246 0.0
O138 O 0.59018 0.07973 1.03059 0.0
C139 C 0.55358 0.10046 0.16377 0.0
O140 O 0.58483 1.011 0.06953 0.0
H141 H 0.41075 0.97388 0.08431 0.0
H142 H 0.6142 0.15939 0.05339 0.0
H143 H 0.5728 0.94954 0.13861 0.0
O144 O 0.54847 0.12619 0.12603 0.0
O145 O 0.53781 0.05646 0.16213 0.0
H146 H 0.44778 0.20563 1.02598 0.0
O147 O 0.42348 0.06172 0.11633 0.0
O148 O 0.43322 0.13406 0.08453 0.0
O149 O 0.47491 1.01476 1.02162 0.0
O150 O 0.47858 0.08663 0.98745 0.0
C151 C 0.40496 0.10615 0.10947 0.0
H152 H 0.63963 0.24385 0.05862 0.0
H153 H 0.47046 0.29305 1.03215 0.0
H154 H 0.4029 0.88496 0.07265 0.0
H155 H 0.56819 0.85954 0.12788 0.0
C156 C 0.55689 0.49598 0.55757 0.0
N157 N 0.56158 0.55772 0.69757 0.0
C158 C 0.53522 0.52715 0.72651 0.0
C159 C 0.54188 0.53093 0.77605 0.0
C160 C 0.57495 0.56711 0.79518 0.0
C161 C 0.60157 0.59736 0.76418 0.0
C162 C 0.59548 0.59127 0.71582 0.0
Zn163 Zn 0.54182 0.5735 0.62846 0.0
C164 C 0.64463 0.60751 0.58015 0.0
N165 N 0.50953 0.62876 0.48989 0.0
C166 C 0.47521 0.59781 0.46791 0.0
C167 C 0.53641 0.66211 0.46453 0.0
C168 C 0.53034 0.66387 0.41492 0.0
C169 C 0.49612 0.63117 0.39166 0.0
C170 C 0.4675 0.59875 0.41899 0.0
Zn171 Zn 0.52832 0.61074 0.55914 0.0
O172 O 0.55844 0.49944 0.6028 0.0
C173 C 0.42623 0.57321 0.60353 0.0
O174 O 0.54577 0.53516 0.53349 0.0
H175 H 0.56466 0.68547 0.48236 0.0
H176 H 0.507 0.5019 0.71148 0.0
H177 H 0.45606 0.56987 0.48777 0.0
O178 O 0.45749 0.55899 0.63807 0.0
O179 O 0.44589 0.59598 0.56917 0.0
H180 H 0.61399 0.61737 0.69326 0.0
O181 O 0.51186 0.6868 0.58742 0.0
O182 O 0.52449 0.6476 0.65445 0.0
O183 O 0.61082 0.62444 0.54875 0.0
O184 O 0.6265 0.58601 0.61608 0.0
C185 C 0.5138 0.68806 0.63291 0.0
H186 H 0.52027 0.50706 0.799 0.0
H187 H 0.62488 0.62756 0.77696 0.0
H188 H 0.5539 0.68896 0.39495 0.0
H189 H 0.44051 0.57317 0.40255 0.0
C190 C 0.99744 0.70174 0.99469 0.0
N191 N 1.01363 0.6465 0.13952 0.0
C192 C 0.04391 0.68034 0.16209 0.0
C193 C 0.04297 0.68437 0.21192 0.0
C194 C 1.0104 0.65338 0.23786 0.0
C195 C 0.9797 0.61943 0.21342 0.0
C196 C 0.9818 0.61665 0.16451 0.0
Zn197 Zn 1.01871 0.6254 0.0697 0.0
C198 C 0.90928 0.58987 1.04218 0.0
N199 N 1.02048 0.56516 0.93202 0.0
C200 C 0.06871 0.55335 0.91013 0.0
C201 C 0.97504 0.58206 0.9068 0.0
C202 C 0.97892 0.59415 0.85909 0.0
C203 C 0.02991 0.58861 0.83737 0.0
C204 C 0.07436 0.5649 0.86228 0.0
Zn205 Zn 1.02105 0.5863 1.00125 0.0
O206 O 1.00425 0.70114 1.03996 0.0
C207 C 0.13109 0.61883 1.03511 0.0
O208 O 0.99983 0.66033 0.97323 0.0
H209 H 0.93738 0.59261 0.92468 0.0
H210 H 0.07017 0.70275 0.1418 0.0
H211 H 0.1043 0.53987 0.93065 0.0
O212 O 0.10249 0.63295 0.07039 0.0
O213 O 0.10744 0.60051 0.99902 0.0
H214 H 0.95984 0.58826 0.14699 0.0
O215 O 0.04377 0.51318 1.02738 0.0
O216 O 0.03543 0.54888 0.09678 0.0
O217 O 0.93562 0.56997 1.0078 0.0
O218 O 0.93401 0.61793 0.06996 0.0
C219 C 0.04577 0.50965 0.07252 0.0
H220 H 0.06781 0.71064 0.22992 0.0
H221 H 0.95571 0.59361 0.23212 0.0
H222 H 0.94366 0.61177 0.84072 0.0
H223 H 0.11392 0.55836 0.84581 0.0
C224 C 0.11127 0.20054 0.36423 0.0
C225 C 0.12519 0.17127 0.32402 0.0
C226 C 0.09156 0.17991 0.40642 0.0
C227 C 0.08405 0.12878 0.41088 0.0
H228 H 0.11624 0.23993 0.36341 0.0
H229 H 0.0819 0.2046 0.43586 0.0
S230 S 0.11209 1.03552 0.31569 0.0
N231 N 0.12828 0.08796 0.29155 0.0
N232 N 0.09179 0.04958 0.37002 0.0
C233 C 0.09752 0.09909 0.37084 0.0
C234 C 0.11787 0.12009 0.32793 0.0
C235 C 0.45094 0.93732 0.89041 0.0
C236 C 0.44667 0.9623 0.84651 0.0
C237 C 0.45715 0.96297 0.9341 0.0
C238 C 0.45979 1.01511 0.9365 0.0
H239 H 0.44801 0.89763 0.89122 0.0
H240 H 0.46002 0.94138 0.96646 0.0
S241 S 0.45417 0.09804 0.83149 0.0
N242 N 0.44804 0.04253 0.80843 0.0
N243 N 0.45968 0.09005 0.88956 0.0
C244 C 0.45663 0.04033 0.89269 0.0
C245 C 0.45013 1.01425 0.84826 0.0
C246 C 0.53923 0.58841 0.92503 0.0
C247 C 0.59016 0.59968 0.94496 0.0
C248 C 0.53433 0.57759 0.87635 0.0
C249 C 0.58053 0.57605 0.84692 0.0
H250 H 0.50369 0.58664 0.94729 0.0
H251 H 0.49437 0.57009 0.8618 0.0
S252 S 0.72344 0.59791 0.88499 0.0
N253 N 0.68671 0.60796 0.93311 0.0
N254 N 0.67936 0.58326 0.84296 0.0
C255 C 0.63156 0.58671 0.86721 0.0
C256 C 0.63569 0.59996 0.91583 0.0
C257 C 0.05745 0.63545 0.36602 0.0
C258 C 1.0075 0.63144 0.38915 0.0
C259 C 0.05857 0.64535 0.31706 0.0
C260 C 1.00957 0.65291 0.29037 0.0
H261 H 0.09572 0.62993 0.3858 0.0
H262 H 0.09783 0.64539 0.29974 0.0
S263 S 0.86819 0.65625 0.33677 0.0
N264 N 0.90803 0.64193 0.38325 0.0
N265 N 0.91002 0.66218 0.29198 0.0
C266 C 0.95943 0.65237 0.31404 0.0
C267 C 0.95835 0.6412 0.36327 0.0
C268 C 0.2986 0.1983 0.16516 0.0
C269 C 0.25983 0.16842 0.18556 0.0
C270 C 0.34403 0.178 0.13981 0.0
C271 C 0.35378 0.12655 0.1338 0.0
H272 H 0.2944 0.23806 0.16934 0.0
H273 H 0.3725 0.20305 0.12568 0.0
S274 S 0.26407 1.03129 0.17764 0.0
N275 N 0.23361 0.08403 0.1955 0.0
N276 N 0.31954 0.04605 0.14957 0.0
C277 C 0.31542 0.09607 0.15376 0.0
C278 C 0.26863 0.11683 0.17917 0.0
C279 C 0.23656 0.97319 0.64116 0.0
C280 C 0.25922 1.00616 0.67393 0.0
C281 C 0.19257 0.9886 0.6109 0.0
C282 C 0.16967 1.0375 0.61206 0.0
H283 H 0.25232 0.93504 0.63921 0.0
H284 H 0.17572 0.96164 0.58719 0.0
S285 S 0.21677 0.13819 0.69018 0.0
N286 N 0.25725 0.08942 0.70485 0.0
N287 N 0.17513 0.11924 0.64802 0.0
C288 C 0.19311 0.07096 0.64403 0.0
C289 C 0.23761 0.055 0.67494 0.0
C290 C 0.77873 0.52016 1.04578 0.0
C291 C 0.7486 0.54476 0.08198 0.0
C292 C 0.82992 0.53574 1.03204 0.0
C293 C 0.85295 0.5765 0.05406 0.0
H294 H 0.76179 0.48957 1.02687 0.0
H295 H 0.85164 0.51549 1.00417 0.0
S296 S 0.79007 0.65298 0.15136 0.0
N297 N 0.7452 0.61131 0.13975 0.0
N298 N 0.84108 0.64087 0.11455 0.0
C299 C 0.82311 0.60113 0.09067 0.0
C300 C 0.7711 0.58521 0.10445 0.0
C301 C 0.79811 0.59742 0.60695 0.0
C302 C 0.82061 0.61064 0.56362 0.0
C303 C 0.74111 0.59673 0.61203 0.0
C304 C 0.70462 0.61016 0.57418 0.0
H305 H 0.82476 0.58767 0.63706 0.0
H306 H 0.7256 0.58587 0.64602 0.0
S307 S 0.7439 0.65068 0.45414 0.0
N308 N 0.80277 0.6394 0.48285 0.0
N309 N 0.69588 0.63832 0.49213 0.0
C310 C 0.72695 0.62421 0.53084 0.0
C311 C 0.78487 0.6244 0.52563 0.0
C312 C 0.10538 0.37647 0.09151 0.0
C313 C 0.10046 0.36817 0.14055 0.0
C314 C 0.08654 0.42142 0.06994 0.0
C315 C 0.06249 0.46105 0.09653 0.0
H316 H 0.12451 0.34767 0.06948 0.0
H317 H 0.09202 0.42537 1.03206 0.0
S318 S 0.03985 0.45906 0.22697 0.0
N319 N 0.06908 0.4038 0.2155 0.0
N320 N 0.03458 0.4883 0.17554 0.0
C321 C 0.05709 0.45324 0.14594 0.0
C322 C 0.07576 0.40698 0.16783 0.0
C323 C 0.63575 0.39118 1.05082 0.0
C324 C 0.60745 0.42056 0.08484 0.0
C325 C 0.61828 0.34479 1.03787 0.0
C326 C 0.57176 0.32605 0.05832 0.0
H327 H 0.67054 0.40488 1.03276 0.0
H328 H 0.64106 0.32357 1.01122 0.0
S329 S 0.48562 0.38716 0.15142 0.0
N330 N 0.53199 0.42714 0.14002 0.0
N331 N 0.49952 0.33923 0.11627 0.0
C332 C 0.54365 0.35463 0.09304 0.0
C333 C 0.56144 0.40201 0.10618 0.0
C334 C 0.92223 0.75295 0.53818 0.0
C335 C 0.96041 0.72453 0.56617 0.0
C336 C 0.93254 0.80061 0.52415 0.0
C337 C 0.98112 0.82219 0.53808 0.0
H338 H 0.88545 0.73709 0.52451 0.0
H339 H 0.90268 0.82024 0.50113 0.0
S340 S 0.09211 0.76442 0.61494 0.0
N341 N 0.0476 0.72133 0.6087 0.0
N342 N 0.06608 0.81272 0.58469 0.0
C343 C 1.01884 0.79486 0.56767 0.0
C344 C 1.00863 0.74565 0.58123 0.0
C345 C 0.48745 0.82526 0.66716 0.0
C346 C 0.47673 0.82442 0.71656 0.0
C347 C 0.49998 0.78176 0.64058 0.0
C348 C 0.50328 0.73484 0.66199 0.0
H349 H 0.48337 0.86003 0.6482 0.0
H350 H 0.506 0.78497 0.6027 0.0
S351 S 0.48388 0.71176 0.79115 0.0
N352 N 0.47352 0.77229 0.78601 0.0
N353 N 0.49848 0.69096 0.73731 0.0
C354 C 0.49582 0.73367 0.71201 0.0
C355 C 0.48249 0.77812 0.73891 0.0
C356 C 0.94916 1.02297 0.76787 0.0
C357 C 0.94781 0.97078 0.77129 0.0
C358 C 0.95828 0.04748 0.72437 0.0
C359 C 0.96614 1.02143 0.68125 0.0
H360 H 0.94277 0.04549 0.79939 0.0
H361 H 0.95892 0.08737 0.72464 0.0
S362 S 0.96727 0.88411 0.66959 0.0
N363 N 0.95588 0.89416 0.72659 0.0
N364 N 0.97296 0.93907 0.64577 0.0
C365 C 0.96559 0.96905 0.68425 0.0
C366 C 0.95665 0.94417 0.72869 0.0
C367 C 0.61109 0.11442 0.2917 0.0
C368 C 0.61976 0.16536 0.29576 0.0
C369 C 0.58967 0.09374 0.24947 0.0
C370 C 0.57659 0.12278 0.20879 0.0
H371 H 0.62021 0.09032 0.32178 0.0
H372 H 0.58352 0.05453 0.24874 0.0
S373 S 0.59418 0.25793 0.19962 0.0
N374 N 0.61504 0.24391 0.25429 0.0
N375 N 0.57551 0.20577 0.1757 0.0
C376 C 0.58587 0.17373 0.21227 0.0
C377 C 0.60713 0.19474 0.25535 0.0
C378 C 0.48421 0.57955 0.26622 0.0
C379 C 0.47361 0.62252 0.23915 0.0
C380 C 0.49292 0.58286 0.31553 0.0
C381 C 0.49084 0.62905 0.33913 0.0
H382 H 0.48574 0.54353 0.24939 0.0
H383 H 0.5011 0.54898 0.3354 0.0
S384 S 0.46303 0.75158 0.28276 0.0
N385 N 0.4615 0.71174 0.2383 0.0
N386 N 0.47635 0.71818 0.33102 0.0
C387 C 0.48062 0.67199 0.31195 0.0
C388 C 0.47229 0.66854 0.26194 0.0
C389 C 1.01372 0.61196 0.70562 0.0
C390 C 0.06235 0.63511 0.69562 0.0
C391 C 1.00162 0.59932 0.75225 0.0
C392 C 0.03741 0.60997 0.78997 0.0
H393 H 0.98816 0.59872 0.67707 0.0
H394 H 0.96649 0.5778 0.75826 0.0
S395 S 0.16074 0.68247 0.78297 0.0
N396 N 0.1397 0.67678 0.72722 0.0
N397 N 0.1163 0.65453 0.81545 0.0
C398 C 0.08156 0.63926 0.78094 0.0
C399 C 0.09373 0.65202 0.73351 0.0
C400 C 0.73067 1.02314 0.95612 0.0
C401 C 0.75598 0.97688 0.96862 0.0
C402 C 0.68478 0.04297 0.98087 0.0
C403 C 0.66231 1.01721 1.01874 0.0
H404 H 0.74608 0.04398 0.92701 0.0
H405 H 0.66617 0.07837 0.96954 0.0
S406 S 0.71553 0.89511 0.06522 0.0
N407 N 0.75686 0.9066 1.02131 0.0
N408 N 0.67062 0.9431 0.06766 0.0
C409 C 0.68811 0.9712 1.03171 0.0
C410 C 0.73487 0.95135 1.00667 0.0
C411 C 0.80044 0.19558 0.45009 0.0
C412 C 0.76235 0.16331 0.43115 0.0
C413 C 0.84798 0.17803 0.47506 0.0
C414 C 0.86069 0.12715 0.48178 0.0
H415 H 0.79368 0.23513 0.44547 0.0
H416 H 0.87552 0.20479 0.48856 0.0
S417 S 0.77525 1.02638 0.44012 0.0
N418 N 0.74073 0.07739 0.42207 0.0
N419 N 0.83106 0.0444 0.46731 0.0
C420 C 0.82363 0.09421 0.46254 0.0
C421 C 0.77451 0.11219 0.43762 0.0
C422 C 0.27235 0.62116 0.09191 0.0
C423 C 0.30795 0.61349 0.05361 0.0
C424 C 0.21556 0.62401 0.08496 0.0
C425 C 0.1917 0.61891 1.0394 0.0
H426 H 0.28858 0.6256 0.12764 0.0
H427 H 0.19022 0.62952 0.11599 0.0
S428 S 0.26749 0.59991 0.92695 0.0
N429 N 0.31611 0.60251 0.96829 0.0
N430 N 0.20863 0.60679 0.95502 0.0
C431 C 0.22691 0.61162 1.00055 0.0
C432 C 0.28517 0.60935 1.00769 0.0
C433 C 0.29168 0.53896 0.54822 0.0
C434 C 0.25538 0.5437 0.58616 0.0
C435 C 0.34715 0.54765 0.55483 0.0
C436 C 0.36848 0.56046 0.59978 0.0
H437 H 0.27676 0.52999 0.51295 0.0
H438 H 0.37349 0.54465 0.52428 0.0
S439 S 0.29051 0.57421 0.71122 0.0
N440 N 0.24439 0.55989 0.67067 0.0
N441 N 0.34935 0.5752 0.68319 0.0
C442 C 0.33301 0.56327 0.63845 0.0
C443 C 0.27621 0.55524 0.63157 0.0
C444 C 0.96457 0.78996 0.88812 0.0
C445 C 0.96567 0.83776 0.90786 0.0
C446 C 0.97559 0.74685 0.91618 0.0
C447 C 0.98778 0.74902 0.9657 0.0
H448 H 0.95248 0.7857 0.8512 0.0
H449 H 0.97299 0.71131 0.89888 0.0
S450 S 1.00043 0.86525 1.03411 0.0
N451 N 0.98388 0.88429 0.97977 0.0
N452 N 1.00365 0.80427 1.03186 0.0
C453 C 0.99105 0.79666 0.98532 0.0
C454 C 0.98033 0.84044 0.95672 0.0
C455 C 0.48557 0.72819 0.11263 0.0
C456 C 0.46857 0.71123 0.06744 0.0
C457 C 0.49342 0.77784 0.12136 0.0
C458 C 0.48392 0.81295 0.08553 0.0
H459 H 0.49002 0.70359 0.14272 0.0
H460 H 0.50425 0.78914 0.15713 0.0
S461 S 0.4469 0.78857 0.95959 0.0
N462 N 0.44862 0.73366 0.98509 0.0
N463 N 0.46235 0.828 1.00194 0.0
C464 C 0.46981 0.79689 1.03955 0.0
C465 C 0.46235 0.74585 1.03042 0.0
C466 C 0.10988 0.40236 0.53168 0.0
C467 C 0.09833 0.43759 0.56726 0.0
C468 C 0.09314 0.35411 0.53607 0.0
C469 C 0.06487 0.33937 0.57644 0.0
H470 H 0.13232 0.41207 0.50054 0.0
H471 H 0.1031 0.32786 0.50792 0.0
S472 S 0.02708 0.41749 0.68051 0.0
N473 N 0.05811 0.4545 0.64468 0.0
N474 N 0.02698 0.36369 0.65283 0.0
C475 C 0.05263 0.37446 0.612 0.0
C476 C 0.06949 0.42356 0.60751 0.0
C477 C 0.61179 0.36261 0.53495 0.0
C478 C 0.6023 0.35533 0.48606 0.0
C479 C 0.59573 0.40735 0.55789 0.0
C480 C 0.5701 0.44751 0.53274 0.0
H481 H 0.63259 0.3333 0.55566 0.0
H482 H 0.6048 0.41079 0.59552 0.0
S483 S 0.53508 0.44777 0.40346 0.0
N484 N 0.56459 0.39213 0.41295 0.0
N485 N 0.53502 0.47625 0.45545 0.0
C486 C 0.55979 0.44056 0.48356 0.0
C487 C 0.57568 0.3946 0.46033 0.0
loop_
_geom_bond_atom_site_label_1
_geom_bond_atom_site_label_2
_geom_bond_distance
_geom_bond_site_symmetry_2
_ccdc_geom_bond_type
H0 C5 0.929 . S
H1 C10 0.931 . S
H2 C8 0.930 . S
N3 N4 1.234 . S
N3 C7 1.453 . S
N4 N3 1.234 . S
C5 H0 0.929 . S
C5 C6 1.373 . S
C5 C7 1.368 . S
C6 C5 1.373 . S
C6 C10 1.397 . S
C7 N3 1.453 . S
C7 C5 1.368 . S
C7 C8 1.373 . S
C8 H2 0.930 . S
C8 C7 1.373 . S
C8 C9 1.371 . S
C9 C8 1.371 . S
C9 C10 1.383 . S
C10 H1 0.931 . S
C10 C6 1.397 . S
C10 C9 1.383 . S
H11 C16 0.929 . S
H12 C21 0.931 . S
H13 C19 0.930 . S
N14 N15 1.234 . S
N14 C18 1.453 . S
N15 N14 1.234 . S
C16 H11 0.929 . S
C16 C17 1.373 . S
C16 C18 1.368 . S
C17 C16 1.373 . S
C17 C21 1.397 . S
C18 N14 1.453 . S
C18 C16 1.368 . S
C18 C19 1.373 . S
C19 H13 0.930 . S
C19 C18 1.373 . S
C19 C20 1.371 . S
C20 C19 1.371 . S
C20 C21 1.383 . S
C21 H12 0.931 . S
C21 C17 1.397 . S
C21 C20 1.383 . S
H22 C27 0.929 . S
H23 C32 0.931 1_554 S
H24 C30 0.930 . S
N25 N26 1.234 . S
N25 C29 1.453 . S
N26 N25 1.234 . S
C27 H22 0.929 . S
C27 C28 1.373 . S
C27 C29 1.368 . S
C28 C27 1.373 . S
C28 C32 1.397 . S
C29 N25 1.453 . S
C29 C27 1.368 . S
C29 C30 1.373 . S
C30 H24 0.930 . S
C30 C29 1.373 . S
C30 C31 1.371 . S
C31 C30 1.371 . S
C31 C32 1.383 . S
C32 H23 0.931 1_556 S
C32 C28 1.397 . S
C32 C31 1.383 . S
H33 C38 0.929 . S
H34 C43 0.931 . S
H35 C41 0.930 . S
N36 N37 1.234 . S
N36 C40 1.453 . S
N37 N36 1.234 . S
C38 H33 0.929 . S
C38 C39 1.373 . S
C38 C40 1.368 . S
C39 C38 1.373 . S
C39 C43 1.397 . S
C40 N36 1.453 . S
C40 C38 1.368 . S
C40 C41 1.373 . S
C41 H35 0.930 . S
C41 C40 1.373 . S
C41 C42 1.371 . S
C42 C41 1.371 . S
C42 C43 1.383 . S
C43 H34 0.931 . S
C43 C39 1.397 . S
C43 C42 1.383 . S
H44 C49 0.929 . S
H45 C54 0.931 . S
H46 C52 0.930 . S
N47 N48 1.234 . S
N47 C51 1.453 . S
N48 N47 1.234 . S
C49 H44 0.929 . S
C49 C50 1.373 . S
C49 C51 1.368 . S
C50 C49 1.373 . S
C50 C54 1.397 . S
C51 N47 1.453 . S
C51 C49 1.368 . S
C51 C52 1.373 . S
C52 H46 0.930 . S
C52 C51 1.373 . S
C52 C53 1.371 . S
C53 C52 1.371 . S
C53 C54 1.383 . S
C54 H45 0.931 . S
C54 C50 1.397 . S
C54 C53 1.383 . S
H55 C60 0.929 . S
H56 C65 0.931 . S
H57 C63 0.930 . S
N58 N59 1.234 . S
N58 C62 1.453 . S
N59 N58 1.234 . S
C60 H55 0.929 . S
C60 C61 1.373 . S
C60 C62 1.368 . S
C61 C60 1.373 . S
C61 C65 1.397 . S
C62 N58 1.453 . S
C62 C60 1.368 . S
C62 C63 1.373 . S
C63 H57 0.930 . S
C63 C62 1.373 . S
C63 C64 1.371 . S
C64 C63 1.371 . S
C64 C65 1.383 . S
C65 H56 0.931 . S
C65 C61 1.397 . S
C65 C64 1.383 . S
H66 C71 0.929 . S
H67 C76 0.931 . S
H68 C74 0.930 . S
N69 N70 1.234 . S
N69 C73 1.453 . S
N70 N69 1.234 . S
C71 H66 0.929 . S
C71 C72 1.373 . S
C71 C73 1.368 . S
C72 C71 1.373 . S
C72 C76 1.397 . S
C73 N69 1.453 . S
C73 C71 1.368 . S
C73 C74 1.373 . S
C74 H68 0.930 . S
C74 C73 1.373 . S
C74 C75 1.371 . S
C75 C74 1.371 . S
C75 C76 1.383 . S
C76 H67 0.931 . S
C76 C72 1.397 . S
C76 C75 1.383 . S
H77 C82 0.929 . S
H78 C87 0.931 . S
H79 C85 0.930 . S
N80 N81 1.234 . S
N80 C84 1.453 . S
N81 N80 1.234 . S
C82 H77 0.929 . S
C82 C83 1.373 . S
C82 C84 1.368 . S
C83 C82 1.373 . S
C83 C87 1.397 . S
C84 N80 1.453 . S
C84 C82 1.368 . S
C84 C85 1.373 . S
C85 H79 0.930 . S
C85 C84 1.373 . S
C85 C86 1.371 . S
C86 C85 1.371 . S
C86 C87 1.383 . S
C87 H78 0.931 . S
C87 C83 1.397 . S
C87 C86 1.383 . S
C88 O104 1.251 . S
C88 O106 1.254 . S
N89 C90 1.333 . S
N89 C94 1.307 . S
N89 Zn95 2.020 . S
C90 N89 1.333 . S
C90 C91 1.379 . S
C90 H108 0.952 . S
C91 C90 1.379 . S
C91 C92 1.390 . S
C91 H118 0.949 . S
C92 C91 1.390 . S
C92 C93 1.357 . S
C93 C92 1.357 . S
C93 C94 1.370 . S
C93 H119 0.950 . S
C94 N89 1.307 . S
C94 C93 1.370 . S
C94 H112 0.948 1_455 S
Zn95 N89 2.020 . S
Zn95 O104 2.039 . S
Zn95 O110 2.034 . S
Zn95 O114 2.025 1_455 S
Zn95 O116 2.024 1_455 S
C96 O115 1.246 . S
C96 O116 1.249 . S
N97 C98 1.307 . S
N97 C99 1.333 . S
N97 Zn103 2.020 . S
C98 N97 1.307 . S
C98 C102 1.370 . S
C98 H109 0.948 1_655 S
C99 N97 1.333 . S
C99 C100 1.379 . S
C99 H107 0.952 . S
C100 C99 1.379 . S
C100 C101 1.390 . S
C100 H120 0.949 . S
C101 C100 1.390 . S
C101 C102 1.357 . S
C102 C98 1.370 . S
C102 C101 1.357 . S
C102 H121 0.950 . S
Zn103 N97 2.020 . S
Zn103 O106 2.025 1_665 S
Zn103 O111 2.024 1_655 S
Zn103 O113 2.039 . S
Zn103 O115 2.034 1_565 S
O104 C88 1.251 . S
O104 Zn95 2.039 . S
C105 O110 1.246 . S
C105 O111 1.249 1_545 S
O106 C88 1.254 . S
O106 Zn103 2.025 1_445 S
H107 C99 0.952 . S
H108 C90 0.952 . S
H109 C98 0.948 1_455 S
O110 Zn95 2.034 . S
O110 C105 1.246 . S
O111 Zn103 2.024 1_455 S
O111 C105 1.249 1_565 S
H112 C94 0.948 1_655 S
O113 Zn103 2.039 . S
O113 C117 1.251 1_565 S
O114 Zn95 2.025 1_655 S
O114 C117 1.254 . S
O115 C96 1.246 . S
O115 Zn103 2.034 1_545 S
O116 Zn95 2.024 1_655 S
O116 C96 1.249 . S
C117 O113 1.251 1_545 S
C117 O114 1.254 . S
H118 C91 0.949 . S
H119 C93 0.950 . S
H120 C100 0.949 . S
H121 C102 0.950 . S
C122 O138 1.251 . S
C122 O140 1.254 1_546 S
N123 C124 1.333 . S
N123 C128 1.307 . S
N123 Zn129 2.020 1_556 S
C124 N123 1.333 . S
C124 C125 1.379 . S
C124 H142 0.958 . S
C125 C124 1.379 . S
C125 C126 1.390 . S
C125 H152 0.949 . S
C126 C125 1.390 . S
C126 C127 1.357 . S
C127 C126 1.357 . S
C127 C128 1.370 . S
C127 H153 0.950 . S
C128 N123 1.307 . S
C128 C127 1.370 . S
C128 H146 0.948 . S
Zn129 N123 2.020 1_554 S
Zn129 O138 2.039 1_554 S
Zn129 O144 2.034 . S
Zn129 O148 2.025 . S
Zn129 O150 2.024 1_554 S
C130 O149 1.246 1_545 S
C130 O150 1.249 . S
N131 C132 1.307 . S
N131 C133 1.333 . S
N131 Zn137 2.020 . S
C132 N131 1.307 . S
C132 C136 1.370 . S
C132 H143 0.948 . S
C133 N131 1.333 . S
C133 C134 1.379 . S
C133 H141 0.952 . S
C134 C133 1.379 . S
C134 C135 1.390 . S
C134 H154 0.949 . S
C135 C134 1.390 . S
C135 C136 1.357 . S
C136 C132 1.370 . S
C136 C135 1.357 . S
C136 H155 0.950 . S
Zn137 N131 2.020 . S
Zn137 O140 2.025 . S
Zn137 O145 2.024 1_565 S
Zn137 O147 2.039 1_565 S
Zn137 O149 2.034 1_554 S
O138 C122 1.251 . S
O138 Zn129 2.039 1_556 S
C139 O144 1.246 . S
C139 O145 1.249 . S
O140 C122 1.254 1_564 S
O140 Zn137 2.025 . S
H141 C133 0.952 . S
H142 C124 0.958 . S
H143 C132 0.948 . S
O144 Zn129 2.034 . S
O144 C139 1.246 . S
O145 Zn137 2.024 1_545 S
O145 C139 1.249 . S
H146 C128 0.948 . S
O147 Zn137 2.039 1_545 S
O147 C151 1.251 . S
O148 Zn129 2.025 . S
O148 C151 1.254 . S
O149 C130 1.246 1_565 S
O149 Zn137 2.034 1_556 S
O150 Zn129 2.024 1_556 S
O150 C130 1.249 . S
C151 O147 1.251 . S
C151 O148 1.254 . S
H152 C125 0.949 . S
H153 C127 0.950 . S
H154 C134 0.949 . S
H155 C136 0.950 . S
C156 O172 1.251 . S
C156 O174 1.254 . S
N157 C158 1.333 . S
N157 C162 1.307 . S
N157 Zn163 2.020 . S
C158 N157 1.333 . S
C158 C159 1.379 . S
C158 H176 0.952 . S
C159 C158 1.379 . S
C159 C160 1.390 . S
C159 H186 0.949 . S
C160 C159 1.390 . S
C160 C161 1.357 . S
C161 C160 1.357 . S
C161 C162 1.370 . S
C161 H187 0.950 . S
C162 N157 1.307 . S
C162 C161 1.370 . S
C162 H180 0.948 . S
Zn163 N157 2.020 . S
Zn163 O172 2.039 . S
Zn163 O178 2.034 . S
Zn163 O182 2.025 . S
Zn163 O184 2.024 . S
C164 O183 1.246 . S
C164 O184 1.249 . S
N165 C166 1.307 . S
N165 C167 1.333 . S
N165 Zn171 2.020 . S
C166 N165 1.307 . S
C166 C170 1.370 . S
C166 H177 0.948 . S
C167 N165 1.333 . S
C167 C168 1.379 . S
C167 H175 0.952 . S
C168 C167 1.379 . S
C168 C169 1.390 . S
C168 H188 0.949 . S
C169 C168 1.390 . S
C169 C170 1.357 . S
C170 C166 1.370 . S
C170 C169 1.357 . S
C170 H189 0.950 . S
Zn171 N165 2.020 . S
Zn171 O174 2.025 . S
Zn171 O179 2.024 . S
Zn171 O181 2.039 . S
Zn171 O183 2.034 . S
O172 C156 1.251 . S
O172 Zn163 2.039 . S
C173 O178 1.246 . S
C173 O179 1.249 . S
O174 C156 1.254 . S
O174 Zn171 2.025 . S
H175 C167 0.952 . S
H176 C158 0.952 . S
H177 C166 0.948 . S
O178 Zn163 2.034 . S
O178 C173 1.246 . S
O179 Zn171 2.024 . S
O179 C173 1.249 . S
H180 C162 0.948 . S
O181 Zn171 2.039 . S
O181 C185 1.251 . S
O182 Zn163 2.025 . S
O182 C185 1.254 . S
O183 C164 1.246 . S
O183 Zn171 2.034 . S
O184 Zn163 2.024 . S
O184 C164 1.249 . S
C185 O181 1.251 . S
C185 O182 1.254 . S
H186 C159 0.949 . S
H187 C161 0.950 . S
H188 C168 0.949 . S
H189 C170 0.950 . S
C190 O206 1.251 1_556 S
C190 O208 1.254 1_655 S
N191 C192 1.333 . S
N191 C196 1.307 . S
N191 Zn197 2.020 . S
C192 N191 1.333 . S
C192 C193 1.379 . S
C192 H210 0.952 . S
C193 C192 1.379 . S
C193 C194 1.390 . S
C193 H220 0.949 . S
C194 C193 1.390 . S
C194 C195 1.357 . S
C195 C194 1.357 . S
C195 C196 1.370 . S
C195 H221 0.950 . S
C196 N191 1.307 . S
C196 C195 1.370 . S
C196 H214 0.948 . S
Zn197 N191 2.020 . S
Zn197 O206 2.039 . S
Zn197 O212 2.034 1_655 S
Zn197 O216 2.025 1_655 S
Zn197 O218 2.024 . S
C198 O217 1.246 . S
C198 O218 1.249 1_556 S
N199 C200 1.307 . S
N199 C201 1.333 . S
N199 Zn205 2.020 . S
C200 N199 1.307 . S
C200 C204 1.370 . S
C200 H211 0.948 . S
C201 N199 1.333 . S
C201 C202 1.379 . S
C201 H209 0.952 . S
C202 C201 1.379 . S
C202 C203 1.390 . S
C202 H222 0.949 . S
C203 C202 1.390 . S
C203 C204 1.357 . S
C204 C200 1.370 . S
C204 C203 1.357 . S
C204 H223 0.950 . S
Zn205 N199 2.020 . S
Zn205 O208 2.025 . S
Zn205 O213 2.024 . S
Zn205 O215 2.039 . S
Zn205 O217 2.034 1_455 S
O206 C190 1.251 1_554 S
O206 Zn197 2.039 . S
C207 O212 1.246 . S
C207 O213 1.249 1_554 S
O208 C190 1.254 1_455 S
O208 Zn205 2.025 . S
H209 C201 0.952 . S
H210 C192 0.952 . S
H211 C200 0.948 . S
O212 Zn197 2.034 1_455 S
O212 C207 1.246 . S
O213 Zn205 2.024 . S
O213 C207 1.249 1_556 S
H214 C196 0.948 . S
O215 Zn205 2.039 . S
O215 C219 1.251 1_556 S
O216 Zn197 2.025 1_455 S
O216 C219 1.254 . S
O217 C198 1.246 . S
O217 Zn205 2.034 1_655 S
O218 Zn197 2.024 . S
O218 C198 1.249 1_554 S
C219 O215 1.251 1_554 S
C219 O216 1.254 . S
H220 C193 0.949 . S
H221 C195 0.950 . S
H222 C202 0.949 . S
H223 C204 0.950 . S
C224 C225 1.369 . S
C224 C226 1.419 . S
C224 H228 0.930 . S
C225 C224 1.369 . S
C225 C234 1.429 . S
C226 C224 1.419 . S
C226 C227 1.363 . S
C226 H229 0.929 1_455 S
C227 C226 1.363 . S
C227 C233 1.428 . S
H228 C224 0.930 . S
H229 C226 0.929 1_655 S
S230 N231 1.613 . S
S230 N232 1.610 . S
N231 S230 1.613 . S
N231 C234 1.350 . S
N232 S230 1.610 . S
N232 C233 1.351 . S
C233 C227 1.428 . S
C233 N232 1.351 . S
C233 C234 1.434 . S
C234 C225 1.429 . S
C234 N231 1.350 . S
C234 C233 1.434 . S
C235 C236 1.369 . S
C235 C237 1.419 . S
C235 H239 0.930 . S
C236 C235 1.369 . S
C236 C245 1.429 1_565 S
C237 C235 1.419 . S
C237 C238 1.363 . S
C237 H240 0.929 . S
C238 C237 1.363 . S
C238 C244 1.428 1_565 S
H239 C235 0.930 . S
H240 C237 0.929 . S
S241 N242 1.613 . S
S241 N243 1.610 . S
N242 S241 1.613 . S
N242 C245 1.350 . S
N243 S241 1.610 . S
N243 C244 1.351 . S
C244 C238 1.428 1_545 S
C244 N243 1.351 . S
C244 C245 1.434 . S
C245 C236 1.429 1_545 S
C245 N242 1.350 . S
C245 C244 1.434 . S
C246 C247 1.369 . S
C246 C248 1.419 . S
C246 H250 0.930 . S
C247 C246 1.369 . S
C247 C256 1.429 . S
C248 C246 1.419 . S
C248 C249 1.363 . S
C248 H251 0.929 . S
C249 C248 1.363 . S
C249 C255 1.428 . S
H250 C246 0.930 . S
H251 C248 0.929 . S
S252 N253 1.613 . S
S252 N254 1.610 . S
N253 S252 1.613 . S
N253 C256 1.350 . S
N254 S252 1.610 . S
N254 C255 1.351 . S
C255 C249 1.428 . S
C255 N254 1.351 . S
C255 C256 1.434 . S
C256 C247 1.429 . S
C256 N253 1.350 . S
C256 C255 1.434 . S
C257 C258 1.369 . S
C257 C259 1.419 . S
C257 H261 0.930 . S
C258 C257 1.369 . S
C258 C267 1.429 . S
C259 C257 1.419 . S
C259 C260 1.363 . S
C259 H262 0.929 . S
C260 C259 1.363 . S
C260 C266 1.428 . S
H261 C257 0.930 . S
H262 C259 0.929 . S
S263 N264 1.613 . S
S263 N265 1.610 . S
N264 S263 1.613 . S
N264 C267 1.350 . S
N265 S263 1.610 . S
N265 C266 1.351 . S
C266 C260 1.428 . S
C266 N265 1.351 . S
C266 C267 1.434 . S
C267 C258 1.429 . S
C267 N264 1.350 . S
C267 C266 1.434 . S
C268 C269 1.369 . S
C268 C270 1.419 . S
C268 H272 0.930 . S
C269 C268 1.369 . S
C269 C278 1.429 . S
C270 C268 1.419 . S
C270 C271 1.363 . S
C270 H273 0.929 . S
C271 C270 1.363 . S
C271 C277 1.428 . S
H272 C268 0.930 . S
H273 C270 0.929 . S
S274 N275 1.613 . S
S274 N276 1.610 . S
N275 S274 1.613 . S
N275 C278 1.350 . S
N276 S274 1.610 . S
N276 C277 1.351 . S
C277 C271 1.428 . S
C277 N276 1.351 . S
C277 C278 1.434 . S
C278 C269 1.429 . S
C278 N275 1.350 . S
C278 C277 1.434 . S
C279 C280 1.369 . S
C279 C281 1.419 . S
C279 H283 0.930 . S
C280 C279 1.369 . S
C280 C289 1.429 1_565 S
C281 C279 1.419 . S
C281 C282 1.363 . S
C281 H284 0.929 . S
C282 C281 1.363 . S
C282 C288 1.428 1_565 S
H283 C279 0.930 . S
H284 C281 0.929 . S
S285 N286 1.613 . S
S285 N287 1.610 . S
N286 S285 1.613 . S
N286 C289 1.350 . S
N287 S285 1.610 . S
N287 C288 1.351 . S
C288 C282 1.428 1_545 S
C288 N287 1.351 . S
C288 C289 1.434 . S
C289 C280 1.429 1_545 S
C289 N286 1.350 . S
C289 C288 1.434 . S
C290 C291 1.369 . S
C290 C292 1.419 . S
C290 H294 0.930 . S
C291 C290 1.369 . S
C291 C300 1.429 1_556 S
C292 C290 1.419 . S
C292 C293 1.363 . S
C292 H295 0.929 . S
C293 C292 1.363 . S
C293 C299 1.428 1_556 S
H294 C290 0.930 . S
H295 C292 0.929 . S
S296 N297 1.613 . S
S296 N298 1.610 . S
N297 S296 1.613 . S
N297 C300 1.350 . S
N298 S296 1.610 . S
N298 C299 1.351 . S
C299 C293 1.428 1_554 S
C299 N298 1.351 . S
C299 C300 1.434 . S
C300 C291 1.429 1_554 S
C300 N297 1.350 . S
C300 C299 1.434 . S
C301 C302 1.369 . S
C301 C303 1.419 . S
C301 H305 0.930 . S
C302 C301 1.369 . S
C302 C311 1.429 . S
C303 C301 1.419 . S
C303 C304 1.363 . S
C303 H306 0.929 . S
C304 C303 1.363 . S
C304 C310 1.428 . S
H305 C301 0.930 . S
H306 C303 0.929 . S
S307 N308 1.613 . S
S307 N309 1.610 . S
N308 S307 1.613 . S
N308 C311 1.350 . S
N309 S307 1.610 . S
N309 C310 1.351 . S
C310 C304 1.428 . S
C310 N309 1.351 . S
C310 C311 1.434 . S
C311 C302 1.429 . S
C311 N308 1.350 . S
C311 C310 1.434 . S
C312 C313 1.369 . S
C312 C314 1.419 . S
C312 H316 0.930 . S
C313 C312 1.369 . S
C313 C322 1.429 . S
C314 C312 1.419 . S
C314 C315 1.363 . S
C314 H317 0.929 1_554 S
C315 C314 1.363 . S
C315 C321 1.428 . S
H316 C312 0.930 . S
H317 C314 0.929 1_556 S
S318 N319 1.613 . S
S318 N320 1.610 . S
N319 S318 1.613 . S
N319 C322 1.350 . S
N320 S318 1.610 . S
N320 C321 1.351 . S
C321 C315 1.428 . S
C321 N320 1.351 . S
C321 C322 1.434 . S
C322 C313 1.429 . S
C322 N319 1.350 . S
C322 C321 1.434 . S
C323 C324 1.369 . S
C323 C325 1.419 . S
C323 H327 0.930 . S
C324 C323 1.369 . S
C324 C333 1.429 . S
C325 C323 1.419 . S
C325 C326 1.363 . S
C325 H328 0.929 . S
C326 C325 1.363 . S
C326 C332 1.428 . S
H327 C323 0.930 . S
H328 C325 0.929 . S
S329 N330 1.613 . S
S329 N331 1.610 . S
N330 S329 1.613 . S
N330 C333 1.350 . S
N331 S329 1.610 . S
N331 C332 1.351 . S
C332 C326 1.428 . S
C332 N331 1.351 . S
C332 C333 1.434 . S
C333 C324 1.429 . S
C333 N330 1.350 . S
C333 C332 1.434 . S
C334 C335 1.369 . S
C334 C336 1.419 . S
C334 H338 0.930 . S
C335 C334 1.369 . S
C335 C344 1.429 . S
C336 C334 1.419 . S
C336 C337 1.363 . S
C336 H339 0.929 . S
C337 C336 1.363 . S
C337 C343 1.428 . S
H338 C334 0.930 . S
H339 C336 0.929 . S
S340 N341 1.613 1_455 S
S340 N342 1.610 1_455 S
N341 S340 1.613 1_655 S
N341 C344 1.350 . S
N342 S340 1.610 1_655 S
N342 C343 1.351 . S
C343 C337 1.428 . S
C343 N342 1.351 . S
C343 C344 1.434 . S
C344 C335 1.429 . S
C344 N341 1.350 . S
C344 C343 1.434 . S
C345 C346 1.369 . S
C345 C347 1.419 . S
C345 H349 0.930 . S
C346 C345 1.369 . S
C346 C355 1.429 . S
C347 C345 1.419 . S
C347 C348 1.363 . S
C347 H350 0.929 . S
C348 C347 1.363 . S
C348 C354 1.428 . S
H349 C345 0.930 . S
H350 C347 0.929 . S
S351 N352 1.613 . S
S351 N353 1.610 . S
N352 S351 1.613 . S
N352 C355 1.350 . S
N353 S351 1.610 . S
N353 C354 1.351 . S
C354 C348 1.428 . S
C354 N353 1.351 . S
C354 C355 1.434 . S
C355 C346 1.429 . S
C355 N352 1.350 . S
C355 C354 1.434 . S
C356 C357 1.369 . S
C356 C358 1.419 1_565 S
C356 H360 0.930 1_565 S
C357 C356 1.369 . S
C357 C366 1.429 . S
C358 C356 1.419 1_545 S
C358 C359 1.363 1_545 S
C358 H361 0.929 1_655 S
C359 C358 1.363 1_565 S
C359 C365 1.428 . S
H360 C356 0.930 1_545 S
H361 C358 0.929 1_455 S
S362 N363 1.613 . S
S362 N364 1.610 . S
N363 S362 1.613 . S
N363 C366 1.350 . S
N364 S362 1.610 . S
N364 C365 1.351 . S
C365 C359 1.428 . S
C365 N364 1.351 . S
C365 C366 1.434 . S
C366 C357 1.429 . S
C366 N363 1.350 . S
C366 C365 1.434 . S
C367 C368 1.369 . S
C367 C369 1.419 . S
C367 H371 0.930 . S
C368 C367 1.369 . S
C368 C377 1.429 . S
C369 C367 1.419 . S
C369 C370 1.363 . S
C369 H372 0.929 . S
C370 C369 1.363 . S
C370 C376 1.428 . S
H371 C367 0.930 . S
H372 C369 0.929 . S
S373 N374 1.613 . S
S373 N375 1.610 . S
N374 S373 1.613 . S
N374 C377 1.350 . S
N375 S373 1.610 . S
N375 C376 1.351 . S
C376 C370 1.428 . S
C376 N375 1.351 . S
C376 C377 1.434 . S
C377 C368 1.429 . S
C377 N374 1.350 . S
C377 C376 1.434 . S
C378 C379 1.369 . S
C378 C380 1.419 . S
C378 H382 0.930 . S
C379 C378 1.369 . S
C379 C388 1.429 . S
C380 C378 1.419 . S
C380 C381 1.363 . S
C380 H383 0.929 . S
C381 C380 1.363 . S
C381 C387 1.428 . S
H382 C378 0.930 . S
H383 C380 0.929 . S
S384 N385 1.613 . S
S384 N386 1.610 . S
N385 S384 1.613 . S
N385 C388 1.350 . S
N386 S384 1.610 . S
N386 C387 1.351 . S
C387 C381 1.428 . S
C387 N386 1.351 . S
C387 C388 1.434 . S
C388 C379 1.429 . S
C388 N385 1.350 . S
C388 C387 1.434 . S
C389 C390 1.369 . S
C389 C391 1.419 . S
C389 H393 0.930 . S
C390 C389 1.369 . S
C390 C399 1.429 . S
C391 C389 1.419 . S
C391 C392 1.363 . S
C391 H394 0.929 . S
C392 C391 1.363 . S
C392 C398 1.428 . S
H393 C389 0.930 . S
H394 C391 0.929 . S
S395 N396 1.613 . S
S395 N397 1.610 . S
N396 S395 1.613 . S
N396 C399 1.350 . S
N397 S395 1.610 . S
N397 C398 1.351 . S
C398 C392 1.428 . S
C398 N397 1.351 . S
C398 C399 1.434 . S
C399 C390 1.429 . S
C399 N396 1.350 . S
C399 C398 1.434 . S
C400 C401 1.369 . S
C400 C402 1.419 . S
C400 H404 0.930 . S
C401 C400 1.369 . S
C401 C410 1.429 1_565 S
C402 C400 1.419 . S
C402 C403 1.363 . S
C402 H405 0.929 . S
C403 C402 1.363 . S
C403 C409 1.432 1_565 S
H404 C400 0.930 . S
H405 C402 0.929 . S
S406 N407 1.613 . S
S406 N408 1.610 . S
N407 S406 1.613 . S
N407 C410 1.350 1_554 S
N408 S406 1.610 . S
N408 C409 1.344 1_554 S
C409 C403 1.432 1_545 S
C409 N408 1.344 1_556 S
C409 C410 1.437 . S
C410 C401 1.429 1_545 S
C410 N407 1.350 1_556 S
C410 C409 1.437 . S
C411 C412 1.369 . S
C411 C413 1.419 . S
C411 H415 0.930 . S
C412 C411 1.369 . S
C412 C421 1.429 . S
C413 C411 1.419 . S
C413 C414 1.363 . S
C413 H416 0.929 . S
C414 C413 1.363 . S
C414 C420 1.428 . S
H415 C411 0.930 . S
H416 C413 0.929 . S
S417 N418 1.613 . S
S417 N419 1.610 . S
N418 S417 1.613 . S
N418 C421 1.350 . S
N419 S417 1.610 . S
N419 C420 1.351 . S
C420 C414 1.428 . S
C420 N419 1.351 . S
C420 C421 1.434 . S
C421 C412 1.429 . S
C421 N418 1.350 . S
C421 C420 1.434 . S
C422 C423 1.369 . S
C422 C424 1.419 . S
C422 H426 0.930 . S
C423 C422 1.369 . S
C423 C432 1.429 . S
C424 C422 1.419 . S
C424 C425 1.363 . S
C424 H427 0.929 . S
C425 C424 1.363 . S
C425 C431 1.428 . S
H426 C422 0.930 . S
H427 C424 0.929 . S
S428 N429 1.613 . S
S428 N430 1.610 . S
N429 S428 1.613 . S
N429 C432 1.350 1_556 S
N430 S428 1.610 . S
N430 C431 1.351 1_556 S
C431 C425 1.428 . S
C431 N430 1.351 1_554 S
C431 C432 1.434 . S
C432 C423 1.429 . S
C432 N429 1.350 1_554 S
C432 C431 1.434 . S
C433 C434 1.369 . S
C433 C435 1.419 . S
C433 H437 0.930 . S
C434 C433 1.369 . S
C434 C443 1.429 . S
C435 C433 1.419 . S
C435 C436 1.363 . S
C435 H438 0.929 . S
C436 C435 1.363 . S
C436 C442 1.428 . S
H437 C433 0.930 . S
H438 C435 0.929 . S
S439 N440 1.613 . S
S439 N441 1.610 . S
N440 S439 1.613 . S
N440 C443 1.350 . S
N441 S439 1.610 . S
N441 C442 1.351 . S
C442 C436 1.428 . S
C442 N441 1.351 . S
C442 C443 1.434 . S
C443 C434 1.429 . S
C443 N440 1.350 . S
C443 C442 1.434 . S
C444 C445 1.369 . S
C444 C446 1.419 . S
C444 H448 0.930 . S
C445 C444 1.369 . S
C445 C454 1.429 . S
C446 C444 1.419 . S
C446 C447 1.363 . S
C446 H449 0.929 . S
C447 C446 1.363 . S
C447 C453 1.428 . S
H448 C444 0.930 . S
H449 C446 0.929 . S
S450 N451 1.613 1_554 S
S450 N452 1.610 . S
N451 S450 1.613 1_556 S
N451 C454 1.350 . S
N452 S450 1.610 . S
N452 C453 1.351 1_554 S
C453 C447 1.428 . S
C453 N452 1.351 1_556 S
C453 C454 1.434 . S
C454 C445 1.429 . S
C454 N451 1.350 . S
C454 C453 1.434 . S
C455 C456 1.369 . S
C455 C457 1.419 . S
C455 H459 0.930 . S
C456 C455 1.369 . S
C456 C465 1.429 . S
C457 C455 1.419 . S
C457 C458 1.363 . S
C457 H460 0.929 . S
C458 C457 1.363 . S
C458 C464 1.428 . S
H459 C455 0.930 . S
H460 C457 0.929 . S
S461 N462 1.613 1_556 S
S461 N463 1.610 1_556 S
N462 S461 1.613 1_554 S
N462 C465 1.350 . S
N463 S461 1.610 1_554 S
N463 C464 1.351 . S
C464 C458 1.428 . S
C464 N463 1.351 . S
C464 C465 1.434 . S
C465 C456 1.429 . S
C465 N462 1.350 . S
C465 C464 1.434 . S
C466 C467 1.369 . S
C466 C468 1.419 . S
C466 H470 0.930 . S
C467 C466 1.369 . S
C467 C476 1.429 . S
C468 C466 1.419 . S
C468 C469 1.363 . S
C468 H471 0.929 . S
C469 C468 1.363 . S
C469 C475 1.428 . S
H470 C466 0.930 . S
H471 C468 0.929 . S
S472 N473 1.613 . S
S472 N474 1.610 . S
N473 S472 1.613 . S
N473 C476 1.350 . S
N474 S472 1.610 . S
N474 C475 1.351 . S
C475 C469 1.428 . S
C475 N474 1.351 . S
C475 C476 1.434 . S
C476 C467 1.429 . S
C476 N473 1.350 . S
C476 C475 1.434 . S
C477 C478 1.369 . S
C477 C479 1.419 . S
C477 H481 0.930 . S
C478 C477 1.369 . S
C478 C487 1.429 . S
C479 C477 1.419 . S
C479 C480 1.363 . S
C479 H482 0.929 . S
C480 C479 1.363 . S
C480 C486 1.428 . S
H481 C477 0.930 . S
H482 C479 0.929 . S
S483 N484 1.613 . S
S483 N485 1.610 . S
N484 S483 1.613 . S
N484 C487 1.350 . S
N485 S483 1.610 . S
N485 C486 1.351 . S
C486 C480 1.428 . S
C486 N485 1.351 . S
C486 C487 1.434 . S
C487 C478 1.429 . S
C487 N484 1.350 . S
C487 C486 1.434 . S
C225 C6 2.491 . S
C227 C88 2.498 . S
C236 C20 2.582 . S
C238 C130 2.588 1_565 S
C249 C160 0.814 . S
C247 N26 0.808 . S
C258 N37 1.003 . S
C260 C194 1.018 . S
C271 C151 2.179 . S
C269 C9 2.172 . S
C282 C105 1.692 1_565 S
C280 N15 1.681 . S
C293 C198 1.173 . S
C291 C31 1.169 . S
C304 C164 1.182 . S
C302 C39 1.166 . S
C313 N4 2.186 . S
C315 C219 2.212 . S
C326 C126 1.261 . S
C324 C28 1.228 . S
C335 C42 1.067 . S
C337 C101 1.071 . S
C346 C17 2.330 . S
C348 C185 2.347 . S
C359 C117 2.592 1_565 S
C357 C50 2.581 . S
C368 C61 2.370 . S
C370 C139 2.396 . S
C379 N70 1.000 . S
C381 C169 1.012 . S
C390 N81 0.885 . S
C392 C203 0.884 . S
C401 N48 1.692 . S
C403 C122 1.718 1_565 S
C414 C96 2.134 . S
C412 C64 2.115 . S
C425 C207 1.082 . S
C423 C75 1.058 . S
C436 C173 1.199 . S
C434 C86 1.183 . S
C445 C53 2.470 . S
C447 C190 2.467 . S
C458 C135 1.035 . S
C456 C72 1.034 . S
C469 C92 1.222 . S
C467 C83 1.186 . S
C478 N59 2.144 . S
C480 C156 2.159 . S
