# Generated by pormake.
# Topology zzz, (3,6)-cn, num edge types: 1
# Building blocks:
#     Node 0, Type 0, BuildingBlock: ESEHIV_clean_linker_0, # of connection points: 3
#     Node 1, Type 0, BuildingBlock: ESEHIV_clean_linker_0, # of connection points: 3
#     Node 2, Type 0, BuildingBlock: ESEHIV_clean_linker_0, # of connection points: 3
#     Node 3, Type 0, BuildingBlock: ESEHIV_clean_linker_0, # of connection points: 3
#     Node 4, Type 0, BuildingBlock: ESEHIV_clean_linker_0, # of connection points: 3
#     Node 5, Type 0, BuildingBlock: ESEHIV_clean_linker_0, # of connection points: 3
#     Node 6, Type 0, BuildingBlock: ESEHIV_clean_linker_0, # of connection points: 3
#     Node 7, Type 0, BuildingBlock: ESEHIV_clean_linker_0, # of connection points: 3
#     Node 8, Type 1, BuildingBlock: KUMJIN_clean_sbu_0, # of connection points: 6
#     Node 9, Type 1, BuildingBlock: KUMJIN_clean_sbu_0, # of connection points: 6
#     Node 10, Type 1, BuildingBlock: KUMJIN_clean_sbu_0, # of connection points: 6
#     Node 11, Type 1, BuildingBlock: KUMJIN_clean_sbu_0, # of connection points: 6
#     Edge 12, Type (0, 1), BuildingBlock: AJUNOK_clean_linker_0, # of connection points: 2
#     Edge 13, Type (0, 1), BuildingBlock: AJUNOK_clean_linker_0, # of connection points: 2
#     Edge 14, Type (0, 1), BuildingBlock: AJUNOK_clean_linker_0, # of connection points: 2
#     Edge 15, Type (0, 1), BuildingBlock: AJUNOK_clean_linker_0, # of connection points: 2
#     Edge 16, Type (0, 1), BuildingBlock: AJUNOK_clean_linker_0, # of connection points: 2
#     Edge 17, Type (0, 1), BuildingBlock: AJUNOK_clean_linker_0, # of connection points: 2
#     Edge 18, Type (0, 1), BuildingBlock: AJUNOK_clean_linker_0, # of connection points: 2
#     Edge 19, Type (0, 1), BuildingBlock: AJUNOK_clean_linker_0, # of connection points: 2
#     Edge 20, Type (0, 1), BuildingBlock: AJUNOK_clean_linker_0, # of connection points: 2
#     Edge 21, Type (0, 1), BuildingBlock: AJUNOK_clean_linker_0, # of connection points: 2
#     Edge 22, Type (0, 1), BuildingBlock: AJUNOK_clean_linker_0, # of connection points: 2
#     Edge 23, Type (0, 1), BuildingBlock: AJUNOK_clean_linker_0, # of connection points: 2
#     Edge 24, Type (0, 1), BuildingBlock: AJUNOK_clean_linker_0, # of connection points: 2
#     Edge 25, Type (0, 1), BuildingBlock: AJUNOK_clean_linker_0, # of connection points: 2
#     Edge 26, Type (0, 1), BuildingBlock: AJUNOK_clean_linker_0, # of connection points: 2
#     Edge 27, Type (0, 1), BuildingBlock: AJUNOK_clean_linker_0, # of connection points: 2
#     Edge 28, Type (0, 1), BuildingBlock: AJUNOK_clean_linker_0, # of connection points: 2
#     Edge 29, Type (0, 1), BuildingBlock: AJUNOK_clean_linker_0, # of connection points: 2
#     Edge 30, Type (0, 1), BuildingBlock: AJUNOK_clean_linker_0, # of connection points: 2
#     Edge 31, Type (0, 1), BuildingBlock: AJUNOK_clean_linker_0, # of connection points: 2
#     Edge 32, Type (0, 1), BuildingBlock: AJUNOK_clean_linker_0, # of connection points: 2
#     Edge 33, Type (0, 1), BuildingBlock: AJUNOK_clean_linker_0, # of connection points: 2
#     Edge 34, Type (0, 1), BuildingBlock: AJUNOK_clean_linker_0, # of connection points: 2
#     Edge 35, Type (0, 1), BuildingBlock: AJUNOK_clean_linker_0, # of connection points: 2
# Relax obj value: 0.421
# Max RMSD: 0.238
# Mean RMSD: 0.217
data_MOF--net-zzz--node1-KUMJIN_clean_sbu_0--node2-ESEHIV_clean_linker_0--edge1-AJUNOK_clean_linker_0
_symmetry_space_group_name_H-M    P1
_symmetry_Int_Tables_number       1
_symmetry_cell_setting            triclinic
loop_
_symmetry_equiv_pos_as_xyz
'x, y, z'
_cell_length_a     31.567769
_cell_length_b     31.506233
_cell_length_c     11.300318
_cell_angle_alpha  91.562255
_cell_angle_beta   89.697201
_cell_angle_gamma 89.913433
loop_
_atom_site_label
_atom_site_type_symbol
_atom_site_fract_x
_atom_site_fract_y
_atom_site_fract_z
_atom_type_partial_charge
H0 H 0.83713 0.46642 0.31659 0.0
H1 H 0.72574 0.45544 0.10839 0.0
H2 H 0.74655 0.56954 0.32311 0.0
C3 C 0.80724 0.47989 0.28946 0.0
C4 C 0.79613 0.5204 0.33298 0.0
C5 C 0.78251 0.45706 0.20789 0.0
C6 C 0.74403 0.47411 0.17077 0.0
C7 C 0.72883 0.51427 0.21013 0.0
C8 C 0.75619 0.53823 0.29178 0.0
H9 H 0.93749 0.82864 0.31131 0.0
H10 H 0.94371 0.71816 0.09308 0.0
H11 H 0.05895 0.76951 0.24378 0.0
C12 C 0.95668 0.80484 0.26896 0.0
C13 C 1.00026 0.80358 0.29616 0.0
C14 C 0.93772 0.77834 0.18166 0.0
C15 C 0.96039 0.74262 0.14264 0.0
C16 C 1.00446 0.73949 0.15283 0.0
C17 C 0.025 0.77079 0.23194 0.0
H18 H 0.70982 0.95103 0.35778 0.0
H19 H 0.81087 0.95862 0.11932 0.0
H20 H 0.7995 0.05468 0.39824 0.0
C21 C 0.73925 0.96659 0.3355 0.0
C22 C 0.75134 1.00367 0.39986 0.0
C23 C 0.75359 0.96081 0.21902 0.0
C24 C 0.79579 0.97107 0.19942 0.0
C25 C 0.81327 1.00693 0.25668 0.0
C26 C 0.7891 0.02529 0.35608 0.0
H27 H 0.44378 0.74209 0.4114 0.0
H28 H 0.55239 0.82389 0.38206 0.0
H29 H 0.4336 0.8531 0.21048 0.0
C30 C 0.45772 0.77168 0.38362 0.0
C31 C 0.4343 0.79841 0.31196 0.0
C32 C 0.50017 0.77975 0.41083 0.0
C33 C 0.51942 0.81748 0.3637 0.0
C34 C 0.4951 0.84621 0.2919 0.0
C35 C 0.45268 0.83514 0.27017 0.0
H36 H 0.24815 0.44648 1.02433 0.0
H37 H 0.34853 0.42044 0.25846 0.0
H38 H 0.30083 0.54916 0.23363 0.0
C39 C 0.27204 0.45809 0.08561 0.0
C40 C 0.27198 0.50144 0.11352 0.0
C41 C 0.29342 0.42926 0.15643 0.0
C42 C 0.32782 0.44416 0.22305 0.0
C43 C 0.33206 0.48763 0.2552 0.0
C44 C 0.30177 0.51638 0.20296 0.0
H45 H 0.94769 0.20747 0.19654 0.0
H46 H 0.95419 0.32162 0.39775 0.0
H47 H 0.04635 0.29913 0.11806 0.0
C48 C 0.96281 0.23811 0.20593 0.0
C49 C 0.99793 0.24871 0.13458 0.0
C50 C 0.94607 0.26556 0.29281 0.0
C51 C 0.96728 0.30221 0.3255 0.0
C52 C 1.00342 0.3157 0.2664 0.0
C53 C 0.01944 0.28851 0.16877 0.0
H54 H 0.34844 0.12248 0.18556 0.0
H55 H 0.24376 0.12137 0.41341 0.0
H56 H 0.23989 0.04525 0.09017 0.0
C57 C 0.31623 0.11218 0.19953 0.0
C58 C 0.29746 0.08434 0.11534 0.0
C59 C 0.30128 0.11243 0.31637 0.0
C60 C 0.25735 0.11171 0.32858 0.0
C61 C 0.2334 0.08557 0.25218 0.0
C62 C 0.2553 0.06873 0.14657 0.0
H63 H 0.59133 0.32711 0.10769 0.0
H64 H 0.47558 0.25756 0.154 0.0
H65 H 0.59262 0.21431 0.30848 0.0
C66 C 0.57516 0.29888 0.13697 0.0
C67 C 0.59652 0.27069 0.20964 0.0
C68 C 0.53193 0.29489 0.11304 0.0
C69 C 0.50942 0.26006 0.16527 0.0
C70 C 0.53173 0.22886 0.23319 0.0
C71 C 0.57529 0.2353 0.25152 0.0
Eu72 Eu 0.05526 1.01164 0.82038 0.0
C73 C 0.939 0.96063 0.51857 0.0
C74 C 0.96613 0.95099 0.31905 0.0
C75 C 0.91287 0.90305 0.39283 0.0
C76 C 0.96292 0.97574 0.42408 0.0
C77 C 0.91325 0.92437 0.5022 0.0
C78 C 0.94167 0.91443 0.30489 0.0
C79 C 0.89619 0.92731 0.70964 0.0
N80 N 0.94304 0.97931 0.6276 0.0
C81 C 0.92254 0.96256 0.72286 0.0
C82 C 0.8909 0.90851 0.59832 0.0
Eu83 Eu 0.97834 0.04567 0.62671 0.0
N84 N 0.98515 1.01259 0.43652 0.0
C85 C 1.00554 0.02879 0.34024 0.0
C86 C 0.9942 0.9634 0.23106 0.0
C87 C 0.01305 1.00314 0.23994 0.0
H88 H 0.92546 0.97573 0.80972 0.0
H89 H 0.03314 0.01397 0.1696 0.0
H90 H 0.94461 0.89548 0.2249 0.0
H91 H 0.88006 0.91464 0.78571 0.0
H92 H 0.0176 0.06088 0.34087 0.0
H93 H 0.03576 0.13222 0.178 0.0
H94 H 0.99976 0.94325 0.15367 0.0
H95 H 0.14833 0.96873 0.72875 0.0
H96 H 0.0147 0.07292 0.04895 0.0
H97 H 0.22414 0.98738 0.72375 0.0
H98 H 0.89225 0.87602 0.37958 0.0
H99 H 0.10702 0.16337 0.15811 0.0
H100 H 0.18036 0.15852 0.07067 0.0
H101 H 0.87102 0.88064 0.5885 0.0
H102 H 0.23153 0.1198 0.94292 0.0
N103 N 0.07435 0.06715 0.95967 0.0
C104 C 0.04663 0.08412 0.04179 0.0
C105 C 0.09883 0.13534 0.10617 0.0
C106 C 0.12801 0.11638 0.02801 0.0
C107 C 0.05842 0.1182 0.11619 0.0
C108 C 0.11477 0.08147 0.95674 0.0
H109 H 0.24884 0.05393 0.82258 0.0
N110 N 0.12995 0.02413 0.82896 0.0
C111 C 0.20174 1.00816 0.76947 0.0
C112 C 0.14352 0.05943 0.88777 0.0
C113 C 0.15871 0.99758 0.77337 0.0
C114 C 0.21555 0.04584 0.82419 0.0
C115 C 0.18642 0.07183 0.88517 0.0
O116 O 0.08828 0.95704 0.89442 0.0
O117 O 1.01138 0.98472 0.67613 0.0
O118 O 0.94463 0.05334 0.81045 0.0
O119 O 0.99124 0.0167 0.92713 0.0
O120 O 0.07258 0.96426 0.66863 0.0
O121 O 0.02684 0.97454 0.9587 0.0
O122 O 0.91014 0.04595 0.61407 0.0
O123 O 0.01425 0.06871 0.78654 0.0
O124 O 0.09352 0.03522 0.66018 0.0
O125 O 0.04233 0.05884 0.53105 0.0
O126 O 1.00762 0.11196 0.65814 0.0
O127 O 0.94506 0.09275 0.51891 0.0
C128 C 0.03687 0.95981 0.61618 0.0
C129 C 0.03812 0.90212 0.91783 0.0
C130 C 0.9781 0.85304 0.89083 0.0
C131 C 0.9942 0.89365 0.92099 0.0
C132 C 1.0073 0.82198 0.84941 0.0
C133 C 0.06593 0.87046 0.87695 0.0
C134 C 0.05041 0.83112 0.84091 0.0
C135 C 0.95411 0.03653 0.9139 0.0
C136 C 0.05472 0.94458 0.95014 0.0
C137 C 0.199 0.10895 0.94676 0.0
C138 C 0.16991 0.13097 1.01941 0.0
C139 C 0.02338 0.10738 0.76286 0.0
C140 C 0.87379 0.10915 0.58057 0.0
C141 C 0.86391 0.14141 0.50329 0.0
C142 C 0.83509 0.17363 0.53734 0.0
C143 C 0.81315 0.17115 0.6447 0.0
C144 C 0.85134 0.10674 0.68804 0.0
C145 C 0.82124 0.13762 0.71911 0.0
C146 C 0.08261 0.0507 0.55677 0.0
C147 C 0.90765 0.0787 0.54809 0.0
H148 H 0.9728 0.91864 0.94914 0.0
H149 H 0.99777 0.78981 0.82855 0.0
H150 H 0.09971 0.87621 0.87155 0.0
H151 H 0.07238 0.80743 0.80887 0.0
H152 H 0.88231 0.1442 0.4224 0.0
H153 H 0.79267 0.19687 0.67515 0.0
H154 H 0.85774 0.08179 0.74947 0.0
H155 H 0.80634 0.13731 0.80463 0.0
Eu156 Eu 0.5332 0.0861 0.82338 0.0
C157 C 0.58099 0.917 0.61669 0.0
C158 C 0.60745 0.92236 0.41144 0.0
C159 C 0.638 0.87107 0.54927 0.0
C160 C 0.58237 0.93834 0.5104 0.0
C161 C 0.608 0.88212 0.63436 0.0
C162 C 0.63782 0.89049 0.44056 0.0
C163 C 0.56933 0.86629 0.81061 0.0
N164 N 0.55144 0.92839 0.69992 0.0
C165 C 0.54253 0.90022 0.78808 0.0
C166 C 0.60331 0.85808 0.73545 0.0
Eu167 Eu 0.50887 0.99039 0.66372 0.0
N168 N 0.55837 0.97374 0.50314 0.0
C169 C 0.56124 0.9961 0.40241 0.0
C170 C 0.59978 0.93792 0.28865 0.0
C171 C 0.584 0.98129 0.30354 0.0
H172 H 0.51399 0.90259 0.84098 0.0
H173 H 0.58216 1.00273 0.23073 0.0
H174 H 0.66226 0.87843 0.38301 0.0
H175 H 0.56292 0.84573 0.8838 0.0
H176 H 0.54397 0.0247 0.39096 0.0
H177 H 0.46244 0.0612 0.2663 0.0
H178 H 0.60129 0.89451 0.09508 0.0
H179 H 0.5298 0.17685 0.66704 0.0
H180 H 0.50922 0.04626 0.10452 0.0
H181 H 0.49433 0.24617 0.67431 0.0
H182 H 0.66043 0.84567 0.56413 0.0
H183 H 0.41755 0.12504 0.26906 0.0
H184 H 0.39547 0.19141 0.17395 0.0
H185 H 0.62382 0.83124 0.75152 0.0
H186 H 0.40378 0.24154 1.01338 0.0
N187 N 0.49008 0.09848 0.99833 0.0
C188 C 0.48903 0.07293 0.09485 0.0
C189 C 0.43746 0.11793 0.19272 0.0
C190 C 0.43997 0.14555 0.09892 0.0
C191 C 0.46246 0.08177 0.19111 0.0
C192 C 0.46718 0.13526 1.00216 0.0
H193 H 0.44157 0.26294 0.8307 0.0
N194 N 0.49802 0.15354 0.81973 0.0
C195 C 0.48715 0.2231 0.74073 0.0
C196 C 0.47142 0.16348 0.91099 0.0
C197 C 0.50733 0.18365 0.73764 0.0
C198 C 0.45741 0.23238 0.82888 0.0
C199 C 0.44945 0.20272 0.9159 0.0
O200 O 0.57805 0.13661 0.78958 0.0
O201 O 0.56538 0.02981 0.72097 0.0
O202 O 0.51321 0.97404 0.85726 0.0
O203 O 0.54947 0.02937 0.94705 0.0
O204 O 0.57805 0.09 0.66547 0.0
O205 O 0.57848 0.10676 0.95915 0.0
O206 O 0.4789 0.92903 0.62618 0.0
O207 O 0.47697 0.04671 0.76331 0.0
O208 O 0.49018 0.10466 0.6715 0.0
O209 O 0.50513 0.04947 0.54181 0.0
O210 O 0.45492 0.98762 0.79972 0.0
O211 O 0.46054 0.98368 0.52743 0.0
C212 C 0.58909 0.0509 0.65073 0.0
C213 C 0.64338 0.12297 0.86694 0.0
C214 C 0.69793 0.06956 0.86908 0.0
C215 C 0.65584 0.08072 0.85171 0.0
C216 C 0.72888 0.10135 0.8699 0.0
C217 C 0.6739 0.15514 0.86785 0.0
C218 C 0.71689 0.14416 0.86499 0.0
C219 C 0.53344 0.99013 0.9489 0.0
C220 C 0.59852 0.13183 0.88695 0.0
C221 C 0.42119 0.21186 1.00917 0.0
C222 C 0.41656 0.1834 0.10067 0.0
C223 C 0.44843 0.0274 0.82351 0.0
C224 C 0.40679 0.93691 0.58911 0.0
C225 C 0.38206 0.97111 0.63004 0.0
C226 C 0.33916 0.9715 0.60275 0.0
C227 C 0.31873 0.93271 0.57792 0.0
C228 C 0.38719 0.89797 0.56184 0.0
C229 C 0.34285 0.89548 0.56284 0.0
C230 C 0.49471 0.0901 0.56179 0.0
C231 C 0.45109 0.94487 0.55633 0.0
H232 H 0.63207 0.056 0.85651 0.0
H233 H 0.76134 0.09319 0.88934 0.0
H234 H 0.66463 0.18822 0.8752 0.0
H235 H 0.74061 0.16887 0.87019 0.0
H236 H 0.39718 1.00152 0.64651 0.0
H237 H 0.28536 0.93212 0.55614 0.0
H238 H 0.40581 0.87057 0.53362 0.0
H239 H 0.32744 0.86582 0.53887 0.0
Eu240 Eu 0.56054 0.51971 0.66262 0.0
C241 C 0.39035 0.52273 0.77121 0.0
C242 C 0.36244 0.57259 0.63192 0.0
C243 C 0.32454 0.50729 0.66728 0.0
C244 C 0.39428 0.56028 0.71168 0.0
C245 C 0.35386 0.49729 0.75496 0.0
C246 C 0.32898 0.54484 0.60525 0.0
C247 C 0.37626 0.4556 0.91831 0.0
N248 N 0.42059 0.51243 0.85047 0.0
C249 C 0.41205 0.48135 0.92993 0.0
C250 C 0.34753 0.46288 0.82827 0.0
Eu251 Eu 0.48218 0.55718 0.85892 0.0
N252 N 0.42851 0.58532 0.73344 0.0
C253 C 0.42853 0.626 0.69374 0.0
C254 C 0.3652 0.61238 0.58101 0.0
C255 C 0.39784 0.63966 0.61475 0.0
H256 H 0.43169 0.47697 1.00598 0.0
H257 H 0.3992 0.67149 0.58136 0.0
H258 H 0.30543 0.55289 0.54008 0.0
H259 H 0.3706 0.43056 0.9801 0.0
H260 H 0.45104 0.64907 0.72496 0.0
H261 H 0.6463 0.38882 0.86193 0.0
H262 H 0.34149 0.62283 0.51918 0.0
H263 H 0.60786 0.61047 0.55367 0.0
H264 H 0.59017 0.42133 0.7501 0.0
H265 H 0.66867 0.65485 0.59679 0.0
H266 H 0.29748 0.48699 0.64972 0.0
H267 H 0.70681 0.43099 0.92745 0.0
H268 H 0.74551 0.50212 0.93159 0.0
H269 H 0.31974 0.44292 0.81926 0.0
H270 H 0.75073 0.57438 0.86284 0.0
N271 N 0.61469 0.4846 0.76724 0.0
C272 C 0.61451 0.44177 0.7854 0.0
C273 C 0.6819 0.44658 0.88123 0.0
C274 C 0.68438 0.48935 0.85193 0.0
C275 C 0.64734 0.42249 0.84537 0.0
C276 C 0.65015 0.50755 0.79139 0.0
H277 H 0.72306 0.63122 0.7364 0.0
N278 N 0.62127 0.56461 0.68589 0.0
C279 C 0.66418 0.62577 0.64415 0.0
C280 C 0.65315 0.54884 0.75197 0.0
C281 C 0.62831 0.60087 0.62383 0.0
C282 C 0.69489 0.61219 0.72203 0.0
C283 C 0.69044 0.57264 0.77323 0.0
O284 O 0.59785 0.51943 0.49989 0.0
O285 O 0.48868 0.519 0.68382 0.0
O286 O 0.49747 0.49098 0.92379 0.0
O287 O 0.52993 0.4616 0.75794 0.0
O288 O 0.51343 0.53633 0.5208 0.0
O289 O 0.57031 0.46083 0.55815 0.0
O290 O 0.4493 0.56063 0.02889 0.0
O291 O 0.55453 0.55478 0.83953 0.0
O292 O 0.5427 0.58643 0.60081 0.0
O293 O 0.51384 0.61558 0.77215 0.0
O294 O 0.5298 0.54379 1.00528 0.0
O295 O 0.46613 0.61865 0.94315 0.0
C296 C 0.47871 0.52933 0.57745 0.0
C297 C 0.63988 0.45746 0.47885 0.0
C298 C 0.68139 0.39365 0.43489 0.0
C299 C 0.64205 0.41413 0.44993 0.0
C300 C 0.71886 0.41641 0.45211 0.0
C301 C 0.67783 0.48011 0.4965 0.0
C302 C 0.71687 0.45938 0.48438 0.0
C303 C 0.51271 0.45748 0.86536 0.0
C304 C 0.59796 0.47827 0.48862 0.0
C305 C 0.7228 0.55581 0.84155 0.0
C306 C 0.71989 0.51425 0.88011 0.0
C307 C 0.56496 0.5462 0.94705 0.0
C308 C 0.3999 0.617 0.04223 0.0
C309 C 0.39329 0.65994 0.06928 0.0
C310 C 0.35217 0.67591 0.08979 0.0
C311 C 0.31744 0.6488 0.0825 0.0
C312 C 0.36461 0.58988 0.03433 0.0
C313 C 0.32384 0.60604 0.05467 0.0
C314 C 0.52921 0.62005 0.66314 0.0
C315 C 0.44373 0.60141 0.0262 0.0
H316 H 0.61298 0.3966 0.43382 0.0
H317 H 0.74936 0.40115 0.43922 0.0
H318 H 0.67753 0.51375 0.51851 0.0
H319 H 0.74575 0.47679 0.49725 0.0
H320 H 0.42048 0.68077 0.07913 0.0
H321 H 0.28574 0.66042 0.1015 0.0
H322 H 0.36835 0.55626 1.01561 0.0
H323 H 0.29701 0.58539 0.05365 0.0
Eu324 Eu 0.05927 0.55845 0.60783 0.0
C325 C 0.04239 0.39553 0.72618 0.0
C326 C 0.97777 0.35774 0.67477 0.0
C327 C 0.04422 0.31923 0.68368 0.0
C328 C 0.99879 0.39587 0.70757 0.0
C329 C 0.0655 0.3572 0.71033 0.0
C330 C 1.00057 0.31951 0.66627 0.0
C331 C 0.12992 0.39704 0.73306 0.0
N332 N 0.06254 0.43279 0.75214 0.0
C333 C 0.10599 0.43401 0.74944 0.0
C334 C 0.10961 0.35824 0.71723 0.0
Eu335 Eu 0.01607 0.48964 0.81418 0.0
N336 N 0.97692 0.43302 0.72219 0.0
C337 C 0.93384 0.43333 0.70702 0.0
C338 C 0.93419 0.35882 0.65453 0.0
C339 C 0.91232 0.39688 0.6691 0.0
H340 H 0.12315 0.4631 0.75489 0.0
H341 H 0.87843 0.39782 0.65579 0.0
H342 H 0.9849 0.28973 0.64716 0.0
H343 H 0.16417 0.39864 0.73153 0.0
H344 H 0.91483 0.46059 0.73037 0.0
H345 H 0.14214 0.6868 0.85953 0.0
H346 H 0.91686 0.33038 0.63018 0.0
H347 H 1.0114 0.57286 0.34381 0.0
H348 H 0.13283 0.61555 0.78382 0.0
H349 H 0.96776 0.62742 0.25112 0.0
H350 H 0.06139 0.28951 0.67403 0.0
H351 H 0.09735 0.74426 0.79051 0.0
H352 H 0.03946 0.76862 0.65369 0.0
H353 H 0.12832 0.32958 0.70474 0.0
H354 H 0.98894 0.75149 0.49589 0.0
N355 N 0.07839 0.62894 0.67695 0.0
C356 C 0.1107 0.63857 0.75407 0.0
C357 C 0.09149 0.71246 0.75771 0.0
C358 C 0.06056 0.70363 0.67279 0.0
C359 C 0.11706 0.67995 0.79692 0.0
C360 C 0.05526 0.66117 0.63215 0.0
H361 H 0.96124 0.69875 0.34668 0.0
N362 N 0.02871 0.61236 0.49167 0.0
C363 C 0.9846 0.63486 0.33223 0.0
C364 C 0.02883 0.65229 0.53821 0.0
C365 C 1.00968 0.6041 0.3848 0.0
C366 C 0.98117 0.67507 0.38577 0.0
C367 C 1.00517 0.68486 0.48629 0.0
O368 O 0.09573 0.56917 0.44574 0.0
O369 O 0.04705 0.48829 0.63593 0.0
O370 O 0.08066 0.50394 0.89937 0.0
O371 O 0.10764 0.55021 0.76155 0.0
O372 O 0.02355 0.51383 0.48319 0.0
O373 O 0.11827 0.52392 0.56948 0.0
O374 O 0.02354 0.45003 0.96681 0.0
O375 O 0.02333 0.55978 0.77966 0.0
O376 O 0.98716 0.55878 0.56891 0.0
O377 O 0.95754 0.51868 0.71698 0.0
O378 O 0.02443 0.54378 0.95348 0.0
O379 O 0.96167 0.47585 0.92805 0.0
C380 C 0.02902 0.47887 0.53731 0.0
C381 C 0.11851 0.50144 0.36976 0.0
C382 C 0.14522 0.43243 0.29209 0.0
C383 C 0.14897 0.4688 0.36883 0.0
C384 C 0.10792 0.4282 0.2249 0.0
C385 C 0.08381 0.49753 0.29327 0.0
C386 C 0.07781 0.46057 0.22539 0.0
C387 C 0.11112 0.52969 0.86306 0.0
C388 C 0.12006 0.53634 0.46087 0.0
C389 C 1.00748 0.72634 0.53327 0.0
C390 C 0.03589 0.73594 0.62445 0.0
C391 C 0.02835 0.57565 0.88491 0.0
C392 C 0.9647 0.40455 0.99118 0.0
C393 C 0.92143 0.39996 1.01232 0.0
C394 C 0.90286 0.35949 1.01746 0.0
C395 C 0.92698 0.32329 0.99062 0.0
C396 C 0.98923 0.36775 0.96985 0.0
C397 C 0.96992 0.32778 0.96313 0.0
C398 C 0.95345 0.54144 0.61934 0.0
C399 C 0.98296 0.4478 0.98702 0.0
H400 H 0.17644 0.47333 0.42452 0.0
H401 H 0.10097 0.39983 0.17321 0.0
H402 H 0.06032 0.52232 0.2884 0.0
H403 H 0.04932 0.45688 0.17398 0.0
H404 H 0.90226 0.42807 0.03006 0.0
H405 H 0.91279 0.29202 0.99085 0.0
H406 H 0.023 0.3698 0.95438 0.0
H407 H 0.9886 0.30017 0.93811 0.0
C408 C 0.17972 0.03354 0.34317 0.0
C409 C 0.18913 0.07453 0.30168 0.0
C410 C 0.14538 0.02601 0.42337 0.0
C411 C 0.11761 0.05873 0.46508 0.0
H412 H 0.20085 1.00746 0.32019 0.0
H413 H 0.1413 0.99427 0.45573 0.0
S414 S 0.13033 0.17247 0.39852 0.0
N415 N 0.16858 0.14891 0.32079 0.0
N416 N 0.10406 0.13412 0.46303 0.0
C417 C 0.12614 0.0995 0.42332 0.0
C418 C 0.16152 0.10744 0.3444 0.0
C419 C 0.5367 0.15199 0.29527 0.0
C420 C 0.51314 0.19043 0.29605 0.0
C421 C 0.52951 0.11964 0.37744 0.0
C422 C 0.49683 0.12223 0.46289 0.0
H423 H 0.56322 0.1479 0.23473 0.0
H424 H 0.55161 0.09351 0.37733 0.0
S425 S 0.4205 0.21206 0.49268 0.0
N426 N 0.45282 0.22692 0.38595 0.0
N427 N 0.43725 0.16495 0.53366 0.0
C428 C 0.47082 0.15894 0.45955 0.0
C429 C 0.47905 0.19281 0.37753 0.0
C430 C 0.39069 0.53767 0.33869 0.0
C431 C 0.36656 0.50005 0.34748 0.0
C432 C 0.42589 0.5468 0.41414 0.0
C433 C 0.43878 0.51953 0.50543 0.0
H434 H 0.38321 0.55985 0.27044 0.0
H435 H 0.44334 0.57587 0.40073 0.0
S436 S 0.38868 0.4163 0.56871 0.0
N437 N 0.35914 0.43567 0.4629 0.0
N438 N 0.4262 0.45176 0.59374 0.0
C439 C 0.41572 0.4817 0.51463 0.0
C440 C 0.37952 0.47248 0.43959 0.0
C441 C 0.05275 0.36711 0.3855 0.0
C442 C 0.01721 0.36033 0.3109 0.0
C443 C 0.05729 0.40481 0.4589 0.0
C444 C 0.02521 0.43646 0.46837 0.0
H445 H 0.07683 0.34271 0.38959 0.0
H446 H 0.08633 0.40922 0.50773 0.0
S447 S 0.92482 0.43406 0.3011 0.0
N448 N 0.94933 0.39016 0.25662 0.0
N449 N 0.95714 0.45788 0.39522 0.0
C450 C 0.99017 0.43016 0.39423 0.0
C451 C 0.98628 0.39322 0.31681 0.0
C452 C 0.88619 0.99257 0.17013 0.0
C453 C 0.85397 0.02277 0.19602 0.0
C454 C 0.91767 0.99793 0.08176 0.0
C455 C 0.92039 0.03438 1.01304 0.0
H456 H 0.88423 0.96215 0.21114 0.0
H457 H 0.93847 0.97162 0.06116 0.0
S458 S 0.8432 0.12348 0.03617 0.0
N459 N 0.82614 0.0907 0.13754 0.0
N460 N 0.88608 0.10171 0.97612 0.0
C461 C 0.88871 0.06551 0.03763 0.0
C462 C 0.85589 0.05971 0.12767 0.0
C463 C 0.4821 0.91777 0.18644 0.0
C464 C 0.51101 0.88573 0.22723 0.0
C465 C 0.49043 0.95094 0.10392 0.0
C466 C 0.53053 0.96357 0.06029 0.0
H467 H 0.44964 0.91736 0.21685 0.0
H468 H 0.4631 0.96819 0.07297 0.0
S469 S 0.65497 0.90341 0.17922 0.0
N470 N 0.59771 0.86883 0.23758 0.0
N471 N 0.61615 0.95094 0.09742 0.0
C472 C 0.56383 0.94134 0.10917 0.0
C473 C 0.55264 0.89339 0.19509 0.0
C474 C 0.67665 0.56553 0.09939 0.0
C475 C 0.68469 0.52714 0.15918 0.0
C476 C 0.63918 0.57183 0.02875 0.0
C477 C 0.60776 0.53983 1.01125 0.0
H478 H 0.70038 0.59029 0.10236 0.0
H479 H 0.63516 0.60191 0.98611 0.0
S480 S 0.60901 0.43607 0.15991 0.0
N481 N 0.65336 0.45891 0.20416 0.0
N482 N 0.58597 0.47043 0.07351 0.0
C483 C 0.61422 0.5029 0.07685 0.0
C484 C 0.65155 0.49662 0.14887 0.0
C485 C 1.00593 0.69553 0.95627 0.0
C486 C 0.02358 0.70335 0.07146 0.0
C487 C 1.00907 0.65582 0.89278 0.0
C488 C 0.03233 0.62146 0.93617 0.0
H489 H 0.98629 0.71966 0.91797 0.0
H490 H 0.99119 0.65147 0.81186 0.0
S491 S 0.09538 0.62702 0.21448 0.0
N492 N 0.07162 0.6738 0.21388 0.0
N493 N 0.0797 0.60092 0.09372 0.0
C494 C 0.05409 0.63016 0.0445 0.0
C495 C 0.04984 0.67041 0.11091 0.0
C496 C 0.90737 0.25586 0.48109 0.0
C497 C 0.90712 0.25456 0.35713 0.0
C498 C 0.87455 0.2382 0.54541 0.0
C499 C 0.8428 0.21499 0.48646 0.0
H500 H 0.93492 0.26679 0.52834 0.0
H501 H 0.87877 0.23548 0.64012 0.0
S502 S 0.81823 0.21869 0.16759 0.0
N503 N 0.86462 0.24259 0.18039 0.0
N504 N 0.80487 0.20389 0.30201 0.0
C505 C 0.83815 0.21979 0.36435 0.0
C506 C 0.87055 0.24006 0.2989 0.0
C507 C 0.30833 0.08288 0.52063 0.0
C508 C 0.32328 0.08435 0.40221 0.0
C509 C 0.31123 0.04557 0.58546 0.0
C510 C 0.32819 1.0085 0.533 0.0
H511 H 0.29192 0.10988 0.56076 0.0
H512 H 0.30015 0.04556 0.6761 0.0
S513 S 0.38934 1.00022 0.25301 0.0
N514 N 0.37065 0.04904 0.25804 0.0
N515 N 0.36978 0.97797 0.37102 0.0
C516 C 0.3474 1.01086 0.42118 0.0
C517 C 0.34738 0.04927 0.35949 0.0
C518 C 0.6365 0.28749 0.39252 0.0
C519 C 0.63623 0.28507 0.26772 0.0
C520 C 0.6589 0.31958 0.45214 0.0
C521 C 0.68148 0.34974 0.38842 0.0
H522 H 0.61442 0.26915 0.44396 0.0
H523 H 0.65323 0.32464 0.54617 0.0
S524 S 0.70475 0.34598 0.06717 0.0
N525 N 0.67159 0.30626 0.08703 0.0
N526 N 0.71264 0.36788 0.1997 0.0
C527 C 0.68864 0.34213 0.26719 0.0
C528 C 0.66618 0.30916 0.20637 0.0
C529 C 0.25729 0.39641 0.32292 0.0
C530 C 0.26769 0.39309 0.20148 0.0
C531 C 0.21492 0.40214 0.35798 0.0
C532 C 0.18245 0.40299 0.27262 0.0
H533 H 0.28147 0.40376 0.3878 0.0
H534 H 0.20857 0.41116 0.44949 0.0
S535 S 0.19455 0.35838 0.96512 0.0
N536 N 0.24339 0.36237 1.01551 0.0
N537 N 0.16352 0.37531 0.07461 0.0
C538 C 0.19239 0.38419 0.16031 0.0
C539 C 0.23565 0.37677 0.12797 0.0
C540 C 0.89411 0.83753 0.1106 0.0
C541 C 0.90067 0.79333 0.10766 0.0
C542 C 0.91366 0.8617 1.02258 0.0
C543 C 0.93377 0.84065 0.92529 0.0
H544 H 0.88252 0.85331 0.19012 0.0
H545 H 0.91661 0.89549 0.03818 0.0
S546 S 0.89772 0.73438 0.81969 0.0
N547 N 0.8848 0.73679 0.96192 0.0
N548 N 0.92074 0.78011 0.79043 0.0
C549 C 0.91801 0.79972 0.89866 0.0
C550 C 0.89864 0.77648 0.99074 0.0
C551 C 0.73859 0.96841 1.00206 0.0
C552 C 0.7251 0.97454 0.12131 0.0
C553 C 0.72893 0.99829 0.91616 0.0
C554 C 0.70397 0.03366 0.94667 0.0
H555 H 0.76066 0.9432 0.97834 0.0
H556 H 0.7427 0.99497 0.82838 0.0
S557 S 0.64888 0.05762 0.2304 0.0
N558 N 0.67481 1.0131 0.25122 0.0
N559 N 0.65989 0.06977 0.09387 0.0
C560 C 0.68537 0.03674 0.05917 0.0
C561 C 0.69433 1.00645 0.14488 0.0
C562 C 0.39238 0.78184 0.13163 0.0
C563 C 0.39483 0.78251 0.25634 0.0
C564 C 0.36848 0.75105 0.072 0.0
C565 C 0.34795 0.71955 0.13583 0.0
H566 H 0.41362 0.80064 0.07883 0.0
H567 H 0.37264 0.74716 0.977 0.0
S568 S 0.3287 0.72007 0.45894 0.0
N569 N 0.36211 0.7596 0.43903 0.0
N570 N 0.31889 0.69957 0.32577 0.0
C571 C 0.34227 0.72587 0.25814 0.0
C572 C 0.36589 0.75785 0.31918 0.0
C573 C 0.82128 0.38782 0.2264 0.0
C574 C 0.79983 0.41672 0.15454 0.0
C575 C 0.85039 0.35865 0.17672 0.0
C576 C 0.85827 0.35763 0.05427 0.0
H577 H 0.81928 0.39101 0.32195 0.0
H578 H 0.8714 0.3421 0.23543 0.0
S579 S 0.80059 0.4144 0.82536 0.0
N580 N 0.78324 0.43508 0.95221 0.0
N581 N 0.83325 0.37609 0.86135 0.0
C582 C 0.82993 0.37837 0.98136 0.0
C583 C 0.80246 0.40997 0.03092 0.0
C584 C 0.97376 0.18955 0.98465 0.0
C585 C 1.00693 0.21684 0.0273 0.0
C586 C 0.98012 0.15483 0.90399 0.0
C587 C 0.0196 0.14533 0.85203 0.0
H588 H 0.94132 0.19472 1.01246 0.0
H589 H 0.95309 0.13564 0.87932 0.0
S590 S 0.11423 0.21507 0.88827 0.0
N591 N 0.07986 0.23617 0.98402 0.0
N592 N 0.09034 0.17392 0.82366 0.0
C593 C 0.05196 0.1756 0.87818 0.0
C594 C 0.04603 0.21035 0.9663 0.0
C595 C 0.35438 0.09767 0.95351 0.0
C596 C 0.32771 0.06865 1.01395 0.0
C597 C 0.3915 0.08487 0.88772 0.0
C598 C 0.40635 0.04253 0.88408 0.0
H599 H 0.34722 0.13127 0.96035 0.0
H600 H 0.40901 0.10864 0.84102 0.0
S601 S 0.34344 0.95182 0.9993 0.0
N602 N 0.31527 0.99383 0.04139 0.0
N603 N 0.38518 0.97027 0.92876 0.0
C604 C 0.37784 1.01277 0.9349 0.0
C605 C 0.33902 0.02561 0.99679 0.0
C606 C 0.52185 0.3357 0.92265 0.0
C607 C 0.51342 0.33195 0.04541 0.0
C608 C 0.52001 0.37535 0.86438 0.0
C609 C 0.51066 0.4141 0.92571 0.0
H610 H 0.53242 0.30793 0.87208 0.0
H611 H 0.52751 0.37567 0.77084 0.0
S612 S 0.48729 0.4225 0.25007 0.0
N613 N 0.49529 0.37123 0.2254 0.0
N614 N 0.49275 0.44471 0.12029 0.0
C615 C 0.50115 0.41043 0.04836 0.0
C616 C 0.50244 0.37001 0.10664 0.0
C617 C 0.19329 0.51726 0.11582 0.0
C618 C 0.23324 0.52443 0.06307 0.0
C619 C 0.15448 0.52039 0.05283 0.0
C620 C 0.15263 0.53207 0.93339 0.0
H621 H 0.19254 0.50587 0.20472 0.0
H622 H 0.12547 0.51261 0.097 0.0
S623 S 0.24589 0.56365 0.75735 0.0
N624 N 0.26693 0.5476 0.88197 0.0
N625 N 0.19439 0.55781 0.7708 0.0
C626 C 0.19174 0.54326 0.88234 0.0
C627 C 0.23158 0.53823 0.94453 0.0
C628 C 0.99466 0.84796 0.49542 0.0
C629 C 0.01604 0.83959 0.38517 0.0
C630 C 1.00135 0.88547 0.56876 0.0
C631 C 0.02867 0.91896 0.53613 0.0
H632 H 0.97108 0.8256 0.52465 0.0
H633 H 0.9839 0.88865 0.6511 0.0
S634 S 0.09558 0.9139 0.26287 0.0
N635 N 0.06836 0.86917 0.25338 0.0
N636 N 0.08066 0.93806 0.38795 0.0
C637 C 0.05197 0.91009 0.4297 0.0
C638 C 0.04545 0.87165 0.35529 0.0
C639 C 0.69456 0.99112 0.56162 0.0
C640 C 0.71767 0.02019 0.4911 0.0
C641 C 0.65447 1.00093 0.6153 0.0
C642 C 0.6336 0.03997 0.59889 0.0
H643 H 0.70688 0.95933 0.57166 0.0
H644 H 0.63962 0.97739 0.66928 0.0
S645 S 0.68408 0.1319 0.45067 0.0
N646 N 0.71919 0.09339 0.43114 0.0
N647 N 0.64428 0.11115 0.5248 0.0
C648 C 0.65822 0.07079 0.53882 0.0
C649 C 0.69975 0.0612 0.48754 0.0
C650 C 0.53209 0.70578 0.42074 0.0
C651 C 0.52144 0.74454 0.48004 0.0
C652 C 0.5363 0.66685 0.48086 0.0
C653 C 0.52961 0.66374 0.60458 0.0
H654 H 0.53431 0.7049 0.32501 0.0
H655 H 0.54282 0.63839 0.42798 0.0
S656 S 0.5033 0.75607 0.80452 0.0
N657 N 0.50576 0.77697 0.67213 0.0
N658 N 0.51445 0.70509 0.78481 0.0
C659 C 0.52092 0.7027 0.66593 0.0
C660 C 0.51658 0.74238 0.60424 0.0
C661 C 0.87059 0.55004 0.36386 0.0
C662 C 0.83056 0.54048 0.41421 0.0
C663 C 0.90879 0.55198 0.43086 0.0
C664 C 0.9104 0.54434 0.554 0.0
H665 H 0.87307 0.55278 0.26872 0.0
H666 H 0.93787 0.55667 0.38266 0.0
S667 S 0.81541 0.52081 0.73497 0.0
N668 N 0.7959 0.52551 0.60066 0.0
N669 N 0.86673 0.5295 0.72436 0.0
C670 C 0.87056 0.53666 0.60703 0.0
C671 C 0.83137 0.53471 0.53855 0.0
loop_
_geom_bond_atom_site_label_1
_geom_bond_atom_site_label_2
_geom_bond_distance
_geom_bond_site_symmetry_2
_ccdc_geom_bond_type
H0 C3 0.931 . S
H1 C6 0.928 . S
H2 C8 0.930 . S
C3 H0 0.931 . S
C3 C4 1.413 . S
C3 C5 1.360 . S
C4 C3 1.413 . S
C4 C8 1.429 . S
C5 C3 1.360 . S
C5 C6 1.372 . S
C6 H1 0.928 . S
C6 C5 1.372 . S
C6 C7 1.404 . S
C7 C6 1.404 . S
C7 C8 1.391 . S
C8 H2 0.930 . S
C8 C4 1.429 . S
C8 C7 1.391 . S
H9 C12 0.931 . S
H10 C15 0.928 . S
H11 C17 0.930 . S
C12 H9 0.931 . S
C12 C13 1.413 . S
C12 C14 1.360 . S
C13 C12 1.413 . S
C13 C17 1.429 . S
C14 C12 1.360 . S
C14 C15 1.372 . S
C15 H10 0.928 . S
C15 C14 1.372 . S
C15 C16 1.404 . S
C16 C15 1.404 . S
C16 C17 1.391 . S
C17 H11 0.930 . S
C17 C13 1.429 . S
C17 C16 1.391 . S
H18 C21 0.931 . S
H19 C24 0.928 . S
H20 C26 0.930 . S
C21 H18 0.931 . S
C21 C22 1.413 . S
C21 C23 1.360 . S
C22 C21 1.413 . S
C22 C26 1.429 . S
C23 C21 1.360 . S
C23 C24 1.372 . S
C24 H19 0.928 . S
C24 C23 1.372 . S
C24 C25 1.404 . S
C25 C24 1.404 . S
C25 C26 1.391 . S
C26 H20 0.930 . S
C26 C22 1.429 . S
C26 C25 1.391 . S
H27 C30 0.931 . S
H28 C33 0.928 . S
H29 C35 0.930 . S
C30 H27 0.931 . S
C30 C31 1.413 . S
C30 C32 1.360 . S
C31 C30 1.413 . S
C31 C35 1.429 . S
C32 C30 1.360 . S
C32 C33 1.372 . S
C33 H28 0.928 . S
C33 C32 1.372 . S
C33 C34 1.404 . S
C34 C33 1.404 . S
C34 C35 1.391 . S
C35 H29 0.930 . S
C35 C31 1.429 . S
C35 C34 1.391 . S
H36 C39 0.931 . S
H37 C42 0.928 . S
H38 C44 0.930 . S
C39 H36 0.931 . S
C39 C40 1.413 . S
C39 C41 1.360 1_556 S
C40 C39 1.413 . S
C40 C44 1.429 . S
C41 C39 1.360 1_554 S
C41 C42 1.372 . S
C42 H37 0.928 . S
C42 C41 1.372 . S
C42 C43 1.404 . S
C43 C42 1.404 . S
C43 C44 1.391 1_554 S
C44 H38 0.930 . S
C44 C40 1.429 . S
C44 C43 1.391 1_556 S
H45 C48 0.931 . S
H46 C51 0.928 . S
H47 C53 0.930 . S
C48 H45 0.931 . S
C48 C49 1.413 . S
C48 C50 1.360 1_556 S
C49 C48 1.413 . S
C49 C53 1.429 . S
C50 C48 1.360 1_554 S
C50 C51 1.372 . S
C51 H46 0.928 . S
C51 C50 1.372 . S
C51 C52 1.404 . S
C52 C51 1.404 . S
C52 C53 1.391 1_554 S
C53 H47 0.930 . S
C53 C49 1.429 . S
C53 C52 1.391 1_556 S
H54 C57 0.931 . S
H55 C60 0.928 . S
H56 C62 0.930 . S
C57 H54 0.931 . S
C57 C58 1.413 . S
C57 C59 1.360 1_556 S
C58 C57 1.413 . S
C58 C62 1.429 . S
C59 C57 1.360 1_554 S
C59 C60 1.372 . S
C60 H55 0.928 . S
C60 C59 1.372 . S
C60 C61 1.404 . S
C61 C60 1.404 . S
C61 C62 1.391 1_554 S
C62 H56 0.930 . S
C62 C58 1.429 . S
C62 C61 1.391 1_556 S
H63 C66 0.931 . S
H64 C69 0.928 . S
H65 C71 0.930 . S
C66 H63 0.931 . S
C66 C67 1.413 1_556 S
C66 C68 1.360 . S
C67 C66 1.413 1_554 S
C67 C71 1.429 . S
C68 C66 1.360 . S
C68 C69 1.372 . S
C69 H64 0.928 . S
C69 C68 1.372 . S
C69 C70 1.404 1_556 S
C70 C69 1.404 1_554 S
C70 C71 1.391 . S
C71 H65 0.930 . S
C71 C67 1.429 . S
C71 C70 1.391 . S
Eu72 N103 2.657 1_565 S
Eu72 N110 2.608 . S
Eu72 O116 2.558 . S
Eu72 O117 2.612 1_455 S
Eu72 O119 2.339 1_455 S
Eu72 O120 2.563 . S
Eu72 O121 2.419 . S
Eu72 O123 2.380 1_565 S
Eu72 O124 2.432 . S
Eu72 C136 2.848 . S
C73 C76 1.429 . S
C73 C77 1.411 . S
C73 N80 1.377 1_565 S
C74 C76 1.420 . S
C74 C78 1.423 . S
C74 C86 1.392 . S
C75 C77 1.420 . S
C75 C78 1.351 . S
C75 H98 0.931 . S
C76 C73 1.429 . S
C76 C74 1.420 . S
C76 N84 1.362 . S
C77 C73 1.411 . S
C77 C75 1.420 . S
C77 C82 1.395 1_565 S
C78 C74 1.423 . S
C78 C75 1.351 . S
C78 H90 0.930 . S
C79 C81 1.400 . S
C79 C82 1.386 . S
C79 H91 0.930 . S
N80 C73 1.377 1_545 S
N80 C81 1.321 . S
N80 Eu83 2.609 . S
C81 C79 1.400 . S
C81 N80 1.321 . S
C81 H88 0.930 . S
C82 C77 1.395 1_545 S
C82 C79 1.386 . S
C82 H101 0.930 1_545 S
Eu83 N80 2.609 . S
Eu83 N84 2.657 1_545 S
Eu83 O117 2.380 1_545 S
Eu83 O118 2.432 . S
Eu83 O122 2.558 . S
Eu83 O123 2.612 1_655 S
Eu83 O125 2.339 1_655 S
Eu83 O126 2.563 . S
Eu83 O127 2.419 . S
Eu83 C147 2.848 . S
N84 C76 1.362 . S
N84 Eu83 2.657 1_565 S
N84 C85 1.334 . S
C85 N84 1.334 . S
C85 C87 1.413 . S
C85 H92 0.929 1_655 S
C86 C74 1.392 . S
C86 C87 1.367 . S
C86 H94 0.930 . S
C87 C85 1.413 . S
C87 C86 1.367 . S
C87 H89 0.930 1_655 S
H88 C81 0.930 . S
H89 C87 0.930 1_455 S
H90 C78 0.930 . S
H91 C79 0.930 . S
H92 C85 0.929 1_455 S
H93 C107 0.930 . S
H94 C86 0.930 . S
H95 C113 0.930 . S
H96 C104 0.929 1_655 S
H97 C111 0.930 . S
H98 C75 0.931 . S
H99 C105 0.930 . S
H100 C138 0.930 . S
H101 C82 0.930 1_565 S
H102 C137 0.931 . S
N103 Eu72 2.657 1_545 S
N103 C104 1.334 1_556 S
N103 C108 1.362 1_556 S
C104 H96 0.929 1_455 S
C104 N103 1.334 1_554 S
C104 C107 1.413 . S
C105 H99 0.930 . S
C105 C106 1.392 . S
C105 C107 1.367 . S
C106 C105 1.392 . S
C106 C108 1.420 . S
C106 C138 1.423 . S
C107 H93 0.930 . S
C107 C104 1.413 . S
C107 C105 1.367 . S
C108 N103 1.362 1_554 S
C108 C106 1.420 . S
C108 C112 1.429 1_554 S
H109 C114 0.930 . S
N110 Eu72 2.608 . S
N110 C112 1.378 1_565 S
N110 C113 1.320 . S
C111 H97 0.930 . S
C111 C113 1.400 . S
C111 C114 1.386 1_565 S
C112 C108 1.429 1_556 S
C112 N110 1.378 1_545 S
C112 C115 1.411 . S
C113 H95 0.930 . S
C113 N110 1.320 . S
C113 C111 1.400 . S
C114 H109 0.930 . S
C114 C111 1.386 1_545 S
C114 C115 1.395 . S
C115 C112 1.411 . S
C115 C114 1.395 . S
C115 C137 1.420 1_556 S
O116 Eu72 2.558 . S
O116 C136 1.257 . S
O117 Eu72 2.612 1_655 S
O117 Eu83 2.380 1_565 S
O117 C128 1.276 . S
O118 Eu83 2.432 . S
O118 C135 1.270 . S
O119 Eu72 2.339 1_655 S
O119 C135 1.252 1_565 S
O120 Eu72 2.563 . S
O120 C128 1.235 1_455 S
O121 Eu72 2.419 . S
O121 C136 1.249 . S
O122 Eu83 2.558 . S
O122 C147 1.257 . S
O123 Eu72 2.380 1_545 S
O123 Eu83 2.612 1_455 S
O123 C139 1.276 . S
O124 Eu72 2.432 . S
O124 C146 1.264 1_565 S
O125 Eu83 2.339 1_455 S
O125 C146 1.254 . S
O126 Eu83 2.563 . S
O126 C139 1.235 1_655 S
O127 Eu83 2.419 . S
O127 C147 1.249 . S
C128 O117 1.276 . S
C128 O120 1.235 1_655 S
C129 C131 1.393 . S
C129 C133 1.395 . S
C129 C136 1.492 1_554 S
C130 C131 1.392 . S
C130 C132 1.386 . S
C131 C129 1.393 . S
C131 C130 1.392 . S
C131 H148 0.930 . S
C132 C130 1.386 . S
C132 C134 1.395 . S
C132 H149 0.930 . S
C133 C129 1.395 . S
C133 C134 1.379 . S
C133 H150 0.930 1_554 S
C134 C132 1.395 . S
C134 C133 1.379 . S
C134 H151 0.930 . S
C135 O118 1.270 . S
C135 O119 1.252 1_545 S
C136 Eu72 2.848 . S
C136 O116 1.257 . S
C136 O121 1.249 . S
C136 C129 1.492 1_556 S
C137 H102 0.931 . S
C137 C115 1.420 1_554 S
C137 C138 1.351 . S
C138 H100 0.930 . S
C138 C106 1.423 . S
C138 C137 1.351 . S
C139 O123 1.276 . S
C139 O126 1.235 1_455 S
C140 C141 1.393 . S
C140 C144 1.395 . S
C140 C147 1.492 . S
C141 C140 1.393 . S
C141 C142 1.392 . S
C141 H152 0.930 . S
C142 C141 1.392 . S
C142 C143 1.386 . S
C143 C142 1.386 . S
C143 C145 1.395 . S
C143 H153 0.930 . S
C144 C140 1.395 . S
C144 C145 1.379 . S
C144 H154 0.930 . S
C145 C143 1.395 . S
C145 C144 1.379 . S
C145 H155 0.930 . S
C146 O124 1.264 1_545 S
C146 O125 1.254 . S
C147 Eu83 2.848 . S
C147 O122 1.257 . S
C147 O127 1.249 . S
C147 C140 1.492 . S
H148 C131 0.930 . S
H149 C132 0.930 . S
H150 C133 0.930 1_556 S
H151 C134 0.930 . S
H152 C141 0.930 . S
H153 C143 0.930 . S
H154 C144 0.930 . S
H155 C145 0.930 . S
Eu156 N187 2.657 . S
Eu156 N194 2.609 . S
Eu156 O200 2.558 . S
Eu156 O201 2.612 1_545 S
Eu156 O203 2.339 1_545 S
Eu156 O204 2.563 . S
Eu156 O205 2.419 . S
Eu156 O207 2.380 . S
Eu156 O208 2.432 . S
Eu156 C220 2.848 . S
C157 C160 1.429 . S
C157 C161 1.411 . S
C157 N164 1.377 . S
C158 C160 1.420 . S
C158 C162 1.423 . S
C158 C170 1.392 . S
C159 C161 1.420 . S
C159 C162 1.351 . S
C159 H182 0.931 . S
C160 C157 1.429 . S
C160 C158 1.420 . S
C160 N168 1.362 . S
C161 C157 1.411 . S
C161 C159 1.420 . S
C161 C166 1.395 . S
C162 C158 1.423 . S
C162 C159 1.351 . S
C162 H174 0.930 . S
C163 C165 1.400 . S
C163 C166 1.386 . S
C163 H175 0.930 . S
N164 C157 1.377 . S
N164 C165 1.321 . S
N164 Eu167 2.609 . S
C165 C163 1.400 . S
C165 N164 1.321 . S
C165 H172 0.930 . S
C166 C161 1.395 . S
C166 C163 1.386 . S
C166 H185 0.930 . S
Eu167 N164 2.609 . S
Eu167 N168 2.657 . S
Eu167 O201 2.380 . S
Eu167 O202 2.432 . S
Eu167 O206 2.558 . S
Eu167 O207 2.612 1_565 S
Eu167 O209 2.339 1_565 S
Eu167 O210 2.563 . S
Eu167 O211 2.419 . S
Eu167 C231 2.848 . S
N168 C160 1.362 . S
N168 Eu167 2.657 . S
N168 C169 1.334 . S
C169 N168 1.334 . S
C169 C171 1.413 . S
C169 H176 0.929 1_565 S
C170 C158 1.392 . S
C170 C171 1.367 . S
C170 H178 0.930 . S
C171 C169 1.413 . S
C171 C170 1.367 . S
C171 H173 0.930 1_565 S
H172 C165 0.930 . S
H173 C171 0.930 1_545 S
H174 C162 0.930 . S
H175 C163 0.930 . S
H176 C169 0.929 1_545 S
H177 C191 0.930 . S
H178 C170 0.930 . S
H179 C197 0.930 . S
H180 C188 0.929 1_565 S
H181 C195 0.930 . S
H182 C159 0.931 . S
H183 C189 0.930 . S
H184 C222 0.930 . S
H185 C166 0.930 . S
H186 C221 0.931 . S
N187 Eu156 2.657 . S
N187 C188 1.334 1_556 S
N187 C192 1.362 1_556 S
C188 H180 0.929 1_545 S
C188 N187 1.334 1_554 S
C188 C191 1.413 . S
C189 H183 0.930 . S
C189 C190 1.392 . S
C189 C191 1.367 . S
C190 C189 1.392 . S
C190 C192 1.420 . S
C190 C222 1.423 . S
C191 H177 0.930 . S
C191 C188 1.413 . S
C191 C189 1.367 . S
C192 N187 1.362 1_554 S
C192 C190 1.420 . S
C192 C196 1.429 1_554 S
H193 C198 0.930 . S
N194 Eu156 2.609 . S
N194 C196 1.377 . S
N194 C197 1.321 . S
C195 H181 0.930 . S
C195 C197 1.400 . S
C195 C198 1.386 . S
C196 C192 1.429 1_556 S
C196 N194 1.377 . S
C196 C199 1.411 . S
C197 H179 0.930 . S
C197 N194 1.321 . S
C197 C195 1.400 . S
C198 H193 0.930 . S
C198 C195 1.386 . S
C198 C199 1.395 . S
C199 C196 1.411 . S
C199 C198 1.395 . S
C199 C221 1.420 1_556 S
O200 Eu156 2.558 . S
O200 C220 1.257 . S
O201 Eu156 2.612 1_565 S
O201 Eu167 2.380 . S
O201 C212 1.276 . S
O202 Eu167 2.432 . S
O202 C219 1.264 . S
O203 Eu156 2.339 1_565 S
O203 C219 1.254 . S
O204 Eu156 2.563 . S
O204 C212 1.235 1_545 S
O205 Eu156 2.419 . S
O205 C220 1.249 . S
O206 Eu167 2.558 . S
O206 C231 1.257 . S
O207 Eu156 2.380 . S
O207 Eu167 2.612 1_545 S
O207 C223 1.276 . S
O208 Eu156 2.432 . S
O208 C230 1.264 . S
O209 Eu167 2.339 1_545 S
O209 C230 1.254 . S
O210 Eu167 2.563 . S
O210 C223 1.235 1_565 S
O211 Eu167 2.419 . S
O211 C231 1.249 . S
C212 O201 1.276 . S
C212 O204 1.235 1_565 S
C213 C215 1.393 . S
C213 C217 1.395 . S
C213 C220 1.492 1_554 S
C214 C215 1.392 . S
C214 C216 1.386 . S
C215 C213 1.393 . S
C215 C214 1.392 . S
C215 H232 0.930 . S
C216 C214 1.386 . S
C216 C218 1.395 . S
C216 H233 0.930 . S
C217 C213 1.395 . S
C217 C218 1.379 . S
C217 H234 0.930 1_554 S
C218 C216 1.395 . S
C218 C217 1.379 . S
C218 H235 0.930 . S
C219 O202 1.264 . S
C219 O203 1.254 . S
C220 Eu156 2.848 . S
C220 O200 1.257 . S
C220 O205 1.249 . S
C220 C213 1.492 1_556 S
C221 H186 0.931 . S
C221 C199 1.420 1_554 S
C221 C222 1.351 . S
C222 H184 0.930 . S
C222 C190 1.423 . S
C222 C221 1.351 . S
C223 O207 1.276 . S
C223 O210 1.235 1_545 S
C224 C225 1.393 . S
C224 C228 1.395 . S
C224 C231 1.492 . S
C225 C224 1.393 . S
C225 C226 1.392 . S
C225 H236 0.930 . S
C226 C225 1.392 . S
C226 C227 1.386 . S
C227 C226 1.386 . S
C227 C229 1.395 . S
C227 H237 0.930 . S
C228 C224 1.395 . S
C228 C229 1.379 . S
C228 H238 0.930 . S
C229 C227 1.395 . S
C229 C228 1.379 . S
C229 H239 0.930 . S
C230 O208 1.264 . S
C230 O209 1.254 . S
C231 Eu167 2.848 . S
C231 O206 1.257 . S
C231 O211 1.249 . S
C231 C224 1.492 . S
H232 C215 0.930 . S
H233 C216 0.930 . S
H234 C217 0.930 1_556 S
H235 C218 0.930 . S
H236 C225 0.930 . S
H237 C227 0.930 . S
H238 C228 0.930 . S
H239 C229 0.930 . S
Eu240 N271 2.657 . S
Eu240 N278 2.609 . S
Eu240 O284 2.558 . S
Eu240 O285 2.612 . S
Eu240 O287 2.339 . S
Eu240 O288 2.563 . S
Eu240 O289 2.419 . S
Eu240 O291 2.380 . S
Eu240 O292 2.432 . S
Eu240 C304 2.848 . S
C241 C244 1.429 . S
C241 C245 1.411 . S
C241 N248 1.377 . S
C242 C244 1.420 . S
C242 C246 1.423 . S
C242 C254 1.392 . S
C243 C245 1.420 . S
C243 C246 1.351 . S
C243 H266 0.931 . S
C244 C241 1.429 . S
C244 C242 1.420 . S
C244 N252 1.362 . S
C245 C241 1.411 . S
C245 C243 1.420 . S
C245 C250 1.395 . S
C246 C242 1.423 . S
C246 C243 1.351 . S
C246 H258 0.930 . S
C247 C249 1.400 . S
C247 C250 1.386 . S
C247 H259 0.930 1_556 S
N248 C241 1.377 . S
N248 C249 1.321 . S
N248 Eu251 2.609 . S
C249 C247 1.400 . S
C249 N248 1.321 . S
C249 H256 0.930 . S
C250 C245 1.395 . S
C250 C247 1.386 . S
C250 H269 0.930 . S
Eu251 N248 2.609 . S
Eu251 N252 2.657 . S
Eu251 O285 2.380 . S
Eu251 O286 2.432 . S
Eu251 O290 2.558 1_556 S
Eu251 O291 2.612 . S
Eu251 O293 2.339 . S
Eu251 O294 2.563 . S
Eu251 O295 2.419 . S
Eu251 C315 2.849 . S
N252 C244 1.362 . S
N252 Eu251 2.657 . S
N252 C253 1.334 . S
C253 N252 1.334 . S
C253 C255 1.413 . S
C253 H260 0.929 . S
C254 C242 1.392 . S
C254 C255 1.367 . S
C254 H262 0.930 . S
C255 C253 1.413 . S
C255 C254 1.367 . S
C255 H257 0.930 . S
H256 C249 0.930 . S
H257 C255 0.930 . S
H258 C246 0.930 . S
H259 C247 0.930 1_554 S
H260 C253 0.929 . S
H261 C275 0.930 . S
H262 C254 0.930 . S
H263 C281 0.930 . S
H264 C272 0.929 . S
H265 C279 0.930 . S
H266 C243 0.931 . S
H267 C273 0.930 . S
H268 C306 0.930 . S
H269 C250 0.930 . S
H270 C305 0.931 . S
N271 Eu240 2.657 . S
N271 C272 1.334 . S
N271 C276 1.362 . S
C272 H264 0.929 . S
C272 N271 1.334 . S
C272 C275 1.413 . S
C273 H267 0.930 . S
C273 C274 1.392 . S
C273 C275 1.367 . S
C274 C273 1.392 . S
C274 C276 1.420 . S
C274 C306 1.423 . S
C275 H261 0.930 . S
C275 C272 1.413 . S
C275 C273 1.367 . S
C276 N271 1.362 . S
C276 C274 1.420 . S
C276 C280 1.429 . S
H277 C282 0.930 . S
N278 Eu240 2.609 . S
N278 C280 1.377 . S
N278 C281 1.321 . S
C279 H265 0.930 . S
C279 C281 1.400 . S
C279 C282 1.386 . S
C280 C276 1.429 . S
C280 N278 1.377 . S
C280 C283 1.411 . S
C281 H263 0.930 . S
C281 N278 1.321 . S
C281 C279 1.400 . S
C282 H277 0.930 . S
C282 C279 1.386 . S
C282 C283 1.395 . S
C283 C280 1.411 . S
C283 C282 1.395 . S
C283 C305 1.420 . S
O284 Eu240 2.558 . S
O284 C304 1.257 . S
O285 Eu240 2.612 . S
O285 Eu251 2.380 . S
O285 C296 1.276 . S
O286 Eu251 2.432 . S
O286 C303 1.264 . S
O287 Eu240 2.339 . S
O287 C303 1.254 . S
O288 Eu240 2.563 . S
O288 C296 1.235 . S
O289 Eu240 2.419 . S
O289 C304 1.249 . S
O290 Eu251 2.558 1_554 S
O290 C315 1.257 1_554 S
O291 Eu240 2.380 . S
O291 Eu251 2.612 . S
O291 C307 1.276 . S
O292 Eu240 2.432 . S
O292 C314 1.264 . S
O293 Eu251 2.339 . S
O293 C314 1.254 . S
O294 Eu251 2.563 . S
O294 C307 1.235 . S
O295 Eu251 2.419 . S
O295 C315 1.251 . S
C296 O285 1.276 . S
C296 O288 1.235 . S
C297 C299 1.393 . S
C297 C301 1.395 . S
C297 C304 1.492 . S
C298 C299 1.392 . S
C298 C300 1.386 . S
C299 C297 1.393 . S
C299 C298 1.392 . S
C299 H316 0.930 . S
C300 C298 1.386 . S
C300 C302 1.395 . S
C300 H317 0.930 . S
C301 C297 1.395 . S
C301 C302 1.379 . S
C301 H318 0.930 . S
C302 C300 1.395 . S
C302 C301 1.379 . S
C302 H319 0.930 . S
C303 O286 1.264 . S
C303 O287 1.254 . S
C304 Eu240 2.848 . S
C304 O284 1.257 . S
C304 O289 1.249 . S
C304 C297 1.492 . S
C305 H270 0.931 . S
C305 C283 1.420 . S
C305 C306 1.351 . S
C306 H268 0.930 . S
C306 C274 1.423 . S
C306 C305 1.351 . S
C307 O291 1.276 . S
C307 O294 1.235 . S
C308 C309 1.393 . S
C308 C312 1.395 . S
C308 C315 1.490 1_554 S
C309 C308 1.393 . S
C309 C310 1.392 . S
C309 H320 0.930 . S
C310 C309 1.392 . S
C310 C311 1.386 . S
C311 C310 1.386 . S
C311 C313 1.395 . S
C311 H321 0.930 . S
C312 C308 1.395 . S
C312 C313 1.379 . S
C312 H322 0.930 . S
C313 C311 1.395 . S
C313 C312 1.379 . S
C313 H323 0.930 . S
C314 O292 1.264 . S
C314 O293 1.254 . S
C315 Eu251 2.849 . S
C315 O290 1.257 1_556 S
C315 O295 1.251 . S
C315 C308 1.490 1_556 S
H316 C299 0.930 . S
H317 C300 0.930 . S
H318 C301 0.930 . S
H319 C302 0.930 . S
H320 C309 0.930 . S
H321 C311 0.930 . S
H322 C312 0.930 . S
H323 C313 0.930 . S
Eu324 N355 2.657 . S
Eu324 N362 2.609 . S
Eu324 O368 2.558 . S
Eu324 O369 2.612 . S
Eu324 O371 2.339 . S
Eu324 O372 2.563 . S
Eu324 O373 2.419 . S
Eu324 O375 2.380 1_455 S
Eu324 O376 2.432 1_455 S
Eu324 C388 2.848 . S
C325 C328 1.429 . S
C325 C329 1.411 . S
C325 N332 1.377 . S
C326 C328 1.420 . S
C326 C330 1.423 . S
C326 C338 1.392 . S
C327 C329 1.420 . S
C327 C330 1.351 . S
C327 H350 0.931 . S
C328 C325 1.429 . S
C328 C326 1.420 . S
C328 N336 1.362 . S
C329 C325 1.411 . S
C329 C327 1.420 . S
C329 C334 1.395 1_655 S
C330 C326 1.423 . S
C330 C327 1.351 . S
C330 H342 0.930 . S
C331 C333 1.400 . S
C331 C334 1.386 . S
C331 H343 0.930 1_556 S
N332 C325 1.377 . S
N332 C333 1.321 1_655 S
N332 Eu335 2.609 . S
C333 C331 1.400 . S
C333 N332 1.321 1_455 S
C333 H340 0.930 . S
C334 C329 1.395 1_455 S
C334 C331 1.386 . S
C334 H353 0.930 . S
Eu335 N332 2.609 . S
Eu335 N336 2.657 . S
Eu335 O369 2.380 1_655 S
Eu335 O370 2.432 1_655 S
Eu335 O374 2.558 1_556 S
Eu335 O375 2.612 . S
Eu335 O377 2.339 . S
Eu335 O378 2.563 . S
Eu335 O379 2.419 . S
Eu335 C399 2.848 . S
N336 C328 1.362 . S
N336 Eu335 2.657 . S
N336 C337 1.334 . S
C337 N336 1.334 . S
C337 C339 1.413 . S
C337 H344 0.929 . S
C338 C326 1.392 . S
C338 C339 1.367 . S
C338 H346 0.930 . S
C339 C337 1.413 . S
C339 C338 1.367 . S
C339 H341 0.930 . S
H340 C333 0.930 . S
H341 C339 0.930 . S
H342 C330 0.930 . S
H343 C331 0.930 1_554 S
H344 C337 0.929 . S
H345 C359 0.930 . S
H346 C338 0.930 . S
H347 C365 0.930 . S
H348 C356 0.929 . S
H349 C363 0.930 . S
H350 C327 0.931 . S
H351 C357 0.930 . S
H352 C390 0.930 . S
H353 C334 0.930 . S
H354 C389 0.931 . S
N355 Eu324 2.657 . S
N355 C356 1.334 . S
N355 C360 1.362 . S
C356 H348 0.929 . S
C356 N355 1.334 . S
C356 C359 1.413 . S
C357 H351 0.930 . S
C357 C358 1.392 . S
C357 C359 1.367 . S
C358 C357 1.392 . S
C358 C360 1.420 . S
C358 C390 1.423 . S
C359 H345 0.930 . S
C359 C356 1.413 . S
C359 C357 1.367 . S
C360 N355 1.362 . S
C360 C358 1.420 . S
C360 C364 1.429 . S
H361 C366 0.934 . S
N362 Eu324 2.609 . S
N362 C364 1.377 . S
N362 C365 1.321 1_455 S
C363 H349 0.930 . S
C363 C365 1.400 . S
C363 C366 1.399 . S
C364 C360 1.429 . S
C364 N362 1.377 . S
C364 C367 1.411 . S
C365 H347 0.930 . S
C365 N362 1.321 1_655 S
C365 C363 1.400 . S
C366 H361 0.934 . S
C366 C363 1.399 . S
C366 C367 1.378 1_655 S
C367 C364 1.411 . S
C367 C366 1.378 1_455 S
C367 C389 1.420 . S
O368 Eu324 2.558 . S
O368 C388 1.257 . S
O369 Eu324 2.612 . S
O369 Eu335 2.380 1_455 S
O369 C380 1.276 . S
O370 Eu335 2.432 1_455 S
O370 C387 1.264 . S
O371 Eu324 2.339 . S
O371 C387 1.254 . S
O372 Eu324 2.563 . S
O372 C380 1.235 . S
O373 Eu324 2.419 . S
O373 C388 1.249 . S
O374 Eu335 2.558 1_554 S
O374 C399 1.257 1_554 S
O375 Eu324 2.380 1_655 S
O375 Eu335 2.612 . S
O375 C391 1.276 . S
O376 Eu324 2.432 1_655 S
O376 C398 1.264 . S
O377 Eu335 2.339 . S
O377 C398 1.254 . S
O378 Eu335 2.563 . S
O378 C391 1.235 . S
O379 Eu335 2.419 . S
O379 C399 1.249 . S
C380 O369 1.276 . S
C380 O372 1.235 . S
C381 C383 1.393 . S
C381 C385 1.395 . S
C381 C388 1.492 . S
C382 C383 1.392 . S
C382 C384 1.386 . S
C383 C381 1.393 . S
C383 C382 1.392 . S
C383 H400 0.930 . S
C384 C382 1.386 . S
C384 C386 1.395 . S
C384 H401 0.930 . S
C385 C381 1.395 . S
C385 C386 1.379 . S
C385 H402 0.930 . S
C386 C384 1.395 . S
C386 C385 1.379 . S
C386 H403 0.930 . S
C387 O370 1.264 . S
C387 O371 1.254 . S
C388 Eu324 2.848 . S
C388 O368 1.257 . S
C388 O373 1.249 . S
C388 C381 1.492 . S
C389 H354 0.931 . S
C389 C367 1.420 . S
C389 C390 1.351 . S
C390 H352 0.930 . S
C390 C358 1.423 . S
C390 C389 1.351 . S
C391 O375 1.276 . S
C391 O378 1.235 . S
C392 C393 1.393 . S
C392 C396 1.395 . S
C392 C399 1.492 1_554 S
C393 C392 1.393 . S
C393 C394 1.392 . S
C393 H404 0.930 . S
C394 C393 1.392 . S
C394 C395 1.386 . S
C395 C394 1.386 . S
C395 C397 1.395 . S
C395 H405 0.930 . S
C396 C392 1.395 . S
C396 C397 1.379 . S
C396 H406 0.930 . S
C397 C395 1.395 . S
C397 C396 1.379 . S
C397 H407 0.930 . S
C398 O376 1.264 . S
C398 O377 1.254 . S
C399 Eu335 2.848 . S
C399 O374 1.257 1_556 S
C399 O379 1.249 . S
C399 C392 1.492 1_556 S
H400 C383 0.930 . S
H401 C384 0.930 . S
H402 C385 0.930 . S
H403 C386 0.930 . S
H404 C393 0.930 . S
H405 C395 0.930 . S
H406 C396 0.930 . S
H407 C397 0.930 . S
C408 C409 1.369 . S
C408 C410 1.419 . S
C408 H412 0.930 1_545 S
C409 C408 1.369 . S
C409 C418 1.429 . S
C410 C408 1.419 . S
C410 C411 1.363 . S
C410 H413 0.929 1_545 S
C411 C410 1.363 . S
C411 C417 1.428 . S
H412 C408 0.930 1_565 S
H413 C410 0.929 1_565 S
S414 N415 1.613 . S
S414 N416 1.610 . S
N415 S414 1.613 . S
N415 C418 1.350 . S
N416 S414 1.610 . S
N416 C417 1.351 . S
C417 C411 1.428 . S
C417 N416 1.351 . S
C417 C418 1.434 . S
C418 C409 1.429 . S
C418 N415 1.350 . S
C418 C417 1.434 . S
C419 C420 1.369 . S
C419 C421 1.419 . S
C419 H423 0.930 . S
C420 C419 1.369 . S
C420 C429 1.429 . S
C421 C419 1.419 . S
C421 C422 1.363 . S
C421 H424 0.929 . S
C422 C421 1.363 . S
C422 C428 1.428 . S
H423 C419 0.930 . S
H424 C421 0.929 . S
S425 N426 1.613 . S
S425 N427 1.610 . S
N426 S425 1.613 . S
N426 C429 1.350 . S
N427 S425 1.610 . S
N427 C428 1.351 . S
C428 C422 1.428 . S
C428 N427 1.351 . S
C428 C429 1.434 . S
C429 C420 1.429 . S
C429 N426 1.350 . S
C429 C428 1.434 . S
C430 C431 1.369 . S
C430 C432 1.419 . S
C430 H434 0.930 . S
C431 C430 1.369 . S
C431 C440 1.429 . S
C432 C430 1.419 . S
C432 C433 1.363 . S
C432 H435 0.929 . S
C433 C432 1.363 . S
C433 C439 1.428 . S
H434 C430 0.930 . S
H435 C432 0.929 . S
S436 N437 1.613 . S
S436 N438 1.610 . S
N437 S436 1.613 . S
N437 C440 1.350 . S
N438 S436 1.610 . S
N438 C439 1.351 . S
C439 C433 1.428 . S
C439 N438 1.351 . S
C439 C440 1.434 . S
C440 C431 1.429 . S
C440 N437 1.350 . S
C440 C439 1.434 . S
C441 C442 1.369 . S
C441 C443 1.419 . S
C441 H445 0.930 . S
C442 C441 1.369 . S
C442 C451 1.429 . S
C443 C441 1.419 . S
C443 C444 1.363 . S
C443 H446 0.929 . S
C444 C443 1.363 . S
C444 C450 1.428 . S
H445 C441 0.930 . S
H446 C443 0.929 . S
S447 N448 1.613 . S
S447 N449 1.610 . S
N448 S447 1.613 . S
N448 C451 1.350 . S
N449 S447 1.610 . S
N449 C450 1.351 . S
C450 C444 1.428 . S
C450 N449 1.351 . S
C450 C451 1.434 . S
C451 C442 1.429 . S
C451 N448 1.350 . S
C451 C450 1.434 . S
C452 C453 1.369 . S
C452 C454 1.419 . S
C452 H456 0.930 . S
C453 C452 1.369 . S
C453 C462 1.429 1_565 S
C454 C452 1.419 . S
C454 C455 1.360 1_554 S
C454 H457 0.929 1_554 S
C455 C454 1.360 1_556 S
C455 C461 1.422 1_566 S
H456 C452 0.930 . S
H457 C454 0.929 1_556 S
S458 N459 1.613 . S
S458 N460 1.610 . S
N459 S458 1.613 . S
N459 C462 1.350 . S
N460 S458 1.610 . S
N460 C461 1.351 . S
C461 C455 1.422 1_544 S
C461 N460 1.351 . S
C461 C462 1.434 . S
C462 C453 1.429 1_545 S
C462 N459 1.350 . S
C462 C461 1.434 . S
C463 C464 1.369 . S
C463 C465 1.419 . S
C463 H467 0.930 . S
C464 C463 1.369 . S
C464 C473 1.429 . S
C465 C463 1.419 . S
C465 C466 1.363 1_554 S
C465 H468 0.929 1_554 S
C466 C465 1.363 1_556 S
C466 C472 1.428 1_556 S
H467 C463 0.930 . S
H468 C465 0.929 1_556 S
S469 N470 1.613 . S
S469 N471 1.610 . S
N470 S469 1.613 . S
N470 C473 1.350 . S
N471 S469 1.610 . S
N471 C472 1.351 . S
C472 C466 1.428 1_554 S
C472 N471 1.351 . S
C472 C473 1.434 . S
C473 C464 1.429 . S
C473 N470 1.350 . S
C473 C472 1.434 . S
C474 C475 1.369 . S
C474 C476 1.419 . S
C474 H478 0.930 . S
C475 C474 1.369 . S
C475 C484 1.429 . S
C476 C474 1.419 . S
C476 C477 1.363 1_554 S
C476 H479 0.929 1_554 S
C477 C476 1.363 1_556 S
C477 C483 1.428 1_556 S
H478 C474 0.930 . S
H479 C476 0.929 1_556 S
S480 N481 1.613 . S
S480 N482 1.610 . S
N481 S480 1.613 . S
N481 C484 1.350 . S
N482 S480 1.610 . S
N482 C483 1.351 . S
C483 C477 1.428 1_554 S
C483 N482 1.351 . S
C483 C484 1.434 . S
C484 C475 1.429 . S
C484 N481 1.350 . S
C484 C483 1.434 . S
C485 C486 1.369 . S
C485 C487 1.419 1_655 S
C485 H489 0.930 1_655 S
C486 C485 1.369 . S
C486 C495 1.429 . S
C487 C485 1.419 1_455 S
C487 C488 1.363 1_454 S
C487 H490 0.929 . S
C488 C487 1.363 1_656 S
C488 C494 1.428 1_556 S
H489 C485 0.930 1_455 S
H490 C487 0.929 . S
S491 N492 1.613 . S
S491 N493 1.610 . S
N492 S491 1.613 . S
N492 C495 1.350 . S
N493 S491 1.610 . S
N493 C494 1.351 . S
C494 C488 1.428 1_554 S
C494 N493 1.351 . S
C494 C495 1.434 . S
C495 C486 1.429 . S
C495 N492 1.350 . S
C495 C494 1.434 . S
C496 C497 1.369 . S
C496 C498 1.419 . S
C496 H500 0.930 . S
C497 C496 1.369 . S
C497 C506 1.429 . S
C498 C496 1.419 . S
C498 C499 1.363 1_455 S
C498 H501 0.929 . S
C499 C498 1.363 1_655 S
C499 C505 1.428 . S
H500 C496 0.930 . S
H501 C498 0.929 . S
S502 N503 1.613 1_655 S
S502 N504 1.610 1_556 S
N503 S502 1.613 1_455 S
N503 C506 1.350 1_556 S
N504 S502 1.610 1_554 S
N504 C505 1.351 . S
C505 C499 1.428 . S
C505 N504 1.351 . S
C505 C506 1.434 1_655 S
C506 C497 1.429 . S
C506 N503 1.350 1_554 S
C506 C505 1.434 1_455 S
C507 C508 1.369 . S
C507 C509 1.419 . S
C507 H511 0.930 . S
C508 C507 1.369 . S
C508 C517 1.429 . S
C509 C507 1.419 . S
C509 C510 1.363 1_545 S
C509 H512 0.929 1_545 S
C510 C509 1.363 1_565 S
C510 C516 1.428 . S
H511 C507 0.930 . S
H512 C509 0.929 1_565 S
S513 N514 1.613 1_565 S
S513 N515 1.610 1_556 S
N514 S513 1.613 1_545 S
N514 C517 1.350 1_556 S
N515 S513 1.610 1_554 S
N515 C516 1.351 . S
C516 C510 1.428 . S
C516 N515 1.351 . S
C516 C517 1.434 1_565 S
C517 C508 1.429 . S
C517 N514 1.350 1_554 S
C517 C516 1.434 1_545 S
C518 C519 1.369 . S
C518 C520 1.419 . S
C518 H522 0.930 . S
C519 C518 1.369 . S
C519 C528 1.429 . S
C520 C518 1.419 . S
C520 C521 1.363 . S
C520 H523 0.929 . S
C521 C520 1.363 . S
C521 C527 1.428 . S
H522 C518 0.930 . S
H523 C520 0.929 . S
S524 N525 1.613 . S
S524 N526 1.610 1_556 S
N525 S524 1.613 . S
N525 C528 1.350 1_556 S
N526 S524 1.610 1_554 S
N526 C527 1.351 . S
C527 C521 1.428 . S
C527 N526 1.351 . S
C527 C528 1.434 . S
C528 C519 1.429 . S
C528 N525 1.350 1_554 S
C528 C527 1.434 . S
C529 C530 1.369 . S
C529 C531 1.419 . S
C529 H533 0.930 . S
C530 C529 1.369 . S
C530 C539 1.429 . S
C531 C529 1.419 . S
C531 C532 1.363 . S
C531 H534 0.929 . S
C532 C531 1.363 . S
C532 C538 1.428 . S
H533 C529 0.930 . S
H534 C531 0.929 . S
S535 N536 1.613 . S
S535 N537 1.610 1_556 S
N536 S535 1.613 . S
N536 C539 1.350 1_556 S
N537 S535 1.610 1_554 S
N537 C538 1.351 . S
C538 C532 1.428 . S
C538 N537 1.351 . S
C538 C539 1.434 . S
C539 C530 1.429 . S
C539 N536 1.350 1_554 S
C539 C538 1.434 . S
C540 C541 1.369 . S
C540 C542 1.419 1_655 S
C540 H544 0.930 . S
C541 C540 1.369 . S
C541 C550 1.429 . S
C542 C540 1.419 1_455 S
C542 C543 1.363 . S
C542 H545 0.929 . S
C543 C542 1.363 . S
C543 C549 1.428 1_455 S
H544 C540 0.930 . S
H545 C542 0.929 . S
S546 N547 1.613 1_556 S
S546 N548 1.610 . S
N547 S546 1.613 1_554 S
N547 C550 1.350 . S
N548 S546 1.610 . S
N548 C549 1.351 1_556 S
C549 C543 1.428 1_655 S
C549 N548 1.351 1_554 S
C549 C550 1.434 . S
C550 C541 1.429 . S
C550 N547 1.350 . S
C550 C549 1.434 . S
C551 C552 1.369 . S
C551 C553 1.403 1_565 S
C551 H555 0.930 . S
C552 C551 1.369 . S
C552 C561 1.429 1_565 S
C553 C551 1.403 1_545 S
C553 C554 1.382 . S
C553 H556 0.927 1_545 S
C554 C553 1.382 . S
C554 C560 1.428 . S
H555 C551 0.930 . S
H556 C553 0.927 1_565 S
S557 N558 1.613 . S
S557 N559 1.610 . S
N558 S557 1.613 . S
N558 C561 1.350 . S
N559 S557 1.610 . S
N559 C560 1.351 . S
C560 C554 1.428 . S
C560 N559 1.351 . S
C560 C561 1.434 . S
C561 C552 1.429 1_545 S
C561 N558 1.350 . S
C561 C560 1.434 . S
C562 C563 1.369 . S
C562 C564 1.419 . S
C562 H566 0.930 . S
C563 C562 1.369 . S
C563 C572 1.429 . S
C564 C562 1.419 . S
C564 C565 1.363 . S
C564 H567 0.929 . S
C565 C564 1.363 . S
C565 C571 1.428 . S
H566 C562 0.930 . S
H567 C564 0.929 . S
S568 N569 1.613 . S
S568 N570 1.610 . S
N569 S568 1.613 . S
N569 C572 1.350 . S
N570 S568 1.610 . S
N570 C571 1.351 . S
C571 C565 1.428 . S
C571 N570 1.351 . S
C571 C572 1.434 . S
C572 C563 1.429 . S
C572 N569 1.350 . S
C572 C571 1.434 . S
C573 C574 1.369 . S
C573 C575 1.419 . S
C573 H577 0.930 . S
C574 C573 1.369 . S
C574 C583 1.429 . S
C575 C573 1.419 . S
C575 C576 1.363 . S
C575 H578 0.929 . S
C576 C575 1.363 . S
C576 C582 1.428 . S
H577 C573 0.930 . S
H578 C575 0.929 . S
S579 N580 1.613 . S
S579 N581 1.610 . S
N580 S579 1.613 . S
N580 C583 1.350 . S
N581 S579 1.610 . S
N581 C582 1.351 . S
C582 C576 1.428 . S
C582 N581 1.351 . S
C582 C583 1.434 . S
C583 C574 1.429 . S
C583 N580 1.350 . S
C583 C582 1.434 . S
C584 C585 1.369 . S
C584 C586 1.419 . S
C584 H588 0.930 1_455 S
C585 C584 1.369 . S
C585 C594 1.429 . S
C586 C584 1.419 . S
C586 C587 1.363 . S
C586 H589 0.929 1_455 S
C587 C586 1.363 . S
C587 C593 1.428 . S
H588 C584 0.930 1_655 S
H589 C586 0.929 1_655 S
S590 N591 1.613 . S
S590 N592 1.610 . S
N591 S590 1.613 . S
N591 C594 1.350 . S
N592 S590 1.610 . S
N592 C593 1.351 . S
C593 C587 1.428 . S
C593 N592 1.351 . S
C593 C594 1.434 . S
C594 C585 1.429 . S
C594 N591 1.350 . S
C594 C593 1.434 . S
C595 C596 1.369 . S
C595 C597 1.419 . S
C595 H599 0.930 . S
C596 C595 1.369 . S
C596 C605 1.429 . S
C597 C595 1.419 . S
C597 C598 1.363 . S
C597 H600 0.929 . S
C598 C597 1.363 . S
C598 C604 1.428 . S
H599 C595 0.930 . S
H600 C597 0.929 . S
S601 N602 1.613 . S
S601 N603 1.610 . S
N602 S601 1.613 . S
N602 C605 1.350 1_565 S
N603 S601 1.610 . S
N603 C604 1.351 1_565 S
C604 C598 1.428 . S
C604 N603 1.351 1_545 S
C604 C605 1.434 . S
C605 C596 1.429 . S
C605 N602 1.350 1_545 S
C605 C604 1.434 . S
C606 C607 1.369 . S
C606 C608 1.419 . S
C606 H610 0.930 . S
C607 C606 1.369 . S
C607 C616 1.429 . S
C608 C606 1.419 . S
C608 C609 1.363 . S
C608 H611 0.929 . S
C609 C608 1.363 . S
C609 C615 1.428 . S
H610 C606 0.930 . S
H611 C608 0.929 . S
S612 N613 1.613 1_554 S
S612 N614 1.610 1_554 S
N613 S612 1.613 1_556 S
N613 C616 1.350 . S
N614 S612 1.610 1_556 S
N614 C615 1.351 . S
C615 C609 1.428 . S
C615 N614 1.351 . S
C615 C616 1.434 . S
C616 C607 1.429 . S
C616 N613 1.350 . S
C616 C615 1.434 . S
C617 C618 1.369 . S
C617 C619 1.419 . S
C617 H621 0.930 . S
C618 C617 1.369 . S
C618 C627 1.429 . S
C619 C617 1.419 . S
C619 C620 1.363 . S
C619 H622 0.929 . S
C620 C619 1.363 . S
C620 C626 1.428 . S
H621 C617 0.930 . S
H622 C619 0.929 . S
S623 N624 1.613 . S
S623 N625 1.610 . S
N624 S623 1.613 . S
N624 C627 1.350 . S
N625 S623 1.610 . S
N625 C626 1.351 . S
C626 C620 1.428 . S
C626 N625 1.351 . S
C626 C627 1.434 . S
C627 C618 1.429 . S
C627 N624 1.350 . S
C627 C626 1.434 . S
C628 C629 1.369 . S
C628 C630 1.419 . S
C628 H632 0.930 . S
C629 C628 1.369 . S
C629 C638 1.429 . S
C630 C628 1.419 . S
C630 C631 1.363 . S
C630 H633 0.929 . S
C631 C630 1.363 . S
C631 C637 1.428 . S
H632 C628 0.930 . S
H633 C630 0.929 . S
S634 N635 1.613 . S
S634 N636 1.610 . S
N635 S634 1.613 . S
N635 C638 1.350 1_455 S
N636 S634 1.610 . S
N636 C637 1.351 1_455 S
C637 C631 1.428 . S
C637 N636 1.351 1_655 S
C637 C638 1.434 . S
C638 C629 1.429 . S
C638 N635 1.350 1_655 S
C638 C637 1.434 . S
C639 C640 1.369 . S
C639 C641 1.419 . S
C639 H643 0.930 . S
C640 C639 1.369 . S
C640 C649 1.429 . S
C641 C639 1.419 . S
C641 C642 1.363 . S
C641 H644 0.929 . S
C642 C641 1.363 . S
C642 C648 1.428 . S
H643 C639 0.930 . S
H644 C641 0.929 . S
S645 N646 1.613 . S
S645 N647 1.610 . S
N646 S645 1.613 . S
N646 C649 1.350 1_545 S
N647 S645 1.610 . S
N647 C648 1.351 1_545 S
C648 C642 1.428 . S
C648 N647 1.351 1_565 S
C648 C649 1.434 . S
C649 C640 1.429 . S
C649 N646 1.350 1_565 S
C649 C648 1.434 . S
C650 C651 1.369 . S
C650 C652 1.419 . S
C650 H654 0.930 . S
C651 C650 1.369 . S
C651 C660 1.429 . S
C652 C650 1.419 . S
C652 C653 1.363 . S
C652 H655 0.929 . S
C653 C652 1.363 . S
C653 C659 1.428 . S
H654 C650 0.930 . S
H655 C652 0.929 . S
S656 N657 1.613 . S
S656 N658 1.610 . S
N657 S656 1.613 . S
N657 C660 1.350 . S
N658 S656 1.610 . S
N658 C659 1.351 . S
C659 C653 1.428 . S
C659 N658 1.351 . S
C659 C660 1.434 . S
C660 C651 1.429 . S
C660 N657 1.350 . S
C660 C659 1.434 . S
C661 C662 1.369 . S
C661 C663 1.419 . S
C661 H665 0.930 . S
C662 C661 1.369 . S
C662 C671 1.429 . S
C663 C661 1.419 . S
C663 C664 1.363 . S
C663 H666 0.929 . S
C664 C663 1.363 . S
C664 C670 1.428 . S
H665 C661 0.930 . S
H666 C663 0.929 . S
S667 N668 1.613 . S
S667 N669 1.610 . S
N668 S667 1.613 . S
N668 C671 1.350 . S
N669 S667 1.610 . S
N669 C670 1.351 . S
C670 C664 1.428 . S
C670 N669 1.351 . S
C670 C671 1.434 . S
C671 C662 1.429 . S
C671 N668 1.350 . S
C671 C670 1.434 . S
C409 C61 2.002 . S
C411 C146 2.122 . S
C422 C230 2.132 . S
C420 C70 2.023 . S
C433 C296 2.038 . S
C431 C43 2.071 . S
C444 C380 2.026 . S
C442 C52 2.078 . S
C455 C135 2.123 1_565 S
C453 C25 2.004 . S
C464 C34 2.031 . S
C466 C219 2.127 . S
C475 C7 2.085 . S
C477 C307 2.029 . S
C486 C16 2.080 . S
C488 C391 2.026 . S
C499 C142 0.992 . S
C497 C50 0.908 . S
C510 C226 0.959 . S
C508 C59 0.888 . S
C521 C298 0.899 . S
C519 C67 0.849 . S
C530 C41 0.870 . S
C532 C382 0.930 . S
C541 C14 0.932 . S
C543 C130 0.992 . S
C554 C214 0.959 . S
C552 C23 0.897 . S
C565 C310 0.895 . S
C563 C31 0.862 . S
C574 C5 0.874 . S
C576 C394 0.934 . S
C585 C49 2.135 . S
C587 C139 2.249 . S
C596 C58 2.112 . S
C598 C223 2.229 . S
C609 C303 2.280 . S
C607 C68 2.017 . S
C620 C387 2.292 . S
C618 C40 2.033 . S
C629 C13 2.136 . S
C631 C128 2.244 . S
C642 C212 2.228 . S
C640 C22 2.119 . S
C653 C314 2.281 . S
C651 C32 2.026 . S
C662 C4 2.040 . S
C664 C398 2.292 . S
