# Generated by pormake.
# Topology anh, (6,3)-cn, num edge types: 1
# Building blocks:
#     Node 0, Type 0, BuildingBlock: INOVEN_clean_sbu_0, # of connection points: 6
#     Node 1, Type 0, BuildingBlock: INOVEN_clean_sbu_0, # of connection points: 6
#     Node 2, Type 0, BuildingBlock: INOVEN_clean_sbu_0, # of connection points: 6
#     Node 3, Type 1, BuildingBlock: BETDAH_clean_linker_0, # of connection points: 3
#     Node 4, Type 1, BuildingBlock: BETDAH_clean_linker_0, # of connection points: 3
#     Node 5, Type 1, BuildingBlock: BETDAH_clean_linker_0, # of connection points: 3
#     Node 6, Type 1, BuildingBlock: BETDAH_clean_linker_0, # of connection points: 3
#     Node 7, Type 1, BuildingBlock: BETDAH_clean_linker_0, # of connection points: 3
#     Node 8, Type 1, BuildingBlock: BETDAH_clean_linker_0, # of connection points: 3
#     Edge 9, Type (0, 1), BuildingBlock: XUDNAN_clean_linker_2, # of connection points: 2
#     Edge 10, Type (0, 1), BuildingBlock: XUDNAN_clean_linker_2, # of connection points: 2
#     Edge 11, Type (0, 1), BuildingBlock: XUDNAN_clean_linker_2, # of connection points: 2
#     Edge 12, Type (0, 1), BuildingBlock: XUDNAN_clean_linker_2, # of connection points: 2
#     Edge 13, Type (0, 1), BuildingBlock: XUDNAN_clean_linker_2, # of connection points: 2
#     Edge 14, Type (0, 1), BuildingBlock: XUDNAN_clean_linker_2, # of connection points: 2
#     Edge 15, Type (0, 1), BuildingBlock: XUDNAN_clean_linker_2, # of connection points: 2
#     Edge 16, Type (0, 1), BuildingBlock: XUDNAN_clean_linker_2, # of connection points: 2
#     Edge 17, Type (0, 1), BuildingBlock: XUDNAN_clean_linker_2, # of connection points: 2
#     Edge 18, Type (0, 1), BuildingBlock: XUDNAN_clean_linker_2, # of connection points: 2
#     Edge 19, Type (0, 1), BuildingBlock: XUDNAN_clean_linker_2, # of connection points: 2
#     Edge 20, Type (0, 1), BuildingBlock: XUDNAN_clean_linker_2, # of connection points: 2
#     Edge 21, Type (0, 1), BuildingBlock: XUDNAN_clean_linker_2, # of connection points: 2
#     Edge 22, Type (0, 1), BuildingBlock: XUDNAN_clean_linker_2, # of connection points: 2
#     Edge 23, Type (0, 1), BuildingBlock: XUDNAN_clean_linker_2, # of connection points: 2
#     Edge 24, Type (0, 1), BuildingBlock: XUDNAN_clean_linker_2, # of connection points: 2
#     Edge 25, Type (0, 1), BuildingBlock: XUDNAN_clean_linker_2, # of connection points: 2
#     Edge 26, Type (0, 1), BuildingBlock: XUDNAN_clean_linker_2, # of connection points: 2
# Relax obj value: 0.144
# Max RMSD: 0.186
# Mean RMSD: 0.109
data_MOF--net-anh--node1-INOVEN_clean_sbu_0--node2-BETDAH_clean_linker_0--edge1-XUDNAN_clean_linker_2
_symmetry_space_group_name_H-M    P1
_symmetry_Int_Tables_number       1
_symmetry_cell_setting            triclinic
loop_
_symmetry_equiv_pos_as_xyz
'x, y, z'
_cell_length_a     32.606607
_cell_length_b     38.132926
_cell_length_c     49.172055
_cell_angle_alpha  95.326289
_cell_angle_beta   91.514993
_cell_angle_gamma 129.98063
loop_
_atom_site_label
_atom_site_type_symbol
_atom_site_fract_x
_atom_site_fract_y
_atom_site_fract_z
_atom_type_partial_charge
Gd0 Gd 0.1125 0.56252 0.14645 0.0
Gd1 Gd 1.04119 0.58481 0.15904 0.0
C2 C 0.16698 0.67178 0.15849 0.0
C3 C 0.1741 0.55341 0.12127 0.0
C4 C 0.22981 0.57235 0.12026 0.0
C5 C 0.26251 0.58279 0.14409 0.0
C6 C 0.24697 0.57239 0.09446 0.0
C7 C 0.32213 0.58196 0.11592 0.0
C8 C 0.29288 0.57727 0.09227 0.0
C9 C 0.30858 0.58772 0.14192 0.0
C10 C 0.10065 0.56728 0.20008 0.0
C11 C 0.98993 0.47679 0.15236 0.0
C12 C 0.97391 0.59353 0.17704 0.0
C13 C 0.91975 0.56199 0.1857 0.0
C14 C 0.88261 0.5677 0.17878 0.0
C15 C 0.90239 0.5226 0.19707 0.0
C16 C 0.80975 0.49125 0.18998 0.0
C17 C 0.84787 0.48779 0.19955 0.0
C18 C 0.82795 0.53258 0.18086 0.0
C19 C 0.05658 0.57951 0.10558 0.0
O20 O 0.17356 0.64147 0.15101 0.0
O21 O 0.11978 0.65833 0.16439 0.0
O22 O 0.15027 0.53266 0.1424 0.0
O23 O 0.1614 0.57733 0.11302 0.0
O24 O 0.1117 0.54279 0.18829 0.0
O25 O 0.10432 0.59309 0.18412 0.0
O26 O 0.98625 0.5077 0.16334 0.0
O27 O 1.03265 0.49003 0.14022 0.0
O28 O 0.97639 0.58568 0.15095 0.0
O29 O 1.01333 0.60244 0.19289 0.0
O30 O 0.05749 0.61144 0.1181 0.0
O31 O 1.04757 0.55206 0.12176 0.0
H32 H 0.25033 0.58357 0.16427 0.0
H33 H 0.22231 0.56461 0.07586 0.0
H34 H 0.30188 0.57241 0.07192 0.0
H35 H 0.33091 0.59206 0.1605 0.0
H36 H 0.89532 0.59783 0.16988 0.0
H37 H 0.93021 0.51725 0.20241 0.0
H38 H 0.83509 0.45676 0.20713 0.0
H39 H 0.79969 0.53624 0.17303 0.0
Gd40 Gd 0.65531 0.06377 0.47781 0.0
Gd41 Gd 0.58502 0.08625 0.46678 0.0
C42 C 0.52506 0.98078 0.46808 0.0
C43 C 0.7021 0.0345 0.49627 0.0
C44 C 0.68857 0.99442 0.50782 0.0
C45 C 0.63717 0.95057 0.50196 0.0
C46 C 0.7286 0.99995 0.52425 0.0
C47 C 0.66732 0.91758 0.52752 0.0
C48 C 0.71813 0.96196 0.53403 0.0
C49 C 0.6266 0.91243 0.51176 0.0
C50 C 0.64236 0.07094 0.42484 0.0
C51 C 0.71742 0.17007 0.47469 0.0
C52 C 0.53863 0.1172 0.45075 0.0
C53 C 0.54798 0.16037 0.4573 0.0
C54 C 0.50742 0.16161 0.44941 0.0
C55 C 0.59582 0.19964 0.47263 0.0
C56 C 0.56217 0.24111 0.47222 0.0
C57 C 0.60293 0.23974 0.47999 0.0
C58 C 0.51437 0.20155 0.4568 0.0
C59 C 0.59893 0.08002 0.52001 0.0
O60 O 0.57108 0.99713 0.48167 0.0
O61 O 0.52257 0.00844 0.45518 0.0
O62 O 0.68527 0.02745 0.47032 0.0
O63 O 0.69692 0.06109 0.51164 0.0
O64 O 0.68776 0.08658 0.4374 0.0
O65 O 0.6054 0.05104 0.44033 0.0
O66 O 0.66947 0.15675 0.46681 0.0
O67 O 0.72189 0.14052 0.48288 0.0
O68 O 0.5239 0.09244 0.47075 0.0
O69 O 0.57444 0.11967 0.43741 0.0
O70 O 0.55378 0.06485 0.50757 0.0
O71 O 0.63523 0.09942 0.50417 0.0
H72 H 0.60567 0.94565 0.48933 0.0
H73 H 0.76837 0.03361 0.52913 0.0
H74 H 0.75006 0.96726 0.5465 0.0
H75 H 0.58718 0.87871 0.5062 0.0
H76 H 0.46998 0.13141 0.43786 0.0
H77 H 0.62743 0.19917 0.47913 0.0
H78 H 0.64043 0.2697 0.4916 0.0
H79 H 0.4818 0.2011 0.45086 0.0
Gd80 Gd 0.64143 0.59852 0.84357 0.0
Gd81 Gd 0.56403 0.49813 0.84388 0.0
C82 C 0.50815 0.54694 0.84643 0.0
C83 C 0.69039 0.67998 0.82986 0.0
C84 C 0.67779 0.70865 0.82123 0.0
C85 C 0.65223 0.72012 0.83769 0.0
C86 C 0.69246 0.72541 0.79594 0.0
C87 C 0.6567 0.76489 0.8036 0.0
C88 C 0.68192 0.75303 0.78717 0.0
C89 C 0.64199 0.74812 0.82899 0.0
C90 C 0.62952 0.57261 0.89376 0.0
C91 C 0.69914 0.55167 0.84429 0.0
C92 C 0.52023 0.41496 0.85162 0.0
C93 C 0.53663 0.38794 0.84262 0.0
C94 C 0.56654 0.39889 0.82011 0.0
C95 C 0.52564 0.35323 0.85712 0.0
C96 C 0.57463 0.34091 0.82662 0.0
C97 C 0.54434 0.32977 0.84914 0.0
C98 C 0.58504 0.37556 0.81213 0.0
C99 C 0.57482 0.52298 0.79352 0.0
O100 O 0.55793 0.5831 0.8409 0.0
O101 O 0.50092 0.50915 0.8513 0.0
O102 O 0.68626 0.67203 0.85541 0.0
O103 O 0.67278 0.64379 0.81233 0.0
O104 O 0.67593 0.60663 0.88649 0.0
O105 O 0.59239 0.55584 0.87476 0.0
O106 O 0.6484 0.5135 0.84699 0.0
O107 O 0.70608 0.5896 0.84079 0.0
O108 O 0.50202 0.4241 0.83191 0.0
O109 O 0.55425 0.45101 0.87021 0.0
O110 O 0.52913 0.48972 0.80139 0.0
O111 O 0.6129 0.5403 0.8121 0.0
H112 H 0.64015 0.70753 0.85724 0.0
H113 H 0.71244 0.71728 0.78292 0.0
H114 H 0.69443 0.7658 0.76769 0.0
H115 H 0.62202 0.75622 0.842 0.0
H116 H 0.576 0.42587 0.80873 0.0
H117 H 0.50323 0.34469 0.87477 0.0
H118 H 0.536 0.30361 0.86094 0.0
H119 H 0.60728 0.38458 0.7944 0.0
H120 H 0.50191 0.98568 0.22902 0.0
H121 H 0.64459 0.12059 0.21501 0.0
H122 H 0.52229 0.02392 0.14804 0.0
C123 C 0.52667 0.01051 0.21524 0.0
C124 C 0.50706 0.99863 0.18728 0.0
C125 C 0.5758 0.05457 0.22576 0.0
C126 C 0.60625 0.08699 0.20746 0.0
C127 C 0.58716 0.07636 0.17941 0.0
C128 C 0.5373 0.0322 0.16959 0.0
N129 N 0.61613 0.10916 0.16061 0.0
C130 C 0.66745 0.15327 0.16606 0.0
H131 H 0.60349 0.49065 0.59513 0.0
H132 H 0.64845 0.62465 0.59724 0.0
H133 H 0.65562 0.56011 0.52348 0.0
C134 C 0.61868 0.52046 0.58509 0.0
C135 C 0.62753 0.52008 0.55724 0.0
C136 C 0.6263 0.5582 0.5996 0.0
C137 C 0.64302 0.59576 0.58616 0.0
C138 C 0.65397 0.59643 0.5587 0.0
C139 C 0.647 0.55907 0.54467 0.0
N140 N 0.67199 0.63389 0.54437 0.0
C141 C 0.66476 0.66555 0.55155 0.0
H142 H 1.00167 0.54843 0.90645 0.0
H143 H 0.13474 0.55045 0.90003 0.0
H144 H 1.05046 0.54158 0.82649 0.0
C145 C 1.02626 0.54631 0.8932 0.0
C146 C 1.01718 0.54385 0.86464 0.0
C147 C 0.06856 0.54966 0.90572 0.0
C148 C 0.10328 0.54839 0.88979 0.0
C149 C 0.09828 0.54456 0.86107 0.0
C150 C 0.05495 0.54332 0.84857 0.0
N151 N 0.13529 0.54211 0.8451 0.0
C152 C 0.18189 0.54471 0.85194 0.0
H153 H 0.19085 0.66397 0.39742 0.0
H154 H 1.04568 0.53124 0.41107 0.0
H155 H 0.15631 0.63359 0.48007 0.0
C156 C 0.16503 0.64058 0.41164 0.0
C157 C 0.18022 0.65506 0.44008 0.0
C158 C 0.11673 0.59632 0.40112 0.0
C159 C 0.08302 0.56524 0.41925 0.0
C160 C 0.09732 0.57826 0.44783 0.0
C161 C 0.14576 0.62332 0.45805 0.0
N162 N 0.06347 0.54778 0.46686 0.0
C163 C 1.0218 0.49961 0.46109 0.0
H164 H 0.63627 0.14017 0.71478 0.0
H165 H 0.62223 0.02257 0.72734 0.0
H166 H 0.6256 0.10359 0.79585 0.0
C167 C 0.63384 0.11822 0.72839 0.0
C168 C 0.63206 0.12662 0.75655 0.0
C169 C 0.62944 0.08031 0.7175 0.0
C170 C 0.62518 0.05159 0.73548 0.0
C171 C 0.62428 0.06023 0.76386 0.0
C172 C 0.62683 0.09724 0.77405 0.0
N173 N 0.62024 0.03243 0.78286 0.0
C174 C 0.62236 0.99723 0.77688 0.0
H175 H 0.55974 0.37505 0.05443 0.0
H176 H 0.42863 0.37162 0.03135 0.0
H177 H 0.42164 0.30617 0.0993 0.0
C178 C 0.5197 0.36305 0.05661 0.0
C179 C 0.49267 0.33825 0.07829 0.0
C180 C 0.49718 0.37553 0.03932 0.0
C181 C 0.44607 0.36095 0.04352 0.0
C182 C 0.41843 0.33519 0.06475 0.0
C183 C 0.44148 0.32339 0.08183 0.0
N184 N 0.37152 0.32716 0.07171 0.0
C185 C 0.37191 0.36386 0.075 0.0
H186 H 0.32066 0.52377 0.14439 0.0
H187 H 0.39652 0.60783 0.07923 0.0
H188 H 0.42878 0.5661 0.06509 0.0
H189 H 0.42238 0.5061 0.15801 0.0
H190 H 0.3685 0.44775 0.16398 0.0
H191 H 0.36497 0.49252 0.17342 0.0
H192 H 0.27229 0.44259 0.14412 0.0
H193 H 0.2761 0.39847 0.13371 0.0
H194 H 0.26691 0.42441 0.10807 0.0
H195 H 0.43455 0.50446 0.05188 0.0
H196 H 0.42091 0.43229 0.04353 0.0
H197 H 0.34025 0.38851 0.11703 0.0
C198 C 0.34679 0.5354 0.12821 0.0
C199 C 0.35643 0.56927 0.11303 0.0
C200 C 0.38886 0.58205 0.09118 0.0
C201 C 0.40737 0.55857 0.08304 0.0
C202 C 0.39367 0.52294 0.09723 0.0
C203 C 0.36518 0.51216 0.1198 0.0
C204 C 0.34906 0.46854 0.12923 0.0
C205 C 0.37798 0.47939 0.15786 0.0
C206 C 0.28747 0.43136 0.12873 0.0
C207 C 0.36987 0.45478 0.10741 0.0
C208 C 0.39642 0.487 0.08942 0.0
C209 C 0.41501 0.47962 0.06621 0.0
C210 C 0.40664 0.43848 0.06145 0.0
C211 C 0.37941 0.40543 0.07966 0.0
C212 C 0.36129 0.41372 0.10296 0.0
H213 H 0.7317 0.24949 0.46755 0.0
H214 H 0.81945 0.20047 0.47714 0.0
H215 H 0.90396 0.27745 0.47251 0.0
H216 H 0.81138 0.32669 0.41787 0.0
H217 H 0.81075 0.37154 0.4323 0.0
H218 H 0.75573 0.31207 0.43574 0.0
H219 H 0.76974 0.33356 0.48853 0.0
H220 H 0.82457 0.39316 0.4853 0.0
H221 H 0.83518 0.36333 0.50689 0.0
H222 H 0.97994 0.35923 0.46641 0.0
H223 H 1.04344 0.44278 0.46278 0.0
H224 H 0.91075 0.44309 0.45872 0.0
C225 C 0.7687 0.25499 0.4687 0.0
C226 C 0.7683 0.2183 0.47277 0.0
C227 C 0.81802 0.22748 0.47423 0.0
C228 C 0.86657 0.2713 0.47146 0.0
C229 C 0.86565 0.30646 0.46742 0.0
C230 C 0.81823 0.29917 0.46632 0.0
C231 C 0.82952 0.34392 0.46271 0.0
C232 C 0.80009 0.3382 0.43554 0.0
C233 C 0.81382 0.35941 0.48732 0.0
C234 C 0.8905 0.37723 0.46196 0.0
C235 C 0.91018 0.35448 0.46446 0.0
C236 C 0.96497 0.37738 0.46442 0.0
C237 C 1.0008 0.42484 0.46223 0.0
C238 C 0.98213 0.4493 0.46017 0.0
C239 C 0.9261 0.42508 0.45991 0.0
H240 H 0.67254 0.83789 0.83395 0.0
H241 H 0.61797 0.7602 0.75196 0.0
H242 H 0.60399 0.81168 0.73586 0.0
H243 H 0.57932 0.85912 0.83396 0.0
H244 H 0.62768 0.91666 0.85267 0.0
H245 H 0.63279 0.87333 0.85764 0.0
H246 H 0.73083 0.92725 0.84516 0.0
H247 H 0.72593 0.97065 0.84002 0.0
H248 H 0.74434 0.94962 0.81286 0.0
H249 H 0.59616 0.87236 0.72863 0.0
H250 H 0.59472 0.93698 0.73137 0.0
H251 H 0.65442 0.97465 0.81781 0.0
C252 C 0.65708 0.83136 0.81268 0.0
C253 C 0.64639 0.79495 0.79422 0.0
C254 C 0.627 0.78813 0.76643 0.0
C255 C 0.61872 0.8171 0.75711 0.0
C256 C 0.63012 0.8529 0.77578 0.0
C257 C 0.64885 0.86009 0.803 0.0
C258 C 0.65867 0.90137 0.81883 0.0
C259 C 0.62244 0.88673 0.84215 0.0
C260 C 0.7185 0.93947 0.82986 0.0
C261 C 0.64228 0.91613 0.79634 0.0
C262 C 0.62597 0.8878 0.77161 0.0
C263 C 0.6089 0.89474 0.74788 0.0
C264 C 0.60826 0.93143 0.74956 0.0
C265 C 0.62465 0.96047 0.77472 0.0
C266 C 0.64192 0.95281 0.79831 0.0
H267 H 0.72072 0.48318 0.19684 0.0
H268 H 0.77006 0.4068 0.16625 0.0
H269 H 0.67912 0.34428 0.14317 0.0
H270 H 0.5684 0.37507 0.19864 0.0
H271 H 0.54927 0.40672 0.18699 0.0
H272 H 0.61072 0.43649 0.20951 0.0
H273 H 0.66411 0.49326 0.1744 0.0
H274 H 0.60346 0.4636 0.15176 0.0
H275 H 0.65969 0.47062 0.13955 0.0
H276 H 0.59845 0.30608 0.11134 0.0
H277 H 0.5302 0.29144 0.07711 0.0
H278 H 0.52817 0.3889 0.12808 0.0
C279 C 0.71132 0.4521 0.18645 0.0
C280 C 0.75216 0.44933 0.18376 0.0
C281 C 0.73898 0.40877 0.16947 0.0
C282 C 0.68733 0.37316 0.15608 0.0
C283 C 0.64886 0.37832 0.15738 0.0
C284 C 0.65971 0.41628 0.17283 0.0
C285 C 0.61507 0.41774 0.16691 0.0
C286 C 0.58401 0.40843 0.19201 0.0
C287 C 0.63692 0.464 0.15758 0.0
C288 C 0.58066 0.37775 0.14375 0.0
C289 C 0.59997 0.3546 0.13903 0.0
C290 C 0.58118 0.32228 0.11556 0.0
C291 C 0.54271 0.31425 0.09617 0.0
C292 C 0.52329 0.3381 0.10064 0.0
C293 C 0.54108 0.36892 0.12505 0.0
H294 H 0.4261 0.92648 0.43538 0.0
H295 H 0.51255 0.92193 0.50165 0.0
H296 H 0.43355 0.84041 0.5031 0.0
H297 H 0.29382 0.85154 0.45979 0.0
H298 H 0.25816 0.82297 0.4259 0.0
H299 H 0.32093 0.8817 0.43047 0.0
H300 H 0.35991 0.85802 0.39542 0.0
H301 H 0.29723 0.79928 0.3907 0.0
H302 H 0.35934 0.81156 0.40072 0.0
H303 H 0.34437 0.75807 0.49742 0.0
H304 H 0.25496 0.68123 0.48302 0.0
H305 H 0.22551 0.73767 0.42018 0.0
C306 C 0.42834 0.90842 0.45028 0.0
C307 C 0.47605 0.93114 0.46841 0.0
C308 C 0.47699 0.90573 0.48741 0.0
C309 C 0.43202 0.85921 0.4885 0.0
C310 C 0.38582 0.83785 0.47039 0.0
C311 C 0.38369 0.86151 0.45151 0.0
C312 C 0.32954 0.82977 0.43377 0.0
C313 C 0.2988 0.84757 0.43773 0.0
C314 C 0.33697 0.82434 0.40335 0.0
C315 C 0.30184 0.78472 0.44555 0.0
C316 C 0.33484 0.79024 0.46682 0.0
C317 C 0.31819 0.75346 0.4808 0.0
C318 C 0.26698 0.70985 0.47259 0.0
C319 C 0.23263 0.7028 0.4504 0.0
C320 C 0.2506 0.74132 0.43703 0.0
H321 H 0.52424 0.24836 0.82507 0.0
H322 H 0.67267 0.37898 0.80864 0.0
H323 H 0.70433 0.33873 0.79022 0.0
H324 H 0.58725 0.20094 0.84641 0.0
H325 H 0.53059 0.14287 0.83097 0.0
H326 H 0.52038 0.18227 0.84389 0.0
H327 H 0.47296 0.16876 0.79623 0.0
H328 H 0.48335 0.12963 0.7831 0.0
H329 H 0.5077 0.17878 0.76617 0.0
H330 H 0.71655 0.28353 0.76972 0.0
H331 H 0.71163 0.2177 0.75233 0.0
H332 H 0.55878 0.12368 0.78488 0.0
C333 C 0.56383 0.26868 0.8181 0.0
C334 C 0.59553 0.31686 0.81799 0.0
C335 C 0.64694 0.34193 0.80836 0.0
C336 C 0.66553 0.31942 0.79803 0.0
C337 C 0.63271 0.27182 0.79778 0.0
C338 C 0.58332 0.2468 0.80794 0.0
C339 C 0.5557 0.19581 0.80494 0.0
C340 C 0.54805 0.17952 0.83324 0.0
C341 C 0.50174 0.16653 0.78651 0.0
C342 C 0.59684 0.19601 0.79107 0.0
C343 C 0.64088 0.24023 0.78702 0.0
C344 C 0.68269 0.24886 0.77316 0.0
C345 C 0.67951 0.21136 0.76327 0.0
C346 C 0.6352 0.16592 0.76756 0.0
C347 C 0.59354 0.15827 0.78178 0.0
H348 H 0.73582 0.89934 0.52596 0.0
H349 H 0.57743 0.84283 0.54732 0.0
H350 H 0.56164 0.77365 0.55931 0.0
H351 H 0.69903 0.79503 0.4945 0.0
H352 H 0.76083 0.80836 0.50687 0.0
H353 H 0.76054 0.85435 0.5019 0.0
H354 H 0.80097 0.89134 0.55258 0.0
H355 H 0.80131 0.84535 0.55773 0.0
H356 H 0.76719 0.85734 0.5798 0.0
H357 H 0.56188 0.70859 0.56664 0.0
H358 H 0.57741 0.65279 0.56712 0.0
H359 H 0.73573 0.7532 0.54149 0.0
C360 C 0.69822 0.87293 0.53372 0.0
C361 C 0.65803 0.8767 0.53591 0.0
C362 C 0.60873 0.84061 0.54536 0.0
C363 C 0.59957 0.80136 0.5524 0.0
C364 C 0.64013 0.7988 0.54991 0.0
C365 C 0.68847 0.8337 0.54078 0.0
C366 C 0.72455 0.82178 0.5385 0.0
C367 C 0.73693 0.81975 0.50867 0.0
C368 C 0.77658 0.85599 0.55834 0.0
C369 C 0.68872 0.77433 0.54736 0.0
C370 C 0.64031 0.76171 0.55411 0.0
C371 C 0.59987 0.71838 0.56172 0.0
C372 C 0.60897 0.68702 0.56202 0.0
C373 C 0.65794 0.69939 0.55474 0.0
C374 C 0.69838 0.74356 0.54763 0.0
H375 H 0.72736 0.50058 0.86994 0.0
H376 H 0.79089 0.6064 0.81737 0.0
H377 H 0.87084 0.61266 0.81439 0.0
H378 H 0.85981 0.55553 0.90811 0.0
H379 H 0.84527 0.50197 0.91155 0.0
H380 H 0.79118 0.50345 0.90851 0.0
H381 H 0.74426 0.43891 0.86689 0.0
H382 H 0.79831 0.43733 0.86983 0.0
H383 H 0.78058 0.4466 0.83786 0.0
H384 H 0.95019 0.60609 0.81589 0.0
H385 H 1.01541 0.59443 0.82615 0.0
H386 H 0.90972 0.49844 0.88123 0.0
C387 C 0.75768 0.52506 0.85756 0.0
C388 C 0.74949 0.55268 0.84357 0.0
C389 C 0.79309 0.58425 0.82837 0.0
C390 C 0.83985 0.58807 0.82648 0.0
C391 C 0.84648 0.56088 0.8403 0.0
C392 C 0.80645 0.53028 0.856 0.0
C393 C 0.82506 0.50675 0.87001 0.0
C394 C 0.83063 0.51754 0.90142 0.0
C395 C 0.78464 0.45427 0.86061 0.0
C396 C 0.88111 0.52849 0.85996 0.0
C397 C 0.89225 0.55915 0.84234 0.0
C398 C 0.94083 0.58216 0.82991 0.0
C399 C 0.97845 0.57491 0.83574 0.0
C400 C 0.97047 0.5451 0.85457 0.0
C401 C 0.9195 0.52166 0.8666 0.0
H402 H 0.27467 0.72161 0.17723 0.0
H403 H 0.16398 0.73662 0.1425 0.0
H404 H 0.23936 0.8203 0.14321 0.0
H405 H 0.35234 0.82876 0.22419 0.0
H406 H 0.4157 0.8417 0.22138 0.0
H407 H 0.35385 0.7825 0.21631 0.0
H408 H 0.37711 0.76971 0.16847 0.0
H409 H 0.43892 0.82898 0.17334 0.0
H410 H 0.39115 0.807 0.14355 0.0
H411 H 0.32802 0.90298 0.14674 0.0
H412 H 0.41982 0.97899 0.1584 0.0
H413 H 0.47228 0.91258 0.19476 0.0
C414 C 0.26648 0.74253 0.16961 0.0
C415 C 0.2133 0.72236 0.15955 0.0
C416 C 0.2042 0.75117 0.15029 0.0
C417 C 0.24691 0.79878 0.15049 0.0
C418 C 0.29879 0.81768 0.16053 0.0
C419 C 0.30862 0.79061 0.1704 0.0
C420 C 0.3675 0.82025 0.1819 0.0
C421 C 0.37263 0.81817 0.21278 0.0
C422 C 0.39531 0.8056 0.16585 0.0
C423 C 0.38923 0.86805 0.17684 0.0
C424 C 0.3491 0.86566 0.16405 0.0
C425 C 0.35961 0.90518 0.15688 0.0
C426 C 0.41202 0.94826 0.16341 0.0
C427 C 0.4534 0.95195 0.17745 0.0
C428 C 0.44157 0.91099 0.18404 0.0
H429 H 0.60743 0.29936 0.5217 0.0
H430 H 0.53259 0.27869 0.44072 0.0
H431 H 0.54038 0.34681 0.45412 0.0
H432 H 0.54616 0.33638 0.55971 0.0
H433 H 0.60519 0.37937 0.58369 0.0
H434 H 0.59421 0.329 0.56791 0.0
H435 H 0.68756 0.38135 0.54977 0.0
H436 H 0.69899 0.4319 0.56564 0.0
H437 H 0.70356 0.42483 0.52939 0.0
H438 H 0.55436 0.41561 0.47614 0.0
H439 H 0.57633 0.48308 0.50504 0.0
H440 H 0.64541 0.46194 0.57159 0.0
C441 C 0.59322 0.30945 0.50667 0.0
C442 C 0.56905 0.28339 0.48016 0.0
C443 C 0.55039 0.29753 0.46127 0.0
C444 C 0.5549 0.33635 0.46863 0.0
C445 C 0.57837 0.36088 0.49495 0.0
C446 C 0.5975 0.34825 0.51367 0.0
C447 C 0.62103 0.38083 0.54063 0.0
C448 C 0.58976 0.35483 0.56438 0.0
C449 C 0.68137 0.40623 0.54671 0.0
C450 C 0.61197 0.41364 0.53411 0.0
C451 C 0.58724 0.40133 0.50763 0.0
C452 C 0.57419 0.42589 0.49682 0.0
C453 C 0.58719 0.46438 0.51338 0.0
C454 C 0.61334 0.47833 0.54049 0.0
C455 C 0.62539 0.45219 0.55101 0.0
H456 H 0.3894 0.48088 0.85192 0.0
H457 H 0.51819 0.62452 0.84333 0.0
H458 H 0.45402 0.6382 0.84462 0.0
H459 H 0.28288 0.46776 0.80904 0.0
H460 H 0.22973 0.43102 0.82982 0.0
H461 H 0.28527 0.43141 0.82874 0.0
H462 H 0.30452 0.45112 0.88147 0.0
H463 H 0.24908 0.45086 0.88268 0.0
H464 H 0.31551 0.50111 0.89811 0.0
H465 H 0.37167 0.63837 0.84722 0.0
H466 H 0.2863 0.62397 0.84913 0.0
H467 H 0.20282 0.48007 0.85498 0.0
C468 C 0.40472 0.51547 0.85034 0.0
C469 C 0.46208 0.55154 0.84755 0.0
C470 C 0.4767 0.59549 0.84549 0.0
C471 C 0.4395 0.60385 0.84624 0.0
C472 C 0.38454 0.56829 0.84896 0.0
C473 C 0.36698 0.52459 0.85085 0.0
C474 C 0.30494 0.49244 0.85319 0.0
C475 C 0.27384 0.4533 0.82875 0.0
C476 C 0.29277 0.47267 0.88048 0.0
C477 C 0.29043 0.52441 0.85242 0.0
C478 C 0.3376 0.56825 0.85007 0.0
C479 C 0.33521 0.60385 0.84906 0.0
C480 C 0.28535 0.59524 0.85027 0.0
C481 C 0.23494 0.55097 0.85253 0.0
C482 C 0.23895 0.51494 0.85354 0.0
H483 H 0.8817 0.42721 0.16079 0.0
H484 H 1.00064 0.41123 0.14918 0.0
H485 H 0.93289 0.32851 0.15361 0.0
H486 H 0.80724 0.34384 0.20976 0.0
H487 H 0.74392 0.32484 0.19439 0.0
H488 H 0.80551 0.38265 0.19288 0.0
H489 H 0.78193 0.36389 0.13748 0.0
H490 H 0.72171 0.3072 0.1425 0.0
H491 H 0.76888 0.31331 0.1207 0.0
H492 H 0.85152 0.24625 0.1596 0.0
H493 H 0.76186 0.17103 0.16326 0.0
H494 H 0.69352 0.23792 0.169 0.0
C495 C 0.89353 0.40634 0.15927 0.0
C496 C 0.94703 0.42628 0.15467 0.0
C497 C 0.96023 0.39723 0.15254 0.0
C498 C 0.92192 0.34999 0.15517 0.0
C499 C 0.86975 0.33143 0.15964 0.0
C500 C 0.85526 0.35854 0.16134 0.0
C501 C 0.79558 0.32917 0.16479 0.0
C502 C 0.78749 0.34611 0.19205 0.0
C503 C 0.76518 0.32839 0.13996 0.0
C504 C 0.77909 0.28179 0.16532 0.0
C505 C 0.82263 0.28389 0.1624 0.0
C506 C 0.8173 0.24441 0.16195 0.0
C507 C 0.76626 0.20181 0.16417 0.0
C508 C 0.72096 0.1987 0.16678 0.0
C509 C 0.72764 0.23936 0.16745 0.0
H510 H 0.9905 0.51597 0.06033 0.0
H511 H 0.15276 0.64341 0.08714 0.0
H512 H 0.17557 0.64624 0.03925 0.0
H513 H 1.02189 0.46717 0.00523 0.0
H514 H 0.96346 0.44506 0.98239 0.0
H515 H 0.96174 0.45021 0.01907 0.0
H516 H 0.93448 0.50031 0.01538 0.0
H517 H 0.93621 0.49538 0.97873 0.0
H518 H 0.97618 0.55169 -0.00088 0.0
H519 H 0.17985 0.63613 0.98826 0.0
H520 H 0.16352 0.61805 0.93755 0.0
H521 H 0.99627 0.50037 0.94301 0.0
C522 C 1.03105 0.54387 0.05605 0.0
C523 C 0.07042 0.57901 0.0773 0.0
C524 C 0.1225 0.61592 0.07104 0.0
C525 C 0.13573 0.61771 0.04396 0.0
C526 C 0.09598 0.58277 0.02329 0.0
C527 C 1.04449 0.54679 0.02894 0.0
C528 C 1.00803 0.51599 0.00264 0.0
C529 C 0.98758 0.46668 0.00232 0.0
C530 C 0.96095 0.51586 -0.00125 0.0
C531 C 1.04691 0.54036 0.98134 0.0
C532 C 0.09766 0.57835 0.99374 0.0
C533 C 0.1403 0.60642 0.97835 0.0
C534 C 0.13072 0.59577 0.94957 0.0
C535 C 0.07873 0.55779 0.93633 0.0
C536 C 1.03643 0.52965 0.95256 0.0
H537 H 0.58996 1.0053 0.37944 0.0
H538 H 0.68228 0.1514 0.40677 0.0
H539 H 0.67551 0.16373 0.35876 0.0
H540 H 0.65316 0.02079 0.31759 0.0
H541 H 0.5928 0.96987 0.2975 0.0
H542 H 0.60203 0.97222 0.3341 0.0
H543 H 0.51141 0.95425 0.33877 0.0
H544 H 0.50183 0.95169 0.30217 0.0
H545 H 0.50047 0.99038 0.32531 0.0
H546 H 0.65668 0.15924 0.30777 0.0
H547 H 0.63105 0.13963 0.25774 0.0
H548 H 0.55985 0.99768 0.26311 0.0
C549 C 0.60809 0.03968 0.3752 0.0
C550 C 0.63586 0.0774 0.39655 0.0
C551 C 0.66038 0.12218 0.39049 0.0
C552 C 0.65676 0.12942 0.36337 0.0
C553 C 0.62941 0.09158 0.34258 0.0
C554 C 0.60593 0.04766 0.34814 0.0
C555 C 0.58124 0.01339 0.32194 0.0
C556 C 0.60898 0.99288 0.31753 0.0
C557 C 0.52011 0.97518 0.32206 0.0
C558 C 0.59391 0.04474 0.30081 0.0
C559 C 0.62133 0.08959 0.31313 0.0
C560 C 0.63579 0.12432 0.29786 0.0
C561 C 0.62148 0.11285 0.26928 0.0
C562 C 0.59357 0.06705 0.25603 0.0
C563 C 0.58041 0.0329 0.27228 0.0
H564 H 0.64726 0.53697 0.75896 0.0
H565 H 0.51321 0.53456 0.76523 0.0
H566 H 0.5161 0.54884 0.71697 0.0
H567 H 0.71883 0.62322 0.71128 0.0
H568 H 0.73636 0.59274 0.69205 0.0
H569 H 0.7286 0.58863 0.72807 0.0
H570 H 0.65821 0.49933 0.71672 0.0
H571 H 0.66544 0.50314 0.68069 0.0
H572 H 0.5999 0.47281 0.69241 0.0
H573 H 0.5315 0.56085 0.66792 0.0
H574 H 0.55388 0.56398 0.62 0.0
H575 H 0.672 0.55098 0.64395 0.0
C576 C 0.61952 0.5406 0.75023 0.0
C577 C 0.58062 0.53561 0.7657 0.0
C578 C 0.54357 0.53883 0.75358 0.0
C579 C 0.545 0.547 0.72628 0.0
C580 C 0.58311 0.55092 0.71128 0.0
C581 C 0.6194 0.54742 0.72268 0.0
C582 C 0.65263 0.5484 0.70125 0.0
C583 C 0.71267 0.59078 0.7086 0.0
C584 C 0.64347 0.50323 0.69755 0.0
C585 C 0.62901 0.55258 0.67603 0.0
C586 C 0.58967 0.55486 0.68243 0.0
C587 C 0.5622 0.55909 0.66264 0.0
C588 C 0.57511 0.56085 0.63556 0.0
C589 C 0.61433 0.55749 0.62845 0.0
C590 C 0.64159 0.55331 0.64894 0.0
H591 H 0.6744 0.13972 0.56397 0.0
H592 H 0.53212 0.99691 0.53771 0.0
H593 H 0.53235 0.97924 0.58481 0.0
H594 H 0.73805 0.11948 0.61764 0.0
H595 H 0.75956 0.16934 0.64083 0.0
H596 H 0.75434 0.16903 0.6042 0.0
H597 H 0.69059 0.18726 0.60898 0.0
H598 H 0.69543 0.18746 0.64553 0.0
H599 H 0.63033 0.14982 0.62548 0.0
H600 H 0.54261 0.9785 0.63522 0.0
H601 H 0.55778 0.99573 0.68587 0.0
H602 H 0.6904 0.14016 0.68051 0.0
C603 C 0.64447 0.10453 0.56811 0.0
C604 C 0.60384 0.06936 0.54731 0.0
C605 C 0.56388 0.02406 0.55346 0.0
C606 C 0.56383 0.01372 0.58008 0.0
C607 C 0.60361 0.04929 0.60043 0.0
C608 C 0.64306 0.09389 0.59485 0.0
C609 C 0.6769 0.12681 0.62109 0.0
C610 C 0.7357 0.14737 0.62092 0.0
C611 C 0.67305 0.16508 0.62552 0.0
C612 C 0.64944 0.09403 0.64228 0.0
C613 C 0.60807 0.0493 0.62986 0.0
C614 C 0.57533 0.01329 0.64518 0.0
C615 C 0.58441 0.02337 0.67396 0.0
C616 C 0.62537 0.06922 0.68719 0.0
C617 C 0.6588 0.10475 0.67101 0.0
H618 H 0.53501 0.49653 0.90769 0.0
H619 H 0.70592 0.59903 0.93542 0.0
H620 H 0.69164 0.55853 0.97541 0.0
H621 H 0.48621 0.4785 0.97364 0.0
H622 H 0.43284 0.41716 0.96378 0.0
H623 H 0.45693 0.45554 0.93832 0.0
H624 H 0.47546 0.40781 0.90938 0.0
H625 H 0.45296 0.36976 0.93491 0.0
H626 H 0.5193 0.39956 0.92435 0.0
H627 H 0.65716 0.507 0.01287 0.0
H628 H 0.60643 0.44945 0.04445 0.0
H629 H 0.45983 0.3768 0.98884 0.0
C630 C 0.56946 0.51058 0.9222 0.0
C631 C 0.62157 0.55084 0.91856 0.0
C632 C 0.66563 0.56821 0.93797 0.0
C633 C 0.65793 0.54538 0.96062 0.0
C634 C 0.60603 0.50507 0.96326 0.0
C635 C 0.56265 0.4878 0.94448 0.0
C636 C 0.51119 0.44342 0.95147 0.0
C637 C 0.46935 0.44902 0.95715 0.0
C638 C 0.48843 0.40275 0.92867 0.0
C639 C 0.53213 0.43859 0.97739 0.0
C640 C 0.58683 0.4745 0.98395 0.0
C641 C 0.61445 0.47837 0.00771 0.0
C642 C 0.58524 0.44509 0.02541 0.0
C643 C 0.52894 0.40803 0.01915 0.0
C644 C 0.50262 0.40466 0.99448 0.0
H645 H 0.16733 0.58409 0.24371 0.0
H646 H 1.017 0.55368 0.22218 0.0
H647 H 1.00179 0.55361 0.27124 0.0
H648 H 0.125 0.51536 0.29891 0.0
H649 H 0.18835 0.55647 0.3203 0.0
H650 H 0.18657 0.55302 0.28344 0.0
H651 H 0.23525 0.64035 0.28725 0.0
H652 H 0.23767 0.64414 0.32412 0.0
H653 H 0.20731 0.66246 0.30567 0.0
H654 H 1.00248 0.55501 0.32274 0.0
H655 H 1.02366 0.56653 0.3732 0.0
H656 H 0.17581 0.59964 0.36135 0.0
C657 C 0.1314 0.57764 0.24948 0.0
C658 C 0.09352 0.56969 0.22942 0.0
C659 C 1.04695 0.56121 0.23746 0.0
C660 C 1.03777 0.56047 0.2652 0.0
C661 C 0.07594 0.5686 0.28462 0.0
C662 C 0.12221 0.57763 0.27716 0.0
C663 C 0.15795 0.5872 0.30214 0.0
C664 C 0.16485 0.55084 0.30113 0.0
C665 C 0.21278 0.63647 0.30496 0.0
C666 C 0.12469 0.58229 0.3248 0.0
C667 C 0.0771 0.57079 0.31425 0.0
C668 C 1.03967 0.56412 0.33124 0.0
C669 C 1.0518 0.57042 0.3598 0.0
C670 C 0.10123 0.58388 0.37101 0.0
C671 C 0.13774 0.58936 0.35322 0.0
loop_
_geom_bond_atom_site_label_1
_geom_bond_atom_site_label_2
_geom_bond_distance
_geom_bond_site_symmetry_2
_ccdc_geom_bond_type
Gd0 C3 2.818 . S
Gd0 O20 2.377 . S
Gd0 O22 2.448 . S
Gd0 O23 2.506 . S
Gd0 O24 2.435 . S
Gd0 O25 2.717 . S
Gd0 O27 2.395 1_455 S
Gd0 O31 2.327 . S
Gd1 C12 2.818 1_455 S
Gd1 O21 2.395 . S
Gd1 O25 2.327 . S
Gd1 O26 2.377 1_455 S
Gd1 O28 2.448 1_455 S
Gd1 O29 2.506 1_455 S
Gd1 O30 2.435 . S
Gd1 O31 2.717 . S
C2 O20 1.240 . S
C2 O21 1.240 . S
C3 Gd0 2.818 . S
C3 C4 1.510 . S
C3 O22 1.249 . S
C3 O23 1.252 . S
C4 C3 1.510 . S
C4 C5 1.404 . S
C4 C6 1.352 . S
C5 C4 1.404 . S
C5 C9 1.389 . S
C5 H32 0.930 . S
C6 C4 1.352 . S
C6 C8 1.374 . S
C6 H33 0.931 . S
C7 C8 1.359 . S
C7 C9 1.364 . S
C8 C6 1.374 . S
C8 C7 1.359 . S
C8 H34 0.931 . S
C9 C5 1.389 . S
C9 C7 1.364 . S
C9 H35 0.931 . S
C10 O24 1.256 . S
C10 O25 1.257 . S
C11 O26 1.240 . S
C11 O27 1.240 . S
C12 Gd1 2.818 1_655 S
C12 C13 1.510 . S
C12 O28 1.249 . S
C12 O29 1.252 . S
C13 C12 1.510 . S
C13 C14 1.404 . S
C13 C15 1.352 . S
C14 C13 1.404 . S
C14 C18 1.389 . S
C14 H36 0.930 . S
C15 C13 1.352 . S
C15 C17 1.374 . S
C15 H37 0.931 . S
C16 C17 1.359 . S
C16 C18 1.364 . S
C17 C15 1.374 . S
C17 C16 1.359 . S
C17 H38 0.931 . S
C18 C14 1.389 . S
C18 C16 1.364 . S
C18 H39 0.931 . S
C19 O30 1.256 . S
C19 O31 1.257 . S
O20 Gd0 2.377 . S
O20 C2 1.240 . S
O21 Gd1 2.395 . S
O21 C2 1.240 . S
O22 Gd0 2.448 . S
O22 C3 1.249 . S
O23 Gd0 2.506 . S
O23 C3 1.252 . S
O24 Gd0 2.435 . S
O24 C10 1.256 . S
O25 Gd0 2.717 . S
O25 Gd1 2.327 . S
O25 C10 1.257 . S
O26 Gd1 2.377 1_655 S
O26 C11 1.240 . S
O27 Gd0 2.395 1_655 S
O27 C11 1.240 . S
O28 Gd1 2.448 1_655 S
O28 C12 1.249 . S
O29 Gd1 2.506 1_655 S
O29 C12 1.252 . S
O30 Gd1 2.435 . S
O30 C19 1.256 . S
O31 Gd0 2.327 . S
O31 Gd1 2.717 . S
O31 C19 1.257 . S
H32 C5 0.930 . S
H33 C6 0.931 . S
H34 C8 0.931 . S
H35 C9 0.931 . S
H36 C14 0.930 . S
H37 C15 0.931 . S
H38 C17 0.931 . S
H39 C18 0.931 . S
Gd40 C43 2.818 1_545 S
Gd40 O60 2.377 1_545 S
Gd40 O62 2.448 1_545 S
Gd40 O63 2.506 1_545 S
Gd40 O64 2.435 . S
Gd40 O65 2.717 . S
Gd40 O67 2.395 . S
Gd40 O71 2.327 . S
Gd41 C52 2.818 . S
Gd41 O61 2.395 1_545 S
Gd41 O65 2.327 . S
Gd41 O66 2.377 . S
Gd41 O68 2.448 . S
Gd41 O69 2.506 . S
Gd41 O70 2.435 . S
Gd41 O71 2.717 . S
C42 O60 1.240 . S
C42 O61 1.240 . S
C43 Gd40 2.818 1_565 S
C43 C44 1.510 . S
C43 O62 1.249 . S
C43 O63 1.252 . S
C44 C43 1.510 . S
C44 C45 1.404 . S
C44 C46 1.352 . S
C45 C44 1.404 . S
C45 C49 1.389 . S
C45 H72 0.930 . S
C46 C44 1.352 . S
C46 C48 1.374 . S
C46 H73 0.931 . S
C47 C48 1.359 . S
C47 C49 1.364 . S
C48 C46 1.374 . S
C48 C47 1.359 . S
C48 H74 0.931 . S
C49 C45 1.389 . S
C49 C47 1.364 . S
C49 H75 0.931 . S
C50 O64 1.256 . S
C50 O65 1.257 . S
C51 O66 1.240 . S
C51 O67 1.240 . S
C52 Gd41 2.818 . S
C52 C53 1.510 . S
C52 O68 1.249 . S
C52 O69 1.252 . S
C53 C52 1.510 . S
C53 C54 1.404 . S
C53 C55 1.352 . S
C54 C53 1.404 . S
C54 C58 1.389 . S
C54 H76 0.930 . S
C55 C53 1.352 . S
C55 C57 1.374 . S
C55 H77 0.931 . S
C56 C57 1.359 . S
C56 C58 1.364 . S
C57 C55 1.374 . S
C57 C56 1.359 . S
C57 H78 0.931 . S
C58 C54 1.389 . S
C58 C56 1.364 . S
C58 H79 0.931 . S
C59 O70 1.256 . S
C59 O71 1.257 . S
O60 Gd40 2.377 1_565 S
O60 C42 1.240 . S
O61 Gd41 2.395 1_565 S
O61 C42 1.240 . S
O62 Gd40 2.448 1_565 S
O62 C43 1.249 . S
O63 Gd40 2.506 1_565 S
O63 C43 1.252 . S
O64 Gd40 2.435 . S
O64 C50 1.256 . S
O65 Gd40 2.717 . S
O65 Gd41 2.327 . S
O65 C50 1.257 . S
O66 Gd41 2.377 . S
O66 C51 1.240 . S
O67 Gd40 2.395 . S
O67 C51 1.240 . S
O68 Gd41 2.448 . S
O68 C52 1.249 . S
O69 Gd41 2.506 . S
O69 C52 1.252 . S
O70 Gd41 2.435 . S
O70 C59 1.256 . S
O71 Gd40 2.327 . S
O71 Gd41 2.717 . S
O71 C59 1.257 . S
H72 C45 0.930 . S
H73 C46 0.931 . S
H74 C48 0.931 . S
H75 C49 0.931 . S
H76 C54 0.930 . S
H77 C55 0.931 . S
H78 C57 0.931 . S
H79 C58 0.931 . S
Gd80 C83 2.818 . S
Gd80 O100 2.377 . S
Gd80 O102 2.448 . S
Gd80 O103 2.506 . S
Gd80 O104 2.435 . S
Gd80 O105 2.717 . S
Gd80 O107 2.395 . S
Gd80 O111 2.327 . S
Gd81 C92 2.818 . S
Gd81 O101 2.395 . S
Gd81 O105 2.327 . S
Gd81 O106 2.377 . S
Gd81 O108 2.448 . S
Gd81 O109 2.506 . S
Gd81 O110 2.435 . S
Gd81 O111 2.717 . S
C82 O100 1.240 . S
C82 O101 1.240 . S
C83 Gd80 2.818 . S
C83 C84 1.510 . S
C83 O102 1.249 . S
C83 O103 1.252 . S
C84 C83 1.510 . S
C84 C85 1.404 . S
C84 C86 1.352 . S
C85 C84 1.404 . S
C85 C89 1.389 . S
C85 H112 0.930 . S
C86 C84 1.352 . S
C86 C88 1.374 . S
C86 H113 0.931 . S
C87 C88 1.359 . S
C87 C89 1.364 . S
C88 C86 1.374 . S
C88 C87 1.359 . S
C88 H114 0.931 . S
C89 C85 1.389 . S
C89 C87 1.364 . S
C89 H115 0.931 . S
C90 O104 1.256 . S
C90 O105 1.257 . S
C91 O106 1.240 . S
C91 O107 1.240 . S
C92 Gd81 2.818 . S
C92 C93 1.510 . S
C92 O108 1.249 . S
C92 O109 1.252 . S
C93 C92 1.510 . S
C93 C94 1.404 . S
C93 C95 1.352 . S
C94 C93 1.404 . S
C94 C98 1.389 . S
C94 H116 0.930 . S
C95 C93 1.352 . S
C95 C97 1.374 . S
C95 H117 0.931 . S
C96 C97 1.359 . S
C96 C98 1.364 . S
C97 C95 1.374 . S
C97 C96 1.359 . S
C97 H118 0.931 . S
C98 C94 1.389 . S
C98 C96 1.364 . S
C98 H119 0.931 . S
C99 O110 1.256 . S
C99 O111 1.257 . S
O100 Gd80 2.377 . S
O100 C82 1.240 . S
O101 Gd81 2.395 . S
O101 C82 1.240 . S
O102 Gd80 2.448 . S
O102 C83 1.249 . S
O103 Gd80 2.506 . S
O103 C83 1.252 . S
O104 Gd80 2.435 . S
O104 C90 1.256 . S
O105 Gd80 2.717 . S
O105 Gd81 2.327 . S
O105 C90 1.257 . S
O106 Gd81 2.377 . S
O106 C91 1.240 . S
O107 Gd80 2.395 . S
O107 C91 1.240 . S
O108 Gd81 2.448 . S
O108 C92 1.249 . S
O109 Gd81 2.506 . S
O109 C92 1.252 . S
O110 Gd81 2.435 . S
O110 C99 1.256 . S
O111 Gd80 2.327 . S
O111 Gd81 2.717 . S
O111 C99 1.257 . S
H112 C85 0.930 . S
H113 C86 0.931 . S
H114 C88 0.931 . S
H115 C89 0.931 . S
H116 C94 0.930 . S
H117 C95 0.931 . S
H118 C97 0.931 . S
H119 C98 0.931 . S
H120 C123 0.926 1_565 S
H121 C126 0.929 . S
H122 C128 0.930 . S
C123 H120 0.926 1_545 S
C123 C124 1.396 1_545 S
C123 C125 1.401 . S
C124 C123 1.396 1_565 S
C124 C128 1.407 1_565 S
C125 C123 1.401 . S
C125 C126 1.394 . S
C126 H121 0.929 . S
C126 C125 1.394 . S
C126 C127 1.382 . S
C127 C126 1.382 . S
C127 C128 1.392 . S
C127 N129 1.420 . S
C128 H122 0.930 . S
C128 C124 1.407 1_545 S
C128 C127 1.392 . S
N129 C127 1.420 . S
N129 C130 1.244 . S
C130 N129 1.244 . S
H131 C134 0.929 . S
H132 C137 0.929 . S
H133 C139 0.930 . S
C134 H131 0.929 . S
C134 C135 1.398 . S
C134 C136 1.396 . S
C135 C134 1.398 . S
C135 C139 1.407 . S
C136 C134 1.396 . S
C136 C137 1.394 . S
C137 H132 0.929 . S
C137 C136 1.394 . S
C137 C138 1.382 . S
C138 C137 1.382 . S
C138 C139 1.392 . S
C138 N140 1.420 . S
C139 H133 0.930 . S
C139 C135 1.407 . S
C139 C138 1.392 . S
N140 C138 1.420 . S
N140 C141 1.244 . S
C141 N140 1.244 . S
H142 C145 0.929 . S
H143 C148 0.929 . S
H144 C150 0.930 . S
C145 H142 0.929 . S
C145 C146 1.398 . S
C145 C147 1.396 . S
C146 C145 1.398 . S
C146 C150 1.407 . S
C147 C145 1.396 . S
C147 C148 1.394 . S
C148 H143 0.929 . S
C148 C147 1.394 . S
C148 C149 1.382 . S
C149 C148 1.382 . S
C149 C150 1.392 . S
C149 N151 1.420 . S
C150 H144 0.930 . S
C150 C146 1.407 . S
C150 C149 1.392 . S
N151 C149 1.420 . S
N151 C152 1.244 . S
C152 N151 1.244 . S
H153 C156 0.929 . S
H154 C159 0.929 . S
H155 C161 0.930 . S
C156 H153 0.929 . S
C156 C157 1.398 . S
C156 C158 1.396 . S
C157 C156 1.398 . S
C157 C161 1.407 . S
C158 C156 1.396 . S
C158 C159 1.394 1_455 S
C159 H154 0.929 . S
C159 C158 1.394 1_655 S
C159 C160 1.382 . S
C160 C159 1.382 . S
C160 C161 1.392 1_655 S
C160 N162 1.420 . S
C161 H155 0.930 . S
C161 C157 1.407 . S
C161 C160 1.392 1_455 S
N162 C160 1.420 . S
N162 C163 1.244 . S
C163 N162 1.244 . S
H164 C167 0.929 . S
H165 C170 0.929 1_565 S
H166 C172 0.930 . S
C167 H164 0.929 . S
C167 C168 1.398 . S
C167 C169 1.396 . S
C168 C167 1.398 . S
C168 C172 1.407 . S
C169 C167 1.396 . S
C169 C170 1.394 . S
C170 H165 0.929 1_545 S
C170 C169 1.394 . S
C170 C171 1.382 . S
C171 C170 1.382 . S
C171 C172 1.392 . S
C171 N173 1.420 . S
C172 H166 0.930 . S
C172 C168 1.407 . S
C172 C171 1.392 . S
N173 C171 1.420 . S
N173 C174 1.244 1_545 S
C174 N173 1.244 1_565 S
H175 C178 0.929 . S
H176 C181 0.929 . S
H177 C183 0.930 . S
C178 H175 0.929 . S
C178 C179 1.398 . S
C178 C180 1.396 . S
C179 C178 1.398 . S
C179 C183 1.407 . S
C180 C178 1.396 . S
C180 C181 1.394 . S
C181 H176 0.929 . S
C181 C180 1.394 . S
C181 C182 1.382 . S
C182 C181 1.382 . S
C182 C183 1.392 . S
C182 N184 1.420 . S
C183 H177 0.930 . S
C183 C179 1.407 . S
C183 C182 1.392 . S
N184 C182 1.420 . S
N184 C185 1.244 . S
C185 N184 1.244 . S
H186 C198 0.930 . S
H187 C200 0.930 . S
H188 C201 0.930 . S
H189 C205 0.959 . S
H190 C205 0.959 . S
H191 C205 0.961 . S
H192 C206 0.960 . S
H193 C206 0.961 . S
H194 C206 0.959 . S
H195 C209 0.929 . S
H196 C210 0.931 . S
H197 C212 0.930 . S
C198 H186 0.930 . S
C198 C199 1.399 . S
C198 C203 1.399 . S
C199 C198 1.399 . S
C199 C200 1.376 . S
C200 H187 0.930 . S
C200 C199 1.376 . S
C200 C201 1.388 . S
C201 H188 0.930 . S
C201 C200 1.388 . S
C201 C202 1.390 . S
C202 C201 1.390 . S
C202 C203 1.394 . S
C202 C208 1.465 . S
C203 C198 1.399 . S
C203 C202 1.394 . S
C203 C204 1.516 . S
C204 C203 1.516 . S
C204 C205 1.502 . S
C204 C206 1.561 . S
C204 C207 1.526 . S
C205 H189 0.959 . S
C205 H190 0.959 . S
C205 H191 0.961 . S
C205 C204 1.502 . S
C206 H192 0.960 . S
C206 H193 0.961 . S
C206 H194 0.959 . S
C206 C204 1.561 . S
C207 C204 1.526 . S
C207 C208 1.396 . S
C207 C212 1.390 . S
C208 C202 1.465 . S
C208 C207 1.396 . S
C208 C209 1.399 . S
C209 H195 0.929 . S
C209 C208 1.399 . S
C209 C210 1.385 . S
C210 H196 0.931 . S
C210 C209 1.385 . S
C210 C211 1.389 . S
C211 C210 1.389 . S
C211 C212 1.387 . S
C212 H197 0.930 . S
C212 C207 1.390 . S
C212 C211 1.387 . S
H213 C225 0.930 . S
H214 C227 0.930 . S
H215 C228 0.930 . S
H216 C232 0.959 . S
H217 C232 0.959 . S
H218 C232 0.961 . S
H219 C233 0.960 . S
H220 C233 0.961 . S
H221 C233 0.959 . S
H222 C236 0.929 . S
H223 C237 0.931 . S
H224 C239 0.930 . S
C225 H213 0.930 . S
C225 C226 1.399 . S
C225 C230 1.399 . S
C226 C225 1.399 . S
C226 C227 1.376 . S
C227 H214 0.930 . S
C227 C226 1.376 . S
C227 C228 1.388 . S
C228 H215 0.930 . S
C228 C227 1.388 . S
C228 C229 1.390 . S
C229 C228 1.390 . S
C229 C230 1.394 . S
C229 C235 1.465 . S
C230 C225 1.399 . S
C230 C229 1.394 . S
C230 C231 1.516 . S
C231 C230 1.516 . S
C231 C232 1.502 . S
C231 C233 1.561 . S
C231 C234 1.526 . S
C232 H216 0.959 . S
C232 H217 0.959 . S
C232 H218 0.961 . S
C232 C231 1.502 . S
C233 H219 0.960 . S
C233 H220 0.961 . S
C233 H221 0.959 . S
C233 C231 1.561 . S
C234 C231 1.526 . S
C234 C235 1.396 . S
C234 C239 1.390 . S
C235 C229 1.465 . S
C235 C234 1.396 . S
C235 C236 1.399 . S
C236 H222 0.929 . S
C236 C235 1.399 . S
C236 C237 1.385 . S
C237 H223 0.931 . S
C237 C236 1.385 . S
C237 C238 1.389 . S
C238 C237 1.389 . S
C238 C239 1.387 . S
C239 H224 0.930 . S
C239 C234 1.390 . S
C239 C238 1.387 . S
H240 C252 0.930 . S
H241 C254 0.930 . S
H242 C255 0.930 . S
H243 C259 0.959 . S
H244 C259 0.959 . S
H245 C259 0.961 . S
H246 C260 0.960 . S
H247 C260 0.961 . S
H248 C260 0.959 . S
H249 C263 0.929 . S
H250 C264 0.931 . S
H251 C266 0.930 . S
C252 H240 0.930 . S
C252 C253 1.399 . S
C252 C257 1.399 . S
C253 C252 1.399 . S
C253 C254 1.376 . S
C254 H241 0.930 . S
C254 C253 1.376 . S
C254 C255 1.388 . S
C255 H242 0.930 . S
C255 C254 1.388 . S
C255 C256 1.390 . S
C256 C255 1.390 . S
C256 C257 1.394 . S
C256 C262 1.465 . S
C257 C252 1.399 . S
C257 C256 1.394 . S
C257 C258 1.516 . S
C258 C257 1.516 . S
C258 C259 1.502 . S
C258 C260 1.561 . S
C258 C261 1.526 . S
C259 H243 0.959 . S
C259 H244 0.959 . S
C259 H245 0.961 . S
C259 C258 1.502 . S
C260 H246 0.960 . S
C260 H247 0.961 . S
C260 H248 0.959 . S
C260 C258 1.561 . S
C261 C258 1.526 . S
C261 C262 1.396 . S
C261 C266 1.390 . S
C262 C256 1.465 . S
C262 C261 1.396 . S
C262 C263 1.399 . S
C263 H249 0.929 . S
C263 C262 1.399 . S
C263 C264 1.385 . S
C264 H250 0.931 . S
C264 C263 1.385 . S
C264 C265 1.389 . S
C265 C264 1.389 . S
C265 C266 1.387 . S
C266 H251 0.930 . S
C266 C261 1.390 . S
C266 C265 1.387 . S
H267 C279 0.930 . S
H268 C281 0.930 . S
H269 C282 0.930 . S
H270 C286 0.959 . S
H271 C286 0.959 . S
H272 C286 0.961 . S
H273 C287 0.960 . S
H274 C287 0.961 . S
H275 C287 0.959 . S
H276 C290 0.929 . S
H277 C291 0.931 . S
H278 C293 0.930 . S
C279 H267 0.930 . S
C279 C280 1.399 . S
C279 C284 1.399 . S
C280 C279 1.399 . S
C280 C281 1.376 . S
C281 H268 0.930 . S
C281 C280 1.376 . S
C281 C282 1.388 . S
C282 H269 0.930 . S
C282 C281 1.388 . S
C282 C283 1.390 . S
C283 C282 1.390 . S
C283 C284 1.394 . S
C283 C289 1.465 . S
C284 C279 1.399 . S
C284 C283 1.394 . S
C284 C285 1.516 . S
C285 C284 1.516 . S
C285 C286 1.502 . S
C285 C287 1.561 . S
C285 C288 1.526 . S
C286 H270 0.959 . S
C286 H271 0.959 . S
C286 H272 0.961 . S
C286 C285 1.502 . S
C287 H273 0.960 . S
C287 H274 0.961 . S
C287 H275 0.959 . S
C287 C285 1.561 . S
C288 C285 1.526 . S
C288 C289 1.396 . S
C288 C293 1.390 . S
C289 C283 1.465 . S
C289 C288 1.396 . S
C289 C290 1.399 . S
C290 H276 0.929 . S
C290 C289 1.399 . S
C290 C291 1.385 . S
C291 H277 0.931 . S
C291 C290 1.385 . S
C291 C292 1.389 . S
C292 C291 1.389 . S
C292 C293 1.387 . S
C293 H278 0.930 . S
C293 C288 1.390 . S
C293 C292 1.387 . S
H294 C306 0.930 . S
H295 C308 0.930 . S
H296 C309 0.930 . S
H297 C313 0.959 . S
H298 C313 0.959 . S
H299 C313 0.961 . S
H300 C314 0.960 . S
H301 C314 0.961 . S
H302 C314 0.959 . S
H303 C317 0.929 . S
H304 C318 0.931 . S
H305 C320 0.930 . S
C306 H294 0.930 . S
C306 C307 1.399 . S
C306 C311 1.399 . S
C307 C306 1.399 . S
C307 C308 1.376 . S
C308 H295 0.930 . S
C308 C307 1.376 . S
C308 C309 1.388 . S
C309 H296 0.930 . S
C309 C308 1.388 . S
C309 C310 1.390 . S
C310 C309 1.390 . S
C310 C311 1.394 . S
C310 C316 1.465 . S
C311 C306 1.399 . S
C311 C310 1.394 . S
C311 C312 1.516 . S
C312 C311 1.516 . S
C312 C313 1.502 . S
C312 C314 1.561 . S
C312 C315 1.526 . S
C313 H297 0.959 . S
C313 H298 0.959 . S
C313 H299 0.961 . S
C313 C312 1.502 . S
C314 H300 0.960 . S
C314 H301 0.961 . S
C314 H302 0.959 . S
C314 C312 1.561 . S
C315 C312 1.526 . S
C315 C316 1.396 . S
C315 C320 1.390 . S
C316 C310 1.465 . S
C316 C315 1.396 . S
C316 C317 1.399 . S
C317 H303 0.929 . S
C317 C316 1.399 . S
C317 C318 1.385 . S
C318 H304 0.931 . S
C318 C317 1.385 . S
C318 C319 1.389 . S
C319 C318 1.389 . S
C319 C320 1.387 . S
C320 H305 0.930 . S
C320 C315 1.390 . S
C320 C319 1.387 . S
H321 C333 0.930 . S
H322 C335 0.930 . S
H323 C336 0.930 . S
H324 C340 0.959 . S
H325 C340 0.959 . S
H326 C340 0.961 . S
H327 C341 0.960 . S
H328 C341 0.961 . S
H329 C341 0.959 . S
H330 C344 0.929 . S
H331 C345 0.931 . S
H332 C347 0.930 . S
C333 H321 0.930 . S
C333 C334 1.399 . S
C333 C338 1.399 . S
C334 C333 1.399 . S
C334 C335 1.376 . S
C335 H322 0.930 . S
C335 C334 1.376 . S
C335 C336 1.388 . S
C336 H323 0.930 . S
C336 C335 1.388 . S
C336 C337 1.390 . S
C337 C336 1.390 . S
C337 C338 1.394 . S
C337 C343 1.465 . S
C338 C333 1.399 . S
C338 C337 1.394 . S
C338 C339 1.516 . S
C339 C338 1.516 . S
C339 C340 1.502 . S
C339 C341 1.561 . S
C339 C342 1.526 . S
C340 H324 0.959 . S
C340 H325 0.959 . S
C340 H326 0.961 . S
C340 C339 1.502 . S
C341 H327 0.960 . S
C341 H328 0.961 . S
C341 H329 0.959 . S
C341 C339 1.561 . S
C342 C339 1.526 . S
C342 C343 1.396 . S
C342 C347 1.390 . S
C343 C337 1.465 . S
C343 C342 1.396 . S
C343 C344 1.399 . S
C344 H330 0.929 . S
C344 C343 1.399 . S
C344 C345 1.385 . S
C345 H331 0.931 . S
C345 C344 1.385 . S
C345 C346 1.389 . S
C346 C345 1.389 . S
C346 C347 1.387 . S
C347 H332 0.930 . S
C347 C342 1.390 . S
C347 C346 1.387 . S
H348 C360 0.930 . S
H349 C362 0.930 . S
H350 C363 0.930 . S
H351 C367 0.959 . S
H352 C367 0.959 . S
H353 C367 0.961 . S
H354 C368 0.960 . S
H355 C368 0.961 . S
H356 C368 0.959 . S
H357 C371 0.929 . S
H358 C372 0.931 . S
H359 C374 0.930 . S
C360 H348 0.930 . S
C360 C361 1.399 . S
C360 C365 1.399 . S
C361 C360 1.399 . S
C361 C362 1.376 . S
C362 H349 0.930 . S
C362 C361 1.376 . S
C362 C363 1.388 . S
C363 H350 0.930 . S
C363 C362 1.388 . S
C363 C364 1.390 . S
C364 C363 1.390 . S
C364 C365 1.394 . S
C364 C370 1.465 . S
C365 C360 1.399 . S
C365 C364 1.394 . S
C365 C366 1.516 . S
C366 C365 1.516 . S
C366 C367 1.502 . S
C366 C368 1.561 . S
C366 C369 1.526 . S
C367 H351 0.959 . S
C367 H352 0.959 . S
C367 H353 0.961 . S
C367 C366 1.502 . S
C368 H354 0.960 . S
C368 H355 0.961 . S
C368 H356 0.959 . S
C368 C366 1.561 . S
C369 C366 1.526 . S
C369 C370 1.396 . S
C369 C374 1.390 . S
C370 C364 1.465 . S
C370 C369 1.396 . S
C370 C371 1.399 . S
C371 H357 0.929 . S
C371 C370 1.399 . S
C371 C372 1.385 . S
C372 H358 0.931 . S
C372 C371 1.385 . S
C372 C373 1.389 . S
C373 C372 1.389 . S
C373 C374 1.387 . S
C374 H359 0.930 . S
C374 C369 1.390 . S
C374 C373 1.387 . S
H375 C387 0.930 . S
H376 C389 0.930 . S
H377 C390 0.930 . S
H378 C394 0.959 . S
H379 C394 0.959 . S
H380 C394 0.961 . S
H381 C395 0.960 . S
H382 C395 0.961 . S
H383 C395 0.959 . S
H384 C398 0.929 . S
H385 C399 0.931 . S
H386 C401 0.930 . S
C387 H375 0.930 . S
C387 C388 1.399 . S
C387 C392 1.399 . S
C388 C387 1.399 . S
C388 C389 1.376 . S
C389 H376 0.930 . S
C389 C388 1.376 . S
C389 C390 1.388 . S
C390 H377 0.930 . S
C390 C389 1.388 . S
C390 C391 1.390 . S
C391 C390 1.390 . S
C391 C392 1.394 . S
C391 C397 1.465 . S
C392 C387 1.399 . S
C392 C391 1.394 . S
C392 C393 1.516 . S
C393 C392 1.516 . S
C393 C394 1.502 . S
C393 C395 1.561 . S
C393 C396 1.526 . S
C394 H378 0.959 . S
C394 H379 0.959 . S
C394 H380 0.961 . S
C394 C393 1.502 . S
C395 H381 0.960 . S
C395 H382 0.961 . S
C395 H383 0.959 . S
C395 C393 1.561 . S
C396 C393 1.526 . S
C396 C397 1.396 . S
C396 C401 1.390 . S
C397 C391 1.465 . S
C397 C396 1.396 . S
C397 C398 1.399 . S
C398 H384 0.929 . S
C398 C397 1.399 . S
C398 C399 1.385 . S
C399 H385 0.931 . S
C399 C398 1.385 . S
C399 C400 1.389 . S
C400 C399 1.389 . S
C400 C401 1.387 . S
C401 H386 0.930 . S
C401 C396 1.390 . S
C401 C400 1.387 . S
H402 C414 0.930 . S
H403 C416 0.930 . S
H404 C417 0.930 . S
H405 C421 0.959 . S
H406 C421 0.959 . S
H407 C421 0.961 . S
H408 C422 0.960 . S
H409 C422 0.961 . S
H410 C422 0.959 . S
H411 C425 0.929 . S
H412 C426 0.931 . S
H413 C428 0.930 . S
C414 H402 0.930 . S
C414 C415 1.399 . S
C414 C419 1.399 . S
C415 C414 1.399 . S
C415 C416 1.376 . S
C416 H403 0.930 . S
C416 C415 1.376 . S
C416 C417 1.388 . S
C417 H404 0.930 . S
C417 C416 1.388 . S
C417 C418 1.390 . S
C418 C417 1.390 . S
C418 C419 1.394 . S
C418 C424 1.465 . S
C419 C414 1.399 . S
C419 C418 1.394 . S
C419 C420 1.516 . S
C420 C419 1.516 . S
C420 C421 1.502 . S
C420 C422 1.561 . S
C420 C423 1.526 . S
C421 H405 0.959 . S
C421 H406 0.959 . S
C421 H407 0.961 . S
C421 C420 1.502 . S
C422 H408 0.960 . S
C422 H409 0.961 . S
C422 H410 0.959 . S
C422 C420 1.561 . S
C423 C420 1.526 . S
C423 C424 1.396 . S
C423 C428 1.390 . S
C424 C418 1.465 . S
C424 C423 1.396 . S
C424 C425 1.399 . S
C425 H411 0.929 . S
C425 C424 1.399 . S
C425 C426 1.385 . S
C426 H412 0.931 . S
C426 C425 1.385 . S
C426 C427 1.389 . S
C427 C426 1.389 . S
C427 C428 1.387 . S
C428 H413 0.930 . S
C428 C423 1.390 . S
C428 C427 1.387 . S
H429 C441 0.930 . S
H430 C443 0.930 . S
H431 C444 0.930 . S
H432 C448 0.959 . S
H433 C448 0.959 . S
H434 C448 0.961 . S
H435 C449 0.960 . S
H436 C449 0.961 . S
H437 C449 0.959 . S
H438 C452 0.929 . S
H439 C453 0.931 . S
H440 C455 0.930 . S
C441 H429 0.930 . S
C441 C442 1.399 . S
C441 C446 1.399 . S
C442 C441 1.399 . S
C442 C443 1.376 . S
C443 H430 0.930 . S
C443 C442 1.376 . S
C443 C444 1.388 . S
C444 H431 0.930 . S
C444 C443 1.388 . S
C444 C445 1.390 . S
C445 C444 1.390 . S
C445 C446 1.394 . S
C445 C451 1.465 . S
C446 C441 1.399 . S
C446 C445 1.394 . S
C446 C447 1.516 . S
C447 C446 1.516 . S
C447 C448 1.502 . S
C447 C449 1.561 . S
C447 C450 1.526 . S
C448 H432 0.959 . S
C448 H433 0.959 . S
C448 H434 0.961 . S
C448 C447 1.502 . S
C449 H435 0.960 . S
C449 H436 0.961 . S
C449 H437 0.959 . S
C449 C447 1.561 . S
C450 C447 1.526 . S
C450 C451 1.396 . S
C450 C455 1.390 . S
C451 C445 1.465 . S
C451 C450 1.396 . S
C451 C452 1.399 . S
C452 H438 0.929 . S
C452 C451 1.399 . S
C452 C453 1.385 . S
C453 H439 0.931 . S
C453 C452 1.385 . S
C453 C454 1.389 . S
C454 C453 1.389 . S
C454 C455 1.387 . S
C455 H440 0.930 . S
C455 C450 1.390 . S
C455 C454 1.387 . S
H456 C468 0.930 . S
H457 C470 0.930 . S
H458 C471 0.930 . S
H459 C475 0.959 . S
H460 C475 0.959 . S
H461 C475 0.961 . S
H462 C476 0.960 . S
H463 C476 0.961 . S
H464 C476 0.959 . S
H465 C479 0.929 . S
H466 C480 0.931 . S
H467 C482 0.930 . S
C468 H456 0.930 . S
C468 C469 1.399 . S
C468 C473 1.399 . S
C469 C468 1.399 . S
C469 C470 1.376 . S
C470 H457 0.930 . S
C470 C469 1.376 . S
C470 C471 1.388 . S
C471 H458 0.930 . S
C471 C470 1.388 . S
C471 C472 1.390 . S
C472 C471 1.390 . S
C472 C473 1.394 . S
C472 C478 1.465 . S
C473 C468 1.399 . S
C473 C472 1.394 . S
C473 C474 1.516 . S
C474 C473 1.516 . S
C474 C475 1.502 . S
C474 C476 1.561 . S
C474 C477 1.526 . S
C475 H459 0.959 . S
C475 H460 0.959 . S
C475 H461 0.961 . S
C475 C474 1.502 . S
C476 H462 0.960 . S
C476 H463 0.961 . S
C476 H464 0.959 . S
C476 C474 1.561 . S
C477 C474 1.526 . S
C477 C478 1.396 . S
C477 C482 1.390 . S
C478 C472 1.465 . S
C478 C477 1.396 . S
C478 C479 1.399 . S
C479 H465 0.929 . S
C479 C478 1.399 . S
C479 C480 1.385 . S
C480 H466 0.931 . S
C480 C479 1.385 . S
C480 C481 1.389 . S
C481 C480 1.389 . S
C481 C482 1.387 . S
C482 H467 0.930 . S
C482 C477 1.390 . S
C482 C481 1.387 . S
H483 C495 0.930 . S
H484 C497 0.930 . S
H485 C498 0.930 . S
H486 C502 0.959 . S
H487 C502 0.959 . S
H488 C502 0.961 . S
H489 C503 0.960 . S
H490 C503 0.961 . S
H491 C503 0.959 . S
H492 C506 0.929 . S
H493 C507 0.931 . S
H494 C509 0.930 . S
C495 H483 0.930 . S
C495 C496 1.399 . S
C495 C500 1.399 . S
C496 C495 1.399 . S
C496 C497 1.376 . S
C497 H484 0.930 . S
C497 C496 1.376 . S
C497 C498 1.388 . S
C498 H485 0.930 . S
C498 C497 1.388 . S
C498 C499 1.390 . S
C499 C498 1.390 . S
C499 C500 1.394 . S
C499 C505 1.465 . S
C500 C495 1.399 . S
C500 C499 1.394 . S
C500 C501 1.516 . S
C501 C500 1.516 . S
C501 C502 1.502 . S
C501 C503 1.561 . S
C501 C504 1.526 . S
C502 H486 0.959 . S
C502 H487 0.959 . S
C502 H488 0.961 . S
C502 C501 1.502 . S
C503 H489 0.960 . S
C503 H490 0.961 . S
C503 H491 0.959 . S
C503 C501 1.561 . S
C504 C501 1.526 . S
C504 C505 1.396 . S
C504 C509 1.390 . S
C505 C499 1.465 . S
C505 C504 1.396 . S
C505 C506 1.399 . S
C506 H492 0.929 . S
C506 C505 1.399 . S
C506 C507 1.385 . S
C507 H493 0.931 . S
C507 C506 1.385 . S
C507 C508 1.389 . S
C508 C507 1.389 . S
C508 C509 1.387 . S
C509 H494 0.930 . S
C509 C504 1.390 . S
C509 C508 1.387 . S
H510 C522 0.930 . S
H511 C524 0.930 . S
H512 C525 0.930 . S
H513 C529 0.959 . S
H514 C529 0.959 1_556 S
H515 C529 0.961 . S
H516 C530 0.960 . S
H517 C530 0.961 1_556 S
H518 C530 0.959 1_556 S
H519 C533 0.929 . S
H520 C534 0.931 . S
H521 C536 0.930 . S
C522 H510 0.930 . S
C522 C523 1.399 . S
C522 C527 1.399 . S
C523 C522 1.399 . S
C523 C524 1.376 . S
C524 H511 0.930 . S
C524 C523 1.376 . S
C524 C525 1.388 . S
C525 H512 0.930 . S
C525 C524 1.388 . S
C525 C526 1.390 . S
C526 C525 1.390 . S
C526 C527 1.394 . S
C526 C532 1.465 1_554 S
C527 C522 1.399 . S
C527 C526 1.394 . S
C527 C528 1.516 . S
C528 C527 1.516 . S
C528 C529 1.502 . S
C528 C530 1.561 1_455 S
C528 C531 1.526 1_554 S
C529 H513 0.959 . S
C529 H514 0.959 1_554 S
C529 H515 0.961 . S
C529 C528 1.502 . S
C530 H516 0.960 . S
C530 H517 0.961 1_554 S
C530 H518 0.959 1_554 S
C530 C528 1.561 1_655 S
C531 C528 1.526 1_556 S
C531 C532 1.396 . S
C531 C536 1.390 . S
C532 C526 1.465 1_556 S
C532 C531 1.396 . S
C532 C533 1.399 . S
C533 H519 0.929 . S
C533 C532 1.399 . S
C533 C534 1.385 . S
C534 H520 0.931 . S
C534 C533 1.385 . S
C534 C535 1.389 . S
C535 C534 1.389 . S
C535 C536 1.387 . S
C536 H521 0.930 . S
C536 C531 1.390 . S
C536 C535 1.387 . S
H537 C549 0.930 1_565 S
H538 C551 0.930 . S
H539 C552 0.930 . S
H540 C556 0.959 1_545 S
H541 C556 0.959 . S
H542 C556 0.961 . S
H543 C557 0.960 . S
H544 C557 0.961 . S
H545 C557 0.959 . S
H546 C560 0.929 . S
H547 C561 0.931 . S
H548 C563 0.930 1_565 S
C549 H537 0.930 1_545 S
C549 C550 1.399 . S
C549 C554 1.399 . S
C550 C549 1.399 . S
C550 C551 1.376 . S
C551 H538 0.930 . S
C551 C550 1.376 . S
C551 C552 1.388 . S
C552 H539 0.930 . S
C552 C551 1.388 . S
C552 C553 1.390 . S
C553 C552 1.390 . S
C553 C554 1.394 . S
C553 C559 1.465 . S
C554 C549 1.399 . S
C554 C553 1.394 . S
C554 C555 1.516 1_545 S
C555 C554 1.516 1_565 S
C555 C556 1.502 . S
C555 C557 1.561 . S
C555 C558 1.526 1_565 S
C556 H540 0.959 1_565 S
C556 H541 0.959 . S
C556 H542 0.961 . S
C556 C555 1.502 . S
C557 H543 0.960 . S
C557 H544 0.961 . S
C557 H545 0.959 . S
C557 C555 1.561 . S
C558 C555 1.526 1_545 S
C558 C559 1.396 . S
C558 C563 1.390 . S
C559 C553 1.465 . S
C559 C558 1.396 . S
C559 C560 1.399 . S
C560 H546 0.929 . S
C560 C559 1.399 . S
C560 C561 1.385 . S
C561 H547 0.931 . S
C561 C560 1.385 . S
C561 C562 1.389 . S
C562 C561 1.389 . S
C562 C563 1.387 . S
C563 H548 0.930 1_545 S
C563 C558 1.390 . S
C563 C562 1.387 . S
H564 C576 0.930 . S
H565 C578 0.930 . S
H566 C579 0.930 . S
H567 C583 0.959 . S
H568 C583 0.959 . S
H569 C583 0.961 . S
H570 C584 0.960 . S
H571 C584 0.961 . S
H572 C584 0.959 . S
H573 C587 0.929 . S
H574 C588 0.931 . S
H575 C590 0.930 . S
C576 H564 0.930 . S
C576 C577 1.399 . S
C576 C581 1.399 . S
C577 C576 1.399 . S
C577 C578 1.376 . S
C578 H565 0.930 . S
C578 C577 1.376 . S
C578 C579 1.388 . S
C579 H566 0.930 . S
C579 C578 1.388 . S
C579 C580 1.390 . S
C580 C579 1.390 . S
C580 C581 1.394 . S
C580 C586 1.465 . S
C581 C576 1.399 . S
C581 C580 1.394 . S
C581 C582 1.516 . S
C582 C581 1.516 . S
C582 C583 1.502 . S
C582 C584 1.561 . S
C582 C585 1.526 . S
C583 H567 0.959 . S
C583 H568 0.959 . S
C583 H569 0.961 . S
C583 C582 1.502 . S
C584 H570 0.960 . S
C584 H571 0.961 . S
C584 H572 0.959 . S
C584 C582 1.561 . S
C585 C582 1.526 . S
C585 C586 1.396 . S
C585 C590 1.390 . S
C586 C580 1.465 . S
C586 C585 1.396 . S
C586 C587 1.399 . S
C587 H573 0.929 . S
C587 C586 1.399 . S
C587 C588 1.385 . S
C588 H574 0.931 . S
C588 C587 1.385 . S
C588 C589 1.389 . S
C589 C588 1.389 . S
C589 C590 1.387 . S
C590 H575 0.930 . S
C590 C585 1.390 . S
C590 C589 1.387 . S
H591 C603 0.930 . S
H592 C605 0.930 . S
H593 C606 0.930 . S
H594 C610 0.959 . S
H595 C610 0.959 . S
H596 C610 0.961 . S
H597 C611 0.960 . S
H598 C611 0.961 . S
H599 C611 0.959 . S
H600 C614 0.929 . S
H601 C615 0.931 . S
H602 C617 0.930 . S
C603 H591 0.930 . S
C603 C604 1.399 . S
C603 C608 1.399 . S
C604 C603 1.399 . S
C604 C605 1.376 1_545 S
C605 H592 0.930 . S
C605 C604 1.376 1_565 S
C605 C606 1.388 . S
C606 H593 0.930 . S
C606 C605 1.388 . S
C606 C607 1.390 1_565 S
C607 C606 1.390 1_545 S
C607 C608 1.394 . S
C607 C613 1.465 . S
C608 C603 1.399 . S
C608 C607 1.394 . S
C608 C609 1.516 . S
C609 C608 1.516 . S
C609 C610 1.502 . S
C609 C611 1.561 . S
C609 C612 1.526 . S
C610 H594 0.959 . S
C610 H595 0.959 . S
C610 H596 0.961 . S
C610 C609 1.502 . S
C611 H597 0.960 . S
C611 H598 0.961 . S
C611 H599 0.959 . S
C611 C609 1.561 . S
C612 C609 1.526 . S
C612 C613 1.396 . S
C612 C617 1.390 . S
C613 C607 1.465 . S
C613 C612 1.396 . S
C613 C614 1.399 1_545 S
C614 H600 0.929 . S
C614 C613 1.399 1_565 S
C614 C615 1.385 . S
C615 H601 0.931 . S
C615 C614 1.385 . S
C615 C616 1.389 1_565 S
C616 C615 1.389 1_545 S
C616 C617 1.387 . S
C617 H602 0.930 . S
C617 C612 1.390 . S
C617 C616 1.387 . S
H618 C630 0.930 . S
H619 C632 0.930 . S
H620 C633 0.930 . S
H621 C637 0.959 . S
H622 C637 0.959 . S
H623 C637 0.961 . S
H624 C638 0.960 . S
H625 C638 0.961 . S
H626 C638 0.959 . S
H627 C641 0.929 . S
H628 C642 0.931 . S
H629 C644 0.930 . S
C630 H618 0.930 . S
C630 C631 1.399 . S
C630 C635 1.399 . S
C631 C630 1.399 . S
C631 C632 1.376 . S
C632 H619 0.930 . S
C632 C631 1.376 . S
C632 C633 1.388 . S
C633 H620 0.930 . S
C633 C632 1.388 . S
C633 C634 1.390 . S
C634 C633 1.390 . S
C634 C635 1.394 . S
C634 C640 1.465 . S
C635 C630 1.399 . S
C635 C634 1.394 . S
C635 C636 1.516 . S
C636 C635 1.516 . S
C636 C637 1.502 . S
C636 C638 1.561 . S
C636 C639 1.526 . S
C637 H621 0.959 . S
C637 H622 0.959 . S
C637 H623 0.961 . S
C637 C636 1.502 . S
C638 H624 0.960 . S
C638 H625 0.961 . S
C638 H626 0.959 . S
C638 C636 1.561 . S
C639 C636 1.526 . S
C639 C640 1.396 . S
C639 C644 1.390 1_556 S
C640 C634 1.465 . S
C640 C639 1.396 . S
C640 C641 1.399 1_556 S
C641 H627 0.929 . S
C641 C640 1.399 1_554 S
C641 C642 1.385 . S
C642 H628 0.931 . S
C642 C641 1.385 . S
C642 C643 1.389 . S
C643 C642 1.389 . S
C643 C644 1.387 . S
C644 H629 0.930 . S
C644 C639 1.390 1_554 S
C644 C643 1.387 . S
H645 C657 0.930 . S
H646 C659 0.930 . S
H647 C660 0.930 . S
H648 C664 0.959 . S
H649 C664 0.959 . S
H650 C664 0.961 . S
H651 C665 0.960 . S
H652 C665 0.961 . S
H653 C665 0.959 . S
H654 C668 0.929 . S
H655 C669 0.931 . S
H656 C671 0.930 . S
C657 H645 0.930 . S
C657 C658 1.399 . S
C657 C662 1.399 . S
C658 C657 1.399 . S
C658 C659 1.376 1_455 S
C659 H646 0.930 . S
C659 C658 1.376 1_655 S
C659 C660 1.388 . S
C660 H647 0.930 . S
C660 C659 1.388 . S
C660 C661 1.390 1_655 S
C661 C660 1.390 1_455 S
C661 C662 1.394 . S
C661 C667 1.465 1_455 S
C662 C657 1.399 . S
C662 C661 1.394 . S
C662 C663 1.516 . S
C663 C662 1.516 . S
C663 C664 1.502 . S
C663 C665 1.561 . S
C663 C666 1.526 . S
C664 H648 0.959 . S
C664 H649 0.959 . S
C664 H650 0.961 . S
C664 C663 1.502 . S
C665 H651 0.960 . S
C665 H652 0.961 . S
C665 H653 0.959 . S
C665 C663 1.561 . S
C666 C663 1.526 . S
C666 C667 1.396 1_455 S
C666 C671 1.390 . S
C667 C661 1.465 1_655 S
C667 C666 1.396 1_655 S
C667 C668 1.399 . S
C668 H654 0.929 . S
C668 C667 1.399 . S
C668 C669 1.385 . S
C669 H655 0.931 . S
C669 C668 1.385 . S
C669 C670 1.389 1_655 S
C670 C669 1.389 1_455 S
C670 C671 1.387 . S
C671 H656 0.930 . S
C671 C666 1.390 . S
C671 C670 1.387 . S
C199 C7 0.825 . S
C211 C185 0.714 . S
C226 C51 1.931 . S
C238 C163 1.902 . S
C253 C87 1.243 . S
C265 C174 1.263 . S
C280 C16 0.328 . S
C292 C179 0.235 . S
C319 C157 1.817 . S
C307 C42 1.870 . S
C346 C168 1.152 . S
C334 C96 1.163 . S
C361 C47 1.320 . S
C373 C141 1.304 . S
C388 C91 3.031 . S
C400 C146 2.978 1_655 S
C415 C2 1.885 . S
C427 C124 1.869 . S
C454 C135 1.161 . S
C442 C56 1.158 . S
C481 C152 2.978 . S
C469 C82 3.023 . S
C496 C11 1.919 . S
C508 C130 1.890 . S
C535 C147 1.716 . S
C523 C19 1.658 . S
C550 C50 1.447 . S
C562 C125 1.473 . S
C577 C99 1.483 . S
C589 C136 1.517 . S
C616 C169 1.513 . S
C604 C59 1.484 . S
C643 C180 1.253 . S
C631 C90 1.236 . S
C658 C10 1.416 . S
C670 C158 1.439 . S
