# Generated by pormake.
# Topology pyr, (3,6)-cn, num edge types: 1
# Building blocks:
#     Node 0, Type 0, BuildingBlock: VETTIZ_charged_linker_0, # of connection points: 3
#     Node 1, Type 0, BuildingBlock: VETTIZ_charged_linker_0, # of connection points: 3
#     Node 2, Type 0, BuildingBlock: VETTIZ_charged_linker_0, # of connection points: 3
#     Node 3, Type 0, BuildingBlock: VETTIZ_charged_linker_0, # of connection points: 3
#     Node 4, Type 0, BuildingBlock: VETTIZ_charged_linker_0, # of connection points: 3
#     Node 5, Type 0, BuildingBlock: VETTIZ_charged_linker_0, # of connection points: 3
#     Node 6, Type 0, BuildingBlock: VETTIZ_charged_linker_0, # of connection points: 3
#     Node 7, Type 0, BuildingBlock: VETTIZ_charged_linker_0, # of connection points: 3
#     Node 8, Type 1, BuildingBlock: PAMTUU_clean_sbu_0, # of connection points: 6
#     Node 9, Type 1, BuildingBlock: PAMTUU_clean_sbu_0, # of connection points: 6
#     Node 10, Type 1, BuildingBlock: PAMTUU_clean_sbu_0, # of connection points: 6
#     Node 11, Type 1, BuildingBlock: PAMTUU_clean_sbu_0, # of connection points: 6
#     Edge 12, Type (0, 1), BuildingBlock: ZUJKAS_clean_linker_0, # of connection points: 2
#     Edge 13, Type (0, 1), BuildingBlock: ZUJKAS_clean_linker_0, # of connection points: 2
#     Edge 14, Type (0, 1), BuildingBlock: ZUJKAS_clean_linker_0, # of connection points: 2
#     Edge 15, Type (0, 1), BuildingBlock: ZUJKAS_clean_linker_0, # of connection points: 2
#     Edge 16, Type (0, 1), BuildingBlock: ZUJKAS_clean_linker_0, # of connection points: 2
#     Edge 17, Type (0, 1), BuildingBlock: ZUJKAS_clean_linker_0, # of connection points: 2
#     Edge 18, Type (0, 1), BuildingBlock: ZUJKAS_clean_linker_0, # of connection points: 2
#     Edge 19, Type (0, 1), BuildingBlock: ZUJKAS_clean_linker_0, # of connection points: 2
#     Edge 20, Type (0, 1), BuildingBlock: ZUJKAS_clean_linker_0, # of connection points: 2
#     Edge 21, Type (0, 1), BuildingBlock: ZUJKAS_clean_linker_0, # of connection points: 2
#     Edge 22, Type (0, 1), BuildingBlock: ZUJKAS_clean_linker_0, # of connection points: 2
#     Edge 23, Type (0, 1), BuildingBlock: ZUJKAS_clean_linker_0, # of connection points: 2
#     Edge 24, Type (0, 1), BuildingBlock: ZUJKAS_clean_linker_0, # of connection points: 2
#     Edge 25, Type (0, 1), BuildingBlock: ZUJKAS_clean_linker_0, # of connection points: 2
#     Edge 26, Type (0, 1), BuildingBlock: ZUJKAS_clean_linker_0, # of connection points: 2
#     Edge 27, Type (0, 1), BuildingBlock: ZUJKAS_clean_linker_0, # of connection points: 2
#     Edge 28, Type (0, 1), BuildingBlock: ZUJKAS_clean_linker_0, # of connection points: 2
#     Edge 29, Type (0, 1), BuildingBlock: ZUJKAS_clean_linker_0, # of connection points: 2
#     Edge 30, Type (0, 1), BuildingBlock: ZUJKAS_clean_linker_0, # of connection points: 2
#     Edge 31, Type (0, 1), BuildingBlock: ZUJKAS_clean_linker_0, # of connection points: 2
#     Edge 32, Type (0, 1), BuildingBlock: ZUJKAS_clean_linker_0, # of connection points: 2
#     Edge 33, Type (0, 1), BuildingBlock: ZUJKAS_clean_linker_0, # of connection points: 2
#     Edge 34, Type (0, 1), BuildingBlock: ZUJKAS_clean_linker_0, # of connection points: 2
#     Edge 35, Type (0, 1), BuildingBlock: ZUJKAS_clean_linker_0, # of connection points: 2
# Relax obj value: 0.064
# Max RMSD: 0.112
# Mean RMSD: 0.048
data_MOF--net-pyr--node1-PAMTUU_clean_sbu_0--node2-VETTIZ_charged_linker_0--edge1-ZUJKAS_clean_linker_0
_symmetry_space_group_name_H-M    P1
_symmetry_Int_Tables_number       1
_symmetry_cell_setting            triclinic
loop_
_symmetry_equiv_pos_as_xyz
'x, y, z'
_cell_length_a     58.073898
_cell_length_b     58.265895
_cell_length_c     56.886441
_cell_angle_alpha  89.69981
_cell_angle_beta   89.360362
_cell_angle_gamma 98.206525
loop_
_atom_site_label
_atom_site_type_symbol
_atom_site_fract_x
_atom_site_fract_y
_atom_site_fract_z
_atom_type_partial_charge
C0 C 0.26504 0.22942 0.27614 0.0
C1 C 0.24569 0.23838 0.2855 0.0
C2 C 0.23815 0.25764 0.27444 0.0
C3 C 0.26779 0.2574 0.24413 0.0
C4 C 0.27573 0.2391 0.25551 0.0
C5 C 0.29534 0.23048 0.24232 0.0
H6 H 0.36064 0.23147 0.14329 0.0
C7 C 0.28143 0.26207 0.22211 0.0
C8 C 0.29772 0.24649 0.22103 0.0
H9 H 0.36053 0.18694 0.20444 0.0
H10 H 0.33359 0.20823 0.22417 0.0
H11 H 0.35983 0.27997 0.17231 0.0
H12 H 0.30632 0.23034 0.14221 0.0
H13 H 0.29965 0.25811 0.13576 0.0
H14 H 0.3263 0.24971 0.12451 0.0
H15 H 0.35559 0.2776 0.14116 0.0
H16 H 0.33962 0.29558 0.15904 0.0
C17 C 0.31728 0.23429 0.25788 0.0
C18 C 0.28729 0.20485 0.23554 0.0
C19 C 0.25822 0.3199 0.16322 0.0
C20 C 0.26578 0.32629 0.14023 0.0
C21 C 0.28521 0.31738 0.13079 0.0
C22 C 0.29644 0.30179 0.14379 0.0
C23 C 0.28797 0.29481 0.16637 0.0
C24 C 0.26946 0.30423 0.17586 0.0
C25 C 0.26238 0.29451 0.1998 0.0
C26 C 0.2796 0.27755 0.2031 0.0
C27 C 0.29445 0.27766 0.18342 0.0
C28 C 0.26613 0.31457 0.21774 0.0
C29 C 0.23695 0.28207 0.19843 0.0
C30 C 0.35483 0.22631 0.16094 0.0
C31 C 0.3627 0.20736 0.17221 0.0
C32 C 0.35499 0.20156 0.19538 0.0
C33 C 0.33911 0.21382 0.20676 0.0
C34 C 0.33057 0.23195 0.19483 0.0
C35 C 0.33878 0.23825 0.17249 0.0
C36 C 0.32747 0.25773 0.16242 0.0
C37 C 0.31095 0.26189 0.18232 0.0
C38 C 0.31274 0.2466 0.20115 0.0
C39 C 0.34651 0.27887 0.15829 0.0
C40 C 0.31432 0.24875 0.13996 0.0
H41 H 0.24236 0.28166 0.2461 0.0
H42 H 0.27107 0.21443 0.28403 0.0
H43 H 0.26848 0.20208 0.2311 0.0
H44 H 0.29615 0.19941 0.21971 0.0
H45 H 0.2898 0.19292 0.25028 0.0
H46 H 0.31762 0.25022 0.26866 0.0
H47 H 0.31773 0.21947 0.27014 0.0
H48 H 0.33363 0.23714 0.24747 0.0
H49 H 0.2431 0.32606 0.17088 0.0
H50 H 0.29151 0.32221 0.11321 0.0
H51 H 0.31092 0.29535 0.13555 0.0
H52 H 0.2816 0.32731 0.21283 0.0
H53 H 0.25085 0.32405 0.21851 0.0
H54 H 0.26979 0.30863 0.23562 0.0
H55 H 0.2336 0.27363 0.18106 0.0
H56 H 0.2329 0.26784 0.21135 0.0
H57 H 0.22432 0.29453 0.20079 0.0
H58 H 0.22344 0.26502 0.28149 0.0
C59 C 0.24917 0.26728 0.2539 0.0
C60 C 0.15474 0.81122 0.66479 0.0
C61 C 0.14479 0.82913 0.67578 0.0
C62 C 0.1509 0.83497 0.69915 0.0
C63 C 0.17723 0.80626 0.69971 0.0
C64 C 0.17083 0.80005 0.67704 0.0
C65 C 0.18363 0.78121 0.66773 0.0
H66 H 0.26862 0.71432 0.68268 0.0
C67 C 0.19501 0.79205 0.70716 0.0
C68 C 0.19867 0.77711 0.6886 0.0
H69 H 0.22598 0.71852 0.6214 0.0
H70 H 0.20409 0.74477 0.6419 0.0
H71 H 0.2758 0.76753 0.69362 0.0
H72 H 0.22725 0.71067 0.7206 0.0
H73 H 0.2337 0.72957 0.74432 0.0
H74 H 0.25666 0.71617 0.73068 0.0
H75 H 0.28401 0.74525 0.71236 0.0
H76 H 0.2743 0.77079 0.72422 0.0
C77 C 0.19838 0.79104 0.64613 0.0
C78 C 0.1656 0.75968 0.66246 0.0
C79 C 0.2375 0.80973 0.78404 0.0
C80 C 0.25592 0.80044 0.79471 0.0
C81 C 0.26319 0.78035 0.78513 0.0
C82 C 0.25339 0.7706 0.76446 0.0
C83 C 0.2362 0.78109 0.75309 0.0
C84 C 0.22791 0.79977 0.76334 0.0
C85 C 0.20918 0.80825 0.74895 0.0
C86 C 0.20829 0.7921 0.72797 0.0
C87 C 0.22441 0.7765 0.73038 0.0
C88 C 0.21759 0.83381 0.74183 0.0
C89 C 0.1862 0.80452 0.76351 0.0
C90 C 0.25426 0.72044 0.67375 0.0
C91 C 0.24909 0.71429 0.65034 0.0
C92 C 0.23054 0.72318 0.63933 0.0
C93 C 0.21783 0.73841 0.65128 0.0
C94 C 0.22385 0.74501 0.67442 0.0
C95 C 0.24155 0.73569 0.68534 0.0
C96 C 0.24604 0.74488 0.70972 0.0
C97 C 0.22823 0.76145 0.71165 0.0
C98 C 0.21535 0.76162 0.6909 0.0
C99 C 0.27135 0.75769 0.71027 0.0
C100 C 0.24085 0.72436 0.72737 0.0
H101 H 0.17109 0.8291 0.72876 0.0
H102 H 0.15023 0.80607 0.64697 0.0
H103 H 0.15138 0.75759 0.67591 0.0
H104 H 0.1731 0.74331 0.66313 0.0
H105 H 0.15755 0.7613 0.64502 0.0
H106 H 0.20578 0.8095 0.64891 0.0
H107 H 0.18764 0.79024 0.63004 0.0
H108 H 0.21359 0.78211 0.64277 0.0
H109 H 0.23148 0.82515 0.79092 0.0
H110 H 0.27693 0.77249 0.79331 0.0
H111 H 0.26013 0.75571 0.75774 0.0
H112 H 0.23634 0.8362 0.73673 0.0
H113 H 0.21548 0.8457 0.75665 0.0
H114 H 0.20857 0.83959 0.72641 0.0
H115 H 0.18573 0.78964 0.77593 0.0
H116 H 0.1707 0.79999 0.75242 0.0
H117 H 0.1841 0.82009 0.77406 0.0
H118 H 0.14379 0.84886 0.70799 0.0
C119 C 0.16694 0.82359 0.71116 0.0
C120 C 0.63915 0.28426 0.88385 0.0
C121 C 0.61771 0.27167 0.87709 0.0
C122 C 0.6057 0.2807 0.85846 0.0
C123 C 0.63633 0.31391 0.85379 0.0
C124 C 0.64789 0.30523 0.87226 0.0
C125 C 0.66985 0.32103 0.87826 0.0
H126 H 0.7455 0.41992 0.86088 0.0
C127 C 0.65023 0.33632 0.84574 0.0
C128 C 0.66979 0.34055 0.86036 0.0
H129 H 0.74827 0.36543 0.91225 0.0
H130 H 0.71296 0.34449 0.89732 0.0
H131 H 0.68854 0.4205 0.8648 0.0
H132 H 0.72902 0.38432 0.81709 0.0
H133 H 0.708 0.39665 0.80114 0.0
H134 H 0.73034 0.41531 0.81636 0.0
H135 H 0.70782 0.4355 0.84305 0.0
H136 H 0.67851 0.42312 0.83594 0.0
C137 C 0.66727 0.3296 0.9038 0.0
C138 C 0.69066 0.30749 0.8742 0.0
C139 C 0.62471 0.38095 0.7745 0.0
C140 C 0.63362 0.40229 0.76347 0.0
C141 C 0.65392 0.41502 0.77299 0.0
C142 C 0.66507 0.40688 0.79263 0.0
C143 C 0.65599 0.38564 0.80339 0.0
C144 C 0.63598 0.37311 0.7944 0.0
C145 C 0.6283 0.35134 0.80875 0.0
C146 C 0.64728 0.35246 0.82726 0.0
C147 C 0.66361 0.37271 0.82407 0.0
C148 C 0.60426 0.3533 0.81994 0.0
C149 C 0.62834 0.33018 0.7925 0.0
C150 C 0.73838 0.40355 0.86898 0.0
C151 C 0.75009 0.3944 0.88785 0.0
C152 C 0.74011 0.37287 0.89757 0.0
C153 C 0.71936 0.3607 0.88891 0.0
C154 C 0.70801 0.36985 0.87006 0.0
C155 C 0.71753 0.3909 0.86028 0.0
C156 C 0.70305 0.39744 0.83991 0.0
C157 C 0.68324 0.37704 0.83937 0.0
C158 C 0.68631 0.36098 0.85723 0.0
C159 C 0.69404 0.42043 0.84601 0.0
C160 C 0.7183 0.39869 0.81736 0.0
H161 H 0.60494 0.30721 0.83262 0.0
H162 H 0.64875 0.27818 0.89827 0.0
H163 H 0.68756 0.29573 0.85886 0.0
H164 H 0.70704 0.31889 0.86987 0.0
H165 H 0.69342 0.29666 0.88977 0.0
H166 H 0.64888 0.33159 0.9079 0.0
H167 H 0.6727 0.31714 0.91675 0.0
H168 H 0.67713 0.34695 0.90687 0.0
H169 H 0.60901 0.37075 0.76808 0.0
H170 H 0.66148 0.43132 0.76499 0.0
H171 H 0.68041 0.41752 0.79875 0.0
H172 H 0.60311 0.37149 0.82511 0.0
H173 H 0.59001 0.34784 0.80741 0.0
H174 H 0.60095 0.34309 0.83634 0.0
H175 H 0.64453 0.33206 0.78159 0.0
H176 H 0.62794 0.31375 0.80231 0.0
H177 H 0.6133 0.3285 0.78043 0.0
H178 H 0.58923 0.27145 0.85272 0.0
C179 C 0.6149 0.30152 0.84674 0.0
C180 C 0.89647 0.75033 0.36607 0.0
C181 C 0.8884 0.76181 0.38582 0.0
C182 C 0.86696 0.75213 0.39621 0.0
C183 C 0.86274 0.72007 0.36863 0.0
C184 C 0.8834 0.72954 0.35783 0.0
C185 C 0.88921 0.71484 0.33724 0.0
H186 H 0.86134 0.61794 0.26968 0.0
C187 C 0.85348 0.69821 0.35638 0.0
C188 C 0.86889 0.69494 0.33782 0.0
H189 H 0.92018 0.672 0.2611 0.0
H190 H 0.90745 0.69187 0.29487 0.0
H191 H 0.86378 0.61489 0.3266 0.0
H192 H 0.82287 0.65314 0.2819 0.0
H193 H 0.80494 0.63896 0.30431 0.0
H194 H 0.81859 0.62201 0.28334 0.0
H195 H 0.84009 0.60069 0.30961 0.0
H196 H 0.83535 0.61249 0.33823 0.0
C197 C 0.91265 0.7062 0.34221 0.0
C198 C 0.88933 0.72964 0.31458 0.0
C199 C 0.77827 0.65083 0.3871 0.0
C200 C 0.76527 0.62941 0.38081 0.0
C201 C 0.77359 0.61744 0.36159 0.0
C202 C 0.79403 0.6265 0.34907 0.0
C203 C 0.80673 0.64786 0.35569 0.0
C204 C 0.79876 0.65953 0.37454 0.0
C205 C 0.81457 0.68171 0.3796 0.0
C206 C 0.83334 0.68158 0.36072 0.0
C207 C 0.82871 0.66177 0.34654 0.0
C208 C 0.82437 0.67968 0.40466 0.0
C209 C 0.8005 0.70216 0.37616 0.0
C210 C 0.87143 0.63416 0.27483 0.0
C211 C 0.89202 0.64312 0.26233 0.0
C212 C 0.90455 0.66423 0.2703 0.0
C213 C 0.897 0.67597 0.28994 0.0
C214 C 0.87652 0.66677 0.30215 0.0
C215 C 0.86409 0.64616 0.29451 0.0
C216 C 0.84277 0.63884 0.30973 0.0
C217 C 0.84423 0.6585 0.3275 0.0
C218 C 0.86417 0.67494 0.32308 0.0
C219 C 0.84539 0.61542 0.32163 0.0
C220 C 0.82104 0.638 0.29411 0.0
H221 H 0.83823 0.72537 0.39682 0.0
H222 H 0.91277 0.7571 0.35747 0.0
H223 H 0.87495 0.74037 0.31508 0.0
H224 H 0.88637 0.71905 0.29859 0.0
H225 H 0.90596 0.74157 0.31255 0.0
H226 H 0.91338 0.7006 0.36089 0.0
H227 H 0.92748 0.72016 0.3389 0.0
H228 H 0.91529 0.69091 0.33171 0.0
H229 H 0.77259 0.6609 0.40142 0.0
H230 H 0.76451 0.60077 0.35634 0.0
H231 H 0.79926 0.61643 0.33473 0.0
H232 H 0.82715 0.66155 0.40856 0.0
H233 H 0.8122 0.68477 0.41823 0.0
H234 H 0.84165 0.69006 0.40693 0.0
H235 H 0.78768 0.69848 0.36178 0.0
H236 H 0.81149 0.71841 0.37068 0.0
H237 H 0.79069 0.70535 0.3924 0.0
H238 H 0.85971 0.76062 0.41085 0.0
C239 C 0.85427 0.73156 0.38785 0.0
C240 C 0.74652 0.7251 0.8792 0.0
C241 C 0.76292 0.71365 0.86729 0.0
C242 C 0.7659 0.7169 0.8428 0.0
C243 C 0.739 0.74493 0.84309 0.0
C244 C 0.73468 0.74052 0.86672 0.0
C245 C 0.71712 0.75467 0.87659 0.0
H246 H 0.65189 0.84092 0.8612 0.0
C247 C 0.72561 0.76333 0.83573 0.0
C248 C 0.71231 0.76879 0.85511 0.0
H249 H 0.65753 0.80002 0.92391 0.0
H250 H 0.68298 0.77728 0.90326 0.0
H251 H 0.64858 0.79801 0.82328 0.0
H252 H 0.70385 0.84797 0.84939 0.0
H253 H 0.71076 0.84384 0.81984 0.0
H254 H 0.68437 0.85531 0.82725 0.0
H255 H 0.65179 0.82834 0.81603 0.0
H256 H 0.66632 0.80843 0.79912 0.0
C257 C 0.69535 0.73785 0.88466 0.0
C258 C 0.72891 0.77017 0.89637 0.0
C259 C 0.74498 0.80436 0.75769 0.0
C260 C 0.73793 0.82422 0.74751 0.0
C261 C 0.71922 0.83368 0.75782 0.0
C262 C 0.70867 0.82436 0.7787 0.0
C263 C 0.71705 0.80553 0.78955 0.0
C264 C 0.73442 0.7954 0.77867 0.0
C265 C 0.74138 0.77574 0.7929 0.0
C266 C 0.72594 0.77637 0.81456 0.0
C267 C 0.71187 0.79393 0.81254 0.0
C268 C 0.7352 0.75297 0.77886 0.0
C269 C 0.76755 0.78182 0.79871 0.0
C270 C 0.65824 0.82676 0.87034 0.0
C271 C 0.65262 0.8221 0.89412 0.0
C272 C 0.66173 0.80394 0.90559 0.0
C273 C 0.67644 0.79076 0.89355 0.0
C274 C 0.68234 0.79601 0.86989 0.0
C275 C 0.67313 0.81366 0.85867 0.0
C276 C 0.6821 0.8176 0.83389 0.0
C277 C 0.69782 0.79903 0.83186 0.0
C278 C 0.69799 0.7865 0.85301 0.0
C279 C 0.6612 0.81305 0.81705 0.0
C280 C 0.69588 0.84246 0.83226 0.0
H281 H 0.75747 0.73452 0.81218 0.0
H282 H 0.74364 0.72288 0.89797 0.0
H283 H 0.74719 0.77708 0.8914 0.0
H284 H 0.72046 0.78561 0.89982 0.0
H285 H 0.72931 0.76018 0.91301 0.0
H286 H 0.69246 0.72236 0.87313 0.0
H287 H 0.69727 0.73163 0.90293 0.0
H288 H 0.67913 0.74564 0.88348 0.0
H289 H 0.75938 0.79676 0.75029 0.0
H290 H 0.71317 0.84872 0.75007 0.0
H291 H 0.69493 0.83269 0.786 0.0
H292 H 0.72137 0.75439 0.76577 0.0
H293 H 0.75059 0.74844 0.76911 0.0
H294 H 0.72797 0.73818 0.7903 0.0
H295 H 0.77154 0.80016 0.80448 0.0
H296 H 0.77318 0.77137 0.81317 0.0
H297 H 0.7786 0.77963 0.78305 0.0
H298 H 0.77781 0.70772 0.83302 0.0
C299 C 0.75402 0.73241 0.83067 0.0
C300 C 0.86245 0.22385 0.37119 0.0
C301 C 0.87518 0.20745 0.36113 0.0
C302 C 0.87179 0.20168 0.33725 0.0
C303 C 0.84221 0.22689 0.33443 0.0
C304 C 0.84613 0.23333 0.35754 0.0
C305 C 0.83043 0.25028 0.36563 0.0
H306 H 0.73692 0.30445 0.34469 0.0
C307 C 0.82302 0.23852 0.3256 0.0
C308 C 0.81617 0.2525 0.34369 0.0
H309 H 0.77846 0.30778 0.40746 0.0
H310 H 0.80478 0.28459 0.38876 0.0
H311 H 0.73719 0.25091 0.33516 0.0
H312 H 0.77976 0.31208 0.30826 0.0
H313 H 0.77561 0.29252 0.28479 0.0
H314 H 0.75077 0.30311 0.29805 0.0
H315 H 0.72663 0.2707 0.31503 0.0
H316 H 0.7408 0.24701 0.30486 0.0
C317 C 0.81529 0.23902 0.38637 0.0
C318 C 0.84574 0.27341 0.37175 0.0
C319 C 0.78764 0.21539 0.24647 0.0
C320 C 0.76801 0.22111 0.23475 0.0
C321 C 0.75645 0.23888 0.24392 0.0
C322 C 0.76354 0.24982 0.26504 0.0
C323 C 0.78224 0.24281 0.27731 0.0
C324 C 0.79436 0.22634 0.26766 0.0
C325 C 0.81364 0.22091 0.28325 0.0
C326 C 0.81076 0.23649 0.30409 0.0
C327 C 0.79219 0.24907 0.3006 0.0
C328 C 0.80858 0.19483 0.29001 0.0
C329 C 0.83711 0.22815 0.27012 0.0
C330 C 0.75166 0.30012 0.35443 0.0
C331 C 0.75547 0.30765 0.37766 0.0
C332 C 0.77517 0.30215 0.38954 0.0
C333 C 0.79032 0.28857 0.3787 0.0
C334 C 0.78572 0.2804 0.35576 0.0
C335 C 0.76692 0.28666 0.34387 0.0
C336 C 0.76474 0.2767 0.31957 0.0
C337 C 0.78522 0.26322 0.31883 0.0
C338 C 0.79731 0.26518 0.34016 0.0
C339 C 0.7411 0.26057 0.31833 0.0
C340 C 0.76768 0.29703 0.3016 0.0
H341 H 0.85351 0.20592 0.30595 0.0
H342 H 0.86487 0.22895 0.38937 0.0
H343 H 0.86148 0.27648 0.36019 0.0
H344 H 0.83676 0.28866 0.36886 0.0
H345 H 0.85172 0.27333 0.39023 0.0
H346 H 0.80913 0.22041 0.38276 0.0
H347 H 0.82539 0.23993 0.40289 0.0
H348 H 0.79938 0.24691 0.38943 0.0
H349 H 0.79713 0.20207 0.23971 0.0
H350 H 0.74118 0.24355 0.2354 0.0
H351 H 0.75362 0.26272 0.27141 0.0
H352 H 0.78964 0.18947 0.29327 0.0
H353 H 0.81405 0.18383 0.27568 0.0
H354 H 0.81697 0.19054 0.30642 0.0
H355 H 0.83616 0.24302 0.25798 0.0
H356 H 0.85146 0.23438 0.28216 0.0
H357 H 0.84204 0.21366 0.25947 0.0
H358 H 0.88111 0.18894 0.32906 0.0
C359 C 0.85553 0.21139 0.32386 0.0
C360 C 0.38783 0.64874 0.26648 0.0
C361 C 0.3791 0.62743 0.27774 0.0
C362 C 0.35846 0.61483 0.26872 0.0
C363 C 0.35612 0.6439 0.2381 0.0
C364 C 0.37618 0.65654 0.24682 0.0
C365 C 0.3832 0.67863 0.23273 0.0
H366 H 0.36337 0.74855 0.14022 0.0
C367 C 0.34829 0.65658 0.21737 0.0
C368 C 0.36427 0.67707 0.21412 0.0
H369 H 0.41847 0.76093 0.19113 0.0
H370 H 0.40396 0.72474 0.21066 0.0
H371 H 0.32337 0.73197 0.17794 0.0
H372 H 0.36529 0.69476 0.13345 0.0
H373 H 0.33703 0.67931 0.13331 0.0
H374 H 0.342 0.70875 0.12235 0.0
H375 H 0.31863 0.72898 0.14693 0.0
H376 H 0.30495 0.70767 0.16774 0.0
C377 C 0.38228 0.69947 0.24925 0.0
C378 C 0.40747 0.6777 0.22164 0.0
C379 C 0.27429 0.6238 0.17236 0.0
C380 C 0.26297 0.63195 0.15266 0.0
C381 C 0.27345 0.65277 0.14178 0.0
C382 C 0.29405 0.66535 0.15033 0.0
C383 C 0.30484 0.6573 0.17014 0.0
C384 C 0.29508 0.63676 0.18079 0.0
C385 C 0.30935 0.631 0.20162 0.0
C386 C 0.32901 0.65153 0.20177 0.0
C387 C 0.32617 0.66688 0.18319 0.0
C388 C 0.29385 0.63036 0.22397 0.0
C389 C 0.31858 0.60789 0.19643 0.0
C390 C 0.37231 0.7438 0.15571 0.0
C391 C 0.39233 0.7581 0.16381 0.0
C392 C 0.40332 0.75044 0.18395 0.0
C393 C 0.39472 0.72936 0.19551 0.0
C394 C 0.37471 0.71541 0.18713 0.0
C395 C 0.36387 0.72288 0.16754 0.0
C396 C 0.34262 0.70626 0.16111 0.0
C397 C 0.34238 0.68753 0.17992 0.0
C398 C 0.36128 0.69277 0.19524 0.0
C399 C 0.32119 0.71926 0.16332 0.0
C400 C 0.34669 0.69679 0.13621 0.0
H401 H 0.33152 0.61227 0.24349 0.0
H402 H 0.40362 0.65901 0.27257 0.0
H403 H 0.40856 0.66013 0.21453 0.0
H404 H 0.41135 0.68972 0.20661 0.0
H405 H 0.42136 0.6816 0.23489 0.0
H406 H 0.36686 0.69623 0.26122 0.0
H407 H 0.39806 0.70254 0.26031 0.0
H408 H 0.38038 0.7156 0.23969 0.0
H409 H 0.26694 0.60794 0.1813 0.0
H410 H 0.26581 0.65936 0.12631 0.0
H411 H 0.30079 0.68098 0.14105 0.0
H412 H 0.28296 0.64459 0.22351 0.0
H413 H 0.28197 0.61368 0.22543 0.0
H414 H 0.30399 0.6331 0.24025 0.0
H415 H 0.32392 0.6071 0.17764 0.0
H416 H 0.33428 0.60579 0.20648 0.0
H417 H 0.30498 0.59282 0.20006 0.0
H418 H 0.35077 0.59873 0.27698 0.0
C419 C 0.34708 0.62284 0.24919 0.0
C420 C 0.1196 0.28226 0.67463 0.0
C421 C 0.12803 0.27098 0.65492 0.0
C422 C 0.14823 0.28213 0.6433 0.0
C423 C 0.15174 0.31412 0.67095 0.0
C424 C 0.13176 0.30373 0.68234 0.0
C425 C 0.1257 0.31815 0.70306 0.0
H426 H 0.15248 0.41483 0.77129 0.0
C427 C 0.16058 0.33606 0.68326 0.0
C428 C 0.14538 0.33867 0.70221 0.0
H429 H 0.09353 0.36079 0.77904 0.0
H430 H 0.10677 0.34093 0.74547 0.0
H431 H 0.15005 0.41845 0.71379 0.0
H432 H 0.19048 0.38057 0.75931 0.0
H433 H 0.20865 0.39345 0.73649 0.0
H434 H 0.19568 0.41163 0.75683 0.0
H435 H 0.17293 0.4327 0.73178 0.0
H436 H 0.17891 0.42169 0.70314 0.0
C437 C 0.10177 0.32588 0.69844 0.0
C438 C 0.12642 0.3035 0.7257 0.0
C439 C 0.23533 0.3847 0.65302 0.0
C440 C 0.24854 0.40567 0.66021 0.0
C441 C 0.24042 0.41696 0.67998 0.0
C442 C 0.21989 0.40764 0.6922 0.0
C443 C 0.207 0.38667 0.68476 0.0
C444 C 0.21487 0.37562 0.66543 0.0
C445 C 0.19911 0.35353 0.65987 0.0
C446 C 0.18051 0.353 0.67903 0.0
C447 C 0.1851 0.37246 0.69367 0.0
C448 C 0.18899 0.35617 0.63505 0.0
C449 C 0.21341 0.33314 0.66245 0.0
C450 C 0.14222 0.39885 0.76573 0.0
C451 C 0.12181 0.38956 0.77833 0.0
C452 C 0.10945 0.36839 0.77026 0.0
C453 C 0.1171 0.35686 0.75051 0.0
C454 C 0.13748 0.36634 0.73828 0.0
C455 C 0.14966 0.38706 0.74598 0.0
C456 C 0.171 0.39463 0.73091 0.0
C457 C 0.16965 0.37523 0.71289 0.0
C458 C 0.1499 0.35851 0.71721 0.0
C459 C 0.16833 0.41818 0.71933 0.0
C460 C 0.1927 0.39532 0.74658 0.0
H461 H 0.17522 0.31058 0.64132 0.0
H462 H 0.10418 0.27439 0.6841 0.0
H463 H 0.14168 0.29392 0.72528 0.0
H464 H 0.12842 0.31413 0.74173 0.0
H465 H 0.11049 0.29055 0.72756 0.0
H466 H 0.10041 0.33106 0.67971 0.0
H467 H 0.08741 0.31156 0.70228 0.0
H468 H 0.09887 0.34122 0.70872 0.0
H469 H 0.24059 0.37555 0.6378 0.0
H470 H 0.25016 0.43291 0.68632 0.0
H471 H 0.21488 0.41713 0.70708 0.0
H472 H 0.18647 0.37445 0.63154 0.0
H473 H 0.20082 0.35109 0.62114 0.0
H474 H 0.17153 0.3461 0.63295 0.0
H475 H 0.22603 0.33632 0.67706 0.0
H476 H 0.20258 0.31655 0.66709 0.0
H477 H 0.22347 0.33083 0.64612 0.0
H478 H 0.15495 0.27452 0.6278 0.0
C479 C 0.16 0.30336 0.65113 0.0
Tb480 Tb 0.03163 0.01945 0.50133 0.0
Tb481 Tb 0.98525 1.01533 0.53491 0.0
C482 C 0.98983 0.97803 0.49609 0.0
C483 C 0.0832 0.04243 0.46464 0.0
C484 C 0.11313 0.07917 0.44342 0.0
C485 C 0.1137 0.05612 0.43644 0.0
C486 C 0.09886 0.03792 0.44699 0.0
C487 C 0.0826 0.06531 0.47189 0.0
C488 C 0.09749 0.08356 0.46138 0.0
C489 C 0.06699 0.0232 0.47465 0.0
O490 O 0.01414 0.04852 0.49169 0.0
O491 O 0.97755 0.03163 0.50199 0.0
O492 O 1.00413 0.04997 0.54142 0.0
O493 O 0.04082 0.04407 0.53004 0.0
O494 O 0.94883 1.00979 0.53737 0.0
O495 O 0.96974 0.01905 0.56793 0.0
O496 O 0.01013 0.99834 0.55451 0.0
O497 O 0.03346 0.98976 0.5239 0.0
O498 O 1.00538 0.99336 0.4853 0.0
O499 O 0.98283 0.98161 0.51768 0.0
C500 C 0.99154 0.04751 0.4904 0.0
O501 O 0.06773 0.02038 0.49737 0.0
O502 O 0.0457 0.02152 0.46715 0.0
C503 C 0.02682 0.05628 0.54137 0.0
C504 C 0.93348 0.99583 0.57386 0.0
C505 C 0.90271 0.96328 0.59983 0.0
C506 C 0.89768 0.98594 0.59619 0.0
C507 C 0.91295 1.00204 0.58335 0.0
C508 C 0.93871 0.97329 0.57731 0.0
C509 C 0.9234 0.9571 0.59023 0.0
C510 C 0.94881 1.01304 0.55999 0.0
C511 C 0.02613 0.98689 0.54575 0.0
H512 H 0.1252 0.05215 0.42239 0.0
H513 H 0.09937 0.02034 0.4411 0.0
H514 H 0.07049 0.06905 0.48551 0.0
H515 H 0.09676 0.10108 0.4673 0.0
H516 H 0.88171 0.99115 0.60295 0.0
H517 H 0.90863 0.01935 0.58066 0.0
H518 H 0.95454 0.96826 0.56999 0.0
H519 H 0.92784 0.93985 0.59288 0.0
Tb520 Tb 0.52288 0.02092 0.04257 0.0
Tb521 Tb 0.48219 1.01333 1.00306 0.0
C522 C 0.52722 0.99095 0.99844 0.0
C523 C 0.57681 0.04325 0.07602 0.0
C524 C 0.61817 0.07192 0.08842 0.0
C525 C 0.61693 0.04762 0.08886 0.0
C526 C 0.5964 0.03345 0.08284 0.0
C527 C 0.57841 0.06749 0.07417 0.0
C528 C 0.59886 0.08168 0.08039 0.0
C529 C 0.55451 0.02804 0.07286 0.0
O530 O 0.52753 0.05347 0.02231 0.0
O531 O 0.50853 0.04073 0.98854 0.0
O532 O 0.47649 0.04245 0.02478 0.0
O533 O 0.49064 0.02862 0.05816 0.0
O534 O 0.4725 1.00864 0.96774 0.0
O535 O 0.4469 1.01197 0.99501 0.0
O536 O 0.47083 0.98666 0.03 0.0
O537 O 0.50505 0.98587 0.04995 0.0
O538 O 0.53773 1.00819 1.01083 0.0
O539 O 0.50449 0.98713 0.99718 0.0
C540 C 0.52264 0.05646 1.00001 0.0
O541 O 0.53578 0.03797 0.07297 0.0
O542 O 0.55386 1.01213 0.05678 0.0
C543 C 0.47771 0.04213 0.04771 0.0
C544 C 0.4349 0.98817 0.96248 0.0
C545 C 0.40455 0.95228 0.94143 0.0
C546 C 0.40849 0.95192 0.96576 0.0
C547 C 0.42368 0.96968 0.97621 0.0
C548 C 0.43102 0.98849 0.93824 0.0
C549 C 0.41604 0.9707 0.92778 0.0
C550 C 0.45042 1.00751 0.9729 0.0
C551 C 0.48352 0.97674 0.04514 0.0
H552 H 0.63162 0.03952 0.0945 0.0
H553 H 0.59559 1.01479 0.08426 0.0
H554 H 0.5636 0.07555 0.06879 0.0
H555 H 0.59906 0.10029 0.08002 0.0
H556 H 0.4 0.93783 0.97665 0.0
H557 H 0.42654 0.96898 0.99497 0.0
H558 H 0.43949 1.00264 0.92738 0.0
H559 H 0.41312 0.9716 0.90905 0.0
Tb560 Tb 0.50782 0.49212 0.50662 0.0
Tb561 Tb 0.50685 0.54032 0.5349 0.0
C562 C 0.4844 0.53268 0.4841 0.0
C563 C 0.53131 0.44352 0.47861 0.0
C564 C 0.57035 0.42223 0.46619 0.0
C565 C 0.54931 0.41708 0.45394 0.0
C566 C 0.52996 0.42763 0.46013 0.0
C567 C 0.55221 0.44876 0.49088 0.0
C568 C 0.57151 0.43815 0.4848 0.0
C569 C 0.51125 0.45526 0.48445 0.0
O570 O 0.53711 0.51632 0.49271 0.0
O571 O 0.54304 0.5426 0.52266 0.0
O572 O 0.51922 0.51673 0.56059 0.0
O573 O 0.53184 0.49005 0.5359 0.0
O574 O 0.51146 0.57677 0.53562 0.0
O575 O 0.49984 0.55664 0.56646 0.0
O576 O 0.47113 0.52225 0.537 0.0
O577 O 0.47799 0.48504 0.53069 0.0
O578 O 0.48308 0.51006 0.48711 0.0
O579 O 0.49601 0.54711 0.49896 0.0
C580 C 0.55008 0.53359 0.50312 0.0
O581 O 0.50581 0.45584 0.50669 0.0
O582 O 0.51119 0.47536 0.47438 0.0
C583 C 0.53066 0.49908 0.557 0.0
C584 C 0.4828 0.58998 0.55977 0.0
C585 C 0.44236 0.61035 0.56842 0.0
C586 C 0.46057 0.61264 0.58472 0.0
C587 C 0.48064 0.60255 0.58041 0.0
C588 C 0.46486 0.58799 0.54324 0.0
C589 C 0.44487 0.59823 0.54745 0.0
C590 C 0.50263 0.57713 0.55676 0.0
C591 C 0.46457 0.49973 0.5386 0.0
H592 H 0.5479 0.4052 0.43928 0.0
H593 H 0.51402 0.42358 0.45032 0.0
H594 H 0.55362 0.46114 0.50512 0.0
H595 H 0.5873 0.44231 0.49481 0.0
H596 H 0.45921 0.62206 0.60092 0.0
H597 H 0.49422 0.60407 0.59345 0.0
H598 H 0.46603 0.57801 0.52736 0.0
H599 H 0.43103 0.59597 0.5347 0.0
Tb600 Tb 1.006 0.53793 1.00713 0.0
Tb601 Tb 1.00563 0.48969 0.03551 0.0
C602 C 0.02899 0.49729 0.98454 0.0
C603 C 0.98214 0.58611 0.98071 0.0
C604 C 0.94155 0.60506 0.96995 0.0
C605 C 0.96323 0.61473 0.96025 0.0
C606 C 0.98339 0.60529 0.9656 0.0
C607 C 0.96064 0.5766 0.99064 0.0
C608 C 0.94055 0.58603 0.98539 0.0
C609 C 1.00286 0.57529 0.98561 0.0
O610 O 0.97685 0.51422 0.99305 0.0
O611 O 0.96959 0.48841 0.02362 0.0
O612 O 0.99437 0.51366 0.06139 0.0
O613 O 0.98112 0.53942 0.03627 0.0
O614 O 0.99884 0.45328 0.03635 0.0
O615 O 0.01266 0.47242 0.06654 0.0
O616 O 0.04171 0.50701 0.03741 0.0
O617 O 0.03547 0.5444 0.03098 0.0
O618 O 0.03063 0.51991 0.98726 0.0
O619 O 0.01699 0.48299 0.99964 0.0
C620 C 0.96322 0.49731 1.00377 0.0
O621 O 0.00813 0.5742 1.00773 0.0
O622 O 1.0036 0.55559 0.97516 0.0
C623 C 0.98271 0.53106 0.05765 0.0
C624 C 0.02807 0.43866 0.05767 0.0
C625 C 0.06862 0.41782 0.06244 0.0
C626 C 0.05081 0.41427 0.07962 0.0
C627 C 0.03068 0.42464 0.07724 0.0
C628 C 0.04549 0.44171 0.04016 0.0
C629 C 0.06554 0.43128 0.04246 0.0
C630 C 0.00861 0.45214 0.05674 0.0
C631 C 0.04857 0.52949 0.03891 0.0
H632 H 0.96451 0.62921 0.94806 0.0
H633 H 0.99986 0.61271 0.95769 0.0
H634 H 0.95936 0.5617 1.00229 0.0
H635 H 0.92422 0.57837 0.99339 0.0
H636 H 0.05264 0.4038 0.0951 0.0
H637 H 0.01749 0.42229 0.091 0.0
H638 H 0.04396 0.45281 0.02508 0.0
H639 H 0.07906 0.43458 0.0291 0.0
H640 H 0.26259 0.22159 0.3259 0.0
H641 H 0.24047 0.19743 0.35625 0.0
H642 H 0.17668 0.20367 0.32033 0.0
H643 H 0.19857 0.22758 0.28984 0.0
H644 H 0.19584 0.20674 0.38506 0.0
H645 H 0.18698 0.13142 0.32422 0.0
H646 H 0.20984 0.15575 0.32084 0.0
H647 H 0.18063 0.15869 0.31281 0.0
C648 C 0.24383 0.218 0.32463 0.0
C649 C 0.23231 0.22639 0.30546 0.0
C650 C 0.23125 0.20435 0.34201 0.0
C651 C 0.20704 0.19879 0.34037 0.0
C652 C 0.19539 0.20786 0.32182 0.0
H653 H 0.10175 0.12125 0.42973 0.0
H654 H 0.12567 0.15161 0.40686 0.0
C655 C 0.20791 0.2216 0.30452 0.0
C656 C 0.19413 0.182 0.35696 0.0
H657 H 0.16778 0.12592 0.36094 0.0
C658 C 0.18968 0.18905 0.37989 0.0
C659 C 0.18639 0.15897 0.35006 0.0
C660 C 0.19124 0.15056 0.3257 0.0
C661 C 0.1773 0.17358 0.39612 0.0
C662 C 0.16923 0.15063 0.38908 0.0
C663 C 0.17399 0.14356 0.36622 0.0
C664 C 0.15569 0.13354 0.40502 0.0
C665 C 0.17312 0.18172 0.42072 0.0
C666 C 0.16472 0.11341 0.41156 0.0
C667 C 0.15117 0.0961 0.42471 0.0
C668 C 0.12823 0.0985 0.43134 0.0
C669 C 0.11945 0.11899 0.42521 0.0
C670 C 0.13307 0.13635 0.41213 0.0
H671 H 0.18444 0.19822 0.42477 0.0
H672 H 0.15472 0.18464 0.42257 0.0
H673 H 0.17623 0.16837 0.43385 0.0
H674 H 0.18215 0.11095 0.40617 0.0
H675 H 0.15858 0.0807 0.42944 0.0
H676 H 0.23872 0.82177 0.83284 0.0
H677 H 0.26124 0.8459 0.86227 0.0
H678 H 0.32502 0.8315 0.8299 0.0
H679 H 0.30292 0.80786 0.8003 0.0
H680 H 0.30626 0.83212 0.89249 0.0
H681 H 0.31863 0.90665 0.82966 0.0
H682 H 0.29357 0.88439 0.82874 0.0
H683 H 0.32131 0.8783 0.81839 0.0
C684 C 0.25754 0.82361 0.83212 0.0
C685 C 0.26902 0.81288 0.81422 0.0
C686 C 0.27032 0.83724 0.84901 0.0
C687 C 0.2947 0.84036 0.84814 0.0
C688 C 0.30618 0.82911 0.83084 0.0
H689 H 0.41131 0.92953 0.90076 0.0
H690 H 0.38332 0.90146 0.88032 0.0
C691 C 0.29349 0.81551 0.81404 0.0
C692 C 0.30845 0.85677 0.864 0.0
H693 H 0.34063 0.91046 0.86437 0.0
C694 C 0.3136 0.84937 0.88658 0.0
C695 C 0.31794 0.87913 0.85602 0.0
C696 C 0.31258 0.88779 0.83193 0.0
C697 C 0.32883 0.86364 0.90119 0.0
C698 C 0.33879 0.88585 0.89295 0.0
C699 C 0.33303 0.89339 0.87059 0.0
C700 C 0.35609 0.9013 0.90663 0.0
C701 C 0.33486 0.8545 0.92486 0.0
C702 C 0.35011 0.91032 0.92833 0.0
C703 C 0.36613 0.92636 0.94009 0.0
C704 C 0.38825 0.9338 0.93016 0.0
C705 C 0.3943 0.92432 0.90868 0.0
C706 C 0.37837 0.90825 0.89704 0.0
H707 H 0.32978 0.83543 0.92639 0.0
H708 H 0.35381 0.85872 0.92811 0.0
H709 H 0.32549 0.86283 0.93881 0.0
H710 H 0.33286 0.90553 0.93581 0.0
H711 H 0.36092 0.93359 0.95648 0.0
H712 H 0.61457 0.37861 0.72445 0.0
H713 H 0.59801 0.39434 0.68932 0.0
H714 H 0.60891 0.4626 0.71962 0.0
H715 H 0.62607 0.44713 0.75423 0.0
H716 H 0.56208 0.41439 0.67951 0.0
H717 H 0.63813 0.47955 0.658 0.0
H718 H 0.63913 0.45778 0.68043 0.0
H719 H 0.62719 0.484 0.68692 0.0
C720 C 0.61345 0.39699 0.72367 0.0
C721 C 0.62209 0.41154 0.74229 0.0
C722 C 0.60397 0.40606 0.70342 0.0
C723 C 0.60266 0.42998 0.70108 0.0
C724 C 0.61044 0.44432 0.72013 0.0
H725 H 0.53881 0.51718 0.60138 0.0
H726 H 0.55615 0.5001 0.6352 0.0
C727 C 0.62019 0.43534 0.74018 0.0
C728 C 0.59287 0.43983 0.67912 0.0
H729 H 0.60301 0.4837 0.63794 0.0
C730 C 0.57124 0.42941 0.67039 0.0
C731 C 0.60458 0.45946 0.66669 0.0
C732 C 0.62864 0.47068 0.67333 0.0
C733 C 0.56094 0.43828 0.65042 0.0
C734 C 0.57237 0.45823 0.63851 0.0
C735 C 0.59402 0.46855 0.64702 0.0
C736 C 0.56202 0.46873 0.6174 0.0
C737 C 0.53754 0.42654 0.64244 0.0
C738 C 0.55971 0.45715 0.59568 0.0
C739 C 0.55001 0.46708 0.57606 0.0
C740 C 0.54208 0.48884 0.57757 0.0
C741 C 0.54458 0.50043 0.59934 0.0
C742 C 0.55456 0.49064 0.61882 0.0
H743 H 0.52918 0.41371 0.65556 0.0
H744 H 0.52574 0.43959 0.63909 0.0
H745 H 0.53974 0.41736 0.6257 0.0
H746 H 0.56549 0.44037 0.59384 0.0
H747 H 0.54843 0.45749 0.55975 0.0
H748 H 0.93728 0.63978 0.24851 0.0
H749 H 0.95109 0.62102 0.21386 0.0
H750 H 0.88031 0.59903 0.19314 0.0
H751 H 0.86626 0.61793 0.2278 0.0
H752 H 0.90625 0.5642 0.18707 0.0
H753 H 0.95415 0.64383 0.14671 0.0
H754 H 0.9634 0.6389 0.17607 0.0
H755 H 0.93419 0.64466 0.17112 0.0
C756 C 0.92452 0.63126 0.23651 0.0
C757 C 0.9005 0.63079 0.24117 0.0
C758 C 0.93253 0.62046 0.21652 0.0
C759 C 0.91688 0.60888 0.2003 0.0
C760 C 0.8929 0.60788 0.20513 0.0
H761 H 0.95802 0.56836 0.05789 0.0
H762 H 0.94131 0.58645 0.09169 0.0
C763 C 0.88484 0.61868 0.22516 0.0
C764 C 0.92552 0.59761 0.17861 0.0
H765 H 0.96107 0.60804 0.12993 0.0
C766 C 0.91818 0.57388 0.17458 0.0
C767 C 0.94085 0.61006 0.16183 0.0
C768 C 0.94844 0.63581 0.16396 0.0
C769 C 0.92605 0.56229 0.15486 0.0
C770 C 0.94213 0.57454 0.1386 0.0
C771 C 0.94901 0.5984 0.14232 0.0
C772 C 0.95199 0.563 0.11771 0.0
C773 C 0.91665 0.53705 0.15144 0.0
C774 C 0.96388 0.54376 0.12067 0.0
C775 C 0.97344 0.5333 0.10129 0.0
C776 C 0.9716 0.54179 0.0782 0.0
C777 C 0.95976 0.56113 0.07525 0.0
C778 C 0.95021 0.5716 0.09469 0.0
H779 H 0.89975 0.53221 0.16081 0.0
H780 H 0.91421 0.53292 0.13252 0.0
H781 H 0.92914 0.52621 0.15869 0.0
H782 H 0.96616 0.53698 0.13812 0.0
H783 H 0.98256 0.51864 0.1045 0.0
H784 H 0.3991 0.18713 0.18926 0.0
H785 H 0.4208 0.15992 0.16891 0.0
H786 H 0.38162 0.16714 0.10604 0.0
H787 H 0.35945 0.1938 0.12629 0.0
H788 H 0.39903 0.11703 0.14738 0.0
H789 H 0.45111 0.17661 0.08389 0.0
H790 H 0.43836 0.18671 0.11032 0.0
H791 H 0.42058 0.17891 0.08518 0.0
C792 C 0.39512 0.18297 0.17109 0.0
C793 C 0.37752 0.19267 0.15941 0.0
C794 C 0.40761 0.16753 0.15949 0.0
C795 C 0.40292 0.16175 0.13596 0.0
C796 C 0.38576 0.17174 0.12409 0.0
H797 H 0.44668 0.06969 0.03224 0.0
H798 H 0.42858 0.09801 0.05483 0.0
C799 C 0.37317 0.18705 0.13569 0.0
C800 C 0.41489 0.14419 0.12416 0.0
H801 H 0.4505 0.13625 0.07775 0.0
C802 C 0.41048 0.12119 0.13229 0.0
C803 C 0.42964 0.14978 0.10444 0.0
C804 C 0.43542 0.17437 0.09549 0.0
C805 C 0.41991 0.10341 0.12071 0.0
C806 C 0.43454 0.10895 0.10084 0.0
C807 C 0.43923 0.13205 0.09296 0.0
C808 C 0.44487 0.09103 0.08763 0.0
C809 C 0.41348 0.07877 0.12937 0.0
C810 C 0.46 0.0777 0.09861 0.0
C811 C 0.47025 0.06135 0.08579 0.0
C812 C 0.46574 0.05828 0.06169 0.0
C813 C 0.4505 0.07162 0.05078 0.0
C814 C 0.44018 0.08784 0.06364 0.0
H815 H 0.39754 0.07675 0.14062 0.0
H816 H 0.41057 0.06655 0.11444 0.0
H817 H 0.42791 0.07385 0.14004 0.0
H818 H 0.46424 0.08024 0.117 0.0
H819 H 0.48209 0.0515 0.09466 0.0
H820 H 0.10527 0.84491 0.69207 0.0
H821 H 0.08122 0.86954 0.67131 0.0
H822 H 0.1245 0.86831 0.60939 0.0
H823 H 0.14883 0.84405 0.63004 0.0
H824 H 0.097 0.91366 0.6517 0.0
H825 H 0.05817 0.85237 0.58393 0.0
H826 H 0.07152 0.84293 0.61012 0.0
H827 H 0.08927 0.85459 0.58557 0.0
C828 C 0.10965 0.84984 0.67401 0.0
C829 C 0.12899 0.84248 0.66272 0.0
C830 C 0.09582 0.86381 0.66216 0.0
C831 C 0.10091 0.87049 0.63874 0.0
C832 C 0.11997 0.86292 0.6273 0.0
H833 H 0.06113 0.96217 0.53427 0.0
H834 H 0.07735 0.93384 0.55833 0.0
C835 C 0.13384 0.84901 0.63914 0.0
C836 C 0.08726 0.88655 0.62665 0.0
H837 H 0.05513 0.89238 0.57768 0.0
C838 C 0.08757 0.90896 0.63568 0.0
C839 C 0.075 0.88031 0.60578 0.0
C840 C 0.07323 0.85617 0.59586 0.0
C841 C 0.07679 0.92568 0.62381 0.0
C842 C 0.06505 0.91962 0.60259 0.0
C843 C 0.06419 0.89699 0.59393 0.0
C844 C 0.05477 0.93685 0.58831 0.0
C845 C 0.07894 0.94993 0.63352 0.0
C846 C 0.03653 0.94786 0.59714 0.0
C847 C 0.02721 0.96423 0.58342 0.0
C848 C 0.03589 0.96972 0.56057 0.0
C849 C 0.05401 0.95843 0.55177 0.0
C850 C 0.06331 0.94217 0.56549 0.0
H851 H 0.09266 0.95302 0.64706 0.0
H852 H 0.08299 0.96303 0.61927 0.0
H853 H 0.06215 0.9526 0.64181 0.0
H854 H 0.02941 0.94369 0.61457 0.0
H855 H 0.01315 0.97246 0.59067 0.0
H856 H 0.7625 0.44102 0.89791 0.0
H857 H 0.79819 0.4598 0.91682 0.0
H858 H 0.82413 0.39419 0.91961 0.0
H859 H 0.78888 0.37549 0.90063 0.0
H860 H 0.81667 0.44986 0.96172 0.0
H861 H 0.87911 0.43736 0.89016 0.0
H862 H 0.84812 0.4345 0.88559 0.0
H863 H 0.86068 0.41127 0.89901 0.0
C864 C 0.77595 0.43065 0.90223 0.0
C865 C 0.7726 0.40664 0.89767 0.0
C866 C 0.79634 0.4414 0.91325 0.0
C867 C 0.81414 0.42854 0.91962 0.0
C868 C 0.81096 0.40468 0.91472 0.0
H869 H 0.92879 0.46262 0.01978 0.0
H870 H 0.89261 0.44665 1.00013 0.0
C871 C 0.79058 0.39393 0.90395 0.0
C872 C 0.83578 0.43974 0.93182 0.0
H873 H 0.89533 0.4495 0.92701 0.0
C874 C 0.83385 0.44984 0.95405 0.0
C875 C 0.85836 0.44 0.92193 0.0
C876 C 0.8618 0.43041 0.89777 0.0
C877 C 0.85368 0.45963 0.96673 0.0
C878 C 0.87628 0.45928 0.95712 0.0
C879 C 0.87816 0.44964 0.93465 0.0
C880 C 0.89815 0.46932 0.9697 0.0
C881 C 0.85021 0.47063 0.9902 0.0
C882 C 0.91377 0.48724 0.95925 0.0
C883 C 0.93449 0.49642 0.97047 0.0
C884 C 0.9405 0.48783 0.99249 0.0
C885 C 0.92485 0.46984 1.00297 0.0
C886 C 0.904 0.46073 0.99174 0.0
H887 H 0.83218 0.47466 0.99246 0.0
H888 H 0.85346 0.45845 1.00443 0.0
H889 H 0.86257 0.48687 0.99227 0.0
H890 H 0.9099 0.49424 0.94229 0.0
H891 H 0.94593 0.5102 0.96168 0.0
H892 H 0.72549 0.60257 0.36429 0.0
H893 H 0.6903 0.58656 0.38616 0.0
H894 H 0.71912 0.61826 0.44953 0.0
H895 H 0.75476 0.63367 0.42814 0.0
H896 H 0.68627 0.55643 0.42822 0.0
H897 H 0.65374 0.64022 0.44425 0.0
H898 H 0.67497 0.63683 0.42155 0.0
H899 H 0.68355 0.63898 0.45175 0.0
C900 C 0.72464 0.606 0.38293 0.0
C901 C 0.74334 0.61963 0.39421 0.0
C902 C 0.70429 0.5969 0.39542 0.0
C903 C 0.70178 0.60137 0.41951 0.0
C904 C 0.72033 0.61485 0.43089 0.0
H905 H 0.58488 0.56666 0.52011 0.0
H906 H 0.6219 0.58238 0.50087 0.0
C907 C 0.74079 0.62379 0.41849 0.0
C908 C 0.67999 0.59162 0.43275 0.0
H909 H 0.63249 0.60688 0.46183 0.0
C910 C 0.67449 0.56747 0.43552 0.0
C911 C 0.66464 0.60593 0.44258 0.0
C912 C 0.6693 0.63194 0.43983 0.0
C913 C 0.65436 0.55731 0.44796 0.0
C914 C 0.63863 0.57157 0.45734 0.0
C915 C 0.64431 0.59578 0.45472 0.0
C916 C 0.61605 0.56175 0.46938 0.0
C917 C 0.65058 0.53134 0.45142 0.0
C918 C 0.59999 0.54507 0.4582 0.0
C919 C 0.57893 0.53588 0.46929 0.0
C920 C 0.57294 0.54334 0.49181 0.0
C921 C 0.58881 0.56035 0.50286 0.0
C922 C 0.61005 0.56942 0.4918 0.0
H923 H 0.66729 0.52414 0.4506 0.0
H924 H 0.64193 0.52634 0.46856 0.0
H925 H 0.63943 0.52321 0.43715 0.0
H926 H 0.60357 0.53928 0.44067 0.0
H927 H 0.56717 0.52305 0.45996 0.0
H928 H 0.25313 0.31973 0.09432 0.0
H929 H 0.2248 0.33884 0.0729 0.0
H930 H 0.21775 0.38277 0.13259 0.0
H931 H 0.2467 0.36449 0.15366 0.0
H932 H 0.1806 0.33606 0.08724 0.0
H933 H 0.21723 0.42859 0.07979 0.0
H934 H 0.23494 0.40645 0.08678 0.0
H935 H 0.21854 0.41855 0.1095 0.0
C936 C 0.24619 0.33405 0.10254 0.0
C937 C 0.25204 0.34053 0.12575 0.0
C938 C 0.22989 0.34485 0.09033 0.0
C939 C 0.21928 0.36236 0.10105 0.0
C940 C 0.22603 0.36966 0.12374 0.0
H941 H 0.09394 0.41913 0.10255 0.0
H942 H 0.13142 0.40551 0.10831 0.0
C943 C 0.24237 0.35897 0.1359 0.0
C944 C 0.19898 0.37077 0.09011 0.0
H945 H 0.17502 0.41989 0.07919 0.0
C946 C 0.17956 0.35438 0.08492 0.0
C947 C 0.19764 0.39466 0.0871 0.0
C948 C 0.21833 0.41302 0.09086 0.0
C949 C 0.15841 0.36129 0.07823 0.0
C950 C 0.15673 0.38517 0.07662 0.0
C951 C 0.1764 0.40157 0.08067 0.0
C952 C 0.13421 0.39343 0.07265 0.0
C953 C 0.13762 0.34309 0.07417 0.0
C954 C 0.12346 0.39105 0.05068 0.0
C955 C 0.10198 0.39873 0.04735 0.0
C956 C 0.09093 0.40879 0.066 0.0
C957 C 0.10182 0.41109 0.08798 0.0
C958 C 0.12331 0.40354 0.09123 0.0
H959 H 0.1412 0.32536 0.07861 0.0
H960 H 0.12253 0.34689 0.08489 0.0
H961 H 0.13264 0.34341 0.05541 0.0
H962 H 0.13173 0.38335 0.03613 0.0
H963 H 0.09396 0.39669 0.03025 0.0
H964 H 0.64019 0.23484 0.8892 0.0
H965 H 0.62421 0.19851 0.909 0.0
H966 H 0.55734 0.22224 0.91443 0.0
H967 H 0.57302 0.25801 0.89356 0.0
H968 H 0.60824 0.18682 0.94941 0.0
H969 H 0.53475 0.16051 0.89017 0.0
H970 H 0.5568 0.18472 0.88344 0.0
H971 H 0.53271 0.18825 0.90276 0.0
C972 C 0.62202 0.23225 0.89447 0.0
C973 C 0.60789 0.24939 0.88947 0.0
C974 C 0.61282 0.21137 0.90588 0.0
C975 C 0.58924 0.20696 0.91295 0.0
C976 C 0.57529 0.22441 0.90851 0.0
H977 H 0.54077 0.09846 0.01909 0.0
H978 H 0.55642 0.13445 0.99866 0.0
C979 C 0.58436 0.2451 0.89666 0.0
C980 C 0.57958 0.18452 0.92544 0.0
H981 H 0.53381 0.14016 0.92673 0.0
C982 C 0.59202 0.17661 0.94425 0.0
C983 C 0.55859 0.17056 0.91876 0.0
C984 C 0.5451 0.1763 0.89752 0.0
C985 C 0.58413 0.15571 0.95652 0.0
C986 C 0.56249 0.14243 0.95068 0.0
C987 C 0.5502 0.1502 0.93168 0.0
C988 C 0.55251 0.1203 0.96353 0.0
C989 C 0.59968 0.1478 0.97508 0.0
C990 C 0.54386 0.10014 0.95098 0.0
C991 C 0.53418 0.0796 0.96273 0.0
C992 C 0.53306 0.07837 0.98747 0.0
C993 C 0.54163 0.09851 1.00006 0.0
C994 C 0.55085 0.1192 0.98829 0.0
H995 H 0.61821 0.15498 0.97177 0.0
H996 H 0.59468 0.15417 0.99249 0.0
H997 H 0.59823 0.12861 0.97583 0.0
H998 H 0.54469 0.10019 0.93195 0.0
H999 H 0.52778 0.06455 0.95235 0.0
H1000 H 0.91429 0.79928 0.36279 0.0
H1001 H 0.93373 0.83548 0.37997 0.0
H1002 H 0.91112 0.81058 0.44908 0.0
H1003 H 0.89283 0.77427 0.43235 0.0
H1004 H 0.91679 0.86908 0.40405 0.0
H1005 H 0.97772 0.83238 0.46245 0.0
H1006 H 0.96167 0.81537 0.44004 0.0
H1007 H 0.94828 0.81951 0.46814 0.0
C1008 C 0.91385 0.80129 0.3817 0.0
C1009 C 0.90176 0.78361 0.39603 0.0
C1010 C 0.92484 0.82218 0.39153 0.0
C1011 C 0.92432 0.82592 0.416 0.0
C1012 C 0.91241 0.80821 0.43027 0.0
H1013 H 0.96168 0.93971 0.5141 0.0
H1014 H 0.94643 0.90373 0.49398 0.0
C1015 C 0.90155 0.78741 0.42052 0.0
C1016 C 0.93531 0.84849 0.42666 0.0
H1017 H 0.97143 0.87132 0.47065 0.0
C1018 C 0.92895 0.86952 0.41842 0.0
C1019 C 0.95127 0.84941 0.44551 0.0
C1020 C 0.96032 0.82798 0.45438 0.0
C1021 C 0.93737 0.89103 0.42888 0.0
C1022 C 0.95283 0.89181 0.44809 0.0
C1023 C 0.95946 0.87088 0.45611 0.0
C1024 C 0.96214 0.91409 0.46022 0.0
C1025 C 0.92906 0.91272 0.41974 0.0
C1026 C 0.97636 0.93207 0.44818 0.0
C1027 C 0.98527 0.95272 0.45973 0.0
C1028 C 0.98018 0.95606 0.48367 0.0
C1029 C 0.96596 0.93798 0.49568 0.0
C1030 C 0.95722 0.91727 0.48416 0.0
H1031 H 0.91338 0.90872 0.40865 0.0
H1032 H 0.92495 0.92395 0.43447 0.0
H1033 H 0.94305 0.92268 0.40884 0.0
H1034 H 0.98082 0.93005 0.42985 0.0
H1035 H 0.99619 0.96609 0.44982 0.0
H1036 H 0.26769 0.67658 0.66635 0.0
H1037 H 0.29769 0.65757 0.6473 0.0
H1038 H 0.29411 0.69983 0.58534 0.0
H1039 H 0.26491 0.71981 0.60474 0.0
H1040 H 0.30067 0.63284 0.6071 0.0
H1041 H 0.36192 0.71538 0.60274 0.0
H1042 H 0.33493 0.71257 0.61919 0.0
H1043 H 0.33499 0.71607 0.58776 0.0
C1044 C 0.27326 0.68185 0.64866 0.0
C1045 C 0.2642 0.70004 0.63725 0.0
C1046 C 0.2903 0.67084 0.63772 0.0
C1047 C 0.29855 0.67768 0.61513 0.0
C1048 C 0.2884 0.69468 0.60302 0.0
H1049 H 0.41772 0.63505 0.53917 0.0
H1050 H 0.38146 0.6505 0.54821 0.0
C1051 C 0.27147 0.70587 0.61403 0.0
C1052 C 0.31862 0.66781 0.60497 0.0
H1053 H 0.37533 0.68219 0.58739 0.0
C1054 C 0.31694 0.64365 0.60264 0.0
C1055 C 0.3399 0.68194 0.59927 0.0
C1056 C 0.34322 0.7079 0.60254 0.0
C1057 C 0.33605 0.63323 0.59503 0.0
C1058 C 0.35735 0.64734 0.58973 0.0
C1059 C 0.35888 0.67149 0.59139 0.0
C1060 C 0.3787 0.63731 0.5839 0.0
C1061 C 0.33341 0.6072 0.59287 0.0
C1062 C 0.38919 0.62505 0.60107 0.0
C1063 C 0.4099 0.61639 0.59604 0.0
C1064 C 0.42047 0.61979 0.5737 0.0
C1065 C 0.40986 0.63202 0.55648 0.0
C1066 C 0.38922 0.64088 0.56161 0.0
H1067 H 0.31484 0.59934 0.59225 0.0
H1068 H 0.3425 0.60214 0.57685 0.0
H1069 H 0.34139 0.59988 0.60834 0.0
H1070 H 0.38147 0.62241 0.61848 0.0
H1071 H 0.41753 0.60683 0.60958 0.0
H1072 H 0.75587 0.80533 0.7084 0.0
H1073 H 0.78255 0.82551 0.67883 0.0
H1074 H 0.77824 0.8906 0.71319 0.0
H1075 H 0.75172 0.87069 0.74268 0.0
H1076 H 0.77605 0.8933 0.66435 0.0
H1077 H 0.85065 0.85012 0.69311 0.0
H1078 H 0.82498 0.83115 0.68462 0.0
H1079 H 0.82418 0.84887 0.71027 0.0
C1080 C 0.76053 0.82396 0.70954 0.0
C1081 C 0.75172 0.83641 0.72789 0.0
C1082 C 0.7758 0.83543 0.6927 0.0
C1083 C 0.78265 0.85947 0.6941 0.0
C1084 C 0.77318 0.87202 0.71183 0.0
H1085 H 0.879 0.97088 0.6401 0.0
H1086 H 0.84948 0.94389 0.66079 0.0
C1087 C 0.75789 0.86062 0.72858 0.0
C1088 C 0.8002 0.87173 0.67764 0.0
H1089 H 0.85789 0.87777 0.66261 0.0
C1090 C 0.79389 0.88977 0.66379 0.0
C1091 C 0.82346 0.86705 0.677 0.0
C1092 C 0.83138 0.84838 0.69214 0.0
C1093 C 0.81034 0.90362 0.64969 0.0
C1094 C 0.83371 0.89942 0.64965 0.0
C1095 C 0.8399 0.88086 0.66276 0.0
C1096 C 0.85219 0.91522 0.63741 0.0
C1097 C 0.80272 0.9229 0.63522 0.0
C1098 C 0.86392 0.90775 0.61784 0.0
C1099 C 0.88073 0.9232 0.60584 0.0
C1100 C 0.88614 0.94629 0.61338 0.0
C1101 C 0.87487 0.95337 0.63353 0.0
C1102 C 0.85805 0.93799 0.64541 0.0
H1103 H 0.78358 0.92032 0.63268 0.0
H1104 H 0.80758 0.93962 0.64439 0.0
H1105 H 0.81149 0.92419 0.61771 0.0
H1106 H 0.85967 0.89015 0.61155 0.0
H1107 H 0.88899 0.91725 0.5903 0.0
H1108 H 0.74909 0.23599 0.19429 0.0
H1109 H 0.72746 0.21175 0.16441 0.0
H1110 H 0.74262 0.15029 0.20005 0.0
H1111 H 0.76375 0.17415 0.23013 0.0
H1112 H 0.74208 0.16792 0.13561 0.0
H1113 H 0.66773 0.15313 0.19921 0.0
H1114 H 0.68975 0.17833 0.20051 0.0
H1115 H 0.69621 0.15065 0.21025 0.0
C1116 C 0.74804 0.21732 0.19559 0.0
C1117 C 0.75805 0.20701 0.21466 0.0
C1118 C 0.73586 0.20355 0.17844 0.0
C1119 C 0.7335 0.17933 0.18016 0.0
C1120 C 0.7444 0.16901 0.19845 0.0
H1121 H 0.64289 0.06338 0.12727 0.0
H1122 H 0.67303 0.08964 0.1467 0.0
C1123 C 0.75657 0.1827 0.21555 0.0
C1124 C 0.71761 0.16465 0.16452 0.0
H1125 H 0.66434 0.13142 0.16433 0.0
C1126 C 0.72501 0.16001 0.14171 0.0
C1127 C 0.69542 0.1545 0.17269 0.0
C1128 C 0.68661 0.15942 0.19694 0.0
C1129 C 0.71088 0.14474 0.127 0.0
C1130 C 0.68881 0.13426 0.13536 0.0
C1131 C 0.68134 0.13938 0.15802 0.0
C1132 C 0.67316 0.11745 0.12134 0.0
C1133 C 0.71994 0.1394 0.10299 0.0
C1134 C 0.66358 0.1242 0.1003 0.0
C1135 C 0.64647 0.10904 0.08889 0.0
C1136 C 0.63851 0.08695 0.09847 0.0
C1137 C 0.64881 0.08004 0.11912 0.0
C1138 C 0.66594 0.09512 0.13039 0.0
H1139 H 0.73907 0.14453 0.10138 0.0
H1140 H 0.71572 0.12062 0.09911 0.0
H1141 H 0.71152 0.14913 0.08951 0.0
H1142 H 0.66863 0.14149 0.09321 0.0
H1143 H 0.63908 0.11483 0.07291 0.0
H1144 H 0.40265 0.6515 0.31447 0.0
H1145 H 0.42092 0.63592 0.34861 0.0
H1146 H 0.40036 0.56651 0.3235 0.0
H1147 H 0.38293 0.58185 0.28907 0.0
H1148 H 0.40309 0.60756 0.38449 0.0
H1149 H 0.46748 0.56337 0.33678 0.0
H1150 H 0.45135 0.58361 0.32248 0.0
H1151 H 0.43827 0.55404 0.32745 0.0
C1152 C 0.4023 0.63292 0.31592 0.0
C1153 C 0.39112 0.61811 0.29864 0.0
C1154 C 0.41267 0.62396 0.3357 0.0
C1155 C 0.4125 0.5999 0.3388 0.0
C1156 C 0.40135 0.58512 0.32159 0.0
H1157 H 0.46083 0.50929 0.44721 0.0
H1158 H 0.44329 0.52557 0.41298 0.0
C1159 C 0.39099 0.59402 0.30188 0.0
C1160 C 0.4233 0.59021 0.36019 0.0
H1161 H 0.46202 0.55413 0.37747 0.0
C1162 C 0.41611 0.59602 0.38286 0.0
C1163 C 0.44031 0.57498 0.35848 0.0
C1164 C 0.45 0.56879 0.33501 0.0
C1165 C 0.42485 0.58676 0.40349 0.0
C1166 C 0.44179 0.57146 0.40177 0.0
C1167 C 0.44903 0.5657 0.37911 0.0
C1168 C 0.45232 0.56143 0.42314 0.0
C1169 C 0.41526 0.593 0.42699 0.0
C1170 C 0.46364 0.5759 0.44052 0.0
C1171 C 0.47369 0.56659 0.46022 0.0
C1172 C 0.47296 0.54242 0.46324 0.0
C1173 C 0.46174 0.52793 0.44576 0.0
C1174 C 0.4517 0.53729 0.42601 0.0
H1175 H 0.39795 0.59883 0.42523 0.0
H1176 H 0.41356 0.57806 0.43939 0.0
H1177 H 0.42725 0.60746 0.4347 0.0
H1178 H 0.46504 0.59456 0.43873 0.0
H1179 H 0.48224 0.57847 0.47304 0.0
H1180 H 0.10032 0.37014 0.81892 0.0
H1181 H 0.08574 0.38956 0.85281 0.0
H1182 H 0.11027 0.45601 0.82119 0.0
H1183 H 0.12417 0.43673 0.78679 0.0
H1184 H 0.10733 0.41885 0.88509 0.0
H1185 H 0.04451 0.46492 0.8378 0.0
H1186 H 0.05824 0.44236 0.82425 0.0
H1187 H 0.07374 0.47127 0.82657 0.0
C1188 C 0.10237 0.3889 0.81887 0.0
C1189 C 0.11336 0.40167 0.79965 0.0
C1190 C 0.09412 0.40006 0.83851 0.0
C1191 C 0.09637 0.42441 0.83968 0.0
C1192 C 0.10769 0.43725 0.82075 0.0
H1193 H 0.05291 0.52015 0.94673 0.0
H1194 H 0.07 0.50319 0.91237 0.0
C1195 C 0.11598 0.4261 0.80107 0.0
C1196 C 0.0873 0.43616 0.86084 0.0
H1197 H 0.0505 0.47437 0.87795 0.0
C1198 C 0.09485 0.43093 0.88344 0.0
C1199 C 0.07103 0.45211 0.85905 0.0
C1200 C 0.06121 0.45788 0.83566 0.0
C1201 C 0.08693 0.44122 0.90394 0.0
C1202 C 0.07048 0.45698 0.90217 0.0
C1203 C 0.06309 0.46239 0.87957 0.0
C1204 C 0.06032 0.46751 0.92351 0.0
C1205 C 0.09676 0.43541 0.92732 0.0
C1206 C 0.04883 0.45336 0.94142 0.0
C1207 C 0.03907 0.46304 0.96115 0.0
C1208 C 0.04027 0.48727 0.96366 0.0
C1209 C 0.05168 0.50147 0.94566 0.0
C1210 C 0.06144 0.49173 0.92586 0.0
H1211 H 0.11394 0.42932 0.92516 0.0
H1212 H 0.09881 0.45063 0.93917 0.0
H1213 H 0.08474 0.42124 0.9359 0.0
H1214 H 0.04706 0.43467 0.94003 0.0
H1215 H 0.03037 0.45138 0.9744 0.0
H1216 H 0.66132 0.84225 0.93692 0.0
H1217 H 0.63974 0.87029 0.9563 0.0
H1218 H 0.5906 0.86414 0.89966 0.0
H1219 H 0.61204 0.83613 0.88016 0.0
H1220 H 0.62753 0.91455 0.92637 0.0
H1221 H 0.5548 0.85567 0.96911 0.0
H1222 H 0.58316 0.84702 0.96428 0.0
H1223 H 0.56424 0.84902 0.93992 0.0
C1224 C 0.64567 0.84656 0.92884 0.0
C1225 C 0.63832 0.83706 0.90705 0.0
C1226 C 0.63349 0.86263 0.93984 0.0
C1227 C 0.61367 0.86914 0.92934 0.0
C1228 C 0.60587 0.85919 0.90798 0.0
H1229 H 0.51253 0.95806 0.96586 0.0
H1230 H 0.53457 0.92943 0.94878 0.0
C1231 C 0.61813 0.8433 0.89687 0.0
C1232 C 0.6018 0.88734 0.93994 0.0
H1233 H 0.55347 0.89585 0.97134 0.0
C1234 C 0.6114 0.91057 0.93634 0.0
C1235 C 0.58074 0.88189 0.95265 0.0
C1236 C 0.57001 0.85707 0.9569 0.0
C1237 C 0.60016 0.92868 0.94484 0.0
C1238 C 0.57908 0.92328 0.95774 0.0
C1239 C 0.56962 0.89995 0.96145 0.0
C1240 C 0.56632 0.9415 0.96729 0.0
C1241 C 0.61058 0.95337 0.93925 0.0
C1242 C 0.5769 0.95787 0.98331 0.0
C1243 C 0.56442 0.97445 0.9929 0.0
C1244 C 0.54103 0.97468 0.98694 0.0
C1245 C 0.53053 0.95834 0.97082 0.0
C1246 C 0.54307 0.94193 0.96107 0.0
H1247 H 0.6227 0.95433 0.92391 0.0
H1248 H 0.59684 0.96426 0.93549 0.0
H1249 H 0.6206 0.9608 0.9546 0.0
H1250 H 0.59464 0.95751 0.98878 0.0
H1251 H 0.57292 0.98664 1.00548 0.0
H1252 H 0.91772 0.19553 0.34889 0.0
H1253 H 0.94048 0.17056 0.37085 0.0
H1254 H 0.89079 0.16649 0.4281 0.0
H1255 H 0.86762 0.19101 0.40613 0.0
H1256 H 0.94101 0.17322 0.44078 0.0
H1257 H 0.91405 0.0997 0.38028 0.0
H1258 H 0.9261 0.12686 0.36685 0.0
H1259 H 0.89871 0.1245 0.38222 0.0
C1260 C 0.91165 0.1894 0.36619 0.0
C1261 C 0.8907 0.19508 0.37564 0.0
C1262 C 0.92472 0.17521 0.37871 0.0
C1263 C 0.91712 0.16651 0.40092 0.0
C1264 C 0.8969 0.17306 0.41095 0.0
H1265 H 0.94573 0.04856 0.48067 0.0
H1266 H 0.92902 0.07819 0.4587 0.0
C1267 C 0.88376 0.18718 0.39841 0.0
C1268 C 0.92942 0.14945 0.41311 0.0
H1269 H 0.93975 0.09328 0.41059 0.0
C1270 C 0.9409 0.15578 0.43416 0.0
C1271 C 0.92894 0.12668 0.40447 0.0
C1272 C 0.91618 0.11884 0.38231 0.0
C1273 C 0.952 0.13984 0.44685 0.0
C1274 C 0.95161 0.1171 0.43813 0.0
C1275 C 0.94013 0.1108 0.41708 0.0
C1276 C 0.96208 0.09923 0.45117 0.0
C1277 C 0.96354 0.14718 0.46977 0.0
C1278 C 0.98625 0.10113 0.45387 0.0
C1279 C 0.99591 0.08415 0.46634 0.0
C1280 C 0.98152 0.06501 0.47632 0.0
C1281 C 0.95732 0.06308 0.47328 0.0
C1282 C 0.94772 0.07998 0.46073 0.0
H1283 H 0.95878 0.16392 0.47608 0.0
H1284 H 0.95868 0.13373 0.48354 0.0
H1285 H 0.98271 0.14924 0.46732 0.0
H1286 H 0.99762 0.11572 0.44632 0.0
H1287 H 0.01462 0.08616 0.46834 0.0
H1288 H 0.22574 0.65063 0.13495 0.0
H1289 H 0.19075 0.63097 0.11645 0.0
H1290 H 0.21328 0.56488 0.1299 0.0
H1291 H 0.2487 0.58456 0.14836 0.0
H1292 H 0.18702 0.60365 0.07717 0.0
H1293 H 0.14604 0.55268 0.15318 0.0
H1294 H 0.1697 0.5761 0.15654 0.0
H1295 H 0.17538 0.54823 0.14652 0.0
C1296 C 0.22344 0.63189 0.13399 0.0
C1297 C 0.24045 0.61933 0.14311 0.0
C1298 C 0.20321 0.62061 0.12342 0.0
C1299 C 0.19902 0.59631 0.12176 0.0
C1300 C 0.21569 0.58359 0.13123 0.0
H1301 H 0.08119 0.50473 0.05816 0.0
H1302 H 0.11787 0.51987 0.07735 0.0
C1303 C 0.23605 0.59492 0.14185 0.0
C1304 C 0.17769 0.58473 0.10927 0.0
H1305 H 0.12744 0.54635 0.11652 0.0
C1306 C 0.17403 0.59112 0.08586 0.0
C1307 C 0.16062 0.56817 0.12031 0.0
C1308 C 0.16292 0.56097 0.14558 0.0
C1309 C 0.15409 0.58159 0.07332 0.0
C1310 C 0.13671 0.56547 0.08452 0.0
C1311 C 0.14056 0.5587 0.10779 0.0
C1312 C 0.11424 0.55605 0.0726 0.0
C1313 C 0.15212 0.58865 0.04795 0.0
C1314 C 0.09952 0.57112 0.06363 0.0
C1315 C 0.07856 0.5625 0.05253 0.0
C1316 C 0.07142 0.53846 0.05018 0.0
C1317 C 0.08604 0.52333 0.0594 0.0
C1318 C 0.10708 0.532 0.07051 0.0
H1319 H 0.16948 0.59478 0.03997 0.0
H1320 H 0.14343 0.57406 0.03732 0.0
H1321 H 0.14169 0.60316 0.04697 0.0
H1322 H 0.10409 0.58969 0.06544 0.0
H1323 H 0.06782 0.57481 0.04597 0.0
H1324 H 0.26571 0.45169 0.6512 0.0
H1325 H 0.3015 0.46771 0.63023 0.0
H1326 H 0.31749 0.39866 0.61874 0.0
H1327 H 0.2819 0.38249 0.63982 0.0
H1328 H 0.34738 0.46489 0.63904 0.0
H1329 H 0.32443 0.4251 0.55267 0.0
H1330 H 0.30331 0.42558 0.5761 0.0
H1331 H 0.32298 0.40436 0.57626 0.0
C1332 C 0.27685 0.43983 0.64437 0.0
C1333 C 0.27058 0.41566 0.64725 0.0
C1334 C 0.29735 0.44907 0.63222 0.0
C1335 C 0.31219 0.43449 0.6224 0.0
C1336 C 0.30617 0.41039 0.62549 0.0
H1337 H 0.44522 0.45426 0.54596 0.0
H1338 H 0.40868 0.43934 0.56616 0.0
C1339 C 0.28568 0.40112 0.63763 0.0
C1340 C 0.33414 0.44447 0.60945 0.0
H1341 H 0.36348 0.44323 0.55692 0.0
C1342 C 0.35079 0.46024 0.62103 0.0
C1343 C 0.33883 0.43851 0.5859 0.0
C1344 C 0.32137 0.42264 0.57189 0.0
C1345 C 0.37202 0.46967 0.61004 0.0
C1346 C 0.37676 0.46362 0.58652 0.0
C1347 C 0.36005 0.44794 0.57491 0.0
C1348 C 0.39901 0.47305 0.57378 0.0
C1349 C 0.3895 0.48548 0.62408 0.0
C1350 C 0.40586 0.49707 0.57076 0.0
C1351 C 0.42689 0.50572 0.55917 0.0
C1352 C 0.44163 0.49059 0.55008 0.0
C1353 C 0.43447 0.46654 0.55269 0.0
C1354 C 0.41347 0.45792 0.56429 0.0
H1355 H 0.38624 0.48324 0.6433 0.0
H1356 H 0.40753 0.48227 0.62012 0.0
H1357 H 0.38817 0.50377 0.61948 0.0
H1358 H 0.39489 0.50922 0.57731 0.0
H1359 H 0.43162 0.52432 0.55747 0.0
H1360 H 0.80915 0.71241 0.86008 0.0
H1361 H 0.83436 0.68959 0.88115 0.0
H1362 H 0.77687 0.6611 0.92595 0.0
H1363 H 0.75108 0.68355 0.90442 0.0
H1364 H 0.82139 0.67969 0.94919 0.0
H1365 H 0.83128 0.61713 0.87786 0.0
H1366 H 0.83525 0.64694 0.86844 0.0
H1367 H 0.80728 0.63372 0.87933 0.0
C1368 C 0.80166 0.70098 0.8741 0.0
C1369 C 0.77798 0.69954 0.88032 0.0
C1370 C 0.81615 0.68806 0.8862 0.0
C1371 C 0.80734 0.67349 0.90482 0.0
C1372 C 0.78387 0.67221 0.91148 0.0
H1373 H 0.8992 0.58035 0.96005 0.0
H1374 H 0.86392 0.59533 0.94793 0.0
C1375 C 0.76923 0.68509 0.89924 0.0
C1376 C 0.82312 0.66008 0.9174 0.0
H1377 H 0.85987 0.6203 0.90803 0.0
C1378 C 0.82955 0.6664 0.94042 0.0
C1379 C 0.83347 0.64261 0.90594 0.0
C1380 C 0.82635 0.6345 0.8816 0.0
C1381 C 0.84712 0.65654 0.95183 0.0
C1382 C 0.85861 0.64024 0.9397 0.0
C1383 C 0.8512 0.63299 0.9172 0.0
C1384 C 0.87921 0.63138 0.94935 0.0
C1385 C 0.85344 0.6639 0.97659 0.0
C1386 C 0.8995 0.64672 0.95413 0.0
C1387 C 0.91966 0.63824 0.96119 0.0
C1388 C 0.91993 0.61424 0.96343 0.0
C1389 C 0.89948 0.59895 0.95885 0.0
C1390 C 0.87933 0.60745 0.95182 0.0
H1391 H 0.83874 0.67051 0.98575 0.0
H1392 H 0.85857 0.64931 0.98699 0.0
H1393 H 0.86836 0.67811 0.976 0.0
H1394 H 0.89993 0.66524 0.95181 0.0
H1395 H 0.93507 0.65046 0.96477 0.0
H1396 H 0.36794 0.78879 0.14044 0.0
H1397 H 0.38302 0.82467 0.11968 0.0
H1398 H 0.45274 0.81618 0.13932 0.0
H1399 H 0.43802 0.7796 0.15892 0.0
H1400 H 0.40498 0.865 0.13313 0.0
H1401 H 0.46408 0.82871 0.07116 0.0
H1402 H 0.4432 0.81049 0.08926 0.0
H1403 H 0.47071 0.82314 0.10117 0.0
C1404 C 0.38656 0.79417 0.14004 0.0
C1405 C 0.40162 0.78073 0.1514 0.0
C1406 C 0.3952 0.81501 0.12825 0.0
C1407 C 0.4192 0.82324 0.12731 0.0
C1408 C 0.43423 0.81016 0.13903 0.0
H1409 H 0.5056 0.9487 0.0738 0.0
H1410 H 0.48953 0.91223 0.09317 0.0
C1411 C 0.42565 0.78923 0.15069 0.0
C1412 C 0.42833 0.84566 0.11461 0.0
H1413 H 0.46844 0.86994 0.0735 0.0
C1414 C 0.41873 0.86593 0.11997 0.0
C1415 C 0.4463 0.84726 0.09725 0.0
C1416 C 0.45651 0.8262 0.08918 0.0
C1417 C 0.42686 0.88752 0.10908 0.0
C1418 C 0.44506 0.88915 0.09204 0.0
C1419 C 0.45459 0.86891 0.08658 0.0
C1420 C 0.45468 0.91168 0.07999 0.0
C1421 C 0.41628 0.9086 0.11638 0.0
C1422 C 0.44068 0.92374 0.06571 0.0
C1423 C 0.44991 0.94471 0.05441 0.0
C1424 C 0.47344 0.95433 0.05709 0.0
C1425 C 0.48741 0.94211 0.0713 0.0
C1426 C 0.47822 0.92109 0.08242 0.0
H1427 H 0.40652 0.90574 0.1333 0.0
H1428 H 0.4299 0.92391 0.11816 0.0
H1429 H 0.40396 0.91265 0.1027 0.0
H1430 H 0.42259 0.91681 0.06308 0.0
H1431 H 0.43855 0.95339 0.04357 0.0
H1432 H 0.08091 0.25428 0.65165 0.0
H1433 H 0.06273 0.21752 0.63454 0.0
H1434 H 0.13059 0.19884 0.61996 0.0
H1435 H 0.1487 0.23477 0.6377 0.0
H1436 H 0.06501 0.20091 0.59016 0.0
H1437 H 0.1002 0.13987 0.65004 0.0
H1438 H 0.10201 0.17038 0.65636 0.0
H1439 H 0.12283 0.1601 0.63678 0.0
C1440 C 0.09197 0.24216 0.64523 0.0
C1441 C 0.11639 0.24779 0.64611 0.0
C1442 C 0.08153 0.22113 0.63523 0.0
C1443 C 0.09516 0.20498 0.6261 0.0
C1444 C 0.11949 0.21052 0.62722 0.0
H1445 H 0.07291 0.07509 0.54684 0.0
H1446 H 0.08864 0.11089 0.56713 0.0
C1447 C 0.12989 0.23141 0.63717 0.0
C1448 C 0.08421 0.18286 0.61457 0.0
H1449 H 0.08401 0.12391 0.6142 0.0
C1450 C 0.06901 0.18408 0.59563 0.0
C1451 C 0.08932 0.16068 0.62145 0.0
C1452 C 0.10429 0.1576 0.64242 0.0
C1453 C 0.05946 0.1641 0.58312 0.0
C1454 C 0.06488 0.14199 0.58979 0.0
C1455 C 0.07988 0.14073 0.60885 0.0
C1456 C 0.05513 0.12002 0.57731 0.0
C1457 C 0.04418 0.16696 0.56235 0.0
C1458 C 0.03099 0.11278 0.57637 0.0
C1459 C 0.02191 0.09221 0.56482 0.0
C1460 C 0.03669 0.07815 0.55385 0.0
C1461 C 0.0609 0.08535 0.55497 0.0
C1462 C 0.06996 0.1059 0.56664 0.0
H1463 H 0.04663 0.18513 0.55571 0.0
H1464 H 0.04779 0.15536 0.54775 0.0
H1465 H 0.02568 0.16234 0.56776 0.0
H1466 H 0.01906 0.12294 0.5848 0.0
H1467 H 1.00321 0.08735 0.56452 0.0
H1468 H 0.70831 0.29702 0.37784 0.0
H1469 H 0.67973 0.31848 0.39623 0.0
H1470 H 0.73511 0.36831 0.423 0.0
H1471 H 0.76399 0.3469 0.40447 0.0
H1472 H 0.67856 0.33237 0.4483 0.0
H1473 H 0.68906 0.40479 0.38285 0.0
H1474 H 0.6967 0.3766 0.37587 0.0
H1475 H 0.71471 0.39548 0.3951 0.0
C1476 C 0.71442 0.3126 0.38755 0.0
C1477 C 0.73837 0.32041 0.38957 0.0
C1478 C 0.69809 0.32474 0.39814 0.0
C1479 C 0.70537 0.34499 0.41079 0.0
C1480 C 0.72923 0.35274 0.41317 0.0
H1481 H 0.61609 0.44217 0.46435 0.0
H1482 H 0.65001 0.42389 0.45347 0.0
C1483 C 0.74565 0.34047 0.4027 0.0
C1484 C 0.68775 0.35799 0.42116 0.0
H1485 H 0.66016 0.40511 0.41201 0.0
C1486 C 0.67462 0.34839 0.44055 0.0
C1487 C 0.68284 0.3789 0.41101 0.0
C1488 C 0.69643 0.38965 0.38999 0.0
C1489 C 0.65638 0.35904 0.44993 0.0
C1490 C 0.65077 0.37945 0.43916 0.0
C1491 C 0.66441 0.38941 0.42017 0.0
C1492 C 0.63027 0.39026 0.44667 0.0
C1493 C 0.6434 0.34835 0.47134 0.0
C1494 C 0.60788 0.37749 0.44624 0.0
C1495 C 0.58848 0.38779 0.45273 0.0
C1496 C 0.59104 0.41119 0.4595 0.0
C1497 C 0.6135 0.42401 0.45965 0.0
C1498 C 0.63291 0.41364 0.45328 0.0
H1499 H 0.65426 0.33782 0.48169 0.0
H1500 H 0.63778 0.36183 0.48295 0.0
H1501 H 0.6277 0.33666 0.46566 0.0
H1502 H 0.60535 0.35957 0.44065 0.0
H1503 H 0.57149 0.37734 0.45258 0.0
loop_
_geom_bond_atom_site_label_1
_geom_bond_atom_site_label_2
_geom_bond_distance
_geom_bond_site_symmetry_2
_ccdc_geom_bond_type
C0 C1 1.391 . S
C0 C4 1.391 . S
C0 H42 0.948 . S
C1 C0 1.391 . S
C1 C2 1.391 . S
C2 C1 1.391 . S
C2 H58 0.947 . S
C2 C59 1.392 . S
C3 C4 1.391 . S
C3 C7 1.397 . S
C3 C59 1.419 . S
C4 C0 1.391 . S
C4 C3 1.391 . S
C4 C5 1.399 . S
C5 C4 1.399 . S
C5 C8 1.396 . S
C5 C17 1.453 . S
C5 C18 1.684 . S
H6 C30 0.948 . S
C7 C3 1.397 . S
C7 C8 1.394 . S
C7 C26 1.723 . S
C8 C5 1.396 . S
C8 C7 1.394 . S
C8 C38 1.723 . S
H9 C32 0.947 . S
H10 C33 0.948 . S
H11 C39 0.982 . S
H12 C40 0.979 . S
H13 C40 0.980 . S
H14 C40 0.983 . S
H15 C39 0.979 . S
H16 C39 0.977 . S
C17 C5 1.453 . S
C17 H46 0.982 . S
C17 H47 0.979 . S
C17 H48 0.977 . S
C18 C5 1.684 . S
C18 H43 0.979 . S
C18 H44 0.980 . S
C18 H45 0.983 . S
C19 C20 1.391 . S
C19 C24 1.391 . S
C19 H49 0.948 . S
C20 C19 1.391 . S
C20 C21 1.391 . S
C21 C20 1.391 . S
C21 C22 1.392 . S
C21 H50 0.947 . S
C22 C21 1.392 . S
C22 C23 1.419 . S
C22 H51 0.948 . S
C23 C22 1.419 . S
C23 C24 1.391 . S
C23 C27 1.397 . S
C24 C19 1.391 . S
C24 C23 1.391 . S
C24 C25 1.399 . S
C25 C24 1.399 . S
C25 C26 1.396 . S
C25 C28 1.453 . S
C25 C29 1.684 . S
C26 C7 1.723 . S
C26 C25 1.396 . S
C26 C27 1.394 . S
C27 C23 1.397 . S
C27 C26 1.394 . S
C27 C37 1.723 . S
C28 C25 1.453 . S
C28 H52 0.982 . S
C28 H53 0.979 . S
C28 H54 0.977 . S
C29 C25 1.684 . S
C29 H55 0.979 . S
C29 H56 0.980 . S
C29 H57 0.983 . S
C30 H6 0.948 . S
C30 C31 1.391 . S
C30 C35 1.391 . S
C31 C30 1.391 . S
C31 C32 1.391 . S
C32 H9 0.947 . S
C32 C31 1.391 . S
C32 C33 1.392 . S
C33 H10 0.948 . S
C33 C32 1.392 . S
C33 C34 1.419 . S
C34 C33 1.419 . S
C34 C35 1.391 . S
C34 C38 1.397 . S
C35 C30 1.391 . S
C35 C34 1.391 . S
C35 C36 1.399 . S
C36 C35 1.399 . S
C36 C37 1.396 . S
C36 C39 1.453 . S
C36 C40 1.684 . S
C37 C27 1.723 . S
C37 C36 1.396 . S
C37 C38 1.394 . S
C38 C8 1.723 . S
C38 C34 1.397 . S
C38 C37 1.394 . S
C39 H11 0.982 . S
C39 H15 0.979 . S
C39 H16 0.977 . S
C39 C36 1.453 . S
C40 H12 0.979 . S
C40 H13 0.980 . S
C40 H14 0.983 . S
C40 C36 1.684 . S
H41 C59 0.948 . S
H42 C0 0.948 . S
H43 C18 0.979 . S
H44 C18 0.980 . S
H45 C18 0.983 . S
H46 C17 0.982 . S
H47 C17 0.979 . S
H48 C17 0.977 . S
H49 C19 0.948 . S
H50 C21 0.947 . S
H51 C22 0.948 . S
H52 C28 0.982 . S
H53 C28 0.979 . S
H54 C28 0.977 . S
H55 C29 0.979 . S
H56 C29 0.980 . S
H57 C29 0.983 . S
H58 C2 0.947 . S
C59 C2 1.392 . S
C59 C3 1.419 . S
C59 H41 0.948 . S
C60 C61 1.391 . S
C60 C64 1.391 . S
C60 H102 0.948 . S
C61 C60 1.391 . S
C61 C62 1.391 . S
C62 C61 1.391 . S
C62 H118 0.947 . S
C62 C119 1.392 . S
C63 C64 1.391 . S
C63 C67 1.397 . S
C63 C119 1.419 . S
C64 C60 1.391 . S
C64 C63 1.391 . S
C64 C65 1.399 . S
C65 C64 1.399 . S
C65 C68 1.396 . S
C65 C77 1.453 . S
C65 C78 1.684 . S
H66 C90 0.948 . S
C67 C63 1.397 . S
C67 C68 1.394 . S
C67 C86 1.723 . S
C68 C65 1.396 . S
C68 C67 1.394 . S
C68 C98 1.723 . S
H69 C92 0.947 . S
H70 C93 0.948 . S
H71 C99 0.982 . S
H72 C100 0.979 . S
H73 C100 0.980 . S
H74 C100 0.983 . S
H75 C99 0.979 . S
H76 C99 0.977 . S
C77 C65 1.453 . S
C77 H106 0.982 . S
C77 H107 0.979 . S
C77 H108 0.977 . S
C78 C65 1.684 . S
C78 H103 0.979 . S
C78 H104 0.980 . S
C78 H105 0.983 . S
C79 C80 1.391 . S
C79 C84 1.391 . S
C79 H109 0.948 . S
C80 C79 1.391 . S
C80 C81 1.391 . S
C81 C80 1.391 . S
C81 C82 1.392 . S
C81 H110 0.947 . S
C82 C81 1.392 . S
C82 C83 1.419 . S
C82 H111 0.948 . S
C83 C82 1.419 . S
C83 C84 1.391 . S
C83 C87 1.397 . S
C84 C79 1.391 . S
C84 C83 1.391 . S
C84 C85 1.399 . S
C85 C84 1.399 . S
C85 C86 1.396 . S
C85 C88 1.453 . S
C85 C89 1.684 . S
C86 C67 1.723 . S
C86 C85 1.396 . S
C86 C87 1.394 . S
C87 C83 1.397 . S
C87 C86 1.394 . S
C87 C97 1.723 . S
C88 C85 1.453 . S
C88 H112 0.982 . S
C88 H113 0.979 . S
C88 H114 0.977 . S
C89 C85 1.684 . S
C89 H115 0.979 . S
C89 H116 0.980 . S
C89 H117 0.983 . S
C90 H66 0.948 . S
C90 C91 1.391 . S
C90 C95 1.391 . S
C91 C90 1.391 . S
C91 C92 1.391 . S
C92 H69 0.947 . S
C92 C91 1.391 . S
C92 C93 1.392 . S
C93 H70 0.948 . S
C93 C92 1.392 . S
C93 C94 1.419 . S
C94 C93 1.419 . S
C94 C95 1.391 . S
C94 C98 1.397 . S
C95 C90 1.391 . S
C95 C94 1.391 . S
C95 C96 1.399 . S
C96 C95 1.399 . S
C96 C97 1.396 . S
C96 C99 1.453 . S
C96 C100 1.684 . S
C97 C87 1.723 . S
C97 C96 1.396 . S
C97 C98 1.394 . S
C98 C68 1.723 . S
C98 C94 1.397 . S
C98 C97 1.394 . S
C99 H71 0.982 . S
C99 H75 0.979 . S
C99 H76 0.977 . S
C99 C96 1.453 . S
C100 H72 0.979 . S
C100 H73 0.980 . S
C100 H74 0.983 . S
C100 C96 1.684 . S
H101 C119 0.948 . S
H102 C60 0.948 . S
H103 C78 0.979 . S
H104 C78 0.980 . S
H105 C78 0.983 . S
H106 C77 0.982 . S
H107 C77 0.979 . S
H108 C77 0.977 . S
H109 C79 0.948 . S
H110 C81 0.947 . S
H111 C82 0.948 . S
H112 C88 0.982 . S
H113 C88 0.979 . S
H114 C88 0.977 . S
H115 C89 0.979 . S
H116 C89 0.980 . S
H117 C89 0.983 . S
H118 C62 0.947 . S
C119 C62 1.392 . S
C119 C63 1.419 . S
C119 H101 0.948 . S
C120 C121 1.391 . S
C120 C124 1.391 . S
C120 H162 0.948 . S
C121 C120 1.391 . S
C121 C122 1.391 . S
C122 C121 1.391 . S
C122 H178 0.947 . S
C122 C179 1.392 . S
C123 C124 1.391 . S
C123 C127 1.397 . S
C123 C179 1.419 . S
C124 C120 1.391 . S
C124 C123 1.391 . S
C124 C125 1.399 . S
C125 C124 1.399 . S
C125 C128 1.396 . S
C125 C137 1.453 . S
C125 C138 1.684 . S
H126 C150 0.948 . S
C127 C123 1.397 . S
C127 C128 1.394 . S
C127 C146 1.723 . S
C128 C125 1.396 . S
C128 C127 1.394 . S
C128 C158 1.723 . S
H129 C152 0.947 . S
H130 C153 0.948 . S
H131 C159 0.982 . S
H132 C160 0.979 . S
H133 C160 0.980 . S
H134 C160 0.983 . S
H135 C159 0.979 . S
H136 C159 0.977 . S
C137 C125 1.453 . S
C137 H166 0.982 . S
C137 H167 0.979 . S
C137 H168 0.977 . S
C138 C125 1.684 . S
C138 H163 0.979 . S
C138 H164 0.980 . S
C138 H165 0.983 . S
C139 C140 1.391 . S
C139 C144 1.391 . S
C139 H169 0.948 . S
C140 C139 1.391 . S
C140 C141 1.391 . S
C141 C140 1.391 . S
C141 C142 1.392 . S
C141 H170 0.947 . S
C142 C141 1.392 . S
C142 C143 1.419 . S
C142 H171 0.948 . S
C143 C142 1.419 . S
C143 C144 1.391 . S
C143 C147 1.397 . S
C144 C139 1.391 . S
C144 C143 1.391 . S
C144 C145 1.399 . S
C145 C144 1.399 . S
C145 C146 1.396 . S
C145 C148 1.453 . S
C145 C149 1.684 . S
C146 C127 1.723 . S
C146 C145 1.396 . S
C146 C147 1.394 . S
C147 C143 1.397 . S
C147 C146 1.394 . S
C147 C157 1.723 . S
C148 C145 1.453 . S
C148 H172 0.982 . S
C148 H173 0.979 . S
C148 H174 0.977 . S
C149 C145 1.684 . S
C149 H175 0.979 . S
C149 H176 0.980 . S
C149 H177 0.983 . S
C150 H126 0.948 . S
C150 C151 1.391 . S
C150 C155 1.391 . S
C151 C150 1.391 . S
C151 C152 1.391 . S
C152 H129 0.947 . S
C152 C151 1.391 . S
C152 C153 1.392 . S
C153 H130 0.948 . S
C153 C152 1.392 . S
C153 C154 1.419 . S
C154 C153 1.419 . S
C154 C155 1.391 . S
C154 C158 1.397 . S
C155 C150 1.391 . S
C155 C154 1.391 . S
C155 C156 1.399 . S
C156 C155 1.399 . S
C156 C157 1.396 . S
C156 C159 1.453 . S
C156 C160 1.684 . S
C157 C147 1.723 . S
C157 C156 1.396 . S
C157 C158 1.394 . S
C158 C128 1.723 . S
C158 C154 1.397 . S
C158 C157 1.394 . S
C159 H131 0.982 . S
C159 H135 0.979 . S
C159 H136 0.977 . S
C159 C156 1.453 . S
C160 H132 0.979 . S
C160 H133 0.980 . S
C160 H134 0.983 . S
C160 C156 1.684 . S
H161 C179 0.948 . S
H162 C120 0.948 . S
H163 C138 0.979 . S
H164 C138 0.980 . S
H165 C138 0.983 . S
H166 C137 0.982 . S
H167 C137 0.979 . S
H168 C137 0.977 . S
H169 C139 0.948 . S
H170 C141 0.947 . S
H171 C142 0.948 . S
H172 C148 0.982 . S
H173 C148 0.979 . S
H174 C148 0.977 . S
H175 C149 0.979 . S
H176 C149 0.980 . S
H177 C149 0.983 . S
H178 C122 0.947 . S
C179 C122 1.392 . S
C179 C123 1.419 . S
C179 H161 0.948 . S
C180 C181 1.391 . S
C180 C184 1.391 . S
C180 H222 0.948 . S
C181 C180 1.391 . S
C181 C182 1.391 . S
C182 C181 1.391 . S
C182 H238 0.947 . S
C182 C239 1.392 . S
C183 C184 1.391 . S
C183 C187 1.397 . S
C183 C239 1.419 . S
C184 C180 1.391 . S
C184 C183 1.391 . S
C184 C185 1.399 . S
C185 C184 1.399 . S
C185 C188 1.396 . S
C185 C197 1.453 . S
C185 C198 1.684 . S
H186 C210 0.948 . S
C187 C183 1.397 . S
C187 C188 1.394 . S
C187 C206 1.723 . S
C188 C185 1.396 . S
C188 C187 1.394 . S
C188 C218 1.723 . S
H189 C212 0.947 . S
H190 C213 0.948 . S
H191 C219 0.982 . S
H192 C220 0.979 . S
H193 C220 0.980 . S
H194 C220 0.983 . S
H195 C219 0.979 . S
H196 C219 0.977 . S
C197 C185 1.453 . S
C197 H226 0.982 . S
C197 H227 0.979 . S
C197 H228 0.977 . S
C198 C185 1.684 . S
C198 H223 0.979 . S
C198 H224 0.980 . S
C198 H225 0.983 . S
C199 C200 1.391 . S
C199 C204 1.391 . S
C199 H229 0.948 . S
C200 C199 1.391 . S
C200 C201 1.391 . S
C201 C200 1.391 . S
C201 C202 1.392 . S
C201 H230 0.947 . S
C202 C201 1.392 . S
C202 C203 1.419 . S
C202 H231 0.948 . S
C203 C202 1.419 . S
C203 C204 1.391 . S
C203 C207 1.397 . S
C204 C199 1.391 . S
C204 C203 1.391 . S
C204 C205 1.399 . S
C205 C204 1.399 . S
C205 C206 1.396 . S
C205 C208 1.453 . S
C205 C209 1.684 . S
C206 C187 1.723 . S
C206 C205 1.396 . S
C206 C207 1.394 . S
C207 C203 1.397 . S
C207 C206 1.394 . S
C207 C217 1.723 . S
C208 C205 1.453 . S
C208 H232 0.982 . S
C208 H233 0.979 . S
C208 H234 0.977 . S
C209 C205 1.684 . S
C209 H235 0.979 . S
C209 H236 0.980 . S
C209 H237 0.983 . S
C210 H186 0.948 . S
C210 C211 1.391 . S
C210 C215 1.391 . S
C211 C210 1.391 . S
C211 C212 1.391 . S
C212 H189 0.947 . S
C212 C211 1.391 . S
C212 C213 1.392 . S
C213 H190 0.948 . S
C213 C212 1.392 . S
C213 C214 1.419 . S
C214 C213 1.419 . S
C214 C215 1.391 . S
C214 C218 1.397 . S
C215 C210 1.391 . S
C215 C214 1.391 . S
C215 C216 1.399 . S
C216 C215 1.399 . S
C216 C217 1.396 . S
C216 C219 1.453 . S
C216 C220 1.684 . S
C217 C207 1.723 . S
C217 C216 1.396 . S
C217 C218 1.394 . S
C218 C188 1.723 . S
C218 C214 1.397 . S
C218 C217 1.394 . S
C219 H191 0.982 . S
C219 H195 0.979 . S
C219 H196 0.977 . S
C219 C216 1.453 . S
C220 H192 0.979 . S
C220 H193 0.980 . S
C220 H194 0.983 . S
C220 C216 1.684 . S
H221 C239 0.948 . S
H222 C180 0.948 . S
H223 C198 0.979 . S
H224 C198 0.980 . S
H225 C198 0.983 . S
H226 C197 0.982 . S
H227 C197 0.979 . S
H228 C197 0.977 . S
H229 C199 0.948 . S
H230 C201 0.947 . S
H231 C202 0.948 . S
H232 C208 0.982 . S
H233 C208 0.979 . S
H234 C208 0.977 . S
H235 C209 0.979 . S
H236 C209 0.980 . S
H237 C209 0.983 . S
H238 C182 0.947 . S
C239 C182 1.392 . S
C239 C183 1.419 . S
C239 H221 0.948 . S
C240 C241 1.391 . S
C240 C244 1.391 . S
C240 H282 0.948 . S
C241 C240 1.391 . S
C241 C242 1.391 . S
C242 C241 1.391 . S
C242 H298 0.947 . S
C242 C299 1.392 . S
C243 C244 1.391 . S
C243 C247 1.397 . S
C243 C299 1.419 . S
C244 C240 1.391 . S
C244 C243 1.391 . S
C244 C245 1.399 . S
C245 C244 1.399 . S
C245 C248 1.396 . S
C245 C257 1.453 . S
C245 C258 1.684 . S
H246 C270 0.948 . S
C247 C243 1.397 . S
C247 C248 1.394 . S
C247 C266 1.723 . S
C248 C245 1.396 . S
C248 C247 1.394 . S
C248 C278 1.723 . S
H249 C272 0.947 . S
H250 C273 0.948 . S
H251 C279 0.982 . S
H252 C280 0.979 . S
H253 C280 0.980 . S
H254 C280 0.983 . S
H255 C279 0.979 . S
H256 C279 0.977 . S
C257 C245 1.453 . S
C257 H286 0.982 . S
C257 H287 0.979 . S
C257 H288 0.977 . S
C258 C245 1.684 . S
C258 H283 0.979 . S
C258 H284 0.980 . S
C258 H285 0.983 . S
C259 C260 1.391 . S
C259 C264 1.391 . S
C259 H289 0.948 . S
C260 C259 1.391 . S
C260 C261 1.391 . S
C261 C260 1.391 . S
C261 C262 1.392 . S
C261 H290 0.947 . S
C262 C261 1.392 . S
C262 C263 1.419 . S
C262 H291 0.948 . S
C263 C262 1.419 . S
C263 C264 1.391 . S
C263 C267 1.397 . S
C264 C259 1.391 . S
C264 C263 1.391 . S
C264 C265 1.399 . S
C265 C264 1.399 . S
C265 C266 1.396 . S
C265 C268 1.453 . S
C265 C269 1.684 . S
C266 C247 1.723 . S
C266 C265 1.396 . S
C266 C267 1.394 . S
C267 C263 1.397 . S
C267 C266 1.394 . S
C267 C277 1.723 . S
C268 C265 1.453 . S
C268 H292 0.982 . S
C268 H293 0.979 . S
C268 H294 0.977 . S
C269 C265 1.684 . S
C269 H295 0.979 . S
C269 H296 0.980 . S
C269 H297 0.983 . S
C270 H246 0.948 . S
C270 C271 1.391 . S
C270 C275 1.391 . S
C271 C270 1.391 . S
C271 C272 1.391 . S
C272 H249 0.947 . S
C272 C271 1.391 . S
C272 C273 1.392 . S
C273 H250 0.948 . S
C273 C272 1.392 . S
C273 C274 1.419 . S
C274 C273 1.419 . S
C274 C275 1.391 . S
C274 C278 1.397 . S
C275 C270 1.391 . S
C275 C274 1.391 . S
C275 C276 1.399 . S
C276 C275 1.399 . S
C276 C277 1.396 . S
C276 C279 1.453 . S
C276 C280 1.684 . S
C277 C267 1.723 . S
C277 C276 1.396 . S
C277 C278 1.394 . S
C278 C248 1.723 . S
C278 C274 1.397 . S
C278 C277 1.394 . S
C279 H251 0.982 . S
C279 H255 0.979 . S
C279 H256 0.977 . S
C279 C276 1.453 . S
C280 H252 0.979 . S
C280 H253 0.980 . S
C280 H254 0.983 . S
C280 C276 1.684 . S
H281 C299 0.948 . S
H282 C240 0.948 . S
H283 C258 0.979 . S
H284 C258 0.980 . S
H285 C258 0.983 . S
H286 C257 0.982 . S
H287 C257 0.979 . S
H288 C257 0.977 . S
H289 C259 0.948 . S
H290 C261 0.947 . S
H291 C262 0.948 . S
H292 C268 0.982 . S
H293 C268 0.979 . S
H294 C268 0.977 . S
H295 C269 0.979 . S
H296 C269 0.980 . S
H297 C269 0.983 . S
H298 C242 0.947 . S
C299 C242 1.392 . S
C299 C243 1.419 . S
C299 H281 0.948 . S
C300 C301 1.391 . S
C300 C304 1.391 . S
C300 H342 0.948 . S
C301 C300 1.391 . S
C301 C302 1.391 . S
C302 C301 1.391 . S
C302 H358 0.947 . S
C302 C359 1.392 . S
C303 C304 1.391 . S
C303 C307 1.397 . S
C303 C359 1.419 . S
C304 C300 1.391 . S
C304 C303 1.391 . S
C304 C305 1.399 . S
C305 C304 1.399 . S
C305 C308 1.396 . S
C305 C317 1.453 . S
C305 C318 1.684 . S
H306 C330 0.948 . S
C307 C303 1.397 . S
C307 C308 1.394 . S
C307 C326 1.723 . S
C308 C305 1.396 . S
C308 C307 1.394 . S
C308 C338 1.723 . S
H309 C332 0.947 . S
H310 C333 0.948 . S
H311 C339 0.982 . S
H312 C340 0.979 . S
H313 C340 0.980 . S
H314 C340 0.983 . S
H315 C339 0.979 . S
H316 C339 0.977 . S
C317 C305 1.453 . S
C317 H346 0.982 . S
C317 H347 0.979 . S
C317 H348 0.977 . S
C318 C305 1.684 . S
C318 H343 0.979 . S
C318 H344 0.980 . S
C318 H345 0.983 . S
C319 C320 1.391 . S
C319 C324 1.391 . S
C319 H349 0.948 . S
C320 C319 1.391 . S
C320 C321 1.391 . S
C321 C320 1.391 . S
C321 C322 1.392 . S
C321 H350 0.947 . S
C322 C321 1.392 . S
C322 C323 1.419 . S
C322 H351 0.948 . S
C323 C322 1.419 . S
C323 C324 1.391 . S
C323 C327 1.397 . S
C324 C319 1.391 . S
C324 C323 1.391 . S
C324 C325 1.399 . S
C325 C324 1.399 . S
C325 C326 1.396 . S
C325 C328 1.453 . S
C325 C329 1.684 . S
C326 C307 1.723 . S
C326 C325 1.396 . S
C326 C327 1.394 . S
C327 C323 1.397 . S
C327 C326 1.394 . S
C327 C337 1.723 . S
C328 C325 1.453 . S
C328 H352 0.982 . S
C328 H353 0.979 . S
C328 H354 0.977 . S
C329 C325 1.684 . S
C329 H355 0.979 . S
C329 H356 0.980 . S
C329 H357 0.983 . S
C330 H306 0.948 . S
C330 C331 1.391 . S
C330 C335 1.391 . S
C331 C330 1.391 . S
C331 C332 1.391 . S
C332 H309 0.947 . S
C332 C331 1.391 . S
C332 C333 1.392 . S
C333 H310 0.948 . S
C333 C332 1.392 . S
C333 C334 1.419 . S
C334 C333 1.419 . S
C334 C335 1.391 . S
C334 C338 1.397 . S
C335 C330 1.391 . S
C335 C334 1.391 . S
C335 C336 1.399 . S
C336 C335 1.399 . S
C336 C337 1.396 . S
C336 C339 1.453 . S
C336 C340 1.684 . S
C337 C327 1.723 . S
C337 C336 1.396 . S
C337 C338 1.394 . S
C338 C308 1.723 . S
C338 C334 1.397 . S
C338 C337 1.394 . S
C339 H311 0.982 . S
C339 H315 0.979 . S
C339 H316 0.977 . S
C339 C336 1.453 . S
C340 H312 0.979 . S
C340 H313 0.980 . S
C340 H314 0.983 . S
C340 C336 1.684 . S
H341 C359 0.948 . S
H342 C300 0.948 . S
H343 C318 0.979 . S
H344 C318 0.980 . S
H345 C318 0.983 . S
H346 C317 0.982 . S
H347 C317 0.979 . S
H348 C317 0.977 . S
H349 C319 0.948 . S
H350 C321 0.947 . S
H351 C322 0.948 . S
H352 C328 0.982 . S
H353 C328 0.979 . S
H354 C328 0.977 . S
H355 C329 0.979 . S
H356 C329 0.980 . S
H357 C329 0.983 . S
H358 C302 0.947 . S
C359 C302 1.392 . S
C359 C303 1.419 . S
C359 H341 0.948 . S
C360 C361 1.391 . S
C360 C364 1.391 . S
C360 H402 0.948 . S
C361 C360 1.391 . S
C361 C362 1.391 . S
C362 C361 1.391 . S
C362 H418 0.947 . S
C362 C419 1.392 . S
C363 C364 1.391 . S
C363 C367 1.397 . S
C363 C419 1.419 . S
C364 C360 1.391 . S
C364 C363 1.391 . S
C364 C365 1.399 . S
C365 C364 1.399 . S
C365 C368 1.396 . S
C365 C377 1.453 . S
C365 C378 1.684 . S
H366 C390 0.948 . S
C367 C363 1.397 . S
C367 C368 1.394 . S
C367 C386 1.723 . S
C368 C365 1.396 . S
C368 C367 1.394 . S
C368 C398 1.723 . S
H369 C392 0.947 . S
H370 C393 0.948 . S
H371 C399 0.982 . S
H372 C400 0.979 . S
H373 C400 0.980 . S
H374 C400 0.983 . S
H375 C399 0.979 . S
H376 C399 0.977 . S
C377 C365 1.453 . S
C377 H406 0.982 . S
C377 H407 0.979 . S
C377 H408 0.977 . S
C378 C365 1.684 . S
C378 H403 0.979 . S
C378 H404 0.980 . S
C378 H405 0.983 . S
C379 C380 1.391 . S
C379 C384 1.391 . S
C379 H409 0.948 . S
C380 C379 1.391 . S
C380 C381 1.391 . S
C381 C380 1.391 . S
C381 C382 1.392 . S
C381 H410 0.947 . S
C382 C381 1.392 . S
C382 C383 1.419 . S
C382 H411 0.948 . S
C383 C382 1.419 . S
C383 C384 1.391 . S
C383 C387 1.397 . S
C384 C379 1.391 . S
C384 C383 1.391 . S
C384 C385 1.399 . S
C385 C384 1.399 . S
C385 C386 1.396 . S
C385 C388 1.453 . S
C385 C389 1.684 . S
C386 C367 1.723 . S
C386 C385 1.396 . S
C386 C387 1.394 . S
C387 C383 1.397 . S
C387 C386 1.394 . S
C387 C397 1.723 . S
C388 C385 1.453 . S
C388 H412 0.982 . S
C388 H413 0.979 . S
C388 H414 0.977 . S
C389 C385 1.684 . S
C389 H415 0.979 . S
C389 H416 0.980 . S
C389 H417 0.983 . S
C390 H366 0.948 . S
C390 C391 1.391 . S
C390 C395 1.391 . S
C391 C390 1.391 . S
C391 C392 1.391 . S
C392 H369 0.947 . S
C392 C391 1.391 . S
C392 C393 1.392 . S
C393 H370 0.948 . S
C393 C392 1.392 . S
C393 C394 1.419 . S
C394 C393 1.419 . S
C394 C395 1.391 . S
C394 C398 1.397 . S
C395 C390 1.391 . S
C395 C394 1.391 . S
C395 C396 1.399 . S
C396 C395 1.399 . S
C396 C397 1.396 . S
C396 C399 1.453 . S
C396 C400 1.684 . S
C397 C387 1.723 . S
C397 C396 1.396 . S
C397 C398 1.394 . S
C398 C368 1.723 . S
C398 C394 1.397 . S
C398 C397 1.394 . S
C399 H371 0.982 . S
C399 H375 0.979 . S
C399 H376 0.977 . S
C399 C396 1.453 . S
C400 H372 0.979 . S
C400 H373 0.980 . S
C400 H374 0.983 . S
C400 C396 1.684 . S
H401 C419 0.948 . S
H402 C360 0.948 . S
H403 C378 0.979 . S
H404 C378 0.980 . S
H405 C378 0.983 . S
H406 C377 0.982 . S
H407 C377 0.979 . S
H408 C377 0.977 . S
H409 C379 0.948 . S
H410 C381 0.947 . S
H411 C382 0.948 . S
H412 C388 0.982 . S
H413 C388 0.979 . S
H414 C388 0.977 . S
H415 C389 0.979 . S
H416 C389 0.980 . S
H417 C389 0.983 . S
H418 C362 0.947 . S
C419 C362 1.392 . S
C419 C363 1.419 . S
C419 H401 0.948 . S
C420 C421 1.391 . S
C420 C424 1.391 . S
C420 H462 0.948 . S
C421 C420 1.391 . S
C421 C422 1.391 . S
C422 C421 1.391 . S
C422 H478 0.947 . S
C422 C479 1.392 . S
C423 C424 1.391 . S
C423 C427 1.397 . S
C423 C479 1.419 . S
C424 C420 1.391 . S
C424 C423 1.391 . S
C424 C425 1.399 . S
C425 C424 1.399 . S
C425 C428 1.396 . S
C425 C437 1.453 . S
C425 C438 1.684 . S
H426 C450 0.948 . S
C427 C423 1.397 . S
C427 C428 1.394 . S
C427 C446 1.723 . S
C428 C425 1.396 . S
C428 C427 1.394 . S
C428 C458 1.723 . S
H429 C452 0.947 . S
H430 C453 0.948 . S
H431 C459 0.982 . S
H432 C460 0.979 . S
H433 C460 0.980 . S
H434 C460 0.983 . S
H435 C459 0.979 . S
H436 C459 0.977 . S
C437 C425 1.453 . S
C437 H466 0.982 . S
C437 H467 0.979 . S
C437 H468 0.977 . S
C438 C425 1.684 . S
C438 H463 0.979 . S
C438 H464 0.980 . S
C438 H465 0.983 . S
C439 C440 1.391 . S
C439 C444 1.391 . S
C439 H469 0.948 . S
C440 C439 1.391 . S
C440 C441 1.391 . S
C441 C440 1.391 . S
C441 C442 1.392 . S
C441 H470 0.947 . S
C442 C441 1.392 . S
C442 C443 1.419 . S
C442 H471 0.948 . S
C443 C442 1.419 . S
C443 C444 1.391 . S
C443 C447 1.397 . S
C444 C439 1.391 . S
C444 C443 1.391 . S
C444 C445 1.399 . S
C445 C444 1.399 . S
C445 C446 1.396 . S
C445 C448 1.453 . S
C445 C449 1.684 . S
C446 C427 1.723 . S
C446 C445 1.396 . S
C446 C447 1.394 . S
C447 C443 1.397 . S
C447 C446 1.394 . S
C447 C457 1.723 . S
C448 C445 1.453 . S
C448 H472 0.982 . S
C448 H473 0.979 . S
C448 H474 0.977 . S
C449 C445 1.684 . S
C449 H475 0.979 . S
C449 H476 0.980 . S
C449 H477 0.983 . S
C450 H426 0.948 . S
C450 C451 1.391 . S
C450 C455 1.391 . S
C451 C450 1.391 . S
C451 C452 1.391 . S
C452 H429 0.947 . S
C452 C451 1.391 . S
C452 C453 1.392 . S
C453 H430 0.948 . S
C453 C452 1.392 . S
C453 C454 1.419 . S
C454 C453 1.419 . S
C454 C455 1.391 . S
C454 C458 1.397 . S
C455 C450 1.391 . S
C455 C454 1.391 . S
C455 C456 1.399 . S
C456 C455 1.399 . S
C456 C457 1.396 . S
C456 C459 1.453 . S
C456 C460 1.684 . S
C457 C447 1.723 . S
C457 C456 1.396 . S
C457 C458 1.394 . S
C458 C428 1.723 . S
C458 C454 1.397 . S
C458 C457 1.394 . S
C459 H431 0.982 . S
C459 H435 0.979 . S
C459 H436 0.977 . S
C459 C456 1.453 . S
C460 H432 0.979 . S
C460 H433 0.980 . S
C460 H434 0.983 . S
C460 C456 1.684 . S
H461 C479 0.948 . S
H462 C420 0.948 . S
H463 C438 0.979 . S
H464 C438 0.980 . S
H465 C438 0.983 . S
H466 C437 0.982 . S
H467 C437 0.979 . S
H468 C437 0.977 . S
H469 C439 0.948 . S
H470 C441 0.947 . S
H471 C442 0.948 . S
H472 C448 0.982 . S
H473 C448 0.979 . S
H474 C448 0.977 . S
H475 C449 0.979 . S
H476 C449 0.980 . S
H477 C449 0.983 . S
H478 C422 0.947 . S
C479 C422 1.392 . S
C479 C423 1.419 . S
C479 H461 0.948 . S
Tb480 C489 2.764 . S
Tb480 O490 2.325 1_455 S
Tb480 O493 2.303 . S
Tb480 O497 2.322 1_545 S
Tb480 O498 2.349 1_545 S
Tb480 O501 2.415 . S
Tb480 O502 2.399 . S
Tb481 O491 2.322 1_565 S
Tb481 O492 2.349 1_565 S
Tb481 O494 2.415 . S
Tb481 O495 2.399 . S
Tb481 O496 2.325 1_655 S
Tb481 O499 2.303 . S
Tb481 C510 2.764 . S
C482 O498 1.261 1_655 S
C482 O499 1.257 . S
C483 C486 1.358 . S
C483 C487 1.332 . S
C483 C489 1.504 . S
C484 C485 1.373 . S
C484 C488 1.308 . S
C485 C484 1.373 . S
C485 C486 1.429 . S
C485 H512 0.932 . S
C486 C483 1.358 . S
C486 C485 1.429 . S
C486 H513 0.930 . S
C487 C483 1.332 . S
C487 C488 1.394 . S
C487 H514 0.932 . S
C488 C484 1.308 . S
C488 C487 1.394 . S
C488 H515 0.929 . S
C489 Tb480 2.764 . S
C489 C483 1.504 . S
C489 O501 1.239 . S
C489 O502 1.263 . S
O490 Tb480 2.325 1_655 S
O490 C500 1.236 . S
O491 Tb481 2.322 1_545 S
O491 C500 1.257 . S
O492 Tb481 2.349 1_545 S
O492 C503 1.261 1_655 S
O493 Tb480 2.303 . S
O493 C503 1.257 . S
O494 Tb481 2.415 . S
O494 C510 1.239 . S
O495 Tb481 2.399 . S
O495 C510 1.263 . S
O496 Tb481 2.325 1_455 S
O496 C511 1.236 . S
O497 Tb480 2.322 1_565 S
O497 C511 1.257 . S
O498 Tb480 2.349 1_565 S
O498 C482 1.261 1_455 S
O499 Tb481 2.303 . S
O499 C482 1.257 . S
C500 O490 1.236 . S
C500 O491 1.257 . S
O501 Tb480 2.415 . S
O501 C489 1.239 . S
O502 Tb480 2.399 . S
O502 C489 1.263 . S
C503 O492 1.261 1_455 S
C503 O493 1.257 . S
C504 C507 1.358 . S
C504 C508 1.332 . S
C504 C510 1.504 . S
C505 C506 1.373 . S
C505 C509 1.308 . S
C506 C505 1.373 . S
C506 C507 1.429 . S
C506 H516 0.932 . S
C507 C504 1.358 . S
C507 C506 1.429 . S
C507 H517 0.930 . S
C508 C504 1.332 . S
C508 C509 1.394 . S
C508 H518 0.932 . S
C509 C505 1.308 . S
C509 C508 1.394 . S
C509 H519 0.929 . S
C510 Tb481 2.764 . S
C510 O494 1.239 . S
C510 O495 1.263 . S
C510 C504 1.504 . S
C511 O496 1.236 . S
C511 O497 1.257 . S
H512 C485 0.932 . S
H513 C486 0.930 . S
H514 C487 0.932 . S
H515 C488 0.929 . S
H516 C506 0.932 . S
H517 C507 0.930 . S
H518 C508 0.932 . S
H519 C509 0.929 . S
Tb520 C529 2.764 . S
Tb520 O530 2.325 1_554 S
Tb520 O533 2.303 . S
Tb520 O537 2.322 1_545 S
Tb520 O538 2.355 1_545 S
Tb520 O541 2.415 . S
Tb520 O542 2.399 . S
Tb521 O531 2.322 1_565 S
Tb521 O532 2.347 1_565 S
Tb521 O534 2.415 . S
Tb521 O535 2.399 . S
Tb521 O536 2.325 1_556 S
Tb521 O539 2.303 . S
Tb521 C550 2.764 . S
C522 O538 1.254 1_556 S
C522 O539 1.257 . S
C523 C526 1.358 . S
C523 C527 1.332 . S
C523 C529 1.504 . S
C524 C525 1.373 . S
C524 C528 1.308 . S
C525 C524 1.373 . S
C525 C526 1.429 . S
C525 H552 0.932 . S
C526 C523 1.358 . S
C526 C525 1.429 . S
C526 H553 0.930 . S
C527 C523 1.332 . S
C527 C528 1.394 . S
C527 H554 0.932 . S
C528 C524 1.308 . S
C528 C527 1.394 . S
C528 H555 0.929 . S
C529 Tb520 2.764 . S
C529 C523 1.504 . S
C529 O541 1.239 . S
C529 O542 1.263 . S
O530 Tb520 2.325 1_556 S
O530 C540 1.236 . S
O531 Tb521 2.322 1_545 S
O531 C540 1.257 . S
O532 Tb521 2.347 1_545 S
O532 C543 1.264 1_556 S
O533 Tb520 2.303 . S
O533 C543 1.257 . S
O534 Tb521 2.415 . S
O534 C550 1.239 . S
O535 Tb521 2.399 . S
O535 C550 1.263 . S
O536 Tb521 2.325 1_554 S
O536 C551 1.236 . S
O537 Tb520 2.322 1_565 S
O537 C551 1.257 . S
O538 Tb520 2.355 1_565 S
O538 C522 1.254 1_554 S
O539 Tb521 2.303 . S
O539 C522 1.257 . S
C540 O530 1.236 . S
C540 O531 1.257 . S
O541 Tb520 2.415 . S
O541 C529 1.239 . S
O542 Tb520 2.399 . S
O542 C529 1.263 . S
C543 O532 1.264 1_554 S
C543 O533 1.257 . S
C544 C547 1.358 . S
C544 C548 1.332 . S
C544 C550 1.504 . S
C545 C546 1.373 . S
C545 C549 1.308 . S
C546 C545 1.373 . S
C546 C547 1.429 . S
C546 H556 0.932 . S
C547 C544 1.358 . S
C547 C546 1.429 . S
C547 H557 0.930 . S
C548 C544 1.332 . S
C548 C549 1.394 . S
C548 H558 0.932 . S
C549 C545 1.308 . S
C549 C548 1.394 . S
C549 H559 0.929 . S
C550 Tb521 2.764 . S
C550 O534 1.239 . S
C550 O535 1.263 . S
C550 C544 1.504 . S
C551 O536 1.236 . S
C551 O537 1.257 . S
H552 C525 0.932 . S
H553 C526 0.930 . S
H554 C527 0.932 . S
H555 C528 0.929 . S
H556 C546 0.932 . S
H557 C547 0.930 . S
H558 C548 0.932 . S
H559 C549 0.929 . S
Tb560 C569 2.764 . S
Tb560 O570 2.325 . S
Tb560 O573 2.303 . S
Tb560 O577 2.322 . S
Tb560 O578 2.349 . S
Tb560 O581 2.415 . S
Tb560 O582 2.399 . S
Tb561 O571 2.322 . S
Tb561 O572 2.349 . S
Tb561 O574 2.415 . S
Tb561 O575 2.399 . S
Tb561 O576 2.325 . S
Tb561 O579 2.303 . S
Tb561 C590 2.764 . S
C562 O578 1.261 . S
C562 O579 1.257 . S
C563 C566 1.358 . S
C563 C567 1.332 . S
C563 C569 1.504 . S
C564 C565 1.373 . S
C564 C568 1.308 . S
C565 C564 1.373 . S
C565 C566 1.429 . S
C565 H592 0.932 . S
C566 C563 1.358 . S
C566 C565 1.429 . S
C566 H593 0.930 . S
C567 C563 1.332 . S
C567 C568 1.394 . S
C567 H594 0.932 . S
C568 C564 1.308 . S
C568 C567 1.394 . S
C568 H595 0.929 . S
C569 Tb560 2.764 . S
C569 C563 1.504 . S
C569 O581 1.239 . S
C569 O582 1.263 . S
O570 Tb560 2.325 . S
O570 C580 1.236 . S
O571 Tb561 2.322 . S
O571 C580 1.257 . S
O572 Tb561 2.349 . S
O572 C583 1.261 . S
O573 Tb560 2.303 . S
O573 C583 1.257 . S
O574 Tb561 2.415 . S
O574 C590 1.239 . S
O575 Tb561 2.399 . S
O575 C590 1.263 . S
O576 Tb561 2.325 . S
O576 C591 1.236 . S
O577 Tb560 2.322 . S
O577 C591 1.257 . S
O578 Tb560 2.349 . S
O578 C562 1.261 . S
O579 Tb561 2.303 . S
O579 C562 1.257 . S
C580 O570 1.236 . S
C580 O571 1.257 . S
O581 Tb560 2.415 . S
O581 C569 1.239 . S
O582 Tb560 2.399 . S
O582 C569 1.263 . S
C583 O572 1.261 . S
C583 O573 1.257 . S
C584 C587 1.358 . S
C584 C588 1.332 . S
C584 C590 1.504 . S
C585 C586 1.373 . S
C585 C589 1.308 . S
C586 C585 1.373 . S
C586 C587 1.429 . S
C586 H596 0.932 . S
C587 C584 1.358 . S
C587 C586 1.429 . S
C587 H597 0.930 . S
C588 C584 1.332 . S
C588 C589 1.394 . S
C588 H598 0.932 . S
C589 C585 1.308 . S
C589 C588 1.394 . S
C589 H599 0.929 . S
C590 Tb561 2.764 . S
C590 O574 1.239 . S
C590 O575 1.263 . S
C590 C584 1.504 . S
C591 O576 1.236 . S
C591 O577 1.257 . S
H592 C565 0.932 . S
H593 C566 0.930 . S
H594 C567 0.932 . S
H595 C568 0.929 . S
H596 C586 0.932 . S
H597 C587 0.930 . S
H598 C588 0.932 . S
H599 C589 0.929 . S
Tb600 C609 2.764 . S
Tb600 O610 2.325 . S
Tb600 O613 2.303 1_556 S
Tb600 O617 2.332 1_655 S
Tb600 O618 2.349 1_655 S
Tb600 O621 2.415 . S
Tb600 O622 2.399 . S
Tb601 O611 2.337 1_455 S
Tb601 O612 2.349 1_455 S
Tb601 O614 2.415 . S
Tb601 O615 2.399 . S
Tb601 O616 2.325 . S
Tb601 O619 2.303 1_554 S
Tb601 C630 2.764 . S
C602 O618 1.261 . S
C602 O619 1.257 . S
C603 C606 1.358 . S
C603 C607 1.332 . S
C603 C609 1.504 . S
C604 C605 1.373 . S
C604 C608 1.308 . S
C605 C604 1.373 . S
C605 C606 1.429 . S
C605 H632 0.932 . S
C606 C603 1.358 . S
C606 C605 1.429 . S
C606 H633 0.930 . S
C607 C603 1.332 . S
C607 C608 1.394 . S
C607 H634 0.932 . S
C608 C604 1.308 . S
C608 C607 1.394 . S
C608 H635 0.929 . S
C609 Tb600 2.764 . S
C609 C603 1.504 . S
C609 O621 1.239 . S
C609 O622 1.263 . S
O610 Tb600 2.325 . S
O610 C620 1.236 . S
O611 Tb601 2.337 1_655 S
O611 C620 1.235 1_554 S
O612 Tb601 2.349 1_655 S
O612 C623 1.261 . S
O613 Tb600 2.303 1_554 S
O613 C623 1.257 . S
O614 Tb601 2.415 . S
O614 C630 1.239 . S
O615 Tb601 2.399 . S
O615 C630 1.263 . S
O616 Tb601 2.325 . S
O616 C631 1.236 . S
O617 Tb600 2.332 1_455 S
O617 C631 1.243 1_556 S
O618 Tb600 2.349 1_455 S
O618 C602 1.261 . S
O619 Tb601 2.303 1_556 S
O619 C602 1.257 . S
C620 O610 1.236 . S
C620 O611 1.235 1_556 S
O621 Tb600 2.415 . S
O621 C609 1.239 . S
O622 Tb600 2.399 . S
O622 C609 1.263 . S
C623 O612 1.261 . S
C623 O613 1.257 . S
C624 C627 1.358 . S
C624 C628 1.332 . S
C624 C630 1.504 . S
C625 C626 1.373 . S
C625 C629 1.308 . S
C626 C625 1.373 . S
C626 C627 1.429 . S
C626 H636 0.932 . S
C627 C624 1.358 . S
C627 C626 1.429 . S
C627 H637 0.930 . S
C628 C624 1.332 . S
C628 C629 1.394 . S
C628 H638 0.932 . S
C629 C625 1.308 . S
C629 C628 1.394 . S
C629 H639 0.929 . S
C630 Tb601 2.764 . S
C630 O614 1.239 . S
C630 O615 1.263 . S
C630 C624 1.504 . S
C631 O616 1.236 . S
C631 O617 1.243 1_554 S
H632 C605 0.932 . S
H633 C606 0.930 . S
H634 C607 0.932 . S
H635 C608 0.929 . S
H636 C626 0.932 . S
H637 C627 0.930 . S
H638 C628 0.932 . S
H639 C629 0.929 . S
H640 C648 0.929 . S
H641 C650 0.930 . S
H642 C652 0.930 . S
H643 C655 0.929 . S
H644 C658 0.930 . S
H645 C660 0.960 . S
H646 C660 0.960 . S
H647 C660 0.960 . S
C648 H640 0.929 . S
C648 C649 1.377 . S
C648 C650 1.384 . S
C649 C648 1.377 . S
C649 C655 1.390 . S
C650 H641 0.930 . S
C650 C648 1.384 . S
C650 C651 1.372 . S
C651 C650 1.372 . S
C651 C652 1.400 . S
C651 C656 1.490 . S
C652 H642 0.930 . S
C652 C651 1.400 . S
C652 C655 1.386 . S
H653 C669 0.930 . S
H654 C670 0.931 . S
C655 H643 0.929 . S
C655 C649 1.390 . S
C655 C652 1.386 . S
C656 C651 1.490 . S
C656 C658 1.395 . S
C656 C659 1.403 . S
H657 C663 0.930 . S
C658 H644 0.930 . S
C658 C656 1.395 . S
C658 C661 1.403 . S
C659 C656 1.403 . S
C659 C660 1.524 . S
C659 C663 1.400 . S
C660 H645 0.960 . S
C660 H646 0.960 . S
C660 H647 0.960 . S
C660 C659 1.524 . S
C661 C658 1.403 . S
C661 C662 1.392 . S
C661 C665 1.495 . S
C662 C661 1.392 . S
C662 C663 1.385 . S
C662 C664 1.478 . S
C663 H657 0.930 . S
C663 C659 1.400 . S
C663 C662 1.385 . S
C664 C662 1.478 . S
C664 C666 1.381 . S
C664 C670 1.383 . S
C665 C661 1.495 . S
C665 H671 0.959 . S
C665 H672 0.961 . S
C665 H673 0.960 . S
C666 C664 1.381 . S
C666 C667 1.394 . S
C666 H674 0.930 . S
C667 C666 1.394 . S
C667 C668 1.383 . S
C667 H675 0.929 . S
C668 C667 1.383 . S
C668 C669 1.377 . S
C669 H653 0.930 . S
C669 C668 1.377 . S
C669 C670 1.379 . S
C670 H654 0.931 . S
C670 C664 1.383 . S
C670 C669 1.379 . S
H671 C665 0.959 . S
H672 C665 0.961 . S
H673 C665 0.960 . S
H674 C666 0.930 . S
H675 C667 0.929 . S
H676 C684 0.929 . S
H677 C686 0.930 . S
H678 C688 0.930 . S
H679 C691 0.929 . S
H680 C694 0.930 . S
H681 C696 0.960 . S
H682 C696 0.960 . S
H683 C696 0.960 . S
C684 H676 0.929 . S
C684 C685 1.377 . S
C684 C686 1.384 . S
C685 C684 1.377 . S
C685 C691 1.390 . S
C686 H677 0.930 . S
C686 C684 1.384 . S
C686 C687 1.372 . S
C687 C686 1.372 . S
C687 C688 1.400 . S
C687 C692 1.490 . S
C688 H678 0.930 . S
C688 C687 1.400 . S
C688 C691 1.386 . S
H689 C705 0.930 . S
H690 C706 0.931 . S
C691 H679 0.929 . S
C691 C685 1.390 . S
C691 C688 1.386 . S
C692 C687 1.490 . S
C692 C694 1.395 . S
C692 C695 1.403 . S
H693 C699 0.930 . S
C694 H680 0.930 . S
C694 C692 1.395 . S
C694 C697 1.403 . S
C695 C692 1.403 . S
C695 C696 1.524 . S
C695 C699 1.400 . S
C696 H681 0.960 . S
C696 H682 0.960 . S
C696 H683 0.960 . S
C696 C695 1.524 . S
C697 C694 1.403 . S
C697 C698 1.392 . S
C697 C701 1.495 . S
C698 C697 1.392 . S
C698 C699 1.385 . S
C698 C700 1.478 . S
C699 H693 0.930 . S
C699 C695 1.400 . S
C699 C698 1.385 . S
C700 C698 1.478 . S
C700 C702 1.381 . S
C700 C706 1.383 . S
C701 C697 1.495 . S
C701 H707 0.959 . S
C701 H708 0.961 . S
C701 H709 0.960 . S
C702 C700 1.381 . S
C702 C703 1.394 . S
C702 H710 0.930 . S
C703 C702 1.394 . S
C703 C704 1.383 . S
C703 H711 0.929 . S
C704 C703 1.383 . S
C704 C705 1.377 . S
C705 H689 0.930 . S
C705 C704 1.377 . S
C705 C706 1.379 . S
C706 H690 0.931 . S
C706 C700 1.383 . S
C706 C705 1.379 . S
H707 C701 0.959 . S
H708 C701 0.961 . S
H709 C701 0.960 . S
H710 C702 0.930 . S
H711 C703 0.929 . S
H712 C720 0.929 . S
H713 C722 0.930 . S
H714 C724 0.930 . S
H715 C727 0.929 . S
H716 C730 0.930 . S
H717 C732 0.960 . S
H718 C732 0.960 . S
H719 C732 0.960 . S
C720 H712 0.929 . S
C720 C721 1.377 . S
C720 C722 1.384 . S
C721 C720 1.377 . S
C721 C727 1.390 . S
C722 H713 0.930 . S
C722 C720 1.384 . S
C722 C723 1.372 . S
C723 C722 1.372 . S
C723 C724 1.400 . S
C723 C728 1.490 . S
C724 H714 0.930 . S
C724 C723 1.400 . S
C724 C727 1.386 . S
H725 C741 0.930 . S
H726 C742 0.931 . S
C727 H715 0.929 . S
C727 C721 1.390 . S
C727 C724 1.386 . S
C728 C723 1.490 . S
C728 C730 1.395 . S
C728 C731 1.403 . S
H729 C735 0.930 . S
C730 H716 0.930 . S
C730 C728 1.395 . S
C730 C733 1.403 . S
C731 C728 1.403 . S
C731 C732 1.524 . S
C731 C735 1.400 . S
C732 H717 0.960 . S
C732 H718 0.960 . S
C732 H719 0.960 . S
C732 C731 1.524 . S
C733 C730 1.403 . S
C733 C734 1.392 . S
C733 C737 1.495 . S
C734 C733 1.392 . S
C734 C735 1.385 . S
C734 C736 1.478 . S
C735 H729 0.930 . S
C735 C731 1.400 . S
C735 C734 1.385 . S
C736 C734 1.478 . S
C736 C738 1.381 . S
C736 C742 1.383 . S
C737 C733 1.495 . S
C737 H743 0.959 . S
C737 H744 0.961 . S
C737 H745 0.960 . S
C738 C736 1.381 . S
C738 C739 1.394 . S
C738 H746 0.930 . S
C739 C738 1.394 . S
C739 C740 1.383 . S
C739 H747 0.929 . S
C740 C739 1.383 . S
C740 C741 1.377 . S
C741 H725 0.930 . S
C741 C740 1.377 . S
C741 C742 1.379 . S
C742 H726 0.931 . S
C742 C736 1.383 . S
C742 C741 1.379 . S
H743 C737 0.959 . S
H744 C737 0.961 . S
H745 C737 0.960 . S
H746 C738 0.930 . S
H747 C739 0.929 . S
H748 C756 0.929 . S
H749 C758 0.930 . S
H750 C760 0.930 . S
H751 C763 0.929 . S
H752 C766 0.930 . S
H753 C768 0.960 . S
H754 C768 0.960 . S
H755 C768 0.960 . S
C756 H748 0.929 . S
C756 C757 1.377 . S
C756 C758 1.384 . S
C757 C756 1.377 . S
C757 C763 1.390 . S
C758 H749 0.930 . S
C758 C756 1.384 . S
C758 C759 1.372 . S
C759 C758 1.372 . S
C759 C760 1.400 . S
C759 C764 1.490 . S
C760 H750 0.930 . S
C760 C759 1.400 . S
C760 C763 1.386 . S
H761 C777 0.930 . S
H762 C778 0.931 . S
C763 H751 0.929 . S
C763 C757 1.390 . S
C763 C760 1.386 . S
C764 C759 1.490 . S
C764 C766 1.395 . S
C764 C767 1.403 . S
H765 C771 0.930 . S
C766 H752 0.930 . S
C766 C764 1.395 . S
C766 C769 1.403 . S
C767 C764 1.403 . S
C767 C768 1.524 . S
C767 C771 1.400 . S
C768 H753 0.960 . S
C768 H754 0.960 . S
C768 H755 0.960 . S
C768 C767 1.524 . S
C769 C766 1.403 . S
C769 C770 1.392 . S
C769 C773 1.495 . S
C770 C769 1.392 . S
C770 C771 1.385 . S
C770 C772 1.478 . S
C771 H765 0.930 . S
C771 C767 1.400 . S
C771 C770 1.385 . S
C772 C770 1.478 . S
C772 C774 1.381 . S
C772 C778 1.383 . S
C773 C769 1.495 . S
C773 H779 0.959 . S
C773 H780 0.961 . S
C773 H781 0.960 . S
C774 C772 1.381 . S
C774 C775 1.394 . S
C774 H782 0.930 . S
C775 C774 1.394 . S
C775 C776 1.383 . S
C775 H783 0.929 . S
C776 C775 1.383 . S
C776 C777 1.377 . S
C777 H761 0.930 . S
C777 C776 1.377 . S
C777 C778 1.379 . S
C778 H762 0.931 . S
C778 C772 1.383 . S
C778 C777 1.379 . S
H779 C773 0.959 . S
H780 C773 0.961 . S
H781 C773 0.960 . S
H782 C774 0.930 . S
H783 C775 0.929 . S
H784 C792 0.929 . S
H785 C794 0.930 . S
H786 C796 0.930 . S
H787 C799 0.929 . S
H788 C802 0.930 . S
H789 C804 0.960 . S
H790 C804 0.960 . S
H791 C804 0.960 . S
C792 H784 0.929 . S
C792 C793 1.377 . S
C792 C794 1.384 . S
C793 C792 1.377 . S
C793 C799 1.390 . S
C794 H785 0.930 . S
C794 C792 1.384 . S
C794 C795 1.372 . S
C795 C794 1.372 . S
C795 C796 1.400 . S
C795 C800 1.490 . S
C796 H786 0.930 . S
C796 C795 1.400 . S
C796 C799 1.386 . S
H797 C813 0.930 . S
H798 C814 0.931 . S
C799 H787 0.929 . S
C799 C793 1.390 . S
C799 C796 1.386 . S
C800 C795 1.490 . S
C800 C802 1.395 . S
C800 C803 1.403 . S
H801 C807 0.930 . S
C802 H788 0.930 . S
C802 C800 1.395 . S
C802 C805 1.403 . S
C803 C800 1.403 . S
C803 C804 1.524 . S
C803 C807 1.400 . S
C804 H789 0.960 . S
C804 H790 0.960 . S
C804 H791 0.960 . S
C804 C803 1.524 . S
C805 C802 1.403 . S
C805 C806 1.392 . S
C805 C809 1.495 . S
C806 C805 1.392 . S
C806 C807 1.385 . S
C806 C808 1.478 . S
C807 H801 0.930 . S
C807 C803 1.400 . S
C807 C806 1.385 . S
C808 C806 1.478 . S
C808 C810 1.381 . S
C808 C814 1.383 . S
C809 C805 1.495 . S
C809 H815 0.959 . S
C809 H816 0.961 . S
C809 H817 0.960 . S
C810 C808 1.381 . S
C810 C811 1.394 . S
C810 H818 0.930 . S
C811 C810 1.394 . S
C811 C812 1.383 . S
C811 H819 0.929 . S
C812 C811 1.383 . S
C812 C813 1.377 . S
C813 H797 0.930 . S
C813 C812 1.377 . S
C813 C814 1.379 . S
C814 H798 0.931 . S
C814 C808 1.383 . S
C814 C813 1.379 . S
H815 C809 0.959 . S
H816 C809 0.961 . S
H817 C809 0.960 . S
H818 C810 0.930 . S
H819 C811 0.929 . S
H820 C828 0.929 . S
H821 C830 0.930 . S
H822 C832 0.930 . S
H823 C835 0.929 . S
H824 C838 0.930 . S
H825 C840 0.960 . S
H826 C840 0.960 . S
H827 C840 0.960 . S
C828 H820 0.929 . S
C828 C829 1.377 . S
C828 C830 1.384 . S
C829 C828 1.377 . S
C829 C835 1.390 . S
C830 H821 0.930 . S
C830 C828 1.384 . S
C830 C831 1.372 . S
C831 C830 1.372 . S
C831 C832 1.400 . S
C831 C836 1.490 . S
C832 H822 0.930 . S
C832 C831 1.400 . S
C832 C835 1.386 . S
H833 C849 0.930 . S
H834 C850 0.931 . S
C835 H823 0.929 . S
C835 C829 1.390 . S
C835 C832 1.386 . S
C836 C831 1.490 . S
C836 C838 1.395 . S
C836 C839 1.403 . S
H837 C843 0.930 . S
C838 H824 0.930 . S
C838 C836 1.395 . S
C838 C841 1.403 . S
C839 C836 1.403 . S
C839 C840 1.524 . S
C839 C843 1.400 . S
C840 H825 0.960 . S
C840 H826 0.960 . S
C840 H827 0.960 . S
C840 C839 1.524 . S
C841 C838 1.403 . S
C841 C842 1.392 . S
C841 C845 1.495 . S
C842 C841 1.392 . S
C842 C843 1.385 . S
C842 C844 1.478 . S
C843 H837 0.930 . S
C843 C839 1.400 . S
C843 C842 1.385 . S
C844 C842 1.478 . S
C844 C846 1.381 . S
C844 C850 1.383 . S
C845 C841 1.495 . S
C845 H851 0.959 . S
C845 H852 0.961 . S
C845 H853 0.960 . S
C846 C844 1.381 . S
C846 C847 1.394 . S
C846 H854 0.930 . S
C847 C846 1.394 . S
C847 C848 1.383 . S
C847 H855 0.929 . S
C848 C847 1.383 . S
C848 C849 1.377 . S
C849 H833 0.930 . S
C849 C848 1.377 . S
C849 C850 1.379 . S
C850 H834 0.931 . S
C850 C844 1.383 . S
C850 C849 1.379 . S
H851 C845 0.959 . S
H852 C845 0.961 . S
H853 C845 0.960 . S
H854 C846 0.930 . S
H855 C847 0.929 . S
H856 C864 0.929 . S
H857 C866 0.930 . S
H858 C868 0.930 . S
H859 C871 0.929 . S
H860 C874 0.930 . S
H861 C876 0.960 . S
H862 C876 0.960 . S
H863 C876 0.960 . S
C864 H856 0.929 . S
C864 C865 1.377 . S
C864 C866 1.384 . S
C865 C864 1.377 . S
C865 C871 1.390 . S
C866 H857 0.930 . S
C866 C864 1.384 . S
C866 C867 1.372 . S
C867 C866 1.372 . S
C867 C868 1.400 . S
C867 C872 1.490 . S
C868 H858 0.930 . S
C868 C867 1.400 . S
C868 C871 1.386 . S
H869 C885 0.930 . S
H870 C886 0.931 . S
C871 H859 0.929 . S
C871 C865 1.390 . S
C871 C868 1.386 . S
C872 C867 1.490 . S
C872 C874 1.395 . S
C872 C875 1.403 . S
H873 C879 0.930 . S
C874 H860 0.930 . S
C874 C872 1.395 . S
C874 C877 1.403 . S
C875 C872 1.403 . S
C875 C876 1.524 . S
C875 C879 1.400 . S
C876 H861 0.960 . S
C876 H862 0.960 . S
C876 H863 0.960 . S
C876 C875 1.524 . S
C877 C874 1.403 . S
C877 C878 1.392 . S
C877 C881 1.495 . S
C878 C877 1.392 . S
C878 C879 1.385 . S
C878 C880 1.478 . S
C879 H873 0.930 . S
C879 C875 1.400 . S
C879 C878 1.385 . S
C880 C878 1.478 . S
C880 C882 1.381 . S
C880 C886 1.383 . S
C881 C877 1.495 . S
C881 H887 0.959 . S
C881 H888 0.961 . S
C881 H889 0.960 . S
C882 C880 1.381 . S
C882 C883 1.394 . S
C882 H890 0.930 . S
C883 C882 1.394 . S
C883 C884 1.383 . S
C883 H891 0.929 . S
C884 C883 1.383 . S
C884 C885 1.377 . S
C885 H869 0.930 . S
C885 C884 1.377 . S
C885 C886 1.379 . S
C886 H870 0.931 . S
C886 C880 1.383 . S
C886 C885 1.379 . S
H887 C881 0.959 . S
H888 C881 0.961 . S
H889 C881 0.960 . S
H890 C882 0.930 . S
H891 C883 0.929 . S
H892 C900 0.929 . S
H893 C902 0.930 . S
H894 C904 0.930 . S
H895 C907 0.929 . S
H896 C910 0.930 . S
H897 C912 0.960 . S
H898 C912 0.960 . S
H899 C912 0.960 . S
C900 H892 0.929 . S
C900 C901 1.377 . S
C900 C902 1.384 . S
C901 C900 1.377 . S
C901 C907 1.390 . S
C902 H893 0.930 . S
C902 C900 1.384 . S
C902 C903 1.372 . S
C903 C902 1.372 . S
C903 C904 1.400 . S
C903 C908 1.490 . S
C904 H894 0.930 . S
C904 C903 1.400 . S
C904 C907 1.386 . S
H905 C921 0.930 . S
H906 C922 0.931 . S
C907 H895 0.929 . S
C907 C901 1.390 . S
C907 C904 1.386 . S
C908 C903 1.490 . S
C908 C910 1.395 . S
C908 C911 1.403 . S
H909 C915 0.930 . S
C910 H896 0.930 . S
C910 C908 1.395 . S
C910 C913 1.403 . S
C911 C908 1.403 . S
C911 C912 1.524 . S
C911 C915 1.400 . S
C912 H897 0.960 . S
C912 H898 0.960 . S
C912 H899 0.960 . S
C912 C911 1.524 . S
C913 C910 1.403 . S
C913 C914 1.392 . S
C913 C917 1.495 . S
C914 C913 1.392 . S
C914 C915 1.385 . S
C914 C916 1.478 . S
C915 H909 0.930 . S
C915 C911 1.400 . S
C915 C914 1.385 . S
C916 C914 1.478 . S
C916 C918 1.381 . S
C916 C922 1.383 . S
C917 C913 1.495 . S
C917 H923 0.959 . S
C917 H924 0.961 . S
C917 H925 0.960 . S
C918 C916 1.381 . S
C918 C919 1.394 . S
C918 H926 0.930 . S
C919 C918 1.394 . S
C919 C920 1.383 . S
C919 H927 0.929 . S
C920 C919 1.383 . S
C920 C921 1.377 . S
C921 H905 0.930 . S
C921 C920 1.377 . S
C921 C922 1.379 . S
C922 H906 0.931 . S
C922 C916 1.383 . S
C922 C921 1.379 . S
H923 C917 0.959 . S
H924 C917 0.961 . S
H925 C917 0.960 . S
H926 C918 0.930 . S
H927 C919 0.929 . S
H928 C936 0.929 . S
H929 C938 0.930 . S
H930 C940 0.930 . S
H931 C943 0.929 . S
H932 C946 0.930 . S
H933 C948 0.960 . S
H934 C948 0.960 . S
H935 C948 0.960 . S
C936 H928 0.929 . S
C936 C937 1.377 . S
C936 C938 1.384 . S
C937 C936 1.377 . S
C937 C943 1.390 . S
C938 H929 0.930 . S
C938 C936 1.384 . S
C938 C939 1.372 . S
C939 C938 1.372 . S
C939 C940 1.400 . S
C939 C944 1.490 . S
C940 H930 0.930 . S
C940 C939 1.400 . S
C940 C943 1.386 . S
H941 C957 0.930 . S
H942 C958 0.931 . S
C943 H931 0.929 . S
C943 C937 1.390 . S
C943 C940 1.386 . S
C944 C939 1.490 . S
C944 C946 1.395 . S
C944 C947 1.403 . S
H945 C951 0.930 . S
C946 H932 0.930 . S
C946 C944 1.395 . S
C946 C949 1.403 . S
C947 C944 1.403 . S
C947 C948 1.524 . S
C947 C951 1.400 . S
C948 H933 0.960 . S
C948 H934 0.960 . S
C948 H935 0.960 . S
C948 C947 1.524 . S
C949 C946 1.403 . S
C949 C950 1.392 . S
C949 C953 1.495 . S
C950 C949 1.392 . S
C950 C951 1.385 . S
C950 C952 1.478 . S
C951 H945 0.930 . S
C951 C947 1.400 . S
C951 C950 1.385 . S
C952 C950 1.478 . S
C952 C954 1.381 . S
C952 C958 1.383 . S
C953 C949 1.495 . S
C953 H959 0.959 . S
C953 H960 0.961 . S
C953 H961 0.960 . S
C954 C952 1.381 . S
C954 C955 1.394 . S
C954 H962 0.930 . S
C955 C954 1.394 . S
C955 C956 1.383 . S
C955 H963 0.929 . S
C956 C955 1.383 . S
C956 C957 1.377 . S
C957 H941 0.930 . S
C957 C956 1.377 . S
C957 C958 1.379 . S
C958 H942 0.931 . S
C958 C952 1.383 . S
C958 C957 1.379 . S
H959 C953 0.959 . S
H960 C953 0.961 . S
H961 C953 0.960 . S
H962 C954 0.930 . S
H963 C955 0.929 . S
H964 C972 0.929 . S
H965 C974 0.930 . S
H966 C976 0.930 . S
H967 C979 0.929 . S
H968 C982 0.930 . S
H969 C984 0.960 . S
H970 C984 0.960 . S
H971 C984 0.960 . S
C972 H964 0.929 . S
C972 C973 1.377 . S
C972 C974 1.384 . S
C973 C972 1.377 . S
C973 C979 1.390 . S
C974 H965 0.930 . S
C974 C972 1.384 . S
C974 C975 1.372 . S
C975 C974 1.372 . S
C975 C976 1.400 . S
C975 C980 1.490 . S
C976 H966 0.930 . S
C976 C975 1.400 . S
C976 C979 1.386 . S
H977 C993 0.930 . S
H978 C994 0.931 . S
C979 H967 0.929 . S
C979 C973 1.390 . S
C979 C976 1.386 . S
C980 C975 1.490 . S
C980 C982 1.395 . S
C980 C983 1.403 . S
H981 C987 0.930 . S
C982 H968 0.930 . S
C982 C980 1.395 . S
C982 C985 1.403 . S
C983 C980 1.403 . S
C983 C984 1.524 . S
C983 C987 1.400 . S
C984 H969 0.960 . S
C984 H970 0.960 . S
C984 H971 0.960 . S
C984 C983 1.524 . S
C985 C982 1.403 . S
C985 C986 1.392 . S
C985 C989 1.495 . S
C986 C985 1.392 . S
C986 C987 1.385 . S
C986 C988 1.478 . S
C987 H981 0.930 . S
C987 C983 1.400 . S
C987 C986 1.385 . S
C988 C986 1.478 . S
C988 C990 1.381 . S
C988 C994 1.383 . S
C989 C985 1.495 . S
C989 H995 0.959 . S
C989 H996 0.961 . S
C989 H997 0.960 . S
C990 C988 1.381 . S
C990 C991 1.394 . S
C990 H998 0.930 . S
C991 C990 1.394 . S
C991 C992 1.383 . S
C991 H999 0.929 . S
C992 C991 1.383 . S
C992 C993 1.377 . S
C993 H977 0.930 . S
C993 C992 1.377 . S
C993 C994 1.379 . S
C994 H978 0.931 . S
C994 C988 1.383 . S
C994 C993 1.379 . S
H995 C989 0.959 . S
H996 C989 0.961 . S
H997 C989 0.960 . S
H998 C990 0.930 . S
H999 C991 0.929 . S
H1000 C1008 0.929 . S
H1001 C1010 0.930 . S
H1002 C1012 0.930 . S
H1003 C1015 0.929 . S
H1004 C1018 0.930 . S
H1005 C1020 0.960 . S
H1006 C1020 0.960 . S
H1007 C1020 0.960 . S
C1008 H1000 0.929 . S
C1008 C1009 1.377 . S
C1008 C1010 1.384 . S
C1009 C1008 1.377 . S
C1009 C1015 1.390 . S
C1010 H1001 0.930 . S
C1010 C1008 1.384 . S
C1010 C1011 1.372 . S
C1011 C1010 1.372 . S
C1011 C1012 1.400 . S
C1011 C1016 1.490 . S
C1012 H1002 0.930 . S
C1012 C1011 1.400 . S
C1012 C1015 1.386 . S
H1013 C1029 0.930 . S
H1014 C1030 0.931 . S
C1015 H1003 0.929 . S
C1015 C1009 1.390 . S
C1015 C1012 1.386 . S
C1016 C1011 1.490 . S
C1016 C1018 1.395 . S
C1016 C1019 1.403 . S
H1017 C1023 0.930 . S
C1018 H1004 0.930 . S
C1018 C1016 1.395 . S
C1018 C1021 1.403 . S
C1019 C1016 1.403 . S
C1019 C1020 1.524 . S
C1019 C1023 1.400 . S
C1020 H1005 0.960 . S
C1020 H1006 0.960 . S
C1020 H1007 0.960 . S
C1020 C1019 1.524 . S
C1021 C1018 1.403 . S
C1021 C1022 1.392 . S
C1021 C1025 1.495 . S
C1022 C1021 1.392 . S
C1022 C1023 1.385 . S
C1022 C1024 1.478 . S
C1023 H1017 0.930 . S
C1023 C1019 1.400 . S
C1023 C1022 1.385 . S
C1024 C1022 1.478 . S
C1024 C1026 1.381 . S
C1024 C1030 1.383 . S
C1025 C1021 1.495 . S
C1025 H1031 0.959 . S
C1025 H1032 0.961 . S
C1025 H1033 0.960 . S
C1026 C1024 1.381 . S
C1026 C1027 1.394 . S
C1026 H1034 0.930 . S
C1027 C1026 1.394 . S
C1027 C1028 1.383 . S
C1027 H1035 0.929 . S
C1028 C1027 1.383 . S
C1028 C1029 1.377 . S
C1029 H1013 0.930 . S
C1029 C1028 1.377 . S
C1029 C1030 1.379 . S
C1030 H1014 0.931 . S
C1030 C1024 1.383 . S
C1030 C1029 1.379 . S
H1031 C1025 0.959 . S
H1032 C1025 0.961 . S
H1033 C1025 0.960 . S
H1034 C1026 0.930 . S
H1035 C1027 0.929 . S
H1036 C1044 0.929 . S
H1037 C1046 0.930 . S
H1038 C1048 0.930 . S
H1039 C1051 0.929 . S
H1040 C1054 0.930 . S
H1041 C1056 0.960 . S
H1042 C1056 0.960 . S
H1043 C1056 0.960 . S
C1044 H1036 0.929 . S
C1044 C1045 1.377 . S
C1044 C1046 1.384 . S
C1045 C1044 1.377 . S
C1045 C1051 1.390 . S
C1046 H1037 0.930 . S
C1046 C1044 1.384 . S
C1046 C1047 1.372 . S
C1047 C1046 1.372 . S
C1047 C1048 1.400 . S
C1047 C1052 1.490 . S
C1048 H1038 0.930 . S
C1048 C1047 1.400 . S
C1048 C1051 1.386 . S
H1049 C1065 0.930 . S
H1050 C1066 0.931 . S
C1051 H1039 0.929 . S
C1051 C1045 1.390 . S
C1051 C1048 1.386 . S
C1052 C1047 1.490 . S
C1052 C1054 1.395 . S
C1052 C1055 1.403 . S
H1053 C1059 0.930 . S
C1054 H1040 0.930 . S
C1054 C1052 1.395 . S
C1054 C1057 1.403 . S
C1055 C1052 1.403 . S
C1055 C1056 1.524 . S
C1055 C1059 1.400 . S
C1056 H1041 0.960 . S
C1056 H1042 0.960 . S
C1056 H1043 0.960 . S
C1056 C1055 1.524 . S
C1057 C1054 1.403 . S
C1057 C1058 1.392 . S
C1057 C1061 1.495 . S
C1058 C1057 1.392 . S
C1058 C1059 1.385 . S
C1058 C1060 1.478 . S
C1059 H1053 0.930 . S
C1059 C1055 1.400 . S
C1059 C1058 1.385 . S
C1060 C1058 1.478 . S
C1060 C1062 1.381 . S
C1060 C1066 1.383 . S
C1061 C1057 1.495 . S
C1061 H1067 0.959 . S
C1061 H1068 0.961 . S
C1061 H1069 0.960 . S
C1062 C1060 1.381 . S
C1062 C1063 1.394 . S
C1062 H1070 0.930 . S
C1063 C1062 1.394 . S
C1063 C1064 1.383 . S
C1063 H1071 0.929 . S
C1064 C1063 1.383 . S
C1064 C1065 1.377 . S
C1065 H1049 0.930 . S
C1065 C1064 1.377 . S
C1065 C1066 1.379 . S
C1066 H1050 0.931 . S
C1066 C1060 1.383 . S
C1066 C1065 1.379 . S
H1067 C1061 0.959 . S
H1068 C1061 0.961 . S
H1069 C1061 0.960 . S
H1070 C1062 0.930 . S
H1071 C1063 0.929 . S
H1072 C1080 0.929 . S
H1073 C1082 0.930 . S
H1074 C1084 0.930 . S
H1075 C1087 0.929 . S
H1076 C1090 0.930 . S
H1077 C1092 0.960 . S
H1078 C1092 0.960 . S
H1079 C1092 0.960 . S
C1080 H1072 0.929 . S
C1080 C1081 1.377 . S
C1080 C1082 1.384 . S
C1081 C1080 1.377 . S
C1081 C1087 1.390 . S
C1082 H1073 0.930 . S
C1082 C1080 1.384 . S
C1082 C1083 1.372 . S
C1083 C1082 1.372 . S
C1083 C1084 1.400 . S
C1083 C1088 1.490 . S
C1084 H1074 0.930 . S
C1084 C1083 1.400 . S
C1084 C1087 1.386 . S
H1085 C1101 0.930 . S
H1086 C1102 0.931 . S
C1087 H1075 0.929 . S
C1087 C1081 1.390 . S
C1087 C1084 1.386 . S
C1088 C1083 1.490 . S
C1088 C1090 1.395 . S
C1088 C1091 1.403 . S
H1089 C1095 0.930 . S
C1090 H1076 0.930 . S
C1090 C1088 1.395 . S
C1090 C1093 1.403 . S
C1091 C1088 1.403 . S
C1091 C1092 1.524 . S
C1091 C1095 1.400 . S
C1092 H1077 0.960 . S
C1092 H1078 0.960 . S
C1092 H1079 0.960 . S
C1092 C1091 1.524 . S
C1093 C1090 1.403 . S
C1093 C1094 1.392 . S
C1093 C1097 1.495 . S
C1094 C1093 1.392 . S
C1094 C1095 1.385 . S
C1094 C1096 1.478 . S
C1095 H1089 0.930 . S
C1095 C1091 1.400 . S
C1095 C1094 1.385 . S
C1096 C1094 1.478 . S
C1096 C1098 1.381 . S
C1096 C1102 1.383 . S
C1097 C1093 1.495 . S
C1097 H1103 0.959 . S
C1097 H1104 0.961 . S
C1097 H1105 0.960 . S
C1098 C1096 1.381 . S
C1098 C1099 1.394 . S
C1098 H1106 0.930 . S
C1099 C1098 1.394 . S
C1099 C1100 1.383 . S
C1099 H1107 0.929 . S
C1100 C1099 1.383 . S
C1100 C1101 1.377 . S
C1101 H1085 0.930 . S
C1101 C1100 1.377 . S
C1101 C1102 1.379 . S
C1102 H1086 0.931 . S
C1102 C1096 1.383 . S
C1102 C1101 1.379 . S
H1103 C1097 0.959 . S
H1104 C1097 0.961 . S
H1105 C1097 0.960 . S
H1106 C1098 0.930 . S
H1107 C1099 0.929 . S
H1108 C1116 0.929 . S
H1109 C1118 0.930 . S
H1110 C1120 0.930 . S
H1111 C1123 0.929 . S
H1112 C1126 0.930 . S
H1113 C1128 0.960 . S
H1114 C1128 0.960 . S
H1115 C1128 0.960 . S
C1116 H1108 0.929 . S
C1116 C1117 1.377 . S
C1116 C1118 1.384 . S
C1117 C1116 1.377 . S
C1117 C1123 1.390 . S
C1118 H1109 0.930 . S
C1118 C1116 1.384 . S
C1118 C1119 1.372 . S
C1119 C1118 1.372 . S
C1119 C1120 1.400 . S
C1119 C1124 1.490 . S
C1120 H1110 0.930 . S
C1120 C1119 1.400 . S
C1120 C1123 1.386 . S
H1121 C1137 0.930 . S
H1122 C1138 0.931 . S
C1123 H1111 0.929 . S
C1123 C1117 1.390 . S
C1123 C1120 1.386 . S
C1124 C1119 1.490 . S
C1124 C1126 1.395 . S
C1124 C1127 1.403 . S
H1125 C1131 0.930 . S
C1126 H1112 0.930 . S
C1126 C1124 1.395 . S
C1126 C1129 1.403 . S
C1127 C1124 1.403 . S
C1127 C1128 1.524 . S
C1127 C1131 1.400 . S
C1128 H1113 0.960 . S
C1128 H1114 0.960 . S
C1128 H1115 0.960 . S
C1128 C1127 1.524 . S
C1129 C1126 1.403 . S
C1129 C1130 1.392 . S
C1129 C1133 1.495 . S
C1130 C1129 1.392 . S
C1130 C1131 1.385 . S
C1130 C1132 1.478 . S
C1131 H1125 0.930 . S
C1131 C1127 1.400 . S
C1131 C1130 1.385 . S
C1132 C1130 1.478 . S
C1132 C1134 1.381 . S
C1132 C1138 1.383 . S
C1133 C1129 1.495 . S
C1133 H1139 0.959 . S
C1133 H1140 0.961 . S
C1133 H1141 0.960 . S
C1134 C1132 1.381 . S
C1134 C1135 1.394 . S
C1134 H1142 0.930 . S
C1135 C1134 1.394 . S
C1135 C1136 1.383 . S
C1135 H1143 0.929 . S
C1136 C1135 1.383 . S
C1136 C1137 1.377 . S
C1137 H1121 0.930 . S
C1137 C1136 1.377 . S
C1137 C1138 1.379 . S
C1138 H1122 0.931 . S
C1138 C1132 1.383 . S
C1138 C1137 1.379 . S
H1139 C1133 0.959 . S
H1140 C1133 0.961 . S
H1141 C1133 0.960 . S
H1142 C1134 0.930 . S
H1143 C1135 0.929 . S
H1144 C1152 0.929 . S
H1145 C1154 0.930 . S
H1146 C1156 0.930 . S
H1147 C1159 0.929 . S
H1148 C1162 0.930 . S
H1149 C1164 0.960 . S
H1150 C1164 0.960 . S
H1151 C1164 0.960 . S
C1152 H1144 0.929 . S
C1152 C1153 1.377 . S
C1152 C1154 1.384 . S
C1153 C1152 1.377 . S
C1153 C1159 1.390 . S
C1154 H1145 0.930 . S
C1154 C1152 1.384 . S
C1154 C1155 1.372 . S
C1155 C1154 1.372 . S
C1155 C1156 1.400 . S
C1155 C1160 1.490 . S
C1156 H1146 0.930 . S
C1156 C1155 1.400 . S
C1156 C1159 1.386 . S
H1157 C1173 0.930 . S
H1158 C1174 0.931 . S
C1159 H1147 0.929 . S
C1159 C1153 1.390 . S
C1159 C1156 1.386 . S
C1160 C1155 1.490 . S
C1160 C1162 1.395 . S
C1160 C1163 1.403 . S
H1161 C1167 0.930 . S
C1162 H1148 0.930 . S
C1162 C1160 1.395 . S
C1162 C1165 1.403 . S
C1163 C1160 1.403 . S
C1163 C1164 1.524 . S
C1163 C1167 1.400 . S
C1164 H1149 0.960 . S
C1164 H1150 0.960 . S
C1164 H1151 0.960 . S
C1164 C1163 1.524 . S
C1165 C1162 1.403 . S
C1165 C1166 1.392 . S
C1165 C1169 1.495 . S
C1166 C1165 1.392 . S
C1166 C1167 1.385 . S
C1166 C1168 1.478 . S
C1167 H1161 0.930 . S
C1167 C1163 1.400 . S
C1167 C1166 1.385 . S
C1168 C1166 1.478 . S
C1168 C1170 1.381 . S
C1168 C1174 1.383 . S
C1169 C1165 1.495 . S
C1169 H1175 0.959 . S
C1169 H1176 0.961 . S
C1169 H1177 0.960 . S
C1170 C1168 1.381 . S
C1170 C1171 1.394 . S
C1170 H1178 0.930 . S
C1171 C1170 1.394 . S
C1171 C1172 1.383 . S
C1171 H1179 0.929 . S
C1172 C1171 1.383 . S
C1172 C1173 1.377 . S
C1173 H1157 0.930 . S
C1173 C1172 1.377 . S
C1173 C1174 1.379 . S
C1174 H1158 0.931 . S
C1174 C1168 1.383 . S
C1174 C1173 1.379 . S
H1175 C1169 0.959 . S
H1176 C1169 0.961 . S
H1177 C1169 0.960 . S
H1178 C1170 0.930 . S
H1179 C1171 0.929 . S
H1180 C1188 0.929 . S
H1181 C1190 0.930 . S
H1182 C1192 0.930 . S
H1183 C1195 0.929 . S
H1184 C1198 0.930 . S
H1185 C1200 0.960 . S
H1186 C1200 0.960 . S
H1187 C1200 0.960 . S
C1188 H1180 0.929 . S
C1188 C1189 1.377 . S
C1188 C1190 1.384 . S
C1189 C1188 1.377 . S
C1189 C1195 1.390 . S
C1190 H1181 0.930 . S
C1190 C1188 1.384 . S
C1190 C1191 1.372 . S
C1191 C1190 1.372 . S
C1191 C1192 1.400 . S
C1191 C1196 1.490 . S
C1192 H1182 0.930 . S
C1192 C1191 1.400 . S
C1192 C1195 1.386 . S
H1193 C1209 0.930 . S
H1194 C1210 0.931 . S
C1195 H1183 0.929 . S
C1195 C1189 1.390 . S
C1195 C1192 1.386 . S
C1196 C1191 1.490 . S
C1196 C1198 1.395 . S
C1196 C1199 1.403 . S
H1197 C1203 0.930 . S
C1198 H1184 0.930 . S
C1198 C1196 1.395 . S
C1198 C1201 1.403 . S
C1199 C1196 1.403 . S
C1199 C1200 1.524 . S
C1199 C1203 1.400 . S
C1200 H1185 0.960 . S
C1200 H1186 0.960 . S
C1200 H1187 0.960 . S
C1200 C1199 1.524 . S
C1201 C1198 1.403 . S
C1201 C1202 1.392 . S
C1201 C1205 1.495 . S
C1202 C1201 1.392 . S
C1202 C1203 1.385 . S
C1202 C1204 1.478 . S
C1203 H1197 0.930 . S
C1203 C1199 1.400 . S
C1203 C1202 1.385 . S
C1204 C1202 1.478 . S
C1204 C1206 1.381 . S
C1204 C1210 1.383 . S
C1205 C1201 1.495 . S
C1205 H1211 0.959 . S
C1205 H1212 0.961 . S
C1205 H1213 0.960 . S
C1206 C1204 1.381 . S
C1206 C1207 1.394 . S
C1206 H1214 0.930 . S
C1207 C1206 1.394 . S
C1207 C1208 1.383 . S
C1207 H1215 0.929 . S
C1208 C1207 1.383 . S
C1208 C1209 1.377 . S
C1209 H1193 0.930 . S
C1209 C1208 1.377 . S
C1209 C1210 1.379 . S
C1210 H1194 0.931 . S
C1210 C1204 1.383 . S
C1210 C1209 1.379 . S
H1211 C1205 0.959 . S
H1212 C1205 0.961 . S
H1213 C1205 0.960 . S
H1214 C1206 0.930 . S
H1215 C1207 0.929 . S
H1216 C1224 0.929 . S
H1217 C1226 0.930 . S
H1218 C1228 0.930 . S
H1219 C1231 0.929 . S
H1220 C1234 0.930 . S
H1221 C1236 0.960 . S
H1222 C1236 0.960 . S
H1223 C1236 0.960 . S
C1224 H1216 0.929 . S
C1224 C1225 1.377 . S
C1224 C1226 1.384 . S
C1225 C1224 1.377 . S
C1225 C1231 1.390 . S
C1226 H1217 0.930 . S
C1226 C1224 1.384 . S
C1226 C1227 1.372 . S
C1227 C1226 1.372 . S
C1227 C1228 1.400 . S
C1227 C1232 1.490 . S
C1228 H1218 0.930 . S
C1228 C1227 1.400 . S
C1228 C1231 1.386 . S
H1229 C1245 0.930 . S
H1230 C1246 0.931 . S
C1231 H1219 0.929 . S
C1231 C1225 1.390 . S
C1231 C1228 1.386 . S
C1232 C1227 1.490 . S
C1232 C1234 1.395 . S
C1232 C1235 1.403 . S
H1233 C1239 0.930 . S
C1234 H1220 0.930 . S
C1234 C1232 1.395 . S
C1234 C1237 1.403 . S
C1235 C1232 1.403 . S
C1235 C1236 1.524 . S
C1235 C1239 1.400 . S
C1236 H1221 0.960 . S
C1236 H1222 0.960 . S
C1236 H1223 0.960 . S
C1236 C1235 1.524 . S
C1237 C1234 1.403 . S
C1237 C1238 1.392 . S
C1237 C1241 1.495 . S
C1238 C1237 1.392 . S
C1238 C1239 1.385 . S
C1238 C1240 1.478 . S
C1239 H1233 0.930 . S
C1239 C1235 1.400 . S
C1239 C1238 1.385 . S
C1240 C1238 1.478 . S
C1240 C1242 1.381 . S
C1240 C1246 1.383 . S
C1241 C1237 1.495 . S
C1241 H1247 0.959 . S
C1241 H1248 0.961 . S
C1241 H1249 0.960 . S
C1242 C1240 1.381 . S
C1242 C1243 1.394 . S
C1242 H1250 0.930 . S
C1243 C1242 1.394 . S
C1243 C1244 1.383 . S
C1243 H1251 0.929 . S
C1244 C1243 1.383 . S
C1244 C1245 1.377 . S
C1245 H1229 0.930 . S
C1245 C1244 1.377 . S
C1245 C1246 1.379 . S
C1246 H1230 0.931 . S
C1246 C1240 1.383 . S
C1246 C1245 1.379 . S
H1247 C1241 0.959 . S
H1248 C1241 0.961 . S
H1249 C1241 0.960 . S
H1250 C1242 0.930 . S
H1251 C1243 0.929 . S
H1252 C1260 0.929 . S
H1253 C1262 0.930 . S
H1254 C1264 0.930 . S
H1255 C1267 0.929 . S
H1256 C1270 0.930 . S
H1257 C1272 0.960 . S
H1258 C1272 0.960 . S
H1259 C1272 0.960 . S
C1260 H1252 0.929 . S
C1260 C1261 1.377 . S
C1260 C1262 1.384 . S
C1261 C1260 1.377 . S
C1261 C1267 1.390 . S
C1262 H1253 0.930 . S
C1262 C1260 1.384 . S
C1262 C1263 1.372 . S
C1263 C1262 1.372 . S
C1263 C1264 1.400 . S
C1263 C1268 1.490 . S
C1264 H1254 0.930 . S
C1264 C1263 1.400 . S
C1264 C1267 1.386 . S
H1265 C1281 0.930 . S
H1266 C1282 0.931 . S
C1267 H1255 0.929 . S
C1267 C1261 1.390 . S
C1267 C1264 1.386 . S
C1268 C1263 1.490 . S
C1268 C1270 1.395 . S
C1268 C1271 1.403 . S
H1269 C1275 0.930 . S
C1270 H1256 0.930 . S
C1270 C1268 1.395 . S
C1270 C1273 1.403 . S
C1271 C1268 1.403 . S
C1271 C1272 1.524 . S
C1271 C1275 1.400 . S
C1272 H1257 0.960 . S
C1272 H1258 0.960 . S
C1272 H1259 0.960 . S
C1272 C1271 1.524 . S
C1273 C1270 1.403 . S
C1273 C1274 1.392 . S
C1273 C1277 1.495 . S
C1274 C1273 1.392 . S
C1274 C1275 1.385 . S
C1274 C1276 1.478 . S
C1275 H1269 0.930 . S
C1275 C1271 1.400 . S
C1275 C1274 1.385 . S
C1276 C1274 1.478 . S
C1276 C1278 1.381 . S
C1276 C1282 1.383 . S
C1277 C1273 1.495 . S
C1277 H1283 0.959 . S
C1277 H1284 0.961 . S
C1277 H1285 0.960 . S
C1278 C1276 1.381 . S
C1278 C1279 1.394 . S
C1278 H1286 0.930 . S
C1279 C1278 1.394 . S
C1279 C1280 1.383 . S
C1279 H1287 0.929 . S
C1280 C1279 1.383 . S
C1280 C1281 1.377 . S
C1281 H1265 0.930 . S
C1281 C1280 1.377 . S
C1281 C1282 1.379 . S
C1282 H1266 0.931 . S
C1282 C1276 1.383 . S
C1282 C1281 1.379 . S
H1283 C1277 0.959 . S
H1284 C1277 0.961 . S
H1285 C1277 0.960 . S
H1286 C1278 0.930 . S
H1287 C1279 0.929 . S
H1288 C1296 0.929 . S
H1289 C1298 0.930 . S
H1290 C1300 0.930 . S
H1291 C1303 0.929 . S
H1292 C1306 0.930 . S
H1293 C1308 0.960 . S
H1294 C1308 0.960 . S
H1295 C1308 0.960 . S
C1296 H1288 0.929 . S
C1296 C1297 1.377 . S
C1296 C1298 1.384 . S
C1297 C1296 1.377 . S
C1297 C1303 1.390 . S
C1298 H1289 0.930 . S
C1298 C1296 1.384 . S
C1298 C1299 1.372 . S
C1299 C1298 1.372 . S
C1299 C1300 1.400 . S
C1299 C1304 1.490 . S
C1300 H1290 0.930 . S
C1300 C1299 1.400 . S
C1300 C1303 1.386 . S
H1301 C1317 0.930 . S
H1302 C1318 0.931 . S
C1303 H1291 0.929 . S
C1303 C1297 1.390 . S
C1303 C1300 1.386 . S
C1304 C1299 1.490 . S
C1304 C1306 1.395 . S
C1304 C1307 1.403 . S
H1305 C1311 0.930 . S
C1306 H1292 0.930 . S
C1306 C1304 1.395 . S
C1306 C1309 1.403 . S
C1307 C1304 1.403 . S
C1307 C1308 1.524 . S
C1307 C1311 1.400 . S
C1308 H1293 0.960 . S
C1308 H1294 0.960 . S
C1308 H1295 0.960 . S
C1308 C1307 1.524 . S
C1309 C1306 1.403 . S
C1309 C1310 1.392 . S
C1309 C1313 1.495 . S
C1310 C1309 1.392 . S
C1310 C1311 1.385 . S
C1310 C1312 1.478 . S
C1311 H1305 0.930 . S
C1311 C1307 1.400 . S
C1311 C1310 1.385 . S
C1312 C1310 1.478 . S
C1312 C1314 1.381 . S
C1312 C1318 1.383 . S
C1313 C1309 1.495 . S
C1313 H1319 0.959 . S
C1313 H1320 0.961 . S
C1313 H1321 0.960 . S
C1314 C1312 1.381 . S
C1314 C1315 1.394 . S
C1314 H1322 0.930 . S
C1315 C1314 1.394 . S
C1315 C1316 1.383 . S
C1315 H1323 0.929 . S
C1316 C1315 1.383 . S
C1316 C1317 1.377 . S
C1317 H1301 0.930 . S
C1317 C1316 1.377 . S
C1317 C1318 1.379 . S
C1318 H1302 0.931 . S
C1318 C1312 1.383 . S
C1318 C1317 1.379 . S
H1319 C1313 0.959 . S
H1320 C1313 0.961 . S
H1321 C1313 0.960 . S
H1322 C1314 0.930 . S
H1323 C1315 0.929 . S
H1324 C1332 0.929 . S
H1325 C1334 0.930 . S
H1326 C1336 0.930 . S
H1327 C1339 0.929 . S
H1328 C1342 0.930 . S
H1329 C1344 0.960 . S
H1330 C1344 0.960 . S
H1331 C1344 0.960 . S
C1332 H1324 0.929 . S
C1332 C1333 1.377 . S
C1332 C1334 1.384 . S
C1333 C1332 1.377 . S
C1333 C1339 1.390 . S
C1334 H1325 0.930 . S
C1334 C1332 1.384 . S
C1334 C1335 1.372 . S
C1335 C1334 1.372 . S
C1335 C1336 1.400 . S
C1335 C1340 1.490 . S
C1336 H1326 0.930 . S
C1336 C1335 1.400 . S
C1336 C1339 1.386 . S
H1337 C1353 0.930 . S
H1338 C1354 0.931 . S
C1339 H1327 0.929 . S
C1339 C1333 1.390 . S
C1339 C1336 1.386 . S
C1340 C1335 1.490 . S
C1340 C1342 1.395 . S
C1340 C1343 1.403 . S
H1341 C1347 0.930 . S
C1342 H1328 0.930 . S
C1342 C1340 1.395 . S
C1342 C1345 1.403 . S
C1343 C1340 1.403 . S
C1343 C1344 1.524 . S
C1343 C1347 1.400 . S
C1344 H1329 0.960 . S
C1344 H1330 0.960 . S
C1344 H1331 0.960 . S
C1344 C1343 1.524 . S
C1345 C1342 1.403 . S
C1345 C1346 1.392 . S
C1345 C1349 1.495 . S
C1346 C1345 1.392 . S
C1346 C1347 1.385 . S
C1346 C1348 1.478 . S
C1347 H1341 0.930 . S
C1347 C1343 1.400 . S
C1347 C1346 1.385 . S
C1348 C1346 1.478 . S
C1348 C1350 1.381 . S
C1348 C1354 1.383 . S
C1349 C1345 1.495 . S
C1349 H1355 0.959 . S
C1349 H1356 0.961 . S
C1349 H1357 0.960 . S
C1350 C1348 1.381 . S
C1350 C1351 1.394 . S
C1350 H1358 0.930 . S
C1351 C1350 1.394 . S
C1351 C1352 1.383 . S
C1351 H1359 0.929 . S
C1352 C1351 1.383 . S
C1352 C1353 1.377 . S
C1353 H1337 0.930 . S
C1353 C1352 1.377 . S
C1353 C1354 1.379 . S
C1354 H1338 0.931 . S
C1354 C1348 1.383 . S
C1354 C1353 1.379 . S
H1355 C1349 0.959 . S
H1356 C1349 0.961 . S
H1357 C1349 0.960 . S
H1358 C1350 0.930 . S
H1359 C1351 0.929 . S
H1360 C1368 0.929 . S
H1361 C1370 0.930 . S
H1362 C1372 0.930 . S
H1363 C1375 0.929 . S
H1364 C1378 0.930 . S
H1365 C1380 0.960 . S
H1366 C1380 0.960 . S
H1367 C1380 0.960 . S
C1368 H1360 0.929 . S
C1368 C1369 1.377 . S
C1368 C1370 1.384 . S
C1369 C1368 1.377 . S
C1369 C1375 1.390 . S
C1370 H1361 0.930 . S
C1370 C1368 1.384 . S
C1370 C1371 1.372 . S
C1371 C1370 1.372 . S
C1371 C1372 1.400 . S
C1371 C1376 1.490 . S
C1372 H1362 0.930 . S
C1372 C1371 1.400 . S
C1372 C1375 1.386 . S
H1373 C1389 0.930 . S
H1374 C1390 0.931 . S
C1375 H1363 0.929 . S
C1375 C1369 1.390 . S
C1375 C1372 1.386 . S
C1376 C1371 1.490 . S
C1376 C1378 1.395 . S
C1376 C1379 1.403 . S
H1377 C1383 0.930 . S
C1378 H1364 0.930 . S
C1378 C1376 1.395 . S
C1378 C1381 1.403 . S
C1379 C1376 1.403 . S
C1379 C1380 1.524 . S
C1379 C1383 1.400 . S
C1380 H1365 0.960 . S
C1380 H1366 0.960 . S
C1380 H1367 0.960 . S
C1380 C1379 1.524 . S
C1381 C1378 1.403 . S
C1381 C1382 1.392 . S
C1381 C1385 1.495 . S
C1382 C1381 1.392 . S
C1382 C1383 1.385 . S
C1382 C1384 1.478 . S
C1383 H1377 0.930 . S
C1383 C1379 1.400 . S
C1383 C1382 1.385 . S
C1384 C1382 1.478 . S
C1384 C1386 1.381 . S
C1384 C1390 1.383 . S
C1385 C1381 1.495 . S
C1385 H1391 0.959 . S
C1385 H1392 0.961 . S
C1385 H1393 0.960 . S
C1386 C1384 1.381 . S
C1386 C1387 1.394 . S
C1386 H1394 0.930 . S
C1387 C1386 1.394 . S
C1387 C1388 1.383 . S
C1387 H1395 0.929 . S
C1388 C1387 1.383 . S
C1388 C1389 1.377 . S
C1389 H1373 0.930 . S
C1389 C1388 1.377 . S
C1389 C1390 1.379 . S
C1390 H1374 0.931 . S
C1390 C1384 1.383 . S
C1390 C1389 1.379 . S
H1391 C1385 0.959 . S
H1392 C1385 0.961 . S
H1393 C1385 0.960 . S
H1394 C1386 0.930 . S
H1395 C1387 0.929 . S
H1396 C1404 0.929 . S
H1397 C1406 0.930 . S
H1398 C1408 0.930 . S
H1399 C1411 0.929 . S
H1400 C1414 0.930 . S
H1401 C1416 0.960 . S
H1402 C1416 0.960 . S
H1403 C1416 0.960 . S
C1404 H1396 0.929 . S
C1404 C1405 1.377 . S
C1404 C1406 1.384 . S
C1405 C1404 1.377 . S
C1405 C1411 1.390 . S
C1406 H1397 0.930 . S
C1406 C1404 1.384 . S
C1406 C1407 1.372 . S
C1407 C1406 1.372 . S
C1407 C1408 1.400 . S
C1407 C1412 1.490 . S
C1408 H1398 0.930 . S
C1408 C1407 1.400 . S
C1408 C1411 1.386 . S
H1409 C1425 0.930 . S
H1410 C1426 0.931 . S
C1411 H1399 0.929 . S
C1411 C1405 1.390 . S
C1411 C1408 1.386 . S
C1412 C1407 1.490 . S
C1412 C1414 1.395 . S
C1412 C1415 1.403 . S
H1413 C1419 0.930 . S
C1414 H1400 0.930 . S
C1414 C1412 1.395 . S
C1414 C1417 1.403 . S
C1415 C1412 1.403 . S
C1415 C1416 1.524 . S
C1415 C1419 1.400 . S
C1416 H1401 0.960 . S
C1416 H1402 0.960 . S
C1416 H1403 0.960 . S
C1416 C1415 1.524 . S
C1417 C1414 1.403 . S
C1417 C1418 1.392 . S
C1417 C1421 1.495 . S
C1418 C1417 1.392 . S
C1418 C1419 1.385 . S
C1418 C1420 1.478 . S
C1419 H1413 0.930 . S
C1419 C1415 1.400 . S
C1419 C1418 1.385 . S
C1420 C1418 1.478 . S
C1420 C1422 1.381 . S
C1420 C1426 1.383 . S
C1421 C1417 1.495 . S
C1421 H1427 0.959 . S
C1421 H1428 0.961 . S
C1421 H1429 0.960 . S
C1422 C1420 1.381 . S
C1422 C1423 1.394 . S
C1422 H1430 0.930 . S
C1423 C1422 1.394 . S
C1423 C1424 1.383 . S
C1423 H1431 0.929 . S
C1424 C1423 1.383 . S
C1424 C1425 1.377 . S
C1425 H1409 0.930 . S
C1425 C1424 1.377 . S
C1425 C1426 1.379 . S
C1426 H1410 0.931 . S
C1426 C1420 1.383 . S
C1426 C1425 1.379 . S
H1427 C1421 0.959 . S
H1428 C1421 0.961 . S
H1429 C1421 0.960 . S
H1430 C1422 0.930 . S
H1431 C1423 0.929 . S
H1432 C1440 0.929 . S
H1433 C1442 0.930 . S
H1434 C1444 0.930 . S
H1435 C1447 0.929 . S
H1436 C1450 0.930 . S
H1437 C1452 0.960 . S
H1438 C1452 0.960 . S
H1439 C1452 0.960 . S
C1440 H1432 0.929 . S
C1440 C1441 1.377 . S
C1440 C1442 1.384 . S
C1441 C1440 1.377 . S
C1441 C1447 1.390 . S
C1442 H1433 0.930 . S
C1442 C1440 1.384 . S
C1442 C1443 1.372 . S
C1443 C1442 1.372 . S
C1443 C1444 1.400 . S
C1443 C1448 1.490 . S
C1444 H1434 0.930 . S
C1444 C1443 1.400 . S
C1444 C1447 1.386 . S
H1445 C1461 0.930 . S
H1446 C1462 0.931 . S
C1447 H1435 0.929 . S
C1447 C1441 1.390 . S
C1447 C1444 1.386 . S
C1448 C1443 1.490 . S
C1448 C1450 1.395 . S
C1448 C1451 1.403 . S
H1449 C1455 0.930 . S
C1450 H1436 0.930 . S
C1450 C1448 1.395 . S
C1450 C1453 1.403 . S
C1451 C1448 1.403 . S
C1451 C1452 1.524 . S
C1451 C1455 1.400 . S
C1452 H1437 0.960 . S
C1452 H1438 0.960 . S
C1452 H1439 0.960 . S
C1452 C1451 1.524 . S
C1453 C1450 1.403 . S
C1453 C1454 1.392 . S
C1453 C1457 1.495 . S
C1454 C1453 1.392 . S
C1454 C1455 1.385 . S
C1454 C1456 1.478 . S
C1455 H1449 0.930 . S
C1455 C1451 1.400 . S
C1455 C1454 1.385 . S
C1456 C1454 1.478 . S
C1456 C1458 1.381 . S
C1456 C1462 1.383 . S
C1457 C1453 1.495 . S
C1457 H1463 0.959 . S
C1457 H1464 0.961 . S
C1457 H1465 0.960 . S
C1458 C1456 1.381 . S
C1458 C1459 1.394 . S
C1458 H1466 0.930 . S
C1459 C1458 1.394 . S
C1459 C1460 1.383 . S
C1459 H1467 0.929 1_455 S
C1460 C1459 1.383 . S
C1460 C1461 1.377 . S
C1461 H1445 0.930 . S
C1461 C1460 1.377 . S
C1461 C1462 1.379 . S
C1462 H1446 0.931 . S
C1462 C1456 1.383 . S
C1462 C1461 1.379 . S
H1463 C1457 0.959 . S
H1464 C1457 0.961 . S
H1465 C1457 0.960 . S
H1466 C1458 0.930 . S
H1467 C1459 0.929 1_655 S
H1468 C1476 0.929 . S
H1469 C1478 0.930 . S
H1470 C1480 0.930 . S
H1471 C1483 0.929 . S
H1472 C1486 0.930 . S
H1473 C1488 0.960 . S
H1474 C1488 0.960 . S
H1475 C1488 0.960 . S
C1476 H1468 0.929 . S
C1476 C1477 1.377 . S
C1476 C1478 1.384 . S
C1477 C1476 1.377 . S
C1477 C1483 1.390 . S
C1478 H1469 0.930 . S
C1478 C1476 1.384 . S
C1478 C1479 1.372 . S
C1479 C1478 1.372 . S
C1479 C1480 1.400 . S
C1479 C1484 1.490 . S
C1480 H1470 0.930 . S
C1480 C1479 1.400 . S
C1480 C1483 1.386 . S
H1481 C1497 0.930 . S
H1482 C1498 0.931 . S
C1483 H1471 0.929 . S
C1483 C1477 1.390 . S
C1483 C1480 1.386 . S
C1484 C1479 1.490 . S
C1484 C1486 1.395 . S
C1484 C1487 1.403 . S
H1485 C1491 0.930 . S
C1486 H1472 0.930 . S
C1486 C1484 1.395 . S
C1486 C1489 1.403 . S
C1487 C1484 1.403 . S
C1487 C1488 1.524 . S
C1487 C1491 1.400 . S
C1488 H1473 0.960 . S
C1488 H1474 0.960 . S
C1488 H1475 0.960 . S
C1488 C1487 1.524 . S
C1489 C1486 1.403 . S
C1489 C1490 1.392 . S
C1489 C1493 1.495 . S
C1490 C1489 1.392 . S
C1490 C1491 1.385 . S
C1490 C1492 1.478 . S
C1491 H1485 0.930 . S
C1491 C1487 1.400 . S
C1491 C1490 1.385 . S
C1492 C1490 1.478 . S
C1492 C1494 1.381 . S
C1492 C1498 1.383 . S
C1493 C1489 1.495 . S
C1493 H1499 0.959 . S
C1493 H1500 0.961 . S
C1493 H1501 0.960 . S
C1494 C1492 1.381 . S
C1494 C1495 1.394 . S
C1494 H1502 0.930 . S
C1495 C1494 1.394 . S
C1495 C1496 1.383 . S
C1495 H1503 0.929 . S
C1496 C1495 1.383 . S
C1496 C1497 1.377 . S
C1497 H1481 0.930 . S
C1497 C1496 1.377 . S
C1497 C1498 1.379 . S
C1498 H1482 0.931 . S
C1498 C1492 1.383 . S
C1498 C1497 1.379 . S
H1499 C1493 0.959 . S
H1500 C1493 0.961 . S
H1501 C1493 0.960 . S
H1502 C1494 0.930 . S
H1503 C1495 0.929 . S
C649 C1 0.829 . S
C668 C484 0.823 . S
C685 C80 1.198 . S
C704 C545 1.230 . S
C740 C583 2.484 . S
C721 C140 2.514 . S
C757 C211 2.253 . S
C776 C623 2.222 . S
C812 C543 1.217 . S
C793 C31 1.172 . S
C848 C511 2.125 . S
C829 C61 2.071 . S
C884 C620 1.683 . S
C865 C151 1.639 . S
C920 C580 1.792 . S
C901 C200 1.786 . S
C937 C20 0.972 . S
C956 C625 0.993 . S
C992 C540 2.396 . S
C973 C121 2.364 . S
C1009 C181 2.092 . S
C1028 C482 2.094 . S
C1045 C91 1.522 . S
C1064 C585 1.505 . S
C1100 C505 0.831 . S
C1081 C260 0.844 . S
C1117 C320 1.189 . S
C1136 C524 1.227 . S
C1153 C361 2.543 . S
C1172 C562 2.503 . S
C1189 C451 2.252 . S
C1208 C602 2.249 . S
C1225 C271 1.199 . S
C1244 C522 1.221 . S
C1280 C500 2.128 . S
C1261 C301 2.066 . S
C1316 C631 1.678 . S
C1297 C380 1.650 . S
C1352 C591 1.791 . S
C1333 C440 1.791 . S
C1369 C241 0.927 . S
C1388 C604 0.979 . S
C1424 C551 2.391 . S
C1405 C391 2.387 . S
C1460 C503 2.108 . S
C1441 C421 2.091 . S
C1477 C331 1.522 . S
C1496 C564 1.527 . S
