# Generated by pormake.
# Topology llk, (3,12)-cn, num edge types: 1
# Building blocks:
#     Node 0, Type 0, BuildingBlock: KAKCAD_clean_linker_0, # of connection points: 3
#     Node 1, Type 0, BuildingBlock: KAKCAD_clean_linker_0, # of connection points: 3
#     Node 2, Type 0, BuildingBlock: KAKCAD_clean_linker_0, # of connection points: 3
#     Node 3, Type 0, BuildingBlock: KAKCAD_clean_linker_0, # of connection points: 3
#     Node 4, Type 0, BuildingBlock: KAKCAD_clean_linker_0, # of connection points: 3
#     Node 5, Type 0, BuildingBlock: KAKCAD_clean_linker_0, # of connection points: 3
#     Node 6, Type 0, BuildingBlock: KAKCAD_clean_linker_0, # of connection points: 3
#     Node 7, Type 0, BuildingBlock: KAKCAD_clean_linker_0, # of connection points: 3
#     Node 8, Type 0, BuildingBlock: KAKCAD_clean_linker_0, # of connection points: 3
#     Node 9, Type 0, BuildingBlock: KAKCAD_clean_linker_0, # of connection points: 3
#     Node 10, Type 0, BuildingBlock: KAKCAD_clean_linker_0, # of connection points: 3
#     Node 11, Type 0, BuildingBlock: KAKCAD_clean_linker_0, # of connection points: 3
#     Node 12, Type 0, BuildingBlock: KAKCAD_clean_linker_0, # of connection points: 3
#     Node 13, Type 0, BuildingBlock: KAKCAD_clean_linker_0, # of connection points: 3
#     Node 14, Type 0, BuildingBlock: KAKCAD_clean_linker_0, # of connection points: 3
#     Node 15, Type 0, BuildingBlock: KAKCAD_clean_linker_0, # of connection points: 3
#     Node 16, Type 0, BuildingBlock: KAKCAD_clean_linker_0, # of connection points: 3
#     Node 17, Type 0, BuildingBlock: KAKCAD_clean_linker_0, # of connection points: 3
#     Node 18, Type 0, BuildingBlock: KAKCAD_clean_linker_0, # of connection points: 3
#     Node 19, Type 0, BuildingBlock: KAKCAD_clean_linker_0, # of connection points: 3
#     Node 20, Type 0, BuildingBlock: KAKCAD_clean_linker_0, # of connection points: 3
#     Node 21, Type 0, BuildingBlock: KAKCAD_clean_linker_0, # of connection points: 3
#     Node 22, Type 0, BuildingBlock: KAKCAD_clean_linker_0, # of connection points: 3
#     Node 23, Type 0, BuildingBlock: KAKCAD_clean_linker_0, # of connection points: 3
#     Node 24, Type 1, BuildingBlock: EZIPEK_clean_sbu_0, # of connection points: 12
#     Node 25, Type 1, BuildingBlock: EZIPEK_clean_sbu_0, # of connection points: 12
#     Node 26, Type 1, BuildingBlock: EZIPEK_clean_sbu_0, # of connection points: 12
#     Node 27, Type 1, BuildingBlock: EZIPEK_clean_sbu_0, # of connection points: 12
#     Node 28, Type 1, BuildingBlock: EZIPEK_clean_sbu_0, # of connection points: 12
#     Node 29, Type 1, BuildingBlock: EZIPEK_clean_sbu_0, # of connection points: 12
#     Edge 30, Type (0, 1), BuildingBlock: AJUNOK_clean_linker_0, # of connection points: 2
#     Edge 31, Type (0, 1), BuildingBlock: AJUNOK_clean_linker_0, # of connection points: 2
#     Edge 32, Type (0, 1), BuildingBlock: AJUNOK_clean_linker_0, # of connection points: 2
#     Edge 33, Type (0, 1), BuildingBlock: AJUNOK_clean_linker_0, # of connection points: 2
#     Edge 34, Type (0, 1), BuildingBlock: AJUNOK_clean_linker_0, # of connection points: 2
#     Edge 35, Type (0, 1), BuildingBlock: AJUNOK_clean_linker_0, # of connection points: 2
#     Edge 36, Type (0, 1), BuildingBlock: AJUNOK_clean_linker_0, # of connection points: 2
#     Edge 37, Type (0, 1), BuildingBlock: AJUNOK_clean_linker_0, # of connection points: 2
#     Edge 38, Type (0, 1), BuildingBlock: AJUNOK_clean_linker_0, # of connection points: 2
#     Edge 39, Type (0, 1), BuildingBlock: AJUNOK_clean_linker_0, # of connection points: 2
#     Edge 40, Type (0, 1), BuildingBlock: AJUNOK_clean_linker_0, # of connection points: 2
#     Edge 41, Type (0, 1), BuildingBlock: AJUNOK_clean_linker_0, # of connection points: 2
#     Edge 42, Type (0, 1), BuildingBlock: AJUNOK_clean_linker_0, # of connection points: 2
#     Edge 43, Type (0, 1), BuildingBlock: AJUNOK_clean_linker_0, # of connection points: 2
#     Edge 44, Type (0, 1), BuildingBlock: AJUNOK_clean_linker_0, # of connection points: 2
#     Edge 45, Type (0, 1), BuildingBlock: AJUNOK_clean_linker_0, # of connection points: 2
#     Edge 46, Type (0, 1), BuildingBlock: AJUNOK_clean_linker_0, # of connection points: 2
#     Edge 47, Type (0, 1), BuildingBlock: AJUNOK_clean_linker_0, # of connection points: 2
#     Edge 48, Type (0, 1), BuildingBlock: AJUNOK_clean_linker_0, # of connection points: 2
#     Edge 49, Type (0, 1), BuildingBlock: AJUNOK_clean_linker_0, # of connection points: 2
#     Edge 50, Type (0, 1), BuildingBlock: AJUNOK_clean_linker_0, # of connection points: 2
#     Edge 51, Type (0, 1), BuildingBlock: AJUNOK_clean_linker_0, # of connection points: 2
#     Edge 52, Type (0, 1), BuildingBlock: AJUNOK_clean_linker_0, # of connection points: 2
#     Edge 53, Type (0, 1), BuildingBlock: AJUNOK_clean_linker_0, # of connection points: 2
#     Edge 54, Type (0, 1), BuildingBlock: AJUNOK_clean_linker_0, # of connection points: 2
#     Edge 55, Type (0, 1), BuildingBlock: AJUNOK_clean_linker_0, # of connection points: 2
#     Edge 56, Type (0, 1), BuildingBlock: AJUNOK_clean_linker_0, # of connection points: 2
#     Edge 57, Type (0, 1), BuildingBlock: AJUNOK_clean_linker_0, # of connection points: 2
#     Edge 58, Type (0, 1), BuildingBlock: AJUNOK_clean_linker_0, # of connection points: 2
#     Edge 59, Type (0, 1), BuildingBlock: AJUNOK_clean_linker_0, # of connection points: 2
#     Edge 60, Type (0, 1), BuildingBlock: AJUNOK_clean_linker_0, # of connection points: 2
#     Edge 61, Type (0, 1), BuildingBlock: AJUNOK_clean_linker_0, # of connection points: 2
#     Edge 62, Type (0, 1), BuildingBlock: AJUNOK_clean_linker_0, # of connection points: 2
#     Edge 63, Type (0, 1), BuildingBlock: AJUNOK_clean_linker_0, # of connection points: 2
#     Edge 64, Type (0, 1), BuildingBlock: AJUNOK_clean_linker_0, # of connection points: 2
#     Edge 65, Type (0, 1), BuildingBlock: AJUNOK_clean_linker_0, # of connection points: 2
#     Edge 66, Type (0, 1), BuildingBlock: AJUNOK_clean_linker_0, # of connection points: 2
#     Edge 67, Type (0, 1), BuildingBlock: AJUNOK_clean_linker_0, # of connection points: 2
#     Edge 68, Type (0, 1), BuildingBlock: AJUNOK_clean_linker_0, # of connection points: 2
#     Edge 69, Type (0, 1), BuildingBlock: AJUNOK_clean_linker_0, # of connection points: 2
#     Edge 70, Type (0, 1), BuildingBlock: AJUNOK_clean_linker_0, # of connection points: 2
#     Edge 71, Type (0, 1), BuildingBlock: AJUNOK_clean_linker_0, # of connection points: 2
#     Edge 72, Type (0, 1), BuildingBlock: AJUNOK_clean_linker_0, # of connection points: 2
#     Edge 73, Type (0, 1), BuildingBlock: AJUNOK_clean_linker_0, # of connection points: 2
#     Edge 74, Type (0, 1), BuildingBlock: AJUNOK_clean_linker_0, # of connection points: 2
#     Edge 75, Type (0, 1), BuildingBlock: AJUNOK_clean_linker_0, # of connection points: 2
#     Edge 76, Type (0, 1), BuildingBlock: AJUNOK_clean_linker_0, # of connection points: 2
#     Edge 77, Type (0, 1), BuildingBlock: AJUNOK_clean_linker_0, # of connection points: 2
#     Edge 78, Type (0, 1), BuildingBlock: AJUNOK_clean_linker_0, # of connection points: 2
#     Edge 79, Type (0, 1), BuildingBlock: AJUNOK_clean_linker_0, # of connection points: 2
#     Edge 80, Type (0, 1), BuildingBlock: AJUNOK_clean_linker_0, # of connection points: 2
#     Edge 81, Type (0, 1), BuildingBlock: AJUNOK_clean_linker_0, # of connection points: 2
#     Edge 82, Type (0, 1), BuildingBlock: AJUNOK_clean_linker_0, # of connection points: 2
#     Edge 83, Type (0, 1), BuildingBlock: AJUNOK_clean_linker_0, # of connection points: 2
#     Edge 84, Type (0, 1), BuildingBlock: AJUNOK_clean_linker_0, # of connection points: 2
#     Edge 85, Type (0, 1), BuildingBlock: AJUNOK_clean_linker_0, # of connection points: 2
#     Edge 86, Type (0, 1), BuildingBlock: AJUNOK_clean_linker_0, # of connection points: 2
#     Edge 87, Type (0, 1), BuildingBlock: AJUNOK_clean_linker_0, # of connection points: 2
#     Edge 88, Type (0, 1), BuildingBlock: AJUNOK_clean_linker_0, # of connection points: 2
#     Edge 89, Type (0, 1), BuildingBlock: AJUNOK_clean_linker_0, # of connection points: 2
#     Edge 90, Type (0, 1), BuildingBlock: AJUNOK_clean_linker_0, # of connection points: 2
#     Edge 91, Type (0, 1), BuildingBlock: AJUNOK_clean_linker_0, # of connection points: 2
#     Edge 92, Type (0, 1), BuildingBlock: AJUNOK_clean_linker_0, # of connection points: 2
#     Edge 93, Type (0, 1), BuildingBlock: AJUNOK_clean_linker_0, # of connection points: 2
#     Edge 94, Type (0, 1), BuildingBlock: AJUNOK_clean_linker_0, # of connection points: 2
#     Edge 95, Type (0, 1), BuildingBlock: AJUNOK_clean_linker_0, # of connection points: 2
#     Edge 96, Type (0, 1), BuildingBlock: AJUNOK_clean_linker_0, # of connection points: 2
#     Edge 97, Type (0, 1), BuildingBlock: AJUNOK_clean_linker_0, # of connection points: 2
#     Edge 98, Type (0, 1), BuildingBlock: AJUNOK_clean_linker_0, # of connection points: 2
#     Edge 99, Type (0, 1), BuildingBlock: AJUNOK_clean_linker_0, # of connection points: 2
#     Edge 100, Type (0, 1), BuildingBlock: AJUNOK_clean_linker_0, # of connection points: 2
#     Edge 101, Type (0, 1), BuildingBlock: AJUNOK_clean_linker_0, # of connection points: 2
# Relax obj value: 0.106
# Max RMSD: 0.160
# Mean RMSD: 0.134
data_MOF--net-llk--node1-EZIPEK_clean_sbu_0--node2-KAKCAD_clean_linker_0--edge1-AJUNOK_clean_linker_0
_symmetry_space_group_name_H-M    P1
_symmetry_Int_Tables_number       1
_symmetry_cell_setting            triclinic
loop_
_symmetry_equiv_pos_as_xyz
'x, y, z'
_cell_length_a     44.887436
_cell_length_b     44.877315
_cell_length_c     44.876042
_cell_angle_alpha  90.039135
_cell_angle_beta   90.011006
_cell_angle_gamma 90.043138
loop_
_atom_site_label
_atom_site_type_symbol
_atom_site_fract_x
_atom_site_fract_y
_atom_site_fract_z
_atom_type_partial_charge
C0 C 0.03238 0.35859 0.32252 0.0
C1 C 0.04738 0.35234 0.34913 0.0
C2 C 0.03103 0.33741 0.30008 0.0
C3 C 0.04492 0.30959 0.30367 0.0
C4 C 0.06151 0.30399 0.32965 0.0
C5 C 0.06268 0.32528 0.35233 0.0
C6 C 0.03868 0.28574 0.28186 0.0
C7 C 0.03621 0.29274 0.25171 0.0
C8 C 0.023 0.27307 0.23143 0.0
C9 C 0.01356 0.24451 0.24169 0.0
C10 C 0.01803 0.23646 0.2721 0.0
C11 C 0.03042 0.25742 0.29167 0.0
C12 C 1.00894 0.20758 0.28598 0.0
C13 C 0.98493 0.20752 0.30619 0.0
C14 C 0.02947 0.18394 0.28745 0.0
C15 C 0.02703 0.16186 0.30964 0.0
C16 C 1.00431 0.16318 0.33129 0.0
C17 C 0.01741 0.2858 0.20113 0.0
C18 C 0.98885 0.29652 0.19383 0.0
C19 C 0.04189 0.29695 0.1849 0.0
C20 C 0.03833 0.31998 0.16404 0.0
C21 C 0.0101 0.33222 0.15833 0.0
C22 C 0.98521 0.31933 0.17252 0.0
C23 C 0.98262 0.18565 0.32848 0.0
H24 H 0.02014 0.37921 0.31975 0.0
H25 H 0.0175 0.34225 0.2807 0.0
H26 H 0.07267 0.28284 0.33283 0.0
H27 H 0.07467 0.32027 0.37267 0.0
H28 H 0.04291 0.31474 0.24422 0.0
H29 H 0.03207 0.25204 0.31519 0.0
H30 H 1.00282 0.22912 0.22651 0.0
H31 H 0.96923 0.22584 0.30626 0.0
H32 H 0.04877 0.18387 0.27296 0.0
H33 H 0.04409 0.14486 0.31105 0.0
H34 H 0.96966 0.28921 0.20651 0.0
H35 H 0.06426 0.28978 0.19045 0.0
H36 H 0.96449 0.18706 0.34434 0.0
H37 H 0.96314 0.32827 0.16866 0.0
H38 H 0.0579 0.32915 0.15328 0.0
C39 C 0.69707 0.07029 0.3508 0.0
C40 C 0.66888 0.05708 0.34807 0.0
C41 C 0.71764 0.06786 0.32758 0.0
C42 C 0.71028 0.05183 0.30163 0.0
C43 C 0.68115 0.04076 0.29828 0.0
C44 C 0.66064 0.04353 0.3212 0.0
C45 C 0.73354 0.04223 0.28034 0.0
C46 C 0.76095 0.032 0.29095 0.0
C47 C 0.78047 0.01608 0.27256 0.0
C48 C 0.77194 1.00972 0.24272 0.0
C49 C 0.74456 0.02105 0.23154 0.0
C50 C 0.72642 0.03808 0.25034 0.0
C51 C 0.73124 0.01332 0.20208 0.0
C52 C 0.72265 0.03667 0.18297 0.0
C53 C 0.71779 0.98526 0.19817 0.0
C54 C 0.69464 0.98135 0.17734 0.0
C55 C 0.68432 1.0055 0.16014 0.0
C56 C 0.80847 1.0057 0.28699 0.0
C57 C 0.83288 0.02527 0.28859 0.0
C58 C 0.80708 0.98197 0.30744 0.0
C59 C 0.82851 0.97901 0.33007 0.0
C60 C 0.85176 0.99988 0.33302 0.0
C61 C 0.85436 0.02229 0.31118 0.0
C62 C 0.69942 0.03286 0.16242 0.0
H63 H 0.70361 0.08118 0.37133 0.0
H64 H 0.73973 0.0771 0.33057 0.0
H65 H 0.67472 0.02779 0.27897 0.0
H66 H 0.63904 0.03299 0.31876 0.0
H67 H 0.76658 0.03483 0.31429 0.0
H68 H 0.70526 0.0463 0.24204 0.0
H69 H 0.78608 0.99613 0.22867 0.0
H70 H 0.73205 0.05872 0.18591 0.0
H71 H 0.72318 0.96712 0.21313 0.0
H72 H 0.68341 0.96001 0.17624 0.0
H73 H 0.83401 0.04436 0.27386 0.0
H74 H 0.78807 0.96708 0.30734 0.0
H75 H 0.69227 0.0518 0.14927 0.0
H76 H 0.87194 0.03876 0.31268 0.0
H77 H 0.82617 0.96104 0.346 0.0
C78 C 0.95916 0.69011 0.34383 0.0
C79 C 0.9783 0.66548 0.34211 0.0
C80 C 0.9596 0.71161 0.32144 0.0
C81 C 0.97914 0.70854 0.2972 0.0
C82 C 0.99695 0.68296 0.29482 0.0
C83 C 0.99647 0.66158 0.31706 0.0
C84 C 0.98377 0.73309 0.27604 0.0
C85 C 0.988 0.76201 0.28652 0.0
C86 C 0.99758 0.78487 0.26759 0.0
C87 C 1.00352 0.77805 0.23704 0.0
C88 C 0.99825 0.74856 0.22619 0.0
C89 C 0.98796 0.72686 0.24597 0.0
C90 C 1.00407 0.73729 0.19536 0.0
C91 C 0.97949 0.72741 0.17846 0.0
C92 C 0.03219 0.72504 0.18873 0.0
C93 C 0.03519 0.70201 0.16752 0.0
C94 C 0.01007 0.69034 0.15269 0.0
C95 C 1.00143 0.8146 0.28231 0.0
C96 C 0.97606 0.82833 0.29472 0.0
C97 C 0.02957 0.82335 0.29313 0.0
C98 C 0.03208 0.84388 0.31687 0.0
C99 C 1.00648 0.85564 0.33081 0.0
C100 C 0.97853 0.84841 0.31864 0.0
C101 C 0.98239 0.70416 0.15766 0.0
H102 H 0.94468 0.69318 0.3629 0.0
H103 H 0.94544 0.73105 0.32352 0.0
H104 H 0.01261 0.68025 0.27664 0.0
H105 H 0.01159 0.64282 0.31548 0.0
H106 H 0.98515 0.76658 0.31011 0.0
H107 H 0.98434 0.70427 0.23804 0.0
H108 H 0.01171 0.79516 0.22215 0.0
H109 H 0.95736 0.73555 0.18363 0.0
H110 H 0.05137 0.73119 0.20203 0.0
H111 H 0.05684 0.69184 0.1644 0.0
H112 H 0.95403 0.82153 0.28756 0.0
H113 H 0.04949 0.81251 0.28489 0.0
H114 H 0.96262 0.69596 0.14649 0.0
H115 H 0.95839 0.85741 0.32841 0.0
H116 H 0.05397 0.8491 0.32558 0.0
C117 C 0.34975 0.02457 0.32539 0.0
C118 C 0.35181 1.0026 0.34738 0.0
C119 C 0.32789 0.02243 0.30359 0.0
C120 C 0.30777 0.99853 0.30398 0.0
C121 C 0.30978 0.97661 0.32611 0.0
C122 C 0.33196 0.97853 0.34768 0.0
C123 C 0.28419 0.99709 0.28162 0.0
C124 C 0.29145 0.99809 0.25156 0.0
C125 C 0.2693 0.99885 0.22971 0.0
C126 C 0.23879 0.99911 0.23862 0.0
C127 C 0.23152 0.99776 0.26956 0.0
C128 C 0.25456 0.99646 0.2905 0.0
C129 C 0.20097 0.99904 0.28257 0.0
C130 C 0.18938 0.0269 0.29102 0.0
C131 C 0.18966 0.97344 0.29679 0.0
C132 C 0.16878 0.97577 0.32004 0.0
C133 C 0.15855 1.00378 0.32978 0.0
C134 C 0.28071 0.99987 0.19852 0.0
C135 C 0.29073 0.02732 0.18719 0.0
C136 C 0.2927 0.97361 0.18622 0.0
C137 C 0.31556 0.97478 0.16482 0.0
C138 C 0.32706 1.00228 0.15499 0.0
C139 C 0.31355 0.02853 0.16573 0.0
C140 C 0.16846 0.02925 0.31426 0.0
H141 H 0.36508 0.04323 0.32509 0.0
H142 H 0.32636 0.03964 0.28673 0.0
H143 H 0.29433 0.95805 0.32658 0.0
H144 H 0.33349 0.9615 0.36473 0.0
H145 H 0.31477 0.99842 0.24509 0.0
H146 H 0.24935 0.9961 0.31413 0.0
H147 H 0.2213 1.00032 0.22206 0.0
H148 H 0.19854 0.04711 0.28152 0.0
H149 H 0.19893 0.95176 0.29165 0.0
H150 H 0.16154 0.95565 0.33123 0.0
H151 H 0.28299 0.04795 0.19707 0.0
H152 H 0.28636 0.95213 0.19524 0.0
H153 H 0.16158 0.05126 0.32134 0.0
H154 H 0.32203 0.05015 0.15917 0.0
H155 H 0.32521 0.95411 0.15695 0.0
C156 C 0.03274 0.66349 0.69805 0.0
C157 C 0.04806 0.6679 0.67132 0.0
C158 C 0.03473 0.68444 0.72061 0.0
C159 C 0.0522 0.71017 0.71682 0.0
C160 C 0.06926 0.71351 0.69077 0.0
C161 C 0.06721 0.69236 0.66804 0.0
C162 C 0.04859 0.73488 0.73814 0.0
C163 C 0.04512 0.72854 0.76829 0.0
C164 C 0.0324 0.74915 0.78784 0.0
C165 C 0.02494 0.77808 0.77697 0.0
C166 C 0.03132 0.78563 0.74672 0.0
C167 C 0.04273 0.76357 0.72777 0.0
C168 C 0.02534 0.81511 0.73227 0.0
C169 C 0.99639 0.82265 0.72289 0.0
C170 C 0.04947 0.83054 0.7194 0.0
C171 C 0.04503 0.85142 0.69653 0.0
C172 C 0.01626 0.8578 0.68592 0.0
C173 C 0.02504 0.73677 0.81788 0.0
C174 C 0.99653 0.72454 0.82262 0.0
C175 C 0.04867 0.72618 0.83567 0.0
C176 C 0.04461 0.70211 0.85526 0.0
C177 C 0.0167 0.68812 0.85796 0.0
C178 C 0.99236 0.70066 0.84261 0.0
C179 C 0.99189 0.84389 0.70013 0.0
H180 H 0.01798 0.64457 0.70085 0.0
H181 H 0.02087 0.6814 0.74012 0.0
H182 H 0.08301 0.73308 0.68745 0.0
H183 H 0.07914 0.69594 0.64736 0.0
H184 H 0.05013 0.70622 0.77617 0.0
H185 H 0.04518 0.76838 0.7042 0.0
H186 H 0.01467 0.79426 0.79162 0.0
H187 H 0.97741 0.81048 0.73149 0.0
H188 H 0.07209 0.82471 0.72547 0.0
H189 H 0.06428 0.86183 0.68636 0.0
H190 H 0.97805 0.73139 0.8087 0.0
H191 H 0.07106 0.73448 0.83206 0.0
H192 H 0.96942 0.84804 0.6924 0.0
H193 H 0.9705 0.69058 0.84436 0.0
H194 H 0.0637 0.69346 0.86723 0.0
C195 C 0.35069 0.95273 0.68941 0.0
C196 C 0.34726 0.96758 0.66214 0.0
C197 C 0.32802 0.95386 0.71065 0.0
C198 C 0.30191 0.97019 0.70489 0.0
C199 C 0.29769 0.98267 0.67645 0.0
C200 C 0.3201 0.9812 0.65524 0.0
C201 C 0.28153 0.97886 0.7293 0.0
C202 C 0.29317 0.9879 0.75675 0.0
C203 C 0.27564 1.00319 0.77754 0.0
C204 C 0.24561 0.01021 0.77019 0.0
C205 C 0.23348 1.00016 0.74265 0.0
C206 C 0.25139 0.98355 0.72332 0.0
C207 C 0.20383 1.00867 0.73034 0.0
C208 C 0.18264 0.9861 0.72537 0.0
C209 C 0.20147 0.03506 0.71358 0.0
C210 C 0.17995 0.03786 0.69092 0.0
C211 C 0.16036 0.0142 0.68427 0.0
C212 C 0.29115 0.0123 0.80551 0.0
C213 C 0.29278 0.99206 0.82934 0.0
C214 C 0.3121 0.03564 0.80446 0.0
C215 C 0.33503 0.03774 0.82574 0.0
C216 C 0.33784 0.01634 0.84852 0.0
C217 C 0.31567 0.99415 0.85066 0.0
C218 C 0.16117 0.98885 0.70277 0.0
H219 H 0.37146 0.94172 0.69485 0.0
H220 H 0.33163 0.9435 0.73214 0.0
H221 H 0.27819 0.99585 0.67123 0.0
H222 H 0.3171 0.99293 0.63435 0.0
H223 H 0.31664 0.98462 0.76149 0.0
H224 H 0.24225 0.97619 0.70217 0.0
H225 H 0.23218 0.02338 0.78529 0.0
H226 H 0.18445 0.9651 0.73714 0.0
H227 H 0.21797 0.0525 0.7162 0.0
H228 H 0.17951 0.05809 0.67781 0.0
H229 H 0.2777 0.97322 0.83019 0.0
H230 H 0.31201 0.05105 0.78589 0.0
H231 H 0.1465 0.97016 0.69848 0.0
H232 H 0.31701 0.97727 0.86784 0.0
H233 H 0.35114 0.05559 0.82374 0.0
C234 C 0.0445 0.32424 0.65807 0.0
C235 C 0.05716 0.35159 0.66611 0.0
C236 C 0.04264 0.30132 0.67869 0.0
C237 C 0.05378 0.30516 0.70774 0.0
C238 C 0.06858 0.33188 0.71499 0.0
C239 C 0.06988 0.35515 0.69439 0.0
C240 C 0.04556 0.28333 0.73108 0.0
C241 C 0.04236 0.25321 0.72391 0.0
C242 C 0.02693 0.23357 0.74265 0.0
C243 C 0.01623 0.24416 0.77055 0.0
C244 C 0.02148 0.27428 0.77892 0.0
C245 C 0.03591 0.29335 0.7589 0.0
C246 C 0.0113 0.28837 0.80722 0.0
C247 C 0.98999 0.31133 0.80553 0.0
C248 C 0.02946 0.28684 0.83272 0.0
C249 C 0.02777 0.30897 0.85492 0.0
C250 C 1.0083 0.33337 0.85175 0.0
C251 C 0.02015 0.20372 0.72955 0.0
C252 C 0.99134 0.19764 0.71871 0.0
C253 C 0.04397 0.18634 0.71881 0.0
C254 C 0.03966 0.16562 0.69583 0.0
C255 C 0.01133 0.16134 0.68325 0.0
C256 C 0.98694 0.17647 0.69591 0.0
C257 C 0.98861 0.33362 0.82741 0.0
H258 H 0.03411 0.32128 0.63646 0.0
H259 H 0.03044 0.28148 0.67235 0.0
H260 H 0.07785 0.33535 0.73701 0.0
H261 H 0.07979 0.37621 0.70084 0.0
H262 H 0.05016 0.24535 0.70243 0.0
H263 H 0.03804 0.31675 0.76458 0.0
H264 H 1.00385 0.22949 0.78515 0.0
H265 H 0.97622 0.31356 0.78582 0.0
H266 H 0.04669 0.27004 0.83425 0.0
H267 H 0.04314 0.30812 0.87351 0.0
H268 H 0.97267 0.21113 0.7259 0.0
H269 H 0.06649 0.19085 0.72627 0.0
H270 H 0.97307 0.35186 0.82457 0.0
H271 H 0.96482 0.17347 0.68676 0.0
H272 H 0.05879 0.15396 0.68684 0.0
C273 C 0.69502 0.96287 0.67118 0.0
C274 C 0.66721 0.97656 0.67472 0.0
C275 C 0.71651 0.96554 0.69346 0.0
C276 C 0.71055 0.98248 0.71915 0.0
C277 C 0.68207 0.99488 0.72308 0.0
C278 C 0.66056 0.9918 0.70111 0.0
C279 C 0.73462 0.99055 0.74006 0.0
C280 C 0.76251 0.99885 0.72915 0.0
C281 C 0.78414 0.01136 0.74781 0.0
C282 C 0.77729 0.01618 0.77842 0.0
C283 C 0.74903 1.00716 0.7897 0.0
C284 C 0.72854 0.9938 0.77034 0.0
C285 C 0.73765 0.01282 0.82042 0.0
C286 C 0.72902 0.98809 0.83774 0.0
C287 C 0.72486 0.04069 0.82707 0.0
C288 C 0.7022 0.04318 0.84866 0.0
C289 C 0.69173 0.01781 0.86379 0.0
C290 C 0.81277 0.0192 0.73291 0.0
C291 C 0.8348 0.99714 0.73003 0.0
C292 C 0.81316 0.04321 0.71271 0.0
C293 C 0.83367 0.04405 0.68905 0.0
C294 C 0.85428 0.02079 0.68482 0.0
C295 C 0.85539 0.99801 0.70643 0.0
C296 C 0.7062 0.99051 0.85898 0.0
H297 H 0.7004 0.95105 0.65082 0.0
H298 H 0.73813 0.9554 0.69005 0.0
H299 H 0.6769 1.00863 0.74223 0.0
H300 H 0.63935 1.00299 0.70392 0.0
H301 H 0.76719 0.99673 0.70552 0.0
H302 H 0.70689 0.98713 0.77879 0.0
H303 H 0.79338 0.02675 0.79297 0.0
H304 H 0.73775 0.96617 0.83261 0.0
H305 H 0.73024 0.05993 0.81354 0.0
H306 H 0.69139 0.0645 0.85195 0.0
H307 H 0.83445 0.97782 0.74449 0.0
H308 H 0.79594 0.06008 0.71376 0.0
H309 H 0.69861 0.97063 0.87038 0.0
H310 H 0.87097 0.97975 0.70402 0.0
H311 H 0.83262 0.06237 0.67339 0.0
C312 C 0.35239 0.33022 0.96128 0.0
C313 C 0.34806 0.35615 0.9782 0.0
C314 C 0.33034 0.30825 0.96063 0.0
C315 C 0.30388 0.31211 0.97692 0.0
C316 C 0.29916 0.33895 0.99239 0.0
C317 C 0.32099 0.36077 0.9929 0.0
C318 C 0.28267 0.28735 0.98124 0.0
C319 C 0.29308 0.25892 0.98837 0.0
C320 C 0.27382 0.23696 0.99943 0.0
C321 C 0.24319 0.2441 1.00384 0.0
C322 C 0.23243 0.27279 0.99556 0.0
C323 C 0.25232 0.29343 0.98339 0.0
C324 C 0.20203 0.2848 1.00175 0.0
C325 C 0.18482 0.29479 0.97748 0.0
C326 C 0.19597 0.29689 0.03006 0.0
C327 C 0.17501 0.32001 0.03354 0.0
C328 C 0.15978 0.33176 1.00872 0.0
C329 C 0.28811 0.20799 1.00741 0.0
C330 C 0.29017 0.18526 0.98591 0.0
C331 C 0.30781 0.20709 0.03182 0.0
C332 C 0.33014 0.18524 0.03372 0.0
C333 C 0.33355 0.1637 0.01116 0.0
C334 C 0.31244 0.16324 0.98789 0.0
C335 C 0.16415 0.31803 0.98087 0.0
H336 H 0.37331 0.3263 0.9499 0.0
H337 H 0.33443 0.28785 0.94838 0.0
H338 H 0.27932 0.34247 1.00567 0.0
H339 H 0.31728 0.38076 1.00596 0.0
H340 H 0.31674 0.25421 0.98694 0.0
H341 H 0.24435 0.31551 0.97755 0.0
H342 H 0.22826 0.22795 0.01375 0.0
H343 H 0.18952 0.28664 0.95524 0.0
H344 H 0.20952 0.29056 0.049 0.0
H345 H 0.17237 0.33013 0.05529 0.0
H346 H 0.27606 0.18588 0.96634 0.0
H347 H 0.30737 0.22473 0.04832 0.0
H348 H 0.1526 0.32626 0.96135 0.0
H349 H 0.31431 0.14699 0.97014 0.0
H350 H 0.34553 0.18594 0.0523 0.0
C351 C 0.3465 0.69353 0.07056 0.0
C352 C 0.34421 0.66668 0.05471 0.0
C353 C 0.32378 0.71467 0.06858 0.0
C354 C 0.29878 0.70919 0.05049 0.0
C355 C 0.29568 0.68123 0.03668 0.0
C356 C 0.31811 0.66015 0.03893 0.0
C357 C 0.2782 0.73346 0.04209 0.0
C358 C 0.28944 0.76157 0.03491 0.0
C359 C 0.27169 0.7831 0.02093 0.0
C360 C 0.24178 0.7756 0.01311 0.0
C361 C 0.22995 0.74729 0.02146 0.0
C362 C 0.24828 0.72718 0.03661 0.0
C363 C 0.19979 0.73545 0.01357 0.0
C364 C 0.18067 0.72688 0.03696 0.0
C365 C 0.19525 0.72237 0.98539 0.0
C366 C 0.17376 0.69976 0.98137 0.0
C367 C 0.15659 0.6894 1.00554 0.0
C368 C 0.28683 0.81219 0.0146 0.0
C369 C 0.29857 0.82841 0.03882 0.0
C370 C 0.29769 0.81871 0.98591 0.0
C371 C 0.32076 0.83976 0.98185 0.0
C372 C 0.33382 0.85439 1.00645 0.0
C373 C 0.32178 0.84901 0.03485 0.0
C374 C 0.15958 0.70406 0.03308 0.0
H375 H 0.3664 0.69871 0.0832 0.0
H376 H 0.32649 0.73581 0.07991 0.0
H377 H 0.27703 0.67634 0.02216 0.0
H378 H 0.31602 0.63962 0.02635 0.0
H379 H 0.31282 0.76637 0.03875 0.0
H380 H 0.23952 0.70546 0.04267 0.0
H381 H 0.22803 0.79144 1.00121 0.0
H382 H 0.18409 0.7358 0.05915 0.0
H383 H 0.2102 0.7276 0.96718 0.0
H384 H 0.17215 0.68888 0.95988 0.0
H385 H 0.2913 0.82341 0.0613 0.0
H386 H 0.28994 0.80597 0.96692 0.0
H387 H 0.14657 0.69684 0.05209 0.0
H388 H 0.33105 0.86002 0.05424 0.0
H389 H 0.32958 0.84325 0.95966 0.0
C390 C 0.69809 0.35323 0.9856 0.0
C391 C 0.67107 0.35184 1.00104 0.0
C392 C 0.71889 0.33053 0.989 0.0
C393 C 0.71297 0.30655 1.00826 0.0
C394 C 0.68583 0.30538 0.02371 0.0
C395 C 0.66495 0.32786 0.02002 0.0
C396 C 0.73536 0.28315 0.01286 0.0
C397 C 0.76518 0.2908 0.01642 0.0
C398 C 0.78699 0.26909 0.02095 0.0
C399 C 0.77834 0.23854 0.02254 0.0
C400 C 0.74769 0.23078 0.01924 0.0
C401 C 0.72683 0.25334 0.0142 0.0
C402 C 0.73491 0.20011 0.02099 0.0
C403 C 0.72313 0.18741 0.9948 0.0
C404 C 0.72408 0.18974 0.04852 0.0
C405 C 0.70073 0.16878 0.04979 0.0
C406 C 0.68742 0.15782 0.02351 0.0
C407 C 0.81799 0.28091 0.02263 0.0
C408 C 0.83297 0.28683 0.99576 0.0
C409 C 0.82643 0.29724 0.04811 0.0
C410 C 0.84768 0.32024 0.04628 0.0
C411 C 0.86114 0.32757 0.01892 0.0
C412 C 0.85415 0.30984 0.99389 0.0
C413 C 0.69969 0.16667 0.99603 0.0
H414 H 0.70295 0.37172 0.97086 0.0
H415 H 0.73954 0.33171 0.97656 0.0
H416 H 0.68098 0.28743 0.03909 0.0
H417 H 0.64423 0.32686 0.03238 0.0
H418 H 0.77162 0.31412 0.01574 0.0
H419 H 0.70354 0.24753 0.01121 0.0
H420 H 0.7949 0.22139 0.02612 0.0
H421 H 0.73018 0.19564 0.97324 0.0
H422 H 0.73173 0.19992 0.06905 0.0
H423 H 0.69172 0.1628 0.07135 0.0
H424 H 0.8261 0.27569 0.97546 0.0
H425 H 0.81454 0.29408 0.06887 0.0
H426 H 0.69023 0.15854 0.97536 0.0
H427 H 0.8635 0.31504 0.97228 0.0
H428 H 0.85261 0.33317 0.06606 0.0
C429 C 0.69318 0.66944 0.07658 0.0
C430 C 0.66442 0.67439 0.06542 0.0
C431 C 0.71504 0.6914 0.07355 0.0
C432 C 0.70856 0.71815 0.05849 0.0
C433 C 0.6789 0.72384 0.04998 0.0
C434 C 0.65708 0.70227 0.05359 0.0
C435 C 0.73268 0.7373 0.04635 0.0
C436 C 0.7587 0.72431 0.03505 0.0
C437 C 0.77778 0.74009 0.01602 0.0
C438 C 0.76994 0.76944 1.00722 0.0
C439 C 0.74409 0.78299 0.0194 0.0
C440 C 0.72703 0.7673 0.04021 0.0
C441 C 0.73058 0.81125 1.00855 0.0
C442 C 0.72875 0.83564 0.02813 0.0
C443 C 0.7106 0.81003 0.98439 0.0
C444 C 0.68823 0.83168 0.98094 0.0
C445 C 0.68541 0.85522 1.00147 0.0
C446 C 0.80423 0.72351 1.00476 0.0
C447 C 0.83155 0.7258 0.01989 0.0
C448 C 0.79985 0.69917 0.98545 0.0
C449 C 0.82148 0.67676 0.9827 0.0
C450 C 0.84801 0.67796 0.99937 0.0
C451 C 0.85328 0.7034 0.01707 0.0
C452 C 0.70655 0.85736 0.02461 0.0
H453 H 0.69914 0.64801 0.08592 0.0
H454 H 0.73742 0.68657 0.08113 0.0
H455 H 0.67277 0.74371 0.0378 0.0
H456 H 0.63515 0.70641 0.04438 0.0
H457 H 0.76345 0.70104 0.03944 0.0
H458 H 0.70734 0.77781 0.04945 0.0
H459 H 0.78325 0.78119 0.99089 0.0
H460 H 0.74293 0.83655 0.04765 0.0
H461 H 0.71068 0.79091 0.96962 0.0
H462 H 0.67242 0.8294 0.96284 0.0
H463 H 0.8352 0.74376 0.03562 0.0
H464 H 0.77873 0.69643 0.97408 0.0
H465 H 0.70481 0.87484 0.04117 0.0
H466 H 0.87346 0.7051 0.03019 0.0
H467 H 0.81693 0.65789 0.96834 0.0
C468 C 0.54459 0.86615 0.81291 0.0
C469 C 0.55839 0.86097 0.84038 0.0
C470 C 0.5442 0.84405 0.79136 0.0
C471 C 0.55778 0.81634 0.79682 0.0
C472 C 0.5745 0.81243 0.82299 0.0
C473 C 0.57485 0.83472 0.84469 0.0
C474 C 0.54937 0.79071 0.77794 0.0
C475 C 0.54454 0.7951 0.74759 0.0
C476 C 0.52675 0.77558 0.73109 0.0
C477 C 0.51594 0.74915 0.7448 0.0
C478 C 0.52339 0.74308 0.77501 0.0
C479 C 0.53973 0.76421 0.79119 0.0
C480 C 0.5136 0.71623 0.79191 0.0
C481 C 0.49061 0.7189 0.81307 0.0
C482 C 0.5328 0.69162 0.79392 0.0
C483 C 0.52999 0.67098 0.8173 0.0
C484 C 0.50807 0.67455 0.83955 0.0
C485 C 0.51764 0.78698 0.70131 0.0
C486 C 0.49173 0.80452 0.69928 0.0
C487 C 0.53983 0.79085 0.67954 0.0
C488 C 0.53733 0.81319 0.65785 0.0
C489 C 0.51235 0.83219 0.65701 0.0
C490 C 0.48911 0.82685 0.67743 0.0
C491 C 0.48774 0.69824 0.83645 0.0
H492 H 0.53168 0.88618 0.80908 0.0
H493 H 0.53075 0.84782 0.77168 0.0
H494 H 0.58562 0.7915 0.82749 0.0
H495 H 0.58626 0.83067 0.86557 0.0
H496 H 0.55233 0.81557 0.73731 0.0
H497 H 0.54323 0.76071 0.81485 0.0
H498 H 0.50184 0.73394 0.73245 0.0
H499 H 0.47601 0.73812 0.81262 0.0
H500 H 0.55137 0.68952 0.77864 0.0
H501 H 0.5461 0.6531 0.81886 0.0
H502 H 0.47474 0.8029 0.71635 0.0
H503 H 0.56057 0.77862 0.68122 0.0
H504 H 0.47008 0.70135 0.85259 0.0
H505 H 0.46948 0.84086 0.6774 0.0
H506 H 0.55606 0.81691 0.64312 0.0
C507 C 0.19918 0.48277 0.85767 0.0
C508 C 0.1722 0.46883 0.85055 0.0
C509 C 0.22185 0.48426 0.83678 0.0
C510 C 0.21812 0.47156 0.80838 0.0
C511 C 0.192 0.45538 0.80215 0.0
C512 C 0.16908 0.4541 0.82313 0.0
C513 C 0.23938 0.47952 0.78455 0.0
C514 C 0.2695 0.48304 0.79132 0.0
C515 C 0.28865 0.49887 0.7725 0.0
C516 C 0.27752 0.50957 0.74477 0.0
C517 C 0.2474 0.5037 0.73663 0.0
C518 C 0.22878 0.489 0.75688 0.0
C519 C 0.23289 0.51323 0.70827 0.0
C520 C 0.21358 0.53794 0.70858 0.0
C521 C 0.22981 0.49238 0.68507 0.0
C522 C 0.20696 0.49521 0.6638 0.0
C523 C 0.18628 0.51881 0.66531 0.0
C524 C 0.31848 0.50599 0.78553 0.0
C525 C 0.32353 0.53436 0.79794 0.0
C526 C 0.33661 0.48224 0.79518 0.0
C527 C 0.35722 0.48609 0.8184 0.0
C528 C 0.36067 0.51392 0.83238 0.0
C529 C 0.3445 0.53831 0.821 0.0
C530 C 0.19072 0.5408 0.6873 0.0
H531 H 0.20197 0.49449 0.87861 0.0
H532 H 0.24133 0.49742 0.84225 0.0
H533 H 0.18873 0.445 0.7806 0.0
H534 H 0.14849 0.44283 0.81749 0.0
H535 H 0.27766 0.47536 0.81275 0.0
H536 H 0.20533 0.48654 0.75158 0.0
H537 H 0.29183 0.52222 0.73003 0.0
H538 H 0.21475 0.55389 0.72667 0.0
H539 H 0.24355 0.47255 0.68481 0.0
H540 H 0.20437 0.47781 0.64727 0.0
H541 H 0.30935 0.55288 0.79179 0.0
H542 H 0.33281 0.45997 0.78665 0.0
H543 H 0.17584 0.55972 0.68878 0.0
H544 H 0.34654 0.56004 0.83132 0.0
H545 H 0.36953 0.46693 0.82637 0.0
C546 C 0.52492 0.20568 0.86327 0.0
C547 C 0.54208 0.17999 0.85897 0.0
C548 C 0.52325 0.22709 0.84111 0.0
C549 C 0.53869 0.22317 0.81418 0.0
C550 C 0.55703 0.19812 0.81039 0.0
C551 C 0.55864 0.17655 0.83268 0.0
C552 C 0.53237 0.24345 0.78921 0.0
C553 C 0.52912 0.27383 0.79454 0.0
C554 C 0.51668 0.29279 0.7732 0.0
C555 C 0.50844 0.28083 0.74491 0.0
C556 C 0.51324 0.24998 0.73889 0.0
C557 C 0.52513 0.23186 0.7613 0.0
C558 C 0.50552 0.23424 0.71056 0.0
C559 C 0.48198 0.21343 0.71077 0.0
C560 C 0.52706 0.23181 0.68795 0.0
C561 C 0.526 0.2083 0.66718 0.0
C562 C 0.50361 0.18626 0.66871 0.0
C563 C 0.51113 0.32385 0.78386 0.0
C564 C 0.48329 0.33088 0.79652 0.0
C565 C 0.53591 0.34119 0.79235 0.0
C566 C 0.53355 0.36285 0.81483 0.0
C567 C 0.50622 0.36823 0.82917 0.0
C568 C 0.48082 0.35294 0.81878 0.0
C569 C 0.48099 0.18984 0.69013 0.0
H570 H 0.51134 0.20839 0.88305 0.0
H571 H 0.50836 0.24579 0.84439 0.0
H572 H 0.56924 0.19474 0.78985 0.0
H573 H 0.57196 0.15675 0.82903 0.0
H574 H 0.5349 0.28262 0.81634 0.0
H575 H 0.52737 0.2081 0.75735 0.0
H576 H 0.49838 0.29503 0.72822 0.0
H577 H 0.46553 0.2141 0.72842 0.0
H578 H 0.54606 0.24672 0.68779 0.0
H579 H 0.54377 0.2064 0.65097 0.0
H580 H 0.46399 0.31731 0.79136 0.0
H581 H 0.55782 0.33581 0.78378 0.0
H582 H 0.46298 0.17385 0.69159 0.0
H583 H 0.45945 0.35642 0.82942 0.0
H584 H 0.55349 0.37436 0.8221 0.0
C585 C 0.85776 0.47896 0.8198 0.0
C586 C 0.85021 0.46586 0.84704 0.0
C587 C 0.83631 0.48279 0.79798 0.0
C588 C 0.80686 0.47316 0.80275 0.0
C589 C 0.79988 0.45795 0.82927 0.0
C590 C 0.8214 0.45467 0.8515 0.0
C591 C 0.78328 0.48296 0.78191 0.0
C592 C 0.78986 0.48648 0.75175 0.0
C593 C 0.77159 0.50333 0.73302 0.0
C594 C 0.74423 0.51466 0.7443 0.0
C595 C 0.73613 0.5088 0.77439 0.0
C596 C 0.75609 0.49347 0.79282 0.0
C597 C 0.70797 0.5187 0.78893 0.0
C598 C 0.70893 0.54262 0.80921 0.0
C599 C 0.68405 0.49856 0.7909 0.0
C600 C 0.6627 0.50118 0.81367 0.0
C601 C 0.6649 0.52383 0.83535 0.0
C602 C 0.78468 0.51016 0.70327 0.0
C603 C 0.80195 0.53614 0.69989 0.0
C604 C 0.78989 0.48632 0.6836 0.0
C605 C 0.81307 0.48751 0.66267 0.0
C606 C 0.83158 0.51281 0.66036 0.0
C607 C 0.82506 0.53747 0.67869 0.0
C608 C 0.68761 0.54525 0.83201 0.0
H609 H 0.87974 0.48833 0.81624 0.0
H610 H 0.84251 0.49532 0.77833 0.0
H611 H 0.77754 0.44986 0.83342 0.0
H612 H 0.81529 0.44456 0.87255 0.0
H613 H 0.81067 0.47775 0.74307 0.0
H614 H 0.75081 0.49105 0.81627 0.0
H615 H 0.72978 0.52779 0.73015 0.0
H616 H 0.72756 0.55798 0.80886 0.0
H617 H 0.68326 0.47931 0.77633 0.0
H618 H 0.64556 0.48428 0.81543 0.0
H619 H 0.79931 0.55444 0.71542 0.0
H620 H 0.77792 0.46554 0.68644 0.0
H621 H 0.68962 0.56344 0.84775 0.0
H622 H 0.83864 0.55739 0.67751 0.0
H623 H 0.81768 0.46769 0.64971 0.0
C624 C 0.46336 0.16698 0.19582 0.0
C625 C 0.48402 0.16565 0.1725 0.0
C626 C 0.46427 0.19076 0.21583 0.0
C627 C 0.48558 0.2134 0.21224 0.0
C628 C 0.50557 0.21232 0.18824 0.0
C629 C 0.50486 0.18849 0.16856 0.0
C630 C 0.48901 0.23696 0.23464 0.0
C631 C 0.49276 0.22939 0.26447 0.0
C632 C 0.50099 0.25081 0.28559 0.0
C633 C 0.50513 0.28091 0.27634 0.0
C634 C 0.50026 0.28873 0.24596 0.0
C635 C 0.4922 0.26647 0.22567 0.0
C636 C 0.50451 0.31892 0.23274 0.0
C637 C 0.47939 0.33382 0.22131 0.0
C638 C 0.53272 0.32691 0.22166 0.0
C639 C 0.53553 0.34783 0.19846 0.0
C640 C 0.51015 0.36113 0.18559 0.0
C641 C 0.50602 0.23913 0.31627 0.0
C642 C 0.48112 0.2328 0.33421 0.0
C643 C 0.53287 0.22421 0.32249 0.0
C644 C 0.5343 0.20225 0.34481 0.0
C645 C 0.50888 0.1946 0.36156 0.0
C646 C 0.48252 0.21091 0.35656 0.0
C647 C 0.48215 0.35457 0.19805 0.0
H648 H 0.44717 0.14933 0.19893 0.0
H649 H 0.44871 0.1913 0.23428 0.0
H650 H 0.52247 0.22933 0.18536 0.0
H651 H 0.52089 0.18758 0.15051 0.0
H652 H 0.49069 0.20623 0.27114 0.0
H653 H 0.48929 0.27204 0.20231 0.0
H654 H 0.512 0.2977 0.29226 0.0
H655 H 0.45728 0.32745 0.22862 0.0
H656 H 0.55236 0.31502 0.22906 0.0
H657 H 0.55743 0.35205 0.18926 0.0
H658 H 0.45979 0.2429 0.32915 0.0
H659 H 0.55212 0.22769 0.30835 0.0
H660 H 0.46217 0.36456 0.18893 0.0
H661 H 0.46231 0.20536 0.3685 0.0
H662 H 0.555 0.19032 0.34807 0.0
C663 C 0.85721 0.52036 0.19642 0.0
C664 C 0.85197 0.53792 0.17119 0.0
C665 C 0.8361 0.51883 0.2189 0.0
C666 C 0.80946 0.53503 0.21659 0.0
C667 C 0.80482 0.55377 0.19197 0.0
C668 C 0.82602 0.5552 0.16932 0.0
C669 C 0.78572 0.52987 0.23856 0.0
C670 C 0.79286 0.52716 0.26862 0.0
C671 C 0.77195 0.51713 0.28941 0.0
C672 C 0.74247 0.51043 0.27963 0.0
C673 C 0.73484 0.51444 0.24904 0.0
C674 C 0.75674 0.52406 0.22906 0.0
C675 C 0.70509 0.50844 0.23544 0.0
C676 C 0.70132 0.48248 0.21819 0.0
C677 C 0.68584 0.53257 0.23012 0.0
C678 C 0.66475 0.53151 0.20694 0.0
C679 C 0.66254 0.5064 0.18816 0.0
C680 C 0.78397 0.5128 0.32013 0.0
C681 C 0.79569 0.48481 0.32808 0.0
C682 C 0.79453 0.5381 0.33548 0.0
C683 C 0.81813 0.53589 0.35589 0.0
C684 C 0.83159 0.50826 0.36189 0.0
C685 C 0.81906 0.48254 0.34895 0.0
C686 C 0.68026 0.48141 0.19497 0.0
H687 H 0.877 0.50662 0.19806 0.0
H688 H 0.84002 0.50378 0.23735 0.0
H689 H 0.78454 0.56666 0.18991 0.0
H690 H 0.82186 0.56913 0.15006 0.0
H691 H 0.81548 0.53187 0.27581 0.0
H692 H 0.75138 0.52582 0.20554 0.0
H693 H 0.72603 0.50232 0.2953 0.0
H694 H 0.7164 0.46386 0.22105 0.0
H695 H 0.68888 0.55327 0.24218 0.0
H696 H 0.65151 0.55118 0.20252 0.0
H697 H 0.78882 0.46503 0.31605 0.0
H698 H 0.78663 0.56006 0.32932 0.0
H699 H 0.6787 0.46138 0.1816 0.0
H700 H 0.82882 0.4609 0.35325 0.0
H701 H 0.82692 0.55606 0.36585 0.0
C702 C 0.54693 0.81601 0.15418 0.0
C703 C 0.55918 0.84422 0.15932 0.0
C704 C 0.54575 0.79524 0.17701 0.0
C705 C 0.55709 0.80218 0.20544 0.0
C706 C 0.57216 0.82937 0.20958 0.0
C707 C 0.57287 0.85044 0.18672 0.0
C708 C 0.54804 0.78361 0.23119 0.0
C709 C 0.54349 0.75308 0.22738 0.0
C710 C 0.52561 0.73683 0.24707 0.0
C711 C 0.51465 0.75092 0.27319 0.0
C712 C 0.52178 0.78126 0.27873 0.0
C713 C 0.53805 0.79722 0.2574 0.0
C714 C 0.51173 0.79844 0.30529 0.0
C715 C 0.49176 0.82228 0.30131 0.0
C716 C 0.52836 0.79722 0.33177 0.0
C717 C 0.52634 0.82023 0.35296 0.0
C718 C 0.50789 0.84517 0.34799 0.0
C719 C 0.51591 0.70712 0.23595 0.0
C720 C 0.48876 0.70502 0.22044 0.0
C721 C 0.53773 0.68527 0.23065 0.0
C722 C 0.53365 0.6636 0.20848 0.0
C723 C 0.50765 0.66323 0.19091 0.0
C724 C 0.48463 0.68328 0.19823 0.0
C725 C 0.48978 0.84529 0.32241 0.0
H726 H 0.53579 0.81093 0.13336 0.0
H727 H 0.53343 0.77491 0.1729 0.0
H728 H 0.58166 0.83515 0.231 0.0
H729 H 0.58256 0.87216 0.19094 0.0
H730 H 0.55157 0.74235 0.20727 0.0
H731 H 0.54132 0.82094 0.26062 0.0
H732 H 0.50047 0.73879 0.28848 0.0
H733 H 0.47916 0.82415 0.2808 0.0
H734 H 0.54457 0.77965 0.33505 0.0
H735 H 0.54055 0.81933 0.37246 0.0
H736 H 0.47182 0.72194 0.22345 0.0
H737 H 0.55919 0.6868 0.2416 0.0
H738 H 0.47476 0.86368 0.3182 0.0
H739 H 0.46394 0.68311 0.18583 0.0
H740 H 0.55185 0.64853 0.20365 0.0
C741 C 0.19356 0.48913 0.16793 0.0
C742 C 0.17186 0.51151 0.16708 0.0
C743 C 0.21521 0.48955 0.19005 0.0
C744 C 0.21509 0.51219 0.21159 0.0
C745 C 0.19339 0.53462 0.21067 0.0
C746 C 0.17194 0.53439 0.18831 0.0
C747 C 0.23759 0.51224 0.23512 0.0
C748 C 0.26758 0.51057 0.2277 0.0
C749 C 0.28956 0.50986 0.24972 0.0
C750 C 0.28093 0.51037 0.28028 0.0
C751 C 0.25011 0.51216 0.28773 0.0
C752 C 0.22898 0.5133 0.26485 0.0
C753 C 0.2375 0.5121 0.31841 0.0
C754 C 0.22801 0.48487 0.33068 0.0
C755 C 0.22458 0.53853 0.3293 0.0
C756 C 0.20142 0.53765 0.35034 0.0
C757 C 0.19052 0.51029 0.36114 0.0
C758 C 0.32062 0.50867 0.23819 0.0
C759 C 0.33163 0.48116 0.22796 0.0
C760 C 0.3329 0.5349 0.22615 0.0
C761 C 0.35376 0.53365 0.20284 0.0
C762 C 0.36305 0.50613 0.19101 0.0
C763 C 0.35259 0.47988 0.20471 0.0
C764 C 0.20486 0.48396 0.35177 0.0
H765 H 0.19371 0.47144 0.15148 0.0
H766 H 0.23178 0.47201 0.19061 0.0
H767 H 0.19319 0.55232 0.2271 0.0
H768 H 0.15519 0.55176 0.1878 0.0
H769 H 0.27393 0.51005 0.20434 0.0
H770 H 0.20542 0.51425 0.27028 0.0
H771 H 0.29762 0.50949 0.29766 0.0
H772 H 0.23655 0.46408 0.32186 0.0
H773 H 0.23058 0.55977 0.31952 0.0
H774 H 0.19112 0.55837 0.35719 0.0
H775 H 0.32176 0.46058 0.23583 0.0
H776 H 0.32413 0.55641 0.23273 0.0
H777 H 0.19685 0.46243 0.35914 0.0
H778 H 0.35887 0.45827 0.19602 0.0
H779 H 0.36152 0.5543 0.19305 0.0
C780 C 0.85877 0.81803 0.5359 0.0
C781 C 0.85223 0.84524 0.54963 0.0
C782 C 0.83728 0.79591 0.53432 0.0
C783 C 0.80888 0.80046 0.54679 0.0
C784 C 0.80338 0.82666 0.56308 0.0
C785 C 0.82493 0.84906 0.56433 0.0
C786 C 0.78432 0.78024 0.53818 0.0
C787 C 0.79009 0.75006 0.5336 0.0
C788 C 0.77093 0.7323 0.51663 0.0
C789 C 0.74363 0.74458 0.50625 0.0
C790 C 0.73634 0.77463 0.51333 0.0
C791 C 0.75705 0.79204 0.5289 0.0
C792 C 0.7086 0.79031 0.50397 0.0
C793 C 0.71003 0.81105 0.4805 0.0
C794 C 0.68479 0.79247 0.5242 0.0
C795 C 0.66394 0.81575 0.52201 0.0
C796 C 0.66657 0.83777 0.49976 0.0
C797 C 0.78344 0.7028 0.50791 0.0
C798 C 0.80108 0.70112 0.48203 0.0
C799 C 0.78803 0.68136 0.5303 0.0
C800 C 0.81123 0.66049 0.52804 0.0
C801 C 0.83068 0.66057 0.5034 0.0
C802 C 0.82435 0.68024 0.47976 0.0
C803 C 0.68923 0.83437 0.47832 0.0
H804 H 0.87967 0.81477 0.52426 0.0
H805 H 0.84228 0.77635 0.52111 0.0
H806 H 0.7819 0.83054 0.57336 0.0
H807 H 0.81975 0.86989 0.57539 0.0
H808 H 0.8111 0.74081 0.54121 0.0
H809 H 0.75246 0.81555 0.53214 0.0
H810 H 0.72867 0.73128 0.49276 0.0
H811 H 0.72862 0.81054 0.4651 0.0
H812 H 0.68366 0.77755 0.54313 0.0
H813 H 0.64682 0.81754 0.53892 0.0
H814 H 0.79873 0.71782 0.46477 0.0
H815 H 0.77555 0.68265 0.55092 0.0
H816 H 0.69157 0.85038 0.46043 0.0
H817 H 0.83821 0.68042 0.46002 0.0
H818 H 0.81523 0.6457 0.54667 0.0
C819 C 0.86011 0.19801 0.47917 0.0
C820 C 0.85292 0.17185 0.46379 0.0
C821 C 0.83955 0.22094 0.48123 0.0
C822 C 0.81147 0.21835 0.46757 0.0
C823 C 0.80531 0.19312 0.44995 0.0
C824 C 0.82588 0.16984 0.44828 0.0
C825 C 0.7877 0.23965 0.47582 0.0
C826 C 0.7949 0.26925 0.48206 0.0
C827 C 0.77553 0.28751 0.49821 0.0
C828 C 0.74692 0.27659 0.50616 0.0
C829 C 0.73837 0.24744 0.49725 0.0
C830 C 0.75916 0.22927 0.48266 0.0
C831 C 0.70899 0.23344 0.50378 0.0
C832 C 0.7023 0.22319 0.53263 0.0
C833 C 0.69216 0.22239 0.47972 0.0
C834 C 0.67085 0.20001 0.48397 0.0
C835 C 0.66549 0.18829 0.51247 0.0
C836 C 0.78852 0.31624 0.50828 0.0
C837 C 0.80725 0.316 0.53344 0.0
C838 C 0.79205 0.33925 0.48736 0.0
C839 C 0.81513 0.36017 0.49035 0.0
C840 C 0.83552 0.35833 0.51414 0.0
C841 C 0.83048 0.33679 0.53635 0.0
C842 C 0.68059 0.20093 0.53696 0.0
H843 H 0.88079 0.19985 0.4915 0.0
H844 H 0.84501 0.23962 0.49551 0.0
H845 H 0.78409 0.19072 0.43872 0.0
H846 H 0.82019 0.14983 0.43601 0.0
H847 H 0.81681 0.27764 0.4762 0.0
H848 H 0.75348 0.20618 0.47831 0.0
H849 H 0.73176 0.29039 0.51888 0.0
H850 H 0.71546 0.23063 0.55145 0.0
H851 H 0.69724 0.2294 0.45718 0.0
H852 H 0.6594 0.19095 0.46474 0.0
H853 H 0.8057 0.29799 0.54944 0.0
H854 H 0.77871 0.3394 0.46724 0.0
H855 H 0.67698 0.19226 0.55919 0.0
H856 H 0.8453 0.33517 0.55532 0.0
H857 H 0.81826 0.37652 0.47288 0.0
C858 C 0.19672 0.86468 0.54207 0.0
C859 C 0.17015 0.85699 0.55643 0.0
C860 C 0.21924 0.84383 0.53897 0.0
C861 C 0.21578 0.81496 0.55061 0.0
C862 C 0.19009 0.80815 0.56727 0.0
C863 C 0.16716 0.82896 0.56978 0.0
C864 C 0.23688 0.79139 0.54147 0.0
C865 C 0.26679 0.7983 0.53661 0.0
C866 C 0.28568 0.7787 0.5215 0.0
C867 C 0.2748 0.75016 0.513 0.0
C868 C 0.2449 0.74221 0.51988 0.0
C869 C 0.22631 0.76323 0.53346 0.0
C870 C 0.23094 0.71268 0.51391 0.0
C871 C 0.21483 0.70803 0.48741 0.0
C872 C 0.2247 0.69425 0.53843 0.0
C873 C 0.20197 0.67286 0.53711 0.0
C874 C 0.18498 0.66877 0.511 0.0
C875 C 0.31558 0.79105 0.5141 0.0
C876 C 0.31899 0.8076 0.48768 0.0
C877 C 0.33563 0.7964 0.53757 0.0
C878 C 0.35718 0.81897 0.53549 0.0
C879 C 0.3596 0.83674 0.50971 0.0
C880 C 0.34074 0.83012 0.48548 0.0
C881 C 0.19226 0.68623 0.4859 0.0
H882 H 0.19916 0.88608 0.53113 0.0
H883 H 0.23828 0.84983 0.52544 0.0
H884 H 0.18704 0.78629 0.57703 0.0
H885 H 0.14666 0.82279 0.58094 0.0
H886 H 0.27524 0.81995 0.54332 0.0
H887 H 0.20301 0.75773 0.53678 0.0
H888 H 0.2892 0.73456 0.50155 0.0
H889 H 0.21822 0.72269 0.46854 0.0
H890 H 0.2357 0.6982 0.55957 0.0
H891 H 0.19659 0.66081 0.55729 0.0
H892 H 0.30316 0.80488 0.46965 0.0
H893 H 0.33274 0.78504 0.55867 0.0
H894 H 0.17979 0.68377 0.46539 0.0
H895 H 0.34199 0.84319 0.46524 0.0
H896 H 0.37061 0.82372 0.55496 0.0
C897 C 0.18852 0.17171 0.55441 0.0
C898 C 0.16401 0.1744 0.53518 0.0
C899 C 0.21038 0.19381 0.55491 0.0
C900 C 0.20775 0.2188 0.53629 0.0
C901 C 0.18239 0.22204 0.51826 0.0
C902 C 0.16069 0.20006 0.51778 0.0
C903 C 0.23248 0.24005 0.53286 0.0
C904 C 0.2614 0.22968 0.52827 0.0
C905 C 0.28413 0.24898 0.51908 0.0
C906 C 0.27746 0.27959 0.5142 0.0
C907 C 0.24812 0.29018 0.51967 0.0
C908 C 0.22637 0.27028 0.52966 0.0
C909 C 0.23706 0.32073 0.51327 0.0
C910 C 0.23044 0.33949 0.53748 0.0
C911 C 0.22204 0.3256 0.48618 0.0
C912 C 0.19915 0.34686 0.48414 0.0
C913 C 0.19067 0.36373 0.5092 0.0
C914 C 0.3137 0.2349 0.51404 0.0
C915 C 0.33233 0.22975 0.53865 0.0
C916 C 0.31831 0.21794 0.48805 0.0
C917 C 0.34014 0.1955 0.48716 0.0
C918 C 0.35788 0.18936 0.5123 0.0
C919 C 0.35411 0.20732 0.53782 0.0
C920 C 0.20764 0.36081 0.53544 0.0
H921 H 0.19115 0.1522 0.56836 0.0
H922 H 0.22965 0.19102 0.56917 0.0
H923 H 0.18004 0.24078 0.50325 0.0
H924 H 0.14205 0.20242 0.5026 0.0
H925 H 0.26605 0.20605 0.53041 0.0
H926 H 0.20383 0.27823 0.53341 0.0
H927 H 0.2945 0.29462 0.50609 0.0
H928 H 0.24083 0.33562 0.55893 0.0
H929 H 0.22596 0.31093 0.4674 0.0
H930 H 0.18715 0.34907 0.46333 0.0
H931 H 0.32844 0.24148 0.5594 0.0
H932 H 0.30353 0.22058 0.46915 0.0
H933 H 0.20187 0.37348 0.55516 0.0
H934 H 0.36676 0.20289 0.55787 0.0
H935 H 0.34245 0.18225 0.46712 0.0
C936 C 1.0068 0.93812 0.58251 0.0
C937 C 0.00992 0.93509 0.43539 0.0
C938 C 1.00436 0.08206 0.57967 0.0
C939 C 1.00631 0.07928 0.43292 0.0
C940 C 0.93488 0.07918 0.49656 0.0
C941 C 0.93593 0.93657 0.51658 0.0
C942 C 0.07841 0.08133 0.51109 0.0
C943 C 0.07919 0.93844 0.51979 0.0
C944 C 0.0793 1.00925 0.43432 0.0
C945 C 0.93544 1.0032 0.4344 0.0
C946 C 0.07831 0.01228 0.58142 0.0
C947 C 0.93471 0.01279 0.58096 0.0
Eu948 Eu 1.0077 0.95168 0.50875 0.0
O949 O 0.98065 0.98098 0.4818 0.0
O950 O 0.03312 0.98354 0.53405 0.0
Eu951 Eu 0.95023 1.0081 0.50766 0.0
Eu952 Eu 0.06384 1.00933 0.5078 0.0
O953 O 0.98079 0.98241 0.53413 0.0
O954 O 0.03466 0.98116 0.48168 0.0
Eu955 Eu 1.00642 1.00993 0.56361 0.0
Eu956 Eu 1.00752 1.00728 0.45177 0.0
O957 O 0.97952 0.03618 0.53366 0.0
O958 O 0.98104 0.03373 0.48143 0.0
O959 O 0.0337 0.03525 0.48082 0.0
O960 O 0.03297 0.03583 0.53333 0.0
Eu961 Eu 1.00654 0.06547 0.50661 0.0
O962 O 1.00818 0.92785 0.55439 0.0
O963 O 1.00846 0.92587 0.46392 0.0
O964 O 1.00457 0.09123 0.55115 0.0
O965 O 1.00773 0.08927 0.46113 0.0
O966 O 0.92566 0.05106 0.49916 0.0
O967 O 0.9264 0.9646 0.51466 0.0
O968 O 0.08785 0.05325 0.50967 0.0
O969 O 0.08827 0.9664 0.51568 0.0
O970 O 0.05075 1.00952 0.42624 0.0
O971 O 0.964 1.00499 0.42629 0.0
O972 O 0.0497 0.01101 0.58936 0.0
O973 O 0.96317 0.01062 0.58899 0.0
O974 O 0.0501 0.09025 0.50971 0.0
O975 O 0.96273 0.08893 0.5001 0.0
O976 O 0.05151 0.92821 0.51625 0.0
O977 O 0.96401 0.92731 0.5136 0.0
O978 O 0.01032 0.96353 0.42679 0.0
O979 O 1.0055 0.05048 0.42529 0.0
O980 O 1.00578 0.96686 0.59012 0.0
O981 O 1.00505 0.05372 0.58845 0.0
O982 O 0.92515 0.01322 0.55253 0.0
O983 O 0.92581 1.00317 0.46275 0.0
O984 O 0.08815 0.01238 0.55312 0.0
O985 O 0.08906 1.00799 0.46267 0.0
C986 C 0.51836 0.93266 0.07562 0.0
C987 C 0.49935 0.07487 0.08488 0.0
C988 C 0.51852 0.94136 0.93263 0.0
C989 C 0.51728 0.08534 0.94219 0.0
C990 C 0.58525 0.01611 0.93995 0.0
C991 C 0.57965 1.00324 0.08257 0.0
C992 C 0.43832 0.01279 0.93368 0.0
C993 C 0.43286 1.00448 0.07716 0.0
C994 C 0.43501 0.07974 1.00907 0.0
C995 C 0.58158 0.08072 0.02007 0.0
C996 C 0.43674 0.93557 1.00189 0.0
C997 C 0.58379 0.93853 1.00331 0.0
Eu998 Eu 0.50689 1.00463 0.06537 0.0
O999 O 0.53407 0.03413 0.03855 0.0
O1000 O 0.48178 0.97929 0.03275 0.0
Eu1001 Eu 0.56461 1.0096 0.01079 0.0
Eu1002 Eu 0.45341 1.0077 1.00605 0.0
O1003 O 0.53423 0.98104 0.03396 0.0
O1004 O 0.48215 0.03238 0.03517 0.0
Eu1005 Eu 0.50991 0.95175 1.00491 0.0
Eu1006 Eu 0.50843 0.0653 0.01245 0.0
O1007 O 0.53613 0.98458 0.98165 0.0
O1008 O 0.53564 0.03718 0.98479 0.0
O1009 O 0.48354 0.0368 0.98249 0.0
O1010 O 0.48427 0.98305 0.97871 0.0
Eu1011 Eu 0.51123 0.01241 0.95161 0.0
O1012 O 0.5136 0.95975 0.0869 0.0
O1013 O 0.50244 0.04644 0.09272 0.0
O1014 O 0.51708 0.97008 0.92501 0.0
O1015 O 0.51571 0.05793 0.93073 0.0
O1016 O 0.59206 0.01536 0.96887 0.0
O1017 O 0.58867 1.00306 0.05434 0.0
O1018 O 0.42938 0.01045 0.96191 0.0
O1019 O 0.42608 1.00697 0.04835 0.0
O1020 O 0.46327 0.08955 0.01033 0.0
O1021 O 0.55327 0.09045 0.01832 0.0
O1022 O 0.46514 0.92615 1.00366 0.0
O1023 O 0.55571 0.928 1.00254 0.0
O1024 O 0.46702 0.01386 0.92505 0.0
O1025 O 0.55741 0.01463 0.92896 0.0
O1026 O 0.46064 1.00162 0.08807 0.0
O1027 O 0.55121 1.00562 0.09161 0.0
O1028 O 0.50085 0.08615 0.05746 0.0
O1029 O 0.51407 0.0925 0.97082 0.0
O1030 O 0.51634 0.92507 0.04696 0.0
O1031 O 0.51492 0.93038 0.95995 0.0
O1032 O 0.59079 0.96718 1.00611 0.0
O1033 O 0.5899 0.05236 0.01791 0.0
O1034 O 0.42826 0.96406 1.00205 0.0
O1035 O 0.4272 0.05102 1.00761 0.0
C1036 C 1.00653 0.43645 0.07928 0.0
C1037 C 0.01155 0.43434 0.93551 0.0
C1038 C 0.0115 0.58382 0.07611 0.0
C1039 C 1.00719 0.58121 0.93287 0.0
C1040 C 0.93503 0.57968 1.00314 0.0
C1041 C 0.93923 0.43306 1.00886 0.0
C1042 C 0.07913 0.58379 1.00172 0.0
C1043 C 0.08221 0.43696 0.01084 0.0
C1044 C 0.08038 0.50121 0.93401 0.0
C1045 C 0.93718 0.49673 0.93532 0.0
C1046 C 0.08116 0.51074 0.0775 0.0
C1047 C 0.93728 0.51595 0.07791 0.0
Eu1048 Eu 0.01029 0.45301 1.00743 0.0
O1049 O 0.98344 0.48174 0.98043 0.0
O1050 O 0.03643 0.48375 0.0333 0.0
Eu1051 Eu 0.95223 0.50696 1.00646 0.0
Eu1052 Eu 0.06587 0.51006 1.0058 0.0
O1053 O 0.98279 0.48208 0.03393 0.0
O1054 O 0.03571 0.48301 0.98021 0.0
Eu1055 Eu 1.00918 0.5098 0.0631 0.0
Eu1056 Eu 1.00881 0.50784 0.94917 0.0
O1057 O 0.98231 0.53448 0.03192 0.0
O1058 O 0.98119 0.53389 0.9787 0.0
O1059 O 0.03533 0.53537 0.97841 0.0
O1060 O 0.03481 0.5359 0.03184 0.0
Eu1061 Eu 1.00766 0.56458 1.00464 0.0
O1062 O 1.00765 0.42795 0.05087 0.0
O1063 O 0.01198 0.42669 0.96426 0.0
O1064 O 0.01038 0.5913 0.04738 0.0
O1065 O 1.00545 0.58971 0.96123 0.0
O1066 O 0.92636 0.55103 1.00238 0.0
O1067 O 0.92864 0.46107 0.01067 0.0
O1068 O 0.08959 0.55579 1.00374 0.0
O1069 O 0.09155 0.46535 1.00849 0.0
O1070 O 0.05228 0.50312 0.92469 0.0
O1071 O 0.96494 0.50095 0.92551 0.0
O1072 O 0.05317 0.50857 0.08709 0.0
O1073 O 0.96547 0.51449 0.0872 0.0
O1074 O 0.05039 0.59128 1.00131 0.0
O1075 O 0.96331 0.58874 1.00505 0.0
O1076 O 0.05385 0.42827 0.01094 0.0
O1077 O 0.96795 0.42614 1.00665 0.0
O1078 O 0.01029 0.46246 0.92543 0.0
O1079 O 1.00914 0.55275 0.92351 0.0
O1080 O 1.00739 0.46492 0.08874 0.0
O1081 O 0.01081 0.55575 0.08666 0.0
O1082 O 0.92798 0.51303 0.04988 0.0
O1083 O 0.92786 0.49906 0.9634 0.0
O1084 O 0.0904 0.51281 0.0494 0.0
O1085 O 0.08982 0.50421 0.96205 0.0
C1086 C 0.51316 0.44006 0.08135 0.0
C1087 C 0.50719 0.58322 0.08689 0.0
C1088 C 0.50745 0.44634 0.93446 0.0
C1089 C 0.50879 0.58999 0.94041 0.0
C1090 C 0.5819 0.52009 0.93747 0.0
C1091 C 0.58194 0.51144 0.08421 0.0
C1092 C 0.43812 0.51894 0.93765 0.0
C1093 C 0.43888 0.50721 0.08442 0.0
C1094 C 0.43738 0.58509 0.02172 0.0
C1095 C 0.58044 0.58647 0.02496 0.0
C1096 C 0.43932 0.44206 1.00252 0.0
C1097 C 0.58263 0.44393 1.00357 0.0
Eu1098 Eu 0.51022 0.51205 0.06633 0.0
O1099 O 0.5358 0.54007 0.03746 0.0
O1100 O 0.48325 0.48605 0.03621 0.0
Eu1101 Eu 0.56698 0.51547 0.01075 0.0
Eu1102 Eu 0.45295 0.51382 0.01106 0.0
O1103 O 0.53735 0.487 0.0358 0.0
O1104 O 0.48349 0.53935 0.0377 0.0
Eu1105 Eu 0.51061 0.45785 1.0085 0.0
Eu1106 Eu 0.50915 0.57154 0.01308 0.0
O1107 O 0.53662 0.4898 0.98364 0.0
O1108 O 0.53685 0.54347 0.98539 0.0
O1109 O 0.4824 0.54241 0.98567 0.0
O1110 O 0.4842 0.48951 0.98412 0.0
Eu1111 Eu 0.50991 0.51751 0.95515 0.0
O1112 O 0.51349 0.46827 0.0904 0.0
O1113 O 0.50836 0.55433 0.09377 0.0
O1114 O 0.50698 0.47525 0.92757 0.0
O1115 O 0.50949 0.56172 0.93138 0.0
O1116 O 0.59156 0.52051 0.96584 0.0
O1117 O 0.59168 0.51087 0.05585 0.0
O1118 O 0.42823 0.51674 0.96587 0.0
O1119 O 0.4286 0.50914 0.05633 0.0
O1120 O 0.46523 0.59498 0.01895 0.0
O1121 O 0.55245 0.59575 0.02126 0.0
O1122 O 0.46742 0.43281 1.00423 0.0
O1123 O 0.55458 0.43444 1.00528 0.0
O1124 O 0.46666 0.51968 0.92954 0.0
O1125 O 0.55333 0.51814 0.92947 0.0
O1126 O 0.46746 0.50815 0.09221 0.0
O1127 O 0.55338 0.51299 0.09212 0.0
O1128 O 0.50716 0.59412 0.05905 0.0
O1129 O 0.50868 0.59859 0.96915 0.0
O1130 O 0.51109 0.43117 0.05278 0.0
O1131 O 0.50989 0.43531 0.9622 0.0
O1132 O 0.59181 0.47215 1.00534 0.0
O1133 O 0.59049 0.55885 0.02059 0.0
O1134 O 0.42937 0.46991 1.00482 0.0
O1135 O 0.42838 0.55691 0.01866 0.0
C1136 C 0.0224 0.44201 0.58267 0.0
C1137 C 0.0193 0.43883 0.43978 0.0
C1138 C 0.0157 0.58545 0.57997 0.0
C1139 C 1.00423 0.58257 0.43661 0.0
C1140 C 0.93613 0.58217 0.50762 0.0
C1141 C 0.93897 0.4391 0.51239 0.0
C1142 C 0.08306 0.58559 0.50956 0.0
C1143 C 0.0858 0.44236 0.51065 0.0
C1144 C 0.08501 0.51073 0.43883 0.0
C1145 C 0.93795 0.50694 0.4382 0.0
C1146 C 0.08397 0.51614 0.58236 0.0
C1147 C 0.93679 0.51161 0.58123 0.0
Eu1148 Eu 0.01207 0.45537 0.51104 0.0
O1149 O 0.98555 0.48423 0.48324 0.0
O1150 O 0.03705 0.48708 0.53698 0.0
Eu1151 Eu 0.95584 0.5109 0.50982 0.0
Eu1152 Eu 0.06646 0.51359 0.5103 0.0
O1153 O 0.98498 0.48493 0.53772 0.0
O1154 O 0.03736 0.48611 0.48439 0.0
Eu1155 Eu 0.01052 0.51312 0.5673 0.0
Eu1156 Eu 0.01152 0.51109 0.45287 0.0
O1157 O 0.98421 0.53916 0.53638 0.0
O1158 O 0.98513 0.53735 0.48302 0.0
O1159 O 0.03728 0.53955 0.48226 0.0
O1160 O 0.03579 0.53946 0.53603 0.0
Eu1161 Eu 0.00997 0.56922 0.50876 0.0
O1162 O 0.01905 0.43224 0.55484 0.0
O1163 O 0.01649 0.43008 0.46799 0.0
O1164 O 0.0135 0.59455 0.55184 0.0
O1165 O 1.00558 0.59244 0.46459 0.0
O1166 O 0.92897 0.55335 0.50743 0.0
O1167 O 0.93081 0.46758 0.51159 0.0
O1168 O 0.09124 0.55712 0.5101 0.0
O1169 O 0.09314 0.47109 0.51175 0.0
O1170 O 0.05693 0.51218 0.42847 0.0
O1171 O 0.96623 0.50801 0.42826 0.0
O1172 O 0.05562 0.51572 0.59204 0.0
O1173 O 0.9649 0.51204 0.59179 0.0
O1174 O 0.05468 0.59508 0.50786 0.0
O1175 O 0.96415 0.59276 0.50879 0.0
O1176 O 0.05776 0.43189 0.50973 0.0
O1177 O 0.9674 0.42961 0.51242 0.0
O1178 O 0.01732 0.46679 0.42983 0.0
O1179 O 1.00688 0.55428 0.42789 0.0
O1180 O 0.01845 0.46994 0.59214 0.0
O1181 O 0.01425 0.55762 0.59015 0.0
O1182 O 0.92968 0.51206 0.55247 0.0
O1183 O 0.92993 0.50762 0.46678 0.0
O1184 O 0.09198 0.51529 0.55375 0.0
O1185 O 0.09258 0.51101 0.46751 0.0
C1186 C 0.51257 0.93694 0.57746 0.0
C1187 C 0.51226 0.94437 0.43407 0.0
C1188 C 0.50926 0.08422 0.58534 0.0
C1189 C 0.51093 0.09078 0.44212 0.0
C1190 C 0.4406 0.08729 0.51293 0.0
C1191 C 0.4412 0.94 0.50776 0.0
C1192 C 0.5842 0.08649 0.51704 0.0
C1193 C 0.5845 0.94057 0.50433 0.0
C1194 C 0.58511 0.02598 0.43986 0.0
C1195 C 0.44148 0.01406 0.43718 0.0
C1196 C 0.58271 1.00272 0.58237 0.0
C1197 C 0.4396 1.00294 0.58052 0.0
Eu1198 Eu 0.51276 0.95859 0.50661 0.0
O1199 O 0.48604 0.98932 0.48165 0.0
O1200 O 0.53823 0.98691 0.53533 0.0
Eu1201 Eu 0.45523 0.01378 0.50931 0.0
Eu1202 Eu 0.56933 0.01364 0.51069 0.0
O1203 O 0.486 0.98695 0.53427 0.0
O1204 O 0.5402 0.98878 0.4814 0.0
Eu1205 Eu 0.51138 0.01121 0.56692 0.0
Eu1206 Eu 0.51313 0.01674 0.45307 0.0
O1207 O 0.4847 0.03894 0.53806 0.0
O1208 O 0.48603 0.04115 0.48446 0.0
O1209 O 0.53884 0.0408 0.48558 0.0
O1210 O 0.539 0.03875 0.5387 0.0
Eu1211 Eu 0.51228 0.06929 0.51307 0.0
O1212 O 0.51307 0.93083 0.54842 0.0
O1213 O 0.51109 0.93512 0.46224 0.0
O1214 O 0.51031 0.09317 0.55709 0.0
O1215 O 0.51241 0.09725 0.4711 0.0
O1216 O 0.43049 0.05906 0.51167 0.0
O1217 O 0.43088 0.96816 0.50778 0.0
O1218 O 0.59401 0.05828 0.51559 0.0
O1219 O 0.59422 0.96889 0.50537 0.0
O1220 O 0.55715 0.02373 0.42997 0.0
O1221 O 0.46974 0.01463 0.42819 0.0
O1222 O 0.55469 1.00635 0.59144 0.0
O1223 O 0.46756 1.0046 0.59034 0.0
O1224 O 0.5557 0.09481 0.51611 0.0
O1225 O 0.46925 0.09493 0.51304 0.0
O1226 O 0.55588 0.93267 0.50503 0.0
O1227 O 0.46989 0.93262 0.50682 0.0
O1228 O 0.51422 0.97308 0.4258 0.0
O1229 O 0.51078 0.06305 0.43078 0.0
O1230 O 0.51149 0.9646 0.58899 0.0
O1231 O 0.50951 0.05544 0.59395 0.0
O1232 O 0.43053 1.00686 0.55249 0.0
O1233 O 0.43153 0.01469 0.46514 0.0
O1234 O 0.59271 1.00528 0.55448 0.0
O1235 O 0.59419 0.0222 0.46789 0.0
C1236 C 0.11221 0.15562 0.53169 0.0
C1237 C 0.14288 0.14976 0.53112 0.0
C1238 C 0.09167 0.13347 0.52452 0.0
C1239 C 0.10101 0.10455 0.51673 0.0
H1240 H 0.10408 0.1776 0.53738 0.0
H1241 H 0.06824 0.13923 0.52525 0.0
S1242 S 0.17945 0.07863 0.51065 0.0
N1243 N 0.18204 0.11377 0.52118 0.0
N1244 N 0.14344 0.07162 0.50816 0.0
C1245 C 0.13182 0.09845 0.5161 0.0
C1246 C 0.15274 0.12116 0.52331 0.0
C1247 C 0.90297 0.14886 0.46227 0.0
C1248 C 0.87235 0.14586 0.46761 0.0
C1249 C 0.9229 0.127 0.47164 0.0
C1250 C 0.91291 0.10139 0.48673 0.0
H1251 H 0.91165 0.16877 0.4517 0.0
H1252 H 0.94636 0.13043 0.46721 0.0
S1253 S 0.8345 0.0828 0.50523 0.0
N1254 N 0.83259 0.1153 0.48812 0.0
N1255 N 0.87016 0.07378 0.5056 0.0
C1256 C 0.88214 0.09758 0.49119 0.0
C1257 C 0.86181 0.11994 0.48162 0.0
C1258 C 0.90291 0.86717 0.55044 0.0
C1259 C 0.87241 0.87044 0.54452 0.0
C1260 C 0.92331 0.88863 0.54101 0.0
C1261 C 0.91386 0.91402 0.52526 0.0
H1262 H 0.91107 0.84754 0.56186 0.0
H1263 H 0.94664 0.88526 0.54622 0.0
S1264 S 0.83621 0.93246 0.50373 0.0
N1265 N 0.83353 0.90053 0.52181 0.0
N1266 N 0.87193 0.94121 0.50415 0.0
C1267 C 0.88329 0.91778 0.51962 0.0
C1268 C 0.86252 0.8959 0.52928 0.0
C1269 C 0.11989 0.86671 0.5362 0.0
C1270 C 0.14449 0.87672 0.55276 0.0
C1271 C 0.09854 0.88681 0.52579 0.0
C1272 C 0.1014 0.91747 0.53146 0.0
H1273 H 0.11806 0.84348 0.52982 0.0
H1274 H 0.08033 0.8784 0.51234 0.0
S1275 S 0.15958 0.95369 0.57806 0.0
N1276 N 0.16897 0.91816 0.5773 0.0
N1277 N 0.12886 0.95626 0.558 0.0
C1278 C 0.12503 0.92739 0.54964 0.0
C1279 C 0.14658 0.90688 0.56028 0.0
C1280 C 0.50924 0.12038 0.15421 0.0
C1281 C 0.48501 0.14006 0.15252 0.0
C1282 C 0.51318 0.09828 0.13268 0.0
C1283 C 0.49332 0.09594 0.1087 0.0
H1284 H 0.52564 0.1227 0.1718 0.0
H1285 H 0.53246 0.08382 0.13407 0.0
S1286 S 0.42513 0.14053 0.0959 0.0
N1287 N 0.43986 0.15466 0.12657 0.0
N1288 N 0.44758 0.11329 0.08546 0.0
C1289 C 0.46845 0.11477 0.10737 0.0
C1290 C 0.46418 0.13689 0.12955 0.0
C1291 C 0.90327 0.53949 0.15112 0.0
C1292 C 0.87268 0.53581 0.14605 0.0
C1293 C 0.92389 0.53315 0.12883 0.0
C1294 C 0.91465 0.52275 0.10069 0.0
H1295 H 0.91131 0.54673 0.17272 0.0
H1296 H 0.94728 0.53629 0.13393 0.0
S1297 S 0.83646 0.51012 0.07641 0.0
N1298 N 0.83371 0.5218 0.11118 0.0
N1299 N 0.87244 0.50991 0.06884 0.0
C1300 C 0.88389 0.51978 0.09512 0.0
C1301 C 0.86289 0.52634 0.11792 0.0
C1302 C 0.53612 0.89292 0.1477 0.0
C1303 C 0.55259 0.86816 0.13803 0.0
C1304 C 0.52471 0.91342 0.12728 0.0
C1305 C 0.52929 0.90977 0.09649 0.0
H1306 H 0.53099 0.89584 0.17112 0.0
H1307 H 0.51181 0.93199 0.13574 0.0
S1308 S 0.57364 0.84973 0.06049 0.0
N1309 N 0.57473 0.84185 0.09638 0.0
N1310 N 0.55352 0.88038 0.05762 0.0
C1311 C 0.54662 0.88545 0.08667 0.0
C1312 C 0.55825 0.86467 0.10756 0.0
C1313 C 0.14672 0.53423 0.12363 0.0
C1314 C 0.14881 0.51078 0.1442 0.0
C1315 C 0.12479 0.53389 0.10159 0.0
C1316 C 0.10418 0.51045 0.10017 0.0
H1317 H 0.16224 0.55271 0.1245 0.0
H1318 H 0.12364 0.5522 0.08589 0.0
S1319 S 0.10088 0.44377 0.14854 0.0
N1320 N 0.12919 0.46339 0.16156 0.0
N1321 N 0.08738 0.46308 0.12027 0.0
C1322 C 0.10605 0.48693 0.12056 0.0
C1323 C 0.12864 0.48701 0.14262 0.0
C1324 C 0.55231 0.9118 0.86144 0.0
C1325 C 0.55111 0.88082 0.86543 0.0
C1326 C 0.54073 0.93109 0.88287 0.0
C1327 C 0.52787 0.92016 0.90929 0.0
H1328 H 0.56171 0.92116 0.84126 0.0
H1329 H 0.54204 0.95476 0.87863 0.0
S1330 S 0.51809 0.84044 0.92954 0.0
N1331 N 0.53499 0.83978 0.89691 0.0
N1332 N 0.51391 0.87603 0.93778 0.0
C1333 C 0.5266 0.88908 0.91356 0.0
C1334 C 0.53819 0.86943 0.89156 0.0
C1335 C 0.15029 0.46827 0.9012 0.0
C1336 C 0.1467 0.47329 0.87056 0.0
C1337 C 0.12877 0.4777 0.92148 0.0
C1338 C 0.10283 0.49239 0.91184 0.0
H1339 H 0.17031 0.45772 0.90959 0.0
H1340 H 0.13263 0.47344 0.94491 0.0
S1341 S 0.08283 0.51043 0.83365 0.0
N1342 N 0.11541 0.49355 0.83126 0.0
N1343 N 0.07443 0.51091 0.86946 0.0
C1344 C 0.09854 0.49676 0.8811 0.0
C1345 C 0.1206 0.48723 0.86043 0.0
C1346 C 0.53017 0.12732 0.87034 0.0
C1347 C 0.5394 0.15546 0.88039 0.0
C1348 C 0.52294 0.10482 0.89053 0.0
C1349 C 0.5246 0.10975 0.92146 0.0
H1350 H 0.52743 0.12301 0.84674 0.0
H1351 H 0.51548 0.08362 0.8817 0.0
S1352 S 0.55012 0.17941 0.95863 0.0
N1353 N 0.55184 0.18681 0.92267 0.0
N1354 N 0.53793 0.14479 0.961 0.0
C1355 C 0.53467 0.13774 0.93171 0.0
C1356 C 0.5422 0.16052 0.91106 0.0
C1357 C 0.86336 0.48585 0.89666 0.0
C1358 C 0.87129 0.46862 0.87179 0.0
C1359 C 0.88488 0.49478 0.91731 0.0
C1360 C 0.91494 0.48692 0.91348 0.0
H1361 H 0.84072 0.49377 0.89934 0.0
H1362 H 0.87807 0.5087 0.93583 0.0
S1363 S 0.94578 0.43823 0.85416 0.0
N1364 N 0.9101 0.4414 0.84591 0.0
N1365 N 0.95086 0.45806 0.88476 0.0
C1366 C 0.92278 0.46834 0.88948 0.0
C1367 C 0.90083 0.45916 0.86862 0.0
C1368 C 0.65302 0.62547 0.04253 0.0
C1369 C 0.64373 0.64951 0.06032 0.0
C1370 C 0.63239 0.60505 0.0312 0.0
C1371 C 0.6018 0.60821 0.03711 0.0
H1372 H 0.67616 0.62332 0.03601 0.0
H1373 H 0.64037 0.58724 0.01698 0.0
S1374 S 0.56704 0.6651 0.08624 0.0
N1375 N 0.60279 0.67373 0.08594 0.0
N1376 N 0.56372 0.63541 0.06475 0.0
C1377 C 0.59249 0.63133 0.05622 0.0
C1378 C 0.61355 0.65195 0.06785 0.0
C1379 C 0.36661 0.61626 0.05466 0.0
C1380 C 0.37004 0.64705 0.05068 0.0
C1381 C 0.38855 0.59647 0.04513 0.0
C1382 C 0.41471 0.6068 0.03124 0.0
H1383 H 0.34635 0.60738 0.06435 0.0
H1384 H 0.38477 0.57288 0.04855 0.0
S1385 S 0.43447 0.68578 0.01639 0.0
N1386 N 0.40151 0.68729 0.03262 0.0
N1387 N 0.44316 0.65008 0.01485 0.0
C1388 C 0.41885 0.63772 0.02806 0.0
C1389 C 0.39642 0.65787 0.0378 0.0
C1390 C 0.38069 0.38378 0.01303 0.0
C1391 C 0.37256 0.37712 0.98346 0.0
C1392 C 0.4028 0.40475 0.01915 0.0
C1393 C 0.41725 0.41949 0.99585 0.0
H1394 H 0.36973 0.3728 0.03153 0.0
H1395 H 0.40841 0.40968 0.04212 0.0
S1396 S 0.40462 0.40998 0.91492 0.0
N1397 N 0.3809 0.38669 0.93079 0.0
N1398 N 0.42285 0.42628 0.94247 0.0
C1399 C 0.40983 0.41284 0.96627 0.0
C1400 C 0.38735 0.39146 0.95999 0.0
C1401 C 0.65666 0.40455 1.00798 0.0
C1402 C 0.64933 0.37579 0.99822 0.0
C1403 C 0.63504 0.42686 1.00888 0.0
C1404 C 0.60556 0.42092 1.00001 0.0
H1405 H 0.6789 0.40947 0.01601 0.0
H1406 H 0.64128 0.44851 0.01756 0.0
S1407 S 0.57683 0.34964 0.96899 0.0
N1408 N 0.61203 0.34283 0.97715 0.0
N1409 N 0.57112 0.38475 0.97833 0.0
C1410 C 0.59851 0.39245 0.98878 0.0
C1411 C 0.62051 0.36983 0.98802 0.0
C1412 C 0.01135 0.64683 0.63618 0.0
C1413 C 0.04106 0.64858 0.64608 0.0
C1414 C 1.00315 0.62667 0.61398 0.0
C1415 C 0.02446 0.60776 0.60149 0.0
H1416 H 0.99433 0.66082 0.64605 0.0
H1417 H 0.98004 0.62536 0.60708 0.0
S1418 S 0.10511 0.6046 0.61857 0.0
N1419 N 0.09188 0.63066 0.641 0.0
N1420 N 0.07632 0.59241 0.59908 0.0
C1421 C 0.0543 0.60977 0.61053 0.0
C1422 C 0.0627 0.63041 0.63294 0.0
C1423 C 0.37013 0.96758 0.61184 0.0
C1424 C 0.37282 0.97309 0.64249 0.0
C1425 C 0.39183 0.97757 0.59196 0.0
C1426 C 0.41689 0.99349 0.6021 0.0
H1427 H 0.35075 0.95609 0.60314 0.0
H1428 H 0.38891 0.9727 0.56849 0.0
S1429 S 0.43388 0.01394 0.6804 0.0
N1430 N 0.40209 0.9955 0.68224 0.0
N1431 N 0.44321 0.01417 0.64482 0.0
C1432 C 0.42012 0.99862 0.63282 0.0
C1433 C 0.39799 0.98841 0.65306 0.0
C1434 C 0.0359 0.40141 0.65525 0.0
C1435 C 0.05323 0.37703 0.64601 0.0
C1436 C 0.02629 0.42278 0.6347 0.0
C1437 C 0.03354 0.42014 0.60436 0.0
H1438 H 0.02847 0.40311 0.67816 0.0
H1439 H 0.01223 0.44081 0.64244 0.0
S1440 S 0.08254 0.36268 0.5703 0.0
N1441 N 0.08007 0.35307 0.6057 0.0
N1442 N 0.06227 0.39317 0.56688 0.0
C1443 C 0.0524 0.39673 0.59531 0.0
C1444 C 0.06221 0.37517 0.61623 0.0
C1445 C 0.65542 0.99307 0.62349 0.0
C1446 C 0.64636 0.97868 0.64973 0.0
C1447 C 0.63471 1.00048 0.60149 0.0
C1448 C 0.60435 0.99382 0.60524 0.0
H1449 H 0.67841 0.99987 0.62058 0.0
H1450 H 0.64241 0.01234 0.58193 0.0
S1451 S 0.57051 0.95229 0.66841 0.0
N1452 N 0.60608 0.95542 0.67725 0.0
N1453 N 0.56688 0.96891 0.63581 0.0
C1454 C 0.59536 0.97796 0.6308 0.0
C1455 C 0.61648 0.97048 0.65311 0.0
C1456 C 0.04916 0.40363 0.36949 0.0
C1457 C 0.04403 0.37317 0.37417 0.0
C1458 C 0.04101 0.42462 0.39088 0.0
C1459 C 0.02738 0.41588 0.41774 0.0
H1460 H 0.05883 0.41134 0.34875 0.0
H1461 H 0.04539 0.44789 0.38616 0.0
S1462 S 0.01001 0.33833 0.44087 0.0
N1463 N 0.02525 0.33491 0.40757 0.0
N1464 N 0.01005 0.37437 0.44821 0.0
C1465 C 0.02304 0.38527 0.42311 0.0
C1466 C 0.03139 0.36389 0.40122 0.0
C1467 C 0.61896 0.06082 0.37131 0.0
C1468 C 0.6492 0.05343 0.37395 0.0
C1469 C 0.59851 0.05196 0.39294 0.0
C1470 C 0.60757 0.03537 0.41794 0.0
H1471 H 0.61096 0.07265 0.35187 0.0
H1472 H 0.57532 0.05797 0.38981 0.0
S1473 S 0.68461 0.01097 0.4353 0.0
N1474 N 0.68757 0.02916 0.40347 0.0
N1475 N 0.64904 0.01267 0.44453 0.0
C1476 C 0.63799 0.02877 0.42139 0.0
C1477 C 0.65884 0.0378 0.39927 0.0
C1478 C 0.98132 0.61429 0.36223 0.0
C1479 C 0.98186 0.64508 0.36733 0.0
C1480 C 0.98901 0.59438 0.38472 0.0
C1481 C 0.99732 0.60454 0.41323 0.0
H1482 H 0.9755 0.60555 0.34046 0.0
H1483 H 0.98847 0.57084 0.3795 0.0
S1484 S 1.00274 0.68362 0.43735 0.0
N1485 N 0.99172 0.68524 0.40231 0.0
N1486 N 1.00574 0.64782 0.44514 0.0
C1487 C 0.99754 0.63547 0.41869 0.0
C1488 C 0.98981 0.65574 0.39563 0.0
C1489 C 0.37235 0.02716 0.39211 0.0
C1490 C 0.37471 1.00503 0.37017 0.0
C1491 C 0.39417 0.02995 0.41408 0.0
C1492 C 0.41909 0.01112 0.41401 0.0
H1493 H 0.35344 0.04216 0.39236 0.0
H1494 H 0.39177 0.04709 0.43094 0.0
S1495 S 0.43481 0.94935 0.36152 0.0
N1496 N 0.40298 0.96365 0.34982 0.0
N1497 N 0.44466 0.9693 0.39087 0.0
C1498 C 0.42167 0.98896 0.39211 0.0
C1499 C 0.39921 0.98579 0.37016 0.0
C1500 C 1.00695 0.11134 0.35342 0.0
C1501 C 1.00424 0.14229 0.35757 0.0
C1502 C 1.00728 0.09145 0.37774 0.0
C1503 C 1.00561 0.10148 0.40762 0.0
H1504 H 1.00851 0.1023 0.33108 0.0
H1505 H 1.00903 0.0679 0.37289 0.0
S1506 S 0.99918 0.18082 0.43072 0.0
N1507 N 1.00023 0.18219 0.39397 0.0
N1508 N 1.0014 0.14517 0.43951 0.0
C1509 C 1.00311 0.13253 0.41204 0.0
C1510 C 1.00231 0.15276 0.38718 0.0
C1511 C 0.90332 1.00282 0.35522 0.0
C1512 C 0.87247 0.99935 0.35937 0.0
C1513 C 0.92315 1.00371 0.37946 0.0
C1514 C 0.9132 1.00141 0.4093 0.0
H1515 H 0.91233 1.00481 0.3329 0.0
H1516 H 0.94658 1.0065 0.37453 0.0
S1517 S 0.83418 0.99286 0.43253 0.0
N1518 N 0.83268 0.9942 0.39579 0.0
N1519 N 0.8698 0.99568 0.44129 0.0
C1520 C 0.88229 0.9979 0.4138 0.0
C1521 C 0.86205 0.99688 0.38896 0.0
C1522 C 0.0259 0.90064 0.35884 0.0
C1523 C 1.00867 0.87444 0.35856 0.0
C1524 C 0.02672 0.91948 0.38403 0.0
C1525 C 0.01093 0.9127 0.41045 0.0
H1526 H 0.03817 0.90713 0.3391 0.0
H1527 H 0.0397 0.9398 0.38265 0.0
S1528 S 0.96402 0.84562 0.42205 0.0
N1529 N 0.97637 0.84203 0.38754 0.0
N1530 N 0.97843 0.87701 0.43485 0.0
C1531 C 0.99452 0.88598 0.41085 0.0
C1532 C 0.99322 0.86705 0.38496 0.0
C1533 C 0.14554 0.99078 0.3834 0.0
C1534 C 0.13884 1.00642 0.35686 0.0
C1535 C 0.12719 0.9928 0.40897 0.0
C1536 C 0.1011 0.01022 0.40896 0.0
H1537 H 0.16519 0.97683 0.38445 0.0
H1538 H 0.13295 0.97985 0.42849 0.0
S1539 S 0.07398 0.05641 0.34574 0.0
N1540 N 0.10447 0.04049 0.33278 0.0
N1541 N 0.07036 0.04445 0.38033 0.0
C1542 C 0.09456 0.02642 0.38277 0.0
C1543 C 0.11327 0.02451 0.35694 0.0
C1544 C 0.02862 0.87253 0.63275 0.0
C1545 C 0.01216 0.87763 0.65913 0.0
C1546 C 0.02588 0.89127 0.60758 0.0
C1547 C 1.00701 0.91633 0.60788 0.0
H1548 H 0.04384 0.85385 0.63156 0.0
H1549 H 0.03942 0.88666 0.58814 0.0
S1550 S 0.95838 0.93926 0.67088 0.0
N1551 N 0.97562 0.90926 0.68336 0.0
N1552 N 0.97083 0.94457 0.63666 0.0
C1553 C 0.99013 0.92141 0.63395 0.0
C1554 C 0.99257 0.90208 0.65933 0.0
C1555 C 0.11034 1.005 0.66018 0.0
C1556 C 0.13993 0.01506 0.65761 0.0
C1557 C 0.09103 1.00419 0.63552 0.0
C1558 C 0.10022 0.01326 0.60679 0.0
H1559 H 0.10188 0.99774 0.68158 0.0
H1560 H 0.0686 0.99607 0.63916 0.0
S1561 S 0.17571 0.04112 0.58756 0.0
N1562 N 0.17775 0.03382 0.62357 0.0
N1563 N 0.1413 0.03284 0.57745 0.0
C1564 C 0.12978 0.02343 0.6038 0.0
C1565 C 0.14956 0.02427 0.62906 0.0
C1566 C 0.98993 0.11699 0.656 0.0
C1567 C 1.00784 0.14269 0.65579 0.0
C1568 C 0.98826 0.09812 0.63093 0.0
C1569 C 1.00383 0.10452 0.60432 0.0
H1570 H 0.97787 0.11091 0.67601 0.0
H1571 H 0.97489 0.07806 0.63256 0.0
S1572 S 0.05237 0.17021 0.59176 0.0
N1573 N 0.0406 0.17421 0.62642 0.0
N1574 N 0.03686 0.13924 0.57925 0.0
C1575 C 0.02086 0.13081 0.60349 0.0
C1576 C 0.02305 0.1497 0.62922 0.0
C1577 C 0.90438 0.01282 0.6608 0.0
C1578 C 0.87399 0.01957 0.6577 0.0
C1579 C 0.92333 0.01074 0.63598 0.0
C1580 C 0.91295 0.01497 0.60648 0.0
H1581 H 0.9138 1.00933 0.68275 0.0
H1582 H 0.94651 1.00567 0.64025 0.0
S1583 S 0.83475 0.03234 0.58583 0.0
N1584 N 0.83402 0.02994 0.62256 0.0
N1585 N 0.86963 0.02608 0.57593 0.0
C1586 C 0.88246 0.0216 0.60297 0.0
C1587 C 0.86309 0.02394 0.62846 0.0
C1588 C 0.37966 0.98615 0.14166 0.0
C1589 C 0.35417 1.00352 0.13522 0.0
C1590 C 0.40549 0.98723 0.12363 0.0
C1591 C 0.40677 1.00537 0.09807 0.0
H1592 H 0.37975 0.97171 0.16098 0.0
H1593 H 0.42424 0.97317 0.12932 0.0
S1594 S 0.34669 0.05598 0.07174 0.0
N1595 N 0.33248 0.03992 0.10161 0.0
N1596 N 0.38052 0.04208 0.06804 0.0
C1597 C 0.38161 0.02316 0.09167 0.0
C1598 C 0.35553 0.02223 0.11011 0.0
C1599 C 0.02357 0.38554 0.14562 0.0
C1600 C 1.00714 0.35946 0.13908 0.0
C1601 C 0.02196 0.41113 0.12733 0.0
C1602 C 1.00449 0.41143 0.1013 0.0
H1603 H 0.03792 0.38613 0.16502 0.0
H1604 H 0.03531 0.43038 0.13303 0.0
S1605 S 0.95609 0.34952 0.07484 0.0
N1606 N 0.97171 0.33629 0.10543 0.0
N1607 N 0.96927 0.38365 0.07079 0.0
C1608 C 0.98746 0.3857 0.09493 0.0
C1609 C 0.98863 0.35997 0.11384 0.0
C1610 C 0.63333 0.02392 0.14506 0.0
C1611 C 0.65665 1.00307 0.14156 0.0
C1612 C 0.60743 0.02281 0.12727 0.0
C1613 C 0.60405 1.00108 0.10494 0.0
H1614 H 0.63523 0.04143 0.16157 0.0
H1615 H 0.59058 0.03985 0.13011 0.0
S1616 S 0.65781 0.94079 0.08718 0.0
N1617 N 0.67387 0.95942 0.1146 0.0
N1618 N 0.62574 0.95769 0.08091 0.0
C1619 C 0.62687 0.97978 0.10162 0.0
C1620 C 0.65297 0.98063 0.11999 0.0
C1621 C 0.99325 0.63796 0.13962 0.0
C1622 C 0.01207 0.66258 0.13388 0.0
C1623 C 0.99417 0.61185 0.12197 0.0
C1624 C 0.01353 0.60948 0.09742 0.0
H1625 H 0.97756 0.63892 0.15794 0.0
H1626 H 0.97882 0.59388 0.12691 0.0
S1627 S 0.0681 0.66688 0.07321 0.0
N1628 N 0.05145 0.68209 0.10232 0.0
N1629 N 0.05268 0.63373 0.06891 0.0
C1630 C 0.03278 0.63371 0.09173 0.0
C1631 C 0.03223 0.65999 0.11 0.0
C1632 C 0.35964 0.01203 0.90018 0.0
C1633 C 0.36408 0.01639 0.86948 0.0
C1634 C 0.38365 0.01108 0.92029 0.0
C1635 C 0.41361 0.01417 0.91088 0.0
H1636 H 0.33728 1.0095 0.9089 0.0
H1637 H 0.37837 1.00772 0.94359 0.0
S1638 S 0.43766 0.02512 0.83243 0.0
N1639 N 0.40097 0.02316 0.83036 0.0
N1640 N 0.44602 0.02152 0.86808 0.0
C1641 C 0.41842 0.01848 0.88012 0.0
C1642 C 0.3938 0.01958 0.85955 0.0
C1643 C 1.00628 0.35526 0.90347 0.0
C1644 C 1.00974 0.35937 0.87265 0.0
C1645 C 1.00723 0.37951 0.92337 0.0
C1646 C 0.01177 0.40908 0.91344 0.0
H1647 H 1.00241 0.33312 0.91229 0.0
H1648 H 1.00421 0.37486 0.94681 0.0
S1649 S 0.02635 0.43113 0.83497 0.0
N1650 N 0.0205 0.39482 0.83321 0.0
N1651 N 0.02272 0.44025 0.87044 0.0
C1652 C 0.0164 0.41328 0.88264 0.0
C1653 C 0.01522 0.38854 0.86235 0.0
C1654 C 0.66441 0.03066 0.91123 0.0
C1655 C 0.664 0.01896 0.8822 0.0
C1656 C 0.63872 0.03018 0.92931 0.0
C1657 C 0.61132 0.01837 0.91902 0.0
H1658 H 0.68491 0.03967 0.92026 0.0
H1659 H 0.64049 0.03902 0.9517 0.0
S1660 S 0.59854 0.98617 0.84385 0.0
N1661 N 0.63405 0.99585 0.84359 0.0
N1662 N 0.58571 0.99559 0.87705 0.0
C1663 C 0.61056 1.00744 0.88959 0.0
C1664 C 0.63687 1.00751 0.87139 0.0
C1665 C 0.992 0.6575 0.89832 0.0
C1666 C 0.01337 0.65974 0.87549 0.0
C1667 C 0.98948 0.63157 0.91587 0.0
C1668 C 1.00762 0.60633 0.9109 0.0
H1669 H 0.97771 0.67629 0.90327 0.0
H1670 H 0.9734 0.63145 0.93387 0.0
S1671 S 0.06602 0.59999 0.85286 0.0
N1672 N 0.05242 0.63389 0.84824 0.0
N1673 N 0.04718 0.58515 0.88078 0.0
C1674 C 0.02836 0.60787 0.88749 0.0
C1675 C 0.03137 0.63453 0.86997 0.0
C1676 C 0.14586 0.38372 0.99165 0.0
C1677 C 0.14108 0.35947 0.01118 0.0
C1678 C 0.12804 0.40965 0.99277 0.0
C1679 C 0.10437 0.4122 0.01315 0.0
H1680 H 0.16344 0.38257 0.97516 0.0
H1681 H 0.13203 0.4272 0.97672 0.0
S1682 S 0.083 0.3559 0.06994 0.0
N1683 N 0.11145 0.34055 0.05233 0.0
N1684 N 0.07786 0.3887 0.0541 0.0
C1685 C 0.09981 0.38845 0.03323 0.0
C1686 C 0.11817 0.36231 0.03238 0.0
C1687 C 0.14176 0.63776 0.02269 0.0
C1688 C 0.13751 0.66194 1.00298 0.0
C1689 C 0.1239 0.61186 0.02124 0.0
C1690 C 0.10059 0.60929 1.00041 0.0
H1691 H 0.15907 0.6389 0.03947 0.0
H1692 H 0.12767 0.59422 0.03726 0.0
S1693 S 0.08034 0.66569 0.94335 0.0
N1694 N 0.10863 0.68094 0.96137 0.0
N1695 N 0.07468 0.63295 0.95919 0.0
C1696 C 0.09629 0.63314 0.9804 0.0
C1697 C 0.11484 0.6592 0.98149 0.0
C1698 C 0.35578 0.11211 1.00616 0.0
C1699 C 0.35982 0.14282 0.011 0.0
C1700 C 0.38007 0.09223 1.00554 0.0
C1701 C 0.40981 0.10201 1.00943 0.0
H1702 H 0.33353 0.10323 1.00312 0.0
H1703 H 0.37527 0.06886 1.00191 0.0
S1704 S 0.43275 0.18083 0.02088 0.0
N1705 N 0.39607 0.18237 0.01851 0.0
N1706 N 0.44157 0.14531 0.01723 0.0
C1707 C 0.41417 0.13287 0.0138 0.0
C1708 C 0.38933 0.15309 0.01467 0.0
C1709 C 0.87283 0.38231 0.02835 0.0
C1710 C 0.88108 0.35446 0.01606 0.0
C1711 C 0.89098 0.40794 0.02517 0.0
C1712 C 0.91834 0.40679 1.00982 0.0
H1713 H 0.85201 0.3844 0.04034 0.0
H1714 H 0.8838 0.42859 0.0354 0.0
S1715 S 0.95018 0.33935 0.97333 0.0
N1716 N 0.91867 0.32756 0.98809 0.0
N1717 N 0.95221 0.37513 0.98154 0.0
C1718 C 0.9266 0.37907 0.99721 0.0
C1719 C 0.90819 0.35315 1.00045 0.0
C1720 C 0.63013 0.86652 0.9972 0.0
C1721 C 0.6598 0.87669 0.99987 0.0
C1722 C 0.60573 0.88643 0.99788 0.0
C1723 C 0.60988 0.9174 1.0013 0.0
H1724 H 0.62566 0.84289 0.99532 0.0
H1725 H 0.58343 0.87735 0.99603 0.0
S1726 S 0.68376 0.95554 1.00589 0.0
N1727 N 0.69204 0.91983 1.00361 0.0
N1728 N 0.64707 0.95713 1.00517 0.0
C1729 C 0.63974 0.9278 1.00293 0.0
C1730 C 0.66437 0.90753 1.00222 0.0
C1731 C 0.9002 0.65732 0.99594 0.0
C1732 C 0.86948 0.65228 0.99948 0.0
C1733 C 0.92086 0.63377 0.99683 0.0
C1734 C 0.91192 0.60391 1.00155 0.0
H1735 H 0.9084 0.67974 0.99226 0.0
H1736 H 0.94416 0.63924 0.99376 0.0
S1737 S 0.83397 0.57883 0.0138 0.0
N1738 N 0.83112 0.61519 1.00893 0.0
N1739 N 0.86977 0.57103 0.01062 0.0
C1740 C 0.88118 0.59856 1.00522 0.0
C1741 C 0.86009 0.62263 1.0042 0.0
C1742 C 0.38663 0.86888 0.02041 0.0
C1743 C 0.36081 0.87406 1.00312 0.0
C1744 C 0.41176 0.88782 0.01882 0.0
C1745 C 0.41194 0.91317 1.00034 0.0
H1746 H 0.38731 0.85008 0.03552 0.0
H1747 H 0.4307 0.88323 0.03305 0.0
S1748 S 0.35062 0.93625 0.94969 0.0
N1749 N 0.33775 0.90589 0.96603 0.0
N1750 N 0.38432 0.94167 0.96347 0.0
C1751 C 0.38651 0.91824 0.98252 0.0
C1752 C 0.3612 0.89867 0.98375 0.0
C1753 C 0.63472 0.14611 1.00673 0.0
C1754 C 0.65972 0.13888 0.02449 0.0
C1755 C 0.60871 0.12833 1.00667 0.0
C1756 C 0.60669 0.10235 0.02407 0.0
H1757 H 0.63531 0.16563 0.99256 0.0
H1758 H 0.59061 0.13427 0.99193 0.0
S1759 S 0.66519 0.07381 0.07526 0.0
N1760 N 0.68007 0.10415 0.06065 0.0
N1761 N 0.63166 0.07087 0.06039 0.0
C1762 C 0.63124 0.09524 0.0424 0.0
C1763 C 0.65753 0.11344 0.0427 0.0
C1764 C 0.51062 0.62304 0.86171 0.0
C1765 C 0.50712 0.65386 0.86597 0.0
C1766 C 0.51111 0.60309 0.8858 0.0
C1767 C 0.50817 0.61275 0.91569 0.0
H1768 H 0.51289 0.61407 0.8394 0.0
H1769 H 0.51393 0.5797 0.88062 0.0
S1770 S 0.49875 0.69151 0.93936 0.0
N1771 N 0.50105 0.69335 0.90267 0.0
N1772 N 0.50151 0.65582 0.9479 0.0
C1773 C 0.50451 0.6436 0.92037 0.0
C1774 C 0.50402 0.66406 0.89564 0.0
C1775 C 0.37502 0.49764 0.88446 0.0
C1776 C 0.37956 0.5168 0.85988 0.0
C1777 C 0.39284 0.49948 0.91035 0.0
C1778 C 0.41633 0.52016 0.91248 0.0
H1779 H 0.35757 0.48098 0.88362 0.0
H1780 H 0.38893 0.48383 0.92831 0.0
S1781 S 0.43739 0.57563 0.85478 0.0
N1782 N 0.40895 0.55757 0.83993 0.0
N1783 N 0.44271 0.56059 0.88794 0.0
C1784 C 0.42084 0.53963 0.88823 0.0
C1785 C 0.40241 0.5381 0.86216 0.0
C1786 C 0.5241 0.38207 0.88082 0.0
C1787 C 0.50502 0.38771 0.85642 0.0
C1788 C 0.52395 0.40024 0.90652 0.0
C1789 C 0.50519 0.42526 0.90867 0.0
H1790 H 0.53934 0.36338 0.88002 0.0
H1791 H 0.53935 0.39523 0.92438 0.0
S1792 S 0.45022 0.44939 0.85165 0.0
N1793 N 0.466 0.41961 0.83682 0.0
N1794 N 0.46629 0.45412 0.88444 0.0
C1795 C 0.48573 0.43092 0.88462 0.0
C1796 C 0.48546 0.41207 0.85875 0.0
C1797 C 0.6136 0.5195 0.85805 0.0
C1798 C 0.64436 0.52409 0.86189 0.0
C1799 C 0.59398 0.51846 0.88247 0.0
C1800 C 0.60402 0.52172 0.9122 0.0
H1801 H 0.60449 0.5168 0.83586 0.0
H1802 H 0.5706 0.51484 0.87774 0.0
S1803 S 0.68287 0.53338 0.93466 0.0
N1804 N 0.68418 0.53129 0.89795 0.0
N1805 N 0.64742 0.52955 0.94373 0.0
C1806 C 0.63483 0.5263 0.91639 0.0
C1807 C 0.65487 0.52748 0.89137 0.0
C1808 C 0.49409 0.37514 0.13323 0.0
C1809 C 0.51252 0.38039 0.15826 0.0
C1810 C 0.49549 0.39328 0.10752 0.0
C1811 C 0.51511 0.4177 0.10597 0.0
H1812 H 0.4783 0.35688 0.13356 0.0
H1813 H 0.48029 0.38889 0.08929 0.0
S1814 S 0.56869 0.44078 0.16481 0.0
N1815 N 0.55152 0.41157 0.17918 0.0
N1816 N 0.55408 0.44552 0.13139 0.0
C1817 C 0.53404 0.42279 0.13058 0.0
C1818 C 0.53282 0.40422 0.15652 0.0
C1819 C 0.61344 0.51816 0.1633 0.0
C1820 C 0.64262 0.50696 0.1611 0.0
C1821 C 0.5945 0.51969 0.13837 0.0
C1822 C 0.60373 0.51034 0.1097 0.0
H1823 H 0.60496 0.5256 0.18464 0.0
H1824 H 0.57228 0.52846 0.14177 0.0
S1825 S 0.67843 0.48 0.09137 0.0
N1826 N 0.68019 0.48698 0.12748 0.0
N1827 N 0.64454 0.48966 0.0808 0.0
C1828 C 0.63299 0.49934 0.10705 0.0
C1829 C 0.65233 0.49761 0.13261 0.0
C1830 C 0.51525 0.61333 0.16621 0.0
C1831 C 0.50569 0.64312 0.16418 0.0
C1832 C 0.51549 0.59444 0.14123 0.0
C1833 C 0.50634 0.60435 0.1128 0.0
H1834 H 0.52268 0.60445 0.18737 0.0
H1835 H 0.52336 0.57183 0.14433 0.0
S1836 S 0.47919 0.68046 0.09513 0.0
N1837 N 0.48699 0.68178 0.13108 0.0
N1838 N 0.48689 0.64612 0.08436 0.0
C1839 C 0.49646 0.63404 0.11041 0.0
C1840 C 0.49621 0.65337 0.13596 0.0
C1841 C 0.37438 0.52226 0.13807 0.0
C1842 C 0.38184 0.5049 0.16329 0.0
C1843 C 0.39181 0.52175 0.11186 0.0
C1844 C 0.41765 0.50414 0.10992 0.0
H1845 H 0.3549 0.53647 0.13862 0.0
H1846 H 0.38563 0.5361 0.09348 0.0
S1847 S 0.44649 0.45364 0.16888 0.0
N1848 N 0.41656 0.46887 0.1839 0.0
N1849 N 0.44908 0.46788 0.13507 0.0
C1850 C 0.42493 0.48616 0.13467 0.0
C1851 C 0.40712 0.48651 0.16117 0.0
C1852 C 0.88644 0.5231 0.64984 0.0
C1853 C 0.85833 0.51268 0.64001 0.0
C1854 C 0.91199 0.52199 0.63135 0.0
C1855 C 0.91053 0.51058 0.60212 0.0
H1856 H 0.88883 0.53191 0.67219 0.0
H1857 H 0.93286 0.53064 0.63985 0.0
S1858 S 0.84236 0.48007 0.56562 0.0
N1859 N 0.83086 0.49087 0.59881 0.0
N1860 N 0.8783 0.48762 0.56478 0.0
C1861 C 0.88254 0.49975 0.59225 0.0
C1862 C 0.85669 0.5011 0.61093 0.0
C1863 C 0.50331 0.88712 0.64664 0.0
C1864 C 0.5116 0.85855 0.63627 0.0
C1865 C 0.50408 0.91242 0.62788 0.0
C1866 C 0.51303 0.91029 0.59784 0.0
H1867 H 0.49664 0.8901 0.66963 0.0
H1868 H 0.49737 0.93374 0.637 0.0
S1869 S 0.53704 0.84046 0.55968 0.0
N1870 N 0.52856 0.82974 0.59377 0.0
N1871 N 0.53101 0.87669 0.559 0.0
C1872 C 0.52148 0.88173 0.58732 0.0
C1873 C 0.52052 0.85611 0.60634 0.0
C1874 C 0.16322 0.51312 0.61423 0.0
C1875 C 0.1597 0.5195 0.64473 0.0
C1876 C 0.13875 0.5122 0.59465 0.0
C1877 C 0.10926 0.51742 0.60446 0.0
H1878 H 0.18522 0.50886 0.60526 0.0
H1879 H 0.14322 0.50706 0.5715 0.0
S1880 S 0.08755 0.53505 0.68237 0.0
N1881 N 0.12408 0.53098 0.68395 0.0
N1882 N 0.07825 0.52951 0.6472 0.0
C1883 C 0.10536 0.52393 0.63495 0.0
C1884 C 0.13043 0.525 0.65496 0.0
C1885 C 0.50975 0.16337 0.61775 0.0
C1886 C 0.50437 0.15952 0.64834 0.0
C1887 C 0.5112 0.139 0.59812 0.0
C1888 C 0.50772 0.10918 0.60791 0.0
H1889 H 0.5126 0.18557 0.6087 0.0
H1890 H 0.51519 0.14391 0.57485 0.0
S1891 S 0.49368 0.08661 0.68626 0.0
N1892 N 0.49587 0.12333 0.6878 0.0
N1893 N 0.49861 0.07756 0.65091 0.0
C1894 C 0.50238 0.10493 0.63857 0.0
C1895 C 0.50067 0.12996 0.65867 0.0
C1896 C 0.86108 0.48911 0.4059 0.0
C1897 C 0.85968 0.50667 0.37999 0.0
C1898 C 0.88681 0.4887 0.42394 0.0
C1899 C 0.91259 0.50521 0.41651 0.0
H1900 H 0.84183 0.47626 0.41276 0.0
H1901 H 0.88636 0.47552 0.44416 0.0
S1902 S 0.92106 0.55332 0.3499 0.0
N1903 N 0.88679 0.54014 0.34717 0.0
N1904 N 0.93515 0.53877 0.38063 0.0
C1905 C 0.91184 0.52196 0.39006 0.0
C1906 C 0.88542 0.52287 0.37199 0.0
C1907 C 0.50673 0.86632 0.39992 0.0
C1908 C 0.50832 0.87119 0.36905 0.0
C1909 C 0.50791 0.89005 0.42029 0.0
C1910 C 0.511 0.92004 0.41098 0.0
H1911 H 0.50434 0.84391 0.40849 0.0
H1912 H 0.5064 0.88451 0.44376 0.0
S1913 S 0.51724 0.94484 0.33227 0.0
N1914 N 0.51381 0.90827 0.32993 0.0
N1915 N 0.51607 0.95287 0.36818 0.0
C1916 C 0.5127 0.92524 0.38005 0.0
C1917 C 0.51132 0.90092 0.35919 0.0
C1918 C 0.13746 0.52572 0.37311 0.0
C1919 C 0.16324 0.50922 0.38061 0.0
C1920 C 0.11162 0.52517 0.39111 0.0
C1921 C 0.11064 0.50844 0.41759 0.0
H1922 H 0.13723 0.53917 0.35309 0.0
H1923 H 0.09269 0.5387 0.38473 0.0
S1924 S 0.17142 0.46033 0.4468 0.0
N1925 N 0.18546 0.475 0.41613 0.0
N1926 N 0.13733 0.4738 0.44962 0.0
C1927 C 0.136 0.49135 0.42496 0.0
C1928 C 0.16212 0.49176 0.4066 0.0
C1929 C 0.52149 0.1408 0.37348 0.0
C1930 C 0.50929 0.16839 0.38252 0.0
C1931 C 0.52133 0.11562 0.39238 0.0
C1932 C 0.50936 0.117 0.42137 0.0
H1933 H 0.53094 0.13849 0.35139 0.0
H1934 H 0.53113 0.09509 0.38436 0.0
S1935 S 0.47419 0.18373 0.45586 0.0
N1936 N 0.48468 0.19525 0.42254 0.0
N1937 N 0.48417 0.1484 0.45779 0.0
C1938 C 0.49692 0.14444 0.43059 0.0
C1939 C 0.49691 0.16992 0.41129 0.0
C1940 C 0.61553 0.86094 0.50417 0.0
C1941 C 0.64634 0.86455 0.4998 0.0
C1942 C 0.59614 0.88551 0.50534 0.0
C1943 C 0.60645 0.9152 0.50253 0.0
H1944 H 0.60618 0.83883 0.50656 0.0
H1945 H 0.57269 0.88093 0.5087 0.0
S1946 S 0.6855 0.93711 0.49135 0.0
N1947 N 0.6865 0.90036 0.49309 0.0
N1948 N 0.65013 0.94645 0.49519 0.0
C1949 C 0.63732 0.91918 0.49815 0.0
C1950 C 0.65714 0.89399 0.49677 0.0
C1951 C 0.65121 0.13562 0.49922 0.0
C1952 C 0.64571 0.16169 0.51594 0.0
C1953 C 0.63212 0.11073 0.50081 0.0
C1954 C 0.60641 0.11116 0.51873 0.0
H1955 H 0.67034 0.13457 0.48454 0.0
H1956 H 0.63688 0.09151 0.48699 0.0
S1957 S 0.58258 0.17339 0.56786 0.0
N1958 N 0.61337 0.18577 0.55195 0.0
N1959 N 0.57721 0.13949 0.55452 0.0
C1960 C 0.60103 0.13685 0.53603 0.0
C1961 C 0.62074 0.16194 0.5348 0.0
C1962 C 0.85614 0.61131 0.51275 0.0
C1963 C 0.85806 0.64116 0.50336 0.0
C1964 C 0.88142 0.5929 0.51421 0.0
C1965 C 0.91016 0.60333 0.50657 0.0
H1966 H 0.83476 0.60193 0.51891 0.0
H1967 H 0.87825 0.57016 0.52163 0.0
S1968 S 0.92778 0.68001 0.48103 0.0
N1969 N 0.89144 0.68057 0.48677 0.0
N1970 N 0.9388 0.64587 0.48918 0.0
C1971 C 0.91252 0.63321 0.49723 0.0
C1972 C 0.8866 0.65203 0.49562 0.0
C1973 C 0.37128 0.89109 0.49831 0.0
C1974 C 0.38065 0.86291 0.50885 0.0
C1975 C 0.39045 0.91615 0.49858 0.0
C1976 C 0.41994 0.91407 0.50915 0.0
H1977 H 0.34876 0.89393 0.49013 0.0
H1978 H 0.38222 0.93715 0.49002 0.0
S1979 S 0.4554 0.84543 0.53957 0.0
N1980 N 0.42163 0.83465 0.52991 0.0
N1981 N 0.45707 0.88121 0.5314 0.0
C1982 C 0.4294 0.88599 0.52 0.0
C1983 C 0.40999 0.86064 0.51959 0.0
C1984 C 0.16472 0.41216 0.52073 0.0
C1985 C 0.16347 0.38323 0.50874 0.0
C1986 C 0.13949 0.43065 0.52148 0.0
C1987 C 0.11156 0.42111 0.51048 0.0
H1988 H 0.18553 0.42077 0.52944 0.0
H1989 H 0.14203 0.45273 0.53091 0.0
S1990 S 0.09582 0.34689 0.47751 0.0
N1991 N 0.13154 0.34552 0.48627 0.0
N1992 N 0.08428 0.38041 0.48738 0.0
C1993 C 0.10984 0.39211 0.49864 0.0
C1994 C 0.13569 0.37323 0.49776 0.0
C1995 C 0.37033 0.13507 0.5021 0.0
C1996 C 0.37918 0.16348 0.51248 0.0
C1997 C 0.38978 0.11032 0.50296 0.0
C1998 C 0.41906 0.11293 0.51401 0.0
H1999 H 0.34802 0.13183 0.4935 0.0
H2000 H 0.38196 0.08913 0.49442 0.0
S2001 S 0.45326 0.18252 0.54397 0.0
N2002 N 0.41942 0.19264 0.53385 0.0
N2003 N 0.45551 0.14666 0.53626 0.0
C2004 C 0.42803 0.14129 0.52466 0.0
C2005 C 0.40828 0.16634 0.5237 0.0
C2006 C 0.85935 0.40879 0.50959 0.0
C2007 C 0.86246 0.37812 0.51486 0.0
C2008 C 0.88414 0.42781 0.50882 0.0
C2009 C 0.91355 0.41725 0.51315 0.0
H2010 H 0.83745 0.41829 0.50611 0.0
H2011 H 0.87992 0.45118 0.50456 0.0
S2012 S 0.93405 0.33827 0.52668 0.0
N2013 N 0.89737 0.33764 0.52369 0.0
N2014 N 0.94402 0.37346 0.52248 0.0
C2015 C 0.91704 0.38648 0.5183 0.0
C2016 C 0.89158 0.367 0.51918 0.0
C2017 C 0.13138 0.65548 0.49774 0.0
C2018 C 0.15902 0.6474 0.51059 0.0
C2019 C 0.10654 0.63602 0.49813 0.0
C2020 C 0.10831 0.60755 0.51122 0.0
H2021 H 0.12879 0.67718 0.48754 0.0
H2022 H 0.08603 0.64314 0.4876 0.0
S2023 S 0.17518 0.5757 0.54865 0.0
N2024 N 0.18629 0.60862 0.53668 0.0
N2025 N 0.13995 0.57297 0.53862 0.0
C2026 C 0.1357 0.59949 0.52459 0.0
C2027 C 0.16088 0.61909 0.52396 0.0
loop_
_geom_bond_atom_site_label_1
_geom_bond_atom_site_label_2
_geom_bond_distance
_geom_bond_site_symmetry_2
_ccdc_geom_bond_type
C0 C1 1.386 1_655 S
C0 C2 1.397 . S
C0 H24 0.931 . S
C1 C0 1.386 1_455 S
C1 C5 1.397 . S
C2 C0 1.397 . S
C2 C3 1.384 1_655 S
C2 H25 0.930 . S
C3 C2 1.384 1_455 S
C3 C4 1.377 . S
C3 C6 1.481 . S
C4 C3 1.377 . S
C4 C5 1.389 . S
C4 H26 0.929 . S
C5 C1 1.397 . S
C5 C4 1.389 . S
C5 H27 0.931 . S
C6 C3 1.481 . S
C6 C7 1.387 . S
C6 C11 1.390 . S
C7 C6 1.387 . S
C7 C8 1.401 . S
C7 H28 0.929 1_455 S
C8 C7 1.401 . S
C8 C9 1.377 . S
C8 C17 1.511 1_455 S
C9 C8 1.377 . S
C9 C10 1.394 . S
C9 H30 0.930 . S
C10 C9 1.394 . S
C10 C11 1.361 . S
C10 C12 1.500 . S
C11 C6 1.390 . S
C11 C10 1.361 . S
C11 H29 0.931 . S
C12 C10 1.500 . S
C12 C13 1.371 1_455 S
C12 C14 1.365 . S
C13 C12 1.371 1_655 S
C13 C23 1.386 . S
C13 H31 0.931 . S
C14 C12 1.365 . S
C14 C15 1.409 . S
C14 H32 0.929 . S
C15 C14 1.409 . S
C15 C16 1.380 . S
C15 H33 0.930 . S
C16 C15 1.380 . S
C16 C23 1.357 1_455 S
C17 C8 1.511 1_655 S
C17 C18 1.340 . S
C17 C19 1.372 1_655 S
C18 C17 1.340 . S
C18 C22 1.394 . S
C18 H34 0.930 . S
C19 C17 1.372 1_455 S
C19 C20 1.392 . S
C19 H35 0.931 . S
C20 C19 1.392 . S
C20 C21 1.331 . S
C20 H38 0.932 . S
C21 C20 1.331 . S
C21 C22 1.336 1_455 S
C22 C18 1.394 . S
C22 C21 1.336 1_655 S
C22 H37 0.929 . S
C23 C13 1.386 . S
C23 C16 1.357 1_655 S
C23 H36 0.928 . S
H24 C0 0.931 . S
H25 C2 0.930 . S
H26 C4 0.929 . S
H27 C5 0.931 . S
H28 C7 0.929 1_655 S
H29 C11 0.931 . S
H30 C9 0.930 . S
H31 C13 0.931 . S
H32 C14 0.929 . S
H33 C15 0.930 . S
H34 C18 0.930 . S
H35 C19 0.931 . S
H36 C23 0.928 . S
H37 C22 0.929 . S
H38 C20 0.932 . S
C39 C40 1.396 . S
C39 C41 1.397 . S
C39 H63 0.931 . S
C40 C39 1.396 . S
C40 C44 1.387 1_545 S
C41 C39 1.397 . S
C41 C42 1.390 . S
C41 H64 0.930 . S
C42 C41 1.390 . S
C42 C43 1.371 1_545 S
C42 C45 1.480 . S
C43 C42 1.371 1_565 S
C43 C44 1.389 . S
C43 H65 0.929 . S
C44 C40 1.387 1_565 S
C44 C43 1.389 . S
C44 H66 0.931 . S
C45 C42 1.480 . S
C45 C46 1.389 . S
C45 C50 1.390 . S
C46 C45 1.389 . S
C46 C47 1.402 . S
C46 H67 0.930 . S
C47 C46 1.402 . S
C47 C48 1.377 . S
C47 C56 1.513 . S
C48 C47 1.377 . S
C48 C49 1.392 . S
C48 H69 0.931 . S
C49 C48 1.392 . S
C49 C50 1.361 . S
C49 C51 1.499 1_545 S
C50 C45 1.390 . S
C50 C49 1.361 . S
C50 H68 0.931 . S
C51 C49 1.499 1_565 S
C51 C52 1.362 1_565 S
C51 C53 1.374 . S
C52 C51 1.362 1_545 S
C52 C62 1.386 . S
C52 H70 0.931 . S
C53 C51 1.374 . S
C53 C54 1.409 . S
C53 H71 0.929 . S
C54 C53 1.409 . S
C54 C55 1.379 . S
C54 H72 0.930 . S
C55 C54 1.379 . S
C55 C62 1.358 1_565 S
C56 C47 1.513 . S
C56 C57 1.341 . S
C56 C58 1.371 1_545 S
C57 C56 1.341 . S
C57 C61 1.394 . S
C57 H73 0.930 . S
C58 C56 1.371 1_565 S
C58 C59 1.392 . S
C58 H74 0.931 . S
C59 C58 1.392 . S
C59 C60 1.322 1_565 S
C59 H77 0.932 . S
C60 C59 1.322 1_545 S
C60 C61 1.346 . S
C61 C57 1.394 . S
C61 C60 1.346 . S
C61 H76 0.929 . S
C62 C52 1.386 . S
C62 C55 1.358 1_545 S
C62 H75 0.928 . S
H63 C39 0.931 . S
H64 C41 0.930 . S
H65 C43 0.929 . S
H66 C44 0.931 . S
H67 C46 0.930 . S
H68 C50 0.931 . S
H69 C48 0.931 . S
H70 C52 0.931 . S
H71 C53 0.929 . S
H72 C54 0.930 . S
H73 C57 0.930 . S
H74 C58 0.931 . S
H75 C62 0.928 . S
H76 C61 0.929 . S
H77 C59 0.932 . S
C78 C79 1.386 1_655 S
C78 C80 1.397 . S
C78 H102 0.931 . S
C79 C78 1.386 1_455 S
C79 C83 1.397 . S
C80 C78 1.397 . S
C80 C81 1.384 1_655 S
C80 H103 0.930 . S
C81 C80 1.384 1_455 S
C81 C82 1.377 . S
C81 C84 1.481 . S
C82 C81 1.377 . S
C82 C83 1.389 . S
C82 H104 0.929 . S
C83 C79 1.397 . S
C83 C82 1.389 . S
C83 H105 0.931 . S
C84 C81 1.481 . S
C84 C85 1.387 . S
C84 C89 1.390 . S
C85 C84 1.387 . S
C85 C86 1.401 . S
C85 H106 0.929 1_455 S
C86 C85 1.401 . S
C86 C87 1.377 . S
C86 C95 1.511 1_455 S
C87 C86 1.377 . S
C87 C88 1.394 . S
C87 H108 0.930 . S
C88 C87 1.394 . S
C88 C89 1.361 . S
C88 C90 1.500 . S
C89 C84 1.390 . S
C89 C88 1.361 . S
C89 H107 0.931 . S
C90 C88 1.500 . S
C90 C91 1.371 1_455 S
C90 C92 1.365 . S
C91 C90 1.371 1_655 S
C91 C101 1.386 . S
C91 H109 0.931 . S
C92 C90 1.365 . S
C92 C93 1.409 . S
C92 H110 0.929 . S
C93 C92 1.409 . S
C93 C94 1.380 . S
C93 H111 0.930 . S
C94 C93 1.380 . S
C94 C101 1.357 1_455 S
C95 C86 1.511 1_655 S
C95 C96 1.340 . S
C95 C97 1.372 1_655 S
C96 C95 1.340 . S
C96 C100 1.394 . S
C96 H112 0.930 . S
C97 C95 1.372 1_455 S
C97 C98 1.392 . S
C97 H113 0.931 . S
C98 C97 1.392 . S
C98 C99 1.331 . S
C98 H116 0.932 . S
C99 C98 1.331 . S
C99 C100 1.336 1_455 S
C100 C96 1.394 . S
C100 C99 1.336 1_655 S
C100 H115 0.929 . S
C101 C91 1.386 . S
C101 C94 1.357 1_655 S
C101 H114 0.928 . S
H102 C78 0.931 . S
H103 C80 0.930 . S
H104 C82 0.929 . S
H105 C83 0.931 . S
H106 C85 0.929 1_655 S
H107 C89 0.931 . S
H108 C87 0.930 . S
H109 C91 0.931 . S
H110 C92 0.929 . S
H111 C93 0.930 . S
H112 C96 0.930 . S
H113 C97 0.931 . S
H114 C101 0.928 . S
H115 C100 0.929 . S
H116 C98 0.932 . S
C117 C118 1.396 . S
C117 C119 1.397 . S
C117 H141 0.931 . S
C118 C117 1.396 . S
C118 C122 1.387 1_545 S
C119 C117 1.397 . S
C119 C120 1.390 . S
C119 H142 0.930 . S
C120 C119 1.390 . S
C120 C121 1.371 1_545 S
C120 C123 1.480 . S
C121 C120 1.371 1_565 S
C121 C122 1.389 . S
C121 H143 0.929 . S
C122 C118 1.387 1_565 S
C122 C121 1.389 . S
C122 H144 0.931 . S
C123 C120 1.480 . S
C123 C124 1.389 . S
C123 C128 1.390 . S
C124 C123 1.389 . S
C124 C125 1.402 . S
C124 H145 0.930 . S
C125 C124 1.402 . S
C125 C126 1.377 . S
C125 C134 1.513 . S
C126 C125 1.377 . S
C126 C127 1.392 . S
C126 H147 0.931 . S
C127 C126 1.392 . S
C127 C128 1.361 . S
C127 C129 1.499 1_545 S
C128 C123 1.390 . S
C128 C127 1.361 . S
C128 H146 0.931 . S
C129 C127 1.499 1_565 S
C129 C130 1.362 1_565 S
C129 C131 1.374 . S
C130 C129 1.362 1_545 S
C130 C140 1.386 . S
C130 H148 0.931 . S
C131 C129 1.374 . S
C131 C132 1.409 . S
C131 H149 0.929 . S
C132 C131 1.409 . S
C132 C133 1.379 . S
C132 H150 0.930 . S
C133 C132 1.379 . S
C133 C140 1.358 1_565 S
C134 C125 1.513 . S
C134 C135 1.341 . S
C134 C136 1.371 1_545 S
C135 C134 1.341 . S
C135 C139 1.394 . S
C135 H151 0.930 . S
C136 C134 1.371 1_565 S
C136 C137 1.392 . S
C136 H152 0.931 . S
C137 C136 1.392 . S
C137 C138 1.322 1_565 S
C137 H155 0.932 . S
C138 C137 1.322 1_545 S
C138 C139 1.346 . S
C139 C135 1.394 . S
C139 C138 1.346 . S
C139 H154 0.929 . S
C140 C130 1.386 . S
C140 C133 1.358 1_545 S
C140 H153 0.928 . S
H141 C117 0.931 . S
H142 C119 0.930 . S
H143 C121 0.929 . S
H144 C122 0.931 . S
H145 C124 0.930 . S
H146 C128 0.931 . S
H147 C126 0.931 . S
H148 C130 0.931 . S
H149 C131 0.929 . S
H150 C132 0.930 . S
H151 C135 0.930 . S
H152 C136 0.931 . S
H153 C140 0.928 . S
H154 C139 0.929 . S
H155 C137 0.932 . S
C156 C157 1.386 1_655 S
C156 C158 1.397 . S
C156 H180 0.931 . S
C157 C156 1.386 1_455 S
C157 C161 1.397 . S
C158 C156 1.397 . S
C158 C159 1.384 1_655 S
C158 H181 0.930 . S
C159 C158 1.384 1_455 S
C159 C160 1.377 . S
C159 C162 1.481 . S
C160 C159 1.377 . S
C160 C161 1.389 . S
C160 H182 0.929 . S
C161 C157 1.397 . S
C161 C160 1.389 . S
C161 H183 0.931 . S
C162 C159 1.481 . S
C162 C163 1.387 . S
C162 C167 1.390 . S
C163 C162 1.387 . S
C163 C164 1.401 . S
C163 H184 0.929 1_455 S
C164 C163 1.401 . S
C164 C165 1.377 . S
C164 C173 1.511 1_455 S
C165 C164 1.377 . S
C165 C166 1.394 . S
C165 H186 0.930 . S
C166 C165 1.394 . S
C166 C167 1.361 . S
C166 C168 1.500 . S
C167 C162 1.390 . S
C167 C166 1.361 . S
C167 H185 0.931 . S
C168 C166 1.500 . S
C168 C169 1.371 1_455 S
C168 C170 1.365 . S
C169 C168 1.371 1_655 S
C169 C179 1.386 . S
C169 H187 0.931 . S
C170 C168 1.365 . S
C170 C171 1.409 . S
C170 H188 0.929 . S
C171 C170 1.409 . S
C171 C172 1.380 . S
C171 H189 0.930 . S
C172 C171 1.380 . S
C172 C179 1.357 1_455 S
C173 C164 1.511 1_655 S
C173 C174 1.340 . S
C173 C175 1.372 1_655 S
C174 C173 1.340 . S
C174 C178 1.394 . S
C174 H190 0.930 . S
C175 C173 1.372 1_455 S
C175 C176 1.392 . S
C175 H191 0.931 . S
C176 C175 1.392 . S
C176 C177 1.331 . S
C176 H194 0.932 . S
C177 C176 1.331 . S
C177 C178 1.336 1_455 S
C178 C174 1.394 . S
C178 C177 1.336 1_655 S
C178 H193 0.929 . S
C179 C169 1.386 . S
C179 C172 1.357 1_655 S
C179 H192 0.928 . S
H180 C156 0.931 . S
H181 C158 0.930 . S
H182 C160 0.929 . S
H183 C161 0.931 . S
H184 C163 0.929 1_655 S
H185 C167 0.931 . S
H186 C165 0.930 . S
H187 C169 0.931 . S
H188 C170 0.929 . S
H189 C171 0.930 . S
H190 C174 0.930 . S
H191 C175 0.931 . S
H192 C179 0.928 . S
H193 C178 0.929 . S
H194 C176 0.932 . S
C195 C196 1.389 . S
C195 C197 1.397 . S
C195 H219 0.931 . S
C196 C195 1.389 . S
C196 C200 1.394 1_565 S
C197 C195 1.397 . S
C197 C198 1.383 . S
C197 H220 0.930 . S
C198 C197 1.383 . S
C198 C199 1.378 1_565 S
C198 C201 1.480 . S
C199 C198 1.378 1_545 S
C199 C200 1.389 . S
C199 H221 0.929 . S
C200 C196 1.394 1_545 S
C200 C199 1.389 . S
C200 H222 0.931 . S
C201 C198 1.480 . S
C201 C202 1.388 . S
C201 C206 1.390 . S
C202 C201 1.388 . S
C202 C203 1.402 . S
C202 H223 0.930 . S
C203 C202 1.402 . S
C203 C204 1.376 . S
C203 C212 1.512 . S
C204 C203 1.376 . S
C204 C205 1.392 1_565 S
C204 H225 0.933 . S
C205 C204 1.392 1_545 S
C205 C206 1.361 1_545 S
C205 C207 1.499 . S
C206 C201 1.390 . S
C206 C205 1.361 1_565 S
C206 H224 0.931 . S
C207 C205 1.499 . S
C207 C208 1.357 1_545 S
C207 C209 1.380 . S
C208 C207 1.357 1_565 S
C208 C218 1.386 . S
C208 H226 0.931 . S
C209 C207 1.380 . S
C209 C210 1.409 . S
C209 H227 0.929 . S
C210 C209 1.409 . S
C210 C211 1.384 . S
C210 H228 0.930 . S
C211 C210 1.384 . S
C211 C218 1.353 1_545 S
C212 C203 1.512 . S
C212 C213 1.341 . S
C212 C214 1.371 1_565 S
C213 C212 1.341 . S
C213 C217 1.394 . S
C213 H229 0.930 . S
C214 C212 1.371 1_545 S
C214 C215 1.392 . S
C214 H230 0.931 . S
C215 C214 1.392 . S
C215 C216 1.325 1_545 S
C215 H233 0.932 . S
C216 C215 1.325 1_565 S
C216 C217 1.342 . S
C217 C213 1.394 . S
C217 C216 1.342 . S
C217 H232 0.929 . S
C218 C208 1.386 . S
C218 C211 1.353 1_565 S
C218 H231 0.928 . S
H219 C195 0.931 . S
H220 C197 0.930 . S
H221 C199 0.929 . S
H222 C200 0.931 . S
H223 C202 0.930 . S
H224 C206 0.931 . S
H225 C204 0.933 . S
H226 C208 0.931 . S
H227 C209 0.929 . S
H228 C210 0.930 . S
H229 C213 0.930 . S
H230 C214 0.931 . S
H231 C218 0.928 . S
H232 C217 0.929 . S
H233 C215 0.932 . S
C234 C235 1.386 1_655 S
C234 C236 1.397 . S
C234 H258 0.931 . S
C235 C234 1.386 1_455 S
C235 C239 1.397 . S
C236 C234 1.397 . S
C236 C237 1.384 1_655 S
C236 H259 0.930 . S
C237 C236 1.384 1_455 S
C237 C238 1.377 . S
C237 C240 1.481 . S
C238 C237 1.377 . S
C238 C239 1.389 . S
C238 H260 0.929 . S
C239 C235 1.397 . S
C239 C238 1.389 . S
C239 H261 0.931 . S
C240 C237 1.481 . S
C240 C241 1.387 . S
C240 C245 1.390 . S
C241 C240 1.387 . S
C241 C242 1.401 . S
C241 H262 0.929 1_455 S
C242 C241 1.401 . S
C242 C243 1.377 . S
C242 C251 1.511 1_455 S
C243 C242 1.377 . S
C243 C244 1.394 . S
C243 H264 0.930 . S
C244 C243 1.394 . S
C244 C245 1.361 . S
C244 C246 1.500 . S
C245 C240 1.390 . S
C245 C244 1.361 . S
C245 H263 0.931 . S
C246 C244 1.500 . S
C246 C247 1.371 1_455 S
C246 C248 1.365 . S
C247 C246 1.371 1_655 S
C247 C257 1.386 . S
C247 H265 0.931 . S
C248 C246 1.365 . S
C248 C249 1.409 . S
C248 H266 0.929 . S
C249 C248 1.409 . S
C249 C250 1.380 . S
C249 H267 0.930 . S
C250 C249 1.380 . S
C250 C257 1.357 1_455 S
C251 C242 1.511 1_655 S
C251 C252 1.340 . S
C251 C253 1.372 1_655 S
C252 C251 1.340 . S
C252 C256 1.394 . S
C252 H268 0.930 . S
C253 C251 1.372 1_455 S
C253 C254 1.392 . S
C253 H269 0.931 . S
C254 C253 1.392 . S
C254 C255 1.331 . S
C254 H272 0.932 . S
C255 C254 1.331 . S
C255 C256 1.336 1_455 S
C256 C252 1.394 . S
C256 C255 1.336 1_655 S
C256 H271 0.929 . S
C257 C247 1.386 . S
C257 C250 1.357 1_655 S
C257 H270 0.928 . S
H258 C234 0.931 . S
H259 C236 0.930 . S
H260 C238 0.929 . S
H261 C239 0.931 . S
H262 C241 0.929 1_655 S
H263 C245 0.931 . S
H264 C243 0.930 . S
H265 C247 0.931 . S
H266 C248 0.929 . S
H267 C249 0.930 . S
H268 C252 0.930 . S
H269 C253 0.931 . S
H270 C257 0.928 . S
H271 C256 0.929 . S
H272 C254 0.932 . S
C273 C274 1.389 . S
C273 C275 1.397 . S
C273 H297 0.931 . S
C274 C273 1.389 . S
C274 C278 1.394 1_565 S
C275 C273 1.397 . S
C275 C276 1.383 . S
C275 H298 0.930 . S
C276 C275 1.383 . S
C276 C277 1.378 1_565 S
C276 C279 1.480 . S
C277 C276 1.378 1_545 S
C277 C278 1.389 . S
C277 H299 0.929 . S
C278 C274 1.394 1_545 S
C278 C277 1.389 . S
C278 H300 0.931 . S
C279 C276 1.480 . S
C279 C280 1.388 . S
C279 C284 1.390 . S
C280 C279 1.388 . S
C280 C281 1.402 . S
C280 H301 0.930 . S
C281 C280 1.402 . S
C281 C282 1.376 . S
C281 C290 1.512 . S
C282 C281 1.376 . S
C282 C283 1.392 1_565 S
C282 H303 0.933 . S
C283 C282 1.392 1_545 S
C283 C284 1.361 1_545 S
C283 C285 1.499 . S
C284 C279 1.390 . S
C284 C283 1.361 1_565 S
C284 H302 0.931 . S
C285 C283 1.499 . S
C285 C286 1.357 1_545 S
C285 C287 1.380 . S
C286 C285 1.357 1_565 S
C286 C296 1.386 . S
C286 H304 0.931 . S
C287 C285 1.380 . S
C287 C288 1.409 . S
C287 H305 0.929 . S
C288 C287 1.409 . S
C288 C289 1.384 . S
C288 H306 0.930 . S
C289 C288 1.384 . S
C289 C296 1.353 1_545 S
C290 C281 1.512 . S
C290 C291 1.341 . S
C290 C292 1.371 1_565 S
C291 C290 1.341 . S
C291 C295 1.394 . S
C291 H307 0.930 . S
C292 C290 1.371 1_545 S
C292 C293 1.392 . S
C292 H308 0.931 . S
C293 C292 1.392 . S
C293 C294 1.325 1_545 S
C293 H311 0.932 . S
C294 C293 1.325 1_565 S
C294 C295 1.342 . S
C295 C291 1.394 . S
C295 C294 1.342 . S
C295 H310 0.929 . S
C296 C286 1.386 . S
C296 C289 1.353 1_565 S
C296 H309 0.928 . S
H297 C273 0.931 . S
H298 C275 0.930 . S
H299 C277 0.929 . S
H300 C278 0.931 . S
H301 C280 0.930 . S
H302 C284 0.931 . S
H303 C282 0.933 . S
H304 C286 0.931 . S
H305 C287 0.929 . S
H306 C288 0.930 . S
H307 C291 0.930 . S
H308 C292 0.931 . S
H309 C296 0.928 . S
H310 C295 0.929 . S
H311 C293 0.932 . S
C312 C313 1.389 . S
C312 C314 1.397 . S
C312 H336 0.931 . S
C313 C312 1.389 . S
C313 C317 1.394 1_556 S
C314 C312 1.397 . S
C314 C315 1.383 . S
C314 H337 0.930 . S
C315 C314 1.383 . S
C315 C316 1.378 1_556 S
C315 C318 1.480 . S
C316 C315 1.378 1_554 S
C316 C317 1.389 . S
C316 H338 0.929 . S
C317 C313 1.394 1_554 S
C317 C316 1.389 . S
C317 H339 0.931 . S
C318 C315 1.480 . S
C318 C319 1.388 . S
C318 C323 1.390 . S
C319 C318 1.388 . S
C319 C320 1.402 . S
C319 H340 0.930 . S
C320 C319 1.402 . S
C320 C321 1.376 . S
C320 C329 1.512 . S
C321 C320 1.376 . S
C321 C322 1.392 1_556 S
C321 H342 0.933 . S
C322 C321 1.392 1_554 S
C322 C323 1.361 1_554 S
C322 C324 1.499 . S
C323 C318 1.390 . S
C323 C322 1.361 1_556 S
C323 H341 0.931 . S
C324 C322 1.499 . S
C324 C325 1.357 1_554 S
C324 C326 1.380 . S
C325 C324 1.357 1_556 S
C325 C335 1.386 . S
C325 H343 0.931 . S
C326 C324 1.380 . S
C326 C327 1.409 . S
C326 H344 0.929 . S
C327 C326 1.409 . S
C327 C328 1.384 . S
C327 H345 0.930 . S
C328 C327 1.384 . S
C328 C335 1.353 1_554 S
C329 C320 1.512 . S
C329 C330 1.341 . S
C329 C331 1.371 1_556 S
C330 C329 1.341 . S
C330 C334 1.394 . S
C330 H346 0.930 . S
C331 C329 1.371 1_554 S
C331 C332 1.392 . S
C331 H347 0.931 . S
C332 C331 1.392 . S
C332 C333 1.325 1_554 S
C332 H350 0.932 . S
C333 C332 1.325 1_556 S
C333 C334 1.342 . S
C334 C330 1.394 . S
C334 C333 1.342 . S
C334 H349 0.929 . S
C335 C325 1.386 . S
C335 C328 1.353 1_556 S
C335 H348 0.928 . S
H336 C312 0.931 . S
H337 C314 0.930 . S
H338 C316 0.929 . S
H339 C317 0.931 . S
H340 C319 0.930 . S
H341 C323 0.931 . S
H342 C321 0.933 . S
H343 C325 0.931 . S
H344 C326 0.929 . S
H345 C327 0.930 . S
H346 C330 0.930 . S
H347 C331 0.931 . S
H348 C335 0.928 . S
H349 C334 0.929 . S
H350 C332 0.932 . S
C351 C352 1.396 . S
C351 C353 1.397 . S
C351 H375 0.931 . S
C352 C351 1.396 . S
C352 C356 1.387 1_554 S
C353 C351 1.397 . S
C353 C354 1.390 . S
C353 H376 0.930 . S
C354 C353 1.390 . S
C354 C355 1.371 1_554 S
C354 C357 1.480 . S
C355 C354 1.371 1_556 S
C355 C356 1.389 . S
C355 H377 0.929 . S
C356 C352 1.387 1_556 S
C356 C355 1.389 . S
C356 H378 0.931 . S
C357 C354 1.480 . S
C357 C358 1.389 . S
C357 C362 1.390 . S
C358 C357 1.389 . S
C358 C359 1.402 . S
C358 H379 0.930 . S
C359 C358 1.402 . S
C359 C360 1.377 . S
C359 C368 1.513 . S
C360 C359 1.377 . S
C360 C361 1.392 . S
C360 H381 0.931 . S
C361 C360 1.392 . S
C361 C362 1.361 . S
C361 C363 1.499 1_554 S
C362 C357 1.390 . S
C362 C361 1.361 . S
C362 H380 0.931 . S
C363 C361 1.499 1_556 S
C363 C364 1.362 1_556 S
C363 C365 1.374 . S
C364 C363 1.362 1_554 S
C364 C374 1.386 . S
C364 H382 0.931 . S
C365 C363 1.374 . S
C365 C366 1.409 . S
C365 H383 0.929 . S
C366 C365 1.409 . S
C366 C367 1.379 . S
C366 H384 0.930 . S
C367 C366 1.379 . S
C367 C374 1.358 1_556 S
C368 C359 1.513 . S
C368 C369 1.341 . S
C368 C370 1.371 1_554 S
C369 C368 1.341 . S
C369 C373 1.394 . S
C369 H385 0.930 . S
C370 C368 1.371 1_556 S
C370 C371 1.392 . S
C370 H386 0.931 . S
C371 C370 1.392 . S
C371 C372 1.322 1_556 S
C371 H389 0.932 . S
C372 C371 1.322 1_554 S
C372 C373 1.346 . S
C373 C369 1.394 . S
C373 C372 1.346 . S
C373 H388 0.929 . S
C374 C364 1.386 . S
C374 C367 1.358 1_554 S
C374 H387 0.928 . S
H375 C351 0.931 . S
H376 C353 0.930 . S
H377 C355 0.929 . S
H378 C356 0.931 . S
H379 C358 0.930 . S
H380 C362 0.931 . S
H381 C360 0.931 . S
H382 C364 0.931 . S
H383 C365 0.929 . S
H384 C366 0.930 . S
H385 C369 0.930 . S
H386 C370 0.931 . S
H387 C374 0.928 . S
H388 C373 0.929 . S
H389 C371 0.932 . S
C390 C391 1.389 . S
C390 C392 1.397 . S
C390 H414 0.931 . S
C391 C390 1.389 . S
C391 C395 1.394 1_556 S
C392 C390 1.397 . S
C392 C393 1.383 . S
C392 H415 0.930 . S
C393 C392 1.383 . S
C393 C394 1.378 1_556 S
C393 C396 1.480 . S
C394 C393 1.378 1_554 S
C394 C395 1.389 . S
C394 H416 0.929 . S
C395 C391 1.394 1_554 S
C395 C394 1.389 . S
C395 H417 0.931 . S
C396 C393 1.480 . S
C396 C397 1.388 . S
C396 C401 1.390 . S
C397 C396 1.388 . S
C397 C398 1.402 . S
C397 H418 0.930 . S
C398 C397 1.402 . S
C398 C399 1.376 . S
C398 C407 1.512 . S
C399 C398 1.376 . S
C399 C400 1.392 1_556 S
C399 H420 0.933 . S
C400 C399 1.392 1_554 S
C400 C401 1.361 1_554 S
C400 C402 1.499 . S
C401 C396 1.390 . S
C401 C400 1.361 1_556 S
C401 H419 0.931 . S
C402 C400 1.499 . S
C402 C403 1.357 1_554 S
C402 C404 1.380 . S
C403 C402 1.357 1_556 S
C403 C413 1.386 . S
C403 H421 0.931 . S
C404 C402 1.380 . S
C404 C405 1.409 . S
C404 H422 0.929 . S
C405 C404 1.409 . S
C405 C406 1.384 . S
C405 H423 0.930 . S
C406 C405 1.384 . S
C406 C413 1.353 1_554 S
C407 C398 1.512 . S
C407 C408 1.341 . S
C407 C409 1.371 1_556 S
C408 C407 1.341 . S
C408 C412 1.394 . S
C408 H424 0.930 . S
C409 C407 1.371 1_554 S
C409 C410 1.392 . S
C409 H425 0.931 . S
C410 C409 1.392 . S
C410 C411 1.325 1_554 S
C410 H428 0.932 . S
C411 C410 1.325 1_556 S
C411 C412 1.342 . S
C412 C408 1.394 . S
C412 C411 1.342 . S
C412 H427 0.929 . S
C413 C403 1.386 . S
C413 C406 1.353 1_556 S
C413 H426 0.928 . S
H414 C390 0.931 . S
H415 C392 0.930 . S
H416 C394 0.929 . S
H417 C395 0.931 . S
H418 C397 0.930 . S
H419 C401 0.931 . S
H420 C399 0.933 . S
H421 C403 0.931 . S
H422 C404 0.929 . S
H423 C405 0.930 . S
H424 C408 0.930 . S
H425 C409 0.931 . S
H426 C413 0.928 . S
H427 C412 0.929 . S
H428 C410 0.932 . S
C429 C430 1.396 . S
C429 C431 1.397 . S
C429 H453 0.931 . S
C430 C429 1.396 . S
C430 C434 1.387 1_554 S
C431 C429 1.397 . S
C431 C432 1.390 . S
C431 H454 0.930 . S
C432 C431 1.390 . S
C432 C433 1.371 1_554 S
C432 C435 1.480 . S
C433 C432 1.371 1_556 S
C433 C434 1.389 . S
C433 H455 0.929 . S
C434 C430 1.387 1_556 S
C434 C433 1.389 . S
C434 H456 0.931 . S
C435 C432 1.480 . S
C435 C436 1.389 . S
C435 C440 1.390 . S
C436 C435 1.389 . S
C436 C437 1.402 . S
C436 H457 0.930 . S
C437 C436 1.402 . S
C437 C438 1.377 . S
C437 C446 1.513 . S
C438 C437 1.377 . S
C438 C439 1.392 . S
C438 H459 0.931 . S
C439 C438 1.392 . S
C439 C440 1.361 . S
C439 C441 1.499 1_554 S
C440 C435 1.390 . S
C440 C439 1.361 . S
C440 H458 0.931 . S
C441 C439 1.499 1_556 S
C441 C442 1.362 1_556 S
C441 C443 1.374 . S
C442 C441 1.362 1_554 S
C442 C452 1.386 . S
C442 H460 0.931 . S
C443 C441 1.374 . S
C443 C444 1.409 . S
C443 H461 0.929 . S
C444 C443 1.409 . S
C444 C445 1.379 . S
C444 H462 0.930 . S
C445 C444 1.379 . S
C445 C452 1.358 1_556 S
C446 C437 1.513 . S
C446 C447 1.341 . S
C446 C448 1.371 1_554 S
C447 C446 1.341 . S
C447 C451 1.394 . S
C447 H463 0.930 . S
C448 C446 1.371 1_556 S
C448 C449 1.392 . S
C448 H464 0.931 . S
C449 C448 1.392 . S
C449 C450 1.322 1_556 S
C449 H467 0.932 . S
C450 C449 1.322 1_554 S
C450 C451 1.346 . S
C451 C447 1.394 . S
C451 C450 1.346 . S
C451 H466 0.929 . S
C452 C442 1.386 . S
C452 C445 1.358 1_554 S
C452 H465 0.928 . S
H453 C429 0.931 . S
H454 C431 0.930 . S
H455 C433 0.929 . S
H456 C434 0.931 . S
H457 C436 0.930 . S
H458 C440 0.931 . S
H459 C438 0.931 . S
H460 C442 0.931 . S
H461 C443 0.929 . S
H462 C444 0.930 . S
H463 C447 0.930 . S
H464 C448 0.931 . S
H465 C452 0.928 . S
H466 C451 0.929 . S
H467 C449 0.932 . S
C468 C469 1.386 . S
C468 C470 1.397 . S
C468 H492 0.931 . S
C469 C468 1.386 . S
C469 C473 1.397 . S
C470 C468 1.397 . S
C470 C471 1.384 . S
C470 H493 0.930 . S
C471 C470 1.384 . S
C471 C472 1.377 . S
C471 C474 1.481 . S
C472 C471 1.377 . S
C472 C473 1.389 . S
C472 H494 0.929 . S
C473 C469 1.397 . S
C473 C472 1.389 . S
C473 H495 0.931 . S
C474 C471 1.481 . S
C474 C475 1.387 . S
C474 C479 1.390 . S
C475 C474 1.387 . S
C475 C476 1.401 . S
C475 H496 0.930 . S
C476 C475 1.401 . S
C476 C477 1.376 . S
C476 C485 1.511 . S
C477 C476 1.376 . S
C477 C478 1.392 . S
C477 H498 0.931 . S
C478 C477 1.392 . S
C478 C479 1.361 . S
C478 C480 1.500 . S
C479 C474 1.390 . S
C479 C478 1.361 . S
C479 H497 0.931 . S
C480 C478 1.500 . S
C480 C481 1.371 . S
C480 C482 1.365 . S
C481 C480 1.371 . S
C481 C491 1.386 . S
C481 H499 0.931 . S
C482 C480 1.365 . S
C482 C483 1.409 . S
C482 H500 0.929 . S
C483 C482 1.409 . S
C483 C484 1.380 . S
C483 H501 0.930 . S
C484 C483 1.380 . S
C484 C491 1.357 . S
C485 C476 1.511 . S
C485 C486 1.341 . S
C485 C487 1.371 . S
C486 C485 1.341 . S
C486 C490 1.394 . S
C486 H502 0.930 . S
C487 C485 1.371 . S
C487 C488 1.392 . S
C487 H503 0.931 . S
C488 C487 1.392 . S
C488 C489 1.331 . S
C488 H506 0.932 . S
C489 C488 1.331 . S
C489 C490 1.336 . S
C490 C486 1.394 . S
C490 C489 1.336 . S
C490 H505 0.929 . S
C491 C481 1.386 . S
C491 C484 1.357 . S
C491 H504 0.928 . S
H492 C468 0.931 . S
H493 C470 0.930 . S
H494 C472 0.929 . S
H495 C473 0.931 . S
H496 C475 0.930 . S
H497 C479 0.931 . S
H498 C477 0.931 . S
H499 C481 0.931 . S
H500 C482 0.929 . S
H501 C483 0.930 . S
H502 C486 0.930 . S
H503 C487 0.931 . S
H504 C491 0.928 . S
H505 C490 0.929 . S
H506 C488 0.932 . S
C507 C508 1.386 . S
C507 C509 1.397 . S
C507 H531 0.931 . S
C508 C507 1.386 . S
C508 C512 1.397 . S
C509 C507 1.397 . S
C509 C510 1.384 . S
C509 H532 0.930 . S
C510 C509 1.384 . S
C510 C511 1.377 . S
C510 C513 1.481 . S
C511 C510 1.377 . S
C511 C512 1.389 . S
C511 H533 0.929 . S
C512 C508 1.397 . S
C512 C511 1.389 . S
C512 H534 0.931 . S
C513 C510 1.481 . S
C513 C514 1.387 . S
C513 C518 1.390 . S
C514 C513 1.387 . S
C514 C515 1.401 . S
C514 H535 0.930 . S
C515 C514 1.401 . S
C515 C516 1.376 . S
C515 C524 1.511 . S
C516 C515 1.376 . S
C516 C517 1.392 . S
C516 H537 0.931 . S
C517 C516 1.392 . S
C517 C518 1.361 . S
C517 C519 1.500 . S
C518 C513 1.390 . S
C518 C517 1.361 . S
C518 H536 0.931 . S
C519 C517 1.500 . S
C519 C520 1.371 . S
C519 C521 1.365 . S
C520 C519 1.371 . S
C520 C530 1.386 . S
C520 H538 0.931 . S
C521 C519 1.365 . S
C521 C522 1.409 . S
C521 H539 0.929 . S
C522 C521 1.409 . S
C522 C523 1.380 . S
C522 H540 0.930 . S
C523 C522 1.380 . S
C523 C530 1.357 . S
C524 C515 1.511 . S
C524 C525 1.341 . S
C524 C526 1.371 . S
C525 C524 1.341 . S
C525 C529 1.394 . S
C525 H541 0.930 . S
C526 C524 1.371 . S
C526 C527 1.392 . S
C526 H542 0.931 . S
C527 C526 1.392 . S
C527 C528 1.331 . S
C527 H545 0.932 . S
C528 C527 1.331 . S
C528 C529 1.336 . S
C529 C525 1.394 . S
C529 C528 1.336 . S
C529 H544 0.929 . S
C530 C520 1.386 . S
C530 C523 1.357 . S
C530 H543 0.928 . S
H531 C507 0.931 . S
H532 C509 0.930 . S
H533 C511 0.929 . S
H534 C512 0.931 . S
H535 C514 0.930 . S
H536 C518 0.931 . S
H537 C516 0.931 . S
H538 C520 0.931 . S
H539 C521 0.929 . S
H540 C522 0.930 . S
H541 C525 0.930 . S
H542 C526 0.931 . S
H543 C530 0.928 . S
H544 C529 0.929 . S
H545 C527 0.932 . S
C546 C547 1.386 . S
C546 C548 1.397 . S
C546 H570 0.931 . S
C547 C546 1.386 . S
C547 C551 1.397 . S
C548 C546 1.397 . S
C548 C549 1.384 . S
C548 H571 0.930 . S
C549 C548 1.384 . S
C549 C550 1.377 . S
C549 C552 1.481 . S
C550 C549 1.377 . S
C550 C551 1.389 . S
C550 H572 0.929 . S
C551 C547 1.397 . S
C551 C550 1.389 . S
C551 H573 0.931 . S
C552 C549 1.481 . S
C552 C553 1.387 . S
C552 C557 1.390 . S
C553 C552 1.387 . S
C553 C554 1.401 . S
C553 H574 0.930 . S
C554 C553 1.401 . S
C554 C555 1.376 . S
C554 C563 1.511 . S
C555 C554 1.376 . S
C555 C556 1.392 . S
C555 H576 0.931 . S
C556 C555 1.392 . S
C556 C557 1.361 . S
C556 C558 1.500 . S
C557 C552 1.390 . S
C557 C556 1.361 . S
C557 H575 0.931 . S
C558 C556 1.500 . S
C558 C559 1.371 . S
C558 C560 1.365 . S
C559 C558 1.371 . S
C559 C569 1.386 . S
C559 H577 0.931 . S
C560 C558 1.365 . S
C560 C561 1.409 . S
C560 H578 0.929 . S
C561 C560 1.409 . S
C561 C562 1.380 . S
C561 H579 0.930 . S
C562 C561 1.380 . S
C562 C569 1.357 . S
C563 C554 1.511 . S
C563 C564 1.341 . S
C563 C565 1.371 . S
C564 C563 1.341 . S
C564 C568 1.394 . S
C564 H580 0.930 . S
C565 C563 1.371 . S
C565 C566 1.392 . S
C565 H581 0.931 . S
C566 C565 1.392 . S
C566 C567 1.331 . S
C566 H584 0.932 . S
C567 C566 1.331 . S
C567 C568 1.336 . S
C568 C564 1.394 . S
C568 C567 1.336 . S
C568 H583 0.929 . S
C569 C559 1.386 . S
C569 C562 1.357 . S
C569 H582 0.928 . S
H570 C546 0.931 . S
H571 C548 0.930 . S
H572 C550 0.929 . S
H573 C551 0.931 . S
H574 C553 0.930 . S
H575 C557 0.931 . S
H576 C555 0.931 . S
H577 C559 0.931 . S
H578 C560 0.929 . S
H579 C561 0.930 . S
H580 C564 0.930 . S
H581 C565 0.931 . S
H582 C569 0.928 . S
H583 C568 0.929 . S
H584 C566 0.932 . S
C585 C586 1.386 . S
C585 C587 1.397 . S
C585 H609 0.931 . S
C586 C585 1.386 . S
C586 C590 1.397 . S
C587 C585 1.397 . S
C587 C588 1.384 . S
C587 H610 0.930 . S
C588 C587 1.384 . S
C588 C589 1.377 . S
C588 C591 1.481 . S
C589 C588 1.377 . S
C589 C590 1.389 . S
C589 H611 0.929 . S
C590 C586 1.397 . S
C590 C589 1.389 . S
C590 H612 0.931 . S
C591 C588 1.481 . S
C591 C592 1.387 . S
C591 C596 1.390 . S
C592 C591 1.387 . S
C592 C593 1.401 . S
C592 H613 0.930 . S
C593 C592 1.401 . S
C593 C594 1.376 . S
C593 C602 1.511 . S
C594 C593 1.376 . S
C594 C595 1.392 . S
C594 H615 0.931 . S
C595 C594 1.392 . S
C595 C596 1.361 . S
C595 C597 1.500 . S
C596 C591 1.390 . S
C596 C595 1.361 . S
C596 H614 0.931 . S
C597 C595 1.500 . S
C597 C598 1.371 . S
C597 C599 1.365 . S
C598 C597 1.371 . S
C598 C608 1.386 . S
C598 H616 0.931 . S
C599 C597 1.365 . S
C599 C600 1.409 . S
C599 H617 0.929 . S
C600 C599 1.409 . S
C600 C601 1.380 . S
C600 H618 0.930 . S
C601 C600 1.380 . S
C601 C608 1.357 . S
C602 C593 1.511 . S
C602 C603 1.341 . S
C602 C604 1.371 . S
C603 C602 1.341 . S
C603 C607 1.394 . S
C603 H619 0.930 . S
C604 C602 1.371 . S
C604 C605 1.392 . S
C604 H620 0.931 . S
C605 C604 1.392 . S
C605 C606 1.331 . S
C605 H623 0.932 . S
C606 C605 1.331 . S
C606 C607 1.336 . S
C607 C603 1.394 . S
C607 C606 1.336 . S
C607 H622 0.929 . S
C608 C598 1.386 . S
C608 C601 1.357 . S
C608 H621 0.928 . S
H609 C585 0.931 . S
H610 C587 0.930 . S
H611 C589 0.929 . S
H612 C590 0.931 . S
H613 C592 0.930 . S
H614 C596 0.931 . S
H615 C594 0.931 . S
H616 C598 0.931 . S
H617 C599 0.929 . S
H618 C600 0.930 . S
H619 C603 0.930 . S
H620 C604 0.931 . S
H621 C608 0.928 . S
H622 C607 0.929 . S
H623 C605 0.932 . S
C624 C625 1.386 . S
C624 C626 1.397 . S
C624 H648 0.931 . S
C625 C624 1.386 . S
C625 C629 1.397 . S
C626 C624 1.397 . S
C626 C627 1.384 . S
C626 H649 0.930 . S
C627 C626 1.384 . S
C627 C628 1.377 . S
C627 C630 1.481 . S
C628 C627 1.377 . S
C628 C629 1.389 . S
C628 H650 0.929 . S
C629 C625 1.397 . S
C629 C628 1.389 . S
C629 H651 0.931 . S
C630 C627 1.481 . S
C630 C631 1.387 . S
C630 C635 1.390 . S
C631 C630 1.387 . S
C631 C632 1.401 . S
C631 H652 0.930 . S
C632 C631 1.401 . S
C632 C633 1.376 . S
C632 C641 1.511 . S
C633 C632 1.376 . S
C633 C634 1.392 . S
C633 H654 0.931 . S
C634 C633 1.392 . S
C634 C635 1.361 . S
C634 C636 1.500 . S
C635 C630 1.390 . S
C635 C634 1.361 . S
C635 H653 0.931 . S
C636 C634 1.500 . S
C636 C637 1.371 . S
C636 C638 1.365 . S
C637 C636 1.371 . S
C637 C647 1.386 . S
C637 H655 0.931 . S
C638 C636 1.365 . S
C638 C639 1.409 . S
C638 H656 0.929 . S
C639 C638 1.409 . S
C639 C640 1.380 . S
C639 H657 0.930 . S
C640 C639 1.380 . S
C640 C647 1.357 . S
C641 C632 1.511 . S
C641 C642 1.341 . S
C641 C643 1.371 . S
C642 C641 1.341 . S
C642 C646 1.394 . S
C642 H658 0.930 . S
C643 C641 1.371 . S
C643 C644 1.392 . S
C643 H659 0.931 . S
C644 C643 1.392 . S
C644 C645 1.331 . S
C644 H662 0.932 . S
C645 C644 1.331 . S
C645 C646 1.336 . S
C646 C642 1.394 . S
C646 C645 1.336 . S
C646 H661 0.929 . S
C647 C637 1.386 . S
C647 C640 1.357 . S
C647 H660 0.928 . S
H648 C624 0.931 . S
H649 C626 0.930 . S
H650 C628 0.929 . S
H651 C629 0.931 . S
H652 C631 0.930 . S
H653 C635 0.931 . S
H654 C633 0.931 . S
H655 C637 0.931 . S
H656 C638 0.929 . S
H657 C639 0.930 . S
H658 C642 0.930 . S
H659 C643 0.931 . S
H660 C647 0.928 . S
H661 C646 0.929 . S
H662 C644 0.932 . S
C663 C664 1.386 . S
C663 C665 1.397 . S
C663 H687 0.931 . S
C664 C663 1.386 . S
C664 C668 1.397 . S
C665 C663 1.397 . S
C665 C666 1.384 . S
C665 H688 0.930 . S
C666 C665 1.384 . S
C666 C667 1.377 . S
C666 C669 1.481 . S
C667 C666 1.377 . S
C667 C668 1.389 . S
C667 H689 0.929 . S
C668 C664 1.397 . S
C668 C667 1.389 . S
C668 H690 0.931 . S
C669 C666 1.481 . S
C669 C670 1.387 . S
C669 C674 1.390 . S
C670 C669 1.387 . S
C670 C671 1.401 . S
C670 H691 0.930 . S
C671 C670 1.401 . S
C671 C672 1.376 . S
C671 C680 1.511 . S
C672 C671 1.376 . S
C672 C673 1.392 . S
C672 H693 0.931 . S
C673 C672 1.392 . S
C673 C674 1.361 . S
C673 C675 1.500 . S
C674 C669 1.390 . S
C674 C673 1.361 . S
C674 H692 0.931 . S
C675 C673 1.500 . S
C675 C676 1.371 . S
C675 C677 1.365 . S
C676 C675 1.371 . S
C676 C686 1.386 . S
C676 H694 0.931 . S
C677 C675 1.365 . S
C677 C678 1.409 . S
C677 H695 0.929 . S
C678 C677 1.409 . S
C678 C679 1.380 . S
C678 H696 0.930 . S
C679 C678 1.380 . S
C679 C686 1.357 . S
C680 C671 1.511 . S
C680 C681 1.341 . S
C680 C682 1.371 . S
C681 C680 1.341 . S
C681 C685 1.394 . S
C681 H697 0.930 . S
C682 C680 1.371 . S
C682 C683 1.392 . S
C682 H698 0.931 . S
C683 C682 1.392 . S
C683 C684 1.331 . S
C683 H701 0.932 . S
C684 C683 1.331 . S
C684 C685 1.336 . S
C685 C681 1.394 . S
C685 C684 1.336 . S
C685 H700 0.929 . S
C686 C676 1.386 . S
C686 C679 1.357 . S
C686 H699 0.928 . S
H687 C663 0.931 . S
H688 C665 0.930 . S
H689 C667 0.929 . S
H690 C668 0.931 . S
H691 C670 0.930 . S
H692 C674 0.931 . S
H693 C672 0.931 . S
H694 C676 0.931 . S
H695 C677 0.929 . S
H696 C678 0.930 . S
H697 C681 0.930 . S
H698 C682 0.931 . S
H699 C686 0.928 . S
H700 C685 0.929 . S
H701 C683 0.932 . S
C702 C703 1.386 . S
C702 C704 1.397 . S
C702 H726 0.931 . S
C703 C702 1.386 . S
C703 C707 1.397 . S
C704 C702 1.397 . S
C704 C705 1.384 . S
C704 H727 0.930 . S
C705 C704 1.384 . S
C705 C706 1.377 . S
C705 C708 1.481 . S
C706 C705 1.377 . S
C706 C707 1.389 . S
C706 H728 0.929 . S
C707 C703 1.397 . S
C707 C706 1.389 . S
C707 H729 0.931 . S
C708 C705 1.481 . S
C708 C709 1.387 . S
C708 C713 1.390 . S
C709 C708 1.387 . S
C709 C710 1.401 . S
C709 H730 0.930 . S
C710 C709 1.401 . S
C710 C711 1.376 . S
C710 C719 1.511 . S
C711 C710 1.376 . S
C711 C712 1.392 . S
C711 H732 0.931 . S
C712 C711 1.392 . S
C712 C713 1.361 . S
C712 C714 1.500 . S
C713 C708 1.390 . S
C713 C712 1.361 . S
C713 H731 0.931 . S
C714 C712 1.500 . S
C714 C715 1.371 . S
C714 C716 1.365 . S
C715 C714 1.371 . S
C715 C725 1.386 . S
C715 H733 0.931 . S
C716 C714 1.365 . S
C716 C717 1.409 . S
C716 H734 0.929 . S
C717 C716 1.409 . S
C717 C718 1.380 . S
C717 H735 0.930 . S
C718 C717 1.380 . S
C718 C725 1.357 . S
C719 C710 1.511 . S
C719 C720 1.341 . S
C719 C721 1.371 . S
C720 C719 1.341 . S
C720 C724 1.394 . S
C720 H736 0.930 . S
C721 C719 1.371 . S
C721 C722 1.392 . S
C721 H737 0.931 . S
C722 C721 1.392 . S
C722 C723 1.331 . S
C722 H740 0.932 . S
C723 C722 1.331 . S
C723 C724 1.336 . S
C724 C720 1.394 . S
C724 C723 1.336 . S
C724 H739 0.929 . S
C725 C715 1.386 . S
C725 C718 1.357 . S
C725 H738 0.928 . S
H726 C702 0.931 . S
H727 C704 0.930 . S
H728 C706 0.929 . S
H729 C707 0.931 . S
H730 C709 0.930 . S
H731 C713 0.931 . S
H732 C711 0.931 . S
H733 C715 0.931 . S
H734 C716 0.929 . S
H735 C717 0.930 . S
H736 C720 0.930 . S
H737 C721 0.931 . S
H738 C725 0.928 . S
H739 C724 0.929 . S
H740 C722 0.932 . S
C741 C742 1.386 . S
C741 C743 1.397 . S
C741 H765 0.931 . S
C742 C741 1.386 . S
C742 C746 1.397 . S
C743 C741 1.397 . S
C743 C744 1.384 . S
C743 H766 0.930 . S
C744 C743 1.384 . S
C744 C745 1.377 . S
C744 C747 1.481 . S
C745 C744 1.377 . S
C745 C746 1.389 . S
C745 H767 0.929 . S
C746 C742 1.397 . S
C746 C745 1.389 . S
C746 H768 0.931 . S
C747 C744 1.481 . S
C747 C748 1.387 . S
C747 C752 1.390 . S
C748 C747 1.387 . S
C748 C749 1.401 . S
C748 H769 0.930 . S
C749 C748 1.401 . S
C749 C750 1.376 . S
C749 C758 1.511 . S
C750 C749 1.376 . S
C750 C751 1.392 . S
C750 H771 0.931 . S
C751 C750 1.392 . S
C751 C752 1.361 . S
C751 C753 1.500 . S
C752 C747 1.390 . S
C752 C751 1.361 . S
C752 H770 0.931 . S
C753 C751 1.500 . S
C753 C754 1.371 . S
C753 C755 1.365 . S
C754 C753 1.371 . S
C754 C764 1.386 . S
C754 H772 0.931 . S
C755 C753 1.365 . S
C755 C756 1.409 . S
C755 H773 0.929 . S
C756 C755 1.409 . S
C756 C757 1.380 . S
C756 H774 0.930 . S
C757 C756 1.380 . S
C757 C764 1.357 . S
C758 C749 1.511 . S
C758 C759 1.341 . S
C758 C760 1.371 . S
C759 C758 1.341 . S
C759 C763 1.394 . S
C759 H775 0.930 . S
C760 C758 1.371 . S
C760 C761 1.392 . S
C760 H776 0.931 . S
C761 C760 1.392 . S
C761 C762 1.331 . S
C761 H779 0.932 . S
C762 C761 1.331 . S
C762 C763 1.336 . S
C763 C759 1.394 . S
C763 C762 1.336 . S
C763 H778 0.929 . S
C764 C754 1.386 . S
C764 C757 1.357 . S
C764 H777 0.928 . S
H765 C741 0.931 . S
H766 C743 0.930 . S
H767 C745 0.929 . S
H768 C746 0.931 . S
H769 C748 0.930 . S
H770 C752 0.931 . S
H771 C750 0.931 . S
H772 C754 0.931 . S
H773 C755 0.929 . S
H774 C756 0.930 . S
H775 C759 0.930 . S
H776 C760 0.931 . S
H777 C764 0.928 . S
H778 C763 0.929 . S
H779 C761 0.932 . S
C780 C781 1.386 . S
C780 C782 1.397 . S
C780 H804 0.931 . S
C781 C780 1.386 . S
C781 C785 1.397 . S
C782 C780 1.397 . S
C782 C783 1.384 . S
C782 H805 0.930 . S
C783 C782 1.384 . S
C783 C784 1.377 . S
C783 C786 1.481 . S
C784 C783 1.377 . S
C784 C785 1.389 . S
C784 H806 0.929 . S
C785 C781 1.397 . S
C785 C784 1.389 . S
C785 H807 0.931 . S
C786 C783 1.481 . S
C786 C787 1.387 . S
C786 C791 1.390 . S
C787 C786 1.387 . S
C787 C788 1.401 . S
C787 H808 0.930 . S
C788 C787 1.401 . S
C788 C789 1.376 . S
C788 C797 1.511 . S
C789 C788 1.376 . S
C789 C790 1.392 . S
C789 H810 0.931 . S
C790 C789 1.392 . S
C790 C791 1.361 . S
C790 C792 1.500 . S
C791 C786 1.390 . S
C791 C790 1.361 . S
C791 H809 0.931 . S
C792 C790 1.500 . S
C792 C793 1.371 . S
C792 C794 1.365 . S
C793 C792 1.371 . S
C793 C803 1.386 . S
C793 H811 0.931 . S
C794 C792 1.365 . S
C794 C795 1.409 . S
C794 H812 0.929 . S
C795 C794 1.409 . S
C795 C796 1.380 . S
C795 H813 0.930 . S
C796 C795 1.380 . S
C796 C803 1.357 . S
C797 C788 1.511 . S
C797 C798 1.341 . S
C797 C799 1.371 . S
C798 C797 1.341 . S
C798 C802 1.394 . S
C798 H814 0.930 . S
C799 C797 1.371 . S
C799 C800 1.392 . S
C799 H815 0.931 . S
C800 C799 1.392 . S
C800 C801 1.331 . S
C800 H818 0.932 . S
C801 C800 1.331 . S
C801 C802 1.336 . S
C802 C798 1.394 . S
C802 C801 1.336 . S
C802 H817 0.929 . S
C803 C793 1.386 . S
C803 C796 1.357 . S
C803 H816 0.928 . S
H804 C780 0.931 . S
H805 C782 0.930 . S
H806 C784 0.929 . S
H807 C785 0.931 . S
H808 C787 0.930 . S
H809 C791 0.931 . S
H810 C789 0.931 . S
H811 C793 0.931 . S
H812 C794 0.929 . S
H813 C795 0.930 . S
H814 C798 0.930 . S
H815 C799 0.931 . S
H816 C803 0.928 . S
H817 C802 0.929 . S
H818 C800 0.932 . S
C819 C820 1.386 . S
C819 C821 1.397 . S
C819 H843 0.931 . S
C820 C819 1.386 . S
C820 C824 1.397 . S
C821 C819 1.397 . S
C821 C822 1.384 . S
C821 H844 0.930 . S
C822 C821 1.384 . S
C822 C823 1.377 . S
C822 C825 1.481 . S
C823 C822 1.377 . S
C823 C824 1.389 . S
C823 H845 0.929 . S
C824 C820 1.397 . S
C824 C823 1.389 . S
C824 H846 0.931 . S
C825 C822 1.481 . S
C825 C826 1.387 . S
C825 C830 1.390 . S
C826 C825 1.387 . S
C826 C827 1.401 . S
C826 H847 0.930 . S
C827 C826 1.401 . S
C827 C828 1.376 . S
C827 C836 1.511 . S
C828 C827 1.376 . S
C828 C829 1.392 . S
C828 H849 0.931 . S
C829 C828 1.392 . S
C829 C830 1.361 . S
C829 C831 1.500 . S
C830 C825 1.390 . S
C830 C829 1.361 . S
C830 H848 0.931 . S
C831 C829 1.500 . S
C831 C832 1.371 . S
C831 C833 1.365 . S
C832 C831 1.371 . S
C832 C842 1.386 . S
C832 H850 0.931 . S
C833 C831 1.365 . S
C833 C834 1.409 . S
C833 H851 0.929 . S
C834 C833 1.409 . S
C834 C835 1.380 . S
C834 H852 0.930 . S
C835 C834 1.380 . S
C835 C842 1.357 . S
C836 C827 1.511 . S
C836 C837 1.341 . S
C836 C838 1.371 . S
C837 C836 1.341 . S
C837 C841 1.394 . S
C837 H853 0.930 . S
C838 C836 1.371 . S
C838 C839 1.392 . S
C838 H854 0.931 . S
C839 C838 1.392 . S
C839 C840 1.331 . S
C839 H857 0.932 . S
C840 C839 1.331 . S
C840 C841 1.336 . S
C841 C837 1.394 . S
C841 C840 1.336 . S
C841 H856 0.929 . S
C842 C832 1.386 . S
C842 C835 1.357 . S
C842 H855 0.928 . S
H843 C819 0.931 . S
H844 C821 0.930 . S
H845 C823 0.929 . S
H846 C824 0.931 . S
H847 C826 0.930 . S
H848 C830 0.931 . S
H849 C828 0.931 . S
H850 C832 0.931 . S
H851 C833 0.929 . S
H852 C834 0.930 . S
H853 C837 0.930 . S
H854 C838 0.931 . S
H855 C842 0.928 . S
H856 C841 0.929 . S
H857 C839 0.932 . S
C858 C859 1.386 . S
C858 C860 1.397 . S
C858 H882 0.931 . S
C859 C858 1.386 . S
C859 C863 1.397 . S
C860 C858 1.397 . S
C860 C861 1.384 . S
C860 H883 0.930 . S
C861 C860 1.384 . S
C861 C862 1.377 . S
C861 C864 1.481 . S
C862 C861 1.377 . S
C862 C863 1.389 . S
C862 H884 0.929 . S
C863 C859 1.397 . S
C863 C862 1.389 . S
C863 H885 0.931 . S
C864 C861 1.481 . S
C864 C865 1.387 . S
C864 C869 1.390 . S
C865 C864 1.387 . S
C865 C866 1.401 . S
C865 H886 0.930 . S
C866 C865 1.401 . S
C866 C867 1.376 . S
C866 C875 1.511 . S
C867 C866 1.376 . S
C867 C868 1.392 . S
C867 H888 0.931 . S
C868 C867 1.392 . S
C868 C869 1.361 . S
C868 C870 1.500 . S
C869 C864 1.390 . S
C869 C868 1.361 . S
C869 H887 0.931 . S
C870 C868 1.500 . S
C870 C871 1.371 . S
C870 C872 1.365 . S
C871 C870 1.371 . S
C871 C881 1.386 . S
C871 H889 0.931 . S
C872 C870 1.365 . S
C872 C873 1.409 . S
C872 H890 0.929 . S
C873 C872 1.409 . S
C873 C874 1.380 . S
C873 H891 0.930 . S
C874 C873 1.380 . S
C874 C881 1.357 . S
C875 C866 1.511 . S
C875 C876 1.341 . S
C875 C877 1.371 . S
C876 C875 1.341 . S
C876 C880 1.394 . S
C876 H892 0.930 . S
C877 C875 1.371 . S
C877 C878 1.392 . S
C877 H893 0.931 . S
C878 C877 1.392 . S
C878 C879 1.331 . S
C878 H896 0.932 . S
C879 C878 1.331 . S
C879 C880 1.336 . S
C880 C876 1.394 . S
C880 C879 1.336 . S
C880 H895 0.929 . S
C881 C871 1.386 . S
C881 C874 1.357 . S
C881 H894 0.928 . S
H882 C858 0.931 . S
H883 C860 0.930 . S
H884 C862 0.929 . S
H885 C863 0.931 . S
H886 C865 0.930 . S
H887 C869 0.931 . S
H888 C867 0.931 . S
H889 C871 0.931 . S
H890 C872 0.929 . S
H891 C873 0.930 . S
H892 C876 0.930 . S
H893 C877 0.931 . S
H894 C881 0.928 . S
H895 C880 0.929 . S
H896 C878 0.932 . S
C897 C898 1.386 . S
C897 C899 1.397 . S
C897 H921 0.931 . S
C898 C897 1.386 . S
C898 C902 1.397 . S
C899 C897 1.397 . S
C899 C900 1.384 . S
C899 H922 0.930 . S
C900 C899 1.384 . S
C900 C901 1.377 . S
C900 C903 1.481 . S
C901 C900 1.377 . S
C901 C902 1.389 . S
C901 H923 0.929 . S
C902 C898 1.397 . S
C902 C901 1.389 . S
C902 H924 0.931 . S
C903 C900 1.481 . S
C903 C904 1.387 . S
C903 C908 1.390 . S
C904 C903 1.387 . S
C904 C905 1.401 . S
C904 H925 0.930 . S
C905 C904 1.401 . S
C905 C906 1.376 . S
C905 C914 1.511 . S
C906 C905 1.376 . S
C906 C907 1.392 . S
C906 H927 0.931 . S
C907 C906 1.392 . S
C907 C908 1.361 . S
C907 C909 1.500 . S
C908 C903 1.390 . S
C908 C907 1.361 . S
C908 H926 0.931 . S
C909 C907 1.500 . S
C909 C910 1.371 . S
C909 C911 1.365 . S
C910 C909 1.371 . S
C910 C920 1.386 . S
C910 H928 0.931 . S
C911 C909 1.365 . S
C911 C912 1.409 . S
C911 H929 0.929 . S
C912 C911 1.409 . S
C912 C913 1.380 . S
C912 H930 0.930 . S
C913 C912 1.380 . S
C913 C920 1.357 . S
C914 C905 1.511 . S
C914 C915 1.341 . S
C914 C916 1.371 . S
C915 C914 1.341 . S
C915 C919 1.394 . S
C915 H931 0.930 . S
C916 C914 1.371 . S
C916 C917 1.392 . S
C916 H932 0.931 . S
C917 C916 1.392 . S
C917 C918 1.331 . S
C917 H935 0.932 . S
C918 C917 1.331 . S
C918 C919 1.336 . S
C919 C915 1.394 . S
C919 C918 1.336 . S
C919 H934 0.929 . S
C920 C910 1.386 . S
C920 C913 1.357 . S
C920 H933 0.928 . S
H921 C897 0.931 . S
H922 C899 0.930 . S
H923 C901 0.929 . S
H924 C902 0.931 . S
H925 C904 0.930 . S
H926 C908 0.931 . S
H927 C906 0.931 . S
H928 C910 0.931 . S
H929 C911 0.929 . S
H930 C912 0.930 . S
H931 C915 0.930 . S
H932 C916 0.931 . S
H933 C920 0.928 . S
H934 C919 0.929 . S
H935 C917 0.932 . S
C936 O962 1.283 . S
C936 O980 1.283 . S
C937 O963 1.283 . S
C937 O978 1.283 . S
C938 O964 1.283 . S
C938 O981 1.283 . S
C939 O965 1.283 . S
C939 O979 1.283 . S
C940 O966 1.283 . S
C940 O975 1.283 . S
C941 O967 1.283 . S
C941 O977 1.283 . S
C942 O968 1.283 . S
C942 O974 1.283 . S
C943 O969 1.283 . S
C943 O976 1.283 . S
C944 O970 1.283 . S
C944 O985 1.283 . S
C945 O971 1.283 . S
C945 O983 1.283 . S
C946 O972 1.283 . S
C946 O984 1.283 . S
C947 O973 1.283 . S
C947 O982 1.283 . S
Eu948 O949 2.370 1_455 S
Eu948 O950 2.370 . S
Eu948 O953 2.370 1_455 S
Eu948 O954 2.370 . S
Eu948 O962 2.363 . S
Eu948 O963 2.363 . S
Eu948 O976 2.363 . S
Eu948 O977 2.363 1_455 S
O949 Eu948 2.370 1_655 S
O949 Eu951 2.370 1_565 S
O949 Eu956 2.370 1_665 S
O950 Eu948 2.370 . S
O950 Eu952 2.370 1_565 S
O950 Eu955 2.370 1_565 S
Eu951 O949 2.370 1_545 S
Eu951 O953 2.370 1_545 S
Eu951 O957 2.370 . S
Eu951 O958 2.370 . S
Eu951 O966 2.363 . S
Eu951 O967 2.363 1_545 S
Eu951 O982 2.363 . S
Eu951 O983 2.363 . S
Eu952 O950 2.370 1_545 S
Eu952 O954 2.370 1_545 S
Eu952 O959 2.370 . S
Eu952 O960 2.370 . S
Eu952 O968 2.363 . S
Eu952 O969 2.363 1_545 S
Eu952 O984 2.363 . S
Eu952 O985 2.363 . S
O953 Eu948 2.370 1_655 S
O953 Eu951 2.370 1_565 S
O953 Eu955 2.370 1_665 S
O954 Eu948 2.370 . S
O954 Eu952 2.370 1_565 S
O954 Eu956 2.370 1_565 S
Eu955 O950 2.370 1_545 S
Eu955 O953 2.370 1_445 S
Eu955 O957 2.370 1_455 S
Eu955 O960 2.370 . S
Eu955 O972 2.363 . S
Eu955 O973 2.363 1_455 S
Eu955 O980 2.363 1_545 S
Eu955 O981 2.362 . S
Eu956 O949 2.370 1_445 S
Eu956 O954 2.370 1_545 S
Eu956 O958 2.370 1_455 S
Eu956 O959 2.370 . S
Eu956 O970 2.363 . S
Eu956 O971 2.363 1_455 S
Eu956 O978 2.362 1_545 S
Eu956 O979 2.363 . S
O957 Eu951 2.370 . S
O957 Eu955 2.370 1_655 S
O957 Eu961 2.370 1_655 S
O958 Eu951 2.370 . S
O958 Eu956 2.370 1_655 S
O958 Eu961 2.370 1_655 S
O959 Eu952 2.370 . S
O959 Eu956 2.370 . S
O959 Eu961 2.370 . S
O960 Eu952 2.370 . S
O960 Eu955 2.370 . S
O960 Eu961 2.370 . S
Eu961 O957 2.370 1_455 S
Eu961 O958 2.370 1_455 S
Eu961 O959 2.370 . S
Eu961 O960 2.370 . S
Eu961 O964 2.363 . S
Eu961 O965 2.363 . S
Eu961 O974 2.363 . S
Eu961 O975 2.363 1_455 S
O962 C936 1.283 . S
O962 Eu948 2.363 . S
O963 C937 1.283 . S
O963 Eu948 2.363 . S
O964 C938 1.283 . S
O964 Eu961 2.363 . S
O965 C939 1.283 . S
O965 Eu961 2.363 . S
O966 C940 1.283 . S
O966 Eu951 2.363 . S
O967 C941 1.283 . S
O967 Eu951 2.363 1_565 S
O968 C942 1.283 . S
O968 Eu952 2.363 . S
O969 C943 1.283 . S
O969 Eu952 2.363 1_565 S
O970 C944 1.283 . S
O970 Eu956 2.363 . S
O971 C945 1.283 . S
O971 Eu956 2.363 1_655 S
O972 C946 1.283 . S
O972 Eu955 2.363 . S
O973 C947 1.283 . S
O973 Eu955 2.363 1_655 S
O974 C942 1.283 . S
O974 Eu961 2.363 . S
O975 C940 1.283 . S
O975 Eu961 2.363 1_655 S
O976 C943 1.283 . S
O976 Eu948 2.363 . S
O977 C941 1.283 . S
O977 Eu948 2.363 1_655 S
O978 C937 1.283 . S
O978 Eu956 2.362 1_565 S
O979 C939 1.283 . S
O979 Eu956 2.363 . S
O980 C936 1.283 . S
O980 Eu955 2.363 1_565 S
O981 C938 1.283 . S
O981 Eu955 2.362 . S
O982 C947 1.283 . S
O982 Eu951 2.363 . S
O983 C945 1.283 . S
O983 Eu951 2.363 . S
O984 C946 1.283 . S
O984 Eu952 2.363 . S
O985 C944 1.283 . S
O985 Eu952 2.363 . S
C986 O1012 1.283 . S
C986 O1030 1.283 . S
C987 O1013 1.283 . S
C987 O1028 1.283 . S
C988 O1014 1.283 . S
C988 O1031 1.283 . S
C989 O1015 1.283 . S
C989 O1029 1.283 . S
C990 O1016 1.283 . S
C990 O1025 1.283 . S
C991 O1017 1.283 . S
C991 O1027 1.283 . S
C992 O1018 1.283 . S
C992 O1024 1.283 . S
C993 O1019 1.283 . S
C993 O1026 1.283 . S
C994 O1020 1.283 . S
C994 O1035 1.283 . S
C995 O1021 1.283 . S
C995 O1033 1.283 . S
C996 O1022 1.283 . S
C996 O1034 1.283 . S
C997 O1023 1.283 . S
C997 O1032 1.283 . S
Eu998 O999 2.371 . S
Eu998 O1000 2.369 1_545 S
Eu998 O1003 2.369 1_545 S
Eu998 O1004 2.371 . S
Eu998 O1012 2.361 1_545 S
Eu998 O1013 2.365 . S
Eu998 O1026 2.363 . S
Eu998 O1027 2.363 . S
O999 Eu998 2.371 . S
O999 Eu1001 2.370 . S
O999 Eu1006 2.369 . S
O1000 Eu998 2.369 1_565 S
O1000 Eu1002 2.370 1_565 S
O1000 Eu1005 2.371 . S
Eu1001 O999 2.370 . S
Eu1001 O1003 2.370 1_545 S
Eu1001 O1007 2.370 1_544 S
Eu1001 O1008 2.370 1_554 S
Eu1001 O1016 2.363 1_554 S
Eu1001 O1017 2.363 . S
Eu1001 O1032 2.363 1_545 S
Eu1001 O1033 2.363 . S
Eu1002 O1000 2.370 1_545 S
Eu1002 O1004 2.370 . S
Eu1002 O1009 2.370 1_554 S
Eu1002 O1010 2.370 1_544 S
Eu1002 O1018 2.363 1_554 S
Eu1002 O1019 2.363 . S
Eu1002 O1034 2.363 1_545 S
Eu1002 O1035 2.363 . S
O1003 Eu998 2.369 1_565 S
O1003 Eu1001 2.370 1_565 S
O1003 Eu1005 2.371 . S
O1004 Eu998 2.371 . S
O1004 Eu1002 2.370 . S
O1004 Eu1006 2.369 . S
Eu1005 O1000 2.371 . S
Eu1005 O1003 2.371 . S
Eu1005 O1007 2.369 1_554 S
Eu1005 O1010 2.369 1_554 S
Eu1005 O1022 2.363 . S
Eu1005 O1023 2.363 . S
Eu1005 O1030 2.365 . S
Eu1005 O1031 2.361 1_554 S
Eu1006 O999 2.369 . S
Eu1006 O1004 2.369 . S
Eu1006 O1008 2.371 1_554 S
Eu1006 O1009 2.371 1_554 S
Eu1006 O1020 2.363 . S
Eu1006 O1021 2.363 . S
Eu1006 O1028 2.361 . S
Eu1006 O1029 2.365 1_554 S
O1007 Eu1001 2.370 1_566 S
O1007 Eu1005 2.369 1_556 S
O1007 Eu1011 2.371 1_565 S
O1008 Eu1001 2.370 1_556 S
O1008 Eu1006 2.371 1_556 S
O1008 Eu1011 2.369 . S
O1009 Eu1002 2.370 1_556 S
O1009 Eu1006 2.371 1_556 S
O1009 Eu1011 2.369 . S
O1010 Eu1002 2.370 1_566 S
O1010 Eu1005 2.369 1_556 S
O1010 Eu1011 2.371 1_565 S
Eu1011 O1007 2.371 1_545 S
Eu1011 O1008 2.369 . S
Eu1011 O1009 2.369 . S
Eu1011 O1010 2.371 1_545 S
Eu1011 O1014 2.365 1_545 S
Eu1011 O1015 2.361 . S
Eu1011 O1024 2.363 . S
Eu1011 O1025 2.363 . S
O1012 C986 1.283 . S
O1012 Eu998 2.361 1_565 S
O1013 C987 1.283 . S
O1013 Eu998 2.365 . S
O1014 C988 1.283 . S
O1014 Eu1011 2.365 1_565 S
O1015 C989 1.283 . S
O1015 Eu1011 2.361 . S
O1016 C990 1.283 . S
O1016 Eu1001 2.363 1_556 S
O1017 C991 1.283 . S
O1017 Eu1001 2.363 . S
O1018 C992 1.283 . S
O1018 Eu1002 2.363 1_556 S
O1019 C993 1.283 . S
O1019 Eu1002 2.363 . S
O1020 C994 1.283 . S
O1020 Eu1006 2.363 . S
O1021 C995 1.283 . S
O1021 Eu1006 2.363 . S
O1022 C996 1.283 . S
O1022 Eu1005 2.363 . S
O1023 C997 1.283 . S
O1023 Eu1005 2.363 . S
O1024 C992 1.283 . S
O1024 Eu1011 2.363 . S
O1025 C990 1.283 . S
O1025 Eu1011 2.363 . S
O1026 C993 1.283 . S
O1026 Eu998 2.363 . S
O1027 C991 1.283 . S
O1027 Eu998 2.363 . S
O1028 C987 1.283 . S
O1028 Eu1006 2.361 . S
O1029 C989 1.283 . S
O1029 Eu1006 2.365 1_556 S
O1030 C986 1.283 . S
O1030 Eu1005 2.365 . S
O1031 C988 1.283 . S
O1031 Eu1005 2.361 1_556 S
O1032 C997 1.283 . S
O1032 Eu1001 2.363 1_565 S
O1033 C995 1.283 . S
O1033 Eu1001 2.363 . S
O1034 C996 1.283 . S
O1034 Eu1002 2.363 1_565 S
O1035 C994 1.283 . S
O1035 Eu1002 2.363 . S
C1036 O1062 1.283 . S
C1036 O1080 1.283 . S
C1037 O1063 1.283 . S
C1037 O1078 1.283 . S
C1038 O1064 1.283 . S
C1038 O1081 1.283 . S
C1039 O1065 1.283 . S
C1039 O1079 1.283 . S
C1040 O1066 1.283 . S
C1040 O1075 1.283 . S
C1041 O1067 1.283 . S
C1041 O1077 1.283 . S
C1042 O1068 1.283 . S
C1042 O1074 1.283 . S
C1043 O1069 1.283 . S
C1043 O1076 1.283 . S
C1044 O1070 1.283 . S
C1044 O1085 1.283 . S
C1045 O1071 1.283 . S
C1045 O1083 1.283 . S
C1046 O1072 1.283 . S
C1046 O1084 1.283 . S
C1047 O1073 1.283 . S
C1047 O1082 1.283 . S
Eu1048 O1049 2.370 1_454 S
Eu1048 O1050 2.370 . S
Eu1048 O1053 2.370 1_455 S
Eu1048 O1054 2.370 1_554 S
Eu1048 O1062 2.362 . S
Eu1048 O1063 2.363 1_554 S
Eu1048 O1076 2.363 . S
Eu1048 O1077 2.363 1_455 S
O1049 Eu1048 2.370 1_656 S
O1049 Eu1051 2.370 1_556 S
O1049 Eu1056 2.370 1_655 S
O1050 Eu1048 2.370 . S
O1050 Eu1052 2.370 . S
O1050 Eu1055 2.370 . S
Eu1051 O1049 2.370 1_554 S
Eu1051 O1053 2.370 . S
Eu1051 O1057 2.370 . S
Eu1051 O1058 2.370 1_554 S
Eu1051 O1066 2.363 . S
Eu1051 O1067 2.363 . S
Eu1051 O1082 2.363 . S
Eu1051 O1083 2.363 1_554 S
Eu1052 O1050 2.370 . S
Eu1052 O1054 2.370 1_554 S
Eu1052 O1059 2.370 1_554 S
Eu1052 O1060 2.370 . S
Eu1052 O1068 2.363 . S
Eu1052 O1069 2.363 . S
Eu1052 O1084 2.363 . S
Eu1052 O1085 2.363 1_554 S
O1053 Eu1048 2.370 1_655 S
O1053 Eu1051 2.370 . S
O1053 Eu1055 2.370 1_655 S
O1054 Eu1048 2.370 1_556 S
O1054 Eu1052 2.370 1_556 S
O1054 Eu1056 2.370 . S
Eu1055 O1050 2.370 . S
Eu1055 O1053 2.370 1_455 S
Eu1055 O1057 2.370 1_455 S
Eu1055 O1060 2.370 . S
Eu1055 O1072 2.363 . S
Eu1055 O1073 2.363 1_455 S
Eu1055 O1080 2.363 . S
Eu1055 O1081 2.363 . S
Eu1056 O1049 2.370 1_455 S
Eu1056 O1054 2.370 . S
Eu1056 O1058 2.370 1_455 S
Eu1056 O1059 2.370 . S
Eu1056 O1070 2.363 . S
Eu1056 O1071 2.363 1_455 S
Eu1056 O1078 2.363 . S
Eu1056 O1079 2.363 . S
O1057 Eu1051 2.370 . S
O1057 Eu1055 2.370 1_655 S
O1057 Eu1061 2.370 1_655 S
O1058 Eu1051 2.370 1_556 S
O1058 Eu1056 2.370 1_655 S
O1058 Eu1061 2.370 1_656 S
O1059 Eu1052 2.370 1_556 S
O1059 Eu1056 2.370 . S
O1059 Eu1061 2.370 1_556 S
O1060 Eu1052 2.370 . S
O1060 Eu1055 2.370 . S
O1060 Eu1061 2.370 . S
Eu1061 O1057 2.370 1_455 S
Eu1061 O1058 2.370 1_454 S
Eu1061 O1059 2.370 1_554 S
Eu1061 O1060 2.370 . S
Eu1061 O1064 2.363 . S
Eu1061 O1065 2.362 1_554 S
Eu1061 O1074 2.363 . S
Eu1061 O1075 2.363 1_455 S
O1062 C1036 1.283 . S
O1062 Eu1048 2.362 . S
O1063 C1037 1.283 . S
O1063 Eu1048 2.363 1_556 S
O1064 C1038 1.283 . S
O1064 Eu1061 2.363 . S
O1065 C1039 1.283 . S
O1065 Eu1061 2.362 1_556 S
O1066 C1040 1.283 . S
O1066 Eu1051 2.363 . S
O1067 C1041 1.283 . S
O1067 Eu1051 2.363 . S
O1068 C1042 1.283 . S
O1068 Eu1052 2.363 . S
O1069 C1043 1.283 . S
O1069 Eu1052 2.363 . S
O1070 C1044 1.283 . S
O1070 Eu1056 2.363 . S
O1071 C1045 1.283 . S
O1071 Eu1056 2.363 1_655 S
O1072 C1046 1.283 . S
O1072 Eu1055 2.363 . S
O1073 C1047 1.283 . S
O1073 Eu1055 2.363 1_655 S
O1074 C1042 1.283 . S
O1074 Eu1061 2.363 . S
O1075 C1040 1.283 . S
O1075 Eu1061 2.363 1_655 S
O1076 C1043 1.283 . S
O1076 Eu1048 2.363 . S
O1077 C1041 1.283 . S
O1077 Eu1048 2.363 1_655 S
O1078 C1037 1.283 . S
O1078 Eu1056 2.363 . S
O1079 C1039 1.283 . S
O1079 Eu1056 2.363 . S
O1080 C1036 1.283 . S
O1080 Eu1055 2.363 . S
O1081 C1038 1.283 . S
O1081 Eu1055 2.363 . S
O1082 C1047 1.283 . S
O1082 Eu1051 2.363 . S
O1083 C1045 1.283 . S
O1083 Eu1051 2.363 1_556 S
O1084 C1046 1.283 . S
O1084 Eu1052 2.363 . S
O1085 C1044 1.283 . S
O1085 Eu1052 2.363 1_556 S
C1086 O1112 1.283 . S
C1086 O1130 1.283 . S
C1087 O1113 1.283 . S
C1087 O1128 1.283 . S
C1088 O1114 1.283 . S
C1088 O1131 1.283 . S
C1089 O1115 1.283 . S
C1089 O1129 1.283 . S
C1090 O1116 1.283 . S
C1090 O1125 1.283 . S
C1091 O1117 1.283 . S
C1091 O1127 1.283 . S
C1092 O1118 1.283 . S
C1092 O1124 1.283 . S
C1093 O1119 1.283 . S
C1093 O1126 1.283 . S
C1094 O1120 1.283 . S
C1094 O1135 1.283 . S
C1095 O1121 1.283 . S
C1095 O1133 1.283 . S
C1096 O1122 1.283 . S
C1096 O1134 1.283 . S
C1097 O1123 1.283 . S
C1097 O1132 1.283 . S
Eu1098 O1099 2.370 . S
Eu1098 O1100 2.370 . S
Eu1098 O1103 2.370 . S
Eu1098 O1104 2.370 . S
Eu1098 O1112 2.363 . S
Eu1098 O1113 2.363 . S
Eu1098 O1126 2.363 . S
Eu1098 O1127 2.363 . S
O1099 Eu1098 2.370 . S
O1099 Eu1101 2.370 . S
O1099 Eu1106 2.370 . S
O1100 Eu1098 2.370 . S
O1100 Eu1102 2.370 . S
O1100 Eu1105 2.370 . S
Eu1101 O1099 2.370 . S
Eu1101 O1103 2.370 . S
Eu1101 O1107 2.370 1_554 S
Eu1101 O1108 2.370 1_554 S
Eu1101 O1116 2.363 1_554 S
Eu1101 O1117 2.363 . S
Eu1101 O1132 2.363 . S
Eu1101 O1133 2.363 . S
Eu1102 O1100 2.370 . S
Eu1102 O1104 2.370 . S
Eu1102 O1109 2.370 1_554 S
Eu1102 O1110 2.370 1_554 S
Eu1102 O1118 2.363 1_554 S
Eu1102 O1119 2.363 . S
Eu1102 O1134 2.363 . S
Eu1102 O1135 2.363 . S
O1103 Eu1098 2.370 . S
O1103 Eu1101 2.370 . S
O1103 Eu1105 2.370 . S
O1104 Eu1098 2.370 . S
O1104 Eu1102 2.370 . S
O1104 Eu1106 2.370 . S
Eu1105 O1100 2.370 . S
Eu1105 O1103 2.370 . S
Eu1105 O1107 2.370 1_554 S
Eu1105 O1110 2.370 1_554 S
Eu1105 O1122 2.363 . S
Eu1105 O1123 2.363 . S
Eu1105 O1130 2.362 . S
Eu1105 O1131 2.363 1_554 S
Eu1106 O1099 2.370 . S
Eu1106 O1104 2.370 . S
Eu1106 O1108 2.370 1_554 S
Eu1106 O1109 2.370 1_554 S
Eu1106 O1120 2.363 . S
Eu1106 O1121 2.363 . S
Eu1106 O1128 2.363 . S
Eu1106 O1129 2.362 1_554 S
O1107 Eu1101 2.370 1_556 S
O1107 Eu1105 2.370 1_556 S
O1107 Eu1111 2.370 . S
O1108 Eu1101 2.370 1_556 S
O1108 Eu1106 2.370 1_556 S
O1108 Eu1111 2.370 . S
O1109 Eu1102 2.370 1_556 S
O1109 Eu1106 2.370 1_556 S
O1109 Eu1111 2.370 . S
O1110 Eu1102 2.370 1_556 S
O1110 Eu1105 2.370 1_556 S
O1110 Eu1111 2.370 . S
Eu1111 O1107 2.370 . S
Eu1111 O1108 2.370 . S
Eu1111 O1109 2.370 . S
Eu1111 O1110 2.370 . S
Eu1111 O1114 2.363 . S
Eu1111 O1115 2.363 . S
Eu1111 O1124 2.363 . S
Eu1111 O1125 2.363 . S
O1112 C1086 1.283 . S
O1112 Eu1098 2.363 . S
O1113 C1087 1.283 . S
O1113 Eu1098 2.363 . S
O1114 C1088 1.283 . S
O1114 Eu1111 2.363 . S
O1115 C1089 1.283 . S
O1115 Eu1111 2.363 . S
O1116 C1090 1.283 . S
O1116 Eu1101 2.363 1_556 S
O1117 C1091 1.283 . S
O1117 Eu1101 2.363 . S
O1118 C1092 1.283 . S
O1118 Eu1102 2.363 1_556 S
O1119 C1093 1.283 . S
O1119 Eu1102 2.363 . S
O1120 C1094 1.283 . S
O1120 Eu1106 2.363 . S
O1121 C1095 1.283 . S
O1121 Eu1106 2.363 . S
O1122 C1096 1.283 . S
O1122 Eu1105 2.363 . S
O1123 C1097 1.283 . S
O1123 Eu1105 2.363 . S
O1124 C1092 1.283 . S
O1124 Eu1111 2.363 . S
O1125 C1090 1.283 . S
O1125 Eu1111 2.363 . S
O1126 C1093 1.283 . S
O1126 Eu1098 2.363 . S
O1127 C1091 1.283 . S
O1127 Eu1098 2.363 . S
O1128 C1087 1.283 . S
O1128 Eu1106 2.363 . S
O1129 C1089 1.283 . S
O1129 Eu1106 2.362 1_556 S
O1130 C1086 1.283 . S
O1130 Eu1105 2.362 . S
O1131 C1088 1.283 . S
O1131 Eu1105 2.363 1_556 S
O1132 C1097 1.283 . S
O1132 Eu1101 2.363 . S
O1133 C1095 1.283 . S
O1133 Eu1101 2.363 . S
O1134 C1096 1.283 . S
O1134 Eu1102 2.363 . S
O1135 C1094 1.283 . S
O1135 Eu1102 2.363 . S
C1136 O1162 1.283 . S
C1136 O1180 1.283 . S
C1137 O1163 1.283 . S
C1137 O1178 1.283 . S
C1138 O1164 1.283 . S
C1138 O1181 1.283 . S
C1139 O1165 1.283 . S
C1139 O1179 1.283 . S
C1140 O1166 1.283 . S
C1140 O1175 1.283 . S
C1141 O1167 1.283 . S
C1141 O1177 1.283 . S
C1142 O1168 1.283 . S
C1142 O1174 1.283 . S
C1143 O1169 1.283 . S
C1143 O1176 1.283 . S
C1144 O1170 1.283 . S
C1144 O1185 1.283 . S
C1145 O1171 1.283 . S
C1145 O1183 1.283 . S
C1146 O1172 1.283 . S
C1146 O1184 1.283 . S
C1147 O1173 1.283 . S
C1147 O1182 1.283 . S
Eu1148 O1149 2.370 1_455 S
Eu1148 O1150 2.370 . S
Eu1148 O1153 2.370 1_455 S
Eu1148 O1154 2.370 . S
Eu1148 O1162 2.363 . S
Eu1148 O1163 2.363 . S
Eu1148 O1176 2.363 . S
Eu1148 O1177 2.363 1_455 S
O1149 Eu1148 2.370 1_655 S
O1149 Eu1151 2.370 . S
O1149 Eu1156 2.370 1_655 S
O1150 Eu1148 2.370 . S
O1150 Eu1152 2.370 . S
O1150 Eu1155 2.370 . S
Eu1151 O1149 2.370 . S
Eu1151 O1153 2.370 . S
Eu1151 O1157 2.370 . S
Eu1151 O1158 2.370 . S
Eu1151 O1166 2.363 . S
Eu1151 O1167 2.363 . S
Eu1151 O1182 2.363 . S
Eu1151 O1183 2.363 . S
Eu1152 O1150 2.370 . S
Eu1152 O1154 2.370 . S
Eu1152 O1159 2.370 . S
Eu1152 O1160 2.370 . S
Eu1152 O1168 2.363 . S
Eu1152 O1169 2.363 . S
Eu1152 O1184 2.363 . S
Eu1152 O1185 2.363 . S
O1153 Eu1148 2.370 1_655 S
O1153 Eu1151 2.370 . S
O1153 Eu1155 2.370 1_655 S
O1154 Eu1148 2.370 . S
O1154 Eu1152 2.370 . S
O1154 Eu1156 2.370 . S
Eu1155 O1150 2.370 . S
Eu1155 O1153 2.370 1_455 S
Eu1155 O1157 2.370 1_455 S
Eu1155 O1160 2.370 . S
Eu1155 O1172 2.363 . S
Eu1155 O1173 2.363 1_455 S
Eu1155 O1180 2.363 . S
Eu1155 O1181 2.363 . S
Eu1156 O1149 2.370 1_455 S
Eu1156 O1154 2.370 . S
Eu1156 O1158 2.370 1_455 S
Eu1156 O1159 2.370 . S
Eu1156 O1170 2.363 . S
Eu1156 O1171 2.363 1_455 S
Eu1156 O1178 2.363 . S
Eu1156 O1179 2.363 . S
O1157 Eu1151 2.370 . S
O1157 Eu1155 2.370 1_655 S
O1157 Eu1161 2.370 1_655 S
O1158 Eu1151 2.370 . S
O1158 Eu1156 2.370 1_655 S
O1158 Eu1161 2.370 1_655 S
O1159 Eu1152 2.370 . S
O1159 Eu1156 2.370 . S
O1159 Eu1161 2.370 . S
O1160 Eu1152 2.370 . S
O1160 Eu1155 2.370 . S
O1160 Eu1161 2.370 . S
Eu1161 O1157 2.370 1_455 S
Eu1161 O1158 2.370 1_455 S
Eu1161 O1159 2.370 . S
Eu1161 O1160 2.370 . S
Eu1161 O1164 2.363 . S
Eu1161 O1165 2.363 . S
Eu1161 O1174 2.363 . S
Eu1161 O1175 2.363 1_455 S
O1162 C1136 1.283 . S
O1162 Eu1148 2.363 . S
O1163 C1137 1.283 . S
O1163 Eu1148 2.363 . S
O1164 C1138 1.283 . S
O1164 Eu1161 2.363 . S
O1165 C1139 1.283 . S
O1165 Eu1161 2.363 . S
O1166 C1140 1.283 . S
O1166 Eu1151 2.363 . S
O1167 C1141 1.283 . S
O1167 Eu1151 2.363 . S
O1168 C1142 1.283 . S
O1168 Eu1152 2.363 . S
O1169 C1143 1.283 . S
O1169 Eu1152 2.363 . S
O1170 C1144 1.283 . S
O1170 Eu1156 2.363 . S
O1171 C1145 1.283 . S
O1171 Eu1156 2.363 1_655 S
O1172 C1146 1.283 . S
O1172 Eu1155 2.363 . S
O1173 C1147 1.283 . S
O1173 Eu1155 2.363 1_655 S
O1174 C1142 1.283 . S
O1174 Eu1161 2.363 . S
O1175 C1140 1.283 . S
O1175 Eu1161 2.363 1_655 S
O1176 C1143 1.283 . S
O1176 Eu1148 2.363 . S
O1177 C1141 1.283 . S
O1177 Eu1148 2.363 1_655 S
O1178 C1137 1.283 . S
O1178 Eu1156 2.363 . S
O1179 C1139 1.283 . S
O1179 Eu1156 2.363 . S
O1180 C1136 1.283 . S
O1180 Eu1155 2.363 . S
O1181 C1138 1.283 . S
O1181 Eu1155 2.363 . S
O1182 C1147 1.283 . S
O1182 Eu1151 2.363 . S
O1183 C1145 1.283 . S
O1183 Eu1151 2.363 . S
O1184 C1146 1.283 . S
O1184 Eu1152 2.363 . S
O1185 C1144 1.283 . S
O1185 Eu1152 2.363 . S
C1186 O1212 1.283 . S
C1186 O1230 1.283 . S
C1187 O1213 1.283 . S
C1187 O1228 1.283 . S
C1188 O1214 1.283 . S
C1188 O1231 1.283 . S
C1189 O1215 1.283 . S
C1189 O1229 1.283 . S
C1190 O1216 1.283 . S
C1190 O1225 1.283 . S
C1191 O1217 1.283 . S
C1191 O1227 1.283 . S
C1192 O1218 1.283 . S
C1192 O1224 1.283 . S
C1193 O1219 1.283 . S
C1193 O1226 1.283 . S
C1194 O1220 1.283 . S
C1194 O1235 1.283 . S
C1195 O1221 1.283 . S
C1195 O1233 1.283 . S
C1196 O1222 1.283 . S
C1196 O1234 1.283 . S
C1197 O1223 1.283 . S
C1197 O1232 1.283 . S
Eu1198 O1199 2.370 . S
Eu1198 O1200 2.370 . S
Eu1198 O1203 2.370 . S
Eu1198 O1204 2.370 . S
Eu1198 O1212 2.363 . S
Eu1198 O1213 2.363 . S
Eu1198 O1226 2.363 . S
Eu1198 O1227 2.363 . S
O1199 Eu1198 2.370 . S
O1199 Eu1201 2.370 1_565 S
O1199 Eu1206 2.370 1_565 S
O1200 Eu1198 2.370 . S
O1200 Eu1202 2.370 1_565 S
O1200 Eu1205 2.370 1_565 S
Eu1201 O1199 2.370 1_545 S
Eu1201 O1203 2.370 1_545 S
Eu1201 O1207 2.370 . S
Eu1201 O1208 2.370 . S
Eu1201 O1216 2.363 . S
Eu1201 O1217 2.363 1_545 S
Eu1201 O1232 2.363 . S
Eu1201 O1233 2.363 . S
Eu1202 O1200 2.370 1_545 S
Eu1202 O1204 2.370 1_545 S
Eu1202 O1209 2.370 . S
Eu1202 O1210 2.370 . S
Eu1202 O1218 2.363 . S
Eu1202 O1219 2.363 1_545 S
Eu1202 O1234 2.363 . S
Eu1202 O1235 2.363 . S
O1203 Eu1198 2.370 . S
O1203 Eu1201 2.370 1_565 S
O1203 Eu1205 2.370 1_565 S
O1204 Eu1198 2.370 . S
O1204 Eu1202 2.370 1_565 S
O1204 Eu1206 2.370 1_565 S
Eu1205 O1200 2.370 1_545 S
Eu1205 O1203 2.370 1_545 S
Eu1205 O1207 2.370 . S
Eu1205 O1210 2.370 . S
Eu1205 O1222 2.363 . S
Eu1205 O1223 2.363 . S
Eu1205 O1230 2.363 1_545 S
Eu1205 O1231 2.362 . S
Eu1206 O1199 2.370 1_545 S
Eu1206 O1204 2.370 1_545 S
Eu1206 O1208 2.370 . S
Eu1206 O1209 2.370 . S
Eu1206 O1220 2.363 . S
Eu1206 O1221 2.363 . S
Eu1206 O1228 2.362 1_545 S
Eu1206 O1229 2.363 . S
O1207 Eu1201 2.370 . S
O1207 Eu1205 2.370 . S
O1207 Eu1211 2.370 . S
O1208 Eu1201 2.370 . S
O1208 Eu1206 2.370 . S
O1208 Eu1211 2.370 . S
O1209 Eu1202 2.370 . S
O1209 Eu1206 2.370 . S
O1209 Eu1211 2.370 . S
O1210 Eu1202 2.370 . S
O1210 Eu1205 2.370 . S
O1210 Eu1211 2.370 . S
Eu1211 O1207 2.370 . S
Eu1211 O1208 2.370 . S
Eu1211 O1209 2.370 . S
Eu1211 O1210 2.370 . S
Eu1211 O1214 2.363 . S
Eu1211 O1215 2.363 . S
Eu1211 O1224 2.363 . S
Eu1211 O1225 2.363 . S
O1212 C1186 1.283 . S
O1212 Eu1198 2.363 . S
O1213 C1187 1.283 . S
O1213 Eu1198 2.363 . S
O1214 C1188 1.283 . S
O1214 Eu1211 2.363 . S
O1215 C1189 1.283 . S
O1215 Eu1211 2.363 . S
O1216 C1190 1.283 . S
O1216 Eu1201 2.363 . S
O1217 C1191 1.283 . S
O1217 Eu1201 2.363 1_565 S
O1218 C1192 1.283 . S
O1218 Eu1202 2.363 . S
O1219 C1193 1.283 . S
O1219 Eu1202 2.363 1_565 S
O1220 C1194 1.283 . S
O1220 Eu1206 2.363 . S
O1221 C1195 1.283 . S
O1221 Eu1206 2.363 . S
O1222 C1196 1.283 . S
O1222 Eu1205 2.363 . S
O1223 C1197 1.283 . S
O1223 Eu1205 2.363 . S
O1224 C1192 1.283 . S
O1224 Eu1211 2.363 . S
O1225 C1190 1.283 . S
O1225 Eu1211 2.363 . S
O1226 C1193 1.283 . S
O1226 Eu1198 2.363 . S
O1227 C1191 1.283 . S
O1227 Eu1198 2.363 . S
O1228 C1187 1.283 . S
O1228 Eu1206 2.362 1_565 S
O1229 C1189 1.283 . S
O1229 Eu1206 2.363 . S
O1230 C1186 1.283 . S
O1230 Eu1205 2.363 1_565 S
O1231 C1188 1.283 . S
O1231 Eu1205 2.362 . S
O1232 C1197 1.283 . S
O1232 Eu1201 2.363 . S
O1233 C1195 1.283 . S
O1233 Eu1201 2.363 . S
O1234 C1196 1.283 . S
O1234 Eu1202 2.363 . S
O1235 C1194 1.283 . S
O1235 Eu1202 2.363 . S
C1236 C1237 1.369 . S
C1236 C1238 1.419 . S
C1236 H1240 0.930 . S
C1237 C1236 1.369 . S
C1237 C1246 1.429 . S
C1238 C1236 1.419 . S
C1238 C1239 1.363 . S
C1238 H1241 0.929 . S
C1239 C1238 1.363 . S
C1239 C1245 1.428 . S
H1240 C1236 0.930 . S
H1241 C1238 0.929 . S
S1242 N1243 1.613 . S
S1242 N1244 1.610 . S
N1243 S1242 1.613 . S
N1243 C1246 1.350 . S
N1244 S1242 1.610 . S
N1244 C1245 1.351 . S
C1245 C1239 1.428 . S
C1245 N1244 1.351 . S
C1245 C1246 1.434 . S
C1246 C1237 1.429 . S
C1246 N1243 1.350 . S
C1246 C1245 1.434 . S
C1247 C1248 1.369 . S
C1247 C1249 1.419 . S
C1247 H1251 0.930 . S
C1248 C1247 1.369 . S
C1248 C1257 1.429 . S
C1249 C1247 1.419 . S
C1249 C1250 1.363 . S
C1249 H1252 0.929 . S
C1250 C1249 1.363 . S
C1250 C1256 1.428 . S
H1251 C1247 0.930 . S
H1252 C1249 0.929 . S
S1253 N1254 1.613 . S
S1253 N1255 1.610 . S
N1254 S1253 1.613 . S
N1254 C1257 1.350 . S
N1255 S1253 1.610 . S
N1255 C1256 1.351 . S
C1256 C1250 1.428 . S
C1256 N1255 1.351 . S
C1256 C1257 1.434 . S
C1257 C1248 1.429 . S
C1257 N1254 1.350 . S
C1257 C1256 1.434 . S
C1258 C1259 1.369 . S
C1258 C1260 1.419 . S
C1258 H1262 0.930 . S
C1259 C1258 1.369 . S
C1259 C1268 1.429 . S
C1260 C1258 1.419 . S
C1260 C1261 1.363 . S
C1260 H1263 0.929 . S
C1261 C1260 1.363 . S
C1261 C1267 1.428 . S
H1262 C1258 0.930 . S
H1263 C1260 0.929 . S
S1264 N1265 1.613 . S
S1264 N1266 1.610 . S
N1265 S1264 1.613 . S
N1265 C1268 1.350 . S
N1266 S1264 1.610 . S
N1266 C1267 1.351 . S
C1267 C1261 1.428 . S
C1267 N1266 1.351 . S
C1267 C1268 1.434 . S
C1268 C1259 1.429 . S
C1268 N1265 1.350 . S
C1268 C1267 1.434 . S
C1269 C1270 1.369 . S
C1269 C1271 1.419 . S
C1269 H1273 0.930 . S
C1270 C1269 1.369 . S
C1270 C1279 1.429 . S
C1271 C1269 1.419 . S
C1271 C1272 1.363 . S
C1271 H1274 0.929 . S
C1272 C1271 1.363 . S
C1272 C1278 1.428 . S
H1273 C1269 0.930 . S
H1274 C1271 0.929 . S
S1275 N1276 1.613 . S
S1275 N1277 1.610 . S
N1276 S1275 1.613 . S
N1276 C1279 1.350 . S
N1277 S1275 1.610 . S
N1277 C1278 1.351 . S
C1278 C1272 1.428 . S
C1278 N1277 1.351 . S
C1278 C1279 1.434 . S
C1279 C1270 1.429 . S
C1279 N1276 1.350 . S
C1279 C1278 1.434 . S
C1280 C1281 1.369 . S
C1280 C1282 1.419 . S
C1280 H1284 0.930 . S
C1281 C1280 1.369 . S
C1281 C1290 1.429 . S
C1282 C1280 1.419 . S
C1282 C1283 1.363 . S
C1282 H1285 0.929 . S
C1283 C1282 1.363 . S
C1283 C1289 1.428 . S
H1284 C1280 0.930 . S
H1285 C1282 0.929 . S
S1286 N1287 1.613 . S
S1286 N1288 1.610 . S
N1287 S1286 1.613 . S
N1287 C1290 1.350 . S
N1288 S1286 1.610 . S
N1288 C1289 1.351 . S
C1289 C1283 1.428 . S
C1289 N1288 1.351 . S
C1289 C1290 1.434 . S
C1290 C1281 1.429 . S
C1290 N1287 1.350 . S
C1290 C1289 1.434 . S
C1291 C1292 1.369 . S
C1291 C1293 1.419 . S
C1291 H1295 0.930 . S
C1292 C1291 1.369 . S
C1292 C1301 1.429 . S
C1293 C1291 1.419 . S
C1293 C1294 1.363 . S
C1293 H1296 0.929 . S
C1294 C1293 1.363 . S
C1294 C1300 1.428 . S
H1295 C1291 0.930 . S
H1296 C1293 0.929 . S
S1297 N1298 1.613 . S
S1297 N1299 1.610 . S
N1298 S1297 1.613 . S
N1298 C1301 1.350 . S
N1299 S1297 1.610 . S
N1299 C1300 1.351 . S
C1300 C1294 1.428 . S
C1300 N1299 1.351 . S
C1300 C1301 1.434 . S
C1301 C1292 1.429 . S
C1301 N1298 1.350 . S
C1301 C1300 1.434 . S
C1302 C1303 1.369 . S
C1302 C1304 1.419 . S
C1302 H1306 0.930 . S
C1303 C1302 1.369 . S
C1303 C1312 1.429 . S
C1304 C1302 1.419 . S
C1304 C1305 1.363 . S
C1304 H1307 0.929 . S
C1305 C1304 1.363 . S
C1305 C1311 1.428 . S
H1306 C1302 0.930 . S
H1307 C1304 0.929 . S
S1308 N1309 1.613 . S
S1308 N1310 1.610 . S
N1309 S1308 1.613 . S
N1309 C1312 1.350 . S
N1310 S1308 1.610 . S
N1310 C1311 1.351 . S
C1311 C1305 1.428 . S
C1311 N1310 1.351 . S
C1311 C1312 1.434 . S
C1312 C1303 1.429 . S
C1312 N1309 1.350 . S
C1312 C1311 1.434 . S
C1313 C1314 1.369 . S
C1313 C1315 1.419 . S
C1313 H1317 0.930 . S
C1314 C1313 1.369 . S
C1314 C1323 1.429 . S
C1315 C1313 1.419 . S
C1315 C1316 1.363 . S
C1315 H1318 0.929 . S
C1316 C1315 1.363 . S
C1316 C1322 1.428 . S
H1317 C1313 0.930 . S
H1318 C1315 0.929 . S
S1319 N1320 1.613 . S
S1319 N1321 1.610 . S
N1320 S1319 1.613 . S
N1320 C1323 1.350 . S
N1321 S1319 1.610 . S
N1321 C1322 1.351 . S
C1322 C1316 1.428 . S
C1322 N1321 1.351 . S
C1322 C1323 1.434 . S
C1323 C1314 1.429 . S
C1323 N1320 1.350 . S
C1323 C1322 1.434 . S
C1324 C1325 1.369 . S
C1324 C1326 1.419 . S
C1324 H1328 0.930 . S
C1325 C1324 1.369 . S
C1325 C1334 1.429 . S
C1326 C1324 1.419 . S
C1326 C1327 1.363 . S
C1326 H1329 0.929 . S
C1327 C1326 1.363 . S
C1327 C1333 1.428 . S
H1328 C1324 0.930 . S
H1329 C1326 0.929 . S
S1330 N1331 1.613 . S
S1330 N1332 1.610 . S
N1331 S1330 1.613 . S
N1331 C1334 1.350 . S
N1332 S1330 1.610 . S
N1332 C1333 1.351 . S
C1333 C1327 1.428 . S
C1333 N1332 1.351 . S
C1333 C1334 1.434 . S
C1334 C1325 1.429 . S
C1334 N1331 1.350 . S
C1334 C1333 1.434 . S
C1335 C1336 1.369 . S
C1335 C1337 1.419 . S
C1335 H1339 0.930 . S
C1336 C1335 1.369 . S
C1336 C1345 1.429 . S
C1337 C1335 1.419 . S
C1337 C1338 1.363 . S
C1337 H1340 0.929 . S
C1338 C1337 1.363 . S
C1338 C1344 1.428 . S
H1339 C1335 0.930 . S
H1340 C1337 0.929 . S
S1341 N1342 1.613 . S
S1341 N1343 1.610 . S
N1342 S1341 1.613 . S
N1342 C1345 1.350 . S
N1343 S1341 1.610 . S
N1343 C1344 1.351 . S
C1344 C1338 1.428 . S
C1344 N1343 1.351 . S
C1344 C1345 1.434 . S
C1345 C1336 1.429 . S
C1345 N1342 1.350 . S
C1345 C1344 1.434 . S
C1346 C1347 1.369 . S
C1346 C1348 1.419 . S
C1346 H1350 0.930 . S
C1347 C1346 1.369 . S
C1347 C1356 1.429 . S
C1348 C1346 1.419 . S
C1348 C1349 1.363 . S
C1348 H1351 0.929 . S
C1349 C1348 1.363 . S
C1349 C1355 1.428 . S
H1350 C1346 0.930 . S
H1351 C1348 0.929 . S
S1352 N1353 1.613 . S
S1352 N1354 1.610 . S
N1353 S1352 1.613 . S
N1353 C1356 1.350 . S
N1354 S1352 1.610 . S
N1354 C1355 1.351 . S
C1355 C1349 1.428 . S
C1355 N1354 1.351 . S
C1355 C1356 1.434 . S
C1356 C1347 1.429 . S
C1356 N1353 1.350 . S
C1356 C1355 1.434 . S
C1357 C1358 1.369 . S
C1357 C1359 1.419 . S
C1357 H1361 0.930 . S
C1358 C1357 1.369 . S
C1358 C1367 1.429 . S
C1359 C1357 1.419 . S
C1359 C1360 1.363 . S
C1359 H1362 0.929 . S
C1360 C1359 1.363 . S
C1360 C1366 1.428 . S
H1361 C1357 0.930 . S
H1362 C1359 0.929 . S
S1363 N1364 1.613 . S
S1363 N1365 1.610 . S
N1364 S1363 1.613 . S
N1364 C1367 1.350 . S
N1365 S1363 1.610 . S
N1365 C1366 1.351 . S
C1366 C1360 1.428 . S
C1366 N1365 1.351 . S
C1366 C1367 1.434 . S
C1367 C1358 1.429 . S
C1367 N1364 1.350 . S
C1367 C1366 1.434 . S
C1368 C1369 1.355 1_556 S
C1368 C1370 1.419 . S
C1368 H1372 0.930 . S
C1369 C1368 1.355 1_554 S
C1369 C1378 1.443 . S
C1370 C1368 1.419 . S
C1370 C1371 1.353 1_556 S
C1370 H1373 0.929 . S
C1371 C1370 1.353 1_554 S
C1371 C1377 1.439 . S
H1372 C1368 0.930 . S
H1373 C1370 0.929 . S
S1374 N1375 1.613 . S
S1374 N1376 1.610 . S
N1375 S1374 1.613 . S
N1375 C1378 1.350 . S
N1376 S1374 1.610 . S
N1376 C1377 1.351 . S
C1377 C1371 1.439 . S
C1377 N1376 1.351 . S
C1377 C1378 1.434 . S
C1378 C1369 1.443 . S
C1378 N1375 1.350 . S
C1378 C1377 1.434 . S
C1379 C1380 1.369 1_556 S
C1379 C1381 1.418 . S
C1379 H1383 0.931 . S
C1380 C1379 1.369 1_554 S
C1380 C1389 1.429 . S
C1381 C1379 1.418 . S
C1381 C1382 1.362 1_556 S
C1381 H1384 0.932 . S
C1382 C1381 1.362 1_554 S
C1382 C1388 1.428 . S
H1383 C1379 0.931 . S
H1384 C1381 0.932 . S
S1385 N1386 1.613 . S
S1385 N1387 1.610 . S
N1386 S1385 1.613 . S
N1386 C1389 1.349 1_556 S
N1387 S1385 1.610 . S
N1387 C1388 1.351 1_556 S
C1388 C1382 1.428 . S
C1388 N1387 1.351 1_554 S
C1388 C1389 1.434 . S
C1389 C1380 1.429 . S
C1389 N1386 1.349 1_554 S
C1389 C1388 1.434 . S
C1390 C1391 1.369 1_554 S
C1390 C1392 1.419 . S
C1390 H1394 0.930 . S
C1391 C1390 1.369 1_556 S
C1391 C1400 1.428 . S
C1392 C1390 1.419 . S
C1392 C1393 1.366 1_554 S
C1392 H1395 0.929 . S
C1393 C1392 1.366 1_556 S
C1393 C1399 1.426 . S
H1394 C1390 0.930 . S
H1395 C1392 0.929 . S
S1396 N1397 1.613 . S
S1396 N1398 1.610 . S
N1397 S1396 1.613 . S
N1397 C1400 1.350 . S
N1398 S1396 1.610 . S
N1398 C1399 1.351 . S
C1399 C1393 1.426 . S
C1399 N1398 1.351 . S
C1399 C1400 1.434 . S
C1400 C1391 1.428 . S
C1400 N1397 1.350 . S
C1400 C1399 1.434 . S
C1401 C1402 1.362 1_554 S
C1401 C1403 1.419 . S
C1401 H1405 0.930 . S
C1402 C1401 1.362 1_556 S
C1402 C1411 1.436 . S
C1403 C1401 1.419 . S
C1403 C1404 1.360 1_554 S
C1403 H1406 0.929 . S
C1404 C1403 1.360 1_556 S
C1404 C1410 1.431 . S
H1405 C1401 0.930 . S
H1406 C1403 0.929 . S
S1407 N1408 1.613 . S
S1407 N1409 1.610 . S
N1408 S1407 1.613 . S
N1408 C1411 1.350 . S
N1409 S1407 1.610 . S
N1409 C1410 1.351 . S
C1410 C1404 1.431 . S
C1410 N1409 1.351 . S
C1410 C1411 1.434 . S
C1411 C1402 1.436 . S
C1411 N1408 1.350 . S
C1411 C1410 1.434 . S
C1412 C1413 1.369 1_655 S
C1412 C1414 1.419 . S
C1412 H1416 0.930 . S
C1413 C1412 1.369 1_455 S
C1413 C1422 1.429 . S
C1414 C1412 1.419 . S
C1414 C1415 1.363 1_655 S
C1414 H1417 0.929 . S
C1415 C1414 1.363 1_455 S
C1415 C1421 1.428 . S
H1416 C1412 0.930 . S
H1417 C1414 0.929 . S
S1418 N1419 1.613 . S
S1418 N1420 1.610 . S
N1419 S1418 1.613 . S
N1419 C1422 1.350 . S
N1420 S1418 1.610 . S
N1420 C1421 1.351 . S
C1421 C1415 1.428 . S
C1421 N1420 1.351 . S
C1421 C1422 1.434 . S
C1422 C1413 1.429 . S
C1422 N1419 1.350 . S
C1422 C1421 1.434 . S
C1423 C1424 1.356 1_565 S
C1423 C1425 1.419 . S
C1423 H1427 0.930 . S
C1424 C1423 1.356 1_545 S
C1424 C1433 1.443 . S
C1425 C1423 1.419 . S
C1425 C1426 1.350 1_565 S
C1425 H1428 0.929 . S
C1426 C1425 1.350 1_545 S
C1426 C1432 1.441 . S
H1427 C1423 0.930 . S
H1428 C1425 0.929 . S
S1429 N1430 1.613 . S
S1429 N1431 1.610 . S
N1430 S1429 1.613 . S
N1430 C1433 1.350 . S
N1431 S1429 1.610 . S
N1431 C1432 1.351 . S
C1432 C1426 1.441 . S
C1432 N1431 1.351 . S
C1432 C1433 1.434 . S
C1433 C1424 1.443 . S
C1433 N1430 1.350 . S
C1433 C1432 1.434 . S
C1434 C1435 1.369 1_655 S
C1434 C1436 1.419 . S
C1434 H1438 0.930 . S
C1435 C1434 1.369 1_455 S
C1435 C1444 1.429 . S
C1436 C1434 1.419 . S
C1436 C1437 1.363 1_655 S
C1436 H1439 0.929 . S
C1437 C1436 1.363 1_455 S
C1437 C1443 1.428 . S
H1438 C1434 0.930 . S
H1439 C1436 0.929 . S
S1440 N1441 1.613 . S
S1440 N1442 1.610 . S
N1441 S1440 1.613 . S
N1441 C1444 1.350 . S
N1442 S1440 1.610 . S
N1442 C1443 1.351 . S
C1443 C1437 1.428 . S
C1443 N1442 1.351 . S
C1443 C1444 1.434 . S
C1444 C1435 1.429 . S
C1444 N1441 1.350 . S
C1444 C1443 1.434 . S
C1445 C1446 1.365 1_545 S
C1445 C1447 1.419 . S
C1445 H1449 0.930 . S
C1446 C1445 1.365 1_565 S
C1446 C1455 1.433 . S
C1447 C1445 1.419 . S
C1447 C1448 1.363 1_545 S
C1447 H1450 0.929 . S
C1448 C1447 1.363 1_565 S
C1448 C1454 1.428 . S
H1449 C1445 0.930 . S
H1450 C1447 0.929 . S
S1451 N1452 1.613 . S
S1451 N1453 1.610 . S
N1452 S1451 1.613 . S
N1452 C1455 1.350 . S
N1453 S1451 1.610 . S
N1453 C1454 1.351 . S
C1454 C1448 1.428 . S
C1454 N1453 1.351 . S
C1454 C1455 1.434 . S
C1455 C1446 1.433 . S
C1455 N1452 1.350 . S
C1455 C1454 1.434 . S
C1456 C1457 1.369 1_655 S
C1456 C1458 1.419 . S
C1456 H1460 0.930 . S
C1457 C1456 1.369 1_455 S
C1457 C1466 1.429 . S
C1458 C1456 1.419 . S
C1458 C1459 1.363 1_655 S
C1458 H1461 0.929 . S
C1459 C1458 1.363 1_455 S
C1459 C1465 1.428 . S
H1460 C1456 0.930 . S
H1461 C1458 0.929 . S
S1462 N1463 1.613 . S
S1462 N1464 1.610 . S
N1463 S1462 1.613 . S
N1463 C1466 1.350 . S
N1464 S1462 1.610 . S
N1464 C1465 1.351 . S
C1465 C1459 1.428 . S
C1465 N1464 1.351 . S
C1465 C1466 1.434 . S
C1466 C1457 1.429 . S
C1466 N1463 1.350 . S
C1466 C1465 1.434 . S
C1467 C1468 1.365 1_545 S
C1467 C1469 1.419 . S
C1467 H1471 0.930 . S
C1468 C1467 1.365 1_565 S
C1468 C1477 1.433 . S
C1469 C1467 1.419 . S
C1469 C1470 1.361 1_545 S
C1469 H1472 0.929 . S
C1470 C1469 1.361 1_565 S
C1470 C1476 1.431 . S
H1471 C1467 0.930 . S
H1472 C1469 0.929 . S
S1473 N1474 1.613 . S
S1473 N1475 1.610 . S
N1474 S1473 1.613 . S
N1474 C1477 1.350 . S
N1475 S1473 1.610 . S
N1475 C1476 1.351 . S
C1476 C1470 1.431 . S
C1476 N1475 1.351 . S
C1476 C1477 1.434 . S
C1477 C1468 1.433 . S
C1477 N1474 1.350 . S
C1477 C1476 1.434 . S
C1478 C1479 1.369 1_655 S
C1478 C1480 1.419 . S
C1478 H1482 0.930 . S
C1479 C1478 1.369 1_455 S
C1479 C1488 1.429 . S
C1480 C1478 1.419 . S
C1480 C1481 1.363 1_655 S
C1480 H1483 0.929 . S
C1481 C1480 1.363 1_455 S
C1481 C1487 1.428 . S
H1482 C1478 0.930 . S
H1483 C1480 0.929 . S
S1484 N1485 1.613 . S
S1484 N1486 1.610 . S
N1485 S1484 1.613 . S
N1485 C1488 1.350 . S
N1486 S1484 1.610 . S
N1486 C1487 1.351 . S
C1487 C1481 1.428 . S
C1487 N1486 1.351 . S
C1487 C1488 1.434 . S
C1488 C1479 1.429 . S
C1488 N1485 1.350 . S
C1488 C1487 1.434 . S
C1489 C1490 1.367 1_545 S
C1489 C1491 1.419 . S
C1489 H1493 0.930 . S
C1490 C1489 1.367 1_565 S
C1490 C1499 1.431 . S
C1491 C1489 1.419 . S
C1491 C1492 1.362 1_545 S
C1491 H1494 0.929 . S
C1492 C1491 1.362 1_565 S
C1492 C1498 1.430 . S
H1493 C1489 0.930 . S
H1494 C1491 0.929 . S
S1495 N1496 1.613 . S
S1495 N1497 1.610 . S
N1496 S1495 1.613 . S
N1496 C1499 1.350 . S
N1497 S1495 1.610 . S
N1497 C1498 1.351 . S
C1498 C1492 1.430 . S
C1498 N1497 1.351 . S
C1498 C1499 1.434 . S
C1499 C1490 1.431 . S
C1499 N1496 1.350 . S
C1499 C1498 1.434 . S
C1500 C1501 1.369 . S
C1500 C1502 1.419 . S
C1500 H1504 0.930 . S
C1501 C1500 1.369 . S
C1501 C1510 1.429 1_455 S
C1502 C1500 1.419 . S
C1502 C1503 1.363 . S
C1502 H1505 0.929 . S
C1503 C1502 1.363 . S
C1503 C1509 1.428 1_455 S
H1504 C1500 0.930 . S
H1505 C1502 0.929 . S
S1506 N1507 1.613 . S
S1506 N1508 1.610 . S
N1507 S1506 1.613 . S
N1507 C1510 1.350 . S
N1508 S1506 1.610 . S
N1508 C1509 1.351 . S
C1509 C1503 1.428 1_655 S
C1509 N1508 1.351 . S
C1509 C1510 1.434 . S
C1510 C1501 1.429 1_655 S
C1510 N1507 1.350 . S
C1510 C1509 1.434 . S
C1511 C1512 1.365 1_545 S
C1511 C1513 1.419 . S
C1511 H1515 0.930 . S
C1512 C1511 1.365 1_565 S
C1512 C1521 1.432 . S
C1513 C1511 1.419 . S
C1513 C1514 1.361 1_545 S
C1513 H1516 0.929 . S
C1514 C1513 1.361 1_565 S
C1514 C1520 1.431 . S
H1515 C1511 0.930 . S
H1516 C1513 0.929 . S
S1517 N1518 1.613 . S
S1517 N1519 1.610 . S
N1518 S1517 1.613 . S
N1518 C1521 1.350 . S
N1519 S1517 1.610 . S
N1519 C1520 1.351 . S
C1520 C1514 1.431 . S
C1520 N1519 1.351 . S
C1520 C1521 1.434 . S
C1521 C1512 1.432 . S
C1521 N1518 1.350 . S
C1521 C1520 1.434 . S
C1522 C1523 1.369 . S
C1522 C1524 1.419 . S
C1522 H1526 0.930 . S
C1523 C1522 1.369 . S
C1523 C1532 1.426 1_455 S
C1524 C1522 1.419 . S
C1524 C1525 1.363 . S
C1524 H1527 0.929 . S
C1525 C1524 1.363 . S
C1525 C1531 1.426 1_455 S
H1526 C1522 0.930 . S
H1527 C1524 0.929 . S
S1528 N1529 1.613 . S
S1528 N1530 1.610 . S
N1529 S1528 1.613 . S
N1529 C1532 1.355 . S
N1530 S1528 1.610 . S
N1530 C1531 1.355 . S
C1531 C1525 1.426 1_655 S
C1531 N1530 1.355 . S
C1531 C1532 1.434 . S
C1532 C1523 1.426 1_655 S
C1532 N1529 1.355 . S
C1532 C1531 1.434 . S
C1533 C1534 1.366 1_565 S
C1533 C1535 1.419 . S
C1533 H1537 0.930 . S
C1534 C1533 1.366 1_545 S
C1534 C1543 1.432 . S
C1535 C1533 1.419 . S
C1535 C1536 1.361 1_565 S
C1535 H1538 0.929 . S
C1536 C1535 1.361 1_545 S
C1536 C1542 1.431 . S
H1537 C1533 0.930 . S
H1538 C1535 0.929 . S
S1539 N1540 1.613 . S
S1539 N1541 1.610 . S
N1540 S1539 1.613 . S
N1540 C1543 1.350 . S
N1541 S1539 1.610 . S
N1541 C1542 1.351 . S
C1542 C1536 1.431 . S
C1542 N1541 1.351 . S
C1542 C1543 1.434 . S
C1543 C1534 1.432 . S
C1543 N1540 1.350 . S
C1543 C1542 1.434 . S
C1544 C1545 1.369 . S
C1544 C1546 1.419 . S
C1544 H1548 0.930 . S
C1545 C1544 1.369 . S
C1545 C1554 1.429 1_455 S
C1546 C1544 1.419 . S
C1546 C1547 1.363 . S
C1546 H1549 0.929 . S
C1547 C1546 1.363 . S
C1547 C1553 1.428 1_455 S
H1548 C1544 0.930 . S
H1549 C1546 0.929 . S
S1550 N1551 1.613 . S
S1550 N1552 1.610 . S
N1551 S1550 1.613 . S
N1551 C1554 1.350 . S
N1552 S1550 1.610 . S
N1552 C1553 1.351 . S
C1553 C1547 1.428 1_655 S
C1553 N1552 1.351 . S
C1553 C1554 1.434 . S
C1554 C1545 1.429 1_655 S
C1554 N1551 1.350 . S
C1554 C1553 1.434 . S
C1555 C1556 1.364 1_565 S
C1555 C1557 1.419 . S
C1555 H1559 0.930 . S
C1556 C1555 1.364 1_545 S
C1556 C1565 1.434 . S
C1557 C1555 1.419 . S
C1557 C1558 1.359 1_565 S
C1557 H1560 0.929 . S
C1558 C1557 1.359 1_545 S
C1558 C1564 1.433 . S
H1559 C1555 0.930 . S
H1560 C1557 0.929 . S
S1561 N1562 1.613 . S
S1561 N1563 1.610 . S
N1562 S1561 1.613 . S
N1562 C1565 1.350 . S
N1563 S1561 1.610 . S
N1563 C1564 1.351 . S
C1564 C1558 1.433 . S
C1564 N1563 1.351 . S
C1564 C1565 1.434 . S
C1565 C1556 1.434 . S
C1565 N1562 1.350 . S
C1565 C1564 1.434 . S
C1566 C1567 1.369 1_655 S
C1566 C1568 1.419 . S
C1566 H1570 0.930 . S
C1567 C1566 1.369 1_455 S
C1567 C1576 1.429 . S
C1568 C1566 1.419 . S
C1568 C1569 1.363 1_655 S
C1568 H1571 0.929 . S
C1569 C1568 1.363 1_455 S
C1569 C1575 1.428 . S
H1570 C1566 0.930 . S
H1571 C1568 0.929 . S
S1572 N1573 1.613 . S
S1572 N1574 1.610 . S
N1573 S1572 1.613 . S
N1573 C1576 1.350 . S
N1574 S1572 1.610 . S
N1574 C1575 1.351 . S
C1575 C1569 1.428 . S
C1575 N1574 1.351 . S
C1575 C1576 1.434 . S
C1576 C1567 1.429 . S
C1576 N1573 1.350 . S
C1576 C1575 1.434 . S
C1577 C1578 1.364 1_565 S
C1577 C1579 1.419 . S
C1577 H1581 0.930 . S
C1578 C1577 1.364 1_545 S
C1578 C1587 1.433 . S
C1579 C1577 1.419 . S
C1579 C1580 1.358 1_565 S
C1579 H1582 0.929 . S
C1580 C1579 1.358 1_545 S
C1580 C1586 1.433 . S
H1581 C1577 0.930 . S
H1582 C1579 0.929 . S
S1583 N1584 1.613 . S
S1583 N1585 1.610 . S
N1584 S1583 1.613 . S
N1584 C1587 1.350 . S
N1585 S1583 1.610 . S
N1585 C1586 1.351 . S
C1586 C1580 1.433 . S
C1586 N1585 1.351 . S
C1586 C1587 1.434 . S
C1587 C1578 1.433 . S
C1587 N1584 1.350 . S
C1587 C1586 1.434 . S
C1588 C1589 1.364 1_565 S
C1588 C1590 1.419 . S
C1588 H1592 0.930 . S
C1589 C1588 1.364 1_545 S
C1589 C1598 1.433 . S
C1590 C1588 1.419 . S
C1590 C1591 1.359 1_565 S
C1590 H1593 0.929 . S
C1591 C1590 1.359 1_545 S
C1591 C1597 1.433 . S
H1592 C1588 0.930 . S
H1593 C1590 0.929 . S
S1594 N1595 1.613 . S
S1594 N1596 1.610 . S
N1595 S1594 1.613 . S
N1595 C1598 1.350 . S
N1596 S1594 1.610 . S
N1596 C1597 1.351 . S
C1597 C1591 1.433 . S
C1597 N1596 1.351 . S
C1597 C1598 1.434 . S
C1598 C1589 1.433 . S
C1598 N1595 1.350 . S
C1598 C1597 1.434 . S
C1599 C1600 1.369 . S
C1599 C1601 1.419 . S
C1599 H1603 0.930 . S
C1600 C1599 1.369 . S
C1600 C1609 1.429 1_455 S
C1601 C1599 1.419 . S
C1601 C1602 1.363 . S
C1601 H1604 0.929 . S
C1602 C1601 1.363 . S
C1602 C1608 1.428 1_455 S
H1603 C1599 0.930 . S
H1604 C1601 0.929 . S
S1605 N1606 1.613 . S
S1605 N1607 1.610 . S
N1606 S1605 1.613 . S
N1606 C1609 1.350 . S
N1607 S1605 1.610 . S
N1607 C1608 1.351 . S
C1608 C1602 1.428 1_655 S
C1608 N1607 1.351 . S
C1608 C1609 1.434 . S
C1609 C1600 1.429 1_655 S
C1609 N1606 1.350 . S
C1609 C1608 1.434 . S
C1610 C1611 1.370 1_545 S
C1610 C1612 1.419 . S
C1610 H1614 0.930 . S
C1611 C1610 1.370 1_565 S
C1611 C1620 1.428 . S
C1612 C1610 1.419 . S
C1612 C1613 1.365 1_545 S
C1612 H1615 0.929 . S
C1613 C1612 1.365 1_565 S
C1613 C1619 1.426 . S
H1614 C1610 0.930 . S
H1615 C1612 0.929 . S
S1616 N1617 1.613 . S
S1616 N1618 1.610 . S
N1617 S1616 1.613 . S
N1617 C1620 1.350 . S
N1618 S1616 1.610 . S
N1618 C1619 1.351 . S
C1619 C1613 1.426 . S
C1619 N1618 1.351 . S
C1619 C1620 1.434 . S
C1620 C1611 1.428 . S
C1620 N1617 1.350 . S
C1620 C1619 1.434 . S
C1621 C1622 1.369 1_655 S
C1621 C1623 1.419 . S
C1621 H1625 0.930 . S
C1622 C1621 1.369 1_455 S
C1622 C1631 1.429 . S
C1623 C1621 1.419 . S
C1623 C1624 1.363 1_655 S
C1623 H1626 0.929 . S
C1624 C1623 1.363 1_455 S
C1624 C1630 1.428 . S
H1625 C1621 0.930 . S
H1626 C1623 0.929 . S
S1627 N1628 1.613 . S
S1627 N1629 1.610 . S
N1628 S1627 1.613 . S
N1628 C1631 1.350 . S
N1629 S1627 1.610 . S
N1629 C1630 1.351 . S
C1630 C1624 1.428 . S
C1630 N1629 1.351 . S
C1630 C1631 1.434 . S
C1631 C1622 1.429 . S
C1631 N1628 1.350 . S
C1631 C1630 1.434 . S
C1632 C1633 1.355 1_565 S
C1632 C1634 1.419 . S
C1632 H1636 0.930 . S
C1633 C1632 1.355 1_545 S
C1633 C1642 1.443 . S
C1634 C1632 1.419 . S
C1634 C1635 1.352 1_565 S
C1634 H1637 0.929 . S
C1635 C1634 1.352 1_545 S
C1635 C1641 1.440 . S
H1636 C1632 0.930 . S
H1637 C1634 0.929 . S
S1638 N1639 1.613 . S
S1638 N1640 1.610 . S
N1639 S1638 1.613 . S
N1639 C1642 1.350 . S
N1640 S1638 1.610 . S
N1640 C1641 1.351 . S
C1641 C1635 1.440 . S
C1641 N1640 1.351 . S
C1641 C1642 1.434 . S
C1642 C1633 1.443 . S
C1642 N1639 1.350 . S
C1642 C1641 1.434 . S
C1643 C1644 1.369 . S
C1643 C1645 1.419 . S
C1643 H1647 0.930 . S
C1644 C1643 1.369 . S
C1644 C1653 1.429 1_455 S
C1645 C1643 1.419 . S
C1645 C1646 1.363 . S
C1645 H1648 0.929 . S
C1646 C1645 1.363 . S
C1646 C1652 1.428 1_455 S
H1647 C1643 0.930 . S
H1648 C1645 0.929 . S
S1649 N1650 1.613 . S
S1649 N1651 1.610 . S
N1650 S1649 1.613 . S
N1650 C1653 1.350 . S
N1651 S1649 1.610 . S
N1651 C1652 1.351 . S
C1652 C1646 1.428 1_655 S
C1652 N1651 1.351 . S
C1652 C1653 1.434 . S
C1653 C1644 1.429 1_655 S
C1653 N1650 1.350 . S
C1653 C1652 1.434 . S
C1654 C1655 1.370 1_545 S
C1654 C1656 1.419 . S
C1654 H1658 0.930 . S
C1655 C1654 1.370 1_565 S
C1655 C1664 1.428 . S
C1656 C1654 1.419 . S
C1656 C1657 1.364 1_545 S
C1656 H1659 0.929 . S
C1657 C1656 1.364 1_565 S
C1657 C1663 1.428 . S
H1658 C1654 0.930 . S
H1659 C1656 0.929 . S
S1660 N1661 1.613 . S
S1660 N1662 1.610 . S
N1661 S1660 1.613 . S
N1661 C1664 1.350 . S
N1662 S1660 1.610 . S
N1662 C1663 1.351 . S
C1663 C1657 1.428 . S
C1663 N1662 1.351 . S
C1663 C1664 1.434 . S
C1664 C1655 1.428 . S
C1664 N1661 1.350 . S
C1664 C1663 1.434 . S
C1665 C1666 1.369 1_655 S
C1665 C1667 1.419 . S
C1665 H1669 0.930 . S
C1666 C1665 1.369 1_455 S
C1666 C1675 1.429 . S
C1667 C1665 1.419 . S
C1667 C1668 1.363 1_655 S
C1667 H1670 0.929 . S
C1668 C1667 1.363 1_455 S
C1668 C1674 1.428 . S
H1669 C1665 0.930 . S
H1670 C1667 0.929 . S
S1671 N1672 1.613 . S
S1671 N1673 1.610 . S
N1672 S1671 1.613 . S
N1672 C1675 1.350 . S
N1673 S1671 1.610 . S
N1673 C1674 1.351 . S
C1674 C1668 1.428 . S
C1674 N1673 1.351 . S
C1674 C1675 1.434 . S
C1675 C1666 1.429 . S
C1675 N1672 1.350 . S
C1675 C1674 1.434 . S
C1676 C1677 1.359 1_556 S
C1676 C1678 1.419 . S
C1676 H1680 0.930 . S
C1677 C1676 1.359 1_554 S
C1677 C1686 1.439 . S
C1678 C1676 1.419 . S
C1678 C1679 1.355 1_556 S
C1678 H1681 0.929 . S
C1679 C1678 1.355 1_554 S
C1679 C1685 1.437 . S
H1680 C1676 0.930 . S
H1681 C1678 0.929 . S
S1682 N1683 1.613 . S
S1682 N1684 1.610 . S
N1683 S1682 1.613 . S
N1683 C1686 1.350 . S
N1684 S1682 1.610 . S
N1684 C1685 1.351 . S
C1685 C1679 1.437 . S
C1685 N1684 1.351 . S
C1685 C1686 1.434 . S
C1686 C1677 1.439 . S
C1686 N1683 1.350 . S
C1686 C1685 1.434 . S
C1687 C1688 1.366 1_554 S
C1687 C1689 1.419 . S
C1687 H1691 0.930 . S
C1688 C1687 1.366 1_556 S
C1688 C1697 1.432 . S
C1689 C1687 1.419 . S
C1689 C1690 1.362 1_554 S
C1689 H1692 0.929 . S
C1690 C1689 1.362 1_556 S
C1690 C1696 1.430 . S
H1691 C1687 0.930 . S
H1692 C1689 0.929 . S
S1693 N1694 1.613 . S
S1693 N1695 1.610 . S
N1694 S1693 1.613 . S
N1694 C1697 1.350 . S
N1695 S1693 1.610 . S
N1695 C1696 1.351 . S
C1696 C1690 1.430 . S
C1696 N1695 1.351 . S
C1696 C1697 1.434 . S
C1697 C1688 1.432 . S
C1697 N1694 1.350 . S
C1697 C1696 1.434 . S
C1698 C1699 1.368 1_556 S
C1698 C1700 1.419 . S
C1698 H1702 0.930 . S
C1699 C1698 1.368 1_554 S
C1699 C1708 1.430 . S
C1700 C1698 1.419 . S
C1700 C1701 1.362 1_556 S
C1700 H1703 0.929 . S
C1701 C1700 1.362 1_554 S
C1701 C1707 1.429 . S
H1702 C1698 0.930 . S
H1703 C1700 0.929 . S
S1704 N1705 1.613 . S
S1704 N1706 1.610 . S
N1705 S1704 1.613 . S
N1705 C1708 1.350 . S
N1706 S1704 1.610 . S
N1706 C1707 1.351 . S
C1707 C1701 1.429 . S
C1707 N1706 1.351 . S
C1707 C1708 1.434 . S
C1708 C1699 1.430 . S
C1708 N1705 1.350 . S
C1708 C1707 1.434 . S
C1709 C1710 1.368 . S
C1709 C1711 1.419 . S
C1709 H1713 0.930 . S
C1710 C1709 1.368 . S
C1710 C1719 1.430 1_554 S
C1711 C1709 1.419 . S
C1711 C1712 1.362 . S
C1711 H1714 0.929 . S
C1712 C1711 1.362 . S
C1712 C1718 1.429 1_554 S
H1713 C1709 0.930 . S
H1714 C1711 0.929 . S
S1715 N1716 1.613 . S
S1715 N1717 1.610 . S
N1716 S1715 1.613 . S
N1716 C1719 1.350 . S
N1717 S1715 1.610 . S
N1717 C1718 1.351 . S
C1718 C1712 1.429 1_556 S
C1718 N1717 1.351 . S
C1718 C1719 1.434 . S
C1719 C1710 1.430 1_556 S
C1719 N1716 1.350 . S
C1719 C1718 1.434 . S
C1720 C1721 1.370 . S
C1720 C1722 1.419 . S
C1720 H1724 0.930 . S
C1721 C1720 1.370 . S
C1721 C1730 1.428 1_554 S
C1722 C1720 1.419 . S
C1722 C1723 1.363 . S
C1722 H1725 0.929 . S
C1723 C1722 1.363 . S
C1723 C1729 1.427 1_554 S
H1724 C1720 0.930 . S
H1725 C1722 0.929 . S
S1726 N1727 1.613 . S
S1726 N1728 1.611 . S
N1727 S1726 1.613 . S
N1727 C1730 1.350 . S
N1728 S1726 1.611 . S
N1728 C1729 1.352 . S
C1729 C1723 1.427 1_556 S
C1729 N1728 1.352 . S
C1729 C1730 1.434 . S
C1730 C1721 1.428 1_556 S
C1730 N1727 1.350 . S
C1730 C1729 1.434 . S
C1731 C1732 1.371 1_554 S
C1731 C1733 1.419 . S
C1731 H1735 0.930 . S
C1732 C1731 1.371 1_556 S
C1732 C1741 1.427 . S
C1733 C1731 1.419 . S
C1733 C1734 1.365 1_554 S
C1733 H1736 0.929 . S
C1734 C1733 1.365 1_556 S
C1734 C1740 1.427 . S
H1735 C1731 0.930 . S
H1736 C1733 0.929 . S
S1737 N1738 1.613 . S
S1737 N1739 1.610 . S
N1738 S1737 1.613 . S
N1738 C1741 1.350 . S
N1739 S1737 1.610 . S
N1739 C1740 1.351 . S
C1740 C1734 1.427 . S
C1740 N1739 1.351 . S
C1740 C1741 1.434 . S
C1741 C1732 1.427 . S
C1741 N1738 1.350 . S
C1741 C1740 1.434 . S
C1742 C1743 1.369 1_554 S
C1742 C1744 1.419 . S
C1742 H1746 0.930 . S
C1743 C1742 1.369 1_556 S
C1743 C1752 1.428 . S
C1744 C1742 1.419 . S
C1744 C1745 1.364 1_554 S
C1744 H1747 0.929 . S
C1745 C1744 1.364 1_556 S
C1745 C1751 1.427 . S
H1746 C1742 0.930 . S
H1747 C1744 0.929 . S
S1748 N1749 1.613 . S
S1748 N1750 1.610 . S
N1749 S1748 1.613 . S
N1749 C1752 1.350 . S
N1750 S1748 1.610 . S
N1750 C1751 1.351 . S
C1751 C1745 1.427 . S
C1751 N1750 1.351 . S
C1751 C1752 1.434 . S
C1752 C1743 1.428 . S
C1752 N1749 1.350 . S
C1752 C1751 1.434 . S
C1753 C1754 1.369 1_556 S
C1753 C1755 1.419 . S
C1753 H1757 0.930 . S
C1754 C1753 1.369 1_554 S
C1754 C1763 1.429 . S
C1755 C1753 1.419 . S
C1755 C1756 1.363 1_556 S
C1755 H1758 0.929 . S
C1756 C1755 1.363 1_554 S
C1756 C1762 1.429 . S
H1757 C1753 0.930 . S
H1758 C1755 0.929 . S
S1759 N1760 1.613 . S
S1759 N1761 1.610 . S
N1760 S1759 1.613 . S
N1760 C1763 1.350 . S
N1761 S1759 1.610 . S
N1761 C1762 1.351 . S
C1762 C1756 1.429 . S
C1762 N1761 1.351 . S
C1762 C1763 1.434 . S
C1763 C1754 1.429 . S
C1763 N1760 1.350 . S
C1763 C1762 1.434 . S
C1764 C1765 1.369 . S
C1764 C1766 1.419 . S
C1764 H1768 0.930 . S
C1765 C1764 1.369 . S
C1765 C1774 1.429 . S
C1766 C1764 1.419 . S
C1766 C1767 1.363 . S
C1766 H1769 0.929 . S
C1767 C1766 1.363 . S
C1767 C1773 1.428 . S
H1768 C1764 0.930 . S
H1769 C1766 0.929 . S
S1770 N1771 1.613 . S
S1770 N1772 1.610 . S
N1771 S1770 1.613 . S
N1771 C1774 1.350 . S
N1772 S1770 1.610 . S
N1772 C1773 1.351 . S
C1773 C1767 1.428 . S
C1773 N1772 1.351 . S
C1773 C1774 1.434 . S
C1774 C1765 1.429 . S
C1774 N1771 1.350 . S
C1774 C1773 1.434 . S
C1775 C1776 1.369 . S
C1775 C1777 1.419 . S
C1775 H1779 0.930 . S
C1776 C1775 1.369 . S
C1776 C1785 1.429 . S
C1777 C1775 1.419 . S
C1777 C1778 1.363 . S
C1777 H1780 0.929 . S
C1778 C1777 1.363 . S
C1778 C1784 1.428 . S
H1779 C1775 0.930 . S
H1780 C1777 0.929 . S
S1781 N1782 1.613 . S
S1781 N1783 1.610 . S
N1782 S1781 1.613 . S
N1782 C1785 1.350 . S
N1783 S1781 1.610 . S
N1783 C1784 1.351 . S
C1784 C1778 1.428 . S
C1784 N1783 1.351 . S
C1784 C1785 1.434 . S
C1785 C1776 1.429 . S
C1785 N1782 1.350 . S
C1785 C1784 1.434 . S
C1786 C1787 1.369 . S
C1786 C1788 1.419 . S
C1786 H1790 0.930 . S
C1787 C1786 1.369 . S
C1787 C1796 1.429 . S
C1788 C1786 1.419 . S
C1788 C1789 1.363 . S
C1788 H1791 0.929 . S
C1789 C1788 1.363 . S
C1789 C1795 1.428 . S
H1790 C1786 0.930 . S
H1791 C1788 0.929 . S
S1792 N1793 1.613 . S
S1792 N1794 1.610 . S
N1793 S1792 1.613 . S
N1793 C1796 1.350 . S
N1794 S1792 1.610 . S
N1794 C1795 1.351 . S
C1795 C1789 1.428 . S
C1795 N1794 1.351 . S
C1795 C1796 1.434 . S
C1796 C1787 1.429 . S
C1796 N1793 1.350 . S
C1796 C1795 1.434 . S
C1797 C1798 1.369 . S
C1797 C1799 1.419 . S
C1797 H1801 0.930 . S
C1798 C1797 1.369 . S
C1798 C1807 1.429 . S
C1799 C1797 1.419 . S
C1799 C1800 1.363 . S
C1799 H1802 0.929 . S
C1800 C1799 1.363 . S
C1800 C1806 1.428 . S
H1801 C1797 0.930 . S
H1802 C1799 0.929 . S
S1803 N1804 1.613 . S
S1803 N1805 1.610 . S
N1804 S1803 1.613 . S
N1804 C1807 1.350 . S
N1805 S1803 1.610 . S
N1805 C1806 1.351 . S
C1806 C1800 1.428 . S
C1806 N1805 1.351 . S
C1806 C1807 1.434 . S
C1807 C1798 1.429 . S
C1807 N1804 1.350 . S
C1807 C1806 1.434 . S
C1808 C1809 1.369 . S
C1808 C1810 1.419 . S
C1808 H1812 0.930 . S
C1809 C1808 1.369 . S
C1809 C1818 1.429 . S
C1810 C1808 1.419 . S
C1810 C1811 1.363 . S
C1810 H1813 0.929 . S
C1811 C1810 1.363 . S
C1811 C1817 1.428 . S
H1812 C1808 0.930 . S
H1813 C1810 0.929 . S
S1814 N1815 1.613 . S
S1814 N1816 1.610 . S
N1815 S1814 1.613 . S
N1815 C1818 1.350 . S
N1816 S1814 1.610 . S
N1816 C1817 1.351 . S
C1817 C1811 1.428 . S
C1817 N1816 1.351 . S
C1817 C1818 1.434 . S
C1818 C1809 1.429 . S
C1818 N1815 1.350 . S
C1818 C1817 1.434 . S
C1819 C1820 1.369 . S
C1819 C1821 1.419 . S
C1819 H1823 0.930 . S
C1820 C1819 1.369 . S
C1820 C1829 1.429 . S
C1821 C1819 1.419 . S
C1821 C1822 1.363 . S
C1821 H1824 0.929 . S
C1822 C1821 1.363 . S
C1822 C1828 1.428 . S
H1823 C1819 0.930 . S
H1824 C1821 0.929 . S
S1825 N1826 1.613 . S
S1825 N1827 1.610 . S
N1826 S1825 1.613 . S
N1826 C1829 1.350 . S
N1827 S1825 1.610 . S
N1827 C1828 1.351 . S
C1828 C1822 1.428 . S
C1828 N1827 1.351 . S
C1828 C1829 1.434 . S
C1829 C1820 1.429 . S
C1829 N1826 1.350 . S
C1829 C1828 1.434 . S
C1830 C1831 1.369 . S
C1830 C1832 1.419 . S
C1830 H1834 0.930 . S
C1831 C1830 1.369 . S
C1831 C1840 1.429 . S
C1832 C1830 1.419 . S
C1832 C1833 1.363 . S
C1832 H1835 0.929 . S
C1833 C1832 1.363 . S
C1833 C1839 1.428 . S
H1834 C1830 0.930 . S
H1835 C1832 0.929 . S
S1836 N1837 1.613 . S
S1836 N1838 1.610 . S
N1837 S1836 1.613 . S
N1837 C1840 1.350 . S
N1838 S1836 1.610 . S
N1838 C1839 1.351 . S
C1839 C1833 1.428 . S
C1839 N1838 1.351 . S
C1839 C1840 1.434 . S
C1840 C1831 1.429 . S
C1840 N1837 1.350 . S
C1840 C1839 1.434 . S
C1841 C1842 1.369 . S
C1841 C1843 1.419 . S
C1841 H1845 0.930 . S
C1842 C1841 1.369 . S
C1842 C1851 1.429 . S
C1843 C1841 1.419 . S
C1843 C1844 1.363 . S
C1843 H1846 0.929 . S
C1844 C1843 1.363 . S
C1844 C1850 1.428 . S
H1845 C1841 0.930 . S
H1846 C1843 0.929 . S
S1847 N1848 1.613 . S
S1847 N1849 1.610 . S
N1848 S1847 1.613 . S
N1848 C1851 1.350 . S
N1849 S1847 1.610 . S
N1849 C1850 1.351 . S
C1850 C1844 1.428 . S
C1850 N1849 1.351 . S
C1850 C1851 1.434 . S
C1851 C1842 1.429 . S
C1851 N1848 1.350 . S
C1851 C1850 1.434 . S
C1852 C1853 1.369 . S
C1852 C1854 1.419 . S
C1852 H1856 0.930 . S
C1853 C1852 1.369 . S
C1853 C1862 1.429 . S
C1854 C1852 1.419 . S
C1854 C1855 1.363 . S
C1854 H1857 0.929 . S
C1855 C1854 1.363 . S
C1855 C1861 1.428 . S
H1856 C1852 0.930 . S
H1857 C1854 0.929 . S
S1858 N1859 1.613 . S
S1858 N1860 1.610 . S
N1859 S1858 1.613 . S
N1859 C1862 1.350 . S
N1860 S1858 1.610 . S
N1860 C1861 1.351 . S
C1861 C1855 1.428 . S
C1861 N1860 1.351 . S
C1861 C1862 1.434 . S
C1862 C1853 1.429 . S
C1862 N1859 1.350 . S
C1862 C1861 1.434 . S
C1863 C1864 1.369 . S
C1863 C1865 1.419 . S
C1863 H1867 0.930 . S
C1864 C1863 1.369 . S
C1864 C1873 1.429 . S
C1865 C1863 1.419 . S
C1865 C1866 1.363 . S
C1865 H1868 0.929 . S
C1866 C1865 1.363 . S
C1866 C1872 1.428 . S
H1867 C1863 0.930 . S
H1868 C1865 0.929 . S
S1869 N1870 1.613 . S
S1869 N1871 1.610 . S
N1870 S1869 1.613 . S
N1870 C1873 1.350 . S
N1871 S1869 1.610 . S
N1871 C1872 1.351 . S
C1872 C1866 1.428 . S
C1872 N1871 1.351 . S
C1872 C1873 1.434 . S
C1873 C1864 1.429 . S
C1873 N1870 1.350 . S
C1873 C1872 1.434 . S
C1874 C1875 1.369 . S
C1874 C1876 1.419 . S
C1874 H1878 0.930 . S
C1875 C1874 1.369 . S
C1875 C1884 1.429 . S
C1876 C1874 1.419 . S
C1876 C1877 1.363 . S
C1876 H1879 0.929 . S
C1877 C1876 1.363 . S
C1877 C1883 1.428 . S
H1878 C1874 0.930 . S
H1879 C1876 0.929 . S
S1880 N1881 1.613 . S
S1880 N1882 1.610 . S
N1881 S1880 1.613 . S
N1881 C1884 1.350 . S
N1882 S1880 1.610 . S
N1882 C1883 1.351 . S
C1883 C1877 1.428 . S
C1883 N1882 1.351 . S
C1883 C1884 1.434 . S
C1884 C1875 1.429 . S
C1884 N1881 1.350 . S
C1884 C1883 1.434 . S
C1885 C1886 1.369 . S
C1885 C1887 1.419 . S
C1885 H1889 0.930 . S
C1886 C1885 1.369 . S
C1886 C1895 1.429 . S
C1887 C1885 1.419 . S
C1887 C1888 1.363 . S
C1887 H1890 0.929 . S
C1888 C1887 1.363 . S
C1888 C1894 1.428 . S
H1889 C1885 0.930 . S
H1890 C1887 0.929 . S
S1891 N1892 1.613 . S
S1891 N1893 1.610 . S
N1892 S1891 1.613 . S
N1892 C1895 1.350 . S
N1893 S1891 1.610 . S
N1893 C1894 1.351 . S
C1894 C1888 1.428 . S
C1894 N1893 1.351 . S
C1894 C1895 1.434 . S
C1895 C1886 1.429 . S
C1895 N1892 1.350 . S
C1895 C1894 1.434 . S
C1896 C1897 1.369 . S
C1896 C1898 1.419 . S
C1896 H1900 0.930 . S
C1897 C1896 1.369 . S
C1897 C1906 1.429 . S
C1898 C1896 1.419 . S
C1898 C1899 1.363 . S
C1898 H1901 0.929 . S
C1899 C1898 1.363 . S
C1899 C1905 1.428 . S
H1900 C1896 0.930 . S
H1901 C1898 0.929 . S
S1902 N1903 1.613 . S
S1902 N1904 1.610 . S
N1903 S1902 1.613 . S
N1903 C1906 1.350 . S
N1904 S1902 1.610 . S
N1904 C1905 1.351 . S
C1905 C1899 1.428 . S
C1905 N1904 1.351 . S
C1905 C1906 1.434 . S
C1906 C1897 1.429 . S
C1906 N1903 1.350 . S
C1906 C1905 1.434 . S
C1907 C1908 1.369 . S
C1907 C1909 1.419 . S
C1907 H1911 0.930 . S
C1908 C1907 1.369 . S
C1908 C1917 1.429 . S
C1909 C1907 1.419 . S
C1909 C1910 1.363 . S
C1909 H1912 0.929 . S
C1910 C1909 1.363 . S
C1910 C1916 1.428 . S
H1911 C1907 0.930 . S
H1912 C1909 0.929 . S
S1913 N1914 1.613 . S
S1913 N1915 1.610 . S
N1914 S1913 1.613 . S
N1914 C1917 1.350 . S
N1915 S1913 1.610 . S
N1915 C1916 1.351 . S
C1916 C1910 1.428 . S
C1916 N1915 1.351 . S
C1916 C1917 1.434 . S
C1917 C1908 1.429 . S
C1917 N1914 1.350 . S
C1917 C1916 1.434 . S
C1918 C1919 1.369 . S
C1918 C1920 1.419 . S
C1918 H1922 0.930 . S
C1919 C1918 1.369 . S
C1919 C1928 1.429 . S
C1920 C1918 1.419 . S
C1920 C1921 1.363 . S
C1920 H1923 0.929 . S
C1921 C1920 1.363 . S
C1921 C1927 1.428 . S
H1922 C1918 0.930 . S
H1923 C1920 0.929 . S
S1924 N1925 1.613 . S
S1924 N1926 1.610 . S
N1925 S1924 1.613 . S
N1925 C1928 1.350 . S
N1926 S1924 1.610 . S
N1926 C1927 1.351 . S
C1927 C1921 1.428 . S
C1927 N1926 1.351 . S
C1927 C1928 1.434 . S
C1928 C1919 1.429 . S
C1928 N1925 1.350 . S
C1928 C1927 1.434 . S
C1929 C1930 1.369 . S
C1929 C1931 1.419 . S
C1929 H1933 0.930 . S
C1930 C1929 1.369 . S
C1930 C1939 1.429 . S
C1931 C1929 1.419 . S
C1931 C1932 1.363 . S
C1931 H1934 0.929 . S
C1932 C1931 1.363 . S
C1932 C1938 1.428 . S
H1933 C1929 0.930 . S
H1934 C1931 0.929 . S
S1935 N1936 1.613 . S
S1935 N1937 1.610 . S
N1936 S1935 1.613 . S
N1936 C1939 1.350 . S
N1937 S1935 1.610 . S
N1937 C1938 1.351 . S
C1938 C1932 1.428 . S
C1938 N1937 1.351 . S
C1938 C1939 1.434 . S
C1939 C1930 1.429 . S
C1939 N1936 1.350 . S
C1939 C1938 1.434 . S
C1940 C1941 1.369 . S
C1940 C1942 1.419 . S
C1940 H1944 0.930 . S
C1941 C1940 1.369 . S
C1941 C1950 1.429 . S
C1942 C1940 1.419 . S
C1942 C1943 1.363 . S
C1942 H1945 0.929 . S
C1943 C1942 1.363 . S
C1943 C1949 1.428 . S
H1944 C1940 0.930 . S
H1945 C1942 0.929 . S
S1946 N1947 1.613 . S
S1946 N1948 1.610 . S
N1947 S1946 1.613 . S
N1947 C1950 1.350 . S
N1948 S1946 1.610 . S
N1948 C1949 1.351 . S
C1949 C1943 1.428 . S
C1949 N1948 1.351 . S
C1949 C1950 1.434 . S
C1950 C1941 1.429 . S
C1950 N1947 1.350 . S
C1950 C1949 1.434 . S
C1951 C1952 1.369 . S
C1951 C1953 1.419 . S
C1951 H1955 0.930 . S
C1952 C1951 1.369 . S
C1952 C1961 1.429 . S
C1953 C1951 1.419 . S
C1953 C1954 1.363 . S
C1953 H1956 0.929 . S
C1954 C1953 1.363 . S
C1954 C1960 1.428 . S
H1955 C1951 0.930 . S
H1956 C1953 0.929 . S
S1957 N1958 1.613 . S
S1957 N1959 1.610 . S
N1958 S1957 1.613 . S
N1958 C1961 1.350 . S
N1959 S1957 1.610 . S
N1959 C1960 1.351 . S
C1960 C1954 1.428 . S
C1960 N1959 1.351 . S
C1960 C1961 1.434 . S
C1961 C1952 1.429 . S
C1961 N1958 1.350 . S
C1961 C1960 1.434 . S
C1962 C1963 1.369 . S
C1962 C1964 1.419 . S
C1962 H1966 0.930 . S
C1963 C1962 1.369 . S
C1963 C1972 1.429 . S
C1964 C1962 1.419 . S
C1964 C1965 1.363 . S
C1964 H1967 0.929 . S
C1965 C1964 1.363 . S
C1965 C1971 1.428 . S
H1966 C1962 0.930 . S
H1967 C1964 0.929 . S
S1968 N1969 1.613 . S
S1968 N1970 1.610 . S
N1969 S1968 1.613 . S
N1969 C1972 1.350 . S
N1970 S1968 1.610 . S
N1970 C1971 1.351 . S
C1971 C1965 1.428 . S
C1971 N1970 1.351 . S
C1971 C1972 1.434 . S
C1972 C1963 1.429 . S
C1972 N1969 1.350 . S
C1972 C1971 1.434 . S
C1973 C1974 1.369 . S
C1973 C1975 1.419 . S
C1973 H1977 0.930 . S
C1974 C1973 1.369 . S
C1974 C1983 1.429 . S
C1975 C1973 1.419 . S
C1975 C1976 1.363 . S
C1975 H1978 0.929 . S
C1976 C1975 1.363 . S
C1976 C1982 1.428 . S
H1977 C1973 0.930 . S
H1978 C1975 0.929 . S
S1979 N1980 1.613 . S
S1979 N1981 1.610 . S
N1980 S1979 1.613 . S
N1980 C1983 1.350 . S
N1981 S1979 1.610 . S
N1981 C1982 1.351 . S
C1982 C1976 1.428 . S
C1982 N1981 1.351 . S
C1982 C1983 1.434 . S
C1983 C1974 1.429 . S
C1983 N1980 1.350 . S
C1983 C1982 1.434 . S
C1984 C1985 1.369 . S
C1984 C1986 1.419 . S
C1984 H1988 0.930 . S
C1985 C1984 1.369 . S
C1985 C1994 1.429 . S
C1986 C1984 1.419 . S
C1986 C1987 1.363 . S
C1986 H1989 0.929 . S
C1987 C1986 1.363 . S
C1987 C1993 1.428 . S
H1988 C1984 0.930 . S
H1989 C1986 0.929 . S
S1990 N1991 1.613 . S
S1990 N1992 1.610 . S
N1991 S1990 1.613 . S
N1991 C1994 1.350 . S
N1992 S1990 1.610 . S
N1992 C1993 1.351 . S
C1993 C1987 1.428 . S
C1993 N1992 1.351 . S
C1993 C1994 1.434 . S
C1994 C1985 1.429 . S
C1994 N1991 1.350 . S
C1994 C1993 1.434 . S
C1995 C1996 1.369 . S
C1995 C1997 1.419 . S
C1995 H1999 0.930 . S
C1996 C1995 1.369 . S
C1996 C2005 1.429 . S
C1997 C1995 1.419 . S
C1997 C1998 1.363 . S
C1997 H2000 0.929 . S
C1998 C1997 1.363 . S
C1998 C2004 1.428 . S
H1999 C1995 0.930 . S
H2000 C1997 0.929 . S
S2001 N2002 1.613 . S
S2001 N2003 1.610 . S
N2002 S2001 1.613 . S
N2002 C2005 1.350 . S
N2003 S2001 1.610 . S
N2003 C2004 1.351 . S
C2004 C1998 1.428 . S
C2004 N2003 1.351 . S
C2004 C2005 1.434 . S
C2005 C1996 1.429 . S
C2005 N2002 1.350 . S
C2005 C2004 1.434 . S
C2006 C2007 1.369 . S
C2006 C2008 1.419 . S
C2006 H2010 0.930 . S
C2007 C2006 1.369 . S
C2007 C2016 1.429 . S
C2008 C2006 1.419 . S
C2008 C2009 1.363 . S
C2008 H2011 0.929 . S
C2009 C2008 1.363 . S
C2009 C2015 1.428 . S
H2010 C2006 0.930 . S
H2011 C2008 0.929 . S
S2012 N2013 1.613 . S
S2012 N2014 1.610 . S
N2013 S2012 1.613 . S
N2013 C2016 1.350 . S
N2014 S2012 1.610 . S
N2014 C2015 1.351 . S
C2015 C2009 1.428 . S
C2015 N2014 1.351 . S
C2015 C2016 1.434 . S
C2016 C2007 1.429 . S
C2016 N2013 1.350 . S
C2016 C2015 1.434 . S
C2017 C2018 1.369 . S
C2017 C2019 1.419 . S
C2017 H2021 0.930 . S
C2018 C2017 1.369 . S
C2018 C2027 1.429 . S
C2019 C2017 1.419 . S
C2019 C2020 1.363 . S
C2019 H2022 0.929 . S
C2020 C2019 1.363 . S
C2020 C2026 1.428 . S
H2021 C2017 0.930 . S
H2022 C2019 0.929 . S
S2023 N2024 1.613 . S
S2023 N2025 1.610 . S
N2024 S2023 1.613 . S
N2024 C2027 1.350 . S
N2025 S2023 1.610 . S
N2025 C2026 1.351 . S
C2026 C2020 1.428 . S
C2026 N2025 1.351 . S
C2026 C2027 1.434 . S
C2027 C2018 1.429 . S
C2027 N2024 1.350 . S
C2027 C2026 1.434 . S
C1239 C942 1.138 . S
C1237 C898 1.136 . S
C1248 C820 1.136 . S
C1250 C940 1.136 . S
C1261 C941 1.136 . S
C1259 C781 1.137 . S
C1270 C859 1.137 . S
C1272 C943 1.138 . S
C1283 C987 1.137 . S
C1281 C625 1.135 . S
C1294 C1047 1.136 . S
C1292 C664 1.136 . S
C1303 C703 1.136 . S
C1305 C986 1.137 . S
C1316 C1046 1.137 . S
C1314 C742 1.136 . S
C1325 C469 1.137 . S
C1327 C988 1.138 . S
C1338 C1044 1.138 . S
C1336 C508 1.137 . S
C1347 C547 1.136 . S
C1349 C989 1.137 . S
C1358 C586 1.137 . S
C1360 C1045 1.137 . S
C1371 C1095 1.137 . S
C1369 C430 1.137 . S
C1380 C352 1.136 . S
C1382 C1094 1.137 . S
C1391 C313 1.136 . S
C1393 C1096 1.137 1_556 S
C1404 C1097 1.137 1_556 S
C1402 C391 1.137 . S
C1413 C157 1.137 . S
C1415 C1138 1.137 . S
C1424 C196 1.136 1_545 S
C1426 C1197 1.136 . S
C1435 C235 1.137 . S
C1437 C1136 1.137 . S
C1446 C274 1.137 . S
C1448 C1196 1.138 1_565 S
C1459 C1137 1.137 . S
C1457 C1 1.137 . S
C1470 C1194 1.137 1_565 S
C1468 C40 1.137 1_565 S
C1479 C79 1.136 . S
C1481 C1139 1.137 . S
C1492 C1195 1.136 1_565 S
C1490 C118 1.136 1_565 S
C1503 C939 2.079 . S
C1501 C16 1.900 . S
C1512 C60 1.916 1_565 S
C1514 C945 2.090 1_565 S
C1523 C99 1.917 . S
C1525 C937 2.094 . S
C1534 C133 1.913 1_545 S
C1536 C944 2.078 . S
C1545 C172 1.908 . S
C1547 C936 2.076 . S
C1558 C946 2.081 . S
C1556 C211 1.906 . S
C1567 C255 1.917 . S
C1569 C938 2.093 . S
C1580 C947 2.090 . S
C1578 C294 1.914 1_545 S
C1591 C993 2.089 . S
C1589 C138 1.925 . S
C1600 C21 1.924 . S
C1602 C1036 2.091 . S
C1613 C991 2.077 1_565 S
C1611 C55 1.911 . S
C1624 C1038 2.077 . S
C1622 C94 1.905 . S
C1633 C216 1.919 1_545 S
C1635 C992 2.091 . S
C1646 C1037 2.079 . S
C1644 C250 1.901 . S
C1657 C990 2.080 1_565 S
C1655 C289 1.902 1_565 S
C1668 C1039 2.092 . S
C1666 C177 1.921 . S
C1679 C1043 2.081 . S
C1677 C328 1.908 . S
C1688 C367 1.907 . S
C1690 C1042 2.081 1_556 S
C1701 C994 2.093 . S
C1699 C333 1.915 1_554 S
C1712 C1041 2.087 . S
C1710 C411 1.924 1_554 S
C1721 C445 1.912 1_554 S
C1723 C997 2.076 . S
C1732 C450 1.914 1_556 S
C1734 C1040 2.091 1_556 S
C1745 C996 2.089 1_556 S
C1743 C372 1.925 1_556 S
C1756 C995 2.076 . S
C1754 C406 1.912 . S
C1767 C1089 2.079 . S
C1765 C484 1.901 . S
C1778 C1092 2.087 . S
C1776 C528 1.925 . S
C1787 C567 1.926 . S
C1789 C1088 2.091 . S
C1800 C1090 2.080 . S
C1798 C601 1.909 . S
C1811 C1086 2.075 . S
C1809 C640 1.911 . S
C1820 C679 1.909 . S
C1822 C1091 2.079 . S
C1831 C723 1.916 . S
C1833 C1087 2.093 . S
C1844 C1093 2.086 . S
C1842 C762 1.924 . S
C1855 C1147 2.089 . S
C1853 C606 1.926 . S
C1864 C489 1.925 . S
C1866 C1186 2.091 . S
C1877 C1146 2.080 . S
C1875 C523 1.901 . S
C1888 C1188 2.079 . S
C1886 C562 1.900 . S
C1899 C1145 2.092 . S
C1897 C684 1.918 . S
C1908 C718 1.900 . S
C1910 C1187 2.080 . S
C1921 C1144 2.077 . S
C1919 C757 1.910 . S
C1932 C1189 2.089 . S
C1930 C645 1.927 . S
C1943 C1193 2.081 . S
C1941 C796 1.907 . S
C1952 C835 1.914 . S
C1954 C1192 2.077 . S
C1965 C1140 2.093 . S
C1963 C801 1.916 . S
C1974 C879 1.924 . S
C1976 C1191 2.087 . S
C1987 C1143 2.080 . S
C1985 C913 1.902 . S
C1998 C1190 2.089 . S
C1996 C918 1.918 . S
C2009 C1141 2.093 . S
C2007 C840 1.915 . S
C2018 C874 1.904 . S
C2020 C1142 2.079 . S
