# Generated by pormake.
# Topology pth, (4,4)-cn, num edge types: 1
# Building blocks:
#     Node 0, Type 0, BuildingBlock: KUFVIS_clean_sbu_0, # of connection points: 4
#     Node 1, Type 0, BuildingBlock: KUFVIS_clean_sbu_0, # of connection points: 4
#     Node 2, Type 0, BuildingBlock: KUFVIS_clean_sbu_0, # of connection points: 4
#     Node 3, Type 1, BuildingBlock: NAHDIM_clean_linker_0, # of connection points: 4
#     Node 4, Type 1, BuildingBlock: NAHDIM_clean_linker_0, # of connection points: 4
#     Node 5, Type 1, BuildingBlock: NAHDIM_clean_linker_0, # of connection points: 4
#     Edge 6, Type (0, 1), BuildingBlock: OJICUG_clean_linker_0, # of connection points: 2
#     Edge 7, Type (0, 1), BuildingBlock: OJICUG_clean_linker_0, # of connection points: 2
#     Edge 8, Type (0, 1), BuildingBlock: OJICUG_clean_linker_0, # of connection points: 2
#     Edge 9, Type (0, 1), BuildingBlock: OJICUG_clean_linker_0, # of connection points: 2
#     Edge 10, Type (0, 1), BuildingBlock: OJICUG_clean_linker_0, # of connection points: 2
#     Edge 11, Type (0, 1), BuildingBlock: OJICUG_clean_linker_0, # of connection points: 2
#     Edge 12, Type (0, 1), BuildingBlock: OJICUG_clean_linker_0, # of connection points: 2
#     Edge 13, Type (0, 1), BuildingBlock: OJICUG_clean_linker_0, # of connection points: 2
#     Edge 14, Type (0, 1), BuildingBlock: OJICUG_clean_linker_0, # of connection points: 2
#     Edge 15, Type (0, 1), BuildingBlock: OJICUG_clean_linker_0, # of connection points: 2
#     Edge 16, Type (0, 1), BuildingBlock: OJICUG_clean_linker_0, # of connection points: 2
#     Edge 17, Type (0, 1), BuildingBlock: OJICUG_clean_linker_0, # of connection points: 2
# Relax obj value: 0.014
# Max RMSD: 0.083
# Mean RMSD: 0.063
data_MOF--net-pth--node1-KUFVIS_clean_sbu_0--node2-NAHDIM_clean_linker_0--edge1-OJICUG_clean_linker_0
_symmetry_space_group_name_H-M    P1
_symmetry_Int_Tables_number       1
_symmetry_cell_setting            triclinic
loop_
_symmetry_equiv_pos_as_xyz
'x, y, z'
_cell_length_a     25.371737
_cell_length_b     25.4508
_cell_length_c     65.762419
_cell_angle_alpha  89.973942
_cell_angle_beta   92.788716
_cell_angle_gamma 120.33087
loop_
_atom_site_label
_atom_site_type_symbol
_atom_site_fract_x
_atom_site_fract_y
_atom_site_fract_z
_atom_type_partial_charge
Mn0 Mn 0.08394 0.0832 0.06404 0.0
Mn1 Mn 0.01394 0.15575 0.04367 0.0
C2 C 0.02259 0.04419 0.03453 0.0
C3 C 0.08879 0.01771 0.0878 0.0
C4 C 0.14817 0.19848 0.0394 0.0
O5 O 0.09252 0.14142 0.08676 0.0
O6 O 0.03587 0.17907 0.07304 0.0
C7 C 0.90102 0.09488 0.06636 0.0
N8 N 0.92866 0.1108 0.04834 0.0
C9 C 0.8315 0.06528 0.0294 0.0
C10 C 0.80196 0.04884 0.04777 0.0
C11 C 0.83689 0.06347 0.06632 0.0
C12 C 0.89551 0.0963 0.0304 0.0
H13 H 0.92773 0.10604 0.08065 0.0
C14 C 0.0673 0.17366 0.08785 0.0
O15 O 0.13752 0.06094 0.0801 0.0
O16 O 0.03671 0.01201 0.08154 0.0
N17 N 0.98906 0.13813 0.01538 0.0
C18 C 0.02451 0.15523 -0.001 0.0
C19 C 0.99665 0.14396 0.97927 0.0
C20 C 0.93276 0.11589 0.97659 0.0
C21 C 0.8972 0.09864 0.99366 0.0
C22 C 0.92755 0.11165 0.01295 0.0
H23 H 0.07368 0.17752 0.00094 0.0
O24 O 0.06228 0.02803 0.03973 0.0
O25 O 0.01803 0.0809 0.04719 0.0
O26 O 0.14789 0.15409 0.04845 0.0
O27 O 0.10134 0.20488 0.0375 0.0
C28 C 0.83282 0.06856 0.99228 0.0
C29 C 0.79997 0.05154 0.01013 0.0
H30 H 0.75251 0.02463 0.0478 0.0
H31 H 0.81442 0.05065 0.08055 0.0
H32 H 0.02438 0.15728 0.96616 0.0
H33 H 0.91147 0.10791 0.96137 0.0
H34 H 0.80808 0.05759 0.97755 0.0
H35 H 0.75046 0.0277 0.00888 0.0
Mn36 Mn 0.02473 0.04676 0.41554 0.0
Mn37 Mn 0.08625 0.17303 0.44604 0.0
C38 C 0.06427 0.04545 0.44774 0.0
C39 C 0.0359 0.99022 0.39004 0.0
C40 C 0.94941 0.08674 0.43905 0.0
O41 O 0.03568 0.11301 0.39599 0.0
O42 O 0.08449 0.19529 0.41713 0.0
C43 C 0.21241 0.2332 0.43209 0.0
N44 N 0.17338 0.21092 0.44747 0.0
C45 C 0.25684 0.24064 0.47241 0.0
C46 C 0.29798 0.26439 0.45685 0.0
C47 C 0.27563 0.26047 0.43661 0.0
C48 C 0.19435 0.2141 0.46699 0.0
H49 H 0.19539 0.23001 0.4165 0.0
C50 C 0.06324 0.17039 0.39943 0.0
O51 O 0.98249 0.98225 0.39367 0.0
O52 O 0.08256 0.03208 0.40078 0.0
N53 N 0.09181 0.15942 0.4745 0.0
C54 C 0.04597 0.13187 0.48759 0.0
C55 C 0.06057 0.13078 0.5084 0.0
C56 C 0.12208 0.1586 0.51559 0.0
C57 C 0.16847 0.18748 0.5019 0.0
C58 C 0.15117 0.18752 0.48135 0.0
H59 H 0.9986 0.11058 0.48219 0.0
O60 O 0.02623 0.99496 0.43801 0.0
O61 O 0.07962 0.09547 0.43812 0.0
O62 O 0.95245 0.04793 0.42762 0.0
O63 O 0.99646 0.13586 0.44599 0.0
C64 C 0.23119 0.215 0.50776 0.0
C65 C 0.27532 0.24134 0.49301 0.0
H66 H 0.34676 0.28523 0.46026 0.0
H67 H 0.30707 0.27835 0.4245 0.0
H68 H 0.02449 0.10841 0.51887 0.0
H69 H 0.13314 0.15714 0.53162 0.0
H70 H 0.24592 0.21526 0.52352 0.0
H71 H 0.32334 0.2615 0.49766 0.0
Mn72 Mn 0.05344 0.08033 0.74259 0.0
Mn73 Mn 0.96621 0.13241 0.76117 0.0
C74 C 0.07707 0.12565 0.77473 0.0
C75 C 0.13585 0.09674 0.72379 0.0
C76 C 0.92675 0.99805 0.75827 0.0
O77 O 0.00533 0.08366 0.71738 0.0
O78 O 0.95716 0.12838 0.7309 0.0
C79 C 0.03062 0.25797 0.74598 0.0
N80 N 0.00898 0.21938 0.76177 0.0
C81 C 0.04263 0.30303 0.78577 0.0
C82 C 0.06472 0.34366 0.76973 0.0
C83 C 0.05891 0.32102 0.74977 0.0
C84 C 0.0147 0.24067 0.78106 0.0
H85 H 0.02642 0.24076 0.73063 0.0
C86 C 0.97143 0.10741 0.71572 0.0
O87 O 0.09116 0.04203 0.72673 0.0
O88 O 0.1317 0.14152 0.73129 0.0
N89 N 0.97156 0.13944 0.79027 0.0
C90 C 0.95263 0.0946 0.80416 0.0
C91 C 0.95813 0.10989 0.82498 0.0
C92 C 0.98239 0.17094 0.83127 0.0
C93 C 0.00125 0.21624 0.81668 0.0
C94 C 0.99475 0.1983 0.79616 0.0
H95 H 0.93373 0.0476 0.7994 0.0
O96 O 0.097 0.08978 0.76966 0.0
O97 O 0.04423 0.13414 0.76077 0.0
O98 O 0.97662 0.00503 0.75196 0.0
O99 O 0.91788 0.04242 0.76155 0.0
C100 C 0.02719 0.27861 0.8217 0.0
C101 C 0.0482 0.322 0.80627 0.0
H102 H 0.0868 0.39234 0.77261 0.0
H103 H 0.07624 0.35211 0.73733 0.0
H104 H 0.94364 0.07469 0.83616 0.0
H105 H 0.9868 0.18256 0.84735 0.0
H106 H 0.03187 0.29384 0.83739 0.0
H107 H 0.0692 0.36991 0.81037 0.0
C108 C 0.08522 0.78601 0.3607 0.0
C109 C 0.07511 0.82134 0.34349 0.0
C110 C 0.02733 0.73994 0.3171 0.0
C111 C 0.08148 0.74197 0.3119 0.0
C112 C 0.07964 0.69662 0.29931 0.0
C113 C 0.02254 0.64787 0.29176 0.0
C114 C 0.968 0.64636 0.29646 0.0
C115 C 0.97118 0.69279 0.30896 0.0
C116 C 0.13889 0.70015 0.29444 0.0
C117 C 0.90646 0.59522 0.28851 0.0
C118 C 0.13431 0.31123 0.31393 0.0
C119 C 0.10833 0.33058 0.3311 0.0
C120 C 0.05058 0.37341 0.31386 0.0
C121 C 0.99208 0.36373 0.30888 0.0
C122 C 0.98375 0.40677 0.29801 0.0
C123 C 0.03542 0.46101 0.29207 0.0
C124 C 0.09485 0.47157 0.29725 0.0
C125 C 0.10184 0.42759 0.30794 0.0
C126 C 0.91981 0.39393 0.29259 0.0
C127 C 0.15113 0.52905 0.29123 0.0
C128 C 0.10456 0.39645 0.16938 0.0
C129 C 0.04448 0.38563 0.16712 0.0
C130 C 0.02994 0.4282 0.17456 0.0
C131 C 0.07652 0.48278 0.18421 0.0
C132 C 0.13775 0.49557 0.18521 0.0
C133 C 0.15098 0.45224 0.17764 0.0
C134 C 0.96452 0.41404 0.17279 0.0
C135 C 0.18879 0.55394 0.19503 0.0
C136 C 0.10943 0.90475 0.17282 0.0
C137 C 0.11126 0.87452 0.1529 0.0
C138 C 0.06422 0.76661 0.16185 0.0
C139 C 0.01027 0.71003 0.16034 0.0
C140 C 0.0053 0.65968 0.17076 0.0
C141 C 0.05599 0.66606 0.18282 0.0
C142 C 0.11132 0.72272 0.18404 0.0
C143 C 0.11475 0.77251 0.17372 0.0
C144 C 0.94567 0.59988 0.16912 0.0
C145 C 0.16676 0.73086 0.19644 0.0
C146 C 0.0205 0.59779 0.27952 0.0
C147 C 0.02158 0.55049 0.29002 0.0
C148 C 0.02774 0.50594 0.27978 0.0
C149 C 0.03222 0.50795 0.25842 0.0
C150 C 0.03907 0.46419 0.2477 0.0
C151 C 0.04753 0.46874 0.22692 0.0
C152 C 0.04893 0.51692 0.21599 0.0
C153 C 0.06065 0.5236 0.19507 0.0
C154 C 0.06117 0.57162 0.18458 0.0
C155 C 0.051 0.614 0.19454 0.0
C156 C 0.04008 0.60857 0.21557 0.0
C157 C 0.03084 0.65101 0.22617 0.0
C158 C 0.02371 0.64724 0.24708 0.0
C159 C 0.02459 0.60035 0.25813 0.0
C160 C 0.03128 0.55567 0.2476 0.0
C161 C 0.03945 0.56004 0.22633 0.0
C162 C 0.10988 0.2721 0.18357 0.0
C163 C 0.08403 0.29203 0.16555 0.0
O164 O 0.0272 0.78157 0.33012 0.0
O165 O 0.06514 0.81387 0.15179 0.0
O166 O 0.11958 0.35456 0.1637 0.0
O167 O 0.05518 0.32929 0.32416 0.0
H168 H 0.11759 0.84656 0.33511 0.0
H169 H 0.09796 0.75363 0.35452 0.0
H170 H 0.04288 0.75983 0.36907 0.0
H171 H 0.12296 0.81783 0.37158 0.0
H172 H 0.12554 0.77832 0.31773 0.0
H173 H 0.92961 0.69163 0.31287 0.0
H174 H 0.14129 0.66197 0.30167 0.0
H175 H 0.17963 0.74362 0.29999 0.0
H176 H 0.14073 0.69546 0.27774 0.0
H177 H 0.86824 0.60091 0.29334 0.0
H178 H 0.89976 0.55115 0.29407 0.0
H179 H 0.90481 0.59289 0.27161 0.0
H180 H 0.14333 0.37749 0.33644 0.0
H181 H 0.17575 0.31037 0.31971 0.0
H182 H 0.14751 0.34397 0.30139 0.0
H183 H 0.09995 0.26539 0.30757 0.0
H184 H 0.95275 0.3219 0.31343 0.0
H185 H 0.14759 0.43604 0.31138 0.0
H186 H 0.9134 0.43007 0.29942 0.0
H187 H 0.88429 0.34905 0.29799 0.0
H188 H 0.91308 0.3949 0.2758 0.0
H189 H 0.19399 0.53313 0.29808 0.0
H190 H 0.14876 0.56957 0.29602 0.0
H191 H 0.15327 0.5295 0.27441 0.0
H192 H 0.03656 0.27805 0.16936 0.0
H193 H 0.00878 0.34408 0.15964 0.0
H194 H 0.19743 0.46078 0.17885 0.0
H195 H 0.94702 0.40918 0.18824 0.0
H196 H 0.93421 0.37146 0.16374 0.0
H197 H 0.96218 0.45229 0.16554 0.0
H198 H 0.23447 0.55909 0.19323 0.0
H199 H 0.1818 0.55473 0.21154 0.0
H200 H 0.18816 0.59361 0.18827 0.0
H201 H 0.15649 0.87769 0.15228 0.0
H202 H 0.14588 0.95353 0.17359 0.0
H203 H 0.11718 0.88221 0.18614 0.0
H204 H 0.0643 0.90146 0.17392 0.0
H205 H 0.97157 0.70568 0.15114 0.0
H206 H 0.15706 0.81566 0.17516 0.0
H207 H 0.92897 0.58489 0.18455 0.0
H208 H 0.95306 0.56443 0.16224 0.0
H209 H 0.90978 0.60289 0.1597 0.0
H210 H 0.20813 0.77575 0.19413 0.0
H211 H 0.17648 0.69436 0.19238 0.0
H212 H 0.15753 0.7271 0.21286 0.0
H213 H 0.02012 0.54975 0.30649 0.0
H214 H 0.03888 0.42636 0.2553 0.0
H215 H 0.05352 0.43418 0.21958 0.0
H216 H 0.07103 0.57689 0.16859 0.0
H217 H 0.03 0.68824 0.21849 0.0
H218 H 0.01787 0.68178 0.25451 0.0
H219 H 0.08615 0.22161 0.18405 0.0
H220 H 0.10263 0.28953 0.19803 0.0
H221 H 0.15983 0.29086 0.18271 0.0
C222 C 0.4112 0.17276 0.70922 0.0
C223 C 0.36561 0.15071 0.69066 0.0
C224 C 0.40559 0.10205 0.66859 0.0
C225 C 0.45478 0.15623 0.66166 0.0
C226 C 0.49484 0.15465 0.64799 0.0
C227 C 0.48643 0.09789 0.64139 0.0
C228 C 0.43849 0.0434 0.64893 0.0
C229 C 0.39832 0.04626 0.66225 0.0
C230 C 0.54558 0.21373 0.64033 0.0
C231 C 0.4289 0.98205 0.64261 0.0
C232 C 0.95687 0.17504 0.62266 0.0
C233 C 0.89777 0.14177 0.63393 0.0
C234 C 0.81036 0.15902 0.6313 0.0
C235 C 0.76376 0.09838 0.63362 0.0
C236 C 0.70198 0.08111 0.62983 0.0
C237 C 0.68672 0.1254 0.6238 0.0
C238 C 0.73345 0.18696 0.62252 0.0
C239 C 0.79464 0.20289 0.62636 0.0
C240 C 0.65307 0.0153 0.63163 0.0
C241 C 0.71889 0.23561 0.61641 0.0
C242 C 0.66555 0.05789 0.49196 0.0
C243 C 0.61474 0.00285 0.49746 0.0
C244 C 0.57269 0.0027 0.5106 0.0
C245 C 0.58056 0.05872 0.51782 0.0
C246 C 0.62868 0.11414 0.51088 0.0
C247 C 0.67081 0.11292 0.49812 0.0
C248 C 0.52107 0.94271 0.51732 0.0
C249 C 0.63701 0.17472 0.51755 0.0
C250 C 0.14135 0.02192 0.54329 0.0
C251 C 0.18144 0.03946 0.52494 0.0
C252 C 0.26268 0.01327 0.52631 0.0
C253 C 0.27266 0.96569 0.53156 0.0
C254 C 0.33189 0.97623 0.536 0.0
C255 C 0.38239 0.03603 0.53509 0.0
C256 C 0.37305 0.08392 0.52873 0.0
C257 C 0.3133 0.07202 0.52422 0.0
C258 C 0.34042 0.92385 0.54228 0.0
C259 C 0.42617 0.14796 0.52717 0.0
C260 C 0.52514 0.09545 0.62556 0.0
C261 C 0.58392 0.10704 0.63145 0.0
C262 C 0.62281 0.10703 0.61708 0.0
C263 C 0.60226 0.09369 0.59632 0.0
C264 C 0.63961 0.09174 0.58156 0.0
C265 C 0.61955 0.07983 0.56113 0.0
C266 C 0.56164 0.07017 0.55458 0.0
C267 C 0.54137 0.05945 0.53374 0.0
C268 C 0.48309 0.04892 0.52781 0.0
C269 C 0.44434 0.04912 0.54218 0.0
C270 C 0.46423 0.06089 0.563 0.0
C271 C 0.42686 0.06283 0.57775 0.0
C272 C 0.44671 0.07428 0.5982 0.0
C273 C 0.5046 0.08389 0.60477 0.0
C274 C 0.54318 0.08263 0.59014 0.0
C275 C 0.52299 0.07117 0.56923 0.0
C276 C 0.73961 0.99396 0.49878 0.0
C277 C 0.72416 0.01396 0.47833 0.0
O278 O 0.36415 0.10118 0.68123 0.0
O279 O 0.20379 4e-05 0.52325 0.0
O280 O 0.71116 0.06018 0.48124 0.0
O281 O 0.87083 0.17754 0.63363 0.0
H282 H 0.37944 0.18829 0.67976 0.0
H283 H 0.4578 0.18668 0.70452 0.0
H284 H 0.39764 0.13587 0.72037 0.0
H285 H 0.41308 0.21278 0.71676 0.0
H286 H 0.46211 0.20004 0.66657 0.0
H287 H 0.36073 0.00469 0.66776 0.0
H288 H 0.59043 0.21957 0.64569 0.0
H289 H 0.54326 0.25386 0.6457 0.0
H290 H 0.54353 0.21261 0.62341 0.0
H291 H 0.3955 0.94492 0.65201 0.0
H292 H 0.47296 0.98254 0.64386 0.0
H293 H 0.41154 0.97182 0.62644 0.0
H294 H 0.86782 0.09779 0.62549 0.0
H295 H 0.97894 0.14695 0.62184 0.0
H296 H 0.98944 0.21931 0.63048 0.0
H297 H 0.94651 0.18394 0.60685 0.0
H298 H 0.77521 0.06438 0.63824 0.0
H299 H 0.83086 0.24971 0.62496 0.0
H300 H 0.61815 0.01184 0.64196 0.0
H301 H 0.67194 0.98686 0.63751 0.0
H302 H 0.62959 0.99668 0.61646 0.0
H303 H 0.76 0.28195 0.61748 0.0
H304 H 0.68408 0.2345 0.62628 0.0
H305 H 0.6992 0.22655 0.60048 0.0
H306 H 0.68399 0.97439 0.47038 0.0
H307 H 0.60852 0.95988 0.49201 0.0
H308 H 0.70933 0.15518 0.49342 0.0
H309 H 0.5229 0.94112 0.5342 0.0
H310 H 0.52272 0.90313 0.511 0.0
H311 H 0.47659 0.9384 0.51233 0.0
H312 H 0.67007 0.21257 0.5083 0.0
H313 H 0.65431 0.18448 0.53374 0.0
H314 H 0.59254 0.17342 0.5164 0.0
H315 H 0.2184 0.0871 0.52835 0.0
H316 H 0.11894 0.04968 0.54411 0.0
H317 H 0.17029 0.03061 0.55753 0.0
H318 H 0.10609 0.97274 0.5425 0.0
H319 H 0.23352 0.92029 0.53268 0.0
H320 H 0.30699 0.10887 0.51906 0.0
H321 H 0.35769 0.93067 0.55846 0.0
H322 H 0.37513 0.92241 0.533 0.0
H323 H 0.29715 0.87931 0.54054 0.0
H324 H 0.41146 0.18008 0.52164 0.0
H325 H 0.4592 0.14824 0.51664 0.0
H326 H 0.45058 0.16455 0.54234 0.0
H327 H 0.60002 0.11738 0.64733 0.0
H328 H 0.68481 0.09926 0.58562 0.0
H329 H 0.6503 0.07863 0.55054 0.0
H330 H 0.46762 0.04027 0.51185 0.0
H331 H 0.38184 0.05575 0.57366 0.0
H332 H 0.41598 0.07556 0.60877 0.0
H333 H 0.75408 0.96006 0.49614 0.0
H334 H 0.69947 0.97216 0.50829 0.0
H335 H 0.77717 0.03375 0.5075 0.0
C336 C 0.71536 0.71619 0.74521 0.0
C337 C 0.72242 0.75096 0.7651 0.0
C338 C 0.69191 0.69312 0.7965 0.0
C339 C 0.65524 0.71495 0.8039 0.0
C340 C 0.61491 0.68462 0.81933 0.0
C341 C 0.61205 0.63215 0.82777 0.0
C342 C 0.65028 0.61121 0.82078 0.0
C343 C 0.68999 0.64228 0.80531 0.0
C344 C 0.57563 0.70879 0.82674 0.0
C345 C 0.64904 0.55594 0.82965 0.0
C346 C 0.1421 0.26877 0.86216 0.0
C347 C 0.19064 0.28153 0.84693 0.0
C348 C 0.28 0.38381 0.84262 0.0
C349 C 0.32474 0.36691 0.8416 0.0
C350 C 0.38729 0.41107 0.8437 0.0
C351 C 0.40517 0.47309 0.84663 0.0
C352 C 0.36022 0.49043 0.84606 0.0
C353 C 0.29821 0.44546 0.844 0.0
C354 C 0.43424 0.39136 0.84377 0.0
C355 C 0.37758 0.55625 0.8487 0.0
C356 C 0.41716 0.44992 0.97883 0.0
C357 C 0.46767 0.44539 0.97336 0.0
C358 C 0.51029 0.48754 0.96039 0.0
C359 C 0.50287 0.53573 0.95301 0.0
C360 C 0.45475 0.54305 0.95969 0.0
C361 C 0.41242 0.49988 0.97254 0.0
C362 C 0.56189 0.47917 0.95387 0.0
C363 C 0.44648 0.59484 0.95249 0.0
C364 C 0.88369 0.96895 0.94337 0.0
C365 C 0.86003 0.93217 0.9627 0.0
C366 C 0.79933 0.82467 0.95121 0.0
C367 C 0.79759 0.76892 0.95103 0.0
C368 C 0.74597 0.71571 0.94301 0.0
C369 C 0.69461 0.71846 0.9351 0.0
C370 C 0.69622 0.77483 0.93495 0.0
C371 C 0.74874 0.82745 0.94279 0.0
C372 C 0.746 0.65646 0.94321 0.0
C373 C 0.64199 0.77936 0.92679 0.0
C374 C 0.56983 0.59953 0.84414 0.0
C375 C 0.51062 0.55223 0.83848 0.0
C376 C 0.46936 0.51867 0.85319 0.0
C377 C 0.48788 0.53131 0.87409 0.0
C378 C 0.44849 0.4964 0.88924 0.0
C379 C 0.46645 0.50977 0.90975 0.0
C380 C 0.52391 0.55958 0.91598 0.0
C381 C 0.54185 0.57452 0.93684 0.0
C382 C 0.59805 0.62586 0.94253 0.0
C383 C 0.63798 0.66212 0.92788 0.0
C384 C 0.62222 0.64611 0.90695 0.0
C385 C 0.66256 0.67965 0.89185 0.0
C386 C 0.64594 0.66404 0.87128 0.0
C387 C 0.58795 0.61492 0.86501 0.0
C388 C 0.54685 0.58036 0.88001 0.0
C389 C 0.56442 0.59529 0.90099 0.0
C390 C 0.33954 0.31082 0.97218 0.0
C391 C 0.35882 0.34734 0.99249 0.0
O392 O 0.73052 0.7203 0.78128 0.0
O393 O 0.85038 0.87404 0.95969 0.0
O394 O 0.37129 0.40645 0.98954 0.0
O395 O 0.21908 0.34279 0.84237 0.0
H396 H 0.67925 0.75192 0.76595 0.0
H397 H 0.67375 0.67029 0.7453 0.0
H398 H 0.75541 0.71036 0.74335 0.0
H399 H 0.71036 0.7408 0.73197 0.0
H400 H 0.65854 0.75608 0.79794 0.0
H401 H 0.7192 0.62639 0.79977 0.0
H402 H 0.52664 0.67294 0.8248 0.0
H403 H 0.58258 0.74969 0.81846 0.0
H404 H 0.58628 0.72079 0.84324 0.0
H405 H 0.68155 0.54537 0.82252 0.0
H406 H 0.6022 0.51582 0.82752 0.0
H407 H 0.66077 0.56354 0.84629 0.0
H408 H 0.22344 0.27005 0.85458 0.0
H409 H 0.11909 0.22055 0.8668 0.0
H410 H 0.10723 0.27872 0.85546 0.0
H411 H 0.16398 0.29818 0.87605 0.0
H412 H 0.31131 0.31954 0.83942 0.0
H413 H 0.26337 0.45815 0.84425 0.0
H414 H 0.45716 0.39956 0.85921 0.0
H415 H 0.46995 0.41893 0.83301 0.0
H416 H 0.41358 0.34236 0.83951 0.0
H417 H 0.33788 0.5629 0.84574 0.0
H418 H 0.41375 0.58495 0.83823 0.0
H419 H 0.39648 0.57237 0.86451 0.0
H420 H 0.4003 0.34851 -0.00058 0.0
H421 H 0.47334 0.40823 0.97865 0.0
H422 H 0.37399 0.50369 0.97712 0.0
H423 H 0.55746 0.47099 0.93713 0.0
H424 H 0.56248 0.44042 0.96144 0.0
H425 H 0.60638 0.52132 0.95749 0.0
H426 H 0.41106 0.59809 0.96078 0.0
H427 H 0.43269 0.58808 0.93598 0.0
H428 H 0.4904 0.63865 0.95451 0.0
H429 H 0.81655 0.93044 0.96592 0.0
H430 H 0.89834 0.01742 0.94629 0.0
H431 H 0.84686 0.95087 0.93107 0.0
H432 H 0.92258 0.96577 0.93776 0.0
H433 H 0.83687 0.76714 0.95739 0.0
H434 H 0.74934 0.87018 0.94232 0.0
H435 H 0.73101 0.63355 0.92793 0.0
H436 H 0.71294 0.62562 0.95416 0.0
H437 H 0.79182 0.66314 0.94768 0.0
H438 H 0.64872 0.82561 0.92918 0.0
H439 H 0.60012 0.74597 0.9343 0.0
H440 H 0.63407 0.76804 0.91022 0.0
H441 H 0.49631 0.54186 0.82247 0.0
H442 H 0.40333 0.458 0.88545 0.0
H443 H 0.4342 0.48098 0.92066 0.0
H444 H 0.61077 0.63787 0.95857 0.0
H445 H 0.7075 0.71825 0.89579 0.0
H446 H 0.67884 0.69148 0.86033 0.0
H447 H 0.29971 0.31136 0.96459 0.0
H448 H 0.32694 0.26282 0.97481 0.0
H449 H 0.3774 0.33003 0.96168 0.0
C450 C 0.12114 0.21817 0.12181 0.0
C451 C 0.07298 0.20508 0.10744 0.0
H452 H 0.16411 0.2572 0.15094 0.0
C453 C 0.0297 0.22161 0.11207 0.0
H454 H 0.15576 0.20688 0.11854 0.0
C455 C 0.03356 0.24913 0.13088 0.0
C456 C 0.08082 0.26097 0.14548 0.0
H457 H 0.99216 0.21241 0.1013 0.0
H458 H 0.99931 0.261 0.13407 0.0
C459 C 0.12566 0.24678 0.14048 0.0
C460 C 0.88443 0.11248 0.45962 0.0
C461 C 0.88906 0.07175 0.44637 0.0
H462 H 0.82906 0.12629 0.48 0.0
C463 C 0.83687 0.01437 0.44194 0.0
H464 H 0.92356 0.15703 0.46342 0.0
C465 C 0.78246 0.99695 0.45143 0.0
C466 C 0.77885 0.0367 0.46536 0.0
H467 H 0.8387 0.98175 0.43187 0.0
H468 H 0.7439 0.95142 0.44852 0.0
C469 C 0.83013 0.09504 0.46907 0.0
C470 C 0.88527 0.88558 0.76167 0.0
C471 C 0.87561 0.93536 0.76134 0.0
H472 H 0.84493 0.78877 0.76358 0.0
C473 C 0.81595 0.92446 0.76337 0.0
H474 H 0.93065 0.89231 0.76034 0.0
C475 C 0.7669 0.86516 0.76497 0.0
C476 C 0.77635 0.81536 0.7648 0.0
H477 H 0.80672 0.96163 0.76321 0.0
H478 H 0.72133 0.85817 0.76602 0.0
C479 C 0.83624 0.82629 0.76353 0.0
C480 C 0.04099 0.93412 0.11291 0.0
C481 C 0.09323 0.97841 0.10355 0.0
H482 H 0.00562 0.86654 0.13584 0.0
C483 C 0.15066 0.98659 0.10989 0.0
H484 H 0.99616 0.927 0.10844 0.0
C485 C 0.15596 0.95199 0.12545 0.0
C486 C 0.10395 0.90799 0.13495 0.0
H487 H 0.19184 0.02047 0.10304 0.0
H488 H 0.20102 0.96028 0.13029 0.0
C489 C 0.04634 0.89941 0.12854 0.0
C490 C 0.15717 0.07282 0.46992 0.0
C491 C 0.09338 0.0435 0.4673 0.0
H492 H 0.23421 0.09496 0.49036 0.0
C493 C 0.05741 0.00805 0.48292 0.0
H494 H 0.18565 0.09786 0.45762 0.0
C495 C 0.08487 0.00564 0.50155 0.0
C496 C 0.14908 0.03881 0.50484 0.0
H497 H 0.00797 0.98317 0.48084 0.0
H498 H 0.05539 0.97839 0.51328 0.0
C499 C 0.18477 0.07074 0.48856 0.0
C500 C 0.10827 0.14015 0.81176 0.0
C501 C 0.10361 0.16478 0.79316 0.0
H502 H 0.13976 0.15807 0.8432 0.0
C503 C 0.13037 0.22803 0.79176 0.0
H504 H 0.08949 0.09151 0.81299 0.0
C505 C 0.15808 0.266 0.80897 0.0
C506 C 0.16172 0.24151 0.82785 0.0
H507 H 0.12997 0.24818 0.77728 0.0
H508 H 0.17675 0.31445 0.80735 0.0
C509 C 0.13701 0.17816 0.82896 0.0
C510 C 0.94551 0.07641 0.67868 0.0
C511 C 0.94925 0.11361 0.69512 0.0
H512 H 0.92466 0.05543 0.64668 0.0
C513 C 0.93316 0.15837 0.69164 0.0
H514 H 0.9574 0.0414 0.68089 0.0
C515 C 0.91552 0.16704 0.67207 0.0
C516 C 0.91186 0.12996 0.65557 0.0
H517 H 0.93588 0.18807 0.70394 0.0
H518 H 0.90561 0.20341 0.6699 0.0
C519 C 0.92653 0.08423 0.65915 0.0
C520 C 0.91815 0.98636 0.01767 0.0
C521 C 0.98168 0.01627 0.01629 0.0
H522 H 0.83038 0.9375 0.00173 0.0
C523 C 0.00585 0.01502 0.9977 0.0
H524 H 0.89858 0.98412 0.03215 0.0
C525 C 0.96709 0.98775 0.98034 0.0
C526 C 0.90336 0.96152 0.98129 0.0
H527 H 0.05482 0.0359 0.99654 0.0
H528 H 0.98724 0.98768 0.96623 0.0
C529 C 0.87933 0.95947 0.00031 0.0
C530 C 0.1023 0.96648 0.36987 0.0
C531 C 0.04354 0.95038 0.37561 0.0
H532 H 0.15768 0.93856 0.35503 0.0
C533 C 0.99365 0.89359 0.36907 0.0
H534 H 0.14166 0.00989 0.3747 0.0
C535 C 0.00296 0.85242 0.35787 0.0
C536 C 0.06217 0.86795 0.35266 0.0
H537 H 0.94791 0.87976 0.37343 0.0
H538 H 0.96424 0.80774 0.35392 0.0
C539 C 0.11148 0.92577 0.35853 0.0
C540 C 0.20492 0.06168 0.71096 0.0
C541 C 0.19112 0.10817 0.71351 0.0
H542 H 0.27098 0.03836 0.7021 0.0
C543 C 0.23297 0.16724 0.70749 0.0
H544 H 0.17382 0.01585 0.71568 0.0
C545 C 0.28801 0.17991 0.69947 0.0
C546 C 0.3027 0.13393 0.69731 0.0
H547 H 0.22374 0.20409 0.70931 0.0
H548 H 0.32 0.22621 0.69539 0.0
C549 C 0.26052 0.07456 0.70316 0.0
C550 C 0.25765 0.23813 0.03192 0.0
C551 C 0.20449 0.24228 0.02941 0.0
H552 H 0.34779 0.26829 0.02236 0.0
C553 C 0.20444 0.28546 0.01605 0.0
H554 H 0.25948 0.20553 0.04209 0.0
C555 C 0.25532 0.32154 0.00478 0.0
C556 C 0.3076 0.31579 0.00682 0.0
H557 H 0.16428 0.28979 0.01367 0.0
H558 H 0.25302 0.35242 0.99391 0.0
C559 C 0.30847 0.27428 0.0207 0.0
C560 C 0.11703 0.2733 0.38409 0.0
C561 C 0.07304 0.21095 0.38209 0.0
H562 H 0.1628 0.35926 0.36968 0.0
C563 C 0.03955 0.18805 0.36335 0.0
H564 H 0.14389 0.29249 0.39826 0.0
C565 C 0.05 0.22672 0.347 0.0
C566 C 0.0948 0.28883 0.34895 0.0
H567 H 0.00511 0.14033 0.36133 0.0
H568 H 0.02347 0.20801 0.33275 0.0
C569 C 0.12799 0.31166 0.3677 0.0
loop_
_geom_bond_atom_site_label_1
_geom_bond_atom_site_label_2
_geom_bond_distance
_geom_bond_site_symmetry_2
_ccdc_geom_bond_type
Mn0 O5 2.095 . S
Mn0 O15 2.162 . S
Mn0 O16 2.297 1_545 S
Mn0 O24 2.385 1_545 S
Mn0 O25 2.209 1_455 S
Mn0 O26 2.094 . S
Mn1 O6 2.121 . S
Mn1 N8 2.257 1_455 S
Mn1 N17 2.282 1_455 S
Mn1 O25 2.215 1_455 S
Mn1 O27 2.117 . S
C2 O24 1.234 1_655 S
C2 O25 1.283 1_565 S
C3 O15 1.281 1_565 S
C3 O16 1.236 . S
C4 O26 1.240 . S
C4 O27 1.264 . S
O5 Mn0 2.095 . S
O5 C14 1.250 . S
O6 Mn1 2.121 . S
O6 C14 1.258 . S
C7 N8 1.326 . S
C7 C11 1.460 . S
C7 H13 0.929 . S
N8 Mn1 2.257 1_655 S
N8 C7 1.326 . S
N8 C12 1.362 . S
C9 C10 1.258 . S
C9 C12 1.431 . S
C9 C29 1.489 . S
C10 C9 1.258 . S
C10 C11 1.477 . S
C10 H30 0.931 . S
C11 C7 1.460 . S
C11 C10 1.477 . S
C11 H31 0.930 . S
C12 N8 1.362 . S
C12 C9 1.431 . S
C12 C22 1.476 . S
H13 C7 0.929 . S
C14 O5 1.250 . S
C14 O6 1.258 . S
O15 Mn0 2.162 . S
O15 C3 1.281 1_545 S
O16 Mn0 2.297 1_565 S
O16 C3 1.236 . S
N17 Mn1 2.282 1_655 S
N17 C18 1.328 1_655 S
N17 C22 1.318 . S
C18 N17 1.328 1_455 S
C18 C19 1.457 1_454 S
C18 H23 0.929 . S
C19 C18 1.457 1_656 S
C19 C20 1.291 . S
C19 H32 0.930 1_655 S
C20 C19 1.291 . S
C20 C21 1.373 . S
C20 H33 0.929 . S
C21 C20 1.373 . S
C21 C22 1.396 1_556 S
C21 C28 1.403 . S
C22 C12 1.476 . S
C22 N17 1.318 . S
C22 C21 1.396 1_554 S
H23 C18 0.929 . S
O24 Mn0 2.385 1_565 S
O24 C2 1.234 1_455 S
O25 Mn0 2.209 1_655 S
O25 Mn1 2.215 1_655 S
O25 C2 1.283 1_545 S
O26 Mn0 2.094 . S
O26 C4 1.240 . S
O27 Mn1 2.117 . S
O27 C4 1.264 . S
C28 C21 1.403 . S
C28 C29 1.369 1_556 S
C28 H34 0.929 . S
C29 C9 1.489 . S
C29 C28 1.369 1_554 S
C29 H35 0.922 1_554 S
H30 C10 0.931 . S
H31 C11 0.930 . S
H32 C19 0.930 1_455 S
H33 C20 0.929 . S
H34 C28 0.929 . S
H35 C29 0.922 1_556 S
Mn36 O41 2.095 . S
Mn36 O51 2.162 1_445 S
Mn36 O52 2.297 . S
Mn36 O60 2.385 . S
Mn36 O61 2.209 . S
Mn36 O62 2.094 1_455 S
Mn37 O42 2.121 . S
Mn37 N44 2.257 . S
Mn37 N53 2.282 . S
Mn37 O61 2.215 . S
Mn37 O63 2.117 1_455 S
C38 O60 1.234 . S
C38 O61 1.283 . S
C39 O51 1.281 1_455 S
C39 O52 1.236 1_565 S
C40 O62 1.240 . S
C40 O63 1.264 . S
O41 Mn36 2.095 . S
O41 C50 1.250 . S
O42 Mn37 2.121 . S
O42 C50 1.258 . S
C43 N44 1.326 . S
C43 C47 1.460 . S
C43 H49 0.929 . S
N44 Mn37 2.257 . S
N44 C43 1.326 . S
N44 C48 1.362 . S
C45 C46 1.258 . S
C45 C48 1.431 . S
C45 C65 1.449 . S
C46 C45 1.258 . S
C46 C47 1.477 . S
C46 H66 0.931 . S
C47 C43 1.460 . S
C47 C46 1.477 . S
C47 H67 0.930 . S
C48 N44 1.362 . S
C48 C45 1.431 . S
C48 C58 1.476 . S
H49 C43 0.929 . S
C50 O41 1.250 . S
C50 O42 1.258 . S
O51 Mn36 2.162 1_665 S
O51 C39 1.281 1_655 S
O52 Mn36 2.297 . S
O52 C39 1.236 1_545 S
N53 Mn37 2.282 . S
N53 C54 1.328 . S
N53 C58 1.318 . S
C54 N53 1.328 . S
C54 C55 1.457 . S
C54 H59 0.929 . S
C55 C54 1.457 . S
C55 C56 1.291 . S
C55 H68 0.931 . S
C56 C55 1.291 . S
C56 C57 1.373 . S
C56 H69 0.929 . S
C57 C56 1.373 . S
C57 C58 1.396 . S
C57 C64 1.403 . S
C58 C48 1.476 . S
C58 N53 1.318 . S
C58 C57 1.396 . S
H59 C54 0.929 . S
O60 Mn36 2.385 . S
O60 C38 1.234 . S
O61 Mn36 2.209 . S
O61 Mn37 2.215 . S
O61 C38 1.283 . S
O62 Mn36 2.094 1_655 S
O62 C40 1.240 . S
O63 Mn37 2.117 1_655 S
O63 C40 1.264 . S
C64 C57 1.403 . S
C64 C65 1.399 . S
C64 H70 0.929 . S
C65 C45 1.449 . S
C65 C64 1.399 . S
C65 H71 0.930 . S
H66 C46 0.931 . S
H67 C47 0.930 . S
H68 C55 0.931 . S
H69 C56 0.929 . S
H70 C64 0.929 . S
H71 C65 0.930 . S
Mn72 O77 2.095 1_455 S
Mn72 O87 2.162 . S
Mn72 O88 2.297 . S
Mn72 O96 2.385 . S
Mn72 O97 2.209 . S
Mn72 O98 2.094 1_445 S
Mn73 O78 2.121 . S
Mn73 N80 2.257 1_655 S
Mn73 N89 2.282 1_655 S
Mn73 O97 2.215 1_655 S
Mn73 O99 2.117 . S
C74 O96 1.234 . S
C74 O97 1.283 . S
C75 O87 1.281 . S
C75 O88 1.236 . S
C76 O98 1.240 . S
C76 O99 1.264 1_565 S
O77 Mn72 2.095 1_655 S
O77 C86 1.250 . S
O78 Mn73 2.121 . S
O78 C86 1.258 . S
C79 N80 1.326 . S
C79 C83 1.460 . S
C79 H85 0.929 1_455 S
N80 Mn73 2.257 1_455 S
N80 C79 1.326 . S
N80 C84 1.362 . S
C81 C82 1.258 . S
C81 C84 1.431 . S
C81 C101 1.449 . S
C82 C81 1.258 . S
C82 C83 1.477 . S
C82 H102 0.931 . S
C83 C79 1.460 . S
C83 C82 1.477 . S
C83 H103 0.930 . S
C84 N80 1.362 . S
C84 C81 1.431 . S
C84 C94 1.476 . S
H85 C79 0.929 1_655 S
C86 O77 1.250 . S
C86 O78 1.258 . S
O87 Mn72 2.162 . S
O87 C75 1.281 . S
O88 Mn72 2.297 . S
O88 C75 1.236 . S
N89 Mn73 2.282 1_455 S
N89 C90 1.328 . S
N89 C94 1.318 . S
C90 N89 1.328 . S
C90 C91 1.457 . S
C90 H95 0.929 . S
C91 C90 1.457 . S
C91 C92 1.291 . S
C91 H104 0.931 . S
C92 C91 1.291 . S
C92 C93 1.373 . S
C92 H105 0.929 . S
C93 C92 1.373 . S
C93 C94 1.396 . S
C93 C100 1.403 . S
C94 C84 1.476 . S
C94 N89 1.318 . S
C94 C93 1.396 . S
H95 C90 0.929 . S
O96 Mn72 2.385 . S
O96 C74 1.234 . S
O97 Mn72 2.209 . S
O97 Mn73 2.215 1_455 S
O97 C74 1.283 . S
O98 Mn72 2.094 1_665 S
O98 C76 1.240 . S
O99 Mn73 2.117 . S
O99 C76 1.264 1_545 S
C100 C93 1.403 . S
C100 C101 1.399 . S
C100 H106 0.929 . S
C101 C81 1.449 . S
C101 C100 1.399 . S
C101 H107 0.930 . S
H102 C82 0.931 . S
H103 C83 0.930 . S
H104 C91 0.931 . S
H105 C92 0.929 . S
H106 C100 0.929 . S
H107 C101 0.930 . S
C108 C109 1.560 1_655 S
C108 H169 0.959 . S
C108 H170 0.959 . S
C108 H171 0.960 . S
C109 C108 1.560 1_455 S
C109 O164 1.426 1_455 S
C109 H168 0.980 . S
C110 C111 1.407 1_655 S
C110 C115 1.418 . S
C110 O164 1.334 . S
C111 C110 1.407 1_455 S
C111 C112 1.360 . S
C111 H172 0.929 . S
C112 C111 1.360 . S
C112 C113 1.401 . S
C112 C116 1.527 . S
C113 C112 1.401 . S
C113 C114 1.405 1_455 S
C113 C146 1.587 . S
C114 C113 1.405 1_655 S
C114 C115 1.332 . S
C114 C117 1.496 . S
C115 C110 1.418 . S
C115 C114 1.332 . S
C115 H173 0.929 . S
C116 C112 1.527 . S
C116 H174 0.959 . S
C116 H175 0.961 . S
C116 H176 0.961 . S
C117 C114 1.496 . S
C117 H177 0.960 . S
C117 H178 0.960 . S
C117 H179 0.961 . S
C118 C119 1.517 . S
C118 H181 0.961 . S
C118 H182 0.960 . S
C118 H183 0.959 . S
C119 C118 1.517 . S
C119 O167 1.468 . S
C119 H180 0.980 . S
C120 C121 1.349 . S
C120 C125 1.367 . S
C120 O167 1.408 . S
C121 C120 1.349 . S
C121 C122 1.407 . S
C121 H184 0.930 . S
C122 C121 1.407 . S
C122 C123 1.449 . S
C122 C126 1.535 1_455 S
C123 C122 1.449 . S
C123 C124 1.384 . S
C123 C148 1.553 . S
C124 C123 1.384 . S
C124 C125 1.364 . S
C124 C127 1.450 . S
C125 C120 1.367 . S
C125 C124 1.364 . S
C125 H185 0.931 . S
C126 C122 1.535 1_655 S
C126 H186 0.959 . S
C126 H187 0.961 . S
C126 H188 0.959 . S
C127 C124 1.450 . S
C127 H189 0.960 . S
C127 H190 0.960 . S
C127 H191 0.960 . S
C128 C129 1.309 . S
C128 C133 1.304 . S
C128 O166 1.435 . S
C129 C128 1.309 . S
C129 C130 1.476 . S
C129 H193 0.930 . S
C130 C129 1.476 . S
C130 C131 1.400 . S
C130 C134 1.567 1_455 S
C131 C130 1.400 . S
C131 C132 1.373 . S
C131 C153 1.432 . S
C132 C131 1.373 . S
C132 C133 1.339 . S
C132 C135 1.530 . S
C133 C128 1.304 . S
C133 C132 1.339 . S
C133 H194 0.930 . S
C134 C130 1.567 1_655 S
C134 H195 0.961 . S
C134 H196 0.960 . S
C134 H197 0.958 . S
C135 C132 1.530 . S
C135 H198 0.961 . S
C135 H199 0.960 . S
C135 H200 0.960 . S
C136 C137 1.530 1_655 S
C136 H202 0.961 1_655 S
C136 H203 0.961 . S
C136 H204 0.959 . S
C137 C136 1.530 1_455 S
C137 O165 1.412 1_455 S
C137 H201 0.980 . S
C138 C139 1.288 1_455 S
C138 C143 1.377 . S
C138 O165 1.393 1_455 S
C139 C138 1.288 1_655 S
C139 C140 1.369 . S
C139 H205 0.932 . S
C140 C139 1.369 . S
C140 C141 1.398 1_655 S
C140 C144 1.527 . S
C141 C140 1.398 1_455 S
C141 C142 1.380 . S
C141 C155 1.497 . S
C142 C141 1.380 . S
C142 C143 1.383 . S
C142 C145 1.603 . S
C143 C138 1.377 . S
C143 C142 1.383 . S
C143 H206 0.929 . S
C144 C140 1.527 . S
C144 H207 0.961 . S
C144 H208 0.959 . S
C144 H209 0.959 . S
C145 C142 1.603 . S
C145 H210 0.960 . S
C145 H211 0.962 . S
C145 H212 0.961 . S
C146 C113 1.587 . S
C146 C147 1.360 . S
C146 C159 1.412 . S
C147 C146 1.360 . S
C147 C148 1.365 . S
C147 H213 0.929 . S
C148 C123 1.553 . S
C148 C147 1.365 . S
C148 C149 1.404 . S
C149 C148 1.404 . S
C149 C150 1.395 . S
C149 C160 1.451 . S
C150 C149 1.395 . S
C150 C151 1.322 . S
C150 H214 0.930 . S
C151 C150 1.322 . S
C151 C152 1.459 . S
C151 H215 0.929 . S
C152 C151 1.459 . S
C152 C153 1.445 . S
C152 C161 1.395 . S
C153 C131 1.432 . S
C153 C152 1.445 . S
C153 C154 1.370 . S
C154 C153 1.370 . S
C154 C155 1.438 . S
C154 H216 0.930 . S
C155 C141 1.497 . S
C155 C154 1.438 . S
C155 C156 1.360 . S
C156 C155 1.360 . S
C156 C157 1.401 . S
C156 C161 1.446 . S
C157 C156 1.401 . S
C157 C158 1.347 . S
C157 H217 0.929 . S
C158 C157 1.347 . S
C158 C159 1.455 . S
C158 H218 0.930 . S
C159 C146 1.412 . S
C159 C158 1.455 . S
C159 C160 1.331 . S
C160 C149 1.451 . S
C160 C159 1.331 . S
C160 C161 1.497 . S
C161 C152 1.395 . S
C161 C156 1.446 . S
C161 C160 1.497 . S
C162 C163 1.582 . S
C162 H219 0.962 . S
C162 H220 0.959 . S
C162 H221 0.958 . S
C163 C162 1.582 . S
C163 O166 1.458 . S
C163 H192 0.980 . S
O164 C109 1.426 1_655 S
O164 C110 1.334 . S
O165 C137 1.412 1_655 S
O165 C138 1.393 1_655 S
O166 C128 1.435 . S
O166 C163 1.458 . S
O167 C119 1.468 . S
O167 C120 1.408 . S
H168 C109 0.980 . S
H169 C108 0.959 . S
H170 C108 0.959 . S
H171 C108 0.960 . S
H172 C111 0.929 . S
H173 C115 0.929 . S
H174 C116 0.959 . S
H175 C116 0.961 . S
H176 C116 0.961 . S
H177 C117 0.960 . S
H178 C117 0.960 . S
H179 C117 0.961 . S
H180 C119 0.980 . S
H181 C118 0.961 . S
H182 C118 0.960 . S
H183 C118 0.959 . S
H184 C121 0.930 . S
H185 C125 0.931 . S
H186 C126 0.959 . S
H187 C126 0.961 . S
H188 C126 0.959 . S
H189 C127 0.960 . S
H190 C127 0.960 . S
H191 C127 0.960 . S
H192 C163 0.980 . S
H193 C129 0.930 . S
H194 C133 0.930 . S
H195 C134 0.961 . S
H196 C134 0.960 . S
H197 C134 0.958 . S
H198 C135 0.961 . S
H199 C135 0.960 . S
H200 C135 0.960 . S
H201 C137 0.980 . S
H202 C136 0.961 1_455 S
H203 C136 0.961 . S
H204 C136 0.959 . S
H205 C139 0.932 . S
H206 C143 0.929 . S
H207 C144 0.961 . S
H208 C144 0.959 . S
H209 C144 0.959 . S
H210 C145 0.960 . S
H211 C145 0.962 . S
H212 C145 0.961 . S
H213 C147 0.929 . S
H214 C150 0.930 . S
H215 C151 0.929 . S
H216 C154 0.930 . S
H217 C157 0.929 . S
H218 C158 0.930 . S
H219 C162 0.962 . S
H220 C162 0.959 . S
H221 C162 0.958 . S
C222 C223 1.560 . S
C222 H283 0.959 . S
C222 H284 0.959 1_545 S
C222 H285 0.960 . S
C223 C222 1.560 . S
C223 O278 1.426 . S
C223 H282 0.980 . S
C224 C225 1.407 . S
C224 C229 1.418 . S
C224 O278 1.334 . S
C225 C224 1.407 . S
C225 C226 1.360 . S
C225 H286 0.929 . S
C226 C225 1.360 . S
C226 C227 1.401 . S
C226 C230 1.527 . S
C227 C226 1.401 . S
C227 C228 1.405 . S
C227 C260 1.587 . S
C228 C227 1.405 . S
C228 C229 1.332 . S
C228 C231 1.496 1_545 S
C229 C224 1.418 . S
C229 C228 1.332 . S
C229 H287 0.929 1_545 S
C230 C226 1.527 . S
C230 H288 0.959 . S
C230 H289 0.961 . S
C230 H290 0.961 . S
C231 C228 1.496 1_565 S
C231 H291 0.960 . S
C231 H292 0.960 1_565 S
C231 H293 0.961 1_565 S
C232 C233 1.517 . S
C232 H295 0.961 . S
C232 H296 0.960 . S
C232 H297 0.959 . S
C233 C232 1.517 . S
C233 O281 1.468 . S
C233 H294 0.980 . S
C234 C235 1.349 . S
C234 C239 1.367 . S
C234 O281 1.408 . S
C235 C234 1.349 . S
C235 C236 1.407 . S
C235 H298 0.930 . S
C236 C235 1.407 . S
C236 C237 1.449 . S
C236 C240 1.535 . S
C237 C236 1.449 . S
C237 C238 1.384 . S
C237 C262 1.553 . S
C238 C237 1.384 . S
C238 C239 1.364 . S
C238 C241 1.450 . S
C239 C234 1.367 . S
C239 C238 1.364 . S
C239 H299 0.931 . S
C240 C236 1.535 . S
C240 H300 0.959 . S
C240 H301 0.961 . S
C240 H302 0.959 . S
C241 C238 1.450 . S
C241 H303 0.960 . S
C241 H304 0.960 . S
C241 H305 0.960 . S
C242 C243 1.309 . S
C242 C247 1.304 . S
C242 O280 1.435 . S
C243 C242 1.309 . S
C243 C244 1.476 . S
C243 H307 0.930 . S
C244 C243 1.476 . S
C244 C245 1.400 . S
C244 C248 1.567 . S
C245 C244 1.400 . S
C245 C246 1.373 . S
C245 C267 1.432 . S
C246 C245 1.373 . S
C246 C247 1.339 . S
C246 C249 1.530 . S
C247 C242 1.304 . S
C247 C246 1.339 . S
C247 H308 0.930 . S
C248 C244 1.567 . S
C248 H309 0.961 . S
C248 H310 0.960 . S
C248 H311 0.958 . S
C249 C246 1.530 . S
C249 H312 0.961 . S
C249 H313 0.960 . S
C249 H314 0.960 . S
C250 C251 1.530 . S
C250 H316 0.961 . S
C250 H317 0.961 . S
C250 H318 0.959 . S
C251 C250 1.530 . S
C251 O279 1.412 . S
C251 H315 0.980 . S
C252 C253 1.288 . S
C252 C257 1.377 . S
C252 O279 1.393 . S
C253 C252 1.288 . S
C253 C254 1.369 . S
C253 H319 0.932 1_545 S
C254 C253 1.369 . S
C254 C255 1.398 . S
C254 C258 1.527 1_545 S
C255 C254 1.398 . S
C255 C256 1.380 . S
C255 C269 1.497 . S
C256 C255 1.380 . S
C256 C257 1.383 . S
C256 C259 1.603 . S
C257 C252 1.377 . S
C257 C256 1.383 . S
C257 H320 0.929 . S
C258 C254 1.527 1_565 S
C258 H321 0.961 . S
C258 H322 0.959 . S
C258 H323 0.959 . S
C259 C256 1.603 . S
C259 H324 0.960 . S
C259 H325 0.962 . S
C259 H326 0.961 . S
C260 C227 1.587 . S
C260 C261 1.360 . S
C260 C273 1.412 . S
C261 C260 1.360 . S
C261 C262 1.365 . S
C261 H327 0.929 . S
C262 C237 1.553 . S
C262 C261 1.365 . S
C262 C263 1.404 . S
C263 C262 1.404 . S
C263 C264 1.395 . S
C263 C274 1.451 . S
C264 C263 1.395 . S
C264 C265 1.322 . S
C264 H328 0.930 . S
C265 C264 1.322 . S
C265 C266 1.459 . S
C265 H329 0.929 . S
C266 C265 1.459 . S
C266 C267 1.445 . S
C266 C275 1.395 . S
C267 C245 1.432 . S
C267 C266 1.445 . S
C267 C268 1.370 . S
C268 C267 1.370 . S
C268 C269 1.438 . S
C268 H330 0.930 . S
C269 C255 1.497 . S
C269 C268 1.438 . S
C269 C270 1.360 . S
C270 C269 1.360 . S
C270 C271 1.401 . S
C270 C275 1.446 . S
C271 C270 1.401 . S
C271 C272 1.347 . S
C271 H331 0.929 . S
C272 C271 1.347 . S
C272 C273 1.455 . S
C272 H332 0.930 . S
C273 C260 1.412 . S
C273 C272 1.455 . S
C273 C274 1.331 . S
C274 C263 1.451 . S
C274 C273 1.331 . S
C274 C275 1.497 . S
C275 C266 1.395 . S
C275 C270 1.446 . S
C275 C274 1.497 . S
C276 C277 1.582 . S
C276 H333 0.962 . S
C276 H334 0.959 . S
C276 H335 0.958 . S
C277 C276 1.582 . S
C277 O280 1.458 . S
C277 H306 0.980 . S
O278 C223 1.426 . S
O278 C224 1.334 . S
O279 C251 1.412 . S
O279 C252 1.393 . S
O280 C242 1.435 . S
O280 C277 1.458 . S
O281 C233 1.468 . S
O281 C234 1.408 . S
H282 C223 0.980 . S
H283 C222 0.959 . S
H284 C222 0.959 1_565 S
H285 C222 0.960 . S
H286 C225 0.929 . S
H287 C229 0.929 1_565 S
H288 C230 0.959 . S
H289 C230 0.961 . S
H290 C230 0.961 . S
H291 C231 0.960 . S
H292 C231 0.960 1_545 S
H293 C231 0.961 1_545 S
H294 C233 0.980 . S
H295 C232 0.961 . S
H296 C232 0.960 . S
H297 C232 0.959 . S
H298 C235 0.930 . S
H299 C239 0.931 . S
H300 C240 0.959 . S
H301 C240 0.961 . S
H302 C240 0.959 . S
H303 C241 0.960 . S
H304 C241 0.960 . S
H305 C241 0.960 . S
H306 C277 0.980 . S
H307 C243 0.930 . S
H308 C247 0.930 . S
H309 C248 0.961 . S
H310 C248 0.960 . S
H311 C248 0.958 . S
H312 C249 0.961 . S
H313 C249 0.960 . S
H314 C249 0.960 . S
H315 C251 0.980 . S
H316 C250 0.961 . S
H317 C250 0.961 . S
H318 C250 0.959 . S
H319 C253 0.932 1_565 S
H320 C257 0.929 . S
H321 C258 0.961 . S
H322 C258 0.959 . S
H323 C258 0.959 . S
H324 C259 0.960 . S
H325 C259 0.962 . S
H326 C259 0.961 . S
H327 C261 0.929 . S
H328 C264 0.930 . S
H329 C265 0.929 . S
H330 C268 0.930 . S
H331 C271 0.929 . S
H332 C272 0.930 . S
H333 C276 0.962 . S
H334 C276 0.959 . S
H335 C276 0.958 . S
C336 C337 1.560 . S
C336 H397 0.959 . S
C336 H398 0.959 . S
C336 H399 0.960 . S
C337 C336 1.560 . S
C337 O392 1.426 . S
C337 H396 0.980 . S
C338 C339 1.407 . S
C338 C343 1.418 . S
C338 O392 1.334 . S
C339 C338 1.407 . S
C339 C340 1.360 . S
C339 H400 0.929 . S
C340 C339 1.360 . S
C340 C341 1.401 . S
C340 C344 1.527 . S
C341 C340 1.401 . S
C341 C342 1.405 . S
C341 C374 1.587 . S
C342 C341 1.405 . S
C342 C343 1.332 . S
C342 C345 1.496 . S
C343 C338 1.418 . S
C343 C342 1.332 . S
C343 H401 0.929 . S
C344 C340 1.527 . S
C344 H402 0.959 . S
C344 H403 0.961 . S
C344 H404 0.961 . S
C345 C342 1.496 . S
C345 H405 0.960 . S
C345 H406 0.960 . S
C345 H407 0.961 . S
C346 C347 1.517 . S
C346 H409 0.961 . S
C346 H410 0.960 . S
C346 H411 0.959 . S
C347 C346 1.517 . S
C347 O395 1.468 . S
C347 H408 0.980 . S
C348 C349 1.349 . S
C348 C353 1.367 . S
C348 O395 1.408 . S
C349 C348 1.349 . S
C349 C350 1.407 . S
C349 H412 0.930 . S
C350 C349 1.407 . S
C350 C351 1.449 . S
C350 C354 1.535 . S
C351 C350 1.449 . S
C351 C352 1.384 . S
C351 C376 1.553 . S
C352 C351 1.384 . S
C352 C353 1.364 . S
C352 C355 1.450 . S
C353 C348 1.367 . S
C353 C352 1.364 . S
C353 H413 0.931 . S
C354 C350 1.535 . S
C354 H414 0.959 . S
C354 H415 0.961 . S
C354 H416 0.959 . S
C355 C352 1.450 . S
C355 H417 0.960 . S
C355 H418 0.960 . S
C355 H419 0.960 . S
C356 C357 1.309 . S
C356 C361 1.304 . S
C356 O394 1.435 . S
C357 C356 1.309 . S
C357 C358 1.476 . S
C357 H421 0.930 . S
C358 C357 1.476 . S
C358 C359 1.400 . S
C358 C362 1.567 . S
C359 C358 1.400 . S
C359 C360 1.373 . S
C359 C381 1.432 . S
C360 C359 1.373 . S
C360 C361 1.339 . S
C360 C363 1.530 . S
C361 C356 1.304 . S
C361 C360 1.339 . S
C361 H422 0.930 . S
C362 C358 1.567 . S
C362 H423 0.961 . S
C362 H424 0.960 . S
C362 H425 0.958 . S
C363 C360 1.530 . S
C363 H426 0.961 . S
C363 H427 0.960 . S
C363 H428 0.960 . S
C364 C365 1.530 1_554 S
C364 H430 0.961 . S
C364 H431 0.961 1_554 S
C364 H432 0.959 . S
C365 C364 1.530 1_556 S
C365 O393 1.412 . S
C365 H429 0.980 . S
C366 C367 1.288 . S
C366 C371 1.377 . S
C366 O393 1.393 . S
C367 C366 1.288 . S
C367 C368 1.369 . S
C367 H433 0.932 . S
C368 C367 1.369 . S
C368 C369 1.398 . S
C368 C372 1.527 . S
C369 C368 1.398 . S
C369 C370 1.380 . S
C369 C383 1.497 . S
C370 C369 1.380 . S
C370 C371 1.383 . S
C370 C373 1.603 . S
C371 C366 1.377 . S
C371 C370 1.383 . S
C371 H434 0.929 . S
C372 C368 1.527 . S
C372 H435 0.961 . S
C372 H436 0.959 . S
C372 H437 0.959 . S
C373 C370 1.603 . S
C373 H438 0.960 . S
C373 H439 0.962 . S
C373 H440 0.961 . S
C374 C341 1.587 . S
C374 C375 1.360 . S
C374 C387 1.412 . S
C375 C374 1.360 . S
C375 C376 1.365 . S
C375 H441 0.929 . S
C376 C351 1.553 . S
C376 C375 1.365 . S
C376 C377 1.404 . S
C377 C376 1.404 . S
C377 C378 1.395 . S
C377 C388 1.451 . S
C378 C377 1.395 . S
C378 C379 1.322 . S
C378 H442 0.930 . S
C379 C378 1.322 . S
C379 C380 1.459 . S
C379 H443 0.929 . S
C380 C379 1.459 . S
C380 C381 1.445 . S
C380 C389 1.395 . S
C381 C359 1.432 . S
C381 C380 1.445 . S
C381 C382 1.370 . S
C382 C381 1.370 . S
C382 C383 1.438 . S
C382 H444 0.930 . S
C383 C369 1.497 . S
C383 C382 1.438 . S
C383 C384 1.360 . S
C384 C383 1.360 . S
C384 C385 1.401 . S
C384 C389 1.446 . S
C385 C384 1.401 . S
C385 C386 1.347 . S
C385 H445 0.929 . S
C386 C385 1.347 . S
C386 C387 1.455 . S
C386 H446 0.930 . S
C387 C374 1.412 . S
C387 C386 1.455 . S
C387 C388 1.331 . S
C388 C377 1.451 . S
C388 C387 1.331 . S
C388 C389 1.497 . S
C389 C380 1.395 . S
C389 C384 1.446 . S
C389 C388 1.497 . S
C390 C391 1.576 1_554 S
C390 H447 0.969 . S
C390 H448 0.953 1_554 S
C390 H449 0.963 . S
C391 C390 1.576 1_556 S
C391 O394 1.458 . S
C391 H420 0.980 . S
O392 C337 1.426 . S
O392 C338 1.334 . S
O393 C365 1.412 . S
O393 C366 1.393 . S
O394 C356 1.435 . S
O394 C391 1.458 . S
O395 C347 1.468 . S
O395 C348 1.408 . S
H396 C337 0.980 . S
H397 C336 0.959 . S
H398 C336 0.959 . S
H399 C336 0.960 . S
H400 C339 0.929 . S
H401 C343 0.929 . S
H402 C344 0.959 . S
H403 C344 0.961 . S
H404 C344 0.961 . S
H405 C345 0.960 . S
H406 C345 0.960 . S
H407 C345 0.961 . S
H408 C347 0.980 . S
H409 C346 0.961 . S
H410 C346 0.960 . S
H411 C346 0.959 . S
H412 C349 0.930 . S
H413 C353 0.931 . S
H414 C354 0.959 . S
H415 C354 0.961 . S
H416 C354 0.959 . S
H417 C355 0.960 . S
H418 C355 0.960 . S
H419 C355 0.960 . S
H420 C391 0.980 . S
H421 C357 0.930 . S
H422 C361 0.930 . S
H423 C362 0.961 . S
H424 C362 0.960 . S
H425 C362 0.958 . S
H426 C363 0.961 . S
H427 C363 0.960 . S
H428 C363 0.960 . S
H429 C365 0.980 . S
H430 C364 0.961 . S
H431 C364 0.961 1_556 S
H432 C364 0.959 . S
H433 C367 0.932 . S
H434 C371 0.929 . S
H435 C372 0.961 . S
H436 C372 0.959 . S
H437 C372 0.959 . S
H438 C373 0.960 . S
H439 C373 0.962 . S
H440 C373 0.961 . S
H441 C375 0.929 . S
H442 C378 0.930 . S
H443 C379 0.929 . S
H444 C382 0.930 . S
H445 C385 0.929 . S
H446 C386 0.930 . S
H447 C390 0.969 . S
H448 C390 0.953 1_556 S
H449 C390 0.963 . S
C450 C451 1.387 . S
C450 H454 0.950 . S
C450 C459 1.390 . S
C451 C450 1.387 . S
C451 C453 1.387 1_455 S
H452 C459 0.950 . S
C453 C451 1.387 1_655 S
C453 C455 1.390 . S
C453 H457 0.950 . S
H454 C450 0.950 . S
C455 C453 1.390 . S
C455 C456 1.387 1_655 S
C455 H458 0.950 . S
C456 C455 1.387 1_455 S
C456 C459 1.387 . S
H457 C453 0.950 . S
H458 C455 0.950 . S
C459 C450 1.390 . S
C459 H452 0.950 . S
C459 C456 1.387 . S
C460 C461 1.387 . S
C460 H464 0.950 . S
C460 C469 1.390 . S
C461 C460 1.387 . S
C461 C463 1.387 . S
H462 C469 0.950 . S
C463 C461 1.387 . S
C463 C465 1.390 . S
C463 H467 0.950 1_545 S
H464 C460 0.950 . S
C465 C463 1.390 . S
C465 C466 1.387 . S
C465 H468 0.950 1_545 S
C466 C465 1.387 . S
C466 C469 1.387 . S
H467 C463 0.950 1_565 S
H468 C465 0.950 1_565 S
C469 C460 1.390 . S
C469 H462 0.950 . S
C469 C466 1.387 . S
C470 C471 1.387 . S
C470 H474 0.950 . S
C470 C479 1.390 . S
C471 C470 1.387 . S
C471 C473 1.387 . S
H472 C479 0.950 . S
C473 C471 1.387 . S
C473 C475 1.390 . S
C473 H477 0.944 1_565 S
H474 C470 0.950 . S
C475 C473 1.390 . S
C475 C476 1.387 . S
C475 H478 0.950 . S
C476 C475 1.387 . S
C476 C479 1.387 . S
H477 C473 0.944 1_545 S
H478 C475 0.950 . S
C479 C470 1.390 . S
C479 H472 0.950 . S
C479 C476 1.387 . S
C480 C481 1.387 . S
C480 H484 0.950 . S
C480 C489 1.390 . S
C481 C480 1.387 . S
C481 C483 1.387 . S
H482 C489 0.950 . S
C483 C481 1.387 . S
C483 C485 1.390 . S
C483 H487 0.950 . S
H484 C480 0.950 . S
C485 C483 1.390 . S
C485 C486 1.387 . S
C485 H488 0.950 . S
C486 C485 1.387 . S
C486 C489 1.387 . S
H487 C483 0.950 . S
H488 C485 0.950 . S
C489 C480 1.390 . S
C489 H482 0.950 . S
C489 C486 1.387 . S
C490 C491 1.387 . S
C490 H494 0.950 . S
C490 C499 1.390 . S
C491 C490 1.387 . S
C491 C493 1.387 . S
H492 C499 0.950 . S
C493 C491 1.387 . S
C493 C495 1.390 . S
C493 H497 0.950 1_545 S
H494 C490 0.950 . S
C495 C493 1.390 . S
C495 C496 1.387 . S
C495 H498 0.950 . S
C496 C495 1.387 . S
C496 C499 1.387 . S
H497 C493 0.950 1_565 S
H498 C495 0.950 . S
C499 C490 1.390 . S
C499 H492 0.950 . S
C499 C496 1.387 . S
C500 C501 1.387 . S
C500 H504 0.950 . S
C500 C509 1.390 . S
C501 C500 1.387 . S
C501 C503 1.387 . S
H502 C509 0.950 . S
C503 C501 1.387 . S
C503 C505 1.390 . S
C503 H507 0.950 . S
H504 C500 0.950 . S
C505 C503 1.390 . S
C505 C506 1.387 . S
C505 H508 0.950 . S
C506 C505 1.387 . S
C506 C509 1.387 . S
H507 C503 0.950 . S
H508 C505 0.950 . S
C509 C500 1.390 . S
C509 H502 0.950 . S
C509 C506 1.387 . S
C510 C511 1.387 . S
C510 H514 0.950 . S
C510 C519 1.390 . S
C511 C510 1.387 . S
C511 C513 1.387 . S
H512 C519 0.950 . S
C513 C511 1.387 . S
C513 C515 1.390 . S
C513 H517 0.950 . S
H514 C510 0.950 . S
C515 C513 1.390 . S
C515 C516 1.387 . S
C515 H518 0.950 . S
C516 C515 1.387 . S
C516 C519 1.387 . S
H517 C513 0.950 . S
H518 C515 0.950 . S
C519 C510 1.390 . S
C519 H512 0.950 . S
C519 C516 1.387 . S
C520 C521 1.387 . S
C520 H524 0.950 . S
C520 C529 1.390 . S
C521 C520 1.387 . S
C521 C523 1.387 . S
H522 C529 0.950 . S
C523 C521 1.387 . S
C523 C525 1.390 . S
C523 H527 0.950 . S
H524 C520 0.950 . S
C525 C523 1.390 . S
C525 C526 1.387 . S
C525 H528 0.950 . S
C526 C525 1.387 . S
C526 C529 1.387 . S
H527 C523 0.950 . S
H528 C525 0.950 . S
C529 C520 1.390 . S
C529 H522 0.950 . S
C529 C526 1.387 . S
C530 C531 1.387 1_655 S
C530 H534 0.950 . S
C530 C539 1.390 . S
C531 C530 1.387 1_455 S
C531 C533 1.387 . S
H532 C539 0.950 . S
C533 C531 1.387 . S
C533 C535 1.390 . S
C533 H537 0.950 . S
H534 C530 0.950 . S
C535 C533 1.390 . S
C535 C536 1.387 . S
C535 H538 0.950 . S
C536 C535 1.387 . S
C536 C539 1.387 1_455 S
H537 C533 0.950 . S
H538 C535 0.950 . S
C539 C530 1.390 . S
C539 H532 0.950 . S
C539 C536 1.387 1_655 S
C540 C541 1.387 . S
C540 H544 0.950 1_545 S
C540 C549 1.390 . S
C541 C540 1.387 . S
C541 C543 1.387 . S
H542 C549 0.950 1_565 S
C543 C541 1.387 . S
C543 C545 1.390 . S
C543 H547 0.950 . S
H544 C540 0.950 1_565 S
C545 C543 1.390 . S
C545 C546 1.387 . S
C545 H548 0.950 . S
C546 C545 1.387 . S
C546 C549 1.387 . S
H547 C543 0.950 . S
H548 C545 0.950 . S
C549 C540 1.390 . S
C549 H542 0.950 1_545 S
C549 C546 1.387 . S
C550 C551 1.387 . S
C550 H554 0.950 . S
C550 C559 1.390 1_554 S
C551 C550 1.387 . S
C551 C553 1.387 . S
H552 C559 0.950 . S
C553 C551 1.387 . S
C553 C555 1.390 . S
C553 H557 0.950 . S
H554 C550 0.950 . S
C555 C553 1.390 . S
C555 C556 1.387 . S
C555 H558 0.950 . S
C556 C555 1.387 . S
C556 C559 1.387 1_554 S
H557 C553 0.950 . S
H558 C555 0.950 . S
C559 C550 1.390 1_556 S
C559 H552 0.950 . S
C559 C556 1.387 1_556 S
C560 C561 1.387 . S
C560 H564 0.950 . S
C560 C569 1.390 . S
C561 C560 1.387 . S
C561 C563 1.387 . S
H562 C569 0.950 . S
C563 C561 1.387 . S
C563 C565 1.390 . S
C563 H567 0.950 . S
H564 C560 0.950 . S
C565 C563 1.390 . S
C565 C566 1.387 . S
C565 H568 0.950 . S
C566 C565 1.387 . S
C566 C569 1.387 . S
H567 C563 0.950 . S
H568 C565 0.950 . S
C569 C560 1.390 . S
C569 H562 0.950 . S
C569 C566 1.387 . S
C456 C163 1.165 . S
C451 C14 1.533 . S
C461 C40 1.555 . S
C466 C277 1.227 . S
C471 C76 1.341 . S
C476 C337 1.059 . S
C481 C3 1.419 . S
C486 C137 1.120 . S
C496 C251 1.116 . S
C491 C38 1.481 . S
C501 C74 1.485 . S
C506 C347 0.914 . S
C516 C233 0.927 . S
C511 C86 1.463 . S
C521 C2 1.446 . S
C526 C365 1.108 1_554 S
C536 C109 1.071 . S
C531 C39 1.332 . S
C546 C223 1.044 . S
C541 C75 1.351 . S
C556 C391 1.189 1_554 S
C551 C4 1.536 . S
C561 C50 1.477 . S
C566 C119 0.864 . S
