# Generated by pormake.
# Topology rtl, (3,6)-cn, num edge types: 1
# Building blocks:
#     Node 0, Type 0, BuildingBlock: CUQRIR_clean_linker_1, # of connection points: 3
#     Node 1, Type 0, BuildingBlock: CUQRIR_clean_linker_1, # of connection points: 3
#     Node 2, Type 0, BuildingBlock: CUQRIR_clean_linker_1, # of connection points: 3
#     Node 3, Type 0, BuildingBlock: CUQRIR_clean_linker_1, # of connection points: 3
#     Node 4, Type 1, BuildingBlock: KUMBOL_clean_sbu_1, # of connection points: 6
#     Node 5, Type 1, BuildingBlock: KUMBOL_clean_sbu_1, # of connection points: 6
#     Edge 6, Type (0, 1), BuildingBlock: KIFKEQ_clean_linker_1, # of connection points: 2
#     Edge 7, Type (0, 1), BuildingBlock: KIFKEQ_clean_linker_1, # of connection points: 2
#     Edge 8, Type (0, 1), BuildingBlock: KIFKEQ_clean_linker_1, # of connection points: 2
#     Edge 9, Type (0, 1), BuildingBlock: KIFKEQ_clean_linker_1, # of connection points: 2
#     Edge 10, Type (0, 1), BuildingBlock: KIFKEQ_clean_linker_1, # of connection points: 2
#     Edge 11, Type (0, 1), BuildingBlock: KIFKEQ_clean_linker_1, # of connection points: 2
#     Edge 12, Type (0, 1), BuildingBlock: KIFKEQ_clean_linker_1, # of connection points: 2
#     Edge 13, Type (0, 1), BuildingBlock: KIFKEQ_clean_linker_1, # of connection points: 2
#     Edge 14, Type (0, 1), BuildingBlock: KIFKEQ_clean_linker_1, # of connection points: 2
#     Edge 15, Type (0, 1), BuildingBlock: KIFKEQ_clean_linker_1, # of connection points: 2
#     Edge 16, Type (0, 1), BuildingBlock: KIFKEQ_clean_linker_1, # of connection points: 2
#     Edge 17, Type (0, 1), BuildingBlock: KIFKEQ_clean_linker_1, # of connection points: 2
# Relax obj value: 0.064
# Max RMSD: 0.226
# Mean RMSD: 0.176
data_MOF--net-rtl--node1-KUMBOL_clean_sbu_1--node2-CUQRIR_clean_linker_1--edge1-KIFKEQ_clean_linker_1
_symmetry_space_group_name_H-M    P1
_symmetry_Int_Tables_number       1
_symmetry_cell_setting            triclinic
loop_
_symmetry_equiv_pos_as_xyz
'x, y, z'
_cell_length_a     33.565145
_cell_length_b     33.724722
_cell_length_c     25.215401
_cell_angle_alpha  76.79274
_cell_angle_beta   98.491905
_cell_angle_gamma 91.256704
loop_
_atom_site_label
_atom_site_type_symbol
_atom_site_fract_x
_atom_site_fract_y
_atom_site_fract_z
_atom_type_partial_charge
C0 C 0.24273 0.80743 0.99564 0.0
N1 N 0.21513 0.83142 1.00765 0.0
N2 N 0.26132 0.78233 0.0421 0.0
C3 C 0.24864 0.80564 0.93813 0.0
C4 C 0.24359 0.79154 0.08279 0.0
N5 N 0.21516 0.82117 0.06179 0.0
C6 C 0.25612 0.77376 0.14323 0.0
H7 H 0.22028 0.81337 0.90898 0.0
H8 H 0.25899 0.77492 0.9368 0.0
H9 H 0.27176 0.82808 0.92425 0.0
H10 H 0.28809 0.76351 0.15168 0.0
H11 H 0.23709 0.74707 0.15648 0.0
H12 H 0.25201 0.79638 0.16782 0.0
C13 C 0.72885 0.72864 0.706 0.0
N14 N 0.70247 0.69931 0.6956 0.0
N15 N 0.75006 0.74142 0.66353 0.0
C16 C 0.7361 0.74259 0.7591 0.0
C17 C 0.73566 0.71884 0.62706 0.0
N18 N 0.70725 0.6929 0.64686 0.0
C19 C 0.7469 0.72448 0.57014 0.0
H20 H 0.71478 0.76786 0.75656 0.0
H21 H 0.76726 0.75384 0.76666 0.0
H22 H 0.73092 0.71748 0.79431 0.0
H23 H 0.77155 0.70272 0.57148 0.0
H24 H 0.75743 0.75587 0.55499 0.0
H25 H 0.72094 0.71824 0.54057 0.0
C26 C 0.78228 0.20533 0.1368 0.0
N27 N 0.81027 0.18132 0.12568 0.0
N28 N 0.76395 0.2301 0.08983 0.0
C29 C 0.77566 0.2074 0.19392 0.0
C30 C 0.78224 0.22064 0.04977 0.0
N31 N 0.8107 0.19123 0.07165 0.0
C32 C 0.77032 0.238 0.98911 0.0
H33 H 0.75265 0.18476 0.20763 0.0
H34 H 0.76483 0.23808 0.19466 0.0
H35 H 0.80384 0.20007 0.22354 0.0
H36 H 0.78952 0.26459 0.97595 0.0
H37 H 0.73836 0.24828 0.97984 0.0
H38 H 0.77482 0.21513 0.96506 0.0
C39 C 0.2998 0.28822 0.43093 0.0
N40 N 0.32423 0.31935 0.4397 0.0
N41 N 0.27826 0.27583 0.47308 0.0
C42 C 0.29779 0.26944 0.38194 0.0
C43 C 0.29016 0.30076 0.50742 0.0
N44 N 0.31779 0.32744 0.4869 0.0
C45 C 0.27607 0.29784 0.56214 0.0
H46 H 0.29962 0.2934 0.34406 0.0
H47 H 0.26993 0.25177 0.37611 0.0
H48 H 0.32393 0.24844 0.38831 0.0
H49 H 0.24608 0.28344 0.56312 0.0
H50 H 0.2744 0.32831 0.57131 0.0
H51 H 0.29802 0.27897 0.59491 0.0
C52 C 0.95296 0.13288 0.51546 0.0
C53 C 0.88615 0.11953 0.47181 0.0
C54 C 0.92138 0.10611 0.50915 0.0
C55 C 0.88321 0.15992 0.44081 0.0
C56 C 0.95007 0.17345 0.48445 0.0
C57 C 0.91506 0.1868 0.44713 0.0
N58 N 0.987 0.11884 0.55066 0.0
C59 C 0.01864 0.14399 0.55829 0.0
C60 C 0.9827 0.1993 0.49142 0.0
C61 C 0.01705 0.18454 0.52869 0.0
Gd62 Gd 0.0433 0.9671 0.53773 0.0
Gd63 Gd 0.98754 0.05012 0.59654 0.0
N64 N 0.92568 0.06667 0.53826 0.0
C65 C 0.85493 0.09189 0.46655 0.0
C66 C 0.89446 0.04029 0.53531 0.0
C67 C 0.85894 0.05227 0.49893 0.0
H68 H 0.8962 0.01022 0.56142 0.0
H69 H 0.83451 0.031 0.49622 0.0
H70 H 0.13386 0.01523 0.5413 0.0
H71 H 0.04486 0.13293 0.58788 0.0
H72 H 0.19953 0.00763 0.6001 0.0
H73 H 0.82741 0.101 0.43826 0.0
H74 H 0.85644 0.17067 0.41176 0.0
H75 H 0.9962 0.87917 0.57277 0.0
H76 H 0.98164 0.23069 0.46835 0.0
H77 H 0.04229 0.20437 0.5347 0.0
H78 H 0.19354 0.87714 0.72339 0.0
H79 H 0.91236 0.21783 0.42281 0.0
H80 H 0.07397 0.79881 0.70026 0.0
H81 H 1.00865 0.81264 0.63898 0.0
N82 N 0.05346 0.90253 0.59697 0.0
C83 C 0.09 0.89522 0.62908 0.0
C84 C 0.0246 0.87335 0.59959 0.0
C85 C 0.06868 0.82792 0.67116 0.0
C86 C 0.03171 0.83565 0.63677 0.0
C87 C 0.09839 0.85783 0.6676 0.0
H88 H 0.14265 0.82336 0.732 0.0
N89 N 0.10918 0.9619 0.58741 0.0
C90 C 0.11841 0.92598 0.62474 0.0
C91 C 0.18527 0.94994 0.6504 0.0
C92 C 0.1564 0.91944 0.65807 0.0
C93 C 0.13867 0.98979 0.57619 0.0
C94 C 0.17665 0.98486 0.60842 0.0
O95 O 0.98842 0.06152 0.50457 0.0
O96 O 0.98708 0.99798 0.48559 0.0
O97 O 0.0779 0.97228 0.47 0.0
O98 O 0.04036 0.92016 0.49081 0.0
O99 O 0.96305 0.98573 0.61052 0.0
O100 O 0.97674 0.95704 0.53946 0.0
O101 O 0.03744 0.95502 0.62856 0.0
O102 O 0.04393 0.01841 0.64664 0.0
O103 O 0.95067 0.03828 0.66239 0.0
O104 O 0.98695 0.09223 0.6501 0.0
O105 O 0.06311 0.03325 0.5187 0.0
O106 O 0.05438 0.05654 0.59558 0.0
C107 C 0.97908 0.03719 0.47092 0.0
C108 C 0.9565 0.95841 0.58013 0.0
C109 C 0.04831 0.94314 0.3974 0.0
C110 C 0.05829 0.93413 0.30657 0.0
C111 C 0.99596 0.96415 0.31902 0.0
C112 C 1.01003 0.95989 0.37491 0.0
C113 C 0.01981 0.95137 0.28502 0.0
C114 C 0.07239 0.93026 0.36317 0.0
C115 C 0.06332 0.93936 0.45632 0.0
C116 C 0.16467 0.88247 0.69709 0.0
C117 C 0.13577 0.85175 0.70182 0.0
H118 H 0.21481 0.9461 0.67511 0.0
C119 C 0.04903 0.97881 0.66224 0.0
C120 C 0.07155 0.0588 0.55132 0.0
C121 C 0.97648 0.06276 0.74092 0.0
C122 C 0.96607 0.07125 0.83179 0.0
C123 C 0.02513 0.03467 0.82125 0.0
C124 C 0.01236 0.04134 0.76474 0.0
C125 C 1.0023 0.04957 0.85461 0.0
C126 C 0.95332 0.07761 0.77449 0.0
C127 C 0.96337 0.06998 0.68109 0.0
H128 H 0.9663 0.97709 0.30207 0.0
H129 H 0.99099 0.96942 0.40071 0.0
H130 H 1.00772 0.95424 0.24203 0.0
H131 H 0.10211 0.91756 0.38057 0.0
H132 H 0.05302 0.01821 0.8392 0.0
H133 H 0.03054 0.03008 0.73946 0.0
H134 H 0.01348 0.04474 0.89816 0.0
H135 H 0.92536 0.09383 0.75596 0.0
C136 C 0.63704 0.55615 0.08118 0.0
C137 C 0.62785 0.62677 0.03131 0.0
C138 C 0.61233 0.59053 0.06074 0.0
C139 C 0.66804 0.62772 0.02161 0.0
C140 C 0.67744 0.55708 0.07176 0.0
C141 C 0.69275 0.59299 0.04175 0.0
N142 N 0.6212 0.52151 0.10907 0.0
C143 C 0.64417 0.48708 0.12969 0.0
C144 C 0.70115 0.52171 0.09234 0.0
C145 C 0.68445 0.48661 0.12157 0.0
Gd146 Gd 0.46951 0.48669 1.00801 0.0
Gd147 Gd 0.55301 0.52451 0.11801 0.0
N148 N 0.57317 0.58841 0.06978 0.0
C149 C 0.60259 0.6611 1.01286 0.0
C150 C 0.54928 0.62252 0.05481 0.0
C151 C 0.56334 0.6591 0.02536 0.0
H152 H 0.51973 0.62223 0.06637 0.0
H153 H 0.54402 0.68588 1.01286 0.0
H154 H 0.50183 0.38963 0.06524 0.0
H155 H 0.63148 0.4601 0.15292 0.0
H156 H 0.47536 0.32633 0.11671 0.0
H157 H 0.61336 0.68952 0.99007 0.0
H158 H 0.68038 0.65524 0.99875 0.0
H159 H 0.39228 0.55292 0.97072 0.0
H160 H 0.73233 0.5212 0.08594 0.0
H161 H 0.70259 0.45919 0.13786 0.0
H162 H 0.3373 0.35833 0.11962 0.0
H163 H 0.72369 0.59423 0.0339 0.0
H164 H 0.28868 0.49336 0.03148 0.0
H165 H 0.32056 0.55502 0.98226 0.0
N166 N 0.40102 0.49129 1.01449 0.0
C167 C 0.38395 0.45678 0.04062 0.0
C168 C 0.37878 0.52614 0.99312 0.0
C169 C 0.32018 0.49234 0.02673 0.0
C170 C 0.33809 0.52727 0.99909 0.0
C171 C 0.34308 0.4565 0.04786 0.0
H172 H 0.2952 0.42 0.08249 0.0
N173 N 0.44765 0.42363 0.05601 0.0
C174 C 0.40787 0.42194 0.06185 0.0
C175 C 0.41608 0.35151 0.11108 0.0
C176 C 0.39124 0.386 0.09041 0.0
C177 C 0.47141 0.3895 0.07371 0.0
C178 C 0.4562 0.35316 0.10214 0.0
O179 O 0.56644 0.528 0.03137 0.0
O180 O 0.50557 0.54197 0.97576 0.0
O181 O 0.47793 0.45038 0.94963 0.0
O182 O 0.43148 0.49693 0.92828 0.0
O183 O 0.49092 0.55412 0.09855 0.0
O184 O 0.46714 0.55339 1.0079 0.0
O185 O 0.45578 0.48215 0.09485 0.0
O186 O 0.51722 0.46894 0.14928 0.0
O187 O 0.54025 0.55484 0.18093 0.0
O188 O 0.59288 0.51601 0.19627 0.0
O189 O 0.53181 0.45731 0.02699 0.0
O190 O 0.55535 0.45784 0.11784 0.0
C191 C 0.54499 0.54429 0.9838 0.0
C192 C 0.46619 0.56733 0.05237 0.0
C193 C 0.46226 0.4832 0.85608 0.0
C194 C 0.45518 0.47777 0.76009 0.0
C195 C 0.50399 0.52399 0.79402 0.0
C196 C 0.49253 0.51205 0.84628 0.0
C197 C 0.48549 0.50704 0.75112 0.0
C198 C 0.44369 0.4661 0.81303 0.0
C199 C 0.45047 0.4701 0.91129 0.0
C200 C 0.35052 0.38563 0.0976 0.0
C201 C 0.32652 0.42076 0.0764 0.0
H202 H 0.40445 0.32332 0.13326 0.0
C203 C 0.47775 0.46757 0.14276 0.0
C204 C 0.55642 0.44395 0.07332 0.0
C205 C 0.59665 0.57262 0.23736 0.0
C206 C 0.61566 0.60697 0.31255 0.0
C207 C 0.63958 0.63188 0.22466 0.0
C208 C 0.61918 0.60084 0.20428 0.0
C209 C 0.63772 0.63512 0.27835 0.0
C210 C 0.59528 0.57547 0.29188 0.0
C211 C 0.573 0.54158 0.21439 0.0
H212 H 0.52733 0.54643 0.78678 0.0
H213 H 0.50737 0.52508 0.8791 0.0
H214 H 0.49465 0.51714 0.71083 0.0
H215 H 0.42086 0.44317 0.82114 0.0
H216 H 0.65682 0.65356 0.19871 0.0
H217 H 0.62083 0.59911 0.16265 0.0
H218 H 0.65404 0.65935 0.29347 0.0
H219 H 0.57783 0.55383 0.31767 0.0
H220 H 0.20695 0.27016 0.41077 0.0
H221 H 0.28613 0.20846 0.55484 0.0
H222 H 0.15689 0.21641 0.42849 0.0
H223 H 0.23636 0.1546 0.57325 0.0
H224 H 0.11765 0.09703 0.6227 0.0
H225 H 0.16853 0.14884 0.60195 0.0
H226 H 0.14674 0.14253 0.43094 0.0
H227 H 0.09542 0.091 0.45162 0.0
C228 C 0.21369 0.24462 0.44573 0.0
C229 C 0.25022 0.24293 0.48126 0.0
C230 C 0.18521 0.21396 0.45597 0.0
C231 C 0.19266 0.18131 0.50236 0.0
C232 C 0.22955 0.17958 0.53755 0.0
C233 C 0.25807 0.2101 0.527 0.0
C234 C 0.12362 0.10684 0.58064 0.0
C235 C 0.10243 0.09014 0.53872 0.0
C236 C 0.15299 0.13625 0.56884 0.0
C237 C 0.16171 0.14972 0.51481 0.0
C238 C 0.14046 0.13301 0.47287 0.0
C239 C 0.11128 0.10336 0.48476 0.0
H240 H 0.33053 0.79326 0.99877 0.0
H241 H 0.26068 0.70308 0.09439 0.0
H242 H 0.3806 0.74095 1.00063 0.0
H243 H 0.31115 0.65076 0.09771 0.0
H244 H 0.43403 0.58219 0.13879 0.0
H245 H 0.38476 0.63472 0.13755 0.0
H246 H 0.38206 0.67728 0.96202 0.0
H247 H 0.43149 0.6246 0.96321 0.0
C248 C 0.32608 0.76219 0.02026 0.0
C249 C 0.29191 0.75202 0.04639 0.0
C250 C 0.35456 0.73232 0.02127 0.0
C251 C 0.34964 0.69181 0.04914 0.0
C252 C 0.31584 0.68183 0.07631 0.0
C253 C 0.28711 0.71165 0.07466 0.0
C254 C 0.42302 0.60286 0.09996 0.0
C255 C 0.43653 0.59936 0.05105 0.0
C256 C 0.39463 0.6327 0.09923 0.0
C257 C 0.37962 0.66003 0.04972 0.0
C258 C 0.39338 0.65677 1.00083 0.0
C259 C 0.42143 0.62653 1.00144 0.0
H260 H 0.74463 0.81905 0.67365 0.0
H261 H 0.8242 0.7328 0.63896 0.0
H262 H 0.79459 0.87277 0.6547 0.0
H263 H 0.87398 0.78623 0.61919 0.0
H264 H 0.92701 0.90213 0.52165 0.0
H265 H 0.8776 0.84946 0.5453 0.0
H266 H 0.86449 0.89235 0.69059 0.0
H267 H 0.9142 0.94489 0.66745 0.0
C268 C 0.77311 0.81161 0.66273 0.0
C269 C 0.78069 0.77205 0.65744 0.0
C270 C 0.80159 0.84222 0.65173 0.0
C271 C 0.83801 0.83379 0.63485 0.0
C272 C 0.84591 0.79384 0.63112 0.0
C273 C 0.81761 0.76327 0.64256 0.0
C274 C 0.91377 0.90032 0.55877 0.0
C275 C 0.925 0.92754 0.59292 0.0
C276 C 0.88551 0.87004 0.57237 0.0
C277 C 0.86741 0.86656 0.62005 0.0
C278 C 0.8778 0.89438 0.65348 0.0
C279 C 0.90638 0.92444 0.64019 0.0
H280 H 0.69423 0.21888 0.13184 0.0
H281 H 0.76408 0.30912 0.03627 0.0
H282 H 0.64324 0.2708 0.12785 0.0
H283 H 0.71265 0.36103 0.03077 0.0
H284 H 0.58877 0.42838 0.98727 0.0
H285 H 0.63868 0.37606 0.98968 0.0
H286 H 0.6411 0.33499 0.16536 0.0
H287 H 0.59119 0.38742 0.16303 0.0
C288 C 0.69849 0.24988 0.10991 0.0
C289 C 0.73294 0.26018 0.08445 0.0
C290 C 0.66946 0.27951 0.10764 0.0
C291 C 0.6741 0.31992 0.07915 0.0
C292 C 0.70817 0.33003 0.05261 0.0
C293 C 0.73746 0.30044 0.05554 0.0
C294 C 0.59984 0.40804 0.02636 0.0
C295 C 0.58613 0.41189 0.07499 0.0
C296 C 0.62858 0.37834 0.02775 0.0
C297 C 0.64369 0.3515 0.07767 0.0
C298 C 0.62969 0.3551 0.12625 0.0
C299 C 0.60135 0.38519 0.12497 0.0
H300 H 0.16626 0.78115 0.13084 0.0
H301 H 0.20805 0.90072 0.06175 0.0
H302 H 0.12842 0.80961 0.18949 0.0
H303 H 0.17062 0.92974 0.12077 0.0
H304 H 0.06781 0.97029 0.2001 0.0
H305 H 0.10389 0.94367 0.1383 0.0
H306 H 0.14176 0.83865 0.26913 0.0
H307 H 0.10429 0.86441 0.33016 0.0
C308 C 0.16718 0.81362 0.12839 0.0
C309 C 0.19011 0.83881 0.09233 0.0
C310 C 0.14579 0.82995 0.16209 0.0
C311 C 0.14688 0.87194 0.1605 0.0
C312 C 0.16889 0.89733 0.1229 0.0
C313 C 0.19027 0.88087 0.08909 0.0
C314 C 0.08365 0.94139 0.21561 0.0
C315 C 0.08288 0.91939 0.2701 0.0
C316 C 0.1047 0.92632 0.18028 0.0
C317 C 0.12554 0.88884 0.19851 0.0
C318 C 0.12549 0.86729 0.25335 0.0
C319 C 0.10445 0.88235 0.28867 0.0
H320 H 0.69997 0.61788 0.73086 0.0
H321 H 0.6467 0.73002 0.74243 0.0
H322 H 0.65949 0.57944 0.79819 0.0
H323 H 0.60664 0.69202 0.81071 0.0
H324 H 0.51528 0.60515 0.89572 0.0
H325 H 0.55113 0.64227 0.82208 0.0
H326 H 0.65879 0.57154 0.89792 0.0
H327 H 0.62279 0.53394 0.97043 0.0
C328 C 0.67919 0.63412 0.74755 0.0
C329 C 0.67639 0.67673 0.73193 0.0
C330 C 0.65635 0.6123 0.78639 0.0
C331 C 0.63007 0.63272 0.81012 0.0
C332 C 0.6264 0.67537 0.793 0.0
C333 C 0.64943 0.69715 0.75434 0.0
C334 C 0.54653 0.59744 0.89634 0.0
C335 C 0.56623 0.56667 0.9388 0.0
C336 C 0.56712 0.61884 0.85443 0.0
C337 C 0.60776 0.60975 0.85403 0.0
C338 C 0.62734 0.57889 0.89653 0.0
C339 C 0.60683 0.55762 0.93841 0.0
H340 H 0.78963 0.11622 0.19913 0.0
H341 H 0.89118 0.18497 0.14379 0.0
H342 H 0.8334 0.07749 0.27971 0.0
H343 H 0.9357 0.14582 0.22384 0.0
H344 H 0.9812 0.11534 0.41184 0.0
H345 H 0.94274 0.1456 0.32245 0.0
H346 H 0.88937 0.02889 0.3149 0.0
H347 H 0.92676 0.99899 0.40556 0.0
C348 C 0.82167 0.12207 0.20375 0.0
C349 C 0.83728 0.15337 0.16585 0.0
C350 C 0.84675 0.09996 0.24964 0.0
C351 C 0.88799 0.10886 0.25848 0.0
C352 C 0.90396 0.13865 0.21856 0.0
C353 C 0.87876 0.16068 0.17252 0.0
C354 C 0.96136 0.09612 0.39099 0.0
C355 C 0.95721 0.05473 0.41546 0.0
C356 C 0.93967 0.11334 0.33946 0.0
C357 C 0.91328 0.08956 0.31125 0.0
C358 C 0.90942 0.04803 0.33559 0.0
C359 C 0.93112 0.03081 0.38723 0.0
H360 H 0.39486 0.31855 0.53459 0.0
H361 H 0.2909 0.39727 0.50369 0.0
H362 H 0.42982 0.35849 0.59688 0.0
H363 H 0.32562 0.43825 0.56478 0.0
H364 H 0.37552 0.46012 0.73529 0.0
H365 H 0.34433 0.42759 0.66299 0.0
H366 H 0.45958 0.42256 0.60768 0.0
H367 H 0.49115 0.45351 0.68166 0.0
C368 C 0.3801 0.3452 0.54027 0.0
C369 C 0.34044 0.35505 0.51507 0.0
C370 C 0.39993 0.36809 0.57576 0.0
C371 C 0.38033 0.40133 0.58645 0.0
C372 C 0.34129 0.41238 0.55842 0.0
C373 C 0.32154 0.38936 0.52313 0.0
C374 C 0.39429 0.45184 0.70797 0.0
C375 C 0.43589 0.45928 0.71454 0.0
C376 C 0.37629 0.43371 0.66593 0.0
C377 C 0.39939 0.4226 0.62925 0.0
C378 C 0.44093 0.43045 0.63541 0.0
C379 C 0.45896 0.44858 0.67752 0.0
H380 H 0.62816 0.7006 0.60812 0.0
H381 H 0.734 0.62864 0.61612 0.0
H382 H 0.59342 0.67025 0.53449 0.0
H383 H 0.70009 0.59834 0.54262 0.0
H384 H 0.63379 0.54845 0.4077 0.0
H385 H 0.64558 0.55896 0.50184 0.0
H386 H 0.60906 0.68508 0.43946 0.0
H387 H 0.59711 0.67436 0.34621 0.0
C388 C 0.64323 0.67699 0.5955 0.0
C389 C 0.68354 0.66684 0.6171 0.0
C390 C 0.62366 0.6599 0.55318 0.0
C391 C 0.64419 0.63231 0.53215 0.0
C392 C 0.68323 0.61921 0.558 0.0
C393 C 0.70275 0.6365 0.59997 0.0
C394 C 0.62719 0.57802 0.41457 0.0
C395 C 0.61504 0.61075 0.36982 0.0
C396 C 0.6341 0.5841 0.4683 0.0
C397 C 0.62849 0.6229 0.47813 0.0
C398 C 0.61329 0.65471 0.43358 0.0
C399 C 0.60681 0.64873 0.38003 0.0
H400 H 0.8156 0.11169 0.07141 0.0
H401 H 0.86165 0.22978 1.00467 0.0
H402 H 0.85287 0.08148 1.01354 0.0
H403 H 0.89994 0.20006 0.94769 0.0
H404 H 0.92585 0.14461 0.80858 0.0
H405 H 0.88889 0.17229 0.86826 0.0
H406 H 0.91774 0.06409 0.99763 0.0
H407 H 0.95266 0.03541 0.93681 0.0
C408 C 0.83437 0.13091 0.04489 0.0
C409 C 0.83578 0.1729 0.04193 0.0
C410 C 0.85573 0.11377 1.01177 0.0
C411 C 0.87917 0.13837 0.97534 0.0
C412 C 0.88149 0.1803 0.97412 0.0
C413 C 0.85991 0.19735 1.00694 0.0
C414 C 0.92378 0.1264 0.84941 0.0
C415 C 0.94238 0.08775 0.86774 0.0
C416 C 0.90307 0.14257 0.88406 0.0
C417 C 0.90057 0.12065 0.93813 0.0
C418 C 0.91873 0.08178 0.95622 0.0
C419 C 0.93924 0.06552 0.92146 0.0
H420 H 0.38583 0.28953 0.40228 0.0
H421 H 0.32056 0.39965 0.39457 0.0
H422 H 0.42493 0.32648 0.33213 0.0
H423 H 0.35999 0.43722 0.32518 0.0
H424 H 0.39831 0.47323 0.15256 0.0
H425 H 0.36359 0.43794 0.22772 0.0
H426 H 0.47573 0.38068 0.31476 0.0
H427 H 0.51047 0.41542 0.23873 0.0
C428 C 0.38024 0.32179 0.38572 0.0
C429 C 0.35014 0.34186 0.40309 0.0
C430 C 0.40272 0.34302 0.34598 0.0
C431 C 0.39533 0.38474 0.32274 0.0
C432 C 0.36601 0.40499 0.34169 0.0
C433 C 0.34375 0.38374 0.38166 0.0
C434 C 0.41559 0.453 0.18758 0.0
C435 C 0.45713 0.44694 0.18947 0.0
C436 C 0.39574 0.43309 0.23096 0.0
C437 C 0.41692 0.40662 0.27736 0.0
C438 C 0.45852 0.40067 0.27941 0.0
C439 C 0.47845 0.42077 0.23603 0.0
H440 H 0.23671 0.89625 0.93484 0.0
H441 H 0.13402 0.82958 0.99 0.0
H442 H 0.19371 0.93541 0.85413 0.0
H443 H 0.09005 0.86961 0.91007 0.0
H444 H 0.04247 0.90173 0.72318 0.0
H445 H 0.08039 0.8706 0.81268 0.0
H446 H 0.14065 0.98466 0.81713 0.0
H447 H 0.1041 0.01505 0.72629 0.0
C448 C 0.20456 0.89104 0.93021 0.0
C449 C 0.18846 0.86009 0.96804 0.0
C450 C 0.17986 0.91343 0.8842 0.0
C451 C 0.13842 0.90537 0.87523 0.0
C452 C 0.12195 0.87608 0.91526 0.0
C453 C 0.14683 0.8536 0.96133 0.0
C454 C 0.06391 0.92006 0.74331 0.0
C455 C 0.0705 0.96071 0.71772 0.0
C456 C 0.08523 0.90243 0.79497 0.0
C457 C 0.11345 0.92518 0.82236 0.0
C458 C 0.11942 0.96614 0.79703 0.0
C459 C 0.0983 0.98365 0.74518 0.0
loop_
_geom_bond_atom_site_label_1
_geom_bond_atom_site_label_2
_geom_bond_distance
_geom_bond_site_symmetry_2
_ccdc_geom_bond_type
C0 N1 1.317 . S
C0 N2 1.348 1_556 S
C0 C3 1.485 . S
N1 C0 1.317 . S
N1 N5 1.370 1_556 S
N2 C0 1.348 1_554 S
N2 C4 1.346 . S
C3 C0 1.485 . S
C3 H7 0.960 . S
C3 H8 0.961 . S
C3 H9 0.960 . S
C4 N2 1.346 . S
C4 N5 1.307 . S
C4 C6 1.486 . S
N5 N1 1.370 1_554 S
N5 C4 1.307 . S
C6 C4 1.486 . S
C6 H10 0.960 . S
C6 H11 0.960 . S
C6 H12 0.959 . S
H7 C3 0.960 . S
H8 C3 0.961 . S
H9 C3 0.960 . S
H10 C6 0.960 . S
H11 C6 0.960 . S
H12 C6 0.959 . S
C13 N14 1.317 . S
C13 N15 1.348 . S
C13 C16 1.485 . S
N14 C13 1.317 . S
N14 N18 1.370 . S
N15 C13 1.348 . S
N15 C17 1.346 . S
C16 C13 1.485 . S
C16 H20 0.960 . S
C16 H21 0.961 . S
C16 H22 0.960 . S
C17 N15 1.346 . S
C17 N18 1.307 . S
C17 C19 1.486 . S
N18 N14 1.370 . S
N18 C17 1.307 . S
C19 C17 1.486 . S
C19 H23 0.960 . S
C19 H24 0.960 . S
C19 H25 0.959 . S
H20 C16 0.960 . S
H21 C16 0.961 . S
H22 C16 0.960 . S
H23 C19 0.960 . S
H24 C19 0.960 . S
H25 C19 0.959 . S
C26 N27 1.317 . S
C26 N28 1.348 . S
C26 C29 1.485 . S
N27 C26 1.317 . S
N27 N31 1.370 . S
N28 C26 1.348 . S
N28 C30 1.346 . S
C29 C26 1.485 . S
C29 H33 0.960 . S
C29 H34 0.961 . S
C29 H35 0.960 . S
C30 N28 1.346 . S
C30 N31 1.307 . S
C30 C32 1.486 1_554 S
N31 N27 1.370 . S
N31 C30 1.307 . S
C32 C30 1.486 1_556 S
C32 H36 0.960 . S
C32 H37 0.960 . S
C32 H38 0.959 . S
H33 C29 0.960 . S
H34 C29 0.961 . S
H35 C29 0.960 . S
H36 C32 0.960 . S
H37 C32 0.960 . S
H38 C32 0.959 . S
C39 N40 1.317 . S
C39 N41 1.348 . S
C39 C42 1.485 . S
N40 C39 1.317 . S
N40 N44 1.370 . S
N41 C39 1.348 . S
N41 C43 1.346 . S
C42 C39 1.485 . S
C42 H46 0.960 . S
C42 H47 0.961 . S
C42 H48 0.960 . S
C43 N41 1.346 . S
C43 N44 1.307 . S
C43 C45 1.486 . S
N44 N40 1.370 . S
N44 C43 1.307 . S
C45 C43 1.486 . S
C45 H49 0.960 . S
C45 H50 0.960 . S
C45 H51 0.959 . S
H46 C42 0.960 . S
H47 C42 0.961 . S
H48 C42 0.960 . S
H49 C45 0.960 . S
H50 C45 0.960 . S
H51 C45 0.959 . S
C52 C54 1.422 . S
C52 C56 1.415 . S
C52 N58 1.369 . S
C53 C54 1.421 . S
C53 C55 1.417 . S
C53 C65 1.422 . S
C54 C52 1.422 . S
C54 C53 1.421 . S
C54 N64 1.359 . S
C55 C53 1.417 . S
C55 C57 1.329 . S
C55 H74 0.930 . S
C56 C52 1.415 . S
C56 C57 1.437 . S
C56 C60 1.413 . S
C57 C55 1.329 . S
C57 C56 1.437 . S
C57 H79 0.929 . S
N58 C52 1.369 . S
N58 C59 1.338 1_655 S
N58 Gd63 2.622 . S
C59 N58 1.338 1_455 S
C59 C61 1.378 . S
C59 H71 0.929 . S
C60 C56 1.413 . S
C60 C61 1.348 1_655 S
C60 H76 0.931 . S
C61 C59 1.378 . S
C61 C60 1.348 1_455 S
C61 H77 0.930 . S
Gd62 N82 2.622 . S
Gd62 N89 2.570 . S
Gd62 O96 2.353 1_465 S
Gd62 O97 2.468 . S
Gd62 O98 2.427 . S
Gd62 O100 2.388 1_455 S
Gd62 O101 2.386 . S
Gd62 O105 2.307 1_565 S
Gd62 C115 2.805 . S
Gd63 N58 2.622 . S
Gd63 N64 2.570 . S
Gd63 O95 2.386 . S
Gd63 O99 2.307 1_545 S
Gd63 O102 2.353 1_655 S
Gd63 O103 2.468 . S
Gd63 O104 2.427 . S
Gd63 O106 2.388 1_655 S
Gd63 C127 2.805 . S
N64 C54 1.359 . S
N64 Gd63 2.570 . S
N64 C66 1.343 . S
C65 C53 1.422 . S
C65 C67 1.321 . S
C65 H73 0.931 . S
C66 N64 1.343 . S
C66 C67 1.390 . S
C66 H68 0.931 . S
C67 C65 1.321 . S
C67 C66 1.390 . S
C67 H69 0.930 . S
H68 C66 0.931 . S
H69 C67 0.930 . S
H70 C93 0.931 . S
H71 C59 0.929 . S
H72 C94 0.930 . S
H73 C65 0.931 . S
H74 C55 0.930 . S
H75 C84 0.929 1_655 S
H76 C60 0.931 . S
H77 C61 0.930 . S
H78 C116 0.930 . S
H79 C57 0.929 . S
H80 C85 0.931 . S
H81 C86 0.930 1_655 S
N82 Gd62 2.622 . S
N82 C83 1.369 . S
N82 C84 1.338 . S
C83 N82 1.369 . S
C83 C87 1.415 . S
C83 C90 1.422 . S
C84 H75 0.929 1_455 S
C84 N82 1.338 . S
C84 C86 1.378 . S
C85 H80 0.931 . S
C85 C86 1.348 . S
C85 C87 1.413 . S
C86 H81 0.930 1_455 S
C86 C84 1.378 . S
C86 C85 1.348 . S
C87 C83 1.415 . S
C87 C85 1.413 . S
C87 C117 1.437 . S
H88 C117 0.929 . S
N89 Gd62 2.570 . S
N89 C90 1.359 . S
N89 C93 1.343 . S
C90 C83 1.422 . S
C90 N89 1.359 . S
C90 C92 1.421 . S
C91 C92 1.422 . S
C91 C94 1.321 . S
C91 H118 0.931 . S
C92 C90 1.421 . S
C92 C91 1.422 . S
C92 C116 1.417 . S
C93 H70 0.931 . S
C93 N89 1.343 . S
C93 C94 1.390 . S
C94 H72 0.930 . S
C94 C91 1.321 . S
C94 C93 1.390 . S
O95 Gd63 2.386 . S
O95 C107 1.265 . S
O96 Gd62 2.353 1_645 S
O96 C107 1.242 . S
O97 Gd62 2.468 . S
O97 C115 1.263 . S
O98 Gd62 2.427 . S
O98 C115 1.252 . S
O99 Gd63 2.307 1_565 S
O99 C108 1.261 . S
O100 Gd62 2.388 1_655 S
O100 C108 1.252 . S
O101 Gd62 2.386 . S
O101 C119 1.265 . S
O102 Gd63 2.353 1_455 S
O102 C119 1.242 1_545 S
O103 Gd63 2.468 . S
O103 C127 1.263 . S
O104 Gd63 2.427 . S
O104 C127 1.252 . S
O105 Gd62 2.307 1_545 S
O105 C120 1.261 . S
O106 Gd63 2.388 1_455 S
O106 C120 1.252 . S
C107 O95 1.265 . S
C107 O96 1.242 . S
C108 O99 1.261 . S
C108 O100 1.252 . S
C109 C112 1.394 . S
C109 C114 1.370 . S
C109 C115 1.500 . S
C110 C113 1.383 . S
C110 C114 1.395 . S
C111 C112 1.396 . S
C111 C113 1.365 . S
C111 H128 0.929 . S
C112 C109 1.394 . S
C112 C111 1.396 . S
C112 H129 0.930 . S
C113 C110 1.383 . S
C113 C111 1.365 . S
C113 H130 0.931 . S
C114 C109 1.370 . S
C114 C110 1.395 . S
C114 H131 0.930 . S
C115 Gd62 2.805 . S
C115 O97 1.263 . S
C115 O98 1.252 . S
C115 C109 1.500 . S
C116 H78 0.930 . S
C116 C92 1.417 . S
C116 C117 1.329 . S
C117 C87 1.437 . S
C117 H88 0.929 . S
C117 C116 1.329 . S
H118 C91 0.931 . S
C119 O101 1.265 . S
C119 O102 1.242 1_565 S
C120 O105 1.261 . S
C120 O106 1.252 . S
C121 C124 1.394 . S
C121 C126 1.370 . S
C121 C127 1.500 . S
C122 C125 1.383 . S
C122 C126 1.395 . S
C123 C124 1.396 . S
C123 C125 1.365 . S
C123 H132 0.929 . S
C124 C121 1.394 . S
C124 C123 1.396 . S
C124 H133 0.930 . S
C125 C122 1.383 . S
C125 C123 1.365 . S
C125 H134 0.931 . S
C126 C121 1.370 . S
C126 C122 1.395 . S
C126 H135 0.930 . S
C127 Gd63 2.805 . S
C127 O103 1.263 . S
C127 O104 1.252 . S
C127 C121 1.500 . S
H128 C111 0.929 . S
H129 C112 0.930 . S
H130 C113 0.931 . S
H131 C114 0.930 . S
H132 C123 0.929 . S
H133 C124 0.930 . S
H134 C125 0.931 . S
H135 C126 0.930 . S
C136 C138 1.422 . S
C136 C140 1.415 . S
C136 N142 1.369 . S
C137 C138 1.421 . S
C137 C139 1.417 . S
C137 C149 1.422 . S
C138 C136 1.422 . S
C138 C137 1.421 . S
C138 N148 1.359 . S
C139 C137 1.417 . S
C139 C141 1.329 . S
C139 H158 0.930 . S
C140 C136 1.415 . S
C140 C141 1.437 . S
C140 C144 1.413 . S
C141 C139 1.329 . S
C141 C140 1.437 . S
C141 H163 0.929 . S
N142 C136 1.369 . S
N142 C143 1.338 . S
N142 Gd147 2.622 . S
C143 N142 1.338 . S
C143 C145 1.378 . S
C143 H155 0.929 . S
C144 C140 1.413 . S
C144 C145 1.348 . S
C144 H160 0.931 . S
C145 C143 1.378 . S
C145 C144 1.348 . S
C145 H161 0.930 . S
Gd146 N166 2.622 . S
Gd146 N173 2.570 1_556 S
Gd146 O180 2.353 . S
Gd146 O181 2.468 . S
Gd146 O182 2.427 . S
Gd146 O184 2.388 1_556 S
Gd146 O185 2.386 1_556 S
Gd146 O189 2.307 1_556 S
Gd146 C199 2.805 . S
Gd147 N142 2.622 . S
Gd147 N148 2.570 . S
Gd147 O179 2.386 . S
Gd147 O183 2.307 . S
Gd147 O186 2.353 . S
Gd147 O187 2.468 . S
Gd147 O188 2.427 . S
Gd147 O190 2.388 . S
Gd147 C211 2.805 . S
N148 C138 1.359 . S
N148 Gd147 2.570 . S
N148 C150 1.343 . S
C149 C137 1.422 . S
C149 C151 1.321 . S
C149 H157 0.931 . S
C150 N148 1.343 . S
C150 C151 1.390 . S
C150 H152 0.931 . S
C151 C149 1.321 . S
C151 C150 1.390 . S
C151 H153 0.930 . S
H152 C150 0.931 . S
H153 C151 0.930 . S
H154 C177 0.931 . S
H155 C143 0.929 . S
H156 C178 0.930 . S
H157 C149 0.931 . S
H158 C139 0.930 . S
H159 C168 0.929 . S
H160 C144 0.931 . S
H161 C145 0.930 . S
H162 C200 0.930 . S
H163 C141 0.929 . S
H164 C169 0.931 . S
H165 C170 0.930 . S
N166 Gd146 2.622 . S
N166 C167 1.369 1_556 S
N166 C168 1.338 . S
C167 N166 1.369 1_554 S
C167 C171 1.415 . S
C167 C174 1.422 . S
C168 H159 0.929 . S
C168 N166 1.338 . S
C168 C170 1.378 . S
C169 H164 0.931 . S
C169 C170 1.348 1_554 S
C169 C171 1.413 . S
C170 H165 0.930 . S
C170 C168 1.378 . S
C170 C169 1.348 1_556 S
C171 C167 1.415 . S
C171 C169 1.413 . S
C171 C201 1.437 . S
H172 C201 0.929 . S
N173 Gd146 2.570 1_554 S
N173 C174 1.359 . S
N173 C177 1.343 . S
C174 C167 1.422 . S
C174 N173 1.359 . S
C174 C176 1.421 . S
C175 C176 1.422 . S
C175 C178 1.321 . S
C175 H202 0.931 . S
C176 C174 1.421 . S
C176 C175 1.422 . S
C176 C200 1.417 . S
C177 H154 0.931 . S
C177 N173 1.343 . S
C177 C178 1.390 . S
C178 H156 0.930 . S
C178 C175 1.321 . S
C178 C177 1.390 . S
O179 Gd147 2.386 . S
O179 C191 1.265 1_554 S
O180 Gd146 2.353 . S
O180 C191 1.242 . S
O181 Gd146 2.468 . S
O181 C199 1.263 . S
O182 Gd146 2.427 . S
O182 C199 1.252 . S
O183 Gd147 2.307 . S
O183 C192 1.261 . S
O184 Gd146 2.388 1_554 S
O184 C192 1.252 . S
O185 Gd146 2.386 1_554 S
O185 C203 1.265 . S
O186 Gd147 2.353 . S
O186 C203 1.242 . S
O187 Gd147 2.468 . S
O187 C211 1.263 . S
O188 Gd147 2.427 . S
O188 C211 1.252 . S
O189 Gd146 2.307 1_554 S
O189 C204 1.261 . S
O190 Gd147 2.388 . S
O190 C204 1.252 . S
C191 O179 1.265 1_556 S
C191 O180 1.242 . S
C192 O183 1.261 . S
C192 O184 1.252 . S
C193 C196 1.394 . S
C193 C198 1.370 . S
C193 C199 1.500 . S
C194 C197 1.383 . S
C194 C198 1.395 . S
C195 C196 1.396 . S
C195 C197 1.365 . S
C195 H212 0.929 . S
C196 C193 1.394 . S
C196 C195 1.396 . S
C196 H213 0.930 . S
C197 C194 1.383 . S
C197 C195 1.365 . S
C197 H214 0.931 . S
C198 C193 1.370 . S
C198 C194 1.395 . S
C198 H215 0.930 . S
C199 Gd146 2.805 . S
C199 O181 1.263 . S
C199 O182 1.252 . S
C199 C193 1.500 . S
C200 H162 0.930 . S
C200 C176 1.417 . S
C200 C201 1.329 . S
C201 C171 1.437 . S
C201 H172 0.929 . S
C201 C200 1.329 . S
H202 C175 0.931 . S
C203 O185 1.265 . S
C203 O186 1.242 . S
C204 O189 1.261 . S
C204 O190 1.252 . S
C205 C208 1.394 . S
C205 C210 1.370 . S
C205 C211 1.500 . S
C206 C209 1.383 . S
C206 C210 1.395 . S
C207 C208 1.396 . S
C207 C209 1.365 . S
C207 H216 0.929 . S
C208 C205 1.394 . S
C208 C207 1.396 . S
C208 H217 0.930 . S
C209 C206 1.383 . S
C209 C207 1.365 . S
C209 H218 0.931 . S
C210 C205 1.370 . S
C210 C206 1.395 . S
C210 H219 0.930 . S
C211 Gd147 2.805 . S
C211 O187 1.263 . S
C211 O188 1.252 . S
C211 C205 1.500 . S
H212 C195 0.929 . S
H213 C196 0.930 . S
H214 C197 0.931 . S
H215 C198 0.930 . S
H216 C207 0.929 . S
H217 C208 0.930 . S
H218 C209 0.931 . S
H219 C210 0.930 . S
H220 C228 0.950 . S
H221 C233 0.950 . S
H222 C230 0.950 . S
H223 C232 0.950 . S
H224 C234 0.950 . S
H225 C236 0.950 . S
H226 C238 0.950 . S
H227 C239 0.950 . S
C228 H220 0.950 . S
C228 C229 1.386 . S
C228 C230 1.391 . S
C229 C228 1.386 . S
C229 C233 1.393 . S
C230 H222 0.950 . S
C230 C228 1.391 . S
C230 C231 1.400 . S
C231 C230 1.400 . S
C231 C232 1.398 . S
C231 C237 1.491 . S
C232 H223 0.950 . S
C232 C231 1.398 . S
C232 C233 1.391 . S
C233 H221 0.950 . S
C233 C229 1.393 . S
C233 C232 1.391 . S
C234 H224 0.950 . S
C234 C235 1.386 . S
C234 C236 1.391 . S
C235 C234 1.386 . S
C235 C239 1.393 . S
C236 H225 0.950 . S
C236 C234 1.391 . S
C236 C237 1.400 . S
C237 C231 1.491 . S
C237 C236 1.400 . S
C237 C238 1.398 . S
C238 H226 0.950 . S
C238 C237 1.398 . S
C238 C239 1.391 . S
C239 H227 0.950 . S
C239 C235 1.393 . S
C239 C238 1.391 . S
H240 C248 0.950 . S
H241 C253 0.950 . S
H242 C250 0.950 . S
H243 C252 0.950 . S
H244 C254 0.950 . S
H245 C256 0.950 . S
H246 C258 0.950 . S
H247 C259 0.950 . S
C248 H240 0.950 . S
C248 C249 1.386 . S
C248 C250 1.391 . S
C249 C248 1.386 . S
C249 C253 1.393 . S
C250 H242 0.950 . S
C250 C248 1.391 . S
C250 C251 1.400 . S
C251 C250 1.400 . S
C251 C252 1.398 . S
C251 C257 1.491 . S
C252 H243 0.950 . S
C252 C251 1.398 . S
C252 C253 1.391 . S
C253 H241 0.950 . S
C253 C249 1.393 . S
C253 C252 1.391 . S
C254 H244 0.950 . S
C254 C255 1.386 . S
C254 C256 1.391 . S
C255 C254 1.386 . S
C255 C259 1.393 . S
C256 H245 0.950 . S
C256 C254 1.391 . S
C256 C257 1.400 . S
C257 C251 1.491 . S
C257 C256 1.400 . S
C257 C258 1.398 . S
C258 H246 0.950 . S
C258 C257 1.398 . S
C258 C259 1.391 . S
C259 H247 0.950 . S
C259 C255 1.393 . S
C259 C258 1.391 . S
H260 C268 0.950 . S
H261 C273 0.950 . S
H262 C270 0.950 . S
H263 C272 0.950 . S
H264 C274 0.950 . S
H265 C276 0.950 . S
H266 C278 0.950 . S
H267 C279 0.950 . S
C268 H260 0.950 . S
C268 C269 1.386 . S
C268 C270 1.391 . S
C269 C268 1.386 . S
C269 C273 1.393 . S
C270 H262 0.950 . S
C270 C268 1.391 . S
C270 C271 1.400 . S
C271 C270 1.400 . S
C271 C272 1.398 . S
C271 C277 1.491 . S
C272 H263 0.950 . S
C272 C271 1.398 . S
C272 C273 1.391 . S
C273 H261 0.950 . S
C273 C269 1.393 . S
C273 C272 1.391 . S
C274 H264 0.950 . S
C274 C275 1.386 . S
C274 C276 1.391 . S
C275 C274 1.386 . S
C275 C279 1.393 . S
C276 H265 0.950 . S
C276 C274 1.391 . S
C276 C277 1.400 . S
C277 C271 1.491 . S
C277 C276 1.400 . S
C277 C278 1.398 . S
C278 H266 0.950 . S
C278 C277 1.398 . S
C278 C279 1.391 . S
C279 H267 0.950 . S
C279 C275 1.393 . S
C279 C278 1.391 . S
H280 C288 0.950 . S
H281 C293 0.950 . S
H282 C290 0.950 . S
H283 C292 0.950 . S
H284 C294 0.950 . S
H285 C296 0.950 . S
H286 C298 0.950 . S
H287 C299 0.950 . S
C288 H280 0.950 . S
C288 C289 1.386 . S
C288 C290 1.391 . S
C289 C288 1.386 . S
C289 C293 1.393 . S
C290 H282 0.950 . S
C290 C288 1.391 . S
C290 C291 1.400 . S
C291 C290 1.400 . S
C291 C292 1.398 . S
C291 C297 1.491 . S
C292 H283 0.950 . S
C292 C291 1.398 . S
C292 C293 1.391 . S
C293 H281 0.950 . S
C293 C289 1.393 . S
C293 C292 1.391 . S
C294 H284 0.950 . S
C294 C295 1.386 . S
C294 C296 1.391 . S
C295 C294 1.386 . S
C295 C299 1.393 . S
C296 H285 0.950 . S
C296 C294 1.391 . S
C296 C297 1.400 . S
C297 C291 1.491 . S
C297 C296 1.400 . S
C297 C298 1.398 . S
C298 H286 0.950 . S
C298 C297 1.398 . S
C298 C299 1.391 . S
C299 H287 0.950 . S
C299 C295 1.393 . S
C299 C298 1.391 . S
H300 C308 0.950 . S
H301 C313 0.950 . S
H302 C310 0.950 . S
H303 C312 0.950 . S
H304 C314 0.950 1_545 S
H305 C316 0.950 . S
H306 C318 0.950 . S
H307 C319 0.950 . S
C308 H300 0.950 . S
C308 C309 1.386 . S
C308 C310 1.391 . S
C309 C308 1.386 . S
C309 C313 1.393 . S
C310 H302 0.950 . S
C310 C308 1.391 . S
C310 C311 1.400 . S
C311 C310 1.400 . S
C311 C312 1.398 . S
C311 C317 1.491 . S
C312 H303 0.950 . S
C312 C311 1.398 . S
C312 C313 1.391 . S
C313 H301 0.950 . S
C313 C309 1.393 . S
C313 C312 1.391 . S
C314 H304 0.950 1_565 S
C314 C315 1.386 . S
C314 C316 1.391 . S
C315 C314 1.386 . S
C315 C319 1.393 . S
C316 H305 0.950 . S
C316 C314 1.391 . S
C316 C317 1.400 . S
C317 C311 1.491 . S
C317 C316 1.400 . S
C317 C318 1.398 . S
C318 H306 0.950 . S
C318 C317 1.398 . S
C318 C319 1.391 . S
C319 H307 0.950 . S
C319 C315 1.393 . S
C319 C318 1.391 . S
H320 C328 0.950 . S
H321 C333 0.950 . S
H322 C330 0.950 . S
H323 C332 0.950 . S
H324 C334 0.950 . S
H325 C336 0.950 . S
H326 C338 0.950 . S
H327 C339 0.950 . S
C328 H320 0.950 . S
C328 C329 1.386 . S
C328 C330 1.391 . S
C329 C328 1.386 . S
C329 C333 1.393 . S
C330 H322 0.950 . S
C330 C328 1.391 . S
C330 C331 1.400 . S
C331 C330 1.400 . S
C331 C332 1.398 . S
C331 C337 1.491 . S
C332 H323 0.950 . S
C332 C331 1.398 . S
C332 C333 1.391 . S
C333 H321 0.950 . S
C333 C329 1.393 . S
C333 C332 1.391 . S
C334 H324 0.950 . S
C334 C335 1.386 . S
C334 C336 1.391 . S
C335 C334 1.386 . S
C335 C339 1.393 . S
C336 H325 0.950 . S
C336 C334 1.391 . S
C336 C337 1.400 . S
C337 C331 1.491 . S
C337 C336 1.400 . S
C337 C338 1.398 . S
C338 H326 0.950 . S
C338 C337 1.398 . S
C338 C339 1.391 . S
C339 H327 0.950 . S
C339 C335 1.393 . S
C339 C338 1.391 . S
H340 C348 0.950 . S
H341 C353 0.950 . S
H342 C350 0.950 . S
H343 C352 0.950 . S
H344 C354 0.950 . S
H345 C356 0.950 . S
H346 C358 0.950 . S
H347 C359 0.950 . S
C348 H340 0.950 . S
C348 C349 1.386 . S
C348 C350 1.391 . S
C349 C348 1.386 . S
C349 C353 1.393 . S
C350 H342 0.950 . S
C350 C348 1.391 . S
C350 C351 1.400 . S
C351 C350 1.400 . S
C351 C352 1.398 . S
C351 C357 1.491 . S
C352 H343 0.950 . S
C352 C351 1.398 . S
C352 C353 1.391 . S
C353 H341 0.950 . S
C353 C349 1.393 . S
C353 C352 1.391 . S
C354 H344 0.950 . S
C354 C355 1.386 . S
C354 C356 1.391 . S
C355 C354 1.386 . S
C355 C359 1.393 . S
C356 H345 0.950 . S
C356 C354 1.391 . S
C356 C357 1.400 . S
C357 C351 1.491 . S
C357 C356 1.400 . S
C357 C358 1.398 . S
C358 H346 0.950 . S
C358 C357 1.398 . S
C358 C359 1.391 . S
C359 H347 0.950 . S
C359 C355 1.393 . S
C359 C358 1.391 . S
H360 C368 0.950 . S
H361 C373 0.950 . S
H362 C370 0.950 . S
H363 C372 0.950 . S
H364 C374 0.950 . S
H365 C376 0.950 . S
H366 C378 0.950 . S
H367 C379 0.950 . S
C368 H360 0.950 . S
C368 C369 1.386 . S
C368 C370 1.391 . S
C369 C368 1.386 . S
C369 C373 1.393 . S
C370 H362 0.950 . S
C370 C368 1.391 . S
C370 C371 1.400 . S
C371 C370 1.400 . S
C371 C372 1.398 . S
C371 C377 1.491 . S
C372 H363 0.950 . S
C372 C371 1.398 . S
C372 C373 1.391 . S
C373 H361 0.950 . S
C373 C369 1.393 . S
C373 C372 1.391 . S
C374 H364 0.950 . S
C374 C375 1.386 . S
C374 C376 1.391 . S
C375 C374 1.386 . S
C375 C379 1.393 . S
C376 H365 0.950 . S
C376 C374 1.391 . S
C376 C377 1.400 . S
C377 C371 1.491 . S
C377 C376 1.400 . S
C377 C378 1.398 . S
C378 H366 0.950 . S
C378 C377 1.398 . S
C378 C379 1.391 . S
C379 H367 0.950 . S
C379 C375 1.393 . S
C379 C378 1.391 . S
H380 C388 0.950 . S
H381 C393 0.950 . S
H382 C390 0.950 . S
H383 C392 0.950 . S
H384 C394 0.950 . S
H385 C396 0.950 . S
H386 C398 0.950 . S
H387 C399 0.950 . S
C388 H380 0.950 . S
C388 C389 1.386 . S
C388 C390 1.391 . S
C389 C388 1.386 . S
C389 C393 1.393 . S
C390 H382 0.950 . S
C390 C388 1.391 . S
C390 C391 1.400 . S
C391 C390 1.400 . S
C391 C392 1.398 . S
C391 C397 1.491 . S
C392 H383 0.950 . S
C392 C391 1.398 . S
C392 C393 1.391 . S
C393 H381 0.950 . S
C393 C389 1.393 . S
C393 C392 1.391 . S
C394 H384 0.950 . S
C394 C395 1.386 . S
C394 C396 1.391 . S
C395 C394 1.386 . S
C395 C399 1.393 . S
C396 H385 0.950 . S
C396 C394 1.391 . S
C396 C397 1.400 . S
C397 C391 1.491 . S
C397 C396 1.400 . S
C397 C398 1.398 . S
C398 H386 0.950 . S
C398 C397 1.398 . S
C398 C399 1.391 . S
C399 H387 0.950 . S
C399 C395 1.393 . S
C399 C398 1.391 . S
H400 C408 0.950 . S
H401 C413 0.950 . S
H402 C410 0.950 . S
H403 C412 0.950 . S
H404 C414 0.950 . S
H405 C416 0.950 . S
H406 C418 0.950 . S
H407 C419 0.950 . S
C408 H400 0.950 . S
C408 C409 1.386 . S
C408 C410 1.391 1_554 S
C409 C408 1.386 . S
C409 C413 1.393 1_554 S
C410 H402 0.950 . S
C410 C408 1.391 1_556 S
C410 C411 1.400 . S
C411 C410 1.400 . S
C411 C412 1.398 . S
C411 C417 1.491 . S
C412 H403 0.950 . S
C412 C411 1.398 . S
C412 C413 1.391 . S
C413 H401 0.950 . S
C413 C409 1.393 1_556 S
C413 C412 1.391 . S
C414 H404 0.950 . S
C414 C415 1.386 . S
C414 C416 1.391 . S
C415 C414 1.386 . S
C415 C419 1.393 . S
C416 H405 0.950 . S
C416 C414 1.391 . S
C416 C417 1.400 . S
C417 C411 1.491 . S
C417 C416 1.400 . S
C417 C418 1.398 . S
C418 H406 0.950 . S
C418 C417 1.398 . S
C418 C419 1.391 . S
C419 H407 0.950 . S
C419 C415 1.393 . S
C419 C418 1.391 . S
H420 C428 0.950 . S
H421 C433 0.950 . S
H422 C430 0.950 . S
H423 C432 0.950 . S
H424 C434 0.950 . S
H425 C436 0.950 . S
H426 C438 0.950 . S
H427 C439 0.950 . S
C428 H420 0.950 . S
C428 C429 1.386 . S
C428 C430 1.391 . S
C429 C428 1.386 . S
C429 C433 1.393 . S
C430 H422 0.950 . S
C430 C428 1.391 . S
C430 C431 1.400 . S
C431 C430 1.400 . S
C431 C432 1.398 . S
C431 C437 1.491 . S
C432 H423 0.950 . S
C432 C431 1.398 . S
C432 C433 1.391 . S
C433 H421 0.950 . S
C433 C429 1.393 . S
C433 C432 1.391 . S
C434 H424 0.950 . S
C434 C435 1.386 . S
C434 C436 1.391 . S
C435 C434 1.386 . S
C435 C439 1.393 . S
C436 H425 0.950 . S
C436 C434 1.391 . S
C436 C437 1.400 . S
C437 C431 1.491 . S
C437 C436 1.400 . S
C437 C438 1.398 . S
C438 H426 0.950 . S
C438 C437 1.398 . S
C438 C439 1.391 . S
C439 H427 0.950 . S
C439 C435 1.393 . S
C439 C438 1.391 . S
H440 C448 0.950 . S
H441 C453 0.950 . S
H442 C450 0.950 . S
H443 C452 0.950 . S
H444 C454 0.950 . S
H445 C456 0.950 . S
H446 C458 0.950 . S
H447 C459 0.950 1_545 S
C448 H440 0.950 . S
C448 C449 1.386 . S
C448 C450 1.391 . S
C449 C448 1.386 . S
C449 C453 1.393 . S
C450 H442 0.950 . S
C450 C448 1.391 . S
C450 C451 1.400 . S
C451 C450 1.400 . S
C451 C452 1.398 . S
C451 C457 1.491 . S
C452 H443 0.950 . S
C452 C451 1.398 . S
C452 C453 1.391 . S
C453 H441 0.950 . S
C453 C449 1.393 . S
C453 C452 1.391 . S
C454 H444 0.950 . S
C454 C455 1.386 . S
C454 C456 1.391 . S
C455 C454 1.386 . S
C455 C459 1.393 . S
C456 H445 0.950 . S
C456 C454 1.391 . S
C456 C457 1.400 . S
C457 C451 1.491 . S
C457 C456 1.400 . S
C457 C458 1.398 . S
C458 H446 0.950 . S
C458 C457 1.398 . S
C458 C459 1.391 . S
C459 H447 0.950 1_565 S
C459 C455 1.393 . S
C459 C458 1.391 . S
C235 C120 1.654 . S
C229 N41 1.697 . S
C249 N2 1.644 . S
C255 C192 1.620 . S
C269 N15 1.685 . S
C275 C108 1.664 . S
C289 N28 1.629 . S
C295 C204 1.633 . S
C315 C110 1.397 . S
C309 N5 1.593 . S
C335 C191 1.672 . S
C329 N14 1.660 . S
C349 N27 1.582 . S
C355 C107 1.611 . S
C369 N44 1.578 . S
C375 C194 1.432 . S
C395 C206 1.429 . S
C389 N18 1.567 . S
C415 C122 1.388 . S
C409 N31 1.594 . S
C435 C203 1.674 . S
C429 N40 1.668 . S
C449 N1 1.590 . S
C455 C119 1.612 . S
