# Generated by pormake.
# Topology ctn, (3,4)-cn, num edge types: 1
# Building blocks:
#     Node 0, Type 0, BuildingBlock: BETDAH_clean_linker_0, # of connection points: 3
#     Node 1, Type 0, BuildingBlock: BETDAH_clean_linker_0, # of connection points: 3
#     Node 2, Type 0, BuildingBlock: BETDAH_clean_linker_0, # of connection points: 3
#     Node 3, Type 0, BuildingBlock: BETDAH_clean_linker_0, # of connection points: 3
#     Node 4, Type 0, BuildingBlock: BETDAH_clean_linker_0, # of connection points: 3
#     Node 5, Type 0, BuildingBlock: BETDAH_clean_linker_0, # of connection points: 3
#     Node 6, Type 0, BuildingBlock: BETDAH_clean_linker_0, # of connection points: 3
#     Node 7, Type 0, BuildingBlock: BETDAH_clean_linker_0, # of connection points: 3
#     Node 8, Type 0, BuildingBlock: BETDAH_clean_linker_0, # of connection points: 3
#     Node 9, Type 0, BuildingBlock: BETDAH_clean_linker_0, # of connection points: 3
#     Node 10, Type 0, BuildingBlock: BETDAH_clean_linker_0, # of connection points: 3
#     Node 11, Type 0, BuildingBlock: BETDAH_clean_linker_0, # of connection points: 3
#     Node 12, Type 0, BuildingBlock: BETDAH_clean_linker_0, # of connection points: 3
#     Node 13, Type 0, BuildingBlock: BETDAH_clean_linker_0, # of connection points: 3
#     Node 14, Type 0, BuildingBlock: BETDAH_clean_linker_0, # of connection points: 3
#     Node 15, Type 0, BuildingBlock: BETDAH_clean_linker_0, # of connection points: 3
#     Node 16, Type 1, BuildingBlock: QUQFOY_clean_sbu_1, # of connection points: 4
#     Node 17, Type 1, BuildingBlock: QUQFOY_clean_sbu_1, # of connection points: 4
#     Node 18, Type 1, BuildingBlock: QUQFOY_clean_sbu_1, # of connection points: 4
#     Node 19, Type 1, BuildingBlock: QUQFOY_clean_sbu_1, # of connection points: 4
#     Node 20, Type 1, BuildingBlock: QUQFOY_clean_sbu_1, # of connection points: 4
#     Node 21, Type 1, BuildingBlock: QUQFOY_clean_sbu_1, # of connection points: 4
#     Node 22, Type 1, BuildingBlock: QUQFOY_clean_sbu_1, # of connection points: 4
#     Node 23, Type 1, BuildingBlock: QUQFOY_clean_sbu_1, # of connection points: 4
#     Node 24, Type 1, BuildingBlock: QUQFOY_clean_sbu_1, # of connection points: 4
#     Node 25, Type 1, BuildingBlock: QUQFOY_clean_sbu_1, # of connection points: 4
#     Node 26, Type 1, BuildingBlock: QUQFOY_clean_sbu_1, # of connection points: 4
#     Node 27, Type 1, BuildingBlock: QUQFOY_clean_sbu_1, # of connection points: 4
#     Edge 28, Type (0, 1), BuildingBlock: TEMPAE_clean_linker_10, # of connection points: 2
#     Edge 29, Type (0, 1), BuildingBlock: TEMPAE_clean_linker_10, # of connection points: 2
#     Edge 30, Type (0, 1), BuildingBlock: TEMPAE_clean_linker_10, # of connection points: 2
#     Edge 31, Type (0, 1), BuildingBlock: TEMPAE_clean_linker_10, # of connection points: 2
#     Edge 32, Type (0, 1), BuildingBlock: TEMPAE_clean_linker_10, # of connection points: 2
#     Edge 33, Type (0, 1), BuildingBlock: TEMPAE_clean_linker_10, # of connection points: 2
#     Edge 34, Type (0, 1), BuildingBlock: TEMPAE_clean_linker_10, # of connection points: 2
#     Edge 35, Type (0, 1), BuildingBlock: TEMPAE_clean_linker_10, # of connection points: 2
#     Edge 36, Type (0, 1), BuildingBlock: TEMPAE_clean_linker_10, # of connection points: 2
#     Edge 37, Type (0, 1), BuildingBlock: TEMPAE_clean_linker_10, # of connection points: 2
#     Edge 38, Type (0, 1), BuildingBlock: TEMPAE_clean_linker_10, # of connection points: 2
#     Edge 39, Type (0, 1), BuildingBlock: TEMPAE_clean_linker_10, # of connection points: 2
#     Edge 40, Type (0, 1), BuildingBlock: TEMPAE_clean_linker_10, # of connection points: 2
#     Edge 41, Type (0, 1), BuildingBlock: TEMPAE_clean_linker_10, # of connection points: 2
#     Edge 42, Type (0, 1), BuildingBlock: TEMPAE_clean_linker_10, # of connection points: 2
#     Edge 43, Type (0, 1), BuildingBlock: TEMPAE_clean_linker_10, # of connection points: 2
#     Edge 44, Type (0, 1), BuildingBlock: TEMPAE_clean_linker_10, # of connection points: 2
#     Edge 45, Type (0, 1), BuildingBlock: TEMPAE_clean_linker_10, # of connection points: 2
#     Edge 46, Type (0, 1), BuildingBlock: TEMPAE_clean_linker_10, # of connection points: 2
#     Edge 47, Type (0, 1), BuildingBlock: TEMPAE_clean_linker_10, # of connection points: 2
#     Edge 48, Type (0, 1), BuildingBlock: TEMPAE_clean_linker_10, # of connection points: 2
#     Edge 49, Type (0, 1), BuildingBlock: TEMPAE_clean_linker_10, # of connection points: 2
#     Edge 50, Type (0, 1), BuildingBlock: TEMPAE_clean_linker_10, # of connection points: 2
#     Edge 51, Type (0, 1), BuildingBlock: TEMPAE_clean_linker_10, # of connection points: 2
#     Edge 52, Type (0, 1), BuildingBlock: TEMPAE_clean_linker_10, # of connection points: 2
#     Edge 53, Type (0, 1), BuildingBlock: TEMPAE_clean_linker_10, # of connection points: 2
#     Edge 54, Type (0, 1), BuildingBlock: TEMPAE_clean_linker_10, # of connection points: 2
#     Edge 55, Type (0, 1), BuildingBlock: TEMPAE_clean_linker_10, # of connection points: 2
#     Edge 56, Type (0, 1), BuildingBlock: TEMPAE_clean_linker_10, # of connection points: 2
#     Edge 57, Type (0, 1), BuildingBlock: TEMPAE_clean_linker_10, # of connection points: 2
#     Edge 58, Type (0, 1), BuildingBlock: TEMPAE_clean_linker_10, # of connection points: 2
#     Edge 59, Type (0, 1), BuildingBlock: TEMPAE_clean_linker_10, # of connection points: 2
#     Edge 60, Type (0, 1), BuildingBlock: TEMPAE_clean_linker_10, # of connection points: 2
#     Edge 61, Type (0, 1), BuildingBlock: TEMPAE_clean_linker_10, # of connection points: 2
#     Edge 62, Type (0, 1), BuildingBlock: TEMPAE_clean_linker_10, # of connection points: 2
#     Edge 63, Type (0, 1), BuildingBlock: TEMPAE_clean_linker_10, # of connection points: 2
#     Edge 64, Type (0, 1), BuildingBlock: TEMPAE_clean_linker_10, # of connection points: 2
#     Edge 65, Type (0, 1), BuildingBlock: TEMPAE_clean_linker_10, # of connection points: 2
#     Edge 66, Type (0, 1), BuildingBlock: TEMPAE_clean_linker_10, # of connection points: 2
#     Edge 67, Type (0, 1), BuildingBlock: TEMPAE_clean_linker_10, # of connection points: 2
#     Edge 68, Type (0, 1), BuildingBlock: TEMPAE_clean_linker_10, # of connection points: 2
#     Edge 69, Type (0, 1), BuildingBlock: TEMPAE_clean_linker_10, # of connection points: 2
#     Edge 70, Type (0, 1), BuildingBlock: TEMPAE_clean_linker_10, # of connection points: 2
#     Edge 71, Type (0, 1), BuildingBlock: TEMPAE_clean_linker_10, # of connection points: 2
#     Edge 72, Type (0, 1), BuildingBlock: TEMPAE_clean_linker_10, # of connection points: 2
#     Edge 73, Type (0, 1), BuildingBlock: TEMPAE_clean_linker_10, # of connection points: 2
#     Edge 74, Type (0, 1), BuildingBlock: TEMPAE_clean_linker_10, # of connection points: 2
#     Edge 75, Type (0, 1), BuildingBlock: TEMPAE_clean_linker_10, # of connection points: 2
# Relax obj value: 0.075
# Max RMSD: 0.181
# Mean RMSD: 0.121
data_MOF--net-ctn--node1-QUQFOY_clean_sbu_1--node2-BETDAH_clean_linker_0--edge1-TEMPAE_clean_linker_10
_symmetry_space_group_name_H-M    P1
_symmetry_Int_Tables_number       1
_symmetry_cell_setting            triclinic
loop_
_symmetry_equiv_pos_as_xyz
'x, y, z'
_cell_length_a     54.546391
_cell_length_b     54.313536
_cell_length_c     55.650496
_cell_angle_alpha  102.09854
_cell_angle_beta   90.144343
_cell_angle_gamma 100.05993
loop_
_atom_site_label
_atom_site_type_symbol
_atom_site_fract_x
_atom_site_fract_y
_atom_site_fract_z
_atom_type_partial_charge
H0 H 0.05846 0.05067 0.1169 0.0
H1 H 0.0984 0.10201 0.07499 0.0
H2 H 0.04169 0.12619 0.12303 0.0
C3 C 0.06177 0.06902 0.11157 0.0
C4 C 0.04757 0.08763 0.1216 0.0
C5 C 0.08026 0.07404 0.0948 0.0
C6 C 0.08426 0.09789 0.08794 0.0
C7 C 0.07034 0.11666 0.09818 0.0
C8 C 0.05225 0.11153 0.11508 0.0
N9 N 0.07476 0.14121 0.09247 0.0
C10 C 0.07762 0.14489 0.06863 0.0
H11 H 0.32718 0.72963 0.25945 0.0
H12 H 0.35436 0.8079 0.25558 0.0
H13 H 0.28138 0.7707 0.2254 0.0
C14 C 0.32493 0.74673 0.25315 0.0
C15 C 0.30237 0.74747 0.24138 0.0
C16 C 0.34376 0.76845 0.25859 0.0
C17 C 0.34 0.79091 0.25153 0.0
C18 C 0.31792 0.79172 0.23906 0.0
C19 C 0.29894 0.76996 0.23412 0.0
N20 N 0.31506 0.81514 0.23293 0.0
C21 C 0.29971 0.81714 0.21374 0.0
H22 H 0.01379 0.44326 0.07722 0.0
H23 H 0.9588 0.49019 0.10074 0.0
H24 H 0.94536 0.43256 0.03429 0.0
C25 C 0.99617 0.44883 0.07388 0.0
C26 C 0.98095 0.43557 0.05315 0.0
C27 C 0.98845 0.46859 0.09105 0.0
C28 C 0.96512 0.47519 0.08747 0.0
C29 C 0.94964 0.46189 0.06705 0.0
C30 C 0.95753 0.44224 0.05011 0.0
N31 N 0.92531 0.46673 0.064 0.0
C32 C 0.92047 0.49075 0.06301 0.0
H33 H 0.78625 0.80586 0.22002 0.0
H34 H 0.76893 0.73446 0.24383 0.0
H35 H 0.75561 0.80418 0.29076 0.0
C36 C 0.77931 0.79509 0.2337 0.0
C37 C 0.77122 0.808 0.25593 0.0
C38 C 0.77872 0.76856 0.2291 0.0
C39 C 0.76955 0.75494 0.24703 0.0
C40 C 0.76063 0.76749 0.26898 0.0
C41 C 0.76179 0.79416 0.27354 0.0
N42 N 0.75047 0.75284 0.28608 0.0
C43 C 0.73184 0.75989 0.30163 0.0
H44 H 0.06253 0.01862 0.43913 0.0
H45 H 0.0847 0.95696 0.46645 0.0
H46 H 0.012 0.94697 0.4327 0.0
C47 C 0.05834 0.99925 0.44205 0.0
C48 C 0.03486 0.98422 0.43451 0.0
C49 C 0.07681 0.9894 0.4528 0.0
C50 C 0.07074 0.96498 0.45826 0.0
C51 C 0.0471 0.95002 0.45143 0.0
C52 C 0.02962 0.95936 0.43901 0.0
N53 N 0.0411 0.92471 0.4551 0.0
C54 C 0.04497 0.91845 0.47756 0.0
H55 H 0.27898 0.76368 0.82901 0.0
H56 H 0.22169 0.78511 0.78888 0.0
H57 H 0.26769 0.73434 0.75079 0.0
C58 C 0.26918 0.76241 0.81172 0.0
C59 C 0.27603 0.74709 0.79001 0.0
C60 C 0.24937 0.77581 0.81149 0.0
C61 C 0.23673 0.77452 0.78912 0.0
C62 C 0.2439 0.76001 0.76714 0.0
C63 C 0.26324 0.74628 0.76779 0.0
N64 N 0.2321 0.75861 0.74401 0.0
C65 C 0.21042 0.76794 0.74094 0.0
H66 H 0.93506 0.55999 0.53103 0.0
H67 H 0.01039 0.57375 0.50705 0.0
H68 H 0.96877 0.4972 0.49448 0.0
C69 C 0.95101 0.55294 0.52242 0.0
C70 C 0.94922 0.52661 0.51304 0.0
C71 C 0.97308 0.57022 0.52085 0.0
C72 C 0.99308 0.56089 0.50825 0.0
C73 C 0.99132 0.53453 0.49857 0.0
C74 C 0.96964 0.51755 0.5014 0.0
N75 N 0.01161 0.52432 0.48723 0.0
C76 C 0.0261 0.53515 0.47034 0.0
H77 H 0.83935 0.78957 0.82335 0.0
H78 H 0.79012 0.82634 0.78812 0.0
H79 H 0.76401 0.78912 0.84646 0.0
C80 C 0.82145 0.79541 0.82215 0.0
C81 C 0.80239 0.78787 0.83744 0.0
C82 C 0.81708 0.80907 0.8042 0.0
C83 C 0.79367 0.81606 0.80211 0.0
C84 C 0.77459 0.80891 0.81754 0.0
C85 C 0.77895 0.79459 0.83478 0.0
N86 N 0.75042 0.81464 0.81537 0.0
C87 C 0.74589 0.83759 0.81064 0.0
H88 H 0.33261 0.28613 0.30896 0.0
H89 H 0.29405 0.34105 0.28681 0.0
H90 H 0.2614 0.29682 0.33806 0.0
C91 C 0.31667 0.29571 0.31006 0.0
C92 C 0.29727 0.28927 0.32535 0.0
C93 C 0.31562 0.31422 0.29597 0.0
C94 C 0.29504 0.32687 0.2977 0.0
C95 C 0.27532 0.32029 0.31277 0.0
C96 C 0.27655 0.30149 0.3263 0.0
N97 N 0.25359 0.33153 0.31451 0.0
C98 C 0.25091 0.3536 0.30664 0.0
H99 H 0.51244 0.96904 0.59733 0.0
H100 H 0.47003 0.02153 0.63888 0.0
H101 H 0.45683 0.99706 0.56058 0.0
C102 C 0.49837 0.98096 0.59782 0.0
C103 C 0.48536 0.98123 0.57605 0.0
C104 C 0.49304 0.99544 0.62046 0.0
C105 C 0.47416 0.01006 0.62146 0.0
C106 C 0.46122 0.01097 0.60003 0.0
C107 C 0.4668 0.99649 0.57725 0.0
N108 N 0.44287 0.02681 0.60223 0.0
C109 C 0.43182 0.03349 0.58261 0.0
H110 H 0.30636 0.33686 0.68566 0.0
H111 H 0.2335 0.28971 0.6822 0.0
H112 H 0.24516 0.36766 0.72159 0.0
C113 C 0.2871 0.33419 0.69087 0.0
C114 C 0.2778 0.35494 0.70495 0.0
C115 C 0.27128 0.31049 0.68233 0.0
C116 C 0.24629 0.30748 0.68917 0.0
C117 C 0.23707 0.32799 0.7035 0.0
C118 C 0.25269 0.3517 0.71108 0.0
N119 N 0.21142 0.32568 0.70798 0.0
C120 C 0.20119 0.31445 0.72671 0.0
H121 H 0.82487 0.20529 0.7628 0.0
H122 H 0.85764 0.2814 0.75619 0.0
H123 H 0.7802 0.25254 0.736 0.0
C124 C 0.82344 0.22288 0.757 0.0
C125 C 0.80028 0.22638 0.74862 0.0
C126 C 0.84423 0.2426 0.75996 0.0
C127 C 0.84177 0.26588 0.75387 0.0
C128 C 0.81903 0.26933 0.74456 0.0
C129 C 0.79814 0.24958 0.74209 0.0
N130 N 0.8175 0.29346 0.7393 0.0
C131 C 0.80245 0.29677 0.72049 0.0
H132 H 0.59172 0.57165 0.6128 0.0
H133 H 0.63445 0.5928 0.55314 0.0
H134 H 0.57874 0.63602 0.58383 0.0
C135 C 0.59619 0.58417 0.59999 0.0
C136 C 0.58345 0.60465 0.60066 0.0
C137 C 0.61447 0.57958 0.58281 0.0
C138 C 0.62038 0.59611 0.56658 0.0
C139 C 0.60742 0.61618 0.56652 0.0
C140 C 0.58866 0.62033 0.58348 0.0
N141 N 0.61408 0.63186 0.54931 0.0
C142 C 0.59837 0.64584 0.54056 0.0
H143 H 0.57792 0.5493 0.94345 0.0
H144 H 0.57699 0.51327 0.00554 0.0
H145 H 0.50894 0.51016 0.96507 0.0
C146 C 0.56776 0.53863 0.95583 0.0
C147 C 0.54193 0.53076 0.95206 0.0
C148 C 0.58063 0.53279 0.97525 0.0
C149 C 0.56738 0.51773 0.99038 0.0
C150 C 0.54147 0.50937 0.98645 0.0
C151 C 0.52897 0.51614 0.96751 0.0
N152 N 0.527 0.49482 0.0015 0.0
C153 C 0.53633 0.48328 0.01871 0.0
H154 H 0.76603 0.23515 0.33067 0.0
H155 H 0.72024 0.27346 0.29345 0.0
H156 H 0.76163 0.21971 0.25154 0.0
C157 C 0.75906 0.23869 0.31367 0.0
C158 C 0.76578 0.22519 0.29103 0.0
C159 C 0.74256 0.25597 0.31461 0.0
C160 C 0.73281 0.25994 0.29265 0.0
C161 C 0.73996 0.24705 0.26981 0.0
C162 C 0.75635 0.22975 0.26918 0.0
N163 N 0.73123 0.2511 0.24714 0.0
C164 C 0.71162 0.26381 0.24489 0.0
H165 H 0.43818 0.07888 0.05033 0.0
H166 H 0.51719 0.08333 0.04101 0.0
H167 H 0.46838 0.01046 0.02484 0.0
C168 C 0.4541 0.06967 0.04548 0.0
C169 C 0.45032 0.04298 0.03738 0.0
C170 C 0.47816 0.08454 0.04727 0.0
C171 C 0.49844 0.07237 0.03956 0.0
C172 C 0.49477 0.04568 0.03133 0.0
C173 C 0.47088 0.03111 0.03068 0.0
N174 N 0.51505 0.03294 0.0247 0.0
C175 C 0.532 0.04 0.00775 0.0
O176 O 0.23043 0.86618 0.9961 0.0
Cd177 Cd 0.24369 0.8869 0.03056 0.0
Cd178 Cd 0.22323 0.92494 0.01377 0.0
O179 O 0.21596 0.89643 0.98243 0.0
O180 O 0.25689 0.86102 0.04504 0.0
O181 O 0.22783 0.88153 0.0624 0.0
C182 C 0.24251 0.86542 0.06313 0.0
C183 C 0.19209 0.94815 0.02835 0.0
C184 C 0.22047 0.87379 0.97895 0.0
C185 C 0.27785 0.93663 0.02726 0.0
O186 O 0.25928 0.94459 0.01977 0.0
O187 O 0.2752 0.91458 0.03229 0.0
O188 O 0.20338 0.95098 0.00854 0.0
O189 O 0.19819 0.93161 0.03985 0.0
O190 O 0.19248 0.58269 0.28493 0.0
Cd191 Cd 0.17396 0.5512 0.29692 0.0
Cd192 Cd 0.1326 0.56329 0.27261 0.0
O193 O 0.16069 0.59113 0.26537 0.0
O194 O 0.20062 0.53503 0.30848 0.0
O195 O 0.17401 0.51533 0.2776 0.0
C196 C 0.19257 0.5148 0.29184 0.0
C197 C 0.10414 0.54435 0.23976 0.0
C198 C 0.18362 0.59606 0.27203 0.0
C199 C 0.12922 0.56222 0.32674 0.0
O200 O 0.11901 0.56577 0.30749 0.0
O201 O 0.15086 0.55647 0.32619 0.0
O202 O 0.10406 0.56715 0.25224 0.0
O203 O 0.12034 0.53194 0.24616 0.0
O204 O 0.80393 0.68879 0.98469 0.0
Cd205 Cd 0.79508 0.66869 0.01226 0.0
Cd206 Cd 0.81245 0.63267 0.97942 0.0
O207 O 0.82015 0.66013 0.95858 0.0
O208 O 0.78462 0.69486 0.03889 0.0
O209 O 0.81593 0.6753 0.04378 0.0
C210 C 0.80176 0.69129 0.05304 0.0
C211 C 0.84293 0.61576 0.99636 0.0
C212 C 0.81409 0.68211 0.96437 0.0
C213 C 0.76 0.61873 0.99189 0.0
O214 O 0.77666 0.61216 0.97724 0.0
O215 O 0.76419 0.63993 0.00738 0.0
O216 O 0.83594 0.60809 0.9734 0.0
O217 O 0.83329 0.63402 0.00945 0.0
O218 O 0.91512 0.01865 0.29868 0.0
Cd219 Cd 0.89425 0.02174 0.269 0.0
Cd220 Cd 0.86676 0.04156 0.30462 0.0
O221 O 0.89601 0.04106 0.32809 0.0
O222 O 0.91582 0.01347 0.24069 0.0
O223 O 0.90502 0.05141 0.25251 0.0
C224 C 0.91725 0.03661 0.23792 0.0
C225 C 0.85305 0.07929 0.30263 0.0
C226 C 0.91338 0.02863 0.32125 0.0
C227 C 0.84419 0.99092 0.27326 0.0
O228 O 0.84237 0.00732 0.29285 0.0
O229 O 0.8627 0.99437 0.25979 0.0
O230 O 0.84697 0.06762 0.32031 0.0
O231 O 0.8675 0.06968 0.28625 0.0
O232 O 0.28506 0.17485 0.46079 0.0
Cd233 Cd 0.27665 0.15574 0.48893 0.0
Cd234 Cd 0.29747 0.12037 0.45765 0.0
O235 O 0.30272 0.14683 0.43538 0.0
O236 O 0.26273 0.18147 0.51318 0.0
O237 O 0.29659 0.16718 0.52133 0.0
C238 C 0.28053 0.18177 0.52849 0.0
C239 C 0.32983 0.1093 0.47775 0.0
C240 C 0.29559 0.16834 0.44068 0.0
C241 C 0.24534 0.10313 0.46988 0.0
O242 O 0.2632 0.09704 0.45667 0.0
O243 O 0.24749 0.12517 0.48387 0.0
O244 O 0.32404 0.09914 0.45484 0.0
O245 O 0.31782 0.12666 0.48884 0.0
O246 O 0.45508 0.56493 0.79188 0.0
Cd247 Cd 0.43664 0.56326 0.75886 0.0
Cd248 Cd 0.40207 0.57962 0.79025 0.0
O249 O 0.42778 0.58008 0.81744 0.0
O250 O 0.46189 0.55584 0.73399 0.0
O251 O 0.44587 0.59115 0.73967 0.0
C252 C 0.46071 0.5772 0.7279 0.0
C253 C 0.38428 0.61523 0.78967 0.0
C254 C 0.44841 0.57234 0.81371 0.0
C255 C 0.38712 0.52832 0.75666 0.0
O256 O 0.38123 0.54453 0.77464 0.0
O257 O 0.40803 0.5327 0.74695 0.0
O258 O 0.37703 0.60039 0.80454 0.0
O259 O 0.40221 0.61029 0.77534 0.0
O260 O 0.73532 0.34345 0.50058 0.0
Cd261 Cd 0.7517 0.36478 0.53368 0.0
Cd262 Cd 0.72889 0.40252 0.51984 0.0
O263 O 0.71804 0.37344 0.48953 0.0
O264 O 0.76443 0.33944 0.54928 0.0
O265 O 0.73709 0.36247 0.56665 0.0
C266 C 0.75096 0.3457 0.56777 0.0
C267 C 0.70081 0.42958 0.53472 0.0
C268 C 0.72287 0.3509 0.485 0.0
C269 C 0.78484 0.41317 0.52666 0.0
O270 O 0.76526 0.42099 0.5215 0.0
O271 O 0.78341 0.39138 0.53206 0.0
O272 O 0.71048 0.42923 0.51362 0.0
O273 O 0.70655 0.4139 0.54742 0.0
O274 O 0.69288 0.07445 0.81379 0.0
Cd275 Cd 0.67523 0.04367 0.82736 0.0
Cd276 Cd 0.6327 0.05322 0.80476 0.0
O277 O 0.65939 0.08128 0.79578 0.0
O278 O 0.70147 0.02482 0.83491 0.0
O279 O 0.6713 0.00805 0.80651 0.0
C280 C 0.69086 0.00555 0.8183 0.0
C281 C 0.60237 0.03562 0.77332 0.0
C282 C 0.68264 0.08693 0.80096 0.0
C283 C 0.63251 0.05431 0.85953 0.0
O284 O 0.62094 0.05605 0.84027 0.0
O285 O 0.65464 0.04987 0.85846 0.0
O286 O 0.60308 0.05809 0.78683 0.0
O287 O 0.61865 0.02249 0.77812 0.0
O288 O 0.02074 0.27037 0.92776 0.0
Cd289 Cd 0.02237 0.23655 0.90333 0.0
Cd290 Cd 0.04637 0.27037 0.87585 0.0
O291 O 0.04121 0.29711 0.90675 0.0
O292 O 0.01295 0.21057 0.92359 0.0
O293 O 0.05037 0.21817 0.90867 0.0
C294 C 0.03543 0.20622 0.92215 0.0
C295 C 0.08293 0.27859 0.85477 0.0
C296 C 0.02976 0.293 0.92575 0.0
C297 C 0.99766 0.23634 0.85517 0.0
O298 O 0.01558 0.25404 0.8531 0.0
O299 O 0.99701 0.22592 0.87366 0.0
O300 O 0.06577 0.29221 0.85554 0.0
O301 O 0.07973 0.26033 0.86665 0.0
O302 O 0.50907 0.81626 0.4451 0.0
Cd303 Cd 0.51014 0.78097 0.42295 0.0
Cd304 Cd 0.53793 0.8103 0.39577 0.0
O305 O 0.53224 0.84041 0.42337 0.0
O306 O 0.50142 0.75561 0.44432 0.0
O307 O 0.53829 0.76314 0.42821 0.0
C308 C 0.52388 0.75121 0.44208 0.0
C309 C 0.57797 0.8048 0.38424 0.0
C310 C 0.51926 0.83821 0.44199 0.0
C311 C 0.4899 0.77842 0.37217 0.0
O312 O 0.50914 0.79474 0.3702 0.0
O313 O 0.48683 0.76974 0.3917 0.0
O314 O 0.56757 0.82198 0.37745 0.0
O315 O 0.56571 0.7911 0.39813 0.0
O316 O 0.97302 0.79286 0.69135 0.0
Cd317 Cd 0.00361 0.78483 0.67134 0.0
Cd318 Cd 0.97849 0.8032 0.63739 0.0
O319 O 0.9552 0.81148 0.6661 0.0
O320 O 0.02453 0.7743 0.69531 0.0
O321 O 0.03766 0.80717 0.67822 0.0
C322 C 0.04216 0.79248 0.69257 0.0
C323 C 0.99473 0.83428 0.61568 0.0
C324 C 0.95585 0.80434 0.68639 0.0
C325 C 0.98663 0.7492 0.62246 0.0
O326 O 0.97507 0.76598 0.61743 0.0
O327 O 0.99948 0.75363 0.64245 0.0
O328 O 0.97166 0.82325 0.61292 0.0
O329 O 0.00857 0.82833 0.63171 0.0
O330 O 0.48449 0.32081 0.20176 0.0
Cd331 Cd 0.51445 0.30848 0.1832 0.0
Cd332 Cd 0.49154 0.32373 0.14498 0.0
O333 O 0.46499 0.32996 0.17086 0.0
O334 O 0.53356 0.29884 0.20921 0.0
O335 O 0.54993 0.32779 0.18852 0.0
C336 C 0.55276 0.31434 0.20458 0.0
C337 C 0.50589 0.3562 0.12411 0.0
C338 C 0.46593 0.32801 0.1932 0.0
C339 C 0.49938 0.26956 0.13525 0.0
O340 O 0.49152 0.28664 0.12646 0.0
O341 O 0.50841 0.27463 0.15715 0.0
O342 O 0.48415 0.34206 0.11923 0.0
O343 O 0.5197 0.35198 0.14118 0.0
C344 C 0.21664 0.78742 0.84116 0.0
C345 C 0.2417 0.79071 0.83484 0.0
C346 C 0.20948 0.8001 0.86402 0.0
C347 C 0.22782 0.81659 0.88078 0.0
C348 C 0.25304 0.82049 0.87415 0.0
C349 C 0.25968 0.80742 0.85132 0.0
C350 C 0.18246 0.79531 0.87052 0.0
C351 C 0.27312 0.8382 0.89136 0.0
C352 C 0.21328 0.8679 0.9335 0.0
C353 C 0.21734 0.85738 0.95385 0.0
C354 C 0.2152 0.85424 0.90941 0.0
C355 C 0.22106 0.82937 0.90557 0.0
C356 C 0.22323 0.81789 0.92591 0.0
C357 C 0.22145 0.83207 0.94982 0.0
C358 C 0.21273 0.86715 0.88821 0.0
C359 C 0.22905 0.79123 0.92255 0.0
H360 H 0.20274 0.77433 0.8285 0.0
H361 H 0.27901 0.8102 0.84633 0.0
H362 H 0.18052 0.78578 0.88638 0.0
H363 H 0.17571 0.81371 0.87619 0.0
H364 H 0.17032 0.78308 0.85493 0.0
H365 H 0.29167 0.83987 0.88303 0.0
H366 H 0.26828 0.85757 0.89661 0.0
H367 H 0.27452 0.83105 0.9085 0.0
H368 H 0.21001 0.88741 0.93638 0.0
H369 H 0.22435 0.82367 0.96539 0.0
H370 H 0.20053 0.85411 0.87317 0.0
H371 H 0.23134 0.87197 0.88064 0.0
H372 H 0.20506 0.88505 0.8939 0.0
H373 H 0.21663 0.7778 0.90791 0.0
H374 H 0.22702 0.78389 0.93977 0.0
H375 H 0.24849 0.79135 0.91669 0.0
C376 C 0.0537 0.56705 0.45223 0.0
C377 C 0.04073 0.54212 0.45051 0.0
C378 C 0.06853 0.5733 0.43297 0.0
C379 C 0.07028 0.55408 0.41175 0.0
C380 C 0.05685 0.52893 0.41004 0.0
C381 C 0.04221 0.52328 0.4295 0.0
C382 C 0.08251 0.60031 0.43539 0.0
C383 C 0.05817 0.50788 0.38778 0.0
C384 C 0.09085 0.56853 0.35032 0.0
C385 C 0.11516 0.56321 0.34963 0.0
C386 C 0.07642 0.56693 0.37098 0.0
C387 C 0.0865 0.55979 0.39143 0.0
C388 C 0.11139 0.55559 0.39133 0.0
C389 C 0.12542 0.55737 0.37046 0.0
C390 C 0.04998 0.57167 0.37043 0.0
C391 C 0.12283 0.54795 0.41279 0.0
H392 H 0.05239 0.58152 0.46865 0.0
H393 H 0.03205 0.504 0.42839 0.0
H394 H 0.10285 0.60033 0.43505 0.0
H395 H 0.07751 0.60818 0.41955 0.0
H396 H 0.07852 0.61318 0.45267 0.0
H397 H 0.04624 0.48948 0.38919 0.0
H398 H 0.05222 0.5135 0.37093 0.0
H399 H 0.07768 0.50479 0.38551 0.0
H400 H 0.08278 0.57323 0.33441 0.0
H401 H 0.14422 0.55337 0.37021 0.0
H402 H 0.04644 0.58504 0.38753 0.0
H403 H 0.03683 0.5534 0.36948 0.0
H404 H 0.04584 0.5797 0.3544 0.0
H405 H 0.12021 0.56128 0.43025 0.0
H406 H 0.14306 0.54774 0.41084 0.0
H407 H 0.11332 0.52855 0.41424 0.0
C408 C 0.78826 0.7519 0.85887 0.0
C409 C 0.80664 0.7724 0.8557 0.0
C410 C 0.79153 0.73759 0.87652 0.0
C411 C 0.81381 0.74378 0.89132 0.0
C412 C 0.83269 0.76409 0.8879 0.0
C413 C 0.82886 0.77818 0.87016 0.0
C414 C 0.77095 0.71605 0.87955 0.0
C415 C 0.85672 0.77121 0.90329 0.0
C416 C 0.80821 0.72262 0.9522 0.0
C417 C 0.8169 0.6993 0.94662 0.0
C418 C 0.80799 0.73776 0.93465 0.0
C419 C 0.81678 0.72947 0.91093 0.0
C420 C 0.82665 0.70658 0.90552 0.0
C421 C 0.82656 0.69173 0.92341 0.0
C422 C 0.79731 0.76206 0.94116 0.0
C423 C 0.83639 0.69723 0.88051 0.0
H424 H 0.77126 0.74696 0.84746 0.0
H425 H 0.84308 0.79411 0.86795 0.0
H426 H 0.77821 0.69787 0.87703 0.0
H427 H 0.76403 0.72001 0.89845 0.0
H428 H 0.75499 0.71336 0.86624 0.0
H429 H 0.87007 0.78658 0.89747 0.0
H430 H 0.85274 0.77784 0.92289 0.0
H431 H 0.86572 0.7542 0.90206 0.0
H432 H 0.80079 0.72874 0.97008 0.0
H433 H 0.83342 0.67382 0.91893 0.0
H434 H 0.77995 0.75994 0.9299 0.0
H435 H 0.81058 0.77837 0.9369 0.0
H436 H 0.79293 0.7668 0.9609 0.0
H437 H 0.82077 0.6918 0.86653 0.0
H438 H 0.84553 0.68038 0.87995 0.0
H439 H 0.84997 0.71271 0.8752 0.0
C440 C 0.99081 0.98717 0.42353 0.0
C441 C 0.01651 0.9939 0.42064 0.0
C442 C 0.97338 0.99444 0.40905 0.0
C443 C 0.98185 0.00932 0.39166 0.0
C444 C 0.0077 0.01726 0.38948 0.0
C445 C 0.02469 0.00915 0.40369 0.0
C446 C 0.94593 0.98526 0.41161 0.0
C447 C 0.01747 0.03346 0.37138 0.0
C448 C 0.94219 0.00251 0.33393 0.0
C449 C 0.93085 0.02417 0.33953 0.0
C450 C 0.95838 0.99725 0.35098 0.0
C451 C 0.96386 0.01442 0.37402 0.0
C452 C 0.95263 0.03646 0.37977 0.0
C453 C 0.93595 0.04091 0.36253 0.0
C454 C 0.96958 0.97327 0.34432 0.0
C455 C 0.95855 0.05547 0.40394 0.0
H456 H 0.98425 0.97585 0.43688 0.0
H457 H 0.04442 0.01413 0.40086 0.0
H458 H 0.9358 0.00159 0.41456 0.0
H459 H 0.93805 0.97189 0.39434 0.0
H460 H 0.94235 0.97524 0.42707 0.0
H461 H 0.03785 0.04064 0.3741 0.0
H462 H 0.01368 0.02198 0.35235 0.0
H463 H 0.00781 0.05007 0.37311 0.0
H464 H 0.93806 0.98932 0.31629 0.0
H465 H 0.92725 0.05771 0.36686 0.0
H466 H 0.96533 0.96157 0.35841 0.0
H467 H 0.99015 0.97841 0.34398 0.0
H468 H 0.96249 0.96134 0.32607 0.0
H469 H 0.95396 0.04581 0.41947 0.0
H470 H 0.94815 0.07157 0.40565 0.0
H471 H 0.97881 0.06337 0.40575 0.0
C472 C 0.27171 0.26418 0.66419 0.0
C473 C 0.27965 0.29007 0.66372 0.0
C474 C 0.27532 0.24479 0.64417 0.0
C475 C 0.28715 0.25152 0.62326 0.0
C476 C 0.29708 0.27747 0.62359 0.0
C477 C 0.29314 0.29644 0.64378 0.0
C478 C 0.26466 0.21732 0.64462 0.0
C479 C 0.30989 0.28546 0.6017 0.0
C480 C 0.30263 0.20117 0.56957 0.0
C481 C 0.2822 0.19857 0.55329 0.0
C482 C 0.30439 0.21796 0.59276 0.0
C483 C 0.28526 0.23233 0.59967 0.0
C484 C 0.26439 0.22929 0.58348 0.0
C485 C 0.26314 0.21251 0.56054 0.0
C486 C 0.32688 0.22073 0.6096 0.0
C487 C 0.24351 0.24418 0.59015 0.0
H488 H 0.26167 0.25911 0.67975 0.0
H489 H 0.29918 0.31638 0.64312 0.0
H490 H 0.24738 0.21105 0.63275 0.0
H491 H 0.27793 0.20457 0.63721 0.0
H492 H 0.26001 0.21484 0.6635 0.0
H493 H 0.31988 0.30562 0.60628 0.0
H494 H 0.32339 0.27288 0.59457 0.0
H495 H 0.2958 0.28358 0.5867 0.0
H496 H 0.31739 0.1904 0.56409 0.0
H497 H 0.2472 0.2105 0.54816 0.0
H498 H 0.32096 0.21793 0.62805 0.0
H499 H 0.33783 0.24039 0.61209 0.0
H500 H 0.33919 0.20685 0.60229 0.0
H501 H 0.2356 0.24069 0.60773 0.0
H502 H 0.22823 0.23898 0.57578 0.0
H503 H 0.25085 0.26499 0.59286 0.0
C504 C 0.57135 0.61187 0.64425 0.0
C505 C 0.56462 0.60898 0.61939 0.0
C506 C 0.55321 0.61114 0.66199 0.0
C507 C 0.52771 0.60698 0.65457 0.0
C508 C 0.52095 0.60593 0.62971 0.0
C509 C 0.53958 0.60707 0.61236 0.0
C510 C 0.56129 0.61275 0.68833 0.0
C511 C 0.49399 0.60146 0.62106 0.0
C512 C 0.48663 0.5667 0.69179 0.0
C513 C 0.47614 0.58506 0.70804 0.0
C514 C 0.50256 0.57355 0.67367 0.0
C515 C 0.50847 0.59953 0.67189 0.0
C516 C 0.49739 0.61813 0.68777 0.0
C517 C 0.48118 0.61063 0.70562 0.0
C518 C 0.5137 0.55302 0.65693 0.0
C519 C 0.50341 0.64601 0.68653 0.0
H520 H 0.5908 0.61356 0.64964 0.0
H521 H 0.53444 0.60478 0.59308 0.0
H522 H 0.55121 0.62568 0.70113 0.0
H523 H 0.55668 0.5935 0.69272 0.0
H524 H 0.58165 0.61972 0.69173 0.0
H525 H 0.49197 0.60543 0.60243 0.0
H526 H 0.48547 0.58121 0.62037 0.0
H527 H 0.48336 0.61362 0.63404 0.0
H528 H 0.48258 0.54685 0.69336 0.0
H529 H 0.4731 0.62489 0.71815 0.0
H530 H 0.53417 0.55648 0.66052 0.0
H531 H 0.51038 0.55363 0.6374 0.0
H532 H 0.50585 0.53352 0.65958 0.0
H533 H 0.5231 0.65381 0.69276 0.0
H534 H 0.49128 0.6576 0.69824 0.0
H535 H 0.50136 0.64825 0.6673 0.0
C536 C 0.76951 0.28725 0.68753 0.0
C537 C 0.79055 0.30325 0.7001 0.0
C538 C 0.75929 0.29289 0.66649 0.0
C539 C 0.77065 0.31484 0.65795 0.0
C540 C 0.79155 0.33133 0.6712 0.0
C541 C 0.80122 0.3253 0.69216 0.0
C542 C 0.7369 0.27499 0.65298 0.0
C543 C 0.80434 0.35483 0.6627 0.0
C544 C 0.7688 0.3175 0.59054 0.0
C545 C 0.75295 0.33517 0.59008 0.0
C546 C 0.77366 0.30969 0.61226 0.0
C547 C 0.76229 0.31966 0.63412 0.0
C548 C 0.74513 0.33634 0.6335 0.0
C549 C 0.7407 0.34397 0.61146 0.0
C550 C 0.7921 0.29189 0.61209 0.0
C551 C 0.73243 0.34715 0.65637 0.0
H552 H 0.76139 0.27015 0.69384 0.0
H553 H 0.81757 0.33755 0.70203 0.0
H554 H 0.72235 0.28591 0.64951 0.0
H555 H 0.74238 0.26507 0.63482 0.0
H556 H 0.72876 0.26032 0.66334 0.0
H557 H 0.81953 0.36636 0.6758 0.0
H558 H 0.8124 0.34902 0.64453 0.0
H559 H 0.79067 0.36713 0.66035 0.0
H560 H 0.77822 0.31042 0.57407 0.0
H561 H 0.72832 0.35752 0.61124 0.0
H562 H 0.78415 0.27567 0.62058 0.0
H563 H 0.80911 0.30235 0.62321 0.0
H564 H 0.79764 0.2841 0.59321 0.0
H565 H 0.72457 0.33173 0.66593 0.0
H566 H 0.71725 0.35702 0.65219 0.0
H567 H 0.74629 0.3611 0.66928 0.0
C568 C 0.49676 0.99263 0.66461 0.0
C569 C 0.50818 0.99642 0.64283 0.0
C570 C 0.51108 0.9954 0.68632 0.0
C571 C 0.5373 0.00271 0.68627 0.0
C572 C 0.54892 0.00573 0.66409 0.0
C573 C 0.5342 0.00235 0.64258 0.0
C574 C 0.49809 0.99149 0.70951 0.0
C575 C 0.57678 0.01397 0.66334 0.0
C576 C 0.57134 0.0434 0.74427 0.0
C577 C 0.58431 0.0262 0.75216 0.0
C578 C 0.55561 0.03577 0.72315 0.0
C579 C 0.55236 0.01015 0.70977 0.0
C580 C 0.56461 0.99238 0.71812 0.0
C581 C 0.58069 0.00069 0.73915 0.0
C582 C 0.54318 0.05543 0.71466 0.0
C583 C 0.56115 0.96478 0.70456 0.0
H584 H 0.47663 0.98775 0.66468 0.0
H585 H 0.54299 0.00544 0.62574 0.0
H586 H 0.50742 0.9792 0.71875 0.0
H587 H 0.49922 0.01021 0.72251 0.0
H588 H 0.47814 0.98261 0.70578 0.0
H589 H 0.58304 0.01363 0.64431 0.0
H590 H 0.58239 0.03372 0.67442 0.0
H591 H 0.58669 0.00136 0.67156 0.0
H592 H 0.57409 0.06317 0.75418 0.0
H593 H 0.59057 0.9873 0.74526 0.0
H594 H 0.52269 0.04892 0.71289 0.0
H595 H 0.54964 0.05769 0.69622 0.0
H596 H 0.54724 0.07444 0.72747 0.0
H597 H 0.54101 0.95653 0.70151 0.0
H598 H 0.57012 0.9529 0.71467 0.0
H599 H 0.5693 0.96363 0.6862 0.0
C600 C 0.88021 0.25852 0.79038 0.0
C601 C 0.86785 0.23938 0.77119 0.0
C602 C 0.90163 0.25516 0.80235 0.0
C603 C 0.911 0.23212 0.79485 0.0
C604 C 0.89885 0.21285 0.77523 0.0
C605 C 0.87733 0.21668 0.76367 0.0
C606 C 0.91401 0.27613 0.82329 0.0
C607 C 0.90847 0.18818 0.76659 0.0
C608 C 0.97849 0.2389 0.81521 0.0
C609 C 0.97616 0.23035 0.83735 0.0
C610 C 0.95749 0.23798 0.80027 0.0
C611 C 0.93356 0.22849 0.80775 0.0
C612 C 0.93122 0.21816 0.82917 0.0
C613 C 0.9526 0.2191 0.84368 0.0
C614 C 0.96081 0.24879 0.77736 0.0
C615 C 0.90601 0.20782 0.83772 0.0
H616 H 0.87272 0.27591 0.7965 0.0
H617 H 0.86788 0.2019 0.74872 0.0
H618 H 0.91428 0.26865 0.84035 0.0
H619 H 0.93364 0.28273 0.81915 0.0
H620 H 0.90436 0.29286 0.82683 0.0
H621 H 0.89715 0.17535 0.75074 0.0
H622 H 0.92806 0.19234 0.76113 0.0
H623 H 0.90836 0.17788 0.78183 0.0
H624 H 0.99668 0.24735 0.81005 0.0
H625 H 0.95064 0.21243 0.86074 0.0
H626 H 0.95398 0.26724 0.78039 0.0
H627 H 0.94967 0.23565 0.7616 0.0
H628 H 0.98063 0.25222 0.77235 0.0
H629 H 0.89588 0.22385 0.84424 0.0
H630 H 0.90751 0.19776 0.85297 0.0
H631 H 0.89462 0.19439 0.82231 0.0
C632 C 0.51545 0.96167 0.54744 0.0
C633 C 0.49083 0.9647 0.55253 0.0
C634 C 0.5207 0.94292 0.52767 0.0
C635 C 0.50088 0.92719 0.51225 0.0
C636 C 0.47618 0.9315 0.51608 0.0
C637 C 0.47141 0.95011 0.53631 0.0
C638 C 0.54728 0.93886 0.52431 0.0
C639 C 0.45461 0.91544 0.49971 0.0
C640 C 0.51727 0.88493 0.45311 0.0
C641 C 0.51531 0.86125 0.45996 0.0
C642 C 0.51226 0.90657 0.4698 0.0
C643 C 0.50569 0.90452 0.49399 0.0
C644 C 0.50409 0.88074 0.50107 0.0
C645 C 0.50866 0.85935 0.4839 0.0
C646 C 0.51367 0.93149 0.46149 0.0
C647 C 0.49762 0.87789 0.52685 0.0
H648 H 0.53063 0.97335 0.55952 0.0
H649 H 0.45233 0.95226 0.5401 0.0
H650 H 0.54914 0.9202 0.52861 0.0
H651 H 0.5524 0.93814 0.50494 0.0
H652 H 0.56075 0.95416 0.53643 0.0
H653 H 0.43725 0.92353 0.5029 0.0
H654 H 0.45907 0.91377 0.48005 0.0
H655 H 0.45107 0.89582 0.50331 0.0
H656 H 0.52216 0.8864 0.43453 0.0
H657 H 0.50724 0.84112 0.48931 0.0
H658 H 0.5276 0.94661 0.47317 0.0
H659 H 0.49541 0.93789 0.46365 0.0
H660 H 0.51881 0.92983 0.44198 0.0
H661 H 0.51118 0.89147 0.54038 0.0
H662 H 0.49764 0.85819 0.52952 0.0
H663 H 0.47891 0.88266 0.53099 0.0
C664 C 0.16548 0.2883 0.74121 0.0
C665 C 0.18851 0.30462 0.74627 0.0
C666 C 0.15087 0.28173 0.76039 0.0
C667 C 0.15963 0.29188 0.7851 0.0
C668 C 0.18369 0.30712 0.79012 0.0
C669 C 0.19787 0.31345 0.77053 0.0
C670 C 0.12533 0.26544 0.75423 0.0
C671 C 0.19376 0.31814 0.81616 0.0
C672 C 0.10813 0.30468 0.82876 0.0
C673 C 0.10466 0.28317 0.83941 0.0
C674 C 0.12663 0.30816 0.81181 0.0
C675 C 0.14216 0.28968 0.80531 0.0
C676 C 0.13961 0.26852 0.81685 0.0
C677 C 0.12082 0.26549 0.83382 0.0
C678 C 0.12879 0.33109 0.80004 0.0
C679 C 0.15599 0.24857 0.81052 0.0
H680 H 0.15839 0.28161 0.72231 0.0
H681 H 0.21577 0.32616 0.77423 0.0
H682 H 0.12242 0.24994 0.76467 0.0
H683 H 0.1109 0.27741 0.75966 0.0
H684 H 0.12249 0.25671 0.73428 0.0
H685 H 0.21402 0.32608 0.81689 0.0
H686 H 0.18381 0.33373 0.82469 0.0
H687 H 0.19054 0.30333 0.82741 0.0
H688 H 0.09587 0.31857 0.83315 0.0
H689 H 0.11825 0.24884 0.84202 0.0
H690 H 0.12409 0.3246 0.78004 0.0
H691 H 0.14821 0.3418 0.80215 0.0
H692 H 0.1162 0.34439 0.80813 0.0
H693 H 0.15129 0.23749 0.79145 0.0
H694 H 0.15367 0.23503 0.82313 0.0
H695 H 0.17587 0.25782 0.81122 0.0
C696 C 0.57187 0.64768 0.50562 0.0
C697 C 0.58425 0.65983 0.52811 0.0
C698 C 0.56058 0.66159 0.49156 0.0
C699 C 0.56187 0.68825 0.50031 0.0
C700 C 0.57379 0.70039 0.52349 0.0
C701 C 0.58495 0.68596 0.53713 0.0
C702 C 0.54807 0.64796 0.46698 0.0
C703 C 0.57546 0.72873 0.53348 0.0
C704 C 0.5578 0.7298 0.45384 0.0
C705 C 0.53317 0.73397 0.45596 0.0
C706 C 0.56728 0.71476 0.46801 0.0
C707 C 0.55177 0.70364 0.48472 0.0
C708 C 0.52678 0.70744 0.48667 0.0
C709 C 0.51777 0.72254 0.47225 0.0
C710 C 0.59402 0.71105 0.46531 0.0
C711 C 0.50968 0.69587 0.50426 0.0
H712 H 0.57163 0.62742 0.49869 0.0
H713 H 0.5948 0.69524 0.55451 0.0
H714 H 0.52876 0.65165 0.46597 0.0
H715 H 0.55828 0.65546 0.45205 0.0
H716 H 0.54742 0.62695 0.4635 0.0
H717 H 0.58408 0.73493 0.55238 0.0
H718 H 0.58675 0.73962 0.5213 0.0
H719 H 0.55663 0.73384 0.53375 0.0
H720 H 0.56983 0.73855 0.44131 0.0
H721 H 0.49871 0.72568 0.47404 0.0
H722 H 0.59482 0.69034 0.46027 0.0
H723 H 0.60458 0.71893 0.48313 0.0
H724 H 0.60346 0.72054 0.45112 0.0
H725 H 0.50847 0.6748 0.50027 0.0
H726 H 0.49057 0.70016 0.50317 0.0
H727 H 0.51735 0.70333 0.52339 0.0
C728 C 0.83172 0.80232 0.76138 0.0
C729 C 0.83643 0.81375 0.78633 0.0
C730 C 0.85093 0.80302 0.74467 0.0
C731 C 0.87527 0.81597 0.75308 0.0
C732 C 0.8797 0.82888 0.77802 0.0
C733 C 0.86028 0.82727 0.79446 0.0
C734 C 0.84552 0.78852 0.71839 0.0
C735 C 0.90519 0.84346 0.78757 0.0
C736 C 0.92981 0.79144 0.71998 0.0
C737 C 0.93581 0.80816 0.70394 0.0
C738 C 0.91012 0.79378 0.73596 0.0
C739 C 0.89647 0.81379 0.73643 0.0
C740 C 0.90283 0.83115 0.72072 0.0
C741 C 0.92221 0.8279 0.70438 0.0
C742 C 0.9036 0.77449 0.75199 0.0
C743 C 0.88915 0.85312 0.72119 0.0
H744 H 0.81329 0.79163 0.75523 0.0
H745 H 0.86383 0.83611 0.8138 0.0
H746 H 0.85225 0.80098 0.70546 0.0
H747 H 0.85565 0.77216 0.71476 0.0
H748 H 0.82532 0.781 0.71437 0.0
H749 H 0.90477 0.85517 0.80646 0.0
H750 H 0.91807 0.82982 0.78793 0.0
H751 H 0.91296 0.85622 0.77522 0.0
H752 H 0.94011 0.776 0.71956 0.0
H753 H 0.92689 0.84097 0.69211 0.0
H754 H 0.88393 0.76469 0.74808 0.0
H755 H 0.90535 0.78434 0.77166 0.0
H756 H 0.91574 0.75979 0.74906 0.0
H757 H 0.86925 0.84566 0.71567 0.0
H758 H 0.89716 0.86566 0.7087 0.0
H759 H 0.8898 0.86485 0.74017 0.0
C760 C 0.04387 0.88363 0.4994 0.0
C761 C 0.0448 0.90964 0.50024 0.0
C762 C 0.03901 0.87363 0.52053 0.0
C763 C 0.03494 0.89017 0.54292 0.0
C764 C 0.03745 0.91682 0.54408 0.0
C765 C 0.04222 0.92626 0.52257 0.0
C766 C 0.03648 0.84512 0.51845 0.0
C767 C 0.0335 0.93509 0.5676 0.0
C768 C 0.98924 0.85787 0.58272 0.0
C769 C 0.00513 0.85164 0.59949 0.0
C770 C 0.99874 0.8714 0.56494 0.0
C771 C 0.02483 0.87901 0.56388 0.0
C772 C 0.04094 0.874 0.58155 0.0
C773 C 0.0309 0.86031 0.59917 0.0
C774 C 0.98085 0.87642 0.54651 0.0
C775 C 0.06883 0.88206 0.58115 0.0
H776 H 0.04573 0.87088 0.48194 0.0
H777 H 0.04282 0.94641 0.52299 0.0
H778 H 0.04749 0.84105 0.53347 0.0
H779 H 0.01668 0.83678 0.52033 0.0
H780 H 0.04272 0.83535 0.50054 0.0
H781 H 0.03991 0.95537 0.56648 0.0
H782 H 0.01337 0.93241 0.57145 0.0
H783 H 0.0435 0.93114 0.58337 0.0
H784 H 0.96929 0.85144 0.58294 0.0
H785 H 0.0433 0.85562 0.6121 0.0
H786 H 0.98394 0.8656 0.52785 0.0
H787 H 0.98424 0.89703 0.54595 0.0
H788 H 0.96106 0.87069 0.5508 0.0
H789 H 0.07598 0.87034 0.5648 0.0
H790 H 0.07851 0.87965 0.59787 0.0
H791 H 0.07366 0.90236 0.57961 0.0
C792 C 0.17368 0.76256 0.71392 0.0
C793 C 0.18732 0.77539 0.73551 0.0
C794 C 0.15062 0.76854 0.70843 0.0
C795 C 0.14112 0.78786 0.72502 0.0
C796 C 0.15522 0.80126 0.74671 0.0
C797 C 0.17828 0.79479 0.75175 0.0
C798 C 0.13615 0.75371 0.68517 0.0
C799 C 0.14572 0.82197 0.76477 0.0
C800 C 0.08788 0.81077 0.69725 0.0
C801 C 0.06721 0.79474 0.70401 0.0
C802 C 0.11214 0.80991 0.7052 0.0
C803 C 0.11572 0.79262 0.72018 0.0
C804 C 0.0948 0.77762 0.7283 0.0
C805 C 0.07083 0.77888 0.72013 0.0
C806 C 0.134 0.82638 0.69635 0.0
C807 C 0.09777 0.75899 0.74435 0.0
H808 H 0.1809 0.74755 0.70146 0.0
H809 H 0.18906 0.80466 0.76845 0.0
H810 H 0.11832 0.74282 0.68991 0.0
H811 H 0.1315 0.76705 0.67397 0.0
H812 H 0.14664 0.74004 0.67377 0.0
H813 H 0.15967 0.83173 0.77986 0.0
H814 H 0.14066 0.83646 0.75519 0.0
H815 H 0.12857 0.81358 0.77296 0.0
H816 H 0.08522 0.82314 0.68488 0.0
H817 H 0.05494 0.76661 0.72566 0.0
H818 H 0.1439 0.81414 0.68264 0.0
H819 H 0.14748 0.83601 0.71184 0.0
H820 H 0.12809 0.84116 0.68766 0.0
H821 H 0.10616 0.74309 0.7337 0.0
H822 H 0.07969 0.75073 0.75112 0.0
H823 H 0.11055 0.76852 0.76042 0.0
C824 C 0.98807 0.61741 0.52346 0.0
C825 C 0.97543 0.59753 0.53376 0.0
C826 C 0.99044 0.64312 0.53597 0.0
C827 C 0.9797 0.64903 0.55915 0.0
C828 C 0.96673 0.62909 0.56948 0.0
C829 C 0.96502 0.60366 0.55683 0.0
C830 C 0.00468 0.6639 0.52456 0.0
C831 C 0.95494 0.63455 0.59414 0.0
C832 C 0.00375 0.7094 0.60678 0.0
C833 C 0.98558 0.72437 0.60497 0.0
C834 C 0.00274 0.68539 0.59108 0.0
C835 C 0.98283 0.67588 0.57338 0.0
C836 C 0.96477 0.69115 0.57099 0.0
C837 C 0.96648 0.71535 0.58671 0.0
C838 C 0.02256 0.66986 0.59399 0.0
C839 C 0.94309 0.6815 0.55255 0.0
H840 H 0.99602 0.6129 0.50559 0.0
H841 H 0.95577 0.58849 0.5653 0.0
H842 H 0.99266 0.67791 0.52255 0.0
H843 H 0.02089 0.67449 0.5368 0.0
H844 H 0.01152 0.65618 0.50622 0.0
H845 H 0.94427 0.61697 0.59892 0.0
H846 H 0.96958 0.64344 0.60876 0.0
H847 H 0.94216 0.64836 0.59413 0.0
H848 H 0.01879 0.71641 0.62061 0.0
H849 H 0.95241 0.72685 0.58519 0.0
H850 H 0.0304 0.66304 0.57594 0.0
H851 H 0.0142 0.6527 0.60096 0.0
H852 H 0.03803 0.68097 0.60697 0.0
H853 H 0.94981 0.67467 0.53397 0.0
H854 H 0.93178 0.69644 0.55164 0.0
H855 H 0.93086 0.66495 0.55766 0.0
C856 C 0.7907 0.85073 0.28026 0.0
C857 C 0.77439 0.83617 0.26104 0.0
C858 C 0.79799 0.8772 0.28248 0.0
C859 C 0.78826 0.88935 0.26534 0.0
C860 C 0.77017 0.87497 0.24714 0.0
C861 C 0.76374 0.8484 0.24494 0.0
C862 C 0.81761 0.89174 0.30193 0.0
C863 C 0.75878 0.88734 0.22904 0.0
C864 C 0.80546 0.96188 0.28152 0.0
C865 C 0.82696 0.96596 0.26804 0.0
C866 C 0.79155 0.93714 0.27965 0.0
C867 C 0.79973 0.91604 0.26442 0.0
C868 C 0.82059 0.92025 0.24976 0.0
C869 C 0.83373 0.94517 0.25153 0.0
C870 C 0.76888 0.93347 0.29489 0.0
C871 C 0.8301 0.89827 0.23343 0.0
H872 H 0.79903 0.84114 0.29255 0.0
H873 H 0.75102 0.83702 0.23014 0.0
H874 H 0.83508 0.89799 0.29298 0.0
H875 H 0.81155 0.90919 0.31248 0.0
H876 H 0.82176 0.87996 0.315 0.0
H877 H 0.74189 0.87474 0.21927 0.0
H878 H 0.75374 0.90577 0.23851 0.0
H879 H 0.77255 0.89153 0.21515 0.0
H880 H 0.79997 0.97787 0.29416 0.0
H881 H 0.85028 0.94809 0.24099 0.0
H882 H 0.77336 0.92515 0.31059 0.0
H883 H 0.75333 0.9199 0.28381 0.0
H884 H 0.76252 0.95183 0.3023 0.0
H885 H 0.83642 0.88595 0.24489 0.0
H886 H 0.8459 0.9049 0.22242 0.0
H887 H 0.81497 0.88622 0.22064 0.0
C888 C 0.77423 0.18095 0.27551 0.0
C889 C 0.78158 0.20544 0.29038 0.0
C890 C 0.7875 0.16125 0.27652 0.0
C891 C 0.80878 0.16623 0.29263 0.0
C892 C 0.8169 0.19122 0.3069 0.0
C893 C 0.8031 0.2105 0.30572 0.0
C894 C 0.77809 0.13481 0.26119 0.0
C895 C 0.83968 0.19737 0.32403 0.0
C896 C 0.82408 0.10988 0.31636 0.0
C897 C 0.84288 0.10242 0.3008 0.0
C898 C 0.8131 0.1308 0.31405 0.0
C899 C 0.82127 0.14483 0.29592 0.0
C900 C 0.84069 0.13784 0.28056 0.0
C901 C 0.85118 0.1166 0.28308 0.0
C902 C 0.79231 0.13753 0.33068 0.0
C903 C 0.8501 0.15257 0.26124 0.0
H904 H 0.75745 0.17691 0.26383 0.0
H905 H 0.80897 0.2295 0.31703 0.0
H906 H 0.79328 0.12754 0.25022 0.0
H907 H 0.77187 0.12142 0.27344 0.0
H908 H 0.76225 0.13448 0.24847 0.0
H909 H 0.84483 0.21818 0.3321 0.0
H910 H 0.83612 0.18704 0.33924 0.0
H911 H 0.85576 0.19079 0.31412 0.0
H912 H 0.81752 0.09902 0.33006 0.0
H913 H 0.86577 0.11101 0.27107 0.0
H914 H 0.775 0.13581 0.31947 0.0
H915 H 0.79713 0.15767 0.34096 0.0
H916 H 0.78843 0.12496 0.34412 0.0
H917 H 0.83496 0.15089 0.24733 0.0
H918 H 0.86622 0.14556 0.2517 0.0
H919 H 0.85576 0.1732 0.26975 0.0
C920 C 0.40905 0.03222 0.05579 0.0
C921 C 0.42491 0.02754 0.03621 0.0
C922 C 0.38494 0.01784 0.05492 0.0
C923 C 0.37649 0.9984 0.03391 0.0
C924 C 0.39241 0.99362 0.01406 0.0
C925 C 0.41647 0.00822 0.01548 0.0
C926 C 0.36855 0.02335 0.07651 0.0
C927 C 0.38398 0.97315 0.9913 0.0
C928 C 0.32319 0.94506 0.0396 0.0
C929 C 0.30293 0.95287 0.02963 0.0
C930 C 0.34719 0.95983 0.04133 0.0
C931 C 0.35105 0.98291 0.03276 0.0
C932 C 0.33069 0.99104 0.02286 0.0
C933 C 0.30684 0.97596 0.02147 0.0
C934 C 0.36846 0.95064 0.05214 0.0
C935 C 0.33414 0.01553 0.01348 0.0
H936 H 0.41563 0.04694 0.07197 0.0
H937 H 0.4286 0.00476 0.0002 0.0
H938 H 0.35109 0.02848 0.07041 0.0
H939 H 0.36321 0.00596 0.08416 0.0
H940 H 0.3779 0.0392 0.09141 0.0
H941 H 0.39857 0.97195 0.97743 0.0
H942 H 0.3789 0.95424 0.99632 0.0
H943 H 0.36706 0.97705 0.98275 0.0
H944 H 0.32036 0.92731 0.04603 0.0
H945 H 0.29132 0.98214 0.0137 0.0
H946 H 0.37758 0.96544 0.06797 0.0
H947 H 0.38275 0.94747 0.03823 0.0
H948 H 0.36223 0.93254 0.05846 0.0
H949 H 0.3423 0.03197 0.02836 0.0
H950 H 0.31633 0.0193 0.00656 0.0
H951 H 0.34739 0.01456 0.99836 0.0
C952 C 0.22412 0.38576 0.31445 0.0
C953 C 0.24384 0.37652 0.30177 0.0
C954 C 0.21664 0.40811 0.31065 0.0
C955 C 0.22924 0.42149 0.2937 0.0
C956 C 0.24909 0.41196 0.28059 0.0
C957 C 0.25622 0.38947 0.28483 0.0
C958 C 0.19546 0.41758 0.32508 0.0
C959 C 0.26291 0.42566 0.26236 0.0
C960 C 0.19362 0.46857 0.27365 0.0
C961 C 0.20367 0.49144 0.29015 0.0
C962 C 0.20262 0.44582 0.27369 0.0
C963 C 0.22207 0.44597 0.29068 0.0
C964 C 0.233 0.46924 0.3066 0.0
C965 C 0.22369 0.49165 0.30614 0.0
C966 C 0.19054 0.42142 0.25634 0.0
C967 C 0.25376 0.47026 0.325 0.0
H968 H 0.21461 0.37554 0.32752 0.0
H969 H 0.27147 0.38211 0.27504 0.0
H970 H 0.20221 0.43684 0.33676 0.0
H971 H 0.18056 0.41948 0.31234 0.0
H972 H 0.18724 0.40459 0.33708 0.0
H973 H 0.27722 0.41525 0.25298 0.0
H974 H 0.24963 0.42805 0.24825 0.0
H975 H 0.27221 0.44511 0.2719 0.0
H976 H 0.17823 0.46824 0.26116 0.0
H977 H 0.23172 0.50925 0.31886 0.0
H978 H 0.17991 0.40828 0.26699 0.0
H979 H 0.20494 0.4115 0.24655 0.0
H980 H 0.17759 0.42497 0.24253 0.0
H981 H 0.24654 0.45937 0.33906 0.0
H982 H 0.26175 0.49018 0.3345 0.0
H983 H 0.26891 0.46114 0.31578 0.0
C984 C 0.11275 0.0168 0.43806 0.0
C985 C 0.10274 0.00401 0.45626 0.0
C986 C 0.13671 0.03157 0.44101 0.0
C987 C 0.15134 0.03325 0.4625 0.0
C988 C 0.14181 0.01966 0.48057 0.0
C989 C 0.11752 0.00525 0.47729 0.0
C990 C 0.14613 0.04586 0.42134 0.0
C991 C 0.15705 0.0208 0.50358 0.0
C992 C 0.22016 0.05881 0.45788 0.0
C993 C 0.2217 0.08475 0.46902 0.0
C994 C 0.19759 0.04148 0.45663 0.0
C995 C 0.17604 0.05043 0.4664 0.0
C996 C 0.17762 0.07646 0.47808 0.0
C997 C 0.20044 0.09325 0.47938 0.0
C998 C 0.19665 0.01377 0.44432 0.0
C999 C 0.15497 0.08682 0.48841 0.0
H1000 H 0.10177 0.01533 0.4214 0.0
H1001 H 0.10993 0.99541 0.49141 0.0
H1002 H 0.15 0.06675 0.42923 0.0
H1003 H 0.16388 0.04035 0.41444 0.0
H1004 H 0.13256 0.04211 0.40551 0.0
H1005 H 0.14775 0.00755 0.51488 0.0
H1006 H 0.17559 0.01592 0.49872 0.0
H1007 H 0.16026 0.04056 0.51492 0.0
H1008 H 0.23657 0.05205 0.45007 0.0
H1009 H 0.20145 0.11326 0.48804 0.0
H1010 H 0.18496 0.00906 0.42707 0.0
H1011 H 0.18791 0.00111 0.45639 0.0
H1012 H 0.21546 0.00939 0.43978 0.0
H1013 H 0.14109 0.08512 0.47327 0.0
H1014 H 0.15963 0.10722 0.49811 0.0
H1015 H 0.14598 0.07544 0.50142 0.0
C1016 C 0.77811 0.1811 0.73904 0.0
C1017 C 0.77817 0.20679 0.75004 0.0
C1018 C 0.76034 0.16153 0.74496 0.0
C1019 C 0.74259 0.16788 0.76265 0.0
C1020 C 0.74161 0.19392 0.7726 0.0
C1021 C 0.75937 0.21312 0.76602 0.0
C1022 C 0.76165 0.13404 0.73352 0.0
C1023 C 0.7231 0.20146 0.79165 0.0
C1024 C 0.68853 0.11665 0.77181 0.0
C1025 C 0.69783 0.1079 0.79142 0.0
C1026 C 0.70288 0.13612 0.76216 0.0
C1027 C 0.72691 0.14737 0.77263 0.0
C1028 C 0.73628 0.13885 0.79262 0.0
C1029 C 0.72171 0.11906 0.80163 0.0
C1030 C 0.69247 0.1444 0.74057 0.0
C1031 C 0.76174 0.15063 0.8045 0.0
H1032 H 0.79274 0.17629 0.72671 0.0
H1033 H 0.75967 0.23299 0.77475 0.0
H1034 H 0.76874 0.12489 0.74752 0.0
H1035 H 0.74283 0.12312 0.72707 0.0
H1036 H 0.77416 0.13246 0.71776 0.0
H1037 H 0.72291 0.22234 0.79547 0.0
H1038 H 0.70404 0.19097 0.7856 0.0
H1039 H 0.72797 0.19622 0.80907 0.0
H1040 H 0.67015 0.10798 0.76369 0.0
H1041 H 0.72895 0.11248 0.81685 0.0
H1042 H 0.70478 0.14125 0.72479 0.0
H1043 H 0.69195 0.16517 0.74537 0.0
H1044 H 0.67337 0.13381 0.73463 0.0
H1045 H 0.77627 0.14763 0.79082 0.0
H1046 H 0.76594 0.14239 0.82037 0.0
H1047 H 0.76302 0.1716 0.81096 0.0
C1048 C 0.39402 0.03368 0.55877 0.0
C1049 C 0.41938 0.04272 0.56435 0.0
C1050 C 0.38088 0.04453 0.54321 0.0
C1051 C 0.39355 0.06492 0.53317 0.0
C1052 C 0.41947 0.07352 0.53825 0.0
C1053 C 0.43211 0.0623 0.55391 0.0
C1054 C 0.35329 0.03479 0.53821 0.0
C1055 C 0.43362 0.09512 0.52784 0.0
C1056 C 0.36019 0.07999 0.47947 0.0
C1057 C 0.34836 0.0999 0.49137 0.0
C1058 C 0.37566 0.06895 0.4927 0.0
C1059 C 0.37933 0.07802 0.51844 0.0
C1060 C 0.36821 0.09876 0.5304 0.0
C1061 C 0.35288 0.10946 0.51671 0.0
C1062 C 0.38731 0.04698 0.47929 0.0
C1063 C 0.37174 0.10902 0.55782 0.0
H1064 H 0.3843 0.01859 0.56711 0.0
H1065 H 0.45178 0.06928 0.55852 0.0
H1066 H 0.34279 0.05021 0.54592 0.0
H1067 H 0.34896 0.02934 0.5181 0.0
H1068 H 0.34653 0.01797 0.54638 0.0
H1069 H 0.45398 0.09827 0.5321 0.0
H1070 H 0.43042 0.0911 0.50759 0.0
H1071 H 0.42671 0.11308 0.53554 0.0
H1072 H 0.35685 0.07252 0.45987 0.0
H1073 H 0.34385 0.12486 0.52605 0.0
H1074 H 0.37925 0.02925 0.48548 0.0
H1075 H 0.40765 0.05076 0.48368 0.0
H1076 H 0.38424 0.04352 0.45903 0.0
H1077 H 0.36335 0.09402 0.56766 0.0
H1078 H 0.36304 0.12619 0.56407 0.0
H1079 H 0.39187 0.11411 0.56321 0.0
C1080 C 0.65227 0.55895 0.57866 0.0
C1081 C 0.62644 0.55676 0.58077 0.0
C1082 C 0.66349 0.53715 0.57406 0.0
C1083 C 0.64845 0.51258 0.57118 0.0
C1084 C 0.62248 0.51034 0.57438 0.0
C1085 C 0.61178 0.5325 0.57925 0.0
C1086 C 0.69131 0.54037 0.57111 0.0
C1087 C 0.60578 0.48451 0.57126 0.0
C1088 C 0.67422 0.4605 0.52789 0.0
C1089 C 0.68487 0.44855 0.54425 0.0
C1090 C 0.66145 0.48066 0.53646 0.0
C1091 C 0.65955 0.48937 0.56209 0.0
C1092 C 0.66948 0.4768 0.57872 0.0
C1093 C 0.68192 0.45636 0.56957 0.0
C1094 C 0.65077 0.49324 0.51807 0.0
C1095 C 0.66793 0.48566 0.60616 0.0
H1096 H 0.66366 0.57772 0.58015 0.0
H1097 H 0.59176 0.53074 0.5807 0.0
H1098 H 0.69966 0.52916 0.58243 0.0
H1099 H 0.69522 0.53293 0.55164 0.0
H1100 H 0.70063 0.56073 0.57649 0.0
H1101 H 0.58658 0.48612 0.57716 0.0
H1102 H 0.60474 0.47456 0.55162 0.0
H1103 H 0.61353 0.47235 0.58195 0.0
H1104 H 0.67627 0.45439 0.50828 0.0
H1105 H 0.69024 0.44725 0.58229 0.0
H1106 H 0.66078 0.51325 0.52023 0.0
H1107 H 0.63085 0.494 0.52147 0.0
H1108 H 0.65228 0.48301 0.49878 0.0
H1109 H 0.67949 0.50498 0.61223 0.0
H1110 H 0.67456 0.4725 0.6165 0.0
H1111 H 0.64849 0.48729 0.61104 0.0
C1112 C 0.71091 0.26803 0.34529 0.0
C1113 C 0.73585 0.26992 0.33874 0.0
C1114 C 0.70466 0.27993 0.36885 0.0
C1115 C 0.72382 0.29442 0.3859 0.0
C1116 C 0.74898 0.29687 0.37902 0.0
C1117 C 0.75469 0.28435 0.35561 0.0
C1118 C 0.67771 0.27652 0.37569 0.0
C1119 C 0.76993 0.31259 0.39645 0.0
C1120 C 0.7134 0.34606 0.44016 0.0
C1121 C 0.71748 0.33473 0.45995 0.0
C1122 C 0.71385 0.33259 0.41577 0.0
C1123 C 0.71796 0.30704 0.41108 0.0
C1124 C 0.71979 0.29478 0.43095 0.0
C1125 C 0.71978 0.30886 0.45518 0.0
C1126 C 0.71208 0.34646 0.39515 0.0
C1127 C 0.72352 0.26733 0.42667 0.0
H1128 H 0.6964 0.25665 0.33221 0.0
H1129 H 0.77395 0.28587 0.35039 0.0
H1130 H 0.67527 0.26658 0.39126 0.0
H1131 H 0.6721 0.29542 0.38195 0.0
H1132 H 0.665 0.26525 0.3601 0.0
H1133 H 0.78834 0.31341 0.38785 0.0
H1134 H 0.76647 0.33242 0.40274 0.0
H1135 H 0.7708 0.30432 0.41298 0.0
H1136 H 0.7116 0.36605 0.44364 0.0
H1137 H 0.72267 0.2999 0.47037 0.0
H1138 H 0.69919 0.33449 0.38008 0.0
H1139 H 0.73071 0.35038 0.38735 0.0
H1140 H 0.70562 0.36496 0.40154 0.0
H1141 H 0.71053 0.25511 0.41179 0.0
H1142 H 0.72067 0.25947 0.44355 0.0
H1143 H 0.74277 0.26615 0.42075 0.0
C1144 C 0.56046 0.06878 0.98708 0.0
C1145 C 0.5483 0.04417 0.98815 0.0
C1146 C 0.5756 0.07275 0.96733 0.0
C1147 C 0.57834 0.05157 0.94837 0.0
C1148 C 0.56616 0.02665 0.94971 0.0
C1149 C 0.55127 0.02328 0.96966 0.0
C1150 C 0.58832 0.09955 0.96654 0.0
C1151 C 0.5685 0.00359 0.92985 0.0
C1152 C 0.59454 0.05953 0.88391 0.0
C1153 C 0.6195 0.05618 0.88305 0.0
C1154 C 0.58123 0.0591 0.90538 0.0
C1155 C 0.59314 0.05531 0.92659 0.0
C1156 C 0.61859 0.05299 0.92622 0.0
C1157 C 0.63147 0.0534 0.90444 0.0
C1158 C 0.55409 0.06162 0.90503 0.0
C1159 C 0.63195 0.04906 0.94853 0.0
H1160 H 0.55794 0.08486 0.00153 0.0
H1161 H 0.54167 0.00428 0.97066 0.0
H1162 H 0.60868 0.10026 0.96479 0.0
H1163 H 0.58132 0.10523 0.95014 0.0
H1164 H 0.58513 0.11376 0.98322 0.0
H1165 H 0.55831 0.98548 0.93399 0.0
H1166 H 0.56105 0.00583 0.91202 0.0
H1167 H 0.5884 0.00202 0.92757 0.0
H1168 H 0.58512 0.06181 0.86755 0.0
H1169 H 0.65077 0.05094 0.90403 0.0
H1170 H 0.55049 0.07667 0.92077 0.0
H1171 H 0.54235 0.04335 0.90702 0.0
H1172 H 0.54811 0.0664 0.88772 0.0
H1173 H 0.62924 0.06375 0.96496 0.0
H1174 H 0.65226 0.04994 0.94598 0.0
H1175 H 0.62399 0.0301 0.95236 0.0
C1176 C 0.32084 0.27061 0.35378 0.0
C1177 C 0.29873 0.27002 0.34054 0.0
C1178 C 0.32209 0.25338 0.36918 0.0
C1179 C 0.30074 0.2351 0.37138 0.0
C1180 C 0.27858 0.23396 0.35755 0.0
C1181 C 0.27784 0.25144 0.34233 0.0
C1182 C 0.34602 0.25528 0.3837 0.0
C1183 C 0.25544 0.21469 0.3593 0.0
C1184 C 0.30639 0.17787 0.39924 0.0
C1185 C 0.29856 0.18579 0.42319 0.0
C1186 C 0.30762 0.19387 0.38223 0.0
C1187 C 0.30095 0.21835 0.38939 0.0
C1188 C 0.29365 0.22667 0.41369 0.0
C1189 C 0.29251 0.21031 0.43024 0.0
C1190 C 0.31551 0.18437 0.35647 0.0
C1191 C 0.28653 0.25269 0.42211 0.0
H1192 H 0.33698 0.28506 0.35266 0.0
H1193 H 0.26083 0.25063 0.33185 0.0
H1194 H 0.34301 0.26126 0.40363 0.0
H1195 H 0.35181 0.23632 0.38077 0.0
H1196 H 0.36144 0.26928 0.3786 0.0
H1197 H 0.2402 0.21531 0.34628 0.0
H1198 H 0.2598 0.19507 0.35546 0.0
H1199 H 0.24863 0.21847 0.37826 0.0
H1200 H 0.31109 0.15897 0.39361 0.0
H1201 H 0.28657 0.21672 0.44872 0.0
H1202 H 0.33132 0.1982 0.35183 0.0
H1203 H 0.29992 0.18288 0.3431 0.0
H1204 H 0.32117 0.16535 0.35411 0.0
H1205 H 0.3019 0.26787 0.41903 0.0
H1206 H 0.28217 0.25665 0.44189 0.0
H1207 H 0.26996 0.25399 0.41115 0.0
C1208 C 0.51009 0.52046 0.91719 0.0
C1209 C 0.52854 0.53826 0.93223 0.0
C1210 C 0.49749 0.52729 0.89827 0.0
C1211 C 0.50352 0.55252 0.89429 0.0
C1212 C 0.52205 0.57062 0.90946 0.0
C1213 C 0.53431 0.56328 0.92828 0.0
C1214 C 0.47785 0.50744 0.88242 0.0
C1215 C 0.52894 0.59771 0.90579 0.0
C1216 C 0.48653 0.56123 0.83083 0.0
C1217 C 0.46379 0.5699 0.83478 0.0
C1218 C 0.50001 0.55618 0.85019 0.0
C1219 C 0.49052 0.55983 0.87407 0.0
C1220 C 0.46806 0.56943 0.87839 0.0
C1221 C 0.45498 0.5744 0.8587 0.0
C1222 C 0.52402 0.54615 0.84493 0.0
C1223 C 0.45739 0.57361 0.90364 0.0
H1224 H 0.50576 0.50103 0.91999 0.0
H1225 H 0.5483 0.57724 0.94008 0.0
H1226 H 0.4598 0.51429 0.88332 0.0
H1227 H 0.48318 0.5044 0.86293 0.0
H1228 H 0.47514 0.48877 0.88813 0.0
H1229 H 0.54377 0.60945 0.91918 0.0
H1230 H 0.5355 0.59757 0.88691 0.0
H1231 H 0.5123 0.60704 0.9077 0.0
H1232 H 0.49356 0.55779 0.81245 0.0
H1233 H 0.43745 0.5811 0.86197 0.0
H1234 H 0.52187 0.52644 0.8482 0.0
H1235 H 0.5393 0.55816 0.85758 0.0
H1236 H 0.5296 0.54577 0.82569 0.0
H1237 H 0.45237 0.55501 0.90928 0.0
H1238 H 0.44052 0.58256 0.90423 0.0
H1239 H 0.47152 0.586 0.91737 0.0
C1240 C 0.7722 0.73238 0.19218 0.0
C1241 C 0.78675 0.75521 0.20512 0.0
C1242 C 0.77781 0.72125 0.1682 0.0
C1243 C 0.79841 0.73329 0.15689 0.0
C1244 C 0.81397 0.75555 0.17034 0.0
C1245 C 0.80797 0.76623 0.19432 0.0
C1246 C 0.7608 0.69743 0.15448 0.0
C1247 C 0.83615 0.76888 0.15896 0.0
C1248 C 0.81724 0.69537 0.09642 0.0
C1249 C 0.80367 0.70396 0.07939 0.0
C1250 C 0.81642 0.7053 0.1218 0.0
C1251 C 0.80179 0.72428 0.13019 0.0
C1252 C 0.78902 0.73383 0.11297 0.0
C1253 C 0.79008 0.72352 0.08782 0.0
C1254 C 0.83032 0.69473 0.13964 0.0
C1255 C 0.77342 0.75427 0.12114 0.0
H1256 H 0.7557 0.72386 0.20032 0.0
H1257 H 0.81957 0.78361 0.20443 0.0
H1258 H 0.75026 0.7022 0.13951 0.0
H1259 H 0.77183 0.68284 0.14582 0.0
H1260 H 0.74724 0.68893 0.16666 0.0
H1261 H 0.84805 0.78406 0.17274 0.0
H1262 H 0.84769 0.75492 0.14997 0.0
H1263 H 0.8296 0.7778 0.14452 0.0
H1264 H 0.82775 0.68022 0.09 0.0
H1265 H 0.7797 0.7304 0.07474 0.0
H1266 H 0.81679 0.68375 0.15008 0.0
H1267 H 0.84168 0.71053 0.15321 0.0
H1268 H 0.84274 0.6819 0.13019 0.0
H1269 H 0.75759 0.74684 0.13166 0.0
H1270 H 0.76584 0.76063 0.10538 0.0
H1271 H 0.78467 0.77116 0.13355 0.0
C1272 C 0.0034 0.08537 0.13395 0.0
C1273 C 0.02772 0.08208 0.13876 0.0
C1274 C 0.98415 0.07932 0.14957 0.0
C1275 C 0.98952 0.07027 0.17072 0.0
C1276 C 0.01423 0.06758 0.17598 0.0
C1277 C 0.033 0.07326 0.15976 0.0
C1278 C 0.95796 0.08192 0.14308 0.0
C1279 C 0.0208 0.05844 0.19859 0.0
C1280 C 0.9445 0.07183 0.22288 0.0
C1281 C 0.93357 0.04593 0.21938 0.0
C1282 C 0.96247 0.08021 0.20691 0.0
C1283 C 0.96916 0.06231 0.18673 0.0
C1284 C 0.95724 0.03637 0.18249 0.0
C1285 C 0.93982 0.02845 0.19904 0.0
C1286 C 0.97509 0.10794 0.21225 0.0
C1287 C 0.9634 0.01681 0.16085 0.0
H1288 H 0.99934 0.09206 0.11759 0.0
H1289 H 0.05189 0.07097 0.16355 0.0
H1290 H 0.94567 0.06287 0.13973 0.0
H1291 H 0.9504 0.09437 0.15862 0.0
H1292 H 0.95706 0.09005 0.12643 0.0
H1293 H 0.04115 0.05902 0.20086 0.0
H1294 H 0.01448 0.07043 0.21527 0.0
H1295 H 0.01103 0.03849 0.19741 0.0
H1296 H 0.93983 0.08535 0.23871 0.0
H1297 H 0.93125 0.00843 0.1962 0.0
H1298 H 0.97383 0.11619 0.19577 0.0
H1299 H 0.99517 0.10933 0.2168 0.0
H1300 H 0.9668 0.11968 0.22784 0.0
H1301 H 0.9618 0.02361 0.14355 0.0
H1302 H 0.951 0.99792 0.15903 0.0
H1303 H 0.98295 0.0142 0.163 0.0
C1304 C 0.26594 0.80627 0.18145 0.0
C1305 C 0.28715 0.8227 0.19322 0.0
C1306 C 0.25474 0.81135 0.16062 0.0
C1307 C 0.26526 0.8332 0.15149 0.0
C1308 C 0.28643 0.85006 0.16387 0.0
C1309 C 0.29709 0.84457 0.18463 0.0
C1310 C 0.23213 0.79304 0.14801 0.0
C1311 C 0.29834 0.87348 0.15474 0.0
C1312 C 0.26062 0.83618 0.08435 0.0
C1313 C 0.24466 0.85392 0.0848 0.0
C1314 C 0.26623 0.82801 0.10568 0.0
C1315 C 0.25557 0.83774 0.12805 0.0
C1316 C 0.23813 0.85429 0.12829 0.0
C1317 C 0.23289 0.86224 0.10663 0.0
C1318 C 0.2849 0.81031 0.10456 0.0
C1319 C 0.22617 0.86485 0.15172 0.0
H1320 H 0.25837 0.78933 0.18829 0.0
H1321 H 0.31356 0.85718 0.19391 0.0
H1322 H 0.21706 0.80365 0.1453 0.0
H1323 H 0.23694 0.78324 0.12954 0.0
H1324 H 0.22492 0.7783 0.15863 0.0
H1325 H 0.31403 0.8852 0.16711 0.0
H1326 H 0.3055 0.86759 0.13616 0.0
H1327 H 0.28431 0.88563 0.15309 0.0
H1328 H 0.26963 0.82943 0.06752 0.0
H1329 H 0.22045 0.87585 0.1071 0.0
H1330 H 0.27772 0.79422 0.11352 0.0
H1331 H 0.30238 0.82095 0.11473 0.0
H1332 H 0.28942 0.80233 0.08537 0.0
H1333 H 0.21923 0.8494 0.16158 0.0
H1334 H 0.21044 0.87431 0.1482 0.0
H1335 H 0.24026 0.87913 0.16409 0.0
C1336 C 0.99503 0.48311 0.13667 0.0
C1337 C 0.00457 0.48142 0.11315 0.0
C1338 C 0.01066 0.49326 0.1578 0.0
C1339 C 0.03631 0.50222 0.15524 0.0
C1340 C 0.04587 0.50111 0.13148 0.0
C1341 C 0.0299 0.49055 0.11072 0.0
C1342 C -0.00015 0.49391 0.18282 0.0
C1343 C 0.07301 0.51088 0.128 0.0
C1344 C 0.073 0.54903 0.20887 0.0
C1345 C 0.08644 0.53324 0.21849 0.0
C1346 C 0.05656 0.53916 0.18835 0.0
C1347 C 0.05321 0.51278 0.17738 0.0
C1348 C 0.06643 0.49664 0.18721 0.0
C1349 C 0.08306 0.50711 0.20756 0.0
C1350 C 0.04308 0.55704 0.17819 0.0
C1351 C 0.06308 0.46834 0.17615 0.0
H1352 H 0.97549 0.47576 0.13853 0.0
H1353 H 0.03722 0.48936 0.09249 0.0
H1354 H 0.00928 0.48237 0.19291 0.0
H1355 H 0.00319 0.51381 0.19384 0.0
H1356 H 0.9795 0.48636 0.18164 0.0
H1357 H 0.07731 0.50928 0.10829 0.0
H1358 H 0.0782 0.53123 0.13763 0.0
H1359 H 0.08486 0.49991 0.13623 0.0
H1360 H 0.07562 0.56928 0.21714 0.0
H1361 H 0.09331 0.49481 0.21498 0.0
H1362 H 0.02265 0.55046 0.17809 0.0
H1363 H 0.0481 0.55689 0.15885 0.0
H1364 H 0.04762 0.57705 0.18898 0.0
H1365 H 0.0431 0.45948 0.1758 0.0
H1366 H 0.07403 0.45825 0.1865 0.0
H1367 H 0.06894 0.46531 0.15683 0.0
C1368 C 0.37886 0.74708 0.26788 0.0
C1369 C 0.36653 0.7681 0.27311 0.0
C1370 C 0.39968 0.74607 0.28231 0.0
C1371 C 0.40826 0.76651 0.30246 0.0
C1372 C 0.396 0.78785 0.30767 0.0
C1373 C 0.37532 0.78839 0.29293 0.0
C1374 C 0.4124 0.7231 0.2761 0.0
C1375 C 0.40453 0.81 0.32907 0.0
C1376 C 0.44622 0.7587 0.35668 0.0
C1377 C 0.46993 0.7716 0.35257 0.0
C1378 C 0.42615 0.75573 0.33985 0.0
C1379 C 0.42995 0.76577 0.31836 0.0
C1380 C 0.45415 0.77732 0.31335 0.0
C1381 C 0.47384 0.78016 0.33053 0.0
C1382 C 0.4006 0.7432 0.34579 0.0
C1383 C 0.45901 0.788 0.29049 0.0
H1384 H 0.37223 0.73144 0.25246 0.0
H1385 H 0.36562 0.80447 0.2973 0.0
H1386 H 0.43236 0.7293 0.27281 0.0
H1387 H 0.41165 0.71342 0.29183 0.0
H1388 H 0.40368 0.70902 0.25956 0.0
H1389 H 0.39308 0.82523 0.33051 0.0
H1390 H 0.40354 0.8031 0.34651 0.0
H1391 H 0.42425 0.81852 0.32713 0.0
H1392 H 0.44302 0.75195 0.3736 0.0
H1393 H 0.49215 0.78992 0.32705 0.0
H1394 H 0.39189 0.72845 0.32974 0.0
H1395 H 0.3884 0.75778 0.34997 0.0
H1396 H 0.40122 0.7341 0.36185 0.0
H1397 H 0.4507 0.77372 0.27395 0.0
H1398 H 0.47924 0.79372 0.28791 0.0
H1399 H 0.45007 0.80505 0.29179 0.0
C1400 C 0.97212 0.39329 0.02285 0.0
C1401 C 0.98936 0.41467 0.03494 0.0
C1402 C 0.97965 0.37389 0.00517 0.0
C1403 C 0.00519 0.37537 3e-05 0.0
C1404 C 0.02282 0.39648 0.01253 0.0
C1405 C 0.01465 0.41607 0.02949 0.0
C1406 C 0.96022 0.35191 0.99182 0.0
C1407 C 0.0503 0.39839 0.00796 0.0
C1408 C 0.02387 0.31241 0.96963 0.0
C1409 C 0.0255 0.31476 0.94507 0.0
C1410 C 0.01826 0.33245 0.98793 0.0
C1411 C 0.01333 0.35494 0.98128 0.0
C1412 C 0.01516 0.35746 0.95651 0.0
C1413 C 0.02163 0.33747 0.93874 0.0
C1414 C 0.01727 0.32941 0.01428 0.0
C1415 C 0.00934 0.38084 0.94859 0.0
H1416 H 0.95264 0.39155 0.02723 0.0
H1417 H 0.02816 0.43263 0.03828 0.0
H1418 H 0.96124 0.35042 0.97166 0.0
H1419 H 0.96386 0.33363 0.99568 0.0
H1420 H 0.94101 0.35414 0.99726 0.0
H1421 H 0.06174 0.41523 0.02032 0.0
H1422 H 0.05669 0.38082 0.01071 0.0
H1423 H 0.05374 0.39985 0.98864 0.0
H1424 H 0.02702 0.29488 0.97453 0.0
H1425 H 0.02264 0.33917 0.91969 0.0
H1426 H 0.99792 0.32878 0.02053 0.0
H1427 H 0.02909 0.3461 0.02643 0.0
H1428 H 0.02362 0.31168 0.01667 0.0
H1429 H 0.98972 0.38268 0.95254 0.0
H1430 H 0.01202 0.37998 0.92867 0.0
H1431 H 0.02135 0.39837 0.9592 0.0
C1432 C 0.68685 0.75495 0.30669 0.0
C1433 C 0.71095 0.76647 0.31571 0.0
C1434 C 0.66605 0.76165 0.31946 0.0
C1435 C 0.66959 0.78031 0.34176 0.0
C1436 C 0.69407 0.79176 0.35107 0.0
C1437 C 0.71457 0.78469 0.33782 0.0
C1438 C 0.64028 0.74907 0.30887 0.0
C1439 C 0.69857 0.81167 0.37477 0.0
C1440 C 0.61482 0.81405 0.35884 0.0
C1441 C 0.60265 0.80014 0.3753 0.0
C1442 C 0.63711 0.80838 0.34846 0.0
C1443 C 0.64755 0.78835 0.35473 0.0
C1444 C 0.63589 0.77489 0.37206 0.0
C1445 C 0.61354 0.78091 0.38211 0.0
C1446 C 0.64898 0.82317 0.33005 0.0
C1447 C 0.64655 0.75351 0.37931 0.0
H1448 H 0.68428 0.74089 0.28946 0.0
H1449 H 0.73338 0.79357 0.3446 0.0
H1450 H 0.62958 0.73971 0.32246 0.0
H1451 H 0.63001 0.76377 0.30484 0.0
H1452 H 0.64077 0.73449 0.29167 0.0
H1453 H 0.71872 0.81795 0.37999 0.0
H1454 H 0.69058 0.82864 0.37291 0.0
H1455 H 0.68901 0.80398 0.38992 0.0
H1456 H 0.60659 0.82899 0.35353 0.0
H1457 H 0.60431 0.77014 0.3949 0.0
H1458 H 0.64832 0.81018 0.31169 0.0
H1459 H 0.66888 0.83095 0.33537 0.0
H1460 H 0.63947 0.83927 0.3284 0.0
H1461 H 0.64554 0.73733 0.3632 0.0
H1462 H 0.6364 0.74635 0.39447 0.0
H1463 H 0.66649 0.76009 0.38516 0.0
C1464 C 0.07609 0.13239 0.02329 0.0
C1465 C 0.07739 0.15131 0.04482 0.0
C1466 C 0.07231 0.13819 0.00023 0.0
C1467 C 0.06942 0.16335 0.99901 0.0
C1468 C 0.07192 0.18269 0.02082 0.0
C1469 C 0.07591 0.17638 0.0435 0.0
C1470 C 0.07012 0.11717 0.9774 0.0
C1471 C 0.06888 0.20972 0.02042 0.0
C1472 C 0.06974 0.19078 0.94163 0.0
C1473 C 0.04421 0.19039 0.9379 0.0
C1474 C 0.07832 0.18018 0.96036 0.0
C1475 C 0.06095 0.16913 0.97568 0.0
C1476 C 0.0351 0.16687 0.97065 0.0
C1477 C 0.02707 0.17746 0.95179 0.0
C1478 C 0.106 0.18251 0.96485 0.0
C1479 C 0.0159 0.15513 0.98644 0.0
H1480 H 0.07718 0.11295 0.02455 0.0
H1481 H 0.07683 0.19088 0.06034 0.0
H1482 H 0.05033 0.11139 0.97079 0.0
H1483 H 0.08086 0.12402 0.96243 0.0
H1484 H 0.07685 0.10003 0.9809 0.0
H1485 H 0.07313 0.22284 0.03871 0.0
H1486 H 0.08129 0.21732 0.0069 0.0
H1487 H 0.04943 0.20981 0.0146 0.0
H1488 H 0.08311 0.2006 0.93087 0.0
H1489 H 0.00729 0.17679 0.94884 0.0
H1490 H 0.11044 0.1645 0.9687 0.0
H1491 H 0.11234 0.19797 0.98122 0.0
H1492 H 0.11668 0.18715 0.94891 0.0
H1493 H 0.01971 0.13636 0.98878 0.0
H1494 H 0.99665 0.15236 0.97853 0.0
H1495 H 0.0169 0.1678 0.005 0.0
C1496 C 0.34432 0.29914 0.26358 0.0
C1497 C 0.33601 0.31957 0.27917 0.0
C1498 C 0.36504 0.30332 0.24919 0.0
C1499 C 0.3779 0.3286 0.25047 0.0
C1500 C 0.36908 0.34944 0.26551 0.0
C1501 C 0.34811 0.34467 0.27965 0.0
C1502 C 0.37361 0.28057 0.23317 0.0
C1503 C 0.38231 0.37664 0.26737 0.0
C1504 C 0.44545 0.33074 0.2337 0.0
C1505 C 0.44433 0.33201 0.20881 0.0
C1506 C 0.42423 0.33116 0.2479 0.0
C1507 C 0.40127 0.33275 0.23693 0.0
C1508 C 0.40029 0.33545 0.21221 0.0
C1509 C 0.42185 0.33511 0.19846 0.0
C1510 C 0.42611 0.32849 0.27428 0.0
C1511 C 0.37618 0.33718 0.19984 0.0
H1512 H 0.33474 0.27974 0.26291 0.0
H1513 H 0.34175 0.36049 0.29178 0.0
H1514 H 0.37509 0.2831 0.21393 0.0
H1515 H 0.39242 0.27905 0.23971 0.0
H1516 H 0.36077 0.2623 0.23328 0.0
H1517 H 0.37191 0.39078 0.27818 0.0
H1518 H 0.40106 0.37926 0.27632 0.0
H1519 H 0.38506 0.38076 0.24876 0.0
H1520 H 0.46276 0.32858 0.24196 0.0
H1521 H 0.42076 0.33621 0.17927 0.0
H1522 H 0.41568 0.30952 0.27603 0.0
H1523 H 0.41755 0.34328 0.28652 0.0
H1524 H 0.44572 0.33019 0.28082 0.0
H1525 H 0.36339 0.31846 0.19715 0.0
H1526 H 0.37911 0.34232 0.18163 0.0
H1527 H 0.36677 0.35159 0.21159 0.0
C1528 C 0.53381 0.47618 0.06074 0.0
C1529 C 0.54075 0.46861 0.03654 0.0
C1530 C 0.53225 0.45939 0.07696 0.0
C1531 C 0.53763 0.43449 0.06854 0.0
C1532 C 0.54652 0.42761 0.04458 0.0
C1533 C 0.54784 0.44479 0.02876 0.0
C1534 C 0.52277 0.46753 0.10233 0.0
C1535 C 0.55259 0.40135 0.03493 0.0
C1536 C 0.53865 0.39085 0.11391 0.0
C1537 C 0.51442 0.37645 0.11027 0.0
C1538 C 0.54666 0.40982 0.10044 0.0
C1539 C 0.52998 0.41449 0.08306 0.0
C1540 C 0.50551 0.40004 0.07942 0.0
C1541 C 0.49808 0.38123 0.09301 0.0
C1542 C 0.57289 0.42479 0.10472 0.0
C1543 C 0.48707 0.40444 0.06113 0.0
H1544 H 0.52813 0.49462 0.06655 0.0
H1545 H 0.55302 0.43901 0.00987 0.0
H1546 H 0.50327 0.4576 0.10295 0.0
H1547 H 0.53401 0.46207 0.11634 0.0
H1548 H 0.52315 0.48851 0.10736 0.0
H1549 H 0.56295 0.40043 0.01769 0.0
H1550 H 0.56382 0.3957 0.04883 0.0
H1551 H 0.53504 0.38711 0.03108 0.0
H1552 H 0.55141 0.38722 0.12718 0.0
H1553 H 0.47932 0.37026 0.09007 0.0
H1554 H 0.5725 0.44553 0.11062 0.0
H1555 H 0.58293 0.42213 0.08731 0.0
H1556 H 0.58356 0.41888 0.1189 0.0
H1557 H 0.48412 0.42457 0.0659 0.0
H1558 H 0.46873 0.39162 0.06057 0.0
H1559 H 0.49455 0.40123 0.04243 0.0
C1560 C 0.68633 0.2977 0.25622 0.0
C1561 C 0.69039 0.27507 0.24074 0.0
C1562 C 0.66517 0.3082 0.25243 0.0
C1563 C 0.64787 0.29555 0.2328 0.0
C1564 C 0.65231 0.27281 0.21697 0.0
C1565 C 0.67358 0.26285 0.22117 0.0
C1566 C 0.6611 0.33247 0.26961 0.0
C1567 C 0.6343 0.25865 0.1959 0.0
C1568 C 0.57943 0.29985 0.23334 0.0
C1569 C 0.57756 0.3142 0.21539 0.0
C1570 C 0.60253 0.2951 0.24045 0.0
C1571 C 0.62433 0.30497 0.22937 0.0
C1572 C 0.62283 0.32112 0.21266 0.0
C1573 C 0.59941 0.32555 0.20584 0.0
C1574 C 0.60329 0.27791 0.25844 0.0
C1575 C 0.64571 0.33224 0.20066 0.0
H1576 H 0.69953 0.30703 0.27136 0.0
H1577 H 0.67694 0.24531 0.20927 0.0
H1578 H 0.65812 0.3469 0.25896 0.0
H1579 H 0.64406 0.32847 0.28001 0.0
H1580 H 0.67708 0.34082 0.28296 0.0
H1581 H 0.64093 0.24173 0.18485 0.0
H1582 H 0.61592 0.25209 0.20313 0.0
H1583 H 0.63143 0.27162 0.18359 0.0
H1584 H 0.56266 0.29122 0.24102 0.0
H1585 H 0.59813 0.33674 0.19203 0.0
H1586 H 0.6183 0.28639 0.27278 0.0
H1587 H 0.60748 0.25922 0.24857 0.0
H1588 H 0.58532 0.27435 0.26758 0.0
H1589 H 0.66124 0.34047 0.2145 0.0
H1590 H 0.64206 0.34733 0.1911 0.0
H1591 H 0.65193 0.31681 0.18697 0.0
C1592 C 0.46822 0.12142 0.07862 0.0
C1593 C 0.48199 0.11244 0.05838 0.0
C1594 C 0.47145 0.1475 0.08958 0.0
C1595 C 0.48927 0.16513 0.08047 0.0
C1596 C 0.50336 0.15631 0.06014 0.0
C1597 C 0.49946 0.13006 0.04924 0.0
C1598 C 0.45597 0.15613 0.11118 0.0
C1599 C 0.52272 0.17456 0.05011 0.0
C1600 C 0.482 0.23481 0.09908 0.0
C1601 C 0.49796 0.24342 0.12009 0.0
C1602 C 0.47951 0.20953 0.0855 0.0
C1603 C 0.49359 0.19264 0.09293 0.0
C1604 C 0.51044 0.20154 0.11355 0.0
C1605 C 0.51228 0.22675 0.12699 0.0
C1606 C 0.4611 0.20062 0.0638 0.0
C1607 C 0.52604 0.18423 0.12186 0.0
H1608 H 0.4551 0.10796 0.08623 0.0
H1609 H 0.51001 0.12337 0.03349 0.0
H1610 H 0.46827 0.16461 0.12782 0.0
H1611 H 0.44602 0.1712 0.1075 0.0
H1612 H 0.44202 0.14016 0.11522 0.0
H1613 H 0.53193 0.1647 0.03405 0.0
H1614 H 0.51402 0.18959 0.0445 0.0
H1615 H 0.53719 0.18436 0.06467 0.0
H1616 H 0.47088 0.24759 0.09365 0.0
H1617 H 0.52488 0.23335 0.14303 0.0
H1618 H 0.44583 0.18584 0.06783 0.0
H1619 H 0.47027 0.19163 0.04731 0.0
H1620 H 0.45284 0.21652 0.0594 0.0
H1621 H 0.51376 0.16867 0.12845 0.0
H1622 H 0.53975 0.19468 0.13694 0.0
H1623 H 0.53624 0.17509 0.10622 0.0
C1624 C 0.28587 0.40185 0.70632 0.0
C1625 C 0.29384 0.38045 0.7119 0.0
C1626 C 0.30081 0.4262 0.71266 0.0
C1627 C 0.32409 0.42921 0.72523 0.0
C1628 C 0.33222 0.40763 0.73092 0.0
C1629 C 0.31706 0.38341 0.72396 0.0
C1630 C 0.29171 0.44868 0.70592 0.0
C1631 C 0.35677 0.41019 0.74464 0.0
C1632 C 0.37337 0.48793 0.72513 0.0
C1633 C 0.37017 0.50358 0.74795 0.0
C1634 C 0.3582 0.46383 0.71728 0.0
C1635 C 0.33972 0.45503 0.73284 0.0
C1636 C 0.33629 0.47081 0.75582 0.0
C1637 C 0.35141 0.49499 0.763 0.0
C1638 C 0.36206 0.4477 0.69245 0.0
C1639 C 0.31697 0.46193 0.77304 0.0
H1640 H 0.26802 0.39944 0.69668 0.0
H1641 H 0.32313 0.36683 0.72834 0.0
H1642 H 0.28965 0.46306 0.72281 0.0
H1643 H 0.30559 0.45817 0.69468 0.0
H1644 H 0.27353 0.44292 0.69544 0.0
H1645 H 0.36035 0.39153 0.74765 0.0
H1646 H 0.37228 0.41851 0.73428 0.0
H1647 H 0.35696 0.42347 0.76278 0.0
H1648 H 0.38776 0.49452 0.71337 0.0
H1649 H 0.34895 0.50691 0.78075 0.0
H1650 H 0.34435 0.44244 0.68121 0.0
H1651 H 0.36764 0.42962 0.69476 0.0
H1652 H 0.37659 0.45773 0.68217 0.0
H1653 H 0.29818 0.45736 0.76383 0.0
H1654 H 0.31667 0.47653 0.79027 0.0
H1655 H 0.32078 0.44412 0.7779 0.0
C1656 C 0.29825 0.71987 0.81093 0.0
C1657 C 0.29553 0.73097 0.79063 0.0
C1658 C 0.31517 0.70319 0.81104 0.0
C1659 C 0.32912 0.69659 0.79001 0.0
C1660 C 0.32702 0.70811 0.76971 0.0
C1661 C 0.31062 0.72549 0.77045 0.0
C1662 C 0.31735 0.69183 0.83335 0.0
C1663 C 0.34117 0.70114 0.74672 0.0
C1664 C 0.38313 0.66174 0.79497 0.0
C1665 C 0.3711 0.63622 0.78816 0.0
C1666 C 0.36976 0.68177 0.79559 0.0
C1667 C 0.34407 0.67592 0.78846 0.0
C1668 C 0.33221 0.65005 0.78068 0.0
C1669 C 0.3458 0.6305 0.78108 0.0
C1670 C 0.38282 0.70906 0.80476 0.0
C1671 C 0.30506 0.64298 0.77227 0.0
H1672 H 0.28655 0.72344 0.82651 0.0
H1673 H 0.30932 0.7344 0.75492 0.0
H1674 H 0.30884 0.67123 0.82892 0.0
H1675 H 0.33723 0.69323 0.83873 0.0
H1676 H 0.30789 0.70149 0.84933 0.0
H1677 H 0.33856 0.71284 0.73307 0.0
H1678 H 0.36137 0.70363 0.75133 0.0
H1679 H 0.33473 0.68066 0.73802 0.0
H1680 H 0.4027 0.66597 0.80068 0.0
H1681 H 0.33666 0.61064 0.7758 0.0
H1682 H 0.3743 0.71762 0.82188 0.0
H1683 H 0.38046 0.72072 0.79106 0.0
H1684 H 0.40306 0.71043 0.80866 0.0
H1685 H 0.29325 0.64886 0.78788 0.0
H1686 H 0.29924 0.62209 0.76492 0.0
H1687 H 0.30138 0.65328 0.75778 0.0
C1688 C 0.9156 0.48929 0.49578 0.0
C1689 C 0.92609 0.50865 0.51575 0.0
C1690 C 0.89314 0.47292 0.49785 0.0
C1691 C 0.88096 0.47599 0.52044 0.0
C1692 C 0.89175 0.49513 0.54083 0.0
C1693 C 0.91419 0.51125 0.53822 0.0
C1694 C 0.88211 0.45278 0.47569 0.0
C1695 C 0.87938 0.49888 0.56525 0.0
C1696 C 0.81113 0.45296 0.51862 0.0
C1697 C 0.8095 0.42942 0.5257 0.0
C1698 C 0.83428 0.46829 0.5169 0.0
C1699 C 0.85637 0.45994 0.52245 0.0
C1700 C 0.85492 0.43633 0.52982 0.0
C1701 C 0.83148 0.42133 0.53134 0.0
C1702 C 0.83509 0.49337 0.50897 0.0
C1703 C 0.87812 0.42689 0.53596 0.0
H1704 H 0.92465 0.48736 0.47834 0.0
H1705 H 0.92246 0.52595 0.55381 0.0
H1706 H 0.87857 0.43363 0.48037 0.0
H1707 H 0.86391 0.4567 0.47001 0.0
H1708 H 0.89446 0.45214 0.45981 0.0
H1709 H 0.89074 0.51392 0.57956 0.0
H1710 H 0.86097 0.50436 0.56305 0.0
H1711 H 0.87601 0.48069 0.57181 0.0
H1712 H 0.79427 0.45941 0.51422 0.0
H1713 H 0.83042 0.40318 0.53684 0.0
H1714 H 0.84571 0.49331 0.49199 0.0
H1715 H 0.84492 0.50939 0.52339 0.0
H1716 H 0.81619 0.49714 0.5054 0.0
H1717 H 0.88996 0.42466 0.51974 0.0
H1718 H 0.87379 0.40826 0.54171 0.0
H1719 H 0.88926 0.44115 0.551 0.0
C1720 C 0.74927 0.87591 0.79256 0.0
C1721 C 0.73835 0.86134 0.80895 0.0
C1722 C 0.7421 0.89937 0.7916 0.0
C1723 C 0.72372 0.90824 0.80748 0.0
C1724 C 0.7125 0.89319 0.82381 0.0
C1725 C 0.71998 0.86988 0.82431 0.0
C1726 C 0.75441 0.91484 0.77392 0.0
C1727 C 0.69293 0.90193 0.8411 0.0
C1728 C 0.72137 0.97897 0.82737 0.0
C1729 C 0.70046 0.98113 0.81373 0.0
C1730 C 0.72972 0.95558 0.82476 0.0
C1731 C 0.7169 0.93375 0.80807 0.0
C1732 C 0.69636 0.93598 0.79355 0.0
C1733 C 0.68835 0.95966 0.79658 0.0
C1734 C 0.75168 0.95402 0.84062 0.0
C1735 C 0.68229 0.91316 0.77548 0.0
H1736 H 0.7635 0.86908 0.7807 0.0
H1737 H 0.71162 0.8584 0.83695 0.0
H1738 H 0.74008 0.91924 0.76208 0.0
H1739 H 0.76494 0.93337 0.78433 0.0
H1740 H 0.76743 0.9047 0.76199 0.0
H1741 H 0.68551 0.8876 0.85209 0.0
H1742 H 0.70096 0.92015 0.85392 0.0
H1743 H 0.67719 0.90568 0.83057 0.0
H1744 H 0.73095 0.99547 0.84058 0.0
H1745 H 0.67225 0.96117 0.78589 0.0
H1746 H 0.7658 0.94534 0.82908 0.0
H1747 H 0.74541 0.9415 0.85364 0.0
H1748 H 0.76071 0.97309 0.85138 0.0
H1749 H 0.69539 0.9036 0.76319 0.0
H1750 H 0.66824 0.91854 0.76401 0.0
H1751 H 0.67258 0.89898 0.78558 0.0
C1752 C 0.62442 0.52864 0.98613 0.0
C1753 C 0.60769 0.54338 0.97981 0.0
C1754 C 0.65013 0.53845 0.9892 0.0
C1755 C 0.65925 0.5634 0.98553 0.0
C1756 C 0.6424 0.57844 0.9795 0.0
C1757 C 0.61689 0.56839 0.97704 0.0
C1758 C 0.66755 0.52209 0.99612 0.0
C1759 C 0.65133 0.60514 0.97538 0.0
C1760 C 0.72079 0.60404 0.01169 0.0
C1761 C 0.73535 0.60208 0.99087 0.0
C1762 C 0.6965 0.59008 0.01066 0.0
C1763 C 0.68633 0.57423 0.9881 0.0
C1764 C 0.7013 0.57134 0.96727 0.0
C1765 C 0.72578 0.58513 0.96898 0.0
C1766 C 0.68134 0.59325 0.03341 0.0
C1767 C 0.69097 0.55494 0.94278 0.0
H1768 H 0.61749 0.50928 0.98821 0.0
H1769 H 0.60406 0.58021 0.97283 0.0
H1770 H 0.68073 0.51812 0.98126 0.0
H1771 H 0.67882 0.53247 0.01299 0.0
H1772 H 0.65741 0.50357 0.9994 0.0
H1773 H 0.63583 0.614 0.97006 0.0
H1774 H 0.66089 0.61759 0.99237 0.0
H1775 H 0.66505 0.60462 0.96067 0.0
H1776 H 0.72828 0.61684 0.02878 0.0
H1777 H 0.737 0.58356 0.95286 0.0
H1778 H 0.67194 0.57433 0.03631 0.0
H1779 H 0.6666 0.60437 0.03105 0.0
H1780 H 0.69296 0.60342 0.05016 0.0
H1781 H 0.68186 0.53568 0.945 0.0
H1782 H 0.70563 0.55274 0.92907 0.0
H1783 H 0.67654 0.56379 0.93541 0.0
C1784 C 0.26009 0.72878 0.25241 0.0
C1785 C 0.28172 0.72552 0.23957 0.0
C1786 C 0.24267 0.70753 0.25559 0.0
C1787 C 0.24688 0.68254 0.24527 0.0
C1788 C 0.26783 0.67927 0.23075 0.0
C1789 C 0.28521 0.70084 0.22834 0.0
C1790 C 0.22077 0.71182 0.27147 0.0
C1791 C 0.27265 0.65298 0.21894 0.0
C1792 C 0.22213 0.62957 0.27848 0.0
C1793 C 0.20004 0.61778 0.2648 0.0
C1794 C 0.23745 0.65074 0.27233 0.0
C1795 C 0.23079 0.65996 0.25167 0.0
C1796 C 0.20878 0.64781 0.23748 0.0
C1797 C 0.1935 0.62703 0.24438 0.0
C1798 C 0.26059 0.66346 0.28818 0.0
C1799 C 0.20141 0.65673 0.215 0.0
H1800 H 0.25764 0.74789 0.26136 0.0
H1801 H 0.30203 0.69843 0.21845 0.0
H1802 H 0.20319 0.70054 0.26201 0.0
H1803 H 0.22308 0.70516 0.28875 0.0
H1804 H 0.21895 0.73232 0.2763 0.0
H1805 H 0.28774 0.6538 0.20561 0.0
H1806 H 0.27812 0.64341 0.23335 0.0
H1807 H 0.25547 0.64093 0.20926 0.0
H1808 H 0.22718 0.62259 0.29435 0.0
H1809 H 0.17653 0.61783 0.23362 0.0
H1810 H 0.25982 0.68393 0.29554 0.0
H1811 H 0.27734 0.66275 0.27697 0.0
H1812 H 0.26286 0.65422 0.30387 0.0
H1813 H 0.19845 0.67682 0.22029 0.0
H1814 H 0.18412 0.64469 0.20549 0.0
H1815 H 0.21667 0.65635 0.20184 0.0
C1816 C 0.92933 0.53351 0.05301 0.0
C1817 C 0.91228 0.51325 0.05851 0.0
C1818 C 0.92094 0.55365 0.04505 0.0
C1819 C 0.89499 0.55308 0.04229 0.0
C1820 C 0.87784 0.53304 0.04891 0.0
C1821 C 0.88676 0.51334 0.05697 0.0
C1822 C 0.93978 0.5748 0.03846 0.0
C1823 C 0.85004 0.53162 0.04616 0.0
C1824 C 0.86563 0.60909 0.03309 0.0
C1825 C 0.85976 0.60234 0.00771 0.0
C1826 C 0.87851 0.59408 0.04451 0.0
C1827 C 0.88548 0.57176 0.03023 0.0
C1828 C 0.88087 0.56573 0.00442 0.0
C1829 C 0.86815 0.58113 0.99349 0.0
C1830 C 0.88343 0.60135 0.07201 0.0
C1831 C 0.88799 0.5421 0.9885 0.0
H1832 H 0.94911 0.53316 0.05412 0.0
H1833 H 0.8737 0.49743 0.06112 0.0
H1834 H 0.93941 0.57282 0.0182 0.0
H1835 H 0.93506 0.59377 0.04664 0.0
H1836 H 0.959 0.57437 0.04478 0.0
H1837 H 0.8393 0.5158 0.05371 0.0
H1838 H 0.84474 0.54989 0.05568 0.0
H1839 H 0.84453 0.52859 0.02641 0.0
H1840 H 0.85936 0.62554 0.04421 0.0
H1841 H 0.86385 0.57586 0.97386 0.0
H1842 H 0.90291 0.60017 0.07675 0.0
H1843 H 0.87098 0.58769 0.08083 0.0
H1844 H 0.88012 0.62098 0.07991 0.0
H1845 H 0.90784 0.54143 0.99209 0.0
H1846 H 0.88499 0.54129 0.96857 0.0
H1847 H 0.87667 0.52476 0.99309 0.0
C1848 C 0.08459 0.029 0.07571 0.0
C1849 C 0.09573 0.05457 0.08496 0.0
C1850 C 0.09909 0.01038 0.06656 0.0
C1851 C 0.12535 0.01748 0.06694 0.0
C1852 C 0.1367 0.04324 0.07648 0.0
C1853 C 0.12173 0.0615 0.08524 0.0
C1854 C 0.0863 0.98321 0.0562 0.0
C1855 C 0.16465 0.05152 0.07744 0.0
C1856 C 0.1663 0.9668 0.06232 0.0
C1857 C 0.17349 0.96424 0.03788 0.0
C1858 C 0.15028 0.98377 0.07197 0.0
C1859 C 0.14102 0.99821 0.0567 0.0
C1860 C 0.14755 0.995 0.03178 0.0
C1861 C 0.16383 0.9782 0.02273 0.0
C1862 C 0.14391 0.98686 0.09869 0.0
C1863 C 0.13779 0.00975 0.0148 0.0
H1864 H 0.06447 0.02364 0.07532 0.0
H1865 H 0.1304 0.08119 0.09269 0.0
H1866 H 0.09069 0.97749 0.03658 0.0
H1867 H 0.0933 0.96995 0.06611 0.0
H1868 H 0.06573 0.98074 0.05756 0.0
H1869 H 0.17057 0.0721 0.08613 0.0
H1870 H 0.17361 0.03998 0.08794 0.0
H1871 H 0.17169 0.04808 0.05856 0.0
H1872 H 0.17378 0.95614 0.07413 0.0
H1873 H 0.16917 0.97618 0.00377 0.0
H1874 H 0.1234 0.98354 0.10039 0.0
H1875 H 0.15124 0.00676 0.10865 0.0
H1876 H 0.15179 0.97349 0.10784 0.0
H1877 H 0.11715 0.00688 0.01491 0.0
H1878 H 0.14342 0.00391 0.99557 0.0
H1879 H 0.1449 0.03053 0.02138 0.0
loop_
_geom_bond_atom_site_label_1
_geom_bond_atom_site_label_2
_geom_bond_distance
_geom_bond_site_symmetry_2
_ccdc_geom_bond_type
H0 C3 0.929 . S
H1 C6 0.929 . S
H2 C8 0.930 . S
C3 H0 0.929 . S
C3 C4 1.398 . S
C3 C5 1.396 . S
C4 C3 1.398 . S
C4 C8 1.407 . S
C5 C3 1.396 . S
C5 C6 1.394 . S
C6 H1 0.929 . S
C6 C5 1.394 . S
C6 C7 1.382 . S
C7 C6 1.382 . S
C7 C8 1.392 . S
C7 N9 1.420 . S
C8 H2 0.930 . S
C8 C4 1.407 . S
C8 C7 1.392 . S
N9 C7 1.420 . S
N9 C10 1.244 . S
C10 N9 1.244 . S
H11 C14 0.929 . S
H12 C17 0.929 . S
H13 C19 0.930 . S
C14 H11 0.929 . S
C14 C15 1.398 . S
C14 C16 1.396 . S
C15 C14 1.398 . S
C15 C19 1.407 . S
C16 C14 1.396 . S
C16 C17 1.394 . S
C17 H12 0.929 . S
C17 C16 1.394 . S
C17 C18 1.382 . S
C18 C17 1.382 . S
C18 C19 1.392 . S
C18 N20 1.420 . S
C19 H13 0.930 . S
C19 C15 1.407 . S
C19 C18 1.392 . S
N20 C18 1.420 . S
N20 C21 1.244 . S
C21 N20 1.244 . S
H22 C25 0.929 . S
H23 C28 0.929 . S
H24 C30 0.930 . S
C25 H22 0.929 . S
C25 C26 1.398 . S
C25 C27 1.396 . S
C26 C25 1.398 . S
C26 C30 1.407 . S
C27 C25 1.396 . S
C27 C28 1.394 . S
C28 H23 0.929 . S
C28 C27 1.394 . S
C28 C29 1.382 . S
C29 C28 1.382 . S
C29 C30 1.392 . S
C29 N31 1.420 . S
C30 H24 0.930 . S
C30 C26 1.407 . S
C30 C29 1.392 . S
N31 C29 1.420 . S
N31 C32 1.244 . S
C32 N31 1.244 . S
H33 C36 0.929 . S
H34 C39 0.929 . S
H35 C41 0.930 . S
C36 H33 0.929 . S
C36 C37 1.398 . S
C36 C38 1.396 . S
C37 C36 1.398 . S
C37 C41 1.407 . S
C38 C36 1.396 . S
C38 C39 1.394 . S
C39 H34 0.929 . S
C39 C38 1.394 . S
C39 C40 1.382 . S
C40 C39 1.382 . S
C40 C41 1.392 . S
C40 N42 1.420 . S
C41 H35 0.930 . S
C41 C37 1.407 . S
C41 C40 1.392 . S
N42 C40 1.420 . S
N42 C43 1.244 . S
C43 N42 1.244 . S
H44 C47 0.929 . S
H45 C50 0.929 . S
H46 C52 0.930 . S
C47 H44 0.929 . S
C47 C48 1.398 . S
C47 C49 1.396 . S
C48 C47 1.398 . S
C48 C52 1.407 . S
C49 C47 1.396 . S
C49 C50 1.394 . S
C50 H45 0.929 . S
C50 C49 1.394 . S
C50 C51 1.382 . S
C51 C50 1.382 . S
C51 C52 1.392 . S
C51 N53 1.420 . S
C52 H46 0.930 . S
C52 C48 1.407 . S
C52 C51 1.392 . S
N53 C51 1.420 . S
N53 C54 1.244 . S
C54 N53 1.244 . S
H55 C58 0.929 . S
H56 C61 0.929 . S
H57 C63 0.930 . S
C58 H55 0.929 . S
C58 C59 1.398 . S
C58 C60 1.396 . S
C59 C58 1.398 . S
C59 C63 1.407 . S
C60 C58 1.396 . S
C60 C61 1.394 . S
C61 H56 0.929 . S
C61 C60 1.394 . S
C61 C62 1.382 . S
C62 C61 1.382 . S
C62 C63 1.392 . S
C62 N64 1.420 . S
C63 H57 0.930 . S
C63 C59 1.407 . S
C63 C62 1.392 . S
N64 C62 1.420 . S
N64 C65 1.244 . S
C65 N64 1.244 . S
H66 C69 0.929 . S
H67 C72 0.929 . S
H68 C74 0.930 . S
C69 H66 0.929 . S
C69 C70 1.398 . S
C69 C71 1.396 . S
C70 C69 1.398 . S
C70 C74 1.407 . S
C71 C69 1.396 . S
C71 C72 1.394 . S
C72 H67 0.929 . S
C72 C71 1.394 . S
C72 C73 1.382 . S
C73 C72 1.382 . S
C73 C74 1.392 . S
C73 N75 1.420 . S
C74 H68 0.930 . S
C74 C70 1.407 . S
C74 C73 1.392 . S
N75 C73 1.420 . S
N75 C76 1.244 . S
C76 N75 1.244 . S
H77 C80 0.929 . S
H78 C83 0.929 . S
H79 C85 0.930 . S
C80 H77 0.929 . S
C80 C81 1.398 . S
C80 C82 1.396 . S
C81 C80 1.398 . S
C81 C85 1.407 . S
C82 C80 1.396 . S
C82 C83 1.394 . S
C83 H78 0.929 . S
C83 C82 1.394 . S
C83 C84 1.382 . S
C84 C83 1.382 . S
C84 C85 1.392 . S
C84 N86 1.420 . S
C85 H79 0.930 . S
C85 C81 1.407 . S
C85 C84 1.392 . S
N86 C84 1.420 . S
N86 C87 1.244 . S
C87 N86 1.244 . S
H88 C91 0.929 . S
H89 C94 0.929 . S
H90 C96 0.930 . S
C91 H88 0.929 . S
C91 C92 1.398 . S
C91 C93 1.396 . S
C92 C91 1.398 . S
C92 C96 1.407 . S
C93 C91 1.396 . S
C93 C94 1.394 . S
C94 H89 0.929 . S
C94 C93 1.394 . S
C94 C95 1.382 . S
C95 C94 1.382 . S
C95 C96 1.392 . S
C95 N97 1.420 . S
C96 H90 0.930 . S
C96 C92 1.407 . S
C96 C95 1.392 . S
N97 C95 1.420 . S
N97 C98 1.244 . S
C98 N97 1.244 . S
H99 C102 0.929 . S
H100 C105 0.929 . S
H101 C107 0.930 . S
C102 H99 0.929 . S
C102 C103 1.398 . S
C102 C104 1.396 . S
C103 C102 1.398 . S
C103 C107 1.407 . S
C104 C102 1.396 . S
C104 C105 1.394 . S
C105 H100 0.929 . S
C105 C104 1.394 . S
C105 C106 1.382 . S
C106 C105 1.382 . S
C106 C107 1.392 . S
C106 N108 1.420 . S
C107 H101 0.930 . S
C107 C103 1.407 . S
C107 C106 1.392 . S
N108 C106 1.420 . S
N108 C109 1.244 . S
C109 N108 1.244 . S
H110 C113 0.929 . S
H111 C116 0.929 . S
H112 C118 0.930 . S
C113 H110 0.929 . S
C113 C114 1.398 . S
C113 C115 1.396 . S
C114 C113 1.398 . S
C114 C118 1.407 . S
C115 C113 1.396 . S
C115 C116 1.394 . S
C116 H111 0.929 . S
C116 C115 1.394 . S
C116 C117 1.382 . S
C117 C116 1.382 . S
C117 C118 1.392 . S
C117 N119 1.420 . S
C118 H112 0.930 . S
C118 C114 1.407 . S
C118 C117 1.392 . S
N119 C117 1.420 . S
N119 C120 1.244 . S
C120 N119 1.244 . S
H121 C124 0.929 . S
H122 C127 0.929 . S
H123 C129 0.930 . S
C124 H121 0.929 . S
C124 C125 1.398 . S
C124 C126 1.396 . S
C125 C124 1.398 . S
C125 C129 1.407 . S
C126 C124 1.396 . S
C126 C127 1.394 . S
C127 H122 0.929 . S
C127 C126 1.394 . S
C127 C128 1.382 . S
C128 C127 1.382 . S
C128 C129 1.392 . S
C128 N130 1.420 . S
C129 H123 0.930 . S
C129 C125 1.407 . S
C129 C128 1.392 . S
N130 C128 1.420 . S
N130 C131 1.244 . S
C131 N130 1.244 . S
H132 C135 0.929 . S
H133 C138 0.929 . S
H134 C140 0.930 . S
C135 H132 0.929 . S
C135 C136 1.398 . S
C135 C137 1.396 . S
C136 C135 1.398 . S
C136 C140 1.407 . S
C137 C135 1.396 . S
C137 C138 1.394 . S
C138 H133 0.929 . S
C138 C137 1.394 . S
C138 C139 1.382 . S
C139 C138 1.382 . S
C139 C140 1.392 . S
C139 N141 1.420 . S
C140 H134 0.930 . S
C140 C136 1.407 . S
C140 C139 1.392 . S
N141 C139 1.420 . S
N141 C142 1.244 . S
C142 N141 1.244 . S
H143 C146 0.929 . S
H144 C149 0.929 . S
H145 C151 0.930 . S
C146 H143 0.929 . S
C146 C147 1.398 . S
C146 C148 1.396 . S
C147 C146 1.398 . S
C147 C151 1.407 . S
C148 C146 1.396 . S
C148 C149 1.394 . S
C149 H144 0.929 . S
C149 C148 1.394 . S
C149 C150 1.382 . S
C150 C149 1.382 . S
C150 C151 1.392 . S
C150 N152 1.420 . S
C151 H145 0.930 . S
C151 C147 1.407 . S
C151 C150 1.392 . S
N152 C150 1.420 . S
N152 C153 1.244 . S
C153 N152 1.244 . S
H154 C157 0.929 . S
H155 C160 0.929 . S
H156 C162 0.930 . S
C157 H154 0.929 . S
C157 C158 1.398 . S
C157 C159 1.396 . S
C158 C157 1.398 . S
C158 C162 1.407 . S
C159 C157 1.396 . S
C159 C160 1.394 . S
C160 H155 0.929 . S
C160 C159 1.394 . S
C160 C161 1.382 . S
C161 C160 1.382 . S
C161 C162 1.392 . S
C161 N163 1.420 . S
C162 H156 0.930 . S
C162 C158 1.407 . S
C162 C161 1.392 . S
N163 C161 1.420 . S
N163 C164 1.244 . S
C164 N163 1.244 . S
H165 C168 0.929 . S
H166 C171 0.929 . S
H167 C173 0.930 . S
C168 H165 0.929 . S
C168 C169 1.398 . S
C168 C170 1.396 . S
C169 C168 1.398 . S
C169 C173 1.407 . S
C170 C168 1.396 . S
C170 C171 1.394 . S
C171 H166 0.929 . S
C171 C170 1.394 . S
C171 C172 1.382 . S
C172 C171 1.382 . S
C172 C173 1.392 . S
C172 N174 1.420 . S
C173 H167 0.930 . S
C173 C169 1.407 . S
C173 C172 1.392 . S
N174 C172 1.420 . S
N174 C175 1.244 . S
C175 N174 1.244 . S
O176 Cd177 2.223 . S
O176 C184 1.315 . S
Cd177 O176 2.223 . S
Cd177 O180 2.297 . S
Cd177 O181 2.439 . S
Cd177 O187 2.240 . S
Cd178 O179 2.240 . S
Cd178 O186 2.223 . S
Cd178 O188 2.297 . S
Cd178 O189 2.439 . S
O179 Cd178 2.240 . S
O179 C184 1.279 . S
O180 Cd177 2.297 . S
O180 C182 1.247 . S
O181 Cd177 2.439 . S
O181 C182 1.208 . S
C182 O180 1.247 . S
C182 O181 1.208 . S
C183 O188 1.247 . S
C183 O189 1.208 . S
C184 O176 1.315 . S
C184 O179 1.279 . S
C185 O186 1.315 . S
C185 O187 1.279 . S
O186 Cd178 2.223 . S
O186 C185 1.315 . S
O187 Cd177 2.240 . S
O187 C185 1.279 . S
O188 Cd178 2.297 . S
O188 C183 1.247 . S
O189 Cd178 2.439 . S
O189 C183 1.208 . S
O190 Cd191 2.223 . S
O190 C198 1.315 . S
Cd191 O190 2.223 . S
Cd191 O194 2.297 . S
Cd191 O195 2.439 . S
Cd191 O201 2.240 . S
Cd192 O193 2.240 . S
Cd192 O200 2.223 . S
Cd192 O202 2.297 . S
Cd192 O203 2.439 . S
O193 Cd192 2.240 . S
O193 C198 1.279 . S
O194 Cd191 2.297 . S
O194 C196 1.247 . S
O195 Cd191 2.439 . S
O195 C196 1.208 . S
C196 O194 1.247 . S
C196 O195 1.208 . S
C197 O202 1.247 . S
C197 O203 1.208 . S
C198 O190 1.315 . S
C198 O193 1.279 . S
C199 O200 1.315 . S
C199 O201 1.279 . S
O200 Cd192 2.223 . S
O200 C199 1.315 . S
O201 Cd191 2.240 . S
O201 C199 1.279 . S
O202 Cd192 2.297 . S
O202 C197 1.247 . S
O203 Cd192 2.439 . S
O203 C197 1.208 . S
O204 Cd205 2.223 1_556 S
O204 C212 1.315 . S
Cd205 O204 2.223 1_554 S
Cd205 O208 2.297 . S
Cd205 O209 2.439 . S
Cd205 O215 2.240 1_554 S
Cd206 O207 2.240 . S
Cd206 O214 2.223 . S
Cd206 O216 2.297 . S
Cd206 O217 2.439 1_556 S
O207 Cd206 2.240 . S
O207 C212 1.279 . S
O208 Cd205 2.297 . S
O208 C210 1.247 . S
O209 Cd205 2.439 . S
O209 C210 1.208 . S
C210 O208 1.247 . S
C210 O209 1.208 . S
C211 O216 1.247 1_554 S
C211 O217 1.208 . S
C212 O204 1.315 . S
C212 O207 1.279 . S
C213 O214 1.315 . S
C213 O215 1.279 . S
O214 Cd206 2.223 . S
O214 C213 1.315 . S
O215 Cd205 2.240 1_556 S
O215 C213 1.279 . S
O216 Cd206 2.297 . S
O216 C211 1.247 1_556 S
O217 Cd206 2.439 1_554 S
O217 C211 1.208 . S
O218 Cd219 2.223 . S
O218 C226 1.315 . S
Cd219 O218 2.223 . S
Cd219 O222 2.297 . S
Cd219 O223 2.439 . S
Cd219 O229 2.240 . S
Cd220 O221 2.240 . S
Cd220 O228 2.223 . S
Cd220 O230 2.297 . S
Cd220 O231 2.439 . S
O221 Cd220 2.240 . S
O221 C226 1.279 . S
O222 Cd219 2.297 . S
O222 C224 1.247 . S
O223 Cd219 2.439 . S
O223 C224 1.208 . S
C224 O222 1.247 . S
C224 O223 1.208 . S
C225 O230 1.247 . S
C225 O231 1.208 . S
C226 O218 1.315 . S
C226 O221 1.279 . S
C227 O228 1.315 . S
C227 O229 1.279 . S
O228 Cd220 2.223 . S
O228 C227 1.315 . S
O229 Cd219 2.240 . S
O229 C227 1.279 . S
O230 Cd220 2.297 . S
O230 C225 1.247 . S
O231 Cd220 2.439 . S
O231 C225 1.208 . S
O232 Cd233 2.223 . S
O232 C240 1.315 . S
Cd233 O232 2.223 . S
Cd233 O236 2.297 . S
Cd233 O237 2.439 . S
Cd233 O243 2.240 . S
Cd234 O235 2.240 . S
Cd234 O242 2.223 . S
Cd234 O244 2.297 . S
Cd234 O245 2.439 . S
O235 Cd234 2.240 . S
O235 C240 1.279 . S
O236 Cd233 2.297 . S
O236 C238 1.247 . S
O237 Cd233 2.439 . S
O237 C238 1.208 . S
C238 O236 1.247 . S
C238 O237 1.208 . S
C239 O244 1.247 . S
C239 O245 1.208 . S
C240 O232 1.315 . S
C240 O235 1.279 . S
C241 O242 1.315 . S
C241 O243 1.279 . S
O242 Cd234 2.223 . S
O242 C241 1.315 . S
O243 Cd233 2.240 . S
O243 C241 1.279 . S
O244 Cd234 2.297 . S
O244 C239 1.247 . S
O245 Cd234 2.439 . S
O245 C239 1.208 . S
O246 Cd247 2.223 . S
O246 C254 1.315 . S
Cd247 O246 2.223 . S
Cd247 O250 2.297 . S
Cd247 O251 2.439 . S
Cd247 O257 2.240 . S
Cd248 O249 2.240 . S
Cd248 O256 2.223 . S
Cd248 O258 2.297 . S
Cd248 O259 2.439 . S
O249 Cd248 2.240 . S
O249 C254 1.279 . S
O250 Cd247 2.297 . S
O250 C252 1.247 . S
O251 Cd247 2.439 . S
O251 C252 1.208 . S
C252 O250 1.247 . S
C252 O251 1.208 . S
C253 O258 1.247 . S
C253 O259 1.208 . S
C254 O246 1.315 . S
C254 O249 1.279 . S
C255 O256 1.315 . S
C255 O257 1.279 . S
O256 Cd248 2.223 . S
O256 C255 1.315 . S
O257 Cd247 2.240 . S
O257 C255 1.279 . S
O258 Cd248 2.297 . S
O258 C253 1.247 . S
O259 Cd248 2.439 . S
O259 C253 1.208 . S
O260 Cd261 2.223 . S
O260 C268 1.315 . S
Cd261 O260 2.223 . S
Cd261 O264 2.297 . S
Cd261 O265 2.439 . S
Cd261 O271 2.240 . S
Cd262 O263 2.240 . S
Cd262 O270 2.223 . S
Cd262 O272 2.297 . S
Cd262 O273 2.439 . S
O263 Cd262 2.240 . S
O263 C268 1.279 . S
O264 Cd261 2.297 . S
O264 C266 1.247 . S
O265 Cd261 2.439 . S
O265 C266 1.208 . S
C266 O264 1.247 . S
C266 O265 1.208 . S
C267 O272 1.247 . S
C267 O273 1.208 . S
C268 O260 1.315 . S
C268 O263 1.279 . S
C269 O270 1.315 . S
C269 O271 1.279 . S
O270 Cd262 2.223 . S
O270 C269 1.315 . S
O271 Cd261 2.240 . S
O271 C269 1.279 . S
O272 Cd262 2.297 . S
O272 C267 1.247 . S
O273 Cd262 2.439 . S
O273 C267 1.208 . S
O274 Cd275 2.223 1_545 S
O274 C282 1.315 . S
Cd275 O274 2.223 1_565 S
Cd275 O278 2.297 . S
Cd275 O279 2.439 . S
Cd275 O285 2.240 1_565 S
Cd276 O277 2.240 . S
Cd276 O284 2.223 . S
Cd276 O286 2.297 . S
Cd276 O287 2.439 1_545 S
O277 Cd276 2.240 . S
O277 C282 1.279 . S
O278 Cd275 2.297 . S
O278 C280 1.247 . S
O279 Cd275 2.439 . S
O279 C280 1.208 . S
C280 O278 1.247 . S
C280 O279 1.208 . S
C281 O286 1.247 1_565 S
C281 O287 1.208 . S
C282 O274 1.315 . S
C282 O277 1.279 . S
C283 O284 1.315 . S
C283 O285 1.279 . S
O284 Cd276 2.223 . S
O284 C283 1.315 . S
O285 Cd275 2.240 1_545 S
O285 C283 1.279 . S
O286 Cd276 2.297 . S
O286 C281 1.247 1_545 S
O287 Cd276 2.439 1_565 S
O287 C281 1.208 . S
O288 Cd289 2.223 . S
O288 C296 1.315 . S
Cd289 O288 2.223 . S
Cd289 O292 2.297 1_655 S
Cd289 O293 2.439 1_655 S
Cd289 O299 2.240 . S
Cd290 O291 2.240 . S
Cd290 O298 2.223 1_455 S
Cd290 O300 2.297 . S
Cd290 O301 2.439 . S
O291 Cd290 2.240 . S
O291 C296 1.279 1_455 S
O292 Cd289 2.297 1_455 S
O292 C294 1.247 . S
O293 Cd289 2.439 1_455 S
O293 C294 1.208 . S
C294 O292 1.247 . S
C294 O293 1.208 . S
C295 O300 1.247 . S
C295 O301 1.208 . S
C296 O288 1.315 . S
C296 O291 1.279 1_655 S
C297 O298 1.315 . S
C297 O299 1.279 . S
O298 Cd290 2.223 1_655 S
O298 C297 1.315 . S
O299 Cd289 2.240 . S
O299 C297 1.279 . S
O300 Cd290 2.297 . S
O300 C295 1.247 . S
O301 Cd290 2.439 . S
O301 C295 1.208 . S
O302 Cd303 2.223 . S
O302 C310 1.315 . S
Cd303 O302 2.223 . S
Cd303 O306 2.297 . S
Cd303 O307 2.439 . S
Cd303 O313 2.240 . S
Cd304 O305 2.240 . S
Cd304 O312 2.223 . S
Cd304 O314 2.297 . S
Cd304 O315 2.439 . S
O305 Cd304 2.240 . S
O305 C310 1.279 . S
O306 Cd303 2.297 . S
O306 C308 1.247 . S
O307 Cd303 2.439 . S
O307 C308 1.208 . S
C308 O306 1.247 . S
C308 O307 1.208 . S
C309 O314 1.247 . S
C309 O315 1.208 . S
C310 O302 1.315 . S
C310 O305 1.279 . S
C311 O312 1.315 . S
C311 O313 1.279 . S
O312 Cd304 2.223 . S
O312 C311 1.315 . S
O313 Cd303 2.240 . S
O313 C311 1.279 . S
O314 Cd304 2.297 . S
O314 C309 1.247 . S
O315 Cd304 2.439 . S
O315 C309 1.208 . S
O316 Cd317 2.223 1_655 S
O316 C324 1.315 . S
Cd317 O316 2.223 1_455 S
Cd317 O320 2.297 . S
Cd317 O321 2.439 . S
Cd317 O327 2.240 . S
Cd318 O319 2.240 . S
Cd318 O326 2.223 . S
Cd318 O328 2.297 1_655 S
Cd318 O329 2.439 1_655 S
O319 Cd318 2.240 . S
O319 C324 1.279 . S
O320 Cd317 2.297 . S
O320 C322 1.247 . S
O321 Cd317 2.439 . S
O321 C322 1.208 . S
C322 O320 1.247 . S
C322 O321 1.208 . S
C323 O328 1.247 . S
C323 O329 1.208 . S
C324 O316 1.315 . S
C324 O319 1.279 . S
C325 O326 1.315 . S
C325 O327 1.279 1_655 S
O326 Cd318 2.223 . S
O326 C325 1.315 . S
O327 Cd317 2.240 . S
O327 C325 1.279 1_455 S
O328 Cd318 2.297 1_455 S
O328 C323 1.247 . S
O329 Cd318 2.439 1_455 S
O329 C323 1.208 . S
O330 Cd331 2.223 . S
O330 C338 1.315 . S
Cd331 O330 2.223 . S
Cd331 O334 2.297 . S
Cd331 O335 2.439 . S
Cd331 O341 2.240 . S
Cd332 O333 2.240 . S
Cd332 O340 2.223 . S
Cd332 O342 2.297 . S
Cd332 O343 2.439 . S
O333 Cd332 2.240 . S
O333 C338 1.279 . S
O334 Cd331 2.297 . S
O334 C336 1.247 . S
O335 Cd331 2.439 . S
O335 C336 1.208 . S
C336 O334 1.247 . S
C336 O335 1.208 . S
C337 O342 1.247 . S
C337 O343 1.208 . S
C338 O330 1.315 . S
C338 O333 1.279 . S
C339 O340 1.315 . S
C339 O341 1.279 . S
O340 Cd332 2.223 . S
O340 C339 1.315 . S
O341 Cd331 2.240 . S
O341 C339 1.279 . S
O342 Cd332 2.297 . S
O342 C337 1.247 . S
O343 Cd332 2.439 . S
O343 C337 1.208 . S
C344 C345 1.391 . S
C344 C346 1.394 . S
C344 H360 0.931 . S
C345 C344 1.391 . S
C345 C349 1.376 . S
C346 C344 1.394 . S
C346 C347 1.369 . S
C346 C350 1.531 . S
C347 C346 1.369 . S
C347 C348 1.410 . S
C347 C355 1.503 . S
C348 C347 1.410 . S
C348 C349 1.392 . S
C348 C351 1.511 . S
C349 C345 1.376 . S
C349 C348 1.392 . S
C349 H361 0.929 . S
C350 C346 1.531 . S
C350 H362 0.960 . S
C350 H363 0.962 . S
C350 H364 0.960 . S
C351 C348 1.511 . S
C351 H365 0.961 . S
C351 H366 0.961 . S
C351 H367 0.961 . S
C352 C353 1.370 1_556 S
C352 C354 1.363 . S
C352 H368 0.931 . S
C353 C352 1.370 1_554 S
C353 C357 1.408 . S
C354 C352 1.363 . S
C354 C355 1.370 . S
C354 C358 1.524 . S
C355 C347 1.503 . S
C355 C354 1.370 . S
C355 C356 1.403 . S
C356 C355 1.403 . S
C356 C357 1.404 1_556 S
C356 C359 1.539 . S
C357 C353 1.408 . S
C357 C356 1.404 1_554 S
C357 H369 0.930 . S
C358 C354 1.524 . S
C358 H370 0.956 . S
C358 H371 0.961 . S
C358 H372 0.961 . S
C359 C356 1.539 . S
C359 H373 0.958 . S
C359 H374 0.961 . S
C359 H375 0.960 . S
H360 C344 0.931 . S
H361 C349 0.929 . S
H362 C350 0.960 . S
H363 C350 0.962 . S
H364 C350 0.960 . S
H365 C351 0.961 . S
H366 C351 0.961 . S
H367 C351 0.961 . S
H368 C352 0.931 . S
H369 C357 0.930 . S
H370 C358 0.956 . S
H371 C358 0.961 . S
H372 C358 0.961 . S
H373 C359 0.958 . S
H374 C359 0.961 . S
H375 C359 0.960 . S
C376 C377 1.391 1_455 S
C376 C378 1.394 . S
C376 H392 0.931 . S
C377 C376 1.391 1_655 S
C377 C381 1.376 . S
C378 C376 1.394 . S
C378 C379 1.369 . S
C378 C382 1.531 . S
C379 C378 1.369 . S
C379 C380 1.410 . S
C379 C387 1.503 . S
C380 C379 1.410 . S
C380 C381 1.392 1_455 S
C380 C383 1.506 . S
C381 C377 1.376 . S
C381 C380 1.392 1_655 S
C381 H393 0.929 . S
C382 C378 1.531 . S
C382 H394 0.960 . S
C382 H395 0.962 . S
C382 H396 0.960 . S
C383 C380 1.506 . S
C383 H397 0.927 1_455 S
C383 H398 0.981 . S
C383 H399 0.981 . S
C384 C385 1.370 . S
C384 C386 1.363 . S
C384 H400 0.931 . S
C385 C384 1.370 . S
C385 C389 1.408 . S
C386 C384 1.363 . S
C386 C387 1.370 . S
C386 C390 1.524 . S
C387 C379 1.503 . S
C387 C386 1.370 . S
C387 C388 1.403 . S
C388 C387 1.403 . S
C388 C389 1.404 . S
C388 C391 1.539 . S
C389 C385 1.408 . S
C389 C388 1.404 . S
C389 H401 0.930 . S
C390 C386 1.524 . S
C390 H402 0.956 . S
C390 H403 0.961 . S
C390 H404 0.961 . S
C391 C388 1.539 . S
C391 H405 0.958 . S
C391 H406 0.961 . S
C391 H407 0.960 . S
H392 C376 0.931 . S
H393 C381 0.929 . S
H394 C382 0.960 . S
H395 C382 0.962 . S
H396 C382 0.960 . S
H397 C383 0.927 1_655 S
H398 C383 0.981 . S
H399 C383 0.981 . S
H400 C384 0.931 . S
H401 C389 0.930 . S
H402 C390 0.956 . S
H403 C390 0.961 . S
H404 C390 0.961 . S
H405 C391 0.958 . S
H406 C391 0.961 . S
H407 C391 0.960 . S
C408 C409 1.391 . S
C408 C410 1.394 . S
C408 H424 0.931 . S
C409 C408 1.391 . S
C409 C413 1.376 . S
C410 C408 1.394 . S
C410 C411 1.369 . S
C410 C414 1.531 . S
C411 C410 1.369 . S
C411 C412 1.410 . S
C411 C419 1.503 . S
C412 C411 1.410 . S
C412 C413 1.392 . S
C412 C415 1.511 . S
C413 C409 1.376 . S
C413 C412 1.392 . S
C413 H425 0.929 . S
C414 C410 1.531 . S
C414 H426 0.960 . S
C414 H427 0.962 . S
C414 H428 0.960 . S
C415 C412 1.511 . S
C415 H429 0.961 . S
C415 H430 0.961 . S
C415 H431 0.961 . S
C416 C417 1.370 . S
C416 C418 1.363 . S
C416 H432 0.931 . S
C417 C416 1.370 . S
C417 C421 1.408 . S
C418 C416 1.363 . S
C418 C419 1.370 . S
C418 C422 1.524 . S
C419 C411 1.503 . S
C419 C418 1.370 . S
C419 C420 1.403 . S
C420 C419 1.403 . S
C420 C421 1.404 . S
C420 C423 1.539 . S
C421 C417 1.408 . S
C421 C420 1.404 . S
C421 H433 0.930 . S
C422 C418 1.524 . S
C422 H434 0.956 . S
C422 H435 0.961 . S
C422 H436 0.961 . S
C423 C420 1.539 . S
C423 H437 0.958 . S
C423 H438 0.961 . S
C423 H439 0.960 . S
H424 C408 0.931 . S
H425 C413 0.929 . S
H426 C414 0.960 . S
H427 C414 0.962 . S
H428 C414 0.960 . S
H429 C415 0.961 . S
H430 C415 0.961 . S
H431 C415 0.961 . S
H432 C416 0.931 . S
H433 C421 0.930 . S
H434 C422 0.956 . S
H435 C422 0.961 . S
H436 C422 0.961 . S
H437 C423 0.958 . S
H438 C423 0.961 . S
H439 C423 0.960 . S
C440 C441 1.391 . S
C440 C442 1.394 . S
C440 H456 0.931 . S
C441 C440 1.391 . S
C441 C445 1.376 . S
C442 C440 1.394 . S
C442 C443 1.369 1_565 S
C442 C446 1.526 1_565 S
C443 C442 1.369 1_545 S
C443 C444 1.410 . S
C443 C451 1.503 . S
C444 C443 1.410 . S
C444 C445 1.392 1_545 S
C444 C447 1.511 . S
C445 C441 1.376 . S
C445 C444 1.392 1_565 S
C445 H457 0.929 . S
C446 C442 1.526 1_545 S
C446 H458 0.997 1_455 S
C446 H459 0.941 1_445 S
C446 H460 0.952 1_545 S
C447 C444 1.511 . S
C447 H461 0.961 . S
C447 H462 0.961 . S
C447 H463 0.961 . S
C448 C449 1.370 . S
C448 C450 1.363 1_655 S
C448 H464 0.931 . S
C449 C448 1.370 . S
C449 C453 1.417 . S
C450 C448 1.363 1_455 S
C450 C451 1.370 . S
C450 C454 1.524 1_545 S
C451 C443 1.503 . S
C451 C450 1.370 . S
C451 C452 1.403 . S
C452 C451 1.403 . S
C452 C453 1.391 1_455 S
C452 C455 1.539 . S
C453 C449 1.417 . S
C453 C452 1.391 1_655 S
C453 H465 0.934 . S
C454 C450 1.524 1_565 S
C454 H466 0.956 1_455 S
C454 H467 0.961 . S
C454 H468 0.961 1_455 S
C455 C452 1.539 . S
C455 H469 0.958 . S
C455 H470 0.961 . S
C455 H471 0.960 . S
H456 C440 0.931 . S
H457 C445 0.929 . S
H458 C446 0.997 1_655 S
H459 C446 0.941 1_665 S
H460 C446 0.952 1_565 S
H461 C447 0.961 . S
H462 C447 0.961 . S
H463 C447 0.961 . S
H464 C448 0.931 . S
H465 C453 0.934 . S
H466 C454 0.956 1_655 S
H467 C454 0.961 . S
H468 C454 0.961 1_655 S
H469 C455 0.958 . S
H470 C455 0.961 . S
H471 C455 0.960 . S
C472 C473 1.391 . S
C472 C474 1.394 . S
C472 H488 0.931 . S
C473 C472 1.391 . S
C473 C477 1.376 . S
C474 C472 1.394 . S
C474 C475 1.369 . S
C474 C478 1.531 . S
C475 C474 1.369 . S
C475 C476 1.410 . S
C475 C483 1.503 . S
C476 C475 1.410 . S
C476 C477 1.392 . S
C476 C479 1.511 . S
C477 C473 1.376 . S
C477 C476 1.392 . S
C477 H489 0.929 . S
C478 C474 1.531 . S
C478 H490 0.960 . S
C478 H491 0.962 . S
C478 H492 0.960 . S
C479 C476 1.511 . S
C479 H493 0.961 . S
C479 H494 0.961 . S
C479 H495 0.961 . S
C480 C481 1.370 . S
C480 C482 1.363 . S
C480 H496 0.931 . S
C481 C480 1.370 . S
C481 C485 1.408 . S
C482 C480 1.363 . S
C482 C483 1.370 . S
C482 C486 1.524 . S
C483 C475 1.503 . S
C483 C482 1.370 . S
C483 C484 1.403 . S
C484 C483 1.403 . S
C484 C485 1.404 . S
C484 C487 1.539 . S
C485 C481 1.408 . S
C485 C484 1.404 . S
C485 H497 0.930 . S
C486 C482 1.524 . S
C486 H498 0.956 . S
C486 H499 0.961 . S
C486 H500 0.961 . S
C487 C484 1.539 . S
C487 H501 0.958 . S
C487 H502 0.961 . S
C487 H503 0.960 . S
H488 C472 0.931 . S
H489 C477 0.929 . S
H490 C478 0.960 . S
H491 C478 0.962 . S
H492 C478 0.960 . S
H493 C479 0.961 . S
H494 C479 0.961 . S
H495 C479 0.961 . S
H496 C480 0.931 . S
H497 C485 0.930 . S
H498 C486 0.956 . S
H499 C486 0.961 . S
H500 C486 0.961 . S
H501 C487 0.958 . S
H502 C487 0.961 . S
H503 C487 0.960 . S
C504 C505 1.391 . S
C504 C506 1.394 . S
C504 H520 0.931 . S
C505 C504 1.391 . S
C505 C509 1.376 . S
C506 C504 1.394 . S
C506 C507 1.369 . S
C506 C510 1.531 . S
C507 C506 1.369 . S
C507 C508 1.410 . S
C507 C515 1.503 . S
C508 C507 1.410 . S
C508 C509 1.392 . S
C508 C511 1.511 . S
C509 C505 1.376 . S
C509 C508 1.392 . S
C509 H521 0.929 . S
C510 C506 1.531 . S
C510 H522 0.960 . S
C510 H523 0.962 . S
C510 H524 0.960 . S
C511 C508 1.511 . S
C511 H525 0.961 . S
C511 H526 0.961 . S
C511 H527 0.961 . S
C512 C513 1.370 . S
C512 C514 1.363 . S
C512 H528 0.931 . S
C513 C512 1.370 . S
C513 C517 1.408 . S
C514 C512 1.363 . S
C514 C515 1.370 . S
C514 C518 1.524 . S
C515 C507 1.503 . S
C515 C514 1.370 . S
C515 C516 1.403 . S
C516 C515 1.403 . S
C516 C517 1.404 . S
C516 C519 1.539 . S
C517 C513 1.408 . S
C517 C516 1.404 . S
C517 H529 0.930 . S
C518 C514 1.524 . S
C518 H530 0.956 . S
C518 H531 0.961 . S
C518 H532 0.961 . S
C519 C516 1.539 . S
C519 H533 0.958 . S
C519 H534 0.961 . S
C519 H535 0.960 . S
H520 C504 0.931 . S
H521 C509 0.929 . S
H522 C510 0.960 . S
H523 C510 0.962 . S
H524 C510 0.960 . S
H525 C511 0.961 . S
H526 C511 0.961 . S
H527 C511 0.961 . S
H528 C512 0.931 . S
H529 C517 0.930 . S
H530 C518 0.956 . S
H531 C518 0.961 . S
H532 C518 0.961 . S
H533 C519 0.958 . S
H534 C519 0.961 . S
H535 C519 0.960 . S
C536 C537 1.391 . S
C536 C538 1.394 . S
C536 H552 0.931 . S
C537 C536 1.391 . S
C537 C541 1.376 . S
C538 C536 1.394 . S
C538 C539 1.369 . S
C538 C542 1.531 . S
C539 C538 1.369 . S
C539 C540 1.410 . S
C539 C547 1.503 . S
C540 C539 1.410 . S
C540 C541 1.392 . S
C540 C543 1.511 . S
C541 C537 1.376 . S
C541 C540 1.392 . S
C541 H553 0.929 . S
C542 C538 1.531 . S
C542 H554 0.960 . S
C542 H555 0.962 . S
C542 H556 0.960 . S
C543 C540 1.511 . S
C543 H557 0.961 . S
C543 H558 0.961 . S
C543 H559 0.961 . S
C544 C545 1.370 . S
C544 C546 1.363 . S
C544 H560 0.931 . S
C545 C544 1.370 . S
C545 C549 1.408 . S
C546 C544 1.363 . S
C546 C547 1.370 . S
C546 C550 1.524 . S
C547 C539 1.503 . S
C547 C546 1.370 . S
C547 C548 1.403 . S
C548 C547 1.403 . S
C548 C549 1.404 . S
C548 C551 1.539 . S
C549 C545 1.408 . S
C549 C548 1.404 . S
C549 H561 0.930 . S
C550 C546 1.524 . S
C550 H562 0.956 . S
C550 H563 0.961 . S
C550 H564 0.961 . S
C551 C548 1.539 . S
C551 H565 0.958 . S
C551 H566 0.961 . S
C551 H567 0.960 . S
H552 C536 0.931 . S
H553 C541 0.929 . S
H554 C542 0.960 . S
H555 C542 0.962 . S
H556 C542 0.960 . S
H557 C543 0.961 . S
H558 C543 0.961 . S
H559 C543 0.961 . S
H560 C544 0.931 . S
H561 C549 0.930 . S
H562 C550 0.956 . S
H563 C550 0.961 . S
H564 C550 0.961 . S
H565 C551 0.958 . S
H566 C551 0.961 . S
H567 C551 0.960 . S
C568 C569 1.391 . S
C568 C570 1.394 . S
C568 H584 0.931 . S
C569 C568 1.391 . S
C569 C573 1.376 . S
C570 C568 1.394 . S
C570 C571 1.369 . S
C570 C574 1.531 . S
C571 C570 1.369 . S
C571 C572 1.410 . S
C571 C579 1.503 . S
C572 C571 1.410 . S
C572 C573 1.392 . S
C572 C575 1.511 . S
C573 C569 1.376 . S
C573 C572 1.392 . S
C573 H585 0.929 . S
C574 C570 1.531 . S
C574 H586 0.960 . S
C574 H587 0.962 . S
C574 H588 0.960 . S
C575 C572 1.511 . S
C575 H589 0.961 . S
C575 H590 0.961 . S
C575 H591 0.961 . S
C576 C577 1.370 . S
C576 C578 1.363 . S
C576 H592 0.931 . S
C577 C576 1.370 . S
C577 C581 1.408 . S
C578 C576 1.363 . S
C578 C579 1.370 . S
C578 C582 1.524 . S
C579 C571 1.503 . S
C579 C578 1.370 . S
C579 C580 1.403 . S
C580 C579 1.403 . S
C580 C581 1.404 . S
C580 C583 1.539 . S
C581 C577 1.408 . S
C581 C580 1.404 . S
C581 H593 0.930 . S
C582 C578 1.524 . S
C582 H594 0.956 . S
C582 H595 0.961 . S
C582 H596 0.961 1_565 S
C583 C580 1.539 . S
C583 H597 0.958 . S
C583 H598 0.961 . S
C583 H599 0.960 . S
H584 C568 0.931 . S
H585 C573 0.929 . S
H586 C574 0.960 . S
H587 C574 0.962 . S
H588 C574 0.960 . S
H589 C575 0.961 . S
H590 C575 0.961 . S
H591 C575 0.961 . S
H592 C576 0.931 . S
H593 C581 0.930 . S
H594 C582 0.956 . S
H595 C582 0.961 . S
H596 C582 0.961 1_545 S
H597 C583 0.958 . S
H598 C583 0.961 . S
H599 C583 0.960 . S
C600 C601 1.391 . S
C600 C602 1.394 . S
C600 H616 0.931 . S
C601 C600 1.391 . S
C601 C605 1.376 . S
C602 C600 1.394 . S
C602 C603 1.369 . S
C602 C606 1.531 . S
C603 C602 1.369 . S
C603 C604 1.410 . S
C603 C611 1.503 . S
C604 C603 1.410 . S
C604 C605 1.392 . S
C604 C607 1.511 . S
C605 C601 1.376 . S
C605 C604 1.392 . S
C605 H617 0.929 . S
C606 C602 1.531 . S
C606 H618 0.960 . S
C606 H619 0.962 . S
C606 H620 0.960 . S
C607 C604 1.511 . S
C607 H621 0.961 . S
C607 H622 0.961 . S
C607 H623 0.961 . S
C608 C609 1.370 . S
C608 C610 1.363 . S
C608 H624 0.931 . S
C609 C608 1.370 . S
C609 C613 1.408 . S
C610 C608 1.363 . S
C610 C611 1.370 . S
C610 C614 1.524 . S
C611 C603 1.503 . S
C611 C610 1.370 . S
C611 C612 1.403 . S
C612 C611 1.403 . S
C612 C613 1.404 . S
C612 C615 1.539 . S
C613 C609 1.408 . S
C613 C612 1.404 . S
C613 H625 0.930 . S
C614 C610 1.524 . S
C614 H626 0.956 . S
C614 H627 0.961 . S
C614 H628 0.961 . S
C615 C612 1.539 . S
C615 H629 0.958 . S
C615 H630 0.961 . S
C615 H631 0.960 . S
H616 C600 0.931 . S
H617 C605 0.929 . S
H618 C606 0.960 . S
H619 C606 0.962 . S
H620 C606 0.960 . S
H621 C607 0.961 . S
H622 C607 0.961 . S
H623 C607 0.961 . S
H624 C608 0.931 . S
H625 C613 0.930 . S
H626 C614 0.956 . S
H627 C614 0.961 . S
H628 C614 0.961 . S
H629 C615 0.958 . S
H630 C615 0.961 . S
H631 C615 0.960 . S
C632 C633 1.391 . S
C632 C634 1.394 . S
C632 H648 0.931 . S
C633 C632 1.391 . S
C633 C637 1.376 . S
C634 C632 1.394 . S
C634 C635 1.369 . S
C634 C638 1.531 . S
C635 C634 1.369 . S
C635 C636 1.410 . S
C635 C643 1.503 . S
C636 C635 1.410 . S
C636 C637 1.392 . S
C636 C639 1.511 . S
C637 C633 1.376 . S
C637 C636 1.392 . S
C637 H649 0.929 . S
C638 C634 1.531 . S
C638 H650 0.960 . S
C638 H651 0.962 . S
C638 H652 0.960 . S
C639 C636 1.511 . S
C639 H653 0.961 . S
C639 H654 0.961 . S
C639 H655 0.961 . S
C640 C641 1.370 . S
C640 C642 1.363 . S
C640 H656 0.931 . S
C641 C640 1.370 . S
C641 C645 1.408 . S
C642 C640 1.363 . S
C642 C643 1.370 . S
C642 C646 1.524 . S
C643 C635 1.503 . S
C643 C642 1.370 . S
C643 C644 1.403 . S
C644 C643 1.403 . S
C644 C645 1.404 . S
C644 C647 1.539 . S
C645 C641 1.408 . S
C645 C644 1.404 . S
C645 H657 0.930 . S
C646 C642 1.524 . S
C646 H658 0.956 . S
C646 H659 0.961 . S
C646 H660 0.961 . S
C647 C644 1.539 . S
C647 H661 0.958 . S
C647 H662 0.961 . S
C647 H663 0.960 . S
H648 C632 0.931 . S
H649 C637 0.929 . S
H650 C638 0.960 . S
H651 C638 0.962 . S
H652 C638 0.960 . S
H653 C639 0.961 . S
H654 C639 0.961 . S
H655 C639 0.961 . S
H656 C640 0.931 . S
H657 C645 0.930 . S
H658 C646 0.956 . S
H659 C646 0.961 . S
H660 C646 0.961 . S
H661 C647 0.958 . S
H662 C647 0.961 . S
H663 C647 0.960 . S
C664 C665 1.391 . S
C664 C666 1.394 . S
C664 H680 0.931 . S
C665 C664 1.391 . S
C665 C669 1.376 . S
C666 C664 1.394 . S
C666 C667 1.369 . S
C666 C670 1.531 . S
C667 C666 1.369 . S
C667 C668 1.410 . S
C667 C675 1.503 . S
C668 C667 1.410 . S
C668 C669 1.392 . S
C668 C671 1.511 . S
C669 C665 1.376 . S
C669 C668 1.392 . S
C669 H681 0.929 . S
C670 C666 1.531 . S
C670 H682 0.960 . S
C670 H683 0.962 . S
C670 H684 0.960 . S
C671 C668 1.511 . S
C671 H685 0.961 . S
C671 H686 0.961 . S
C671 H687 0.961 . S
C672 C673 1.370 . S
C672 C674 1.363 . S
C672 H688 0.931 . S
C673 C672 1.370 . S
C673 C677 1.408 . S
C674 C672 1.363 . S
C674 C675 1.370 . S
C674 C678 1.524 . S
C675 C667 1.503 . S
C675 C674 1.370 . S
C675 C676 1.403 . S
C676 C675 1.403 . S
C676 C677 1.404 . S
C676 C679 1.539 . S
C677 C673 1.408 . S
C677 C676 1.404 . S
C677 H689 0.930 . S
C678 C674 1.524 . S
C678 H690 0.956 . S
C678 H691 0.961 . S
C678 H692 0.961 . S
C679 C676 1.539 . S
C679 H693 0.958 . S
C679 H694 0.961 . S
C679 H695 0.960 . S
H680 C664 0.931 . S
H681 C669 0.929 . S
H682 C670 0.960 . S
H683 C670 0.962 . S
H684 C670 0.960 . S
H685 C671 0.961 . S
H686 C671 0.961 . S
H687 C671 0.961 . S
H688 C672 0.931 . S
H689 C677 0.930 . S
H690 C678 0.956 . S
H691 C678 0.961 . S
H692 C678 0.961 . S
H693 C679 0.958 . S
H694 C679 0.961 . S
H695 C679 0.960 . S
C696 C697 1.391 . S
C696 C698 1.394 . S
C696 H712 0.931 . S
C697 C696 1.391 . S
C697 C701 1.376 . S
C698 C696 1.394 . S
C698 C699 1.369 . S
C698 C702 1.531 . S
C699 C698 1.369 . S
C699 C700 1.410 . S
C699 C707 1.503 . S
C700 C699 1.410 . S
C700 C701 1.392 . S
C700 C703 1.511 . S
C701 C697 1.376 . S
C701 C700 1.392 . S
C701 H713 0.929 . S
C702 C698 1.531 . S
C702 H714 0.960 . S
C702 H715 0.962 . S
C702 H716 0.960 . S
C703 C700 1.511 . S
C703 H717 0.961 . S
C703 H718 0.961 . S
C703 H719 0.961 . S
C704 C705 1.370 . S
C704 C706 1.363 . S
C704 H720 0.931 . S
C705 C704 1.370 . S
C705 C709 1.408 . S
C706 C704 1.363 . S
C706 C707 1.370 . S
C706 C710 1.524 . S
C707 C699 1.503 . S
C707 C706 1.370 . S
C707 C708 1.403 . S
C708 C707 1.403 . S
C708 C709 1.404 . S
C708 C711 1.539 . S
C709 C705 1.408 . S
C709 C708 1.404 . S
C709 H721 0.930 . S
C710 C706 1.524 . S
C710 H722 0.956 . S
C710 H723 0.961 . S
C710 H724 0.961 . S
C711 C708 1.539 . S
C711 H725 0.958 . S
C711 H726 0.961 . S
C711 H727 0.960 . S
H712 C696 0.931 . S
H713 C701 0.929 . S
H714 C702 0.960 . S
H715 C702 0.962 . S
H716 C702 0.960 . S
H717 C703 0.961 . S
H718 C703 0.961 . S
H719 C703 0.961 . S
H720 C704 0.931 . S
H721 C709 0.930 . S
H722 C710 0.956 . S
H723 C710 0.961 . S
H724 C710 0.961 . S
H725 C711 0.958 . S
H726 C711 0.961 . S
H727 C711 0.960 . S
C728 C729 1.391 . S
C728 C730 1.394 . S
C728 H744 0.931 . S
C729 C728 1.391 . S
C729 C733 1.376 . S
C730 C728 1.394 . S
C730 C731 1.369 . S
C730 C734 1.531 . S
C731 C730 1.369 . S
C731 C732 1.410 . S
C731 C739 1.503 . S
C732 C731 1.410 . S
C732 C733 1.392 . S
C732 C735 1.511 . S
C733 C729 1.376 . S
C733 C732 1.392 . S
C733 H745 0.929 . S
C734 C730 1.531 . S
C734 H746 0.960 . S
C734 H747 0.962 . S
C734 H748 0.960 . S
C735 C732 1.511 . S
C735 H749 0.961 . S
C735 H750 0.961 . S
C735 H751 0.961 . S
C736 C737 1.370 . S
C736 C738 1.363 . S
C736 H752 0.931 . S
C737 C736 1.370 . S
C737 C741 1.408 . S
C738 C736 1.363 . S
C738 C739 1.370 . S
C738 C742 1.524 . S
C739 C731 1.503 . S
C739 C738 1.370 . S
C739 C740 1.403 . S
C740 C739 1.403 . S
C740 C741 1.404 . S
C740 C743 1.539 . S
C741 C737 1.408 . S
C741 C740 1.404 . S
C741 H753 0.930 . S
C742 C738 1.524 . S
C742 H754 0.956 . S
C742 H755 0.961 . S
C742 H756 0.961 . S
C743 C740 1.539 . S
C743 H757 0.958 . S
C743 H758 0.961 . S
C743 H759 0.960 . S
H744 C728 0.931 . S
H745 C733 0.929 . S
H746 C734 0.960 . S
H747 C734 0.962 . S
H748 C734 0.960 . S
H749 C735 0.961 . S
H750 C735 0.961 . S
H751 C735 0.961 . S
H752 C736 0.931 . S
H753 C741 0.930 . S
H754 C742 0.956 . S
H755 C742 0.961 . S
H756 C742 0.961 . S
H757 C743 0.958 . S
H758 C743 0.961 . S
H759 C743 0.960 . S
C760 C761 1.391 . S
C760 C762 1.394 . S
C760 H776 0.931 . S
C761 C760 1.391 . S
C761 C765 1.376 . S
C762 C760 1.394 . S
C762 C763 1.369 . S
C762 C766 1.531 . S
C763 C762 1.369 . S
C763 C764 1.410 . S
C763 C771 1.503 . S
C764 C763 1.410 . S
C764 C765 1.392 . S
C764 C767 1.511 . S
C765 C761 1.376 . S
C765 C764 1.392 . S
C765 H777 0.929 . S
C766 C762 1.531 . S
C766 H778 0.960 . S
C766 H779 0.962 . S
C766 H780 0.960 . S
C767 C764 1.511 . S
C767 H781 0.961 . S
C767 H782 0.961 . S
C767 H783 0.961 . S
C768 C769 1.370 . S
C768 C770 1.363 . S
C768 H784 0.931 . S
C769 C768 1.370 . S
C769 C773 1.408 . S
C770 C768 1.363 . S
C770 C771 1.370 . S
C770 C774 1.524 . S
C771 C763 1.503 . S
C771 C770 1.370 . S
C771 C772 1.403 . S
C772 C771 1.403 . S
C772 C773 1.404 . S
C772 C775 1.539 . S
C773 C769 1.408 . S
C773 C772 1.404 . S
C773 H785 0.930 . S
C774 C770 1.524 . S
C774 H786 0.956 . S
C774 H787 0.961 . S
C774 H788 0.961 . S
C775 C772 1.539 . S
C775 H789 0.958 . S
C775 H790 0.961 . S
C775 H791 0.960 . S
H776 C760 0.931 . S
H777 C765 0.929 . S
H778 C766 0.960 . S
H779 C766 0.962 . S
H780 C766 0.960 . S
H781 C767 0.961 . S
H782 C767 0.961 . S
H783 C767 0.961 . S
H784 C768 0.931 . S
H785 C773 0.930 . S
H786 C774 0.956 . S
H787 C774 0.961 . S
H788 C774 0.961 . S
H789 C775 0.958 . S
H790 C775 0.961 . S
H791 C775 0.960 . S
C792 C793 1.391 . S
C792 C794 1.394 . S
C792 H808 0.931 . S
C793 C792 1.391 . S
C793 C797 1.376 . S
C794 C792 1.394 . S
C794 C795 1.369 . S
C794 C798 1.531 . S
C795 C794 1.369 . S
C795 C796 1.410 . S
C795 C803 1.503 . S
C796 C795 1.410 . S
C796 C797 1.392 . S
C796 C799 1.511 . S
C797 C793 1.376 . S
C797 C796 1.392 . S
C797 H809 0.929 . S
C798 C794 1.531 . S
C798 H810 0.960 . S
C798 H811 0.962 . S
C798 H812 0.960 . S
C799 C796 1.511 . S
C799 H813 0.961 . S
C799 H814 0.961 . S
C799 H815 0.961 . S
C800 C801 1.370 . S
C800 C802 1.363 . S
C800 H816 0.931 . S
C801 C800 1.370 . S
C801 C805 1.408 . S
C802 C800 1.363 . S
C802 C803 1.370 . S
C802 C806 1.524 . S
C803 C795 1.503 . S
C803 C802 1.370 . S
C803 C804 1.403 . S
C804 C803 1.403 . S
C804 C805 1.404 . S
C804 C807 1.539 . S
C805 C801 1.408 . S
C805 C804 1.404 . S
C805 H817 0.930 . S
C806 C802 1.524 . S
C806 H818 0.956 . S
C806 H819 0.961 . S
C806 H820 0.961 . S
C807 C804 1.539 . S
C807 H821 0.958 . S
C807 H822 0.961 . S
C807 H823 0.960 . S
H808 C792 0.931 . S
H809 C797 0.929 . S
H810 C798 0.960 . S
H811 C798 0.962 . S
H812 C798 0.960 . S
H813 C799 0.961 . S
H814 C799 0.961 . S
H815 C799 0.961 . S
H816 C800 0.931 . S
H817 C805 0.930 . S
H818 C806 0.956 . S
H819 C806 0.961 . S
H820 C806 0.961 . S
H821 C807 0.958 . S
H822 C807 0.961 . S
H823 C807 0.960 . S
C824 C825 1.391 . S
C824 C826 1.394 . S
C824 H840 0.931 . S
C825 C824 1.391 . S
C825 C829 1.376 . S
C826 C824 1.394 . S
C826 C827 1.369 . S
C826 C830 1.531 . S
C827 C826 1.369 . S
C827 C828 1.410 . S
C827 C835 1.503 . S
C828 C827 1.410 . S
C828 C829 1.392 . S
C828 C831 1.511 . S
C829 C825 1.376 . S
C829 C828 1.392 . S
C829 H841 0.929 . S
C830 C826 1.531 . S
C830 H842 0.960 . S
C830 H843 0.942 1_655 S
C830 H844 0.960 . S
C831 C828 1.511 . S
C831 H845 0.961 . S
C831 H846 0.961 . S
C831 H847 0.961 . S
C832 C833 1.370 . S
C832 C834 1.363 . S
C832 H848 0.931 1_655 S
C833 C832 1.370 . S
C833 C837 1.408 . S
C834 C832 1.363 . S
C834 C835 1.370 . S
C834 C838 1.524 . S
C835 C827 1.503 . S
C835 C834 1.370 . S
C835 C836 1.403 . S
C836 C835 1.403 . S
C836 C837 1.404 . S
C836 C839 1.539 . S
C837 C833 1.408 . S
C837 C836 1.404 . S
C837 H849 0.930 . S
C838 C834 1.524 . S
C838 H850 0.956 1_655 S
C838 H851 0.961 . S
C838 H852 0.961 1_655 S
C839 C836 1.539 . S
C839 H853 0.958 . S
C839 H854 0.961 . S
C839 H855 0.960 . S
H840 C824 0.931 . S
H841 C829 0.929 . S
H842 C830 0.960 . S
H843 C830 0.942 1_455 S
H844 C830 0.960 . S
H845 C831 0.961 . S
H846 C831 0.961 . S
H847 C831 0.961 . S
H848 C832 0.931 1_455 S
H849 C837 0.930 . S
H850 C838 0.956 1_455 S
H851 C838 0.961 . S
H852 C838 0.961 1_455 S
H853 C839 0.958 . S
H854 C839 0.961 . S
H855 C839 0.960 . S
C856 C857 1.391 . S
C856 C858 1.394 . S
C856 H872 0.931 . S
C857 C856 1.391 . S
C857 C861 1.376 . S
C858 C856 1.394 . S
C858 C859 1.369 . S
C858 C862 1.531 . S
C859 C858 1.369 . S
C859 C860 1.410 . S
C859 C867 1.503 . S
C860 C859 1.410 . S
C860 C861 1.392 . S
C860 C863 1.511 . S
C861 C857 1.376 . S
C861 C860 1.392 . S
C861 H873 0.929 . S
C862 C858 1.531 . S
C862 H874 0.960 . S
C862 H875 0.962 . S
C862 H876 0.960 . S
C863 C860 1.511 . S
C863 H877 0.961 . S
C863 H878 0.961 . S
C863 H879 0.961 . S
C864 C865 1.370 . S
C864 C866 1.363 1_545 S
C864 H880 0.931 . S
C865 C864 1.370 . S
C865 C869 1.408 1_545 S
C866 C864 1.363 1_565 S
C866 C867 1.370 . S
C866 C870 1.524 . S
C867 C859 1.503 . S
C867 C866 1.370 . S
C867 C868 1.403 . S
C868 C867 1.403 . S
C868 C869 1.404 . S
C868 C871 1.539 . S
C869 C865 1.408 1_565 S
C869 C868 1.404 . S
C869 H881 0.930 . S
C870 C866 1.524 . S
C870 H882 0.956 . S
C870 H883 0.961 . S
C870 H884 0.961 1_565 S
C871 C868 1.539 . S
C871 H885 0.958 . S
C871 H886 0.961 . S
C871 H887 0.960 . S
H872 C856 0.931 . S
H873 C861 0.929 . S
H874 C862 0.960 . S
H875 C862 0.962 . S
H876 C862 0.960 . S
H877 C863 0.961 . S
H878 C863 0.961 . S
H879 C863 0.961 . S
H880 C864 0.931 . S
H881 C869 0.930 . S
H882 C870 0.956 . S
H883 C870 0.961 . S
H884 C870 0.961 1_545 S
H885 C871 0.958 . S
H886 C871 0.961 . S
H887 C871 0.960 . S
C888 C889 1.391 . S
C888 C890 1.394 . S
C888 H904 0.931 . S
C889 C888 1.391 . S
C889 C893 1.376 . S
C890 C888 1.394 . S
C890 C891 1.369 . S
C890 C894 1.531 . S
C891 C890 1.369 . S
C891 C892 1.410 . S
C891 C899 1.503 . S
C892 C891 1.410 . S
C892 C893 1.392 . S
C892 C895 1.511 . S
C893 C889 1.376 . S
C893 C892 1.392 . S
C893 H905 0.929 . S
C894 C890 1.531 . S
C894 H906 0.960 . S
C894 H907 0.962 . S
C894 H908 0.960 . S
C895 C892 1.511 . S
C895 H909 0.961 . S
C895 H910 0.961 . S
C895 H911 0.961 . S
C896 C897 1.370 . S
C896 C898 1.363 . S
C896 H912 0.931 . S
C897 C896 1.370 . S
C897 C901 1.408 . S
C898 C896 1.363 . S
C898 C899 1.370 . S
C898 C902 1.524 . S
C899 C891 1.503 . S
C899 C898 1.370 . S
C899 C900 1.403 . S
C900 C899 1.403 . S
C900 C901 1.404 . S
C900 C903 1.539 . S
C901 C897 1.408 . S
C901 C900 1.404 . S
C901 H913 0.930 . S
C902 C898 1.524 . S
C902 H914 0.956 . S
C902 H915 0.961 . S
C902 H916 0.961 . S
C903 C900 1.539 . S
C903 H917 0.958 . S
C903 H918 0.961 . S
C903 H919 0.960 . S
H904 C888 0.931 . S
H905 C893 0.929 . S
H906 C894 0.960 . S
H907 C894 0.962 . S
H908 C894 0.960 . S
H909 C895 0.961 . S
H910 C895 0.961 . S
H911 C895 0.961 . S
H912 C896 0.931 . S
H913 C901 0.930 . S
H914 C902 0.956 . S
H915 C902 0.961 . S
H916 C902 0.961 . S
H917 C903 0.958 . S
H918 C903 0.961 . S
H919 C903 0.960 . S
C920 C921 1.391 . S
C920 C922 1.378 1_556 S
C920 H936 0.931 . S
C921 C920 1.391 . S
C921 C925 1.376 . S
C922 C920 1.378 1_554 S
C922 C923 1.367 1_554 S
C922 C926 1.548 . S
C923 C922 1.367 1_556 S
C923 C924 1.410 . S
C923 C931 1.503 1_556 S
C924 C923 1.410 . S
C924 C925 1.392 . S
C924 C927 1.511 . S
C925 C921 1.376 . S
C925 C924 1.392 . S
C925 H937 0.929 . S
C926 C922 1.548 . S
C926 H938 0.960 . S
C926 H939 0.962 . S
C926 H940 0.960 . S
C927 C924 1.511 . S
C927 H941 0.961 . S
C927 H942 0.961 . S
C927 H943 0.961 . S
C928 C929 1.370 . S
C928 C930 1.363 . S
C928 H944 0.931 . S
C929 C928 1.370 . S
C929 C933 1.408 1_565 S
C930 C928 1.363 . S
C930 C931 1.370 1_565 S
C930 C934 1.524 1_554 S
C931 C923 1.503 1_554 S
C931 C930 1.370 1_545 S
C931 C932 1.403 . S
C932 C931 1.403 . S
C932 C933 1.404 . S
C932 C935 1.539 . S
C933 C929 1.408 1_545 S
C933 C932 1.404 . S
C933 H945 0.930 . S
C934 C930 1.524 1_556 S
C934 H946 0.956 . S
C934 H947 0.961 . S
C934 H948 0.961 . S
C935 C932 1.539 . S
C935 H949 0.958 . S
C935 H950 0.961 . S
C935 H951 0.960 . S
H936 C920 0.931 . S
H937 C925 0.929 . S
H938 C926 0.960 . S
H939 C926 0.962 . S
H940 C926 0.960 . S
H941 C927 0.961 . S
H942 C927 0.961 . S
H943 C927 0.961 . S
H944 C928 0.931 . S
H945 C933 0.930 . S
H946 C934 0.956 . S
H947 C934 0.961 . S
H948 C934 0.961 . S
H949 C935 0.958 . S
H950 C935 0.961 . S
H951 C935 0.960 . S
C952 C953 1.391 . S
C952 C954 1.394 . S
C952 H968 0.931 . S
C953 C952 1.391 . S
C953 C957 1.376 . S
C954 C952 1.394 . S
C954 C955 1.369 . S
C954 C958 1.531 . S
C955 C954 1.369 . S
C955 C956 1.410 . S
C955 C963 1.503 . S
C956 C955 1.410 . S
C956 C957 1.392 . S
C956 C959 1.511 . S
C957 C953 1.376 . S
C957 C956 1.392 . S
C957 H969 0.929 . S
C958 C954 1.531 . S
C958 H970 0.960 . S
C958 H971 0.962 . S
C958 H972 0.960 . S
C959 C956 1.511 . S
C959 H973 0.961 . S
C959 H974 0.961 . S
C959 H975 0.961 . S
C960 C961 1.370 . S
C960 C962 1.363 . S
C960 H976 0.931 . S
C961 C960 1.370 . S
C961 C965 1.408 . S
C962 C960 1.363 . S
C962 C963 1.370 . S
C962 C966 1.524 . S
C963 C955 1.503 . S
C963 C962 1.370 . S
C963 C964 1.403 . S
C964 C963 1.403 . S
C964 C965 1.404 . S
C964 C967 1.539 . S
C965 C961 1.408 . S
C965 C964 1.404 . S
C965 H977 0.930 . S
C966 C962 1.524 . S
C966 H978 0.956 . S
C966 H979 0.961 . S
C966 H980 0.961 . S
C967 C964 1.539 . S
C967 H981 0.958 . S
C967 H982 0.961 . S
C967 H983 0.960 . S
H968 C952 0.931 . S
H969 C957 0.929 . S
H970 C958 0.960 . S
H971 C958 0.962 . S
H972 C958 0.960 . S
H973 C959 0.961 . S
H974 C959 0.961 . S
H975 C959 0.961 . S
H976 C960 0.931 . S
H977 C965 0.930 . S
H978 C966 0.956 . S
H979 C966 0.961 . S
H980 C966 0.961 . S
H981 C967 0.958 . S
H982 C967 0.961 . S
H983 C967 0.960 . S
C984 C985 1.391 . S
C984 C986 1.394 . S
C984 H1000 0.923 1_545 S
C985 C984 1.391 . S
C985 C989 1.376 . S
C986 C984 1.394 . S
C986 C987 1.369 . S
C986 C990 1.531 . S
C987 C986 1.369 . S
C987 C988 1.410 . S
C987 C995 1.503 . S
C988 C987 1.410 . S
C988 C989 1.392 . S
C988 C991 1.511 . S
C989 C985 1.376 . S
C989 C988 1.392 . S
C989 H1001 0.929 . S
C990 C986 1.531 . S
C990 H1002 0.960 . S
C990 H1003 0.962 . S
C990 H1004 0.960 . S
C991 C988 1.511 . S
C991 H1005 0.961 . S
C991 H1006 0.961 . S
C991 H1007 0.961 . S
C992 C993 1.370 . S
C992 C994 1.363 . S
C992 H1008 0.931 . S
C993 C992 1.370 . S
C993 C997 1.408 . S
C994 C992 1.363 . S
C994 C995 1.370 . S
C994 C998 1.524 . S
C995 C987 1.503 . S
C995 C994 1.370 . S
C995 C996 1.403 . S
C996 C995 1.403 . S
C996 C997 1.404 . S
C996 C999 1.539 . S
C997 C993 1.408 . S
C997 C996 1.404 . S
C997 H1009 0.930 . S
C998 C994 1.524 . S
C998 H1010 0.956 . S
C998 H1011 0.961 . S
C998 H1012 0.961 . S
C999 C996 1.539 . S
C999 H1013 0.958 . S
C999 H1014 0.961 . S
C999 H1015 0.960 . S
H1000 C984 0.923 1_565 S
H1001 C989 0.929 . S
H1002 C990 0.960 . S
H1003 C990 0.962 . S
H1004 C990 0.960 . S
H1005 C991 0.961 . S
H1006 C991 0.961 . S
H1007 C991 0.961 . S
H1008 C992 0.931 . S
H1009 C997 0.930 . S
H1010 C998 0.956 . S
H1011 C998 0.961 . S
H1012 C998 0.961 . S
H1013 C999 0.958 . S
H1014 C999 0.961 . S
H1015 C999 0.960 . S
C1016 C1017 1.391 . S
C1016 C1018 1.394 . S
C1016 H1032 0.931 . S
C1017 C1016 1.391 . S
C1017 C1021 1.376 . S
C1018 C1016 1.394 . S
C1018 C1019 1.369 . S
C1018 C1022 1.531 . S
C1019 C1018 1.369 . S
C1019 C1020 1.410 . S
C1019 C1027 1.503 . S
C1020 C1019 1.410 . S
C1020 C1021 1.392 . S
C1020 C1023 1.511 . S
C1021 C1017 1.376 . S
C1021 C1020 1.392 . S
C1021 H1033 0.929 . S
C1022 C1018 1.531 . S
C1022 H1034 0.960 . S
C1022 H1035 0.962 . S
C1022 H1036 0.960 . S
C1023 C1020 1.511 . S
C1023 H1037 0.961 . S
C1023 H1038 0.961 . S
C1023 H1039 0.961 . S
C1024 C1025 1.370 . S
C1024 C1026 1.363 . S
C1024 H1040 0.931 . S
C1025 C1024 1.370 . S
C1025 C1029 1.408 . S
C1026 C1024 1.363 . S
C1026 C1027 1.370 . S
C1026 C1030 1.524 . S
C1027 C1019 1.503 . S
C1027 C1026 1.370 . S
C1027 C1028 1.403 . S
C1028 C1027 1.403 . S
C1028 C1029 1.404 . S
C1028 C1031 1.539 . S
C1029 C1025 1.408 . S
C1029 C1028 1.404 . S
C1029 H1041 0.930 . S
C1030 C1026 1.524 . S
C1030 H1042 0.956 . S
C1030 H1043 0.961 . S
C1030 H1044 0.961 . S
C1031 C1028 1.539 . S
C1031 H1045 0.958 . S
C1031 H1046 0.961 . S
C1031 H1047 0.960 . S
H1032 C1016 0.931 . S
H1033 C1021 0.929 . S
H1034 C1022 0.960 . S
H1035 C1022 0.962 . S
H1036 C1022 0.960 . S
H1037 C1023 0.961 . S
H1038 C1023 0.961 . S
H1039 C1023 0.961 . S
H1040 C1024 0.931 . S
H1041 C1029 0.930 . S
H1042 C1030 0.956 . S
H1043 C1030 0.961 . S
H1044 C1030 0.961 . S
H1045 C1031 0.958 . S
H1046 C1031 0.961 . S
H1047 C1031 0.960 . S
C1048 C1049 1.391 1_545 S
C1048 C1050 1.394 . S
C1048 H1064 0.931 . S
C1049 C1048 1.391 1_565 S
C1049 C1053 1.376 1_565 S
C1050 C1048 1.394 . S
C1050 C1051 1.369 . S
C1050 C1054 1.531 . S
C1051 C1050 1.369 . S
C1051 C1052 1.410 . S
C1051 C1059 1.503 . S
C1052 C1051 1.410 . S
C1052 C1053 1.392 . S
C1052 C1055 1.511 . S
C1053 C1049 1.376 1_545 S
C1053 C1052 1.392 . S
C1053 H1065 0.929 1_545 S
C1054 C1050 1.531 . S
C1054 H1066 0.960 . S
C1054 H1067 0.962 . S
C1054 H1068 0.960 . S
C1055 C1052 1.511 . S
C1055 H1069 0.961 . S
C1055 H1070 0.961 . S
C1055 H1071 0.961 . S
C1056 C1057 1.370 . S
C1056 C1058 1.363 . S
C1056 H1072 0.931 . S
C1057 C1056 1.370 . S
C1057 C1061 1.408 . S
C1058 C1056 1.363 . S
C1058 C1059 1.370 . S
C1058 C1062 1.524 . S
C1059 C1051 1.503 . S
C1059 C1058 1.370 . S
C1059 C1060 1.403 . S
C1060 C1059 1.403 . S
C1060 C1061 1.404 . S
C1060 C1063 1.539 . S
C1061 C1057 1.408 . S
C1061 C1060 1.404 . S
C1061 H1073 0.930 . S
C1062 C1058 1.524 . S
C1062 H1074 0.956 . S
C1062 H1075 0.961 . S
C1062 H1076 0.961 . S
C1063 C1060 1.539 . S
C1063 H1077 0.958 . S
C1063 H1078 0.961 . S
C1063 H1079 0.960 . S
H1064 C1048 0.931 . S
H1065 C1053 0.929 1_565 S
H1066 C1054 0.960 . S
H1067 C1054 0.962 . S
H1068 C1054 0.960 . S
H1069 C1055 0.961 . S
H1070 C1055 0.961 . S
H1071 C1055 0.961 . S
H1072 C1056 0.931 . S
H1073 C1061 0.930 . S
H1074 C1062 0.956 . S
H1075 C1062 0.961 . S
H1076 C1062 0.961 . S
H1077 C1063 0.958 . S
H1078 C1063 0.961 . S
H1079 C1063 0.960 . S
C1080 C1081 1.391 . S
C1080 C1082 1.394 . S
C1080 H1096 0.931 . S
C1081 C1080 1.391 . S
C1081 C1085 1.376 . S
C1082 C1080 1.394 . S
C1082 C1083 1.369 . S
C1082 C1086 1.531 . S
C1083 C1082 1.369 . S
C1083 C1084 1.410 . S
C1083 C1091 1.503 . S
C1084 C1083 1.410 . S
C1084 C1085 1.392 . S
C1084 C1087 1.511 . S
C1085 C1081 1.376 . S
C1085 C1084 1.392 . S
C1085 H1097 0.929 . S
C1086 C1082 1.531 . S
C1086 H1098 0.960 . S
C1086 H1099 0.962 . S
C1086 H1100 0.960 . S
C1087 C1084 1.511 . S
C1087 H1101 0.961 . S
C1087 H1102 0.961 . S
C1087 H1103 0.961 . S
C1088 C1089 1.370 . S
C1088 C1090 1.363 . S
C1088 H1104 0.931 . S
C1089 C1088 1.370 . S
C1089 C1093 1.408 . S
C1090 C1088 1.363 . S
C1090 C1091 1.370 . S
C1090 C1094 1.524 . S
C1091 C1083 1.503 . S
C1091 C1090 1.370 . S
C1091 C1092 1.403 . S
C1092 C1091 1.403 . S
C1092 C1093 1.404 . S
C1092 C1095 1.539 . S
C1093 C1089 1.408 . S
C1093 C1092 1.404 . S
C1093 H1105 0.930 . S
C1094 C1090 1.524 . S
C1094 H1106 0.956 . S
C1094 H1107 0.961 . S
C1094 H1108 0.961 . S
C1095 C1092 1.539 . S
C1095 H1109 0.958 . S
C1095 H1110 0.961 . S
C1095 H1111 0.960 . S
H1096 C1080 0.931 . S
H1097 C1085 0.929 . S
H1098 C1086 0.960 . S
H1099 C1086 0.962 . S
H1100 C1086 0.960 . S
H1101 C1087 0.961 . S
H1102 C1087 0.961 . S
H1103 C1087 0.961 . S
H1104 C1088 0.931 . S
H1105 C1093 0.930 . S
H1106 C1094 0.956 . S
H1107 C1094 0.961 . S
H1108 C1094 0.961 . S
H1109 C1095 0.958 . S
H1110 C1095 0.961 . S
H1111 C1095 0.960 . S
C1112 C1113 1.391 . S
C1112 C1114 1.394 . S
C1112 H1128 0.931 . S
C1113 C1112 1.391 . S
C1113 C1117 1.376 . S
C1114 C1112 1.394 . S
C1114 C1115 1.369 . S
C1114 C1118 1.531 . S
C1115 C1114 1.369 . S
C1115 C1116 1.410 . S
C1115 C1123 1.503 . S
C1116 C1115 1.410 . S
C1116 C1117 1.392 . S
C1116 C1119 1.511 . S
C1117 C1113 1.376 . S
C1117 C1116 1.392 . S
C1117 H1129 0.929 . S
C1118 C1114 1.531 . S
C1118 H1130 0.960 . S
C1118 H1131 0.962 . S
C1118 H1132 0.960 . S
C1119 C1116 1.511 . S
C1119 H1133 0.961 . S
C1119 H1134 0.961 . S
C1119 H1135 0.961 . S
C1120 C1121 1.370 . S
C1120 C1122 1.363 . S
C1120 H1136 0.931 . S
C1121 C1120 1.370 . S
C1121 C1125 1.408 . S
C1122 C1120 1.363 . S
C1122 C1123 1.370 . S
C1122 C1126 1.524 . S
C1123 C1115 1.503 . S
C1123 C1122 1.370 . S
C1123 C1124 1.403 . S
C1124 C1123 1.403 . S
C1124 C1125 1.404 . S
C1124 C1127 1.539 . S
C1125 C1121 1.408 . S
C1125 C1124 1.404 . S
C1125 H1137 0.930 . S
C1126 C1122 1.524 . S
C1126 H1138 0.956 . S
C1126 H1139 0.961 . S
C1126 H1140 0.961 . S
C1127 C1124 1.539 . S
C1127 H1141 0.958 . S
C1127 H1142 0.961 . S
C1127 H1143 0.960 . S
H1128 C1112 0.931 . S
H1129 C1117 0.929 . S
H1130 C1118 0.960 . S
H1131 C1118 0.962 . S
H1132 C1118 0.960 . S
H1133 C1119 0.961 . S
H1134 C1119 0.961 . S
H1135 C1119 0.961 . S
H1136 C1120 0.931 . S
H1137 C1125 0.930 . S
H1138 C1126 0.956 . S
H1139 C1126 0.961 . S
H1140 C1126 0.961 . S
H1141 C1127 0.958 . S
H1142 C1127 0.961 . S
H1143 C1127 0.960 . S
C1144 C1145 1.391 . S
C1144 C1146 1.394 . S
C1144 H1160 0.931 . S
C1145 C1144 1.391 . S
C1145 C1149 1.376 . S
C1146 C1144 1.394 . S
C1146 C1147 1.369 . S
C1146 C1150 1.531 . S
C1147 C1146 1.369 . S
C1147 C1148 1.410 . S
C1147 C1155 1.503 . S
C1148 C1147 1.410 . S
C1148 C1149 1.392 . S
C1148 C1151 1.511 . S
C1149 C1145 1.376 . S
C1149 C1148 1.392 . S
C1149 H1161 0.929 . S
C1150 C1146 1.531 . S
C1150 H1162 0.960 . S
C1150 H1163 0.962 . S
C1150 H1164 0.960 . S
C1151 C1148 1.511 . S
C1151 H1165 0.961 . S
C1151 H1166 0.961 . S
C1151 H1167 0.961 . S
C1152 C1153 1.370 . S
C1152 C1154 1.363 . S
C1152 H1168 0.931 . S
C1153 C1152 1.370 . S
C1153 C1157 1.408 . S
C1154 C1152 1.363 . S
C1154 C1155 1.370 . S
C1154 C1158 1.524 . S
C1155 C1147 1.503 . S
C1155 C1154 1.370 . S
C1155 C1156 1.403 . S
C1156 C1155 1.403 . S
C1156 C1157 1.404 . S
C1156 C1159 1.539 . S
C1157 C1153 1.408 . S
C1157 C1156 1.404 . S
C1157 H1169 0.930 . S
C1158 C1154 1.524 . S
C1158 H1170 0.956 . S
C1158 H1171 0.961 . S
C1158 H1172 0.961 . S
C1159 C1156 1.539 . S
C1159 H1173 0.958 . S
C1159 H1174 0.961 . S
C1159 H1175 0.960 . S
H1160 C1144 0.931 . S
H1161 C1149 0.929 . S
H1162 C1150 0.960 . S
H1163 C1150 0.962 . S
H1164 C1150 0.960 . S
H1165 C1151 0.961 . S
H1166 C1151 0.961 . S
H1167 C1151 0.961 . S
H1168 C1152 0.931 . S
H1169 C1157 0.930 . S
H1170 C1158 0.956 . S
H1171 C1158 0.961 . S
H1172 C1158 0.961 . S
H1173 C1159 0.958 . S
H1174 C1159 0.961 . S
H1175 C1159 0.960 . S
C1176 C1177 1.391 . S
C1176 C1178 1.394 . S
C1176 H1192 0.931 . S
C1177 C1176 1.391 . S
C1177 C1181 1.376 . S
C1178 C1176 1.394 . S
C1178 C1179 1.369 . S
C1178 C1182 1.531 . S
C1179 C1178 1.369 . S
C1179 C1180 1.410 . S
C1179 C1187 1.503 . S
C1180 C1179 1.410 . S
C1180 C1181 1.392 . S
C1180 C1183 1.511 . S
C1181 C1177 1.376 . S
C1181 C1180 1.392 . S
C1181 H1193 0.929 . S
C1182 C1178 1.531 . S
C1182 H1194 0.960 . S
C1182 H1195 0.962 . S
C1182 H1196 0.960 . S
C1183 C1180 1.511 . S
C1183 H1197 0.961 . S
C1183 H1198 0.961 . S
C1183 H1199 0.961 . S
C1184 C1185 1.370 . S
C1184 C1186 1.363 . S
C1184 H1200 0.931 . S
C1185 C1184 1.370 . S
C1185 C1189 1.408 . S
C1186 C1184 1.363 . S
C1186 C1187 1.370 . S
C1186 C1190 1.524 . S
C1187 C1179 1.503 . S
C1187 C1186 1.370 . S
C1187 C1188 1.403 . S
C1188 C1187 1.403 . S
C1188 C1189 1.404 . S
C1188 C1191 1.539 . S
C1189 C1185 1.408 . S
C1189 C1188 1.404 . S
C1189 H1201 0.930 . S
C1190 C1186 1.524 . S
C1190 H1202 0.956 . S
C1190 H1203 0.961 . S
C1190 H1204 0.961 . S
C1191 C1188 1.539 . S
C1191 H1205 0.958 . S
C1191 H1206 0.961 . S
C1191 H1207 0.960 . S
H1192 C1176 0.931 . S
H1193 C1181 0.929 . S
H1194 C1182 0.960 . S
H1195 C1182 0.962 . S
H1196 C1182 0.960 . S
H1197 C1183 0.961 . S
H1198 C1183 0.961 . S
H1199 C1183 0.961 . S
H1200 C1184 0.931 . S
H1201 C1189 0.930 . S
H1202 C1190 0.956 . S
H1203 C1190 0.961 . S
H1204 C1190 0.961 . S
H1205 C1191 0.958 . S
H1206 C1191 0.961 . S
H1207 C1191 0.960 . S
C1208 C1209 1.391 . S
C1208 C1210 1.394 . S
C1208 H1224 0.931 . S
C1209 C1208 1.391 . S
C1209 C1213 1.376 . S
C1210 C1208 1.394 . S
C1210 C1211 1.369 . S
C1210 C1214 1.531 . S
C1211 C1210 1.369 . S
C1211 C1212 1.410 . S
C1211 C1219 1.503 . S
C1212 C1211 1.410 . S
C1212 C1213 1.392 . S
C1212 C1215 1.511 . S
C1213 C1209 1.376 . S
C1213 C1212 1.392 . S
C1213 H1225 0.929 . S
C1214 C1210 1.531 . S
C1214 H1226 0.960 . S
C1214 H1227 0.962 . S
C1214 H1228 0.960 . S
C1215 C1212 1.511 . S
C1215 H1229 0.961 . S
C1215 H1230 0.961 . S
C1215 H1231 0.961 . S
C1216 C1217 1.370 . S
C1216 C1218 1.363 . S
C1216 H1232 0.931 . S
C1217 C1216 1.370 . S
C1217 C1221 1.408 . S
C1218 C1216 1.363 . S
C1218 C1219 1.370 . S
C1218 C1222 1.524 . S
C1219 C1211 1.503 . S
C1219 C1218 1.370 . S
C1219 C1220 1.403 . S
C1220 C1219 1.403 . S
C1220 C1221 1.404 . S
C1220 C1223 1.539 . S
C1221 C1217 1.408 . S
C1221 C1220 1.404 . S
C1221 H1233 0.930 . S
C1222 C1218 1.524 . S
C1222 H1234 0.956 . S
C1222 H1235 0.961 . S
C1222 H1236 0.961 . S
C1223 C1220 1.539 . S
C1223 H1237 0.958 . S
C1223 H1238 0.961 . S
C1223 H1239 0.960 . S
H1224 C1208 0.931 . S
H1225 C1213 0.929 . S
H1226 C1214 0.960 . S
H1227 C1214 0.962 . S
H1228 C1214 0.960 . S
H1229 C1215 0.961 . S
H1230 C1215 0.961 . S
H1231 C1215 0.961 . S
H1232 C1216 0.931 . S
H1233 C1221 0.930 . S
H1234 C1222 0.956 . S
H1235 C1222 0.961 . S
H1236 C1222 0.961 . S
H1237 C1223 0.958 . S
H1238 C1223 0.961 . S
H1239 C1223 0.960 . S
C1240 C1241 1.391 . S
C1240 C1242 1.394 . S
C1240 H1256 0.931 . S
C1241 C1240 1.391 . S
C1241 C1245 1.376 . S
C1242 C1240 1.394 . S
C1242 C1243 1.369 . S
C1242 C1246 1.531 . S
C1243 C1242 1.369 . S
C1243 C1244 1.410 . S
C1243 C1251 1.503 . S
C1244 C1243 1.410 . S
C1244 C1245 1.392 . S
C1244 C1247 1.511 . S
C1245 C1241 1.376 . S
C1245 C1244 1.392 . S
C1245 H1257 0.929 . S
C1246 C1242 1.531 . S
C1246 H1258 0.960 . S
C1246 H1259 0.962 . S
C1246 H1260 0.960 . S
C1247 C1244 1.511 . S
C1247 H1261 0.961 . S
C1247 H1262 0.961 . S
C1247 H1263 0.961 . S
C1248 C1249 1.370 . S
C1248 C1250 1.363 . S
C1248 H1264 0.931 . S
C1249 C1248 1.370 . S
C1249 C1253 1.408 . S
C1250 C1248 1.363 . S
C1250 C1251 1.370 . S
C1250 C1254 1.524 . S
C1251 C1243 1.503 . S
C1251 C1250 1.370 . S
C1251 C1252 1.403 . S
C1252 C1251 1.403 . S
C1252 C1253 1.404 . S
C1252 C1255 1.539 . S
C1253 C1249 1.408 . S
C1253 C1252 1.404 . S
C1253 H1265 0.930 . S
C1254 C1250 1.524 . S
C1254 H1266 0.956 . S
C1254 H1267 0.961 . S
C1254 H1268 0.961 . S
C1255 C1252 1.539 . S
C1255 H1269 0.958 . S
C1255 H1270 0.961 . S
C1255 H1271 0.960 . S
H1256 C1240 0.931 . S
H1257 C1245 0.929 . S
H1258 C1246 0.960 . S
H1259 C1246 0.962 . S
H1260 C1246 0.960 . S
H1261 C1247 0.961 . S
H1262 C1247 0.961 . S
H1263 C1247 0.961 . S
H1264 C1248 0.931 . S
H1265 C1253 0.930 . S
H1266 C1254 0.956 . S
H1267 C1254 0.961 . S
H1268 C1254 0.961 . S
H1269 C1255 0.958 . S
H1270 C1255 0.961 . S
H1271 C1255 0.960 . S
C1272 C1273 1.391 . S
C1272 C1274 1.394 . S
C1272 H1288 0.931 . S
C1273 C1272 1.391 . S
C1273 C1277 1.376 . S
C1274 C1272 1.394 . S
C1274 C1275 1.369 . S
C1274 C1278 1.531 . S
C1275 C1274 1.369 . S
C1275 C1276 1.410 . S
C1275 C1283 1.503 . S
C1276 C1275 1.410 . S
C1276 C1277 1.392 . S
C1276 C1279 1.511 . S
C1277 C1273 1.376 . S
C1277 C1276 1.392 . S
C1277 H1289 0.929 . S
C1278 C1274 1.531 . S
C1278 H1290 0.960 . S
C1278 H1291 0.962 . S
C1278 H1292 0.960 . S
C1279 C1276 1.511 . S
C1279 H1293 0.961 . S
C1279 H1294 0.961 . S
C1279 H1295 0.961 . S
C1280 C1281 1.370 . S
C1280 C1282 1.363 . S
C1280 H1296 0.931 . S
C1281 C1280 1.370 . S
C1281 C1285 1.408 . S
C1282 C1280 1.363 . S
C1282 C1283 1.370 . S
C1282 C1286 1.524 . S
C1283 C1275 1.503 . S
C1283 C1282 1.370 . S
C1283 C1284 1.403 . S
C1284 C1283 1.403 . S
C1284 C1285 1.404 . S
C1284 C1287 1.539 . S
C1285 C1281 1.408 . S
C1285 C1284 1.404 . S
C1285 H1297 0.930 . S
C1286 C1282 1.524 . S
C1286 H1298 0.956 . S
C1286 H1299 0.961 . S
C1286 H1300 0.961 . S
C1287 C1284 1.539 . S
C1287 H1301 0.958 . S
C1287 H1302 0.961 . S
C1287 H1303 0.960 . S
H1288 C1272 0.931 . S
H1289 C1277 0.929 . S
H1290 C1278 0.960 . S
H1291 C1278 0.962 . S
H1292 C1278 0.960 . S
H1293 C1279 0.961 . S
H1294 C1279 0.961 . S
H1295 C1279 0.961 . S
H1296 C1280 0.931 . S
H1297 C1285 0.930 . S
H1298 C1286 0.956 . S
H1299 C1286 0.961 . S
H1300 C1286 0.961 . S
H1301 C1287 0.958 . S
H1302 C1287 0.961 . S
H1303 C1287 0.960 . S
C1304 C1305 1.391 . S
C1304 C1306 1.394 . S
C1304 H1320 0.931 . S
C1305 C1304 1.391 . S
C1305 C1309 1.376 . S
C1306 C1304 1.394 . S
C1306 C1307 1.369 . S
C1306 C1310 1.531 . S
C1307 C1306 1.369 . S
C1307 C1308 1.410 . S
C1307 C1315 1.503 . S
C1308 C1307 1.410 . S
C1308 C1309 1.392 . S
C1308 C1311 1.511 . S
C1309 C1305 1.376 . S
C1309 C1308 1.392 . S
C1309 H1321 0.929 . S
C1310 C1306 1.531 . S
C1310 H1322 0.960 . S
C1310 H1323 0.962 . S
C1310 H1324 0.960 . S
C1311 C1308 1.511 . S
C1311 H1325 0.961 . S
C1311 H1326 0.961 . S
C1311 H1327 0.961 . S
C1312 C1313 1.370 . S
C1312 C1314 1.363 . S
C1312 H1328 0.931 . S
C1313 C1312 1.370 . S
C1313 C1317 1.408 . S
C1314 C1312 1.363 . S
C1314 C1315 1.370 . S
C1314 C1318 1.524 . S
C1315 C1307 1.503 . S
C1315 C1314 1.370 . S
C1315 C1316 1.403 . S
C1316 C1315 1.403 . S
C1316 C1317 1.404 . S
C1316 C1319 1.539 . S
C1317 C1313 1.408 . S
C1317 C1316 1.404 . S
C1317 H1329 0.930 . S
C1318 C1314 1.524 . S
C1318 H1330 0.956 . S
C1318 H1331 0.961 . S
C1318 H1332 0.961 . S
C1319 C1316 1.539 . S
C1319 H1333 0.958 . S
C1319 H1334 0.961 . S
C1319 H1335 0.960 . S
H1320 C1304 0.931 . S
H1321 C1309 0.929 . S
H1322 C1310 0.960 . S
H1323 C1310 0.962 . S
H1324 C1310 0.960 . S
H1325 C1311 0.961 . S
H1326 C1311 0.961 . S
H1327 C1311 0.961 . S
H1328 C1312 0.931 . S
H1329 C1317 0.930 . S
H1330 C1318 0.956 . S
H1331 C1318 0.961 . S
H1332 C1318 0.961 . S
H1333 C1319 0.958 . S
H1334 C1319 0.961 . S
H1335 C1319 0.960 . S
C1336 C1337 1.391 . S
C1336 C1338 1.394 . S
C1336 H1352 0.931 . S
C1337 C1336 1.391 . S
C1337 C1341 1.376 . S
C1338 C1336 1.394 . S
C1338 C1339 1.369 . S
C1338 C1342 1.531 . S
C1339 C1338 1.369 . S
C1339 C1340 1.410 . S
C1339 C1347 1.503 1_655 S
C1340 C1339 1.410 . S
C1340 C1341 1.392 . S
C1340 C1343 1.511 1_655 S
C1341 C1337 1.376 . S
C1341 C1340 1.392 . S
C1341 H1353 0.929 . S
C1342 C1338 1.531 . S
C1342 H1354 0.960 . S
C1342 H1355 0.962 . S
C1342 H1356 0.960 . S
C1343 C1340 1.511 1_455 S
C1343 H1357 0.961 . S
C1343 H1358 0.961 . S
C1343 H1359 0.961 . S
C1344 C1345 1.370 . S
C1344 C1346 1.363 . S
C1344 H1360 0.931 . S
C1345 C1344 1.370 . S
C1345 C1349 1.408 . S
C1346 C1344 1.363 . S
C1346 C1347 1.370 . S
C1346 C1350 1.524 . S
C1347 C1339 1.503 1_455 S
C1347 C1346 1.370 . S
C1347 C1348 1.403 . S
C1348 C1347 1.403 . S
C1348 C1349 1.404 . S
C1348 C1351 1.539 . S
C1349 C1345 1.408 . S
C1349 C1348 1.404 . S
C1349 H1361 0.930 . S
C1350 C1346 1.524 . S
C1350 H1362 0.956 1_455 S
C1350 H1363 0.961 . S
C1350 H1364 0.961 . S
C1351 C1348 1.539 . S
C1351 H1365 0.958 1_455 S
C1351 H1366 0.961 . S
C1351 H1367 0.960 . S
H1352 C1336 0.931 . S
H1353 C1341 0.929 . S
H1354 C1342 0.960 . S
H1355 C1342 0.962 . S
H1356 C1342 0.960 . S
H1357 C1343 0.961 . S
H1358 C1343 0.961 . S
H1359 C1343 0.961 . S
H1360 C1344 0.931 . S
H1361 C1349 0.930 . S
H1362 C1350 0.956 1_655 S
H1363 C1350 0.961 . S
H1364 C1350 0.961 . S
H1365 C1351 0.958 1_655 S
H1366 C1351 0.961 . S
H1367 C1351 0.960 . S
C1368 C1369 1.391 . S
C1368 C1370 1.394 . S
C1368 H1384 0.931 . S
C1369 C1368 1.391 . S
C1369 C1373 1.376 . S
C1370 C1368 1.394 . S
C1370 C1371 1.369 . S
C1370 C1374 1.531 . S
C1371 C1370 1.369 . S
C1371 C1372 1.410 . S
C1371 C1379 1.503 . S
C1372 C1371 1.410 . S
C1372 C1373 1.392 . S
C1372 C1375 1.511 . S
C1373 C1369 1.376 . S
C1373 C1372 1.392 . S
C1373 H1385 0.929 . S
C1374 C1370 1.531 . S
C1374 H1386 0.960 . S
C1374 H1387 0.962 . S
C1374 H1388 0.960 . S
C1375 C1372 1.511 . S
C1375 H1389 0.961 . S
C1375 H1390 0.961 . S
C1375 H1391 0.961 . S
C1376 C1377 1.370 . S
C1376 C1378 1.363 . S
C1376 H1392 0.931 . S
C1377 C1376 1.370 . S
C1377 C1381 1.408 . S
C1378 C1376 1.363 . S
C1378 C1379 1.370 . S
C1378 C1382 1.524 . S
C1379 C1371 1.503 . S
C1379 C1378 1.370 . S
C1379 C1380 1.403 . S
C1380 C1379 1.403 . S
C1380 C1381 1.404 . S
C1380 C1383 1.539 . S
C1381 C1377 1.408 . S
C1381 C1380 1.404 . S
C1381 H1393 0.930 . S
C1382 C1378 1.524 . S
C1382 H1394 0.956 . S
C1382 H1395 0.961 . S
C1382 H1396 0.961 . S
C1383 C1380 1.539 . S
C1383 H1397 0.958 . S
C1383 H1398 0.961 . S
C1383 H1399 0.960 . S
H1384 C1368 0.931 . S
H1385 C1373 0.929 . S
H1386 C1374 0.960 . S
H1387 C1374 0.962 . S
H1388 C1374 0.960 . S
H1389 C1375 0.961 . S
H1390 C1375 0.961 . S
H1391 C1375 0.961 . S
H1392 C1376 0.931 . S
H1393 C1381 0.930 . S
H1394 C1382 0.956 . S
H1395 C1382 0.961 . S
H1396 C1382 0.961 . S
H1397 C1383 0.958 . S
H1398 C1383 0.961 . S
H1399 C1383 0.960 . S
C1400 C1401 1.391 . S
C1400 C1402 1.394 1_554 S
C1400 H1416 0.931 . S
C1401 C1400 1.391 . S
C1401 C1405 1.376 . S
C1402 C1400 1.394 1_556 S
C1402 C1403 1.374 . S
C1402 C1406 1.531 . S
C1403 C1402 1.374 . S
C1403 C1404 1.384 1_556 S
C1403 C1411 1.522 . S
C1404 C1403 1.384 1_554 S
C1404 C1405 1.392 . S
C1404 C1407 1.511 . S
C1405 C1401 1.376 . S
C1405 C1404 1.392 . S
C1405 H1417 0.929 . S
C1406 C1402 1.531 . S
C1406 H1418 0.960 . S
C1406 H1419 0.962 . S
C1406 H1420 0.960 . S
C1407 C1404 1.511 . S
C1407 H1421 0.961 . S
C1407 H1422 0.961 . S
C1407 H1423 0.961 1_655 S
C1408 C1409 1.370 . S
C1408 C1410 1.363 . S
C1408 H1424 0.931 . S
C1409 C1408 1.370 . S
C1409 C1413 1.408 . S
C1410 C1408 1.363 . S
C1410 C1411 1.370 . S
C1410 C1414 1.524 1_556 S
C1411 C1403 1.522 . S
C1411 C1410 1.370 . S
C1411 C1412 1.403 . S
C1412 C1411 1.403 . S
C1412 C1413 1.404 . S
C1412 C1415 1.539 . S
C1413 C1409 1.408 . S
C1413 C1412 1.404 . S
C1413 H1425 0.930 . S
C1414 C1410 1.524 1_554 S
C1414 H1426 0.956 . S
C1414 H1427 0.961 . S
C1414 H1428 0.961 . S
C1415 C1412 1.539 . S
C1415 H1429 0.958 . S
C1415 H1430 0.961 . S
C1415 H1431 0.960 . S
H1416 C1400 0.931 . S
H1417 C1405 0.929 . S
H1418 C1406 0.960 . S
H1419 C1406 0.962 . S
H1420 C1406 0.960 . S
H1421 C1407 0.961 . S
H1422 C1407 0.961 . S
H1423 C1407 0.961 1_455 S
H1424 C1408 0.931 . S
H1425 C1413 0.930 . S
H1426 C1414 0.956 . S
H1427 C1414 0.961 . S
H1428 C1414 0.961 . S
H1429 C1415 0.958 . S
H1430 C1415 0.961 . S
H1431 C1415 0.960 . S
C1432 C1433 1.391 . S
C1432 C1434 1.394 . S
C1432 H1448 0.931 . S
C1433 C1432 1.391 . S
C1433 C1437 1.376 . S
C1434 C1432 1.394 . S
C1434 C1435 1.369 . S
C1434 C1438 1.531 . S
C1435 C1434 1.369 . S
C1435 C1436 1.410 . S
C1435 C1443 1.503 . S
C1436 C1435 1.410 . S
C1436 C1437 1.392 . S
C1436 C1439 1.511 . S
C1437 C1433 1.376 . S
C1437 C1436 1.392 . S
C1437 H1449 0.929 . S
C1438 C1434 1.531 . S
C1438 H1450 0.960 . S
C1438 H1451 0.962 . S
C1438 H1452 0.960 . S
C1439 C1436 1.511 . S
C1439 H1453 0.961 . S
C1439 H1454 0.961 . S
C1439 H1455 0.961 . S
C1440 C1441 1.370 . S
C1440 C1442 1.363 . S
C1440 H1456 0.931 . S
C1441 C1440 1.370 . S
C1441 C1445 1.408 . S
C1442 C1440 1.363 . S
C1442 C1443 1.370 . S
C1442 C1446 1.524 . S
C1443 C1435 1.503 . S
C1443 C1442 1.370 . S
C1443 C1444 1.403 . S
C1444 C1443 1.403 . S
C1444 C1445 1.404 . S
C1444 C1447 1.539 . S
C1445 C1441 1.408 . S
C1445 C1444 1.404 . S
C1445 H1457 0.930 . S
C1446 C1442 1.524 . S
C1446 H1458 0.956 . S
C1446 H1459 0.961 . S
C1446 H1460 0.961 . S
C1447 C1444 1.539 . S
C1447 H1461 0.958 . S
C1447 H1462 0.961 . S
C1447 H1463 0.960 . S
H1448 C1432 0.931 . S
H1449 C1437 0.929 . S
H1450 C1438 0.960 . S
H1451 C1438 0.962 . S
H1452 C1438 0.960 . S
H1453 C1439 0.961 . S
H1454 C1439 0.961 . S
H1455 C1439 0.961 . S
H1456 C1440 0.931 . S
H1457 C1445 0.930 . S
H1458 C1446 0.956 . S
H1459 C1446 0.961 . S
H1460 C1446 0.961 . S
H1461 C1447 0.958 . S
H1462 C1447 0.961 . S
H1463 C1447 0.960 . S
C1464 C1465 1.391 . S
C1464 C1466 1.394 . S
C1464 H1480 0.931 . S
C1465 C1464 1.391 . S
C1465 C1469 1.376 . S
C1466 C1464 1.394 . S
C1466 C1467 1.369 . S
C1466 C1470 1.531 . S
C1467 C1466 1.369 . S
C1467 C1468 1.410 . S
C1467 C1475 1.503 . S
C1468 C1467 1.410 . S
C1468 C1469 1.392 . S
C1468 C1471 1.511 . S
C1469 C1465 1.376 . S
C1469 C1468 1.392 . S
C1469 H1481 0.929 . S
C1470 C1466 1.531 . S
C1470 H1482 0.960 . S
C1470 H1483 0.962 . S
C1470 H1484 0.960 . S
C1471 C1468 1.511 . S
C1471 H1485 0.961 . S
C1471 H1486 0.961 . S
C1471 H1487 0.961 . S
C1472 C1473 1.370 . S
C1472 C1474 1.363 . S
C1472 H1488 0.931 . S
C1473 C1472 1.370 . S
C1473 C1477 1.408 . S
C1474 C1472 1.363 . S
C1474 C1475 1.370 1_556 S
C1474 C1478 1.524 . S
C1475 C1467 1.503 . S
C1475 C1474 1.370 1_554 S
C1475 C1476 1.403 . S
C1476 C1475 1.403 . S
C1476 C1477 1.404 1_554 S
C1476 C1479 1.539 . S
C1477 C1473 1.408 . S
C1477 C1476 1.404 1_556 S
C1477 H1489 0.930 . S
C1478 C1474 1.524 . S
C1478 H1490 0.956 . S
C1478 H1491 0.961 . S
C1478 H1492 0.961 . S
C1479 C1476 1.539 . S
C1479 H1493 0.958 . S
C1479 H1494 0.961 . S
C1479 H1495 0.960 . S
H1480 C1464 0.931 . S
H1481 C1469 0.929 . S
H1482 C1470 0.960 . S
H1483 C1470 0.962 . S
H1484 C1470 0.960 . S
H1485 C1471 0.961 . S
H1486 C1471 0.961 . S
H1487 C1471 0.961 . S
H1488 C1472 0.931 . S
H1489 C1477 0.930 . S
H1490 C1478 0.956 . S
H1491 C1478 0.961 . S
H1492 C1478 0.961 . S
H1493 C1479 0.958 . S
H1494 C1479 0.961 . S
H1495 C1479 0.960 . S
C1496 C1497 1.391 . S
C1496 C1498 1.394 . S
C1496 H1512 0.931 . S
C1497 C1496 1.391 . S
C1497 C1501 1.376 . S
C1498 C1496 1.394 . S
C1498 C1499 1.369 . S
C1498 C1502 1.531 . S
C1499 C1498 1.369 . S
C1499 C1500 1.410 . S
C1499 C1507 1.503 . S
C1500 C1499 1.410 . S
C1500 C1501 1.392 . S
C1500 C1503 1.511 . S
C1501 C1497 1.376 . S
C1501 C1500 1.392 . S
C1501 H1513 0.929 . S
C1502 C1498 1.531 . S
C1502 H1514 0.960 . S
C1502 H1515 0.962 . S
C1502 H1516 0.960 . S
C1503 C1500 1.511 . S
C1503 H1517 0.961 . S
C1503 H1518 0.961 . S
C1503 H1519 0.961 . S
C1504 C1505 1.370 . S
C1504 C1506 1.363 . S
C1504 H1520 0.931 . S
C1505 C1504 1.370 . S
C1505 C1509 1.408 . S
C1506 C1504 1.363 . S
C1506 C1507 1.370 . S
C1506 C1510 1.524 . S
C1507 C1499 1.503 . S
C1507 C1506 1.370 . S
C1507 C1508 1.403 . S
C1508 C1507 1.403 . S
C1508 C1509 1.404 . S
C1508 C1511 1.539 . S
C1509 C1505 1.408 . S
C1509 C1508 1.404 . S
C1509 H1521 0.930 . S
C1510 C1506 1.524 . S
C1510 H1522 0.956 . S
C1510 H1523 0.961 . S
C1510 H1524 0.961 . S
C1511 C1508 1.539 . S
C1511 H1525 0.958 . S
C1511 H1526 0.961 . S
C1511 H1527 0.960 . S
H1512 C1496 0.931 . S
H1513 C1501 0.929 . S
H1514 C1502 0.960 . S
H1515 C1502 0.962 . S
H1516 C1502 0.960 . S
H1517 C1503 0.961 . S
H1518 C1503 0.961 . S
H1519 C1503 0.961 . S
H1520 C1504 0.931 . S
H1521 C1509 0.930 . S
H1522 C1510 0.956 . S
H1523 C1510 0.961 . S
H1524 C1510 0.961 . S
H1525 C1511 0.958 . S
H1526 C1511 0.961 . S
H1527 C1511 0.960 . S
C1528 C1529 1.391 1_554 S
C1528 C1530 1.394 . S
C1528 H1544 0.931 . S
C1529 C1528 1.391 1_556 S
C1529 C1533 1.376 . S
C1530 C1528 1.394 . S
C1530 C1531 1.369 . S
C1530 C1534 1.531 . S
C1531 C1530 1.369 . S
C1531 C1532 1.410 . S
C1531 C1539 1.503 . S
C1532 C1531 1.410 . S
C1532 C1533 1.392 1_554 S
C1532 C1535 1.510 . S
C1533 C1529 1.376 . S
C1533 C1532 1.392 1_556 S
C1533 H1545 0.929 . S
C1534 C1530 1.531 . S
C1534 H1546 0.960 . S
C1534 H1547 0.962 . S
C1534 H1548 0.960 . S
C1535 C1532 1.510 . S
C1535 H1549 0.940 1_554 S
C1535 H1550 0.977 . S
C1535 H1551 0.967 . S
C1536 C1537 1.370 . S
C1536 C1538 1.363 . S
C1536 H1552 0.931 . S
C1537 C1536 1.370 . S
C1537 C1541 1.408 . S
C1538 C1536 1.363 . S
C1538 C1539 1.370 . S
C1538 C1542 1.524 . S
C1539 C1531 1.503 . S
C1539 C1538 1.370 . S
C1539 C1540 1.403 . S
C1540 C1539 1.403 . S
C1540 C1541 1.404 . S
C1540 C1543 1.539 . S
C1541 C1537 1.408 . S
C1541 C1540 1.404 . S
C1541 H1553 0.930 . S
C1542 C1538 1.524 . S
C1542 H1554 0.956 . S
C1542 H1555 0.961 . S
C1542 H1556 0.961 . S
C1543 C1540 1.539 . S
C1543 H1557 0.958 . S
C1543 H1558 0.961 . S
C1543 H1559 0.960 . S
H1544 C1528 0.931 . S
H1545 C1533 0.929 . S
H1546 C1534 0.960 . S
H1547 C1534 0.962 . S
H1548 C1534 0.960 . S
H1549 C1535 0.940 1_556 S
H1550 C1535 0.977 . S
H1551 C1535 0.967 . S
H1552 C1536 0.931 . S
H1553 C1541 0.930 . S
H1554 C1542 0.956 . S
H1555 C1542 0.961 . S
H1556 C1542 0.961 . S
H1557 C1543 0.958 . S
H1558 C1543 0.961 . S
H1559 C1543 0.960 . S
C1560 C1561 1.391 . S
C1560 C1562 1.394 . S
C1560 H1576 0.931 . S
C1561 C1560 1.391 . S
C1561 C1565 1.376 . S
C1562 C1560 1.394 . S
C1562 C1563 1.369 . S
C1562 C1566 1.531 . S
C1563 C1562 1.369 . S
C1563 C1564 1.410 . S
C1563 C1571 1.503 . S
C1564 C1563 1.410 . S
C1564 C1565 1.392 . S
C1564 C1567 1.511 . S
C1565 C1561 1.376 . S
C1565 C1564 1.392 . S
C1565 H1577 0.929 . S
C1566 C1562 1.531 . S
C1566 H1578 0.960 . S
C1566 H1579 0.962 . S
C1566 H1580 0.960 . S
C1567 C1564 1.511 . S
C1567 H1581 0.961 . S
C1567 H1582 0.961 . S
C1567 H1583 0.961 . S
C1568 C1569 1.370 . S
C1568 C1570 1.363 . S
C1568 H1584 0.931 . S
C1569 C1568 1.370 . S
C1569 C1573 1.408 . S
C1570 C1568 1.363 . S
C1570 C1571 1.370 . S
C1570 C1574 1.524 . S
C1571 C1563 1.503 . S
C1571 C1570 1.370 . S
C1571 C1572 1.403 . S
C1572 C1571 1.403 . S
C1572 C1573 1.404 . S
C1572 C1575 1.539 . S
C1573 C1569 1.408 . S
C1573 C1572 1.404 . S
C1573 H1585 0.930 . S
C1574 C1570 1.524 . S
C1574 H1586 0.956 . S
C1574 H1587 0.961 . S
C1574 H1588 0.961 . S
C1575 C1572 1.539 . S
C1575 H1589 0.958 . S
C1575 H1590 0.961 . S
C1575 H1591 0.960 . S
H1576 C1560 0.931 . S
H1577 C1565 0.929 . S
H1578 C1566 0.960 . S
H1579 C1566 0.962 . S
H1580 C1566 0.960 . S
H1581 C1567 0.961 . S
H1582 C1567 0.961 . S
H1583 C1567 0.961 . S
H1584 C1568 0.931 . S
H1585 C1573 0.930 . S
H1586 C1574 0.956 . S
H1587 C1574 0.961 . S
H1588 C1574 0.961 . S
H1589 C1575 0.958 . S
H1590 C1575 0.961 . S
H1591 C1575 0.960 . S
C1592 C1593 1.391 . S
C1592 C1594 1.394 1_556 S
C1592 H1608 0.931 . S
C1593 C1592 1.391 . S
C1593 C1597 1.376 . S
C1594 C1592 1.394 1_554 S
C1594 C1595 1.369 . S
C1594 C1598 1.531 . S
C1595 C1594 1.369 . S
C1595 C1596 1.410 . S
C1595 C1603 1.503 . S
C1596 C1595 1.410 . S
C1596 C1597 1.392 1_554 S
C1596 C1599 1.511 . S
C1597 C1593 1.376 . S
C1597 C1596 1.392 1_556 S
C1597 H1609 0.929 . S
C1598 C1594 1.531 . S
C1598 H1610 0.960 . S
C1598 H1611 0.962 . S
C1598 H1612 0.960 . S
C1599 C1596 1.511 . S
C1599 H1613 0.961 1_554 S
C1599 H1614 0.961 . S
C1599 H1615 0.961 . S
C1600 C1601 1.370 . S
C1600 C1602 1.363 . S
C1600 H1616 0.931 . S
C1601 C1600 1.370 . S
C1601 C1605 1.408 . S
C1602 C1600 1.363 . S
C1602 C1603 1.370 . S
C1602 C1606 1.524 . S
C1603 C1595 1.503 . S
C1603 C1602 1.370 . S
C1603 C1604 1.403 . S
C1604 C1603 1.403 . S
C1604 C1605 1.404 . S
C1604 C1607 1.539 . S
C1605 C1601 1.408 . S
C1605 C1604 1.404 . S
C1605 H1617 0.930 . S
C1606 C1602 1.524 . S
C1606 H1618 0.956 . S
C1606 H1619 0.961 . S
C1606 H1620 0.961 . S
C1607 C1604 1.539 . S
C1607 H1621 0.958 . S
C1607 H1622 0.961 . S
C1607 H1623 0.960 . S
H1608 C1592 0.931 . S
H1609 C1597 0.929 . S
H1610 C1598 0.960 . S
H1611 C1598 0.962 . S
H1612 C1598 0.960 . S
H1613 C1599 0.961 1_556 S
H1614 C1599 0.961 . S
H1615 C1599 0.961 . S
H1616 C1600 0.931 . S
H1617 C1605 0.930 . S
H1618 C1606 0.956 . S
H1619 C1606 0.961 . S
H1620 C1606 0.961 . S
H1621 C1607 0.958 . S
H1622 C1607 0.961 . S
H1623 C1607 0.960 . S
C1624 C1625 1.391 . S
C1624 C1626 1.394 . S
C1624 H1640 0.931 . S
C1625 C1624 1.391 . S
C1625 C1629 1.376 . S
C1626 C1624 1.394 . S
C1626 C1627 1.369 . S
C1626 C1630 1.531 . S
C1627 C1626 1.369 . S
C1627 C1628 1.410 . S
C1627 C1635 1.503 . S
C1628 C1627 1.410 . S
C1628 C1629 1.392 . S
C1628 C1631 1.511 . S
C1629 C1625 1.376 . S
C1629 C1628 1.392 . S
C1629 H1641 0.929 . S
C1630 C1626 1.531 . S
C1630 H1642 0.960 . S
C1630 H1643 0.962 . S
C1630 H1644 0.960 . S
C1631 C1628 1.511 . S
C1631 H1645 0.961 . S
C1631 H1646 0.961 . S
C1631 H1647 0.961 . S
C1632 C1633 1.370 . S
C1632 C1634 1.363 . S
C1632 H1648 0.931 . S
C1633 C1632 1.370 . S
C1633 C1637 1.408 . S
C1634 C1632 1.363 . S
C1634 C1635 1.370 . S
C1634 C1638 1.524 . S
C1635 C1627 1.503 . S
C1635 C1634 1.370 . S
C1635 C1636 1.403 . S
C1636 C1635 1.403 . S
C1636 C1637 1.404 . S
C1636 C1639 1.539 . S
C1637 C1633 1.408 . S
C1637 C1636 1.404 . S
C1637 H1649 0.930 . S
C1638 C1634 1.524 . S
C1638 H1650 0.956 . S
C1638 H1651 0.961 . S
C1638 H1652 0.961 . S
C1639 C1636 1.539 . S
C1639 H1653 0.958 . S
C1639 H1654 0.961 . S
C1639 H1655 0.960 . S
H1640 C1624 0.931 . S
H1641 C1629 0.929 . S
H1642 C1630 0.960 . S
H1643 C1630 0.962 . S
H1644 C1630 0.960 . S
H1645 C1631 0.961 . S
H1646 C1631 0.961 . S
H1647 C1631 0.961 . S
H1648 C1632 0.931 . S
H1649 C1637 0.930 . S
H1650 C1638 0.956 . S
H1651 C1638 0.961 . S
H1652 C1638 0.961 . S
H1653 C1639 0.958 . S
H1654 C1639 0.961 . S
H1655 C1639 0.960 . S
C1656 C1657 1.391 . S
C1656 C1658 1.394 . S
C1656 H1672 0.931 . S
C1657 C1656 1.391 . S
C1657 C1661 1.376 . S
C1658 C1656 1.394 . S
C1658 C1659 1.369 . S
C1658 C1662 1.531 . S
C1659 C1658 1.369 . S
C1659 C1660 1.410 . S
C1659 C1667 1.503 . S
C1660 C1659 1.410 . S
C1660 C1661 1.392 . S
C1660 C1663 1.511 . S
C1661 C1657 1.376 . S
C1661 C1660 1.392 . S
C1661 H1673 0.929 . S
C1662 C1658 1.531 . S
C1662 H1674 0.960 . S
C1662 H1675 0.962 . S
C1662 H1676 0.960 . S
C1663 C1660 1.511 . S
C1663 H1677 0.961 . S
C1663 H1678 0.961 . S
C1663 H1679 0.961 . S
C1664 C1665 1.370 . S
C1664 C1666 1.363 . S
C1664 H1680 0.931 . S
C1665 C1664 1.370 . S
C1665 C1669 1.408 . S
C1666 C1664 1.363 . S
C1666 C1667 1.370 . S
C1666 C1670 1.524 . S
C1667 C1659 1.503 . S
C1667 C1666 1.370 . S
C1667 C1668 1.403 . S
C1668 C1667 1.403 . S
C1668 C1669 1.404 . S
C1668 C1671 1.539 . S
C1669 C1665 1.408 . S
C1669 C1668 1.404 . S
C1669 H1681 0.930 . S
C1670 C1666 1.524 . S
C1670 H1682 0.956 . S
C1670 H1683 0.961 . S
C1670 H1684 0.961 . S
C1671 C1668 1.539 . S
C1671 H1685 0.958 . S
C1671 H1686 0.961 . S
C1671 H1687 0.960 . S
H1672 C1656 0.931 . S
H1673 C1661 0.929 . S
H1674 C1662 0.960 . S
H1675 C1662 0.962 . S
H1676 C1662 0.960 . S
H1677 C1663 0.961 . S
H1678 C1663 0.961 . S
H1679 C1663 0.961 . S
H1680 C1664 0.931 . S
H1681 C1669 0.930 . S
H1682 C1670 0.956 . S
H1683 C1670 0.961 . S
H1684 C1670 0.961 . S
H1685 C1671 0.958 . S
H1686 C1671 0.961 . S
H1687 C1671 0.960 . S
C1688 C1689 1.391 . S
C1688 C1690 1.394 . S
C1688 H1704 0.931 . S
C1689 C1688 1.391 . S
C1689 C1693 1.376 . S
C1690 C1688 1.394 . S
C1690 C1691 1.369 . S
C1690 C1694 1.531 . S
C1691 C1690 1.369 . S
C1691 C1692 1.410 . S
C1691 C1699 1.503 . S
C1692 C1691 1.410 . S
C1692 C1693 1.392 . S
C1692 C1695 1.511 . S
C1693 C1689 1.376 . S
C1693 C1692 1.392 . S
C1693 H1705 0.929 . S
C1694 C1690 1.531 . S
C1694 H1706 0.960 . S
C1694 H1707 0.962 . S
C1694 H1708 0.960 . S
C1695 C1692 1.511 . S
C1695 H1709 0.961 . S
C1695 H1710 0.961 . S
C1695 H1711 0.961 . S
C1696 C1697 1.370 . S
C1696 C1698 1.363 . S
C1696 H1712 0.931 . S
C1697 C1696 1.370 . S
C1697 C1701 1.408 . S
C1698 C1696 1.363 . S
C1698 C1699 1.370 . S
C1698 C1702 1.524 . S
C1699 C1691 1.503 . S
C1699 C1698 1.370 . S
C1699 C1700 1.403 . S
C1700 C1699 1.403 . S
C1700 C1701 1.404 . S
C1700 C1703 1.539 . S
C1701 C1697 1.408 . S
C1701 C1700 1.404 . S
C1701 H1713 0.930 . S
C1702 C1698 1.524 . S
C1702 H1714 0.956 . S
C1702 H1715 0.961 . S
C1702 H1716 0.961 . S
C1703 C1700 1.539 . S
C1703 H1717 0.958 . S
C1703 H1718 0.961 . S
C1703 H1719 0.960 . S
H1704 C1688 0.931 . S
H1705 C1693 0.929 . S
H1706 C1694 0.960 . S
H1707 C1694 0.962 . S
H1708 C1694 0.960 . S
H1709 C1695 0.961 . S
H1710 C1695 0.961 . S
H1711 C1695 0.961 . S
H1712 C1696 0.931 . S
H1713 C1701 0.930 . S
H1714 C1702 0.956 . S
H1715 C1702 0.961 . S
H1716 C1702 0.961 . S
H1717 C1703 0.958 . S
H1718 C1703 0.961 . S
H1719 C1703 0.960 . S
C1720 C1721 1.391 . S
C1720 C1722 1.394 . S
C1720 H1736 0.931 . S
C1721 C1720 1.391 . S
C1721 C1725 1.376 . S
C1722 C1720 1.394 . S
C1722 C1723 1.369 . S
C1722 C1726 1.531 . S
C1723 C1722 1.369 . S
C1723 C1724 1.410 . S
C1723 C1731 1.503 . S
C1724 C1723 1.410 . S
C1724 C1725 1.392 . S
C1724 C1727 1.511 . S
C1725 C1721 1.376 . S
C1725 C1724 1.392 . S
C1725 H1737 0.929 . S
C1726 C1722 1.531 . S
C1726 H1738 0.960 . S
C1726 H1739 0.962 . S
C1726 H1740 0.960 . S
C1727 C1724 1.511 . S
C1727 H1741 0.961 . S
C1727 H1742 0.961 . S
C1727 H1743 0.961 . S
C1728 C1729 1.370 . S
C1728 C1730 1.363 . S
C1728 H1744 0.931 . S
C1729 C1728 1.370 . S
C1729 C1733 1.408 . S
C1730 C1728 1.363 . S
C1730 C1731 1.370 . S
C1730 C1734 1.524 . S
C1731 C1723 1.503 . S
C1731 C1730 1.370 . S
C1731 C1732 1.403 . S
C1732 C1731 1.403 . S
C1732 C1733 1.404 . S
C1732 C1735 1.539 . S
C1733 C1729 1.408 . S
C1733 C1732 1.404 . S
C1733 H1745 0.930 . S
C1734 C1730 1.524 . S
C1734 H1746 0.956 . S
C1734 H1747 0.961 . S
C1734 H1748 0.961 . S
C1735 C1732 1.539 . S
C1735 H1749 0.958 . S
C1735 H1750 0.961 . S
C1735 H1751 0.960 . S
H1736 C1720 0.931 . S
H1737 C1725 0.929 . S
H1738 C1726 0.960 . S
H1739 C1726 0.962 . S
H1740 C1726 0.960 . S
H1741 C1727 0.961 . S
H1742 C1727 0.961 . S
H1743 C1727 0.961 . S
H1744 C1728 0.931 . S
H1745 C1733 0.930 . S
H1746 C1734 0.956 . S
H1747 C1734 0.961 . S
H1748 C1734 0.961 . S
H1749 C1735 0.958 . S
H1750 C1735 0.961 . S
H1751 C1735 0.960 . S
C1752 C1753 1.391 . S
C1752 C1754 1.394 . S
C1752 H1768 0.931 . S
C1753 C1752 1.391 . S
C1753 C1757 1.376 . S
C1754 C1752 1.394 . S
C1754 C1755 1.369 . S
C1754 C1758 1.531 . S
C1755 C1754 1.369 . S
C1755 C1756 1.410 . S
C1755 C1763 1.503 . S
C1756 C1755 1.410 . S
C1756 C1757 1.392 . S
C1756 C1759 1.511 . S
C1757 C1753 1.376 . S
C1757 C1756 1.392 . S
C1757 H1769 0.929 . S
C1758 C1754 1.531 . S
C1758 H1770 0.960 . S
C1758 H1771 0.962 . S
C1758 H1772 0.960 . S
C1759 C1756 1.511 . S
C1759 H1773 0.961 . S
C1759 H1774 0.961 . S
C1759 H1775 0.961 . S
C1760 C1761 1.370 . S
C1760 C1762 1.363 . S
C1760 H1776 0.931 . S
C1761 C1760 1.370 . S
C1761 C1765 1.408 . S
C1762 C1760 1.363 . S
C1762 C1763 1.370 . S
C1762 C1766 1.524 . S
C1763 C1755 1.503 . S
C1763 C1762 1.370 . S
C1763 C1764 1.403 . S
C1764 C1763 1.403 . S
C1764 C1765 1.404 . S
C1764 C1767 1.539 . S
C1765 C1761 1.408 . S
C1765 C1764 1.404 . S
C1765 H1777 0.930 . S
C1766 C1762 1.524 . S
C1766 H1778 0.956 . S
C1766 H1779 0.961 . S
C1766 H1780 0.961 1_556 S
C1767 C1764 1.539 . S
C1767 H1781 0.958 . S
C1767 H1782 0.961 . S
C1767 H1783 0.960 . S
H1768 C1752 0.931 . S
H1769 C1757 0.929 . S
H1770 C1758 0.960 . S
H1771 C1758 0.962 . S
H1772 C1758 0.960 . S
H1773 C1759 0.961 . S
H1774 C1759 0.961 . S
H1775 C1759 0.961 . S
H1776 C1760 0.931 . S
H1777 C1765 0.930 . S
H1778 C1766 0.956 . S
H1779 C1766 0.961 . S
H1780 C1766 0.961 1_554 S
H1781 C1767 0.958 . S
H1782 C1767 0.961 . S
H1783 C1767 0.960 . S
C1784 C1785 1.391 . S
C1784 C1786 1.394 . S
C1784 H1800 0.931 . S
C1785 C1784 1.391 . S
C1785 C1789 1.376 . S
C1786 C1784 1.394 . S
C1786 C1787 1.369 . S
C1786 C1790 1.531 . S
C1787 C1786 1.369 . S
C1787 C1788 1.410 . S
C1787 C1795 1.503 . S
C1788 C1787 1.410 . S
C1788 C1789 1.392 . S
C1788 C1791 1.511 . S
C1789 C1785 1.376 . S
C1789 C1788 1.392 . S
C1789 H1801 0.929 . S
C1790 C1786 1.531 . S
C1790 H1802 0.960 . S
C1790 H1803 0.962 . S
C1790 H1804 0.960 . S
C1791 C1788 1.511 . S
C1791 H1805 0.961 . S
C1791 H1806 0.961 . S
C1791 H1807 0.961 . S
C1792 C1793 1.370 . S
C1792 C1794 1.363 . S
C1792 H1808 0.931 . S
C1793 C1792 1.370 . S
C1793 C1797 1.408 . S
C1794 C1792 1.363 . S
C1794 C1795 1.370 . S
C1794 C1798 1.524 . S
C1795 C1787 1.503 . S
C1795 C1794 1.370 . S
C1795 C1796 1.403 . S
C1796 C1795 1.403 . S
C1796 C1797 1.404 . S
C1796 C1799 1.539 . S
C1797 C1793 1.408 . S
C1797 C1796 1.404 . S
C1797 H1809 0.930 . S
C1798 C1794 1.524 . S
C1798 H1810 0.956 . S
C1798 H1811 0.961 . S
C1798 H1812 0.961 . S
C1799 C1796 1.539 . S
C1799 H1813 0.958 . S
C1799 H1814 0.961 . S
C1799 H1815 0.960 . S
H1800 C1784 0.931 . S
H1801 C1789 0.929 . S
H1802 C1790 0.960 . S
H1803 C1790 0.962 . S
H1804 C1790 0.960 . S
H1805 C1791 0.961 . S
H1806 C1791 0.961 . S
H1807 C1791 0.961 . S
H1808 C1792 0.931 . S
H1809 C1797 0.930 . S
H1810 C1798 0.956 . S
H1811 C1798 0.961 . S
H1812 C1798 0.961 . S
H1813 C1799 0.958 . S
H1814 C1799 0.961 . S
H1815 C1799 0.960 . S
C1816 C1817 1.391 . S
C1816 C1818 1.394 . S
C1816 H1832 0.931 . S
C1817 C1816 1.391 . S
C1817 C1821 1.376 . S
C1818 C1816 1.394 . S
C1818 C1819 1.369 . S
C1818 C1822 1.531 . S
C1819 C1818 1.369 . S
C1819 C1820 1.410 . S
C1819 C1827 1.503 . S
C1820 C1819 1.410 . S
C1820 C1821 1.392 . S
C1820 C1823 1.511 . S
C1821 C1817 1.376 . S
C1821 C1820 1.392 . S
C1821 H1833 0.929 . S
C1822 C1818 1.531 . S
C1822 H1834 0.960 . S
C1822 H1835 0.962 . S
C1822 H1836 0.960 . S
C1823 C1820 1.511 . S
C1823 H1837 0.961 . S
C1823 H1838 0.961 . S
C1823 H1839 0.961 . S
C1824 C1825 1.370 . S
C1824 C1826 1.363 . S
C1824 H1840 0.931 . S
C1825 C1824 1.370 . S
C1825 C1829 1.408 . S
C1826 C1824 1.363 . S
C1826 C1827 1.370 . S
C1826 C1830 1.524 . S
C1827 C1819 1.503 . S
C1827 C1826 1.370 . S
C1827 C1828 1.403 . S
C1828 C1827 1.403 . S
C1828 C1829 1.404 . S
C1828 C1831 1.539 1_554 S
C1829 C1825 1.408 . S
C1829 C1828 1.404 . S
C1829 H1841 0.930 1_554 S
C1830 C1826 1.524 . S
C1830 H1842 0.956 . S
C1830 H1843 0.961 . S
C1830 H1844 0.961 . S
C1831 C1828 1.539 1_556 S
C1831 H1845 0.958 . S
C1831 H1846 0.961 . S
C1831 H1847 0.961 1_556 S
H1832 C1816 0.931 . S
H1833 C1821 0.929 . S
H1834 C1822 0.960 . S
H1835 C1822 0.962 . S
H1836 C1822 0.960 . S
H1837 C1823 0.961 . S
H1838 C1823 0.961 . S
H1839 C1823 0.961 . S
H1840 C1824 0.931 . S
H1841 C1829 0.930 1_556 S
H1842 C1830 0.956 . S
H1843 C1830 0.961 . S
H1844 C1830 0.961 . S
H1845 C1831 0.958 . S
H1846 C1831 0.961 . S
H1847 C1831 0.961 1_554 S
C1848 C1849 1.391 . S
C1848 C1850 1.394 . S
C1848 H1864 0.931 . S
C1849 C1848 1.391 . S
C1849 C1853 1.376 . S
C1850 C1848 1.394 . S
C1850 C1851 1.369 . S
C1850 C1854 1.531 . S
C1851 C1850 1.369 . S
C1851 C1852 1.410 . S
C1851 C1859 1.503 . S
C1852 C1851 1.410 . S
C1852 C1853 1.392 . S
C1852 C1855 1.511 . S
C1853 C1849 1.376 . S
C1853 C1852 1.392 . S
C1853 H1865 0.929 . S
C1854 C1850 1.531 . S
C1854 H1866 0.960 . S
C1854 H1867 0.962 . S
C1854 H1868 0.960 . S
C1855 C1852 1.511 . S
C1855 H1869 0.961 . S
C1855 H1870 0.961 . S
C1855 H1871 0.961 . S
C1856 C1857 1.370 . S
C1856 C1858 1.363 . S
C1856 H1872 0.931 . S
C1857 C1856 1.370 . S
C1857 C1861 1.408 . S
C1858 C1856 1.363 . S
C1858 C1859 1.370 . S
C1858 C1862 1.524 . S
C1859 C1851 1.503 . S
C1859 C1858 1.370 . S
C1859 C1860 1.403 . S
C1860 C1859 1.403 . S
C1860 C1861 1.404 . S
C1860 C1863 1.539 . S
C1861 C1857 1.408 . S
C1861 C1860 1.404 . S
C1861 H1873 0.930 . S
C1862 C1858 1.524 . S
C1862 H1874 0.956 . S
C1862 H1875 0.961 . S
C1862 H1876 0.961 . S
C1863 C1860 1.539 . S
C1863 H1877 0.958 . S
C1863 H1878 0.961 . S
C1863 H1879 0.960 . S
H1864 C1848 0.931 . S
H1865 C1853 0.929 . S
H1866 C1854 0.960 . S
H1867 C1854 0.962 . S
H1868 C1854 0.960 . S
H1869 C1855 0.961 . S
H1870 C1855 0.961 . S
H1871 C1855 0.961 . S
H1872 C1856 0.931 . S
H1873 C1861 0.930 . S
H1874 C1862 0.956 . S
H1875 C1862 0.961 . S
H1876 C1862 0.961 . S
H1877 C1863 0.958 . S
H1878 C1863 0.961 . S
H1879 C1863 0.960 . S
C353 C184 1.732 . S
C345 C60 1.729 . S
C385 C199 1.568 . S
C377 C76 1.553 . S
C409 C81 1.819 . S
C417 C212 1.811 . S
C449 C226 1.552 . S
C441 C48 1.542 . S
C481 C238 1.663 . S
C473 C115 1.779 . S
C513 C252 1.399 . S
C505 C136 1.419 . S
C537 C131 1.564 . S
C545 C266 1.536 . S
C577 C281 1.399 . S
C569 C104 1.384 . S
C601 C126 1.597 . S
C609 C297 1.593 . S
C641 C310 1.376 . S
C633 C103 1.373 . S
C665 C120 1.511 . S
C673 C295 1.483 . S
C705 C308 1.527 . S
C697 C142 1.518 . S
C729 C82 1.865 . S
C737 C324 1.863 . S
C761 C54 1.793 . S
C769 C323 1.758 . S
C793 C65 1.635 . S
C801 C322 1.575 . S
C825 C71 1.325 . S
C833 C325 1.313 . S
C857 C37 1.719 . S
C865 C227 1.730 . S
C889 C158 1.817 . S
C897 C225 1.812 . S
C929 C185 1.386 . S
C921 C169 1.402 . S
C961 C196 1.494 . S
C953 C98 1.540 . S
C985 C49 1.670 1_545 S
C993 C241 1.701 . S
C1025 C282 1.880 . S
C1017 C125 1.870 . S
C1057 C239 1.502 . S
C1049 C109 1.463 . S
C1089 C267 1.672 . S
C1081 C137 1.689 . S
C1121 C268 1.732 . S
C1113 C159 1.727 . S
C1145 C175 1.552 . S
C1153 C283 1.569 . S
C1177 C92 1.809 . S
C1185 C240 1.803 . S
C1217 C254 1.554 . S
C1209 C147 1.563 . S
C1241 C38 1.757 . S
C1249 C210 1.688 . S
C1281 C224 1.375 1_455 S
C1273 C4 1.382 . S
C1313 C182 1.536 . S
C1305 C21 1.564 . S
C1345 C197 1.402 . S
C1337 C27 1.399 . S
C1369 C16 1.601 . S
C1377 C311 1.588 . S
C1401 C26 1.348 . S
C1409 C296 1.392 . S
C1433 C43 1.530 . S
C1441 C309 1.464 . S
C1465 C10 1.524 . S
C1473 C294 1.527 . S
C1505 C338 1.862 . S
C1497 C93 1.865 . S
C1537 C337 1.746 . S
C1529 C153 1.772 . S
C1569 C336 1.594 . S
C1561 C164 1.618 . S
C1593 C170 1.288 . S
C1601 C339 1.323 . S
C1625 C114 1.723 . S
C1633 C255 1.721 . S
C1665 C253 1.802 . S
C1657 C59 1.830 . S
C1697 C269 1.403 . S
C1689 C70 1.398 . S
C1729 C280 1.515 . S
C1721 C87 1.535 . S
C1753 C148 1.683 . S
C1761 C213 1.699 . S
C1793 C198 1.884 . S
C1785 C15 1.883 . S
C1817 C32 1.500 . S
C1825 C211 1.481 . S
C1857 C183 1.648 1_545 S
C1849 C5 1.686 . S
