# Generated by pormake.
# Topology eea, (3,6)-cn, num edge types: 1
# Building blocks:
#     Node 0, Type 0, BuildingBlock: CUQRIR_clean_linker_1, # of connection points: 3
#     Node 1, Type 0, BuildingBlock: CUQRIR_clean_linker_1, # of connection points: 3
#     Node 2, Type 0, BuildingBlock: CUQRIR_clean_linker_1, # of connection points: 3
#     Node 3, Type 0, BuildingBlock: CUQRIR_clean_linker_1, # of connection points: 3
#     Node 4, Type 0, BuildingBlock: CUQRIR_clean_linker_1, # of connection points: 3
#     Node 5, Type 0, BuildingBlock: CUQRIR_clean_linker_1, # of connection points: 3
#     Node 6, Type 0, BuildingBlock: CUQRIR_clean_linker_1, # of connection points: 3
#     Node 7, Type 0, BuildingBlock: CUQRIR_clean_linker_1, # of connection points: 3
#     Node 8, Type 0, BuildingBlock: CUQRIR_clean_linker_1, # of connection points: 3
#     Node 9, Type 0, BuildingBlock: CUQRIR_clean_linker_1, # of connection points: 3
#     Node 10, Type 0, BuildingBlock: CUQRIR_clean_linker_1, # of connection points: 3
#     Node 11, Type 0, BuildingBlock: CUQRIR_clean_linker_1, # of connection points: 3
#     Node 12, Type 0, BuildingBlock: CUQRIR_clean_linker_1, # of connection points: 3
#     Node 13, Type 0, BuildingBlock: CUQRIR_clean_linker_1, # of connection points: 3
#     Node 14, Type 0, BuildingBlock: CUQRIR_clean_linker_1, # of connection points: 3
#     Node 15, Type 0, BuildingBlock: CUQRIR_clean_linker_1, # of connection points: 3
#     Node 16, Type 0, BuildingBlock: CUQRIR_clean_linker_1, # of connection points: 3
#     Node 17, Type 0, BuildingBlock: CUQRIR_clean_linker_1, # of connection points: 3
#     Node 18, Type 1, BuildingBlock: CUWYAW_clean_sbu_0, # of connection points: 6
#     Node 19, Type 1, BuildingBlock: CUWYAW_clean_sbu_0, # of connection points: 6
#     Node 20, Type 1, BuildingBlock: CUWYAW_clean_sbu_0, # of connection points: 6
#     Node 21, Type 1, BuildingBlock: CUWYAW_clean_sbu_0, # of connection points: 6
#     Node 22, Type 1, BuildingBlock: CUWYAW_clean_sbu_0, # of connection points: 6
#     Node 23, Type 1, BuildingBlock: CUWYAW_clean_sbu_0, # of connection points: 6
#     Node 24, Type 1, BuildingBlock: CUWYAW_clean_sbu_0, # of connection points: 6
#     Node 25, Type 1, BuildingBlock: CUWYAW_clean_sbu_0, # of connection points: 6
#     Node 26, Type 1, BuildingBlock: CUWYAW_clean_sbu_0, # of connection points: 6
#     Edge 27, Type (0, 1), BuildingBlock: CIFDUS_clean_linker_0, # of connection points: 2
#     Edge 28, Type (0, 1), BuildingBlock: CIFDUS_clean_linker_0, # of connection points: 2
#     Edge 29, Type (0, 1), BuildingBlock: CIFDUS_clean_linker_0, # of connection points: 2
#     Edge 30, Type (0, 1), BuildingBlock: CIFDUS_clean_linker_0, # of connection points: 2
#     Edge 31, Type (0, 1), BuildingBlock: CIFDUS_clean_linker_0, # of connection points: 2
#     Edge 32, Type (0, 1), BuildingBlock: CIFDUS_clean_linker_0, # of connection points: 2
#     Edge 33, Type (0, 1), BuildingBlock: CIFDUS_clean_linker_0, # of connection points: 2
#     Edge 34, Type (0, 1), BuildingBlock: CIFDUS_clean_linker_0, # of connection points: 2
#     Edge 35, Type (0, 1), BuildingBlock: CIFDUS_clean_linker_0, # of connection points: 2
#     Edge 36, Type (0, 1), BuildingBlock: CIFDUS_clean_linker_0, # of connection points: 2
#     Edge 37, Type (0, 1), BuildingBlock: CIFDUS_clean_linker_0, # of connection points: 2
#     Edge 38, Type (0, 1), BuildingBlock: CIFDUS_clean_linker_0, # of connection points: 2
#     Edge 39, Type (0, 1), BuildingBlock: CIFDUS_clean_linker_0, # of connection points: 2
#     Edge 40, Type (0, 1), BuildingBlock: CIFDUS_clean_linker_0, # of connection points: 2
#     Edge 41, Type (0, 1), BuildingBlock: CIFDUS_clean_linker_0, # of connection points: 2
#     Edge 42, Type (0, 1), BuildingBlock: CIFDUS_clean_linker_0, # of connection points: 2
#     Edge 43, Type (0, 1), BuildingBlock: CIFDUS_clean_linker_0, # of connection points: 2
#     Edge 44, Type (0, 1), BuildingBlock: CIFDUS_clean_linker_0, # of connection points: 2
#     Edge 45, Type (0, 1), BuildingBlock: CIFDUS_clean_linker_0, # of connection points: 2
#     Edge 46, Type (0, 1), BuildingBlock: CIFDUS_clean_linker_0, # of connection points: 2
#     Edge 47, Type (0, 1), BuildingBlock: CIFDUS_clean_linker_0, # of connection points: 2
#     Edge 48, Type (0, 1), BuildingBlock: CIFDUS_clean_linker_0, # of connection points: 2
#     Edge 49, Type (0, 1), BuildingBlock: CIFDUS_clean_linker_0, # of connection points: 2
#     Edge 50, Type (0, 1), BuildingBlock: CIFDUS_clean_linker_0, # of connection points: 2
#     Edge 51, Type (0, 1), BuildingBlock: CIFDUS_clean_linker_0, # of connection points: 2
#     Edge 52, Type (0, 1), BuildingBlock: CIFDUS_clean_linker_0, # of connection points: 2
#     Edge 53, Type (0, 1), BuildingBlock: CIFDUS_clean_linker_0, # of connection points: 2
#     Edge 54, Type (0, 1), BuildingBlock: CIFDUS_clean_linker_0, # of connection points: 2
#     Edge 55, Type (0, 1), BuildingBlock: CIFDUS_clean_linker_0, # of connection points: 2
#     Edge 56, Type (0, 1), BuildingBlock: CIFDUS_clean_linker_0, # of connection points: 2
#     Edge 57, Type (0, 1), BuildingBlock: CIFDUS_clean_linker_0, # of connection points: 2
#     Edge 58, Type (0, 1), BuildingBlock: CIFDUS_clean_linker_0, # of connection points: 2
#     Edge 59, Type (0, 1), BuildingBlock: CIFDUS_clean_linker_0, # of connection points: 2
#     Edge 60, Type (0, 1), BuildingBlock: CIFDUS_clean_linker_0, # of connection points: 2
#     Edge 61, Type (0, 1), BuildingBlock: CIFDUS_clean_linker_0, # of connection points: 2
#     Edge 62, Type (0, 1), BuildingBlock: CIFDUS_clean_linker_0, # of connection points: 2
#     Edge 63, Type (0, 1), BuildingBlock: CIFDUS_clean_linker_0, # of connection points: 2
#     Edge 64, Type (0, 1), BuildingBlock: CIFDUS_clean_linker_0, # of connection points: 2
#     Edge 65, Type (0, 1), BuildingBlock: CIFDUS_clean_linker_0, # of connection points: 2
#     Edge 66, Type (0, 1), BuildingBlock: CIFDUS_clean_linker_0, # of connection points: 2
#     Edge 67, Type (0, 1), BuildingBlock: CIFDUS_clean_linker_0, # of connection points: 2
#     Edge 68, Type (0, 1), BuildingBlock: CIFDUS_clean_linker_0, # of connection points: 2
#     Edge 69, Type (0, 1), BuildingBlock: CIFDUS_clean_linker_0, # of connection points: 2
#     Edge 70, Type (0, 1), BuildingBlock: CIFDUS_clean_linker_0, # of connection points: 2
#     Edge 71, Type (0, 1), BuildingBlock: CIFDUS_clean_linker_0, # of connection points: 2
#     Edge 72, Type (0, 1), BuildingBlock: CIFDUS_clean_linker_0, # of connection points: 2
#     Edge 73, Type (0, 1), BuildingBlock: CIFDUS_clean_linker_0, # of connection points: 2
#     Edge 74, Type (0, 1), BuildingBlock: CIFDUS_clean_linker_0, # of connection points: 2
#     Edge 75, Type (0, 1), BuildingBlock: CIFDUS_clean_linker_0, # of connection points: 2
#     Edge 76, Type (0, 1), BuildingBlock: CIFDUS_clean_linker_0, # of connection points: 2
#     Edge 77, Type (0, 1), BuildingBlock: CIFDUS_clean_linker_0, # of connection points: 2
#     Edge 78, Type (0, 1), BuildingBlock: CIFDUS_clean_linker_0, # of connection points: 2
#     Edge 79, Type (0, 1), BuildingBlock: CIFDUS_clean_linker_0, # of connection points: 2
#     Edge 80, Type (0, 1), BuildingBlock: CIFDUS_clean_linker_0, # of connection points: 2
# Relax obj value: 0.107
# Max RMSD: 0.257
# Mean RMSD: 0.186
data_MOF--net-eea--node1-CUWYAW_clean_sbu_0--node2-CUQRIR_clean_linker_1--edge1-CIFDUS_clean_linker_0
_symmetry_space_group_name_H-M    P1
_symmetry_Int_Tables_number       1
_symmetry_cell_setting            triclinic
loop_
_symmetry_equiv_pos_as_xyz
'x, y, z'
_cell_length_a     42.286469
_cell_length_b     42.388538
_cell_length_c     59.08
_cell_angle_alpha  86.697324
_cell_angle_beta   93.394094
_cell_angle_gamma 119.54991
loop_
_atom_site_label
_atom_site_type_symbol
_atom_site_fract_x
_atom_site_fract_y
_atom_site_fract_z
_atom_type_partial_charge
C0 C 0.2147 0.12985 0.39823 0.0
N1 N 0.23141 0.15929 0.41144 0.0
N2 N 0.20811 0.09931 0.41043 0.0
C3 C 0.20596 0.13111 0.3732 0.0
C4 C 0.22106 0.11113 0.43159 0.0
N5 N 0.23471 0.14752 0.43232 0.0
C6 C 0.22214 0.08752 0.45132 0.0
H7 H 0.1983 0.15238 0.36906 0.0
H8 H 0.18355 0.1048 0.36737 0.0
H9 H 0.23041 0.1377 0.36366 0.0
H10 H 0.21078 0.05887 0.44671 0.0
H11 H 0.20612 0.08836 0.46524 0.0
H12 H 0.25063 0.09827 0.45786 0.0
C13 C 0.923 0.13396 0.41119 0.0
N14 N 0.94135 0.1591 0.42729 0.0
N15 N 0.89136 0.10658 0.41919 0.0
C16 C 0.93549 0.13661 0.38744 0.0
C17 C 0.89121 0.11565 0.44073 0.0
N18 N 0.9215 0.14731 0.44578 0.0
C19 C 0.8613 0.09349 0.45694 0.0
H20 H 0.92633 0.15298 0.37655 0.0
H21 H 0.92393 0.10969 0.37989 0.0
H22 H 0.96559 0.15001 0.38726 0.0
H23 H 0.84619 0.06455 0.45235 0.0
H24 H 0.84201 0.10419 0.45623 0.0
H25 H 0.87244 0.09551 0.4746 0.0
C26 C 0.87897 0.75884 0.40152 0.0
N27 N 0.89861 0.74645 0.41415 0.0
N28 N 0.85005 0.754 0.413 0.0
C29 C 0.89026 0.7796 0.37918 0.0
C30 C 0.85278 0.73821 0.43298 0.0
N31 N 0.88242 0.7339 0.43379 0.0
C32 C 0.82753 0.72863 0.45227 0.0
H33 H 0.88639 0.80368 0.37892 0.0
H34 H 0.87266 0.76185 0.36539 0.0
H35 H 0.919 0.78861 0.37568 0.0
H36 H 0.80077 0.72528 0.4461 0.0
H37 H 0.8399 0.75062 0.46467 0.0
H38 H 0.82346 0.70322 0.4612 0.0
C39 C 0.12186 0.25574 0.64543 0.0
N40 N 0.14993 0.26789 0.6313 0.0
N41 N 0.09108 0.2498 0.63362 0.0
C42 C 0.12343 0.24542 0.67013 0.0
C43 C 0.1013 0.25849 0.61188 0.0
N44 N 0.13684 0.26882 0.61043 0.0
C45 C 0.07707 0.25866 0.5922 0.0
H46 H 0.09645 0.22391 0.67581 0.0
H47 H 0.13222 0.26969 0.68037 0.0
H48 H 0.14331 0.23564 0.67338 0.0
H49 H 0.05479 0.26257 0.598 0.0
H50 H 0.06492 0.23231 0.58371 0.0
H51 H 0.09296 0.28051 0.57957 0.0
C52 C 0.82323 0.91136 0.64605 0.0
N53 N 0.81386 0.88656 0.62987 0.0
N54 N 0.81683 0.93853 0.63846 0.0
C55 C 0.83639 0.90774 0.66979 0.0
C56 C 0.80279 0.9291 0.61713 0.0
N57 N 0.80057 0.89728 0.61198 0.0
C58 C 0.79426 0.95251 0.60059 0.0
H59 H 0.829 0.9218 0.68197 0.0
H60 H 0.86644 0.92008 0.67016 0.0
H61 H 0.82466 0.87877 0.67526 0.0
H62 H 0.79939 0.94902 0.58295 0.0
H63 H 0.8108 0.98159 0.60465 0.0
H64 H 0.76506 0.94433 0.60152 0.0
C65 C 0.13609 0.9355 0.65235 0.0
N66 N 0.12048 0.90724 0.63812 0.0
N67 N 0.15946 0.96652 0.64113 0.0
C68 C 0.12856 0.9328 0.67718 0.0
C69 C 0.15715 0.95628 0.61955 0.0
N70 N 0.13319 0.92044 0.61763 0.0
C71 C 0.17855 0.98108 0.60024 0.0
H72 H 0.09932 0.91396 0.68009 0.0
H73 H 0.13631 0.95953 0.68403 0.0
H74 H 0.14467 0.92195 0.68678 0.0
H75 H 0.1929 0.96917 0.5919 0.0
H76 H 0.19852 1.00868 0.60578 0.0
H77 H 0.15959 0.9835 0.5874 0.0
C78 C 0.85358 0.43292 0.73511 0.0
N79 N 0.865 0.45938 0.75033 0.0
N80 N 0.85529 0.40378 0.74438 0.0
C81 C 0.84164 0.43608 0.71099 0.0
C82 C 0.86802 0.41349 0.76592 0.0
N83 N 0.87364 0.4472 0.76958 0.0
C84 C 0.87527 0.39014 0.78327 0.0
H85 H 0.81191 0.426 0.71026 0.0
H86 H 0.84747 0.41968 0.69969 0.0
H87 H 0.85549 0.4648 0.70474 0.0
H88 H 0.90391 0.39642 0.78215 0.0
H89 H 0.85716 0.36093 0.78007 0.0
H90 H 0.87143 0.39541 0.80074 0.0
C91 C 0.60348 0.47676 0.74565 0.0
N92 N 0.61802 0.50095 0.76253 0.0
N93 N 0.57377 0.44599 0.75269 0.0
C94 C 0.61848 0.48328 0.72229 0.0
C95 C 0.57095 0.45205 0.77454 0.0
N96 N 0.59812 0.4852 0.78068 0.0
C97 C 0.54165 0.42565 0.78999 0.0
H98 H 0.612 0.5027 0.71262 0.0
H99 H 0.60677 0.45813 0.71261 0.0
H100 H 0.64853 0.49549 0.72351 0.0
H101 H 0.51959 0.40248 0.78083 0.0
H102 H 0.52995 0.43983 0.79874 0.0
H103 H 0.5538 0.41474 0.80317 0.0
C104 C 0.54448 0.08609 0.73344 0.0
N105 N 0.56185 0.0761 0.74987 0.0
N106 N 0.51171 0.07919 0.74039 0.0
C107 C 0.56161 0.10731 0.71197 0.0
C108 C 0.50991 0.06502 0.76166 0.0
N109 N 0.5404 0.06327 0.76751 0.0
C110 C 0.47921 0.05483 0.77727 0.0
H111 H 0.59145 0.12466 0.71454 0.0
H112 H 0.55001 0.12487 0.70598 0.0
H113 H 0.55649 0.08799 0.6985 0.0
H114 H 0.4746 0.0308 0.78814 0.0
H115 H 0.45377 0.04893 0.76748 0.0
H116 H 0.48654 0.07769 0.78852 0.0
C117 C 0.79643 0.62182 0.98103 0.0
N118 N 0.82545 0.63064 0.96823 0.0
N119 N 0.77078 0.62634 0.96881 0.0
C120 C 0.79227 0.60758 1.00525 0.0
C121 C 0.78539 0.63887 0.94827 0.0
N122 N 0.81873 0.64186 0.94796 0.0
C123 C 0.76581 0.64515 0.92787 0.0
H124 H 0.77544 0.57757 1.00552 0.0
H125 H 0.77813 0.61821 1.01497 0.0
H126 H 0.81904 0.61537 1.01383 0.0
H127 H 0.73845 0.64028 0.93189 0.0
H128 H 0.76328 0.62713 0.91416 0.0
H129 H 0.78183 0.67356 0.9214 0.0
C130 C 0.476 0.26423 0.97782 0.0
N131 N 0.4709 0.23999 0.96205 0.0
N132 N 0.46424 0.28735 0.96964 0.0
C133 C 0.49147 0.26452 1.00145 0.0
C134 C 0.45171 0.27617 0.94831 0.0
N135 N 0.45542 0.24718 0.94374 0.0
C136 C 0.43902 0.29565 0.93117 0.0
H137 H 0.48128 0.27643 1.0134 0.0
H138 H 0.52155 0.28105 1.00125 0.0
H139 H 0.48438 0.23663 1.00754 0.0
H140 H 0.45139 0.3248 0.93495 0.0
H141 H 0.40901 0.28308 0.93171 0.0
H142 H 0.44597 0.29339 0.91374 0.0
C143 C 0.78643 0.26562 0.97582 0.0
N144 N 0.76712 0.23699 0.96216 0.0
N145 N 0.8131 0.29396 0.96425 0.0
C146 C 0.78024 0.26542 1.00067 0.0
C147 C 0.80903 0.28168 0.94303 0.0
N148 N 0.78093 0.24728 0.94167 0.0
C149 C 0.83384 0.30246 0.92391 0.0
H150 H 0.75103 0.24795 1.0043 0.0
H151 H 0.78943 0.29308 1.00649 0.0
H152 H 0.79603 0.25449 1.01056 0.0
H153 H 0.84997 0.2893 0.92021 0.0
H154 H 0.85255 0.3312 0.92799 0.0
H155 H 0.81757 0.30176 0.90834 0.0
C156 C 0.53625 0.78613 0.06439 0.0
N157 N 0.5443 0.81313 0.07874 0.0
N158 N 0.54848 0.76367 0.07319 0.0
C159 C 0.51824 0.78296 0.04126 0.0
C160 C 0.5644 0.7782 0.0934 0.0
N161 N 0.5622 0.80843 0.09665 0.0
C162 C 0.57903 0.76099 0.11093 0.0
H163 H 0.48831 0.76684 0.04282 0.0
H164 H 0.52678 0.76916 0.0296 0.0
H165 H 0.52495 0.81013 0.03389 0.0
H166 H 0.6086 0.77246 0.10863 0.0
H167 H 0.56539 0.73117 0.10916 0.0
H168 H 0.57526 0.76675 0.12835 0.0
C169 C 0.2459 0.80571 0.07721 0.0
N170 N 0.2602 0.83135 0.09318 0.0
N171 N 0.21195 0.77911 0.08242 0.0
C172 C 0.26556 0.80677 0.05651 0.0
C173 C 0.20609 0.78966 0.1023 0.0
N174 N 0.23521 0.82157 0.10877 0.0
C175 C 0.1719 0.76849 0.11545 0.0
H176 H 0.26115 0.82352 0.04291 0.0
H177 H 0.25552 0.77911 0.05028 0.0
H178 H 0.29525 0.81944 0.06031 0.0
H179 H 0.17492 0.74855 0.12706 0.0
H180 H 0.14795 0.75354 0.10387 0.0
H181 H 0.1665 0.78611 0.12581 0.0
C182 C 0.2036 0.41666 0.0594 0.0
N183 N 0.22466 0.41076 0.07544 0.0
N184 N 0.17117 0.40831 0.06774 0.0
C185 C 0.21499 0.432 0.03577 0.0
C186 C 0.17288 0.3963 0.08926 0.0
N187 N 0.20512 0.39735 0.0939 0.0
C188 C 0.14452 0.38707 0.10652 0.0
H189 H 0.22571 0.46176 0.03554 0.0
H190 H 0.19144 0.42019 0.02357 0.0
H191 H 0.23622 0.42643 0.03005 0.0
H192 H 0.11884 0.38399 0.09843 0.0
H193 H 0.15514 0.40891 0.11899 0.0
H194 H 0.13869 0.36146 0.1159 0.0
C195 C 0.45545 0.92189 0.30593 0.0
N196 N 0.48385 0.93424 0.29205 0.0
N197 N 0.42801 0.92557 0.2955 0.0
C198 C 0.45288 0.90268 0.32855 0.0
C199 C 0.44059 0.94045 0.27487 0.0
N200 N 0.47432 0.94531 0.27267 0.0
C201 C 0.42064 0.95194 0.25732 0.0
H202 H 0.46851 0.88794 0.32894 0.0
H203 H 0.42419 0.88315 0.33243 0.0
H204 H 0.46451 0.92309 0.34196 0.0
H205 H 0.40188 0.95878 0.26544 0.0
H206 H 0.40439 0.92927 0.24575 0.0
H207 H 0.44005 0.97576 0.24706 0.0
C208 C 0.1602 0.60009 0.31531 0.0
N209 N 0.15094 0.57565 0.29897 0.0
N210 N 0.15395 0.62742 0.30794 0.0
C211 C 0.17478 0.59675 0.33865 0.0
C212 C 0.14058 0.61873 0.28641 0.0
N213 N 0.139 0.58736 0.28092 0.0
C214 C 0.12927 0.64106 0.2708 0.0
H215 H 0.16774 0.61054 0.35124 0.0
H216 H 0.20483 0.60955 0.33833 0.0
H217 H 0.16381 0.5678 0.34399 0.0
H218 H 0.14659 0.67038 0.27407 0.0
H219 H 0.1007 0.63321 0.27407 0.0
H220 H 0.13072 0.63657 0.25271 0.0
C221 C 0.47007 0.60489 0.31361 0.0
N222 N 0.44994 0.57773 0.29903 0.0
N223 N 0.50021 0.63145 0.30358 0.0
C224 C 0.46247 0.60399 0.33827 0.0
C225 C 0.49789 0.61949 0.28249 0.0
N226 N 0.46767 0.58689 0.27979 0.0
C227 C 0.52414 0.64049 0.26404 0.0
H228 H 0.44568 0.61712 0.34008 0.0
H229 H 0.48817 0.61914 0.34841 0.0
H230 H 0.44751 0.57568 0.34514 0.0
H231 H 0.54566 0.63268 0.26458 0.0
H232 H 0.53717 0.67013 0.26643 0.0
H233 H 0.51019 0.63418 0.24706 0.0
C234 C 0.56314 0.06646 0.08411 0.0
Eu235 Eu 0.53305 0.04896 0.04378 0.0
C236 C 0.55737 0.0471 0.10615 0.0
C237 C 0.56247 0.06582 0.12598 0.0
C238 C 0.55407 0.04714 0.14693 0.0
C239 C 0.54056 1.0094 0.14837 0.0
C240 C 0.53672 0.99097 0.12846 0.0
C241 C 0.54481 1.00961 0.1075 0.0
C242 C 0.50911 0.08841 0.01749 0.0
C243 C 0.44821 0.98591 0.04785 0.0
C244 C 0.46437 0.9973 0.96135 0.0
Eu245 Eu 0.49089 1.01262 1.00261 0.0
C246 C 0.48076 1.00931 0.93884 0.0
C247 C 0.50481 0.9984 0.93133 0.0
C248 C 0.52128 1.01121 0.91044 0.0
C249 C 0.51424 0.03535 0.89669 0.0
C250 C 0.48999 0.04598 0.90412 0.0
C251 C 0.47336 0.03301 0.92492 0.0
C252 C 0.51385 0.97245 0.02853 0.0
C253 C 0.57761 0.07368 0.99938 0.0
O254 O 0.57584 0.05555 0.06848 0.0
O255 O 0.53683 0.07238 0.07641 0.0
O256 O 0.54092 0.10215 0.02758 0.0
O257 O 0.49082 0.05499 0.0224 0.0
O258 O 0.48126 1.00084 0.0575 0.0
O259 O 0.44359 0.99159 0.02597 0.0
O260 O 0.46275 1.02182 0.97296 0.0
O261 O 0.47405 0.97699 0.97402 0.0
O262 O 0.48226 0.95921 0.01814 0.0
O263 O 0.53277 1.00606 0.02405 0.0
O264 O 0.54534 0.05683 0.98879 0.0
O265 O 0.58085 0.07069 0.02154 0.0
H266 H 0.5719 0.0947 0.12517 0.0
H267 H 0.5567 0.06208 0.16184 0.0
H268 H 0.52676 0.962 0.129 0.0
H269 H 0.54052 0.99461 0.09231 0.0
H270 H 0.51121 0.98019 0.94164 0.0
H271 H 0.53988 1.00261 0.90517 0.0
H272 H 0.48347 0.064 0.89368 0.0
H273 H 0.45484 0.04172 0.93019 0.0
C274 C 0.99758 0.53542 0.09499 0.0
Eu275 Eu 0.99673 0.53139 0.05125 0.0
C276 C 0.02262 0.54049 0.11484 0.0
C277 C 0.01773 0.51051 0.12878 0.0
C278 C 0.03976 0.5152 0.14833 0.0
C279 C 0.06706 0.55004 0.1545 0.0
C280 C 0.07235 0.57996 0.1403 0.0
C281 C 0.05038 0.57526 0.12074 0.0
C282 C 0.94648 0.47947 0.02395 0.0
C283 C 0.05631 0.50759 0.03716 0.0
C284 C 0.01658 0.52384 0.95621 0.0
Eu285 Eu 0.01848 0.53626 0.9991 0.0
C286 C 0.992 0.51564 0.93577 0.0
C287 C 0.99892 0.54296 0.919 0.0
C288 C 0.97754 0.53534 0.89893 0.0
C289 C 0.94887 0.50007 0.895 0.0
C290 C 0.94162 0.47282 0.91196 0.0
C291 C 0.96291 0.4805 0.9321 0.0
C292 C 0.06681 0.59621 0.02316 0.0
C293 C 0.96403 0.56492 1.01343 0.0
O294 O 1.00605 0.56339 0.08092 0.0
O295 O 0.98407 0.50459 0.08462 0.0
O296 O 0.93858 0.49189 0.04107 0.0
O297 O 0.98058 0.49294 0.02308 0.0
O298 O 0.04192 0.51712 0.05298 0.0
O299 O 0.04949 0.5098 0.01514 0.0
O300 O 0.00799 0.49858 0.9723 0.0
O301 O 0.03008 0.55637 0.96417 0.0
O302 O 0.07092 0.59237 1.00207 0.0
O303 O 0.03829 0.56868 0.02908 0.0
O304 O 0.9728 0.54962 0.99784 0.0
O305 O 0.97473 0.56631 0.03505 0.0
H306 H 0.99645 0.48337 0.12478 0.0
H307 H 0.03516 0.49152 0.15872 0.0
H308 H 0.09266 0.60728 0.14468 0.0
H309 H 0.05474 0.59903 0.11053 0.0
H310 H 0.02127 0.57025 0.92124 0.0
H311 H 0.98367 0.55711 0.88643 0.0
H312 H 0.92015 0.44521 0.90942 0.0
H313 H 0.95696 0.4587 0.94457 0.0
C314 C 0.48094 0.50095 0.95794 0.0
Eu315 Eu 0.48827 0.51547 1.00096 0.0
C316 C 0.50358 0.50156 0.93935 0.0
C317 C 0.5281 0.53424 0.92819 0.0
C318 C 0.54772 0.53407 0.90989 0.0
C319 C 0.54338 0.50126 0.90228 0.0
C320 C 0.51904 0.46869 0.91359 0.0
C321 C 0.49939 0.46885 0.9318 0.0
C322 C 0.49379 0.57517 0.01909 0.0
C323 C 0.57475 0.556 0.01564 0.0
C324 C 0.52525 0.54161 0.09363 0.0
Eu325 Eu 0.51314 0.52579 0.05086 0.0
C326 C 0.507 0.53407 0.11551 0.0
C327 C 0.50361 0.50516 0.13002 0.0
C328 C 0.49176 0.50159 0.15211 0.0
C329 C 0.48324 0.52696 0.16023 0.0
C330 C 0.48477 0.55471 0.14531 0.0
C331 C 0.49665 0.55831 0.12324 0.0
C332 C 0.50808 0.46642 0.03226 0.0
C333 C 0.4262 0.48844 0.03685 0.0
O334 O 0.47362 0.47637 0.97431 0.0
O335 O 0.48742 0.53214 0.96541 0.0
O336 O 0.46839 0.55574 1.00437 0.0
O337 O 0.51586 0.56339 0.02267 0.0
O338 O 0.54897 0.53435 1.0012 0.0
O339 O 0.56687 0.56219 0.03556 0.0
O340 O 0.51827 0.5608 0.07805 0.0
O341 O 0.52873 0.51565 0.08517 0.0
O342 O 0.53368 0.48617 0.04674 0.0
O343 O 0.48571 0.47786 0.02905 0.0
O344 O 0.45248 0.5045 0.05238 0.0
O345 O 0.43251 0.48587 0.01555 0.0
H346 H 0.53194 0.56 0.93344 0.0
H347 H 0.56637 0.55967 0.90173 0.0
H348 H 0.5144 0.4428 0.908 0.0
H349 H 0.48045 0.44318 0.9398 0.0
H350 H 0.51151 0.48609 0.12467 0.0
H351 H 0.49056 0.47972 0.16312 0.0
H352 H 0.47893 0.57503 0.15109 0.0
H353 H 0.4993 0.58111 0.11259 0.0
C354 C 0.2258 0.39959 0.42468 0.0
Eu355 Eu 0.2036 0.38522 0.38276 0.0
C356 C 0.22159 0.38477 0.4481 0.0
C357 C 0.2187 0.40464 0.46521 0.0
C358 C 0.21676 0.39272 0.48782 0.0
C359 C 0.21793 0.36072 0.49383 0.0
C360 C 0.2208 0.34074 0.4766 0.0
C361 C 0.22259 0.35266 0.45389 0.0
C362 C 0.18115 0.42119 0.35264 0.0
C363 C 0.12191 0.31722 0.37444 0.0
C364 C 0.15459 0.34453 0.29055 0.0
Eu365 Eu 0.17775 0.3529 0.33273 0.0
C366 C 0.16687 0.34377 0.2678 0.0
C367 C 0.1412 0.32164 0.25151 0.0
C368 C 0.15121 0.32264 0.22925 0.0
C369 C 0.18723 0.34586 0.22271 0.0
C370 C 0.21319 0.36743 0.23927 0.0
C371 C 0.20312 0.36633 0.26163 0.0
C372 C 0.21155 0.32075 0.35793 0.0
C373 C 0.2596 0.42111 0.34202 0.0
O374 O 0.24091 0.38864 0.41051 0.0
O375 O 0.19918 0.40397 0.41539 0.0
O376 O 0.20634 0.43696 0.36824 0.0
O377 O 0.16708 0.38719 0.35467 0.0
O378 O 0.1493 0.33458 0.38926 0.0
O379 O 0.12546 0.32309 0.35212 0.0
O380 O 0.17069 0.37597 0.30036 0.0
O381 O 0.14814 0.31713 0.30469 0.0
O382 O 0.19899 0.31187 0.3373 0.0
O383 O 0.20621 0.34599 0.36263 0.0
O384 O 0.23326 0.4022 0.32698 0.0
O385 O 0.25582 0.41624 0.36422 0.0
H386 H 0.21807 0.42957 0.46107 0.0
H387 H 0.2137 0.40831 0.50056 0.0
H388 H 0.22191 0.31606 0.48068 0.0
H389 H 0.22504 0.33694 0.44097 0.0
H390 H 0.11307 0.30423 0.25587 0.0
H391 H 0.13029 0.30611 0.21694 0.0
H392 H 0.24119 0.38537 0.23489 0.0
H393 H 0.22349 0.38361 0.27396 0.0
C394 C 0.69589 0.89558 0.41972 0.0
Eu395 Eu 0.68713 0.88223 0.37649 0.0
C396 C 0.70571 0.88371 0.4419 0.0
C397 C 0.67952 0.85378 0.45434 0.0
C398 C 0.68758 0.84588 0.47656 0.0
C399 C 0.72197 0.86777 0.48694 0.0
C400 C 0.74866 0.89668 0.47412 0.0
C401 C 0.74058 0.90464 0.45191 0.0
C402 C 0.63242 0.82369 0.35596 0.0
C403 C 0.73043 0.83955 0.36313 0.0
C404 C 0.69675 0.86774 0.2836 0.0
Eu405 Eu 0.69957 0.87628 0.32723 0.0
C406 C 0.68004 0.87192 0.26165 0.0
C407 C 0.701 0.90068 0.2465 0.0
C408 C 0.68809 0.90185 0.2243 0.0
C409 C 0.65401 0.87411 0.21663 0.0
C410 C 0.63216 0.84641 0.23216 0.0
C411 C 0.64507 0.84525 0.25441 0.0
C412 C 0.75419 0.9331 0.34937 0.0
C413 C 0.65013 0.91152 0.33975 0.0
O414 O 0.72164 0.91278 0.40514 0.0
O415 O 0.66451 0.87363 0.40994 0.0
O416 O 0.62736 0.84165 0.37108 0.0
O417 O 0.66591 0.83595 0.35342 0.0
O418 O 0.72386 0.85668 0.37872 0.0
O419 O 0.71959 0.83943 0.34177 0.0
O420 O 0.67615 0.84194 0.29795 0.0
O421 O 0.72075 0.89728 0.29364 0.0
O422 O 0.75946 0.9136 0.33553 0.0
O423 O 0.72072 0.92232 0.35053 0.0
O424 O 0.65601 0.89246 0.32532 0.0
O425 O 0.66506 0.91715 0.36044 0.0
H426 H 0.65233 0.83712 0.44724 0.0
H427 H 0.6665 0.8232 0.48586 0.0
H428 H 0.77525 0.91442 0.48165 0.0
H429 H 0.76125 0.92812 0.44291 0.0
H430 H 0.72812 0.92154 0.25149 0.0
H431 H 0.70543 0.9238 0.21286 0.0
H432 H 0.60594 0.8244 0.22676 0.0
H433 H 0.62829 0.82255 0.26557 0.0
C434 C 0.14595 0.8399 0.2967 0.0
Eu435 Eu 0.15904 0.85348 0.34003 0.0
C436 C 0.16458 0.84721 0.27471 0.0
C437 C 0.16875 0.87644 0.2602 0.0
C438 C 0.18212 0.88086 0.23838 0.0
C439 C 0.19151 0.85603 0.23027 0.0
C440 C 0.18853 0.8275 0.24509 0.0
C441 C 0.17514 0.82308 0.26694 0.0
C442 C 0.17664 0.91606 0.36019 0.0
C443 C 0.24581 0.88121 0.35302 0.0
C444 C 0.2001 0.86935 0.43324 0.0
Eu445 Eu 0.18712 0.85873 0.38983 0.0
C446 C 0.18186 0.87156 0.45333 0.0
C447 C 0.16681 0.84227 0.46915 0.0
C448 C 0.15153 0.84483 0.48888 0.0
C449 C 0.15116 0.87688 0.49336 0.0
C450 C 0.16582 0.906 0.47734 0.0
C451 C 0.18097 0.9034 0.45759 0.0
C452 C 0.17046 0.79699 0.36901 0.0
C453 C 0.10211 0.83311 0.37812 0.0
O454 O 0.15025 0.81842 0.31187 0.0
O455 O 0.14497 0.86676 0.30593 0.0
O456 O 0.14969 0.90083 0.34551 0.0
O457 O 0.19398 0.89895 0.36243 0.0
O458 O 0.21819 0.86719 0.33798 0.0
O459 O 0.24143 0.88523 0.37436 0.0
O460 O 0.21037 0.89574 0.41784 0.0
O461 O 0.1868 0.83748 0.42437 0.0
O462 O 0.19805 0.81287 0.38314 0.0
O463 O 0.1524 0.81337 0.3673 0.0
O464 O 0.13082 0.85191 0.39157 0.0
O465 O 0.10535 0.82461 0.35749 0.0
H466 H 0.16072 0.89547 0.26545 0.0
H467 H 0.18445 0.90346 0.22768 0.0
H468 H 0.19499 0.80753 0.23947 0.0
H469 H 0.17196 0.79999 0.27747 0.0
H470 H 0.16729 0.81745 0.46644 0.0
H471 H 0.1402 0.82174 0.50068 0.0
H472 H 0.16669 0.93138 0.48036 0.0
H473 H 0.1926 0.92665 0.44591 0.0
C474 C 0.9154 0.71351 0.75377 0.0
Eu475 Eu 0.88717 0.70518 0.71263 0.0
C476 C 0.90477 0.70643 0.77758 0.0
C477 C 0.87846 0.71392 0.78527 0.0
C478 C 0.87095 0.70972 0.80829 0.0
C479 C 0.88938 0.69768 0.82398 0.0
C480 C 0.91483 0.68908 0.81612 0.0
C481 C 0.92257 0.6936 0.7931 0.0
C482 C 0.87324 0.75268 0.68745 0.0
C483 C 0.79775 0.65563 0.71087 0.0
C484 C 0.8258 0.66527 0.62611 0.0
Eu485 Eu 0.84746 0.67649 0.66849 0.0
C486 C 0.84396 0.67893 0.60416 0.0
C487 C 0.86102 0.66194 0.59439 0.0
C488 C 0.87815 0.67488 0.5737 0.0
C489 C 0.87848 0.70502 0.56225 0.0
C490 C 0.86151 0.72205 0.57207 0.0
C491 C 0.84442 0.70914 0.59275 0.0
C492 C 0.86247 0.63045 0.69446 0.0
C493 C 0.93488 0.73312 0.66925 0.0
O494 O 0.90737 0.68532 0.74181 0.0
O495 O 0.91036 0.7381 0.74232 0.0
O496 O 0.90261 0.76194 0.6999 0.0
O497 O 0.85129 0.71915 0.68997 0.0
O498 O 0.82839 0.66721 0.72335 0.0
O499 O 0.79815 0.66063 0.68858 0.0
O500 O 0.82261 0.68844 0.63819 0.0
O501 O 0.83474 0.64418 0.63857 0.0
O502 O 0.83144 0.62079 0.68392 0.0
O503 O 0.88432 0.66365 0.69067 0.0
O504 O 0.90343 0.72035 0.65784 0.0
O505 O 0.93621 0.72521 0.6911 0.0
H506 H 0.8641 0.72354 0.77358 0.0
H507 H 0.85073 0.71593 0.81386 0.0
H508 H 0.92945 0.67983 0.82785 0.0
H509 H 0.94297 0.6877 0.78746 0.0
H510 H 0.86109 0.63851 0.60268 0.0
H511 H 0.89105 0.66123 0.56664 0.0
H512 H 0.86051 0.74483 0.56347 0.0
H513 H 0.83128 0.72267 0.59968 0.0
C514 C 0.35487 0.23412 0.74911 0.0
Eu515 Eu 0.35548 0.22103 0.7065 0.0
C516 C 0.36576 0.22533 0.772 0.0
C517 C 0.34214 0.19347 0.78416 0.0
C518 C 0.35085 0.18719 0.8066 0.0
C519 C 0.38331 0.21267 0.81755 0.0
C520 C 0.40753 0.2439 0.80512 0.0
C521 C 0.3988 0.25021 0.78267 0.0
C522 C 0.31105 0.15898 0.6847 0.0
C523 C 0.41197 0.18979 0.70069 0.0
C524 C 0.38674 0.21134 0.61671 0.0
Eu525 Eu 0.38045 0.21793 0.65971 0.0
C526 C 0.36638 0.209 0.59515 0.0
C527 C 0.37496 0.19768 0.57573 0.0
C528 C 0.35543 0.19458 0.55522 0.0
C529 C 0.32673 0.20253 0.5538 0.0
C530 C 0.31853 0.21434 0.57329 0.0
C531 C 0.33831 0.21772 0.59373 0.0
C532 C 0.42437 0.27837 0.68324 0.0
C533 C 0.31736 0.23926 0.66482 0.0
O534 O 0.38089 0.2556 0.73555 0.0
O535 O 0.32725 0.20799 0.73833 0.0
O536 O 0.29955 0.17419 0.69806 0.0
O537 O 0.34536 0.17573 0.68465 0.0
O538 O 0.39856 0.20409 0.714 0.0
O539 O 0.40559 0.18827 0.67855 0.0
O540 O 0.37142 0.18371 0.63107 0.0
O541 O 0.40163 0.24246 0.62667 0.0
O542 O 0.43643 0.262 0.67135 0.0
O543 O 0.39016 0.26282 0.68168 0.0
O544 O 0.32968 0.22232 0.65306 0.0
O545 O 0.32866 0.24828 0.686 0.0
H546 H 0.31641 0.17374 0.77656 0.0
H547 H 0.33171 0.16268 0.81557 0.0
H548 H 0.4325 0.26437 0.81306 0.0
H549 H 0.41747 0.2752 0.77392 0.0
H550 H 0.39657 0.19087 0.57647 0.0
H551 H 0.36213 0.18493 0.54064 0.0
H552 H 0.2968 0.22095 0.57273 0.0
H553 H 0.3316 0.227 0.60843 0.0
C554 C 0.81099 0.15549 0.62617 0.0
Eu555 Eu 0.81795 0.16443 0.67002 0.0
C556 C 0.83315 0.16508 0.60556 0.0
C557 C 0.84079 0.19649 0.59225 0.0
C558 C 0.85792 0.20332 0.57151 0.0
C559 C 0.8677 0.17883 0.56336 0.0
C560 C 0.86117 0.14804 0.57706 0.0
C561 C 0.84404 0.14121 0.59781 0.0
C562 C 0.83046 0.22414 0.69191 0.0
C563 C 0.90289 0.19221 0.6871 0.0
C564 C 0.84699 0.17436 0.76465 0.0
Eu565 Eu 0.83926 0.16543 0.72097 0.0
C566 C 0.82766 0.17867 0.78338 0.0
C567 C 0.81112 0.15068 0.79988 0.0
C568 C 0.79522 0.15545 0.81859 0.0
C569 C 0.79574 0.18846 0.82134 0.0
C570 C 0.81168 0.21616 0.80452 0.0
C571 C 0.82738 0.21134 0.78579 0.0
C572 C 0.82803 0.10657 0.69871 0.0
C573 C 0.75496 0.13639 0.70472 0.0
O574 O 0.81286 0.13229 0.64105 0.0
O575 O 0.80877 0.1814 0.63576 0.0
O576 O 0.80552 0.20972 0.67594 0.0
O577 O 0.84841 0.20772 0.69462 0.0
O578 O 0.87738 0.17909 0.67075 0.0
O579 O 0.89564 0.19403 0.70822 0.0
O580 O 0.86139 0.2011 0.74957 0.0
O581 O 0.83219 0.14247 0.75559 0.0
O582 O 0.85303 0.12122 0.71462 0.0
O583 O 0.80939 0.12229 0.69628 0.0
O584 O 0.78111 0.15497 0.71989 0.0
O585 O 0.76234 0.13153 0.68418 0.0
H586 H 0.83266 0.2154 0.59755 0.0
H587 H 0.86286 0.22754 0.56162 0.0
H588 H 0.86775 0.12825 0.57129 0.0
H589 H 0.83826 0.11652 0.60744 0.0
H590 H 0.81104 0.12526 0.79853 0.0
H591 H 0.78286 0.13337 0.83102 0.0
H592 H 0.81326 0.24221 0.8062 0.0
H593 H 0.84006 0.23362 0.77351 0.0
H594 H 0.33022 0.8529 0.10518 0.0
H595 H 0.25968 0.88765 0.07089 0.0
H596 H 0.31203 0.94001 0.05374 0.0
H597 H 0.37746 0.97186 0.04502 0.0
H598 H 0.44862 0.93869 0.08082 0.0
H599 H 0.39705 0.89011 0.10076 0.0
C600 C 0.3267 0.87287 0.0947 0.0
C601 C 0.29128 0.86691 0.08958 0.0
C602 C 0.35706 0.9027 0.08468 0.0
C603 C 0.2868 0.89231 0.07545 0.0
C604 C 0.31668 0.92186 0.06536 0.0
C605 C 0.38166 0.9542 0.05736 0.0
C606 C 0.41683 0.95871 0.06121 0.0
C607 C 0.35186 0.9267 0.06924 0.0
C608 C 0.42188 0.93588 0.0775 0.0
C609 C 0.39234 0.90799 0.08892 0.0
H610 H 0.16436 0.46082 0.08542 0.0
H611 H 0.12616 0.38686 0.03061 0.0
H612 H 0.08841 0.41284 1.01503 0.0
H613 H 0.06586 0.45638 0.01767 0.0
H614 H 0.10157 0.52726 0.0744 0.0
H615 H 0.14068 0.50277 0.08875 0.0
C616 C 0.14743 0.45033 0.07019 0.0
C617 C 0.14779 0.42218 0.05906 0.0
C618 C 0.12557 0.46494 0.06173 0.0
C619 C 0.12623 0.40873 0.03924 0.0
C620 C 0.10474 0.42354 0.03043 0.0
C621 C 0.08248 0.46661 0.03305 0.0
C622 C 0.08107 0.49369 0.04491 0.0
C623 C 0.10424 0.45172 0.04154 0.0
C624 C 0.10221 0.50636 0.06502 0.0
C625 C 0.12455 0.49239 0.07323 0.0
H626 H 0.48681 0.70835 0.05616 0.0
H627 H 0.6009 0.74587 0.06922 0.0
H628 H 0.59381 0.68963 0.05476 0.0
H629 H 0.55506 0.62996 0.03795 0.0
H630 H 0.44208 0.59502 0.02162 0.0
H631 H 0.44872 0.65012 0.03749 0.0
C632 C 0.51014 0.70435 0.05549 0.0
C633 C 0.5443 0.73107 0.06379 0.0
C634 C 0.50598 0.67241 0.04659 0.0
C635 C 0.57428 0.72539 0.0632 0.0
C636 C 0.57024 0.69337 0.05485 0.0
C637 C 0.53193 0.63445 0.03793 0.0
C638 C 0.49808 0.60846 0.02878 0.0
C639 C 0.53621 0.66665 0.04652 0.0
C640 C 0.46838 0.61468 0.02861 0.0
C641 C 0.47217 0.64616 0.03767 0.0
H642 H 0.80644 0.34739 0.98151 0.0
H643 H 0.88465 0.3155 0.96631 0.0
H644 H 0.93431 0.37231 0.98138 0.0
H645 H 0.95492 0.42997 1.00082 0.0
H646 H 0.87512 0.45869 0.01859 0.0
H647 H 0.82685 0.40478 1.00061 0.0
C648 C 0.8344 0.35299 0.98169 0.0
C649 C 0.84207 0.32743 0.97309 0.0
C650 C 0.86251 0.38527 0.99078 0.0
C651 C 0.87834 0.33494 0.97297 0.0
C652 C 0.90661 0.36734 0.98157 0.0
C653 C 0.92702 0.42457 1.00047 0.0
C654 C 0.91863 0.44842 1.01091 0.0
C655 C 0.89902 0.39263 0.99074 0.0
C656 C 0.88231 0.44088 1.01058 0.0
C657 C 0.85461 0.40992 1.00039 0.0
H658 H 0.74359 0.64776 1.00059 0.0
H659 H 0.71456 0.56974 0.94888 0.0
H660 H 0.65031 0.54141 0.95821 0.0
H661 H 0.603 0.53812 0.98182 0.0
H662 H 0.63249 0.61415 0.03524 0.0
H663 H 0.69608 0.64378 0.02482 0.0
C664 C 0.723 0.62448 0.99155 0.0
C665 C 0.73324 0.61071 0.97412 0.0
C666 C 0.68645 0.60797 0.9974 0.0
C667 C 0.70677 0.58071 0.96225 0.0
C668 C 0.67026 0.56454 0.96764 0.0
C669 C 0.62331 0.56125 0.99113 0.0
C670 C 0.61308 0.57393 1.00924 0.0
C671 C 0.65983 0.57784 0.98527 0.0
C672 C 0.63974 0.60375 0.02128 0.0
C673 C 0.67608 0.62078 0.01531 0.0
H674 H 0.42849 0.16859 0.97071 0.0
H675 H 0.53907 0.25222 0.96145 0.0
H676 H 0.56121 0.21139 0.97677 0.0
H677 H 0.54913 0.15449 0.99719 0.0
H678 H 0.43848 0.07007 1.00656 0.0
H679 H 0.4161 0.10815 0.98686 0.0
C680 C 0.45728 0.17716 0.97133 0.0
C681 C 0.48226 0.21303 0.96474 0.0
C682 C 0.4697 0.15366 0.98071 0.0
C683 C 0.51957 0.22446 0.9661 0.0
C684 C 0.53214 0.20128 0.97512 0.0
C685 C 0.52011 0.14435 0.99474 0.0
C686 C 0.49547 0.10984 1.00369 0.0
C687 C 0.50752 0.16627 0.98323 0.0
C688 C 0.45797 0.09672 1.00002 0.0
C689 C 0.44518 0.11849 0.98875 0.0
H690 H 0.69979 0.20334 0.94267 0.0
H691 H 0.76755 0.19188 0.99602 0.0
H692 H 0.71481 0.13816 1.01152 0.0
H693 H 0.64859 0.09836 1.01212 0.0
H694 H 0.5802 0.10817 0.95827 0.0
H695 H 0.63376 0.15798 0.94051 0.0
C696 C 0.70291 0.1885 0.95739 0.0
C697 C 0.73723 0.2019 0.96857 0.0
C698 C 0.67229 0.15752 0.96619 0.0
C699 C 0.74118 0.18246 0.98754 0.0
C700 C 0.71106 0.15176 0.99635 0.0
C701 C 0.6454 0.11106 0.99633 0.0
C702 C 0.61033 0.09976 0.98671 0.0
C703 C 0.67631 0.1397 0.98623 0.0
C704 C 0.60682 0.11626 0.96608 0.0
C705 C 0.63747 0.14493 0.95596 0.0
H706 H 0.82096 0.56941 0.9864 0.0
H707 H 0.89707 0.67728 0.96269 0.0
H708 H 0.94803 0.66677 0.97429 0.0
H709 H 0.97051 0.62664 0.99247 0.0
H710 H 0.89319 0.52184 0.02004 0.0
H711 H 0.84283 0.5316 1.00654 0.0
C712 C 0.84874 0.59087 0.98425 0.0
C713 C 0.85544 0.62428 0.97419 0.0
C714 C 0.87751 0.5852 0.99193 0.0
C715 C 0.89144 0.65137 0.97049 0.0
C716 C 0.92046 0.64544 0.97727 0.0
C717 C 0.94259 0.60634 0.99569 0.0
C718 C 0.93515 0.57365 1.00723 0.0
C719 C 0.91381 0.61255 0.98827 0.0
C720 C 0.89915 0.54719 1.01125 0.0
C721 C 0.87048 0.55271 1.00346 0.0
H722 H 0.52322 0.34108 0.99011 0.0
H723 H 0.40988 0.30242 0.97329 0.0
H724 H 0.41353 0.35555 0.99035 0.0
H725 H 0.44914 0.41288 1.01046 0.0
H726 H 0.56162 0.44927 0.02945 0.0
H727 H 0.55822 0.3971 1.01146 0.0
C728 C 0.49929 0.34414 0.99051 0.0
C729 C 0.46632 0.31799 0.98051 0.0
C730 C 0.50151 0.37435 1.00073 0.0
C731 C 0.43557 0.32246 0.98074 0.0
C732 C 0.43766 0.35272 0.99054 0.0
C733 C 0.47286 0.40933 1.0106 0.0
C734 C 0.50559 0.43483 0.02122 0.0
C735 C 0.47051 0.37888 1.00058 0.0
C736 C 0.53609 0.42989 0.02144 0.0
C737 C 0.53418 0.4001 1.01114 0.0
H738 H 0.17147 0.70855 0.0961 0.0
H739 H 0.19464 0.78171 0.03794 0.0
H740 H 0.15344 0.73124 1.01416 0.0
H741 H 0.10999 0.66619 1.00987 0.0
H742 H 0.08036 0.59405 0.0688 0.0
H743 H 0.12391 0.64403 0.09246 0.0
C744 C 0.1671 0.71346 0.0783 0.0
C745 C 0.18665 0.74887 0.06875 0.0
C746 C 0.14195 0.68443 0.06492 0.0
C747 C 0.1808 0.75466 0.04558 0.0
C748 C 0.15694 0.72583 0.03201 0.0
C749 C 0.11312 0.66151 0.02791 0.0
C750 C 0.09221 0.62656 0.0376 0.0
C751 C 0.13739 0.6906 0.04147 0.0
C752 C 0.09608 0.62082 0.06101 0.0
C753 C 0.12107 0.64937 0.07451 0.0
H754 H 0.27805 0.47557 0.06176 0.0
H755 H 0.25571 0.36876 0.08495 0.0
H756 H 0.31751 0.3833 0.07554 0.0
H757 H 0.37648 0.42556 0.05764 0.0
H758 H 0.39458 0.52963 0.03088 0.0
H759 H 0.33536 0.5168 0.04376 0.0
C760 C 0.28677 0.45548 0.06462 0.0
C761 C 0.26238 0.42096 0.07355 0.0
C762 C 0.32119 0.46336 0.05795 0.0
C763 C 0.27418 0.39548 0.07801 0.0
C764 C 0.30925 0.40367 0.07237 0.0
C765 C 0.36704 0.44506 0.05449 0.0
C766 C 0.3892 0.4782 0.04304 0.0
C767 C 0.33266 0.43722 0.06173 0.0
C768 C 0.37742 0.50375 0.03932 0.0
C769 C 0.34381 0.49654 0.04684 0.0
H770 H 0.58862 0.88503 0.07266 0.0
H771 H 0.47644 0.80219 0.07649 0.0
H772 H 0.45685 0.84577 0.063 0.0
H773 H 0.47177 0.90524 0.04593 0.0
H774 H 0.58377 0.98897 0.04123 0.0
H775 H 0.6036 0.94771 0.05939 0.0
C776 C 0.56 0.87708 0.07105 0.0
C777 C 0.53382 0.84067 0.07545 0.0
C778 C 0.54906 0.90225 0.06279 0.0
C779 C 0.49678 0.83018 0.07316 0.0
C780 C 0.48568 0.85499 0.06533 0.0
C781 C 0.50054 0.91455 0.04905 0.0
C782 C 0.52634 0.94976 0.04186 0.0
C783 C 0.51157 0.89073 0.05937 0.0
C784 C 0.56345 0.9618 0.04642 0.0
C785 C 0.57476 0.93819 0.05676 0.0
H786 H 0.95628 0.21087 0.3948 0.0
H787 H 1.00398 0.18091 0.45242 0.0
H788 H 0.06462 0.22982 0.44236 0.0
H789 H 0.10481 0.27672 0.41439 0.0
H790 H 0.05632 0.30006 0.35404 0.0
H791 H 0.99571 0.25757 0.36734 0.0
C792 C 0.97999 0.21533 0.40524 0.0
C793 C 0.9756 0.1923 0.42436 0.0
C794 C 0.01484 0.24179 0.39841 0.0
C795 C 1.00646 0.19863 0.43791 0.0
C796 C 0.04123 0.22621 0.43188 0.0
C797 C 0.08094 0.27264 0.40424 0.0
C798 C 0.08522 0.29149 0.38314 0.0
C799 C 0.0459 0.24726 0.41175 0.0
C800 C 0.05395 0.28568 0.37017 0.0
C801 C 0.0192 0.26151 0.37784 0.0
H802 H 0.80743 0.74439 0.37593 0.0
H803 H 0.84477 0.80189 0.43818 0.0
H804 H 0.80915 0.8324 0.42885 0.0
H805 H 0.76934 0.84431 0.40221 0.0
H806 H 0.73442 0.78901 0.3388 0.0
H807 H 0.76735 0.75631 0.34915 0.0
C808 C 0.8075 0.76356 0.38734 0.0
C809 C 0.82799 0.77066 0.40776 0.0
C810 C 0.78769 0.78152 0.38158 0.0
C811 C 0.82835 0.79557 0.42259 0.0
C812 C 0.80831 0.81317 0.41717 0.0
C813 C 0.76876 0.82495 0.39072 0.0
C814 C 0.74957 0.81917 0.36978 0.0
C815 C 0.78807 0.80652 0.39664 0.0
C816 C 0.74923 0.79416 0.35499 0.0
C817 C 0.76798 0.77536 0.36089 0.0
H818 H 0.24731 0.06575 0.40891 0.0
H819 H 0.14155 0.05389 0.39295 0.0
H820 H 0.1219 0.99541 0.37568 0.0
H821 H 0.13592 0.9487 0.36413 0.0
H822 H 0.24099 0.95929 0.38211 0.0
H823 H 0.25989 1.01694 0.39985 0.0
C824 C 0.21991 0.04998 0.40183 0.0
C825 C 0.19589 0.06387 0.40188 0.0
C826 C 0.20885 1.01634 0.39229 0.0
C827 C 0.1604 0.04356 0.39278 0.0
C828 C 0.14927 1.01027 0.38297 0.0
C829 C 0.16291 0.96369 0.37196 0.0
C830 C 0.18719 0.95009 0.37161 0.0
C831 C 0.17341 0.99658 0.3824 0.0
C832 C 0.2219 0.96937 0.3821 0.0
C833 C 0.23274 1.00232 0.39222 0.0
H834 H 0.49148 0.68187 0.3235 0.0
H835 H 0.57226 0.6556 0.30452 0.0
H836 H 0.6209 0.71385 0.31818 0.0
H837 H 0.64032 0.77239 0.33548 0.0
H838 H 0.55944 0.79764 0.35616 0.0
H839 H 0.51091 0.7398 0.342 0.0
C840 C 0.51976 0.6889 0.32266 0.0
C841 C 0.52847 0.66478 0.31297 0.0
C842 C 0.54746 0.72228 0.33074 0.0
C843 C 0.56512 0.67408 0.31171 0.0
C844 C 0.59284 0.70728 0.31954 0.0
C845 C 0.61206 0.76523 0.3368 0.0
C846 C 0.60339 0.78919 0.34678 0.0
C847 C 0.58434 0.73169 0.32898 0.0
C848 C 0.56671 0.77955 0.34855 0.0
C849 C 0.53898 0.74649 0.34049 0.0
H850 H 0.41177 0.94319 0.33415 0.0
H851 H 0.36476 0.88028 0.27449 0.0
H852 H 0.30349 0.86126 0.28688 0.0
H853 H 0.26376 0.8631 0.31454 0.0
H854 H 0.31051 0.92459 0.37508 0.0
H855 H 0.37157 0.9434 0.36269 0.0
C856 C 0.38793 0.9251 0.3241 0.0
C857 C 0.3923 0.91329 0.30345 0.0
C858 C 0.353 0.91414 0.33146 0.0
C859 C 0.36163 0.88998 0.29031 0.0
C860 C 0.32678 0.87906 0.29741 0.0
C861 C 0.28729 0.88073 0.325 0.0
C862 C 0.28266 0.89261 0.34561 0.0
C863 C 0.32218 0.89118 0.31789 0.0
C864 C 0.31339 0.91506 0.35912 0.0
C865 C 0.3483 0.92587 0.35206 0.0
H866 H 0.10539 0.50452 0.30635 0.0
H867 H 0.21698 0.5839 0.29523 0.0
H868 H 0.23658 0.54038 0.30881 0.0
H869 H 0.22251 0.48368 0.32989 0.0
H870 H 0.11102 0.40285 0.34052 0.0
H871 H 0.09034 0.44247 0.32086 0.0
C872 C 0.13371 0.51148 0.30605 0.0
C873 C 0.15988 0.54704 0.2998 0.0
C874 C 0.14468 0.48637 0.31425 0.0
C875 C 0.19663 0.55641 0.29979 0.0
C876 C 0.20778 0.53173 0.3078 0.0
C877 C 0.19368 0.47453 0.32743 0.0
C878 C 0.16827 0.44092 0.33687 0.0
C879 C 0.18219 0.49725 0.31603 0.0
C880 C 0.13097 0.42882 0.33338 0.0
C881 C 0.11922 0.45152 0.32227 0.0
H882 H 0.39204 0.57415 0.31773 0.0
H883 H 0.43091 0.50826 0.29017 0.0
H884 H 0.37368 0.45334 0.29907 0.0
H885 H 0.31342 0.4237 0.31707 0.0
H886 H 0.27967 0.49031 0.34935 0.0
H887 H 0.33405 0.54514 0.33684 0.0
C888 C 0.38809 0.54773 0.31391 0.0
C889 C 0.41565 0.54532 0.30331 0.0
C890 C 0.35603 0.51634 0.32016 0.0
C891 C 0.40987 0.51094 0.29794 0.0
C892 C 0.37729 0.47949 0.30328 0.0
C893 C 0.31815 0.45031 0.32122 0.0
C894 C 0.29272 0.45324 0.33395 0.0
C895 C 0.3503 0.48179 0.31468 0.0
C896 C 0.299 0.48764 0.3395 0.0
C897 C 0.33003 0.51893 0.33237 0.0
H898 H 0.53108 0.9604 0.32738 0.0
H899 H 0.50827 0.90111 0.26626 0.0
H900 H 0.56084 0.89241 0.27456 0.0
H901 H 0.60976 0.8974 0.30059 0.0
H902 H 0.63059 0.95274 0.36348 0.0
H903 H 0.58217 0.96725 0.35321 0.0
C904 C 0.53796 0.94577 0.31594 0.0
C905 C 0.51627 0.93155 0.29622 0.0
C906 C 0.56751 0.93996 0.32124 0.0
C907 C 0.52512 0.91275 0.28132 0.0
C908 C 0.5549 0.90753 0.28618 0.0
C909 C 0.60409 0.91297 0.31203 0.0
C910 C 0.62367 0.9238 0.33286 0.0
C911 C 0.57584 0.92047 0.30627 0.0
C912 C 0.61584 0.94396 0.34739 0.0
C913 C 0.58812 0.9522 0.34155 0.0
H914 H 0.10899 0.65376 0.31414 0.0
H915 H 0.2183 0.67354 0.32768 0.0
H916 H 0.23304 0.72767 0.34851 0.0
H917 H 0.21469 0.76936 0.36278 0.0
H918 H 0.10659 0.7522 0.34697 0.0
H919 H 0.09153 0.69747 0.3267 0.0
C920 C 0.13607 0.67025 0.32147 0.0
C921 C 0.16247 0.65969 0.31965 0.0
C922 C 0.1445 0.70175 0.33291 0.0
C923 C 0.19744 0.68093 0.32932 0.0
C924 C 0.2059 0.71193 0.34106 0.0
C925 C 0.18784 0.75354 0.35491 0.0
C926 C 0.16166 0.76445 0.35648 0.0
C927 C 0.17961 0.72252 0.34303 0.0
C928 C 0.12712 0.74414 0.346 0.0
C929 C 0.1185 0.71288 0.33444 0.0
H930 H 0.89512 0.05239 0.40023 0.0
H931 H 0.82273 0.09344 0.41171 0.0
H932 H 0.77276 0.04218 0.39196 0.0
H933 H 0.75013 0.98615 0.37068 0.0
H934 H 0.82394 0.94748 0.35692 0.0
H935 H 0.873 0.99734 0.37794 0.0
C936 C 0.86849 0.05022 0.39805 0.0
C937 C 0.86252 0.07669 0.40708 0.0
C938 C 0.84025 1.02112 0.38625 0.0
C939 C 0.82775 0.0733 0.40476 0.0
C940 C 0.79931 0.04409 0.39347 0.0
C941 C 0.77697 0.98869 0.37233 0.0
C942 C 0.78347 0.96324 0.36228 0.0
C943 C 0.80526 1.01788 0.38405 0.0
C944 C 0.81836 0.96687 0.36444 0.0
C945 C 0.8464 0.99533 0.37647 0.0
H946 H 0.9619 0.79904 0.42984 0.0
H947 H 0.91311 0.70954 0.38507 0.0
H948 H 0.97252 0.72868 0.36911 0.0
H949 H 0.03779 0.77372 0.36637 0.0
H950 H 0.08588 0.86382 0.41129 0.0
H951 H 0.02751 0.8421 0.42861 0.0
C952 C 0.96481 0.78327 0.41713 0.0
C953 C 0.93388 0.75262 0.40888 0.0
C954 C 0.99868 0.79514 0.4077 0.0
C955 C 0.93711 0.73277 0.39187 0.0
C956 C 0.97085 0.74401 0.3826 0.0
C957 C 0.03533 0.78866 0.37983 0.0
C958 C 0.06597 0.82049 0.38736 0.0
C959 C 1.0017 0.7757 0.39001 0.0
C960 C 0.06263 0.83927 0.40511 0.0
C961 C 0.02931 0.82683 0.41512 0.0
H962 H 0.20958 0.20303 0.42793 0.0
H963 H 0.27693 0.19777 0.37816 0.0
H964 H 0.27959 0.2507 0.35755 0.0
H965 H 0.25379 0.29148 0.3504 0.0
H966 H 0.1904 0.30056 0.40145 0.0
H967 H 0.19533 0.2536 0.42509 0.0
C968 C 0.22587 0.21443 0.41305 0.0
C969 C 0.24217 0.19613 0.40409 0.0
C970 C 0.22732 0.24504 0.40134 0.0
C971 C 0.26352 0.21112 0.38494 0.0
C972 C 0.26487 0.24121 0.37313 0.0
C973 C 0.24186 0.28372 0.36696 0.0
C974 C 0.22131 0.29884 0.37409 0.0
C975 C 0.24539 0.25725 0.38057 0.0
C976 C 0.20626 0.28909 0.39564 0.0
C977 C 0.20894 0.26213 0.4091 0.0
H978 H 0.63281 0.55737 0.73388 0.0
H979 H 0.67936 0.51953 0.78801 0.0
H980 H 0.74067 0.56818 0.77862 0.0
H981 H 0.78121 0.61528 0.75089 0.0
H982 H 0.73321 0.64861 0.6947 0.0
H983 H 0.67265 0.60804 0.70868 0.0
C984 C 0.65643 0.56045 0.74389 0.0
C985 C 0.65178 0.53492 0.76148 0.0
C986 C 0.69146 0.58723 0.7376 0.0
C987 C 0.68238 0.53912 0.77452 0.0
C988 C 0.71741 0.5666 0.7689 0.0
C989 C 0.75753 0.61417 0.74199 0.0
C990 C 0.76183 0.63479 0.72162 0.0
C991 C 0.7224 0.58989 0.74985 0.0
C992 C 0.73077 0.63281 0.71024 0.0
C993 C 0.69604 0.60962 0.71825 0.0
H994 H 0.50053 0.12854 0.75872 0.0
H995 H 0.47637 0.06442 0.69977 0.0
H996 H 0.4436 0.09409 0.68159 0.0
H997 H 0.42288 0.1388 0.68269 0.0
H998 H 0.44594 0.20179 0.74244 0.0
H999 H 0.47811 0.17183 0.76038 0.0
C1000 C 0.48737 0.12071 0.7421 0.0
C1001 C 0.49008 0.09422 0.73056 0.0
C1002 C 0.46887 0.13783 0.73196 0.0
C1003 C 0.47403 0.08464 0.70881 0.0
C1004 C 0.45558 0.10165 0.6985 0.0
C1005 C 0.43516 0.14614 0.69957 0.0
C1006 C 0.43235 0.17262 0.71118 0.0
C1007 C 0.45308 0.12847 0.70988 0.0
C1008 C 0.44784 0.18149 0.73318 0.0
C1009 C 0.46617 0.16438 0.74345 0.0
H1010 H 0.89593 0.37135 0.7429 0.0
H1011 H 0.79177 0.36057 0.72239 0.0
H1012 H 0.77474 0.30397 0.70369 0.0
H1013 H 0.78973 0.25741 0.69325 0.0
H1014 H 0.89235 0.26619 0.71641 0.0
H1015 H 0.90948 0.32311 0.73448 0.0
C1016 C 0.86937 0.35627 0.73457 0.0
C1017 C 0.84518 0.37007 0.73386 0.0
C1018 C 0.85949 0.32334 0.72444 0.0
C1019 C 0.81099 0.35065 0.72279 0.0
C1020 C 0.8012 0.31823 0.71225 0.0
C1021 C 0.8158 0.27185 0.70228 0.0
C1022 C 0.83985 0.25785 0.70337 0.0
C1023 C 0.82528 0.30434 0.71292 0.0
C1024 C 0.87339 0.2765 0.71532 0.0
C1025 C 0.88325 0.30908 0.72562 0.0
H1026 H 0.23227 1.00265 0.64362 0.0
H1027 H 0.13761 1.00986 0.65805 0.0
H1028 H 0.17634 0.07069 0.67296 0.0
H1029 H 0.23736 0.1217 0.68183 0.0
H1030 H 0.33231 0.1157 0.66557 0.0
H1031 H 0.29354 0.05485 0.65107 0.0
C1032 C 0.22039 1.01776 0.65007 0.0
C1033 C 0.18236 1.002 0.65009 0.0
C1034 C 0.24288 0.05289 0.65809 0.0
C1035 C 0.16689 1.02155 0.65825 0.0
C1036 C 0.189 0.05626 0.66662 0.0
C1037 C 0.24951 0.10705 0.67508 0.0
C1038 C 0.2876 0.12301 0.6749 0.0
C1039 C 0.22705 0.0722 0.66664 0.0
C1040 C 0.30304 0.10394 0.66591 0.0
C1041 C 0.2809 0.06912 0.65768 0.0
H1042 H 0.07024 0.27168 0.66861 0.0
H1043 H 0.03154 0.19208 0.61694 0.0
H1044 H 0.96912 0.16695 0.62906 0.0
H1045 H 0.9258 0.16874 0.65377 0.0
H1046 H 0.96432 0.24561 0.70729 0.0
H1047 H 0.02699 0.27038 0.69548 0.0
C1048 C 0.04803 0.24861 0.66029 0.0
C1049 C 0.05495 0.23401 0.64174 0.0
C1050 C 0.0125 0.23388 0.66772 0.0
C1051 C 0.02635 0.20412 0.63092 0.0
C1052 C 0.99087 0.18967 0.63793 0.0
C1053 C 0.94795 0.1909 0.66284 0.0
C1054 C 0.94069 0.20568 0.68115 0.0
C1055 C 0.98364 0.20459 0.65615 0.0
C1056 C 0.9695 0.23388 0.69311 0.0
C1057 C 1.0052 0.2481 0.68632 0.0
H1058 H 0.87694 0.88751 0.63518 0.0
H1059 H 0.76147 0.81618 0.63105 0.0
H1060 H 0.76954 0.76538 0.64667 0.0
H1061 H 0.80953 0.74441 0.66708 0.0
H1062 H 0.92487 0.81889 0.67326 0.0
H1063 H 0.91713 0.86523 0.6514 0.0
C1064 C 0.8538 0.86044 0.63703 0.0
C1065 C 0.81878 0.85525 0.632 0.0
C1066 C 0.85869 0.83225 0.64698 0.0
C1067 C 0.78868 0.82043 0.63461 0.0
C1068 C 0.79334 0.79166 0.64385 0.0
C1069 C 0.83291 0.77065 0.66335 0.0
C1070 C 0.86763 0.7785 0.67215 0.0
C1071 C 0.82816 0.79766 0.65103 0.0
C1072 C 0.89778 0.81246 0.66707 0.0
C1073 C 0.89343 0.83895 0.65447 0.0
H1074 H 0.0552 0.86997 0.61691 0.0
H1075 H 0.12303 0.86243 0.67171 0.0
H1076 H 0.07179 0.80577 0.68575 0.0
H1077 H 1.00594 0.76187 0.68456 0.0
H1078 H 0.93878 0.76853 0.6286 0.0
H1079 H 0.99134 0.82126 0.6127 0.0
C1080 C 0.05884 0.85534 0.63157 0.0
C1081 C 0.09248 0.87065 0.6436 0.0
C1082 C 0.02924 0.8227 0.63945 0.0
C1083 C 0.09704 0.85154 0.66258 0.0
C1084 C 0.06778 0.81914 0.67055 0.0
C1085 C 1.0029 0.77449 0.66871 0.0
C1086 C 0.96824 0.76131 0.65802 0.0
C1087 C 0.03341 0.80503 0.65953 0.0
C1088 C 0.96499 0.77795 0.63733 0.0
C1089 C 0.99508 0.80833 0.6282 0.0
H1090 H 0.17983 0.23277 0.61375 0.0
H1091 H 0.19789 0.31178 0.66265 0.0
H1092 H 0.2534 0.31157 0.67723 0.0
H1093 H 0.29369 0.28471 0.67778 0.0
H1094 H 0.27433 0.2054 0.62826 0.0
H1095 H 0.22296 0.21042 0.61185 0.0
C1096 C 0.19663 0.25069 0.62711 0.0
C1097 C 0.18526 0.27231 0.63716 0.0
C1098 C 0.22802 0.25008 0.63539 0.0
C1099 C 0.2065 0.29492 0.65482 0.0
C1100 C 0.23799 0.29466 0.66315 0.0
C1101 C 0.27835 0.26877 0.66332 0.0
C1102 C 0.28782 0.24472 0.65434 0.0
C1103 C 0.24852 0.27162 0.65392 0.0
C1104 C 0.26788 0.22439 0.63545 0.0
C1105 C 0.23831 0.22706 0.62606 0.0
H1106 H 0.77157 0.96504 0.64288 0.0
H1107 H 0.87997 0.9844 0.65983 0.0
H1108 H 0.89303 0.03799 0.68074 0.0
H1109 H 0.87332 0.07932 0.69424 0.0
H1110 H 0.76637 0.0625 0.67467 0.0
H1111 H 0.75313 1.00844 0.65436 0.0
C1112 C 0.79812 0.98131 0.65096 0.0
C1113 C 0.82466 0.97071 0.65009 0.0
C1114 C 0.80565 1.01254 0.66241 0.0
C1115 C 0.85894 0.99175 0.66072 0.0
C1116 C 0.86646 0.02246 0.67252 0.0
C1117 C 0.84714 0.06371 0.68554 0.0
C1118 C 0.82072 0.07453 0.68609 0.0
C1119 C 0.83996 0.03303 0.67356 0.0
C1120 C 0.78708 0.05453 0.67451 0.0
C1121 C 0.77948 0.02363 0.66292 0.0
H1122 H 0.50338 0.42036 0.74066 0.0
H1123 H 0.59294 0.40006 0.7366 0.0
H1124 H 0.55466 0.34621 0.71421 0.0
H1125 H 0.49558 0.30518 0.69566 0.0
H1126 H 0.40479 0.32347 0.7016 0.0
H1127 H 0.44326 0.37752 0.72356 0.0
C1128 C 0.51422 0.40389 0.73488 0.0
C1129 C 0.55081 0.41401 0.73997 0.0
C1130 C 0.49181 0.3727 0.72244 0.0
C1131 C 0.56486 0.39269 0.73259 0.0
C1132 C 0.54299 0.36199 0.71988 0.0
C1133 C 0.48429 0.32107 0.70175 0.0
C1134 C 0.44753 0.31059 0.69688 0.0
C1135 C 0.50644 0.35179 0.71464 0.0
C1136 C 0.43307 0.3311 0.7051 0.0
C1137 C 0.45505 0.362 0.71763 0.0
H1138 H 0.58604 0.05152 0.71873 0.0
H1139 H 0.61938 0.11686 0.77772 0.0
H1140 H 0.68341 0.13969 0.76976 0.0
H1141 H 0.72929 0.14675 0.74317 0.0
H1142 H 0.69487 0.0859 0.68179 0.0
H1143 H 0.6318 0.05642 0.69305 0.0
C1144 C 0.60753 0.07009 0.73006 0.0
C1145 C 0.59832 0.08228 0.74884 0.0
C1146 C 0.64393 0.08479 0.72447 0.0
C1147 C 0.62596 0.10652 0.76347 0.0
C1148 C 0.66249 0.12008 0.75863 0.0
C1149 C 0.70803 0.12695 0.73228 0.0
C1150 C 0.71676 0.11886 0.71153 0.0
C1151 C 0.67172 0.1104 0.73871 0.0
C1152 C 0.68888 0.09303 0.69768 0.0
C1153 C 0.65282 0.07594 0.70418 0.0
H1154 H 0.91752 0.52685 0.73946 0.0
H1155 H 0.8037 0.46204 0.75258 0.0
H1156 H 0.79289 0.51117 0.73764 0.0
H1157 H 0.81474 0.56931 0.71648 0.0
H1158 H 0.9289 0.63556 0.70385 0.0
H1159 H 0.9411 0.58956 0.72308 0.0
C1160 C 0.89075 0.52428 0.73974 0.0
C1161 C 0.86139 0.49133 0.74724 0.0
C1162 C 0.88481 0.55255 0.73079 0.0
C1163 C 0.82654 0.48756 0.74713 0.0
C1164 C 0.82039 0.51542 0.73837 0.0
C1165 C 0.84233 0.57379 0.71818 0.0
C1166 C 0.87081 0.60528 0.70843 0.0
C1167 C 0.84908 0.5475 0.72943 0.0
C1168 C 0.90655 0.61127 0.71109 0.0
C1169 C 0.91349 0.58498 0.72204 0.0
H1170 H 0.45286 0.9158 0.23228 0.0
H1171 H 0.54169 1.00246 0.26829 0.0
H1172 H 0.57312 0.02832 0.23256 0.0
H1173 H 0.57154 0.02915 0.19076 0.0
H1174 H 0.47948 0.94407 0.15504 0.0
H1175 H 0.45325 0.91419 0.19093 0.0
C1176 C 0.47922 0.94022 0.23214 0.0
C1177 C 0.49492 0.95779 0.25248 0.0
C1178 C 0.49634 0.95509 0.21165 0.0
C1179 C 0.52932 0.98888 0.25259 0.0
C1180 C 0.54703 1.00361 0.23224 0.0
C1181 C 0.54581 1.00401 0.19084 0.0
C1182 C 0.52743 0.98907 0.17021 0.0
C1183 C 0.53023 0.98748 0.21159 0.0
C1184 C 0.49448 0.95603 0.17061 0.0
C1185 C 0.47922 0.93906 0.19114 0.0
H1186 H 0.1715 0.60755 0.24117 0.0
H1187 H 0.07462 0.52794 0.27386 0.0
H1188 H 0.04422 0.50589 0.23683 0.0
H1189 H 0.04274 0.51589 0.1955 0.0
H1190 H 0.13956 0.59706 0.16267 0.0
H1191 H 0.17249 0.61232 0.19932 0.0
C1192 C 0.14413 0.58467 0.23998 0.0
C1193 C 0.12507 0.56916 0.2599 0.0
C1194 C 0.12666 0.57318 0.21867 0.0
C1195 C 0.08959 0.53983 0.25856 0.0
C1196 C 0.07221 0.52763 0.23744 0.0
C1197 C 0.0713 0.53627 0.19623 0.0
C1198 C 0.08844 0.55565 0.17632 0.0
C1199 C 0.09005 0.54504 0.21739 0.0
C1200 C 0.12541 0.58227 0.17775 0.0
C1201 C 0.14436 0.59089 0.19869 0.0
H1202 H 0.50008 0.55266 0.26485 0.0
H1203 H 0.41425 0.57767 0.24924 0.0
H1204 H 0.40795 0.55671 0.21039 0.0
H1205 H 0.43337 0.53942 0.17975 0.0
H1206 H 0.52122 0.5167 0.19593 0.0
H1207 H 0.51981 0.52766 0.23573 0.0
C1208 C 0.47929 0.55229 0.25302 0.0
C1209 C 0.45752 0.56634 0.25958 0.0
C1210 C 0.47658 0.54102 0.23082 0.0
C1211 C 0.43088 0.56646 0.24437 0.0
C1212 C 0.42764 0.55488 0.2222 0.0
C1213 C 0.45184 0.53641 0.19206 0.0
C1214 C 0.47755 0.52753 0.18478 0.0
C1215 C 0.45134 0.5434 0.215 0.0
C1216 C 0.50094 0.52318 0.20101 0.0
C1217 C 0.5004 0.52976 0.22379 0.0
H1218 H 0.84234 0.43447 0.80961 0.0
H1219 H 0.94086 0.50356 0.77477 0.0
H1220 H 0.97282 0.52905 0.81087 0.0
H1221 H 0.9743 0.52537 0.85255 0.0
H1222 H 0.87569 0.4548 0.88766 0.0
H1223 H 0.84224 0.43557 0.8514 0.0
C1224 C 0.87056 0.45578 0.81007 0.0
C1225 C 0.88946 0.46735 0.78982 0.0
C1226 C 0.88884 0.46922 0.83094 0.0
C1227 C 0.92597 0.49471 0.79028 0.0
C1228 C 0.94422 0.50885 0.8109 0.0
C1229 C 0.94533 0.5064 0.85235 0.0
C1230 C 0.92773 0.49128 0.87292 0.0
C1231 C 0.92622 0.49542 0.83141 0.0
C1232 C 0.89019 0.46633 0.87216 0.0
C1233 C 0.87094 0.45549 0.85141 0.0
H1234 H 0.60958 0.46283 0.82205 0.0
H1235 H 0.58943 0.54287 0.78657 0.0
H1236 H 0.57391 0.55823 0.82224 0.0
H1237 H 0.55661 0.54148 0.86227 0.0
H1238 H 0.57485 0.45924 0.89718 0.0
H1239 H 0.5999 0.45163 0.86309 0.0
C1240 C 0.60281 0.48436 0.82239 0.0
C1241 C 0.60054 0.50172 0.80186 0.0
C1242 C 0.59249 0.49179 0.84276 0.0
C1243 C 0.59172 0.52953 0.80228 0.0
C1244 C 0.5823 0.53783 0.8226 0.0
C1245 C 0.56679 0.52246 0.86261 0.0
C1246 C 0.56311 0.50047 0.88227 0.0
C1247 C 0.58111 0.51804 0.84279 0.0
C1248 C 0.57639 0.47587 0.88221 0.0
C1249 C 0.591 0.47165 0.86274 0.0
H1250 H 0.56316 0.1095 0.80074 0.0
H1251 H 0.53528 1.00104 0.78491 0.0
H1252 H 0.52946 0.98319 0.82543 0.0
H1253 H 0.52094 0.99623 0.86411 0.0
H1254 H 0.54523 0.10453 0.87908 0.0
H1255 H 0.56388 0.12499 0.84022 0.0
C1256 C 0.55749 0.08248 0.80645 0.0
C1257 C 0.55005 0.05661 0.79023 0.0
C1258 C 0.55245 0.07228 0.82948 0.0
C1259 C 0.54172 1.02135 0.79734 0.0
C1260 C 0.53782 1.01112 0.82041 0.0
C1261 C 0.53121 0.0245 0.859 0.0
C1262 C 0.53104 0.04869 0.8743 0.0
C1263 C 0.54134 0.03595 0.83649 0.0
C1264 C 0.54429 0.08522 0.86744 0.0
C1265 C 0.55513 0.09698 0.84528 0.0
H1266 H 0.19342 0.33275 0.59868 0.0
H1267 H 0.12231 0.22454 0.57619 0.0
H1268 H 0.1451 0.24259 0.53776 0.0
H1269 H 0.17794 0.2913 0.50979 0.0
H1270 H 0.2487 0.40039 0.53188 0.0
H1271 H 0.23351 0.38012 0.57126 0.0
C1272 C 0.18392 0.31316 0.58539 0.0
C1273 C 0.15621 0.27765 0.58983 0.0
C1274 C 0.1965 0.32408 0.56329 0.0
C1275 C 0.14357 0.25212 0.57276 0.0
C1276 C 0.15643 0.26248 0.55089 0.0
C1277 C 0.19086 0.31049 0.52324 0.0
C1278 C 0.21386 0.3474 0.51785 0.0
C1279 C 0.18181 0.29873 0.54577 0.0
C1280 C 0.23015 0.37194 0.53554 0.0
C1281 C 0.22163 0.36037 0.55807 0.0
H1282 H 0.73369 0.86966 0.59364 0.0
H1283 H 0.84142 0.88987 0.58171 0.0
H1284 H 0.82544 0.87853 0.54115 0.0
H1285 H 0.78313 0.87173 0.50853 0.0
H1286 H 0.676 0.85417 0.52113 0.0
H1287 H 0.68901 0.85507 0.56185 0.0
C1288 C 0.75309 0.87024 0.58216 0.0
C1289 C 0.7885 0.88033 0.5904 0.0
C1290 C 0.74394 0.86485 0.55894 0.0
C1291 C 0.81387 0.88163 0.57561 0.0
C1292 C 0.80483 0.87567 0.55244 0.0
C1293 C 0.76252 0.86768 0.52021 0.0
C1294 C 0.7287 0.86314 0.51167 0.0
C1295 C 0.77036 0.86872 0.54377 0.0
C1296 C 0.70212 0.85741 0.52711 0.0
C1297 C 0.70961 0.85817 0.55046 0.0
H1298 H 0.10364 0.92669 0.57754 0.0
H1299 H 0.15257 0.86963 0.61345 0.0
H1300 H 0.15919 0.84721 0.5776 0.0
H1301 H 0.15966 0.85218 0.53586 0.0
H1302 H 0.11158 0.91068 0.4999 0.0
H1303 H 0.09656 0.92482 0.53583 0.0
C1304 C 0.1149 0.90861 0.57739 0.0
C1305 C 0.12786 0.89986 0.59785 0.0
C1306 C 0.11963 0.89698 0.5567 0.0
C1307 C 0.14227 0.87635 0.59778 0.0
C1308 C 0.14644 0.86401 0.57729 0.0
C1309 C 0.14509 0.86725 0.53579 0.0
C1310 C 0.13741 0.88089 0.51511 0.0
C1311 C 0.13653 0.87536 0.55657 0.0
C1312 C 0.11873 0.90062 0.51552 0.0
C1313 C 0.10988 0.90853 0.53608 0.0
H1314 H 0.63067 0.84707 0.11183 0.0
H1315 H 0.52033 0.81416 0.12695 0.0
H1316 H 0.53955 0.83545 0.16584 0.0
H1317 H 0.58699 0.85563 0.19676 0.0
H1318 H 0.69711 0.88616 0.1811 0.0
H1319 H 0.67912 0.87422 0.14128 0.0
C1320 C 0.61122 0.84575 0.12355 0.0
C1321 C 0.57433 0.82934 0.1168 0.0
C1322 C 0.62243 0.85709 0.14587 0.0
C1323 C 0.54894 0.82717 0.13192 0.0
C1324 C 0.55991 0.8389 0.15415 0.0
C1325 C 0.60707 0.86004 0.18457 0.0
C1326 C 0.64333 0.8716 0.19202 0.0
C1327 C 0.59642 0.85262 0.16157 0.0
C1328 C 0.66913 0.87765 0.17591 0.0
C1329 C 0.65882 0.87057 0.1531 0.0
H1330 H 0.20084 0.8551 0.1235 0.0
H1331 H 0.27921 0.82127 0.14331 0.0
H1332 H 0.2751 0.8317 0.18325 0.0
H1333 H 0.24302 0.84294 0.2129 0.0
H1334 H 0.16176 0.87345 0.19255 0.0
H1335 H 0.1731 0.87199 0.15281 0.0
C1336 C 0.21776 0.85116 0.13659 0.0
C1337 C 0.24033 0.83751 0.13059 0.0
C1338 C 0.21406 0.85585 0.15954 0.0
C1339 C 0.26196 0.83211 0.14759 0.0
C1340 C 0.25915 0.83756 0.17043 0.0
C1341 C 0.2279 0.84945 0.19979 0.0
C1342 C 0.20139 0.85817 0.20598 0.0
C1343 C 0.23423 0.84811 0.17671 0.0
C1344 C 0.18258 0.86704 0.18857 0.0
C1345 C 0.18889 0.86601 0.1657 0.0
H1346 H 0.18603 0.33507 0.11693 0.0
H1347 H 0.25027 0.4508 0.12133 0.0
H1348 H 0.25481 0.44494 0.16283 0.0
H1349 H 0.2307 0.40725 0.19767 0.0
H1350 H 0.16467 0.29106 0.19293 0.0
H1351 H 0.17041 0.29649 0.15186 0.0
C1352 C 0.20224 0.35872 0.12706 0.0
C1353 C 0.21802 0.39325 0.11635 0.0
C1354 C 0.2034 0.35503 0.15084 0.0
C1355 C 0.23845 0.424 0.12939 0.0
C1356 C 0.24049 0.4206 0.15308 0.0
C1357 C 0.21841 0.383 0.18776 0.0
C1358 C 0.19659 0.34884 0.19841 0.0
C1359 C 0.22162 0.38633 0.16403 0.0
C1360 C 0.18078 0.31778 0.18517 0.0
C1361 C 0.1842 0.32082 0.16166 0.0
H1362 H 0.84816 0.70385 0.92369 0.0
H1363 H 0.83428 0.59622 0.9275 0.0
H1364 H 0.85873 0.6052 0.88951 0.0
H1365 H 0.87682 0.64134 0.85356 0.0
H1366 H 0.88624 0.74758 0.84924 0.0
H1367 H 0.87013 0.7415 0.88888 0.0
C1368 C 0.85111 0.68274 0.91618 0.0
C1369 C 0.83954 0.64951 0.92804 0.0
C1370 C 0.86359 0.68765 0.89414 0.0
C1371 C 0.84345 0.62212 0.91855 0.0
C1372 C 0.85698 0.62715 0.89681 0.0
C1373 C 0.87585 0.66332 0.86144 0.0
C1374 C 0.88227 0.69468 0.84848 0.0
C1375 C 0.86604 0.6594 0.88417 0.0
C1376 C 0.88075 0.72292 0.85881 0.0
C1377 C 0.87176 0.71956 0.88147 0.0
H1378 H 0.38943 0.20981 0.92446 0.0
H1379 H 0.50279 0.24965 0.91423 0.0
H1380 H 0.49008 0.23892 0.87341 0.0
H1381 H 0.44755 0.22685 0.84012 0.0
H1382 H 0.33433 0.18986 0.85105 0.0
H1383 H 0.34582 0.19035 0.89192 0.0
C1384 C 0.41097 0.21471 0.9133 0.0
C1385 C 0.44686 0.23014 0.92215 0.0
C1386 C 0.4035 0.20974 0.88989 0.0
C1387 C 0.47492 0.23717 0.90771 0.0
C1388 C 0.46765 0.23159 0.88437 0.0
C1389 C 0.42534 0.21855 0.85145 0.0
C1390 C 0.39014 0.20858 0.84238 0.0
C1391 C 0.43223 0.21935 0.87514 0.0
C1392 C 0.36161 0.19737 0.8574 0.0
C1393 C 0.36818 0.19784 0.88086 0.0
H1394 H 0.75239 0.25135 0.90077 0.0
H1395 H 0.79601 0.19295 0.94086 0.0
H1396 H 0.8008 0.16548 0.90668 0.0
H1397 H 0.80178 0.16639 0.86505 0.0
H1398 H 0.75861 0.22574 0.82478 0.0
H1399 H 0.74481 0.24496 0.85924 0.0
C1400 C 0.76184 0.23171 0.90191 0.0
C1401 C 0.7739 0.22402 0.92305 0.0
C1402 C 0.76552 0.21709 0.88213 0.0
C1403 C 0.78633 0.1988 0.92465 0.0
C1404 C 0.78948 0.18357 0.90511 0.0
C1405 C 0.78845 0.1827 0.86372 0.0
C1406 C 0.78197 0.19514 0.84223 0.0
C1407 C 0.78054 0.1937 0.88365 0.0
C1408 C 0.76489 0.21654 0.84103 0.0
C1409 C 0.75674 0.22738 0.86074 0.0
H1410 H 0.20979 0.14696 0.47295 0.0
H1411 H 0.30618 0.19564 0.43391 0.0
H1412 H 0.34413 0.22048 0.46843 0.0
H1413 H 0.34981 0.2211 0.5103 0.0
H1414 H 0.25278 0.16982 0.54931 0.0
H1415 H 0.21508 0.1533 0.51443 0.0
C1416 C 0.23906 0.16377 0.4721 0.0
C1417 C 0.25541 0.16951 0.45115 0.0
C1418 C 0.26051 0.17685 0.49207 0.0
C1419 C 0.29323 0.1913 0.44994 0.0
C1420 C 0.31483 0.20502 0.46969 0.0
C1421 C 0.32041 0.20654 0.51114 0.0
C1422 C 0.30419 0.1964 0.53243 0.0
C1423 C 0.29882 0.19679 0.49095 0.0
C1424 C 0.26602 0.17812 0.53321 0.0
C1425 C 0.24441 0.16848 0.51324 0.0
H1426 H 0.89098 0.18533 0.4581 0.0
H1427 H 0.96208 0.14412 0.48159 0.0
H1428 H 0.95495 0.15412 0.52097 0.0
H1429 H 0.92065 0.16561 0.54881 0.0
H1430 H 0.84541 0.20224 0.52475 0.0
H1431 H 0.86201 0.2034 0.48583 0.0
C1432 C 0.9062 0.18028 0.47186 0.0
C1433 C 0.928 0.16518 0.46696 0.0
C1434 C 0.90027 0.18427 0.49448 0.0
C1435 C 0.94642 0.15716 0.48491 0.0
C1436 C 0.9416 0.16209 0.50746 0.0
C1437 C 0.90809 0.17414 0.53508 0.0
C1438 C 0.88155 0.18359 0.53991 0.0
C1439 C 0.91734 0.17417 0.51249 0.0
C1440 C 0.86611 0.19512 0.52178 0.0
C1441 C 0.87544 0.1956 0.49939 0.0
H1442 H 0.92158 0.77938 0.46613 0.0
H1443 H 0.87189 0.66816 0.44742 0.0
H1444 H 0.87179 0.64886 0.48737 0.0
H1445 H 0.87267 0.66305 0.52725 0.0
H1446 H 0.91923 0.77471 0.54582 0.0
H1447 H 0.93374 0.79471 0.50637 0.0
C1448 C 0.91267 0.75121 0.47089 0.0
C1449 C 0.89701 0.72512 0.45415 0.0
C1450 C 0.91083 0.74043 0.49388 0.0
C1451 C 0.88455 0.68854 0.46018 0.0
C1452 C 0.88385 0.67757 0.48301 0.0
C1453 C 0.88705 0.69182 0.52282 0.0
C1454 C 0.89404 0.7173 0.53939 0.0
C1455 C 0.89487 0.70311 0.50003 0.0
C1456 C 0.9126 0.75448 0.53329 0.0
C1457 C 0.9211 0.76597 0.51075 0.0
loop_
_geom_bond_atom_site_label_1
_geom_bond_atom_site_label_2
_geom_bond_distance
_geom_bond_site_symmetry_2
_ccdc_geom_bond_type
C0 N1 1.317 . S
C0 N2 1.348 . S
C0 C3 1.485 . S
N1 C0 1.317 . S
N1 N5 1.370 . S
N2 C0 1.348 . S
N2 C4 1.346 . S
C3 C0 1.485 . S
C3 H7 0.960 . S
C3 H8 0.961 . S
C3 H9 0.960 . S
C4 N2 1.346 . S
C4 N5 1.307 . S
C4 C6 1.486 . S
N5 N1 1.370 . S
N5 C4 1.307 . S
C6 C4 1.486 . S
C6 H10 0.960 . S
C6 H11 0.960 . S
C6 H12 0.959 . S
H7 C3 0.960 . S
H8 C3 0.961 . S
H9 C3 0.960 . S
H10 C6 0.960 . S
H11 C6 0.960 . S
H12 C6 0.959 . S
C13 N14 1.317 . S
C13 N15 1.348 . S
C13 C16 1.485 . S
N14 C13 1.317 . S
N14 N18 1.370 . S
N15 C13 1.348 . S
N15 C17 1.346 . S
C16 C13 1.485 . S
C16 H20 0.960 . S
C16 H21 0.961 . S
C16 H22 0.960 . S
C17 N15 1.346 . S
C17 N18 1.307 . S
C17 C19 1.486 . S
N18 N14 1.370 . S
N18 C17 1.307 . S
C19 C17 1.486 . S
C19 H23 0.960 . S
C19 H24 0.960 . S
C19 H25 0.959 . S
H20 C16 0.960 . S
H21 C16 0.961 . S
H22 C16 0.960 . S
H23 C19 0.960 . S
H24 C19 0.960 . S
H25 C19 0.959 . S
C26 N27 1.317 . S
C26 N28 1.348 . S
C26 C29 1.485 . S
N27 C26 1.317 . S
N27 N31 1.370 . S
N28 C26 1.348 . S
N28 C30 1.346 . S
C29 C26 1.485 . S
C29 H33 0.960 . S
C29 H34 0.961 . S
C29 H35 0.960 . S
C30 N28 1.346 . S
C30 N31 1.307 . S
C30 C32 1.486 . S
N31 N27 1.370 . S
N31 C30 1.307 . S
C32 C30 1.486 . S
C32 H36 0.960 . S
C32 H37 0.960 . S
C32 H38 0.959 . S
H33 C29 0.960 . S
H34 C29 0.961 . S
H35 C29 0.960 . S
H36 C32 0.960 . S
H37 C32 0.960 . S
H38 C32 0.959 . S
C39 N40 1.317 . S
C39 N41 1.348 . S
C39 C42 1.485 . S
N40 C39 1.317 . S
N40 N44 1.370 . S
N41 C39 1.348 . S
N41 C43 1.346 . S
C42 C39 1.485 . S
C42 H46 0.960 . S
C42 H47 0.961 . S
C42 H48 0.960 . S
C43 N41 1.346 . S
C43 N44 1.307 . S
C43 C45 1.486 . S
N44 N40 1.370 . S
N44 C43 1.307 . S
C45 C43 1.486 . S
C45 H49 0.960 . S
C45 H50 0.960 . S
C45 H51 0.959 . S
H46 C42 0.960 . S
H47 C42 0.961 . S
H48 C42 0.960 . S
H49 C45 0.960 . S
H50 C45 0.960 . S
H51 C45 0.959 . S
C52 N53 1.317 . S
C52 N54 1.348 . S
C52 C55 1.485 . S
N53 C52 1.317 . S
N53 N57 1.370 . S
N54 C52 1.348 . S
N54 C56 1.346 . S
C55 C52 1.485 . S
C55 H59 0.960 . S
C55 H60 0.961 . S
C55 H61 0.960 . S
C56 N54 1.346 . S
C56 N57 1.307 . S
C56 C58 1.486 . S
N57 N53 1.370 . S
N57 C56 1.307 . S
C58 C56 1.486 . S
C58 H62 0.960 . S
C58 H63 0.960 . S
C58 H64 0.959 . S
H59 C55 0.960 . S
H60 C55 0.961 . S
H61 C55 0.960 . S
H62 C58 0.960 . S
H63 C58 0.960 . S
H64 C58 0.959 . S
C65 N66 1.317 . S
C65 N67 1.348 . S
C65 C68 1.485 . S
N66 C65 1.317 . S
N66 N70 1.370 . S
N67 C65 1.348 . S
N67 C69 1.346 . S
C68 C65 1.485 . S
C68 H72 0.960 . S
C68 H73 0.961 . S
C68 H74 0.960 . S
C69 N67 1.346 . S
C69 N70 1.307 . S
C69 C71 1.486 . S
N70 N66 1.370 . S
N70 C69 1.307 . S
C71 C69 1.486 . S
C71 H75 0.960 . S
C71 H76 0.960 . S
C71 H77 0.959 . S
H72 C68 0.960 . S
H73 C68 0.961 . S
H74 C68 0.960 . S
H75 C71 0.960 . S
H76 C71 0.960 . S
H77 C71 0.959 . S
C78 N79 1.317 . S
C78 N80 1.348 . S
C78 C81 1.485 . S
N79 C78 1.317 . S
N79 N83 1.370 . S
N80 C78 1.348 . S
N80 C82 1.346 . S
C81 C78 1.485 . S
C81 H85 0.960 . S
C81 H86 0.961 . S
C81 H87 0.960 . S
C82 N80 1.346 . S
C82 N83 1.307 . S
C82 C84 1.486 . S
N83 N79 1.370 . S
N83 C82 1.307 . S
C84 C82 1.486 . S
C84 H88 0.960 . S
C84 H89 0.960 . S
C84 H90 0.959 . S
H85 C81 0.960 . S
H86 C81 0.961 . S
H87 C81 0.960 . S
H88 C84 0.960 . S
H89 C84 0.960 . S
H90 C84 0.959 . S
C91 N92 1.317 . S
C91 N93 1.348 . S
C91 C94 1.485 . S
N92 C91 1.317 . S
N92 N96 1.370 . S
N93 C91 1.348 . S
N93 C95 1.346 . S
C94 C91 1.485 . S
C94 H98 0.960 . S
C94 H99 0.961 . S
C94 H100 0.960 . S
C95 N93 1.346 . S
C95 N96 1.307 . S
C95 C97 1.486 . S
N96 N92 1.370 . S
N96 C95 1.307 . S
C97 C95 1.486 . S
C97 H101 0.960 . S
C97 H102 0.960 . S
C97 H103 0.959 . S
H98 C94 0.960 . S
H99 C94 0.961 . S
H100 C94 0.960 . S
H101 C97 0.960 . S
H102 C97 0.960 . S
H103 C97 0.959 . S
C104 N105 1.317 . S
C104 N106 1.348 . S
C104 C107 1.485 . S
N105 C104 1.317 . S
N105 N109 1.370 . S
N106 C104 1.348 . S
N106 C108 1.346 . S
C107 C104 1.485 . S
C107 H111 0.960 . S
C107 H112 0.961 . S
C107 H113 0.960 . S
C108 N106 1.346 . S
C108 N109 1.307 . S
C108 C110 1.486 . S
N109 N105 1.370 . S
N109 C108 1.307 . S
C110 C108 1.486 . S
C110 H114 0.960 . S
C110 H115 0.960 . S
C110 H116 0.959 . S
H111 C107 0.960 . S
H112 C107 0.961 . S
H113 C107 0.960 . S
H114 C110 0.960 . S
H115 C110 0.960 . S
H116 C110 0.959 . S
C117 N118 1.317 . S
C117 N119 1.348 . S
C117 C120 1.485 . S
N118 C117 1.317 . S
N118 N122 1.370 . S
N119 C117 1.348 . S
N119 C121 1.346 . S
C120 C117 1.485 . S
C120 H124 0.960 . S
C120 H125 0.961 . S
C120 H126 0.960 . S
C121 N119 1.346 . S
C121 N122 1.307 . S
C121 C123 1.486 . S
N122 N118 1.370 . S
N122 C121 1.307 . S
C123 C121 1.486 . S
C123 H127 0.960 . S
C123 H128 0.960 . S
C123 H129 0.959 . S
H124 C120 0.960 . S
H125 C120 0.961 . S
H126 C120 0.960 . S
H127 C123 0.960 . S
H128 C123 0.960 . S
H129 C123 0.959 . S
C130 N131 1.317 . S
C130 N132 1.348 . S
C130 C133 1.485 1_556 S
N131 C130 1.317 . S
N131 N135 1.370 . S
N132 C130 1.348 . S
N132 C134 1.346 . S
C133 C130 1.485 1_554 S
C133 H137 0.960 . S
C133 H138 0.961 . S
C133 H139 0.960 . S
C134 N132 1.346 . S
C134 N135 1.307 . S
C134 C136 1.486 . S
N135 N131 1.370 . S
N135 C134 1.307 . S
C136 C134 1.486 . S
C136 H140 0.960 . S
C136 H141 0.960 . S
C136 H142 0.959 . S
H137 C133 0.960 . S
H138 C133 0.961 . S
H139 C133 0.960 . S
H140 C136 0.960 . S
H141 C136 0.960 . S
H142 C136 0.959 . S
C143 N144 1.317 . S
C143 N145 1.348 . S
C143 C146 1.485 1_556 S
N144 C143 1.317 . S
N144 N148 1.370 . S
N145 C143 1.348 . S
N145 C147 1.346 . S
C146 C143 1.485 1_554 S
C146 H150 0.960 . S
C146 H151 0.961 . S
C146 H152 0.960 . S
C147 N145 1.346 . S
C147 N148 1.307 . S
C147 C149 1.486 . S
N148 N144 1.370 . S
N148 C147 1.307 . S
C149 C147 1.486 . S
C149 H153 0.960 . S
C149 H154 0.960 . S
C149 H155 0.959 . S
H150 C146 0.960 . S
H151 C146 0.961 . S
H152 C146 0.960 . S
H153 C149 0.960 . S
H154 C149 0.960 . S
H155 C149 0.959 . S
C156 N157 1.317 . S
C156 N158 1.348 . S
C156 C159 1.485 . S
N157 C156 1.317 . S
N157 N161 1.370 . S
N158 C156 1.348 . S
N158 C160 1.346 . S
C159 C156 1.485 . S
C159 H163 0.960 1_554 S
C159 H164 0.961 1_554 S
C159 H165 0.960 1_554 S
C160 N158 1.346 . S
C160 N161 1.307 . S
C160 C162 1.486 . S
N161 N157 1.370 . S
N161 C160 1.307 . S
C162 C160 1.486 . S
C162 H166 0.960 . S
C162 H167 0.960 . S
C162 H168 0.959 . S
H163 C159 0.960 1_556 S
H164 C159 0.961 1_556 S
H165 C159 0.960 1_556 S
H166 C162 0.960 . S
H167 C162 0.960 . S
H168 C162 0.959 . S
C169 N170 1.317 . S
C169 N171 1.348 . S
C169 C172 1.485 . S
N170 C169 1.317 . S
N170 N174 1.370 . S
N171 C169 1.348 . S
N171 C173 1.346 . S
C172 C169 1.485 . S
C172 H176 0.960 . S
C172 H177 0.961 . S
C172 H178 0.960 . S
C173 N171 1.346 . S
C173 N174 1.307 . S
C173 C175 1.486 . S
N174 N170 1.370 . S
N174 C173 1.307 . S
C175 C173 1.486 . S
C175 H179 0.960 . S
C175 H180 0.960 . S
C175 H181 0.959 . S
H176 C172 0.960 . S
H177 C172 0.961 . S
H178 C172 0.960 . S
H179 C175 0.960 . S
H180 C175 0.960 . S
H181 C175 0.959 . S
C182 N183 1.317 . S
C182 N184 1.348 . S
C182 C185 1.485 . S
N183 C182 1.317 . S
N183 N187 1.370 . S
N184 C182 1.348 . S
N184 C186 1.346 . S
C185 C182 1.485 . S
C185 H189 0.960 . S
C185 H190 0.961 . S
C185 H191 0.960 . S
C186 N184 1.346 . S
C186 N187 1.307 . S
C186 C188 1.486 . S
N187 N183 1.370 . S
N187 C186 1.307 . S
C188 C186 1.486 . S
C188 H192 0.960 . S
C188 H193 0.960 . S
C188 H194 0.959 . S
H189 C185 0.960 . S
H190 C185 0.961 . S
H191 C185 0.960 . S
H192 C188 0.960 . S
H193 C188 0.960 . S
H194 C188 0.959 . S
C195 N196 1.317 . S
C195 N197 1.348 . S
C195 C198 1.485 . S
N196 C195 1.317 . S
N196 N200 1.370 . S
N197 C195 1.348 . S
N197 C199 1.346 . S
C198 C195 1.485 . S
C198 H202 0.960 . S
C198 H203 0.961 . S
C198 H204 0.960 . S
C199 N197 1.346 . S
C199 N200 1.307 . S
C199 C201 1.486 . S
N200 N196 1.370 . S
N200 C199 1.307 . S
C201 C199 1.486 . S
C201 H205 0.960 . S
C201 H206 0.960 . S
C201 H207 0.959 . S
H202 C198 0.960 . S
H203 C198 0.961 . S
H204 C198 0.960 . S
H205 C201 0.960 . S
H206 C201 0.960 . S
H207 C201 0.959 . S
C208 N209 1.317 . S
C208 N210 1.348 . S
C208 C211 1.485 . S
N209 C208 1.317 . S
N209 N213 1.370 . S
N210 C208 1.348 . S
N210 C212 1.346 . S
C211 C208 1.485 . S
C211 H215 0.960 . S
C211 H216 0.961 . S
C211 H217 0.960 . S
C212 N210 1.346 . S
C212 N213 1.307 . S
C212 C214 1.486 . S
N213 N209 1.370 . S
N213 C212 1.307 . S
C214 C212 1.486 . S
C214 H218 0.960 . S
C214 H219 0.960 . S
C214 H220 0.959 . S
H215 C211 0.960 . S
H216 C211 0.961 . S
H217 C211 0.960 . S
H218 C214 0.960 . S
H219 C214 0.960 . S
H220 C214 0.959 . S
C221 N222 1.317 . S
C221 N223 1.348 . S
C221 C224 1.485 . S
N222 C221 1.317 . S
N222 N226 1.370 . S
N223 C221 1.348 . S
N223 C225 1.346 . S
C224 C221 1.485 . S
C224 H228 0.960 . S
C224 H229 0.961 . S
C224 H230 0.960 . S
C225 N223 1.346 . S
C225 N226 1.307 . S
C225 C227 1.486 . S
N226 N222 1.370 . S
N226 C225 1.307 . S
C227 C225 1.486 . S
C227 H231 0.960 . S
C227 H232 0.960 . S
C227 H233 0.959 . S
H228 C224 0.960 . S
H229 C224 0.961 . S
H230 C224 0.960 . S
H231 C227 0.960 . S
H232 C227 0.960 . S
H233 C227 0.959 . S
C234 Eu235 2.835 1_565 S
C234 C236 1.500 . S
C234 O254 1.257 . S
C234 O255 1.260 1_565 S
Eu235 C234 2.835 1_545 S
Eu235 O254 2.473 1_545 S
Eu235 O255 2.480 . S
Eu235 O256 2.430 . S
Eu235 O257 2.670 . S
Eu235 O258 2.394 1_545 S
Eu235 O263 2.355 1_545 S
Eu235 O265 2.374 . S
C236 C234 1.500 . S
C236 C237 1.377 . S
C236 C241 1.377 . S
C237 C236 1.377 . S
C237 C238 1.395 . S
C237 H266 0.931 1_565 S
C238 C237 1.395 . S
C238 C239 1.383 . S
C238 H267 0.931 . S
C239 C238 1.383 . S
C239 C240 1.394 . S
C240 C239 1.394 . S
C240 C241 1.378 . S
C240 H268 0.931 . S
C241 C236 1.377 . S
C241 C240 1.378 . S
C241 H269 0.931 . S
C242 O256 1.259 . S
C242 O257 1.270 . S
C243 O258 1.251 . S
C243 O259 1.251 . S
C244 Eu245 2.835 1_545 S
C244 C246 1.500 . S
C244 O260 1.257 . S
C244 O261 1.260 1_545 S
Eu245 C244 2.835 1_565 S
Eu245 O257 2.355 1_566 S
Eu245 O259 2.374 1_556 S
Eu245 O260 2.473 1_565 S
Eu245 O261 2.480 . S
Eu245 O262 2.430 . S
Eu245 O263 2.670 1_556 S
Eu245 O264 2.394 1_565 S
C246 C244 1.500 . S
C246 C247 1.377 . S
C246 C251 1.377 . S
C247 C246 1.377 . S
C247 C248 1.395 . S
C247 H270 0.931 1_545 S
C248 C247 1.395 . S
C248 C249 1.383 . S
C248 H271 0.931 . S
C249 C248 1.383 . S
C249 C250 1.394 . S
C250 C249 1.394 . S
C250 C251 1.378 . S
C250 H272 0.931 . S
C251 C246 1.377 . S
C251 C250 1.378 . S
C251 H273 0.931 . S
C252 O262 1.259 1_554 S
C252 O263 1.270 . S
C253 O264 1.282 . S
C253 O265 1.203 1_556 S
O254 C234 1.257 . S
O254 Eu235 2.473 1_565 S
O255 C234 1.260 1_545 S
O255 Eu235 2.480 . S
O256 Eu235 2.430 . S
O256 C242 1.259 . S
O257 Eu235 2.670 . S
O257 C242 1.270 . S
O257 Eu245 2.355 1_544 S
O258 Eu235 2.394 1_565 S
O258 C243 1.251 . S
O259 C243 1.251 . S
O259 Eu245 2.374 1_554 S
O260 C244 1.257 . S
O260 Eu245 2.473 1_545 S
O261 C244 1.260 1_565 S
O261 Eu245 2.480 . S
O262 Eu245 2.430 . S
O262 C252 1.259 1_556 S
O263 Eu235 2.355 1_565 S
O263 Eu245 2.670 1_554 S
O263 C252 1.270 . S
O264 Eu245 2.394 1_545 S
O264 C253 1.282 . S
O265 Eu235 2.374 . S
O265 C253 1.203 1_554 S
H266 C237 0.931 1_545 S
H267 C238 0.931 . S
H268 C240 0.931 . S
H269 C241 0.931 . S
H270 C247 0.931 1_565 S
H271 C248 0.931 . S
H272 C250 0.931 . S
H273 C251 0.931 . S
C274 Eu275 2.835 1_455 S
C274 C276 1.500 . S
C274 O294 1.257 . S
C274 O295 1.260 1_455 S
Eu275 C274 2.835 1_655 S
Eu275 O294 2.473 1_655 S
Eu275 O295 2.480 . S
Eu275 O296 2.430 . S
Eu275 O297 2.670 1_554 S
Eu275 O298 2.394 1_655 S
Eu275 O303 2.355 1_655 S
Eu275 O305 2.374 . S
C276 C274 1.500 . S
C276 C277 1.377 . S
C276 C281 1.377 . S
C277 C276 1.377 . S
C277 C278 1.395 . S
C277 H306 0.931 1_455 S
C278 C277 1.395 . S
C278 C279 1.383 . S
C278 H307 0.933 . S
C279 C278 1.383 . S
C279 C280 1.394 . S
C280 C279 1.394 . S
C280 C281 1.378 . S
C280 H308 0.931 . S
C281 C276 1.377 . S
C281 C280 1.378 . S
C281 H309 0.931 . S
C282 O296 1.259 . S
C282 O297 1.270 1_554 S
C283 O298 1.251 . S
C283 O299 1.251 . S
C284 Eu285 2.835 . S
C284 C286 1.500 1_455 S
C284 O300 1.257 1_455 S
C284 O301 1.260 . S
Eu285 C284 2.835 . S
Eu285 O297 2.355 1_455 S
Eu285 O299 2.374 1_556 S
Eu285 O300 2.473 1_455 S
Eu285 O301 2.480 . S
Eu285 O302 2.430 . S
Eu285 O303 2.670 1_556 S
Eu285 O304 2.394 1_455 S
C286 C284 1.500 1_655 S
C286 C287 1.377 1_655 S
C286 C291 1.377 . S
C287 C286 1.377 1_455 S
C287 C288 1.395 . S
C287 H310 0.931 . S
C288 C287 1.395 . S
C288 C289 1.383 1_455 S
C288 H311 0.931 . S
C289 C288 1.383 1_655 S
C289 C290 1.394 . S
C290 C289 1.394 . S
C290 C291 1.378 . S
C290 H312 0.931 . S
C291 C286 1.377 . S
C291 C290 1.378 . S
C291 H313 0.931 . S
C292 O302 1.259 1_554 S
C292 O303 1.270 . S
C293 O304 1.251 . S
C293 O305 1.251 1_556 S
O294 C274 1.257 . S
O294 Eu275 2.473 1_455 S
O295 C274 1.260 1_655 S
O295 Eu275 2.480 . S
O296 Eu275 2.430 . S
O296 C282 1.259 . S
O297 Eu275 2.670 1_556 S
O297 C282 1.270 1_556 S
O297 Eu285 2.355 1_655 S
O298 Eu275 2.394 1_455 S
O298 C283 1.251 . S
O299 C283 1.251 . S
O299 Eu285 2.374 1_554 S
O300 C284 1.257 1_655 S
O300 Eu285 2.473 1_655 S
O301 C284 1.260 . S
O301 Eu285 2.480 . S
O302 Eu285 2.430 . S
O302 C292 1.259 1_556 S
O303 Eu275 2.355 1_455 S
O303 Eu285 2.670 1_554 S
O303 C292 1.270 . S
O304 Eu285 2.394 1_655 S
O304 C293 1.251 . S
O305 Eu275 2.374 . S
O305 C293 1.251 1_554 S
H306 C277 0.931 1_655 S
H307 C278 0.933 . S
H308 C280 0.931 . S
H309 C281 0.931 . S
H310 C287 0.931 . S
H311 C288 0.931 . S
H312 C290 0.931 . S
H313 C291 0.931 . S
C314 Eu315 2.835 . S
C314 C316 1.500 . S
C314 O334 1.257 . S
C314 O335 1.260 . S
Eu315 C314 2.835 . S
Eu315 O334 2.473 . S
Eu315 O335 2.480 . S
Eu315 O336 2.430 . S
Eu315 O337 2.670 1_556 S
Eu315 O338 2.394 . S
Eu315 O343 2.355 1_556 S
Eu315 O345 2.374 1_556 S
C316 C314 1.500 . S
C316 C317 1.377 . S
C316 C321 1.377 . S
C317 C316 1.377 . S
C317 C318 1.395 . S
C317 H346 0.931 . S
C318 C317 1.395 . S
C318 C319 1.383 . S
C318 H347 0.931 . S
C319 C318 1.383 . S
C319 C320 1.394 . S
C320 C319 1.394 . S
C320 C321 1.378 . S
C320 H348 0.931 . S
C321 C316 1.377 . S
C321 C320 1.378 . S
C321 H349 0.931 . S
C322 O336 1.259 1_554 S
C322 O337 1.270 . S
C323 O338 1.271 . S
C323 O339 1.211 1_556 S
C324 Eu325 2.835 . S
C324 C326 1.500 . S
C324 O340 1.257 . S
C324 O341 1.260 . S
Eu325 C324 2.835 . S
Eu325 O337 2.355 . S
Eu325 O339 2.374 . S
Eu325 O340 2.473 . S
Eu325 O341 2.480 . S
Eu325 O342 2.430 . S
Eu325 O343 2.670 . S
Eu325 O344 2.394 . S
C326 C324 1.500 . S
C326 C327 1.377 . S
C326 C331 1.377 . S
C327 C326 1.377 . S
C327 C328 1.395 . S
C327 H350 0.931 . S
C328 C327 1.395 . S
C328 C329 1.383 . S
C328 H351 0.931 . S
C329 C328 1.383 . S
C329 C330 1.394 . S
C330 C329 1.394 . S
C330 C331 1.378 . S
C330 H352 0.931 . S
C331 C326 1.377 . S
C331 C330 1.378 . S
C331 H353 0.931 . S
C332 O342 1.259 . S
C332 O343 1.270 . S
C333 O344 1.251 . S
C333 O345 1.251 . S
O334 C314 1.257 . S
O334 Eu315 2.473 . S
O335 C314 1.260 . S
O335 Eu315 2.480 . S
O336 Eu315 2.430 . S
O336 C322 1.259 1_556 S
O337 Eu315 2.670 1_554 S
O337 C322 1.270 . S
O337 Eu325 2.355 . S
O338 Eu315 2.394 . S
O338 C323 1.271 . S
O339 C323 1.211 1_554 S
O339 Eu325 2.374 . S
O340 C324 1.257 . S
O340 Eu325 2.473 . S
O341 C324 1.260 . S
O341 Eu325 2.480 . S
O342 Eu325 2.430 . S
O342 C332 1.259 . S
O343 Eu315 2.355 1_554 S
O343 Eu325 2.670 . S
O343 C332 1.270 . S
O344 Eu325 2.394 . S
O344 C333 1.251 . S
O345 Eu315 2.374 1_554 S
O345 C333 1.251 . S
H346 C317 0.931 . S
H347 C318 0.931 . S
H348 C320 0.931 . S
H349 C321 0.931 . S
H350 C327 0.931 . S
H351 C328 0.931 . S
H352 C330 0.931 . S
H353 C331 0.931 . S
C354 Eu355 2.835 . S
C354 C356 1.500 . S
C354 O374 1.257 . S
C354 O375 1.260 . S
Eu355 C354 2.835 . S
Eu355 O374 2.473 . S
Eu355 O375 2.480 . S
Eu355 O376 2.430 . S
Eu355 O377 2.670 . S
Eu355 O378 2.394 . S
Eu355 O383 2.355 . S
Eu355 O385 2.374 . S
C356 C354 1.500 . S
C356 C357 1.377 . S
C356 C361 1.377 . S
C357 C356 1.377 . S
C357 C358 1.395 . S
C357 H386 0.931 . S
C358 C357 1.395 . S
C358 C359 1.383 . S
C358 H387 0.931 . S
C359 C358 1.383 . S
C359 C360 1.394 . S
C360 C359 1.394 . S
C360 C361 1.378 . S
C360 H388 0.931 . S
C361 C356 1.377 . S
C361 C360 1.378 . S
C361 H389 0.931 . S
C362 O376 1.259 . S
C362 O377 1.270 . S
C363 O378 1.251 . S
C363 O379 1.251 . S
C364 Eu365 2.835 . S
C364 C366 1.500 . S
C364 O380 1.257 . S
C364 O381 1.260 . S
Eu365 C364 2.835 . S
Eu365 O377 2.355 . S
Eu365 O379 2.374 . S
Eu365 O380 2.473 . S
Eu365 O381 2.480 . S
Eu365 O382 2.430 . S
Eu365 O383 2.670 . S
Eu365 O384 2.394 . S
C366 C364 1.500 . S
C366 C367 1.377 . S
C366 C371 1.377 . S
C367 C366 1.377 . S
C367 C368 1.395 . S
C367 H390 0.931 . S
C368 C367 1.395 . S
C368 C369 1.383 . S
C368 H391 0.931 . S
C369 C368 1.383 . S
C369 C370 1.394 . S
C370 C369 1.394 . S
C370 C371 1.378 . S
C370 H392 0.931 . S
C371 C366 1.377 . S
C371 C370 1.378 . S
C371 H393 0.931 . S
C372 O382 1.259 . S
C372 O383 1.270 . S
C373 O384 1.251 . S
C373 O385 1.251 . S
O374 C354 1.257 . S
O374 Eu355 2.473 . S
O375 C354 1.260 . S
O375 Eu355 2.480 . S
O376 Eu355 2.430 . S
O376 C362 1.259 . S
O377 Eu355 2.670 . S
O377 C362 1.270 . S
O377 Eu365 2.355 . S
O378 Eu355 2.394 . S
O378 C363 1.251 . S
O379 C363 1.251 . S
O379 Eu365 2.374 . S
O380 C364 1.257 . S
O380 Eu365 2.473 . S
O381 C364 1.260 . S
O381 Eu365 2.480 . S
O382 Eu365 2.430 . S
O382 C372 1.259 . S
O383 Eu355 2.355 . S
O383 Eu365 2.670 . S
O383 C372 1.270 . S
O384 Eu365 2.394 . S
O384 C373 1.251 . S
O385 Eu355 2.374 . S
O385 C373 1.251 . S
H386 C357 0.931 . S
H387 C358 0.931 . S
H388 C360 0.931 . S
H389 C361 0.931 . S
H390 C367 0.931 . S
H391 C368 0.931 . S
H392 C370 0.931 . S
H393 C371 0.931 . S
C394 Eu395 2.835 . S
C394 C396 1.500 . S
C394 O414 1.257 . S
C394 O415 1.260 . S
Eu395 C394 2.835 . S
Eu395 O414 2.473 . S
Eu395 O415 2.480 . S
Eu395 O416 2.430 . S
Eu395 O417 2.670 . S
Eu395 O418 2.394 . S
Eu395 O423 2.355 . S
Eu395 O425 2.374 . S
C396 C394 1.500 . S
C396 C397 1.377 . S
C396 C401 1.377 . S
C397 C396 1.377 . S
C397 C398 1.395 . S
C397 H426 0.931 . S
C398 C397 1.395 . S
C398 C399 1.383 . S
C398 H427 0.931 . S
C399 C398 1.383 . S
C399 C400 1.394 . S
C400 C399 1.394 . S
C400 C401 1.378 . S
C400 H428 0.931 . S
C401 C396 1.377 . S
C401 C400 1.378 . S
C401 H429 0.931 . S
C402 O416 1.259 . S
C402 O417 1.270 . S
C403 O418 1.251 . S
C403 O419 1.251 . S
C404 Eu405 2.835 . S
C404 C406 1.500 . S
C404 O420 1.257 . S
C404 O421 1.260 . S
Eu405 C404 2.835 . S
Eu405 O417 2.355 . S
Eu405 O419 2.374 . S
Eu405 O420 2.473 . S
Eu405 O421 2.480 . S
Eu405 O422 2.430 . S
Eu405 O423 2.670 . S
Eu405 O424 2.394 . S
C406 C404 1.500 . S
C406 C407 1.377 . S
C406 C411 1.377 . S
C407 C406 1.377 . S
C407 C408 1.395 . S
C407 H430 0.931 . S
C408 C407 1.395 . S
C408 C409 1.383 . S
C408 H431 0.931 . S
C409 C408 1.383 . S
C409 C410 1.394 . S
C410 C409 1.394 . S
C410 C411 1.378 . S
C410 H432 0.931 . S
C411 C406 1.377 . S
C411 C410 1.378 . S
C411 H433 0.931 . S
C412 O422 1.259 . S
C412 O423 1.270 . S
C413 O424 1.251 . S
C413 O425 1.251 . S
O414 C394 1.257 . S
O414 Eu395 2.473 . S
O415 C394 1.260 . S
O415 Eu395 2.480 . S
O416 Eu395 2.430 . S
O416 C402 1.259 . S
O417 Eu395 2.670 . S
O417 C402 1.270 . S
O417 Eu405 2.355 . S
O418 Eu395 2.394 . S
O418 C403 1.251 . S
O419 C403 1.251 . S
O419 Eu405 2.374 . S
O420 C404 1.257 . S
O420 Eu405 2.473 . S
O421 C404 1.260 . S
O421 Eu405 2.480 . S
O422 Eu405 2.430 . S
O422 C412 1.259 . S
O423 Eu395 2.355 . S
O423 Eu405 2.670 . S
O423 C412 1.270 . S
O424 Eu405 2.394 . S
O424 C413 1.251 . S
O425 Eu395 2.374 . S
O425 C413 1.251 . S
H426 C397 0.931 . S
H427 C398 0.931 . S
H428 C400 0.931 . S
H429 C401 0.931 . S
H430 C407 0.931 . S
H431 C408 0.931 . S
H432 C410 0.931 . S
H433 C411 0.931 . S
C434 Eu435 2.835 . S
C434 C436 1.500 . S
C434 O454 1.257 . S
C434 O455 1.260 . S
Eu435 C434 2.835 . S
Eu435 O454 2.473 . S
Eu435 O455 2.480 . S
Eu435 O456 2.430 . S
Eu435 O457 2.670 . S
Eu435 O458 2.394 . S
Eu435 O463 2.355 . S
Eu435 O465 2.374 . S
C436 C434 1.500 . S
C436 C437 1.377 . S
C436 C441 1.377 . S
C437 C436 1.377 . S
C437 C438 1.395 . S
C437 H466 0.931 . S
C438 C437 1.395 . S
C438 C439 1.383 . S
C438 H467 0.931 . S
C439 C438 1.383 . S
C439 C440 1.394 . S
C440 C439 1.394 . S
C440 C441 1.378 . S
C440 H468 0.931 . S
C441 C436 1.377 . S
C441 C440 1.378 . S
C441 H469 0.931 . S
C442 O456 1.259 . S
C442 O457 1.270 . S
C443 O458 1.251 . S
C443 O459 1.251 . S
C444 Eu445 2.835 . S
C444 C446 1.500 . S
C444 O460 1.257 . S
C444 O461 1.260 . S
Eu445 C444 2.835 . S
Eu445 O457 2.355 . S
Eu445 O459 2.374 . S
Eu445 O460 2.473 . S
Eu445 O461 2.480 . S
Eu445 O462 2.430 . S
Eu445 O463 2.670 . S
Eu445 O464 2.394 . S
C446 C444 1.500 . S
C446 C447 1.377 . S
C446 C451 1.377 . S
C447 C446 1.377 . S
C447 C448 1.395 . S
C447 H470 0.931 . S
C448 C447 1.395 . S
C448 C449 1.383 . S
C448 H471 0.931 . S
C449 C448 1.383 . S
C449 C450 1.394 . S
C450 C449 1.394 . S
C450 C451 1.378 . S
C450 H472 0.931 . S
C451 C446 1.377 . S
C451 C450 1.378 . S
C451 H473 0.931 . S
C452 O462 1.259 . S
C452 O463 1.270 . S
C453 O464 1.251 . S
C453 O465 1.251 . S
O454 C434 1.257 . S
O454 Eu435 2.473 . S
O455 C434 1.260 . S
O455 Eu435 2.480 . S
O456 Eu435 2.430 . S
O456 C442 1.259 . S
O457 Eu435 2.670 . S
O457 C442 1.270 . S
O457 Eu445 2.355 . S
O458 Eu435 2.394 . S
O458 C443 1.251 . S
O459 C443 1.251 . S
O459 Eu445 2.374 . S
O460 C444 1.257 . S
O460 Eu445 2.473 . S
O461 C444 1.260 . S
O461 Eu445 2.480 . S
O462 Eu445 2.430 . S
O462 C452 1.259 . S
O463 Eu435 2.355 . S
O463 Eu445 2.670 . S
O463 C452 1.270 . S
O464 Eu445 2.394 . S
O464 C453 1.251 . S
O465 Eu435 2.374 . S
O465 C453 1.251 . S
H466 C437 0.931 . S
H467 C438 0.931 . S
H468 C440 0.931 . S
H469 C441 0.931 . S
H470 C447 0.931 . S
H471 C448 0.931 . S
H472 C450 0.931 . S
H473 C451 0.931 . S
C474 Eu475 2.835 . S
C474 C476 1.500 . S
C474 O494 1.257 . S
C474 O495 1.260 . S
Eu475 C474 2.835 . S
Eu475 O494 2.473 . S
Eu475 O495 2.480 . S
Eu475 O496 2.430 . S
Eu475 O497 2.670 . S
Eu475 O498 2.394 . S
Eu475 O503 2.355 . S
Eu475 O505 2.374 . S
C476 C474 1.500 . S
C476 C477 1.377 . S
C476 C481 1.377 . S
C477 C476 1.377 . S
C477 C478 1.395 . S
C477 H506 0.931 . S
C478 C477 1.395 . S
C478 C479 1.383 . S
C478 H507 0.931 . S
C479 C478 1.383 . S
C479 C480 1.394 . S
C480 C479 1.394 . S
C480 C481 1.378 . S
C480 H508 0.931 . S
C481 C476 1.377 . S
C481 C480 1.378 . S
C481 H509 0.931 . S
C482 O496 1.259 . S
C482 O497 1.270 . S
C483 O498 1.251 . S
C483 O499 1.251 . S
C484 Eu485 2.835 . S
C484 C486 1.500 . S
C484 O500 1.257 . S
C484 O501 1.260 . S
Eu485 C484 2.835 . S
Eu485 O497 2.355 . S
Eu485 O499 2.374 . S
Eu485 O500 2.473 . S
Eu485 O501 2.480 . S
Eu485 O502 2.430 . S
Eu485 O503 2.670 . S
Eu485 O504 2.394 . S
C486 C484 1.500 . S
C486 C487 1.377 . S
C486 C491 1.377 . S
C487 C486 1.377 . S
C487 C488 1.395 . S
C487 H510 0.931 . S
C488 C487 1.395 . S
C488 C489 1.383 . S
C488 H511 0.931 . S
C489 C488 1.383 . S
C489 C490 1.394 . S
C490 C489 1.394 . S
C490 C491 1.378 . S
C490 H512 0.931 . S
C491 C486 1.377 . S
C491 C490 1.378 . S
C491 H513 0.931 . S
C492 O502 1.259 . S
C492 O503 1.270 . S
C493 O504 1.251 . S
C493 O505 1.251 . S
O494 C474 1.257 . S
O494 Eu475 2.473 . S
O495 C474 1.260 . S
O495 Eu475 2.480 . S
O496 Eu475 2.430 . S
O496 C482 1.259 . S
O497 Eu475 2.670 . S
O497 C482 1.270 . S
O497 Eu485 2.355 . S
O498 Eu475 2.394 . S
O498 C483 1.251 . S
O499 C483 1.251 . S
O499 Eu485 2.374 . S
O500 C484 1.257 . S
O500 Eu485 2.473 . S
O501 C484 1.260 . S
O501 Eu485 2.480 . S
O502 Eu485 2.430 . S
O502 C492 1.259 . S
O503 Eu475 2.355 . S
O503 Eu485 2.670 . S
O503 C492 1.270 . S
O504 Eu485 2.394 . S
O504 C493 1.251 . S
O505 Eu475 2.374 . S
O505 C493 1.251 . S
H506 C477 0.931 . S
H507 C478 0.931 . S
H508 C480 0.931 . S
H509 C481 0.931 . S
H510 C487 0.931 . S
H511 C488 0.931 . S
H512 C490 0.931 . S
H513 C491 0.931 . S
C514 Eu515 2.835 . S
C514 C516 1.500 . S
C514 O534 1.257 . S
C514 O535 1.260 . S
Eu515 C514 2.835 . S
Eu515 O534 2.473 . S
Eu515 O535 2.480 . S
Eu515 O536 2.430 . S
Eu515 O537 2.670 . S
Eu515 O538 2.394 . S
Eu515 O543 2.355 . S
Eu515 O545 2.374 . S
C516 C514 1.500 . S
C516 C517 1.377 . S
C516 C521 1.377 . S
C517 C516 1.377 . S
C517 C518 1.395 . S
C517 H546 0.931 . S
C518 C517 1.395 . S
C518 C519 1.383 . S
C518 H547 0.931 . S
C519 C518 1.383 . S
C519 C520 1.394 . S
C520 C519 1.394 . S
C520 C521 1.378 . S
C520 H548 0.931 . S
C521 C516 1.377 . S
C521 C520 1.378 . S
C521 H549 0.931 . S
C522 O536 1.259 . S
C522 O537 1.270 . S
C523 O538 1.251 . S
C523 O539 1.251 . S
C524 Eu525 2.835 . S
C524 C526 1.500 . S
C524 O540 1.257 . S
C524 O541 1.260 . S
Eu525 C524 2.835 . S
Eu525 O537 2.355 . S
Eu525 O539 2.374 . S
Eu525 O540 2.473 . S
Eu525 O541 2.480 . S
Eu525 O542 2.430 . S
Eu525 O543 2.670 . S
Eu525 O544 2.394 . S
C526 C524 1.500 . S
C526 C527 1.377 . S
C526 C531 1.377 . S
C527 C526 1.377 . S
C527 C528 1.395 . S
C527 H550 0.931 . S
C528 C527 1.395 . S
C528 C529 1.383 . S
C528 H551 0.931 . S
C529 C528 1.383 . S
C529 C530 1.394 . S
C530 C529 1.394 . S
C530 C531 1.378 . S
C530 H552 0.931 . S
C531 C526 1.377 . S
C531 C530 1.378 . S
C531 H553 0.931 . S
C532 O542 1.259 . S
C532 O543 1.270 . S
C533 O544 1.251 . S
C533 O545 1.251 . S
O534 C514 1.257 . S
O534 Eu515 2.473 . S
O535 C514 1.260 . S
O535 Eu515 2.480 . S
O536 Eu515 2.430 . S
O536 C522 1.259 . S
O537 Eu515 2.670 . S
O537 C522 1.270 . S
O537 Eu525 2.355 . S
O538 Eu515 2.394 . S
O538 C523 1.251 . S
O539 C523 1.251 . S
O539 Eu525 2.374 . S
O540 C524 1.257 . S
O540 Eu525 2.473 . S
O541 C524 1.260 . S
O541 Eu525 2.480 . S
O542 Eu525 2.430 . S
O542 C532 1.259 . S
O543 Eu515 2.355 . S
O543 Eu525 2.670 . S
O543 C532 1.270 . S
O544 Eu525 2.394 . S
O544 C533 1.251 . S
O545 Eu515 2.374 . S
O545 C533 1.251 . S
H546 C517 0.931 . S
H547 C518 0.931 . S
H548 C520 0.931 . S
H549 C521 0.931 . S
H550 C527 0.931 . S
H551 C528 0.931 . S
H552 C530 0.931 . S
H553 C531 0.931 . S
C554 Eu555 2.835 . S
C554 C556 1.500 . S
C554 O574 1.257 . S
C554 O575 1.260 . S
Eu555 C554 2.835 . S
Eu555 O574 2.473 . S
Eu555 O575 2.480 . S
Eu555 O576 2.430 . S
Eu555 O577 2.670 . S
Eu555 O578 2.394 . S
Eu555 O583 2.355 . S
Eu555 O585 2.374 . S
C556 C554 1.500 . S
C556 C557 1.377 . S
C556 C561 1.377 . S
C557 C556 1.377 . S
C557 C558 1.395 . S
C557 H586 0.931 . S
C558 C557 1.395 . S
C558 C559 1.383 . S
C558 H587 0.931 . S
C559 C558 1.383 . S
C559 C560 1.394 . S
C560 C559 1.394 . S
C560 C561 1.378 . S
C560 H588 0.931 . S
C561 C556 1.377 . S
C561 C560 1.378 . S
C561 H589 0.931 . S
C562 O576 1.259 . S
C562 O577 1.270 . S
C563 O578 1.251 . S
C563 O579 1.251 . S
C564 Eu565 2.835 . S
C564 C566 1.500 . S
C564 O580 1.257 . S
C564 O581 1.260 . S
Eu565 C564 2.835 . S
Eu565 O577 2.355 . S
Eu565 O579 2.374 . S
Eu565 O580 2.473 . S
Eu565 O581 2.480 . S
Eu565 O582 2.430 . S
Eu565 O583 2.670 . S
Eu565 O584 2.394 . S
C566 C564 1.500 . S
C566 C567 1.377 . S
C566 C571 1.377 . S
C567 C566 1.377 . S
C567 C568 1.395 . S
C567 H590 0.931 . S
C568 C567 1.395 . S
C568 C569 1.383 . S
C568 H591 0.931 . S
C569 C568 1.383 . S
C569 C570 1.394 . S
C570 C569 1.394 . S
C570 C571 1.378 . S
C570 H592 0.931 . S
C571 C566 1.377 . S
C571 C570 1.378 . S
C571 H593 0.931 . S
C572 O582 1.259 . S
C572 O583 1.270 . S
C573 O584 1.251 . S
C573 O585 1.251 . S
O574 C554 1.257 . S
O574 Eu555 2.473 . S
O575 C554 1.260 . S
O575 Eu555 2.480 . S
O576 Eu555 2.430 . S
O576 C562 1.259 . S
O577 Eu555 2.670 . S
O577 C562 1.270 . S
O577 Eu565 2.355 . S
O578 Eu555 2.394 . S
O578 C563 1.251 . S
O579 C563 1.251 . S
O579 Eu565 2.374 . S
O580 C564 1.257 . S
O580 Eu565 2.473 . S
O581 C564 1.260 . S
O581 Eu565 2.480 . S
O582 Eu565 2.430 . S
O582 C572 1.259 . S
O583 Eu555 2.355 . S
O583 Eu565 2.670 . S
O583 C572 1.270 . S
O584 Eu565 2.394 . S
O584 C573 1.251 . S
O585 Eu555 2.374 . S
O585 C573 1.251 . S
H586 C557 0.931 . S
H587 C558 0.931 . S
H588 C560 0.931 . S
H589 C561 0.931 . S
H590 C567 0.931 . S
H591 C568 0.931 . S
H592 C570 0.931 . S
H593 C571 0.931 . S
H594 C600 0.930 . S
H595 C603 0.930 . S
H596 C604 0.930 . S
H597 C605 0.930 . S
H598 C608 0.930 . S
H599 C609 0.930 . S
C600 H594 0.930 . S
C600 C601 1.355 . S
C600 C602 1.415 . S
C601 C600 1.355 . S
C601 C603 1.419 . S
C602 C600 1.415 . S
C602 C607 1.425 . S
C602 C609 1.409 . S
C603 H595 0.930 . S
C603 C601 1.419 . S
C603 C604 1.362 . S
C604 H596 0.930 . S
C604 C603 1.362 . S
C604 C607 1.409 . S
C605 H597 0.930 . S
C605 C606 1.355 . S
C605 C607 1.415 . S
C606 C605 1.355 . S
C606 C608 1.419 . S
C607 C602 1.425 . S
C607 C604 1.409 . S
C607 C605 1.415 . S
C608 H598 0.930 . S
C608 C606 1.419 . S
C608 C609 1.362 . S
C609 H599 0.930 . S
C609 C602 1.409 . S
C609 C608 1.362 . S
H610 C616 0.930 . S
H611 C619 0.930 . S
H612 C620 0.930 . S
H613 C621 0.930 . S
H614 C624 0.930 . S
H615 C625 0.930 . S
C616 H610 0.930 . S
C616 C617 1.355 . S
C616 C618 1.415 . S
C617 C616 1.355 . S
C617 C619 1.419 . S
C618 C616 1.415 . S
C618 C623 1.425 . S
C618 C625 1.409 . S
C619 H611 0.930 . S
C619 C617 1.419 . S
C619 C620 1.362 . S
C620 H612 0.930 . S
C620 C619 1.362 . S
C620 C623 1.409 . S
C621 H613 0.930 . S
C621 C622 1.355 . S
C621 C623 1.415 . S
C622 C621 1.355 . S
C622 C624 1.419 . S
C623 C618 1.425 . S
C623 C620 1.409 . S
C623 C621 1.415 . S
C624 H614 0.930 . S
C624 C622 1.419 . S
C624 C625 1.362 . S
C625 H615 0.930 . S
C625 C618 1.409 . S
C625 C624 1.362 . S
H626 C632 0.930 . S
H627 C635 0.930 . S
H628 C636 0.930 . S
H629 C637 0.930 . S
H630 C640 0.930 . S
H631 C641 0.930 . S
C632 H626 0.930 . S
C632 C633 1.355 . S
C632 C634 1.415 . S
C633 C632 1.355 . S
C633 C635 1.419 . S
C634 C632 1.415 . S
C634 C639 1.425 . S
C634 C641 1.409 . S
C635 H627 0.930 . S
C635 C633 1.419 . S
C635 C636 1.362 . S
C636 H628 0.930 . S
C636 C635 1.362 . S
C636 C639 1.409 . S
C637 H629 0.930 . S
C637 C638 1.355 . S
C637 C639 1.415 . S
C638 C637 1.355 . S
C638 C640 1.419 . S
C639 C634 1.425 . S
C639 C636 1.409 . S
C639 C637 1.415 . S
C640 H630 0.930 . S
C640 C638 1.419 . S
C640 C641 1.362 . S
C641 H631 0.930 . S
C641 C634 1.409 . S
C641 C640 1.362 . S
H642 C648 0.930 . S
H643 C651 0.930 . S
H644 C652 0.930 . S
H645 C653 0.930 . S
H646 C656 0.930 . S
H647 C657 0.930 . S
C648 H642 0.930 . S
C648 C649 1.355 . S
C648 C650 1.415 . S
C649 C648 1.355 . S
C649 C651 1.419 . S
C650 C648 1.415 . S
C650 C655 1.425 . S
C650 C657 1.409 . S
C651 H643 0.930 . S
C651 C649 1.419 . S
C651 C652 1.362 . S
C652 H644 0.930 . S
C652 C651 1.362 . S
C652 C655 1.409 . S
C653 H645 0.930 . S
C653 C654 1.355 . S
C653 C655 1.415 . S
C654 C653 1.355 . S
C654 C656 1.419 . S
C655 C650 1.425 . S
C655 C652 1.409 . S
C655 C653 1.415 . S
C656 H646 0.930 . S
C656 C654 1.419 . S
C656 C657 1.362 . S
C657 H647 0.930 . S
C657 C650 1.409 . S
C657 C656 1.362 . S
H658 C664 0.930 . S
H659 C667 0.930 . S
H660 C668 0.930 . S
H661 C669 0.930 1_554 S
H662 C672 0.930 . S
H663 C673 0.930 . S
C664 H658 0.930 . S
C664 C665 1.355 . S
C664 C666 1.415 . S
C665 C664 1.355 . S
C665 C667 1.419 . S
C666 C664 1.415 . S
C666 C671 1.425 . S
C666 C673 1.409 . S
C667 H659 0.930 . S
C667 C665 1.419 . S
C667 C668 1.362 . S
C668 H660 0.930 . S
C668 C667 1.362 . S
C668 C671 1.409 . S
C669 H661 0.930 1_556 S
C669 C670 1.355 . S
C669 C671 1.415 . S
C670 C669 1.355 . S
C670 C672 1.419 . S
C671 C666 1.425 . S
C671 C668 1.409 . S
C671 C669 1.415 . S
C672 H662 0.930 . S
C672 C670 1.419 . S
C672 C673 1.362 . S
C673 H663 0.930 . S
C673 C666 1.409 . S
C673 C672 1.362 . S
H674 C680 0.930 . S
H675 C683 0.930 . S
H676 C684 0.930 . S
H677 C685 0.930 . S
H678 C688 0.930 . S
H679 C689 0.930 . S
C680 H674 0.930 . S
C680 C681 1.355 . S
C680 C682 1.415 . S
C681 C680 1.355 . S
C681 C683 1.419 . S
C682 C680 1.415 . S
C682 C687 1.425 . S
C682 C689 1.409 . S
C683 H675 0.930 . S
C683 C681 1.419 . S
C683 C684 1.362 . S
C684 H676 0.930 . S
C684 C683 1.362 . S
C684 C687 1.409 . S
C685 H677 0.930 . S
C685 C686 1.355 . S
C685 C687 1.415 . S
C686 C685 1.355 . S
C686 C688 1.419 . S
C687 C682 1.425 . S
C687 C684 1.409 . S
C687 C685 1.415 . S
C688 H678 0.930 . S
C688 C686 1.419 . S
C688 C689 1.362 . S
C689 H679 0.930 . S
C689 C682 1.409 . S
C689 C688 1.362 . S
H690 C696 0.930 . S
H691 C699 0.931 . S
H692 C700 0.930 . S
H693 C701 0.930 . S
H694 C704 0.930 . S
H695 C705 0.930 . S
C696 H690 0.930 . S
C696 C697 1.355 . S
C696 C698 1.415 . S
C697 C696 1.355 . S
C697 C699 1.417 1_556 S
C698 C696 1.415 . S
C698 C703 1.425 . S
C698 C705 1.409 . S
C699 H691 0.931 . S
C699 C697 1.417 1_554 S
C699 C700 1.363 . S
C700 H692 0.930 . S
C700 C699 1.363 . S
C700 C703 1.409 1_554 S
C701 H693 0.930 . S
C701 C702 1.355 1_554 S
C701 C703 1.415 1_554 S
C702 C701 1.355 1_556 S
C702 C704 1.419 . S
C703 C698 1.425 . S
C703 C700 1.409 1_556 S
C703 C701 1.415 1_556 S
C704 H694 0.930 . S
C704 C702 1.419 . S
C704 C705 1.362 . S
C705 H695 0.930 . S
C705 C698 1.409 . S
C705 C704 1.362 . S
H706 C712 0.930 . S
H707 C715 0.930 . S
H708 C716 0.930 . S
H709 C717 0.930 . S
H710 C720 0.930 1_554 S
H711 C721 0.904 1_554 S
C712 H706 0.930 . S
C712 C713 1.355 . S
C712 C714 1.415 . S
C713 C712 1.355 . S
C713 C715 1.419 . S
C714 C712 1.415 . S
C714 C719 1.425 . S
C714 C721 1.409 . S
C715 H707 0.930 . S
C715 C713 1.419 . S
C715 C716 1.362 . S
C716 H708 0.930 . S
C716 C715 1.362 . S
C716 C719 1.409 . S
C717 H709 0.930 . S
C717 C718 1.355 . S
C717 C719 1.415 . S
C718 C717 1.355 . S
C718 C720 1.419 . S
C719 C714 1.425 . S
C719 C716 1.409 . S
C719 C717 1.415 . S
C720 H710 0.930 1_556 S
C720 C718 1.419 . S
C720 C721 1.362 . S
C721 H711 0.904 1_556 S
C721 C714 1.409 . S
C721 C720 1.362 . S
H722 C728 0.930 . S
H723 C731 0.930 . S
H724 C732 0.930 . S
H725 C733 0.930 . S
H726 C736 0.929 . S
H727 C737 0.930 . S
C728 H722 0.930 . S
C728 C729 1.355 . S
C728 C730 1.415 . S
C729 C728 1.355 . S
C729 C731 1.419 . S
C730 C728 1.415 . S
C730 C735 1.425 1_556 S
C730 C737 1.409 . S
C731 H723 0.930 . S
C731 C729 1.419 . S
C731 C732 1.362 1_556 S
C732 H724 0.930 . S
C732 C731 1.362 1_554 S
C732 C735 1.409 . S
C733 H725 0.930 . S
C733 C734 1.355 . S
C733 C735 1.415 . S
C734 C733 1.355 . S
C734 C736 1.429 . S
C735 C730 1.425 1_554 S
C735 C732 1.409 . S
C735 C733 1.415 . S
C736 H726 0.929 . S
C736 C734 1.429 . S
C736 C737 1.354 1_554 S
C737 H727 0.930 . S
C737 C730 1.409 . S
C737 C736 1.354 1_556 S
H738 C744 0.930 . S
H739 C747 0.930 . S
H740 C748 0.930 1_556 S
H741 C749 0.930 1_556 S
H742 C752 0.930 . S
H743 C753 0.930 . S
C744 H738 0.930 . S
C744 C745 1.355 . S
C744 C746 1.415 . S
C745 C744 1.355 . S
C745 C747 1.419 . S
C746 C744 1.415 . S
C746 C751 1.425 . S
C746 C753 1.409 . S
C747 H739 0.930 . S
C747 C745 1.419 . S
C747 C748 1.362 . S
C748 H740 0.930 1_554 S
C748 C747 1.362 . S
C748 C751 1.409 . S
C749 H741 0.930 1_554 S
C749 C750 1.355 . S
C749 C751 1.415 . S
C750 C749 1.355 . S
C750 C752 1.419 . S
C751 C746 1.425 . S
C751 C748 1.409 . S
C751 C749 1.415 . S
C752 H742 0.930 . S
C752 C750 1.419 . S
C752 C753 1.362 . S
C753 H743 0.930 . S
C753 C746 1.409 . S
C753 C752 1.362 . S
H754 C760 0.930 . S
H755 C763 0.930 . S
H756 C764 0.930 . S
H757 C765 0.930 . S
H758 C768 0.930 . S
H759 C769 0.930 . S
C760 H754 0.930 . S
C760 C761 1.355 . S
C760 C762 1.415 . S
C761 C760 1.355 . S
C761 C763 1.419 . S
C762 C760 1.415 . S
C762 C767 1.425 . S
C762 C769 1.409 . S
C763 H755 0.930 . S
C763 C761 1.419 . S
C763 C764 1.362 . S
C764 H756 0.930 . S
C764 C763 1.362 . S
C764 C767 1.409 . S
C765 H757 0.930 . S
C765 C766 1.355 . S
C765 C767 1.415 . S
C766 C765 1.355 . S
C766 C768 1.419 . S
C767 C762 1.425 . S
C767 C764 1.409 . S
C767 C765 1.415 . S
C768 H758 0.930 . S
C768 C766 1.419 . S
C768 C769 1.362 . S
C769 H759 0.930 . S
C769 C762 1.409 . S
C769 C768 1.362 . S
H770 C776 0.930 . S
H771 C779 0.930 . S
H772 C780 0.930 . S
H773 C781 0.930 . S
H774 C784 0.930 1_556 S
H775 C785 0.930 1_556 S
C776 H770 0.930 . S
C776 C777 1.355 . S
C776 C778 1.415 . S
C777 C776 1.355 . S
C777 C779 1.419 . S
C778 C776 1.415 . S
C778 C783 1.425 . S
C778 C785 1.409 . S
C779 H771 0.930 . S
C779 C777 1.419 . S
C779 C780 1.362 . S
C780 H772 0.930 . S
C780 C779 1.362 . S
C780 C783 1.409 . S
C781 H773 0.930 . S
C781 C782 1.355 . S
C781 C783 1.415 . S
C782 C781 1.355 . S
C782 C784 1.419 . S
C783 C778 1.425 . S
C783 C780 1.409 . S
C783 C781 1.415 . S
C784 H774 0.930 1_554 S
C784 C782 1.419 . S
C784 C785 1.362 . S
C785 H775 0.930 1_554 S
C785 C778 1.409 . S
C785 C784 1.362 . S
H786 C792 0.930 . S
H787 C795 0.930 . S
H788 C796 0.930 1_455 S
H789 C797 0.930 . S
H790 C800 0.930 . S
H791 C801 0.930 . S
C792 H786 0.930 . S
C792 C793 1.355 . S
C792 C794 1.415 . S
C793 C792 1.355 . S
C793 C795 1.419 . S
C794 C792 1.415 . S
C794 C799 1.425 1_655 S
C794 C801 1.409 1_655 S
C795 H787 0.930 . S
C795 C793 1.419 . S
C795 C796 1.362 . S
C796 H788 0.930 1_655 S
C796 C795 1.362 . S
C796 C799 1.409 1_655 S
C797 H789 0.930 . S
C797 C798 1.355 . S
C797 C799 1.415 . S
C798 C797 1.355 . S
C798 C800 1.419 . S
C799 C794 1.425 1_455 S
C799 C796 1.409 1_455 S
C799 C797 1.415 . S
C800 H790 0.930 . S
C800 C798 1.419 . S
C800 C801 1.362 . S
C801 H791 0.930 . S
C801 C794 1.409 1_455 S
C801 C800 1.362 . S
H802 C808 0.930 . S
H803 C811 0.930 . S
H804 C812 0.930 . S
H805 C813 0.930 . S
H806 C816 0.930 . S
H807 C817 0.930 . S
C808 H802 0.930 . S
C808 C809 1.355 . S
C808 C810 1.415 . S
C809 C808 1.355 . S
C809 C811 1.419 . S
C810 C808 1.415 . S
C810 C815 1.425 . S
C810 C817 1.409 . S
C811 H803 0.930 . S
C811 C809 1.419 . S
C811 C812 1.362 . S
C812 H804 0.930 . S
C812 C811 1.362 . S
C812 C815 1.409 . S
C813 H805 0.930 . S
C813 C814 1.355 . S
C813 C815 1.415 . S
C814 C813 1.355 . S
C814 C816 1.419 . S
C815 C810 1.425 . S
C815 C812 1.409 . S
C815 C813 1.415 . S
C816 H806 0.930 . S
C816 C814 1.419 . S
C816 C817 1.362 . S
C817 H807 0.930 . S
C817 C810 1.409 . S
C817 C816 1.362 . S
H818 C824 0.930 . S
H819 C827 0.930 . S
H820 C828 0.930 . S
H821 C829 0.930 . S
H822 C832 0.930 . S
H823 C833 0.930 . S
C824 H818 0.930 . S
C824 C825 1.355 . S
C824 C826 1.415 . S
C825 C824 1.355 . S
C825 C827 1.419 . S
C826 C824 1.415 . S
C826 C831 1.425 1_545 S
C826 C833 1.409 1_545 S
C827 H819 0.930 . S
C827 C825 1.419 . S
C827 C828 1.362 . S
C828 H820 0.930 . S
C828 C827 1.362 . S
C828 C831 1.409 1_545 S
C829 H821 0.930 . S
C829 C830 1.355 . S
C829 C831 1.415 . S
C830 C829 1.355 . S
C830 C832 1.419 . S
C831 C826 1.425 1_565 S
C831 C828 1.409 1_565 S
C831 C829 1.415 . S
C832 H822 0.930 . S
C832 C830 1.419 . S
C832 C833 1.362 . S
C833 H823 0.930 . S
C833 C826 1.409 1_565 S
C833 C832 1.362 . S
H834 C840 0.930 . S
H835 C843 0.930 . S
H836 C844 0.930 . S
H837 C845 0.930 . S
H838 C848 0.930 . S
H839 C849 0.930 . S
C840 H834 0.930 . S
C840 C841 1.355 . S
C840 C842 1.415 . S
C841 C840 1.355 . S
C841 C843 1.419 . S
C842 C840 1.415 . S
C842 C847 1.425 . S
C842 C849 1.409 . S
C843 H835 0.930 . S
C843 C841 1.419 . S
C843 C844 1.362 . S
C844 H836 0.930 . S
C844 C843 1.362 . S
C844 C847 1.409 . S
C845 H837 0.930 . S
C845 C846 1.355 . S
C845 C847 1.415 . S
C846 C845 1.355 . S
C846 C848 1.419 . S
C847 C842 1.425 . S
C847 C844 1.409 . S
C847 C845 1.415 . S
C848 H838 0.930 . S
C848 C846 1.419 . S
C848 C849 1.362 . S
C849 H839 0.930 . S
C849 C842 1.409 . S
C849 C848 1.362 . S
H850 C856 0.930 . S
H851 C859 0.930 . S
H852 C860 0.930 . S
H853 C861 0.930 . S
H854 C864 0.930 . S
H855 C865 0.930 . S
C856 H850 0.930 . S
C856 C857 1.355 . S
C856 C858 1.415 . S
C857 C856 1.355 . S
C857 C859 1.419 . S
C858 C856 1.415 . S
C858 C863 1.425 . S
C858 C865 1.409 . S
C859 H851 0.930 . S
C859 C857 1.419 . S
C859 C860 1.362 . S
C860 H852 0.930 . S
C860 C859 1.362 . S
C860 C863 1.409 . S
C861 H853 0.930 . S
C861 C862 1.355 . S
C861 C863 1.415 . S
C862 C861 1.355 . S
C862 C864 1.419 . S
C863 C858 1.425 . S
C863 C860 1.409 . S
C863 C861 1.415 . S
C864 H854 0.930 . S
C864 C862 1.419 . S
C864 C865 1.362 . S
C865 H855 0.930 . S
C865 C858 1.409 . S
C865 C864 1.362 . S
H866 C872 0.930 . S
H867 C875 0.930 . S
H868 C876 0.930 . S
H869 C877 0.930 . S
H870 C880 0.930 . S
H871 C881 0.930 . S
C872 H866 0.930 . S
C872 C873 1.355 . S
C872 C874 1.415 . S
C873 C872 1.355 . S
C873 C875 1.419 . S
C874 C872 1.415 . S
C874 C879 1.425 . S
C874 C881 1.409 . S
C875 H867 0.930 . S
C875 C873 1.419 . S
C875 C876 1.362 . S
C876 H868 0.930 . S
C876 C875 1.362 . S
C876 C879 1.409 . S
C877 H869 0.930 . S
C877 C878 1.355 . S
C877 C879 1.415 . S
C878 C877 1.355 . S
C878 C880 1.419 . S
C879 C874 1.425 . S
C879 C876 1.409 . S
C879 C877 1.415 . S
C880 H870 0.930 . S
C880 C878 1.419 . S
C880 C881 1.362 . S
C881 H871 0.930 . S
C881 C874 1.409 . S
C881 C880 1.362 . S
H882 C888 0.930 . S
H883 C891 0.930 . S
H884 C892 0.930 . S
H885 C893 0.930 . S
H886 C896 0.930 . S
H887 C897 0.930 . S
C888 H882 0.930 . S
C888 C889 1.355 . S
C888 C890 1.415 . S
C889 C888 1.355 . S
C889 C891 1.419 . S
C890 C888 1.415 . S
C890 C895 1.425 . S
C890 C897 1.409 . S
C891 H883 0.930 . S
C891 C889 1.419 . S
C891 C892 1.362 . S
C892 H884 0.930 . S
C892 C891 1.362 . S
C892 C895 1.409 . S
C893 H885 0.930 . S
C893 C894 1.355 . S
C893 C895 1.415 . S
C894 C893 1.355 . S
C894 C896 1.419 . S
C895 C890 1.425 . S
C895 C892 1.409 . S
C895 C893 1.415 . S
C896 H886 0.930 . S
C896 C894 1.419 . S
C896 C897 1.362 . S
C897 H887 0.930 . S
C897 C890 1.409 . S
C897 C896 1.362 . S
H898 C904 0.930 . S
H899 C907 0.930 . S
H900 C908 0.930 . S
H901 C909 0.930 . S
H902 C912 0.930 . S
H903 C913 0.930 . S
C904 H898 0.930 . S
C904 C905 1.355 . S
C904 C906 1.415 . S
C905 C904 1.355 . S
C905 C907 1.419 . S
C906 C904 1.415 . S
C906 C911 1.425 . S
C906 C913 1.409 . S
C907 H899 0.930 . S
C907 C905 1.419 . S
C907 C908 1.362 . S
C908 H900 0.930 . S
C908 C907 1.362 . S
C908 C911 1.409 . S
C909 H901 0.930 . S
C909 C910 1.355 . S
C909 C911 1.415 . S
C910 C909 1.355 . S
C910 C912 1.419 . S
C911 C906 1.425 . S
C911 C908 1.409 . S
C911 C909 1.415 . S
C912 H902 0.930 . S
C912 C910 1.419 . S
C912 C913 1.362 . S
C913 H903 0.930 . S
C913 C906 1.409 . S
C913 C912 1.362 . S
H914 C920 0.930 . S
H915 C923 0.930 . S
H916 C924 0.930 . S
H917 C925 0.930 . S
H918 C928 0.930 . S
H919 C929 0.930 . S
C920 H914 0.930 . S
C920 C921 1.355 . S
C920 C922 1.415 . S
C921 C920 1.355 . S
C921 C923 1.419 . S
C922 C920 1.415 . S
C922 C927 1.425 . S
C922 C929 1.409 . S
C923 H915 0.930 . S
C923 C921 1.419 . S
C923 C924 1.362 . S
C924 H916 0.930 . S
C924 C923 1.362 . S
C924 C927 1.409 . S
C925 H917 0.930 . S
C925 C926 1.355 . S
C925 C927 1.415 . S
C926 C925 1.355 . S
C926 C928 1.419 . S
C927 C922 1.425 . S
C927 C924 1.409 . S
C927 C925 1.415 . S
C928 H918 0.930 . S
C928 C926 1.419 . S
C928 C929 1.362 . S
C929 H919 0.930 . S
C929 C922 1.409 . S
C929 C928 1.362 . S
H930 C936 0.930 . S
H931 C939 0.930 . S
H932 C940 0.930 . S
H933 C941 0.930 . S
H934 C944 0.930 . S
H935 C945 0.930 . S
C936 H930 0.930 . S
C936 C937 1.355 . S
C936 C938 1.415 . S
C937 C936 1.355 . S
C937 C939 1.419 . S
C938 C936 1.415 . S
C938 C943 1.425 . S
C938 C945 1.409 1_545 S
C939 H931 0.930 . S
C939 C937 1.419 . S
C939 C940 1.362 . S
C940 H932 0.930 . S
C940 C939 1.362 . S
C940 C943 1.409 . S
C941 H933 0.930 . S
C941 C942 1.355 . S
C941 C943 1.415 1_565 S
C942 C941 1.355 . S
C942 C944 1.419 . S
C943 C938 1.425 . S
C943 C940 1.409 . S
C943 C941 1.415 1_545 S
C944 H934 0.930 . S
C944 C942 1.419 . S
C944 C945 1.362 . S
C945 H935 0.930 . S
C945 C938 1.409 1_565 S
C945 C944 1.362 . S
H946 C952 0.930 . S
H947 C955 0.930 . S
H948 C956 0.930 . S
H949 C957 0.930 . S
H950 C960 0.930 . S
H951 C961 0.930 . S
C952 H946 0.930 . S
C952 C953 1.355 . S
C952 C954 1.415 1_655 S
C953 C952 1.355 . S
C953 C955 1.419 . S
C954 C952 1.415 1_455 S
C954 C959 1.425 . S
C954 C961 1.409 . S
C955 H947 0.930 . S
C955 C953 1.419 . S
C955 C956 1.362 1_655 S
C956 H948 0.930 . S
C956 C955 1.362 1_455 S
C956 C959 1.409 . S
C957 H949 0.930 . S
C957 C958 1.355 . S
C957 C959 1.415 . S
C958 C957 1.355 . S
C958 C960 1.419 . S
C959 C954 1.425 . S
C959 C956 1.409 . S
C959 C957 1.415 . S
C960 H950 0.930 . S
C960 C958 1.419 . S
C960 C961 1.362 . S
C961 H951 0.930 . S
C961 C954 1.409 . S
C961 C960 1.362 . S
H962 C968 0.930 . S
H963 C971 0.930 . S
H964 C972 0.930 . S
H965 C973 0.930 . S
H966 C976 0.930 . S
H967 C977 0.930 . S
C968 H962 0.930 . S
C968 C969 1.355 . S
C968 C970 1.415 . S
C969 C968 1.355 . S
C969 C971 1.419 . S
C970 C968 1.415 . S
C970 C975 1.425 . S
C970 C977 1.409 . S
C971 H963 0.930 . S
C971 C969 1.419 . S
C971 C972 1.362 . S
C972 H964 0.930 . S
C972 C971 1.362 . S
C972 C975 1.409 . S
C973 H965 0.930 . S
C973 C974 1.355 . S
C973 C975 1.415 . S
C974 C973 1.355 . S
C974 C976 1.419 . S
C975 C970 1.425 . S
C975 C972 1.409 . S
C975 C973 1.415 . S
C976 H966 0.930 . S
C976 C974 1.419 . S
C976 C977 1.362 . S
C977 H967 0.930 . S
C977 C970 1.409 . S
C977 C976 1.362 . S
H978 C984 0.930 . S
H979 C987 0.930 . S
H980 C988 0.930 . S
H981 C989 0.930 . S
H982 C992 0.930 . S
H983 C993 0.930 . S
C984 H978 0.930 . S
C984 C985 1.355 . S
C984 C986 1.415 . S
C985 C984 1.355 . S
C985 C987 1.419 . S
C986 C984 1.415 . S
C986 C991 1.425 . S
C986 C993 1.409 . S
C987 H979 0.930 . S
C987 C985 1.419 . S
C987 C988 1.362 . S
C988 H980 0.930 . S
C988 C987 1.362 . S
C988 C991 1.409 . S
C989 H981 0.930 . S
C989 C990 1.355 . S
C989 C991 1.415 . S
C990 C989 1.355 . S
C990 C992 1.419 . S
C991 C986 1.425 . S
C991 C988 1.409 . S
C991 C989 1.415 . S
C992 H982 0.930 . S
C992 C990 1.419 . S
C992 C993 1.362 . S
C993 H983 0.930 . S
C993 C986 1.409 . S
C993 C992 1.362 . S
H994 C1000 0.930 . S
H995 C1003 0.930 . S
H996 C1004 0.930 . S
H997 C1005 0.930 . S
H998 C1008 0.930 . S
H999 C1009 0.930 . S
C1000 H994 0.930 . S
C1000 C1001 1.355 . S
C1000 C1002 1.415 . S
C1001 C1000 1.355 . S
C1001 C1003 1.419 . S
C1002 C1000 1.415 . S
C1002 C1007 1.425 . S
C1002 C1009 1.409 . S
C1003 H995 0.930 . S
C1003 C1001 1.419 . S
C1003 C1004 1.362 . S
C1004 H996 0.930 . S
C1004 C1003 1.362 . S
C1004 C1007 1.409 . S
C1005 H997 0.930 . S
C1005 C1006 1.355 . S
C1005 C1007 1.415 . S
C1006 C1005 1.355 . S
C1006 C1008 1.419 . S
C1007 C1002 1.425 . S
C1007 C1004 1.409 . S
C1007 C1005 1.415 . S
C1008 H998 0.930 . S
C1008 C1006 1.419 . S
C1008 C1009 1.362 . S
C1009 H999 0.930 . S
C1009 C1002 1.409 . S
C1009 C1008 1.362 . S
H1010 C1016 0.930 . S
H1011 C1019 0.930 . S
H1012 C1020 0.930 . S
H1013 C1021 0.930 . S
H1014 C1024 0.930 . S
H1015 C1025 0.930 . S
C1016 H1010 0.930 . S
C1016 C1017 1.355 . S
C1016 C1018 1.415 . S
C1017 C1016 1.355 . S
C1017 C1019 1.419 . S
C1018 C1016 1.415 . S
C1018 C1023 1.425 . S
C1018 C1025 1.409 . S
C1019 H1011 0.930 . S
C1019 C1017 1.419 . S
C1019 C1020 1.362 . S
C1020 H1012 0.930 . S
C1020 C1019 1.362 . S
C1020 C1023 1.409 . S
C1021 H1013 0.930 . S
C1021 C1022 1.355 . S
C1021 C1023 1.415 . S
C1022 C1021 1.355 . S
C1022 C1024 1.419 . S
C1023 C1018 1.425 . S
C1023 C1020 1.409 . S
C1023 C1021 1.415 . S
C1024 H1014 0.930 . S
C1024 C1022 1.419 . S
C1024 C1025 1.362 . S
C1025 H1015 0.930 . S
C1025 C1018 1.409 . S
C1025 C1024 1.362 . S
H1026 C1032 0.930 . S
H1027 C1035 0.930 . S
H1028 C1036 0.930 . S
H1029 C1037 0.930 . S
H1030 C1040 0.930 . S
H1031 C1041 0.930 . S
C1032 H1026 0.930 . S
C1032 C1033 1.355 . S
C1032 C1034 1.415 1_565 S
C1033 C1032 1.355 . S
C1033 C1035 1.419 . S
C1034 C1032 1.415 1_545 S
C1034 C1039 1.425 . S
C1034 C1041 1.409 . S
C1035 H1027 0.930 . S
C1035 C1033 1.419 . S
C1035 C1036 1.362 1_565 S
C1036 H1028 0.930 . S
C1036 C1035 1.362 1_545 S
C1036 C1039 1.409 . S
C1037 H1029 0.930 . S
C1037 C1038 1.355 . S
C1037 C1039 1.415 . S
C1038 C1037 1.355 . S
C1038 C1040 1.419 . S
C1039 C1034 1.425 . S
C1039 C1036 1.409 . S
C1039 C1037 1.415 . S
C1040 H1030 0.930 . S
C1040 C1038 1.419 . S
C1040 C1041 1.362 . S
C1041 H1031 0.930 . S
C1041 C1034 1.409 . S
C1041 C1040 1.362 . S
H1042 C1048 0.930 . S
H1043 C1051 0.930 . S
H1044 C1052 0.930 . S
H1045 C1053 0.930 . S
H1046 C1056 0.930 . S
H1047 C1057 0.930 . S
C1048 H1042 0.930 . S
C1048 C1049 1.355 . S
C1048 C1050 1.415 1_455 S
C1049 C1048 1.355 . S
C1049 C1051 1.419 . S
C1050 C1048 1.415 1_655 S
C1050 C1055 1.425 . S
C1050 C1057 1.409 . S
C1051 H1043 0.930 . S
C1051 C1049 1.419 . S
C1051 C1052 1.362 1_455 S
C1052 H1044 0.930 . S
C1052 C1051 1.362 1_655 S
C1052 C1055 1.409 . S
C1053 H1045 0.930 . S
C1053 C1054 1.355 . S
C1053 C1055 1.415 . S
C1054 C1053 1.355 . S
C1054 C1056 1.419 . S
C1055 C1050 1.425 . S
C1055 C1052 1.409 . S
C1055 C1053 1.415 . S
C1056 H1046 0.930 . S
C1056 C1054 1.419 . S
C1056 C1057 1.362 . S
C1057 H1047 0.930 . S
C1057 C1050 1.409 . S
C1057 C1056 1.362 . S
H1058 C1064 0.930 . S
H1059 C1067 0.930 . S
H1060 C1068 0.930 . S
H1061 C1069 0.930 . S
H1062 C1072 0.930 . S
H1063 C1073 0.930 . S
C1064 H1058 0.930 . S
C1064 C1065 1.355 . S
C1064 C1066 1.415 . S
C1065 C1064 1.355 . S
C1065 C1067 1.419 . S
C1066 C1064 1.415 . S
C1066 C1071 1.425 . S
C1066 C1073 1.409 . S
C1067 H1059 0.930 . S
C1067 C1065 1.419 . S
C1067 C1068 1.362 . S
C1068 H1060 0.930 . S
C1068 C1067 1.362 . S
C1068 C1071 1.409 . S
C1069 H1061 0.930 . S
C1069 C1070 1.355 . S
C1069 C1071 1.415 . S
C1070 C1069 1.355 . S
C1070 C1072 1.419 . S
C1071 C1066 1.425 . S
C1071 C1068 1.409 . S
C1071 C1069 1.415 . S
C1072 H1062 0.930 . S
C1072 C1070 1.419 . S
C1072 C1073 1.362 . S
C1073 H1063 0.930 . S
C1073 C1066 1.409 . S
C1073 C1072 1.362 . S
H1074 C1080 0.930 . S
H1075 C1083 0.930 . S
H1076 C1084 0.930 . S
H1077 C1085 0.930 . S
H1078 C1088 0.930 . S
H1079 C1089 0.930 . S
C1080 H1074 0.930 . S
C1080 C1081 1.355 . S
C1080 C1082 1.415 . S
C1081 C1080 1.355 . S
C1081 C1083 1.419 . S
C1082 C1080 1.415 . S
C1082 C1087 1.425 . S
C1082 C1089 1.409 . S
C1083 H1075 0.930 . S
C1083 C1081 1.419 . S
C1083 C1084 1.362 . S
C1084 H1076 0.930 . S
C1084 C1083 1.362 . S
C1084 C1087 1.409 . S
C1085 H1077 0.930 . S
C1085 C1086 1.355 . S
C1085 C1087 1.415 1_655 S
C1086 C1085 1.355 . S
C1086 C1088 1.419 . S
C1087 C1082 1.425 . S
C1087 C1084 1.409 . S
C1087 C1085 1.415 1_455 S
C1088 H1078 0.930 . S
C1088 C1086 1.419 . S
C1088 C1089 1.362 1_655 S
C1089 H1079 0.930 . S
C1089 C1082 1.409 . S
C1089 C1088 1.362 1_455 S
H1090 C1096 0.930 . S
H1091 C1099 0.930 . S
H1092 C1100 0.930 . S
H1093 C1101 0.930 . S
H1094 C1104 0.930 . S
H1095 C1105 0.930 . S
C1096 H1090 0.930 . S
C1096 C1097 1.355 . S
C1096 C1098 1.415 . S
C1097 C1096 1.355 . S
C1097 C1099 1.419 . S
C1098 C1096 1.415 . S
C1098 C1103 1.425 . S
C1098 C1105 1.409 . S
C1099 H1091 0.930 . S
C1099 C1097 1.419 . S
C1099 C1100 1.362 . S
C1100 H1092 0.930 . S
C1100 C1099 1.362 . S
C1100 C1103 1.409 . S
C1101 H1093 0.930 . S
C1101 C1102 1.355 . S
C1101 C1103 1.415 . S
C1102 C1101 1.355 . S
C1102 C1104 1.419 . S
C1103 C1098 1.425 . S
C1103 C1100 1.409 . S
C1103 C1101 1.415 . S
C1104 H1094 0.930 . S
C1104 C1102 1.419 . S
C1104 C1105 1.362 . S
C1105 H1095 0.930 . S
C1105 C1098 1.409 . S
C1105 C1104 1.362 . S
H1106 C1112 0.930 . S
H1107 C1115 0.930 . S
H1108 C1116 0.931 1_545 S
H1109 C1117 0.930 . S
H1110 C1120 0.930 . S
H1111 C1121 0.933 . S
C1112 H1106 0.930 . S
C1112 C1113 1.355 . S
C1112 C1114 1.415 . S
C1113 C1112 1.355 . S
C1113 C1115 1.419 . S
C1114 C1112 1.415 . S
C1114 C1119 1.425 1_565 S
C1114 C1121 1.419 . S
C1115 H1107 0.930 . S
C1115 C1113 1.419 . S
C1115 C1116 1.362 . S
C1116 H1108 0.931 1_565 S
C1116 C1115 1.362 . S
C1116 C1119 1.409 1_565 S
C1117 H1109 0.930 . S
C1117 C1118 1.355 . S
C1117 C1119 1.415 . S
C1118 C1117 1.355 . S
C1118 C1120 1.419 . S
C1119 C1114 1.425 1_545 S
C1119 C1116 1.409 1_545 S
C1119 C1117 1.415 . S
C1120 H1110 0.930 . S
C1120 C1118 1.419 . S
C1120 C1121 1.350 1_545 S
C1121 H1111 0.933 . S
C1121 C1114 1.419 . S
C1121 C1120 1.350 1_565 S
H1122 C1128 0.930 . S
H1123 C1131 0.930 . S
H1124 C1132 0.930 . S
H1125 C1133 0.930 . S
H1126 C1136 0.930 . S
H1127 C1137 0.930 . S
C1128 H1122 0.930 . S
C1128 C1129 1.355 . S
C1128 C1130 1.415 . S
C1129 C1128 1.355 . S
C1129 C1131 1.419 . S
C1130 C1128 1.415 . S
C1130 C1135 1.425 . S
C1130 C1137 1.409 . S
C1131 H1123 0.930 . S
C1131 C1129 1.419 . S
C1131 C1132 1.362 . S
C1132 H1124 0.930 . S
C1132 C1131 1.362 . S
C1132 C1135 1.409 . S
C1133 H1125 0.930 . S
C1133 C1134 1.355 . S
C1133 C1135 1.415 . S
C1134 C1133 1.355 . S
C1134 C1136 1.419 . S
C1135 C1130 1.425 . S
C1135 C1132 1.409 . S
C1135 C1133 1.415 . S
C1136 H1126 0.930 . S
C1136 C1134 1.419 . S
C1136 C1137 1.362 . S
C1137 H1127 0.930 . S
C1137 C1130 1.409 . S
C1137 C1136 1.362 . S
H1138 C1144 0.930 . S
H1139 C1147 0.930 . S
H1140 C1148 0.930 . S
H1141 C1149 0.930 . S
H1142 C1152 0.930 . S
H1143 C1153 0.930 . S
C1144 H1138 0.930 . S
C1144 C1145 1.355 . S
C1144 C1146 1.415 . S
C1145 C1144 1.355 . S
C1145 C1147 1.419 . S
C1146 C1144 1.415 . S
C1146 C1151 1.425 . S
C1146 C1153 1.409 . S
C1147 H1139 0.930 . S
C1147 C1145 1.419 . S
C1147 C1148 1.362 . S
C1148 H1140 0.930 . S
C1148 C1147 1.362 . S
C1148 C1151 1.409 . S
C1149 H1141 0.930 . S
C1149 C1150 1.355 . S
C1149 C1151 1.415 . S
C1150 C1149 1.355 . S
C1150 C1152 1.419 . S
C1151 C1146 1.425 . S
C1151 C1148 1.409 . S
C1151 C1149 1.415 . S
C1152 H1142 0.930 . S
C1152 C1150 1.419 . S
C1152 C1153 1.362 . S
C1153 H1143 0.930 . S
C1153 C1146 1.409 . S
C1153 C1152 1.362 . S
H1154 C1160 0.930 . S
H1155 C1163 0.930 . S
H1156 C1164 0.930 . S
H1157 C1165 0.930 . S
H1158 C1168 0.930 . S
H1159 C1169 0.930 . S
C1160 H1154 0.930 . S
C1160 C1161 1.355 . S
C1160 C1162 1.415 . S
C1161 C1160 1.355 . S
C1161 C1163 1.419 . S
C1162 C1160 1.415 . S
C1162 C1167 1.425 . S
C1162 C1169 1.409 . S
C1163 H1155 0.930 . S
C1163 C1161 1.419 . S
C1163 C1164 1.362 . S
C1164 H1156 0.930 . S
C1164 C1163 1.362 . S
C1164 C1167 1.409 . S
C1165 H1157 0.930 . S
C1165 C1166 1.355 . S
C1165 C1167 1.415 . S
C1166 C1165 1.355 . S
C1166 C1168 1.419 . S
C1167 C1162 1.425 . S
C1167 C1164 1.409 . S
C1167 C1165 1.415 . S
C1168 H1158 0.930 . S
C1168 C1166 1.419 . S
C1168 C1169 1.362 . S
C1169 H1159 0.930 . S
C1169 C1162 1.409 . S
C1169 C1168 1.362 . S
H1170 C1176 0.930 . S
H1171 C1179 0.930 . S
H1172 C1180 0.930 . S
H1173 C1181 0.930 . S
H1174 C1184 0.930 . S
H1175 C1185 0.930 . S
C1176 H1170 0.930 . S
C1176 C1177 1.355 . S
C1176 C1178 1.415 . S
C1177 C1176 1.355 . S
C1177 C1179 1.419 . S
C1178 C1176 1.415 . S
C1178 C1183 1.425 . S
C1178 C1185 1.409 . S
C1179 H1171 0.930 . S
C1179 C1177 1.419 . S
C1179 C1180 1.362 . S
C1180 H1172 0.930 . S
C1180 C1179 1.362 . S
C1180 C1183 1.409 . S
C1181 H1173 0.930 . S
C1181 C1182 1.355 . S
C1181 C1183 1.415 . S
C1182 C1181 1.355 . S
C1182 C1184 1.419 . S
C1183 C1178 1.425 . S
C1183 C1180 1.409 . S
C1183 C1181 1.415 . S
C1184 H1174 0.930 . S
C1184 C1182 1.419 . S
C1184 C1185 1.362 . S
C1185 H1175 0.930 . S
C1185 C1178 1.409 . S
C1185 C1184 1.362 . S
H1186 C1192 0.930 . S
H1187 C1195 0.930 . S
H1188 C1196 0.930 1_655 S
H1189 C1197 0.930 . S
H1190 C1200 0.930 . S
H1191 C1201 0.930 . S
C1192 H1186 0.930 . S
C1192 C1193 1.355 . S
C1192 C1194 1.415 . S
C1193 C1192 1.355 . S
C1193 C1195 1.419 . S
C1194 C1192 1.415 . S
C1194 C1199 1.425 . S
C1194 C1201 1.409 . S
C1195 H1187 0.930 . S
C1195 C1193 1.419 . S
C1195 C1196 1.362 . S
C1196 H1188 0.930 1_455 S
C1196 C1195 1.362 . S
C1196 C1199 1.409 . S
C1197 H1189 0.930 . S
C1197 C1198 1.355 . S
C1197 C1199 1.415 . S
C1198 C1197 1.355 . S
C1198 C1200 1.419 . S
C1199 C1194 1.425 . S
C1199 C1196 1.409 . S
C1199 C1197 1.415 . S
C1200 H1190 0.930 . S
C1200 C1198 1.419 . S
C1200 C1201 1.362 . S
C1201 H1191 0.930 . S
C1201 C1194 1.409 . S
C1201 C1200 1.362 . S
H1202 C1208 0.930 . S
H1203 C1211 0.930 . S
H1204 C1212 0.930 . S
H1205 C1213 0.930 . S
H1206 C1216 0.930 . S
H1207 C1217 0.930 . S
C1208 H1202 0.930 . S
C1208 C1209 1.355 . S
C1208 C1210 1.415 . S
C1209 C1208 1.355 . S
C1209 C1211 1.419 . S
C1210 C1208 1.415 . S
C1210 C1215 1.425 . S
C1210 C1217 1.409 . S
C1211 H1203 0.930 . S
C1211 C1209 1.419 . S
C1211 C1212 1.362 . S
C1212 H1204 0.930 . S
C1212 C1211 1.362 . S
C1212 C1215 1.409 . S
C1213 H1205 0.930 . S
C1213 C1214 1.355 . S
C1213 C1215 1.415 . S
C1214 C1213 1.355 . S
C1214 C1216 1.419 . S
C1215 C1210 1.425 . S
C1215 C1212 1.409 . S
C1215 C1213 1.415 . S
C1216 H1206 0.930 . S
C1216 C1214 1.419 . S
C1216 C1217 1.362 . S
C1217 H1207 0.930 . S
C1217 C1210 1.409 . S
C1217 C1216 1.362 . S
H1218 C1224 0.930 . S
H1219 C1227 0.930 . S
H1220 C1228 0.930 . S
H1221 C1229 0.930 1_455 S
H1222 C1232 0.930 . S
H1223 C1233 0.930 . S
C1224 H1218 0.930 . S
C1224 C1225 1.355 . S
C1224 C1226 1.415 . S
C1225 C1224 1.355 . S
C1225 C1227 1.419 1_655 S
C1226 C1224 1.415 . S
C1226 C1231 1.425 . S
C1226 C1233 1.409 . S
C1227 H1219 0.930 . S
C1227 C1225 1.419 1_455 S
C1227 C1228 1.362 . S
C1228 H1220 0.930 . S
C1228 C1227 1.362 . S
C1228 C1231 1.409 1_455 S
C1229 H1221 0.930 1_655 S
C1229 C1230 1.355 . S
C1229 C1231 1.415 . S
C1230 C1229 1.355 . S
C1230 C1232 1.419 . S
C1231 C1226 1.425 . S
C1231 C1228 1.409 1_655 S
C1231 C1229 1.415 . S
C1232 H1222 0.930 . S
C1232 C1230 1.419 . S
C1232 C1233 1.362 . S
C1233 H1223 0.930 . S
C1233 C1226 1.409 . S
C1233 C1232 1.362 . S
H1234 C1240 0.930 . S
H1235 C1243 0.930 . S
H1236 C1244 0.930 . S
H1237 C1245 0.930 . S
H1238 C1248 0.930 . S
H1239 C1249 0.930 . S
C1240 H1234 0.930 . S
C1240 C1241 1.355 . S
C1240 C1242 1.415 . S
C1241 C1240 1.355 . S
C1241 C1243 1.419 . S
C1242 C1240 1.415 . S
C1242 C1247 1.425 . S
C1242 C1249 1.409 . S
C1243 H1235 0.930 . S
C1243 C1241 1.419 . S
C1243 C1244 1.362 . S
C1244 H1236 0.930 . S
C1244 C1243 1.362 . S
C1244 C1247 1.409 . S
C1245 H1237 0.930 . S
C1245 C1246 1.355 . S
C1245 C1247 1.415 . S
C1246 C1245 1.355 . S
C1246 C1248 1.419 . S
C1247 C1242 1.425 . S
C1247 C1244 1.409 . S
C1247 C1245 1.415 . S
C1248 H1238 0.930 . S
C1248 C1246 1.419 . S
C1248 C1249 1.362 . S
C1249 H1239 0.930 . S
C1249 C1242 1.409 . S
C1249 C1248 1.362 . S
H1250 C1256 0.930 . S
H1251 C1259 0.930 . S
H1252 C1260 0.930 . S
H1253 C1261 0.930 . S
H1254 C1264 0.930 . S
H1255 C1265 0.930 . S
C1256 H1250 0.930 . S
C1256 C1257 1.355 . S
C1256 C1258 1.415 . S
C1257 C1256 1.355 . S
C1257 C1259 1.419 . S
C1258 C1256 1.415 . S
C1258 C1263 1.425 . S
C1258 C1265 1.409 . S
C1259 H1251 0.930 . S
C1259 C1257 1.419 . S
C1259 C1260 1.362 . S
C1260 H1252 0.930 . S
C1260 C1259 1.362 . S
C1260 C1263 1.409 . S
C1261 H1253 0.930 . S
C1261 C1262 1.355 . S
C1261 C1263 1.415 . S
C1262 C1261 1.355 . S
C1262 C1264 1.419 . S
C1263 C1258 1.425 . S
C1263 C1260 1.409 . S
C1263 C1261 1.415 . S
C1264 H1254 0.930 . S
C1264 C1262 1.419 . S
C1264 C1265 1.362 . S
C1265 H1255 0.930 . S
C1265 C1258 1.409 . S
C1265 C1264 1.362 . S
H1266 C1272 0.930 . S
H1267 C1275 0.930 . S
H1268 C1276 0.930 . S
H1269 C1277 0.930 . S
H1270 C1280 0.930 . S
H1271 C1281 0.930 . S
C1272 H1266 0.930 . S
C1272 C1273 1.355 . S
C1272 C1274 1.415 . S
C1273 C1272 1.355 . S
C1273 C1275 1.419 . S
C1274 C1272 1.415 . S
C1274 C1279 1.425 . S
C1274 C1281 1.409 . S
C1275 H1267 0.930 . S
C1275 C1273 1.419 . S
C1275 C1276 1.362 . S
C1276 H1268 0.930 . S
C1276 C1275 1.362 . S
C1276 C1279 1.409 . S
C1277 H1269 0.930 . S
C1277 C1278 1.355 . S
C1277 C1279 1.415 . S
C1278 C1277 1.355 . S
C1278 C1280 1.419 . S
C1279 C1274 1.425 . S
C1279 C1276 1.409 . S
C1279 C1277 1.415 . S
C1280 H1270 0.930 . S
C1280 C1278 1.419 . S
C1280 C1281 1.362 . S
C1281 H1271 0.930 . S
C1281 C1274 1.409 . S
C1281 C1280 1.362 . S
H1282 C1288 0.930 . S
H1283 C1291 0.930 . S
H1284 C1292 0.930 . S
H1285 C1293 0.930 . S
H1286 C1296 0.930 . S
H1287 C1297 0.930 . S
C1288 H1282 0.930 . S
C1288 C1289 1.355 . S
C1288 C1290 1.415 . S
C1289 C1288 1.355 . S
C1289 C1291 1.419 . S
C1290 C1288 1.415 . S
C1290 C1295 1.425 . S
C1290 C1297 1.409 . S
C1291 H1283 0.930 . S
C1291 C1289 1.419 . S
C1291 C1292 1.362 . S
C1292 H1284 0.930 . S
C1292 C1291 1.362 . S
C1292 C1295 1.409 . S
C1293 H1285 0.930 . S
C1293 C1294 1.355 . S
C1293 C1295 1.415 . S
C1294 C1293 1.355 . S
C1294 C1296 1.419 . S
C1295 C1290 1.425 . S
C1295 C1292 1.409 . S
C1295 C1293 1.415 . S
C1296 H1286 0.930 . S
C1296 C1294 1.419 . S
C1296 C1297 1.362 . S
C1297 H1287 0.930 . S
C1297 C1290 1.409 . S
C1297 C1296 1.362 . S
H1298 C1304 0.930 . S
H1299 C1307 0.930 . S
H1300 C1308 0.930 . S
H1301 C1309 0.930 . S
H1302 C1312 0.930 . S
H1303 C1313 0.930 . S
C1304 H1298 0.930 . S
C1304 C1305 1.355 . S
C1304 C1306 1.415 . S
C1305 C1304 1.355 . S
C1305 C1307 1.419 . S
C1306 C1304 1.415 . S
C1306 C1311 1.425 . S
C1306 C1313 1.409 . S
C1307 H1299 0.930 . S
C1307 C1305 1.419 . S
C1307 C1308 1.362 . S
C1308 H1300 0.930 . S
C1308 C1307 1.362 . S
C1308 C1311 1.409 . S
C1309 H1301 0.930 . S
C1309 C1310 1.355 . S
C1309 C1311 1.415 . S
C1310 C1309 1.355 . S
C1310 C1312 1.419 . S
C1311 C1306 1.425 . S
C1311 C1308 1.409 . S
C1311 C1309 1.415 . S
C1312 H1302 0.930 . S
C1312 C1310 1.419 . S
C1312 C1313 1.362 . S
C1313 H1303 0.930 . S
C1313 C1306 1.409 . S
C1313 C1312 1.362 . S
H1314 C1320 0.930 . S
H1315 C1323 0.930 . S
H1316 C1324 0.930 . S
H1317 C1325 0.930 . S
H1318 C1328 0.930 . S
H1319 C1329 0.930 . S
C1320 H1314 0.930 . S
C1320 C1321 1.355 . S
C1320 C1322 1.415 . S
C1321 C1320 1.355 . S
C1321 C1323 1.419 . S
C1322 C1320 1.415 . S
C1322 C1327 1.425 . S
C1322 C1329 1.409 . S
C1323 H1315 0.930 . S
C1323 C1321 1.419 . S
C1323 C1324 1.362 . S
C1324 H1316 0.930 . S
C1324 C1323 1.362 . S
C1324 C1327 1.409 . S
C1325 H1317 0.930 . S
C1325 C1326 1.355 . S
C1325 C1327 1.415 . S
C1326 C1325 1.355 . S
C1326 C1328 1.419 . S
C1327 C1322 1.425 . S
C1327 C1324 1.409 . S
C1327 C1325 1.415 . S
C1328 H1318 0.930 . S
C1328 C1326 1.419 . S
C1328 C1329 1.362 . S
C1329 H1319 0.930 . S
C1329 C1322 1.409 . S
C1329 C1328 1.362 . S
H1330 C1336 0.930 . S
H1331 C1339 0.930 . S
H1332 C1340 0.930 . S
H1333 C1341 0.930 . S
H1334 C1344 0.930 . S
H1335 C1345 0.930 . S
C1336 H1330 0.930 . S
C1336 C1337 1.355 . S
C1336 C1338 1.415 . S
C1337 C1336 1.355 . S
C1337 C1339 1.419 . S
C1338 C1336 1.415 . S
C1338 C1343 1.425 . S
C1338 C1345 1.409 . S
C1339 H1331 0.930 . S
C1339 C1337 1.419 . S
C1339 C1340 1.362 . S
C1340 H1332 0.930 . S
C1340 C1339 1.362 . S
C1340 C1343 1.409 . S
C1341 H1333 0.930 . S
C1341 C1342 1.355 . S
C1341 C1343 1.415 . S
C1342 C1341 1.355 . S
C1342 C1344 1.419 . S
C1343 C1338 1.425 . S
C1343 C1340 1.409 . S
C1343 C1341 1.415 . S
C1344 H1334 0.930 . S
C1344 C1342 1.419 . S
C1344 C1345 1.362 . S
C1345 H1335 0.930 . S
C1345 C1338 1.409 . S
C1345 C1344 1.362 . S
H1346 C1352 0.930 . S
H1347 C1355 0.930 . S
H1348 C1356 0.930 . S
H1349 C1357 0.930 . S
H1350 C1360 0.930 . S
H1351 C1361 0.930 . S
C1352 H1346 0.930 . S
C1352 C1353 1.355 . S
C1352 C1354 1.415 . S
C1353 C1352 1.355 . S
C1353 C1355 1.419 . S
C1354 C1352 1.415 . S
C1354 C1359 1.425 . S
C1354 C1361 1.409 . S
C1355 H1347 0.930 . S
C1355 C1353 1.419 . S
C1355 C1356 1.362 . S
C1356 H1348 0.930 . S
C1356 C1355 1.362 . S
C1356 C1359 1.409 . S
C1357 H1349 0.930 . S
C1357 C1358 1.355 . S
C1357 C1359 1.415 . S
C1358 C1357 1.355 . S
C1358 C1360 1.419 . S
C1359 C1354 1.425 . S
C1359 C1356 1.409 . S
C1359 C1357 1.415 . S
C1360 H1350 0.930 . S
C1360 C1358 1.419 . S
C1360 C1361 1.362 . S
C1361 H1351 0.930 . S
C1361 C1354 1.409 . S
C1361 C1360 1.362 . S
H1362 C1368 0.930 . S
H1363 C1371 0.930 . S
H1364 C1372 0.930 . S
H1365 C1373 0.930 . S
H1366 C1376 0.930 . S
H1367 C1377 0.930 . S
C1368 H1362 0.930 . S
C1368 C1369 1.355 . S
C1368 C1370 1.415 . S
C1369 C1368 1.355 . S
C1369 C1371 1.419 . S
C1370 C1368 1.415 . S
C1370 C1375 1.425 . S
C1370 C1377 1.409 . S
C1371 H1363 0.930 . S
C1371 C1369 1.419 . S
C1371 C1372 1.362 . S
C1372 H1364 0.930 . S
C1372 C1371 1.362 . S
C1372 C1375 1.409 . S
C1373 H1365 0.930 . S
C1373 C1374 1.355 . S
C1373 C1375 1.415 . S
C1374 C1373 1.355 . S
C1374 C1376 1.419 . S
C1375 C1370 1.425 . S
C1375 C1372 1.409 . S
C1375 C1373 1.415 . S
C1376 H1366 0.930 . S
C1376 C1374 1.419 . S
C1376 C1377 1.362 . S
C1377 H1367 0.930 . S
C1377 C1370 1.409 . S
C1377 C1376 1.362 . S
H1378 C1384 0.930 . S
H1379 C1387 0.930 . S
H1380 C1388 0.930 . S
H1381 C1389 0.930 . S
H1382 C1392 0.930 . S
H1383 C1393 0.930 . S
C1384 H1378 0.930 . S
C1384 C1385 1.355 . S
C1384 C1386 1.415 . S
C1385 C1384 1.355 . S
C1385 C1387 1.419 . S
C1386 C1384 1.415 . S
C1386 C1391 1.425 . S
C1386 C1393 1.409 . S
C1387 H1379 0.930 . S
C1387 C1385 1.419 . S
C1387 C1388 1.362 . S
C1388 H1380 0.930 . S
C1388 C1387 1.362 . S
C1388 C1391 1.409 . S
C1389 H1381 0.930 . S
C1389 C1390 1.355 . S
C1389 C1391 1.415 . S
C1390 C1389 1.355 . S
C1390 C1392 1.419 . S
C1391 C1386 1.425 . S
C1391 C1388 1.409 . S
C1391 C1389 1.415 . S
C1392 H1382 0.930 . S
C1392 C1390 1.419 . S
C1392 C1393 1.362 . S
C1393 H1383 0.930 . S
C1393 C1386 1.409 . S
C1393 C1392 1.362 . S
H1394 C1400 0.930 . S
H1395 C1403 0.930 . S
H1396 C1404 0.930 . S
H1397 C1405 0.930 . S
H1398 C1408 0.930 . S
H1399 C1409 0.930 . S
C1400 H1394 0.930 . S
C1400 C1401 1.355 . S
C1400 C1402 1.415 . S
C1401 C1400 1.355 . S
C1401 C1403 1.419 . S
C1402 C1400 1.415 . S
C1402 C1407 1.425 . S
C1402 C1409 1.409 . S
C1403 H1395 0.930 . S
C1403 C1401 1.419 . S
C1403 C1404 1.362 . S
C1404 H1396 0.930 . S
C1404 C1403 1.362 . S
C1404 C1407 1.409 . S
C1405 H1397 0.930 . S
C1405 C1406 1.355 . S
C1405 C1407 1.415 . S
C1406 C1405 1.355 . S
C1406 C1408 1.419 . S
C1407 C1402 1.425 . S
C1407 C1404 1.409 . S
C1407 C1405 1.415 . S
C1408 H1398 0.930 . S
C1408 C1406 1.419 . S
C1408 C1409 1.362 . S
C1409 H1399 0.930 . S
C1409 C1402 1.409 . S
C1409 C1408 1.362 . S
H1410 C1416 0.930 . S
H1411 C1419 0.930 . S
H1412 C1420 0.930 . S
H1413 C1421 0.930 . S
H1414 C1424 0.930 . S
H1415 C1425 0.930 . S
C1416 H1410 0.930 . S
C1416 C1417 1.355 . S
C1416 C1418 1.415 . S
C1417 C1416 1.355 . S
C1417 C1419 1.419 . S
C1418 C1416 1.415 . S
C1418 C1423 1.425 . S
C1418 C1425 1.409 . S
C1419 H1411 0.930 . S
C1419 C1417 1.419 . S
C1419 C1420 1.362 . S
C1420 H1412 0.930 . S
C1420 C1419 1.362 . S
C1420 C1423 1.409 . S
C1421 H1413 0.930 . S
C1421 C1422 1.355 . S
C1421 C1423 1.415 . S
C1422 C1421 1.355 . S
C1422 C1424 1.419 . S
C1423 C1418 1.425 . S
C1423 C1420 1.409 . S
C1423 C1421 1.415 . S
C1424 H1414 0.930 . S
C1424 C1422 1.419 . S
C1424 C1425 1.362 . S
C1425 H1415 0.930 . S
C1425 C1418 1.409 . S
C1425 C1424 1.362 . S
H1426 C1432 0.930 . S
H1427 C1435 0.930 . S
H1428 C1436 0.930 . S
H1429 C1437 0.930 . S
H1430 C1440 0.930 . S
H1431 C1441 0.930 . S
C1432 H1426 0.930 . S
C1432 C1433 1.355 . S
C1432 C1434 1.415 . S
C1433 C1432 1.355 . S
C1433 C1435 1.419 . S
C1434 C1432 1.415 . S
C1434 C1439 1.425 . S
C1434 C1441 1.409 . S
C1435 H1427 0.930 . S
C1435 C1433 1.419 . S
C1435 C1436 1.362 . S
C1436 H1428 0.930 . S
C1436 C1435 1.362 . S
C1436 C1439 1.409 . S
C1437 H1429 0.930 . S
C1437 C1438 1.355 . S
C1437 C1439 1.415 . S
C1438 C1437 1.355 . S
C1438 C1440 1.419 . S
C1439 C1434 1.425 . S
C1439 C1436 1.409 . S
C1439 C1437 1.415 . S
C1440 H1430 0.930 . S
C1440 C1438 1.419 . S
C1440 C1441 1.362 . S
C1441 H1431 0.930 . S
C1441 C1434 1.409 . S
C1441 C1440 1.362 . S
H1442 C1448 0.930 . S
H1443 C1451 0.930 . S
H1444 C1452 0.930 . S
H1445 C1453 0.930 . S
H1446 C1456 0.930 . S
H1447 C1457 0.930 . S
C1448 H1442 0.930 . S
C1448 C1449 1.355 . S
C1448 C1450 1.415 . S
C1449 C1448 1.355 . S
C1449 C1451 1.419 . S
C1450 C1448 1.415 . S
C1450 C1455 1.425 . S
C1450 C1457 1.409 . S
C1451 H1443 0.930 . S
C1451 C1449 1.419 . S
C1451 C1452 1.362 . S
C1452 H1444 0.930 . S
C1452 C1451 1.362 . S
C1452 C1455 1.409 . S
C1453 H1445 0.930 . S
C1453 C1454 1.355 . S
C1453 C1455 1.415 . S
C1454 C1453 1.355 . S
C1454 C1456 1.419 . S
C1455 C1450 1.425 . S
C1455 C1452 1.409 . S
C1455 C1453 1.415 . S
C1456 H1446 0.930 . S
C1456 C1454 1.419 . S
C1456 C1457 1.362 . S
C1457 H1447 0.930 . S
C1457 C1450 1.409 . S
C1457 C1456 1.362 . S
C601 N170 2.034 . S
C606 C243 2.052 . S
C617 N184 1.184 . S
C622 C283 1.194 . S
C633 N158 1.658 . S
C638 C322 1.608 . S
C649 N145 1.557 . S
C654 C282 1.499 1_556 S
C670 C323 0.916 . S
C665 N119 0.900 . S
C681 N131 1.779 . S
C686 C242 1.849 1_556 S
C702 C253 1.753 . S
C697 N144 1.726 . S
C718 C293 1.621 . S
C713 N118 1.652 . S
C729 N132 1.577 . S
C734 C332 1.544 . S
C745 N171 1.495 . S
C750 C292 1.480 . S
C761 N183 1.359 . S
C766 C333 1.340 . S
C782 C252 1.435 . S
C777 N157 1.471 . S
C798 C363 2.009 . S
C793 N14 1.994 . S
C809 N28 1.180 . S
C814 C403 1.143 . S
C825 N2 1.649 . S
C830 C442 1.652 . S
C841 N223 1.540 . S
C846 C402 1.492 . S
C857 N197 0.902 . S
C862 C443 0.864 . S
C873 N209 1.778 . S
C878 C362 1.846 . S
C889 N222 1.748 . S
C894 C373 1.740 . S
C905 N196 1.654 . S
C910 C413 1.616 . S
C926 C452 1.557 . S
C921 N210 1.526 . S
C937 N15 1.499 . S
C942 C412 1.452 . S
C958 C453 1.341 . S
C953 N27 1.358 . S
C969 N1 1.489 . S
C974 C372 1.462 . S
C990 C483 2.011 . S
C985 N92 1.993 . S
C1001 N106 1.164 . S
C1006 C523 1.140 . S
C1022 C562 1.635 . S
C1017 N80 1.639 . S
C1038 C522 1.540 . S
C1033 N67 1.542 . S
C1054 C563 0.867 . S
C1049 N41 0.900 . S
C1065 N53 1.832 . S
C1070 C482 1.825 . S
C1081 N66 1.749 . S
C1086 C493 1.736 . S
C1097 N40 1.650 . S
C1102 C533 1.627 . S
C1118 C572 1.542 . S
C1113 N54 1.525 . S
C1129 N93 1.460 . S
C1134 C532 1.487 . S
C1145 N105 1.331 . S
C1150 C573 1.342 . S
C1161 N79 1.463 . S
C1166 C492 1.450 . S
C1177 N200 1.131 . S
C1182 C239 1.120 . S
C1198 C279 1.961 . S
C1193 N213 1.912 . S
C1209 N226 1.563 . S
C1214 C329 1.599 . S
C1225 N83 1.798 . S
C1230 C289 1.783 . S
C1241 N96 1.742 . S
C1246 C319 1.805 . S
C1262 C249 1.229 . S
C1257 N109 1.273 . S
C1273 N44 1.071 . S
C1278 C359 1.108 . S
C1289 N57 1.907 . S
C1294 C399 1.944 . S
C1305 N70 1.600 . S
C1310 C449 1.578 . S
C1321 N161 1.775 . S
C1326 C409 1.764 . S
C1342 C439 1.800 . S
C1337 N174 1.773 . S
C1353 N187 1.247 . S
C1358 C369 1.275 . S
C1369 N122 1.069 . S
C1374 C479 1.108 . S
C1385 N135 1.934 . S
C1390 C519 1.944 . S
C1406 C569 1.595 . S
C1401 N148 1.583 . S
C1417 N5 1.798 . S
C1422 C529 1.762 . S
C1433 N18 1.745 . S
C1438 C559 1.801 . S
C1449 N31 1.266 . S
C1454 C489 1.241 . S
