# Generated by pormake.
# Topology zzz, (3,6)-cn, num edge types: 1
# Building blocks:
#     Node 0, Type 0, BuildingBlock: KAKCAD_clean_linker_0, # of connection points: 3
#     Node 1, Type 0, BuildingBlock: KAKCAD_clean_linker_0, # of connection points: 3
#     Node 2, Type 0, BuildingBlock: KAKCAD_clean_linker_0, # of connection points: 3
#     Node 3, Type 0, BuildingBlock: KAKCAD_clean_linker_0, # of connection points: 3
#     Node 4, Type 0, BuildingBlock: KAKCAD_clean_linker_0, # of connection points: 3
#     Node 5, Type 0, BuildingBlock: KAKCAD_clean_linker_0, # of connection points: 3
#     Node 6, Type 0, BuildingBlock: KAKCAD_clean_linker_0, # of connection points: 3
#     Node 7, Type 0, BuildingBlock: KAKCAD_clean_linker_0, # of connection points: 3
#     Node 8, Type 1, BuildingBlock: BETDAH_clean_sbu_0, # of connection points: 6
#     Node 9, Type 1, BuildingBlock: BETDAH_clean_sbu_0, # of connection points: 6
#     Node 10, Type 1, BuildingBlock: BETDAH_clean_sbu_0, # of connection points: 6
#     Node 11, Type 1, BuildingBlock: BETDAH_clean_sbu_0, # of connection points: 6
#     Edge 12, Type (0, 1), BuildingBlock: AJUNOK_clean_linker_0, # of connection points: 2
#     Edge 13, Type (0, 1), BuildingBlock: AJUNOK_clean_linker_0, # of connection points: 2
#     Edge 14, Type (0, 1), BuildingBlock: AJUNOK_clean_linker_0, # of connection points: 2
#     Edge 15, Type (0, 1), BuildingBlock: AJUNOK_clean_linker_0, # of connection points: 2
#     Edge 16, Type (0, 1), BuildingBlock: AJUNOK_clean_linker_0, # of connection points: 2
#     Edge 17, Type (0, 1), BuildingBlock: AJUNOK_clean_linker_0, # of connection points: 2
#     Edge 18, Type (0, 1), BuildingBlock: AJUNOK_clean_linker_0, # of connection points: 2
#     Edge 19, Type (0, 1), BuildingBlock: AJUNOK_clean_linker_0, # of connection points: 2
#     Edge 20, Type (0, 1), BuildingBlock: AJUNOK_clean_linker_0, # of connection points: 2
#     Edge 21, Type (0, 1), BuildingBlock: AJUNOK_clean_linker_0, # of connection points: 2
#     Edge 22, Type (0, 1), BuildingBlock: AJUNOK_clean_linker_0, # of connection points: 2
#     Edge 23, Type (0, 1), BuildingBlock: AJUNOK_clean_linker_0, # of connection points: 2
#     Edge 24, Type (0, 1), BuildingBlock: AJUNOK_clean_linker_0, # of connection points: 2
#     Edge 25, Type (0, 1), BuildingBlock: AJUNOK_clean_linker_0, # of connection points: 2
#     Edge 26, Type (0, 1), BuildingBlock: AJUNOK_clean_linker_0, # of connection points: 2
#     Edge 27, Type (0, 1), BuildingBlock: AJUNOK_clean_linker_0, # of connection points: 2
#     Edge 28, Type (0, 1), BuildingBlock: AJUNOK_clean_linker_0, # of connection points: 2
#     Edge 29, Type (0, 1), BuildingBlock: AJUNOK_clean_linker_0, # of connection points: 2
#     Edge 30, Type (0, 1), BuildingBlock: AJUNOK_clean_linker_0, # of connection points: 2
#     Edge 31, Type (0, 1), BuildingBlock: AJUNOK_clean_linker_0, # of connection points: 2
#     Edge 32, Type (0, 1), BuildingBlock: AJUNOK_clean_linker_0, # of connection points: 2
#     Edge 33, Type (0, 1), BuildingBlock: AJUNOK_clean_linker_0, # of connection points: 2
#     Edge 34, Type (0, 1), BuildingBlock: AJUNOK_clean_linker_0, # of connection points: 2
#     Edge 35, Type (0, 1), BuildingBlock: AJUNOK_clean_linker_0, # of connection points: 2
# Relax obj value: 0.494
# Max RMSD: 0.267
# Mean RMSD: 0.256
data_MOF--net-zzz--node1-BETDAH_clean_sbu_0--node2-KAKCAD_clean_linker_0--edge1-AJUNOK_clean_linker_0
_symmetry_space_group_name_H-M    P1
_symmetry_Int_Tables_number       1
_symmetry_cell_setting            triclinic
loop_
_symmetry_equiv_pos_as_xyz
'x, y, z'
_cell_length_a     46.238138
_cell_length_b     46.177789
_cell_length_c     14.309602
_cell_angle_alpha  89.625852
_cell_angle_beta   89.653645
_cell_angle_gamma 90.152921
loop_
_atom_site_label
_atom_site_type_symbol
_atom_site_fract_x
_atom_site_fract_y
_atom_site_fract_z
_atom_type_partial_charge
C0 C 0.78479 0.51753 0.11588 0.0
C1 C 0.8072 0.4989 0.14295 0.0
C2 C 0.76523 0.5276 0.18331 0.0
C3 C 0.76859 0.5193 0.27725 0.0
C4 C 0.79093 0.50044 0.30264 0.0
C5 C 0.81031 0.49095 0.23687 0.0
C6 C 0.74881 0.52857 0.35135 0.0
C7 C 0.71925 0.52432 0.3424 0.0
C8 C 0.70098 0.52401 0.42069 0.0
C9 C 0.71438 0.52455 0.51245 0.0
C10 C 0.74534 0.52943 0.52012 0.0
C11 C 0.76062 0.53479 0.43794 0.0
C12 C 0.76575 0.52569 0.60302 0.0
C13 C 0.78026 0.55038 0.63797 0.0
C14 C 0.78108 0.49926 0.61076 0.0
C15 C 0.81011 0.49802 0.64308 0.0
C16 C 0.82544 0.52314 0.67093 0.0
C17 C 0.66907 0.5231 0.39469 0.0
C18 C 0.65727 0.54826 0.35283 0.0
C19 C 0.65576 0.49651 0.37092 0.0
C20 C 0.63346 0.49506 0.30286 0.0
C21 C 0.62368 0.52012 0.25545 0.0
C22 C 0.63527 0.5468 0.2845 0.0
C23 C 0.80924 0.54916 0.67094 0.0
H24 H 0.78252 0.52418 0.0436 0.0
H25 H 0.74788 0.54195 0.1627 0.0
H26 H 0.79357 0.49289 0.37399 0.0
H27 H 0.828 0.47733 0.2599 0.0
H28 H 0.71041 0.52023 0.27359 0.0
H29 H 0.7837 0.53918 0.44151 0.0
H30 H 0.70133 0.52141 0.57474 0.0
H31 H 0.77019 0.57142 0.63079 0.0
H32 H 0.77179 0.47982 0.58121 0.0
H33 H 0.82114 0.47744 0.63894 0.0
H34 H 0.66744 0.56904 0.36506 0.0
H35 H 0.66455 0.47646 0.39809 0.0
H36 H 0.81943 0.56914 0.6925 0.0
H37 H 0.62888 0.56654 0.24906 0.0
H38 H 0.6253 0.47402 0.28263 0.0
C39 C 1.01173 0.78233 0.11596 0.0
C40 C 0.028 0.80709 0.13615 0.0
C41 C 1.00189 0.76463 0.18897 0.0
C42 C 1.00854 0.77164 0.28196 0.0
C43 C 0.02379 0.79728 0.30085 0.0
C44 C 0.03298 0.81496 0.22887 0.0
C45 C 1.00371 0.75099 0.35908 0.0
C46 C 1.0094 0.72172 0.34629 0.0
C47 C 1.01247 0.70275 0.42196 0.0
C48 C 1.01414 0.71537 0.51465 0.0
C49 C 1.00833 0.74604 0.5268 0.0
C50 C 0.99955 0.76167 0.44865 0.0
C51 C 1.01389 0.766 0.60956 0.0
C52 C 0.98987 0.77897 0.6545 0.0
C53 C 0.03969 0.7827 0.60848 0.0
C54 C 0.04048 0.81184 0.64038 0.0
C55 C 1.01546 0.82582 0.67501 0.0
C56 C 1.01309 0.67107 0.39198 0.0
C57 C 0.98762 0.65968 0.35224 0.0
C58 C 0.03916 0.65779 0.36362 0.0
C59 C 0.03986 0.63614 0.29286 0.0
C60 C 1.01441 0.62657 0.24617 0.0
C61 C 0.9882 0.63806 0.28251 0.0
C62 C 0.99064 0.80806 0.6865 0.0
H63 H 1.00724 0.77646 0.04435 0.0
H64 H 0.98986 0.74518 0.17264 0.0
H65 H 0.03009 0.80322 0.37097 0.0
H66 H 0.04473 0.83458 0.24574 0.0
H67 H 1.01215 0.71347 0.276 0.0
H68 H 0.99349 0.78423 0.45665 0.0
H69 H 0.01951 0.70196 0.57435 0.0
H70 H 0.96932 0.76767 0.65554 0.0
H71 H 0.05855 0.77441 0.57237 0.0
H72 H 0.06026 0.82413 0.63075 0.0
H73 H 0.96703 0.66963 0.36875 0.0
H74 H 0.05947 0.66603 0.3899 0.0
H75 H 0.97107 0.81711 0.71597 0.0
H76 H 0.96756 0.63139 0.25499 0.0
H77 H 0.06097 0.62886 0.27144 0.0
C78 C 0.74977 1.00911 0.12472 0.0
C79 C 0.73343 0.03456 0.13051 0.0
C80 C 0.77049 1.00333 0.19242 0.0
C81 C 0.7742 0.02285 0.26569 0.0
C82 C 0.75986 0.04944 0.26616 0.0
C83 C 0.73966 0.05541 0.19807 0.0
C84 C 0.79034 1.01472 0.34787 0.0
C85 C 0.82006 1.01415 0.34343 0.0
C86 C 0.83669 1.01169 0.4239 0.0
C87 C 0.82168 1.01056 0.51379 0.0
C88 C 0.79017 1.0108 0.51706 0.0
C89 C 0.77566 1.01179 0.43209 0.0
C90 C 0.76921 1.01279 0.60006 0.0
C91 C 0.75567 0.98742 0.6358 0.0
C92 C 0.75306 0.03869 0.60915 0.0
C93 C 0.72396 0.03876 0.64136 0.0
C94 C 0.70965 1.01309 0.6698 0.0
C95 C 0.86882 1.01053 0.40017 0.0
C96 C 0.87906 0.98485 0.35814 0.0
C97 C 0.88322 0.03644 0.37283 0.0
C98 C 0.9046 0.0369 0.30069 0.0
C99 C 0.91222 1.01149 0.25158 0.0
C100 C 0.89984 0.98537 0.28494 0.0
C101 C 0.72672 0.98764 0.67111 0.0
H102 H 0.7446 0.9927 0.07368 0.0
H103 H 0.78175 0.98278 0.19211 0.0
H104 H 0.76277 0.06458 0.32301 0.0
H105 H 0.72658 0.07476 0.20457 0.0
H106 H 0.83043 1.0165 0.2754 0.0
H107 H 0.75215 1.01224 0.43129 0.0
H108 H 0.83392 1.0098 0.57797 0.0
H109 H 0.76646 0.96678 0.62818 0.0
H110 H 0.76179 0.05864 0.58023 0.0
H111 H 0.71211 0.05895 0.63957 0.0
H112 H 0.86824 0.96453 0.3736 0.0
H113 H 0.87561 0.05692 0.39987 0.0
H114 H 0.71695 0.96729 0.69243 0.0
H115 H 0.90507 0.9652 0.25064 0.0
H116 H 0.91334 0.0576 0.27825 0.0
C117 C 0.49782 0.72951 0.68394 0.0
C118 C 0.52283 0.71216 0.67184 0.0
C119 C 0.49633 0.75846 0.64942 0.0
C120 C 0.51989 0.77189 0.60233 0.0
C121 C 0.54563 0.75549 0.59805 0.0
C122 C 0.547 0.72641 0.63075 0.0
C123 C 0.51391 0.79323 0.52283 0.0
C124 C 0.51872 0.82433 0.51738 0.0
C125 C 0.51381 0.83977 0.42992 0.0
C126 C 0.5058 0.82366 0.35211 0.0
C127 C 0.5036 0.79393 0.35682 0.0
C128 C 0.50583 0.77919 0.44116 0.0
C129 C 0.5052 0.77739 0.27141 0.0
C130 C 0.48076 0.77371 0.21619 0.0
C131 C 0.53076 0.76237 0.25185 0.0
C132 C 0.53081 0.74106 0.1842 0.0
C133 C 0.5049 0.7339 0.13931 0.0
C134 C 0.51964 0.87126 0.40415 0.0
C135 C 0.49577 0.88955 0.38519 0.0
C136 C 0.54538 0.87752 0.35403 0.0
C137 C 0.54623 0.89852 0.28135 0.0
C138 C 0.52164 0.91491 0.257 0.0
C139 C 0.49678 0.91105 0.31358 0.0
C140 C 0.48057 0.75184 0.14995 0.0
H141 H 0.47865 0.72029 0.71628 0.0
H142 H 0.47568 0.76946 0.65204 0.0
H143 H 0.56396 0.76403 0.55913 0.0
H144 H 0.56663 0.71457 0.61642 0.0
H145 H 0.52639 0.83592 0.57792 0.0
H146 H 0.50364 0.75573 0.44103 0.0
H147 H 0.50379 0.83412 0.28418 0.0
H148 H 0.46117 0.7858 0.2301 0.0
H149 H 0.54997 0.76567 0.29368 0.0
H150 H 0.55015 0.7282 0.17435 0.0
H151 H 0.47512 0.88488 0.41815 0.0
H152 H 0.56392 0.86346 0.36247 0.0
H153 H 0.46044 0.74704 0.11494 0.0
H154 H 0.47721 0.92281 0.29704 0.0
H155 H 0.56569 0.90039 0.23919 0.0
C156 C 0.25594 0.55359 0.36011 0.0
C157 C 0.22985 0.53828 0.36636 0.0
C158 C 0.27857 0.54232 0.30754 0.0
C159 C 0.27481 0.51597 0.26061 0.0
C160 C 0.25064 0.49863 0.28002 0.0
C161 C 0.2281 0.50983 0.33289 0.0
C162 C 0.29082 0.51167 0.17361 0.0
C163 C 0.32056 0.51429 0.17295 0.0
C164 C 0.33611 0.51783 0.08983 0.0
C165 C 0.32025 0.51773 1.00241 0.0
C166 C 0.28907 0.51375 1.00328 0.0
C167 C 0.27546 0.51096 0.09021 0.0
C168 C 0.2677 0.51274 0.92198 0.0
C169 C 0.25435 0.53844 0.8894 0.0
C170 C 0.25184 0.48679 0.90841 0.0
C171 C 0.22333 0.48674 0.87206 0.0
C172 C 0.20934 0.51259 0.84545 0.0
C173 C 0.36816 0.52231 0.10781 0.0
C174 C 0.37675 0.54865 0.1497 0.0
C175 C 0.38497 0.49775 0.13034 0.0
C176 C 0.40676 0.49866 0.19971 0.0
C177 C 0.413 0.5243 0.24942 0.0
C178 C 0.3985 0.54959 0.21916 0.0
C179 C 0.22589 0.53833 0.85131 0.0
H180 H 0.2576 0.57553 0.38594 0.0
H181 H 0.29721 0.55598 0.29331 0.0
H182 H 0.24767 0.47813 0.24482 0.0
H183 H 0.20811 0.49762 0.33869 0.0
H184 H 0.33168 0.515 0.23963 0.0
H185 H 0.25201 0.50975 0.09329 0.0
H186 H 0.33166 0.52062 0.93675 0.0
H187 H 0.26485 0.55908 0.90113 0.0
H188 H 0.26039 0.4666 0.93536 0.0
H189 H 0.21156 0.46646 0.86973 0.0
H190 H 0.36416 0.56803 0.1372 0.0
H191 H 0.37879 0.47685 0.10284 0.0
H192 H 0.21609 0.55879 0.83229 0.0
H193 H 0.40268 0.57003 0.2533 0.0
H194 H 0.41678 0.47845 0.21994 0.0
C195 C 0.99958 0.25994 0.35952 0.0
C196 C 1.01532 0.23425 0.36871 0.0
C197 C 1.01044 0.28233 0.30465 0.0
C198 C 0.0368 0.27887 0.25668 0.0
C199 C 0.0542 0.25483 0.27542 0.0
C200 C 0.04355 0.23261 0.33204 0.0
C201 C 0.04063 0.29519 0.16967 0.0
C202 C 0.03607 0.32475 0.17094 0.0
C203 C 0.02561 0.33952 0.09296 0.0
C204 C 0.02166 0.32334 1.00717 0.0
C205 C 0.02947 0.2929 1.0036 0.0
C206 C 0.03911 0.27995 0.08619 0.0
C207 C 0.02554 0.27108 0.92459 0.0
C208 C 0.99902 0.25624 0.91591 0.0
C209 C 0.05011 0.25644 0.88934 0.0
C210 C 0.04859 0.22776 0.8541 0.0
C211 C 0.02245 0.21145 0.85407 0.0
C212 C 1.01762 0.3706 0.11632 0.0
C213 C 0.99254 0.37534 0.17169 0.0
C214 C 0.04045 0.39065 0.1282 0.0
C215 C 0.03987 0.41165 0.20008 0.0
C216 C 1.01625 0.41391 0.26283 0.0
C217 C 0.99185 0.39655 0.24332 0.0
C218 C 0.99749 0.22729 0.88258 0.0
H219 H 0.97763 0.26161 0.38578 0.0
H220 H 0.99644 0.30058 0.29006 0.0
H221 H 0.07453 0.2519 0.23865 0.0
H222 H 0.05617 0.21302 0.33971 0.0
H223 H 0.03761 0.3358 0.2376 0.0
H224 H 0.04241 0.25667 0.08793 0.0
H225 H 1.01271 0.33391 0.94617 0.0
H226 H 0.97958 0.26592 0.94427 0.0
H227 H 0.07125 0.26633 0.89659 0.0
H228 H 0.0686 0.21812 0.83064 0.0
H229 H 0.97471 0.36014 0.16771 0.0
H230 H 0.06042 0.38772 0.08953 0.0
H231 H 0.97655 0.21721 0.88704 0.0
H232 H 0.97308 0.39751 0.28881 0.0
H233 H 0.05892 0.42489 0.21058 0.0
C234 C 0.27972 1.00259 0.3758 0.0
C235 C 0.30622 1.0172 0.37277 0.0
C236 C 0.25729 1.01208 0.31935 0.0
C237 C 0.2616 0.03603 0.25965 0.0
C238 C 0.28616 0.05349 0.26991 0.0
C239 C 0.30852 0.04405 0.32676 0.0
C240 C 0.24551 0.03687 0.17195 0.0
C241 C 0.21593 0.03267 0.17381 0.0
C242 C 0.20076 0.0245 0.09425 0.0
C243 C 0.21657 0.02191 1.00687 0.0
C244 C 0.24733 0.02798 1.00403 0.0
C245 C 0.26078 0.03517 0.08796 0.0
C246 C 0.26846 0.02672 0.92184 0.0
C247 C 0.28275 1.00052 0.90014 0.0
C248 C 0.28329 0.05254 0.89681 0.0
C249 C 0.31206 0.05231 0.8623 0.0
C250 C 0.32723 0.0262 0.84854 0.0
C251 C 0.16914 1.01875 0.11598 0.0
C252 C 0.16181 0.9929 0.16442 0.0
C253 C 0.15167 0.04301 0.13509 0.0
C254 C 0.13073 0.04266 0.20765 0.0
C255 C 0.1251 1.01756 0.26255 0.0
C256 C 0.14026 0.99228 0.23564 0.0
C257 C 0.31142 1.00027 0.86306 0.0
H258 H 0.27764 0.98194 0.41161 0.0
H259 H 0.2384 0.99832 0.31277 0.0
H260 H 0.28958 0.07223 0.22518 0.0
H261 H 0.32889 0.05572 0.32516 0.0
H262 H 0.20475 0.03408 0.24067 0.0
H263 H 0.28414 0.03773 0.08888 0.0
H264 H 0.20542 1.01552 0.94397 0.0
H265 H 0.27286 0.98011 0.92023 0.0
H266 H 0.27376 0.07324 0.91421 0.0
H267 H 0.32306 0.0728 0.85126 0.0
H268 H 0.17505 0.97382 0.1547 0.0
H269 H 0.157 0.06363 0.10272 0.0
H270 H 0.32204 0.97965 0.85294 0.0
H271 H 0.13671 0.97215 0.27314 0.0
H272 H 0.12099 0.06315 0.2251 0.0
C273 C 0.49107 0.31054 0.84651 0.0
C274 C 0.51749 0.32618 0.83822 0.0
C275 C 0.48994 0.28117 0.8763 0.0
C276 C 0.51501 0.26565 0.902 0.0
C277 C 0.54153 0.27999 0.88499 0.0
C278 C 0.54278 0.30917 0.85262 0.0
C279 C 0.51269 0.24454 0.98406 0.0
C280 C 0.518 0.21359 0.98836 0.0
C281 C 0.51707 0.19861 0.07795 0.0
C282 C 0.51297 0.21509 0.15833 0.0
C283 C 0.51006 0.24475 0.15323 0.0
C284 C 0.50756 0.25882 0.06791 0.0
C285 C 0.52016 0.26186 0.23082 0.0
C286 C 0.50224 0.2684 0.3067 0.0
C287 C 0.5477 0.27431 0.22198 0.0
C288 C 0.55631 0.29534 0.2839 0.0
C289 C 0.5375 0.30384 0.35523 0.0
C290 C 0.52264 0.16699 0.1011 0.0
C291 C 0.49868 0.14936 0.12581 0.0
C292 C 0.5492 0.15992 0.1441 0.0
C293 C 0.55082 0.13904 0.2169 0.0
C294 C 0.52598 0.12407 0.24962 0.0
C295 C 0.50033 0.12827 0.19826 0.0
C296 C 0.51098 0.28964 0.36941 0.0
H297 H 0.4706 0.32124 0.83654 0.0
H298 H 0.46891 0.27163 0.89009 0.0
H299 H 0.56151 0.26951 0.90503 0.0
H300 H 0.56408 0.31811 0.84223 0.0
H301 H 0.5229 0.20177 0.92519 0.0
H302 H 0.50537 0.28227 0.06795 0.0
H303 H 0.51483 0.20506 0.22698 0.0
H304 H 0.48102 0.25861 0.31362 0.0
H305 H 0.56167 0.26918 0.16322 0.0
H306 H 0.57663 0.30658 0.2718 0.0
H307 H 0.47765 0.15429 0.09699 0.0
H308 H 0.56812 0.17315 0.12966 0.0
H309 H 0.49629 0.29648 0.42416 0.0
H310 H 0.48071 0.11717 0.21966 0.0
H311 H 0.57132 0.13604 0.25181 0.0
Ho312 Ho 0.04352 1.01693 0.80604 0.0
Ho313 Ho 0.99313 0.0207 0.7076 0.0
C314 C 1.01383 0.95545 0.73288 0.0
C315 C 0.07972 0.99993 0.92946 0.0
C316 C 0.07828 0.971 0.97238 0.0
C317 C 0.0527 0.9622 0.01839 0.0
C318 C 0.04618 0.93297 0.02804 0.0
C319 C 0.065 0.91205 0.99173 0.0
C320 C 0.09177 0.92069 0.95409 0.0
C321 C 0.09844 0.95002 0.94492 0.0
C322 C 0.05673 0.02649 0.62009 0.0
C323 C 0.02377 0.08191 0.78316 0.0
C324 C 0.95649 0.03981 0.58718 0.0
C325 C 0.95883 0.06899 0.54643 0.0
C326 C 0.9864 0.08158 0.54217 0.0
C327 C 0.99009 0.11004 0.51464 0.0
C328 C 0.96622 0.12668 0.48926 0.0
C329 C 0.93831 0.11463 0.49367 0.0
C330 C 0.93459 0.08572 0.52292 0.0
C331 C 0.97939 1.00926 0.89042 0.0
O332 O 0.03275 0.9681 0.78926 0.0
O333 O 0.9954 0.97208 0.6872 0.0
O334 O 0.08571 0.99988 0.84025 0.0
O335 O 0.05826 1.01719 0.94927 0.0
O336 O 0.06959 0.03851 0.6903 0.0
O337 O 0.03717 1.00968 0.653 0.0
O338 O 1.00349 0.06903 0.73315 0.0
O339 O 0.04353 0.06563 0.82303 0.0
O340 O 0.95113 0.0393 0.67659 0.0
O341 O 0.97763 0.02242 0.56501 0.0
O342 O 0.96769 0.99693 0.81854 0.0
O343 O 0.99899 0.02683 0.86106 0.0
H344 H 0.03665 0.97775 0.04103 0.0
H345 H 0.02605 0.92678 0.06192 0.0
H346 H 0.10693 0.90482 0.92775 0.0
H347 H 0.11824 0.95628 0.9092 0.0
H348 H 1.00523 0.06947 0.56278 0.0
H349 H 1.01177 0.11906 0.51226 0.0
H350 H 0.91968 0.12738 0.47382 0.0
H351 H 0.91304 0.07659 0.52792 0.0
Ho352 Ho 0.52138 0.04649 0.80627 0.0
Ho353 Ho 0.51487 0.99268 0.69909 0.0
C354 C 0.58067 1.01362 0.73121 0.0
C355 C 0.53517 0.08084 0.93826 0.0
C356 C 0.55992 0.07468 0.99743 0.0
C357 C 0.56754 0.04548 1.00832 0.0
C358 C 0.5956 0.03784 0.02943 0.0
C359 C 0.61656 0.05927 0.04229 0.0
C360 C 0.60879 0.08865 0.03695 0.0
C361 C 0.58049 0.09635 1.01412 0.0
C362 C 0.51741 0.065 0.62352 0.0
C363 C 0.45564 0.02482 0.77844 0.0
C364 C 0.49925 0.95729 0.57096 0.0
C365 C 0.47219 0.95893 0.51821 0.0
C366 C 0.4635 0.98567 0.48118 0.0
C367 C 0.43532 0.98977 0.45176 0.0
C368 C 0.41519 0.96723 0.45948 0.0
C369 C 0.42358 0.94022 0.49481 0.0
C370 C 0.45211 0.93605 0.52381 0.0
C371 C 0.52096 0.97388 0.88108 0.0
O372 O 0.56897 0.03218 0.79114 0.0
O373 O 0.56376 0.99668 0.68063 0.0
O374 O 0.54289 0.08536 0.85162 0.0
O375 O 0.51334 0.0628 0.94593 0.0
O376 O 0.51761 0.08118 0.69645 0.0
O377 O 0.51646 0.0386 0.65174 0.0
O378 O 0.46711 1.00576 0.71976 0.0
O379 O 0.47277 0.04273 0.82409 0.0
O380 O 0.49514 0.95225 0.65963 0.0
O381 O 0.51836 0.97785 0.55587 0.0
O382 O 0.52062 0.95807 0.80734 0.0
O383 O 0.52111 1.00044 0.85387 0.0
H384 H 0.55267 0.02834 0.9905 0.0
H385 H 0.60119 1.01508 0.03036 0.0
H386 H 0.62479 0.10552 0.04685 0.0
H387 H 0.57532 0.11893 1.00223 0.0
H388 H 0.47796 1.00397 0.4802 0.0
H389 H 0.42888 1.01097 0.42645 0.0
H390 H 0.40802 0.92276 0.50192 0.0
H391 H 0.45807 0.91556 0.55543 0.0
Ho392 Ho 0.49092 0.52077 0.79693 0.0
Ho393 Ho 0.54498 0.518 0.71036 0.0
C394 C 0.52218 0.58268 0.73146 0.0
C395 C 0.45538 0.5357 0.92572 0.0
C396 C 0.46095 0.56248 0.9762 0.0
C397 C 0.48962 0.57249 0.97568 0.0
C398 C 0.49603 0.60083 0.99686 0.0
C399 C 0.47389 0.61981 0.02075 0.0
C400 C 0.44505 0.61021 0.02343 0.0
C401 C 0.43853 0.58147 1.00042 0.0
C402 C 0.47478 0.51683 0.6155 0.0
C403 C 0.51475 0.45622 0.77859 0.0
C404 C 0.58056 0.50116 0.58419 0.0
C405 C 0.57638 0.47291 0.54107 0.0
C406 C 0.54826 0.46144 0.54281 0.0
C407 C 0.54326 0.43269 0.52225 0.0
C408 C 0.56642 0.41474 0.50017 0.0
C409 C 0.59476 0.42568 0.49862 0.0
C410 C 0.59979 0.45482 0.51981 0.0
C411 C 0.56154 0.52308 0.88983 0.0
O412 O 0.49974 0.56942 0.77099 0.0
O413 O 0.54395 0.567 0.70019 0.0
O414 O 0.45033 0.54036 0.83758 0.0
O415 O 0.47433 0.51505 0.93842 0.0
O416 O 0.45766 0.51508 0.68676 0.0
O417 O 0.50127 0.51771 0.64285 0.0
O418 O 0.53757 0.46984 0.74358 0.0
O419 O 0.49192 0.47149 0.80367 0.0
O420 O 0.5862 0.49915 0.67287 0.0
O421 O 0.56049 0.52036 0.56682 0.0
O422 O 0.57791 0.52693 0.81746 0.0
O423 O 0.53473 0.52089 0.86577 0.0
H424 H 0.50711 0.55901 0.95191 0.0
H425 H 0.51835 0.60809 0.99345 0.0
H426 H 0.42779 0.62488 0.04251 0.0
H427 H 0.41617 0.57449 0.99754 0.0
H428 H 0.53017 0.47438 0.56541 0.0
H429 H 0.52127 0.42444 0.52362 0.0
H430 H 0.61277 0.4118 0.48057 0.0
H431 H 0.62175 0.46296 0.52234 0.0
Ho432 Ho 1.01668 0.49368 0.80958 0.0
Ho433 Ho 0.01989 0.54255 0.70413 0.0
C434 C 0.95478 0.52197 0.73765 0.0
C435 C 1.00376 0.45683 0.93947 0.0
C436 C 0.97683 0.4559 0.99436 0.0
C437 C 0.96834 0.48009 0.0471 0.0
C438 C 0.93939 0.48405 0.07035 0.0
C439 C 0.91847 0.46409 0.04052 0.0
C440 C 0.92756 0.43834 0.99761 0.0
C441 C 0.95659 0.43414 0.97577 0.0
C442 C 0.02558 0.47874 0.62474 0.0
C443 C 0.08128 0.51339 0.77407 0.0
C444 C 0.03438 0.58155 0.58233 0.0
C445 C 0.06114 0.58343 0.52656 0.0
C446 C 0.07025 0.55953 0.47391 0.0
C447 C 0.09819 0.55852 0.43823 0.0
C448 C 0.11764 0.58132 0.45432 0.0
C449 C 0.10816 0.60597 0.50216 0.0
C450 C 0.07999 0.60704 0.538 0.0
C451 C 1.01067 0.55693 0.88895 0.0
O452 O 0.96777 0.50478 0.79949 0.0
O453 O 0.97126 0.53892 0.68503 0.0
O454 O 1.00079 0.45128 0.85075 0.0
O455 O 0.0202 0.47933 0.95309 0.0
O456 O 0.03902 0.46776 0.696 0.0
O457 O 1.00846 0.49813 0.65524 0.0
O458 O 0.06842 0.52912 0.70817 0.0
O459 O 0.06476 0.49832 0.83145 0.0
O460 O 0.03784 0.58486 0.6719 0.0
O461 O 1.0172 0.55991 0.56371 0.0
O462 O 0.99671 0.56753 0.8184 0.0
O463 O 0.02821 0.53812 0.85755 0.0
H464 H 0.98351 0.49718 0.06386 0.0
H465 H 0.93319 0.50361 0.10669 0.0
H466 H 0.9122 0.42248 0.97302 0.0
H467 H 0.96269 0.41526 0.9357 0.0
H468 H 0.05645 0.54078 0.46463 0.0
H469 H 0.10507 0.53906 0.40249 0.0
H470 H 0.12275 0.62392 0.51437 0.0
H471 H 0.07343 0.62559 0.57884 0.0
C472 C 0.1117 1.00095 0.4308 0.0
C473 C 0.10564 1.01833 0.35087 0.0
C474 C 0.09551 1.00295 0.51574 0.0
C475 C 0.0722 0.02245 0.52638 0.0
H476 H 0.12983 0.98618 0.4294 0.0
H477 H 0.10178 0.9895 0.57447 0.0
S478 S 0.04656 0.07304 0.34266 0.0
N479 N 0.07288 0.05513 0.29067 0.0
N480 N 0.04452 0.05978 0.44964 0.0
C481 C 0.06579 0.03969 0.44777 0.0
C482 C 0.08183 0.03743 0.36084 0.0
C483 C 0.5126 0.07978 0.35394 0.0
C484 C 0.5259 0.10734 0.3427 0.0
C485 C 0.5109 0.06528 0.44248 0.0
C486 C 0.52168 0.07783 0.52521 0.0
H487 H 0.50325 0.06932 0.2937 0.0
H488 H 0.50025 0.04457 0.44621 0.0
S489 S 0.55913 0.14933 0.53541 0.0
N490 N 0.55061 0.14601 0.42421 0.0
N491 N 0.54725 0.11954 0.58719 0.0
C492 C 0.53545 0.10513 0.51406 0.0
C493 C 0.53757 0.11958 0.42442 0.0
C494 C 0.42281 0.53978 0.41818 0.0
C495 C 0.43162 0.5241 0.33828 0.0
C496 C 0.43763 0.5379 0.50462 0.0
C497 C 0.46269 0.52079 0.517 0.0
H498 H 0.40341 0.55283 0.41551 0.0
H499 H 0.4289 0.54974 0.56346 0.0
S500 S 0.49601 0.47585 0.33111 0.0
N501 N 0.46818 0.49113 0.27854 0.0
N502 N 0.49574 0.48815 0.43917 0.0
C503 C 0.47239 0.50575 0.43723 0.0
C504 C 0.457 0.50722 0.34907 0.0
C505 C 0.99788 0.45207 0.38174 0.0
C506 C 0.01871 0.43134 0.35355 0.0
C507 C 1.00037 0.46782 0.46718 0.0
C508 C 0.02349 0.46326 0.53035 0.0
H509 H 0.97954 0.45634 0.33705 0.0
H510 H 0.98372 0.48336 0.48453 0.0
S511 S 0.08294 0.41034 0.49316 0.0
N512 N 0.0628 0.40688 0.39904 0.0
N513 N 0.0672 0.43548 0.55714 0.0
C514 C 0.04414 0.44235 0.50305 0.0
C515 C 0.04183 0.42675 0.41597 0.0
C516 C 0.9203 0.99733 0.08076 0.0
C517 C 0.93025 1.01203 0.16086 0.0
C518 C 0.93623 0.99673 0.99564 0.0
C519 C 0.96335 1.0107 0.98438 0.0
H520 H 0.89963 0.98627 0.08339 0.0
H521 H 0.92693 0.98512 0.93754 0.0
S522 S 0.99981 0.05242 0.17063 0.0
N523 N 0.96959 0.04122 0.22162 0.0
N524 N 0.99926 0.03996 0.06277 0.0
C525 C 0.97357 0.02572 0.06338 0.0
C526 C 0.9572 0.02647 0.15056 0.0
C527 C 0.51994 0.96166 0.15401 0.0
C528 C 0.52055 0.93103 0.16325 0.0
C529 C 0.51996 0.97586 0.06448 0.0
C530 C 0.52076 0.96016 0.97956 0.0
H531 H 0.51964 0.97478 0.21643 0.0
H532 H 0.51905 0.99923 0.0623 0.0
S533 S 0.51874 0.87938 0.96611 0.0
N534 N 0.51936 0.88586 0.07925 0.0
N535 N 0.51951 0.91145 0.91467 0.0
C536 C 0.5203 0.92947 0.98938 0.0
C537 C 0.52023 0.9153 0.07958 0.0
C538 C 0.61993 0.51372 0.07998 0.0
C539 C 0.60584 0.51841 0.16607 0.0
C540 C 0.60506 0.51472 0.9937 0.0
C541 C 0.57495 0.52014 0.98724 0.0
H542 H 0.64304 0.50993 0.07897 0.0
H543 H 0.61766 0.51144 0.93063 0.0
S544 S 0.52712 0.53258 0.19269 0.0
N545 N 0.55944 0.5282 0.23956 0.0
N546 N 0.53144 0.52868 0.07876 0.0
C547 C 0.56027 0.52373 0.07343 0.0
C548 C 0.57565 0.52331 0.1619 0.0
C549 C 0.99034 0.60675 0.09591 0.0
C550 C 1.01445 0.60686 0.15751 0.0
C551 C 0.98935 0.59022 1.01263 0.0
C552 C 1.0124 0.57254 0.98299 0.0
H553 H 0.97181 0.62028 0.10933 0.0
H554 H 0.97014 0.5917 0.9699 0.0
S555 S 0.08156 0.5639 0.11103 0.0
N556 N 0.06264 0.58602 0.17776 0.0
N557 N 0.06075 0.5564 0.02099 0.0
C558 C 0.03677 0.57202 0.04216 0.0
C559 C 0.03783 0.58875 0.12831 0.0
C560 C 1.00207 0.18307 0.34234 0.0
C561 C 1.00041 0.20771 0.39926 0.0
C562 C 0.98829 0.15742 0.36829 0.0
C563 C 0.97214 0.15563 0.45139 0.0
H564 H 1.01445 0.18347 0.2778 0.0
H565 H 0.9915 0.13837 0.3256 0.0
S566 S 0.95825 0.21499 0.61845 0.0
N567 N 0.9797 0.22955 0.53833 0.0
N568 N 0.95294 0.1811 0.586 0.0
C569 C 0.96873 0.18053 0.50588 0.0
C570 C 0.98309 0.20669 0.48 0.0
C571 C 0.33813 0.99095 0.48454 0.0
C572 C 0.33259 1.00112 0.39387 0.0
C573 C 0.36434 0.97715 0.50445 0.0
C574 C 0.38527 0.97333 0.43404 0.0
H575 H 0.32272 0.9947 0.54049 0.0
H576 H 0.369 0.97089 0.57577 0.0
S577 S 0.37835 0.99108 0.18281 0.0
N578 N 0.34787 1.00245 0.23069 0.0
N579 N 0.39742 0.97721 0.26935 0.0
C580 C 0.37887 0.98132 0.34212 0.0
C581 C 0.35237 0.99512 0.32168 0.0
C582 C 0.53923 0.35654 0.34428 0.0
C583 C 0.54305 0.33151 0.39867 0.0
C584 C 0.54747 0.3834 0.37808 0.0
C585 C 0.55988 0.38581 0.46672 0.0
H586 H 0.53029 0.35519 0.27455 0.0
H587 H 0.54421 0.40244 0.33471 0.0
S588 S 0.57331 0.32654 0.63608 0.0
N589 N 0.55919 0.31027 0.54449 0.0
N590 N 0.57458 0.36147 0.60998 0.0
C591 C 0.56331 0.36102 0.52263 0.0
C592 C 0.55485 0.33354 0.48791 0.0
C593 C 0.18133 0.55426 0.31893 0.0
C594 C 0.20307 0.5538 0.38697 0.0
C595 C 0.15433 0.56602 0.33853 0.0
C596 C 0.14815 0.57746 0.42707 0.0
H597 H 0.18492 0.54453 0.25109 0.0
H598 H 0.13761 0.56457 0.28597 0.0
S599 S 0.1996 0.58503 0.62375 0.0
N600 N 0.21846 0.56885 0.54086 0.0
N601 N 0.16707 0.59052 0.57989 0.0
C602 C 0.17063 0.57949 0.49282 0.0
C603 C 0.19832 0.56764 0.47222 0.0
C604 C 0.06847 0.83471 0.06942 0.0
C605 C 0.03931 0.82634 0.06348 0.0
C606 C 0.07732 0.86193 0.03819 0.0
C607 C 0.05729 0.8812 0.99902 0.0
H608 H 0.08361 0.82169 0.10908 0.0
H609 H 0.09917 0.86888 0.05346 0.0
S610 S 0.98057 0.8654 0.94299 0.0
N611 N 0.99204 0.83615 0.99825 0.0
N612 N 1.00863 0.88758 0.93736 0.0
C613 C 0.02909 0.87125 0.98034 0.0
C614 C 0.02015 0.84348 1.0124 0.0
C615 C 0.69796 0.05642 0.02336 0.0
C616 C 0.70465 0.03552 0.09101 0.0
C617 C 0.66917 0.06365 1.00608 0.0
C618 C 0.64663 0.0506 0.05794 0.0
H619 H 0.71507 0.06816 0.98732 0.0
H620 H 0.66455 0.08002 0.95374 0.0
S621 S 0.65382 0.99504 0.24459 0.0
N622 N 0.68723 1.00154 0.20892 0.0
N623 N 0.63308 1.01597 0.17962 0.0
C624 C 0.65326 0.02914 0.12423 0.0
C625 C 0.68237 0.02135 0.13997 0.0
C626 C 0.48418 0.70072 0.02057 0.0
C627 C 0.50075 0.70468 0.10166 0.0
C628 C 0.47484 0.6731 0.99482 0.0
C629 C 0.48205 0.64889 0.04941 0.0
H630 H 0.47777 0.71917 0.97843 0.0
H631 H 0.46204 0.67062 0.93218 0.0
S632 S 0.5258 0.64703 0.2649 0.0
N633 N 0.52431 0.68158 0.23521 0.0
N634 N 0.50744 0.62977 0.18394 0.0
C635 C 0.49939 0.65231 0.12825 0.0
C636 C 0.5087 0.68022 0.15504 0.0
C637 C 0.84989 0.50874 0.04529 0.0
C638 C 0.82953 0.48863 0.07857 0.0
C639 C 0.87842 0.50021 0.02861 0.0
C640 C 0.88741 0.47153 0.04695 0.0
H641 H 0.84458 0.53157 0.04159 0.0
H642 H 0.89382 0.51656 1.00589 0.0
S643 S 0.84007 0.41034 0.12027 0.0
N644 N 0.8182 0.43838 0.11216 0.0
N645 N 0.87243 0.42267 0.09101 0.0
C646 C 0.86632 0.45081 0.0713 0.0
C647 C 0.83708 0.45928 0.08329 0.0
C648 C 0.04776 0.16127 0.83686 0.0
C649 C 0.02211 0.17831 0.83094 0.0
C650 C 0.0483 0.13079 0.82087 0.0
C651 C 0.0233 0.11488 0.797 0.0
H652 H 0.06796 0.17115 0.85695 0.0
H653 H 0.06871 0.11955 0.8278 0.0
S654 S 0.94976 0.1462 0.77566 0.0
N655 N 0.97031 0.17441 0.79987 0.0
N656 N 0.97181 0.1183 0.77116 0.0
C657 C 0.99758 0.13113 0.79022 0.0
C658 C 0.99684 0.16217 0.80695 0.0
C659 C 0.37235 1.01258 0.75061 0.0
C660 C 0.3599 0.02626 0.82932 0.0
C661 C 0.40286 1.01238 0.7339 0.0
C662 C 0.42277 0.02578 0.79531 0.0
H663 H 0.35826 1.00213 0.70108 0.0
H664 H 0.41087 1.00162 0.67193 0.0
S665 S 0.40161 0.06274 1.01601 0.0
N666 N 0.37044 0.05244 0.97129 0.0
N667 N 0.42676 0.05208 0.94148 0.0
C668 C 0.41041 0.0393 0.87473 0.0
C669 C 0.37947 0.03954 0.89123 0.0
C670 C 0.4933 0.37445 0.78365 0.0
C671 C 0.51796 0.35961 0.81939 0.0
C672 C 0.49208 0.40514 0.7723 0.0
C673 C 0.5158 0.4233 0.79231 0.0
H674 H 0.47431 0.36247 0.76319 0.0
H675 H 0.47239 0.41468 0.74563 0.0
S676 S 0.58605 0.39813 0.88664 0.0
N677 N 0.56691 0.36811 0.8773 0.0
N678 N 0.56501 0.42433 0.8482 0.0
C679 C 0.54084 0.40924 0.82517 0.0
C680 C 0.54186 0.37809 0.84027 0.0
C681 C 0.15617 0.51195 0.89647 0.0
C682 C 0.17687 0.51294 0.82339 0.0
C683 C 0.12586 0.51198 0.87946 0.0
C684 C 0.11417 0.51338 0.7882 0.0
H685 H 0.16351 0.51109 0.96817 0.0
H686 H 0.11135 0.5112 0.93913 0.0
S687 S 0.15845 0.51141 0.57096 0.0
N688 N 0.1829 0.51201 0.65481 0.0
N689 N 0.12653 0.51287 0.62326 0.0
C690 C 0.13461 0.51371 0.71422 0.0
C691 C 0.16559 0.51325 0.73159 0.0
C692 C 0.03761 0.87402 0.73513 0.0
C693 C 1.01462 0.85886 0.69179 0.0
C694 C 0.0371 0.90467 0.74885 0.0
C695 C 1.01372 0.92231 0.71944 0.0
H696 H 0.05617 0.86204 0.75996 0.0
H697 H 0.05544 0.91466 0.78258 0.0
S698 S 0.94916 0.89442 0.59399 0.0
N699 N 0.9685 0.86507 0.61405 0.0
N700 N 0.9675 0.92152 0.63972 0.0
C701 C 0.99093 0.90747 0.67426 0.0
C702 C 0.99136 0.87632 0.6608 0.0
C703 C 0.65733 0.02501 0.62318 0.0
C704 C 0.67677 1.01275 0.68865 0.0
C705 C 0.62675 0.02475 0.63678 0.0
C706 C 0.61357 1.01279 0.71773 0.0
H707 H 0.66584 0.03465 0.55951 0.0
H708 H 0.61327 0.03437 0.58338 0.0
S709 S 0.65379 0.97856 0.91343 0.0
N710 N 0.67964 0.98833 0.83926 0.0
N711 N 0.62294 0.98856 0.86531 0.0
C712 C 0.63263 1.00074 0.7844 0.0
C713 C 0.6638 1.00048 0.76978 0.0
C714 C 0.49754 0.66206 0.68395 0.0
C715 C 0.52287 0.67924 0.69423 0.0
C716 C 0.49733 0.63144 0.69793 0.0
C717 C 0.52255 0.61575 0.72113 0.0
H718 H 0.47756 0.67217 0.66241 0.0
H719 H 0.47723 0.61982 0.68768 0.0
S720 S 0.5938 0.64938 0.77124 0.0
N721 N 0.57329 0.6772 0.74211 0.0
N722 N 0.57307 0.62038 0.7623 0.0
C723 C 0.54779 0.63248 0.73441 0.0
C724 C 0.54791 0.66377 0.72252 0.0
C725 C 0.8769 0.54554 0.66329 0.0
C726 C 0.85826 0.52276 0.69309 0.0
C727 C 0.90741 0.54515 0.67838 0.0
C728 C 0.92157 0.52216 0.72561 0.0
H729 H 0.86797 0.56376 0.62534 0.0
H730 H 0.92007 0.56323 0.65205 0.0
S731 S 0.88372 0.45644 0.81616 0.0
N732 N 0.8573 0.47619 0.77278 0.0
N733 N 0.91372 0.47535 0.79978 0.0
C734 C 0.90325 0.4993 0.75631 0.0
C735 C 0.87215 0.4996 0.7404 0.0
loop_
_geom_bond_atom_site_label_1
_geom_bond_atom_site_label_2
_geom_bond_distance
_geom_bond_site_symmetry_2
_ccdc_geom_bond_type
C0 C1 1.386 . S
C0 C2 1.397 . S
C0 H24 0.931 . S
C1 C0 1.386 . S
C1 C5 1.397 . S
C2 C0 1.397 . S
C2 C3 1.384 . S
C2 H25 0.930 . S
C3 C2 1.384 . S
C3 C4 1.377 . S
C3 C6 1.481 . S
C4 C3 1.377 . S
C4 C5 1.389 . S
C4 H26 0.929 . S
C5 C1 1.397 . S
C5 C4 1.389 . S
C5 H27 0.931 . S
C6 C3 1.481 . S
C6 C7 1.387 . S
C6 C11 1.390 . S
C7 C6 1.387 . S
C7 C8 1.401 . S
C7 H28 0.930 . S
C8 C7 1.401 . S
C8 C9 1.376 . S
C8 C17 1.511 . S
C9 C8 1.376 . S
C9 C10 1.392 . S
C9 H30 0.931 . S
C10 C9 1.392 . S
C10 C11 1.361 . S
C10 C12 1.500 . S
C11 C6 1.390 . S
C11 C10 1.361 . S
C11 H29 0.931 . S
C12 C10 1.500 . S
C12 C13 1.371 . S
C12 C14 1.365 . S
C13 C12 1.371 . S
C13 C23 1.386 . S
C13 H31 0.931 . S
C14 C12 1.365 . S
C14 C15 1.409 . S
C14 H32 0.929 . S
C15 C14 1.409 . S
C15 C16 1.380 . S
C15 H33 0.930 . S
C16 C15 1.380 . S
C16 C23 1.357 . S
C17 C8 1.511 . S
C17 C18 1.341 . S
C17 C19 1.371 . S
C18 C17 1.341 . S
C18 C22 1.394 . S
C18 H34 0.930 . S
C19 C17 1.371 . S
C19 C20 1.392 . S
C19 H35 0.931 . S
C20 C19 1.392 . S
C20 C21 1.331 . S
C20 H38 0.932 . S
C21 C20 1.331 . S
C21 C22 1.336 . S
C22 C18 1.394 . S
C22 C21 1.336 . S
C22 H37 0.929 . S
C23 C13 1.386 . S
C23 C16 1.357 . S
C23 H36 0.928 . S
H24 C0 0.931 . S
H25 C2 0.930 . S
H26 C4 0.929 . S
H27 C5 0.931 . S
H28 C7 0.930 . S
H29 C11 0.931 . S
H30 C9 0.931 . S
H31 C13 0.931 . S
H32 C14 0.929 . S
H33 C15 0.930 . S
H34 C18 0.930 . S
H35 C19 0.931 . S
H36 C23 0.928 . S
H37 C22 0.929 . S
H38 C20 0.932 . S
C39 C40 1.394 . S
C39 C41 1.397 . S
C39 H63 0.931 . S
C40 C39 1.394 . S
C40 C44 1.389 1_655 S
C41 C39 1.397 . S
C41 C42 1.389 . S
C41 H64 0.930 . S
C42 C41 1.389 . S
C42 C43 1.373 1_655 S
C42 C45 1.480 . S
C43 C42 1.373 1_455 S
C43 C44 1.389 . S
C43 H65 0.929 . S
C44 C40 1.389 1_455 S
C44 C43 1.389 . S
C44 H66 0.931 . S
C45 C42 1.480 . S
C45 C46 1.388 . S
C45 C50 1.390 . S
C46 C45 1.388 . S
C46 C47 1.402 . S
C46 H67 0.930 . S
C47 C46 1.402 . S
C47 C48 1.377 . S
C47 C56 1.513 . S
C48 C47 1.377 . S
C48 C49 1.392 . S
C48 H69 0.931 . S
C49 C48 1.392 . S
C49 C50 1.361 . S
C49 C51 1.499 1_655 S
C50 C45 1.390 . S
C50 C49 1.361 . S
C50 H68 0.931 . S
C51 C49 1.499 1_455 S
C51 C52 1.361 1_455 S
C51 C53 1.376 . S
C52 C51 1.361 1_655 S
C52 C62 1.386 . S
C52 H70 0.931 . S
C53 C51 1.376 . S
C53 C54 1.409 . S
C53 H71 0.929 . S
C54 C53 1.409 . S
C54 C55 1.380 . S
C54 H72 0.930 . S
C55 C54 1.380 . S
C55 C62 1.357 1_455 S
C56 C47 1.513 . S
C56 C57 1.341 . S
C56 C58 1.371 1_655 S
C57 C56 1.341 . S
C57 C61 1.394 . S
C57 H73 0.930 . S
C58 C56 1.371 1_455 S
C58 C59 1.392 . S
C58 H74 0.931 . S
C59 C58 1.392 . S
C59 C60 1.322 1_455 S
C59 H77 0.932 . S
C60 C59 1.322 1_655 S
C60 C61 1.345 . S
C61 C57 1.394 . S
C61 C60 1.345 . S
C61 H76 0.929 . S
C62 C52 1.386 . S
C62 C55 1.357 1_655 S
C62 H75 0.928 . S
H63 C39 0.931 . S
H64 C41 0.930 . S
H65 C43 0.929 . S
H66 C44 0.931 . S
H67 C46 0.930 . S
H68 C50 0.931 . S
H69 C48 0.931 . S
H70 C52 0.931 . S
H71 C53 0.929 . S
H72 C54 0.930 . S
H73 C57 0.930 . S
H74 C58 0.931 . S
H75 C62 0.928 . S
H76 C61 0.929 . S
H77 C59 0.932 . S
C78 C79 1.394 . S
C78 C80 1.397 . S
C78 H102 0.931 . S
C79 C78 1.394 . S
C79 C83 1.389 1_565 S
C80 C78 1.397 . S
C80 C81 1.389 . S
C80 H103 0.930 . S
C81 C80 1.389 . S
C81 C82 1.373 1_565 S
C81 C84 1.481 . S
C82 C81 1.373 1_545 S
C82 C83 1.389 . S
C82 H104 0.929 . S
C83 C79 1.389 1_545 S
C83 C82 1.389 . S
C83 H105 0.931 . S
C84 C81 1.481 . S
C84 C85 1.388 . S
C84 C89 1.390 . S
C85 C84 1.388 . S
C85 C86 1.402 . S
C85 H106 0.930 . S
C86 C85 1.402 . S
C86 C87 1.377 . S
C86 C95 1.513 . S
C87 C86 1.377 . S
C87 C88 1.392 . S
C87 H108 0.931 . S
C88 C87 1.392 . S
C88 C89 1.361 . S
C88 C90 1.499 1_565 S
C89 C84 1.390 . S
C89 C88 1.361 . S
C89 H107 0.931 . S
C90 C88 1.499 1_545 S
C90 C91 1.361 1_545 S
C90 C92 1.376 . S
C91 C90 1.361 1_565 S
C91 C101 1.386 . S
C91 H109 0.931 . S
C92 C90 1.376 . S
C92 C93 1.409 . S
C92 H110 0.929 . S
C93 C92 1.409 . S
C93 C94 1.380 . S
C93 H111 0.930 . S
C94 C93 1.380 . S
C94 C101 1.357 1_545 S
C95 C86 1.513 . S
C95 C96 1.341 . S
C95 C97 1.371 1_565 S
C96 C95 1.341 . S
C96 C100 1.394 . S
C96 H112 0.930 . S
C97 C95 1.371 1_545 S
C97 C98 1.392 . S
C97 H113 0.931 . S
C98 C97 1.392 . S
C98 C99 1.322 1_545 S
C98 H116 0.932 . S
C99 C98 1.322 1_565 S
C99 C100 1.345 . S
C100 C96 1.394 . S
C100 C99 1.345 . S
C100 H115 0.929 . S
C101 C91 1.386 . S
C101 C94 1.357 1_565 S
C101 H114 0.928 . S
H102 C78 0.931 . S
H103 C80 0.930 . S
H104 C82 0.929 . S
H105 C83 0.931 . S
H106 C85 0.930 . S
H107 C89 0.931 . S
H108 C87 0.931 . S
H109 C91 0.931 . S
H110 C92 0.929 . S
H111 C93 0.930 . S
H112 C96 0.930 . S
H113 C97 0.931 . S
H114 C101 0.928 . S
H115 C100 0.929 . S
H116 C98 0.932 . S
C117 C118 1.386 . S
C117 C119 1.397 . S
C117 H141 0.931 . S
C118 C117 1.386 . S
C118 C122 1.397 . S
C119 C117 1.397 . S
C119 C120 1.384 . S
C119 H142 0.930 . S
C120 C119 1.384 . S
C120 C121 1.377 . S
C120 C123 1.481 . S
C121 C120 1.377 . S
C121 C122 1.389 . S
C121 H143 0.929 . S
C122 C118 1.397 . S
C122 C121 1.389 . S
C122 H144 0.931 . S
C123 C120 1.481 . S
C123 C124 1.387 . S
C123 C128 1.390 . S
C124 C123 1.387 . S
C124 C125 1.401 . S
C124 H145 0.930 . S
C125 C124 1.401 . S
C125 C126 1.376 . S
C125 C134 1.511 . S
C126 C125 1.376 . S
C126 C127 1.392 . S
C126 H147 0.931 . S
C127 C126 1.392 . S
C127 C128 1.361 . S
C127 C129 1.500 . S
C128 C123 1.390 . S
C128 C127 1.361 . S
C128 H146 0.931 . S
C129 C127 1.500 . S
C129 C130 1.371 . S
C129 C131 1.365 . S
C130 C129 1.371 . S
C130 C140 1.386 . S
C130 H148 0.931 . S
C131 C129 1.365 . S
C131 C132 1.409 . S
C131 H149 0.929 . S
C132 C131 1.409 . S
C132 C133 1.380 . S
C132 H150 0.930 . S
C133 C132 1.380 . S
C133 C140 1.357 . S
C134 C125 1.511 . S
C134 C135 1.341 . S
C134 C136 1.371 . S
C135 C134 1.341 . S
C135 C139 1.394 . S
C135 H151 0.930 . S
C136 C134 1.371 . S
C136 C137 1.392 . S
C136 H152 0.931 . S
C137 C136 1.392 . S
C137 C138 1.331 . S
C137 H155 0.932 . S
C138 C137 1.331 . S
C138 C139 1.336 . S
C139 C135 1.394 . S
C139 C138 1.336 . S
C139 H154 0.929 . S
C140 C130 1.386 . S
C140 C133 1.357 . S
C140 H153 0.928 . S
H141 C117 0.931 . S
H142 C119 0.930 . S
H143 C121 0.929 . S
H144 C122 0.931 . S
H145 C124 0.930 . S
H146 C128 0.931 . S
H147 C126 0.931 . S
H148 C130 0.931 . S
H149 C131 0.929 . S
H150 C132 0.930 . S
H151 C135 0.930 . S
H152 C136 0.931 . S
H153 C140 0.928 . S
H154 C139 0.929 . S
H155 C137 0.932 . S
C156 C157 1.386 . S
C156 C158 1.397 . S
C156 H180 0.931 . S
C157 C156 1.386 . S
C157 C161 1.397 . S
C158 C156 1.397 . S
C158 C159 1.384 . S
C158 H181 0.930 . S
C159 C158 1.384 . S
C159 C160 1.377 . S
C159 C162 1.481 . S
C160 C159 1.377 . S
C160 C161 1.389 . S
C160 H182 0.929 . S
C161 C157 1.397 . S
C161 C160 1.389 . S
C161 H183 0.931 . S
C162 C159 1.481 . S
C162 C163 1.387 . S
C162 C167 1.390 . S
C163 C162 1.387 . S
C163 C164 1.401 . S
C163 H184 0.930 . S
C164 C163 1.401 . S
C164 C165 1.376 1_554 S
C164 C173 1.511 . S
C165 C164 1.376 1_556 S
C165 C166 1.392 . S
C165 H186 0.931 . S
C166 C165 1.392 . S
C166 C167 1.361 1_556 S
C166 C168 1.500 . S
C167 C162 1.390 . S
C167 C166 1.361 1_554 S
C167 H185 0.931 . S
C168 C166 1.500 . S
C168 C169 1.371 . S
C168 C170 1.365 . S
C169 C168 1.371 . S
C169 C179 1.386 . S
C169 H187 0.931 . S
C170 C168 1.365 . S
C170 C171 1.409 . S
C170 H188 0.929 . S
C171 C170 1.409 . S
C171 C172 1.380 . S
C171 H189 0.930 . S
C172 C171 1.380 . S
C172 C179 1.357 . S
C173 C164 1.511 . S
C173 C174 1.341 . S
C173 C175 1.371 . S
C174 C173 1.341 . S
C174 C178 1.394 . S
C174 H190 0.930 . S
C175 C173 1.371 . S
C175 C176 1.392 . S
C175 H191 0.931 1_554 S
C176 C175 1.392 . S
C176 C177 1.331 . S
C176 H194 0.937 . S
C177 C176 1.331 . S
C177 C178 1.336 . S
C178 C174 1.394 . S
C178 C177 1.336 . S
C178 H193 0.929 . S
C179 C169 1.386 . S
C179 C172 1.357 . S
C179 H192 0.928 . S
H180 C156 0.931 . S
H181 C158 0.930 . S
H182 C160 0.929 . S
H183 C161 0.931 . S
H184 C163 0.930 . S
H185 C167 0.931 . S
H186 C165 0.931 . S
H187 C169 0.931 . S
H188 C170 0.929 . S
H189 C171 0.930 . S
H190 C174 0.930 . S
H191 C175 0.931 1_556 S
H192 C179 0.928 . S
H193 C178 0.929 . S
H194 C176 0.937 . S
C195 C196 1.389 . S
C195 C197 1.397 . S
C195 H219 0.931 . S
C196 C195 1.389 . S
C196 C200 1.394 1_655 S
C197 C195 1.397 . S
C197 C198 1.383 . S
C197 H220 0.930 . S
C198 C197 1.383 . S
C198 C199 1.378 1_655 S
C198 C201 1.480 . S
C199 C198 1.378 1_455 S
C199 C200 1.389 . S
C199 H221 0.929 . S
C200 C196 1.394 1_455 S
C200 C199 1.389 . S
C200 H222 0.931 . S
C201 C198 1.480 . S
C201 C202 1.388 . S
C201 C206 1.390 . S
C202 C201 1.388 . S
C202 C203 1.402 . S
C202 H223 0.930 . S
C203 C202 1.402 . S
C203 C204 1.376 1_554 S
C203 C212 1.512 . S
C204 C203 1.376 1_556 S
C204 C205 1.392 1_655 S
C204 H225 0.933 . S
C205 C204 1.392 1_455 S
C205 C206 1.361 1_456 S
C205 C207 1.499 . S
C206 C201 1.390 . S
C206 C205 1.361 1_654 S
C206 H224 0.931 . S
C207 C205 1.499 . S
C207 C208 1.357 1_455 S
C207 C209 1.380 . S
C208 C207 1.357 1_655 S
C208 C218 1.386 . S
C208 H226 0.931 . S
C209 C207 1.380 . S
C209 C210 1.409 . S
C209 H227 0.929 . S
C210 C209 1.409 . S
C210 C211 1.384 . S
C210 H228 0.930 . S
C211 C210 1.384 . S
C211 C218 1.353 1_455 S
C212 C203 1.512 . S
C212 C213 1.341 . S
C212 C214 1.371 1_655 S
C213 C212 1.341 . S
C213 C217 1.394 . S
C213 H229 0.930 . S
C214 C212 1.371 1_455 S
C214 C215 1.392 . S
C214 H230 0.931 1_554 S
C215 C214 1.392 . S
C215 C216 1.325 1_455 S
C215 H233 0.932 . S
C216 C215 1.325 1_655 S
C216 C217 1.342 . S
C217 C213 1.394 . S
C217 C216 1.342 . S
C217 H232 0.929 . S
C218 C208 1.386 . S
C218 C211 1.353 1_655 S
C218 H231 0.928 . S
H219 C195 0.931 . S
H220 C197 0.930 . S
H221 C199 0.929 . S
H222 C200 0.931 . S
H223 C202 0.930 . S
H224 C206 0.931 . S
H225 C204 0.933 . S
H226 C208 0.931 . S
H227 C209 0.929 . S
H228 C210 0.930 . S
H229 C213 0.930 . S
H230 C214 0.931 1_556 S
H231 C218 0.928 . S
H232 C217 0.929 . S
H233 C215 0.932 . S
C234 C235 1.389 . S
C234 C236 1.397 . S
C234 H258 0.931 . S
C235 C234 1.389 . S
C235 C239 1.394 1_565 S
C236 C234 1.397 . S
C236 C237 1.383 . S
C236 H259 0.930 . S
C237 C236 1.383 . S
C237 C238 1.378 1_565 S
C237 C240 1.480 . S
C238 C237 1.378 1_545 S
C238 C239 1.389 . S
C238 H260 0.929 . S
C239 C235 1.394 1_545 S
C239 C238 1.389 . S
C239 H261 0.931 . S
C240 C237 1.480 . S
C240 C241 1.388 . S
C240 C245 1.390 . S
C241 C240 1.388 . S
C241 C242 1.402 . S
C241 H262 0.930 . S
C242 C241 1.402 . S
C242 C243 1.376 1_554 S
C242 C251 1.512 . S
C243 C242 1.376 1_556 S
C243 C244 1.392 1_565 S
C243 H264 0.934 . S
C244 C243 1.392 1_545 S
C244 C245 1.361 1_546 S
C244 C246 1.499 . S
C245 C240 1.390 . S
C245 C244 1.361 1_564 S
C245 H263 0.931 . S
C246 C244 1.499 . S
C246 C247 1.357 1_545 S
C246 C248 1.380 . S
C247 C246 1.357 1_565 S
C247 C257 1.386 . S
C247 H265 0.931 . S
C248 C246 1.380 . S
C248 C249 1.409 . S
C248 H266 0.929 . S
C249 C248 1.409 . S
C249 C250 1.384 . S
C249 H267 0.930 . S
C250 C249 1.384 . S
C250 C257 1.353 1_545 S
C251 C242 1.512 . S
C251 C252 1.341 . S
C251 C253 1.371 1_565 S
C252 C251 1.341 . S
C252 C256 1.394 . S
C252 H268 0.930 . S
C253 C251 1.371 1_545 S
C253 C254 1.392 . S
C253 H269 0.931 1_554 S
C254 C253 1.392 . S
C254 C255 1.325 1_545 S
C254 H272 0.932 . S
C255 C254 1.325 1_565 S
C255 C256 1.342 . S
C256 C252 1.394 . S
C256 C255 1.342 . S
C256 H271 0.929 . S
C257 C247 1.386 . S
C257 C250 1.353 1_565 S
C257 H270 0.928 . S
H258 C234 0.931 . S
H259 C236 0.930 . S
H260 C238 0.929 . S
H261 C239 0.931 . S
H262 C241 0.930 . S
H263 C245 0.931 . S
H264 C243 0.934 . S
H265 C247 0.931 . S
H266 C248 0.929 . S
H267 C249 0.930 . S
H268 C252 0.930 . S
H269 C253 0.931 1_556 S
H270 C257 0.928 . S
H271 C256 0.929 . S
H272 C254 0.932 . S
C273 C274 1.386 . S
C273 C275 1.397 . S
C273 H297 0.931 . S
C274 C273 1.386 . S
C274 C278 1.397 . S
C275 C273 1.397 . S
C275 C276 1.384 . S
C275 H298 0.930 . S
C276 C275 1.384 . S
C276 C277 1.377 . S
C276 C279 1.481 . S
C277 C276 1.377 . S
C277 C278 1.389 . S
C277 H299 0.929 . S
C278 C274 1.397 . S
C278 C277 1.389 . S
C278 H300 0.931 . S
C279 C276 1.481 . S
C279 C280 1.387 . S
C279 C284 1.390 1_556 S
C280 C279 1.387 . S
C280 C281 1.401 1_556 S
C280 H301 0.930 . S
C281 C280 1.401 1_554 S
C281 C282 1.376 . S
C281 C290 1.511 . S
C282 C281 1.376 . S
C282 C283 1.392 . S
C282 H303 0.931 . S
C283 C282 1.392 . S
C283 C284 1.361 . S
C283 C285 1.500 . S
C284 C279 1.390 1_554 S
C284 C283 1.361 . S
C284 H302 0.931 . S
C285 C283 1.500 . S
C285 C286 1.371 . S
C285 C287 1.365 . S
C286 C285 1.371 . S
C286 C296 1.386 . S
C286 H304 0.931 . S
C287 C285 1.365 . S
C287 C288 1.409 . S
C287 H305 0.929 . S
C288 C287 1.409 . S
C288 C289 1.380 . S
C288 H306 0.930 . S
C289 C288 1.380 . S
C289 C296 1.357 . S
C290 C281 1.511 . S
C290 C291 1.341 . S
C290 C292 1.371 . S
C291 C290 1.341 . S
C291 C295 1.394 . S
C291 H307 0.930 1_554 S
C292 C290 1.371 . S
C292 C293 1.392 . S
C292 H308 0.931 . S
C293 C292 1.392 . S
C293 C294 1.331 . S
C293 H311 0.932 . S
C294 C293 1.331 . S
C294 C295 1.336 . S
C295 C291 1.394 . S
C295 C294 1.336 . S
C295 H310 0.929 1_554 S
C296 C286 1.386 . S
C296 C289 1.357 . S
C296 H309 0.928 . S
H297 C273 0.931 . S
H298 C275 0.930 . S
H299 C277 0.929 . S
H300 C278 0.931 . S
H301 C280 0.930 . S
H302 C284 0.931 . S
H303 C282 0.931 . S
H304 C286 0.931 . S
H305 C287 0.929 . S
H306 C288 0.930 . S
H307 C291 0.930 1_556 S
H308 C292 0.931 . S
H309 C296 0.928 . S
H310 C295 0.929 1_556 S
H311 C293 0.932 . S
Ho312 C315 2.811 . S
Ho312 O332 2.322 . S
Ho312 O334 2.378 . S
Ho312 O335 2.524 . S
Ho312 O336 2.381 . S
Ho312 O337 2.669 1_565 S
Ho312 O339 2.346 1_565 S
Ho312 O343 2.305 1_455 S
Ho313 C324 2.811 . S
Ho313 O333 2.346 1_545 S
Ho313 O337 2.305 1_655 S
Ho313 O338 2.322 . S
Ho313 O340 2.378 . S
Ho313 O341 2.524 . S
Ho313 O342 2.381 . S
Ho313 O343 2.669 1_545 S
C314 O332 1.259 1_655 S
C314 O333 1.268 . S
C315 Ho312 2.811 . S
C315 C316 1.488 . S
C315 O334 1.215 . S
C315 O335 1.289 . S
C316 C315 1.488 . S
C316 C317 1.351 . S
C316 C321 1.413 . S
C317 C316 1.351 . S
C317 C318 1.438 1_556 S
C317 H344 0.931 1_455 S
C318 C317 1.438 1_554 S
C318 C319 1.381 . S
C318 H345 0.931 . S
C319 C318 1.381 . S
C319 C320 1.321 . S
C320 C319 1.321 . S
C320 C321 1.403 1_554 S
C320 H346 0.934 . S
C321 C316 1.413 . S
C321 C320 1.403 1_556 S
C321 H347 0.930 . S
C322 O336 1.275 . S
C322 O337 1.256 1_565 S
C323 O338 1.259 1_455 S
C323 O339 1.268 . S
C324 Ho313 2.811 . S
C324 C325 1.488 . S
C324 O340 1.215 . S
C324 O341 1.289 . S
C325 C324 1.488 . S
C325 C326 1.348 . S
C325 C330 1.413 . S
C326 C325 1.348 . S
C326 C327 1.442 . S
C326 H348 0.930 1_655 S
C327 C326 1.442 . S
C327 C328 1.381 . S
C327 H349 0.931 . S
C328 C327 1.381 . S
C328 C329 1.321 . S
C329 C328 1.321 . S
C329 C330 1.403 . S
C329 H350 0.934 . S
C330 C325 1.413 . S
C330 C329 1.403 . S
C330 H351 0.930 . S
C331 O342 1.275 . S
C331 O343 1.256 1_545 S
O332 Ho312 2.322 . S
O332 C314 1.259 1_455 S
O333 Ho313 2.346 1_565 S
O333 C314 1.268 . S
O334 Ho312 2.378 . S
O334 C315 1.215 . S
O335 Ho312 2.524 . S
O335 C315 1.289 . S
O336 Ho312 2.381 . S
O336 C322 1.275 . S
O337 Ho312 2.669 1_545 S
O337 Ho313 2.305 1_455 S
O337 C322 1.256 1_545 S
O338 Ho313 2.322 . S
O338 C323 1.259 1_655 S
O339 Ho312 2.346 1_545 S
O339 C323 1.268 . S
O340 Ho313 2.378 . S
O340 C324 1.215 . S
O341 Ho313 2.524 . S
O341 C324 1.289 . S
O342 Ho313 2.381 . S
O342 C331 1.275 . S
O343 Ho312 2.305 1_655 S
O343 Ho313 2.669 1_565 S
O343 C331 1.256 1_565 S
H344 C317 0.931 1_655 S
H345 C318 0.931 . S
H346 C320 0.934 . S
H347 C321 0.930 . S
H348 C326 0.930 1_455 S
H349 C327 0.931 . S
H350 C329 0.934 . S
H351 C330 0.930 . S
Ho352 C355 2.811 . S
Ho352 O372 2.322 . S
Ho352 O374 2.378 . S
Ho352 O375 2.524 . S
Ho352 O376 2.381 . S
Ho352 O377 2.669 . S
Ho352 O379 2.346 . S
Ho352 O383 2.305 1_545 S
Ho353 C364 2.811 . S
Ho353 O373 2.346 . S
Ho353 O377 2.305 1_565 S
Ho353 O378 2.322 . S
Ho353 O380 2.378 . S
Ho353 O381 2.524 . S
Ho353 O382 2.381 . S
Ho353 O383 2.669 . S
C354 O372 1.259 1_565 S
C354 O373 1.268 . S
C355 Ho352 2.811 . S
C355 C356 1.488 . S
C355 O374 1.215 . S
C355 O375 1.289 . S
C356 C355 1.488 . S
C356 C357 1.346 1_556 S
C356 C361 1.413 . S
C357 C356 1.346 1_554 S
C357 C358 1.444 . S
C357 H384 0.930 1_544 S
C358 C357 1.444 . S
C358 C359 1.381 . S
C358 H385 0.931 . S
C359 C358 1.381 . S
C359 C360 1.321 . S
C360 C359 1.321 . S
C360 C361 1.403 1_554 S
C360 H386 0.934 . S
C361 C356 1.413 . S
C361 C360 1.403 1_556 S
C361 H387 0.930 . S
C362 O376 1.275 . S
C362 O377 1.256 . S
C363 O378 1.259 1_545 S
C363 O379 1.268 . S
C364 Ho353 2.811 . S
C364 C365 1.488 . S
C364 O380 1.215 . S
C364 O381 1.289 . S
C365 C364 1.488 . S
C365 C366 1.348 . S
C365 C370 1.413 . S
C366 C365 1.348 . S
C366 C367 1.442 . S
C366 H388 0.930 1_565 S
C367 C366 1.442 . S
C367 C368 1.381 . S
C367 H389 0.931 . S
C368 C367 1.381 . S
C368 C369 1.321 . S
C369 C368 1.321 . S
C369 C370 1.403 . S
C369 H390 0.934 . S
C370 C365 1.413 . S
C370 C369 1.403 . S
C370 H391 0.930 . S
C371 O382 1.275 . S
C371 O383 1.256 . S
O372 Ho352 2.322 . S
O372 C354 1.259 1_545 S
O373 Ho353 2.346 . S
O373 C354 1.268 . S
O374 Ho352 2.378 . S
O374 C355 1.215 . S
O375 Ho352 2.524 . S
O375 C355 1.289 . S
O376 Ho352 2.381 . S
O376 C362 1.275 . S
O377 Ho352 2.669 . S
O377 Ho353 2.305 1_545 S
O377 C362 1.256 . S
O378 Ho353 2.322 . S
O378 C363 1.259 1_565 S
O379 Ho352 2.346 . S
O379 C363 1.268 . S
O380 Ho353 2.378 . S
O380 C364 1.215 . S
O381 Ho353 2.524 . S
O381 C364 1.289 . S
O382 Ho353 2.381 . S
O382 C371 1.275 . S
O383 Ho352 2.305 1_565 S
O383 Ho353 2.669 . S
O383 C371 1.256 . S
H384 C357 0.930 1_566 S
H385 C358 0.931 . S
H386 C360 0.934 . S
H387 C361 0.930 . S
H388 C366 0.930 1_545 S
H389 C367 0.931 . S
H390 C369 0.934 . S
H391 C370 0.930 . S
Ho392 C395 2.811 . S
Ho392 O412 2.322 . S
Ho392 O414 2.378 . S
Ho392 O415 2.524 . S
Ho392 O416 2.381 . S
Ho392 O417 2.669 . S
Ho392 O419 2.346 . S
Ho392 O423 2.305 . S
Ho393 C404 2.811 . S
Ho393 O413 2.346 . S
Ho393 O417 2.305 . S
Ho393 O418 2.322 . S
Ho393 O420 2.378 . S
Ho393 O421 2.524 . S
Ho393 O422 2.381 . S
Ho393 O423 2.669 . S
C394 O412 1.259 . S
C394 O413 1.268 . S
C395 Ho392 2.811 . S
C395 C396 1.488 . S
C395 O414 1.215 . S
C395 O415 1.289 . S
C396 C395 1.488 . S
C396 C397 1.348 1_556 S
C396 C401 1.413 . S
C397 C396 1.348 1_554 S
C397 C398 1.442 . S
C397 H424 0.930 1_554 S
C398 C397 1.442 . S
C398 C399 1.381 . S
C398 H425 0.931 . S
C399 C398 1.381 . S
C399 C400 1.321 . S
C400 C399 1.321 . S
C400 C401 1.403 1_554 S
C400 H426 0.934 . S
C401 C396 1.413 . S
C401 C400 1.403 1_556 S
C401 H427 0.930 . S
C402 O416 1.275 . S
C402 O417 1.256 . S
C403 O418 1.259 . S
C403 O419 1.268 . S
C404 Ho393 2.811 . S
C404 C405 1.488 . S
C404 O420 1.215 . S
C404 O421 1.289 . S
C405 C404 1.488 . S
C405 C406 1.348 . S
C405 C410 1.413 . S
C406 C405 1.348 . S
C406 C407 1.442 . S
C406 H428 0.930 . S
C407 C406 1.442 . S
C407 C408 1.381 . S
C407 H429 0.931 . S
C408 C407 1.381 . S
C408 C409 1.321 . S
C409 C408 1.321 . S
C409 C410 1.403 . S
C409 H430 0.934 . S
C410 C405 1.413 . S
C410 C409 1.403 . S
C410 H431 0.930 . S
C411 O422 1.275 . S
C411 O423 1.256 . S
O412 Ho392 2.322 . S
O412 C394 1.259 . S
O413 Ho393 2.346 . S
O413 C394 1.268 . S
O414 Ho392 2.378 . S
O414 C395 1.215 . S
O415 Ho392 2.524 . S
O415 C395 1.289 . S
O416 Ho392 2.381 . S
O416 C402 1.275 . S
O417 Ho392 2.669 . S
O417 Ho393 2.305 . S
O417 C402 1.256 . S
O418 Ho393 2.322 . S
O418 C403 1.259 . S
O419 Ho392 2.346 . S
O419 C403 1.268 . S
O420 Ho393 2.378 . S
O420 C404 1.215 . S
O421 Ho393 2.524 . S
O421 C404 1.289 . S
O422 Ho393 2.381 . S
O422 C411 1.275 . S
O423 Ho392 2.305 . S
O423 Ho393 2.669 . S
O423 C411 1.256 . S
H424 C397 0.930 1_556 S
H425 C398 0.931 . S
H426 C400 0.934 . S
H427 C401 0.930 . S
H428 C406 0.930 . S
H429 C407 0.931 . S
H430 C409 0.934 . S
H431 C410 0.930 . S
Ho432 C435 2.811 . S
Ho432 O452 2.322 . S
Ho432 O454 2.378 . S
Ho432 O455 2.524 . S
Ho432 O456 2.381 . S
Ho432 O457 2.669 1_655 S
Ho432 O459 2.346 1_655 S
Ho432 O463 2.305 . S
Ho433 C444 2.811 . S
Ho433 O453 2.346 1_455 S
Ho433 O457 2.305 . S
Ho433 O458 2.322 . S
Ho433 O460 2.378 . S
Ho433 O461 2.524 . S
Ho433 O462 2.381 . S
Ho433 O463 2.669 1_455 S
C434 O452 1.259 . S
C434 O453 1.268 . S
C435 Ho432 2.811 . S
C435 C436 1.488 . S
C435 O454 1.215 . S
C435 O455 1.289 . S
C436 C435 1.488 . S
C436 C437 1.348 1_556 S
C436 C441 1.413 . S
C437 C436 1.348 1_554 S
C437 C438 1.442 . S
C437 H464 0.930 1_554 S
C438 C437 1.442 . S
C438 C439 1.381 . S
C438 H465 0.931 . S
C439 C438 1.381 . S
C439 C440 1.321 . S
C440 C439 1.321 . S
C440 C441 1.403 1_554 S
C440 H466 0.934 . S
C441 C436 1.413 . S
C441 C440 1.403 1_556 S
C441 H467 0.930 . S
C442 O456 1.281 . S
C442 O457 1.252 1_655 S
C443 O458 1.259 . S
C443 O459 1.268 . S
C444 Ho433 2.811 . S
C444 C445 1.488 . S
C444 O460 1.215 . S
C444 O461 1.289 . S
C445 C444 1.488 . S
C445 C446 1.348 . S
C445 C450 1.413 . S
C446 C445 1.348 . S
C446 C447 1.442 . S
C446 H468 0.930 . S
C447 C446 1.442 . S
C447 C448 1.381 . S
C447 H469 0.931 . S
C448 C447 1.381 . S
C448 C449 1.321 . S
C449 C448 1.321 . S
C449 C450 1.403 . S
C449 H470 0.934 . S
C450 C445 1.413 . S
C450 C449 1.403 . S
C450 H471 0.930 . S
C451 O462 1.286 . S
C451 O463 1.250 1_455 S
O452 Ho432 2.322 . S
O452 C434 1.259 . S
O453 Ho433 2.346 1_655 S
O453 C434 1.268 . S
O454 Ho432 2.378 . S
O454 C435 1.215 . S
O455 Ho432 2.524 . S
O455 C435 1.289 . S
O456 Ho432 2.381 . S
O456 C442 1.281 . S
O457 Ho432 2.669 1_455 S
O457 Ho433 2.305 . S
O457 C442 1.252 1_455 S
O458 Ho433 2.322 . S
O458 C443 1.259 . S
O459 Ho432 2.346 1_455 S
O459 C443 1.268 . S
O460 Ho433 2.378 . S
O460 C444 1.215 . S
O461 Ho433 2.524 . S
O461 C444 1.289 . S
O462 Ho433 2.381 . S
O462 C451 1.286 . S
O463 Ho432 2.305 . S
O463 Ho433 2.669 1_655 S
O463 C451 1.250 1_655 S
H464 C437 0.930 1_556 S
H465 C438 0.931 . S
H466 C440 0.934 . S
H467 C441 0.930 . S
H468 C446 0.930 . S
H469 C447 0.931 . S
H470 C449 0.934 . S
H471 C450 0.930 . S
C472 C473 1.353 1_565 S
C472 C474 1.419 . S
C472 H476 0.930 . S
C473 C472 1.353 1_545 S
C473 C482 1.447 . S
C474 C472 1.419 . S
C474 C475 1.363 1_565 S
C474 H477 0.929 . S
C475 C474 1.363 1_545 S
C475 C481 1.428 . S
H476 C472 0.930 . S
H477 C474 0.929 . S
S478 N479 1.613 . S
S478 N480 1.610 . S
N479 S478 1.613 . S
N479 C482 1.350 . S
N480 S478 1.610 . S
N480 C481 1.351 . S
C481 C475 1.428 . S
C481 N480 1.351 . S
C481 C482 1.434 . S
C482 C473 1.447 . S
C482 N479 1.350 . S
C482 C481 1.434 . S
C483 C484 1.369 . S
C483 C485 1.419 . S
C483 H487 0.930 . S
C484 C483 1.369 . S
C484 C493 1.429 . S
C485 C483 1.419 . S
C485 C486 1.363 . S
C485 H488 0.929 . S
C486 C485 1.363 . S
C486 C492 1.428 . S
H487 C483 0.930 . S
H488 C485 0.929 . S
S489 N490 1.613 . S
S489 N491 1.610 . S
N490 S489 1.613 . S
N490 C493 1.350 . S
N491 S489 1.610 . S
N491 C492 1.351 . S
C492 C486 1.428 . S
C492 N491 1.351 . S
C492 C493 1.434 . S
C493 C484 1.429 . S
C493 N490 1.350 . S
C493 C492 1.434 . S
C494 C495 1.369 . S
C494 C496 1.419 . S
C494 H498 0.930 . S
C495 C494 1.369 . S
C495 C504 1.429 . S
C496 C494 1.419 . S
C496 C497 1.363 . S
C496 H499 0.929 . S
C497 C496 1.363 . S
C497 C503 1.428 . S
H498 C494 0.930 . S
H499 C496 0.929 . S
S500 N501 1.613 . S
S500 N502 1.610 . S
N501 S500 1.613 . S
N501 C504 1.350 . S
N502 S500 1.610 . S
N502 C503 1.351 . S
C503 C497 1.428 . S
C503 N502 1.351 . S
C503 C504 1.434 . S
C504 C495 1.429 . S
C504 N501 1.350 . S
C504 C503 1.434 . S
C505 C506 1.369 1_655 S
C505 C507 1.419 . S
C505 H509 0.930 . S
C506 C505 1.369 1_455 S
C506 C515 1.429 . S
C507 C505 1.419 . S
C507 C508 1.363 1_655 S
C507 H510 0.929 . S
C508 C507 1.363 1_455 S
C508 C514 1.428 . S
H509 C505 0.930 . S
H510 C507 0.929 . S
S511 N512 1.613 . S
S511 N513 1.610 . S
N512 S511 1.613 . S
N512 C515 1.350 . S
N513 S511 1.610 . S
N513 C514 1.351 . S
C514 C508 1.428 . S
C514 N513 1.351 . S
C514 C515 1.434 . S
C515 C506 1.429 . S
C515 N512 1.350 . S
C515 C514 1.434 . S
C516 C517 1.369 . S
C516 C518 1.419 . S
C516 H520 0.930 . S
C517 C516 1.369 . S
C517 C526 1.429 1_565 S
C518 C516 1.419 . S
C518 C519 1.373 . S
C518 H521 0.929 . S
C519 C518 1.373 . S
C519 C525 1.418 1_565 S
H520 C516 0.930 . S
H521 C518 0.929 . S
S522 N523 1.641 . S
S522 N524 1.629 . S
N523 S522 1.641 . S
N523 C526 1.350 . S
N524 S522 1.629 . S
N524 C525 1.351 . S
C525 C519 1.418 1_545 S
C525 N524 1.351 . S
C525 C526 1.434 . S
C526 C517 1.429 1_545 S
C526 N523 1.350 . S
C526 C525 1.434 . S
C527 C528 1.369 . S
C527 C529 1.419 . S
C527 H531 0.930 . S
C528 C527 1.369 . S
C528 C537 1.429 . S
C529 C527 1.419 . S
C529 C530 1.363 . S
C529 H532 0.929 . S
C530 C529 1.363 . S
C530 C536 1.428 . S
H531 C527 0.930 . S
H532 C529 0.929 . S
S533 N534 1.613 . S
S533 N535 1.610 1_554 S
N534 S533 1.613 . S
N534 C537 1.350 . S
N535 S533 1.610 1_556 S
N535 C536 1.351 1_556 S
C536 C530 1.428 . S
C536 N535 1.351 1_554 S
C536 C537 1.434 . S
C537 C528 1.429 . S
C537 N534 1.350 . S
C537 C536 1.434 . S
C538 C539 1.369 . S
C538 C540 1.419 . S
C538 H542 0.930 . S
C539 C538 1.369 . S
C539 C548 1.429 . S
C540 C538 1.419 . S
C540 C541 1.363 . S
C540 H543 0.929 . S
C541 C540 1.363 . S
C541 C547 1.428 . S
H542 C538 0.930 . S
H543 C540 0.929 . S
S544 N545 1.613 . S
S544 N546 1.610 . S
N545 S544 1.613 . S
N545 C548 1.350 . S
N546 S544 1.610 . S
N546 C547 1.351 . S
C547 C541 1.428 . S
C547 N546 1.351 . S
C547 C548 1.434 . S
C548 C539 1.429 . S
C548 N545 1.350 . S
C548 C547 1.434 . S
C549 C550 1.383 . S
C549 C551 1.419 . S
C549 H553 0.930 . S
C550 C549 1.383 . S
C550 C559 1.415 1_655 S
C551 C549 1.419 . S
C551 C552 1.370 . S
C551 H554 0.929 . S
C552 C551 1.370 . S
C552 C558 1.435 1_655 S
H553 C549 0.930 . S
H554 C551 0.929 . S
S555 N556 1.613 . S
S555 N557 1.610 . S
N556 S555 1.613 . S
N556 C559 1.350 . S
N557 S555 1.610 . S
N557 C558 1.351 . S
C558 C552 1.435 1_455 S
C558 N557 1.351 . S
C558 C559 1.434 . S
C559 C550 1.415 1_455 S
C559 N556 1.350 . S
C559 C558 1.434 . S
C560 C561 1.369 . S
C560 C562 1.419 . S
C560 H564 0.930 1_655 S
C561 C560 1.369 . S
C561 C570 1.429 . S
C562 C560 1.419 . S
C562 C563 1.363 . S
C562 H565 0.929 . S
C563 C562 1.363 . S
C563 C569 1.428 . S
H564 C560 0.930 1_455 S
H565 C562 0.929 . S
S566 N567 1.613 . S
S566 N568 1.610 . S
N567 S566 1.613 . S
N567 C570 1.350 . S
N568 S566 1.610 . S
N568 C569 1.351 . S
C569 C563 1.428 . S
C569 N568 1.351 . S
C569 C570 1.434 . S
C570 C561 1.429 . S
C570 N567 1.350 . S
C570 C569 1.434 . S
C571 C572 1.369 . S
C571 C573 1.419 . S
C571 H575 0.930 . S
C572 C571 1.369 . S
C572 C581 1.429 . S
C573 C571 1.419 . S
C573 C574 1.363 . S
C573 H576 0.929 . S
C574 C573 1.363 . S
C574 C580 1.428 . S
H575 C571 0.930 . S
H576 C573 0.929 . S
S577 N578 1.613 . S
S577 N579 1.610 . S
N578 S577 1.613 . S
N578 C581 1.350 . S
N579 S577 1.610 . S
N579 C580 1.351 . S
C580 C574 1.428 . S
C580 N579 1.351 . S
C580 C581 1.434 . S
C581 C572 1.429 . S
C581 N578 1.350 . S
C581 C580 1.434 . S
C582 C583 1.369 . S
C582 C584 1.419 . S
C582 H586 0.930 . S
C583 C582 1.369 . S
C583 C592 1.429 . S
C584 C582 1.419 . S
C584 C585 1.363 . S
C584 H587 0.929 . S
C585 C584 1.363 . S
C585 C591 1.428 . S
H586 C582 0.930 . S
H587 C584 0.929 . S
S588 N589 1.613 . S
S588 N590 1.610 . S
N589 S588 1.613 . S
N589 C592 1.350 . S
N590 S588 1.610 . S
N590 C591 1.351 . S
C591 C585 1.428 . S
C591 N590 1.351 . S
C591 C592 1.434 . S
C592 C583 1.429 . S
C592 N589 1.350 . S
C592 C591 1.434 . S
C593 C594 1.369 . S
C593 C595 1.419 . S
C593 H597 0.930 . S
C594 C593 1.369 . S
C594 C603 1.429 . S
C595 C593 1.419 . S
C595 C596 1.363 . S
C595 H598 0.929 . S
C596 C595 1.363 . S
C596 C602 1.428 . S
H597 C593 0.930 . S
H598 C595 0.929 . S
S599 N600 1.613 . S
S599 N601 1.610 . S
N600 S599 1.613 . S
N600 C603 1.350 . S
N601 S599 1.610 . S
N601 C602 1.351 . S
C602 C596 1.428 . S
C602 N601 1.351 . S
C602 C603 1.434 . S
C603 C594 1.429 . S
C603 N600 1.350 . S
C603 C602 1.434 . S
C604 C605 1.369 . S
C604 C606 1.419 . S
C604 H608 0.930 . S
C605 C604 1.369 . S
C605 C614 1.429 . S
C606 C604 1.419 . S
C606 C607 1.363 . S
C606 H609 0.929 . S
C607 C606 1.363 . S
C607 C613 1.428 . S
H608 C604 0.930 . S
H609 C606 0.929 . S
S610 N611 1.613 . S
S610 N612 1.610 1_655 S
N611 S610 1.613 . S
N611 C614 1.350 1_656 S
N612 S610 1.610 1_455 S
N612 C613 1.351 1_556 S
C613 C607 1.428 . S
C613 N612 1.351 1_554 S
C613 C614 1.434 . S
C614 C605 1.429 . S
C614 N611 1.350 1_454 S
C614 C613 1.434 . S
C615 C616 1.408 . S
C615 C617 1.419 . S
C615 H619 0.930 . S
C616 C615 1.408 . S
C616 C625 1.421 1_545 S
C617 C615 1.419 . S
C617 C618 1.363 . S
C617 H620 0.929 . S
C618 C617 1.363 . S
C618 C624 1.428 . S
H619 C615 0.930 . S
H620 C617 0.929 . S
S621 N622 1.613 . S
S621 N623 1.610 1_565 S
N622 S621 1.613 . S
N622 C625 1.350 . S
N623 S621 1.610 1_545 S
N623 C624 1.351 . S
C624 C618 1.428 . S
C624 N623 1.351 . S
C624 C625 1.434 1_545 S
C625 C616 1.421 1_565 S
C625 N622 1.350 . S
C625 C624 1.434 1_565 S
C626 C627 1.369 . S
C626 C628 1.419 . S
C626 H630 0.930 . S
C627 C626 1.369 . S
C627 C636 1.429 . S
C628 C626 1.419 . S
C628 C629 1.363 . S
C628 H631 0.929 . S
C629 C628 1.363 . S
C629 C635 1.428 . S
H630 C626 0.930 . S
H631 C628 0.929 . S
S632 N633 1.613 . S
S632 N634 1.610 . S
N633 S632 1.613 . S
N633 C636 1.350 . S
N634 S632 1.610 . S
N634 C635 1.351 . S
C635 C629 1.428 . S
C635 N634 1.351 . S
C635 C636 1.434 . S
C636 C627 1.429 . S
C636 N633 1.350 . S
C636 C635 1.434 . S
C637 C638 1.369 . S
C637 C639 1.419 . S
C637 H641 0.930 . S
C638 C637 1.369 . S
C638 C647 1.429 . S
C639 C637 1.419 . S
C639 C640 1.363 . S
C639 H642 0.929 . S
C640 C639 1.363 . S
C640 C646 1.428 . S
H641 C637 0.930 . S
H642 C639 0.929 . S
S643 N644 1.613 . S
S643 N645 1.610 . S
N644 S643 1.613 . S
N644 C647 1.350 . S
N645 S643 1.610 . S
N645 C646 1.351 . S
C646 C640 1.428 . S
C646 N645 1.351 . S
C646 C647 1.434 . S
C647 C638 1.429 . S
C647 N644 1.350 . S
C647 C646 1.434 . S
C648 C649 1.369 . S
C648 C650 1.419 . S
C648 H652 0.930 . S
C649 C648 1.369 . S
C649 C658 1.429 1_455 S
C650 C648 1.419 . S
C650 C651 1.363 . S
C650 H653 0.929 . S
C651 C650 1.363 . S
C651 C657 1.428 1_455 S
H652 C648 0.930 . S
H653 C650 0.929 . S
S654 N655 1.613 . S
S654 N656 1.610 . S
N655 S654 1.613 . S
N655 C658 1.350 . S
N656 S654 1.610 . S
N656 C657 1.351 . S
C657 C651 1.428 1_655 S
C657 N656 1.351 . S
C657 C658 1.434 . S
C658 C649 1.429 1_655 S
C658 N655 1.350 . S
C658 C657 1.434 . S
C659 C660 1.367 1_565 S
C659 C661 1.418 1_565 S
C659 H663 0.933 . S
C660 C659 1.367 1_545 S
C660 C669 1.429 . S
C661 C659 1.418 1_545 S
C661 C662 1.363 . S
C661 H664 0.929 1_545 S
C662 C661 1.363 . S
C662 C668 1.428 . S
H663 C659 0.933 . S
H664 C661 0.929 1_565 S
S665 N666 1.613 . S
S665 N667 1.610 . S
N666 S665 1.613 . S
N666 C669 1.350 . S
N667 S665 1.610 . S
N667 C668 1.351 . S
C668 C662 1.428 . S
C668 N667 1.351 . S
C668 C669 1.434 . S
C669 C660 1.429 . S
C669 N666 1.350 . S
C669 C668 1.434 . S
C670 C671 1.369 . S
C670 C672 1.419 . S
C670 H674 0.930 . S
C671 C670 1.369 . S
C671 C680 1.429 . S
C672 C670 1.419 . S
C672 C673 1.363 . S
C672 H675 0.929 . S
C673 C672 1.363 . S
C673 C679 1.428 . S
H674 C670 0.930 . S
H675 C672 0.929 . S
S676 N677 1.613 . S
S676 N678 1.610 . S
N677 S676 1.613 . S
N677 C680 1.350 . S
N678 S676 1.610 . S
N678 C679 1.351 . S
C679 C673 1.428 . S
C679 N678 1.351 . S
C679 C680 1.434 . S
C680 C671 1.429 . S
C680 N677 1.350 . S
C680 C679 1.434 . S
C681 C682 1.369 . S
C681 C683 1.419 . S
C681 H685 0.930 . S
C682 C681 1.369 . S
C682 C691 1.429 . S
C683 C681 1.419 . S
C683 C684 1.363 . S
C683 H686 0.929 . S
C684 C683 1.363 . S
C684 C690 1.428 . S
H685 C681 0.930 . S
H686 C683 0.929 . S
S687 N688 1.613 . S
S687 N689 1.610 . S
N688 S687 1.613 . S
N688 C691 1.350 . S
N689 S687 1.610 . S
N689 C690 1.351 . S
C690 C684 1.428 . S
C690 N689 1.351 . S
C690 C691 1.434 . S
C691 C682 1.429 . S
C691 N688 1.350 . S
C691 C690 1.434 . S
C692 C693 1.369 1_455 S
C692 C694 1.419 . S
C692 H696 0.930 . S
C693 C692 1.369 1_655 S
C693 C702 1.429 . S
C694 C692 1.419 . S
C694 C695 1.363 1_455 S
C694 H697 0.929 . S
C695 C694 1.363 1_655 S
C695 C701 1.428 . S
H696 C692 0.930 . S
H697 C694 0.929 . S
S698 N699 1.613 . S
S698 N700 1.610 . S
N699 S698 1.613 . S
N699 C702 1.350 . S
N700 S698 1.610 . S
N700 C701 1.351 . S
C701 C695 1.428 . S
C701 N700 1.351 . S
C701 C702 1.434 . S
C702 C693 1.429 . S
C702 N699 1.350 . S
C702 C701 1.434 . S
C703 C704 1.369 . S
C703 C705 1.419 . S
C703 H707 0.930 . S
C704 C703 1.369 . S
C704 C713 1.429 . S
C705 C703 1.419 . S
C705 C706 1.363 . S
C705 H708 0.929 . S
C706 C705 1.363 . S
C706 C712 1.428 . S
H707 C703 0.930 . S
H708 C705 0.929 . S
S709 N710 1.613 . S
S709 N711 1.611 . S
N710 S709 1.613 . S
N710 C713 1.350 . S
N711 S709 1.611 . S
N711 C712 1.351 . S
C712 C706 1.428 . S
C712 N711 1.351 . S
C712 C713 1.434 . S
C713 C704 1.429 . S
C713 N710 1.350 . S
C713 C712 1.434 . S
C714 C715 1.369 . S
C714 C716 1.419 . S
C714 H718 0.930 . S
C715 C714 1.369 . S
C715 C724 1.429 . S
C716 C714 1.419 . S
C716 C717 1.363 . S
C716 H719 0.929 . S
C717 C716 1.363 . S
C717 C723 1.428 . S
H718 C714 0.930 . S
H719 C716 0.929 . S
S720 N721 1.613 . S
S720 N722 1.610 . S
N721 S720 1.613 . S
N721 C724 1.350 . S
N722 S720 1.610 . S
N722 C723 1.351 . S
C723 C717 1.428 . S
C723 N722 1.351 . S
C723 C724 1.434 . S
C724 C715 1.429 . S
C724 N721 1.350 . S
C724 C723 1.434 . S
C725 C726 1.369 . S
C725 C727 1.419 . S
C725 H729 0.930 . S
C726 C725 1.369 . S
C726 C735 1.429 . S
C727 C725 1.419 . S
C727 C728 1.363 . S
C727 H730 0.929 . S
C728 C727 1.363 . S
C728 C734 1.428 . S
H729 C725 0.930 . S
H730 C727 0.929 . S
S731 N732 1.613 . S
S731 N733 1.610 . S
N732 S731 1.613 . S
N732 C735 1.350 . S
N733 S731 1.610 . S
N733 C734 1.351 . S
C734 C728 1.428 . S
C734 N733 1.351 . S
C734 C735 1.434 . S
C735 C726 1.429 . S
C735 N732 1.350 . S
C735 C734 1.434 . S
C473 C255 2.513 1_545 S
C475 C322 2.823 1_545 S
C486 C362 2.852 . S
C484 C294 2.497 . S
C497 C402 2.842 . S
C495 C177 2.537 . S
C508 C442 2.835 1_455 S
C506 C216 2.518 1_455 S
C519 C331 2.823 1_564 S
C517 C99 2.517 . S
C528 C138 2.502 . S
C530 C371 2.856 1_554 S
C539 C21 2.536 . S
C541 C411 2.840 1_554 S
C550 C60 2.521 . S
C552 C451 2.819 1_654 S
C563 C328 0.794 . S
C561 C196 0.802 . S
C574 C368 0.798 . S
C572 C235 0.785 . S
C585 C408 0.758 . S
C583 C289 0.777 . S
C594 C157 0.785 . S
C596 C448 0.760 . S
C605 C40 0.811 1_455 S
C607 C319 0.790 . S
C618 C359 0.781 . S
C616 C79 0.807 1_545 S
C629 C399 0.755 . S
C627 C133 0.774 . S
C638 C1 0.761 . S
C640 C439 0.784 . S
C649 C211 3.227 . S
C651 C323 3.751 . S
C660 C250 3.194 . S
C662 C363 3.728 . S
C673 C403 3.726 . S
C671 C274 3.199 . S
C684 C443 3.743 . S
C682 C172 3.214 . S
C693 C55 3.224 1_655 S
C695 C314 3.761 . S
C706 C354 3.726 . S
C704 C94 3.201 1_565 S
C717 C394 3.728 . S
C715 C118 3.206 . S
C726 C16 3.221 . S
C728 C434 3.748 . S
