# Generated by pormake.
# Topology anh, (6,3)-cn, num edge types: 1
# Building blocks:
#     Node 0, Type 0, BuildingBlock: BETDAH_clean_sbu_0, # of connection points: 6
#     Node 1, Type 0, BuildingBlock: BETDAH_clean_sbu_0, # of connection points: 6
#     Node 2, Type 0, BuildingBlock: BETDAH_clean_sbu_0, # of connection points: 6
#     Node 3, Type 1, BuildingBlock: KAKCAD_clean_linker_0, # of connection points: 3
#     Node 4, Type 1, BuildingBlock: KAKCAD_clean_linker_0, # of connection points: 3
#     Node 5, Type 1, BuildingBlock: KAKCAD_clean_linker_0, # of connection points: 3
#     Node 6, Type 1, BuildingBlock: KAKCAD_clean_linker_0, # of connection points: 3
#     Node 7, Type 1, BuildingBlock: KAKCAD_clean_linker_0, # of connection points: 3
#     Node 8, Type 1, BuildingBlock: KAKCAD_clean_linker_0, # of connection points: 3
#     Edge 9, Type (0, 1), BuildingBlock: AJUNOK_clean_linker_0, # of connection points: 2
#     Edge 10, Type (0, 1), BuildingBlock: AJUNOK_clean_linker_0, # of connection points: 2
#     Edge 11, Type (0, 1), BuildingBlock: AJUNOK_clean_linker_0, # of connection points: 2
#     Edge 12, Type (0, 1), BuildingBlock: AJUNOK_clean_linker_0, # of connection points: 2
#     Edge 13, Type (0, 1), BuildingBlock: AJUNOK_clean_linker_0, # of connection points: 2
#     Edge 14, Type (0, 1), BuildingBlock: AJUNOK_clean_linker_0, # of connection points: 2
#     Edge 15, Type (0, 1), BuildingBlock: AJUNOK_clean_linker_0, # of connection points: 2
#     Edge 16, Type (0, 1), BuildingBlock: AJUNOK_clean_linker_0, # of connection points: 2
#     Edge 17, Type (0, 1), BuildingBlock: AJUNOK_clean_linker_0, # of connection points: 2
#     Edge 18, Type (0, 1), BuildingBlock: AJUNOK_clean_linker_0, # of connection points: 2
#     Edge 19, Type (0, 1), BuildingBlock: AJUNOK_clean_linker_0, # of connection points: 2
#     Edge 20, Type (0, 1), BuildingBlock: AJUNOK_clean_linker_0, # of connection points: 2
#     Edge 21, Type (0, 1), BuildingBlock: AJUNOK_clean_linker_0, # of connection points: 2
#     Edge 22, Type (0, 1), BuildingBlock: AJUNOK_clean_linker_0, # of connection points: 2
#     Edge 23, Type (0, 1), BuildingBlock: AJUNOK_clean_linker_0, # of connection points: 2
#     Edge 24, Type (0, 1), BuildingBlock: AJUNOK_clean_linker_0, # of connection points: 2
#     Edge 25, Type (0, 1), BuildingBlock: AJUNOK_clean_linker_0, # of connection points: 2
#     Edge 26, Type (0, 1), BuildingBlock: AJUNOK_clean_linker_0, # of connection points: 2
# Relax obj value: 0.211
# Max RMSD: 0.226
# Mean RMSD: 0.164
data_MOF--net-anh--node1-BETDAH_clean_sbu_0--node2-KAKCAD_clean_linker_0--edge1-AJUNOK_clean_linker_0
_symmetry_space_group_name_H-M    P1
_symmetry_Int_Tables_number       1
_symmetry_cell_setting            triclinic
loop_
_symmetry_equiv_pos_as_xyz
'x, y, z'
_cell_length_a     30.779336
_cell_length_b     35.865177
_cell_length_c     52.632464
_cell_angle_alpha  92.283751
_cell_angle_beta   89.627457
_cell_angle_gamma 130.49196
loop_
_atom_site_label
_atom_site_type_symbol
_atom_site_fract_x
_atom_site_fract_y
_atom_site_fract_z
_atom_type_partial_charge
Ho0 Ho 0.10129 0.51453 0.14993 0.0
Ho1 Ho 1.04265 0.55244 0.14857 0.0
C2 C 0.17822 0.63378 0.15086 0.0
C3 C 0.17488 0.50381 0.14834 0.0
C4 C 0.22814 0.53254 0.16361 0.0
C5 C 0.27958 0.57351 0.15361 0.0
C6 C 0.33131 0.59235 0.16508 0.0
C7 C 0.33076 0.56717 0.18496 0.0
C8 C 0.28105 0.53678 0.19907 0.0
C9 C 0.22902 0.51785 0.18788 0.0
C10 C 0.06263 0.51586 0.19581 0.0
C11 C 0.96846 0.43357 0.14579 0.0
C12 C 0.99761 0.58657 0.16837 0.0
C13 C 0.95782 0.56735 0.18912 0.0
C14 C 0.93988 0.52425 0.19988 0.0
C15 C 0.88434 0.4907 0.20846 0.0
C16 C 0.84756 0.5007 0.206 0.0
C17 C 0.87064 0.54887 0.20169 0.0
C18 C 0.92569 0.58198 0.19241 0.0
C19 C 0.05725 0.54056 0.09876 0.0
O20 O 0.17666 0.597 0.15592 0.0
O21 O 0.13071 0.62474 0.14474 0.0
O22 O 0.12786 0.4747 0.16089 0.0
O23 O 0.17193 0.52718 0.13095 0.0
O24 O 0.05862 0.47984 0.1866 0.0
O25 O 0.08716 0.54945 0.18008 0.0
O26 O 0.97042 0.47006 0.15449 0.0
O27 O 1.01544 0.444 0.13708 0.0
O28 O 0.97654 0.55729 0.1479 0.0
O29 O 1.04881 0.60379 0.17467 0.0
O30 O 1.03416 0.55861 0.10679 0.0
O31 O 0.07348 0.53097 0.11752 0.0
H32 H 0.28016 0.58766 0.13569 0.0
H33 H 0.37016 0.6182 0.15479 0.0
H34 H 0.28046 0.51889 0.21535 0.0
H35 H 0.18994 0.48814 0.19685 0.0
H36 H 0.96484 0.51288 0.19775 0.0
H37 H 0.86737 0.45387 0.21199 0.0
H38 H 0.84274 0.55728 0.20009 0.0
H39 H 0.93947 0.61548 0.18445 0.0
Ho40 Ho 0.60354 0.01496 0.47 0.0
Ho41 Ho 0.53134 0.04038 0.46619 0.0
C42 C 0.46518 0.92685 0.46338 0.0
C43 C 0.651 0.97887 0.48077 0.0
C44 C 0.63277 0.92991 0.48379 0.0
C45 C 0.59857 0.90083 0.50403 0.0
C46 C 0.5859 0.85628 0.50748 0.0
C47 C 0.60728 0.84033 0.4908 0.0
C48 C 0.63882 0.86814 0.46988 0.0
C49 C 0.65179 0.91271 0.46651 0.0
C50 C 0.59222 0.0331 0.42241 0.0
C51 C 0.67125 0.12945 0.46964 0.0
C52 C 0.48767 0.07992 0.45602 0.0
C53 C 0.50133 0.12611 0.46506 0.0
C54 C 0.52939 0.16592 0.44909 0.0
C55 C 0.54355 0.2101 0.45764 0.0
C56 C 0.52962 0.21511 0.48227 0.0
C57 C 0.50167 0.17542 0.49825 0.0
C58 C 0.48772 0.13138 0.48977 0.0
C59 C 0.54664 0.02629 0.51454 0.0
O60 O 0.51354 0.94033 0.47294 0.0
O61 O 0.46352 0.96009 0.45496 0.0
O62 O 0.64672 0.98856 0.45774 0.0
O63 O 0.63567 0.99528 0.49807 0.0
O64 O 0.63968 0.04801 0.43247 0.0
O65 O 0.55201 1.00789 0.43778 0.0
O66 O 0.6205 0.11564 0.46412 0.0
O67 O 0.6755 0.09652 0.47576 0.0
O68 O 0.46649 0.04611 0.47262 0.0
O69 O 0.52585 0.0845 0.44188 0.0
O70 O 0.49985 0.01425 0.50559 0.0
O71 O 0.58464 0.04902 0.4981 0.0
H72 H 0.58289 0.91296 0.51755 0.0
H73 H 0.5615 0.83535 0.52378 0.0
H74 H 0.65488 0.85607 0.45654 0.0
H75 H 0.67785 0.93433 0.45068 0.0
H76 H 0.54032 0.16286 0.42997 0.0
H77 H 0.56438 0.24001 0.44485 0.0
H78 H 0.49074 0.17855 0.51737 0.0
H79 H 0.46637 0.10159 0.50265 0.0
Ho80 Ho 0.64092 0.59243 0.84041 0.0
Ho81 Ho 0.55937 0.48714 0.83438 0.0
C82 C 0.4984 0.53639 0.84279 0.0
C83 C 0.69459 0.68399 0.83317 0.0
C84 C 0.67707 0.71218 0.82632 0.0
C85 C 0.63084 0.6922 0.80935 0.0
C86 C 0.61568 0.71994 0.80273 0.0
C87 C 0.64602 0.76791 0.81316 0.0
C88 C 0.69165 0.78744 0.83042 0.0
C89 C 0.70697 0.7598 0.83693 0.0
C90 C 0.62454 0.55021 0.88414 0.0
C91 C 0.70178 0.54246 0.83985 0.0
C92 C 0.4992 0.39267 0.82928 0.0
C93 C 0.50869 0.35729 0.82635 0.0
C94 C 0.54611 0.35879 0.84246 0.0
C95 C 0.55476 0.32514 0.83837 0.0
C96 C 0.52662 0.28987 0.81803 0.0
C97 C 0.48966 0.28887 0.8019 0.0
C98 C 0.48055 0.32197 0.80613 0.0
C99 C 0.58105 0.53378 0.79107 0.0
O100 O 0.55316 0.57767 0.84015 0.0
O101 O 0.48984 0.49456 0.84335 0.0
O102 O 0.67986 0.66546 0.8556 0.0
O103 O 0.68714 0.65336 0.81558 0.0
O104 O 0.67306 0.59104 0.87773 0.0
O105 O 0.58504 0.5355 0.86816 0.0
O106 O 0.64619 0.501 0.84 0.0
O107 O 0.71137 0.58463 0.83816 0.0
O108 O 0.51541 0.42102 0.81035 0.0
O109 O 0.51111 0.41614 0.8512 0.0
O110 O 0.53059 0.49912 0.79912 0.0
O111 O 0.618 0.54389 0.80712 0.0
H112 H 0.60665 0.65529 0.80109 0.0
H113 H 0.58017 0.70389 0.78947 0.0
H114 H 0.71641 0.82456 0.83844 0.0
H115 H 0.74264 0.77584 0.85009 0.0
H116 H 0.56885 0.386 0.85804 0.0
H117 H 0.58311 0.32638 0.85117 0.0
H118 H 0.46837 0.26289 0.78573 0.0
H119 H 0.45194 0.32041 0.79331 0.0
C120 C 0.59061 0.07764 0.29982 0.0
C121 C 0.57588 0.03764 0.31297 0.0
C122 C 0.59183 0.07699 0.27321 0.0
C123 C 0.57871 0.0364 0.25915 0.0
C124 C 0.56341 0.99621 0.27247 0.0
C125 C 0.56164 0.99671 0.29902 0.0
C126 C 0.5807 0.03575 0.23076 0.0
C127 C 0.62305 0.07837 0.21807 0.0
C128 C 0.62485 0.07909 0.19127 0.0
C129 C 0.58391 0.03373 0.17699 0.0
C130 C 0.54166 0.98953 0.18972 0.0
C131 C 0.54019 0.9922 0.21639 0.0
C132 C 0.4975 0.93919 0.17688 0.0
C133 C 0.45866 0.92951 0.15805 0.0
C134 C 0.48726 0.89842 0.18722 0.0
C135 C 0.43794 0.85005 0.18065 0.0
C136 C 0.39684 0.84001 0.16308 0.0
C137 C 0.66985 0.12854 0.17977 0.0
C138 C 0.68237 0.17082 0.1914 0.0
C139 C 0.70508 0.13582 0.15974 0.0
C140 C 0.75204 0.18386 0.1523 0.0
C141 C 0.76515 0.2261 0.16462 0.0
C142 C 0.72938 0.2182 0.18444 0.0
C143 C 0.40935 0.88067 0.1511 0.0
H144 H 0.6012 0.10946 0.31014 0.0
H145 H 0.60271 0.10819 0.26367 0.0
H146 H 0.5539 0.96462 0.26242 0.0
H147 H 0.55074 0.96562 0.30872 0.0
H148 H 0.6556 0.11153 0.22934 0.0
H149 H 0.50635 0.95962 0.22617 0.0
H150 H 0.58482 0.03283 0.15641 0.0
H151 H 0.46472 0.95963 0.14965 0.0
H152 H 0.51617 0.9041 0.20168 0.0
H153 H 0.43085 0.82056 0.19041 0.0
H154 H 0.6565 0.16747 0.20672 0.0
H155 H 0.6976 0.10458 0.1504 0.0
H156 H 0.38046 0.87501 0.13668 0.0
H157 H 0.73834 0.24886 0.19532 0.0
H158 H 0.77825 0.18791 0.13697 0.0
C159 C 0.57726 0.56871 0.66848 0.0
C160 C 0.60886 0.56022 0.6822 0.0
C161 C 0.57583 0.56619 0.64196 0.0
C162 C 0.60643 0.55552 0.62841 0.0
C163 C 0.63919 0.54814 0.64213 0.0
C164 C 0.64021 0.55028 0.66876 0.0
C165 C 0.60248 0.55083 0.60012 0.0
C166 C 0.59968 0.5819 0.58629 0.0
C167 C 0.59113 0.57549 0.55978 0.0
C168 C 0.58738 0.53851 0.54688 0.0
C169 C 0.59137 0.50773 0.56025 0.0
C170 C 0.5987 0.51396 0.58688 0.0
C171 C 0.58602 0.46803 0.54649 0.0
C172 C 0.54351 0.43835 0.52741 0.0
C173 C 0.62269 0.45897 0.55265 0.0
C174 C 0.61634 0.42045 0.5403 0.0
C175 C 0.57322 0.39034 0.52156 0.0
C176 C 0.58599 0.60754 0.54577 0.0
C177 C 0.55539 0.62093 0.55614 0.0
C178 C 0.61312 0.62634 0.52248 0.0
C179 C 0.61201 0.65974 0.51049 0.0
C180 C 0.58431 0.67531 0.52173 0.0
C181 C 0.55473 0.65461 0.54428 0.0
C182 C 0.53709 0.39978 0.51512 0.0
H183 H 0.55265 0.57643 0.67831 0.0
H184 H 0.54934 0.57127 0.63211 0.0
H185 H 0.66368 0.5403 0.63231 0.0
H186 H 0.66407 0.5426 0.67878 0.0
H187 H 0.60461 0.61156 0.59621 0.0
H188 H 0.59922 0.48882 0.59733 0.0
H189 H 0.58094 0.53341 0.5264 0.0
H190 H 0.51425 0.44414 0.52243 0.0
H191 H 0.65613 0.48153 0.56712 0.0
H192 H 0.6441 0.41336 0.5459 0.0
H193 H 0.53284 0.60611 0.57373 0.0
H194 H 0.63698 0.61669 0.51398 0.0
H195 H 0.50342 0.37691 0.50076 0.0
H196 H 0.53296 0.66593 0.55332 0.0
H197 H 0.63415 0.67445 0.49281 0.0
C198 C 0.14253 0.56788 0.97696 0.0
C199 C 0.08982 0.53609 0.98915 0.0
C200 C 0.14515 0.56776 0.95026 0.0
C201 C 0.0951 0.53606 0.93494 0.0
C202 C 1.04255 0.50356 0.94717 0.0
C203 C 1.04 0.5034 0.97384 0.0
C204 C 0.09735 0.53758 0.90638 0.0
C205 C 0.13868 0.53909 0.89333 0.0
C206 C 0.14332 0.54008 0.86663 0.0
C207 C 0.1005 0.54006 0.85287 0.0
C208 C 0.05615 0.53887 0.86617 0.0
C209 C 0.05793 0.53763 0.89287 0.0
C210 C 1.00458 0.53663 0.85596 0.0
C211 C 1.01061 0.57537 0.84437 0.0
C212 C 0.94722 0.49958 0.86417 0.0
C213 C 0.90095 0.50043 0.86119 0.0
C214 C 0.90601 0.53856 0.84947 0.0
C215 C 0.19539 0.54253 0.85682 0.0
C216 C 0.25311 0.58114 0.86577 0.0
C217 C 0.1893 0.50244 0.84507 0.0
C218 C 0.23637 0.5018 0.84226 0.0
C219 C 0.29445 0.54094 0.85112 0.0
C220 C 0.29983 0.5806 0.86299 0.0
C221 C 0.9637 0.57611 0.84117 0.0
H222 H 0.18188 0.59307 0.9881 0.0
H223 H 0.18636 0.59338 0.9416 0.0
H224 H 1.00317 0.47819 0.93607 0.0
H225 H 0.9987 0.47845 0.98252 0.0
H226 H 0.16776 0.53857 0.90449 0.0
H227 H 1.02782 0.53748 0.9038 0.0
H228 H 0.10158 0.54082 0.83234 0.0
H229 H 1.05269 0.60673 0.83844 0.0
H230 H 0.93798 0.46946 0.87422 0.0
H231 H 0.86106 0.47084 0.86946 0.0
H232 H 0.26235 0.61234 0.87616 0.0
H233 H 0.14697 0.46994 0.83869 0.0
H234 H 0.97354 0.60737 0.83222 0.0
H235 H 0.34046 0.61168 0.8715 0.0
H236 H 0.22639 0.46938 0.83314 0.0
C237 C 1.00478 0.50362 0.31982 0.0
C238 C 0.05561 0.52937 0.30619 0.0
C239 C 1.00593 0.50308 0.34642 0.0
C240 C 0.05792 0.5278 0.36007 0.0
C241 C 0.1087 0.55331 0.34631 0.0
C242 C 0.10755 0.55419 0.31976 0.0
C243 C 0.0594 0.52712 0.38848 0.0
C244 C 1.01635 0.48467 0.40123 0.0
C245 C 1.01664 0.48326 0.428 0.0
C246 C 0.06328 0.52618 0.44219 0.0
C247 C 0.10758 0.5694 0.42948 0.0
C248 C 0.10427 0.56901 0.40286 0.0
C249 C 0.15919 0.61618 0.44244 0.0
C250 C 0.15572 0.6494 0.45524 0.0
C251 C 0.21389 0.63316 0.43638 0.0
C252 C 0.26321 0.68227 0.44161 0.0
C253 C 0.25972 0.7165 0.4529 0.0
C254 C 0.96718 0.43596 0.4398 0.0
C255 C 0.91111 0.41005 0.43013 0.0
C256 C 0.97503 0.41312 0.45818 0.0
C257 C 0.92875 0.36502 0.46555 0.0
C258 C 0.87319 0.33818 0.45471 0.0
C259 C 0.86533 0.36229 0.43729 0.0
C260 C 0.20537 0.69883 0.46056 0.0
H261 H 0.96409 0.48406 0.30986 0.0
H262 H 0.96603 0.48361 0.35629 0.0
H263 H 0.14944 0.57189 0.35599 0.0
H264 H 0.14727 0.5733 0.30976 0.0
H265 H 0.98268 0.4518 0.39008 0.0
H266 H 0.13713 0.60227 0.39326 0.0
H267 H 0.065 0.52605 0.46272 0.0
H268 H 0.11431 0.63803 0.45965 0.0
H269 H 0.2182 0.6089 0.42619 0.0
H270 H 0.30416 0.69384 0.43603 0.0
H271 H 0.90274 0.42629 0.41621 0.0
H272 H 1.0173 0.43159 0.46612 0.0
H273 H 0.20079 0.72388 0.46938 0.0
H274 H 0.82384 0.34359 0.42837 0.0
H275 H 0.93678 0.34883 0.47963 0.0
C276 C 0.54762 0.98434 0.63569 0.0
C277 C 0.57825 0.02937 0.62387 0.0
C278 C 0.54992 0.98303 0.66221 0.0
C279 C 0.58305 0.02677 0.67751 0.0
C280 C 0.61514 0.07179 0.66554 0.0
C281 C 0.61283 0.07306 0.63909 0.0
C282 C 0.58323 0.02577 0.70584 0.0
C283 C 0.58505 0.99272 0.71813 0.0
C284 C 0.586 0.99231 0.74489 0.0
C285 C 0.58514 0.02571 0.75939 0.0
C286 C 0.58309 0.05898 0.74743 0.0
C287 C 0.58172 0.05831 0.7207 0.0
C288 C 0.58141 0.09417 0.76247 0.0
C289 C 0.54675 0.07938 0.78382 0.0
C290 C 0.61212 0.1423 0.75455 0.0
C291 C 0.60585 0.17387 0.7667 0.0
C292 C 0.56889 0.15826 0.78716 0.0
C293 C 0.58918 0.95759 0.75746 0.0
C294 C 0.55602 0.90867 0.74804 0.0
C295 C 0.6271 0.97349 0.77818 0.0
C296 C 0.63311 0.94167 0.78863 0.0
C297 C 0.60092 0.89309 0.77875 0.0
C298 C 0.56179 0.87685 0.75855 0.0
C299 C 0.54069 0.11116 0.79608 0.0
H300 H 0.52054 0.95006 0.62446 0.0
H301 H 0.52441 0.94772 0.67077 0.0
H302 H 0.64217 0.10621 0.67665 0.0
H303 H 0.63805 0.10835 0.63051 0.0
H304 H 0.58746 0.96819 0.70685 0.0
H305 H 0.57809 0.08259 0.71134 0.0
H306 H 0.58612 0.02581 0.77997 0.0
H307 H 0.52255 0.04264 0.79047 0.0
H308 H 0.64021 0.15533 0.73854 0.0
H309 H 0.62834 0.20994 0.7594 0.0
H310 H 0.52576 0.89502 0.73236 0.0
H311 H 0.65372 0.01107 0.78572 0.0
H312 H 0.51299 0.09847 0.81221 0.0
H313 H 0.53593 0.83952 0.75069 0.0
H314 H 0.66448 0.95569 0.80383 0.0
C315 C 0.5833 0.44857 0.99516 0.0
C316 C 0.58182 0.48463 0.98705 0.0
C317 C 0.56584 0.43065 0.01948 0.0
C318 C 0.54874 0.44983 0.03657 0.0
C319 C 0.5511 0.4883 0.02888 0.0
C320 C 0.56626 0.50471 0.00432 0.0
C321 C 0.52872 0.43027 0.06232 0.0
C322 C 0.5526 0.41407 0.07602 0.0
C323 C 0.53692 0.40029 0.10122 0.0
C324 C 0.49699 0.40173 0.11248 0.0
C325 C 0.47783 0.42234 0.10013 0.0
C326 C 0.4899 0.43286 0.07453 0.0
C327 C 0.45989 0.44468 0.11592 0.0
C328 C 0.4239 0.41976 0.13644 0.0
C329 C 0.48654 0.49424 0.11313 0.0
C330 C 0.47553 0.51784 0.13002 0.0
C331 C 0.43822 0.49226 0.14994 0.0
C332 C 0.57169 0.39713 0.11835 0.0
C333 C 0.5798 0.3633 0.11381 0.0
C334 C 0.59621 0.42867 0.14021 0.0
C335 C 0.62863 0.42682 0.15724 0.0
C336 C 0.63852 0.39428 0.15248 0.0
C337 C 0.61325 0.36185 0.1309 0.0
C338 C 0.41375 0.44365 0.15355 0.0
H339 H 0.59753 0.43381 0.98271 0.0
H340 H 0.56504 0.40131 0.02466 0.0
H341 H 0.54118 0.50605 0.04172 0.0
H342 H 0.5649 0.53272 -0.00121 0.0
H343 H 0.58644 0.41591 0.06803 0.0
H344 H 0.47176 0.44628 0.0649 0.0
H345 H 0.488 0.39386 0.13244 0.0
H346 H 0.40341 0.38177 0.13915 0.0
H347 H 0.51617 0.51488 0.09801 0.0
H348 H 0.49345 0.55502 0.12669 0.0
H349 H 0.56102 0.33872 0.09704 0.0
H350 H 0.59142 0.45579 0.14385 0.0
H351 H 0.38359 0.4232 0.16854 0.0
H352 H 0.62169 0.33729 0.12672 0.0
H353 H 0.64939 0.4534 0.17321 0.0
C354 C 0.41457 0.57042 0.18647 0.0
C355 C 0.35815 0.54672 0.17877 0.0
C356 C 0.44104 0.55212 0.17775 0.0
C357 C 0.41112 0.50997 0.16134 0.0
H358 H 0.43835 0.60346 0.1987 0.0
H359 H 0.48497 0.57119 0.18341 0.0
S360 S 0.26506 0.43809 0.13383 0.0
N361 N 0.27478 0.48079 0.15274 0.0
N362 N 0.32478 0.44736 0.13642 0.0
C363 C 0.35519 0.48657 0.15343 0.0
C364 C 0.32851 0.50472 0.16217 0.0
C365 C 0.71941 0.2192 0.4661 0.0
C366 C 0.72419 0.18282 0.46786 0.0
C367 C 0.76754 0.26892 0.46277 0.0
C368 C 0.82335 0.28525 0.46072 0.0
H369 H 0.67786 0.20923 0.46712 0.0
H370 H 0.76065 0.29482 0.46161 0.0
S371 S 0.85986 0.20485 0.46354 0.0
N372 N 0.79009 0.16713 0.46738 0.0
N373 N 0.87969 0.25964 0.46047 0.0
C374 C 0.82888 0.24929 0.46275 0.0
C375 C 0.77976 0.19858 0.46641 0.0
C376 C 0.62717 0.80295 0.77906 0.0
C377 C 0.63196 0.79839 0.80509 0.0
C378 C 0.61671 0.83326 0.77083 0.0
C379 C 0.61035 0.86015 0.78829 0.0
H380 H 0.6329 0.78381 0.76488 0.0
H381 H 0.61479 0.83644 0.75057 0.0
S382 S 0.61382 0.85733 0.85864 0.0
N383 N 0.62615 0.82092 0.84835 0.0
N384 N 0.6061 0.87768 0.83292 0.0
C385 C 0.61378 0.85506 0.81442 0.0
C386 C 0.62461 0.82423 0.82279 0.0
C387 C 0.741 0.43751 0.20678 0.0
C388 C 0.79197 0.46199 0.19363 0.0
C389 C 0.68858 0.40891 0.19332 0.0
C390 C 0.68644 0.40454 0.16651 0.0
H391 H 0.74199 0.44318 0.22721 0.0
H392 H 0.65014 0.39387 0.20367 0.0
S393 S 0.80883 0.45983 0.12383 0.0
N394 N 0.83755 0.47838 0.1528 0.0
N395 N 0.73925 0.42436 0.12766 0.0
C396 C 0.737 0.42595 0.15348 0.0
C397 C 0.78993 0.45523 0.16703 0.0
C398 C 0.37602 0.84866 0.48101 0.0
C399 C 0.41315 0.87351 0.46063 0.0
C400 C 0.32636 0.79838 0.47841 0.0
C401 C 0.31211 0.77054 0.45539 0.0
H402 H 0.3853 0.8683 0.49911 0.0
H403 H 0.29937 0.78099 0.49468 0.0
S404 S 0.39418 0.81949 0.39592 0.0
N405 N 0.43115 0.86707 0.4165 0.0
N406 N 0.33905 0.77342 0.41148 0.0
C407 C 0.34894 0.79549 0.43484 0.0
C408 C 0.39898 0.84661 0.43749 0.0
C409 C 0.59275 0.27239 0.81075 0.0
C410 C 0.53673 0.25496 0.81297 0.0
C411 C 0.60291 0.24065 0.80323 0.0
C412 C 0.55746 0.19022 0.79785 0.0
H413 H 0.62895 0.31114 0.81394 0.0
H414 H 0.6467 0.25589 0.80115 0.0
S415 S 0.40292 0.12595 0.80241 0.0
N416 N 0.43543 0.1837 0.8107 0.0
N417 N 0.45429 0.12432 0.79608 0.0
C418 C 0.50132 0.17214 0.80089 0.0
C419 C 0.49104 0.20444 0.80851 0.0
C420 C 0.54731 0.75234 0.50165 0.0
C421 C 0.60117 0.7972 0.49654 0.0
C422 C 0.54178 0.71227 0.50887 0.0
C423 C 0.58996 0.71594 0.51132 0.0
H424 H 0.50938 0.74839 0.5003 0.0
H425 H 0.49965 0.67843 0.51294 0.0
S426 S 0.74072 0.8265 0.50138 0.0
N427 N 0.70357 0.84356 0.49504 0.0
N428 N 0.69332 0.7685 0.5088 0.0
C429 C 0.64395 0.76056 0.50604 0.0
C430 C 0.64951 0.80117 0.49863 0.0
C431 C 0.81363 0.58351 0.84066 0.0
C432 C 0.75382 0.54136 0.84207 0.0
C433 C 0.86044 0.58247 0.84272 0.0
C434 C 0.85331 0.53922 0.84665 0.0
H435 H 0.82509 0.61865 0.83786 0.0
H436 H 0.90351 0.61704 0.84146 0.0
S437 S 0.70605 0.41684 0.85104 0.0
N438 N 0.69252 0.45394 0.84746 0.0
N439 N 0.77614 0.45154 0.85074 0.0
C440 C 0.79339 0.49679 0.84786 0.0
C441 C 0.74591 0.49795 0.84576 0.0
C442 C 0.28689 0.69798 0.1558 0.0
C443 C 0.23372 0.6865 0.15306 0.0
C444 C 0.33891 0.74713 0.15833 0.0
C445 C 0.34077 0.78768 0.15847 0.0
H446 H 0.28854 0.66873 0.15598 0.0
H447 H 0.37816 0.75327 0.16018 0.0
S448 S 0.21325 0.77805 0.1534 0.0
N449 N 0.18661 0.72059 0.1512 0.0
N450 N 0.28304 0.81173 0.15672 0.0
C451 C 0.28774 0.77657 0.15588 0.0
C452 C 0.23487 0.72658 0.15305 0.0
C453 C 0.49791 0.25827 0.50152 0.0
C454 C 0.54194 0.26084 0.49114 0.0
C455 C 0.50827 0.30057 0.51075 0.0
C456 C 0.56315 0.34692 0.51011 0.0
H457 H 0.45507 0.22321 0.50255 0.0
H458 H 0.47331 0.29682 0.51898 0.0
S459 S 0.69276 0.37364 0.48429 0.0
N460 N 0.64229 0.31345 0.48039 0.0
N461 N 0.6617 0.39331 0.4976 0.0
C462 C 0.60745 0.35018 0.49946 0.0
C463 C 0.59682 0.30705 0.48995 0.0
C464 C 0.3866 0.49505 0.84437 0.0
C465 C 0.44644 0.53766 0.84491 0.0
C466 C 0.33986 0.49626 0.84602 0.0
C467 C 0.34716 0.54022 0.84872 0.0
H468 H 0.37506 0.45939 0.84251 0.0
H469 H 0.29674 0.46134 0.84545 0.0
S470 S 0.49451 0.66397 0.85031 0.0
N471 N 0.50797 0.62632 0.84789 0.0
N472 N 0.42428 0.62887 0.85077 0.0
C473 C 0.40707 0.58312 0.84911 0.0
C474 C 0.45451 0.58179 0.84727 0.0
C475 C 0.91803 0.34232 0.14764 0.0
C476 C 0.91519 0.38025 0.1486 0.0
C477 C 0.86974 0.29276 0.15207 0.0
C478 C 0.81574 0.27826 0.15751 0.0
H479 H 0.95844 0.35111 0.14415 0.0
H480 H 0.87533 0.2659 0.15195 0.0
S481 S 0.78289 0.36117 0.15947 0.0
N482 N 0.85205 0.39821 0.15416 0.0
N483 N 0.76186 0.30587 0.16096 0.0
C484 C 0.81193 0.31544 0.15739 0.0
C485 C 0.86117 0.3659 0.15337 0.0
C486 C 1.04742 0.49592 0.05791 0.0
C487 C 0.07116 0.54013 0.07163 0.0
C488 C 0.05428 0.49487 0.03137 0.0
C489 C 0.08616 0.53814 0.01762 0.0
H490 H 1.02159 0.4617 0.06757 0.0
H491 H 1.03402 0.45983 0.02149 0.0
S492 S 0.15952 0.66363 0.04524 0.0
N493 N 0.12911 0.62821 0.06977 0.0
N494 N 0.14313 0.62665 0.02037 0.0
C495 C 0.11169 0.5827 0.03145 0.0
C496 C 0.10381 0.58356 0.05828 0.0
C497 C 0.53474 1.00007 0.38146 0.0
C498 C 0.58573 0.03718 0.39512 0.0
C499 C 0.5313 1.00087 0.35488 0.0
C500 C 0.57831 0.03935 0.34122 0.0
H501 H 0.49813 0.96925 0.3912 0.0
H502 H 0.49192 0.97087 0.34487 0.0
S503 S 0.71995 0.14686 0.36856 0.0
N504 N 0.68308 0.11446 0.39332 0.0
N505 N 0.6764 0.11629 0.34358 0.0
C506 C 0.6286 0.07759 0.35488 0.0
C507 C 0.63235 0.0764 0.38179 0.0
C508 C 0.54396 0.52407 0.7474 0.0
C509 C 0.59131 0.54551 0.76391 0.0
C510 C 0.55043 0.52978 0.72118 0.0
C511 C 0.6046 0.55745 0.7103 0.0
H512 H 0.50109 0.50153 0.75467 0.0
H513 H 0.51235 0.51117 0.70925 0.0
S514 S 0.74299 0.62478 0.74535 0.0
N515 N 0.69471 0.59773 0.76771 0.0
N516 N 0.70704 0.60928 0.71823 0.0
C517 C 0.65266 0.58048 0.72663 0.0
C518 C 0.64601 0.57448 0.75347 0.0
C519 C 0.57219 1.00308 0.55235 0.0
C520 C 0.55849 0.03002 0.54211 0.0
C521 C 0.57881 1.00315 0.57879 0.0
C522 C 0.57269 0.03071 0.59586 0.0
H523 H 0.57622 0.98074 0.53992 0.0
H524 H 0.58872 0.98145 0.58594 0.0
S525 S 0.53731 0.10768 0.57825 0.0
N526 N 0.53927 0.08496 0.55077 0.0
N527 N 0.55201 0.08557 0.60031 0.0
C528 C 0.55974 0.0583 0.58567 0.0
C529 C 0.55245 0.05775 0.55884 0.0
C530 C 0.63663 0.56654 0.93088 0.0
C531 C 0.61464 0.53287 0.91 0.0
C532 C 0.62695 0.5508 0.95576 0.0
C533 C 0.59491 0.50081 0.96056 0.0
H534 H 0.66077 0.60518 0.92798 0.0
H535 H 0.6446 0.57802 0.97132 0.0
S536 S 0.5336 0.39933 0.91187 0.0
N537 N 0.56535 0.44897 0.89546 0.0
N538 N 0.54309 0.41815 0.942 0.0
C539 C 0.57405 0.4671 0.93966 0.0
C540 C 0.58482 0.48346 0.91442 0.0
C541 C 1.02011 0.47932 0.23751 0.0
C542 C 0.05711 0.52165 0.22345 0.0
C543 C 1.01834 0.48235 0.26412 0.0
C544 C 0.05422 0.52784 0.27782 0.0
H545 H 0.99306 0.44332 0.22788 0.0
H546 H 0.99022 0.44863 0.27411 0.0
S547 S 0.15621 0.64996 0.25002 0.0
N548 N 0.12814 0.61073 0.22514 0.0
N549 N 0.1255 0.61646 0.27521 0.0
C550 C 0.09013 0.57062 0.26396 0.0
C551 C 0.09129 0.56755 0.23676 0.0
loop_
_geom_bond_atom_site_label_1
_geom_bond_atom_site_label_2
_geom_bond_distance
_geom_bond_site_symmetry_2
_ccdc_geom_bond_type
Ho0 C3 2.811 . S
Ho0 O20 2.322 . S
Ho0 O22 2.378 . S
Ho0 O23 2.524 . S
Ho0 O24 2.381 . S
Ho0 O25 2.669 . S
Ho0 O27 2.346 1_455 S
Ho0 O31 2.305 . S
Ho1 C12 2.811 . S
Ho1 O21 2.346 1_655 S
Ho1 O25 2.305 1_655 S
Ho1 O26 2.322 . S
Ho1 O28 2.378 . S
Ho1 O29 2.524 . S
Ho1 O30 2.377 1_655 S
Ho1 O31 2.669 1_655 S
C2 O20 1.259 . S
C2 O21 1.268 . S
C3 Ho0 2.811 . S
C3 C4 1.488 . S
C3 O22 1.215 . S
C3 O23 1.289 . S
C4 C3 1.488 . S
C4 C5 1.348 . S
C4 C9 1.413 . S
C5 C4 1.348 . S
C5 C6 1.442 . S
C5 H32 0.930 . S
C6 C5 1.442 . S
C6 C7 1.381 . S
C6 H33 0.931 . S
C7 C6 1.381 . S
C7 C8 1.321 . S
C8 C7 1.321 . S
C8 C9 1.403 . S
C8 H34 0.934 . S
C9 C4 1.413 . S
C9 C8 1.403 . S
C9 H35 0.930 . S
C10 O24 1.275 . S
C10 O25 1.256 . S
C11 O26 1.259 . S
C11 O27 1.268 . S
C12 Ho1 2.811 . S
C12 C13 1.488 . S
C12 O28 1.215 . S
C12 O29 1.289 . S
C13 C12 1.488 . S
C13 C14 1.348 . S
C13 C18 1.413 . S
C14 C13 1.348 . S
C14 C15 1.442 . S
C14 H36 0.930 . S
C15 C14 1.442 . S
C15 C16 1.381 . S
C15 H37 0.931 . S
C16 C15 1.381 . S
C16 C17 1.321 . S
C17 C16 1.321 . S
C17 C18 1.403 . S
C17 H38 0.934 . S
C18 C13 1.413 . S
C18 C17 1.403 . S
C18 H39 0.930 . S
C19 O30 1.293 . S
C19 O31 1.256 . S
O20 Ho0 2.322 . S
O20 C2 1.259 . S
O21 Ho1 2.346 1_455 S
O21 C2 1.268 . S
O22 Ho0 2.378 . S
O22 C3 1.215 . S
O23 Ho0 2.524 . S
O23 C3 1.289 . S
O24 Ho0 2.381 . S
O24 C10 1.275 . S
O25 Ho0 2.669 . S
O25 Ho1 2.305 1_455 S
O25 C10 1.256 . S
O26 Ho1 2.322 . S
O26 C11 1.259 . S
O27 Ho0 2.346 1_655 S
O27 C11 1.268 . S
O28 Ho1 2.378 . S
O28 C12 1.215 . S
O29 Ho1 2.524 . S
O29 C12 1.289 . S
O30 Ho1 2.377 1_455 S
O30 C19 1.293 . S
O31 Ho0 2.305 . S
O31 Ho1 2.669 1_455 S
O31 C19 1.256 . S
H32 C5 0.930 . S
H33 C6 0.931 . S
H34 C8 0.934 . S
H35 C9 0.930 . S
H36 C14 0.930 . S
H37 C15 0.931 . S
H38 C17 0.934 . S
H39 C18 0.930 . S
Ho40 C43 2.811 . S
Ho40 O60 2.322 . S
Ho40 O62 2.378 . S
Ho40 O63 2.524 . S
Ho40 O64 2.381 . S
Ho40 O65 2.669 1_565 S
Ho40 O67 2.346 1_565 S
Ho40 O71 2.313 . S
Ho41 C52 2.811 . S
Ho41 O61 2.346 1_545 S
Ho41 O65 2.305 . S
Ho41 O66 2.322 . S
Ho41 O68 2.378 . S
Ho41 O69 2.524 . S
Ho41 O70 2.381 . S
Ho41 O71 2.656 1_545 S
C42 O60 1.259 . S
C42 O61 1.268 . S
C43 Ho40 2.811 . S
C43 C44 1.488 . S
C43 O62 1.215 . S
C43 O63 1.289 . S
C44 C43 1.488 . S
C44 C45 1.348 . S
C44 C49 1.413 . S
C45 C44 1.348 . S
C45 C46 1.442 . S
C45 H72 0.930 . S
C46 C45 1.442 . S
C46 C47 1.381 . S
C46 H73 0.931 . S
C47 C46 1.381 . S
C47 C48 1.321 . S
C48 C47 1.321 . S
C48 C49 1.403 . S
C48 H74 0.934 . S
C49 C44 1.413 . S
C49 C48 1.403 . S
C49 H75 0.930 . S
C50 O64 1.275 1_545 S
C50 O65 1.256 . S
C51 O66 1.259 . S
C51 O67 1.268 . S
C52 Ho41 2.811 . S
C52 C53 1.488 . S
C52 O68 1.215 . S
C52 O69 1.289 . S
C53 C52 1.488 . S
C53 C54 1.348 . S
C53 C58 1.413 . S
C54 C53 1.348 . S
C54 C55 1.442 . S
C54 H76 0.930 . S
C55 C54 1.442 . S
C55 C56 1.381 . S
C55 H77 0.931 . S
C56 C55 1.381 . S
C56 C57 1.321 . S
C57 C56 1.321 . S
C57 C58 1.403 . S
C57 H78 0.934 . S
C58 C53 1.413 . S
C58 C57 1.403 . S
C58 H79 0.930 . S
C59 O70 1.275 . S
C59 O71 1.249 1_545 S
O60 Ho40 2.322 . S
O60 C42 1.259 . S
O61 Ho41 2.346 1_565 S
O61 C42 1.268 . S
O62 Ho40 2.378 . S
O62 C43 1.215 . S
O63 Ho40 2.524 . S
O63 C43 1.289 . S
O64 Ho40 2.381 . S
O64 C50 1.275 1_565 S
O65 Ho40 2.669 1_545 S
O65 Ho41 2.305 . S
O65 C50 1.256 . S
O66 Ho41 2.322 . S
O66 C51 1.259 . S
O67 Ho40 2.346 1_545 S
O67 C51 1.268 . S
O68 Ho41 2.378 . S
O68 C52 1.215 . S
O69 Ho41 2.524 . S
O69 C52 1.289 . S
O70 Ho41 2.381 . S
O70 C59 1.275 . S
O71 Ho40 2.313 . S
O71 Ho41 2.656 1_565 S
O71 C59 1.249 1_565 S
H72 C45 0.930 . S
H73 C46 0.931 . S
H74 C48 0.934 . S
H75 C49 0.930 . S
H76 C54 0.930 . S
H77 C55 0.931 . S
H78 C57 0.934 . S
H79 C58 0.930 . S
Ho80 C83 2.811 . S
Ho80 O100 2.322 . S
Ho80 O102 2.378 . S
Ho80 O103 2.524 . S
Ho80 O104 2.381 . S
Ho80 O105 2.669 . S
Ho80 O107 2.346 . S
Ho80 O111 2.305 . S
Ho81 C92 2.811 . S
Ho81 O101 2.346 . S
Ho81 O105 2.305 . S
Ho81 O106 2.322 . S
Ho81 O108 2.378 . S
Ho81 O109 2.524 . S
Ho81 O110 2.381 . S
Ho81 O111 2.669 . S
C82 O100 1.259 . S
C82 O101 1.268 . S
C83 Ho80 2.811 . S
C83 C84 1.488 . S
C83 O102 1.215 . S
C83 O103 1.289 . S
C84 C83 1.488 . S
C84 C85 1.348 . S
C84 C89 1.413 . S
C85 C84 1.348 . S
C85 C86 1.442 . S
C85 H112 0.930 . S
C86 C85 1.442 . S
C86 C87 1.381 . S
C86 H113 0.931 . S
C87 C86 1.381 . S
C87 C88 1.321 . S
C88 C87 1.321 . S
C88 C89 1.403 . S
C88 H114 0.934 . S
C89 C84 1.413 . S
C89 C88 1.403 . S
C89 H115 0.930 . S
C90 O104 1.275 . S
C90 O105 1.256 . S
C91 O106 1.259 . S
C91 O107 1.268 . S
C92 Ho81 2.811 . S
C92 C93 1.488 . S
C92 O108 1.215 . S
C92 O109 1.289 . S
C93 C92 1.488 . S
C93 C94 1.348 . S
C93 C98 1.413 . S
C94 C93 1.348 . S
C94 C95 1.442 . S
C94 H116 0.930 . S
C95 C94 1.442 . S
C95 C96 1.381 . S
C95 H117 0.931 . S
C96 C95 1.381 . S
C96 C97 1.321 . S
C97 C96 1.321 . S
C97 C98 1.403 . S
C97 H118 0.934 . S
C98 C93 1.413 . S
C98 C97 1.403 . S
C98 H119 0.930 . S
C99 O110 1.275 . S
C99 O111 1.256 . S
O100 Ho80 2.322 . S
O100 C82 1.259 . S
O101 Ho81 2.346 . S
O101 C82 1.268 . S
O102 Ho80 2.378 . S
O102 C83 1.215 . S
O103 Ho80 2.524 . S
O103 C83 1.289 . S
O104 Ho80 2.381 . S
O104 C90 1.275 . S
O105 Ho80 2.669 . S
O105 Ho81 2.305 . S
O105 C90 1.256 . S
O106 Ho81 2.322 . S
O106 C91 1.259 . S
O107 Ho80 2.346 . S
O107 C91 1.268 . S
O108 Ho81 2.378 . S
O108 C92 1.215 . S
O109 Ho81 2.524 . S
O109 C92 1.289 . S
O110 Ho81 2.381 . S
O110 C99 1.275 . S
O111 Ho80 2.305 . S
O111 Ho81 2.669 . S
O111 C99 1.256 . S
H112 C85 0.930 . S
H113 C86 0.931 . S
H114 C88 0.934 . S
H115 C89 0.930 . S
H116 C94 0.930 . S
H117 C95 0.931 . S
H118 C97 0.934 . S
H119 C98 0.930 . S
C120 C121 1.386 . S
C120 C122 1.397 . S
C120 H144 0.931 . S
C121 C120 1.386 . S
C121 C125 1.397 1_545 S
C122 C120 1.397 . S
C122 C123 1.384 . S
C122 H145 0.930 . S
C123 C122 1.384 . S
C123 C124 1.377 1_545 S
C123 C126 1.481 . S
C124 C123 1.377 1_565 S
C124 C125 1.389 . S
C124 H146 0.929 . S
C125 C121 1.397 1_565 S
C125 C124 1.389 . S
C125 H147 0.931 . S
C126 C123 1.481 . S
C126 C127 1.387 . S
C126 C131 1.390 1_545 S
C127 C126 1.387 . S
C127 C128 1.401 . S
C127 H148 0.930 . S
C128 C127 1.401 . S
C128 C129 1.376 . S
C128 C137 1.511 . S
C129 C128 1.376 . S
C129 C130 1.392 1_545 S
C129 H150 0.931 . S
C130 C129 1.392 1_565 S
C130 C131 1.361 . S
C130 C132 1.500 . S
C131 C126 1.390 1_565 S
C131 C130 1.361 . S
C131 H149 0.931 . S
C132 C130 1.500 . S
C132 C133 1.371 . S
C132 C134 1.365 . S
C133 C132 1.371 . S
C133 C143 1.386 . S
C133 H151 0.931 . S
C134 C132 1.365 . S
C134 C135 1.409 . S
C134 H152 0.929 . S
C135 C134 1.409 . S
C135 C136 1.380 . S
C135 H153 0.930 . S
C136 C135 1.380 . S
C136 C143 1.357 . S
C137 C128 1.511 . S
C137 C138 1.341 . S
C137 C139 1.371 . S
C138 C137 1.341 . S
C138 C142 1.394 . S
C138 H154 0.930 . S
C139 C137 1.371 . S
C139 C140 1.392 . S
C139 H155 0.931 . S
C140 C139 1.392 . S
C140 C141 1.331 . S
C140 H158 0.932 . S
C141 C140 1.331 . S
C141 C142 1.336 . S
C142 C138 1.394 . S
C142 C141 1.336 . S
C142 H157 0.929 . S
C143 C133 1.386 . S
C143 C136 1.357 . S
C143 H156 0.928 . S
H144 C120 0.931 . S
H145 C122 0.930 . S
H146 C124 0.929 . S
H147 C125 0.931 . S
H148 C127 0.930 . S
H149 C131 0.931 . S
H150 C129 0.931 . S
H151 C133 0.931 . S
H152 C134 0.929 . S
H153 C135 0.930 . S
H154 C138 0.930 . S
H155 C139 0.931 . S
H156 C143 0.928 . S
H157 C142 0.929 . S
H158 C140 0.932 . S
C159 C160 1.386 . S
C159 C161 1.397 . S
C159 H183 0.931 . S
C160 C159 1.386 . S
C160 C164 1.397 . S
C161 C159 1.397 . S
C161 C162 1.384 . S
C161 H184 0.930 . S
C162 C161 1.384 . S
C162 C163 1.377 . S
C162 C165 1.481 . S
C163 C162 1.377 . S
C163 C164 1.389 . S
C163 H185 0.929 . S
C164 C160 1.397 . S
C164 C163 1.389 . S
C164 H186 0.931 . S
C165 C162 1.481 . S
C165 C166 1.387 . S
C165 C170 1.390 . S
C166 C165 1.387 . S
C166 C167 1.401 . S
C166 H187 0.930 . S
C167 C166 1.401 . S
C167 C168 1.376 . S
C167 C176 1.511 . S
C168 C167 1.376 . S
C168 C169 1.392 . S
C168 H189 0.931 . S
C169 C168 1.392 . S
C169 C170 1.361 . S
C169 C171 1.500 . S
C170 C165 1.390 . S
C170 C169 1.361 . S
C170 H188 0.931 . S
C171 C169 1.500 . S
C171 C172 1.371 . S
C171 C173 1.365 . S
C172 C171 1.371 . S
C172 C182 1.386 . S
C172 H190 0.931 . S
C173 C171 1.365 . S
C173 C174 1.409 . S
C173 H191 0.929 . S
C174 C173 1.409 . S
C174 C175 1.380 . S
C174 H192 0.930 . S
C175 C174 1.380 . S
C175 C182 1.357 . S
C176 C167 1.511 . S
C176 C177 1.341 . S
C176 C178 1.371 . S
C177 C176 1.341 . S
C177 C181 1.394 . S
C177 H193 0.930 . S
C178 C176 1.371 . S
C178 C179 1.392 . S
C178 H194 0.931 . S
C179 C178 1.392 . S
C179 C180 1.331 . S
C179 H197 0.932 . S
C180 C179 1.331 . S
C180 C181 1.336 . S
C181 C177 1.394 . S
C181 C180 1.336 . S
C181 H196 0.929 . S
C182 C172 1.386 . S
C182 C175 1.357 . S
C182 H195 0.928 . S
H183 C159 0.931 . S
H184 C161 0.930 . S
H185 C163 0.929 . S
H186 C164 0.931 . S
H187 C166 0.930 . S
H188 C170 0.931 . S
H189 C168 0.931 . S
H190 C172 0.931 . S
H191 C173 0.929 . S
H192 C174 0.930 . S
H193 C177 0.930 . S
H194 C178 0.931 . S
H195 C182 0.928 . S
H196 C181 0.929 . S
H197 C179 0.932 . S
C198 C199 1.386 . S
C198 C200 1.397 . S
C198 H222 0.931 . S
C199 C198 1.386 . S
C199 C203 1.414 . S
C200 C198 1.397 . S
C200 C201 1.384 . S
C200 H223 0.930 . S
C201 C200 1.384 . S
C201 C202 1.377 . S
C201 C204 1.481 . S
C202 C201 1.377 . S
C202 C203 1.390 . S
C202 H224 0.929 1_455 S
C203 C199 1.414 . S
C203 C202 1.390 . S
C203 H225 0.913 1_455 S
C204 C201 1.481 . S
C204 C205 1.387 . S
C204 C209 1.390 . S
C205 C204 1.387 . S
C205 C206 1.401 . S
C205 H226 0.930 . S
C206 C205 1.401 . S
C206 C207 1.376 . S
C206 C215 1.511 . S
C207 C206 1.376 . S
C207 C208 1.392 . S
C207 H228 0.931 . S
C208 C207 1.392 . S
C208 C209 1.361 . S
C208 C210 1.500 1_455 S
C209 C204 1.390 . S
C209 C208 1.361 . S
C209 H227 0.931 1_455 S
C210 C208 1.500 1_655 S
C210 C211 1.371 . S
C210 C212 1.365 . S
C211 C210 1.371 . S
C211 C221 1.386 . S
C211 H229 0.931 1_655 S
C212 C210 1.365 . S
C212 C213 1.409 . S
C212 H230 0.929 . S
C213 C212 1.409 . S
C213 C214 1.380 . S
C213 H231 0.930 . S
C214 C213 1.380 . S
C214 C221 1.357 . S
C215 C206 1.511 . S
C215 C216 1.341 . S
C215 C217 1.371 . S
C216 C215 1.341 . S
C216 C220 1.394 . S
C216 H232 0.930 . S
C217 C215 1.371 . S
C217 C218 1.392 . S
C217 H233 0.931 . S
C218 C217 1.392 . S
C218 C219 1.331 . S
C218 H236 0.932 . S
C219 C218 1.331 . S
C219 C220 1.336 . S
C220 C216 1.394 . S
C220 C219 1.336 . S
C220 H235 0.929 . S
C221 C211 1.386 . S
C221 C214 1.357 . S
C221 H234 0.928 . S
H222 C198 0.931 . S
H223 C200 0.930 . S
H224 C202 0.929 1_655 S
H225 C203 0.913 1_655 S
H226 C205 0.930 . S
H227 C209 0.931 1_655 S
H228 C207 0.931 . S
H229 C211 0.931 1_455 S
H230 C212 0.929 . S
H231 C213 0.930 . S
H232 C216 0.930 . S
H233 C217 0.931 . S
H234 C221 0.928 . S
H235 C220 0.929 . S
H236 C218 0.932 . S
C237 C238 1.390 . S
C237 C239 1.397 . S
C237 H261 0.931 . S
C238 C237 1.390 . S
C238 C242 1.394 1_655 S
C239 C237 1.397 . S
C239 C240 1.384 . S
C239 H262 0.930 . S
C240 C239 1.384 . S
C240 C241 1.377 1_655 S
C240 C243 1.481 . S
C241 C240 1.377 1_455 S
C241 C242 1.389 . S
C241 H263 0.929 . S
C242 C238 1.394 1_455 S
C242 C241 1.389 . S
C242 H264 0.931 . S
C243 C240 1.481 . S
C243 C244 1.387 . S
C243 C248 1.390 1_655 S
C244 C243 1.387 . S
C244 C245 1.401 . S
C244 H265 0.930 . S
C245 C244 1.401 . S
C245 C246 1.376 . S
C245 C254 1.511 . S
C246 C245 1.376 . S
C246 C247 1.392 1_655 S
C246 H267 0.931 . S
C247 C246 1.392 1_455 S
C247 C248 1.361 . S
C247 C249 1.500 . S
C248 C243 1.390 1_455 S
C248 C247 1.361 . S
C248 H266 0.931 . S
C249 C247 1.500 . S
C249 C250 1.371 . S
C249 C251 1.365 . S
C250 C249 1.371 . S
C250 C260 1.386 . S
C250 H268 0.931 . S
C251 C249 1.365 . S
C251 C252 1.409 . S
C251 H269 0.929 . S
C252 C251 1.409 . S
C252 C253 1.380 . S
C252 H270 0.930 . S
C253 C252 1.380 . S
C253 C260 1.357 . S
C254 C245 1.511 . S
C254 C255 1.341 . S
C254 C256 1.371 . S
C255 C254 1.341 . S
C255 C259 1.394 . S
C255 H271 0.930 . S
C256 C254 1.371 . S
C256 C257 1.392 . S
C256 H272 0.931 . S
C257 C256 1.392 . S
C257 C258 1.331 . S
C257 H275 0.932 . S
C258 C257 1.331 . S
C258 C259 1.336 . S
C259 C255 1.394 . S
C259 C258 1.336 . S
C259 H274 0.929 . S
C260 C250 1.386 . S
C260 C253 1.357 . S
C260 H273 0.928 . S
H261 C237 0.931 . S
H262 C239 0.930 . S
H263 C241 0.929 . S
H264 C242 0.931 . S
H265 C244 0.930 . S
H266 C248 0.931 . S
H267 C246 0.931 . S
H268 C250 0.931 . S
H269 C251 0.929 . S
H270 C252 0.930 . S
H271 C255 0.930 . S
H272 C256 0.931 . S
H273 C260 0.928 . S
H274 C259 0.929 . S
H275 C257 0.932 . S
C276 C277 1.386 . S
C276 C278 1.397 . S
C276 H300 0.931 . S
C277 C276 1.386 . S
C277 C281 1.397 1_565 S
C278 C276 1.397 . S
C278 C279 1.384 . S
C278 H301 0.930 . S
C279 C278 1.384 . S
C279 C280 1.377 1_565 S
C279 C282 1.481 . S
C280 C279 1.377 1_545 S
C280 C281 1.389 . S
C280 H302 0.929 . S
C281 C277 1.397 1_545 S
C281 C280 1.389 . S
C281 H303 0.931 . S
C282 C279 1.481 . S
C282 C283 1.387 . S
C282 C287 1.390 1_565 S
C283 C282 1.387 . S
C283 C284 1.401 . S
C283 H304 0.930 . S
C284 C283 1.401 . S
C284 C285 1.376 1_565 S
C284 C293 1.511 . S
C285 C284 1.376 1_545 S
C285 C286 1.392 . S
C285 H306 0.931 . S
C286 C285 1.392 . S
C286 C287 1.361 . S
C286 C288 1.500 . S
C287 C282 1.390 1_545 S
C287 C286 1.361 . S
C287 H305 0.931 . S
C288 C286 1.500 . S
C288 C289 1.371 . S
C288 C290 1.365 . S
C289 C288 1.371 . S
C289 C299 1.386 . S
C289 H307 0.931 . S
C290 C288 1.365 . S
C290 C291 1.409 . S
C290 H308 0.929 . S
C291 C290 1.409 . S
C291 C292 1.380 . S
C291 H309 0.930 . S
C292 C291 1.380 . S
C292 C299 1.357 . S
C293 C284 1.511 . S
C293 C294 1.341 . S
C293 C295 1.371 . S
C294 C293 1.341 . S
C294 C298 1.394 . S
C294 H310 0.930 . S
C295 C293 1.371 . S
C295 C296 1.392 . S
C295 H311 0.931 . S
C296 C295 1.392 . S
C296 C297 1.331 . S
C296 H314 0.932 . S
C297 C296 1.331 . S
C297 C298 1.336 . S
C298 C294 1.394 . S
C298 C297 1.336 . S
C298 H313 0.929 . S
C299 C289 1.386 . S
C299 C292 1.357 . S
C299 H312 0.928 . S
H300 C276 0.931 . S
H301 C278 0.930 . S
H302 C280 0.929 . S
H303 C281 0.931 . S
H304 C283 0.930 . S
H305 C287 0.931 . S
H306 C285 0.931 . S
H307 C289 0.931 . S
H308 C290 0.929 . S
H309 C291 0.930 . S
H310 C294 0.930 . S
H311 C295 0.931 . S
H312 C299 0.928 . S
H313 C298 0.929 . S
H314 C296 0.932 . S
C315 C316 1.386 . S
C315 C317 1.397 1_556 S
C315 H339 0.931 . S
C316 C315 1.386 . S
C316 C320 1.397 . S
C317 C315 1.397 1_554 S
C317 C318 1.384 . S
C317 H340 0.930 . S
C318 C317 1.384 . S
C318 C319 1.377 . S
C318 C321 1.481 . S
C319 C318 1.377 . S
C319 C320 1.389 1_554 S
C319 H341 0.929 . S
C320 C316 1.397 . S
C320 C319 1.389 1_556 S
C320 H342 0.931 . S
C321 C318 1.481 . S
C321 C322 1.387 . S
C321 C326 1.390 . S
C322 C321 1.387 . S
C322 C323 1.401 . S
C322 H343 0.930 . S
C323 C322 1.401 . S
C323 C324 1.376 . S
C323 C332 1.511 . S
C324 C323 1.376 . S
C324 C325 1.392 . S
C324 H345 0.931 . S
C325 C324 1.392 . S
C325 C326 1.361 . S
C325 C327 1.500 . S
C326 C321 1.390 . S
C326 C325 1.361 . S
C326 H344 0.931 . S
C327 C325 1.500 . S
C327 C328 1.371 . S
C327 C329 1.365 . S
C328 C327 1.371 . S
C328 C338 1.386 . S
C328 H346 0.931 . S
C329 C327 1.365 . S
C329 C330 1.409 . S
C329 H347 0.929 . S
C330 C329 1.409 . S
C330 C331 1.380 . S
C330 H348 0.930 . S
C331 C330 1.380 . S
C331 C338 1.357 . S
C332 C323 1.511 . S
C332 C333 1.341 . S
C332 C334 1.371 . S
C333 C332 1.341 . S
C333 C337 1.394 . S
C333 H349 0.930 . S
C334 C332 1.371 . S
C334 C335 1.392 . S
C334 H350 0.931 . S
C335 C334 1.392 . S
C335 C336 1.331 . S
C335 H353 0.932 . S
C336 C335 1.331 . S
C336 C337 1.336 . S
C337 C333 1.394 . S
C337 C336 1.336 . S
C337 H352 0.929 . S
C338 C328 1.386 . S
C338 C331 1.357 . S
C338 H351 0.928 . S
H339 C315 0.931 . S
H340 C317 0.930 . S
H341 C319 0.929 . S
H342 C320 0.931 . S
H343 C322 0.930 . S
H344 C326 0.931 . S
H345 C324 0.931 . S
H346 C328 0.931 . S
H347 C329 0.929 . S
H348 C330 0.930 . S
H349 C333 0.930 . S
H350 C334 0.931 . S
H351 C338 0.928 . S
H352 C337 0.929 . S
H353 C335 0.932 . S
C354 C355 1.369 . S
C354 C356 1.419 . S
C354 H358 0.930 . S
C355 C354 1.369 . S
C355 C364 1.429 . S
C356 C354 1.419 . S
C356 C357 1.363 . S
C356 H359 0.929 . S
C357 C356 1.363 . S
C357 C363 1.428 . S
H358 C354 0.930 . S
H359 C356 0.929 . S
S360 N361 1.613 . S
S360 N362 1.610 . S
N361 S360 1.613 . S
N361 C364 1.350 . S
N362 S360 1.610 . S
N362 C363 1.351 . S
C363 C357 1.428 . S
C363 N362 1.351 . S
C363 C364 1.434 . S
C364 C355 1.429 . S
C364 N361 1.350 . S
C364 C363 1.434 . S
C365 C366 1.369 . S
C365 C367 1.419 . S
C365 H369 0.930 . S
C366 C365 1.369 . S
C366 C375 1.429 . S
C367 C365 1.419 . S
C367 C368 1.363 . S
C367 H370 0.929 . S
C368 C367 1.363 . S
C368 C374 1.428 . S
H369 C365 0.930 . S
H370 C367 0.929 . S
S371 N372 1.613 . S
S371 N373 1.610 . S
N372 S371 1.613 . S
N372 C375 1.350 . S
N373 S371 1.610 . S
N373 C374 1.351 . S
C374 C368 1.428 . S
C374 N373 1.351 . S
C374 C375 1.434 . S
C375 C366 1.429 . S
C375 N372 1.350 . S
C375 C374 1.434 . S
C376 C377 1.369 . S
C376 C378 1.419 . S
C376 H380 0.930 . S
C377 C376 1.369 . S
C377 C386 1.429 . S
C378 C376 1.419 . S
C378 C379 1.363 . S
C378 H381 0.929 . S
C379 C378 1.363 . S
C379 C385 1.428 . S
H380 C376 0.930 . S
H381 C378 0.929 . S
S382 N383 1.613 . S
S382 N384 1.610 . S
N383 S382 1.613 . S
N383 C386 1.350 . S
N384 S382 1.610 . S
N384 C385 1.351 . S
C385 C379 1.428 . S
C385 N384 1.351 . S
C385 C386 1.434 . S
C386 C377 1.429 . S
C386 N383 1.350 . S
C386 C385 1.434 . S
C387 C388 1.369 . S
C387 C389 1.419 . S
C387 H391 0.930 . S
C388 C387 1.369 . S
C388 C397 1.429 . S
C389 C387 1.419 . S
C389 C390 1.363 . S
C389 H392 0.929 . S
C390 C389 1.363 . S
C390 C396 1.428 . S
H391 C387 0.930 . S
H392 C389 0.929 . S
S393 N394 1.613 . S
S393 N395 1.610 . S
N394 S393 1.613 . S
N394 C397 1.350 . S
N395 S393 1.610 . S
N395 C396 1.351 . S
C396 C390 1.428 . S
C396 N395 1.351 . S
C396 C397 1.434 . S
C397 C388 1.429 . S
C397 N394 1.350 . S
C397 C396 1.434 . S
C398 C399 1.369 . S
C398 C400 1.419 . S
C398 H402 0.930 . S
C399 C398 1.369 . S
C399 C408 1.429 . S
C400 C398 1.419 . S
C400 C401 1.363 . S
C400 H403 0.929 . S
C401 C400 1.363 . S
C401 C407 1.428 . S
H402 C398 0.930 . S
H403 C400 0.929 . S
S404 N405 1.613 . S
S404 N406 1.610 . S
N405 S404 1.613 . S
N405 C408 1.350 . S
N406 S404 1.610 . S
N406 C407 1.351 . S
C407 C401 1.428 . S
C407 N406 1.351 . S
C407 C408 1.434 . S
C408 C399 1.429 . S
C408 N405 1.350 . S
C408 C407 1.434 . S
C409 C410 1.369 . S
C409 C411 1.419 . S
C409 H413 0.930 . S
C410 C409 1.369 . S
C410 C419 1.429 . S
C411 C409 1.419 . S
C411 C412 1.363 . S
C411 H414 0.929 . S
C412 C411 1.363 . S
C412 C418 1.428 . S
H413 C409 0.930 . S
H414 C411 0.929 . S
S415 N416 1.613 . S
S415 N417 1.610 . S
N416 S415 1.613 . S
N416 C419 1.350 . S
N417 S415 1.610 . S
N417 C418 1.351 . S
C418 C412 1.428 . S
C418 N417 1.351 . S
C418 C419 1.434 . S
C419 C410 1.429 . S
C419 N416 1.350 . S
C419 C418 1.434 . S
C420 C421 1.369 . S
C420 C422 1.419 . S
C420 H424 0.930 . S
C421 C420 1.369 . S
C421 C430 1.429 . S
C422 C420 1.419 . S
C422 C423 1.363 . S
C422 H425 0.929 . S
C423 C422 1.363 . S
C423 C429 1.428 . S
H424 C420 0.930 . S
H425 C422 0.929 . S
S426 N427 1.613 . S
S426 N428 1.610 . S
N427 S426 1.613 . S
N427 C430 1.350 . S
N428 S426 1.610 . S
N428 C429 1.351 . S
C429 C423 1.428 . S
C429 N428 1.351 . S
C429 C430 1.434 . S
C430 C421 1.429 . S
C430 N427 1.350 . S
C430 C429 1.434 . S
C431 C432 1.369 . S
C431 C433 1.419 . S
C431 H435 0.930 . S
C432 C431 1.369 . S
C432 C441 1.429 . S
C433 C431 1.419 . S
C433 C434 1.363 . S
C433 H436 0.929 . S
C434 C433 1.363 . S
C434 C440 1.428 . S
H435 C431 0.930 . S
H436 C433 0.929 . S
S437 N438 1.613 . S
S437 N439 1.610 . S
N438 S437 1.613 . S
N438 C441 1.350 . S
N439 S437 1.610 . S
N439 C440 1.351 . S
C440 C434 1.428 . S
C440 N439 1.351 . S
C440 C441 1.434 . S
C441 C432 1.429 . S
C441 N438 1.350 . S
C441 C440 1.434 . S
C442 C443 1.369 . S
C442 C444 1.419 . S
C442 H446 0.930 . S
C443 C442 1.369 . S
C443 C452 1.429 . S
C444 C442 1.419 . S
C444 C445 1.363 . S
C444 H447 0.929 . S
C445 C444 1.363 . S
C445 C451 1.428 . S
H446 C442 0.930 . S
H447 C444 0.929 . S
S448 N449 1.613 . S
S448 N450 1.610 . S
N449 S448 1.613 . S
N449 C452 1.350 . S
N450 S448 1.610 . S
N450 C451 1.351 . S
C451 C445 1.428 . S
C451 N450 1.351 . S
C451 C452 1.434 . S
C452 C443 1.429 . S
C452 N449 1.350 . S
C452 C451 1.434 . S
C453 C454 1.369 . S
C453 C455 1.419 . S
C453 H457 0.930 . S
C454 C453 1.369 . S
C454 C463 1.429 . S
C455 C453 1.419 . S
C455 C456 1.363 . S
C455 H458 0.929 . S
C456 C455 1.363 . S
C456 C462 1.428 . S
H457 C453 0.930 . S
H458 C455 0.929 . S
S459 N460 1.613 . S
S459 N461 1.610 . S
N460 S459 1.613 . S
N460 C463 1.350 . S
N461 S459 1.610 . S
N461 C462 1.351 . S
C462 C456 1.428 . S
C462 N461 1.351 . S
C462 C463 1.434 . S
C463 C454 1.429 . S
C463 N460 1.350 . S
C463 C462 1.434 . S
C464 C465 1.369 . S
C464 C466 1.419 . S
C464 H468 0.930 . S
C465 C464 1.369 . S
C465 C474 1.429 . S
C466 C464 1.419 . S
C466 C467 1.363 . S
C466 H469 0.929 . S
C467 C466 1.363 . S
C467 C473 1.428 . S
H468 C464 0.930 . S
H469 C466 0.929 . S
S470 N471 1.613 . S
S470 N472 1.610 . S
N471 S470 1.613 . S
N471 C474 1.350 . S
N472 S470 1.610 . S
N472 C473 1.351 . S
C473 C467 1.428 . S
C473 N472 1.351 . S
C473 C474 1.434 . S
C474 C465 1.429 . S
C474 N471 1.350 . S
C474 C473 1.434 . S
C475 C476 1.369 . S
C475 C477 1.419 . S
C475 H479 0.930 . S
C476 C475 1.369 . S
C476 C485 1.429 . S
C477 C475 1.419 . S
C477 C478 1.363 . S
C477 H480 0.929 . S
C478 C477 1.363 . S
C478 C484 1.428 . S
H479 C475 0.930 . S
H480 C477 0.929 . S
S481 N482 1.613 . S
S481 N483 1.610 . S
N482 S481 1.613 . S
N482 C485 1.350 . S
N483 S481 1.610 . S
N483 C484 1.351 . S
C484 C478 1.428 . S
C484 N483 1.351 . S
C484 C485 1.434 . S
C485 C476 1.429 . S
C485 N482 1.350 . S
C485 C484 1.434 . S
C486 C487 1.369 . S
C486 C488 1.419 . S
C486 H490 0.930 1_455 S
C487 C486 1.369 . S
C487 C496 1.429 . S
C488 C486 1.419 . S
C488 C489 1.363 . S
C488 H491 0.929 1_455 S
C489 C488 1.363 . S
C489 C495 1.428 . S
H490 C486 0.930 1_655 S
H491 C488 0.929 1_655 S
S492 N493 1.613 . S
S492 N494 1.610 . S
N493 S492 1.613 . S
N493 C496 1.350 . S
N494 S492 1.610 . S
N494 C495 1.351 . S
C495 C489 1.428 . S
C495 N494 1.351 . S
C495 C496 1.434 . S
C496 C487 1.429 . S
C496 N493 1.350 . S
C496 C495 1.434 . S
C497 C498 1.378 1_565 S
C497 C499 1.416 1_565 S
C497 H501 0.925 . S
C498 C497 1.378 1_545 S
C498 C507 1.429 . S
C499 C497 1.416 1_545 S
C499 C500 1.363 . S
C499 H502 0.929 1_545 S
C500 C499 1.363 . S
C500 C506 1.428 . S
H501 C497 0.925 . S
H502 C499 0.929 1_565 S
S503 N504 1.613 . S
S503 N505 1.610 . S
N504 S503 1.613 . S
N504 C507 1.350 . S
N505 S503 1.610 . S
N505 C506 1.351 . S
C506 C500 1.428 . S
C506 N505 1.351 . S
C506 C507 1.434 . S
C507 C498 1.429 . S
C507 N504 1.350 . S
C507 C506 1.434 . S
C508 C509 1.369 . S
C508 C510 1.419 . S
C508 H512 0.930 . S
C509 C508 1.369 . S
C509 C518 1.429 . S
C510 C508 1.419 . S
C510 C511 1.363 . S
C510 H513 0.929 . S
C511 C510 1.363 . S
C511 C517 1.428 . S
H512 C508 0.930 . S
H513 C510 0.929 . S
S514 N515 1.613 . S
S514 N516 1.610 . S
N515 S514 1.613 . S
N515 C518 1.350 . S
N516 S514 1.610 . S
N516 C517 1.351 . S
C517 C511 1.428 . S
C517 N516 1.351 . S
C517 C518 1.434 . S
C518 C509 1.429 . S
C518 N515 1.350 . S
C518 C517 1.434 . S
C519 C520 1.369 1_565 S
C519 C521 1.419 . S
C519 H523 0.930 . S
C520 C519 1.369 1_545 S
C520 C529 1.429 . S
C521 C519 1.419 . S
C521 C522 1.363 . S
C521 H524 0.929 . S
C522 C521 1.363 . S
C522 C528 1.428 1_565 S
H523 C519 0.930 . S
H524 C521 0.929 . S
S525 N526 1.613 . S
S525 N527 1.610 . S
N526 S525 1.613 . S
N526 C529 1.350 . S
N527 S525 1.610 . S
N527 C528 1.351 . S
C528 C522 1.428 1_545 S
C528 N527 1.351 . S
C528 C529 1.434 . S
C529 C520 1.429 . S
C529 N526 1.350 . S
C529 C528 1.434 . S
C530 C531 1.369 . S
C530 C532 1.419 . S
C530 H534 0.930 . S
C531 C530 1.369 . S
C531 C540 1.429 . S
C532 C530 1.419 . S
C532 C533 1.363 . S
C532 H535 0.929 . S
C533 C532 1.363 . S
C533 C539 1.428 . S
H534 C530 0.930 . S
H535 C532 0.929 . S
S536 N537 1.613 . S
S536 N538 1.610 . S
N537 S536 1.613 . S
N537 C540 1.350 . S
N538 S536 1.610 . S
N538 C539 1.351 . S
C539 C533 1.428 . S
C539 N538 1.351 . S
C539 C540 1.434 . S
C540 C531 1.429 . S
C540 N537 1.350 . S
C540 C539 1.434 . S
C541 C542 1.369 1_655 S
C541 C543 1.419 . S
C541 H545 0.930 . S
C542 C541 1.369 1_455 S
C542 C551 1.429 . S
C543 C541 1.419 . S
C543 C544 1.363 1_655 S
C543 H546 0.929 . S
C544 C543 1.363 1_455 S
C544 C550 1.428 . S
H545 C541 0.930 . S
H546 C543 0.929 . S
S547 N548 1.613 . S
S547 N549 1.610 . S
N548 S547 1.613 . S
N548 C551 1.350 . S
N549 S547 1.610 . S
N549 C550 1.351 . S
C550 C544 1.428 . S
C550 N549 1.351 . S
C550 C551 1.434 . S
C551 C542 1.429 . S
C551 N548 1.350 . S
C551 C550 1.434 . S
C355 C7 0.914 . S
C357 C331 0.985 . S
C366 C51 2.030 . S
C368 C258 1.975 . S
C377 C87 1.361 . S
C379 C297 1.395 . S
C388 C16 0.619 . S
C390 C336 0.553 . S
C401 C253 2.059 . S
C399 C42 2.166 . S
C412 C292 1.385 . S
C410 C96 1.361 . S
C421 C47 1.292 . S
C423 C180 1.319 . S
C432 C91 3.202 . S
C434 C214 3.135 . S
C443 C2 2.198 . S
C445 C136 2.117 . S
C456 C175 1.388 . S
C454 C56 1.349 . S
C467 C219 3.053 . S
C465 C82 3.116 . S
C476 C11 2.031 . S
C478 C141 1.986 . S
C489 C199 1.792 1_554 S
C487 C19 1.725 . S
C498 C50 1.333 . S
C500 C121 1.373 . S
C509 C99 1.466 . S
C511 C160 1.509 . S
C522 C277 1.490 . S
C520 C59 1.454 . S
C533 C316 1.097 . S
C531 C90 1.101 . S
C542 C10 1.326 . S
C544 C238 1.357 1_455 S
