# Generated by pormake.
# Topology pyr, (3,6)-cn, num edge types: 1
# Building blocks:
#     Node 0, Type 0, BuildingBlock: BELTOD_clean_linker_0, # of connection points: 3
#     Node 1, Type 0, BuildingBlock: BELTOD_clean_linker_0, # of connection points: 3
#     Node 2, Type 0, BuildingBlock: BELTOD_clean_linker_0, # of connection points: 3
#     Node 3, Type 0, BuildingBlock: BELTOD_clean_linker_0, # of connection points: 3
#     Node 4, Type 0, BuildingBlock: BELTOD_clean_linker_0, # of connection points: 3
#     Node 5, Type 0, BuildingBlock: BELTOD_clean_linker_0, # of connection points: 3
#     Node 6, Type 0, BuildingBlock: BELTOD_clean_linker_0, # of connection points: 3
#     Node 7, Type 0, BuildingBlock: BELTOD_clean_linker_0, # of connection points: 3
#     Node 8, Type 1, BuildingBlock: CIFDUS_clean_sbu_1, # of connection points: 6
#     Node 9, Type 1, BuildingBlock: CIFDUS_clean_sbu_1, # of connection points: 6
#     Node 10, Type 1, BuildingBlock: CIFDUS_clean_sbu_1, # of connection points: 6
#     Node 11, Type 1, BuildingBlock: CIFDUS_clean_sbu_1, # of connection points: 6
#     Edge 12, Type (0, 1), BuildingBlock: MIFKUJ_clean_linker_0, # of connection points: 2
#     Edge 13, Type (0, 1), BuildingBlock: MIFKUJ_clean_linker_0, # of connection points: 2
#     Edge 14, Type (0, 1), BuildingBlock: MIFKUJ_clean_linker_0, # of connection points: 2
#     Edge 15, Type (0, 1), BuildingBlock: MIFKUJ_clean_linker_0, # of connection points: 2
#     Edge 16, Type (0, 1), BuildingBlock: MIFKUJ_clean_linker_0, # of connection points: 2
#     Edge 17, Type (0, 1), BuildingBlock: MIFKUJ_clean_linker_0, # of connection points: 2
#     Edge 18, Type (0, 1), BuildingBlock: MIFKUJ_clean_linker_0, # of connection points: 2
#     Edge 19, Type (0, 1), BuildingBlock: MIFKUJ_clean_linker_0, # of connection points: 2
#     Edge 20, Type (0, 1), BuildingBlock: MIFKUJ_clean_linker_0, # of connection points: 2
#     Edge 21, Type (0, 1), BuildingBlock: MIFKUJ_clean_linker_0, # of connection points: 2
#     Edge 22, Type (0, 1), BuildingBlock: MIFKUJ_clean_linker_0, # of connection points: 2
#     Edge 23, Type (0, 1), BuildingBlock: MIFKUJ_clean_linker_0, # of connection points: 2
#     Edge 24, Type (0, 1), BuildingBlock: MIFKUJ_clean_linker_0, # of connection points: 2
#     Edge 25, Type (0, 1), BuildingBlock: MIFKUJ_clean_linker_0, # of connection points: 2
#     Edge 26, Type (0, 1), BuildingBlock: MIFKUJ_clean_linker_0, # of connection points: 2
#     Edge 27, Type (0, 1), BuildingBlock: MIFKUJ_clean_linker_0, # of connection points: 2
#     Edge 28, Type (0, 1), BuildingBlock: MIFKUJ_clean_linker_0, # of connection points: 2
#     Edge 29, Type (0, 1), BuildingBlock: MIFKUJ_clean_linker_0, # of connection points: 2
#     Edge 30, Type (0, 1), BuildingBlock: MIFKUJ_clean_linker_0, # of connection points: 2
#     Edge 31, Type (0, 1), BuildingBlock: MIFKUJ_clean_linker_0, # of connection points: 2
#     Edge 32, Type (0, 1), BuildingBlock: MIFKUJ_clean_linker_0, # of connection points: 2
#     Edge 33, Type (0, 1), BuildingBlock: MIFKUJ_clean_linker_0, # of connection points: 2
#     Edge 34, Type (0, 1), BuildingBlock: MIFKUJ_clean_linker_0, # of connection points: 2
#     Edge 35, Type (0, 1), BuildingBlock: MIFKUJ_clean_linker_0, # of connection points: 2
# Relax obj value: 0.036
# Max RMSD: 0.109
# Mean RMSD: 0.051
data_MOF--net-pry--node1-CIFDUS_clean_sbu_1--node2-BELTOD_clean_linker_0--edge1-MIFKUJ_clean_linker_0
_symmetry_space_group_name_H-M    P1
_symmetry_Int_Tables_number       1
_symmetry_cell_setting            triclinic
loop_
_symmetry_equiv_pos_as_xyz
'x, y, z'
_cell_length_a     53.505017
_cell_length_b     52.074749
_cell_length_c     51.176024
_cell_angle_alpha  92.001114
_cell_angle_beta   91.559417
_cell_angle_gamma 93.786762
loop_
_atom_site_label
_atom_site_type_symbol
_atom_site_fract_x
_atom_site_fract_y
_atom_site_fract_z
_atom_type_partial_charge
P0 P 0.15992 0.16327 0.15251 0.0
H1 H 0.20555 0.18122 0.12768 0.0
H2 H 0.23914 0.15888 0.10739 0.0
H3 H 0.1954 0.08654 0.11162 0.0
H4 H 0.16166 0.10918 0.13234 0.0
H5 H 0.13913 0.21139 0.16786 0.0
H6 H 0.11573 0.24243 0.1441 0.0
H7 H 0.11263 0.19214 0.07521 0.0
H8 H 0.13635 0.16076 0.09917 0.0
H9 H 0.1764 0.13732 0.19809 0.0
H10 H 0.10698 0.14212 0.15449 0.0
O11 O 0.17829 0.18299 0.17233 0.0
H12 H 0.15482 0.1128 0.23095 0.0
H13 H 0.08499 0.11592 0.18674 0.0
C14 C 0.18128 0.14685 0.13195 0.0
C15 C 0.20294 0.16061 0.1239 0.0
C16 C 0.22222 0.14777 0.11243 0.0
C17 C 0.22018 0.12085 0.10841 0.0
C18 C 0.1976 0.10726 0.11462 0.0
C19 C 0.17832 0.12018 0.12646 0.0
C20 C 0.13984 0.18394 0.13516 0.0
C21 C 0.13323 0.20678 0.14774 0.0
C22 C 0.11978 0.22449 0.13423 0.0
C23 C 0.11246 0.21959 0.10794 0.0
C24 C 0.11816 0.19625 0.09552 0.0
C25 C 0.13168 0.17841 0.10914 0.0
C26 C 0.14331 0.14178 0.17401 0.0
C27 C 0.15646 0.13259 0.19536 0.0
C28 C 0.14398 0.11821 0.2141 0.0
C29 C 0.11795 0.11204 0.21176 0.0
C30 C 0.10492 0.12052 0.18961 0.0
C31 C 0.1175 0.13534 0.17095 0.0
P32 P 0.39014 0.89672 0.60538 0.0
H33 H 0.43788 0.91331 0.63161 0.0
H34 H 0.44962 0.92535 0.6773 0.0
H35 H 0.3728 0.90997 0.69889 0.0
H36 H 0.36119 0.89763 0.65328 0.0
H37 H 0.40495 0.86994 0.55777 0.0
H38 H 0.41416 0.8251 0.54795 0.0
H39 H 0.39825 0.80603 0.6274 0.0
H40 H 0.38854 0.85073 0.63711 0.0
H41 H 0.36382 0.94373 0.60657 0.0
H42 H 0.34534 0.86293 0.58946 0.0
O43 O 0.40787 0.91553 0.58649 0.0
H44 H 0.32026 0.95288 0.59702 0.0
H45 H 0.30179 0.87193 0.57993 0.0
C46 C 0.39858 0.90523 0.639 0.0
C47 C 0.42358 0.91254 0.64618 0.0
C48 C 0.43029 0.91925 0.67225 0.0
C49 C 0.41204 0.91877 0.69148 0.0
C50 C 0.38711 0.91085 0.68432 0.0
C51 C 0.38048 0.90388 0.6583 0.0
C52 C 0.39652 0.86373 0.59828 0.0
C53 C 0.40338 0.85612 0.57307 0.0
C54 C 0.40853 0.83058 0.56744 0.0
C55 C 0.40696 0.81237 0.58701 0.0
C56 C 0.39975 0.8199 0.61214 0.0
C57 C 0.39428 0.84538 0.61766 0.0
C58 C 0.35786 0.90272 0.59856 0.0
C59 C 0.35036 0.92797 0.60079 0.0
C60 C 0.32545 0.93315 0.59547 0.0
C61 C 0.30759 0.91313 0.58765 0.0
C62 C 0.31518 0.88779 0.58559 0.0
C63 C 0.34009 0.88261 0.59111 0.0
P64 P 0.64878 0.36227 0.84527 0.0
H65 H 0.6899 0.34614 0.87646 0.0
H66 H 0.72355 0.37012 0.90175 0.0
H67 H 0.6893 0.44129 0.88675 0.0
H68 H 0.65497 0.41704 0.8626 0.0
H69 H 0.62636 0.31141 0.8321 0.0
H70 H 0.60188 0.28023 0.85692 0.0
H71 H 0.60346 0.33439 0.92298 0.0
H72 H 0.62821 0.36586 0.89777 0.0
H73 H 0.66385 0.3988 0.80702 0.0
H74 H 0.59543 0.37328 0.84389 0.0
O75 O 0.66504 0.34524 0.82427 0.0
H76 H 0.64044 0.4262 0.77897 0.0
H77 H 0.57176 0.40045 0.81537 0.0
C78 C 0.67062 0.37994 0.86699 0.0
C79 C 0.68949 0.36685 0.87895 0.0
C80 C 0.70868 0.38056 0.89321 0.0
C81 C 0.70931 0.40756 0.89537 0.0
C82 C 0.68931 0.42049 0.88508 0.0
C83 C 0.66988 0.40666 0.87104 0.0
C84 C 0.62937 0.34058 0.86334 0.0
C85 C 0.6213 0.31668 0.85182 0.0
C86 C 0.60716 0.29901 0.86594 0.0
C87 C 0.60072 0.30508 0.89174 0.0
C88 C 0.6083 0.32936 0.90312 0.0
C89 C 0.6224 0.3472 0.88881 0.0
C90 C 0.63122 0.38373 0.82696 0.0
C91 C 0.64381 0.39937 0.80922 0.0
C92 C 0.63051 0.41524 0.79353 0.0
C93 C 0.60439 0.41536 0.7952 0.0
C94 C 0.59193 0.40058 0.81389 0.0
C95 C 0.60537 0.38494 0.82992 0.0
P96 P 0.85909 0.6266 0.37764 0.0
H97 H 0.88508 0.67396 0.36265 0.0
H98 H 0.90625 0.70979 0.38846 0.0
H99 H 0.90154 0.6651 0.45775 0.0
H100 H 0.87999 0.62905 0.43181 0.0
H101 H 0.83734 0.5919 0.33722 0.0
H102 H 0.85512 0.56772 0.30151 0.0
H103 H 0.9297 0.59065 0.33193 0.0
H104 H 0.91157 0.61445 0.36836 0.0
H105 H 0.82235 0.64349 0.41347 0.0
H106 H 0.85089 0.57128 0.3884 0.0
O107 O 0.84057 0.64409 0.35964 0.0
H108 H 0.78924 0.6201 0.43689 0.0
H109 H 0.81718 0.5479 0.41115 0.0
C110 C 0.88062 0.64913 0.39544 0.0
C111 C 0.88913 0.67156 0.38324 0.0
C112 C 0.90118 0.69199 0.39795 0.0
C113 C 0.90523 0.69008 0.42497 0.0
C114 C 0.89856 0.66685 0.43688 0.0
C115 C 0.88627 0.64636 0.42211 0.0
C116 C 0.87318 0.60535 0.35496 0.0
C117 C 0.85752 0.59131 0.33652 0.0
C118 C 0.86769 0.57753 0.31613 0.0
C119 C 0.89378 0.57787 0.31362 0.0
C120 C 0.90952 0.59021 0.33336 0.0
C121 C 0.89922 0.60397 0.354 0.0
C122 C 0.83881 0.60913 0.39902 0.0
C123 C 0.82182 0.62266 0.41351 0.0
C124 C 0.80303 0.60935 0.42688 0.0
C125 C 0.80093 0.58236 0.4257 0.0
C126 C 0.81865 0.56876 0.41227 0.0
C127 C 0.83776 0.58213 0.39921 0.0
P128 P 0.88521 0.89448 0.90528 0.0
H129 H 0.86249 0.91937 0.95023 0.0
H130 H 0.82013 0.93221 0.95848 0.0
H131 H 0.79425 0.89755 0.88404 0.0
H132 H 0.83708 0.88527 0.87543 0.0
H133 H 0.93239 0.87317 0.92018 0.0
H134 H 0.94409 0.82975 0.93007 0.0
H135 H 0.86735 0.80062 0.91646 0.0
H136 H 0.85569 0.84421 0.90616 0.0
H137 H 0.89396 0.94299 0.87925 0.0
H138 H 0.89355 0.86237 0.858 0.0
O139 O 0.90383 0.9145 0.92454 0.0
H140 H 0.90665 0.95399 0.83618 0.0
H141 H 0.90503 0.87241 0.81431 0.0
C142 C 0.85312 0.90151 0.91206 0.0
C143 C 0.84779 0.91448 0.93559 0.0
C144 C 0.82355 0.92189 0.94032 0.0
C145 C 0.80388 0.91604 0.92186 0.0
C146 C 0.80902 0.90228 0.89865 0.0
C147 C 0.83346 0.89524 0.89372 0.0
C148 C 0.89305 0.8621 0.91288 0.0
C149 C 0.91801 0.8575 0.91934 0.0
C150 C 0.92474 0.83265 0.92487 0.0
C151 C 0.90663 0.81183 0.92415 0.0
C152 C 0.88164 0.81639 0.91744 0.0
C153 C 0.87496 0.84127 0.91159 0.0
C154 C 0.89294 0.90189 0.872 0.0
C155 C 0.89645 0.92756 0.86499 0.0
C156 C 0.90373 0.93377 0.83975 0.0
C157 C 0.90735 0.91441 0.8203 0.0
C158 C 0.90319 0.8885 0.82775 0.0
C159 C 0.89623 0.88241 0.85316 0.0
P160 P 0.66289 0.16454 0.37551 0.0
H161 H 0.67644 0.2128 0.40345 0.0
H162 H 0.65084 0.24437 0.42429 0.0
H163 H 0.58624 0.19014 0.41711 0.0
H164 H 0.61198 0.15839 0.39611 0.0
H165 H 0.71178 0.15004 0.3607 0.0
H166 H 0.74337 0.1259 0.38191 0.0
H167 H 0.69457 0.11234 0.44665 0.0
H168 H 0.66277 0.13729 0.42517 0.0
H169 H 0.62728 0.17896 0.33633 0.0
H170 H 0.65133 0.10846 0.36769 0.0
O171 O 0.67885 0.18504 0.35673 0.0
H172 H 0.6012 0.15405 0.30312 0.0
H173 H 0.62545 0.08351 0.33405 0.0
C174 C 0.64591 0.18364 0.39771 0.0
C175 C 0.65695 0.20742 0.40696 0.0
C176 C 0.64236 0.22541 0.41877 0.0
C177 C 0.61663 0.21965 0.42176 0.0
C178 C 0.60607 0.1949 0.41484 0.0
C179 C 0.62072 0.17688 0.40282 0.0
C180 C 0.68522 0.14582 0.39163 0.0
C181 C 0.7078 0.14193 0.37946 0.0
C182 C 0.72576 0.12788 0.3915 0.0
C183 C 0.7214 0.1171 0.41588 0.0
C184 C 0.69848 0.12061 0.42794 0.0
C185 C 0.68036 0.13479 0.41574 0.0
C186 C 0.64147 0.14552 0.35407 0.0
C187 C 0.62658 0.15812 0.33633 0.0
C188 C 0.61156 0.14397 0.3176 0.0
C189 C 0.61136 0.11705 0.3164 0.0
C190 C 0.62531 0.10432 0.33494 0.0
C191 C 0.64019 0.11853 0.35392 0.0
P192 P 0.38429 0.63437 0.12456 0.0
H193 H 0.35626 0.62686 0.07554 0.0
H194 H 0.31223 0.61588 0.06471 0.0
H195 H 0.29679 0.61321 0.14725 0.0
H196 H 0.34058 0.62587 0.15772 0.0
H197 H 0.42859 0.66205 0.10535 0.0
H198 H 0.43843 0.70747 0.09704 0.0
H199 H 0.36595 0.72576 0.12486 0.0
H200 H 0.35616 0.68014 0.13312 0.0
H201 H 0.39656 0.58675 0.14772 0.0
H202 H 0.38696 0.66496 0.17399 0.0
O203 O 0.40098 0.61681 0.10444 0.0
H204 H 0.40584 0.57534 0.19241 0.0
H205 H 0.39465 0.65353 0.21902 0.0
C206 C 0.35173 0.62644 0.11732 0.0
C207 C 0.34332 0.62392 0.09124 0.0
C208 C 0.31813 0.61742 0.08513 0.0
C209 C 0.3009 0.613 0.10508 0.0
C210 C 0.30939 0.61645 0.13132 0.0
C211 C 0.33458 0.62337 0.13738 0.0
C212 C 0.39146 0.66779 0.1192 0.0
C213 C 0.41477 0.6758 0.10951 0.0
C214 C 0.42034 0.70169 0.10476 0.0
C215 C 0.40278 0.71996 0.10999 0.0
C216 C 0.37974 0.71199 0.12061 0.0
C217 C 0.3741 0.686 0.12514 0.0
C218 C 0.39187 0.6268 0.15754 0.0
C219 C 0.39658 0.60149 0.16319 0.0
C220 C 0.40147 0.59494 0.18888 0.0
C221 C 0.40111 0.61351 0.20952 0.0
C222 C 0.39574 0.63883 0.20369 0.0
C223 C 0.39123 0.64542 0.17788 0.0
P224 P 0.13565 0.37904 0.64198 0.0
H225 H 0.14948 0.32858 0.62533 0.0
H226 H 0.12608 0.29227 0.60314 0.0
H227 H 0.06334 0.33902 0.59049 0.0
H228 H 0.08711 0.3757 0.61316 0.0
H229 H 0.17934 0.41063 0.65981 0.0
H230 H 0.21335 0.43229 0.63651 0.0
H231 H 0.17294 0.41519 0.56314 0.0
H232 H 0.13863 0.39326 0.5867 0.0
H233 H 0.09332 0.36018 0.67069 0.0
H234 H 0.12986 0.43405 0.65439 0.0
O235 O 0.15273 0.36422 0.66391 0.0
H236 H 0.06985 0.38036 0.70497 0.0
H237 H 0.10663 0.4543 0.68924 0.0
C238 C 0.11982 0.35454 0.62119 0.0
C239 C 0.13087 0.33121 0.61745 0.0
C240 C 0.11749 0.31051 0.60468 0.0
C241 C 0.0929 0.31289 0.59519 0.0
C242 C 0.08219 0.33671 0.59788 0.0
C243 C 0.09575 0.35759 0.61065 0.0
C244 C 0.15693 0.39984 0.62484 0.0
C245 C 0.17751 0.41198 0.63877 0.0
C246 C 0.19685 0.42439 0.6255 0.0
C247 C 0.19576 0.42496 0.59811 0.0
C248 C 0.17408 0.41487 0.58429 0.0
C249 C 0.15465 0.40225 0.59768 0.0
C250 C 0.11335 0.39563 0.66021 0.0
C251 C 0.09557 0.3809 0.67382 0.0
C252 C 0.0822 0.39241 0.69338 0.0
C253 C 0.08679 0.41874 0.69982 0.0
C254 C 0.10278 0.43397 0.68446 0.0
C255 C 0.11618 0.42238 0.66474 0.0
O256 O 0.97135 0.01989 0.50016 0.0
Mn257 Mn 0.00539 0.00259 0.50905 0.0
O258 O 0.95853 0.00193 0.4613 0.0
Mn259 Mn 0.98437 0.98056 0.45865 0.0
O260 O 0.04039 0.98547 0.51873 0.0
O261 O 0.01852 0.03619 0.52855 0.0
Mn262 Mn 0.03211 0.02532 0.55788 0.0
O263 O 0.98814 0.98729 0.54256 0.0
O264 O 0.06141 0.01451 0.54616 0.0
O265 O 0.02232 0.0192 0.47525 0.0
O266 O 0.01136 0.99301 0.44109 0.0
O267 O 0.02285 0.05718 0.56626 0.0
O268 O 0.01374 0.00113 0.57588 0.0
C269 C 0.98348 0.94654 0.47736 0.0
C270 C 0.95567 0.0175 0.48046 0.0
C271 C 0.06058 0.9938 0.53218 0.0
C272 C 0.01312 0.05625 0.54279 0.0
C273 C 0.99465 0.98785 0.56695 0.0
C274 C 0.02403 0.01234 0.45089 0.0
O275 O 0.99197 0.96824 0.48965 0.0
O276 O 0.97612 0.94726 0.45305 0.0
O277 O 0.49087 0.01264 0.96762 0.0
Mn278 Mn 0.50539 0.01541 0.00643 0.0
O279 O 0.51675 0.98491 0.95559 0.0
Mn280 Mn 0.51407 0.97095 0.988 0.0
O281 O 0.51862 0.01987 0.04614 0.0
O282 O 0.51634 0.05318 0.00082 0.0
Mn283 Mn 0.50533 0.06896 0.02952 0.0
O284 O 0.46832 0.02339 0.01703 0.0
O285 O 0.52968 0.06205 0.05331 0.0
O286 O 0.54439 0.00685 0.99622 0.0
O287 O 0.54406 0.96541 0.00213 0.0
O288 O 0.50349 0.09191 0.004 0.0
O289 O 0.47371 0.05984 0.04073 0.0
C290 C 0.48373 0.95454 0.00499 0.0
C291 C 0.50067 3e-05 0.94933 0.0
C292 C 0.52973 0.03877 0.06004 0.0
C293 C 0.51064 0.07367 0.98871 0.0
C294 C 0.45977 0.04075 0.03216 0.0
C295 C 0.55665 0.98609 0.99863 0.0
O296 O 0.4932 0.97727 0.01422 0.0
O297 O 0.49199 0.94487 0.98353 0.0
O298 O 0.53603 0.51769 0.50548 0.0
Mn299 Mn 0.49665 0.50791 0.50721 0.0
O300 O 0.53838 0.53517 0.46738 0.0
Mn301 Mn 0.51675 0.50871 0.45589 0.0
O302 O 0.45773 0.49678 0.51096 0.0
O303 O 0.50263 0.50093 0.54563 0.0
Mn304 Mn 0.47714 0.51502 0.56143 0.0
O305 O 0.49091 0.54651 0.51451 0.0
O306 O 0.4524 0.49002 0.55372 0.0
O307 O 0.50354 0.46939 0.4977 0.0
O308 O 0.52487 0.47541 0.4612 0.0
O309 O 0.50298 0.51777 0.58512 0.0
O310 O 0.46928 0.54716 0.55098 0.0
C311 C 0.48327 0.51909 0.4438 0.0
C312 C 0.54858 0.53078 0.48892 0.0
C313 C 0.44472 0.48761 0.52996 0.0
C314 C 0.51594 0.50885 0.56627 0.0
C315 C 0.47819 0.55812 0.53134 0.0
C316 C 0.5165 0.46082 0.47882 0.0
O317 O 0.48769 0.51511 0.46866 0.0
O318 O 0.49997 0.51418 0.42671 0.0
O319 O 0.96391 0.49124 0.00288 0.0
Mn320 Mn 0.00013 0.50699 0.00795 0.0
O321 O 0.95011 0.51439 0.97126 0.0
Mn322 Mn 0.98088 0.5179 0.95626 0.0
O323 O 0.03721 0.52215 0.01687 0.0
O324 O 0.99284 0.51176 0.04666 0.0
Mn325 Mn 0.01749 0.49537 0.0622 0.0
O326 O 0.00993 0.46827 0.01075 0.0
O327 O 0.03904 0.52392 0.06113 0.0
O328 O 0.9898 0.54653 0.00196 0.0
O329 O 0.99251 0.55121 0.95866 0.0
O330 O 0.98747 0.48307 0.07521 0.0
O331 O 0.03275 0.4684 0.04724 0.0
C332 C 0.00481 0.48749 0.94894 0.0
C333 C 0.94609 0.49981 0.98986 0.0
C334 C 0.04774 0.53023 0.03907 0.0
C335 C 0.97803 0.50184 0.06375 0.0
C336 C 0.02491 0.45746 0.02617 0.0
C337 C 0.99086 0.56107 0.98155 0.0
O338 O 0.00809 0.50353 0.96909 0.0
O339 O 0.98536 0.49094 0.93428 0.0
H340 H 0.13592 0.07526 0.24348 0.0
H341 H 0.11764 0.05832 0.28258 0.0
H342 H 0.05038 0.09717 0.26666 0.0
H343 H 0.06977 0.11668 0.22895 0.0
H344 H 0.06064 0.10507 0.31343 0.0
H345 H 0.05506 0.02674 0.26332 0.0
H346 H 0.06999 0.9929 0.23387 0.0
H347 H 0.1256 0.97599 0.2917 0.0
H348 H 0.11119 0.00992 0.3214 0.0
H349 H 6e-05 0.04509 0.4214 0.0
H350 H 0.01276 0.06036 0.37889 0.0
H351 H 0.08553 0.03107 0.39143 0.0
H352 H 0.07209 0.01447 0.43357 0.0
H353 H 0.06866 0.01678 0.34432 0.0
H354 H 0.06935 0.09765 0.39427 0.0
H355 H 0.0503 0.13057 0.42082 0.0
H356 H 0.9984 0.14317 0.35767 0.0
H357 H 0.01599 0.10857 0.33137 0.0
C358 C 0.11732 0.08053 0.24828 0.0
C359 C 0.10472 0.09799 0.23307 0.0
C360 C 0.10656 0.07021 0.27053 0.0
C361 C 0.08238 0.07606 0.27775 0.0
C362 C 0.0691 0.0923 0.26176 0.0
C363 C 0.08017 0.10326 0.23985 0.0
C364 C 0.07206 0.0673 0.30316 0.0
C365 C 0.06189 0.08555 0.31983 0.0
C366 C 0.07391 0.04195 0.312 0.0
C367 C 0.08212 0.02097 0.29454 0.0
C368 C 0.07051 0.01584 0.26974 0.0
C369 C 0.07888 0.99665 0.253 0.0
C370 C 0.09875 0.98233 0.26089 0.0
C371 C 0.1102 0.98708 0.28561 0.0
C372 C 0.10189 0.00625 0.30244 0.0
C373 C 0.01918 0.04296 0.41561 0.0
C374 C 0.03545 0.0295 0.43137 0.0
C375 C 0.02637 0.05145 0.39105 0.0
C376 C 0.0503 0.04721 0.38173 0.0
C377 C 0.06699 0.03471 0.39802 0.0
C378 C 0.05956 0.02574 0.42244 0.0
C379 C 0.05757 0.05475 0.35471 0.0
C380 C 0.06715 0.0362 0.33772 0.0
C381 C 0.05436 0.07962 0.34514 0.0
C382 C 0.04378 0.10027 0.36104 0.0
C383 C 0.05364 0.10715 0.38617 0.0
C384 C 0.04303 0.12618 0.40119 0.0
C385 C 0.0232 0.13925 0.39086 0.0
C386 C 0.01372 0.13301 0.36563 0.0
C387 C 0.02383 0.11349 0.35078 0.0
H388 H 0.01506 0.15423 0.40221 0.0
H389 H 0.10527 0.96754 0.24787 0.0
H390 H 0.39051 0.95496 0.72131 0.0
H391 H 0.40257 0.97019 0.76605 0.0
H392 H 0.46087 0.9168 0.76791 0.0
H393 H 0.44899 0.90173 0.72299 0.0
H394 H 0.43406 0.91689 0.81295 0.0
H395 H 0.47628 0.97712 0.75947 0.0
H396 H 0.48277 0.00939 0.72581 0.0
H397 H 0.43491 0.05951 0.7662 0.0
H398 H 0.4277 0.02729 0.79985 0.0
H399 H 0.51884 0.97215 0.90945 0.0
H400 H 0.49796 0.95816 0.86841 0.0
H401 H 0.43703 0.00558 0.8856 0.0
H402 H 0.4575 0.01907 0.9282 0.0
H403 H 0.46033 0.00879 0.83296 0.0
H404 H 0.42303 0.94647 0.88982 0.0
H405 H 0.4211 0.9131 0.92285 0.0
H406 H 0.46625 0.86593 0.8755 0.0
H407 H 0.46877 0.89915 0.84234 0.0
C408 C 0.4058 0.94642 0.73137 0.0
C409 C 0.41887 0.92724 0.7188 0.0
C410 C 0.41275 0.9552 0.75682 0.0
C411 C 0.43271 0.94475 0.77021 0.0
C412 C 0.44544 0.92516 0.75788 0.0
C413 C 0.43874 0.91665 0.73226 0.0
C414 C 0.44038 0.95439 0.79705 0.0
C415 C 0.43995 0.93695 0.81733 0.0
C416 C 0.44768 0.98065 0.80277 0.0
C417 C 0.45108 0.99958 0.78194 0.0
C418 C 0.46677 0.99482 0.76094 0.0
C419 C 0.47067 0.01315 0.74191 0.0
C420 C 0.45917 0.03644 0.74379 0.0
C421 C 0.44372 0.04142 0.7647 0.0
C422 C 0.43968 0.02311 0.78373 0.0
C423 C 0.50105 0.9799 0.90469 0.0
C424 C 0.48979 0.99673 0.92234 0.0
C425 C 0.48904 0.97158 0.88121 0.0
C426 C 0.46573 0.9803 0.87431 0.0
C427 C 0.4549 0.99831 0.89094 0.0
C428 C 0.46673 0.00627 0.91503 0.0
C429 C 0.45388 0.97137 0.84886 0.0
C430 C 0.45384 0.98886 0.8287 0.0
C431 C 0.44679 0.94502 0.84316 0.0
C432 C 0.44628 0.92549 0.86368 0.0
C433 C 0.43286 0.92917 0.8866 0.0
C434 C 0.43157 0.91021 0.90531 0.0
C435 C 0.44359 0.88744 0.90131 0.0
C436 C 0.45698 0.88359 0.8786 0.0
C437 C 0.45832 0.90248 0.85984 0.0
H438 H 0.44248 0.87275 0.91576 0.0
H439 H 0.46231 0.05067 0.72911 0.0
H440 H 0.61062 0.46463 0.77921 0.0
H441 H 0.59541 0.48019 0.73743 0.0
H442 H 0.55275 0.40773 0.72194 0.0
H443 H 0.56788 0.39217 0.76363 0.0
H444 H 0.58609 0.42064 0.6832 0.0
H445 H 0.5227 0.45825 0.7319 0.0
H446 H 0.50803 0.48314 0.76963 0.0
H447 H 0.54852 0.55123 0.74417 0.0
H448 H 0.56399 0.5266 0.70656 0.0
H449 H 0.52001 0.45769 0.56834 0.0
H450 H 0.53716 0.44052 0.60819 0.0
H451 H 0.57646 0.51408 0.62733 0.0
H452 H 0.55876 0.5314 0.58767 0.0
H453 H 0.54335 0.50005 0.66492 0.0
H454 H 0.60704 0.46065 0.61606 0.0
H455 H 0.62243 0.43406 0.57992 0.0
H456 H 0.58038 0.36759 0.607 0.0
H457 H 0.56422 0.39393 0.64296 0.0
C458 C 0.59735 0.45244 0.7672 0.0
C459 C 0.59031 0.42731 0.77443 0.0
C460 C 0.58877 0.46124 0.74341 0.0
C461 C 0.57319 0.44493 0.72665 0.0
C462 C 0.56485 0.42047 0.73467 0.0
C463 C 0.57322 0.41176 0.75855 0.0
C464 C 0.56751 0.45255 0.69984 0.0
C465 C 0.57639 0.43778 0.67908 0.0
C466 C 0.55531 0.47514 0.69485 0.0
C467 C 0.54467 0.49051 0.71643 0.0
C468 C 0.52855 0.47853 0.73434 0.0
C469 C 0.52012 0.49258 0.75575 0.0
C470 C 0.52738 0.51874 0.75933 0.0
C471 C 0.54293 0.53095 0.74137 0.0
C472 C 0.55153 0.51695 0.71997 0.0
C473 C 0.53375 0.46964 0.58002 0.0
C474 C 0.53782 0.49595 0.57523 0.0
C475 C 0.54312 0.45998 0.60317 0.0
C476 C 0.55749 0.4763 0.62106 0.0
C477 C 0.56498 0.50135 0.614 0.0
C478 C 0.55546 0.51102 0.59095 0.0
C479 C 0.56223 0.46824 0.64809 0.0
C480 C 0.55304 0.4829 0.66896 0.0
C481 C 0.57395 0.44536 0.65323 0.0
C482 C 0.58422 0.42933 0.63206 0.0
C483 C 0.60092 0.4404 0.61421 0.0
C484 C 0.60978 0.42538 0.59374 0.0
C485 C 0.60233 0.39917 0.59112 0.0
C486 C 0.58609 0.38791 0.60903 0.0
C487 C 0.57707 0.40288 0.62945 0.0
H488 H 0.60919 0.38757 0.57524 0.0
H489 H 0.52093 0.52957 0.77598 0.0
H490 H 0.87692 0.58772 0.26506 0.0
H491 H 0.89317 0.57407 0.22337 0.0
H492 H 0.95073 0.53489 0.26329 0.0
H493 H 0.93412 0.54835 0.30578 0.0
H494 H 0.96681 0.56904 0.22192 0.0
H495 H 0.90813 0.49741 0.23441 0.0
H496 H 0.86709 0.47837 0.2474 0.0
H497 H 0.8305 0.51767 0.18632 0.0
H498 H 0.87131 0.53714 0.17311 0.0
H499 H 0.00768 0.52223 0.10223 0.0
H500 H 0.99484 0.53202 0.14524 0.0
H501 H 0.91872 0.53742 0.11617 0.0
H502 H 0.93102 0.51986 0.07343 0.0
H503 H 0.91353 0.51734 0.15595 0.0
H504 H 0.97216 0.59267 0.14548 0.0
H505 H 0.01312 0.6137 0.13463 0.0
H506 H 0.04959 0.57137 0.19344 0.0
H507 H 0.00896 0.54997 0.20448 0.0
C508 C 0.89272 0.57574 0.26509 0.0
C509 C 0.90397 0.56867 0.28867 0.0
C510 C 0.90204 0.56808 0.24123 0.0
C511 C 0.92283 0.55319 0.24033 0.0
C512 C 0.93451 0.54627 0.26373 0.0
C513 C 0.92508 0.55396 0.28786 0.0
C514 C 0.93246 0.546 0.21455 0.0
C515 C 0.95548 0.55744 0.20742 0.0
C516 C 0.91721 0.53145 0.19576 0.0
C517 C 0.89278 0.51873 0.20278 0.0
C518 C 0.89133 0.50197 0.22374 0.0
C519 C 0.86811 0.49112 0.23116 0.0
C520 C 0.8462 0.49681 0.2177 0.0
C521 C 0.84749 0.51324 0.19669 0.0
C522 C 0.87067 0.52412 0.18917 0.0
C523 C 0.9882 0.5261 0.1047 0.0
C524 C 0.9703 0.51987 0.08444 0.0
C525 C 0.98086 0.5324 0.12968 0.0
C526 C 0.95583 0.53676 0.13461 0.0
C527 C 0.93821 0.53395 0.11334 0.0
C528 C 0.94522 0.5246 0.08862 0.0
C529 C 0.94791 0.54141 0.16219 0.0
C530 C 0.92512 0.52924 0.16993 0.0
C531 C 0.96333 0.55575 0.18154 0.0
C532 C 0.98751 0.56971 0.17574 0.0
C533 C 0.98891 0.58796 0.15615 0.0
C534 C 0.01208 0.59987 0.14993 0.0
C535 C 0.03393 0.59386 0.16332 0.0
C536 C 0.03266 0.57605 0.1831 0.0
C537 C 0.00957 0.56408 0.1894 0.0
H538 H 0.05185 0.60301 0.15837 0.0
H539 H 0.82823 0.48849 0.22354 0.0
H540 H 0.268 0.12785 0.12779 0.0
H541 H 0.30534 0.10837 0.11227 0.0
H542 H 0.26044 0.06347 0.05373 0.0
H543 H 0.22259 0.08286 0.0696 0.0
H544 H 0.29856 0.03551 0.07703 0.0
H545 H 0.2931 0.11621 0.03488 0.0
H546 H 0.28691 0.16271 0.0342 0.0
H547 H 0.35072 0.17858 0.08634 0.0
H548 H 0.35715 0.13214 0.08751 0.0
H549 H 0.41665 0.01623 0.00777 0.0
H550 H 0.37275 0.02366 0.01824 0.0
H551 H 0.39878 0.07318 0.08395 0.0
H552 H 0.44178 0.0656 0.07424 0.0
H553 H 0.36702 0.09699 0.05006 0.0
H554 H 0.37108 0.01864 0.09598 0.0
H555 H 0.37645 0.97254 0.10194 0.0
H556 H 0.31562 0.95242 0.047 0.0
H557 H 0.31014 0.99847 0.04043 0.0
C558 C 0.26601 0.11384 0.11158 0.0
C559 C 0.24238 0.10728 0.09961 0.0
C560 C 0.2874 0.10265 0.10276 0.0
C561 C 0.28588 0.0848 0.08146 0.0
C562 C 0.26215 0.07728 0.07011 0.0
C563 C 0.24055 0.08839 0.07915 0.0
C564 C 0.30938 0.07527 0.07059 0.0
C565 C 0.31333 0.04885 0.07051 0.0
C566 C 0.32891 0.09268 0.06258 0.0
C567 C 0.32559 0.1207 0.06129 0.0
C568 C 0.3058 0.12962 0.04621 0.0
C569 C 0.30224 0.15596 0.04576 0.0
C570 C 0.31842 0.17359 0.06022 0.0
C571 C 0.33824 0.16491 0.07511 0.0
C572 C 0.34189 0.13859 0.07562 0.0
C573 C 0.41292 0.02819 0.02477 0.0
C574 C 0.43292 0.04056 0.03987 0.0
C575 C 0.38783 0.03254 0.03068 0.0
C576 C 0.38242 0.04935 0.0517 0.0
C577 C 0.40234 0.06045 0.06746 0.0
C578 C 0.42707 0.05601 0.06179 0.0
C579 C 0.35649 0.05716 0.05679 0.0
C580 C 0.35209 0.08345 0.05589 0.0
C581 C 0.33674 0.03962 0.0641 0.0
C582 C 0.34052 0.01199 0.06733 0.0
C583 C 0.35912 0.00439 0.08484 0.0
C584 C 0.36211 0.97827 0.08843 0.0
C585 C 0.34647 0.95956 0.07475 0.0
C586 C 0.32779 0.96694 0.05749 0.0
C587 C 0.32474 0.99304 0.05382 0.0
H588 H 0.34876 0.93934 0.07761 0.0
H589 H 0.3156 0.19397 0.05988 0.0
H590 H 0.27803 0.89494 0.5457 0.0
H591 H 0.23483 0.90468 0.53506 0.0
H592 H 0.23444 0.95386 0.60461 0.0
H593 H 0.27759 0.94405 0.61543 0.0
H594 H 0.19207 0.92229 0.59885 0.0
H595 H 0.23965 0.98008 0.54735 0.0
H596 H 0.27186 0.99278 0.5159 0.0
H597 H 0.23197 0.94621 0.45546 0.0
H598 H 0.19972 0.93282 0.48671 0.0
H599 H 0.08874 0.99374 0.5764 0.0
H600 H 0.12833 0.97592 0.58395 0.0
H601 H 0.12295 0.93865 0.50717 0.0
H602 H 0.08293 0.95862 0.49851 0.0
H603 H 0.16795 0.96009 0.51496 0.0
H604 H 0.11791 0.90498 0.57187 0.0
H605 H 0.08989 0.89324 0.60777 0.0
H606 H 0.13713 0.94015 0.66216 0.0
H607 H 0.16523 0.95235 0.62668 0.0
C608 C 0.26867 0.90771 0.5588 0.0
C609 C 0.28123 0.91876 0.58138 0.0
C610 C 0.24406 0.91342 0.55258 0.0
C611 C 0.23144 0.93018 0.56889 0.0
C612 C 0.24381 0.94095 0.59167 0.0
C613 C 0.26851 0.93545 0.59776 0.0
C614 C 0.20521 0.93622 0.5624 0.0
C615 C 0.18676 0.93073 0.58059 0.0
C616 C 0.19829 0.94689 0.53842 0.0
C617 C 0.2174 0.9552 0.51944 0.0
C618 C 0.23784 0.97236 0.5274 0.0
C619 C 0.2561 0.97971 0.50961 0.0
C620 C 0.254 0.97025 0.48371 0.0
C621 C 0.23359 0.95349 0.47554 0.0
C622 C 0.2153 0.94601 0.49329 0.0
C623 C 0.09567 0.98168 0.56089 0.0
C624 C 0.0826 0.97806 0.53655 0.0
C625 C 0.11839 0.97098 0.56556 0.0
C626 C 0.12871 0.95528 0.54651 0.0
C627 C 0.11535 0.95057 0.52237 0.0
C628 C 0.09238 0.9618 0.51744 0.0
C629 C 0.15435 0.94606 0.55146 0.0
C630 C 0.17295 0.95117 0.53303 0.0
C631 C 0.16158 0.93564 0.57568 0.0
C632 C 0.14365 0.92958 0.59656 0.0
C633 C 0.12214 0.91302 0.59142 0.0
C634 C 0.10629 0.90623 0.61173 0.0
C635 C 0.11182 0.91588 0.63722 0.0
C636 C 0.13294 0.93263 0.64243 0.0
C637 C 0.14882 0.93946 0.62225 0.0
H638 H 0.09991 0.91028 0.65304 0.0
H639 H 0.26815 0.97595 0.46996 0.0
H640 H 0.75724 0.39868 0.88518 0.0
H641 H 0.79498 0.41879 0.90687 0.0
H642 H 0.75042 0.46998 0.95101 0.0
H643 H 0.71206 0.44923 0.92987 0.0
H644 H 0.80174 0.48861 0.92249 0.0
H645 H 0.76423 0.4316 0.9868 0.0
H646 H 0.74389 0.39038 1.00004 0.0
H647 H 0.8059 0.35024 0.9717 0.0
H648 H 0.82645 0.39123 0.95804 0.0
H649 H 0.90675 0.52606 0.00339 0.0
H650 H 0.86318 0.51328 0.99045 0.0
H651 H 0.8853 0.43846 0.96467 0.0
H652 H 0.92875 0.45112 0.97818 0.0
H653 H 0.84191 0.43457 0.98745 0.0
H654 H 0.87801 0.48306 0.9196 0.0
H655 H 0.89697 0.51727 0.89284 0.0
H656 H 0.8408 0.56775 0.9165 0.0
H657 H 0.82159 0.5339 0.94353 0.0
C658 C 0.75542 0.41412 0.89961 0.0
C659 C 0.73181 0.42192 0.90655 0.0
C660 C 0.77693 0.42567 0.91172 0.0
C661 C 0.7751 0.44534 0.93068 0.0
C662 C 0.75182 0.45455 0.93648 0.0
C663 C 0.7301 0.44277 0.92445 0.0
C664 C 0.79777 0.45484 0.9453 0.0
C665 C 0.81032 0.47747 0.93743 0.0
C666 C 0.80917 0.4391 0.96335 0.0
C667 C 0.79678 0.41443 0.97132 0.0
C668 C 0.7734 0.41395 0.9832 0.0
C669 C 0.76187 0.39064 0.99083 0.0
C670 C 0.77359 0.3677 0.9867 0.0
C671 C 0.79685 0.36802 0.97491 0.0
C672 C 0.80847 0.39128 0.96726 0.0
C673 C 0.90193 0.50653 0.99607 0.0
C674 C 0.92059 0.4893 0.99209 0.0
C675 C 0.87731 0.49946 0.98822 0.0
C676 C 0.87136 0.47526 0.97606 0.0
C677 C 0.88971 0.45729 0.97398 0.0
C678 C 0.91432 0.4643 0.98206 0.0
C679 C 0.84608 0.46883 0.96507 0.0
C680 C 0.83314 0.44647 0.97332 0.0
C681 C 0.83476 0.48443 0.9466 0.0
C682 C 0.84856 0.50605 0.9339 0.0
C683 C 0.87009 0.50167 0.91966 0.0
C684 C 0.88074 0.52092 0.90424 0.0
C685 C 0.87001 0.5446 0.90288 0.0
C686 C 0.84905 0.54937 0.91753 0.0
C687 C 0.83831 0.53019 0.93293 0.0
H688 H 0.87773 0.55914 0.89025 0.0
H689 H 0.76465 0.34968 0.99267 0.0
H690 H 0.78769 0.57814 0.47631 0.0
H691 H 0.74604 0.56401 0.49162 0.0
H692 H 0.72131 0.54467 0.41197 0.0
H693 H 0.76303 0.55828 0.39678 0.0
H694 H 0.69294 0.58001 0.43766 0.0
H695 H 0.72465 0.49844 0.45075 0.0
H696 H 0.75438 0.46812 0.46703 0.0
H697 H 0.73877 0.49024 0.54623 0.0
H698 H 0.70928 0.52112 0.53041 0.0
H699 H 0.57568 0.52102 0.447 0.0
H700 H 0.62019 0.52763 0.44214 0.0
H701 H 0.62995 0.54785 0.5244 0.0
H702 H 0.584 0.54138 0.52965 0.0
H703 H 0.66668 0.51467 0.50155 0.0
H704 H 0.6306 0.59517 0.48411 0.0
H705 H 0.60152 0.62398 0.4638 0.0
H706 H 0.62494 0.60061 0.38751 0.0
H707 H 0.65382 0.57132 0.40728 0.0
C708 C 0.77351 0.57005 0.46231 0.0
C709 C 0.77832 0.569 0.43552 0.0
C710 C 0.74984 0.56206 0.47099 0.0
C711 C 0.73072 0.55339 0.45287 0.0
C712 C 0.73592 0.55124 0.42619 0.0
C713 C 0.75968 0.55882 0.41758 0.0
C714 C 0.70469 0.54945 0.46137 0.0
C715 C 0.6871 0.5656 0.45147 0.0
C716 C 0.69744 0.53103 0.47981 0.0
C717 C 0.71502 0.51237 0.4894 0.0
C718 C 0.72776 0.49707 0.47165 0.0
C719 C 0.74454 0.47973 0.48078 0.0
C720 C 0.74854 0.47733 0.50765 0.0
C721 C 0.7357 0.49219 0.52542 0.0
C722 C 0.71895 0.50961 0.51638 0.0
C723 C 0.58706 0.527 0.46427 0.0
C724 C 0.5762 0.5317 0.48862 0.0
C725 C 0.61261 0.53067 0.46135 0.0
C726 C 0.62816 0.53907 0.48266 0.0
C727 C 0.61794 0.54189 0.50761 0.0
C728 C 0.59187 0.53818 0.51062 0.0
C729 C 0.65489 0.54525 0.47781 0.0
C730 C 0.67263 0.52943 0.48817 0.0
C731 C 0.66222 0.56367 0.45924 0.0
C732 C 0.64432 0.58088 0.44725 0.0
C733 C 0.62937 0.59594 0.463 0.0
C734 C 0.61295 0.61241 0.45157 0.0
C735 C 0.61137 0.61411 0.42439 0.0
C736 C 0.62617 0.59928 0.40856 0.0
C737 C 0.64258 0.58275 0.41989 0.0
H738 H 0.59871 0.62693 0.41559 0.0
H739 H 0.76154 0.4639 0.51469 0.0
H740 H 0.06343 0.23129 0.10701 0.0
H741 H 0.04593 0.26947 0.08848 0.0
H742 H 0.1185 0.2928 0.05919 0.0
H743 H 0.13582 0.25467 0.07762 0.0
H744 H 0.09931 0.33101 0.08719 0.0
H745 H 0.06947 0.27141 0.01739 0.0
H746 H 0.04652 0.23266 0.99746 0.0
H747 H 0.97784 0.25694 0.02865 0.0
H748 H 0.00046 0.29571 0.04902 0.0
H749 H 0.07001 0.43927 0.01657 0.0
H750 H 0.08336 0.39703 0.02842 0.0
H751 H 0.00713 0.37334 0.04642 0.0
H752 H 0.99378 0.41537 0.03365 0.0
H753 H 0.02648 0.33461 0.02583 0.0
H754 H 0.05545 0.39387 0.09594 0.0
H755 H 0.07842 0.42948 0.12147 0.0
H756 H 0.14822 0.40499 0.09346 0.0
H757 H 0.12574 0.36944 0.0676 0.0
C758 C 0.07538 0.24432 0.09604 0.0
C759 C 0.10084 0.24001 0.09338 0.0
C760 C 0.06542 0.2661 0.08547 0.0
C761 C 0.08086 0.28402 0.0723 0.0
C762 C 0.10619 0.27926 0.06916 0.0
C763 C 0.11605 0.25743 0.07952 0.0
C764 C 0.07136 0.30874 0.06362 0.0
C765 C 0.08365 0.33184 0.07339 0.0
C766 C 0.0502 0.30986 0.04662 0.0
C767 C 0.0367 0.28629 0.03496 0.0
C768 C 0.04953 0.26833 0.02024 0.0
C769 C 0.03656 0.24641 0.0088 0.0
C770 C 0.01075 0.24231 0.01184 0.0
C771 C 0.99784 0.26012 0.02634 0.0
C772 C 0.01071 0.28208 0.03782 0.0
C773 C 0.05596 0.42455 0.02182 0.0
C774 C 0.03071 0.43025 0.02316 0.0
C775 C 0.06369 0.40063 0.02934 0.0
C776 C 0.04642 0.38204 0.03903 0.0
C777 C 0.02092 0.38724 0.03907 0.0
C778 C 0.01316 0.41111 0.03126 0.0
C779 C 0.05487 0.35718 0.04885 0.0
C780 C 0.04223 0.33397 0.03953 0.0
C781 C 0.07567 0.35598 0.06652 0.0
C782 C 0.08885 0.37915 0.07957 0.0
C783 C 0.07565 0.39639 0.0948 0.0
C784 C 0.08861 0.41646 0.10948 0.0
C785 C 0.11475 0.41943 0.10912 0.0
C786 C 0.12798 0.40265 0.09373 0.0
C787 C 0.11514 0.38258 0.07904 0.0
H788 H 0.12481 0.43462 0.12085 0.0
H789 H 0.00074 0.22535 0.00291 0.0
H790 H 0.61419 0.28813 0.93962 0.0
H791 H 0.59894 0.2474 0.95822 0.0
H792 H 0.54381 0.23559 0.89498 0.0
H793 H 0.55835 0.27646 0.87708 0.0
H794 H 0.52567 0.21745 0.93756 0.0
H795 H 0.60451 0.21163 0.89224 0.0
H796 H 0.64944 0.22244 0.88552 0.0
H797 H 0.66711 0.20026 0.96357 0.0
H798 H 0.62226 0.18949 0.97078 0.0
H799 H 0.49499 0.08672 0.94012 0.0
H800 H 0.51212 0.12655 0.92151 0.0
H801 H 0.57516 0.12801 0.97623 0.0
H802 H 0.55967 0.08687 0.99214 0.0
H803 H 0.59004 0.15332 0.94118 0.0
H804 H 0.51101 0.15962 0.98719 0.0
H805 H 0.46579 0.15292 0.99542 0.0
H806 H 0.44805 0.17664 0.91793 0.0
H807 H 0.49309 0.18346 0.9093 0.0
C808 C 0.59822 0.27721 0.93034 0.0
C809 C 0.58763 0.285 0.90674 0.0
C810 C 0.58977 0.25385 0.94073 0.0
C811 C 0.57083 0.23811 0.92745 0.0
C812 C 0.55867 0.24726 0.90536 0.0
C813 C 0.56697 0.27056 0.89512 0.0
C814 C 0.5648 0.21126 0.93483 0.0
C815 C 0.53969 0.20332 0.9383 0.0
C816 C 0.58321 0.19304 0.9363 0.0
C817 C 0.61007 0.19994 0.9321 0.0
C818 C 0.61798 0.20922 0.90801 0.0
C819 C 0.64342 0.21531 0.90411 0.0
C820 C 0.66111 0.21207 0.92412 0.0
C821 C 0.6534 0.20277 0.94809 0.0
C822 C 0.62798 0.19665 0.95209 0.0
C823 C 0.51344 0.0946 0.94666 0.0
C824 C 0.52592 0.08386 0.96768 0.0
C825 C 0.52277 0.11797 0.93681 0.0
C826 C 0.54408 0.13134 0.94867 0.0
C827 C 0.55843 0.11855 0.96691 0.0
C828 C 0.54979 0.09459 0.9757 0.0
C829 C 0.55056 0.15904 0.94376 0.0
C830 C 0.57587 0.16726 0.94078 0.0
C831 C 0.53228 0.17764 0.9429 0.0
C832 C 0.50536 0.17165 0.9475 0.0
C833 C 0.49744 0.16304 0.97182 0.0
C834 C 0.47185 0.15937 0.97659 0.0
C835 C 0.45407 0.16426 0.95718 0.0
C836 C 0.46182 0.17278 0.93293 0.0
C837 C 0.48735 0.17656 0.9281 0.0
H838 H 0.43428 0.16153 0.96096 0.0
H839 H 0.6808 0.21672 0.92103 0.0
H840 H 0.95102 0.7029 0.4488 0.0
H841 H 0.96589 0.74573 0.46728 0.0
H842 H 0.89223 0.77269 0.45377 0.0
H843 H 0.87762 0.73024 0.43523 0.0
H844 H 0.92836 0.80164 0.43051 0.0
H845 H 0.91408 0.7675 0.5146 0.0
H846 H 0.9181 0.73761 0.55054 0.0
H847 H 0.9975 0.75628 0.55578 0.0
H848 H 0.994 0.78601 0.51956 0.0
H849 H 0.93786 0.92621 0.48725 0.0
H850 H 0.92612 0.8801 0.4839 0.0
H851 H 0.00409 0.86407 0.48838 0.0
H852 H 0.01597 0.91059 0.4907 0.0
H853 H 0.96903 0.82884 0.51616 0.0
H854 H 0.98126 0.8651 0.43186 0.0
H855 H 0.9759 0.89251 0.39407 0.0
H856 H 0.89756 0.86857 0.38837 0.0
H857 H 0.9023 0.84143 0.42645 0.0
C858 C 0.93799 0.71789 0.4505 0.0
C859 C 0.9133 0.71358 0.44062 0.0
C860 C 0.94642 0.74226 0.46102 0.0
C861 C 0.93017 0.76242 0.46176 0.0
C862 C 0.9051 0.75747 0.45326 0.0
C863 C 0.89676 0.73328 0.44276 0.0
C864 C 0.93967 0.78932 0.46845 0.0
C865 C 0.9369 0.80769 0.4494 0.0
C866 C 0.95159 0.79693 0.49274 0.0
C867 C 0.95383 0.77871 0.51414 0.0
C868 C 0.93245 0.76498 0.52318 0.0
C869 C 0.93462 0.74813 0.54366 0.0
C870 C 0.95805 0.74498 0.55538 0.0
C871 C 0.97937 0.75869 0.54664 0.0
C872 C 0.9773 0.77555 0.52614 0.0
C873 C 0.95247 0.91285 0.48905 0.0
C874 C 0.97784 0.92197 0.48984 0.0
C875 C 0.94574 0.88651 0.48653 0.0
C876 C 0.96425 0.86874 0.48534 0.0
C877 C 0.98954 0.87757 0.4891 0.0
C878 C 0.99632 0.9041 0.49103 0.0
C879 C 0.95707 0.84129 0.47844 0.0
C880 C 0.96044 0.8228 0.4973 0.0
C881 C 0.94533 0.83355 0.45398 0.0
C882 C 0.94208 0.85157 0.43242 0.0
C883 C 0.96277 0.86611 0.42296 0.0
C884 C 0.95987 0.88149 0.40135 0.0
C885 C 0.93639 0.88238 0.3889 0.0
C886 C 0.91572 0.86797 0.3981 0.0
C887 C 0.9185 0.85263 0.41973 0.0
H888 H 0.93423 0.89413 0.37206 0.0
H889 H 0.95969 0.73196 0.57127 0.0
H890 H 0.38254 0.77695 0.55349 0.0
H891 H 0.39437 0.73312 0.54261 0.0
H892 H 0.45807 0.74457 0.59629 0.0
H893 H 0.44598 0.78821 0.60745 0.0
H894 H 0.47057 0.7257 0.54793 0.0
H895 H 0.40964 0.70691 0.61213 0.0
H896 H 0.3687 0.70722 0.63303 0.0
H897 H 0.3333 0.66719 0.56568 0.0
H898 H 0.37397 0.66707 0.54413 0.0
H899 H 0.50568 0.59717 0.55588 0.0
H900 H 0.49339 0.64128 0.56262 0.0
H901 H 0.42876 0.62411 0.51107 0.0
H902 H 0.44099 0.57966 0.50475 0.0
H903 H 0.41602 0.6459 0.55698 0.0
H904 H 0.4781 0.66454 0.49317 0.0
H905 H 0.51983 0.66278 0.47417 0.0
H906 H 0.55357 0.7021 0.54277 0.0
H907 H 0.51207 0.70373 0.56236 0.0
C908 C 0.39892 0.76991 0.56304 0.0
C909 C 0.41338 0.7857 0.58128 0.0
C910 C 0.40561 0.74495 0.55694 0.0
C911 C 0.42704 0.73561 0.56873 0.0
C912 C 0.44144 0.75142 0.58703 0.0
C913 C 0.43452 0.77621 0.59345 0.0
C914 C 0.4351 0.7098 0.56109 0.0
C915 C 0.45874 0.70822 0.55014 0.0
C916 C 0.41941 0.6871 0.56349 0.0
C917 C 0.39484 0.68733 0.57633 0.0
C918 C 0.39309 0.69846 0.60161 0.0
C919 C 0.36993 0.69854 0.61362 0.0
C920 C 0.34839 0.68733 0.60065 0.0
C921 C 0.34999 0.67595 0.57567 0.0
C922 C 0.37309 0.67587 0.56355 0.0
C923 C 0.48936 0.60319 0.54532 0.0
C924 C 0.47449 0.5855 0.52941 0.0
C925 C 0.48227 0.62829 0.54925 0.0
C926 C 0.46021 0.63604 0.53724 0.0
C927 C 0.44586 0.61853 0.52047 0.0
C928 C 0.45297 0.59335 0.51658 0.0
C929 C 0.45142 0.66185 0.54367 0.0
C930 C 0.4277 0.66343 0.5545 0.0
C931 C 0.46706 0.68456 0.54128 0.0
C932 C 0.49198 0.68414 0.52928 0.0
C933 C 0.49443 0.67271 0.50425 0.0
C934 C 0.51804 0.67173 0.49338 0.0
C935 C 0.53934 0.68229 0.50727 0.0
C936 C 0.53706 0.69393 0.53203 0.0
C937 C 0.51349 0.69492 0.54301 0.0
H938 H 0.55762 0.68149 0.49883 0.0
H939 H 0.33049 0.68739 0.60999 0.0
H940 H 0.91223 0.96281 0.79695 0.0
H941 H 0.92498 0.97283 0.7537 0.0
H942 H 0.93231 0.89252 0.73512 0.0
H943 H 0.92145 0.88184 0.77879 0.0
H944 H 0.96998 0.91935 0.71631 0.0
H945 H 0.8803 0.92685 0.7123 0.0
H946 H 0.84016 0.94326 0.7256 0.0
H947 H 0.86905 0.02075 0.71366 0.0
H948 H 0.90942 0.00479 0.70047 0.0
H949 H 0.98527 0.93697 0.57931 0.0
H950 H 0.96846 0.92191 0.62091 0.0
H951 H 0.95456 0.00018 0.64368 0.0
H952 H 0.97015 0.01472 0.60212 0.0
H953 H 0.91887 0.97231 0.65985 0.0
H954 H 0.00861 0.96634 0.66543 0.0
H955 H 0.05003 0.9513 0.6546 0.0
H956 H 0.02287 0.87312 0.66573 0.0
H957 H 0.98128 0.88764 0.67634 0.0
C958 C 0.91663 0.94682 0.78438 0.0
C959 C 0.91519 0.92109 0.79276 0.0
C960 C 0.92372 0.95284 0.75901 0.0
C961 C 0.92912 0.93345 0.74073 0.0
C962 C 0.92807 0.90794 0.74872 0.0
C963 C 0.92142 0.90186 0.77419 0.0
C964 C 0.93636 0.93969 0.71348 0.0
C965 C 0.95858 0.93059 0.7038 0.0
C966 C 0.922 0.95501 0.69729 0.0
C967 C 0.8979 0.96464 0.7056 0.0
C968 C 0.87814 0.9474 0.71271 0.0
C969 C 0.85534 0.95662 0.72017 0.0
C970 C 0.85207 0.98303 0.72052 0.0
C971 C 0.8716 0.00029 0.71339 0.0
C972 C 0.89443 0.99117 0.70589 0.0
C973 C 0.97757 0.95065 0.5928 0.0
C974 C 0.97828 0.97689 0.58717 0.0
C975 C 0.96853 0.94218 0.61687 0.0
C976 C 0.96056 0.95993 0.63589 0.0
C977 C 0.96039 0.98595 0.62956 0.0
C978 C 0.96909 0.99426 0.6056 0.0
C979 C 0.95262 0.95201 0.66251 0.0
C980 C 0.93027 0.96089 0.67219 0.0
C981 C 0.96706 0.93676 0.67881 0.0
C982 C 0.99173 0.92803 0.67123 0.0
C983 C 0.01139 0.94592 0.6652 0.0
C984 C 0.03492 0.93749 0.65921 0.0
C985 C 0.03898 0.91126 0.65933 0.0
C986 C 0.01963 0.89341 0.66552 0.0
C987 C 0.99609 0.90172 0.67151 0.0
H988 H 0.05709 0.90469 0.65464 0.0
H989 H 0.83439 0.99012 0.72627 0.0
H990 H 0.63609 0.09953 0.27541 0.0
H991 H 0.6182 0.08277 0.2332 0.0
H992 H 0.5437 0.08739 0.26254 0.0
H993 H 0.56177 0.1047 0.30492 0.0
H994 H 0.55112 0.04146 0.23196 0.0
H995 H 0.56242 0.13237 0.22673 0.0
H996 H 0.58479 0.17525 0.23156 0.0
H997 H 0.63929 0.15197 0.17705 0.0
H998 H 0.61754 0.10874 0.17225 0.0
H999 H 0.49907 0.03009 0.10001 0.0
H1000 H 0.50961 0.04003 0.14628 0.0
H1001 H 0.58757 0.05275 0.12763 0.0
H1002 H 0.57671 0.04397 0.08122 0.0
H1003 H 0.57296 0.09222 0.15457 0.0
H1004 H 0.56232 -8e-05 0.16232 0.0
H1005 H 0.53972 0.95708 0.1587 0.0
H1006 H 0.48325 0.98342 0.20929 0.0
H1007 H 0.50523 0.0266 0.21277 0.0
C1008 C 0.61593 0.09641 0.27293 0.0
C1009 C 0.60019 0.10306 0.29315 0.0
C1010 C 0.60574 0.08708 0.24888 0.0
C1011 C 0.57968 0.08419 0.24477 0.0
C1012 C 0.56386 0.08963 0.26541 0.0
C1013 C 0.57411 0.09937 0.28948 0.0
C1014 C 0.5693 0.07639 0.21846 0.0
C1015 C 0.55547 0.05268 0.21499 0.0
C1016 C 0.57526 0.0911 0.19651 0.0
C1017 C 0.58842 0.11717 0.19929 0.0
C1018 C 0.57931 0.13628 0.21595 0.0
C1019 C 0.59186 0.16068 0.21866 0.0
C1020 C 0.61348 0.16632 0.20466 0.0
C1021 C 0.62256 0.14757 0.1879 0.0
C1022 C 0.61011 0.12311 0.18517 0.0
C1023 C 0.51858 0.0338 0.10607 0.0
C1024 C 0.53727 0.03544 0.08735 0.0
C1025 C 0.52457 0.03973 0.13245 0.0
C1026 C 0.54942 0.047 0.1405 0.0
C1027 C 0.56827 0.04718 0.12189 0.0
C1028 C 0.56219 0.04174 0.09548 0.0
C1029 C 0.55562 0.05658 0.16774 0.0
C1030 C 0.56846 0.08091 0.17143 0.0
C1031 C 0.54861 0.04247 0.18987 0.0
C1032 C 0.53526 0.01659 0.18752 0.0
C1033 C 0.54493 0.99667 0.17242 0.0
C1034 C 0.53225 0.97231 0.17043 0.0
C1035 C 0.51002 0.96755 0.18368 0.0
C1036 C 0.50043 0.98715 0.19897 0.0
C1037 C 0.51298 0.01158 0.20094 0.0
H1038 H 0.50026 0.94866 0.18217 0.0
H1039 H 0.62316 0.18523 0.20676 0.0
H1040 H 0.42488 0.64362 0.24919 0.0
H1041 H 0.4339 0.63168 0.2938 0.0
H1042 H 0.40126 0.55484 0.27577 0.0
H1043 H 0.38943 0.56745 0.23223 0.0
H1044 H 0.38785 0.56785 0.32003 0.0
H1045 H 0.46752 0.57393 0.27877 0.0
H1046 H 0.5009 0.59615 0.25405 0.0
H1047 H 0.51327 0.65327 0.3164 0.0
H1048 H 0.47962 0.63168 0.34131 0.0
H1049 H 0.44552 0.49644 0.41507 0.0
H1050 H 0.42915 0.51715 0.37724 0.0
H1051 H 0.45804 0.59129 0.40949 0.0
H1052 H 0.47623 0.56989 0.44679 0.0
H1053 H 0.47299 0.58403 0.36048 0.0
H1054 H 0.39228 0.57301 0.40182 0.0
H1055 H 0.36111 0.54596 0.42501 0.0
H1056 H 0.35396 0.49219 0.35923 0.0
H1057 H 0.38526 0.51879 0.33579 0.0
C1058 C 0.41906 0.62434 0.25481 0.0
C1059 C 0.40655 0.60647 0.23687 0.0
C1060 C 0.42472 0.61739 0.28026 0.0
C1061 C 0.41886 0.59217 0.28799 0.0
C1062 C 0.40616 0.57439 0.27024 0.0
C1063 C 0.39974 0.58155 0.24512 0.0
C1064 C 0.42537 0.58423 0.3147 0.0
C1065 C 0.40654 0.57132 0.32873 0.0
C1066 C 0.44969 0.58903 0.32627 0.0
C1067 C 0.47083 0.6013 0.31183 0.0
C1068 C 0.4773 0.59126 0.28721 0.0
C1069 C 0.49625 0.60377 0.27313 0.0
C1070 C 0.50914 0.62615 0.28361 0.0
C1071 C 0.50323 0.63596 0.30828 0.0
C1072 C 0.48422 0.62358 0.3224 0.0
C1073 C 0.4469 0.5173 0.41495 0.0
C1074 C 0.46167 0.53161 0.43394 0.0
C1075 C 0.43788 0.52918 0.39306 0.0
C1076 C 0.44219 0.55586 0.39052 0.0
C1077 C 0.4545 0.57068 0.41105 0.0
C1078 C 0.46415 0.55858 0.43275 0.0
C1079 C 0.43542 0.56757 0.36554 0.0
C1080 C 0.45425 0.58105 0.35182 0.0
C1081 C 0.41128 0.56276 0.35382 0.0
C1082 C 0.39096 0.54797 0.36702 0.0
C1083 C 0.38388 0.55553 0.39225 0.0
C1084 C 0.36629 0.54022 0.40547 0.0
C1085 C 0.35553 0.5174 0.39358 0.0
C1086 C 0.36222 0.50993 0.36837 0.0
C1087 C 0.37981 0.52516 0.35506 0.0
H1088 H 0.34202 0.50549 0.40392 0.0
H1089 H 0.52374 0.63587 0.27265 0.0
H1090 H 0.0619 0.46207 0.71162 0.0
H1091 H 0.05083 0.47755 0.75572 0.0
H1092 H 0.08565 0.41333 0.78919 0.0
H1093 H 0.09639 0.39795 0.74585 0.0
H1094 H 0.03763 0.41931 0.80577 0.0
H1095 H 0.11562 0.47171 0.79224 0.0
H1096 H 0.14087 0.50437 0.76875 0.0
H1097 H 0.08592 0.55933 0.7829 0.0
H1098 H 0.06023 0.52688 0.80626 0.0
H1099 H 0.02751 0.44214 0.93951 0.0
H1100 H 0.04818 0.43232 0.89849 0.0
H1101 H 0.04332 0.51155 0.87707 0.0
H1102 H 0.02792 0.52189 0.91961 0.0
H1103 H 0.07439 0.49918 0.85098 0.0
H1104 H 0.99431 0.44791 0.86274 0.0
H1105 H 0.96558 0.41433 0.88079 0.0
H1106 H 0.01856 0.35759 0.86551 0.0
H1107 H 0.0476 0.39081 0.84761 0.0
C1108 C 0.06701 0.45139 0.72853 0.0
C1109 C 0.07942 0.42859 0.72552 0.0
C1110 C 0.06083 0.46023 0.75354 0.0
C1111 C 0.06739 0.44642 0.77553 0.0
C1112 C 0.08021 0.42402 0.77239 0.0
C1113 C 0.08618 0.41519 0.74765 0.0
C1114 C 0.06056 0.45431 0.80214 0.0
C1115 C 0.04549 0.43683 0.81586 0.0
C1116 C 0.07042 0.47737 0.81473 0.0
C1117 C 0.08597 0.49685 0.80084 0.0
C1118 C 0.10887 0.49072 0.7902 0.0
C1119 C 0.12326 0.50919 0.77694 0.0
C1120 C 0.11499 0.5339 0.77431 0.0
C1121 C 0.09231 0.54019 0.78495 0.0
C1122 C 0.07785 0.52178 0.79823 0.0
C1123 C 0.03261 0.4576 0.92666 0.0
C1124 C 0.02626 0.48274 0.93266 0.0
C1125 C 0.04344 0.45188 0.90266 0.0
C1126 C 0.04585 0.47072 0.88352 0.0
C1127 C 0.04175 0.49632 0.89092 0.0
C1128 C 0.03303 0.50236 0.91556 0.0
C1129 C 0.05091 0.46412 0.85553 0.0
C1130 C 0.06578 0.48185 0.84128 0.0
C1131 C 0.04024 0.4414 0.84216 0.0
C1132 C 0.02323 0.4219 0.85424 0.0
C1133 C 0.9999 0.42833 0.86352 0.0
C1134 C 0.98355 0.40934 0.87365 0.0
C1135 C 0.99028 0.38387 0.87439 0.0
C1136 C 0.01339 0.37732 0.86503 0.0
C1137 C 0.02979 0.39621 0.85493 0.0
H1138 H 0.97756 0.3692 0.88214 0.0
H1139 H 0.12617 0.54817 0.76405 0.0
H1140 H 0.75969 0.88651 0.92425 0.0
H1141 H 0.71825 0.90065 0.93501 0.0
H1142 H 0.74876 0.97955 0.94043 0.0
H1143 H 0.79041 0.96511 0.93125 0.0
H1144 H 0.71978 0.97385 0.97785 0.0
H1145 H 0.70812 0.95023 0.88654 0.0
H1146 H 0.70961 0.92104 0.84769 0.0
H1147 H 0.6581 0.86639 0.88241 0.0
H1148 H 0.65654 0.89512 0.92163 0.0
H1149 H 0.59563 0.0231 0.98766 0.0
H1150 H 0.63772 0.01456 0.97174 0.0
H1151 H 0.61878 0.93292 0.97299 0.0
H1152 H 0.57806 0.94089 0.98895 0.0
H1153 H 0.64176 0.94295 0.92893 0.0
H1154 H 0.65555 0.96472 0.02047 0.0
H1155 H 0.6567 0.99155 0.06118 0.0
H1156 H 0.70587 0.04836 0.02637 0.0
H1157 H 0.7046 0.02208 0.98525 0.0
C1158 C 0.75744 0.90687 0.92759 0.0
C1159 C 0.77829 0.9247 0.92684 0.0
C1160 C 0.73364 0.91505 0.93358 0.0
C1161 C 0.72989 0.94138 0.93813 0.0
C1162 C 0.75084 0.95916 0.93708 0.0
C1163 C 0.7747 0.95092 0.93173 0.0
C1164 C 0.70455 0.95041 0.94497 0.0
C1165 C 0.70285 0.9675 0.96668 0.0
C1166 C 0.68206 0.94178 0.93103 0.0
C1167 C 0.68231 0.92481 0.9071 0.0
C1168 C 0.69714 0.93198 0.88592 0.0
C1169 C 0.69801 0.9155 0.86384 0.0
C1170 C 0.68398 0.89187 0.8626 0.0
C1171 C 0.66896 0.88471 0.8834 0.0
C1172 C 0.66803 0.90111 0.90554 0.0
C1173 C 0.60055 0.0034 0.98472 0.0
C1174 C 0.58312 0.98292 0.99001 0.0
C1175 C 0.62463 0.99846 0.97552 0.0
C1176 C 0.63163 0.97295 0.97099 0.0
C1177 C 0.61413 0.95272 0.97604 0.0
C1178 C 0.5906 0.95754 0.98552 0.0
C1179 C 0.65712 0.96661 0.96168 0.0
C1180 C 0.65881 0.94978 0.93966 0.0
C1181 C 0.67964 0.97546 0.97529 0.0
C1182 C 0.67962 0.99166 0.99964 0.0
C1183 C 0.66629 0.98312 0.02135 0.0
C1184 C 0.66703 0.99819 0.04454 0.0
C1185 C 0.68126 0.0217 0.04633 0.0
C1186 C 0.69476 0.03021 0.02493 0.0
C1187 C 0.694 0.01526 0.00166 0.0
H1188 H 0.68191 0.03329 0.06434 0.0
H1189 H 0.68473 0.87912 0.84551 0.0
H1190 H 0.73881 0.12175 0.46689 0.0
H1191 H 0.77683 0.10434 0.48507 0.0
H1192 H 0.78779 0.06503 0.41099 0.0
H1193 H 0.74944 0.08123 0.39337 0.0
H1194 H 0.80086 0.0364 0.44687 0.0
H1195 H 0.81674 0.12528 0.42974 0.0
H1196 H 0.81022 0.17165 0.43358 0.0
H1197 H 0.82947 0.17222 0.51561 0.0
H1198 H 0.83558 0.12566 0.51238 0.0
H1199 H 0.92923 0.0276 0.43664 0.0
H1200 H 0.88813 0.0443 0.43292 0.0
H1201 H 0.88792 0.05784 0.51646 0.0
H1202 H 0.92972 0.04051 0.52058 0.0
H1203 H 0.86804 0.09871 0.48343 0.0
H1204 H 0.85537 0.00554 0.4936 0.0
H1205 H 0.85996 0.9595 0.48308 0.0
H1206 H 0.8363 0.96982 0.4035 0.0
H1207 H 0.83176 0.0159 0.41349 0.0
C1208 C 0.74903 0.10883 0.45479 0.0
C1209 C 0.74146 0.10319 0.42858 0.0
C1210 C 0.77091 0.09917 0.46507 0.0
C1211 C 0.7856 0.08394 0.4492 0.0
C1212 C 0.777 0.07692 0.42361 0.0
C1213 C 0.75513 0.08632 0.41347 0.0
C1214 C 0.81045 0.076 0.45845 0.0
C1215 C 0.81552 0.0501 0.45483 0.0
C1216 C 0.82963 0.09381 0.46898 0.0
C1217 C 0.82631 0.12189 0.4709 0.0
C1218 C 0.81939 0.13523 0.44865 0.0
C1219 C 0.81576 0.16156 0.45071 0.0
C1220 C 0.81934 0.17486 0.47484 0.0
C1221 C 0.82663 0.16187 0.49695 0.0
C1222 C 0.83016 0.1355 0.49502 0.0
C1223 C 0.9207 0.03424 0.45438 0.0
C1224 C 0.93271 0.0322 0.47903 0.0
C1225 C 0.89708 0.04379 0.45214 0.0
C1226 C 0.88467 0.05171 0.47442 0.0
C1227 C 0.89711 0.05149 0.49902 0.0
C1228 C 0.92101 0.04171 0.50135 0.0
C1229 C 0.8584 0.05917 0.47144 0.0
C1230 C 0.85316 0.085 0.47604 0.0
C1231 C 0.83926 0.04156 0.46058 0.0
C1232 C 0.84342 0.01419 0.45429 0.0
C1233 C 0.85147 0.99805 0.4738 0.0
C1234 C 0.85395 0.97192 0.46794 0.0
C1235 C 0.84846 0.96175 0.44264 0.0
C1236 C 0.84057 0.9777 0.42309 0.0
C1237 C 0.83802 0.00381 0.42885 0.0
H1238 H 0.85028 0.94149 0.43819 0.0
H1239 H 0.81655 0.19525 0.4764 0.0
H1240 H 0.28341 0.5813 0.06389 0.0
H1241 H 0.2401 0.56855 0.05134 0.0
H1242 H 0.21492 0.60957 0.11923 0.0
H1243 H 0.25825 0.62419 0.13119 0.0
H1244 H 0.19367 0.55404 0.1068 0.0
H1245 H 0.20466 0.63856 0.07231 0.0
H1246 H 0.22619 0.67328 0.04819 0.0
H1247 H 0.22092 0.62539 0.97795 0.0
H1248 H 0.19964 0.59023 0.00181 0.0
H1249 H 0.0668 0.5629 0.07761 0.0
H1250 H 0.11088 0.57511 0.08687 0.0
H1251 H 0.13008 0.539 0.01365 0.0
H1252 H 0.08555 0.52601 0.00437 0.0
H1253 H 0.15518 0.58969 0.02762 0.0
H1254 H 0.14121 0.50586 0.06225 0.0
H1255 H 0.11916 0.47187 0.08685 0.0
H1256 H 0.1294 0.51873 0.15755 0.0
H1257 H 0.15122 0.55319 0.13325 0.0
C1258 C 0.26878 0.58816 0.07598 0.0
C1259 C 0.27446 0.60421 0.09834 0.0
C1260 C 0.24405 0.58053 0.06889 0.0
C1261 C 0.22455 0.58828 0.08432 0.0
C1262 C 0.22992 0.60347 0.10716 0.0
C1263 C 0.2547 0.61165 0.11399 0.0
C1264 C 0.19853 0.58083 0.07596 0.0
C1265 C 0.18506 0.56201 0.08972 0.0
C1266 C 0.18784 0.59078 0.05323 0.0
C1267 C 0.20091 0.61167 0.03891 0.0
C1268 C 0.20839 0.63532 0.0518 0.0
C1269 C 0.22046 0.65511 0.03816 0.0
C1270 C 0.22501 0.65151 0.01157 0.0
C1271 C 0.21744 0.62812 0.99856 0.0
C1272 C 0.20536 0.60827 0.01213 0.0
C1273 C 0.08031 0.55799 0.06317 0.0
C1274 C 0.07285 0.54342 0.04031 0.0
C1275 C 0.10546 0.56477 0.06864 0.0
C1276 C 0.12356 0.55734 0.05124 0.0
C1277 C 0.11618 0.54457 0.02738 0.0
C1278 C 0.09083 0.53751 0.02195 0.0
C1279 C 0.15015 0.56302 0.05853 0.0
C1280 C 0.1638 0.58153 0.04459 0.0
C1281 C 0.16093 0.55281 0.08117 0.0
C1282 C 0.14761 0.53223 0.09585 0.0
C1283 C 0.13854 0.50903 0.08299 0.0
C1284 C 0.12616 0.48963 0.09691 0.0
C1285 C 0.12282 0.49316 0.12375 0.0
C1286 C 0.13197 0.51604 0.13675 0.0
C1287 C 0.14437 0.5355 0.12291 0.0
H1288 H 0.11314 0.47819 0.13451 0.0
H1289 H 0.23432 0.66686 0.00103 0.0
H1290 H 0.20347 0.46262 0.56224 0.0
H1291 H 0.24392 0.47647 0.54321 0.0
H1292 H 0.27952 0.41711 0.58434 0.0
H1293 H 0.23969 0.4035 0.60317 0.0
H1294 H 0.30219 0.46639 0.59356 0.0
H1295 H 0.27002 0.4093 0.52265 0.0
H1296 H 0.23955 0.39415 0.48759 0.0
H1297 H 0.25215 0.46566 0.44916 0.0
H1298 H 0.2824 0.48144 0.48433 0.0
H1299 H 0.42131 0.44711 0.55253 0.0
H1300 H 0.37632 0.44014 0.55838 0.0
H1301 H 0.36297 0.50194 0.50688 0.0
H1302 H 0.40836 0.50883 0.50072 0.0
H1303 H 0.32677 0.46088 0.50087 0.0
H1304 H 0.36354 0.51495 0.57264 0.0
H1305 H 0.39181 0.52845 0.61025 0.0
H1306 H 0.36995 0.45885 0.64868 0.0
H1307 H 0.34171 0.44487 0.61128 0.0
C1308 C 0.21998 0.45248 0.56681 0.0
C1309 C 0.2188 0.43234 0.58438 0.0
C1310 C 0.24293 0.46032 0.55601 0.0
C1311 C 0.26463 0.44789 0.56262 0.0
C1312 C 0.26302 0.42709 0.57926 0.0
C1313 C 0.24034 0.41938 0.59001 0.0
C1314 C 0.2896 0.45711 0.55391 0.0
C1315 C 0.30763 0.46518 0.57329 0.0
C1316 C 0.29632 0.45613 0.52742 0.0
C1317 C 0.27817 0.44671 0.50631 0.0
C1318 C 0.26607 0.42193 0.50689 0.0
C1319 C 0.24888 0.4132 0.48697 0.0
C1320 C 0.24383 0.42898 0.46621 0.0
C1321 C 0.25602 0.4535 0.4653 0.0
C1322 C 0.27318 0.46235 0.48523 0.0
C1323 C 0.40872 0.45861 0.54171 0.0
C1324 C 0.41823 0.4784 0.52606 0.0
C1325 C 0.38307 0.45488 0.54538 0.0
C1326 C 0.36642 0.47105 0.53369 0.0
C1327 C 0.3756 0.48945 0.51627 0.0
C1328 C 0.40144 0.49313 0.51247 0.0
C1329 C 0.33971 0.46911 0.54073 0.0
C1330 C 0.3213 0.4626 0.52107 0.0
C1331 C 0.33261 0.47102 0.56717 0.0
C1332 C 0.35069 0.47878 0.58901 0.0
C1333 C 0.36502 0.50238 0.58895 0.0
C1334 C 0.38095 0.51016 0.6103 0.0
C1335 C 0.38272 0.49449 0.63181 0.0
C1336 C 0.3686 0.47096 0.63201 0.0
C1337 C 0.35261 0.46312 0.61076 0.0
H1338 H 0.39498 0.5006 0.64835 0.0
H1339 H 0.23055 0.42217 0.45078 0.0
H1340 H 0.88845 0.78126 0.96262 0.0
H1341 H 0.9017 0.73881 0.97462 0.0
H1342 H 0.95425 0.74059 0.9122 0.0
H1343 H 0.94139 0.7833 0.90059 0.0
H1344 H 0.92714 0.69317 0.91436 0.0
H1345 H 0.97614 0.75136 0.97259 0.0
H1346 H 0.9841 0.78652 0.0059 0.0
H1347 H 0.93849 0.74451 0.05984 0.0
H1348 H 0.93 0.70921 0.02669 0.0
H1349 H 0.00742 0.59729 0.94846 0.0
H1350 H 0.99003 0.63826 0.93995 0.0
H1351 H 0.94178 0.62882 0.00548 0.0
H1352 H 0.9589 0.58686 0.01381 0.0
H1353 H 0.96295 0.67895 0.00272 0.0
H1354 H 0.91868 0.61791 0.94462 0.0
H1355 H 0.91155 0.58345 0.91075 0.0
H1356 H 0.94804 0.63132 0.85465 0.0
H1357 H 0.95654 0.66576 0.88862 0.0
C1358 C 0.90274 0.7725 0.95142 0.0
C1359 C 0.91388 0.78557 0.93067 0.0
C1360 C 0.91041 0.74831 0.95836 0.0
C1361 C 0.92911 0.73645 0.94444 0.0
C1362 C 0.93984 0.74927 0.9233 0.0
C1363 C 0.93254 0.7737 0.9167 0.0
C1364 C 0.93758 0.71079 0.95198 0.0
C1365 C 0.93527 0.69011 0.93356 0.0
C1366 C 0.94751 0.70651 0.97729 0.0
C1367 C 0.95218 0.72783 0.99708 0.0
C1368 C 0.96758 0.74976 0.99146 0.0
C1369 C 0.97224 0.76967 0.01033 0.0
C1370 C 0.96174 0.76779 0.03494 0.0
C1371 C 0.94656 0.74597 0.04074 0.0
C1372 C 0.94183 0.726 0.02193 0.0
C1373 C 0.99346 0.60406 0.96153 0.0
C1374 C 0.9848 0.58871 0.98206 0.0
C1375 C 0.98327 0.62745 0.95635 0.0
C1376 C 0.96416 0.63655 0.97164 0.0
C1377 C 0.95639 0.62216 0.99321 0.0
C1378 C 0.96647 0.59834 0.99826 0.0
C1379 C 0.95286 0.66123 0.96498 0.0
C1380 C 0.95466 0.68181 0.98355 0.0
C1381 C 0.94265 0.66544 0.93964 0.0
C1382 C 0.93853 0.64435 0.91935 0.0
C1383 C 0.92558 0.62098 0.9252 0.0
C1384 C 0.92116 0.60146 0.9059 0.0
C1385 C 0.92915 0.6052 0.88046 0.0
C1386 C 0.94184 0.62843 0.87436 0.0
C1387 C 0.94657 0.64793 0.89368 0.0
H1388 H 0.92552 0.59009 0.86551 0.0
H1389 H 0.96541 0.78321 0.04955 0.0
H1390 H 0.39748 0.76272 0.14137 0.0
H1391 H 0.41025 0.80755 0.13197 0.0
H1392 H 0.43348 0.78288 0.05551 0.0
H1393 H 0.42089 0.73827 0.06483 0.0
H1394 H 0.46972 0.8126 0.08225 0.0
H1395 H 0.38148 0.81344 0.06219 0.0
H1396 H 0.33663 0.80767 0.07191 0.0
H1397 H 0.34658 0.86581 0.13359 0.0
H1398 H 0.39163 0.87159 0.12453 0.0
H1399 H 0.47438 0.90381 0.99345 0.0
H1400 H 0.46293 0.87019 0.02211 0.0
H1401 H 0.45388 0.92582 0.08499 0.0
H1402 H 0.46646 0.96104 0.05573 0.0
H1403 H 0.415 0.88581 0.0789 0.0
H1404 H 0.50582 0.88734 0.09031 0.0
H1405 H 0.54922 0.89048 0.07489 0.0
H1406 H 0.53199 0.82576 0.02168 0.0
H1407 H 0.48861 0.82218 0.03682 0.0
C1408 C 0.40503 0.76702 0.12247 0.0
C1409 C 0.40853 0.74714 0.10391 0.0
C1410 C 0.41229 0.79253 0.11715 0.0
C1411 C 0.42293 0.7984 0.09315 0.0
C1412 C 0.42558 0.77864 0.07428 0.0
C1413 C 0.41845 0.75323 0.07962 0.0
C1414 C 0.43256 0.82487 0.08788 0.0
C1415 C 0.45782 0.82868 0.08169 0.0
C1416 C 0.41711 0.84587 0.08782 0.0
C1417 C 0.39 0.84263 0.09301 0.0
C1418 C 0.37416 0.8248 0.07801 0.0
C1419 C 0.34869 0.82156 0.08336 0.0
C1420 C 0.33878 0.83627 0.10344 0.0
C1421 C 0.3543 0.85436 0.11811 0.0
C1422 C 0.3798 0.85762 0.11289 0.0
C1423 C 0.46991 0.90946 0.01325 0.0
C1424 C 0.47172 0.93541 0.02226 0.0
C1425 C 0.46365 0.88988 0.02982 0.0
C1426 C 0.45859 0.89539 0.05594 0.0
C1427 C 0.45854 0.92124 0.06498 0.0
C1428 C 0.46543 0.94127 0.04824 0.0
C1429 C 0.45197 0.87334 0.07237 0.0
C1430 C 0.42722 0.87009 0.08063 0.0
C1431 C 0.46772 0.85253 0.07368 0.0
C1432 C 0.49396 0.85453 0.06475 0.0
C1433 C 0.5113 0.87383 0.0753 0.0
C1434 C 0.53591 0.87563 0.06664 0.0
C1435 C 0.54335 0.85834 0.04732 0.0
C1436 C 0.52624 0.8391 0.0367 0.0
C1437 C 0.50169 0.83709 0.04542 0.0
H1438 H 0.56237 0.85985 0.04057 0.0
H1439 H 0.31907 0.83371 0.10758 0.0
H1440 H 0.04532 0.2944 0.6063 0.0
H1441 H 0.02562 0.25173 0.59323 0.0
H1442 H 0.09012 0.23652 0.54752 0.0
H1443 H 0.10865 0.27929 0.55889 0.0
H1444 H 0.05293 0.21943 0.52267 0.0
H1445 H 0.07936 0.21541 0.61169 0.0
H1446 H 0.08075 0.22892 0.65835 0.0
H1447 H 0.00275 0.20521 0.66383 0.0
H1448 H 0.00069 0.19216 0.61695 0.0
H1449 H 0.04701 0.08153 0.51358 0.0
H1450 H 0.05712 0.12769 0.51958 0.0
H1451 H 0.98705 0.13583 0.55785 0.0
H1452 H 0.9776 0.08929 0.5529 0.0
H1453 H 0.02361 0.15726 0.58807 0.0
H1454 H 0.00399 0.16513 0.49262 0.0
H1455 H 0.00831 0.1661 0.44498 0.0
H1456 H 0.0877 0.18369 0.45521 0.0
H1457 H 0.08366 0.18299 0.50301 0.0
C1458 C 0.0548 0.2821 0.59283 0.0
C1459 C 0.07862 0.28985 0.5838 0.0
C1460 C 0.04379 0.25761 0.58579 0.0
C1461 C 0.05669 0.2406 0.57 0.0
C1462 C 0.07982 0.24911 0.55991 0.0
C1463 C 0.09048 0.27355 0.56645 0.0
C1464 C 0.04657 0.21392 0.56336 0.0
C1465 C 0.04692 0.20575 0.53716 0.0
C1466 C 0.03839 0.19617 0.58219 0.0
C1467 C 0.03977 0.20308 0.61065 0.0
C1468 C 0.06243 0.21321 0.62277 0.0
C1469 C 0.06335 0.22082 0.64927 0.0
C1470 C 0.04183 0.218 0.66403 0.0
C1471 C 0.01939 0.20745 0.65234 0.0
C1472 C 0.01832 0.19996 0.62578 0.0
C1473 C 0.03299 0.0934 0.52165 0.0
C1474 C 0.01121 0.08187 0.53221 0.0
C1475 C 0.03899 0.11986 0.52554 0.0
C1476 C 0.0229 0.13542 0.5393 0.0
C1477 C 0.99988 0.12428 0.54735 0.0
C1478 C 0.9941 0.09776 0.54384 0.0
C1479 C 0.03083 0.16264 0.54718 0.0
C1480 C 0.02986 0.17092 0.57371 0.0
C1481 C 0.04035 0.18032 0.52906 0.0
C1482 C 0.04349 0.17393 0.50118 0.0
C1483 C 0.02242 0.16842 0.48463 0.0
C1484 C 0.02483 0.16926 0.45759 0.0
C1485 C 0.04825 0.17545 0.44706 0.0
C1486 C 0.06955 0.17925 0.4634 0.0
C1487 C 0.06722 0.17854 0.49042 0.0
H1488 H 0.05001 0.17734 0.42622 0.0
H1489 H 0.04256 0.22393 0.68454 0.0
H1490 H 0.61048 0.26214 0.39469 0.0
H1491 H 0.58902 0.30013 0.40837 0.0
H1492 H 0.56602 0.26268 0.47855 0.0
H1493 H 0.58725 0.22413 0.46446 0.0
H1494 H 0.52911 0.29274 0.45551 0.0
H1495 H 0.6166 0.30253 0.48281 0.0
H1496 H 0.66188 0.30136 0.4754 0.0
H1497 H 0.65692 0.3583 0.41714 0.0
H1498 H 0.61154 0.3596 0.42397 0.0
H1499 H 0.50522 0.42011 0.51149 0.0
H1500 H 0.51824 0.37563 0.50603 0.0
H1501 H 0.55457 0.39576 0.43468 0.0
H1502 H 0.54206 0.43914 0.43971 0.0
H1503 H 0.58536 0.37228 0.46594 0.0
H1504 H 0.5006 0.36034 0.43258 0.0
H1505 H 0.45446 0.35907 0.43219 0.0
H1506 H 0.45318 0.30561 0.49424 0.0
H1507 H 0.49938 0.30688 0.49526 0.0
C1508 C 0.60056 0.26196 0.41288 0.0
C1509 C 0.60078 0.24064 0.42886 0.0
C1510 C 0.58836 0.28358 0.42066 0.0
C1511 C 0.57654 0.28438 0.44476 0.0
C1512 C 0.57529 0.26243 0.46 0.0
C1513 C 0.58737 0.24055 0.45202 0.0
C1514 C 0.5671 0.30884 0.45455 0.0
C1515 C 0.5414 0.31008 0.45847 0.0
C1516 C 0.58321 0.33145 0.45763 0.0
C1517 C 0.61065 0.33115 0.45392 0.0
C1518 C 0.62515 0.31476 0.46838 0.0
C1519 C 0.65083 0.31407 0.46427 0.0
C1520 C 0.66227 0.32976 0.44582 0.0
C1521 C 0.64805 0.3462 0.43146 0.0
C1522 C 0.62235 0.34697 0.43549 0.0
C1523 C 0.51588 0.41492 0.49464 0.0
C1524 C 0.52272 0.43342 0.47626 0.0
C1525 C 0.52324 0.38954 0.4915 0.0
C1526 C 0.53754 0.38247 0.47001 0.0
C1527 C 0.5438 0.40078 0.45154 0.0
C1528 C 0.5365 0.42575 0.45454 0.0
C1529 C 0.54708 0.35648 0.4666 0.0
C1530 C 0.573 0.35491 0.46378 0.0
C1531 C 0.53107 0.33374 0.46395 0.0
C1532 C 0.50345 0.33414 0.46439 0.0
C1533 C 0.49051 0.34871 0.44649 0.0
C1534 C 0.46433 0.34787 0.44605 0.0
C1535 C 0.45089 0.33239 0.46329 0.0
C1536 C 0.46361 0.31771 0.481 0.0
C1537 C 0.48978 0.3185 0.48154 0.0
H1538 H 0.43063 0.33167 0.46283 0.0
H1539 H 0.68215 0.32918 0.44266 0.0
loop_
_geom_bond_atom_site_label_1
_geom_bond_atom_site_label_2
_geom_bond_distance
_geom_bond_site_symmetry_2
_ccdc_geom_bond_type
P0 O11 1.490 . S
P0 C14 1.812 . S
P0 C20 1.803 . S
P0 C26 1.819 . S
H1 C15 0.941 . S
H2 C16 0.939 . S
H3 C18 0.940 . S
H4 C19 0.940 . S
H5 C21 0.939 . S
H6 C22 0.942 . S
H7 C24 0.940 . S
H8 C25 0.939 . S
H9 C27 0.941 . S
H10 C31 0.939 . S
O11 P0 1.490 . S
H12 C28 0.939 . S
H13 C30 0.940 . S
C14 P0 1.812 . S
C14 C15 1.389 . S
C14 C19 1.391 . S
C15 H1 0.941 . S
C15 C14 1.389 . S
C15 C16 1.397 . S
C16 H2 0.939 . S
C16 C15 1.397 . S
C16 C17 1.378 . S
C17 C16 1.378 . S
C17 C18 1.378 . S
C18 H3 0.940 . S
C18 C17 1.378 . S
C18 C19 1.396 . S
C19 H4 0.940 . S
C19 C14 1.391 . S
C19 C18 1.396 . S
C20 P0 1.803 . S
C20 C21 1.378 . S
C20 C25 1.400 . S
C21 H5 0.939 . S
C21 C20 1.378 . S
C21 C22 1.361 . S
C22 H6 0.942 . S
C22 C21 1.361 . S
C22 C23 1.369 . S
C23 C22 1.369 . S
C23 C24 1.404 . S
C24 H7 0.940 . S
C24 C23 1.404 . S
C24 C25 1.389 . S
C25 H8 0.939 . S
C25 C20 1.400 . S
C25 C24 1.389 . S
C26 P0 1.819 . S
C26 C27 1.391 . S
C26 C31 1.391 . S
C27 H9 0.941 . S
C27 C26 1.391 . S
C27 C28 1.396 . S
C28 H12 0.939 . S
C28 C27 1.396 . S
C28 C29 1.397 . S
C29 C28 1.397 . S
C29 C30 1.385 . S
C30 H13 0.940 . S
C30 C29 1.385 . S
C30 C31 1.388 . S
C31 H10 0.939 . S
C31 C26 1.391 . S
C31 C30 1.388 . S
P32 O43 1.490 . S
P32 C46 1.812 . S
P32 C52 1.803 . S
P32 C58 1.819 . S
H33 C47 0.941 . S
H34 C48 0.939 . S
H35 C50 0.940 . S
H36 C51 0.940 . S
H37 C53 0.939 . S
H38 C54 0.942 . S
H39 C56 0.940 . S
H40 C57 0.939 . S
H41 C59 0.941 . S
H42 C63 0.939 . S
O43 P32 1.490 . S
H44 C60 0.939 . S
H45 C62 0.940 . S
C46 P32 1.812 . S
C46 C47 1.389 . S
C46 C51 1.391 . S
C47 H33 0.941 . S
C47 C46 1.389 . S
C47 C48 1.397 . S
C48 H34 0.939 . S
C48 C47 1.397 . S
C48 C49 1.378 . S
C49 C48 1.378 . S
C49 C50 1.378 . S
C50 H35 0.940 . S
C50 C49 1.378 . S
C50 C51 1.396 . S
C51 H36 0.940 . S
C51 C46 1.391 . S
C51 C50 1.396 . S
C52 P32 1.803 . S
C52 C53 1.378 . S
C52 C57 1.400 . S
C53 H37 0.939 . S
C53 C52 1.378 . S
C53 C54 1.361 . S
C54 H38 0.942 . S
C54 C53 1.361 . S
C54 C55 1.369 . S
C55 C54 1.369 . S
C55 C56 1.404 . S
C56 H39 0.940 . S
C56 C55 1.404 . S
C56 C57 1.389 . S
C57 H40 0.939 . S
C57 C52 1.400 . S
C57 C56 1.389 . S
C58 P32 1.819 . S
C58 C59 1.391 . S
C58 C63 1.391 . S
C59 H41 0.941 . S
C59 C58 1.391 . S
C59 C60 1.396 . S
C60 H44 0.939 . S
C60 C59 1.396 . S
C60 C61 1.397 . S
C61 C60 1.397 . S
C61 C62 1.385 . S
C62 H45 0.940 . S
C62 C61 1.385 . S
C62 C63 1.388 . S
C63 H42 0.939 . S
C63 C58 1.391 . S
C63 C62 1.388 . S
P64 O75 1.490 . S
P64 C78 1.812 . S
P64 C84 1.803 . S
P64 C90 1.819 . S
H65 C79 0.941 . S
H66 C80 0.939 . S
H67 C82 0.940 . S
H68 C83 0.940 . S
H69 C85 0.939 . S
H70 C86 0.942 . S
H71 C88 0.940 . S
H72 C89 0.939 . S
H73 C91 0.941 . S
H74 C95 0.939 . S
O75 P64 1.490 . S
H76 C92 0.939 . S
H77 C94 0.940 . S
C78 P64 1.812 . S
C78 C79 1.389 . S
C78 C83 1.391 . S
C79 H65 0.941 . S
C79 C78 1.389 . S
C79 C80 1.397 . S
C80 H66 0.939 . S
C80 C79 1.397 . S
C80 C81 1.378 . S
C81 C80 1.378 . S
C81 C82 1.378 . S
C82 H67 0.940 . S
C82 C81 1.378 . S
C82 C83 1.396 . S
C83 H68 0.940 . S
C83 C78 1.391 . S
C83 C82 1.396 . S
C84 P64 1.803 . S
C84 C85 1.378 . S
C84 C89 1.400 . S
C85 H69 0.939 . S
C85 C84 1.378 . S
C85 C86 1.361 . S
C86 H70 0.942 . S
C86 C85 1.361 . S
C86 C87 1.369 . S
C87 C86 1.369 . S
C87 C88 1.404 . S
C88 H71 0.940 . S
C88 C87 1.404 . S
C88 C89 1.389 . S
C89 H72 0.939 . S
C89 C84 1.400 . S
C89 C88 1.389 . S
C90 P64 1.819 . S
C90 C91 1.391 . S
C90 C95 1.391 . S
C91 H73 0.941 . S
C91 C90 1.391 . S
C91 C92 1.396 . S
C92 H76 0.939 . S
C92 C91 1.396 . S
C92 C93 1.397 . S
C93 C92 1.397 . S
C93 C94 1.385 . S
C94 H77 0.940 . S
C94 C93 1.385 . S
C94 C95 1.388 . S
C95 H74 0.939 . S
C95 C90 1.391 . S
C95 C94 1.388 . S
P96 O107 1.490 . S
P96 C110 1.812 . S
P96 C116 1.803 . S
P96 C122 1.819 . S
H97 C111 0.941 . S
H98 C112 0.939 . S
H99 C114 0.940 . S
H100 C115 0.940 . S
H101 C117 0.939 . S
H102 C118 0.942 . S
H103 C120 0.940 . S
H104 C121 0.939 . S
H105 C123 0.941 . S
H106 C127 0.939 . S
O107 P96 1.490 . S
H108 C124 0.939 . S
H109 C126 0.940 . S
C110 P96 1.812 . S
C110 C111 1.389 . S
C110 C115 1.391 . S
C111 H97 0.941 . S
C111 C110 1.389 . S
C111 C112 1.397 . S
C112 H98 0.939 . S
C112 C111 1.397 . S
C112 C113 1.378 . S
C113 C112 1.378 . S
C113 C114 1.378 . S
C114 H99 0.940 . S
C114 C113 1.378 . S
C114 C115 1.396 . S
C115 H100 0.940 . S
C115 C110 1.391 . S
C115 C114 1.396 . S
C116 P96 1.803 . S
C116 C117 1.378 . S
C116 C121 1.400 . S
C117 H101 0.939 . S
C117 C116 1.378 . S
C117 C118 1.361 . S
C118 H102 0.942 . S
C118 C117 1.361 . S
C118 C119 1.369 . S
C119 C118 1.369 . S
C119 C120 1.404 . S
C120 H103 0.940 . S
C120 C119 1.404 . S
C120 C121 1.389 . S
C121 H104 0.939 . S
C121 C116 1.400 . S
C121 C120 1.389 . S
C122 P96 1.819 . S
C122 C123 1.391 . S
C122 C127 1.391 . S
C123 H105 0.941 . S
C123 C122 1.391 . S
C123 C124 1.396 . S
C124 H108 0.939 . S
C124 C123 1.396 . S
C124 C125 1.397 . S
C125 C124 1.397 . S
C125 C126 1.385 . S
C126 H109 0.940 . S
C126 C125 1.385 . S
C126 C127 1.388 . S
C127 H106 0.939 . S
C127 C122 1.391 . S
C127 C126 1.388 . S
P128 O139 1.490 . S
P128 C142 1.812 . S
P128 C148 1.803 . S
P128 C154 1.819 . S
H129 C143 0.941 . S
H130 C144 0.939 . S
H131 C146 0.940 . S
H132 C147 0.940 . S
H133 C149 0.939 . S
H134 C150 0.942 . S
H135 C152 0.940 . S
H136 C153 0.939 . S
H137 C155 0.941 . S
H138 C159 0.939 . S
O139 P128 1.490 . S
H140 C156 0.939 . S
H141 C158 0.940 . S
C142 P128 1.812 . S
C142 C143 1.389 . S
C142 C147 1.391 . S
C143 H129 0.941 . S
C143 C142 1.389 . S
C143 C144 1.397 . S
C144 H130 0.939 . S
C144 C143 1.397 . S
C144 C145 1.378 . S
C145 C144 1.378 . S
C145 C146 1.378 . S
C146 H131 0.940 . S
C146 C145 1.378 . S
C146 C147 1.396 . S
C147 H132 0.940 . S
C147 C142 1.391 . S
C147 C146 1.396 . S
C148 P128 1.803 . S
C148 C149 1.378 . S
C148 C153 1.400 . S
C149 H133 0.939 . S
C149 C148 1.378 . S
C149 C150 1.361 . S
C150 H134 0.942 . S
C150 C149 1.361 . S
C150 C151 1.369 . S
C151 C150 1.369 . S
C151 C152 1.404 . S
C152 H135 0.940 . S
C152 C151 1.404 . S
C152 C153 1.389 . S
C153 H136 0.939 . S
C153 C148 1.400 . S
C153 C152 1.389 . S
C154 P128 1.819 . S
C154 C155 1.391 . S
C154 C159 1.391 . S
C155 H137 0.941 . S
C155 C154 1.391 . S
C155 C156 1.396 . S
C156 H140 0.939 . S
C156 C155 1.396 . S
C156 C157 1.397 . S
C157 C156 1.397 . S
C157 C158 1.385 . S
C158 H141 0.940 . S
C158 C157 1.385 . S
C158 C159 1.388 . S
C159 H138 0.939 . S
C159 C154 1.391 . S
C159 C158 1.388 . S
P160 O171 1.490 . S
P160 C174 1.812 . S
P160 C180 1.803 . S
P160 C186 1.819 . S
H161 C175 0.941 . S
H162 C176 0.939 . S
H163 C178 0.940 . S
H164 C179 0.940 . S
H165 C181 0.939 . S
H166 C182 0.942 . S
H167 C184 0.940 . S
H168 C185 0.939 . S
H169 C187 0.941 . S
H170 C191 0.939 . S
O171 P160 1.490 . S
H172 C188 0.939 . S
H173 C190 0.940 . S
C174 P160 1.812 . S
C174 C175 1.389 . S
C174 C179 1.391 . S
C175 H161 0.941 . S
C175 C174 1.389 . S
C175 C176 1.397 . S
C176 H162 0.939 . S
C176 C175 1.397 . S
C176 C177 1.378 . S
C177 C176 1.378 . S
C177 C178 1.378 . S
C178 H163 0.940 . S
C178 C177 1.378 . S
C178 C179 1.396 . S
C179 H164 0.940 . S
C179 C174 1.391 . S
C179 C178 1.396 . S
C180 P160 1.803 . S
C180 C181 1.378 . S
C180 C185 1.400 . S
C181 H165 0.939 . S
C181 C180 1.378 . S
C181 C182 1.361 . S
C182 H166 0.942 . S
C182 C181 1.361 . S
C182 C183 1.369 . S
C183 C182 1.369 . S
C183 C184 1.404 . S
C184 H167 0.940 . S
C184 C183 1.404 . S
C184 C185 1.389 . S
C185 H168 0.939 . S
C185 C180 1.400 . S
C185 C184 1.389 . S
C186 P160 1.819 . S
C186 C187 1.391 . S
C186 C191 1.391 . S
C187 H169 0.941 . S
C187 C186 1.391 . S
C187 C188 1.396 . S
C188 H172 0.939 . S
C188 C187 1.396 . S
C188 C189 1.397 . S
C189 C188 1.397 . S
C189 C190 1.385 . S
C190 H173 0.940 . S
C190 C189 1.385 . S
C190 C191 1.388 . S
C191 H170 0.939 . S
C191 C186 1.391 . S
C191 C190 1.388 . S
P192 O203 1.490 . S
P192 C206 1.812 . S
P192 C212 1.803 . S
P192 C218 1.819 . S
H193 C207 0.941 . S
H194 C208 0.939 . S
H195 C210 0.940 . S
H196 C211 0.940 . S
H197 C213 0.939 . S
H198 C214 0.942 . S
H199 C216 0.940 . S
H200 C217 0.939 . S
H201 C219 0.941 . S
H202 C223 0.939 . S
O203 P192 1.490 . S
H204 C220 0.939 . S
H205 C222 0.940 . S
C206 P192 1.812 . S
C206 C207 1.389 . S
C206 C211 1.391 . S
C207 H193 0.941 . S
C207 C206 1.389 . S
C207 C208 1.397 . S
C208 H194 0.939 . S
C208 C207 1.397 . S
C208 C209 1.378 . S
C209 C208 1.378 . S
C209 C210 1.378 . S
C210 H195 0.940 . S
C210 C209 1.378 . S
C210 C211 1.396 . S
C211 H196 0.940 . S
C211 C206 1.391 . S
C211 C210 1.396 . S
C212 P192 1.803 . S
C212 C213 1.378 . S
C212 C217 1.400 . S
C213 H197 0.939 . S
C213 C212 1.378 . S
C213 C214 1.361 . S
C214 H198 0.942 . S
C214 C213 1.361 . S
C214 C215 1.369 . S
C215 C214 1.369 . S
C215 C216 1.404 . S
C216 H199 0.940 . S
C216 C215 1.404 . S
C216 C217 1.389 . S
C217 H200 0.939 . S
C217 C212 1.400 . S
C217 C216 1.389 . S
C218 P192 1.819 . S
C218 C219 1.391 . S
C218 C223 1.391 . S
C219 H201 0.941 . S
C219 C218 1.391 . S
C219 C220 1.396 . S
C220 H204 0.939 . S
C220 C219 1.396 . S
C220 C221 1.397 . S
C221 C220 1.397 . S
C221 C222 1.385 . S
C222 H205 0.940 . S
C222 C221 1.385 . S
C222 C223 1.388 . S
C223 H202 0.939 . S
C223 C218 1.391 . S
C223 C222 1.388 . S
P224 O235 1.490 . S
P224 C238 1.812 . S
P224 C244 1.803 . S
P224 C250 1.819 . S
H225 C239 0.941 . S
H226 C240 0.939 . S
H227 C242 0.940 . S
H228 C243 0.940 . S
H229 C245 0.939 . S
H230 C246 0.942 . S
H231 C248 0.940 . S
H232 C249 0.939 . S
H233 C251 0.941 . S
H234 C255 0.939 . S
O235 P224 1.490 . S
H236 C252 0.939 . S
H237 C254 0.940 . S
C238 P224 1.812 . S
C238 C239 1.389 . S
C238 C243 1.391 . S
C239 H225 0.941 . S
C239 C238 1.389 . S
C239 C240 1.397 . S
C240 H226 0.939 . S
C240 C239 1.397 . S
C240 C241 1.378 . S
C241 C240 1.378 . S
C241 C242 1.378 . S
C242 H227 0.940 . S
C242 C241 1.378 . S
C242 C243 1.396 . S
C243 H228 0.940 . S
C243 C238 1.391 . S
C243 C242 1.396 . S
C244 P224 1.803 . S
C244 C245 1.378 . S
C244 C249 1.400 . S
C245 H229 0.939 . S
C245 C244 1.378 . S
C245 C246 1.361 . S
C246 H230 0.942 . S
C246 C245 1.361 . S
C246 C247 1.369 . S
C247 C246 1.369 . S
C247 C248 1.404 . S
C248 H231 0.940 . S
C248 C247 1.404 . S
C248 C249 1.389 . S
C249 H232 0.939 . S
C249 C244 1.400 . S
C249 C248 1.389 . S
C250 P224 1.819 . S
C250 C251 1.391 . S
C250 C255 1.391 . S
C251 H233 0.941 . S
C251 C250 1.391 . S
C251 C252 1.396 . S
C252 H236 0.939 . S
C252 C251 1.396 . S
C252 C253 1.397 . S
C253 C252 1.397 . S
C253 C254 1.385 . S
C254 H237 0.940 . S
C254 C253 1.385 . S
C254 C255 1.388 . S
C255 H234 0.939 . S
C255 C250 1.391 . S
C255 C254 1.388 . S
O256 Mn257 2.163 1_655 S
O256 C270 1.244 . S
Mn257 O256 2.163 1_455 S
Mn257 O260 2.160 1_545 S
Mn257 O261 2.221 . S
Mn257 O263 2.163 1_445 S
Mn257 O265 2.160 . S
Mn257 O275 2.221 1_445 S
O258 Mn259 2.087 1_545 S
O258 C270 1.256 . S
Mn259 O258 2.087 1_565 S
Mn259 O266 2.089 1_565 S
Mn259 O275 2.290 . S
Mn259 O276 2.251 . S
O260 Mn257 2.160 1_565 S
O260 C271 1.239 . S
O261 Mn257 2.221 . S
O261 Mn262 2.290 . S
O261 C272 1.278 . S
Mn262 O261 2.290 . S
Mn262 O264 2.089 1_545 S
Mn262 O267 2.251 . S
Mn262 O268 2.087 . S
O263 Mn257 2.163 1_665 S
O263 C273 1.244 . S
O264 Mn262 2.089 1_565 S
O264 C271 1.256 . S
O265 Mn257 2.160 . S
O265 C274 1.239 . S
O266 Mn259 2.089 1_545 S
O266 C274 1.256 1_655 S
O267 Mn262 2.251 . S
O267 C272 1.241 . S
O268 Mn262 2.087 . S
O268 C273 1.256 1_445 S
C269 O275 1.278 . S
C269 O276 1.241 . S
C270 O256 1.244 . S
C270 O258 1.256 . S
C271 O260 1.239 . S
C271 O264 1.256 . S
C272 O261 1.278 . S
C272 O267 1.241 . S
C273 O263 1.244 . S
C273 O268 1.256 1_665 S
C274 O265 1.239 . S
C274 O266 1.256 1_455 S
O275 Mn257 2.221 1_665 S
O275 Mn259 2.290 . S
O275 C269 1.278 . S
O276 Mn259 2.251 . S
O276 C269 1.241 . S
O277 Mn278 2.163 1_556 S
O277 C291 1.244 1_545 S
Mn278 O277 2.163 1_554 S
Mn278 O281 2.160 . S
Mn278 O282 2.221 . S
Mn278 O284 2.163 . S
Mn278 O286 2.165 . S
Mn278 O296 2.221 1_545 S
O279 Mn280 2.087 . S
O279 C291 1.256 . S
Mn280 O279 2.087 . S
Mn280 O287 2.089 . S
Mn280 O296 2.290 1_556 S
Mn280 O297 2.251 1_556 S
O281 Mn278 2.160 . S
O281 C292 1.239 . S
O282 Mn278 2.221 . S
O282 Mn283 2.290 . S
O282 C293 1.278 1_554 S
Mn283 O282 2.290 . S
Mn283 O285 2.089 . S
Mn283 O288 2.251 1_554 S
Mn283 O289 2.087 . S
O284 Mn278 2.163 . S
O284 C294 1.244 . S
O285 Mn283 2.089 . S
O285 C292 1.256 . S
O286 Mn278 2.165 . S
O286 C295 1.228 1_544 S
O287 Mn280 2.089 . S
O287 C295 1.256 . S
O288 Mn283 2.251 1_556 S
O288 C293 1.241 . S
O289 Mn283 2.087 . S
O289 C294 1.256 . S
C290 O296 1.278 . S
C290 O297 1.241 . S
C291 O277 1.244 1_565 S
C291 O279 1.256 . S
C292 O281 1.239 . S
C292 O285 1.256 . S
C293 O282 1.278 1_556 S
C293 O288 1.241 . S
C294 O284 1.244 . S
C294 O289 1.256 . S
C295 O286 1.228 1_566 S
C295 O287 1.256 . S
O296 Mn278 2.221 1_565 S
O296 Mn280 2.290 1_554 S
O296 C290 1.278 . S
O297 Mn280 2.251 1_554 S
O297 C290 1.241 . S
O298 Mn299 2.163 . S
O298 C312 1.244 . S
Mn299 O298 2.163 . S
Mn299 O302 2.160 . S
Mn299 O303 2.221 . S
Mn299 O305 2.163 . S
Mn299 O307 2.160 . S
Mn299 O317 2.221 . S
O300 Mn301 2.087 . S
O300 C312 1.256 . S
Mn301 O300 2.087 . S
Mn301 O308 2.089 . S
Mn301 O317 2.290 . S
Mn301 O318 2.251 . S
O302 Mn299 2.160 . S
O302 C313 1.239 . S
O303 Mn299 2.221 . S
O303 Mn304 2.290 . S
O303 C314 1.278 . S
Mn304 O303 2.290 . S
Mn304 O306 2.089 . S
Mn304 O309 2.251 . S
Mn304 O310 2.087 . S
O305 Mn299 2.163 . S
O305 C315 1.244 . S
O306 Mn304 2.089 . S
O306 C313 1.256 . S
O307 Mn299 2.160 . S
O307 C316 1.239 . S
O308 Mn301 2.089 . S
O308 C316 1.256 . S
O309 Mn304 2.251 . S
O309 C314 1.241 . S
O310 Mn304 2.087 . S
O310 C315 1.256 . S
C311 O317 1.278 . S
C311 O318 1.241 . S
C312 O298 1.244 . S
C312 O300 1.256 . S
C313 O302 1.239 . S
C313 O306 1.256 . S
C314 O303 1.278 . S
C314 O309 1.241 . S
C315 O305 1.244 . S
C315 O310 1.256 . S
C316 O307 1.239 . S
C316 O308 1.256 . S
O317 Mn299 2.221 . S
O317 Mn301 2.290 . S
O317 C311 1.278 . S
O318 Mn301 2.251 . S
O318 C311 1.241 . S
O319 Mn320 2.163 1_655 S
O319 C333 1.244 1_554 S
Mn320 O319 2.163 1_455 S
Mn320 O323 2.160 . S
Mn320 O324 2.221 1_455 S
Mn320 O326 2.163 . S
Mn320 O328 2.154 1_454 S
Mn320 O338 2.221 1_554 S
O321 Mn322 2.087 . S
O321 C333 1.256 . S
Mn322 O321 2.087 . S
Mn322 O329 2.089 . S
Mn322 O338 2.290 1_655 S
Mn322 O339 2.251 . S
O323 Mn320 2.160 . S
O323 C334 1.239 . S
O324 Mn320 2.221 1_655 S
O324 Mn325 2.290 1_655 S
O324 C335 1.278 . S
Mn325 O324 2.290 1_455 S
Mn325 O327 2.089 . S
Mn325 O330 2.251 1_455 S
Mn325 O331 2.087 . S
O326 Mn320 2.163 . S
O326 C336 1.244 . S
O327 Mn325 2.089 . S
O327 C334 1.256 . S
O328 Mn320 2.154 1_656 S
O328 C337 1.257 . S
O329 Mn322 2.089 . S
O329 C337 1.256 . S
O330 Mn325 2.251 1_655 S
O330 C335 1.241 . S
O331 Mn325 2.087 . S
O331 C336 1.256 . S
C332 O338 1.278 . S
C332 O339 1.241 1_455 S
C333 O319 1.244 1_556 S
C333 O321 1.256 . S
C334 O323 1.239 . S
C334 O327 1.256 . S
C335 O324 1.278 . S
C335 O330 1.241 . S
C336 O326 1.244 . S
C336 O331 1.256 . S
C337 O328 1.257 . S
C337 O329 1.256 . S
O338 Mn320 2.221 1_556 S
O338 Mn322 2.290 1_455 S
O338 C332 1.278 . S
O339 Mn322 2.251 . S
O339 C332 1.241 1_655 S
H340 C358 0.951 . S
H341 C360 0.951 . S
H342 C362 0.950 . S
H343 C363 0.950 . S
H344 C365 0.950 . S
H345 C368 0.950 . S
H346 C369 0.950 1_565 S
H347 C371 0.950 . S
H348 C372 0.950 . S
H349 C373 0.951 1_655 S
H350 C375 0.951 . S
H351 C377 0.950 . S
H352 C378 0.950 . S
H353 C380 0.950 . S
H354 C383 0.950 . S
H355 C384 0.950 . S
H356 C386 0.950 . S
H357 C387 0.950 . S
C358 H340 0.951 . S
C358 C359 1.366 . S
C358 C360 1.388 . S
C359 C358 1.366 . S
C359 C363 1.385 . S
C360 H341 0.951 . S
C360 C358 1.388 . S
C360 C361 1.366 . S
C361 C360 1.366 . S
C361 C362 1.414 . S
C361 C364 1.499 . S
C362 H342 0.950 . S
C362 C361 1.414 . S
C362 C363 1.374 . S
C363 H343 0.950 . S
C363 C359 1.385 . S
C363 C362 1.374 . S
C364 C361 1.499 . S
C364 C365 1.373 . S
C364 C366 1.389 . S
C365 H344 0.950 . S
C365 C364 1.373 . S
C365 C381 1.377 . S
C366 C364 1.389 . S
C366 C367 1.524 . S
C366 C380 1.377 . S
C367 C366 1.524 . S
C367 C368 1.397 . S
C367 C372 1.363 . S
C368 H345 0.950 . S
C368 C367 1.397 . S
C368 C369 1.334 . S
C369 H346 0.950 1_545 S
C369 C368 1.334 . S
C369 C370 1.287 1_545 S
C370 C369 1.287 1_565 S
C370 C371 1.524 . S
C370 H389 0.913 . S
C371 H347 0.950 . S
C371 C370 1.524 . S
C371 C372 1.415 1_565 S
C372 H348 0.950 . S
C372 C367 1.363 . S
C372 C371 1.415 1_545 S
C373 H349 0.951 1_455 S
C373 C374 1.366 . S
C373 C375 1.388 . S
C374 C373 1.366 . S
C374 C378 1.385 . S
C375 H350 0.951 . S
C375 C373 1.388 . S
C375 C376 1.366 . S
C376 C375 1.366 . S
C376 C377 1.414 . S
C376 C379 1.499 . S
C377 H351 0.950 . S
C377 C376 1.414 . S
C377 C378 1.374 . S
C378 H352 0.950 . S
C378 C374 1.385 . S
C378 C377 1.374 . S
C379 C376 1.499 . S
C379 C380 1.373 . S
C379 C381 1.389 . S
C380 H353 0.950 . S
C380 C366 1.377 . S
C380 C379 1.373 . S
C381 C365 1.377 . S
C381 C379 1.389 . S
C381 C382 1.524 . S
C382 C381 1.524 . S
C382 C383 1.397 . S
C382 C387 1.363 . S
C383 H354 0.950 . S
C383 C382 1.397 . S
C383 C384 1.334 . S
C384 H355 0.950 . S
C384 C383 1.334 . S
C384 C385 1.287 . S
C385 C384 1.287 . S
C385 C386 1.524 . S
C385 H388 0.999 . S
C386 H356 0.950 . S
C386 C385 1.524 . S
C386 C387 1.415 . S
C387 H357 0.950 . S
C387 C382 1.363 . S
C387 C386 1.415 . S
H388 C385 0.999 . S
H389 C370 0.913 . S
H390 C408 0.951 . S
H391 C410 0.951 . S
H392 C412 0.950 . S
H393 C413 0.950 . S
H394 C415 0.950 . S
H395 C418 0.950 . S
H396 C419 0.950 . S
H397 C421 0.950 . S
H398 C422 0.950 . S
H399 C423 0.951 . S
H400 C425 0.951 . S
H401 C427 0.950 1_545 S
H402 C428 0.950 . S
H403 C430 0.950 1_545 S
H404 C433 0.950 . S
H405 C434 0.950 . S
H406 C436 0.950 . S
H407 C437 0.950 . S
C408 H390 0.951 . S
C408 C409 1.366 . S
C408 C410 1.388 . S
C409 C408 1.366 . S
C409 C413 1.385 . S
C410 H391 0.951 . S
C410 C408 1.388 . S
C410 C411 1.366 . S
C411 C410 1.366 . S
C411 C412 1.414 . S
C411 C414 1.499 . S
C412 H392 0.950 . S
C412 C411 1.414 . S
C412 C413 1.374 . S
C413 H393 0.950 . S
C413 C409 1.385 . S
C413 C412 1.374 . S
C414 C411 1.499 . S
C414 C415 1.373 . S
C414 C416 1.389 . S
C415 H394 0.950 . S
C415 C414 1.373 . S
C415 C431 1.377 . S
C416 C414 1.389 . S
C416 C417 1.524 . S
C416 C430 1.377 . S
C417 C416 1.524 . S
C417 C418 1.397 . S
C417 C422 1.363 1_565 S
C418 H395 0.950 . S
C418 C417 1.397 . S
C418 C419 1.334 1_565 S
C419 H396 0.950 . S
C419 C418 1.334 1_545 S
C419 C420 1.287 . S
C420 C419 1.287 . S
C420 C421 1.524 . S
C420 H439 0.913 . S
C421 H397 0.950 . S
C421 C420 1.524 . S
C421 C422 1.415 . S
C422 H398 0.950 . S
C422 C417 1.363 1_545 S
C422 C421 1.415 . S
C423 H399 0.951 . S
C423 C424 1.366 . S
C423 C425 1.388 . S
C424 C423 1.366 . S
C424 C428 1.385 1_565 S
C425 H400 0.951 . S
C425 C423 1.388 . S
C425 C426 1.366 . S
C426 C425 1.366 . S
C426 C427 1.414 . S
C426 C429 1.499 . S
C427 H401 0.950 1_565 S
C427 C426 1.414 . S
C427 C428 1.374 1_565 S
C428 H402 0.950 . S
C428 C424 1.385 1_545 S
C428 C427 1.374 1_545 S
C429 C426 1.499 . S
C429 C430 1.373 . S
C429 C431 1.389 . S
C430 H403 0.950 1_565 S
C430 C416 1.377 . S
C430 C429 1.373 . S
C431 C415 1.377 . S
C431 C429 1.389 . S
C431 C432 1.524 . S
C432 C431 1.524 . S
C432 C433 1.397 . S
C432 C437 1.363 . S
C433 H404 0.950 . S
C433 C432 1.397 . S
C433 C434 1.334 . S
C434 H405 0.950 . S
C434 C433 1.334 . S
C434 C435 1.287 . S
C435 C434 1.287 . S
C435 C436 1.524 . S
C435 H438 0.999 . S
C436 H406 0.950 . S
C436 C435 1.524 . S
C436 C437 1.415 . S
C437 H407 0.950 . S
C437 C432 1.363 . S
C437 C436 1.415 . S
H438 C435 0.999 . S
H439 C420 0.913 . S
H440 C458 0.951 . S
H441 C460 0.951 . S
H442 C462 0.950 . S
H443 C463 0.950 . S
H444 C465 0.950 . S
H445 C468 0.950 . S
H446 C469 0.950 . S
H447 C471 0.950 . S
H448 C472 0.950 . S
H449 C473 0.951 . S
H450 C475 0.951 . S
H451 C477 0.950 . S
H452 C478 0.950 . S
H453 C480 0.950 . S
H454 C483 0.950 . S
H455 C484 0.950 . S
H456 C486 0.950 . S
H457 C487 0.950 . S
C458 H440 0.951 . S
C458 C459 1.366 . S
C458 C460 1.388 . S
C459 C458 1.366 . S
C459 C463 1.385 . S
C460 H441 0.951 . S
C460 C458 1.388 . S
C460 C461 1.366 . S
C461 C460 1.366 . S
C461 C462 1.414 . S
C461 C464 1.499 . S
C462 H442 0.950 . S
C462 C461 1.414 . S
C462 C463 1.374 . S
C463 H443 0.950 . S
C463 C459 1.385 . S
C463 C462 1.374 . S
C464 C461 1.499 . S
C464 C465 1.373 . S
C464 C466 1.389 . S
C465 H444 0.950 . S
C465 C464 1.373 . S
C465 C481 1.377 . S
C466 C464 1.389 . S
C466 C467 1.524 . S
C466 C480 1.377 . S
C467 C466 1.524 . S
C467 C468 1.397 . S
C467 C472 1.363 . S
C468 H445 0.950 . S
C468 C467 1.397 . S
C468 C469 1.334 . S
C469 H446 0.950 . S
C469 C468 1.334 . S
C469 C470 1.287 . S
C470 C469 1.287 . S
C470 C471 1.524 . S
C470 H489 0.913 . S
C471 H447 0.950 . S
C471 C470 1.524 . S
C471 C472 1.415 . S
C472 H448 0.950 . S
C472 C467 1.363 . S
C472 C471 1.415 . S
C473 H449 0.951 . S
C473 C474 1.366 . S
C473 C475 1.388 . S
C474 C473 1.366 . S
C474 C478 1.385 . S
C475 H450 0.951 . S
C475 C473 1.388 . S
C475 C476 1.366 . S
C476 C475 1.366 . S
C476 C477 1.414 . S
C476 C479 1.499 . S
C477 H451 0.950 . S
C477 C476 1.414 . S
C477 C478 1.374 . S
C478 H452 0.950 . S
C478 C474 1.385 . S
C478 C477 1.374 . S
C479 C476 1.499 . S
C479 C480 1.373 . S
C479 C481 1.389 . S
C480 H453 0.950 . S
C480 C466 1.377 . S
C480 C479 1.373 . S
C481 C465 1.377 . S
C481 C479 1.389 . S
C481 C482 1.524 . S
C482 C481 1.524 . S
C482 C483 1.397 . S
C482 C487 1.363 . S
C483 H454 0.950 . S
C483 C482 1.397 . S
C483 C484 1.334 . S
C484 H455 0.950 . S
C484 C483 1.334 . S
C484 C485 1.287 . S
C485 C484 1.287 . S
C485 C486 1.524 . S
C485 H488 0.999 . S
C486 H456 0.950 . S
C486 C485 1.524 . S
C486 C487 1.415 . S
C487 H457 0.950 . S
C487 C482 1.363 . S
C487 C486 1.415 . S
H488 C485 0.999 . S
H489 C470 0.913 . S
H490 C508 0.951 . S
H491 C510 0.951 . S
H492 C512 0.950 . S
H493 C513 0.950 . S
H494 C515 0.950 . S
H495 C518 0.950 . S
H496 C519 0.950 . S
H497 C521 0.950 . S
H498 C522 0.950 . S
H499 C523 0.951 . S
H500 C525 0.951 . S
H501 C527 0.950 . S
H502 C528 0.950 . S
H503 C530 0.950 . S
H504 C533 0.950 . S
H505 C534 0.950 . S
H506 C536 0.950 . S
H507 C537 0.950 . S
C508 H490 0.951 . S
C508 C509 1.366 . S
C508 C510 1.388 . S
C509 C508 1.366 . S
C509 C513 1.385 . S
C510 H491 0.951 . S
C510 C508 1.388 . S
C510 C511 1.366 . S
C511 C510 1.366 . S
C511 C512 1.414 . S
C511 C514 1.499 . S
C512 H492 0.950 . S
C512 C511 1.414 . S
C512 C513 1.374 . S
C513 H493 0.950 . S
C513 C509 1.385 . S
C513 C512 1.374 . S
C514 C511 1.499 . S
C514 C515 1.373 . S
C514 C516 1.389 . S
C515 H494 0.950 . S
C515 C514 1.373 . S
C515 C531 1.377 . S
C516 C514 1.389 . S
C516 C517 1.524 . S
C516 C530 1.377 . S
C517 C516 1.524 . S
C517 C518 1.397 . S
C517 C522 1.363 . S
C518 H495 0.950 . S
C518 C517 1.397 . S
C518 C519 1.334 . S
C519 H496 0.950 . S
C519 C518 1.334 . S
C519 C520 1.287 . S
C520 C519 1.287 . S
C520 C521 1.524 . S
C520 H539 0.913 . S
C521 H497 0.950 . S
C521 C520 1.524 . S
C521 C522 1.415 . S
C522 H498 0.950 . S
C522 C517 1.363 . S
C522 C521 1.415 . S
C523 H499 0.951 . S
C523 C524 1.366 . S
C523 C525 1.388 . S
C524 C523 1.366 . S
C524 C528 1.385 . S
C525 H500 0.951 . S
C525 C523 1.388 . S
C525 C526 1.366 . S
C526 C525 1.366 . S
C526 C527 1.414 . S
C526 C529 1.499 . S
C527 H501 0.950 . S
C527 C526 1.414 . S
C527 C528 1.374 . S
C528 H502 0.950 . S
C528 C524 1.385 . S
C528 C527 1.374 . S
C529 C526 1.499 . S
C529 C530 1.373 . S
C529 C531 1.389 . S
C530 H503 0.950 . S
C530 C516 1.377 . S
C530 C529 1.373 . S
C531 C515 1.377 . S
C531 C529 1.389 . S
C531 C532 1.524 . S
C532 C531 1.524 . S
C532 C533 1.397 . S
C532 C537 1.363 1_655 S
C533 H504 0.950 . S
C533 C532 1.397 . S
C533 C534 1.334 1_655 S
C534 H505 0.950 . S
C534 C533 1.334 1_455 S
C534 C535 1.287 . S
C535 C534 1.287 . S
C535 C536 1.524 . S
C535 H538 0.999 . S
C536 H506 0.950 . S
C536 C535 1.524 . S
C536 C537 1.415 . S
C537 H507 0.950 . S
C537 C532 1.363 1_455 S
C537 C536 1.415 . S
H538 C535 0.999 . S
H539 C520 0.913 . S
H540 C558 0.951 . S
H541 C560 0.951 . S
H542 C562 0.950 . S
H543 C563 0.950 . S
H544 C565 0.950 . S
H545 C568 0.950 . S
H546 C569 0.950 . S
H547 C571 0.950 . S
H548 C572 0.950 . S
H549 C573 0.951 . S
H550 C575 0.951 . S
H551 C577 0.950 . S
H552 C578 0.950 . S
H553 C580 0.950 . S
H554 C583 0.950 . S
H555 C584 0.950 . S
H556 C586 0.950 . S
H557 C587 0.950 1_545 S
C558 H540 0.951 . S
C558 C559 1.366 . S
C558 C560 1.388 . S
C559 C558 1.366 . S
C559 C563 1.385 . S
C560 H541 0.951 . S
C560 C558 1.388 . S
C560 C561 1.366 . S
C561 C560 1.366 . S
C561 C562 1.414 . S
C561 C564 1.499 . S
C562 H542 0.950 . S
C562 C561 1.414 . S
C562 C563 1.374 . S
C563 H543 0.950 . S
C563 C559 1.385 . S
C563 C562 1.374 . S
C564 C561 1.499 . S
C564 C565 1.373 . S
C564 C566 1.389 . S
C565 H544 0.950 . S
C565 C564 1.373 . S
C565 C581 1.377 . S
C566 C564 1.389 . S
C566 C567 1.524 . S
C566 C580 1.377 . S
C567 C566 1.524 . S
C567 C568 1.397 . S
C567 C572 1.363 . S
C568 H545 0.950 . S
C568 C567 1.397 . S
C568 C569 1.334 . S
C569 H546 0.950 . S
C569 C568 1.334 . S
C569 C570 1.287 . S
C570 C569 1.287 . S
C570 C571 1.524 . S
C570 H589 0.913 . S
C571 H547 0.950 . S
C571 C570 1.524 . S
C571 C572 1.415 . S
C572 H548 0.950 . S
C572 C567 1.363 . S
C572 C571 1.415 . S
C573 H549 0.951 . S
C573 C574 1.366 . S
C573 C575 1.388 . S
C574 C573 1.366 . S
C574 C578 1.385 . S
C575 H550 0.951 . S
C575 C573 1.388 . S
C575 C576 1.366 . S
C576 C575 1.366 . S
C576 C577 1.414 . S
C576 C579 1.499 . S
C577 H551 0.950 . S
C577 C576 1.414 . S
C577 C578 1.374 . S
C578 H552 0.950 . S
C578 C574 1.385 . S
C578 C577 1.374 . S
C579 C576 1.499 . S
C579 C580 1.373 . S
C579 C581 1.389 . S
C580 H553 0.950 . S
C580 C566 1.377 . S
C580 C579 1.373 . S
C581 C565 1.377 . S
C581 C579 1.389 . S
C581 C582 1.524 . S
C582 C581 1.524 . S
C582 C583 1.397 . S
C582 C587 1.363 1_545 S
C583 H554 0.950 . S
C583 C582 1.397 . S
C583 C584 1.334 1_545 S
C584 H555 0.950 . S
C584 C583 1.334 1_565 S
C584 C585 1.287 . S
C585 C584 1.287 . S
C585 C586 1.524 . S
C585 H588 0.999 . S
C586 H556 0.950 . S
C586 C585 1.524 . S
C586 C587 1.415 . S
C587 H557 0.950 1_565 S
C587 C582 1.363 1_565 S
C587 C586 1.415 . S
H588 C585 0.999 . S
H589 C570 0.913 . S
H590 C608 0.951 . S
H591 C610 0.951 . S
H592 C612 0.950 . S
H593 C613 0.950 . S
H594 C615 0.950 . S
H595 C618 0.950 . S
H596 C619 0.950 . S
H597 C621 0.950 . S
H598 C622 0.950 . S
H599 C623 0.951 . S
H600 C625 0.951 . S
H601 C627 0.950 . S
H602 C628 0.950 . S
H603 C630 0.950 . S
H604 C633 0.950 . S
H605 C634 0.950 . S
H606 C636 0.950 . S
H607 C637 0.950 . S
C608 H590 0.951 . S
C608 C609 1.366 . S
C608 C610 1.388 . S
C609 C608 1.366 . S
C609 C613 1.385 . S
C610 H591 0.951 . S
C610 C608 1.388 . S
C610 C611 1.366 . S
C611 C610 1.366 . S
C611 C612 1.414 . S
C611 C614 1.499 . S
C612 H592 0.950 . S
C612 C611 1.414 . S
C612 C613 1.374 . S
C613 H593 0.950 . S
C613 C609 1.385 . S
C613 C612 1.374 . S
C614 C611 1.499 . S
C614 C615 1.373 . S
C614 C616 1.389 . S
C615 H594 0.950 . S
C615 C614 1.373 . S
C615 C631 1.377 . S
C616 C614 1.389 . S
C616 C617 1.524 . S
C616 C630 1.377 . S
C617 C616 1.524 . S
C617 C618 1.397 . S
C617 C622 1.363 . S
C618 H595 0.950 . S
C618 C617 1.397 . S
C618 C619 1.334 . S
C619 H596 0.950 . S
C619 C618 1.334 . S
C619 C620 1.287 . S
C620 C619 1.287 . S
C620 C621 1.524 . S
C620 H639 0.913 . S
C621 H597 0.950 . S
C621 C620 1.524 . S
C621 C622 1.415 . S
C622 H598 0.950 . S
C622 C617 1.363 . S
C622 C621 1.415 . S
C623 H599 0.951 . S
C623 C624 1.366 . S
C623 C625 1.388 . S
C624 C623 1.366 . S
C624 C628 1.385 . S
C625 H600 0.951 . S
C625 C623 1.388 . S
C625 C626 1.366 . S
C626 C625 1.366 . S
C626 C627 1.414 . S
C626 C629 1.499 . S
C627 H601 0.950 . S
C627 C626 1.414 . S
C627 C628 1.374 . S
C628 H602 0.950 . S
C628 C624 1.385 . S
C628 C627 1.374 . S
C629 C626 1.499 . S
C629 C630 1.373 . S
C629 C631 1.389 . S
C630 H603 0.950 . S
C630 C616 1.377 . S
C630 C629 1.373 . S
C631 C615 1.377 . S
C631 C629 1.389 . S
C631 C632 1.524 . S
C632 C631 1.524 . S
C632 C633 1.397 . S
C632 C637 1.363 . S
C633 H604 0.950 . S
C633 C632 1.397 . S
C633 C634 1.334 . S
C634 H605 0.950 . S
C634 C633 1.334 . S
C634 C635 1.287 . S
C635 C634 1.287 . S
C635 C636 1.524 . S
C635 H638 0.999 . S
C636 H606 0.950 . S
C636 C635 1.524 . S
C636 C637 1.415 . S
C637 H607 0.950 . S
C637 C632 1.363 . S
C637 C636 1.415 . S
H638 C635 0.999 . S
H639 C620 0.913 . S
H640 C658 0.951 . S
H641 C660 0.951 . S
H642 C662 0.950 . S
H643 C663 0.950 . S
H644 C665 0.950 . S
H645 C668 0.950 . S
H646 C669 0.950 . S
H647 C671 0.950 . S
H648 C672 0.950 . S
H649 C673 0.951 . S
H650 C675 0.951 . S
H651 C677 0.950 . S
H652 C678 0.950 . S
H653 C680 0.950 . S
H654 C683 0.950 . S
H655 C684 0.950 . S
H656 C686 0.950 . S
H657 C687 0.950 . S
C658 H640 0.951 . S
C658 C659 1.366 . S
C658 C660 1.388 . S
C659 C658 1.366 . S
C659 C663 1.385 . S
C660 H641 0.951 . S
C660 C658 1.388 . S
C660 C661 1.366 . S
C661 C660 1.366 . S
C661 C662 1.414 . S
C661 C664 1.499 . S
C662 H642 0.950 . S
C662 C661 1.414 . S
C662 C663 1.374 . S
C663 H643 0.950 . S
C663 C659 1.385 . S
C663 C662 1.374 . S
C664 C661 1.499 . S
C664 C665 1.373 . S
C664 C666 1.389 . S
C665 H644 0.950 . S
C665 C664 1.373 . S
C665 C681 1.377 . S
C666 C664 1.389 . S
C666 C667 1.524 . S
C666 C680 1.377 . S
C667 C666 1.524 . S
C667 C668 1.397 . S
C667 C672 1.363 . S
C668 H645 0.950 . S
C668 C667 1.397 . S
C668 C669 1.334 . S
C669 H646 0.950 . S
C669 C668 1.334 . S
C669 C670 1.287 . S
C670 C669 1.287 . S
C670 C671 1.524 . S
C670 H689 0.913 . S
C671 H647 0.950 . S
C671 C670 1.524 . S
C671 C672 1.415 . S
C672 H648 0.950 . S
C672 C667 1.363 . S
C672 C671 1.415 . S
C673 H649 0.951 . S
C673 C674 1.366 . S
C673 C675 1.388 . S
C674 C673 1.366 . S
C674 C678 1.385 . S
C675 H650 0.951 . S
C675 C673 1.388 . S
C675 C676 1.366 . S
C676 C675 1.366 . S
C676 C677 1.414 . S
C676 C679 1.499 . S
C677 H651 0.950 . S
C677 C676 1.414 . S
C677 C678 1.374 . S
C678 H652 0.950 . S
C678 C674 1.385 . S
C678 C677 1.374 . S
C679 C676 1.499 . S
C679 C680 1.373 . S
C679 C681 1.389 . S
C680 H653 0.950 . S
C680 C666 1.377 . S
C680 C679 1.373 . S
C681 C665 1.377 . S
C681 C679 1.389 . S
C681 C682 1.524 . S
C682 C681 1.524 . S
C682 C683 1.397 . S
C682 C687 1.363 . S
C683 H654 0.950 . S
C683 C682 1.397 . S
C683 C684 1.334 . S
C684 H655 0.950 . S
C684 C683 1.334 . S
C684 C685 1.287 . S
C685 C684 1.287 . S
C685 C686 1.524 . S
C685 H688 0.999 . S
C686 H656 0.950 . S
C686 C685 1.524 . S
C686 C687 1.415 . S
C687 H657 0.950 . S
C687 C682 1.363 . S
C687 C686 1.415 . S
H688 C685 0.999 . S
H689 C670 0.913 . S
H690 C708 0.951 . S
H691 C710 0.951 . S
H692 C712 0.950 . S
H693 C713 0.950 . S
H694 C715 0.950 . S
H695 C718 0.950 . S
H696 C719 0.950 . S
H697 C721 0.950 . S
H698 C722 0.950 . S
H699 C723 0.951 . S
H700 C725 0.951 . S
H701 C727 0.950 . S
H702 C728 0.950 . S
H703 C730 0.950 . S
H704 C733 0.950 . S
H705 C734 0.950 . S
H706 C736 0.950 . S
H707 C737 0.950 . S
C708 H690 0.951 . S
C708 C709 1.366 . S
C708 C710 1.388 . S
C709 C708 1.366 . S
C709 C713 1.385 . S
C710 H691 0.951 . S
C710 C708 1.388 . S
C710 C711 1.366 . S
C711 C710 1.366 . S
C711 C712 1.414 . S
C711 C714 1.499 . S
C712 H692 0.950 . S
C712 C711 1.414 . S
C712 C713 1.374 . S
C713 H693 0.950 . S
C713 C709 1.385 . S
C713 C712 1.374 . S
C714 C711 1.499 . S
C714 C715 1.373 . S
C714 C716 1.389 . S
C715 H694 0.950 . S
C715 C714 1.373 . S
C715 C731 1.377 . S
C716 C714 1.389 . S
C716 C717 1.524 . S
C716 C730 1.377 . S
C717 C716 1.524 . S
C717 C718 1.397 . S
C717 C722 1.363 . S
C718 H695 0.950 . S
C718 C717 1.397 . S
C718 C719 1.334 . S
C719 H696 0.950 . S
C719 C718 1.334 . S
C719 C720 1.287 . S
C720 C719 1.287 . S
C720 C721 1.524 . S
C720 H739 0.913 . S
C721 H697 0.950 . S
C721 C720 1.524 . S
C721 C722 1.415 . S
C722 H698 0.950 . S
C722 C717 1.363 . S
C722 C721 1.415 . S
C723 H699 0.951 . S
C723 C724 1.366 . S
C723 C725 1.388 . S
C724 C723 1.366 . S
C724 C728 1.385 . S
C725 H700 0.951 . S
C725 C723 1.388 . S
C725 C726 1.366 . S
C726 C725 1.366 . S
C726 C727 1.414 . S
C726 C729 1.499 . S
C727 H701 0.950 . S
C727 C726 1.414 . S
C727 C728 1.374 . S
C728 H702 0.950 . S
C728 C724 1.385 . S
C728 C727 1.374 . S
C729 C726 1.499 . S
C729 C730 1.373 . S
C729 C731 1.389 . S
C730 H703 0.950 . S
C730 C716 1.377 . S
C730 C729 1.373 . S
C731 C715 1.377 . S
C731 C729 1.389 . S
C731 C732 1.524 . S
C732 C731 1.524 . S
C732 C733 1.397 . S
C732 C737 1.363 . S
C733 H704 0.950 . S
C733 C732 1.397 . S
C733 C734 1.334 . S
C734 H705 0.950 . S
C734 C733 1.334 . S
C734 C735 1.287 . S
C735 C734 1.287 . S
C735 C736 1.524 . S
C735 H738 0.999 . S
C736 H706 0.950 . S
C736 C735 1.524 . S
C736 C737 1.415 . S
C737 H707 0.950 . S
C737 C732 1.363 . S
C737 C736 1.415 . S
H738 C735 0.999 . S
H739 C720 0.913 . S
H740 C758 0.951 . S
H741 C760 0.951 . S
H742 C762 0.950 . S
H743 C763 0.950 . S
H744 C765 0.950 . S
H745 C768 0.950 . S
H746 C769 0.950 . S
H747 C771 0.950 . S
H748 C772 0.950 . S
H749 C773 0.951 . S
H750 C775 0.951 . S
H751 C777 0.950 . S
H752 C778 0.950 1_655 S
H753 C780 0.950 . S
H754 C783 0.950 . S
H755 C784 0.950 . S
H756 C786 0.950 . S
H757 C787 0.950 . S
C758 H740 0.951 . S
C758 C759 1.366 . S
C758 C760 1.388 . S
C759 C758 1.366 . S
C759 C763 1.385 . S
C760 H741 0.951 . S
C760 C758 1.388 . S
C760 C761 1.366 . S
C761 C760 1.366 . S
C761 C762 1.414 . S
C761 C764 1.499 . S
C762 H742 0.950 . S
C762 C761 1.414 . S
C762 C763 1.374 . S
C763 H743 0.950 . S
C763 C759 1.385 . S
C763 C762 1.374 . S
C764 C761 1.499 . S
C764 C765 1.373 . S
C764 C766 1.389 . S
C765 H744 0.950 . S
C765 C764 1.373 . S
C765 C781 1.377 . S
C766 C764 1.389 . S
C766 C767 1.524 . S
C766 C780 1.377 . S
C767 C766 1.524 . S
C767 C768 1.397 . S
C767 C772 1.363 . S
C768 H745 0.950 . S
C768 C767 1.397 . S
C768 C769 1.334 . S
C769 H746 0.950 . S
C769 C768 1.334 . S
C769 C770 1.287 . S
C770 C769 1.287 . S
C770 C771 1.524 1_455 S
C770 H789 0.913 . S
C771 H747 0.950 . S
C771 C770 1.524 1_655 S
C771 C772 1.415 1_655 S
C772 H748 0.950 . S
C772 C767 1.363 . S
C772 C771 1.415 1_455 S
C773 H749 0.951 . S
C773 C774 1.366 . S
C773 C775 1.388 . S
C774 C773 1.366 . S
C774 C778 1.385 . S
C775 H750 0.951 . S
C775 C773 1.388 . S
C775 C776 1.366 . S
C776 C775 1.366 . S
C776 C777 1.414 . S
C776 C779 1.499 . S
C777 H751 0.950 . S
C777 C776 1.414 . S
C777 C778 1.374 . S
C778 H752 0.950 1_455 S
C778 C774 1.385 . S
C778 C777 1.374 . S
C779 C776 1.499 . S
C779 C780 1.373 . S
C779 C781 1.389 . S
C780 H753 0.950 . S
C780 C766 1.377 . S
C780 C779 1.373 . S
C781 C765 1.377 . S
C781 C779 1.389 . S
C781 C782 1.524 . S
C782 C781 1.524 . S
C782 C783 1.397 . S
C782 C787 1.363 . S
C783 H754 0.950 . S
C783 C782 1.397 . S
C783 C784 1.334 . S
C784 H755 0.950 . S
C784 C783 1.334 . S
C784 C785 1.287 . S
C785 C784 1.287 . S
C785 C786 1.524 . S
C785 H788 0.999 . S
C786 H756 0.950 . S
C786 C785 1.524 . S
C786 C787 1.415 . S
C787 H757 0.950 . S
C787 C782 1.363 . S
C787 C786 1.415 . S
H788 C785 0.999 . S
H789 C770 0.913 . S
H790 C808 0.951 . S
H791 C810 0.951 . S
H792 C812 0.950 . S
H793 C813 0.950 . S
H794 C815 0.950 . S
H795 C818 0.950 . S
H796 C819 0.950 . S
H797 C821 0.950 . S
H798 C822 0.950 . S
H799 C823 0.951 . S
H800 C825 0.951 . S
H801 C827 0.950 . S
H802 C828 0.932 1_554 S
H803 C830 0.950 . S
H804 C833 0.950 . S
H805 C834 0.950 . S
H806 C836 0.950 . S
H807 C837 0.950 . S
C808 H790 0.951 . S
C808 C809 1.366 . S
C808 C810 1.388 . S
C809 C808 1.366 . S
C809 C813 1.385 . S
C810 H791 0.951 . S
C810 C808 1.388 . S
C810 C811 1.366 . S
C811 C810 1.366 . S
C811 C812 1.414 . S
C811 C814 1.499 . S
C812 H792 0.950 . S
C812 C811 1.414 . S
C812 C813 1.374 . S
C813 H793 0.950 . S
C813 C809 1.385 . S
C813 C812 1.374 . S
C814 C811 1.499 . S
C814 C815 1.373 . S
C814 C816 1.389 . S
C815 H794 0.950 . S
C815 C814 1.373 . S
C815 C831 1.377 . S
C816 C814 1.389 . S
C816 C817 1.524 . S
C816 C830 1.377 . S
C817 C816 1.524 . S
C817 C818 1.397 . S
C817 C822 1.363 . S
C818 H795 0.950 . S
C818 C817 1.397 . S
C818 C819 1.334 . S
C819 H796 0.950 . S
C819 C818 1.334 . S
C819 C820 1.287 . S
C820 C819 1.287 . S
C820 C821 1.524 . S
C820 H839 0.913 . S
C821 H797 0.950 . S
C821 C820 1.524 . S
C821 C822 1.415 . S
C822 H798 0.950 . S
C822 C817 1.363 . S
C822 C821 1.415 . S
C823 H799 0.951 . S
C823 C824 1.366 . S
C823 C825 1.388 . S
C824 C823 1.366 . S
C824 C828 1.385 . S
C825 H800 0.951 . S
C825 C823 1.388 . S
C825 C826 1.366 . S
C826 C825 1.366 . S
C826 C827 1.414 . S
C826 C829 1.499 . S
C827 H801 0.950 . S
C827 C826 1.414 . S
C827 C828 1.374 . S
C828 H802 0.932 1_556 S
C828 C824 1.385 . S
C828 C827 1.374 . S
C829 C826 1.499 . S
C829 C830 1.373 . S
C829 C831 1.389 . S
C830 H803 0.950 . S
C830 C816 1.377 . S
C830 C829 1.373 . S
C831 C815 1.377 . S
C831 C829 1.389 . S
C831 C832 1.524 . S
C832 C831 1.524 . S
C832 C833 1.397 . S
C832 C837 1.363 . S
C833 H804 0.950 . S
C833 C832 1.397 . S
C833 C834 1.334 . S
C834 H805 0.950 . S
C834 C833 1.334 . S
C834 C835 1.287 . S
C835 C834 1.287 . S
C835 C836 1.524 . S
C835 H838 0.999 . S
C836 H806 0.950 . S
C836 C835 1.524 . S
C836 C837 1.415 . S
C837 H807 0.950 . S
C837 C832 1.363 . S
C837 C836 1.415 . S
H838 C835 0.999 . S
H839 C820 0.913 . S
H840 C858 0.951 . S
H841 C860 0.951 . S
H842 C862 0.950 . S
H843 C863 0.950 . S
H844 C865 0.950 . S
H845 C868 0.950 . S
H846 C869 0.950 . S
H847 C871 0.950 . S
H848 C872 0.950 . S
H849 C873 0.951 . S
H850 C875 0.951 . S
H851 C877 0.950 . S
H852 C878 0.950 1_455 S
H853 C880 0.950 . S
H854 C883 0.950 . S
H855 C884 0.950 . S
H856 C886 0.950 . S
H857 C887 0.950 . S
C858 H840 0.951 . S
C858 C859 1.366 . S
C858 C860 1.388 . S
C859 C858 1.366 . S
C859 C863 1.385 . S
C860 H841 0.951 . S
C860 C858 1.388 . S
C860 C861 1.366 . S
C861 C860 1.366 . S
C861 C862 1.414 . S
C861 C864 1.499 . S
C862 H842 0.950 . S
C862 C861 1.414 . S
C862 C863 1.374 . S
C863 H843 0.950 . S
C863 C859 1.385 . S
C863 C862 1.374 . S
C864 C861 1.499 . S
C864 C865 1.373 . S
C864 C866 1.389 . S
C865 H844 0.950 . S
C865 C864 1.373 . S
C865 C881 1.377 . S
C866 C864 1.389 . S
C866 C867 1.524 . S
C866 C880 1.377 . S
C867 C866 1.524 . S
C867 C868 1.397 . S
C867 C872 1.363 . S
C868 H845 0.950 . S
C868 C867 1.397 . S
C868 C869 1.334 . S
C869 H846 0.950 . S
C869 C868 1.334 . S
C869 C870 1.287 . S
C870 C869 1.287 . S
C870 C871 1.524 . S
C870 H889 0.913 . S
C871 H847 0.950 . S
C871 C870 1.524 . S
C871 C872 1.415 . S
C872 H848 0.950 . S
C872 C867 1.363 . S
C872 C871 1.415 . S
C873 H849 0.951 . S
C873 C874 1.366 . S
C873 C875 1.388 . S
C874 C873 1.366 . S
C874 C878 1.385 . S
C875 H850 0.951 . S
C875 C873 1.388 . S
C875 C876 1.366 . S
C876 C875 1.366 . S
C876 C877 1.414 . S
C876 C879 1.499 . S
C877 H851 0.950 . S
C877 C876 1.414 . S
C877 C878 1.374 . S
C878 H852 0.950 1_655 S
C878 C874 1.385 . S
C878 C877 1.374 . S
C879 C876 1.499 . S
C879 C880 1.373 . S
C879 C881 1.389 . S
C880 H853 0.950 . S
C880 C866 1.377 . S
C880 C879 1.373 . S
C881 C865 1.377 . S
C881 C879 1.389 . S
C881 C882 1.524 . S
C882 C881 1.524 . S
C882 C883 1.397 . S
C882 C887 1.363 . S
C883 H854 0.950 . S
C883 C882 1.397 . S
C883 C884 1.334 . S
C884 H855 0.950 . S
C884 C883 1.334 . S
C884 C885 1.287 . S
C885 C884 1.287 . S
C885 C886 1.524 . S
C885 H888 0.999 . S
C886 H856 0.950 . S
C886 C885 1.524 . S
C886 C887 1.415 . S
C887 H857 0.950 . S
C887 C882 1.363 . S
C887 C886 1.415 . S
H888 C885 0.999 . S
H889 C870 0.913 . S
H890 C908 0.951 . S
H891 C910 0.951 . S
H892 C912 0.950 . S
H893 C913 0.950 . S
H894 C915 0.950 . S
H895 C918 0.950 . S
H896 C919 0.950 . S
H897 C921 0.950 . S
H898 C922 0.950 . S
H899 C923 0.951 . S
H900 C925 0.951 . S
H901 C927 0.950 . S
H902 C928 0.950 . S
H903 C930 0.950 . S
H904 C933 0.950 . S
H905 C934 0.950 . S
H906 C936 0.950 . S
H907 C937 0.950 . S
C908 H890 0.951 . S
C908 C909 1.366 . S
C908 C910 1.388 . S
C909 C908 1.366 . S
C909 C913 1.385 . S
C910 H891 0.951 . S
C910 C908 1.388 . S
C910 C911 1.366 . S
C911 C910 1.366 . S
C911 C912 1.414 . S
C911 C914 1.499 . S
C912 H892 0.950 . S
C912 C911 1.414 . S
C912 C913 1.374 . S
C913 H893 0.950 . S
C913 C909 1.385 . S
C913 C912 1.374 . S
C914 C911 1.499 . S
C914 C915 1.373 . S
C914 C916 1.389 . S
C915 H894 0.950 . S
C915 C914 1.373 . S
C915 C931 1.377 . S
C916 C914 1.389 . S
C916 C917 1.524 . S
C916 C930 1.377 . S
C917 C916 1.524 . S
C917 C918 1.397 . S
C917 C922 1.363 . S
C918 H895 0.950 . S
C918 C917 1.397 . S
C918 C919 1.334 . S
C919 H896 0.950 . S
C919 C918 1.334 . S
C919 C920 1.287 . S
C920 C919 1.287 . S
C920 C921 1.524 . S
C920 H939 0.913 . S
C921 H897 0.950 . S
C921 C920 1.524 . S
C921 C922 1.415 . S
C922 H898 0.950 . S
C922 C917 1.363 . S
C922 C921 1.415 . S
C923 H899 0.951 . S
C923 C924 1.366 . S
C923 C925 1.388 . S
C924 C923 1.366 . S
C924 C928 1.385 . S
C925 H900 0.951 . S
C925 C923 1.388 . S
C925 C926 1.366 . S
C926 C925 1.366 . S
C926 C927 1.414 . S
C926 C929 1.499 . S
C927 H901 0.950 . S
C927 C926 1.414 . S
C927 C928 1.374 . S
C928 H902 0.950 . S
C928 C924 1.385 . S
C928 C927 1.374 . S
C929 C926 1.499 . S
C929 C930 1.373 . S
C929 C931 1.389 . S
C930 H903 0.950 . S
C930 C916 1.377 . S
C930 C929 1.373 . S
C931 C915 1.377 . S
C931 C929 1.389 . S
C931 C932 1.524 . S
C932 C931 1.524 . S
C932 C933 1.397 . S
C932 C937 1.363 . S
C933 H904 0.950 . S
C933 C932 1.397 . S
C933 C934 1.334 . S
C934 H905 0.950 . S
C934 C933 1.334 . S
C934 C935 1.287 . S
C935 C934 1.287 . S
C935 C936 1.524 . S
C935 H938 0.999 . S
C936 H906 0.950 . S
C936 C935 1.524 . S
C936 C937 1.415 . S
C937 H907 0.950 . S
C937 C932 1.363 . S
C937 C936 1.415 . S
H938 C935 0.999 . S
H939 C920 0.913 . S
H940 C958 0.951 . S
H941 C960 0.951 . S
H942 C962 0.950 . S
H943 C963 0.950 . S
H944 C965 0.950 . S
H945 C968 0.950 . S
H946 C969 0.950 . S
H947 C971 0.950 . S
H948 C972 0.950 1_545 S
H949 C973 0.951 . S
H950 C975 0.951 . S
H951 C977 0.920 1_545 S
H952 C978 0.950 1_545 S
H953 C980 0.950 . S
H954 C983 0.950 . S
H955 C984 0.950 . S
H956 C986 0.950 . S
H957 C987 0.950 . S
C958 H940 0.951 . S
C958 C959 1.366 . S
C958 C960 1.388 . S
C959 C958 1.366 . S
C959 C963 1.385 . S
C960 H941 0.951 . S
C960 C958 1.388 . S
C960 C961 1.366 . S
C961 C960 1.366 . S
C961 C962 1.414 . S
C961 C964 1.499 . S
C962 H942 0.950 . S
C962 C961 1.414 . S
C962 C963 1.374 . S
C963 H943 0.950 . S
C963 C959 1.385 . S
C963 C962 1.374 . S
C964 C961 1.499 . S
C964 C965 1.373 . S
C964 C966 1.389 . S
C965 H944 0.950 . S
C965 C964 1.373 . S
C965 C981 1.377 . S
C966 C964 1.389 . S
C966 C967 1.524 . S
C966 C980 1.377 . S
C967 C966 1.524 . S
C967 C968 1.397 . S
C967 C972 1.363 . S
C968 H945 0.950 . S
C968 C967 1.397 . S
C968 C969 1.334 . S
C969 H946 0.950 . S
C969 C968 1.334 . S
C969 C970 1.287 . S
C970 C969 1.287 . S
C970 C971 1.524 1_565 S
C970 H989 0.913 . S
C971 H947 0.950 . S
C971 C970 1.524 1_545 S
C971 C972 1.415 1_545 S
C972 H948 0.950 1_565 S
C972 C967 1.363 . S
C972 C971 1.415 1_565 S
C973 H949 0.951 . S
C973 C974 1.366 . S
C973 C975 1.388 . S
C974 C973 1.366 . S
C974 C978 1.385 . S
C975 H950 0.951 . S
C975 C973 1.388 . S
C975 C976 1.366 . S
C976 C975 1.366 . S
C976 C977 1.414 . S
C976 C979 1.499 . S
C977 H951 0.920 1_565 S
C977 C976 1.414 . S
C977 C978 1.374 . S
C978 H952 0.950 1_565 S
C978 C974 1.385 . S
C978 C977 1.374 . S
C979 C976 1.499 . S
C979 C980 1.373 . S
C979 C981 1.389 . S
C980 H953 0.950 . S
C980 C966 1.377 . S
C980 C979 1.373 . S
C981 C965 1.377 . S
C981 C979 1.389 . S
C981 C982 1.524 . S
C982 C981 1.524 . S
C982 C983 1.397 1_655 S
C982 C987 1.363 . S
C983 H954 0.950 . S
C983 C982 1.397 1_455 S
C983 C984 1.334 . S
C984 H955 0.950 . S
C984 C983 1.334 . S
C984 C985 1.287 . S
C985 C984 1.287 . S
C985 C986 1.524 . S
C985 H988 0.999 . S
C986 H956 0.950 . S
C986 C985 1.524 . S
C986 C987 1.415 1_455 S
C987 H957 0.950 . S
C987 C982 1.363 . S
C987 C986 1.415 1_655 S
H988 C985 0.999 . S
H989 C970 0.913 . S
H990 C1008 0.951 . S
H991 C1010 0.951 . S
H992 C1012 0.950 . S
H993 C1013 0.950 . S
H994 C1015 0.950 . S
H995 C1018 0.950 . S
H996 C1019 0.950 . S
H997 C1021 0.950 . S
H998 C1022 0.950 . S
H999 C1023 0.951 . S
H1000 C1025 0.951 . S
H1001 C1027 0.950 . S
H1002 C1028 0.950 . S
H1003 C1030 0.950 . S
H1004 C1033 0.950 . S
H1005 C1034 0.950 . S
H1006 C1036 0.950 . S
H1007 C1037 0.950 . S
C1008 H990 0.951 . S
C1008 C1009 1.366 . S
C1008 C1010 1.388 . S
C1009 C1008 1.366 . S
C1009 C1013 1.385 . S
C1010 H991 0.951 . S
C1010 C1008 1.388 . S
C1010 C1011 1.366 . S
C1011 C1010 1.366 . S
C1011 C1012 1.414 . S
C1011 C1014 1.499 . S
C1012 H992 0.950 . S
C1012 C1011 1.414 . S
C1012 C1013 1.374 . S
C1013 H993 0.950 . S
C1013 C1009 1.385 . S
C1013 C1012 1.374 . S
C1014 C1011 1.499 . S
C1014 C1015 1.373 . S
C1014 C1016 1.389 . S
C1015 H994 0.950 . S
C1015 C1014 1.373 . S
C1015 C1031 1.377 . S
C1016 C1014 1.389 . S
C1016 C1017 1.524 . S
C1016 C1030 1.377 . S
C1017 C1016 1.524 . S
C1017 C1018 1.397 . S
C1017 C1022 1.363 . S
C1018 H995 0.950 . S
C1018 C1017 1.397 . S
C1018 C1019 1.334 . S
C1019 H996 0.950 . S
C1019 C1018 1.334 . S
C1019 C1020 1.287 . S
C1020 C1019 1.287 . S
C1020 C1021 1.524 . S
C1020 H1039 0.913 . S
C1021 H997 0.950 . S
C1021 C1020 1.524 . S
C1021 C1022 1.415 . S
C1022 H998 0.950 . S
C1022 C1017 1.363 . S
C1022 C1021 1.415 . S
C1023 H999 0.951 . S
C1023 C1024 1.366 . S
C1023 C1025 1.388 . S
C1024 C1023 1.366 . S
C1024 C1028 1.385 . S
C1025 H1000 0.951 . S
C1025 C1023 1.388 . S
C1025 C1026 1.366 . S
C1026 C1025 1.366 . S
C1026 C1027 1.414 . S
C1026 C1029 1.499 . S
C1027 H1001 0.950 . S
C1027 C1026 1.414 . S
C1027 C1028 1.374 . S
C1028 H1002 0.950 . S
C1028 C1024 1.385 . S
C1028 C1027 1.374 . S
C1029 C1026 1.499 . S
C1029 C1030 1.373 . S
C1029 C1031 1.389 . S
C1030 H1003 0.950 . S
C1030 C1016 1.377 . S
C1030 C1029 1.373 . S
C1031 C1015 1.377 . S
C1031 C1029 1.389 . S
C1031 C1032 1.524 . S
C1032 C1031 1.524 . S
C1032 C1033 1.397 . S
C1032 C1037 1.363 . S
C1033 H1004 0.950 . S
C1033 C1032 1.397 . S
C1033 C1034 1.334 1_545 S
C1034 H1005 0.950 . S
C1034 C1033 1.334 1_565 S
C1034 C1035 1.287 . S
C1035 C1034 1.287 . S
C1035 C1036 1.524 . S
C1035 H1038 0.999 . S
C1036 H1006 0.950 . S
C1036 C1035 1.524 . S
C1036 C1037 1.415 1_565 S
C1037 H1007 0.950 . S
C1037 C1032 1.363 . S
C1037 C1036 1.415 1_545 S
H1038 C1035 0.999 . S
H1039 C1020 0.913 . S
H1040 C1058 0.951 . S
H1041 C1060 0.951 . S
H1042 C1062 0.950 . S
H1043 C1063 0.950 . S
H1044 C1065 0.950 . S
H1045 C1068 0.950 . S
H1046 C1069 0.950 . S
H1047 C1071 0.950 . S
H1048 C1072 0.950 . S
H1049 C1073 0.951 . S
H1050 C1075 0.951 . S
H1051 C1077 0.950 . S
H1052 C1078 0.950 . S
H1053 C1080 0.950 . S
H1054 C1083 0.950 . S
H1055 C1084 0.950 . S
H1056 C1086 0.950 . S
H1057 C1087 0.950 . S
C1058 H1040 0.951 . S
C1058 C1059 1.366 . S
C1058 C1060 1.388 . S
C1059 C1058 1.366 . S
C1059 C1063 1.385 . S
C1060 H1041 0.951 . S
C1060 C1058 1.388 . S
C1060 C1061 1.366 . S
C1061 C1060 1.366 . S
C1061 C1062 1.414 . S
C1061 C1064 1.499 . S
C1062 H1042 0.950 . S
C1062 C1061 1.414 . S
C1062 C1063 1.374 . S
C1063 H1043 0.950 . S
C1063 C1059 1.385 . S
C1063 C1062 1.374 . S
C1064 C1061 1.499 . S
C1064 C1065 1.373 . S
C1064 C1066 1.389 . S
C1065 H1044 0.950 . S
C1065 C1064 1.373 . S
C1065 C1081 1.377 . S
C1066 C1064 1.389 . S
C1066 C1067 1.524 . S
C1066 C1080 1.377 . S
C1067 C1066 1.524 . S
C1067 C1068 1.397 . S
C1067 C1072 1.363 . S
C1068 H1045 0.950 . S
C1068 C1067 1.397 . S
C1068 C1069 1.334 . S
C1069 H1046 0.950 . S
C1069 C1068 1.334 . S
C1069 C1070 1.287 . S
C1070 C1069 1.287 . S
C1070 C1071 1.524 . S
C1070 H1089 0.913 . S
C1071 H1047 0.950 . S
C1071 C1070 1.524 . S
C1071 C1072 1.415 . S
C1072 H1048 0.950 . S
C1072 C1067 1.363 . S
C1072 C1071 1.415 . S
C1073 H1049 0.951 . S
C1073 C1074 1.366 . S
C1073 C1075 1.388 . S
C1074 C1073 1.366 . S
C1074 C1078 1.385 . S
C1075 H1050 0.951 . S
C1075 C1073 1.388 . S
C1075 C1076 1.366 . S
C1076 C1075 1.366 . S
C1076 C1077 1.414 . S
C1076 C1079 1.499 . S
C1077 H1051 0.950 . S
C1077 C1076 1.414 . S
C1077 C1078 1.374 . S
C1078 H1052 0.950 . S
C1078 C1074 1.385 . S
C1078 C1077 1.374 . S
C1079 C1076 1.499 . S
C1079 C1080 1.373 . S
C1079 C1081 1.389 . S
C1080 H1053 0.950 . S
C1080 C1066 1.377 . S
C1080 C1079 1.373 . S
C1081 C1065 1.377 . S
C1081 C1079 1.389 . S
C1081 C1082 1.524 . S
C1082 C1081 1.524 . S
C1082 C1083 1.397 . S
C1082 C1087 1.363 . S
C1083 H1054 0.950 . S
C1083 C1082 1.397 . S
C1083 C1084 1.334 . S
C1084 H1055 0.950 . S
C1084 C1083 1.334 . S
C1084 C1085 1.287 . S
C1085 C1084 1.287 . S
C1085 C1086 1.524 . S
C1085 H1088 0.999 . S
C1086 H1056 0.950 . S
C1086 C1085 1.524 . S
C1086 C1087 1.415 . S
C1087 H1057 0.950 . S
C1087 C1082 1.363 . S
C1087 C1086 1.415 . S
H1088 C1085 0.999 . S
H1089 C1070 0.913 . S
H1090 C1108 0.951 . S
H1091 C1110 0.951 . S
H1092 C1112 0.950 . S
H1093 C1113 0.950 . S
H1094 C1115 0.950 . S
H1095 C1118 0.950 . S
H1096 C1119 0.950 . S
H1097 C1121 0.950 . S
H1098 C1122 0.950 . S
H1099 C1123 0.951 . S
H1100 C1125 0.951 . S
H1101 C1127 0.950 . S
H1102 C1128 0.950 . S
H1103 C1130 0.950 . S
H1104 C1133 0.939 1_655 S
H1105 C1134 0.950 . S
H1106 C1136 0.950 . S
H1107 C1137 0.950 . S
C1108 H1090 0.951 . S
C1108 C1109 1.366 . S
C1108 C1110 1.388 . S
C1109 C1108 1.366 . S
C1109 C1113 1.385 . S
C1110 H1091 0.951 . S
C1110 C1108 1.388 . S
C1110 C1111 1.366 . S
C1111 C1110 1.366 . S
C1111 C1112 1.414 . S
C1111 C1114 1.499 . S
C1112 H1092 0.950 . S
C1112 C1111 1.414 . S
C1112 C1113 1.374 . S
C1113 H1093 0.950 . S
C1113 C1109 1.385 . S
C1113 C1112 1.374 . S
C1114 C1111 1.499 . S
C1114 C1115 1.373 . S
C1114 C1116 1.389 . S
C1115 H1094 0.950 . S
C1115 C1114 1.373 . S
C1115 C1131 1.377 . S
C1116 C1114 1.389 . S
C1116 C1117 1.524 . S
C1116 C1130 1.377 . S
C1117 C1116 1.524 . S
C1117 C1118 1.397 . S
C1117 C1122 1.363 . S
C1118 H1095 0.950 . S
C1118 C1117 1.397 . S
C1118 C1119 1.334 . S
C1119 H1096 0.950 . S
C1119 C1118 1.334 . S
C1119 C1120 1.287 . S
C1120 C1119 1.287 . S
C1120 C1121 1.524 . S
C1120 H1139 0.913 . S
C1121 H1097 0.950 . S
C1121 C1120 1.524 . S
C1121 C1122 1.415 . S
C1122 H1098 0.950 . S
C1122 C1117 1.363 . S
C1122 C1121 1.415 . S
C1123 H1099 0.951 . S
C1123 C1124 1.366 . S
C1123 C1125 1.388 . S
C1124 C1123 1.366 . S
C1124 C1128 1.385 . S
C1125 H1100 0.951 . S
C1125 C1123 1.388 . S
C1125 C1126 1.366 . S
C1126 C1125 1.366 . S
C1126 C1127 1.414 . S
C1126 C1129 1.499 . S
C1127 H1101 0.950 . S
C1127 C1126 1.414 . S
C1127 C1128 1.374 . S
C1128 H1102 0.950 . S
C1128 C1124 1.385 . S
C1128 C1127 1.374 . S
C1129 C1126 1.499 . S
C1129 C1130 1.373 . S
C1129 C1131 1.389 . S
C1130 H1103 0.950 . S
C1130 C1116 1.377 . S
C1130 C1129 1.373 . S
C1131 C1115 1.377 . S
C1131 C1129 1.389 . S
C1131 C1132 1.524 . S
C1132 C1131 1.524 . S
C1132 C1133 1.426 . S
C1132 C1137 1.363 . S
C1133 H1104 0.939 1_455 S
C1133 C1132 1.426 . S
C1133 C1134 1.315 1_455 S
C1134 H1105 0.950 . S
C1134 C1133 1.315 1_655 S
C1134 C1135 1.287 . S
C1135 C1134 1.287 . S
C1135 C1136 1.524 1_655 S
C1135 H1138 0.999 . S
C1136 H1106 0.950 . S
C1136 C1135 1.524 1_455 S
C1136 C1137 1.415 . S
C1137 H1107 0.950 . S
C1137 C1132 1.363 . S
C1137 C1136 1.415 . S
H1138 C1135 0.999 . S
H1139 C1120 0.913 . S
H1140 C1158 0.951 . S
H1141 C1160 0.951 . S
H1142 C1162 0.950 . S
H1143 C1163 0.950 . S
H1144 C1165 0.950 . S
H1145 C1168 0.950 . S
H1146 C1169 0.950 . S
H1147 C1171 0.950 . S
H1148 C1172 0.950 . S
H1149 C1173 0.951 . S
H1150 C1175 0.951 1_545 S
H1151 C1177 0.950 . S
H1152 C1178 0.950 . S
H1153 C1180 0.950 . S
H1154 C1183 0.950 . S
H1155 C1184 0.950 . S
H1156 C1186 0.950 . S
H1157 C1187 0.950 . S
C1158 H1140 0.951 . S
C1158 C1159 1.366 . S
C1158 C1160 1.388 . S
C1159 C1158 1.366 . S
C1159 C1163 1.385 . S
C1160 H1141 0.951 . S
C1160 C1158 1.388 . S
C1160 C1161 1.366 . S
C1161 C1160 1.366 . S
C1161 C1162 1.414 . S
C1161 C1164 1.499 . S
C1162 H1142 0.950 . S
C1162 C1161 1.414 . S
C1162 C1163 1.374 . S
C1163 H1143 0.950 . S
C1163 C1159 1.385 . S
C1163 C1162 1.374 . S
C1164 C1161 1.499 . S
C1164 C1165 1.373 . S
C1164 C1166 1.389 . S
C1165 H1144 0.950 . S
C1165 C1164 1.373 . S
C1165 C1181 1.377 . S
C1166 C1164 1.389 . S
C1166 C1167 1.524 . S
C1166 C1180 1.377 . S
C1167 C1166 1.524 . S
C1167 C1168 1.397 . S
C1167 C1172 1.363 . S
C1168 H1145 0.950 . S
C1168 C1167 1.397 . S
C1168 C1169 1.334 . S
C1169 H1146 0.950 . S
C1169 C1168 1.334 . S
C1169 C1170 1.287 . S
C1170 C1169 1.287 . S
C1170 C1171 1.524 . S
C1170 H1189 0.913 . S
C1171 H1147 0.950 . S
C1171 C1170 1.524 . S
C1171 C1172 1.415 . S
C1172 H1148 0.950 . S
C1172 C1167 1.363 . S
C1172 C1171 1.415 . S
C1173 H1149 0.951 . S
C1173 C1174 1.366 1_545 S
C1173 C1175 1.388 1_545 S
C1174 C1173 1.366 1_565 S
C1174 C1178 1.385 . S
C1175 H1150 0.951 1_565 S
C1175 C1173 1.388 1_565 S
C1175 C1176 1.366 . S
C1176 C1175 1.366 . S
C1176 C1177 1.414 . S
C1176 C1179 1.499 . S
C1177 H1151 0.950 . S
C1177 C1176 1.414 . S
C1177 C1178 1.374 . S
C1178 H1152 0.950 . S
C1178 C1174 1.385 . S
C1178 C1177 1.374 . S
C1179 C1176 1.499 . S
C1179 C1180 1.373 . S
C1179 C1181 1.389 . S
C1180 H1153 0.950 . S
C1180 C1166 1.377 . S
C1180 C1179 1.373 . S
C1181 C1165 1.377 . S
C1181 C1179 1.389 . S
C1181 C1182 1.524 . S
C1182 C1181 1.524 . S
C1182 C1183 1.397 1_556 S
C1182 C1187 1.363 1_565 S
C1183 H1154 0.950 . S
C1183 C1182 1.397 1_554 S
C1183 C1184 1.334 . S
C1184 H1155 0.950 . S
C1184 C1183 1.334 . S
C1184 C1185 1.287 1_565 S
C1185 C1184 1.287 1_545 S
C1185 C1186 1.524 . S
C1185 H1188 0.999 . S
C1186 H1156 0.950 . S
C1186 C1185 1.524 . S
C1186 C1187 1.415 1_554 S
C1187 H1157 0.950 . S
C1187 C1182 1.363 1_545 S
C1187 C1186 1.415 1_556 S
H1188 C1185 0.999 . S
H1189 C1170 0.913 . S
H1190 C1208 0.951 . S
H1191 C1210 0.951 . S
H1192 C1212 0.950 . S
H1193 C1213 0.950 . S
H1194 C1215 0.950 . S
H1195 C1218 0.950 . S
H1196 C1219 0.950 . S
H1197 C1221 0.950 . S
H1198 C1222 0.950 . S
H1199 C1223 0.951 . S
H1200 C1225 0.951 . S
H1201 C1227 0.950 . S
H1202 C1228 0.950 . S
H1203 C1230 0.950 . S
H1204 C1233 0.950 . S
H1205 C1234 0.950 . S
H1206 C1236 0.950 . S
H1207 C1237 0.950 . S
C1208 H1190 0.951 . S
C1208 C1209 1.366 . S
C1208 C1210 1.388 . S
C1209 C1208 1.366 . S
C1209 C1213 1.385 . S
C1210 H1191 0.951 . S
C1210 C1208 1.388 . S
C1210 C1211 1.366 . S
C1211 C1210 1.366 . S
C1211 C1212 1.414 . S
C1211 C1214 1.499 . S
C1212 H1192 0.950 . S
C1212 C1211 1.414 . S
C1212 C1213 1.374 . S
C1213 H1193 0.950 . S
C1213 C1209 1.385 . S
C1213 C1212 1.374 . S
C1214 C1211 1.499 . S
C1214 C1215 1.373 . S
C1214 C1216 1.389 . S
C1215 H1194 0.950 . S
C1215 C1214 1.373 . S
C1215 C1231 1.377 . S
C1216 C1214 1.389 . S
C1216 C1217 1.524 . S
C1216 C1230 1.377 . S
C1217 C1216 1.524 . S
C1217 C1218 1.397 . S
C1217 C1222 1.363 . S
C1218 H1195 0.950 . S
C1218 C1217 1.397 . S
C1218 C1219 1.334 . S
C1219 H1196 0.950 . S
C1219 C1218 1.334 . S
C1219 C1220 1.287 . S
C1220 C1219 1.287 . S
C1220 C1221 1.524 . S
C1220 H1239 0.913 . S
C1221 H1197 0.950 . S
C1221 C1220 1.524 . S
C1221 C1222 1.415 . S
C1222 H1198 0.950 . S
C1222 C1217 1.363 . S
C1222 C1221 1.415 . S
C1223 H1199 0.951 . S
C1223 C1224 1.366 . S
C1223 C1225 1.388 . S
C1224 C1223 1.366 . S
C1224 C1228 1.385 . S
C1225 H1200 0.951 . S
C1225 C1223 1.388 . S
C1225 C1226 1.366 . S
C1226 C1225 1.366 . S
C1226 C1227 1.414 . S
C1226 C1229 1.499 . S
C1227 H1201 0.950 . S
C1227 C1226 1.414 . S
C1227 C1228 1.374 . S
C1228 H1202 0.950 . S
C1228 C1224 1.385 . S
C1228 C1227 1.374 . S
C1229 C1226 1.499 . S
C1229 C1230 1.373 . S
C1229 C1231 1.389 . S
C1230 H1203 0.950 . S
C1230 C1216 1.377 . S
C1230 C1229 1.373 . S
C1231 C1215 1.377 . S
C1231 C1229 1.389 . S
C1231 C1232 1.524 . S
C1232 C1231 1.524 . S
C1232 C1233 1.397 . S
C1232 C1237 1.363 . S
C1233 H1204 0.950 . S
C1233 C1232 1.397 . S
C1233 C1234 1.334 1_545 S
C1234 H1205 0.950 . S
C1234 C1233 1.334 1_565 S
C1234 C1235 1.287 . S
C1235 C1234 1.287 . S
C1235 C1236 1.524 . S
C1235 H1238 0.999 . S
C1236 H1206 0.950 . S
C1236 C1235 1.524 . S
C1236 C1237 1.415 1_565 S
C1237 H1207 0.950 . S
C1237 C1232 1.363 . S
C1237 C1236 1.415 1_545 S
H1238 C1235 0.999 . S
H1239 C1220 0.913 . S
H1240 C1258 0.951 . S
H1241 C1260 0.951 . S
H1242 C1262 0.950 . S
H1243 C1263 0.950 . S
H1244 C1265 0.950 . S
H1245 C1268 0.950 . S
H1246 C1269 0.950 . S
H1247 C1271 0.950 . S
H1248 C1272 0.950 . S
H1249 C1273 0.951 . S
H1250 C1275 0.951 . S
H1251 C1277 0.950 . S
H1252 C1278 0.950 1_556 S
H1253 C1280 0.950 . S
H1254 C1283 0.950 . S
H1255 C1284 0.950 . S
H1256 C1286 0.950 . S
H1257 C1287 0.950 . S
C1258 H1240 0.951 . S
C1258 C1259 1.366 . S
C1258 C1260 1.388 . S
C1259 C1258 1.366 . S
C1259 C1263 1.385 . S
C1260 H1241 0.951 . S
C1260 C1258 1.388 . S
C1260 C1261 1.366 . S
C1261 C1260 1.366 . S
C1261 C1262 1.414 . S
C1261 C1264 1.499 . S
C1262 H1242 0.950 . S
C1262 C1261 1.414 . S
C1262 C1263 1.374 . S
C1263 H1243 0.950 . S
C1263 C1259 1.385 . S
C1263 C1262 1.374 . S
C1264 C1261 1.499 . S
C1264 C1265 1.373 . S
C1264 C1266 1.389 . S
C1265 H1244 0.950 . S
C1265 C1264 1.373 . S
C1265 C1281 1.377 . S
C1266 C1264 1.389 . S
C1266 C1267 1.524 . S
C1266 C1280 1.377 . S
C1267 C1266 1.524 . S
C1267 C1268 1.397 . S
C1267 C1272 1.363 . S
C1268 H1245 0.950 . S
C1268 C1267 1.397 . S
C1268 C1269 1.334 . S
C1269 H1246 0.950 . S
C1269 C1268 1.334 . S
C1269 C1270 1.287 . S
C1270 C1269 1.287 . S
C1270 C1271 1.524 1_554 S
C1270 H1289 0.913 . S
C1271 H1247 0.950 . S
C1271 C1270 1.524 1_556 S
C1271 C1272 1.415 1_556 S
C1272 H1248 0.950 . S
C1272 C1267 1.363 . S
C1272 C1271 1.415 1_554 S
C1273 H1249 0.951 . S
C1273 C1274 1.366 . S
C1273 C1275 1.388 . S
C1274 C1273 1.366 . S
C1274 C1278 1.385 . S
C1275 H1250 0.951 . S
C1275 C1273 1.388 . S
C1275 C1276 1.366 . S
C1276 C1275 1.366 . S
C1276 C1277 1.414 . S
C1276 C1279 1.499 . S
C1277 H1251 0.950 . S
C1277 C1276 1.414 . S
C1277 C1278 1.374 . S
C1278 H1252 0.950 1_554 S
C1278 C1274 1.385 . S
C1278 C1277 1.374 . S
C1279 C1276 1.499 . S
C1279 C1280 1.373 . S
C1279 C1281 1.389 . S
C1280 H1253 0.950 . S
C1280 C1266 1.377 . S
C1280 C1279 1.373 . S
C1281 C1265 1.377 . S
C1281 C1279 1.389 . S
C1281 C1282 1.524 . S
C1282 C1281 1.524 . S
C1282 C1283 1.397 . S
C1282 C1287 1.363 . S
C1283 H1254 0.950 . S
C1283 C1282 1.397 . S
C1283 C1284 1.334 . S
C1284 H1255 0.950 . S
C1284 C1283 1.334 . S
C1284 C1285 1.287 . S
C1285 C1284 1.287 . S
C1285 C1286 1.524 . S
C1285 H1288 0.999 . S
C1286 H1256 0.950 . S
C1286 C1285 1.524 . S
C1286 C1287 1.415 . S
C1287 H1257 0.950 . S
C1287 C1282 1.363 . S
C1287 C1286 1.415 . S
H1288 C1285 0.999 . S
H1289 C1270 0.913 . S
H1290 C1308 0.951 . S
H1291 C1310 0.951 . S
H1292 C1312 0.950 . S
H1293 C1313 0.950 . S
H1294 C1315 0.950 . S
H1295 C1318 0.950 . S
H1296 C1319 0.950 . S
H1297 C1321 0.950 . S
H1298 C1322 0.950 . S
H1299 C1323 0.951 . S
H1300 C1325 0.951 . S
H1301 C1327 0.950 . S
H1302 C1328 0.950 . S
H1303 C1330 0.950 . S
H1304 C1333 0.950 . S
H1305 C1334 0.950 . S
H1306 C1336 0.950 . S
H1307 C1337 0.950 . S
C1308 H1290 0.951 . S
C1308 C1309 1.366 . S
C1308 C1310 1.388 . S
C1309 C1308 1.366 . S
C1309 C1313 1.385 . S
C1310 H1291 0.951 . S
C1310 C1308 1.388 . S
C1310 C1311 1.366 . S
C1311 C1310 1.366 . S
C1311 C1312 1.414 . S
C1311 C1314 1.499 . S
C1312 H1292 0.950 . S
C1312 C1311 1.414 . S
C1312 C1313 1.374 . S
C1313 H1293 0.950 . S
C1313 C1309 1.385 . S
C1313 C1312 1.374 . S
C1314 C1311 1.499 . S
C1314 C1315 1.373 . S
C1314 C1316 1.389 . S
C1315 H1294 0.950 . S
C1315 C1314 1.373 . S
C1315 C1331 1.377 . S
C1316 C1314 1.389 . S
C1316 C1317 1.524 . S
C1316 C1330 1.377 . S
C1317 C1316 1.524 . S
C1317 C1318 1.397 . S
C1317 C1322 1.363 . S
C1318 H1295 0.950 . S
C1318 C1317 1.397 . S
C1318 C1319 1.334 . S
C1319 H1296 0.950 . S
C1319 C1318 1.334 . S
C1319 C1320 1.287 . S
C1320 C1319 1.287 . S
C1320 C1321 1.524 . S
C1320 H1339 0.913 . S
C1321 H1297 0.950 . S
C1321 C1320 1.524 . S
C1321 C1322 1.415 . S
C1322 H1298 0.950 . S
C1322 C1317 1.363 . S
C1322 C1321 1.415 . S
C1323 H1299 0.951 . S
C1323 C1324 1.366 . S
C1323 C1325 1.388 . S
C1324 C1323 1.366 . S
C1324 C1328 1.385 . S
C1325 H1300 0.951 . S
C1325 C1323 1.388 . S
C1325 C1326 1.366 . S
C1326 C1325 1.366 . S
C1326 C1327 1.414 . S
C1326 C1329 1.499 . S
C1327 H1301 0.950 . S
C1327 C1326 1.414 . S
C1327 C1328 1.374 . S
C1328 H1302 0.950 . S
C1328 C1324 1.385 . S
C1328 C1327 1.374 . S
C1329 C1326 1.499 . S
C1329 C1330 1.373 . S
C1329 C1331 1.389 . S
C1330 H1303 0.950 . S
C1330 C1316 1.377 . S
C1330 C1329 1.373 . S
C1331 C1315 1.377 . S
C1331 C1329 1.389 . S
C1331 C1332 1.524 . S
C1332 C1331 1.524 . S
C1332 C1333 1.397 . S
C1332 C1337 1.363 . S
C1333 H1304 0.950 . S
C1333 C1332 1.397 . S
C1333 C1334 1.334 . S
C1334 H1305 0.950 . S
C1334 C1333 1.334 . S
C1334 C1335 1.287 . S
C1335 C1334 1.287 . S
C1335 C1336 1.524 . S
C1335 H1338 0.999 . S
C1336 H1306 0.950 . S
C1336 C1335 1.524 . S
C1336 C1337 1.415 . S
C1337 H1307 0.950 . S
C1337 C1332 1.363 . S
C1337 C1336 1.415 . S
H1338 C1335 0.999 . S
H1339 C1320 0.913 . S
H1340 C1358 0.951 . S
H1341 C1360 0.951 . S
H1342 C1362 0.950 . S
H1343 C1363 0.950 . S
H1344 C1365 0.950 . S
H1345 C1368 0.950 . S
H1346 C1369 0.950 . S
H1347 C1371 0.950 . S
H1348 C1372 0.950 . S
H1349 C1373 0.951 . S
H1350 C1375 0.951 . S
H1351 C1377 0.950 1_554 S
H1352 C1378 0.950 1_554 S
H1353 C1380 0.950 . S
H1354 C1383 0.950 . S
H1355 C1384 0.950 . S
H1356 C1386 0.950 . S
H1357 C1387 0.950 . S
C1358 H1340 0.951 . S
C1358 C1359 1.366 . S
C1358 C1360 1.388 . S
C1359 C1358 1.366 . S
C1359 C1363 1.385 . S
C1360 H1341 0.951 . S
C1360 C1358 1.388 . S
C1360 C1361 1.366 . S
C1361 C1360 1.366 . S
C1361 C1362 1.414 . S
C1361 C1364 1.499 . S
C1362 H1342 0.950 . S
C1362 C1361 1.414 . S
C1362 C1363 1.374 . S
C1363 H1343 0.950 . S
C1363 C1359 1.385 . S
C1363 C1362 1.374 . S
C1364 C1361 1.499 . S
C1364 C1365 1.373 . S
C1364 C1366 1.389 . S
C1365 H1344 0.950 . S
C1365 C1364 1.373 . S
C1365 C1381 1.377 . S
C1366 C1364 1.389 . S
C1366 C1367 1.524 . S
C1366 C1380 1.377 . S
C1367 C1366 1.524 . S
C1367 C1368 1.397 . S
C1367 C1372 1.363 1_556 S
C1368 H1345 0.950 . S
C1368 C1367 1.397 . S
C1368 C1369 1.334 1_556 S
C1369 H1346 0.950 . S
C1369 C1368 1.334 1_554 S
C1369 C1370 1.287 . S
C1370 C1369 1.287 . S
C1370 C1371 1.524 . S
C1370 H1389 0.913 . S
C1371 H1347 0.950 . S
C1371 C1370 1.524 . S
C1371 C1372 1.415 . S
C1372 H1348 0.950 . S
C1372 C1367 1.363 1_554 S
C1372 C1371 1.415 . S
C1373 H1349 0.951 . S
C1373 C1374 1.366 . S
C1373 C1375 1.388 . S
C1374 C1373 1.366 . S
C1374 C1378 1.385 . S
C1375 H1350 0.951 . S
C1375 C1373 1.388 . S
C1375 C1376 1.366 . S
C1376 C1375 1.366 . S
C1376 C1377 1.414 . S
C1376 C1379 1.499 . S
C1377 H1351 0.950 1_556 S
C1377 C1376 1.414 . S
C1377 C1378 1.374 . S
C1378 H1352 0.950 1_556 S
C1378 C1374 1.385 . S
C1378 C1377 1.374 . S
C1379 C1376 1.499 . S
C1379 C1380 1.373 . S
C1379 C1381 1.389 . S
C1380 H1353 0.950 . S
C1380 C1366 1.377 . S
C1380 C1379 1.373 . S
C1381 C1365 1.377 . S
C1381 C1379 1.389 . S
C1381 C1382 1.524 . S
C1382 C1381 1.524 . S
C1382 C1383 1.397 . S
C1382 C1387 1.363 . S
C1383 H1354 0.950 . S
C1383 C1382 1.397 . S
C1383 C1384 1.334 . S
C1384 H1355 0.950 . S
C1384 C1383 1.334 . S
C1384 C1385 1.287 . S
C1385 C1384 1.287 . S
C1385 C1386 1.524 . S
C1385 H1388 0.999 . S
C1386 H1356 0.950 . S
C1386 C1385 1.524 . S
C1386 C1387 1.415 . S
C1387 H1357 0.950 . S
C1387 C1382 1.363 . S
C1387 C1386 1.415 . S
H1388 C1385 0.999 . S
H1389 C1370 0.913 . S
H1390 C1408 0.951 . S
H1391 C1410 0.951 . S
H1392 C1412 0.950 . S
H1393 C1413 0.950 . S
H1394 C1415 0.950 . S
H1395 C1418 0.950 . S
H1396 C1419 0.950 . S
H1397 C1421 0.950 . S
H1398 C1422 0.950 . S
H1399 C1423 0.951 . S
H1400 C1425 0.951 . S
H1401 C1427 0.950 . S
H1402 C1428 0.950 . S
H1403 C1430 0.950 . S
H1404 C1433 0.950 . S
H1405 C1434 0.950 . S
H1406 C1436 0.950 . S
H1407 C1437 0.950 . S
C1408 H1390 0.951 . S
C1408 C1409 1.366 . S
C1408 C1410 1.388 . S
C1409 C1408 1.366 . S
C1409 C1413 1.385 . S
C1410 H1391 0.951 . S
C1410 C1408 1.388 . S
C1410 C1411 1.366 . S
C1411 C1410 1.366 . S
C1411 C1412 1.414 . S
C1411 C1414 1.499 . S
C1412 H1392 0.950 . S
C1412 C1411 1.414 . S
C1412 C1413 1.374 . S
C1413 H1393 0.950 . S
C1413 C1409 1.385 . S
C1413 C1412 1.374 . S
C1414 C1411 1.499 . S
C1414 C1415 1.373 . S
C1414 C1416 1.389 . S
C1415 H1394 0.950 . S
C1415 C1414 1.373 . S
C1415 C1431 1.377 . S
C1416 C1414 1.389 . S
C1416 C1417 1.524 . S
C1416 C1430 1.377 . S
C1417 C1416 1.524 . S
C1417 C1418 1.397 . S
C1417 C1422 1.363 . S
C1418 H1395 0.950 . S
C1418 C1417 1.397 . S
C1418 C1419 1.334 . S
C1419 H1396 0.950 . S
C1419 C1418 1.334 . S
C1419 C1420 1.287 . S
C1420 C1419 1.287 . S
C1420 C1421 1.524 . S
C1420 H1439 0.913 . S
C1421 H1397 0.950 . S
C1421 C1420 1.524 . S
C1421 C1422 1.415 . S
C1422 H1398 0.950 . S
C1422 C1417 1.363 . S
C1422 C1421 1.415 . S
C1423 H1399 0.951 . S
C1423 C1424 1.366 . S
C1423 C1425 1.388 . S
C1424 C1423 1.366 . S
C1424 C1428 1.385 . S
C1425 H1400 0.951 . S
C1425 C1423 1.388 . S
C1425 C1426 1.366 . S
C1426 C1425 1.366 . S
C1426 C1427 1.414 . S
C1426 C1429 1.499 . S
C1427 H1401 0.950 . S
C1427 C1426 1.414 . S
C1427 C1428 1.374 . S
C1428 H1402 0.950 . S
C1428 C1424 1.385 . S
C1428 C1427 1.374 . S
C1429 C1426 1.499 . S
C1429 C1430 1.373 . S
C1429 C1431 1.389 . S
C1430 H1403 0.950 . S
C1430 C1416 1.377 . S
C1430 C1429 1.373 . S
C1431 C1415 1.377 . S
C1431 C1429 1.389 . S
C1431 C1432 1.524 . S
C1432 C1431 1.524 . S
C1432 C1433 1.397 . S
C1432 C1437 1.363 . S
C1433 H1404 0.950 . S
C1433 C1432 1.397 . S
C1433 C1434 1.334 . S
C1434 H1405 0.950 . S
C1434 C1433 1.334 . S
C1434 C1435 1.287 . S
C1435 C1434 1.287 . S
C1435 C1436 1.524 . S
C1435 H1438 0.999 . S
C1436 H1406 0.950 . S
C1436 C1435 1.524 . S
C1436 C1437 1.415 . S
C1437 H1407 0.950 . S
C1437 C1432 1.363 . S
C1437 C1436 1.415 . S
H1438 C1435 0.999 . S
H1439 C1420 0.913 . S
H1440 C1458 0.951 . S
H1441 C1460 0.951 . S
H1442 C1462 0.950 . S
H1443 C1463 0.950 . S
H1444 C1465 0.950 . S
H1445 C1468 0.950 . S
H1446 C1469 0.950 . S
H1447 C1471 0.950 . S
H1448 C1472 0.950 . S
H1449 C1473 0.951 . S
H1450 C1475 0.951 . S
H1451 C1477 0.950 1_655 S
H1452 C1478 0.918 1_655 S
H1453 C1480 0.950 . S
H1454 C1483 0.950 . S
H1455 C1484 0.950 . S
H1456 C1486 0.950 . S
H1457 C1487 0.950 . S
C1458 H1440 0.951 . S
C1458 C1459 1.366 . S
C1458 C1460 1.388 . S
C1459 C1458 1.366 . S
C1459 C1463 1.385 . S
C1460 H1441 0.951 . S
C1460 C1458 1.388 . S
C1460 C1461 1.366 . S
C1461 C1460 1.366 . S
C1461 C1462 1.414 . S
C1461 C1464 1.499 . S
C1462 H1442 0.950 . S
C1462 C1461 1.414 . S
C1462 C1463 1.374 . S
C1463 H1443 0.950 . S
C1463 C1459 1.385 . S
C1463 C1462 1.374 . S
C1464 C1461 1.499 . S
C1464 C1465 1.373 . S
C1464 C1466 1.389 . S
C1465 H1444 0.950 . S
C1465 C1464 1.373 . S
C1465 C1481 1.377 . S
C1466 C1464 1.389 . S
C1466 C1467 1.524 . S
C1466 C1480 1.377 . S
C1467 C1466 1.524 . S
C1467 C1468 1.397 . S
C1467 C1472 1.363 . S
C1468 H1445 0.950 . S
C1468 C1467 1.397 . S
C1468 C1469 1.334 . S
C1469 H1446 0.950 . S
C1469 C1468 1.334 . S
C1469 C1470 1.287 . S
C1470 C1469 1.287 . S
C1470 C1471 1.524 . S
C1470 H1489 0.913 . S
C1471 H1447 0.950 . S
C1471 C1470 1.524 . S
C1471 C1472 1.415 . S
C1472 H1448 0.950 . S
C1472 C1467 1.363 . S
C1472 C1471 1.415 . S
C1473 H1449 0.951 . S
C1473 C1474 1.366 . S
C1473 C1475 1.388 . S
C1474 C1473 1.366 . S
C1474 C1478 1.411 . S
C1475 H1450 0.951 . S
C1475 C1473 1.388 . S
C1475 C1476 1.366 . S
C1476 C1475 1.366 . S
C1476 C1477 1.414 . S
C1476 C1479 1.499 . S
C1477 H1451 0.950 1_455 S
C1477 C1476 1.414 . S
C1477 C1478 1.380 . S
C1478 H1452 0.918 1_455 S
C1478 C1474 1.411 . S
C1478 C1477 1.380 . S
C1479 C1476 1.499 . S
C1479 C1480 1.373 . S
C1479 C1481 1.389 . S
C1480 H1453 0.950 . S
C1480 C1466 1.377 . S
C1480 C1479 1.373 . S
C1481 C1465 1.377 . S
C1481 C1479 1.389 . S
C1481 C1482 1.524 . S
C1482 C1481 1.524 . S
C1482 C1483 1.397 . S
C1482 C1487 1.363 . S
C1483 H1454 0.950 . S
C1483 C1482 1.397 . S
C1483 C1484 1.334 . S
C1484 H1455 0.950 . S
C1484 C1483 1.334 . S
C1484 C1485 1.287 . S
C1485 C1484 1.287 . S
C1485 C1486 1.524 . S
C1485 H1488 0.999 . S
C1486 H1456 0.950 . S
C1486 C1485 1.524 . S
C1486 C1487 1.415 . S
C1487 H1457 0.950 . S
C1487 C1482 1.363 . S
C1487 C1486 1.415 . S
H1488 C1485 0.999 . S
H1489 C1470 0.913 . S
H1490 C1508 0.951 . S
H1491 C1510 0.951 . S
H1492 C1512 0.950 . S
H1493 C1513 0.950 . S
H1494 C1515 0.950 . S
H1495 C1518 0.950 . S
H1496 C1519 0.950 . S
H1497 C1521 0.950 . S
H1498 C1522 0.950 . S
H1499 C1523 0.951 . S
H1500 C1525 0.951 . S
H1501 C1527 0.950 . S
H1502 C1528 0.950 . S
H1503 C1530 0.950 . S
H1504 C1533 0.950 . S
H1505 C1534 0.950 . S
H1506 C1536 0.950 . S
H1507 C1537 0.950 . S
C1508 H1490 0.951 . S
C1508 C1509 1.366 . S
C1508 C1510 1.388 . S
C1509 C1508 1.366 . S
C1509 C1513 1.385 . S
C1510 H1491 0.951 . S
C1510 C1508 1.388 . S
C1510 C1511 1.366 . S
C1511 C1510 1.366 . S
C1511 C1512 1.414 . S
C1511 C1514 1.499 . S
C1512 H1492 0.950 . S
C1512 C1511 1.414 . S
C1512 C1513 1.374 . S
C1513 H1493 0.950 . S
C1513 C1509 1.385 . S
C1513 C1512 1.374 . S
C1514 C1511 1.499 . S
C1514 C1515 1.373 . S
C1514 C1516 1.389 . S
C1515 H1494 0.950 . S
C1515 C1514 1.373 . S
C1515 C1531 1.377 . S
C1516 C1514 1.389 . S
C1516 C1517 1.524 . S
C1516 C1530 1.377 . S
C1517 C1516 1.524 . S
C1517 C1518 1.397 . S
C1517 C1522 1.363 . S
C1518 H1495 0.950 . S
C1518 C1517 1.397 . S
C1518 C1519 1.334 . S
C1519 H1496 0.950 . S
C1519 C1518 1.334 . S
C1519 C1520 1.287 . S
C1520 C1519 1.287 . S
C1520 C1521 1.524 . S
C1520 H1539 0.913 . S
C1521 H1497 0.950 . S
C1521 C1520 1.524 . S
C1521 C1522 1.415 . S
C1522 H1498 0.950 . S
C1522 C1517 1.363 . S
C1522 C1521 1.415 . S
C1523 H1499 0.951 . S
C1523 C1524 1.366 . S
C1523 C1525 1.388 . S
C1524 C1523 1.366 . S
C1524 C1528 1.385 . S
C1525 H1500 0.951 . S
C1525 C1523 1.388 . S
C1525 C1526 1.366 . S
C1526 C1525 1.366 . S
C1526 C1527 1.414 . S
C1526 C1529 1.499 . S
C1527 H1501 0.950 . S
C1527 C1526 1.414 . S
C1527 C1528 1.374 . S
C1528 H1502 0.950 . S
C1528 C1524 1.385 . S
C1528 C1527 1.374 . S
C1529 C1526 1.499 . S
C1529 C1530 1.373 . S
C1529 C1531 1.389 . S
C1530 H1503 0.950 . S
C1530 C1516 1.377 . S
C1530 C1529 1.373 . S
C1531 C1515 1.377 . S
C1531 C1529 1.389 . S
C1531 C1532 1.524 . S
C1532 C1531 1.524 . S
C1532 C1533 1.397 . S
C1532 C1537 1.363 . S
C1533 H1504 0.950 . S
C1533 C1532 1.397 . S
C1533 C1534 1.334 . S
C1534 H1505 0.950 . S
C1534 C1533 1.334 . S
C1534 C1535 1.287 . S
C1535 C1534 1.287 . S
C1535 C1536 1.524 . S
C1535 H1538 0.999 . S
C1536 H1506 0.950 . S
C1536 C1535 1.524 . S
C1536 C1537 1.415 . S
C1537 H1507 0.950 . S
C1537 C1532 1.363 . S
C1537 C1536 1.415 . S
H1538 C1535 0.999 . S
H1539 C1520 0.913 . S
C359 C29 1.622 . S
C374 C274 1.645 . S
C409 C49 1.466 . S
C424 C291 1.415 . S
C474 C314 1.203 . S
C459 C93 1.369 . S
C509 C119 1.673 . S
C524 C335 1.458 . S
C574 C294 1.771 . S
C559 C17 1.760 . S
C624 C271 1.714 . S
C609 C61 1.772 . S
C674 C333 1.248 . S
C659 C81 1.258 . S
C724 C312 1.424 . S
C709 C125 1.390 . S
C759 C23 1.704 . S
C774 C336 1.710 . S
C824 C293 1.310 . S
C809 C87 1.519 . S
C859 C113 1.630 . S
C874 C269 1.516 . S
C909 C55 1.502 . S
C924 C315 1.477 . S
C974 C273 1.592 . S
C959 C157 1.643 . S
C1009 C189 1.237 . S
C1024 C292 1.247 . S
C1059 C221 1.488 . S
C1074 C311 1.274 . S
C1109 C253 1.637 . S
C1124 C332 1.429 . S
C1159 C145 1.838 . S
C1174 C295 1.795 . S
C1224 C270 1.717 . S
C1209 C183 1.710 . S
C1274 C334 1.164 . S
C1259 C209 1.205 . S
C1324 C313 1.504 . S
C1309 C247 1.484 . S
C1359 C151 1.567 . S
C1374 C337 1.530 . S
C1424 C290 1.219 . S
C1409 C215 1.451 . S
C1474 C272 1.276 . S
C1459 C241 1.379 . S
C1509 C177 1.419 . S
C1524 C316 1.438 . S
