# Generated by pormake.
# Topology ant, (3,6)-cn, num edge types: 1
# Building blocks:
#     Node 0, Type 0, BuildingBlock: VETTIZ_charged_linker_0, # of connection points: 3
#     Node 1, Type 0, BuildingBlock: VETTIZ_charged_linker_0, # of connection points: 3
#     Node 2, Type 0, BuildingBlock: VETTIZ_charged_linker_0, # of connection points: 3
#     Node 3, Type 0, BuildingBlock: VETTIZ_charged_linker_0, # of connection points: 3
#     Node 4, Type 0, BuildingBlock: VETTIZ_charged_linker_0, # of connection points: 3
#     Node 5, Type 0, BuildingBlock: VETTIZ_charged_linker_0, # of connection points: 3
#     Node 6, Type 0, BuildingBlock: VETTIZ_charged_linker_0, # of connection points: 3
#     Node 7, Type 0, BuildingBlock: VETTIZ_charged_linker_0, # of connection points: 3
#     Node 8, Type 1, BuildingBlock: MIDCAF_clean_sbu_0, # of connection points: 6
#     Node 9, Type 1, BuildingBlock: MIDCAF_clean_sbu_0, # of connection points: 6
#     Node 10, Type 1, BuildingBlock: MIDCAF_clean_sbu_0, # of connection points: 6
#     Node 11, Type 1, BuildingBlock: MIDCAF_clean_sbu_0, # of connection points: 6
#     Edge 12, Type (0, 1), BuildingBlock: XIVTED_clean_linker_0, # of connection points: 2
#     Edge 13, Type (0, 1), BuildingBlock: XIVTED_clean_linker_0, # of connection points: 2
#     Edge 14, Type (0, 1), BuildingBlock: XIVTED_clean_linker_0, # of connection points: 2
#     Edge 15, Type (0, 1), BuildingBlock: XIVTED_clean_linker_0, # of connection points: 2
#     Edge 16, Type (0, 1), BuildingBlock: XIVTED_clean_linker_0, # of connection points: 2
#     Edge 17, Type (0, 1), BuildingBlock: XIVTED_clean_linker_0, # of connection points: 2
#     Edge 18, Type (0, 1), BuildingBlock: XIVTED_clean_linker_0, # of connection points: 2
#     Edge 19, Type (0, 1), BuildingBlock: XIVTED_clean_linker_0, # of connection points: 2
#     Edge 20, Type (0, 1), BuildingBlock: XIVTED_clean_linker_0, # of connection points: 2
#     Edge 21, Type (0, 1), BuildingBlock: XIVTED_clean_linker_0, # of connection points: 2
#     Edge 22, Type (0, 1), BuildingBlock: XIVTED_clean_linker_0, # of connection points: 2
#     Edge 23, Type (0, 1), BuildingBlock: XIVTED_clean_linker_0, # of connection points: 2
#     Edge 24, Type (0, 1), BuildingBlock: XIVTED_clean_linker_0, # of connection points: 2
#     Edge 25, Type (0, 1), BuildingBlock: XIVTED_clean_linker_0, # of connection points: 2
#     Edge 26, Type (0, 1), BuildingBlock: XIVTED_clean_linker_0, # of connection points: 2
#     Edge 27, Type (0, 1), BuildingBlock: XIVTED_clean_linker_0, # of connection points: 2
#     Edge 28, Type (0, 1), BuildingBlock: XIVTED_clean_linker_0, # of connection points: 2
#     Edge 29, Type (0, 1), BuildingBlock: XIVTED_clean_linker_0, # of connection points: 2
#     Edge 30, Type (0, 1), BuildingBlock: XIVTED_clean_linker_0, # of connection points: 2
#     Edge 31, Type (0, 1), BuildingBlock: XIVTED_clean_linker_0, # of connection points: 2
#     Edge 32, Type (0, 1), BuildingBlock: XIVTED_clean_linker_0, # of connection points: 2
#     Edge 33, Type (0, 1), BuildingBlock: XIVTED_clean_linker_0, # of connection points: 2
#     Edge 34, Type (0, 1), BuildingBlock: XIVTED_clean_linker_0, # of connection points: 2
#     Edge 35, Type (0, 1), BuildingBlock: XIVTED_clean_linker_0, # of connection points: 2
# Relax obj value: 0.106
# Max RMSD: 0.160
# Mean RMSD: 0.107
data_MOF--net-ant--node1-MIDCAF_clean_sbu_0--node2-VETTIZ_charged_linker_0--edge1-XIVTED_clean_linker_0
_symmetry_space_group_name_H-M    P1
_symmetry_Int_Tables_number       1
_symmetry_cell_setting            triclinic
loop_
_symmetry_equiv_pos_as_xyz
'x, y, z'
_cell_length_a     33.998615
_cell_length_b     33.730184
_cell_length_c     93.78363
_cell_angle_alpha  90.195586
_cell_angle_beta   93.580134
_cell_angle_gamma 90.115441
loop_
_atom_site_label
_atom_site_type_symbol
_atom_site_fract_x
_atom_site_fract_y
_atom_site_fract_z
_atom_type_partial_charge
C0 C 0.28052 0.13544 0.09003 0.0
C1 C 0.28377 0.09648 0.08475 0.0
C2 C 0.27102 0.08833 0.07045 0.0
C3 C 0.24969 0.15614 0.06718 0.0
C4 C 0.26389 0.16494 0.08097 0.0
C5 C 0.25887 0.20832 0.08444 0.0
H6 H 0.19421 0.39035 0.06259 0.0
C7 C 0.23192 0.19224 0.06079 0.0
C8 C 0.23762 0.22328 0.07071 0.0
H9 H 0.25772 0.36001 0.10245 0.0
H10 H 0.2581 0.29111 0.09541 0.0
H11 H 0.24279 0.33487 0.04231 0.0
H12 H 0.13456 0.3174 0.0629 0.0
H13 H 0.12882 0.2927 0.04641 0.0
H14 H 0.13635 0.34574 0.04681 0.0
H15 H 0.19807 0.36099 0.03734 0.0
H16 H 0.20834 0.31327 0.0298 0.0
C17 C 0.30038 0.22698 0.08701 0.0
C18 C 0.23281 0.21173 0.09732 0.0
C19 C 0.15849 0.18321 0.01203 0.0
C20 C 0.13732 0.21098 0.00348 0.0
C21 C 0.13407 0.25023 0.00853 0.0
C22 C 0.15193 0.26171 0.02178 0.0
C23 C 0.17333 0.23369 0.03013 0.0
C24 C 0.17603 0.19514 0.02526 0.0
C25 C 0.19941 0.16924 0.03565 0.0
C26 C 0.21026 0.1986 0.04757 0.0
C27 C 0.19511 0.2363 0.04425 0.0
C28 C 0.23625 0.15406 0.02831 0.0
C29 C 0.17159 0.13613 0.04052 0.0
C30 C 0.20788 0.36892 0.06989 0.0
C31 C 0.2263 0.38097 0.08304 0.0
C32 C 0.24402 0.35184 0.09212 0.0
C33 C 0.24414 0.31175 0.08804 0.0
C34 C 0.22639 0.30043 0.07472 0.0
C35 C 0.20829 0.32882 0.06597 0.0
C36 C 0.19056 0.31146 0.05225 0.0
C37 C 0.20213 0.26825 0.05398 0.0
C38 C 0.2231 0.26182 0.06717 0.0
C39 C 0.21062 0.33117 0.03968 0.0
C40 C 0.14525 0.31721 0.05192 0.0
H41 H 0.24428 0.10928 0.05104 0.0
H42 H 0.2904 0.14261 0.10094 0.0
H43 H 0.20757 0.19068 0.09612 0.0
H44 H 0.21955 0.24136 0.09833 0.0
H45 H 0.24992 0.20461 0.10747 0.0
H46 H 0.32186 0.21266 0.08015 0.0
H47 H 0.31168 0.22341 0.0983 0.0
H48 H 0.30116 0.25868 0.08415 0.0
H49 H 0.16131 0.15278 0.00853 0.0
H50 H 0.11846 0.2724 0.00206 0.0
H51 H 0.14872 0.29208 0.02492 0.0
H52 H 0.24481 0.17459 0.01976 0.0
H53 H 0.23076 0.12451 0.02331 0.0
H54 H 0.26274 0.15248 0.03577 0.0
H55 H 0.14188 0.14831 0.04228 0.0
H56 H 0.18161 0.12257 0.05079 0.0
H57 H 0.16786 0.1124 0.0323 0.0
H58 H 0.27269 0.05853 0.06618 0.0
C59 C 0.25405 0.1178 0.06169 0.0
C60 C 0.16688 0.8177 0.33286 0.0
C61 C 0.20329 0.82487 0.32691 0.0
C62 C 0.20354 0.83422 0.31228 0.0
C63 C 0.1328 0.82516 0.30948 0.0
C64 C 0.13203 0.8183 0.32398 0.0
C65 C 0.09069 0.81096 0.32838 0.0
H66 H 0.89686 0.78297 0.30859 0.0
C67 C 0.09239 0.82009 0.30298 0.0
C68 C 0.06737 0.81216 0.31399 0.0
H69 H 0.95101 0.79023 0.35146 0.0
H70 H 0.01489 0.80015 0.342 0.0
H71 H 0.94455 0.85571 0.29584 0.0
H72 H 0.96246 0.72957 0.29594 0.0
H73 H 0.979 0.74653 0.2797 0.0
H74 H 0.92787 0.75279 0.28342 0.0
H75 H 0.91279 0.82135 0.28599 0.0
H76 H 0.95616 0.84124 0.27854 0.0
C77 C 0.07934 0.84536 0.33831 0.0
C78 C 0.08926 0.76947 0.33531 0.0
C79 C 0.07044 0.81754 0.24894 0.0
C80 C 0.03799 0.80678 0.23974 0.0
C81 C 1.00162 0.79852 0.2455 0.0
C82 C 0.99781 0.80044 0.26029 0.0
C83 C 0.03092 0.81 0.26943 0.0
C84 C 0.06642 0.81845 0.26369 0.0
C85 C 0.09917 0.8249 0.27499 0.0
C86 C 0.07746 0.81914 0.2885 0.0
C87 C 0.0375 0.81073 0.28517 0.0
C88 C 0.11448 0.86796 0.27367 0.0
C89 C 0.13069 0.79238 0.27314 0.0
C90 C 0.92251 0.78621 0.31595 0.0
C91 C 0.91884 0.78579 0.33079 0.0
C92 C 0.95298 0.79081 0.33998 0.0
C93 C 0.99004 0.79656 0.33448 0.0
C94 C 0.99306 0.79751 0.31961 0.0
C95 C 0.95959 0.79235 0.31063 0.0
C96 C 0.96806 0.79496 0.29514 0.0
C97 C 0.0119 0.80375 0.29627 0.0
C98 C 0.02661 0.80476 0.31062 0.0
C99 C 0.94407 0.82993 0.28839 0.0
C100 C 0.95871 0.75408 0.28806 0.0
H101 H 0.17101 0.84085 0.29247 0.0
H102 H 0.16565 0.8111 0.34412 0.0
H103 H 0.10489 0.7474 0.32889 0.0
H104 H 0.05901 0.75799 0.33589 0.0
H105 H 0.10373 0.76986 0.34626 0.0
H106 H 0.09463 0.87335 0.33566 0.0
H107 H 0.08752 0.8385 0.34968 0.0
H108 H 0.04764 0.85266 0.3371 0.0
H109 H 0.099 0.82303 0.24481 0.0
H110 H 0.97635 0.78998 0.23855 0.0
H111 H 0.96945 0.79355 0.26405 0.0
H112 H 0.09021 0.88834 0.27003 0.0
H113 H 0.13756 0.86983 0.26582 0.0
H114 H 0.12615 0.88044 0.284 0.0
H115 H 0.1166 0.76378 0.26974 0.0
H116 H 0.14807 0.7853 0.28312 0.0
H117 H 0.15114 0.80092 0.26488 0.0
H118 H 0.23106 0.83958 0.30738 0.0
C119 C 0.1686 0.83449 0.30357 0.0
C120 C 0.78135 0.61222 0.59003 0.0
C121 C 0.78387 0.57267 0.58522 0.0
C122 C 0.77373 0.5641 0.57073 0.0
C123 C 0.75528 0.6324 0.56645 0.0
C124 C 0.76741 0.64169 0.5804 0.0
C125 C 0.76269 0.68538 0.58346 0.0
H126 H 0.69551 0.86577 0.56048 0.0
C127 C 0.739 0.66845 0.5595 0.0
C128 C 0.74377 0.69998 0.56928 0.0
H129 H 0.75703 0.83773 0.60091 0.0
H130 H 0.76202 0.76913 0.59373 0.0
H131 H 0.75073 0.81122 0.54054 0.0
H132 H 0.64048 0.79295 0.55967 0.0
H133 H 0.63684 0.76679 0.54346 0.0
H134 H 0.6433 0.81995 0.54333 0.0
H135 H 0.70607 0.83673 0.53501 0.0
H136 H 0.71765 0.78906 0.52766 0.0
C137 C 0.8042 0.70344 0.58672 0.0
C138 C 0.73473 0.69002 0.59575 0.0
C139 C 0.6683 0.65696 0.5103 0.0
C140 C 0.64717 0.68422 0.50152 0.0
C141 C 0.6442 0.72385 0.50617 0.0
C142 C 0.66207 0.73617 0.51931 0.0
C143 C 0.68303 0.70855 0.52799 0.0
C144 C 0.68569 0.66968 0.52346 0.0
C145 C 0.70818 0.64422 0.53424 0.0
C146 C 0.71861 0.67425 0.546 0.0
C147 C 0.70396 0.71186 0.54225 0.0
C148 C 0.74536 0.62813 0.52737 0.0
C149 C 0.67963 0.61176 0.53912 0.0
C150 C 0.71066 0.84505 0.5677 0.0
C151 C 0.72597 0.85735 0.58127 0.0
C152 C 0.74467 0.82904 0.59044 0.0
C153 C 0.74773 0.78922 0.58623 0.0
C154 C 0.73185 0.77734 0.5727 0.0
C155 C 0.71381 0.80517 0.56368 0.0
C156 C 0.69778 0.7872 0.54983 0.0
C157 C 0.71007 0.74426 0.55184 0.0
C158 C 0.72991 0.73846 0.56528 0.0
C159 C 0.7188 0.80708 0.53753 0.0
C160 C 0.6523 0.79206 0.54887 0.0
H161 H 0.75158 0.58476 0.55059 0.0
H162 H 0.7894 0.61986 0.60106 0.0
H163 H 0.70906 0.66964 0.59412 0.0
H164 H 0.72216 0.72004 0.5964 0.0
H165 H 0.75015 0.6828 0.60621 0.0
H166 H 0.82647 0.68838 0.58039 0.0
H167 H 0.81378 0.70027 0.5982 0.0
H168 H 0.80588 0.73497 0.58368 0.0
H169 H 0.67092 0.62627 0.50706 0.0
H170 H 0.62863 0.7456 0.4995 0.0
H171 H 0.65894 0.76676 0.52217 0.0
H172 H 0.7549 0.64819 0.51884 0.0
H173 H 0.73977 0.59848 0.52246 0.0
H174 H 0.77127 0.6264 0.5351 0.0
H175 H 0.64992 0.62442 0.54053 0.0
H176 H 0.68878 0.59867 0.54955 0.0
H177 H 0.67615 0.58759 0.53106 0.0
H178 H 0.77489 0.53399 0.56672 0.0
C179 C 0.75962 0.59362 0.56137 0.0
C180 C 0.66793 0.33592 0.83273 0.0
C181 C 0.70432 0.34228 0.82665 0.0
C182 C 0.70455 0.34834 0.81179 0.0
C183 C 0.63391 0.33808 0.80918 0.0
C184 C 0.63316 0.33418 0.82382 0.0
C185 C 0.59196 0.32702 0.82838 0.0
H186 H 0.39855 0.29368 0.80929 0.0
C187 C 0.59354 0.33162 0.80281 0.0
C188 C 0.5686 0.32553 0.814 0.0
H189 H 0.45287 0.30556 0.85202 0.0
H190 H 0.51644 0.31569 0.84235 0.0
H191 H 0.44527 0.36664 0.79549 0.0
H192 H 0.46377 0.24072 0.79743 0.0
H193 H 0.47981 0.25571 0.78088 0.0
H194 H 0.4288 0.26244 0.78467 0.0
H195 H 0.41382 0.33123 0.78605 0.0
H196 H 0.45723 0.35054 0.77843 0.0
C197 C 0.58006 0.36283 0.83753 0.0
C198 C 0.5913 0.28674 0.83621 0.0
C199 C 0.57099 0.32022 0.74887 0.0
C200 C 0.53816 0.30881 0.73993 0.0
C201 C 0.50173 0.30252 0.74593 0.0
C202 C 0.49824 0.30679 0.76068 0.0
C203 C 0.53167 0.31685 0.76957 0.0
C204 C 0.56721 0.32363 0.7636 0.0
C205 C 0.6001 0.33165 0.77473 0.0
C206 C 0.57847 0.32849 0.78837 0.0
C207 C 0.53844 0.32 0.78527 0.0
C208 C 0.61575 0.3742 0.77243 0.0
C209 C 0.63134 0.29852 0.77359 0.0
C210 C 0.42399 0.29893 0.81659 0.0
C211 C 0.42049 0.29908 0.83145 0.0
C212 C 0.45471 0.30502 0.84054 0.0
C213 C 0.49157 0.31121 0.8349 0.0
C214 C 0.49439 0.31138 0.82 0.0
C215 C 0.46087 0.30521 0.81115 0.0
C216 C 0.46914 0.30595 0.79561 0.0
C217 C 0.51296 0.31478 0.79654 0.0
C218 C 0.52782 0.31767 0.81084 0.0
C219 C 0.44503 0.34014 0.78839 0.0
C220 C 0.45974 0.26427 0.78919 0.0
H221 H 0.67209 0.35036 0.79181 0.0
H222 H 0.66664 0.33174 0.84414 0.0
H223 H 0.60834 0.26416 0.83052 0.0
H224 H 0.56139 0.27428 0.83664 0.0
H225 H 0.6047 0.28942 0.84728 0.0
H226 H 0.59322 0.39081 0.83373 0.0
H227 H 0.59035 0.35895 0.84892 0.0
H228 H 0.54797 0.36822 0.83682 0.0
H229 H 0.59956 0.32441 0.74458 0.0
H230 H 0.47609 0.2937 0.73922 0.0
H231 H 0.4698 0.30125 0.76462 0.0
H232 H 0.59178 0.39408 0.76815 0.0
H233 H 0.63922 0.37433 0.76471 0.0
H234 H 0.62704 0.38853 0.7825 0.0
H235 H 0.61693 0.26942 0.77116 0.0
H236 H 0.64935 0.29365 0.78362 0.0
H237 H 0.65124 0.30494 0.76493 0.0
H238 H 0.73203 0.35289 0.80677 0.0
C239 C 0.66966 0.34638 0.80306 0.0
C240 C 0.04635 0.85081 0.91217 0.0
C241 C 0.06086 0.88392 0.92013 0.0
C242 C 0.07793 0.87772 0.93404 0.0
C243 C 0.06551 0.80704 0.93191 0.0
C244 C 0.04883 0.81284 0.91826 0.0
C245 C 0.03441 0.77451 0.9114 0.0
H246 H 0.00791 0.57553 0.91749 0.0
C247 C 0.06288 0.76434 0.93524 0.0
C248 C 0.04434 0.74503 0.92331 0.0
H249 H 0.98161 0.64732 0.88006 0.0
H250 H 0.00377 0.70619 0.89326 0.0
H251 H 0.08901 0.6121 0.92462 0.0
H252 H 0.97649 0.63735 0.94101 0.0
H253 H 0.01129 0.63851 0.95566 0.0
H254 H 0.00392 0.59326 0.94551 0.0
H255 H 0.06724 0.58047 0.93731 0.0
H256 H 0.09835 0.62179 0.94288 0.0
C257 C 0.05838 0.76662 0.89818 0.0
C258 C 0.98946 0.77783 0.90796 0.0
C259 C 0.11846 0.71341 0.98337 0.0
C260 C 0.11874 0.67576 0.98979 0.0
C261 C 0.10099 0.64362 0.98222 0.0
C262 C 0.08347 0.6488 0.96843 0.0
C263 C 0.08347 0.6866 0.96213 0.0
C264 C 0.10056 0.71817 0.96963 0.0
C265 C 0.09648 0.75642 0.96145 0.0
C266 C 0.07493 0.7424 0.94766 0.0
C267 C 0.06754 0.70153 0.94814 0.0
C268 C 0.13838 0.7719 0.95891 0.0
C269 C 0.07111 0.78528 0.96993 0.0
C270 C 0.00586 0.60404 0.91221 0.0
C271 C 0.99231 0.60687 0.8978 0.0
C272 C 0.9917 0.64443 0.8912 0.0
C273 C 0.0047 0.67848 0.89886 0.0
C274 C 0.01903 0.67485 0.91321 0.0
C275 C 0.01934 0.63794 0.91959 0.0
C276 C 0.03781 0.63861 0.93453 0.0
C277 C 0.04845 0.68204 0.9362 0.0
C278 C 0.03714 0.70344 0.92378 0.0
C279 C 0.0749 0.61173 0.93501 0.0
C280 C 0.00604 0.62605 0.9448 0.0
H281 H 0.09352 0.8371 0.95058 0.0
H282 H 0.03351 0.85427 0.90139 0.0
H283 H 0.97501 0.79192 0.91701 0.0
H284 H 0.97492 0.74878 0.90632 0.0
H285 H 0.9829 0.79627 0.89831 0.0
H286 H 0.08946 0.77659 0.90017 0.0
H287 H 0.04567 0.7828 0.88868 0.0
H288 H 0.06039 0.73479 0.89554 0.0
H289 H 0.13109 0.73889 0.98905 0.0
H290 H 0.10088 0.61436 0.98695 0.0
H291 H 0.07057 0.62311 0.96323 0.0
H292 H 0.15799 0.747 0.95616 0.0
H293 H 0.15184 0.78663 0.96865 0.0
H294 H 0.13899 0.79265 0.94986 0.0
H295 H 0.05002 0.76889 0.97636 0.0
H296 H 0.05227 0.80465 0.96291 0.0
H297 H 0.08982 0.80396 0.97742 0.0
H298 H 0.08877 0.90249 0.94054 0.0
C299 C 0.08036 0.83962 0.93993 0.0
C300 C 0.81194 0.79906 0.15935 0.0
C301 C 0.84873 0.79011 0.16641 0.0
C302 C 0.85124 0.78646 0.18139 0.0
C303 C 0.78178 0.80112 0.18215 0.0
C304 C 0.77881 0.80423 0.16744 0.0
C305 C 0.73711 0.81333 0.16187 0.0
H306 H 0.54728 0.84836 0.17752 0.0
C307 C 0.74282 0.80951 0.18753 0.0
C308 C 0.71628 0.81697 0.17573 0.0
H309 H 0.59145 0.83779 0.13544 0.0
H310 H 0.65781 0.82887 0.14611 0.0
H311 H 0.59576 0.77766 0.19133 0.0
H312 H 0.61462 0.9035 0.19059 0.0
H313 H 0.63526 0.88791 0.20724 0.0
H314 H 0.5831 0.88114 0.20292 0.0
H315 H 0.56664 0.81277 0.20048 0.0
H316 H 0.61115 0.79241 0.20878 0.0
C317 C 0.72162 0.77768 0.15273 0.0
C318 C 0.73719 0.85294 0.15365 0.0
C319 C 0.72497 0.80252 0.24093 0.0
C320 C 0.6927 0.81064 0.24912 0.0
C321 C 0.65793 0.82614 0.24237 0.0
C322 C 0.65462 0.83177 0.22757 0.0
C323 C 0.68645 0.82188 0.2194 0.0
C324 C 0.72132 0.80883 0.22613 0.0
C325 C 0.75263 0.80206 0.21575 0.0
C326 C 0.73015 0.81162 0.20165 0.0
C327 C 0.69131 0.82246 0.20387 0.0
C328 C 0.76483 0.75783 0.21659 0.0
C329 C 0.78673 0.83184 0.21935 0.0
C330 C 0.57113 0.84506 0.17048 0.0
C331 C 0.56382 0.84417 0.15557 0.0
C332 C 0.59603 0.8384 0.14697 0.0
C333 C 0.63455 0.83319 0.15318 0.0
C334 C 0.64094 0.83338 0.16817 0.0
C335 C 0.60934 0.83966 0.17647 0.0
C336 C 0.62057 0.83818 0.19217 0.0
C337 C 0.66413 0.82925 0.19205 0.0
C338 C 0.67628 0.82646 0.17801 0.0
C339 C 0.59732 0.80371 0.19866 0.0
C340 C 0.61284 0.87961 0.19868 0.0
H341 H 0.8223 0.78898 0.20063 0.0
H342 H 0.809 0.80173 0.14783 0.0
H343 H 0.75584 0.87527 0.15967 0.0
H344 H 0.70763 0.86628 0.15219 0.0
H345 H 0.74919 0.84892 0.14299 0.0
H346 H 0.73191 0.74922 0.15762 0.0
H347 H 0.73236 0.77902 0.14179 0.0
H348 H 0.68919 0.77558 0.15195 0.0
H349 H 0.75221 0.79103 0.2459 0.0
H350 H 0.63258 0.83232 0.24846 0.0
H351 H 0.62699 0.84259 0.22305 0.0
H352 H 0.73856 0.73854 0.21761 0.0
H353 H 0.78552 0.75234 0.22601 0.0
H354 H 0.77839 0.74718 0.2069 0.0
H355 H 0.77623 0.85869 0.22489 0.0
H356 H 0.79977 0.8435 0.20968 0.0
H357 H 0.81032 0.81827 0.22645 0.0
H358 H 0.87919 0.78021 0.18712 0.0
C359 C 0.81814 0.79196 0.18926 0.0
C360 C 0.53864 0.32923 0.41063 0.0
C361 C 0.55332 0.36274 0.41833 0.0
C362 C 0.56967 0.35748 0.43238 0.0
C363 C 0.5571 0.28676 0.43082 0.0
C364 C 0.54068 0.29167 0.41709 0.0
C365 C 0.52648 0.25282 0.41053 0.0
H366 H 0.50105 0.05403 0.41863 0.0
C367 C 0.555 0.24424 0.43445 0.0
C368 C 0.53669 0.22405 0.42267 0.0
H369 H 0.47216 0.12267 0.38064 0.0
H370 H 0.49565 0.18257 0.39298 0.0
H371 H 0.58291 0.0915 0.42469 0.0
H372 H 0.47109 0.11667 0.44162 0.0
H373 H 0.50651 0.11898 0.45606 0.0
H374 H 0.49922 0.07313 0.44627 0.0
H375 H 0.56238 0.06067 0.4379 0.0
H376 H 0.59319 0.1028 0.44279 0.0
C377 C 0.55035 0.24428 0.39735 0.0
C378 C 0.48151 0.25568 0.4071 0.0
C379 C 0.61324 0.19652 0.48265 0.0
C380 C 0.61488 0.15912 0.48926 0.0
C381 C 0.59736 0.12633 0.482 0.0
C382 C 0.57894 0.13063 0.4683 0.0
C383 C 0.57778 0.16816 0.46179 0.0
C384 C 0.59451 0.20036 0.469 0.0
C385 C 0.58947 0.23815 0.46059 0.0
C386 C 0.56774 0.22312 0.44698 0.0
C387 C 0.56113 0.18218 0.44775 0.0
C388 C 0.631 0.25419 0.45778 0.0
C389 C 0.56387 0.26695 0.46901 0.0
C390 C 0.49887 0.08205 0.41302 0.0
C391 C 0.48394 0.08376 0.39875 0.0
C392 C 0.48323 0.12067 0.39169 0.0
C393 C 0.49693 0.15532 0.39887 0.0
C394 C 0.51208 0.15287 0.41318 0.0
C395 C 0.51294 0.11645 0.41991 0.0
C396 C 0.53201 0.11822 0.43474 0.0
C397 C 0.54211 0.16182 0.436 0.0
C398 C 0.53021 0.18236 0.42344 0.0
C399 C 0.56944 0.09182 0.4352 0.0
C400 C 0.50092 0.10589 0.44531 0.0
H401 H 0.58469 0.31801 0.44931 0.0
H402 H 0.52558 0.33218 0.39986 0.0
H403 H 0.46699 0.27001 0.41609 0.0
H404 H 0.46724 0.22645 0.40561 0.0
H405 H 0.47479 0.27369 0.39736 0.0
H406 H 0.58163 0.25357 0.39939 0.0
H407 H 0.53808 0.26072 0.38785 0.0
H408 H 0.55159 0.21243 0.39471 0.0
H409 H 0.62566 0.22248 0.48808 0.0
H410 H 0.59829 0.09725 0.48687 0.0
H411 H 0.56635 0.10447 0.46333 0.0
H412 H 0.65099 0.22949 0.45516 0.0
H413 H 0.64443 0.26974 0.46735 0.0
H414 H 0.63101 0.27437 0.44855 0.0
H415 H 0.54351 0.25051 0.47573 0.0
H416 H 0.54426 0.28546 0.46195 0.0
H417 H 0.58247 0.28649 0.47623 0.0
H418 H 0.58178 0.38245 0.43849 0.0
C419 C 0.57162 0.31985 0.43863 0.0
C420 C 0.30402 0.27736 0.65856 0.0
C421 C 0.34148 0.2707 0.66545 0.0
C422 C 0.34584 0.27279 0.68047 0.0
C423 C 0.27689 0.28913 0.68154 0.0
C424 C 0.27213 0.28647 0.66682 0.0
C425 C 0.23002 0.29418 0.66146 0.0
H426 H 0.04546 0.3484 0.67756 0.0
C427 C 0.23907 0.30126 0.687 0.0
C428 C 0.21144 0.30501 0.67529 0.0
H429 H 0.08034 0.30017 0.63754 0.0
H430 H 0.14891 0.30067 0.64669 0.0
H431 H 0.08417 0.28754 0.69431 0.0
H432 H 0.12521 0.40502 0.68607 0.0
H433 H 0.13714 0.39546 0.70426 0.0
H434 H 0.0862 0.39425 0.69752 0.0
H435 H 0.06905 0.32941 0.70441 0.0
H436 H 0.11211 0.3008 0.70982 0.0
C437 C 0.21268 0.25525 0.65486 0.0
C438 C 0.22932 0.32931 0.65092 0.0
C439 C 0.22429 0.31034 0.74048 0.0
C440 C 0.19266 0.32199 0.7485 0.0
C441 C 0.15951 0.34003 0.74148 0.0
C442 C 0.15668 0.34392 0.72663 0.0
C443 C 0.18716 0.3294 0.71865 0.0
C444 C 0.22103 0.31467 0.72559 0.0
C445 C 0.25118 0.30292 0.71528 0.0
C446 C 0.22833 0.30997 0.70104 0.0
C447 C 0.19075 0.32489 0.70314 0.0
C448 C 0.26098 0.25846 0.71756 0.0
C449 C 0.28717 0.33116 0.71757 0.0
C450 C 0.06781 0.33838 0.67064 0.0
C451 C 0.05733 0.32362 0.65691 0.0
C452 C 0.08755 0.31156 0.6482 0.0
C453 C 0.12721 0.31123 0.65361 0.0
C454 C 0.13647 0.32241 0.66792 0.0
C455 C 0.10684 0.33616 0.67607 0.0
C456 C 0.12013 0.34171 0.6915 0.0
C457 C 0.16268 0.32876 0.6914 0.0
C458 C 0.17259 0.31829 0.67754 0.0
C459 C 0.09515 0.31381 0.70058 0.0
C460 C 0.11684 0.38635 0.69517 0.0
H461 H 0.3193 0.28338 0.69988 0.0
H462 H 0.29968 0.27549 0.64704 0.0
H463 H 0.24718 0.35443 0.65554 0.0
H464 H 0.19936 0.34095 0.64848 0.0
H465 H 0.24181 0.32051 0.64071 0.0
H466 H 0.22677 0.22877 0.66004 0.0
H467 H 0.21729 0.25342 0.64326 0.0
H468 H 0.18095 0.25175 0.6565 0.0
H469 H 0.25044 0.29713 0.74565 0.0
H470 H 0.1347 0.34915 0.74741 0.0
H471 H 0.13007 0.35652 0.72188 0.0
H472 H 0.23356 0.24102 0.71873 0.0
H473 H 0.28045 0.25412 0.72739 0.0
H474 H 0.27522 0.24493 0.70848 0.0
H475 H 0.27938 0.35916 0.72302 0.0
H476 H 0.29861 0.3409 0.70734 0.0
H477 H 0.3114 0.31707 0.72423 0.0
H478 H 0.37438 0.26834 0.68603 0.0
C479 C 0.31388 0.28201 0.68852 0.0
Zn480 Zn 0.23597 0.71096 0.14338 0.0
Zn481 Zn 0.16493 0.79981 0.10197 0.0
Zn482 Zn 0.20015 0.75238 0.12149 0.0
C483 C 0.18458 0.72699 0.08896 0.0
C484 C 0.23164 0.83954 0.11239 0.0
O485 O 0.16173 0.75192 0.13958 0.0
O486 O 0.19251 0.71593 0.15655 0.0
C487 C 0.22661 0.66099 0.11883 0.0
O488 O 0.19457 0.71638 0.10184 0.0
O489 O 0.17287 0.76181 0.08624 0.0
O490 O 0.20091 0.84563 0.10447 0.0
O491 O 0.23685 0.80625 0.11892 0.0
O492 O 0.24034 0.66196 0.13167 0.0
O493 O 0.21029 0.692 0.11306 0.0
O494 O 0.25815 0.77997 0.12784 0.0
O495 O 0.28333 0.74579 0.14636 0.0
C496 C 0.28612 0.77361 0.1375 0.0
O497 O 0.13948 0.76732 0.12765 0.0
O498 O 0.11225 0.80286 0.10988 0.0
C499 C 0.16343 0.73683 0.15221 0.0
C500 C 0.10943 0.7856 0.12169 0.0
Zn501 Zn 0.53111 0.68114 0.34978 0.0
Zn502 Zn 0.59479 0.77666 0.38877 0.0
Zn503 Zn 0.56088 0.72814 0.36984 0.0
C504 C 0.52597 0.81387 0.37871 0.0
C505 C 0.64968 0.7665 0.36879 0.0
O506 O 0.55595 0.66679 0.37903 0.0
O507 O 0.5433 0.63066 0.35957 0.0
C508 C 0.47202 0.73503 0.35669 0.0
O509 O 0.52153 0.78075 0.37186 0.0
O510 O 0.55629 0.82013 0.38685 0.0
O511 O 0.64635 0.78395 0.38057 0.0
O512 O 0.62053 0.74607 0.36311 0.0
O513 O 0.47644 0.70227 0.35042 0.0
O514 O 0.50149 0.75171 0.36366 0.0
O515 O 0.59793 0.73071 0.3514 0.0
O516 O 0.56483 0.69711 0.33423 0.0
C517 C 0.59375 0.71872 0.33833 0.0
O518 O 0.56862 0.69385 0.38986 0.0
O519 O 0.59257 0.73992 0.40495 0.0
C520 C 0.5512 0.63261 0.37288 0.0
C521 C 0.58084 0.70491 0.40253 0.0
Zn522 Zn 0.65956 0.27654 0.60369 0.0
Zn523 Zn 0.71776 0.18511 0.64258 0.0
Zn524 Zn 0.69128 0.22908 0.62137 0.0
C525 C 0.77657 0.2411 0.63767 0.0
C526 C 0.70481 0.13499 0.61868 0.0
O527 O 0.63008 0.2439 0.62692 0.0
O528 O 0.60319 0.27294 0.60764 0.0
C529 C 0.72111 0.31808 0.61619 0.0
O530 O 0.74991 0.25354 0.62839 0.0
O531 O 0.77018 0.211 0.64517 0.0
O532 O 0.71257 0.13458 0.63202 0.0
O533 O 0.69804 0.16819 0.61219 0.0
O534 O 0.68782 0.32512 0.61008 0.0
O535 O 0.7304 0.28238 0.61996 0.0
O536 O 0.68709 0.19544 0.6012 0.0
O537 O 0.67824 0.24723 0.58699 0.0
C538 C 0.68513 0.2107 0.58863 0.0
O539 O 0.65125 0.23199 0.63934 0.0
O540 O 0.67917 0.19616 0.65691 0.0
C541 C 0.59958 0.25819 0.61983 0.0
C542 C 0.65187 0.21881 0.65227 0.0
Zn543 Zn 0.02741 0.20026 0.85111 0.0
Zn544 Zn 0.09767 0.28966 0.88735 0.0
Zn545 Zn 0.0616 0.24787 0.87053 0.0
C546 C 0.06886 0.23162 0.90341 0.0
C547 C 0.04133 0.33738 0.87467 0.0
O548 O 0.09661 0.24841 0.85164 0.0
O549 O 0.06317 0.21146 0.83547 0.0
C550 C 0.0454 0.15349 0.87503 0.0
O551 O 0.06816 0.21531 0.89096 0.0
O552 O 0.07487 0.26839 0.90471 0.0
O553 O 0.07681 0.34053 0.87934 0.0
O554 O 0.02614 0.30269 0.87246 0.0
O555 O 0.03324 0.15059 0.86207 0.0
O556 O 0.05621 0.18752 0.88031 0.0
O557 O 1.00263 0.27399 0.8653 0.0
O558 O 0.97518 0.22695 0.85146 0.0
C559 C 0.97242 0.2593 0.85815 0.0
O560 O 0.12106 0.26309 0.86306 0.0
O561 O 0.15308 0.2753 0.88378 0.0
C562 C 0.09194 0.234 0.8389 0.0
C563 C 0.15371 0.26912 0.87054 0.0
H564 H 0.28752 0.42189 0.09669 0.0
H565 H 0.17404 0.63 0.09824 0.0
H566 H 0.16875 0.4379 0.07856 0.0
H567 H 0.28359 0.60508 0.1221 0.0
H568 H 0.17508 0.56286 0.08794 0.0
H569 H 0.28944 0.49162 0.10357 0.0
C570 C 0.2617 0.43996 0.09423 0.0
C571 C 0.22778 0.42371 0.08715 0.0
C572 C 0.19909 0.57232 0.0953 0.0
C573 C 0.23006 0.50419 0.09481 0.0
C574 C 0.19873 0.61076 0.10102 0.0
C575 C 0.22884 0.62312 0.11095 0.0
C576 C 0.2299 0.54628 0.09956 0.0
C577 C 0.25967 0.59667 0.11452 0.0
C578 C 0.26294 0.47995 0.09807 0.0
C579 C 0.19565 0.44908 0.08392 0.0
N580 N 0.25933 0.55957 0.10888 0.0
N581 N 0.19752 0.488 0.08782 0.0
H582 H 0.88886 0.8279 0.35257 0.0
H583 H 0.68122 0.71501 0.34968 0.0
H584 H 0.8586 0.7351 0.32203 0.0
H585 H 0.70568 0.82376 0.37294 0.0
H586 H 0.7464 0.7194 0.33993 0.0
H587 H 0.82284 0.82326 0.36127 0.0
C588 C 0.86843 0.80626 0.34778 0.0
C589 C 0.87932 0.78182 0.33657 0.0
C590 C 0.73731 0.74243 0.34709 0.0
C591 C 0.80333 0.77663 0.34637 0.0
C592 C 0.69996 0.74014 0.35254 0.0
C593 C 0.68771 0.76937 0.36197 0.0
C594 C 0.76278 0.77379 0.35133 0.0
C595 C 0.71381 0.80056 0.36569 0.0
C596 C 0.83058 0.80387 0.35266 0.0
C597 C 0.85132 0.75476 0.33061 0.0
N598 N 0.75005 0.80185 0.36042 0.0
N599 N 0.81463 0.75282 0.3356 0.0
H600 H 0.75544 0.56064 0.61155 0.0
H601 H 0.79127 0.33026 0.60425 0.0
H602 H 0.831 0.50788 0.58149 0.0
H603 H 0.71009 0.38351 0.63205 0.0
H604 H 0.82212 0.39529 0.60133 0.0
H605 H 0.755 0.49789 0.62447 0.0
C606 C 0.77294 0.53623 0.60791 0.0
C607 C 0.7925 0.53923 0.59522 0.0
C608 C 0.79842 0.39258 0.60846 0.0
C609 C 0.79134 0.46691 0.60976 0.0
C610 C 0.78124 0.35533 0.61028 0.0
C611 C 0.74836 0.35172 0.61846 0.0
C612 C 0.78208 0.42629 0.61471 0.0
C613 C 0.73553 0.38527 0.62568 0.0
C614 C 0.77242 0.50022 0.61523 0.0
C615 C 0.81462 0.50652 0.59102 0.0
N616 N 0.75195 0.42127 0.62346 0.0
N617 N 0.81277 0.4715 0.59808 0.0
H618 H 0.77107 0.38833 0.82553 0.0
H619 H 0.9042 0.22402 0.86386 0.0
H620 H 0.72463 0.2877 0.84731 0.0
H621 H 0.95192 0.3365 0.85173 0.0
H622 H 0.83779 0.2504 0.85984 0.0
H623 H 0.83655 0.37407 0.83672 0.0
C624 C 0.77452 0.36357 0.83282 0.0
C625 C 0.74234 0.33884 0.83533 0.0
C626 C 0.86261 0.26972 0.85826 0.0
C627 C 0.81723 0.32231 0.84812 0.0
C628 C 0.90053 0.25462 0.86056 0.0
C629 C 0.93337 0.27816 0.85808 0.0
C630 C 0.85731 0.30844 0.85304 0.0
C631 C 0.9272 0.31757 0.85383 0.0
C632 C 0.81189 0.35557 0.83926 0.0
C633 C 0.74844 0.30762 0.84506 0.0
N634 N 0.88976 0.33134 0.85117 0.0
N635 N 0.78521 0.29991 0.85091 0.0
H636 H 0.01701 0.58568 0.87163 0.0
H637 H 0.97011 0.35736 0.88486 0.0
H638 H 0.94804 0.54326 0.90552 0.0
H639 H 0.06255 0.40129 0.85974 0.0
H640 H 0.94443 0.42535 0.88652 0.0
H641 H 0.01566 0.51898 0.86128 0.0
C642 C 1.00058 0.56262 0.87666 0.0
C643 C 0.98324 0.56984 0.8896 0.0
C644 C 0.96968 0.41987 0.88031 0.0
C645 C 0.98214 0.49331 0.87796 0.0
C646 C 0.98407 0.38111 0.87928 0.0
C647 C 0.01861 0.3741 0.87227 0.0
C648 C 0.98997 0.45137 0.87421 0.0
C649 C 0.03598 0.40575 0.86533 0.0
C650 C 1.00007 0.52445 0.87081 0.0
C651 C 0.96251 0.53872 0.89569 0.0
N652 N 0.02178 0.44307 0.86661 0.0
N653 N 0.96308 0.50165 0.88996 0.0
H654 H 0.90646 0.73389 0.17008 0.0
H655 H 0.05215 0.84185 0.11876 0.0
H656 H 0.87419 0.8371 0.14499 0.0
H657 H 0.07828 0.72947 0.13893 0.0
H658 H 0.98739 0.84122 0.12868 0.0
H659 H 0.96974 0.73201 0.15908 0.0
C660 C 0.91262 0.75604 0.16218 0.0
C661 C 0.88506 0.78587 0.15851 0.0
C662 C 0.00732 0.81677 0.13102 0.0
C663 C 0.9576 0.78392 0.14588 0.0
C664 C 0.04435 0.81715 0.12539 0.0
C665 C 0.071 0.78606 0.12829 0.0
C666 C 0.99667 0.78496 0.1396 0.0
C667 C 0.05917 0.75464 0.13681 0.0
C668 C 0.94874 0.75489 0.15589 0.0
C669 C 0.89442 0.81345 0.14807 0.0
N670 N 0.02294 0.75495 0.14221 0.0
N671 N 0.93002 0.81201 0.14222 0.0
H672 H 0.56916 0.38278 0.39096 0.0
H673 H 0.5362 0.61672 0.40096 0.0
H674 H 0.53674 0.43452 0.4307 0.0
H675 H 0.5736 0.56169 0.36255 0.0
H676 H 0.53782 0.55138 0.4126 0.0
H677 H 0.57066 0.44891 0.38058 0.0
C678 C 0.56201 0.40801 0.39748 0.0
C679 C 0.55277 0.40292 0.41173 0.0
C680 C 0.54599 0.55376 0.40166 0.0
C681 C 0.55498 0.47925 0.39994 0.0
C682 C 0.54555 0.59113 0.3951 0.0
C683 C 0.55511 0.59476 0.38083 0.0
C684 C 0.55591 0.51991 0.39382 0.0
C685 C 0.5658 0.56033 0.37356 0.0
C686 C 0.5632 0.44591 0.39159 0.0
C687 C 0.54446 0.43699 0.41971 0.0
N688 N 0.56578 0.52453 0.38009 0.0
N689 N 0.54571 0.47366 0.41372 0.0
H690 H 0.01487 0.33397 0.63083 0.0
H691 H 0.81734 0.25211 0.66291 0.0
H692 H 0.00337 0.29301 0.67394 0.0
H693 H 0.82307 0.27509 0.61791 0.0
H694 H 0.88419 0.27661 0.66705 0.0
H695 H 0.94417 0.31955 0.62551 0.0
C696 C 0.99758 0.32218 0.63915 0.0
C697 C 0.01499 0.3155 0.65293 0.0
C698 C 0.87103 0.27668 0.65623 0.0
C699 C 0.93465 0.29925 0.64699 0.0
C700 C 0.83271 0.26278 0.65389 0.0
C701 C 0.81481 0.26152 0.64006 0.0
C702 C 0.89221 0.28894 0.64462 0.0
C703 C 0.8359 0.27602 0.62876 0.0
C704 C 0.95731 0.31414 0.63614 0.0
C705 C 0.99124 0.29993 0.66329 0.0
N706 N 0.87386 0.28876 0.63125 0.0
N707 N 0.95259 0.29252 0.66011 0.0
H708 H 0.4003 0.2164 0.67084 0.0
H709 H 0.53837 0.30839 0.61344 0.0
H710 H 0.36324 0.30931 0.64152 0.0
H711 H 0.57081 0.20663 0.63926 0.0
H712 H 0.47357 0.30821 0.62329 0.0
H713 H 0.46226 0.21115 0.6591 0.0
C714 C 0.40511 0.2355 0.66185 0.0
C715 C 0.37669 0.26356 0.65722 0.0
C716 C 0.49486 0.28596 0.62685 0.0
C717 C 0.4476 0.25777 0.64373 0.0
C718 C 0.53189 0.28607 0.62124 0.0
C719 C 0.56038 0.25806 0.62582 0.0
C720 C 0.48612 0.25757 0.6371 0.0
C721 C 0.55026 0.22964 0.63584 0.0
C722 C 0.44045 0.23244 0.65514 0.0
C723 C 0.38422 0.28713 0.64539 0.0
N724 N 0.51403 0.23024 0.64122 0.0
N725 N 0.41911 0.28397 0.63915 0.0
H726 H 0.50362 0.89022 0.16468 0.0
H727 H 0.33061 0.79226 0.11517 0.0
H728 H 0.52858 0.80332 0.13256 0.0
H729 H 0.32591 0.80589 0.16074 0.0
H730 H 0.39844 0.81886 0.11695 0.0
H731 H 0.43327 0.88218 0.15834 0.0
C732 C 0.49447 0.86981 0.15617 0.0
C733 C 0.52224 0.84646 0.14947 0.0
C734 C 0.38208 0.81675 0.12646 0.0
C735 C 0.44164 0.83839 0.14187 0.0
C736 C 0.34348 0.80191 0.12546 0.0
C737 C 0.32296 0.79682 0.13785 0.0
C738 C 0.39948 0.82755 0.13988 0.0
C739 C 0.34092 0.80927 0.15096 0.0
C740 C 0.45431 0.8655 0.15253 0.0
C741 C 0.50842 0.82174 0.13811 0.0
N742 N 0.37817 0.82409 0.15164 0.0
N743 N 0.46898 0.81797 0.13477 0.0
H744 H 0.4017 0.25542 0.85482 0.0
H745 H 0.17233 0.31127 0.84725 0.0
H746 H 0.34953 0.3299 0.82145 0.0
H747 H 0.22242 0.23335 0.87968 0.0
H748 H 0.23663 0.31636 0.83704 0.0
H749 H 0.33644 0.24617 0.86397 0.0
C750 C 0.37659 0.27 0.84946 0.0
C751 C 0.38119 0.29344 0.83732 0.0
C752 C 0.23358 0.29763 0.84626 0.0
C753 C 0.30627 0.28263 0.84766 0.0
C754 C 0.19662 0.29408 0.85185 0.0
C755 C 0.1918 0.27054 0.86386 0.0
C756 C 0.26618 0.27801 0.85294 0.0
C757 C 0.22493 0.25132 0.87023 0.0
C758 C 0.33928 0.26447 0.85463 0.0
C759 C 0.34742 0.31112 0.8307 0.0
N760 N 0.26074 0.25544 0.86469 0.0
N761 N 0.3115 0.3054 0.83596 0.0
H762 H 0.27035 0.87082 0.32741 0.0
H763 H 0.40318 0.69641 0.35917 0.0
H764 H 0.22319 0.76446 0.3453 0.0
H765 H 0.45051 0.81303 0.35255 0.0
H766 H 0.33668 0.72285 0.35543 0.0
H767 H 0.33582 0.85313 0.33786 0.0
C768 C 0.27366 0.84405 0.33372 0.0
C769 C 0.2413 0.81884 0.33535 0.0
C770 C 0.36146 0.74295 0.355 0.0
C771 C 0.31613 0.7983 0.34722 0.0
C772 C 0.39943 0.72781 0.3571 0.0
C773 C 0.43226 0.75264 0.35616 0.0
C774 C 0.3561 0.78315 0.35159 0.0
C775 C 0.42588 0.79307 0.35351 0.0
C776 C 0.31101 0.83406 0.33971 0.0
C777 C 0.24719 0.78483 0.34378 0.0
N778 N 0.38846 0.80703 0.35107 0.0
N779 N 0.28395 0.77526 0.34919 0.0
H780 H 0.70503 0.88323 0.60733 0.0
H781 H 0.72299 0.11565 0.59101 0.0
H782 H 0.73482 0.9265 0.56611 0.0
H783 H 0.68226 0.06558 0.62971 0.0
H784 H 0.72573 0.04814 0.58085 0.0
H785 H 0.69643 0.95119 0.61523 0.0
C786 C 0.71007 0.90709 0.59996 0.0
C787 C 0.72098 0.89906 0.58608 0.0
C788 C 0.71585 0.05215 0.59151 0.0
C789 C 0.71066 0.9776 0.59502 0.0
C790 C 0.71394 0.09065 0.59723 0.0
C791 C 0.70251 0.09619 0.61122 0.0
C792 C 0.7063 0.01932 0.5999 0.0
C793 C 0.69172 0.06272 0.61894 0.0
C794 C 0.70481 0.94604 0.60443 0.0
C795 C 0.72622 0.93134 0.5769 0.0
N796 N 0.6941 0.02596 0.61323 0.0
N797 N 0.72122 0.96924 0.58155 0.0
H798 H 0.3366 0.038 0.07948 0.0
H799 H 0.23131 0.89717 0.13246 0.0
H800 H 0.25841 0.07776 0.11101 0.0
H801 H 0.29276 0.85764 0.09628 0.0
H802 H 0.26113 0.96296 0.1304 0.0
H803 H 0.3409 0.97334 0.09115 0.0
C804 C 0.32121 0.03341 0.08911 0.0
C805 C 0.29638 0.0629 0.09411 0.0
C806 C 0.26919 0.9396 0.1232 0.0
C807 C 0.30063 0.98885 0.10738 0.0
C808 C 0.25248 0.90201 0.12447 0.0
C809 C 0.25977 0.87231 0.11451 0.0
C810 C 0.29277 0.94745 0.11174 0.0
C811 C 0.28666 0.87996 0.10417 0.0
C812 C 0.32359 0.99648 0.09575 0.0
C813 C 0.2776 0.0557 0.10674 0.0
N814 N 0.30169 0.91706 0.10288 0.0
N815 N 0.27935 0.01905 0.11276 0.0
H816 H 0.50451 0.05733 0.37251 0.0
H817 H 0.46779 0.83667 0.39549 0.0
H818 H 0.43792 0.02404 0.40825 0.0
H819 H 0.52577 0.86835 0.35765 0.0
H820 H 0.44196 0.90418 0.39679 0.0
H821 H 0.49876 0.98919 0.36348 0.0
C822 C 0.4877 0.03597 0.37823 0.0
C823 C 0.47236 0.04614 0.3913 0.0
C824 C 0.45929 0.8962 0.38791 0.0
C825 C 0.46627 0.96794 0.38121 0.0
C826 C 0.47358 0.8575 0.3871 0.0
C827 C 0.49853 0.84709 0.37639 0.0
C828 C 0.47113 0.92491 0.37818 0.0
C829 C 0.50618 0.87531 0.36598 0.0
C830 C 0.48461 0.99696 0.37313 0.0
C831 C 0.45098 0.0172 0.3983 0.0
N832 N 0.49326 0.91322 0.3673 0.0
N833 N 0.44919 0.97934 0.39332 0.0
H834 H 0.99976 0.91602 0.90349 0.0
H835 H 0.09861 0.13111 0.89691 0.0
H836 H 0.11417 0.9456 0.92328 0.0
H837 H 0.99412 0.0921 0.87244 0.0
H838 H 0.10158 0.06644 0.90907 0.0
H839 H 0.99462 0.98302 0.89391 0.0
C840 C 0.02397 0.93645 0.90575 0.0
C841 C 0.05756 0.92484 0.91416 0.0
C842 C 0.0778 0.07226 0.90113 0.0
C843 C 0.05152 1.00231 0.90339 0.0
C844 C 0.07587 0.1093 0.89436 0.0
C845 C 0.04599 0.11701 0.88376 0.0
C846 C 0.0495 0.04297 0.89727 0.0
C847 C 0.0178 0.08733 0.88051 0.0
C848 C 0.02087 0.97492 0.90037 0.0
C849 C 0.08752 0.9532 0.91698 0.0
N850 N 0.0203 0.05174 0.88719 0.0
N851 N 0.08384 0.99054 0.91159 0.0
H852 H 0.17056 0.16531 0.98322 0.0
H853 H 0.01335 0.23605 0.92272 0.0
H854 H 0.06523 0.23117 0.99091 0.0
H855 H 0.12279 0.17909 0.91439 0.0
H856 H 0.02303 0.21748 0.94787 0.0
H857 H 0.14549 0.15436 0.95853 0.0
C858 C 0.14182 0.17685 0.9798 0.0
C859 C 0.12025 0.19982 0.98907 0.0
C860 C 0.04438 0.20786 0.9405 0.0
C861 C 0.09157 0.1877 0.96078 0.0
C862 C 0.03858 0.21807 0.92613 0.0
C863 C 0.06707 0.20851 0.91654 0.0
C864 C 0.07948 0.18891 0.94532 0.0
C865 C 0.09975 0.18611 0.92144 0.0
C866 C 0.12758 0.17069 0.96568 0.0
C867 C 0.08328 0.21416 0.98402 0.0
N868 N 0.1055 0.17769 0.93558 0.0
N869 N 0.07034 0.20827 0.97018 0.0
H870 H 0.06995 0.85759 0.22097 0.0
H871 H 0.13108 0.68724 0.17106 0.0
H872 H 0.02027 0.74045 0.22397 0.0
H873 H 0.12853 0.80826 0.15642 0.0
H874 H 0.08893 0.70583 0.19023 0.0
H875 H 0.09011 0.84131 0.197 0.0
C876 C 0.06265 0.82873 0.21643 0.0
C877 C 0.04366 0.80021 0.22441 0.0
C878 C 0.09691 0.72818 0.18265 0.0
C879 C 0.06725 0.78114 0.19727 0.0
C880 C 0.12104 0.71761 0.17178 0.0
C881 C 0.13325 0.74634 0.16226 0.0
C882 C 0.08604 0.76801 0.18426 0.0
C883 C 0.11959 0.78529 0.16359 0.0
C884 C 0.07401 0.81949 0.20277 0.0
C885 C 0.03478 0.76325 0.21811 0.0
N886 N 0.09728 0.79523 0.17459 0.0
N887 N 0.04738 0.75445 0.205 0.0
H888 H 0.57412 0.70242 0.48948 0.0
H889 H 0.52035 0.68545 0.41871 0.0
H890 H 0.68024 0.63875 0.48122 0.0
H891 H 0.64443 0.66739 0.41464 0.0
H892 H 0.52839 0.66481 0.44372 0.0
H893 H 0.54958 0.69075 0.46491 0.0
C894 C 0.59193 0.68532 0.48252 0.0
C895 C 0.6295 0.67207 0.48732 0.0
C896 C 0.55385 0.66478 0.43736 0.0
C897 C 0.60124 0.65754 0.45913 0.0
C898 C 0.54902 0.67566 0.423 0.0
C899 C 0.58182 0.67801 0.41474 0.0
C900 C 0.592 0.65747 0.44348 0.0
C901 C 0.61847 0.66571 0.42074 0.0
C902 C 0.57763 0.67804 0.46849 0.0
C903 C 0.65112 0.64955 0.47794 0.0
N904 N 0.62275 0.65665 0.43485 0.0
N905 N 0.63702 0.64371 0.46421 0.0
H906 H 0.57344 0.35436 0.72022 0.0
H907 H 0.61723 0.1743 0.67204 0.0
H908 H 0.51521 0.24202 0.7252 0.0
H909 H 0.62112 0.29297 0.65528 0.0
H910 H 0.57837 0.19843 0.69134 0.0
H911 H 0.59039 0.33381 0.69624 0.0
C912 C 0.5637 0.32565 0.71615 0.0
C913 C 0.54314 0.29971 0.72469 0.0
C914 C 0.58702 0.21911 0.6833 0.0
C915 C 0.56284 0.27587 0.69749 0.0
C916 C 0.60925 0.20537 0.67232 0.0
C917 C 0.62253 0.23182 0.66219 0.0
C918 C 0.57916 0.25981 0.68439 0.0
C919 C 0.61139 0.27174 0.66295 0.0
C920 C 0.57316 0.31403 0.70247 0.0
C921 C 0.53101 0.26291 0.71893 0.0
N922 N 0.59106 0.28479 0.6741 0.0
N923 N 0.54171 0.25175 0.70579 0.0
H924 H 0.18947 0.70362 0.0012 0.0
H925 H 0.13099 0.67072 0.08037 0.0
H926 H 0.08766 0.63608 0.01192 0.0
H927 H 0.2394 0.72556 0.06941 0.0
H928 H 0.12129 0.64531 0.0559 0.0
H929 H 0.21416 0.70143 0.0262 0.0
C930 C 0.17249 0.68805 0.00883 0.0
C931 C 0.1362 0.67055 0.00455 0.0
C932 C 0.1479 0.66177 0.05893 0.0
C933 C 0.16413 0.66796 0.03322 0.0
C934 C 0.15365 0.67575 0.07295 0.0
C935 C 0.18625 0.69971 0.07684 0.0
C936 C 0.17449 0.67284 0.04874 0.0
C937 C 0.21414 0.70672 0.06678 0.0
C938 C 0.18669 0.68655 0.02309 0.0
C939 C 0.11574 0.65007 0.0148 0.0
N940 N 0.20729 0.69397 0.0531 0.0
N941 N 0.12966 0.6499 0.02871 0.0
H942 H 0.7143 0.73983 0.26105 0.0
H943 H 0.62715 0.7919 0.33603 0.0
H944 H 0.67114 0.85571 0.27166 0.0
H945 H 0.62129 0.67602 0.31645 0.0
H946 H 0.66431 0.81596 0.31613 0.0
H947 H 0.70187 0.7173 0.28518 0.0
C948 C 0.70324 0.7608 0.2686 0.0
C949 C 0.69325 0.79951 0.26437 0.0
C950 C 0.65547 0.78511 0.31636 0.0
C951 C 0.67886 0.77398 0.29182 0.0
C952 C 0.63447 0.77138 0.32769 0.0
C953 C 0.62102 0.73206 0.32774 0.0
C954 C 0.66323 0.75917 0.30514 0.0
C955 C 0.6309 0.70665 0.31668 0.0
C956 C 0.69592 0.74787 0.28229 0.0
C957 C 0.6787 0.82545 0.2745 0.0
N958 N 0.65127 0.72069 0.30577 0.0
N959 N 0.67156 0.81211 0.28775 0.0
H960 H 0.68543 0.1897 0.49962 0.0
H961 H 0.64298 0.14438 0.58048 0.0
H962 H 0.58777 0.11853 0.51201 0.0
H963 H 0.73193 0.22478 0.56706 0.0
H964 H 0.63319 0.12001 0.55576 0.0
H965 H 0.71268 0.18913 0.52431 0.0
C966 C 0.66987 0.17373 0.50755 0.0
C967 C 0.63393 0.15479 0.50383 0.0
C968 C 0.65563 0.1422 0.55831 0.0
C969 C 0.66488 0.15399 0.53216 0.0
C970 C 0.66147 0.15573 0.57242 0.0
C971 C 0.6881 0.18668 0.57566 0.0
C972 C 0.67657 0.16 0.54753 0.0
C973 C 0.71099 0.20095 0.56489 0.0
C974 C 0.68552 0.1732 0.52164 0.0
C975 C 0.61547 0.13369 0.51445 0.0
N976 N 0.70433 0.18791 0.55126 0.0
N977 N 0.63082 0.1344 0.5282 0.0
H978 H 0.21111 0.25092 0.76101 0.0
H979 H 0.11043 0.30963 0.83278 0.0
H980 H 0.17043 0.36853 0.77058 0.0
H981 H 0.12841 0.18916 0.81933 0.0
H982 H 0.14651 0.3331 0.81266 0.0
H983 H 0.19598 0.2298 0.785 0.0
C984 C 0.19995 0.27256 0.7683 0.0
C985 C 0.19157 0.31142 0.76378 0.0
C986 C 0.14316 0.3015 0.81421 0.0
C987 C 0.17361 0.28732 0.79108 0.0
C988 C 0.12287 0.28815 0.82572 0.0
C989 C 0.11727 0.24752 0.82777 0.0
C990 C 0.15732 0.27393 0.80453 0.0
C991 C 0.13259 0.22077 0.81812 0.0
C992 C 0.19098 0.26038 0.78193 0.0
C993 C 0.17675 0.33814 0.77359 0.0
N994 N 0.15187 0.23446 0.80685 0.0
N995 N 0.16784 0.32548 0.78673 0.0
loop_
_geom_bond_atom_site_label_1
_geom_bond_atom_site_label_2
_geom_bond_distance
_geom_bond_site_symmetry_2
_ccdc_geom_bond_type
C0 C1 1.391 . S
C0 C4 1.391 . S
C0 H42 0.948 . S
C1 C0 1.391 . S
C1 C2 1.391 . S
C2 C1 1.391 . S
C2 H58 0.947 . S
C2 C59 1.392 . S
C3 C4 1.391 . S
C3 C7 1.397 . S
C3 C59 1.419 . S
C4 C0 1.391 . S
C4 C3 1.391 . S
C4 C5 1.399 . S
C5 C4 1.399 . S
C5 C8 1.396 . S
C5 C17 1.453 . S
C5 C18 1.684 . S
H6 C30 0.948 . S
C7 C3 1.397 . S
C7 C8 1.394 . S
C7 C26 1.723 . S
C8 C5 1.396 . S
C8 C7 1.394 . S
C8 C38 1.723 . S
H9 C32 0.947 . S
H10 C33 0.948 . S
H11 C39 0.982 . S
H12 C40 0.979 . S
H13 C40 0.980 . S
H14 C40 0.983 . S
H15 C39 0.979 . S
H16 C39 0.977 . S
C17 C5 1.453 . S
C17 H46 0.982 . S
C17 H47 0.979 . S
C17 H48 0.977 . S
C18 C5 1.684 . S
C18 H43 0.979 . S
C18 H44 0.980 . S
C18 H45 0.983 . S
C19 C20 1.391 . S
C19 C24 1.391 . S
C19 H49 0.948 . S
C20 C19 1.391 . S
C20 C21 1.391 . S
C21 C20 1.391 . S
C21 C22 1.392 . S
C21 H50 0.947 . S
C22 C21 1.392 . S
C22 C23 1.419 . S
C22 H51 0.948 . S
C23 C22 1.419 . S
C23 C24 1.391 . S
C23 C27 1.397 . S
C24 C19 1.391 . S
C24 C23 1.391 . S
C24 C25 1.399 . S
C25 C24 1.399 . S
C25 C26 1.396 . S
C25 C28 1.453 . S
C25 C29 1.684 . S
C26 C7 1.723 . S
C26 C25 1.396 . S
C26 C27 1.394 . S
C27 C23 1.397 . S
C27 C26 1.394 . S
C27 C37 1.723 . S
C28 C25 1.453 . S
C28 H52 0.982 . S
C28 H53 0.979 . S
C28 H54 0.977 . S
C29 C25 1.684 . S
C29 H55 0.979 . S
C29 H56 0.980 . S
C29 H57 0.983 . S
C30 H6 0.948 . S
C30 C31 1.391 . S
C30 C35 1.391 . S
C31 C30 1.391 . S
C31 C32 1.391 . S
C32 H9 0.947 . S
C32 C31 1.391 . S
C32 C33 1.392 . S
C33 H10 0.948 . S
C33 C32 1.392 . S
C33 C34 1.419 . S
C34 C33 1.419 . S
C34 C35 1.391 . S
C34 C38 1.397 . S
C35 C30 1.391 . S
C35 C34 1.391 . S
C35 C36 1.399 . S
C36 C35 1.399 . S
C36 C37 1.396 . S
C36 C39 1.453 . S
C36 C40 1.684 . S
C37 C27 1.723 . S
C37 C36 1.396 . S
C37 C38 1.394 . S
C38 C8 1.723 . S
C38 C34 1.397 . S
C38 C37 1.394 . S
C39 H11 0.982 . S
C39 H15 0.979 . S
C39 H16 0.977 . S
C39 C36 1.453 . S
C40 H12 0.979 . S
C40 H13 0.980 . S
C40 H14 0.983 . S
C40 C36 1.684 . S
H41 C59 0.948 . S
H42 C0 0.948 . S
H43 C18 0.979 . S
H44 C18 0.980 . S
H45 C18 0.983 . S
H46 C17 0.982 . S
H47 C17 0.979 . S
H48 C17 0.977 . S
H49 C19 0.948 . S
H50 C21 0.947 . S
H51 C22 0.948 . S
H52 C28 0.982 . S
H53 C28 0.979 . S
H54 C28 0.977 . S
H55 C29 0.979 . S
H56 C29 0.980 . S
H57 C29 0.983 . S
H58 C2 0.947 . S
C59 C2 1.392 . S
C59 C3 1.419 . S
C59 H41 0.948 . S
C60 C61 1.391 . S
C60 C64 1.391 . S
C60 H102 0.948 . S
C61 C60 1.391 . S
C61 C62 1.391 . S
C62 C61 1.391 . S
C62 H118 0.947 . S
C62 C119 1.392 . S
C63 C64 1.391 . S
C63 C67 1.397 . S
C63 C119 1.419 . S
C64 C60 1.391 . S
C64 C63 1.391 . S
C64 C65 1.399 . S
C65 C64 1.399 . S
C65 C68 1.396 . S
C65 C77 1.453 . S
C65 C78 1.684 . S
H66 C90 0.948 . S
C67 C63 1.397 . S
C67 C68 1.394 . S
C67 C86 1.723 . S
C68 C65 1.396 . S
C68 C67 1.394 . S
C68 C98 1.723 . S
H69 C92 0.947 . S
H70 C93 0.948 . S
H71 C99 0.982 . S
H72 C100 0.979 . S
H73 C100 0.980 . S
H74 C100 0.983 1_655 S
H75 C99 0.979 1_655 S
H76 C99 0.977 . S
C77 C65 1.453 . S
C77 H106 0.982 . S
C77 H107 0.979 . S
C77 H108 0.977 . S
C78 C65 1.684 . S
C78 H103 0.979 . S
C78 H104 0.980 . S
C78 H105 0.983 . S
C79 C80 1.391 . S
C79 C84 1.391 . S
C79 H109 0.948 . S
C80 C79 1.391 . S
C80 C81 1.391 . S
C81 C80 1.391 . S
C81 C82 1.392 . S
C81 H110 0.947 . S
C82 C81 1.392 . S
C82 C83 1.419 . S
C82 H111 0.948 . S
C83 C82 1.419 . S
C83 C84 1.391 . S
C83 C87 1.397 . S
C84 C79 1.391 . S
C84 C83 1.391 . S
C84 C85 1.399 . S
C85 C84 1.399 . S
C85 C86 1.396 . S
C85 C88 1.453 . S
C85 C89 1.684 . S
C86 C67 1.723 . S
C86 C85 1.396 . S
C86 C87 1.394 . S
C87 C83 1.397 . S
C87 C86 1.394 . S
C87 C97 1.723 . S
C88 C85 1.453 . S
C88 H112 0.982 . S
C88 H113 0.979 . S
C88 H114 0.977 . S
C89 C85 1.684 . S
C89 H115 0.979 . S
C89 H116 0.980 . S
C89 H117 0.983 . S
C90 H66 0.948 . S
C90 C91 1.391 . S
C90 C95 1.391 1_655 S
C91 C90 1.391 . S
C91 C92 1.391 1_655 S
C92 H69 0.947 . S
C92 C91 1.391 1_455 S
C92 C93 1.392 . S
C93 H70 0.948 . S
C93 C92 1.392 . S
C93 C94 1.419 . S
C94 C93 1.419 . S
C94 C95 1.391 . S
C94 C98 1.397 . S
C95 C90 1.391 1_455 S
C95 C94 1.391 . S
C95 C96 1.399 . S
C96 C95 1.399 . S
C96 C97 1.396 . S
C96 C99 1.453 . S
C96 C100 1.684 . S
C97 C87 1.723 . S
C97 C96 1.396 . S
C97 C98 1.394 . S
C98 C68 1.723 . S
C98 C94 1.397 . S
C98 C97 1.394 . S
C99 H71 0.982 . S
C99 H75 0.979 1_455 S
C99 H76 0.977 . S
C99 C96 1.453 . S
C100 H72 0.979 . S
C100 H73 0.980 . S
C100 H74 0.983 1_455 S
C100 C96 1.684 . S
H101 C119 0.948 . S
H102 C60 0.948 . S
H103 C78 0.979 . S
H104 C78 0.980 . S
H105 C78 0.983 . S
H106 C77 0.982 . S
H107 C77 0.979 . S
H108 C77 0.977 . S
H109 C79 0.948 . S
H110 C81 0.947 . S
H111 C82 0.948 . S
H112 C88 0.982 . S
H113 C88 0.979 . S
H114 C88 0.977 . S
H115 C89 0.979 . S
H116 C89 0.980 . S
H117 C89 0.983 . S
H118 C62 0.947 . S
C119 C62 1.392 . S
C119 C63 1.419 . S
C119 H101 0.948 . S
C120 C121 1.391 . S
C120 C124 1.391 . S
C120 H162 0.948 . S
C121 C120 1.391 . S
C121 C122 1.391 . S
C122 C121 1.391 . S
C122 H178 0.947 . S
C122 C179 1.392 . S
C123 C124 1.391 . S
C123 C127 1.397 . S
C123 C179 1.419 . S
C124 C120 1.391 . S
C124 C123 1.391 . S
C124 C125 1.399 . S
C125 C124 1.399 . S
C125 C128 1.396 . S
C125 C137 1.453 . S
C125 C138 1.684 . S
H126 C150 0.948 . S
C127 C123 1.397 . S
C127 C128 1.394 . S
C127 C146 1.723 . S
C128 C125 1.396 . S
C128 C127 1.394 . S
C128 C158 1.723 . S
H129 C152 0.947 . S
H130 C153 0.948 . S
H131 C159 0.982 . S
H132 C160 0.979 . S
H133 C160 0.980 . S
H134 C160 0.983 . S
H135 C159 0.979 . S
H136 C159 0.977 . S
C137 C125 1.453 . S
C137 H166 0.982 . S
C137 H167 0.979 . S
C137 H168 0.977 . S
C138 C125 1.684 . S
C138 H163 0.979 . S
C138 H164 0.980 . S
C138 H165 0.983 . S
C139 C140 1.391 . S
C139 C144 1.391 . S
C139 H169 0.948 . S
C140 C139 1.391 . S
C140 C141 1.391 . S
C141 C140 1.391 . S
C141 C142 1.392 . S
C141 H170 0.947 . S
C142 C141 1.392 . S
C142 C143 1.419 . S
C142 H171 0.948 . S
C143 C142 1.419 . S
C143 C144 1.391 . S
C143 C147 1.397 . S
C144 C139 1.391 . S
C144 C143 1.391 . S
C144 C145 1.399 . S
C145 C144 1.399 . S
C145 C146 1.396 . S
C145 C148 1.453 . S
C145 C149 1.684 . S
C146 C127 1.723 . S
C146 C145 1.396 . S
C146 C147 1.394 . S
C147 C143 1.397 . S
C147 C146 1.394 . S
C147 C157 1.723 . S
C148 C145 1.453 . S
C148 H172 0.982 . S
C148 H173 0.979 . S
C148 H174 0.977 . S
C149 C145 1.684 . S
C149 H175 0.979 . S
C149 H176 0.980 . S
C149 H177 0.983 . S
C150 H126 0.948 . S
C150 C151 1.391 . S
C150 C155 1.391 . S
C151 C150 1.391 . S
C151 C152 1.391 . S
C152 H129 0.947 . S
C152 C151 1.391 . S
C152 C153 1.392 . S
C153 H130 0.948 . S
C153 C152 1.392 . S
C153 C154 1.419 . S
C154 C153 1.419 . S
C154 C155 1.391 . S
C154 C158 1.397 . S
C155 C150 1.391 . S
C155 C154 1.391 . S
C155 C156 1.399 . S
C156 C155 1.399 . S
C156 C157 1.396 . S
C156 C159 1.453 . S
C156 C160 1.684 . S
C157 C147 1.723 . S
C157 C156 1.396 . S
C157 C158 1.394 . S
C158 C128 1.723 . S
C158 C154 1.397 . S
C158 C157 1.394 . S
C159 H131 0.982 . S
C159 H135 0.979 . S
C159 H136 0.977 . S
C159 C156 1.453 . S
C160 H132 0.979 . S
C160 H133 0.980 . S
C160 H134 0.983 . S
C160 C156 1.684 . S
H161 C179 0.948 . S
H162 C120 0.948 . S
H163 C138 0.979 . S
H164 C138 0.980 . S
H165 C138 0.983 . S
H166 C137 0.982 . S
H167 C137 0.979 . S
H168 C137 0.977 . S
H169 C139 0.948 . S
H170 C141 0.947 . S
H171 C142 0.948 . S
H172 C148 0.982 . S
H173 C148 0.979 . S
H174 C148 0.977 . S
H175 C149 0.979 . S
H176 C149 0.980 . S
H177 C149 0.983 . S
H178 C122 0.947 . S
C179 C122 1.392 . S
C179 C123 1.419 . S
C179 H161 0.948 . S
C180 C181 1.391 . S
C180 C184 1.391 . S
C180 H222 0.948 . S
C181 C180 1.391 . S
C181 C182 1.391 . S
C182 C181 1.391 . S
C182 H238 0.947 . S
C182 C239 1.392 . S
C183 C184 1.391 . S
C183 C187 1.397 . S
C183 C239 1.419 . S
C184 C180 1.391 . S
C184 C183 1.391 . S
C184 C185 1.399 . S
C185 C184 1.399 . S
C185 C188 1.396 . S
C185 C197 1.453 . S
C185 C198 1.684 . S
H186 C210 0.948 . S
C187 C183 1.397 . S
C187 C188 1.394 . S
C187 C206 1.723 . S
C188 C185 1.396 . S
C188 C187 1.394 . S
C188 C218 1.723 . S
H189 C212 0.947 . S
H190 C213 0.948 . S
H191 C219 0.982 . S
H192 C220 0.979 . S
H193 C220 0.980 . S
H194 C220 0.983 . S
H195 C219 0.979 . S
H196 C219 0.977 . S
C197 C185 1.453 . S
C197 H226 0.982 . S
C197 H227 0.979 . S
C197 H228 0.977 . S
C198 C185 1.684 . S
C198 H223 0.979 . S
C198 H224 0.980 . S
C198 H225 0.983 . S
C199 C200 1.391 . S
C199 C204 1.391 . S
C199 H229 0.948 . S
C200 C199 1.391 . S
C200 C201 1.391 . S
C201 C200 1.391 . S
C201 C202 1.392 . S
C201 H230 0.947 . S
C202 C201 1.392 . S
C202 C203 1.419 . S
C202 H231 0.948 . S
C203 C202 1.419 . S
C203 C204 1.391 . S
C203 C207 1.397 . S
C204 C199 1.391 . S
C204 C203 1.391 . S
C204 C205 1.399 . S
C205 C204 1.399 . S
C205 C206 1.396 . S
C205 C208 1.453 . S
C205 C209 1.684 . S
C206 C187 1.723 . S
C206 C205 1.396 . S
C206 C207 1.394 . S
C207 C203 1.397 . S
C207 C206 1.394 . S
C207 C217 1.723 . S
C208 C205 1.453 . S
C208 H232 0.982 . S
C208 H233 0.979 . S
C208 H234 0.977 . S
C209 C205 1.684 . S
C209 H235 0.979 . S
C209 H236 0.980 . S
C209 H237 0.983 . S
C210 H186 0.948 . S
C210 C211 1.391 . S
C210 C215 1.391 . S
C211 C210 1.391 . S
C211 C212 1.391 . S
C212 H189 0.947 . S
C212 C211 1.391 . S
C212 C213 1.392 . S
C213 H190 0.948 . S
C213 C212 1.392 . S
C213 C214 1.419 . S
C214 C213 1.419 . S
C214 C215 1.391 . S
C214 C218 1.397 . S
C215 C210 1.391 . S
C215 C214 1.391 . S
C215 C216 1.399 . S
C216 C215 1.399 . S
C216 C217 1.396 . S
C216 C219 1.453 . S
C216 C220 1.684 . S
C217 C207 1.723 . S
C217 C216 1.396 . S
C217 C218 1.394 . S
C218 C188 1.723 . S
C218 C214 1.397 . S
C218 C217 1.394 . S
C219 H191 0.982 . S
C219 H195 0.979 . S
C219 H196 0.977 . S
C219 C216 1.453 . S
C220 H192 0.979 . S
C220 H193 0.980 . S
C220 H194 0.983 . S
C220 C216 1.684 . S
H221 C239 0.948 . S
H222 C180 0.948 . S
H223 C198 0.979 . S
H224 C198 0.980 . S
H225 C198 0.983 . S
H226 C197 0.982 . S
H227 C197 0.979 . S
H228 C197 0.977 . S
H229 C199 0.948 . S
H230 C201 0.947 . S
H231 C202 0.948 . S
H232 C208 0.982 . S
H233 C208 0.979 . S
H234 C208 0.977 . S
H235 C209 0.979 . S
H236 C209 0.980 . S
H237 C209 0.983 . S
H238 C182 0.947 . S
C239 C182 1.392 . S
C239 C183 1.419 . S
C239 H221 0.948 . S
C240 C241 1.391 . S
C240 C244 1.391 . S
C240 H282 0.948 . S
C241 C240 1.391 . S
C241 C242 1.391 . S
C242 C241 1.391 . S
C242 H298 0.947 . S
C242 C299 1.392 . S
C243 C244 1.391 . S
C243 C247 1.397 . S
C243 C299 1.419 . S
C244 C240 1.391 . S
C244 C243 1.391 . S
C244 C245 1.399 . S
C245 C244 1.399 . S
C245 C248 1.396 . S
C245 C257 1.453 . S
C245 C258 1.684 . S
H246 C270 0.948 . S
C247 C243 1.397 . S
C247 C248 1.394 . S
C247 C266 1.723 . S
C248 C245 1.396 . S
C248 C247 1.394 . S
C248 C278 1.723 . S
H249 C272 0.947 . S
H250 C273 0.948 . S
H251 C279 0.982 . S
H252 C280 0.979 1_655 S
H253 C280 0.980 . S
H254 C280 0.983 . S
H255 C279 0.979 . S
H256 C279 0.977 . S
C257 C245 1.453 . S
C257 H286 0.982 . S
C257 H287 0.979 . S
C257 H288 0.977 . S
C258 C245 1.684 . S
C258 H283 0.979 1_455 S
C258 H284 0.980 . S
C258 H285 0.983 . S
C259 C260 1.391 . S
C259 C264 1.391 . S
C259 H289 0.948 . S
C260 C259 1.391 . S
C260 C261 1.391 . S
C261 C260 1.391 . S
C261 C262 1.392 . S
C261 H290 0.947 . S
C262 C261 1.392 . S
C262 C263 1.419 . S
C262 H291 0.948 . S
C263 C262 1.419 . S
C263 C264 1.391 . S
C263 C267 1.397 . S
C264 C259 1.391 . S
C264 C263 1.391 . S
C264 C265 1.399 . S
C265 C264 1.399 . S
C265 C266 1.396 . S
C265 C268 1.453 . S
C265 C269 1.684 . S
C266 C247 1.723 . S
C266 C265 1.396 . S
C266 C267 1.394 . S
C267 C263 1.397 . S
C267 C266 1.394 . S
C267 C277 1.723 . S
C268 C265 1.453 . S
C268 H292 0.982 . S
C268 H293 0.979 . S
C268 H294 0.977 . S
C269 C265 1.684 . S
C269 H295 0.979 1_455 S
C269 H296 0.980 . S
C269 H297 0.983 . S
C270 H246 0.948 . S
C270 C271 1.391 . S
C270 C275 1.391 . S
C271 C270 1.391 . S
C271 C272 1.391 . S
C272 H249 0.947 . S
C272 C271 1.391 . S
C272 C273 1.392 . S
C273 H250 0.948 . S
C273 C272 1.392 . S
C273 C274 1.419 . S
C274 C273 1.419 . S
C274 C275 1.391 . S
C274 C278 1.397 . S
C275 C270 1.391 . S
C275 C274 1.391 . S
C275 C276 1.399 . S
C276 C275 1.399 . S
C276 C277 1.396 . S
C276 C279 1.453 . S
C276 C280 1.684 . S
C277 C267 1.723 . S
C277 C276 1.396 . S
C277 C278 1.394 . S
C278 C248 1.723 . S
C278 C274 1.397 . S
C278 C277 1.394 . S
C279 H251 0.982 . S
C279 H255 0.979 . S
C279 H256 0.977 . S
C279 C276 1.453 . S
C280 H252 0.979 1_455 S
C280 H253 0.980 . S
C280 H254 0.983 . S
C280 C276 1.684 . S
H281 C299 0.948 . S
H282 C240 0.948 . S
H283 C258 0.979 1_655 S
H284 C258 0.980 . S
H285 C258 0.983 . S
H286 C257 0.982 . S
H287 C257 0.979 . S
H288 C257 0.977 . S
H289 C259 0.948 . S
H290 C261 0.947 . S
H291 C262 0.948 . S
H292 C268 0.982 . S
H293 C268 0.979 . S
H294 C268 0.977 . S
H295 C269 0.979 1_655 S
H296 C269 0.980 . S
H297 C269 0.983 . S
H298 C242 0.947 . S
C299 C242 1.392 . S
C299 C243 1.419 . S
C299 H281 0.948 . S
C300 C301 1.391 . S
C300 C304 1.391 . S
C300 H342 0.948 . S
C301 C300 1.391 . S
C301 C302 1.391 . S
C302 C301 1.391 . S
C302 H358 0.947 . S
C302 C359 1.392 . S
C303 C304 1.391 . S
C303 C307 1.397 . S
C303 C359 1.419 . S
C304 C300 1.391 . S
C304 C303 1.391 . S
C304 C305 1.399 . S
C305 C304 1.399 . S
C305 C308 1.396 . S
C305 C317 1.453 . S
C305 C318 1.684 . S
H306 C330 0.948 . S
C307 C303 1.397 . S
C307 C308 1.394 . S
C307 C326 1.723 . S
C308 C305 1.396 . S
C308 C307 1.394 . S
C308 C338 1.723 . S
H309 C332 0.947 . S
H310 C333 0.948 . S
H311 C339 0.982 . S
H312 C340 0.979 . S
H313 C340 0.980 . S
H314 C340 0.983 . S
H315 C339 0.979 . S
H316 C339 0.977 . S
C317 C305 1.453 . S
C317 H346 0.982 . S
C317 H347 0.979 . S
C317 H348 0.977 . S
C318 C305 1.684 . S
C318 H343 0.979 . S
C318 H344 0.980 . S
C318 H345 0.983 . S
C319 C320 1.391 . S
C319 C324 1.391 . S
C319 H349 0.948 . S
C320 C319 1.391 . S
C320 C321 1.391 . S
C321 C320 1.391 . S
C321 C322 1.392 . S
C321 H350 0.947 . S
C322 C321 1.392 . S
C322 C323 1.419 . S
C322 H351 0.948 . S
C323 C322 1.419 . S
C323 C324 1.391 . S
C323 C327 1.397 . S
C324 C319 1.391 . S
C324 C323 1.391 . S
C324 C325 1.399 . S
C325 C324 1.399 . S
C325 C326 1.396 . S
C325 C328 1.453 . S
C325 C329 1.684 . S
C326 C307 1.723 . S
C326 C325 1.396 . S
C326 C327 1.394 . S
C327 C323 1.397 . S
C327 C326 1.394 . S
C327 C337 1.723 . S
C328 C325 1.453 . S
C328 H352 0.982 . S
C328 H353 0.979 . S
C328 H354 0.977 . S
C329 C325 1.684 . S
C329 H355 0.979 . S
C329 H356 0.980 . S
C329 H357 0.983 . S
C330 H306 0.948 . S
C330 C331 1.391 . S
C330 C335 1.391 . S
C331 C330 1.391 . S
C331 C332 1.391 . S
C332 H309 0.947 . S
C332 C331 1.391 . S
C332 C333 1.392 . S
C333 H310 0.948 . S
C333 C332 1.392 . S
C333 C334 1.419 . S
C334 C333 1.419 . S
C334 C335 1.391 . S
C334 C338 1.397 . S
C335 C330 1.391 . S
C335 C334 1.391 . S
C335 C336 1.399 . S
C336 C335 1.399 . S
C336 C337 1.396 . S
C336 C339 1.453 . S
C336 C340 1.684 . S
C337 C327 1.723 . S
C337 C336 1.396 . S
C337 C338 1.394 . S
C338 C308 1.723 . S
C338 C334 1.397 . S
C338 C337 1.394 . S
C339 H311 0.982 . S
C339 H315 0.979 . S
C339 H316 0.977 . S
C339 C336 1.453 . S
C340 H312 0.979 . S
C340 H313 0.980 . S
C340 H314 0.983 . S
C340 C336 1.684 . S
H341 C359 0.948 . S
H342 C300 0.948 . S
H343 C318 0.979 . S
H344 C318 0.980 . S
H345 C318 0.983 . S
H346 C317 0.982 . S
H347 C317 0.979 . S
H348 C317 0.977 . S
H349 C319 0.948 . S
H350 C321 0.947 . S
H351 C322 0.948 . S
H352 C328 0.982 . S
H353 C328 0.979 . S
H354 C328 0.977 . S
H355 C329 0.979 . S
H356 C329 0.980 . S
H357 C329 0.983 . S
H358 C302 0.947 . S
C359 C302 1.392 . S
C359 C303 1.419 . S
C359 H341 0.948 . S
C360 C361 1.391 . S
C360 C364 1.391 . S
C360 H402 0.948 . S
C361 C360 1.391 . S
C361 C362 1.391 . S
C362 C361 1.391 . S
C362 H418 0.947 . S
C362 C419 1.392 . S
C363 C364 1.391 . S
C363 C367 1.397 . S
C363 C419 1.419 . S
C364 C360 1.391 . S
C364 C363 1.391 . S
C364 C365 1.399 . S
C365 C364 1.399 . S
C365 C368 1.396 . S
C365 C377 1.453 . S
C365 C378 1.684 . S
H366 C390 0.948 . S
C367 C363 1.397 . S
C367 C368 1.394 . S
C367 C386 1.723 . S
C368 C365 1.396 . S
C368 C367 1.394 . S
C368 C398 1.723 . S
H369 C392 0.947 . S
H370 C393 0.948 . S
H371 C399 0.982 . S
H372 C400 0.979 . S
H373 C400 0.980 . S
H374 C400 0.983 . S
H375 C399 0.979 . S
H376 C399 0.977 . S
C377 C365 1.453 . S
C377 H406 0.982 . S
C377 H407 0.979 . S
C377 H408 0.977 . S
C378 C365 1.684 . S
C378 H403 0.979 . S
C378 H404 0.980 . S
C378 H405 0.983 . S
C379 C380 1.391 . S
C379 C384 1.391 . S
C379 H409 0.948 . S
C380 C379 1.391 . S
C380 C381 1.391 . S
C381 C380 1.391 . S
C381 C382 1.392 . S
C381 H410 0.947 . S
C382 C381 1.392 . S
C382 C383 1.419 . S
C382 H411 0.948 . S
C383 C382 1.419 . S
C383 C384 1.391 . S
C383 C387 1.397 . S
C384 C379 1.391 . S
C384 C383 1.391 . S
C384 C385 1.399 . S
C385 C384 1.399 . S
C385 C386 1.396 . S
C385 C388 1.453 . S
C385 C389 1.684 . S
C386 C367 1.723 . S
C386 C385 1.396 . S
C386 C387 1.394 . S
C387 C383 1.397 . S
C387 C386 1.394 . S
C387 C397 1.723 . S
C388 C385 1.453 . S
C388 H412 0.982 . S
C388 H413 0.979 . S
C388 H414 0.977 . S
C389 C385 1.684 . S
C389 H415 0.979 . S
C389 H416 0.980 . S
C389 H417 0.983 . S
C390 H366 0.948 . S
C390 C391 1.391 . S
C390 C395 1.391 . S
C391 C390 1.391 . S
C391 C392 1.391 . S
C392 H369 0.947 . S
C392 C391 1.391 . S
C392 C393 1.392 . S
C393 H370 0.948 . S
C393 C392 1.392 . S
C393 C394 1.419 . S
C394 C393 1.419 . S
C394 C395 1.391 . S
C394 C398 1.397 . S
C395 C390 1.391 . S
C395 C394 1.391 . S
C395 C396 1.399 . S
C396 C395 1.399 . S
C396 C397 1.396 . S
C396 C399 1.453 . S
C396 C400 1.684 . S
C397 C387 1.723 . S
C397 C396 1.396 . S
C397 C398 1.394 . S
C398 C368 1.723 . S
C398 C394 1.397 . S
C398 C397 1.394 . S
C399 H371 0.982 . S
C399 H375 0.979 . S
C399 H376 0.977 . S
C399 C396 1.453 . S
C400 H372 0.979 . S
C400 H373 0.980 . S
C400 H374 0.983 . S
C400 C396 1.684 . S
H401 C419 0.948 . S
H402 C360 0.948 . S
H403 C378 0.979 . S
H404 C378 0.980 . S
H405 C378 0.983 . S
H406 C377 0.982 . S
H407 C377 0.979 . S
H408 C377 0.977 . S
H409 C379 0.948 . S
H410 C381 0.947 . S
H411 C382 0.948 . S
H412 C388 0.982 . S
H413 C388 0.979 . S
H414 C388 0.977 . S
H415 C389 0.979 . S
H416 C389 0.980 . S
H417 C389 0.983 . S
H418 C362 0.947 . S
C419 C362 1.392 . S
C419 C363 1.419 . S
C419 H401 0.948 . S
C420 C421 1.391 . S
C420 C424 1.391 . S
C420 H462 0.948 . S
C421 C420 1.391 . S
C421 C422 1.391 . S
C422 C421 1.391 . S
C422 H478 0.947 . S
C422 C479 1.392 . S
C423 C424 1.391 . S
C423 C427 1.397 . S
C423 C479 1.419 . S
C424 C420 1.391 . S
C424 C423 1.391 . S
C424 C425 1.399 . S
C425 C424 1.399 . S
C425 C428 1.396 . S
C425 C437 1.453 . S
C425 C438 1.684 . S
H426 C450 0.948 1_655 S
C427 C423 1.397 . S
C427 C428 1.394 . S
C427 C446 1.723 . S
C428 C425 1.396 . S
C428 C427 1.394 . S
C428 C458 1.723 . S
H429 C452 0.947 . S
H430 C453 0.948 . S
H431 C459 0.982 . S
H432 C460 0.979 . S
H433 C460 0.980 . S
H434 C460 0.983 . S
H435 C459 0.979 . S
H436 C459 0.977 . S
C437 C425 1.453 . S
C437 H466 0.982 . S
C437 H467 0.979 . S
C437 H468 0.977 . S
C438 C425 1.684 . S
C438 H463 0.979 . S
C438 H464 0.980 . S
C438 H465 0.983 . S
C439 C440 1.391 . S
C439 C444 1.391 . S
C439 H469 0.948 . S
C440 C439 1.391 . S
C440 C441 1.391 . S
C441 C440 1.391 . S
C441 C442 1.392 . S
C441 H470 0.947 . S
C442 C441 1.392 . S
C442 C443 1.419 . S
C442 H471 0.948 . S
C443 C442 1.419 . S
C443 C444 1.391 . S
C443 C447 1.397 . S
C444 C439 1.391 . S
C444 C443 1.391 . S
C444 C445 1.399 . S
C445 C444 1.399 . S
C445 C446 1.396 . S
C445 C448 1.453 . S
C445 C449 1.684 . S
C446 C427 1.723 . S
C446 C445 1.396 . S
C446 C447 1.394 . S
C447 C443 1.397 . S
C447 C446 1.394 . S
C447 C457 1.723 . S
C448 C445 1.453 . S
C448 H472 0.982 . S
C448 H473 0.979 . S
C448 H474 0.977 . S
C449 C445 1.684 . S
C449 H475 0.979 . S
C449 H476 0.980 . S
C449 H477 0.983 . S
C450 H426 0.948 1_455 S
C450 C451 1.390 1_455 S
C450 C455 1.391 . S
C451 C450 1.390 1_655 S
C451 C452 1.369 1_655 S
C452 H429 0.947 . S
C452 C451 1.369 1_455 S
C452 C453 1.392 . S
C453 H430 0.948 . S
C453 C452 1.392 . S
C453 C454 1.419 . S
C454 C453 1.419 . S
C454 C455 1.391 . S
C454 C458 1.397 . S
C455 C450 1.391 . S
C455 C454 1.391 . S
C455 C456 1.399 . S
C456 C455 1.399 . S
C456 C457 1.396 . S
C456 C459 1.453 . S
C456 C460 1.684 . S
C457 C447 1.723 . S
C457 C456 1.396 . S
C457 C458 1.394 . S
C458 C428 1.723 . S
C458 C454 1.397 . S
C458 C457 1.394 . S
C459 H431 0.982 . S
C459 H435 0.979 . S
C459 H436 0.977 . S
C459 C456 1.453 . S
C460 H432 0.979 . S
C460 H433 0.980 . S
C460 H434 0.983 . S
C460 C456 1.684 . S
H461 C479 0.948 . S
H462 C420 0.948 . S
H463 C438 0.979 . S
H464 C438 0.980 . S
H465 C438 0.983 . S
H466 C437 0.982 . S
H467 C437 0.979 . S
H468 C437 0.977 . S
H469 C439 0.948 . S
H470 C441 0.947 . S
H471 C442 0.948 . S
H472 C448 0.982 . S
H473 C448 0.979 . S
H474 C448 0.977 . S
H475 C449 0.979 . S
H476 C449 0.980 . S
H477 C449 0.983 . S
H478 C422 0.947 . S
C479 C422 1.392 . S
C479 C423 1.419 . S
C479 H461 0.948 . S
Zn480 O486 1.920 . S
Zn480 O492 1.898 . S
Zn480 O495 1.905 . S
Zn481 O489 1.905 . S
Zn481 O490 1.898 . S
Zn481 O498 1.920 . S
Zn482 O485 2.080 . S
Zn482 O488 2.114 . S
Zn482 O491 2.120 . S
Zn482 O493 2.120 . S
Zn482 O494 2.114 . S
Zn482 O497 2.080 . S
C483 O488 1.166 . S
C483 O489 1.182 . S
C484 O490 1.167 . S
C484 O491 1.299 . S
O485 Zn482 2.080 . S
O485 C499 1.305 . S
O486 Zn480 1.920 . S
O486 C499 1.234 . S
C487 O492 1.167 . S
C487 O493 1.299 . S
O488 Zn482 2.114 . S
O488 C483 1.166 . S
O489 Zn481 1.905 . S
O489 C483 1.182 . S
O490 Zn481 1.898 . S
O490 C484 1.167 . S
O491 Zn482 2.120 . S
O491 C484 1.299 . S
O492 Zn480 1.898 . S
O492 C487 1.167 . S
O493 Zn482 2.120 . S
O493 C487 1.299 . S
O494 Zn482 2.114 . S
O494 C496 1.166 . S
O495 Zn480 1.905 . S
O495 C496 1.182 . S
C496 O494 1.166 . S
C496 O495 1.182 . S
O497 Zn482 2.080 . S
O497 C500 1.305 . S
O498 Zn481 1.920 . S
O498 C500 1.234 . S
C499 O485 1.305 . S
C499 O486 1.234 . S
C500 O497 1.305 . S
C500 O498 1.234 . S
Zn501 O507 1.920 . S
Zn501 O513 1.898 . S
Zn501 O516 1.905 . S
Zn502 O510 1.905 . S
Zn502 O511 1.898 . S
Zn502 O519 1.920 . S
Zn503 O506 2.080 . S
Zn503 O509 2.114 . S
Zn503 O512 2.120 . S
Zn503 O514 2.120 . S
Zn503 O515 2.114 . S
Zn503 O518 2.080 . S
C504 O509 1.166 . S
C504 O510 1.182 . S
C505 O511 1.167 . S
C505 O512 1.299 . S
O506 Zn503 2.080 . S
O506 C520 1.305 . S
O507 Zn501 1.920 . S
O507 C520 1.234 . S
C508 O513 1.167 . S
C508 O514 1.299 . S
O509 Zn503 2.114 . S
O509 C504 1.166 . S
O510 Zn502 1.905 . S
O510 C504 1.182 . S
O511 Zn502 1.898 . S
O511 C505 1.167 . S
O512 Zn503 2.120 . S
O512 C505 1.299 . S
O513 Zn501 1.898 . S
O513 C508 1.167 . S
O514 Zn503 2.120 . S
O514 C508 1.299 . S
O515 Zn503 2.114 . S
O515 C517 1.166 . S
O516 Zn501 1.905 . S
O516 C517 1.182 . S
C517 O515 1.166 . S
C517 O516 1.182 . S
O518 Zn503 2.080 . S
O518 C521 1.305 . S
O519 Zn502 1.920 . S
O519 C521 1.234 . S
C520 O506 1.305 . S
C520 O507 1.234 . S
C521 O518 1.305 . S
C521 O519 1.234 . S
Zn522 O528 1.920 . S
Zn522 O534 1.898 . S
Zn522 O537 1.905 . S
Zn523 O531 1.905 . S
Zn523 O532 1.898 . S
Zn523 O540 1.920 . S
Zn524 O527 2.080 . S
Zn524 O530 2.114 . S
Zn524 O533 2.120 . S
Zn524 O535 2.120 . S
Zn524 O536 2.114 . S
Zn524 O539 2.080 . S
C525 O530 1.166 . S
C525 O531 1.182 . S
C526 O532 1.167 . S
C526 O533 1.299 . S
O527 Zn524 2.080 . S
O527 C541 1.305 . S
O528 Zn522 1.920 . S
O528 C541 1.234 . S
C529 O534 1.167 . S
C529 O535 1.299 . S
O530 Zn524 2.114 . S
O530 C525 1.166 . S
O531 Zn523 1.905 . S
O531 C525 1.182 . S
O532 Zn523 1.898 . S
O532 C526 1.167 . S
O533 Zn524 2.120 . S
O533 C526 1.299 . S
O534 Zn522 1.898 . S
O534 C529 1.167 . S
O535 Zn524 2.120 . S
O535 C529 1.299 . S
O536 Zn524 2.114 . S
O536 C538 1.166 . S
O537 Zn522 1.905 . S
O537 C538 1.182 . S
C538 O536 1.166 . S
C538 O537 1.182 . S
O539 Zn524 2.080 . S
O539 C542 1.305 . S
O540 Zn523 1.920 . S
O540 C542 1.234 . S
C541 O527 1.305 . S
C541 O528 1.234 . S
C542 O539 1.305 . S
C542 O540 1.234 . S
Zn543 O549 1.920 . S
Zn543 O555 1.898 . S
Zn543 O558 1.905 . S
Zn544 O552 1.905 . S
Zn544 O553 1.898 . S
Zn544 O561 1.920 . S
Zn545 O548 2.080 . S
Zn545 O551 2.114 . S
Zn545 O554 2.120 . S
Zn545 O556 2.120 . S
Zn545 O557 2.114 . S
Zn545 O560 2.080 . S
C546 O551 1.166 . S
C546 O552 1.182 . S
C547 O553 1.167 . S
C547 O554 1.299 . S
O548 Zn545 2.080 . S
O548 C562 1.305 . S
O549 Zn543 1.920 . S
O549 C562 1.234 . S
C550 O555 1.167 . S
C550 O556 1.299 . S
O551 Zn545 2.114 . S
O551 C546 1.166 . S
O552 Zn544 1.905 . S
O552 C546 1.182 . S
O553 Zn544 1.898 . S
O553 C547 1.167 . S
O554 Zn545 2.120 . S
O554 C547 1.299 . S
O555 Zn543 1.898 . S
O555 C550 1.167 . S
O556 Zn545 2.120 . S
O556 C550 1.299 . S
O557 Zn545 2.114 . S
O557 C559 1.166 . S
O558 Zn543 1.905 . S
O558 C559 1.182 . S
C559 O557 1.166 . S
C559 O558 1.182 . S
O560 Zn545 2.080 . S
O560 C563 1.305 . S
O561 Zn544 1.920 . S
O561 C563 1.234 . S
C562 O548 1.305 . S
C562 O549 1.234 . S
C563 O560 1.305 . S
C563 O561 1.234 . S
H564 C570 0.930 . S
H565 C574 0.930 . S
H566 C579 0.929 . S
H567 C577 0.929 . S
H568 C572 0.929 . S
H569 C578 0.929 . S
C570 H564 0.930 . S
C570 C571 1.367 . S
C570 C578 1.378 . S
C571 C570 1.367 . S
C571 C579 1.433 . S
C572 H568 0.929 . S
C572 C574 1.378 . S
C572 C576 1.350 . S
C573 C576 1.463 . S
C573 C578 1.350 . S
C573 N581 1.427 . S
C574 H565 0.930 . S
C574 C572 1.378 . S
C574 C575 1.367 . S
C575 C574 1.367 . S
C575 C577 1.433 . S
C576 C572 1.350 . S
C576 C573 1.463 . S
C576 N580 1.427 . S
C577 H567 0.929 . S
C577 C575 1.433 . S
C577 N580 1.384 . S
C578 H569 0.929 . S
C578 C570 1.378 . S
C578 C573 1.350 . S
C579 H566 0.929 . S
C579 C571 1.433 . S
C579 N581 1.384 . S
N580 C576 1.427 . S
N580 C577 1.384 . S
N581 C573 1.427 . S
N581 C579 1.384 . S
H582 C588 0.930 . S
H583 C592 0.930 . S
H584 C597 0.929 . S
H585 C595 0.929 . S
H586 C590 0.929 . S
H587 C596 0.929 . S
C588 H582 0.930 . S
C588 C589 1.367 . S
C588 C596 1.378 . S
C589 C588 1.367 . S
C589 C597 1.433 . S
C590 H586 0.929 . S
C590 C592 1.378 . S
C590 C594 1.350 . S
C591 C594 1.463 . S
C591 C596 1.350 . S
C591 N599 1.427 . S
C592 H583 0.930 . S
C592 C590 1.378 . S
C592 C593 1.367 . S
C593 C592 1.367 . S
C593 C595 1.433 . S
C594 C590 1.350 . S
C594 C591 1.463 . S
C594 N598 1.427 . S
C595 H585 0.929 . S
C595 C593 1.433 . S
C595 N598 1.384 . S
C596 H587 0.929 . S
C596 C588 1.378 . S
C596 C591 1.350 . S
C597 H584 0.929 . S
C597 C589 1.433 . S
C597 N599 1.384 . S
N598 C594 1.427 . S
N598 C595 1.384 . S
N599 C591 1.427 . S
N599 C597 1.384 . S
H600 C606 0.930 . S
H601 C610 0.930 . S
H602 C615 0.929 . S
H603 C613 0.929 . S
H604 C608 0.929 . S
H605 C614 0.929 . S
C606 H600 0.930 . S
C606 C607 1.367 . S
C606 C614 1.378 . S
C607 C606 1.367 . S
C607 C615 1.433 . S
C608 H604 0.929 . S
C608 C610 1.378 . S
C608 C612 1.350 . S
C609 C612 1.463 . S
C609 C614 1.350 . S
C609 N617 1.427 . S
C610 H601 0.930 . S
C610 C608 1.378 . S
C610 C611 1.367 . S
C611 C610 1.367 . S
C611 C613 1.433 . S
C612 C608 1.350 . S
C612 C609 1.463 . S
C612 N616 1.427 . S
C613 H603 0.929 . S
C613 C611 1.433 . S
C613 N616 1.384 . S
C614 H605 0.929 . S
C614 C606 1.378 . S
C614 C609 1.350 . S
C615 H602 0.929 . S
C615 C607 1.433 . S
C615 N617 1.384 . S
N616 C612 1.427 . S
N616 C613 1.384 . S
N617 C609 1.427 . S
N617 C615 1.384 . S
H618 C624 0.930 . S
H619 C628 0.930 . S
H620 C633 0.929 . S
H621 C631 0.929 1_455 S
H622 C626 0.929 . S
H623 C632 0.929 . S
C624 H618 0.930 . S
C624 C625 1.367 . S
C624 C632 1.378 . S
C625 C624 1.367 . S
C625 C633 1.433 . S
C626 H622 0.929 . S
C626 C628 1.378 . S
C626 C630 1.350 . S
C627 C630 1.463 . S
C627 C632 1.350 . S
C627 N635 1.427 . S
C628 H619 0.930 . S
C628 C626 1.378 . S
C628 C629 1.367 1_655 S
C629 C628 1.367 1_455 S
C629 C631 1.433 1_455 S
C630 C626 1.350 . S
C630 C627 1.463 . S
C630 N634 1.427 . S
C631 H621 0.929 1_655 S
C631 C629 1.433 1_655 S
C631 N634 1.384 . S
C632 H623 0.929 . S
C632 C624 1.378 . S
C632 C627 1.350 . S
C633 H620 0.929 . S
C633 C625 1.433 . S
C633 N635 1.384 . S
N634 C630 1.427 . S
N634 C631 1.384 . S
N635 C627 1.427 . S
N635 C633 1.384 . S
H636 C642 0.930 . S
H637 C646 0.930 . S
H638 C651 0.929 . S
H639 C649 0.929 . S
H640 C644 0.929 . S
H641 C650 0.929 . S
C642 H636 0.930 . S
C642 C643 1.367 . S
C642 C650 1.378 . S
C643 C642 1.367 . S
C643 C651 1.433 . S
C644 H640 0.929 . S
C644 C646 1.378 . S
C644 C648 1.350 . S
C645 C648 1.463 . S
C645 C650 1.350 . S
C645 N653 1.427 . S
C646 H637 0.930 . S
C646 C644 1.378 . S
C646 C647 1.367 . S
C647 C646 1.367 . S
C647 C649 1.433 . S
C648 C644 1.350 . S
C648 C645 1.463 . S
C648 N652 1.427 . S
C649 H639 0.929 . S
C649 C647 1.433 . S
C649 N652 1.384 . S
C650 H641 0.929 . S
C650 C642 1.378 . S
C650 C645 1.350 . S
C651 H638 0.929 . S
C651 C643 1.433 . S
C651 N653 1.384 . S
N652 C648 1.427 . S
N652 C649 1.384 . S
N653 C645 1.427 . S
N653 C651 1.384 . S
H654 C660 0.930 . S
H655 C664 0.930 1_455 S
H656 C669 0.929 . S
H657 C667 0.929 . S
H658 C662 0.929 . S
H659 C668 0.929 . S
C660 H654 0.930 . S
C660 C661 1.367 . S
C660 C668 1.378 . S
C661 C660 1.367 . S
C661 C669 1.433 . S
C662 H658 0.929 . S
C662 C664 1.378 . S
C662 C666 1.350 . S
C663 C666 1.463 . S
C663 C668 1.350 . S
C663 N671 1.427 . S
C664 H655 0.930 1_655 S
C664 C662 1.378 . S
C664 C665 1.367 1_655 S
C665 C664 1.367 1_455 S
C665 C667 1.433 1_455 S
C666 C662 1.350 . S
C666 C663 1.463 . S
C666 N670 1.427 . S
C667 H657 0.929 . S
C667 C665 1.433 1_655 S
C667 N670 1.384 . S
C668 H659 0.929 . S
C668 C660 1.378 . S
C668 C663 1.350 . S
C669 H656 0.929 . S
C669 C661 1.433 . S
C669 N671 1.384 . S
N670 C666 1.427 . S
N670 C667 1.384 . S
N671 C663 1.427 . S
N671 C669 1.384 . S
H672 C678 0.930 . S
H673 C682 0.930 . S
H674 C687 0.929 . S
H675 C685 0.929 . S
H676 C680 0.929 . S
H677 C686 0.929 . S
C678 H672 0.930 . S
C678 C679 1.367 . S
C678 C686 1.378 . S
C679 C678 1.367 . S
C679 C687 1.433 . S
C680 H676 0.929 . S
C680 C682 1.378 . S
C680 C684 1.350 . S
C681 C684 1.463 . S
C681 C686 1.350 . S
C681 N689 1.427 . S
C682 H673 0.930 . S
C682 C680 1.378 . S
C682 C683 1.367 . S
C683 C682 1.367 . S
C683 C685 1.433 . S
C684 C680 1.350 . S
C684 C681 1.463 . S
C684 N688 1.427 . S
C685 H675 0.929 . S
C685 C683 1.433 . S
C685 N688 1.384 . S
C686 H677 0.929 . S
C686 C678 1.378 . S
C686 C681 1.350 . S
C687 H674 0.929 . S
C687 C679 1.433 . S
C687 N689 1.384 . S
N688 C684 1.427 . S
N688 C685 1.384 . S
N689 C681 1.427 . S
N689 C687 1.384 . S
H690 C696 0.930 . S
H691 C700 0.930 . S
H692 C705 0.929 . S
H693 C703 0.929 . S
H694 C698 0.929 . S
H695 C704 0.929 . S
C696 H690 0.930 . S
C696 C697 1.367 . S
C696 C704 1.378 . S
C697 C696 1.367 . S
C697 C705 1.433 . S
C698 H694 0.929 . S
C698 C700 1.378 . S
C698 C702 1.350 . S
C699 C702 1.463 . S
C699 C704 1.350 . S
C699 N707 1.427 . S
C700 H691 0.930 . S
C700 C698 1.378 . S
C700 C701 1.367 . S
C701 C700 1.367 . S
C701 C703 1.433 . S
C702 C698 1.350 . S
C702 C699 1.463 . S
C702 N706 1.427 . S
C703 H693 0.929 . S
C703 C701 1.433 . S
C703 N706 1.384 . S
C704 H695 0.929 . S
C704 C696 1.378 . S
C704 C699 1.350 . S
C705 H692 0.929 . S
C705 C697 1.433 . S
C705 N707 1.384 . S
N706 C702 1.427 . S
N706 C703 1.384 . S
N707 C699 1.427 . S
N707 C705 1.384 . S
H708 C714 0.930 . S
H709 C718 0.930 . S
H710 C723 0.929 . S
H711 C721 0.929 . S
H712 C716 0.929 . S
H713 C722 0.929 . S
C714 H708 0.930 . S
C714 C715 1.367 . S
C714 C722 1.378 . S
C715 C714 1.367 . S
C715 C723 1.433 . S
C716 H712 0.929 . S
C716 C718 1.378 . S
C716 C720 1.350 . S
C717 C720 1.463 . S
C717 C722 1.350 . S
C717 N725 1.427 . S
C718 H709 0.930 . S
C718 C716 1.378 . S
C718 C719 1.367 . S
C719 C718 1.367 . S
C719 C721 1.433 . S
C720 C716 1.350 . S
C720 C717 1.463 . S
C720 N724 1.427 . S
C721 H711 0.929 . S
C721 C719 1.433 . S
C721 N724 1.384 . S
C722 H713 0.929 . S
C722 C714 1.378 . S
C722 C717 1.350 . S
C723 H710 0.929 . S
C723 C715 1.433 . S
C723 N725 1.384 . S
N724 C720 1.427 . S
N724 C721 1.384 . S
N725 C717 1.427 . S
N725 C723 1.384 . S
H726 C732 0.930 . S
H727 C736 0.930 . S
H728 C741 0.929 . S
H729 C739 0.929 . S
H730 C734 0.929 . S
H731 C740 0.929 . S
C732 H726 0.930 . S
C732 C733 1.367 . S
C732 C740 1.378 . S
C733 C732 1.367 . S
C733 C741 1.433 . S
C734 H730 0.929 . S
C734 C736 1.378 . S
C734 C738 1.350 . S
C735 C738 1.463 . S
C735 C740 1.350 . S
C735 N743 1.427 . S
C736 H727 0.930 . S
C736 C734 1.378 . S
C736 C737 1.367 . S
C737 C736 1.367 . S
C737 C739 1.433 . S
C738 C734 1.350 . S
C738 C735 1.463 . S
C738 N742 1.427 . S
C739 H729 0.929 . S
C739 C737 1.433 . S
C739 N742 1.384 . S
C740 H731 0.929 . S
C740 C732 1.378 . S
C740 C735 1.350 . S
C741 H728 0.929 . S
C741 C733 1.433 . S
C741 N743 1.384 . S
N742 C738 1.427 . S
N742 C739 1.384 . S
N743 C735 1.427 . S
N743 C741 1.384 . S
H744 C750 0.930 . S
H745 C754 0.930 . S
H746 C759 0.929 . S
H747 C757 0.929 . S
H748 C752 0.929 . S
H749 C758 0.929 . S
C750 H744 0.930 . S
C750 C751 1.367 . S
C750 C758 1.378 . S
C751 C750 1.367 . S
C751 C759 1.433 . S
C752 H748 0.929 . S
C752 C754 1.378 . S
C752 C756 1.350 . S
C753 C756 1.463 . S
C753 C758 1.350 . S
C753 N761 1.427 . S
C754 H745 0.930 . S
C754 C752 1.378 . S
C754 C755 1.367 . S
C755 C754 1.367 . S
C755 C757 1.433 . S
C756 C752 1.350 . S
C756 C753 1.463 . S
C756 N760 1.427 . S
C757 H747 0.929 . S
C757 C755 1.433 . S
C757 N760 1.384 . S
C758 H749 0.929 . S
C758 C750 1.378 . S
C758 C753 1.350 . S
C759 H746 0.929 . S
C759 C751 1.433 . S
C759 N761 1.384 . S
N760 C756 1.427 . S
N760 C757 1.384 . S
N761 C753 1.427 . S
N761 C759 1.384 . S
H762 C768 0.930 . S
H763 C772 0.930 . S
H764 C777 0.929 . S
H765 C775 0.929 . S
H766 C770 0.929 . S
H767 C776 0.929 . S
C768 H762 0.930 . S
C768 C769 1.367 . S
C768 C776 1.378 . S
C769 C768 1.367 . S
C769 C777 1.433 . S
C770 H766 0.929 . S
C770 C772 1.378 . S
C770 C774 1.350 . S
C771 C774 1.463 . S
C771 C776 1.350 . S
C771 N779 1.427 . S
C772 H763 0.930 . S
C772 C770 1.378 . S
C772 C773 1.367 . S
C773 C772 1.367 . S
C773 C775 1.433 . S
C774 C770 1.350 . S
C774 C771 1.463 . S
C774 N778 1.427 . S
C775 H765 0.929 . S
C775 C773 1.433 . S
C775 N778 1.384 . S
C776 H767 0.929 . S
C776 C768 1.378 . S
C776 C771 1.350 . S
C777 H764 0.929 . S
C777 C769 1.433 . S
C777 N779 1.384 . S
N778 C774 1.427 . S
N778 C775 1.384 . S
N779 C771 1.427 . S
N779 C777 1.384 . S
H780 C786 0.930 . S
H781 C790 0.930 . S
H782 C795 0.929 . S
H783 C793 0.929 . S
H784 C788 0.929 . S
H785 C794 0.929 . S
C786 H780 0.930 . S
C786 C787 1.367 . S
C786 C794 1.378 . S
C787 C786 1.367 . S
C787 C795 1.433 . S
C788 H784 0.929 . S
C788 C790 1.378 . S
C788 C792 1.350 . S
C789 C792 1.463 1_565 S
C789 C794 1.350 . S
C789 N797 1.427 . S
C790 H781 0.930 . S
C790 C788 1.378 . S
C790 C791 1.367 . S
C791 C790 1.367 . S
C791 C793 1.433 . S
C792 C788 1.350 . S
C792 C789 1.463 1_545 S
C792 N796 1.427 . S
C793 H783 0.929 . S
C793 C791 1.433 . S
C793 N796 1.384 . S
C794 H785 0.929 . S
C794 C786 1.378 . S
C794 C789 1.350 . S
C795 H782 0.929 . S
C795 C787 1.433 . S
C795 N797 1.384 . S
N796 C792 1.427 . S
N796 C793 1.384 . S
N797 C789 1.427 . S
N797 C795 1.384 . S
H798 C804 0.930 . S
H799 C808 0.930 . S
H800 C813 0.929 . S
H801 C811 0.929 . S
H802 C806 0.929 . S
H803 C812 0.929 . S
C804 H798 0.930 . S
C804 C805 1.367 . S
C804 C812 1.378 1_545 S
C805 C804 1.367 . S
C805 C813 1.433 . S
C806 H802 0.929 . S
C806 C808 1.378 . S
C806 C810 1.350 . S
C807 C810 1.463 . S
C807 C812 1.350 . S
C807 N815 1.427 1_565 S
C808 H799 0.930 . S
C808 C806 1.378 . S
C808 C809 1.367 . S
C809 C808 1.367 . S
C809 C811 1.433 . S
C810 C806 1.350 . S
C810 C807 1.463 . S
C810 N814 1.427 . S
C811 H801 0.929 . S
C811 C809 1.433 . S
C811 N814 1.384 . S
C812 H803 0.929 . S
C812 C804 1.378 1_565 S
C812 C807 1.350 . S
C813 H800 0.929 . S
C813 C805 1.433 . S
C813 N815 1.384 . S
N814 C810 1.427 . S
N814 C811 1.384 . S
N815 C807 1.427 1_545 S
N815 C813 1.384 . S
H816 C822 0.930 . S
H817 C826 0.930 . S
H818 C831 0.929 . S
H819 C829 0.929 . S
H820 C824 0.929 . S
H821 C830 0.929 . S
C822 H816 0.930 . S
C822 C823 1.367 . S
C822 C830 1.378 . S
C823 C822 1.367 . S
C823 C831 1.433 . S
C824 H820 0.929 . S
C824 C826 1.378 . S
C824 C828 1.350 . S
C825 C828 1.463 . S
C825 C830 1.350 1_565 S
C825 N833 1.427 . S
C826 H817 0.930 . S
C826 C824 1.378 . S
C826 C827 1.367 . S
C827 C826 1.367 . S
C827 C829 1.433 . S
C828 C824 1.350 . S
C828 C825 1.463 . S
C828 N832 1.427 . S
C829 H819 0.929 . S
C829 C827 1.433 . S
C829 N832 1.384 . S
C830 H821 0.929 . S
C830 C822 1.378 . S
C830 C825 1.350 1_545 S
C831 H818 0.929 . S
C831 C823 1.433 . S
C831 N833 1.384 1_545 S
N832 C828 1.427 . S
N832 C829 1.384 . S
N833 C825 1.427 . S
N833 C831 1.384 1_565 S
H834 C840 0.930 . S
H835 C844 0.930 . S
H836 C849 0.929 . S
H837 C847 0.929 . S
H838 C842 0.929 . S
H839 C848 0.929 . S
C840 H834 0.930 . S
C840 C841 1.367 . S
C840 C848 1.378 . S
C841 C840 1.367 . S
C841 C849 1.433 . S
C842 H838 0.929 . S
C842 C844 1.378 . S
C842 C846 1.350 . S
C843 C846 1.463 1_565 S
C843 C848 1.350 . S
C843 N851 1.427 . S
C844 H835 0.930 . S
C844 C842 1.378 . S
C844 C845 1.367 . S
C845 C844 1.367 . S
C845 C847 1.433 . S
C846 C842 1.350 . S
C846 C843 1.463 1_545 S
C846 N850 1.427 . S
C847 H837 0.929 . S
C847 C845 1.433 . S
C847 N850 1.384 . S
C848 H839 0.929 . S
C848 C840 1.378 . S
C848 C843 1.350 . S
C849 H836 0.929 . S
C849 C841 1.433 . S
C849 N851 1.384 . S
N850 C846 1.427 . S
N850 C847 1.384 . S
N851 C843 1.427 . S
N851 C849 1.384 . S
H852 C858 0.930 . S
H853 C862 0.930 . S
H854 C867 0.929 . S
H855 C865 0.929 . S
H856 C860 0.929 . S
H857 C866 0.929 . S
C858 H852 0.930 . S
C858 C859 1.367 . S
C858 C866 1.378 . S
C859 C858 1.367 . S
C859 C867 1.433 . S
C860 H856 0.929 . S
C860 C862 1.378 . S
C860 C864 1.350 . S
C861 C864 1.463 . S
C861 C866 1.350 . S
C861 N869 1.427 . S
C862 H853 0.930 . S
C862 C860 1.378 . S
C862 C863 1.367 . S
C863 C862 1.367 . S
C863 C865 1.433 . S
C864 C860 1.350 . S
C864 C861 1.463 . S
C864 N868 1.427 . S
C865 H855 0.929 . S
C865 C863 1.433 . S
C865 N868 1.384 . S
C866 H857 0.929 . S
C866 C858 1.378 . S
C866 C861 1.350 . S
C867 H854 0.929 . S
C867 C859 1.433 . S
C867 N869 1.384 . S
N868 C864 1.427 . S
N868 C865 1.384 . S
N869 C861 1.427 . S
N869 C867 1.384 . S
H870 C876 0.930 . S
H871 C880 0.930 . S
H872 C885 0.929 . S
H873 C883 0.929 . S
H874 C878 0.929 . S
H875 C884 0.929 . S
C876 H870 0.930 . S
C876 C877 1.367 . S
C876 C884 1.378 . S
C877 C876 1.367 . S
C877 C885 1.433 . S
C878 H874 0.929 . S
C878 C880 1.378 . S
C878 C882 1.350 . S
C879 C882 1.463 . S
C879 C884 1.350 . S
C879 N887 1.427 . S
C880 H871 0.930 . S
C880 C878 1.378 . S
C880 C881 1.367 . S
C881 C880 1.367 . S
C881 C883 1.433 . S
C882 C878 1.350 . S
C882 C879 1.463 . S
C882 N886 1.427 . S
C883 H873 0.929 . S
C883 C881 1.433 . S
C883 N886 1.384 . S
C884 H875 0.929 . S
C884 C876 1.378 . S
C884 C879 1.350 . S
C885 H872 0.929 . S
C885 C877 1.433 . S
C885 N887 1.384 . S
N886 C882 1.427 . S
N886 C883 1.384 . S
N887 C879 1.427 . S
N887 C885 1.384 . S
H888 C894 0.930 . S
H889 C898 0.930 . S
H890 C903 0.929 . S
H891 C901 0.929 . S
H892 C896 0.929 . S
H893 C902 0.929 . S
C894 H888 0.930 . S
C894 C895 1.367 . S
C894 C902 1.378 . S
C895 C894 1.367 . S
C895 C903 1.433 . S
C896 H892 0.929 . S
C896 C898 1.378 . S
C896 C900 1.350 . S
C897 C900 1.463 . S
C897 C902 1.350 . S
C897 N905 1.427 . S
C898 H889 0.930 . S
C898 C896 1.378 . S
C898 C899 1.367 . S
C899 C898 1.367 . S
C899 C901 1.433 . S
C900 C896 1.350 . S
C900 C897 1.463 . S
C900 N904 1.427 . S
C901 H891 0.929 . S
C901 C899 1.433 . S
C901 N904 1.384 . S
C902 H893 0.929 . S
C902 C894 1.378 . S
C902 C897 1.350 . S
C903 H890 0.929 . S
C903 C895 1.433 . S
C903 N905 1.384 . S
N904 C900 1.427 . S
N904 C901 1.384 . S
N905 C897 1.427 . S
N905 C903 1.384 . S
H906 C912 0.930 . S
H907 C916 0.930 . S
H908 C921 0.929 . S
H909 C919 0.929 . S
H910 C914 0.929 . S
H911 C920 0.929 . S
C912 H906 0.930 . S
C912 C913 1.367 . S
C912 C920 1.378 . S
C913 C912 1.367 . S
C913 C921 1.433 . S
C914 H910 0.929 . S
C914 C916 1.378 . S
C914 C918 1.350 . S
C915 C918 1.463 . S
C915 C920 1.350 . S
C915 N923 1.427 . S
C916 H907 0.930 . S
C916 C914 1.378 . S
C916 C917 1.367 . S
C917 C916 1.367 . S
C917 C919 1.433 . S
C918 C914 1.350 . S
C918 C915 1.463 . S
C918 N922 1.427 . S
C919 H909 0.929 . S
C919 C917 1.433 . S
C919 N922 1.384 . S
C920 H911 0.929 . S
C920 C912 1.378 . S
C920 C915 1.350 . S
C921 H908 0.929 . S
C921 C913 1.433 . S
C921 N923 1.384 . S
N922 C918 1.427 . S
N922 C919 1.384 . S
N923 C915 1.427 . S
N923 C921 1.384 . S
H924 C930 0.930 . S
H925 C934 0.930 . S
H926 C939 0.929 . S
H927 C937 0.929 . S
H928 C932 0.929 . S
H929 C938 0.929 . S
C930 H924 0.930 . S
C930 C931 1.367 . S
C930 C938 1.378 . S
C931 C930 1.367 . S
C931 C939 1.433 . S
C932 H928 0.929 . S
C932 C934 1.378 . S
C932 C936 1.350 . S
C933 C936 1.463 . S
C933 C938 1.350 . S
C933 N941 1.427 . S
C934 H925 0.930 . S
C934 C932 1.378 . S
C934 C935 1.367 . S
C935 C934 1.367 . S
C935 C937 1.433 . S
C936 C932 1.350 . S
C936 C933 1.463 . S
C936 N940 1.427 . S
C937 H927 0.929 . S
C937 C935 1.433 . S
C937 N940 1.384 . S
C938 H929 0.929 . S
C938 C930 1.378 . S
C938 C933 1.350 . S
C939 H926 0.929 . S
C939 C931 1.433 . S
C939 N941 1.384 . S
N940 C936 1.427 . S
N940 C937 1.384 . S
N941 C933 1.427 . S
N941 C939 1.384 . S
H942 C948 0.930 . S
H943 C952 0.930 . S
H944 C957 0.929 . S
H945 C955 0.929 . S
H946 C950 0.929 . S
H947 C956 0.929 . S
C948 H942 0.930 . S
C948 C949 1.367 . S
C948 C956 1.378 . S
C949 C948 1.367 . S
C949 C957 1.433 . S
C950 H946 0.929 . S
C950 C952 1.378 . S
C950 C954 1.350 . S
C951 C954 1.463 . S
C951 C956 1.350 . S
C951 N959 1.427 . S
C952 H943 0.930 . S
C952 C950 1.378 . S
C952 C953 1.367 . S
C953 C952 1.367 . S
C953 C955 1.433 . S
C954 C950 1.350 . S
C954 C951 1.463 . S
C954 N958 1.427 . S
C955 H945 0.929 . S
C955 C953 1.433 . S
C955 N958 1.384 . S
C956 H947 0.929 . S
C956 C948 1.378 . S
C956 C951 1.350 . S
C957 H944 0.929 . S
C957 C949 1.433 . S
C957 N959 1.384 . S
N958 C954 1.427 . S
N958 C955 1.384 . S
N959 C951 1.427 . S
N959 C957 1.384 . S
H960 C966 0.930 . S
H961 C970 0.930 . S
H962 C975 0.929 . S
H963 C973 0.929 . S
H964 C968 0.929 . S
H965 C974 0.929 . S
C966 H960 0.930 . S
C966 C967 1.367 . S
C966 C974 1.378 . S
C967 C966 1.367 . S
C967 C975 1.433 . S
C968 H964 0.929 . S
C968 C970 1.378 . S
C968 C972 1.350 . S
C969 C972 1.463 . S
C969 C974 1.350 . S
C969 N977 1.427 . S
C970 H961 0.930 . S
C970 C968 1.378 . S
C970 C971 1.367 . S
C971 C970 1.367 . S
C971 C973 1.433 . S
C972 C968 1.350 . S
C972 C969 1.463 . S
C972 N976 1.427 . S
C973 H963 0.929 . S
C973 C971 1.433 . S
C973 N976 1.384 . S
C974 H965 0.929 . S
C974 C966 1.378 . S
C974 C969 1.350 . S
C975 H962 0.929 . S
C975 C967 1.433 . S
C975 N977 1.384 . S
N976 C972 1.427 . S
N976 C973 1.384 . S
N977 C969 1.427 . S
N977 C975 1.384 . S
H978 C984 0.930 . S
H979 C988 0.930 . S
H980 C993 0.929 . S
H981 C991 0.929 . S
H982 C986 0.929 . S
H983 C992 0.929 . S
C984 H978 0.930 . S
C984 C985 1.367 . S
C984 C992 1.378 . S
C985 C984 1.367 . S
C985 C993 1.433 . S
C986 H982 0.929 . S
C986 C988 1.378 . S
C986 C990 1.350 . S
C987 C990 1.463 . S
C987 C992 1.350 . S
C987 N995 1.427 . S
C988 H979 0.930 . S
C988 C986 1.378 . S
C988 C989 1.367 . S
C989 C988 1.367 . S
C989 C991 1.433 . S
C990 C986 1.350 . S
C990 C987 1.463 . S
C990 N994 1.427 . S
C991 H981 0.929 . S
C991 C989 1.433 . S
C991 N994 1.384 . S
C992 H983 0.929 . S
C992 C984 1.378 . S
C992 C987 1.350 . S
C993 H980 0.929 . S
C993 C985 1.433 . S
C993 N995 1.384 . S
N994 C990 1.427 . S
N994 C991 1.384 . S
N995 C987 1.427 . S
N995 C993 1.384 . S
C575 C487 1.522 . S
C571 C31 1.652 . S
C593 C505 1.303 . S
C589 C91 1.405 . S
C607 C121 1.330 . S
C611 C529 1.322 . S
C629 C559 1.332 . S
C625 C181 1.380 . S
C647 C547 1.326 . S
C643 C271 1.440 . S
C661 C301 1.360 . S
C665 C500 1.321 . S
C679 C361 1.587 . S
C683 C520 1.494 . S
C697 C451 1.505 . S
C701 C525 1.313 . S
C715 C421 1.339 . S
C719 C541 1.305 . S
C733 C331 1.479 . S
C737 C496 1.309 . S
C755 C563 1.322 . S
C751 C211 1.405 . S
C773 C508 1.323 . S
C769 C61 1.382 . S
C787 C151 1.638 . S
C791 C526 1.498 . S
C805 C1 1.330 . S
C809 C484 1.335 . S
C827 C504 1.328 . S
C823 C391 1.427 . S
C845 C550 1.522 . S
C841 C241 1.614 . S
C863 C546 1.342 . S
C859 C20 1.465 1_556 S
C881 C499 1.353 . S
C877 C80 1.425 . S
C895 C140 1.452 . S
C899 C521 1.293 . S
C913 C200 1.439 . S
C917 C542 1.361 . S
C935 C483 1.340 . S
C931 C260 1.500 1_554 S
C949 C320 1.474 . S
C953 C517 1.389 . S
C971 C538 1.329 . S
C967 C380 1.505 . S
C989 C562 1.373 . S
C985 C440 1.450 . S
