# Generated by pormake.
# Topology ctn, (3,4)-cn, num edge types: 1
# Building blocks:
#     Node 0, Type 0, BuildingBlock: BETDAH_clean_linker_0, # of connection points: 3
#     Node 1, Type 0, BuildingBlock: BETDAH_clean_linker_0, # of connection points: 3
#     Node 2, Type 0, BuildingBlock: BETDAH_clean_linker_0, # of connection points: 3
#     Node 3, Type 0, BuildingBlock: BETDAH_clean_linker_0, # of connection points: 3
#     Node 4, Type 0, BuildingBlock: BETDAH_clean_linker_0, # of connection points: 3
#     Node 5, Type 0, BuildingBlock: BETDAH_clean_linker_0, # of connection points: 3
#     Node 6, Type 0, BuildingBlock: BETDAH_clean_linker_0, # of connection points: 3
#     Node 7, Type 0, BuildingBlock: BETDAH_clean_linker_0, # of connection points: 3
#     Node 8, Type 0, BuildingBlock: BETDAH_clean_linker_0, # of connection points: 3
#     Node 9, Type 0, BuildingBlock: BETDAH_clean_linker_0, # of connection points: 3
#     Node 10, Type 0, BuildingBlock: BETDAH_clean_linker_0, # of connection points: 3
#     Node 11, Type 0, BuildingBlock: BETDAH_clean_linker_0, # of connection points: 3
#     Node 12, Type 0, BuildingBlock: BETDAH_clean_linker_0, # of connection points: 3
#     Node 13, Type 0, BuildingBlock: BETDAH_clean_linker_0, # of connection points: 3
#     Node 14, Type 0, BuildingBlock: BETDAH_clean_linker_0, # of connection points: 3
#     Node 15, Type 0, BuildingBlock: BETDAH_clean_linker_0, # of connection points: 3
#     Node 16, Type 1, BuildingBlock: NAHDIM_clean_sbu_0, # of connection points: 4
#     Node 17, Type 1, BuildingBlock: NAHDIM_clean_sbu_0, # of connection points: 4
#     Node 18, Type 1, BuildingBlock: NAHDIM_clean_sbu_0, # of connection points: 4
#     Node 19, Type 1, BuildingBlock: NAHDIM_clean_sbu_0, # of connection points: 4
#     Node 20, Type 1, BuildingBlock: NAHDIM_clean_sbu_0, # of connection points: 4
#     Node 21, Type 1, BuildingBlock: NAHDIM_clean_sbu_0, # of connection points: 4
#     Node 22, Type 1, BuildingBlock: NAHDIM_clean_sbu_0, # of connection points: 4
#     Node 23, Type 1, BuildingBlock: NAHDIM_clean_sbu_0, # of connection points: 4
#     Node 24, Type 1, BuildingBlock: NAHDIM_clean_sbu_0, # of connection points: 4
#     Node 25, Type 1, BuildingBlock: NAHDIM_clean_sbu_0, # of connection points: 4
#     Node 26, Type 1, BuildingBlock: NAHDIM_clean_sbu_0, # of connection points: 4
#     Node 27, Type 1, BuildingBlock: NAHDIM_clean_sbu_0, # of connection points: 4
#     Edge 28, Type (0, 1), BuildingBlock: MIFKUJ_clean_linker_0, # of connection points: 2
#     Edge 29, Type (0, 1), BuildingBlock: MIFKUJ_clean_linker_0, # of connection points: 2
#     Edge 30, Type (0, 1), BuildingBlock: MIFKUJ_clean_linker_0, # of connection points: 2
#     Edge 31, Type (0, 1), BuildingBlock: MIFKUJ_clean_linker_0, # of connection points: 2
#     Edge 32, Type (0, 1), BuildingBlock: MIFKUJ_clean_linker_0, # of connection points: 2
#     Edge 33, Type (0, 1), BuildingBlock: MIFKUJ_clean_linker_0, # of connection points: 2
#     Edge 34, Type (0, 1), BuildingBlock: MIFKUJ_clean_linker_0, # of connection points: 2
#     Edge 35, Type (0, 1), BuildingBlock: MIFKUJ_clean_linker_0, # of connection points: 2
#     Edge 36, Type (0, 1), BuildingBlock: MIFKUJ_clean_linker_0, # of connection points: 2
#     Edge 37, Type (0, 1), BuildingBlock: MIFKUJ_clean_linker_0, # of connection points: 2
#     Edge 38, Type (0, 1), BuildingBlock: MIFKUJ_clean_linker_0, # of connection points: 2
#     Edge 39, Type (0, 1), BuildingBlock: MIFKUJ_clean_linker_0, # of connection points: 2
#     Edge 40, Type (0, 1), BuildingBlock: MIFKUJ_clean_linker_0, # of connection points: 2
#     Edge 41, Type (0, 1), BuildingBlock: MIFKUJ_clean_linker_0, # of connection points: 2
#     Edge 42, Type (0, 1), BuildingBlock: MIFKUJ_clean_linker_0, # of connection points: 2
#     Edge 43, Type (0, 1), BuildingBlock: MIFKUJ_clean_linker_0, # of connection points: 2
#     Edge 44, Type (0, 1), BuildingBlock: MIFKUJ_clean_linker_0, # of connection points: 2
#     Edge 45, Type (0, 1), BuildingBlock: MIFKUJ_clean_linker_0, # of connection points: 2
#     Edge 46, Type (0, 1), BuildingBlock: MIFKUJ_clean_linker_0, # of connection points: 2
#     Edge 47, Type (0, 1), BuildingBlock: MIFKUJ_clean_linker_0, # of connection points: 2
#     Edge 48, Type (0, 1), BuildingBlock: MIFKUJ_clean_linker_0, # of connection points: 2
#     Edge 49, Type (0, 1), BuildingBlock: MIFKUJ_clean_linker_0, # of connection points: 2
#     Edge 50, Type (0, 1), BuildingBlock: MIFKUJ_clean_linker_0, # of connection points: 2
#     Edge 51, Type (0, 1), BuildingBlock: MIFKUJ_clean_linker_0, # of connection points: 2
#     Edge 52, Type (0, 1), BuildingBlock: MIFKUJ_clean_linker_0, # of connection points: 2
#     Edge 53, Type (0, 1), BuildingBlock: MIFKUJ_clean_linker_0, # of connection points: 2
#     Edge 54, Type (0, 1), BuildingBlock: MIFKUJ_clean_linker_0, # of connection points: 2
#     Edge 55, Type (0, 1), BuildingBlock: MIFKUJ_clean_linker_0, # of connection points: 2
#     Edge 56, Type (0, 1), BuildingBlock: MIFKUJ_clean_linker_0, # of connection points: 2
#     Edge 57, Type (0, 1), BuildingBlock: MIFKUJ_clean_linker_0, # of connection points: 2
#     Edge 58, Type (0, 1), BuildingBlock: MIFKUJ_clean_linker_0, # of connection points: 2
#     Edge 59, Type (0, 1), BuildingBlock: MIFKUJ_clean_linker_0, # of connection points: 2
#     Edge 60, Type (0, 1), BuildingBlock: MIFKUJ_clean_linker_0, # of connection points: 2
#     Edge 61, Type (0, 1), BuildingBlock: MIFKUJ_clean_linker_0, # of connection points: 2
#     Edge 62, Type (0, 1), BuildingBlock: MIFKUJ_clean_linker_0, # of connection points: 2
#     Edge 63, Type (0, 1), BuildingBlock: MIFKUJ_clean_linker_0, # of connection points: 2
#     Edge 64, Type (0, 1), BuildingBlock: MIFKUJ_clean_linker_0, # of connection points: 2
#     Edge 65, Type (0, 1), BuildingBlock: MIFKUJ_clean_linker_0, # of connection points: 2
#     Edge 66, Type (0, 1), BuildingBlock: MIFKUJ_clean_linker_0, # of connection points: 2
#     Edge 67, Type (0, 1), BuildingBlock: MIFKUJ_clean_linker_0, # of connection points: 2
#     Edge 68, Type (0, 1), BuildingBlock: MIFKUJ_clean_linker_0, # of connection points: 2
#     Edge 69, Type (0, 1), BuildingBlock: MIFKUJ_clean_linker_0, # of connection points: 2
#     Edge 70, Type (0, 1), BuildingBlock: MIFKUJ_clean_linker_0, # of connection points: 2
#     Edge 71, Type (0, 1), BuildingBlock: MIFKUJ_clean_linker_0, # of connection points: 2
#     Edge 72, Type (0, 1), BuildingBlock: MIFKUJ_clean_linker_0, # of connection points: 2
#     Edge 73, Type (0, 1), BuildingBlock: MIFKUJ_clean_linker_0, # of connection points: 2
#     Edge 74, Type (0, 1), BuildingBlock: MIFKUJ_clean_linker_0, # of connection points: 2
#     Edge 75, Type (0, 1), BuildingBlock: MIFKUJ_clean_linker_0, # of connection points: 2
# Relax obj value: 0.048
# Max RMSD: 0.161
# Mean RMSD: 0.102
data_MOF--net-ctn--node1-NAHDIM_clean_sbu_0--node2-BETDAH_clean_linker_0--edge1-MIFKUJ_clean_linker_0
_symmetry_space_group_name_H-M    P1
_symmetry_Int_Tables_number       1
_symmetry_cell_setting            triclinic
loop_
_symmetry_equiv_pos_as_xyz
'x, y, z'
_cell_length_a     70.430443
_cell_length_b     70.684519
_cell_length_c     71.021533
_cell_angle_alpha  99.547907
_cell_angle_beta   90.410669
_cell_angle_gamma 96.666832
loop_
_atom_site_label
_atom_site_type_symbol
_atom_site_fract_x
_atom_site_fract_y
_atom_site_fract_z
_atom_type_partial_charge
H0 H 0.07248 0.04597 0.09398 0.0
H1 H 0.07175 0.04178 0.03275 0.0
H2 H 0.02774 0.06788 0.06534 0.0
C3 C 0.06621 0.04894 0.08096 0.0
C4 C 0.04929 0.05779 0.08182 0.0
C5 C 0.07455 0.04313 0.06333 0.0
C6 C 0.06596 0.04674 0.04655 0.0
C7 C 0.04944 0.05607 0.04729 0.0
C8 C 0.04102 0.06146 0.06491 0.0
N9 N 0.04013 0.05763 0.03 0.0
C10 C 0.03878 0.07524 0.02413 0.0
H11 H 0.32215 0.69695 0.24981 0.0
H12 H 0.3527 0.74435 0.22781 0.0
H13 H 0.30002 0.71611 0.2003 0.0
C14 C 0.32322 0.70669 0.23949 0.0
C15 C 0.30919 0.70452 0.22481 0.0
C16 C 0.33902 0.72088 0.24063 0.0
C17 C 0.34052 0.73335 0.22716 0.0
C18 C 0.32633 0.73208 0.21298 0.0
C19 C 0.31058 0.71765 0.21178 0.0
N20 N 0.32908 0.745 0.19968 0.0
C21 C 0.31483 0.7502 0.18862 0.0
H22 H 0.01415 0.44981 0.04798 0.0
H23 H 0.00847 0.50998 0.06508 0.0
H24 H 0.98423 0.48004 0.01117 0.0
C25 C 0.00858 0.46277 0.0452 0.0
C26 C 0.99855 0.46261 0.02793 0.0
C27 C 0.0119 0.47967 0.05881 0.0
C28 C 0.00543 0.49667 0.05494 0.0
C29 C 0.99535 0.49682 0.03795 0.0
C30 C 0.99174 0.47976 0.02447 0.0
N31 N 0.99074 0.51479 0.03409 0.0
C32 C 0.97299 0.51783 0.02733 0.0
H33 H 0.77692 0.82564 0.19047 0.0
H34 H 0.73903 0.78962 0.22081 0.0
H35 H 0.76689 0.84385 0.25006 0.0
C36 C 0.76978 0.8232 0.20348 0.0
C37 C 0.77315 0.83709 0.22011 0.0
C38 C 0.75761 0.80596 0.20362 0.0
C39 C 0.74839 0.80287 0.22056 0.0
C40 C 0.75164 0.81674 0.23725 0.0
C41 C 0.76411 0.83356 0.23694 0.0
N42 N 0.74327 0.81412 0.25487 0.0
C43 C 0.72697 0.80162 0.25688 0.0
H44 H 0.06978 0.00709 0.45987 0.0
H45 H 0.07947 1.00044 0.51821 0.0
H46 H 0.02491 0.97967 0.49043 0.0
C47 C 0.06487 0.00169 0.47264 0.0
C48 C 0.04607 0.99271 0.47305 0.0
C49 C 0.07708 0.0046 0.48884 0.0
C50 C 0.07045 0.99781 0.5054 0.0
C51 C 0.05182 0.98849 0.50587 0.0
C52 C 0.03957 0.98612 0.48976 0.0
N53 N 0.04474 0.98402 0.52339 0.0
C54 C 0.0421 0.96527 0.52723 0.0
H55 H 0.25794 0.72081 0.83925 0.0
H56 H 0.20647 0.7357 0.81516 0.0
H57 H 0.23019 0.68429 0.79001 0.0
C58 C 0.24662 0.7179 0.82837 0.0
C59 C 0.24593 0.70119 0.81451 0.0
C60 C 0.23239 0.7304 0.82884 0.0
C61 C 0.21742 0.72611 0.81497 0.0
C62 C 0.2167 0.70944 0.8009 0.0
C63 C 0.23084 0.69707 0.80092 0.0
N64 N 0.20199 0.70443 0.78655 0.0
C65 C 0.18825 0.71608 0.78294 0.0
H66 H 0.9621 0.55652 0.51012 0.0
H67 H 0.00188 0.56687 0.46619 0.0
H68 H 0.959 0.51752 0.45655 0.0
C69 C 0.96764 0.55204 0.49609 0.0
C70 C 0.95863 0.53553 0.48423 0.0
C71 C 0.9832 0.56342 0.48972 0.0
C72 C 0.98997 0.55807 0.47121 0.0
C73 C 0.98119 0.54137 0.45929 0.0
C74 C 0.96558 0.53037 0.46585 0.0
N75 N 0.98722 0.53516 0.44047 0.0
C76 C 0.00414 0.54193 0.43257 0.0
H77 H 0.83082 0.76033 0.80716 0.0
H78 H 0.80274 0.8016 0.78194 0.0
H79 H 0.77685 0.77645 0.82791 0.0
C80 C 0.81902 0.76879 0.80656 0.0
C81 C 0.80416 0.76724 0.81951 0.0
C82 C 0.81873 0.78113 0.79285 0.0
C83 C 0.80317 0.79197 0.79227 0.0
C84 C 0.78807 0.79021 0.80497 0.0
C85 C 0.78868 0.77784 0.81835 0.0
N86 N 0.77169 0.80012 0.80457 0.0
C87 C 0.77017 0.81612 0.79586 0.0
H88 H 0.33318 0.26459 0.3095 0.0
H89 H 0.30034 0.29832 0.27891 0.0
H90 H 0.27431 0.2694 0.32244 0.0
C91 C 0.32008 0.27066 0.30721 0.0
C92 C 0.30408 0.26605 0.31797 0.0
C93 C 0.31886 0.28199 0.29274 0.0
C94 C 0.30153 0.28949 0.28986 0.0
C95 C 0.2855 0.28495 0.30066 0.0
C96 C 0.28681 0.273 0.31433 0.0
N97 N 0.26743 0.29105 0.29748 0.0
C98 C 0.26447 0.30817 0.29131 0.0
H99 H 0.51412 0.94769 0.54633 0.0
H100 H 0.50388 0.00731 0.55281 0.0
H101 H 0.49571 0.97109 0.49801 0.0
C102 C 0.50997 0.95969 0.54019 0.0
C103 C 0.50472 0.95689 0.52071 0.0
C104 C 0.51022 0.97789 0.55186 0.0
C105 C 0.50361 0.99314 0.54415 0.0
C106 C 0.4981 0.99045 0.52473 0.0
C107 C 0.49912 0.97257 0.51312 0.0
N108 N 0.49324 0.00588 0.51593 0.0
C109 C 0.48138 0.01934 0.5238 0.0
H110 H 0.27289 0.3244 0.69752 0.0
H111 H 0.22756 0.2911 0.72251 0.0
H112 H 0.25559 0.34397 0.75462 0.0
C113 C 0.26364 0.32249 0.70936 0.0
C114 C 0.26571 0.33629 0.7261 0.0
C115 C 0.24988 0.30614 0.70787 0.0
C116 C 0.23812 0.30367 0.72348 0.0
C117 C 0.24017 0.31749 0.74032 0.0
C118 C 0.25393 0.33359 0.74147 0.0
N119 N 0.22914 0.31573 0.75671 0.0
C120 C 0.21299 0.30265 0.75763 0.0
H121 H 0.81377 0.19836 0.74942 0.0
H122 H 0.83503 0.23744 0.71172 0.0
H123 H 0.78664 0.19515 0.69438 0.0
C124 C 0.81272 0.20378 0.73609 0.0
C125 C 0.79827 0.19519 0.72262 0.0
C126 C 0.82616 0.21894 0.73229 0.0
C127 C 0.82469 0.22589 0.71491 0.0
C128 C 0.81023 0.21737 0.70136 0.0
C129 C 0.79735 0.20196 0.7052 0.0
N130 N 0.809 0.22288 0.68314 0.0
C131 C 0.81219 0.24176 0.67973 0.0
H132 H 0.57344 0.5303 0.59421 0.0
H133 H 0.57716 0.55388 0.54187 0.0
H134 H 0.53143 0.56549 0.57995 0.0
C135 C 0.56818 0.53919 0.58475 0.0
C136 C 0.55152 0.54792 0.58943 0.0
C137 C 0.57759 0.54114 0.5676 0.0
C138 C 0.57013 0.5522 0.55511 0.0
C139 C 0.55333 0.56077 0.5596 0.0
C140 C 0.54419 0.55851 0.5766 0.0
N141 N 0.54461 0.57118 0.54718 0.0
C142 C 0.55389 0.58049 0.53349 0.0
H143 H 0.568 0.50656 0.96624 0.0
H144 H 0.5748 0.46883 0.00701 0.0
H145 H 0.52173 0.46409 0.97548 0.0
C146 C 0.56236 0.49467 0.97323 0.0
C147 C 0.54351 0.48606 0.96903 0.0
C148 C 0.57384 0.48853 0.98683 0.0
C149 C 0.5661 0.47367 0.99653 0.0
C150 C 0.54719 0.46495 0.99242 0.0
C151 C 0.53614 0.47117 0.97872 0.0
N152 N 0.53856 0.44987 0.00158 0.0
C153 C 0.54726 0.4413 0.01507 0.0
H154 H 0.76207 0.21436 0.34512 0.0
H155 H 0.70978 0.22856 0.322 0.0
H156 H 0.73344 0.1772 0.29673 0.0
C157 C 0.75049 0.21126 0.33452 0.0
C158 C 0.74968 0.19447 0.32073 0.0
C159 C 0.73609 0.22359 0.33525 0.0
C160 C 0.72087 0.2191 0.32166 0.0
C161 C 0.71997 0.20232 0.30774 0.0
C162 C 0.73423 0.19005 0.30755 0.0
N163 N 0.70489 0.19703 0.29383 0.0
C164 C 0.69243 0.20937 0.28886 0.0
H165 H 0.45585 0.05109 0.01902 0.0
H166 H 0.4995 0.06039 0.97815 0.0
H167 H 0.45973 0.00849 0.96899 0.0
C168 C 0.4628 0.04626 0.0058 0.0
C169 C 0.45593 0.02844 0.99474 0.0
C170 C 0.47861 0.05782 1.00006 0.0
C171 C 0.48735 0.05155 0.98269 0.0
C172 C 0.48052 0.03359 0.97153 0.0
C173 C 0.46497 0.02222 0.97772 0.0
N174 N 0.48869 0.02618 0.95403 0.0
C175 C 0.50421 0.03492 0.9454 0.0
C176 C 0.22681 0.92249 0.03451 0.0
O177 O 0.23944 0.92541 0.02144 0.0
O178 O 0.2444 0.87548 0.01157 0.0
Zn179 Zn 0.24983 0.89253 0.03748 0.0
O180 O 0.27406 0.91081 0.03653 0.0
C181 C 0.24636 0.85813 0.05535 0.0
O182 O 0.23677 0.85038 0.03948 0.0
O183 O 0.22807 0.90867 0.04369 0.0
C184 C 0.29053 0.90676 0.04073 0.0
O185 O 0.29209 0.89011 0.04617 0.0
C186 C 0.25787 0.8708 1.00055 0.0
O187 O 0.27561 0.8773 0.00602 0.0
O188 O 0.25296 0.87593 0.05777 0.0
C189 C 0.16942 0.47081 0.26537 0.0
O190 O 0.1529 0.47153 0.27378 0.0
O191 O 0.14549 0.5128 0.27885 0.0
Zn192 Zn 0.15982 0.5062 0.25428 0.0
O193 O 0.17755 0.52965 0.24971 0.0
C194 C 0.12325 0.49647 0.23259 0.0
O195 O 0.11548 0.49925 0.24942 0.0
O196 O 0.17547 0.48418 0.25617 0.0
C197 C 0.17213 0.54149 0.23967 0.0
O198 O 0.15468 0.53845 0.23224 0.0
C199 C 0.13696 0.52788 0.2822 0.0
O200 O 0.13761 0.53953 0.26955 0.0
O201 O 0.14137 0.4982 0.23152 0.0
C202 C 0.80432 0.60704 1.00015 0.0
O203 O 0.78841 0.59734 0.99226 0.0
O204 O 0.78482 0.65467 0.98221 0.0
Zn205 Zn 0.7818 0.63949 0.00408 0.0
O206 O 0.7577 0.62054 1.00027 0.0
C207 C 0.77111 0.67297 0.02916 0.0
O208 O 0.76406 0.67664 0.01314 0.0
O209 O 0.80487 0.62511 0.00607 0.0
C210 C 0.75062 0.61404 0.01469 0.0
O211 O 0.75914 0.61992 0.0315 0.0
C212 C 0.79017 0.64753 0.96575 0.0
O213 O 0.79378 0.62946 0.96255 0.0
O214 O 0.77962 0.658 0.02877 0.0
C215 C 0.88982 0.06031 0.29722 0.0
O216 O 0.88404 0.04219 0.29834 0.0
O217 O 0.9377 0.03836 0.30639 0.0
Zn218 Zn 0.92332 0.04346 0.28318 0.0
O219 O 0.90572 0.01937 0.27206 0.0
C220 C 0.9563 0.04401 0.25808 0.0
O221 O 0.96126 0.03043 0.26702 0.0
O222 O 0.90657 0.06466 0.29142 0.0
C223 C 0.90905 0.00694 0.25774 0.0
O224 O 0.92524 0.00921 0.24888 0.0
C225 C 0.94312 0.02192 0.30706 0.0
O226 O 0.93973 0.00806 0.29224 0.0
O227 O 0.9412 0.05169 0.26286 0.0
C228 C 0.33233 0.13684 0.50917 0.0
O229 O 0.33579 0.15159 0.50011 0.0
O230 O 0.29776 0.16111 0.48723 0.0
Zn231 Zn 0.29286 0.14628 0.50933 0.0
O232 O 0.26948 0.12654 0.5038 0.0
C233 C 0.28237 0.18089 0.53363 0.0
O234 O 0.28048 0.1871 0.51736 0.0
O235 O 0.31537 0.13218 0.51424 0.0
C236 C 0.25327 0.13149 0.50005 0.0
O237 O 0.2519 0.1497 0.49915 0.0
C238 C 0.29195 0.15392 0.47026 0.0
O239 O 0.28291 0.13632 0.46685 0.0
O240 O 0.28781 0.16433 0.53354 0.0
C241 C 0.38165 0.56281 0.79774 0.0
O242 O 0.3748 0.54491 0.79866 0.0
O243 O 0.43137 0.54163 0.80911 0.0
Zn244 Zn 0.4151 0.54433 0.78643 0.0
O245 O 0.39772 0.51956 0.7784 0.0
C246 C 0.44958 0.54691 0.76421 0.0
O247 O 0.45775 0.54335 0.77972 0.0
O248 O 0.39894 0.56639 0.79305 0.0
C249 C 0.40408 0.50384 0.77146 0.0
O250 O 0.42261 0.50362 0.76964 0.0
C251 C 0.42405 0.53606 0.82385 0.0
O252 O 0.40537 0.53258 0.82461 0.0
O253 O 0.43176 0.54843 0.76404 0.0
C254 C 0.72684 0.41806 0.5287 0.0
O255 O 0.73159 0.41191 0.51108 0.0
O256 O 0.75059 0.3766 0.51284 0.0
Zn257 Zn 0.75751 0.39688 0.53643 0.0
O258 O 0.78079 0.41452 0.53107 0.0
C259 C 0.77772 0.3741 0.55775 0.0
O260 O 0.78836 0.37352 0.54259 0.0
O261 O 0.73582 0.41319 0.5424 0.0
C262 C 0.793 0.42312 0.54383 0.0
O263 O 0.7905 0.42084 0.56167 0.0
C264 C 0.76312 0.37266 0.50043 0.0
O265 O 0.78049 0.38183 0.50317 0.0
O266 O 0.76331 0.3835 0.55862 0.0
C267 C 0.67245 0.97593 0.76871 0.0
O268 O 0.67651 0.9924 0.78042 0.0
O269 O 0.62989 0.00329 0.77998 0.0
Zn270 Zn 0.64467 0.99759 0.75556 0.0
O271 O 0.66434 0.02026 0.75297 0.0
C272 C 0.61058 0.9995 0.73275 0.0
O273 O 0.60564 0.01005 0.74856 0.0
O274 O 0.65884 0.97434 0.75646 0.0
C275 C 0.66013 0.03446 0.74552 0.0
O276 O 0.64249 0.03455 0.73946 0.0
C277 C 0.63146 0.01983 0.79056 0.0
O278 O 0.64331 0.03393 0.78583 0.0
O279 O 0.62641 0.9924 0.73249 0.0
C280 C 0.01301 0.22554 0.91617 0.0
O281 O 0.00231 0.23921 0.92232 0.0
O282 O 0.99608 0.24092 0.8669 0.0
Zn283 Zn 0.01919 0.2472 0.88487 0.0
O284 O 0.01663 0.27222 0.90267 0.0
C285 C 0.04179 0.25321 0.85192 0.0
O286 O 0.0249 0.25421 0.84445 0.0
O287 O 0.02138 0.22579 0.90037 0.0
C288 C 0.01606 0.28793 0.89628 0.0
O289 O 0.0176 0.28788 0.87785 0.0
C290 C 0.9794 0.24457 0.87181 0.0
O291 O 0.97649 0.25168 0.88971 0.0
O292 O 0.04299 0.25043 0.86913 0.0
C293 C 0.55061 0.72312 0.41475 0.0
O294 O 0.55879 0.74092 0.41995 0.0
O295 O 0.5122 0.73182 0.36739 0.0
Zn296 Zn 0.53597 0.73977 0.38412 0.0
O297 O 0.53313 0.76494 0.40153 0.0
C298 C 0.55688 0.74763 0.35084 0.0
O299 O 0.53975 0.74941 0.34441 0.0
O300 O 0.53995 0.71908 0.39976 0.0
C301 C 0.52396 0.77755 0.39592 0.0
O302 O 0.51644 0.77412 0.37853 0.0
C303 C 0.49552 0.73072 0.37414 0.0
O304 O 0.49362 0.73397 0.39275 0.0
O305 O 0.55877 0.74361 0.3675 0.0
C306 C 0.00699 0.80062 0.62142 0.0
O307 O 0.99121 0.78862 0.61769 0.0
O308 O 0.98776 0.77821 0.66223 0.0
Zn309 Zn 0.01244 0.77505 0.64787 0.0
O310 O 0.00939 0.75079 0.62777 0.0
C311 C 0.03197 0.76965 0.68282 0.0
O312 O 0.01446 0.76662 0.6888 0.0
O313 O 0.01863 0.79791 0.63421 0.0
C314 C 0.01452 0.73488 0.63089 0.0
O315 O 0.02151 0.7339 0.64785 0.0
C316 C 0.9767 0.76395 0.66627 0.0
O317 O 0.98119 0.74638 0.66086 0.0
O318 O 0.03451 0.77376 0.66616 0.0
C319 C 0.53644 0.29505 0.13073 0.0
O320 O 0.54486 0.27934 0.12615 0.0
O321 O 0.49456 0.27491 0.17276 0.0
Zn322 Zn 0.51766 0.27191 0.15607 0.0
O323 O 0.51235 0.24852 0.13517 0.0
C324 C 0.54148 0.27392 0.19019 0.0
O325 O 0.52758 0.28265 0.19864 0.0
O326 O 0.52401 0.29555 0.14365 0.0
C327 C 0.51297 0.23159 0.13882 0.0
O328 O 0.51655 0.22944 0.15648 0.0
C329 C 0.4776 0.27343 0.16596 0.0
O330 O 0.47475 0.2698 0.14734 0.0
O331 O 0.54039 0.26831 0.1722 0.0
H332 H 0.26342 0.75614 0.84207 0.0
H333 H 0.26562 0.78138 0.87028 0.0
H334 H 0.20528 0.76849 0.87899 0.0
H335 H 0.20298 0.74306 0.85072 0.0
H336 H 0.21762 0.80803 0.88673 0.0
H337 H 0.23562 0.74967 0.90385 0.0
H338 H 0.25335 0.72126 0.90078 0.0
H339 H 0.30644 0.75844 0.91022 0.0
H340 H 0.28904 0.78709 0.91304 0.0
H341 H 0.22311 0.85288 0.98542 0.0
H342 H 0.21693 0.83039 0.95527 0.0
H343 H 0.27715 0.83685 0.94363 0.0
H344 H 0.28348 0.85907 0.97374 0.0
H345 H 0.26291 0.79974 0.93777 0.0
H346 H 0.24497 0.85817 0.91999 0.0
H347 H 0.22727 0.88658 0.92272 0.0
H348 H 0.17408 0.84943 0.91472 0.0
H349 H 0.19147 0.82079 0.9122 0.0
C350 C 0.25058 0.75876 0.84991 0.0
C351 C 0.23308 0.74743 0.84433 0.0
C352 C 0.25186 0.77321 0.866 0.0
C353 C 0.23569 0.77657 0.87692 0.0
C354 C 0.21794 0.76608 0.87078 0.0
C355 C 0.21664 0.7516 0.85462 0.0
C356 C 0.23769 0.79013 0.89536 0.0
C357 C 0.22731 0.80611 0.89802 0.0
C358 C 0.25053 0.78772 0.90997 0.0
C359 C 0.26103 0.77052 0.90849 0.0
C360 C 0.25109 0.75179 0.90514 0.0
C361 C 0.26107 0.73564 0.90345 0.0
C362 C 0.28101 0.73804 0.90526 0.0
C363 C 0.291 0.7566 0.9088 0.0
C364 C 0.28108 0.7728 0.91046 0.0
C365 C 0.23502 0.84959 0.97639 0.0
C366 C 0.2538 0.85775 0.98202 0.0
C367 C 0.23145 0.83679 0.95912 0.0
C368 C 0.24656 0.83203 0.94712 0.0
C369 C 0.26527 0.84029 0.95266 0.0
C370 C 0.26885 0.85303 0.96989 0.0
C371 C 0.24312 0.81792 0.92909 0.0
C372 C 0.25318 0.80171 0.92653 0.0
C373 C 0.22998 0.82015 0.91464 0.0
C374 C 0.21951 0.83734 0.91612 0.0
C375 C 0.22949 0.85606 0.91897 0.0
C376 C 0.21952 0.8722 0.92045 0.0
C377 C 0.19956 0.86981 0.91895 0.0
C378 C 0.18954 0.85126 0.91591 0.0
C379 C 0.19945 0.83507 0.91444 0.0
H380 H 0.19186 0.88233 0.92009 0.0
H381 H 0.28872 0.72552 0.90394 0.0
H382 H 0.03623 0.52465 0.43175 0.0
H383 H 0.06137 0.52586 0.40814 0.0
H384 H 0.03372 0.56781 0.38357 0.0
H385 H 0.0084 0.56629 0.40707 0.0
H386 H 0.04069 0.539 0.35682 0.0
H387 H 0.07748 0.57989 0.40763 0.0
H388 H 0.09178 0.58976 0.44007 0.0
H389 H 0.12335 0.54072 0.43183 0.0
H390 H 0.10903 0.53039 0.39942 0.0
H391 H 0.11289 0.55557 0.29062 0.0
H392 H 0.09243 0.56079 0.31818 0.0
H393 H 0.1141 0.5141 0.34046 0.0
H394 H 0.13464 0.5087 0.31283 0.0
H395 H 0.11092 0.54691 0.36861 0.0
H396 H 0.07262 0.5054 0.31847 0.0
H397 H 0.05843 0.49579 0.28597 0.0
H398 H 0.02962 0.54672 0.29324 0.0
H399 H 0.0439 0.5568 0.3257 0.0
C400 C 0.03589 0.53451 0.42162 0.0
C401 C 0.02066 0.54556 0.42124 0.0
C402 C 0.05023 0.53521 0.40813 0.0
C403 C 0.04953 0.54702 0.3941 0.0
C404 C 0.03459 0.55862 0.39425 0.0
C405 C 0.02024 0.55788 0.40773 0.0
C406 C 0.06334 0.54591 0.3783 0.0
C407 C 0.05605 0.54112 0.35944 0.0
C408 C 0.08339 0.54812 0.38166 0.0
C409 C 0.09204 0.55427 0.40115 0.0
C410 C 0.08735 0.57112 0.41279 0.0
C411 C 0.09548 0.57681 0.43116 0.0
C412 C 0.10843 0.56585 0.43802 0.0
C413 C 0.1133 0.54919 0.4265 0.0
C414 C 0.1052 0.54342 0.40812 0.0
C415 C 0.11343 0.54647 0.30142 0.0
C416 C 0.12534 0.53163 0.29946 0.0
C417 C 0.10169 0.54946 0.31716 0.0
C418 C 0.10165 0.53775 0.33129 0.0
C419 C 0.11394 0.52331 0.32971 0.0
C420 C 0.12559 0.52019 0.31387 0.0
C421 C 0.0882 0.54008 0.34728 0.0
C422 C 0.09555 0.54499 0.3661 0.0
C423 C 0.06818 0.53804 0.34392 0.0
C424 C 0.0595 0.53196 0.32444 0.0
C425 C 0.0634 0.51464 0.31308 0.0
C426 C 0.05532 0.50909 0.29467 0.0
C427 C 0.04318 0.52067 0.28752 0.0
C428 C 0.03906 0.53779 0.29878 0.0
C429 C 0.04713 0.54342 0.31719 0.0
H430 H 0.03693 0.51634 0.27327 0.0
H431 H 0.11471 0.57029 0.45225 0.0
H432 H 0.79548 0.77575 0.85715 0.0
H433 H 0.79484 0.75479 0.88129 0.0
H434 H 0.81353 0.7094 0.83981 0.0
H435 H 0.8138 0.73024 0.81539 0.0
H436 H 0.78387 0.6959 0.86018 0.0
H437 H 0.84426 0.73435 0.87429 0.0
H438 H 0.86646 0.76444 0.88114 0.0
H439 H 0.83604 0.78288 0.93179 0.0
H440 H 0.81347 0.75301 0.9251 0.0
H441 H 0.80136 0.63678 0.92904 0.0
H442 H 0.80521 0.65657 0.90386 0.0
H443 H 0.78795 0.70505 0.94237 0.0
H444 H 0.78429 0.68543 0.96771 0.0
H445 H 0.81852 0.71609 0.92266 0.0
H446 H 0.75724 0.67866 0.90772 0.0
H447 H 0.73468 0.64882 0.90085 0.0
H448 H 0.76657 0.62867 0.85177 0.0
H449 H 0.78949 0.6583 0.8585 0.0
C450 C 0.79941 0.76129 0.85313 0.0
C451 C 0.80465 0.75465 0.83433 0.0
C452 C 0.7992 0.74937 0.867 0.0
C453 C 0.8043 0.73057 0.86242 0.0
C454 C 0.80959 0.72388 0.84367 0.0
C455 C 0.80988 0.73585 0.82978 0.0
C456 C 0.80359 0.71781 0.87714 0.0
C457 C 0.79171 0.70015 0.87371 0.0
C458 C 0.81348 0.72355 0.89498 0.0
C459 C 0.82707 0.74151 0.89909 0.0
C460 C 0.8422 0.74489 0.88681 0.0
C461 C 0.85487 0.76189 0.89068 0.0
C462 C 0.85264 0.77558 0.90687 0.0
C463 C 0.83774 0.77227 0.91925 0.0
C464 C 0.82502 0.7553 0.91543 0.0
C465 C 0.79836 0.65165 0.93218 0.0
C466 C 0.79245 0.65949 0.9504 0.0
C467 C 0.80052 0.66293 0.91772 0.0
C468 C 0.79669 0.68226 0.92115 0.0
C469 C 0.79098 0.69017 0.93938 0.0
C470 C 0.78883 0.67891 0.95385 0.0
C471 C 0.79866 0.69425 0.90576 0.0
C472 C 0.81078 0.71177 0.90908 0.0
C473 C 0.78897 0.6884 0.88783 0.0
C474 C 0.77519 0.6706 0.88374 0.0
C475 C 0.75953 0.66779 0.89556 0.0
C476 C 0.74666 0.65094 0.89167 0.0
C477 C 0.74922 0.63684 0.87592 0.0
C478 C 0.76463 0.63959 0.86398 0.0
C479 C 0.77756 0.65642 0.86782 0.0
H480 H 0.73924 0.6238 0.87293 0.0
H481 H 0.86246 0.78874 0.90984 0.0
H482 H 0.01321 0.00933 0.47253 0.0
H483 H 0.99431 0.01265 0.44448 0.0
H484 H 0.03056 0.97778 0.40828 0.0
H485 H 0.05009 0.97546 0.43632 0.0
H486 H 0.02636 0.00654 0.39294 0.0
H487 H 0.98144 0.96221 0.41842 0.0
H488 H 0.9613 0.9494 0.44278 0.0
H489 H 0.93076 0.99914 0.44888 0.0
H490 H 0.9509 0.01238 0.42474 0.0
H491 H 0.96479 0.99288 0.30992 0.0
H492 H 0.98103 0.98666 0.33847 0.0
H493 H 0.95965 0.03595 0.37194 0.0
H494 H 0.94364 0.04256 0.34333 0.0
H495 H 0.9555 0.99926 0.38807 0.0
H496 H 0.00231 0.04287 0.36185 0.0
H497 H 0.02211 0.0534 0.33614 0.0
H498 H 0.04861 0.00107 0.32994 0.0
H499 H 0.02874 0.9901 0.35545 0.0
C500 C 0.01685 0.00208 0.45859 0.0
C501 C 0.03296 0.99202 0.45652 0.0
C502 C 0.00602 0.00391 0.44255 0.0
C503 C 0.01079 0.99527 0.42416 0.0
C504 C 0.02656 0.98464 0.42224 0.0
C505 C 0.03764 0.98318 0.43824 0.0
C506 C 1.00023 0.99842 0.40686 0.0
C507 C 0.01086 0.00458 0.39184 0.0
C508 C 0.97997 0.9963 0.40538 0.0
C509 C 0.9678 0.98837 0.41989 0.0
C510 C 0.97053 0.97049 0.42506 0.0
C511 C 0.95909 0.96313 0.43881 0.0
C512 C 0.94479 0.97347 0.4474 0.0
C513 C 0.94186 0.99116 0.44222 0.0
C514 C 0.95327 0.99858 0.42849 0.0
C515 C 0.96354 0.00242 0.32335 0.0
C516 C 0.95299 0.01826 0.32436 0.0
C517 C 0.97282 0.99883 0.33963 0.0
C518 C 0.97151 0.01084 0.35728 0.0
C519 C 0.96077 0.0265 0.35844 0.0
C520 C 0.95175 0.03031 0.34207 0.0
C521 C 0.98169 0.00722 0.37443 0.0
C522 C 0.97099 0.00105 0.38932 0.0
C523 C 0.00187 0.00894 0.37566 0.0
C524 C 0.01389 0.01558 0.36041 0.0
C525 C 0.01223 0.03353 0.35488 0.0
C526 C 0.02349 0.0396 0.34037 0.0
C527 C 0.03657 0.02789 0.33137 0.0
C528 C 0.03845 0.01011 0.33691 0.0
C529 C 0.02721 0.00397 0.3514 0.0
H530 H 0.04528 0.03261 0.32014 0.0
H531 H 0.93596 0.96775 0.45804 0.0
H532 H 0.24835 0.26684 0.70459 0.0
H533 H 0.25054 0.24345 0.67526 0.0
H534 H 0.25118 0.28925 0.64191 0.0
H535 H 0.24872 0.31258 0.67108 0.0
H536 H 0.22968 0.25596 0.62433 0.0
H537 H 0.29232 0.27498 0.65439 0.0
H538 H 0.31594 0.27937 0.68102 0.0
H539 H 0.30747 0.21846 0.68233 0.0
H540 H 0.28357 0.21375 0.65587 0.0
H541 H 0.27368 0.21811 0.5394 0.0
H542 H 0.2654 0.23746 0.56932 0.0
H543 H 0.27138 0.18977 0.59888 0.0
H544 H 0.28016 0.17048 0.56908 0.0
H545 H 0.28768 0.22191 0.61926 0.0
H546 H 0.22678 0.20228 0.58751 0.0
H547 H 0.20304 0.19781 0.56098 0.0
H548 H 0.20768 0.25921 0.56286 0.0
H549 H 0.23166 0.26404 0.58923 0.0
C550 C 0.24854 0.27182 0.69096 0.0
C551 C 0.24854 0.29155 0.69012 0.0
C552 C 0.24993 0.25849 0.67424 0.0
C553 C 0.2513 0.26467 0.65643 0.0
C554 C 0.25021 0.28418 0.65549 0.0
C555 C 0.24892 0.2975 0.67218 0.0
C556 C 0.25514 0.25117 0.63889 0.0
C557 C 0.2424 0.24858 0.62315 0.0
C558 C 0.27155 0.24126 0.63751 0.0
C559 C 0.28601 0.24405 0.65331 0.0
C560 C 0.29539 0.26255 0.66046 0.0
C561 C 0.30884 0.26509 0.6755 0.0
C562 C 0.31317 0.24921 0.6834 0.0
C563 C 0.30408 0.23075 0.67623 0.0
C564 C 0.29059 0.22813 0.6612 0.0
C565 C 0.27323 0.21172 0.55225 0.0
C566 C 0.27755 0.19273 0.55182 0.0
C567 C 0.26837 0.22277 0.56935 0.0
C568 C 0.26744 0.21498 0.58633 0.0
C569 C 0.27193 0.19608 0.58597 0.0
C570 C 0.27694 0.18507 0.5689 0.0
C571 C 0.26226 0.22671 0.60454 0.0
C572 C 0.2748 0.22905 0.62043 0.0
C573 C 0.24562 0.23634 0.60606 0.0
C574 C 0.23114 0.2335 0.59025 0.0
C575 C 0.22284 0.21482 0.58218 0.0
C576 C 0.20932 0.21223 0.56718 0.0
C577 C 0.20388 0.22822 0.56021 0.0
C578 C 0.21192 0.24684 0.56826 0.0
C579 C 0.22546 0.24951 0.58325 0.0
H580 H 0.19342 0.22618 0.5486 0.0
H581 H 0.32359 0.25121 0.69505 0.0
H582 H 0.51299 0.54254 0.59529 0.0
H583 H 0.49693 0.54257 0.62563 0.0
H584 H 0.55152 0.54875 0.65523 0.0
H585 H 0.56783 0.5493 0.62494 0.0
H586 H 0.52357 0.52134 0.66745 0.0
H587 H 0.53029 0.58717 0.65693 0.0
H588 H 0.52735 0.61332 0.63842 0.0
H589 H 0.46634 0.59903 0.63497 0.0
H590 H 0.46894 0.57258 0.65322 0.0
H591 H 0.48818 0.54672 0.76038 0.0
H592 H 0.50639 0.54696 0.73126 0.0
H593 H 0.45454 0.54909 0.69934 0.0
H594 H 0.43629 0.54931 0.72849 0.0
H595 H 0.48247 0.5729 0.68876 0.0
H596 H 0.47511 0.50674 0.69791 0.0
H597 H 0.47727 0.47972 0.71547 0.0
H598 H 0.53829 0.49351 0.72059 0.0
H599 H 0.53646 0.5208 0.70328 0.0
C600 C 0.52164 0.54403 0.60824 0.0
C601 C 0.54173 0.54618 0.60768 0.0
C602 C 0.51241 0.54395 0.62555 0.0
C603 C 0.52305 0.54591 0.64267 0.0
C604 C 0.54307 0.54725 0.64215 0.0
C605 C 0.55235 0.54748 0.62482 0.0
C606 C 0.51321 0.54712 0.66112 0.0
C607 C 0.51481 0.53276 0.67229 0.0
C608 C 0.50145 0.56178 0.66714 0.0
C609 C 0.49983 0.57777 0.65629 0.0
C610 C 0.51626 0.5895 0.65209 0.0
C611 C 0.51465 0.60439 0.64167 0.0
C612 C 0.49668 0.6078 0.63548 0.0
C613 C 0.48026 0.59635 0.63975 0.0
C614 C 0.48179 0.58142 0.65015 0.0
C615 C 0.48065 0.54732 0.74719 0.0
C616 C 0.46076 0.54792 0.74675 0.0
C617 C 0.49107 0.54735 0.73052 0.0
C618 C 0.48179 0.54773 0.71304 0.0
C619 C 0.46201 0.54875 0.71265 0.0
C620 C 0.45159 0.54885 0.72933 0.0
C621 C 0.49265 0.547 0.69512 0.0
C622 C 0.49127 0.56149 0.68402 0.0
C623 C 0.50448 0.53235 0.68909 0.0
C624 C 0.50563 0.51594 0.69948 0.0
C625 C 0.48897 0.50411 0.70292 0.0
C626 C 0.49014 0.48873 0.7128 0.0
C627 C 0.5079 0.48493 0.71919 0.0
C628 C 0.52454 0.49649 0.71566 0.0
C629 C 0.52345 0.5119 0.7058 0.0
H630 H 0.50877 0.47302 0.72683 0.0
H631 H 0.49546 0.61934 0.62741 0.0
H632 H 0.79035 0.27016 0.6913 0.0
H633 H 0.78624 0.29755 0.67502 0.0
H634 H 0.82982 0.28048 0.63546 0.0
H635 H 0.83408 0.25331 0.65194 0.0
H636 H 0.83151 0.31975 0.64402 0.0
H637 H 0.78301 0.26536 0.62463 0.0
H638 H 0.75676 0.24078 0.63018 0.0
H639 H 0.72358 0.28548 0.65479 0.0
H640 H 0.74976 0.31033 0.6496 0.0
H641 H 0.80684 0.35203 0.55933 0.0
H642 H 0.8141 0.33396 0.58434 0.0
H643 H 0.76683 0.35455 0.6167 0.0
H644 H 0.75923 0.37248 0.59146 0.0
H645 H 0.76651 0.31687 0.61544 0.0
H646 H 0.81357 0.3715 0.63086 0.0
H647 H 0.83976 0.39592 0.62489 0.0
H648 H 0.87565 0.35132 0.60772 0.0
H649 H 0.84958 0.32658 0.61332 0.0
C650 C 0.79941 0.27268 0.67948 0.0
C651 C 0.8126 0.25988 0.67285 0.0
C652 C 0.79698 0.28819 0.67011 0.0
C653 C 0.80752 0.29089 0.65383 0.0
C654 C 0.82154 0.2787 0.64798 0.0
C655 C 0.82399 0.26323 0.65738 0.0
C656 C 0.80281 0.30515 0.64183 0.0
C657 C 0.81733 0.31909 0.6377 0.0
C658 C 0.78419 0.30459 0.63393 0.0
C659 C 0.76841 0.28968 0.63693 0.0
C660 C 0.77017 0.26993 0.63135 0.0
C661 C 0.7553 0.25596 0.63441 0.0
C662 C 0.73853 0.26156 0.64288 0.0
C663 C 0.73658 0.28116 0.64826 0.0
C664 C 0.75143 0.29519 0.64526 0.0
C665 C 0.79803 0.35285 0.5718 0.0
C666 C 0.78243 0.36372 0.57337 0.0
C667 C 0.80229 0.34259 0.58618 0.0
C668 C 0.7912 0.3431 0.60257 0.0
C669 C 0.77565 0.354 0.60423 0.0
C670 C 0.77133 0.36425 0.5898 0.0
C671 C 0.79527 0.33139 0.61739 0.0
C672 C 0.78063 0.31783 0.622 0.0
C673 C 0.81378 0.33233 0.62571 0.0
C674 C 0.82955 0.34717 0.62239 0.0
C675 C 0.827 0.36688 0.62568 0.0
C676 C 0.84184 0.38078 0.62238 0.0
C677 C 0.85935 0.37517 0.6159 0.0
C678 C 0.86208 0.35564 0.61274 0.0
C679 C 0.84728 0.34167 0.616 0.0
H680 H 0.87082 0.38596 0.61335 0.0
H681 H 0.72703 0.25072 0.64524 0.0
H682 H 0.49792 0.99864 0.58502 0.0
H683 H 0.51253 0.00297 0.61721 0.0
H684 H 0.55676 0.96871 0.59502 0.0
H685 H 0.54249 0.96452 0.56309 0.0
H686 H 0.54262 0.95759 0.62697 0.0
H687 H 0.56508 0.01776 0.60602 0.0
H688 H 0.56127 0.04803 0.59419 0.0
H689 H 0.52952 0.06707 0.64374 0.0
H690 H 0.53292 0.03677 0.65574 0.0
H691 H 0.61656 0.97886 0.69755 0.0
H692 H 0.59699 0.97561 0.66839 0.0
H693 H 0.55747 0.01104 0.69883 0.0
H694 H 0.57708 0.01454 0.72805 0.0
H695 H 0.56565 0.02178 0.66474 0.0
H696 H 0.5455 0.96275 0.68702 0.0
H697 H 0.5494 0.93253 0.69889 0.0
H698 H 0.57651 0.91122 0.64697 0.0
H699 H 0.57302 0.94144 0.6349 0.0
C700 C 0.51081 0.99215 0.58703 0.0
C701 C 0.51888 0.98103 0.5715 0.0
C702 C 0.51914 0.99461 0.60541 0.0
C703 C 0.53574 0.98613 0.60854 0.0
C704 C 0.54385 0.97522 0.59302 0.0
C705 C 0.5356 0.97278 0.57475 0.0
C706 C 0.54483 0.98837 0.62787 0.0
C707 C 0.54778 0.97163 0.63517 0.0
C708 C 0.55107 0.00668 0.63883 0.0
C709 C 0.54906 0.02491 0.63165 0.0
C710 C 0.55715 0.02833 0.61431 0.0
C711 C 0.55509 0.0455 0.60759 0.0
C712 C 0.5451 0.05944 0.61817 0.0
C713 C 0.53721 0.05625 0.63553 0.0
C714 C 0.53921 0.03908 0.6423 0.0
C715 C 0.60367 0.98589 0.69809 0.0
C716 C 0.59838 0.99691 0.71517 0.0
C717 C 0.59244 0.98397 0.6814 0.0
C718 C 0.57564 0.99293 0.68145 0.0
C719 C 0.57035 0.00399 0.69845 0.0
C720 C 0.58156 0.0059 0.71517 0.0
C721 C 0.56382 0.99097 0.66364 0.0
C722 C 0.56032 0.00774 0.65665 0.0
C723 C 0.55705 0.97267 0.65294 0.0
C724 C 0.55914 0.95444 0.66012 0.0
C725 C 0.55243 0.95168 0.67819 0.0
C726 C 0.55454 0.93454 0.68495 0.0
C727 C 0.56323 0.91998 0.67371 0.0
C728 C 0.56979 0.92252 0.65567 0.0
C729 C 0.56773 0.93964 0.64885 0.0
H730 H 0.56485 0.90672 0.67896 0.0
H731 H 0.54353 0.07273 0.61295 0.0
H732 H 0.82483 0.22938 0.77102 0.0
H733 H 0.8518 0.23631 0.794 0.0
H734 H 0.89115 0.23135 0.74767 0.0
H735 H 0.86416 0.2242 0.72459 0.0
H736 H 0.89834 0.209 0.77433 0.0
H737 H 0.8878 0.27474 0.77433 0.0
H738 H 0.86891 0.30226 0.77678 0.0
H739 H 0.85466 0.29584 0.83425 0.0
H740 H 0.87325 0.26809 0.83205 0.0
H741 H 0.98213 0.23665 0.83297 0.0
H742 H 0.95673 0.23438 0.80887 0.0
H743 H 0.91588 0.24464 0.85331 0.0
H744 H 0.94138 0.24749 0.87754 0.0
H745 H 0.91015 0.26522 0.82671 0.0
H746 H 0.91859 0.19887 0.82668 0.0
H747 H 0.93651 0.17067 0.82471 0.0
H748 H 0.95344 0.1773 0.76799 0.0
H749 H 0.93582 0.20572 0.76971 0.0
C750 C 0.83925 0.23006 0.76574 0.0
C751 C 0.8424 0.22622 0.74601 0.0
C752 C 0.85464 0.2341 0.77888 0.0
C753 C 0.87349 0.23438 0.77256 0.0
C754 C 0.87671 0.23122 0.75285 0.0
C755 C 0.8613 0.22731 0.73968 0.0
C756 C 0.8897 0.23655 0.78654 0.0
C757 C 0.90116 0.22146 0.78558 0.0
C758 C 0.89296 0.2525 0.80158 0.0
C759 C 0.88179 0.26922 0.80295 0.0
C760 C 0.88051 0.27909 0.78743 0.0
C761 C 0.86988 0.29475 0.78879 0.0
C762 C 0.86055 0.30077 0.80564 0.0
C763 C 0.86188 0.29115 0.82119 0.0
C764 C 0.87248 0.27547 0.81991 0.0
C765 C 0.96773 0.2383 0.83765 0.0
C766 C 0.96377 0.24217 0.85721 0.0
C767 C 0.95318 0.23695 0.82382 0.0
C768 C 0.93431 0.2391 0.82924 0.0
C769 C 0.93032 0.24293 0.84876 0.0
C770 C 0.9449 0.24447 0.86261 0.0
C771 C 0.91878 0.23762 0.81455 0.0
C772 C 0.90742 0.2528 0.8154 0.0
C773 C 0.91547 0.22165 0.7995 0.0
C774 C 0.92605 0.20454 0.79841 0.0
C775 C 0.92626 0.19441 0.81384 0.0
C776 C 0.93634 0.17837 0.81276 0.0
C777 C 0.94615 0.17223 0.79626 0.0
C778 C 0.94586 0.18209 0.78078 0.0
C779 C 0.93581 0.19816 0.78179 0.0
H780 H 0.95394 0.1598 0.79545 0.0
H781 H 0.85233 0.3129 0.80667 0.0
H782 H 0.53122 0.93152 0.52242 0.0
H783 H 0.53337 0.90082 0.50174 0.0
H784 H 0.48421 0.90906 0.46877 0.0
H785 H 0.48099 0.93911 0.49038 0.0
H786 H 0.4818 0.87331 0.47209 0.0
H787 H 0.53174 0.91749 0.45357 0.0
H788 H 0.56 0.94205 0.45791 0.0
H789 H 0.59295 0.90215 0.47894 0.0
H790 H 0.5648 0.87742 0.47497 0.0
H791 H 0.50067 0.80464 0.39052 0.0
H792 H 0.49682 0.83482 0.41182 0.0
H793 H 0.53805 0.82207 0.45168 0.0
H794 H 0.54197 0.7918 0.43049 0.0
H795 H 0.54418 0.86008 0.44397 0.0
H796 H 0.49217 0.81576 0.46138 0.0
H797 H 0.46353 0.79186 0.4544 0.0
H798 H 0.43404 0.83348 0.43195 0.0
H799 H 0.4626 0.85756 0.43858 0.0
C800 C 0.52059 0.92669 0.51104 0.0
C801 C 0.50593 0.93794 0.50813 0.0
C802 C 0.52205 0.90922 0.49898 0.0
C803 C 0.50923 0.90277 0.48338 0.0
C804 C 0.49438 0.91376 0.48061 0.0
C805 C 0.4927 0.9311 0.49288 0.0
C806 C 0.51136 0.88462 0.46997 0.0
C807 C 0.4954 0.87058 0.46576 0.0
C808 C 0.52912 0.88086 0.46178 0.0
C809 C 0.54611 0.89567 0.46414 0.0
C810 C 0.54497 0.914 0.45925 0.0
C811 C 0.56098 0.92794 0.46162 0.0
C812 C 0.57824 0.92368 0.46874 0.0
C813 C 0.57956 0.90544 0.47345 0.0
C814 C 0.56359 0.89145 0.47112 0.0
C815 C 0.50893 0.80824 0.40381 0.0
C816 C 0.52162 0.79581 0.40882 0.0
C817 C 0.50665 0.82546 0.41599 0.0
C818 C 0.51706 0.8306 0.43337 0.0
C819 C 0.52988 0.81834 0.43834 0.0
C820 C 0.53205 0.80103 0.42624 0.0
C821 C 0.51472 0.84887 0.44631 0.0
C822 C 0.53063 0.86291 0.45036 0.0
C823 C 0.49685 0.85278 0.45401 0.0
C824 C 0.47957 0.83841 0.45032 0.0
C825 C 0.47962 0.81978 0.45484 0.0
C826 C 0.46339 0.80621 0.45097 0.0
C827 C 0.447 0.81113 0.44269 0.0
C828 C 0.44676 0.82968 0.43834 0.0
C829 C 0.46295 0.8433 0.44218 0.0
H830 H 0.43446 0.8006 0.43968 0.0
H831 H 0.59062 0.93449 0.47057 0.0
H832 H 0.2089 0.28457 0.78782 0.0
H833 H 0.17878 0.27177 0.8005 0.0
H834 H 0.14806 0.28425 0.75204 0.0
H835 H 0.17836 0.29754 0.73963 0.0
H836 H 0.1326 0.29866 0.78371 0.0
H837 H 0.15131 0.23685 0.75932 0.0
H838 H 0.17279 0.21143 0.7538 0.0
H839 H 0.1761 0.21064 0.81405 0.0
H840 H 0.15485 0.23627 0.81998 0.0
H841 H 0.04365 0.25903 0.81488 0.0
H842 H 0.07211 0.26354 0.79597 0.0
H843 H 0.10764 0.25718 0.8437 0.0
H844 H 0.07915 0.25241 0.86273 0.0
H845 H 0.11928 0.23771 0.80982 0.0
H846 H 0.10285 0.30149 0.83395 0.0
H847 H 0.0814 0.32697 0.83935 0.0
H848 H 0.07385 0.32364 0.77879 0.0
H849 H 0.09506 0.29795 0.77303 0.0
C850 C 0.19574 0.28404 0.77965 0.0
C851 C 0.19579 0.29174 0.76271 0.0
C852 C 0.17853 0.2767 0.78687 0.0
C853 C 0.1611 0.27685 0.77716 0.0
C854 C 0.16131 0.28392 0.75975 0.0
C855 C 0.17857 0.29136 0.75259 0.0
C856 C 0.14269 0.2715 0.78619 0.0
C857 C 0.12953 0.28512 0.78902 0.0
C858 C 0.13885 0.25408 0.7936 0.0
C859 C 0.15158 0.2386 0.7901 0.0
C860 C 0.15672 0.23137 0.77141 0.0
C861 C 0.16884 0.2169 0.76821 0.0
C862 C 0.17583 0.20945 0.78357 0.0
C863 C 0.17068 0.21643 0.80217 0.0
C864 C 0.15857 0.23091 0.80546 0.0
C865 C 0.05749 0.25853 0.82139 0.0
C866 C 0.05912 0.25549 0.84039 0.0
C867 C 0.07376 0.26114 0.81054 0.0
C868 C 0.09202 0.26091 0.81848 0.0
C869 C 0.09369 0.25743 0.83729 0.0
C870 C 0.07739 0.25479 0.84817 0.0
C871 C 0.10939 0.26491 0.80737 0.0
C872 C 0.12232 0.2511 0.80424 0.0
C873 C 0.11304 0.28213 0.79961 0.0
C874 C 0.10038 0.29766 0.80306 0.0
C875 C 0.0965 0.30609 0.82178 0.0
C876 C 0.08441 0.32059 0.82491 0.0
C877 C 0.07622 0.32688 0.80942 0.0
C878 C 0.08017 0.31873 0.79077 0.0
C879 C 0.09224 0.30421 0.78757 0.0
H880 H 0.06687 0.3381 0.81187 0.0
H881 H 0.18522 0.19825 0.78105 0.0
H882 H 0.57558 0.6149 0.54066 0.0
H883 H 0.57963 0.63885 0.51917 0.0
H884 H 0.54841 0.59798 0.4745 0.0
H885 H 0.54458 0.57399 0.49597 0.0
H886 H 0.57754 0.62046 0.46011 0.0
H887 H 0.5252 0.62954 0.50257 0.0
H888 H 0.50992 0.63426 0.53387 0.0
H889 H 0.54717 0.68696 0.55125 0.0
H890 H 0.56287 0.68239 0.52013 0.0
H891 H 0.5387 0.68429 0.40637 0.0
H892 H 0.54353 0.65958 0.42572 0.0
H893 H 0.57434 0.70296 0.46846 0.0
H894 H 0.56954 0.72778 0.44925 0.0
H895 H 0.54755 0.67973 0.484 0.0
H896 H 0.59821 0.67164 0.43995 0.0
H897 H 0.61265 0.66673 0.40825 0.0
H898 H 0.5778 0.61216 0.3933 0.0
H899 H 0.56293 0.61687 0.42482 0.0
C900 C 0.57015 0.61091 0.52605 0.0
C901 C 0.55992 0.59271 0.51979 0.0
C902 C 0.57233 0.62459 0.51385 0.0
C903 C 0.56406 0.62029 0.49533 0.0
C904 C 0.55491 0.6016 0.48871 0.0
C905 C 0.55275 0.58792 0.50093 0.0
C906 C 0.56328 0.63573 0.48359 0.0
C907 C 0.57088 0.63337 0.46525 0.0
C908 C 0.5548 0.65269 0.49043 0.0
C909 C 0.54535 0.65551 0.50912 0.0
C910 C 0.53024 0.64205 0.51313 0.0
C911 C 0.52149 0.64471 0.53082 0.0
C912 C 0.52761 0.66087 0.54456 0.0
C913 C 0.54247 0.67443 0.54061 0.0
C914 C 0.55129 0.67182 0.52294 0.0
C915 C 0.54656 0.68858 0.41985 0.0
C916 C 0.55373 0.70803 0.42627 0.0
C917 C 0.5494 0.67441 0.43085 0.0
C918 C 0.55945 0.6794 0.44845 0.0
C919 C 0.56659 0.69879 0.4549 0.0
C920 C 0.56385 0.71295 0.44387 0.0
C921 C 0.56185 0.66452 0.4605 0.0
C922 C 0.55443 0.66695 0.4789 0.0
C923 C 0.57039 0.64761 0.45365 0.0
C924 C 0.57933 0.6447 0.43469 0.0
C925 C 0.59351 0.65867 0.42985 0.0
C926 C 0.60179 0.65591 0.41192 0.0
C927 C 0.59611 0.63917 0.39875 0.0
C928 C 0.58217 0.62513 0.4035 0.0
C929 C 0.57382 0.62783 0.42141 0.0
H930 H 0.60254 0.63705 0.38488 0.0
H931 H 0.52081 0.66291 0.55825 0.0
H932 H 0.85717 0.7814 0.79969 0.0
H933 H 0.88269 0.7807 0.77669 0.0
H934 H 0.84204 0.78358 0.73182 0.0
H935 H 0.81619 0.78325 0.75463 0.0
H936 H 0.86432 0.75781 0.71938 0.0
H937 H 0.87504 0.82304 0.75088 0.0
H938 H 0.87973 0.8499 0.7781 0.0
H939 H 0.93076 0.82889 0.79551 0.0
H940 H 0.92624 0.80174 0.76852 0.0
H941 H 0.96103 0.79779 0.67673 0.0
H942 H 0.93296 0.80293 0.6962 0.0
H943 H 0.92597 0.74274 0.70205 0.0
H944 H 0.95359 0.7374 0.68218 0.0
H945 H 0.92581 0.80038 0.73142 0.0
H946 H 0.88001 0.72632 0.70668 0.0
H947 H 0.87409 0.70186 0.67751 0.0
H948 H 0.89075 0.74506 0.64292 0.0
H949 H 0.89652 0.76983 0.67185 0.0
C950 C 0.85359 0.78177 0.78492 0.0
C951 C 0.83454 0.78228 0.77905 0.0
C952 C 0.86828 0.78163 0.77179 0.0
C953 C 0.86439 0.78231 0.7525 0.0
C954 C 0.84545 0.78309 0.74662 0.0
C955 C 0.83069 0.7831 0.75974 0.0
C956 C 0.88 0.78145 0.73842 0.0
C957 C 0.87772 0.76718 0.722 0.0
C958 C 0.89739 0.79393 0.74152 0.0
C959 C 0.90021 0.81027 0.75775 0.0
C960 C 0.88719 0.82407 0.76058 0.0
C961 C 0.88983 0.83936 0.77596 0.0
C962 C 0.90551 0.84108 0.78855 0.0
C963 C 0.91861 0.82753 0.78575 0.0
C964 C 0.91603 0.8122 0.7704 0.0
C965 C 0.95343 0.78561 0.68206 0.0
C966 C 0.95951 0.76715 0.67781 0.0
C967 C 0.9374 0.78859 0.69324 0.0
C968 C 0.92714 0.77319 0.70044 0.0
C969 C 0.93333 0.75479 0.69634 0.0
C970 C 0.94922 0.75176 0.68502 0.0
C971 C 0.91029 0.77642 0.71264 0.0
C972 C 0.91235 0.7911 0.72873 0.0
C973 C 0.89252 0.76465 0.70896 0.0
C974 C 0.88885 0.74989 0.69146 0.0
C975 C 0.88232 0.73062 0.69285 0.0
C976 C 0.87901 0.71669 0.67636 0.0
C977 C 0.88209 0.72189 0.65838 0.0
C978 C 0.88843 0.74104 0.65686 0.0
C979 C 0.89175 0.75502 0.6733 0.0
H980 H 0.87954 0.71109 0.64564 0.0
H981 H 0.90753 0.85292 0.80045 0.0
H982 H 0.06696 0.95136 0.54869 0.0
H983 H 0.06145 0.92187 0.56282 0.0
H984 H 0.0057 0.9086 0.5349 0.0
H985 H 0.01119 0.93836 0.52104 0.0
H986 H 0.00337 0.90509 0.57139 0.0
H987 H 0.04314 0.88239 0.52026 0.0
H988 H 0.0715 0.88296 0.50013 0.0
H989 H 0.10741 0.88096 0.5487 0.0
H990 H 0.07928 0.88066 0.56919 0.0
H991 H 0.98425 0.81101 0.59444 0.0
H992 H 0.99079 0.83792 0.57695 0.0
H993 H 0.04537 0.85422 0.60664 0.0
H994 H 0.039 0.82717 0.62415 0.0
H995 H 0.0481 0.85545 0.56841 0.0
H996 H 0.00839 0.87923 0.61958 0.0
H997 H 0.97997 0.87851 0.63964 0.0
H998 H 0.9439 0.87834 0.59059 0.0
H999 H 0.9721 0.87879 0.57018 0.0
C1000 C 0.05368 0.94193 0.54537 0.0
C1001 C 0.03953 0.94687 0.53374 0.0
C1002 C 0.05054 0.92508 0.55339 0.0
C1003 C 0.03322 0.91287 0.54979 0.0
C1004 C 0.01919 0.91775 0.53785 0.0
C1005 C 0.02233 0.93465 0.52987 0.0
C1006 C 0.02935 0.89564 0.55935 0.0
C1007 C 0.013 0.89407 0.57044 0.0
C1008 C 0.04215 0.8815 0.55858 0.0
C1009 C 0.05911 0.88168 0.5463 0.0
C1010 C 0.0571 0.88224 0.52668 0.0
C1011 C 0.07314 0.88248 0.5152 0.0
C1012 C 0.09126 0.88205 0.52314 0.0
C1013 C 0.09337 0.88132 0.54257 0.0
C1014 C 0.07738 0.88109 0.55413 0.0
C1015 C 0.99766 0.82029 0.59728 0.0
C1016 C 0.01107 0.81697 0.61079 0.0
C1017 C 0.00135 0.83572 0.58728 0.0
C1018 C 0.01849 0.84821 0.59061 0.0
C1019 C 0.03204 0.84477 0.60385 0.0
C1020 C 0.02834 0.82935 0.61391 0.0
C1021 C 0.02214 0.86495 0.58038 0.0
C1022 C 0.03846 0.86645 0.56923 0.0
C1023 C 0.0093 0.87903 0.58107 0.0
C1024 C 0.99233 0.87884 0.59332 0.0
C1025 C 0.99438 0.87888 0.61304 0.0
C1026 C 0.97831 0.87855 0.62448 0.0
C1027 C 0.96013 0.87833 0.61639 0.0
C1028 C 0.95799 0.87848 0.59684 0.0
C1029 C 0.97401 0.87879 0.58533 0.0
H1030 H 0.94771 0.87807 0.62527 0.0
H1031 H 0.10365 0.88223 0.51422 0.0
H1032 H 0.19048 0.73793 0.75529 0.0
H1033 H 0.16383 0.75042 0.74083 0.0
H1034 H 0.12549 0.72813 0.78125 0.0
H1035 H 0.15219 0.71538 0.79549 0.0
H1036 H 0.11136 0.71722 0.74599 0.0
H1037 H 0.13788 0.77718 0.78317 0.0
H1038 H 0.16311 0.80358 0.79556 0.0
H1039 H 0.17242 0.8156 0.73882 0.0
H1040 H 0.14741 0.78909 0.72604 0.0
H1041 H 0.03096 0.75796 0.71762 0.0
H1042 H 0.0578 0.75183 0.73678 0.0
H1043 H 0.09707 0.76913 0.69476 0.0
H1044 H 0.07023 0.77538 0.67545 0.0
H1045 H 0.11023 0.78357 0.73201 0.0
H1046 H 0.08486 0.72256 0.69492 0.0
H1047 H 0.05963 0.69613 0.68255 0.0
H1048 H 0.04831 0.68617 0.73965 0.0
H1049 H 0.07329 0.71275 0.75238 0.0
C1050 C 0.17641 0.73613 0.7613 0.0
C1051 C 0.17326 0.72594 0.77652 0.0
C1052 C 0.16121 0.74327 0.75308 0.0
C1053 C 0.14264 0.74035 0.76003 0.0
C1054 C 0.13968 0.73059 0.77567 0.0
C1055 C 0.1549 0.72343 0.78386 0.0
C1056 C 0.12614 0.74611 0.75004 0.0
C1057 C 0.11097 0.73183 0.74327 0.0
C1058 C 0.12584 0.76504 0.74599 0.0
C1059 C 0.14087 0.78102 0.75362 0.0
C1060 C 0.14541 0.78535 0.77331 0.0
C1061 C 0.15965 0.80035 0.78041 0.0
C1062 C 0.16939 0.81123 0.76798 0.0
C1063 C 0.16487 0.80715 0.74843 0.0
C1064 C 0.15065 0.79215 0.74125 0.0
C1065 C 0.04529 0.76059 0.71247 0.0
C1066 C 0.04842 0.76705 0.69492 0.0
C1067 C 0.06063 0.75704 0.72344 0.0
C1068 C 0.07942 0.75983 0.7171 0.0
C1069 C 0.08268 0.76687 0.6999 0.0
C1070 C 0.06731 0.77036 0.68886 0.0
C1071 C 0.09554 0.75469 0.72808 0.0
C1072 C 0.11062 0.76903 0.73492 0.0
C1073 C 0.09579 0.73582 0.73224 0.0
C1074 C 0.0808 0.71978 0.72462 0.0
C1075 C 0.07688 0.71484 0.70485 0.0
C1076 C 0.06264 0.69982 0.69777 0.0
C1077 C 0.05233 0.68951 0.71031 0.0
C1078 C 0.05628 0.69419 0.72996 0.0
C1079 C 0.07048 0.70922 0.73711 0.0
H1080 H 0.04132 0.67788 0.70481 0.0
H1081 H 0.18042 0.82284 0.77351 0.0
H1082 H 0.98788 0.60028 0.48208 0.0
H1083 H 0.99601 0.63013 0.50509 0.0
H1084 H 0.00513 0.59649 0.54912 0.0
H1085 H 0.99642 0.56675 0.52629 0.0
H1086 H 0.98277 0.62184 0.56159 0.0
H1087 H 0.04241 0.62445 0.52954 0.0
H1088 H 0.0635 0.62427 0.50196 0.0
H1089 H 0.04183 0.67501 0.48875 0.0
H1090 H 0.02041 0.67534 0.51611 0.0
H1091 H 0.02125 0.69818 0.63386 0.0
H1092 H 0.01833 0.66976 0.60875 0.0
H1093 H 0.00122 0.70404 0.56814 0.0
H1094 H 0.00412 0.73265 0.59321 0.0
H1095 H 0.02784 0.67915 0.5536 0.0
H1096 H 0.96803 0.67581 0.58592 0.0
H1097 H 0.94752 0.6758 0.61391 0.0
H1098 H 0.97064 0.62574 0.62698 0.0
H1099 H 0.9915 0.62562 0.5992 0.0
C1100 C 0.99208 0.59933 0.49656 0.0
C1101 C 0.99152 0.58127 0.50246 0.0
C1102 C 0.99673 0.61638 0.50972 0.0
C1103 C 0.00123 0.61562 0.5289 0.0
C1104 C 0.0016 0.5975 0.53448 0.0
C1105 C 0.99672 0.58052 0.52142 0.0
C1106 C 0.004 0.6335 0.54352 0.0
C1107 C 0.99289 0.63422 0.55993 0.0
C1108 C 0.01676 0.64994 0.54119 0.0
C1109 C 0.02967 0.64981 0.52477 0.0
C1110 C 0.04203 0.63548 0.52067 0.0
C1111 C 0.05406 0.63537 0.50509 0.0
C1112 C 0.05397 0.64959 0.49358 0.0
C1113 C 0.04187 0.66399 0.49766 0.0
C1114 C 0.02979 0.66416 0.51321 0.0
C1115 C 0.01688 0.69972 0.6196 0.0
C1116 C 0.01281 0.71768 0.61558 0.0
C1117 C 0.01521 0.68344 0.60526 0.0
C1118 C 0.00944 0.68476 0.58661 0.0
C1119 C 0.0057 0.70272 0.58244 0.0
C1120 C 0.00727 0.71902 0.59681 0.0
C1121 C 0.00682 0.66724 0.57164 0.0
C1122 C 0.01783 0.66667 0.55519 0.0
C1123 C 0.99408 0.65084 0.57394 0.0
C1124 C 0.98146 0.65082 0.59059 0.0
C1125 C 0.96885 0.66489 0.59484 0.0
C1126 C 0.95714 0.66489 0.61066 0.0
C1127 C 0.95781 0.65081 0.62224 0.0
C1128 C 0.97015 0.63666 0.618 0.0
C1129 C 0.98191 0.6366 0.60222 0.0
H1130 H 0.94873 0.65083 0.63447 0.0
H1131 H 0.06329 0.64947 0.48153 0.0
H1132 H 0.76868 0.87377 0.2375 0.0
H1133 H 0.79186 0.90261 0.24035 0.0
H1134 H 0.83092 0.87009 0.20563 0.0
H1135 H 0.80805 0.84091 0.20338 0.0
H1136 H 0.84891 0.89057 0.23637 0.0
H1137 H 0.80727 0.9042 0.18844 0.0
H1138 H 0.77655 0.90798 0.17348 0.0
H1139 H 0.76726 0.95309 0.21975 0.0
H1140 H 0.79781 0.9494 0.23515 0.0
H1141 H 0.91357 0.97498 0.23135 0.0
H1142 H 0.89044 0.94628 0.22175 0.0
H1143 H 0.84953 0.97143 0.26016 0.0
H1144 H 0.87252 1.00016 0.26986 0.0
H1145 H 0.83344 0.95438 0.22456 0.0
H1146 H 0.87386 0.93858 0.27342 0.0
H1147 H 0.90464 0.93476 0.28826 0.0
H1148 H 0.91621 0.89354 0.23938 0.0
H1149 H 0.88559 0.89733 0.22413 0.0
C1150 C 0.7822 0.87274 0.23046 0.0
C1151 C 0.78655 0.855 0.22028 0.0
C1152 C 0.79536 0.88931 0.23192 0.0
C1153 C 0.81307 0.88859 0.22304 0.0
C1154 C 0.81731 0.871 0.21254 0.0
C1155 C 0.80416 0.85437 0.21113 0.0
C1156 C 0.82754 0.90592 0.22573 0.0
C1157 C 0.84563 0.90443 0.23341 0.0
C1158 C 0.82316 0.92411 0.22226 0.0
C1159 C 0.80478 0.92641 0.21303 0.0
C1160 C 0.79861 0.91483 0.19551 0.0
C1161 C 0.78124 0.91697 0.18693 0.0
C1162 C 0.76994 0.93074 0.19568 0.0
C1163 C 0.77602 0.94242 0.213 0.0
C1164 C 0.79338 0.94033 0.22165 0.0
C1165 C 0.89963 0.97445 0.2377 0.0
C1166 C 0.89492 0.98981 0.25144 0.0
C1167 C 0.88645 0.95803 0.23222 0.0
C1168 C 0.86834 0.95671 0.24034 0.0
C1169 C 0.86344 0.97219 0.25372 0.0
C1170 C 0.87664 0.98854 0.25931 0.0
C1171 C 0.85463 0.93898 0.23531 0.0
C1172 C 0.83672 0.94044 0.22726 0.0
C1173 C 0.85917 0.92074 0.23837 0.0
C1174 C 0.87755 0.91841 0.24754 0.0
C1175 C 0.88305 0.92883 0.26576 0.0
C1176 C 0.90045 0.92665 0.27426 0.0
C1177 C 0.9124 0.91396 0.26475 0.0
C1178 C 0.90695 0.90339 0.24672 0.0
C1179 C 0.88957 0.90554 0.23815 0.0
H1180 H 0.92586 0.91229 0.27135 0.0
H1181 H 0.7565 0.93238 0.18901 0.0
H1182 H 0.74549 0.15506 0.31681 0.0
H1183 H 0.77072 0.13378 0.31487 0.0
H1184 H 0.81358 0.18337 0.32119 0.0
H1185 H 0.78838 0.20475 0.32297 0.0
H1186 H 0.82077 0.15427 0.29163 0.0
H1187 H 0.80554 0.16057 0.35789 0.0
H1188 H 0.78427 0.15978 0.38524 0.0
H1189 H 0.76649 0.09944 0.36586 0.0
H1190 H 0.78746 0.09994 0.33823 0.0
H1191 H 0.89797 0.09968 0.30082 0.0
H1192 H 0.87558 0.12387 0.307 0.0
H1193 H 0.82926 0.07865 0.30908 0.0
H1194 H 0.8516 0.05453 0.30356 0.0
H1195 H 0.82524 0.10753 0.33598 0.0
H1196 H 0.83779 0.10117 0.26883 0.0
H1197 H 0.85787 0.1013 0.24054 0.0
H1198 H 0.87932 0.16072 0.26039 0.0
H1199 H 0.85953 0.16087 0.28894 0.0
C1200 C 0.76029 0.16142 0.31774 0.0
C1201 C 0.76497 0.18157 0.32004 0.0
C1202 C 0.77468 0.14927 0.31678 0.0
C1203 C 0.79402 0.15701 0.31804 0.0
C1204 C 0.79874 0.17711 0.32025 0.0
C1205 C 0.78435 0.1893 0.32138 0.0
C1206 C 0.80926 0.14405 0.3166 0.0
C1207 C 0.82198 0.14426 0.30151 0.0
C1208 C 0.81051 0.13071 0.32923 0.0
C1209 C 0.79796 0.13034 0.3459 0.0
C1210 C 0.79699 0.14717 0.35938 0.0
C1211 C 0.785 0.14677 0.37494 0.0
C1212 C 0.774 0.12958 0.37726 0.0
C1213 C 0.77501 0.11275 0.36404 0.0
C1214 C 0.78696 0.11308 0.34843 0.0
C1215 C 0.88302 0.09491 0.30268 0.0
C1216 C 0.87656 0.07517 0.30161 0.0
C1217 C 0.87021 0.10875 0.30612 0.0
C1218 C 0.85064 0.10309 0.3082 0.0
C1219 C 0.84426 0.08341 0.30752 0.0
C1220 C 0.85707 0.06961 0.3043 0.0
C1221 C 0.83667 0.11752 0.31083 0.0
C1222 C 0.82417 0.11761 0.32616 0.0
C1223 C 0.83548 0.13101 0.29829 0.0
C1224 C 0.84735 0.13096 0.28112 0.0
C1225 C 0.8469 0.11422 0.26723 0.0
C1226 C 0.85821 0.11425 0.25114 0.0
C1227 C 0.86991 0.13099 0.24869 0.0
C1228 C 0.87028 0.14775 0.26232 0.0
C1229 C 0.85901 0.14779 0.27845 0.0
H1230 H 0.87865 0.13098 0.23622 0.0
H1231 H 0.76473 0.1293 0.38933 0.0
H1232 H 0.42126 0.03939 0.00581 0.0
H1233 H 0.39344 0.01911 0.01492 0.0
H1234 H 0.42547 0.97 0.00707 0.0
H1235 H 0.45306 0.99015 0.99728 0.0
H1236 H 0.39189 0.95914 0.99225 0.0
H1237 H 0.41516 0.99532 0.05257 0.0
H1238 H 0.42601 0.02457 0.0759 0.0
H1239 H 0.37113 0.04465 0.07177 0.0
H1240 H 0.36003 0.01564 0.0482 0.0
H1241 H 0.3277 0.89912 0.04018 0.0
H1242 H 0.35604 0.92036 0.03378 0.0
H1243 H 0.32096 0.9655 0.02891 0.0
H1244 H 0.29247 0.9443 0.03511 0.0
H1245 H 0.35594 0.97815 0.05085 0.0
H1246 H 0.33349 0.941 0.98987 0.0
H1247 H 0.32331 0.91087 0.96751 0.0
H1248 H 0.37814 0.89156 0.97448 0.0
H1249 H 0.38854 0.92147 0.99714 0.0
C1250 C 0.42236 0.02429 0.00617 0.0
C1251 C 0.43929 0.01632 0.00089 0.0
C1252 C 0.40649 0.01272 0.01145 0.0
C1253 C 0.40739 0.99304 0.01199 0.0
C1254 C 0.42437 0.98511 0.00676 0.0
C1255 C 0.44013 0.99661 0.00119 0.0
C1256 C 0.39051 0.9806 0.01747 0.0
C1257 C 0.38425 0.96321 0.00523 0.0
C1258 C 0.38024 0.98598 0.03423 0.0
C1259 C 0.38683 0.00339 0.04849 0.0
C1260 C 0.40545 0.00604 0.05654 0.0
C1261 C 0.41164 0.02257 0.06982 0.0
C1262 C 0.39928 0.03648 0.07528 0.0
C1263 C 0.38069 0.03387 0.06751 0.0
C1264 C 0.37444 0.01738 0.0542 0.0
C1265 C 0.32601 0.91361 0.03789 0.0
C1266 C 0.30782 0.92 0.03806 0.0
C1267 C 0.34221 0.9257 0.0342 0.0
C1268 C 0.34055 0.94443 0.03076 0.0
C1269 C 0.32252 0.95109 0.03153 0.0
C1270 C 0.30627 0.93893 0.035 0.0
C1271 C 0.35753 0.95683 0.02568 0.0
C1272 C 0.36372 0.97415 0.03795 0.0
C1273 C 0.3679 0.95129 0.0091 0.0
C1274 C 0.36172 0.93338 0.99535 0.0
C1275 C 0.34332 0.93026 0.98676 0.0
C1276 C 0.33752 0.91323 0.97401 0.0
C1277 C 0.35005 0.89928 0.96962 0.0
C1278 C 0.36843 0.90236 0.97792 0.0
C1279 C 0.37429 0.91935 0.99071 0.0
H1280 H 0.34553 0.88611 0.95974 0.0
H1281 H 0.4041 0.04927 0.08556 0.0
H1282 H 0.2784 0.33202 0.26676 0.0
H1283 H 0.26412 0.36038 0.2595 0.0
H1284 H 0.21965 0.35071 0.29953 0.0
H1285 H 0.23376 0.32256 0.30658 0.0
H1286 H 0.20503 0.35672 0.26615 0.0
H1287 H 0.25691 0.38666 0.31047 0.0
H1288 H 0.29071 0.39382 0.32135 0.0
H1289 H 0.30479 0.41773 0.27073 0.0
H1290 H 0.27109 0.41049 0.25944 0.0
H1291 H 0.16175 0.44176 0.28619 0.0
H1292 H 0.1798 0.41463 0.28781 0.0
H1293 H 0.22043 0.43535 0.24854 0.0
H1294 H 0.2026 0.46289 0.24716 0.0
H1295 H 0.23862 0.42343 0.27666 0.0
H1296 H 0.1867 0.39655 0.23356 0.0
H1297 H 0.1531 0.38942 0.22207 0.0
H1298 H 0.13931 0.35931 0.26888 0.0
H1299 H 0.17279 0.36649 0.28081 0.0
C1300 C 0.26565 0.33614 0.27401 0.0
C1301 C 0.25711 0.32532 0.28722 0.0
C1302 C 0.25753 0.35229 0.26991 0.0
C1303 C 0.24082 0.35771 0.27902 0.0
C1304 C 0.23247 0.3468 0.29228 0.0
C1305 C 0.24056 0.33079 0.29636 0.0
C1306 C 0.23161 0.37447 0.27472 0.0
C1307 C 0.21234 0.37132 0.26857 0.0
C1308 C 0.24132 0.39344 0.2772 0.0
C1309 C 0.26154 0.39783 0.28401 0.0
C1310 C 0.26725 0.3933 0.30159 0.0
C1311 C 0.28638 0.3974 0.30784 0.0
C1312 C 0.2999 0.40617 0.29671 0.0
C1313 C 0.29431 0.41091 0.27932 0.0
C1314 C 0.2752 0.40682 0.273 0.0
C1315 C 0.17451 0.44059 0.27787 0.0
C1316 C 0.18064 0.45447 0.26645 0.0
C1317 C 0.18479 0.42499 0.27874 0.0
C1318 C 0.20132 0.42272 0.26803 0.0
C1319 C 0.20769 0.43673 0.25687 0.0
C1320 C 0.19745 0.45245 0.25606 0.0
C1321 C 0.21185 0.40573 0.26866 0.0
C1322 C 0.23135 0.40881 0.27402 0.0
C1323 C 0.20239 0.38662 0.26533 0.0
C1324 C 0.18224 0.38218 0.25815 0.0
C1325 C 0.17648 0.38852 0.24148 0.0
C1326 C 0.15746 0.38445 0.23487 0.0
C1327 C 0.14407 0.37395 0.24476 0.0
C1328 C 0.1497 0.36745 0.26124 0.0
C1329 C 0.1687 0.3715 0.26792 0.0
H1330 H 0.12935 0.37082 0.23962 0.0
H1331 H 0.3147 0.40933 0.30157 0.0
H1332 H 0.08549 0.03911 0.47674 0.0
H1333 H 0.11649 0.05864 0.4775 0.0
H1334 H 0.14277 0.01569 0.50184 0.0
H1335 H 0.1115 0.99628 0.50156 0.0
H1336 H 0.15597 0.04993 0.51967 0.0
H1337 H 0.14841 0.02148 0.45394 0.0
H1338 H 0.13203 0.01206 0.42241 0.0
H1339 H 0.13012 0.07178 0.41848 0.0
H1340 H 0.14626 0.08156 0.45012 0.0
H1341 H 0.25017 0.09382 0.50554 0.0
H1342 H 0.22132 0.07051 0.50244 0.0
H1343 H 0.18858 0.11308 0.48549 0.0
H1344 H 0.21733 0.13649 0.48854 0.0
H1345 H 0.18028 0.07685 0.46301 0.0
H1346 H 0.18637 0.10452 0.53008 0.0
H1347 H 0.2032 0.11328 0.56144 0.0
H1348 H 0.20872 0.05353 0.56211 0.0
H1349 H 0.19214 0.04444 0.53062 0.0
C1350 C 0.09791 0.03373 0.48206 0.0
C1351 C 0.09612 0.01608 0.48892 0.0
C1352 C 0.11565 0.04489 0.48245 0.0
C1353 C 0.13209 0.03849 0.48937 0.0
C1354 C 0.13032 0.02091 0.49636 0.0
C1355 C 0.11248 0.00982 0.49619 0.0
C1356 C 0.15095 0.0505 0.4898 0.0
C1357 C 0.16143 0.0555 0.50717 0.0
C1358 C 0.15801 0.05807 0.47359 0.0
C1359 C 0.14842 0.05225 0.45448 0.0
C1360 C 0.14439 0.0326 0.44641 0.0
C1361 C 0.13516 0.0272 0.42851 0.0
C1362 C 0.13001 0.04131 0.41846 0.0
C1363 C 0.13412 0.06086 0.42628 0.0
C1364 C 0.14333 0.06635 0.44419 0.0
C1365 C 0.23685 0.09821 0.50106 0.0
C1366 C 0.23603 0.11705 0.49738 0.0
C1367 C 0.22037 0.08488 0.49936 0.0
C1368 C 0.20278 0.09012 0.4939 0.0
C1369 C 0.20201 0.10875 0.48974 0.0
C1370 C 0.21845 0.12213 0.49156 0.0
C1371 C 0.18507 0.07636 0.49288 0.0
C1372 C 0.17484 0.07107 0.47542 0.0
C1373 C 0.17834 0.06839 0.50894 0.0
C1374 C 0.18821 0.07383 0.52791 0.0
C1375 C 0.19132 0.09327 0.53685 0.0
C1376 C 0.20078 0.09829 0.55466 0.0
C1377 C 0.20708 0.08398 0.56374 0.0
C1378 C 0.20387 0.0646 0.55505 0.0
C1379 C 0.19442 0.05951 0.53723 0.0
H1380 H 0.2144 0.08789 0.57753 0.0
H1381 H 0.12286 0.03709 0.40461 0.0
H1382 H 0.7597 0.18936 0.71518 0.0
H1383 H 0.73707 0.16197 0.72052 0.0
H1384 H 0.78269 0.13679 0.74437 0.0
H1385 H 0.80555 0.16389 0.73852 0.0
H1386 H 0.76053 0.11019 0.71965 0.0
H1387 H 0.75038 0.15823 0.77322 0.0
H1388 H 0.744 0.19028 0.78979 0.0
H1389 H 0.6897 0.18359 0.76007 0.0
H1390 H 0.69588 0.1516 0.7431 0.0
H1391 H 0.69805 0.03884 0.75629 0.0
H1392 H 0.72214 0.06608 0.75369 0.0
H1393 H 0.67964 0.09434 0.72864 0.0
H1394 H 0.65544 0.06731 0.73135 0.0
H1395 H 0.70123 0.11919 0.75566 0.0
H1396 H 0.71221 0.07175 0.70109 0.0
H1397 H 0.71876 0.03977 0.68448 0.0
H1398 H 0.7717 0.04539 0.71641 0.0
H1399 H 0.76534 0.07732 0.7334 0.0
C1400 C 0.76494 0.17795 0.72149 0.0
C1401 C 0.78442 0.17882 0.72646 0.0
C1402 C 0.75196 0.16239 0.72469 0.0
C1403 C 0.75815 0.14744 0.73305 0.0
C1404 C 0.77759 0.14821 0.73798 0.0
C1405 C 0.7906 0.16379 0.73478 0.0
C1406 C 0.74436 0.1308 0.73623 0.0
C1407 C 0.74772 0.11212 0.72779 0.0
C1408 C 0.72747 0.13337 0.74654 0.0
C1409 C 0.72367 0.15258 0.75676 0.0
C1410 C 0.73715 0.16365 0.7701 0.0
C1411 C 0.73355 0.1818 0.77959 0.0
C1412 C 0.71648 0.18898 0.77595 0.0
C1413 C 0.70293 0.17801 0.76285 0.0
C1414 C 0.70646 0.15986 0.75332 0.0
C1415 C 0.69382 0.05084 0.75022 0.0
C1416 C 0.67482 0.05087 0.74398 0.0
C1417 C 0.70763 0.06637 0.74869 0.0
C1418 C 0.70272 0.08217 0.74082 0.0
C1419 C 0.68374 0.0823 0.73476 0.0
C1420 C 0.66994 0.0668 0.73626 0.0
C1421 C 0.71731 0.09862 0.73892 0.0
C1422 C 0.7141 0.11726 0.74761 0.0
C1423 C 0.73435 0.09601 0.72887 0.0
C1424 C 0.7382 0.07683 0.71866 0.0
C1425 C 0.72517 0.0661 0.70468 0.0
C1426 C 0.72886 0.04799 0.69518 0.0
C1427 C 0.74561 0.04052 0.69942 0.0
C1428 C 0.75872 0.05117 0.71315 0.0
C1429 C 0.75509 0.06928 0.72272 0.0
H1430 H 0.74844 0.0265 0.69205 0.0
H1431 H 0.71372 0.20304 0.78331 0.0
H1432 H 0.48356 0.05395 0.51277 0.0
H1433 H 0.45841 0.07531 0.51467 0.0
H1434 H 0.4234 0.03704 0.54538 0.0
H1435 H 0.44855 0.01541 0.54304 0.0
H1436 H 0.40357 0.04512 0.51686 0.0
H1437 H 0.44343 0.08314 0.56717 0.0
H1438 H 0.47336 0.10048 0.58268 0.0
H1439 H 0.47734 0.1382 0.54095 0.0
H1440 H 0.44756 0.12093 0.52502 0.0
H1441 H 0.33052 0.10708 0.52962 0.0
H1442 H 0.35616 0.08833 0.53603 0.0
H1443 H 0.39506 0.12216 0.50444 0.0
H1444 H 0.36958 0.14125 0.49827 0.0
H1445 H 0.41219 0.11635 0.53644 0.0
H1446 H 0.37417 0.0766 0.48472 0.0
H1447 H 0.34445 0.05918 0.4688 0.0
H1448 H 0.33736 0.02462 0.51316 0.0
H1449 H 0.36693 0.04202 0.52948 0.0
C1450 C 0.47066 0.05041 0.52034 0.0
C1451 C 0.46794 0.03329 0.52798 0.0
C1452 C 0.45631 0.06261 0.52145 0.0
C1453 C 0.43903 0.05793 0.53035 0.0
C1454 C 0.43661 0.04101 0.53851 0.0
C1455 C 0.45098 0.02874 0.53731 0.0
C1456 C 0.423 0.06982 0.52963 0.0
C1457 C 0.40536 0.06065 0.52153 0.0
C1458 C 0.42542 0.09016 0.53524 0.0
C1459 C 0.44332 0.10063 0.54482 0.0
C1460 C 0.45075 0.09505 0.56122 0.0
C1461 C 0.46768 0.10488 0.5701 0.0
C1462 C 0.47726 0.12041 0.56278 0.0
C1463 C 0.46991 0.12617 0.54659 0.0
C1464 C 0.45298 0.11637 0.53765 0.0
C1465 C 0.34453 0.11057 0.52405 0.0
C1466 C 0.34795 0.12561 0.51333 0.0
C1467 C 0.35918 0.09979 0.52769 0.0
C1468 C 0.3775 0.10366 0.52052 0.0
C1469 C 0.38104 0.11889 0.51012 0.0
C1470 C 0.36643 0.12975 0.50654 0.0
C1471 C 0.39289 0.09164 0.52355 0.0
C1472 C 0.41038 0.10079 0.53201 0.0
C1473 C 0.39037 0.07127 0.51826 0.0
C1474 C 0.37264 0.06075 0.50842 0.0
C1475 C 0.36619 0.06539 0.49115 0.0
C1476 C 0.34939 0.0555 0.48204 0.0
C1477 C 0.33899 0.04084 0.48999 0.0
C1478 C 0.34541 0.036 0.50704 0.0
C1479 C 0.36219 0.04586 0.51621 0.0
H1480 H 0.32598 0.03321 0.48292 0.0
H1481 H 0.49037 0.128 0.56968 0.0
H1482 H 0.58653 0.52187 0.53256 0.0
H1483 H 0.61294 0.50254 0.52505 0.0
H1484 H 0.63301 0.51678 0.5838 0.0
H1485 H 0.60722 0.53689 0.5912 0.0
H1486 H 0.66244 0.51661 0.56112 0.0
H1487 H 0.60554 0.47346 0.56621 0.0
H1488 H 0.57217 0.45913 0.55879 0.0
H1489 H 0.58599 0.44177 0.50015 0.0
H1490 H 0.61941 0.45624 0.50717 0.0
H1491 H 0.71715 0.43808 0.56305 0.0
H1492 H 0.69263 0.46011 0.56881 0.0
H1493 H 0.67772 0.44935 0.50867 0.0
H1494 H 0.70218 0.42735 0.50277 0.0
H1495 H 0.64604 0.44795 0.53133 0.0
H1496 H 0.70374 0.49045 0.52725 0.0
H1497 H 0.7371 0.50424 0.53563 0.0
H1498 H 0.72166 0.52216 0.59368 0.0
H1499 H 0.68824 0.50821 0.58571 0.0
C1500 C 0.59678 0.52123 0.54381 0.0
C1501 C 0.59461 0.5308 0.56254 0.0
C1502 C 0.61176 0.50997 0.53954 0.0
C1503 C 0.62475 0.50785 0.55395 0.0
C1504 C 0.62311 0.51806 0.57246 0.0
C1505 C 0.60823 0.52942 0.57671 0.0
C1506 C 0.63963 0.49449 0.54995 0.0
C1507 C 0.65881 0.50155 0.55479 0.0
C1508 C 0.63499 0.47488 0.54142 0.0
C1509 C 0.61492 0.46611 0.53717 0.0
C1510 C 0.60143 0.46671 0.5517 0.0
C1511 C 0.58251 0.45855 0.54757 0.0
C1512 C 0.57695 0.44959 0.529 0.0
C1513 C 0.59031 0.44874 0.51452 0.0
C1514 C 0.60924 0.45691 0.51857 0.0
C1515 C 0.70862 0.44036 0.55105 0.0
C1516 C 0.71165 0.43098 0.53244 0.0
C1517 C 0.69468 0.45302 0.55436 0.0
C1518 C 0.68347 0.4565 0.53914 0.0
C1519 C 0.68623 0.4469 0.52061 0.0
C1520 C 0.70026 0.43437 0.51727 0.0
C1521 C 0.66879 0.47007 0.54252 0.0
C1522 C 0.64965 0.46303 0.53759 0.0
C1523 C 0.67346 0.48963 0.55111 0.0
C1524 C 0.69352 0.49811 0.55592 0.0
C1525 C 0.70748 0.49719 0.54184 0.0
C1526 C 0.7264 0.50506 0.54651 0.0
C1527 C 0.7315 0.51403 0.56519 0.0
C1528 C 0.71769 0.51519 0.57923 0.0
C1529 C 0.69876 0.50731 0.57464 0.0
H1530 H 0.74615 0.52011 0.56877 0.0
H1531 H 0.56229 0.44327 0.52583 0.0
H1532 H 0.70681 0.23629 0.35733 0.0
H1533 H 0.70904 0.26239 0.38495 0.0
H1534 H 0.76932 0.27535 0.37586 0.0
H1535 H 0.76717 0.24941 0.34826 0.0
H1536 H 0.76268 0.27146 0.41229 0.0
H1537 H 0.73706 0.30519 0.36603 0.0
H1538 H 0.71378 0.31002 0.34169 0.0
H1539 H 0.66924 0.3098 0.38266 0.0
H1540 H 0.69222 0.3047 0.40719 0.0
H1541 H 0.78732 0.36005 0.47257 0.0
H1542 H 0.78014 0.33514 0.44453 0.0
H1543 H 0.72136 0.32646 0.461 0.0
H1544 H 0.72841 0.35162 0.48921 0.0
H1545 H 0.72466 0.32698 0.42222 0.0
H1546 H 0.75016 0.29462 0.46875 0.0
H1547 H 0.77315 0.28962 0.49328 0.0
H1548 H 0.81738 0.28666 0.45197 0.0
H1549 H 0.79472 0.29193 0.42724 0.0
C1550 C 0.72045 0.24496 0.361 0.0
C1551 C 0.73685 0.24071 0.35068 0.0
C1552 C 0.72172 0.25984 0.37682 0.0
C1553 C 0.73936 0.27081 0.38249 0.0
C1554 C 0.75559 0.26698 0.37183 0.0
C1555 C 0.75434 0.25213 0.35608 0.0
C1556 C 0.74128 0.28561 0.4001 0.0
C1557 C 0.75452 0.28372 0.41434 0.0
C1558 C 0.73013 0.30122 0.4031 0.0
C1559 C 0.71632 0.30435 0.38839 0.0
C1560 C 0.72227 0.306 0.36981 0.0
C1561 C 0.70913 0.30883 0.35598 0.0
C1562 C 0.69003 0.31016 0.36061 0.0
C1563 C 0.68404 0.30873 0.37909 0.0
C1564 C 0.69711 0.30589 0.39296 0.0
C1565 C 0.77283 0.35291 0.47028 0.0
C1566 C 0.75846 0.35776 0.48323 0.0
C1567 C 0.76877 0.33862 0.45423 0.0
C1568 C 0.75027 0.32878 0.45079 0.0
C1569 C 0.73575 0.33385 0.46342 0.0
C1570 C 0.73982 0.34816 0.47957 0.0
C1571 C 0.74638 0.31302 0.43413 0.0
C1572 C 0.73274 0.31466 0.42016 0.0
C1573 C 0.7571 0.29709 0.43136 0.0
C1574 C 0.77077 0.29384 0.44618 0.0
C1575 C 0.76483 0.29306 0.46493 0.0
C1576 C 0.77779 0.29015 0.47887 0.0
C1577 C 0.79672 0.28787 0.4742 0.0
C1578 C 0.80272 0.28845 0.45557 0.0
C1579 C 0.78981 0.29138 0.44158 0.0
H1580 H 0.80674 0.28562 0.48501 0.0
H1581 H 0.67988 0.31234 0.34989 0.0
H1582 H 0.53987 0.02488 0.94581 0.0
H1583 H 0.56325 0.02695 0.92059 0.0
H1584 H 0.52563 0.0572 0.89128 0.0
H1585 H 0.50216 0.05484 0.91644 0.0
H1586 H 0.53609 0.02769 0.86779 0.0
H1587 H 0.56865 0.07993 0.91136 0.0
H1588 H 0.58339 0.09695 0.94204 0.0
H1589 H 0.62411 0.0559 0.93931 0.0
H1590 H 0.60944 0.03845 0.90874 0.0
H1591 H 0.62924 0.05415 0.81426 0.0
H1592 H 0.60871 0.06039 0.84164 0.0
H1593 H 0.58665 0.99997 0.83331 0.0
H1594 H 0.60684 0.99368 0.80565 0.0
H1595 H 0.60586 0.04851 0.87508 0.0
H1596 H 0.5401 0.99499 0.8443 0.0
H1597 H 0.52503 0.9806 0.81294 0.0
H1598 H 0.54968 0.02951 0.78906 0.0
H1599 H 0.56468 0.04432 0.82033 0.0
C1600 C 0.53694 0.03249 0.93426 0.0
C1601 C 0.51946 0.03994 0.93305 0.0
C1602 C 0.55026 0.03365 0.91985 0.0
C1603 C 0.54625 0.04229 0.90403 0.0
C1604 C 0.52905 0.05048 0.90333 0.0
C1605 C 0.51574 0.04929 0.91774 0.0
C1606 C 0.5591 0.0411 0.88744 0.0
C1607 C 0.55133 0.03234 0.8694 0.0
C1608 C 0.57896 0.04735 0.88943 0.0
C1609 C 0.58783 0.05779 0.90782 0.0
C1610 C 0.58065 0.07443 0.91738 0.0
C1611 C 0.58901 0.08418 0.93473 0.0
C1612 C 0.60465 0.07749 0.94264 0.0
C1613 C 0.61198 0.06106 0.93318 0.0
C1614 C 0.60367 0.05125 0.91582 0.0
C1615 C 0.62004 0.04216 0.81825 0.0
C1616 C 0.61959 0.02342 0.80766 0.0
C1617 C 0.60835 0.04576 0.83397 0.0
C1618 C 0.59595 0.03071 0.83942 0.0
C1619 C 0.59584 0.01189 0.82918 0.0
C1620 C 0.60745 0.00829 0.8134 0.0
C1621 C 0.58287 0.03475 0.85557 0.0
C1622 C 0.5906 0.04397 0.8735 0.0
C1623 C 0.56289 0.02929 0.85343 0.0
C1624 C 0.55365 0.02067 0.83463 0.0
C1625 C 0.54223 0.00272 0.83238 0.0
C1626 C 0.53371 0.99448 0.81461 0.0
C1627 C 0.53644 0.00411 0.799 0.0
C1628 C 0.54763 0.02204 0.80114 0.0
C1629 C 0.55615 0.03035 0.81888 0.0
H1630 H 0.52986 0.9977 0.78525 0.0
H1631 H 0.61111 0.08505 0.95607 0.0
H1632 H 0.2808 0.23327 0.32116 0.0
H1633 H 0.28061 0.21417 0.34689 0.0
H1634 H 0.32876 0.25231 0.37448 0.0
H1635 H 0.32944 0.27098 0.3482 0.0
H1636 H 0.33284 0.21731 0.37882 0.0
H1637 H 0.28131 0.25573 0.38895 0.0
H1638 H 0.25225 0.26927 0.3806 0.0
H1639 H 0.22124 0.21238 0.37008 0.0
H1640 H 0.25019 0.19846 0.37809 0.0
H1641 H 0.31491 0.1881 0.47038 0.0
H1642 H 0.31871 0.20717 0.44448 0.0
H1643 H 0.27877 0.16502 0.40905 0.0
H1644 H 0.27502 0.14582 0.4347 0.0
H1645 H 0.27121 0.20346 0.41014 0.0
H1646 H 0.32444 0.16577 0.40028 0.0
H1647 H 0.35385 0.15374 0.41005 0.0
H1648 H 0.38196 0.21183 0.42243 0.0
H1649 H 0.3526 0.22423 0.41298 0.0
C1650 C 0.29142 0.23747 0.33267 0.0
C1651 C 0.30503 0.25367 0.33282 0.0
C1652 C 0.29124 0.22663 0.34743 0.0
C1653 C 0.30434 0.23207 0.36296 0.0
C1654 C 0.31842 0.24786 0.36276 0.0
C1655 C 0.31882 0.25852 0.34776 0.0
C1656 C 0.303 0.22151 0.37951 0.0
C1657 C 0.31941 0.21455 0.38583 0.0
C1658 C 0.28547 0.21771 0.38866 0.0
C1659 C 0.26797 0.22604 0.38396 0.0
C1660 C 0.26832 0.24609 0.38473 0.0
C1661 C 0.25187 0.25384 0.38007 0.0
C1662 C 0.23492 0.24169 0.37477 0.0
C1663 C 0.23438 0.22177 0.37417 0.0
C1664 C 0.25081 0.21395 0.37878 0.0
C1665 C 0.30699 0.18286 0.45705 0.0
C1666 C 0.29467 0.16542 0.4546 0.0
C1667 C 0.30922 0.19375 0.44225 0.0
C1668 C 0.29907 0.18747 0.42482 0.0
C1669 C 0.28674 0.17012 0.42238 0.0
C1670 C 0.28467 0.15914 0.43705 0.0
C1671 C 0.30094 0.19911 0.40919 0.0
C1672 C 0.28463 0.20631 0.40312 0.0
C1673 C 0.3186 0.2034 0.40053 0.0
C1674 C 0.33626 0.19594 0.40613 0.0
C1675 C 0.33684 0.17599 0.40525 0.0
C1676 C 0.35351 0.1691 0.41069 0.0
C1677 C 0.36975 0.18201 0.41691 0.0
C1678 C 0.36936 0.20184 0.41764 0.0
C1679 C 0.35272 0.20881 0.41223 0.0
H1680 H 0.38264 0.17665 0.42112 0.0
H1681 H 0.2222 0.24771 0.37117 0.0
H1682 H 0.50542 0.49077 0.97059 0.0
H1683 H 0.48548 0.50021 0.94626 0.0
H1684 H 0.53437 0.50602 0.91059 0.0
H1685 H 0.55439 0.49614 0.93465 0.0
H1686 H 0.5124 0.53655 0.91233 0.0
H1687 H 0.50309 0.46715 0.90039 0.0
H1688 H 0.4954 0.43476 0.9089 0.0
H1689 H 0.43919 0.44805 0.92504 0.0
H1690 H 0.44665 0.48065 0.91688 0.0
H1691 H 0.46309 0.5381 0.82505 0.0
H1692 H 0.48344 0.53094 0.85031 0.0
H1693 H 0.43367 0.51929 0.88352 0.0
H1694 H 0.41317 0.52603 0.85811 0.0
H1695 H 0.45626 0.49202 0.88336 0.0
H1696 H 0.46512 0.56122 0.89512 0.0
H1697 H 0.47269 0.59384 0.8871 0.0
H1698 H 0.52937 0.5814 0.87186 0.0
H1699 H 0.52205 0.54859 0.87955 0.0
C1700 C 0.51193 0.49387 0.95751 0.0
C1701 C 0.5315 0.49254 0.95454 0.0
C1702 C 0.50052 0.49936 0.94366 0.0
C1703 C 0.50842 0.50365 0.92656 0.0
C1704 C 0.52801 0.5028 0.92371 0.0
C1705 C 0.53943 0.49721 0.93752 0.0
C1706 C 0.49614 0.50869 0.91154 0.0
C1707 C 0.50026 0.52675 0.9058 0.0
C1708 C 0.48005 0.49604 0.90338 0.0
C1709 C 0.4755 0.47641 0.9082 0.0
C1710 C 0.48914 0.46323 0.9059 0.0
C1711 C 0.48482 0.44482 0.91063 0.0
C1712 C 0.46683 0.43936 0.91755 0.0
C1713 C 0.45312 0.4523 0.9197 0.0
C1714 C 0.45739 0.47074 0.91501 0.0
C1715 C 0.45647 0.53414 0.83777 0.0
C1716 C 0.43649 0.53265 0.83956 0.0
C1717 C 0.46814 0.53012 0.85226 0.0
C1718 C 0.46012 0.52478 0.86893 0.0
C1719 C 0.44019 0.5234 0.87079 0.0
C1720 C 0.42849 0.52731 0.85627 0.0
C1721 C 0.47243 0.51997 0.88413 0.0
C1722 C 0.46835 0.5019 0.88989 0.0
C1723 C 0.48851 0.53265 0.89235 0.0
C1724 C 0.49297 0.55238 0.88773 0.0
C1725 C 0.47915 0.56538 0.88991 0.0
C1726 C 0.48341 0.58392 0.88545 0.0
C1727 C 0.50148 0.58967 0.87893 0.0
C1728 C 0.51536 0.57692 0.8769 0.0
C1729 C 0.51117 0.55836 0.88132 0.0
H1730 H 0.50475 0.60403 0.87549 0.0
H1731 H 0.46351 0.4251 0.92121 0.0
H1732 H 0.75015 0.81048 0.16692 0.0
H1733 H 0.75014 0.78625 0.13793 0.0
H1734 H 0.76083 0.74333 0.17209 0.0
H1735 H 0.76087 0.76754 0.20115 0.0
H1736 H 0.78609 0.74558 0.14211 0.0
H1737 H 0.71842 0.74014 0.15147 0.0
H1738 H 0.68711 0.75223 0.15681 0.0
H1739 H 0.69101 0.77436 0.10402 0.0
H1740 H 0.72249 0.76265 0.0985 0.0
H1741 H 0.77837 0.66667 0.06539 0.0
H1742 H 0.77412 0.68795 0.09551 0.0
H1743 H 0.75476 0.73 0.06447 0.0
H1744 H 0.75844 0.70854 0.03434 0.0
H1745 H 0.73308 0.7272 0.09379 0.0
H1746 H 0.80074 0.73519 0.08488 0.0
H1747 H 0.83277 0.72485 0.07922 0.0
H1748 H 0.82983 0.70005 0.13052 0.0
H1749 H 0.79766 0.71003 0.13637 0.0
C1750 C 0.7523 0.79582 0.16824 0.0
C1751 C 0.75552 0.79087 0.18627 0.0
C1752 C 0.7522 0.78199 0.15169 0.0
C1753 C 0.75543 0.76299 0.15288 0.0
C1754 C 0.75827 0.75791 0.17089 0.0
C1755 C 0.75816 0.77169 0.18746 0.0
C1756 C 0.75694 0.74876 0.13524 0.0
C1757 C 0.7744 0.74127 0.13168 0.0
C1758 C 0.74187 0.74367 0.1214 0.0
C1759 C 0.72291 0.75067 0.12466 0.0
C1760 C 0.71268 0.74773 0.14107 0.0
C1761 C 0.69489 0.75449 0.14412 0.0
C1762 C 0.6871 0.7641 0.13078 0.0
C1763 C 0.69707 0.76693 0.11435 0.0
C1764 C 0.71488 0.76022 0.11124 0.0
C1765 C 0.77325 0.68047 0.06497 0.0
C1766 C 0.76884 0.68595 0.04745 0.0
C1767 C 0.77088 0.69266 0.08222 0.0
C1768 C 0.76436 0.71073 0.08229 0.0
C1769 C 0.7598 0.71615 0.06481 0.0
C1770 C 0.76198 0.70388 0.04757 0.0
C1771 C 0.7623 0.72401 0.10056 0.0
C1772 C 0.74476 0.73137 0.10424 0.0
C1773 C 0.77739 0.72921 0.11443 0.0
C1774 C 0.79671 0.72317 0.11095 0.0
C1775 C 0.80686 0.72739 0.09487 0.0
C1776 C 0.82505 0.72162 0.09165 0.0
C1777 C 0.8333 0.71175 0.10447 0.0
C1778 C 0.8234 0.70767 0.12058 0.0
C1779 C 0.8052 0.71339 0.12387 0.0
H1780 H 0.84739 0.7073 0.10195 0.0
H1781 H 0.67331 0.76931 0.13317 0.0
H1782 H 0.01337 0.04326 0.08956 0.0
H1783 H 0.99836 0.04552 0.12062 0.0
H1784 H 0.0479 0.08277 0.14654 0.0
H1785 H 0.06335 0.07948 0.11552 0.0
H1786 H 0.03902 0.05924 0.16822 0.0
H1787 H 0.00183 0.09893 0.13959 0.0
H1788 H 0.98194 0.10858 0.11493 0.0
H1789 H 0.93885 0.06149 0.11961 0.0
H1790 H 0.95859 0.05138 0.14412 0.0
H1791 H 0.95537 0.07593 0.24099 0.0
H1792 H 0.97255 0.08336 0.21276 0.0
H1793 H 0.99783 0.03009 0.20863 0.0
H1794 H 0.98148 0.02312 0.23726 0.0
H1795 H 0.97072 0.06784 0.1781 0.0
H1796 H 0.0398 0.0317 0.18813 0.0
H1797 H 0.06094 0.02714 0.21444 0.0
H1798 H 0.04272 0.0767 0.24994 0.0
H1799 H 0.02168 0.08173 0.22377 0.0
C1800 C 0.02087 0.05218 0.10186 0.0
C1801 C 0.03941 0.06133 0.10018 0.0
C1802 C 0.01227 0.05356 0.11964 0.0
C1803 C 0.0218 0.06459 0.13603 0.0
C1804 C 0.0402 0.07415 0.1342 0.0
C1805 C 0.04899 0.07238 0.11648 0.0
C1806 C 0.01307 0.06511 0.15518 0.0
C1807 C 0.02412 0.06128 0.17036 0.0
C1808 C 0.99375 0.06828 0.15832 0.0
C1809 C 0.98177 0.07432 0.14362 0.0
C1810 C 0.98817 0.09055 0.13528 0.0
C1811 C 0.97691 0.09611 0.12133 0.0
C1812 C 0.95916 0.08563 0.11568 0.0
C1813 C 0.95261 0.06959 0.124 0.0
C1814 C 0.96381 0.06396 0.13794 0.0
C1815 C 0.96479 0.06594 0.23418 0.0
C1816 C 0.96718 0.04901 0.24144 0.0
C1817 C 0.97455 0.07016 0.21799 0.0
C1818 C 0.98675 0.05745 0.20862 0.0
C1819 C 0.98898 0.04045 0.21583 0.0
C1820 C 0.97952 0.03641 0.23219 0.0
C1821 C 0.99655 0.06147 0.19091 0.0
C1822 C 0.98569 0.06608 0.176 0.0
C1823 C 0.01625 0.0598 0.18826 0.0
C1824 C 0.02904 0.05699 0.20402 0.0
C1825 C 0.04038 0.04169 0.20152 0.0
C1826 C 0.05232 0.03901 0.21642 0.0
C1827 C 0.05313 0.05159 0.23387 0.0
C1828 C 0.04203 0.06692 0.23644 0.0
C1829 C 0.03007 0.06968 0.22158 0.0
H1830 H 0.06238 0.04948 0.24539 0.0
H1831 H 0.95047 0.08996 0.10488 0.0
H1832 H 0.29061 0.73278 0.15923 0.0
H1833 H 0.27415 0.74921 0.13705 0.0
H1834 H 0.29752 0.80448 0.16906 0.0
H1835 H 0.31343 0.78807 0.19132 0.0
H1836 H 0.26231 0.80641 0.15803 0.0
H1837 H 0.31819 0.78279 0.12765 0.0
H1838 H 0.33885 0.75792 0.11518 0.0
H1839 H 0.29335 0.72806 0.07713 0.0
H1840 H 0.27234 0.75265 0.08955 0.0
H1841 H 0.2653 0.86953 0.08994 0.0
H1842 H 0.27255 0.84927 0.11317 0.0
H1843 H 0.24329 0.7992 0.07696 0.0
H1844 H 0.23609 0.81932 0.05356 0.0
H1845 H 0.27764 0.79213 0.08944 0.0
H1846 H 0.22312 0.81883 0.11775 0.0
H1847 H 0.20356 0.84472 0.13002 0.0
H1848 H 0.24752 0.86985 0.17193 0.0
H1849 H 0.26746 0.84426 0.15973 0.0
C1850 C 0.29184 0.74842 0.16162 0.0
C1851 C 0.30311 0.75928 0.17688 0.0
C1852 C 0.28259 0.7578 0.14893 0.0
C1853 C 0.28481 0.77812 0.15121 0.0
C1854 C 0.29555 0.78884 0.16698 0.0
C1855 C 0.30464 0.77948 0.17968 0.0
C1856 C 0.27692 0.7884 0.1368 0.0
C1857 C 0.26575 0.80334 0.14305 0.0
C1858 C 0.28103 0.78418 0.11716 0.0
C1859 C 0.29364 0.76941 0.10969 0.0
C1860 C 0.31255 0.77083 0.11673 0.0
C1861 C 0.32433 0.75681 0.10965 0.0
C1862 C 0.31739 0.74139 0.09542 0.0
C1863 C 0.29868 0.73999 0.08819 0.0
C1864 C 0.28684 0.75396 0.09523 0.0
C1865 C 0.26028 0.85423 0.08696 0.0
C1866 C 0.2501 0.84606 0.06988 0.0
C1867 C 0.26437 0.84267 0.1003 0.0
C1868 C 0.2583 0.82273 0.0969 0.0
C1869 C 0.24807 0.81455 0.0799 0.0
C1870 C 0.24394 0.8261 0.06656 0.0
C1871 C 0.26331 0.81033 0.11073 0.0
C1872 C 0.27396 0.79501 0.10437 0.0
C1873 C 0.25885 0.81432 0.13029 0.0
C1874 C 0.24685 0.82969 0.13772 0.0
C1875 C 0.22868 0.82995 0.12949 0.0
C1876 C 0.21751 0.84456 0.13645 0.0
C1877 C 0.22431 0.85894 0.15172 0.0
C1878 C 0.24227 0.85871 0.16009 0.0
C1879 C 0.25351 0.84414 0.15317 0.0
H1880 H 0.21564 0.87024 0.15709 0.0
H1881 H 0.32653 0.73055 0.08996 0.0
H1882 H 0.00118 0.49227 0.09504 0.0
H1883 H 0.01923 0.49336 0.12485 0.0
H1884 H 0.06521 0.46927 0.09288 0.0
H1885 H 0.04675 0.4674 0.06312 0.0
H1886 H 0.06092 0.45381 0.12312 0.0
H1887 H 0.06636 0.51912 0.11179 0.0
H1888 H 0.05481 0.54907 0.10526 0.0
H1889 H 0.02427 0.55398 0.15762 0.0
H1890 H 0.03543 0.5239 0.16434 0.0
H1891 H 0.13404 0.4855 0.19582 0.0
H1892 H 0.11418 0.48086 0.16663 0.0
H1893 H 0.06526 0.49445 0.20016 0.0
H1894 H 0.08496 0.49901 0.22945 0.0
H1895 H 0.07091 0.51495 0.16963 0.0
H1896 H 0.06751 0.44927 0.18076 0.0
H1897 H 0.08081 0.41995 0.18666 0.0
H1898 H 0.11009 0.41692 0.13361 0.0
H1899 H 0.09717 0.44639 0.12752 0.0
C1900 C 0.01513 0.48718 0.09444 0.0
C1901 C 0.02265 0.47984 0.07684 0.0
C1902 C 0.02548 0.48789 0.11145 0.0
C1903 C 0.0438 0.48178 0.11114 0.0
C1904 C 0.05115 0.47411 0.09353 0.0
C1905 C 0.04063 0.47305 0.07654 0.0
C1906 C 0.05533 0.48353 0.12912 0.0
C1907 C 0.06329 0.46726 0.13314 0.0
C1908 C 0.05824 0.50099 0.14243 0.0
C1909 C 0.05159 0.51915 0.13847 0.0
C1910 C 0.05708 0.52651 0.12185 0.0
C1911 C 0.05061 0.54353 0.11812 0.0
C1912 C 0.03877 0.5534 0.13099 0.0
C1913 C 0.03342 0.5463 0.14765 0.0
C1914 C 0.03982 0.52928 0.15143 0.0
C1915 C 0.11903 0.48737 0.19701 0.0
C1916 C 0.11108 0.49262 0.21497 0.0
C1917 C 0.10769 0.48465 0.18031 0.0
C1918 C 0.08825 0.48724 0.18126 0.0
C1919 C 0.08024 0.49237 0.19914 0.0
C1920 C 0.09151 0.4949 0.21586 0.0
C1921 C 0.07642 0.48527 0.16353 0.0
C1922 C 0.06846 0.50152 0.15957 0.0
C1923 C 0.07379 0.46791 0.15017 0.0
C1924 C 0.08152 0.45015 0.15378 0.0
C1925 C 0.07691 0.44245 0.17043 0.0
C1926 C 0.08436 0.42578 0.17379 0.0
C1927 C 0.09633 0.41661 0.16054 0.0
C1928 C 0.10084 0.42406 0.14387 0.0
C1929 C 0.09344 0.44073 0.14045 0.0
H1930 H 0.10207 0.40371 0.16317 0.0
H1931 H 0.03378 0.56656 0.12807 0.0
H1932 H 0.37756 0.724 0.23563 0.0
H1933 H 0.40283 0.72469 0.25963 0.0
H1934 H 0.36048 0.72084 0.30282 0.0
H1935 H 0.33507 0.7203 0.27885 0.0
H1936 H 0.39216 0.74827 0.31485 0.0
H1937 H 0.37931 0.68181 0.28573 0.0
H1938 H 0.37463 0.65451 0.25894 0.0
H1939 H 0.43206 0.6684 0.24137 0.0
H1940 H 0.43699 0.69598 0.26789 0.0
H1941 H 0.45777 0.72833 0.38357 0.0
H1942 H 0.42994 0.72535 0.362 0.0
H1943 H 0.46703 0.72364 0.31382 0.0
H1944 H 0.49484 0.72625 0.33518 0.0
H1945 H 0.43622 0.69776 0.30568 0.0
H1946 H 0.44865 0.76511 0.33335 0.0
H1947 H 0.45365 0.7927 0.35984 0.0
H1948 H 0.3974 0.77762 0.37977 0.0
H1949 H 0.39218 0.74974 0.35355 0.0
C1950 C 0.37364 0.72351 0.25028 0.0
C1951 C 0.35435 0.72207 0.25538 0.0
C1952 C 0.38807 0.72376 0.26393 0.0
C1953 C 0.38349 0.72263 0.28295 0.0
C1954 C 0.36428 0.72167 0.2882 0.0
C1955 C 0.34981 0.72125 0.2745 0.0
C1956 C 0.39882 0.72216 0.29721 0.0
C1957 C 0.40162 0.73707 0.31304 0.0
C1958 C 0.41133 0.70772 0.29462 0.0
C1959 C 0.40846 0.69108 0.27871 0.0
C1960 C 0.39089 0.67915 0.27607 0.0
C1961 C 0.3882 0.6636 0.26094 0.0
C1962 C 0.40303 0.65975 0.24843 0.0
C1963 C 0.42058 0.67141 0.25105 0.0
C1964 C 0.42334 0.68699 0.26614 0.0
C1965 C 0.45999 0.72717 0.36837 0.0
C1966 C 0.47854 0.72762 0.36111 0.0
C1967 C 0.44407 0.72556 0.35607 0.0
C1968 C 0.44642 0.72455 0.33632 0.0
C1969 C 0.46487 0.72443 0.32901 0.0
C1970 C 0.48077 0.72597 0.34126 0.0
C1971 C 0.42978 0.72402 0.32322 0.0
C1972 C 0.4267 0.7089 0.3076 0.0
C1973 C 0.41708 0.73833 0.32597 0.0
C1974 C 0.42011 0.75521 0.34161 0.0
C1975 C 0.4374 0.76759 0.34346 0.0
C1976 C 0.44027 0.7833 0.35842 0.0
C1977 C 0.42588 0.78688 0.37151 0.0
C1978 C 0.40855 0.7748 0.36964 0.0
C1979 C 0.40563 0.75905 0.35473 0.0
H1980 H 0.42813 0.79903 0.38309 0.0
H1981 H 0.40092 0.6477 0.23673 0.0
H1982 H 0.00354 0.45947 0.9893 0.0
H1983 H 0.00419 0.4298 0.96608 0.0
H1984 H 0.9901 0.39577 0.01024 0.0
H1985 H 0.98917 0.42531 0.03344 0.0
H1986 H 0.02127 0.38511 0.99087 0.0
H1987 H 0.95777 0.39739 0.97527 0.0
H1988 H 0.9334 0.41674 0.966 0.0
H1989 H 0.96222 0.42186 0.91368 0.0
H1990 H 0.98692 0.40275 0.92278 0.0
H1991 H 0.00801 0.29224 0.93429 0.0
H1992 H 0.00327 0.32199 0.95577 0.0
H1993 H 0.01345 0.3543 0.90961 0.0
H1994 H 0.01775 0.3245 0.88791 0.0
H1995 H 0.98434 0.36625 0.92957 0.0
H1996 H 0.04793 0.355 0.94469 0.0
H1997 H 0.07315 0.3364 0.95358 0.0
H1998 H 0.04543 0.33046 0.00628 0.0
H1999 H 0.01989 0.3488 0.9976 0.0
C2000 C 1.00012 0.44567 0.99397 0.0
C2001 C 0.99642 0.44476 0.01326 0.0
C2002 C 1.00057 0.42872 0.98069 0.0
C2003 C 0.99723 0.41056 0.98643 0.0
C2004 C 0.99284 0.40962 0.00551 0.0
C2005 C 0.99235 0.42652 0.01876 0.0
C2006 C 0.9995 0.39257 0.97291 0.0
C2007 C 0.01298 0.38083 0.9776 0.0
C2008 C 0.98916 0.38733 0.9553 0.0
C2009 C 0.9743 0.3988 0.9498 0.0
C2010 C 0.959 0.40278 0.96187 0.0
C2011 C 0.94511 0.41368 0.95663 0.0
C2012 C 0.94629 0.42057 0.93928 0.0
C2013 C 0.96134 0.41653 0.92712 0.0
C2014 C 0.97528 0.40565 0.93231 0.0
C2015 C 0.00928 0.30567 0.9287 0.0
C2016 C 0.01337 0.306 0.9094 0.0
C2017 C 0.00662 0.3227 0.94102 0.0
C2018 C 0.00826 0.34046 0.93439 0.0
C2019 C 0.01213 0.34079 0.91507 0.0
C2020 C 0.01465 0.32374 0.9027 0.0
C2021 C 0.006 0.35868 0.94762 0.0
C2022 C 0.9926 0.3705 0.94286 0.0
C2023 C 0.01654 0.36412 0.96511 0.0
C2024 C 0.0319 0.35311 0.9704 0.0
C2025 C 0.04713 0.3496 0.95811 0.0
C2026 C 0.0615 0.33912 0.96312 0.0
C2027 C 0.06086 0.33221 0.98046 0.0
C2028 C 0.04588 0.3358 0.99285 0.0
C2029 C 0.03147 0.34625 0.9879 0.0
H2030 H 0.072 0.32411 0.98432 0.0
H2031 H 0.93552 0.42901 0.93525 0.0
H2032 H 0.69279 0.79458 0.2379 0.0
H2033 H 0.66246 0.78101 0.25003 0.0
H2034 H 0.69228 0.77246 0.30072 0.0
H2035 H 0.72251 0.78561 0.28838 0.0
H2036 H 0.66487 0.74313 0.28982 0.0
H2037 H 0.66982 0.81303 0.29964 0.0
H2038 H 0.67356 0.84493 0.28944 0.0
H2039 H 0.62324 0.82833 0.25327 0.0
H2040 H 0.61935 0.79623 0.26309 0.0
H2041 H 0.5945 0.74709 0.36044 0.0
H2042 H 0.62231 0.75247 0.34082 0.0
H2043 H 0.58536 0.75956 0.29442 0.0
H2044 H 0.55747 0.75455 0.31407 0.0
H2045 H 0.61457 0.78721 0.29953 0.0
H2046 H 0.60756 0.71839 0.293 0.0
H2047 H 0.60377 0.68693 0.30408 0.0
H2048 H 0.65772 0.70153 0.33461 0.0
H2049 H 0.66173 0.73319 0.32393 0.0
C2050 C 0.69281 0.78934 0.2514 0.0
C2051 C 0.70978 0.79096 0.26226 0.0
C2052 C 0.67553 0.78174 0.25838 0.0
C2053 C 0.67506 0.77598 0.27643 0.0
C2054 C 0.69228 0.77678 0.28678 0.0
C2055 C 0.70951 0.78428 0.27975 0.0
C2056 C 0.65663 0.77046 0.28527 0.0
C2057 C 0.6539 0.75279 0.29203 0.0
C2058 C 0.64212 0.78288 0.28779 0.0
C2059 C 0.64443 0.80217 0.28192 0.0
C2060 C 0.65964 0.81614 0.2894 0.0
C2061 C 0.66177 0.83426 0.28371 0.0
C2062 C 0.64868 0.83863 0.27067 0.0
C2063 C 0.63339 0.82491 0.26334 0.0
C2064 C 0.63122 0.80676 0.26896 0.0
C2065 C 0.59226 0.7497 0.34603 0.0
C2066 C 0.57375 0.75039 0.33883 0.0
C2067 C 0.60818 0.75266 0.33478 0.0
C2068 C 0.60592 0.75616 0.31604 0.0
C2069 C 0.58745 0.75682 0.30881 0.0
C2070 C 0.57152 0.75394 0.32007 0.0
C2071 C 0.62289 0.75998 0.30433 0.0
C2072 C 0.62538 0.77737 0.29708 0.0
C2073 C 0.63717 0.74732 0.30142 0.0
C2074 C 0.63487 0.72823 0.30777 0.0
C2075 C 0.61856 0.71495 0.30218 0.0
C2076 C 0.61638 0.69707 0.30838 0.0
C2077 C 0.63047 0.69225 0.32008 0.0
C2078 C 0.64681 0.70528 0.32556 0.0
C2079 C 0.64905 0.72319 0.31942 0.0
H2080 H 0.62876 0.67841 0.32486 0.0
H2081 H 0.65035 0.85267 0.26628 0.0
H2082 H 0.05663 0.08316 0.9927 0.0
H2083 H 0.05282 0.11007 0.97581 0.0
H2084 H 0.01402 0.13188 0.01864 0.0
H2085 H 0.01763 0.10459 0.03536 0.0
H2086 H 0.99987 0.13177 0.98379 0.0
H2087 H 0.05998 0.15456 0.01615 0.0
H2088 H 0.09316 0.15285 0.02643 0.0
H2089 H 0.11021 0.14504 0.968 0.0
H2090 H 0.07707 0.14644 0.95734 0.0
H2091 H 0.99709 0.22099 0.95041 0.0
H2092 H 0.00194 0.19645 0.9699 0.0
H2093 H 0.03973 0.17118 0.92796 0.0
H2094 H 0.03513 0.19584 0.90844 0.0
H2095 H 0.05443 0.17419 0.96372 0.0
H2096 H 0.99409 0.1501 0.93144 0.0
H2097 H 0.96088 0.15165 0.92114 0.0
H2098 H 0.94433 0.16196 0.97968 0.0
H2099 H 0.97752 0.16072 0.99034 0.0
C2100 C 0.04748 0.09387 0.99858 0.0
C2101 C 0.03752 0.09205 0.01531 0.0
C2102 C 0.04535 0.10926 0.98898 0.0
C2103 C 0.03331 0.12319 0.99606 0.0
C2104 C 0.02343 0.12137 0.01294 0.0
C2105 C 0.02554 0.10589 0.02252 0.0
C2106 C 0.03045 0.1391 0.98534 0.0
C2107 C 0.01179 0.14127 0.97971 0.0
C2108 C 0.04602 0.15121 0.97957 0.0
C2109 C 0.06599 0.15044 0.98594 0.0
C2110 C 0.07077 0.15234 0.00548 0.0
C2111 C 0.08958 0.15145 0.01138 0.0
C2112 C 0.10378 0.1488 0.99788 0.0
C2113 C 0.0992 0.14708 0.97844 0.0
C2114 C 0.08041 0.14794 0.97246 0.0
C2115 C 0.0064 0.21019 0.94527 0.0
C2116 C 0.01567 0.21036 0.9278 0.0
C2117 C 0.00911 0.19612 0.95643 0.0
C2118 C 0.02106 0.18184 0.95033 0.0
C2119 C 0.03044 0.18204 0.93297 0.0
C2120 C 0.02773 0.19611 0.92178 0.0
C2121 C 0.02387 0.16677 0.96211 0.0
C2122 C 0.04252 0.16475 0.96792 0.0
C2123 C 0.0083 0.15481 0.96806 0.0
C2124 C 0.98833 0.15552 0.96168 0.0
C2125 C 0.9834 0.15285 0.94211 0.0
C2126 C 0.96458 0.15365 0.93621 0.0
C2127 C 0.95051 0.15696 0.94974 0.0
C2128 C 0.95524 0.15943 0.96921 0.0
C2129 C 0.97405 0.15867 0.97519 0.0
H2130 H 0.93594 0.15756 0.94514 0.0
H2131 H 0.11833 0.14811 0.00247 0.0
H2132 H 0.31755 0.2799 0.25389 0.0
H2133 H 0.34438 0.28079 0.23232 0.0
H2134 H 0.38399 0.28988 0.28044 0.0
H2135 H 0.35719 0.2896 0.3022 0.0
H2136 H 0.39647 0.31164 0.25384 0.0
H2137 H 0.37279 0.24524 0.2546 0.0
H2138 H 0.3483 0.21691 0.25155 0.0
H2139 H 0.33723 0.22154 0.19305 0.0
H2140 H 0.36148 0.25009 0.19584 0.0
H2141 H 0.4785 0.28133 0.20509 0.0
H2142 H 0.45147 0.28476 0.22629 0.0
H2143 H 0.41265 0.27433 0.17744 0.0
H2144 H 0.43958 0.27063 0.15613 0.0
H2145 H 0.3995 0.25389 0.20409 0.0
H2146 H 0.42397 0.31984 0.20307 0.0
H2147 H 0.44857 0.34809 0.20621 0.0
H2148 H 0.45836 0.34426 0.26513 0.0
H2149 H 0.434 0.31581 0.26227 0.0
C2150 C 0.33195 0.28251 0.25995 0.0
C2151 C 0.33519 0.28458 0.27981 0.0
C2152 C 0.3473 0.28281 0.24756 0.0
C2153 C 0.36621 0.28507 0.25473 0.0
C2154 C 0.36952 0.288 0.27457 0.0
C2155 C 0.35418 0.2877 0.28698 0.0
C2156 C 0.38248 0.28356 0.24152 0.0
C2157 C 0.39725 0.29893 0.2431 0.0
C2158 C 0.38333 0.26713 0.22724 0.0
C2159 C 0.36881 0.24992 0.2255 0.0
C2160 C 0.36503 0.24031 0.24113 0.0
C2161 C 0.35121 0.2242 0.23944 0.0
C2162 C 0.34118 0.21746 0.22213 0.0
C2163 C 0.34499 0.22679 0.20646 0.0
C2164 C 0.35878 0.24293 0.20809 0.0
C2165 C 0.46422 0.2798 0.19883 0.0
C2166 C 0.46123 0.27573 0.17888 0.0
C2167 C 0.44878 0.28187 0.21099 0.0
C2168 C 0.43002 0.28003 0.20347 0.0
C2169 C 0.42699 0.27585 0.18358 0.0
C2170 C 0.44242 0.27379 0.17141 0.0
C2171 C 0.41352 0.282 0.21636 0.0
C2172 C 0.39871 0.26666 0.21476 0.0
C2173 C 0.41266 0.29845 0.23062 0.0
C2174 C 0.42729 0.31558 0.2324 0.0
C2175 C 0.43148 0.32493 0.21666 0.0
C2176 C 0.44536 0.34099 0.21839 0.0
C2177 C 0.45506 0.34794 0.23585 0.0
C2178 C 0.45086 0.33885 0.25162 0.0
C2179 C 0.437 0.32277 0.24995 0.0
H2180 H 0.4658 0.36038 0.23717 0.0
H2181 H 0.33048 0.20499 0.22085 0.0
H2182 H 0.53662 0.44453 0.05157 0.0
H2183 H 0.53981 0.42117 0.07298 0.0
H2184 H 0.57215 0.3884 0.03055 0.0
H2185 H 0.5686 0.41169 0.00902 0.0
H2186 H 0.54379 0.36583 0.0419 0.0
H2187 H 0.59289 0.41235 0.07379 0.0
H2188 H 0.60783 0.4444 0.08951 0.0
H2189 H 0.56582 0.44515 0.13305 0.0
H2190 H 0.55044 0.4132 0.11744 0.0
H2191 H 0.55989 0.29705 0.10046 0.0
H2192 H 0.56597 0.32353 0.08232 0.0
H2193 H 0.52916 0.35685 0.11919 0.0
H2194 H 0.52301 0.33041 0.13751 0.0
H2195 H 0.56247 0.37898 0.11074 0.0
H2196 H 0.51218 0.33369 0.07706 0.0
H2197 H 0.49734 0.30162 0.06124 0.0
H2198 H 0.54238 0.29885 0.0208 0.0
H2199 H 0.55764 0.3308 0.03656 0.0
C2200 C 0.54488 0.43262 0.04712 0.0
C2201 C 0.55257 0.42989 0.02887 0.0
C2202 C 0.54672 0.41929 0.05933 0.0
C2203 C 0.55634 0.40304 0.05345 0.0
C2204 C 0.56471 0.40082 0.03542 0.0
C2205 C 0.56282 0.41415 0.0232 0.0
C2206 C 0.55587 0.38746 0.06525 0.0
C2207 C 0.54828 0.36867 0.05685 0.0
C2208 C 0.56122 0.3912 0.0849 0.0
C2209 C 0.57041 0.41043 0.09434 0.0
C2210 C 0.58673 0.41941 0.08663 0.0
C2211 C 0.5953 0.43755 0.09554 0.0
C2212 C 0.58775 0.44682 0.11224 0.0
C2213 C 0.57164 0.43795 0.1201 0.0
C2214 C 0.563 0.41982 0.11124 0.0
C2215 C 0.55316 0.31004 0.10482 0.0
C2216 C 0.54084 0.31155 0.12037 0.0
C2217 C 0.55664 0.32516 0.0944 0.0
C2218 C 0.54788 0.34209 0.0993 0.0
C2219 C 0.53606 0.34391 0.11517 0.0
C2220 C 0.5325 0.32874 0.12557 0.0
C2221 C 0.55039 0.35751 0.08734 0.0
C2222 C 0.55825 0.3762 0.09572 0.0
C2223 C 0.54534 0.35372 0.06764 0.0
C2224 C 0.53616 0.33453 0.05812 0.0
C2225 C 0.519 0.32616 0.06489 0.0
C2226 C 0.5105 0.30802 0.05592 0.0
C2227 C 0.51894 0.29817 0.04006 0.0
C2228 C 0.53587 0.30648 0.0331 0.0
C2229 C 0.54445 0.32461 0.04204 0.0
H2230 H 0.51233 0.28413 0.03312 0.0
H2231 H 0.59441 0.46086 0.11912 0.0
H2232 H 0.66646 0.23044 0.30768 0.0
H2233 H 0.64159 0.24552 0.29302 0.0
H2234 H 0.66299 0.226 0.23719 0.0
H2235 H 0.68792 0.21136 0.25189 0.0
H2236 H 0.65345 0.26148 0.23915 0.0
H2237 H 0.624 0.20125 0.25531 0.0
H2238 H 0.6147 0.17803 0.27693 0.0
H2239 H 0.5834 0.2195 0.31066 0.0
H2240 H 0.59273 0.24307 0.28935 0.0
H2241 H 0.57328 0.25747 0.17717 0.0
H2242 H 0.59985 0.25032 0.19609 0.0
H2243 H 0.57359 0.27451 0.24785 0.0
H2244 H 0.54687 0.2816 0.22904 0.0
H2245 H 0.58555 0.23999 0.25057 0.0
H2246 H 0.61251 0.29903 0.23182 0.0
H2247 H 0.62146 0.32151 0.2094 0.0
H2248 H 0.65721 0.2817 0.17979 0.0
H2249 H 0.64826 0.25885 0.20188 0.0
C2250 C 0.66591 0.22969 0.29232 0.0
C2251 C 0.67894 0.21987 0.28081 0.0
C2252 C 0.65169 0.23817 0.28394 0.0
C2253 C 0.65026 0.23669 0.26396 0.0
C2254 C 0.6638 0.22737 0.25261 0.0
C2255 C 0.67799 0.21899 0.26098 0.0
C2256 C 0.63428 0.24403 0.25465 0.0
C2257 C 0.63861 0.25669 0.24156 0.0
C2258 C 0.61488 0.23814 0.25809 0.0
C2259 C 0.60925 0.22399 0.27088 0.0
C2260 C 0.61526 0.20547 0.26743 0.0
C2261 C 0.60997 0.19223 0.2796 0.0
C2262 C 0.59852 0.19731 0.2952 0.0
C2263 C 0.5923 0.21561 0.2986 0.0
C2264 C 0.59758 0.22891 0.28648 0.0
C2265 C 0.57318 0.26137 0.19257 0.0
C2266 C 0.55794 0.27013 0.20158 0.0
C2267 C 0.58844 0.25735 0.20337 0.0
C2268 C 0.58881 0.26205 0.22339 0.0
C2269 C 0.57363 0.2708 0.23243 0.0
C2270 C 0.55838 0.27488 0.22163 0.0
C2271 C 0.60473 0.2572 0.23487 0.0
C2272 C 0.60039 0.24499 0.24834 0.0
C2273 C 0.6241 0.26342 0.2317 0.0
C2274 C 0.62958 0.27716 0.21843 0.0
C2275 C 0.62216 0.295 0.22044 0.0
C2276 C 0.62726 0.30782 0.20781 0.0
C2277 C 0.63986 0.30302 0.19315 0.0
C2278 C 0.64743 0.2854 0.19114 0.0
C2279 C 0.64237 0.27252 0.20373 0.0
H2280 H 0.64379 0.31296 0.18339 0.0
H2281 H 0.59443 0.18704 0.3046 0.0
H2282 H 0.48603 0.09393 0.9904 0.0
H2283 H 0.49345 0.12474 0.01232 0.0
H2284 H 0.49456 0.0939 0.05984 0.0
H2285 H 0.48687 0.06331 0.03812 0.0
H2286 H 0.47261 0.12156 0.06733 0.0
H2287 H 0.53568 0.11687 0.04242 0.0
H2288 H 0.5595 0.11352 0.01716 0.0
H2289 H 0.54552 0.16549 0.99932 0.0
H2290 H 0.52142 0.16901 0.02432 0.0
H2291 H 0.51196 0.19357 0.14227 0.0
H2292 H 0.50735 0.16539 0.11696 0.0
H2293 H 0.50297 0.20249 0.07505 0.0
H2294 H 0.50773 0.2309 0.10035 0.0
H2295 H 0.52541 0.17344 0.06295 0.0
H2296 H 0.46329 0.17869 0.08871 0.0
H2297 H 0.43957 0.18205 0.11404 0.0
H2298 H 0.4518 0.12872 0.13019 0.0
H2299 H 0.47582 0.12519 0.10512 0.0
C2300 C 0.48823 0.09378 0.00549 0.0
C2301 C 0.48574 0.07628 0.0126 0.0
C2302 C 0.49245 0.11137 0.018 0.0
C2303 C 0.49453 0.11167 0.03778 0.0
C2304 C 0.49286 0.09409 0.0447 0.0
C2305 C 0.4885 0.07661 0.03227 0.0
C2306 C 0.49723 0.13017 0.05154 0.0
C2307 C 0.48432 0.13277 0.06647 0.0
C2308 C 0.51208 0.14515 0.05009 0.0
C2309 C 0.5266 0.14308 0.0351 0.0
C2310 C 0.53757 0.12749 0.033 0.0
C2311 C 0.55115 0.12558 0.01876 0.0
C2312 C 0.55398 0.13925 0.00661 0.0
C2313 C 0.54329 0.1549 0.00872 0.0
C2314 C 0.52968 0.15686 0.02293 0.0
C2315 C 0.51001 0.19579 0.12769 0.0
C2316 C 0.5101 0.21451 0.12337 0.0
C2317 C 0.50734 0.17964 0.11322 0.0
C2318 C 0.50463 0.18181 0.09413 0.0
C2319 C 0.50502 0.20048 0.08969 0.0
C2320 C 0.50764 0.21668 0.10418 0.0
C2321 C 0.50109 0.1645 0.07894 0.0
C2322 C 0.51371 0.1622 0.06373 0.0
C2323 C 0.48597 0.14973 0.08009 0.0
C2324 C 0.47148 0.15176 0.09514 0.0
C2325 C 0.46103 0.16776 0.09776 0.0
C2326 C 0.44751 0.16968 0.11205 0.0
C2327 C 0.44421 0.15563 0.12375 0.0
C2328 C 0.45439 0.1396 0.12113 0.0
C2329 C 0.46794 0.13762 0.10687 0.0
H2330 H 0.43373 0.15714 0.1348 0.0
H2331 H 0.5645 0.13775 0.99559 0.0
H2332 H 0.30332 0.33718 0.71651 0.0
H2333 H 0.32795 0.36518 0.72141 0.0
H2334 H 0.28593 0.40173 0.74476 0.0
H2335 H 0.26125 0.37388 0.7397 0.0
H2336 H 0.31014 0.41864 0.72007 0.0
H2337 H 0.31468 0.38585 0.77414 0.0
H2338 H 0.31844 0.35781 0.78979 0.0
H2339 H 0.37329 0.35302 0.76462 0.0
H2340 H 0.36973 0.38088 0.74859 0.0
H2341 H 0.36513 0.49965 0.77341 0.0
H2342 H 0.34295 0.47056 0.76296 0.0
H2343 H 0.39024 0.43887 0.74479 0.0
H2344 H 0.41264 0.46793 0.75547 0.0
H2345 H 0.36508 0.41841 0.76415 0.0
H2346 H 0.36191 0.45273 0.71205 0.0
H2347 H 0.35833 0.48073 0.6963 0.0
H2348 H 0.30136 0.48257 0.71708 0.0
H2349 H 0.3047 0.45475 0.7332 0.0
C2350 C 0.29931 0.35124 0.72244 0.0
C2351 C 0.2804 0.35336 0.72783 0.0
C2352 C 0.31339 0.36718 0.72534 0.0
C2353 C 0.30878 0.38547 0.73361 0.0
C2354 C 0.28979 0.38773 0.73839 0.0
C2355 C 0.27575 0.3718 0.73562 0.0
C2356 C 0.32381 0.40219 0.73799 0.0
C2357 C 0.32208 0.41868 0.72981 0.0
C2358 C 0.33964 0.40199 0.7503 0.0
C2359 C 0.34184 0.3853 0.75999 0.0
C2360 C 0.32747 0.37871 0.77181 0.0
C2361 C 0.32958 0.36287 0.78077 0.0
C2362 C 0.34607 0.3536 0.77815 0.0
C2363 C 0.36051 0.36019 0.7666 0.0
C2364 C 0.35846 0.37601 0.75758 0.0
C2365 C 0.37085 0.48652 0.76718 0.0
C2366 C 0.39067 0.48613 0.76522 0.0
C2367 C 0.35813 0.46991 0.76111 0.0
C2368 C 0.36492 0.45261 0.75284 0.0
C2369 C 0.3847 0.4521 0.75107 0.0
C2370 C 0.39746 0.46872 0.75715 0.0
C2371 C 0.35131 0.43502 0.74642 0.0
C2372 C 0.35328 0.41835 0.75423 0.0
C2373 C 0.33573 0.43504 0.7337 0.0
C2374 C 0.33362 0.45174 0.72397 0.0
C2375 C 0.34867 0.4592 0.71339 0.0
C2376 C 0.34668 0.47502 0.70437 0.0
C2377 C 0.32964 0.48345 0.70572 0.0
C2378 C 0.31455 0.47604 0.71606 0.0
C2379 C 0.31648 0.46022 0.72512 0.0
H2380 H 0.32812 0.4957 0.69873 0.0
H2381 H 0.34768 0.34134 0.78511 0.0
H2382 H 0.28472 0.71071 0.8177 0.0
H2383 H 0.30935 0.68876 0.81683 0.0
H2384 H 0.26552 0.63999 0.81003 0.0
H2385 H 0.24086 0.66184 0.81096 0.0
H2386 H 0.2943 0.63828 0.83718 0.0
H2387 H 0.28867 0.65 0.77227 0.0
H2388 H 0.28883 0.67056 0.74739 0.0
H2389 H 0.34681 0.69406 0.76319 0.0
H2390 H 0.3469 0.67383 0.78837 0.0
H2391 H 0.34325 0.55883 0.80338 0.0
H2392 H 0.3221 0.58402 0.80828 0.0
H2393 H 0.37013 0.62726 0.80562 0.0
H2394 H 0.39142 0.60193 0.80015 0.0
H2395 H 0.34129 0.63421 0.78537 0.0
H2396 H 0.34847 0.62148 0.84854 0.0
H2397 H 0.34897 0.60182 0.87411 0.0
H2398 H 0.28942 0.58161 0.86315 0.0
H2399 H 0.28861 0.60094 0.83731 0.0
C2400 C 0.28036 0.69531 0.81615 0.0
C2401 C 0.26088 0.68797 0.81431 0.0
C2402 C 0.29442 0.6828 0.81556 0.0
C2403 C 0.28925 0.66275 0.81325 0.0
C2404 C 0.26981 0.65541 0.8118 0.0
C2405 C 0.25575 0.66789 0.81219 0.0
C2406 C 0.30406 0.64933 0.81203 0.0
C2407 C 0.30448 0.63723 0.82578 0.0
C2408 C 0.31773 0.64848 0.79752 0.0
C2409 C 0.31771 0.66057 0.78234 0.0
C2410 C 0.30139 0.65968 0.77055 0.0
C2411 C 0.30145 0.67125 0.75637 0.0
C2412 C 0.3178 0.68365 0.75375 0.0
C2413 C 0.33415 0.68447 0.76526 0.0
C2414 C 0.33416 0.67295 0.77948 0.0
C2415 C 0.34939 0.5737 0.80394 0.0
C2416 C 0.36906 0.57836 0.80142 0.0
C2417 C 0.33725 0.58813 0.80686 0.0
C2418 C 0.34453 0.60761 0.80764 0.0
C2419 C 0.36418 0.61234 0.80514 0.0
C2420 C 0.37634 0.59785 0.80206 0.0
C2421 C 0.33142 0.62284 0.81039 0.0
C2422 C 0.33128 0.63532 0.79693 0.0
C2423 C 0.31814 0.62418 0.82531 0.0
C2424 C 0.31853 0.61255 0.84088 0.0
C2425 C 0.33551 0.61273 0.85148 0.0
C2426 C 0.33585 0.60166 0.86604 0.0
C2427 C 0.31925 0.59044 0.87022 0.0
C2428 C 0.30227 0.5903 0.85988 0.0
C2429 C 0.30186 0.60133 0.84529 0.0
H2430 H 0.31954 0.58188 0.8815 0.0
H2431 H 0.31782 0.69259 0.74277 0.0
H2432 H 0.95306 0.52565 0.51972 0.0
H2433 H 0.925 0.50725 0.53074 0.0
H2434 H 0.89825 0.50028 0.47479 0.0
H2435 H 0.92589 0.51936 0.4639 0.0
H2436 H 0.87332 0.50944 0.50154 0.0
H2437 H 0.91865 0.46328 0.49029 0.0
H2438 H 0.94956 0.45079 0.49362 0.0
H2439 H 0.94214 0.45481 0.55406 0.0
H2440 H 0.91129 0.46757 0.55112 0.0
H2441 H 0.80114 0.43256 0.50874 0.0
H2442 H 0.82937 0.45228 0.49983 0.0
H2443 H 0.85167 0.46086 0.55772 0.0
H2444 H 0.82346 0.44104 0.56679 0.0
H2445 H 0.87887 0.45153 0.53133 0.0
H2446 H 0.83276 0.49671 0.54207 0.0
H2447 H 0.8016 0.50853 0.53823 0.0
H2448 H 0.81035 0.50575 0.47811 0.0
H2449 H 0.84145 0.49364 0.48154 0.0
C2450 C 0.94114 0.52034 0.50979 0.0
C2451 C 0.94177 0.52395 0.49089 0.0
C2452 C 0.92518 0.50965 0.51607 0.0
C2453 C 0.9096 0.50217 0.50353 0.0
C2454 C 0.91013 0.50584 0.4847 0.0
C2455 C 0.92604 0.51659 0.47844 0.0
C2456 C 0.89263 0.4907 0.51004 0.0
C2457 C 0.87452 0.49664 0.50783 0.0
C2458 C 0.89423 0.47427 0.51871 0.0
C2459 C 0.91276 0.46657 0.52051 0.0
C2460 C 0.92368 0.46165 0.50431 0.0
C2461 C 0.94118 0.45449 0.50613 0.0
C2462 C 0.94783 0.45206 0.52405 0.0
C2463 C 0.93698 0.45673 0.54019 0.0
C2464 C 0.91948 0.46391 0.53845 0.0
C2465 C 0.81201 0.43867 0.51961 0.0
C2466 C 0.81001 0.43528 0.5385 0.0
C2467 C 0.82812 0.44999 0.5145 0.0
C2468 C 0.84253 0.45818 0.52816 0.0
C2469 C 0.84069 0.4547 0.54698 0.0
C2470 C 0.82453 0.44343 0.55214 0.0
C2471 C 0.85961 0.47021 0.52267 0.0
C2472 C 0.87771 0.46437 0.52509 0.0
C2473 C 0.85801 0.48669 0.51413 0.0
C2474 C 0.83936 0.4941 0.51204 0.0
C2475 C 0.82798 0.49848 0.528 0.0
C2476 C 0.81034 0.50525 0.52591 0.0
C2477 C 0.80398 0.50784 0.50793 0.0
C2478 C 0.81528 0.50371 0.49202 0.0
C2479 C 0.83292 0.49691 0.49404 0.0
H2480 H 0.79031 0.51309 0.50634 0.0
H2481 H 0.96138 0.44651 0.52543 0.0
H2482 H 0.74945 0.81775 0.76417 0.0
H2483 H 0.73519 0.84597 0.75706 0.0
H2484 H 0.76406 0.88094 0.80697 0.0
H2485 H 0.77815 0.85266 0.81408 0.0
H2486 H 0.72647 0.88376 0.80699 0.0
H2487 H 0.77648 0.88805 0.762 0.0
H2488 H 0.79627 0.87624 0.73506 0.0
H2489 H 0.74659 0.86408 0.6977 0.0
H2490 H 0.72644 0.87556 0.72449 0.0
H2491 H 0.70094 0.97446 0.79452 0.0
H2492 H 0.71929 0.94766 0.7968 0.0
H2493 H 0.68804 0.91359 0.7479 0.0
H2494 H 0.66959 0.94049 0.74541 0.0
H2495 H 0.72676 0.91017 0.74648 0.0
H2496 H 0.67676 0.905 0.79127 0.0
H2497 H 0.65666 0.91646 0.81808 0.0
H2498 H 0.70615 0.92965 0.85568 0.0
H2499 H 0.72661 0.91852 0.82901 0.0
C2500 C 0.75315 0.83163 0.77324 0.0
C2501 C 0.76501 0.83325 0.7895 0.0
C2502 C 0.745 0.84772 0.76921 0.0
C2503 C 0.74858 0.86562 0.78146 0.0
C2504 C 0.76109 0.86731 0.79732 0.0
C2505 C 0.76925 0.85123 0.8013 0.0
C2506 C 0.73796 0.88204 0.77881 0.0
C2507 C 0.72682 0.88973 0.79386 0.0
C2508 C 0.73785 0.88942 0.76145 0.0
C2509 C 0.74992 0.88249 0.74531 0.0
C2510 C 0.76974 0.88269 0.74808 0.0
C2511 C 0.78103 0.87609 0.73283 0.0
C2512 C 0.77268 0.86936 0.71469 0.0
C2513 C 0.75303 0.86927 0.71176 0.0
C2514 C 0.74167 0.87584 0.72698 0.0
C2515 C 0.69794 0.9613 0.7842 0.0
C2516 C 0.68368 0.9596 0.76985 0.0
C2517 C 0.70845 0.94596 0.78556 0.0
C2518 C 0.70492 0.92854 0.77264 0.0
C2519 C 0.69099 0.9269 0.75803 0.0
C2520 C 0.68039 0.94225 0.75669 0.0
C2521 C 0.71552 0.91197 0.77476 0.0
C2522 C 0.72652 0.9042 0.75961 0.0
C2523 C 0.7155 0.90443 0.79202 0.0
C2524 C 0.70324 0.91111 0.8081 0.0
C2525 C 0.68338 0.9105 0.80522 0.0
C2526 C 0.67192 0.9169 0.8204 0.0
C2527 C 0.68013 0.92383 0.83856 0.0
C2528 C 0.69982 0.92431 0.84159 0.0
C2529 C 0.71135 0.91794 0.82646 0.0
H2530 H 0.67123 0.92878 0.8503 0.0
H2531 H 0.78145 0.86427 0.7029 0.0
H2532 H 0.59219 0.50099 0.02167 0.0
H2533 H 0.62371 0.51988 0.02806 0.0
H2534 H 0.63153 0.5171 0.96752 0.0
H2535 H 0.60041 0.49779 0.96106 0.0
H2536 H 0.6643 0.5134 0.98494 0.0
H2537 H 0.61565 0.55644 0.99462 0.0
H2538 H 0.5867 0.56864 0.00892 0.0
H2539 H 0.61341 0.57739 0.06473 0.0
H2540 H 0.64244 0.56498 0.05077 0.0
H2541 H 0.73154 0.59579 0.9817 0.0
H2542 H 0.70276 0.57237 0.97858 0.0
H2543 H 0.70143 0.57687 0.03986 0.0
H2544 H 0.73013 0.60032 0.04312 0.0
H2545 H 0.66626 0.5786 0.02422 0.0
H2546 H 0.71618 0.53781 0.01363 0.0
H2547 H 0.74513 0.52632 0.99863 0.0
H2548 H 0.71605 0.51394 0.94385 0.0
H2549 H 0.687 0.52563 0.95848 0.0
C2550 C 0.6008 0.50409 0.00974 0.0
C2551 C 0.59372 0.4981 0.99087 0.0
C2552 C 0.61873 0.51502 0.0134 0.0
C2553 C 0.62984 0.5202 0.99827 0.0
C2554 C 0.62319 0.51339 0.97942 0.0
C2555 C 0.60533 0.50248 0.97576 0.0
C2556 C 0.64791 0.53351 0.00192 0.0
C2557 C 0.6647 0.5277 0.99343 0.0
C2558 C 0.64854 0.55206 0.01327 0.0
C2559 C 0.63112 0.55958 0.02168 0.0
C2560 C 0.61529 0.56082 0.00996 0.0
C2561 C 0.59888 0.5678 0.018 0.0
C2562 C 0.59819 0.57373 0.03773 0.0
C2563 C 0.61394 0.57275 0.04945 0.0
C2564 C 0.63038 0.56576 0.04149 0.0
C2565 C 0.72513 0.59179 0.99451 0.0
C2566 C 0.73316 0.5999 0.01265 0.0
C2567 C 0.70874 0.57834 0.9927 0.0
C2568 C 0.70006 0.57274 0.00899 0.0
C2569 C 0.70792 0.58096 0.02711 0.0
C2570 C 0.72436 0.59433 0.02893 0.0
C2571 C 0.68259 0.55854 0.00711 0.0
C2572 C 0.66591 0.56422 0.01591 0.0
C2573 C 0.68206 0.53992 0.99596 0.0
C2574 C 0.69946 0.53275 0.98713 0.0
C2575 C 0.716 0.53277 0.99836 0.0
C2576 C 0.73242 0.5262 0.98993 0.0
C2577 C 0.73245 0.51945 0.97029 0.0
C2578 C 0.71602 0.5192 0.95906 0.0
C2579 C 0.69957 0.52577 0.96741 0.0
H2580 H 0.74517 0.51437 0.96379 0.0
H2581 H 0.58547 0.57914 0.04393 0.0
H2582 H 0.31272 0.66753 0.22944 0.0
H2583 H 0.28769 0.64078 0.22885 0.0
H2584 H 0.24587 0.67616 0.21381 0.0
H2585 H 0.27094 0.70364 0.21554 0.0
H2586 H 0.23228 0.65707 0.24021 0.0
H2587 H 0.26104 0.63857 0.18087 0.0
H2588 H 0.28707 0.6324 0.15849 0.0
H2589 H 0.30302 0.58848 0.18856 0.0
H2590 H 0.27725 0.59456 0.2113 0.0
H2591 H 0.16333 0.57228 0.22396 0.0
H2592 H 0.18497 0.60041 0.21848 0.0
H2593 H 0.2321 0.57739 0.24221 0.0
H2594 H 0.21057 0.54924 0.24785 0.0
H2595 H 0.24027 0.59085 0.20759 0.0
H2596 H 0.21252 0.61252 0.26856 0.0
H2597 H 0.18572 0.61882 0.28994 0.0
H2598 H 0.16668 0.65693 0.25449 0.0
H2599 H 0.19324 0.65064 0.23274 0.0
C2600 C 0.29819 0.66977 0.22616 0.0
C2601 C 0.29383 0.68787 0.2228 0.0
C2602 C 0.28389 0.65429 0.22552 0.0
C2603 C 0.26488 0.65629 0.22099 0.0
C2604 C 0.26045 0.67423 0.21726 0.0
C2605 C 0.27481 0.68988 0.2181 0.0
C2606 C 0.2497 0.6398 0.22116 0.0
C2607 C 0.23385 0.64268 0.23272 0.0
C2608 C 0.25177 0.62092 0.21158 0.0
C2609 C 0.26726 0.61712 0.19787 0.0
C2610 C 0.27017 0.62768 0.18279 0.0
C2611 C 0.28487 0.62418 0.17003 0.0
C2612 C 0.29671 0.61008 0.17212 0.0
C2613 C 0.29384 0.5994 0.18696 0.0
C2614 C 0.27916 0.60285 0.19977 0.0
C2615 C 0.17831 0.57318 0.22802 0.0
C2616 C 0.18523 0.55853 0.23638 0.0
C2617 C 0.19062 0.5893 0.22491 0.0
C2618 C 0.2101 0.59101 0.23001 0.0
C2619 C 0.2171 0.57632 0.23816 0.0
C2620 C 0.20477 0.56029 0.24144 0.0
C2621 C 0.22325 0.60813 0.22695 0.0
C2622 C 0.23866 0.60533 0.21482 0.0
C2623 C 0.22063 0.62708 0.23578 0.0
C2624 C 0.20473 0.63094 0.24891 0.0
C2625 C 0.20252 0.62211 0.26523 0.0
C2626 C 0.1874 0.62571 0.27744 0.0
C2627 C 0.17447 0.63822 0.27355 0.0
C2628 C 0.17668 0.64722 0.25747 0.0
C2629 C 0.19178 0.64365 0.2452 0.0
H2630 H 0.16276 0.64099 0.28301 0.0
H2631 H 0.30809 0.60739 0.16222 0.0
H2632 H 0.96787 0.55495 0.03057 0.0
H2633 H 0.93815 0.56835 0.02519 0.0
H2634 H 0.90904 0.51068 0.00881 0.0
H2635 H 0.93905 0.49721 0.01417 0.0
H2636 H 0.89949 0.53618 0.98504 0.0
H2637 H 0.90249 0.53433 0.05204 0.0
H2638 H 0.91738 0.54015 0.08432 0.0
H2639 H 0.92339 0.60134 0.08452 0.0
H2640 H 0.90878 0.59587 0.05211 0.0
H2641 H 0.80702 0.56828 0.99146 0.0
H2642 H 0.83492 0.55159 0.99538 0.0
H2643 H 0.86809 0.60614 0.0173 0.0
H2644 H 0.84013 0.62291 0.01378 0.0
H2645 H 0.87434 0.57995 0.03858 0.0
H2646 H 0.87307 0.58207 0.97127 0.0
H2647 H 0.85868 0.57667 0.93878 0.0
H2648 H 0.84979 0.51556 0.93896 0.0
H2649 H 0.86391 0.52062 0.97157 0.0
C2650 C 0.95513 0.54517 0.02567 0.0
C2651 C 0.95556 0.52514 0.02274 0.0
C2652 C 0.93817 0.55281 0.02269 0.0
C2653 C 0.92132 0.54051 0.01684 0.0
C2654 C 0.92188 0.52041 0.01338 0.0
C2655 C 0.93893 0.51274 0.01643 0.0
C2656 C 0.90317 0.54885 0.01475 0.0
C2657 C 0.89378 0.54549 0.99681 0.0
C2658 C 0.89596 0.56132 0.03002 0.0
C2659 C 0.90468 0.56467 0.04957 0.0
C2660 C 0.90712 0.54902 0.0589 0.0
C2661 C 0.91549 0.55226 0.07724 0.0
C2662 C 0.92137 0.5711 0.08645 0.0
C2663 C 0.91884 0.58675 0.07736 0.0
C2664 C 0.9105 0.58359 0.05901 0.0
C2665 C 0.82026 0.57675 0.99707 0.0
C2666 C 0.82135 0.59695 0.00226 0.0
C2667 C 0.83624 0.56718 0.99923 0.0
C2668 C 0.8537 0.57761 0.00643 0.0
C2669 C 0.85479 0.59777 0.0117 0.0
C2670 C 0.83879 0.60735 0.00963 0.0
C2671 C 0.87076 0.56755 0.00877 0.0
C2672 C 0.87995 0.57056 0.0268 0.0
C2673 C 0.87779 0.55483 0.99356 0.0
C2674 C 0.86936 0.55175 0.97393 0.0
C2675 C 0.86791 0.56749 0.96444 0.0
C2676 C 0.85983 0.56449 0.94599 0.0
C2677 C 0.85327 0.54579 0.93683 0.0
C2678 C 0.85485 0.53004 0.94608 0.0
C2679 C 0.8629 0.53297 0.96454 0.0
H2680 H 0.84702 0.54349 0.92255 0.0
H2681 H 0.92784 0.57358 0.10065 0.0
H2682 H 0.10616 0.0474 0.04149 0.0
H2683 H 0.13263 0.02763 0.03788 0.0
H2684 H 0.10742 0.99404 0.07877 0.0
H2685 H 0.08092 0.01374 0.08245 0.0
H2686 H 0.1457 0.00135 0.08434 0.0
H2687 H 0.10217 0.97718 0.03112 0.0
H2688 H 0.08237 0.97957 0.00302 0.0
H2689 H 0.13246 1.00009 0.97481 0.0
H2690 H 0.15253 0.99807 0.00286 0.0
H2691 H 0.19774 0.92024 0.05989 0.0
H2692 H 0.17251 0.94139 0.06597 0.0
H2693 H 0.19623 0.97491 0.02437 0.0
H2694 H 0.22125 0.95371 0.018 0.0
H2695 H 0.15856 0.96755 0.01955 0.0
H2696 H 0.2022 0.99155 0.07269 0.0
H2697 H 0.22199 0.98935 0.10085 0.0
H2698 H 0.17188 0.96917 0.12922 0.0
H2699 H 0.15181 0.97101 0.10112 0.0
C2700 C 0.10627 0.03582 0.04973 0.0
C2701 C 0.09138 0.03209 0.06219 0.0
C2702 C 0.1214 0.02453 0.04766 0.0
C2703 C 0.12187 0.00916 0.05785 0.0
C2704 C 0.10737 0.00582 0.07077 0.0
C2705 C 0.09225 0.01714 0.07289 0.0
C2706 C 0.13713 0.99621 0.05459 0.0
C2707 C 0.14838 0.99377 0.07021 0.0
C2708 C 0.14085 0.98658 0.03611 0.0
C2709 C 0.12883 0.98765 0.01916 0.0
C2710 C 0.10894 0.98233 0.01897 0.0
C2711 C 0.09767 0.9836 0.00305 0.0
C2712 C 0.10614 0.99002 0.98716 0.0
C2713 C 0.12591 0.99514 0.98714 0.0
C2714 C 0.13725 0.99392 0.00304 0.0
C2715 C 0.1976 0.93213 0.05206 0.0
C2716 C 0.21153 0.93528 0.03846 0.0
C2717 C 0.18322 0.94427 0.05562 0.0
C2718 C 0.18257 0.95988 0.04577 0.0
C2719 C 0.19643 0.96298 0.03215 0.0
C2720 C 0.21076 0.95084 0.02855 0.0
C2721 C 0.16726 0.97276 0.04929 0.0
C2722 C 0.15594 0.97514 0.03369 0.0
C2723 C 0.1635 0.98232 0.06779 0.0
C2724 C 0.17553 0.98123 0.08472 0.0
C2725 C 0.19542 0.98649 0.08488 0.0
C2726 C 0.20668 0.98534 0.10084 0.0
C2727 C 0.1982 0.97907 0.1168 0.0
C2728 C 0.17843 0.97399 0.11684 0.0
C2729 C 0.1671 0.97511 0.1009 0.0
H2730 H 0.20695 0.97819 0.12914 0.0
H2731 H 0.09739 0.991 0.97485 0.0
loop_
_geom_bond_atom_site_label_1
_geom_bond_atom_site_label_2
_geom_bond_distance
_geom_bond_site_symmetry_2
_ccdc_geom_bond_type
H0 C3 0.929 . S
H1 C6 0.929 . S
H2 C8 0.930 . S
C3 H0 0.929 . S
C3 C4 1.398 . S
C3 C5 1.396 . S
C4 C3 1.398 . S
C4 C8 1.407 . S
C5 C3 1.396 . S
C5 C6 1.394 . S
C6 H1 0.929 . S
C6 C5 1.394 . S
C6 C7 1.382 . S
C7 C6 1.382 . S
C7 C8 1.392 . S
C7 N9 1.420 . S
C8 H2 0.930 . S
C8 C4 1.407 . S
C8 C7 1.392 . S
N9 C7 1.420 . S
N9 C10 1.244 . S
C10 N9 1.244 . S
H11 C14 0.929 . S
H12 C17 0.929 . S
H13 C19 0.930 . S
C14 H11 0.929 . S
C14 C15 1.398 . S
C14 C16 1.396 . S
C15 C14 1.398 . S
C15 C19 1.407 . S
C16 C14 1.396 . S
C16 C17 1.394 . S
C17 H12 0.929 . S
C17 C16 1.394 . S
C17 C18 1.382 . S
C18 C17 1.382 . S
C18 C19 1.392 . S
C18 N20 1.420 . S
C19 H13 0.930 . S
C19 C15 1.407 . S
C19 C18 1.392 . S
N20 C18 1.420 . S
N20 C21 1.244 . S
C21 N20 1.244 . S
H22 C25 0.929 . S
H23 C28 0.929 . S
H24 C30 0.930 . S
C25 H22 0.929 . S
C25 C26 1.398 1_455 S
C25 C27 1.396 . S
C26 C25 1.398 1_655 S
C26 C30 1.407 . S
C27 C25 1.396 . S
C27 C28 1.394 1_455 S
C28 H23 0.929 . S
C28 C27 1.394 1_655 S
C28 C29 1.382 . S
C29 C28 1.382 . S
C29 C30 1.392 . S
C29 N31 1.420 . S
C30 H24 0.930 . S
C30 C26 1.407 . S
C30 C29 1.392 . S
N31 C29 1.420 . S
N31 C32 1.244 . S
C32 N31 1.244 . S
H33 C36 0.929 . S
H34 C39 0.929 . S
H35 C41 0.930 . S
C36 H33 0.929 . S
C36 C37 1.398 . S
C36 C38 1.396 . S
C37 C36 1.398 . S
C37 C41 1.407 . S
C38 C36 1.396 . S
C38 C39 1.394 . S
C39 H34 0.929 . S
C39 C38 1.394 . S
C39 C40 1.382 . S
C40 C39 1.382 . S
C40 C41 1.392 . S
C40 N42 1.420 . S
C41 H35 0.930 . S
C41 C37 1.407 . S
C41 C40 1.392 . S
N42 C40 1.420 . S
N42 C43 1.244 . S
C43 N42 1.244 . S
H44 C47 0.929 1_545 S
H45 C50 0.929 . S
H46 C52 0.930 . S
C47 H44 0.929 1_565 S
C47 C48 1.398 . S
C47 C49 1.396 . S
C48 C47 1.398 . S
C48 C52 1.407 . S
C49 C47 1.396 . S
C49 C50 1.394 . S
C50 H45 0.929 . S
C50 C49 1.394 . S
C50 C51 1.382 . S
C51 C50 1.382 . S
C51 C52 1.392 . S
C51 N53 1.420 . S
C52 H46 0.930 . S
C52 C48 1.407 . S
C52 C51 1.392 . S
N53 C51 1.420 . S
N53 C54 1.244 . S
C54 N53 1.244 . S
H55 C58 0.929 . S
H56 C61 0.929 . S
H57 C63 0.930 . S
C58 H55 0.929 . S
C58 C59 1.398 . S
C58 C60 1.396 . S
C59 C58 1.398 . S
C59 C63 1.407 . S
C60 C58 1.396 . S
C60 C61 1.394 . S
C61 H56 0.929 . S
C61 C60 1.394 . S
C61 C62 1.382 . S
C62 C61 1.382 . S
C62 C63 1.392 . S
C62 N64 1.420 . S
C63 H57 0.930 . S
C63 C59 1.407 . S
C63 C62 1.392 . S
N64 C62 1.420 . S
N64 C65 1.244 . S
C65 N64 1.244 . S
H66 C69 0.929 . S
H67 C72 0.929 1_455 S
H68 C74 0.930 . S
C69 H66 0.929 . S
C69 C70 1.398 . S
C69 C71 1.396 . S
C70 C69 1.398 . S
C70 C74 1.407 . S
C71 C69 1.396 . S
C71 C72 1.394 . S
C72 H67 0.929 1_655 S
C72 C71 1.394 . S
C72 C73 1.382 . S
C73 C72 1.382 . S
C73 C74 1.392 . S
C73 N75 1.420 1_655 S
C74 H68 0.930 . S
C74 C70 1.407 . S
C74 C73 1.392 . S
N75 C73 1.420 1_455 S
N75 C76 1.244 . S
C76 N75 1.244 . S
H77 C80 0.929 . S
H78 C83 0.929 . S
H79 C85 0.930 . S
C80 H77 0.929 . S
C80 C81 1.398 . S
C80 C82 1.396 . S
C81 C80 1.398 . S
C81 C85 1.407 . S
C82 C80 1.396 . S
C82 C83 1.394 . S
C83 H78 0.929 . S
C83 C82 1.394 . S
C83 C84 1.382 . S
C84 C83 1.382 . S
C84 C85 1.392 . S
C84 N86 1.420 . S
C85 H79 0.930 . S
C85 C81 1.407 . S
C85 C84 1.392 . S
N86 C84 1.420 . S
N86 C87 1.244 . S
C87 N86 1.244 . S
H88 C91 0.929 . S
H89 C94 0.929 . S
H90 C96 0.930 . S
C91 H88 0.929 . S
C91 C92 1.398 . S
C91 C93 1.396 . S
C92 C91 1.398 . S
C92 C96 1.407 . S
C93 C91 1.396 . S
C93 C94 1.394 . S
C94 H89 0.929 . S
C94 C93 1.394 . S
C94 C95 1.382 . S
C95 C94 1.382 . S
C95 C96 1.392 . S
C95 N97 1.420 . S
C96 H90 0.930 . S
C96 C92 1.407 . S
C96 C95 1.392 . S
N97 C95 1.420 . S
N97 C98 1.244 . S
C98 N97 1.244 . S
H99 C102 0.929 . S
H100 C105 0.929 1_545 S
H101 C107 0.930 . S
C102 H99 0.929 . S
C102 C103 1.398 . S
C102 C104 1.396 . S
C103 C102 1.398 . S
C103 C107 1.407 . S
C104 C102 1.396 . S
C104 C105 1.394 . S
C105 H100 0.929 1_565 S
C105 C104 1.394 . S
C105 C106 1.382 . S
C106 C105 1.382 . S
C106 C107 1.392 . S
C106 N108 1.420 1_565 S
C107 H101 0.930 . S
C107 C103 1.407 . S
C107 C106 1.392 . S
N108 C106 1.420 1_545 S
N108 C109 1.244 . S
C109 N108 1.244 . S
H110 C113 0.929 . S
H111 C116 0.929 . S
H112 C118 0.930 . S
C113 H110 0.929 . S
C113 C114 1.398 . S
C113 C115 1.396 . S
C114 C113 1.398 . S
C114 C118 1.407 . S
C115 C113 1.396 . S
C115 C116 1.394 . S
C116 H111 0.929 . S
C116 C115 1.394 . S
C116 C117 1.382 . S
C117 C116 1.382 . S
C117 C118 1.392 . S
C117 N119 1.420 . S
C118 H112 0.930 . S
C118 C114 1.407 . S
C118 C117 1.392 . S
N119 C117 1.420 . S
N119 C120 1.244 . S
C120 N119 1.244 . S
H121 C124 0.929 . S
H122 C127 0.929 . S
H123 C129 0.930 . S
C124 H121 0.929 . S
C124 C125 1.398 . S
C124 C126 1.396 . S
C125 C124 1.398 . S
C125 C129 1.407 . S
C126 C124 1.396 . S
C126 C127 1.394 . S
C127 H122 0.929 . S
C127 C126 1.394 . S
C127 C128 1.382 . S
C128 C127 1.382 . S
C128 C129 1.392 . S
C128 N130 1.420 . S
C129 H123 0.930 . S
C129 C125 1.407 . S
C129 C128 1.392 . S
N130 C128 1.420 . S
N130 C131 1.244 . S
C131 N130 1.244 . S
H132 C135 0.929 . S
H133 C138 0.929 . S
H134 C140 0.930 . S
C135 H132 0.929 . S
C135 C136 1.398 . S
C135 C137 1.396 . S
C136 C135 1.398 . S
C136 C140 1.407 . S
C137 C135 1.396 . S
C137 C138 1.394 . S
C138 H133 0.929 . S
C138 C137 1.394 . S
C138 C139 1.382 . S
C139 C138 1.382 . S
C139 C140 1.392 . S
C139 N141 1.420 . S
C140 H134 0.930 . S
C140 C136 1.407 . S
C140 C139 1.392 . S
N141 C139 1.420 . S
N141 C142 1.244 . S
C142 N141 1.244 . S
H143 C146 0.929 . S
H144 C149 0.929 1_554 S
H145 C151 0.930 . S
C146 H143 0.929 . S
C146 C147 1.398 . S
C146 C148 1.396 . S
C147 C146 1.398 . S
C147 C151 1.407 . S
C148 C146 1.396 . S
C148 C149 1.394 . S
C149 H144 0.929 1_556 S
C149 C148 1.394 . S
C149 C150 1.382 . S
C150 C149 1.382 . S
C150 C151 1.392 . S
C150 N152 1.420 1_556 S
C151 H145 0.930 . S
C151 C147 1.407 . S
C151 C150 1.392 . S
N152 C150 1.420 1_554 S
N152 C153 1.244 . S
C153 N152 1.244 . S
H154 C157 0.929 . S
H155 C160 0.929 . S
H156 C162 0.930 . S
C157 H154 0.929 . S
C157 C158 1.398 . S
C157 C159 1.396 . S
C158 C157 1.398 . S
C158 C162 1.407 . S
C159 C157 1.396 . S
C159 C160 1.394 . S
C160 H155 0.929 . S
C160 C159 1.394 . S
C160 C161 1.382 . S
C161 C160 1.382 . S
C161 C162 1.392 . S
C161 N163 1.420 . S
C162 H156 0.930 . S
C162 C158 1.407 . S
C162 C161 1.392 . S
N163 C161 1.420 . S
N163 C164 1.244 . S
C164 N163 1.244 . S
H165 C168 0.929 . S
H166 C171 0.929 . S
H167 C173 0.930 . S
C168 H165 0.929 . S
C168 C169 1.398 . S
C168 C170 1.396 . S
C169 C168 1.398 . S
C169 C173 1.407 . S
C170 C168 1.396 . S
C170 C171 1.394 . S
C171 H166 0.929 . S
C171 C170 1.394 . S
C171 C172 1.382 . S
C172 C171 1.382 . S
C172 C173 1.392 . S
C172 N174 1.420 . S
C173 H167 0.930 . S
C173 C169 1.407 . S
C173 C172 1.392 . S
N174 C172 1.420 . S
N174 C175 1.244 . S
C175 N174 1.244 . S
C176 O177 1.160 . S
C176 O183 1.185 . S
O177 C176 1.160 . S
O178 Zn179 1.899 . S
O178 C186 1.284 . S
Zn179 O178 1.899 . S
Zn179 O180 2.032 . S
Zn179 O183 2.086 . S
Zn179 O188 1.977 . S
O180 Zn179 2.032 . S
O180 C184 1.278 . S
C181 O182 1.203 . S
C181 O188 1.267 . S
O182 C181 1.203 . S
O183 C176 1.185 . S
O183 Zn179 2.086 . S
C184 O180 1.278 . S
C184 O185 1.211 . S
O185 C184 1.211 . S
C186 O178 1.284 . S
C186 O187 1.273 . S
O187 C186 1.273 . S
O188 Zn179 1.977 . S
O188 C181 1.267 . S
C189 O190 1.160 . S
C189 O196 1.185 . S
O190 C189 1.160 . S
O191 Zn192 1.899 . S
O191 C199 1.284 . S
Zn192 O191 1.899 . S
Zn192 O193 2.032 . S
Zn192 O196 2.086 . S
Zn192 O201 1.977 . S
O193 Zn192 2.032 . S
O193 C197 1.278 . S
C194 O195 1.203 . S
C194 O201 1.267 . S
O195 C194 1.203 . S
O196 C189 1.185 . S
O196 Zn192 2.086 . S
C197 O193 1.278 . S
C197 O198 1.211 . S
O198 C197 1.211 . S
C199 O191 1.284 . S
C199 O200 1.273 . S
O200 C199 1.273 . S
O201 Zn192 1.977 . S
O201 C194 1.267 . S
C202 O203 1.167 1_554 S
C202 O209 1.181 . S
O203 C202 1.167 1_556 S
O204 Zn205 1.899 1_556 S
O204 C212 1.284 . S
Zn205 O204 1.899 1_554 S
Zn205 O206 2.032 1_554 S
Zn205 O209 2.086 . S
Zn205 O214 1.977 . S
O206 Zn205 2.032 1_556 S
O206 C210 1.286 . S
C207 O208 1.203 . S
C207 O214 1.267 . S
O208 C207 1.203 . S
O209 C202 1.181 . S
O209 Zn205 2.086 . S
C210 O206 1.286 . S
C210 O211 1.200 1_556 S
O211 C210 1.200 1_554 S
C212 O204 1.284 . S
C212 O213 1.273 . S
O213 C212 1.273 . S
O214 Zn205 1.977 . S
O214 C207 1.267 . S
C215 O216 1.160 . S
C215 O222 1.185 . S
O216 C215 1.160 . S
O217 Zn218 1.899 . S
O217 C225 1.284 . S
Zn218 O217 1.899 . S
Zn218 O219 2.032 . S
Zn218 O222 2.086 . S
Zn218 O227 1.977 . S
O219 Zn218 2.032 . S
O219 C223 1.278 . S
C220 O221 1.203 . S
C220 O227 1.267 . S
O221 C220 1.203 . S
O222 C215 1.185 . S
O222 Zn218 2.086 . S
C223 O219 1.278 . S
C223 O224 1.211 1_545 S
O224 C223 1.211 1_565 S
C225 O217 1.284 . S
C225 O226 1.273 . S
O226 C225 1.273 . S
O227 Zn218 1.977 . S
O227 C220 1.267 . S
C228 O229 1.160 . S
C228 O235 1.185 . S
O229 C228 1.160 . S
O230 Zn231 1.899 . S
O230 C238 1.284 . S
Zn231 O230 1.899 . S
Zn231 O232 2.032 . S
Zn231 O235 2.086 . S
Zn231 O240 1.977 . S
O232 Zn231 2.032 . S
O232 C236 1.278 . S
C233 O234 1.203 . S
C233 O240 1.267 . S
O234 C233 1.203 . S
O235 C228 1.185 . S
O235 Zn231 2.086 . S
C236 O232 1.278 . S
C236 O237 1.211 . S
O237 C236 1.211 . S
C238 O230 1.284 . S
C238 O239 1.273 . S
O239 C238 1.273 . S
O240 Zn231 1.977 . S
O240 C233 1.267 . S
C241 O242 1.160 . S
C241 O248 1.185 . S
O242 C241 1.160 . S
O243 Zn244 1.899 . S
O243 C251 1.284 . S
Zn244 O243 1.899 . S
Zn244 O245 2.032 . S
Zn244 O248 2.086 . S
Zn244 O253 1.977 . S
O245 Zn244 2.032 . S
O245 C249 1.278 . S
C246 O247 1.203 . S
C246 O253 1.267 . S
O247 C246 1.203 . S
O248 C241 1.185 . S
O248 Zn244 2.086 . S
C249 O245 1.278 . S
C249 O250 1.211 . S
O250 C249 1.211 . S
C251 O243 1.284 . S
C251 O252 1.273 . S
O252 C251 1.273 . S
O253 Zn244 1.977 . S
O253 C246 1.267 . S
C254 O255 1.160 . S
C254 O261 1.185 . S
O255 C254 1.160 . S
O256 Zn257 1.899 . S
O256 C264 1.284 . S
Zn257 O256 1.899 . S
Zn257 O258 2.032 . S
Zn257 O261 2.086 . S
Zn257 O266 1.977 . S
O258 Zn257 2.032 . S
O258 C262 1.278 . S
C259 O260 1.203 . S
C259 O266 1.267 . S
O260 C259 1.203 . S
O261 C254 1.185 . S
O261 Zn257 2.086 . S
C262 O258 1.278 . S
C262 O263 1.211 . S
O263 C262 1.211 . S
C264 O256 1.284 . S
C264 O265 1.273 . S
O265 C264 1.273 . S
O266 Zn257 1.977 . S
O266 C259 1.267 . S
C267 O268 1.160 . S
C267 O274 1.185 . S
O268 C267 1.160 . S
O269 Zn270 1.899 . S
O269 C277 1.284 1_565 S
Zn270 O269 1.899 . S
Zn270 O271 2.032 1_565 S
Zn270 O274 2.086 . S
Zn270 O279 1.977 . S
O271 Zn270 2.032 1_545 S
O271 C275 1.278 . S
C272 O273 1.203 1_565 S
C272 O279 1.267 . S
O273 C272 1.203 1_545 S
O274 C267 1.185 . S
O274 Zn270 2.086 . S
C275 O271 1.278 . S
C275 O276 1.211 . S
O276 C275 1.211 . S
C277 O269 1.284 1_545 S
C277 O278 1.273 . S
O278 C277 1.273 . S
O279 Zn270 1.977 . S
O279 C272 1.267 . S
C280 O281 1.160 . S
C280 O287 1.185 . S
O281 C280 1.160 . S
O282 Zn283 1.899 . S
O282 C290 1.284 1_455 S
Zn283 O282 1.899 . S
Zn283 O284 2.032 . S
Zn283 O287 2.086 . S
Zn283 O292 1.977 . S
O284 Zn283 2.032 . S
O284 C288 1.278 . S
C285 O286 1.203 . S
C285 O292 1.267 . S
O286 C285 1.203 . S
O287 C280 1.185 . S
O287 Zn283 2.086 . S
C288 O284 1.278 . S
C288 O289 1.211 . S
O289 C288 1.211 . S
C290 O282 1.284 1_655 S
C290 O291 1.273 . S
O291 C290 1.273 . S
O292 Zn283 1.977 . S
O292 C285 1.267 . S
C293 O294 1.160 . S
C293 O300 1.185 . S
O294 C293 1.160 . S
O295 Zn296 1.899 . S
O295 C303 1.284 . S
Zn296 O295 1.899 . S
Zn296 O297 2.032 . S
Zn296 O300 2.086 . S
Zn296 O305 1.977 . S
O297 Zn296 2.032 . S
O297 C301 1.278 . S
C298 O299 1.203 . S
C298 O305 1.267 . S
O299 C298 1.203 . S
O300 C293 1.185 . S
O300 Zn296 2.086 . S
C301 O297 1.278 . S
C301 O302 1.211 . S
O302 C301 1.211 . S
C303 O295 1.284 . S
C303 O304 1.273 . S
O304 C303 1.273 . S
O305 Zn296 1.977 . S
O305 C298 1.267 . S
C306 O307 1.129 1_455 S
C306 O313 1.185 . S
O307 C306 1.129 1_655 S
O308 Zn309 1.899 1_655 S
O308 C316 1.284 . S
Zn309 O308 1.899 1_455 S
Zn309 O310 2.032 . S
Zn309 O313 2.086 . S
Zn309 O318 1.977 . S
O310 Zn309 2.032 . S
O310 C314 1.278 . S
C311 O312 1.203 . S
C311 O318 1.267 . S
O312 C311 1.203 . S
O313 C306 1.185 . S
O313 Zn309 2.086 . S
C314 O310 1.278 . S
C314 O315 1.211 . S
O315 C314 1.211 . S
C316 O308 1.284 . S
C316 O317 1.273 . S
O317 C316 1.273 . S
O318 Zn309 1.977 . S
O318 C311 1.267 . S
C319 O320 1.160 . S
C319 O326 1.185 . S
O320 C319 1.160 . S
O321 Zn322 1.899 . S
O321 C329 1.284 . S
Zn322 O321 1.899 . S
Zn322 O323 2.032 . S
Zn322 O326 2.086 . S
Zn322 O331 1.977 . S
O323 Zn322 2.032 . S
O323 C327 1.278 . S
C324 O325 1.203 . S
C324 O331 1.267 . S
O325 C324 1.203 . S
O326 C319 1.185 . S
O326 Zn322 2.086 . S
C327 O323 1.278 . S
C327 O328 1.211 . S
O328 C327 1.211 . S
C329 O321 1.284 . S
C329 O330 1.273 . S
O330 C329 1.273 . S
O331 Zn322 1.977 . S
O331 C324 1.267 . S
H332 C350 0.951 . S
H333 C352 0.951 . S
H334 C354 0.950 . S
H335 C355 0.950 . S
H336 C357 0.950 . S
H337 C360 0.950 . S
H338 C361 0.950 . S
H339 C363 0.950 . S
H340 C364 0.950 . S
H341 C365 0.958 . S
H342 C367 0.951 . S
H343 C369 0.950 . S
H344 C370 0.950 . S
H345 C372 0.950 . S
H346 C375 0.950 . S
H347 C376 0.950 . S
H348 C378 0.950 . S
H349 C379 0.950 . S
C350 H332 0.951 . S
C350 C351 1.366 . S
C350 C352 1.388 . S
C351 C350 1.366 . S
C351 C355 1.385 . S
C352 H333 0.951 . S
C352 C350 1.388 . S
C352 C353 1.366 . S
C353 C352 1.366 . S
C353 C354 1.414 . S
C353 C356 1.499 . S
C354 H334 0.950 . S
C354 C353 1.414 . S
C354 C355 1.374 . S
C355 H335 0.950 . S
C355 C351 1.385 . S
C355 C354 1.374 . S
C356 C353 1.499 . S
C356 C357 1.373 . S
C356 C358 1.389 . S
C357 H336 0.950 . S
C357 C356 1.373 . S
C357 C373 1.377 . S
C358 C356 1.389 . S
C358 C359 1.524 . S
C358 C372 1.377 . S
C359 C358 1.524 . S
C359 C360 1.397 . S
C359 C364 1.363 . S
C360 H337 0.950 . S
C360 C359 1.397 . S
C360 C361 1.334 . S
C361 H338 0.950 . S
C361 C360 1.334 . S
C361 C362 1.287 . S
C362 C361 1.287 . S
C362 C363 1.524 . S
C362 H381 0.913 . S
C363 H339 0.950 . S
C363 C362 1.524 . S
C363 C364 1.415 . S
C364 H340 0.950 . S
C364 C359 1.363 . S
C364 C363 1.415 . S
C365 H341 0.958 . S
C365 C366 1.366 . S
C365 C367 1.388 . S
C366 C365 1.366 . S
C366 C370 1.385 . S
C367 H342 0.951 . S
C367 C365 1.388 . S
C367 C368 1.366 . S
C368 C367 1.366 . S
C368 C369 1.414 . S
C368 C371 1.499 . S
C369 H343 0.950 . S
C369 C368 1.414 . S
C369 C370 1.374 . S
C370 H344 0.950 . S
C370 C366 1.385 . S
C370 C369 1.374 . S
C371 C368 1.499 . S
C371 C372 1.373 . S
C371 C373 1.389 . S
C372 H345 0.950 . S
C372 C358 1.377 . S
C372 C371 1.373 . S
C373 C357 1.377 . S
C373 C371 1.389 . S
C373 C374 1.524 . S
C374 C373 1.524 . S
C374 C375 1.397 . S
C374 C379 1.363 . S
C375 H346 0.950 . S
C375 C374 1.397 . S
C375 C376 1.334 . S
C376 H347 0.950 . S
C376 C375 1.334 . S
C376 C377 1.287 . S
C377 C376 1.287 . S
C377 C378 1.524 . S
C377 H380 0.999 . S
C378 H348 0.950 . S
C378 C377 1.524 . S
C378 C379 1.415 . S
C379 H349 0.950 . S
C379 C374 1.363 . S
C379 C378 1.415 . S
H380 C377 0.999 . S
H381 C362 0.913 . S
H382 C400 0.951 . S
H383 C402 0.951 . S
H384 C404 0.950 . S
H385 C405 0.950 . S
H386 C407 0.950 . S
H387 C410 0.950 . S
H388 C411 0.950 . S
H389 C413 0.950 . S
H390 C414 0.950 . S
H391 C415 0.951 . S
H392 C417 0.951 . S
H393 C419 0.950 . S
H394 C420 0.950 . S
H395 C422 0.950 . S
H396 C425 0.950 . S
H397 C426 0.950 . S
H398 C428 0.950 . S
H399 C429 0.950 . S
C400 H382 0.951 . S
C400 C401 1.366 . S
C400 C402 1.388 . S
C401 C400 1.366 . S
C401 C405 1.385 . S
C402 H383 0.951 . S
C402 C400 1.388 . S
C402 C403 1.366 . S
C403 C402 1.366 . S
C403 C404 1.414 . S
C403 C406 1.499 . S
C404 H384 0.950 . S
C404 C403 1.414 . S
C404 C405 1.374 . S
C405 H385 0.950 . S
C405 C401 1.385 . S
C405 C404 1.374 . S
C406 C403 1.499 . S
C406 C407 1.373 . S
C406 C408 1.389 . S
C407 H386 0.950 . S
C407 C406 1.373 . S
C407 C423 1.377 . S
C408 C406 1.389 . S
C408 C409 1.524 . S
C408 C422 1.377 . S
C409 C408 1.524 . S
C409 C410 1.397 . S
C409 C414 1.363 . S
C410 H387 0.950 . S
C410 C409 1.397 . S
C410 C411 1.334 . S
C411 H388 0.950 . S
C411 C410 1.334 . S
C411 C412 1.287 . S
C412 C411 1.287 . S
C412 C413 1.524 . S
C412 H431 0.913 . S
C413 H389 0.950 . S
C413 C412 1.524 . S
C413 C414 1.415 . S
C414 H390 0.950 . S
C414 C409 1.363 . S
C414 C413 1.415 . S
C415 H391 0.951 . S
C415 C416 1.366 . S
C415 C417 1.388 . S
C416 C415 1.366 . S
C416 C420 1.385 . S
C417 H392 0.951 . S
C417 C415 1.388 . S
C417 C418 1.366 . S
C418 C417 1.366 . S
C418 C419 1.414 . S
C418 C421 1.499 . S
C419 H393 0.950 . S
C419 C418 1.414 . S
C419 C420 1.374 . S
C420 H394 0.950 . S
C420 C416 1.385 . S
C420 C419 1.374 . S
C421 C418 1.499 . S
C421 C422 1.373 . S
C421 C423 1.389 . S
C422 H395 0.950 . S
C422 C408 1.377 . S
C422 C421 1.373 . S
C423 C407 1.377 . S
C423 C421 1.389 . S
C423 C424 1.524 . S
C424 C423 1.524 . S
C424 C425 1.397 . S
C424 C429 1.363 . S
C425 H396 0.950 . S
C425 C424 1.397 . S
C425 C426 1.334 . S
C426 H397 0.950 . S
C426 C425 1.334 . S
C426 C427 1.287 . S
C427 C426 1.287 . S
C427 C428 1.524 . S
C427 H430 0.999 . S
C428 H398 0.950 . S
C428 C427 1.524 . S
C428 C429 1.415 . S
C429 H399 0.950 . S
C429 C424 1.363 . S
C429 C428 1.415 . S
H430 C427 0.999 . S
H431 C412 0.913 . S
H432 C450 0.951 . S
H433 C452 0.951 . S
H434 C454 0.950 . S
H435 C455 0.950 . S
H436 C457 0.950 . S
H437 C460 0.950 . S
H438 C461 0.950 . S
H439 C463 0.950 . S
H440 C464 0.950 . S
H441 C465 0.951 . S
H442 C467 0.951 . S
H443 C469 0.950 . S
H444 C470 0.950 . S
H445 C472 0.950 . S
H446 C475 0.950 . S
H447 C476 0.950 . S
H448 C478 0.950 . S
H449 C479 0.950 . S
C450 H432 0.951 . S
C450 C451 1.366 . S
C450 C452 1.388 . S
C451 C450 1.366 . S
C451 C455 1.385 . S
C452 H433 0.951 . S
C452 C450 1.388 . S
C452 C453 1.366 . S
C453 C452 1.366 . S
C453 C454 1.414 . S
C453 C456 1.499 . S
C454 H434 0.950 . S
C454 C453 1.414 . S
C454 C455 1.374 . S
C455 H435 0.950 . S
C455 C451 1.385 . S
C455 C454 1.374 . S
C456 C453 1.499 . S
C456 C457 1.373 . S
C456 C458 1.389 . S
C457 H436 0.950 . S
C457 C456 1.373 . S
C457 C473 1.377 . S
C458 C456 1.389 . S
C458 C459 1.524 . S
C458 C472 1.377 . S
C459 C458 1.524 . S
C459 C460 1.397 . S
C459 C464 1.363 . S
C460 H437 0.950 . S
C460 C459 1.397 . S
C460 C461 1.334 . S
C461 H438 0.950 . S
C461 C460 1.334 . S
C461 C462 1.287 . S
C462 C461 1.287 . S
C462 C463 1.524 . S
C462 H481 0.913 . S
C463 H439 0.950 . S
C463 C462 1.524 . S
C463 C464 1.415 . S
C464 H440 0.950 . S
C464 C459 1.363 . S
C464 C463 1.415 . S
C465 H441 0.951 . S
C465 C466 1.366 . S
C465 C467 1.388 . S
C466 C465 1.366 . S
C466 C470 1.385 . S
C467 H442 0.951 . S
C467 C465 1.388 . S
C467 C468 1.366 . S
C468 C467 1.366 . S
C468 C469 1.414 . S
C468 C471 1.499 . S
C469 H443 0.950 . S
C469 C468 1.414 . S
C469 C470 1.374 . S
C470 H444 0.950 . S
C470 C466 1.385 . S
C470 C469 1.374 . S
C471 C468 1.499 . S
C471 C472 1.373 . S
C471 C473 1.389 . S
C472 H445 0.950 . S
C472 C458 1.377 . S
C472 C471 1.373 . S
C473 C457 1.377 . S
C473 C471 1.389 . S
C473 C474 1.524 . S
C474 C473 1.524 . S
C474 C475 1.397 . S
C474 C479 1.363 . S
C475 H446 0.950 . S
C475 C474 1.397 . S
C475 C476 1.334 . S
C476 H447 0.950 . S
C476 C475 1.334 . S
C476 C477 1.287 . S
C477 C476 1.287 . S
C477 C478 1.524 . S
C477 H480 0.999 . S
C478 H448 0.950 . S
C478 C477 1.524 . S
C478 C479 1.415 . S
C479 H449 0.950 . S
C479 C474 1.363 . S
C479 C478 1.415 . S
H480 C477 0.999 . S
H481 C462 0.913 . S
H482 C500 0.951 . S
H483 C502 0.951 . S
H484 C504 0.950 . S
H485 C505 0.950 . S
H486 C507 0.950 . S
H487 C510 0.950 . S
H488 C511 0.950 . S
H489 C513 0.950 . S
H490 C514 0.950 . S
H491 C515 0.951 . S
H492 C517 0.951 1_565 S
H493 C519 0.950 . S
H494 C520 0.950 . S
H495 C522 0.950 . S
H496 C525 0.950 . S
H497 C526 0.950 . S
H498 C528 0.950 1_565 S
H499 C529 0.926 1_565 S
C500 H482 0.951 . S
C500 C501 1.366 1_545 S
C500 C502 1.388 . S
C501 C500 1.366 1_565 S
C501 C505 1.385 . S
C502 H483 0.951 . S
C502 C500 1.388 . S
C502 C503 1.366 1_545 S
C503 C502 1.366 1_565 S
C503 C504 1.414 . S
C503 C506 1.499 1_565 S
C504 H484 0.950 . S
C504 C503 1.414 . S
C504 C505 1.374 . S
C505 H485 0.950 . S
C505 C501 1.385 . S
C505 C504 1.374 . S
C506 C503 1.499 1_545 S
C506 C507 1.373 . S
C506 C508 1.389 1_455 S
C507 H486 0.950 . S
C507 C506 1.373 . S
C507 C523 1.377 . S
C508 C506 1.389 1_655 S
C508 C509 1.524 . S
C508 C522 1.377 . S
C509 C508 1.524 . S
C509 C510 1.397 1_545 S
C509 C514 1.363 . S
C510 H487 0.950 . S
C510 C509 1.397 1_565 S
C510 C511 1.334 . S
C511 H488 0.950 . S
C511 C510 1.334 . S
C511 C512 1.287 . S
C512 C511 1.287 . S
C512 C513 1.524 1_565 S
C512 H531 0.913 . S
C513 H489 0.950 . S
C513 C512 1.524 1_545 S
C513 C514 1.415 . S
C514 H490 0.950 . S
C514 C509 1.363 . S
C514 C513 1.415 . S
C515 H491 0.951 . S
C515 C516 1.366 . S
C515 C517 1.388 . S
C516 C515 1.366 . S
C516 C520 1.385 . S
C517 H492 0.951 1_545 S
C517 C515 1.388 . S
C517 C518 1.366 . S
C518 C517 1.366 . S
C518 C519 1.414 . S
C518 C521 1.499 . S
C519 H493 0.950 . S
C519 C518 1.414 . S
C519 C520 1.374 . S
C520 H494 0.950 . S
C520 C516 1.385 . S
C520 C519 1.374 . S
C521 C518 1.499 . S
C521 C522 1.373 . S
C521 C523 1.389 1_655 S
C522 H495 0.950 . S
C522 C508 1.377 . S
C522 C521 1.373 . S
C523 C507 1.377 . S
C523 C521 1.389 1_455 S
C523 C524 1.524 . S
C524 C523 1.524 . S
C524 C525 1.397 . S
C524 C529 1.381 . S
C525 H496 0.950 . S
C525 C524 1.397 . S
C525 C526 1.334 . S
C526 H497 0.950 . S
C526 C525 1.334 . S
C526 C527 1.287 . S
C527 C526 1.287 . S
C527 C528 1.524 . S
C527 H530 0.999 . S
C528 H498 0.950 1_545 S
C528 C527 1.524 . S
C528 C529 1.422 . S
C529 H499 0.926 1_545 S
C529 C524 1.381 . S
C529 C528 1.422 . S
H530 C527 0.999 . S
H531 C512 0.913 . S
H532 C550 0.951 . S
H533 C552 0.951 . S
H534 C554 0.950 . S
H535 C555 0.950 . S
H536 C557 0.950 . S
H537 C560 0.950 . S
H538 C561 0.950 . S
H539 C563 0.950 . S
H540 C564 0.950 . S
H541 C565 0.951 . S
H542 C567 0.951 . S
H543 C569 0.950 . S
H544 C570 0.950 . S
H545 C572 0.950 . S
H546 C575 0.950 . S
H547 C576 0.950 . S
H548 C578 0.950 . S
H549 C579 0.950 . S
C550 H532 0.951 . S
C550 C551 1.366 . S
C550 C552 1.388 . S
C551 C550 1.366 . S
C551 C555 1.385 . S
C552 H533 0.951 . S
C552 C550 1.388 . S
C552 C553 1.366 . S
C553 C552 1.366 . S
C553 C554 1.414 . S
C553 C556 1.499 . S
C554 H534 0.950 . S
C554 C553 1.414 . S
C554 C555 1.374 . S
C555 H535 0.950 . S
C555 C551 1.385 . S
C555 C554 1.374 . S
C556 C553 1.499 . S
C556 C557 1.373 . S
C556 C558 1.389 . S
C557 H536 0.950 . S
C557 C556 1.373 . S
C557 C573 1.377 . S
C558 C556 1.389 . S
C558 C559 1.524 . S
C558 C572 1.377 . S
C559 C558 1.524 . S
C559 C560 1.397 . S
C559 C564 1.363 . S
C560 H537 0.950 . S
C560 C559 1.397 . S
C560 C561 1.334 . S
C561 H538 0.950 . S
C561 C560 1.334 . S
C561 C562 1.287 . S
C562 C561 1.287 . S
C562 C563 1.524 . S
C562 H581 0.913 . S
C563 H539 0.950 . S
C563 C562 1.524 . S
C563 C564 1.415 . S
C564 H540 0.950 . S
C564 C559 1.363 . S
C564 C563 1.415 . S
C565 H541 0.951 . S
C565 C566 1.366 . S
C565 C567 1.388 . S
C566 C565 1.366 . S
C566 C570 1.385 . S
C567 H542 0.951 . S
C567 C565 1.388 . S
C567 C568 1.366 . S
C568 C567 1.366 . S
C568 C569 1.414 . S
C568 C571 1.499 . S
C569 H543 0.950 . S
C569 C568 1.414 . S
C569 C570 1.374 . S
C570 H544 0.950 . S
C570 C566 1.385 . S
C570 C569 1.374 . S
C571 C568 1.499 . S
C571 C572 1.373 . S
C571 C573 1.389 . S
C572 H545 0.950 . S
C572 C558 1.377 . S
C572 C571 1.373 . S
C573 C557 1.377 . S
C573 C571 1.389 . S
C573 C574 1.524 . S
C574 C573 1.524 . S
C574 C575 1.397 . S
C574 C579 1.363 . S
C575 H546 0.950 . S
C575 C574 1.397 . S
C575 C576 1.334 . S
C576 H547 0.950 . S
C576 C575 1.334 . S
C576 C577 1.287 . S
C577 C576 1.287 . S
C577 C578 1.524 . S
C577 H580 0.999 . S
C578 H548 0.950 . S
C578 C577 1.524 . S
C578 C579 1.415 . S
C579 H549 0.950 . S
C579 C574 1.363 . S
C579 C578 1.415 . S
H580 C577 0.999 . S
H581 C562 0.913 . S
H582 C600 0.951 . S
H583 C602 0.951 . S
H584 C604 0.950 . S
H585 C605 0.950 . S
H586 C607 0.950 . S
H587 C610 0.950 . S
H588 C611 0.950 . S
H589 C613 0.950 . S
H590 C614 0.950 . S
H591 C615 0.951 . S
H592 C617 0.951 . S
H593 C619 0.950 . S
H594 C620 0.950 . S
H595 C622 0.950 . S
H596 C625 0.950 . S
H597 C626 0.950 . S
H598 C628 0.950 . S
H599 C629 0.950 . S
C600 H582 0.951 . S
C600 C601 1.366 . S
C600 C602 1.388 . S
C601 C600 1.366 . S
C601 C605 1.385 . S
C602 H583 0.951 . S
C602 C600 1.388 . S
C602 C603 1.366 . S
C603 C602 1.366 . S
C603 C604 1.414 . S
C603 C606 1.499 . S
C604 H584 0.950 . S
C604 C603 1.414 . S
C604 C605 1.374 . S
C605 H585 0.950 . S
C605 C601 1.385 . S
C605 C604 1.374 . S
C606 C603 1.499 . S
C606 C607 1.373 . S
C606 C608 1.389 . S
C607 H586 0.950 . S
C607 C606 1.373 . S
C607 C623 1.377 . S
C608 C606 1.389 . S
C608 C609 1.524 . S
C608 C622 1.377 . S
C609 C608 1.524 . S
C609 C610 1.397 . S
C609 C614 1.363 . S
C610 H587 0.950 . S
C610 C609 1.397 . S
C610 C611 1.334 . S
C611 H588 0.950 . S
C611 C610 1.334 . S
C611 C612 1.287 . S
C612 C611 1.287 . S
C612 C613 1.524 . S
C612 H631 0.913 . S
C613 H589 0.950 . S
C613 C612 1.524 . S
C613 C614 1.415 . S
C614 H590 0.950 . S
C614 C609 1.363 . S
C614 C613 1.415 . S
C615 H591 0.951 . S
C615 C616 1.366 . S
C615 C617 1.388 . S
C616 C615 1.366 . S
C616 C620 1.385 . S
C617 H592 0.951 . S
C617 C615 1.388 . S
C617 C618 1.366 . S
C618 C617 1.366 . S
C618 C619 1.414 . S
C618 C621 1.499 . S
C619 H593 0.950 . S
C619 C618 1.414 . S
C619 C620 1.374 . S
C620 H594 0.950 . S
C620 C616 1.385 . S
C620 C619 1.374 . S
C621 C618 1.499 . S
C621 C622 1.373 . S
C621 C623 1.389 . S
C622 H595 0.950 . S
C622 C608 1.377 . S
C622 C621 1.373 . S
C623 C607 1.377 . S
C623 C621 1.389 . S
C623 C624 1.524 . S
C624 C623 1.524 . S
C624 C625 1.397 . S
C624 C629 1.363 . S
C625 H596 0.950 . S
C625 C624 1.397 . S
C625 C626 1.334 . S
C626 H597 0.950 . S
C626 C625 1.334 . S
C626 C627 1.287 . S
C627 C626 1.287 . S
C627 C628 1.524 . S
C627 H630 0.999 . S
C628 H598 0.950 . S
C628 C627 1.524 . S
C628 C629 1.415 . S
C629 H599 0.950 . S
C629 C624 1.363 . S
C629 C628 1.415 . S
H630 C627 0.999 . S
H631 C612 0.913 . S
H632 C650 0.951 . S
H633 C652 0.951 . S
H634 C654 0.950 . S
H635 C655 0.950 . S
H636 C657 0.950 . S
H637 C660 0.950 . S
H638 C661 0.950 . S
H639 C663 0.950 . S
H640 C664 0.950 . S
H641 C665 0.951 . S
H642 C667 0.951 . S
H643 C669 0.950 . S
H644 C670 0.950 . S
H645 C672 0.950 . S
H646 C675 0.950 . S
H647 C676 0.950 . S
H648 C678 0.950 . S
H649 C679 0.950 . S
C650 H632 0.951 . S
C650 C651 1.366 . S
C650 C652 1.388 . S
C651 C650 1.366 . S
C651 C655 1.385 . S
C652 H633 0.951 . S
C652 C650 1.388 . S
C652 C653 1.366 . S
C653 C652 1.366 . S
C653 C654 1.414 . S
C653 C656 1.499 . S
C654 H634 0.950 . S
C654 C653 1.414 . S
C654 C655 1.374 . S
C655 H635 0.950 . S
C655 C651 1.385 . S
C655 C654 1.374 . S
C656 C653 1.499 . S
C656 C657 1.373 . S
C656 C658 1.389 . S
C657 H636 0.950 . S
C657 C656 1.373 . S
C657 C673 1.377 . S
C658 C656 1.389 . S
C658 C659 1.524 . S
C658 C672 1.377 . S
C659 C658 1.524 . S
C659 C660 1.397 . S
C659 C664 1.363 . S
C660 H637 0.950 . S
C660 C659 1.397 . S
C660 C661 1.334 . S
C661 H638 0.950 . S
C661 C660 1.334 . S
C661 C662 1.287 . S
C662 C661 1.287 . S
C662 C663 1.524 . S
C662 H681 0.913 . S
C663 H639 0.950 . S
C663 C662 1.524 . S
C663 C664 1.415 . S
C664 H640 0.950 . S
C664 C659 1.363 . S
C664 C663 1.415 . S
C665 H641 0.951 . S
C665 C666 1.366 . S
C665 C667 1.388 . S
C666 C665 1.366 . S
C666 C670 1.385 . S
C667 H642 0.951 . S
C667 C665 1.388 . S
C667 C668 1.366 . S
C668 C667 1.366 . S
C668 C669 1.414 . S
C668 C671 1.499 . S
C669 H643 0.950 . S
C669 C668 1.414 . S
C669 C670 1.374 . S
C670 H644 0.950 . S
C670 C666 1.385 . S
C670 C669 1.374 . S
C671 C668 1.499 . S
C671 C672 1.373 . S
C671 C673 1.389 . S
C672 H645 0.950 . S
C672 C658 1.377 . S
C672 C671 1.373 . S
C673 C657 1.377 . S
C673 C671 1.389 . S
C673 C674 1.524 . S
C674 C673 1.524 . S
C674 C675 1.397 . S
C674 C679 1.363 . S
C675 H646 0.950 . S
C675 C674 1.397 . S
C675 C676 1.334 . S
C676 H647 0.950 . S
C676 C675 1.334 . S
C676 C677 1.287 . S
C677 C676 1.287 . S
C677 C678 1.524 . S
C677 H680 0.999 . S
C678 H648 0.950 . S
C678 C677 1.524 . S
C678 C679 1.415 . S
C679 H649 0.950 . S
C679 C674 1.363 . S
C679 C678 1.415 . S
H680 C677 0.999 . S
H681 C662 0.913 . S
H682 C700 0.951 . S
H683 C702 0.951 . S
H684 C704 0.950 . S
H685 C705 0.950 . S
H686 C707 0.950 . S
H687 C710 0.950 . S
H688 C711 0.950 . S
H689 C713 0.950 . S
H690 C714 0.950 . S
H691 C715 0.951 . S
H692 C717 0.951 . S
H693 C719 0.950 . S
H694 C720 0.950 . S
H695 C722 0.950 . S
H696 C725 0.950 . S
H697 C726 0.950 . S
H698 C728 0.950 . S
H699 C729 0.950 . S
C700 H682 0.951 . S
C700 C701 1.366 1_545 S
C700 C702 1.388 . S
C701 C700 1.366 1_565 S
C701 C705 1.385 . S
C702 H683 0.951 . S
C702 C700 1.388 . S
C702 C703 1.366 1_545 S
C703 C702 1.366 1_565 S
C703 C704 1.414 . S
C703 C706 1.499 . S
C704 H684 0.950 . S
C704 C703 1.414 . S
C704 C705 1.374 . S
C705 H685 0.950 . S
C705 C701 1.385 . S
C705 C704 1.374 . S
C706 C703 1.499 . S
C706 C707 1.373 . S
C706 C708 1.389 1_565 S
C707 H686 0.950 . S
C707 C706 1.373 . S
C707 C723 1.377 . S
C708 C706 1.389 1_545 S
C708 C709 1.524 . S
C708 C722 1.377 . S
C709 C708 1.524 . S
C709 C710 1.397 . S
C709 C714 1.363 . S
C710 H687 0.950 . S
C710 C709 1.397 . S
C710 C711 1.334 . S
C711 H688 0.950 . S
C711 C710 1.334 . S
C711 C712 1.287 . S
C712 C711 1.287 . S
C712 C713 1.524 . S
C712 H731 0.913 . S
C713 H689 0.950 . S
C713 C712 1.524 . S
C713 C714 1.415 . S
C714 H690 0.950 . S
C714 C709 1.363 . S
C714 C713 1.415 . S
C715 H691 0.951 . S
C715 C716 1.366 . S
C715 C717 1.388 . S
C716 C715 1.366 . S
C716 C720 1.385 1_565 S
C717 H692 0.951 . S
C717 C715 1.388 . S
C717 C718 1.366 . S
C718 C717 1.366 . S
C718 C719 1.414 1_565 S
C718 C721 1.499 . S
C719 H693 0.950 . S
C719 C718 1.414 1_545 S
C719 C720 1.374 . S
C720 H694 0.950 . S
C720 C716 1.385 1_545 S
C720 C719 1.374 . S
C721 C718 1.499 . S
C721 C722 1.373 1_565 S
C721 C723 1.389 . S
C722 H695 0.950 . S
C722 C708 1.377 . S
C722 C721 1.373 1_545 S
C723 C707 1.377 . S
C723 C721 1.389 . S
C723 C724 1.524 . S
C724 C723 1.524 . S
C724 C725 1.397 . S
C724 C729 1.363 . S
C725 H696 0.950 . S
C725 C724 1.397 . S
C725 C726 1.334 . S
C726 H697 0.950 . S
C726 C725 1.334 . S
C726 C727 1.287 . S
C727 C726 1.287 . S
C727 C728 1.524 . S
C727 H730 0.999 . S
C728 H698 0.950 . S
C728 C727 1.524 . S
C728 C729 1.415 . S
C729 H699 0.950 . S
C729 C724 1.363 . S
C729 C728 1.415 . S
H730 C727 0.999 . S
H731 C712 0.913 . S
H732 C750 0.951 . S
H733 C752 0.951 . S
H734 C754 0.950 . S
H735 C755 0.950 . S
H736 C757 0.950 . S
H737 C760 0.950 . S
H738 C761 0.950 . S
H739 C763 0.950 . S
H740 C764 0.950 . S
H741 C765 0.951 . S
H742 C767 0.951 . S
H743 C769 0.950 . S
H744 C770 0.950 . S
H745 C772 0.950 . S
H746 C775 0.950 . S
H747 C776 0.950 . S
H748 C778 0.950 . S
H749 C779 0.950 . S
C750 H732 0.951 . S
C750 C751 1.366 . S
C750 C752 1.388 . S
C751 C750 1.366 . S
C751 C755 1.385 . S
C752 H733 0.951 . S
C752 C750 1.388 . S
C752 C753 1.366 . S
C753 C752 1.366 . S
C753 C754 1.414 . S
C753 C756 1.499 . S
C754 H734 0.950 . S
C754 C753 1.414 . S
C754 C755 1.374 . S
C755 H735 0.950 . S
C755 C751 1.385 . S
C755 C754 1.374 . S
C756 C753 1.499 . S
C756 C757 1.373 . S
C756 C758 1.389 . S
C757 H736 0.950 . S
C757 C756 1.373 . S
C757 C773 1.377 . S
C758 C756 1.389 . S
C758 C759 1.524 . S
C758 C772 1.377 . S
C759 C758 1.524 . S
C759 C760 1.397 . S
C759 C764 1.363 . S
C760 H737 0.950 . S
C760 C759 1.397 . S
C760 C761 1.334 . S
C761 H738 0.950 . S
C761 C760 1.334 . S
C761 C762 1.287 . S
C762 C761 1.287 . S
C762 C763 1.524 . S
C762 H781 0.913 . S
C763 H739 0.950 . S
C763 C762 1.524 . S
C763 C764 1.415 . S
C764 H740 0.950 . S
C764 C759 1.363 . S
C764 C763 1.415 . S
C765 H741 0.951 . S
C765 C766 1.366 . S
C765 C767 1.388 . S
C766 C765 1.366 . S
C766 C770 1.385 . S
C767 H742 0.951 . S
C767 C765 1.388 . S
C767 C768 1.366 . S
C768 C767 1.366 . S
C768 C769 1.414 . S
C768 C771 1.499 . S
C769 H743 0.950 . S
C769 C768 1.414 . S
C769 C770 1.374 . S
C770 H744 0.950 . S
C770 C766 1.385 . S
C770 C769 1.374 . S
C771 C768 1.499 . S
C771 C772 1.373 . S
C771 C773 1.389 . S
C772 H745 0.950 . S
C772 C758 1.377 . S
C772 C771 1.373 . S
C773 C757 1.377 . S
C773 C771 1.389 . S
C773 C774 1.524 . S
C774 C773 1.524 . S
C774 C775 1.397 . S
C774 C779 1.363 . S
C775 H746 0.950 . S
C775 C774 1.397 . S
C775 C776 1.334 . S
C776 H747 0.950 . S
C776 C775 1.334 . S
C776 C777 1.287 . S
C777 C776 1.287 . S
C777 C778 1.524 . S
C777 H780 0.999 . S
C778 H748 0.950 . S
C778 C777 1.524 . S
C778 C779 1.415 . S
C779 H749 0.950 . S
C779 C774 1.363 . S
C779 C778 1.415 . S
H780 C777 0.999 . S
H781 C762 0.913 . S
H782 C800 0.951 . S
H783 C802 0.951 . S
H784 C804 0.950 . S
H785 C805 0.950 . S
H786 C807 0.950 . S
H787 C810 0.950 . S
H788 C811 0.950 . S
H789 C813 0.950 . S
H790 C814 0.950 . S
H791 C815 0.951 . S
H792 C817 0.951 . S
H793 C819 0.950 . S
H794 C820 0.950 . S
H795 C822 0.950 . S
H796 C825 0.950 . S
H797 C826 0.950 . S
H798 C828 0.950 . S
H799 C829 0.950 . S
C800 H782 0.951 . S
C800 C801 1.366 . S
C800 C802 1.388 . S
C801 C800 1.366 . S
C801 C805 1.385 . S
C802 H783 0.951 . S
C802 C800 1.388 . S
C802 C803 1.366 . S
C803 C802 1.366 . S
C803 C804 1.414 . S
C803 C806 1.499 . S
C804 H784 0.950 . S
C804 C803 1.414 . S
C804 C805 1.374 . S
C805 H785 0.950 . S
C805 C801 1.385 . S
C805 C804 1.374 . S
C806 C803 1.499 . S
C806 C807 1.373 . S
C806 C808 1.389 . S
C807 H786 0.950 . S
C807 C806 1.373 . S
C807 C823 1.377 . S
C808 C806 1.389 . S
C808 C809 1.524 . S
C808 C822 1.377 . S
C809 C808 1.524 . S
C809 C810 1.397 . S
C809 C814 1.363 . S
C810 H787 0.950 . S
C810 C809 1.397 . S
C810 C811 1.334 . S
C811 H788 0.950 . S
C811 C810 1.334 . S
C811 C812 1.287 . S
C812 C811 1.287 . S
C812 C813 1.524 . S
C812 H831 0.913 . S
C813 H789 0.950 . S
C813 C812 1.524 . S
C813 C814 1.415 . S
C814 H790 0.950 . S
C814 C809 1.363 . S
C814 C813 1.415 . S
C815 H791 0.951 . S
C815 C816 1.366 . S
C815 C817 1.388 . S
C816 C815 1.366 . S
C816 C820 1.385 . S
C817 H792 0.951 . S
C817 C815 1.388 . S
C817 C818 1.366 . S
C818 C817 1.366 . S
C818 C819 1.414 . S
C818 C821 1.499 . S
C819 H793 0.950 . S
C819 C818 1.414 . S
C819 C820 1.374 . S
C820 H794 0.950 . S
C820 C816 1.385 . S
C820 C819 1.374 . S
C821 C818 1.499 . S
C821 C822 1.373 . S
C821 C823 1.389 . S
C822 H795 0.950 . S
C822 C808 1.377 . S
C822 C821 1.373 . S
C823 C807 1.377 . S
C823 C821 1.389 . S
C823 C824 1.524 . S
C824 C823 1.524 . S
C824 C825 1.397 . S
C824 C829 1.363 . S
C825 H796 0.950 . S
C825 C824 1.397 . S
C825 C826 1.334 . S
C826 H797 0.950 . S
C826 C825 1.334 . S
C826 C827 1.287 . S
C827 C826 1.287 . S
C827 C828 1.524 . S
C827 H830 0.999 . S
C828 H798 0.950 . S
C828 C827 1.524 . S
C828 C829 1.415 . S
C829 H799 0.950 . S
C829 C824 1.363 . S
C829 C828 1.415 . S
H830 C827 0.999 . S
H831 C812 0.913 . S
H832 C850 0.951 . S
H833 C852 0.951 . S
H834 C854 0.950 . S
H835 C855 0.950 . S
H836 C857 0.950 . S
H837 C860 0.950 . S
H838 C861 0.950 . S
H839 C863 0.950 . S
H840 C864 0.950 . S
H841 C865 0.951 . S
H842 C867 0.951 . S
H843 C869 0.950 . S
H844 C870 0.950 . S
H845 C872 0.950 . S
H846 C875 0.950 . S
H847 C876 0.950 . S
H848 C878 0.950 . S
H849 C879 0.950 . S
C850 H832 0.951 . S
C850 C851 1.366 . S
C850 C852 1.388 . S
C851 C850 1.366 . S
C851 C855 1.385 . S
C852 H833 0.951 . S
C852 C850 1.388 . S
C852 C853 1.366 . S
C853 C852 1.366 . S
C853 C854 1.414 . S
C853 C856 1.499 . S
C854 H834 0.950 . S
C854 C853 1.414 . S
C854 C855 1.374 . S
C855 H835 0.950 . S
C855 C851 1.385 . S
C855 C854 1.374 . S
C856 C853 1.499 . S
C856 C857 1.373 . S
C856 C858 1.389 . S
C857 H836 0.950 . S
C857 C856 1.373 . S
C857 C873 1.377 . S
C858 C856 1.389 . S
C858 C859 1.524 . S
C858 C872 1.377 . S
C859 C858 1.524 . S
C859 C860 1.397 . S
C859 C864 1.363 . S
C860 H837 0.950 . S
C860 C859 1.397 . S
C860 C861 1.334 . S
C861 H838 0.950 . S
C861 C860 1.334 . S
C861 C862 1.287 . S
C862 C861 1.287 . S
C862 C863 1.524 . S
C862 H881 0.913 . S
C863 H839 0.950 . S
C863 C862 1.524 . S
C863 C864 1.415 . S
C864 H840 0.950 . S
C864 C859 1.363 . S
C864 C863 1.415 . S
C865 H841 0.951 . S
C865 C866 1.366 . S
C865 C867 1.388 . S
C866 C865 1.366 . S
C866 C870 1.385 . S
C867 H842 0.951 . S
C867 C865 1.388 . S
C867 C868 1.366 . S
C868 C867 1.366 . S
C868 C869 1.414 . S
C868 C871 1.499 . S
C869 H843 0.950 . S
C869 C868 1.414 . S
C869 C870 1.374 . S
C870 H844 0.950 . S
C870 C866 1.385 . S
C870 C869 1.374 . S
C871 C868 1.499 . S
C871 C872 1.373 . S
C871 C873 1.389 . S
C872 H845 0.950 . S
C872 C858 1.377 . S
C872 C871 1.373 . S
C873 C857 1.377 . S
C873 C871 1.389 . S
C873 C874 1.524 . S
C874 C873 1.524 . S
C874 C875 1.397 . S
C874 C879 1.363 . S
C875 H846 0.950 . S
C875 C874 1.397 . S
C875 C876 1.334 . S
C876 H847 0.950 . S
C876 C875 1.334 . S
C876 C877 1.287 . S
C877 C876 1.287 . S
C877 C878 1.524 . S
C877 H880 0.999 . S
C878 H848 0.950 . S
C878 C877 1.524 . S
C878 C879 1.415 . S
C879 H849 0.950 . S
C879 C874 1.363 . S
C879 C878 1.415 . S
H880 C877 0.999 . S
H881 C862 0.913 . S
H882 C900 0.951 . S
H883 C902 0.951 . S
H884 C904 0.950 . S
H885 C905 0.950 . S
H886 C907 0.950 . S
H887 C910 0.950 . S
H888 C911 0.950 . S
H889 C913 0.950 . S
H890 C914 0.950 . S
H891 C915 0.951 . S
H892 C917 0.951 . S
H893 C919 0.950 . S
H894 C920 0.950 . S
H895 C922 0.950 . S
H896 C925 0.950 . S
H897 C926 0.950 . S
H898 C928 0.950 . S
H899 C929 0.950 . S
C900 H882 0.951 . S
C900 C901 1.366 . S
C900 C902 1.388 . S
C901 C900 1.366 . S
C901 C905 1.385 . S
C902 H883 0.951 . S
C902 C900 1.388 . S
C902 C903 1.366 . S
C903 C902 1.366 . S
C903 C904 1.414 . S
C903 C906 1.499 . S
C904 H884 0.950 . S
C904 C903 1.414 . S
C904 C905 1.374 . S
C905 H885 0.950 . S
C905 C901 1.385 . S
C905 C904 1.374 . S
C906 C903 1.499 . S
C906 C907 1.373 . S
C906 C908 1.389 . S
C907 H886 0.950 . S
C907 C906 1.373 . S
C907 C923 1.377 . S
C908 C906 1.389 . S
C908 C909 1.524 . S
C908 C922 1.377 . S
C909 C908 1.524 . S
C909 C910 1.397 . S
C909 C914 1.363 . S
C910 H887 0.950 . S
C910 C909 1.397 . S
C910 C911 1.334 . S
C911 H888 0.950 . S
C911 C910 1.334 . S
C911 C912 1.287 . S
C912 C911 1.287 . S
C912 C913 1.524 . S
C912 H931 0.913 . S
C913 H889 0.950 . S
C913 C912 1.524 . S
C913 C914 1.415 . S
C914 H890 0.950 . S
C914 C909 1.363 . S
C914 C913 1.415 . S
C915 H891 0.951 . S
C915 C916 1.366 . S
C915 C917 1.388 . S
C916 C915 1.366 . S
C916 C920 1.385 . S
C917 H892 0.951 . S
C917 C915 1.388 . S
C917 C918 1.366 . S
C918 C917 1.366 . S
C918 C919 1.414 . S
C918 C921 1.499 . S
C919 H893 0.950 . S
C919 C918 1.414 . S
C919 C920 1.374 . S
C920 H894 0.950 . S
C920 C916 1.385 . S
C920 C919 1.374 . S
C921 C918 1.499 . S
C921 C922 1.373 . S
C921 C923 1.389 . S
C922 H895 0.950 . S
C922 C908 1.377 . S
C922 C921 1.373 . S
C923 C907 1.377 . S
C923 C921 1.389 . S
C923 C924 1.524 . S
C924 C923 1.524 . S
C924 C925 1.397 . S
C924 C929 1.363 . S
C925 H896 0.950 . S
C925 C924 1.397 . S
C925 C926 1.334 . S
C926 H897 0.950 . S
C926 C925 1.334 . S
C926 C927 1.287 . S
C927 C926 1.287 . S
C927 C928 1.524 . S
C927 H930 0.999 . S
C928 H898 0.950 . S
C928 C927 1.524 . S
C928 C929 1.415 . S
C929 H899 0.950 . S
C929 C924 1.363 . S
C929 C928 1.415 . S
H930 C927 0.999 . S
H931 C912 0.913 . S
H932 C950 0.951 . S
H933 C952 0.951 . S
H934 C954 0.950 . S
H935 C955 0.950 . S
H936 C957 0.950 . S
H937 C960 0.950 . S
H938 C961 0.950 . S
H939 C963 0.950 . S
H940 C964 0.950 . S
H941 C965 0.951 . S
H942 C967 0.951 . S
H943 C969 0.950 . S
H944 C970 0.950 . S
H945 C972 0.950 . S
H946 C975 0.950 . S
H947 C976 0.950 . S
H948 C978 0.950 . S
H949 C979 0.950 . S
C950 H932 0.951 . S
C950 C951 1.366 . S
C950 C952 1.388 . S
C951 C950 1.366 . S
C951 C955 1.385 . S
C952 H933 0.951 . S
C952 C950 1.388 . S
C952 C953 1.366 . S
C953 C952 1.366 . S
C953 C954 1.414 . S
C953 C956 1.499 . S
C954 H934 0.950 . S
C954 C953 1.414 . S
C954 C955 1.374 . S
C955 H935 0.950 . S
C955 C951 1.385 . S
C955 C954 1.374 . S
C956 C953 1.499 . S
C956 C957 1.373 . S
C956 C958 1.389 . S
C957 H936 0.950 . S
C957 C956 1.373 . S
C957 C973 1.377 . S
C958 C956 1.389 . S
C958 C959 1.524 . S
C958 C972 1.377 . S
C959 C958 1.524 . S
C959 C960 1.397 . S
C959 C964 1.363 . S
C960 H937 0.950 . S
C960 C959 1.397 . S
C960 C961 1.334 . S
C961 H938 0.950 . S
C961 C960 1.334 . S
C961 C962 1.287 . S
C962 C961 1.287 . S
C962 C963 1.524 . S
C962 H981 0.913 . S
C963 H939 0.950 . S
C963 C962 1.524 . S
C963 C964 1.415 . S
C964 H940 0.950 . S
C964 C959 1.363 . S
C964 C963 1.415 . S
C965 H941 0.951 . S
C965 C966 1.366 . S
C965 C967 1.388 . S
C966 C965 1.366 . S
C966 C970 1.385 . S
C967 H942 0.951 . S
C967 C965 1.388 . S
C967 C968 1.366 . S
C968 C967 1.366 . S
C968 C969 1.414 . S
C968 C971 1.499 . S
C969 H943 0.950 . S
C969 C968 1.414 . S
C969 C970 1.374 . S
C970 H944 0.950 . S
C970 C966 1.385 . S
C970 C969 1.374 . S
C971 C968 1.499 . S
C971 C972 1.373 . S
C971 C973 1.389 . S
C972 H945 0.950 . S
C972 C958 1.377 . S
C972 C971 1.373 . S
C973 C957 1.377 . S
C973 C971 1.389 . S
C973 C974 1.524 . S
C974 C973 1.524 . S
C974 C975 1.397 . S
C974 C979 1.363 . S
C975 H946 0.950 . S
C975 C974 1.397 . S
C975 C976 1.334 . S
C976 H947 0.950 . S
C976 C975 1.334 . S
C976 C977 1.287 . S
C977 C976 1.287 . S
C977 C978 1.524 . S
C977 H980 0.999 . S
C978 H948 0.950 . S
C978 C977 1.524 . S
C978 C979 1.415 . S
C979 H949 0.950 . S
C979 C974 1.363 . S
C979 C978 1.415 . S
H980 C977 0.999 . S
H981 C962 0.913 . S
H982 C1000 0.951 . S
H983 C1002 0.951 . S
H984 C1004 0.950 . S
H985 C1005 0.950 . S
H986 C1007 0.950 . S
H987 C1010 0.950 . S
H988 C1011 0.950 . S
H989 C1013 0.950 . S
H990 C1014 0.950 . S
H991 C1015 0.951 1_655 S
H992 C1017 0.951 . S
H993 C1019 0.950 . S
H994 C1020 0.950 . S
H995 C1022 0.950 . S
H996 C1025 0.950 . S
H997 C1026 0.950 . S
H998 C1028 0.950 . S
H999 C1029 0.950 . S
C1000 H982 0.951 . S
C1000 C1001 1.366 . S
C1000 C1002 1.388 . S
C1001 C1000 1.366 . S
C1001 C1005 1.385 . S
C1002 H983 0.951 . S
C1002 C1000 1.388 . S
C1002 C1003 1.366 . S
C1003 C1002 1.366 . S
C1003 C1004 1.414 . S
C1003 C1006 1.499 . S
C1004 H984 0.950 . S
C1004 C1003 1.414 . S
C1004 C1005 1.374 . S
C1005 H985 0.950 . S
C1005 C1001 1.385 . S
C1005 C1004 1.374 . S
C1006 C1003 1.499 . S
C1006 C1007 1.373 . S
C1006 C1008 1.389 . S
C1007 H986 0.950 . S
C1007 C1006 1.373 . S
C1007 C1023 1.377 . S
C1008 C1006 1.389 . S
C1008 C1009 1.524 . S
C1008 C1022 1.377 . S
C1009 C1008 1.524 . S
C1009 C1010 1.397 . S
C1009 C1014 1.363 . S
C1010 H987 0.950 . S
C1010 C1009 1.397 . S
C1010 C1011 1.334 . S
C1011 H988 0.950 . S
C1011 C1010 1.334 . S
C1011 C1012 1.287 . S
C1012 C1011 1.287 . S
C1012 C1013 1.524 . S
C1012 H1031 0.913 . S
C1013 H989 0.950 . S
C1013 C1012 1.524 . S
C1013 C1014 1.415 . S
C1014 H990 0.950 . S
C1014 C1009 1.363 . S
C1014 C1013 1.415 . S
C1015 H991 0.951 1_455 S
C1015 C1016 1.366 . S
C1015 C1017 1.388 . S
C1016 C1015 1.366 . S
C1016 C1020 1.385 . S
C1017 H992 0.951 . S
C1017 C1015 1.388 . S
C1017 C1018 1.366 . S
C1018 C1017 1.366 . S
C1018 C1019 1.414 . S
C1018 C1021 1.499 . S
C1019 H993 0.950 . S
C1019 C1018 1.414 . S
C1019 C1020 1.374 . S
C1020 H994 0.950 . S
C1020 C1016 1.385 . S
C1020 C1019 1.374 . S
C1021 C1018 1.499 . S
C1021 C1022 1.373 . S
C1021 C1023 1.389 . S
C1022 H995 0.950 . S
C1022 C1008 1.377 . S
C1022 C1021 1.373 . S
C1023 C1007 1.377 . S
C1023 C1021 1.389 . S
C1023 C1024 1.524 . S
C1024 C1023 1.524 . S
C1024 C1025 1.397 . S
C1024 C1029 1.363 1_455 S
C1025 H996 0.950 . S
C1025 C1024 1.397 . S
C1025 C1026 1.334 . S
C1026 H997 0.950 . S
C1026 C1025 1.334 . S
C1026 C1027 1.287 1_455 S
C1027 C1026 1.287 1_655 S
C1027 C1028 1.524 . S
C1027 H1030 0.999 . S
C1028 H998 0.950 . S
C1028 C1027 1.524 . S
C1028 C1029 1.415 . S
C1029 H999 0.950 . S
C1029 C1024 1.363 1_655 S
C1029 C1028 1.415 . S
H1030 C1027 0.999 . S
H1031 C1012 0.913 . S
H1032 C1050 0.951 . S
H1033 C1052 0.951 . S
H1034 C1054 0.950 . S
H1035 C1055 0.950 . S
H1036 C1057 0.950 . S
H1037 C1060 0.950 . S
H1038 C1061 0.950 . S
H1039 C1063 0.950 . S
H1040 C1064 0.950 . S
H1041 C1065 0.951 . S
H1042 C1067 0.951 . S
H1043 C1069 0.950 . S
H1044 C1070 0.950 . S
H1045 C1072 0.950 . S
H1046 C1075 0.950 . S
H1047 C1076 0.950 . S
H1048 C1078 0.950 . S
H1049 C1079 0.950 . S
C1050 H1032 0.951 . S
C1050 C1051 1.366 . S
C1050 C1052 1.388 . S
C1051 C1050 1.366 . S
C1051 C1055 1.385 . S
C1052 H1033 0.951 . S
C1052 C1050 1.388 . S
C1052 C1053 1.366 . S
C1053 C1052 1.366 . S
C1053 C1054 1.414 . S
C1053 C1056 1.499 . S
C1054 H1034 0.950 . S
C1054 C1053 1.414 . S
C1054 C1055 1.374 . S
C1055 H1035 0.950 . S
C1055 C1051 1.385 . S
C1055 C1054 1.374 . S
C1056 C1053 1.499 . S
C1056 C1057 1.373 . S
C1056 C1058 1.389 . S
C1057 H1036 0.950 . S
C1057 C1056 1.373 . S
C1057 C1073 1.377 . S
C1058 C1056 1.389 . S
C1058 C1059 1.524 . S
C1058 C1072 1.377 . S
C1059 C1058 1.524 . S
C1059 C1060 1.397 . S
C1059 C1064 1.363 . S
C1060 H1037 0.950 . S
C1060 C1059 1.397 . S
C1060 C1061 1.334 . S
C1061 H1038 0.950 . S
C1061 C1060 1.334 . S
C1061 C1062 1.287 . S
C1062 C1061 1.287 . S
C1062 C1063 1.524 . S
C1062 H1081 0.913 . S
C1063 H1039 0.950 . S
C1063 C1062 1.524 . S
C1063 C1064 1.415 . S
C1064 H1040 0.950 . S
C1064 C1059 1.363 . S
C1064 C1063 1.415 . S
C1065 H1041 0.951 . S
C1065 C1066 1.366 . S
C1065 C1067 1.388 . S
C1066 C1065 1.366 . S
C1066 C1070 1.385 . S
C1067 H1042 0.951 . S
C1067 C1065 1.388 . S
C1067 C1068 1.366 . S
C1068 C1067 1.366 . S
C1068 C1069 1.414 . S
C1068 C1071 1.499 . S
C1069 H1043 0.950 . S
C1069 C1068 1.414 . S
C1069 C1070 1.374 . S
C1070 H1044 0.950 . S
C1070 C1066 1.385 . S
C1070 C1069 1.374 . S
C1071 C1068 1.499 . S
C1071 C1072 1.373 . S
C1071 C1073 1.389 . S
C1072 H1045 0.950 . S
C1072 C1058 1.377 . S
C1072 C1071 1.373 . S
C1073 C1057 1.377 . S
C1073 C1071 1.389 . S
C1073 C1074 1.524 . S
C1074 C1073 1.524 . S
C1074 C1075 1.397 . S
C1074 C1079 1.363 . S
C1075 H1046 0.950 . S
C1075 C1074 1.397 . S
C1075 C1076 1.334 . S
C1076 H1047 0.950 . S
C1076 C1075 1.334 . S
C1076 C1077 1.287 . S
C1077 C1076 1.287 . S
C1077 C1078 1.524 . S
C1077 H1080 0.999 . S
C1078 H1048 0.950 . S
C1078 C1077 1.524 . S
C1078 C1079 1.415 . S
C1079 H1049 0.950 . S
C1079 C1074 1.363 . S
C1079 C1078 1.415 . S
H1080 C1077 0.999 . S
H1081 C1062 0.913 . S
H1082 C1100 0.951 . S
H1083 C1102 0.951 . S
H1084 C1104 0.950 1_455 S
H1085 C1105 0.935 1_455 S
H1086 C1107 0.950 . S
H1087 C1110 0.950 . S
H1088 C1111 0.950 . S
H1089 C1113 0.950 . S
H1090 C1114 0.950 1_655 S
H1091 C1115 0.951 . S
H1092 C1117 0.951 . S
H1093 C1119 0.950 . S
H1094 C1120 0.950 . S
H1095 C1122 0.950 . S
H1096 C1125 0.950 . S
H1097 C1126 0.950 . S
H1098 C1128 0.950 . S
H1099 C1129 0.950 . S
C1100 H1082 0.951 . S
C1100 C1101 1.366 . S
C1100 C1102 1.388 . S
C1101 C1100 1.366 . S
C1101 C1105 1.385 . S
C1102 H1083 0.951 . S
C1102 C1100 1.388 . S
C1102 C1103 1.366 . S
C1103 C1102 1.366 . S
C1103 C1104 1.414 . S
C1103 C1106 1.499 . S
C1104 H1084 0.950 1_655 S
C1104 C1103 1.414 . S
C1104 C1105 1.374 . S
C1105 H1085 0.935 1_655 S
C1105 C1101 1.385 . S
C1105 C1104 1.374 . S
C1106 C1103 1.499 . S
C1106 C1107 1.373 . S
C1106 C1108 1.389 1_655 S
C1107 H1086 0.950 . S
C1107 C1106 1.373 . S
C1107 C1123 1.377 . S
C1108 C1106 1.389 1_455 S
C1108 C1109 1.524 . S
C1108 C1122 1.377 . S
C1109 C1108 1.524 . S
C1109 C1110 1.397 . S
C1109 C1114 1.363 . S
C1110 H1087 0.950 . S
C1110 C1109 1.397 . S
C1110 C1111 1.334 . S
C1111 H1088 0.950 . S
C1111 C1110 1.334 . S
C1111 C1112 1.287 . S
C1112 C1111 1.287 . S
C1112 C1113 1.524 . S
C1112 H1131 0.913 . S
C1113 H1089 0.950 . S
C1113 C1112 1.524 . S
C1113 C1114 1.415 . S
C1114 H1090 0.950 1_455 S
C1114 C1109 1.363 . S
C1114 C1113 1.415 . S
C1115 H1091 0.951 . S
C1115 C1116 1.366 . S
C1115 C1117 1.388 . S
C1116 C1115 1.366 . S
C1116 C1120 1.385 1_455 S
C1117 H1092 0.951 . S
C1117 C1115 1.388 . S
C1117 C1118 1.366 1_455 S
C1118 C1117 1.366 1_655 S
C1118 C1119 1.414 . S
C1118 C1121 1.499 . S
C1119 H1093 0.950 . S
C1119 C1118 1.414 . S
C1119 C1120 1.374 . S
C1120 H1094 0.950 . S
C1120 C1116 1.385 1_655 S
C1120 C1119 1.374 . S
C1121 C1118 1.499 . S
C1121 C1122 1.373 1_655 S
C1121 C1123 1.389 . S
C1122 H1095 0.950 . S
C1122 C1108 1.377 . S
C1122 C1121 1.373 1_455 S
C1123 C1107 1.377 . S
C1123 C1121 1.389 . S
C1123 C1124 1.524 . S
C1124 C1123 1.524 . S
C1124 C1125 1.397 . S
C1124 C1129 1.363 . S
C1125 H1096 0.950 . S
C1125 C1124 1.397 . S
C1125 C1126 1.334 . S
C1126 H1097 0.950 . S
C1126 C1125 1.334 . S
C1126 C1127 1.287 . S
C1127 C1126 1.287 . S
C1127 C1128 1.524 . S
C1127 H1130 0.999 . S
C1128 H1098 0.950 . S
C1128 C1127 1.524 . S
C1128 C1129 1.415 . S
C1129 H1099 0.950 . S
C1129 C1124 1.363 . S
C1129 C1128 1.415 . S
H1130 C1127 0.999 . S
H1131 C1112 0.913 . S
H1132 C1150 0.951 . S
H1133 C1152 0.951 . S
H1134 C1154 0.950 . S
H1135 C1155 0.950 . S
H1136 C1157 0.950 . S
H1137 C1160 0.950 . S
H1138 C1161 0.950 . S
H1139 C1163 0.950 . S
H1140 C1164 0.950 . S
H1141 C1165 0.951 . S
H1142 C1167 0.951 . S
H1143 C1169 0.950 . S
H1144 C1170 0.950 1_545 S
H1145 C1172 0.950 . S
H1146 C1175 0.950 . S
H1147 C1176 0.950 . S
H1148 C1178 0.950 . S
H1149 C1179 0.950 . S
C1150 H1132 0.951 . S
C1150 C1151 1.366 . S
C1150 C1152 1.388 . S
C1151 C1150 1.366 . S
C1151 C1155 1.385 . S
C1152 H1133 0.951 . S
C1152 C1150 1.388 . S
C1152 C1153 1.366 . S
C1153 C1152 1.366 . S
C1153 C1154 1.414 . S
C1153 C1156 1.499 . S
C1154 H1134 0.950 . S
C1154 C1153 1.414 . S
C1154 C1155 1.374 . S
C1155 H1135 0.950 . S
C1155 C1151 1.385 . S
C1155 C1154 1.374 . S
C1156 C1153 1.499 . S
C1156 C1157 1.373 . S
C1156 C1158 1.389 . S
C1157 H1136 0.950 . S
C1157 C1156 1.373 . S
C1157 C1173 1.377 . S
C1158 C1156 1.389 . S
C1158 C1159 1.524 . S
C1158 C1172 1.377 . S
C1159 C1158 1.524 . S
C1159 C1160 1.397 . S
C1159 C1164 1.363 . S
C1160 H1137 0.950 . S
C1160 C1159 1.397 . S
C1160 C1161 1.334 . S
C1161 H1138 0.950 . S
C1161 C1160 1.334 . S
C1161 C1162 1.287 . S
C1162 C1161 1.287 . S
C1162 C1163 1.524 . S
C1162 H1181 0.913 . S
C1163 H1139 0.950 . S
C1163 C1162 1.524 . S
C1163 C1164 1.415 . S
C1164 H1140 0.950 . S
C1164 C1159 1.363 . S
C1164 C1163 1.415 . S
C1165 H1141 0.951 . S
C1165 C1166 1.366 . S
C1165 C1167 1.388 . S
C1166 C1165 1.366 . S
C1166 C1170 1.385 . S
C1167 H1142 0.951 . S
C1167 C1165 1.388 . S
C1167 C1168 1.366 . S
C1168 C1167 1.366 . S
C1168 C1169 1.414 . S
C1168 C1171 1.499 . S
C1169 H1143 0.950 . S
C1169 C1168 1.414 . S
C1169 C1170 1.374 . S
C1170 H1144 0.950 1_565 S
C1170 C1166 1.385 . S
C1170 C1169 1.374 . S
C1171 C1168 1.499 . S
C1171 C1172 1.373 . S
C1171 C1173 1.389 . S
C1172 H1145 0.950 . S
C1172 C1158 1.377 . S
C1172 C1171 1.373 . S
C1173 C1157 1.377 . S
C1173 C1171 1.389 . S
C1173 C1174 1.524 . S
C1174 C1173 1.524 . S
C1174 C1175 1.397 . S
C1174 C1179 1.363 . S
C1175 H1146 0.950 . S
C1175 C1174 1.397 . S
C1175 C1176 1.334 . S
C1176 H1147 0.950 . S
C1176 C1175 1.334 . S
C1176 C1177 1.287 . S
C1177 C1176 1.287 . S
C1177 C1178 1.524 . S
C1177 H1180 0.999 . S
C1178 H1148 0.950 . S
C1178 C1177 1.524 . S
C1178 C1179 1.415 . S
C1179 H1149 0.950 . S
C1179 C1174 1.363 . S
C1179 C1178 1.415 . S
H1180 C1177 0.999 . S
H1181 C1162 0.913 . S
H1182 C1200 0.951 . S
H1183 C1202 0.951 . S
H1184 C1204 0.950 . S
H1185 C1205 0.950 . S
H1186 C1207 0.950 . S
H1187 C1210 0.950 . S
H1188 C1211 0.950 . S
H1189 C1213 0.950 . S
H1190 C1214 0.950 . S
H1191 C1215 0.951 . S
H1192 C1217 0.951 . S
H1193 C1219 0.950 . S
H1194 C1220 0.950 . S
H1195 C1222 0.950 . S
H1196 C1225 0.950 . S
H1197 C1226 0.950 . S
H1198 C1228 0.950 . S
H1199 C1229 0.950 . S
C1200 H1182 0.951 . S
C1200 C1201 1.366 . S
C1200 C1202 1.388 . S
C1201 C1200 1.366 . S
C1201 C1205 1.385 . S
C1202 H1183 0.951 . S
C1202 C1200 1.388 . S
C1202 C1203 1.366 . S
C1203 C1202 1.366 . S
C1203 C1204 1.414 . S
C1203 C1206 1.499 . S
C1204 H1184 0.950 . S
C1204 C1203 1.414 . S
C1204 C1205 1.374 . S
C1205 H1185 0.950 . S
C1205 C1201 1.385 . S
C1205 C1204 1.374 . S
C1206 C1203 1.499 . S
C1206 C1207 1.373 . S
C1206 C1208 1.389 . S
C1207 H1186 0.950 . S
C1207 C1206 1.373 . S
C1207 C1223 1.377 . S
C1208 C1206 1.389 . S
C1208 C1209 1.524 . S
C1208 C1222 1.377 . S
C1209 C1208 1.524 . S
C1209 C1210 1.397 . S
C1209 C1214 1.363 . S
C1210 H1187 0.950 . S
C1210 C1209 1.397 . S
C1210 C1211 1.334 . S
C1211 H1188 0.950 . S
C1211 C1210 1.334 . S
C1211 C1212 1.287 . S
C1212 C1211 1.287 . S
C1212 C1213 1.524 . S
C1212 H1231 0.913 . S
C1213 H1189 0.950 . S
C1213 C1212 1.524 . S
C1213 C1214 1.415 . S
C1214 H1190 0.950 . S
C1214 C1209 1.363 . S
C1214 C1213 1.415 . S
C1215 H1191 0.951 . S
C1215 C1216 1.366 . S
C1215 C1217 1.388 . S
C1216 C1215 1.366 . S
C1216 C1220 1.385 . S
C1217 H1192 0.951 . S
C1217 C1215 1.388 . S
C1217 C1218 1.366 . S
C1218 C1217 1.366 . S
C1218 C1219 1.414 . S
C1218 C1221 1.499 . S
C1219 H1193 0.950 . S
C1219 C1218 1.414 . S
C1219 C1220 1.374 . S
C1220 H1194 0.950 . S
C1220 C1216 1.385 . S
C1220 C1219 1.374 . S
C1221 C1218 1.499 . S
C1221 C1222 1.373 . S
C1221 C1223 1.389 . S
C1222 H1195 0.950 . S
C1222 C1208 1.377 . S
C1222 C1221 1.373 . S
C1223 C1207 1.377 . S
C1223 C1221 1.389 . S
C1223 C1224 1.524 . S
C1224 C1223 1.524 . S
C1224 C1225 1.397 . S
C1224 C1229 1.363 . S
C1225 H1196 0.950 . S
C1225 C1224 1.397 . S
C1225 C1226 1.334 . S
C1226 H1197 0.950 . S
C1226 C1225 1.334 . S
C1226 C1227 1.287 . S
C1227 C1226 1.287 . S
C1227 C1228 1.524 . S
C1227 H1230 0.999 . S
C1228 H1198 0.950 . S
C1228 C1227 1.524 . S
C1228 C1229 1.415 . S
C1229 H1199 0.950 . S
C1229 C1224 1.363 . S
C1229 C1228 1.415 . S
H1230 C1227 0.999 . S
H1231 C1212 0.913 . S
H1232 C1250 0.951 . S
H1233 C1252 0.951 . S
H1234 C1254 0.926 1_554 S
H1235 C1255 0.931 1_565 S
H1236 C1257 0.950 . S
H1237 C1260 0.950 . S
H1238 C1261 0.950 . S
H1239 C1263 0.950 . S
H1240 C1264 0.950 . S
H1241 C1265 0.951 . S
H1242 C1267 0.951 . S
H1243 C1269 0.950 . S
H1244 C1270 0.950 . S
H1245 C1272 0.950 . S
H1246 C1275 0.950 . S
H1247 C1276 0.950 . S
H1248 C1278 0.950 . S
H1249 C1279 0.950 . S
C1250 H1232 0.951 . S
C1250 C1251 1.366 . S
C1250 C1252 1.388 . S
C1251 C1250 1.366 . S
C1251 C1255 1.428 . S
C1252 H1233 0.951 . S
C1252 C1250 1.388 . S
C1252 C1253 1.366 1_545 S
C1253 C1252 1.366 1_565 S
C1253 C1254 1.414 . S
C1253 C1256 1.499 1_556 S
C1254 H1234 0.926 1_556 S
C1254 C1253 1.414 . S
C1254 C1255 1.351 1_565 S
C1255 H1235 0.931 1_545 S
C1255 C1251 1.428 . S
C1255 C1254 1.351 1_545 S
C1256 C1253 1.499 1_554 S
C1256 C1257 1.373 1_554 S
C1256 C1258 1.389 . S
C1257 H1236 0.950 . S
C1257 C1256 1.373 1_556 S
C1257 C1273 1.358 1_556 S
C1258 C1256 1.389 . S
C1258 C1259 1.524 1_565 S
C1258 C1272 1.377 . S
C1259 C1258 1.524 1_545 S
C1259 C1260 1.397 . S
C1259 C1264 1.363 . S
C1260 H1237 0.950 . S
C1260 C1259 1.397 . S
C1260 C1261 1.334 . S
C1261 H1238 0.950 . S
C1261 C1260 1.334 . S
C1261 C1262 1.287 . S
C1262 C1261 1.287 . S
C1262 C1263 1.524 . S
C1262 H1281 0.913 . S
C1263 H1239 0.950 . S
C1263 C1262 1.524 . S
C1263 C1264 1.415 . S
C1264 H1240 0.950 . S
C1264 C1259 1.363 . S
C1264 C1263 1.415 . S
C1265 H1241 0.951 . S
C1265 C1266 1.366 . S
C1265 C1267 1.388 . S
C1266 C1265 1.366 . S
C1266 C1270 1.385 . S
C1267 H1242 0.951 . S
C1267 C1265 1.388 . S
C1267 C1268 1.366 . S
C1268 C1267 1.366 . S
C1268 C1269 1.414 . S
C1268 C1271 1.499 . S
C1269 H1243 0.950 . S
C1269 C1268 1.414 . S
C1269 C1270 1.374 . S
C1270 H1244 0.950 . S
C1270 C1266 1.385 . S
C1270 C1269 1.374 . S
C1271 C1268 1.499 . S
C1271 C1272 1.373 . S
C1271 C1273 1.421 . S
C1272 H1245 0.950 . S
C1272 C1258 1.377 . S
C1272 C1271 1.373 . S
C1273 C1257 1.358 1_554 S
C1273 C1271 1.421 . S
C1273 C1274 1.510 1_554 S
C1274 C1273 1.510 1_556 S
C1274 C1275 1.397 . S
C1274 C1279 1.363 . S
C1275 H1246 0.950 . S
C1275 C1274 1.397 . S
C1275 C1276 1.334 . S
C1276 H1247 0.950 . S
C1276 C1275 1.334 . S
C1276 C1277 1.287 . S
C1277 C1276 1.287 . S
C1277 C1278 1.524 . S
C1277 H1280 0.999 . S
C1278 H1248 0.950 . S
C1278 C1277 1.524 . S
C1278 C1279 1.415 . S
C1279 H1249 0.950 . S
C1279 C1274 1.363 . S
C1279 C1278 1.415 . S
H1280 C1277 0.999 . S
H1281 C1262 0.913 . S
H1282 C1300 0.951 . S
H1283 C1302 0.951 . S
H1284 C1304 0.950 . S
H1285 C1305 0.950 . S
H1286 C1307 0.950 . S
H1287 C1310 0.950 . S
H1288 C1311 0.950 . S
H1289 C1313 0.950 . S
H1290 C1314 0.950 . S
H1291 C1315 0.951 . S
H1292 C1317 0.951 . S
H1293 C1319 0.950 . S
H1294 C1320 0.950 . S
H1295 C1322 0.950 . S
H1296 C1325 0.950 . S
H1297 C1326 0.950 . S
H1298 C1328 0.950 . S
H1299 C1329 0.950 . S
C1300 H1282 0.951 . S
C1300 C1301 1.366 . S
C1300 C1302 1.388 . S
C1301 C1300 1.366 . S
C1301 C1305 1.385 . S
C1302 H1283 0.951 . S
C1302 C1300 1.388 . S
C1302 C1303 1.366 . S
C1303 C1302 1.366 . S
C1303 C1304 1.414 . S
C1303 C1306 1.499 . S
C1304 H1284 0.950 . S
C1304 C1303 1.414 . S
C1304 C1305 1.374 . S
C1305 H1285 0.950 . S
C1305 C1301 1.385 . S
C1305 C1304 1.374 . S
C1306 C1303 1.499 . S
C1306 C1307 1.373 . S
C1306 C1308 1.389 . S
C1307 H1286 0.950 . S
C1307 C1306 1.373 . S
C1307 C1323 1.377 . S
C1308 C1306 1.389 . S
C1308 C1309 1.524 . S
C1308 C1322 1.377 . S
C1309 C1308 1.524 . S
C1309 C1310 1.397 . S
C1309 C1314 1.363 . S
C1310 H1287 0.950 . S
C1310 C1309 1.397 . S
C1310 C1311 1.334 . S
C1311 H1288 0.950 . S
C1311 C1310 1.334 . S
C1311 C1312 1.287 . S
C1312 C1311 1.287 . S
C1312 C1313 1.524 . S
C1312 H1331 0.913 . S
C1313 H1289 0.950 . S
C1313 C1312 1.524 . S
C1313 C1314 1.415 . S
C1314 H1290 0.950 . S
C1314 C1309 1.363 . S
C1314 C1313 1.415 . S
C1315 H1291 0.951 . S
C1315 C1316 1.366 . S
C1315 C1317 1.388 . S
C1316 C1315 1.366 . S
C1316 C1320 1.385 . S
C1317 H1292 0.951 . S
C1317 C1315 1.388 . S
C1317 C1318 1.366 . S
C1318 C1317 1.366 . S
C1318 C1319 1.414 . S
C1318 C1321 1.499 . S
C1319 H1293 0.950 . S
C1319 C1318 1.414 . S
C1319 C1320 1.374 . S
C1320 H1294 0.950 . S
C1320 C1316 1.385 . S
C1320 C1319 1.374 . S
C1321 C1318 1.499 . S
C1321 C1322 1.373 . S
C1321 C1323 1.389 . S
C1322 H1295 0.950 . S
C1322 C1308 1.377 . S
C1322 C1321 1.373 . S
C1323 C1307 1.377 . S
C1323 C1321 1.389 . S
C1323 C1324 1.524 . S
C1324 C1323 1.524 . S
C1324 C1325 1.397 . S
C1324 C1329 1.363 . S
C1325 H1296 0.950 . S
C1325 C1324 1.397 . S
C1325 C1326 1.334 . S
C1326 H1297 0.950 . S
C1326 C1325 1.334 . S
C1326 C1327 1.287 . S
C1327 C1326 1.287 . S
C1327 C1328 1.524 . S
C1327 H1330 0.999 . S
C1328 H1298 0.950 . S
C1328 C1327 1.524 . S
C1328 C1329 1.415 . S
C1329 H1299 0.950 . S
C1329 C1324 1.363 . S
C1329 C1328 1.415 . S
H1330 C1327 0.999 . S
H1331 C1312 0.913 . S
H1332 C1350 0.951 . S
H1333 C1352 0.951 . S
H1334 C1354 0.950 . S
H1335 C1355 0.925 1_565 S
H1336 C1357 0.950 . S
H1337 C1360 0.950 . S
H1338 C1361 0.950 . S
H1339 C1363 0.950 . S
H1340 C1364 0.950 . S
H1341 C1365 0.951 . S
H1342 C1367 0.951 . S
H1343 C1369 0.950 . S
H1344 C1370 0.950 . S
H1345 C1372 0.950 . S
H1346 C1375 0.950 . S
H1347 C1376 0.950 . S
H1348 C1378 0.950 . S
H1349 C1379 0.950 . S
C1350 H1332 0.951 . S
C1350 C1351 1.366 . S
C1350 C1352 1.388 . S
C1351 C1350 1.366 . S
C1351 C1355 1.395 . S
C1352 H1333 0.951 . S
C1352 C1350 1.388 . S
C1352 C1353 1.366 . S
C1353 C1352 1.366 . S
C1353 C1354 1.414 . S
C1353 C1356 1.499 . S
C1354 H1334 0.950 . S
C1354 C1353 1.414 . S
C1354 C1355 1.388 . S
C1355 H1335 0.925 1_545 S
C1355 C1351 1.395 . S
C1355 C1354 1.388 . S
C1356 C1353 1.499 . S
C1356 C1357 1.373 . S
C1356 C1358 1.389 . S
C1357 H1336 0.950 . S
C1357 C1356 1.373 . S
C1357 C1373 1.377 . S
C1358 C1356 1.389 . S
C1358 C1359 1.524 . S
C1358 C1372 1.377 . S
C1359 C1358 1.524 . S
C1359 C1360 1.397 . S
C1359 C1364 1.363 . S
C1360 H1337 0.950 . S
C1360 C1359 1.397 . S
C1360 C1361 1.334 . S
C1361 H1338 0.950 . S
C1361 C1360 1.334 . S
C1361 C1362 1.287 . S
C1362 C1361 1.287 . S
C1362 C1363 1.524 . S
C1362 H1381 0.913 . S
C1363 H1339 0.950 . S
C1363 C1362 1.524 . S
C1363 C1364 1.415 . S
C1364 H1340 0.950 . S
C1364 C1359 1.363 . S
C1364 C1363 1.415 . S
C1365 H1341 0.951 . S
C1365 C1366 1.366 . S
C1365 C1367 1.388 . S
C1366 C1365 1.366 . S
C1366 C1370 1.385 . S
C1367 H1342 0.951 . S
C1367 C1365 1.388 . S
C1367 C1368 1.366 . S
C1368 C1367 1.366 . S
C1368 C1369 1.414 . S
C1368 C1371 1.499 . S
C1369 H1343 0.950 . S
C1369 C1368 1.414 . S
C1369 C1370 1.374 . S
C1370 H1344 0.950 . S
C1370 C1366 1.385 . S
C1370 C1369 1.374 . S
C1371 C1368 1.499 . S
C1371 C1372 1.373 . S
C1371 C1373 1.389 . S
C1372 H1345 0.950 . S
C1372 C1358 1.377 . S
C1372 C1371 1.373 . S
C1373 C1357 1.377 . S
C1373 C1371 1.389 . S
C1373 C1374 1.524 . S
C1374 C1373 1.524 . S
C1374 C1375 1.397 . S
C1374 C1379 1.363 . S
C1375 H1346 0.950 . S
C1375 C1374 1.397 . S
C1375 C1376 1.334 . S
C1376 H1347 0.950 . S
C1376 C1375 1.334 . S
C1376 C1377 1.287 . S
C1377 C1376 1.287 . S
C1377 C1378 1.524 . S
C1377 H1380 0.999 . S
C1378 H1348 0.950 . S
C1378 C1377 1.524 . S
C1378 C1379 1.415 . S
C1379 H1349 0.950 . S
C1379 C1374 1.363 . S
C1379 C1378 1.415 . S
H1380 C1377 0.999 . S
H1381 C1362 0.913 . S
H1382 C1400 0.951 . S
H1383 C1402 0.951 . S
H1384 C1404 0.950 . S
H1385 C1405 0.950 . S
H1386 C1407 0.950 . S
H1387 C1410 0.950 . S
H1388 C1411 0.950 . S
H1389 C1413 0.950 . S
H1390 C1414 0.950 . S
H1391 C1415 0.951 . S
H1392 C1417 0.951 . S
H1393 C1419 0.950 . S
H1394 C1420 0.950 . S
H1395 C1422 0.950 . S
H1396 C1425 0.950 . S
H1397 C1426 0.950 . S
H1398 C1428 0.950 . S
H1399 C1429 0.950 . S
C1400 H1382 0.951 . S
C1400 C1401 1.366 . S
C1400 C1402 1.388 . S
C1401 C1400 1.366 . S
C1401 C1405 1.385 . S
C1402 H1383 0.951 . S
C1402 C1400 1.388 . S
C1402 C1403 1.366 . S
C1403 C1402 1.366 . S
C1403 C1404 1.414 . S
C1403 C1406 1.499 . S
C1404 H1384 0.950 . S
C1404 C1403 1.414 . S
C1404 C1405 1.374 . S
C1405 H1385 0.950 . S
C1405 C1401 1.385 . S
C1405 C1404 1.374 . S
C1406 C1403 1.499 . S
C1406 C1407 1.373 . S
C1406 C1408 1.389 . S
C1407 H1386 0.950 . S
C1407 C1406 1.373 . S
C1407 C1423 1.377 . S
C1408 C1406 1.389 . S
C1408 C1409 1.524 . S
C1408 C1422 1.377 . S
C1409 C1408 1.524 . S
C1409 C1410 1.397 . S
C1409 C1414 1.363 . S
C1410 H1387 0.950 . S
C1410 C1409 1.397 . S
C1410 C1411 1.334 . S
C1411 H1388 0.950 . S
C1411 C1410 1.334 . S
C1411 C1412 1.287 . S
C1412 C1411 1.287 . S
C1412 C1413 1.524 . S
C1412 H1431 0.913 . S
C1413 H1389 0.950 . S
C1413 C1412 1.524 . S
C1413 C1414 1.415 . S
C1414 H1390 0.950 . S
C1414 C1409 1.363 . S
C1414 C1413 1.415 . S
C1415 H1391 0.951 . S
C1415 C1416 1.366 . S
C1415 C1417 1.388 . S
C1416 C1415 1.366 . S
C1416 C1420 1.385 . S
C1417 H1392 0.951 . S
C1417 C1415 1.388 . S
C1417 C1418 1.366 . S
C1418 C1417 1.366 . S
C1418 C1419 1.414 . S
C1418 C1421 1.499 . S
C1419 H1393 0.950 . S
C1419 C1418 1.414 . S
C1419 C1420 1.374 . S
C1420 H1394 0.950 . S
C1420 C1416 1.385 . S
C1420 C1419 1.374 . S
C1421 C1418 1.499 . S
C1421 C1422 1.373 . S
C1421 C1423 1.389 . S
C1422 H1395 0.950 . S
C1422 C1408 1.377 . S
C1422 C1421 1.373 . S
C1423 C1407 1.377 . S
C1423 C1421 1.389 . S
C1423 C1424 1.524 . S
C1424 C1423 1.524 . S
C1424 C1425 1.397 . S
C1424 C1429 1.363 . S
C1425 H1396 0.950 . S
C1425 C1424 1.397 . S
C1425 C1426 1.334 . S
C1426 H1397 0.950 . S
C1426 C1425 1.334 . S
C1426 C1427 1.287 . S
C1427 C1426 1.287 . S
C1427 C1428 1.524 . S
C1427 H1430 0.999 . S
C1428 H1398 0.950 . S
C1428 C1427 1.524 . S
C1428 C1429 1.415 . S
C1429 H1399 0.950 . S
C1429 C1424 1.363 . S
C1429 C1428 1.415 . S
H1430 C1427 0.999 . S
H1431 C1412 0.913 . S
H1432 C1450 0.951 . S
H1433 C1452 0.951 . S
H1434 C1454 0.950 . S
H1435 C1455 0.950 . S
H1436 C1457 0.950 . S
H1437 C1460 0.950 . S
H1438 C1461 0.950 . S
H1439 C1463 0.950 . S
H1440 C1464 0.950 . S
H1441 C1465 0.951 . S
H1442 C1467 0.951 . S
H1443 C1469 0.950 . S
H1444 C1470 0.950 . S
H1445 C1472 0.950 . S
H1446 C1475 0.950 . S
H1447 C1476 0.950 . S
H1448 C1478 0.950 . S
H1449 C1479 0.950 . S
C1450 H1432 0.951 . S
C1450 C1451 1.366 . S
C1450 C1452 1.388 . S
C1451 C1450 1.366 . S
C1451 C1455 1.385 . S
C1452 H1433 0.951 . S
C1452 C1450 1.388 . S
C1452 C1453 1.366 . S
C1453 C1452 1.366 . S
C1453 C1454 1.414 . S
C1453 C1456 1.499 . S
C1454 H1434 0.950 . S
C1454 C1453 1.414 . S
C1454 C1455 1.374 . S
C1455 H1435 0.950 . S
C1455 C1451 1.385 . S
C1455 C1454 1.374 . S
C1456 C1453 1.499 . S
C1456 C1457 1.373 . S
C1456 C1458 1.389 . S
C1457 H1436 0.950 . S
C1457 C1456 1.373 . S
C1457 C1473 1.377 . S
C1458 C1456 1.389 . S
C1458 C1459 1.524 . S
C1458 C1472 1.377 . S
C1459 C1458 1.524 . S
C1459 C1460 1.397 . S
C1459 C1464 1.363 . S
C1460 H1437 0.950 . S
C1460 C1459 1.397 . S
C1460 C1461 1.334 . S
C1461 H1438 0.950 . S
C1461 C1460 1.334 . S
C1461 C1462 1.287 . S
C1462 C1461 1.287 . S
C1462 C1463 1.524 . S
C1462 H1481 0.913 . S
C1463 H1439 0.950 . S
C1463 C1462 1.524 . S
C1463 C1464 1.415 . S
C1464 H1440 0.950 . S
C1464 C1459 1.363 . S
C1464 C1463 1.415 . S
C1465 H1441 0.951 . S
C1465 C1466 1.366 . S
C1465 C1467 1.388 . S
C1466 C1465 1.366 . S
C1466 C1470 1.385 . S
C1467 H1442 0.951 . S
C1467 C1465 1.388 . S
C1467 C1468 1.366 . S
C1468 C1467 1.366 . S
C1468 C1469 1.414 . S
C1468 C1471 1.499 . S
C1469 H1443 0.950 . S
C1469 C1468 1.414 . S
C1469 C1470 1.374 . S
C1470 H1444 0.950 . S
C1470 C1466 1.385 . S
C1470 C1469 1.374 . S
C1471 C1468 1.499 . S
C1471 C1472 1.373 . S
C1471 C1473 1.389 . S
C1472 H1445 0.950 . S
C1472 C1458 1.377 . S
C1472 C1471 1.373 . S
C1473 C1457 1.377 . S
C1473 C1471 1.389 . S
C1473 C1474 1.524 . S
C1474 C1473 1.524 . S
C1474 C1475 1.397 . S
C1474 C1479 1.363 . S
C1475 H1446 0.950 . S
C1475 C1474 1.397 . S
C1475 C1476 1.334 . S
C1476 H1447 0.950 . S
C1476 C1475 1.334 . S
C1476 C1477 1.287 . S
C1477 C1476 1.287 . S
C1477 C1478 1.524 . S
C1477 H1480 0.999 . S
C1478 H1448 0.950 . S
C1478 C1477 1.524 . S
C1478 C1479 1.415 . S
C1479 H1449 0.950 . S
C1479 C1474 1.363 . S
C1479 C1478 1.415 . S
H1480 C1477 0.999 . S
H1481 C1462 0.913 . S
H1482 C1500 0.951 . S
H1483 C1502 0.951 . S
H1484 C1504 0.950 . S
H1485 C1505 0.950 . S
H1486 C1507 0.950 . S
H1487 C1510 0.950 . S
H1488 C1511 0.950 . S
H1489 C1513 0.950 . S
H1490 C1514 0.950 . S
H1491 C1515 0.951 . S
H1492 C1517 0.951 . S
H1493 C1519 0.950 . S
H1494 C1520 0.950 . S
H1495 C1522 0.950 . S
H1496 C1525 0.950 . S
H1497 C1526 0.950 . S
H1498 C1528 0.950 . S
H1499 C1529 0.950 . S
C1500 H1482 0.951 . S
C1500 C1501 1.366 . S
C1500 C1502 1.388 . S
C1501 C1500 1.366 . S
C1501 C1505 1.385 . S
C1502 H1483 0.951 . S
C1502 C1500 1.388 . S
C1502 C1503 1.366 . S
C1503 C1502 1.366 . S
C1503 C1504 1.414 . S
C1503 C1506 1.499 . S
C1504 H1484 0.950 . S
C1504 C1503 1.414 . S
C1504 C1505 1.374 . S
C1505 H1485 0.950 . S
C1505 C1501 1.385 . S
C1505 C1504 1.374 . S
C1506 C1503 1.499 . S
C1506 C1507 1.373 . S
C1506 C1508 1.389 . S
C1507 H1486 0.950 . S
C1507 C1506 1.373 . S
C1507 C1523 1.377 . S
C1508 C1506 1.389 . S
C1508 C1509 1.524 . S
C1508 C1522 1.377 . S
C1509 C1508 1.524 . S
C1509 C1510 1.397 . S
C1509 C1514 1.363 . S
C1510 H1487 0.950 . S
C1510 C1509 1.397 . S
C1510 C1511 1.334 . S
C1511 H1488 0.950 . S
C1511 C1510 1.334 . S
C1511 C1512 1.287 . S
C1512 C1511 1.287 . S
C1512 C1513 1.524 . S
C1512 H1531 0.913 . S
C1513 H1489 0.950 . S
C1513 C1512 1.524 . S
C1513 C1514 1.415 . S
C1514 H1490 0.950 . S
C1514 C1509 1.363 . S
C1514 C1513 1.415 . S
C1515 H1491 0.951 . S
C1515 C1516 1.366 . S
C1515 C1517 1.388 . S
C1516 C1515 1.366 . S
C1516 C1520 1.385 . S
C1517 H1492 0.951 . S
C1517 C1515 1.388 . S
C1517 C1518 1.366 . S
C1518 C1517 1.366 . S
C1518 C1519 1.414 . S
C1518 C1521 1.499 . S
C1519 H1493 0.950 . S
C1519 C1518 1.414 . S
C1519 C1520 1.374 . S
C1520 H1494 0.950 . S
C1520 C1516 1.385 . S
C1520 C1519 1.374 . S
C1521 C1518 1.499 . S
C1521 C1522 1.373 . S
C1521 C1523 1.389 . S
C1522 H1495 0.950 . S
C1522 C1508 1.377 . S
C1522 C1521 1.373 . S
C1523 C1507 1.377 . S
C1523 C1521 1.389 . S
C1523 C1524 1.524 . S
C1524 C1523 1.524 . S
C1524 C1525 1.397 . S
C1524 C1529 1.363 . S
C1525 H1496 0.950 . S
C1525 C1524 1.397 . S
C1525 C1526 1.334 . S
C1526 H1497 0.950 . S
C1526 C1525 1.334 . S
C1526 C1527 1.287 . S
C1527 C1526 1.287 . S
C1527 C1528 1.524 . S
C1527 H1530 0.999 . S
C1528 H1498 0.950 . S
C1528 C1527 1.524 . S
C1528 C1529 1.415 . S
C1529 H1499 0.950 . S
C1529 C1524 1.363 . S
C1529 C1528 1.415 . S
H1530 C1527 0.999 . S
H1531 C1512 0.913 . S
H1532 C1550 0.951 . S
H1533 C1552 0.951 . S
H1534 C1554 0.950 . S
H1535 C1555 0.950 . S
H1536 C1557 0.950 . S
H1537 C1560 0.950 . S
H1538 C1561 0.950 . S
H1539 C1563 0.950 . S
H1540 C1564 0.950 . S
H1541 C1565 0.951 . S
H1542 C1567 0.951 . S
H1543 C1569 0.950 . S
H1544 C1570 0.950 . S
H1545 C1572 0.950 . S
H1546 C1575 0.950 . S
H1547 C1576 0.950 . S
H1548 C1578 0.950 . S
H1549 C1579 0.950 . S
C1550 H1532 0.951 . S
C1550 C1551 1.366 . S
C1550 C1552 1.388 . S
C1551 C1550 1.366 . S
C1551 C1555 1.385 . S
C1552 H1533 0.951 . S
C1552 C1550 1.388 . S
C1552 C1553 1.366 . S
C1553 C1552 1.366 . S
C1553 C1554 1.414 . S
C1553 C1556 1.499 . S
C1554 H1534 0.950 . S
C1554 C1553 1.414 . S
C1554 C1555 1.374 . S
C1555 H1535 0.950 . S
C1555 C1551 1.385 . S
C1555 C1554 1.374 . S
C1556 C1553 1.499 . S
C1556 C1557 1.373 . S
C1556 C1558 1.389 . S
C1557 H1536 0.950 . S
C1557 C1556 1.373 . S
C1557 C1573 1.377 . S
C1558 C1556 1.389 . S
C1558 C1559 1.524 . S
C1558 C1572 1.377 . S
C1559 C1558 1.524 . S
C1559 C1560 1.397 . S
C1559 C1564 1.363 . S
C1560 H1537 0.950 . S
C1560 C1559 1.397 . S
C1560 C1561 1.334 . S
C1561 H1538 0.950 . S
C1561 C1560 1.334 . S
C1561 C1562 1.287 . S
C1562 C1561 1.287 . S
C1562 C1563 1.524 . S
C1562 H1581 0.913 . S
C1563 H1539 0.950 . S
C1563 C1562 1.524 . S
C1563 C1564 1.415 . S
C1564 H1540 0.950 . S
C1564 C1559 1.363 . S
C1564 C1563 1.415 . S
C1565 H1541 0.951 . S
C1565 C1566 1.366 . S
C1565 C1567 1.388 . S
C1566 C1565 1.366 . S
C1566 C1570 1.385 . S
C1567 H1542 0.951 . S
C1567 C1565 1.388 . S
C1567 C1568 1.366 . S
C1568 C1567 1.366 . S
C1568 C1569 1.414 . S
C1568 C1571 1.499 . S
C1569 H1543 0.950 . S
C1569 C1568 1.414 . S
C1569 C1570 1.374 . S
C1570 H1544 0.950 . S
C1570 C1566 1.385 . S
C1570 C1569 1.374 . S
C1571 C1568 1.499 . S
C1571 C1572 1.373 . S
C1571 C1573 1.389 . S
C1572 H1545 0.950 . S
C1572 C1558 1.377 . S
C1572 C1571 1.373 . S
C1573 C1557 1.377 . S
C1573 C1571 1.389 . S
C1573 C1574 1.524 . S
C1574 C1573 1.524 . S
C1574 C1575 1.397 . S
C1574 C1579 1.363 . S
C1575 H1546 0.950 . S
C1575 C1574 1.397 . S
C1575 C1576 1.334 . S
C1576 H1547 0.950 . S
C1576 C1575 1.334 . S
C1576 C1577 1.287 . S
C1577 C1576 1.287 . S
C1577 C1578 1.524 . S
C1577 H1580 0.999 . S
C1578 H1548 0.950 . S
C1578 C1577 1.524 . S
C1578 C1579 1.415 . S
C1579 H1549 0.950 . S
C1579 C1574 1.363 . S
C1579 C1578 1.415 . S
H1580 C1577 0.999 . S
H1581 C1562 0.913 . S
H1582 C1600 0.951 . S
H1583 C1602 0.951 . S
H1584 C1604 0.950 . S
H1585 C1605 0.950 . S
H1586 C1607 0.950 . S
H1587 C1610 0.950 . S
H1588 C1611 0.950 . S
H1589 C1613 0.950 . S
H1590 C1614 0.950 . S
H1591 C1615 0.951 . S
H1592 C1617 0.951 . S
H1593 C1619 0.950 . S
H1594 C1620 0.950 . S
H1595 C1622 0.950 . S
H1596 C1625 0.950 . S
H1597 C1626 0.950 . S
H1598 C1628 0.950 . S
H1599 C1629 0.950 1_545 S
C1600 H1582 0.951 . S
C1600 C1601 1.366 . S
C1600 C1602 1.388 . S
C1601 C1600 1.366 . S
C1601 C1605 1.385 . S
C1602 H1583 0.951 . S
C1602 C1600 1.388 . S
C1602 C1603 1.366 . S
C1603 C1602 1.366 . S
C1603 C1604 1.414 . S
C1603 C1606 1.499 . S
C1604 H1584 0.950 . S
C1604 C1603 1.414 . S
C1604 C1605 1.374 . S
C1605 H1585 0.950 . S
C1605 C1601 1.385 . S
C1605 C1604 1.374 . S
C1606 C1603 1.499 . S
C1606 C1607 1.373 . S
C1606 C1608 1.389 . S
C1607 H1586 0.950 . S
C1607 C1606 1.373 . S
C1607 C1623 1.377 . S
C1608 C1606 1.389 . S
C1608 C1609 1.524 . S
C1608 C1622 1.377 . S
C1609 C1608 1.524 . S
C1609 C1610 1.397 . S
C1609 C1614 1.363 . S
C1610 H1587 0.950 . S
C1610 C1609 1.397 . S
C1610 C1611 1.334 . S
C1611 H1588 0.950 . S
C1611 C1610 1.334 . S
C1611 C1612 1.287 . S
C1612 C1611 1.287 . S
C1612 C1613 1.524 . S
C1612 H1631 0.913 . S
C1613 H1589 0.950 . S
C1613 C1612 1.524 . S
C1613 C1614 1.415 . S
C1614 H1590 0.950 . S
C1614 C1609 1.363 . S
C1614 C1613 1.415 . S
C1615 H1591 0.951 . S
C1615 C1616 1.366 . S
C1615 C1617 1.388 . S
C1616 C1615 1.366 . S
C1616 C1620 1.385 . S
C1617 H1592 0.951 . S
C1617 C1615 1.388 . S
C1617 C1618 1.366 . S
C1618 C1617 1.366 . S
C1618 C1619 1.414 . S
C1618 C1621 1.499 . S
C1619 H1593 0.950 . S
C1619 C1618 1.414 . S
C1619 C1620 1.374 . S
C1620 H1594 0.950 . S
C1620 C1616 1.385 . S
C1620 C1619 1.374 . S
C1621 C1618 1.499 . S
C1621 C1622 1.373 . S
C1621 C1623 1.389 . S
C1622 H1595 0.950 . S
C1622 C1608 1.377 . S
C1622 C1621 1.373 . S
C1623 C1607 1.377 . S
C1623 C1621 1.389 . S
C1623 C1624 1.524 1_545 S
C1624 C1623 1.524 1_565 S
C1624 C1625 1.397 . S
C1624 C1629 1.363 . S
C1625 H1596 0.950 . S
C1625 C1624 1.397 . S
C1625 C1626 1.334 . S
C1626 H1597 0.950 . S
C1626 C1625 1.334 . S
C1626 C1627 1.287 . S
C1627 C1626 1.287 . S
C1627 C1628 1.524 . S
C1627 H1630 0.999 . S
C1628 H1598 0.950 . S
C1628 C1627 1.524 . S
C1628 C1629 1.415 . S
C1629 H1599 0.950 1_565 S
C1629 C1624 1.363 . S
C1629 C1628 1.415 . S
H1630 C1627 0.999 . S
H1631 C1612 0.913 . S
H1632 C1650 0.951 . S
H1633 C1652 0.951 . S
H1634 C1654 0.950 . S
H1635 C1655 0.950 . S
H1636 C1657 0.950 . S
H1637 C1660 0.950 . S
H1638 C1661 0.950 . S
H1639 C1663 0.950 . S
H1640 C1664 0.950 . S
H1641 C1665 0.951 . S
H1642 C1667 0.951 . S
H1643 C1669 0.950 . S
H1644 C1670 0.950 . S
H1645 C1672 0.950 . S
H1646 C1675 0.950 . S
H1647 C1676 0.950 . S
H1648 C1678 0.950 . S
H1649 C1679 0.950 . S
C1650 H1632 0.951 . S
C1650 C1651 1.366 . S
C1650 C1652 1.388 . S
C1651 C1650 1.366 . S
C1651 C1655 1.385 . S
C1652 H1633 0.951 . S
C1652 C1650 1.388 . S
C1652 C1653 1.366 . S
C1653 C1652 1.366 . S
C1653 C1654 1.414 . S
C1653 C1656 1.499 . S
C1654 H1634 0.950 . S
C1654 C1653 1.414 . S
C1654 C1655 1.374 . S
C1655 H1635 0.950 . S
C1655 C1651 1.385 . S
C1655 C1654 1.374 . S
C1656 C1653 1.499 . S
C1656 C1657 1.373 . S
C1656 C1658 1.389 . S
C1657 H1636 0.950 . S
C1657 C1656 1.373 . S
C1657 C1673 1.377 . S
C1658 C1656 1.389 . S
C1658 C1659 1.524 . S
C1658 C1672 1.377 . S
C1659 C1658 1.524 . S
C1659 C1660 1.397 . S
C1659 C1664 1.363 . S
C1660 H1637 0.950 . S
C1660 C1659 1.397 . S
C1660 C1661 1.334 . S
C1661 H1638 0.950 . S
C1661 C1660 1.334 . S
C1661 C1662 1.287 . S
C1662 C1661 1.287 . S
C1662 C1663 1.524 . S
C1662 H1681 0.913 . S
C1663 H1639 0.950 . S
C1663 C1662 1.524 . S
C1663 C1664 1.415 . S
C1664 H1640 0.950 . S
C1664 C1659 1.363 . S
C1664 C1663 1.415 . S
C1665 H1641 0.951 . S
C1665 C1666 1.366 . S
C1665 C1667 1.388 . S
C1666 C1665 1.366 . S
C1666 C1670 1.385 . S
C1667 H1642 0.951 . S
C1667 C1665 1.388 . S
C1667 C1668 1.366 . S
C1668 C1667 1.366 . S
C1668 C1669 1.414 . S
C1668 C1671 1.499 . S
C1669 H1643 0.950 . S
C1669 C1668 1.414 . S
C1669 C1670 1.374 . S
C1670 H1644 0.950 . S
C1670 C1666 1.385 . S
C1670 C1669 1.374 . S
C1671 C1668 1.499 . S
C1671 C1672 1.373 . S
C1671 C1673 1.389 . S
C1672 H1645 0.950 . S
C1672 C1658 1.377 . S
C1672 C1671 1.373 . S
C1673 C1657 1.377 . S
C1673 C1671 1.389 . S
C1673 C1674 1.524 . S
C1674 C1673 1.524 . S
C1674 C1675 1.397 . S
C1674 C1679 1.363 . S
C1675 H1646 0.950 . S
C1675 C1674 1.397 . S
C1675 C1676 1.334 . S
C1676 H1647 0.950 . S
C1676 C1675 1.334 . S
C1676 C1677 1.287 . S
C1677 C1676 1.287 . S
C1677 C1678 1.524 . S
C1677 H1680 0.999 . S
C1678 H1648 0.950 . S
C1678 C1677 1.524 . S
C1678 C1679 1.415 . S
C1679 H1649 0.950 . S
C1679 C1674 1.363 . S
C1679 C1678 1.415 . S
H1680 C1677 0.999 . S
H1681 C1662 0.913 . S
H1682 C1700 0.951 . S
H1683 C1702 0.951 . S
H1684 C1704 0.950 . S
H1685 C1705 0.950 . S
H1686 C1707 0.950 . S
H1687 C1710 0.950 . S
H1688 C1711 0.950 . S
H1689 C1713 0.950 . S
H1690 C1714 0.950 . S
H1691 C1715 0.951 . S
H1692 C1717 0.951 . S
H1693 C1719 0.950 . S
H1694 C1720 0.950 . S
H1695 C1722 0.950 . S
H1696 C1725 0.950 . S
H1697 C1726 0.950 . S
H1698 C1728 0.950 . S
H1699 C1729 0.950 . S
C1700 H1682 0.951 . S
C1700 C1701 1.366 . S
C1700 C1702 1.388 . S
C1701 C1700 1.366 . S
C1701 C1705 1.385 . S
C1702 H1683 0.951 . S
C1702 C1700 1.388 . S
C1702 C1703 1.366 . S
C1703 C1702 1.366 . S
C1703 C1704 1.414 . S
C1703 C1706 1.499 . S
C1704 H1684 0.950 . S
C1704 C1703 1.414 . S
C1704 C1705 1.374 . S
C1705 H1685 0.950 . S
C1705 C1701 1.385 . S
C1705 C1704 1.374 . S
C1706 C1703 1.499 . S
C1706 C1707 1.373 . S
C1706 C1708 1.389 . S
C1707 H1686 0.950 . S
C1707 C1706 1.373 . S
C1707 C1723 1.377 . S
C1708 C1706 1.389 . S
C1708 C1709 1.524 . S
C1708 C1722 1.377 . S
C1709 C1708 1.524 . S
C1709 C1710 1.397 . S
C1709 C1714 1.363 . S
C1710 H1687 0.950 . S
C1710 C1709 1.397 . S
C1710 C1711 1.334 . S
C1711 H1688 0.950 . S
C1711 C1710 1.334 . S
C1711 C1712 1.287 . S
C1712 C1711 1.287 . S
C1712 C1713 1.524 . S
C1712 H1731 0.913 . S
C1713 H1689 0.950 . S
C1713 C1712 1.524 . S
C1713 C1714 1.415 . S
C1714 H1690 0.950 . S
C1714 C1709 1.363 . S
C1714 C1713 1.415 . S
C1715 H1691 0.951 . S
C1715 C1716 1.366 . S
C1715 C1717 1.388 . S
C1716 C1715 1.366 . S
C1716 C1720 1.385 . S
C1717 H1692 0.951 . S
C1717 C1715 1.388 . S
C1717 C1718 1.366 . S
C1718 C1717 1.366 . S
C1718 C1719 1.414 . S
C1718 C1721 1.499 . S
C1719 H1693 0.950 . S
C1719 C1718 1.414 . S
C1719 C1720 1.374 . S
C1720 H1694 0.950 . S
C1720 C1716 1.385 . S
C1720 C1719 1.374 . S
C1721 C1718 1.499 . S
C1721 C1722 1.373 . S
C1721 C1723 1.389 . S
C1722 H1695 0.950 . S
C1722 C1708 1.377 . S
C1722 C1721 1.373 . S
C1723 C1707 1.377 . S
C1723 C1721 1.389 . S
C1723 C1724 1.524 . S
C1724 C1723 1.524 . S
C1724 C1725 1.397 . S
C1724 C1729 1.363 . S
C1725 H1696 0.950 . S
C1725 C1724 1.397 . S
C1725 C1726 1.334 . S
C1726 H1697 0.950 . S
C1726 C1725 1.334 . S
C1726 C1727 1.287 . S
C1727 C1726 1.287 . S
C1727 C1728 1.524 . S
C1727 H1730 0.999 . S
C1728 H1698 0.950 . S
C1728 C1727 1.524 . S
C1728 C1729 1.415 . S
C1729 H1699 0.950 . S
C1729 C1724 1.363 . S
C1729 C1728 1.415 . S
H1730 C1727 0.999 . S
H1731 C1712 0.913 . S
H1732 C1750 0.951 . S
H1733 C1752 0.951 . S
H1734 C1754 0.950 . S
H1735 C1755 0.950 . S
H1736 C1757 0.950 . S
H1737 C1760 0.950 . S
H1738 C1761 0.950 . S
H1739 C1763 0.950 . S
H1740 C1764 0.950 . S
H1741 C1765 0.951 . S
H1742 C1767 0.951 . S
H1743 C1769 0.950 . S
H1744 C1770 0.950 . S
H1745 C1772 0.950 . S
H1746 C1775 0.950 . S
H1747 C1776 0.950 . S
H1748 C1778 0.950 . S
H1749 C1779 0.950 . S
C1750 H1732 0.951 . S
C1750 C1751 1.366 . S
C1750 C1752 1.388 . S
C1751 C1750 1.366 . S
C1751 C1755 1.385 . S
C1752 H1733 0.951 . S
C1752 C1750 1.388 . S
C1752 C1753 1.366 . S
C1753 C1752 1.366 . S
C1753 C1754 1.414 . S
C1753 C1756 1.499 . S
C1754 H1734 0.950 . S
C1754 C1753 1.414 . S
C1754 C1755 1.374 . S
C1755 H1735 0.950 . S
C1755 C1751 1.385 . S
C1755 C1754 1.374 . S
C1756 C1753 1.499 . S
C1756 C1757 1.373 . S
C1756 C1758 1.389 . S
C1757 H1736 0.950 . S
C1757 C1756 1.373 . S
C1757 C1773 1.377 . S
C1758 C1756 1.389 . S
C1758 C1759 1.524 . S
C1758 C1772 1.377 . S
C1759 C1758 1.524 . S
C1759 C1760 1.397 . S
C1759 C1764 1.363 . S
C1760 H1737 0.950 . S
C1760 C1759 1.397 . S
C1760 C1761 1.334 . S
C1761 H1738 0.950 . S
C1761 C1760 1.334 . S
C1761 C1762 1.287 . S
C1762 C1761 1.287 . S
C1762 C1763 1.524 . S
C1762 H1781 0.913 . S
C1763 H1739 0.950 . S
C1763 C1762 1.524 . S
C1763 C1764 1.415 . S
C1764 H1740 0.950 . S
C1764 C1759 1.363 . S
C1764 C1763 1.415 . S
C1765 H1741 0.951 . S
C1765 C1766 1.366 . S
C1765 C1767 1.388 . S
C1766 C1765 1.366 . S
C1766 C1770 1.385 . S
C1767 H1742 0.951 . S
C1767 C1765 1.388 . S
C1767 C1768 1.366 . S
C1768 C1767 1.366 . S
C1768 C1769 1.414 . S
C1768 C1771 1.499 . S
C1769 H1743 0.950 . S
C1769 C1768 1.414 . S
C1769 C1770 1.374 . S
C1770 H1744 0.950 . S
C1770 C1766 1.385 . S
C1770 C1769 1.374 . S
C1771 C1768 1.499 . S
C1771 C1772 1.373 . S
C1771 C1773 1.389 . S
C1772 H1745 0.950 . S
C1772 C1758 1.377 . S
C1772 C1771 1.373 . S
C1773 C1757 1.377 . S
C1773 C1771 1.389 . S
C1773 C1774 1.524 . S
C1774 C1773 1.524 . S
C1774 C1775 1.397 . S
C1774 C1779 1.363 . S
C1775 H1746 0.950 . S
C1775 C1774 1.397 . S
C1775 C1776 1.334 . S
C1776 H1747 0.950 . S
C1776 C1775 1.334 . S
C1776 C1777 1.287 . S
C1777 C1776 1.287 . S
C1777 C1778 1.524 . S
C1777 H1780 0.999 . S
C1778 H1748 0.950 . S
C1778 C1777 1.524 . S
C1778 C1779 1.415 . S
C1779 H1749 0.950 . S
C1779 C1774 1.363 . S
C1779 C1778 1.415 . S
H1780 C1777 0.999 . S
H1781 C1762 0.913 . S
H1782 C1800 0.951 . S
H1783 C1802 0.951 . S
H1784 C1804 0.950 . S
H1785 C1805 0.950 . S
H1786 C1807 0.950 . S
H1787 C1810 0.950 . S
H1788 C1811 0.950 . S
H1789 C1813 0.950 . S
H1790 C1814 0.950 . S
H1791 C1815 0.951 . S
H1792 C1817 0.951 . S
H1793 C1819 0.950 . S
H1794 C1820 0.950 . S
H1795 C1822 0.950 . S
H1796 C1825 0.950 . S
H1797 C1826 0.950 . S
H1798 C1828 0.950 . S
H1799 C1829 0.950 . S
C1800 H1782 0.951 . S
C1800 C1801 1.366 . S
C1800 C1802 1.388 . S
C1801 C1800 1.366 . S
C1801 C1805 1.385 . S
C1802 H1783 0.951 . S
C1802 C1800 1.388 . S
C1802 C1803 1.366 . S
C1803 C1802 1.366 . S
C1803 C1804 1.414 . S
C1803 C1806 1.499 . S
C1804 H1784 0.950 . S
C1804 C1803 1.414 . S
C1804 C1805 1.374 . S
C1805 H1785 0.950 . S
C1805 C1801 1.385 . S
C1805 C1804 1.374 . S
C1806 C1803 1.499 . S
C1806 C1807 1.373 . S
C1806 C1808 1.389 1_455 S
C1807 H1786 0.950 . S
C1807 C1806 1.373 . S
C1807 C1823 1.377 . S
C1808 C1806 1.389 1_655 S
C1808 C1809 1.524 . S
C1808 C1822 1.377 . S
C1809 C1808 1.524 . S
C1809 C1810 1.397 . S
C1809 C1814 1.363 . S
C1810 H1787 0.950 . S
C1810 C1809 1.397 . S
C1810 C1811 1.334 . S
C1811 H1788 0.950 . S
C1811 C1810 1.334 . S
C1811 C1812 1.287 . S
C1812 C1811 1.287 . S
C1812 C1813 1.524 . S
C1812 H1831 0.913 . S
C1813 H1789 0.950 . S
C1813 C1812 1.524 . S
C1813 C1814 1.415 . S
C1814 H1790 0.950 . S
C1814 C1809 1.363 . S
C1814 C1813 1.415 . S
C1815 H1791 0.951 . S
C1815 C1816 1.366 . S
C1815 C1817 1.388 . S
C1816 C1815 1.366 . S
C1816 C1820 1.385 . S
C1817 H1792 0.951 . S
C1817 C1815 1.388 . S
C1817 C1818 1.366 . S
C1818 C1817 1.366 . S
C1818 C1819 1.414 . S
C1818 C1821 1.499 . S
C1819 H1793 0.950 . S
C1819 C1818 1.414 . S
C1819 C1820 1.374 . S
C1820 H1794 0.950 . S
C1820 C1816 1.385 . S
C1820 C1819 1.374 . S
C1821 C1818 1.499 . S
C1821 C1822 1.373 . S
C1821 C1823 1.389 1_655 S
C1822 H1795 0.950 . S
C1822 C1808 1.377 . S
C1822 C1821 1.373 . S
C1823 C1807 1.377 . S
C1823 C1821 1.389 1_455 S
C1823 C1824 1.524 . S
C1824 C1823 1.524 . S
C1824 C1825 1.397 . S
C1824 C1829 1.363 . S
C1825 H1796 0.950 . S
C1825 C1824 1.397 . S
C1825 C1826 1.334 . S
C1826 H1797 0.950 . S
C1826 C1825 1.334 . S
C1826 C1827 1.287 . S
C1827 C1826 1.287 . S
C1827 C1828 1.524 . S
C1827 H1830 0.999 . S
C1828 H1798 0.950 . S
C1828 C1827 1.524 . S
C1828 C1829 1.415 . S
C1829 H1799 0.950 . S
C1829 C1824 1.363 . S
C1829 C1828 1.415 . S
H1830 C1827 0.999 . S
H1831 C1812 0.913 . S
H1832 C1850 0.951 . S
H1833 C1852 0.951 . S
H1834 C1854 0.950 . S
H1835 C1855 0.950 . S
H1836 C1857 0.950 . S
H1837 C1860 0.950 . S
H1838 C1861 0.950 . S
H1839 C1863 0.950 . S
H1840 C1864 0.950 . S
H1841 C1865 0.951 . S
H1842 C1867 0.951 . S
H1843 C1869 0.950 . S
H1844 C1870 0.950 . S
H1845 C1872 0.950 . S
H1846 C1875 0.950 . S
H1847 C1876 0.950 . S
H1848 C1878 0.950 . S
H1849 C1879 0.950 . S
C1850 H1832 0.951 . S
C1850 C1851 1.366 . S
C1850 C1852 1.388 . S
C1851 C1850 1.366 . S
C1851 C1855 1.385 . S
C1852 H1833 0.951 . S
C1852 C1850 1.388 . S
C1852 C1853 1.366 . S
C1853 C1852 1.366 . S
C1853 C1854 1.414 . S
C1853 C1856 1.499 . S
C1854 H1834 0.950 . S
C1854 C1853 1.414 . S
C1854 C1855 1.374 . S
C1855 H1835 0.950 . S
C1855 C1851 1.385 . S
C1855 C1854 1.374 . S
C1856 C1853 1.499 . S
C1856 C1857 1.373 . S
C1856 C1858 1.389 . S
C1857 H1836 0.950 . S
C1857 C1856 1.373 . S
C1857 C1873 1.377 . S
C1858 C1856 1.389 . S
C1858 C1859 1.524 . S
C1858 C1872 1.377 . S
C1859 C1858 1.524 . S
C1859 C1860 1.397 . S
C1859 C1864 1.363 . S
C1860 H1837 0.950 . S
C1860 C1859 1.397 . S
C1860 C1861 1.334 . S
C1861 H1838 0.950 . S
C1861 C1860 1.334 . S
C1861 C1862 1.287 . S
C1862 C1861 1.287 . S
C1862 C1863 1.524 . S
C1862 H1881 0.913 . S
C1863 H1839 0.950 . S
C1863 C1862 1.524 . S
C1863 C1864 1.415 . S
C1864 H1840 0.950 . S
C1864 C1859 1.363 . S
C1864 C1863 1.415 . S
C1865 H1841 0.951 . S
C1865 C1866 1.366 . S
C1865 C1867 1.388 . S
C1866 C1865 1.366 . S
C1866 C1870 1.385 . S
C1867 H1842 0.951 . S
C1867 C1865 1.388 . S
C1867 C1868 1.366 . S
C1868 C1867 1.366 . S
C1868 C1869 1.414 . S
C1868 C1871 1.499 . S
C1869 H1843 0.950 . S
C1869 C1868 1.414 . S
C1869 C1870 1.374 . S
C1870 H1844 0.950 . S
C1870 C1866 1.385 . S
C1870 C1869 1.374 . S
C1871 C1868 1.499 . S
C1871 C1872 1.373 . S
C1871 C1873 1.389 . S
C1872 H1845 0.950 . S
C1872 C1858 1.377 . S
C1872 C1871 1.373 . S
C1873 C1857 1.377 . S
C1873 C1871 1.389 . S
C1873 C1874 1.524 . S
C1874 C1873 1.524 . S
C1874 C1875 1.397 . S
C1874 C1879 1.363 . S
C1875 H1846 0.950 . S
C1875 C1874 1.397 . S
C1875 C1876 1.334 . S
C1876 H1847 0.950 . S
C1876 C1875 1.334 . S
C1876 C1877 1.287 . S
C1877 C1876 1.287 . S
C1877 C1878 1.524 . S
C1877 H1880 0.999 . S
C1878 H1848 0.950 . S
C1878 C1877 1.524 . S
C1878 C1879 1.415 . S
C1879 H1849 0.950 . S
C1879 C1874 1.363 . S
C1879 C1878 1.415 . S
H1880 C1877 0.999 . S
H1881 C1862 0.913 . S
H1882 C1900 0.951 1_655 S
H1883 C1902 0.951 . S
H1884 C1904 0.950 . S
H1885 C1905 0.950 . S
H1886 C1907 0.950 . S
H1887 C1910 0.950 . S
H1888 C1911 0.950 . S
H1889 C1913 0.950 . S
H1890 C1914 0.950 . S
H1891 C1915 0.951 . S
H1892 C1917 0.951 . S
H1893 C1919 0.950 . S
H1894 C1920 0.950 . S
H1895 C1922 0.950 . S
H1896 C1925 0.950 . S
H1897 C1926 0.950 . S
H1898 C1928 0.950 . S
H1899 C1929 0.950 . S
C1900 H1882 0.951 1_455 S
C1900 C1901 1.366 . S
C1900 C1902 1.388 . S
C1901 C1900 1.366 . S
C1901 C1905 1.385 . S
C1902 H1883 0.951 . S
C1902 C1900 1.388 . S
C1902 C1903 1.366 . S
C1903 C1902 1.366 . S
C1903 C1904 1.414 . S
C1903 C1906 1.499 . S
C1904 H1884 0.950 . S
C1904 C1903 1.414 . S
C1904 C1905 1.374 . S
C1905 H1885 0.950 . S
C1905 C1901 1.385 . S
C1905 C1904 1.374 . S
C1906 C1903 1.499 . S
C1906 C1907 1.373 . S
C1906 C1908 1.389 . S
C1907 H1886 0.950 . S
C1907 C1906 1.373 . S
C1907 C1923 1.377 . S
C1908 C1906 1.389 . S
C1908 C1909 1.524 . S
C1908 C1922 1.377 . S
C1909 C1908 1.524 . S
C1909 C1910 1.397 . S
C1909 C1914 1.363 . S
C1910 H1887 0.950 . S
C1910 C1909 1.397 . S
C1910 C1911 1.334 . S
C1911 H1888 0.950 . S
C1911 C1910 1.334 . S
C1911 C1912 1.287 . S
C1912 C1911 1.287 . S
C1912 C1913 1.524 . S
C1912 H1931 0.913 . S
C1913 H1889 0.950 . S
C1913 C1912 1.524 . S
C1913 C1914 1.415 . S
C1914 H1890 0.950 . S
C1914 C1909 1.363 . S
C1914 C1913 1.415 . S
C1915 H1891 0.951 . S
C1915 C1916 1.366 . S
C1915 C1917 1.388 . S
C1916 C1915 1.366 . S
C1916 C1920 1.385 . S
C1917 H1892 0.951 . S
C1917 C1915 1.388 . S
C1917 C1918 1.366 . S
C1918 C1917 1.366 . S
C1918 C1919 1.414 . S
C1918 C1921 1.499 . S
C1919 H1893 0.950 . S
C1919 C1918 1.414 . S
C1919 C1920 1.374 . S
C1920 H1894 0.950 . S
C1920 C1916 1.385 . S
C1920 C1919 1.374 . S
C1921 C1918 1.499 . S
C1921 C1922 1.373 . S
C1921 C1923 1.389 . S
C1922 H1895 0.950 . S
C1922 C1908 1.377 . S
C1922 C1921 1.373 . S
C1923 C1907 1.377 . S
C1923 C1921 1.389 . S
C1923 C1924 1.524 . S
C1924 C1923 1.524 . S
C1924 C1925 1.397 . S
C1924 C1929 1.363 . S
C1925 H1896 0.950 . S
C1925 C1924 1.397 . S
C1925 C1926 1.334 . S
C1926 H1897 0.950 . S
C1926 C1925 1.334 . S
C1926 C1927 1.287 . S
C1927 C1926 1.287 . S
C1927 C1928 1.524 . S
C1927 H1930 0.999 . S
C1928 H1898 0.950 . S
C1928 C1927 1.524 . S
C1928 C1929 1.415 . S
C1929 H1899 0.950 . S
C1929 C1924 1.363 . S
C1929 C1928 1.415 . S
H1930 C1927 0.999 . S
H1931 C1912 0.913 . S
H1932 C1950 0.951 . S
H1933 C1952 0.951 . S
H1934 C1954 0.950 . S
H1935 C1955 0.950 . S
H1936 C1957 0.950 . S
H1937 C1960 0.950 . S
H1938 C1961 0.950 . S
H1939 C1963 0.950 . S
H1940 C1964 0.950 . S
H1941 C1965 0.951 . S
H1942 C1967 0.951 . S
H1943 C1969 0.950 . S
H1944 C1970 0.950 . S
H1945 C1972 0.950 . S
H1946 C1975 0.950 . S
H1947 C1976 0.950 . S
H1948 C1978 0.950 . S
H1949 C1979 0.950 . S
C1950 H1932 0.951 . S
C1950 C1951 1.366 . S
C1950 C1952 1.388 . S
C1951 C1950 1.366 . S
C1951 C1955 1.385 . S
C1952 H1933 0.951 . S
C1952 C1950 1.388 . S
C1952 C1953 1.366 . S
C1953 C1952 1.366 . S
C1953 C1954 1.414 . S
C1953 C1956 1.499 . S
C1954 H1934 0.950 . S
C1954 C1953 1.414 . S
C1954 C1955 1.374 . S
C1955 H1935 0.950 . S
C1955 C1951 1.385 . S
C1955 C1954 1.374 . S
C1956 C1953 1.499 . S
C1956 C1957 1.373 . S
C1956 C1958 1.389 . S
C1957 H1936 0.950 . S
C1957 C1956 1.373 . S
C1957 C1973 1.377 . S
C1958 C1956 1.389 . S
C1958 C1959 1.524 . S
C1958 C1972 1.377 . S
C1959 C1958 1.524 . S
C1959 C1960 1.397 . S
C1959 C1964 1.363 . S
C1960 H1937 0.950 . S
C1960 C1959 1.397 . S
C1960 C1961 1.334 . S
C1961 H1938 0.950 . S
C1961 C1960 1.334 . S
C1961 C1962 1.287 . S
C1962 C1961 1.287 . S
C1962 C1963 1.524 . S
C1962 H1981 0.913 . S
C1963 H1939 0.950 . S
C1963 C1962 1.524 . S
C1963 C1964 1.415 . S
C1964 H1940 0.950 . S
C1964 C1959 1.363 . S
C1964 C1963 1.415 . S
C1965 H1941 0.951 . S
C1965 C1966 1.366 . S
C1965 C1967 1.388 . S
C1966 C1965 1.366 . S
C1966 C1970 1.385 . S
C1967 H1942 0.951 . S
C1967 C1965 1.388 . S
C1967 C1968 1.366 . S
C1968 C1967 1.366 . S
C1968 C1969 1.414 . S
C1968 C1971 1.499 . S
C1969 H1943 0.950 . S
C1969 C1968 1.414 . S
C1969 C1970 1.374 . S
C1970 H1944 0.950 . S
C1970 C1966 1.385 . S
C1970 C1969 1.374 . S
C1971 C1968 1.499 . S
C1971 C1972 1.373 . S
C1971 C1973 1.389 . S
C1972 H1945 0.950 . S
C1972 C1958 1.377 . S
C1972 C1971 1.373 . S
C1973 C1957 1.377 . S
C1973 C1971 1.389 . S
C1973 C1974 1.524 . S
C1974 C1973 1.524 . S
C1974 C1975 1.397 . S
C1974 C1979 1.363 . S
C1975 H1946 0.950 . S
C1975 C1974 1.397 . S
C1975 C1976 1.334 . S
C1976 H1947 0.950 . S
C1976 C1975 1.334 . S
C1976 C1977 1.287 . S
C1977 C1976 1.287 . S
C1977 C1978 1.524 . S
C1977 H1980 0.999 . S
C1978 H1948 0.950 . S
C1978 C1977 1.524 . S
C1978 C1979 1.415 . S
C1979 H1949 0.950 . S
C1979 C1974 1.363 . S
C1979 C1978 1.415 . S
H1980 C1977 0.999 . S
H1981 C1962 0.913 . S
H1982 C2000 0.951 . S
H1983 C2002 0.950 1_455 S
H1984 C2004 0.950 . S
H1985 C2005 0.950 . S
H1986 C2007 0.950 . S
H1987 C2010 0.950 . S
H1988 C2011 0.950 . S
H1989 C2013 0.950 . S
H1990 C2014 0.950 . S
H1991 C2015 0.951 . S
H1992 C2017 0.951 . S
H1993 C2019 0.950 . S
H1994 C2020 0.950 . S
H1995 C2022 0.950 . S
H1996 C2025 0.950 . S
H1997 C2026 0.950 . S
H1998 C2028 0.950 . S
H1999 C2029 0.950 1_554 S
C2000 H1982 0.951 . S
C2000 C2001 1.366 1_556 S
C2000 C2002 1.388 . S
C2001 C2000 1.366 1_554 S
C2001 C2005 1.385 . S
C2002 H1983 0.950 1_655 S
C2002 C2000 1.388 . S
C2002 C2003 1.369 . S
C2003 C2002 1.369 . S
C2003 C2004 1.420 1_556 S
C2003 C2006 1.489 1_655 S
C2004 H1984 0.950 . S
C2004 C2003 1.420 1_554 S
C2004 C2005 1.374 . S
C2005 H1985 0.950 . S
C2005 C2001 1.385 . S
C2005 C2004 1.374 . S
C2006 C2003 1.489 1_455 S
C2006 C2007 1.373 . S
C2006 C2008 1.389 1_455 S
C2007 H1986 0.950 . S
C2007 C2006 1.373 . S
C2007 C2023 1.377 . S
C2008 C2006 1.389 1_655 S
C2008 C2009 1.524 . S
C2008 C2022 1.377 . S
C2009 C2008 1.524 . S
C2009 C2010 1.397 . S
C2009 C2014 1.363 . S
C2010 H1987 0.950 . S
C2010 C2009 1.397 . S
C2010 C2011 1.334 . S
C2011 H1988 0.950 . S
C2011 C2010 1.334 . S
C2011 C2012 1.287 . S
C2012 C2011 1.287 . S
C2012 C2013 1.524 . S
C2012 H2031 0.913 . S
C2013 H1989 0.950 . S
C2013 C2012 1.524 . S
C2013 C2014 1.415 . S
C2014 H1990 0.950 . S
C2014 C2009 1.363 . S
C2014 C2013 1.415 . S
C2015 H1991 0.951 . S
C2015 C2016 1.366 . S
C2015 C2017 1.388 . S
C2016 C2015 1.366 . S
C2016 C2020 1.385 . S
C2017 H1992 0.951 . S
C2017 C2015 1.388 . S
C2017 C2018 1.366 . S
C2018 C2017 1.366 . S
C2018 C2019 1.414 . S
C2018 C2021 1.499 . S
C2019 H1993 0.950 . S
C2019 C2018 1.414 . S
C2019 C2020 1.374 . S
C2020 H1994 0.950 . S
C2020 C2016 1.385 . S
C2020 C2019 1.374 . S
C2021 C2018 1.499 . S
C2021 C2022 1.373 1_455 S
C2021 C2023 1.389 . S
C2022 H1995 0.950 . S
C2022 C2008 1.377 . S
C2022 C2021 1.373 1_655 S
C2023 C2007 1.377 . S
C2023 C2021 1.389 . S
C2023 C2024 1.524 . S
C2024 C2023 1.524 . S
C2024 C2025 1.397 . S
C2024 C2029 1.363 . S
C2025 H1996 0.950 . S
C2025 C2024 1.397 . S
C2025 C2026 1.334 . S
C2026 H1997 0.950 . S
C2026 C2025 1.334 . S
C2026 C2027 1.287 . S
C2027 C2026 1.287 . S
C2027 C2028 1.524 1_556 S
C2027 H2030 0.999 . S
C2028 H1998 0.950 . S
C2028 C2027 1.524 1_554 S
C2028 C2029 1.415 1_554 S
C2029 H1999 0.950 1_556 S
C2029 C2024 1.363 . S
C2029 C2028 1.415 1_556 S
H2030 C2027 0.999 . S
H2031 C2012 0.913 . S
H2032 C2050 0.951 . S
H2033 C2052 0.951 . S
H2034 C2054 0.950 . S
H2035 C2055 0.950 . S
H2036 C2057 0.950 . S
H2037 C2060 0.950 . S
H2038 C2061 0.950 . S
H2039 C2063 0.950 . S
H2040 C2064 0.950 . S
H2041 C2065 0.951 . S
H2042 C2067 0.951 . S
H2043 C2069 0.950 . S
H2044 C2070 0.950 . S
H2045 C2072 0.950 . S
H2046 C2075 0.950 . S
H2047 C2076 0.950 . S
H2048 C2078 0.950 . S
H2049 C2079 0.950 . S
C2050 H2032 0.951 . S
C2050 C2051 1.366 . S
C2050 C2052 1.388 . S
C2051 C2050 1.366 . S
C2051 C2055 1.385 . S
C2052 H2033 0.951 . S
C2052 C2050 1.388 . S
C2052 C2053 1.366 . S
C2053 C2052 1.366 . S
C2053 C2054 1.414 . S
C2053 C2056 1.499 . S
C2054 H2034 0.950 . S
C2054 C2053 1.414 . S
C2054 C2055 1.374 . S
C2055 H2035 0.950 . S
C2055 C2051 1.385 . S
C2055 C2054 1.374 . S
C2056 C2053 1.499 . S
C2056 C2057 1.373 . S
C2056 C2058 1.389 . S
C2057 H2036 0.950 . S
C2057 C2056 1.373 . S
C2057 C2073 1.377 . S
C2058 C2056 1.389 . S
C2058 C2059 1.524 . S
C2058 C2072 1.377 . S
C2059 C2058 1.524 . S
C2059 C2060 1.397 . S
C2059 C2064 1.363 . S
C2060 H2037 0.950 . S
C2060 C2059 1.397 . S
C2060 C2061 1.334 . S
C2061 H2038 0.950 . S
C2061 C2060 1.334 . S
C2061 C2062 1.287 . S
C2062 C2061 1.287 . S
C2062 C2063 1.524 . S
C2062 H2081 0.913 . S
C2063 H2039 0.950 . S
C2063 C2062 1.524 . S
C2063 C2064 1.415 . S
C2064 H2040 0.950 . S
C2064 C2059 1.363 . S
C2064 C2063 1.415 . S
C2065 H2041 0.951 . S
C2065 C2066 1.366 . S
C2065 C2067 1.388 . S
C2066 C2065 1.366 . S
C2066 C2070 1.385 . S
C2067 H2042 0.951 . S
C2067 C2065 1.388 . S
C2067 C2068 1.366 . S
C2068 C2067 1.366 . S
C2068 C2069 1.414 . S
C2068 C2071 1.499 . S
C2069 H2043 0.950 . S
C2069 C2068 1.414 . S
C2069 C2070 1.374 . S
C2070 H2044 0.950 . S
C2070 C2066 1.385 . S
C2070 C2069 1.374 . S
C2071 C2068 1.499 . S
C2071 C2072 1.373 . S
C2071 C2073 1.389 . S
C2072 H2045 0.950 . S
C2072 C2058 1.377 . S
C2072 C2071 1.373 . S
C2073 C2057 1.377 . S
C2073 C2071 1.389 . S
C2073 C2074 1.524 . S
C2074 C2073 1.524 . S
C2074 C2075 1.397 . S
C2074 C2079 1.363 . S
C2075 H2046 0.950 . S
C2075 C2074 1.397 . S
C2075 C2076 1.334 . S
C2076 H2047 0.950 . S
C2076 C2075 1.334 . S
C2076 C2077 1.287 . S
C2077 C2076 1.287 . S
C2077 C2078 1.524 . S
C2077 H2080 0.999 . S
C2078 H2048 0.950 . S
C2078 C2077 1.524 . S
C2078 C2079 1.415 . S
C2079 H2049 0.950 . S
C2079 C2074 1.363 . S
C2079 C2078 1.415 . S
H2080 C2077 0.999 . S
H2081 C2062 0.913 . S
H2082 C2100 0.951 . S
H2083 C2102 0.951 . S
H2084 C2104 0.950 . S
H2085 C2105 0.950 . S
H2086 C2107 0.950 . S
H2087 C2110 0.950 . S
H2088 C2111 0.950 . S
H2089 C2113 0.950 . S
H2090 C2114 0.950 . S
H2091 C2115 0.951 . S
H2092 C2117 0.951 . S
H2093 C2119 0.950 . S
H2094 C2120 0.950 . S
H2095 C2122 0.950 . S
H2096 C2125 0.950 1_455 S
H2097 C2126 0.950 . S
H2098 C2128 0.950 . S
H2099 C2129 0.950 . S
C2100 H2082 0.951 . S
C2100 C2101 1.366 . S
C2100 C2102 1.388 1_554 S
C2101 C2100 1.366 . S
C2101 C2105 1.385 . S
C2102 H2083 0.951 . S
C2102 C2100 1.388 1_556 S
C2102 C2103 1.377 . S
C2103 C2102 1.377 . S
C2103 C2104 1.359 1_556 S
C2103 C2106 1.543 . S
C2104 H2084 0.950 . S
C2104 C2103 1.359 1_554 S
C2104 C2105 1.374 . S
C2105 H2085 0.950 . S
C2105 C2101 1.385 . S
C2105 C2104 1.374 . S
C2106 C2103 1.543 . S
C2106 C2107 1.373 . S
C2106 C2108 1.389 . S
C2107 H2086 0.950 . S
C2107 C2106 1.373 . S
C2107 C2123 1.377 . S
C2108 C2106 1.389 . S
C2108 C2109 1.524 . S
C2108 C2122 1.377 . S
C2109 C2108 1.524 . S
C2109 C2110 1.397 1_556 S
C2109 C2114 1.363 . S
C2110 H2087 0.950 . S
C2110 C2109 1.397 1_554 S
C2110 C2111 1.334 . S
C2111 H2088 0.950 . S
C2111 C2110 1.334 . S
C2111 C2112 1.287 1_554 S
C2112 C2111 1.287 1_556 S
C2112 C2113 1.524 . S
C2112 H2131 0.913 . S
C2113 H2089 0.950 . S
C2113 C2112 1.524 . S
C2113 C2114 1.415 . S
C2114 H2090 0.950 . S
C2114 C2109 1.363 . S
C2114 C2113 1.415 . S
C2115 H2091 0.951 . S
C2115 C2116 1.366 . S
C2115 C2117 1.388 . S
C2116 C2115 1.366 . S
C2116 C2120 1.385 . S
C2117 H2092 0.951 . S
C2117 C2115 1.388 . S
C2117 C2118 1.366 . S
C2118 C2117 1.366 . S
C2118 C2119 1.414 . S
C2118 C2121 1.499 . S
C2119 H2093 0.950 . S
C2119 C2118 1.414 . S
C2119 C2120 1.374 . S
C2120 H2094 0.950 . S
C2120 C2116 1.385 . S
C2120 C2119 1.374 . S
C2121 C2118 1.499 . S
C2121 C2122 1.373 . S
C2121 C2123 1.389 . S
C2122 H2095 0.950 . S
C2122 C2108 1.377 . S
C2122 C2121 1.373 . S
C2123 C2107 1.377 . S
C2123 C2121 1.389 . S
C2123 C2124 1.524 . S
C2124 C2123 1.524 . S
C2124 C2125 1.397 1_455 S
C2124 C2129 1.363 1_455 S
C2125 H2096 0.950 1_655 S
C2125 C2124 1.397 1_655 S
C2125 C2126 1.334 . S
C2126 H2097 0.950 . S
C2126 C2125 1.334 . S
C2126 C2127 1.287 . S
C2127 C2126 1.287 . S
C2127 C2128 1.524 . S
C2127 H2130 0.999 . S
C2128 H2098 0.950 . S
C2128 C2127 1.524 . S
C2128 C2129 1.415 . S
C2129 H2099 0.950 . S
C2129 C2124 1.363 1_655 S
C2129 C2128 1.415 . S
H2130 C2127 0.999 . S
H2131 C2112 0.913 . S
H2132 C2150 0.951 . S
H2133 C2152 0.951 . S
H2134 C2154 0.950 . S
H2135 C2155 0.950 . S
H2136 C2157 0.950 . S
H2137 C2160 0.950 . S
H2138 C2161 0.950 . S
H2139 C2163 0.950 . S
H2140 C2164 0.950 . S
H2141 C2165 0.951 . S
H2142 C2167 0.951 . S
H2143 C2169 0.950 . S
H2144 C2170 0.950 . S
H2145 C2172 0.950 . S
H2146 C2175 0.950 . S
H2147 C2176 0.950 . S
H2148 C2178 0.950 . S
H2149 C2179 0.950 . S
C2150 H2132 0.951 . S
C2150 C2151 1.366 . S
C2150 C2152 1.388 . S
C2151 C2150 1.366 . S
C2151 C2155 1.385 . S
C2152 H2133 0.951 . S
C2152 C2150 1.388 . S
C2152 C2153 1.366 . S
C2153 C2152 1.366 . S
C2153 C2154 1.414 . S
C2153 C2156 1.499 . S
C2154 H2134 0.950 . S
C2154 C2153 1.414 . S
C2154 C2155 1.374 . S
C2155 H2135 0.950 . S
C2155 C2151 1.385 . S
C2155 C2154 1.374 . S
C2156 C2153 1.499 . S
C2156 C2157 1.373 . S
C2156 C2158 1.389 . S
C2157 H2136 0.950 . S
C2157 C2156 1.373 . S
C2157 C2173 1.377 . S
C2158 C2156 1.389 . S
C2158 C2159 1.524 . S
C2158 C2172 1.377 . S
C2159 C2158 1.524 . S
C2159 C2160 1.397 . S
C2159 C2164 1.363 . S
C2160 H2137 0.950 . S
C2160 C2159 1.397 . S
C2160 C2161 1.334 . S
C2161 H2138 0.950 . S
C2161 C2160 1.334 . S
C2161 C2162 1.287 . S
C2162 C2161 1.287 . S
C2162 C2163 1.524 . S
C2162 H2181 0.913 . S
C2163 H2139 0.950 . S
C2163 C2162 1.524 . S
C2163 C2164 1.415 . S
C2164 H2140 0.950 . S
C2164 C2159 1.363 . S
C2164 C2163 1.415 . S
C2165 H2141 0.951 . S
C2165 C2166 1.366 . S
C2165 C2167 1.388 . S
C2166 C2165 1.366 . S
C2166 C2170 1.385 . S
C2167 H2142 0.951 . S
C2167 C2165 1.388 . S
C2167 C2168 1.366 . S
C2168 C2167 1.366 . S
C2168 C2169 1.414 . S
C2168 C2171 1.499 . S
C2169 H2143 0.950 . S
C2169 C2168 1.414 . S
C2169 C2170 1.374 . S
C2170 H2144 0.950 . S
C2170 C2166 1.385 . S
C2170 C2169 1.374 . S
C2171 C2168 1.499 . S
C2171 C2172 1.373 . S
C2171 C2173 1.389 . S
C2172 H2145 0.950 . S
C2172 C2158 1.377 . S
C2172 C2171 1.373 . S
C2173 C2157 1.377 . S
C2173 C2171 1.389 . S
C2173 C2174 1.524 . S
C2174 C2173 1.524 . S
C2174 C2175 1.397 . S
C2174 C2179 1.363 . S
C2175 H2146 0.950 . S
C2175 C2174 1.397 . S
C2175 C2176 1.334 . S
C2176 H2147 0.950 . S
C2176 C2175 1.334 . S
C2176 C2177 1.287 . S
C2177 C2176 1.287 . S
C2177 C2178 1.524 . S
C2177 H2180 0.999 . S
C2178 H2148 0.950 . S
C2178 C2177 1.524 . S
C2178 C2179 1.415 . S
C2179 H2149 0.950 . S
C2179 C2174 1.363 . S
C2179 C2178 1.415 . S
H2180 C2177 0.999 . S
H2181 C2162 0.913 . S
H2182 C2200 0.951 . S
H2183 C2202 0.951 . S
H2184 C2204 0.950 . S
H2185 C2205 0.950 . S
H2186 C2207 0.950 . S
H2187 C2210 0.950 . S
H2188 C2211 0.950 . S
H2189 C2213 0.950 . S
H2190 C2214 0.950 . S
H2191 C2215 0.951 . S
H2192 C2217 0.951 . S
H2193 C2219 0.950 . S
H2194 C2220 0.950 . S
H2195 C2222 0.950 . S
H2196 C2225 0.950 . S
H2197 C2226 0.950 . S
H2198 C2228 0.950 . S
H2199 C2229 0.950 . S
C2200 H2182 0.951 . S
C2200 C2201 1.366 . S
C2200 C2202 1.388 . S
C2201 C2200 1.366 . S
C2201 C2205 1.385 . S
C2202 H2183 0.951 . S
C2202 C2200 1.388 . S
C2202 C2203 1.366 . S
C2203 C2202 1.366 . S
C2203 C2204 1.414 . S
C2203 C2206 1.499 . S
C2204 H2184 0.950 . S
C2204 C2203 1.414 . S
C2204 C2205 1.374 . S
C2205 H2185 0.950 . S
C2205 C2201 1.385 . S
C2205 C2204 1.374 . S
C2206 C2203 1.499 . S
C2206 C2207 1.373 . S
C2206 C2208 1.389 . S
C2207 H2186 0.950 . S
C2207 C2206 1.373 . S
C2207 C2223 1.377 . S
C2208 C2206 1.389 . S
C2208 C2209 1.524 . S
C2208 C2222 1.377 . S
C2209 C2208 1.524 . S
C2209 C2210 1.397 . S
C2209 C2214 1.363 . S
C2210 H2187 0.950 . S
C2210 C2209 1.397 . S
C2210 C2211 1.334 . S
C2211 H2188 0.950 . S
C2211 C2210 1.334 . S
C2211 C2212 1.287 . S
C2212 C2211 1.287 . S
C2212 C2213 1.524 . S
C2212 H2231 0.913 . S
C2213 H2189 0.950 . S
C2213 C2212 1.524 . S
C2213 C2214 1.415 . S
C2214 H2190 0.950 . S
C2214 C2209 1.363 . S
C2214 C2213 1.415 . S
C2215 H2191 0.951 . S
C2215 C2216 1.366 . S
C2215 C2217 1.388 . S
C2216 C2215 1.366 . S
C2216 C2220 1.385 . S
C2217 H2192 0.951 . S
C2217 C2215 1.388 . S
C2217 C2218 1.366 . S
C2218 C2217 1.366 . S
C2218 C2219 1.414 . S
C2218 C2221 1.499 . S
C2219 H2193 0.950 . S
C2219 C2218 1.414 . S
C2219 C2220 1.374 . S
C2220 H2194 0.950 . S
C2220 C2216 1.385 . S
C2220 C2219 1.374 . S
C2221 C2218 1.499 . S
C2221 C2222 1.373 . S
C2221 C2223 1.389 . S
C2222 H2195 0.950 . S
C2222 C2208 1.377 . S
C2222 C2221 1.373 . S
C2223 C2207 1.377 . S
C2223 C2221 1.389 . S
C2223 C2224 1.524 . S
C2224 C2223 1.524 . S
C2224 C2225 1.397 . S
C2224 C2229 1.363 . S
C2225 H2196 0.950 . S
C2225 C2224 1.397 . S
C2225 C2226 1.334 . S
C2226 H2197 0.950 . S
C2226 C2225 1.334 . S
C2226 C2227 1.287 . S
C2227 C2226 1.287 . S
C2227 C2228 1.524 . S
C2227 H2230 0.999 . S
C2228 H2198 0.950 . S
C2228 C2227 1.524 . S
C2228 C2229 1.415 . S
C2229 H2199 0.950 . S
C2229 C2224 1.363 . S
C2229 C2228 1.415 . S
H2230 C2227 0.999 . S
H2231 C2212 0.913 . S
H2232 C2250 0.951 . S
H2233 C2252 0.951 . S
H2234 C2254 0.950 . S
H2235 C2255 0.950 . S
H2236 C2257 0.950 . S
H2237 C2260 0.950 . S
H2238 C2261 0.950 . S
H2239 C2263 0.950 . S
H2240 C2264 0.950 . S
H2241 C2265 0.951 . S
H2242 C2267 0.951 . S
H2243 C2269 0.950 . S
H2244 C2270 0.950 . S
H2245 C2272 0.950 . S
H2246 C2275 0.950 . S
H2247 C2276 0.950 . S
H2248 C2278 0.950 . S
H2249 C2279 0.950 . S
C2250 H2232 0.951 . S
C2250 C2251 1.366 . S
C2250 C2252 1.388 . S
C2251 C2250 1.366 . S
C2251 C2255 1.385 . S
C2252 H2233 0.951 . S
C2252 C2250 1.388 . S
C2252 C2253 1.366 . S
C2253 C2252 1.366 . S
C2253 C2254 1.414 . S
C2253 C2256 1.499 . S
C2254 H2234 0.950 . S
C2254 C2253 1.414 . S
C2254 C2255 1.374 . S
C2255 H2235 0.950 . S
C2255 C2251 1.385 . S
C2255 C2254 1.374 . S
C2256 C2253 1.499 . S
C2256 C2257 1.373 . S
C2256 C2258 1.389 . S
C2257 H2236 0.950 . S
C2257 C2256 1.373 . S
C2257 C2273 1.377 . S
C2258 C2256 1.389 . S
C2258 C2259 1.524 . S
C2258 C2272 1.377 . S
C2259 C2258 1.524 . S
C2259 C2260 1.397 . S
C2259 C2264 1.363 . S
C2260 H2237 0.950 . S
C2260 C2259 1.397 . S
C2260 C2261 1.334 . S
C2261 H2238 0.950 . S
C2261 C2260 1.334 . S
C2261 C2262 1.287 . S
C2262 C2261 1.287 . S
C2262 C2263 1.524 . S
C2262 H2281 0.913 . S
C2263 H2239 0.950 . S
C2263 C2262 1.524 . S
C2263 C2264 1.415 . S
C2264 H2240 0.950 . S
C2264 C2259 1.363 . S
C2264 C2263 1.415 . S
C2265 H2241 0.951 . S
C2265 C2266 1.366 . S
C2265 C2267 1.388 . S
C2266 C2265 1.366 . S
C2266 C2270 1.385 . S
C2267 H2242 0.951 . S
C2267 C2265 1.388 . S
C2267 C2268 1.366 . S
C2268 C2267 1.366 . S
C2268 C2269 1.414 . S
C2268 C2271 1.499 . S
C2269 H2243 0.950 . S
C2269 C2268 1.414 . S
C2269 C2270 1.374 . S
C2270 H2244 0.950 . S
C2270 C2266 1.385 . S
C2270 C2269 1.374 . S
C2271 C2268 1.499 . S
C2271 C2272 1.373 . S
C2271 C2273 1.389 . S
C2272 H2245 0.950 . S
C2272 C2258 1.377 . S
C2272 C2271 1.373 . S
C2273 C2257 1.377 . S
C2273 C2271 1.389 . S
C2273 C2274 1.524 . S
C2274 C2273 1.524 . S
C2274 C2275 1.397 . S
C2274 C2279 1.363 . S
C2275 H2246 0.950 . S
C2275 C2274 1.397 . S
C2275 C2276 1.334 . S
C2276 H2247 0.950 . S
C2276 C2275 1.334 . S
C2276 C2277 1.287 . S
C2277 C2276 1.287 . S
C2277 C2278 1.524 . S
C2277 H2280 0.999 . S
C2278 H2248 0.950 . S
C2278 C2277 1.524 . S
C2278 C2279 1.415 . S
C2279 H2249 0.950 . S
C2279 C2274 1.363 . S
C2279 C2278 1.415 . S
H2280 C2277 0.999 . S
H2281 C2262 0.913 . S
H2282 C2300 0.951 . S
H2283 C2302 0.951 . S
H2284 C2304 0.950 . S
H2285 C2305 0.950 . S
H2286 C2307 0.950 . S
H2287 C2310 0.950 . S
H2288 C2311 0.950 . S
H2289 C2313 0.950 . S
H2290 C2314 0.950 . S
H2291 C2315 0.951 . S
H2292 C2317 0.951 . S
H2293 C2319 0.950 . S
H2294 C2320 0.950 . S
H2295 C2322 0.950 . S
H2296 C2325 0.950 . S
H2297 C2326 0.950 . S
H2298 C2328 0.950 . S
H2299 C2329 0.950 . S
C2300 H2282 0.951 . S
C2300 C2301 1.366 . S
C2300 C2302 1.388 1_556 S
C2301 C2300 1.366 . S
C2301 C2305 1.385 1_556 S
C2302 H2283 0.951 . S
C2302 C2300 1.388 1_554 S
C2302 C2303 1.366 . S
C2303 C2302 1.366 . S
C2303 C2304 1.414 . S
C2303 C2306 1.499 . S
C2304 H2284 0.950 . S
C2304 C2303 1.414 . S
C2304 C2305 1.374 . S
C2305 H2285 0.950 . S
C2305 C2301 1.385 1_554 S
C2305 C2304 1.374 . S
C2306 C2303 1.499 . S
C2306 C2307 1.373 . S
C2306 C2308 1.389 . S
C2307 H2286 0.950 . S
C2307 C2306 1.373 . S
C2307 C2323 1.377 . S
C2308 C2306 1.389 . S
C2308 C2309 1.524 . S
C2308 C2322 1.377 . S
C2309 C2308 1.524 . S
C2309 C2310 1.397 . S
C2309 C2314 1.363 . S
C2310 H2287 0.950 . S
C2310 C2309 1.397 . S
C2310 C2311 1.334 . S
C2311 H2288 0.950 . S
C2311 C2310 1.334 . S
C2311 C2312 1.287 1_554 S
C2312 C2311 1.287 1_556 S
C2312 C2313 1.524 . S
C2312 H2331 0.913 . S
C2313 H2289 0.950 . S
C2313 C2312 1.524 . S
C2313 C2314 1.415 1_556 S
C2314 H2290 0.950 . S
C2314 C2309 1.363 . S
C2314 C2313 1.415 1_554 S
C2315 H2291 0.951 . S
C2315 C2316 1.366 . S
C2315 C2317 1.388 . S
C2316 C2315 1.366 . S
C2316 C2320 1.385 . S
C2317 H2292 0.951 . S
C2317 C2315 1.388 . S
C2317 C2318 1.366 . S
C2318 C2317 1.366 . S
C2318 C2319 1.414 . S
C2318 C2321 1.499 . S
C2319 H2293 0.950 . S
C2319 C2318 1.414 . S
C2319 C2320 1.374 . S
C2320 H2294 0.950 . S
C2320 C2316 1.385 . S
C2320 C2319 1.374 . S
C2321 C2318 1.499 . S
C2321 C2322 1.373 . S
C2321 C2323 1.389 . S
C2322 H2295 0.950 . S
C2322 C2308 1.377 . S
C2322 C2321 1.373 . S
C2323 C2307 1.377 . S
C2323 C2321 1.389 . S
C2323 C2324 1.524 . S
C2324 C2323 1.524 . S
C2324 C2325 1.397 . S
C2324 C2329 1.363 . S
C2325 H2296 0.950 . S
C2325 C2324 1.397 . S
C2325 C2326 1.334 . S
C2326 H2297 0.950 . S
C2326 C2325 1.334 . S
C2326 C2327 1.287 . S
C2327 C2326 1.287 . S
C2327 C2328 1.524 . S
C2327 H2330 0.999 . S
C2328 H2298 0.950 . S
C2328 C2327 1.524 . S
C2328 C2329 1.415 . S
C2329 H2299 0.950 . S
C2329 C2324 1.363 . S
C2329 C2328 1.415 . S
H2330 C2327 0.999 . S
H2331 C2312 0.913 . S
H2332 C2350 0.951 . S
H2333 C2352 0.951 . S
H2334 C2354 0.950 . S
H2335 C2355 0.950 . S
H2336 C2357 0.950 . S
H2337 C2360 0.950 . S
H2338 C2361 0.950 . S
H2339 C2363 0.950 . S
H2340 C2364 0.950 . S
H2341 C2365 0.951 . S
H2342 C2367 0.951 . S
H2343 C2369 0.950 . S
H2344 C2370 0.950 . S
H2345 C2372 0.950 . S
H2346 C2375 0.950 . S
H2347 C2376 0.950 . S
H2348 C2378 0.950 . S
H2349 C2379 0.950 . S
C2350 H2332 0.951 . S
C2350 C2351 1.366 . S
C2350 C2352 1.388 . S
C2351 C2350 1.366 . S
C2351 C2355 1.385 . S
C2352 H2333 0.951 . S
C2352 C2350 1.388 . S
C2352 C2353 1.366 . S
C2353 C2352 1.366 . S
C2353 C2354 1.414 . S
C2353 C2356 1.499 . S
C2354 H2334 0.950 . S
C2354 C2353 1.414 . S
C2354 C2355 1.374 . S
C2355 H2335 0.950 . S
C2355 C2351 1.385 . S
C2355 C2354 1.374 . S
C2356 C2353 1.499 . S
C2356 C2357 1.373 . S
C2356 C2358 1.389 . S
C2357 H2336 0.950 . S
C2357 C2356 1.373 . S
C2357 C2373 1.377 . S
C2358 C2356 1.389 . S
C2358 C2359 1.524 . S
C2358 C2372 1.377 . S
C2359 C2358 1.524 . S
C2359 C2360 1.397 . S
C2359 C2364 1.363 . S
C2360 H2337 0.950 . S
C2360 C2359 1.397 . S
C2360 C2361 1.334 . S
C2361 H2338 0.950 . S
C2361 C2360 1.334 . S
C2361 C2362 1.287 . S
C2362 C2361 1.287 . S
C2362 C2363 1.524 . S
C2362 H2381 0.913 . S
C2363 H2339 0.950 . S
C2363 C2362 1.524 . S
C2363 C2364 1.415 . S
C2364 H2340 0.950 . S
C2364 C2359 1.363 . S
C2364 C2363 1.415 . S
C2365 H2341 0.951 . S
C2365 C2366 1.366 . S
C2365 C2367 1.388 . S
C2366 C2365 1.366 . S
C2366 C2370 1.385 . S
C2367 H2342 0.951 . S
C2367 C2365 1.388 . S
C2367 C2368 1.366 . S
C2368 C2367 1.366 . S
C2368 C2369 1.414 . S
C2368 C2371 1.499 . S
C2369 H2343 0.950 . S
C2369 C2368 1.414 . S
C2369 C2370 1.374 . S
C2370 H2344 0.950 . S
C2370 C2366 1.385 . S
C2370 C2369 1.374 . S
C2371 C2368 1.499 . S
C2371 C2372 1.373 . S
C2371 C2373 1.389 . S
C2372 H2345 0.950 . S
C2372 C2358 1.377 . S
C2372 C2371 1.373 . S
C2373 C2357 1.377 . S
C2373 C2371 1.389 . S
C2373 C2374 1.524 . S
C2374 C2373 1.524 . S
C2374 C2375 1.397 . S
C2374 C2379 1.363 . S
C2375 H2346 0.950 . S
C2375 C2374 1.397 . S
C2375 C2376 1.334 . S
C2376 H2347 0.950 . S
C2376 C2375 1.334 . S
C2376 C2377 1.287 . S
C2377 C2376 1.287 . S
C2377 C2378 1.524 . S
C2377 H2380 0.999 . S
C2378 H2348 0.950 . S
C2378 C2377 1.524 . S
C2378 C2379 1.415 . S
C2379 H2349 0.950 . S
C2379 C2374 1.363 . S
C2379 C2378 1.415 . S
H2380 C2377 0.999 . S
H2381 C2362 0.913 . S
H2382 C2400 0.951 . S
H2383 C2402 0.951 . S
H2384 C2404 0.950 . S
H2385 C2405 0.950 . S
H2386 C2407 0.950 . S
H2387 C2410 0.950 . S
H2388 C2411 0.950 . S
H2389 C2413 0.950 . S
H2390 C2414 0.950 . S
H2391 C2415 0.951 . S
H2392 C2417 0.951 . S
H2393 C2419 0.950 . S
H2394 C2420 0.950 . S
H2395 C2422 0.950 . S
H2396 C2425 0.950 . S
H2397 C2426 0.950 . S
H2398 C2428 0.950 . S
H2399 C2429 0.950 . S
C2400 H2382 0.951 . S
C2400 C2401 1.366 . S
C2400 C2402 1.388 . S
C2401 C2400 1.366 . S
C2401 C2405 1.385 . S
C2402 H2383 0.951 . S
C2402 C2400 1.388 . S
C2402 C2403 1.366 . S
C2403 C2402 1.366 . S
C2403 C2404 1.414 . S
C2403 C2406 1.499 . S
C2404 H2384 0.950 . S
C2404 C2403 1.414 . S
C2404 C2405 1.374 . S
C2405 H2385 0.950 . S
C2405 C2401 1.385 . S
C2405 C2404 1.374 . S
C2406 C2403 1.499 . S
C2406 C2407 1.373 . S
C2406 C2408 1.389 . S
C2407 H2386 0.950 . S
C2407 C2406 1.373 . S
C2407 C2423 1.377 . S
C2408 C2406 1.389 . S
C2408 C2409 1.524 . S
C2408 C2422 1.377 . S
C2409 C2408 1.524 . S
C2409 C2410 1.397 . S
C2409 C2414 1.363 . S
C2410 H2387 0.950 . S
C2410 C2409 1.397 . S
C2410 C2411 1.334 . S
C2411 H2388 0.950 . S
C2411 C2410 1.334 . S
C2411 C2412 1.287 . S
C2412 C2411 1.287 . S
C2412 C2413 1.524 . S
C2412 H2431 0.913 . S
C2413 H2389 0.950 . S
C2413 C2412 1.524 . S
C2413 C2414 1.415 . S
C2414 H2390 0.950 . S
C2414 C2409 1.363 . S
C2414 C2413 1.415 . S
C2415 H2391 0.951 . S
C2415 C2416 1.366 . S
C2415 C2417 1.388 . S
C2416 C2415 1.366 . S
C2416 C2420 1.385 . S
C2417 H2392 0.951 . S
C2417 C2415 1.388 . S
C2417 C2418 1.366 . S
C2418 C2417 1.366 . S
C2418 C2419 1.414 . S
C2418 C2421 1.499 . S
C2419 H2393 0.950 . S
C2419 C2418 1.414 . S
C2419 C2420 1.374 . S
C2420 H2394 0.950 . S
C2420 C2416 1.385 . S
C2420 C2419 1.374 . S
C2421 C2418 1.499 . S
C2421 C2422 1.373 . S
C2421 C2423 1.389 . S
C2422 H2395 0.950 . S
C2422 C2408 1.377 . S
C2422 C2421 1.373 . S
C2423 C2407 1.377 . S
C2423 C2421 1.389 . S
C2423 C2424 1.524 . S
C2424 C2423 1.524 . S
C2424 C2425 1.397 . S
C2424 C2429 1.363 . S
C2425 H2396 0.950 . S
C2425 C2424 1.397 . S
C2425 C2426 1.334 . S
C2426 H2397 0.950 . S
C2426 C2425 1.334 . S
C2426 C2427 1.287 . S
C2427 C2426 1.287 . S
C2427 C2428 1.524 . S
C2427 H2430 0.999 . S
C2428 H2398 0.950 . S
C2428 C2427 1.524 . S
C2428 C2429 1.415 . S
C2429 H2399 0.950 . S
C2429 C2424 1.363 . S
C2429 C2428 1.415 . S
H2430 C2427 0.999 . S
H2431 C2412 0.913 . S
H2432 C2450 0.951 . S
H2433 C2452 0.951 . S
H2434 C2454 0.950 . S
H2435 C2455 0.950 . S
H2436 C2457 0.950 . S
H2437 C2460 0.950 . S
H2438 C2461 0.950 . S
H2439 C2463 0.950 . S
H2440 C2464 0.950 . S
H2441 C2465 0.951 . S
H2442 C2467 0.951 . S
H2443 C2469 0.950 . S
H2444 C2470 0.950 . S
H2445 C2472 0.950 . S
H2446 C2475 0.950 . S
H2447 C2476 0.950 . S
H2448 C2478 0.950 . S
H2449 C2479 0.950 . S
C2450 H2432 0.951 . S
C2450 C2451 1.366 . S
C2450 C2452 1.388 . S
C2451 C2450 1.366 . S
C2451 C2455 1.385 . S
C2452 H2433 0.951 . S
C2452 C2450 1.388 . S
C2452 C2453 1.366 . S
C2453 C2452 1.366 . S
C2453 C2454 1.414 . S
C2453 C2456 1.499 . S
C2454 H2434 0.950 . S
C2454 C2453 1.414 . S
C2454 C2455 1.374 . S
C2455 H2435 0.950 . S
C2455 C2451 1.385 . S
C2455 C2454 1.374 . S
C2456 C2453 1.499 . S
C2456 C2457 1.373 . S
C2456 C2458 1.389 . S
C2457 H2436 0.950 . S
C2457 C2456 1.373 . S
C2457 C2473 1.377 . S
C2458 C2456 1.389 . S
C2458 C2459 1.524 . S
C2458 C2472 1.377 . S
C2459 C2458 1.524 . S
C2459 C2460 1.397 . S
C2459 C2464 1.363 . S
C2460 H2437 0.950 . S
C2460 C2459 1.397 . S
C2460 C2461 1.334 . S
C2461 H2438 0.950 . S
C2461 C2460 1.334 . S
C2461 C2462 1.287 . S
C2462 C2461 1.287 . S
C2462 C2463 1.524 . S
C2462 H2481 0.913 . S
C2463 H2439 0.950 . S
C2463 C2462 1.524 . S
C2463 C2464 1.415 . S
C2464 H2440 0.950 . S
C2464 C2459 1.363 . S
C2464 C2463 1.415 . S
C2465 H2441 0.951 . S
C2465 C2466 1.366 . S
C2465 C2467 1.388 . S
C2466 C2465 1.366 . S
C2466 C2470 1.385 . S
C2467 H2442 0.951 . S
C2467 C2465 1.388 . S
C2467 C2468 1.366 . S
C2468 C2467 1.366 . S
C2468 C2469 1.414 . S
C2468 C2471 1.499 . S
C2469 H2443 0.950 . S
C2469 C2468 1.414 . S
C2469 C2470 1.374 . S
C2470 H2444 0.950 . S
C2470 C2466 1.385 . S
C2470 C2469 1.374 . S
C2471 C2468 1.499 . S
C2471 C2472 1.373 . S
C2471 C2473 1.389 . S
C2472 H2445 0.950 . S
C2472 C2458 1.377 . S
C2472 C2471 1.373 . S
C2473 C2457 1.377 . S
C2473 C2471 1.389 . S
C2473 C2474 1.524 . S
C2474 C2473 1.524 . S
C2474 C2475 1.397 . S
C2474 C2479 1.363 . S
C2475 H2446 0.950 . S
C2475 C2474 1.397 . S
C2475 C2476 1.334 . S
C2476 H2447 0.950 . S
C2476 C2475 1.334 . S
C2476 C2477 1.287 . S
C2477 C2476 1.287 . S
C2477 C2478 1.524 . S
C2477 H2480 0.999 . S
C2478 H2448 0.950 . S
C2478 C2477 1.524 . S
C2478 C2479 1.415 . S
C2479 H2449 0.950 . S
C2479 C2474 1.363 . S
C2479 C2478 1.415 . S
H2480 C2477 0.999 . S
H2481 C2462 0.913 . S
H2482 C2500 0.951 . S
H2483 C2502 0.951 . S
H2484 C2504 0.950 . S
H2485 C2505 0.950 . S
H2486 C2507 0.950 . S
H2487 C2510 0.950 . S
H2488 C2511 0.950 . S
H2489 C2513 0.950 . S
H2490 C2514 0.950 . S
H2491 C2515 0.951 . S
H2492 C2517 0.951 . S
H2493 C2519 0.950 . S
H2494 C2520 0.950 . S
H2495 C2522 0.950 . S
H2496 C2525 0.950 . S
H2497 C2526 0.950 . S
H2498 C2528 0.950 . S
H2499 C2529 0.950 . S
C2500 H2482 0.951 . S
C2500 C2501 1.366 . S
C2500 C2502 1.388 . S
C2501 C2500 1.366 . S
C2501 C2505 1.385 . S
C2502 H2483 0.951 . S
C2502 C2500 1.388 . S
C2502 C2503 1.366 . S
C2503 C2502 1.366 . S
C2503 C2504 1.414 . S
C2503 C2506 1.499 . S
C2504 H2484 0.950 . S
C2504 C2503 1.414 . S
C2504 C2505 1.374 . S
C2505 H2485 0.950 . S
C2505 C2501 1.385 . S
C2505 C2504 1.374 . S
C2506 C2503 1.499 . S
C2506 C2507 1.373 . S
C2506 C2508 1.389 . S
C2507 H2486 0.950 . S
C2507 C2506 1.373 . S
C2507 C2523 1.377 . S
C2508 C2506 1.389 . S
C2508 C2509 1.524 . S
C2508 C2522 1.377 . S
C2509 C2508 1.524 . S
C2509 C2510 1.397 . S
C2509 C2514 1.363 . S
C2510 H2487 0.950 . S
C2510 C2509 1.397 . S
C2510 C2511 1.334 . S
C2511 H2488 0.950 . S
C2511 C2510 1.334 . S
C2511 C2512 1.287 . S
C2512 C2511 1.287 . S
C2512 C2513 1.524 . S
C2512 H2531 0.913 . S
C2513 H2489 0.950 . S
C2513 C2512 1.524 . S
C2513 C2514 1.415 . S
C2514 H2490 0.950 . S
C2514 C2509 1.363 . S
C2514 C2513 1.415 . S
C2515 H2491 0.951 . S
C2515 C2516 1.366 . S
C2515 C2517 1.388 . S
C2516 C2515 1.366 . S
C2516 C2520 1.385 . S
C2517 H2492 0.951 . S
C2517 C2515 1.388 . S
C2517 C2518 1.366 . S
C2518 C2517 1.366 . S
C2518 C2519 1.414 . S
C2518 C2521 1.499 . S
C2519 H2493 0.950 . S
C2519 C2518 1.414 . S
C2519 C2520 1.374 . S
C2520 H2494 0.950 . S
C2520 C2516 1.385 . S
C2520 C2519 1.374 . S
C2521 C2518 1.499 . S
C2521 C2522 1.373 . S
C2521 C2523 1.389 . S
C2522 H2495 0.950 . S
C2522 C2508 1.377 . S
C2522 C2521 1.373 . S
C2523 C2507 1.377 . S
C2523 C2521 1.389 . S
C2523 C2524 1.524 . S
C2524 C2523 1.524 . S
C2524 C2525 1.397 . S
C2524 C2529 1.363 . S
C2525 H2496 0.950 . S
C2525 C2524 1.397 . S
C2525 C2526 1.334 . S
C2526 H2497 0.950 . S
C2526 C2525 1.334 . S
C2526 C2527 1.287 . S
C2527 C2526 1.287 . S
C2527 C2528 1.524 . S
C2527 H2530 0.999 . S
C2528 H2498 0.950 . S
C2528 C2527 1.524 . S
C2528 C2529 1.415 . S
C2529 H2499 0.950 . S
C2529 C2524 1.363 . S
C2529 C2528 1.415 . S
H2530 C2527 0.999 . S
H2531 C2512 0.913 . S
H2532 C2550 0.951 . S
H2533 C2552 0.951 . S
H2534 C2554 0.950 . S
H2535 C2555 0.950 . S
H2536 C2557 0.950 . S
H2537 C2560 0.950 . S
H2538 C2561 0.950 . S
H2539 C2563 0.950 . S
H2540 C2564 0.950 . S
H2541 C2565 0.951 . S
H2542 C2567 0.951 . S
H2543 C2569 0.950 . S
H2544 C2570 0.950 . S
H2545 C2572 0.950 1_554 S
H2546 C2575 0.969 . S
H2547 C2576 0.928 1_554 S
H2548 C2578 0.950 . S
H2549 C2579 0.950 . S
C2550 H2532 0.951 . S
C2550 C2551 1.366 1_554 S
C2550 C2552 1.388 . S
C2551 C2550 1.366 1_556 S
C2551 C2555 1.385 . S
C2552 H2533 0.951 . S
C2552 C2550 1.388 . S
C2552 C2553 1.366 1_554 S
C2553 C2552 1.366 1_556 S
C2553 C2554 1.414 . S
C2553 C2556 1.499 . S
C2554 H2534 0.950 . S
C2554 C2553 1.414 . S
C2554 C2555 1.374 . S
C2555 H2535 0.950 . S
C2555 C2551 1.385 . S
C2555 C2554 1.374 . S
C2556 C2553 1.499 . S
C2556 C2557 1.373 . S
C2556 C2558 1.389 . S
C2557 H2536 0.950 . S
C2557 C2556 1.373 . S
C2557 C2573 1.377 . S
C2558 C2556 1.389 . S
C2558 C2559 1.530 . S
C2558 C2572 1.377 . S
C2559 C2558 1.530 . S
C2559 C2560 1.437 . S
C2559 C2564 1.324 1_556 S
C2560 H2537 0.950 . S
C2560 C2559 1.437 . S
C2560 C2561 1.334 . S
C2561 H2538 0.950 . S
C2561 C2560 1.334 . S
C2561 C2562 1.290 . S
C2562 C2561 1.290 . S
C2562 C2563 1.521 1_556 S
C2562 H2581 0.914 1_556 S
C2563 H2539 0.950 . S
C2563 C2562 1.521 1_554 S
C2563 C2564 1.415 . S
C2564 H2540 0.950 . S
C2564 C2559 1.324 1_554 S
C2564 C2563 1.415 . S
C2565 H2541 0.951 . S
C2565 C2566 1.366 . S
C2565 C2567 1.388 . S
C2566 C2565 1.366 . S
C2566 C2570 1.385 1_556 S
C2567 H2542 0.951 . S
C2567 C2565 1.388 . S
C2567 C2568 1.366 . S
C2568 C2567 1.366 . S
C2568 C2569 1.414 1_556 S
C2568 C2571 1.499 . S
C2569 H2543 0.950 . S
C2569 C2568 1.414 1_554 S
C2569 C2570 1.374 . S
C2570 H2544 0.950 . S
C2570 C2566 1.385 1_554 S
C2570 C2569 1.374 . S
C2571 C2568 1.499 . S
C2571 C2572 1.373 . S
C2571 C2573 1.389 . S
C2572 H2545 0.950 1_556 S
C2572 C2558 1.377 . S
C2572 C2571 1.373 . S
C2573 C2557 1.377 . S
C2573 C2571 1.389 . S
C2573 C2574 1.524 . S
C2574 C2573 1.524 . S
C2574 C2575 1.378 1_556 S
C2574 C2579 1.363 . S
C2575 H2546 0.969 . S
C2575 C2574 1.378 1_554 S
C2575 C2576 1.336 1_554 S
C2576 H2547 0.928 1_556 S
C2576 C2575 1.336 1_556 S
C2576 C2577 1.310 . S
C2577 C2576 1.310 . S
C2577 C2578 1.524 . S
C2577 H2580 0.999 . S
C2578 H2548 0.950 . S
C2578 C2577 1.524 . S
C2578 C2579 1.415 . S
C2579 H2549 0.950 . S
C2579 C2574 1.363 . S
C2579 C2578 1.415 . S
H2580 C2577 0.999 . S
H2581 C2562 0.914 1_554 S
H2582 C2600 0.951 . S
H2583 C2602 0.951 . S
H2584 C2604 0.950 . S
H2585 C2605 0.950 . S
H2586 C2607 0.950 . S
H2587 C2610 0.950 . S
H2588 C2611 0.950 . S
H2589 C2613 0.950 . S
H2590 C2614 0.950 . S
H2591 C2615 0.951 . S
H2592 C2617 0.951 . S
H2593 C2619 0.950 . S
H2594 C2620 0.950 . S
H2595 C2622 0.950 . S
H2596 C2625 0.950 . S
H2597 C2626 0.950 . S
H2598 C2628 0.950 . S
H2599 C2629 0.950 . S
C2600 H2582 0.951 . S
C2600 C2601 1.366 . S
C2600 C2602 1.388 . S
C2601 C2600 1.366 . S
C2601 C2605 1.385 . S
C2602 H2583 0.951 . S
C2602 C2600 1.388 . S
C2602 C2603 1.366 . S
C2603 C2602 1.366 . S
C2603 C2604 1.414 . S
C2603 C2606 1.499 . S
C2604 H2584 0.950 . S
C2604 C2603 1.414 . S
C2604 C2605 1.374 . S
C2605 H2585 0.950 . S
C2605 C2601 1.385 . S
C2605 C2604 1.374 . S
C2606 C2603 1.499 . S
C2606 C2607 1.373 . S
C2606 C2608 1.389 . S
C2607 H2586 0.950 . S
C2607 C2606 1.373 . S
C2607 C2623 1.377 . S
C2608 C2606 1.389 . S
C2608 C2609 1.524 . S
C2608 C2622 1.377 . S
C2609 C2608 1.524 . S
C2609 C2610 1.397 . S
C2609 C2614 1.363 . S
C2610 H2587 0.950 . S
C2610 C2609 1.397 . S
C2610 C2611 1.334 . S
C2611 H2588 0.950 . S
C2611 C2610 1.334 . S
C2611 C2612 1.287 . S
C2612 C2611 1.287 . S
C2612 C2613 1.524 . S
C2612 H2631 0.913 . S
C2613 H2589 0.950 . S
C2613 C2612 1.524 . S
C2613 C2614 1.415 . S
C2614 H2590 0.950 . S
C2614 C2609 1.363 . S
C2614 C2613 1.415 . S
C2615 H2591 0.951 . S
C2615 C2616 1.366 . S
C2615 C2617 1.388 . S
C2616 C2615 1.366 . S
C2616 C2620 1.385 . S
C2617 H2592 0.951 . S
C2617 C2615 1.388 . S
C2617 C2618 1.366 . S
C2618 C2617 1.366 . S
C2618 C2619 1.414 . S
C2618 C2621 1.499 . S
C2619 H2593 0.950 . S
C2619 C2618 1.414 . S
C2619 C2620 1.374 . S
C2620 H2594 0.950 . S
C2620 C2616 1.385 . S
C2620 C2619 1.374 . S
C2621 C2618 1.499 . S
C2621 C2622 1.373 . S
C2621 C2623 1.389 . S
C2622 H2595 0.950 . S
C2622 C2608 1.377 . S
C2622 C2621 1.373 . S
C2623 C2607 1.377 . S
C2623 C2621 1.389 . S
C2623 C2624 1.524 . S
C2624 C2623 1.524 . S
C2624 C2625 1.397 . S
C2624 C2629 1.363 . S
C2625 H2596 0.950 . S
C2625 C2624 1.397 . S
C2625 C2626 1.334 . S
C2626 H2597 0.950 . S
C2626 C2625 1.334 . S
C2626 C2627 1.287 . S
C2627 C2626 1.287 . S
C2627 C2628 1.524 . S
C2627 H2630 0.999 . S
C2628 H2598 0.950 . S
C2628 C2627 1.524 . S
C2628 C2629 1.415 . S
C2629 H2599 0.950 . S
C2629 C2624 1.363 . S
C2629 C2628 1.415 . S
H2630 C2627 0.999 . S
H2631 C2612 0.913 . S
H2632 C2650 0.951 . S
H2633 C2652 0.951 . S
H2634 C2654 0.950 . S
H2635 C2655 0.950 . S
H2636 C2657 0.950 1_556 S
H2637 C2660 0.950 . S
H2638 C2661 0.950 . S
H2639 C2663 0.950 . S
H2640 C2664 0.950 . S
H2641 C2665 0.956 . S
H2642 C2667 0.951 . S
H2643 C2669 0.950 . S
H2644 C2670 0.950 . S
H2645 C2672 0.950 . S
H2646 C2675 0.950 . S
H2647 C2676 0.950 . S
H2648 C2678 0.950 . S
H2649 C2679 0.950 . S
C2650 H2632 0.951 . S
C2650 C2651 1.366 . S
C2650 C2652 1.388 . S
C2651 C2650 1.366 . S
C2651 C2655 1.385 . S
C2652 H2633 0.951 . S
C2652 C2650 1.388 . S
C2652 C2653 1.366 . S
C2653 C2652 1.366 . S
C2653 C2654 1.414 . S
C2653 C2656 1.499 . S
C2654 H2634 0.950 . S
C2654 C2653 1.414 . S
C2654 C2655 1.374 . S
C2655 H2635 0.950 . S
C2655 C2651 1.385 . S
C2655 C2654 1.374 . S
C2656 C2653 1.499 . S
C2656 C2657 1.373 . S
C2656 C2658 1.389 . S
C2657 H2636 0.950 1_554 S
C2657 C2656 1.373 . S
C2657 C2673 1.393 . S
C2658 C2656 1.389 . S
C2658 C2659 1.524 . S
C2658 C2672 1.377 . S
C2659 C2658 1.524 . S
C2659 C2660 1.397 . S
C2659 C2664 1.363 . S
C2660 H2637 0.950 . S
C2660 C2659 1.397 . S
C2660 C2661 1.334 . S
C2661 H2638 0.950 . S
C2661 C2660 1.334 . S
C2661 C2662 1.287 . S
C2662 C2661 1.287 . S
C2662 C2663 1.524 . S
C2662 H2681 0.913 . S
C2663 H2639 0.950 . S
C2663 C2662 1.524 . S
C2663 C2664 1.415 . S
C2664 H2640 0.950 . S
C2664 C2659 1.363 . S
C2664 C2663 1.415 . S
C2665 H2641 0.956 . S
C2665 C2666 1.366 . S
C2665 C2667 1.388 . S
C2666 C2665 1.366 . S
C2666 C2670 1.385 . S
C2667 H2642 0.951 . S
C2667 C2665 1.388 . S
C2667 C2668 1.366 . S
C2668 C2667 1.366 . S
C2668 C2669 1.414 . S
C2668 C2671 1.499 . S
C2669 H2643 0.950 . S
C2669 C2668 1.414 . S
C2669 C2670 1.374 . S
C2670 H2644 0.950 . S
C2670 C2666 1.385 . S
C2670 C2669 1.374 . S
C2671 C2668 1.499 . S
C2671 C2672 1.373 . S
C2671 C2673 1.416 . S
C2672 H2645 0.950 . S
C2672 C2658 1.377 . S
C2672 C2671 1.373 . S
C2673 C2657 1.393 . S
C2673 C2671 1.416 . S
C2673 C2674 1.480 1_554 S
C2674 C2673 1.480 1_556 S
C2674 C2675 1.397 . S
C2674 C2679 1.363 . S
C2675 H2646 0.950 . S
C2675 C2674 1.397 . S
C2675 C2676 1.334 . S
C2676 H2647 0.950 . S
C2676 C2675 1.334 . S
C2676 C2677 1.287 . S
C2677 C2676 1.287 . S
C2677 C2678 1.524 . S
C2677 H2680 0.999 . S
C2678 H2648 0.950 . S
C2678 C2677 1.524 . S
C2678 C2679 1.415 . S
C2679 H2649 0.950 . S
C2679 C2674 1.363 . S
C2679 C2678 1.415 . S
H2680 C2677 0.999 . S
H2681 C2662 0.913 . S
H2682 C2700 0.951 . S
H2683 C2702 0.951 . S
H2684 C2704 0.950 1_565 S
H2685 C2705 0.950 . S
H2686 C2707 0.950 . S
H2687 C2710 0.950 . S
H2688 C2711 0.949 1_565 S
H2689 C2713 0.950 . S
H2690 C2714 0.950 . S
H2691 C2715 0.951 . S
H2692 C2717 0.951 . S
H2693 C2719 0.950 . S
H2694 C2720 0.950 . S
H2695 C2722 0.950 . S
H2696 C2725 0.950 . S
H2697 C2726 0.950 . S
H2698 C2728 0.950 . S
H2699 C2729 0.950 . S
C2700 H2682 0.951 . S
C2700 C2701 1.366 . S
C2700 C2702 1.388 . S
C2701 C2700 1.366 . S
C2701 C2705 1.385 . S
C2702 H2683 0.951 . S
C2702 C2700 1.388 . S
C2702 C2703 1.366 . S
C2703 C2702 1.366 . S
C2703 C2704 1.414 . S
C2703 C2706 1.499 1_545 S
C2704 H2684 0.950 1_545 S
C2704 C2703 1.414 . S
C2704 C2705 1.374 . S
C2705 H2685 0.950 . S
C2705 C2701 1.385 . S
C2705 C2704 1.374 . S
C2706 C2703 1.499 1_565 S
C2706 C2707 1.373 . S
C2706 C2708 1.389 . S
C2707 H2686 0.950 . S
C2707 C2706 1.373 . S
C2707 C2723 1.377 . S
C2708 C2706 1.389 . S
C2708 C2709 1.524 1_565 S
C2708 C2722 1.377 . S
C2709 C2708 1.524 1_545 S
C2709 C2710 1.397 1_545 S
C2709 C2714 1.363 . S
C2710 H2687 0.950 . S
C2710 C2709 1.397 1_565 S
C2710 C2711 1.320 1_564 S
C2711 H2688 0.949 1_545 S
C2711 C2710 1.320 1_546 S
C2711 C2712 1.304 . S
C2712 C2711 1.304 . S
C2712 C2713 1.524 . S
C2712 H2731 0.913 . S
C2713 H2689 0.950 . S
C2713 C2712 1.524 . S
C2713 C2714 1.415 1_556 S
C2714 H2690 0.950 . S
C2714 C2709 1.363 . S
C2714 C2713 1.415 1_554 S
C2715 H2691 0.951 . S
C2715 C2716 1.366 . S
C2715 C2717 1.388 . S
C2716 C2715 1.366 . S
C2716 C2720 1.385 . S
C2717 H2692 0.951 . S
C2717 C2715 1.388 . S
C2717 C2718 1.366 . S
C2718 C2717 1.366 . S
C2718 C2719 1.414 . S
C2718 C2721 1.499 . S
C2719 H2693 0.950 . S
C2719 C2718 1.414 . S
C2719 C2720 1.374 . S
C2720 H2694 0.950 . S
C2720 C2716 1.385 . S
C2720 C2719 1.374 . S
C2721 C2718 1.499 . S
C2721 C2722 1.373 . S
C2721 C2723 1.389 . S
C2722 H2695 0.950 . S
C2722 C2708 1.377 . S
C2722 C2721 1.373 . S
C2723 C2707 1.377 . S
C2723 C2721 1.389 . S
C2723 C2724 1.524 . S
C2724 C2723 1.524 . S
C2724 C2725 1.397 . S
C2724 C2729 1.363 . S
C2725 H2696 0.950 . S
C2725 C2724 1.397 . S
C2725 C2726 1.334 . S
C2726 H2697 0.950 . S
C2726 C2725 1.334 . S
C2726 C2727 1.287 . S
C2727 C2726 1.287 . S
C2727 C2728 1.524 . S
C2727 H2730 0.999 . S
C2728 H2698 0.950 . S
C2728 C2727 1.524 . S
C2728 C2729 1.415 . S
C2729 H2699 0.950 . S
C2729 C2724 1.363 . S
C2729 C2728 1.415 . S
H2730 C2727 0.999 . S
H2731 C2712 0.913 . S
C366 C186 1.507 1_556 S
C351 C60 1.521 . S
C416 C199 1.378 . S
C401 C76 1.382 . S
C451 C81 1.632 . S
C466 C212 1.610 . S
C516 C225 1.609 . S
C501 C48 1.642 . S
C566 C233 1.465 . S
C551 C115 1.478 . S
C616 C246 1.545 . S
C601 C136 1.560 . S
C651 C131 1.349 . S
C666 C259 1.308 . S
C716 C272 1.486 . S
C701 C104 1.506 . S
C751 C126 1.427 . S
C766 C290 1.403 . S
C816 C301 1.404 . S
C801 C103 1.442 . S
C851 C120 1.360 . S
C866 C285 1.334 . S
C916 C293 1.398 . S
C901 C142 1.409 . S
C951 C82 1.451 . S
C966 C316 1.444 . S
C1001 C54 1.850 . S
C1016 C306 1.823 . S
C1051 C65 1.439 . S
C1066 C311 1.424 . S
C1101 C71 1.289 . S
C1116 C314 1.276 . S
C1151 C37 1.525 . S
C1166 C223 1.509 1_565 S
C1201 C158 1.968 . S
C1216 C215 1.960 . S
C1266 C184 1.439 . S
C1251 C169 1.453 . S
C1316 C189 1.171 . S
C1301 C98 1.195 . S
C1351 C49 1.785 1_545 S
C1366 C236 1.755 . S
C1416 C275 1.429 . S
C1401 C125 1.463 . S
C1466 C228 1.353 . S
C1451 C109 1.360 . S
C1516 C254 1.757 . S
C1501 C137 1.803 . S
C1566 C264 1.507 . S
C1551 C159 1.521 . S
C1601 C175 1.382 . S
C1616 C277 1.378 . S
C1651 C92 1.631 . S
C1666 C238 1.610 . S
C1716 C251 1.609 . S
C1701 C147 1.643 . S
C1751 C38 1.477 . S
C1766 C207 1.465 . S
C1816 C220 1.545 . S
C1801 C4 1.560 . S
C1866 C181 1.308 . S
C1851 C21 1.349 . S
C1916 C194 1.486 . S
C1901 C27 1.505 . S
C1951 C16 1.427 . S
C1966 C303 1.404 . S
C2001 C26 1.442 . S
C2016 C288 1.405 . S
C2051 C43 1.359 . S
C2066 C298 1.333 . S
C2101 C10 1.409 . S
C2116 C280 1.398 . S
C2166 C329 1.443 . S
C2151 C93 1.451 . S
C2216 C319 1.823 . S
C2201 C153 1.850 . S
C2266 C324 1.423 . S
C2251 C164 1.439 . S
C2301 C170 1.290 . S
C2316 C327 1.276 . S
C2351 C114 1.525 . S
C2366 C249 1.510 . S
C2416 C241 1.960 . S
C2401 C59 1.968 . S
C2466 C262 1.438 . S
C2451 C70 1.453 . S
C2516 C267 1.171 . S
C2501 C87 1.195 . S
C2551 C148 1.785 . S
C2566 C210 1.757 . S
C2616 C197 1.429 . S
C2601 C15 1.463 . S
C2651 C32 1.360 . S
C2666 C202 1.350 . S
C2716 C176 1.757 . S
C2701 C5 1.803 . S
