# Generated by pormake.
# Topology zzz, (3,6)-cn, num edge types: 1
# Building blocks:
#     Node 0, Type 0, BuildingBlock: BETDAH_clean_linker_0, # of connection points: 3
#     Node 1, Type 0, BuildingBlock: BETDAH_clean_linker_0, # of connection points: 3
#     Node 2, Type 0, BuildingBlock: BETDAH_clean_linker_0, # of connection points: 3
#     Node 3, Type 0, BuildingBlock: BETDAH_clean_linker_0, # of connection points: 3
#     Node 4, Type 0, BuildingBlock: BETDAH_clean_linker_0, # of connection points: 3
#     Node 5, Type 0, BuildingBlock: BETDAH_clean_linker_0, # of connection points: 3
#     Node 6, Type 0, BuildingBlock: BETDAH_clean_linker_0, # of connection points: 3
#     Node 7, Type 0, BuildingBlock: BETDAH_clean_linker_0, # of connection points: 3
#     Node 8, Type 1, BuildingBlock: FUNLAD_clean_sbu_0, # of connection points: 6
#     Node 9, Type 1, BuildingBlock: FUNLAD_clean_sbu_0, # of connection points: 6
#     Node 10, Type 1, BuildingBlock: FUNLAD_clean_sbu_0, # of connection points: 6
#     Node 11, Type 1, BuildingBlock: FUNLAD_clean_sbu_0, # of connection points: 6
#     Edge 12, Type (0, 1), BuildingBlock: CIFDUS_clean_linker_0, # of connection points: 2
#     Edge 13, Type (0, 1), BuildingBlock: CIFDUS_clean_linker_0, # of connection points: 2
#     Edge 14, Type (0, 1), BuildingBlock: CIFDUS_clean_linker_0, # of connection points: 2
#     Edge 15, Type (0, 1), BuildingBlock: CIFDUS_clean_linker_0, # of connection points: 2
#     Edge 16, Type (0, 1), BuildingBlock: CIFDUS_clean_linker_0, # of connection points: 2
#     Edge 17, Type (0, 1), BuildingBlock: CIFDUS_clean_linker_0, # of connection points: 2
#     Edge 18, Type (0, 1), BuildingBlock: CIFDUS_clean_linker_0, # of connection points: 2
#     Edge 19, Type (0, 1), BuildingBlock: CIFDUS_clean_linker_0, # of connection points: 2
#     Edge 20, Type (0, 1), BuildingBlock: CIFDUS_clean_linker_0, # of connection points: 2
#     Edge 21, Type (0, 1), BuildingBlock: CIFDUS_clean_linker_0, # of connection points: 2
#     Edge 22, Type (0, 1), BuildingBlock: CIFDUS_clean_linker_0, # of connection points: 2
#     Edge 23, Type (0, 1), BuildingBlock: CIFDUS_clean_linker_0, # of connection points: 2
#     Edge 24, Type (0, 1), BuildingBlock: CIFDUS_clean_linker_0, # of connection points: 2
#     Edge 25, Type (0, 1), BuildingBlock: CIFDUS_clean_linker_0, # of connection points: 2
#     Edge 26, Type (0, 1), BuildingBlock: CIFDUS_clean_linker_0, # of connection points: 2
#     Edge 27, Type (0, 1), BuildingBlock: CIFDUS_clean_linker_0, # of connection points: 2
#     Edge 28, Type (0, 1), BuildingBlock: CIFDUS_clean_linker_0, # of connection points: 2
#     Edge 29, Type (0, 1), BuildingBlock: CIFDUS_clean_linker_0, # of connection points: 2
#     Edge 30, Type (0, 1), BuildingBlock: CIFDUS_clean_linker_0, # of connection points: 2
#     Edge 31, Type (0, 1), BuildingBlock: CIFDUS_clean_linker_0, # of connection points: 2
#     Edge 32, Type (0, 1), BuildingBlock: CIFDUS_clean_linker_0, # of connection points: 2
#     Edge 33, Type (0, 1), BuildingBlock: CIFDUS_clean_linker_0, # of connection points: 2
#     Edge 34, Type (0, 1), BuildingBlock: CIFDUS_clean_linker_0, # of connection points: 2
#     Edge 35, Type (0, 1), BuildingBlock: CIFDUS_clean_linker_0, # of connection points: 2
# Relax obj value: 0.115
# Max RMSD: 0.175
# Mean RMSD: 0.092
data_MOF--net-zzz--node1-FUNLAD_clean_sbu_0--node2-BETDAH_clean_linker_0--edge1-CIFDUS_clean_linker_0
_symmetry_space_group_name_H-M    P1
_symmetry_Int_Tables_number       1
_symmetry_cell_setting            triclinic
loop_
_symmetry_equiv_pos_as_xyz
'x, y, z'
_cell_length_a     45.337903
_cell_length_b     50.849155
_cell_length_c     15.420586
_cell_angle_alpha  84.804996
_cell_angle_beta   84.13235
_cell_angle_gamma 89.708107
loop_
_atom_site_label
_atom_site_type_symbol
_atom_site_fract_x
_atom_site_fract_y
_atom_site_fract_z
_atom_type_partial_charge
H0 H 0.89151 0.4799 0.243 0.0
H1 H 0.80364 0.4762 0.16929 0.0
H2 H 0.81827 0.50504 0.41621 0.0
C3 C 0.86792 0.4819 0.26092 0.0
C4 C 0.85761 0.49259 0.33906 0.0
C5 C 0.8486 0.47516 0.20156 0.0
C6 C 0.81833 0.48042 0.21745 0.0
C7 C 0.80738 0.49137 0.29523 0.0
C8 C 0.82698 0.49688 0.35635 0.0
N9 N 0.77697 0.49772 0.31276 0.0
C10 C 0.75767 0.50053 0.24817 0.0
H11 H 0.99865 0.86474 0.15057 0.0
H12 H 0.0092 0.79432 0.0165 0.0
H13 H 0.95046 0.79475 0.25574 0.0
C14 C 0.99333 0.8441 0.14683 0.0
C15 C 0.97269 0.83153 0.21017 0.0
C16 C 1.00685 0.83087 0.07779 0.0
C17 C 0.99938 0.80436 0.07133 0.0
C18 C 0.97912 0.79113 0.13647 0.0
C19 C 0.96609 0.80482 0.20596 0.0
N20 N 0.97089 0.76429 0.13447 0.0
C21 C 0.98122 0.74778 0.07088 0.0
H22 H 0.66249 0.01082 0.1441 0.0
H23 H 0.74841 0.01983 -0.0018 0.0
H24 H 0.73986 0.01359 0.28131 0.0
C25 C 0.68642 0.01233 0.14304 0.0
C26 C 0.699 0.01136 0.22194 0.0
C27 C 0.70387 0.01547 0.06263 0.0
C28 C 0.73488 0.01763 0.06051 0.0
C29 C 0.74806 0.0168 0.14001 0.0
C30 C 0.72986 0.01412 0.22028 0.0
N31 N 0.77927 0.01863 0.14295 0.0
C32 C 0.80116 0.017 0.07311 0.0
H33 H 0.51234 0.62001 0.1873 0.0
H34 H 0.51311 0.69669 0.04499 0.0
H35 H 0.54875 0.68628 0.29469 0.0
C36 C 0.51733 0.64097 0.18317 0.0
C37 C 0.53143 0.65109 0.24954 0.0
C38 C 0.51053 0.65725 0.10979 0.0
C39 C 0.51754 0.68428 0.10306 0.0
C40 C 0.53098 0.6949 0.17087 0.0
C41 C 0.53788 0.67818 0.24354 0.0
N42 N 0.53889 0.72198 0.16736 0.0
C43 C 0.52956 0.74182 0.10834 0.0
H44 H 0.16981 0.51672 0.24065 0.0
H45 H 0.25769 0.51922 0.31863 0.0
H46 H 0.24462 0.5132 0.04727 0.0
C47 C 0.19364 0.5166 0.22346 0.0
C48 C 0.20488 0.51444 0.13676 0.0
C49 C 0.21257 0.51857 0.28854 0.0
C50 C 0.24329 0.518 0.2673 0.0
C51 C 0.25506 0.51619 0.17967 0.0
C52 C 0.23569 0.51467 0.11457 0.0
N53 N 0.28609 0.51571 0.1551 0.0
C54 C 0.30714 0.51646 0.21436 0.0
H55 H 0.08743 0.1546 0.40442 0.0
H56 H 0.05922 0.23259 0.45415 0.0
H57 H 0.09479 0.21695 0.19455 0.0
C58 C 0.0851 0.17508 0.37995 0.0
C59 C 0.09129 0.18285 0.29044 0.0
C60 C 0.07151 0.19235 0.43704 0.0
C61 C 0.06979 0.21924 0.40975 0.0
C62 C 0.08039 0.22839 0.32317 0.0
C63 C 0.08973 0.21 0.26289 0.0
N64 N 0.07994 0.25563 0.29324 0.0
C65 C 0.07803 0.27587 0.34862 0.0
H66 H 0.37139 0.00621 0.28798 0.0
H67 H 0.28641 0.01678 0.43048 0.0
H68 H 0.29637 0.02656 0.1474 0.0
C69 C 0.34781 0.01005 0.28786 0.0
C70 C 0.33606 0.01571 0.20816 0.0
C71 C 0.33024 0.01024 0.36769 0.0
C72 C 0.29994 0.01633 0.36853 0.0
C73 C 0.28747 0.02199 0.28858 0.0
C74 C 0.30582 0.02205 0.20877 0.0
N75 N 0.25684 0.02794 0.28526 0.0
C76 C 0.23481 0.02515 0.35572 0.0
H77 H 0.50403 0.37505 0.34744 0.0
H78 H 0.50938 0.29449 0.45188 0.0
H79 H 0.48952 0.31273 0.18519 0.0
C80 C 0.50306 0.35424 0.33745 0.0
C81 C 0.49677 0.34647 0.25644 0.0
C82 C 0.50832 0.33571 0.40666 0.0
C83 C 0.50562 0.30871 0.39751 0.0
C84 C 0.49839 0.30038 0.3174 0.0
C85 C 0.49418 0.31932 0.24727 0.0
N86 N 0.49563 0.27325 0.30424 0.0
C87 C 0.49942 0.25239 0.36702 0.0
C88 C 0.02937 0.96099 0.78864 0.0
N89 N 0.98936 0.98924 0.57102 0.0
C90 C 1.00691 0.97005 0.53747 0.0
C91 C 0.99542 0.95164 0.48876 0.0
C92 C 0.96552 0.95281 0.4737 0.0
C93 C 0.94814 0.97375 0.50352 0.0
C94 C 0.96056 0.99182 0.55336 0.0
Zn95 Zn 1.0069 0.00709 0.6686 0.0
C96 C 0.96405 0.0108 0.82351 0.0
N97 N 0.04873 0.03458 0.8782 0.0
C98 C 0.07673 0.03053 0.90143 0.0
C99 C 0.03087 0.05321 0.91408 0.0
C100 C 0.04069 0.06846 0.97564 0.0
C101 C 0.06932 0.0649 0.00037 0.0
C102 C 0.08762 0.04567 0.96315 0.0
Zn103 Zn 0.03152 0.01726 0.77902 0.0
O104 O 0.01546 0.96865 0.72371 0.0
C105 C 0.07425 0.01401 0.62348 0.0
O106 O 0.04032 0.97816 0.83153 0.0
H107 H 0.00906 0.05685 0.89338 0.0
H108 H 0.02946 0.9677 0.55348 0.0
H109 H 0.09076 0.01595 0.87114 0.0
O110 O 0.04986 0.00884 0.59424 0.0
O111 O 0.07392 0.01868 0.70324 0.0
H112 H 0.9468 0.00691 0.58176 0.0
O113 O 0.02276 0.05583 0.72418 0.0
O114 O 0.99843 0.04583 0.61558 0.0
O115 O 0.98845 0.0154 0.85358 0.0
O116 O 0.96451 0.0062 0.74375 0.0
C117 C 0.00912 0.06317 0.65828 0.0
H118 H 0.00963 0.93602 0.46539 0.0
H119 H 0.92498 0.9753 0.49224 0.0
H120 H 0.02607 0.08316 0.00334 0.0
H121 H 0.10984 0.04241 0.98168 0.0
C122 C 0.46913 0.98666 0.62328 0.0
N123 N 0.5147 0.05535 0.66448 0.0
C124 C 0.51118 0.06072 0.57809 0.0
C125 C 0.50647 0.08645 0.54354 0.0
C126 C 0.50558 0.10715 0.59786 0.0
C127 C 0.5105 0.10142 0.68611 0.0
C128 C 0.51483 0.0751 0.71855 0.0
Zn129 Zn 0.51681 0.01576 0.70559 0.0
C130 C 0.47513 0.99882 0.85731 0.0
N131 N 0.51861 0.93196 0.76492 0.0
C132 C 0.51959 0.91333 0.70656 0.0
C133 C 0.51897 0.92496 0.85211 0.0
C134 C 0.52008 0.89846 0.8838 0.0
C135 C 0.52119 0.87879 0.82536 0.0
C136 C 0.52109 0.88647 0.73551 0.0
Zn137 Zn 0.51704 0.97165 0.7261 0.0
O138 O 0.48001 0.00905 0.63349 0.0
C139 C 0.55899 0.98858 0.57518 0.0
O140 O 0.48154 0.96578 0.65283 0.0
H141 H 0.51861 0.94 0.89747 0.0
H142 H 0.51126 0.04487 0.53587 0.0
H143 H 0.51931 0.9193 0.63752 0.0
O144 O 0.54892 0.01068 0.59704 0.0
O145 O 0.54841 0.96735 0.61634 0.0
H146 H 0.51758 0.07042 0.78708 0.0
O147 O 0.55261 0.97787 0.79876 0.0
O148 O 0.55342 0.02121 0.77972 0.0
O149 O 0.48555 0.97687 0.83505 0.0
O150 O 0.48501 0.02018 0.81519 0.0
C151 C 0.56457 0.99967 0.81012 0.0
H152 H 0.50319 0.0901 0.47488 0.0
H153 H 0.50994 0.11693 0.72997 0.0
H154 H 0.52067 0.89344 0.95339 0.0
H155 H 0.5219 0.87187 0.68838 0.0
C156 C 0.54431 0.45051 0.66857 0.0
N157 N 0.46746 0.49662 0.67438 0.0
C158 C 0.46988 0.49069 0.58965 0.0
C159 C 0.44544 0.49224 0.54205 0.0
C160 C 0.41798 0.50023 0.58115 0.0
C161 C 0.41562 0.50539 0.6697 0.0
C162 C 0.4409 0.50356 0.71542 0.0
Zn163 Zn 0.50702 0.49734 0.7279 0.0
C164 C 0.51138 0.46809 0.89047 0.0
N165 N 0.5947 0.4994 0.79978 0.0
C166 C 0.62109 0.49206 0.75876 0.0
C167 C 0.59274 0.5067 0.88289 0.0
C168 C 0.61762 0.50654 0.92852 0.0
C169 C 0.64511 0.4988 0.88882 0.0
C170 C 0.64677 0.49156 0.8025 0.0
Zn171 Zn 0.55509 0.49799 0.74731 0.0
O172 O 0.51915 0.46168 0.67274 0.0
C173 C 0.55114 0.52793 0.58689 0.0
O174 O 0.56625 0.46177 0.69489 0.0
H175 H 0.57158 0.51204 0.91524 0.0
H176 H 0.49113 0.48548 0.55753 0.0
H177 H 0.62212 0.48615 0.69286 0.0
O178 O 0.5245 0.52138 0.6134 0.0
O179 O 0.57206 0.51943 0.63041 0.0
H180 H 0.4395 0.50839 0.7826 0.0
O181 O 0.54338 0.53457 0.79627 0.0
O182 O 0.49548 0.5328 0.78595 0.0
O183 O 0.53748 0.47645 0.86504 0.0
O184 O 0.4905 0.47385 0.843 0.0
C185 C 0.51791 0.54507 0.80531 0.0
H186 H 0.44815 0.48757 0.47454 0.0
H187 H 0.39479 0.51164 0.70218 0.0
H188 H 0.61505 0.51164 -0.00443 0.0
H189 H 0.66758 0.48549 0.76947 0.0
C190 C 0.07995 0.52211 0.64379 0.0
N191 N 0.04148 0.4466 0.7018 0.0
C192 C 0.05112 0.44517 0.6158 0.0
C193 C 0.05529 0.42081 0.58172 0.0
C194 C 0.04948 0.39739 0.63619 0.0
C195 C 0.03983 0.39932 0.7251 0.0
C196 C 0.03601 0.42427 0.75676 0.0
Zn197 Zn 0.03314 0.48398 0.74008 0.0
C198 C 0.06424 0.49784 0.88022 0.0
N199 N 0.01681 0.56448 0.78865 0.0
C200 C 0.01878 0.58673 0.73197 0.0
C201 C 0.00868 0.56583 0.87558 0.0
C202 C 1.00121 0.58989 0.90822 0.0
C203 C 1.00248 0.61308 0.85144 0.0
C204 C 0.01188 0.61148 0.76239 0.0
Zn205 Zn 0.02514 0.52706 0.75083 0.0
O206 O 0.07303 0.498 0.66535 0.0
C207 C 0.99535 0.51206 0.6079 0.0
O208 O 0.06234 0.54018 0.66768 0.0
H209 H 0.00767 0.54808 0.92002 0.0
H210 H 0.05491 0.46304 0.57255 0.0
H211 H 0.02538 0.58528 0.66316 0.0
O212 O 0.00908 0.49139 0.63269 0.0
O213 O 0.99732 0.5328 0.64736 0.0
H214 H 0.0282 0.42579 0.82478 0.0
O215 O 0.98739 0.51345 0.83123 0.0
O216 O 0.9929 0.47116 0.81546 0.0
O217 O 0.0538 0.52003 0.85292 0.0
O218 O 0.05719 0.47697 0.84779 0.0
C219 C 0.97745 0.49001 0.84447 0.0
H220 H 0.06213 0.42041 0.51248 0.0
H221 H 0.03521 0.38177 0.7696 0.0
H222 H 0.99442 0.59038 0.9775 0.0
H223 H 0.01309 0.62901 0.71668 0.0
H224 H 0.18002 0.0141 0.32101 0.0
H225 H 0.2309 0.0317 0.52955 0.0
H226 H 0.18559 0.02967 0.6325 0.0
H227 H 0.13104 0.02351 0.66188 0.0
H228 H 0.08093 0.00599 0.45034 0.0
H229 H 0.12615 0.00738 0.35037 0.0
C230 C 0.18111 0.01734 0.38922 0.0
C231 C 0.20855 0.02294 0.41822 0.0
C232 C 0.15503 0.01624 0.44742 0.0
C233 C 0.20989 0.02726 0.50626 0.0
C234 C 0.184 0.02614 0.56488 0.0
C235 C 0.13002 0.01996 0.59397 0.0
C236 C 0.10242 0.01469 0.56408 0.0
C237 C 0.15635 0.02076 0.53612 0.0
C238 C 0.10168 0.01012 0.47563 0.0
C239 C 0.12761 0.01089 0.4181 0.0
H240 H 0.46439 0.21002 0.38464 0.0
H241 H 0.54193 0.24211 0.47641 0.0
H242 H 0.54961 0.2002 0.5638 0.0
H243 H 0.53592 0.15316 0.6052 0.0
H244 H 0.45895 0.12143 0.50791 0.0
H245 H 0.44912 0.16434 0.43237 0.0
C246 C 0.48272 0.20782 0.42477 0.0
C247 C 0.50259 0.22881 0.42479 0.0
C248 C 0.48711 0.18368 0.47345 0.0
C249 C 0.5264 0.22601 0.4761 0.0
C250 C 0.53078 0.20208 0.52572 0.0
C251 C 0.51678 0.15586 0.56855 0.0
C252 C 0.4983 0.13416 0.56153 0.0
C253 C 0.51153 0.1806 0.52382 0.0
C254 C 0.47365 0.1378 0.51339 0.0
C255 C 0.46801 0.16231 0.47021 0.0
H256 H 0.30238 0.49767 0.38405 0.0
H257 H 0.36174 0.53686 0.17686 0.0
H258 H 0.40099 0.53685 0.27487 0.0
H259 H 0.41879 0.52424 0.41712 0.0
H260 H 0.36025 0.48417 0.62497 0.0
H261 H 0.31991 0.48655 0.53004 0.0
C262 C 0.3239 0.50632 0.36105 0.0
C263 C 0.32951 0.5172 0.27398 0.0
C264 C 0.34631 0.50616 0.41781 0.0
C265 C 0.35724 0.52837 0.24394 0.0
C266 C 0.37958 0.52836 0.29984 0.0
C267 C 0.39721 0.51595 0.44165 0.0
C268 C 0.39259 0.50373 0.52754 0.0
C269 C 0.37444 0.51706 0.38651 0.0
C270 C 0.36432 0.49372 0.55915 0.0
C271 C 0.34135 0.49491 0.50471 0.0
H272 H 0.0381 0.28665 0.48294 0.0
H273 H 0.11789 0.31508 0.32786 0.0
H274 H 0.11734 0.35462 0.40764 0.0
H275 H 0.09306 0.38188 0.51692 0.0
H276 H 0.01232 0.35444 0.67012 0.0
H277 H 0.01466 0.31354 0.59759 0.0
C278 C 0.05538 0.30152 0.46742 0.0
C279 C 0.07796 0.29827 0.39991 0.0
C280 C 0.05478 0.32427 0.51339 0.0
C281 C 0.10032 0.3174 0.37976 0.0
C282 C 0.09999 0.33995 0.42526 0.0
C283 C 0.07592 0.36698 0.53445 0.0
C284 C 0.05243 0.37139 0.59851 0.0
C285 C 0.07714 0.34374 0.49145 0.0
C286 C 0.03079 0.35155 0.62164 0.0
C287 C 0.03198 0.32822 0.57961 0.0
H288 H 0.85644 0.01929 0.11597 0.0
H289 H 0.80587 0.0105 0.89881 0.0
H290 H 0.85201 0.00718 0.8014 0.0
H291 H 0.90707 0.00714 0.77868 0.0
H292 H 0.95684 0.01638 -0.00158 0.0
H293 H 0.91089 0.01903 0.09386 0.0
C294 C 0.85563 0.01667 0.04719 0.0
C295 C 0.82803 0.01519 0.0141 0.0
C296 C 0.88215 0.01479 0.99215 0.0
C297 C 0.82701 0.01174 0.92528 0.0
C298 C 0.85337 0.00982 0.86982 0.0
C299 C 0.90786 0.00963 0.8475 0.0
C300 C 0.93556 0.01152 0.88099 0.0
C301 C 0.88114 0.01134 0.90253 0.0
C302 C 0.93601 0.01486 0.97045 0.0
C303 C 0.90968 0.01641 0.02533 0.0
H304 H 0.55546 0.76189 0.95147 0.0
H305 H 0.4852 0.77437 0.15335 0.0
H306 H 0.47468 0.81756 0.07935 0.0
H307 H 0.48827 0.85315 0.96396 0.0
H308 H 0.55898 0.84129 0.76235 0.0
H309 H 0.56628 0.79637 0.82815 0.0
C310 C 0.53752 0.77397 0.97794 0.0
C311 C 0.52098 0.76523 0.05713 0.0
C312 C 0.53187 0.79888 0.93538 0.0
C313 C 0.49799 0.78086 0.09195 0.0
C314 C 0.49211 0.80554 0.04995 0.0
C315 C 0.50516 0.84065 0.9342 0.0
C316 C 0.52327 0.85059 0.85898 0.0
C317 C 0.50934 0.81499 0.97274 0.0
C318 C 0.54471 0.83405 0.82012 0.0
C319 C 0.549 0.80843 0.85803 0.0
H320 H 0.74924 0.46895 0.12205 0.0
H321 H 0.72172 0.54195 0.22657 0.0
H322 H 0.68618 0.54931 0.11746 0.0
H323 H 0.66142 0.53387 -0.00222 0.0
H324 H 0.68706 0.45985 0.8963 0.0
H325 H 0.72558 0.45435 -0.00345 0.0
C326 C 0.73547 0.48647 0.1202 0.0
C327 C 0.73763 0.50486 0.18178 0.0
C328 C 0.71503 0.49044 0.05759 0.0
C329 C 0.72005 0.52757 0.17952 0.0
C330 C 0.69986 0.53177 0.11725 0.0
C331 C 0.67545 0.51653 -0.00252 0.0
C332 C 0.67115 0.49717 0.94026 0.0
C333 C 0.69691 0.51317 0.05676 0.0
C334 C 0.69001 0.47514 0.93923 0.0
C335 C 0.71184 0.47185 -0.00281 0.0
H336 H 0.94778 0.7059 0.05911 0.0
H337 H 0.03107 0.74291 0.95956 0.0
H338 H 0.04437 0.70499 0.8751 0.0
H339 H 0.03326 0.65969 0.8381 0.0
H340 H 0.95037 0.62276 0.9445 0.0
H341 H 0.93572 0.6622 0.01707 0.0
C342 C 0.96868 0.7057 0.01796 0.0
C343 C 0.98846 0.72692 0.01478 0.0
C344 C 0.9762 0.68379 0.97119 0.0
C345 C 0.01555 0.72665 0.96224 0.0
C346 C 0.02313 0.70498 0.91432 0.0
C347 C 0.01184 0.66056 0.87611 0.0
C348 C 0.99293 0.63837 0.88632 0.0
C349 C 1.00379 0.68322 0.9193 0.0
C350 C 0.96534 0.63955 0.93635 0.0
C351 C 0.95696 0.66207 0.97786 0.0
H352 H 0.01784 0.17208 0.43673 0.0
H353 H 0.08658 0.1822 0.60379 0.0
H354 H 0.06785 0.14385 0.7012 0.0
H355 H 0.04046 0.10212 0.7157 0.0
H356 H 0.97803 0.08802 0.5312 0.0
H357 H 0.98566 0.13311 0.46301 0.0
C358 C 0.02765 0.16659 0.49712 0.0
C359 C 0.0533 0.17987 0.51404 0.0
C360 C 0.01861 0.14314 0.54719 0.0
C361 C 0.06652 0.17246 0.59072 0.0
C362 C 0.05618 0.1502 0.64507 0.0
C363 C 0.02798 0.10904 0.66174 0.0
C364 C 0.00909 0.09157 0.62737 0.0
C365 C 0.03358 0.13446 0.6204 0.0
C366 C 0.99301 0.10094 0.55792 0.0
C367 C 0.99736 0.12672 0.51906 0.0
H368 H 0.35916 0.96635 0.42036 0.0
H369 H 0.338 0.04517 0.48682 0.0
H370 H 0.37949 0.04436 0.57717 0.0
H371 H 0.42631 0.02394 0.61613 0.0
H372 H 0.44829 0.94553 0.54495 0.0
H373 H 0.40222 0.94356 0.47588 0.0
C374 C 0.36298 0.98287 0.45775 0.0
C375 C 0.34567 0.00576 0.44748 0.0
C376 C 0.38768 0.98271 0.5055 0.0
C377 C 0.35083 0.02724 0.49497 0.0
C378 C 0.37491 0.02696 0.545 0.0
C379 C 0.42098 0.00642 0.58551 0.0
C380 C 0.44099 0.98516 0.58348 0.0
C381 C 0.39433 0.00533 0.5469 0.0
C382 C 0.43344 0.96228 0.546 0.0
C383 C 0.40706 0.9611 0.507 0.0
H384 H 0.5602 0.35796 0.42959 0.0
H385 H 0.47331 0.33851 0.5586 0.0
H386 H 0.47898 0.3712 0.66299 0.0
H387 H 0.50423 0.41122 0.69542 0.0
H388 H 0.5905 0.43194 0.56347 0.0
H389 H 0.58984 0.39267 0.48221 0.0
C390 C 0.54319 0.3601 0.48331 0.0
C391 C 0.51643 0.34599 0.48722 0.0
C392 C 0.5462 0.37964 0.54042 0.0
C393 C 0.49419 0.349 0.5556 0.0
C394 C 0.49726 0.36798 0.61414 0.0
C395 C 0.52313 0.40678 0.65009 0.0
C396 C 0.54709 0.42457 0.63348 0.0
C397 C 0.52243 0.38439 0.60374 0.0
C398 C 0.57176 0.41852 0.57639 0.0
C399 C 0.57131 0.39617 0.52989 0.0
H400 H 0.17976 0.55832 0.34834 0.0
H401 H 0.21341 0.48135 0.42568 0.0
H402 H 0.17622 0.47687 0.55316 0.0
H403 H 0.12865 0.49143 0.62385 0.0
H404 H 0.09391 0.56787 0.54217 0.0
H405 H 0.13712 0.57618 0.435 0.0
C406 C 0.17958 0.54108 0.39539 0.0
C407 C 0.19896 0.52014 0.37848 0.0
C408 C 0.15749 0.5383 0.46588 0.0
C409 C 0.19873 0.49773 0.43855 0.0
C410 C 0.1772 0.49504 0.51039 0.0
C411 C 0.13077 0.51004 0.58332 0.0
C412 C 0.10787 0.52874 0.58898 0.0
C413 C 0.15553 0.51459 0.52171 0.0
C414 C 0.11113 0.55305 0.53796 0.0
C415 C 0.13579 0.55781 0.47675 0.0
H416 H 0.99612 0.84359 0.91091 0.0
H417 H 0.05826 0.85591 0.09657 0.0
H418 H 0.07407 0.89778 0.01508 0.0
H419 H 0.06151 0.93503 0.91118 0.0
H420 H 0.99859 0.92229 0.72674 0.0
H421 H 0.99194 0.8767 0.78702 0.0
C422 C 0.01423 0.85479 0.93063 0.0
C423 C 0.02582 0.84696 0.0097 0.0
C424 C 0.02225 0.87935 0.88556 0.0
C425 C 0.04912 0.86167 0.03545 0.0
C426 C 0.05773 0.88585 0.98984 0.0
C427 C 0.04679 0.92213 0.88325 0.0
C428 C 0.02993 0.93236 0.81651 0.0
C429 C 0.043 0.89567 0.91816 0.0
C430 C 0.01145 0.91518 0.7795 0.0
C431 C 0.00761 0.88898 0.81373 0.0
H432 H 0.67698 0.97433 0.00974 0.0
H433 H 0.69245 0.05761 0.94822 0.0
H434 H 0.65008 0.06046 0.86033 0.0
H435 H 0.60435 0.03994 0.81906 0.0
H436 H 0.588 0.95696 0.89531 0.0
H437 H 0.63435 0.95346 0.96081 0.0
C438 C 0.67175 0.99285 0.97389 0.0
C439 C 0.68792 0.01561 0.98388 0.0
C440 C 0.64637 0.99459 0.92912 0.0
C441 C 0.68064 0.03972 0.93947 0.0
C442 C 0.65602 0.04143 0.89102 0.0
C443 C 0.61094 0.02117 0.85029 0.0
C444 C 0.59241 0.99887 0.85303 0.0
C445 C 0.6379 0.01918 0.88874 0.0
C446 C 0.60155 0.97456 0.89266 0.0
C447 C 0.62824 0.97242 0.92977 0.0
H448 H 0.54135 0.65188 0.95526 0.0
H449 H 0.45826 0.63146 0.10641 0.0
H450 H 0.45039 0.59622 0.01281 0.0
H451 H 0.47249 0.56573 0.90807 0.0
H452 H 0.55841 0.58411 0.76927 0.0
H453 H 0.55987 0.62553 0.83664 0.0
C454 C 0.52093 0.64046 0.96486 0.0
C455 C 0.50032 0.6442 0.03667 0.0
C456 C 0.51755 0.61929 0.91442 0.0
C457 C 0.4742 0.62898 0.05046 0.0
C458 C 0.46996 0.6086 -0.00215 0.0
C459 C 0.49113 0.57916 0.89134 0.0
C460 C 0.51555 0.57174 0.83547 0.0
C461 C 0.49229 0.60264 0.93277 0.0
C462 C 0.53963 0.58923 0.81381 0.0
C463 C 0.54046 0.61295 0.85201 0.0
H464 H 0.85333 0.50351 0.04665 0.0
H465 H 0.87659 0.42875 0.17477 0.0
H466 H 0.91795 0.42427 0.062 0.0
H467 H 0.95399 0.44704 0.94851 0.0
H468 H 0.93241 0.52428 0.83274 0.0
H469 H 0.88421 0.52248 0.91793 0.0
C470 C 0.86655 0.48564 0.04693 0.0
C471 C 0.86214 0.46651 0.11811 0.0
C472 C 0.89142 0.4842 0.98574 0.0
C473 C 0.8796 0.44358 0.11953 0.0
C474 C 0.90358 0.4413 0.05609 0.0
C475 C 0.93841 0.46313 0.94092 0.0
C476 C 0.94699 0.48605 0.88673 0.0
C477 C 0.91085 0.46234 0.99231 0.0
C478 C 0.92657 0.50673 0.87632 0.0
C479 C 0.89891 0.50569 0.92452 0.0
H480 H 0.06616 0.13379 0.31047 0.0
H481 H 0.12287 0.1847 0.12521 0.0
H482 H 0.12387 0.15118 0.02032 0.0
H483 H 0.10523 0.10836 0.97862 0.0
H484 H 0.05168 0.05785 0.17193 0.0
H485 H 0.05474 0.08981 0.27952 0.0
C486 C 0.08007 0.13751 0.24922 0.0
C487 C 0.0948 0.16198 0.22733 0.0
C488 C 0.08141 0.11795 0.19094 0.0
C489 C 0.11103 0.16633 0.14438 0.0
C490 C 0.11183 0.14703 0.08447 0.0
C491 C 0.09519 0.10412 0.0453 0.0
C492 C 0.07847 0.0808 0.06824 0.0
C493 C 0.09672 0.12287 0.10668 0.0
C494 C 0.06492 0.07556 0.15381 0.0
C495 C 0.0664 0.09393 0.21478 0.0
H496 H 0.3738 0.97674 0.16613 0.0
H497 H 0.34519 0.05386 0.06971 0.0
H498 H 0.38642 0.05603 0.95255 0.0
H499 H 0.43281 0.03685 0.88406 0.0
H500 H 0.46087 0.95992 0.98632 0.0
H501 H 0.41821 0.95719 0.09626 0.0
C502 C 0.3764 0.99392 0.11878 0.0
C503 C 0.35658 0.01515 0.12666 0.0
C504 C 0.40053 0.99533 0.05406 0.0
C505 C 0.35999 0.03716 0.06448 0.0
C506 C 0.38381 0.03854 -0.00164 0.0
C507 C 0.42969 0.01964 0.93105 0.0
C508 C 0.45024 0.99875 0.92759 0.0
C509 C 0.40468 0.01798 0.99386 0.0
C510 C 0.44555 0.97634 0.98778 0.0
C511 C 0.42105 0.97467 0.05044 0.0
H512 H 0.52922 0.39139 0.21925 0.0
H513 H 0.45921 0.34803 0.12525 0.0
H514 H 0.45534 0.3831 0.0068 0.0
H515 H 0.47313 0.42602 0.9281 0.0
H516 H 0.54165 0.46889 0.03124 0.0
H517 H 0.5435 0.43468 0.1513 0.0
C518 C 0.51249 0.38971 0.17453 0.0
C519 C 0.49431 0.36711 0.18224 0.0
C520 C 0.50977 0.41016 0.10894 0.0
C521 C 0.47371 0.36505 0.12076 0.0
C522 C 0.47126 0.38525 0.05353 0.0
C523 C 0.48785 0.4281 0.97827 0.0
C524 C 0.5072 0.44995 0.971 0.0
C525 C 0.48921 0.40796 0.04697 0.0
C526 C 0.52656 0.45225 0.03547 0.0
C527 C 0.52781 0.43261 0.10379 0.0
H528 H 0.16194 0.47778 0.1407 0.0
H529 H 0.19954 0.54726 0.98971 0.0
H530 H 0.15809 0.54888 0.89885 0.0
H531 H 0.10978 0.53191 0.86877 0.0
H532 H 0.07346 0.46107 0.01459 0.0
H533 H 0.11558 0.45875 0.10301 0.0
C534 C 0.1612 0.49299 0.08684 0.0
C535 C 0.18357 0.51239 0.07143 0.0
C536 C 0.13728 0.49386 0.03587 0.0
C537 C 0.18265 0.532 0.00176 0.0
C538 C 0.15881 0.53309 0.95076 0.0
C539 C 0.11099 0.51616 0.92071 0.0
C540 C 0.08833 0.49706 0.93728 0.0
C541 C 0.1357 0.51448 0.96861 0.0
C542 C 0.0905 0.47619 0.00219 0.0
C543 C 0.11461 0.47479 0.05209 0.0
H544 H 0.94274 0.87738 0.19253 0.0
H545 H 0.97521 0.82095 0.38548 0.0
H546 H 0.96998 0.85358 0.49346 0.0
H547 H 0.96681 0.9005 0.52074 0.0
H548 H 0.93793 0.95773 0.32397 0.0
H549 H 0.93062 0.92251 0.22964 0.0
C550 C 0.94762 0.87203 0.25928 0.0
C551 C 0.95967 0.84702 0.2812 0.0
C552 C 0.94578 0.89123 0.31938 0.0
C553 C 0.96585 0.84007 0.36752 0.0
C554 C 0.96323 0.85885 0.42874 0.0
C555 C 0.95813 0.90506 0.45811 0.0
C556 C 0.95334 0.93157 0.42824 0.0
C557 C 0.95486 0.88486 0.40367 0.0
C558 C 0.94179 0.93744 0.34783 0.0
C559 C 0.93786 0.91733 0.29381 0.0
H560 H 0.65997 0.97156 0.27204 0.0
H561 H 0.69182 0.04429 0.35265 0.0
H562 H 0.65078 0.04373 0.46965 0.0
H563 H 0.60359 0.02434 0.54044 0.0
H564 H 0.57271 0.95076 0.46279 0.0
H565 H 0.61546 0.94994 0.35206 0.0
C566 C 0.6582 0.98697 0.31659 0.0
C567 C 0.67881 0.00795 0.30414 0.0
C568 C 0.63441 0.98663 0.38257 0.0
C569 C 0.6764 0.02783 0.36182 0.0
C570 C 0.65274 0.02766 0.42783 0.0
C571 C 0.60619 0.00818 0.49895 0.0
C572 C 0.58472 0.98791 0.50824 0.0
C573 C 0.63118 0.00753 0.43718 0.0
C574 C 0.58877 0.96671 0.45599 0.0
C575 C 0.61323 0.96621 0.39302 0.0
H576 H 0.56036 0.60438 0.24289 0.0
H577 H 0.51941 0.657 0.42346 0.0
H578 H 0.52496 0.62385 0.54604 0.0
H579 H 0.53609 0.57816 0.59892 0.0
H580 H 0.57639 0.52513 0.41937 0.0
H581 H 0.57657 0.56018 0.2984 0.0
C582 C 0.55297 0.60863 0.3093 0.0
C583 C 0.53914 0.6329 0.32436 0.0
C584 C 0.55592 0.58938 0.37898 0.0
C585 C 0.53012 0.63846 0.41052 0.0
C586 C 0.5331 0.61946 0.48037 0.0
C587 C 0.54542 0.57457 0.53337 0.0
C588 C 0.5562 0.54938 0.51701 0.0
C589 C 0.54518 0.59464 0.46496 0.0
C590 C 0.56819 0.54456 0.43267 0.0
C591 C 0.56811 0.5645 0.36385 0.0
H592 H 0.90912 0.46774 0.36918 0.0
H593 H 0.85586 0.53425 0.444 0.0
H594 H 0.89472 0.54776 0.53025 0.0
H595 H 0.94457 0.54039 0.58342 0.0
H596 H 0.99876 0.47702 0.48688 0.0
H597 H 0.95953 0.46395 0.40395 0.0
C598 C 0.90606 0.4857 0.40187 0.0
C599 C 0.87958 0.50008 0.39844 0.0
C600 C 0.92909 0.49437 0.44572 0.0
C601 C 0.87579 0.52249 0.44582 0.0
C602 C 0.89824 0.53052 0.49408 0.0
C603 C 0.94801 0.52425 0.54217 0.0
C604 C 0.97444 0.50957 0.54193 0.0
C605 C 0.92519 0.51672 0.49376 0.0
C606 C 0.97855 0.48853 0.48876 0.0
C607 C 0.95603 0.48085 0.44186 0.0
loop_
_geom_bond_atom_site_label_1
_geom_bond_atom_site_label_2
_geom_bond_distance
_geom_bond_site_symmetry_2
_ccdc_geom_bond_type
H0 C3 0.929 . S
H1 C6 0.929 . S
H2 C8 0.930 . S
C3 H0 0.929 . S
C3 C4 1.398 . S
C3 C5 1.396 . S
C4 C3 1.398 . S
C4 C8 1.407 . S
C5 C3 1.396 . S
C5 C6 1.394 . S
C6 H1 0.929 . S
C6 C5 1.394 . S
C6 C7 1.382 . S
C7 C6 1.382 . S
C7 C8 1.392 . S
C7 N9 1.420 . S
C8 H2 0.930 . S
C8 C4 1.407 . S
C8 C7 1.392 . S
N9 C7 1.420 . S
N9 C10 1.244 . S
C10 N9 1.244 . S
H11 C14 0.929 . S
H12 C17 0.929 . S
H13 C19 0.930 . S
C14 H11 0.929 . S
C14 C15 1.398 . S
C14 C16 1.396 1_554 S
C15 C14 1.398 . S
C15 C19 1.407 . S
C16 C14 1.396 1_556 S
C16 C17 1.394 . S
C17 H12 0.929 . S
C17 C16 1.394 . S
C17 C18 1.382 1_556 S
C18 C17 1.382 1_554 S
C18 C19 1.392 . S
C18 N20 1.420 . S
C19 H13 0.930 . S
C19 C15 1.407 . S
C19 C18 1.392 . S
N20 C18 1.420 . S
N20 C21 1.244 1_554 S
C21 N20 1.244 1_556 S
H22 C25 0.929 . S
H23 C28 0.929 1_556 S
H24 C30 0.930 . S
C25 H22 0.929 . S
C25 C26 1.393 1_565 S
C25 C27 1.396 1_565 S
C26 C25 1.393 1_545 S
C26 C30 1.413 . S
C27 C25 1.396 1_545 S
C27 C28 1.396 . S
C28 H23 0.929 1_554 S
C28 C27 1.396 . S
C28 C29 1.382 . S
C29 C28 1.382 . S
C29 C30 1.392 . S
C29 N31 1.420 . S
C30 H24 0.930 . S
C30 C26 1.413 . S
C30 C29 1.392 . S
N31 C29 1.420 . S
N31 C32 1.230 1_545 S
C32 N31 1.230 1_565 S
H33 C36 0.929 . S
H34 C39 0.929 1_556 S
H35 C41 0.930 . S
C36 H33 0.929 . S
C36 C37 1.398 . S
C36 C38 1.396 . S
C37 C36 1.398 . S
C37 C41 1.407 . S
C38 C36 1.396 . S
C38 C39 1.394 . S
C39 H34 0.929 1_554 S
C39 C38 1.394 . S
C39 C40 1.382 . S
C40 C39 1.382 . S
C40 C41 1.392 . S
C40 N42 1.420 . S
C41 H35 0.930 . S
C41 C37 1.407 . S
C41 C40 1.392 . S
N42 C40 1.420 . S
N42 C43 1.244 . S
C43 N42 1.244 . S
H44 C47 0.929 . S
H45 C50 0.929 . S
H46 C52 0.930 . S
C47 H44 0.929 . S
C47 C48 1.398 . S
C47 C49 1.396 . S
C48 C47 1.398 . S
C48 C52 1.407 . S
C49 C47 1.396 . S
C49 C50 1.394 . S
C50 H45 0.929 . S
C50 C49 1.394 . S
C50 C51 1.382 . S
C51 C50 1.382 . S
C51 C52 1.392 . S
C51 N53 1.420 . S
C52 H46 0.930 . S
C52 C48 1.407 . S
C52 C51 1.392 . S
N53 C51 1.420 . S
N53 C54 1.244 . S
C54 N53 1.244 . S
H55 C58 0.929 . S
H56 C61 0.929 . S
H57 C63 0.930 . S
C58 H55 0.929 . S
C58 C59 1.398 . S
C58 C60 1.396 . S
C59 C58 1.398 . S
C59 C63 1.407 . S
C60 C58 1.396 . S
C60 C61 1.394 . S
C61 H56 0.929 . S
C61 C60 1.394 . S
C61 C62 1.382 . S
C62 C61 1.382 . S
C62 C63 1.392 . S
C62 N64 1.420 . S
C63 H57 0.930 . S
C63 C59 1.407 . S
C63 C62 1.392 . S
N64 C62 1.420 . S
N64 C65 1.244 . S
C65 N64 1.244 . S
H66 C69 0.929 . S
H67 C72 0.929 . S
H68 C74 0.930 . S
C69 H66 0.929 . S
C69 C70 1.398 1_565 S
C69 C71 1.392 1_565 S
C70 C69 1.398 1_545 S
C70 C74 1.416 . S
C71 C69 1.392 1_545 S
C71 C72 1.399 . S
C72 H67 0.929 . S
C72 C71 1.399 . S
C72 C73 1.382 . S
C73 C72 1.382 . S
C73 C74 1.392 . S
C73 N75 1.420 . S
C74 H68 0.930 . S
C74 C70 1.416 . S
C74 C73 1.392 . S
N75 C73 1.420 . S
N75 C76 1.237 1_545 S
C76 N75 1.237 1_565 S
H77 C80 0.929 . S
H78 C83 0.929 . S
H79 C85 0.930 . S
C80 H77 0.929 . S
C80 C81 1.398 . S
C80 C82 1.396 . S
C81 C80 1.398 . S
C81 C85 1.407 . S
C82 C80 1.396 . S
C82 C83 1.394 . S
C83 H78 0.929 . S
C83 C82 1.394 . S
C83 C84 1.382 . S
C84 C83 1.382 . S
C84 C85 1.392 . S
C84 N86 1.420 . S
C85 H79 0.930 . S
C85 C81 1.407 . S
C85 C84 1.392 . S
N86 C84 1.420 . S
N86 C87 1.244 . S
C87 N86 1.244 . S
C88 O104 1.251 . S
C88 O106 1.254 . S
N89 C90 1.333 . S
N89 C94 1.307 1_455 S
N89 Zn95 2.020 . S
C90 N89 1.333 . S
C90 C91 1.379 . S
C90 H108 0.952 . S
C91 C90 1.379 . S
C91 C92 1.390 1_455 S
C91 H118 0.949 . S
C92 C91 1.390 1_655 S
C92 C93 1.357 . S
C93 C92 1.357 . S
C93 C94 1.370 . S
C93 H119 0.950 . S
C94 N89 1.307 1_655 S
C94 C93 1.370 . S
C94 H112 0.981 . S
Zn95 N89 2.020 . S
Zn95 O104 2.039 . S
Zn95 O110 2.034 . S
Zn95 O114 2.025 1_565 S
Zn95 O116 2.024 1_455 S
C96 O115 1.246 . S
C96 O116 1.249 1_545 S
N97 C98 1.307 . S
N97 C99 1.333 . S
N97 Zn103 2.020 . S
C98 N97 1.307 . S
C98 C102 1.370 1_556 S
C98 H109 0.991 . S
C99 N97 1.333 . S
C99 C100 1.379 1_556 S
C99 H107 0.952 . S
C100 C99 1.379 1_554 S
C100 C101 1.390 . S
C100 H120 0.948 . S
C101 C100 1.390 . S
C101 C102 1.357 . S
C102 C98 1.370 1_554 S
C102 C101 1.357 . S
C102 H121 0.950 . S
Zn103 N97 2.020 . S
Zn103 O106 2.025 1_545 S
Zn103 O111 2.024 . S
Zn103 O113 2.039 . S
Zn103 O115 2.034 1_455 S
O104 C88 1.251 . S
O104 Zn95 2.039 . S
C105 O110 1.246 . S
C105 O111 1.249 1_565 S
O106 C88 1.254 . S
O106 Zn103 2.025 1_565 S
H107 C99 0.952 . S
H108 C90 0.952 . S
H109 C98 0.991 . S
O110 Zn95 2.034 . S
O110 C105 1.246 . S
O111 Zn103 2.024 . S
O111 C105 1.249 1_545 S
H112 C94 0.981 . S
O113 Zn103 2.039 . S
O113 C117 1.251 . S
O114 Zn95 2.025 1_545 S
O114 C117 1.254 . S
O115 C96 1.246 . S
O115 Zn103 2.034 1_655 S
O116 Zn95 2.024 1_655 S
O116 C96 1.249 1_565 S
C117 O113 1.251 . S
C117 O114 1.254 . S
H118 C91 0.949 . S
H119 C93 0.950 . S
H120 C100 0.948 . S
H121 C102 0.950 . S
C122 O138 1.251 1_565 S
C122 O140 1.254 . S
N123 C124 1.333 . S
N123 C128 1.307 . S
N123 Zn129 2.020 . S
C124 N123 1.333 . S
C124 C125 1.379 . S
C124 H142 0.952 . S
C125 C124 1.379 . S
C125 C126 1.390 . S
C125 H152 0.949 . S
C126 C125 1.390 . S
C126 C127 1.357 . S
C127 C126 1.357 . S
C127 C128 1.370 . S
C127 H153 0.950 . S
C128 N123 1.307 . S
C128 C127 1.370 . S
C128 H146 0.948 . S
Zn129 N123 2.020 . S
Zn129 O138 2.039 . S
Zn129 O144 2.034 . S
Zn129 O148 2.025 . S
Zn129 O150 2.024 . S
C130 O149 1.246 1_545 S
C130 O150 1.249 . S
N131 C132 1.307 . S
N131 C133 1.333 . S
N131 Zn137 2.020 . S
C132 N131 1.307 . S
C132 C136 1.370 . S
C132 H143 0.948 . S
C133 N131 1.333 . S
C133 C134 1.379 . S
C133 H141 0.952 . S
C134 C133 1.379 . S
C134 C135 1.390 . S
C134 H154 0.949 . S
C135 C134 1.390 . S
C135 C136 1.357 . S
C136 C132 1.370 . S
C136 C135 1.357 . S
C136 H155 0.950 . S
Zn137 N131 2.020 . S
Zn137 O140 2.025 . S
Zn137 O145 2.024 . S
Zn137 O147 2.039 . S
Zn137 O149 2.034 . S
O138 C122 1.251 1_545 S
O138 Zn129 2.039 . S
C139 O144 1.246 1_565 S
C139 O145 1.249 . S
O140 C122 1.254 . S
O140 Zn137 2.025 . S
H141 C133 0.952 . S
H142 C124 0.952 . S
H143 C132 0.948 . S
O144 Zn129 2.034 . S
O144 C139 1.246 1_545 S
O145 Zn137 2.024 . S
O145 C139 1.249 . S
H146 C128 0.948 . S
O147 Zn137 2.039 . S
O147 C151 1.251 1_565 S
O148 Zn129 2.025 . S
O148 C151 1.254 . S
O149 C130 1.246 1_565 S
O149 Zn137 2.034 . S
O150 Zn129 2.024 . S
O150 C130 1.249 . S
C151 O147 1.251 1_545 S
C151 O148 1.254 . S
H152 C125 0.949 . S
H153 C127 0.950 . S
H154 C134 0.949 . S
H155 C136 0.950 . S
C156 O172 1.251 . S
C156 O174 1.254 . S
N157 C158 1.333 . S
N157 C162 1.307 . S
N157 Zn163 2.020 . S
C158 N157 1.333 . S
C158 C159 1.379 . S
C158 H176 0.952 . S
C159 C158 1.379 . S
C159 C160 1.390 . S
C159 H186 0.949 . S
C160 C159 1.390 . S
C160 C161 1.357 . S
C161 C160 1.357 . S
C161 C162 1.370 . S
C161 H187 0.950 . S
C162 N157 1.307 . S
C162 C161 1.370 . S
C162 H180 0.948 . S
Zn163 N157 2.020 . S
Zn163 O172 2.039 . S
Zn163 O178 2.034 . S
Zn163 O182 2.025 . S
Zn163 O184 2.024 . S
C164 O183 1.246 . S
C164 O184 1.249 . S
N165 C166 1.307 . S
N165 C167 1.333 . S
N165 Zn171 2.020 . S
C166 N165 1.307 . S
C166 C170 1.370 . S
C166 H177 0.948 . S
C167 N165 1.333 . S
C167 C168 1.379 . S
C167 H175 0.952 . S
C168 C167 1.379 . S
C168 C169 1.390 . S
C168 H188 0.949 . S
C169 C168 1.390 . S
C169 C170 1.357 . S
C170 C166 1.370 . S
C170 C169 1.357 . S
C170 H189 0.950 . S
Zn171 N165 2.020 . S
Zn171 O174 2.025 . S
Zn171 O179 2.024 . S
Zn171 O181 2.039 . S
Zn171 O183 2.034 . S
O172 C156 1.251 . S
O172 Zn163 2.039 . S
C173 O178 1.246 . S
C173 O179 1.249 . S
O174 C156 1.254 . S
O174 Zn171 2.025 . S
H175 C167 0.952 . S
H176 C158 0.952 . S
H177 C166 0.948 . S
O178 Zn163 2.034 . S
O178 C173 1.246 . S
O179 Zn171 2.024 . S
O179 C173 1.249 . S
H180 C162 0.948 . S
O181 Zn171 2.039 . S
O181 C185 1.251 . S
O182 Zn163 2.025 . S
O182 C185 1.254 . S
O183 C164 1.246 . S
O183 Zn171 2.034 . S
O184 Zn163 2.024 . S
O184 C164 1.249 . S
C185 O181 1.251 . S
C185 O182 1.254 . S
H186 C159 0.949 . S
H187 C161 0.950 . S
H188 C168 0.949 . S
H189 C170 0.950 . S
C190 O206 1.251 . S
C190 O208 1.254 . S
N191 C192 1.333 . S
N191 C196 1.307 . S
N191 Zn197 2.020 . S
C192 N191 1.333 . S
C192 C193 1.379 . S
C192 H210 0.952 . S
C193 C192 1.379 . S
C193 C194 1.390 . S
C193 H220 0.949 . S
C194 C193 1.390 . S
C194 C195 1.357 . S
C195 C194 1.357 . S
C195 C196 1.370 . S
C195 H221 0.950 . S
C196 N191 1.307 . S
C196 C195 1.370 . S
C196 H214 0.948 . S
Zn197 N191 2.020 . S
Zn197 O206 2.039 . S
Zn197 O212 2.034 1_455 S
Zn197 O216 2.025 1_455 S
Zn197 O218 2.024 . S
C198 O217 1.246 . S
C198 O218 1.249 . S
N199 C200 1.307 . S
N199 C201 1.333 1_455 S
N199 Zn205 2.020 . S
C200 N199 1.307 . S
C200 C204 1.370 . S
C200 H211 0.948 . S
C201 N199 1.333 1_655 S
C201 C202 1.379 . S
C201 H209 0.952 . S
C202 C201 1.379 . S
C202 C203 1.390 1_655 S
C202 H222 0.949 . S
C203 C202 1.390 1_455 S
C203 C204 1.357 . S
C204 C200 1.370 . S
C204 C203 1.357 . S
C204 H223 0.950 . S
Zn205 N199 2.020 . S
Zn205 O208 2.025 . S
Zn205 O213 2.024 1_455 S
Zn205 O215 2.039 1_455 S
Zn205 O217 2.034 . S
O206 C190 1.251 . S
O206 Zn197 2.039 . S
C207 O212 1.246 . S
C207 O213 1.249 . S
O208 C190 1.254 . S
O208 Zn205 2.025 . S
H209 C201 0.952 . S
H210 C192 0.952 . S
H211 C200 0.948 . S
O212 Zn197 2.034 1_655 S
O212 C207 1.246 . S
O213 Zn205 2.024 1_655 S
O213 C207 1.249 . S
H214 C196 0.948 . S
O215 Zn205 2.039 1_655 S
O215 C219 1.251 . S
O216 Zn197 2.025 1_655 S
O216 C219 1.254 . S
O217 C198 1.246 . S
O217 Zn205 2.034 . S
O218 Zn197 2.024 . S
O218 C198 1.249 . S
C219 O215 1.251 . S
C219 O216 1.254 . S
H220 C193 0.949 . S
H221 C195 0.950 . S
H222 C202 0.949 . S
H223 C204 0.950 . S
H224 C230 0.930 . S
H225 C233 0.930 . S
H226 C234 0.930 . S
H227 C235 0.930 . S
H228 C238 0.930 . S
H229 C239 0.930 . S
C230 H224 0.930 . S
C230 C231 1.355 1_565 S
C230 C232 1.415 . S
C231 C230 1.355 1_545 S
C231 C233 1.419 . S
C232 C230 1.415 . S
C232 C237 1.425 1_565 S
C232 C239 1.409 . S
C233 H225 0.930 . S
C233 C231 1.419 . S
C233 C234 1.362 . S
C234 H226 0.930 . S
C234 C233 1.362 . S
C234 C237 1.409 . S
C235 H227 0.930 . S
C235 C236 1.355 1_545 S
C235 C237 1.415 . S
C236 C235 1.355 1_565 S
C236 C238 1.419 . S
C237 C232 1.425 1_545 S
C237 C234 1.409 . S
C237 C235 1.415 . S
C238 H228 0.930 . S
C238 C236 1.419 . S
C238 C239 1.362 . S
C239 H229 0.930 . S
C239 C232 1.409 . S
C239 C238 1.362 . S
H240 C246 0.930 . S
H241 C249 0.930 . S
H242 C250 0.930 . S
H243 C251 0.930 . S
H244 C254 0.930 . S
H245 C255 0.930 . S
C246 H240 0.930 . S
C246 C247 1.355 . S
C246 C248 1.415 . S
C247 C246 1.355 . S
C247 C249 1.419 . S
C248 C246 1.415 . S
C248 C253 1.425 . S
C248 C255 1.409 . S
C249 H241 0.930 . S
C249 C247 1.419 . S
C249 C250 1.362 . S
C250 H242 0.930 . S
C250 C249 1.362 . S
C250 C253 1.409 . S
C251 H243 0.930 . S
C251 C252 1.355 . S
C251 C253 1.415 . S
C252 C251 1.355 . S
C252 C254 1.419 . S
C253 C248 1.425 . S
C253 C250 1.409 . S
C253 C251 1.415 . S
C254 H244 0.930 . S
C254 C252 1.419 . S
C254 C255 1.362 . S
C255 H245 0.930 . S
C255 C248 1.409 . S
C255 C254 1.362 . S
H256 C262 0.930 . S
H257 C265 0.930 . S
H258 C266 0.930 . S
H259 C267 0.930 . S
H260 C270 0.930 . S
H261 C271 0.930 . S
C262 H256 0.930 . S
C262 C263 1.355 . S
C262 C264 1.415 . S
C263 C262 1.355 . S
C263 C265 1.419 . S
C264 C262 1.415 . S
C264 C269 1.425 . S
C264 C271 1.409 . S
C265 H257 0.930 . S
C265 C263 1.419 . S
C265 C266 1.362 . S
C266 H258 0.930 . S
C266 C265 1.362 . S
C266 C269 1.409 . S
C267 H259 0.930 . S
C267 C268 1.355 . S
C267 C269 1.415 . S
C268 C267 1.355 . S
C268 C270 1.419 . S
C269 C264 1.425 . S
C269 C266 1.409 . S
C269 C267 1.415 . S
C270 H260 0.930 . S
C270 C268 1.419 . S
C270 C271 1.362 . S
C271 H261 0.930 . S
C271 C264 1.409 . S
C271 C270 1.362 . S
H272 C278 0.930 . S
H273 C281 0.930 . S
H274 C282 0.930 . S
H275 C283 0.930 . S
H276 C286 0.930 1_655 S
H277 C287 0.930 1_655 S
C278 H272 0.930 . S
C278 C279 1.355 . S
C278 C280 1.415 . S
C279 C278 1.355 . S
C279 C281 1.419 . S
C280 C278 1.415 . S
C280 C285 1.425 . S
C280 C287 1.409 . S
C281 H273 0.930 . S
C281 C279 1.419 . S
C281 C282 1.362 . S
C282 H274 0.930 . S
C282 C281 1.362 . S
C282 C285 1.409 . S
C283 H275 0.930 . S
C283 C284 1.355 . S
C283 C285 1.415 . S
C284 C283 1.355 . S
C284 C286 1.419 . S
C285 C280 1.425 . S
C285 C282 1.409 . S
C285 C283 1.415 . S
C286 H276 0.930 1_455 S
C286 C284 1.419 . S
C286 C287 1.362 . S
C287 H277 0.930 1_455 S
C287 C280 1.409 . S
C287 C286 1.362 . S
H288 C294 0.930 . S
H289 C297 0.930 . S
H290 C298 0.930 . S
H291 C299 0.930 . S
H292 C302 0.930 . S
H293 C303 0.930 1_554 S
C294 H288 0.930 . S
C294 C295 1.366 1_554 S
C294 C296 1.415 1_554 S
C295 C294 1.366 1_556 S
C295 C297 1.406 1_545 S
C296 C294 1.415 1_556 S
C296 C301 1.425 1_545 S
C296 C303 1.409 . S
C297 H289 0.930 . S
C297 C295 1.406 1_565 S
C297 C298 1.362 . S
C298 H290 0.930 . S
C298 C297 1.362 . S
C298 C301 1.409 . S
C299 H291 0.930 . S
C299 C300 1.355 1_565 S
C299 C301 1.415 . S
C300 C299 1.355 1_545 S
C300 C302 1.419 . S
C301 C296 1.425 1_565 S
C301 C298 1.409 . S
C301 C299 1.415 . S
C302 H292 0.930 . S
C302 C300 1.419 . S
C302 C303 1.362 . S
C303 H293 0.930 1_556 S
C303 C296 1.409 . S
C303 C302 1.362 . S
H304 C310 0.930 . S
H305 C313 0.930 . S
H306 C314 0.930 . S
H307 C315 0.930 . S
H308 C318 0.930 . S
H309 C319 0.930 . S
C310 H304 0.930 . S
C310 C311 1.355 1_556 S
C310 C312 1.415 . S
C311 C310 1.355 1_554 S
C311 C313 1.419 . S
C312 C310 1.415 . S
C312 C317 1.425 . S
C312 C319 1.409 . S
C313 H305 0.930 . S
C313 C311 1.419 . S
C313 C314 1.362 . S
C314 H306 0.930 . S
C314 C313 1.362 . S
C314 C317 1.409 1_554 S
C315 H307 0.930 . S
C315 C316 1.355 . S
C315 C317 1.415 . S
C316 C315 1.355 . S
C316 C318 1.419 . S
C317 C312 1.425 . S
C317 C314 1.409 1_556 S
C317 C315 1.415 . S
C318 H308 0.930 . S
C318 C316 1.419 . S
C318 C319 1.362 . S
C319 H309 0.930 . S
C319 C312 1.409 . S
C319 C318 1.362 . S
H320 C326 0.930 . S
H321 C329 0.930 . S
H322 C330 0.930 . S
H323 C331 0.930 . S
H324 C334 0.930 . S
H325 C335 0.930 . S
C326 H320 0.930 . S
C326 C327 1.355 . S
C326 C328 1.415 1_554 S
C327 C326 1.355 . S
C327 C329 1.419 . S
C328 C326 1.415 1_556 S
C328 C333 1.425 . S
C328 C335 1.409 . S
C329 H321 0.930 . S
C329 C327 1.419 . S
C329 C330 1.362 . S
C330 H322 0.930 . S
C330 C329 1.362 . S
C330 C333 1.409 1_554 S
C331 H323 0.930 . S
C331 C332 1.355 . S
C331 C333 1.415 . S
C332 C331 1.355 . S
C332 C334 1.419 . S
C333 C328 1.425 . S
C333 C330 1.409 1_556 S
C333 C331 1.415 . S
C334 H324 0.930 . S
C334 C332 1.419 . S
C334 C335 1.362 . S
C335 H325 0.930 . S
C335 C328 1.409 . S
C335 C334 1.362 . S
H336 C342 0.930 . S
H337 C345 0.930 . S
H338 C346 0.930 . S
H339 C347 0.930 . S
H340 C350 0.930 . S
H341 C351 0.930 . S
C342 H336 0.930 . S
C342 C343 1.355 . S
C342 C344 1.415 . S
C343 C342 1.355 . S
C343 C345 1.419 1_655 S
C344 C342 1.415 . S
C344 C349 1.425 . S
C344 C351 1.409 . S
C345 H337 0.930 . S
C345 C343 1.419 1_455 S
C345 C346 1.362 . S
C346 H338 0.930 . S
C346 C345 1.362 . S
C346 C349 1.409 1_455 S
C347 H339 0.930 . S
C347 C348 1.355 1_455 S
C347 C349 1.415 1_455 S
C348 C347 1.355 1_655 S
C348 C350 1.419 . S
C349 C344 1.425 . S
C349 C346 1.409 1_655 S
C349 C347 1.415 1_655 S
C350 H340 0.930 . S
C350 C348 1.419 . S
C350 C351 1.362 . S
C351 H341 0.930 . S
C351 C344 1.409 . S
C351 C350 1.362 . S
H352 C358 0.930 . S
H353 C361 0.930 . S
H354 C362 0.930 . S
H355 C363 0.930 . S
H356 C366 0.930 . S
H357 C367 0.930 1_655 S
C358 H352 0.930 . S
C358 C359 1.355 . S
C358 C360 1.415 . S
C359 C358 1.355 . S
C359 C361 1.419 . S
C360 C358 1.415 . S
C360 C365 1.425 . S
C360 C367 1.409 . S
C361 H353 0.930 . S
C361 C359 1.419 . S
C361 C362 1.362 . S
C362 H354 0.930 . S
C362 C361 1.362 . S
C362 C365 1.409 . S
C363 H355 0.930 . S
C363 C364 1.355 . S
C363 C365 1.415 . S
C364 C363 1.355 . S
C364 C366 1.419 1_455 S
C365 C360 1.425 . S
C365 C362 1.409 . S
C365 C363 1.415 . S
C366 H356 0.930 . S
C366 C364 1.419 1_655 S
C366 C367 1.362 1_655 S
C367 H357 0.930 1_455 S
C367 C360 1.409 . S
C367 C366 1.362 1_455 S
H368 C374 0.930 . S
H369 C377 0.930 . S
H370 C378 0.930 . S
H371 C379 0.930 . S
H372 C382 0.930 . S
H373 C383 0.930 . S
C374 H368 0.930 . S
C374 C375 1.355 1_565 S
C374 C376 1.415 . S
C375 C374 1.355 1_545 S
C375 C377 1.419 . S
C376 C374 1.415 . S
C376 C381 1.425 1_565 S
C376 C383 1.409 . S
C377 H369 0.930 . S
C377 C375 1.419 . S
C377 C378 1.362 . S
C378 H370 0.930 . S
C378 C377 1.362 . S
C378 C381 1.409 . S
C379 H371 0.930 . S
C379 C380 1.355 1_545 S
C379 C381 1.415 . S
C380 C379 1.355 1_565 S
C380 C382 1.419 . S
C381 C376 1.425 1_545 S
C381 C378 1.409 . S
C381 C379 1.415 . S
C382 H372 0.930 . S
C382 C380 1.419 . S
C382 C383 1.362 . S
C383 H373 0.930 . S
C383 C376 1.409 . S
C383 C382 1.362 . S
H384 C390 0.930 . S
H385 C393 0.930 . S
H386 C394 0.930 . S
H387 C395 0.930 . S
H388 C398 0.930 . S
H389 C399 0.930 . S
C390 H384 0.930 . S
C390 C391 1.355 . S
C390 C392 1.415 . S
C391 C390 1.355 . S
C391 C393 1.419 . S
C392 C390 1.415 . S
C392 C397 1.425 . S
C392 C399 1.409 . S
C393 H385 0.930 . S
C393 C391 1.419 . S
C393 C394 1.362 . S
C394 H386 0.930 . S
C394 C393 1.362 . S
C394 C397 1.409 . S
C395 H387 0.930 . S
C395 C396 1.355 . S
C395 C397 1.415 . S
C396 C395 1.355 . S
C396 C398 1.419 . S
C397 C392 1.425 . S
C397 C394 1.409 . S
C397 C395 1.415 . S
C398 H388 0.930 . S
C398 C396 1.419 . S
C398 C399 1.362 . S
C399 H389 0.930 . S
C399 C392 1.409 . S
C399 C398 1.362 . S
H400 C406 0.930 . S
H401 C409 0.930 . S
H402 C410 0.930 . S
H403 C411 0.930 . S
H404 C414 0.930 . S
H405 C415 0.930 . S
C406 H400 0.930 . S
C406 C407 1.355 . S
C406 C408 1.415 . S
C407 C406 1.355 . S
C407 C409 1.419 . S
C408 C406 1.415 . S
C408 C413 1.425 . S
C408 C415 1.409 . S
C409 H401 0.930 . S
C409 C407 1.419 . S
C409 C410 1.362 . S
C410 H402 0.930 . S
C410 C409 1.362 . S
C410 C413 1.409 . S
C411 H403 0.930 . S
C411 C412 1.355 . S
C411 C413 1.415 . S
C412 C411 1.355 . S
C412 C414 1.419 . S
C413 C408 1.425 . S
C413 C410 1.409 . S
C413 C411 1.415 . S
C414 H404 0.930 . S
C414 C412 1.419 . S
C414 C415 1.362 . S
C415 H405 0.930 . S
C415 C408 1.409 . S
C415 C414 1.362 . S
H416 C422 0.930 . S
H417 C425 0.930 1_554 S
H418 C426 0.930 1_454 S
H419 C427 0.930 . S
H420 C430 0.930 . S
H421 C431 0.930 . S
C422 H416 0.930 . S
C422 C423 1.355 . S
C422 C424 1.415 . S
C423 C422 1.355 . S
C423 C425 1.419 . S
C424 C422 1.415 . S
C424 C429 1.425 . S
C424 C431 1.409 . S
C425 H417 0.930 1_556 S
C425 C423 1.419 . S
C425 C426 1.362 . S
C426 H418 0.930 1_656 S
C426 C425 1.362 . S
C426 C429 1.409 . S
C427 H419 0.930 . S
C427 C428 1.355 . S
C427 C429 1.415 1_455 S
C428 C427 1.355 . S
C428 C430 1.419 1_455 S
C429 C424 1.425 . S
C429 C426 1.409 . S
C429 C427 1.415 1_655 S
C430 H420 0.930 . S
C430 C428 1.419 1_655 S
C430 C431 1.362 . S
C431 H421 0.930 . S
C431 C424 1.409 . S
C431 C430 1.362 . S
H432 C438 0.930 . S
H433 C441 0.930 . S
H434 C442 0.930 . S
H435 C443 0.930 . S
H436 C446 0.930 . S
H437 C447 0.930 . S
C438 H432 0.930 . S
C438 C439 1.355 1_566 S
C438 C440 1.415 . S
C439 C438 1.355 1_544 S
C439 C441 1.419 . S
C440 C438 1.415 . S
C440 C445 1.425 1_565 S
C440 C447 1.409 . S
C441 H433 0.930 . S
C441 C439 1.419 . S
C441 C442 1.362 . S
C442 H434 0.930 . S
C442 C441 1.362 . S
C442 C445 1.409 1_554 S
C443 H435 0.930 . S
C443 C444 1.355 . S
C443 C445 1.415 . S
C444 C443 1.355 . S
C444 C446 1.419 1_545 S
C445 C440 1.425 1_545 S
C445 C442 1.409 1_556 S
C445 C443 1.415 . S
C446 H436 0.930 . S
C446 C444 1.419 1_565 S
C446 C447 1.362 . S
C447 H437 0.930 . S
C447 C440 1.409 . S
C447 C446 1.362 . S
H448 C454 0.930 . S
H449 C457 0.930 1_554 S
H450 C458 0.930 . S
H451 C459 0.930 . S
H452 C462 0.930 . S
H453 C463 0.930 . S
C454 H448 0.930 . S
C454 C455 1.355 1_556 S
C454 C456 1.415 . S
C455 C454 1.355 1_554 S
C455 C457 1.419 1_554 S
C456 C454 1.415 . S
C456 C461 1.425 . S
C456 C463 1.409 . S
C457 H449 0.930 1_556 S
C457 C455 1.419 1_556 S
C457 C458 1.362 . S
C458 H450 0.930 . S
C458 C457 1.362 . S
C458 C461 1.409 . S
C459 H451 0.930 . S
C459 C460 1.355 . S
C459 C461 1.415 . S
C460 C459 1.355 . S
C460 C462 1.419 . S
C461 C456 1.425 . S
C461 C458 1.409 . S
C461 C459 1.415 . S
C462 H452 0.930 . S
C462 C460 1.419 . S
C462 C463 1.362 . S
C463 H453 0.930 . S
C463 C456 1.409 . S
C463 C462 1.362 . S
H464 C470 0.930 1_556 S
H465 C473 0.930 . S
H466 C474 0.930 . S
H467 C475 0.930 . S
H468 C478 0.930 . S
H469 C479 0.930 . S
C470 H464 0.930 1_554 S
C470 C471 1.355 . S
C470 C472 1.415 1_554 S
C471 C470 1.355 . S
C471 C473 1.419 . S
C472 C470 1.415 1_556 S
C472 C477 1.425 . S
C472 C479 1.409 . S
C473 H465 0.930 . S
C473 C471 1.419 . S
C473 C474 1.362 . S
C474 H466 0.930 . S
C474 C473 1.362 . S
C474 C477 1.409 1_554 S
C475 H467 0.930 . S
C475 C476 1.355 . S
C475 C477 1.415 . S
C476 C475 1.355 . S
C476 C478 1.419 . S
C477 C472 1.425 . S
C477 C474 1.409 1_556 S
C477 C475 1.415 . S
C478 H468 0.930 . S
C478 C476 1.419 . S
C478 C479 1.362 . S
C479 H469 0.930 . S
C479 C472 1.409 . S
C479 C478 1.362 . S
H480 C486 0.930 . S
H481 C489 0.930 . S
H482 C490 0.930 . S
H483 C491 0.930 . S
H484 C494 0.930 . S
H485 C495 0.948 . S
C486 H480 0.930 . S
C486 C487 1.355 . S
C486 C488 1.415 . S
C487 C486 1.355 . S
C487 C489 1.419 . S
C488 C486 1.415 . S
C488 C493 1.425 . S
C488 C495 1.409 . S
C489 H481 0.930 . S
C489 C487 1.419 . S
C489 C490 1.362 . S
C490 H482 0.930 . S
C490 C489 1.362 . S
C490 C493 1.409 . S
C491 H483 0.930 . S
C491 C492 1.355 . S
C491 C493 1.415 . S
C492 C491 1.355 . S
C492 C494 1.419 . S
C493 C488 1.425 . S
C493 C490 1.409 . S
C493 C491 1.415 . S
C494 H484 0.930 . S
C494 C492 1.419 . S
C494 C495 1.362 . S
C495 H485 0.948 . S
C495 C488 1.409 . S
C495 C494 1.362 . S
H496 C502 0.930 . S
H497 C505 0.930 . S
H498 C506 0.930 . S
H499 C507 0.930 . S
H500 C510 0.923 1_565 S
H501 C511 0.934 . S
C502 H496 0.930 . S
C502 C503 1.355 1_565 S
C502 C504 1.414 1_565 S
C503 C502 1.355 1_545 S
C503 C505 1.419 . S
C504 C502 1.414 1_545 S
C504 C509 1.428 . S
C504 C511 1.404 1_544 S
C505 H497 0.930 . S
C505 C503 1.419 . S
C505 C506 1.362 . S
C506 H498 0.930 . S
C506 C505 1.362 . S
C506 C509 1.409 . S
C507 H499 0.930 . S
C507 C508 1.355 1_554 S
C507 C509 1.415 . S
C508 C507 1.355 1_556 S
C508 C510 1.426 . S
C509 C504 1.428 . S
C509 C506 1.409 . S
C509 C507 1.415 . S
C510 H500 0.923 1_545 S
C510 C508 1.426 . S
C510 C511 1.363 1_545 S
C511 H501 0.934 . S
C511 C504 1.404 1_566 S
C511 C510 1.363 1_565 S
H512 C518 0.930 . S
H513 C521 0.930 . S
H514 C522 0.930 . S
H515 C523 0.930 . S
H516 C526 0.930 1_556 S
H517 C527 0.930 . S
C518 H512 0.930 . S
C518 C519 1.355 . S
C518 C520 1.415 . S
C519 C518 1.355 . S
C519 C521 1.419 . S
C520 C518 1.415 . S
C520 C525 1.425 . S
C520 C527 1.409 . S
C521 H513 0.930 . S
C521 C519 1.419 . S
C521 C522 1.362 . S
C522 H514 0.930 . S
C522 C521 1.362 . S
C522 C525 1.409 . S
C523 H515 0.930 . S
C523 C524 1.355 . S
C523 C525 1.415 1_556 S
C524 C523 1.355 . S
C524 C526 1.419 1_556 S
C525 C520 1.425 . S
C525 C522 1.409 . S
C525 C523 1.415 1_554 S
C526 H516 0.930 1_554 S
C526 C524 1.419 1_554 S
C526 C527 1.362 . S
C527 H517 0.930 . S
C527 C520 1.409 . S
C527 C526 1.362 . S
H528 C534 0.930 . S
H529 C537 0.930 . S
H530 C538 0.930 . S
H531 C539 0.930 . S
H532 C542 0.930 . S
H533 C543 0.930 . S
C534 H528 0.930 . S
C534 C535 1.355 . S
C534 C536 1.415 . S
C535 C534 1.355 . S
C535 C537 1.419 . S
C536 C534 1.415 . S
C536 C541 1.425 1_554 S
C536 C543 1.409 . S
C537 H529 0.930 . S
C537 C535 1.419 . S
C537 C538 1.362 1_554 S
C538 H530 0.930 . S
C538 C537 1.362 1_556 S
C538 C541 1.409 . S
C539 H531 0.930 . S
C539 C540 1.355 . S
C539 C541 1.415 . S
C540 C539 1.355 . S
C540 C542 1.419 1_556 S
C541 C536 1.425 1_556 S
C541 C538 1.409 . S
C541 C539 1.415 . S
C542 H532 0.930 . S
C542 C540 1.419 1_554 S
C542 C543 1.362 . S
C543 H533 0.930 . S
C543 C536 1.409 . S
C543 C542 1.362 . S
H544 C550 0.930 . S
H545 C553 0.930 1_455 S
H546 C554 0.930 . S
H547 C555 0.917 1_455 S
H548 C558 0.930 . S
H549 C559 0.930 . S
C550 H544 0.930 . S
C550 C551 1.355 . S
C550 C552 1.415 . S
C551 C550 1.355 . S
C551 C553 1.419 . S
C552 C550 1.415 . S
C552 C557 1.425 . S
C552 C559 1.409 . S
C553 H545 0.930 1_655 S
C553 C551 1.419 . S
C553 C554 1.362 1_655 S
C554 H546 0.930 . S
C554 C553 1.362 1_455 S
C554 C557 1.409 1_455 S
C555 H547 0.917 1_655 S
C555 C556 1.362 . S
C555 C557 1.419 . S
C556 C555 1.362 . S
C556 C558 1.419 . S
C557 C552 1.425 . S
C557 C554 1.409 1_655 S
C557 C555 1.419 . S
C558 H548 0.930 . S
C558 C556 1.419 . S
C558 C559 1.362 . S
C559 H549 0.930 . S
C559 C552 1.409 . S
C559 C558 1.362 . S
H560 C566 0.930 . S
H561 C569 0.930 . S
H562 C570 0.930 . S
H563 C571 0.930 . S
H564 C574 0.930 . S
H565 C575 0.930 . S
C566 H560 0.930 . S
C566 C567 1.341 1_565 S
C566 C568 1.415 . S
C567 C566 1.341 1_545 S
C567 C569 1.438 . S
C568 C566 1.415 . S
C568 C573 1.425 1_565 S
C568 C575 1.409 . S
C569 H561 0.930 . S
C569 C567 1.438 . S
C569 C570 1.362 . S
C570 H562 0.930 . S
C570 C569 1.362 . S
C570 C573 1.409 . S
C571 H563 0.930 . S
C571 C572 1.355 1_545 S
C571 C573 1.415 . S
C572 C571 1.355 1_565 S
C572 C574 1.419 . S
C573 C568 1.425 1_545 S
C573 C570 1.409 . S
C573 C571 1.415 . S
C574 H564 0.930 . S
C574 C572 1.419 . S
C574 C575 1.362 . S
C575 H565 0.930 . S
C575 C568 1.409 . S
C575 C574 1.362 . S
H576 C582 0.930 . S
H577 C585 0.930 . S
H578 C586 0.930 . S
H579 C587 0.930 . S
H580 C590 0.930 . S
H581 C591 0.930 . S
C582 H576 0.930 . S
C582 C583 1.355 . S
C582 C584 1.415 . S
C583 C582 1.355 . S
C583 C585 1.419 . S
C584 C582 1.415 . S
C584 C589 1.425 . S
C584 C591 1.409 . S
C585 H577 0.930 . S
C585 C583 1.419 . S
C585 C586 1.362 . S
C586 H578 0.930 . S
C586 C585 1.362 . S
C586 C589 1.409 . S
C587 H579 0.930 . S
C587 C588 1.355 . S
C587 C589 1.415 . S
C588 C587 1.355 . S
C588 C590 1.419 . S
C589 C584 1.425 . S
C589 C586 1.409 . S
C589 C587 1.415 . S
C590 H580 0.930 . S
C590 C588 1.419 . S
C590 C591 1.362 . S
C591 H581 0.930 . S
C591 C584 1.409 . S
C591 C590 1.362 . S
H592 C598 0.930 . S
H593 C601 0.930 . S
H594 C602 0.930 . S
H595 C603 0.930 . S
H596 C606 0.930 . S
H597 C607 0.930 . S
C598 H592 0.930 . S
C598 C599 1.355 . S
C598 C600 1.415 . S
C599 C598 1.355 . S
C599 C601 1.419 . S
C600 C598 1.415 . S
C600 C605 1.425 . S
C600 C607 1.409 . S
C601 H593 0.930 . S
C601 C599 1.419 . S
C601 C602 1.362 . S
C602 H594 0.930 . S
C602 C601 1.362 . S
C602 C605 1.409 . S
C603 H595 0.930 . S
C603 C604 1.355 . S
C603 C605 1.415 . S
C604 C603 1.355 . S
C604 C606 1.419 . S
C605 C600 1.425 . S
C605 C602 1.409 . S
C605 C603 1.415 . S
C606 H596 0.930 . S
C606 C604 1.419 . S
C606 C607 1.362 . S
C607 H597 0.930 . S
C607 C600 1.409 . S
C607 C606 1.362 . S
C231 C76 1.830 1_545 S
C236 C105 1.865 . S
C252 C126 1.529 . S
C247 C87 1.487 . S
C268 C160 1.429 . S
C263 C54 1.397 . S
C284 C194 1.545 . S
C279 C65 1.540 . S
C300 C96 1.863 . S
C295 C32 1.827 1_546 S
C311 C43 1.537 . S
C316 C135 1.547 . S
C327 C10 1.382 . S
C332 C169 1.414 . S
C343 C21 1.511 . S
C348 C203 1.536 1_655 S
C364 C117 0.700 . S
C359 C60 0.716 . S
C380 C122 1.126 . S
C375 C71 1.101 . S
C396 C156 1.056 . S
C391 C82 1.060 . S
C407 C49 0.477 . S
C412 C190 0.530 . S
C423 C16 0.582 . S
C428 C88 0.600 . S
C444 C151 1.100 . S
C439 C27 1.056 . S
C460 C185 1.012 . S
C455 C38 1.020 . S
C471 C5 0.488 . S
C476 C219 0.479 . S
C487 C59 1.280 . S
C492 C101 1.320 . S
C503 C70 1.676 . S
C508 C130 1.753 . S
C524 C164 1.535 . S
C519 C81 1.518 . S
C540 C198 1.604 . S
C535 C48 1.582 . S
C551 C15 1.259 . S
C556 C92 1.332 . S
C572 C139 1.753 . S
C567 C26 1.682 . S
C588 C173 1.547 . S
C583 C37 1.528 . S
C599 C4 1.588 . S
C604 C207 1.604 . S
