# Generated by pormake.
# Topology tsx, (6,3)-cn, num edge types: 1
# Building blocks:
#     Node 0, Type 0, BuildingBlock: LEVNOQ01_clean_sbu_1, # of connection points: 6
#     Node 1, Type 0, BuildingBlock: LEVNOQ01_clean_sbu_1, # of connection points: 6
#     Node 2, Type 1, BuildingBlock: BETDIP_clean_linker_0, # of connection points: 3
#     Node 3, Type 1, BuildingBlock: BETDIP_clean_linker_0, # of connection points: 3
#     Node 4, Type 1, BuildingBlock: BETDIP_clean_linker_0, # of connection points: 3
#     Node 5, Type 1, BuildingBlock: BETDIP_clean_linker_0, # of connection points: 3
#     Edge 6, Type (0, 1), BuildingBlock: TEMPAE_clean_linker_10, # of connection points: 2
#     Edge 7, Type (0, 1), BuildingBlock: TEMPAE_clean_linker_10, # of connection points: 2
#     Edge 8, Type (0, 1), BuildingBlock: TEMPAE_clean_linker_10, # of connection points: 2
#     Edge 9, Type (0, 1), BuildingBlock: TEMPAE_clean_linker_10, # of connection points: 2
#     Edge 10, Type (0, 1), BuildingBlock: TEMPAE_clean_linker_10, # of connection points: 2
#     Edge 11, Type (0, 1), BuildingBlock: TEMPAE_clean_linker_10, # of connection points: 2
#     Edge 12, Type (0, 1), BuildingBlock: TEMPAE_clean_linker_10, # of connection points: 2
#     Edge 13, Type (0, 1), BuildingBlock: TEMPAE_clean_linker_10, # of connection points: 2
#     Edge 14, Type (0, 1), BuildingBlock: TEMPAE_clean_linker_10, # of connection points: 2
#     Edge 15, Type (0, 1), BuildingBlock: TEMPAE_clean_linker_10, # of connection points: 2
#     Edge 16, Type (0, 1), BuildingBlock: TEMPAE_clean_linker_10, # of connection points: 2
#     Edge 17, Type (0, 1), BuildingBlock: TEMPAE_clean_linker_10, # of connection points: 2
# Relax obj value: 0.100
# Max RMSD: 0.152
# Mean RMSD: 0.113
data_MOF--net-tsx--node1-LEVNOQ01_clean_sbu_1--node2-BETDIP_clean_linker_0--edge1-TEMPAE_clean_linker_10
_symmetry_space_group_name_H-M    P1
_symmetry_Int_Tables_number       1
_symmetry_cell_setting            triclinic
loop_
_symmetry_equiv_pos_as_xyz
'x, y, z'
_cell_length_a     19.166495
_cell_length_b     23.34338
_cell_length_c     34.937236
_cell_angle_alpha  97.63279
_cell_angle_beta   102.60025
_cell_angle_gamma 90.355442
loop_
_atom_site_label
_atom_site_type_symbol
_atom_site_fract_x
_atom_site_fract_y
_atom_site_fract_z
_atom_type_partial_charge
O0 O 0.14856 -0.00803 0.10445 0.0
Mg1 Mg 0.18851 0.00785 0.05624 0.0
O2 O 0.04295 0.97673 0.06412 0.0
Mg3 Mg 0.05849 -0.00953 0.00059 0.0
O4 O 0.14438 0.06868 0.02149 0.0
O5 O 0.24652 0.08165 0.06829 0.0
O6 O 0.0705 0.00371 0.93675 0.0
O7 O 0.98205 0.07045 0.00467 0.0
Mg8 Mg 0.92521 0.97867 0.9544 0.0
O9 O 0.97239 0.91136 0.98079 0.0
O10 O 0.95784 0.00653 0.9063 0.0
O11 O 0.8718 0.03569 0.98828 0.0
O12 O 0.86881 0.90417 0.93495 0.0
C13 C 0.20501 0.90413 0.00799 0.0
C14 C 0.08296 0.9785 0.09864 0.0
C15 C 0.20011 0.101 0.04081 0.0
C16 C 0.02339 0.01088 0.90597 0.0
C17 C 0.91541 0.07756 0.00276 0.0
C18 C 0.91562 0.88127 0.96032 0.0
O19 O 0.24368 0.94223 0.03245 0.0
O20 O 0.13851 0.91271 -0.00459 0.0
O21 O 0.59322 0.57334 0.59477 0.0
Mg22 Mg 0.65208 0.55221 0.55148 0.0
O23 O 0.53599 0.50337 0.55189 0.0
Mg24 Mg 0.55484 0.52753 0.49034 0.0
O25 O 0.64608 0.60434 0.5081 0.0
O26 O 0.73406 0.60957 0.56289 0.0
O27 O 0.57221 0.55243 0.4287 0.0
O28 O 0.47212 0.59851 0.49277 0.0
Mg29 Mg 0.46759 0.49417 0.42712 0.0
O30 O 0.46158 0.45292 0.47394 0.0
O31 O 0.54533 0.46803 0.39431 0.0
O32 O 0.42639 0.57975 0.42879 0.0
O33 O 0.38495 0.43608 0.4146 0.0
C34 C 0.68603 0.44009 0.51291 0.0
C35 C 0.54884 0.53127 0.58675 0.0
C36 C 0.70518 0.62874 0.53044 0.0
C37 C 0.57496 0.51725 0.398 0.0
C38 C 0.43116 0.61197 0.4616 0.0
C39 C 0.40539 0.42556 0.45058 0.0
O40 O 0.6996 0.47069 0.54649 0.0
O41 O 0.63652 0.45465 0.48557 0.0
H42 H 0.08719 0.97946 0.48272 0.0
H43 H 0.97086 0.04782 0.38014 0.0
H44 H 0.07148 0.88431 0.36679 0.0
H45 H 0.04701 0.13411 0.42637 0.0
C46 C 0.01478 0.12525 0.44711 0.0
C47 C 0.06678 0.97485 0.45094 0.0
C48 C 0.08204 0.9258 0.42669 0.0
C49 C 0.02765 0.01915 0.43406 0.0
C50 C 0.00211 0.01375 0.39291 0.0
C51 C 0.01717 0.96515 0.36818 0.0
C52 C 0.05649 0.92091 0.38548 0.0
N53 N 0.0143 0.06925 0.45866 0.0
H54 H 0.97088 0.03564 0.5183 0.0
H55 H 0.10386 0.12329 0.62599 0.0
H56 H 0.98113 0.96983 0.62839 0.0
H57 H 0.06301 0.20349 0.58768 0.0
C58 C 0.08215 0.18293 0.5623 0.0
C59 C 0.99181 0.03861 0.54986 0.0
C60 C 0.9693 -0.0023 0.57099 0.0
C61 C 0.03922 0.08451 0.56954 0.0
C62 C 0.06593 0.08872 0.61072 0.0
C63 C 0.04598 0.04684 0.63199 0.0
C64 C -0.00255 0.00181 0.61192 0.0
N65 N 0.06211 0.12431 0.54708 0.0
H66 H 0.58241 0.44025 0.96525 0.0
H67 H 0.48304 0.49704 0.85509 0.0
H68 H 0.62227 0.35438 0.8549 0.0
H69 H 0.52262 0.58598 0.89725 0.0
C70 C 0.49364 0.57613 0.91924 0.0
C71 C 0.57412 0.4354 0.9333 0.0
C72 C 0.60745 0.39122 0.91287 0.0
C73 C 0.53114 0.4746 0.91261 0.0
C74 C 0.51743 0.46746 0.87117 0.0
C75 C 0.5495 0.42388 0.85024 0.0
C76 C 0.59542 0.38659 0.87121 0.0
N77 N 0.50272 0.52183 0.93356 0.0
H78 H 0.46634 0.4794 -0.00531 0.0
H79 H 0.58626 0.57253 0.10299 0.0
H80 H 0.39802 0.47009 0.10285 0.0
H81 H 0.54699 0.64517 0.04444 0.0
C82 C 0.58395 0.6181 0.03124 0.0
C83 C 0.47311 0.49211 0.02624 0.0
C84 C 0.42526 0.47051 0.04644 0.0
C85 C 0.52831 0.53145 0.04652 0.0
C86 C 0.53989 0.54541 0.08778 0.0
C87 C 0.49449 0.52246 0.10905 0.0
C88 C 0.43522 0.48708 0.08753 0.0
N89 N 0.57251 0.5572 0.02546 0.0
C90 C 0.26074 0.19749 0.06127 0.0
C91 C 0.21214 0.16047 0.03275 0.0
C92 C 0.28077 0.2518 0.05394 0.0
C93 C 0.25107 0.27034 0.01704 0.0
C94 C 0.19878 0.23469 -0.01127 0.0
C95 C 0.17997 0.17977 -0.00311 0.0
C96 C 0.33602 0.28839 0.08546 0.0
C97 C 0.16477 0.25302 0.94931 0.0
C98 C 0.3008 0.42789 0.03382 0.0
C99 C 0.36967 0.42551 0.02617 0.0
C100 C 0.25501 0.3785 0.02481 0.0
C101 C 0.2796 0.32563 0.00865 0.0
C102 C 0.34452 0.32543 -0.00447 0.0
C103 C 0.389 0.37555 0.0045 0.0
C104 C 0.1845 0.38119 0.03735 0.0
C105 C 0.37176 0.27037 0.97708 0.0
H106 H 0.28475 0.18348 0.08942 0.0
H107 H 0.14208 0.15141 0.97478 0.0
H108 H 0.38414 0.29637 0.07384 0.0
H109 H 0.31425 0.33099 0.09384 0.0
H110 H 0.35304 0.26762 0.11266 0.0
H111 H 0.11089 0.23191 0.93732 0.0
H112 H 0.15985 0.30061 0.95145 0.0
H113 H 0.19856 0.23961 0.92786 0.0
H114 H 0.28485 0.46712 0.04951 0.0
H115 H 0.44183 0.3737 -0.00196 0.0
H116 H 0.19122 0.36612 0.06671 0.0
H117 H 0.1432 0.35256 0.01603 0.0
H118 H 0.16523 0.42603 0.03989 0.0
H119 H 0.39334 0.24343 0.00058 0.0
H120 H 0.41509 0.27921 0.96186 0.0
H121 H 0.32775 0.24496 0.95548 0.0
C122 C 0.2021 0.8079 0.96498 0.0
C123 C 0.23876 0.85002 -0.00482 0.0
C124 C 0.23674 0.75824 0.95221 0.0
C125 C 0.30937 0.75084 0.97014 0.0
C126 C 0.34566 0.79227 0.00146 0.0
C127 C 0.31003 0.84113 0.01354 0.0
C128 C 0.19647 0.71465 0.91879 0.0
C129 C 0.42317 0.78614 0.02137 0.0
C130 C 0.40387 0.60897 0.95954 0.0
C131 C 0.44365 0.61878 0.93168 0.0
C132 C 0.35727 0.65057 0.97126 0.0
C133 C 0.35018 0.70278 0.95441 0.0
C134 C 0.38885 0.71194 0.92542 0.0
C135 C 0.4353 0.66989 0.91456 0.0
C136 C 0.31753 0.63947 0.00255 0.0
C137 C 0.38322 0.76713 0.9069 0.0
H138 H 0.14701 0.81425 0.95084 0.0
H139 H 0.33886 0.87296 0.03723 0.0
H140 H 0.2199 0.71493 0.89244 0.0
H141 H 0.20168 0.67044 0.92722 0.0
H142 H 0.13876 0.72391 0.91041 0.0
H143 H 0.44212 0.82022 0.04705 0.0
H144 H 0.43093 0.74327 0.03177 0.0
H145 H 0.45743 0.78882 -0.00021 0.0
H146 H 0.40958 0.5692 0.97249 0.0
H147 H 0.46578 0.67723 0.89278 0.0
H148 H 0.2597 0.64685 -0.00758 0.0
H149 H 0.33774 0.67026 0.02988 0.0
H150 H 0.32397 0.59474 0.01008 0.0
H151 H 0.32632 0.77592 0.89511 0.0
H152 H 0.41212 0.76538 0.88246 0.0
H153 H 0.40601 0.80407 0.92973 0.0
C154 C 0.90997 0.81243 0.00849 0.0
C155 C 0.89694 0.82385 0.96925 0.0
C156 C 0.87052 0.76832 0.01902 0.0
C157 C 0.8174 0.73535 -0.01048 0.0
C158 C 0.81113 0.74201 0.94927 0.0
C159 C 0.85109 0.78623 0.93964 0.0
C160 C 0.87998 0.7617 0.06219 0.0
C161 C 0.75576 0.70764 0.91676 0.0
C162 C 0.70314 0.6154 0.01221 0.0
C163 C 0.64362 0.64611 0.01943 0.0
C164 C 0.76136 0.64388 0.0033 0.0
C165 C 0.75894 0.70399 0.00097 0.0
C166 C 0.69825 0.73471 0.0078 0.0
C167 C 0.64172 0.70542 0.01727 0.0
C168 C 0.82551 0.60997 -0.00321 0.0
C169 C 0.69258 0.7986 0.00483 0.0
H170 H 0.94545 0.8414 0.03146 0.0
H171 H 0.8417 0.79459 0.90916 0.0
H172 H 0.8369 0.78437 0.0741 0.0
H173 H 0.87593 0.71548 0.06608 0.0
H174 H 0.9323 0.78061 0.07992 0.0
H175 H 0.76648 0.71021 0.88703 0.0
H176 H 0.75375 0.66154 0.92116 0.0
H177 H 0.70218 0.72504 0.91738 0.0
H178 H 0.70489 0.56949 0.01429 0.0
H179 H 0.59551 0.72898 0.02284 0.0
H180 H 0.87385 0.62795 0.01898 0.0
H181 H 0.83551 0.61399 0.96715 0.0
H182 H 0.81862 0.56336 -0.00085 0.0
H183 H 0.73765 0.82316 0.02618 0.0
H184 H 0.64159 0.81584 0.01089 0.0
H185 H 0.69618 0.8067 0.97472 0.0
C186 C 0.82221 0.1436 0.01986 0.0
C187 C 0.88648 0.13587 0.00724 0.0
C188 C 0.78196 0.19268 0.01296 0.0
C189 C 0.80543 0.23376 -0.00833 0.0
C190 C 0.87364 0.22877 0.98224 0.0
C191 C 0.91392 0.18009 -0.00932 0.0
C192 C 0.71103 0.19752 0.02503 0.0
C193 C 0.90053 0.27106 0.95914 0.0
C194 C 0.65841 0.29301 0.91755 0.0
C195 C 0.6561 0.35071 0.93457 0.0
C196 C 0.70719 0.2551 0.93575 0.0
C197 C 0.75353 0.27449 0.97279 0.0
C198 C 0.74979 0.3319 -0.00892 0.0
C199 C 0.70184 0.3696 0.97151 0.0
C200 C 0.70953 0.19429 0.91497 0.0
C201 C 0.79686 0.35368 0.03104 0.0
H202 H 0.80118 0.10949 0.03289 0.0
H203 H 0.9634 0.17397 0.98062 0.0
H204 H 0.70216 0.24294 0.03642 0.0
H205 H 0.66715 0.18367 -0.00115 0.0
H206 H 0.70761 0.16977 0.0481 0.0
H207 H 0.95857 0.26693 0.96 0.0
H208 H 0.87089 0.26269 0.92777 0.0
H209 H 0.89094 0.31619 0.97069 0.0
H210 H 0.62209 0.27724 0.88969 0.0
H211 H 0.7013 0.41416 0.98489 0.0
H212 H 0.69522 0.16259 0.93325 0.0
H213 H 0.76453 0.18536 0.91103 0.0
H214 H 0.67226 0.18693 0.88543 0.0
H215 H 0.7933 0.32325 0.05245 0.0
H216 H 0.78209 0.39725 0.04312 0.0
H217 H 0.85347 0.35605 0.02856 0.0
C218 C 0.81211 0.69325 0.53881 0.0
C219 C 0.7402 0.67971 0.52041 0.0
C220 C 0.84442 0.74621 0.53672 0.0
C221 C 0.80408 0.78682 0.5153 0.0
C222 C 0.73358 0.77126 0.49337 0.0
C223 C 0.70212 0.7177 0.49631 0.0
C224 C 0.91991 0.76047 0.56039 0.0
C225 C 0.68979 0.81252 0.46901 0.0
C226 C 0.86209 0.93555 0.56922 0.0
C227 C 0.91677 0.95015 0.55102 0.0
C228 C 0.82006 0.88469 0.55539 0.0
C229 C 0.8323 0.84774 0.5221 0.0
C230 C 0.88226 0.86536 0.50104 0.0
C231 C 0.92441 0.91634 0.51594 0.0
C232 C 0.76743 0.86793 0.57885 0.0
C233 C 0.89547 0.82833 0.46469 0.0
H234 H 0.84253 0.66341 0.55667 0.0
H235 H 0.64677 0.70714 0.4816 0.0
H236 H 0.95346 0.77646 0.54163 0.0
H237 H 0.91921 0.79539 0.58519 0.0
H238 H 0.94563 0.72254 0.57297 0.0
H239 H 0.64498 0.78952 0.44643 0.0
H240 H 0.66675 0.84465 0.48871 0.0
H241 H 0.72353 0.83655 0.45395 0.0
H242 H 0.85456 0.96259 0.59565 0.0
H243 H 0.96612 0.92773 0.50146 0.0
H244 H 0.78774 0.83081 0.59435 0.0
H245 H 0.71506 0.85407 0.55891 0.0
H246 H 0.75893 0.90399 0.60134 0.0
H247 H 0.93366 0.79457 0.47383 0.0
H248 H 0.9191 0.85439 0.44595 0.0
H249 H 0.84522 0.80626 0.4467 0.0
C250 C 0.79019 0.37904 0.53476 0.0
C251 C 0.73136 0.39047 0.50523 0.0
C252 C 0.8372 0.33524 0.52734 0.0
C253 C 0.82489 0.30168 0.48957 0.0
C254 C 0.76473 0.31192 0.45992 0.0
C255 C 0.71875 0.35633 0.46806 0.0
C256 C 0.90091 0.32571 0.55966 0.0
C257 C 0.74977 0.2767 0.41932 0.0
C258 C 0.98036 0.22775 0.45482 0.0
C259 C 0.96934 0.17069 0.46094 0.0
C260 C 0.93452 0.27112 0.46473 0.0
C261 C 0.87596 0.25673 0.48078 0.0
C262 C 0.8657 0.19929 0.4879 0.0
C263 C 0.91274 0.15691 0.47799 0.0
C264 C 0.9482 0.33214 0.45755 0.0
C265 C 0.804 0.18229 0.50503 0.0
H266 H 0.80055 0.40517 0.5636 0.0
H267 H 0.67352 0.36481 0.4451 0.0
H268 H 0.90062 0.28011 0.56542 0.0
H269 H 0.95116 0.3338 0.55006 0.0
H270 H 0.90173 0.35441 0.58781 0.0
H271 H 0.69938 0.28865 0.40003 0.0
H272 H 0.79459 0.2831 0.4047 0.0
H273 H 0.74604 0.22997 0.42193 0.0
H274 H 0.02458 0.23833 0.44191 0.0
H275 H 0.9038 0.11269 0.48253 0.0
H276 H 0.95747 0.36172 0.48592 0.0
H277 H 0.90063 0.34709 0.43758 0.0
H278 H 0.99526 0.33586 0.44416 0.0
H279 H 0.8049 0.21001 0.53351 0.0
H280 H 0.80522 0.13632 0.51019 0.0
H281 H 0.75267 0.18914 0.48454 0.0
C282 C 0.38555 0.36536 0.50205 0.0
C283 C 0.36073 0.38561 0.46567 0.0
C284 C 0.34139 0.32998 0.51713 0.0
C285 C 0.27016 0.31596 0.49585 0.0
C286 C 0.24505 0.33599 0.45902 0.0
C287 C 0.29079 0.37002 0.44422 0.0
C288 C 0.37071 0.30899 0.5563 0.0
C289 C 0.16913 0.32287 0.43576 0.0
C290 C 0.16765 0.18894 0.51796 0.0
C291 C 0.12792 0.21665 0.54381 0.0
C292 C 0.21457 0.2207 0.50234 0.0
C293 C 0.22102 0.28159 0.51239 0.0
C294 C 0.17979 0.30979 0.53785 0.0
C295 C 0.13408 0.27685 0.5535 0.0
C296 C 0.25837 0.18902 0.47576 0.0
C297 C 0.18419 0.3747 0.54868 0.0
H298 H 0.43941 0.37727 0.51882 0.0
H299 H 0.27076 0.38586 0.41622 0.0
H300 H 0.35211 0.33705 0.58003 0.0
H301 H 0.3517 0.26399 0.55628 0.0
H302 H 0.43008 0.31062 0.56356 0.0
H303 H 0.15827 0.34079 0.40721 0.0
H304 H 0.15798 0.27547 0.42954 0.0
H305 H 0.1312 0.34138 0.45354 0.0
H306 H 0.1634 0.14227 0.51061 0.0
H307 H 0.10308 0.29818 0.57339 0.0
H308 H 0.31619 0.19763 0.48907 0.0
H309 H 0.2472 0.20506 0.44661 0.0
H310 H 0.24718 0.14153 0.47087 0.0
H311 H 0.23939 0.38888 0.56472 0.0
H312 H 0.14661 0.39009 0.56764 0.0
H313 H 0.17194 0.39584 0.52147 0.0
C314 C 0.36288 0.68367 0.49766 0.0
C315 C 0.38638 0.6632 0.4632 0.0
C316 C 0.31396 0.72836 0.49778 0.0
C317 C 0.2894 0.75377 0.46286 0.0
C318 C 0.31561 0.73488 0.42858 0.0
C319 C 0.36311 0.68946 0.42906 0.0
C320 C 0.28644 0.74677 0.53468 0.0
C321 C 0.29214 0.76168 0.39098 0.0
C322 C 0.11081 0.82397 0.4364 0.0
C323 C 0.13174 0.88264 0.44322 0.0
C324 C 0.16099 0.78157 0.44562 0.0
C325 C 0.23399 0.79836 0.46104 0.0
C326 C 0.25454 0.85787 0.46996 0.0
C327 C 0.20288 0.8994 0.46121 0.0
C328 C 0.13655 0.71868 0.43656 0.0
C329 C 0.3318 0.87763 0.48586 0.0
H330 H 0.38045 0.66318 0.52404 0.0
H331 H 0.3817 0.67409 0.40246 0.0
H332 H 0.29279 0.79435 0.54301 0.0
H333 H 0.22841 0.73546 0.52885 0.0
H334 H 0.31445 0.72565 0.56015 0.0
H335 H 0.32126 0.74475 0.36787 0.0
H336 H 0.23402 0.75275 0.37891 0.0
H337 H 0.30097 0.80934 0.39731 0.0
H338 H 0.05561 0.81125 0.42256 0.0
H339 H 0.21898 0.94488 0.46609 0.0
H340 H 0.15967 0.6953 0.46178 0.0
H341 H 0.15565 0.69811 0.4104 0.0
H342 H 0.07732 0.71322 0.43011 0.0
H343 H 0.35669 0.85451 0.51088 0.0
H344 H 0.33763 0.92493 0.496 0.0
H345 H 0.36203 0.86729 0.46225 0.0
C346 C 0.98264 0.97079 0.13398 0.0
C347 C 0.05486 0.96483 0.13267 0.0
C348 C 0.95951 0.96513 0.16895 0.0
C349 C 0.00992 0.9532 0.20292 0.0
C350 C 0.08162 0.94297 0.20055 0.0
C351 C 0.10306 0.94894 0.16555 0.0
C352 C 0.88236 0.9753 0.17017 0.0
C353 C 0.13716 0.92942 0.23583 0.0
C354 C 0.0107 0.01406 0.30812 0.0
C355 C -0.00022 0.96385 0.32443 0.0
C356 C 0.00661 0.01215 0.26748 0.0
C357 C 0.99194 0.95861 0.24248 0.0
C358 C 0.97474 0.90875 0.25809 0.0
C359 C 0.97904 0.91191 0.299 0.0
C360 C 0.02503 0.06649 0.25207 0.0
C361 C 0.95758 0.85109 0.23227 0.0
H362 H 0.94506 0.98251 0.10847 0.0
H363 H 0.15865 0.94289 0.16439 0.0
H364 H 0.86222 0.94435 0.18711 0.0
H365 H 0.87794 0.01954 0.18537 0.0
H366 H 0.84755 0.97133 0.13995 0.0
H367 H 0.18909 0.91819 0.22807 0.0
H368 H 0.14653 0.96748 0.25924 0.0
H369 H 0.11803 0.89281 0.24852 0.0
H370 H 0.02735 0.05435 0.32741 0.0
H371 H 0.96896 0.87318 0.31125 0.0
H372 H 0.98671 0.07177 0.22409 0.0
H373 H 0.07916 0.06323 0.24559 0.0
H374 H 0.02484 0.1058 0.27379 0.0
H375 H 0.92332 0.85627 0.20302 0.0
H376 H 0.9302 0.82042 0.24641 0.0
H377 H 0.00797 0.83175 0.22699 0.0
C378 C 0.98983 0.01596 0.83377 0.0
C379 C 0.04305 0.02211 0.86883 0.0
C380 C 0.00526 0.02514 0.79775 0.0
C381 C 0.07584 0.04152 0.7965 0.0
C382 C 0.12998 0.04876 0.8318 0.0
C383 C 0.11302 0.03859 0.86767 0.0
C384 C 0.9458 0.01632 0.76084 0.0
C385 C 0.20552 0.06696 0.83157 0.0
C386 C 0.09592 0.00024 0.69193 0.0
C387 C 0.07281 0.05023 0.67541 0.0
C388 C 0.10555 -0.0013 0.73271 0.0
C389 C 0.0915 0.04838 0.75746 0.0
C390 C 0.07604 0.10081 0.74152 0.0
C391 C 0.06675 0.10111 0.70053 0.0
C392 C 0.12274 0.94201 0.74837 0.0
C393 C 0.0616 0.15495 0.76695 0.0
H394 H 0.93564 0.00299 0.83422 0.0
H395 H 0.15426 0.04381 0.89472 0.0
H396 H 0.93918 0.05652 0.74689 0.0
H397 H 0.95952 0.98176 0.73894 0.0
H398 H 0.8937 0.00406 0.76706 0.0
H399 H 0.24095 0.07221 0.86165 0.0
H400 H 0.22815 0.03434 0.81199 0.0
H401 H 0.20569 0.10848 0.81939 0.0
H402 H 0.10222 0.96117 0.67259 0.0
H403 H 0.04929 0.13995 0.68787 0.0
H404 H 0.07294 0.92171 0.75262 0.0
H405 H 0.16103 0.94883 0.7775 0.0
H406 H 0.14558 0.91137 0.7276 0.0
H407 H 0.00647 0.15171 0.77181 0.0
H408 H 0.06621 0.19415 0.75265 0.0
H409 H 0.09904 0.1602 0.79637 0.0
C410 C 0.52692 0.54572 0.65472 0.0
C411 C 0.52565 0.50856 0.61962 0.0
C412 C 0.5212 0.52398 0.6894 0.0
C413 C 0.51483 0.46344 0.68909 0.0
C414 C 0.50908 0.4258 0.65314 0.0
C415 C 0.51348 0.44898 0.61854 0.0
C416 C 0.52696 0.5657 0.72702 0.0
C417 C 0.50115 0.36107 0.65142 0.0
C418 C 0.59849 0.42215 0.78955 0.0
C419 C 0.53907 0.42149 0.80676 0.0
C420 C 0.59059 0.43162 0.75006 0.0
C421 C 0.52161 0.44042 0.72735 0.0
C422 C 0.46089 0.43476 0.74356 0.0
C423 C 0.47037 0.42567 0.78324 0.0
C424 C 0.65655 0.43611 0.73347 0.0
C425 C 0.38644 0.44191 0.71978 0.0
H426 H 0.53571 0.59184 0.65552 0.0
H427 H 0.51225 0.42009 0.59139 0.0
H428 H 0.48232 0.55745 0.74136 0.0
H429 H 0.57763 0.55922 0.74822 0.0
H430 H 0.52618 0.61154 0.72159 0.0
H431 H 0.51676 0.33773 0.62492 0.0
H432 H 0.5341 0.34574 0.6781 0.0
H433 H 0.44443 0.34927 0.65008 0.0
H434 H 0.65164 0.41902 0.80767 0.0
H435 H 0.42423 0.42417 0.7964 0.0
H436 H 0.66541 0.48151 0.72889 0.0
H437 H 0.64917 0.40883 0.70424 0.0
H438 H 0.70519 0.42262 0.75347 0.0
H439 H 0.37973 0.48773 0.71484 0.0
H440 H 0.34456 0.42946 0.73497 0.0
H441 H 0.37809 0.41527 0.69028 0.0
C442 C 0.63192 0.51363 0.34032 0.0
C443 C 0.58336 0.53868 0.36159 0.0
C444 C 0.62636 0.52148 0.30061 0.0
C445 C 0.56848 0.55233 0.28144 0.0
C446 C 0.52219 0.58078 0.30374 0.0
C447 C 0.53111 0.57439 0.34385 0.0
C448 C 0.6789 0.4928 0.27838 0.0
C449 C 0.45823 0.61226 0.28442 0.0
C450 C 0.5498 0.58203 0.1751 0.0
C451 C 0.51144 0.53205 0.15349 0.0
C452 C 0.57042 0.58883 0.21668 0.0
C453 C 0.54907 0.54618 0.23741 0.0
C454 C 0.5084 0.49674 0.21607 0.0
C455 C 0.492 0.48953 0.1746 0.0
C456 C 0.6162 0.64102 0.23837 0.0
C457 C 0.48242 0.45092 0.23699 0.0
H458 H 0.67191 0.48562 0.35412 0.0
H459 H 0.49274 0.59276 0.36028 0.0
H460 H 0.65403 0.45233 0.26005 0.0
H461 H 0.69368 0.52133 0.25818 0.0
H462 H 0.72834 0.48164 0.29887 0.0
H463 H 0.43444 0.63929 0.30661 0.0
H464 H 0.47271 0.64023 0.26388 0.0
H465 H 0.41678 0.58007 0.26673 0.0
H466 H 0.56429 0.61601 0.15971 0.0
H467 H 0.46484 0.44968 0.15894 0.0
H468 H 0.66643 0.62679 0.25649 0.0
H469 H 0.58808 0.66674 0.259 0.0
H470 H 0.63012 0.66948 0.21785 0.0
H471 H 0.52866 0.42838 0.25255 0.0
H472 H 0.44556 0.41811 0.21622 0.0
H473 H 0.45416 0.4711 0.25963 0.0
loop_
_geom_bond_atom_site_label_1
_geom_bond_atom_site_label_2
_geom_bond_distance
_geom_bond_site_symmetry_2
_ccdc_geom_bond_type
O0 Mg1 1.990 . S
O0 C14 1.253 . S
Mg1 O0 1.990 . S
Mg1 O4 2.180 . S
Mg1 O5 2.117 . S
Mg1 O19 2.030 1_545 S
O2 Mg3 2.072 1_554 S
O2 C14 1.260 . S
Mg3 O2 2.072 1_556 S
Mg3 O4 2.099 1_556 S
Mg3 O6 2.079 . S
Mg3 O7 2.072 1_556 S
Mg3 O9 2.099 1_445 S
Mg3 O20 2.079 1_545 S
O4 Mg1 2.180 . S
O4 Mg3 2.099 1_554 S
O4 C15 1.279 . S
O5 Mg1 2.117 . S
O5 C15 1.250 . S
O6 Mg3 2.079 . S
O6 C16 1.264 . S
O7 Mg3 2.072 1_554 S
O7 C17 1.259 1_454 S
Mg8 O9 2.180 . S
Mg8 O10 2.030 1_565 S
Mg8 O11 1.990 1_565 S
Mg8 O12 2.117 . S
O9 Mg3 2.099 1_665 S
O9 Mg8 2.180 . S
O9 C18 1.279 . S
O10 Mg8 2.030 1_545 S
O10 C16 1.248 1_655 S
O11 Mg8 1.990 1_545 S
O11 C17 1.253 . S
O12 Mg8 2.117 . S
O12 C18 1.250 . S
C13 O19 1.248 . S
C13 O20 1.264 1_554 S
C14 O0 1.253 . S
C14 O2 1.260 . S
C15 O4 1.279 . S
C15 O5 1.250 . S
C16 O6 1.264 . S
C16 O10 1.248 1_455 S
C17 O7 1.259 1_656 S
C17 O11 1.253 . S
C18 O9 1.279 . S
C18 O12 1.250 . S
O19 Mg1 2.030 1_565 S
O19 C13 1.248 . S
O20 Mg3 2.079 1_565 S
O20 C13 1.264 1_556 S
O21 Mg22 1.990 . S
O21 C35 1.253 . S
Mg22 O21 1.990 . S
Mg22 O25 2.180 . S
Mg22 O26 2.117 . S
Mg22 O40 2.030 . S
O23 Mg24 2.072 . S
O23 C35 1.260 . S
Mg24 O23 2.072 . S
Mg24 O25 2.099 . S
Mg24 O27 2.079 . S
Mg24 O28 2.072 . S
Mg24 O30 2.099 . S
Mg24 O41 2.079 . S
O25 Mg22 2.180 . S
O25 Mg24 2.099 . S
O25 C36 1.279 . S
O26 Mg22 2.117 . S
O26 C36 1.250 . S
O27 Mg24 2.079 . S
O27 C37 1.264 . S
O28 Mg24 2.072 . S
O28 C38 1.260 . S
Mg29 O30 2.180 . S
Mg29 O31 2.030 . S
Mg29 O32 1.990 . S
Mg29 O33 2.117 . S
O30 Mg24 2.099 . S
O30 Mg29 2.180 . S
O30 C39 1.279 . S
O31 Mg29 2.030 . S
O31 C37 1.248 . S
O32 Mg29 1.990 . S
O32 C38 1.253 . S
O33 Mg29 2.117 . S
O33 C39 1.250 . S
C34 O40 1.248 . S
C34 O41 1.264 . S
C35 O21 1.253 . S
C35 O23 1.260 . S
C36 O25 1.279 . S
C36 O26 1.250 . S
C37 O27 1.264 . S
C37 O31 1.248 . S
C38 O28 1.260 . S
C38 O32 1.253 . S
C39 O30 1.279 . S
C39 O33 1.250 . S
O40 Mg22 2.030 . S
O40 C34 1.248 . S
O41 Mg24 2.079 . S
O41 C34 1.264 . S
H42 C47 0.930 . S
H43 C50 0.930 . S
H44 C52 0.930 . S
H45 C46 1.016 . S
C46 H45 1.016 . S
C46 N53 1.286 . S
C47 H42 0.930 . S
C47 C48 1.397 . S
C47 C49 1.361 1_565 S
C48 C47 1.397 . S
C48 C52 1.390 . S
C49 C47 1.361 1_545 S
C49 C50 1.393 . S
C49 N53 1.413 1_455 S
C50 H43 0.930 . S
C50 C49 1.393 . S
C50 C51 1.399 1_545 S
C51 C50 1.399 1_565 S
C51 C52 1.381 . S
C52 H44 0.930 . S
C52 C48 1.390 . S
C52 C51 1.381 . S
N53 C46 1.286 . S
N53 C49 1.413 1_655 S
H54 C59 0.930 . S
H55 C62 0.930 . S
H56 C64 0.930 1_565 S
H57 C58 1.016 . S
C58 H57 1.016 . S
C58 N65 1.286 . S
C59 H54 0.930 . S
C59 C60 1.397 1_545 S
C59 C61 1.361 1_655 S
C60 C59 1.397 1_565 S
C60 C64 1.390 1_565 S
C61 C59 1.361 1_455 S
C61 C62 1.393 . S
C61 N65 1.413 . S
C62 H55 0.930 . S
C62 C61 1.393 . S
C62 C63 1.399 1_455 S
C63 C62 1.399 1_655 S
C63 C64 1.381 . S
C64 H56 0.930 1_545 S
C64 C60 1.390 1_545 S
C64 C63 1.381 . S
N65 C58 1.286 . S
N65 C61 1.413 . S
H66 C71 0.930 . S
H67 C74 0.930 . S
H68 C76 0.930 . S
H69 C70 1.016 . S
C70 H69 1.016 . S
C70 N77 1.286 . S
C71 H66 0.930 . S
C71 C72 1.397 . S
C71 C73 1.361 . S
C72 C71 1.397 . S
C72 C76 1.390 . S
C73 C71 1.361 . S
C73 C74 1.393 . S
C73 N77 1.413 . S
C74 H67 0.930 . S
C74 C73 1.393 . S
C74 C75 1.399 . S
C75 C74 1.399 . S
C75 C76 1.381 . S
C76 H68 0.930 . S
C76 C72 1.390 . S
C76 C75 1.381 . S
N77 C70 1.286 . S
N77 C73 1.413 . S
H78 C83 0.930 . S
H79 C86 0.930 . S
H80 C88 0.930 . S
H81 C82 1.016 . S
C82 H81 1.016 . S
C82 N89 1.286 . S
C83 H78 0.930 . S
C83 C84 1.397 . S
C83 C85 1.361 . S
C84 C83 1.397 . S
C84 C88 1.390 . S
C85 C83 1.361 . S
C85 C86 1.393 . S
C85 N89 1.413 . S
C86 H79 0.930 . S
C86 C85 1.393 . S
C86 C87 1.399 . S
C87 C86 1.399 . S
C87 C88 1.381 . S
C88 H80 0.930 . S
C88 C84 1.390 . S
C88 C87 1.381 . S
N89 C82 1.286 . S
N89 C85 1.413 . S
C90 C91 1.391 . S
C90 C92 1.394 . S
C90 H106 0.931 . S
C91 C90 1.391 . S
C91 C95 1.376 1_554 S
C92 C90 1.394 . S
C92 C93 1.369 . S
C92 C96 1.531 . S
C93 C92 1.369 . S
C93 C94 1.410 1_554 S
C93 C101 1.503 . S
C94 C93 1.410 1_556 S
C94 C95 1.392 . S
C94 C97 1.511 . S
C95 C91 1.376 1_556 S
C95 C94 1.392 . S
C95 H107 0.929 . S
C96 C92 1.531 . S
C96 H108 0.960 . S
C96 H109 0.962 . S
C96 H110 0.960 . S
C97 C94 1.511 . S
C97 H111 0.961 . S
C97 H112 0.961 . S
C97 H113 0.961 . S
C98 C99 1.370 . S
C98 C100 1.363 . S
C98 H114 0.931 . S
C99 C98 1.370 . S
C99 C103 1.408 . S
C100 C98 1.363 . S
C100 C101 1.370 . S
C100 C104 1.524 . S
C101 C93 1.503 . S
C101 C100 1.370 . S
C101 C102 1.403 . S
C102 C101 1.403 . S
C102 C103 1.404 . S
C102 C105 1.539 1_554 S
C103 C99 1.408 . S
C103 C102 1.404 . S
C103 H115 0.930 . S
C104 C100 1.524 . S
C104 H116 0.956 . S
C104 H117 0.961 . S
C104 H118 0.961 . S
C105 C102 1.539 1_556 S
C105 H119 0.958 1_556 S
C105 H120 0.961 . S
C105 H121 0.960 . S
H106 C90 0.931 . S
H107 C95 0.929 . S
H108 C96 0.960 . S
H109 C96 0.962 . S
H110 C96 0.960 . S
H111 C97 0.961 . S
H112 C97 0.961 . S
H113 C97 0.961 . S
H114 C98 0.931 . S
H115 C103 0.930 . S
H116 C104 0.956 . S
H117 C104 0.961 . S
H118 C104 0.961 . S
H119 C105 0.958 1_554 S
H120 C105 0.961 . S
H121 C105 0.960 . S
C122 C123 1.391 1_556 S
C122 C124 1.394 . S
C122 H138 0.931 . S
C123 C122 1.391 1_554 S
C123 C127 1.376 . S
C124 C122 1.394 . S
C124 C125 1.369 . S
C124 C128 1.531 . S
C125 C124 1.369 . S
C125 C126 1.410 1_556 S
C125 C133 1.503 . S
C126 C125 1.410 1_554 S
C126 C127 1.392 . S
C126 C129 1.511 . S
C127 C123 1.376 . S
C127 C126 1.392 . S
C127 H139 0.929 . S
C128 C124 1.531 . S
C128 H140 0.960 . S
C128 H141 0.962 . S
C128 H142 0.960 . S
C129 C126 1.511 . S
C129 H143 0.961 . S
C129 H144 0.961 . S
C129 H145 0.961 1_554 S
C130 C131 1.370 1_554 S
C130 C132 1.363 . S
C130 H146 0.931 . S
C131 C130 1.370 1_556 S
C131 C135 1.408 . S
C132 C130 1.363 . S
C132 C133 1.370 1_554 S
C132 C136 1.524 . S
C133 C125 1.503 . S
C133 C132 1.370 1_556 S
C133 C134 1.403 . S
C134 C133 1.403 . S
C134 C135 1.404 . S
C134 C137 1.539 . S
C135 C131 1.408 . S
C135 C134 1.404 . S
C135 H147 0.930 . S
C136 C132 1.524 . S
C136 H148 0.956 . S
C136 H149 0.961 . S
C136 H150 0.961 . S
C137 C134 1.539 . S
C137 H151 0.958 . S
C137 H152 0.961 . S
C137 H153 0.960 . S
H138 C122 0.931 . S
H139 C127 0.929 . S
H140 C128 0.960 . S
H141 C128 0.962 . S
H142 C128 0.960 . S
H143 C129 0.961 . S
H144 C129 0.961 . S
H145 C129 0.961 1_556 S
H146 C130 0.931 . S
H147 C135 0.930 . S
H148 C136 0.956 . S
H149 C136 0.961 . S
H150 C136 0.961 . S
H151 C137 0.958 . S
H152 C137 0.961 . S
H153 C137 0.960 . S
C154 C155 1.391 . S
C154 C156 1.394 . S
C154 H170 0.931 . S
C155 C154 1.391 . S
C155 C159 1.376 1_554 S
C156 C154 1.394 . S
C156 C157 1.369 . S
C156 C160 1.531 . S
C157 C156 1.369 . S
C157 C158 1.410 1_554 S
C157 C165 1.503 . S
C158 C157 1.410 1_556 S
C158 C159 1.392 . S
C158 C161 1.511 . S
C159 C155 1.376 1_556 S
C159 C158 1.392 . S
C159 H171 0.929 . S
C160 C156 1.531 . S
C160 H172 0.960 . S
C160 H173 0.962 . S
C160 H174 0.960 . S
C161 C158 1.511 . S
C161 H175 0.961 . S
C161 H176 0.961 . S
C161 H177 0.961 . S
C162 C163 1.370 . S
C162 C164 1.363 . S
C162 H178 0.931 . S
C163 C162 1.370 . S
C163 C167 1.408 . S
C164 C162 1.363 . S
C164 C165 1.370 . S
C164 C168 1.524 . S
C165 C157 1.503 . S
C165 C164 1.370 . S
C165 C166 1.403 1_554 S
C166 C165 1.403 1_556 S
C166 C167 1.404 1_556 S
C166 C169 1.539 . S
C167 C163 1.408 . S
C167 C166 1.404 1_554 S
C167 H179 0.930 1_554 S
C168 C164 1.524 . S
C168 H180 0.956 . S
C168 H181 0.961 . S
C168 H182 0.961 . S
C169 C166 1.539 . S
C169 H183 0.958 . S
C169 H184 0.961 . S
C169 H185 0.960 . S
H170 C154 0.931 . S
H171 C159 0.929 . S
H172 C160 0.960 . S
H173 C160 0.962 . S
H174 C160 0.960 . S
H175 C161 0.961 . S
H176 C161 0.961 . S
H177 C161 0.961 . S
H178 C162 0.931 . S
H179 C167 0.930 1_556 S
H180 C168 0.956 . S
H181 C168 0.961 . S
H182 C168 0.961 . S
H183 C169 0.958 . S
H184 C169 0.961 . S
H185 C169 0.960 . S
C186 C187 1.391 . S
C186 C188 1.394 . S
C186 H202 0.931 . S
C187 C186 1.391 . S
C187 C191 1.376 . S
C188 C186 1.394 . S
C188 C189 1.369 . S
C188 C192 1.531 . S
C189 C188 1.369 . S
C189 C190 1.410 . S
C189 C197 1.503 . S
C190 C189 1.410 . S
C190 C191 1.392 . S
C190 C193 1.511 . S
C191 C187 1.376 . S
C191 C190 1.392 . S
C191 H203 0.929 . S
C192 C188 1.531 . S
C192 H204 0.960 . S
C192 H205 0.962 . S
C192 H206 0.960 . S
C193 C190 1.511 . S
C193 H207 0.961 . S
C193 H208 0.961 . S
C193 H209 0.961 1_556 S
C194 C195 1.370 . S
C194 C196 1.363 . S
C194 H210 0.931 . S
C195 C194 1.370 . S
C195 C199 1.408 1_556 S
C196 C194 1.363 . S
C196 C197 1.370 . S
C196 C200 1.524 . S
C197 C189 1.503 . S
C197 C196 1.370 . S
C197 C198 1.403 1_556 S
C198 C197 1.403 1_554 S
C198 C199 1.404 . S
C198 C201 1.539 . S
C199 C195 1.408 1_554 S
C199 C198 1.404 . S
C199 H211 0.930 . S
C200 C196 1.524 . S
C200 H212 0.956 . S
C200 H213 0.961 . S
C200 H214 0.961 . S
C201 C198 1.539 . S
C201 H215 0.958 . S
C201 H216 0.961 . S
C201 H217 0.960 . S
H202 C186 0.931 . S
H203 C191 0.929 . S
H204 C192 0.960 . S
H205 C192 0.962 . S
H206 C192 0.960 . S
H207 C193 0.961 . S
H208 C193 0.961 . S
H209 C193 0.961 1_554 S
H210 C194 0.931 . S
H211 C199 0.930 . S
H212 C200 0.956 . S
H213 C200 0.961 . S
H214 C200 0.961 . S
H215 C201 0.958 . S
H216 C201 0.961 . S
H217 C201 0.960 . S
C218 C219 1.391 . S
C218 C220 1.394 . S
C218 H234 0.931 . S
C219 C218 1.391 . S
C219 C223 1.376 . S
C220 C218 1.394 . S
C220 C221 1.369 . S
C220 C224 1.531 . S
C221 C220 1.369 . S
C221 C222 1.410 . S
C221 C229 1.503 . S
C222 C221 1.410 . S
C222 C223 1.392 . S
C222 C225 1.511 . S
C223 C219 1.376 . S
C223 C222 1.392 . S
C223 H235 0.929 . S
C224 C220 1.531 . S
C224 H236 0.960 . S
C224 H237 0.962 . S
C224 H238 0.960 . S
C225 C222 1.511 . S
C225 H239 0.961 . S
C225 H240 0.961 . S
C225 H241 0.961 . S
C226 C227 1.370 . S
C226 C228 1.363 . S
C226 H242 0.931 . S
C227 C226 1.370 . S
C227 C231 1.408 . S
C228 C226 1.363 . S
C228 C229 1.370 . S
C228 C232 1.524 . S
C229 C221 1.503 . S
C229 C228 1.370 . S
C229 C230 1.403 . S
C230 C229 1.403 . S
C230 C231 1.404 . S
C230 C233 1.539 . S
C231 C227 1.408 . S
C231 C230 1.404 . S
C231 H243 0.930 . S
C232 C228 1.524 . S
C232 H244 0.956 . S
C232 H245 0.961 . S
C232 H246 0.961 . S
C233 C230 1.539 . S
C233 H247 0.958 . S
C233 H248 0.961 . S
C233 H249 0.960 . S
H234 C218 0.931 . S
H235 C223 0.929 . S
H236 C224 0.960 . S
H237 C224 0.962 . S
H238 C224 0.960 . S
H239 C225 0.961 . S
H240 C225 0.961 . S
H241 C225 0.961 . S
H242 C226 0.931 . S
H243 C231 0.930 . S
H244 C232 0.956 . S
H245 C232 0.961 . S
H246 C232 0.961 . S
H247 C233 0.958 . S
H248 C233 0.961 . S
H249 C233 0.960 . S
C250 C251 1.391 . S
C250 C252 1.394 . S
C250 H266 0.931 . S
C251 C250 1.391 . S
C251 C255 1.376 . S
C252 C250 1.394 . S
C252 C253 1.369 . S
C252 C256 1.531 . S
C253 C252 1.369 . S
C253 C254 1.410 . S
C253 C261 1.503 . S
C254 C253 1.410 . S
C254 C255 1.392 . S
C254 C257 1.511 . S
C255 C251 1.376 . S
C255 C254 1.392 . S
C255 H267 0.929 . S
C256 C252 1.531 . S
C256 H268 0.960 . S
C256 H269 0.962 . S
C256 H270 0.960 . S
C257 C254 1.511 . S
C257 H271 0.961 . S
C257 H272 0.961 . S
C257 H273 0.961 . S
C258 C259 1.370 . S
C258 C260 1.363 . S
C258 H274 0.931 . S
C259 C258 1.370 . S
C259 C263 1.408 . S
C260 C258 1.363 . S
C260 C261 1.370 . S
C260 C264 1.524 . S
C261 C253 1.503 . S
C261 C260 1.370 . S
C261 C262 1.403 . S
C262 C261 1.403 . S
C262 C263 1.404 . S
C262 C265 1.539 . S
C263 C259 1.408 . S
C263 C262 1.404 . S
C263 H275 0.930 . S
C264 C260 1.524 . S
C264 H276 0.956 . S
C264 H277 0.961 . S
C264 H278 0.961 . S
C265 C262 1.539 . S
C265 H279 0.958 . S
C265 H280 0.961 . S
C265 H281 0.960 . S
H266 C250 0.931 . S
H267 C255 0.929 . S
H268 C256 0.960 . S
H269 C256 0.962 . S
H270 C256 0.960 . S
H271 C257 0.961 . S
H272 C257 0.961 . S
H273 C257 0.961 . S
H274 C258 0.931 . S
H275 C263 0.930 . S
H276 C264 0.956 . S
H277 C264 0.961 . S
H278 C264 0.961 . S
H279 C265 0.958 . S
H280 C265 0.961 . S
H281 C265 0.960 . S
C282 C283 1.391 . S
C282 C284 1.394 . S
C282 H298 0.931 . S
C283 C282 1.391 . S
C283 C287 1.376 . S
C284 C282 1.394 . S
C284 C285 1.369 . S
C284 C288 1.531 . S
C285 C284 1.369 . S
C285 C286 1.410 . S
C285 C293 1.503 . S
C286 C285 1.410 . S
C286 C287 1.392 . S
C286 C289 1.511 . S
C287 C283 1.376 . S
C287 C286 1.392 . S
C287 H299 0.929 . S
C288 C284 1.531 . S
C288 H300 0.960 . S
C288 H301 0.962 . S
C288 H302 0.960 . S
C289 C286 1.511 . S
C289 H303 0.961 . S
C289 H304 0.961 . S
C289 H305 0.961 . S
C290 C291 1.370 . S
C290 C292 1.363 . S
C290 H306 0.931 . S
C291 C290 1.370 . S
C291 C295 1.408 . S
C292 C290 1.363 . S
C292 C293 1.370 . S
C292 C296 1.524 . S
C293 C285 1.503 . S
C293 C292 1.370 . S
C293 C294 1.403 . S
C294 C293 1.403 . S
C294 C295 1.404 . S
C294 C297 1.539 . S
C295 C291 1.408 . S
C295 C294 1.404 . S
C295 H307 0.930 . S
C296 C292 1.524 . S
C296 H308 0.956 . S
C296 H309 0.961 . S
C296 H310 0.961 . S
C297 C294 1.539 . S
C297 H311 0.958 . S
C297 H312 0.961 . S
C297 H313 0.960 . S
H298 C282 0.931 . S
H299 C287 0.929 . S
H300 C288 0.960 . S
H301 C288 0.962 . S
H302 C288 0.960 . S
H303 C289 0.961 . S
H304 C289 0.961 . S
H305 C289 0.961 . S
H306 C290 0.931 . S
H307 C295 0.930 . S
H308 C296 0.956 . S
H309 C296 0.961 . S
H310 C296 0.961 . S
H311 C297 0.958 . S
H312 C297 0.961 . S
H313 C297 0.960 . S
C314 C315 1.391 . S
C314 C316 1.394 . S
C314 H330 0.931 . S
C315 C314 1.391 . S
C315 C319 1.376 . S
C316 C314 1.394 . S
C316 C317 1.369 . S
C316 C320 1.531 . S
C317 C316 1.369 . S
C317 C318 1.410 . S
C317 C325 1.503 . S
C318 C317 1.410 . S
C318 C319 1.392 . S
C318 C321 1.511 . S
C319 C315 1.376 . S
C319 C318 1.392 . S
C319 H331 0.929 . S
C320 C316 1.531 . S
C320 H332 0.960 . S
C320 H333 0.962 . S
C320 H334 0.960 . S
C321 C318 1.511 . S
C321 H335 0.961 . S
C321 H336 0.961 . S
C321 H337 0.961 . S
C322 C323 1.370 . S
C322 C324 1.363 . S
C322 H338 0.931 . S
C323 C322 1.370 . S
C323 C327 1.408 . S
C324 C322 1.363 . S
C324 C325 1.370 . S
C324 C328 1.524 . S
C325 C317 1.503 . S
C325 C324 1.370 . S
C325 C326 1.403 . S
C326 C325 1.403 . S
C326 C327 1.404 . S
C326 C329 1.539 . S
C327 C323 1.408 . S
C327 C326 1.404 . S
C327 H339 0.930 . S
C328 C324 1.524 . S
C328 H340 0.956 . S
C328 H341 0.961 . S
C328 H342 0.961 . S
C329 C326 1.539 . S
C329 H343 0.958 . S
C329 H344 0.961 . S
C329 H345 0.960 . S
H330 C314 0.931 . S
H331 C319 0.929 . S
H332 C320 0.960 . S
H333 C320 0.962 . S
H334 C320 0.960 . S
H335 C321 0.961 . S
H336 C321 0.961 . S
H337 C321 0.961 . S
H338 C322 0.931 . S
H339 C327 0.930 . S
H340 C328 0.956 . S
H341 C328 0.961 . S
H342 C328 0.961 . S
H343 C329 0.958 . S
H344 C329 0.961 . S
H345 C329 0.960 . S
C346 C347 1.391 . S
C346 C348 1.394 . S
C346 H362 0.931 1_455 S
C347 C346 1.391 . S
C347 C351 1.376 1_565 S
C348 C346 1.394 . S
C348 C349 1.369 . S
C348 C352 1.531 1_455 S
C349 C348 1.369 . S
C349 C350 1.410 . S
C349 C357 1.503 . S
C350 C349 1.410 . S
C350 C351 1.392 1_565 S
C350 C353 1.511 1_565 S
C351 C347 1.376 1_545 S
C351 C350 1.392 1_545 S
C351 H363 0.929 . S
C352 C348 1.531 1_655 S
C352 H364 0.960 . S
C352 H365 0.962 . S
C352 H366 0.960 . S
C353 C350 1.511 1_545 S
C353 H367 0.961 . S
C353 H368 0.961 . S
C353 H369 0.961 1_545 S
C354 C355 1.370 1_545 S
C354 C356 1.363 . S
C354 H370 0.931 . S
C355 C354 1.370 1_565 S
C355 C359 1.408 . S
C356 C354 1.363 . S
C356 C357 1.370 1_545 S
C356 C360 1.524 . S
C357 C349 1.503 . S
C357 C356 1.370 1_565 S
C357 C358 1.403 . S
C358 C357 1.403 . S
C358 C359 1.404 . S
C358 C361 1.539 . S
C359 C355 1.408 . S
C359 C358 1.404 . S
C359 H371 0.930 . S
C360 C356 1.524 . S
C360 H372 0.956 . S
C360 H373 0.961 . S
C360 H374 0.961 . S
C361 C358 1.539 . S
C361 H375 0.958 . S
C361 H376 0.961 . S
C361 H377 0.960 . S
H362 C346 0.931 1_655 S
H363 C351 0.929 . S
H364 C352 0.960 . S
H365 C352 0.962 . S
H366 C352 0.960 . S
H367 C353 0.961 . S
H368 C353 0.961 . S
H369 C353 0.961 1_565 S
H370 C354 0.931 . S
H371 C359 0.930 . S
H372 C360 0.956 . S
H373 C360 0.961 . S
H374 C360 0.961 . S
H375 C361 0.958 . S
H376 C361 0.961 . S
H377 C361 0.960 . S
C378 C379 1.391 1_665 S
C378 C380 1.394 1_565 S
C378 H394 0.931 . S
C379 C378 1.391 1_445 S
C379 C383 1.376 . S
C380 C378 1.394 1_545 S
C380 C381 1.369 1_655 S
C380 C384 1.531 1_545 S
C381 C380 1.369 1_455 S
C381 C382 1.410 . S
C381 C389 1.503 . S
C382 C381 1.410 . S
C382 C383 1.392 . S
C382 C385 1.511 . S
C383 C379 1.376 . S
C383 C382 1.392 . S
C383 H395 0.929 . S
C384 C380 1.531 1_565 S
C384 H396 0.960 . S
C384 H397 0.962 . S
C384 H398 0.960 . S
C385 C382 1.511 . S
C385 H399 0.961 . S
C385 H400 0.961 . S
C385 H401 0.961 . S
C386 C387 1.370 1_455 S
C386 C388 1.363 . S
C386 H402 0.934 . S
C387 C386 1.370 1_655 S
C387 C391 1.408 . S
C388 C386 1.363 . S
C388 C389 1.373 . S
C388 C392 1.524 1_545 S
C389 C381 1.503 . S
C389 C388 1.373 . S
C389 C390 1.401 1_455 S
C390 C389 1.401 1_655 S
C390 C391 1.404 . S
C390 C393 1.539 . S
C391 C387 1.408 . S
C391 C390 1.404 . S
C391 H403 0.930 . S
C392 C388 1.524 1_565 S
C392 H404 0.956 . S
C392 H405 0.961 1_565 S
C392 H406 0.961 . S
C393 C390 1.539 . S
C393 H407 0.958 . S
C393 H408 0.961 . S
C393 H409 0.960 . S
H394 C378 0.931 . S
H395 C383 0.929 . S
H396 C384 0.960 . S
H397 C384 0.962 . S
H398 C384 0.960 . S
H399 C385 0.961 . S
H400 C385 0.961 . S
H401 C385 0.961 . S
H402 C386 0.934 . S
H403 C391 0.930 . S
H404 C392 0.956 . S
H405 C392 0.961 1_545 S
H406 C392 0.961 . S
H407 C393 0.958 . S
H408 C393 0.961 . S
H409 C393 0.960 . S
C410 C411 1.391 . S
C410 C412 1.394 . S
C410 H426 0.931 . S
C411 C410 1.391 . S
C411 C415 1.376 . S
C412 C410 1.394 . S
C412 C413 1.369 . S
C412 C416 1.531 . S
C413 C412 1.369 . S
C413 C414 1.410 . S
C413 C421 1.503 . S
C414 C413 1.410 . S
C414 C415 1.392 . S
C414 C417 1.511 . S
C415 C411 1.376 . S
C415 C414 1.392 . S
C415 H427 0.929 . S
C416 C412 1.531 . S
C416 H428 0.960 . S
C416 H429 0.962 . S
C416 H430 0.960 . S
C417 C414 1.511 . S
C417 H431 0.961 . S
C417 H432 0.961 . S
C417 H433 0.961 . S
C418 C419 1.370 . S
C418 C420 1.363 . S
C418 H434 0.931 . S
C419 C418 1.370 . S
C419 C423 1.408 . S
C420 C418 1.363 . S
C420 C421 1.370 . S
C420 C424 1.524 . S
C421 C413 1.503 . S
C421 C420 1.370 . S
C421 C422 1.403 . S
C422 C421 1.403 . S
C422 C423 1.404 . S
C422 C425 1.539 . S
C423 C419 1.408 . S
C423 C422 1.404 . S
C423 H435 0.930 . S
C424 C420 1.524 . S
C424 H436 0.956 . S
C424 H437 0.961 . S
C424 H438 0.961 . S
C425 C422 1.539 . S
C425 H439 0.958 . S
C425 H440 0.961 . S
C425 H441 0.960 . S
H426 C410 0.931 . S
H427 C415 0.929 . S
H428 C416 0.960 . S
H429 C416 0.962 . S
H430 C416 0.960 . S
H431 C417 0.961 . S
H432 C417 0.961 . S
H433 C417 0.961 . S
H434 C418 0.931 . S
H435 C423 0.930 . S
H436 C424 0.956 . S
H437 C424 0.961 . S
H438 C424 0.961 . S
H439 C425 0.958 . S
H440 C425 0.961 . S
H441 C425 0.960 . S
C442 C443 1.391 . S
C442 C444 1.394 . S
C442 H458 0.931 . S
C443 C442 1.391 . S
C443 C447 1.376 . S
C444 C442 1.394 . S
C444 C445 1.369 . S
C444 C448 1.531 . S
C445 C444 1.369 . S
C445 C446 1.410 . S
C445 C453 1.503 . S
C446 C445 1.410 . S
C446 C447 1.392 . S
C446 C449 1.511 . S
C447 C443 1.376 . S
C447 C446 1.392 . S
C447 H459 0.929 . S
C448 C444 1.531 . S
C448 H460 0.960 . S
C448 H461 0.962 . S
C448 H462 0.960 . S
C449 C446 1.511 . S
C449 H463 0.961 . S
C449 H464 0.961 . S
C449 H465 0.961 . S
C450 C451 1.370 . S
C450 C452 1.363 . S
C450 H466 0.931 . S
C451 C450 1.370 . S
C451 C455 1.408 . S
C452 C450 1.363 . S
C452 C453 1.370 . S
C452 C456 1.524 . S
C453 C445 1.503 . S
C453 C452 1.370 . S
C453 C454 1.403 . S
C454 C453 1.403 . S
C454 C455 1.404 . S
C454 C457 1.539 . S
C455 C451 1.408 . S
C455 C454 1.404 . S
C455 H467 0.930 . S
C456 C452 1.524 . S
C456 H468 0.956 . S
C456 H469 0.961 . S
C456 H470 0.961 . S
C457 C454 1.539 . S
C457 H471 0.958 . S
C457 H472 0.961 . S
C457 H473 0.960 . S
H458 C442 0.931 . S
H459 C447 0.929 . S
H460 C448 0.960 . S
H461 C448 0.962 . S
H462 C448 0.960 . S
H463 C449 0.961 . S
H464 C449 0.961 . S
H465 C449 0.961 . S
H466 C450 0.931 . S
H467 C455 0.930 . S
H468 C456 0.956 . S
H469 C456 0.961 . S
H470 C456 0.961 . S
H471 C457 0.958 . S
H472 C457 0.961 . S
H473 C457 0.960 . S
C99 C84 1.454 . S
C91 C15 1.304 . S
C123 C13 1.422 . S
C131 C70 1.376 . S
C155 C18 1.205 1_554 S
C163 C82 1.431 . S
C187 C17 1.436 . S
C195 C72 1.470 . S
C219 C36 1.341 . S
C227 C60 1.460 . S
C251 C34 1.404 . S
C259 C46 1.405 . S
C291 C58 1.413 . S
C283 C39 1.275 . S
C323 C48 1.467 . S
C315 C38 1.453 . S
C347 C14 1.585 1_565 S
C355 C51 1.620 . S
C379 C16 1.368 . S
C387 C63 1.425 . S
C419 C75 1.621 . S
C411 C35 1.597 . S
C443 C37 1.364 . S
C451 C87 1.416 . S
