# Generated by pormake.
# Topology ptr, (4,4)-cn, num edge types: 1
# Building blocks:
#     Node 0, Type 0, BuildingBlock: CEKHIL_clean_sbu_0, # of connection points: 4
#     Node 1, Type 0, BuildingBlock: CEKHIL_clean_sbu_0, # of connection points: 4
#     Node 2, Type 0, BuildingBlock: CEKHIL_clean_sbu_0, # of connection points: 4
#     Node 3, Type 0, BuildingBlock: CEKHIL_clean_sbu_0, # of connection points: 4
#     Node 4, Type 0, BuildingBlock: CEKHIL_clean_sbu_0, # of connection points: 4
#     Node 5, Type 0, BuildingBlock: CEKHIL_clean_sbu_0, # of connection points: 4
#     Node 6, Type 0, BuildingBlock: CEKHIL_clean_sbu_0, # of connection points: 4
#     Node 7, Type 0, BuildingBlock: CEKHIL_clean_sbu_0, # of connection points: 4
#     Node 8, Type 0, BuildingBlock: CEKHIL_clean_sbu_0, # of connection points: 4
#     Node 9, Type 0, BuildingBlock: CEKHIL_clean_sbu_0, # of connection points: 4
#     Node 10, Type 0, BuildingBlock: CEKHIL_clean_sbu_0, # of connection points: 4
#     Node 11, Type 0, BuildingBlock: CEKHIL_clean_sbu_0, # of connection points: 4
#     Node 12, Type 0, BuildingBlock: CEKHIL_clean_sbu_0, # of connection points: 4
#     Node 13, Type 0, BuildingBlock: CEKHIL_clean_sbu_0, # of connection points: 4
#     Node 14, Type 0, BuildingBlock: CEKHIL_clean_sbu_0, # of connection points: 4
#     Node 15, Type 0, BuildingBlock: CEKHIL_clean_sbu_0, # of connection points: 4
#     Node 16, Type 0, BuildingBlock: CEKHIL_clean_sbu_0, # of connection points: 4
#     Node 17, Type 0, BuildingBlock: CEKHIL_clean_sbu_0, # of connection points: 4
#     Node 18, Type 1, BuildingBlock: KUFVIS_clean_linker_0, # of connection points: 4
#     Node 19, Type 1, BuildingBlock: KUFVIS_clean_linker_0, # of connection points: 4
#     Node 20, Type 1, BuildingBlock: KUFVIS_clean_linker_0, # of connection points: 4
#     Node 21, Type 1, BuildingBlock: KUFVIS_clean_linker_0, # of connection points: 4
#     Node 22, Type 1, BuildingBlock: KUFVIS_clean_linker_0, # of connection points: 4
#     Node 23, Type 1, BuildingBlock: KUFVIS_clean_linker_0, # of connection points: 4
#     Node 24, Type 1, BuildingBlock: KUFVIS_clean_linker_0, # of connection points: 4
#     Node 25, Type 1, BuildingBlock: KUFVIS_clean_linker_0, # of connection points: 4
#     Node 26, Type 1, BuildingBlock: KUFVIS_clean_linker_0, # of connection points: 4
#     Node 27, Type 1, BuildingBlock: KUFVIS_clean_linker_0, # of connection points: 4
#     Node 28, Type 1, BuildingBlock: KUFVIS_clean_linker_0, # of connection points: 4
#     Node 29, Type 1, BuildingBlock: KUFVIS_clean_linker_0, # of connection points: 4
#     Node 30, Type 1, BuildingBlock: KUFVIS_clean_linker_0, # of connection points: 4
#     Node 31, Type 1, BuildingBlock: KUFVIS_clean_linker_0, # of connection points: 4
#     Node 32, Type 1, BuildingBlock: KUFVIS_clean_linker_0, # of connection points: 4
#     Node 33, Type 1, BuildingBlock: KUFVIS_clean_linker_0, # of connection points: 4
#     Node 34, Type 1, BuildingBlock: KUFVIS_clean_linker_0, # of connection points: 4
#     Node 35, Type 1, BuildingBlock: KUFVIS_clean_linker_0, # of connection points: 4
#     Edge 36, Type (0, 1), BuildingBlock: TEMPAE_clean_linker_10, # of connection points: 2
#     Edge 37, Type (0, 1), BuildingBlock: TEMPAE_clean_linker_10, # of connection points: 2
#     Edge 38, Type (0, 1), BuildingBlock: TEMPAE_clean_linker_10, # of connection points: 2
#     Edge 39, Type (0, 1), BuildingBlock: TEMPAE_clean_linker_10, # of connection points: 2
#     Edge 40, Type (0, 1), BuildingBlock: TEMPAE_clean_linker_10, # of connection points: 2
#     Edge 41, Type (0, 1), BuildingBlock: TEMPAE_clean_linker_10, # of connection points: 2
#     Edge 42, Type (0, 1), BuildingBlock: TEMPAE_clean_linker_10, # of connection points: 2
#     Edge 43, Type (0, 1), BuildingBlock: TEMPAE_clean_linker_10, # of connection points: 2
#     Edge 44, Type (0, 1), BuildingBlock: TEMPAE_clean_linker_10, # of connection points: 2
#     Edge 45, Type (0, 1), BuildingBlock: TEMPAE_clean_linker_10, # of connection points: 2
#     Edge 46, Type (0, 1), BuildingBlock: TEMPAE_clean_linker_10, # of connection points: 2
#     Edge 47, Type (0, 1), BuildingBlock: TEMPAE_clean_linker_10, # of connection points: 2
#     Edge 48, Type (0, 1), BuildingBlock: TEMPAE_clean_linker_10, # of connection points: 2
#     Edge 49, Type (0, 1), BuildingBlock: TEMPAE_clean_linker_10, # of connection points: 2
#     Edge 50, Type (0, 1), BuildingBlock: TEMPAE_clean_linker_10, # of connection points: 2
#     Edge 51, Type (0, 1), BuildingBlock: TEMPAE_clean_linker_10, # of connection points: 2
#     Edge 52, Type (0, 1), BuildingBlock: TEMPAE_clean_linker_10, # of connection points: 2
#     Edge 53, Type (0, 1), BuildingBlock: TEMPAE_clean_linker_10, # of connection points: 2
#     Edge 54, Type (0, 1), BuildingBlock: TEMPAE_clean_linker_10, # of connection points: 2
#     Edge 55, Type (0, 1), BuildingBlock: TEMPAE_clean_linker_10, # of connection points: 2
#     Edge 56, Type (0, 1), BuildingBlock: TEMPAE_clean_linker_10, # of connection points: 2
#     Edge 57, Type (0, 1), BuildingBlock: TEMPAE_clean_linker_10, # of connection points: 2
#     Edge 58, Type (0, 1), BuildingBlock: TEMPAE_clean_linker_10, # of connection points: 2
#     Edge 59, Type (0, 1), BuildingBlock: TEMPAE_clean_linker_10, # of connection points: 2
#     Edge 60, Type (0, 1), BuildingBlock: TEMPAE_clean_linker_10, # of connection points: 2
#     Edge 61, Type (0, 1), BuildingBlock: TEMPAE_clean_linker_10, # of connection points: 2
#     Edge 62, Type (0, 1), BuildingBlock: TEMPAE_clean_linker_10, # of connection points: 2
#     Edge 63, Type (0, 1), BuildingBlock: TEMPAE_clean_linker_10, # of connection points: 2
#     Edge 64, Type (0, 1), BuildingBlock: TEMPAE_clean_linker_10, # of connection points: 2
#     Edge 65, Type (0, 1), BuildingBlock: TEMPAE_clean_linker_10, # of connection points: 2
#     Edge 66, Type (0, 1), BuildingBlock: TEMPAE_clean_linker_10, # of connection points: 2
#     Edge 67, Type (0, 1), BuildingBlock: TEMPAE_clean_linker_10, # of connection points: 2
#     Edge 68, Type (0, 1), BuildingBlock: TEMPAE_clean_linker_10, # of connection points: 2
#     Edge 69, Type (0, 1), BuildingBlock: TEMPAE_clean_linker_10, # of connection points: 2
#     Edge 70, Type (0, 1), BuildingBlock: TEMPAE_clean_linker_10, # of connection points: 2
#     Edge 71, Type (0, 1), BuildingBlock: TEMPAE_clean_linker_10, # of connection points: 2
#     Edge 72, Type (0, 1), BuildingBlock: TEMPAE_clean_linker_10, # of connection points: 2
#     Edge 73, Type (0, 1), BuildingBlock: TEMPAE_clean_linker_10, # of connection points: 2
#     Edge 74, Type (0, 1), BuildingBlock: TEMPAE_clean_linker_10, # of connection points: 2
#     Edge 75, Type (0, 1), BuildingBlock: TEMPAE_clean_linker_10, # of connection points: 2
#     Edge 76, Type (0, 1), BuildingBlock: TEMPAE_clean_linker_10, # of connection points: 2
#     Edge 77, Type (0, 1), BuildingBlock: TEMPAE_clean_linker_10, # of connection points: 2
#     Edge 78, Type (0, 1), BuildingBlock: TEMPAE_clean_linker_10, # of connection points: 2
#     Edge 79, Type (0, 1), BuildingBlock: TEMPAE_clean_linker_10, # of connection points: 2
#     Edge 80, Type (0, 1), BuildingBlock: TEMPAE_clean_linker_10, # of connection points: 2
#     Edge 81, Type (0, 1), BuildingBlock: TEMPAE_clean_linker_10, # of connection points: 2
#     Edge 82, Type (0, 1), BuildingBlock: TEMPAE_clean_linker_10, # of connection points: 2
#     Edge 83, Type (0, 1), BuildingBlock: TEMPAE_clean_linker_10, # of connection points: 2
#     Edge 84, Type (0, 1), BuildingBlock: TEMPAE_clean_linker_10, # of connection points: 2
#     Edge 85, Type (0, 1), BuildingBlock: TEMPAE_clean_linker_10, # of connection points: 2
#     Edge 86, Type (0, 1), BuildingBlock: TEMPAE_clean_linker_10, # of connection points: 2
#     Edge 87, Type (0, 1), BuildingBlock: TEMPAE_clean_linker_10, # of connection points: 2
#     Edge 88, Type (0, 1), BuildingBlock: TEMPAE_clean_linker_10, # of connection points: 2
#     Edge 89, Type (0, 1), BuildingBlock: TEMPAE_clean_linker_10, # of connection points: 2
#     Edge 90, Type (0, 1), BuildingBlock: TEMPAE_clean_linker_10, # of connection points: 2
#     Edge 91, Type (0, 1), BuildingBlock: TEMPAE_clean_linker_10, # of connection points: 2
#     Edge 92, Type (0, 1), BuildingBlock: TEMPAE_clean_linker_10, # of connection points: 2
#     Edge 93, Type (0, 1), BuildingBlock: TEMPAE_clean_linker_10, # of connection points: 2
#     Edge 94, Type (0, 1), BuildingBlock: TEMPAE_clean_linker_10, # of connection points: 2
#     Edge 95, Type (0, 1), BuildingBlock: TEMPAE_clean_linker_10, # of connection points: 2
#     Edge 96, Type (0, 1), BuildingBlock: TEMPAE_clean_linker_10, # of connection points: 2
#     Edge 97, Type (0, 1), BuildingBlock: TEMPAE_clean_linker_10, # of connection points: 2
#     Edge 98, Type (0, 1), BuildingBlock: TEMPAE_clean_linker_10, # of connection points: 2
#     Edge 99, Type (0, 1), BuildingBlock: TEMPAE_clean_linker_10, # of connection points: 2
#     Edge 100, Type (0, 1), BuildingBlock: TEMPAE_clean_linker_10, # of connection points: 2
#     Edge 101, Type (0, 1), BuildingBlock: TEMPAE_clean_linker_10, # of connection points: 2
#     Edge 102, Type (0, 1), BuildingBlock: TEMPAE_clean_linker_10, # of connection points: 2
#     Edge 103, Type (0, 1), BuildingBlock: TEMPAE_clean_linker_10, # of connection points: 2
#     Edge 104, Type (0, 1), BuildingBlock: TEMPAE_clean_linker_10, # of connection points: 2
#     Edge 105, Type (0, 1), BuildingBlock: TEMPAE_clean_linker_10, # of connection points: 2
#     Edge 106, Type (0, 1), BuildingBlock: TEMPAE_clean_linker_10, # of connection points: 2
#     Edge 107, Type (0, 1), BuildingBlock: TEMPAE_clean_linker_10, # of connection points: 2
# Relax obj value: 0.047
# Max RMSD: 0.105
# Mean RMSD: 0.081
data_MOF--net-ptr--node1-CEKHIL_clean_sbu_0--node2-KUFVIS_clean_linker_0--edge1-TEMPAE_clean_linker_10
_symmetry_space_group_name_H-M    P1
_symmetry_Int_Tables_number       1
_symmetry_cell_setting            triclinic
loop_
_symmetry_equiv_pos_as_xyz
'x, y, z'
_cell_length_a     79.634176
_cell_length_b     78.821405
_cell_length_c     50.04903
_cell_angle_alpha  90.813319
_cell_angle_beta   89.639955
_cell_angle_gamma 120.93174
loop_
_atom_site_label
_atom_site_type_symbol
_atom_site_fract_x
_atom_site_fract_y
_atom_site_fract_z
_atom_type_partial_charge
Co0 Co 0.01781 0.36506 0.0026 0.0
O1 O 0.02841 0.35495 0.02836 0.0
O2 O 0.04613 0.37831 -0.0007 0.0
C3 C 0.99323 0.33469 0.98944 0.0
O4 O 0.01268 0.37942 0.97272 0.0
Co5 Co 0.9753 0.35686 0.00473 0.0
O6 O 0.98061 0.36848 0.96864 0.0
C7 C 1.00628 0.38806 0.03972 0.0
C8 C 0.04555 0.36705 0.01847 0.0
C9 C 0.99822 0.3791 0.96075 0.0
O10 O 0.01965 0.38538 0.0294 0.0
O11 O 0.98811 0.37754 0.03353 0.0
O12 O 0.01055 0.3422 0.97891 0.0
O13 O 0.99145 0.34529 0.00776 0.0
Co14 Co 0.65581 0.65506 0.00723 0.0
O15 O 0.67775 0.66424 0.98307 0.0
O16 O 0.67009 0.64171 0.0141 0.0
C17 C 0.66143 0.68556 0.01843 0.0
O18 O 0.63493 0.64185 0.03614 0.0
Co19 Co 0.62202 0.66349 -0.00156 0.0
O20 O 0.61144 0.64947 0.03248 0.0
C21 C 0.62199 0.63036 0.96924 0.0
C22 C 0.68188 0.65233 0.9951 0.0
C23 C 0.61884 0.6405 0.04397 0.0
O24 O 0.63791 0.63379 0.98075 0.0
O25 O 0.61435 0.64108 0.97268 0.0
O26 O 0.67086 0.6784 0.03035 0.0
O27 O 0.64999 0.67479 -0.00068 0.0
Co28 Co 0.36505 0.00997 0.01182 0.0
O29 O 0.35559 0.02169 0.98669 0.0
O30 O 0.37889 0.03855 0.01643 0.0
C31 C 0.33476 0.98526 0.02449 0.0
O32 O 0.37887 1.004 0.04141 0.0
Co33 Co 0.35621 0.96685 0.00764 0.0
O34 O 0.36787 0.97151 0.04382 0.0
C35 C 0.388 0.99835 0.97476 0.0
C36 C 0.36799 0.03874 0.99735 0.0
C37 C 0.37844 0.98916 0.0526 0.0
O38 O 0.38514 0.01176 0.98512 0.0
O39 O 0.37743 0.97994 0.98023 0.0
O40 O 0.34254 1.00277 0.03538 0.0
O41 O 0.34495 0.98343 0.0058 0.0
Co42 Co 1.00412 0.65058 0.01041 0.0
O43 O 0.99105 0.66062 0.98919 0.0
O44 O 0.9764 0.63759 0.0197 0.0
C45 C 0.03072 0.68054 0.02081 0.0
O46 O 0.01294 0.63674 0.03637 0.0
Co47 Co 0.04477 0.65783 0.99211 0.0
O48 O 0.0433 0.64372 0.02535 0.0
C49 C 1.00896 0.62792 0.96433 0.0
C50 C 0.97499 0.64845 0.0015 0.0
C51 C 0.02814 0.63519 0.04013 0.0
O52 O 0.99827 0.62954 0.98238 0.0
O53 O 0.02757 0.63934 0.9631 0.0
O54 O 0.01466 0.67371 0.03457 0.0
O55 O 0.02959 0.66998 0.00027 0.0
Co56 Co 0.36011 0.3596 0.00921 0.0
O57 O 0.33763 0.34985 0.03237 0.0
O58 O 0.34599 0.37312 0.00228 0.0
C59 C 0.35518 0.32951 0.99726 0.0
O60 O 0.38176 0.37337 0.98155 0.0
Co61 Co 0.39399 0.3519 0.0203 0.0
O62 O 0.40345 0.36325 0.98429 0.0
C63 C 0.39091 0.38227 0.05179 0.0
C64 C 0.33393 0.36227 0.02094 0.0
C65 C 0.39692 0.37311 0.97305 0.0
O66 O 0.37703 0.38034 0.03662 0.0
O67 O 0.39825 0.37115 0.05002 0.0
O68 O 0.34586 0.33671 0.98512 0.0
O69 O 0.36595 0.33994 0.01712 0.0
Co70 Co 0.65985 0.01071 0.01534 0.0
O71 O 0.67073 0.99885 0.03757 0.0
O72 O 0.64771 0.98251 0.00724 0.0
C73 C 0.68887 0.03768 0.00328 0.0
O74 O 0.64525 0.01807 0.98864 0.0
Co75 Co 0.66615 0.05185 0.03189 0.0
O76 O 0.65124 0.04866 -0.00127 0.0
C77 C 0.63686 0.01629 0.06023 0.0
C78 C 0.65903 0.98217 0.02562 0.0
C79 C 0.643 0.03292 0.98441 0.0
O80 O 0.63915 1.00521 0.04322 0.0
O81 O 0.64768 0.03517 0.06081 0.0
O82 O 0.68223 0.02083 0.99085 0.0
O83 O 0.67888 0.03713 0.024 0.0
Co84 Co 0.68209 0.69537 0.339 0.0
O85 O 0.69454 0.68587 0.36262 0.0
O86 O 0.71024 0.70926 0.33285 0.0
C87 C 0.65694 0.66481 0.32702 0.0
O88 O 0.67468 0.70917 0.3109 0.0
Co89 Co 0.6394 0.68602 0.34885 0.0
O90 O 0.64337 0.70126 0.31598 0.0
C91 C 0.67258 0.71852 0.37912 0.0
C92 C 0.71107 0.69844 0.3516 0.0
C93 C 0.65986 0.71066 0.3042 0.0
O94 O 0.68524 0.71586 0.36653 0.0
O95 O 0.65405 0.7075 0.37595 0.0
O96 O 0.67374 0.6724 0.31491 0.0
O97 O 0.65625 0.67523 0.34653 0.0
Co98 Co 0.32294 0.98475 0.33897 0.0
O99 O 0.34618 0.99455 0.31741 0.0
O100 O 0.33716 0.97165 0.34822 0.0
C101 C 0.32676 0.0146 0.34962 0.0
O102 O 0.3003 0.97126 0.36541 0.0
Co103 Co 0.28947 0.99174 0.32174 0.0
O104 O 0.27711 0.97849 0.3558 0.0
C105 C 0.2945 0.96148 0.29388 0.0
C106 C 0.34971 0.98239 0.32992 0.0
C107 C 0.28379 0.97005 0.37019 0.0
O108 O 0.30724 0.96352 0.31133 0.0
O109 O 0.2873 0.97272 0.29299 0.0
O110 O 0.33605 0.00786 0.36291 0.0
O111 O 0.31713 1.0041 0.32909 0.0
Co112 Co 0.03078 0.34351 0.3442 0.0
O113 O 0.02074 0.35625 0.32224 0.0
O114 O 0.04418 0.37185 0.35218 0.0
C115 C 1.00111 0.31737 0.35603 0.0
O116 O 0.04472 0.33519 0.37069 0.0
Co117 Co 0.02257 0.30172 0.32756 0.0
O118 O 0.03754 0.30424 0.3604 0.0
C119 C 0.05273 0.33666 0.29909 0.0
C120 C 0.03315 0.37282 0.33389 0.0
C121 C 0.04632 0.31993 0.37475 0.0
O122 O 0.05109 0.34811 0.31616 0.0
O123 O 0.04128 0.31786 0.29853 0.0
O124 O 1.00851 0.33417 0.36883 0.0
O125 O 0.0109 0.31748 0.33534 0.0
Co126 Co 0.67085 0.9834 0.34818 0.0
O127 O 0.66005 0.99485 0.32503 0.0
O128 O 0.64306 0.97217 0.35524 0.0
C129 C 0.69809 0.01251 0.35973 0.0
O130 O 0.67668 0.96817 0.37579 0.0
Co131 Co 0.7113 0.98757 0.33671 0.0
O132 O 0.70806 0.97591 0.37266 0.0
C133 C 0.67645 0.95963 0.30478 0.0
C134 C 0.64332 0.9836 0.33654 0.0
C135 C 0.6914 0.96708 0.38406 0.0
O136 O 0.66508 0.96216 0.3206 0.0
O137 O 0.69516 0.96971 0.30639 0.0
O138 O 0.68164 0.00666 0.37213 0.0
O139 O 0.69721 1.00139 0.34003 0.0
Co140 Co 0.02957 0.69413 0.34081 0.0
O141 O 1.00792 0.68479 0.36548 0.0
O142 O 0.01532 0.70766 0.33505 0.0
C143 C 0.02355 0.66362 0.32889 0.0
O144 O 0.05014 0.70756 0.31154 0.0
Co145 Co 0.06328 0.68545 0.34788 0.0
O146 O 0.0735 0.69967 0.31389 0.0
C147 C 0.06357 0.71807 0.37886 0.0
C148 C 1.00373 0.69687 0.35412 0.0
C149 C 0.06606 0.70883 0.30304 0.0
O150 O 0.04776 0.71505 0.36747 0.0
O151 O 0.07103 0.70724 0.37476 0.0
O152 O 0.01418 0.67103 0.31743 0.0
O153 O 0.03529 0.67422 0.34785 0.0
Co154 Co 0.32349 0.33874 0.34414 0.0
O155 O 0.33372 0.32766 0.36914 0.0
O156 O 0.31033 0.31018 0.33972 0.0
C157 C 0.35338 0.36376 0.33071 0.0
O158 O 0.30902 0.34408 0.31477 0.0
Co159 Co 0.33141 0.38153 0.34814 0.0
O160 O 0.31959 0.37646 0.31203 0.0
C161 C 0.30025 0.34982 0.38155 0.0
C162 C 0.32168 0.31049 0.35851 0.0
C163 C 0.30914 0.35874 0.30347 0.0
O164 O 0.30342 0.3366 0.37125 0.0
O165 O 0.31044 0.36821 0.37583 0.0
O166 O 0.34578 0.34619 0.32011 0.0
O167 O 0.3433 0.3655 0.34966 0.0
Co168 Co 0.35157 0.02897 0.67323 0.0
O169 O 0.364 0.01998 0.69768 0.0
O170 O 0.37989 0.04368 0.66837 0.0
C171 C 0.32753 0.99812 0.66037 0.0
O172 O 0.34414 0.04228 0.64444 0.0
Co173 Co 0.30817 0.01791 0.68097 0.0
O174 O 0.31239 0.03314 0.64802 0.0
C175 C 0.33995 0.05111 0.71221 0.0
C176 C 0.38063 0.0329 0.68725 0.0
C177 C 0.32909 0.04308 0.63692 0.0
O178 O 0.35328 0.04902 0.70054 0.0
O179 O 0.32158 0.03956 0.70821 0.0
O180 O 0.34464 0.00636 0.64905 0.0
O181 O 0.32587 0.00809 0.67969 0.0
Co182 Co 0.99046 0.32166 0.67291 0.0
O183 O 0.01374 0.33251 0.6512 0.0
O184 O 1.0059 0.30979 0.68195 0.0
C185 C 0.99284 0.35086 0.68387 0.0
O186 O 0.9679 0.30723 0.69934 0.0
Co187 Co 0.95585 0.32693 0.65565 0.0
O188 O 0.94379 0.31311 0.6895 0.0
C189 C 0.96258 0.29786 0.62756 0.0
C190 C 0.01813 0.32096 0.66363 0.0
C191 C 0.95096 0.30514 0.7039 0.0
O192 O 0.97539 0.30028 0.64514 0.0
O193 O 0.95477 0.30856 0.62668 0.0
O194 O 1.00277 0.34478 0.69698 0.0
O195 O 0.98351 0.3402 0.6633 0.0
Co196 Co 0.69659 0.67132 0.67581 0.0
O197 O 0.68707 0.68406 0.65266 0.0
O198 O 0.71005 0.69972 0.68317 0.0
C199 C 0.66652 0.64558 0.6873 0.0
O200 O 0.71013 0.66346 0.70372 0.0
Co201 Co 0.68755 0.62839 0.66356 0.0
O202 O 0.70183 0.63173 0.69725 0.0
C203 C 0.72009 0.66251 0.63549 0.0
C204 C 0.69924 0.70064 0.66453 0.0
C205 C 0.71115 0.64816 0.70992 0.0
O206 O 0.71711 0.675 0.64848 0.0
O207 O 0.70926 0.64373 0.63771 0.0
O208 O 0.67388 0.66257 0.69961 0.0
O209 O 0.67671 0.6452 0.66749 0.0
Co210 Co 0.33674 0.31573 0.67507 0.0
O211 O 0.32394 0.32571 0.65325 0.0
O212 O 0.3089 0.30269 0.68369 0.0
C213 C 0.36309 0.34571 0.68594 0.0
O214 O 0.34536 0.30202 0.70154 0.0
Co215 Co 0.37766 0.32322 0.65771 0.0
O216 O 0.37591 0.30924 0.6912 0.0
C217 C 0.34221 0.29285 0.62976 0.0
C218 C 0.30774 0.31357 0.66528 0.0
C219 C 0.36061 0.30063 0.70572 0.0
O220 O 0.33132 0.29466 0.64729 0.0
O221 O 0.36083 0.30431 0.62881 0.0
O222 O 0.34682 0.3388 0.69922 0.0
O223 O 0.3623 0.33524 0.66546 0.0
Co224 Co 0.6968 0.027 0.67562 0.0
O225 O 0.67574 0.01691 0.70152 0.0
O226 O 0.68132 0.03931 0.67113 0.0
C227 C 0.69195 0.9969 0.66377 0.0
O228 O 0.71618 0.04121 0.6454 0.0
Co229 Co 0.73232 0.02086 0.67762 0.0
O230 O 0.73862 0.03221 0.64132 0.0
C231 C 0.73175 0.05217 0.71124 0.0
C232 C 0.67051 0.02838 0.69064 0.0
C233 C 0.73079 0.04181 0.63334 0.0
O234 O 0.71518 0.04837 0.7015 0.0
O235 O 0.73994 0.04225 0.70525 0.0
O236 O 0.68154 1.00338 0.65294 0.0
O237 O 0.7043 0.0083 0.68166 0.0
Co238 Co 0.99081 0.67762 0.67989 0.0
O239 O 1.0007 0.66539 0.70337 0.0
O240 O 0.97758 0.64915 0.6732 0.0
C241 C 0.0207 0.70329 0.66761 0.0
O242 O 0.97691 0.68493 0.65177 0.0
Co243 Co 0.99958 0.72052 0.69114 0.0
O244 O 0.98512 0.71669 0.65748 0.0
C245 C 0.96757 0.68673 0.72037 0.0
C246 C 0.98864 0.64863 0.69182 0.0
C247 C 0.97578 0.70011 0.64518 0.0
O248 O 0.97045 0.67416 0.70744 0.0
O249 O 0.97833 0.70549 0.71775 0.0
O250 O 0.01329 0.68613 0.65578 0.0
O251 O 0.01068 0.70392 0.68749 0.0
H252 H 0.24563 0.35957 0.13542 0.0
H253 H 0.20653 0.37267 0.09546 0.0
H254 H 0.19457 0.3506 0.17673 0.0
H255 H 0.17956 0.36687 0.1807 0.0
H256 H 0.13421 0.37019 0.14046 0.0
H257 H 0.17519 0.36277 0.09397 0.0
C258 C 0.23213 0.35984 0.13569 0.0
C259 C 0.22074 0.3545 0.15882 0.0
C260 C 0.22683 0.36593 0.11288 0.0
C261 C 0.20984 0.36718 0.1131 0.0
C262 C 0.19785 0.36207 0.13627 0.0
C263 C 0.20351 0.3554 0.15894 0.0
C264 C 0.17998 0.36423 0.1372 0.0
C265 C 0.1725 0.36637 0.16209 0.0
C266 C 0.156 0.36845 0.16337 0.0
C267 C 0.14719 0.36899 0.13966 0.0
C268 C 0.15437 0.36758 0.11477 0.0
C269 C 0.17038 0.36463 0.11345 0.0
H270 H 0.64936 0.88608 0.13744 0.0
H271 H 0.66305 0.84887 0.09122 0.0
H272 H 0.64981 0.83841 0.17598 0.0
H273 H 0.66457 0.82248 0.1757 0.0
H274 H 0.66699 0.7777 0.13008 0.0
H275 H 0.6561 0.8183 0.08941 0.0
C276 C 0.65101 0.87325 0.13636 0.0
C277 C 0.64951 0.86296 0.15956 0.0
C278 C 0.65522 0.86784 0.11171 0.0
C279 C 0.65893 0.85216 0.11034 0.0
C280 C 0.65722 0.84103 0.13354 0.0
C281 C 0.65211 0.84665 0.15794 0.0
C282 C 0.66044 0.8236 0.13255 0.0
C283 C 0.66363 0.81583 0.15636 0.0
C284 C 0.66506 0.79874 0.15564 0.0
C285 C 0.66525 0.79049 0.13093 0.0
C286 C 0.66217 0.79759 0.1073 0.0
C287 C 0.65946 0.81385 0.10798 0.0
H288 H 0.24626 0.88548 0.13442 0.0
H289 H 0.19563 0.84901 0.08651 0.0
H290 H 0.19765 0.83546 0.17003 0.0
H291 H 0.16671 0.82043 0.16937 0.0
H292 H 0.11937 0.77606 0.12299 0.0
H293 H 0.17221 0.81731 0.08314 0.0
C294 C 0.23177 0.8724 0.13253 0.0
C295 C 0.22271 0.86102 0.15496 0.0
C296 C 0.22239 0.86784 0.1078 0.0
C297 C 0.20295 0.85179 0.10558 0.0
C298 C 0.19327 0.83962 0.12803 0.0
C299 C 0.20378 0.84446 0.15253 0.0
C300 C 0.17247 0.82206 0.12634 0.0
C301 C 0.16111 0.81394 0.14993 0.0
C302 C 0.14243 0.79676 0.14893 0.0
C303 C 0.1341 0.78886 0.12407 0.0
C304 C 0.14471 0.79616 0.10054 0.0
C305 C 0.16396 0.81254 0.10153 0.0
H306 H 0.36546 0.12613 0.88359 0.0
H307 H 0.37124 0.17584 0.92751 0.0
H308 H 0.35378 0.16643 0.84387 0.0
H309 H 0.36671 0.19784 0.84197 0.0
H310 H 0.36047 0.24195 0.88338 0.0
H311 H 0.35931 0.19567 0.92833 0.0
C312 C 0.36456 0.13941 0.88421 0.0
C313 C 0.35966 0.14552 0.8611 0.0
C314 C 0.36835 0.15 0.90817 0.0
C315 C 0.36766 0.16756 0.90893 0.0
C316 C 0.3629 0.17438 0.88551 0.0
C317 C 0.35853 0.16269 0.86186 0.0
C318 C 0.36251 0.19345 0.88519 0.0
C319 C 0.36417 0.20319 0.86064 0.0
C320 C 0.36328 0.22055 0.85986 0.0
C321 C 0.36129 0.22862 0.88374 0.0
C322 C 0.36048 0.22007 0.90825 0.0
C323 C 0.36063 0.20231 0.9091 0.0
H324 H 0.77794 0.12533 0.88671 0.0
H325 H 0.82218 0.17595 0.92963 0.0
H326 H 0.82958 0.16717 0.84545 0.0
H327 H 0.8459 0.19917 0.84387 0.0
H328 H 0.89794 0.2439 0.88241 0.0
H329 H 0.85482 0.19588 0.92883 0.0
C330 C 0.79211 0.13893 0.88693 0.0
C331 C 0.80289 0.14542 0.86339 0.0
C332 C 0.79912 0.1496 0.91081 0.0
C333 C 0.81728 0.16758 0.91111 0.0
C334 C 0.82855 0.17474 0.8873 0.0
C335 C 0.82115 0.16302 0.86372 0.0
C336 C 0.84774 0.19427 0.8864 0.0
C337 C 0.85464 0.20453 0.86186 0.0
C338 C 0.87275 0.22232 0.8603 0.0
C339 C 0.88385 0.23024 0.88344 0.0
C340 C 0.8772 0.22113 0.90807 0.0
C341 C 0.85938 0.20298 0.90964 0.0
H342 H 0.77095 0.64979 0.8872 0.0
H343 H 0.81691 0.65116 0.93247 0.0
H344 H 0.81675 0.64758 0.84558 0.0
H345 H 0.84793 0.66097 0.84887 0.0
H346 H 0.88807 0.64934 0.88881 0.0
H347 H 0.83731 0.64038 0.93088 0.0
C348 C 0.7845 0.64961 0.88758 0.0
C349 C 0.79318 0.64903 0.8636 0.0
C350 C 0.79263 0.6497 0.91217 0.0
C351 C 0.81064 0.65039 0.91309 0.0
C352 C 0.82016 0.64998 0.88912 0.0
C353 C 0.81085 0.64901 0.8644 0.0
C354 C 0.83937 0.65021 0.88961 0.0
C355 C 0.85151 0.65577 0.86655 0.0
C356 C 0.86892 0.65532 0.86616 0.0
C357 C 0.87464 0.64974 0.88907 0.0
C358 C 0.86357 0.64477 0.91243 0.0
C359 C 0.84589 0.64487 0.91277 0.0
H360 H 0.91601 0.6986 0.46676 0.0
H361 H 0.86975 0.69735 0.42251 0.0
H362 H 0.87029 0.70019 0.50948 0.0
H363 H 0.83932 0.6873 0.50685 0.0
H364 H 0.79822 0.69783 0.46767 0.0
H365 H 0.84866 0.7071 0.42444 0.0
C366 C 0.90244 0.69871 0.46673 0.0
C367 C 0.89382 0.699 0.49092 0.0
C368 C 0.89418 0.69883 0.44232 0.0
C369 C 0.8761 0.69799 0.44178 0.0
C370 C 0.86664 0.69811 0.46595 0.0
C371 C 0.8761 0.69895 0.49049 0.0
C372 C 0.84731 0.69769 0.46583 0.0
C373 C 0.83547 0.69225 0.48917 0.0
C374 C 0.81795 0.69247 0.4899 0.0
C375 C 0.81176 0.69765 0.4671 0.0
C376 C 0.82253 0.70253 0.44348 0.0
C377 C 0.84034 0.70269 0.44277 0.0
H378 H 0.31296 0.21406 0.47086 0.0
H379 H 0.32601 0.17703 0.42291 0.0
H380 H 0.31514 0.16702 0.50826 0.0
H381 H 0.33053 0.15169 0.50651 0.0
H382 H 0.33104 0.10606 0.46037 0.0
H383 H 0.31877 0.14618 0.42098 0.0
C384 C 0.31477 0.20134 0.46928 0.0
C385 C 0.31394 0.19118 0.49228 0.0
C386 C 0.31847 0.19595 0.44428 0.0
C387 C 0.32234 0.18039 0.44232 0.0
C388 C 0.32135 0.16941 0.46537 0.0
C389 C 0.31682 0.17508 0.49022 0.0
C390 C 0.32465 0.15204 0.46381 0.0
C391 C 0.3288 0.14467 0.48723 0.0
C392 C 0.33018 0.12756 0.48625 0.0
C393 C 0.32931 0.11885 0.46149 0.0
C394 C 0.32537 0.1256 0.43817 0.0
C395 C 0.32276 0.14194 0.43922 0.0
H396 H 0.91457 0.21893 0.46766 0.0
H397 H 0.8634 0.18085 0.42138 0.0
H398 H 0.86534 0.17112 0.50627 0.0
H399 H 0.83389 0.15952 0.50449 0.0
H400 H 0.78833 0.10886 0.46352 0.0
H401 H 0.84088 0.1478 0.42132 0.0
C402 C 0.89996 0.20594 0.46651 0.0
C403 C 0.89089 0.19569 0.48975 0.0
C404 C 0.89043 0.20043 0.44186 0.0
C405 C 0.87089 0.1845 0.44044 0.0
C406 C 0.86125 0.17356 0.46372 0.0
C407 C 0.87176 0.17933 0.48819 0.0
C408 C 0.84045 0.15619 0.46297 0.0
C409 C 0.82867 0.15066 0.4864 0.0
C410 C 0.80992 0.13355 0.48684 0.0
C411 C 0.80256 0.12239 0.46339 0.0
C412 C 0.8134 0.12766 0.43983 0.0
C413 C 0.83239 0.14444 0.4395 0.0
H414 H 0.03377 0.46022 0.21748 0.0
H415 H 0.03842 0.5096 0.26099 0.0
H416 H 0.02121 0.4998 0.17734 0.0
H417 H 0.03407 0.53131 0.17524 0.0
H418 H 0.02673 0.57485 0.21636 0.0
H419 H 0.02578 0.52875 0.26144 0.0
C420 C 0.03262 0.47336 0.21796 0.0
C421 C 0.02758 0.47925 0.19471 0.0
C422 C 0.03612 0.48395 0.2419 0.0
C423 C 0.03505 0.50129 0.24245 0.0
C424 C 0.03021 0.50791 0.21891 0.0
C425 C 0.02608 0.49621 0.19535 0.0
C426 C 0.02947 0.52676 0.2184 0.0
C427 C 0.03124 0.53653 0.19382 0.0
C428 C 0.03013 0.55376 0.19297 0.0
C429 C 0.02769 0.5616 0.21677 0.0
C430 C 0.02673 0.55299 0.24127 0.0
C431 C 0.02718 0.53541 0.2422 0.0
H432 H 0.4414 0.4581 0.21569 0.0
H433 H 0.49139 0.49841 0.26189 0.0
H434 H 0.4885 0.50711 0.17658 0.0
H435 H 0.51838 0.52684 0.17656 0.0
H436 H 0.56645 0.57146 0.22114 0.0
H437 H 0.51645 0.52797 0.26364 0.0
C438 C 0.45566 0.47157 0.2167 0.0
C439 C 0.46427 0.48198 0.19345 0.0
C440 C 0.46508 0.4778 0.24132 0.0
C441 C 0.48422 0.49446 0.24266 0.0
C442 C 0.4936 0.50565 0.21931 0.0
C443 C 0.4829 0.4991 0.19488 0.0
C444 C 0.51414 0.52395 0.22006 0.0
C445 C 0.52442 0.5329 0.19595 0.0
C446 C 0.54278 0.55048 0.19631 0.0
C447 C 0.55195 0.55827 0.22072 0.0
C448 C 0.54254 0.55019 0.24475 0.0
C449 C 0.5236 0.53328 0.24462 0.0
H450 H 0.44028 0.9864 0.22111 0.0
H451 H 0.47976 0.97413 0.26173 0.0
H452 H 0.49237 0.99719 0.18098 0.0
H453 H 0.5081 0.98156 0.17715 0.0
H454 H 0.55395 0.97974 0.21839 0.0
H455 H 0.51137 0.98511 0.26396 0.0
C456 C 0.45396 0.98649 0.22112 0.0
C457 C 0.4657 0.99238 0.19832 0.0
C458 C 0.45917 0.98035 0.24396 0.0
C459 C 0.47646 0.97963 0.24408 0.0
C460 C 0.4888 0.98531 0.22121 0.0
C461 C 0.48319 0.99198 0.19852 0.0
C462 C 0.50707 0.98381 0.22064 0.0
C463 C 0.51506 0.98218 0.1959 0.0
C464 C 0.53196 0.98077 0.19497 0.0
C465 C 0.54068 0.98042 0.21888 0.0
C466 C 0.53302 0.98137 0.24361 0.0
C467 C 0.51657 0.98361 0.24458 0.0
H468 H 0.5835 0.03156 0.80703 0.0
H469 H 0.53697 0.02899 0.76162 0.0
H470 H 0.53746 0.03346 0.84842 0.0
H471 H 0.50614 0.01934 0.84516 0.0
H472 H 0.46579 0.03077 0.8054 0.0
H473 H 0.51668 0.04012 0.76325 0.0
C474 C 0.56986 0.03155 0.80658 0.0
C475 C 0.56116 0.0322 0.8305 0.0
C476 C 0.56155 0.03104 0.78193 0.0
C477 C 0.5434 0.03007 0.78098 0.0
C478 C 0.53393 0.03062 0.80493 0.0
C479 C 0.54338 0.03196 0.82965 0.0
C480 C 0.51462 0.03017 0.80444 0.0
C481 C 0.50248 0.0245 0.8275 0.0
C482 C 0.48501 0.02485 0.82795 0.0
C483 C 0.47924 0.03042 0.80509 0.0
C484 C 0.49033 0.03552 0.78173 0.0
C485 C 0.50806 0.03552 0.78133 0.0
H486 H 0.97863 0.55073 0.80237 0.0
H487 H 0.99223 0.51408 0.75414 0.0
H488 H 0.98244 0.50437 0.83949 0.0
H489 H 1.0028 0.49358 0.83626 0.0
H490 H 0.99812 0.44389 0.79363 0.0
H491 H 0.98239 0.48142 0.75397 0.0
C492 C 0.9807 0.53817 0.80071 0.0
C493 C 0.98029 0.52818 0.82372 0.0
C494 C 0.98444 0.53292 0.7756 0.0
C495 C 0.98865 0.51757 0.77355 0.0
C496 C 0.98817 0.50692 0.79664 0.0
C497 C 0.98365 0.51241 0.82155 0.0
C498 C 0.99203 0.49 0.79526 0.0
C499 C 0.99895 0.48478 0.8181 0.0
C500 C 1.00117 0.46814 0.81772 0.0
C501 C 0.99697 0.45703 0.79413 0.0
C502 C 0.99063 0.46197 0.77123 0.0
C503 C 0.98804 0.47833 0.77167 0.0
H504 H 0.57382 0.55604 0.79926 0.0
H505 H 0.53157 0.50606 0.75378 0.0
H506 H 0.52199 0.51284 0.83812 0.0
H507 H 0.50136 0.48274 0.83892 0.0
H508 H 0.45596 0.43453 0.79491 0.0
H509 H 0.50125 0.4829 0.7519 0.0
C510 C 0.55984 0.54223 0.7983 0.0
C511 C 0.54859 0.53505 0.82128 0.0
C512 C 0.55355 0.53205 0.77404 0.0
C513 C 0.53566 0.51384 0.77274 0.0
C514 C 0.52372 0.5059 0.79595 0.0
C515 C 0.53055 0.51723 0.82005 0.0
C516 C 0.50455 0.48606 0.79546 0.0
C517 C 0.49513 0.47645 0.81969 0.0
C518 C 0.47718 0.45837 0.81964 0.0
C519 C 0.46928 0.44896 0.79526 0.0
C520 C 0.47803 0.45763 0.7711 0.0
C521 C 0.49531 0.47633 0.77102 0.0
H522 H 0.7003 0.79116 0.55488 0.0
H523 H 0.69839 0.83645 0.60009 0.0
H524 H 0.69108 0.83223 0.51347 0.0
H525 H 0.68655 0.85556 0.51365 0.0
H526 H 0.68934 0.90403 0.55599 0.0
H527 H 0.69742 0.86281 0.59964 0.0
C528 C 0.69869 0.80403 0.55547 0.0
C529 C 0.69517 0.81076 0.53187 0.0
C530 C 0.69999 0.8133 0.57989 0.0
C531 C 0.69763 0.82991 0.58074 0.0
C532 C 0.69458 0.83772 0.55676 0.0
C533 C 0.69352 0.82764 0.53243 0.0
C534 C 0.69256 0.85604 0.55668 0.0
C535 C 0.68875 0.86308 0.53254 0.0
C536 C 0.68732 0.88017 0.5322 0.0
C537 C 0.68982 0.89051 0.55602 0.0
C538 C 0.69319 0.8841 0.58002 0.0
C539 C 0.69457 0.86701 0.58056 0.0
H540 H 0.11211 0.79063 0.5527 0.0
H541 H 0.1562 0.84084 0.59643 0.0
H542 H 0.16347 0.83333 0.51178 0.0
H543 H 0.17933 0.86534 0.51117 0.0
H544 H 0.23152 0.90983 0.54968 0.0
H545 H 0.18897 0.86098 0.59555 0.0
C546 C 0.12624 0.80428 0.55308 0.0
C547 C 0.13693 0.81116 0.52954 0.0
C548 C 0.13324 0.81464 0.57717 0.0
C549 C 0.15131 0.8327 0.57774 0.0
C550 C 0.16251 0.84025 0.55395 0.0
C551 C 0.15511 0.82884 0.5301 0.0
C552 C 0.18157 0.85991 0.55334 0.0
C553 C 0.18821 0.87053 0.52905 0.0
C554 C 0.20622 0.88839 0.52757 0.0
C555 C 0.21747 0.89612 0.55065 0.0
C556 C 0.21107 0.88667 0.57512 0.0
C557 C 0.19335 0.86838 0.57654 0.0
H558 H 0.10505 0.31729 0.5512 0.0
H559 H 0.15131 0.31867 0.59571 0.0
H560 H 0.15098 0.31589 0.50875 0.0
H561 H 0.18204 0.32854 0.51156 0.0
H562 H 0.22221 0.31678 0.55121 0.0
H563 H 0.1717 0.30804 0.59365 0.0
C564 C 0.11864 0.31719 0.55135 0.0
C565 C 0.12736 0.31698 0.52722 0.0
C566 C 0.12686 0.31714 0.57583 0.0
C567 C 0.14496 0.31799 0.57642 0.0
C568 C 0.15445 0.31779 0.55227 0.0
C569 C 0.14508 0.31705 0.52771 0.0
C570 C 0.17364 0.31794 0.55244 0.0
C571 C 0.18567 0.32338 0.52924 0.0
C572 C 0.20306 0.32284 0.52869 0.0
C573 C 0.20883 0.31726 0.55156 0.0
C574 C 0.19782 0.31233 0.57498 0.0
C575 C 0.18021 0.31253 0.57548 0.0
C576 C 0.99949 0.41202 0.06292 0.0
C577 C 0.0117 0.40415 0.05957 0.0
C578 C 1.00304 0.42599 0.08303 0.0
C579 C 0.0191 0.43215 0.10046 0.0
C580 C 0.03203 0.42497 0.0965 0.0
C581 C 0.02823 0.4111 0.07592 0.0
C582 C 0.98904 0.43343 0.08637 0.0
C583 C 0.04929 0.43121 0.11479 0.0
C584 C 0.03362 0.4767 0.14598 0.0
C585 C 0.02421 0.46748 0.16981 0.0
C586 C 0.0322 0.46542 0.12316 0.0
C587 C 0.02111 0.4445 0.12432 0.0
C588 C 0.01124 0.43518 0.14818 0.0
C589 C 0.01286 0.44678 0.17057 0.0
C590 C 0.04279 0.47584 0.09798 0.0
C591 C 0.99908 0.41292 0.15017 0.0
H592 H 0.98688 0.407 0.05001 0.0
H593 H 0.03773 0.40511 0.07336 0.0
H594 H 0.9807 0.42772 0.10523 0.0
H595 H 0.9972 0.44981 0.0878 0.0
H596 H 0.97843 0.4287 0.06958 0.0
H597 H 0.05892 0.42576 0.10759 0.0
H598 H 0.05809 0.44756 0.11666 0.0
H599 H 0.04396 0.42531 0.13507 0.0
H600 H 0.04256 0.49269 0.14544 0.0
H601 H 1.00539 0.43963 0.18889 0.0
H602 H 0.03229 0.47117 0.08111 0.0
H603 H 0.05372 0.47163 0.09259 0.0
H604 H 0.05044 0.49219 0.10017 0.0
H605 H 0.98704 0.40691 0.13528 0.0
H606 H 0.9926 0.40802 0.17034 0.0
H607 H 1.00824 0.4064 0.14553 0.0
C608 C 0.61639 0.62033 0.08387 0.0
C609 C 0.60742 0.62653 0.06559 0.0
C610 C 0.60539 0.60665 0.10387 0.0
C611 C 0.58489 0.59869 0.10524 0.0
C612 C 0.57571 0.60449 0.08637 0.0
C613 C 0.58708 0.61846 0.06699 0.0
C614 C 0.61577 0.60112 0.12397 0.0
C615 C 0.55387 0.59617 0.08689 0.0
C616 C 0.55409 0.55332 0.14836 0.0
C617 C 0.55218 0.56212 0.17181 0.0
C618 C 0.56453 0.56497 0.12628 0.0
C619 C 0.57334 0.58584 0.1279 0.0
C620 C 0.57101 0.59466 0.15131 0.0
C621 C 0.56028 0.58271 0.17272 0.0
C622 C 0.5664 0.55503 0.1014 0.0
C623 C 0.58014 0.61681 0.15399 0.0
H624 H 0.63206 0.6264 0.08283 0.0
H625 H 0.57994 0.62285 0.05262 0.0
H626 H 0.61428 0.6061 0.14423 0.0
H627 H 0.60894 0.58482 0.12452 0.0
H628 H 0.6316 0.60785 0.11941 0.0
H629 H 0.54877 0.60087 0.06944 0.0
H630 H 0.54594 0.57977 0.08713 0.0
H631 H 0.54984 0.60114 0.1054 0.0
H632 H 0.54788 0.53744 0.14752 0.0
H633 H 0.55846 0.58959 0.19054 0.0
H634 H 0.58201 0.55989 0.09797 0.0
H635 H 0.56129 0.55947 0.08372 0.0
H636 H 0.55788 0.53865 0.10277 0.0
H637 H 0.59622 0.62426 0.15114 0.0
H638 H 0.57725 0.62134 0.1738 0.0
H639 H 0.57436 0.62224 0.13827 0.0
C640 C 0.38774 0.97856 0.09412 0.0
C641 C 0.39247 0.9928 0.07444 0.0
C642 C 0.40158 0.98085 0.11333 0.0
C643 C 0.42086 0.9975 0.11239 0.0
C644 C 0.42571 0.01199 0.09262 0.0
C645 C 0.41138 0.00961 0.07412 0.0
C646 C 0.39559 0.96533 0.13453 0.0
C647 C 0.44618 0.02968 0.09048 0.0
C648 C 0.44929 0.00882 0.17731 0.0
C649 C 0.45843 0.99767 0.17424 0.0
C650 C 0.43776 0.00968 0.1569 0.0
C651 C 0.43574 0.99964 0.13238 0.0
C652 C 0.44648 0.99 0.12819 0.0
C653 C 0.4576 0.989 0.14925 0.0
C654 C 0.42652 0.02001 0.16243 0.0
C655 C 0.44522 0.97964 0.10205 0.0
H656 H 0.37316 0.96555 0.09442 0.0
H657 H 0.41523 0.02049 0.05864 0.0
H658 H 0.40432 0.95806 0.13247 0.0
H659 H 0.39861 0.97235 0.15469 0.0
H660 H 0.37981 0.95379 0.13329 0.0
H661 H 0.44748 0.03987 0.07442 0.0
H662 H 0.45067 0.03803 0.10969 0.0
H663 H 0.45662 0.02462 0.08628 0.0
H664 H 0.4502 0.01592 0.1964 0.0
H665 H 0.46458 0.98036 0.14665 0.0
H666 H 0.41067 0.00884 0.16375 0.0
H667 H 0.42844 0.03007 0.14589 0.0
H668 H 0.43115 0.02871 0.18141 0.0
H669 H 0.43061 0.96599 0.10025 0.0
H670 H 0.45657 0.97548 0.10049 0.0
H671 H 0.44687 0.9892 0.08497 0.0
C672 C 0.41279 0.992 0.95392 0.0
C673 C 0.40458 1.00404 0.95613 0.0
C674 C 0.42755 0.99599 0.93531 0.0
C675 C 0.43416 0.01229 0.91813 0.0
C676 C 0.4265 0.02498 0.92089 0.0
C677 C 0.41188 0.02079 0.94006 0.0
C678 C 0.4355 0.98226 0.93335 0.0
C679 C 0.4331 0.04244 0.90279 0.0
C680 C 0.48043 0.029 0.87686 0.0
C681 C 0.47249 0.01979 0.85217 0.0
C682 C 0.46818 0.02662 0.89868 0.0
C683 C 0.44758 0.01479 0.89563 0.0
C684 C 0.4396 1.00492 0.871 0.0
C685 C 0.45213 0.00745 0.84968 0.0
C686 C 0.47723 0.03717 0.92474 0.0
C687 C 0.41774 0.99202 0.86691 0.0
H688 H 0.4075 0.97923 0.96664 0.0
H689 H 0.40565 0.03018 0.94174 0.0
H690 H 0.43085 0.9739 0.91414 0.0
H691 H 0.45174 0.99084 0.93357 0.0
H692 H 0.43029 0.97149 0.94992 0.0
H693 H 0.42693 0.05175 0.90884 0.0
H694 H 0.44931 0.05176 0.90279 0.0
H695 H 0.42844 0.0371 0.88198 0.0
H696 H 0.49614 0.03869 0.87877 0.0
H697 H 0.44596 1.00014 0.83069 0.0
H698 H 0.47178 0.02649 0.9414 0.0
H699 H 0.47285 0.0482 0.92911 0.0
H700 H 0.49347 0.0449 0.92434 0.0
H701 H 0.41149 0.97986 0.88159 0.0
H702 H 0.41391 0.98543 0.84648 0.0
H703 H 0.41066 1.00085 0.87036 0.0
C704 C 0.98875 0.38845 0.91831 0.0
C705 C 1.00217 0.39345 0.93924 0.0
C706 C 0.99097 0.40259 0.89959 0.0
C707 C 1.00662 0.42244 0.90235 0.0
C708 C 0.02033 0.42754 0.92334 0.0
C709 C 0.0181 0.41292 0.9413 0.0
C710 C 0.97635 0.39632 0.87706 0.0
C711 C 0.03691 0.44858 0.92743 0.0
C712 C 0.01855 0.4529 0.83936 0.0
C713 C 1.00634 0.46085 0.84193 0.0
C714 C 0.01952 0.44113 0.85938 0.0
C715 C 1.00849 0.43767 0.88307 0.0
C716 C 0.99768 0.44727 0.88694 0.0
C717 C 0.99659 0.45862 0.86624 0.0
C718 C 0.0311 0.43112 0.85417 0.0
C719 C 0.9862 0.44451 0.91226 0.0
H720 H 0.9764 0.37344 0.9167 0.0
H721 H 0.0283 0.41695 0.95777 0.0
H722 H 0.96814 0.40416 0.87894 0.0
H723 H 0.98408 0.40045 0.85757 0.0
H724 H 0.96569 0.38014 0.87685 0.0
H725 H 0.04674 0.45001 0.94408 0.0
H726 H 0.04573 0.45416 0.90893 0.0
H727 H 0.03087 0.45823 0.9319 0.0
H728 H 0.02647 0.45488 0.82085 0.0
H729 H 0.98712 0.46466 0.86847 0.0
H730 H 0.02086 0.41498 0.85137 0.0
H731 H 0.04058 0.43311 0.87149 0.0
H732 H 0.0404 0.43685 0.83605 0.0
H733 H 0.97323 0.42931 0.91254 0.0
H734 H 0.98108 0.45519 0.91394 0.0
H735 H 0.99523 0.44625 0.93004 0.0
C736 C 0.62047 0.60682 0.93371 0.0
C737 C 0.611 0.61273 0.95191 0.0
C738 C 0.60961 0.59189 0.91458 0.0
C739 C 0.5889 0.58259 0.91414 0.0
C740 C 0.5793 0.58751 0.93389 0.0
C741 C 0.59047 0.60261 0.95239 0.0
C742 C 0.62034 0.58703 0.89377 0.0
C743 C 0.55728 0.57778 0.93443 0.0
C744 C 0.56392 0.5669 0.84669 0.0
C745 C 0.55643 0.54646 0.84651 0.0
C746 C 0.57445 0.57873 0.86863 0.0
C747 C 0.57746 0.56988 0.89108 0.0
C748 C 0.56925 0.54911 0.8915 0.0
C749 C 0.55879 0.5376 0.86912 0.0
C750 C 0.58274 0.60078 0.86748 0.0
C751 C 0.57201 0.53918 0.91522 0.0
H752 H 0.63633 0.6146 0.93343 0.0
H753 H 0.58311 0.60693 0.96685 0.0
H754 H 0.61362 0.57078 0.89161 0.0
H755 H 0.61917 0.59269 0.87411 0.0
H756 H 0.6361 0.59371 0.89872 0.0
H757 H 0.55202 0.58127 0.95315 0.0
H758 H 0.55242 0.58298 0.91729 0.0
H759 H 0.5502 0.56149 0.93238 0.0
H760 H 0.56199 0.57371 0.82923 0.0
H761 H 0.55317 0.52182 0.86883 0.0
H762 H 0.59891 0.60875 0.86955 0.0
H763 H 0.577 0.60561 0.88434 0.0
H764 H 0.57908 0.60529 0.84849 0.0
H765 H 0.58776 0.54426 0.9175 0.0
H766 H 0.56365 0.5228 0.91312 0.0
H767 H 0.56733 0.54337 0.93384 0.0
C768 C 1.00769 0.61339 0.91948 0.0
C769 C 0.99986 0.61116 0.94519 0.0
C770 C 1.00115 0.59713 0.90207 0.0
C771 C 0.98674 0.57806 0.91084 0.0
C772 C 0.97833 0.57578 0.93652 0.0
C773 C 0.98488 0.59245 0.95335 0.0
C774 C 0.01014 0.60032 0.87456 0.0
C775 C 0.96318 0.55568 0.9467 0.0
C776 C 0.9647 0.5424 0.85265 0.0
C777 C 0.978 0.53581 0.84998 0.0
C778 C 0.96626 0.55496 0.87382 0.0
C779 C 0.98121 0.56068 0.89308 0.0
C780 C 0.99307 0.55208 0.89229 0.0
C781 C 0.99141 0.53981 0.8706 0.0
C782 C 0.95328 0.56373 0.87388 0.0
C783 C 1.00881 0.55737 0.91292 0.0
H784 H 0.01922 0.62787 0.91312 0.0
H785 H 0.97899 0.59068 0.97339 0.0
H786 H 0.01849 0.59262 0.87278 0.0
H787 H 0.9985 0.59394 0.85908 0.0
H788 H 0.02021 0.61623 0.87025 0.0
H789 H 0.95635 0.5567 0.96562 0.0
H790 H 0.9515 0.54747 0.93161 0.0
H791 H 0.97019 0.54687 0.95037 0.0
H792 H 0.95398 0.53894 0.83704 0.0
H793 H 1.00169 0.53472 0.86874 0.0
H794 H 0.96182 0.57919 0.86678 0.0
H795 H 0.94809 0.56414 0.89436 0.0
H796 H 0.94038 0.55531 0.86058 0.0
H797 H 0.02131 0.57248 0.9091 0.0
H798 H 0.01428 0.54694 0.91231 0.0
H799 H 1.00326 0.55741 0.93329 0.0
C800 C 0.41225 0.40581 0.95077 0.0
C801 C 0.40844 0.38636 0.95105 0.0
C802 C 0.42444 0.41918 0.93124 0.0
C803 C 0.4324 0.41269 0.91094 0.0
C804 C 0.42829 0.39293 0.91092 0.0
C805 C 0.41667 0.38011 0.9313 0.0
C806 C 0.42896 0.44027 0.9325 0.0
C807 C 0.43591 0.38523 0.8891 0.0
C808 C 0.4456 0.43905 0.84455 0.0
C809 C 0.46616 0.44884 0.84463 0.0
C810 C 0.4345 0.42743 0.86604 0.0
C811 C 0.44414 0.4262 0.8889 0.0
C812 C 0.46489 0.43716 0.89003 0.0
C813 C 0.47568 0.44816 0.86773 0.0
C814 C 0.41244 0.41578 0.86373 0.0
C815 C 0.47569 0.4368 0.91448 0.0
H816 H 0.40616 0.41075 0.96637 0.0
H817 H 0.41374 0.36507 0.93158 0.0
H818 H 0.44504 0.45062 0.93267 0.0
H819 H 0.42313 0.44355 0.91449 0.0
H820 H 0.42258 0.44326 0.95048 0.0
H821 H 0.43111 0.36939 0.89172 0.0
H822 H 0.43072 0.38694 0.86936 0.0
H823 H 0.45214 0.39398 0.88877 0.0
H824 H 0.43806 0.43999 0.82719 0.0
H825 H 0.49152 0.45563 0.8681 0.0
H826 H 0.40579 0.41969 0.88043 0.0
H827 H 0.40701 0.39973 0.86515 0.0
H828 H 0.40722 0.41842 0.84458 0.0
H829 H 0.46953 0.43967 0.93276 0.0
H830 H 0.4916 0.44792 0.91351 0.0
H831 H 0.47383 0.42193 0.91644 0.0
C832 C 0.62118 0.04365 0.96482 0.0
C833 C 0.62942 0.0316 0.96308 0.0
C834 C 0.60844 0.04304 0.94508 0.0
C835 C 0.60398 0.03031 0.92265 0.0
C836 C 0.61191 0.0178 0.92096 0.0
C837 C 0.62439 0.01845 0.94133 0.0
C838 C 0.60012 0.05641 0.94794 0.0
C839 C 0.60768 1.00417 0.89721 0.0
C840 C 0.56146 0.01999 0.8767 0.0
C841 C 0.57132 0.03329 0.85596 0.0
C842 C 0.57181 0.01895 0.89877 0.0
C843 C 0.59247 0.03143 0.89999 0.0
C844 C 0.60233 0.04535 0.87955 0.0
C845 C 0.59164 0.04621 0.858 0.0
C846 C 0.56073 1.00414 0.92038 0.0
C847 C 0.6243 0.05901 0.88002 0.0
H848 H 0.62464 0.05361 0.98178 0.0
H849 H 0.6306 0.00904 0.93987 0.0
H850 H 0.60607 0.06766 0.93201 0.0
H851 H 0.58397 0.04773 0.94552 0.0
H852 H 0.60365 0.06418 0.96762 0.0
H853 H 0.61404 0.99461 0.89953 0.0
H854 H 0.59165 0.9946 0.89421 0.0
H855 H 0.6138 0.01304 0.87887 0.0
H856 H 0.54579 0.00988 0.87514 0.0
H857 H 0.59932 0.0567 0.84219 0.0
H858 H 0.56435 0.01161 0.94025 0.0
H859 H 0.5652 0.99293 0.92068 0.0
H860 H 0.54463 0.99642 0.91739 0.0
H861 H 0.6288 0.06823 0.8985 0.0
H862 H 0.62973 0.06896 0.86253 0.0
H863 H 0.63156 0.05018 0.88017 0.0
C864 C 0.60158 0.992 0.06958 0.0
C865 C 0.61991 0.00724 0.07857 0.0
C866 C 0.58475 0.98533 0.0855 0.0
C867 C 0.58645 0.99378 0.11125 0.0
C868 C 0.60511 0.00862 0.12077 0.0
C869 C 0.62154 0.01536 0.10417 0.0
C870 C 0.56509 0.96985 0.07439 0.0
C871 C 0.60771 0.01762 0.14839 0.0
C872 C 0.54594 0.995 0.15002 0.0
C873 C 0.54166 0.98069 0.16945 0.0
C874 C 0.55937 0.99833 0.12942 0.0
C875 C 0.56891 0.98731 0.12854 0.0
C876 C 0.56334 0.97172 0.14671 0.0
C877 C 0.54959 0.96843 0.16667 0.0
C878 C 0.56446 0.01469 0.10988 0.0
C879 C 0.57318 0.95967 0.1467 0.0
H880 H 0.60023 0.98595 0.04959 0.0
H881 H 0.6357 0.02716 0.11114 0.0
H882 H 0.55749 0.95737 0.08843 0.0
H883 H 0.55572 0.97636 0.07205 0.0
H884 H 0.56637 0.96396 0.05468 0.0
H885 H 0.62333 0.02821 0.15328 0.0
H886 H 0.59957 0.02555 0.14994 0.0
H887 H 0.60159 0.00582 0.16361 0.0
H888 H 0.53986 1.00451 0.15198 0.0
H889 H 0.54601 0.95704 0.1813 0.0
H890 H 0.56529 0.00983 0.08925 0.0
H891 H 0.57905 0.02761 0.11493 0.0
H892 H 0.5536 0.01955 0.11032 0.0
H893 H 0.57388 0.95457 0.12619 0.0
H894 H 0.56552 0.94657 0.15979 0.0
H895 H 0.58846 0.96906 0.15396 0.0
C896 C 0.01448 0.61594 0.08267 0.0
C897 C 0.02789 0.62207 0.06149 0.0
C898 C 0.01452 0.60366 0.10284 0.0
C899 C 0.02809 0.59708 0.10158 0.0
C900 C 0.04125 0.60276 0.07985 0.0
C901 C 0.0411 0.61525 0.06026 0.0
C902 C 1.00038 0.59812 0.12585 0.0
C903 C 0.05578 0.59591 0.07749 0.0
C904 C 0.0434 0.58489 0.16689 0.0
C905 C 0.03154 0.5642 0.16768 0.0
C906 C 0.04247 0.59566 0.14548 0.0
C907 C 0.02956 0.58552 0.12393 0.0
C908 C 0.01825 0.56454 0.12391 0.0
C909 C 0.01934 0.55411 0.14584 0.0
C910 C 0.05487 0.61797 0.14637 0.0
C911 C 1.00453 0.55317 0.10113 0.0
H912 H 1.00418 0.62105 0.08377 0.0
H913 H 0.05134 0.61958 0.04379 0.0
H914 H 0.99165 0.5818 0.12785 0.0
H915 H 1.00864 0.60427 0.14478 0.0
H916 H 0.99022 0.6037 0.12337 0.0
H917 H 0.06407 0.60047 0.05842 0.0
H918 H 0.06637 0.60213 0.09429 0.0
H919 H 0.04812 0.57956 0.07885 0.0
H920 H 0.05302 0.59276 0.18361 0.0
H921 H 0.01004 0.53815 0.14644 0.0
H922 H 0.0453 0.62437 0.14616 0.0
H923 H 0.06435 0.62341 0.12842 0.0
H924 H 0.06431 0.62358 0.16443 0.0
H925 H 0.99268 0.55663 0.10033 0.0
H926 H 0.99778 0.53693 0.1032 0.0
H927 H 0.01246 0.55771 0.08182 0.0
C928 C 0.4027 0.41738 0.06476 0.0
C929 C 0.39984 0.39883 0.07125 0.0
C930 C 0.41326 0.43381 0.0819 0.0
C931 C 0.42065 0.43141 0.10631 0.0
C932 C 0.41714 0.4125 0.11332 0.0
C933 C 0.40702 0.39652 0.09553 0.0
C934 C 0.41709 0.45381 0.07348 0.0
C935 C 0.42429 0.40916 0.1395 0.0
C936 C 0.46352 0.47107 0.14599 0.0
C937 C 0.45384 0.47371 0.16768 0.0
C938 C 0.45289 0.45865 0.12438 0.0
C939 C 0.43215 0.44847 0.12478 0.0
C940 C 0.42247 0.45258 0.14538 0.0
C941 C 0.43347 0.46537 0.16639 0.0
C942 C 0.46378 0.4551 0.10233 0.0
C943 C 0.40041 0.442 0.14672 0.0
H944 H 0.39738 0.41924 0.04578 0.0
H945 H 0.40476 0.38215 0.10058 0.0
H946 H 0.41247 0.46048 0.08939 0.0
H947 H 0.43304 0.46391 0.07045 0.0
H948 H 0.40935 0.45297 0.05468 0.0
H949 H 0.41946 0.39335 0.1425 0.0
H950 H 0.44052 0.41795 0.14019 0.0
H951 H 0.41883 0.41424 0.15643 0.0
H952 H 0.47925 0.47749 0.14681 0.0
H953 H 0.42596 0.46774 0.18286 0.0
H954 H 0.45749 0.4549 0.08253 0.0
H955 H 0.46232 0.44045 0.10502 0.0
H956 H 0.47962 0.46655 0.10234 0.0
H957 H 0.39529 0.44891 0.16166 0.0
H958 H 0.39458 0.42639 0.15241 0.0
H959 H 0.39411 0.44184 0.12696 0.0
C960 C 0.69577 0.74204 0.41384 0.0
C961 C 0.67926 0.73552 0.39763 0.0
C962 C 0.70033 0.75652 0.43381 0.0
C963 C 0.68823 0.76474 0.43715 0.0
C964 C 0.67241 0.75919 0.41946 0.0
C965 C 0.66806 0.74456 0.40006 0.0
C966 C 0.71726 0.76205 0.45241 0.0
C967 C 0.65929 0.76773 0.4221 0.0
C968 C 0.68081 0.77879 0.50686 0.0
C969 C 0.69277 0.79945 0.50682 0.0
C970 C 0.67951 0.7674 0.48443 0.0
C971 C 0.69025 0.77691 0.46117 0.0
C972 C 0.70201 0.79782 0.4607 0.0
C973 C 0.70315 0.80889 0.48363 0.0
C974 C 0.66662 0.74515 0.48569 0.0
C975 C 0.71345 0.80842 0.4361 0.0
H976 H 0.70448 0.73512 0.41187 0.0
H977 H 0.6555 0.73982 0.38712 0.0
H978 H 0.72641 0.77835 0.4548 0.0
H979 H 0.71156 0.75587 0.47247 0.0
H980 H 0.72665 0.7563 0.44519 0.0
H981 H 0.64934 0.76387 0.40466 0.0
H982 H 0.65022 0.76194 0.44037 0.0
H983 H 0.66812 0.78407 0.4242 0.0
H984 H 0.67253 0.77148 0.52465 0.0
H985 H 0.71249 0.82486 0.48365 0.0
H986 H 0.67534 0.73812 0.48108 0.0
H987 H 0.65486 0.73981 0.47045 0.0
H988 H 0.65972 0.74008 0.50561 0.0
H989 H 0.72399 0.80364 0.43103 0.0
H990 H 0.72165 0.82475 0.43883 0.0
H991 H 0.70342 0.80447 0.41879 0.0
C992 C 0.27918 0.95112 0.41233 0.0
C993 C 0.27139 0.95749 0.39245 0.0
C994 C 0.26738 0.93903 0.4332 0.0
C995 C 0.24725 0.93292 0.43402 0.0
C996 C 0.23923 0.93899 0.41377 0.0
C997 C 0.2514 0.95129 0.39338 0.0
C998 C 0.27653 0.93305 0.45463 0.0
C999 C 0.21781 0.93261 0.41375 0.0
C1000 C 0.21463 0.88946 0.47891 0.0
C1001 C 0.21397 0.89925 0.50213 0.0
C1002 C 0.22494 0.90017 0.4562 0.0
C1003 C 0.23486 0.92113 0.45688 0.0
C1004 C 0.23345 0.93098 0.47986 0.0
C1005 C 0.2229 0.91993 0.50206 0.0
C1006 C 0.22587 0.88912 0.4319 0.0
C1007 C 0.24376 0.95328 0.48145 0.0
H1008 H 0.29457 0.95579 0.41178 0.0
H1009 H 0.24513 0.95588 0.37795 0.0
H1010 H 0.27515 0.93887 0.47432 0.0
H1011 H 0.26869 0.9167 0.45603 0.0
H1012 H 0.29227 0.93863 0.45078 0.0
H1013 H 0.21363 0.93777 0.39583 0.0
H1014 H 0.20864 0.91625 0.41449 0.0
H1015 H 0.21436 0.93856 0.43183 0.0
H1016 H 0.20787 0.8735 0.47892 0.0
H1017 H 0.22217 0.92755 0.51984 0.0
H1018 H 0.24106 0.89235 0.42915 0.0
H1019 H 0.22187 0.89413 0.41369 0.0
H1020 H 0.21598 0.87287 0.43364 0.0
H1021 H 0.25981 0.95968 0.47984 0.0
H1022 H 0.24066 0.95862 0.50044 0.0
H1023 H 0.23925 0.959 0.46454 0.0
C1024 C 0.06504 0.3336 0.41793 0.0
C1025 C 0.0598 0.3207 0.39585 0.0
C1026 C 0.07741 0.33375 0.4381 0.0
C1027 C 0.08502 0.32098 0.43585 0.0
C1028 C 0.08036 0.30851 0.41308 0.0
C1029 C 0.06772 0.3084 0.39357 0.0
C1030 C 0.08183 0.34709 0.46222 0.0
C1031 C 0.08838 0.29493 0.4096 0.0
C1032 C 0.1273 0.33002 0.48148 0.0
C1033 C 0.11729 0.31647 0.50192 0.0
C1034 C 0.11708 0.33155 0.45961 0.0
C1035 C 0.09639 0.31932 0.45828 0.0
C1036 C 0.08637 0.30516 0.4784 0.0
C1037 C 0.09693 0.3038 0.49974 0.0
C1038 C 0.12834 0.34659 0.43832 0.0
C1039 C 0.06437 0.29177 0.47783 0.0
H1040 H 0.05908 0.34321 0.41981 0.0
H1041 H 0.06409 0.29863 0.37635 0.0
H1042 H 0.07561 0.33799 0.48036 0.0
H1043 H 0.09788 0.35642 0.46526 0.0
H1044 H 0.07568 0.35687 0.46036 0.0
H1045 H 0.08476 0.28743 0.38971 0.0
H1046 H 0.10453 0.30336 0.41205 0.0
H1047 H 0.08228 0.28345 0.42523 0.0
H1048 H 0.14299 0.33993 0.48313 0.0
H1049 H 0.08912 0.2931 0.51528 0.0
H1050 H 0.12412 0.35799 0.43847 0.0
H1051 H 0.12464 0.3394 0.41827 0.0
H1052 H 0.14442 0.35405 0.4413 0.0
H1053 H 0.05732 0.30079 0.47805 0.0
H1054 H 0.0588 0.2816 0.49508 0.0
H1055 H 0.05978 0.28278 0.45913 0.0
C1056 C 0.06761 0.33692 0.25505 0.0
C1057 C 0.06962 0.34512 0.28067 0.0
C1058 C 0.0839 0.34314 0.23834 0.0
C1059 C 0.10278 0.3575 0.24778 0.0
C1060 C 0.10488 0.36602 0.27355 0.0
C1061 C 0.0882 0.3599 0.28959 0.0
C1062 C 0.08091 0.33409 0.21068 0.0
C1063 C 0.12478 0.38099 0.28457 0.0
C1064 C 0.14217 0.35461 0.20847 0.0
C1065 C 0.14679 0.36902 0.18908 0.0
C1066 C 0.12902 0.35177 0.22926 0.0
C1067 C 0.12014 0.36342 0.23035 0.0
C1068 C 0.12612 0.37911 0.21223 0.0
C1069 C 0.13958 0.38189 0.19208 0.0
C1070 C 0.12348 0.33528 0.24874 0.0
C1071 C 0.11698 0.39181 0.21248 0.0
H1072 H 0.05325 0.32549 0.24815 0.0
H1073 H 0.08983 0.36601 0.3096 0.0
H1074 H 0.08732 0.34589 0.19549 0.0
H1075 H 0.08856 0.32568 0.20899 0.0
H1076 H 0.06519 0.32392 0.20589 0.0
H1077 H 0.12383 0.38702 0.30434 0.0
H1078 H 0.1337 0.37395 0.28675 0.0
H1079 H 0.13267 0.39344 0.27055 0.0
H1080 H 0.14769 0.34464 0.20634 0.0
H1081 H 0.14344 0.39334 0.17745 0.0
H1082 H 0.10868 0.32268 0.24376 0.0
H1083 H 0.12292 0.34024 0.26942 0.0
H1084 H 0.13393 0.3299 0.24815 0.0
H1085 H 0.10164 0.38288 0.2053 0.0
H1086 H 0.12498 0.4049 0.19943 0.0
H1087 H 0.11657 0.39699 0.23305 0.0
C1088 C 0.6765 0.73136 0.26362 0.0
C1089 C 0.66225 0.72523 0.28371 0.0
C1090 C 0.67835 0.74501 0.24419 0.0
C1091 C 0.66598 0.75306 0.24526 0.0
C1092 C 0.6522 0.74755 0.2662 0.0
C1093 C 0.65037 0.73361 0.28491 0.0
C1094 C 0.69302 0.75025 0.22193 0.0
C1095 C 0.63893 0.75594 0.26843 0.0
C1096 C 0.67721 0.79733 0.20182 0.0
C1097 C 0.66462 0.78787 0.18008 0.0
C1098 C 0.67786 0.78627 0.22333 0.0
C1099 C 0.66575 0.76533 0.22292 0.0
C1100 C 0.65272 0.75587 0.20131 0.0
C1101 C 0.65216 0.76722 0.18047 0.0
C1102 C 0.69167 0.79692 0.2463 0.0
C1103 C 0.63947 0.73363 0.19995 0.0
H1104 H 0.68583 0.72509 0.26266 0.0
H1105 H 0.63961 0.72934 0.30071 0.0
H1106 H 0.68518 0.74461 0.20262 0.0
H1107 H 0.70243 0.76655 0.22034 0.0
H1108 H 0.7025 0.74391 0.22494 0.0
H1109 H 0.63053 0.75184 0.28743 0.0
H1110 H 0.64759 0.77231 0.26715 0.0
H1111 H 0.62838 0.75038 0.25156 0.0
H1112 H 0.68688 0.81325 0.20164 0.0
H1113 H 0.64208 0.75982 0.16401 0.0
H1114 H 0.70268 0.79232 0.24746 0.0
H1115 H 0.6835 0.79284 0.26545 0.0
H1116 H 0.69947 0.81325 0.24425 0.0
H1117 H 0.64832 0.72645 0.20101 0.0
H1118 H 0.63061 0.72854 0.18132 0.0
H1119 H 0.62936 0.72847 0.21727 0.0
C1120 C 0.27999 0.94612 0.24982 0.0
C1121 C 0.28649 0.9445 0.27504 0.0
C1122 C 0.2702 0.92963 0.23275 0.0
C1123 C 0.26642 0.91094 0.24137 0.0
C1124 C 0.2734 0.90929 0.26657 0.0
C1125 C 0.28356 0.92618 0.28305 0.0
C1126 C 0.26348 0.93217 0.20571 0.0
C1127 C 0.2694 0.88958 0.2766 0.0
C1128 C 0.22325 0.87121 0.20257 0.0
C1129 C 0.23281 0.86813 0.18113 0.0
C1130 C 0.23399 0.88363 0.22411 0.0
C1131 C 0.2547 0.89328 0.22391 0.0
C1132 C 0.26415 0.88838 0.20386 0.0
C1133 C 0.25304 0.87568 0.18284 0.0
C1134 C 0.22331 0.88803 0.24556 0.0
C1135 C 0.28616 0.89824 0.20287 0.0
H1136 H 0.28234 0.96029 0.24354 0.0
H1137 H 0.28838 0.92486 0.30272 0.0
H1138 H 0.26895 0.92635 0.18973 0.0
H1139 H 0.24725 0.9236 0.20475 0.0
H1140 H 0.2686 0.9479 0.20146 0.0
H1141 H 0.27773 0.89116 0.29512 0.0
H1142 H 0.25355 0.88004 0.28091 0.0
H1143 H 0.27315 0.88184 0.26115 0.0
H1144 H 0.20762 0.86538 0.20142 0.0
H1145 H 0.26042 0.87299 0.16649 0.0
H1146 H 0.22512 0.90275 0.24199 0.0
H1147 H 0.22949 0.88856 0.26557 0.0
H1148 H 0.2074 0.87684 0.24569 0.0
H1149 H 0.29248 0.9136 0.19569 0.0
H1150 H 0.29092 0.89032 0.18913 0.0
H1151 H 0.29228 0.8991 0.22302 0.0
C1152 C 0.67712 0.94636 0.25978 0.0
C1153 C 0.66782 0.94363 0.28451 0.0
C1154 C 0.67075 0.93073 0.24132 0.0
C1155 C 0.655 0.91173 0.24807 0.0
C1156 C 0.6452 0.90898 0.27277 0.0
C1157 C 0.65162 0.92508 0.29065 0.0
C1158 C 0.68127 0.93446 0.21487 0.0
C1159 C 0.62861 0.8889 0.28086 0.0
C1160 C 0.6345 0.87852 0.18718 0.0
C1161 C 0.64683 0.87067 0.18556 0.0
C1162 C 0.63586 0.89079 0.20863 0.0
C1163 C 0.6495 0.89487 0.22931 0.0
C1164 C 0.66025 0.88507 0.22937 0.0
C1165 C 0.65891 0.87319 0.20735 0.0
C1166 C 0.62415 0.90094 0.20769 0.0
C1167 C 0.67453 0.88858 0.25148 0.0
H1168 H 0.6896 0.96075 0.25501 0.0
H1169 H 0.64459 0.92293 0.30995 0.0
H1170 H 0.68883 0.92595 0.21368 0.0
H1171 H 0.67061 0.92934 0.19815 0.0
H1172 H 0.6923 0.95036 0.21201 0.0
H1173 H 0.62112 0.88967 0.29923 0.0
H1174 H 0.61768 0.882 0.26455 0.0
H1175 H 0.63443 0.87903 0.28465 0.0
H1176 H 0.62473 0.87617 0.1707 0.0
H1177 H 0.66844 0.86716 0.20635 0.0
H1178 H 0.63394 0.9166 0.20195 0.0
H1179 H 0.61795 0.90093 0.22759 0.0
H1180 H 0.61202 0.89381 0.19292 0.0
H1181 H 0.68782 0.90343 0.24922 0.0
H1182 H 0.67904 0.87738 0.2511 0.0
H1183 H 0.66805 0.88828 0.27129 0.0
C1184 C 0.06811 0.72931 0.26365 0.0
C1185 C 0.07721 0.72283 0.28129 0.0
C1186 C 0.07884 0.74281 0.24333 0.0
C1187 C 0.09921 0.75028 0.24093 0.0
C1188 C 0.10856 0.74426 0.25923 0.0
C1189 C 0.09744 0.7305 0.27896 0.0
C1190 C 0.06827 0.74858 0.22389 0.0
C1191 C 0.13027 0.75205 0.25763 0.0
C1192 C 0.12285 0.76473 0.17268 0.0
C1193 C 0.13199 0.78546 0.17329 0.0
C1194 C 0.11187 0.75324 0.19428 0.0
C1195 C 0.11037 0.76264 0.21767 0.0
C1196 C 0.11999 0.78358 0.2189 0.0
C1197 C 0.13065 0.79479 0.19661 0.0
C1198 C 0.10186 0.73098 0.192 0.0
C1199 C 0.11899 0.79411 0.24372 0.0
H1200 H 0.05252 0.72355 0.26541 0.0
H1201 H 0.10472 0.7259 0.29281 0.0
H1202 H 0.07561 0.76491 0.22284 0.0
H1203 H 0.06882 0.74305 0.20357 0.0
H1204 H 0.05269 0.74249 0.22945 0.0
H1205 H 0.13563 0.7474 0.27486 0.0
H1206 H 0.13359 0.74656 0.23898 0.0
H1207 H 0.13856 0.76844 0.2569 0.0
H1208 H 0.12426 0.75737 0.1551 0.0
H1209 H 0.13765 0.81076 0.19727 0.0
H1210 H 0.08597 0.72412 0.196 0.0
H1211 H 0.10787 0.72538 0.20717 0.0
H1212 H 0.10375 0.72597 0.17193 0.0
H1213 H 0.10354 0.78944 0.2481 0.0
H1214 H 0.12756 0.81045 0.24171 0.0
H1215 H 0.12465 0.78999 0.26114 0.0
C1216 C 0.29955 0.36875 0.26171 0.0
C1217 C 0.29493 0.3548 0.28178 0.0
C1218 C 0.28555 0.36628 0.24266 0.0
C1219 C 0.26621 0.34978 0.24419 0.0
C1220 C 0.26148 0.33556 0.26434 0.0
C1221 C 0.27598 0.3381 0.28266 0.0
C1222 C 0.29141 0.38149 0.22104 0.0
C1223 C 0.24097 0.31805 0.26711 0.0
C1224 C 0.22942 0.3584 0.20772 0.0
C1225 C 0.22815 0.34935 0.18289 0.0
C1226 C 0.24068 0.35748 0.22865 0.0
C1227 C 0.25113 0.34754 0.22448 0.0
C1228 C 0.24865 0.33712 0.20016 0.0
C1229 C 0.23698 0.33791 0.17989 0.0
C1230 C 0.24241 0.36825 0.25459 0.0
C1231 C 0.25957 0.32645 0.19465 0.0
H1232 H 0.31417 0.38168 0.26098 0.0
H1233 H 0.27223 0.32746 0.29844 0.0
H1234 H 0.28802 0.37415 0.20108 0.0
H1235 H 0.28289 0.38899 0.2231 0.0
H1236 H 0.30725 0.39289 0.2218 0.0
H1237 H 0.2398 0.30799 0.28329 0.0
H1238 H 0.23072 0.32332 0.27152 0.0
H1239 H 0.2361 0.30949 0.24808 0.0
H1240 H 0.22268 0.36727 0.21027 0.0
H1241 H 0.23573 0.3305 0.16094 0.0
H1242 H 0.25712 0.38181 0.25592 0.0
H1243 H 0.24087 0.35888 0.27186 0.0
H1244 H 0.23122 0.37262 0.25624 0.0
H1245 H 0.27545 0.33745 0.19281 0.0
H1246 H 0.25457 0.31746 0.17593 0.0
H1247 H 0.25778 0.31663 0.21143 0.0
C1248 C 0.27669 0.3273 0.41659 0.0
C1249 C 0.28369 0.34393 0.40035 0.0
C1250 C 0.26207 0.32297 0.43586 0.0
C1251 C 0.25409 0.33539 0.43856 0.0
C1252 C 0.26041 0.35157 0.42122 0.0
C1253 C 0.27516 0.35569 0.40252 0.0
C1254 C 0.25578 0.30564 0.45409 0.0
C1255 C 0.25215 0.36503 0.4231 0.0
C1256 C 0.20772 0.31841 0.47986 0.0
C1257 C 0.21559 0.32782 0.50447 0.0
C1258 C 0.22002 0.32074 0.45809 0.0
C1259 C 0.24061 0.33276 0.46109 0.0
C1260 C 0.24853 0.3428 0.48565 0.0
C1261 C 0.23594 0.34028 0.50692 0.0
C1262 C 0.21103 0.30997 0.43214 0.0
C1263 C 0.27036 0.35592 0.4897 0.0
H1264 H 0.28315 0.31811 0.41496 0.0
H1265 H 0.28019 0.36837 0.38968 0.0
H1266 H 0.26046 0.3111 0.47485 0.0
H1267 H 0.23959 0.29611 0.45419 0.0
H1268 H 0.26216 0.29651 0.44808 0.0
H1269 H 0.2572 0.37576 0.40648 0.0
H1270 H 0.23591 0.35623 0.42289 0.0
H1271 H 0.2567 0.37344 0.44228 0.0
H1272 H 0.19202 0.30862 0.47796 0.0
H1273 H 0.24207 0.34771 0.52586 0.0
H1274 H 0.2157 0.29915 0.42786 0.0
H1275 H 0.21625 0.32055 0.41538 0.0
H1276 H 0.19477 0.30195 0.43261 0.0
H1277 H 0.27761 0.34724 0.48635 0.0
H1278 H 0.27414 0.3626 0.51008 0.0
H1279 H 0.27648 0.36802 0.47493 0.0
C1280 C 0.67309 0.93355 0.40421 0.0
C1281 C 0.68848 0.95328 0.40575 0.0
C1282 C 0.67149 0.91955 0.42279 0.0
C1283 C 0.6852 0.92561 0.44397 0.0
C1284 C 0.70045 0.94571 0.44599 0.0
C1285 C 0.70215 0.95919 0.42652 0.0
C1286 C 0.65545 0.8982 0.41934 0.0
C1287 C 0.71497 0.95299 0.46875 0.0
C1288 C 0.67174 0.89628 0.50813 0.0
C1289 C 0.68393 0.88824 0.50727 0.0
C1290 C 0.6716 0.90799 0.48739 0.0
C1291 C 0.68337 0.91119 0.46455 0.0
C1292 C 0.69441 0.9017 0.46245 0.0
C1293 C 0.69472 0.89049 0.48396 0.0
C1294 C 0.65985 0.91801 0.49079 0.0
C1295 C 0.70665 0.90418 0.43804 0.0
H1296 H 0.66277 0.92889 0.38778 0.0
H1297 H 0.71411 0.97443 0.42758 0.0
H1298 H 0.66198 0.88875 0.41723 0.0
H1299 H 0.64596 0.89316 0.4373 0.0
H1300 H 0.64617 0.89582 0.40156 0.0
H1301 H 0.72538 0.96921 0.4681 0.0
H1302 H 0.70711 0.94938 0.48814 0.0
H1303 H 0.72345 0.9454 0.46807 0.0
H1304 H 0.66298 0.89424 0.5258 0.0
H1305 H 0.70419 0.88438 0.48305 0.0
H1306 H 0.65016 0.91488 0.47329 0.0
H1307 H 0.66993 0.93428 0.49196 0.0
H1308 H 0.6507 0.91322 0.50913 0.0
H1309 H 0.69804 0.90187 0.41958 0.0
H1310 H 0.71209 0.89372 0.43779 0.0
H1311 H 0.71944 0.91948 0.43764 0.0
C1312 C 0.06498 0.74137 0.41473 0.0
C1313 C 0.07454 0.73521 0.39703 0.0
C1314 C 0.07562 0.75586 0.43445 0.0
C1315 C 0.09622 0.76447 0.43606 0.0
C1316 C 0.106 0.75929 0.41691 0.0
C1317 C 0.09503 0.74464 0.39778 0.0
C1318 C 0.06472 0.76102 0.45459 0.0
C1319 C 0.12793 0.76828 0.41763 0.0
C1320 C 0.12678 0.80893 0.4817 0.0
C1321 C 0.12841 0.79973 0.50447 0.0
C1322 C 0.11628 0.79769 0.45916 0.0
C1323 C 0.10729 0.77683 0.45957 0.0
C1324 C 0.10939 0.76757 0.48228 0.0
C1325 C 0.11998 0.77914 0.50437 0.0
C1326 C 0.11448 0.80805 0.43519 0.0
C1327 C 0.10023 0.74539 0.48342 0.0
H1328 H 0.04915 0.73413 0.41408 0.0
H1329 H 0.1025 0.74018 0.38372 0.0
H1330 H 0.06505 0.75498 0.47433 0.0
H1331 H 0.07189 0.7773 0.45702 0.0
H1332 H 0.04919 0.75491 0.44876 0.0
H1333 H 0.13349 0.76457 0.3994 0.0
H1334 H 0.13547 0.78461 0.41972 0.0
H1335 H 0.13196 0.76273 0.43525 0.0
H1336 H 0.13311 0.82484 0.48188 0.0
H1337 H 0.12138 0.77203 0.5219 0.0
H1338 H 0.09887 0.80319 0.43186 0.0
H1339 H 0.11969 0.80398 0.41698 0.0
H1340 H 0.12295 0.8244 0.43766 0.0
H1341 H 0.10302 0.74052 0.50276 0.0
H1342 H 0.10611 0.74026 0.46708 0.0
H1343 H 0.08417 0.738 0.48042 0.0
C1344 C 0.36171 0.07532 0.74752 0.0
C1345 C 0.34558 0.06813 0.73037 0.0
C1346 C 0.36531 0.08992 0.76691 0.0
C1347 C 0.35267 0.09761 0.76869 0.0
C1348 C 0.33722 0.09132 0.75015 0.0
C1349 C 0.33379 0.07658 0.73137 0.0
C1350 C 0.38191 0.09625 0.78645 0.0
C1351 C 0.32359 0.09934 0.75106 0.0
C1352 C 0.34424 0.11309 0.83701 0.0
C1353 C 0.35619 0.13373 0.83623 0.0
C1354 C 0.34306 0.10125 0.81516 0.0
C1355 C 0.35396 0.11028 0.7918 0.0
C1356 C 0.3655 0.13117 0.79047 0.0
C1357 C 0.36648 0.1427 0.81279 0.0
C1358 C 0.3304 0.07903 0.8173 0.0
C1359 C 0.37714 0.14129 0.76577 0.0
H1360 H 0.37088 0.06885 0.74667 0.0
H1361 H 0.32154 0.07133 0.71771 0.0
H1362 H 0.39081 0.11262 0.78798 0.0
H1363 H 0.37586 0.09065 0.8066 0.0
H1364 H 0.39161 0.09054 0.78066 0.0
H1365 H 0.31388 0.09476 0.73326 0.0
H1366 H 0.31428 0.09387 0.76917 0.0
H1367 H 0.33204 0.11573 0.75237 0.0
H1368 H 0.33614 0.10616 0.85507 0.0
H1369 H 0.37588 0.15865 0.81229 0.0
H1370 H 0.33945 0.07218 0.81427 0.0
H1371 H 0.31904 0.07311 0.80144 0.0
H1372 H 0.323 0.07438 0.837 0.0
H1373 H 0.38835 0.13715 0.76225 0.0
H1374 H 0.3846 0.15766 0.76746 0.0
H1375 H 0.36743 0.1363 0.74798 0.0
C1376 C 0.94661 0.28613 0.74596 0.0
C1377 C 0.93862 0.29209 0.72587 0.0
C1378 C 0.93483 0.27372 0.76664 0.0
C1379 C 0.91452 0.26689 0.76703 0.0
C1380 C 0.9063 0.2725 0.74649 0.0
C1381 C 0.91843 0.2851 0.72632 0.0
C1382 C 0.94418 0.26824 0.78839 0.0
C1383 C 0.8847 0.26538 0.746 0.0
C1384 C 0.882 0.22332 0.81196 0.0
C1385 C 0.8807 0.23306 0.83482 0.0
C1386 C 0.89259 0.23407 0.78941 0.0
C1387 C 0.90211 0.25501 0.78987 0.0
C1388 C 0.90007 0.26479 0.81247 0.0
C1389 C 0.88928 0.2537 0.83451 0.0
C1390 C 0.89419 0.2231 0.76551 0.0
C1391 C 0.90992 0.28705 0.81383 0.0
H1392 H 0.96215 0.29138 0.74577 0.0
H1393 H 0.91199 0.28936 0.71072 0.0
H1394 H 0.94252 0.27407 0.80792 0.0
H1395 H 0.93668 0.25192 0.79 0.0
H1396 H 0.96001 0.27418 0.78473 0.0
H1397 H 0.88038 0.27009 0.72776 0.0
H1398 H 0.87597 0.249 0.74701 0.0
H1399 H 0.88082 0.27125 0.76375 0.0
H1400 H 0.87551 0.2074 0.81218 0.0
H1401 H 0.88809 0.26127 0.85203 0.0
H1402 H 0.90957 0.22681 0.76319 0.0
H1403 H 0.89013 0.22773 0.747 0.0
H1404 H 0.88468 0.2068 0.76741 0.0
H1405 H 0.92603 0.29381 0.81244 0.0
H1406 H 0.9065 0.29233 0.83263 0.0
H1407 H 0.90529 0.29246 0.79668 0.0
C1408 C 0.73299 0.63759 0.72966 0.0
C1409 C 0.72488 0.64976 0.73116 0.0
C1410 C 0.74587 0.63839 0.74931 0.0
C1411 C 0.75056 0.6514 0.77146 0.0
C1412 C 0.7428 0.66407 0.77287 0.0
C1413 C 0.73022 0.66326 0.75252 0.0
C1414 C 0.75406 0.6249 0.74667 0.0
C1415 C 0.74725 0.67798 0.79634 0.0
C1416 C 0.76269 0.63544 0.83621 0.0
C1417 C 0.78306 0.64814 0.83819 0.0
C1418 C 0.75206 0.63648 0.81473 0.0
C1419 C 0.76201 0.6503 0.79422 0.0
C1420 C 0.7827 0.66256 0.79537 0.0
C1421 C 0.793 0.66138 0.81742 0.0
C1422 C 0.73006 0.62306 0.81437 0.0
C1423 C 0.79388 0.67723 0.77366 0.0
H1424 H 0.72931 0.62739 0.71293 0.0
H1425 H 0.72412 0.67278 0.75374 0.0
H1426 H 0.7702 0.63348 0.74913 0.0
H1427 H 0.74802 0.61371 0.76269 0.0
H1428 H 0.75049 0.61703 0.72706 0.0
H1429 H 0.74106 0.68768 0.79375 0.0
H1430 H 0.74107 0.66931 0.81483 0.0
H1431 H 0.7633 0.68741 0.79926 0.0
H1432 H 0.75494 0.62498 0.85202 0.0
H1433 H 0.8087 0.67132 0.81892 0.0
H1434 H 0.72544 0.61363 0.79607 0.0
H1435 H 0.72299 0.63206 0.81389 0.0
H1436 H 0.72453 0.61331 0.83205 0.0
H1437 H 0.79018 0.66967 0.75385 0.0
H1438 H 0.80997 0.68481 0.77663 0.0
H1439 H 0.78959 0.68856 0.77322 0.0
C1440 C 0.744 0.68636 0.60206 0.0
C1441 C 0.7374 0.66966 0.618 0.0
C1442 C 0.759 0.69139 0.5832 0.0
C1443 C 0.76772 0.67963 0.58074 0.0
C1444 C 0.76196 0.66358 0.59813 0.0
C1445 C 0.74679 0.65872 0.61636 0.0
C1446 C 0.76471 0.70857 0.5649 0.0
C1447 C 0.77106 0.65085 0.59653 0.0
C1448 C 0.78542 0.67456 0.51231 0.0
C1449 C 0.80571 0.68752 0.51431 0.0
C1450 C 0.773 0.67196 0.53378 0.0
C1451 C 0.78104 0.68245 0.55803 0.0
C1452 C 0.8016 0.695 0.56057 0.0
C1453 C 0.81373 0.6974 0.53861 0.0
C1454 C 0.75119 0.65825 0.53028 0.0
C1455 C 0.81069 0.70623 0.58622 0.0
H1456 H 0.7368 0.69487 0.60339 0.0
H1457 H 0.74199 0.64601 0.62908 0.0
H1458 H 0.78086 0.71838 0.56437 0.0
H1459 H 0.7598 0.70293 0.54425 0.0
H1460 H 0.75809 0.71744 0.57112 0.0
H1461 H 0.76667 0.64053 0.61356 0.0
H1462 H 0.76644 0.64201 0.5777 0.0
H1463 H 0.78726 0.66019 0.5962 0.0
H1464 H 0.77922 0.66679 0.49359 0.0
H1465 H 0.82939 0.70758 0.54009 0.0
H1466 H 0.74353 0.66652 0.53371 0.0
H1467 H 0.7456 0.64631 0.54525 0.0
H1468 H 0.7473 0.65135 0.51002 0.0
H1469 H 0.80568 0.7168 0.59032 0.0
H1470 H 0.82695 0.7146 0.58542 0.0
H1471 H 0.80589 0.69591 0.60325 0.0
C1472 C 0.31942 0.06576 0.61732 0.0
C1473 C 0.33133 0.05742 0.61618 0.0
C1474 C 0.32087 0.07926 0.59815 0.0
C1475 C 0.33428 0.08432 0.5768 0.0
C1476 C 0.34673 0.07636 0.57584 0.0
C1477 C 0.34528 0.06318 0.59576 0.0
C1478 C 0.30755 0.0876 0.60029 0.0
C1479 C 0.361 0.08113 0.55317 0.0
C1480 C 0.3187 0.09658 0.51193 0.0
C1481 C 0.33085 0.11725 0.51068 0.0
C1482 C 0.32 0.08583 0.53302 0.0
C1483 C 0.33348 0.09592 0.55399 0.0
C1484 C 0.34538 0.11687 0.55344 0.0
C1485 C 0.34396 0.12732 0.53171 0.0
C1486 C 0.30694 0.06356 0.5327 0.0
C1487 C 0.35968 0.12818 0.57568 0.0
H1488 H 0.3089 0.06176 0.63339 0.0
H1489 H 0.35462 0.05692 0.59486 0.0
H1490 H 0.31609 0.10391 0.59815 0.0
H1491 H 0.29663 0.0815 0.58387 0.0
H1492 H 0.29958 0.084 0.61962 0.0
H1493 H 0.3707 0.07506 0.55637 0.0
H1494 H 0.35281 0.07484 0.53423 0.0
H1495 H 0.3702 0.09737 0.55068 0.0
H1496 H 0.30819 0.0887 0.49608 0.0
H1497 H 0.3534 0.14325 0.53087 0.0
H1498 H 0.29711 0.05876 0.55032 0.0
H1499 H 0.31595 0.05657 0.53401 0.0
H1500 H 0.29779 0.05792 0.51437 0.0
H1501 H 0.35191 0.12471 0.59512 0.0
H1502 H 0.36746 0.14443 0.57273 0.0
H1503 H 0.37068 0.12358 0.57693 0.0
C1504 C 0.94885 0.28255 0.58321 0.0
C1505 C 0.95505 0.28095 0.60867 0.0
C1506 C 0.93917 0.26603 0.56618 0.0
C1507 C 0.93515 0.24732 0.57507 0.0
C1508 C 0.9419 0.2457 0.60048 0.0
C1509 C 0.95198 0.26264 0.61692 0.0
C1510 C 0.9327 0.26853 0.53893 0.0
C1511 C 0.93766 0.22599 0.61081 0.0
C1512 C 0.89176 0.20737 0.53673 0.0
C1513 C 0.90119 0.20373 0.51564 0.0
C1514 C 0.90259 0.22013 0.55795 0.0
C1515 C 0.92329 0.22958 0.5578 0.0
C1516 C 0.93262 0.22426 0.53808 0.0
C1517 C 0.92141 0.21122 0.51739 0.0
C1518 C 0.89203 0.22499 0.57905 0.0
C1519 C 0.95461 0.23392 0.53715 0.0
H1520 H 0.9513 0.29673 0.57677 0.0
H1521 H 0.95655 0.26133 0.63677 0.0
H1522 H 0.93808 0.26244 0.5232 0.0
H1523 H 0.91647 0.26018 0.53783 0.0
H1524 H 0.93809 0.28428 0.53442 0.0
H1525 H 0.94591 0.22759 0.62942 0.0
H1526 H 0.92178 0.21661 0.61508 0.0
H1527 H 0.94132 0.21806 0.59555 0.0
H1528 H 0.87614 0.2016 0.53556 0.0
H1529 H 0.9287 0.20809 0.50138 0.0
H1530 H 0.89415 0.23979 0.57515 0.0
H1531 H 0.89809 0.22556 0.59917 0.0
H1532 H 0.87607 0.21402 0.57915 0.0
H1533 H 0.96108 0.24924 0.52974 0.0
H1534 H 0.95927 0.22579 0.52364 0.0
H1535 H 0.96069 0.23487 0.55736 0.0
C1536 C 0.34127 0.27765 0.58552 0.0
C1537 C 0.33334 0.27579 0.6111 0.0
C1538 C 0.33488 0.26112 0.56866 0.0
C1539 C 0.32055 0.24215 0.57787 0.0
C1540 C 0.31211 0.24023 0.60346 0.0
C1541 C 0.31847 0.25716 0.61971 0.0
C1542 C 0.34389 0.26392 0.5412 0.0
C1543 C 0.29708 0.22025 0.61414 0.0
C1544 C 0.29828 0.20553 0.52072 0.0
C1545 C 0.31159 0.19892 0.51839 0.0
C1546 C 0.29995 0.21845 0.54144 0.0
C1547 C 0.31501 0.22452 0.56062 0.0
C1548 C 0.32688 0.21593 0.56025 0.0
C1549 C 0.32511 0.20328 0.53898 0.0
C1550 C 0.28698 0.22722 0.54103 0.0
C1551 C 0.34273 0.22158 0.58082 0.0
H1552 H 0.35272 0.29206 0.57884 0.0
H1553 H 0.31253 0.25567 0.63966 0.0
H1554 H 0.35228 0.25625 0.53987 0.0
H1555 H 0.33225 0.25727 0.52573 0.0
H1556 H 0.35391 0.27977 0.53649 0.0
H1557 H 0.29041 0.22149 0.63309 0.0
H1558 H 0.28527 0.21186 0.59928 0.0
H1559 H 0.30414 0.21151 0.61792 0.0
H1560 H 0.28753 0.20184 0.50509 0.0
H1561 H 0.3354 0.19818 0.53734 0.0
H1562 H 0.29552 0.24258 0.53353 0.0
H1563 H 0.28183 0.22794 0.56142 0.0
H1564 H 0.27405 0.21863 0.52783 0.0
H1565 H 0.35521 0.23661 0.57655 0.0
H1566 H 0.34819 0.21114 0.58066 0.0
H1567 H 0.33729 0.22199 0.60114 0.0
C1568 C 0.74934 0.05224 0.59031 0.0
C1569 C 0.74065 0.05636 0.61186 0.0
C1570 C 0.76022 0.06667 0.57111 0.0
C1571 C 0.7631 0.08592 0.57413 0.0
C1572 C 0.75437 0.09015 0.59593 0.0
C1573 C 0.74298 0.07521 0.61429 0.0
C1574 C 0.76875 0.06136 0.54768 0.0
C1575 C 0.75758 0.1106 0.60035 0.0
C1576 C 0.80721 0.12444 0.53526 0.0
C1577 C 0.79831 0.1257 0.51188 0.0
C1578 C 0.79585 0.1126 0.55662 0.0
C1579 C 0.77516 0.10145 0.55425 0.0
C1580 C 0.76612 0.10388 0.53158 0.0
C1581 C 0.77779 0.11627 0.51097 0.0
C1582 C 0.80604 0.11101 0.58094 0.0
C1583 C 0.74416 0.09216 0.52801 0.0
H1584 H 0.74759 0.03769 0.58846 0.0
H1585 H 0.73659 0.07856 0.63126 0.0
H1586 H 0.764 0.0647 0.52866 0.0
H1587 H 0.78496 0.07041 0.54837 0.0
H1588 H 0.76427 0.04548 0.54746 0.0
H1589 H 0.74954 0.11141 0.61807 0.0
H1590 H 0.77344 0.12138 0.60319 0.0
H1591 H 0.75284 0.11527 0.58254 0.0
H1592 H 0.82302 0.13164 0.53622 0.0
H1593 H 0.7708 0.11756 0.49323 0.0
H1594 H 0.80507 0.09646 0.58069 0.0
H1595 H 0.7988 0.11191 0.59949 0.0
H1596 H 0.82174 0.12282 0.58163 0.0
H1597 H 0.73922 0.07627 0.5252 0.0
H1598 H 0.73935 0.09705 0.51045 0.0
H1599 H 0.73673 0.09343 0.54607 0.0
C1600 C 0.95393 0.71049 0.62491 0.0
C1601 C 0.96197 0.69825 0.62384 0.0
C1602 C 0.94111 0.70957 0.60508 0.0
C1603 C 0.93639 0.69635 0.58317 0.0
C1604 C 0.94406 0.68359 0.58221 0.0
C1605 C 0.9566 0.68453 0.60273 0.0
C1606 C 0.93303 0.72318 0.60725 0.0
C1607 C 0.93957 0.66945 0.55902 0.0
C1608 C 0.89403 0.68649 0.53704 0.0
C1609 C 0.90402 0.69963 0.51618 0.0
C1610 C 0.90429 0.68524 0.5591 0.0
C1611 C 0.925 0.69734 0.56019 0.0
C1612 C 0.93502 0.711 0.53954 0.0
C1613 C 0.92443 0.71211 0.51806 0.0
C1614 C 0.89304 0.67074 0.58094 0.0
C1615 C 0.95704 0.72425 0.53984 0.0
H1616 H 0.95764 0.72086 0.64144 0.0
H1617 H 0.96265 0.67497 0.60183 0.0
H1618 H 0.93915 0.73421 0.59105 0.0
H1619 H 0.91689 0.71466 0.60476 0.0
H1620 H 0.93661 0.73123 0.62673 0.0
H1621 H 0.94563 0.65968 0.56199 0.0
H1622 H 0.92352 0.66011 0.55603 0.0
H1623 H 0.94586 0.67793 0.54042 0.0
H1624 H 0.87831 0.67671 0.53566 0.0
H1625 H 0.93224 0.72254 0.50224 0.0
H1626 H 0.89665 0.67846 0.60063 0.0
H1627 H 0.89736 0.65943 0.58178 0.0
H1628 H 0.87696 0.66311 0.57783 0.0
H1629 H 0.96173 0.7339 0.55793 0.0
H1630 H 0.96265 0.73377 0.52195 0.0
H1631 H 0.96398 0.71514 0.54072 0.0
C1632 C 0.9416 0.6911 0.74116 0.0
C1633 C 0.95047 0.67971 0.73836 0.0
C1634 C 0.92649 0.68612 0.75954 0.0
C1635 C 0.9202 0.66945 0.77592 0.0
C1636 C 0.92846 0.65734 0.7724 0.0
C1637 C 0.94343 0.66252 0.75342 0.0
C1638 C 0.91792 0.69928 0.7623 0.0
C1639 C 0.9222 0.6395 0.78961 0.0
C1640 C 0.90188 0.67289 0.84473 0.0
C1641 C 0.88155 0.66048 0.84206 0.0
C1642 C 0.91453 0.67576 0.82342 0.0
C1643 C 0.90668 0.66616 0.7986 0.0
C1644 C 0.8861 0.65416 0.79541 0.0
C1645 C 0.87374 0.65144 0.81724 0.0
C1646 C 0.93634 0.68885 0.82765 0.0
C1647 C 0.8772 0.64389 0.76915 0.0
H1648 H 0.9467 0.7042 0.72914 0.0
H1649 H 0.95019 0.65365 0.75122 0.0
H1650 H 0.9017 0.6903 0.76209 0.0
H1651 H 0.92241 0.70733 0.78174 0.0
H1652 H 0.92284 0.71032 0.74609 0.0
H1653 H 0.92861 0.63057 0.78274 0.0
H1654 H 0.92689 0.64439 0.81055 0.0
H1655 H 0.90601 0.62994 0.78966 0.0
H1656 H 0.90796 0.68006 0.86382 0.0
H1657 H 0.85805 0.6417 0.81518 0.0
H1658 H 0.94242 0.70137 0.81354 0.0
H1659 H 0.94368 0.68035 0.82346 0.0
H1660 H 0.94008 0.69495 0.84833 0.0
H1661 H 0.88232 0.65484 0.75285 0.0
H1662 H 0.86094 0.63569 0.76962 0.0
H1663 H 0.88206 0.63332 0.76417 0.0
C1664 C 0.34696 0.28176 0.74851 0.0
C1665 C 0.3603 0.28763 0.72727 0.0
C1666 C 0.34703 0.26966 0.76894 0.0
C1667 C 0.36054 0.26301 0.76787 0.0
C1668 C 0.37361 0.2684 0.74606 0.0
C1669 C 0.37344 0.28072 0.72622 0.0
C1670 C 0.333 0.26442 0.79203 0.0
C1671 C 0.38807 0.26145 0.74389 0.0
C1672 C 0.37623 0.25148 0.83337 0.0
C1673 C 0.36439 0.23079 0.83452 0.0
C1674 C 0.37513 0.26203 0.81181 0.0
C1675 C 0.36208 0.25169 0.79047 0.0
C1676 C 0.35075 0.23072 0.79083 0.0
C1677 C 0.35201 0.2205 0.8129 0.0
C1678 C 0.38756 0.28434 0.81227 0.0
C1679 C 0.33688 0.21913 0.76829 0.0
H1680 H 0.33672 0.28694 0.74947 0.0
H1681 H 0.38362 0.28485 0.7097 0.0
H1682 H 0.32425 0.24813 0.79438 0.0
H1683 H 0.34134 0.27078 0.81084 0.0
H1684 H 0.32285 0.27 0.78937 0.0
H1685 H 0.39627 0.26576 0.72474 0.0
H1686 H 0.39875 0.26784 0.76058 0.0
H1687 H 0.38037 0.24512 0.7456 0.0
H1688 H 0.386 0.25951 0.84989 0.0
H1689 H 0.34273 0.20455 0.81377 0.0
H1690 H 0.37802 0.29077 0.81183 0.0
H1691 H 0.397 0.28958 0.79426 0.0
H1692 H 0.39706 0.29014 0.83028 0.0
H1693 H 0.3251 0.22267 0.76736 0.0
H1694 H 0.33006 0.20291 0.77072 0.0
H1695 H 0.34472 0.22339 0.74889 0.0
C1696 C 0.76292 0.07816 0.73188 0.0
C1697 C 0.74247 0.06894 0.73015 0.0
C1698 C 0.77353 0.09258 0.75144 0.0
C1699 C 0.76344 0.09783 0.76993 0.0
C1700 C 0.74291 0.08939 0.76745 0.0
C1701 C 0.73264 0.07507 0.74739 0.0
C1702 C 0.79541 0.10137 0.75319 0.0
C1703 C 0.73168 0.09467 0.78686 0.0
C1704 C 0.78591 0.11306 0.83896 0.0
C1705 C 0.79448 0.13366 0.83852 0.0
C1706 C 0.77569 0.1013 0.8168 0.0
C1707 C 0.77409 0.11037 0.79352 0.0
C1708 C 0.78318 0.13122 0.79264 0.0
C1709 C 0.79332 0.14266 0.81521 0.0
C1710 C 0.76642 0.07913 0.81844 0.0
C1711 C 0.78188 0.14137 0.76807 0.0
H1712 H 0.77067 0.07376 0.71822 0.0
H1713 H 0.71685 0.06804 0.74604 0.0
H1714 H 0.80305 0.11772 0.7549 0.0
H1715 H 0.79896 0.09593 0.77138 0.0
H1716 H 0.80128 0.09738 0.73555 0.0
H1717 H 0.71624 0.08849 0.78054 0.0
H1718 H 0.73174 0.0888 0.80686 0.0
H1719 H 0.7388 0.11096 0.78899 0.0
H1720 H 0.78697 0.10611 0.85689 0.0
H1721 H 0.79977 0.15858 0.81496 0.0
H1722 H 0.77254 0.07381 0.80268 0.0
H1723 H 0.75043 0.07176 0.81487 0.0
H1724 H 0.76884 0.07442 0.83816 0.0
H1725 H 0.78758 0.13724 0.75042 0.0
H1726 H 0.79023 0.15774 0.77033 0.0
H1727 H 0.76635 0.1364 0.76388 0.0
C1728 C 0.06341 0.3605 0.05398 0.0
C1729 C 0.06338 0.36759 0.02846 0.0
C1730 C 0.08002 0.36081 0.06397 0.0
C1731 C 0.09697 0.36791 0.04781 0.0
C1732 C 0.09687 0.37465 0.02173 0.0
C1733 C 0.08018 0.37467 0.0125 0.0
C1734 C 0.07955 0.3539 0.09212 0.0
C1735 C 0.11441 0.38186 0.00363 0.0
C1736 C 0.14322 0.38656 0.08884 0.0
C1737 C 0.14436 0.36945 0.09099 0.0
C1738 C 0.12866 0.38669 0.07333 0.0
C1739 C 0.11504 0.36936 0.05915 0.0
C1740 C 0.1174 0.35267 0.05907 0.0
C1741 C 0.13195 0.35284 0.07524 0.0
C1742 C 0.12668 0.40474 0.07443 0.0
C1743 C 0.10357 0.33408 0.04368 0.0
H1744 H 0.05049 0.35503 0.06643 0.0
H1745 H 0.08017 0.37995 0.99263 0.0
H1746 H 0.0824 0.34152 0.09191 0.0
H1747 H 0.09128 0.3661 0.10423 0.0
H1748 H 0.06529 0.34887 0.10212 0.0
H1749 H 0.11159 0.38542 0.98335 0.0
H1750 H 0.12712 0.39529 0.0124 0.0
H1751 H 0.11856 0.37044 0.00175 0.0
H1752 H 0.15268 0.39934 0.10125 0.0
H1753 H 0.1326 0.33951 0.07713 0.0
H1754 H 0.11357 0.40141 0.08639 0.0
H1755 H 0.12458 0.40879 0.05413 0.0
H1756 H 0.13967 0.4177 0.08369 0.0
H1757 H 0.08939 0.32605 0.05438 0.0
H1758 H 0.10945 0.32405 0.04147 0.0
H1759 H 0.10064 0.33769 0.02354 0.0
C1760 C 0.66847 0.71171 0.05294 0.0
C1761 C 0.66246 0.7041 0.02704 0.0
C1762 C 0.66822 0.72861 0.06167 0.0
C1763 C 0.66228 0.73839 0.04384 0.0
C1764 C 0.65689 0.73115 0.01736 0.0
C1765 C 0.6568 0.71394 0.00939 0.0
C1766 C 0.67377 0.73565 0.09025 0.0
C1767 C 0.65094 0.74141 0.99759 0.0
C1768 C 0.64305 0.76751 0.07985 0.0
C1769 C 0.66019 0.78599 0.0829 0.0
C1770 C 0.64315 0.75215 0.06548 0.0
C1771 C 0.66077 0.75553 0.05356 0.0
C1772 C 0.67752 0.77484 0.05408 0.0
C1773 C 0.67709 0.78984 0.06905 0.0
C1774 C 0.62499 0.7318 0.06569 0.0
C1775 C 0.69645 0.7792 0.04104 0.0
H1776 H 0.67278 0.70409 0.06664 0.0
H1777 H 0.6523 0.70819 0.98924 0.0
H1778 H 0.68609 0.75121 0.09073 0.0
H1779 H 0.66123 0.73526 0.10066 0.0
H1780 H 0.67813 0.72647 0.10152 0.0
H1781 H 0.64864 0.73481 0.9772 0.0
H1782 H 0.63717 0.74045 0.00425 0.0
H1783 H 0.66232 0.75734 0.99662 0.0
H1784 H 0.63013 0.76444 0.09114 0.0
H1785 H 0.69045 0.80402 0.07192 0.0
H1786 H 0.62737 0.72215 0.07914 0.0
H1787 H 0.62189 0.72493 0.04546 0.0
H1788 H 0.61193 0.73216 0.07279 0.0
H1789 H 0.70363 0.77319 0.05348 0.0
H1790 H 0.70673 0.79535 0.03886 0.0
H1791 H 0.69367 0.77198 0.02105 0.0
C1792 C 0.30966 0.96622 0.05978 0.0
C1793 C 0.31583 0.9681 0.03316 0.0
C1794 C 0.29251 0.94907 0.06837 0.0
C1795 C 0.28091 0.93374 0.0497 0.0
C1796 C 0.28662 0.93611 0.02252 0.0
C1797 C 0.30416 0.95306 0.01469 0.0
C1798 C 0.28728 0.94699 0.09767 0.0
C1799 C 0.27443 0.92052 0.00179 0.0
C1800 C 0.25196 0.88238 0.07931 0.0
C1801 C 0.23399 0.88081 0.08535 0.0
C1802 C 0.26703 0.89913 0.06666 0.0
C1803 C 0.26393 0.91456 0.05914 0.0
C1804 C 0.24513 0.91215 0.06276 0.0
C1805 C 0.23041 0.89538 0.07617 0.0
C1806 C 0.28682 0.90105 0.06365 0.0
C1807 C 0.24096 0.92789 0.05419 0.0
H1808 H 0.31867 0.97777 0.07411 0.0
H1809 H 0.30878 0.95455 0.994 0.0
H1810 H 0.27223 0.94418 0.10035 0.0
H1811 H 0.2875 0.93408 0.10584 0.0
H1812 H 0.29754 0.96037 0.10953 0.0
H1813 H 0.27958 0.92561 0.98114 0.0
H1814 H 0.27504 0.90699 0.00528 0.0
H1815 H 0.25886 0.91635 0.00342 0.0
H1816 H 0.25484 0.87127 0.08679 0.0
H1817 H 0.21669 0.89441 0.08122 0.0
H1818 H 0.29755 0.91316 0.07691 0.0
H1819 H 0.29221 0.90497 0.04287 0.0
H1820 H 0.28647 0.88721 0.06887 0.0
H1821 H 0.24805 0.94063 0.06833 0.0
H1822 H 0.225 0.92232 0.05385 0.0
H1823 H 0.2471 0.93339 0.03405 0.0
C1824 C 0.37874 0.07468 0.0042 0.0
C1825 C 0.36937 0.05737 0.98838 0.0
C1826 C 0.37975 0.09224 0.99601 0.0
C1827 C 0.37157 0.09267 0.97115 0.0
C1828 C 0.36216 0.07524 0.9551 0.0
C1829 C 0.36102 0.05782 0.96401 0.0
C1830 C 0.38956 0.11032 0.01396 0.0
C1831 C 0.35349 0.07502 0.92824 0.0
C1832 C 0.35753 0.12996 0.94963 0.0
C1833 C 0.37259 0.14141 0.93161 0.0
C1834 C 0.3578 0.11507 0.96461 0.0
C1835 C 0.37336 0.11139 0.96112 0.0
C1836 C 0.38947 0.12422 0.94483 0.0
C1837 C 0.38892 0.13911 0.93044 0.0
C1838 C 0.34054 0.10211 0.98219 0.0
C1839 C 0.40632 0.1209 0.94026 0.0
H1840 H 0.38509 0.07443 0.02318 0.0
H1841 H 0.35378 0.04456 0.95163 0.0
H1842 H 0.40241 0.12249 0.00369 0.0
H1843 H 0.3793 0.11559 0.01836 0.0
H1844 H 0.39451 0.1074 0.03314 0.0
H1845 H 0.34681 0.06034 0.91809 0.0
H1846 H 0.34209 0.07903 0.93071 0.0
H1847 H 0.36501 0.08622 0.91507 0.0
H1848 H 0.34469 0.13139 0.9502 0.0
H1849 H 0.4004 0.14769 0.91612 0.0
H1850 H 0.34546 0.09905 0.00126 0.0
H1851 H 0.33103 0.08771 0.9719 0.0
H1852 H 0.33163 0.10896 0.9867 0.0
H1853 H 0.41153 0.11834 0.95942 0.0
H1854 H 0.41883 0.13361 0.93014 0.0
H1855 H 0.40132 0.10749 0.92755 0.0
C1856 C 0.97357 0.30878 0.95479 0.0
C1857 C 0.97632 0.31532 0.9814 0.0
C1858 C 0.95641 0.29126 0.9469 0.0
C1859 C 0.94205 0.27974 0.96629 0.0
C1860 C 0.94537 0.28579 0.99343 0.0
C1861 C 0.96228 0.3037 0.00057 0.0
C1862 C 0.95324 0.28558 0.91763 0.0
C1863 C 0.93082 0.27364 0.01483 0.0
C1864 C 0.89059 0.25001 0.93835 0.0
C1865 C 0.88936 0.23212 0.93144 0.0
C1866 C 0.90726 0.2653 0.95108 0.0
C1867 C 0.92288 0.26242 0.95768 0.0
C1868 C 0.92073 0.24357 0.95344 0.0
C1869 C 0.90405 0.22867 0.93996 0.0
C1870 C 0.90895 0.28517 0.95485 0.0
C1871 C 0.93671 0.23965 0.96107 0.0
H1872 H 0.98439 0.31781 0.93998 0.0
H1873 H 0.96452 0.30866 0.02126 0.0
H1874 H 0.95055 0.27041 0.91469 0.0
H1875 H 0.94006 0.28551 0.91037 0.0
H1876 H 0.96595 0.29588 0.90517 0.0
H1877 H 0.93669 0.27906 0.03525 0.0
H1878 H 0.91727 0.27418 0.01242 0.0
H1879 H 0.92668 0.25791 0.01289 0.0
H1880 H 0.8794 0.25278 0.93119 0.0
H1881 H 0.9033 0.21499 0.93412 0.0
H1882 H 0.92023 0.29598 0.94105 0.0
H1883 H 0.91369 0.29088 0.97549 0.0
H1884 H 0.89491 0.28449 0.9508 0.0
H1885 H 0.94881 0.24665 0.94638 0.0
H1886 H 0.93132 0.22355 0.96138 0.0
H1887 H 0.94282 0.24617 0.98101 0.0
C1888 C 0.70752 0.65692 0.96213 0.0
C1889 C 0.6994 0.65129 0.98769 0.0
C1890 C 0.72414 0.65613 0.95462 0.0
C1891 C 0.73327 0.6501 0.97337 0.0
C1892 C 0.72537 0.64479 -0.00056 0.0
C1893 C 0.70835 0.64517 0.00617 0.0
C1894 C 0.73172 0.66146 0.92638 0.0
C1895 C 0.73495 0.63881 0.0202 0.0
C1896 C 0.76265 0.63071 0.93899 0.0
C1897 C 0.78087 0.64812 0.93606 0.0
C1898 C 0.74735 0.63073 0.95303 0.0
C1899 C 0.75048 0.64854 0.9649 0.0
C1900 C 0.76955 0.66558 0.96466 0.0
C1901 C 0.78452 0.66525 0.94991 0.0
C1902 C 0.72729 0.61227 0.95231 0.0
C1903 C 0.77371 0.68471 0.97776 0.0
H1904 H 0.70065 0.66162 0.94776 0.0
H1905 H 0.70225 0.64102 0.02608 0.0
H1906 H 0.74702 0.67412 0.92664 0.0
H1907 H 0.73184 0.64881 0.91654 0.0
H1908 H 0.72274 0.66548 0.9141 0.0
H1909 H 0.72757 0.63604 0.03992 0.0
H1910 H 0.73469 0.6252 0.01355 0.0
H1911 H 0.75054 0.65058 0.02264 0.0
H1912 H 0.75975 0.61756 0.92786 0.0
H1913 H 0.79848 0.6788 0.94729 0.0
H1914 H 0.71787 0.61436 0.9381 0.0
H1915 H 0.7202 0.60938 0.9722 0.0
H1916 H 0.72787 0.59906 0.94578 0.0
H1917 H 0.76794 0.69197 0.96499 0.0
H1918 H 0.78966 0.69509 0.98062 0.0
H1919 H 0.7663 0.68192 0.99744 0.0
C1920 C 0.95499 0.65554 0.97036 0.0
C1921 C 0.95607 0.64668 0.9939 0.0
C1922 C 0.93732 0.65361 0.96183 0.0
C1923 C 0.92015 0.64279 0.97739 0.0
C1924 C 0.92119 0.63418 0.00156 0.0
C1925 C 0.93909 0.63606 0.00941 0.0
C1926 C 0.93697 0.66285 0.93573 0.0
C1927 C 0.90335 0.62286 0.01895 0.0
C1928 C 0.8818 0.65482 0.95564 0.0
C1929 C 0.8718 0.64022 0.93596 0.0
C1930 C 0.89636 0.65476 0.97148 0.0
C1931 C 0.90115 0.6399 0.96725 0.0
C1932 C 0.88962 0.62404 0.94933 0.0
C1933 C 0.87507 0.62437 0.934 0.0
C1934 C 0.90795 0.67175 0.9907 0.0
C1935 C 0.89414 0.60791 0.94393 0.0
H1936 H 0.96797 0.66373 0.95816 0.0
H1937 H 0.9398 0.62924 0.02769 0.0
H1938 H 0.92649 0.65124 0.92169 0.0
H1939 H 0.93188 0.67343 0.93915 0.0
H1940 H 0.95157 0.67084 0.92603 0.0
H1941 H 0.9068 0.61812 0.03792 0.0
H1942 H 0.8969 0.6321 0.02374 0.0
H1943 H 0.89204 0.60953 0.00804 0.0
H1944 H 0.87957 0.66727 0.95691 0.0
H1945 H 0.86757 0.61324 0.9185 0.0
H1946 H 0.92217 0.68248 0.98146 0.0
H1947 H 0.91112 0.6665 0.00938 0.0
H1948 H 0.90009 0.67962 0.9958 0.0
H1949 H 0.90765 0.61393 0.9317 0.0
H1950 H 0.88208 0.59516 0.93292 0.0
H1951 H 0.89685 0.60253 0.96283 0.0
C1952 C 0.35902 0.3006 0.00638 0.0
C1953 C 0.35448 0.31116 0.98838 0.0
C1954 C 0.35913 0.28352 -0.00179 0.0
C1955 C 0.35519 0.27718 0.97119 0.0
C1956 C 0.35039 0.2877 0.95299 0.0
C1957 C 0.34983 0.3044 0.96191 0.0
C1958 C 0.36379 0.27246 0.01837 0.0
C1959 C 0.3465 0.28171 0.92385 0.0
C1960 C 0.37705 0.24963 0.93741 0.0
C1961 C 0.36032 0.23114 0.93225 0.0
C1962 C 0.37581 0.26442 0.95159 0.0
C1963 C 0.35741 0.26047 0.9613 0.0
C1964 C 0.34086 0.24111 0.9586 0.0
C1965 C 0.34246 0.22669 0.94376 0.0
C1966 C 0.3938 0.28485 0.95364 0.0
C1967 C 0.32112 0.2361 0.96935 0.0
H1968 H 0.36246 0.30568 0.02696 0.0
H1969 H 0.34639 0.31257 0.94793 0.0
H1970 H 0.35246 0.25649 0.01772 0.0
H1971 H 0.37799 0.27375 0.01336 0.0
H1972 H 0.36469 0.27817 0.03906 0.0
H1973 H 0.34278 0.2913 0.91236 0.0
H1974 H 0.35962 0.28251 0.91471 0.0
H1975 H 0.33426 0.26618 0.92187 0.0
H1976 H 0.39076 0.25317 0.92799 0.0
H1977 H 0.32945 0.21253 0.9393 0.0
H1978 H 0.3957 0.29082 0.9743 0.0
H1979 H 0.39204 0.295 0.94038 0.0
H1980 H 0.40731 0.28495 0.94767 0.0
H1981 H 0.32254 0.24253 0.98966 0.0
H1982 H 0.31083 0.21986 0.97015 0.0
H1983 H 0.31467 0.24252 0.95622 0.0
C1984 C 0.7144 0.05689 0.96875 0.0
C1985 C 0.70629 0.05625 0.99391 0.0
C1986 C 0.73069 0.07439 0.95937 0.0
C1987 C 0.73935 0.09171 0.97569 0.0
C1988 C 0.73141 0.09107 0.00132 0.0
C1989 C 0.71489 0.07341 0.01004 0.0
C1990 C 0.73848 0.07441 0.93175 0.0
C1991 C 0.74033 0.10906 0.01947 0.0
C1992 C 0.79061 0.12936 0.95185 0.0
C1993 C 0.78664 0.14076 0.9347 0.0
C1994 C 0.77562 0.11433 0.96729 0.0
C1995 C 0.75622 0.11051 0.96521 0.0
C1996 C 0.75262 0.12329 0.94984 0.0
C1997 C 0.7679 0.13828 0.93486 0.0
C1998 C 0.78022 0.10134 0.98377 0.0
C1999 C 0.73224 0.11983 0.94687 0.0
H2000 H 0.70783 0.04373 0.95615 0.0
H2001 H 0.70877 0.07301 0.02959 0.0
H2002 H 0.73782 0.08556 0.91923 0.0
H2003 H 0.75406 0.07863 0.933 0.0
H2004 H 0.73012 0.05976 0.92157 0.0
H2005 H 0.73294 0.10596 0.03921 0.0
H2006 H 0.75609 0.11449 0.02266 0.0
H2007 H 0.73939 0.12117 0.00996 0.0
H2008 H 0.80497 0.13096 0.95134 0.0
H2009 H 0.76473 0.14683 0.92119 0.0
H2010 H 0.77488 0.087 0.97317 0.0
H2011 H 0.77267 0.09814 0.00337 0.0
H2012 H 0.7962 0.10824 0.98724 0.0
H2013 H 0.72338 0.1065 0.93415 0.0
H2014 H 0.73233 0.13257 0.93748 0.0
H2015 H 0.72487 0.11707 0.96656 0.0
C2016 C 0.66213 0.9614 0.06013 0.0
C2017 C 0.65845 0.96375 0.03349 0.0
C2018 C 0.66167 0.94421 0.06846 0.0
C2019 C 0.65813 0.92916 0.04953 0.0
C2020 C 0.65487 0.93167 0.02241 0.0
C2021 C 0.6547 0.94878 0.01479 0.0
C2022 C 0.66461 0.94202 0.09773 0.0
C2023 C 0.65171 0.91636 0.00145 0.0
C2024 C 0.67323 0.89422 0.07766 0.0
C2025 C 0.65545 0.87934 0.08826 0.0
C2026 C 0.67411 0.90972 0.06271 0.0
C2027 C 0.65688 0.91052 0.0588 0.0
C2028 C 0.63869 0.89457 0.06757 0.0
C2029 C 0.63821 0.87916 0.082 0.0
C2030 C 0.69375 0.9261 0.05313 0.0
C2031 C 0.61995 0.89476 0.06433 0.0
H2032 H 0.66495 0.97289 0.07468 0.0
H2033 H 0.65208 0.95064 0.99411 0.0
H2034 H 0.65172 0.92841 0.10555 0.0
H2035 H 0.67757 0.94045 0.10034 0.0
H2036 H 0.66675 0.95485 0.10998 0.0
H2037 H 0.65034 0.9209 0.98106 0.0
H2038 H 0.66412 0.91371 0.00167 0.0
H2039 H 0.63825 0.90209 0.00599 0.0
H2040 H 0.68662 0.89461 0.08283 0.0
H2041 H 0.62448 0.86782 0.09054 0.0
H2042 H 0.69903 0.93915 0.06662 0.0
H2043 H 0.69255 0.93074 0.03275 0.0
H2044 H 0.70485 0.92155 0.05294 0.0
H2045 H 0.62021 0.9061 0.07801 0.0
H2046 H 0.60683 0.88022 0.06902 0.0
H2047 H 0.61853 0.89877 0.04368 0.0
C2048 C 0.06402 0.70861 0.00893 0.0
C2049 C 0.04916 0.69901 0.02803 0.0
C2050 C 0.08163 0.72614 0.0153 0.0
C2051 C 0.08468 0.73403 0.04159 0.0
C2052 C 0.06973 0.72433 0.06099 0.0
C2053 C 0.05207 0.70708 0.05388 0.0
C2054 C 0.09697 0.73623 0.99392 0.0
C2055 C 0.0725 0.73202 0.08942 0.0
C2056 C 0.13474 0.76637 0.07297 0.0
C2057 C 0.13526 0.78433 0.07615 0.0
C2058 C 0.119 0.75014 0.0599 0.0
C2059 C 0.10362 0.75209 0.04932 0.0
C2060 C 0.10536 0.77092 0.04962 0.0
C2061 C 0.12109 0.7868 0.06332 0.0
C2062 C 0.11776 0.73039 0.06029 0.0
C2063 C 0.08961 0.77383 0.03794 0.0
H2064 H 0.06179 0.70251 0.98883 0.0
H2065 H 0.04068 0.69969 0.06873 0.0
H2066 H 0.10071 0.75179 0.99192 0.0
H2067 H 0.11059 0.7366 -0.00034 0.0
H2068 H 0.09204 0.72866 0.97417 0.0
H2069 H 0.05962 0.7226 0.10219 0.0
H2070 H 0.08558 0.73273 0.09832 0.0
H2071 H 0.0751 0.74726 0.08972 0.0
H2072 H 0.14542 0.76431 0.08348 0.0
H2073 H 0.12123 0.80053 0.06627 0.0
H2074 H 0.11292 0.72273 0.04064 0.0
H2075 H 0.10675 0.72083 0.07534 0.0
H2076 H 0.13201 0.73191 0.06555 0.0
H2077 H 0.08454 0.76601 0.0184 0.0
H2078 H 0.0948 0.78974 0.03518 0.0
H2079 H 0.07683 0.76753 0.0516 0.0
C2080 C 0.30698 0.35514 0.05299 0.0
C2081 C 0.31705 0.36416 0.02942 0.0
C2082 C 0.29137 0.35715 0.06206 0.0
C2083 C 0.28539 0.36824 0.047 0.0
C2084 C 0.2952 0.37704 0.02285 0.0
C2085 C 0.31103 0.37504 0.01445 0.0
C2086 C 0.28152 0.34768 0.08811 0.0
C2087 C 0.28907 0.3887 0.00606 0.0
C2088 C 0.23492 0.35637 0.06929 0.0
C2089 C 0.23982 0.37071 0.08938 0.0
C2090 C 0.24954 0.35648 0.05318 0.0
C2091 C 0.26945 0.37116 0.05758 0.0
C2092 C 0.27411 0.38684 0.07592 0.0
C2093 C 0.25922 0.38643 0.09156 0.0
C2094 C 0.24384 0.3397 0.03352 0.0
C2095 C 0.29506 0.40278 0.0814 0.0
H2096 H 0.31154 0.34674 0.06473 0.0
H2097 H 0.31867 0.38196 0.99612 0.0
H2098 H 0.28296 0.3592 0.10251 0.0
H2099 H 0.26565 0.33727 0.08478 0.0
H2100 H 0.28785 0.33946 0.09733 0.0
H2101 H 0.29742 0.39365 0.98706 0.0
H2102 H 0.27322 0.3796 0.00133 0.0
H2103 H 0.29135 0.4019 0.01742 0.0
H2104 H 0.21998 0.34403 0.0679 0.0
H2105 H 0.26302 0.39735 0.10739 0.0
H2106 H 0.24699 0.32879 0.04234 0.0
H2107 H 0.25247 0.34512 0.01484 0.0
H2108 H 0.228 0.33198 0.02851 0.0
H2109 H 0.30227 0.39652 0.09331 0.0
H2110 H 0.29603 0.41546 0.09277 0.0
H2111 H 0.30337 0.40832 0.06251 0.0
C2112 C 0.73042 0.69157 0.38439 0.0
C2113 C 0.72982 0.70038 0.36052 0.0
C2114 C 0.74791 0.69342 0.39368 0.0
C2115 C 0.76535 0.70411 0.37859 0.0
C2116 C 0.7648 0.71274 0.35419 0.0
C2117 C 0.74709 0.71093 0.34557 0.0
C2118 C 0.74777 0.68418 0.42 0.0
C2119 C 0.78294 0.72395 0.33729 0.0
C2120 C 0.81046 0.72253 0.42217 0.0
C2121 C 0.81385 0.70677 0.42016 0.0
C2122 C 0.79573 0.7227 0.40705 0.0
C2123 C 0.78414 0.70676 0.38928 0.0
C2124 C 0.78892 0.69188 0.38513 0.0
C2125 C 0.80366 0.692 0.40076 0.0
C2126 C 0.79122 0.73885 0.41235 0.0
C2127 C 0.77724 0.6748 0.36608 0.0
H2128 H 0.71719 0.68344 0.39614 0.0
H2129 H 0.74676 0.71769 0.32702 0.0
H2130 H 0.75273 0.67347 0.417 0.0
H2131 H 0.75813 0.69576 0.43416 0.0
H2132 H 0.73302 0.67635 0.42931 0.0
H2133 H 0.77994 0.72901 0.31827 0.0
H2134 H 0.79428 0.73705 0.34855 0.0
H2135 H 0.78914 0.71446 0.3326 0.0
H2136 H 0.81808 0.73378 0.4375 0.0
H2137 H 0.80595 0.67959 0.3995 0.0
H2138 H 0.77758 0.73281 0.42431 0.0
H2139 H 0.78873 0.74433 0.39338 0.0
H2140 H 0.80318 0.75154 0.42357 0.0
H2141 H 0.76291 0.6643 0.37525 0.0
H2142 H 0.78491 0.66668 0.36134 0.0
H2143 H 0.77428 0.68002 0.3472 0.0
C2144 C 0.33232 0.04045 0.38386 0.0
C2145 C 0.32631 0.03246 0.35811 0.0
C2146 C 0.33135 0.05698 0.39242 0.0
C2147 C 0.32454 0.066 0.37462 0.0
C2148 C 0.31885 0.05824 0.34839 0.0
C2149 C 0.31962 0.04144 0.34053 0.0
C2150 C 0.33729 0.06457 0.42073 0.0
C2151 C 0.31186 0.06762 0.3287 0.0
C2152 C 0.30565 0.09508 0.41161 0.0
C2153 C 0.3227 0.11374 0.41374 0.0
C2154 C 0.30553 0.07966 0.39705 0.0
C2155 C 0.32286 0.08312 0.38408 0.0
C2156 C 0.33941 0.10256 0.38369 0.0
C2157 C 0.3392 0.11764 0.39878 0.0
C2158 C 0.28758 0.0592 0.39822 0.0
C2159 C 0.35803 0.10701 0.36963 0.0
H2160 H 0.33744 0.03353 0.39755 0.0
H2161 H 0.31505 0.0354 0.32052 0.0
H2162 H 0.34939 0.08024 0.4206 0.0
H2163 H 0.32479 0.06406 0.43145 0.0
H2164 H 0.34214 0.05584 0.4321 0.0
H2165 H 0.30884 0.06039 0.30867 0.0
H2166 H 0.29828 0.0667 0.3362 0.0
H2167 H 0.32301 0.08354 0.3266 0.0
H2168 H 0.29306 0.09196 0.42372 0.0
H2169 H 0.35252 0.13194 0.40091 0.0
H2170 H 0.29039 0.05001 0.41197 0.0
H2171 H 0.2842 0.05188 0.37828 0.0
H2172 H 0.27455 0.05953 0.40554 0.0
H2173 H 0.36575 0.10136 0.38167 0.0
H2174 H 0.36806 0.12315 0.36689 0.0
H2175 H 0.35478 0.0995 0.3498 0.0
C2176 C 0.97174 0.28398 0.34617 0.0
C2177 C 0.98288 0.29928 0.3646 0.0
C2178 C 0.9545 0.26666 0.35401 0.0
C2179 C 0.94856 0.26429 0.38111 0.0
C2180 C 0.95975 0.27978 0.39976 0.0
C2181 C 0.97658 0.29718 0.39119 0.0
C2182 C 0.94275 0.25082 0.33336 0.0
C2183 C 0.95427 0.27774 0.42897 0.0
C2184 C 0.89814 0.22659 0.40811 0.0
C2185 C 0.90183 0.21244 0.41863 0.0
C2186 C 0.91276 0.24286 0.39383 0.0
C2187 C 0.93154 0.24517 0.39057 0.0
C2188 C 0.93468 0.22999 0.39927 0.0
C2189 C 0.91973 0.21375 0.4129 0.0
C2190 C 0.90857 0.25836 0.38416 0.0
C2191 C 0.95445 0.23182 0.39664 0.0
H2192 H 0.97643 0.28562 0.3255 0.0
H2193 H 0.98515 0.30893 0.40551 0.0
H2194 H 0.94319 0.2373 0.33773 0.0
H2195 H 0.92718 0.24673 0.33414 0.0
H2196 H 0.94835 0.25561 0.31278 0.0
H2197 H 0.96442 0.29113 0.44089 0.0
H2198 H 0.93921 0.27498 0.43131 0.0
H2199 H 0.95438 0.26484 0.43737 0.0
H2200 H 0.88447 0.22581 0.41288 0.0
H2201 H 0.92268 0.20296 0.42138 0.0
H2202 H 0.91475 0.2634 0.36391 0.0
H2203 H 0.91561 0.27141 0.39779 0.0
H2204 H 0.89261 0.25276 0.38361 0.0
H2205 H 0.9601 0.23582 0.37598 0.0
H2206 H 0.95394 0.21792 0.40193 0.0
H2207 H 0.96505 0.24384 0.41013 0.0
C2208 C 0.04505 0.40914 0.34112 0.0
C2209 C 0.03483 0.39174 0.32565 0.0
C2210 C 0.04663 0.42697 0.33283 0.0
C2211 C 0.03816 0.42753 0.30823 0.0
C2212 C 0.0278 0.40995 0.29267 0.0
C2213 C 0.02613 0.39234 0.30166 0.0
C2214 C 0.05743 0.44524 0.35026 0.0
C2215 C 0.01877 0.40978 0.26612 0.0
C2216 C 0.02567 0.46548 0.28481 0.0
C2217 C 0.04031 0.47561 0.26569 0.0
C2218 C 0.02579 0.45102 0.30099 0.0
C2219 C 0.04076 0.44646 0.29766 0.0
C2220 C 0.05659 0.45813 0.28029 0.0
C2221 C 0.0562 0.4726 0.26465 0.0
C2222 C 1.00884 0.43931 0.31967 0.0
C2223 C 0.07283 0.45385 0.27582 0.0
H2224 H 0.05171 0.4088 0.35976 0.0
H2225 H 0.01826 0.37903 0.28949 0.0
H2226 H 0.07056 0.45673 0.33963 0.0
H2227 H 0.04797 0.45149 0.3545 0.0
H2228 H 0.06214 0.44215 0.36952 0.0
H2229 H 0.01121 0.3949 0.25643 0.0
H2230 H 1.00803 0.41463 0.26889 0.0
H2231 H 0.03028 0.42035 0.25236 0.0
H2232 H 0.01321 0.46753 0.28542 0.0
H2233 H 0.06742 0.48024 0.24964 0.0
H2234 H 0.01397 0.43645 0.33871 0.0
H2235 H 0.99848 0.42478 0.31028 0.0
H2236 H 1.00079 0.44708 0.32414 0.0
H2237 H 0.0781 0.4515 0.29506 0.0
H2238 H 0.08543 0.466 0.26506 0.0
H2239 H 0.06715 0.44006 0.26372 0.0
C2240 C 0.62466 0.63511 0.33798 0.0
C2241 C 0.63937 0.6458 0.31907 0.0
C2242 C 0.60742 0.61745 0.33095 0.0
C2243 C 0.60452 0.61057 0.30416 0.0
C2244 C 0.61944 0.62121 0.28501 0.0
C2245 C 0.63683 0.63855 0.2928 0.0
C2246 C 0.59219 0.6063 0.35211 0.0
C2247 C 0.61679 0.61459 0.25609 0.0
C2248 C 0.56733 0.55854 0.28011 0.0
C2249 C 0.55295 0.56152 0.26904 0.0
C2250 C 0.58353 0.57397 0.29371 0.0
C2251 C 0.58553 0.59289 0.29566 0.0
C2252 C 0.57008 0.59536 0.2867 0.0
C2253 C 0.55387 0.57955 0.27375 0.0
C2254 C 0.59933 0.5705 0.30373 0.0
C2255 C 0.5716 0.61525 0.28806 0.0
H2256 H 0.62665 0.64057 0.35842 0.0
H2257 H 0.64813 0.64681 0.27813 0.0
H2258 H 0.57869 0.60655 0.34764 0.0
H2259 H 0.58816 0.59057 0.35211 0.0
H2260 H 0.59736 0.6127 0.37242 0.0
H2261 H 0.62976 0.62444 0.24371 0.0
H2262 H 0.61408 0.59933 0.25453 0.0
H2263 H 0.6038 0.61432 0.24765 0.0
H2264 H 0.56687 0.54477 0.27593 0.0
H2265 H 0.54301 0.58201 0.26457 0.0
H2266 H 0.60478 0.57767 0.32357 0.0
H2267 H 0.61188 0.57714 0.2897 0.0
H2268 H 0.59403 0.55448 0.30532 0.0
H2269 H 0.57626 0.622 0.30826 0.0
H2270 H 0.55751 0.61419 0.28307 0.0
H2271 H 0.58288 0.62538 0.27369 0.0
C2272 C 0.37759 0.9897 0.2996 0.0
C2273 C 0.36687 0.98059 0.32274 0.0
C2274 C 0.39346 0.98777 0.2916 0.0
C2275 C 0.39905 0.97665 0.3073 0.0
C2276 C 0.38858 0.96774 0.33104 0.0
C2277 C 0.3725 0.96967 0.33838 0.0
C2278 C 0.404 0.99736 0.26595 0.0
C2279 C 0.39426 0.95604 0.34849 0.0
C2280 C 0.42656 0.95915 0.26436 0.0
C2281 C 0.44582 0.97506 0.26716 0.0
C2282 C 0.41124 0.95838 0.2794 0.0
C2283 C 0.41533 0.97387 0.29779 0.0
C2284 C 0.43509 0.98868 0.30294 0.0
C2285 C 0.45013 0.98917 0.28741 0.0
C2286 C 0.39049 0.94231 0.27312 0.0
C2287 C 0.44019 1.00527 0.32271 0.0
H2288 H 0.37336 0.99812 0.28734 0.0
H2289 H 0.36435 0.96266 0.35636 0.0
H2290 H 0.41976 0.00782 0.27003 0.0
H2291 H 0.403 0.98593 0.25176 0.0
H2292 H 0.39788 0.00556 0.2561 0.0
H2293 H 0.38544 0.95104 0.36711 0.0
H2294 H 0.39224 0.94285 0.33734 0.0
H2295 H 0.40998 0.96511 0.35393 0.0
H2296 H 0.4232 0.9484 0.24841 0.0
H2297 H 0.46497 1.00165 0.2893 0.0
H2298 H 0.3835 0.94847 0.26056 0.0
H2299 H 0.38172 0.93669 0.29164 0.0
H2300 H 0.38994 0.9297 0.26207 0.0
H2301 H 0.43721 0.01621 0.31358 0.0
H2302 H 0.45589 0.01301 0.32848 0.0
H2303 H 0.43109 0.99965 0.34097 0.0
C2304 C 0.62478 0.99047 0.30254 0.0
C2305 C 0.62542 0.98351 0.32792 0.0
C2306 C 0.60787 0.98991 0.29331 0.0
C2307 C 0.59123 0.98268 0.31011 0.0
C2308 C 0.59199 0.97622 0.33613 0.0
C2309 C 0.60898 0.97644 0.34459 0.0
C2310 C 0.60765 0.99654 0.2652 0.0
C2311 C 0.57481 0.96892 0.3549 0.0
C2312 C 0.55528 0.99656 0.28315 0.0
C2313 C 0.54301 0.97978 0.26759 0.0
C2314 C 0.57003 0.99712 0.29929 0.0
C2315 C 0.57276 0.98067 0.29936 0.0
C2316 C 0.55923 0.96313 0.28549 0.0
C2317 C 0.54446 0.96286 0.27001 0.0
C2318 C 0.58374 0.01593 0.31438 0.0
C2319 C 0.56158 0.9453 0.28454 0.0
H2320 H 0.63738 0.99589 0.28949 0.0
H2321 H 0.60944 0.97121 0.36433 0.0
H2322 H 0.59589 0.9841 0.25343 0.0
H2323 H 0.60442 0.00865 0.26557 0.0
H2324 H 0.6218 1.00183 0.25472 0.0
H2325 H 0.57828 0.96604 0.3752 0.0
H2326 H 0.57013 0.97994 0.35655 0.0
H2327 H 0.56221 0.95504 0.34687 0.0
H2328 H 0.55439 0.00975 0.28105 0.0
H2329 H 0.53511 0.94995 0.25773 0.0
H2330 H 0.59774 0.0242 0.30329 0.0
H2331 H 0.58712 0.01259 0.33441 0.0
H2332 H 0.57749 0.02563 0.31679 0.0
H2333 H 0.57456 0.9487 0.2722 0.0
H2334 H 0.54857 0.9321 0.27575 0.0
H2335 H 0.56413 0.9416 0.30482 0.0
C2336 C 0.01726 0.63809 0.29379 0.0
C2337 C 0.02188 0.6448 0.32027 0.0
C2338 C 0.01731 0.62107 0.2851 0.0
C2339 C 0.02148 0.61022 0.30356 0.0
C2340 C 0.0252 0.61645 0.33063 0.0
C2341 C 0.02568 0.63386 0.33855 0.0
C2342 C 0.01369 0.61518 0.25591 0.0
C2343 C 0.02912 0.605 0.35107 0.0
C2344 C 1.00838 0.55969 0.27607 0.0
C2345 C 0.02636 0.56392 0.26522 0.0
C2346 C 1.00681 0.57417 0.29075 0.0
C2347 C 0.02351 0.59337 0.29391 0.0
C2348 C 0.04198 0.59708 0.28491 0.0
C2349 C 0.04319 0.58221 0.27092 0.0
C2350 C 0.98698 0.56943 0.30081 0.0
C2351 C 0.06014 0.61735 0.28746 0.0
H2352 H 0.01439 0.64658 0.27963 0.0
H2353 H 0.02905 0.63893 0.35915 0.0
H2354 H 0.0268 0.61575 0.24712 0.0
H2355 H 1.0013 0.59974 0.25372 0.0
H2356 H 0.01035 0.62498 0.24424 0.0
H2357 H 0.02956 0.61052 0.37175 0.0
H2358 H 0.01766 0.58908 0.34994 0.0
H2359 H 0.04335 0.60616 0.34679 0.0
H2360 H 0.99531 0.54569 0.27118 0.0
H2361 H 0.05699 0.58556 0.26199 0.0
H2362 H 0.98091 0.57601 0.28733 0.0
H2363 H 0.98817 0.57586 0.32107 0.0
H2364 H 0.97651 0.55322 0.30149 0.0
H2365 H 0.05878 0.62774 0.27419 0.0
H2366 H 0.07362 0.61725 0.28186 0.0
H2367 H 0.06183 0.62316 0.30819 0.0
C2368 C 0.38351 0.39674 0.33905 0.0
C2369 C 0.37201 0.38101 0.32137 0.0
C2370 C 0.40095 0.41354 0.33055 0.0
C2371 C 0.40671 0.415 0.30345 0.0
C2372 C 0.39521 0.39903 0.28557 0.0
C2373 C 0.37819 0.3821 0.29486 0.0
C2374 C 0.41303 0.42986 0.35047 0.0
C2375 C 0.40049 0.40013 0.25636 0.0
C2376 C 0.43582 0.46498 0.27014 0.0
C2377 C 0.45368 0.46613 0.26476 0.0
C2378 C 0.42075 0.44891 0.28388 0.0
C2379 C 0.42375 0.43378 0.29317 0.0
C2380 C 0.44249 0.43592 0.29021 0.0
C2381 C 0.4572 0.45197 0.27569 0.0
C2382 C 0.40102 0.44722 0.28611 0.0
C2383 C 0.44656 0.42052 0.3006 0.0
H2384 H 0.3789 0.39586 0.35967 0.0
H2385 H 0.36931 0.37001 0.28112 0.0
H2386 H 0.42858 0.43388 0.34946 0.0
H2387 H 0.41256 0.44328 0.34552 0.0
H2388 H 0.40771 0.42559 0.37127 0.0
H2389 H 0.39019 0.38642 0.24513 0.0
H2390 H 0.40041 0.41281 0.24711 0.0
H2391 H 0.4155 0.40273 0.25417 0.0
H2392 H 0.43297 0.47574 0.26127 0.0
H2393 H 0.47083 0.4526 0.27115 0.0
H2394 H 0.39551 0.44392 0.30691 0.0
H2395 H 0.3903 0.43479 0.27324 0.0
H2396 H 0.40153 0.46094 0.27984 0.0
H2397 H 0.44041 0.41587 0.32095 0.0
H2398 H 0.4625 0.42602 0.3012 0.0
H2399 H 0.43942 0.40722 0.28739 0.0
C2400 C 0.31591 0.27646 0.34901 0.0
C2401 C 0.32136 0.2923 0.36697 0.0
C2402 C 0.3161 0.25941 0.35668 0.0
C2403 C 0.3212 0.25783 0.38324 0.0
C2404 C 0.32664 0.2738 0.40144 0.0
C2405 C 0.32698 0.29093 0.39296 0.0
C2406 C 0.31085 0.24308 0.3364 0.0
C2407 C 0.33166 0.27263 0.43015 0.0
C2408 C 0.30107 0.2083 0.41722 0.0
C2409 C 0.31806 0.20746 0.42121 0.0
C2410 C 0.30165 0.224 0.40349 0.0
C2411 C 0.31959 0.23909 0.39278 0.0
C2412 C 0.33636 0.23718 0.39427 0.0
C2413 C 0.33547 0.22149 0.40877 0.0
C2414 C 0.28345 0.22543 0.40294 0.0
C2415 C 0.35563 0.25251 0.38234 0.0
H2416 H 0.31183 0.27756 0.32877 0.0
H2417 H 0.33119 0.30311 0.40693 0.0
H2418 H 0.32255 0.2394 0.33551 0.0
H2419 H 0.29718 0.22951 0.34247 0.0
H2420 H 0.30871 0.24718 0.31609 0.0
H2421 H 0.3354 0.28621 0.44185 0.0
H2422 H 0.31909 0.25977 0.4399 0.0
H2423 H 0.34426 0.27032 0.43096 0.0
H2424 H 0.28765 0.19759 0.42709 0.0
H2425 H 0.3487 0.22109 0.41211 0.0
H2426 H 0.28069 0.22873 0.38253 0.0
H2427 H 0.28557 0.23777 0.41625 0.0
H2428 H 0.27028 0.2116 0.40972 0.0
H2429 H 0.35339 0.25689 0.36231 0.0
H2430 H 0.36598 0.24706 0.38053 0.0
H2431 H 0.36245 0.26595 0.39529 0.0
C2432 C 0.73286 0.03828 0.35001 0.0
C2433 C 0.71681 0.03048 0.36753 0.0
C2434 C 0.75078 0.05526 0.35685 0.0
C2435 C 0.75288 0.0645 0.38205 0.0
C2436 C 0.73671 0.05669 0.39984 0.0
C2437 C 0.71882 0.03988 0.39227 0.0
C2438 C 0.7675 0.06329 0.33716 0.0
C2439 C 0.73838 0.06594 0.42708 0.0
C2440 C 0.80159 0.09539 0.41749 0.0
C2441 C 0.80398 0.11427 0.41667 0.0
C2442 C 0.78572 0.07916 0.40463 0.0
C2443 C 0.77205 0.08199 0.39037 0.0
C2444 C 0.77569 0.10143 0.387 0.0
C2445 C 0.79157 0.11736 0.40039 0.0
C2446 C 0.78245 0.05875 0.40884 0.0
C2447 C 0.76176 0.10519 0.37149 0.0
H2448 H 0.73137 0.03117 0.33075 0.0
H2449 H 0.7065 0.03391 0.40589 0.0
H2450 H 0.77269 0.07902 0.333 0.0
H2451 H 0.78001 0.06277 0.34583 0.0
H2452 H 0.76329 0.05485 0.31797 0.0
H2453 H 0.72452 0.05805 0.4386 0.0
H2454 H 0.75016 0.06589 0.43876 0.0
H2455 H 0.74247 0.0816 0.42496 0.0
H2456 H 0.81091 0.09293 0.43062 0.0
H2457 H 0.79313 0.13186 0.40025 0.0
H2458 H 0.77835 0.05016 0.38983 0.0
H2459 H 0.77017 0.05065 0.42304 0.0
H2460 H 0.79564 0.05931 0.41711 0.0
H2461 H 0.75727 0.09644 0.35258 0.0
H2462 H 0.76835 0.12109 0.36675 0.0
H2463 H 0.74835 0.10049 0.3835 0.0
C2464 C 0.97846 0.69184 0.38796 0.0
C2465 C 0.98637 0.69793 0.36238 0.0
C2466 C 0.96198 0.69259 0.39629 0.0
C2467 C 0.95277 0.69907 0.37835 0.0
C2468 C 0.96045 0.70486 0.35226 0.0
C2469 C 0.97734 0.70449 0.3447 0.0
C2470 C 0.95462 0.68672 0.42453 0.0
C2471 C 0.95079 0.71136 0.33236 0.0
C2472 C 0.90188 0.68385 0.40343 0.0
C2473 C 0.90583 0.70073 0.41818 0.0
C2474 C 0.91661 0.68367 0.3879 0.0
C2475 C 0.93575 0.70062 0.38776 0.0
C2476 C 0.93916 0.71824 0.40061 0.0
C2477 C 0.92409 0.7181 0.41545 0.0
C2478 C 0.91217 0.66477 0.37381 0.0
C2479 C 0.9593 0.73659 0.40143 0.0
H2480 H 0.9854 0.6868 0.40171 0.0
H2481 H 0.98327 0.70899 0.32478 0.0
H2482 H 0.95474 0.69924 0.43515 0.0
H2483 H 0.93927 0.67417 0.42423 0.0
H2484 H 0.96361 0.68233 0.4361 0.0
H2485 H 0.95797 0.71446 0.31246 0.0
H2486 H 0.93514 0.69973 0.32997 0.0
H2487 H 0.95123 0.7249 0.33981 0.0
H2488 H 0.88787 0.67032 0.40587 0.0
H2489 H 0.9272 0.73106 0.42724 0.0
H2490 H 0.91797 0.65716 0.38581 0.0
H2491 H 0.91937 0.66791 0.35396 0.0
H2492 H 0.89617 0.65455 0.37113 0.0
H2493 H 0.96881 0.73412 0.41498 0.0
H2494 H 0.95891 0.74974 0.40883 0.0
H2495 H 0.96616 0.73984 0.38137 0.0
C2496 C 0.3996 0.02592 0.72047 0.0
C2497 C 0.39934 0.03505 0.69675 0.0
C2498 C 0.41697 0.02768 0.73013 0.0
C2499 C 0.43463 0.03861 0.71557 0.0
C2500 C 0.43444 0.04764 0.69135 0.0
C2501 C 0.41684 0.04589 0.68233 0.0
C2502 C 0.41643 0.01799 0.75623 0.0
C2503 C 0.45282 0.05914 0.67502 0.0
C2504 C 0.47883 0.05606 0.76057 0.0
C2505 C 0.48214 0.04025 0.75833 0.0
C2506 C 0.46449 0.05663 0.74503 0.0
C2507 C 0.45322 0.04106 0.72662 0.0
C2508 C 0.458 0.02619 0.72226 0.0
C2509 C 0.47235 0.0259 0.7383 0.0
C2510 C 0.45998 0.07276 0.75055 0.0
C2511 C 0.44666 0.00949 0.70254 0.0
H2512 H 0.3862 0.01755 0.7318 0.0
H2513 H 0.41675 0.05288 0.66388 0.0
H2514 H 0.42141 0.00731 0.75308 0.0
H2515 H 0.42659 0.02934 0.77081 0.0
H2516 H 0.40155 0.01003 0.76515 0.0
H2517 H 0.45013 0.06461 0.65613 0.0
H2518 H 0.46402 0.07199 0.6868 0.0
H2519 H 0.45905 0.0497 0.6701 0.0
H2520 H 0.48617 0.067 0.77634 0.0
H2521 H 0.4746 0.01347 0.73683 0.0
H2522 H 0.44617 0.06657 0.76214 0.0
H2523 H 0.4578 0.07855 0.73165 0.0
H2524 H 0.4718 0.08524 0.76223 0.0
H2525 H 0.43216 0.99882 0.71115 0.0
H2526 H 0.4544 1.00145 0.69776 0.0
H2527 H 0.44406 0.01509 0.68375 0.0
C2528 C 0.9989 0.37732 0.71738 0.0
C2529 C 0.99148 0.3682 0.69251 0.0
C2530 C 0.99733 0.3935 0.72601 0.0
C2531 C 0.98834 0.40092 0.70921 0.0
C2532 C 0.98107 0.39193 0.68391 0.0
C2533 C 0.98262 0.3756 0.67593 0.0
C2534 C 1.00512 0.40252 0.75328 0.0
C2535 C 0.9716 0.39952 0.66535 0.0
C2536 C 0.97014 0.4297 0.74857 0.0
C2537 C 0.98652 0.44888 0.7477 0.0
C2538 C 0.96981 0.41406 0.7343 0.0
C2539 C 0.98625 0.41779 0.71871 0.0
C2540 C 1.00188 0.43753 0.71551 0.0
C2541 C 1.00187 0.45287 0.73021 0.0
C2542 C 0.95284 0.3933 0.73834 0.0
C2543 C 0.01955 0.44223 0.69878 0.0
H2544 H 1.00572 0.37165 0.7303 0.0
H2545 H 0.97692 0.36867 0.65662 0.0
H2546 H 0.01642 0.41841 0.75136 0.0
H2547 H 0.99313 0.40163 0.76576 0.0
H2548 H 0.01167 0.39501 0.7639 0.0
H2549 H 0.96723 0.39129 0.646 0.0
H2550 H 0.95841 0.39825 0.67493 0.0
H2551 H 0.98183 0.41543 0.66134 0.0
H2552 H 0.95848 0.42656 0.7626 0.0
H2553 H 0.01473 0.46762 0.73001 0.0
H2554 H 0.95745 0.38533 0.75175 0.0
H2555 H 0.94823 0.38499 0.71911 0.0
H2556 H 0.94004 0.39319 0.7475 0.0
H2557 H 0.02876 0.43778 0.70966 0.0
H2558 H 0.02861 0.45827 0.69447 0.0
H2559 H 0.01508 0.43383 0.6796 0.0
C2560 C 0.6395 0.6106 0.67938 0.0
C2561 C 0.6484 0.62745 0.69609 0.0
C2562 C 0.62264 0.59306 0.68746 0.0
C2563 C 0.61462 0.59217 0.71306 0.0
C2564 C 0.62344 0.60922 0.72993 0.0
C2565 C 0.64012 0.62669 0.72115 0.0
C2566 C 0.61355 0.57539 0.66871 0.0
C2567 C 0.6155 0.60887 0.75753 0.0
C2568 C 0.56289 0.55384 0.73458 0.0
C2569 C 0.56648 0.5417 0.75082 0.0
C2570 C 0.57822 0.56954 0.72043 0.0
C2571 C 0.59757 0.57326 0.72289 0.0
C2572 C 0.60085 0.5599 0.73734 0.0
C2573 C 0.58525 0.54424 0.75102 0.0
C2574 C 0.57397 0.58315 0.70484 0.0
C2575 C 0.62118 0.56325 0.74061 0.0
H2576 H 0.64573 0.61111 0.65988 0.0
H2577 H 0.64692 0.63962 0.73417 0.0
H2578 H 0.61444 0.56306 0.67759 0.0
H2579 H 0.59781 0.5701 0.66574 0.0
H2580 H 0.62088 0.5788 0.64891 0.0
H2581 H 0.62389 0.62338 0.76807 0.0
H2582 H 0.59995 0.60477 0.7562 0.0
H2583 H 0.61599 0.59749 0.76973 0.0
H2584 H 0.54851 0.5522 0.73491 0.0
H2585 H 0.58811 0.53514 0.76407 0.0
H2586 H 0.58175 0.5869 0.68539 0.0
H2587 H 0.57931 0.59718 0.71625 0.0
H2588 H 0.55805 0.5765 0.7011 0.0
H2589 H 0.62877 0.56633 0.72107 0.0
H2590 H 0.62095 0.55034 0.74965 0.0
H2591 H 0.62991 0.57637 0.75374 0.0
C2592 C 0.70885 0.73609 0.67413 0.0
C2593 C 0.70053 0.71951 0.65692 0.0
C2594 C 0.70961 0.75376 0.66701 0.0
C2595 C 0.70232 0.75508 0.64182 0.0
C2596 C 0.69402 0.73838 0.62437 0.0
C2597 C 0.69303 0.72083 0.63224 0.0
C2598 C 0.71815 0.771 0.68645 0.0
C2599 C 0.68642 0.73912 0.59708 0.0
C2600 C 0.68763 0.79188 0.62021 0.0
C2601 C 0.70338 0.80429 0.60366 0.0
C2602 C 0.68785 0.77688 0.63505 0.0
C2603 C 0.70401 0.774 0.6328 0.0
C2604 C 0.72068 0.78778 0.61815 0.0
C2605 C 0.72022 0.80284 0.60404 0.0
C2606 C 0.67 0.76298 0.65106 0.0
C2607 C 0.73817 0.78532 0.61474 0.0
H2608 H 0.71452 0.73517 0.69334 0.0
H2609 H 0.68663 0.70814 0.61877 0.0
H2610 H 0.73129 0.78382 0.67765 0.0
H2611 H 0.70738 0.77567 0.69047 0.0
H2612 H 0.72235 0.76737 0.70571 0.0
H2613 H 0.68066 0.72498 0.58574 0.0
H2614 H 0.67454 0.74247 0.59911 0.0
H2615 H 0.6983 0.75115 0.58525 0.0
H2616 H 0.67446 0.79269 0.61967 0.0
H2617 H 0.7323 0.81221 0.59093 0.0
H2618 H 0.67426 0.75935 0.67025 0.0
H2619 H 0.66117 0.74895 0.63966 0.0
H2620 H 0.66063 0.76936 0.65531 0.0
H2621 H 0.74258 0.78213 0.63411 0.0
H2622 H 0.75092 0.79867 0.60611 0.0
H2623 H 0.73421 0.77256 0.60113 0.0
C2624 C 0.29633 0.96689 0.67022 0.0
C2625 C 0.31059 0.97895 0.65155 0.0
C2626 C 0.27938 0.94926 0.66231 0.0
C2627 C 0.27625 0.94391 0.6349 0.0
C2628 C 0.29084 0.95586 0.616 0.0
C2629 C 0.30801 0.97309 0.62464 0.0
C2630 C 0.26457 0.93665 0.68318 0.0
C2631 C 0.28791 0.95094 0.5865 0.0
C2632 C 0.238 0.89355 0.60662 0.0
C2633 C 0.22347 0.89735 0.59851 0.0
C2634 C 0.25472 0.90807 0.62047 0.0
C2635 C 0.25707 0.92692 0.62558 0.0
C2636 C 0.24163 0.93016 0.61928 0.0
C2637 C 0.22494 0.91525 0.6061 0.0
C2638 C 0.2705 0.90376 0.62768 0.0
C2639 C 0.24352 0.95005 0.62398 0.0
H2640 H 0.29841 0.97131 0.69113 0.0
H2641 H 0.31898 0.98245 0.61019 0.0
H2642 H 0.25112 0.9374 0.6809 0.0
H2643 H 0.26031 0.92094 0.68048 0.0
H2644 H 0.27025 0.94152 0.70381 0.0
H2645 H 0.3008 0.96145 0.57448 0.0
H2646 H 0.28504 0.93577 0.58281 0.0
H2647 H 0.27491 0.95128 0.57937 0.0
H2648 H 0.23708 0.87988 0.60025 0.0
H2649 H 0.21388 0.91832 0.59927 0.0
H2650 H 0.27648 0.90973 0.64787 0.0
H2651 H 0.28274 0.91107 0.61322 0.0
H2652 H 0.26499 0.88763 0.62719 0.0
H2653 H 0.24809 0.95521 0.64484 0.0
H2654 H 0.2296 0.94964 0.61999 0.0
H2655 H 0.255 0.96112 0.61064 0.0
C2656 C 0.04435 0.31306 0.67386 0.0
C2657 C 0.03585 0.32023 0.65623 0.0
C2658 C 0.06115 0.31241 0.6665 0.0
C2659 C 0.06927 0.31852 0.64064 0.0
C2660 C 0.06068 0.32577 0.62285 0.0
C2661 C 0.04431 0.32677 0.63099 0.0
C2662 C 0.07016 0.3051 0.68627 0.0
C2663 C 0.06847 0.33201 0.59486 0.0
C2664 C 0.11976 0.33224 0.61535 0.0
C2665 C 0.11521 0.31542 0.59998 0.0
C2666 C 0.10535 0.33278 0.63122 0.0
C2667 C 0.08591 0.3163 0.6311 0.0
C2668 C 0.08186 0.29868 0.6176 0.0
C2669 C 0.09661 0.29842 0.60243 0.0
C2670 C 0.11048 0.35166 0.64597 0.0
C2671 C 0.0614 0.28082 0.61644 0.0
H2672 H 0.03798 0.30815 0.69348 0.0
H2673 H 0.03779 0.33224 0.6172 0.0
H2674 H 0.06879 0.29114 0.67878 0.0
H2675 H 0.08602 0.31606 0.68853 0.0
H2676 H 0.0631 0.30239 0.70622 0.0
H2677 H 0.06005 0.33718 0.58344 0.0
H2678 H 0.08402 0.34413 0.59562 0.0
H2679 H 0.06789 0.31943 0.58378 0.0
H2680 H 0.13404 0.34548 0.6132 0.0
H2681 H 0.09303 0.2855 0.59023 0.0
H2682 H 0.10316 0.34843 0.66575 0.0
H2683 H 0.1053 0.35997 0.63431 0.0
H2684 H 0.12654 0.36128 0.64891 0.0
H2685 H 0.05452 0.27746 0.63649 0.0
H2686 H 0.06124 0.2675 0.60853 0.0
H2687 H 0.05224 0.28398 0.60318 0.0
C2688 C 0.28822 0.32086 0.63357 0.0
C2689 C 0.28898 0.31199 0.65729 0.0
C2690 C 0.27076 0.31929 0.62479 0.0
C2691 C 0.2535 0.30884 0.64027 0.0
C2692 C 0.25421 0.30017 0.66457 0.0
C2693 C 0.2719 0.30169 0.67269 0.0
C2694 C 0.27076 0.32857 0.59856 0.0
C2695 C 0.23626 0.28923 0.68186 0.0
C2696 C 0.21616 0.32213 0.61809 0.0
C2697 C 0.20597 0.3076 0.59841 0.0
C2698 C 0.23046 0.32168 0.63404 0.0
C2699 C 0.23476 0.30645 0.62995 0.0
C2700 C 0.22303 0.2907 0.612 0.0
C2701 C 0.20878 0.29146 0.5965 0.0
C2702 C 0.24232 0.33861 0.65323 0.0
C2703 C 0.22702 0.27418 0.60678 0.0
H2704 H 0.30128 0.32879 0.62146 0.0
H2705 H 0.27237 0.29489 0.69111 0.0
H2706 H 0.26016 0.31704 0.58453 0.0
H2707 H 0.26602 0.33945 0.60178 0.0
H2708 H 0.2854 0.33623 0.58894 0.0
H2709 H 0.2394 0.28421 0.70082 0.0
H2710 H 0.23025 0.29887 0.68668 0.0
H2711 H 0.22471 0.27612 0.67085 0.0
H2712 H 0.21428 0.33481 0.6193 0.0
H2713 H 0.20113 0.28037 0.581 0.0
H2714 H 0.25668 0.34903 0.64406 0.0
H2715 H 0.24519 0.33322 0.67201 0.0
H2716 H 0.23483 0.34688 0.65814 0.0
H2717 H 0.24053 0.27986 0.59464 0.0
H2718 H 0.2148 0.26158 0.59576 0.0
H2719 H 0.22946 0.26868 0.62576 0.0
C2720 C 0.68454 0.97002 0.63012 0.0
C2721 C 0.69083 0.97821 0.65569 0.0
C2722 C 0.68505 0.95312 0.62197 0.0
C2723 C 0.69153 0.94396 0.6401 0.0
C2724 C 0.69708 0.95174 0.66631 0.0
C2725 C 0.69692 0.96891 0.67366 0.0
C2726 C 0.67926 0.94544 0.59368 0.0
C2727 C 0.70357 0.94216 0.68643 0.0
C2728 C 0.67822 0.89226 0.61771 0.0
C2729 C 0.69518 0.89627 0.60383 0.0
C2730 C 0.67725 0.9074 0.63151 0.0
C2731 C 0.69355 0.92699 0.63098 0.0
C2732 C 0.71129 0.93064 0.61912 0.0
C2733 C 0.71191 0.91518 0.60583 0.0
C2734 C 0.65822 0.90276 0.64447 0.0
C2735 C 0.72901 0.95126 0.61799 0.0
H2736 H 0.67989 0.97721 0.61618 0.0
H2737 H 0.7016 0.9751 0.69358 0.0
H2738 H 0.69189 0.94612 0.58313 0.0
H2739 H 0.6673 0.92972 0.59378 0.0
H2740 H 0.67431 0.95404 0.58219 0.0
H2741 H 0.70582 0.94903 0.70662 0.0
H2742 H 0.69252 0.92615 0.68785 0.0
H2743 H 0.71749 0.94345 0.6798 0.0
H2744 H 0.66515 0.87776 0.61563 0.0
H2745 H 0.72485 0.91835 0.59452 0.0
H2746 H 0.65062 0.90808 0.6316 0.0
H2747 H 0.66091 0.91046 0.66411 0.0
H2748 H 0.64833 0.88662 0.6474 0.0
H2749 H 0.72599 0.96033 0.60426 0.0
H2750 H 0.74222 0.95126 0.61074 0.0
H2751 H 0.73222 0.95853 0.63796 0.0
C2752 C 0.04817 0.73819 0.67479 0.0
C2753 C 0.03879 0.72124 0.65833 0.0
C2754 C 0.06511 0.7555 0.66626 0.0
C2755 C 0.07268 0.75604 0.64041 0.0
C2756 C 0.06332 0.73889 0.62377 0.0
C2757 C 0.04661 0.72166 0.63302 0.0
C2758 C 0.0748 0.77326 0.68479 0.0
C2759 C 0.07072 0.73888 0.59592 0.0
C2760 C 0.10219 0.80344 0.60145 0.0
C2761 C 0.12074 0.80545 0.60089 0.0
C2762 C 0.08667 0.78818 0.61577 0.0
C2763 C 0.08981 0.77468 0.63009 0.0
C2764 C 0.10902 0.77791 0.6318 0.0
C2765 C 0.12426 0.79321 0.617 0.0
C2766 C 0.0665 0.78534 0.61324 0.0
C2767 C 0.11314 0.76415 0.64726 0.0
H2768 H 0.04229 0.73793 0.69448 0.0
H2769 H 0.03942 0.70864 0.62019 0.0
H2770 H 0.09051 0.77821 0.68731 0.0
H2771 H 0.07412 0.78573 0.67599 0.0
H2772 H 0.06778 0.77012 0.70479 0.0
H2773 H 0.06189 0.72435 0.58555 0.0
H2774 H 0.07038 0.75038 0.58381 0.0
H2775 H 0.08616 0.74258 0.59676 0.0
H2776 H 0.09936 0.81262 0.58851 0.0
H2777 H 0.13845 0.79443 0.6161 0.0
H2778 H 0.05928 0.78257 0.63304 0.0
H2779 H 0.05729 0.7722 0.60036 0.0
H2780 H 0.06692 0.79837 0.60428 0.0
H2781 H 0.12908 0.77052 0.65048 0.0
H2782 H 0.10735 0.74999 0.63602 0.0
H2783 H 0.1057 0.76073 0.66695 0.0
C2784 C 0.98227 0.61439 0.68135 0.0
C2785 C 0.98779 0.63004 0.69968 0.0
C2786 C 0.98216 0.59708 0.68866 0.0
C2787 C 0.98702 0.59506 0.71518 0.0
C2788 C 0.99244 0.61081 0.73376 0.0
C2789 C 0.99306 0.62815 0.72567 0.0
C2790 C 0.97692 0.58099 0.668 0.0
C2791 C 0.99721 0.60921 0.76244 0.0
C2792 C 0.96695 0.5453 0.74865 0.0
C2793 C 0.98397 0.54449 0.7526 0.0
C2794 C 0.96747 0.561 0.73495 0.0
C2795 C 0.9854 0.57618 0.7243 0.0
C2796 C 1.0022 0.57432 0.72578 0.0
C2797 C 1.00135 0.5586 0.74018 0.0
C2798 C 0.94922 0.56234 0.73439 0.0
C2799 C 0.02148 0.58977 0.71403 0.0
H2800 H 0.97843 0.61584 0.66112 0.0
H2801 H 0.99729 0.64015 0.73996 0.0
H2802 H 0.98869 0.57742 0.66675 0.0
H2803 H 0.96333 0.56729 0.67396 0.0
H2804 H 0.97468 0.58527 0.64788 0.0
H2805 H 1.00085 0.62261 0.7745 0.0
H2806 H 0.98456 0.59621 0.77183 0.0
H2807 H 0.00981 0.6069 0.76321 0.0
H2808 H 0.95354 0.53455 0.7585 0.0
H2809 H 0.0146 0.55824 0.74348 0.0
H2810 H 0.94662 0.56596 0.71409 0.0
H2811 H 0.95116 0.57442 0.74809 0.0
H2812 H 0.93603 0.54836 0.74074 0.0
H2813 H 0.01928 0.59425 0.69404 0.0
H2814 H 0.03188 0.58439 0.71215 0.0
H2815 H 0.02822 0.60314 0.72712 0.0
C2816 C 0.39659 0.37393 0.67528 0.0
C2817 C 0.38142 0.36403 0.69387 0.0
C2818 C 0.4142 0.3912 0.68248 0.0
C2819 C 0.41691 0.39845 0.7091 0.0
C2820 C 0.40157 0.38852 0.72792 0.0
C2821 C 0.38394 0.37158 0.71998 0.0
C2822 C 0.42995 0.4016 0.6617 0.0
C2823 C 0.40396 0.39551 0.75666 0.0
C2824 C 0.46651 0.42794 0.74249 0.0
C2825 C 0.4679 0.44624 0.74668 0.0
C2826 C 0.45066 0.41258 0.72844 0.0
C2827 C 0.43604 0.41575 0.71793 0.0
C2828 C 0.43866 0.43496 0.71938 0.0
C2829 C 0.45452 0.44998 0.734 0.0
C2830 C 0.44847 0.39238 0.72764 0.0
C2831 C 0.42374 0.43915 0.70779 0.0
H2832 H 0.39465 0.36824 0.65498 0.0
H2833 H 0.37228 0.36395 0.73442 0.0
H2834 H 0.43444 0.41744 0.6609 0.0
H2835 H 0.4431 0.40099 0.6672 0.0
H2836 H 0.42506 0.39488 0.64147 0.0
H2837 H 0.39069 0.38613 0.76881 0.0
H2838 H 0.41656 0.39541 0.76583 0.0
H2839 H 0.40716 0.41097 0.75761 0.0
H2840 H 0.47667 0.42496 0.75274 0.0
H2841 H 0.45538 0.464 0.73765 0.0
H2842 H 0.44406 0.38559 0.70743 0.0
H2843 H 0.43677 0.38254 0.74174 0.0
H2844 H 0.46222 0.39298 0.73338 0.0
H2845 H 0.4297 0.45528 0.70584 0.0
H2846 H 0.41076 0.43301 0.72107 0.0
H2847 H 0.41873 0.43195 0.68787 0.0
C2848 C 0.64551 0.02257 0.72553 0.0
C2849 C 0.65291 0.02873 0.69974 0.0
C2850 C 0.62908 0.02315 0.73466 0.0
C2851 C 0.61942 0.02952 0.71734 0.0
C2852 C 0.62651 0.03522 0.69099 0.0
C2853 C 0.64333 0.03503 0.68264 0.0
C2854 C 0.62234 0.01737 0.76313 0.0
C2855 C 0.61636 0.0416 0.67171 0.0
C2856 C 0.56892 0.01518 0.74368 0.0
C2857 C 0.57319 0.03234 0.758 0.0
C2858 C 0.58344 0.01453 0.7282 0.0
C2859 C 0.6027 0.03129 0.72764 0.0
C2860 C 0.60649 0.04912 0.74023 0.0
C2861 C 0.59164 0.04945 0.75502 0.0
C2862 C 0.57859 0.99541 0.71439 0.0
C2863 C 0.62677 0.06728 0.74059 0.0
H2864 H 0.65287 0.01773 0.73884 0.0
H2865 H 0.64886 0.03959 0.66255 0.0
H2866 H 0.62287 0.03 0.77404 0.0
H2867 H 0.60693 1.00496 0.76338 0.0
H2868 H 0.63147 0.01284 0.77406 0.0
H2869 H 0.62285 0.04423 0.65138 0.0
H2870 H 0.60059 0.03014 0.67032 0.0
H2871 H 0.61733 0.0554 0.6791 0.0
H2872 H 0.55478 1.00184 0.74633 0.0
H2873 H 0.59502 0.06262 0.76649 0.0
H2874 H 0.58455 0.98788 0.72621 0.0
H2875 H 0.58539 0.99826 0.69428 0.0
H2876 H 0.56253 0.98524 0.71229 0.0
H2877 H 0.63643 0.06457 0.75348 0.0
H2878 H 0.62678 0.08054 0.74843 0.0
H2879 H 0.63321 0.0705 0.72026 0.0
loop_
_geom_bond_atom_site_label_1
_geom_bond_atom_site_label_2
_geom_bond_distance
_geom_bond_site_symmetry_2
_ccdc_geom_bond_type
Co0 O1 2.216 . S
Co0 O2 2.091 . S
Co0 O4 2.004 1_554 S
Co0 O10 2.021 . S
Co0 O12 2.137 1_454 S
Co0 O13 2.244 1_455 S
O1 Co0 2.216 . S
O1 C8 1.247 . S
O2 Co0 2.091 . S
O2 C8 1.261 . S
C3 O12 1.247 . S
C3 O13 1.272 1_556 S
O4 Co0 2.004 1_556 S
O4 C9 1.259 1_455 S
Co5 O6 2.061 1_554 S
Co5 O11 2.052 . S
Co5 O13 2.135 . S
O6 Co5 2.061 1_556 S
O6 C9 1.235 . S
C7 O10 1.238 1_655 S
C7 O11 1.241 . S
C8 O1 1.247 . S
C8 O2 1.261 . S
C9 O4 1.259 1_655 S
C9 O6 1.235 . S
O10 Co0 2.021 . S
O10 C7 1.238 1_455 S
O11 Co5 2.052 . S
O11 C7 1.241 . S
O12 Co0 2.137 1_656 S
O12 C3 1.247 . S
O13 Co0 2.244 1_655 S
O13 C3 1.272 1_554 S
O13 Co5 2.135 . S
Co14 O15 2.216 1_554 S
Co14 O16 2.091 . S
Co14 O18 2.004 . S
Co14 O24 2.021 1_554 S
Co14 O26 2.137 . S
Co14 O27 2.244 . S
O15 Co14 2.216 1_556 S
O15 C22 1.247 . S
O16 Co14 2.091 . S
O16 C22 1.261 1_554 S
C17 O26 1.247 . S
C17 O27 1.272 . S
O18 Co14 2.004 . S
O18 C23 1.259 . S
Co19 O20 2.061 . S
Co19 O25 2.052 1_554 S
Co19 O27 2.135 . S
O20 Co19 2.061 . S
O20 C23 1.235 . S
C21 O24 1.238 . S
C21 O25 1.241 . S
C22 O15 1.247 . S
C22 O16 1.261 1_556 S
C23 O18 1.259 . S
C23 O20 1.235 . S
O24 Co14 2.021 1_556 S
O24 C21 1.238 . S
O25 Co19 2.052 1_556 S
O25 C21 1.241 . S
O26 Co14 2.137 . S
O26 C17 1.247 . S
O27 Co14 2.244 . S
O27 C17 1.272 . S
O27 Co19 2.135 . S
Co28 O29 2.216 1_554 S
Co28 O30 2.091 . S
Co28 O32 2.004 . S
Co28 O38 2.021 1_554 S
Co28 O40 2.137 1_545 S
Co28 O41 2.244 1_545 S
O29 Co28 2.216 1_556 S
O29 C36 1.247 . S
O30 Co28 2.091 . S
O30 C36 1.261 1_554 S
C31 O40 1.247 . S
C31 O41 1.272 . S
O32 Co28 2.004 . S
O32 C37 1.259 . S
Co33 O34 2.061 . S
Co33 O39 2.052 1_554 S
Co33 O41 2.135 . S
O34 Co33 2.061 . S
O34 C37 1.235 1_565 S
C35 O38 1.238 1_565 S
C35 O39 1.241 . S
C36 O29 1.247 . S
C36 O30 1.261 1_556 S
C37 O32 1.259 . S
C37 O34 1.235 1_545 S
O38 Co28 2.021 1_556 S
O38 C35 1.238 1_545 S
O39 Co33 2.052 1_556 S
O39 C35 1.241 . S
O40 Co28 2.137 1_565 S
O40 C31 1.247 . S
O41 Co28 2.244 1_565 S
O41 C31 1.272 . S
O41 Co33 2.135 . S
Co42 O43 2.216 1_554 S
Co42 O44 2.091 . S
Co42 O46 2.004 . S
Co42 O52 2.021 1_554 S
Co42 O54 2.137 1_655 S
Co42 O55 2.244 1_655 S
O43 Co42 2.216 1_556 S
O43 C50 1.247 . S
O44 Co42 2.091 . S
O44 C50 1.261 1_554 S
C45 O54 1.247 . S
C45 O55 1.272 . S
O46 Co42 2.004 . S
O46 C51 1.259 1_655 S
Co47 O48 2.061 . S
Co47 O53 2.052 1_554 S
Co47 O55 2.135 . S
O48 Co47 2.061 . S
O48 C51 1.235 . S
C49 O52 1.238 1_455 S
C49 O53 1.241 . S
C50 O43 1.247 . S
C50 O44 1.261 1_556 S
C51 O46 1.259 1_455 S
C51 O48 1.235 . S
O52 Co42 2.021 1_556 S
O52 C49 1.238 1_655 S
O53 Co47 2.052 1_556 S
O53 C49 1.241 . S
O54 Co42 2.137 1_455 S
O54 C45 1.247 . S
O55 Co42 2.244 1_455 S
O55 C45 1.272 . S
O55 Co47 2.135 . S
Co56 O57 2.216 . S
Co56 O58 2.091 . S
Co56 O60 2.004 1_554 S
Co56 O66 2.021 . S
Co56 O68 2.137 1_554 S
Co56 O69 2.244 . S
O57 Co56 2.216 . S
O57 C64 1.247 . S
O58 Co56 2.091 . S
O58 C64 1.261 . S
C59 O68 1.247 . S
C59 O69 1.272 1_556 S
O60 Co56 2.004 1_556 S
O60 C65 1.259 . S
Co61 O62 2.061 1_554 S
Co61 O67 2.052 . S
Co61 O69 2.135 . S
O62 Co61 2.061 1_556 S
O62 C65 1.235 . S
C63 O66 1.238 . S
C63 O67 1.241 . S
C64 O57 1.247 . S
C64 O58 1.261 . S
C65 O60 1.259 . S
C65 O62 1.235 . S
O66 Co56 2.021 . S
O66 C63 1.238 . S
O67 Co61 2.052 . S
O67 C63 1.241 . S
O68 Co56 2.137 1_556 S
O68 C59 1.247 . S
O69 Co56 2.244 . S
O69 C59 1.272 1_554 S
O69 Co61 2.135 . S
Co70 O71 2.216 . S
Co70 O72 2.091 . S
Co70 O74 2.004 1_554 S
Co70 O80 2.021 . S
Co70 O82 2.137 1_564 S
Co70 O83 2.244 1_565 S
O71 Co70 2.216 . S
O71 C78 1.247 . S
O72 Co70 2.091 . S
O72 C78 1.261 . S
C73 O82 1.247 . S
C73 O83 1.272 1_556 S
O74 Co70 2.004 1_556 S
O74 C79 1.259 1_565 S
Co75 O76 2.061 1_554 S
Co75 O81 2.052 . S
Co75 O83 2.135 . S
O76 Co75 2.061 1_556 S
O76 C79 1.235 . S
C77 O80 1.238 1_545 S
C77 O81 1.241 . S
C78 O71 1.247 . S
C78 O72 1.261 . S
C79 O74 1.259 1_545 S
C79 O76 1.235 . S
O80 Co70 2.021 . S
O80 C77 1.238 1_565 S
O81 Co75 2.052 . S
O81 C77 1.241 . S
O82 Co70 2.137 1_546 S
O82 C73 1.247 . S
O83 Co70 2.244 1_545 S
O83 C73 1.272 1_554 S
O83 Co75 2.135 . S
Co84 O85 2.216 . S
Co84 O86 2.091 . S
Co84 O88 2.004 . S
Co84 O94 2.021 . S
Co84 O96 2.137 . S
Co84 O97 2.244 . S
O85 Co84 2.216 . S
O85 C92 1.247 . S
O86 Co84 2.091 . S
O86 C92 1.261 . S
C87 O96 1.247 . S
C87 O97 1.272 . S
O88 Co84 2.004 . S
O88 C93 1.259 . S
Co89 O90 2.061 . S
Co89 O95 2.052 . S
Co89 O97 2.135 . S
O90 Co89 2.061 . S
O90 C93 1.235 . S
C91 O94 1.238 . S
C91 O95 1.241 . S
C92 O85 1.247 . S
C92 O86 1.261 . S
C93 O88 1.259 . S
C93 O90 1.235 . S
O94 Co84 2.021 . S
O94 C91 1.238 . S
O95 Co89 2.052 . S
O95 C91 1.241 . S
O96 Co84 2.137 . S
O96 C87 1.247 . S
O97 Co84 2.244 . S
O97 C87 1.272 . S
O97 Co89 2.135 . S
Co98 O99 2.217 . S
Co98 O100 2.091 . S
Co98 O102 2.004 . S
Co98 O108 2.021 . S
Co98 O110 2.137 1_565 S
Co98 O111 2.244 1_565 S
O99 Co98 2.217 . S
O99 C106 1.250 . S
O100 Co98 2.091 . S
O100 C106 1.261 . S
C101 O110 1.247 . S
C101 O111 1.272 . S
O102 Co98 2.004 . S
O102 C107 1.259 . S
Co103 O104 2.061 . S
Co103 O109 2.052 . S
Co103 O111 2.135 1_565 S
O104 Co103 2.061 . S
O104 C107 1.235 . S
C105 O108 1.238 . S
C105 O109 1.241 . S
C106 O99 1.250 . S
C106 O100 1.261 . S
C107 O102 1.259 . S
C107 O104 1.235 . S
O108 Co98 2.021 . S
O108 C105 1.238 . S
O109 Co103 2.052 . S
O109 C105 1.241 . S
O110 Co98 2.137 1_545 S
O110 C101 1.247 . S
O111 Co98 2.244 1_545 S
O111 C101 1.272 . S
O111 Co103 2.135 1_545 S
Co112 O113 2.216 . S
Co112 O114 2.091 . S
Co112 O116 2.004 . S
Co112 O122 2.021 . S
Co112 O124 2.137 1_455 S
Co112 O125 2.241 1_455 S
O113 Co112 2.216 . S
O113 C120 1.247 . S
O114 Co112 2.091 . S
O114 C120 1.261 . S
C115 O124 1.247 . S
C115 O125 1.296 . S
O116 Co112 2.004 . S
O116 C121 1.259 . S
Co117 O118 2.061 . S
Co117 O123 2.052 . S
Co117 O125 2.107 1_455 S
O118 Co117 2.061 . S
O118 C121 1.235 . S
C119 O122 1.238 . S
C119 O123 1.241 . S
C120 O113 1.247 . S
C120 O114 1.261 . S
C121 O116 1.259 . S
C121 O118 1.235 . S
O122 Co112 2.021 . S
O122 C119 1.238 . S
O123 Co117 2.052 . S
O123 C119 1.241 . S
O124 Co112 2.137 1_655 S
O124 C115 1.247 . S
O125 Co112 2.241 1_655 S
O125 C115 1.296 . S
O125 Co117 2.107 1_655 S
Co126 O127 2.215 . S
Co126 O128 2.091 . S
Co126 O130 2.004 . S
Co126 O136 2.021 . S
Co126 O138 2.137 1_565 S
Co126 O139 2.244 1_565 S
O127 Co126 2.215 . S
O127 C134 1.247 . S
O128 Co126 2.091 . S
O128 C134 1.261 . S
C129 O138 1.247 . S
C129 O139 1.272 . S
O130 Co126 2.004 . S
O130 C135 1.259 . S
Co131 O132 2.061 . S
Co131 O137 2.052 . S
Co131 O139 2.135 1_565 S
O132 Co131 2.061 . S
O132 C135 1.235 . S
C133 O136 1.238 . S
C133 O137 1.241 . S
C134 O127 1.247 . S
C134 O128 1.261 . S
C135 O130 1.259 . S
C135 O132 1.235 . S
O136 Co126 2.021 . S
O136 C133 1.238 . S
O137 Co131 2.052 . S
O137 C133 1.241 . S
O138 Co126 2.137 1_545 S
O138 C129 1.247 . S
O139 Co126 2.244 1_545 S
O139 C129 1.272 . S
O139 Co131 2.135 1_545 S
Co140 O141 2.216 1_455 S
Co140 O142 2.091 1_455 S
Co140 O144 2.004 . S
Co140 O150 2.021 . S
Co140 O152 2.137 1_455 S
Co140 O153 2.244 . S
O141 Co140 2.216 1_655 S
O141 C148 1.247 . S
O142 Co140 2.091 1_655 S
O142 C148 1.261 . S
C143 O152 1.247 1_455 S
C143 O153 1.272 . S
O144 Co140 2.004 . S
O144 C149 1.259 . S
Co145 O146 2.061 . S
Co145 O151 2.052 . S
Co145 O153 2.135 . S
O146 Co145 2.061 . S
O146 C149 1.235 . S
C147 O150 1.238 . S
C147 O151 1.241 . S
C148 O141 1.247 . S
C148 O142 1.261 . S
C149 O144 1.259 . S
C149 O146 1.235 . S
O150 Co140 2.021 . S
O150 C147 1.238 . S
O151 Co145 2.052 . S
O151 C147 1.241 . S
O152 Co140 2.137 1_655 S
O152 C143 1.247 1_655 S
O153 Co140 2.244 . S
O153 C143 1.272 . S
O153 Co145 2.135 . S
Co154 O155 2.216 . S
Co154 O156 2.091 . S
Co154 O158 2.004 . S
Co154 O164 2.021 . S
Co154 O166 2.137 . S
Co154 O167 2.244 . S
O155 Co154 2.216 . S
O155 C162 1.247 . S
O156 Co154 2.091 . S
O156 C162 1.261 . S
C157 O166 1.247 . S
C157 O167 1.272 . S
O158 Co154 2.004 . S
O158 C163 1.259 . S
Co159 O160 2.061 . S
Co159 O165 2.052 . S
Co159 O167 2.135 . S
O160 Co159 2.061 . S
O160 C163 1.235 . S
C161 O164 1.238 . S
C161 O165 1.241 . S
C162 O155 1.247 . S
C162 O156 1.261 . S
C163 O158 1.259 . S
C163 O160 1.235 . S
O164 Co154 2.021 . S
O164 C161 1.238 . S
O165 Co159 2.052 . S
O165 C161 1.241 . S
O166 Co154 2.137 . S
O166 C157 1.247 . S
O167 Co154 2.244 . S
O167 C157 1.272 . S
O167 Co159 2.135 . S
Co168 O169 2.216 . S
Co168 O170 2.091 . S
Co168 O172 2.004 . S
Co168 O178 2.021 . S
Co168 O180 2.137 1_545 S
Co168 O181 2.244 1_545 S
O169 Co168 2.216 . S
O169 C176 1.247 . S
O170 Co168 2.091 . S
O170 C176 1.261 . S
C171 O180 1.247 . S
C171 O181 1.272 . S
O172 Co168 2.004 . S
O172 C177 1.259 . S
Co173 O174 2.061 . S
Co173 O179 2.052 . S
Co173 O181 2.135 1_545 S
O174 Co173 2.061 . S
O174 C177 1.235 . S
C175 O178 1.238 . S
C175 O179 1.241 . S
C176 O169 1.247 . S
C176 O170 1.261 . S
C177 O172 1.259 . S
C177 O174 1.235 . S
O178 Co168 2.021 . S
O178 C175 1.238 . S
O179 Co173 2.052 . S
O179 C175 1.241 . S
O180 Co168 2.137 1_565 S
O180 C171 1.247 . S
O181 Co168 2.244 1_565 S
O181 C171 1.272 . S
O181 Co173 2.135 1_565 S
Co182 O183 2.216 1_655 S
Co182 O184 2.091 1_655 S
Co182 O186 2.004 . S
Co182 O192 2.021 . S
Co182 O194 2.137 1_655 S
Co182 O195 2.244 . S
O183 Co182 2.216 1_455 S
O183 C190 1.247 . S
O184 Co182 2.091 1_455 S
O184 C190 1.261 . S
C185 O194 1.247 1_655 S
C185 O195 1.272 . S
O186 Co182 2.004 . S
O186 C191 1.259 . S
Co187 O188 2.061 . S
Co187 O193 2.052 . S
Co187 O195 2.135 . S
O188 Co187 2.061 . S
O188 C191 1.235 . S
C189 O192 1.238 . S
C189 O193 1.241 . S
C190 O183 1.247 . S
C190 O184 1.261 . S
C191 O186 1.259 . S
C191 O188 1.235 . S
O192 Co182 2.021 . S
O192 C189 1.238 . S
O193 Co187 2.052 . S
O193 C189 1.241 . S
O194 Co182 2.137 1_455 S
O194 C185 1.247 1_455 S
O195 Co182 2.244 . S
O195 C185 1.272 . S
O195 Co187 2.135 . S
Co196 O197 2.216 . S
Co196 O198 2.091 . S
Co196 O200 2.004 . S
Co196 O206 2.021 . S
Co196 O208 2.137 . S
Co196 O209 2.244 . S
O197 Co196 2.216 . S
O197 C204 1.247 . S
O198 Co196 2.091 . S
O198 C204 1.261 . S
C199 O208 1.247 . S
C199 O209 1.272 . S
O200 Co196 2.004 . S
O200 C205 1.259 . S
Co201 O202 2.061 . S
Co201 O207 2.052 . S
Co201 O209 2.135 . S
O202 Co201 2.061 . S
O202 C205 1.235 . S
C203 O206 1.238 . S
C203 O207 1.241 . S
C204 O197 1.247 . S
C204 O198 1.261 . S
C205 O200 1.259 . S
C205 O202 1.235 . S
O206 Co196 2.021 . S
O206 C203 1.238 . S
O207 Co201 2.052 . S
O207 C203 1.241 . S
O208 Co196 2.137 . S
O208 C199 1.247 . S
O209 Co196 2.244 . S
O209 C199 1.272 . S
O209 Co201 2.135 . S
Co210 O211 2.216 . S
Co210 O212 2.091 . S
Co210 O214 2.004 . S
Co210 O220 2.021 . S
Co210 O222 2.137 . S
Co210 O223 2.244 . S
O211 Co210 2.216 . S
O211 C218 1.247 . S
O212 Co210 2.091 . S
O212 C218 1.261 . S
C213 O222 1.247 . S
C213 O223 1.272 . S
O214 Co210 2.004 . S
O214 C219 1.259 . S
Co215 O216 2.061 . S
Co215 O221 2.052 . S
Co215 O223 2.135 . S
O216 Co215 2.061 . S
O216 C219 1.235 . S
C217 O220 1.238 . S
C217 O221 1.241 . S
C218 O211 1.247 . S
C218 O212 1.261 . S
C219 O214 1.259 . S
C219 O216 1.235 . S
O220 Co210 2.021 . S
O220 C217 1.238 . S
O221 Co215 2.052 . S
O221 C217 1.241 . S
O222 Co210 2.137 . S
O222 C213 1.247 . S
O223 Co210 2.244 . S
O223 C213 1.272 . S
O223 Co215 2.135 . S
Co224 O225 2.216 . S
Co224 O226 2.091 . S
Co224 O228 2.004 . S
Co224 O234 2.021 . S
Co224 O236 2.137 1_545 S
Co224 O237 2.244 1_545 S
O225 Co224 2.216 . S
O225 C232 1.247 . S
O226 Co224 2.091 . S
O226 C232 1.261 . S
C227 O236 1.247 . S
C227 O237 1.272 . S
O228 Co224 2.004 . S
O228 C233 1.259 . S
Co229 O230 2.061 . S
Co229 O235 2.052 . S
Co229 O237 2.135 1_545 S
O230 Co229 2.061 . S
O230 C233 1.235 . S
C231 O234 1.238 . S
C231 O235 1.241 . S
C232 O225 1.247 . S
C232 O226 1.261 . S
C233 O228 1.259 . S
C233 O230 1.235 . S
O234 Co224 2.021 . S
O234 C231 1.238 . S
O235 Co229 2.052 . S
O235 C231 1.241 . S
O236 Co224 2.137 1_565 S
O236 C227 1.247 . S
O237 Co224 2.244 1_565 S
O237 C227 1.272 . S
O237 Co229 2.135 1_565 S
Co238 O239 2.216 . S
Co238 O240 2.091 . S
Co238 O242 2.004 . S
Co238 O248 2.021 . S
Co238 O250 2.137 1_655 S
Co238 O251 2.242 1_655 S
O239 Co238 2.216 . S
O239 C246 1.247 . S
O240 Co238 2.091 . S
O240 C246 1.261 . S
C241 O250 1.247 . S
C241 O251 1.285 . S
O242 Co238 2.004 . S
O242 C247 1.259 . S
Co243 O244 2.061 . S
Co243 O249 2.052 . S
Co243 O251 2.119 1_655 S
O244 Co243 2.061 . S
O244 C247 1.235 . S
C245 O248 1.238 . S
C245 O249 1.241 . S
C246 O239 1.247 . S
C246 O240 1.261 . S
C247 O242 1.259 . S
C247 O244 1.235 . S
O248 Co238 2.021 . S
O248 C245 1.238 . S
O249 Co243 2.052 . S
O249 C245 1.241 . S
O250 Co238 2.137 1_455 S
O250 C241 1.247 . S
O251 Co238 2.242 1_455 S
O251 C241 1.285 . S
O251 Co243 2.119 1_455 S
H252 C258 0.930 . S
H253 C261 0.931 . S
H254 C263 0.931 . S
H255 C265 0.930 . S
H256 C267 0.930 . S
H257 C269 0.931 . S
C258 H252 0.930 . S
C258 C259 1.380 . S
C258 C260 1.394 . S
C259 C258 1.380 . S
C259 C263 1.382 . S
C260 C258 1.394 . S
C260 C261 1.400 . S
C261 H253 0.931 . S
C261 C260 1.400 . S
C261 C262 1.375 . S
C262 C261 1.375 . S
C262 C263 1.415 . S
C262 C264 1.501 . S
C263 H254 0.931 . S
C263 C259 1.382 . S
C263 C262 1.415 . S
C264 C262 1.501 . S
C264 C265 1.384 . S
C264 C269 1.408 . S
C265 H255 0.930 . S
C265 C264 1.384 . S
C265 C266 1.389 . S
C266 C265 1.389 . S
C266 C267 1.405 . S
C267 H256 0.930 . S
C267 C266 1.405 . S
C267 C268 1.364 . S
C268 C267 1.364 . S
C268 C269 1.400 . S
C269 H257 0.931 . S
C269 C264 1.408 . S
C269 C268 1.400 . S
H270 C276 0.930 . S
H271 C279 0.931 . S
H272 C281 0.931 . S
H273 C283 0.930 . S
H274 C285 0.930 . S
H275 C287 0.931 . S
C276 H270 0.930 . S
C276 C277 1.380 . S
C276 C278 1.394 . S
C277 C276 1.380 . S
C277 C281 1.382 . S
C278 C276 1.394 . S
C278 C279 1.400 . S
C279 H271 0.931 . S
C279 C278 1.400 . S
C279 C280 1.375 . S
C280 C279 1.375 . S
C280 C281 1.415 . S
C280 C282 1.501 . S
C281 H272 0.931 . S
C281 C277 1.382 . S
C281 C280 1.415 . S
C282 C280 1.501 . S
C282 C283 1.384 . S
C282 C287 1.408 . S
C283 H273 0.930 . S
C283 C282 1.384 . S
C283 C284 1.389 . S
C284 C283 1.389 . S
C284 C285 1.405 . S
C285 H274 0.930 . S
C285 C284 1.405 . S
C285 C286 1.364 . S
C286 C285 1.364 . S
C286 C287 1.400 . S
C287 H275 0.931 . S
C287 C282 1.408 . S
C287 C286 1.400 . S
H288 C294 0.930 . S
H289 C297 0.931 . S
H290 C299 0.931 . S
H291 C301 0.930 . S
H292 C303 0.930 . S
H293 C305 0.931 . S
C294 H288 0.930 . S
C294 C295 1.380 . S
C294 C296 1.394 . S
C295 C294 1.380 . S
C295 C299 1.382 . S
C296 C294 1.394 . S
C296 C297 1.400 . S
C297 H289 0.931 . S
C297 C296 1.400 . S
C297 C298 1.375 . S
C298 C297 1.375 . S
C298 C299 1.415 . S
C298 C300 1.501 . S
C299 H290 0.931 . S
C299 C295 1.382 . S
C299 C298 1.415 . S
C300 C298 1.501 . S
C300 C301 1.384 . S
C300 C305 1.408 . S
C301 H291 0.930 . S
C301 C300 1.384 . S
C301 C302 1.389 . S
C302 C301 1.389 . S
C302 C303 1.405 . S
C303 H292 0.930 . S
C303 C302 1.405 . S
C303 C304 1.364 . S
C304 C303 1.364 . S
C304 C305 1.400 . S
C305 H293 0.931 . S
C305 C300 1.408 . S
C305 C304 1.400 . S
H306 C312 0.930 . S
H307 C315 0.931 . S
H308 C317 0.931 . S
H309 C319 0.930 . S
H310 C321 0.930 . S
H311 C323 0.931 . S
C312 H306 0.930 . S
C312 C313 1.380 . S
C312 C314 1.394 . S
C313 C312 1.380 . S
C313 C317 1.382 . S
C314 C312 1.394 . S
C314 C315 1.400 . S
C315 H307 0.931 . S
C315 C314 1.400 . S
C315 C316 1.375 . S
C316 C315 1.375 . S
C316 C317 1.415 . S
C316 C318 1.501 . S
C317 H308 0.931 . S
C317 C313 1.382 . S
C317 C316 1.415 . S
C318 C316 1.501 . S
C318 C319 1.384 . S
C318 C323 1.408 . S
C319 H309 0.930 . S
C319 C318 1.384 . S
C319 C320 1.389 . S
C320 C319 1.389 . S
C320 C321 1.405 . S
C321 H310 0.930 . S
C321 C320 1.405 . S
C321 C322 1.364 . S
C322 C321 1.364 . S
C322 C323 1.400 . S
C323 H311 0.931 . S
C323 C318 1.408 . S
C323 C322 1.400 . S
H324 C330 0.930 . S
H325 C333 0.931 . S
H326 C335 0.931 . S
H327 C337 0.930 . S
H328 C339 0.930 . S
H329 C341 0.931 . S
C330 H324 0.930 . S
C330 C331 1.380 . S
C330 C332 1.394 . S
C331 C330 1.380 . S
C331 C335 1.382 . S
C332 C330 1.394 . S
C332 C333 1.400 . S
C333 H325 0.931 . S
C333 C332 1.400 . S
C333 C334 1.375 . S
C334 C333 1.375 . S
C334 C335 1.415 . S
C334 C336 1.501 . S
C335 H326 0.931 . S
C335 C331 1.382 . S
C335 C334 1.415 . S
C336 C334 1.501 . S
C336 C337 1.384 . S
C336 C341 1.408 . S
C337 H327 0.930 . S
C337 C336 1.384 . S
C337 C338 1.389 . S
C338 C337 1.389 . S
C338 C339 1.405 . S
C339 H328 0.930 . S
C339 C338 1.405 . S
C339 C340 1.364 . S
C340 C339 1.364 . S
C340 C341 1.400 . S
C341 H329 0.931 . S
C341 C336 1.408 . S
C341 C340 1.400 . S
H342 C348 0.930 . S
H343 C351 0.931 . S
H344 C353 0.931 . S
H345 C355 0.930 . S
H346 C357 0.930 . S
H347 C359 0.931 . S
C348 H342 0.930 . S
C348 C349 1.380 . S
C348 C350 1.394 . S
C349 C348 1.380 . S
C349 C353 1.382 . S
C350 C348 1.394 . S
C350 C351 1.400 . S
C351 H343 0.931 . S
C351 C350 1.400 . S
C351 C352 1.375 . S
C352 C351 1.375 . S
C352 C353 1.415 . S
C352 C354 1.501 . S
C353 H344 0.931 . S
C353 C349 1.382 . S
C353 C352 1.415 . S
C354 C352 1.501 . S
C354 C355 1.384 . S
C354 C359 1.408 . S
C355 H345 0.930 . S
C355 C354 1.384 . S
C355 C356 1.389 . S
C356 C355 1.389 . S
C356 C357 1.405 . S
C357 H346 0.930 . S
C357 C356 1.405 . S
C357 C358 1.364 . S
C358 C357 1.364 . S
C358 C359 1.400 . S
C359 H347 0.931 . S
C359 C354 1.408 . S
C359 C358 1.400 . S
H360 C366 0.930 . S
H361 C369 0.931 . S
H362 C371 0.931 . S
H363 C373 0.930 . S
H364 C375 0.930 . S
H365 C377 0.931 . S
C366 H360 0.930 . S
C366 C367 1.380 . S
C366 C368 1.394 . S
C367 C366 1.380 . S
C367 C371 1.382 . S
C368 C366 1.394 . S
C368 C369 1.400 . S
C369 H361 0.931 . S
C369 C368 1.400 . S
C369 C370 1.375 . S
C370 C369 1.375 . S
C370 C371 1.415 . S
C370 C372 1.501 . S
C371 H362 0.931 . S
C371 C367 1.382 . S
C371 C370 1.415 . S
C372 C370 1.501 . S
C372 C373 1.384 . S
C372 C377 1.408 . S
C373 H363 0.930 . S
C373 C372 1.384 . S
C373 C374 1.389 . S
C374 C373 1.389 . S
C374 C375 1.405 . S
C375 H364 0.930 . S
C375 C374 1.405 . S
C375 C376 1.364 . S
C376 C375 1.364 . S
C376 C377 1.400 . S
C377 H365 0.931 . S
C377 C372 1.408 . S
C377 C376 1.400 . S
H378 C384 0.930 . S
H379 C387 0.931 . S
H380 C389 0.931 . S
H381 C391 0.930 . S
H382 C393 0.930 . S
H383 C395 0.931 . S
C384 H378 0.930 . S
C384 C385 1.380 . S
C384 C386 1.394 . S
C385 C384 1.380 . S
C385 C389 1.382 . S
C386 C384 1.394 . S
C386 C387 1.400 . S
C387 H379 0.931 . S
C387 C386 1.400 . S
C387 C388 1.375 . S
C388 C387 1.375 . S
C388 C389 1.415 . S
C388 C390 1.501 . S
C389 H380 0.931 . S
C389 C385 1.382 . S
C389 C388 1.415 . S
C390 C388 1.501 . S
C390 C391 1.384 . S
C390 C395 1.408 . S
C391 H381 0.930 . S
C391 C390 1.384 . S
C391 C392 1.389 . S
C392 C391 1.389 . S
C392 C393 1.405 . S
C393 H382 0.930 . S
C393 C392 1.405 . S
C393 C394 1.364 . S
C394 C393 1.364 . S
C394 C395 1.400 . S
C395 H383 0.931 . S
C395 C390 1.408 . S
C395 C394 1.400 . S
H396 C402 0.930 . S
H397 C405 0.931 . S
H398 C407 0.931 . S
H399 C409 0.930 . S
H400 C411 0.930 . S
H401 C413 0.931 . S
C402 H396 0.930 . S
C402 C403 1.380 . S
C402 C404 1.394 . S
C403 C402 1.380 . S
C403 C407 1.382 . S
C404 C402 1.394 . S
C404 C405 1.400 . S
C405 H397 0.931 . S
C405 C404 1.400 . S
C405 C406 1.375 . S
C406 C405 1.375 . S
C406 C407 1.415 . S
C406 C408 1.501 . S
C407 H398 0.931 . S
C407 C403 1.382 . S
C407 C406 1.415 . S
C408 C406 1.501 . S
C408 C409 1.384 . S
C408 C413 1.408 . S
C409 H399 0.930 . S
C409 C408 1.384 . S
C409 C410 1.389 . S
C410 C409 1.389 . S
C410 C411 1.405 . S
C411 H400 0.930 . S
C411 C410 1.405 . S
C411 C412 1.364 . S
C412 C411 1.364 . S
C412 C413 1.400 . S
C413 H401 0.931 . S
C413 C408 1.408 . S
C413 C412 1.400 . S
H414 C420 0.930 . S
H415 C423 0.931 . S
H416 C425 0.931 . S
H417 C427 0.930 . S
H418 C429 0.930 . S
H419 C431 0.940 1_655 S
C420 H414 0.930 . S
C420 C421 1.380 . S
C420 C422 1.394 1_655 S
C421 C420 1.380 . S
C421 C425 1.382 . S
C422 C420 1.394 1_455 S
C422 C423 1.400 . S
C423 H415 0.931 . S
C423 C422 1.400 . S
C423 C424 1.375 . S
C424 C423 1.375 . S
C424 C425 1.415 1_455 S
C424 C426 1.501 . S
C425 H416 0.931 . S
C425 C421 1.382 . S
C425 C424 1.415 1_655 S
C426 C424 1.501 . S
C426 C427 1.384 . S
C426 C431 1.416 . S
C427 H417 0.930 . S
C427 C426 1.384 . S
C427 C428 1.389 . S
C428 C427 1.389 . S
C428 C429 1.405 . S
C429 H418 0.930 . S
C429 C428 1.405 . S
C429 C430 1.364 . S
C430 C429 1.364 . S
C430 C431 1.389 . S
C431 H419 0.940 1_455 S
C431 C426 1.416 . S
C431 C430 1.389 . S
H432 C438 0.930 . S
H433 C441 0.931 . S
H434 C443 0.931 . S
H435 C445 0.930 . S
H436 C447 0.930 . S
H437 C449 0.931 . S
C438 H432 0.930 . S
C438 C439 1.380 . S
C438 C440 1.394 . S
C439 C438 1.380 . S
C439 C443 1.382 . S
C440 C438 1.394 . S
C440 C441 1.400 . S
C441 H433 0.931 . S
C441 C440 1.400 . S
C441 C442 1.375 . S
C442 C441 1.375 . S
C442 C443 1.415 . S
C442 C444 1.501 . S
C443 H434 0.931 . S
C443 C439 1.382 . S
C443 C442 1.415 . S
C444 C442 1.501 . S
C444 C445 1.384 . S
C444 C449 1.408 . S
C445 H435 0.930 . S
C445 C444 1.384 . S
C445 C446 1.389 . S
C446 C445 1.389 . S
C446 C447 1.405 . S
C447 H436 0.930 . S
C447 C446 1.405 . S
C447 C448 1.364 . S
C448 C447 1.364 . S
C448 C449 1.400 . S
C449 H437 0.931 . S
C449 C444 1.408 . S
C449 C448 1.400 . S
H450 C456 0.956 . S
H451 C459 0.931 . S
H452 C461 0.931 . S
H453 C463 0.930 . S
H454 C465 0.930 . S
H455 C467 0.920 1_545 S
C456 H450 0.956 . S
C456 C457 1.375 . S
C456 C458 1.375 1_545 S
C457 C456 1.375 . S
C457 C461 1.382 . S
C458 C456 1.375 1_565 S
C458 C459 1.400 . S
C459 H451 0.931 . S
C459 C458 1.400 . S
C459 C460 1.375 . S
C460 C459 1.375 . S
C460 C461 1.415 1_565 S
C460 C462 1.501 . S
C461 H452 0.931 . S
C461 C457 1.382 . S
C461 C460 1.415 1_545 S
C462 C460 1.501 . S
C462 C463 1.384 . S
C462 C467 1.397 . S
C463 H453 0.930 . S
C463 C462 1.384 . S
C463 C464 1.389 . S
C464 C463 1.389 . S
C464 C465 1.405 . S
C465 H454 0.930 . S
C465 C464 1.405 . S
C465 C466 1.378 . S
C466 C465 1.378 . S
C466 C467 1.403 . S
C467 H455 0.920 1_565 S
C467 C462 1.397 . S
C467 C466 1.403 . S
H468 C474 0.920 . S
H469 C477 0.931 . S
H470 C479 0.926 1_545 S
H471 C481 0.930 . S
H472 C483 0.902 . S
H473 C485 0.931 . S
C474 H468 0.920 . S
C474 C475 1.381 . S
C474 C476 1.399 1_545 S
C475 C474 1.381 . S
C475 C479 1.399 1_545 S
C476 C474 1.399 1_565 S
C476 C477 1.400 . S
C477 H469 0.931 . S
C477 C476 1.400 . S
C477 C478 1.375 . S
C478 C477 1.375 . S
C478 C479 1.412 . S
C478 C480 1.501 . S
C479 H470 0.926 1_565 S
C479 C475 1.399 1_565 S
C479 C478 1.412 . S
C480 C478 1.501 . S
C480 C481 1.384 . S
C480 C485 1.408 1_565 S
C481 H471 0.930 . S
C481 C480 1.384 . S
C481 C482 1.389 . S
C482 C481 1.389 . S
C482 C483 1.430 . S
C483 H472 0.902 . S
C483 C482 1.430 . S
C483 C484 1.371 1_565 S
C484 C483 1.371 1_545 S
C484 C485 1.400 . S
C485 H473 0.931 . S
C485 C480 1.408 1_545 S
C485 C484 1.400 . S
H486 C492 0.970 . S
H487 C495 0.931 . S
H488 C497 0.933 1_655 S
H489 C499 0.930 . S
H490 C501 0.930 . S
H491 C503 0.931 . S
C492 H486 0.970 . S
C492 C493 1.376 . S
C492 C494 1.366 1_655 S
C493 C492 1.376 . S
C493 C497 1.355 1_655 S
C494 C492 1.366 1_455 S
C494 C495 1.421 . S
C495 H487 0.931 . S
C495 C494 1.421 . S
C495 C496 1.375 . S
C496 C495 1.375 . S
C496 C497 1.415 . S
C496 C498 1.501 . S
C497 H488 0.933 1_455 S
C497 C493 1.355 1_455 S
C497 C496 1.415 . S
C498 C496 1.501 . S
C498 C499 1.384 . S
C498 C503 1.408 1_455 S
C499 H489 0.930 . S
C499 C498 1.384 . S
C499 C500 1.389 . S
C500 C499 1.389 . S
C500 C501 1.405 . S
C501 H490 0.930 . S
C501 C500 1.405 . S
C501 C502 1.364 1_455 S
C502 C501 1.364 1_655 S
C502 C503 1.400 . S
C503 H491 0.931 . S
C503 C498 1.408 1_655 S
C503 C502 1.400 . S
H504 C510 0.930 . S
H505 C513 0.931 . S
H506 C515 0.931 . S
H507 C517 0.930 . S
H508 C519 0.930 . S
H509 C521 0.931 . S
C510 H504 0.930 . S
C510 C511 1.380 . S
C510 C512 1.394 . S
C511 C510 1.380 . S
C511 C515 1.382 . S
C512 C510 1.394 . S
C512 C513 1.400 . S
C513 H505 0.931 . S
C513 C512 1.400 . S
C513 C514 1.375 . S
C514 C513 1.375 . S
C514 C515 1.415 . S
C514 C516 1.501 . S
C515 H506 0.931 . S
C515 C511 1.382 . S
C515 C514 1.415 . S
C516 C514 1.501 . S
C516 C517 1.384 . S
C516 C521 1.408 . S
C517 H507 0.930 . S
C517 C516 1.384 . S
C517 C518 1.389 . S
C518 C517 1.389 . S
C518 C519 1.405 . S
C519 H508 0.930 . S
C519 C518 1.405 . S
C519 C520 1.364 . S
C520 C519 1.364 . S
C520 C521 1.400 . S
C521 H509 0.931 . S
C521 C516 1.408 . S
C521 C520 1.400 . S
H522 C528 0.930 . S
H523 C531 0.931 . S
H524 C533 0.931 . S
H525 C535 0.930 . S
H526 C537 0.930 . S
H527 C539 0.931 . S
C528 H522 0.930 . S
C528 C529 1.380 . S
C528 C530 1.394 . S
C529 C528 1.380 . S
C529 C533 1.382 . S
C530 C528 1.394 . S
C530 C531 1.400 . S
C531 H523 0.931 . S
C531 C530 1.400 . S
C531 C532 1.375 . S
C532 C531 1.375 . S
C532 C533 1.415 . S
C532 C534 1.501 . S
C533 H524 0.931 . S
C533 C529 1.382 . S
C533 C532 1.415 . S
C534 C532 1.501 . S
C534 C535 1.384 . S
C534 C539 1.408 . S
C535 H525 0.930 . S
C535 C534 1.384 . S
C535 C536 1.389 . S
C536 C535 1.389 . S
C536 C537 1.405 . S
C537 H526 0.930 . S
C537 C536 1.405 . S
C537 C538 1.364 . S
C538 C537 1.364 . S
C538 C539 1.400 . S
C539 H527 0.931 . S
C539 C534 1.408 . S
C539 C538 1.400 . S
H540 C546 0.930 . S
H541 C549 0.931 . S
H542 C551 0.931 . S
H543 C553 0.930 . S
H544 C555 0.930 . S
H545 C557 0.931 . S
C546 H540 0.930 . S
C546 C547 1.380 . S
C546 C548 1.394 . S
C547 C546 1.380 . S
C547 C551 1.382 . S
C548 C546 1.394 . S
C548 C549 1.400 . S
C549 H541 0.931 . S
C549 C548 1.400 . S
C549 C550 1.375 . S
C550 C549 1.375 . S
C550 C551 1.415 . S
C550 C552 1.501 . S
C551 H542 0.931 . S
C551 C547 1.382 . S
C551 C550 1.415 . S
C552 C550 1.501 . S
C552 C553 1.384 . S
C552 C557 1.408 . S
C553 H543 0.930 . S
C553 C552 1.384 . S
C553 C554 1.389 . S
C554 C553 1.389 . S
C554 C555 1.405 . S
C555 H544 0.930 . S
C555 C554 1.405 . S
C555 C556 1.364 . S
C556 C555 1.364 . S
C556 C557 1.400 . S
C557 H545 0.931 . S
C557 C552 1.408 . S
C557 C556 1.400 . S
H558 C564 0.930 . S
H559 C567 0.931 . S
H560 C569 0.931 . S
H561 C571 0.930 . S
H562 C573 0.930 . S
H563 C575 0.931 . S
C564 H558 0.930 . S
C564 C565 1.380 . S
C564 C566 1.394 . S
C565 C564 1.380 . S
C565 C569 1.382 . S
C566 C564 1.394 . S
C566 C567 1.400 . S
C567 H559 0.931 . S
C567 C566 1.400 . S
C567 C568 1.375 . S
C568 C567 1.375 . S
C568 C569 1.415 . S
C568 C570 1.501 . S
C569 H560 0.931 . S
C569 C565 1.382 . S
C569 C568 1.415 . S
C570 C568 1.501 . S
C570 C571 1.384 . S
C570 C575 1.408 . S
C571 H561 0.930 . S
C571 C570 1.384 . S
C571 C572 1.389 . S
C572 C571 1.389 . S
C572 C573 1.405 . S
C573 H562 0.930 . S
C573 C572 1.405 . S
C573 C574 1.364 . S
C574 C573 1.364 . S
C574 C575 1.400 . S
C575 H563 0.931 . S
C575 C570 1.408 . S
C575 C574 1.400 . S
C576 C577 1.391 . S
C576 C578 1.394 . S
C576 H592 0.931 . S
C577 C576 1.391 . S
C577 C581 1.376 1_655 S
C578 C576 1.394 . S
C578 C579 1.369 . S
C578 C582 1.531 . S
C579 C578 1.369 . S
C579 C580 1.410 1_655 S
C579 C587 1.503 . S
C580 C579 1.410 1_455 S
C580 C581 1.392 . S
C580 C583 1.511 . S
C581 C577 1.376 1_455 S
C581 C580 1.392 . S
C581 H593 0.929 . S
C582 C578 1.531 . S
C582 H594 0.960 . S
C582 H595 0.962 . S
C582 H596 0.960 . S
C583 C580 1.511 . S
C583 H597 0.961 . S
C583 H598 0.961 . S
C583 H599 0.961 . S
C584 C585 1.370 . S
C584 C586 1.363 . S
C584 H600 0.931 . S
C585 C584 1.370 . S
C585 C589 1.415 . S
C586 C584 1.363 . S
C586 C587 1.370 . S
C586 C590 1.524 . S
C587 C579 1.503 . S
C587 C586 1.370 . S
C587 C588 1.402 1_655 S
C588 C587 1.402 1_455 S
C588 C589 1.398 1_455 S
C588 C591 1.541 . S
C589 C585 1.415 . S
C589 C588 1.398 1_655 S
C589 H601 0.928 1_655 S
C590 C586 1.524 . S
C590 H602 0.956 . S
C590 H603 0.908 1_655 S
C590 H604 0.961 . S
C591 C588 1.541 . S
C591 H605 0.958 1_455 S
C591 H606 0.961 . S
C591 H607 0.960 . S
H592 C576 0.931 . S
H593 C581 0.929 . S
H594 C582 0.960 . S
H595 C582 0.962 . S
H596 C582 0.960 . S
H597 C583 0.961 . S
H598 C583 0.961 . S
H599 C583 0.961 . S
H600 C584 0.931 . S
H601 C589 0.928 1_455 S
H602 C590 0.956 . S
H603 C590 0.908 1_455 S
H604 C590 0.961 . S
H605 C591 0.958 1_655 S
H606 C591 0.961 . S
H607 C591 0.960 . S
C608 C609 1.391 . S
C608 C610 1.394 . S
C608 H624 0.931 . S
C609 C608 1.391 . S
C609 C613 1.376 . S
C610 C608 1.394 . S
C610 C611 1.369 . S
C610 C614 1.531 . S
C611 C610 1.369 . S
C611 C612 1.410 . S
C611 C619 1.503 . S
C612 C611 1.410 . S
C612 C613 1.392 . S
C612 C615 1.511 . S
C613 C609 1.376 . S
C613 C612 1.392 . S
C613 H625 0.929 . S
C614 C610 1.531 . S
C614 H626 0.960 . S
C614 H627 0.962 . S
C614 H628 0.960 . S
C615 C612 1.511 . S
C615 H629 0.961 . S
C615 H630 0.961 . S
C615 H631 0.961 . S
C616 C617 1.370 . S
C616 C618 1.363 . S
C616 H632 0.931 . S
C617 C616 1.370 . S
C617 C621 1.408 . S
C618 C616 1.363 . S
C618 C619 1.370 . S
C618 C622 1.524 . S
C619 C611 1.503 . S
C619 C618 1.370 . S
C619 C620 1.403 . S
C620 C619 1.403 . S
C620 C621 1.404 . S
C620 C623 1.539 . S
C621 C617 1.408 . S
C621 C620 1.404 . S
C621 H633 0.930 . S
C622 C618 1.524 . S
C622 H634 0.956 . S
C622 H635 0.961 . S
C622 H636 0.961 . S
C623 C620 1.539 . S
C623 H637 0.958 . S
C623 H638 0.961 . S
C623 H639 0.960 . S
H624 C608 0.931 . S
H625 C613 0.929 . S
H626 C614 0.960 . S
H627 C614 0.962 . S
H628 C614 0.960 . S
H629 C615 0.961 . S
H630 C615 0.961 . S
H631 C615 0.961 . S
H632 C616 0.931 . S
H633 C621 0.930 . S
H634 C622 0.956 . S
H635 C622 0.961 . S
H636 C622 0.961 . S
H637 C623 0.958 . S
H638 C623 0.961 . S
H639 C623 0.960 . S
C640 C641 1.391 1_565 S
C640 C642 1.394 . S
C640 H656 0.931 . S
C641 C640 1.391 1_545 S
C641 C645 1.376 . S
C642 C640 1.394 . S
C642 C643 1.377 1_565 S
C642 C646 1.531 . S
C643 C642 1.377 1_545 S
C643 C644 1.436 . S
C643 C651 1.480 . S
C644 C643 1.436 . S
C644 C645 1.392 . S
C644 C647 1.511 . S
C645 C641 1.376 . S
C645 C644 1.392 . S
C645 H657 0.929 . S
C646 C642 1.531 . S
C646 H658 0.960 . S
C646 H659 0.962 . S
C646 H660 0.960 . S
C647 C644 1.511 . S
C647 H661 0.961 . S
C647 H662 0.961 . S
C647 H663 0.961 . S
C648 C649 1.370 . S
C648 C650 1.363 . S
C648 H664 0.931 . S
C649 C648 1.370 . S
C649 C653 1.408 1_545 S
C650 C648 1.363 . S
C650 C651 1.370 . S
C650 C654 1.524 . S
C651 C643 1.480 . S
C651 C650 1.370 . S
C651 C652 1.403 1_545 S
C652 C651 1.403 1_565 S
C652 C653 1.404 . S
C652 C655 1.539 . S
C653 C649 1.408 1_565 S
C653 C652 1.404 . S
C653 H665 0.930 . S
C654 C650 1.524 . S
C654 H666 0.956 . S
C654 H667 0.961 . S
C654 H668 0.961 . S
C655 C652 1.539 . S
C655 H669 0.958 . S
C655 H670 0.961 . S
C655 H671 0.960 . S
H656 C640 0.931 . S
H657 C645 0.929 . S
H658 C646 0.960 . S
H659 C646 0.962 . S
H660 C646 0.960 . S
H661 C647 0.961 . S
H662 C647 0.961 . S
H663 C647 0.961 . S
H664 C648 0.931 . S
H665 C653 0.930 . S
H666 C654 0.956 . S
H667 C654 0.961 . S
H668 C654 0.961 . S
H669 C655 0.958 . S
H670 C655 0.961 . S
H671 C655 0.960 . S
C672 C673 1.391 . S
C672 C674 1.394 . S
C672 H688 0.931 . S
C673 C672 1.391 . S
C673 C677 1.376 1_565 S
C674 C672 1.394 . S
C674 C675 1.369 . S
C674 C678 1.531 . S
C675 C674 1.369 . S
C675 C676 1.426 . S
C675 C683 1.503 . S
C676 C675 1.426 . S
C676 C677 1.382 1_565 S
C676 C679 1.505 1_565 S
C677 C673 1.376 1_545 S
C677 C676 1.382 1_545 S
C677 H689 0.929 . S
C678 C674 1.531 . S
C678 H690 0.960 . S
C678 H691 0.962 . S
C678 H692 0.960 . S
C679 C676 1.505 1_545 S
C679 H693 0.961 . S
C679 H694 0.961 . S
C679 H695 0.961 1_545 S
C680 C681 1.370 1_545 S
C680 C682 1.363 . S
C680 H696 0.931 . S
C681 C680 1.370 1_565 S
C681 C685 1.408 . S
C682 C680 1.363 . S
C682 C683 1.370 1_545 S
C682 C686 1.524 . S
C683 C675 1.503 . S
C683 C682 1.370 1_565 S
C683 C684 1.403 . S
C684 C683 1.403 . S
C684 C685 1.404 . S
C684 C687 1.539 . S
C685 C681 1.408 . S
C685 C684 1.404 . S
C685 H697 0.930 . S
C686 C682 1.524 . S
C686 H698 0.956 . S
C686 H699 0.961 . S
C686 H700 0.961 . S
C687 C684 1.539 . S
C687 H701 0.958 . S
C687 H702 0.961 . S
C687 H703 0.960 . S
H688 C672 0.931 . S
H689 C677 0.929 . S
H690 C678 0.960 . S
H691 C678 0.962 . S
H692 C678 0.960 . S
H693 C679 0.961 . S
H694 C679 0.961 . S
H695 C679 0.961 1_565 S
H696 C680 0.931 . S
H697 C685 0.930 . S
H698 C686 0.956 . S
H699 C686 0.961 . S
H700 C686 0.961 . S
H701 C687 0.958 . S
H702 C687 0.961 . S
H703 C687 0.960 . S
C704 C705 1.376 1_655 S
C704 C706 1.394 . S
C704 H720 0.931 . S
C705 C704 1.376 1_455 S
C705 C709 1.365 . S
C706 C704 1.394 . S
C706 C707 1.357 . S
C706 C710 1.531 . S
C707 C706 1.357 . S
C707 C708 1.395 1_655 S
C707 C715 1.548 1_655 S
C708 C707 1.395 1_455 S
C708 C709 1.392 . S
C708 C711 1.511 . S
C709 C705 1.365 . S
C709 C708 1.392 . S
C709 H721 0.929 . S
C710 C706 1.531 . S
C710 H722 0.960 . S
C710 H723 0.962 . S
C710 H724 0.960 . S
C711 C708 1.511 . S
C711 H725 0.961 . S
C711 H726 0.961 . S
C711 H727 0.961 . S
C712 C713 1.370 . S
C712 C714 1.363 . S
C712 H728 0.931 . S
C713 C712 1.370 . S
C713 C717 1.408 1_455 S
C714 C712 1.363 . S
C714 C715 1.407 . S
C714 C718 1.524 . S
C715 C707 1.548 1_455 S
C715 C714 1.407 . S
C715 C716 1.349 1_455 S
C716 C715 1.349 1_655 S
C716 C717 1.404 . S
C716 C719 1.539 . S
C717 C713 1.408 1_655 S
C717 C716 1.404 . S
C717 H729 0.930 . S
C718 C714 1.524 . S
C718 H730 0.956 . S
C718 H731 0.961 . S
C718 H732 0.961 . S
C719 C716 1.539 . S
C719 H733 0.958 . S
C719 H734 0.961 . S
C719 H735 0.960 . S
H720 C704 0.931 . S
H721 C709 0.929 . S
H722 C710 0.960 . S
H723 C710 0.962 . S
H724 C710 0.960 . S
H725 C711 0.961 . S
H726 C711 0.961 . S
H727 C711 0.961 . S
H728 C712 0.931 . S
H729 C717 0.930 . S
H730 C718 0.956 . S
H731 C718 0.961 . S
H732 C718 0.961 . S
H733 C719 0.958 . S
H734 C719 0.961 . S
H735 C719 0.960 . S
C736 C737 1.391 . S
C736 C738 1.394 . S
C736 H752 0.931 . S
C737 C736 1.391 . S
C737 C741 1.376 . S
C738 C736 1.394 . S
C738 C739 1.369 . S
C738 C742 1.531 . S
C739 C738 1.369 . S
C739 C740 1.410 . S
C739 C747 1.503 . S
C740 C739 1.410 . S
C740 C741 1.392 . S
C740 C743 1.511 . S
C741 C737 1.376 . S
C741 C740 1.392 . S
C741 H753 0.929 . S
C742 C738 1.531 . S
C742 H754 0.960 . S
C742 H755 0.962 . S
C742 H756 0.960 . S
C743 C740 1.511 . S
C743 H757 0.961 . S
C743 H758 0.961 . S
C743 H759 0.961 . S
C744 C745 1.370 . S
C744 C746 1.363 . S
C744 H760 0.931 . S
C745 C744 1.370 . S
C745 C749 1.408 . S
C746 C744 1.363 . S
C746 C747 1.370 . S
C746 C750 1.524 . S
C747 C739 1.503 . S
C747 C746 1.370 . S
C747 C748 1.403 . S
C748 C747 1.403 . S
C748 C749 1.404 . S
C748 C751 1.539 . S
C749 C745 1.408 . S
C749 C748 1.404 . S
C749 H761 0.930 . S
C750 C746 1.524 . S
C750 H762 0.956 . S
C750 H763 0.961 . S
C750 H764 0.961 . S
C751 C748 1.539 . S
C751 H765 0.958 . S
C751 H766 0.961 . S
C751 H767 0.960 . S
H752 C736 0.931 . S
H753 C741 0.929 . S
H754 C742 0.960 . S
H755 C742 0.962 . S
H756 C742 0.960 . S
H757 C743 0.961 . S
H758 C743 0.961 . S
H759 C743 0.961 . S
H760 C744 0.931 . S
H761 C749 0.930 . S
H762 C750 0.956 . S
H763 C750 0.961 . S
H764 C750 0.961 . S
H765 C751 0.958 . S
H766 C751 0.961 . S
H767 C751 0.960 . S
C768 C769 1.391 . S
C768 C770 1.394 . S
C768 H784 0.931 . S
C769 C768 1.391 . S
C769 C773 1.376 1_455 S
C770 C768 1.394 . S
C770 C771 1.369 . S
C770 C774 1.531 . S
C771 C770 1.369 . S
C771 C772 1.410 1_455 S
C771 C779 1.503 . S
C772 C771 1.410 1_655 S
C772 C773 1.392 . S
C772 C775 1.511 . S
C773 C769 1.376 1_655 S
C773 C772 1.392 . S
C773 H785 0.929 . S
C774 C770 1.531 . S
C774 H786 0.960 . S
C774 H787 0.962 . S
C774 H788 0.960 . S
C775 C772 1.511 . S
C775 H789 0.961 . S
C775 H790 0.961 . S
C775 H791 0.961 . S
C776 C777 1.380 . S
C776 C778 1.363 . S
C776 H792 0.931 . S
C777 C776 1.380 . S
C777 C781 1.402 1_655 S
C778 C776 1.363 . S
C778 C779 1.370 1_655 S
C778 C782 1.524 . S
C779 C771 1.503 . S
C779 C778 1.370 1_455 S
C779 C780 1.403 . S
C780 C779 1.403 . S
C780 C781 1.404 . S
C780 C783 1.539 . S
C781 C777 1.402 1_455 S
C781 C780 1.404 . S
C781 H793 0.930 . S
C782 C778 1.524 . S
C782 H794 0.956 . S
C782 H795 0.961 . S
C782 H796 0.961 . S
C783 C780 1.539 . S
C783 H797 0.958 . S
C783 H798 0.961 . S
C783 H799 0.960 . S
H784 C768 0.931 . S
H785 C773 0.929 . S
H786 C774 0.960 . S
H787 C774 0.962 . S
H788 C774 0.960 . S
H789 C775 0.961 . S
H790 C775 0.961 . S
H791 C775 0.961 . S
H792 C776 0.931 . S
H793 C781 0.930 . S
H794 C782 0.956 . S
H795 C782 0.961 . S
H796 C782 0.961 . S
H797 C783 0.958 . S
H798 C783 0.961 . S
H799 C783 0.960 . S
C800 C801 1.391 . S
C800 C802 1.394 . S
C800 H816 0.931 . S
C801 C800 1.391 . S
C801 C805 1.376 . S
C802 C800 1.394 . S
C802 C803 1.369 . S
C802 C806 1.531 . S
C803 C802 1.369 . S
C803 C804 1.410 . S
C803 C811 1.503 . S
C804 C803 1.410 . S
C804 C805 1.392 . S
C804 C807 1.511 . S
C805 C801 1.376 . S
C805 C804 1.392 . S
C805 H817 0.929 . S
C806 C802 1.531 . S
C806 H818 0.960 . S
C806 H819 0.962 . S
C806 H820 0.960 . S
C807 C804 1.511 . S
C807 H821 0.961 . S
C807 H822 0.961 . S
C807 H823 0.961 . S
C808 C809 1.370 . S
C808 C810 1.363 . S
C808 H824 0.931 . S
C809 C808 1.370 . S
C809 C813 1.408 . S
C810 C808 1.363 . S
C810 C811 1.370 . S
C810 C814 1.524 . S
C811 C803 1.503 . S
C811 C810 1.370 . S
C811 C812 1.403 . S
C812 C811 1.403 . S
C812 C813 1.404 . S
C812 C815 1.539 . S
C813 C809 1.408 . S
C813 C812 1.404 . S
C813 H825 0.930 . S
C814 C810 1.524 . S
C814 H826 0.956 . S
C814 H827 0.961 . S
C814 H828 0.961 . S
C815 C812 1.539 . S
C815 H829 0.958 . S
C815 H830 0.961 . S
C815 H831 0.960 . S
H816 C800 0.931 . S
H817 C805 0.929 . S
H818 C806 0.960 . S
H819 C806 0.962 . S
H820 C806 0.960 . S
H821 C807 0.961 . S
H822 C807 0.961 . S
H823 C807 0.961 . S
H824 C808 0.931 . S
H825 C813 0.930 . S
H826 C814 0.956 . S
H827 C814 0.961 . S
H828 C814 0.961 . S
H829 C815 0.958 . S
H830 C815 0.961 . S
H831 C815 0.960 . S
C832 C833 1.337 1_545 S
C832 C834 1.394 . S
C832 H848 0.931 . S
C833 C832 1.337 1_565 S
C833 C837 1.407 . S
C834 C832 1.394 . S
C834 C835 1.369 . S
C834 C838 1.531 . S
C835 C834 1.369 . S
C835 C836 1.410 1_545 S
C835 C843 1.503 . S
C836 C835 1.410 1_565 S
C836 C837 1.392 . S
C836 C839 1.511 . S
C837 C833 1.407 . S
C837 C836 1.392 . S
C837 H849 0.929 . S
C838 C834 1.531 . S
C838 H850 0.960 . S
C838 H851 0.962 . S
C838 H852 0.960 . S
C839 C836 1.511 . S
C839 H853 0.961 . S
C839 H854 0.961 . S
C839 H855 0.961 . S
C840 C841 1.359 1_565 S
C840 C842 1.363 . S
C840 H856 0.931 . S
C841 C840 1.359 1_545 S
C841 C845 1.404 . S
C842 C840 1.363 . S
C842 C843 1.370 1_565 S
C842 C846 1.524 . S
C843 C835 1.503 . S
C843 C842 1.370 1_545 S
C843 C844 1.403 . S
C844 C843 1.403 . S
C844 C845 1.404 . S
C844 C847 1.539 . S
C845 C841 1.404 . S
C845 C844 1.404 . S
C845 H857 0.930 . S
C846 C842 1.524 . S
C846 H858 0.956 . S
C846 H859 0.961 . S
C846 H860 0.961 . S
C847 C844 1.539 . S
C847 H861 0.958 . S
C847 H862 0.961 . S
C847 H863 0.960 . S
H848 C832 0.931 . S
H849 C837 0.929 . S
H850 C838 0.960 . S
H851 C838 0.962 . S
H852 C838 0.960 . S
H853 C839 0.961 . S
H854 C839 0.961 . S
H855 C839 0.961 . S
H856 C840 0.931 . S
H857 C845 0.930 . S
H858 C846 0.956 . S
H859 C846 0.961 . S
H860 C846 0.961 . S
H861 C847 0.958 . S
H862 C847 0.961 . S
H863 C847 0.960 . S
C864 C865 1.391 1_565 S
C864 C866 1.394 . S
C864 H880 0.931 . S
C865 C864 1.391 1_545 S
C865 C869 1.376 . S
C866 C864 1.394 . S
C866 C867 1.369 . S
C866 C870 1.531 . S
C867 C866 1.369 . S
C867 C868 1.410 1_565 S
C867 C875 1.503 . S
C868 C867 1.410 1_545 S
C868 C869 1.392 . S
C868 C871 1.511 . S
C869 C865 1.376 . S
C869 C868 1.392 . S
C869 H881 0.929 . S
C870 C866 1.531 . S
C870 H882 0.960 . S
C870 H883 0.962 . S
C870 H884 0.960 . S
C871 C868 1.511 . S
C871 H885 0.961 . S
C871 H886 0.961 . S
C871 H887 0.961 . S
C872 C873 1.351 1_545 S
C872 C874 1.363 . S
C872 H888 0.931 . S
C873 C872 1.351 1_565 S
C873 C877 1.449 . S
C874 C872 1.363 . S
C874 C875 1.370 1_545 S
C874 C878 1.524 . S
C875 C867 1.503 . S
C875 C874 1.370 1_565 S
C875 C876 1.403 . S
C876 C875 1.403 . S
C876 C877 1.404 . S
C876 C879 1.539 . S
C877 C873 1.449 . S
C877 C876 1.404 . S
C877 H889 0.930 . S
C878 C874 1.524 . S
C878 H890 0.956 . S
C878 H891 0.961 . S
C878 H892 0.961 . S
C879 C876 1.539 . S
C879 H893 0.958 . S
C879 H894 0.961 . S
C879 H895 0.960 . S
H880 C864 0.931 . S
H881 C869 0.929 . S
H882 C870 0.960 . S
H883 C870 0.962 . S
H884 C870 0.960 . S
H885 C871 0.961 . S
H886 C871 0.961 . S
H887 C871 0.961 . S
H888 C872 0.931 . S
H889 C877 0.930 . S
H890 C878 0.956 . S
H891 C878 0.961 . S
H892 C878 0.961 . S
H893 C879 0.958 . S
H894 C879 0.961 . S
H895 C879 0.960 . S
C896 C897 1.391 . S
C896 C898 1.394 . S
C896 H912 0.931 . S
C897 C896 1.391 . S
C897 C901 1.376 1_655 S
C898 C896 1.394 . S
C898 C899 1.393 . S
C898 C902 1.531 . S
C899 C898 1.393 . S
C899 C900 1.397 1_655 S
C899 C907 1.492 . S
C900 C899 1.397 1_455 S
C900 C901 1.392 . S
C900 C903 1.511 . S
C901 C897 1.376 1_455 S
C901 C900 1.392 . S
C901 H913 0.929 . S
C902 C898 1.531 . S
C902 H914 0.960 . S
C902 H915 0.962 . S
C902 H916 0.960 . S
C903 C900 1.511 . S
C903 H917 0.961 . S
C903 H918 0.961 . S
C903 H919 0.961 . S
C904 C905 1.349 1_655 S
C904 C906 1.363 . S
C904 H920 0.931 . S
C905 C904 1.349 1_455 S
C905 C909 1.416 . S
C906 C904 1.363 . S
C906 C907 1.370 . S
C906 C910 1.524 . S
C907 C899 1.492 . S
C907 C906 1.370 . S
C907 C908 1.404 1_655 S
C908 C907 1.404 1_455 S
C908 C909 1.404 . S
C908 C911 1.539 . S
C909 C905 1.416 . S
C909 C908 1.404 . S
C909 H921 0.930 . S
C910 C906 1.524 . S
C910 H922 0.956 . S
C910 H923 0.961 1_655 S
C910 H924 0.961 . S
C911 C908 1.539 . S
C911 H925 0.958 1_455 S
C911 H926 0.961 . S
C911 H927 0.960 . S
H912 C896 0.931 . S
H913 C901 0.929 . S
H914 C902 0.960 . S
H915 C902 0.962 . S
H916 C902 0.960 . S
H917 C903 0.961 . S
H918 C903 0.961 . S
H919 C903 0.961 . S
H920 C904 0.931 . S
H921 C909 0.930 . S
H922 C910 0.956 . S
H923 C910 0.961 1_455 S
H924 C910 0.961 . S
H925 C911 0.958 1_655 S
H926 C911 0.961 . S
H927 C911 0.960 . S
C928 C929 1.391 . S
C928 C930 1.394 . S
C928 H944 0.931 . S
C929 C928 1.391 . S
C929 C933 1.376 . S
C930 C928 1.394 . S
C930 C931 1.369 . S
C930 C934 1.531 . S
C931 C930 1.369 . S
C931 C932 1.410 . S
C931 C939 1.503 . S
C932 C931 1.410 . S
C932 C933 1.392 . S
C932 C935 1.511 . S
C933 C929 1.376 . S
C933 C932 1.392 . S
C933 H945 0.929 . S
C934 C930 1.531 . S
C934 H946 0.960 . S
C934 H947 0.962 . S
C934 H948 0.960 . S
C935 C932 1.511 . S
C935 H949 0.961 . S
C935 H950 0.961 . S
C935 H951 0.961 . S
C936 C937 1.370 . S
C936 C938 1.363 . S
C936 H952 0.931 . S
C937 C936 1.370 . S
C937 C941 1.408 . S
C938 C936 1.363 . S
C938 C939 1.370 . S
C938 C942 1.524 . S
C939 C931 1.503 . S
C939 C938 1.370 . S
C939 C940 1.403 . S
C940 C939 1.403 . S
C940 C941 1.404 . S
C940 C943 1.539 . S
C941 C937 1.408 . S
C941 C940 1.404 . S
C941 H953 0.930 . S
C942 C938 1.524 . S
C942 H954 0.956 . S
C942 H955 0.961 . S
C942 H956 0.961 . S
C943 C940 1.539 . S
C943 H957 0.958 . S
C943 H958 0.961 . S
C943 H959 0.960 . S
H944 C928 0.931 . S
H945 C933 0.929 . S
H946 C934 0.960 . S
H947 C934 0.962 . S
H948 C934 0.960 . S
H949 C935 0.961 . S
H950 C935 0.961 . S
H951 C935 0.961 . S
H952 C936 0.931 . S
H953 C941 0.930 . S
H954 C942 0.956 . S
H955 C942 0.961 . S
H956 C942 0.961 . S
H957 C943 0.958 . S
H958 C943 0.961 . S
H959 C943 0.960 . S
C960 C961 1.391 . S
C960 C962 1.394 . S
C960 H976 0.931 . S
C961 C960 1.391 . S
C961 C965 1.376 . S
C962 C960 1.394 . S
C962 C963 1.369 . S
C962 C966 1.531 . S
C963 C962 1.369 . S
C963 C964 1.410 . S
C963 C971 1.503 . S
C964 C963 1.410 . S
C964 C965 1.392 . S
C964 C967 1.511 . S
C965 C961 1.376 . S
C965 C964 1.392 . S
C965 H977 0.929 . S
C966 C962 1.531 . S
C966 H978 0.960 . S
C966 H979 0.962 . S
C966 H980 0.960 . S
C967 C964 1.511 . S
C967 H981 0.961 . S
C967 H982 0.961 . S
C967 H983 0.961 . S
C968 C969 1.370 . S
C968 C970 1.363 . S
C968 H984 0.931 . S
C969 C968 1.370 . S
C969 C973 1.408 . S
C970 C968 1.363 . S
C970 C971 1.370 . S
C970 C974 1.524 . S
C971 C963 1.503 . S
C971 C970 1.370 . S
C971 C972 1.403 . S
C972 C971 1.403 . S
C972 C973 1.404 . S
C972 C975 1.539 . S
C973 C969 1.408 . S
C973 C972 1.404 . S
C973 H985 0.930 . S
C974 C970 1.524 . S
C974 H986 0.956 . S
C974 H987 0.961 . S
C974 H988 0.961 . S
C975 C972 1.539 . S
C975 H989 0.958 . S
C975 H990 0.961 . S
C975 H991 0.960 . S
H976 C960 0.931 . S
H977 C965 0.929 . S
H978 C966 0.960 . S
H979 C966 0.962 . S
H980 C966 0.960 . S
H981 C967 0.961 . S
H982 C967 0.961 . S
H983 C967 0.961 . S
H984 C968 0.931 . S
H985 C973 0.930 . S
H986 C974 0.956 . S
H987 C974 0.961 . S
H988 C974 0.961 . S
H989 C975 0.958 . S
H990 C975 0.961 . S
H991 C975 0.960 . S
C992 C993 1.391 . S
C992 C994 1.394 . S
C992 H1008 0.931 . S
C993 C992 1.391 . S
C993 C997 1.376 . S
C994 C992 1.394 . S
C994 C995 1.369 . S
C994 C998 1.531 . S
C995 C994 1.369 . S
C995 C996 1.410 . S
C995 C1003 1.503 . S
C996 C995 1.410 . S
C996 C997 1.392 . S
C996 C999 1.511 . S
C997 C993 1.376 . S
C997 C996 1.392 . S
C997 H1009 0.929 . S
C998 C994 1.531 . S
C998 H1010 0.960 . S
C998 H1011 0.962 . S
C998 H1012 0.960 . S
C999 C996 1.511 . S
C999 H1013 0.961 . S
C999 H1014 0.961 . S
C999 H1015 0.961 . S
C1000 C1001 1.370 . S
C1000 C1002 1.363 . S
C1000 H1016 0.931 . S
C1001 C1000 1.370 . S
C1001 C1005 1.408 . S
C1002 C1000 1.363 . S
C1002 C1003 1.370 . S
C1002 C1006 1.524 . S
C1003 C995 1.503 . S
C1003 C1002 1.370 . S
C1003 C1004 1.403 . S
C1004 C1003 1.403 . S
C1004 C1005 1.404 . S
C1004 C1007 1.539 . S
C1005 C1001 1.408 . S
C1005 C1004 1.404 . S
C1005 H1017 0.930 . S
C1006 C1002 1.524 . S
C1006 H1018 0.956 . S
C1006 H1019 0.961 . S
C1006 H1020 0.961 . S
C1007 C1004 1.539 . S
C1007 H1021 0.958 . S
C1007 H1022 0.961 . S
C1007 H1023 0.960 . S
H1008 C992 0.931 . S
H1009 C997 0.929 . S
H1010 C998 0.960 . S
H1011 C998 0.962 . S
H1012 C998 0.960 . S
H1013 C999 0.961 . S
H1014 C999 0.961 . S
H1015 C999 0.961 . S
H1016 C1000 0.931 . S
H1017 C1005 0.930 . S
H1018 C1006 0.956 . S
H1019 C1006 0.961 . S
H1020 C1006 0.961 . S
H1021 C1007 0.958 . S
H1022 C1007 0.961 . S
H1023 C1007 0.960 . S
C1024 C1025 1.391 . S
C1024 C1026 1.394 . S
C1024 H1040 0.931 . S
C1025 C1024 1.391 . S
C1025 C1029 1.376 . S
C1026 C1024 1.394 . S
C1026 C1027 1.369 . S
C1026 C1030 1.531 . S
C1027 C1026 1.369 . S
C1027 C1028 1.410 . S
C1027 C1035 1.503 . S
C1028 C1027 1.410 . S
C1028 C1029 1.392 . S
C1028 C1031 1.511 . S
C1029 C1025 1.376 . S
C1029 C1028 1.392 . S
C1029 H1041 0.929 . S
C1030 C1026 1.531 . S
C1030 H1042 0.960 . S
C1030 H1043 0.962 . S
C1030 H1044 0.960 . S
C1031 C1028 1.511 . S
C1031 H1045 0.961 . S
C1031 H1046 0.961 . S
C1031 H1047 0.961 . S
C1032 C1033 1.370 . S
C1032 C1034 1.363 . S
C1032 H1048 0.931 . S
C1033 C1032 1.370 . S
C1033 C1037 1.408 . S
C1034 C1032 1.363 . S
C1034 C1035 1.370 . S
C1034 C1038 1.524 . S
C1035 C1027 1.503 . S
C1035 C1034 1.370 . S
C1035 C1036 1.403 . S
C1036 C1035 1.403 . S
C1036 C1037 1.404 . S
C1036 C1039 1.539 . S
C1037 C1033 1.408 . S
C1037 C1036 1.404 . S
C1037 H1049 0.930 . S
C1038 C1034 1.524 . S
C1038 H1050 0.956 . S
C1038 H1051 0.961 . S
C1038 H1052 0.961 . S
C1039 C1036 1.539 . S
C1039 H1053 0.958 . S
C1039 H1054 0.961 . S
C1039 H1055 0.960 . S
H1040 C1024 0.931 . S
H1041 C1029 0.929 . S
H1042 C1030 0.960 . S
H1043 C1030 0.962 . S
H1044 C1030 0.960 . S
H1045 C1031 0.961 . S
H1046 C1031 0.961 . S
H1047 C1031 0.961 . S
H1048 C1032 0.931 . S
H1049 C1037 0.930 . S
H1050 C1038 0.956 . S
H1051 C1038 0.961 . S
H1052 C1038 0.961 . S
H1053 C1039 0.958 . S
H1054 C1039 0.961 . S
H1055 C1039 0.960 . S
C1056 C1057 1.391 . S
C1056 C1058 1.394 . S
C1056 H1072 0.931 . S
C1057 C1056 1.391 . S
C1057 C1061 1.376 . S
C1058 C1056 1.394 . S
C1058 C1059 1.369 . S
C1058 C1062 1.531 . S
C1059 C1058 1.369 . S
C1059 C1060 1.410 . S
C1059 C1067 1.503 . S
C1060 C1059 1.410 . S
C1060 C1061 1.392 . S
C1060 C1063 1.511 . S
C1061 C1057 1.376 . S
C1061 C1060 1.392 . S
C1061 H1073 0.929 . S
C1062 C1058 1.531 . S
C1062 H1074 0.960 . S
C1062 H1075 0.962 . S
C1062 H1076 0.960 . S
C1063 C1060 1.511 . S
C1063 H1077 0.961 . S
C1063 H1078 0.961 . S
C1063 H1079 0.961 . S
C1064 C1065 1.370 . S
C1064 C1066 1.363 . S
C1064 H1080 0.931 . S
C1065 C1064 1.370 . S
C1065 C1069 1.408 . S
C1066 C1064 1.363 . S
C1066 C1067 1.370 . S
C1066 C1070 1.524 . S
C1067 C1059 1.503 . S
C1067 C1066 1.370 . S
C1067 C1068 1.403 . S
C1068 C1067 1.403 . S
C1068 C1069 1.404 . S
C1068 C1071 1.539 . S
C1069 C1065 1.408 . S
C1069 C1068 1.404 . S
C1069 H1081 0.930 . S
C1070 C1066 1.524 . S
C1070 H1082 0.956 . S
C1070 H1083 0.961 . S
C1070 H1084 0.961 . S
C1071 C1068 1.539 . S
C1071 H1085 0.958 . S
C1071 H1086 0.961 . S
C1071 H1087 0.960 . S
H1072 C1056 0.931 . S
H1073 C1061 0.929 . S
H1074 C1062 0.960 . S
H1075 C1062 0.962 . S
H1076 C1062 0.960 . S
H1077 C1063 0.961 . S
H1078 C1063 0.961 . S
H1079 C1063 0.961 . S
H1080 C1064 0.931 . S
H1081 C1069 0.930 . S
H1082 C1070 0.956 . S
H1083 C1070 0.961 . S
H1084 C1070 0.961 . S
H1085 C1071 0.958 . S
H1086 C1071 0.961 . S
H1087 C1071 0.960 . S
C1088 C1089 1.391 . S
C1088 C1090 1.394 . S
C1088 H1104 0.931 . S
C1089 C1088 1.391 . S
C1089 C1093 1.376 . S
C1090 C1088 1.394 . S
C1090 C1091 1.369 . S
C1090 C1094 1.531 . S
C1091 C1090 1.369 . S
C1091 C1092 1.410 . S
C1091 C1099 1.503 . S
C1092 C1091 1.410 . S
C1092 C1093 1.392 . S
C1092 C1095 1.511 . S
C1093 C1089 1.376 . S
C1093 C1092 1.392 . S
C1093 H1105 0.929 . S
C1094 C1090 1.531 . S
C1094 H1106 0.960 . S
C1094 H1107 0.962 . S
C1094 H1108 0.960 . S
C1095 C1092 1.511 . S
C1095 H1109 0.961 . S
C1095 H1110 0.961 . S
C1095 H1111 0.961 . S
C1096 C1097 1.370 . S
C1096 C1098 1.363 . S
C1096 H1112 0.931 . S
C1097 C1096 1.370 . S
C1097 C1101 1.408 . S
C1098 C1096 1.363 . S
C1098 C1099 1.370 . S
C1098 C1102 1.524 . S
C1099 C1091 1.503 . S
C1099 C1098 1.370 . S
C1099 C1100 1.403 . S
C1100 C1099 1.403 . S
C1100 C1101 1.404 . S
C1100 C1103 1.539 . S
C1101 C1097 1.408 . S
C1101 C1100 1.404 . S
C1101 H1113 0.930 . S
C1102 C1098 1.524 . S
C1102 H1114 0.956 . S
C1102 H1115 0.961 . S
C1102 H1116 0.961 . S
C1103 C1100 1.539 . S
C1103 H1117 0.958 . S
C1103 H1118 0.961 . S
C1103 H1119 0.960 . S
H1104 C1088 0.931 . S
H1105 C1093 0.929 . S
H1106 C1094 0.960 . S
H1107 C1094 0.962 . S
H1108 C1094 0.960 . S
H1109 C1095 0.961 . S
H1110 C1095 0.961 . S
H1111 C1095 0.961 . S
H1112 C1096 0.931 . S
H1113 C1101 0.930 . S
H1114 C1102 0.956 . S
H1115 C1102 0.961 . S
H1116 C1102 0.961 . S
H1117 C1103 0.958 . S
H1118 C1103 0.961 . S
H1119 C1103 0.960 . S
C1120 C1121 1.391 . S
C1120 C1122 1.394 . S
C1120 H1136 0.931 . S
C1121 C1120 1.391 . S
C1121 C1125 1.376 . S
C1122 C1120 1.394 . S
C1122 C1123 1.369 . S
C1122 C1126 1.531 . S
C1123 C1122 1.369 . S
C1123 C1124 1.410 . S
C1123 C1131 1.503 . S
C1124 C1123 1.410 . S
C1124 C1125 1.392 . S
C1124 C1127 1.511 . S
C1125 C1121 1.376 . S
C1125 C1124 1.392 . S
C1125 H1137 0.929 . S
C1126 C1122 1.531 . S
C1126 H1138 0.960 . S
C1126 H1139 0.962 . S
C1126 H1140 0.960 . S
C1127 C1124 1.511 . S
C1127 H1141 0.961 . S
C1127 H1142 0.961 . S
C1127 H1143 0.961 . S
C1128 C1129 1.370 . S
C1128 C1130 1.363 . S
C1128 H1144 0.931 . S
C1129 C1128 1.370 . S
C1129 C1133 1.408 . S
C1130 C1128 1.363 . S
C1130 C1131 1.370 . S
C1130 C1134 1.524 . S
C1131 C1123 1.503 . S
C1131 C1130 1.370 . S
C1131 C1132 1.403 . S
C1132 C1131 1.403 . S
C1132 C1133 1.404 . S
C1132 C1135 1.539 . S
C1133 C1129 1.408 . S
C1133 C1132 1.404 . S
C1133 H1145 0.930 . S
C1134 C1130 1.524 . S
C1134 H1146 0.956 . S
C1134 H1147 0.961 . S
C1134 H1148 0.961 . S
C1135 C1132 1.539 . S
C1135 H1149 0.958 . S
C1135 H1150 0.961 . S
C1135 H1151 0.960 . S
H1136 C1120 0.931 . S
H1137 C1125 0.929 . S
H1138 C1126 0.960 . S
H1139 C1126 0.962 . S
H1140 C1126 0.960 . S
H1141 C1127 0.961 . S
H1142 C1127 0.961 . S
H1143 C1127 0.961 . S
H1144 C1128 0.931 . S
H1145 C1133 0.930 . S
H1146 C1134 0.956 . S
H1147 C1134 0.961 . S
H1148 C1134 0.961 . S
H1149 C1135 0.958 . S
H1150 C1135 0.961 . S
H1151 C1135 0.960 . S
C1152 C1153 1.391 . S
C1152 C1154 1.394 . S
C1152 H1168 0.931 . S
C1153 C1152 1.391 . S
C1153 C1157 1.376 . S
C1154 C1152 1.394 . S
C1154 C1155 1.369 . S
C1154 C1158 1.531 . S
C1155 C1154 1.369 . S
C1155 C1156 1.410 . S
C1155 C1163 1.503 . S
C1156 C1155 1.410 . S
C1156 C1157 1.392 . S
C1156 C1159 1.511 . S
C1157 C1153 1.376 . S
C1157 C1156 1.392 . S
C1157 H1169 0.929 . S
C1158 C1154 1.531 . S
C1158 H1170 0.960 . S
C1158 H1171 0.962 . S
C1158 H1172 0.960 . S
C1159 C1156 1.511 . S
C1159 H1173 0.961 . S
C1159 H1174 0.961 . S
C1159 H1175 0.961 . S
C1160 C1161 1.370 . S
C1160 C1162 1.363 . S
C1160 H1176 0.931 . S
C1161 C1160 1.370 . S
C1161 C1165 1.408 . S
C1162 C1160 1.363 . S
C1162 C1163 1.370 . S
C1162 C1166 1.524 . S
C1163 C1155 1.503 . S
C1163 C1162 1.370 . S
C1163 C1164 1.403 . S
C1164 C1163 1.403 . S
C1164 C1165 1.404 . S
C1164 C1167 1.539 . S
C1165 C1161 1.408 . S
C1165 C1164 1.404 . S
C1165 H1177 0.930 . S
C1166 C1162 1.524 . S
C1166 H1178 0.956 . S
C1166 H1179 0.961 . S
C1166 H1180 0.961 . S
C1167 C1164 1.539 . S
C1167 H1181 0.958 . S
C1167 H1182 0.961 . S
C1167 H1183 0.960 . S
H1168 C1152 0.931 . S
H1169 C1157 0.929 . S
H1170 C1158 0.960 . S
H1171 C1158 0.962 . S
H1172 C1158 0.960 . S
H1173 C1159 0.961 . S
H1174 C1159 0.961 . S
H1175 C1159 0.961 . S
H1176 C1160 0.931 . S
H1177 C1165 0.930 . S
H1178 C1166 0.956 . S
H1179 C1166 0.961 . S
H1180 C1166 0.961 . S
H1181 C1167 0.958 . S
H1182 C1167 0.961 . S
H1183 C1167 0.960 . S
C1184 C1185 1.391 . S
C1184 C1186 1.394 . S
C1184 H1200 0.931 . S
C1185 C1184 1.391 . S
C1185 C1189 1.376 . S
C1186 C1184 1.394 . S
C1186 C1187 1.369 . S
C1186 C1190 1.531 . S
C1187 C1186 1.369 . S
C1187 C1188 1.410 . S
C1187 C1195 1.503 . S
C1188 C1187 1.410 . S
C1188 C1189 1.392 . S
C1188 C1191 1.511 . S
C1189 C1185 1.376 . S
C1189 C1188 1.392 . S
C1189 H1201 0.929 . S
C1190 C1186 1.531 . S
C1190 H1202 0.960 . S
C1190 H1203 0.962 . S
C1190 H1204 0.960 . S
C1191 C1188 1.511 . S
C1191 H1205 0.961 . S
C1191 H1206 0.961 . S
C1191 H1207 0.961 . S
C1192 C1193 1.370 . S
C1192 C1194 1.363 . S
C1192 H1208 0.931 . S
C1193 C1192 1.370 . S
C1193 C1197 1.408 . S
C1194 C1192 1.363 . S
C1194 C1195 1.370 . S
C1194 C1198 1.524 . S
C1195 C1187 1.503 . S
C1195 C1194 1.370 . S
C1195 C1196 1.403 . S
C1196 C1195 1.403 . S
C1196 C1197 1.404 . S
C1196 C1199 1.539 . S
C1197 C1193 1.408 . S
C1197 C1196 1.404 . S
C1197 H1209 0.930 . S
C1198 C1194 1.524 . S
C1198 H1210 0.956 . S
C1198 H1211 0.961 . S
C1198 H1212 0.961 . S
C1199 C1196 1.539 . S
C1199 H1213 0.958 . S
C1199 H1214 0.961 . S
C1199 H1215 0.960 . S
H1200 C1184 0.931 . S
H1201 C1189 0.929 . S
H1202 C1190 0.960 . S
H1203 C1190 0.962 . S
H1204 C1190 0.960 . S
H1205 C1191 0.961 . S
H1206 C1191 0.961 . S
H1207 C1191 0.961 . S
H1208 C1192 0.931 . S
H1209 C1197 0.930 . S
H1210 C1198 0.956 . S
H1211 C1198 0.961 . S
H1212 C1198 0.961 . S
H1213 C1199 0.958 . S
H1214 C1199 0.961 . S
H1215 C1199 0.960 . S
C1216 C1217 1.391 . S
C1216 C1218 1.394 . S
C1216 H1232 0.931 . S
C1217 C1216 1.391 . S
C1217 C1221 1.376 . S
C1218 C1216 1.394 . S
C1218 C1219 1.369 . S
C1218 C1222 1.531 . S
C1219 C1218 1.369 . S
C1219 C1220 1.410 . S
C1219 C1227 1.503 . S
C1220 C1219 1.410 . S
C1220 C1221 1.392 . S
C1220 C1223 1.511 . S
C1221 C1217 1.376 . S
C1221 C1220 1.392 . S
C1221 H1233 0.929 . S
C1222 C1218 1.531 . S
C1222 H1234 0.960 . S
C1222 H1235 0.962 . S
C1222 H1236 0.960 . S
C1223 C1220 1.511 . S
C1223 H1237 0.961 . S
C1223 H1238 0.961 . S
C1223 H1239 0.961 . S
C1224 C1225 1.370 . S
C1224 C1226 1.363 . S
C1224 H1240 0.931 . S
C1225 C1224 1.370 . S
C1225 C1229 1.408 . S
C1226 C1224 1.363 . S
C1226 C1227 1.370 . S
C1226 C1230 1.524 . S
C1227 C1219 1.503 . S
C1227 C1226 1.370 . S
C1227 C1228 1.403 . S
C1228 C1227 1.403 . S
C1228 C1229 1.404 . S
C1228 C1231 1.539 . S
C1229 C1225 1.408 . S
C1229 C1228 1.404 . S
C1229 H1241 0.930 . S
C1230 C1226 1.524 . S
C1230 H1242 0.956 . S
C1230 H1243 0.961 . S
C1230 H1244 0.961 . S
C1231 C1228 1.539 . S
C1231 H1245 0.958 . S
C1231 H1246 0.961 . S
C1231 H1247 0.960 . S
H1232 C1216 0.931 . S
H1233 C1221 0.929 . S
H1234 C1222 0.960 . S
H1235 C1222 0.962 . S
H1236 C1222 0.960 . S
H1237 C1223 0.961 . S
H1238 C1223 0.961 . S
H1239 C1223 0.961 . S
H1240 C1224 0.931 . S
H1241 C1229 0.930 . S
H1242 C1230 0.956 . S
H1243 C1230 0.961 . S
H1244 C1230 0.961 . S
H1245 C1231 0.958 . S
H1246 C1231 0.961 . S
H1247 C1231 0.960 . S
C1248 C1249 1.391 . S
C1248 C1250 1.394 . S
C1248 H1264 0.931 . S
C1249 C1248 1.391 . S
C1249 C1253 1.376 . S
C1250 C1248 1.394 . S
C1250 C1251 1.369 . S
C1250 C1254 1.531 . S
C1251 C1250 1.369 . S
C1251 C1252 1.410 . S
C1251 C1259 1.503 . S
C1252 C1251 1.410 . S
C1252 C1253 1.392 . S
C1252 C1255 1.511 . S
C1253 C1249 1.376 . S
C1253 C1252 1.392 . S
C1253 H1265 0.929 . S
C1254 C1250 1.531 . S
C1254 H1266 0.960 . S
C1254 H1267 0.962 . S
C1254 H1268 0.960 . S
C1255 C1252 1.511 . S
C1255 H1269 0.961 . S
C1255 H1270 0.961 . S
C1255 H1271 0.961 . S
C1256 C1257 1.370 . S
C1256 C1258 1.363 . S
C1256 H1272 0.931 . S
C1257 C1256 1.370 . S
C1257 C1261 1.408 . S
C1258 C1256 1.363 . S
C1258 C1259 1.370 . S
C1258 C1262 1.524 . S
C1259 C1251 1.503 . S
C1259 C1258 1.370 . S
C1259 C1260 1.403 . S
C1260 C1259 1.403 . S
C1260 C1261 1.404 . S
C1260 C1263 1.539 . S
C1261 C1257 1.408 . S
C1261 C1260 1.404 . S
C1261 H1273 0.930 . S
C1262 C1258 1.524 . S
C1262 H1274 0.956 . S
C1262 H1275 0.961 . S
C1262 H1276 0.961 . S
C1263 C1260 1.539 . S
C1263 H1277 0.958 . S
C1263 H1278 0.961 . S
C1263 H1279 0.960 . S
H1264 C1248 0.931 . S
H1265 C1253 0.929 . S
H1266 C1254 0.960 . S
H1267 C1254 0.962 . S
H1268 C1254 0.960 . S
H1269 C1255 0.961 . S
H1270 C1255 0.961 . S
H1271 C1255 0.961 . S
H1272 C1256 0.931 . S
H1273 C1261 0.930 . S
H1274 C1262 0.956 . S
H1275 C1262 0.961 . S
H1276 C1262 0.961 . S
H1277 C1263 0.958 . S
H1278 C1263 0.961 . S
H1279 C1263 0.960 . S
C1280 C1281 1.391 . S
C1280 C1282 1.394 . S
C1280 H1296 0.931 . S
C1281 C1280 1.391 . S
C1281 C1285 1.376 . S
C1282 C1280 1.394 . S
C1282 C1283 1.369 . S
C1282 C1286 1.531 . S
C1283 C1282 1.369 . S
C1283 C1284 1.410 . S
C1283 C1291 1.503 . S
C1284 C1283 1.410 . S
C1284 C1285 1.392 . S
C1284 C1287 1.511 . S
C1285 C1281 1.376 . S
C1285 C1284 1.392 . S
C1285 H1297 0.929 . S
C1286 C1282 1.531 . S
C1286 H1298 0.960 . S
C1286 H1299 0.962 . S
C1286 H1300 0.960 . S
C1287 C1284 1.511 . S
C1287 H1301 0.961 . S
C1287 H1302 0.961 . S
C1287 H1303 0.961 . S
C1288 C1289 1.370 . S
C1288 C1290 1.363 . S
C1288 H1304 0.931 . S
C1289 C1288 1.370 . S
C1289 C1293 1.408 . S
C1290 C1288 1.363 . S
C1290 C1291 1.370 . S
C1290 C1294 1.524 . S
C1291 C1283 1.503 . S
C1291 C1290 1.370 . S
C1291 C1292 1.403 . S
C1292 C1291 1.403 . S
C1292 C1293 1.404 . S
C1292 C1295 1.539 . S
C1293 C1289 1.408 . S
C1293 C1292 1.404 . S
C1293 H1305 0.930 . S
C1294 C1290 1.524 . S
C1294 H1306 0.956 . S
C1294 H1307 0.961 . S
C1294 H1308 0.961 . S
C1295 C1292 1.539 . S
C1295 H1309 0.958 . S
C1295 H1310 0.961 . S
C1295 H1311 0.960 . S
H1296 C1280 0.931 . S
H1297 C1285 0.929 . S
H1298 C1286 0.960 . S
H1299 C1286 0.962 . S
H1300 C1286 0.960 . S
H1301 C1287 0.961 . S
H1302 C1287 0.961 . S
H1303 C1287 0.961 . S
H1304 C1288 0.931 . S
H1305 C1293 0.930 . S
H1306 C1294 0.956 . S
H1307 C1294 0.961 . S
H1308 C1294 0.961 . S
H1309 C1295 0.958 . S
H1310 C1295 0.961 . S
H1311 C1295 0.960 . S
C1312 C1313 1.391 . S
C1312 C1314 1.394 . S
C1312 H1328 0.931 . S
C1313 C1312 1.391 . S
C1313 C1317 1.376 . S
C1314 C1312 1.394 . S
C1314 C1315 1.369 . S
C1314 C1318 1.531 . S
C1315 C1314 1.369 . S
C1315 C1316 1.410 . S
C1315 C1323 1.503 . S
C1316 C1315 1.410 . S
C1316 C1317 1.392 . S
C1316 C1319 1.511 . S
C1317 C1313 1.376 . S
C1317 C1316 1.392 . S
C1317 H1329 0.929 . S
C1318 C1314 1.531 . S
C1318 H1330 0.960 . S
C1318 H1331 0.962 . S
C1318 H1332 0.960 . S
C1319 C1316 1.511 . S
C1319 H1333 0.961 . S
C1319 H1334 0.961 . S
C1319 H1335 0.961 . S
C1320 C1321 1.370 . S
C1320 C1322 1.363 . S
C1320 H1336 0.931 . S
C1321 C1320 1.370 . S
C1321 C1325 1.408 . S
C1322 C1320 1.363 . S
C1322 C1323 1.370 . S
C1322 C1326 1.524 . S
C1323 C1315 1.503 . S
C1323 C1322 1.370 . S
C1323 C1324 1.403 . S
C1324 C1323 1.403 . S
C1324 C1325 1.404 . S
C1324 C1327 1.539 . S
C1325 C1321 1.408 . S
C1325 C1324 1.404 . S
C1325 H1337 0.930 . S
C1326 C1322 1.524 . S
C1326 H1338 0.956 . S
C1326 H1339 0.961 . S
C1326 H1340 0.961 . S
C1327 C1324 1.539 . S
C1327 H1341 0.958 . S
C1327 H1342 0.961 . S
C1327 H1343 0.960 . S
H1328 C1312 0.931 . S
H1329 C1317 0.929 . S
H1330 C1318 0.960 . S
H1331 C1318 0.962 . S
H1332 C1318 0.960 . S
H1333 C1319 0.961 . S
H1334 C1319 0.961 . S
H1335 C1319 0.961 . S
H1336 C1320 0.931 . S
H1337 C1325 0.930 . S
H1338 C1326 0.956 . S
H1339 C1326 0.961 . S
H1340 C1326 0.961 . S
H1341 C1327 0.958 . S
H1342 C1327 0.961 . S
H1343 C1327 0.960 . S
C1344 C1345 1.391 . S
C1344 C1346 1.394 . S
C1344 H1360 0.931 . S
C1345 C1344 1.391 . S
C1345 C1349 1.376 . S
C1346 C1344 1.394 . S
C1346 C1347 1.369 . S
C1346 C1350 1.531 . S
C1347 C1346 1.369 . S
C1347 C1348 1.410 . S
C1347 C1355 1.503 . S
C1348 C1347 1.410 . S
C1348 C1349 1.392 . S
C1348 C1351 1.511 . S
C1349 C1345 1.376 . S
C1349 C1348 1.392 . S
C1349 H1361 0.929 . S
C1350 C1346 1.531 . S
C1350 H1362 0.960 . S
C1350 H1363 0.962 . S
C1350 H1364 0.960 . S
C1351 C1348 1.511 . S
C1351 H1365 0.961 . S
C1351 H1366 0.961 . S
C1351 H1367 0.961 . S
C1352 C1353 1.370 . S
C1352 C1354 1.363 . S
C1352 H1368 0.931 . S
C1353 C1352 1.370 . S
C1353 C1357 1.408 . S
C1354 C1352 1.363 . S
C1354 C1355 1.370 . S
C1354 C1358 1.524 . S
C1355 C1347 1.503 . S
C1355 C1354 1.370 . S
C1355 C1356 1.403 . S
C1356 C1355 1.403 . S
C1356 C1357 1.404 . S
C1356 C1359 1.539 . S
C1357 C1353 1.408 . S
C1357 C1356 1.404 . S
C1357 H1369 0.930 . S
C1358 C1354 1.524 . S
C1358 H1370 0.956 . S
C1358 H1371 0.961 . S
C1358 H1372 0.961 . S
C1359 C1356 1.539 . S
C1359 H1373 0.958 . S
C1359 H1374 0.961 . S
C1359 H1375 0.960 . S
H1360 C1344 0.931 . S
H1361 C1349 0.929 . S
H1362 C1350 0.960 . S
H1363 C1350 0.962 . S
H1364 C1350 0.960 . S
H1365 C1351 0.961 . S
H1366 C1351 0.961 . S
H1367 C1351 0.961 . S
H1368 C1352 0.931 . S
H1369 C1357 0.930 . S
H1370 C1358 0.956 . S
H1371 C1358 0.961 . S
H1372 C1358 0.961 . S
H1373 C1359 0.958 . S
H1374 C1359 0.961 . S
H1375 C1359 0.960 . S
C1376 C1377 1.391 . S
C1376 C1378 1.394 . S
C1376 H1392 0.931 . S
C1377 C1376 1.391 . S
C1377 C1381 1.376 . S
C1378 C1376 1.394 . S
C1378 C1379 1.369 . S
C1378 C1382 1.531 . S
C1379 C1378 1.369 . S
C1379 C1380 1.410 . S
C1379 C1387 1.503 . S
C1380 C1379 1.410 . S
C1380 C1381 1.392 . S
C1380 C1383 1.511 . S
C1381 C1377 1.376 . S
C1381 C1380 1.392 . S
C1381 H1393 0.929 . S
C1382 C1378 1.531 . S
C1382 H1394 0.960 . S
C1382 H1395 0.962 . S
C1382 H1396 0.960 . S
C1383 C1380 1.511 . S
C1383 H1397 0.961 . S
C1383 H1398 0.961 . S
C1383 H1399 0.961 . S
C1384 C1385 1.370 . S
C1384 C1386 1.363 . S
C1384 H1400 0.931 . S
C1385 C1384 1.370 . S
C1385 C1389 1.408 . S
C1386 C1384 1.363 . S
C1386 C1387 1.370 . S
C1386 C1390 1.524 . S
C1387 C1379 1.503 . S
C1387 C1386 1.370 . S
C1387 C1388 1.403 . S
C1388 C1387 1.403 . S
C1388 C1389 1.404 . S
C1388 C1391 1.539 . S
C1389 C1385 1.408 . S
C1389 C1388 1.404 . S
C1389 H1401 0.930 . S
C1390 C1386 1.524 . S
C1390 H1402 0.956 . S
C1390 H1403 0.961 . S
C1390 H1404 0.961 . S
C1391 C1388 1.539 . S
C1391 H1405 0.958 . S
C1391 H1406 0.961 . S
C1391 H1407 0.960 . S
H1392 C1376 0.931 . S
H1393 C1381 0.929 . S
H1394 C1382 0.960 . S
H1395 C1382 0.962 . S
H1396 C1382 0.960 . S
H1397 C1383 0.961 . S
H1398 C1383 0.961 . S
H1399 C1383 0.961 . S
H1400 C1384 0.931 . S
H1401 C1389 0.930 . S
H1402 C1390 0.956 . S
H1403 C1390 0.961 . S
H1404 C1390 0.961 . S
H1405 C1391 0.958 . S
H1406 C1391 0.961 . S
H1407 C1391 0.960 . S
C1408 C1409 1.391 . S
C1408 C1410 1.394 . S
C1408 H1424 0.931 . S
C1409 C1408 1.391 . S
C1409 C1413 1.376 . S
C1410 C1408 1.394 . S
C1410 C1411 1.369 . S
C1410 C1414 1.531 . S
C1411 C1410 1.369 . S
C1411 C1412 1.410 . S
C1411 C1419 1.503 . S
C1412 C1411 1.410 . S
C1412 C1413 1.392 . S
C1412 C1415 1.511 . S
C1413 C1409 1.376 . S
C1413 C1412 1.392 . S
C1413 H1425 0.929 . S
C1414 C1410 1.531 . S
C1414 H1426 0.960 . S
C1414 H1427 0.962 . S
C1414 H1428 0.960 . S
C1415 C1412 1.511 . S
C1415 H1429 0.961 . S
C1415 H1430 0.961 . S
C1415 H1431 0.961 . S
C1416 C1417 1.370 . S
C1416 C1418 1.363 . S
C1416 H1432 0.931 . S
C1417 C1416 1.370 . S
C1417 C1421 1.408 . S
C1418 C1416 1.363 . S
C1418 C1419 1.370 . S
C1418 C1422 1.524 . S
C1419 C1411 1.503 . S
C1419 C1418 1.370 . S
C1419 C1420 1.403 . S
C1420 C1419 1.403 . S
C1420 C1421 1.404 . S
C1420 C1423 1.539 . S
C1421 C1417 1.408 . S
C1421 C1420 1.404 . S
C1421 H1433 0.930 . S
C1422 C1418 1.524 . S
C1422 H1434 0.956 . S
C1422 H1435 0.961 . S
C1422 H1436 0.961 . S
C1423 C1420 1.539 . S
C1423 H1437 0.958 . S
C1423 H1438 0.961 . S
C1423 H1439 0.960 . S
H1424 C1408 0.931 . S
H1425 C1413 0.929 . S
H1426 C1414 0.960 . S
H1427 C1414 0.962 . S
H1428 C1414 0.960 . S
H1429 C1415 0.961 . S
H1430 C1415 0.961 . S
H1431 C1415 0.961 . S
H1432 C1416 0.931 . S
H1433 C1421 0.930 . S
H1434 C1422 0.956 . S
H1435 C1422 0.961 . S
H1436 C1422 0.961 . S
H1437 C1423 0.958 . S
H1438 C1423 0.961 . S
H1439 C1423 0.960 . S
C1440 C1441 1.391 . S
C1440 C1442 1.394 . S
C1440 H1456 0.931 . S
C1441 C1440 1.391 . S
C1441 C1445 1.376 . S
C1442 C1440 1.394 . S
C1442 C1443 1.369 . S
C1442 C1446 1.531 . S
C1443 C1442 1.369 . S
C1443 C1444 1.410 . S
C1443 C1451 1.503 . S
C1444 C1443 1.410 . S
C1444 C1445 1.392 . S
C1444 C1447 1.511 . S
C1445 C1441 1.376 . S
C1445 C1444 1.392 . S
C1445 H1457 0.929 . S
C1446 C1442 1.531 . S
C1446 H1458 0.960 . S
C1446 H1459 0.962 . S
C1446 H1460 0.960 . S
C1447 C1444 1.511 . S
C1447 H1461 0.961 . S
C1447 H1462 0.961 . S
C1447 H1463 0.961 . S
C1448 C1449 1.370 . S
C1448 C1450 1.363 . S
C1448 H1464 0.931 . S
C1449 C1448 1.370 . S
C1449 C1453 1.408 . S
C1450 C1448 1.363 . S
C1450 C1451 1.370 . S
C1450 C1454 1.524 . S
C1451 C1443 1.503 . S
C1451 C1450 1.370 . S
C1451 C1452 1.403 . S
C1452 C1451 1.403 . S
C1452 C1453 1.404 . S
C1452 C1455 1.539 . S
C1453 C1449 1.408 . S
C1453 C1452 1.404 . S
C1453 H1465 0.930 . S
C1454 C1450 1.524 . S
C1454 H1466 0.956 . S
C1454 H1467 0.961 . S
C1454 H1468 0.961 . S
C1455 C1452 1.539 . S
C1455 H1469 0.958 . S
C1455 H1470 0.961 . S
C1455 H1471 0.960 . S
H1456 C1440 0.931 . S
H1457 C1445 0.929 . S
H1458 C1446 0.960 . S
H1459 C1446 0.962 . S
H1460 C1446 0.960 . S
H1461 C1447 0.961 . S
H1462 C1447 0.961 . S
H1463 C1447 0.961 . S
H1464 C1448 0.931 . S
H1465 C1453 0.930 . S
H1466 C1454 0.956 . S
H1467 C1454 0.961 . S
H1468 C1454 0.961 . S
H1469 C1455 0.958 . S
H1470 C1455 0.961 . S
H1471 C1455 0.960 . S
C1472 C1473 1.391 . S
C1472 C1474 1.394 . S
C1472 H1488 0.931 . S
C1473 C1472 1.391 . S
C1473 C1477 1.376 . S
C1474 C1472 1.394 . S
C1474 C1475 1.369 . S
C1474 C1478 1.531 . S
C1475 C1474 1.369 . S
C1475 C1476 1.410 . S
C1475 C1483 1.503 . S
C1476 C1475 1.410 . S
C1476 C1477 1.392 . S
C1476 C1479 1.511 . S
C1477 C1473 1.376 . S
C1477 C1476 1.392 . S
C1477 H1489 0.929 . S
C1478 C1474 1.531 . S
C1478 H1490 0.960 . S
C1478 H1491 0.962 . S
C1478 H1492 0.960 . S
C1479 C1476 1.511 . S
C1479 H1493 0.961 . S
C1479 H1494 0.961 . S
C1479 H1495 0.961 . S
C1480 C1481 1.370 . S
C1480 C1482 1.363 . S
C1480 H1496 0.931 . S
C1481 C1480 1.370 . S
C1481 C1485 1.408 . S
C1482 C1480 1.363 . S
C1482 C1483 1.370 . S
C1482 C1486 1.524 . S
C1483 C1475 1.503 . S
C1483 C1482 1.370 . S
C1483 C1484 1.403 . S
C1484 C1483 1.403 . S
C1484 C1485 1.404 . S
C1484 C1487 1.539 . S
C1485 C1481 1.408 . S
C1485 C1484 1.404 . S
C1485 H1497 0.930 . S
C1486 C1482 1.524 . S
C1486 H1498 0.956 . S
C1486 H1499 0.961 . S
C1486 H1500 0.961 . S
C1487 C1484 1.539 . S
C1487 H1501 0.958 . S
C1487 H1502 0.961 . S
C1487 H1503 0.960 . S
H1488 C1472 0.931 . S
H1489 C1477 0.929 . S
H1490 C1478 0.960 . S
H1491 C1478 0.962 . S
H1492 C1478 0.960 . S
H1493 C1479 0.961 . S
H1494 C1479 0.961 . S
H1495 C1479 0.961 . S
H1496 C1480 0.931 . S
H1497 C1485 0.930 . S
H1498 C1486 0.956 . S
H1499 C1486 0.961 . S
H1500 C1486 0.961 . S
H1501 C1487 0.958 . S
H1502 C1487 0.961 . S
H1503 C1487 0.960 . S
C1504 C1505 1.391 . S
C1504 C1506 1.394 . S
C1504 H1520 0.931 . S
C1505 C1504 1.391 . S
C1505 C1509 1.376 . S
C1506 C1504 1.394 . S
C1506 C1507 1.369 . S
C1506 C1510 1.531 . S
C1507 C1506 1.369 . S
C1507 C1508 1.410 . S
C1507 C1515 1.503 . S
C1508 C1507 1.410 . S
C1508 C1509 1.392 . S
C1508 C1511 1.511 . S
C1509 C1505 1.376 . S
C1509 C1508 1.392 . S
C1509 H1521 0.929 . S
C1510 C1506 1.531 . S
C1510 H1522 0.960 . S
C1510 H1523 0.962 . S
C1510 H1524 0.960 . S
C1511 C1508 1.511 . S
C1511 H1525 0.961 . S
C1511 H1526 0.961 . S
C1511 H1527 0.961 . S
C1512 C1513 1.370 . S
C1512 C1514 1.363 . S
C1512 H1528 0.931 . S
C1513 C1512 1.370 . S
C1513 C1517 1.408 . S
C1514 C1512 1.363 . S
C1514 C1515 1.370 . S
C1514 C1518 1.524 . S
C1515 C1507 1.503 . S
C1515 C1514 1.370 . S
C1515 C1516 1.403 . S
C1516 C1515 1.403 . S
C1516 C1517 1.404 . S
C1516 C1519 1.539 . S
C1517 C1513 1.408 . S
C1517 C1516 1.404 . S
C1517 H1529 0.930 . S
C1518 C1514 1.524 . S
C1518 H1530 0.956 . S
C1518 H1531 0.961 . S
C1518 H1532 0.961 . S
C1519 C1516 1.539 . S
C1519 H1533 0.958 . S
C1519 H1534 0.961 . S
C1519 H1535 0.960 . S
H1520 C1504 0.931 . S
H1521 C1509 0.929 . S
H1522 C1510 0.960 . S
H1523 C1510 0.962 . S
H1524 C1510 0.960 . S
H1525 C1511 0.961 . S
H1526 C1511 0.961 . S
H1527 C1511 0.961 . S
H1528 C1512 0.931 . S
H1529 C1517 0.930 . S
H1530 C1518 0.956 . S
H1531 C1518 0.961 . S
H1532 C1518 0.961 . S
H1533 C1519 0.958 . S
H1534 C1519 0.961 . S
H1535 C1519 0.960 . S
C1536 C1537 1.391 . S
C1536 C1538 1.394 . S
C1536 H1552 0.931 . S
C1537 C1536 1.391 . S
C1537 C1541 1.376 . S
C1538 C1536 1.394 . S
C1538 C1539 1.369 . S
C1538 C1542 1.531 . S
C1539 C1538 1.369 . S
C1539 C1540 1.410 . S
C1539 C1547 1.503 . S
C1540 C1539 1.410 . S
C1540 C1541 1.392 . S
C1540 C1543 1.511 . S
C1541 C1537 1.376 . S
C1541 C1540 1.392 . S
C1541 H1553 0.929 . S
C1542 C1538 1.531 . S
C1542 H1554 0.960 . S
C1542 H1555 0.962 . S
C1542 H1556 0.960 . S
C1543 C1540 1.511 . S
C1543 H1557 0.961 . S
C1543 H1558 0.961 . S
C1543 H1559 0.961 . S
C1544 C1545 1.370 . S
C1544 C1546 1.363 . S
C1544 H1560 0.931 . S
C1545 C1544 1.370 . S
C1545 C1549 1.408 . S
C1546 C1544 1.363 . S
C1546 C1547 1.370 . S
C1546 C1550 1.524 . S
C1547 C1539 1.503 . S
C1547 C1546 1.370 . S
C1547 C1548 1.403 . S
C1548 C1547 1.403 . S
C1548 C1549 1.404 . S
C1548 C1551 1.539 . S
C1549 C1545 1.408 . S
C1549 C1548 1.404 . S
C1549 H1561 0.930 . S
C1550 C1546 1.524 . S
C1550 H1562 0.956 . S
C1550 H1563 0.961 . S
C1550 H1564 0.961 . S
C1551 C1548 1.539 . S
C1551 H1565 0.958 . S
C1551 H1566 0.961 . S
C1551 H1567 0.960 . S
H1552 C1536 0.931 . S
H1553 C1541 0.929 . S
H1554 C1542 0.960 . S
H1555 C1542 0.962 . S
H1556 C1542 0.960 . S
H1557 C1543 0.961 . S
H1558 C1543 0.961 . S
H1559 C1543 0.961 . S
H1560 C1544 0.931 . S
H1561 C1549 0.930 . S
H1562 C1550 0.956 . S
H1563 C1550 0.961 . S
H1564 C1550 0.961 . S
H1565 C1551 0.958 . S
H1566 C1551 0.961 . S
H1567 C1551 0.960 . S
C1568 C1569 1.391 . S
C1568 C1570 1.394 . S
C1568 H1584 0.931 . S
C1569 C1568 1.391 . S
C1569 C1573 1.376 . S
C1570 C1568 1.394 . S
C1570 C1571 1.369 . S
C1570 C1574 1.531 . S
C1571 C1570 1.369 . S
C1571 C1572 1.410 . S
C1571 C1579 1.503 . S
C1572 C1571 1.410 . S
C1572 C1573 1.392 . S
C1572 C1575 1.511 . S
C1573 C1569 1.376 . S
C1573 C1572 1.392 . S
C1573 H1585 0.929 . S
C1574 C1570 1.531 . S
C1574 H1586 0.960 . S
C1574 H1587 0.962 . S
C1574 H1588 0.960 . S
C1575 C1572 1.511 . S
C1575 H1589 0.961 . S
C1575 H1590 0.961 . S
C1575 H1591 0.961 . S
C1576 C1577 1.370 . S
C1576 C1578 1.363 . S
C1576 H1592 0.931 . S
C1577 C1576 1.370 . S
C1577 C1581 1.408 . S
C1578 C1576 1.363 . S
C1578 C1579 1.370 . S
C1578 C1582 1.524 . S
C1579 C1571 1.503 . S
C1579 C1578 1.370 . S
C1579 C1580 1.403 . S
C1580 C1579 1.403 . S
C1580 C1581 1.404 . S
C1580 C1583 1.539 . S
C1581 C1577 1.408 . S
C1581 C1580 1.404 . S
C1581 H1593 0.930 . S
C1582 C1578 1.524 . S
C1582 H1594 0.956 . S
C1582 H1595 0.961 . S
C1582 H1596 0.961 . S
C1583 C1580 1.539 . S
C1583 H1597 0.958 . S
C1583 H1598 0.961 . S
C1583 H1599 0.960 . S
H1584 C1568 0.931 . S
H1585 C1573 0.929 . S
H1586 C1574 0.960 . S
H1587 C1574 0.962 . S
H1588 C1574 0.960 . S
H1589 C1575 0.961 . S
H1590 C1575 0.961 . S
H1591 C1575 0.961 . S
H1592 C1576 0.931 . S
H1593 C1581 0.930 . S
H1594 C1582 0.956 . S
H1595 C1582 0.961 . S
H1596 C1582 0.961 . S
H1597 C1583 0.958 . S
H1598 C1583 0.961 . S
H1599 C1583 0.960 . S
C1600 C1601 1.391 . S
C1600 C1602 1.394 . S
C1600 H1616 0.931 . S
C1601 C1600 1.391 . S
C1601 C1605 1.376 . S
C1602 C1600 1.394 . S
C1602 C1603 1.369 . S
C1602 C1606 1.531 . S
C1603 C1602 1.369 . S
C1603 C1604 1.410 . S
C1603 C1611 1.503 . S
C1604 C1603 1.410 . S
C1604 C1605 1.392 . S
C1604 C1607 1.511 . S
C1605 C1601 1.376 . S
C1605 C1604 1.392 . S
C1605 H1617 0.929 . S
C1606 C1602 1.531 . S
C1606 H1618 0.960 . S
C1606 H1619 0.962 . S
C1606 H1620 0.960 . S
C1607 C1604 1.511 . S
C1607 H1621 0.961 . S
C1607 H1622 0.961 . S
C1607 H1623 0.961 . S
C1608 C1609 1.370 . S
C1608 C1610 1.363 . S
C1608 H1624 0.931 . S
C1609 C1608 1.370 . S
C1609 C1613 1.408 . S
C1610 C1608 1.363 . S
C1610 C1611 1.370 . S
C1610 C1614 1.524 . S
C1611 C1603 1.503 . S
C1611 C1610 1.370 . S
C1611 C1612 1.403 . S
C1612 C1611 1.403 . S
C1612 C1613 1.404 . S
C1612 C1615 1.539 . S
C1613 C1609 1.408 . S
C1613 C1612 1.404 . S
C1613 H1625 0.930 . S
C1614 C1610 1.524 . S
C1614 H1626 0.956 . S
C1614 H1627 0.961 . S
C1614 H1628 0.961 . S
C1615 C1612 1.539 . S
C1615 H1629 0.958 . S
C1615 H1630 0.961 . S
C1615 H1631 0.960 . S
H1616 C1600 0.931 . S
H1617 C1605 0.929 . S
H1618 C1606 0.960 . S
H1619 C1606 0.962 . S
H1620 C1606 0.960 . S
H1621 C1607 0.961 . S
H1622 C1607 0.961 . S
H1623 C1607 0.961 . S
H1624 C1608 0.931 . S
H1625 C1613 0.930 . S
H1626 C1614 0.956 . S
H1627 C1614 0.961 . S
H1628 C1614 0.961 . S
H1629 C1615 0.958 . S
H1630 C1615 0.961 . S
H1631 C1615 0.960 . S
C1632 C1633 1.391 . S
C1632 C1634 1.394 . S
C1632 H1648 0.931 . S
C1633 C1632 1.391 . S
C1633 C1637 1.376 . S
C1634 C1632 1.394 . S
C1634 C1635 1.369 . S
C1634 C1638 1.531 . S
C1635 C1634 1.369 . S
C1635 C1636 1.410 . S
C1635 C1643 1.503 . S
C1636 C1635 1.410 . S
C1636 C1637 1.392 . S
C1636 C1639 1.511 . S
C1637 C1633 1.376 . S
C1637 C1636 1.392 . S
C1637 H1649 0.929 . S
C1638 C1634 1.531 . S
C1638 H1650 0.960 . S
C1638 H1651 0.962 . S
C1638 H1652 0.960 . S
C1639 C1636 1.511 . S
C1639 H1653 0.961 . S
C1639 H1654 0.961 . S
C1639 H1655 0.961 . S
C1640 C1641 1.370 . S
C1640 C1642 1.363 . S
C1640 H1656 0.931 . S
C1641 C1640 1.370 . S
C1641 C1645 1.408 . S
C1642 C1640 1.363 . S
C1642 C1643 1.370 . S
C1642 C1646 1.524 . S
C1643 C1635 1.503 . S
C1643 C1642 1.370 . S
C1643 C1644 1.403 . S
C1644 C1643 1.403 . S
C1644 C1645 1.404 . S
C1644 C1647 1.539 . S
C1645 C1641 1.408 . S
C1645 C1644 1.404 . S
C1645 H1657 0.930 . S
C1646 C1642 1.524 . S
C1646 H1658 0.956 . S
C1646 H1659 0.961 . S
C1646 H1660 0.961 . S
C1647 C1644 1.539 . S
C1647 H1661 0.958 . S
C1647 H1662 0.961 . S
C1647 H1663 0.960 . S
H1648 C1632 0.931 . S
H1649 C1637 0.929 . S
H1650 C1638 0.960 . S
H1651 C1638 0.962 . S
H1652 C1638 0.960 . S
H1653 C1639 0.961 . S
H1654 C1639 0.961 . S
H1655 C1639 0.961 . S
H1656 C1640 0.931 . S
H1657 C1645 0.930 . S
H1658 C1646 0.956 . S
H1659 C1646 0.961 . S
H1660 C1646 0.961 . S
H1661 C1647 0.958 . S
H1662 C1647 0.961 . S
H1663 C1647 0.960 . S
C1664 C1665 1.391 . S
C1664 C1666 1.394 . S
C1664 H1680 0.931 . S
C1665 C1664 1.391 . S
C1665 C1669 1.376 . S
C1666 C1664 1.394 . S
C1666 C1667 1.369 . S
C1666 C1670 1.531 . S
C1667 C1666 1.369 . S
C1667 C1668 1.410 . S
C1667 C1675 1.503 . S
C1668 C1667 1.410 . S
C1668 C1669 1.392 . S
C1668 C1671 1.511 . S
C1669 C1665 1.376 . S
C1669 C1668 1.392 . S
C1669 H1681 0.929 . S
C1670 C1666 1.531 . S
C1670 H1682 0.960 . S
C1670 H1683 0.962 . S
C1670 H1684 0.960 . S
C1671 C1668 1.511 . S
C1671 H1685 0.961 . S
C1671 H1686 0.961 . S
C1671 H1687 0.961 . S
C1672 C1673 1.370 . S
C1672 C1674 1.363 . S
C1672 H1688 0.931 . S
C1673 C1672 1.370 . S
C1673 C1677 1.408 . S
C1674 C1672 1.363 . S
C1674 C1675 1.370 . S
C1674 C1678 1.524 . S
C1675 C1667 1.503 . S
C1675 C1674 1.370 . S
C1675 C1676 1.403 . S
C1676 C1675 1.403 . S
C1676 C1677 1.404 . S
C1676 C1679 1.539 . S
C1677 C1673 1.408 . S
C1677 C1676 1.404 . S
C1677 H1689 0.930 . S
C1678 C1674 1.524 . S
C1678 H1690 0.956 . S
C1678 H1691 0.961 . S
C1678 H1692 0.961 . S
C1679 C1676 1.539 . S
C1679 H1693 0.958 . S
C1679 H1694 0.961 . S
C1679 H1695 0.960 . S
H1680 C1664 0.931 . S
H1681 C1669 0.929 . S
H1682 C1670 0.960 . S
H1683 C1670 0.962 . S
H1684 C1670 0.960 . S
H1685 C1671 0.961 . S
H1686 C1671 0.961 . S
H1687 C1671 0.961 . S
H1688 C1672 0.931 . S
H1689 C1677 0.930 . S
H1690 C1678 0.956 . S
H1691 C1678 0.961 . S
H1692 C1678 0.961 . S
H1693 C1679 0.958 . S
H1694 C1679 0.961 . S
H1695 C1679 0.960 . S
C1696 C1697 1.391 . S
C1696 C1698 1.394 . S
C1696 H1712 0.931 . S
C1697 C1696 1.391 . S
C1697 C1701 1.376 . S
C1698 C1696 1.394 . S
C1698 C1699 1.369 . S
C1698 C1702 1.531 . S
C1699 C1698 1.369 . S
C1699 C1700 1.410 . S
C1699 C1707 1.503 . S
C1700 C1699 1.410 . S
C1700 C1701 1.392 . S
C1700 C1703 1.511 . S
C1701 C1697 1.376 . S
C1701 C1700 1.392 . S
C1701 H1713 0.929 . S
C1702 C1698 1.531 . S
C1702 H1714 0.960 . S
C1702 H1715 0.962 . S
C1702 H1716 0.960 . S
C1703 C1700 1.511 . S
C1703 H1717 0.961 . S
C1703 H1718 0.961 . S
C1703 H1719 0.961 . S
C1704 C1705 1.370 . S
C1704 C1706 1.363 . S
C1704 H1720 0.931 . S
C1705 C1704 1.370 . S
C1705 C1709 1.408 . S
C1706 C1704 1.363 . S
C1706 C1707 1.370 . S
C1706 C1710 1.524 . S
C1707 C1699 1.503 . S
C1707 C1706 1.370 . S
C1707 C1708 1.403 . S
C1708 C1707 1.403 . S
C1708 C1709 1.404 . S
C1708 C1711 1.539 . S
C1709 C1705 1.408 . S
C1709 C1708 1.404 . S
C1709 H1721 0.930 . S
C1710 C1706 1.524 . S
C1710 H1722 0.956 . S
C1710 H1723 0.961 . S
C1710 H1724 0.961 . S
C1711 C1708 1.539 . S
C1711 H1725 0.958 . S
C1711 H1726 0.961 . S
C1711 H1727 0.960 . S
H1712 C1696 0.931 . S
H1713 C1701 0.929 . S
H1714 C1702 0.960 . S
H1715 C1702 0.962 . S
H1716 C1702 0.960 . S
H1717 C1703 0.961 . S
H1718 C1703 0.961 . S
H1719 C1703 0.961 . S
H1720 C1704 0.931 . S
H1721 C1709 0.930 . S
H1722 C1710 0.956 . S
H1723 C1710 0.961 . S
H1724 C1710 0.961 . S
H1725 C1711 0.958 . S
H1726 C1711 0.961 . S
H1727 C1711 0.960 . S
C1728 C1729 1.391 . S
C1728 C1730 1.394 . S
C1728 H1744 0.931 . S
C1729 C1728 1.391 . S
C1729 C1733 1.376 . S
C1730 C1728 1.394 . S
C1730 C1731 1.369 . S
C1730 C1734 1.531 . S
C1731 C1730 1.369 . S
C1731 C1732 1.410 . S
C1731 C1739 1.503 . S
C1732 C1731 1.410 . S
C1732 C1733 1.392 . S
C1732 C1735 1.511 . S
C1733 C1729 1.376 . S
C1733 C1732 1.392 . S
C1733 H1745 0.929 . S
C1734 C1730 1.531 . S
C1734 H1746 0.960 . S
C1734 H1747 0.962 . S
C1734 H1748 0.960 . S
C1735 C1732 1.511 . S
C1735 H1749 0.961 . S
C1735 H1750 0.961 . S
C1735 H1751 0.961 . S
C1736 C1737 1.370 . S
C1736 C1738 1.363 . S
C1736 H1752 0.931 . S
C1737 C1736 1.370 . S
C1737 C1741 1.408 . S
C1738 C1736 1.363 . S
C1738 C1739 1.370 . S
C1738 C1742 1.524 . S
C1739 C1731 1.503 . S
C1739 C1738 1.370 . S
C1739 C1740 1.403 . S
C1740 C1739 1.403 . S
C1740 C1741 1.404 . S
C1740 C1743 1.539 . S
C1741 C1737 1.408 . S
C1741 C1740 1.404 . S
C1741 H1753 0.930 . S
C1742 C1738 1.524 . S
C1742 H1754 0.956 . S
C1742 H1755 0.961 . S
C1742 H1756 0.961 . S
C1743 C1740 1.539 . S
C1743 H1757 0.958 . S
C1743 H1758 0.961 . S
C1743 H1759 0.960 . S
H1744 C1728 0.931 . S
H1745 C1733 0.929 . S
H1746 C1734 0.960 . S
H1747 C1734 0.962 . S
H1748 C1734 0.960 . S
H1749 C1735 0.961 . S
H1750 C1735 0.961 . S
H1751 C1735 0.961 . S
H1752 C1736 0.931 . S
H1753 C1741 0.930 . S
H1754 C1742 0.956 . S
H1755 C1742 0.961 . S
H1756 C1742 0.961 . S
H1757 C1743 0.958 . S
H1758 C1743 0.961 . S
H1759 C1743 0.960 . S
C1760 C1761 1.391 . S
C1760 C1762 1.394 . S
C1760 H1776 0.931 . S
C1761 C1760 1.391 . S
C1761 C1765 1.376 . S
C1762 C1760 1.394 . S
C1762 C1763 1.369 . S
C1762 C1766 1.531 . S
C1763 C1762 1.369 . S
C1763 C1764 1.410 . S
C1763 C1771 1.503 . S
C1764 C1763 1.410 . S
C1764 C1765 1.392 . S
C1764 C1767 1.511 . S
C1765 C1761 1.376 . S
C1765 C1764 1.392 . S
C1765 H1777 0.929 . S
C1766 C1762 1.531 . S
C1766 H1778 0.960 . S
C1766 H1779 0.962 . S
C1766 H1780 0.960 . S
C1767 C1764 1.511 . S
C1767 H1781 0.961 . S
C1767 H1782 0.961 . S
C1767 H1783 0.961 . S
C1768 C1769 1.370 . S
C1768 C1770 1.363 . S
C1768 H1784 0.931 . S
C1769 C1768 1.370 . S
C1769 C1773 1.408 . S
C1770 C1768 1.363 . S
C1770 C1771 1.370 . S
C1770 C1774 1.524 . S
C1771 C1763 1.503 . S
C1771 C1770 1.370 . S
C1771 C1772 1.403 . S
C1772 C1771 1.403 . S
C1772 C1773 1.404 . S
C1772 C1775 1.539 . S
C1773 C1769 1.408 . S
C1773 C1772 1.404 . S
C1773 H1785 0.930 . S
C1774 C1770 1.524 . S
C1774 H1786 0.956 . S
C1774 H1787 0.961 . S
C1774 H1788 0.961 . S
C1775 C1772 1.539 . S
C1775 H1789 0.958 . S
C1775 H1790 0.961 . S
C1775 H1791 0.960 . S
H1776 C1760 0.931 . S
H1777 C1765 0.929 . S
H1778 C1766 0.960 . S
H1779 C1766 0.962 . S
H1780 C1766 0.960 . S
H1781 C1767 0.961 . S
H1782 C1767 0.961 . S
H1783 C1767 0.961 . S
H1784 C1768 0.931 . S
H1785 C1773 0.930 . S
H1786 C1774 0.956 . S
H1787 C1774 0.961 . S
H1788 C1774 0.961 . S
H1789 C1775 0.958 . S
H1790 C1775 0.961 . S
H1791 C1775 0.960 . S
C1792 C1793 1.391 . S
C1792 C1794 1.394 . S
C1792 H1808 0.931 . S
C1793 C1792 1.391 . S
C1793 C1797 1.376 . S
C1794 C1792 1.394 . S
C1794 C1795 1.369 . S
C1794 C1798 1.531 . S
C1795 C1794 1.369 . S
C1795 C1796 1.410 . S
C1795 C1803 1.503 . S
C1796 C1795 1.410 . S
C1796 C1797 1.392 . S
C1796 C1799 1.511 . S
C1797 C1793 1.376 . S
C1797 C1796 1.392 . S
C1797 H1809 0.929 . S
C1798 C1794 1.531 . S
C1798 H1810 0.960 . S
C1798 H1811 0.962 . S
C1798 H1812 0.960 . S
C1799 C1796 1.511 . S
C1799 H1813 0.961 . S
C1799 H1814 0.961 . S
C1799 H1815 0.961 . S
C1800 C1801 1.370 . S
C1800 C1802 1.363 . S
C1800 H1816 0.931 . S
C1801 C1800 1.370 . S
C1801 C1805 1.408 . S
C1802 C1800 1.363 . S
C1802 C1803 1.370 . S
C1802 C1806 1.524 . S
C1803 C1795 1.503 . S
C1803 C1802 1.370 . S
C1803 C1804 1.403 . S
C1804 C1803 1.403 . S
C1804 C1805 1.404 . S
C1804 C1807 1.539 . S
C1805 C1801 1.408 . S
C1805 C1804 1.404 . S
C1805 H1817 0.930 . S
C1806 C1802 1.524 . S
C1806 H1818 0.956 . S
C1806 H1819 0.961 . S
C1806 H1820 0.961 . S
C1807 C1804 1.539 . S
C1807 H1821 0.958 . S
C1807 H1822 0.961 . S
C1807 H1823 0.960 . S
H1808 C1792 0.931 . S
H1809 C1797 0.929 . S
H1810 C1798 0.960 . S
H1811 C1798 0.962 . S
H1812 C1798 0.960 . S
H1813 C1799 0.961 . S
H1814 C1799 0.961 . S
H1815 C1799 0.961 . S
H1816 C1800 0.931 . S
H1817 C1805 0.930 . S
H1818 C1806 0.956 . S
H1819 C1806 0.961 . S
H1820 C1806 0.961 . S
H1821 C1807 0.958 . S
H1822 C1807 0.961 . S
H1823 C1807 0.960 . S
C1824 C1825 1.391 . S
C1824 C1826 1.394 . S
C1824 H1840 0.931 . S
C1825 C1824 1.391 . S
C1825 C1829 1.376 . S
C1826 C1824 1.394 . S
C1826 C1827 1.369 . S
C1826 C1830 1.531 . S
C1827 C1826 1.369 . S
C1827 C1828 1.410 . S
C1827 C1835 1.503 . S
C1828 C1827 1.410 . S
C1828 C1829 1.392 . S
C1828 C1831 1.511 . S
C1829 C1825 1.376 . S
C1829 C1828 1.392 . S
C1829 H1841 0.929 . S
C1830 C1826 1.531 . S
C1830 H1842 0.960 . S
C1830 H1843 0.962 . S
C1830 H1844 0.960 1_556 S
C1831 C1828 1.511 . S
C1831 H1845 0.961 . S
C1831 H1846 0.961 . S
C1831 H1847 0.961 . S
C1832 C1833 1.370 . S
C1832 C1834 1.363 . S
C1832 H1848 0.931 . S
C1833 C1832 1.370 . S
C1833 C1837 1.408 . S
C1834 C1832 1.363 . S
C1834 C1835 1.370 . S
C1834 C1838 1.524 . S
C1835 C1827 1.503 . S
C1835 C1834 1.370 . S
C1835 C1836 1.403 . S
C1836 C1835 1.403 . S
C1836 C1837 1.404 . S
C1836 C1839 1.539 . S
C1837 C1833 1.408 . S
C1837 C1836 1.404 . S
C1837 H1849 0.930 . S
C1838 C1834 1.524 . S
C1838 H1850 0.956 . S
C1838 H1851 0.961 . S
C1838 H1852 0.961 . S
C1839 C1836 1.539 . S
C1839 H1853 0.958 1_556 S
C1839 H1854 0.961 . S
C1839 H1855 0.960 . S
H1840 C1824 0.931 . S
H1841 C1829 0.929 . S
H1842 C1830 0.960 . S
H1843 C1830 0.962 . S
H1844 C1830 0.960 1_554 S
H1845 C1831 0.961 . S
H1846 C1831 0.961 . S
H1847 C1831 0.961 . S
H1848 C1832 0.931 . S
H1849 C1837 0.930 . S
H1850 C1838 0.956 . S
H1851 C1838 0.961 . S
H1852 C1838 0.961 . S
H1853 C1839 0.958 1_554 S
H1854 C1839 0.961 . S
H1855 C1839 0.960 . S
C1856 C1857 1.391 . S
C1856 C1858 1.394 . S
C1856 H1872 0.931 . S
C1857 C1856 1.391 . S
C1857 C1861 1.376 . S
C1858 C1856 1.394 . S
C1858 C1859 1.369 . S
C1858 C1862 1.531 . S
C1859 C1858 1.369 . S
C1859 C1860 1.410 . S
C1859 C1867 1.503 . S
C1860 C1859 1.410 . S
C1860 C1861 1.392 . S
C1860 C1863 1.511 . S
C1861 C1857 1.376 . S
C1861 C1860 1.392 . S
C1861 H1873 0.929 1_556 S
C1862 C1858 1.531 . S
C1862 H1874 0.960 . S
C1862 H1875 0.962 . S
C1862 H1876 0.960 . S
C1863 C1860 1.511 . S
C1863 H1877 0.961 . S
C1863 H1878 0.961 . S
C1863 H1879 0.961 1_556 S
C1864 C1865 1.370 . S
C1864 C1866 1.363 . S
C1864 H1880 0.931 . S
C1865 C1864 1.370 . S
C1865 C1869 1.408 . S
C1866 C1864 1.363 . S
C1866 C1867 1.370 . S
C1866 C1870 1.524 . S
C1867 C1859 1.503 . S
C1867 C1866 1.370 . S
C1867 C1868 1.403 . S
C1868 C1867 1.403 . S
C1868 C1869 1.404 . S
C1868 C1871 1.539 . S
C1869 C1865 1.408 . S
C1869 C1868 1.404 . S
C1869 H1881 0.930 . S
C1870 C1866 1.524 . S
C1870 H1882 0.956 . S
C1870 H1883 0.961 . S
C1870 H1884 0.961 . S
C1871 C1868 1.539 . S
C1871 H1885 0.958 . S
C1871 H1886 0.961 . S
C1871 H1887 0.960 . S
H1872 C1856 0.931 . S
H1873 C1861 0.929 1_554 S
H1874 C1862 0.960 . S
H1875 C1862 0.962 . S
H1876 C1862 0.960 . S
H1877 C1863 0.961 . S
H1878 C1863 0.961 . S
H1879 C1863 0.961 1_554 S
H1880 C1864 0.931 . S
H1881 C1869 0.930 . S
H1882 C1870 0.956 . S
H1883 C1870 0.961 . S
H1884 C1870 0.961 . S
H1885 C1871 0.958 . S
H1886 C1871 0.961 . S
H1887 C1871 0.960 . S
C1888 C1889 1.391 . S
C1888 C1890 1.394 . S
C1888 H1904 0.931 . S
C1889 C1888 1.391 . S
C1889 C1893 1.376 . S
C1890 C1888 1.394 . S
C1890 C1891 1.369 . S
C1890 C1894 1.531 . S
C1891 C1890 1.369 . S
C1891 C1892 1.410 . S
C1891 C1899 1.503 . S
C1892 C1891 1.410 . S
C1892 C1893 1.392 . S
C1892 C1895 1.511 . S
C1893 C1889 1.376 . S
C1893 C1892 1.392 . S
C1893 H1905 0.929 . S
C1894 C1890 1.531 . S
C1894 H1906 0.960 . S
C1894 H1907 0.962 . S
C1894 H1908 0.960 . S
C1895 C1892 1.511 . S
C1895 H1909 0.961 . S
C1895 H1910 0.961 . S
C1895 H1911 0.961 . S
C1896 C1897 1.370 . S
C1896 C1898 1.363 . S
C1896 H1912 0.931 . S
C1897 C1896 1.370 . S
C1897 C1901 1.408 . S
C1898 C1896 1.363 . S
C1898 C1899 1.370 . S
C1898 C1902 1.524 . S
C1899 C1891 1.503 . S
C1899 C1898 1.370 . S
C1899 C1900 1.403 . S
C1900 C1899 1.403 . S
C1900 C1901 1.404 . S
C1900 C1903 1.539 . S
C1901 C1897 1.408 . S
C1901 C1900 1.404 . S
C1901 H1913 0.930 . S
C1902 C1898 1.524 . S
C1902 H1914 0.956 . S
C1902 H1915 0.961 . S
C1902 H1916 0.961 . S
C1903 C1900 1.539 . S
C1903 H1917 0.958 . S
C1903 H1918 0.954 1_556 S
C1903 H1919 0.958 . S
H1904 C1888 0.931 . S
H1905 C1893 0.929 . S
H1906 C1894 0.960 . S
H1907 C1894 0.962 . S
H1908 C1894 0.960 . S
H1909 C1895 0.961 . S
H1910 C1895 0.961 . S
H1911 C1895 0.961 . S
H1912 C1896 0.931 . S
H1913 C1901 0.930 . S
H1914 C1902 0.956 . S
H1915 C1902 0.961 . S
H1916 C1902 0.961 . S
H1917 C1903 0.958 . S
H1918 C1903 0.954 1_554 S
H1919 C1903 0.958 . S
C1920 C1921 1.391 . S
C1920 C1922 1.394 . S
C1920 H1936 0.931 . S
C1921 C1920 1.391 . S
C1921 C1925 1.376 . S
C1922 C1920 1.394 . S
C1922 C1923 1.369 . S
C1922 C1926 1.531 . S
C1923 C1922 1.369 . S
C1923 C1924 1.410 . S
C1923 C1931 1.503 . S
C1924 C1923 1.410 . S
C1924 C1925 1.392 . S
C1924 C1927 1.511 . S
C1925 C1921 1.376 . S
C1925 C1924 1.392 . S
C1925 H1937 0.929 1_556 S
C1926 C1922 1.531 . S
C1926 H1938 0.960 . S
C1926 H1939 0.962 . S
C1926 H1940 0.960 . S
C1927 C1924 1.511 . S
C1927 H1941 0.961 1_556 S
C1927 H1942 0.961 . S
C1927 H1943 0.961 1_556 S
C1928 C1929 1.370 . S
C1928 C1930 1.363 . S
C1928 H1944 0.931 . S
C1929 C1928 1.370 . S
C1929 C1933 1.408 . S
C1930 C1928 1.363 . S
C1930 C1931 1.370 . S
C1930 C1934 1.524 . S
C1931 C1923 1.503 . S
C1931 C1930 1.370 . S
C1931 C1932 1.403 . S
C1932 C1931 1.403 . S
C1932 C1933 1.404 . S
C1932 C1935 1.539 . S
C1933 C1929 1.408 . S
C1933 C1932 1.404 . S
C1933 H1945 0.930 . S
C1934 C1930 1.524 . S
C1934 H1946 0.956 . S
C1934 H1947 0.961 . S
C1934 H1948 0.961 . S
C1935 C1932 1.539 . S
C1935 H1949 0.958 . S
C1935 H1950 0.961 . S
C1935 H1951 0.960 . S
H1936 C1920 0.931 . S
H1937 C1925 0.929 1_554 S
H1938 C1926 0.960 . S
H1939 C1926 0.962 . S
H1940 C1926 0.960 . S
H1941 C1927 0.961 1_554 S
H1942 C1927 0.961 . S
H1943 C1927 0.961 1_554 S
H1944 C1928 0.931 . S
H1945 C1933 0.930 . S
H1946 C1934 0.956 . S
H1947 C1934 0.961 . S
H1948 C1934 0.961 . S
H1949 C1935 0.958 . S
H1950 C1935 0.961 . S
H1951 C1935 0.960 . S
C1952 C1953 1.391 . S
C1952 C1954 1.394 . S
C1952 H1968 0.931 . S
C1953 C1952 1.391 . S
C1953 C1957 1.376 . S
C1954 C1952 1.394 . S
C1954 C1955 1.369 . S
C1954 C1958 1.531 . S
C1955 C1954 1.369 . S
C1955 C1956 1.410 . S
C1955 C1963 1.503 . S
C1956 C1955 1.410 . S
C1956 C1957 1.392 . S
C1956 C1959 1.511 . S
C1957 C1953 1.376 . S
C1957 C1956 1.392 . S
C1957 H1969 0.929 . S
C1958 C1954 1.531 . S
C1958 H1970 0.960 . S
C1958 H1971 0.962 . S
C1958 H1972 0.960 . S
C1959 C1956 1.511 . S
C1959 H1973 0.961 . S
C1959 H1974 0.961 . S
C1959 H1975 0.961 . S
C1960 C1961 1.370 . S
C1960 C1962 1.363 . S
C1960 H1976 0.931 . S
C1961 C1960 1.370 . S
C1961 C1965 1.408 . S
C1962 C1960 1.363 . S
C1962 C1963 1.370 . S
C1962 C1966 1.524 . S
C1963 C1955 1.503 . S
C1963 C1962 1.370 . S
C1963 C1964 1.403 . S
C1964 C1963 1.403 . S
C1964 C1965 1.404 . S
C1964 C1967 1.539 . S
C1965 C1961 1.408 . S
C1965 C1964 1.404 . S
C1965 H1977 0.930 . S
C1966 C1962 1.524 . S
C1966 H1978 0.956 . S
C1966 H1979 0.961 . S
C1966 H1980 0.961 . S
C1967 C1964 1.539 . S
C1967 H1981 0.971 . S
C1967 H1982 0.961 1_556 S
C1967 H1983 0.958 1_556 S
H1968 C1952 0.931 . S
H1969 C1957 0.929 . S
H1970 C1958 0.960 . S
H1971 C1958 0.962 . S
H1972 C1958 0.960 . S
H1973 C1959 0.961 . S
H1974 C1959 0.961 . S
H1975 C1959 0.961 . S
H1976 C1960 0.931 . S
H1977 C1965 0.930 . S
H1978 C1966 0.956 . S
H1979 C1966 0.961 . S
H1980 C1966 0.961 . S
H1981 C1967 0.971 . S
H1982 C1967 0.961 1_554 S
H1983 C1967 0.958 1_554 S
C1984 C1985 1.391 . S
C1984 C1986 1.394 . S
C1984 H2000 0.931 . S
C1985 C1984 1.391 . S
C1985 C1989 1.376 . S
C1986 C1984 1.394 . S
C1986 C1987 1.369 . S
C1986 C1990 1.531 . S
C1987 C1986 1.369 . S
C1987 C1988 1.410 . S
C1987 C1995 1.503 . S
C1988 C1987 1.410 . S
C1988 C1989 1.392 . S
C1988 C1991 1.511 . S
C1989 C1985 1.376 . S
C1989 C1988 1.392 . S
C1989 H2001 0.929 1_556 S
C1990 C1986 1.531 . S
C1990 H2002 0.960 . S
C1990 H2003 0.962 . S
C1990 H2004 0.960 . S
C1991 C1988 1.511 . S
C1991 H2005 0.961 1_556 S
C1991 H2006 0.961 . S
C1991 H2007 0.961 . S
C1992 C1993 1.370 . S
C1992 C1994 1.363 . S
C1992 H2008 0.931 . S
C1993 C1992 1.370 . S
C1993 C1997 1.408 . S
C1994 C1992 1.363 . S
C1994 C1995 1.370 . S
C1994 C1998 1.524 . S
C1995 C1987 1.503 . S
C1995 C1994 1.370 . S
C1995 C1996 1.403 . S
C1996 C1995 1.403 . S
C1996 C1997 1.404 . S
C1996 C1999 1.539 . S
C1997 C1993 1.408 . S
C1997 C1996 1.404 . S
C1997 H2009 0.930 . S
C1998 C1994 1.524 . S
C1998 H2010 0.956 . S
C1998 H2011 0.961 . S
C1998 H2012 0.961 . S
C1999 C1996 1.539 . S
C1999 H2013 0.958 . S
C1999 H2014 0.961 . S
C1999 H2015 0.960 . S
H2000 C1984 0.931 . S
H2001 C1989 0.929 1_554 S
H2002 C1990 0.960 . S
H2003 C1990 0.962 . S
H2004 C1990 0.960 . S
H2005 C1991 0.961 1_554 S
H2006 C1991 0.961 . S
H2007 C1991 0.961 . S
H2008 C1992 0.931 . S
H2009 C1997 0.930 . S
H2010 C1998 0.956 . S
H2011 C1998 0.961 . S
H2012 C1998 0.961 . S
H2013 C1999 0.958 . S
H2014 C1999 0.961 . S
H2015 C1999 0.960 . S
C2016 C2017 1.391 . S
C2016 C2018 1.394 . S
C2016 H2032 0.931 . S
C2017 C2016 1.391 . S
C2017 C2021 1.376 . S
C2018 C2016 1.394 . S
C2018 C2019 1.369 . S
C2018 C2022 1.531 . S
C2019 C2018 1.369 . S
C2019 C2020 1.410 . S
C2019 C2027 1.503 . S
C2020 C2019 1.410 . S
C2020 C2021 1.392 . S
C2020 C2023 1.511 . S
C2021 C2017 1.376 . S
C2021 C2020 1.392 . S
C2021 H2033 0.929 . S
C2022 C2018 1.531 . S
C2022 H2034 0.960 . S
C2022 H2035 0.962 . S
C2022 H2036 0.960 . S
C2023 C2020 1.511 . S
C2023 H2037 0.961 . S
C2023 H2038 0.961 . S
C2023 H2039 0.961 . S
C2024 C2025 1.370 . S
C2024 C2026 1.363 . S
C2024 H2040 0.931 . S
C2025 C2024 1.370 . S
C2025 C2029 1.408 . S
C2026 C2024 1.363 . S
C2026 C2027 1.370 . S
C2026 C2030 1.524 . S
C2027 C2019 1.503 . S
C2027 C2026 1.370 . S
C2027 C2028 1.403 . S
C2028 C2027 1.403 . S
C2028 C2029 1.404 . S
C2028 C2031 1.539 . S
C2029 C2025 1.408 . S
C2029 C2028 1.404 . S
C2029 H2041 0.930 . S
C2030 C2026 1.524 . S
C2030 H2042 0.956 . S
C2030 H2043 0.961 . S
C2030 H2044 0.961 . S
C2031 C2028 1.539 . S
C2031 H2045 0.958 . S
C2031 H2046 0.961 . S
C2031 H2047 0.960 . S
H2032 C2016 0.931 . S
H2033 C2021 0.929 . S
H2034 C2022 0.960 . S
H2035 C2022 0.962 . S
H2036 C2022 0.960 . S
H2037 C2023 0.961 . S
H2038 C2023 0.961 . S
H2039 C2023 0.961 . S
H2040 C2024 0.931 . S
H2041 C2029 0.930 . S
H2042 C2030 0.956 . S
H2043 C2030 0.961 . S
H2044 C2030 0.961 . S
H2045 C2031 0.958 . S
H2046 C2031 0.961 . S
H2047 C2031 0.960 . S
C2048 C2049 1.391 . S
C2048 C2050 1.394 . S
C2048 H2064 0.931 . S
C2049 C2048 1.391 . S
C2049 C2053 1.376 . S
C2050 C2048 1.394 . S
C2050 C2051 1.369 . S
C2050 C2054 1.531 . S
C2051 C2050 1.369 . S
C2051 C2052 1.410 . S
C2051 C2059 1.503 . S
C2052 C2051 1.410 . S
C2052 C2053 1.392 . S
C2052 C2055 1.511 . S
C2053 C2049 1.376 . S
C2053 C2052 1.392 . S
C2053 H2065 0.929 . S
C2054 C2050 1.531 . S
C2054 H2066 0.960 . S
C2054 H2067 0.962 . S
C2054 H2068 0.960 . S
C2055 C2052 1.511 . S
C2055 H2069 0.961 . S
C2055 H2070 0.961 . S
C2055 H2071 0.961 . S
C2056 C2057 1.370 . S
C2056 C2058 1.363 . S
C2056 H2072 0.931 . S
C2057 C2056 1.370 . S
C2057 C2061 1.408 . S
C2058 C2056 1.363 . S
C2058 C2059 1.370 . S
C2058 C2062 1.524 . S
C2059 C2051 1.503 . S
C2059 C2058 1.370 . S
C2059 C2060 1.403 . S
C2060 C2059 1.403 . S
C2060 C2061 1.404 . S
C2060 C2063 1.539 . S
C2061 C2057 1.408 . S
C2061 C2060 1.404 . S
C2061 H2073 0.930 . S
C2062 C2058 1.524 . S
C2062 H2074 0.956 . S
C2062 H2075 0.961 . S
C2062 H2076 0.961 . S
C2063 C2060 1.539 . S
C2063 H2077 0.958 . S
C2063 H2078 0.961 . S
C2063 H2079 0.960 . S
H2064 C2048 0.931 . S
H2065 C2053 0.929 . S
H2066 C2054 0.960 . S
H2067 C2054 0.962 . S
H2068 C2054 0.960 . S
H2069 C2055 0.961 . S
H2070 C2055 0.961 . S
H2071 C2055 0.961 . S
H2072 C2056 0.931 . S
H2073 C2061 0.930 . S
H2074 C2062 0.956 . S
H2075 C2062 0.961 . S
H2076 C2062 0.961 . S
H2077 C2063 0.958 . S
H2078 C2063 0.961 . S
H2079 C2063 0.960 . S
C2080 C2081 1.391 . S
C2080 C2082 1.394 . S
C2080 H2096 0.931 . S
C2081 C2080 1.391 . S
C2081 C2085 1.376 . S
C2082 C2080 1.394 . S
C2082 C2083 1.369 . S
C2082 C2086 1.531 . S
C2083 C2082 1.369 . S
C2083 C2084 1.410 . S
C2083 C2091 1.503 . S
C2084 C2083 1.410 . S
C2084 C2085 1.392 . S
C2084 C2087 1.511 . S
C2085 C2081 1.376 . S
C2085 C2084 1.392 . S
C2085 H2097 0.929 . S
C2086 C2082 1.531 . S
C2086 H2098 0.960 . S
C2086 H2099 0.962 . S
C2086 H2100 0.960 . S
C2087 C2084 1.511 . S
C2087 H2101 0.961 . S
C2087 H2102 0.961 . S
C2087 H2103 0.961 . S
C2088 C2089 1.370 . S
C2088 C2090 1.363 . S
C2088 H2104 0.931 . S
C2089 C2088 1.370 . S
C2089 C2093 1.408 . S
C2090 C2088 1.363 . S
C2090 C2091 1.370 . S
C2090 C2094 1.524 . S
C2091 C2083 1.503 . S
C2091 C2090 1.370 . S
C2091 C2092 1.403 . S
C2092 C2091 1.403 . S
C2092 C2093 1.404 . S
C2092 C2095 1.539 . S
C2093 C2089 1.408 . S
C2093 C2092 1.404 . S
C2093 H2105 0.930 . S
C2094 C2090 1.524 . S
C2094 H2106 0.956 . S
C2094 H2107 0.961 . S
C2094 H2108 0.961 . S
C2095 C2092 1.539 . S
C2095 H2109 0.958 . S
C2095 H2110 0.961 . S
C2095 H2111 0.960 . S
H2096 C2080 0.931 . S
H2097 C2085 0.929 . S
H2098 C2086 0.960 . S
H2099 C2086 0.962 . S
H2100 C2086 0.960 . S
H2101 C2087 0.961 . S
H2102 C2087 0.961 . S
H2103 C2087 0.961 . S
H2104 C2088 0.931 . S
H2105 C2093 0.930 . S
H2106 C2094 0.956 . S
H2107 C2094 0.961 . S
H2108 C2094 0.961 . S
H2109 C2095 0.958 . S
H2110 C2095 0.961 . S
H2111 C2095 0.960 . S
C2112 C2113 1.391 . S
C2112 C2114 1.394 . S
C2112 H2128 0.931 . S
C2113 C2112 1.391 . S
C2113 C2117 1.376 . S
C2114 C2112 1.394 . S
C2114 C2115 1.369 . S
C2114 C2118 1.531 . S
C2115 C2114 1.369 . S
C2115 C2116 1.410 . S
C2115 C2123 1.503 . S
C2116 C2115 1.410 . S
C2116 C2117 1.392 . S
C2116 C2119 1.511 . S
C2117 C2113 1.376 . S
C2117 C2116 1.392 . S
C2117 H2129 0.929 . S
C2118 C2114 1.531 . S
C2118 H2130 0.960 . S
C2118 H2131 0.962 . S
C2118 H2132 0.960 . S
C2119 C2116 1.511 . S
C2119 H2133 0.961 . S
C2119 H2134 0.961 . S
C2119 H2135 0.961 . S
C2120 C2121 1.370 . S
C2120 C2122 1.363 . S
C2120 H2136 0.931 . S
C2121 C2120 1.370 . S
C2121 C2125 1.408 . S
C2122 C2120 1.363 . S
C2122 C2123 1.370 . S
C2122 C2126 1.524 . S
C2123 C2115 1.503 . S
C2123 C2122 1.370 . S
C2123 C2124 1.403 . S
C2124 C2123 1.403 . S
C2124 C2125 1.404 . S
C2124 C2127 1.539 . S
C2125 C2121 1.408 . S
C2125 C2124 1.404 . S
C2125 H2137 0.930 . S
C2126 C2122 1.524 . S
C2126 H2138 0.956 . S
C2126 H2139 0.961 . S
C2126 H2140 0.961 . S
C2127 C2124 1.539 . S
C2127 H2141 0.958 . S
C2127 H2142 0.961 . S
C2127 H2143 0.960 . S
H2128 C2112 0.931 . S
H2129 C2117 0.929 . S
H2130 C2118 0.960 . S
H2131 C2118 0.962 . S
H2132 C2118 0.960 . S
H2133 C2119 0.961 . S
H2134 C2119 0.961 . S
H2135 C2119 0.961 . S
H2136 C2120 0.931 . S
H2137 C2125 0.930 . S
H2138 C2126 0.956 . S
H2139 C2126 0.961 . S
H2140 C2126 0.961 . S
H2141 C2127 0.958 . S
H2142 C2127 0.961 . S
H2143 C2127 0.960 . S
C2144 C2145 1.391 . S
C2144 C2146 1.394 . S
C2144 H2160 0.931 . S
C2145 C2144 1.391 . S
C2145 C2149 1.376 . S
C2146 C2144 1.394 . S
C2146 C2147 1.369 . S
C2146 C2150 1.531 . S
C2147 C2146 1.369 . S
C2147 C2148 1.410 . S
C2147 C2155 1.503 . S
C2148 C2147 1.410 . S
C2148 C2149 1.392 . S
C2148 C2151 1.511 . S
C2149 C2145 1.376 . S
C2149 C2148 1.392 . S
C2149 H2161 0.929 . S
C2150 C2146 1.531 . S
C2150 H2162 0.960 . S
C2150 H2163 0.962 . S
C2150 H2164 0.960 . S
C2151 C2148 1.511 . S
C2151 H2165 0.961 . S
C2151 H2166 0.961 . S
C2151 H2167 0.961 . S
C2152 C2153 1.370 . S
C2152 C2154 1.363 . S
C2152 H2168 0.931 . S
C2153 C2152 1.370 . S
C2153 C2157 1.408 . S
C2154 C2152 1.363 . S
C2154 C2155 1.370 . S
C2154 C2158 1.524 . S
C2155 C2147 1.503 . S
C2155 C2154 1.370 . S
C2155 C2156 1.403 . S
C2156 C2155 1.403 . S
C2156 C2157 1.404 . S
C2156 C2159 1.539 . S
C2157 C2153 1.408 . S
C2157 C2156 1.404 . S
C2157 H2169 0.930 . S
C2158 C2154 1.524 . S
C2158 H2170 0.956 . S
C2158 H2171 0.961 . S
C2158 H2172 0.961 . S
C2159 C2156 1.539 . S
C2159 H2173 0.958 . S
C2159 H2174 0.961 . S
C2159 H2175 0.960 . S
H2160 C2144 0.931 . S
H2161 C2149 0.929 . S
H2162 C2150 0.960 . S
H2163 C2150 0.962 . S
H2164 C2150 0.960 . S
H2165 C2151 0.961 . S
H2166 C2151 0.961 . S
H2167 C2151 0.961 . S
H2168 C2152 0.931 . S
H2169 C2157 0.930 . S
H2170 C2158 0.956 . S
H2171 C2158 0.961 . S
H2172 C2158 0.961 . S
H2173 C2159 0.958 . S
H2174 C2159 0.961 . S
H2175 C2159 0.960 . S
C2176 C2177 1.391 . S
C2176 C2178 1.394 . S
C2176 H2192 0.931 . S
C2177 C2176 1.391 . S
C2177 C2181 1.376 . S
C2178 C2176 1.394 . S
C2178 C2179 1.369 . S
C2178 C2182 1.531 . S
C2179 C2178 1.369 . S
C2179 C2180 1.410 . S
C2179 C2187 1.503 . S
C2180 C2179 1.410 . S
C2180 C2181 1.392 . S
C2180 C2183 1.511 . S
C2181 C2177 1.376 . S
C2181 C2180 1.392 . S
C2181 H2193 0.929 . S
C2182 C2178 1.531 . S
C2182 H2194 0.960 . S
C2182 H2195 0.962 . S
C2182 H2196 0.960 . S
C2183 C2180 1.511 . S
C2183 H2197 0.961 . S
C2183 H2198 0.961 . S
C2183 H2199 0.961 . S
C2184 C2185 1.370 . S
C2184 C2186 1.363 . S
C2184 H2200 0.931 . S
C2185 C2184 1.370 . S
C2185 C2189 1.408 . S
C2186 C2184 1.363 . S
C2186 C2187 1.370 . S
C2186 C2190 1.524 . S
C2187 C2179 1.503 . S
C2187 C2186 1.370 . S
C2187 C2188 1.403 . S
C2188 C2187 1.403 . S
C2188 C2189 1.404 . S
C2188 C2191 1.539 . S
C2189 C2185 1.408 . S
C2189 C2188 1.404 . S
C2189 H2201 0.930 . S
C2190 C2186 1.524 . S
C2190 H2202 0.956 . S
C2190 H2203 0.961 . S
C2190 H2204 0.961 . S
C2191 C2188 1.539 . S
C2191 H2205 0.958 . S
C2191 H2206 0.961 . S
C2191 H2207 0.960 . S
H2192 C2176 0.931 . S
H2193 C2181 0.929 . S
H2194 C2182 0.960 . S
H2195 C2182 0.962 . S
H2196 C2182 0.960 . S
H2197 C2183 0.961 . S
H2198 C2183 0.961 . S
H2199 C2183 0.961 . S
H2200 C2184 0.931 . S
H2201 C2189 0.930 . S
H2202 C2190 0.956 . S
H2203 C2190 0.961 . S
H2204 C2190 0.961 . S
H2205 C2191 0.958 . S
H2206 C2191 0.961 . S
H2207 C2191 0.960 . S
C2208 C2209 1.391 1_655 S
C2208 C2210 1.394 . S
C2208 H2224 0.931 . S
C2209 C2208 1.391 1_455 S
C2209 C2213 1.376 . S
C2210 C2208 1.394 . S
C2210 C2211 1.369 1_655 S
C2210 C2214 1.531 . S
C2211 C2210 1.369 1_455 S
C2211 C2212 1.410 . S
C2211 C2219 1.503 . S
C2212 C2211 1.410 . S
C2212 C2213 1.392 . S
C2212 C2215 1.511 . S
C2213 C2209 1.376 . S
C2213 C2212 1.392 . S
C2213 H2225 0.929 . S
C2214 C2210 1.531 . S
C2214 H2226 0.960 . S
C2214 H2227 0.962 . S
C2214 H2228 0.960 . S
C2215 C2212 1.511 . S
C2215 H2229 0.961 . S
C2215 H2230 0.961 . S
C2215 H2231 0.961 . S
C2216 C2217 1.370 1_655 S
C2216 C2218 1.363 . S
C2216 H2232 0.931 . S
C2217 C2216 1.370 1_455 S
C2217 C2221 1.408 . S
C2218 C2216 1.363 . S
C2218 C2219 1.370 1_655 S
C2218 C2222 1.524 . S
C2219 C2211 1.503 . S
C2219 C2218 1.370 1_455 S
C2219 C2220 1.403 . S
C2220 C2219 1.403 . S
C2220 C2221 1.404 . S
C2220 C2223 1.539 . S
C2221 C2217 1.408 . S
C2221 C2220 1.404 . S
C2221 H2233 0.930 . S
C2222 C2218 1.524 . S
C2222 H2234 0.956 . S
C2222 H2235 0.961 . S
C2222 H2236 0.961 . S
C2223 C2220 1.539 . S
C2223 H2237 0.958 . S
C2223 H2238 0.961 . S
C2223 H2239 0.960 . S
H2224 C2208 0.931 . S
H2225 C2213 0.929 . S
H2226 C2214 0.960 . S
H2227 C2214 0.962 . S
H2228 C2214 0.960 . S
H2229 C2215 0.961 . S
H2230 C2215 0.961 . S
H2231 C2215 0.961 . S
H2232 C2216 0.931 . S
H2233 C2221 0.930 . S
H2234 C2222 0.956 . S
H2235 C2222 0.961 . S
H2236 C2222 0.961 . S
H2237 C2223 0.958 . S
H2238 C2223 0.961 . S
H2239 C2223 0.960 . S
C2240 C2241 1.391 . S
C2240 C2242 1.394 . S
C2240 H2256 0.931 . S
C2241 C2240 1.391 . S
C2241 C2245 1.376 . S
C2242 C2240 1.394 . S
C2242 C2243 1.369 . S
C2242 C2246 1.531 . S
C2243 C2242 1.369 . S
C2243 C2244 1.410 . S
C2243 C2251 1.503 . S
C2244 C2243 1.410 . S
C2244 C2245 1.392 . S
C2244 C2247 1.511 . S
C2245 C2241 1.376 . S
C2245 C2244 1.392 . S
C2245 H2257 0.929 . S
C2246 C2242 1.531 . S
C2246 H2258 0.960 . S
C2246 H2259 0.962 . S
C2246 H2260 0.960 . S
C2247 C2244 1.511 . S
C2247 H2261 0.961 . S
C2247 H2262 0.961 . S
C2247 H2263 0.961 . S
C2248 C2249 1.370 . S
C2248 C2250 1.363 . S
C2248 H2264 0.931 . S
C2249 C2248 1.370 . S
C2249 C2253 1.408 . S
C2250 C2248 1.363 . S
C2250 C2251 1.370 . S
C2250 C2254 1.524 . S
C2251 C2243 1.503 . S
C2251 C2250 1.370 . S
C2251 C2252 1.403 . S
C2252 C2251 1.403 . S
C2252 C2253 1.404 . S
C2252 C2255 1.539 . S
C2253 C2249 1.408 . S
C2253 C2252 1.404 . S
C2253 H2265 0.930 . S
C2254 C2250 1.524 . S
C2254 H2266 0.956 . S
C2254 H2267 0.961 . S
C2254 H2268 0.961 . S
C2255 C2252 1.539 . S
C2255 H2269 0.958 . S
C2255 H2270 0.961 . S
C2255 H2271 0.960 . S
H2256 C2240 0.931 . S
H2257 C2245 0.929 . S
H2258 C2246 0.960 . S
H2259 C2246 0.962 . S
H2260 C2246 0.960 . S
H2261 C2247 0.961 . S
H2262 C2247 0.961 . S
H2263 C2247 0.961 . S
H2264 C2248 0.931 . S
H2265 C2253 0.930 . S
H2266 C2254 0.956 . S
H2267 C2254 0.961 . S
H2268 C2254 0.961 . S
H2269 C2255 0.958 . S
H2270 C2255 0.961 . S
H2271 C2255 0.960 . S
C2272 C2273 1.391 1_545 S
C2272 C2274 1.394 . S
C2272 H2288 0.931 . S
C2273 C2272 1.391 1_565 S
C2273 C2277 1.376 . S
C2274 C2272 1.394 . S
C2274 C2275 1.369 1_545 S
C2274 C2278 1.531 . S
C2275 C2274 1.369 1_565 S
C2275 C2276 1.410 . S
C2275 C2283 1.503 . S
C2276 C2275 1.410 . S
C2276 C2277 1.392 . S
C2276 C2279 1.511 . S
C2277 C2273 1.376 . S
C2277 C2276 1.392 . S
C2277 H2289 0.929 . S
C2278 C2274 1.531 . S
C2278 H2290 0.960 . S
C2278 H2291 0.962 . S
C2278 H2292 0.960 . S
C2279 C2276 1.511 . S
C2279 H2293 0.961 . S
C2279 H2294 0.961 . S
C2279 H2295 0.961 . S
C2280 C2281 1.370 . S
C2280 C2282 1.363 . S
C2280 H2296 0.931 . S
C2281 C2280 1.370 . S
C2281 C2285 1.408 . S
C2282 C2280 1.363 . S
C2282 C2283 1.370 . S
C2282 C2286 1.524 . S
C2283 C2275 1.503 . S
C2283 C2282 1.370 . S
C2283 C2284 1.403 . S
C2284 C2283 1.403 . S
C2284 C2285 1.404 . S
C2284 C2287 1.538 1_565 S
C2285 C2281 1.408 . S
C2285 C2284 1.404 . S
C2285 H2297 0.933 1_565 S
C2286 C2282 1.524 . S
C2286 H2298 0.932 1_565 S
C2286 H2299 0.961 . S
C2286 H2300 0.961 . S
C2287 C2284 1.538 1_545 S
C2287 H2301 0.973 . S
C2287 H2302 0.948 1_545 S
C2287 H2303 0.960 1_545 S
H2288 C2272 0.931 . S
H2289 C2277 0.929 . S
H2290 C2278 0.960 . S
H2291 C2278 0.962 . S
H2292 C2278 0.960 . S
H2293 C2279 0.961 . S
H2294 C2279 0.961 . S
H2295 C2279 0.961 . S
H2296 C2280 0.931 . S
H2297 C2285 0.933 1_545 S
H2298 C2286 0.932 1_545 S
H2299 C2286 0.961 . S
H2300 C2286 0.961 . S
H2301 C2287 0.973 . S
H2302 C2287 0.948 1_565 S
H2303 C2287 0.960 1_565 S
C2304 C2305 1.391 . S
C2304 C2306 1.394 . S
C2304 H2320 0.931 . S
C2305 C2304 1.391 . S
C2305 C2309 1.376 . S
C2306 C2304 1.394 . S
C2306 C2307 1.369 . S
C2306 C2310 1.531 . S
C2307 C2306 1.369 . S
C2307 C2308 1.410 . S
C2307 C2315 1.503 . S
C2308 C2307 1.410 . S
C2308 C2309 1.392 . S
C2308 C2311 1.511 1_565 S
C2309 C2305 1.376 . S
C2309 C2308 1.392 . S
C2309 H2321 0.932 . S
C2310 C2306 1.531 . S
C2310 H2322 0.960 . S
C2310 H2323 0.962 . S
C2310 H2324 0.960 . S
C2311 C2308 1.511 1_545 S
C2311 H2325 0.961 . S
C2311 H2326 0.961 . S
C2311 H2327 0.961 1_545 S
C2312 C2313 1.352 1_545 S
C2312 C2314 1.363 . S
C2312 H2328 0.931 . S
C2313 C2312 1.352 1_565 S
C2313 C2317 1.469 . S
C2314 C2312 1.363 . S
C2314 C2315 1.370 1_545 S
C2314 C2318 1.524 . S
C2315 C2307 1.503 . S
C2315 C2314 1.370 1_565 S
C2315 C2316 1.403 . S
C2316 C2315 1.403 . S
C2316 C2317 1.404 . S
C2316 C2319 1.539 . S
C2317 C2313 1.469 . S
C2317 C2316 1.404 . S
C2317 H2329 0.930 . S
C2318 C2314 1.524 . S
C2318 H2330 0.956 . S
C2318 H2331 0.961 . S
C2318 H2332 0.961 . S
C2319 C2316 1.539 . S
C2319 H2333 0.958 . S
C2319 H2334 0.961 . S
C2319 H2335 0.960 . S
H2320 C2304 0.931 . S
H2321 C2309 0.932 . S
H2322 C2310 0.960 . S
H2323 C2310 0.962 . S
H2324 C2310 0.960 . S
H2325 C2311 0.961 . S
H2326 C2311 0.961 . S
H2327 C2311 0.961 1_565 S
H2328 C2312 0.931 . S
H2329 C2317 0.930 . S
H2330 C2318 0.956 . S
H2331 C2318 0.961 . S
H2332 C2318 0.961 . S
H2333 C2319 0.958 . S
H2334 C2319 0.961 . S
H2335 C2319 0.960 . S
C2336 C2337 1.391 1_655 S
C2336 C2338 1.394 . S
C2336 H2352 0.931 . S
C2337 C2336 1.391 1_455 S
C2337 C2341 1.376 . S
C2338 C2336 1.394 . S
C2338 C2339 1.369 1_655 S
C2338 C2342 1.531 . S
C2339 C2338 1.369 1_455 S
C2339 C2340 1.410 . S
C2339 C2347 1.503 . S
C2340 C2339 1.410 . S
C2340 C2341 1.392 . S
C2340 C2343 1.511 . S
C2341 C2337 1.376 . S
C2341 C2340 1.392 . S
C2341 H2353 0.929 . S
C2342 C2338 1.531 . S
C2342 H2354 0.960 . S
C2342 H2355 0.962 . S
C2342 H2356 0.960 . S
C2343 C2340 1.511 . S
C2343 H2357 0.961 . S
C2343 H2358 0.961 . S
C2343 H2359 0.961 . S
C2344 C2345 1.363 1_655 S
C2344 C2346 1.363 . S
C2344 H2360 0.931 . S
C2345 C2344 1.363 1_455 S
C2345 C2349 1.409 . S
C2346 C2344 1.363 . S
C2346 C2347 1.370 1_655 S
C2346 C2350 1.524 . S
C2347 C2339 1.503 . S
C2347 C2346 1.370 1_455 S
C2347 C2348 1.403 . S
C2348 C2347 1.403 . S
C2348 C2349 1.404 . S
C2348 C2351 1.539 . S
C2349 C2345 1.409 . S
C2349 C2348 1.404 . S
C2349 H2361 0.930 . S
C2350 C2346 1.524 . S
C2350 H2362 0.956 . S
C2350 H2363 0.961 . S
C2350 H2364 0.961 . S
C2351 C2348 1.539 . S
C2351 H2365 0.958 . S
C2351 H2366 0.961 . S
C2351 H2367 0.960 . S
H2352 C2336 0.931 . S
H2353 C2341 0.929 . S
H2354 C2342 0.960 . S
H2355 C2342 0.962 . S
H2356 C2342 0.960 . S
H2357 C2343 0.961 . S
H2358 C2343 0.961 . S
H2359 C2343 0.961 . S
H2360 C2344 0.931 . S
H2361 C2349 0.930 . S
H2362 C2350 0.956 . S
H2363 C2350 0.961 . S
H2364 C2350 0.961 . S
H2365 C2351 0.958 . S
H2366 C2351 0.961 . S
H2367 C2351 0.960 . S
C2368 C2369 1.391 . S
C2368 C2370 1.394 . S
C2368 H2384 0.931 . S
C2369 C2368 1.391 . S
C2369 C2373 1.376 . S
C2370 C2368 1.394 . S
C2370 C2371 1.369 . S
C2370 C2374 1.531 . S
C2371 C2370 1.369 . S
C2371 C2372 1.410 . S
C2371 C2379 1.503 . S
C2372 C2371 1.410 . S
C2372 C2373 1.392 . S
C2372 C2375 1.511 . S
C2373 C2369 1.376 . S
C2373 C2372 1.392 . S
C2373 H2385 0.929 . S
C2374 C2370 1.531 . S
C2374 H2386 0.960 . S
C2374 H2387 0.962 . S
C2374 H2388 0.960 . S
C2375 C2372 1.511 . S
C2375 H2389 0.961 . S
C2375 H2390 0.961 . S
C2375 H2391 0.961 . S
C2376 C2377 1.370 . S
C2376 C2378 1.363 . S
C2376 H2392 0.931 . S
C2377 C2376 1.370 . S
C2377 C2381 1.408 . S
C2378 C2376 1.363 . S
C2378 C2379 1.370 . S
C2378 C2382 1.524 . S
C2379 C2371 1.503 . S
C2379 C2378 1.370 . S
C2379 C2380 1.403 . S
C2380 C2379 1.403 . S
C2380 C2381 1.404 . S
C2380 C2383 1.539 . S
C2381 C2377 1.408 . S
C2381 C2380 1.404 . S
C2381 H2393 0.930 . S
C2382 C2378 1.524 . S
C2382 H2394 0.956 . S
C2382 H2395 0.961 . S
C2382 H2396 0.961 . S
C2383 C2380 1.539 . S
C2383 H2397 0.958 . S
C2383 H2398 0.961 . S
C2383 H2399 0.960 . S
H2384 C2368 0.931 . S
H2385 C2373 0.929 . S
H2386 C2374 0.960 . S
H2387 C2374 0.962 . S
H2388 C2374 0.960 . S
H2389 C2375 0.961 . S
H2390 C2375 0.961 . S
H2391 C2375 0.961 . S
H2392 C2376 0.931 . S
H2393 C2381 0.930 . S
H2394 C2382 0.956 . S
H2395 C2382 0.961 . S
H2396 C2382 0.961 . S
H2397 C2383 0.958 . S
H2398 C2383 0.961 . S
H2399 C2383 0.960 . S
C2400 C2401 1.391 . S
C2400 C2402 1.394 . S
C2400 H2416 0.931 . S
C2401 C2400 1.391 . S
C2401 C2405 1.376 . S
C2402 C2400 1.394 . S
C2402 C2403 1.369 . S
C2402 C2406 1.531 . S
C2403 C2402 1.369 . S
C2403 C2404 1.410 . S
C2403 C2411 1.503 . S
C2404 C2403 1.410 . S
C2404 C2405 1.392 . S
C2404 C2407 1.511 . S
C2405 C2401 1.376 . S
C2405 C2404 1.392 . S
C2405 H2417 0.929 . S
C2406 C2402 1.531 . S
C2406 H2418 0.960 . S
C2406 H2419 0.962 . S
C2406 H2420 0.960 . S
C2407 C2404 1.511 . S
C2407 H2421 0.961 . S
C2407 H2422 0.961 . S
C2407 H2423 0.961 . S
C2408 C2409 1.370 . S
C2408 C2410 1.363 . S
C2408 H2424 0.931 . S
C2409 C2408 1.370 . S
C2409 C2413 1.408 . S
C2410 C2408 1.363 . S
C2410 C2411 1.370 . S
C2410 C2414 1.524 . S
C2411 C2403 1.503 . S
C2411 C2410 1.370 . S
C2411 C2412 1.403 . S
C2412 C2411 1.403 . S
C2412 C2413 1.404 . S
C2412 C2415 1.539 . S
C2413 C2409 1.408 . S
C2413 C2412 1.404 . S
C2413 H2425 0.930 . S
C2414 C2410 1.524 . S
C2414 H2426 0.956 . S
C2414 H2427 0.961 . S
C2414 H2428 0.961 . S
C2415 C2412 1.539 . S
C2415 H2429 0.958 . S
C2415 H2430 0.961 . S
C2415 H2431 0.960 . S
H2416 C2400 0.931 . S
H2417 C2405 0.929 . S
H2418 C2406 0.960 . S
H2419 C2406 0.962 . S
H2420 C2406 0.960 . S
H2421 C2407 0.961 . S
H2422 C2407 0.961 . S
H2423 C2407 0.961 . S
H2424 C2408 0.931 . S
H2425 C2413 0.930 . S
H2426 C2414 0.956 . S
H2427 C2414 0.961 . S
H2428 C2414 0.961 . S
H2429 C2415 0.958 . S
H2430 C2415 0.961 . S
H2431 C2415 0.960 . S
C2432 C2433 1.391 . S
C2432 C2434 1.394 . S
C2432 H2448 0.931 . S
C2433 C2432 1.391 . S
C2433 C2437 1.376 . S
C2434 C2432 1.394 . S
C2434 C2435 1.369 . S
C2434 C2438 1.531 . S
C2435 C2434 1.369 . S
C2435 C2436 1.410 . S
C2435 C2443 1.503 . S
C2436 C2435 1.410 . S
C2436 C2437 1.392 . S
C2436 C2439 1.511 . S
C2437 C2433 1.376 . S
C2437 C2436 1.392 . S
C2437 H2449 0.929 . S
C2438 C2434 1.531 . S
C2438 H2450 0.960 . S
C2438 H2451 0.962 . S
C2438 H2452 0.960 . S
C2439 C2436 1.511 . S
C2439 H2453 0.961 . S
C2439 H2454 0.961 . S
C2439 H2455 0.961 . S
C2440 C2441 1.370 . S
C2440 C2442 1.363 . S
C2440 H2456 0.931 . S
C2441 C2440 1.370 . S
C2441 C2445 1.408 . S
C2442 C2440 1.363 . S
C2442 C2443 1.370 . S
C2442 C2446 1.524 . S
C2443 C2435 1.503 . S
C2443 C2442 1.370 . S
C2443 C2444 1.403 . S
C2444 C2443 1.403 . S
C2444 C2445 1.404 . S
C2444 C2447 1.539 . S
C2445 C2441 1.408 . S
C2445 C2444 1.404 . S
C2445 H2457 0.930 . S
C2446 C2442 1.524 . S
C2446 H2458 0.956 . S
C2446 H2459 0.961 . S
C2446 H2460 0.961 . S
C2447 C2444 1.539 . S
C2447 H2461 0.958 . S
C2447 H2462 0.961 . S
C2447 H2463 0.960 . S
H2448 C2432 0.931 . S
H2449 C2437 0.929 . S
H2450 C2438 0.960 . S
H2451 C2438 0.962 . S
H2452 C2438 0.960 . S
H2453 C2439 0.961 . S
H2454 C2439 0.961 . S
H2455 C2439 0.961 . S
H2456 C2440 0.931 . S
H2457 C2445 0.930 . S
H2458 C2446 0.956 . S
H2459 C2446 0.961 . S
H2460 C2446 0.961 . S
H2461 C2447 0.958 . S
H2462 C2447 0.961 . S
H2463 C2447 0.960 . S
C2464 C2465 1.391 . S
C2464 C2466 1.394 . S
C2464 H2480 0.931 . S
C2465 C2464 1.391 . S
C2465 C2469 1.376 . S
C2466 C2464 1.394 . S
C2466 C2467 1.369 . S
C2466 C2470 1.531 . S
C2467 C2466 1.369 . S
C2467 C2468 1.410 . S
C2467 C2475 1.503 . S
C2468 C2467 1.410 . S
C2468 C2469 1.392 . S
C2468 C2471 1.511 . S
C2469 C2465 1.376 . S
C2469 C2468 1.392 . S
C2469 H2481 0.929 . S
C2470 C2466 1.531 . S
C2470 H2482 0.960 . S
C2470 H2483 0.962 . S
C2470 H2484 0.960 . S
C2471 C2468 1.511 . S
C2471 H2485 0.961 . S
C2471 H2486 0.961 . S
C2471 H2487 0.961 . S
C2472 C2473 1.370 . S
C2472 C2474 1.363 . S
C2472 H2488 0.931 . S
C2473 C2472 1.370 . S
C2473 C2477 1.408 . S
C2474 C2472 1.363 . S
C2474 C2475 1.370 . S
C2474 C2478 1.524 . S
C2475 C2467 1.503 . S
C2475 C2474 1.370 . S
C2475 C2476 1.403 . S
C2476 C2475 1.403 . S
C2476 C2477 1.404 . S
C2476 C2479 1.539 . S
C2477 C2473 1.408 . S
C2477 C2476 1.404 . S
C2477 H2489 0.930 . S
C2478 C2474 1.524 . S
C2478 H2490 0.956 . S
C2478 H2491 0.961 . S
C2478 H2492 0.961 . S
C2479 C2476 1.539 . S
C2479 H2493 0.958 . S
C2479 H2494 0.961 . S
C2479 H2495 0.960 . S
H2480 C2464 0.931 . S
H2481 C2469 0.929 . S
H2482 C2470 0.960 . S
H2483 C2470 0.962 . S
H2484 C2470 0.960 . S
H2485 C2471 0.961 . S
H2486 C2471 0.961 . S
H2487 C2471 0.961 . S
H2488 C2472 0.931 . S
H2489 C2477 0.930 . S
H2490 C2478 0.956 . S
H2491 C2478 0.961 . S
H2492 C2478 0.961 . S
H2493 C2479 0.958 . S
H2494 C2479 0.961 . S
H2495 C2479 0.960 . S
C2496 C2497 1.391 . S
C2496 C2498 1.394 . S
C2496 H2512 0.931 . S
C2497 C2496 1.391 . S
C2497 C2501 1.376 . S
C2498 C2496 1.394 . S
C2498 C2499 1.369 . S
C2498 C2502 1.531 1_545 S
C2499 C2498 1.369 . S
C2499 C2500 1.410 . S
C2499 C2507 1.503 . S
C2500 C2499 1.410 . S
C2500 C2501 1.392 . S
C2500 C2503 1.511 . S
C2501 C2497 1.376 . S
C2501 C2500 1.392 . S
C2501 H2513 0.929 . S
C2502 C2498 1.531 1_565 S
C2502 H2514 0.960 . S
C2502 H2515 0.962 1_565 S
C2502 H2516 0.960 . S
C2503 C2500 1.511 . S
C2503 H2517 0.961 . S
C2503 H2518 0.961 . S
C2503 H2519 0.961 1_545 S
C2504 C2505 1.370 . S
C2504 C2506 1.363 . S
C2504 H2520 0.931 . S
C2505 C2504 1.370 . S
C2505 C2509 1.408 1_545 S
C2506 C2504 1.363 . S
C2506 C2507 1.370 . S
C2506 C2510 1.524 . S
C2507 C2499 1.503 . S
C2507 C2506 1.370 . S
C2507 C2508 1.403 1_545 S
C2508 C2507 1.403 1_565 S
C2508 C2509 1.404 . S
C2508 C2511 1.539 . S
C2509 C2505 1.408 1_565 S
C2509 C2508 1.404 . S
C2509 H2521 0.930 . S
C2510 C2506 1.524 . S
C2510 H2522 0.956 . S
C2510 H2523 0.961 . S
C2510 H2524 0.961 . S
C2511 C2508 1.539 . S
C2511 H2525 0.958 . S
C2511 H2526 0.961 . S
C2511 H2527 0.960 . S
H2512 C2496 0.931 . S
H2513 C2501 0.929 . S
H2514 C2502 0.960 . S
H2515 C2502 0.962 1_545 S
H2516 C2502 0.960 . S
H2517 C2503 0.961 . S
H2518 C2503 0.961 . S
H2519 C2503 0.961 1_565 S
H2520 C2504 0.931 . S
H2521 C2509 0.930 . S
H2522 C2510 0.956 . S
H2523 C2510 0.961 . S
H2524 C2510 0.961 . S
H2525 C2511 0.958 . S
H2526 C2511 0.961 . S
H2527 C2511 0.960 . S
C2528 C2529 1.391 . S
C2528 C2530 1.394 . S
C2528 H2544 0.931 . S
C2529 C2528 1.391 . S
C2529 C2533 1.376 . S
C2530 C2528 1.394 . S
C2530 C2531 1.369 . S
C2530 C2534 1.531 . S
C2531 C2530 1.369 . S
C2531 C2532 1.410 . S
C2531 C2539 1.503 . S
C2532 C2531 1.410 . S
C2532 C2533 1.392 . S
C2532 C2535 1.510 . S
C2533 C2529 1.376 . S
C2533 C2532 1.392 . S
C2533 H2545 0.929 . S
C2534 C2530 1.531 . S
C2534 H2546 0.960 1_655 S
C2534 H2547 0.962 . S
C2534 H2548 0.960 1_655 S
C2535 C2532 1.510 . S
C2535 H2549 0.962 . S
C2535 H2550 0.964 . S
C2535 H2551 0.958 1_655 S
C2536 C2537 1.370 . S
C2536 C2538 1.363 . S
C2536 H2552 0.931 . S
C2537 C2536 1.370 . S
C2537 C2541 1.408 1_655 S
C2538 C2536 1.363 . S
C2538 C2539 1.370 . S
C2538 C2542 1.524 . S
C2539 C2531 1.503 . S
C2539 C2538 1.370 . S
C2539 C2540 1.403 1_655 S
C2540 C2539 1.403 1_455 S
C2540 C2541 1.404 . S
C2540 C2543 1.539 . S
C2541 C2537 1.408 1_455 S
C2541 C2540 1.404 . S
C2541 H2553 0.930 . S
C2542 C2538 1.524 . S
C2542 H2554 0.956 . S
C2542 H2555 0.961 . S
C2542 H2556 0.961 . S
C2543 C2540 1.539 . S
C2543 H2557 0.958 . S
C2543 H2558 0.961 . S
C2543 H2559 0.960 . S
H2544 C2528 0.931 . S
H2545 C2533 0.929 . S
H2546 C2534 0.960 1_455 S
H2547 C2534 0.962 . S
H2548 C2534 0.960 1_455 S
H2549 C2535 0.962 . S
H2550 C2535 0.964 . S
H2551 C2535 0.958 1_455 S
H2552 C2536 0.931 . S
H2553 C2541 0.930 . S
H2554 C2542 0.956 . S
H2555 C2542 0.961 . S
H2556 C2542 0.961 . S
H2557 C2543 0.958 . S
H2558 C2543 0.961 . S
H2559 C2543 0.960 . S
C2560 C2561 1.391 . S
C2560 C2562 1.394 . S
C2560 H2576 0.931 . S
C2561 C2560 1.391 . S
C2561 C2565 1.376 . S
C2562 C2560 1.394 . S
C2562 C2563 1.369 . S
C2562 C2566 1.531 . S
C2563 C2562 1.369 . S
C2563 C2564 1.410 . S
C2563 C2571 1.503 . S
C2564 C2563 1.410 . S
C2564 C2565 1.392 . S
C2564 C2567 1.511 . S
C2565 C2561 1.376 . S
C2565 C2564 1.392 . S
C2565 H2577 0.929 . S
C2566 C2562 1.531 . S
C2566 H2578 0.960 . S
C2566 H2579 0.962 . S
C2566 H2580 0.960 . S
C2567 C2564 1.511 . S
C2567 H2581 0.961 . S
C2567 H2582 0.961 . S
C2567 H2583 0.961 . S
C2568 C2569 1.370 . S
C2568 C2570 1.363 . S
C2568 H2584 0.931 . S
C2569 C2568 1.370 . S
C2569 C2573 1.408 . S
C2570 C2568 1.363 . S
C2570 C2571 1.370 . S
C2570 C2574 1.524 . S
C2571 C2563 1.503 . S
C2571 C2570 1.370 . S
C2571 C2572 1.403 . S
C2572 C2571 1.403 . S
C2572 C2573 1.404 . S
C2572 C2575 1.539 . S
C2573 C2569 1.408 . S
C2573 C2572 1.404 . S
C2573 H2585 0.930 . S
C2574 C2570 1.524 . S
C2574 H2586 0.956 . S
C2574 H2587 0.961 . S
C2574 H2588 0.961 . S
C2575 C2572 1.539 . S
C2575 H2589 0.958 . S
C2575 H2590 0.961 . S
C2575 H2591 0.960 . S
H2576 C2560 0.931 . S
H2577 C2565 0.929 . S
H2578 C2566 0.960 . S
H2579 C2566 0.962 . S
H2580 C2566 0.960 . S
H2581 C2567 0.961 . S
H2582 C2567 0.961 . S
H2583 C2567 0.961 . S
H2584 C2568 0.931 . S
H2585 C2573 0.930 . S
H2586 C2574 0.956 . S
H2587 C2574 0.961 . S
H2588 C2574 0.961 . S
H2589 C2575 0.958 . S
H2590 C2575 0.961 . S
H2591 C2575 0.960 . S
C2592 C2593 1.391 . S
C2592 C2594 1.394 . S
C2592 H2608 0.931 . S
C2593 C2592 1.391 . S
C2593 C2597 1.376 . S
C2594 C2592 1.394 . S
C2594 C2595 1.369 . S
C2594 C2598 1.531 . S
C2595 C2594 1.369 . S
C2595 C2596 1.410 . S
C2595 C2603 1.503 . S
C2596 C2595 1.410 . S
C2596 C2597 1.392 . S
C2596 C2599 1.511 . S
C2597 C2593 1.376 . S
C2597 C2596 1.392 . S
C2597 H2609 0.929 . S
C2598 C2594 1.531 . S
C2598 H2610 0.960 . S
C2598 H2611 0.962 . S
C2598 H2612 0.960 . S
C2599 C2596 1.511 . S
C2599 H2613 0.961 . S
C2599 H2614 0.961 . S
C2599 H2615 0.961 . S
C2600 C2601 1.370 . S
C2600 C2602 1.363 . S
C2600 H2616 0.931 . S
C2601 C2600 1.370 . S
C2601 C2605 1.408 . S
C2602 C2600 1.363 . S
C2602 C2603 1.370 . S
C2602 C2606 1.524 . S
C2603 C2595 1.503 . S
C2603 C2602 1.370 . S
C2603 C2604 1.403 . S
C2604 C2603 1.403 . S
C2604 C2605 1.404 . S
C2604 C2607 1.539 . S
C2605 C2601 1.408 . S
C2605 C2604 1.404 . S
C2605 H2617 0.930 . S
C2606 C2602 1.524 . S
C2606 H2618 0.956 . S
C2606 H2619 0.961 . S
C2606 H2620 0.961 . S
C2607 C2604 1.539 . S
C2607 H2621 0.958 . S
C2607 H2622 0.961 . S
C2607 H2623 0.960 . S
H2608 C2592 0.931 . S
H2609 C2597 0.929 . S
H2610 C2598 0.960 . S
H2611 C2598 0.962 . S
H2612 C2598 0.960 . S
H2613 C2599 0.961 . S
H2614 C2599 0.961 . S
H2615 C2599 0.961 . S
H2616 C2600 0.931 . S
H2617 C2605 0.930 . S
H2618 C2606 0.956 . S
H2619 C2606 0.961 . S
H2620 C2606 0.961 . S
H2621 C2607 0.958 . S
H2622 C2607 0.961 . S
H2623 C2607 0.960 . S
C2624 C2625 1.391 . S
C2624 C2626 1.394 . S
C2624 H2640 0.931 . S
C2625 C2624 1.391 . S
C2625 C2629 1.376 . S
C2626 C2624 1.394 . S
C2626 C2627 1.369 . S
C2626 C2630 1.531 . S
C2627 C2626 1.369 . S
C2627 C2628 1.410 . S
C2627 C2635 1.503 . S
C2628 C2627 1.410 . S
C2628 C2629 1.392 . S
C2628 C2631 1.511 . S
C2629 C2625 1.376 . S
C2629 C2628 1.392 . S
C2629 H2641 0.929 . S
C2630 C2626 1.531 . S
C2630 H2642 0.960 . S
C2630 H2643 0.962 . S
C2630 H2644 0.960 . S
C2631 C2628 1.511 . S
C2631 H2645 0.961 . S
C2631 H2646 0.961 . S
C2631 H2647 0.961 . S
C2632 C2633 1.370 . S
C2632 C2634 1.363 . S
C2632 H2648 0.931 . S
C2633 C2632 1.370 . S
C2633 C2637 1.408 . S
C2634 C2632 1.363 . S
C2634 C2635 1.370 . S
C2634 C2638 1.524 . S
C2635 C2627 1.503 . S
C2635 C2634 1.370 . S
C2635 C2636 1.403 . S
C2636 C2635 1.403 . S
C2636 C2637 1.404 . S
C2636 C2639 1.539 . S
C2637 C2633 1.408 . S
C2637 C2636 1.404 . S
C2637 H2649 0.930 . S
C2638 C2634 1.524 . S
C2638 H2650 0.956 . S
C2638 H2651 0.961 . S
C2638 H2652 0.961 . S
C2639 C2636 1.539 . S
C2639 H2653 0.958 . S
C2639 H2654 0.961 . S
C2639 H2655 0.960 . S
H2640 C2624 0.931 . S
H2641 C2629 0.929 . S
H2642 C2630 0.960 . S
H2643 C2630 0.962 . S
H2644 C2630 0.960 . S
H2645 C2631 0.961 . S
H2646 C2631 0.961 . S
H2647 C2631 0.961 . S
H2648 C2632 0.931 . S
H2649 C2637 0.930 . S
H2650 C2638 0.956 . S
H2651 C2638 0.961 . S
H2652 C2638 0.961 . S
H2653 C2639 0.958 . S
H2654 C2639 0.961 . S
H2655 C2639 0.960 . S
C2656 C2657 1.391 . S
C2656 C2658 1.394 . S
C2656 H2672 0.931 . S
C2657 C2656 1.391 . S
C2657 C2661 1.376 . S
C2658 C2656 1.394 . S
C2658 C2659 1.369 . S
C2658 C2662 1.531 . S
C2659 C2658 1.369 . S
C2659 C2660 1.410 . S
C2659 C2667 1.503 . S
C2660 C2659 1.410 . S
C2660 C2661 1.392 . S
C2660 C2663 1.511 . S
C2661 C2657 1.376 . S
C2661 C2660 1.392 . S
C2661 H2673 0.929 . S
C2662 C2658 1.531 . S
C2662 H2674 0.960 . S
C2662 H2675 0.962 . S
C2662 H2676 0.960 . S
C2663 C2660 1.511 . S
C2663 H2677 0.961 . S
C2663 H2678 0.961 . S
C2663 H2679 0.961 . S
C2664 C2665 1.370 . S
C2664 C2666 1.363 . S
C2664 H2680 0.931 . S
C2665 C2664 1.370 . S
C2665 C2669 1.408 . S
C2666 C2664 1.363 . S
C2666 C2667 1.370 . S
C2666 C2670 1.524 . S
C2667 C2659 1.503 . S
C2667 C2666 1.370 . S
C2667 C2668 1.403 . S
C2668 C2667 1.403 . S
C2668 C2669 1.404 . S
C2668 C2671 1.539 . S
C2669 C2665 1.408 . S
C2669 C2668 1.404 . S
C2669 H2681 0.930 . S
C2670 C2666 1.524 . S
C2670 H2682 0.956 . S
C2670 H2683 0.961 . S
C2670 H2684 0.961 . S
C2671 C2668 1.539 . S
C2671 H2685 0.958 . S
C2671 H2686 0.961 . S
C2671 H2687 0.960 . S
H2672 C2656 0.931 . S
H2673 C2661 0.929 . S
H2674 C2662 0.960 . S
H2675 C2662 0.962 . S
H2676 C2662 0.960 . S
H2677 C2663 0.961 . S
H2678 C2663 0.961 . S
H2679 C2663 0.961 . S
H2680 C2664 0.931 . S
H2681 C2669 0.930 . S
H2682 C2670 0.956 . S
H2683 C2670 0.961 . S
H2684 C2670 0.961 . S
H2685 C2671 0.958 . S
H2686 C2671 0.961 . S
H2687 C2671 0.960 . S
C2688 C2689 1.391 . S
C2688 C2690 1.394 . S
C2688 H2704 0.931 . S
C2689 C2688 1.391 . S
C2689 C2693 1.376 . S
C2690 C2688 1.394 . S
C2690 C2691 1.369 . S
C2690 C2694 1.531 . S
C2691 C2690 1.369 . S
C2691 C2692 1.410 . S
C2691 C2699 1.503 . S
C2692 C2691 1.410 . S
C2692 C2693 1.392 . S
C2692 C2695 1.511 . S
C2693 C2689 1.376 . S
C2693 C2692 1.392 . S
C2693 H2705 0.929 . S
C2694 C2690 1.531 . S
C2694 H2706 0.960 . S
C2694 H2707 0.962 . S
C2694 H2708 0.960 . S
C2695 C2692 1.511 . S
C2695 H2709 0.961 . S
C2695 H2710 0.961 . S
C2695 H2711 0.961 . S
C2696 C2697 1.370 . S
C2696 C2698 1.363 . S
C2696 H2712 0.931 . S
C2697 C2696 1.370 . S
C2697 C2701 1.408 . S
C2698 C2696 1.363 . S
C2698 C2699 1.370 . S
C2698 C2702 1.524 . S
C2699 C2691 1.503 . S
C2699 C2698 1.370 . S
C2699 C2700 1.403 . S
C2700 C2699 1.403 . S
C2700 C2701 1.404 . S
C2700 C2703 1.539 . S
C2701 C2697 1.408 . S
C2701 C2700 1.404 . S
C2701 H2713 0.930 . S
C2702 C2698 1.524 . S
C2702 H2714 0.956 . S
C2702 H2715 0.961 . S
C2702 H2716 0.961 . S
C2703 C2700 1.539 . S
C2703 H2717 0.958 . S
C2703 H2718 0.961 . S
C2703 H2719 0.960 . S
H2704 C2688 0.931 . S
H2705 C2693 0.929 . S
H2706 C2694 0.960 . S
H2707 C2694 0.962 . S
H2708 C2694 0.960 . S
H2709 C2695 0.961 . S
H2710 C2695 0.961 . S
H2711 C2695 0.961 . S
H2712 C2696 0.931 . S
H2713 C2701 0.930 . S
H2714 C2702 0.956 . S
H2715 C2702 0.961 . S
H2716 C2702 0.961 . S
H2717 C2703 0.958 . S
H2718 C2703 0.961 . S
H2719 C2703 0.960 . S
C2720 C2721 1.391 . S
C2720 C2722 1.394 . S
C2720 H2736 0.931 . S
C2721 C2720 1.391 . S
C2721 C2725 1.376 . S
C2722 C2720 1.394 . S
C2722 C2723 1.369 . S
C2722 C2726 1.531 . S
C2723 C2722 1.369 . S
C2723 C2724 1.410 . S
C2723 C2731 1.503 . S
C2724 C2723 1.410 . S
C2724 C2725 1.392 . S
C2724 C2727 1.511 . S
C2725 C2721 1.376 . S
C2725 C2724 1.392 . S
C2725 H2737 0.929 . S
C2726 C2722 1.531 . S
C2726 H2738 0.960 . S
C2726 H2739 0.962 . S
C2726 H2740 0.960 . S
C2727 C2724 1.511 . S
C2727 H2741 0.961 . S
C2727 H2742 0.961 . S
C2727 H2743 0.961 . S
C2728 C2729 1.370 . S
C2728 C2730 1.363 . S
C2728 H2744 0.931 . S
C2729 C2728 1.370 . S
C2729 C2733 1.408 . S
C2730 C2728 1.363 . S
C2730 C2731 1.370 . S
C2730 C2734 1.524 . S
C2731 C2723 1.503 . S
C2731 C2730 1.370 . S
C2731 C2732 1.403 . S
C2732 C2731 1.403 . S
C2732 C2733 1.404 . S
C2732 C2735 1.539 . S
C2733 C2729 1.408 . S
C2733 C2732 1.404 . S
C2733 H2745 0.930 . S
C2734 C2730 1.524 . S
C2734 H2746 0.956 . S
C2734 H2747 0.961 . S
C2734 H2748 0.961 . S
C2735 C2732 1.539 . S
C2735 H2749 0.958 . S
C2735 H2750 0.961 . S
C2735 H2751 0.960 . S
H2736 C2720 0.931 . S
H2737 C2725 0.929 . S
H2738 C2726 0.960 . S
H2739 C2726 0.962 . S
H2740 C2726 0.960 . S
H2741 C2727 0.961 . S
H2742 C2727 0.961 . S
H2743 C2727 0.961 . S
H2744 C2728 0.931 . S
H2745 C2733 0.930 . S
H2746 C2734 0.956 . S
H2747 C2734 0.961 . S
H2748 C2734 0.961 . S
H2749 C2735 0.958 . S
H2750 C2735 0.961 . S
H2751 C2735 0.960 . S
C2752 C2753 1.391 . S
C2752 C2754 1.394 . S
C2752 H2768 0.931 . S
C2753 C2752 1.391 . S
C2753 C2757 1.376 . S
C2754 C2752 1.394 . S
C2754 C2755 1.369 . S
C2754 C2758 1.531 . S
C2755 C2754 1.369 . S
C2755 C2756 1.410 . S
C2755 C2763 1.503 . S
C2756 C2755 1.410 . S
C2756 C2757 1.392 . S
C2756 C2759 1.511 . S
C2757 C2753 1.376 . S
C2757 C2756 1.392 . S
C2757 H2769 0.929 . S
C2758 C2754 1.531 . S
C2758 H2770 0.960 . S
C2758 H2771 0.962 . S
C2758 H2772 0.960 . S
C2759 C2756 1.511 . S
C2759 H2773 0.961 . S
C2759 H2774 0.961 . S
C2759 H2775 0.961 . S
C2760 C2761 1.370 . S
C2760 C2762 1.363 . S
C2760 H2776 0.931 . S
C2761 C2760 1.370 . S
C2761 C2765 1.408 . S
C2762 C2760 1.363 . S
C2762 C2763 1.370 . S
C2762 C2766 1.524 . S
C2763 C2755 1.503 . S
C2763 C2762 1.370 . S
C2763 C2764 1.403 . S
C2764 C2763 1.403 . S
C2764 C2765 1.404 . S
C2764 C2767 1.539 . S
C2765 C2761 1.408 . S
C2765 C2764 1.404 . S
C2765 H2777 0.930 . S
C2766 C2762 1.524 . S
C2766 H2778 0.956 . S
C2766 H2779 0.961 . S
C2766 H2780 0.961 . S
C2767 C2764 1.539 . S
C2767 H2781 0.958 . S
C2767 H2782 0.961 . S
C2767 H2783 0.960 . S
H2768 C2752 0.931 . S
H2769 C2757 0.929 . S
H2770 C2758 0.960 . S
H2771 C2758 0.962 . S
H2772 C2758 0.960 . S
H2773 C2759 0.961 . S
H2774 C2759 0.961 . S
H2775 C2759 0.961 . S
H2776 C2760 0.931 . S
H2777 C2765 0.930 . S
H2778 C2766 0.956 . S
H2779 C2766 0.961 . S
H2780 C2766 0.961 . S
H2781 C2767 0.958 . S
H2782 C2767 0.961 . S
H2783 C2767 0.960 . S
C2784 C2785 1.391 1_455 S
C2784 C2786 1.394 . S
C2784 H2800 0.931 . S
C2785 C2784 1.391 1_655 S
C2785 C2789 1.376 . S
C2786 C2784 1.394 . S
C2786 C2787 1.369 1_455 S
C2786 C2790 1.531 . S
C2787 C2786 1.369 1_655 S
C2787 C2788 1.410 . S
C2787 C2795 1.503 . S
C2788 C2787 1.410 . S
C2788 C2789 1.392 . S
C2788 C2791 1.511 . S
C2789 C2785 1.376 . S
C2789 C2788 1.392 . S
C2789 H2801 0.929 . S
C2790 C2786 1.531 . S
C2790 H2802 0.960 . S
C2790 H2803 0.962 . S
C2790 H2804 0.960 . S
C2791 C2788 1.511 . S
C2791 H2805 0.961 . S
C2791 H2806 0.961 . S
C2791 H2807 0.961 . S
C2792 C2793 1.387 . S
C2792 C2794 1.363 . S
C2792 H2808 0.931 . S
C2793 C2792 1.387 . S
C2793 C2797 1.417 1_655 S
C2794 C2792 1.363 . S
C2794 C2795 1.370 . S
C2794 C2798 1.524 . S
C2795 C2787 1.503 . S
C2795 C2794 1.370 . S
C2795 C2796 1.403 1_655 S
C2796 C2795 1.403 1_455 S
C2796 C2797 1.404 . S
C2796 C2799 1.539 . S
C2797 C2793 1.417 1_455 S
C2797 C2796 1.404 . S
C2797 H2809 0.930 . S
C2798 C2794 1.524 . S
C2798 H2810 0.956 . S
C2798 H2811 0.961 . S
C2798 H2812 0.961 . S
C2799 C2796 1.539 . S
C2799 H2813 0.958 . S
C2799 H2814 0.961 . S
C2799 H2815 1.017 . S
H2800 C2784 0.931 . S
H2801 C2789 0.929 . S
H2802 C2790 0.960 . S
H2803 C2790 0.962 . S
H2804 C2790 0.960 . S
H2805 C2791 0.961 . S
H2806 C2791 0.961 . S
H2807 C2791 0.961 . S
H2808 C2792 0.931 . S
H2809 C2797 0.930 . S
H2810 C2798 0.956 . S
H2811 C2798 0.961 . S
H2812 C2798 0.961 . S
H2813 C2799 0.958 . S
H2814 C2799 0.961 . S
H2815 C2799 1.017 . S
C2816 C2817 1.391 . S
C2816 C2818 1.394 . S
C2816 H2832 0.931 . S
C2817 C2816 1.391 . S
C2817 C2821 1.376 . S
C2818 C2816 1.394 . S
C2818 C2819 1.369 . S
C2818 C2822 1.531 . S
C2819 C2818 1.369 . S
C2819 C2820 1.410 . S
C2819 C2827 1.503 . S
C2820 C2819 1.410 . S
C2820 C2821 1.392 . S
C2820 C2823 1.511 . S
C2821 C2817 1.376 . S
C2821 C2820 1.392 . S
C2821 H2833 0.929 . S
C2822 C2818 1.531 . S
C2822 H2834 0.960 . S
C2822 H2835 0.962 . S
C2822 H2836 0.960 . S
C2823 C2820 1.511 . S
C2823 H2837 0.961 . S
C2823 H2838 0.961 . S
C2823 H2839 0.961 . S
C2824 C2825 1.370 . S
C2824 C2826 1.363 . S
C2824 H2840 0.931 . S
C2825 C2824 1.370 . S
C2825 C2829 1.408 . S
C2826 C2824 1.363 . S
C2826 C2827 1.370 . S
C2826 C2830 1.524 . S
C2827 C2819 1.503 . S
C2827 C2826 1.370 . S
C2827 C2828 1.403 . S
C2828 C2827 1.403 . S
C2828 C2829 1.404 . S
C2828 C2831 1.539 . S
C2829 C2825 1.408 . S
C2829 C2828 1.404 . S
C2829 H2841 0.930 . S
C2830 C2826 1.524 . S
C2830 H2842 0.956 . S
C2830 H2843 0.961 . S
C2830 H2844 0.961 . S
C2831 C2828 1.539 . S
C2831 H2845 0.958 . S
C2831 H2846 0.961 . S
C2831 H2847 0.960 . S
H2832 C2816 0.931 . S
H2833 C2821 0.929 . S
H2834 C2822 0.960 . S
H2835 C2822 0.962 . S
H2836 C2822 0.960 . S
H2837 C2823 0.961 . S
H2838 C2823 0.961 . S
H2839 C2823 0.961 . S
H2840 C2824 0.931 . S
H2841 C2829 0.930 . S
H2842 C2830 0.956 . S
H2843 C2830 0.961 . S
H2844 C2830 0.961 . S
H2845 C2831 0.958 . S
H2846 C2831 0.961 . S
H2847 C2831 0.960 . S
C2848 C2849 1.391 . S
C2848 C2850 1.394 . S
C2848 H2864 0.931 1_545 S
C2849 C2848 1.391 . S
C2849 C2853 1.376 . S
C2850 C2848 1.394 . S
C2850 C2851 1.369 . S
C2850 C2854 1.531 1_545 S
C2851 C2850 1.369 . S
C2851 C2852 1.410 . S
C2851 C2859 1.503 . S
C2852 C2851 1.410 . S
C2852 C2853 1.392 . S
C2852 C2855 1.511 . S
C2853 C2849 1.376 . S
C2853 C2852 1.392 . S
C2853 H2865 0.929 . S
C2854 C2850 1.531 1_565 S
C2854 H2866 0.935 1_565 S
C2854 H2867 0.962 . S
C2854 H2868 0.960 . S
C2855 C2852 1.511 . S
C2855 H2869 0.961 . S
C2855 H2870 0.961 . S
C2855 H2871 0.961 . S
C2856 C2857 1.332 1_565 S
C2856 C2858 1.363 . S
C2856 H2872 0.931 . S
C2857 C2856 1.332 1_545 S
C2857 C2861 1.431 . S
C2858 C2856 1.363 . S
C2858 C2859 1.370 1_565 S
C2858 C2862 1.524 . S
C2859 C2851 1.503 . S
C2859 C2858 1.370 1_545 S
C2859 C2860 1.403 . S
C2860 C2859 1.403 . S
C2860 C2861 1.404 . S
C2860 C2863 1.539 . S
C2861 C2857 1.431 . S
C2861 C2860 1.404 . S
C2861 H2873 0.930 . S
C2862 C2858 1.524 . S
C2862 H2874 0.956 . S
C2862 H2875 0.961 . S
C2862 H2876 0.961 . S
C2863 C2860 1.539 . S
C2863 H2877 0.958 . S
C2863 H2878 0.961 . S
C2863 H2879 0.960 . S
H2864 C2848 0.931 1_565 S
H2865 C2853 0.929 . S
H2866 C2854 0.935 1_545 S
H2867 C2854 0.962 . S
H2868 C2854 0.960 . S
H2869 C2855 0.961 . S
H2870 C2855 0.961 . S
H2871 C2855 0.961 . S
H2872 C2856 0.931 . S
H2873 C2861 0.930 . S
H2874 C2862 0.956 . S
H2875 C2862 0.961 . S
H2876 C2862 0.961 . S
H2877 C2863 0.958 . S
H2878 C2863 0.961 . S
H2879 C2863 0.960 . S
C577 C7 1.525 . S
C585 C421 1.505 . S
C609 C23 1.568 . S
C617 C446 1.557 . S
C649 C457 1.527 . S
C641 C37 1.504 . S
C673 C35 1.498 . S
C681 C482 1.525 . S
C705 C9 1.529 1_455 S
C713 C500 1.540 . S
C737 C21 1.536 . S
C745 C511 1.562 . S
C769 C49 1.468 . S
C777 C493 1.526 . S
C809 C518 1.546 . S
C801 C65 1.527 . S
C841 C475 1.528 . S
C833 C79 1.544 1_565 S
C865 C77 1.520 . S
C873 C464 1.485 . S
C905 C428 1.549 . S
C897 C51 1.504 1_655 S
C929 C63 1.541 . S
C937 C439 1.534 . S
C961 C91 1.572 . S
C969 C529 1.603 . S
C993 C107 1.612 . S
C1001 C554 1.590 . S
C1033 C565 1.581 . S
C1025 C121 1.622 . S
C1057 C119 1.592 . S
C1065 C266 1.589 . S
C1089 C93 1.617 . S
C1097 C284 1.597 . S
C1121 C105 1.594 . S
C1129 C295 1.570 . S
C1153 C133 1.490 . S
C1161 C277 1.543 . S
C1185 C149 1.550 . S
C1193 C302 1.566 . S
C1225 C259 1.578 . S
C1217 C163 1.591 . S
C1257 C572 1.595 . S
C1249 C161 1.591 . S
C1289 C536 1.568 . S
C1281 C135 1.559 . S
C1321 C547 1.578 . S
C1313 C147 1.578 . S
C1345 C175 1.521 . S
C1353 C313 1.565 . S
C1377 C191 1.602 . S
C1385 C338 1.575 . S
C1409 C205 1.612 . S
C1417 C349 1.600 . S
C1441 C203 1.621 . S
C1449 C374 1.631 . S
C1481 C392 1.610 . S
C1473 C177 1.625 . S
C1513 C403 1.594 . S
C1505 C189 1.612 . S
C1545 C385 1.589 . S
C1537 C217 1.542 . S
C1577 C410 1.574 . S
C1569 C233 1.597 . S
C1601 C247 1.582 . S
C1609 C367 1.563 . S
C1641 C356 1.560 . S
C1633 C245 1.526 . S
C1665 C219 1.583 . S
C1673 C320 1.581 . S
C1705 C331 1.572 . S
C1697 C231 1.536 . S
C1737 C268 1.459 . S
C1729 C8 1.517 . S
C1761 C17 1.467 . S
C1769 C286 1.413 . S
C1801 C296 1.459 . S
C1793 C31 1.515 . S
C1833 C314 1.471 . S
C1825 C36 1.525 . S
C1865 C340 1.446 . S
C1857 C3 1.501 . S
C1897 C350 1.415 . S
C1889 C22 1.462 . S
C1921 C50 1.548 . S
C1929 C358 1.474 . S
C1953 C59 1.496 . S
C1961 C322 1.421 . S
C1985 C73 1.534 . S
C1993 C332 1.452 . S
C2017 C78 1.568 . S
C2025 C278 1.514 . S
C2057 C304 1.453 . S
C2049 C45 1.524 . S
C2081 C64 1.502 . S
C2089 C260 1.429 . S
C2121 C376 1.437 . S
C2113 C92 1.516 . S
C2145 C101 1.549 . S
C2153 C394 1.490 . S
C2177 C115 1.567 . S
C2185 C404 1.498 . S
C2217 C422 1.422 . S
C2209 C120 1.458 . S
C2241 C87 1.508 . S
C2249 C448 1.431 . S
C2273 C106 1.439 . S
C2281 C458 1.401 . S
C2305 C134 1.457 . S
C2313 C466 1.389 . S
C2337 C143 1.463 . S
C2345 C430 1.383 . S
C2377 C440 1.485 . S
C2369 C157 1.546 . S
C2401 C162 1.552 . S
C2409 C386 1.458 . S
C2433 C129 1.585 . S
C2441 C412 1.503 . S
C2473 C368 1.475 . S
C2465 C148 1.575 . S
C2505 C484 1.401 . S
C2497 C176 1.469 . S
C2529 C185 1.463 . S
C2537 C502 1.388 . S
C2561 C199 1.516 . S
C2569 C512 1.437 . S
C2601 C530 1.426 . S
C2593 C204 1.515 . S
C2633 C556 1.492 . S
C2625 C171 1.559 . S
C2657 C190 1.542 . S
C2665 C566 1.455 . S
C2689 C218 1.538 . S
C2697 C574 1.470 . S
C2721 C227 1.576 . S
C2729 C538 1.488 . S
C2761 C548 1.486 . S
C2753 C241 1.579 . S
C2793 C494 1.361 1_655 S
C2785 C246 1.478 . S
C2825 C520 1.430 . S
C2817 C213 1.530 . S
C2849 C232 1.450 . S
C2857 C476 1.402 1_545 S
