# Generated by pormake.
# Topology scu, (8,4)-cn, num edge types: 1
# Building blocks:
#     Node 0, Type 0, BuildingBlock: VETTIZ_charged_sbu_0, # of connection points: 8
#     Node 1, Type 1, BuildingBlock: IZENUY_clean_linker_0, # of connection points: 4
#     Node 2, Type 1, BuildingBlock: IZENUY_clean_linker_0, # of connection points: 4
#     Edge 3, Type (0, 1), BuildingBlock: ZUJKAS_clean_linker_0, # of connection points: 2
#     Edge 4, Type (0, 1), BuildingBlock: ZUJKAS_clean_linker_0, # of connection points: 2
#     Edge 5, Type (0, 1), BuildingBlock: ZUJKAS_clean_linker_0, # of connection points: 2
#     Edge 6, Type (0, 1), BuildingBlock: ZUJKAS_clean_linker_0, # of connection points: 2
#     Edge 7, Type (0, 1), BuildingBlock: ZUJKAS_clean_linker_0, # of connection points: 2
#     Edge 8, Type (0, 1), BuildingBlock: ZUJKAS_clean_linker_0, # of connection points: 2
#     Edge 9, Type (0, 1), BuildingBlock: ZUJKAS_clean_linker_0, # of connection points: 2
#     Edge 10, Type (0, 1), BuildingBlock: ZUJKAS_clean_linker_0, # of connection points: 2
# Relax obj value: 0.029
# Max RMSD: 0.128
# Mean RMSD: 0.109
data_MOF--net-scu--node1-VETTIZ_charged_sbu_0--node2-IZENUY_clean_linker_0--edge1-ZUJKAS_clean_linker_0
_symmetry_space_group_name_H-M    P1
_symmetry_Int_Tables_number       1
_symmetry_cell_setting            triclinic
loop_
_symmetry_equiv_pos_as_xyz
'x, y, z'
_cell_length_a     36.469496
_cell_length_b     36.495159
_cell_length_c     22.839441
_cell_angle_alpha  90.446605
_cell_angle_beta   87.682421
_cell_angle_gamma 91.623175
loop_
_atom_site_label
_atom_site_type_symbol
_atom_site_fract_x
_atom_site_fract_y
_atom_site_fract_z
_atom_type_partial_charge
Fe0 Fe 0.03062 0.03078 0.14049 0.0
O1 O 0.032 0.03364 0.05471 0.0
Fe2 Fe 0.04768 0.98712 1.00634 0.0
Fe3 Fe 0.98864 0.04674 0.00934 0.0
O4 O 0.03452 0.03108 0.05456 0.0
O5 O 1.00423 1.0001 0.96092 0.0
O6 O 1.00167 1.00273 0.96105 0.0
Fe7 Fe 1.00577 1.00381 0.875 0.0
C8 C 0.94849 0.01848 0.11674 0.0
O9 O 0.02729 0.08692 0.13234 0.0
O10 O 0.98175 0.09233 0.06575 0.0
O11 O 0.06253 1.0052 0.86608 0.0
O12 O 0.08248 0.0194 0.95442 0.0
O13 O 0.09262 0.98037 0.06027 0.0
O14 O 0.08682 0.02652 0.12958 0.0
O15 O 0.02186 0.08056 0.9575 0.0
O16 O 1.00645 0.06039 0.86958 0.0
C17 C 0.10564 1.00201 0.10074 0.0
O18 O 1.01003 0.94774 0.8816 0.0
O19 O 0.05481 0.94176 0.94942 0.0
O20 O 0.97389 0.03023 0.14937 0.0
O21 O 0.95366 1.01484 0.06165 0.0
C22 C 1.00329 0.10565 0.10549 0.0
C23 C 0.01872 0.08558 0.90301 0.0
C24 C 0.93068 0.03185 0.91499 0.0
O25 O 0.94379 0.05363 0.95523 0.0
O26 O 0.94949 1.0074 0.88599 0.0
C27 C 0.08772 0.01673 0.89924 0.0
O28 O 1.01483 0.95308 0.05859 0.0
O29 O 0.02923 0.97422 0.14667 0.0
C30 C 0.03435 0.92904 0.90777 0.0
C31 C 0.01768 0.94856 0.11335 0.0
H32 H 1.01054 0.46774 0.42664 0.0
H33 H 0.01898 0.45762 0.61379 0.0
H34 H 1.01469 0.3613 0.50447 0.0
H35 H 0.01961 0.5662 0.58935 0.0
H36 H 1.00322 0.57582 0.40414 0.0
H37 H 1.00577 0.67205 0.51382 0.0
N38 N 1.01477 0.50613 0.52931 0.0
N39 N 1.01209 0.52763 0.48754 0.0
C40 C 1.01236 0.45096 0.46527 0.0
C41 C 1.0128 0.41263 0.45913 0.0
C42 C 1.01497 0.46741 0.52125 0.0
C43 C 0.01738 0.44507 0.57077 0.0
C44 C 1.01668 0.40671 0.56507 0.0
C45 C 1.01476 0.39091 0.50915 0.0
C46 C 1.01518 0.58285 0.55136 0.0
C47 C 1.01268 0.62102 0.5581 0.0
C48 C 1.01134 0.56633 0.4957 0.0
C49 C 1.00598 0.58848 0.44687 0.0
C50 C 1.00339 0.62666 0.45321 0.0
C51 C 1.0067 0.6425 0.50893 0.0
H52 H 0.57267 1.00934 0.43497 0.0
H53 H 0.56817 0.02603 0.62241 0.0
H54 H 0.67191 1.01203 0.53025 0.0
H55 H 0.46224 0.01898 0.58297 0.0
H56 H 0.4669 1.00925 0.39432 0.0
H57 H 0.36266 1.01103 0.48899 0.0
N58 N 0.52662 0.0185 0.53096 0.0
N59 N 0.50843 1.01455 0.48609 0.0
C60 C 0.58633 1.01228 0.47605 0.0
C61 C 0.62473 1.00966 0.4765 0.0
C62 C 0.56568 0.01785 0.529 0.0
C63 C 0.58394 0.02177 0.5818 0.0
C64 C 0.62224 0.01917 0.58257 0.0
C65 C 0.64222 1.01315 0.52987 0.0
C66 C 0.44861 0.01667 0.54179 0.0
C67 C 0.41003 1.01492 0.54209 0.0
C68 C 0.46935 1.01429 0.48826 0.0
C69 C 0.45106 1.01088 0.4354 0.0
C70 C 0.41255 1.01032 0.43534 0.0
C71 C 0.39243 1.01203 0.4888 0.0
H72 H 0.94691 0.15269 0.08733 0.0
H73 H 0.94213 0.21644 0.12199 0.0
H74 H 0.0485 0.21051 0.19661 0.0
H75 H 0.05361 0.14762 0.16247 0.0
H76 H 0.94427 0.23896 0.2407 0.0
H77 H 0.05586 0.30829 0.10971 0.0
H78 H 0.03576 0.26454 0.08867 0.0
H79 H 0.07091 0.26691 0.14185 0.0
C80 C 0.96946 0.16519 0.11044 0.0
C81 C 1.00054 0.14489 0.12241 0.0
C82 C 0.96668 0.20158 0.13016 0.0
C83 C 0.99524 0.21841 0.16103 0.0
C84 C 0.02648 0.19841 0.17179 0.0
H85 H 0.06077 0.36427 0.41198 0.0
H86 H 0.0521 0.32405 0.32737 0.0
C87 C 0.02914 0.16219 0.15271 0.0
C88 C 0.9917 0.25553 0.18731 0.0
H89 H 0.04069 0.33571 0.2048 0.0
C90 C 0.96459 0.26068 0.23175 0.0
C91 C 0.01819 0.28383 0.17536 0.0
C92 C 0.04658 0.28078 0.12583 0.0
C93 C 0.96536 0.29191 0.26814 0.0
C94 C 0.9937 0.31885 0.25916 0.0
C95 C 0.01906 0.315 0.21178 0.0
C96 C 1.00097 0.34759 0.30386 0.0
C97 C 0.93766 0.29444 0.31883 0.0
C98 C 0.97583 0.37522 0.31733 0.0
C99 C 0.98089 0.39845 0.36577 0.0
C100 C 1.01103 0.39414 0.40129 0.0
C101 C 0.03724 0.36803 0.38536 0.0
C102 C 0.03233 0.34509 0.33703 0.0
H103 H 0.92003 0.26922 0.32346 0.0
H104 H 0.95183 0.29929 0.36044 0.0
H105 H 0.91969 0.31793 0.31207 0.0
H106 H 0.95166 0.37785 0.29183 0.0
H107 H 0.96023 0.41828 0.37741 0.0
H108 H 0.9282 0.01714 0.23316 0.0
H109 H 0.86632 1.01238 0.27745 0.0
H110 H 0.82154 1.00182 0.1061 0.0
H111 H 0.88366 1.00624 0.06103 0.0
H112 H 0.80992 0.06098 0.2574 0.0
H113 H 0.76946 0.91743 0.19964 0.0
H114 H 0.81669 0.93381 0.19632 0.0
H115 H 0.78628 0.94635 0.14045 0.0
C116 C 0.90532 1.01341 0.20471 0.0
C117 C 0.91103 1.0121 0.14345 0.0
C118 C 0.8699 1.01074 0.23018 0.0
C119 C 0.8393 1.00659 0.19516 0.0
C120 C 0.84478 1.00448 0.13403 0.0
H121 H 0.62491 0.04824 0.37383 0.0
H122 H 0.67189 0.04679 0.29353 0.0
C123 C 0.88034 1.00708 0.10837 0.0
C124 C 0.80185 1.00637 0.22333 0.0
H125 H 0.72627 0.95149 0.25504 0.0
C126 C 0.79139 0.03723 0.25633 0.0
C127 C 0.77781 0.9753 0.22185 0.0
C128 C 0.78803 0.94116 0.18805 0.0
C129 C 0.75822 0.03743 0.28972 0.0
C130 C 0.73446 1.00607 0.28934 0.0
C131 C 0.74433 0.97562 0.25475 0.0
C132 C 0.70195 1.0028 0.33054 0.0
C133 C 0.74989 0.07046 0.32769 0.0
C134 C 0.70205 0.9772 0.37599 0.0
C135 C 0.67524 0.97782 0.42133 0.0
C136 C 0.64768 1.00401 0.42213 0.0
C137 C 0.64582 0.02776 0.37425 0.0
C138 C 0.67281 0.02716 0.32872 0.0
H139 H 0.774 0.0896 0.3306 0.0
H140 H 0.72723 0.08559 0.3089 0.0
H141 H 0.74095 0.0619 0.37271 0.0
H142 H 0.72411 0.95805 0.3782 0.0
H143 H 0.6771 0.95894 0.45741 0.0
H144 H 0.0183 0.92903 0.22854 0.0
H145 H 1.01289 0.86757 0.2696 0.0
H146 H 0.99631 0.82216 0.09761 0.0
H147 H 1.00171 0.88385 0.05561 0.0
H148 H 0.94743 0.79266 0.19308 0.0
H149 H 0.09502 0.79092 0.24229 0.0
H150 H 0.07224 0.83121 0.2686 0.0
H151 H 0.07694 0.82259 0.1911 0.0
C152 C 1.01328 0.90612 0.19925 0.0
C153 C 1.01073 0.91149 0.13861 0.0
C154 C 1.01032 0.87095 0.22287 0.0
C155 C 1.00482 0.84031 0.18652 0.0
C156 C 1.00078 0.84548 0.12633 0.0
H157 H 0.04109 0.6271 0.34692 0.0
H158 H 0.03919 0.67379 0.27028 0.0
C159 C 1.00382 0.88078 0.10248 0.0
C160 C 1.00416 0.80302 0.21195 0.0
H161 H 0.05582 0.74607 0.29056 0.0
C162 C 0.97123 0.78215 0.21367 0.0
C163 C 0.03543 0.78904 0.23776 0.0
C164 C 0.07204 0.8094 0.23447 0.0
C165 C 0.9682 0.74861 0.24369 0.0
C166 C 0.99878 0.73596 0.27318 0.0
C167 C 0.03228 0.75582 0.26833 0.0
C168 C 0.99593 0.70438 0.31397 0.0
C169 C 0.93212 0.72736 0.24434 0.0
C170 C 0.97187 0.7057 0.36341 0.0
C171 C 0.97293 0.67918 0.40699 0.0
C172 C 0.99823 0.65083 0.40229 0.0
C173 C 0.02111 0.64844 0.35146 0.0
C174 C 0.02015 0.67517 0.30784 0.0
H175 H 0.9164 0.73343 0.20506 0.0
H176 H 0.93631 0.69737 0.24608 0.0
H177 H 0.91525 0.73543 0.28361 0.0
H178 H 0.95349 0.72831 0.36984 0.0
H179 H 0.95484 0.68161 0.44555 0.0
H180 H 0.14563 0.04922 0.16763 0.0
H181 H 0.20824 0.0437 0.19753 0.0
H182 H 0.21779 0.94263 0.09988 0.0
H183 H 0.15421 0.94774 0.0694 0.0
H184 H 0.24034 0.93961 0.21798 0.0
H185 H 0.30575 0.05876 0.1039 0.0
H186 H 0.26355 0.07058 0.14151 0.0
H187 H 0.26283 0.03795 0.08196 0.0
C188 C 0.16086 0.02581 0.15192 0.0
C189 C 0.14463 0.99883 0.11614 0.0
C190 C 0.19694 0.02294 0.1687 0.0
C191 C 0.21793 0.99315 0.15007 0.0
C192 C 0.20214 0.96608 0.11415 0.0
H193 H 0.42003 0.96032 0.34546 0.0
H194 H 0.37955 0.95188 0.2623 0.0
C195 C 0.16583 0.96905 0.09685 0.0
C196 C 0.25522 0.98965 0.17267 0.0
H197 H 0.33333 0.04084 0.19429 0.0
C198 C 0.2613 0.96104 0.21148 0.0
C199 C 0.28255 0.01755 0.16382 0.0
C200 C 0.27851 0.04773 0.12001 0.0
C201 C 0.29239 0.96156 0.24597 0.0
C202 C 0.3181 0.99128 0.24081 0.0
C203 C 0.3135 0.01819 0.19841 0.0
C204 C 0.34596 0.99817 0.28541 0.0
C205 C 0.29599 0.93201 0.29105 0.0
C206 C 0.34132 0.02774 0.32432 0.0
C207 C 0.36423 0.03259 0.37131 0.0
C208 C 0.39244 1.00807 0.38023 0.0
C209 C 0.39851 0.97963 0.33939 0.0
C210 C 0.37529 0.97464 0.29228 0.0
H211 H 0.27185 0.91273 0.29309 0.0
H212 H 0.32084 0.91608 0.28011 0.0
H213 H 0.29928 0.94446 0.33512 0.0
H214 H 0.31892 0.04627 0.31974 0.0
H215 H 0.35917 0.05491 0.40188 0.0
H216 H 1.01317 0.8998 0.80421 0.0
H217 H 0.01896 0.83723 0.76878 0.0
H218 H 0.07214 0.80817 0.92631 0.0
H219 H 0.06648 0.8716 0.96292 0.0
H220 H 0.09284 0.79521 0.76143 0.0
H221 H 0.97647 0.7344 0.8972 0.0
H222 H 0.97702 0.78245 0.87884 0.0
H223 H 1.00943 0.76596 0.92858 0.0
C224 C 0.02609 0.88031 0.83174 0.0
C225 C 0.03925 0.89082 0.88666 0.0
C226 C 0.02948 0.84451 0.81117 0.0
C227 C 0.04586 0.81816 0.84495 0.0
C228 C 0.05935 0.82824 0.89969 0.0
H229 H 0.06876 0.61521 0.63369 0.0
H230 H 0.08136 0.65573 0.71762 0.0
C231 C 0.0562 0.86444 0.92037 0.0
C232 C 0.04809 0.78034 0.82143 0.0
H233 H 0.99683 0.70085 0.81395 0.0
C234 C 0.07271 0.77395 0.77396 0.0
C235 C 0.02152 0.75303 0.83777 0.0
C236 C 0.99448 0.75896 0.88841 0.0
C237 C 0.06978 0.74197 0.73965 0.0
C238 C 0.04159 0.71562 0.75362 0.0
C239 C 0.01855 0.72095 0.80358 0.0
C240 C 0.03167 0.68627 0.71126 0.0
C241 C 0.09487 0.7381 0.68588 0.0
C242 C 0.99877 0.68879 0.68198 0.0
C243 C 0.99154 0.66577 0.63454 0.0
C244 C 0.017 0.63959 0.61554 0.0
C245 C 0.04866 0.63512 0.64758 0.0
C246 C 0.056 0.65839 0.69515 0.0
H247 H 0.11245 0.76303 0.67767 0.0
H248 H 0.11303 0.71461 0.69154 0.0
H249 H 0.07857 0.73249 0.6466 0.0
H250 H 0.97958 0.71003 0.69369 0.0
H251 H 0.9668 0.66959 0.61086 0.0
H252 H 0.15218 0.02812 0.95593 0.0
H253 H 0.21425 0.03546 0.91164 0.0
H254 H 0.17011 0.02895 0.73945 0.0
H255 H 0.10816 0.02194 0.783 0.0
H256 H 0.24964 0.9854 0.83845 0.0
H257 H 0.24 0.11815 0.72586 0.0
H258 H 0.20733 0.10322 0.78293 0.0
H259 H 0.20299 0.08693 0.70886 0.0
C260 C 0.15559 0.02887 0.90861 0.0
C261 C 0.12507 0.02448 0.87303 0.0
C262 C 0.19113 0.03297 0.88341 0.0
C263 C 0.19681 0.03326 0.82224 0.0
C264 C 0.16637 0.02959 0.78674 0.0
H265 H 0.35821 0.96463 0.57844 0.0
H266 H 0.31196 0.97093 0.65791 0.0
C267 C 0.13092 0.02532 0.81178 0.0
C268 C 0.23453 0.0346 0.79498 0.0
H269 H 0.28769 0.07849 0.68927 0.0
C270 C 0.25826 1.00615 0.80664 0.0
C271 C 0.24613 0.06199 0.75426 0.0
C272 C 0.22292 0.09451 0.74266 0.0
C273 C 0.29214 1.00299 0.77572 0.0
C274 C 0.30234 0.0287 0.73151 0.0
C275 C 0.27977 0.05856 0.72277 0.0
C276 C 0.33382 0.02288 0.6894 0.0
C277 C 0.3163 0.97162 0.78966 0.0
C278 C 0.36177 0.04987 0.68073 0.0
C279 C 0.38844 0.04619 0.63517 0.0
C280 C 0.38707 1.01579 0.59713 0.0
C281 C 0.35995 0.98822 0.60739 0.0
C282 C 0.33363 0.99173 0.65299 0.0
H283 H 0.31138 0.96246 0.83566 0.0
H284 H 0.30984 0.94803 0.76052 0.0
H285 H 0.34582 0.97932 0.78269 0.0
H286 H 0.36224 0.07428 0.708 0.0
H287 H 0.40881 0.06801 0.62763 0.0
H288 H 0.03203 0.15011 0.96252 0.0
H289 H 0.03844 0.21192 0.92145 0.0
H290 H 0.02807 0.16705 0.74753 0.0
H291 H 0.02204 0.10535 0.78778 0.0
H292 H 0.08413 0.22253 0.7566 0.0
H293 H 0.94984 0.26485 0.8564 0.0
H294 H 0.98274 0.2476 0.9051 0.0
H295 H 0.96268 0.21748 0.85201 0.0
C296 C 0.03155 0.15333 0.91545 0.0
C297 C 0.02621 0.12272 0.87847 0.0
C298 C 0.035 0.18872 0.89214 0.0
C299 C 0.03321 0.19409 0.83153 0.0
C300 C 0.0294 0.16351 0.79445 0.0
H301 H 0.97004 0.34959 0.59224 0.0
H302 H 0.97664 0.30303 0.66704 0.0
C303 C 0.02585 0.12824 0.81761 0.0
C304 C 0.0337 0.2314 0.80612 0.0
H305 H 0.98064 0.30627 0.79213 0.0
C306 C 0.06189 0.24121 0.76508 0.0
C307 C 1.00446 0.25553 0.81711 0.0
C308 C 0.97301 0.24595 0.85973 0.0
C309 C 0.06088 0.27381 0.73294 0.0
C310 C 0.03104 0.29736 0.74255 0.0
C311 C 1.00362 0.28829 0.78531 0.0
C312 C 0.02517 0.3285 0.70294 0.0
C313 C 0.09058 0.28174 0.68646 0.0
C314 C 0.04958 0.35899 0.69958 0.0
C315 C 0.04577 0.38581 0.65672 0.0
C316 C 0.01764 0.38228 0.61659 0.0
C317 C 0.99218 0.35276 0.62227 0.0
C318 C 0.99585 0.32623 0.66509 0.0
H319 H 0.10905 0.2583 0.67925 0.0
H320 H 0.07827 0.28834 0.64426 0.0
H321 H 0.10743 0.30591 0.69997 0.0
H322 H 0.07214 0.36144 0.72888 0.0
H323 H 0.06578 0.40826 0.65314 0.0
H324 H 0.8841 0.08895 0.93821 0.0
H325 H 0.82066 0.0941 0.90707 0.0
H326 H 0.82617 0.98699 0.82677 0.0
H327 H 0.88876 0.98152 0.8574 0.0
H328 H 0.79896 0.09065 0.78894 0.0
H329 H 0.7277 0.98174 0.92002 0.0
H330 H 0.77151 1.00182 0.93926 0.0
H331 H 0.76924 0.96595 0.88482 0.0
C332 C 0.87157 0.06633 0.91458 0.0
C333 C 0.89165 0.03491 0.90005 0.0
C334 C 0.83537 0.06933 0.89687 0.0
C335 C 0.81851 0.04066 0.86546 0.0
C336 C 0.8383 1.00911 0.85204 0.0
H337 H 0.67175 0.97243 0.62293 0.0
H338 H 0.71286 0.9826 0.70362 0.0
C339 C 0.87434 1.00623 0.86912 0.0
C340 C 0.78156 0.04425 0.84161 0.0
H341 H 0.70083 0.99597 0.82745 0.0
C342 C 0.77694 0.07072 0.7985 0.0
C343 C 0.75288 0.01828 0.85439 0.0
C344 C 0.75541 0.99059 0.90262 0.0
C345 C 0.74583 0.06977 0.76408 0.0
C346 C 0.71851 0.04189 0.77375 0.0
C347 C 0.72185 0.01723 0.81994 0.0
C348 C 0.6898 0.03431 0.73075 0.0
C349 C 0.74381 0.09673 0.71462 0.0
C350 C 0.66229 0.05942 0.72052 0.0
C351 C 0.63859 0.05356 0.67426 0.0
C352 C 0.64232 0.02264 0.63762 0.0
C353 C 0.66852 0.99664 0.65022 0.0
C354 C 0.69192 1.00237 0.69638 0.0
H355 H 0.76924 0.11404 0.70907 0.0
H356 H 0.73901 0.082 0.67277 0.0
H357 H 0.72041 0.11501 0.72355 0.0
H358 H 0.65995 0.08403 0.74703 0.0
H359 H 0.61867 0.07404 0.66531 0.0
loop_
_geom_bond_atom_site_label_1
_geom_bond_atom_site_label_2
_geom_bond_distance
_geom_bond_site_symmetry_2
_ccdc_geom_bond_type
Fe0 O1 1.886 . S
Fe0 O4 1.715 1_645 S
Fe0 O9 2.077 1_655 S
Fe0 O14 1.935 1_655 S
Fe0 O20 2.077 1_545 S
Fe0 O29 1.935 1_545 S
O1 Fe0 1.886 . S
O1 Fe3 1.714 1_554 S
Fe2 O4 1.890 . S
Fe2 O5 1.710 1_554 S
Fe2 O12 1.932 1_554 S
Fe2 O13 2.081 . S
Fe2 O19 1.932 1_554 S
Fe2 O28 2.081 . S
Fe3 O1 1.714 1_556 S
Fe3 O6 1.887 . S
Fe3 O10 1.934 1_556 S
Fe3 O15 2.078 . S
Fe3 O21 1.934 1_556 S
Fe3 O25 2.078 . S
O4 Fe0 1.715 1_465 S
O4 Fe2 1.890 . S
O5 Fe2 1.710 1_556 S
O5 Fe7 1.886 . S
O6 Fe3 1.887 . S
O6 Fe7 1.715 1_645 S
Fe7 O5 1.886 . S
Fe7 O6 1.715 1_465 S
Fe7 O11 2.077 1_565 S
Fe7 O16 1.935 1_565 S
Fe7 O18 2.077 1_455 S
Fe7 O26 1.935 1_455 S
C8 O20 1.375 1_545 S
C8 O21 1.421 . S
O9 Fe0 2.077 1_455 S
O9 C22 1.373 1_455 S
O10 Fe3 1.934 1_554 S
O10 C22 1.421 . S
O11 Fe7 2.077 1_545 S
O11 C27 1.373 1_545 S
O12 Fe2 1.932 1_556 S
O12 C27 1.421 . S
O13 Fe2 2.081 . S
O13 C17 1.381 . S
O14 Fe0 1.935 1_455 S
O14 C17 1.421 1_545 S
O15 Fe3 2.078 . S
O15 C23 1.381 . S
O16 Fe7 1.935 1_545 S
O16 C23 1.421 1_455 S
C17 O13 1.381 . S
C17 O14 1.421 1_565 S
O18 Fe7 2.077 1_655 S
O18 C30 1.375 1_655 S
O19 Fe2 1.932 1_556 S
O19 C30 1.421 . S
O20 Fe0 2.077 1_565 S
O20 C8 1.375 1_565 S
O21 Fe3 1.934 1_554 S
O21 C8 1.421 . S
C22 O9 1.373 1_655 S
C22 O10 1.421 . S
C23 O15 1.381 . S
C23 O16 1.421 1_655 S
C24 O25 1.381 . S
C24 O26 1.421 1_545 S
O25 Fe3 2.078 . S
O25 C24 1.381 . S
O26 Fe7 1.935 1_655 S
O26 C24 1.421 1_565 S
C27 O11 1.373 1_565 S
C27 O12 1.421 . S
O28 Fe2 2.081 . S
O28 C31 1.381 . S
O29 Fe0 1.935 1_565 S
O29 C31 1.421 1_655 S
C30 O18 1.375 1_455 S
C30 O19 1.421 . S
C31 O28 1.381 . S
C31 O29 1.421 1_455 S
H32 C40 0.940 . S
H33 C43 0.940 . S
H34 C45 0.940 . S
H35 C46 0.940 . S
H36 C49 0.940 . S
H37 C51 0.940 . S
N38 N39 1.190 . S
N38 C42 1.477 . S
N39 N38 1.190 . S
N39 C48 1.477 . S
C40 H32 0.940 . S
C40 C41 1.390 1_455 S
C40 C42 1.322 . S
C41 C40 1.390 1_655 S
C41 C45 1.370 . S
C42 N38 1.477 . S
C42 C40 1.322 . S
C42 C43 1.447 . S
C43 H33 0.940 . S
C43 C42 1.447 . S
C43 C44 1.373 . S
C44 C43 1.373 . S
C44 C45 1.417 1_455 S
C45 H34 0.940 . S
C45 C41 1.370 . S
C45 C44 1.417 1_655 S
C46 H35 0.940 . S
C46 C47 1.390 1_455 S
C46 C48 1.322 . S
C47 C46 1.390 1_655 S
C47 C51 1.370 . S
C48 N39 1.477 . S
C48 C46 1.322 . S
C48 C49 1.447 . S
C49 H36 0.940 . S
C49 C48 1.447 . S
C49 C50 1.373 . S
C50 C49 1.373 . S
C50 C51 1.417 1_455 S
C51 H37 0.940 . S
C51 C47 1.370 . S
C51 C50 1.417 1_655 S
H52 C60 0.940 . S
H53 C63 0.940 . S
H54 C65 0.940 . S
H55 C66 0.940 . S
H56 C69 0.940 . S
H57 C71 0.940 . S
N58 N59 1.190 . S
N58 C62 1.477 . S
N59 N58 1.190 . S
N59 C68 1.477 . S
C60 H52 0.940 . S
C60 C61 1.390 1_545 S
C60 C62 1.322 . S
C61 C60 1.390 1_565 S
C61 C65 1.370 . S
C62 N58 1.477 . S
C62 C60 1.322 . S
C62 C63 1.447 . S
C63 H53 0.940 . S
C63 C62 1.447 . S
C63 C64 1.373 . S
C64 C63 1.373 . S
C64 C65 1.417 1_545 S
C65 H54 0.940 . S
C65 C61 1.370 . S
C65 C64 1.417 1_565 S
C66 H55 0.940 . S
C66 C67 1.390 1_545 S
C66 C68 1.322 . S
C67 C66 1.390 1_565 S
C67 C71 1.370 . S
C68 N59 1.477 . S
C68 C66 1.322 . S
C68 C69 1.447 . S
C69 H56 0.940 . S
C69 C68 1.447 . S
C69 C70 1.373 . S
C70 C69 1.373 . S
C70 C71 1.417 1_545 S
C71 H57 0.940 . S
C71 C67 1.370 . S
C71 C70 1.417 1_565 S
H72 C80 0.929 . S
H73 C82 0.930 . S
H74 C84 0.930 . S
H75 C87 0.929 . S
H76 C90 0.930 . S
H77 C92 0.960 . S
H78 C92 0.960 . S
H79 C92 0.960 . S
C80 H72 0.929 . S
C80 C81 1.377 . S
C80 C82 1.384 . S
C81 C80 1.377 . S
C81 C87 1.390 1_655 S
C82 H73 0.930 . S
C82 C80 1.384 . S
C82 C83 1.372 . S
C83 C82 1.372 . S
C83 C84 1.400 1_655 S
C83 C88 1.490 . S
C84 H74 0.930 . S
C84 C83 1.400 1_455 S
C84 C87 1.386 . S
H85 C101 0.930 . S
H86 C102 0.931 . S
C87 H75 0.929 . S
C87 C81 1.390 1_455 S
C87 C84 1.386 . S
C88 C83 1.490 . S
C88 C90 1.395 . S
C88 C91 1.403 1_655 S
H89 C95 0.930 . S
C90 H76 0.930 . S
C90 C88 1.395 . S
C90 C93 1.403 . S
C91 C88 1.403 1_455 S
C91 C92 1.524 . S
C91 C95 1.400 . S
C92 H77 0.960 . S
C92 H78 0.960 . S
C92 H79 0.960 . S
C92 C91 1.524 . S
C93 C90 1.403 . S
C93 C94 1.392 . S
C93 C97 1.495 . S
C94 C93 1.392 . S
C94 C95 1.385 1_655 S
C94 C96 1.478 . S
C95 H89 0.930 . S
C95 C91 1.400 . S
C95 C94 1.385 1_455 S
C96 C94 1.478 . S
C96 C98 1.381 . S
C96 C102 1.383 1_655 S
C97 C93 1.495 . S
C97 H103 0.959 . S
C97 H104 0.961 . S
C97 H105 0.960 . S
C98 C96 1.381 . S
C98 C99 1.394 . S
C98 H106 0.930 . S
C99 C98 1.394 . S
C99 C100 1.383 . S
C99 H107 0.929 . S
C100 C99 1.383 . S
C100 C101 1.377 1_655 S
C101 H85 0.930 . S
C101 C100 1.377 1_455 S
C101 C102 1.379 . S
C102 H86 0.931 . S
C102 C96 1.383 1_455 S
C102 C101 1.379 . S
H103 C97 0.959 . S
H104 C97 0.961 . S
H105 C97 0.960 . S
H106 C98 0.930 . S
H107 C99 0.929 . S
H108 C116 0.929 . S
H109 C118 0.930 . S
H110 C120 0.930 . S
H111 C123 0.929 . S
H112 C126 0.930 . S
H113 C128 0.960 . S
H114 C128 0.960 . S
H115 C128 0.960 . S
C116 H108 0.929 . S
C116 C117 1.376 . S
C116 C118 1.384 . S
C117 C116 1.376 . S
C117 C123 1.391 1_565 S
C118 H109 0.930 . S
C118 C116 1.384 . S
C118 C119 1.372 . S
C119 C118 1.372 . S
C119 C120 1.400 1_565 S
C119 C124 1.490 . S
C120 H110 0.930 . S
C120 C119 1.400 1_545 S
C120 C123 1.386 . S
H121 C137 0.930 . S
H122 C138 0.931 . S
C123 H111 0.929 . S
C123 C117 1.391 1_545 S
C123 C120 1.386 . S
C124 C119 1.490 . S
C124 C126 1.395 1_565 S
C124 C127 1.403 . S
H125 C131 0.930 . S
C126 H112 0.930 . S
C126 C124 1.395 1_545 S
C126 C129 1.403 . S
C127 C124 1.403 . S
C127 C128 1.524 . S
C127 C131 1.400 . S
C128 H113 0.960 . S
C128 H114 0.960 . S
C128 H115 0.960 . S
C128 C127 1.524 . S
C129 C126 1.403 . S
C129 C130 1.392 . S
C129 C133 1.495 . S
C130 C129 1.392 . S
C130 C131 1.385 1_545 S
C130 C132 1.478 . S
C131 H125 0.930 . S
C131 C127 1.400 . S
C131 C130 1.385 1_565 S
C132 C130 1.478 . S
C132 C134 1.381 1_545 S
C132 C138 1.383 . S
C133 C129 1.495 . S
C133 H139 0.959 . S
C133 H140 0.961 . S
C133 H141 0.960 . S
C134 C132 1.381 1_565 S
C134 C135 1.394 . S
C134 H142 0.930 . S
C135 C134 1.394 . S
C135 C136 1.383 . S
C135 H143 0.929 . S
C136 C135 1.383 . S
C136 C137 1.377 1_565 S
C137 H121 0.930 . S
C137 C136 1.377 1_545 S
C137 C138 1.379 . S
C138 H122 0.931 . S
C138 C132 1.383 . S
C138 C137 1.379 . S
H139 C133 0.959 . S
H140 C133 0.961 . S
H141 C133 0.960 . S
H142 C134 0.930 . S
H143 C135 0.929 . S
H144 C152 0.929 . S
H145 C154 0.930 . S
H146 C156 0.930 . S
H147 C159 0.929 . S
H148 C162 0.930 . S
H149 C164 0.960 . S
H150 C164 0.960 . S
H151 C164 0.960 . S
C152 H144 0.929 . S
C152 C153 1.386 . S
C152 C154 1.384 . S
C153 C152 1.386 . S
C153 C159 1.381 1_655 S
C154 H145 0.930 . S
C154 C152 1.384 . S
C154 C155 1.372 . S
C155 C154 1.372 . S
C155 C156 1.400 1_655 S
C155 C160 1.490 . S
C156 H146 0.930 . S
C156 C155 1.400 1_455 S
C156 C159 1.386 . S
H157 C173 0.930 . S
H158 C174 0.931 . S
C159 H147 0.929 . S
C159 C153 1.381 1_455 S
C159 C156 1.386 . S
C160 C155 1.490 . S
C160 C162 1.395 . S
C160 C163 1.403 1_655 S
H161 C167 0.930 . S
C162 H148 0.930 . S
C162 C160 1.395 . S
C162 C165 1.403 . S
C163 C160 1.403 1_455 S
C163 C164 1.524 . S
C163 C167 1.400 . S
C164 H149 0.960 . S
C164 H150 0.960 . S
C164 H151 0.960 . S
C164 C163 1.524 . S
C165 C162 1.403 . S
C165 C166 1.392 . S
C165 C169 1.495 . S
C166 C165 1.392 . S
C166 C167 1.385 1_655 S
C166 C168 1.478 . S
C167 H161 0.930 . S
C167 C163 1.400 . S
C167 C166 1.385 1_455 S
C168 C166 1.478 . S
C168 C170 1.381 . S
C168 C174 1.383 1_655 S
C169 C165 1.495 . S
C169 H175 0.959 . S
C169 H176 0.961 . S
C169 H177 0.960 . S
C170 C168 1.381 . S
C170 C171 1.394 . S
C170 H178 0.930 . S
C171 C170 1.394 . S
C171 C172 1.383 1_655 S
C171 H179 0.929 . S
C172 C171 1.383 1_455 S
C172 C173 1.377 . S
C173 H157 0.930 . S
C173 C172 1.377 . S
C173 C174 1.379 . S
C174 H158 0.931 . S
C174 C168 1.383 1_455 S
C174 C173 1.379 . S
H175 C169 0.959 . S
H176 C169 0.961 . S
H177 C169 0.960 . S
H178 C170 0.930 . S
H179 C171 0.929 . S
H180 C188 0.929 . S
H181 C190 0.930 . S
H182 C192 0.930 . S
H183 C195 0.929 . S
H184 C198 0.930 . S
H185 C200 0.960 . S
H186 C200 0.960 . S
H187 C200 0.960 . S
C188 H180 0.929 . S
C188 C189 1.377 . S
C188 C190 1.384 . S
C189 C188 1.377 . S
C189 C195 1.390 1_545 S
C190 H181 0.930 . S
C190 C188 1.384 . S
C190 C191 1.372 . S
C191 C190 1.372 . S
C191 C192 1.400 1_545 S
C191 C196 1.490 . S
C192 H182 0.930 . S
C192 C191 1.400 1_565 S
C192 C195 1.386 . S
H193 C209 0.930 . S
H194 C210 0.931 . S
C195 H183 0.929 . S
C195 C189 1.390 1_565 S
C195 C192 1.386 . S
C196 C191 1.490 . S
C196 C198 1.395 1_545 S
C196 C199 1.403 . S
H197 C203 0.930 . S
C198 H184 0.930 . S
C198 C196 1.395 1_565 S
C198 C201 1.403 . S
C199 C196 1.403 . S
C199 C200 1.524 . S
C199 C203 1.400 . S
C200 H185 0.960 . S
C200 H186 0.960 . S
C200 H187 0.960 . S
C200 C199 1.524 . S
C201 C198 1.403 . S
C201 C202 1.392 . S
C201 C205 1.495 . S
C202 C201 1.392 . S
C202 C203 1.385 1_565 S
C202 C204 1.478 . S
C203 H197 0.930 . S
C203 C199 1.400 . S
C203 C202 1.385 1_545 S
C204 C202 1.478 . S
C204 C206 1.381 1_565 S
C204 C210 1.383 . S
C205 C201 1.495 . S
C205 H211 0.959 . S
C205 H212 0.961 . S
C205 H213 0.960 . S
C206 C204 1.381 1_545 S
C206 C207 1.394 . S
C206 H214 0.930 . S
C207 C206 1.394 . S
C207 C208 1.383 . S
C207 H215 0.929 . S
C208 C207 1.383 . S
C208 C209 1.377 1_545 S
C209 H193 0.930 . S
C209 C208 1.377 1_565 S
C209 C210 1.379 . S
C210 H194 0.931 . S
C210 C204 1.383 . S
C210 C209 1.379 . S
H211 C205 0.959 . S
H212 C205 0.961 . S
H213 C205 0.960 . S
H214 C206 0.930 . S
H215 C207 0.929 . S
H216 C224 0.929 . S
H217 C226 0.930 . S
H218 C228 0.930 . S
H219 C231 0.929 . S
H220 C234 0.930 . S
H221 C236 0.960 . S
H222 C236 0.960 . S
H223 C236 0.960 . S
C224 H216 0.929 . S
C224 C225 1.376 . S
C224 C226 1.384 . S
C225 C224 1.376 . S
C225 C231 1.391 1_655 S
C226 H217 0.930 . S
C226 C224 1.384 . S
C226 C227 1.372 . S
C227 C226 1.372 . S
C227 C228 1.400 1_655 S
C227 C232 1.490 . S
C228 H218 0.930 . S
C228 C227 1.400 1_455 S
C228 C231 1.386 . S
H229 C245 0.930 . S
H230 C246 0.931 . S
C231 H219 0.929 . S
C231 C225 1.391 1_455 S
C231 C228 1.386 . S
C232 C227 1.490 . S
C232 C234 1.395 1_655 S
C232 C235 1.403 . S
H233 C239 0.930 . S
C234 H220 0.930 . S
C234 C232 1.395 1_455 S
C234 C237 1.403 . S
C235 C232 1.403 . S
C235 C236 1.524 . S
C235 C239 1.400 . S
C236 H221 0.960 . S
C236 H222 0.960 . S
C236 H223 0.960 . S
C236 C235 1.524 . S
C237 C234 1.403 . S
C237 C238 1.396 . S
C237 C241 1.495 . S
C238 C237 1.396 . S
C238 C239 1.381 1_455 S
C238 C240 1.477 . S
C239 H233 0.930 . S
C239 C235 1.400 . S
C239 C238 1.381 1_655 S
C240 C238 1.477 . S
C240 C242 1.366 1_455 S
C240 C246 1.397 . S
C241 C237 1.495 . S
C241 H247 0.959 . S
C241 H248 0.961 . S
C241 H249 0.960 . S
C242 C240 1.366 1_655 S
C242 C243 1.394 . S
C242 H250 0.930 . S
C243 C242 1.394 . S
C243 C244 1.383 . S
C243 H251 0.929 . S
C244 C243 1.383 . S
C244 C245 1.377 1_655 S
C245 H229 0.930 . S
C245 C244 1.377 1_455 S
C245 C246 1.379 . S
C246 H230 0.931 . S
C246 C240 1.397 . S
C246 C245 1.379 . S
H247 C241 0.959 . S
H248 C241 0.961 . S
H249 C241 0.960 . S
H250 C242 0.930 . S
H251 C243 0.929 . S
H252 C260 0.929 . S
H253 C262 0.930 . S
H254 C264 0.930 . S
H255 C267 0.929 . S
H256 C270 0.930 . S
H257 C272 0.960 . S
H258 C272 0.960 . S
H259 C272 0.960 . S
C260 H252 0.929 . S
C260 C261 1.374 1_545 S
C260 C262 1.384 . S
C261 C260 1.374 1_565 S
C261 C267 1.393 . S
C262 H253 0.930 . S
C262 C260 1.384 . S
C262 C263 1.372 1_545 S
C263 C262 1.372 1_565 S
C263 C264 1.400 . S
C263 C268 1.490 . S
C264 H254 0.930 . S
C264 C263 1.400 . S
C264 C267 1.386 . S
H265 C281 0.930 . S
H266 C282 0.931 . S
C267 H255 0.929 . S
C267 C261 1.393 . S
C267 C264 1.386 . S
C268 C263 1.490 . S
C268 C270 1.395 . S
C268 C271 1.403 1_565 S
H269 C275 0.930 . S
C270 H256 0.930 . S
C270 C268 1.395 . S
C270 C273 1.403 . S
C271 C268 1.403 1_545 S
C271 C272 1.524 . S
C271 C275 1.400 . S
C272 H257 0.960 . S
C272 H258 0.960 . S
C272 H259 0.960 . S
C272 C271 1.524 . S
C273 C270 1.403 . S
C273 C274 1.392 . S
C273 C277 1.495 . S
C274 C273 1.392 . S
C274 C275 1.385 1_565 S
C274 C276 1.478 . S
C275 H269 0.930 . S
C275 C271 1.400 . S
C275 C274 1.385 1_545 S
C276 C274 1.478 . S
C276 C278 1.381 1_565 S
C276 C282 1.383 . S
C277 C273 1.495 . S
C277 H283 0.959 . S
C277 H284 0.961 . S
C277 H285 0.960 . S
C278 C276 1.381 1_545 S
C278 C279 1.394 . S
C278 H286 0.930 . S
C279 C278 1.394 . S
C279 C280 1.383 1_545 S
C279 H287 0.929 . S
C280 C279 1.383 1_565 S
C280 C281 1.377 . S
C281 H265 0.930 . S
C281 C280 1.377 . S
C281 C282 1.379 . S
C282 H266 0.931 . S
C282 C276 1.383 . S
C282 C281 1.379 . S
H283 C277 0.959 . S
H284 C277 0.961 . S
H285 C277 0.960 . S
H286 C278 0.930 . S
H287 C279 0.929 . S
H288 C296 0.929 . S
H289 C298 0.930 . S
H290 C300 0.930 . S
H291 C303 0.929 . S
H292 C306 0.930 . S
H293 C308 0.960 . S
H294 C308 0.960 . S
H295 C308 0.960 . S
C296 H288 0.929 . S
C296 C297 1.377 . S
C296 C298 1.384 . S
C297 C296 1.377 . S
C297 C303 1.390 1_455 S
C298 H289 0.930 . S
C298 C296 1.384 . S
C298 C299 1.372 . S
C299 C298 1.372 . S
C299 C300 1.400 1_455 S
C299 C304 1.490 . S
C300 H290 0.930 . S
C300 C299 1.400 1_655 S
C300 C303 1.386 . S
H301 C317 0.930 . S
H302 C318 0.931 . S
C303 H291 0.929 . S
C303 C297 1.390 1_655 S
C303 C300 1.386 . S
C304 C299 1.490 . S
C304 C306 1.395 . S
C304 C307 1.403 1_455 S
H305 C311 0.930 . S
C306 H292 0.930 . S
C306 C304 1.395 . S
C306 C309 1.403 . S
C307 C304 1.403 1_655 S
C307 C308 1.524 . S
C307 C311 1.400 . S
C308 H293 0.960 . S
C308 H294 0.960 . S
C308 H295 0.960 . S
C308 C307 1.524 . S
C309 C306 1.403 . S
C309 C310 1.392 . S
C309 C313 1.495 . S
C310 C309 1.392 . S
C310 C311 1.385 1_455 S
C310 C312 1.478 . S
C311 H305 0.930 . S
C311 C307 1.400 . S
C311 C310 1.385 1_655 S
C312 C310 1.478 . S
C312 C314 1.381 . S
C312 C318 1.383 1_455 S
C313 C309 1.495 . S
C313 H319 0.959 . S
C313 H320 0.961 . S
C313 H321 0.960 . S
C314 C312 1.381 . S
C314 C315 1.394 . S
C314 H322 0.930 . S
C315 C314 1.394 . S
C315 C316 1.383 . S
C315 H323 0.929 . S
C316 C315 1.383 . S
C316 C317 1.377 1_455 S
C317 H301 0.930 . S
C317 C316 1.377 1_655 S
C317 C318 1.379 . S
C318 H302 0.931 . S
C318 C312 1.383 1_655 S
C318 C317 1.379 . S
H319 C313 0.959 . S
H320 C313 0.961 . S
H321 C313 0.960 . S
H322 C314 0.930 . S
H323 C315 0.929 . S
H324 C332 0.929 . S
H325 C334 0.930 . S
H326 C336 0.930 . S
H327 C339 0.929 . S
H328 C342 0.930 . S
H329 C344 0.960 . S
H330 C344 0.960 . S
H331 C344 0.960 . S
C332 H324 0.929 . S
C332 C333 1.376 1_545 S
C332 C334 1.384 . S
C333 C332 1.376 1_565 S
C333 C339 1.391 . S
C334 H325 0.930 . S
C334 C332 1.384 . S
C334 C335 1.372 . S
C335 C334 1.372 . S
C335 C336 1.400 1_545 S
C335 C340 1.490 . S
C336 H326 0.930 . S
C336 C335 1.400 1_565 S
C336 C339 1.386 . S
H337 C353 0.930 . S
H338 C354 0.931 . S
C339 H327 0.929 . S
C339 C333 1.391 . S
C339 C336 1.386 . S
C340 C335 1.490 . S
C340 C342 1.395 . S
C340 C343 1.403 1_545 S
H341 C347 0.930 . S
C342 H328 0.930 . S
C342 C340 1.395 . S
C342 C345 1.403 . S
C343 C340 1.403 1_565 S
C343 C344 1.524 . S
C343 C347 1.400 . S
C344 H329 0.960 . S
C344 H330 0.960 . S
C344 H331 0.960 . S
C344 C343 1.524 . S
C345 C342 1.403 . S
C345 C346 1.392 . S
C345 C349 1.495 . S
C346 C345 1.392 . S
C346 C347 1.385 1_545 S
C346 C348 1.478 . S
C347 H341 0.930 . S
C347 C343 1.400 . S
C347 C346 1.385 1_565 S
C348 C346 1.478 . S
C348 C350 1.381 . S
C348 C354 1.383 1_545 S
C349 C345 1.495 . S
C349 H355 0.959 . S
C349 H356 0.961 . S
C349 H357 0.960 . S
C350 C348 1.381 . S
C350 C351 1.394 . S
C350 H358 0.930 . S
C351 C350 1.394 . S
C351 C352 1.383 . S
C351 H359 0.929 . S
C352 C351 1.383 . S
C352 C353 1.377 1_545 S
C353 H337 0.930 . S
C353 C352 1.377 1_565 S
C353 C354 1.379 . S
C354 H338 0.931 . S
C354 C348 1.383 1_565 S
C354 C353 1.379 . S
H355 C349 0.959 . S
H356 C349 0.961 . S
H357 C349 0.960 . S
H358 C350 0.930 . S
H359 C351 0.929 . S
C81 C22 1.592 . S
C100 C41 1.532 . S
C117 C8 1.604 1_565 S
C136 C61 1.534 . S
C153 C31 1.562 1_655 S
C172 C50 1.590 . S
C189 C17 1.569 1_545 S
C208 C70 1.557 . S
C225 C30 1.604 1_655 S
C244 C47 1.536 . S
C261 C27 1.601 . S
C280 C67 1.587 . S
C316 C44 1.554 . S
C297 C23 1.570 1_455 S
C333 C24 1.567 1_565 S
C352 C64 1.568 . S
