# Generated by pormake.
# Topology tbo, (3,4)-cn, num edge types: 1
# Building blocks:
#     Node 0, Type 0, BuildingBlock: WUSLED_clean_sbu_0, # of connection points: 3
#     Node 1, Type 0, BuildingBlock: WUSLED_clean_sbu_0, # of connection points: 3
#     Node 2, Type 0, BuildingBlock: WUSLED_clean_sbu_0, # of connection points: 3
#     Node 3, Type 0, BuildingBlock: WUSLED_clean_sbu_0, # of connection points: 3
#     Node 4, Type 0, BuildingBlock: WUSLED_clean_sbu_0, # of connection points: 3
#     Node 5, Type 0, BuildingBlock: WUSLED_clean_sbu_0, # of connection points: 3
#     Node 6, Type 0, BuildingBlock: WUSLED_clean_sbu_0, # of connection points: 3
#     Node 7, Type 0, BuildingBlock: WUSLED_clean_sbu_0, # of connection points: 3
#     Node 8, Type 0, BuildingBlock: WUSLED_clean_sbu_0, # of connection points: 3
#     Node 9, Type 0, BuildingBlock: WUSLED_clean_sbu_0, # of connection points: 3
#     Node 10, Type 0, BuildingBlock: WUSLED_clean_sbu_0, # of connection points: 3
#     Node 11, Type 0, BuildingBlock: WUSLED_clean_sbu_0, # of connection points: 3
#     Node 12, Type 0, BuildingBlock: WUSLED_clean_sbu_0, # of connection points: 3
#     Node 13, Type 0, BuildingBlock: WUSLED_clean_sbu_0, # of connection points: 3
#     Node 14, Type 0, BuildingBlock: WUSLED_clean_sbu_0, # of connection points: 3
#     Node 15, Type 0, BuildingBlock: WUSLED_clean_sbu_0, # of connection points: 3
#     Node 16, Type 0, BuildingBlock: WUSLED_clean_sbu_0, # of connection points: 3
#     Node 17, Type 0, BuildingBlock: WUSLED_clean_sbu_0, # of connection points: 3
#     Node 18, Type 0, BuildingBlock: WUSLED_clean_sbu_0, # of connection points: 3
#     Node 19, Type 0, BuildingBlock: WUSLED_clean_sbu_0, # of connection points: 3
#     Node 20, Type 0, BuildingBlock: WUSLED_clean_sbu_0, # of connection points: 3
#     Node 21, Type 0, BuildingBlock: WUSLED_clean_sbu_0, # of connection points: 3
#     Node 22, Type 0, BuildingBlock: WUSLED_clean_sbu_0, # of connection points: 3
#     Node 23, Type 0, BuildingBlock: WUSLED_clean_sbu_0, # of connection points: 3
#     Node 24, Type 0, BuildingBlock: WUSLED_clean_sbu_0, # of connection points: 3
#     Node 25, Type 0, BuildingBlock: WUSLED_clean_sbu_0, # of connection points: 3
#     Node 26, Type 0, BuildingBlock: WUSLED_clean_sbu_0, # of connection points: 3
#     Node 27, Type 0, BuildingBlock: WUSLED_clean_sbu_0, # of connection points: 3
#     Node 28, Type 0, BuildingBlock: WUSLED_clean_sbu_0, # of connection points: 3
#     Node 29, Type 0, BuildingBlock: WUSLED_clean_sbu_0, # of connection points: 3
#     Node 30, Type 0, BuildingBlock: WUSLED_clean_sbu_0, # of connection points: 3
#     Node 31, Type 0, BuildingBlock: WUSLED_clean_sbu_0, # of connection points: 3
#     Node 32, Type 1, BuildingBlock: NAHDIM_clean_linker_0, # of connection points: 4
#     Node 33, Type 1, BuildingBlock: NAHDIM_clean_linker_0, # of connection points: 4
#     Node 34, Type 1, BuildingBlock: NAHDIM_clean_linker_0, # of connection points: 4
#     Node 35, Type 1, BuildingBlock: NAHDIM_clean_linker_0, # of connection points: 4
#     Node 36, Type 1, BuildingBlock: NAHDIM_clean_linker_0, # of connection points: 4
#     Node 37, Type 1, BuildingBlock: NAHDIM_clean_linker_0, # of connection points: 4
#     Node 38, Type 1, BuildingBlock: NAHDIM_clean_linker_0, # of connection points: 4
#     Node 39, Type 1, BuildingBlock: NAHDIM_clean_linker_0, # of connection points: 4
#     Node 40, Type 1, BuildingBlock: NAHDIM_clean_linker_0, # of connection points: 4
#     Node 41, Type 1, BuildingBlock: NAHDIM_clean_linker_0, # of connection points: 4
#     Node 42, Type 1, BuildingBlock: NAHDIM_clean_linker_0, # of connection points: 4
#     Node 43, Type 1, BuildingBlock: NAHDIM_clean_linker_0, # of connection points: 4
#     Node 44, Type 1, BuildingBlock: NAHDIM_clean_linker_0, # of connection points: 4
#     Node 45, Type 1, BuildingBlock: NAHDIM_clean_linker_0, # of connection points: 4
#     Node 46, Type 1, BuildingBlock: NAHDIM_clean_linker_0, # of connection points: 4
#     Node 47, Type 1, BuildingBlock: NAHDIM_clean_linker_0, # of connection points: 4
#     Node 48, Type 1, BuildingBlock: NAHDIM_clean_linker_0, # of connection points: 4
#     Node 49, Type 1, BuildingBlock: NAHDIM_clean_linker_0, # of connection points: 4
#     Node 50, Type 1, BuildingBlock: NAHDIM_clean_linker_0, # of connection points: 4
#     Node 51, Type 1, BuildingBlock: NAHDIM_clean_linker_0, # of connection points: 4
#     Node 52, Type 1, BuildingBlock: NAHDIM_clean_linker_0, # of connection points: 4
#     Node 53, Type 1, BuildingBlock: NAHDIM_clean_linker_0, # of connection points: 4
#     Node 54, Type 1, BuildingBlock: NAHDIM_clean_linker_0, # of connection points: 4
#     Node 55, Type 1, BuildingBlock: NAHDIM_clean_linker_0, # of connection points: 4
#     Edge 56, Type (0, 1), BuildingBlock: MIFKUJ_clean_linker_0, # of connection points: 2
#     Edge 57, Type (0, 1), BuildingBlock: MIFKUJ_clean_linker_0, # of connection points: 2
#     Edge 58, Type (0, 1), BuildingBlock: MIFKUJ_clean_linker_0, # of connection points: 2
#     Edge 59, Type (0, 1), BuildingBlock: MIFKUJ_clean_linker_0, # of connection points: 2
#     Edge 60, Type (0, 1), BuildingBlock: MIFKUJ_clean_linker_0, # of connection points: 2
#     Edge 61, Type (0, 1), BuildingBlock: MIFKUJ_clean_linker_0, # of connection points: 2
#     Edge 62, Type (0, 1), BuildingBlock: MIFKUJ_clean_linker_0, # of connection points: 2
#     Edge 63, Type (0, 1), BuildingBlock: MIFKUJ_clean_linker_0, # of connection points: 2
#     Edge 64, Type (0, 1), BuildingBlock: MIFKUJ_clean_linker_0, # of connection points: 2
#     Edge 65, Type (0, 1), BuildingBlock: MIFKUJ_clean_linker_0, # of connection points: 2
#     Edge 66, Type (0, 1), BuildingBlock: MIFKUJ_clean_linker_0, # of connection points: 2
#     Edge 67, Type (0, 1), BuildingBlock: MIFKUJ_clean_linker_0, # of connection points: 2
#     Edge 68, Type (0, 1), BuildingBlock: MIFKUJ_clean_linker_0, # of connection points: 2
#     Edge 69, Type (0, 1), BuildingBlock: MIFKUJ_clean_linker_0, # of connection points: 2
#     Edge 70, Type (0, 1), BuildingBlock: MIFKUJ_clean_linker_0, # of connection points: 2
#     Edge 71, Type (0, 1), BuildingBlock: MIFKUJ_clean_linker_0, # of connection points: 2
#     Edge 72, Type (0, 1), BuildingBlock: MIFKUJ_clean_linker_0, # of connection points: 2
#     Edge 73, Type (0, 1), BuildingBlock: MIFKUJ_clean_linker_0, # of connection points: 2
#     Edge 74, Type (0, 1), BuildingBlock: MIFKUJ_clean_linker_0, # of connection points: 2
#     Edge 75, Type (0, 1), BuildingBlock: MIFKUJ_clean_linker_0, # of connection points: 2
#     Edge 76, Type (0, 1), BuildingBlock: MIFKUJ_clean_linker_0, # of connection points: 2
#     Edge 77, Type (0, 1), BuildingBlock: MIFKUJ_clean_linker_0, # of connection points: 2
#     Edge 78, Type (0, 1), BuildingBlock: MIFKUJ_clean_linker_0, # of connection points: 2
#     Edge 79, Type (0, 1), BuildingBlock: MIFKUJ_clean_linker_0, # of connection points: 2
#     Edge 80, Type (0, 1), BuildingBlock: MIFKUJ_clean_linker_0, # of connection points: 2
#     Edge 81, Type (0, 1), BuildingBlock: MIFKUJ_clean_linker_0, # of connection points: 2
#     Edge 82, Type (0, 1), BuildingBlock: MIFKUJ_clean_linker_0, # of connection points: 2
#     Edge 83, Type (0, 1), BuildingBlock: MIFKUJ_clean_linker_0, # of connection points: 2
#     Edge 84, Type (0, 1), BuildingBlock: MIFKUJ_clean_linker_0, # of connection points: 2
#     Edge 85, Type (0, 1), BuildingBlock: MIFKUJ_clean_linker_0, # of connection points: 2
#     Edge 86, Type (0, 1), BuildingBlock: MIFKUJ_clean_linker_0, # of connection points: 2
#     Edge 87, Type (0, 1), BuildingBlock: MIFKUJ_clean_linker_0, # of connection points: 2
#     Edge 88, Type (0, 1), BuildingBlock: MIFKUJ_clean_linker_0, # of connection points: 2
#     Edge 89, Type (0, 1), BuildingBlock: MIFKUJ_clean_linker_0, # of connection points: 2
#     Edge 90, Type (0, 1), BuildingBlock: MIFKUJ_clean_linker_0, # of connection points: 2
#     Edge 91, Type (0, 1), BuildingBlock: MIFKUJ_clean_linker_0, # of connection points: 2
#     Edge 92, Type (0, 1), BuildingBlock: MIFKUJ_clean_linker_0, # of connection points: 2
#     Edge 93, Type (0, 1), BuildingBlock: MIFKUJ_clean_linker_0, # of connection points: 2
#     Edge 94, Type (0, 1), BuildingBlock: MIFKUJ_clean_linker_0, # of connection points: 2
#     Edge 95, Type (0, 1), BuildingBlock: MIFKUJ_clean_linker_0, # of connection points: 2
#     Edge 96, Type (0, 1), BuildingBlock: MIFKUJ_clean_linker_0, # of connection points: 2
#     Edge 97, Type (0, 1), BuildingBlock: MIFKUJ_clean_linker_0, # of connection points: 2
#     Edge 98, Type (0, 1), BuildingBlock: MIFKUJ_clean_linker_0, # of connection points: 2
#     Edge 99, Type (0, 1), BuildingBlock: MIFKUJ_clean_linker_0, # of connection points: 2
#     Edge 100, Type (0, 1), BuildingBlock: MIFKUJ_clean_linker_0, # of connection points: 2
#     Edge 101, Type (0, 1), BuildingBlock: MIFKUJ_clean_linker_0, # of connection points: 2
#     Edge 102, Type (0, 1), BuildingBlock: MIFKUJ_clean_linker_0, # of connection points: 2
#     Edge 103, Type (0, 1), BuildingBlock: MIFKUJ_clean_linker_0, # of connection points: 2
#     Edge 104, Type (0, 1), BuildingBlock: MIFKUJ_clean_linker_0, # of connection points: 2
#     Edge 105, Type (0, 1), BuildingBlock: MIFKUJ_clean_linker_0, # of connection points: 2
#     Edge 106, Type (0, 1), BuildingBlock: MIFKUJ_clean_linker_0, # of connection points: 2
#     Edge 107, Type (0, 1), BuildingBlock: MIFKUJ_clean_linker_0, # of connection points: 2
#     Edge 108, Type (0, 1), BuildingBlock: MIFKUJ_clean_linker_0, # of connection points: 2
#     Edge 109, Type (0, 1), BuildingBlock: MIFKUJ_clean_linker_0, # of connection points: 2
#     Edge 110, Type (0, 1), BuildingBlock: MIFKUJ_clean_linker_0, # of connection points: 2
#     Edge 111, Type (0, 1), BuildingBlock: MIFKUJ_clean_linker_0, # of connection points: 2
#     Edge 112, Type (0, 1), BuildingBlock: MIFKUJ_clean_linker_0, # of connection points: 2
#     Edge 113, Type (0, 1), BuildingBlock: MIFKUJ_clean_linker_0, # of connection points: 2
#     Edge 114, Type (0, 1), BuildingBlock: MIFKUJ_clean_linker_0, # of connection points: 2
#     Edge 115, Type (0, 1), BuildingBlock: MIFKUJ_clean_linker_0, # of connection points: 2
#     Edge 116, Type (0, 1), BuildingBlock: MIFKUJ_clean_linker_0, # of connection points: 2
#     Edge 117, Type (0, 1), BuildingBlock: MIFKUJ_clean_linker_0, # of connection points: 2
#     Edge 118, Type (0, 1), BuildingBlock: MIFKUJ_clean_linker_0, # of connection points: 2
#     Edge 119, Type (0, 1), BuildingBlock: MIFKUJ_clean_linker_0, # of connection points: 2
#     Edge 120, Type (0, 1), BuildingBlock: MIFKUJ_clean_linker_0, # of connection points: 2
#     Edge 121, Type (0, 1), BuildingBlock: MIFKUJ_clean_linker_0, # of connection points: 2
#     Edge 122, Type (0, 1), BuildingBlock: MIFKUJ_clean_linker_0, # of connection points: 2
#     Edge 123, Type (0, 1), BuildingBlock: MIFKUJ_clean_linker_0, # of connection points: 2
#     Edge 124, Type (0, 1), BuildingBlock: MIFKUJ_clean_linker_0, # of connection points: 2
#     Edge 125, Type (0, 1), BuildingBlock: MIFKUJ_clean_linker_0, # of connection points: 2
#     Edge 126, Type (0, 1), BuildingBlock: MIFKUJ_clean_linker_0, # of connection points: 2
#     Edge 127, Type (0, 1), BuildingBlock: MIFKUJ_clean_linker_0, # of connection points: 2
#     Edge 128, Type (0, 1), BuildingBlock: MIFKUJ_clean_linker_0, # of connection points: 2
#     Edge 129, Type (0, 1), BuildingBlock: MIFKUJ_clean_linker_0, # of connection points: 2
#     Edge 130, Type (0, 1), BuildingBlock: MIFKUJ_clean_linker_0, # of connection points: 2
#     Edge 131, Type (0, 1), BuildingBlock: MIFKUJ_clean_linker_0, # of connection points: 2
#     Edge 132, Type (0, 1), BuildingBlock: MIFKUJ_clean_linker_0, # of connection points: 2
#     Edge 133, Type (0, 1), BuildingBlock: MIFKUJ_clean_linker_0, # of connection points: 2
#     Edge 134, Type (0, 1), BuildingBlock: MIFKUJ_clean_linker_0, # of connection points: 2
#     Edge 135, Type (0, 1), BuildingBlock: MIFKUJ_clean_linker_0, # of connection points: 2
#     Edge 136, Type (0, 1), BuildingBlock: MIFKUJ_clean_linker_0, # of connection points: 2
#     Edge 137, Type (0, 1), BuildingBlock: MIFKUJ_clean_linker_0, # of connection points: 2
#     Edge 138, Type (0, 1), BuildingBlock: MIFKUJ_clean_linker_0, # of connection points: 2
#     Edge 139, Type (0, 1), BuildingBlock: MIFKUJ_clean_linker_0, # of connection points: 2
#     Edge 140, Type (0, 1), BuildingBlock: MIFKUJ_clean_linker_0, # of connection points: 2
#     Edge 141, Type (0, 1), BuildingBlock: MIFKUJ_clean_linker_0, # of connection points: 2
#     Edge 142, Type (0, 1), BuildingBlock: MIFKUJ_clean_linker_0, # of connection points: 2
#     Edge 143, Type (0, 1), BuildingBlock: MIFKUJ_clean_linker_0, # of connection points: 2
#     Edge 144, Type (0, 1), BuildingBlock: MIFKUJ_clean_linker_0, # of connection points: 2
#     Edge 145, Type (0, 1), BuildingBlock: MIFKUJ_clean_linker_0, # of connection points: 2
#     Edge 146, Type (0, 1), BuildingBlock: MIFKUJ_clean_linker_0, # of connection points: 2
#     Edge 147, Type (0, 1), BuildingBlock: MIFKUJ_clean_linker_0, # of connection points: 2
#     Edge 148, Type (0, 1), BuildingBlock: MIFKUJ_clean_linker_0, # of connection points: 2
#     Edge 149, Type (0, 1), BuildingBlock: MIFKUJ_clean_linker_0, # of connection points: 2
#     Edge 150, Type (0, 1), BuildingBlock: MIFKUJ_clean_linker_0, # of connection points: 2
#     Edge 151, Type (0, 1), BuildingBlock: MIFKUJ_clean_linker_0, # of connection points: 2
# Relax obj value: 0.002
# Max RMSD: 0.047
# Mean RMSD: 0.022
data_MOF--net-tbo--node1-WUSLED_clean_sbu_0--node2-NAHDIM_clean_linker_0--edge1-MIFKUJ_clean_linker_0
_symmetry_space_group_name_H-M    P1
_symmetry_Int_Tables_number       1
_symmetry_cell_setting            triclinic
loop_
_symmetry_equiv_pos_as_xyz
'x, y, z'
_cell_length_a     144.71135
_cell_length_b     145.1294
_cell_length_c     144.88292
_cell_angle_alpha  89.612167
_cell_angle_beta   90.089327
_cell_angle_gamma 91.10833
loop_
_atom_site_label
_atom_site_type_symbol
_atom_site_fract_x
_atom_site_fract_y
_atom_site_fract_z
_atom_type_partial_charge
C0 C 0.15757 0.13417 0.17287 0.0
C1 C 0.16521 0.13085 0.16805 0.0
C2 C 0.16742 0.11904 0.17987 0.0
C3 C 0.17009 0.12334 0.17152 0.0
C4 C 0.15969 0.12237 0.1846 0.0
C5 C 0.15482 0.12987 0.18112 0.0
U6 U 0.15494 0.15433 0.1561 0.0
O7 O 0.14249 0.16014 0.14978 0.0
O8 O 0.15125 0.16869 0.15883 0.0
C9 C 0.14348 0.16801 0.15416 0.0
C10 C 0.15259 0.14227 0.16952 0.0
C11 C 0.13526 0.17131 0.15899 0.0
C12 C 0.12215 0.16878 0.16922 0.0
C13 C 0.1298 0.16539 0.16451 0.0
C14 C 0.12541 0.18403 0.16299 0.0
C15 C 0.11988 0.17816 0.16855 0.0
C16 C 0.13301 0.18063 0.15825 0.0
C17 C 0.17263 0.15857 0.13697 0.0
C18 C 0.1703 0.16868 0.12373 0.0
C19 C 0.1858 0.16454 0.12828 0.0
C20 C 0.18219 0.15918 0.13552 0.0
C21 C 0.1799 0.16935 0.12231 0.0
C22 C 0.16669 0.16338 0.13104 0.0
C23 C 0.16903 0.1531 0.14482 0.0
O24 O 0.15699 0.15019 0.17057 0.0
O25 O 0.14864 0.14142 0.16138 0.0
O26 O 0.16109 0.14873 0.1435 0.0
O27 O 0.16959 0.15718 0.15288 0.0
H28 H 0.16743 0.13411 0.16166 0.0
H29 H 0.17593 0.12088 0.16764 0.0
H30 H 0.15752 0.11933 0.19111 0.0
H31 H 0.14897 0.13238 0.18494 0.0
H32 H 0.118 0.16404 0.17336 0.0
H33 H 0.13147 0.15818 0.1652 0.0
H34 H 0.124 0.19131 0.16243 0.0
H35 H 0.1372 0.18531 0.15408 0.0
H36 H 0.16559 0.17238 0.11931 0.0
H37 H 0.19322 0.16484 0.1273 0.0
H38 H 0.18688 0.15554 0.14003 0.0
H39 H 0.15928 0.16309 0.13209 0.0
C40 C 0.83064 0.1646 0.13748 0.0
C41 C 0.83484 0.17307 0.13507 0.0
C42 C 0.82376 0.175 0.12256 0.0
C43 C 0.83143 0.17823 0.12767 0.0
C44 C 0.81966 0.16644 0.12496 0.0
C45 C 0.82308 0.16129 0.13237 0.0
U46 U 0.84791 0.16099 0.15692 0.0
O47 O 0.84571 0.15675 0.17134 0.0
O48 O 0.85407 0.14824 0.16222 0.0
C49 C 0.85004 0.14895 0.17031 0.0
C50 C 0.834 0.15924 0.14539 0.0
C51 C 0.845 0.14067 0.17357 0.0
C52 C 0.83104 0.13112 0.17427 0.0
C53 C 0.83586 0.13883 0.17078 0.0
C54 C 0.84452 0.12691 0.18317 0.0
C55 C 0.83529 0.12511 0.18058 0.0
C56 C 0.84932 0.13463 0.1797 0.0
C57 C 0.86777 0.17819 0.16035 0.0
C58 C 0.87826 0.17697 0.17338 0.0
C59 C 0.88028 0.1894 0.16227 0.0
C60 C 0.87266 0.18605 0.15729 0.0
C61 C 0.88314 0.18493 0.17041 0.0
C62 C 0.87064 0.17363 0.16839 0.0
C63 C 0.8596 0.17495 0.15521 0.0
O64 O 0.84196 0.15521 0.14417 0.0
O65 O 0.83336 0.16331 0.15343 0.0
O66 O 0.85174 0.17544 0.1597 0.0
O67 O 0.86053 0.16713 0.15081 0.0
H68 H 0.8407 0.17572 0.13898 0.0
H69 H 0.83468 0.18483 0.12608 0.0
H70 H 0.81384 0.16369 0.12109 0.0
H71 H 0.81979 0.15475 0.13412 0.0
H72 H 0.82391 0.13 0.1722 0.0
H73 H 0.83243 0.14343 0.16602 0.0
H74 H 0.84806 0.12234 0.18788 0.0
H75 H 0.8564 0.13592 0.18188 0.0
H76 H 0.88021 0.17343 0.17967 0.0
H77 H 0.88396 0.19546 0.15971 0.0
H78 H 0.87054 0.18964 0.15107 0.0
H79 H 0.86691 0.16755 0.17085 0.0
C80 C 0.83442 0.84429 0.14295 0.0
C81 C 0.83854 0.83594 0.14067 0.0
C82 C 0.8281 0.83417 0.12754 0.0
C83 C 0.83539 0.8309 0.13303 0.0
C84 C 0.82402 0.84256 0.12989 0.0
C85 C 0.82716 0.84757 0.13752 0.0
U86 U 0.85119 0.8486 0.16293 0.0
O87 O 0.8571 0.86164 0.16817 0.0
O88 O 0.84846 0.85287 0.17718 0.0
C89 C 0.85283 0.86083 0.17614 0.0
C90 C 0.83759 0.84966 0.15097 0.0
C91 C 0.84768 0.86894 0.17909 0.0
C92 C 0.83443 0.87892 0.17784 0.0
C93 C 0.83937 0.87132 0.17477 0.0
C94 C 0.84614 0.88188 0.18947 0.0
C95 C 0.83774 0.88428 0.18526 0.0
C96 C 0.85105 0.87429 0.18641 0.0
C97 C 0.87122 0.83207 0.16677 0.0
C98 C 0.88331 0.83452 0.17821 0.0
C99 C 0.88236 0.82013 0.16984 0.0
C100 C 0.87466 0.8233 0.16503 0.0
C101 C 0.8868 0.8257 0.17649 0.0
C102 C 0.87557 0.83767 0.1734 0.0
C103 C 0.86303 0.83517 0.16168 0.0
O104 O 0.83679 0.84547 0.159 0.0
O105 O 0.84554 0.85408 0.14994 0.0
O106 O 0.86399 0.84304 0.15721 0.0
O107 O 0.85515 0.83436 0.16612 0.0
H108 H 0.84419 0.83333 0.14478 0.0
H109 H 0.83875 0.82452 0.13135 0.0
H110 H 0.81832 0.84521 0.1259 0.0
H111 H 0.82389 0.85399 0.13921 0.0
H112 H 0.82805 0.88063 0.17436 0.0
H113 H 0.83668 0.86727 0.16908 0.0
H114 H 0.84883 0.88577 0.19528 0.0
H115 H 0.85745 0.87253 0.18984 0.0
H116 H 0.8866 0.83902 0.18321 0.0
H117 H 0.88474 0.81325 0.16845 0.0
H118 H 0.87134 0.81886 0.15998 0.0
H119 H 0.87299 0.84447 0.17484 0.0
C120 C 0.13863 0.83117 0.15886 0.0
C121 C 0.13563 0.83582 0.16673 0.0
C122 C 0.1236 0.8241 0.16925 0.0
C123 C 0.12816 0.83232 0.17187 0.0
C124 C 0.12658 0.81954 0.16127 0.0
C125 C 0.13404 0.82305 0.15613 0.0
U126 U 0.15867 0.8482 0.15575 0.0
O127 O 0.17316 0.84585 0.15201 0.0
O128 O 0.16457 0.85459 0.14321 0.0
C129 C 0.17253 0.85048 0.14422 0.0
C130 C 0.14673 0.83453 0.15365 0.0
C131 C 0.17599 0.84574 0.13603 0.0
C132 C 0.17437 0.83404 0.1242 0.0
C133 C 0.17083 0.83864 0.13184 0.0
C134 C 0.18824 0.84365 0.12487 0.0
C135 C 0.18315 0.83647 0.12064 0.0
C136 C 0.18468 0.84824 0.13249 0.0
C137 C 0.16241 0.86752 0.17304 0.0
C138 C 0.17692 0.87613 0.17432 0.0
C139 C 0.16327 0.88151 0.18214 0.0
C140 C 0.15817 0.87401 0.17868 0.0
C141 C 0.17272 0.88261 0.18007 0.0
C142 C 0.1718 0.86868 0.1708 0.0
C143 C 0.15702 0.85955 0.16964 0.0
O144 O 0.14586 0.84259 0.14958 0.0
O145 O 0.15468 0.83367 0.15795 0.0
O146 O 0.16113 0.85157 0.17031 0.0
O147 O 0.15284 0.86077 0.16167 0.0
H148 H 0.13915 0.84208 0.16895 0.0
H149 H 0.12612 0.83594 0.17803 0.0
H150 H 0.12314 0.81326 0.15899 0.0
H151 H 0.13627 0.81938 0.15006 0.0
H152 H 0.17022 0.82862 0.12105 0.0
H153 H 0.16409 0.83662 0.13452 0.0
H154 H 0.19507 0.8456 0.12242 0.0
H155 H 0.18877 0.85368 0.13568 0.0
H156 H 0.18416 0.87687 0.17251 0.0
H157 H 0.15986 0.88634 0.18661 0.0
H158 H 0.15093 0.87323 0.18046 0.0
H159 H 0.17518 0.86378 0.16639 0.0
C160 C 0.14042 0.83224 0.84249 0.0
C161 C 0.13646 0.83799 0.83581 0.0
C162 C 0.12541 0.8258 0.83173 0.0
C163 C 0.12899 0.83481 0.83049 0.0
C164 C 0.12936 0.82011 0.83852 0.0
C165 C 0.1368 0.82331 0.84385 0.0
U166 U 0.1606 0.84897 0.8463 0.0
O167 O 0.16649 0.85463 0.85912 0.0
O168 O 0.17503 0.84624 0.85005 0.0
C169 C 0.17438 0.85042 0.85804 0.0
C170 C 0.14855 0.8353 0.8478 0.0
C171 C 0.17755 0.8451 0.86605 0.0
C172 C 0.17575 0.8322 0.87671 0.0
C173 C 0.17257 0.83729 0.86915 0.0
C174 C 0.18889 0.84272 0.87814 0.0
C175 C 0.18397 0.83484 0.88127 0.0
C176 C 0.18569 0.8478 0.87059 0.0
C177 C 0.16463 0.86925 0.82991 0.0
C178 C 0.17943 0.8771 0.82747 0.0
C179 C 0.16522 0.88478 0.82353 0.0
C180 C 0.16012 0.87701 0.82645 0.0
C181 C 0.17493 0.88488 0.82396 0.0
C182 C 0.17433 0.86938 0.83048 0.0
C183 C 0.15915 0.86112 0.83292 0.0
O184 O 0.15647 0.8346 0.84348 0.0
O185 O 0.14774 0.84315 0.85219 0.0
O186 O 0.15491 0.86191 0.84089 0.0
O187 O 0.16312 0.85311 0.83191 0.0
H188 H 0.13923 0.84489 0.83462 0.0
H189 H 0.12618 0.83932 0.82525 0.0
H190 H 0.1267 0.81318 0.8397 0.0
H191 H 0.13979 0.81878 0.84897 0.0
H192 H 0.17186 0.82612 0.87887 0.0
H193 H 0.16627 0.8351 0.86568 0.0
H194 H 0.19517 0.84501 0.88158 0.0
H195 H 0.1896 0.85383 0.86829 0.0
H196 H 0.18689 0.87703 0.82799 0.0
H197 H 0.16158 0.89066 0.82081 0.0
H198 H 0.15265 0.87705 0.82599 0.0
H199 H 0.17796 0.86351 0.83323 0.0
C200 C 0.13618 0.16213 0.83247 0.0
C201 C 0.13238 0.16893 0.83808 0.0
C202 C 0.12077 0.17214 0.8263 0.0
C203 C 0.12473 0.17388 0.83502 0.0
C204 C 0.12463 0.16528 0.82075 0.0
C205 C 0.13225 0.16033 0.82382 0.0
U206 U 0.15648 0.15834 0.8489 0.0
O207 O 0.16226 0.14546 0.85428 0.0
O208 O 0.17086 0.1548 0.8458 0.0
C209 C 0.17017 0.14674 0.84995 0.0
C210 C 0.14436 0.15702 0.83544 0.0
C211 C 0.17341 0.13887 0.84459 0.0
C212 C 0.17173 0.12814 0.83186 0.0
C213 C 0.16842 0.13555 0.83695 0.0
C214 C 0.18501 0.1273 0.84201 0.0
C215 C 0.18009 0.12395 0.8343 0.0
C216 C 0.18169 0.13469 0.84709 0.0
C217 C 0.16038 0.17453 0.86935 0.0
C218 C 0.17481 0.176 0.87789 0.0
C219 C 0.16095 0.18298 0.88377 0.0
C220 C 0.15598 0.17965 0.87617 0.0
C221 C 0.17046 0.18129 0.88469 0.0
C222 C 0.16981 0.17264 0.8703 0.0
C223 C 0.15509 0.17143 0.86122 0.0
O224 O 0.15228 0.16153 0.83465 0.0
O225 O 0.14354 0.15245 0.84327 0.0
O226 O 0.15086 0.16336 0.86203 0.0
O227 O 0.15922 0.17262 0.85322 0.0
H228 H 0.13535 0.17043 0.84478 0.0
H229 H 0.12189 0.17904 0.83952 0.0
H230 H 0.12188 0.16385 0.81394 0.0
H231 H 0.13514 0.15514 0.81938 0.0
H232 H 0.16782 0.12581 0.82591 0.0
H233 H 0.16202 0.13874 0.83491 0.0
H234 H 0.1914 0.12416 0.84416 0.0
H235 H 0.18562 0.13715 0.85299 0.0
H236 H 0.18213 0.17464 0.8783 0.0
H237 H 0.15733 0.18686 0.88894 0.0
H238 H 0.14869 0.18113 0.87558 0.0
H239 H 0.17334 0.16867 0.86512 0.0
C240 C 0.83178 0.13718 0.84722 0.0
C241 C 0.83447 0.13571 0.83805 0.0
C242 C 0.82531 0.12144 0.83769 0.0
C243 C 0.83123 0.12791 0.83331 0.0
C244 C 0.82278 0.1229 0.84693 0.0
C245 C 0.82599 0.1307 0.85164 0.0
U246 U 0.84812 0.15793 0.85078 0.0
O247 O 0.84498 0.17223 0.85431 0.0
O248 O 0.85339 0.16395 0.86374 0.0
C249 C 0.84894 0.17167 0.86246 0.0
C250 C 0.83478 0.1455 0.85223 0.0
C251 C 0.84335 0.17474 0.87031 0.0
C252 C 0.82853 0.17627 0.87797 0.0
C253 C 0.83378 0.17296 0.87065 0.0
C254 C 0.84238 0.18291 0.88485 0.0
C255 C 0.83276 0.18134 0.88511 0.0
C256 C 0.84761 0.17965 0.87749 0.0
C257 C 0.8685 0.16244 0.83462 0.0
C258 C 0.87668 0.1772 0.83364 0.0
C259 C 0.88289 0.16382 0.82608 0.0
C260 C 0.87541 0.15847 0.82928 0.0
C261 C 0.88357 0.17327 0.82815 0.0
C262 C 0.86923 0.17182 0.83688 0.0
C263 C 0.8605 0.15679 0.83764 0.0
O264 O 0.84265 0.14492 0.85671 0.0
O265 O 0.8339 0.15333 0.84774 0.0
O266 O 0.85239 0.16056 0.83645 0.0
O267 O 0.86135 0.15269 0.84571 0.0
H268 H 0.83899 0.14062 0.83454 0.0
H269 H 0.83337 0.12694 0.82623 0.0
H270 H 0.81815 0.11811 0.85047 0.0
H271 H 0.82384 0.13174 0.85871 0.0
H272 H 0.82115 0.17486 0.87805 0.0
H273 H 0.83036 0.16908 0.86522 0.0
H274 H 0.84582 0.18685 0.89021 0.0
H275 H 0.85499 0.18108 0.87735 0.0
H276 H 0.87708 0.18442 0.83545 0.0
H277 H 0.88804 0.16062 0.82181 0.0
H278 H 0.87495 0.15124 0.82748 0.0
H279 H 0.864 0.17499 0.84108 0.0
C280 C 0.84502 0.86605 0.83178 0.0
C281 C 0.83594 0.86715 0.83492 0.0
C282 C 0.83479 0.88146 0.82613 0.0
C283 C 0.83085 0.87478 0.8321 0.0
C284 C 0.84394 0.88037 0.82311 0.0
C285 C 0.84899 0.87272 0.82591 0.0
U286 U 0.84902 0.84528 0.84744 0.0
O287 O 0.8534 0.83128 0.84405 0.0
O288 O 0.86196 0.83992 0.85319 0.0
C289 C 0.86127 0.83219 0.84852 0.0
C290 C 0.8504 0.85798 0.83451 0.0
C291 C 0.86955 0.82965 0.84333 0.0
C292 C 0.87981 0.83155 0.83016 0.0
C293 C 0.87199 0.8342 0.83509 0.0
C294 C 0.88285 0.81985 0.84172 0.0
C295 C 0.88534 0.82433 0.83341 0.0
C296 C 0.87503 0.82249 0.84662 0.0
C297 C 0.83203 0.84029 0.86721 0.0
C298 C 0.83346 0.82731 0.87777 0.0
C299 C 0.82094 0.83799 0.87961 0.0
C300 C 0.82416 0.84305 0.87198 0.0
C301 C 0.82555 0.83005 0.8826 0.0
C302 C 0.83667 0.83239 0.87013 0.0
C303 C 0.83529 0.84577 0.85925 0.0
O304 O 0.85466 0.85862 0.8425 0.0
O305 O 0.84628 0.84993 0.83325 0.0
O306 O 0.83467 0.84169 0.8512 0.0
O307 O 0.84315 0.85029 0.86043 0.0
H308 H 0.83278 0.86209 0.83952 0.0
H309 H 0.82386 0.87547 0.83462 0.0
H310 H 0.84713 0.88532 0.81843 0.0
H311 H 0.856 0.87198 0.82342 0.0
H312 H 0.88158 0.83521 0.82384 0.0
H313 H 0.86784 0.83977 0.83246 0.0
H314 H 0.88685 0.81418 0.84436 0.0
H315 H 0.87323 0.81889 0.85296 0.0
H316 H 0.83712 0.82119 0.87983 0.0
H317 H 0.81493 0.8404 0.88325 0.0
H318 H 0.82052 0.84916 0.86984 0.0
H319 H 0.84277 0.83016 0.86649 0.0
C320 C 0.16304 0.63426 0.67878 0.0
C321 C 0.16992 0.63051 0.6732 0.0
C322 C 0.17306 0.6189 0.68499 0.0
C323 C 0.17489 0.62289 0.67628 0.0
C324 C 0.16613 0.62272 0.69052 0.0
C325 C 0.16118 0.63031 0.68743 0.0
U326 U 0.15909 0.65438 0.66219 0.0
O327 O 0.14619 0.66037 0.65708 0.0
O328 O 0.15591 0.66882 0.66523 0.0
C329 C 0.14769 0.66821 0.66138 0.0
C330 C 0.15793 0.64243 0.67584 0.0
C331 C 0.13998 0.67183 0.66688 0.0
C332 C 0.12516 0.66993 0.67468 0.0
C333 C 0.13248 0.66619 0.66973 0.0
C334 C 0.13279 0.68492 0.67416 0.0
C335 C 0.12523 0.67935 0.67695 0.0
C336 C 0.14006 0.68121 0.66916 0.0
C337 C 0.17494 0.65792 0.64136 0.0
C338 C 0.17361 0.67109 0.63103 0.0
C339 C 0.1857 0.66004 0.62865 0.0
C340 C 0.18253 0.65495 0.63628 0.0
C341 C 0.18132 0.6682 0.62596 0.0
C342 C 0.17045 0.66599 0.63867 0.0
C343 C 0.17196 0.65269 0.64958 0.0
O344 O 0.16255 0.65029 0.6764 0.0
O345 O 0.15316 0.64159 0.66815 0.0
O346 O 0.16379 0.64861 0.64903 0.0
O347 O 0.17336 0.65689 0.65748 0.0
H348 H 0.17147 0.63351 0.6665 0.0
H349 H 0.18012 0.62008 0.67182 0.0
H350 H 0.16465 0.61996 0.69734 0.0
H351 H 0.15594 0.63317 0.69186 0.0
H352 H 0.11947 0.66545 0.6768 0.0
H353 H 0.13225 0.65892 0.66811 0.0
H354 H 0.133 0.69222 0.6757 0.0
H355 H 0.14574 0.68569 0.667 0.0
H356 H 0.17001 0.67728 0.62909 0.0
H357 H 0.19173 0.65768 0.62501 0.0
H358 H 0.1861 0.64876 0.6383 0.0
H359 H 0.16455 0.66838 0.64252 0.0
C360 C 0.83181 0.66595 0.63823 0.0
C361 C 0.83748 0.67258 0.63383 0.0
C362 C 0.82482 0.67658 0.62355 0.0
C363 C 0.83402 0.67784 0.62652 0.0
C364 C 0.81916 0.66998 0.62807 0.0
C365 C 0.82264 0.66471 0.63534 0.0
U366 U 0.85 0.66097 0.65651 0.0
O367 O 0.84841 0.6563 0.67088 0.0
O368 O 0.85582 0.64777 0.66098 0.0
C369 C 0.85223 0.64832 0.66928 0.0
C370 C 0.83536 0.66028 0.64583 0.0
C371 C 0.84684 0.64019 0.67234 0.0
C372 C 0.83238 0.63145 0.67308 0.0
C373 C 0.83749 0.63911 0.66993 0.0
C374 C 0.84597 0.62578 0.6809 0.0
C375 C 0.83655 0.62472 0.67864 0.0
C376 C 0.85107 0.63347 0.67779 0.0
C377 C 0.87088 0.67694 0.6594 0.0
C378 C 0.88286 0.67359 0.67062 0.0
C379 C 0.88291 0.68833 0.66264 0.0
C380 C 0.87494 0.68563 0.65782 0.0
C381 C 0.88695 0.68236 0.66913 0.0
C382 C 0.87488 0.67091 0.6658 0.0
C383 C 0.86228 0.67437 0.65459 0.0
O384 O 0.84299 0.65585 0.64405 0.0
O385 O 0.83543 0.66423 0.65397 0.0
O386 O 0.85474 0.67511 0.65956 0.0
O387 O 0.8625 0.66671 0.64982 0.0
H388 H 0.84458 0.67367 0.63603 0.0
H389 H 0.83851 0.68294 0.62324 0.0
H390 H 0.81209 0.66877 0.62587 0.0
H391 H 0.81818 0.65961 0.63868 0.0
H392 H 0.82516 0.63077 0.67114 0.0
H393 H 0.83414 0.64422 0.66566 0.0
H394 H 0.84936 0.62077 0.68526 0.0
H395 H 0.85828 0.6342 0.6797 0.0
H396 H 0.88584 0.6688 0.67549 0.0
H397 H 0.88577 0.69518 0.66143 0.0
H398 H 0.87189 0.69038 0.65295 0.0
H399 H 0.87179 0.66417 0.66712 0.0
C400 C 0.8313 0.34766 0.63984 0.0
C401 C 0.83636 0.33996 0.63722 0.0
C402 C 0.82562 0.33698 0.62455 0.0
C403 C 0.83356 0.33467 0.62964 0.0
C404 C 0.82063 0.34477 0.62718 0.0
C405 C 0.82345 0.35006 0.63475 0.0
U406 U 0.84698 0.35209 0.66058 0.0
O407 O 0.85248 0.36511 0.66626 0.0
O408 O 0.84348 0.35615 0.67474 0.0
C409 C 0.84789 0.36412 0.67404 0.0
C410 C 0.83399 0.35312 0.64796 0.0
C411 C 0.84276 0.37218 0.67715 0.0
C412 C 0.83145 0.38416 0.67469 0.0
C413 C 0.83625 0.37651 0.67147 0.0
C414 C 0.83959 0.38313 0.68928 0.0
C415 C 0.83309 0.38758 0.68363 0.0
C416 C 0.84437 0.37553 0.68606 0.0
C417 C 0.86687 0.33556 0.66532 0.0
C418 C 0.87816 0.3377 0.67761 0.0
C419 C 0.87801 0.32367 0.66863 0.0
C420 C 0.87058 0.32692 0.66346 0.0
C421 C 0.88188 0.32899 0.67579 0.0
C422 C 0.87069 0.34094 0.67243 0.0
C423 C 0.85895 0.33873 0.65984 0.0
O424 O 0.8328 0.34894 0.65595 0.0
O425 O 0.84195 0.3576 0.64734 0.0
O426 O 0.86012 0.34666 0.65552 0.0
O427 O 0.85085 0.33785 0.66385 0.0
H428 H 0.84243 0.33799 0.64111 0.0
H429 H 0.83749 0.32866 0.62787 0.0
H430 H 0.81457 0.34683 0.62335 0.0
H431 H 0.81948 0.35599 0.63667 0.0
H432 H 0.82654 0.38744 0.67014 0.0
H433 H 0.8349 0.37398 0.66457 0.0
H434 H 0.84089 0.38543 0.69626 0.0
H435 H 0.84931 0.37223 0.69056 0.0
H436 H 0.88091 0.34193 0.68313 0.0
H437 H 0.88078 0.31701 0.66696 0.0
H438 H 0.86772 0.32268 0.65798 0.0
H439 H 0.86788 0.34761 0.67399 0.0
C440 C 0.13996 0.32537 0.66518 0.0
C441 C 0.13766 0.32964 0.6735 0.0
C442 C 0.1244 0.31916 0.67536 0.0
C443 C 0.12995 0.32656 0.67855 0.0
C444 C 0.12673 0.31496 0.66697 0.0
C445 C 0.13444 0.31804 0.66193 0.0
U446 U 0.16017 0.34213 0.66135 0.0
O447 O 0.17458 0.33954 0.65744 0.0
O448 O 0.1659 0.3481 0.64854 0.0
C449 C 0.17384 0.34396 0.64954 0.0
C450 C 0.14813 0.32845 0.6599 0.0
C451 C 0.17712 0.33901 0.6414 0.0
C452 C 0.17502 0.32731 0.62962 0.0
C453 C 0.1718 0.3319 0.63742 0.0
C454 C 0.18893 0.33688 0.62977 0.0
C455 C 0.18363 0.32976 0.62569 0.0
C456 C 0.1857 0.34145 0.63755 0.0
C457 C 0.16379 0.36237 0.67772 0.0
C458 C 0.17786 0.3718 0.67804 0.0
C459 C 0.16431 0.37662 0.6864 0.0
C460 C 0.15948 0.36876 0.6834 0.0
C461 C 0.17357 0.37822 0.68379 0.0
C462 C 0.17299 0.36396 0.675 0.0
C463 C 0.15859 0.35411 0.67472 0.0
O464 O 0.14731 0.33632 0.65546 0.0
O465 O 0.15607 0.32774 0.66425 0.0
O466 O 0.16289 0.34626 0.67568 0.0
O467 O 0.15429 0.35488 0.66677 0.0
H468 H 0.14186 0.33531 0.67611 0.0
H469 H 0.12844 0.32987 0.68504 0.0
H470 H 0.12254 0.30934 0.66425 0.0
H471 H 0.13611 0.31469 0.6555 0.0
H472 H 0.17071 0.32194 0.6266 0.0
H473 H 0.16514 0.32992 0.64032 0.0
H474 H 0.19564 0.33884 0.62702 0.0
H475 H 0.18991 0.34691 0.64057 0.0
H476 H 0.18494 0.37288 0.67583 0.0
H477 H 0.16084 0.38137 0.69091 0.0
H478 H 0.15237 0.36765 0.68556 0.0
H479 H 0.17642 0.35912 0.67055 0.0
C480 C 0.13705 0.33358 0.34515 0.0
C481 C 0.13594 0.33681 0.33607 0.0
C482 C 0.12186 0.32749 0.33443 0.0
C483 C 0.12843 0.33376 0.33074 0.0
C484 C 0.12297 0.32436 0.34358 0.0
C485 C 0.13052 0.32737 0.34888 0.0
U486 U 0.15706 0.35032 0.34959 0.0
O487 O 0.16242 0.35621 0.36253 0.0
O488 O 0.17136 0.34777 0.35393 0.0
C489 C 0.17039 0.35207 0.36181 0.0
C490 C 0.145 0.33663 0.35076 0.0
C491 C 0.17347 0.34698 0.37002 0.0
C492 C 0.17073 0.33575 0.38229 0.0
C493 C 0.16757 0.34067 0.3746 0.0
C494 C 0.18571 0.34336 0.38085 0.0
C495 C 0.17986 0.33701 0.38547 0.0
C496 C 0.18254 0.3483 0.3732 0.0
C497 C 0.16124 0.37039 0.33286 0.0
C498 C 0.17199 0.38308 0.33594 0.0
C499 C 0.16588 0.38087 0.32052 0.0
C500 C 0.16077 0.37319 0.32361 0.0
C501 C 0.17155 0.38592 0.32664 0.0
C502 C 0.1669 0.37536 0.33902 0.0
C503 C 0.15593 0.36219 0.33592 0.0
O504 O 0.15312 0.33591 0.3468 0.0
O505 O 0.144 0.34449 0.35507 0.0
O506 O 0.15138 0.36301 0.34371 0.0
O507 O 0.16026 0.35435 0.33526 0.0
H508 H 0.14089 0.34167 0.3331 0.0
H509 H 0.1277 0.33639 0.32377 0.0
H510 H 0.11809 0.31946 0.34659 0.0
H511 H 0.13127 0.32482 0.35588 0.0
H512 H 0.16608 0.33084 0.38563 0.0
H513 H 0.16055 0.33951 0.37218 0.0
H514 H 0.19275 0.34457 0.38319 0.0
H515 H 0.18718 0.35314 0.36974 0.0
H516 H 0.1762 0.38685 0.34087 0.0
H517 H 0.16551 0.38274 0.31328 0.0
H518 H 0.15649 0.36939 0.31875 0.0
H519 H 0.16738 0.37327 0.3462 0.0
C520 C 0.14145 0.66092 0.33571 0.0
C521 C 0.13951 0.66951 0.33957 0.0
C522 C 0.1265 0.67126 0.32902 0.0
C523 C 0.13209 0.67464 0.33626 0.0
C524 C 0.12841 0.66256 0.32532 0.0
C525 C 0.13582 0.65745 0.32863 0.0
U526 U 0.16183 0.6571 0.35201 0.0
O527 O 0.16715 0.64422 0.35792 0.0
O528 O 0.17599 0.65287 0.34898 0.0
C529 C 0.17503 0.64501 0.35347 0.0
C530 C 0.14943 0.65559 0.33882 0.0
C531 C 0.17792 0.63681 0.34839 0.0
C532 C 0.17757 0.62725 0.33468 0.0
C533 C 0.17437 0.63482 0.3396 0.0
C534 C 0.18774 0.62347 0.34739 0.0
C535 C 0.18437 0.62153 0.33848 0.0
C536 C 0.18455 0.63104 0.35229 0.0
C537 C 0.16672 0.67426 0.37142 0.0
C538 C 0.1788 0.67216 0.38288 0.0
C539 C 0.17059 0.68654 0.38212 0.0
C540 C 0.16529 0.68314 0.37478 0.0
C541 C 0.17743 0.6811 0.38625 0.0
C542 C 0.17351 0.66877 0.3755 0.0
C543 C 0.16118 0.67093 0.36357 0.0
O544 O 0.15754 0.65968 0.33768 0.0
O545 O 0.14855 0.65149 0.34689 0.0
O546 O 0.15665 0.66309 0.36487 0.0
O547 O 0.16528 0.67149 0.35549 0.0
H548 H 0.14381 0.67229 0.34506 0.0
H549 H 0.13086 0.68134 0.33922 0.0
H550 H 0.12416 0.65967 0.31985 0.0
H551 H 0.1372 0.65081 0.3256 0.0
H552 H 0.17489 0.62603 0.3278 0.0
H553 H 0.16924 0.63921 0.33648 0.0
H554 H 0.19286 0.61913 0.3506 0.0
H555 H 0.18733 0.63245 0.35909 0.0
H556 H 0.18407 0.66783 0.38585 0.0
H557 H 0.16925 0.6934 0.38463 0.0
H558 H 0.16007 0.68746 0.37171 0.0
H559 H 0.17474 0.6619 0.37294 0.0
C560 C 0.82828 0.6397 0.34232 0.0
C561 C 0.83182 0.63758 0.3336 0.0
C562 C 0.8211 0.62447 0.33245 0.0
C563 C 0.82825 0.63004 0.32869 0.0
C564 C 0.81762 0.62663 0.34123 0.0
C565 C 0.82118 0.63418 0.34611 0.0
U566 U 0.84622 0.65891 0.34611 0.0
O567 O 0.84439 0.67329 0.35025 0.0
O568 O 0.85243 0.66401 0.35903 0.0
C569 C 0.84861 0.67212 0.35821 0.0
C570 C 0.83192 0.6476 0.34756 0.0
C571 C 0.84357 0.67525 0.36636 0.0
C572 C 0.82954 0.67581 0.37553 0.0
C573 C 0.83431 0.67259 0.36784 0.0
C574 C 0.84331 0.68422 0.38043 0.0
C575 C 0.83398 0.68169 0.3819 0.0
C576 C 0.84804 0.68103 0.37272 0.0
C577 C 0.86648 0.66213 0.32962 0.0
C578 C 0.87681 0.67549 0.33048 0.0
C579 C 0.87985 0.66334 0.31957 0.0
C580 C 0.87199 0.65849 0.32265 0.0
C581 C 0.88232 0.67193 0.32339 0.0
C582 C 0.86897 0.67062 0.33358 0.0
C583 C 0.85807 0.65711 0.33258 0.0
O584 O 0.83979 0.64626 0.35185 0.0
O585 O 0.8316 0.65561 0.34329 0.0
O586 O 0.85037 0.6617 0.33177 0.0
O587 O 0.85871 0.65263 0.34047 0.0
H588 H 0.83731 0.64178 0.33058 0.0
H589 H 0.83102 0.62864 0.32192 0.0
H590 H 0.81224 0.62241 0.3444 0.0
H591 H 0.81841 0.6357 0.35286 0.0
H592 H 0.8224 0.67366 0.37652 0.0
H593 H 0.83076 0.66806 0.36302 0.0
H594 H 0.84689 0.68883 0.38514 0.0
H595 H 0.85519 0.68315 0.37168 0.0
H596 H 0.87858 0.68203 0.33365 0.0
H597 H 0.88388 0.66046 0.31403 0.0
H598 H 0.87016 0.65195 0.31952 0.0
H599 H 0.8648 0.6735 0.33902 0.0
C600 C 0.84266 0.36451 0.32883 0.0
C601 C 0.83424 0.36645 0.33313 0.0
C602 C 0.83243 0.3799 0.32316 0.0
C603 C 0.82915 0.37408 0.3303 0.0
C604 C 0.84091 0.37792 0.31894 0.0
C605 C 0.84597 0.37029 0.32175 0.0
U606 U 0.84707 0.34429 0.34509 0.0
O607 O 0.85114 0.33012 0.34206 0.0
O608 O 0.86019 0.339 0.35049 0.0
C609 C 0.85922 0.33113 0.34613 0.0
C610 C 0.84804 0.35647 0.33163 0.0
C611 C 0.86726 0.32833 0.34069 0.0
C612 C 0.876 0.32827 0.32636 0.0
C613 C 0.86837 0.33114 0.33145 0.0
C614 C 0.88157 0.31992 0.33974 0.0
C615 C 0.88268 0.32262 0.33045 0.0
C616 C 0.87392 0.32275 0.3448 0.0
C617 C 0.83104 0.34006 0.3657 0.0
C618 C 0.83195 0.32649 0.37557 0.0
C619 C 0.82121 0.33854 0.3792 0.0
C620 C 0.8242 0.34355 0.37145 0.0
C621 C 0.82501 0.32993 0.38134 0.0
C622 C 0.83495 0.33153 0.36782 0.0
C623 C 0.83392 0.34535 0.35748 0.0
O624 O 0.85265 0.35735 0.33941 0.0
O625 O 0.84375 0.34845 0.33087 0.0
O626 O 0.83286 0.34107 0.34957 0.0
O627 O 0.84187 0.34982 0.35816 0.0
H628 H 0.83161 0.36207 0.33865 0.0
H629 H 0.8227 0.37547 0.33376 0.0
H630 H 0.84356 0.38217 0.31334 0.0
H631 H 0.85245 0.36887 0.31836 0.0
H632 H 0.87671 0.33054 0.31926 0.0
H633 H 0.86332 0.33551 0.32818 0.0
H634 H 0.88652 0.31548 0.34306 0.0
H635 H 0.87317 0.32052 0.35191 0.0
H636 H 0.8351 0.31994 0.37707 0.0
H637 H 0.81577 0.34133 0.38341 0.0
H638 H 0.82109 0.35012 0.3699 0.0
H639 H 0.84029 0.32875 0.36346 0.0
C640 C 0.66069 0.13457 0.67604 0.0
C641 C 0.66687 0.13005 0.67023 0.0
C642 C 0.67055 0.11926 0.68263 0.0
C643 C 0.67174 0.12245 0.67349 0.0
C644 C 0.66433 0.12385 0.68839 0.0
C645 C 0.65945 0.13142 0.68511 0.0
U646 U 0.65723 0.15446 0.65906 0.0
O647 O 0.64438 0.16021 0.65348 0.0
O648 O 0.65382 0.16888 0.66171 0.0
C649 C 0.64573 0.16816 0.65761 0.0
C650 C 0.65566 0.14269 0.67283 0.0
C651 C 0.63784 0.1716 0.66286 0.0
C652 C 0.62928 0.17312 0.67718 0.0
C653 C 0.63663 0.16943 0.67224 0.0
C654 C 0.62415 0.18098 0.66334 0.0
C655 C 0.62301 0.17903 0.67281 0.0
C656 C 0.63151 0.17732 0.65843 0.0
C657 C 0.67349 0.15807 0.63865 0.0
C658 C 0.67418 0.17235 0.6298 0.0
C659 C 0.68262 0.1591 0.62462 0.0
C660 C 0.67932 0.15401 0.6322 0.0
C661 C 0.68017 0.16836 0.62339 0.0
C662 C 0.67084 0.16724 0.63735 0.0
C663 C 0.67042 0.15276 0.64681 0.0
O664 O 0.66025 0.15057 0.67344 0.0
O665 O 0.65114 0.14175 0.66501 0.0
O666 O 0.66232 0.14858 0.64608 0.0
O667 O 0.67161 0.15694 0.65476 0.0
H668 H 0.66794 0.13242 0.6632 0.0
H669 H 0.67639 0.11903 0.66884 0.0
H670 H 0.66336 0.12171 0.6955 0.0
H671 H 0.65476 0.13487 0.68971 0.0
H672 H 0.62865 0.17153 0.68447 0.0
H673 H 0.64145 0.16498 0.67577 0.0
H674 H 0.61935 0.18535 0.65971 0.0
H675 H 0.63229 0.17901 0.65118 0.0
H676 H 0.67208 0.17944 0.62898 0.0
H677 H 0.6873 0.15585 0.61987 0.0
H678 H 0.68143 0.14694 0.6331 0.0
H679 H 0.66628 0.17048 0.64223 0.0
C680 C 0.33168 0.16506 0.63734 0.0
C681 C 0.33701 0.17232 0.63354 0.0
C682 C 0.32488 0.17536 0.6223 0.0
C683 C 0.33365 0.17741 0.62606 0.0
C684 C 0.31963 0.16801 0.62609 0.0
C685 C 0.32301 0.16291 0.63354 0.0
U686 U 0.34881 0.16158 0.657 0.0
O687 O 0.3463 0.15795 0.67154 0.0
O688 O 0.35442 0.1488 0.66285 0.0
C689 C 0.35032 0.14994 0.67084 0.0
C690 C 0.33492 0.15989 0.64542 0.0
C691 C 0.34488 0.14197 0.67426 0.0
C692 C 0.33051 0.13308 0.675 0.0
C693 C 0.33568 0.14053 0.67147 0.0
C694 C 0.34374 0.1283 0.68398 0.0
C695 C 0.33447 0.1269 0.68133 0.0
C696 C 0.34889 0.13579 0.68049 0.0
C697 C 0.36915 0.17821 0.66026 0.0
C698 C 0.37793 0.1788 0.67455 0.0
C699 C 0.38322 0.18756 0.6612 0.0
C700 C 0.37564 0.18422 0.65614 0.0
C701 C 0.38441 0.18496 0.67051 0.0
C702 C 0.37039 0.17544 0.66946 0.0
C703 C 0.361 0.17506 0.655 0.0
O704 O 0.34278 0.15561 0.64438 0.0
O705 O 0.33437 0.16427 0.6533 0.0
O706 O 0.35305 0.176 0.65922 0.0
O707 O 0.36176 0.16705 0.65091 0.0
H708 H 0.34372 0.1741 0.63644 0.0
H709 H 0.33782 0.18309 0.62337 0.0
H710 H 0.31291 0.16617 0.62328 0.0
H711 H 0.31881 0.15732 0.6364 0.0
H712 H 0.32342 0.13211 0.67273 0.0
H713 H 0.33249 0.14521 0.66661 0.0
H714 H 0.34696 0.12371 0.6889 0.0
H715 H 0.35599 0.1368 0.68271 0.0
H716 H 0.37853 0.17675 0.68172 0.0
H717 H 0.38814 0.19217 0.65783 0.0
H718 H 0.37481 0.18639 0.64902 0.0
H719 H 0.36544 0.17078 0.67275 0.0
C720 C 0.33419 0.8461 0.6437 0.0
C721 C 0.33773 0.8373 0.64214 0.0
C722 C 0.32828 0.83575 0.62827 0.0
C723 C 0.33477 0.83216 0.63451 0.0
C724 C 0.32481 0.8446 0.62986 0.0
C725 C 0.32774 0.84971 0.63751 0.0
U726 U 0.35058 0.85085 0.66388 0.0
O727 O 0.35619 0.86404 0.66909 0.0
O728 O 0.3476 0.85517 0.67806 0.0
C729 C 0.35184 0.8632 0.67702 0.0
C730 C 0.33714 0.85158 0.65172 0.0
C731 C 0.34656 0.87126 0.67988 0.0
C732 C 0.33264 0.88038 0.67947 0.0
C733 C 0.33765 0.87281 0.67644 0.0
C734 C 0.34548 0.885 0.68926 0.0
C735 C 0.33649 0.88655 0.68595 0.0
C736 C 0.35045 0.87743 0.68626 0.0
C737 C 0.3709 0.83477 0.66808 0.0
C738 C 0.38102 0.83588 0.68144 0.0
C739 C 0.3839 0.82455 0.66964 0.0
C740 C 0.37623 0.8276 0.66469 0.0
C741 C 0.38638 0.82862 0.6781 0.0
C742 C 0.37335 0.83894 0.67646 0.0
C743 C 0.36272 0.83767 0.66285 0.0
O744 O 0.33629 0.84745 0.65979 0.0
O745 O 0.34501 0.85615 0.65077 0.0
O746 O 0.36359 0.84553 0.65836 0.0
O747 O 0.35478 0.83673 0.66719 0.0
H748 H 0.34277 0.83443 0.64684 0.0
H749 H 0.33766 0.82542 0.63343 0.0
H750 H 0.31972 0.84752 0.62527 0.0
H751 H 0.32493 0.85648 0.63861 0.0
H752 H 0.32578 0.88142 0.6767 0.0
H753 H 0.33455 0.86813 0.67147 0.0
H754 H 0.3486 0.88954 0.69434 0.0
H755 H 0.35732 0.87633 0.68899 0.0
H756 H 0.38279 0.83923 0.68788 0.0
H757 H 0.38777 0.81885 0.66693 0.0
H758 H 0.37442 0.82428 0.65824 0.0
H759 H 0.36931 0.84451 0.67917 0.0
C760 C 0.63875 0.83291 0.6593 0.0
C761 C 0.63557 0.83842 0.66651 0.0
C762 C 0.62339 0.82708 0.66995 0.0
C763 C 0.62794 0.83553 0.67178 0.0
C764 C 0.62661 0.82163 0.66267 0.0
C765 C 0.63422 0.82453 0.6574 0.0
U766 U 0.65934 0.84907 0.65507 0.0
O767 O 0.6737 0.84603 0.65151 0.0
O768 O 0.66535 0.85434 0.64205 0.0
C769 C 0.67312 0.84997 0.64333 0.0
C770 C 0.64695 0.83568 0.65393 0.0
C771 C 0.67628 0.84445 0.6355 0.0
C772 C 0.67815 0.82971 0.62792 0.0
C773 C 0.67477 0.83487 0.63526 0.0
C774 C 0.68434 0.84367 0.62083 0.0
C775 C 0.68301 0.83405 0.62065 0.0
C776 C 0.68102 0.84882 0.6282 0.0
C777 C 0.66366 0.86939 0.67126 0.0
C778 C 0.67854 0.87684 0.67426 0.0
C779 C 0.66441 0.88441 0.67855 0.0
C780 C 0.65923 0.87696 0.6751 0.0
C781 C 0.67413 0.88436 0.6783 0.0
C782 C 0.67335 0.86944 0.67073 0.0
C783 C 0.6581 0.86138 0.66816 0.0
O784 O 0.64633 0.84348 0.64932 0.0
O785 O 0.65487 0.83485 0.65828 0.0
O786 O 0.66189 0.8533 0.66937 0.0
O787 O 0.65402 0.86226 0.6601 0.0
H788 H 0.63902 0.84492 0.66808 0.0
H789 H 0.62559 0.83994 0.67727 0.0
H790 H 0.62338 0.81502 0.66116 0.0
H791 H 0.63664 0.82017 0.6519 0.0
H792 H 0.67692 0.82232 0.62791 0.0
H793 H 0.67104 0.83136 0.64078 0.0
H794 H 0.68812 0.8472 0.61537 0.0
H795 H 0.68225 0.85621 0.62826 0.0
H796 H 0.68601 0.87668 0.67386 0.0
H797 H 0.66083 0.89009 0.68167 0.0
H798 H 0.65176 0.87705 0.67556 0.0
H799 H 0.67692 0.8637 0.66771 0.0
C800 C 0.64011 0.83129 0.3429 0.0
C801 C 0.63605 0.83692 0.33617 0.0
C802 C 0.62511 0.82458 0.33232 0.0
C803 C 0.62858 0.8336 0.33095 0.0
C804 C 0.62917 0.819 0.33913 0.0
C805 C 0.6366 0.82234 0.34438 0.0
U806 U 0.66005 0.84831 0.34613 0.0
O807 O 0.66567 0.85473 0.35873 0.0
O808 O 0.67448 0.84613 0.35013 0.0
C809 C 0.67366 0.85065 0.35791 0.0
C810 C 0.64817 0.83458 0.34819 0.0
C811 C 0.6769 0.84578 0.36618 0.0
C812 C 0.67752 0.83198 0.37571 0.0
C813 C 0.67406 0.83666 0.36802 0.0
C814 C 0.6865 0.84559 0.37993 0.0
C815 C 0.68384 0.83637 0.38173 0.0
C816 C 0.68307 0.85024 0.37221 0.0
C817 C 0.66406 0.86768 0.32893 0.0
C818 C 0.67717 0.87818 0.33084 0.0
C819 C 0.66691 0.87988 0.31772 0.0
C820 C 0.66161 0.87232 0.32082 0.0
C821 C 0.67476 0.88289 0.32269 0.0
C822 C 0.67186 0.87064 0.33394 0.0
C823 C 0.65856 0.85967 0.33209 0.0
O824 O 0.65615 0.83376 0.34398 0.0
O825 O 0.64726 0.84259 0.35224 0.0
O826 O 0.65415 0.86076 0.33992 0.0
O827 O 0.66278 0.85175 0.33159 0.0
H828 H 0.63873 0.84383 0.33489 0.0
H829 H 0.62568 0.83802 0.32568 0.0
H830 H 0.62658 0.81206 0.34042 0.0
H831 H 0.63967 0.81791 0.34955 0.0
H832 H 0.6754 0.82486 0.37682 0.0
H833 H 0.66928 0.83312 0.36343 0.0
H834 H 0.69122 0.84922 0.38449 0.0
H835 H 0.68528 0.8573 0.37091 0.0
H836 H 0.68309 0.8804 0.33489 0.0
H837 H 0.66494 0.88329 0.31136 0.0
H838 H 0.65562 0.87008 0.31687 0.0
H839 H 0.67383 0.86711 0.34023 0.0
C840 C 0.63738 0.16058 0.33523 0.0
C841 C 0.63683 0.17001 0.33722 0.0
C842 C 0.62183 0.17066 0.32959 0.0
C843 C 0.62914 0.17501 0.33439 0.0
C844 C 0.62234 0.16117 0.32777 0.0
C845 C 0.63006 0.15619 0.33055 0.0
U846 U 0.65803 0.15614 0.35099 0.0
O847 O 0.66388 0.14313 0.35593 0.0
O848 O 0.67234 0.15266 0.34749 0.0
C849 C 0.6717 0.14451 0.35147 0.0
C850 C 0.64557 0.15526 0.33782 0.0
C851 C 0.67504 0.13674 0.34599 0.0
C852 C 0.67238 0.12349 0.33607 0.0
C853 C 0.66898 0.13098 0.34098 0.0
C854 C 0.68793 0.12758 0.34096 0.0
C855 C 0.68191 0.12165 0.33606 0.0
C856 C 0.68453 0.13502 0.34588 0.0
C857 C 0.66233 0.17177 0.37179 0.0
C858 C 0.67638 0.17139 0.381 0.0
C859 C 0.66379 0.18114 0.38555 0.0
C860 C 0.65865 0.17812 0.37794 0.0
C861 C 0.67275 0.17786 0.38715 0.0
C862 C 0.6712 0.16835 0.37339 0.0
C863 C 0.6569 0.16892 0.36367 0.0
O864 O 0.65357 0.15962 0.33692 0.0
O865 O 0.64489 0.15046 0.34552 0.0
O866 O 0.65267 0.16085 0.36434 0.0
O867 O 0.66094 0.17028 0.35565 0.0
H868 H 0.64237 0.17352 0.34091 0.0
H869 H 0.6289 0.18228 0.336 0.0
H870 H 0.61686 0.15764 0.32403 0.0
H871 H 0.63036 0.14892 0.32895 0.0
H872 H 0.66754 0.11903 0.33243 0.0
H873 H 0.66162 0.13222 0.34094 0.0
H874 H 0.69532 0.12651 0.34096 0.0
H875 H 0.68932 0.13943 0.34965 0.0
H876 H 0.6832 0.16865 0.38209 0.0
H877 H 0.66084 0.18622 0.39006 0.0
H878 H 0.65181 0.18084 0.37679 0.0
H879 H 0.67414 0.16339 0.36873 0.0
C880 C 0.32425 0.14133 0.34451 0.0
C881 C 0.32955 0.13741 0.3375 0.0
C882 C 0.31716 0.12625 0.33438 0.0
C883 C 0.32604 0.12992 0.33249 0.0
C884 C 0.31188 0.13026 0.34138 0.0
C885 C 0.31541 0.13774 0.3464 0.0
U886 U 0.34245 0.16012 0.34881 0.0
O887 O 0.34088 0.17455 0.35293 0.0
O888 O 0.34853 0.16507 0.36185 0.0
C889 C 0.34496 0.17329 0.36094 0.0
C890 C 0.32787 0.14914 0.3499 0.0
C891 C 0.33993 0.17664 0.36901 0.0
C892 C 0.32594 0.17752 0.37819 0.0
C893 C 0.33069 0.174 0.37062 0.0
C894 C 0.33968 0.18618 0.3827 0.0
C895 C 0.33035 0.18372 0.38427 0.0
C896 C 0.34441 0.18268 0.37513 0.0
C897 C 0.36305 0.16291 0.33268 0.0
C898 C 0.37419 0.17551 0.33446 0.0
C899 C 0.37591 0.16459 0.32203 0.0
C900 C 0.36795 0.15983 0.32501 0.0
C901 C 0.37909 0.17253 0.32668 0.0
C902 C 0.36623 0.17074 0.33743 0.0
C903 C 0.35449 0.15807 0.33549 0.0
O904 O 0.33559 0.14765 0.35441 0.0
O905 O 0.32783 0.15716 0.34564 0.0
O906 O 0.34693 0.16286 0.33455 0.0
O907 O 0.35489 0.15357 0.34338 0.0
H908 H 0.33639 0.14015 0.33593 0.0
H909 H 0.33024 0.12705 0.32708 0.0
H910 H 0.30508 0.12753 0.3431 0.0
H911 H 0.31124 0.14068 0.3518 0.0
H912 H 0.31874 0.17554 0.37914 0.0
H913 H 0.32714 0.16931 0.36597 0.0
H914 H 0.34334 0.1908 0.38733 0.0
H915 H 0.35156 0.18474 0.37402 0.0
H916 H 0.37651 0.18153 0.33826 0.0
H917 H 0.37944 0.16217 0.31595 0.0
H918 H 0.36556 0.15381 0.32124 0.0
H919 H 0.36252 0.1732 0.34339 0.0
C920 C 0.34251 0.86715 0.33147 0.0
C921 C 0.33353 0.86845 0.3348 0.0
C922 C 0.33239 0.88261 0.32576 0.0
C923 C 0.3285 0.8761 0.33194 0.0
C924 C 0.34144 0.8813 0.32254 0.0
C925 C 0.34644 0.87363 0.32537 0.0
U926 U 0.34659 0.84671 0.34755 0.0
O927 O 0.3507 0.83256 0.3445 0.0
O928 O 0.35961 0.84135 0.35316 0.0
C929 C 0.35871 0.83351 0.34872 0.0
C930 C 0.34785 0.85907 0.33427 0.0
C931 C 0.36686 0.83066 0.34346 0.0
C932 C 0.37532 0.82941 0.32905 0.0
C933 C 0.36763 0.83242 0.33395 0.0
C934 C 0.38166 0.82304 0.34314 0.0
C935 C 0.38242 0.82464 0.33357 0.0
C936 C 0.37395 0.826 0.34802 0.0
C937 C 0.33009 0.84231 0.36777 0.0
C938 C 0.33066 0.82863 0.37749 0.0
C939 C 0.32032 0.84096 0.38134 0.0
C940 C 0.32339 0.84594 0.3736 0.0
C941 C 0.3239 0.83222 0.38337 0.0
C942 C 0.33374 0.83364 0.36976 0.0
C943 C 0.33316 0.84766 0.35964 0.0
O944 O 0.3523 0.85985 0.34215 0.0
O945 O 0.3436 0.85104 0.3333 0.0
O946 O 0.33228 0.84345 0.35168 0.0
O947 O 0.3411 0.85211 0.36055 0.0
H948 H 0.33041 0.86353 0.33958 0.0
H949 H 0.32159 0.87696 0.33463 0.0
H950 H 0.3446 0.88611 0.31768 0.0
H951 H 0.35337 0.87273 0.32273 0.0
H952 H 0.37561 0.83068 0.32168 0.0
H953 H 0.36225 0.83604 0.3303 0.0
H954 H 0.38706 0.81955 0.34689 0.0
H955 H 0.3735 0.82464 0.35537 0.0
H956 H 0.33349 0.82189 0.37879 0.0
H957 H 0.31523 0.84401 0.38579 0.0
H958 H 0.32053 0.85266 0.37218 0.0
H959 H 0.33893 0.83074 0.36531 0.0
C960 C 0.65935 0.63605 0.1774 0.0
C961 C 0.66506 0.63139 0.17125 0.0
C962 C 0.66915 0.62046 0.18339 0.0
C963 C 0.6699 0.62364 0.1742 0.0
C964 C 0.66339 0.62518 0.1895 0.0
C965 C 0.65853 0.63289 0.18652 0.0
U966 U 0.65648 0.65676 0.16134 0.0
O967 O 0.64397 0.66316 0.15581 0.0
O968 O 0.65342 0.67115 0.1647 0.0
C969 C 0.64538 0.67082 0.16046 0.0
C970 C 0.65446 0.64439 0.17453 0.0
C971 C 0.63751 0.67432 0.16578 0.0
C972 C 0.62252 0.67221 0.1732 0.0
C973 C 0.62994 0.66861 0.16828 0.0
C974 C 0.63021 0.68718 0.17335 0.0
C975 C 0.62259 0.68153 0.17581 0.0
C976 C 0.63756 0.68361 0.16837 0.0
C977 C 0.67354 0.66075 0.14149 0.0
C978 C 0.67133 0.67131 0.1286 0.0
C979 C 0.68665 0.66591 0.13224 0.0
C980 C 0.68302 0.66067 0.13955 0.0
C981 C 0.68086 0.6713 0.12669 0.0
C982 C 0.6677 0.66612 0.13598 0.0
C983 C 0.66997 0.65532 0.14938 0.0
O984 O 0.65914 0.65216 0.17559 0.0
O985 O 0.65003 0.64392 0.16661 0.0
O986 O 0.6618 0.65133 0.14829 0.0
O987 O 0.67103 0.65921 0.15748 0.0
H988 H 0.66582 0.63376 0.16418 0.0
H989 H 0.67418 0.62012 0.16928 0.0
H990 H 0.66277 0.62305 0.19665 0.0
H991 H 0.65422 0.63646 0.19139 0.0
H992 H 0.61678 0.66767 0.17507 0.0
H993 H 0.62973 0.66139 0.16643 0.0
H994 H 0.63041 0.69441 0.17516 0.0
H995 H 0.64331 0.68814 0.16649 0.0
H996 H 0.66671 0.67546 0.12449 0.0
H997 H 0.694 0.66567 0.13087 0.0
H998 H 0.68763 0.65658 0.14373 0.0
H999 H 0.66036 0.66634 0.1374 0.0
C1000 C 0.33304 0.66434 0.13372 0.0
C1001 C 0.33215 0.6739 0.13486 0.0
C1002 C 0.3264 0.6754 0.11914 0.0
C1003 C 0.32882 0.67936 0.12766 0.0
C1004 C 0.32746 0.66588 0.11795 0.0
C1005 C 0.3307 0.66039 0.1252 0.0
U1006 U 0.35012 0.65934 0.15307 0.0
O1007 O 0.34786 0.65435 0.16724 0.0
O1008 O 0.3562 0.6463 0.15769 0.0
C1009 C 0.35224 0.64664 0.16583 0.0
C1010 C 0.33634 0.65842 0.14132 0.0
C1011 C 0.34729 0.63823 0.16883 0.0
C1012 C 0.33378 0.62803 0.16848 0.0
C1013 C 0.3386 0.63582 0.16516 0.0
C1014 C 0.34636 0.62492 0.17904 0.0
C1015 C 0.33758 0.62253 0.17551 0.0
C1016 C 0.35116 0.6327 0.17572 0.0
C1017 C 0.36999 0.67621 0.15761 0.0
C1018 C 0.38077 0.67374 0.17021 0.0
C1019 C 0.38225 0.68742 0.16059 0.0
C1020 C 0.37461 0.6845 0.15541 0.0
C1021 C 0.38542 0.6821 0.16807 0.0
C1022 C 0.37312 0.67082 0.16501 0.0
C1023 C 0.36184 0.67334 0.15224 0.0
O1024 O 0.34427 0.6544 0.1399 0.0
O1025 O 0.33557 0.66176 0.1497 0.0
O1026 O 0.35395 0.67359 0.1567 0.0
O1027 O 0.36277 0.66581 0.14737 0.0
H1028 H 0.33401 0.67716 0.14133 0.0
H1029 H 0.32819 0.6867 0.12873 0.0
H1030 H 0.3256 0.66264 0.11148 0.0
H1031 H 0.33135 0.65304 0.12417 0.0
H1032 H 0.32707 0.62632 0.16555 0.0
H1033 H 0.33552 0.64003 0.15981 0.0
H1034 H 0.34944 0.62092 0.18454 0.0
H1035 H 0.35784 0.6345 0.17866 0.0
H1036 H 0.38309 0.66944 0.17586 0.0
H1037 H 0.38558 0.69395 0.15885 0.0
H1038 H 0.37224 0.68875 0.14974 0.0
H1039 H 0.36961 0.66439 0.16678 0.0
C1040 C 0.33231 0.34368 0.14241 0.0
C1041 C 0.33461 0.33436 0.1416 0.0
C1042 C 0.32593 0.33327 0.12718 0.0
C1043 C 0.33143 0.3292 0.13406 0.0
C1044 C 0.32385 0.34268 0.12795 0.0
C1045 C 0.327 0.34781 0.1355 0.0
U1046 U 0.34845 0.34816 0.16284 0.0
O1047 O 0.35401 0.36122 0.16837 0.0
O1048 O 0.34527 0.35221 0.17707 0.0
C1049 C 0.34956 0.36024 0.17623 0.0
C1050 C 0.33522 0.34912 0.15048 0.0
C1051 C 0.34426 0.36823 0.17923 0.0
C1052 C 0.33188 0.37912 0.177 0.0
C1053 C 0.337 0.37166 0.17387 0.0
C1054 C 0.34128 0.37978 0.19084 0.0
C1055 C 0.33392 0.38322 0.18557 0.0
C1056 C 0.3464 0.37236 0.1877 0.0
C1057 C 0.36852 0.33176 0.16714 0.0
C1058 C 0.37725 0.33078 0.18145 0.0
C1059 C 0.38241 0.32266 0.1679 0.0
C1060 C 0.37492 0.32605 0.1629 0.0
C1061 C 0.38362 0.32489 0.17727 0.0
C1062 C 0.36977 0.33419 0.17642 0.0
C1063 C 0.36048 0.33489 0.16182 0.0
O1064 O 0.33419 0.34501 0.15853 0.0
O1065 O 0.34315 0.35362 0.14966 0.0
O1066 O 0.36154 0.34282 0.15749 0.0
O1067 O 0.35243 0.33394 0.16594 0.0
H1068 H 0.33874 0.33105 0.14685 0.0
H1069 H 0.33309 0.32197 0.13375 0.0
H1070 H 0.31979 0.3461 0.12271 0.0
H1071 H 0.32521 0.35501 0.13598 0.0
H1072 H 0.3262 0.38153 0.17282 0.0
H1073 H 0.33523 0.36852 0.16732 0.0
H1074 H 0.34313 0.38286 0.1974 0.0
H1075 H 0.352 0.36981 0.19191 0.0
H1076 H 0.37791 0.33257 0.18866 0.0
H1077 H 0.38726 0.31829 0.16441 0.0
H1078 H 0.37409 0.32414 0.15572 0.0
H1079 H 0.36489 0.33862 0.17981 0.0
C1080 C 0.63508 0.33003 0.16048 0.0
C1081 C 0.63113 0.33558 0.16725 0.0
C1082 C 0.62041 0.3231 0.17144 0.0
C1083 C 0.62383 0.33216 0.17267 0.0
C1084 C 0.62439 0.3176 0.16461 0.0
C1085 C 0.63166 0.32104 0.15917 0.0
U1086 U 0.65446 0.34756 0.15582 0.0
O1087 O 0.6688 0.34553 0.15147 0.0
O1088 O 0.65948 0.35353 0.1427 0.0
C1089 C 0.66759 0.34968 0.14348 0.0
C1090 C 0.6429 0.33344 0.15488 0.0
C1091 C 0.6707 0.34458 0.13537 0.0
C1092 C 0.67141 0.33046 0.1265 0.0
C1093 C 0.66807 0.33532 0.13407 0.0
C1094 C 0.67984 0.34414 0.12136 0.0
C1095 C 0.67738 0.33481 0.12009 0.0
C1096 C 0.67653 0.34897 0.12894 0.0
C1097 C 0.65826 0.36776 0.17209 0.0
C1098 C 0.67084 0.37886 0.16978 0.0
C1099 C 0.66087 0.38001 0.18314 0.0
C1100 C 0.65582 0.37226 0.18021 0.0
C1101 C 0.66846 0.38339 0.17798 0.0
C1102 C 0.66577 0.3711 0.16686 0.0
C1103 C 0.65306 0.35945 0.16928 0.0
O1104 O 0.6416 0.34125 0.15047 0.0
O1105 O 0.65102 0.33303 0.15891 0.0
O1106 O 0.65758 0.35172 0.17006 0.0
O1107 O 0.64846 0.36013 0.16148 0.0
H1108 H 0.63375 0.34253 0.16839 0.0
H1109 H 0.62098 0.33653 0.17794 0.0
H1110 H 0.62184 0.31064 0.16342 0.0
H1111 H 0.63464 0.31667 0.15397 0.0
H1112 H 0.66932 0.32331 0.12566 0.0
H1113 H 0.66352 0.33183 0.13895 0.0
H1114 H 0.68451 0.34766 0.11662 0.0
H1115 H 0.67863 0.35612 0.12986 0.0
H1116 H 0.67658 0.38133 0.1656 0.0
H1117 H 0.65894 0.38324 0.18955 0.0
H1118 H 0.65007 0.36973 0.18435 0.0
H1119 H 0.66774 0.36767 0.16056 0.0
C1120 C 0.63493 0.33448 0.84464 0.0
C1121 C 0.6337 0.3381 0.83573 0.0
C1122 C 0.61989 0.32848 0.8337 0.0
C1123 C 0.62626 0.3351 0.83029 0.0
C1124 C 0.62106 0.32501 0.84271 0.0
C1125 C 0.62854 0.32798 0.84813 0.0
U1126 U 0.65514 0.35086 0.84904 0.0
O1127 O 0.66071 0.35648 0.86205 0.0
O1128 O 0.66945 0.34816 0.85313 0.0
C1129 C 0.6686 0.35224 0.86114 0.0
C1130 C 0.64291 0.33734 0.85027 0.0
C1131 C 0.6716 0.34684 0.86918 0.0
C1132 C 0.67209 0.33242 0.87778 0.0
C1133 C 0.66873 0.33762 0.87037 0.0
C1134 C 0.68097 0.34571 0.88302 0.0
C1135 C 0.67835 0.33637 0.88413 0.0
C1136 C 0.67765 0.35088 0.8756 0.0
C1137 C 0.65937 0.37087 0.8322 0.0
C1138 C 0.67044 0.38337 0.83492 0.0
C1139 C 0.66388 0.38118 0.81967 0.0
C1140 C 0.65871 0.37362 0.82295 0.0
C1141 C 0.66981 0.38616 0.82561 0.0
C1142 C 0.66528 0.37577 0.83818 0.0
C1143 C 0.654 0.36278 0.83541 0.0
O1144 O 0.65099 0.33651 0.84627 0.0
O1145 O 0.64205 0.3452 0.85461 0.0
O1146 O 0.64964 0.3637 0.8433 0.0
O1147 O 0.65818 0.35486 0.83468 0.0
H1148 H 0.63854 0.34319 0.83296 0.0
H1149 H 0.62548 0.33798 0.82342 0.0
H1150 H 0.61633 0.31983 0.84549 0.0
H1151 H 0.62939 0.32512 0.855 0.0
H1152 H 0.66998 0.32524 0.87837 0.0
H1153 H 0.66404 0.33439 0.86548 0.0
H1154 H 0.68563 0.34903 0.88788 0.0
H1155 H 0.67988 0.35801 0.87482 0.0
H1156 H 0.67486 0.3871 0.8397 0.0
H1157 H 0.66335 0.38301 0.81243 0.0
H1158 H 0.65423 0.36987 0.81822 0.0
H1159 H 0.66592 0.37371 0.84535 0.0
C1160 C 0.64101 0.66195 0.83369 0.0
C1161 C 0.63602 0.66734 0.83988 0.0
C1162 C 0.62586 0.67228 0.8274 0.0
C1163 C 0.6285 0.67245 0.83676 0.0
C1164 C 0.63101 0.66696 0.82123 0.0
C1165 C 0.63849 0.66184 0.82436 0.0
U1166 U 0.66066 0.65692 0.85059 0.0
O1167 O 0.66562 0.64367 0.85596 0.0
O1168 O 0.6749 0.65268 0.84784 0.0
C1169 C 0.67368 0.6446 0.85185 0.0
C1170 C 0.64888 0.65643 0.83679 0.0
C1171 C 0.67662 0.63664 0.84643 0.0
C1172 C 0.67483 0.62638 0.83333 0.0
C1173 C 0.67179 0.63386 0.83849 0.0
C1174 C 0.68752 0.62436 0.84403 0.0
C1175 C 0.68276 0.62155 0.83601 0.0
C1176 C 0.68448 0.63183 0.84918 0.0
C1177 C 0.66463 0.67277 0.87132 0.0
C1178 C 0.67681 0.67043 0.88261 0.0
C1179 C 0.66733 0.68398 0.88343 0.0
C1180 C 0.66238 0.68101 0.87568 0.0
C1181 C 0.67464 0.67875 0.88699 0.0
C1182 C 0.67185 0.66747 0.87483 0.0
C1183 C 0.65951 0.66996 0.86299 0.0
O1184 O 0.65702 0.66057 0.83628 0.0
O1185 O 0.64766 0.65172 0.8445 0.0
O1186 O 0.6549 0.66209 0.86358 0.0
O1187 O 0.66404 0.67099 0.85519 0.0
H1188 H 0.6379 0.66756 0.84711 0.0
H1189 H 0.62465 0.6764 0.84172 0.0
H1190 H 0.62932 0.6668 0.81395 0.0
H1191 H 0.64232 0.65778 0.81947 0.0
H1192 H 0.67093 0.62435 0.82726 0.0
H1193 H 0.66569 0.6375 0.83628 0.0
H1194 H 0.69373 0.62092 0.84623 0.0
H1195 H 0.68831 0.63391 0.85527 0.0
H1196 H 0.68232 0.66619 0.88521 0.0
H1197 H 0.66556 0.69049 0.88652 0.0
H1198 H 0.65686 0.68521 0.87302 0.0
H1199 H 0.67368 0.66109 0.87152 0.0
C1200 C 0.3301 0.63798 0.84416 0.0
C1201 C 0.33204 0.63751 0.83468 0.0
C1202 C 0.32372 0.62281 0.8337 0.0
C1203 C 0.32883 0.63002 0.82949 0.0
C1204 C 0.32198 0.6232 0.84323 0.0
C1205 C 0.32511 0.63075 0.84841 0.0
U1206 U 0.34694 0.65794 0.84859 0.0
O1207 O 0.34436 0.67236 0.85217 0.0
O1208 O 0.3524 0.66368 0.86155 0.0
C1209 C 0.34843 0.67166 0.86025 0.0
C1210 C 0.33312 0.64601 0.84964 0.0
C1211 C 0.3432 0.67522 0.86809 0.0
C1212 C 0.33154 0.67342 0.88006 0.0
C1213 C 0.33653 0.66977 0.87271 0.0
C1214 C 0.33982 0.68799 0.87819 0.0
C1215 C 0.3331 0.6826 0.88284 0.0
C1216 C 0.34482 0.68433 0.87089 0.0
C1217 C 0.36761 0.6617 0.8327 0.0
C1218 C 0.37663 0.676 0.83232 0.0
C1219 C 0.38212 0.66256 0.82432 0.0
C1220 C 0.37431 0.65753 0.82726 0.0
C1221 C 0.38333 0.67187 0.82676 0.0
C1222 C 0.36885 0.67094 0.8353 0.0
C1223 C 0.35933 0.65638 0.83553 0.0
O1224 O 0.34087 0.64505 0.85427 0.0
O1225 O 0.33254 0.65404 0.84545 0.0
O1226 O 0.35143 0.66054 0.83432 0.0
O1227 O 0.35992 0.65213 0.84354 0.0
H1228 H 0.33597 0.64298 0.83128 0.0
H1229 H 0.33039 0.62985 0.82218 0.0
H1230 H 0.318 0.61778 0.84665 0.0
H1231 H 0.32357 0.63098 0.85572 0.0
H1232 H 0.32636 0.66912 0.88345 0.0
H1233 H 0.33516 0.66273 0.87059 0.0
H1234 H 0.34127 0.69504 0.88024 0.0
H1235 H 0.34994 0.68863 0.86739 0.0
H1236 H 0.37742 0.68313 0.8344 0.0
H1237 H 0.3871 0.65921 0.81996 0.0
H1238 H 0.37346 0.6504 0.8252 0.0
H1239 H 0.36378 0.67426 0.83957 0.0
C1240 C 0.34516 0.36752 0.82939 0.0
C1241 C 0.33753 0.37044 0.83448 0.0
C1242 C 0.33468 0.3825 0.82307 0.0
C1243 C 0.33234 0.37789 0.83135 0.0
C1244 C 0.34241 0.37956 0.81807 0.0
C1245 C 0.34759 0.37214 0.82121 0.0
U1246 U 0.34988 0.34744 0.8459 0.0
O1247 O 0.35394 0.33328 0.8429 0.0
O1248 O 0.36323 0.34228 0.85095 0.0
C1249 C 0.36219 0.33442 0.84656 0.0
C1250 C 0.35059 0.35959 0.83239 0.0
C1251 C 0.37005 0.33165 0.84079 0.0
C1252 C 0.37662 0.32802 0.82582 0.0
C1253 C 0.36926 0.33114 0.83113 0.0
C1254 C 0.38581 0.32621 0.83968 0.0
C1255 C 0.38494 0.32545 0.83005 0.0
C1256 C 0.37841 0.32924 0.845 0.0
C1257 C 0.33378 0.34257 0.86646 0.0
C1258 C 0.33695 0.33466 0.88097 0.0
C1259 C 0.32131 0.335 0.87501 0.0
C1260 C 0.3244 0.34014 0.8674 0.0
C1261 C 0.32754 0.33223 0.8819 0.0
C1262 C 0.34006 0.33975 0.87329 0.0
C1263 C 0.33675 0.34806 0.85834 0.0
O1264 O 0.35513 0.36061 0.84019 0.0
O1265 O 0.34639 0.35152 0.83169 0.0
O1266 O 0.33569 0.34397 0.85033 0.0
O1267 O 0.34462 0.3527 0.85905 0.0
H1268 H 0.33556 0.36692 0.84081 0.0
H1269 H 0.32638 0.37992 0.83532 0.0
H1270 H 0.34449 0.38304 0.81175 0.0
H1271 H 0.35348 0.36999 0.81721 0.0
H1272 H 0.3758 0.32762 0.8184 0.0
H1273 H 0.36293 0.33306 0.82768 0.0
H1274 H 0.39212 0.32423 0.84313 0.0
H1275 H 0.37917 0.32959 0.85243 0.0
H1276 H 0.34192 0.33256 0.88613 0.0
H1277 H 0.314 0.33333 0.8756 0.0
H1278 H 0.31943 0.34226 0.86223 0.0
H1279 H 0.34735 0.34147 0.8727 0.0
C1280 C 0.28777 0.29943 0.04006 0.0
C1281 C 0.28371 0.29273 0.0473 0.0
C1282 C 0.2806 0.27929 0.03744 0.0
C1283 C 0.27249 0.2826 0.03331 0.0
C1284 C 0.26851 0.27818 0.02564 0.0
C1285 C 0.27273 0.27032 0.02194 0.0
C1286 C 0.2807 0.26677 0.02624 0.0
C1287 C 0.28448 0.27126 0.034 0.0
C1288 C 0.25987 0.28205 0.02137 0.0
C1289 C 0.28533 0.25835 0.02251 0.0
C1290 C 0.27054 0.29484 0.95657 0.0
C1291 C 0.28039 0.29401 0.96045 0.0
C1292 C 0.27883 0.28126 0.97172 0.0
C1293 C 0.28139 0.27223 0.97375 0.0
C1294 C 0.27837 0.26774 0.98186 0.0
C1295 C 0.27235 0.2723 0.98794 0.0
C1296 C 0.26978 0.28147 0.98597 0.0
C1297 C 0.27318 0.2859 0.97799 0.0
C1298 C 0.28161 0.25811 0.98388 0.0
C1299 C 0.26345 0.28666 0.99228 0.0
C1300 C 0.22924 0.22913 0.96983 0.0
C1301 C 0.23782 0.22618 0.97324 0.0
C1302 C 0.24149 0.22971 0.9815 0.0
C1303 C 0.23657 0.23643 0.98642 0.0
C1304 C 0.22796 0.23943 0.98302 0.0
C1305 C 0.22439 0.2357 0.97479 0.0
C1306 C 0.25062 0.22623 0.985 0.0
C1307 C 0.22254 0.2466 0.98806 0.0
C1308 C 0.23863 0.21273 0.05151 0.0
C1309 C 0.22999 0.2187 0.05148 0.0
C1310 C 0.23005 0.22404 0.03564 0.0
C1311 C 0.2365 0.21993 0.02989 0.0
C1312 C 0.24034 0.22478 0.02236 0.0
C1313 C 0.23737 0.23382 0.02037 0.0
C1314 C 0.23066 0.23791 0.02607 0.0
C1315 C 0.22712 0.23296 0.03371 0.0
C1316 C 0.24746 0.22016 0.01646 0.0
C1317 C 0.22708 0.24739 0.024 0.0
C1318 C 0.26917 0.26632 0.01318 0.0
C1319 C 0.27247 0.27017 0.00491 0.0
C1320 C 0.26876 0.26754 0.99638 0.0
C1321 C 0.26155 0.26082 0.99605 0.0
C1322 C 0.25738 0.25825 0.98765 0.0
C1323 C 0.25042 0.25151 0.98737 0.0
C1324 C 0.24729 0.24712 0.99549 0.0
C1325 C 0.24035 0.24012 0.99524 0.0
C1326 C 0.2372 0.23611 0.00347 0.0
C1327 C 0.24089 0.23873 0.012 0.0
C1328 C 0.24797 0.24559 0.01238 0.0
C1329 C 0.25198 0.24831 0.02081 0.0
C1330 C 0.25889 0.25513 0.0211 0.0
C1331 C 0.26218 0.25936 0.01296 0.0
C1332 C 0.25833 0.25664 0.00436 0.0
C1333 C 0.25118 0.24979 0.00408 0.0
C1334 C 0.23648 0.22538 0.9496 0.0
C1335 C 0.22937 0.22004 0.9555 0.0
O1336 O 0.28495 0.28368 0.04458 0.0
O1337 O 0.2262 0.21916 0.0427 0.0
O1338 O 0.2254 0.22587 0.96186 0.0
O1339 O 0.28189 0.28513 0.96365 0.0
H1340 H 0.27621 0.29402 0.0481 0.0
H1341 H 0.28416 0.29858 0.03334 0.0
H1342 H 0.29524 0.29816 0.03901 0.0
H1343 H 0.28692 0.30667 0.0423 0.0
H1344 H 0.26924 0.2887 0.03591 0.0
H1345 H 0.29067 0.26867 0.03724 0.0
H1346 H 0.26144 0.28461 0.0143 0.0
H1347 H 0.25705 0.28781 0.02544 0.0
H1348 H 0.25447 0.27655 0.02077 0.0
H1349 H 0.29126 0.25621 0.02685 0.0
H1350 H 0.28785 0.2598 0.0154 0.0
H1351 H 0.28025 0.25254 0.0221 0.0
H1352 H 0.28129 0.29897 0.96622 0.0
H1353 H 0.26957 0.30182 0.95357 0.0
H1354 H 0.26529 0.29377 0.96205 0.0
H1355 H 0.26918 0.28962 0.95113 0.0
H1356 H 0.28582 0.26871 0.96896 0.0
H1357 H 0.27129 0.29296 0.97671 0.0
H1358 H 0.27585 0.2531 0.98265 0.0
H1359 H 0.28373 0.25744 0.99122 0.0
H1360 H 0.28751 0.25621 0.97942 0.0
H1361 H 0.2607 0.29294 0.98892 0.0
H1362 H 0.26737 0.2888 0.99852 0.0
H1363 H 0.25754 0.2822 0.99454 0.0
H1364 H 0.23285 0.21432 0.95919 0.0
H1365 H 0.24173 0.22112 0.96955 0.0
H1366 H 0.21779 0.23794 0.97215 0.0
H1367 H 0.25584 0.23193 0.98489 0.0
H1368 H 0.25324 0.22047 0.98078 0.0
H1369 H 0.24991 0.22383 0.99227 0.0
H1370 H 0.21629 0.2487 0.98418 0.0
H1371 H 0.22697 0.2528 0.98932 0.0
H1372 H 0.22035 0.24382 0.99489 0.0
H1373 H 0.23198 0.22579 0.05375 0.0
H1374 H 0.24134 0.21189 0.05864 0.0
H1375 H 0.2442 0.21608 0.04735 0.0
H1376 H 0.237 0.20581 0.04862 0.0
H1377 H 0.23851 0.21291 0.03129 0.0
H1378 H 0.22197 0.23598 0.03812 0.0
H1379 H 0.25342 0.22492 0.01515 0.0
H1380 H 0.24433 0.21838 0.00968 0.0
H1381 H 0.25002 0.21374 0.01971 0.0
H1382 H 0.2213 0.24926 0.02862 0.0
H1383 H 0.22466 0.24778 0.01673 0.0
H1384 H 0.23275 0.25258 0.02482 0.0
H1385 H 0.27785 0.27548 0.00514 0.0
H1386 H 0.25947 0.26141 0.98118 0.0
H1387 H 0.24752 0.24978 0.98069 0.0
H1388 H 0.23189 0.23072 0.00322 0.0
H1389 H 0.24979 0.24522 0.02729 0.0
H1390 H 0.26168 0.25699 0.02779 0.0
H1391 H 0.23963 0.22073 0.94447 0.0
H1392 H 0.24211 0.22826 0.95399 0.0
H1393 H 0.23315 0.23117 0.94589 0.0
C1394 C 0.7215 0.30198 0.96843 0.0
C1395 C 0.7243 0.29506 0.96101 0.0
C1396 C 0.72702 0.28151 0.97086 0.0
C1397 C 0.73562 0.28452 0.97439 0.0
C1398 C 0.73974 0.27997 0.98186 0.0
C1399 C 0.73519 0.27225 0.98593 0.0
C1400 C 0.72673 0.26896 0.98218 0.0
C1401 C 0.72278 0.27361 0.97464 0.0
C1402 C 0.74886 0.28357 0.98557 0.0
C1403 C 0.72175 0.2607 0.98631 0.0
C1404 C 0.74001 0.29567 0.05184 0.0
C1405 C 0.73035 0.29542 0.04742 0.0
C1406 C 0.73115 0.28284 0.03611 0.0
C1407 C 0.72789 0.27399 0.03396 0.0
C1408 C 0.73064 0.26957 0.02585 0.0
C1409 C 0.73697 0.27407 0.01982 0.0
C1410 C 0.7403 0.28304 0.02193 0.0
C1411 C 0.7373 0.28737 0.02999 0.0
C1412 C 0.72677 0.26008 0.02373 0.0
C1413 C 0.74705 0.28809 0.01566 0.0
C1414 C 0.78161 0.23502 0.03684 0.0
C1415 C 0.77317 0.23085 0.03429 0.0
C1416 C 0.76883 0.23323 0.02596 0.0
C1417 C 0.77301 0.23995 0.0201 0.0
C1418 C 0.78166 0.24395 0.02254 0.0
C1419 C 0.78591 0.24134 0.03085 0.0
C1420 C 0.75975 0.22861 0.02342 0.0
C1421 C 0.78635 0.25108 0.01643 0.0
C1422 C 0.76697 0.21351 0.95599 0.0
C1423 C 0.7753 0.2202 0.95566 0.0
C1424 C 0.77584 0.226 0.97126 0.0
C1425 C 0.76941 0.22201 0.97734 0.0
C1426 C 0.76606 0.22698 0.98486 0.0
C1427 C 0.76947 0.23604 0.98647 0.0
C1428 C 0.7761 0.24003 0.98039 0.0
C1429 C 0.77917 0.23496 0.97279 0.0
C1430 C 0.75902 0.22247 0.9912 0.0
C1431 C 0.7801 0.24956 0.98204 0.0
C1432 C 0.73893 0.2682 0.99457 0.0
C1433 C 0.73611 0.27203 0.00291 0.0
C1434 C 0.74011 0.26943 0.01129 0.0
C1435 C 0.74718 0.26284 0.01139 0.0
C1436 C 0.75168 0.2604 0.01963 0.0
C1437 C 0.75862 0.2539 0.01967 0.0
C1438 C 0.76131 0.24956 0.01148 0.0
C1439 C 0.76828 0.24287 0.01149 0.0
C1440 C 0.77082 0.23872 0.00322 0.0
C1441 C 0.76656 0.24104 0.99487 0.0
C1442 C 0.75959 0.24774 0.99471 0.0
C1443 C 0.75518 0.2503 0.98645 0.0
C1444 C 0.74843 0.25702 0.98636 0.0
C1445 C 0.7457 0.2613 0.99457 0.0
C1446 C 0.7499 0.25868 0.00302 0.0
C1447 C 0.75693 0.25199 0.00307 0.0
C1448 C 0.78176 0.24206 0.05785 0.0
C1449 C 0.78162 0.23248 0.05349 0.0
O1450 O 0.7225 0.2861 0.96401 0.0
O1451 O 0.77934 0.22097 0.9643 0.0
O1452 O 0.78588 0.23294 0.04492 0.0
O1453 O 0.72825 0.28667 0.04414 0.0
H1454 H 0.7318 0.29595 0.95951 0.0
H1455 H 0.72563 0.301 0.97481 0.0
H1456 H 0.71407 0.30106 0.97018 0.0
H1457 H 0.72276 0.30915 0.96594 0.0
H1458 H 0.73913 0.2905 0.97148 0.0
H1459 H 0.71621 0.27126 0.97184 0.0
H1460 H 0.74794 0.28597 0.99277 0.0
H1461 H 0.75174 0.28939 0.98138 0.0
H1462 H 0.75396 0.27796 0.98574 0.0
H1463 H 0.71555 0.25862 0.98224 0.0
H1464 H 0.71957 0.2623 0.99346 0.0
H1465 H 0.7265 0.25479 0.98672 0.0
H1466 H 0.73023 0.30048 0.04162 0.0
H1467 H 0.74153 0.30261 0.05472 0.0
H1468 H 0.7454 0.29419 0.04666 0.0
H1469 H 0.7405 0.29046 0.05746 0.0
H1470 H 0.72313 0.27055 0.03868 0.0
H1471 H 0.73986 0.29426 0.03143 0.0
H1472 H 0.73238 0.25499 0.02418 0.0
H1473 H 0.724 0.2599 0.01658 0.0
H1474 H 0.72119 0.25794 0.02859 0.0
H1475 H 0.74998 0.29443 0.01889 0.0
H1476 H 0.74344 0.2901 0.0092 0.0
H1477 H 0.75281 0.28354 0.01375 0.0
H1478 H 0.77427 0.23021 0.0528 0.0
H1479 H 0.77003 0.22562 0.0387 0.0
H1480 H 0.7925 0.24439 0.03282 0.0
H1481 H 0.75421 0.23378 0.02336 0.0
H1482 H 0.75778 0.223 0.02833 0.0
H1483 H 0.76017 0.22569 0.01637 0.0
H1484 H 0.79287 0.25382 0.0195 0.0
H1485 H 0.78163 0.2569 0.01516 0.0
H1486 H 0.78794 0.24799 0.00964 0.0
H1487 H 0.77289 0.22711 0.95338 0.0
H1488 H 0.7641 0.21241 0.94895 0.0
H1489 H 0.76139 0.2164 0.96028 0.0
H1490 H 0.76901 0.20676 0.95893 0.0
H1491 H 0.76709 0.21496 0.97625 0.0
H1492 H 0.7843 0.23788 0.96812 0.0
H1493 H 0.75323 0.2272 0.99246 0.0
H1494 H 0.76231 0.22096 0.99796 0.0
H1495 H 0.75619 0.21591 0.98834 0.0
H1496 H 0.78557 0.25147 0.97696 0.0
H1497 H 0.78307 0.24996 0.9891 0.0
H1498 H 0.77453 0.2547 0.98157 0.0
H1499 H 0.73089 0.2773 0.00284 0.0
H1500 H 0.74991 0.2635 0.02615 0.0
H1501 H 0.76185 0.25232 0.02623 0.0
H1502 H 0.77614 0.23355 0.0033 0.0
H1503 H 0.75696 0.24718 0.97993 0.0
H1504 H 0.74533 0.25879 0.9798 0.0
H1505 H 0.77841 0.2418 0.06474 0.0
H1506 H 0.77789 0.24692 0.0534 0.0
H1507 H 0.78897 0.24472 0.05861 0.0
C1508 C 0.80432 0.78578 0.04045 0.0
C1509 C 0.79537 0.78779 0.04562 0.0
C1510 C 0.78485 0.77604 0.03986 0.0
C1511 C 0.77752 0.78095 0.03604 0.0
C1512 C 0.77244 0.77739 0.02856 0.0
C1513 C 0.77484 0.76879 0.02477 0.0
C1514 C 0.78209 0.76371 0.02881 0.0
C1515 C 0.7869 0.76735 0.03644 0.0
C1516 C 0.76466 0.78293 0.02456 0.0
C1517 C 0.785 0.75461 0.02487 0.0
C1518 C 0.79612 0.79664 0.97497 0.0
C1519 C 0.79478 0.78862 0.96824 0.0
C1520 C 0.7818 0.78057 0.97563 0.0
C1521 C 0.78623 0.77305 0.97971 0.0
C1522 C 0.78225 0.76834 0.98726 0.0
C1523 C 0.7737 0.77126 0.99085 0.0
C1524 C 0.76913 0.77872 0.9866 0.0
C1525 C 0.77317 0.78317 0.97893 0.0
C1526 C 0.78723 0.76029 0.99147 0.0
C1527 C 0.76008 0.78212 0.9903 0.0
C1528 C 0.7312 0.72741 0.97285 0.0
C1529 C 0.74015 0.72517 0.97584 0.0
C1530 C 0.74375 0.72868 0.98414 0.0
C1531 C 0.73844 0.7348 0.98943 0.0
C1532 C 0.72945 0.73709 0.98644 0.0
C1533 C 0.72591 0.73325 0.97825 0.0
C1534 C 0.75321 0.72575 0.98728 0.0
C1535 C 0.72357 0.7436 0.99186 0.0
C1536 C 0.74037 0.71013 0.05422 0.0
C1537 C 0.7323 0.71683 0.05445 0.0
C1538 C 0.7321 0.72261 0.03874 0.0
C1539 C 0.73881 0.71873 0.03311 0.0
C1540 C 0.74253 0.72364 0.02557 0.0
C1541 C 0.73919 0.73251 0.02341 0.0
C1542 C 0.73221 0.73635 0.02897 0.0
C1543 C 0.72879 0.73136 0.03662 0.0
C1544 C 0.74992 0.71926 0.01981 0.0
C1545 C 0.72823 0.74563 0.0267 0.0
C1546 C 0.77037 0.76555 0.01608 0.0
C1547 C 0.77347 0.76953 0.00781 0.0
C1548 C 0.76981 0.7668 0.9993 0.0
C1549 C 0.76281 0.75987 0.99898 0.0
C1550 C 0.75901 0.7569 0.99055 0.0
C1551 C 0.75216 0.75005 0.99029 0.0
C1552 C 0.74894 0.74578 0.99845 0.0
C1553 C 0.74219 0.7386 0.99823 0.0
C1554 C 0.73908 0.7346 0.00649 0.0
C1555 C 0.7426 0.73745 0.01502 0.0
C1556 C 0.74944 0.74455 0.01538 0.0
C1557 C 0.75325 0.74752 0.02381 0.0
C1558 C 0.76001 0.75448 0.02408 0.0
C1559 C 0.76334 0.75863 0.01591 0.0
C1560 C 0.75958 0.75577 0.00732 0.0
C1561 C 0.75262 0.74872 0.00705 0.0
C1562 C 0.7371 0.72819 0.95211 0.0
C1563 C 0.73199 0.72045 0.9574 0.0
O1564 O 0.79018 0.77971 0.04668 0.0
O1565 O 0.7283 0.71768 0.04579 0.0
O1566 O 0.72739 0.7241 0.9649 0.0
O1567 O 0.78566 0.78545 0.96853 0.0
H1568 H 0.79141 0.79286 0.04147 0.0
H1569 H 0.8027 0.78305 0.03348 0.0
H1570 H 0.80842 0.78058 0.04427 0.0
H1571 H 0.80857 0.79219 0.0396 0.0
H1572 H 0.77584 0.7876 0.03887 0.0
H1573 H 0.79255 0.7636 0.03951 0.0
H1574 H 0.76679 0.78578 0.01774 0.0
H1575 H 0.76277 0.78874 0.02908 0.0
H1576 H 0.75846 0.77844 0.02346 0.0
H1577 H 0.79117 0.75185 0.02842 0.0
H1578 H 0.78657 0.75543 0.01741 0.0
H1579 H 0.77924 0.74949 0.02553 0.0
H1580 H 0.79951 0.78301 0.97028 0.0
H1581 H 0.80338 0.79927 0.97477 0.0
H1582 H 0.7946 0.7943 0.98213 0.0
H1583 H 0.79141 0.80235 0.97317 0.0
H1584 H 0.79275 0.77078 0.97698 0.0
H1585 H 0.76977 0.78893 0.97566 0.0
H1586 H 0.78974 0.76218 0.99847 0.0
H1587 H 0.79325 0.75822 0.98727 0.0
H1588 H 0.78242 0.75428 0.99224 0.0
H1589 H 0.7577 0.78836 0.98658 0.0
H1590 H 0.76079 0.78375 0.99775 0.0
H1591 H 0.75468 0.77662 0.98966 0.0
H1592 H 0.73704 0.71528 0.95981 0.0
H1593 H 0.74435 0.7206 0.97184 0.0
H1594 H 0.71902 0.73492 0.97594 0.0
H1595 H 0.75818 0.73163 0.98651 0.0
H1596 H 0.75581 0.71989 0.98321 0.0
H1597 H 0.75308 0.72373 0.99469 0.0
H1598 H 0.71723 0.74554 0.98805 0.0
H1599 H 0.7276 0.74996 0.99355 0.0
H1600 H 0.72149 0.74027 0.99848 0.0
H1601 H 0.73497 0.72372 0.05669 0.0
H1602 H 0.74301 0.70879 0.0613 0.0
H1603 H 0.7462 0.71315 0.05018 0.0
H1604 H 0.73814 0.70348 0.0511 0.0
H1605 H 0.74105 0.71179 0.03455 0.0
H1606 H 0.72342 0.73419 0.0409 0.0
H1607 H 0.75573 0.72423 0.01859 0.0
H1608 H 0.74699 0.71735 0.01299 0.0
H1609 H 0.75267 0.71296 0.02313 0.0
H1610 H 0.72237 0.74734 0.03128 0.0
H1611 H 0.72581 0.74576 0.01942 0.0
H1612 H 0.73369 0.75106 0.02742 0.0
H1613 H 0.77889 0.77481 0.00799 0.0
H1614 H 0.7613 0.75986 0.98404 0.0
H1615 H 0.74945 0.7481 0.9836 0.0
H1616 H 0.73394 0.72905 0.00627 0.0
H1617 H 0.75103 0.7445 0.03031 0.0
H1618 H 0.76265 0.75653 0.03077 0.0
H1619 H 0.74088 0.72536 0.94613 0.0
H1620 H 0.74222 0.73168 0.95667 0.0
H1621 H 0.73213 0.73338 0.94958 0.0
C1622 C 0.21884 0.76914 0.9518 0.0
C1623 C 0.21744 0.77859 0.95622 0.0
C1624 C 0.22958 0.77923 0.9682 0.0
C1625 C 0.23807 0.78331 0.97059 0.0
C1626 C 0.24265 0.78088 0.97877 0.0
C1627 C 0.23865 0.77411 0.98468 0.0
C1628 C 0.23002 0.76998 0.98237 0.0
C1629 C 0.22555 0.77261 0.97418 0.0
C1630 C 0.25178 0.7855 0.98108 0.0
C1631 C 0.22558 0.76274 0.98853 0.0
C1632 C 0.23807 0.78059 0.05609 0.0
C1633 C 0.22935 0.78384 0.05113 0.0
C1634 C 0.23481 0.78465 0.03507 0.0
C1635 C 0.23268 0.7755 0.03258 0.0
C1636 C 0.23596 0.77183 0.0243 0.0
C1637 C 0.24172 0.77731 0.01849 0.0
C1638 C 0.24383 0.78654 0.02093 0.0
C1639 C 0.24023 0.79012 0.02913 0.0
C1640 C 0.23321 0.76207 0.02175 0.0
C1641 C 0.24996 0.79258 0.01492 0.0
C1642 C 0.28872 0.73959 0.03466 0.0
C1643 C 0.27973 0.73611 0.03326 0.0
C1644 C 0.27478 0.73837 0.02523 0.0
C1645 C 0.27888 0.74437 0.01858 0.0
C1646 C 0.288 0.74779 0.01997 0.0
C1647 C 0.29286 0.74522 0.02794 0.0
C1648 C 0.26521 0.73429 0.02382 0.0
C1649 C 0.29262 0.75418 0.01304 0.0
C1650 C 0.26948 0.72511 0.94977 0.0
C1651 C 0.27945 0.72693 0.95289 0.0
C1652 C 0.27843 0.72891 0.96949 0.0
C1653 C 0.2727 0.72494 0.97623 0.0
C1654 C 0.2702 0.7299 0.98409 0.0
C1655 C 0.27378 0.73896 0.98534 0.0
C1656 C 0.27989 0.74287 0.9787 0.0
C1657 C 0.28209 0.73782 0.97079 0.0
C1658 C 0.26371 0.72549 0.99104 0.0
C1659 C 0.28412 0.75236 0.97998 0.0
C1660 C 0.24352 0.77133 0.99326 0.0
C1661 C 0.24102 0.77553 0.00153 0.0
C1662 C 0.24541 0.77335 0.00984 0.0
C1663 C 0.25273 0.76701 0.00989 0.0
C1664 C 0.25766 0.76505 0.01802 0.0
C1665 C 0.26464 0.75858 0.01807 0.0
C1666 C 0.26687 0.75373 0.01003 0.0
C1667 C 0.27373 0.74691 0.01008 0.0
C1668 C 0.27582 0.7423 0.00193 0.0
C1669 C 0.27124 0.74426 0.99367 0.0
C1670 C 0.26433 0.75102 0.99349 0.0
C1671 C 0.25951 0.75313 0.98533 0.0
C1672 C 0.25276 0.75983 0.98521 0.0
C1673 C 0.25045 0.76458 0.99328 0.0
C1674 C 0.25512 0.76248 0.00162 0.0
C1675 C 0.26213 0.75576 0.00171 0.0
C1676 C 0.29415 0.7477 0.0549 0.0
C1677 C 0.29065 0.73837 0.05129 0.0
O1678 O 0.22565 0.78185 0.96007 0.0
O1679 O 0.2805 0.7239 0.96193 0.0
O1680 O 0.29366 0.73734 0.04228 0.0
O1681 O 0.23176 0.78848 0.04304 0.0
H1682 H 0.21205 0.77796 0.96166 0.0
H1683 H 0.22092 0.764 0.95707 0.0
H1684 H 0.22432 0.76956 0.94644 0.0
H1685 H 0.2123 0.76663 0.94857 0.0
H1686 H 0.24112 0.78843 0.96598 0.0
H1687 H 0.21896 0.7694 0.97251 0.0
H1688 H 0.25147 0.78855 0.98809 0.0
H1689 H 0.2537 0.79101 0.97604 0.0
H1690 H 0.2573 0.7803 0.98117 0.0
H1691 H 0.21907 0.75986 0.98555 0.0
H1692 H 0.22402 0.76579 0.99535 0.0
H1693 H 0.23044 0.75703 0.98972 0.0
H1694 H 0.22487 0.77776 0.04956 0.0
H1695 H 0.23622 0.77693 0.06261 0.0
H1696 H 0.24271 0.78656 0.05772 0.0
H1697 H 0.24188 0.77575 0.05165 0.0
H1698 H 0.22835 0.77117 0.03692 0.0
H1699 H 0.2418 0.79718 0.03105 0.0
H1700 H 0.23084 0.76178 0.01446 0.0
H1701 H 0.22762 0.75923 0.02625 0.0
H1702 H 0.23929 0.75758 0.02243 0.0
H1703 H 0.25169 0.79928 0.01822 0.0
H1704 H 0.24641 0.79395 0.00826 0.0
H1705 H 0.25647 0.78899 0.01334 0.0
H1706 H 0.28296 0.7383 0.05159 0.0
H1707 H 0.27666 0.73148 0.03834 0.0
H1708 H 0.29987 0.74775 0.02906 0.0
H1709 H 0.26004 0.73982 0.02423 0.0
H1710 H 0.26345 0.72894 0.02908 0.0
H1711 H 0.26464 0.73118 0.01685 0.0
H1712 H 0.29933 0.757 0.0156 0.0
H1713 H 0.28803 0.76 0.01137 0.0
H1714 H 0.29387 0.75038 0.00655 0.0
H1715 H 0.2809 0.73448 0.95238 0.0
H1716 H 0.26848 0.72755 0.94256 0.0
H1717 H 0.26465 0.72888 0.95428 0.0
H1718 H 0.26773 0.71763 0.95018 0.0
H1719 H 0.27002 0.71799 0.9752 0.0
H1720 H 0.28681 0.74075 0.96573 0.0
H1721 H 0.25788 0.73014 0.99246 0.0
H1722 H 0.26744 0.72436 0.99764 0.0
H1723 H 0.26086 0.71875 0.98863 0.0
H1724 H 0.28944 0.75404 0.97468 0.0
H1725 H 0.28733 0.75291 0.98692 0.0
H1726 H 0.27864 0.75759 0.97954 0.0
H1727 H 0.23547 0.78045 0.00151 0.0
H1728 H 0.25618 0.76851 0.02443 0.0
H1729 H 0.2682 0.75736 0.02453 0.0
H1730 H 0.28108 0.73707 0.00203 0.0
H1731 H 0.26092 0.74963 0.97892 0.0
H1732 H 0.2493 0.76117 0.97872 0.0
H1733 H 0.30182 0.74804 0.05485 0.0
H1734 H 0.29166 0.74882 0.06205 0.0
H1735 H 0.29151 0.75333 0.05045 0.0
C1736 C 0.0387 0.30772 0.27742 0.0
C1737 C 0.04192 0.29864 0.28166 0.0
C1738 C 0.03632 0.2866 0.27165 0.0
C1739 C 0.03275 0.27954 0.27729 0.0
C1740 C 0.0253 0.27397 0.27431 0.0
C1741 C 0.02126 0.27565 0.26556 0.0
C1742 C 0.02501 0.2827 0.25978 0.0
C1743 C 0.03262 0.28799 0.26286 0.0
C1744 C 0.02163 0.26644 0.28061 0.0
C1745 C 0.02081 0.28482 0.25048 0.0
C1746 C 0.95494 0.26705 0.28938 0.0
C1747 C 0.95916 0.27683 0.28981 0.0
C1748 C 0.97093 0.27681 0.27752 0.0
C1749 C 0.97327 0.28025 0.26878 0.0
C1750 C 0.98149 0.27774 0.2644 0.0
C1751 C 0.98747 0.27151 0.26883 0.0
C1752 C 0.98519 0.26801 0.2777 0.0
C1753 C 0.97701 0.27076 0.28199 0.0
C1754 C 0.98376 0.28169 0.25499 0.0
C1755 C 0.9914 0.26133 0.28263 0.0
C1756 C 0.97114 0.22608 0.22963 0.0
C1757 C 0.97409 0.23447 0.22566 0.0
C1758 C 0.98243 0.23872 0.22841 0.0
C1759 C 0.98788 0.23453 0.23534 0.0
C1760 C 0.98503 0.22593 0.23915 0.0
C1761 C 0.97673 0.22175 0.23614 0.0
C1762 C 0.98542 0.24772 0.22394 0.0
C1763 C 0.99068 0.22122 0.24649 0.0
C1764 C 0.05905 0.22721 0.23268 0.0
C1765 C 0.05282 0.22072 0.22701 0.0
C1766 C 0.03818 0.22915 0.22661 0.0
C1767 C 0.03284 0.23512 0.2213 0.0
C1768 C 0.02481 0.23902 0.22487 0.0
C1769 C 0.02195 0.23676 0.23395 0.0
C1770 C 0.02725 0.23064 0.23935 0.0
C1771 C 0.03536 0.22699 0.23567 0.0
C1772 C 0.01936 0.24556 0.21892 0.0
C1773 C 0.0243 0.22789 0.24899 0.0
C1774 C 0.01279 0.27044 0.26271 0.0
C1775 C 0.00436 0.27312 0.26647 0.0
C1776 C 0.99608 0.26855 0.26421 0.0
C1777 C 0.99613 0.26117 0.25789 0.0
C1778 C 0.98793 0.25645 0.25542 0.0
C1779 C 0.98802 0.24925 0.24912 0.0
C1780 C 0.99634 0.24644 0.24511 0.0
C1781 C 0.99649 0.23919 0.23864 0.0
C1782 C 0.00492 0.2363 0.23509 0.0
C1783 C 0.01326 0.24054 0.23772 0.0
C1784 C 0.01323 0.24803 0.24393 0.0
C1785 C 0.02146 0.25265 0.24652 0.0
C1786 C 0.02134 0.25995 0.2527 0.0
C1787 C 0.01299 0.26298 0.25648 0.0
C1788 C 0.00462 0.25839 0.254 0.0
C1789 C 0.00473 0.25095 0.24767 0.0
C1790 C 0.9502 0.22617 0.23644 0.0
C1791 C 0.95456 0.22626 0.22682 0.0
O1792 O 0.0432 0.29226 0.27472 0.0
O1793 O 0.04592 0.22568 0.22269 0.0
O1794 O 0.96302 0.22193 0.22719 0.0
O1795 O 0.96277 0.27943 0.2813 0.0
H1796 H 0.03646 0.29609 0.28652 0.0
H1797 H 0.03202 0.3066 0.27376 0.0
H1798 H 0.04388 0.31047 0.2724 0.0
H1799 H 0.03764 0.31292 0.2829 0.0
H1800 H 0.03576 0.27847 0.28406 0.0
H1801 H 0.0355 0.29347 0.25856 0.0
H1802 H 0.015 0.26864 0.28364 0.0
H1803 H 0.02649 0.26494 0.28634 0.0
H1804 H 0.02027 0.26001 0.27669 0.0
H1805 H 0.02406 0.291 0.24717 0.0
H1806 H 0.01328 0.28598 0.25122 0.0
H1807 H 0.02165 0.27885 0.24583 0.0
H1808 H 0.96476 0.27696 0.29509 0.0
H1809 H 0.95179 0.26513 0.29614 0.0
H1810 H 0.9603 0.26194 0.2878 0.0
H1811 H 0.94954 0.26658 0.28394 0.0
H1812 H 0.96859 0.28494 0.26538 0.0
H1813 H 0.97543 0.26806 0.28878 0.0
H1814 H 0.98377 0.27607 0.24984 0.0
H1815 H 0.99079 0.2849 0.25506 0.0
H1816 H 0.97873 0.28694 0.25274 0.0
H1817 H 0.98831 0.25869 0.28917 0.0
H1818 H 0.99809 0.26482 0.28424 0.0
H1819 H 0.99286 0.2554 0.27809 0.0
H1820 H 0.95548 0.23357 0.22461 0.0
H1821 H 0.96996 0.23764 0.22032 0.0
H1822 H 0.97445 0.2152 0.23905 0.0
H1823 H 0.98514 0.25333 0.22909 0.0
H1824 H 0.98096 0.24957 0.21799 0.0
H1825 H 0.99268 0.24731 0.22152 0.0
H1826 H 0.9872 0.21487 0.24921 0.0
H1827 H 0.99202 0.22601 0.25231 0.0
H1828 H 0.99748 0.21934 0.24359 0.0
H1829 H 0.04967 0.21537 0.23161 0.0
H1830 H 0.06458 0.22328 0.23617 0.0
H1831 H 0.05497 0.23068 0.23808 0.0
H1832 H 0.06228 0.23258 0.22816 0.0
H1833 H 0.03504 0.23676 0.21432 0.0
H1834 H 0.03937 0.22241 0.23993 0.0
H1835 H 0.01801 0.25199 0.22277 0.0
H1836 H 0.01257 0.24233 0.21719 0.0
H1837 H 0.023 0.24736 0.21239 0.0
H1838 H 0.02864 0.22236 0.25194 0.0
H1839 H 0.01697 0.22545 0.24897 0.0
H1840 H 0.02479 0.23397 0.25358 0.0
H1841 H 0.00425 0.2788 0.2713 0.0
H1842 H 0.98132 0.25829 0.25829 0.0
H1843 H 0.98149 0.2459 0.24747 0.0
H1844 H 0.00498 0.23064 0.23023 0.0
H1845 H 0.02808 0.25066 0.24378 0.0
H1846 H 0.02789 0.26322 0.25447 0.0
H1847 H 0.9434 0.22961 0.23627 0.0
H1848 H 0.95476 0.22996 0.24135 0.0
H1849 H 0.9492 0.21899 0.23901 0.0
C1850 C 0.71773 0.03415 0.2995 0.0
C1851 C 0.72394 0.04219 0.2962 0.0
C1852 C 0.73026 0.03523 0.28231 0.0
C1853 C 0.73859 0.03194 0.28594 0.0
C1854 C 0.74326 0.02476 0.28163 0.0
C1855 C 0.73951 0.02075 0.27354 0.0
C1856 C 0.73135 0.02433 0.26963 0.0
C1857 C 0.7269 0.03163 0.27401 0.0
C1858 C 0.75208 0.02128 0.28587 0.0
C1859 C 0.72713 0.02019 0.26104 0.0
C1860 C 0.72577 0.97078 0.30751 0.0
C1861 C 0.72401 0.96637 0.29809 0.0
C1862 C 0.73554 0.97243 0.2875 0.0
C1863 C 0.73023 0.97548 0.28003 0.0
C1864 C 0.73339 0.98278 0.27439 0.0
C1865 C 0.74202 0.98711 0.27633 0.0
C1866 C 0.74754 0.98379 0.28367 0.0
C1867 C 0.74427 0.97636 0.28908 0.0
C1868 C 0.72742 0.98601 0.2665 0.0
C1869 C 0.75673 0.98829 0.286 0.0
C1870 C 0.78291 0.97077 0.2317 0.0
C1871 C 0.77382 0.97295 0.22919 0.0
C1872 C 0.76977 0.98109 0.23228 0.0
C1873 C 0.77483 0.98707 0.23821 0.0
C1874 C 0.78402 0.98492 0.24067 0.0
C1875 C 0.78798 0.97687 0.23724 0.0
C1876 C 0.76011 0.98334 0.22916 0.0
C1877 C 0.78965 0.99109 0.24695 0.0
C1878 C 0.77425 0.05876 0.23094 0.0
C1879 C 0.78336 0.05415 0.22853 0.0
C1880 C 0.77899 0.03781 0.22797 0.0
C1881 C 0.77224 0.03236 0.22363 0.0
C1882 C 0.76909 0.02402 0.2276 0.0
C1883 C 0.77297 0.02099 0.23603 0.0
C1884 C 0.7801 0.02628 0.24026 0.0
C1885 C 0.78302 0.03465 0.2362 0.0
C1886 C 0.76153 0.01852 0.22287 0.0
C1887 C 0.78462 0.02309 0.24909 0.0
C1888 C 0.74362 0.01224 0.26977 0.0
C1889 C 0.74114 0.00389 0.27403 0.0
C1890 C 0.74489 0.99558 0.2712 0.0
C1891 C 0.75126 0.99551 0.26381 0.0
C1892 C 0.75514 0.98727 0.26076 0.0
C1893 C 0.76151 0.98729 0.25357 0.0
C1894 C 0.76415 0.99554 0.24907 0.0
C1895 C 0.77058 0.99563 0.2417 0.0
C1896 C 0.77318 0.00401 0.23753 0.0
C1897 C 0.76955 0.01234 0.24049 0.0
C1898 C 0.76299 0.01237 0.24773 0.0
C1899 C 0.7591 0.02062 0.25079 0.0
C1900 C 0.75276 0.0206 0.25801 0.0
C1901 C 0.75002 0.01234 0.26241 0.0
C1902 C 0.75384 0.00393 0.25941 0.0
C1903 C 0.76031 0.00394 0.25204 0.0
C1904 C 0.7805 0.95016 0.23712 0.0
C1905 C 0.78285 0.95438 0.22766 0.0
O1906 O 0.72522 0.04171 0.28671 0.0
O1907 O 0.78155 0.04595 0.22395 0.0
O1908 O 0.78707 0.96297 0.22881 0.0
O1909 O 0.73229 0.9658 0.29335 0.0
H1910 H 0.73069 0.04174 0.2998 0.0
H1911 H 0.72108 0.02749 0.29808 0.0
H1912 H 0.71095 0.03423 0.29587 0.0
H1913 H 0.71654 0.03459 0.30706 0.0
H1914 H 0.7415 0.03492 0.29214 0.0
H1915 H 0.72053 0.03428 0.27119 0.0
H1916 H 0.75079 0.01431 0.28885 0.0
H1917 H 0.75473 0.02586 0.29142 0.0
H1918 H 0.75749 0.02067 0.28049 0.0
H1919 H 0.72079 0.0238 0.25882 0.0
H1920 H 0.72537 0.01281 0.2623 0.0
H1921 H 0.73223 0.02052 0.25532 0.0
H1922 H 0.71911 0.97084 0.29428 0.0
H1923 H 0.7192 0.97124 0.31143 0.0
H1924 H 0.72868 0.97786 0.30656 0.0
H1925 H 0.73077 0.9667 0.3116 0.0
H1926 H 0.72358 0.9722 0.27866 0.0
H1927 H 0.74834 0.97385 0.29482 0.0
H1928 H 0.7247 0.99291 0.26812 0.0
H1929 H 0.72148 0.98122 0.2652 0.0
H1930 H 0.7316 0.9867 0.2601 0.0
H1931 H 0.76002 0.98509 0.29213 0.0
H1932 H 0.75579 0.99574 0.28736 0.0
H1933 H 0.76149 0.98775 0.28004 0.0
H1934 H 0.77637 0.95504 0.22361 0.0
H1935 H 0.7699 0.96846 0.22465 0.0
H1936 H 0.79502 0.97519 0.23906 0.0
H1937 H 0.75529 0.98262 0.23508 0.0
H1938 H 0.75762 0.97872 0.22357 0.0
H1939 H 0.75985 0.99059 0.22667 0.0
H1940 H 0.79623 0.98789 0.24912 0.0
H1941 H 0.78561 0.99277 0.25321 0.0
H1942 H 0.79132 0.99767 0.24331 0.0
H1943 H 0.78714 0.05287 0.23507 0.0
H1944 H 0.77561 0.0654 0.23451 0.0
H1945 H 0.77012 0.05421 0.23563 0.0
H1946 H 0.77013 0.06007 0.2246 0.0
H1947 H 0.76927 0.03478 0.2172 0.0
H1948 H 0.78857 0.03857 0.23941 0.0
H1949 H 0.75566 0.01733 0.22769 0.0
H1950 H 0.76417 0.01167 0.22092 0.0
H1951 H 0.75894 0.02202 0.21656 0.0
H1952 H 0.79058 0.02759 0.2511 0.0
H1953 H 0.78705 0.01593 0.24832 0.0
H1954 H 0.77948 0.02307 0.25477 0.0
H1955 H 0.73629 0.00388 0.27974 0.0
H1956 H 0.75332 0.9807 0.26393 0.0
H1957 H 0.76434 0.98075 0.25159 0.0
H1958 H 0.77817 0.00405 0.23195 0.0
H1959 H 0.76091 0.02719 0.24764 0.0
H1960 H 0.75002 0.02715 0.26011 0.0
H1961 H 0.77711 0.94327 0.23632 0.0
H1962 H 0.77566 0.95464 0.24087 0.0
H1963 H 0.78688 0.94941 0.24133 0.0
C1964 C 0.0422 0.70398 0.28561 0.0
C1965 C 0.04928 0.71169 0.28336 0.0
C1966 C 0.03882 0.7247 0.28103 0.0
C1967 C 0.03536 0.72188 0.27239 0.0
C1968 C 0.02784 0.72631 0.26828 0.0
C1969 C 0.02369 0.73374 0.27286 0.0
C1970 C 0.02736 0.73683 0.28138 0.0
C1971 C 0.03491 0.73228 0.28533 0.0
C1972 C 0.02417 0.7229 0.25914 0.0
C1973 C 0.02315 0.74478 0.2864 0.0
C1974 C 0.95275 0.72405 0.26929 0.0
C1975 C 0.95627 0.7233 0.27924 0.0
C1976 C 0.97292 0.72345 0.27691 0.0
C1977 C 0.97557 0.73206 0.28048 0.0
C1978 C 0.98391 0.73638 0.27779 0.0
C1979 C 0.98964 0.73205 0.27126 0.0
C1980 C 0.98707 0.72326 0.26781 0.0
C1981 C 0.97879 0.71901 0.27081 0.0
C1982 C 0.98661 0.74556 0.28193 0.0
C1983 C 0.99301 0.71838 0.26091 0.0
C1984 C 0.97328 0.77751 0.23124 0.0
C1985 C 0.97611 0.7794 0.24034 0.0
C1986 C 0.98436 0.77585 0.24389 0.0
C1987 C 0.98978 0.77005 0.23833 0.0
C1988 C 0.98696 0.76814 0.22917 0.0
C1989 C 0.97881 0.772 0.22572 0.0
C1990 C 0.98729 0.77832 0.25358 0.0
C1991 C 0.99252 0.76198 0.22304 0.0
C1992 C 0.06171 0.78177 0.2395 0.0
C1993 C 0.05674 0.78125 0.23019 0.0
C1994 C 0.04029 0.78075 0.23372 0.0
C1995 C 0.0348 0.78482 0.24041 0.0
C1996 C 0.02668 0.78042 0.24362 0.0
C1997 C 0.02389 0.77184 0.23981 0.0
C1998 C 0.02926 0.76785 0.23278 0.0
C1999 C 0.03744 0.77233 0.22984 0.0
C2000 C 0.02112 0.78491 0.25108 0.0
C2001 C 0.02632 0.75889 0.22832 0.0
C2002 C 0.01511 0.73777 0.26905 0.0
C2003 C 0.00668 0.73375 0.27177 0.0
C2004 C 0.99831 0.7367 0.26805 0.0
C2005 C 0.99831 0.74389 0.2614 0.0
C2006 C 0.99005 0.74682 0.25728 0.0
C2007 C 0.99009 0.75403 0.2509 0.0
C2008 C 0.99838 0.75859 0.24838 0.0
C2009 C 0.99844 0.7661 0.24209 0.0
C2010 C 0.00686 0.77022 0.23947 0.0
C2011 C 0.01525 0.76716 0.24304 0.0
C2012 C 0.01529 0.75984 0.24955 0.0
C2013 C 0.02358 0.75673 0.25349 0.0
C2014 C 0.02355 0.7495 0.25986 0.0
C2015 C 0.01522 0.74514 0.26259 0.0
C2016 C 0.00678 0.74819 0.25875 0.0
C2017 C 0.00682 0.75554 0.25221 0.0
C2018 C 0.9525 0.77692 0.23728 0.0
C2019 C 0.95794 0.78456 0.23217 0.0
O2020 O 0.04575 0.72024 0.28552 0.0
O2021 O 0.04813 0.78523 0.23095 0.0
O2022 O 0.96534 0.78082 0.2275 0.0
O2023 O 0.96484 0.71918 0.27933 0.0
H2024 H 0.05097 0.71151 0.27588 0.0
H2025 H 0.03586 0.70473 0.28138 0.0
H2026 H 0.04021 0.70418 0.29301 0.0
H2027 H 0.04513 0.69714 0.28409 0.0
H2028 H 0.03836 0.71614 0.26884 0.0
H2029 H 0.03764 0.73449 0.29194 0.0
H2030 H 0.01697 0.72027 0.26001 0.0
H2031 H 0.0284 0.7173 0.25625 0.0
H2032 H 0.02401 0.72868 0.25408 0.0
H2033 H 0.0271 0.74669 0.29271 0.0
H2034 H 0.01594 0.74293 0.28841 0.0
H2035 H 0.02285 0.75089 0.28175 0.0
H2036 H 0.95682 0.73036 0.28216 0.0
H2037 H 0.94587 0.72732 0.26911 0.0
H2038 H 0.95218 0.71711 0.26611 0.0
H2039 H 0.95761 0.72838 0.26511 0.0
H2040 H 0.97122 0.73535 0.28551 0.0
H2041 H 0.97674 0.71229 0.2682 0.0
H2042 H 0.99389 0.74548 0.28437 0.0
H2043 H 0.98209 0.74739 0.28781 0.0
H2044 H 0.9861 0.75104 0.27658 0.0
H2045 H 0.98951 0.71213 0.25807 0.0
H2046 H 0.99953 0.71628 0.26429 0.0
H2047 H 0.99486 0.7231 0.2551 0.0
H2048 H 0.96051 0.78975 0.23721 0.0
H2049 H 0.97201 0.78369 0.24473 0.0
H2050 H 0.97661 0.77059 0.21871 0.0
H2051 H 0.98642 0.7722 0.25815 0.0
H2052 H 0.98314 0.78399 0.25646 0.0
H2053 H 0.9947 0.78045 0.25373 0.0
H2054 H 0.98887 0.76035 0.21648 0.0
H2055 H 0.99405 0.75544 0.22671 0.0
H2056 H 0.99922 0.76544 0.22136 0.0
H2057 H 0.056 0.77386 0.2283 0.0
H2058 H 0.06862 0.77859 0.23904 0.0
H2059 H 0.05762 0.77796 0.24483 0.0
H2060 H 0.06259 0.78905 0.24172 0.0
H2061 H 0.037 0.7914 0.24326 0.0
H2062 H 0.04148 0.76936 0.22437 0.0
H2063 H 0.01979 0.77994 0.25682 0.0
H2064 H 0.01431 0.78692 0.24825 0.0
H2065 H 0.02465 0.79114 0.2539 0.0
H2066 H 0.03082 0.7571 0.22242 0.0
H2067 H 0.01907 0.75932 0.22583 0.0
H2068 H 0.02656 0.75323 0.2335 0.0
H2069 H 0.00663 0.72816 0.27678 0.0
H2070 H 0.98345 0.7436 0.25896 0.0
H2071 H 0.98352 0.75601 0.24798 0.0
H2072 H 0.00687 0.77595 0.23461 0.0
H2073 H 0.03019 0.75987 0.25169 0.0
H2074 H 0.03012 0.74738 0.26265 0.0
H2075 H 0.94657 0.77985 0.24105 0.0
H2076 H 0.95699 0.77346 0.24241 0.0
H2077 H 0.94986 0.77167 0.23233 0.0
C2078 C 0.28931 0.95345 0.26919 0.0
C2079 C 0.28969 0.95783 0.2788 0.0
C2080 C 0.27695 0.96888 0.27837 0.0
C2081 C 0.26816 0.97078 0.28177 0.0
C2082 C 0.2635 0.97877 0.27906 0.0
C2083 C 0.26772 0.98496 0.27269 0.0
C2084 C 0.2766 0.98308 0.26918 0.0
C2085 C 0.28115 0.97512 0.2721 0.0
C2086 C 0.25408 0.9806 0.28301 0.0
C2087 C 0.2813 0.98952 0.26236 0.0
C2088 C 0.28071 0.03547 0.30667 0.0
C2089 C 0.28202 0.04076 0.29757 0.0
C2090 C 0.27066 0.03367 0.28746 0.0
C2091 C 0.27591 0.03046 0.28008 0.0
C2092 C 0.27281 0.02291 0.27483 0.0
C2093 C 0.26433 0.01842 0.27712 0.0
C2094 C 0.25894 0.02178 0.28448 0.0
C2095 C 0.26212 0.02949 0.28946 0.0
C2096 C 0.27866 0.01967 0.26693 0.0
C2097 C 0.24992 0.01713 0.28718 0.0
C2098 C 0.22425 0.03618 0.23147 0.0
C2099 C 0.23354 0.03409 0.22973 0.0
C2100 C 0.23738 0.02592 0.23313 0.0
C2101 C 0.23193 0.01985 0.23867 0.0
C2102 C 0.2226 0.02197 0.24049 0.0
C2103 C 0.21886 0.03004 0.23675 0.0
C2104 C 0.24724 0.02374 0.23071 0.0
C2105 C 0.21657 0.01571 0.24638 0.0
C2106 C 0.23738 0.95706 0.20994 0.0
C2107 C 0.22984 0.956 0.21731 0.0
C2108 C 0.22874 0.97118 0.22402 0.0
C2109 C 0.23548 0.97737 0.22066 0.0
C2110 C 0.23859 0.98482 0.22602 0.0
C2111 C 0.23462 0.98628 0.2348 0.0
C2112 C 0.22766 0.98013 0.23813 0.0
C2113 C 0.22483 0.97261 0.23269 0.0
C2114 C 0.24599 0.99125 0.2222 0.0
C2115 C 0.22307 0.98162 0.24733 0.0
C2116 C 0.26296 0.99352 0.26984 0.0
C2117 C 0.26521 0.00165 0.27452 0.0
C2118 C 0.26129 0.01004 0.27202 0.0
C2119 C 0.25484 0.01036 0.26467 0.0
C2120 C 0.25077 0.01867 0.26195 0.0
C2121 C 0.24446 0.01892 0.2547 0.0
C2122 C 0.24209 0.0109 0.24978 0.0
C2123 C 0.23588 0.01113 0.24223 0.0
C2124 C 0.23354 0.00298 0.23763 0.0
C2125 C 0.23735 0.99457 0.24021 0.0
C2126 C 0.24374 0.99423 0.2476 0.0
C2127 C 0.24794 0.98595 0.25021 0.0
C2128 C 0.25422 0.98569 0.2575 0.0
C2129 C 0.25656 0.99371 0.26245 0.0
C2130 C 0.25246 0.00215 0.25989 0.0
C2131 C 0.24607 0.00242 0.25244 0.0
C2132 C 0.2287 0.05733 0.23305 0.0
C2133 C 0.22456 0.05191 0.22493 0.0
O2134 O 0.28105 0.96098 0.28128 0.0
O2135 O 0.22543 0.96428 0.21863 0.0
O2136 O 0.22019 0.04393 0.22818 0.0
O2137 O 0.27373 0.04077 0.29275 0.0
H2138 H 0.29476 0.96369 0.27871 0.0
H2139 H 0.28737 0.9586 0.26387 0.0
H2140 H 0.28413 0.9477 0.269 0.0
H2141 H 0.29619 0.95075 0.26733 0.0
H2142 H 0.26496 0.96597 0.2866 0.0
H2143 H 0.28796 0.97385 0.2694 0.0
H2144 H 0.25411 0.98747 0.28635 0.0
H2145 H 0.25189 0.9753 0.28817 0.0
H2146 H 0.2489 0.98074 0.27736 0.0
H2147 H 0.2878 0.98666 0.2596 0.0
H2148 H 0.28296 0.99616 0.26578 0.0
H2149 H 0.27659 0.99099 0.25649 0.0
H2150 H 0.28742 0.03726 0.29348 0.0
H2151 H 0.2873 0.03533 0.31061 0.0
H2152 H 0.2785 0.02824 0.30527 0.0
H2153 H 0.27534 0.03874 0.31097 0.0
H2154 H 0.28242 0.03389 0.2784 0.0
H2155 H 0.25809 0.0321 0.29514 0.0
H2156 H 0.28175 0.01298 0.26882 0.0
H2157 H 0.28434 0.02464 0.26522 0.0
H2158 H 0.27434 0.01855 0.26068 0.0
H2159 H 0.24687 0.02021 0.29344 0.0
H2160 H 0.251 0.00968 0.28848 0.0
H2161 H 0.24489 0.01771 0.28142 0.0
H2162 H 0.23014 0.05013 0.22004 0.0
H2163 H 0.23784 0.03868 0.22563 0.0
H2164 H 0.21171 0.03167 0.23805 0.0
H2165 H 0.25166 0.02449 0.23693 0.0
H2166 H 0.25006 0.0284 0.22524 0.0
H2167 H 0.24772 0.01651 0.22832 0.0
H2168 H 0.20989 0.0189 0.24814 0.0
H2169 H 0.22022 0.01389 0.25287 0.0
H2170 H 0.21509 0.00921 0.24261 0.0
H2171 H 0.23309 0.95378 0.22392 0.0
H2172 H 0.24025 0.95024 0.20816 0.0
H2173 H 0.24321 0.96137 0.21258 0.0
H2174 H 0.23456 0.96028 0.20358 0.0
H2175 H 0.23818 0.97648 0.21377 0.0
H2176 H 0.21945 0.96788 0.23511 0.0
H2177 H 0.25146 0.9925 0.22745 0.0
H2178 H 0.24291 0.998 0.22049 0.0
H2179 H 0.24922 0.9885 0.21587 0.0
H2180 H 0.21735 0.97656 0.24865 0.0
H2181 H 0.22027 0.98868 0.24762 0.0
H2182 H 0.22825 0.981 0.25294 0.0
H2183 H 0.27018 0.00147 0.28013 0.0
H2184 H 0.25241 0.02509 0.26541 0.0
H2185 H 0.2415 0.0255 0.25296 0.0
H2186 H 0.22878 0.0032 0.23184 0.0
H2187 H 0.24642 0.97957 0.24664 0.0
H2188 H 0.25724 0.97912 0.25919 0.0
H2189 H 0.23231 0.06369 0.23055 0.0
H2190 H 0.23382 0.05309 0.23679 0.0
H2191 H 0.22318 0.05926 0.23796 0.0
C2192 C 0.95625 0.76973 0.78879 0.0
C2193 C 0.96105 0.77911 0.79041 0.0
C2194 C 0.973 0.77959 0.77827 0.0
C2195 C 0.9755 0.78353 0.76978 0.0
C2196 C 0.98355 0.78089 0.76516 0.0
C2197 C 0.98923 0.7741 0.76914 0.0
C2198 C 0.9868 0.77012 0.77776 0.0
C2199 C 0.97873 0.77291 0.78225 0.0
C2200 C 0.98597 0.78532 0.75601 0.0
C2201 C 0.99272 0.76287 0.7822 0.0
C2202 C 0.05987 0.7924 0.75996 0.0
C2203 C 0.05604 0.78988 0.76951 0.0
C2204 C 0.03931 0.78855 0.76868 0.0
C2205 C 0.03751 0.77997 0.77288 0.0
C2206 C 0.0293 0.77502 0.77097 0.0
C2207 C 0.02286 0.7787 0.76463 0.0
C2208 C 0.02459 0.78746 0.76058 0.0
C2209 C 0.03276 0.79234 0.76278 0.0
C2210 C 0.02752 0.76587 0.77571 0.0
C2211 C 0.01787 0.79164 0.75384 0.0
C2212 C 0.03869 0.73424 0.72291 0.0
C2213 C 0.03699 0.73204 0.73219 0.0
C2214 C 0.02905 0.73522 0.73666 0.0
C2215 C 0.02283 0.74091 0.73178 0.0
C2216 C 0.02459 0.74314 0.7224 0.0
C2217 C 0.03242 0.73962 0.71804 0.0
C2218 C 0.02726 0.73236 0.74654 0.0
C2219 C 0.01819 0.74921 0.71694 0.0
C2220 C 0.95207 0.73908 0.72136 0.0
C2221 C 0.95816 0.73199 0.71662 0.0
C2222 C 0.97214 0.73176 0.72632 0.0
C2223 C 0.97695 0.72678 0.73301 0.0
C2224 C 0.98523 0.73024 0.73685 0.0
C2225 C 0.98882 0.73887 0.73382 0.0
C2226 C 0.98406 0.74391 0.72697 0.0
C2227 C 0.97575 0.74035 0.72335 0.0
C2228 C 0.99011 0.72472 0.74417 0.0
C2229 C 0.98776 0.75309 0.72346 0.0
C2230 C 0.99775 0.77117 0.76433 0.0
C2231 C 0.00606 0.77575 0.76645 0.0
C2232 C 0.01434 0.77337 0.76219 0.0
C2233 C 0.01439 0.76615 0.75566 0.0
C2234 C 0.02257 0.76362 0.75118 0.0
C2235 C 0.02257 0.75642 0.74486 0.0
C2236 C 0.01437 0.75153 0.74272 0.0
C2237 C 0.01429 0.74418 0.73633 0.0
C2238 C 0.00588 0.73992 0.73392 0.0
C2239 C 0.99755 0.74272 0.73775 0.0
C2240 C 0.99757 0.74965 0.74455 0.0
C2241 C 0.98936 0.75228 0.7489 0.0
C2242 C 0.98941 0.75926 0.75544 0.0
C2243 C 0.99765 0.76396 0.7578 0.0
C2244 C 0.00602 0.76141 0.7535 0.0
C2245 C 0.006 0.75415 0.74696 0.0
C2246 C 0.05835 0.74229 0.7182 0.0
C2247 C 0.05525 0.73255 0.72119 0.0
O2248 O 0.96501 0.7824 0.78228 0.0
O2249 O 0.9641 0.72804 0.72297 0.0
O2250 O 0.04617 0.73102 0.71843 0.0
O2251 O 0.04724 0.79338 0.77037 0.0
H2252 H 0.9665 0.77833 0.79576 0.0
H2253 H 0.96131 0.76454 0.7866 0.0
H2254 H 0.95088 0.77028 0.78334 0.0
H2255 H 0.95294 0.7672 0.79527 0.0
H2256 H 0.97108 0.78868 0.76675 0.0
H2257 H 0.97699 0.76978 0.78882 0.0
H2258 H 0.99296 0.78859 0.7564 0.0
H2259 H 0.98093 0.79062 0.75391 0.0
H2260 H 0.98618 0.77996 0.75058 0.0
H2261 H 0.98981 0.7603 0.78885 0.0
H2262 H 0.99976 0.76576 0.78347 0.0
H2263 H 0.99342 0.75695 0.77745 0.0
H2264 H 0.05585 0.78222 0.77009 0.0
H2265 H 0.0669 0.7896 0.75909 0.0
H2266 H 0.0602 0.8 0.75901 0.0
H2267 H 0.05531 0.7894 0.75453 0.0
H2268 H 0.04246 0.7772 0.77772 0.0
H2269 H 0.03418 0.79905 0.7597 0.0
H2270 H 0.02048 0.76564 0.77874 0.0
H2271 H 0.03264 0.7645 0.78125 0.0
H2272 H 0.02787 0.76025 0.77056 0.0
H2273 H 0.02062 0.79812 0.75067 0.0
H2274 H 0.01133 0.79317 0.75747 0.0
H2275 H 0.01619 0.78666 0.74827 0.0
H2276 H 0.05581 0.73203 0.72883 0.0
H2277 H 0.04174 0.72765 0.73587 0.0
H2278 H 0.03377 0.74119 0.71084 0.0
H2279 H 0.02819 0.73842 0.7511 0.0
H2280 H 0.03202 0.72691 0.74891 0.0
H2281 H 0.02003 0.72978 0.74735 0.0
H2282 H 0.02134 0.75157 0.71032 0.0
H2283 H 0.01631 0.75534 0.72102 0.0
H2284 H 0.01173 0.74529 0.71535 0.0
H2285 H 0.96222 0.73548 0.71106 0.0
H2286 H 0.94722 0.74214 0.71629 0.0
H2287 H 0.95638 0.74474 0.7243 0.0
H2288 H 0.94802 0.7358 0.72705 0.0
H2289 H 0.97414 0.72017 0.73529 0.0
H2290 H 0.97217 0.74439 0.71823 0.0
H2291 H 0.99122 0.729 0.75041 0.0
H2292 H 0.99702 0.72275 0.7416 0.0
H2293 H 0.98617 0.71836 0.74614 0.0
H2294 H 0.98374 0.75572 0.7175 0.0
H2295 H 0.99509 0.75249 0.72135 0.0
H2296 H 0.9875 0.75824 0.72908 0.0
H2297 H 0.00609 0.78127 0.77146 0.0
H2298 H 0.02909 0.76715 0.75252 0.0
H2299 H 0.02907 0.75478 0.74164 0.0
H2300 H 0.0058 0.73451 0.72878 0.0
H2301 H 0.9828 0.74893 0.74732 0.0
H2302 H 0.98288 0.76098 0.75857 0.0
H2303 H 0.05795 0.74303 0.71057 0.0
H2304 H 0.06555 0.74379 0.72048 0.0
H2305 H 0.05381 0.74747 0.72138 0.0
C2306 C 0.21644 0.05591 0.76831 0.0
C2307 C 0.21542 0.05109 0.77773 0.0
C2308 C 0.22787 0.03969 0.7775 0.0
C2309 C 0.2365 0.03749 0.78117 0.0
C2310 C 0.24113 0.02955 0.77841 0.0
C2311 C 0.23704 0.02369 0.77172 0.0
C2312 C 0.22832 0.02586 0.76795 0.0
C2313 C 0.2238 0.0338 0.7709 0.0
C2314 C 0.25036 0.02739 0.78268 0.0
C2315 C 0.22378 0.01975 0.7608 0.0
C2316 C 0.24289 0.95919 0.79991 0.0
C2317 C 0.23302 0.96255 0.79818 0.0
C2318 C 0.23461 0.97361 0.78525 0.0
C2319 C 0.23203 0.97532 0.77611 0.0
C2320 C 0.23463 0.98355 0.77159 0.0
C2321 C 0.24028 0.99011 0.77625 0.0
C2322 C 0.24285 0.98849 0.78554 0.0
C2323 C 0.23987 0.98033 0.78999 0.0
C2324 C 0.23137 0.98517 0.76182 0.0
C2325 C 0.24884 0.99532 0.79075 0.0
C2326 C 0.28372 0.97308 0.73441 0.0
C2327 C 0.27456 0.97493 0.7319 0.0
C2328 C 0.27032 0.98305 0.73475 0.0
C2329 C 0.27527 0.98938 0.7404 0.0
C2330 C 0.28454 0.98756 0.74286 0.0
C2331 C 0.28868 0.9795 0.7397 0.0
C2332 C 0.26057 0.98493 0.73163 0.0
C2333 C 0.29006 0.99413 0.74883 0.0
C2334 C 0.26999 0.05109 0.70847 0.0
C2335 C 0.27667 0.05263 0.71657 0.0
C2336 C 0.27774 0.03777 0.72424 0.0
C2337 C 0.27118 0.03144 0.72084 0.0
C2338 C 0.268 0.02403 0.72631 0.0
C2339 C 0.2717 0.02277 0.73527 0.0
C2340 C 0.27846 0.02908 0.73866 0.0
C2341 C 0.28138 0.03654 0.73308 0.0
C2342 C 0.26084 0.01741 0.72243 0.0
C2343 C 0.28275 0.02782 0.74807 0.0
C2344 C 0.24175 0.01513 0.76892 0.0
C2345 C 0.23925 0.00692 0.77345 0.0
C2346 C 0.24353 0.99863 0.77138 0.0
C2347 C 0.25062 0.9985 0.76466 0.0
C2348 C 0.25536 0.99038 0.76268 0.0
C2349 C 0.26207 0.99023 0.75581 0.0
C2350 C 0.26431 0.9982 0.75066 0.0
C2351 C 0.27087 0.99804 0.74343 0.0
C2352 C 0.27315 0.00617 0.73867 0.0
C2353 C 0.26896 0.0145 0.74081 0.0
C2354 C 0.26221 0.01475 0.74785 0.0
C2355 C 0.25768 0.02295 0.75003 0.0
C2356 C 0.25102 0.02311 0.75695 0.0
C2357 C 0.24858 0.01506 0.76192 0.0
C2358 C 0.25303 0.00672 0.75981 0.0
C2359 C 0.25988 0.00657 0.75279 0.0
C2360 C 0.28387 0.95275 0.74159 0.0
C2361 C 0.28424 0.95648 0.73168 0.0
O2362 O 0.22382 0.04752 0.78052 0.0
O2363 O 0.28122 0.04457 0.71874 0.0
O2364 O 0.28805 0.96534 0.73166 0.0
O2365 O 0.23197 0.96539 0.7891 0.0
H2366 H 0.21017 0.04541 0.77719 0.0
H2367 H 0.21856 0.05096 0.76295 0.0
H2368 H 0.22176 0.06153 0.76864 0.0
H2369 H 0.20975 0.05887 0.76616 0.0
H2370 H 0.2396 0.04203 0.78627 0.0
H2371 H 0.21712 0.03531 0.76798 0.0
H2372 H 0.25007 0.02042 0.78589 0.0
H2373 H 0.25247 0.03248 0.78801 0.0
H2374 H 0.25574 0.02732 0.77722 0.0
H2375 H 0.21727 0.02267 0.75809 0.0
H2376 H 0.22219 0.01288 0.76389 0.0
H2377 H 0.22858 0.0187 0.75495 0.0
H2378 H 0.23168 0.9684 0.8029 0.0
H2379 H 0.24351 0.95643 0.80706 0.0
H2380 H 0.24801 0.96492 0.79911 0.0
H2381 H 0.24472 0.95372 0.79496 0.0
H2382 H 0.2279 0.97016 0.77252 0.0
H2383 H 0.2418 0.97925 0.79712 0.0
H2384 H 0.22897 0.99235 0.76094 0.0
H2385 H 0.22566 0.98034 0.75987 0.0
H2386 H 0.2372 0.98417 0.75699 0.0
H2387 H 0.2512 0.99253 0.7975 0.0
H2388 H 0.24487 0.00165 0.79205 0.0
H2389 H 0.255 0.99733 0.78658 0.0
H2390 H 0.2771 0.95653 0.72886 0.0
H2391 H 0.27078 0.97019 0.7275 0.0
H2392 H 0.29578 0.97807 0.74151 0.0
H2393 H 0.25583 0.98442 0.73763 0.0
H2394 H 0.25812 0.97996 0.72632 0.0
H2395 H 0.26013 0.99202 0.72876 0.0
H2396 H 0.29676 0.99121 0.75104 0.0
H2397 H 0.28604 0.99592 0.75507 0.0
H2398 H 0.29149 0.00061 0.74493 0.0
H2399 H 0.27264 0.05489 0.72268 0.0
H2400 H 0.26724 0.05774 0.70595 0.0
H2401 H 0.26396 0.0468 0.7107 0.0
H2402 H 0.27354 0.04764 0.70268 0.0
H2403 H 0.26873 0.03213 0.71381 0.0
H2404 H 0.28662 0.04136 0.73554 0.0
H2405 H 0.2552 0.01619 0.7275 0.0
H2406 H 0.26409 0.01068 0.72108 0.0
H2407 H 0.25781 0.01998 0.71587 0.0
H2408 H 0.28822 0.03309 0.74952 0.0
H2409 H 0.28579 0.02087 0.74861 0.0
H2410 H 0.27733 0.02826 0.75346 0.0
H2411 H 0.23387 0.00698 0.77865 0.0
H2412 H 0.25392 0.98402 0.7664 0.0
H2413 H 0.26544 0.98377 0.75456 0.0
H2414 H 0.27818 0.006 0.73314 0.0
H2415 H 0.25923 0.02933 0.74639 0.0
H2416 H 0.24775 0.0296 0.75832 0.0
H2417 H 0.29093 0.95259 0.74462 0.0
H2418 H 0.28079 0.94568 0.74175 0.0
H2419 H 0.27952 0.95722 0.74592 0.0
C2420 C 0.95196 0.29323 0.74096 0.0
C2421 C 0.95662 0.29432 0.73149 0.0
C2422 C 0.96824 0.28207 0.73168 0.0
C2423 C 0.97055 0.27353 0.72803 0.0
C2424 C 0.97865 0.26905 0.73075 0.0
C2425 C 0.98455 0.2732 0.73739 0.0
C2426 C 0.98226 0.28183 0.74115 0.0
C2427 C 0.97417 0.28621 0.73823 0.0
C2428 C 0.98092 0.25991 0.72651 0.0
C2429 C 0.98839 0.28646 0.74825 0.0
C2430 C 0.0548 0.29393 0.71818 0.0
C2431 C 0.04674 0.29143 0.72414 0.0
C2432 C 0.03419 0.27998 0.72556 0.0
C2433 C 0.03118 0.28304 0.73423 0.0
C2434 C 0.02335 0.27906 0.73848 0.0
C2435 C 0.01844 0.27182 0.73404 0.0
C2436 C 0.02152 0.26862 0.72539 0.0
C2437 C 0.02937 0.27275 0.72127 0.0
C2438 C 0.02027 0.28265 0.74772 0.0
C2439 C 0.01649 0.26086 0.72051 0.0
C2440 C 0.0366 0.22967 0.77764 0.0
C2441 C 0.03413 0.23877 0.77968 0.0
C2442 C 0.0259 0.24247 0.77623 0.0
C2443 C 0.02014 0.23708 0.77038 0.0
C2444 C 0.02264 0.22796 0.76825 0.0
C2445 C 0.03078 0.22435 0.772 0.0
C2446 C 0.02333 0.25212 0.77894 0.0
C2447 C 0.01671 0.22201 0.76202 0.0
C2448 C 0.95711 0.23998 0.79937 0.0
C2449 C 0.95614 0.23266 0.79182 0.0
C2450 C 0.97135 0.23214 0.78489 0.0
C2451 C 0.97738 0.23893 0.78836 0.0
C2452 C 0.98477 0.24239 0.78304 0.0
C2453 C 0.98635 0.23872 0.77416 0.0
C2454 C 0.98037 0.23171 0.7707 0.0
C2455 C 0.9729 0.22853 0.77612 0.0
C2456 C 0.99103 0.24981 0.787 0.0
C2457 C 0.98199 0.22744 0.7614 0.0
C2458 C 0.99325 0.26865 0.74022 0.0
C2459 C 0.00146 0.27152 0.73589 0.0
C2460 C 0.00995 0.26779 0.73837 0.0
C2461 C 0.0103 0.26083 0.74524 0.0
C2462 C 0.0187 0.25677 0.74775 0.0
C2463 C 0.01902 0.25013 0.75471 0.0
C2464 C 0.01099 0.24735 0.7595 0.0
C2465 C 0.01131 0.24086 0.76684 0.0
C2466 C 0.00314 0.23813 0.7713 0.0
C2467 C 0.99462 0.24179 0.76879 0.0
C2468 C 0.99419 0.24843 0.76161 0.0
C2469 C 0.98579 0.25247 0.75907 0.0
C2470 C 0.98545 0.25904 0.75204 0.0
C2471 C 0.9935 0.26188 0.7473 0.0
C2472 C 0.00206 0.25793 0.74978 0.0
C2473 C 0.0024 0.25119 0.75693 0.0
C2474 C 0.05767 0.23532 0.77765 0.0
C2475 C 0.05198 0.23015 0.78503 0.0
O2476 O 0.96026 0.286 0.72872 0.0
O2477 O 0.96452 0.22848 0.79024 0.0
O2478 O 0.04442 0.22574 0.78096 0.0
O2479 O 0.04162 0.28384 0.72112 0.0
H2480 H 0.96226 0.29962 0.73196 0.0
H2481 H 0.95705 0.29121 0.7463 0.0
H2482 H 0.94641 0.28785 0.74074 0.0
H2483 H 0.94892 0.29986 0.74309 0.0
H2484 H 0.96597 0.27038 0.72298 0.0
H2485 H 0.97258 0.29283 0.74113 0.0
H2486 H 0.98791 0.26031 0.72334 0.0
H2487 H 0.97583 0.25778 0.72115 0.0
H2488 H 0.98107 0.25451 0.73197 0.0
H2489 H 0.98525 0.29275 0.75112 0.0
H2490 H 0.9951 0.28843 0.74503 0.0
H2491 H 0.98983 0.2816 0.754 0.0
H2492 H 0.04234 0.29735 0.72605 0.0
H2493 H 0.05322 0.30093 0.71525 0.0
H2494 H 0.05367 0.29018 0.71148 0.0
H2495 H 0.06618 0.2916 0.72675 0.0
H2496 H 0.03488 0.28856 0.73771 0.0
H2497 H 0.03174 0.27039 0.71461 0.0
H2498 H 0.01299 0.2849 0.74726 0.0
H2499 H 0.02464 0.28853 0.75013 0.0
H2500 H 0.02054 0.27704 0.75296 0.0
H2501 H 0.02002 0.25885 0.71404 0.0
H2502 H 0.00936 0.263 0.7188 0.0
H2503 H 0.01593 0.25475 0.72514 0.0
H2504 H 0.04957 0.23511 0.79028 0.0
H2505 H 0.03849 0.24303 0.78403 0.0
H2506 H 0.0327 0.21735 0.77047 0.0
H2507 H 0.02397 0.25677 0.77286 0.0
H2508 H 0.02783 0.2549 0.78452 0.0
H2509 H 0.01603 0.25223 0.7813 0.0
H2510 H 0.02017 0.21553 0.76011 0.0
H2511 H 0.01495 0.22585 0.75562 0.0
H2512 H 0.01014 0.22019 0.7656 0.0
H2513 H 0.95378 0.23606 0.78533 0.0
H2514 H 0.95022 0.24256 0.80139 0.0
H2515 H 0.9612 0.24599 0.79678 0.0
H2516 H 0.96054 0.23707 0.80557 0.0
H2517 H 0.97643 0.24139 0.79533 0.0
H2518 H 0.96831 0.22311 0.7736 0.0
H2519 H 0.99216 0.25543 0.78186 0.0
H2520 H 0.99786 0.24686 0.78864 0.0
H2521 H 0.98816 0.25279 0.79341 0.0
H2522 H 0.97702 0.2217 0.75993 0.0
H2523 H 0.98913 0.22477 0.76105 0.0
H2524 H 0.98133 0.23276 0.75591 0.0
H2525 H 0.00125 0.27687 0.73063 0.0
H2526 H 0.02512 0.25871 0.74436 0.0
H2527 H 0.02568 0.24724 0.75635 0.0
H2528 H 0.00344 0.23318 0.77694 0.0
H2529 H 0.97938 0.2506 0.76251 0.0
H2530 H 0.9788 0.26192 0.75039 0.0
H2531 H 0.0637 0.23894 0.78084 0.0
H2532 H 0.0534 0.24056 0.77415 0.0
H2533 H 0.06019 0.23043 0.77238 0.0
C2534 C 0.7924 0.95285 0.76928 0.0
C2535 C 0.79247 0.95682 0.77909 0.0
C2536 C 0.7798 0.96794 0.7787 0.0
C2537 C 0.77092 0.96975 0.78193 0.0
C2538 C 0.76636 0.97783 0.77937 0.0
C2539 C 0.77074 0.98421 0.7733 0.0
C2540 C 0.77973 0.98245 0.77 0.0
C2541 C 0.7842 0.97439 0.77279 0.0
C2542 C 0.75685 0.97956 0.78317 0.0
C2543 C 0.78461 0.9891 0.76351 0.0
C2544 C 0.76418 0.04966 0.79891 0.0
C2545 C 0.77385 0.04547 0.79924 0.0
C2546 C 0.77334 0.03401 0.78673 0.0
C2547 C 0.77678 0.03191 0.778 0.0
C2548 C 0.77402 0.02381 0.77343 0.0
C2549 C 0.76749 0.01774 0.77763 0.0
C2550 C 0.76402 0.01976 0.7865 0.0
C2551 C 0.76704 0.02782 0.791 0.0
C2552 C 0.77808 0.02178 0.76409 0.0
C2553 C 0.75706 0.01343 0.79119 0.0
C2554 C 0.72743 0.03566 0.73255 0.0
C2555 C 0.7366 0.0332 0.7307 0.0
C2556 C 0.74018 0.02495 0.73417 0.0
C2557 C 0.73459 0.01913 0.73981 0.0
C2558 C 0.72538 0.02159 0.74173 0.0
C2559 C 0.72191 0.02979 0.738 0.0
C2560 C 0.74996 0.02243 0.73173 0.0
C2561 C 0.71922 0.01558 0.74774 0.0
C2562 C 0.74122 0.95214 0.71768 0.0
C2563 C 0.73157 0.95403 0.72149 0.0
C2564 C 0.73197 0.97029 0.72493 0.0
C2565 C 0.73811 0.97694 0.72138 0.0
C2566 C 0.74096 0.98451 0.72672 0.0
C2567 C 0.73729 0.98558 0.73571 0.0
C2568 C 0.73086 0.97895 0.73922 0.0
C2569 C 0.72837 0.97129 0.73382 0.0
C2570 C 0.74786 0.99137 0.72274 0.0
C2571 C 0.72653 0.98001 0.74861 0.0
C2572 C 0.766 0.99279 0.77047 0.0
C2573 C 0.76834 0.00093 0.77511 0.0
C2574 C 0.76429 0.00929 0.77273 0.0
C2575 C 0.75756 0.00955 0.76564 0.0
C2576 C 0.75315 0.01778 0.76325 0.0
C2577 C 0.74677 0.01804 0.75606 0.0
C2578 C 0.74454 0.01007 0.75099 0.0
C2579 C 0.73832 0.01034 0.74346 0.0
C2580 C 0.73599 0.00222 0.7388 0.0
C2581 C 0.73992 0.99382 0.74124 0.0
C2582 C 0.74642 0.99347 0.74854 0.0
C2583 C 0.75083 0.98524 0.75094 0.0
C2584 C 0.75721 0.98499 0.75814 0.0
C2585 C 0.75948 0.99296 0.76318 0.0
C2586 C 0.75521 0.00137 0.7608 0.0
C2587 C 0.74867 0.00162 0.75348 0.0
C2588 C 0.73345 0.05668 0.73211 0.0
C2589 C 0.72814 0.05092 0.72495 0.0
O2590 O 0.78377 0.95991 0.78141 0.0
O2591 O 0.72936 0.96309 0.71958 0.0
O2592 O 0.72362 0.04354 0.72925 0.0
O2593 O 0.77623 0.04208 0.79065 0.0
H2594 H 0.79756 0.96265 0.77938 0.0
H2595 H 0.79073 0.95824 0.76412 0.0
H2596 H 0.78717 0.94718 0.76866 0.0
H2597 H 0.79932 0.95014 0.76756 0.0
H2598 H 0.76758 0.96478 0.7865 0.0
H2599 H 0.79108 0.97321 0.77024 0.0
H2600 H 0.7567 0.98647 0.78642 0.0
H2601 H 0.75467 0.97428 0.78835 0.0
H2602 H 0.75174 0.97952 0.77744 0.0
H2603 H 0.79125 0.98638 0.76093 0.0
H2604 H 0.78607 0.99569 0.76712 0.0
H2605 H 0.7801 0.99064 0.7575 0.0
H2606 H 0.77386 0.03979 0.80443 0.0
H2607 H 0.76244 0.05263 0.80572 0.0
H2608 H 0.75885 0.04434 0.79724 0.0
H2609 H 0.76386 0.05518 0.79357 0.0
H2610 H 0.78167 0.03667 0.77477 0.0
H2611 H 0.76436 0.02923 0.79779 0.0
H2612 H 0.78065 0.01462 0.76394 0.0
H2613 H 0.78385 0.02661 0.76226 0.0
H2614 H 0.77263 0.02234 0.75873 0.0
H2615 H 0.75447 0.01632 0.79775 0.0
H2616 H 0.76028 0.00671 0.7927 0.0
H2617 H 0.75109 0.0121 0.78652 0.0
H2618 H 0.73304 0.04833 0.71971 0.0
H2619 H 0.74102 0.03761 0.72652 0.0
H2620 H 0.71485 0.03171 0.73939 0.0
H2621 H 0.75438 0.02289 0.73798 0.0
H2622 H 0.75298 0.02705 0.72634 0.0
H2623 H 0.75015 0.01522 0.72924 0.0
H2624 H 0.71258 0.01892 0.74937 0.0
H2625 H 0.72281 0.01391 0.75431 0.0
H2626 H 0.71769 0.00899 0.74416 0.0
H2627 H 0.73165 0.95282 0.72909 0.0
H2628 H 0.74327 0.94497 0.71929 0.0
H2629 H 0.74639 0.9569 0.72089 0.0
H2630 H 0.74137 0.95321 0.71008 0.0
H2631 H 0.74077 0.9761 0.71446 0.0
H2632 H 0.72347 0.96616 0.73642 0.0
H2633 H 0.75341 0.99292 0.72783 0.0
H2634 H 0.74433 0.99791 0.72113 0.0
H2635 H 0.75107 0.98882 0.7163 0.0
H2636 H 0.72084 0.9749 0.74984 0.0
H2637 H 0.72377 0.98706 0.74935 0.0
H2638 H 0.73186 0.97908 0.75403 0.0
H2639 H 0.77348 0.00078 0.78057 0.0
H2640 H 0.75462 0.02414 0.76688 0.0
H2641 H 0.74363 0.02458 0.7545 0.0
H2642 H 0.73119 0.00248 0.73304 0.0
H2643 H 0.7494 0.9789 0.74727 0.0
H2644 H 0.76039 0.97845 0.75966 0.0
H2645 H 0.7371 0.06259 0.72871 0.0
H2646 H 0.73869 0.05244 0.73565 0.0
H2647 H 0.72863 0.05936 0.73738 0.0
C2648 C 0.30654 0.78495 0.54208 0.0
C2649 C 0.29743 0.78765 0.54661 0.0
C2650 C 0.28666 0.77618 0.54081 0.0
C2651 C 0.27958 0.78116 0.53663 0.0
C2652 C 0.27462 0.77749 0.52912 0.0
C2653 C 0.27693 0.76873 0.52564 0.0
C2654 C 0.28398 0.76363 0.53 0.0
C2655 C 0.28864 0.76736 0.53766 0.0
C2656 C 0.26706 0.78307 0.52477 0.0
C2657 C 0.28679 0.75436 0.52639 0.0
C2658 C 0.30057 0.79279 0.47541 0.0
C2659 C 0.29724 0.78601 0.46798 0.0
C2660 C 0.28405 0.77912 0.4763 0.0
C2661 C 0.28865 0.7719 0.48078 0.0
C2662 C 0.28463 0.76729 0.48837 0.0
C2663 C 0.2759 0.77004 0.49165 0.0
C2664 C 0.27118 0.77718 0.48705 0.0
C2665 C 0.27526 0.78151 0.47931 0.0
C2666 C 0.28978 0.75956 0.49296 0.0
C2667 C 0.26195 0.78044 0.49044 0.0
C2668 C 0.22948 0.72775 0.47612 0.0
C2669 C 0.23659 0.72286 0.4803 0.0
C2670 C 0.24144 0.72643 0.48793 0.0
C2671 C 0.23902 0.73509 0.49154 0.0
C2672 C 0.23198 0.7402 0.4872 0.0
C2673 C 0.22739 0.73656 0.47946 0.0
C2674 C 0.24902 0.72084 0.49224 0.0
C2675 C 0.22918 0.74945 0.49088 0.0
C2676 C 0.23617 0.72857 0.56278 0.0
C2677 C 0.22723 0.7256 0.55785 0.0
C2678 C 0.23268 0.72564 0.54182 0.0
C2679 C 0.23888 0.72085 0.53635 0.0
C2680 C 0.24273 0.72486 0.52836 0.0
C2681 C 0.24003 0.73378 0.52558 0.0
C2682 C 0.23349 0.73856 0.53092 0.0
C2683 C 0.22998 0.73449 0.53905 0.0
C2684 C 0.24966 0.71952 0.52287 0.0
C2685 C 0.23015 0.74792 0.52799 0.0
C2686 C 0.27247 0.76524 0.51705 0.0
C2687 C 0.27565 0.76887 0.50865 0.0
C2688 C 0.27203 0.76582 0.50023 0.0
C2689 C 0.26501 0.75889 0.50014 0.0
C2690 C 0.26138 0.75547 0.4918 0.0
C2691 C 0.25436 0.74877 0.49178 0.0
C2692 C 0.25071 0.74522 0.5001 0.0
C2693 C 0.24346 0.73854 0.50015 0.0
C2694 C 0.24014 0.73503 0.50855 0.0
C2695 C 0.24385 0.73799 0.51697 0.0
C2696 C 0.25103 0.74475 0.51706 0.0
C2697 C 0.25491 0.74793 0.52539 0.0
C2698 C 0.26186 0.7547 0.52541 0.0
C2699 C 0.26534 0.75843 0.5171 0.0
C2700 C 0.2616 0.75525 0.50861 0.0
C2701 C 0.25444 0.74841 0.50859 0.0
C2702 C 0.20844 0.72609 0.4707 0.0
C2703 C 0.21702 0.72686 0.46448 0.0
O2704 O 0.2918 0.77988 0.54774 0.0
O2705 O 0.22934 0.7214 0.54956 0.0
O2706 O 0.22477 0.72364 0.46905 0.0
O2707 O 0.28789 0.78398 0.46916 0.0
H2708 H 0.29397 0.79271 0.542 0.0
H2709 H 0.30517 0.78194 0.53517 0.0
H2710 H 0.31016 0.77978 0.54639 0.0
H2711 H 0.31114 0.79111 0.54115 0.0
H2712 H 0.27798 0.78792 0.53924 0.0
H2713 H 0.29412 0.76358 0.541 0.0
H2714 H 0.26937 0.78563 0.5179 0.0
H2715 H 0.26522 0.78909 0.52905 0.0
H2716 H 0.26077 0.77869 0.52371 0.0
H2717 H 0.29291 0.75164 0.53008 0.0
H2718 H 0.28842 0.7549 0.51891 0.0
H2719 H 0.28098 0.74933 0.52719 0.0
H2720 H 0.30129 0.77961 0.46854 0.0
H2721 H 0.30802 0.79453 0.47447 0.0
H2722 H 0.29968 0.78968 0.48238 0.0
H2723 H 0.29655 0.79924 0.47506 0.0
H2724 H 0.29534 0.76977 0.47839 0.0
H2725 H 0.27173 0.78703 0.47578 0.0
H2726 H 0.29229 0.76186 0.49983 0.0
H2727 H 0.29582 0.75739 0.48884 0.0
H2728 H 0.28509 0.7535 0.49407 0.0
H2729 H 0.25953 0.78656 0.48655 0.0
H2730 H 0.26241 0.7822 0.49788 0.0
H2731 H 0.2567 0.77481 0.48973 0.0
H2732 H 0.21821 0.7342 0.46247 0.0
H2733 H 0.23824 0.71612 0.47765 0.0
H2734 H 0.22208 0.74058 0.47619 0.0
H2735 H 0.25523 0.72526 0.49353 0.0
H2736 H 0.251 0.71496 0.48783 0.0
H2737 H 0.24661 0.71806 0.49899 0.0
H2738 H 0.22315 0.75227 0.48713 0.0
H2739 H 0.23505 0.75444 0.49025 0.0
H2740 H 0.22742 0.74883 0.49832 0.0
H2741 H 0.22298 0.73178 0.55659 0.0
H2742 H 0.2346 0.73196 0.56943 0.0
H2743 H 0.24013 0.73358 0.55842 0.0
H2744 H 0.24055 0.7225 0.56413 0.0
H2745 H 0.24086 0.71399 0.53849 0.0
H2746 H 0.22496 0.73817 0.54303 0.0
H2747 H 0.25576 0.72396 0.52115 0.0
H2748 H 0.24643 0.71727 0.51629 0.0
H2749 H 0.25204 0.71332 0.52665 0.0
H2750 H 0.22425 0.75022 0.53224 0.0
H2751 H 0.22798 0.74781 0.52063 0.0
H2752 H 0.23587 0.75308 0.52865 0.0
H2753 H 0.28109 0.77412 0.50866 0.0
H2754 H 0.2639 0.75796 0.48519 0.0
H2755 H 0.2518 0.74642 0.48516 0.0
H2756 H 0.23457 0.72991 0.50854 0.0
H2757 H 0.25258 0.74526 0.53199 0.0
H2758 H 0.2645 0.75696 0.53203 0.0
H2759 H 0.20732 0.71888 0.47314 0.0
H2760 H 0.20221 0.72831 0.46684 0.0
H2761 H 0.20919 0.73056 0.47684 0.0
C2762 C 0.7955 0.74185 0.4523 0.0
C2763 C 0.79535 0.73215 0.45663 0.0
C2764 C 0.7829 0.73286 0.46819 0.0
C2765 C 0.77402 0.72965 0.47047 0.0
C2766 C 0.76966 0.73241 0.47862 0.0
C2767 C 0.77425 0.73872 0.48455 0.0
C2768 C 0.78326 0.74197 0.48233 0.0
C2769 C 0.78753 0.73894 0.47424 0.0
C2770 C 0.76013 0.72864 0.48086 0.0
C2771 C 0.78838 0.74869 0.4885 0.0
C2772 C 0.7844 0.70485 0.53522 0.0
C2773 C 0.78718 0.71392 0.5399 0.0
C2774 C 0.77663 0.72494 0.53352 0.0
C2775 C 0.78228 0.73208 0.53005 0.0
C2776 C 0.7794 0.73743 0.52251 0.0
C2777 C 0.77075 0.73546 0.5183 0.0
C2778 C 0.76496 0.72834 0.52195 0.0
C2779 C 0.76792 0.72328 0.52965 0.0
C2780 C 0.78569 0.74505 0.51893 0.0
C2781 C 0.75577 0.72592 0.51757 0.0
C2782 C 0.72748 0.77863 0.53345 0.0
C2783 C 0.73644 0.78186 0.53158 0.0
C2784 C 0.74128 0.77872 0.52384 0.0
C2785 C 0.73703 0.77212 0.51795 0.0
C2786 C 0.72795 0.76884 0.51989 0.0
C2787 C 0.72323 0.77227 0.52754 0.0
C2788 C 0.75082 0.78259 0.52185 0.0
C2789 C 0.72317 0.76183 0.51379 0.0
C2790 C 0.72744 0.77164 0.44726 0.0
C2791 C 0.72249 0.779 0.45285 0.0
C2792 C 0.73176 0.77994 0.46711 0.0
C2793 C 0.73843 0.78516 0.47185 0.0
C2794 C 0.74214 0.78206 0.48025 0.0
C2795 C 0.73904 0.77354 0.48401 0.0
C2796 C 0.73218 0.76828 0.47934 0.0
C2797 C 0.72865 0.77149 0.47092 0.0
C2798 C 0.74947 0.78781 0.48505 0.0
C2799 C 0.72863 0.75919 0.4832 0.0
C2800 C 0.76966 0.74193 0.49309 0.0
C2801 C 0.77193 0.73766 0.50144 0.0
C2802 C 0.76803 0.74045 0.50977 0.0
C2803 C 0.76164 0.74771 0.50981 0.0
C2804 C 0.75764 0.75076 0.51806 0.0
C2805 C 0.75116 0.75774 0.518 0.0
C2806 C 0.74853 0.76202 0.50969 0.0
C2807 C 0.74184 0.76901 0.5095 0.0
C2808 C 0.73918 0.77288 0.50106 0.0
C2809 C 0.74302 0.76998 0.49276 0.0
C2810 C 0.74994 0.76324 0.49283 0.0
C2811 C 0.75418 0.76043 0.48462 0.0
C2812 C 0.76075 0.75356 0.4847 0.0
C2813 C 0.76323 0.74914 0.49298 0.0
C2814 C 0.75918 0.75201 0.50137 0.0
C2815 C 0.7526 0.75914 0.50131 0.0
C2816 C 0.71577 0.76958 0.54918 0.0
C2817 C 0.72226 0.77807 0.54928 0.0
O2818 O 0.78664 0.72997 0.4601 0.0
O2819 O 0.72861 0.78328 0.4589 0.0
O2820 O 0.72271 0.78213 0.5406 0.0
O2821 O 0.77954 0.71949 0.54052 0.0
H2822 H 0.80053 0.73194 0.4623 0.0
H2823 H 0.79412 0.74715 0.45757 0.0
H2824 H 0.79016 0.74242 0.44682 0.0
H2825 H 0.8024 0.74342 0.44925 0.0
H2826 H 0.7705 0.72492 0.46581 0.0
H2827 H 0.79444 0.74144 0.4727 0.0
H2828 H 0.75998 0.72583 0.48801 0.0
H2829 H 0.75788 0.72313 0.47602 0.0
H2830 H 0.75508 0.73429 0.4805 0.0
H2831 H 0.79492 0.7513 0.48534 0.0
H2832 H 0.79004 0.74523 0.49513 0.0
H2833 H 0.78395 0.75464 0.49006 0.0
H2834 H 0.79266 0.71739 0.53565 0.0
H2835 H 0.79045 0.7003 0.53462 0.0
H2836 H 0.78175 0.70624 0.52816 0.0
H2837 H 0.77889 0.70119 0.53924 0.0
H2838 H 0.78894 0.73344 0.53323 0.0
H2839 H 0.76361 0.71776 0.53247 0.0
H2840 H 0.78878 0.74289 0.51231 0.0
H2841 H 0.79138 0.74671 0.52384 0.0
H2842 H 0.78171 0.75139 0.51758 0.0
H2843 H 0.75249 0.71968 0.52074 0.0
H2844 H 0.75667 0.72471 0.51006 0.0
H2845 H 0.751 0.73176 0.51833 0.0
H2846 H 0.7293 0.77586 0.55136 0.0
H2847 H 0.73958 0.78694 0.53612 0.0
H2848 H 0.71617 0.77004 0.5289 0.0
H2849 H 0.75594 0.77702 0.5224 0.0
H2850 H 0.75286 0.78818 0.52669 0.0
H2851 H 0.75114 0.78534 0.51468 0.0
H2852 H 0.71677 0.75894 0.51702 0.0
H2853 H 0.72787 0.75609 0.51222 0.0
H2854 H 0.72126 0.76516 0.50715 0.0
H2855 H 0.7167 0.7757 0.45678 0.0
H2856 H 0.72256 0.7683 0.44233 0.0
H2857 H 0.73017 0.76621 0.4519 0.0
H2858 H 0.73333 0.77476 0.44334 0.0
H2859 H 0.74079 0.79166 0.46889 0.0
H2860 H 0.72351 0.76731 0.4674 0.0
H2861 H 0.75576 0.78367 0.48613 0.0
H2862 H 0.74693 0.78986 0.49195 0.0
H2863 H 0.75138 0.79413 0.48107 0.0
H2864 H 0.72267 0.75636 0.47921 0.0
H2865 H 0.72647 0.76002 0.4905 0.0
H2866 H 0.73424 0.75409 0.4831 0.0
H2867 H 0.77682 0.73209 0.50146 0.0
H2868 H 0.75942 0.74773 0.52466 0.0
H2869 H 0.74822 0.75971 0.52454 0.0
H2870 H 0.73384 0.77803 0.50093 0.0
H2871 H 0.75247 0.76352 0.47802 0.0
H2872 H 0.76377 0.75169 0.47816 0.0
H2873 H 0.70886 0.77144 0.54645 0.0
H2874 H 0.71493 0.76668 0.55625 0.0
H2875 H 0.71869 0.76411 0.54481 0.0
C2876 C 0.79328 0.26776 0.55623 0.0
C2877 C 0.79476 0.27695 0.5511 0.0
C2878 C 0.78289 0.27613 0.53884 0.0
C2879 C 0.77438 0.27953 0.53596 0.0
C2880 C 0.77002 0.27628 0.52792 0.0
C2881 C 0.77428 0.26939 0.52263 0.0
C2882 C 0.7829 0.26592 0.52546 0.0
C2883 C 0.78715 0.26934 0.53351 0.0
C2884 C 0.76088 0.28023 0.52505 0.0
C2885 C 0.78763 0.25857 0.51997 0.0
C2886 C 0.77032 0.27882 0.45169 0.0
C2887 C 0.78028 0.27951 0.45527 0.0
C2888 C 0.7778 0.27981 0.4719 0.0
C2889 C 0.78084 0.27106 0.47455 0.0
C2890 C 0.77792 0.267 0.48291 0.0
C2891 C 0.77173 0.27176 0.48866 0.0
C2892 C 0.76885 0.28068 0.4861 0.0
C2893 C 0.77204 0.28465 0.4778 0.0
C2894 C 0.78147 0.25764 0.48559 0.0
C2895 C 0.7623 0.28598 0.49207 0.0
C2896 C 0.72766 0.22882 0.4727 0.0
C2897 C 0.73674 0.22634 0.47489 0.0
C2898 C 0.74106 0.22958 0.48297 0.0
C2899 C 0.73626 0.23559 0.48887 0.0
C2900 C 0.72708 0.23802 0.48671 0.0
C2901 C 0.72286 0.23447 0.47872 0.0
C2902 C 0.7507 0.22649 0.48524 0.0
C2903 C 0.72173 0.24438 0.49282 0.0
C2904 C 0.74077 0.22081 0.55905 0.0
C2905 C 0.73091 0.22139 0.55526 0.0
C2906 C 0.73348 0.22295 0.53871 0.0
C2907 C 0.73954 0.21885 0.53256 0.0
C2908 C 0.74267 0.22357 0.52464 0.0
C2909 C 0.7394 0.23251 0.5227 0.0
C2910 C 0.73302 0.23658 0.52877 0.0
C2911 C 0.73019 0.23178 0.53677 0.0
C2912 C 0.74947 0.21898 0.51834 0.0
C2913 C 0.72907 0.24593 0.52674 0.0
C2914 C 0.76977 0.26595 0.51405 0.0
C2915 C 0.7724 0.27005 0.50567 0.0
C2916 C 0.76829 0.26737 0.49734 0.0
C2917 C 0.76123 0.26048 0.49735 0.0
C2918 C 0.75667 0.25787 0.48916 0.0
C2919 C 0.74989 0.25094 0.48919 0.0
C2920 C 0.74743 0.2463 0.49741 0.0
C2921 C 0.74074 0.23906 0.49747 0.0
C2922 C 0.73828 0.23479 0.50581 0.0
C2923 C 0.7424 0.23744 0.51415 0.0
C2924 C 0.74926 0.24453 0.51419 0.0
C2925 C 0.75373 0.24723 0.5224 0.0
C2926 C 0.76041 0.25427 0.52238 0.0
C2927 C 0.76297 0.25881 0.51414 0.0
C2928 C 0.75865 0.25611 0.50576 0.0
C2929 C 0.75176 0.24899 0.50579 0.0
C2930 C 0.72786 0.23492 0.45204 0.0
C2931 C 0.72707 0.22522 0.45624 0.0
O2932 O 0.78665 0.27956 0.54677 0.0
O2933 O 0.7307 0.21811 0.54629 0.0
O2934 O 0.72325 0.2257 0.465 0.0
O2935 O 0.78042 0.28382 0.46379 0.0
H2936 H 0.80031 0.27621 0.54586 0.0
H2937 H 0.79134 0.26219 0.55135 0.0
H2938 H 0.78768 0.26831 0.56142 0.0
H2939 H 0.79975 0.26575 0.5598 0.0
H2940 H 0.77115 0.28477 0.54008 0.0
H2941 H 0.79376 0.26663 0.53555 0.0
H2942 H 0.76138 0.28302 0.51791 0.0
H2943 H 0.75864 0.2858 0.52972 0.0
H2944 H 0.75549 0.27468 0.52504 0.0
H2945 H 0.79409 0.25623 0.52332 0.0
H2946 H 0.78933 0.26128 0.51298 0.0
H2947 H 0.78288 0.25253 0.51909 0.0
H2948 H 0.78301 0.27243 0.45589 0.0
H2949 H 0.7701 0.27539 0.44486 0.0
H2950 H 0.76733 0.28578 0.45103 0.0
H2951 H 0.766 0.27465 0.45656 0.0
H2952 H 0.78562 0.26744 0.4702 0.0
H2953 H 0.76985 0.29146 0.47574 0.0
H2954 H 0.78402 0.25771 0.49282 0.0
H2955 H 0.78715 0.25541 0.48101 0.0
H2956 H 0.77575 0.25246 0.48518 0.0
H2957 H 0.76006 0.29247 0.4887 0.0
H2958 H 0.76574 0.28773 0.4987 0.0
H2959 H 0.75609 0.28166 0.4937 0.0
H2960 H 0.73408 0.22226 0.45659 0.0
H2961 H 0.7404 0.22168 0.47047 0.0
H2962 H 0.71581 0.23626 0.47702 0.0
H2963 H 0.75562 0.23242 0.48457 0.0
H2964 H 0.75302 0.22093 0.4806 0.0
H2965 H 0.75103 0.22397 0.49249 0.0
H2966 H 0.71511 0.24647 0.48962 0.0
H2967 H 0.72593 0.25066 0.49437 0.0
H2968 H 0.72017 0.24085 0.49947 0.0
H2969 H 0.7288 0.22872 0.5554 0.0
H2970 H 0.74113 0.22352 0.5662 0.0
H2971 H 0.74557 0.22502 0.55469 0.0
H2972 H 0.74309 0.21356 0.55906 0.0
H2973 H 0.74194 0.21197 0.53407 0.0
H2974 H 0.72523 0.23483 0.54136 0.0
H2975 H 0.75536 0.22376 0.51679 0.0
H2976 H 0.74603 0.21727 0.5117 0.0
H2977 H 0.7522 0.21254 0.5214 0.0
H2978 H 0.72346 0.2477 0.53161 0.0
H2979 H 0.72632 0.24616 0.51959 0.0
H2980 H 0.73463 0.25128 0.52726 0.0
H2981 H 0.77775 0.2754 0.50562 0.0
H2982 H 0.7583 0.26117 0.48262 0.0
H2983 H 0.74663 0.24922 0.48268 0.0
H2984 H 0.73312 0.22926 0.50582 0.0
H2985 H 0.7521 0.24394 0.52894 0.0
H2986 H 0.7636 0.25607 0.52891 0.0
H2987 H 0.72094 0.23808 0.45157 0.0
H2988 H 0.73096 0.23469 0.44504 0.0
H2989 H 0.73239 0.23936 0.45642 0.0
C2990 C 0.2128 0.27142 0.45656 0.0
C2991 C 0.21266 0.28108 0.46083 0.0
C2992 C 0.22527 0.2806 0.4723 0.0
C2993 C 0.23411 0.28399 0.47444 0.0
C2994 C 0.23872 0.28119 0.4825 0.0
C2995 C 0.23442 0.27466 0.48847 0.0
C2996 C 0.22543 0.27124 0.48641 0.0
C2997 C 0.22091 0.27432 0.47841 0.0
C2998 C 0.24819 0.28519 0.48459 0.0
C2999 C 0.22062 0.26428 0.49262 0.0
C3000 C 0.21781 0.28777 0.56083 0.0
C3001 C 0.22093 0.28184 0.55313 0.0
C3002 C 0.23048 0.28255 0.53923 0.0
C3003 C 0.2272 0.2741 0.53568 0.0
C3004 C 0.23058 0.2707 0.52732 0.0
C3005 C 0.23744 0.2758 0.52242 0.0
C3006 C 0.24076 0.2843 0.52596 0.0
C3007 C 0.23721 0.28758 0.53432 0.0
C3008 C 0.22682 0.26164 0.52371 0.0
C3009 C 0.24808 0.28989 0.52092 0.0
C3010 C 0.28316 0.23632 0.53672 0.0
C3011 C 0.27434 0.23273 0.53463 0.0
C3012 C 0.26968 0.23553 0.5266 0.0
C3013 C 0.2739 0.24213 0.52064 0.0
C3014 C 0.28289 0.2456 0.52266 0.0
C3015 C 0.28746 0.24253 0.53062 0.0
C3016 C 0.26027 0.23141 0.52448 0.0
C3017 C 0.28763 0.2526 0.51644 0.0
C3018 C 0.27269 0.23666 0.44883 0.0
C3019 C 0.28134 0.23324 0.45379 0.0
C3020 C 0.27621 0.23268 0.46997 0.0
C3021 C 0.27037 0.22759 0.47584 0.0
C3022 C 0.26722 0.2313 0.48416 0.0
C3023 C 0.27021 0.24025 0.48679 0.0
C3024 C 0.27638 0.24532 0.48104 0.0
C3025 C 0.27923 0.24154 0.47265 0.0
C3026 C 0.26064 0.22569 0.49012 0.0
C3027 C 0.28001 0.25474 0.48379 0.0
C3028 C 0.23931 0.27138 0.49687 0.0
C3029 C 0.23685 0.27509 0.50538 0.0
C3030 C 0.24105 0.27221 0.51358 0.0
C3031 C 0.24814 0.26564 0.51329 0.0
C3032 C 0.25276 0.26285 0.52136 0.0
C3033 C 0.25963 0.25629 0.52103 0.0
C3034 C 0.26208 0.25217 0.51264 0.0
C3035 C 0.26895 0.24537 0.51226 0.0
C3036 C 0.27133 0.24156 0.50377 0.0
C3037 C 0.26699 0.24428 0.4956 0.0
C3038 C 0.25996 0.25093 0.49587 0.0
C3039 C 0.25528 0.25367 0.48782 0.0
C3040 C 0.24851 0.26034 0.48813 0.0
C3041 C 0.24614 0.26453 0.4965 0.0
C3042 C 0.25063 0.26173 0.50473 0.0
C3043 C 0.25756 0.25494 0.50441 0.0
C3044 C 0.28571 0.2436 0.55733 0.0
C3045 C 0.28416 0.23396 0.55331 0.0
O3046 O 0.22131 0.28351 0.46427 0.0
O3047 O 0.27885 0.22872 0.46191 0.0
O3048 O 0.28776 0.23373 0.54445 0.0
O3049 O 0.22732 0.28608 0.54729 0.0
H3050 H 0.2075 0.28109 0.46652 0.0
H3051 H 0.2144 0.26613 0.46185 0.0
H3052 H 0.21812 0.27108 0.45106 0.0
H3053 H 0.20593 0.26965 0.45355 0.0
H3054 H 0.23742 0.28888 0.46975 0.0
H3055 H 0.21402 0.27169 0.47698 0.0
H3056 H 0.24848 0.28769 0.49181 0.0
H3057 H 0.25009 0.29098 0.47987 0.0
H3058 H 0.25341 0.27975 0.48389 0.0
H3059 H 0.2141 0.26153 0.48955 0.0
H3060 H 0.21895 0.26758 0.4993 0.0
H3061 H 0.22524 0.25844 0.49412 0.0
H3062 H 0.22293 0.27473 0.55521 0.0
H3063 H 0.20376 0.28959 0.55803 0.0
H3064 H 0.22293 0.29369 0.56131 0.0
H3065 H 0.22031 0.28418 0.56724 0.0
H3066 H 0.22197 0.27013 0.53936 0.0
H3067 H 0.2397 0.29409 0.53708 0.0
H3068 H 0.23246 0.25657 0.5234 0.0
H3069 H 0.22415 0.26258 0.51658 0.0
H3070 H 0.22117 0.25873 0.52809 0.0
H3071 H 0.25019 0.2962 0.52474 0.0
H3072 H 0.24544 0.29194 0.51402 0.0
H3073 H 0.25427 0.28563 0.51981 0.0
H3074 H 0.27658 0.23249 0.55319 0.0
H3075 H 0.27116 0.22764 0.53917 0.0
H3076 H 0.29433 0.24513 0.53225 0.0
H3077 H 0.25497 0.23679 0.52509 0.0
H3078 H 0.25839 0.22564 0.52924 0.0
H3079 H 0.26006 0.22884 0.51728 0.0
H3080 H 0.29424 0.25524 0.51942 0.0
H3081 H 0.28303 0.25851 0.51516 0.0
H3082 H 0.2891 0.24941 0.50967 0.0
H3083 H 0.28594 0.23925 0.45528 0.0
H3084 H 0.27462 0.24021 0.44227 0.0
H3085 H 0.26906 0.24165 0.45326 0.0
H3086 H 0.26788 0.23081 0.44729 0.0
H3087 H 0.26814 0.22074 0.47378 0.0
H3088 H 0.28395 0.24552 0.46838 0.0
H3089 H 0.25447 0.22981 0.4918 0.0
H3090 H 0.26408 0.22391 0.49673 0.0
H3091 H 0.25832 0.21921 0.48672 0.0
H3092 H 0.2856 0.25731 0.47914 0.0
H3093 H 0.28272 0.25454 0.49097 0.0
H3094 H 0.2743 0.25972 0.48359 0.0
H3095 H 0.23145 0.28018 0.50566 0.0
H3096 H 0.25113 0.26575 0.52802 0.0
H3097 H 0.26298 0.25445 0.52745 0.0
H3098 H 0.27669 0.23645 0.50351 0.0
H3099 H 0.2568 0.25068 0.48118 0.0
H3100 H 0.24515 0.26216 0.48171 0.0
H3101 H 0.28284 0.24393 0.56443 0.0
H3102 H 0.28216 0.24878 0.55298 0.0
H3103 H 0.29321 0.2454 0.55756 0.0
C3104 C 0.79428 0.55392 0.73838 0.0
C3105 C 0.79454 0.54967 0.7287 0.0
C3106 C 0.78179 0.53817 0.72888 0.0
C3107 C 0.77311 0.53592 0.7252 0.0
C3108 C 0.76843 0.52771 0.72771 0.0
C3109 C 0.77248 0.5217 0.73422 0.0
C3110 C 0.78128 0.5239 0.73795 0.0
C3111 C 0.78589 0.53205 0.73518 0.0
C3112 C 0.75915 0.52549 0.72342 0.0
C3113 C 0.78582 0.51766 0.74492 0.0
C3114 C 0.79506 0.45297 0.71964 0.0
C3115 C 0.79151 0.46079 0.72515 0.0
C3116 C 0.77956 0.47244 0.72526 0.0
C3117 C 0.78178 0.47566 0.73416 0.0
C3118 C 0.77737 0.48333 0.73787 0.0
C3119 C 0.77047 0.48781 0.73268 0.0
C3120 C 0.76801 0.48443 0.72385 0.0
C3121 C 0.7726 0.47679 0.72025 0.0
C3122 C 0.78024 0.48675 0.74729 0.0
C3123 C 0.76063 0.48899 0.71816 0.0
C3124 C 0.72818 0.4708 0.77605 0.0
C3125 C 0.73708 0.47411 0.77839 0.0
C3126 C 0.74057 0.48242 0.77466 0.0
C3127 C 0.73516 0.48742 0.76828 0.0
C3128 C 0.72621 0.48413 0.76593 0.0
C3129 C 0.72281 0.47591 0.76993 0.0
C3130 C 0.75005 0.48585 0.77756 0.0
C3131 C 0.72026 0.48927 0.75913 0.0
C3132 C 0.73288 0.5586 0.77399 0.0
C3133 C 0.72422 0.55354 0.77766 0.0
C3134 C 0.72971 0.5376 0.77752 0.0
C3135 C 0.73564 0.53181 0.78236 0.0
C3136 C 0.73916 0.52386 0.77828 0.0
C3137 C 0.73642 0.52146 0.76921 0.0
C3138 C 0.73017 0.52713 0.76436 0.0
C3139 C 0.727 0.53521 0.7685 0.0
C3140 C 0.74584 0.51805 0.78368 0.0
C3141 C 0.72676 0.52463 0.75483 0.0
C3142 C 0.76752 0.51313 0.7372 0.0
C3143 C 0.77026 0.5048 0.73338 0.0
C3144 C 0.76633 0.49639 0.73627 0.0
C3145 C 0.75924 0.49628 0.74298 0.0
C3146 C 0.75498 0.48799 0.74591 0.0
C3147 C 0.74823 0.48792 0.75276 0.0
C3148 C 0.7455 0.49615 0.75695 0.0
C3149 C 0.7389 0.49612 0.76415 0.0
C3150 C 0.73607 0.50445 0.7679 0.0
C3151 C 0.73986 0.51289 0.7649 0.0
C3152 C 0.74678 0.51302 0.75799 0.0
C3153 C 0.75113 0.5213 0.75514 0.0
C3154 C 0.75791 0.52136 0.74833 0.0
C3155 C 0.7606 0.51314 0.74409 0.0
C3156 C 0.75641 0.50469 0.74694 0.0
C3157 C 0.74952 0.50462 0.75393 0.0
C3158 C 0.73503 0.45039 0.77776 0.0
C3159 C 0.72905 0.45594 0.78434 0.0
O3160 O 0.78587 0.5463 0.72622 0.0
O3161 O 0.7267 0.5453 0.78183 0.0
O3162 O 0.7245 0.46278 0.77949 0.0
O3163 O 0.78403 0.46528 0.72129 0.0
H3164 H 0.79957 0.54397 0.72872 0.0
H3165 H 0.79247 0.54863 0.74366 0.0
H3166 H 0.78907 0.55942 0.73873 0.0
H3167 H 0.80117 0.55692 0.74018 0.0
H3168 H 0.77001 0.54063 0.72032 0.0
H3169 H 0.79264 0.53357 0.73805 0.0
H3170 H 0.75907 0.51837 0.72064 0.0
H3171 H 0.7574 0.53036 0.71776 0.0
H3172 H 0.7537 0.52579 0.72878 0.0
H3173 H 0.79218 0.52083 0.74794 0.0
H3174 H 0.78771 0.51113 0.74153 0.0
H3175 H 0.78094 0.51591 0.7506 0.0
H3176 H 0.79699 0.46566 0.72769 0.0
H3177 H 0.80227 0.45516 0.71755 0.0
H3178 H 0.79206 0.45372 0.7125 0.0
H3179 H 0.79237 0.44147 0.72811 0.0
H3180 H 0.78702 0.47231 0.73823 0.0
H3181 H 0.77086 0.47425 0.71344 0.0
H3182 H 0.77431 0.48611 0.75211 0.0
H3183 H 0.78228 0.49416 0.74689 0.0
H3184 H 0.7861 0.48285 0.75022 0.0
H3185 H 0.75887 0.48501 0.71185 0.0
H3186 H 0.76307 0.49599 0.71606 0.0
H3187 H 0.75428 0.48978 0.72236 0.0
H3188 H 0.73348 0.4591 0.78979 0.0
H3189 H 0.74136 0.47031 0.78313 0.0
H3190 H 0.71595 0.47334 0.76817 0.0
H3191 H 0.75491 0.48527 0.77169 0.0
H3192 H 0.75283 0.48186 0.78348 0.0
H3193 H 0.74983 0.49323 0.77951 0.0
H3194 H 0.71381 0.48538 0.7574 0.0
H3195 H 0.72419 0.49069 0.75268 0.0
H3196 H 0.71837 0.49601 0.7621 0.0
H3197 H 0.7194 0.55218 0.77183 0.0
H3198 H 0.73101 0.56519 0.77059 0.0
H3199 H 0.73639 0.55429 0.7688 0.0
H3200 H 0.73779 0.56007 0.77973 0.0
H3201 H 0.73765 0.53366 0.78932 0.0
H3202 H 0.72226 0.53947 0.7647 0.0
H3203 H 0.75191 0.51639 0.77935 0.0
H3204 H 0.74239 0.51145 0.7857 0.0
H3205 H 0.74832 0.52155 0.79005 0.0
H3206 H 0.72088 0.52893 0.7526 0.0
H3207 H 0.72453 0.51726 0.75463 0.0
H3208 H 0.73245 0.52562 0.74979 0.0
H3209 H 0.77575 0.50484 0.72828 0.0
H3210 H 0.75684 0.48145 0.74296 0.0
H3211 H 0.74521 0.48132 0.75476 0.0
H3212 H 0.73092 0.50436 0.77334 0.0
H3213 H 0.74938 0.52783 0.75817 0.0
H3214 H 0.76103 0.52794 0.74645 0.0
H3215 H 0.73869 0.44489 0.78159 0.0
H3216 H 0.74032 0.45493 0.77442 0.0
H3217 H 0.73069 0.44717 0.77228 0.0
C3218 C 0.21379 0.45199 0.74045 0.0
C3219 C 0.21336 0.4561 0.73066 0.0
C3220 C 0.22581 0.46796 0.73078 0.0
C3221 C 0.23454 0.47034 0.72732 0.0
C3222 C 0.23908 0.47858 0.72988 0.0
C3223 C 0.23481 0.48451 0.73623 0.0
C3224 C 0.22594 0.4822 0.73973 0.0
C3225 C 0.22148 0.47401 0.7369 0.0
C3226 C 0.24844 0.48092 0.72583 0.0
C3227 C 0.22117 0.48836 0.74652 0.0
C3228 C 0.21228 0.55345 0.72111 0.0
C3229 C 0.21612 0.54591 0.7269 0.0
C3230 C 0.22772 0.53391 0.72681 0.0
C3231 C 0.2259 0.53091 0.7359 0.0
C3232 C 0.23028 0.52318 0.73961 0.0
C3233 C 0.23681 0.51845 0.73424 0.0
C3234 C 0.23889 0.52162 0.72521 0.0
C3235 C 0.23429 0.5293 0.7216 0.0
C3236 C 0.22776 0.51995 0.74924 0.0
C3237 C 0.24588 0.51682 0.71933 0.0
C3238 C 0.28359 0.5343 0.7751 0.0
C3239 C 0.27461 0.53234 0.77814 0.0
C3240 C 0.26969 0.52457 0.77488 0.0
C3241 C 0.27388 0.51874 0.76835 0.0
C3242 C 0.28297 0.52077 0.76524 0.0
C3243 C 0.28777 0.52847 0.76878 0.0
C3244 C 0.26013 0.52247 0.77857 0.0
C3245 C 0.28767 0.51472 0.75832 0.0
C3246 C 0.26841 0.44806 0.78261 0.0
C3247 C 0.27817 0.45226 0.78178 0.0
C3248 C 0.27584 0.46881 0.78098 0.0
C3249 C 0.26975 0.47478 0.78526 0.0
C3250 C 0.26681 0.48281 0.78076 0.0
C3251 C 0.27027 0.48502 0.77186 0.0
C3252 C 0.27673 0.47917 0.76766 0.0
C3253 C 0.27941 0.47109 0.77225 0.0
C3254 C 0.25996 0.4889 0.78548 0.0
C3255 C 0.28084 0.48148 0.75834 0.0
C3256 C 0.23962 0.49314 0.73924 0.0
C3257 C 0.23692 0.50146 0.73524 0.0
C3258 C 0.24095 0.50986 0.73791 0.0
C3259 C 0.24817 0.50998 0.74452 0.0
C3260 C 0.25269 0.51825 0.74705 0.0
C3261 C 0.25961 0.51832 0.75376 0.0
C3262 C 0.26218 0.51015 0.75826 0.0
C3263 C 0.26903 0.51017 0.76526 0.0
C3264 C 0.27147 0.50189 0.76951 0.0
C3265 C 0.26725 0.49352 0.76703 0.0
C3266 C 0.26033 0.49337 0.76012 0.0
C3267 C 0.25582 0.4851 0.75756 0.0
C3268 C 0.24906 0.485 0.75072 0.0
C3269 C 0.24651 0.49317 0.74619 0.0
C3270 C 0.25086 0.50161 0.74876 0.0
C3271 C 0.25781 0.50171 0.7557 0.0
C3272 C 0.29604 0.55031 0.76689 0.0
C3273 C 0.28903 0.55015 0.77482 0.0
O3274 O 0.2219 0.45978 0.7281 0.0
O3275 O 0.27832 0.46103 0.78554 0.0
O3276 O 0.28845 0.54144 0.77879 0.0
O3277 O 0.22322 0.54109 0.72283 0.0
H3278 H 0.20812 0.46161 0.73052 0.0
H3279 H 0.21545 0.45739 0.74559 0.0
H3280 H 0.2192 0.44667 0.74091 0.0
H3281 H 0.20701 0.44879 0.74233 0.0
H3282 H 0.23782 0.46569 0.72256 0.0
H3283 H 0.21468 0.4724 0.73959 0.0
H3284 H 0.24852 0.48805 0.72301 0.0
H3285 H 0.25036 0.4761 0.72025 0.0
H3286 H 0.25377 0.4806 0.73133 0.0
H3287 H 0.21473 0.48514 0.74933 0.0
H3288 H 0.21939 0.49494 0.74305 0.0
H3289 H 0.22588 0.49005 0.75235 0.0
H3290 H 0.21075 0.54129 0.73011 0.0
H3291 H 0.20492 0.55128 0.71965 0.0
H3292 H 0.21479 0.55221 0.71388 0.0
H3293 H 0.21573 0.56535 0.72851 0.0
H3294 H 0.22098 0.53448 0.74012 0.0
H3295 H 0.23573 0.53168 0.71463 0.0
H3296 H 0.23385 0.52077 0.75385 0.0
H3297 H 0.22577 0.51252 0.74918 0.0
H3298 H 0.22197 0.52387 0.75219 0.0
H3299 H 0.24751 0.52072 0.71289 0.0
H3300 H 0.24314 0.50989 0.71743 0.0
H3301 H 0.25237 0.51582 0.72329 0.0
H3302 H 0.28212 0.552 0.77202 0.0
H3303 H 0.27153 0.53682 0.78318 0.0
H3304 H 0.29484 0.5299 0.76668 0.0
H3305 H 0.25501 0.5229 0.77288 0.0
H3306 H 0.25812 0.52731 0.78409 0.0
H3307 H 0.25977 0.51533 0.78137 0.0
H3308 H 0.29423 0.51789 0.75572 0.0
H3309 H 0.28301 0.51333 0.75238 0.0
H3310 H 0.28926 0.50801 0.76161 0.0
H3311 H 0.27999 0.45257 0.77433 0.0
H3312 H 0.26817 0.44102 0.77963 0.0
H3313 H 0.26344 0.45238 0.77875 0.0
H3314 H 0.26624 0.44767 0.78996 0.0
H3315 H 0.26715 0.47302 0.79207 0.0
H3316 H 0.28443 0.46667 0.76908 0.0
H3317 H 0.25401 0.49019 0.78084 0.0
H3318 H 0.2633 0.49567 0.78703 0.0
H3319 H 0.25734 0.48582 0.79204 0.0
H3320 H 0.28639 0.47668 0.75639 0.0
H3321 H 0.28372 0.48863 0.75833 0.0
H3322 H 0.27534 0.48114 0.75299 0.0
H3323 H 0.23141 0.50141 0.73015 0.0
H3324 H 0.25093 0.52475 0.74386 0.0
H3325 H 0.26286 0.52489 0.75542 0.0
H3326 H 0.27674 0.50195 0.77484 0.0
H3327 H 0.25746 0.4786 0.76083 0.0
H3328 H 0.24583 0.47843 0.74905 0.0
H3329 H 0.30284 0.54782 0.76933 0.0
H3330 H 0.29695 0.55741 0.76407 0.0
H3331 H 0.29354 0.54586 0.76117 0.0
C3332 C 0.29437 0.55544 0.23902 0.0
C3333 C 0.29578 0.55029 0.22993 0.0
C3334 C 0.28364 0.53813 0.23024 0.0
C3335 C 0.27531 0.53516 0.22627 0.0
C3336 C 0.2708 0.52703 0.22925 0.0
C3337 C 0.2747 0.52178 0.23648 0.0
C3338 C 0.28316 0.52469 0.24052 0.0
C3339 C 0.28757 0.5328 0.23734 0.0
C3340 C 0.26184 0.52406 0.22472 0.0
C3341 C 0.28751 0.51924 0.24824 0.0
C3342 C 0.27067 0.45099 0.22744 0.0
C3343 C 0.28061 0.45482 0.22727 0.0
C3344 C 0.2781 0.47135 0.22696 0.0
C3345 C 0.28132 0.47407 0.23568 0.0
C3346 C 0.27838 0.4823 0.23968 0.0
C3347 C 0.27195 0.48783 0.23492 0.0
C3348 C 0.26882 0.48517 0.22604 0.0
C3349 C 0.27206 0.47702 0.22212 0.0
C3350 C 0.28218 0.4851 0.24898 0.0
C3351 C 0.26203 0.49091 0.22072 0.0
C3352 C 0.23046 0.47168 0.27943 0.0
C3353 C 0.23936 0.4749 0.28185 0.0
C3354 C 0.24301 0.48314 0.27809 0.0
C3355 C 0.23773 0.48817 0.27162 0.0
C3356 C 0.22876 0.48498 0.2692 0.0
C3357 C 0.22522 0.47682 0.27321 0.0
C3358 C 0.25251 0.48646 0.28104 0.0
C3359 C 0.22294 0.49015 0.26232 0.0
C3360 C 0.22436 0.55782 0.2709 0.0
C3361 C 0.22074 0.55182 0.27892 0.0
C3362 C 0.23106 0.53849 0.27858 0.0
C3363 C 0.2385 0.53427 0.28297 0.0
C3364 C 0.24233 0.52619 0.27946 0.0
C3365 C 0.2386 0.52222 0.27134 0.0
C3366 C 0.23106 0.52642 0.26686 0.0
C3367 C 0.22737 0.5345 0.27051 0.0
C3368 C 0.25036 0.52189 0.2844 0.0
C3369 C 0.22688 0.52234 0.25822 0.0
C3370 C 0.26995 0.51324 0.23985 0.0
C3371 C 0.27265 0.50483 0.23615 0.0
C3372 C 0.26863 0.49649 0.23913 0.0
C3373 C 0.26171 0.49651 0.24603 0.0
C3374 C 0.25745 0.48828 0.24916 0.0
C3375 C 0.25084 0.48835 0.25613 0.0
C3376 C 0.24817 0.49666 0.26019 0.0
C3377 C 0.24162 0.49678 0.26743 0.0
C3378 C 0.23878 0.5052 0.27099 0.0
C3379 C 0.24241 0.51356 0.26762 0.0
C3380 C 0.24928 0.51356 0.26068 0.0
C3381 C 0.25337 0.52181 0.2574 0.0
C3382 C 0.26017 0.52173 0.25061 0.0
C3383 C 0.26305 0.51339 0.24674 0.0
C3384 C 0.25896 0.50499 0.24988 0.0
C3385 C 0.25213 0.50507 0.25692 0.0
C3386 C 0.23718 0.45128 0.2813 0.0
C3387 C 0.23106 0.45683 0.28777 0.0
O3388 O 0.28756 0.54615 0.22706 0.0
O3389 O 0.22773 0.54635 0.28236 0.0
O3390 O 0.22665 0.46371 0.28285 0.0
O3391 O 0.28081 0.4634 0.22297 0.0
H3392 H 0.3011 0.54495 0.23098 0.0
H3393 H 0.29223 0.5506 0.2446 0.0
H3394 H 0.28893 0.56069 0.23825 0.0
H3395 H 0.30092 0.55893 0.24117 0.0
H3396 H 0.27233 0.53928 0.22079 0.0
H3397 H 0.29403 0.53492 0.2405 0.0
H3398 H 0.26241 0.51692 0.2221 0.0
H3399 H 0.25993 0.52867 0.2189 0.0
H3400 H 0.25619 0.52403 0.2299 0.0
H3401 H 0.29393 0.5226 0.25091 0.0
H3402 H 0.28919 0.51225 0.24575 0.0
H3403 H 0.28253 0.51838 0.25402 0.0
H3404 H 0.2831 0.45542 0.23451 0.0
H3405 H 0.2704 0.44411 0.23086 0.0
H3406 H 0.2679 0.45035 0.22031 0.0
H3407 H 0.26619 0.45567 0.23139 0.0
H3408 H 0.28629 0.46987 0.23929 0.0
H3409 H 0.26971 0.47492 0.21533 0.0
H3410 H 0.28471 0.49237 0.24874 0.0
H3411 H 0.28794 0.48066 0.25125 0.0
H3412 H 0.27661 0.48462 0.25422 0.0
H3413 H 0.25956 0.48743 0.21434 0.0
H3414 H 0.26536 0.49759 0.21875 0.0
H3415 H 0.25597 0.49243 0.22511 0.0
H3416 H 0.23538 0.45995 0.29333 0.0
H3417 H 0.24354 0.47108 0.28668 0.0
H3418 H 0.21835 0.47432 0.2714 0.0
H3419 H 0.25739 0.48582 0.27519 0.0
H3420 H 0.25521 0.48244 0.28698 0.0
H3421 H 0.25236 0.49385 0.28297 0.0
H3422 H 0.2165 0.48629 0.26049 0.0
H3423 H 0.22696 0.49156 0.25592 0.0
H3424 H 0.22103 0.49689 0.26527 0.0
H3425 H 0.21492 0.54738 0.27643 0.0
H3426 H 0.21879 0.56228 0.26822 0.0
H3427 H 0.22675 0.55347 0.26514 0.0
H3428 H 0.23027 0.56226 0.27319 0.0
H3429 H 0.24131 0.53736 0.28918 0.0
H3430 H 0.22163 0.53761 0.26697 0.0
H3431 H 0.25627 0.52124 0.27958 0.0
H3432 H 0.24837 0.51483 0.28676 0.0
H3433 H 0.25267 0.52597 0.29048 0.0
H3434 H 0.22095 0.52634 0.25561 0.0
H3435 H 0.22449 0.51515 0.25961 0.0
H3436 H 0.23221 0.5221 0.25273 0.0
H3437 H 0.278 0.50478 0.23091 0.0
H3438 H 0.25922 0.48167 0.24629 0.0
H3439 H 0.24785 0.48179 0.2583 0.0
H3440 H 0.23365 0.50525 0.27644 0.0
H3441 H 0.25141 0.52843 0.26011 0.0
H3442 H 0.26312 0.52829 0.24841 0.0
H3443 H 0.2407 0.44574 0.28519 0.0
H3444 H 0.24257 0.4558 0.27811 0.0
H3445 H 0.23295 0.44812 0.2757 0.0
C3446 C 0.78679 0.4497 0.26718 0.0
C3447 C 0.78869 0.45448 0.27644 0.0
C3448 C 0.77712 0.46672 0.27674 0.0
C3449 C 0.76896 0.46963 0.28087 0.0
C3450 C 0.76477 0.47787 0.27814 0.0
C3451 C 0.76881 0.4833 0.27102 0.0
C3452 C 0.77707 0.48042 0.2668 0.0
C3453 C 0.78117 0.47222 0.26973 0.0
C3454 C 0.756 0.48076 0.28283 0.0
C3455 C 0.78157 0.48603 0.25917 0.0
C3456 C 0.79217 0.53303 0.29695 0.0
C3457 C 0.78992 0.54018 0.28948 0.0
C3458 C 0.77665 0.5324 0.2823 0.0
C3459 C 0.78104 0.52832 0.27476 0.0
C3460 C 0.77693 0.52079 0.27018 0.0
C3461 C 0.76831 0.5172 0.27328 0.0
C3462 C 0.76376 0.52145 0.28072 0.0
C3463 C 0.76794 0.52911 0.28503 0.0
C3464 C 0.78189 0.51659 0.26213 0.0
C3465 C 0.75458 0.51779 0.28422 0.0
C3466 C 0.72685 0.53519 0.22932 0.0
C3467 C 0.73561 0.53212 0.22665 0.0
C3468 C 0.7391 0.52383 0.23015 0.0
C3469 C 0.73385 0.51861 0.23663 0.0
C3470 C 0.72504 0.52169 0.23934 0.0
C3471 C 0.72163 0.52989 0.23557 0.0
C3472 C 0.74841 0.52064 0.22689 0.0
C3473 C 0.71923 0.51633 0.24624 0.0
C3474 C 0.71756 0.44887 0.23706 0.0
C3475 C 0.71407 0.45475 0.22897 0.0
C3476 C 0.72475 0.46819 0.22902 0.0
C3477 C 0.73226 0.47243 0.22453 0.0
C3478 C 0.73637 0.48057 0.22794 0.0
C3479 C 0.73285 0.48457 0.23604 0.0
C3480 C 0.72519 0.48039 0.24058 0.0
C3481 C 0.72123 0.47225 0.23705 0.0
C3482 C 0.74454 0.48485 0.22294 0.0
C3483 C 0.72123 0.48451 0.24923 0.0
C3484 C 0.76447 0.49201 0.26797 0.0
C3485 C 0.76764 0.50025 0.27191 0.0
C3486 C 0.76429 0.50876 0.26898 0.0
C3487 C 0.75754 0.5091 0.26192 0.0
C3488 C 0.75411 0.51754 0.2587 0.0
C3489 C 0.74749 0.5178 0.25172 0.0
C3490 C 0.74411 0.50965 0.24762 0.0
C3491 C 0.73747 0.50984 0.24043 0.0
C3492 C 0.7341 0.50157 0.2367 0.0
C3493 C 0.73721 0.49307 0.23989 0.0
C3494 C 0.74404 0.49274 0.24687 0.0
C3495 C 0.74753 0.48431 0.25003 0.0
C3496 C 0.75424 0.48405 0.25691 0.0
C3497 C 0.75764 0.49221 0.26098 0.0
C3498 C 0.75419 0.50079 0.25792 0.0
C3499 C 0.74745 0.50106 0.25079 0.0
C3500 C 0.73391 0.55578 0.2277 0.0
C3501 C 0.7276 0.5502 0.22121 0.0
O3502 O 0.78075 0.4586 0.27966 0.0
O3503 O 0.72121 0.46021 0.22541 0.0
O3504 O 0.72315 0.54315 0.22608 0.0
O3505 O 0.78063 0.53946 0.2871 0.0
H3506 H 0.79423 0.45981 0.27544 0.0
H3507 H 0.78478 0.45477 0.26182 0.0
H3508 H 0.78108 0.44451 0.26787 0.0
H3509 H 0.7931 0.44621 0.26476 0.0
H3510 H 0.76587 0.46539 0.28627 0.0
H3511 H 0.7875 0.47018 0.26645 0.0
H3512 H 0.75696 0.48778 0.28573 0.0
H3513 H 0.75389 0.47595 0.28847 0.0
H3514 H 0.75032 0.48107 0.27768 0.0
H3515 H 0.78763 0.48257 0.25616 0.0
H3516 H 0.78388 0.49281 0.26192 0.0
H3517 H 0.77649 0.48735 0.25358 0.0
H3518 H 0.79431 0.53893 0.28336 0.0
H3519 H 0.79956 0.53361 0.29897 0.0
H3520 H 0.79086 0.52597 0.2943 0.0
H3521 H 0.7878 0.53404 0.30316 0.0
H3522 H 0.78762 0.53102 0.27233 0.0
H3523 H 0.76456 0.53237 0.29079 0.0
H3524 H 0.78454 0.50977 0.26423 0.0
H3525 H 0.78782 0.52096 0.25973 0.0
H3526 H 0.77705 0.5155 0.25626 0.0
H3527 H 0.75212 0.52163 0.29032 0.0
H3528 H 0.75516 0.5104 0.28613 0.0
H3529 H 0.74931 0.51826 0.27867 0.0
H3530 H 0.73179 0.54725 0.21556 0.0
H3531 H 0.73977 0.53608 0.22181 0.0
H3532 H 0.71488 0.53228 0.23758 0.0
H3533 H 0.75345 0.52107 0.23266 0.0
H3534 H 0.75112 0.52487 0.22104 0.0
H3535 H 0.74793 0.51332 0.22471 0.0
H3536 H 0.71306 0.52018 0.24844 0.0
H3537 H 0.72341 0.51464 0.25244 0.0
H3538 H 0.71686 0.50973 0.24311 0.0
H3539 H 0.70843 0.4592 0.23145 0.0
H3540 H 0.71188 0.44437 0.23977 0.0
H3541 H 0.72006 0.45332 0.24277 0.0
H3542 H 0.72335 0.44449 0.23483 0.0
H3543 H 0.73494 0.46929 0.21834 0.0
H3544 H 0.71544 0.46913 0.24067 0.0
H3545 H 0.75055 0.48534 0.2277 0.0
H3546 H 0.74287 0.49197 0.22072 0.0
H3547 H 0.74654 0.48084 0.21678 0.0
H3548 H 0.71502 0.48065 0.25175 0.0
H3549 H 0.71934 0.49178 0.2479 0.0
H3550 H 0.72654 0.48454 0.25477 0.0
H3551 H 0.77292 0.50004 0.27724 0.0
H3552 H 0.75649 0.52404 0.26155 0.0
H3553 H 0.74506 0.52449 0.24957 0.0
H3554 H 0.7289 0.50176 0.23129 0.0
H3555 H 0.74515 0.47781 0.24717 0.0
H3556 H 0.75669 0.47736 0.25903 0.0
H3557 H 0.73751 0.56143 0.22385 0.0
H3558 H 0.73925 0.5513 0.23078 0.0
H3559 H 0.72981 0.55879 0.23338 0.0
C3560 C 0.53784 0.2224 0.70193 0.0
C3561 C 0.54501 0.2259 0.70897 0.0
C3562 C 0.53475 0.22917 0.72203 0.0
C3563 C 0.53105 0.23732 0.71835 0.0
C3564 C 0.52349 0.24152 0.72254 0.0
C3565 C 0.51951 0.23752 0.73056 0.0
C3566 C 0.52338 0.2295 0.73446 0.0
C3567 C 0.531 0.22547 0.73017 0.0
C3568 C 0.51961 0.25014 0.71826 0.0
C3569 C 0.51932 0.22509 0.74303 0.0
C3570 C 0.44865 0.21519 0.71629 0.0
C3571 C 0.45661 0.2182 0.72212 0.0
C3572 C 0.46966 0.22915 0.72214 0.0
C3573 C 0.47251 0.22705 0.73119 0.0
C3574 C 0.48041 0.23129 0.73502 0.0
C3575 C 0.48548 0.23791 0.72978 0.0
C3576 C 0.4825 0.24021 0.72076 0.0
C3577 C 0.47465 0.23577 0.71705 0.0
C3578 C 0.48343 0.22856 0.74462 0.0
C3579 C 0.4877 0.24729 0.715 0.0
C3580 C 0.47012 0.28457 0.76912 0.0
C3581 C 0.47189 0.27565 0.77234 0.0
C3582 C 0.4798 0.271 0.76948 0.0
C3583 C 0.48593 0.27531 0.76308 0.0
C3584 C 0.48413 0.28433 0.75984 0.0
C3585 C 0.47631 0.2889 0.76304 0.0
C3586 C 0.48168 0.26156 0.77341 0.0
C3587 C 0.49047 0.28916 0.75303 0.0
C3588 C 0.55639 0.27232 0.77598 0.0
C3589 C 0.55242 0.28201 0.7766 0.0
C3590 C 0.53587 0.27861 0.77551 0.0
C3591 C 0.52973 0.27247 0.77987 0.0
C3592 C 0.52172 0.26924 0.77537 0.0
C3593 C 0.51969 0.2725 0.76638 0.0
C3594 C 0.52572 0.27899 0.76204 0.0
C3595 C 0.53381 0.28192 0.76663 0.0
C3596 C 0.51545 0.26235 0.78023 0.0
C3597 C 0.52358 0.2829 0.75262 0.0
C3598 C 0.51094 0.2414 0.73444 0.0
C3599 C 0.50251 0.23825 0.73081 0.0
C3600 C 0.49415 0.24202 0.73358 0.0
C3601 C 0.49417 0.2493 0.74002 0.0
C3602 C 0.48595 0.25362 0.74257 0.0
C3603 C 0.48603 0.26068 0.74903 0.0
C3604 C 0.49431 0.26358 0.75331 0.0
C3605 C 0.49443 0.27058 0.76008 0.0
C3606 C 0.50281 0.2733 0.76414 0.0
C3607 C 0.51112 0.26928 0.76163 0.0
C3608 C 0.51115 0.26231 0.75486 0.0
C3609 C 0.5194 0.25812 0.75214 0.0
C3610 C 0.51936 0.25134 0.74539 0.0
C3611 C 0.51106 0.24833 0.74126 0.0
C3612 C 0.50264 0.25234 0.744 0.0
C3613 C 0.5027 0.25942 0.75073 0.0
C3614 C 0.45033 0.28901 0.76114 0.0
C3615 C 0.45358 0.28622 0.77082 0.0
O3616 O 0.54175 0.22459 0.7179 0.0
O3617 O 0.54354 0.28143 0.78017 0.0
O3618 O 0.46265 0.28923 0.77202 0.0
O3619 O 0.46224 0.22492 0.71807 0.0
H3620 H 0.54644 0.23336 0.70774 0.0
H3621 H 0.53137 0.22633 0.70244 0.0
H3622 H 0.53617 0.21499 0.70316 0.0
H3623 H 0.54054 0.22328 0.69479 0.0
H3624 H 0.53391 0.2404 0.71215 0.0
H3625 H 0.53391 0.21924 0.73302 0.0
H3626 H 0.51246 0.2487 0.71581 0.0
H3627 H 0.52381 0.25272 0.71234 0.0
H3628 H 0.51927 0.25565 0.72352 0.0
H3629 H 0.5233 0.21904 0.74539 0.0
H3630 H 0.51208 0.22283 0.74165 0.0
H3631 H 0.51916 0.23021 0.74869 0.0
H3632 H 0.46057 0.21244 0.72526 0.0
H3633 H 0.4499 0.20771 0.71477 0.0
H3634 H 0.45022 0.21762 0.70905 0.0
H3635 H 0.43713 0.21954 0.72373 0.0
H3636 H 0.46867 0.22203 0.73528 0.0
H3637 H 0.47239 0.23739 0.7101 0.0
H3638 H 0.48291 0.23456 0.74929 0.0
H3639 H 0.49078 0.22648 0.74455 0.0
H3640 H 0.47916 0.22279 0.74751 0.0
H3641 H 0.48387 0.24916 0.70862 0.0
H3642 H 0.49449 0.2445 0.71299 0.0
H3643 H 0.48904 0.25363 0.71908 0.0
H3644 H 0.4531 0.27857 0.77143 0.0
H3645 H 0.46718 0.27243 0.77726 0.0
H3646 H 0.47491 0.29584 0.76069 0.0
H3647 H 0.48088 0.25633 0.7679 0.0
H3648 H 0.4769 0.25968 0.77913 0.0
H3649 H 0.4889 0.26126 0.77599 0.0
H3650 H 0.48746 0.29561 0.75027 0.0
H3651 H 0.492 0.28454 0.74717 0.0
H3652 H 0.49712 0.29094 0.75647 0.0
H3653 H 0.55234 0.28512 0.76957 0.0
H3654 H 0.56348 0.2726 0.77305 0.0
H3655 H 0.552 0.26796 0.7714 0.0
H3656 H 0.55662 0.26904 0.78293 0.0
H3657 H 0.53133 0.27007 0.78678 0.0
H3658 H 0.53836 0.28696 0.76336 0.0
H3659 H 0.51398 0.25638 0.77567 0.0
H3660 H 0.50876 0.26561 0.7818 0.0
H3661 H 0.51849 0.2598 0.78679 0.0
H3662 H 0.52847 0.28856 0.75061 0.0
H3663 H 0.51644 0.28557 0.75249 0.0
H3664 H 0.52395 0.27737 0.74739 0.0
H3665 H 0.50245 0.23279 0.72573 0.0
H3666 H 0.47937 0.25161 0.73956 0.0
H3667 H 0.4795 0.26378 0.75069 0.0
H3668 H 0.50285 0.27865 0.76935 0.0
H3669 H 0.52598 0.26008 0.75517 0.0
H3670 H 0.52592 0.24842 0.74351 0.0
H3671 H 0.45062 0.29663 0.76032 0.0
H3672 H 0.44313 0.28651 0.7599 0.0
H3673 H 0.45483 0.28592 0.75585 0.0
C3674 C 0.53687 0.7113 0.79768 0.0
C3675 C 0.54428 0.71439 0.79072 0.0
C3676 C 0.53721 0.72834 0.78469 0.0
C3677 C 0.53343 0.72491 0.77644 0.0
C3678 C 0.52605 0.72934 0.77207 0.0
C3679 C 0.52235 0.73734 0.77605 0.0
C3680 C 0.52643 0.74106 0.78413 0.0
C3681 C 0.53389 0.73655 0.78829 0.0
C3682 C 0.5221 0.72537 0.76328 0.0
C3683 C 0.52274 0.74964 0.78848 0.0
C3684 C 0.45547 0.71556 0.7694 0.0
C3685 C 0.45956 0.71487 0.77918 0.0
C3686 C 0.47154 0.72718 0.77933 0.0
C3687 C 0.47407 0.73572 0.78305 0.0
C3688 C 0.48243 0.74018 0.7806 0.0
C3689 C 0.48831 0.73605 0.77409 0.0
C3690 C 0.48584 0.72737 0.77034 0.0
C3691 C 0.47756 0.72298 0.77307 0.0
C3692 C 0.48494 0.74932 0.78494 0.0
C3693 C 0.49195 0.7227 0.76343 0.0
C3694 C 0.4731 0.77966 0.73158 0.0
C3695 C 0.47585 0.78235 0.74048 0.0
C3696 C 0.484 0.779 0.74446 0.0
C3697 C 0.48939 0.77265 0.73952 0.0
C3698 C 0.48668 0.77002 0.7305 0.0
C3699 C 0.47865 0.7737 0.7266 0.0
C3700 C 0.48686 0.78229 0.75392 0.0
C3701 C 0.49222 0.76329 0.72499 0.0
C3702 C 0.55889 0.77002 0.72413 0.0
C3703 C 0.55307 0.77795 0.72038 0.0
C3704 C 0.54006 0.77857 0.7313 0.0
C3705 C 0.53619 0.78355 0.73851 0.0
C3706 C 0.52797 0.78053 0.74283 0.0
C3707 C 0.52352 0.77232 0.73983 0.0
C3708 C 0.52737 0.76725 0.73253 0.0
C3709 C 0.53559 0.7704 0.72835 0.0
C3710 C 0.52405 0.78608 0.75061 0.0
C3711 C 0.52277 0.75849 0.72911 0.0
C3712 C 0.51387 0.74144 0.77207 0.0
C3713 C 0.50534 0.73777 0.77498 0.0
C3714 C 0.49704 0.74078 0.77115 0.0
C3715 C 0.4972 0.74778 0.76429 0.0
C3716 C 0.48901 0.75086 0.76016 0.0
C3717 C 0.48923 0.75776 0.75344 0.0
C3718 C 0.49764 0.76181 0.75054 0.0
C3719 C 0.49793 0.76886 0.74373 0.0
C3720 C 0.50647 0.77236 0.74066 0.0
C3721 C 0.51477 0.76904 0.7442 0.0
C3722 C 0.51461 0.76229 0.75129 0.0
C3723 C 0.52282 0.75901 0.75522 0.0
C3724 C 0.5226 0.75223 0.76207 0.0
C3725 C 0.51416 0.74845 0.76523 0.0
C3726 C 0.50579 0.75166 0.76137 0.0
C3727 C 0.50601 0.75863 0.75444 0.0
C3728 C 0.45235 0.77442 0.73384 0.0
C3729 C 0.4568 0.78389 0.73184 0.0
O3730 O 0.54397 0.72387 0.78938 0.0
O3731 O 0.54807 0.78188 0.72746 0.0
O3732 O 0.46527 0.78279 0.72752 0.0
O3733 O 0.46326 0.72331 0.7819 0.0
H3734 H 0.54291 0.71077 0.78411 0.0
H3735 H 0.52989 0.71288 0.79498 0.0
H3736 H 0.53788 0.71491 0.80436 0.0
H3737 H 0.53717 0.70374 0.7989 0.0
H3738 H 0.53621 0.71881 0.77333 0.0
H3739 H 0.53694 0.73924 0.79458 0.0
H3740 H 0.51494 0.72282 0.76455 0.0
H3741 H 0.52623 0.71957 0.76064 0.0
H3742 H 0.52178 0.7308 0.75786 0.0
H3743 H 0.52683 0.75182 0.79461 0.0
H3744 H 0.51545 0.7484 0.79063 0.0
H3745 H 0.52278 0.75536 0.78335 0.0
H3746 H 0.46508 0.70963 0.77916 0.0
H3747 H 0.45215 0.70888 0.76744 0.0
H3748 H 0.46093 0.7172 0.76426 0.0
H3749 H 0.45024 0.72105 0.769 0.0
H3750 H 0.46945 0.7389 0.78791 0.0
H3751 H 0.47586 0.71631 0.77019 0.0
H3752 H 0.4921 0.74918 0.78768 0.0
H3753 H 0.48016 0.75109 0.79062 0.0
H3754 H 0.4847 0.75484 0.77962 0.0
H3755 H 0.48841 0.71672 0.7601 0.0
H3756 H 0.4982 0.72018 0.76702 0.0
H3757 H 0.49424 0.72763 0.75797 0.0
H3758 H 0.45776 0.78761 0.73846 0.0
H3759 H 0.4718 0.78722 0.74428 0.0
H3760 H 0.47653 0.77175 0.71969 0.0
H3761 H 0.4859 0.7766 0.759 0.0
H3762 H 0.48274 0.78823 0.75623 0.0
H3763 H 0.49429 0.78435 0.75396 0.0
H3764 H 0.48848 0.76094 0.7187 0.0
H3765 H 0.4939 0.75718 0.72927 0.0
H3766 H 0.49883 0.76665 0.72283 0.0
H3767 H 0.54825 0.77521 0.71503 0.0
H3768 H 0.56301 0.76699 0.71849 0.0
H3769 H 0.55438 0.76448 0.72709 0.0
H3770 H 0.56366 0.7725 0.72964 0.0
H3771 H 0.53965 0.78983 0.74076 0.0
H3772 H 0.53844 0.76639 0.72282 0.0
H3773 H 0.52324 0.78166 0.75686 0.0
H3774 H 0.51709 0.78852 0.74867 0.0
H3775 H 0.5285 0.79215 0.75236 0.0
H3776 H 0.52643 0.75551 0.72313 0.0
H3777 H 0.51552 0.75985 0.72706 0.0
H3778 H 0.52254 0.75328 0.73477 0.0
H3779 H 0.50516 0.73232 0.78015 0.0
H3780 H 0.48232 0.74799 0.76208 0.0
H3781 H 0.4827 0.75985 0.75051 0.0
H3782 H 0.50666 0.7776 0.73528 0.0
H3783 H 0.52952 0.76166 0.75304 0.0
H3784 H 0.52914 0.74997 0.76484 0.0
H3785 H 0.44557 0.77518 0.73731 0.0
H3786 H 0.45687 0.77038 0.7385 0.0
H3787 H 0.45132 0.77052 0.72733 0.0
C3788 C 0.47055 0.80323 0.28685 0.0
C3789 C 0.46287 0.79728 0.28246 0.0
C3790 C 0.47212 0.78395 0.27811 0.0
C3791 C 0.476 0.78778 0.27002 0.0
C3792 C 0.48342 0.78357 0.26559 0.0
C3793 C 0.48716 0.77544 0.26939 0.0
C3794 C 0.48312 0.77143 0.27738 0.0
C3795 C 0.47557 0.77568 0.28157 0.0
C3796 C 0.48738 0.78792 0.25693 0.0
C3797 C 0.48692 0.76276 0.28161 0.0
C3798 C 0.55834 0.7878 0.26279 0.0
C3799 C 0.55478 0.7862 0.27262 0.0
C3800 C 0.53804 0.78576 0.2714 0.0
C3801 C 0.53561 0.77718 0.27527 0.0
C3802 C 0.52717 0.77281 0.27301 0.0
C3803 C 0.52115 0.77706 0.26663 0.0
C3804 C 0.52355 0.78582 0.26286 0.0
C3805 C 0.53192 0.79012 0.26543 0.0
C3806 C 0.5247 0.76365 0.27744 0.0
C3807 C 0.51731 0.79064 0.2561 0.0
C3808 C 0.53533 0.73346 0.22396 0.0
C3809 C 0.53339 0.73096 0.23312 0.0
C3810 C 0.52546 0.73418 0.23756 0.0
C3811 C 0.51952 0.74024 0.23278 0.0
C3812 C 0.5215 0.74274 0.22351 0.0
C3813 C 0.5293 0.73916 0.21917 0.0
C3814 C 0.5234 0.73103 0.2473 0.0
C3815 C 0.51539 0.74919 0.21816 0.0
C3816 C 0.4495 0.7408 0.21953 0.0
C3817 C 0.45555 0.73304 0.21592 0.0
C3818 C 0.46882 0.73296 0.22659 0.0
C3819 C 0.47306 0.72816 0.23379 0.0
C3820 C 0.48134 0.73143 0.23778 0.0
C3821 C 0.48547 0.7397 0.23446 0.0
C3822 C 0.48125 0.74461 0.22717 0.0
C3823 C 0.47296 0.74122 0.22334 0.0
C3824 C 0.48566 0.72606 0.24557 0.0
C3825 C 0.4855 0.75345 0.22342 0.0
C3826 C 0.4956 0.77148 0.26526 0.0
C3827 C 0.50415 0.77532 0.26782 0.0
C3828 C 0.51237 0.77237 0.26385 0.0
C3829 C 0.51211 0.76528 0.25718 0.0
C3830 C 0.52022 0.7623 0.25287 0.0
C3831 C 0.51991 0.75528 0.24638 0.0
C3832 C 0.51148 0.75097 0.24392 0.0
C3833 C 0.5111 0.74378 0.23736 0.0
C3834 C 0.50253 0.74 0.23475 0.0
C3835 C 0.4943 0.74323 0.23845 0.0
C3836 C 0.49457 0.75016 0.24526 0.0
C3837 C 0.48642 0.75338 0.2493 0.0
C3838 C 0.48673 0.76034 0.25587 0.0
C3839 C 0.49521 0.76433 0.25866 0.0
C3840 C 0.50351 0.76119 0.25466 0.0
C3841 C 0.50319 0.75406 0.24799 0.0
C3842 C 0.55494 0.74167 0.22022 0.0
C3843 C 0.55189 0.73173 0.22249 0.0
O3844 O 0.46518 0.78803 0.28284 0.0
O3845 O 0.4608 0.7294 0.22304 0.0
O3846 O 0.54287 0.73029 0.21954 0.0
O3847 O 0.54615 0.7901 0.27349 0.0
H3848 H 0.46188 0.79943 0.27516 0.0
H3849 H 0.47713 0.80251 0.28302 0.0
H3850 H 0.47169 0.80111 0.29414 0.0
H3851 H 0.4687 0.81063 0.28665 0.0
H3852 H 0.47334 0.79407 0.26711 0.0
H3853 H 0.47251 0.77271 0.28775 0.0
H3854 H 0.49435 0.79084 0.25845 0.0
H3855 H 0.48301 0.79353 0.25421 0.0
H3856 H 0.48816 0.78264 0.25149 0.0
H3857 H 0.48309 0.76056 0.28791 0.0
H3858 H 0.49432 0.76389 0.28343 0.0
H3859 H 0.48656 0.75709 0.27651 0.0
H3860 H 0.55432 0.77863 0.27389 0.0
H3861 H 0.56524 0.78468 0.26193 0.0
H3862 H 0.55891 0.7953 0.26122 0.0
H3863 H 0.55351 0.78455 0.25776 0.0
H3864 H 0.54024 0.77398 0.28016 0.0
H3865 H 0.53382 0.79683 0.26262 0.0
H3866 H 0.51756 0.76376 0.28024 0.0
H3867 H 0.52953 0.76185 0.28311 0.0
H3868 H 0.52491 0.75815 0.27217 0.0
H3869 H 0.52082 0.79664 0.25272 0.0
H3870 H 0.51117 0.79314 0.25984 0.0
H3871 H 0.51484 0.7858 0.25069 0.0
H3872 H 0.55236 0.73066 0.2301 0.0
H3873 H 0.53796 0.72633 0.23672 0.0
H3874 H 0.53085 0.74096 0.21206 0.0
H3875 H 0.5246 0.73685 0.25211 0.0
H3876 H 0.52785 0.72525 0.24949 0.0
H3877 H 0.51605 0.7288 0.24794 0.0
H3878 H 0.51872 0.75168 0.21168 0.0
H3879 H 0.51361 0.75524 0.22242 0.0
H3880 H 0.50885 0.74552 0.21632 0.0
H3881 H 0.46018 0.73586 0.21043 0.0
H3882 H 0.44519 0.7436 0.21385 0.0
H3883 H 0.45385 0.74652 0.22229 0.0
H3884 H 0.4449 0.73823 0.22515 0.0
H3885 H 0.46984 0.72182 0.23628 0.0
H3886 H 0.46981 0.74512 0.21783 0.0
H3887 H 0.48665 0.73058 0.25166 0.0
H3888 H 0.49259 0.72371 0.24343 0.0
H3889 H 0.48139 0.71994 0.24763 0.0
H3890 H 0.4816 0.75621 0.21743 0.0
H3891 H 0.49274 0.75228 0.22125 0.0
H3892 H 0.48569 0.75874 0.22892 0.0
H3893 H 0.5044 0.78082 0.27286 0.0
H3894 H 0.52691 0.76535 0.25447 0.0
H3895 H 0.52637 0.75328 0.24329 0.0
H3896 H 0.50225 0.73465 0.22955 0.0
H3897 H 0.4797 0.75055 0.24743 0.0
H3898 H 0.48025 0.76256 0.25873 0.0
H3899 H 0.55461 0.74294 0.21266 0.0
H3900 H 0.5621 0.74307 0.22267 0.0
H3901 H 0.55033 0.74658 0.22372 0.0
C3902 C 0.54019 0.22731 0.30783 0.0
C3903 C 0.54225 0.22138 0.2994 0.0
C3904 C 0.53615 0.22994 0.28656 0.0
C3905 C 0.53254 0.22457 0.2794 0.0
C3906 C 0.52485 0.22749 0.27431 0.0
C3907 C 0.52063 0.23591 0.27657 0.0
C3908 C 0.52439 0.24141 0.28376 0.0
C3909 C 0.53223 0.23841 0.28856 0.0
C3910 C 0.52112 0.22149 0.26664 0.0
C3911 C 0.52002 0.25034 0.2865 0.0
C3912 C 0.44962 0.22677 0.27458 0.0
C3913 C 0.45343 0.22488 0.28427 0.0
C3914 C 0.46995 0.22446 0.28094 0.0
C3915 C 0.4728 0.23321 0.28404 0.0
C3916 C 0.48114 0.23727 0.28097 0.0
C3917 C 0.48666 0.23254 0.27456 0.0
C3918 C 0.48392 0.22361 0.27163 0.0
C3919 C 0.47565 0.21963 0.27497 0.0
C3920 C 0.48403 0.24663 0.28456 0.0
C3921 C 0.48966 0.21833 0.26486 0.0
C3922 C 0.46884 0.27626 0.23345 0.0
C3923 C 0.47262 0.27909 0.24195 0.0
C3924 C 0.48095 0.27546 0.24522 0.0
C3925 C 0.48558 0.26881 0.23994 0.0
C3926 C 0.48183 0.26596 0.23138 0.0
C3927 C 0.47352 0.26975 0.22824 0.0
C3928 C 0.4848 0.27874 0.25435 0.0
C3929 C 0.48658 0.25888 0.22559 0.0
C3930 C 0.55631 0.28442 0.24208 0.0
C3931 C 0.55224 0.28248 0.23252 0.0
C3932 C 0.53567 0.28105 0.23483 0.0
C3933 C 0.52973 0.28506 0.24115 0.0
C3934 C 0.5218 0.28031 0.24432 0.0
C3935 C 0.51963 0.27144 0.24081 0.0
C3936 C 0.52546 0.2675 0.23412 0.0
C3937 C 0.53347 0.27232 0.23126 0.0
C3938 C 0.51576 0.28478 0.25143 0.0
C3939 C 0.52318 0.25823 0.22995 0.0
C3940 C 0.51199 0.23869 0.27181 0.0
C3941 C 0.50368 0.23457 0.27477 0.0
C3942 C 0.49523 0.23699 0.27085 0.0
C3943 C 0.495 0.24372 0.26375 0.0
C3944 C 0.48662 0.24631 0.25963 0.0
C3945 C 0.48641 0.2532 0.25292 0.0
C3946 C 0.49458 0.25771 0.24998 0.0
C3947 C 0.49439 0.26494 0.24339 0.0
C3948 C 0.50267 0.26909 0.24042 0.0
C3949 C 0.51118 0.2664 0.24403 0.0
C3950 C 0.51149 0.25935 0.25082 0.0
C3951 C 0.51989 0.25663 0.2548 0.0
C3952 C 0.52009 0.24977 0.26157 0.0
C3953 C 0.51189 0.24546 0.26472 0.0
C3954 C 0.50335 0.24802 0.26073 0.0
C3955 C 0.50315 0.25499 0.25379 0.0
C3956 C 0.44902 0.2803 0.24168 0.0
C3957 C 0.45473 0.28549 0.23433 0.0
O3958 O 0.54338 0.2269 0.29162 0.0
O3959 O 0.54334 0.28583 0.23209 0.0
O3960 O 0.46075 0.27954 0.23003 0.0
O3961 O 0.46182 0.22044 0.28363 0.0
H3962 H 0.53629 0.21651 0.29832 0.0
H3963 H 0.53346 0.23075 0.30694 0.0
H3964 H 0.5457 0.23266 0.30879 0.0
H3965 H 0.53972 0.22296 0.31417 0.0
H3966 H 0.53572 0.21805 0.27787 0.0
H3967 H 0.53518 0.24256 0.29406 0.0
H3968 H 0.51438 0.21839 0.26878 0.0
H3969 H 0.52588 0.21585 0.26492 0.0
H3970 H 0.51991 0.22571 0.26034 0.0
H3971 H 0.52327 0.25336 0.29277 0.0
H3972 H 0.51253 0.24921 0.28783 0.0
H3973 H 0.5207 0.25541 0.28077 0.0
H3974 H 0.45435 0.23155 0.28789 0.0
H3975 H 0.44286 0.23025 0.27501 0.0
H3976 H 0.44869 0.22023 0.27072 0.0
H3977 H 0.45447 0.23136 0.2707 0.0
H3978 H 0.46864 0.23684 0.28897 0.0
H3979 H 0.47345 0.21283 0.27273 0.0
H3980 H 0.49133 0.24657 0.28692 0.0
H3981 H 0.47962 0.24887 0.29037 0.0
H3982 H 0.48354 0.25181 0.27891 0.0
H3983 H 0.4862 0.21179 0.26269 0.0
H3984 H 0.4964 0.21668 0.26807 0.0
H3985 H 0.4911 0.22263 0.25864 0.0
H3986 H 0.45875 0.29118 0.23765 0.0
H3987 H 0.46916 0.2841 0.24612 0.0
H3988 H 0.47059 0.2676 0.22169 0.0
H3989 H 0.48483 0.27291 0.25934 0.0
H3990 H 0.48071 0.2844 0.25733 0.0
H3991 H 0.49206 0.2812 0.25347 0.0
H3992 H 0.48257 0.25707 0.21929 0.0
H3993 H 0.48765 0.25252 0.22973 0.0
H3994 H 0.4935 0.26157 0.22347 0.0
H3995 H 0.55216 0.27489 0.23145 0.0
H3996 H 0.56343 0.28172 0.2426 0.0
H3997 H 0.55201 0.28094 0.24747 0.0
H3998 H 0.55652 0.29194 0.24346 0.0
H3999 H 0.53145 0.29187 0.24376 0.0
H4000 H 0.53793 0.26937 0.22611 0.0
H4001 H 0.51424 0.27988 0.25718 0.0
H4002 H 0.50909 0.28663 0.2482 0.0
H4003 H 0.51902 0.29113 0.25431 0.0
H4004 H 0.52785 0.25658 0.22413 0.0
H4005 H 0.51593 0.25805 0.22743 0.0
H4006 H 0.52381 0.25278 0.23531 0.0
H4007 H 0.50378 0.22948 0.28029 0.0
H4008 H 0.4801 0.24309 0.26161 0.0
H4009 H 0.47975 0.25496 0.25006 0.0
H4010 H 0.50247 0.27465 0.23538 0.0
H4011 H 0.52641 0.25979 0.25275 0.0
H4012 H 0.52676 0.24794 0.26436 0.0
H4013 H 0.44414 0.28505 0.24504 0.0
H4014 H 0.45359 0.27745 0.24711 0.0
H4015 H 0.44503 0.2745 0.23854 0.0
H4016 H 0.19451 0.18152 0.12305 0.0
H4017 H 0.20126 0.19062 0.1104 0.0
H4018 H 0.18086 0.17933 0.09167 0.0
H4019 H 0.17411 0.17013 0.10432 0.0
H4020 H 0.19879 0.17877 0.08482 0.0
H4021 H 0.1789 0.20095 0.09832 0.0
H4022 H 0.17231 0.20996 0.111 0.0
H4023 H 0.19903 0.22205 0.11662 0.0
H4024 H 0.20581 0.21301 0.10405 0.0
H4025 H 0.21466 0.20727 0.04819 0.0
H4026 H 0.2044 0.19995 0.05953 0.0
H4027 H 0.21989 0.21293 0.08154 0.0
H4028 H 0.2298 0.22074 0.07016 0.0
H4029 H 0.20276 0.21278 0.08601 0.0
H4030 H 0.22307 0.1897 0.07406 0.0
H4031 H 0.23024 0.18042 0.0619 0.0
H4032 H 0.20353 0.16972 0.05399 0.0
H4033 H 0.19619 0.17903 0.06604 0.0
C4034 C 0.19147 0.18096 0.11624 0.0
C4035 C 0.18379 0.17509 0.11467 0.0
C4036 C 0.19528 0.18622 0.10903 0.0
C4037 C 0.19152 0.18571 0.10011 0.0
C4038 C 0.18385 0.17986 0.09852 0.0
C4039 C 0.17997 0.17465 0.10575 0.0
C4040 C 0.19582 0.19105 0.09242 0.0
C4041 C 0.19952 0.18623 0.08498 0.0
C4042 C 0.19694 0.20075 0.09276 0.0
C4043 C 0.19287 0.20624 0.10028 0.0
C4044 C 0.18338 0.20548 0.1023 0.0
C4045 C 0.17961 0.2106 0.10946 0.0
C4046 C 0.18525 0.21656 0.11462 0.0
C4047 C 0.19467 0.21742 0.11262 0.0
C4048 C 0.19848 0.21231 0.10547 0.0
C4049 C 0.21576 0.20874 0.05543 0.0
C4050 C 0.22299 0.2147 0.05828 0.0
C4051 C 0.20994 0.20445 0.06193 0.0
C4052 C 0.21145 0.20573 0.07142 0.0
C4053 C 0.21855 0.21182 0.07426 0.0
C4054 C 0.22423 0.21627 0.06777 0.0
C4055 C 0.20592 0.2005 0.07844 0.0
C4056 C 0.20197 0.20533 0.08577 0.0
C4057 C 0.20467 0.19079 0.07807 0.0
C4058 C 0.20908 0.18513 0.07088 0.0
C4059 C 0.21873 0.18541 0.06969 0.0
C4060 C 0.22282 0.18014 0.06282 0.0
C4061 C 0.21734 0.1745 0.05716 0.0
C4062 C 0.20776 0.1741 0.05837 0.0
C4063 C 0.20363 0.17937 0.06522 0.0
H4064 H 0.22052 0.17043 0.05185 0.0
H4065 H 0.18232 0.22052 0.12017 0.0
H4066 H 0.80558 0.17782 0.11841 0.0
H4067 H 0.79926 0.18702 0.10582 0.0
H4068 H 0.82686 0.19422 0.09678 0.0
H4069 H 0.83326 0.18494 0.10935 0.0
H4070 H 0.81594 0.20912 0.09709 0.0
H4071 H 0.81396 0.17862 0.08488 0.0
H4072 H 0.80985 0.16206 0.08487 0.0
H4073 H 0.7811 0.16845 0.08714 0.0
H4074 H 0.78505 0.18507 0.08729 0.0
H4075 H 0.80037 0.22978 0.05533 0.0
H4076 H 0.80823 0.21952 0.06616 0.0
H4077 H 0.78184 0.21025 0.07692 0.0
H4078 H 0.77397 0.22034 0.06598 0.0
H4079 H 0.79316 0.19603 0.07489 0.0
H4080 H 0.79519 0.2264 0.08812 0.0
H4081 H 0.79923 0.24298 0.08825 0.0
H4082 H 0.82783 0.23681 0.08417 0.0
H4083 H 0.82394 0.22018 0.08388 0.0
C4084 C 0.81032 0.18126 0.11368 0.0
C4085 C 0.81993 0.18059 0.11486 0.0
C4086 C 0.80669 0.18653 0.10649 0.0
C4087 C 0.81259 0.19121 0.10028 0.0
C4088 C 0.82219 0.19065 0.10148 0.0
C4089 C 0.82583 0.18537 0.10869 0.0
C4090 C 0.80869 0.19682 0.09266 0.0
C4091 C 0.81108 0.20623 0.09213 0.0
C4092 C 0.80222 0.19308 0.0863 0.0
C4093 C 0.79981 0.18309 0.08617 0.0
C4094 C 0.80677 0.1765 0.08544 0.0
C4095 C 0.80447 0.1671 0.0854 0.0
C4096 C 0.79522 0.16421 0.08602 0.0
C4097 C 0.78826 0.17071 0.08666 0.0
C4098 C 0.79052 0.18012 0.08672 0.0
C4099 C 0.79626 0.22544 0.05992 0.0
C4100 C 0.78655 0.22574 0.05971 0.0
C4101 C 0.80075 0.21964 0.06615 0.0
C4102 C 0.79563 0.21416 0.0724 0.0
C4103 C 0.78594 0.21438 0.07213 0.0
C4104 C 0.78145 0.22015 0.06589 0.0
C4105 C 0.80031 0.20835 0.07939 0.0
C4106 C 0.79808 0.19891 0.0798 0.0
C4107 C 0.80691 0.21206 0.08565 0.0
C4108 C 0.80926 0.22205 0.08588 0.0
C4109 C 0.80233 0.22858 0.08718 0.0
C4110 C 0.80459 0.23799 0.0873 0.0
C4111 C 0.81377 0.24095 0.0862 0.0
C4112 C 0.82072 0.2345 0.08501 0.0
C4113 C 0.81849 0.22509 0.08487 0.0
H4114 H 0.81551 0.24823 0.08629 0.0
H4115 H 0.79345 0.15693 0.08599 0.0
H4116 H 0.82528 0.81547 0.12608 0.0
H4117 H 0.81935 0.80689 0.11277 0.0
H4118 H 0.81728 0.83227 0.0973 0.0
H4119 H 0.82322 0.84088 0.11055 0.0
H4120 H 0.8019 0.82189 0.09544 0.0
H4121 H 0.83472 0.81703 0.09338 0.0
H4122 H 0.84994 0.81217 0.09909 0.0
H4123 H 0.83932 0.78462 0.10324 0.0
H4124 H 0.824 0.78935 0.09766 0.0
H4125 H 0.79712 0.80605 0.04977 0.0
H4126 H 0.80214 0.81313 0.06422 0.0
H4127 H 0.80422 0.7862 0.07678 0.0
H4128 H 0.79945 0.77907 0.06217 0.0
H4129 H 0.81889 0.7964 0.08095 0.0
H4130 H 0.78631 0.80095 0.08221 0.0
H4131 H 0.77107 0.80573 0.07647 0.0
H4132 H 0.78104 0.83369 0.074 0.0
H4133 H 0.79638 0.82907 0.0796 0.0
C4134 C 0.82366 0.81922 0.11981 0.0
C4135 C 0.82472 0.82887 0.11939 0.0
C4136 C 0.82026 0.8143 0.11221 0.0
C4137 C 0.81792 0.81893 0.10401 0.0
C4138 C 0.81899 0.82856 0.10357 0.0
C4139 C 0.82237 0.83347 0.11116 0.0
C4140 C 0.81421 0.81381 0.0959 0.0
C4141 C 0.80566 0.81638 0.09222 0.0
C4142 C 0.81897 0.80642 0.09186 0.0
C4143 C 0.82819 0.80356 0.0952 0.0
C4144 C 0.83561 0.80995 0.09558 0.0
C4145 C 0.84426 0.80722 0.09878 0.0
C4146 C 0.84559 0.7981 0.10155 0.0
C4147 C 0.83828 0.79168 0.1011 0.0
C4148 C 0.82961 0.79439 0.09792 0.0
C4149 C 0.79849 0.80165 0.05566 0.0
C4150 C 0.79763 0.79202 0.05491 0.0
C4151 C 0.80135 0.8057 0.06393 0.0
C4152 C 0.80338 0.80021 0.07167 0.0
C4153 C 0.80261 0.79058 0.07093 0.0
C4154 C 0.79981 0.78651 0.06262 0.0
C4155 C 0.80662 0.80458 0.0804 0.0
C4156 C 0.81508 0.80186 0.08421 0.0
C4157 C 0.80176 0.81182 0.08458 0.0
C4158 C 0.79252 0.81465 0.08127 0.0
C4159 C 0.78527 0.80811 0.08038 0.0
C4160 C 0.77661 0.81079 0.07716 0.0
C4161 C 0.77509 0.82 0.07485 0.0
C4162 C 0.78223 0.82656 0.07578 0.0
C4163 C 0.7909 0.82391 0.079 0.0
H4164 H 0.76839 0.82206 0.07236 0.0
H4165 H 0.85229 0.79599 0.10402 0.0
H4166 H 0.19318 0.84351 0.10608 0.0
H4167 H 0.20058 0.83502 0.0937 0.0
H4168 H 0.18931 0.80951 0.10471 0.0
H4169 H 0.18221 0.81791 0.11733 0.0
H4170 H 0.20697 0.80774 0.10087 0.0
H4171 H 0.18072 0.81952 0.08479 0.0
H4172 H 0.17004 0.83139 0.07925 0.0
H4173 H 0.19227 0.84511 0.06476 0.0
H4174 H 0.20312 0.83339 0.07032 0.0
H4175 H 0.21586 0.77867 0.06331 0.0
H4176 H 0.20771 0.78816 0.07443 0.0
H4177 H 0.22272 0.81227 0.0647 0.0
H4178 H 0.23097 0.80277 0.05356 0.0
H4179 H 0.20345 0.81513 0.06757 0.0
H4180 H 0.2296 0.80302 0.0837 0.0
H4181 H 0.23999 0.7908 0.08901 0.0
H4182 H 0.21746 0.77738 0.10331 0.0
H4183 H 0.20689 0.78945 0.09796 0.0
C4184 C 0.1923 0.83609 0.10589 0.0
C4185 C 0.18712 0.8314 0.11273 0.0
C4186 C 0.19645 0.83125 0.09874 0.0
C4187 C 0.19544 0.82163 0.09822 0.0
C4188 C 0.19017 0.81694 0.10496 0.0
C4189 C 0.18604 0.82176 0.11213 0.0
C4190 C 0.2002 0.8164 0.0909 0.0
C4191 C 0.20609 0.80929 0.09359 0.0
C4192 C 0.19926 0.81856 0.0814 0.0
C4193 C 0.19275 0.82563 0.07806 0.0
C4194 C 0.18335 0.82512 0.08049 0.0
C4195 C 0.17726 0.8318 0.07733 0.0
C4196 C 0.18048 0.83901 0.07168 0.0
C4197 C 0.18979 0.83953 0.06915 0.0
C4198 C 0.19591 0.83286 0.0723 0.0
C4199 C 0.21733 0.78602 0.06345 0.0
C4200 C 0.22391 0.79 0.05744 0.0
C4201 C 0.21271 0.79141 0.06983 0.0
C4202 C 0.21463 0.8009 0.07039 0.0
C4203 C 0.2211 0.80496 0.06433 0.0
C4204 C 0.22579 0.79954 0.05797 0.0
C4205 C 0.21011 0.80646 0.07758 0.0
C4206 C 0.20431 0.81362 0.07486 0.0
C4207 C 0.21109 0.80433 0.08707 0.0
C4208 C 0.21744 0.7971 0.09036 0.0
C4209 C 0.22684 0.79743 0.08792 0.0
C4210 C 0.23277 0.79053 0.09094 0.0
C4211 C 0.22938 0.78331 0.09648 0.0
C4212 C 0.22007 0.78297 0.09901 0.0
C4213 C 0.21411 0.78985 0.096 0.0
H4214 H 0.23398 0.77797 0.09881 0.0
H4215 H 0.17575 0.84418 0.06924 0.0
H4216 H 0.20182 0.83008 0.88491 0.0
H4217 H 0.20758 0.82107 0.89794 0.0
H4218 H 0.17983 0.81796 0.90848 0.0
H4219 H 0.17404 0.82722 0.8956 0.0
H4220 H 0.19205 0.82204 0.92214 0.0
H4221 H 0.18985 0.80041 0.89728 0.0
H4222 H 0.19266 0.79461 0.88159 0.0
H4223 H 0.22192 0.79545 0.88657 0.0
H4224 H 0.21929 0.80138 0.90225 0.0
H4225 H 0.19983 0.78462 0.9531 0.0
H4226 H 0.19439 0.79474 0.94074 0.0
H4227 H 0.22222 0.79758 0.93034 0.0
H4228 H 0.22768 0.78739 0.94266 0.0
H4229 H 0.21009 0.79386 0.9167 0.0
H4230 H 0.2123 0.81522 0.94169 0.0
H4231 H 0.20949 0.82104 0.95737 0.0
H4232 H 0.18026 0.8207 0.95221 0.0
H4233 H 0.18288 0.81476 0.93653 0.0
C4234 C 0.19695 0.82756 0.89005 0.0
C4235 C 0.18747 0.82936 0.88921 0.0
C4236 C 0.20024 0.82234 0.89745 0.0
C4237 C 0.19412 0.81876 0.90413 0.0
C4238 C 0.18467 0.82064 0.90339 0.0
C4239 C 0.18137 0.82586 0.89598 0.0
C4240 C 0.19758 0.81302 0.91187 0.0
C4241 C 0.19589 0.81581 0.92096 0.0
C4242 C 0.20278 0.80502 0.91032 0.0
C4243 C 0.20438 0.80142 0.9009 0.0
C4244 C 0.19689 0.79943 0.895 0.0
C4245 C 0.19845 0.7961 0.88612 0.0
C4246 C 0.20746 0.79468 0.88308 0.0
C4247 C 0.21494 0.79656 0.88893 0.0
C4248 C 0.21342 0.7999 0.89782 0.0
C4249 C 0.2048 0.78751 0.94825 0.0
C4250 C 0.2142 0.78535 0.94894 0.0
C4251 C 0.20169 0.79329 0.9412 0.0
C4252 C 0.20792 0.79701 0.93468 0.0
C4253 C 0.21731 0.79483 0.93532 0.0
C4254 C 0.22042 0.78906 0.94238 0.0
C4255 C 0.20457 0.80288 0.92698 0.0
C4256 C 0.20627 0.8001 0.91789 0.0
C4257 C 0.19939 0.81089 0.92854 0.0
C4258 C 0.19778 0.81446 0.93797 0.0
C4259 C 0.20526 0.81631 0.94392 0.0
C4260 C 0.20371 0.81965 0.95281 0.0
C4261 C 0.1947 0.82121 0.95579 0.0
C4262 C 0.18723 0.81947 0.94989 0.0
C4263 C 0.18875 0.81613 0.941 0.0
H4264 H 0.19351 0.8238 0.96267 0.0
H4265 H 0.20865 0.7921 0.8762 0.0
H4266 H 0.18433 0.17316 0.89464 0.0
H4267 H 0.19343 0.1798 0.90725 0.0
H4268 H 0.17772 0.20471 0.90549 0.0
H4269 H 0.16887 0.19829 0.8926 0.0
H4270 H 0.19543 0.20883 0.907 0.0
H4271 H 0.17432 0.18865 0.92312 0.0
H4272 H 0.16623 0.17395 0.9267 0.0
H4273 H 0.19215 0.1614 0.93296 0.0
H4274 H 0.20041 0.17599 0.9293 0.0
H4275 H 0.21377 0.2281 0.9482 0.0
H4276 H 0.20277 0.22152 0.93706 0.0
H4277 H 0.21786 0.19618 0.93706 0.0
H4278 H 0.22873 0.20265 0.94835 0.0
H4279 H 0.19968 0.1926 0.93691 0.0
H4280 H 0.22077 0.21253 0.92002 0.0
H4281 H 0.22889 0.22723 0.9165 0.0
H4282 H 0.20289 0.24022 0.91168 0.0
H4283 H 0.19461 0.22562 0.91531 0.0
C4284 C 0.18284 0.18008 0.89688 0.0
C4285 C 0.17584 0.18517 0.89259 0.0
C4286 C 0.18798 0.18383 0.90418 0.0
C4287 C 0.18618 0.19271 0.90742 0.0
C4288 C 0.17921 0.19782 0.90315 0.0
C4289 C 0.17409 0.1941 0.89583 0.0
C4290 C 0.19173 0.1968 0.91508 0.0
C4291 C 0.19623 0.20534 0.91359 0.0
C4292 C 0.19295 0.19218 0.92363 0.0
C4293 C 0.18799 0.1834 0.92586 0.0
C4294 C 0.1783 0.18274 0.92519 0.0
C4295 C 0.17369 0.17442 0.92725 0.0
C4296 C 0.17868 0.16674 0.93003 0.0
C4297 C 0.18829 0.16736 0.93079 0.0
C4298 C 0.19295 0.17565 0.92874 0.0
C4299 C 0.21462 0.22107 0.94596 0.0
C4300 C 0.22202 0.21582 0.94928 0.0
C4301 C 0.20839 0.21734 0.93953 0.0
C4302 C 0.20953 0.20838 0.93616 0.0
C4303 C 0.21681 0.20309 0.93959 0.0
C4304 C 0.22301 0.20679 0.94604 0.0
C4305 C 0.2034 0.20459 0.9288 0.0
C4306 C 0.19881 0.1961 0.93034 0.0
C4307 C 0.2021 0.20925 0.92029 0.0
C4308 C 0.20707 0.21801 0.91803 0.0
C4309 C 0.21678 0.21854 0.91828 0.0
C4310 C 0.22141 0.22685 0.91625 0.0
C4311 C 0.21641 0.23466 0.91389 0.0
C4312 C 0.20676 0.23417 0.91353 0.0
C4313 C 0.2021 0.22588 0.91556 0.0
H4314 H 0.22 0.24109 0.91233 0.0
H4315 H 0.17509 0.16031 0.93162 0.0
H4316 H 0.83643 0.18118 0.90367 0.0
H4317 H 0.82728 0.18794 0.91604 0.0
H4318 H 0.80728 0.19701 0.89601 0.0
H4319 H 0.81643 0.19034 0.88362 0.0
H4320 H 0.81252 0.21068 0.90854 0.0
H4321 H 0.80242 0.17868 0.90909 0.0
H4322 H 0.80472 0.16192 0.91021 0.0
H4323 H 0.81704 0.16528 0.93699 0.0
H4324 H 0.81493 0.18209 0.93597 0.0
H4325 H 0.77517 0.22278 0.93699 0.0
H4326 H 0.78546 0.21638 0.92542 0.0
H4327 H 0.80133 0.2035 0.94704 0.0
H4328 H 0.79073 0.20946 0.95856 0.0
H4329 H 0.79913 0.19192 0.93413 0.0
H4330 H 0.80921 0.22339 0.93436 0.0
H4331 H 0.80772 0.24028 0.93366 0.0
H4332 H 0.79675 0.23833 0.90618 0.0
H4333 H 0.79806 0.22141 0.90675 0.0
C4334 C 0.83009 0.18463 0.90191 0.0
C4335 C 0.82713 0.18521 0.89268 0.0
C4336 C 0.82485 0.18844 0.90898 0.0
C4337 C 0.81658 0.19293 0.90694 0.0
C4338 C 0.81364 0.19356 0.89773 0.0
C4339 C 0.81883 0.18969 0.89067 0.0
C4340 C 0.81101 0.19707 0.91438 0.0
C4341 C 0.8095 0.20659 0.91409 0.0
C4342 C 0.80736 0.19176 0.92178 0.0
C4343 C 0.80861 0.18165 0.9224 0.0
C4344 C 0.80569 0.17586 0.91518 0.0
C4345 C 0.80695 0.16634 0.91581 0.0
C4346 C 0.81105 0.16254 0.92366 0.0
C4347 C 0.81388 0.16824 0.93091 0.0
C4348 C 0.81265 0.17775 0.93031 0.0
C4349 C 0.78093 0.21868 0.93926 0.0
C4350 C 0.78227 0.21684 0.9487 0.0
C4351 C 0.78684 0.21505 0.93266 0.0
C4352 C 0.79434 0.20962 0.93534 0.0
C4353 C 0.79566 0.20773 0.94477 0.0
C4354 C 0.78964 0.21122 0.95137 0.0
C4355 C 0.80053 0.20559 0.92829 0.0
C4356 C 0.80218 0.19608 0.92863 0.0
C4357 C 0.80444 0.21094 0.92102 0.0
C4358 C 0.80366 0.22112 0.92063 0.0
C4359 C 0.80642 0.22656 0.92819 0.0
C4360 C 0.80562 0.23614 0.92781 0.0
C4361 C 0.80213 0.24037 0.91989 0.0
C4362 C 0.79945 0.23504 0.91231 0.0
C4363 C 0.80023 0.22545 0.91266 0.0
H4364 H 0.80151 0.24779 0.91961 0.0
H4365 H 0.81201 0.15517 0.92413 0.0
H4366 H 0.80761 0.82581 0.88727 0.0
H4367 H 0.80198 0.81795 0.90119 0.0
H4368 H 0.83005 0.81437 0.91039 0.0
H4369 H 0.83575 0.82232 0.89652 0.0
H4370 H 0.8193 0.79877 0.91317 0.0
H4371 H 0.81726 0.83135 0.91919 0.0
H4372 H 0.81237 0.84722 0.9159 0.0
H4373 H 0.7839 0.83836 0.91688 0.0
H4374 H 0.78863 0.82241 0.92006 0.0
H4375 H 0.81195 0.78922 0.96054 0.0
H4376 H 0.81669 0.7954 0.94552 0.0
H4377 H 0.7883 0.80152 0.93918 0.0
H4378 H 0.7836 0.79573 0.9544 0.0
H4379 H 0.79862 0.81537 0.93439 0.0
H4380 H 0.80027 0.783 0.92896 0.0
H4381 H 0.80486 0.76699 0.93201 0.0
H4382 H 0.83346 0.77503 0.92954 0.0
H4383 H 0.82905 0.79112 0.9266 0.0
C4384 C 0.8126 0.82339 0.89227 0.0
C4385 C 0.82214 0.82478 0.89081 0.0
C4386 C 0.80936 0.81887 0.90021 0.0
C4387 C 0.81559 0.81567 0.90689 0.0
C4388 C 0.82512 0.81678 0.90533 0.0
C4389 C 0.82836 0.82131 0.89738 0.0
C4390 C 0.81216 0.8114 0.91561 0.0
C4391 C 0.81485 0.80242 0.91787 0.0
C4392 C 0.80615 0.81607 0.9216 0.0
C4393 C 0.8033 0.82567 0.91978 0.0
C4394 C 0.80996 0.83278 0.91864 0.0
C4395 C 0.80721 0.84179 0.91681 0.0
C4396 C 0.79783 0.8438 0.91616 0.0
C4397 C 0.79117 0.8368 0.91738 0.0
C4398 C 0.79387 0.82777 0.9192 0.0
C4399 C 0.80671 0.79177 0.95588 0.0
C4400 C 0.79738 0.79176 0.95856 0.0
C4401 C 0.80941 0.79527 0.94727 0.0
C4402 C 0.80283 0.79875 0.94109 0.0
C4403 C 0.7935 0.7988 0.94378 0.0
C4404 C 0.79081 0.79542 0.95245 0.0
C4405 C 0.80576 0.80271 0.93202 0.0
C4406 C 0.803 0.81165 0.92969 0.0
C4407 C 0.81164 0.79797 0.92592 0.0
C4408 C 0.81432 0.78828 0.92763 0.0
C4409 C 0.80754 0.78137 0.92913 0.0
C4410 C 0.81011 0.77227 0.93083 0.0
C4411 C 0.81945 0.77 0.93099 0.0
C4412 C 0.82623 0.77681 0.92942 0.0
C4413 C 0.8237 0.78591 0.92773 0.0
H4414 H 0.82142 0.76296 0.93231 0.0
H4415 H 0.79572 0.85078 0.91474 0.0
H4416 H 0.11424 0.17369 0.18612 0.0
H4417 H 0.10167 0.18038 0.19491 0.0
H4418 H 0.09512 0.19796 0.1718 0.0
H4419 H 0.10754 0.19116 0.16286 0.0
H4420 H 0.0966 0.20748 0.18806 0.0
H4421 H 0.08102 0.18027 0.17704 0.0
H4422 H 0.0789 0.16361 0.1743 0.0
H4423 H 0.07917 0.15844 0.20351 0.0
H4424 H 0.08142 0.17506 0.20643 0.0
H4425 H 0.05672 0.22575 0.20887 0.0
H4426 H 0.06686 0.21806 0.19798 0.0
H4427 H 0.0728 0.19739 0.2186 0.0
H4428 H 0.06235 0.20485 0.22936 0.0
H4429 H 0.07096 0.18944 0.20258 0.0
H4430 H 0.0877 0.21611 0.21375 0.0
H4431 H 0.09024 0.23266 0.21687 0.0
H4432 H 0.08837 0.2387 0.18788 0.0
H4433 H 0.08569 0.2222 0.1846 0.0
C4434 C 0.11003 0.17885 0.18283 0.0
C4435 C 0.11194 0.18189 0.17377 0.0
C4436 C 0.10285 0.18269 0.18788 0.0
C4437 C 0.09743 0.18964 0.184 0.0
C4438 C 0.09924 0.19262 0.17494 0.0
C4439 C 0.10638 0.18876 0.16986 0.0
C4440 C 0.09014 0.19406 0.18953 0.0
C4441 C 0.0909 0.20357 0.19111 0.0
C4442 C 0.08285 0.18891 0.19368 0.0
C4443 C 0.08147 0.17891 0.19195 0.0
C4444 C 0.0807 0.17557 0.18288 0.0
C4445 C 0.07946 0.16614 0.1813 0.0
C4446 C 0.07892 0.15997 0.18873 0.0
C4447 C 0.0796 0.16322 0.19776 0.0
C4448 C 0.08085 0.17265 0.19939 0.0
C4449 C 0.06005 0.21947 0.21102 0.0
C4450 C 0.0586 0.21579 0.21992 0.0
C4451 C 0.06592 0.21513 0.20482 0.0
C4452 C 0.07069 0.20719 0.20749 0.0
C4453 C 0.06918 0.20347 0.21635 0.0
C4454 C 0.06322 0.20774 0.22249 0.0
C4455 C 0.07745 0.20287 0.20121 0.0
C4456 C 0.07662 0.19338 0.19948 0.0
C4457 C 0.08473 0.20802 0.19699 0.0
C4458 C 0.0864 0.21794 0.19894 0.0
C4459 C 0.08777 0.22098 0.20805 0.0
C4460 C 0.08924 0.23035 0.20984 0.0
C4461 C 0.08944 0.23673 0.20258 0.0
C4462 C 0.0882 0.23375 0.1935 0.0
C4463 C 0.0867 0.22439 0.19167 0.0
H4464 H 0.09059 0.24398 0.20398 0.0
H4465 H 0.07796 0.15267 0.18749 0.0
H4466 H 0.83566 0.11893 0.19845 0.0
H4467 H 0.82711 0.10591 0.2052 0.0
H4468 H 0.81431 0.10034 0.17887 0.0
H4469 H 0.82296 0.11333 0.17199 0.0
H4470 H 0.80179 0.09978 0.19294 0.0
H4471 H 0.83101 0.08655 0.1866 0.0
H4472 H 0.848 0.08556 0.18671 0.0
H4473 H 0.84796 0.0847 0.21634 0.0
H4474 H 0.83098 0.08583 0.21641 0.0
H4475 H 0.78195 0.05751 0.20979 0.0
H4476 H 0.79097 0.06857 0.20043 0.0
H4477 H 0.80652 0.07665 0.22458 0.0
H4478 H 0.79766 0.06551 0.2339 0.0
H4479 H 0.81771 0.07492 0.21 0.0
H4480 H 0.7887 0.08952 0.21631 0.0
H4481 H 0.77172 0.09066 0.2163 0.0
H4482 H 0.77139 0.08899 0.18672 0.0
H4483 H 0.78837 0.08771 0.18657 0.0
C4484 C 0.83113 0.11487 0.19404 0.0
C4485 C 0.83006 0.11714 0.18465 0.0
C4486 C 0.82622 0.10744 0.19793 0.0
C4487 C 0.82016 0.10208 0.19251 0.0
C4488 C 0.81897 0.10438 0.18317 0.0
C4489 C 0.82389 0.11182 0.17926 0.0
C4490 C 0.81496 0.0942 0.19672 0.0
C4491 C 0.80526 0.09424 0.19652 0.0
C4492 C 0.8195 0.08707 0.20152 0.0
C4493 C 0.82972 0.08635 0.20151 0.0
C4494 C 0.83463 0.08622 0.19314 0.0
C4495 C 0.84426 0.08562 0.19317 0.0
C4496 C 0.84906 0.08508 0.20152 0.0
C4497 C 0.84424 0.08512 0.20987 0.0
C4498 C 0.83461 0.08573 0.20988 0.0
C4499 C 0.78739 0.06156 0.21306 0.0
C4500 C 0.78922 0.06054 0.22255 0.0
C4501 C 0.79248 0.06792 0.20773 0.0
C4502 C 0.79939 0.07348 0.21182 0.0
C4503 C 0.80127 0.0724 0.22127 0.0
C4504 C 0.7962 0.06604 0.22658 0.0
C4505 C 0.80454 0.08058 0.20637 0.0
C4506 C 0.81423 0.08039 0.20633 0.0
C4507 C 0.79999 0.08758 0.20136 0.0
C4508 C 0.78979 0.08841 0.20144 0.0
C4509 C 0.785 0.08932 0.20981 0.0
C4510 C 0.77538 0.09 0.20983 0.0
C4511 C 0.77048 0.08987 0.20151 0.0
C4512 C 0.7752 0.08908 0.19316 0.0
C4513 C 0.78482 0.08837 0.1931 0.0
H4514 H 0.76303 0.0904 0.20154 0.0
H4515 H 0.85652 0.08462 0.20153 0.0
H4516 H 0.90114 0.81555 0.16992 0.0
H4517 H 0.91398 0.80908 0.17863 0.0
H4518 H 0.90389 0.82158 0.20348 0.0
H4519 H 0.89092 0.82795 0.19485 0.0
H4520 H 0.92289 0.82351 0.20159 0.0
H4521 H 0.89967 0.79916 0.1996 0.0
H4522 H 0.88896 0.78867 0.19133 0.0
H4523 H 0.9117 0.77738 0.17647 0.0
H4524 H 0.92254 0.78789 0.18457 0.0
H4525 H 0.94616 0.79842 0.23606 0.0
H4526 H 0.93497 0.80582 0.22595 0.0
H4527 H 0.94394 0.78913 0.20323 0.0
H4528 H 0.95485 0.78139 0.21347 0.0
H4529 H 0.92623 0.78957 0.20307 0.0
H4530 H 0.94967 0.813 0.2052 0.0
H4531 H 0.96072 0.82357 0.21291 0.0
H4532 H 0.93835 0.83678 0.22664 0.0
H4533 H 0.92716 0.82622 0.21911 0.0
C4534 C 0.90161 0.81688 0.17725 0.0
C4535 C 0.89493 0.82221 0.18169 0.0
C4536 C 0.90898 0.81321 0.18221 0.0
C4537 C 0.90984 0.81477 0.19173 0.0
C4538 C 0.90337 0.8203 0.19614 0.0
C4539 C 0.89597 0.82397 0.19118 0.0
C4540 C 0.91734 0.81042 0.19714 0.0
C4541 C 0.92358 0.81609 0.202 0.0
C4542 C 0.91841 0.80075 0.19742 0.0
C4543 C 0.9119 0.79437 0.19262 0.0
C4544 C 0.90238 0.79448 0.19452 0.0
C4545 C 0.89629 0.78853 0.18988 0.0
C4546 C 0.89964 0.78238 0.18336 0.0
C4547 C 0.90911 0.78215 0.18151 0.0
C4548 C 0.91523 0.7881 0.18613 0.0
C4549 C 0.94582 0.79642 0.22887 0.0
C4550 C 0.95156 0.78949 0.22552 0.0
C4551 C 0.93945 0.80068 0.22308 0.0
C4552 C 0.93875 0.79822 0.21374 0.0
C4553 C 0.94441 0.79123 0.21038 0.0
C4554 C 0.9507 0.78686 0.21622 0.0
C4555 C 0.93181 0.80266 0.20763 0.0
C4556 C 0.92563 0.797 0.20263 0.0
C4557 C 0.93088 0.81236 0.20713 0.0
C4558 C 0.93758 0.81876 0.21164 0.0
C4559 C 0.94711 0.81812 0.20991 0.0
C4560 C 0.9534 0.82412 0.21424 0.0
C4561 C 0.95024 0.83083 0.22027 0.0
C4562 C 0.94078 0.83158 0.22197 0.0
C4563 C 0.93446 0.82559 0.21766 0.0
H4564 H 0.95512 0.83547 0.22362 0.0
H4565 H 0.89492 0.77778 0.17977 0.0
H4566 H 0.18987 0.88202 0.18793 0.0
H4567 H 0.19886 0.89478 0.19462 0.0
H4568 H 0.17699 0.91347 0.18793 0.0
H4569 H 0.16798 0.90074 0.18113 0.0
H4570 H 0.19458 0.92032 0.18327 0.0
H4571 H 0.17924 0.90648 0.2095 0.0
H4572 H 0.17464 0.8936 0.2198 0.0
H4573 H 0.20315 0.88859 0.22595 0.0
H4574 H 0.20793 0.90136 0.21558 0.0
H4575 H 0.21298 0.95793 0.20833 0.0
H4576 H 0.20256 0.94578 0.20275 0.0
H4577 H 0.22112 0.9252 0.21314 0.0
H4578 H 0.2313 0.93737 0.21923 0.0
H4579 H 0.20448 0.91949 0.21607 0.0
H4580 H 0.22018 0.93231 0.18961 0.0
H4581 H 0.22539 0.94466 0.17896 0.0
H4582 H 0.19718 0.95096 0.1727 0.0
H4583 H 0.1918 0.93871 0.18342 0.0
C4584 C 0.187 0.88886 0.18783 0.0
C4585 C 0.17822 0.89038 0.18402 0.0
C4586 C 0.19212 0.89612 0.19171 0.0
C4587 C 0.18855 0.90505 0.19185 0.0
C4588 C 0.17985 0.90662 0.18792 0.0
C4589 C 0.17469 0.89934 0.1841 0.0
C4590 C 0.19394 0.91273 0.19606 0.0
C4591 C 0.19664 0.92022 0.19047 0.0
C4592 C 0.19681 0.91245 0.2054 0.0
C4593 C 0.19394 0.90483 0.21171 0.0
C4594 C 0.18453 0.90259 0.213 0.0
C4595 C 0.18189 0.89532 0.21886 0.0
C4596 C 0.1886 0.89027 0.22351 0.0
C4597 C 0.19796 0.8925 0.22234 0.0
C4598 C 0.20064 0.89976 0.21648 0.0
C4599 C 0.21475 0.95082 0.20961 0.0
C4600 C 0.22291 0.9486 0.21437 0.0
C4601 C 0.20884 0.94386 0.2063 0.0
C4602 C 0.21112 0.93455 0.20736 0.0
C4603 C 0.21919 0.93232 0.21223 0.0
C4604 C 0.225 0.93927 0.2157 0.0
C4605 C 0.20523 0.92711 0.20326 0.0
C4606 C 0.20241 0.91964 0.20886 0.0
C4607 C 0.20236 0.92734 0.19389 0.0
C4608 C 0.20559 0.93466 0.18739 0.0
C4609 C 0.21509 0.93637 0.18601 0.0
C4610 C 0.21807 0.94334 0.17995 0.0
C4611 C 0.21162 0.94861 0.17517 0.0
C4612 C 0.20217 0.94688 0.17642 0.0
C4613 C 0.19915 0.93992 0.18248 0.0
H4614 H 0.21395 0.95401 0.17049 0.0
H4615 H 0.18654 0.88463 0.22804 0.0
H4616 H 0.10967 0.83463 0.82644 0.0
H4617 H 0.09734 0.82882 0.8163 0.0
H4618 H 0.11157 0.80314 0.81354 0.0
H4619 H 0.12398 0.80897 0.82349 0.0
H4620 H 0.10579 0.80961 0.79701 0.0
H4621 H 0.09272 0.80447 0.82709 0.0
H4622 H 0.08771 0.80876 0.84272 0.0
H4623 H 0.06879 0.82813 0.83114 0.0
H4624 H 0.07379 0.82405 0.81544 0.0
H4625 H 0.07063 0.78145 0.77775 0.0
H4626 H 0.08184 0.78795 0.78871 0.0
H4627 H 0.06726 0.81358 0.78859 0.0
H4628 H 0.05606 0.80715 0.77754 0.0
H4629 H 0.07285 0.80779 0.80645 0.0
H4630 H 0.08572 0.81268 0.77636 0.0
H4631 H 0.09059 0.8082 0.76075 0.0
H4632 H 0.10989 0.78924 0.7724 0.0
H4633 H 0.10501 0.79349 0.78809 0.0
C4634 C 0.11018 0.82776 0.82364 0.0
C4635 C 0.11779 0.82225 0.82579 0.0
C4636 C 0.1031 0.82442 0.81791 0.0
C4637 C 0.1035 0.81551 0.81422 0.0
C4638 C 0.1111 0.81002 0.81633 0.0
C4639 C 0.11815 0.81333 0.82208 0.0
C4640 C 0.09612 0.81197 0.808 0.0
C4641 C 0.09861 0.80911 0.79912 0.0
C4642 C 0.08671 0.81155 0.81066 0.0
C4643 C 0.08371 0.81403 0.82009 0.0
C4644 C 0.08755 0.80971 0.82788 0.0
C4645 C 0.0847 0.81209 0.83675 0.0
C4646 C 0.07795 0.81873 0.83792 0.0
C4647 C 0.07403 0.823 0.83022 0.0
C4648 C 0.07686 0.82065 0.82133 0.0
C4649 C 0.06974 0.78843 0.78017 0.0
C4650 C 0.06238 0.79373 0.77693 0.0
C4651 C 0.07616 0.79214 0.78638 0.0
C4652 C 0.07538 0.80125 0.78943 0.0
C4653 C 0.06794 0.80652 0.78635 0.0
C4654 C 0.06155 0.80283 0.78007 0.0
C4655 C 0.08256 0.80534 0.79553 0.0
C4656 C 0.08003 0.80832 0.80435 0.0
C4657 C 0.09194 0.80588 0.79283 0.0
C4658 C 0.09493 0.80334 0.7834 0.0
C4659 C 0.09094 0.80749 0.7756 0.0
C4660 C 0.09371 0.805 0.76673 0.0
C4661 C 0.10053 0.79842 0.76558 0.0
C4662 C 0.1046 0.79433 0.7733 0.0
C4663 C 0.10184 0.79678 0.78218 0.0
H4664 H 0.10267 0.79651 0.75871 0.0
H4665 H 0.07575 0.82056 0.84479 0.0
H4666 H 0.198 0.12115 0.82913 0.0
H4667 H 0.20407 0.1084 0.8202 0.0
H4668 H 0.1766 0.09658 0.81783 0.0
H4669 H 0.1705 0.1092 0.82701 0.0
H4670 H 0.18918 0.0835 0.82182 0.0
H4671 H 0.18633 0.1081 0.79981 0.0
H4672 H 0.18867 0.12385 0.79366 0.0
H4673 H 0.21807 0.12038 0.79409 0.0
H4674 H 0.21591 0.10464 0.80037 0.0
H4675 H 0.19785 0.0531 0.78444 0.0
H4676 H 0.19214 0.065 0.79475 0.0
H4677 H 0.21968 0.07671 0.79689 0.0
H4678 H 0.22541 0.06484 0.78651 0.0
H4679 H 0.20718 0.08974 0.79326 0.0
H4680 H 0.20997 0.06492 0.81496 0.0
H4681 H 0.20755 0.04916 0.82107 0.0
H4682 H 0.1782 0.05296 0.82113 0.0
H4683 H 0.18044 0.06871 0.81491 0.0
C4684 C 0.19325 0.1158 0.82679 0.0
C4685 C 0.18376 0.11621 0.82879 0.0
C4686 C 0.19672 0.10855 0.82161 0.0
C4687 C 0.19078 0.10158 0.81825 0.0
C4688 C 0.18131 0.1019 0.82032 0.0
C4689 C 0.17783 0.10916 0.8255 0.0
C4690 C 0.19445 0.094 0.81255 0.0
C4691 C 0.19301 0.08485 0.81551 0.0
C4692 C 0.19964 0.09577 0.80443 0.0
C4693 C 0.20096 0.10522 0.80064 0.0
C4694 C 0.1933 0.11072 0.79866 0.0
C4695 C 0.19459 0.11964 0.79514 0.0
C4696 C 0.20351 0.12313 0.79351 0.0
C4697 C 0.21116 0.11768 0.79537 0.0
C4698 C 0.20991 0.10875 0.7989 0.0
C4699 C 0.20271 0.05812 0.78724 0.0
C4700 C 0.21211 0.05794 0.7848 0.0
C4701 C 0.19944 0.06491 0.79313 0.0
C4702 C 0.20549 0.07169 0.79668 0.0
C4703 C 0.21489 0.07152 0.79428 0.0
C4704 C 0.21817 0.06472 0.7884 0.0
C4705 C 0.20193 0.07922 0.80253 0.0
C4706 C 0.20338 0.08837 0.79959 0.0
C4707 C 0.19674 0.07744 0.81065 0.0
C4708 C 0.19537 0.06797 0.81438 0.0
C4709 C 0.203 0.06237 0.8162 0.0
C4710 C 0.20166 0.05344 0.8197 0.0
C4711 C 0.19273 0.05005 0.82146 0.0
C4712 C 0.18511 0.05559 0.81975 0.0
C4713 C 0.18641 0.06453 0.81625 0.0
H4714 H 0.19171 0.04314 0.82417 0.0
H4715 H 0.2045 0.13004 0.79078 0.0
H4716 H 0.90196 0.16919 0.82748 0.0
H4717 H 0.9146 0.17865 0.82098 0.0
H4718 H 0.89529 0.19984 0.81389 0.0
H4719 H 0.88262 0.19038 0.82026 0.0
H4720 H 0.90729 0.1959 0.79959 0.0
H4721 H 0.90902 0.20251 0.83223 0.0
H4722 H 0.91034 0.19842 0.84873 0.0
H4723 H 0.93642 0.18579 0.84363 0.0
H4724 H 0.93519 0.18969 0.82708 0.0
H4725 H 0.93743 0.23355 0.78977 0.0
H4726 H 0.92547 0.22293 0.79561 0.0
H4727 H 0.94652 0.20512 0.80638 0.0
H4728 H 0.95847 0.216 0.801 0.0
H4729 H 0.93398 0.20646 0.81855 0.0
H4730 H 0.93296 0.19988 0.78633 0.0
H4731 H 0.93193 0.20326 0.76966 0.0
H4732 H 0.90508 0.21471 0.77349 0.0
H4733 H 0.906 0.21151 0.7902 0.0
C4734 C 0.90041 0.17585 0.8245 0.0
C4735 C 0.8913 0.17905 0.8244 0.0
C4736 C 0.90764 0.18127 0.82085 0.0
C4737 C 0.90589 0.18997 0.817 0.0
C4738 C 0.89679 0.19315 0.81684 0.0
C4739 C 0.88958 0.18777 0.82055 0.0
C4740 C 0.91351 0.19576 0.81309 0.0
C4741 C 0.91309 0.1983 0.80374 0.0
C4742 C 0.92121 0.19862 0.81845 0.0
C4743 C 0.92197 0.19631 0.8284 0.0
C4744 C 0.915 0.19879 0.83462 0.0
C4745 C 0.91574 0.19652 0.84398 0.0
C4746 C 0.92345 0.19183 0.84722 0.0
C4747 C 0.93044 0.18941 0.84111 0.0
C4748 C 0.92973 0.19166 0.83174 0.0
C4749 C 0.93949 0.2273 0.79327 0.0
C4750 C 0.94889 0.22551 0.7947 0.0
C4751 C 0.93265 0.2212 0.79658 0.0
C4752 C 0.93507 0.21308 0.80127 0.0
C4753 C 0.94447 0.21129 0.80273 0.0
C4754 C 0.95131 0.21747 0.79956 0.0
C4755 C 0.92778 0.2067 0.805 0.0
C4756 C 0.92824 0.20403 0.81434 0.0
C4757 C 0.92017 0.20361 0.79959 0.0
C4758 C 0.91959 0.20553 0.78953 0.0
C4759 C 0.92686 0.20318 0.78363 0.0
C4760 C 0.9263 0.20506 0.77417 0.0
C4761 C 0.91845 0.20922 0.77052 0.0
C4762 C 0.91115 0.2115 0.77632 0.0
C4763 C 0.91169 0.20964 0.78579 0.0
H4764 H 0.91803 0.21066 0.76319 0.0
H4765 H 0.92401 0.19007 0.85447 0.0
H4766 H 0.81674 0.88148 0.82041 0.0
H4767 H 0.8081 0.89442 0.81413 0.0
H4768 H 0.83189 0.91236 0.81794 0.0
H4769 H 0.8405 0.8995 0.82443 0.0
H4770 H 0.81592 0.9209 0.82261 0.0
H4771 H 0.82735 0.90335 0.79712 0.0
H4772 H 0.82958 0.88934 0.78793 0.0
H4773 H 0.80022 0.88632 0.78432 0.0
H4774 H 0.79781 0.90026 0.79361 0.0
H4775 H 0.80874 0.95591 0.78882 0.0
H4776 H 0.81421 0.94333 0.7986 0.0
H4777 H 0.78855 0.92838 0.79422 0.0
H4778 H 0.78298 0.94105 0.78451 0.0
H4779 H 0.80399 0.91803 0.79061 0.0
H4780 H 0.79278 0.93671 0.8149 0.0
H4781 H 0.79083 0.9509 0.82388 0.0
H4782 H 0.81997 0.95206 0.82952 0.0
H4783 H 0.82212 0.93794 0.82045 0.0
C4784 C 0.82008 0.88821 0.82005 0.0
C4785 C 0.82934 0.88944 0.82286 0.0
C4786 C 0.81516 0.89559 0.8164 0.0
C4787 C 0.81938 0.90434 0.81546 0.0
C4788 C 0.8285 0.90567 0.81857 0.0
C4789 C 0.83344 0.89829 0.8222 0.0
C4790 C 0.81448 0.912 0.81084 0.0
C4791 C 0.81337 0.9203 0.81559 0.0
C4792 C 0.81097 0.91115 0.80175 0.0
C4793 C 0.8124 0.90278 0.79615 0.0
C4794 C 0.82137 0.89965 0.79444 0.0
C4795 C 0.82267 0.89173 0.78919 0.0
C4796 C 0.81505 0.88692 0.78557 0.0
C4797 C 0.80612 0.89004 0.78715 0.0
C4798 C 0.80478 0.89795 0.7924 0.0
C4799 C 0.8042 0.95002 0.79008 0.0
C4800 C 0.79542 0.94948 0.78592 0.0
C4801 C 0.80732 0.94284 0.79567 0.0
C4802 C 0.80177 0.93494 0.79717 0.0
C4803 C 0.79293 0.93443 0.79317 0.0
C4804 C 0.78976 0.94166 0.78765 0.0
C4805 C 0.80549 0.92696 0.80234 0.0
C4806 C 0.80642 0.9186 0.79767 0.0
C4807 C 0.80887 0.92779 0.81147 0.0
C4808 C 0.80762 0.9363 0.81692 0.0
C4809 C 0.79879 0.94004 0.81798 0.0
C4810 C 0.79765 0.94806 0.8231 0.0
C4811 C 0.80527 0.95239 0.82725 0.0
C4812 C 0.81406 0.9487 0.8263 0.0
C4813 C 0.81525 0.94068 0.82117 0.0
H4814 H 0.80437 0.9586 0.83122 0.0
H4815 H 0.81607 0.88079 0.7815 0.0
H4816 H 0.18622 0.11716 0.1802 0.0
H4817 H 0.19506 0.1047 0.1871 0.0
H4818 H 0.16972 0.09096 0.19549 0.0
H4819 H 0.1608 0.10335 0.18848 0.0
H4820 H 0.18223 0.09178 0.20948 0.0
H4821 H 0.18214 0.08266 0.17773 0.0
H4822 H 0.18444 0.08476 0.16099 0.0
H4823 H 0.2133 0.09057 0.16543 0.0
H4824 H 0.21115 0.08863 0.18222 0.0
H4825 H 0.20527 0.05198 0.22557 0.0
H4826 H 0.19488 0.06216 0.2172 0.0
H4827 H 0.21835 0.0761 0.20467 0.0
H4828 H 0.22873 0.06559 0.21261 0.0
H4829 H 0.2057 0.07424 0.19237 0.0
H4830 H 0.20581 0.08476 0.22392 0.0
H4831 H 0.20378 0.08315 0.24076 0.0
H4832 H 0.17528 0.07532 0.23682 0.0
H4833 H 0.17718 0.07677 0.21995 0.0
C4834 C 0.18251 0.11142 0.18337 0.0
C4835 C 0.17279 0.11127 0.18377 0.0
C4836 C 0.18758 0.10431 0.18734 0.0
C4837 C 0.18304 0.09686 0.19175 0.0
C4838 C 0.17335 0.09665 0.19213 0.0
C4839 C 0.16828 0.10376 0.18815 0.0
C4840 C 0.18845 0.08946 0.19623 0.0
C4841 C 0.18726 0.08783 0.20571 0.0
C4842 C 0.19515 0.08445 0.19135 0.0
C4843 C 0.19647 0.08557 0.18125 0.0
C4844 C 0.18896 0.08445 0.17515 0.0
C4845 C 0.19024 0.0856 0.16564 0.0
C4846 C 0.19901 0.08781 0.16215 0.0
C4847 C 0.20652 0.08886 0.16815 0.0
C4848 C 0.20527 0.08773 0.17766 0.0
C4849 C 0.20822 0.05712 0.22093 0.0
C4850 C 0.21785 0.0579 0.21965 0.0
C4851 C 0.20226 0.06301 0.21621 0.0
C4852 C 0.20581 0.07001 0.21038 0.0
C4853 C 0.21541 0.07075 0.20909 0.0
C4854 C 0.22135 0.06476 0.21365 0.0
C4855 C 0.19961 0.07665 0.20569 0.0
C4856 C 0.20063 0.07813 0.19615 0.0
C4857 C 0.19282 0.08159 0.21053 0.0
C4858 C 0.19166 0.08078 0.22067 0.0
C4859 C 0.19913 0.08264 0.22665 0.0
C4860 C 0.198 0.08176 0.2362 0.0
C4861 C 0.18941 0.07911 0.23986 0.0
C4862 C 0.18193 0.07736 0.23398 0.0
C4863 C 0.18303 0.07821 0.22442 0.0
H4864 H 0.18855 0.07843 0.24725 0.0
H4865 H 0.19998 0.0887 0.15479 0.0
H4866 H 0.17203 0.90299 0.82787 0.0
H4867 H 0.18129 0.9164 0.82291 0.0
H4868 H 0.19926 0.89862 0.8077 0.0
H4869 H 0.19015 0.88518 0.81285 0.0
H4870 H 0.20926 0.91044 0.81659 0.0
H4871 H 0.18292 0.91269 0.79696 0.0
H4872 H 0.16639 0.91333 0.79291 0.0
H4873 H 0.1638 0.93809 0.80868 0.0
H4874 H 0.1803 0.93752 0.81293 0.0
H4875 H 0.23099 0.94585 0.78943 0.0
H4876 H 0.22054 0.93296 0.79343 0.0
H4877 H 0.20865 0.94909 0.8151 0.0
H4878 H 0.2193 0.96193 0.81136 0.0
H4879 H 0.19556 0.93838 0.80266 0.0
H4880 H 0.22255 0.9353 0.82223 0.0
H4881 H 0.23932 0.93444 0.82506 0.0
H4882 H 0.24071 0.91066 0.80767 0.0
H4883 H 0.22396 0.91148 0.80462 0.0
C4884 C 0.17791 0.90197 0.82341 0.0
C4885 C 0.18037 0.89305 0.82074 0.0
C4886 C 0.18319 0.90963 0.82055 0.0
C4887 C 0.19092 0.90855 0.81483 0.0
C4888 C 0.19335 0.89964 0.81213 0.0
C4889 C 0.18814 0.89197 0.81508 0.0
C4890 C 0.19666 0.91667 0.81189 0.0
C4891 C 0.20624 0.91648 0.81343 0.0
C4892 C 0.19276 0.92464 0.80788 0.0
C4893 C 0.18283 0.92501 0.80534 0.0
C4894 C 0.17881 0.91823 0.79963 0.0
C4895 C 0.16945 0.91859 0.79728 0.0
C4896 C 0.16405 0.92574 0.80055 0.0
C4897 C 0.168 0.93255 0.80616 0.0
C4898 C 0.17735 0.93222 0.80854 0.0
C4899 C 0.22616 0.94664 0.79506 0.0
C4900 C 0.22608 0.95484 0.80019 0.0
C4901 C 0.22018 0.9393 0.7973 0.0
C4902 C 0.21388 0.94009 0.80458 0.0
C4903 C 0.21348 0.94838 0.80946 0.0
C4904 C 0.21958 0.95568 0.80733 0.0
C4905 C 0.20805 0.93207 0.80738 0.0
C4906 C 0.1985 0.9323 0.80581 0.0
C4907 C 0.21198 0.92407 0.81122 0.0
C4908 C 0.22202 0.92352 0.81311 0.0
C4909 C 0.22645 0.92994 0.81894 0.0
C4910 C 0.23594 0.92945 0.8206 0.0
C4911 C 0.24108 0.92251 0.81653 0.0
C4912 C 0.23672 0.91604 0.81081 0.0
C4913 C 0.22723 0.91651 0.80911 0.0
H4914 H 0.24843 0.92214 0.81782 0.0
H4915 H 0.1568 0.926 0.79873 0.0
H4916 H 0.10567 0.16596 0.81649 0.0
H4917 H 0.0931 0.17505 0.81008 0.0
H4918 H 0.10511 0.19964 0.82205 0.0
H4919 H 0.11779 0.19064 0.82835 0.0
H4920 H 0.08609 0.19855 0.82425 0.0
H4921 H 0.10833 0.19521 0.79961 0.0
H4922 H 0.11813 0.18631 0.78913 0.0
H4923 H 0.09407 0.17227 0.7784 0.0
H4924 H 0.08414 0.18101 0.78891 0.0
H4925 H 0.06425 0.23362 0.7989 0.0
H4926 H 0.07495 0.22313 0.80639 0.0
H4927 H 0.0642 0.20071 0.78988 0.0
H4928 H 0.05383 0.21131 0.78201 0.0
H4929 H 0.08177 0.1997 0.79029 0.0
H4930 H 0.05925 0.20321 0.81393 0.0
H4931 H 0.04907 0.2115 0.82453 0.0
H4932 H 0.07273 0.22434 0.83737 0.0
H4933 H 0.08306 0.21621 0.82677 0.0
C4934 C 0.10568 0.17331 0.81772 0.0
C4935 C 0.1128 0.17757 0.82288 0.0
C4936 C 0.09846 0.17849 0.81409 0.0
C4937 C 0.09822 0.18804 0.81551 0.0
C4938 C 0.10515 0.19227 0.82088 0.0
C4939 C 0.11239 0.1871 0.8245 0.0
C4940 C 0.09092 0.19368 0.81116 0.0
C4941 C 0.08518 0.19888 0.81682 0.0
C4942 C 0.08955 0.19387 0.80148 0.0
C4943 C 0.09551 0.1887 0.7951 0.0
C4944 C 0.10514 0.19018 0.79506 0.0
C4945 C 0.11072 0.18517 0.78911 0.0
C4946 C 0.10673 0.17872 0.78312 0.0
C4947 C 0.09715 0.17727 0.78305 0.0
C4948 C 0.09155 0.18225 0.78899 0.0
C4949 C 0.06411 0.22643 0.79695 0.0
C4950 C 0.05804 0.22328 0.79001 0.0
C4951 C 0.07019 0.22041 0.80127 0.0
C4952 C 0.07026 0.21104 0.79889 0.0
C4953 C 0.06424 0.20788 0.79192 0.0
C4954 C 0.05825 0.21394 0.78747 0.0
C4955 C 0.07691 0.20469 0.80337 0.0
C4956 C 0.08257 0.19934 0.79773 0.0
C4957 C 0.07812 0.20427 0.81308 0.0
C4958 C 0.07193 0.20915 0.8195 0.0
C4959 C 0.06229 0.20785 0.81897 0.0
C4960 C 0.05649 0.21251 0.82499 0.0
C4961 C 0.06025 0.21846 0.83161 0.0
C4962 C 0.06983 0.21973 0.83224 0.0
C4963 C 0.07566 0.21509 0.82623 0.0
H4964 H 0.05575 0.22207 0.83625 0.0
H4965 H 0.11105 0.17484 0.77853 0.0
H4966 H 0.8234 0.10365 0.84391 0.0
H4967 H 0.81614 0.09058 0.83598 0.0
H4968 H 0.81154 0.1077 0.81201 0.0
H4969 H 0.81859 0.12088 0.82001 0.0
H4970 H 0.79623 0.09823 0.8165 0.0
H4971 H 0.82774 0.09102 0.81167 0.0
H4972 H 0.84402 0.08839 0.8158 0.0
H4973 H 0.83571 0.06582 0.83342 0.0
H4974 H 0.81937 0.0684 0.8295 0.0
H4975 H 0.78016 0.06056 0.78932 0.0
H4976 H 0.79033 0.07318 0.79459 0.0
H4977 H 0.79343 0.05953 0.82091 0.0
H4978 H 0.78319 0.04695 0.81572 0.0
H4979 H 0.81018 0.06739 0.81387 0.0
H4980 H 0.77851 0.07573 0.81939 0.0
H4981 H 0.76234 0.07834 0.81484 0.0
H4982 H 0.77133 0.09899 0.7953 0.0
H4983 H 0.78758 0.09639 0.79963 0.0
C4984 C 0.82085 0.10463 0.83695 0.0
C4985 C 0.82155 0.11332 0.8326 0.0
C4986 C 0.81679 0.09713 0.83238 0.0
C4987 C 0.81336 0.09813 0.82336 0.0
C4988 C 0.81416 0.10676 0.81896 0.0
C4989 C 0.81825 0.11427 0.82351 0.0
C4990 C 0.80848 0.09031 0.81877 0.0
C4991 C 0.79936 0.09154 0.81577 0.0
C4992 C 0.81249 0.08152 0.81795 0.0
C4993 C 0.82231 0.07996 0.82036 0.0
C4994 C 0.82938 0.08554 0.81649 0.0
C4995 C 0.83862 0.08406 0.81878 0.0
C4996 C 0.8409 0.07696 0.82488 0.0
C4997 C 0.83394 0.07132 0.8287 0.0
C4998 C 0.82468 0.07279 0.82644 0.0
C4999 C 0.7831 0.06022 0.79619 0.0
C5000 C 0.78088 0.05278 0.80211 0.0
C5001 C 0.78889 0.06742 0.79919 0.0
C5002 C 0.79258 0.0673 0.80816 0.0
C5003 C 0.79067 0.05973 0.81396 0.0
C5004 C 0.78481 0.05256 0.81099 0.0
C5005 C 0.79795 0.07533 0.8117 0.0
C5006 C 0.80713 0.07412 0.81452 0.0
C5007 C 0.79403 0.08416 0.81231 0.0
C5008 C 0.78426 0.08579 0.80975 0.0
C5009 C 0.77704 0.08077 0.81406 0.0
C5010 C 0.76786 0.08225 0.81154 0.0
C5011 C 0.76581 0.08881 0.80477 0.0
C5012 C 0.77293 0.0939 0.80053 0.0
C5013 C 0.78213 0.09243 0.80302 0.0
H5014 H 0.75869 0.08995 0.80282 0.0
H5015 H 0.84806 0.07581 0.82664 0.0
H5016 H 0.90226 0.81954 0.84021 0.0
H5017 H 0.91542 0.81368 0.83168 0.0
H5018 H 0.90037 0.81668 0.80615 0.0
H5019 H 0.88704 0.82227 0.81468 0.0
H5020 H 0.90819 0.8003 0.80702 0.0
H5021 H 0.91851 0.83128 0.8115 0.0
H5022 H 0.92201 0.84551 0.82013 0.0
H5023 H 0.94183 0.83116 0.83665 0.0
H5024 H 0.93835 0.8168 0.82821 0.0
H5025 H 0.94746 0.78806 0.78064 0.0
H5026 H 0.93508 0.79758 0.78674 0.0
H5027 H 0.9462 0.79454 0.8142 0.0
H5028 H 0.95858 0.78507 0.80815 0.0
H5029 H 0.94033 0.81221 0.81085 0.0
H5030 H 0.9287 0.78098 0.80722 0.0
H5031 H 0.92524 0.76682 0.79846 0.0
H5032 H 0.90778 0.78199 0.78008 0.0
H5033 H 0.91126 0.79628 0.78866 0.0
C5034 C 0.90174 0.81894 0.83278 0.0
C5035 C 0.89357 0.82135 0.82814 0.0
C5036 C 0.90931 0.81569 0.82789 0.0
C5037 C 0.90894 0.81483 0.81825 0.0
C5038 C 0.90084 0.81732 0.81358 0.0
C5039 C 0.89325 0.82058 0.81846 0.0
C5040 C 0.91682 0.81087 0.81314 0.0
C5041 C 0.91519 0.80303 0.80771 0.0
C5042 C 0.92599 0.81432 0.81416 0.0
C5043 C 0.92811 0.82294 0.81926 0.0
C5044 C 0.92356 0.83114 0.81702 0.0
C5045 C 0.92555 0.83923 0.82187 0.0
C5046 C 0.93213 0.83924 0.82895 0.0
C5047 C 0.93674 0.83114 0.83117 0.0
C5048 C 0.93477 0.82303 0.82635 0.0
C5049 C 0.94735 0.78957 0.78795 0.0
C5050 C 0.95404 0.78589 0.79391 0.0
C5051 C 0.94025 0.79497 0.79143 0.0
C5052 C 0.93968 0.79672 0.80094 0.0
C5053 C 0.94653 0.79331 0.80684 0.0
C5054 C 0.95359 0.78789 0.80338 0.0
C5055 C 0.93167 0.8016 0.80485 0.0
C5056 C 0.9333 0.80959 0.81007 0.0
C5057 C 0.92248 0.79831 0.80362 0.0
C5058 C 0.92033 0.78971 0.79851 0.0
C5059 C 0.92418 0.78131 0.80127 0.0
C5060 C 0.92221 0.77326 0.79634 0.0
C5061 C 0.91631 0.77351 0.7887 0.0
C5062 C 0.91236 0.78181 0.78599 0.0
C5063 C 0.91433 0.78989 0.79088 0.0
H5064 H 0.91479 0.76727 0.7849 0.0
H5065 H 0.93366 0.84551 0.83269 0.0
H5066 H 0.84433 0.90121 0.19084 0.0
H5067 H 0.83556 0.91389 0.19727 0.0
H5068 H 0.81028 0.89802 0.19397 0.0
H5069 H 0.819 0.88529 0.18759 0.0
H5070 H 0.80819 0.91589 0.18865 0.0
H5071 H 0.82094 0.89971 0.21495 0.0
H5072 H 0.83359 0.89321 0.22422 0.0
H5073 H 0.84639 0.92005 0.22636 0.0
H5074 H 0.83387 0.92669 0.217 0.0
H5075 H 0.77776 0.93906 0.218 0.0
H5076 H 0.78751 0.928 0.21022 0.0
H5077 H 0.81177 0.94405 0.2177 0.0
H5078 H 0.80204 0.95487 0.22593 0.0
H5079 H 0.81519 0.92698 0.22026 0.0
H5080 H 0.80247 0.94356 0.19486 0.0
H5081 H 0.79021 0.95044 0.18536 0.0
H5082 H 0.77795 0.92364 0.18101 0.0
H5083 H 0.79007 0.91661 0.19059 0.0
C5084 C 0.83691 0.90039 0.19152 0.0
C5085 C 0.83238 0.89219 0.18875 0.0
C5086 C 0.8319 0.90766 0.19518 0.0
C5087 C 0.82227 0.90687 0.19621 0.0
C5088 C 0.8177 0.89879 0.19324 0.0
C5089 C 0.8227 0.89153 0.18956 0.0
C5090 C 0.81695 0.91435 0.20056 0.0
C5091 C 0.80966 0.91827 0.19559 0.0
C5092 C 0.81905 0.91766 0.2095 0.0
C5093 C 0.82652 0.91368 0.2152 0.0
C5094 C 0.82649 0.90421 0.21735 0.0
C5095 C 0.83363 0.9005 0.22263 0.0
C5096 C 0.8408 0.90621 0.22586 0.0
C5097 C 0.84084 0.91564 0.22384 0.0
C5098 C 0.83372 0.91938 0.21856 0.0
C5099 C 0.78517 0.94027 0.2179 0.0
C5100 C 0.78909 0.94797 0.22238 0.0
C5101 C 0.79075 0.93397 0.2134 0.0
C5102 C 0.80039 0.93528 0.21314 0.0
C5103 C 0.80435 0.94291 0.21772 0.0
C5104 C 0.79877 0.94915 0.22236 0.0
C5105 C 0.80633 0.9285 0.2084 0.0
C5106 C 0.81375 0.92469 0.21328 0.0
C5107 C 0.8044 0.92537 0.19933 0.0
C5108 C 0.79714 0.92957 0.1935 0.0
C5109 C 0.79713 0.93914 0.19192 0.0
C5110 C 0.79021 0.94307 0.18652 0.0
C5111 C 0.7833 0.93749 0.1826 0.0
C5112 C 0.7833 0.92796 0.18406 0.0
C5113 C 0.7902 0.924 0.18946 0.0
H5114 H 0.77794 0.94054 0.17842 0.0
H5115 H 0.84632 0.90332 0.22994 0.0
H5116 H 0.1205 0.80603 0.17399 0.0
H5117 H 0.10806 0.79952 0.1835 0.0
H5118 H 0.09695 0.82663 0.18706 0.0
H5119 H 0.1094 0.83321 0.1775 0.0
H5120 H 0.09752 0.81743 0.20318 0.0
H5121 H 0.08636 0.81106 0.17277 0.0
H5122 H 0.08716 0.80525 0.15684 0.0
H5123 H 0.09145 0.77785 0.16712 0.0
H5124 H 0.09082 0.78351 0.18312 0.0
H5125 H 0.05708 0.79976 0.22538 0.0
H5126 H 0.06723 0.80766 0.21424 0.0
H5127 H 0.08005 0.78184 0.20797 0.0
H5128 H 0.0697 0.77389 0.21887 0.0
H5129 H 0.07755 0.79139 0.19261 0.0
H5130 H 0.08994 0.79795 0.2229 0.0
H5131 H 0.08933 0.80369 0.23886 0.0
H5132 H 0.08287 0.83071 0.22881 0.0
H5133 H 0.08331 0.8251 0.21278 0.0
C5134 C 0.11534 0.8106 0.17668 0.0
C5135 C 0.11592 0.82014 0.17493 0.0
C5136 C 0.10824 0.80687 0.18214 0.0
C5137 C 0.1015 0.81257 0.1859 0.0
C5138 C 0.10207 0.8221 0.18422 0.0
C5139 C 0.1092 0.82585 0.17877 0.0
C5140 C 0.09401 0.80857 0.19178 0.0
C5141 C 0.09304 0.81185 0.20082 0.0
C5142 C 0.08828 0.80117 0.18876 0.0
C5143 C 0.08861 0.79773 0.17914 0.0
C5144 C 0.08754 0.8038 0.17163 0.0
C5145 C 0.08796 0.80054 0.16259 0.0
C5146 C 0.08937 0.79119 0.16097 0.0
C5147 C 0.09036 0.78509 0.16839 0.0
C5148 C 0.08996 0.78832 0.17745 0.0
C5149 C 0.06194 0.79575 0.22149 0.0
C5150 C 0.06247 0.78617 0.22286 0.0
C5151 C 0.06781 0.80029 0.2152 0.0
C5152 C 0.07447 0.79536 0.21032 0.0
C5153 C 0.07494 0.78578 0.21161 0.0
C5154 C 0.06903 0.78125 0.21784 0.0
C5155 C 0.08115 0.80016 0.20406 0.0
C5156 C 0.08197 0.79703 0.19495 0.0
C5157 C 0.08676 0.80769 0.20702 0.0
C5158 C 0.08656 0.81108 0.21665 0.0
C5159 C 0.08833 0.8051 0.2241 0.0
C5160 C 0.08802 0.80833 0.23316 0.0
C5161 C 0.08604 0.81755 0.23485 0.0
C5162 C 0.08439 0.82357 0.22749 0.0
C5163 C 0.08467 0.82037 0.21841 0.0
H5164 H 0.08581 0.82004 0.24187 0.0
H5165 H 0.08969 0.78868 0.15396 0.0
H5166 H 0.88719 0.20298 0.17429 0.0
H5167 H 0.90018 0.20919 0.18321 0.0
H5168 H 0.90994 0.18166 0.18796 0.0
H5169 H 0.89696 0.17538 0.17896 0.0
H5170 H 0.91032 0.19172 0.20363 0.0
H5171 H 0.9208 0.19576 0.17253 0.0
H5172 H 0.91976 0.20078 0.15627 0.0
H5173 H 0.91749 0.22891 0.16483 0.0
H5174 H 0.91839 0.22405 0.18115 0.0
H5175 H 0.95276 0.20762 0.22319 0.0
H5176 H 0.94159 0.19992 0.21297 0.0
H5177 H 0.93027 0.22626 0.20561 0.0
H5178 H 0.94159 0.23399 0.21561 0.0
H5179 H 0.93153 0.2158 0.19076 0.0
H5180 H 0.91993 0.21175 0.22173 0.0
H5181 H 0.92072 0.20688 0.23805 0.0
H5182 H 0.92486 0.17891 0.22977 0.0
H5183 H 0.92423 0.18364 0.21339 0.0
C5184 C 0.89216 0.19824 0.17713 0.0
C5185 C 0.89107 0.18868 0.17586 0.0
C5186 C 0.89957 0.20181 0.18225 0.0
C5187 C 0.9061 0.1959 0.18615 0.0
C5188 C 0.90499 0.18635 0.185 0.0
C5189 C 0.89756 0.18277 0.17988 0.0
C5190 C 0.91399 0.19972 0.19156 0.0
C5191 C 0.91507 0.19687 0.20077 0.0
C5192 C 0.92006 0.20657 0.18788 0.0
C5193 C 0.91959 0.20953 0.17807 0.0
C5194 C 0.92002 0.20301 0.17095 0.0
C5195 C 0.91946 0.20583 0.16172 0.0
C5196 C 0.91854 0.21515 0.15952 0.0
C5197 C 0.9182 0.22169 0.16655 0.0
C5198 C 0.91874 0.2189 0.17579 0.0
C5199 C 0.94799 0.21177 0.21926 0.0
C5200 C 0.94816 0.22143 0.22005 0.0
C5201 C 0.94156 0.20736 0.21349 0.0
C5202 C 0.93503 0.21251 0.20858 0.0
C5203 C 0.93526 0.22215 0.20929 0.0
C5204 C 0.94173 0.22656 0.215 0.0
C5205 C 0.9278 0.20789 0.20287 0.0
C5206 C 0.92684 0.21059 0.1936 0.0
C5207 C 0.92182 0.20093 0.2065 0.0
C5208 C 0.92213 0.19806 0.21634 0.0
C5209 C 0.92108 0.20457 0.22339 0.0
C5210 C 0.92149 0.20184 0.23265 0.0
C5211 C 0.92286 0.1926 0.23495 0.0
C5212 C 0.92381 0.18607 0.22798 0.0
C5213 C 0.92342 0.18877 0.21871 0.0
H5214 H 0.92318 0.19049 0.24212 0.0
H5215 H 0.91811 0.21732 0.15237 0.0
H5216 H 0.18785 0.66211 0.60936 0.0
H5217 H 0.19481 0.67131 0.59688 0.0
H5218 H 0.19 0.69614 0.61219 0.0
H5219 H 0.18312 0.687 0.62473 0.0
H5220 H 0.18579 0.6981 0.59376 0.0
H5221 H 0.2111 0.68657 0.61222 0.0
H5222 H 0.22009 0.67431 0.61969 0.0
H5223 H 0.22469 0.66187 0.59332 0.0
H5224 H 0.21562 0.67399 0.58572 0.0
H5225 H 0.21615 0.7301 0.57225 0.0
H5226 H 0.20772 0.71991 0.58291 0.0
H5227 H 0.21729 0.69624 0.56808 0.0
H5228 H 0.22615 0.7064 0.55773 0.0
H5229 H 0.21848 0.69283 0.58534 0.0
H5230 H 0.19419 0.70434 0.56649 0.0
H5231 H 0.18492 0.7161 0.55859 0.0
H5232 H 0.17791 0.72788 0.5847 0.0
H5233 H 0.18723 0.71626 0.59277 0.0
C5234 C 0.18829 0.66953 0.61009 0.0
C5235 C 0.18498 0.67381 0.61809 0.0
C5236 C 0.19225 0.67478 0.60293 0.0
C5237 C 0.19302 0.6844 0.60365 0.0
C5238 C 0.18946 0.68872 0.61149 0.0
C5239 C 0.18551 0.68348 0.61864 0.0
C5240 C 0.1978 0.68997 0.5964 0.0
C5241 C 0.19296 0.69702 0.59196 0.0
C5242 C 0.20706 0.68835 0.59385 0.0
C5243 C 0.21261 0.68114 0.59842 0.0
C5244 C 0.21398 0.68119 0.60803 0.0
C5245 C 0.2191 0.67427 0.61228 0.0
C5246 C 0.22294 0.66731 0.60698 0.0
C5247 C 0.2217 0.66726 0.59742 0.0
C5248 C 0.21658 0.67416 0.59313 0.0
C5249 C 0.21638 0.72272 0.57123 0.0
C5250 C 0.22164 0.71909 0.56401 0.0
C5251 C 0.21151 0.71689 0.57728 0.0
C5252 C 0.21165 0.70728 0.57618 0.0
C5253 C 0.21699 0.70362 0.56904 0.0
C5254 C 0.222 0.70945 0.56306 0.0
C5255 C 0.20651 0.70108 0.5827 0.0
C5256 C 0.21128 0.6939 0.58703 0.0
C5257 C 0.19714 0.70251 0.58505 0.0
C5258 C 0.19147 0.70947 0.58023 0.0
C5259 C 0.19071 0.70947 0.57055 0.0
C5260 C 0.18544 0.71611 0.56604 0.0
C5261 C 0.18084 0.72274 0.57114 0.0
C5262 C 0.18148 0.72274 0.58076 0.0
C5263 C 0.18674 0.71612 0.58531 0.0
H5264 H 0.17677 0.72788 0.56763 0.0
H5265 H 0.22689 0.66195 0.61029 0.0
H5266 H 0.83337 0.68057 0.60714 0.0
H5267 H 0.82697 0.68864 0.59379 0.0
H5268 H 0.80161 0.69277 0.60869 0.0
H5269 H 0.80797 0.68469 0.62206 0.0
H5270 H 0.7982 0.68613 0.59193 0.0
H5271 H 0.81694 0.71073 0.60431 0.0
H5272 H 0.83123 0.71812 0.61021 0.0
H5273 H 0.84464 0.71358 0.58426 0.0
H5274 H 0.83046 0.70605 0.57824 0.0
H5275 H 0.77821 0.71316 0.55682 0.0
H5276 H 0.78462 0.70868 0.57177 0.0
H5277 H 0.81124 0.70485 0.55912 0.0
H5278 H 0.80496 0.70975 0.54423 0.0
H5279 H 0.81358 0.71226 0.57543 0.0
H5280 H 0.79566 0.68663 0.56348 0.0
H5281 H 0.78164 0.6789 0.55736 0.0
H5282 H 0.76707 0.6849 0.58234 0.0
H5283 H 0.78098 0.69279 0.58855 0.0
C5284 C 0.82649 0.68333 0.60763 0.0
C5285 C 0.82116 0.68198 0.61565 0.0
C5286 C 0.82284 0.68795 0.59999 0.0
C5287 C 0.81384 0.69138 0.60026 0.0
C5288 C 0.80856 0.69016 0.60832 0.0
C5289 C 0.81219 0.68552 0.61594 0.0
C5290 C 0.80973 0.69576 0.59197 0.0
C5291 C 0.80148 0.69196 0.58842 0.0
C5292 C 0.81413 0.7032 0.58725 0.0
C5293 C 0.82265 0.70776 0.59085 0.0
C5294 C 0.82295 0.71125 0.59988 0.0
C5295 C 0.83103 0.71547 0.60324 0.0
C5296 C 0.83884 0.7163 0.59762 0.0
C5297 C 0.83859 0.71293 0.58861 0.0
C5298 C 0.83053 0.70869 0.58522 0.0
C5299 C 0.78548 0.71157 0.55726 0.0
C5300 C 0.79114 0.71196 0.54937 0.0
C5301 C 0.78911 0.70891 0.5658 0.0
C5302 C 0.79839 0.7063 0.56655 0.0
C5303 C 0.80408 0.70686 0.55872 0.0
C5304 C 0.80049 0.70964 0.55022 0.0
C5305 C 0.80209 0.7026 0.57537 0.0
C5306 C 0.81026 0.7065 0.579 0.0
C5307 C 0.79767 0.69519 0.58014 0.0
C5308 C 0.78933 0.69038 0.57644 0.0
C5309 C 0.78945 0.68635 0.56764 0.0
C5310 C 0.78153 0.68194 0.56415 0.0
C5311 C 0.77347 0.68143 0.56944 0.0
C5312 C 0.77332 0.68531 0.57824 0.0
C5313 C 0.78122 0.68975 0.58175 0.0
H5314 H 0.76734 0.67801 0.56674 0.0
H5315 H 0.84509 0.71957 0.60024 0.0
H5316 H 0.83614 0.32912 0.61108 0.0
H5317 H 0.83086 0.31947 0.59826 0.0
H5318 H 0.80264 0.32229 0.60719 0.0
H5319 H 0.80789 0.3317 0.62017 0.0
H5320 H 0.80612 0.30476 0.60304 0.0
H5321 H 0.81107 0.33426 0.58848 0.0
H5322 H 0.81991 0.34832 0.58417 0.0
H5323 H 0.83996 0.33197 0.5703 0.0
H5324 H 0.8313 0.31779 0.57464 0.0
H5325 H 0.7841 0.28662 0.56333 0.0
H5326 H 0.7893 0.29741 0.57528 0.0
H5327 H 0.81754 0.29416 0.5666 0.0
H5328 H 0.81236 0.28345 0.55457 0.0
H5329 H 0.81405 0.31205 0.57046 0.0
H5330 H 0.80934 0.28262 0.58515 0.0
H5331 H 0.80059 0.26848 0.5894 0.0
H5332 H 0.78026 0.28467 0.60307 0.0
H5333 H 0.78882 0.29892 0.59877 0.0
C5334 C 0.82882 0.32764 0.61035 0.0
C5335 C 0.82244 0.33122 0.61665 0.0
C5336 C 0.82579 0.32219 0.60296 0.0
C5337 C 0.81633 0.32024 0.60169 0.0
C5338 C 0.80996 0.32374 0.608 0.0
C5339 C 0.81298 0.32919 0.61538 0.0
C5340 C 0.81307 0.31439 0.5939 0.0
C5341 C 0.80775 0.30644 0.59591 0.0
C5342 C 0.81538 0.31643 0.5846 0.0
C5343 C 0.82059 0.32495 0.58197 0.0
C5344 C 0.8174 0.33365 0.58458 0.0
C5345 C 0.82238 0.34165 0.58212 0.0
C5346 C 0.83051 0.34104 0.57698 0.0
C5347 C 0.83367 0.33243 0.57428 0.0
C5348 C 0.82873 0.32441 0.57674 0.0
C5349 C 0.7914 0.28833 0.56388 0.0
C5350 C 0.79781 0.28429 0.55793 0.0
C5351 C 0.79437 0.29444 0.57074 0.0
C5352 C 0.80382 0.29653 0.57189 0.0
C5353 C 0.81022 0.29267 0.56583 0.0
C5354 C 0.80725 0.28656 0.55896 0.0
C5355 C 0.80707 0.30247 0.57961 0.0
C5356 C 0.81241 0.31041 0.57759 0.0
C5357 C 0.8048 0.30041 0.58891 0.0
C5358 C 0.79967 0.29185 0.59156 0.0
C5359 C 0.80296 0.28317 0.589 0.0
C5360 C 0.79804 0.27514 0.59142 0.0
C5361 C 0.78986 0.27568 0.59648 0.0
C5362 C 0.78659 0.28426 0.59914 0.0
C5363 C 0.79148 0.29232 0.59672 0.0
H5364 H 0.78606 0.26945 0.59835 0.0
H5365 H 0.83434 0.34724 0.57508 0.0
H5366 H 0.19265 0.33728 0.61073 0.0
H5367 H 0.19851 0.32932 0.5972 0.0
H5368 H 0.18805 0.30344 0.60811 0.0
H5369 H 0.18247 0.31131 0.62183 0.0
H5370 H 0.20517 0.30164 0.60135 0.0
H5371 H 0.17677 0.31494 0.59075 0.0
H5372 H 0.16587 0.32751 0.58791 0.0
H5373 H 0.18597 0.34151 0.57082 0.0
H5374 H 0.19703 0.32907 0.57366 0.0
H5375 H 0.20576 0.26919 0.56037 0.0
H5376 H 0.20192 0.28029 0.57635 0.0
H5377 H 0.20979 0.30934 0.55892 0.0
H5378 H 0.21367 0.29901 0.54236 0.0
H5379 H 0.19567 0.31078 0.56973 0.0
H5380 H 0.22408 0.29806 0.58021 0.0
H5381 H 0.23546 0.28594 0.58312 0.0
H5382 H 0.21591 0.27134 0.60035 0.0
H5383 H 0.20439 0.28336 0.59748 0.0
C5384 C 0.19167 0.32988 0.6103 0.0
C5385 C 0.18707 0.32494 0.61737 0.0
C5386 C 0.19495 0.32535 0.60251 0.0
C5387 C 0.19363 0.31579 0.60159 0.0
C5388 C 0.18912 0.31082 0.60866 0.0
C5389 C 0.18585 0.31535 0.61646 0.0
C5390 C 0.19697 0.31095 0.59327 0.0
C5391 C 0.203 0.30357 0.59444 0.0
C5392 C 0.19442 0.31366 0.58422 0.0
C5393 C 0.18776 0.32113 0.5825 0.0
C5394 C 0.17889 0.32074 0.58645 0.0
C5395 C 0.17268 0.32783 0.58483 0.0
C5396 C 0.17523 0.33532 0.57921 0.0
C5397 C 0.184 0.33571 0.57518 0.0
C5398 C 0.19024 0.32864 0.57679 0.0
C5399 C 0.20615 0.27664 0.56 0.0
C5400 C 0.21176 0.28285 0.55016 0.0
C5401 C 0.20434 0.28357 0.57006 0.0
C5402 C 0.20619 0.29592 0.56963 0.0
C5403 C 0.20924 0.3019 0.55903 0.0
C5404 C 0.21121 0.29559 0.54857 0.0
C5405 C 0.20378 0.3014 0.57782 0.0
C5406 C 0.19792 0.3089 0.57663 0.0
C5407 C 0.2065 0.29882 0.58684 0.0
C5408 C 0.21335 0.29153 0.58852 0.0
C5409 C 0.2222 0.29223 0.58457 0.0
C5410 C 0.22868 0.28539 0.58623 0.0
C5411 C 0.2264 0.27786 0.59189 0.0
C5412 C 0.21766 0.27717 0.59594 0.0
C5413 C 0.21116 0.284 0.59432 0.0
H5414 H 0.23142 0.27256 0.59316 0.0
H5415 H 0.17041 0.3408 0.57797 0.0
H5416 H 0.19652 0.32859 0.38719 0.0
H5417 H 0.20227 0.31975 0.40033 0.0
H5418 H 0.17682 0.32423 0.41495 0.0
H5419 H 0.17108 0.33327 0.40186 0.0
H5420 H 0.19198 0.32673 0.4261 0.0
H5421 H 0.18037 0.30386 0.40522 0.0
H5422 H 0.17864 0.2959 0.39032 0.0
H5423 H 0.20759 0.28995 0.39035 0.0
H5424 H 0.20952 0.29799 0.4052 0.0
H5425 H 0.19637 0.29048 0.45954 0.0
H5426 H 0.19131 0.3008 0.44716 0.0
H5427 H 0.21731 0.29741 0.43319 0.0
H5428 H 0.22247 0.28718 0.44564 0.0
H5429 H 0.20198 0.29452 0.42183 0.0
H5430 H 0.21341 0.31719 0.44304 0.0
H5431 H 0.21491 0.32502 0.45803 0.0
H5432 H 0.186 0.33114 0.45752 0.0
H5433 H 0.1843 0.32322 0.44258 0.0
C5434 C 0.19217 0.32777 0.39323 0.0
C5435 C 0.18333 0.33163 0.39348 0.0
C5436 C 0.19544 0.32265 0.40071 0.0
C5437 C 0.18994 0.32126 0.40859 0.0
C5438 C 0.18117 0.32521 0.40892 0.0
C5439 C 0.17787 0.3303 0.40142 0.0
C5440 C 0.19335 0.31563 0.41643 0.0
C5441 C 0.19405 0.31964 0.4252 0.0
C5442 C 0.19623 0.30645 0.41521 0.0
C5443 C 0.1951 0.30162 0.40627 0.0
C5444 C 0.18638 0.30093 0.40201 0.0
C5445 C 0.18536 0.29639 0.39358 0.0
C5446 C 0.193 0.29245 0.38937 0.0
C5447 C 0.20168 0.29302 0.39361 0.0
C5448 C 0.20274 0.29756 0.40203 0.0
C5449 C 0.20106 0.29204 0.4539 0.0
C5450 C 0.20983 0.28805 0.45357 0.0
C5451 C 0.19816 0.29794 0.44684 0.0
C5452 C 0.20395 0.29988 0.43928 0.0
C5453 C 0.21275 0.29599 0.43897 0.0
C5454 C 0.21569 0.29018 0.44608 0.0
C5455 C 0.20064 0.30563 0.43149 0.0
C5456 C 0.19993 0.30161 0.42273 0.0
C5457 C 0.19772 0.31478 0.43274 0.0
C5458 C 0.19871 0.31952 0.44173 0.0
C5459 C 0.20735 0.32013 0.44616 0.0
C5460 C 0.20824 0.3246 0.45464 0.0
C5461 C 0.20055 0.32855 0.45874 0.0
C5462 C 0.19195 0.32806 0.45435 0.0
C5463 C 0.19102 0.32359 0.44587 0.0
H5464 H 0.20126 0.33202 0.4653 0.0
H5465 H 0.1922 0.28893 0.38285 0.0
H5466 H 0.1851 0.69838 0.38791 0.0
H5467 H 0.19361 0.70478 0.40101 0.0
H5468 H 0.19126 0.67864 0.41524 0.0
H5469 H 0.18248 0.67225 0.40222 0.0
H5470 H 0.18693 0.69242 0.42643 0.0
H5471 H 0.21193 0.68602 0.40644 0.0
H5472 H 0.22077 0.686 0.39191 0.0
H5473 H 0.22256 0.71556 0.39221 0.0
H5474 H 0.21361 0.71577 0.40668 0.0
H5475 H 0.21631 0.70798 0.46268 0.0
H5476 H 0.21148 0.69901 0.44916 0.0
H5477 H 0.20888 0.72412 0.43336 0.0
H5478 H 0.21359 0.73312 0.44688 0.0
H5479 H 0.21688 0.7094 0.42333 0.0
H5480 H 0.19044 0.71542 0.44265 0.0
H5481 H 0.1819 0.71517 0.45737 0.0
H5482 H 0.18324 0.68565 0.45835 0.0
H5483 H 0.19194 0.68574 0.44371 0.0
C5484 C 0.18637 0.69399 0.39383 0.0
C5485 C 0.18307 0.68481 0.39403 0.0
C5486 C 0.19133 0.69763 0.40128 0.0
C5487 C 0.19317 0.69217 0.40908 0.0
C5488 C 0.18996 0.68297 0.40928 0.0
C5489 C 0.185 0.67931 0.40181 0.0
C5490 C 0.19803 0.69623 0.41718 0.0
C5491 C 0.19357 0.69597 0.42577 0.0
C5492 C 0.20663 0.70099 0.41632 0.0
C5493 C 0.21203 0.70091 0.40761 0.0
C5494 C 0.21414 0.69252 0.40337 0.0
C5495 C 0.21918 0.69247 0.39515 0.0
C5496 C 0.2222 0.70077 0.39113 0.0
C5497 C 0.2202 0.70914 0.39533 0.0
C5498 C 0.21515 0.70923 0.40355 0.0
C5499 C 0.21486 0.71156 0.45627 0.0
C5500 C 0.21534 0.72125 0.45582 0.0
C5501 C 0.21209 0.70644 0.44857 0.0
C5502 C 0.20977 0.71091 0.44029 0.0
C5503 C 0.21067 0.72054 0.43969 0.0
C5504 C 0.21335 0.72567 0.44741 0.0
C5505 C 0.20571 0.70565 0.43248 0.0
C5506 C 0.21031 0.70573 0.42396 0.0
C5507 C 0.19726 0.70066 0.43341 0.0
C5508 C 0.19193 0.70059 0.44215 0.0
C5509 C 0.18898 0.70888 0.44605 0.0
C5510 C 0.18411 0.70877 0.45437 0.0
C5511 C 0.18205 0.7004 0.45881 0.0
C5512 C 0.18485 0.69213 0.45491 0.0
C5513 C 0.18976 0.6922 0.4466 0.0
H5514 H 0.17827 0.70033 0.46525 0.0
H5515 H 0.22611 0.70072 0.38476 0.0
H5516 H 0.81646 0.68843 0.38216 0.0
H5517 H 0.80845 0.69542 0.39513 0.0
H5518 H 0.83201 0.69056 0.41264 0.0
H5519 H 0.83998 0.68336 0.39975 0.0
H5520 H 0.81572 0.68697 0.42168 0.0
H5521 H 0.82919 0.71133 0.40318 0.0
H5522 H 0.8322 0.72015 0.38886 0.0
H5523 H 0.80326 0.72561 0.38621 0.0
H5524 H 0.80006 0.7167 0.40046 0.0
H5525 H 0.81108 0.72188 0.45573 0.0
H5526 H 0.81593 0.71163 0.44337 0.0
H5527 H 0.79051 0.71662 0.42875 0.0
H5528 H 0.78553 0.72676 0.44121 0.0
H5529 H 0.80639 0.71952 0.41805 0.0
H5530 H 0.79326 0.69622 0.43763 0.0
H5531 H 0.79061 0.68762 0.45214 0.0
H5532 H 0.81923 0.68041 0.45306 0.0
H5533 H 0.82209 0.68909 0.43861 0.0
C5534 C 0.81987 0.68871 0.38881 0.0
C5535 C 0.82888 0.6854 0.38991 0.0
C5536 C 0.81532 0.69277 0.39619 0.0
C5537 C 0.81968 0.69361 0.40482 0.0
C5538 C 0.82853 0.69 0.40604 0.0
C5539 C 0.8331 0.68597 0.39864 0.0
C5540 C 0.81522 0.69864 0.41245 0.0
C5541 C 0.81374 0.6941 0.42092 0.0
C5542 C 0.81247 0.70789 0.41138 0.0
C5543 C 0.81437 0.71325 0.40282 0.0
C5544 C 0.82346 0.71434 0.3995 0.0
C5545 C 0.8252 0.71937 0.3914 0.0
C5546 C 0.81792 0.72341 0.38661 0.0
C5547 C 0.80889 0.72246 0.38992 0.0
C5548 C 0.8071 0.71742 0.398 0.0
C5549 C 0.80646 0.72067 0.44996 0.0
C5550 C 0.79793 0.72513 0.44943 0.0
C5551 C 0.80923 0.71481 0.44291 0.0
C5552 C 0.80356 0.71335 0.43517 0.0
C5553 C 0.79497 0.71765 0.43469 0.0
C5554 C 0.79214 0.72342 0.44179 0.0
C5555 C 0.80693 0.70787 0.42731 0.0
C5556 C 0.80825 0.71234 0.41879 0.0
C5557 C 0.80958 0.69859 0.42836 0.0
C5558 C 0.80791 0.69339 0.43708 0.0
C5559 C 0.79901 0.69288 0.44097 0.0
C5560 C 0.79746 0.68797 0.44917 0.0
C5561 C 0.80475 0.68349 0.45353 0.0
C5562 C 0.8136 0.6839 0.44968 0.0
C5563 C 0.81518 0.6888 0.44148 0.0
H5564 H 0.80354 0.67969 0.45988 0.0
H5565 H 0.81929 0.72731 0.38035 0.0
H5566 H 0.82079 0.33622 0.39859 0.0
H5567 H 0.81421 0.32745 0.41153 0.0
H5568 H 0.81503 0.30258 0.39544 0.0
H5569 H 0.82134 0.31137 0.38236 0.0
H5570 H 0.79871 0.30407 0.40362 0.0
H5571 H 0.83024 0.3064 0.41318 0.0
H5572 H 0.84512 0.31414 0.41676 0.0
H5573 H 0.83208 0.32985 0.43792 0.0
H5574 H 0.81708 0.32229 0.43438 0.0
H5575 H 0.7892 0.27273 0.44027 0.0
H5576 H 0.79768 0.28121 0.4282 0.0
H5577 H 0.79293 0.30672 0.44236 0.0
H5578 H 0.78429 0.2983 0.45438 0.0
H5579 H 0.81155 0.3047 0.4354 0.0
H5580 H 0.77989 0.30235 0.42532 0.0
H5581 H 0.76526 0.29412 0.42181 0.0
H5582 H 0.77903 0.27792 0.40151 0.0
H5583 H 0.79379 0.28596 0.40502 0.0
C5584 C 0.81956 0.32889 0.39779 0.0
C5585 C 0.82158 0.3245 0.38942 0.0
C5586 C 0.81588 0.32386 0.40524 0.0
C5587 C 0.81419 0.31433 0.4045 0.0
C5588 C 0.81629 0.30992 0.39619 0.0
C5589 C 0.81998 0.31494 0.38874 0.0
C5590 C 0.80986 0.30906 0.41224 0.0
C5591 C 0.80161 0.3041 0.41053 0.0
C5592 C 0.81352 0.30926 0.42131 0.0
C5593 C 0.82251 0.31384 0.42345 0.0
C5594 C 0.83052 0.31156 0.41854 0.0
C5595 C 0.83898 0.31591 0.42058 0.0
C5596 C 0.83954 0.3225 0.42755 0.0
C5597 C 0.83163 0.32475 0.43251 0.0
C5598 C 0.82315 0.32043 0.4305 0.0
C5599 C 0.79009 0.28013 0.44088 0.0
C5600 C 0.78624 0.28481 0.44837 0.0
C5601 C 0.79489 0.28496 0.43397 0.0
C5602 C 0.79593 0.29458 0.43441 0.0
C5603 C 0.79226 0.29928 0.44195 0.0
C5604 C 0.78735 0.29446 0.44882 0.0
C5605 C 0.80046 0.29974 0.42674 0.0
C5606 C 0.8087 0.30468 0.42847 0.0
C5607 C 0.79685 0.29949 0.41766 0.0
C5608 C 0.78797 0.29469 0.4155 0.0
C5609 C 0.77982 0.29698 0.42017 0.0
C5610 C 0.7715 0.29236 0.41817 0.0
C5611 C 0.77122 0.28549 0.41146 0.0
C5612 C 0.77926 0.28324 0.40672 0.0
C5613 C 0.78761 0.28782 0.4087 0.0
H5614 H 0.76476 0.28192 0.40992 0.0
H5615 H 0.84609 0.32585 0.42911 0.0
H5616 H 0.10667 0.67655 0.67411 0.0
H5617 H 0.09387 0.684 0.68201 0.0
H5618 H 0.11335 0.69888 0.69915 0.0
H5619 H 0.12615 0.69138 0.69137 0.0
H5620 H 0.0982 0.69182 0.709 0.0
H5621 H 0.10413 0.70923 0.68074 0.0
H5622 H 0.10571 0.71087 0.66385 0.0
H5623 H 0.07782 0.70088 0.66022 0.0
H5624 H 0.07613 0.69907 0.67708 0.0
H5625 H 0.07288 0.72879 0.72636 0.0
H5626 H 0.08386 0.7185 0.71918 0.0
H5627 H 0.06298 0.70991 0.69957 0.0
H5628 H 0.05218 0.72067 0.70634 0.0
H5629 H 0.07781 0.71223 0.69082 0.0
H5630 H 0.07091 0.69572 0.71853 0.0
H5631 H 0.06879 0.6933 0.73526 0.0
H5632 H 0.0974 0.7002 0.73994 0.0
H5633 H 0.09966 0.70279 0.72325 0.0
C5634 C 0.10821 0.68132 0.67964 0.0
C5635 C 0.11743 0.68342 0.68208 0.0
C5636 C 0.1009 0.68561 0.68411 0.0
C5637 C 0.10266 0.69206 0.69111 0.0
C5638 C 0.11183 0.69394 0.69376 0.0
C5639 C 0.11914 0.68971 0.68926 0.0
C5640 C 0.09501 0.69712 0.69548 0.0
C5641 C 0.09376 0.69634 0.70506 0.0
C5642 C 0.08903 0.70275 0.69028 0.0
C5643 C 0.09004 0.70392 0.68016 0.0
C5644 C 0.09836 0.70732 0.67633 0.0
C5645 C 0.09927 0.7083 0.66677 0.0
C5646 C 0.09188 0.70596 0.66097 0.0
C5647 C 0.08355 0.70268 0.66472 0.0
C5648 C 0.08261 0.70168 0.67428 0.0
C5649 C 0.07062 0.72465 0.72056 0.0
C5650 C 0.06162 0.72548 0.71703 0.0
C5651 C 0.07688 0.71869 0.7165 0.0
C5652 C 0.07422 0.71322 0.70894 0.0
C5653 C 0.06521 0.714 0.70542 0.0
C5654 C 0.059 0.72012 0.70936 0.0
C5655 C 0.081 0.70707 0.70444 0.0
C5656 C 0.08212 0.70764 0.69482 0.0
C5657 C 0.08675 0.70111 0.70959 0.0
C5658 C 0.08543 0.69952 0.71964 0.0
C5659 C 0.07674 0.69678 0.72313 0.0
C5660 C 0.07551 0.69537 0.73261 0.0
C5661 C 0.08295 0.69661 0.73866 0.0
C5662 C 0.09164 0.69925 0.73525 0.0
C5663 C 0.0929 0.70067 0.72578 0.0
H5664 H 0.08199 0.69552 0.746 0.0
H5665 H 0.0926 0.70672 0.65356 0.0
H5666 H 0.84157 0.60666 0.67953 0.0
H5667 H 0.83296 0.59373 0.6865 0.0
H5668 H 0.81054 0.61178 0.69287 0.0
H5669 H 0.81921 0.62479 0.68609 0.0
H5670 H 0.81523 0.60161 0.70758 0.0
H5671 H 0.80806 0.59592 0.67607 0.0
H5672 H 0.81107 0.59371 0.6595 0.0
H5673 H 0.82715 0.5699 0.66574 0.0
H5674 H 0.82435 0.57205 0.68237 0.0
H5675 H 0.78545 0.56516 0.72291 0.0
H5676 H 0.79131 0.57766 0.71292 0.0
H5677 H 0.81653 0.5629 0.70877 0.0
H5678 H 0.8108 0.55048 0.7189 0.0
H5679 H 0.80914 0.57157 0.69233 0.0
H5680 H 0.81719 0.57836 0.72398 0.0
H5681 H 0.8138 0.58058 0.74048 0.0
H5682 H 0.79554 0.60258 0.73362 0.0
H5683 H 0.79869 0.60038 0.71705 0.0
C5684 C 0.8348 0.60787 0.6824 0.0
C5685 C 0.83108 0.61675 0.68229 0.0
C5686 C 0.82985 0.60046 0.6863 0.0
C5687 C 0.82107 0.60178 0.69014 0.0
C5688 C 0.81728 0.61061 0.68992 0.0
C5689 C 0.82222 0.61802 0.68599 0.0
C5690 C 0.81611 0.59405 0.69486 0.0
C5691 C 0.81374 0.59511 0.70418 0.0
C5692 C 0.81432 0.58551 0.69048 0.0
C5693 C 0.81606 0.5842 0.68048 0.0
C5694 C 0.81231 0.59026 0.67392 0.0
C5695 C 0.81396 0.58901 0.66451 0.0
C5696 C 0.81932 0.58169 0.66157 0.0
C5697 C 0.82301 0.57558 0.66803 0.0
C5698 C 0.82138 0.57681 0.67745 0.0
C5699 C 0.7922 0.56456 0.71979 0.0
C5700 C 0.7977 0.55688 0.72173 0.0
C5701 C 0.79553 0.57167 0.71409 0.0
C5702 C 0.80437 0.5712 0.71016 0.0
C5703 C 0.80969 0.56337 0.71173 0.0
C5704 C 0.80642 0.5563 0.71753 0.0
C5705 C 0.80834 0.57916 0.705 0.0
C5706 C 0.81055 0.57813 0.69565 0.0
C5707 C 0.80994 0.58775 0.70932 0.0
C5708 C 0.80809 0.58913 0.71927 0.0
C5709 C 0.81238 0.58361 0.72598 0.0
C5710 C 0.81052 0.58488 0.73535 0.0
C5711 C 0.80444 0.5917 0.7381 0.0
C5712 C 0.80023 0.59728 0.73148 0.0
C5713 C 0.80205 0.59603 0.7221 0.0
H5714 H 0.80301 0.59267 0.74535 0.0
H5715 H 0.82058 0.58073 0.65428 0.0
H5716 H 0.89739 0.33841 0.68173 0.0
H5717 H 0.91033 0.33241 0.6907 0.0
H5718 H 0.89718 0.30548 0.69121 0.0
H5719 H 0.88412 0.31149 0.68248 0.0
H5720 H 0.90394 0.3098 0.70786 0.0
H5721 H 0.91528 0.3103 0.67679 0.0
H5722 H 0.91904 0.31721 0.66162 0.0
H5723 H 0.93762 0.3366 0.67458 0.0
H5724 H 0.93388 0.32989 0.68985 0.0
H5725 H 0.94239 0.2844 0.72336 0.0
H5726 H 0.93007 0.29014 0.71333 0.0
H5727 H 0.94246 0.3174 0.71412 0.0
H5728 H 0.95476 0.31169 0.72415 0.0
H5729 H 0.93625 0.31284 0.69665 0.0
H5730 H 0.92472 0.31242 0.72771 0.0
H5731 H 0.92108 0.3054 0.74284 0.0
H5732 H 0.90282 0.28575 0.72981 0.0
H5733 H 0.90648 0.29257 0.71457 0.0
C5734 C 0.89722 0.33123 0.68382 0.0
C5735 C 0.88973 0.32542 0.68135 0.0
C5736 C 0.90467 0.32778 0.68887 0.0
C5737 C 0.9048 0.31846 0.69153 0.0
C5738 C 0.89727 0.31269 0.6892 0.0
C5739 C 0.88983 0.31612 0.68414 0.0
C5740 C 0.91273 0.31471 0.69682 0.0
C5741 C 0.91098 0.31035 0.70534 0.0
C5742 C 0.92196 0.3156 0.69364 0.0
C5743 C 0.92423 0.31965 0.68447 0.0
C5744 C 0.92011 0.31609 0.67641 0.0
C5745 C 0.92225 0.31996 0.6678 0.0
C5746 C 0.92854 0.32736 0.66714 0.0
C5747 C 0.93274 0.33088 0.6751 0.0
C5748 C 0.93061 0.32704 0.68374 0.0
C5749 C 0.94255 0.29158 0.72127 0.0
C5750 C 0.94958 0.29758 0.72448 0.0
C5751 C 0.93549 0.29487 0.71559 0.0
C5752 C 0.93531 0.30422 0.71304 0.0
C5753 C 0.94247 0.31016 0.71599 0.0
C5754 C 0.9495 0.30689 0.72171 0.0
C5755 C 0.92743 0.30791 0.70765 0.0
C5756 C 0.92919 0.31227 0.69914 0.0
C5757 C 0.91821 0.30702 0.71082 0.0
C5758 C 0.91595 0.30295 0.71999 0.0
C5759 C 0.91999 0.30656 0.72806 0.0
C5760 C 0.91791 0.30262 0.73666 0.0
C5761 C 0.91174 0.29512 0.73729 0.0
C5762 C 0.90762 0.29155 0.72931 0.0
C5763 C 0.90968 0.29545 0.72069 0.0
H5764 H 0.91014 0.29208 0.74395 0.0
H5765 H 0.93019 0.33034 0.66047 0.0
H5766 H 0.16749 0.39591 0.68497 0.0
H5767 H 0.17565 0.40929 0.69142 0.0
H5768 H 0.19953 0.39268 0.69664 0.0
H5769 H 0.1913 0.3792 0.69039 0.0
H5770 H 0.1953 0.40265 0.71147 0.0
H5771 H 0.19988 0.40869 0.67948 0.0
H5772 H 0.19556 0.41062 0.66313 0.0
H5773 H 0.17834 0.43328 0.67018 0.0
H5774 H 0.18245 0.4314 0.68661 0.0
H5775 H 0.2232 0.44115 0.72488 0.0
H5776 H 0.21772 0.42818 0.71543 0.0
H5777 H 0.19145 0.44128 0.71187 0.0
H5778 H 0.19682 0.45418 0.72142 0.0
H5779 H 0.19827 0.43293 0.6955 0.0
H5780 H 0.19288 0.42578 0.72768 0.0
H5781 H 0.19752 0.42387 0.74395 0.0
H5782 H 0.21674 0.40313 0.7362 0.0
H5783 H 0.21232 0.40503 0.71985 0.0
C5784 C 0.17448 0.3951 0.6875 0.0
C5785 C 0.17874 0.38648 0.68719 0.0
C5786 C 0.17917 0.40278 0.69109 0.0
C5787 C 0.18824 0.40202 0.69444 0.0
C5788 C 0.19255 0.39344 0.69407 0.0
C5789 C 0.18786 0.38576 0.69043 0.0
C5790 C 0.19301 0.41006 0.69875 0.0
C5791 C 0.1961 0.40922 0.7079 0.0
C5792 C 0.19393 0.41869 0.69417 0.0
C5793 C 0.19141 0.41984 0.6843 0.0
C5794 C 0.19511 0.41403 0.67756 0.0
C5795 C 0.19271 0.41513 0.66828 0.0
C5796 C 0.18666 0.42206 0.66562 0.0
C5797 C 0.18302 0.42791 0.67225 0.0
C5798 C 0.18539 0.42684 0.68155 0.0
C5799 C 0.2163 0.4413 0.72198 0.0
C5800 C 0.21043 0.44866 0.7239 0.0
C5801 C 0.21318 0.43391 0.71659 0.0
C5802 C 0.20416 0.43376 0.713 0.0
C5803 C 0.19844 0.44128 0.71456 0.0
C5804 C 0.20151 0.44863 0.72003 0.0
C5805 C 0.20046 0.42549 0.70819 0.0
C5806 C 0.19755 0.42632 0.69899 0.0
C5807 C 0.19974 0.41683 0.7127 0.0
C5808 C 0.20235 0.41562 0.72253 0.0
C5809 C 0.19816 0.42087 0.72943 0.0
C5810 C 0.20074 0.41978 0.73867 0.0
C5811 C 0.20744 0.4134 0.74111 0.0
C5812 C 0.21156 0.40808 0.7343 0.0
C5813 C 0.20902 0.40916 0.72505 0.0
H5814 H 0.20943 0.41256 0.74826 0.0
H5815 H 0.18482 0.4229 0.65843 0.0
H5816 H 0.10377 0.32546 0.33967 0.0
H5817 H 0.09074 0.31982 0.33042 0.0
H5818 H 0.10888 0.31638 0.30714 0.0
H5819 H 0.12195 0.32208 0.31636 0.0
H5820 H 0.09319 0.32406 0.3018 0.0
H5821 H 0.10121 0.29779 0.32018 0.0
H5822 H 0.1046 0.28937 0.3346 0.0
H5823 H 0.07739 0.29485 0.34469 0.0
H5824 H 0.07387 0.30342 0.33038 0.0
H5825 H 0.05998 0.299 0.27533 0.0
H5826 H 0.07404 0.30295 0.284 0.0
H5827 H 0.05774 0.30673 0.30856 0.0
H5828 H 0.04374 0.30251 0.29998 0.0
H5829 H 0.07313 0.29815 0.31279 0.0
H5830 H 0.06538 0.32505 0.29489 0.0
H5831 H 0.06191 0.33364 0.28059 0.0
H5832 H 0.08857 0.32712 0.26972 0.0
H5833 H 0.09214 0.31838 0.28391 0.0
C5834 C 0.105 0.32344 0.33261 0.0
C5835 C 0.11391 0.32418 0.32877 0.0
C5836 C 0.09754 0.32021 0.32732 0.0
C5837 C 0.09885 0.31754 0.31812 0.0
C5838 C 0.10771 0.31839 0.31423 0.0
C5839 C 0.11516 0.32167 0.3195 0.0
C5840 C 0.09096 0.31394 0.31254 0.0
C5841 C 0.08889 0.3183 0.30413 0.0
C5842 C 0.08523 0.30653 0.31566 0.0
C5843 C 0.0873 0.30131 0.32424 0.0
C5844 C 0.09597 0.29725 0.3255 0.0
C5845 C 0.09791 0.29245 0.33365 0.0
C5846 C 0.09122 0.2916 0.34056 0.0
C5847 C 0.08256 0.29553 0.33933 0.0
C5848 C 0.08059 0.30035 0.3312 0.0
C5849 C 0.05943 0.3005 0.28262 0.0
C5850 C 0.05078 0.30027 0.28703 0.0
C5851 C 0.06746 0.30285 0.28755 0.0
C5852 C 0.06695 0.30523 0.29692 0.0
C5853 C 0.05833 0.30488 0.30135 0.0
C5854 C 0.05033 0.30247 0.29645 0.0
C5855 C 0.07531 0.30833 0.30209 0.0
C5856 C 0.07747 0.30387 0.31043 0.0
C5857 C 0.0811 0.31567 0.29892 0.0
C5858 C 0.07899 0.32098 0.29042 0.0
C5859 C 0.07047 0.3254 0.28942 0.0
C5860 C 0.06849 0.3303 0.28134 0.0
C5861 C 0.075 0.33091 0.27424 0.0
C5862 C 0.08352 0.32663 0.27522 0.0
C5863 C 0.08553 0.32171 0.28328 0.0
H5864 H 0.07346 0.33471 0.26799 0.0
H5865 H 0.09274 0.28788 0.34687 0.0
H5866 H 0.20236 0.6161 0.3374 0.0
H5867 H 0.20862 0.60355 0.32835 0.0
H5868 H 0.18134 0.59698 0.31799 0.0
H5869 H 0.17495 0.60933 0.32731 0.0
H5870 H 0.19054 0.58151 0.32235 0.0
H5871 H 0.19685 0.60918 0.30487 0.0
H5872 H 0.20293 0.62499 0.30234 0.0
H5873 H 0.23035 0.61611 0.30875 0.0
H5874 H 0.22441 0.60026 0.31144 0.0
H5875 H 0.20274 0.55611 0.28252 0.0
H5876 H 0.19686 0.56712 0.29367 0.0
H5877 H 0.22465 0.57278 0.30316 0.0
H5878 H 0.23058 0.5618 0.29192 0.0
H5879 H 0.21559 0.58841 0.29985 0.0
H5880 H 0.20934 0.56049 0.31659 0.0
H5881 H 0.20321 0.54469 0.319 0.0
H5882 H 0.17566 0.55396 0.31388 0.0
H5883 H 0.18164 0.5698 0.31131 0.0
C5884 C 0.19765 0.61191 0.33331 0.0
C5885 C 0.18814 0.61375 0.33308 0.0
C5886 C 0.20127 0.60479 0.32806 0.0
C5887 C 0.19547 0.59939 0.32239 0.0
C5888 C 0.18595 0.60108 0.32229 0.0
C5889 C 0.18232 0.6082 0.32755 0.0
C5890 C 0.19937 0.59211 0.31646 0.0
C5891 C 0.19594 0.58303 0.31735 0.0
C5892 C 0.20658 0.59405 0.3101 0.0
C5893 C 0.21017 0.60356 0.30844 0.0
C5894 C 0.20417 0.61061 0.30581 0.0
C5895 C 0.20759 0.61958 0.30433 0.0
C5896 C 0.21701 0.62156 0.30541 0.0
C5897 C 0.22304 0.61457 0.30793 0.0
C5898 C 0.21966 0.60559 0.30942 0.0
C5899 C 0.20758 0.55958 0.28711 0.0
C5900 C 0.21711 0.55796 0.28647 0.0
C5901 C 0.20421 0.56586 0.29348 0.0
C5902 C 0.2103 0.5707 0.29934 0.0
C5903 C 0.21982 0.56909 0.29875 0.0
C5904 C 0.2232 0.56278 0.29237 0.0
C5905 C 0.20675 0.5778 0.30571 0.0
C5906 C 0.21023 0.58686 0.30488 0.0
C5907 C 0.19958 0.57584 0.31212 0.0
C5908 C 0.19595 0.56632 0.31367 0.0
C5909 C 0.20198 0.55914 0.3159 0.0
C5910 C 0.19853 0.55018 0.31731 0.0
C5911 C 0.18905 0.54832 0.31657 0.0
C5912 C 0.183 0.55541 0.31444 0.0
C5913 C 0.18642 0.56439 0.31302 0.0
H5914 H 0.18639 0.54137 0.31767 0.0
H5915 H 0.21965 0.6285 0.30426 0.0
H5916 H 0.89939 0.66549 0.31883 0.0
H5917 H 0.91243 0.67418 0.31216 0.0
H5918 H 0.89673 0.69911 0.31329 0.0
H5919 H 0.88358 0.69043 0.31973 0.0
H5920 H 0.90477 0.69732 0.29681 0.0
H5921 H 0.91432 0.69537 0.32837 0.0
H5922 H 0.9179 0.68773 0.34316 0.0
H5923 H 0.93903 0.67218 0.32998 0.0
H5924 H 0.93549 0.67964 0.31507 0.0
H5925 H 0.94107 0.72958 0.28815 0.0
H5926 H 0.92905 0.72069 0.29634 0.0
H5927 H 0.94367 0.69564 0.29118 0.0
H5928 H 0.95564 0.70447 0.28282 0.0
H5929 H 0.93653 0.69735 0.30979 0.0
H5930 H 0.92669 0.69941 0.27818 0.0
H5931 H 0.92322 0.70746 0.26358 0.0
H5932 H 0.90253 0.72319 0.27723 0.0
H5933 H 0.90599 0.71534 0.29196 0.0
C5934 C 0.89871 0.67282 0.31765 0.0
C5935 C 0.89044 0.67726 0.31981 0.0
C5936 C 0.9062 0.6778 0.31391 0.0
C5937 C 0.90559 0.68732 0.31229 0.0
C5938 C 0.89737 0.69178 0.3145 0.0
C5939 C 0.88989 0.68681 0.31826 0.0
C5940 C 0.91337 0.69256 0.30795 0.0
C5941 C 0.91167 0.69743 0.29973 0.0
C5942 C 0.92244 0.69252 0.31163 0.0
C5943 C 0.92457 0.68799 0.32058 0.0
C5944 C 0.91967 0.69026 0.3286 0.0
C5945 C 0.92171 0.68597 0.33701 0.0
C5946 C 0.92867 0.67945 0.3375 0.0
C5947 C 0.93363 0.67722 0.32959 0.0
C5948 C 0.93162 0.68148 0.32115 0.0
C5949 C 0.94178 0.72219 0.28888 0.0
C5950 C 0.94939 0.71776 0.285 0.0
C5951 C 0.93491 0.71713 0.29352 0.0
C5952 C 0.93549 0.70752 0.29436 0.0
C5953 C 0.94315 0.70306 0.29066 0.0
C5954 C 0.94999 0.70812 0.28591 0.0
C5955 C 0.92787 0.70212 0.29873 0.0
C5956 C 0.9296 0.69723 0.30691 0.0
C5957 C 0.91881 0.70215 0.29505 0.0
C5958 C 0.91667 0.70685 0.28619 0.0
C5959 C 0.92146 0.70464 0.27809 0.0
C5960 C 0.91949 0.70916 0.26979 0.0
C5961 C 0.91268 0.71585 0.26948 0.0
C5962 C 0.90782 0.71802 0.27748 0.0
C5963 C 0.90978 0.71353 0.28581 0.0
H5964 H 0.91115 0.71934 0.26305 0.0
H5965 H 0.93024 0.67614 0.34402 0.0
H5966 H 0.81371 0.38075 0.32044 0.0
H5967 H 0.80494 0.39375 0.31446 0.0
H5968 H 0.83007 0.4101 0.31251 0.0
H5969 H 0.83884 0.39724 0.31874 0.0
H5970 H 0.816 0.42023 0.31892 0.0
H5971 H 0.82106 0.39946 0.29368 0.0
H5972 H 0.82038 0.38452 0.28568 0.0
H5973 H 0.79077 0.38402 0.28766 0.0
H5974 H 0.79129 0.39892 0.29579 0.0
H5975 H 0.80616 0.45274 0.28358 0.0
H5976 H 0.81201 0.44051 0.29356 0.0
H5977 H 0.78478 0.42796 0.29474 0.0
H5978 H 0.77884 0.44028 0.28481 0.0
H5979 H 0.79826 0.41573 0.28991 0.0
H5980 H 0.79331 0.43762 0.31363 0.0
H5981 H 0.79425 0.45272 0.3213 0.0
H5982 H 0.82386 0.45135 0.32188 0.0
H5983 H 0.8231 0.4363 0.31409 0.0
C5984 C 0.81735 0.38716 0.31888 0.0
C5985 C 0.82699 0.38793 0.32 0.0
C5986 C 0.81233 0.39456 0.31539 0.0
C5987 C 0.81686 0.40286 0.31293 0.0
C5988 C 0.82644 0.40375 0.31434 0.0
C5989 C 0.83145 0.39636 0.31781 0.0
C5990 C 0.81173 0.41049 0.30852 0.0
C5991 C 0.81217 0.41927 0.31254 0.0
C5992 C 0.80654 0.40919 0.30033 0.0
C5993 C 0.80622 0.40024 0.29544 0.0
C5994 C 0.81441 0.39612 0.29248 0.0
C5995 C 0.81405 0.38767 0.28791 0.0
C5996 C 0.80554 0.38331 0.28619 0.0
C5997 C 0.79736 0.3874 0.28902 0.0
C5998 C 0.79768 0.39585 0.2936 0.0
C5999 C 0.80138 0.44747 0.28611 0.0
C6000 C 0.79203 0.44749 0.28345 0.0
C6001 C 0.80473 0.4405 0.29182 0.0
C6002 C 0.79882 0.43336 0.29494 0.0
C6003 C 0.78944 0.43342 0.29244 0.0
C6004 C 0.78606 0.44046 0.28679 0.0
C6005 C 0.80263 0.4255 0.30023 0.0
C6006 C 0.80197 0.41668 0.29636 0.0
C6007 C 0.80765 0.42679 0.30853 0.0
C6008 C 0.80815 0.43586 0.3132 0.0
C6009 C 0.80003 0.44057 0.31532 0.0
C6010 C 0.80053 0.44912 0.3197 0.0
C6011 C 0.80911 0.453 0.32206 0.0
C6012 C 0.81721 0.44834 0.32005 0.0
C6013 C 0.81675 0.43979 0.31565 0.0
H6014 H 0.80948 0.45962 0.32546 0.0
H6015 H 0.80527 0.37677 0.28265 0.0
H6016 H 0.16663 0.60382 0.69463 0.0
H6017 H 0.17564 0.59169 0.70187 0.0
H6018 H 0.20065 0.60361 0.6904 0.0
H6019 H 0.19169 0.61593 0.68326 0.0
H6020 H 0.1999 0.58374 0.69011 0.0
H6021 H 0.19629 0.60867 0.71132 0.0
H6022 H 0.18759 0.62025 0.71991 0.0
H6023 H 0.17159 0.59873 0.73313 0.0
H6024 H 0.18011 0.58701 0.7245 0.0
H6025 H 0.23389 0.55797 0.72245 0.0
H6026 H 0.2242 0.5707 0.71049 0.0
H6027 H 0.19518 0.56665 0.72907 0.0
H6028 H 0.20405 0.55392 0.74147 0.0
H6029 H 0.19823 0.58307 0.7243 0.0
H6030 H 0.20083 0.55817 0.70257 0.0
H6031 H 0.20903 0.54636 0.69376 0.0
H6032 H 0.22649 0.56736 0.68155 0.0
H6033 H 0.21845 0.57928 0.69039 0.0
C6034 C 0.17404 0.60388 0.69363 0.0
C6035 C 0.17844 0.61094 0.68848 0.0
C6036 C 0.17917 0.5969 0.69772 0.0
C6037 C 0.18882 0.59682 0.69676 0.0
C6038 C 0.19321 0.60355 0.69121 0.0
C6039 C 0.18807 0.61057 0.68713 0.0
C6040 C 0.19431 0.59015 0.70218 0.0
C6041 C 0.19965 0.58364 0.69759 0.0
C6042 C 0.19386 0.58994 0.71193 0.0
C6043 C 0.18878 0.59697 0.7172 0.0
C6044 C 0.19087 0.60641 0.716 0.0
C6045 C 0.18597 0.61299 0.72089 0.0
C6046 C 0.17902 0.61023 0.72705 0.0
C6047 C 0.17697 0.60086 0.72835 0.0
C6048 C 0.18183 0.59424 0.72347 0.0
C6049 C 0.22682 0.55981 0.72381 0.0
C6050 C 0.21941 0.55329 0.73225 0.0
C6051 C 0.22057 0.56731 0.71612 0.0
C6052 C 0.20844 0.5695 0.71801 0.0
C6053 C 0.20229 0.56484 0.72791 0.0
C6054 C 0.20789 0.5573 0.73596 0.0
C6055 C 0.20366 0.57641 0.71226 0.0
C6056 C 0.19848 0.58306 0.71682 0.0
C6057 C 0.20427 0.57671 0.70251 0.0
C6058 C 0.20915 0.56958 0.69724 0.0
C6059 C 0.20648 0.56025 0.69807 0.0
C6060 C 0.21108 0.55354 0.69305 0.0
C6061 C 0.21831 0.5561 0.68713 0.0
C6062 C 0.22091 0.56538 0.68617 0.0
C6063 C 0.21634 0.57212 0.69117 0.0
H6064 H 0.22186 0.5509 0.68325 0.0
H6065 H 0.17524 0.61534 0.73083 0.0
H6066 H 0.16644 0.39917 0.31414 0.0
H6067 H 0.17588 0.41191 0.30796 0.0
H6068 H 0.19856 0.40393 0.32541 0.0
H6069 H 0.18926 0.39103 0.33149 0.0
H6070 H 0.19582 0.423 0.32506 0.0
H6071 H 0.19876 0.39797 0.30349 0.0
H6072 H 0.19278 0.38596 0.29297 0.0
H6073 H 0.17945 0.40656 0.27655 0.0
H6074 H 0.18525 0.41869 0.28705 0.0
H6075 H 0.23324 0.44653 0.30341 0.0
H6076 H 0.2225 0.4353 0.31037 0.0
H6077 H 0.20235 0.44129 0.28927 0.0
H6078 H 0.21325 0.45221 0.28206 0.0
H6079 H 0.203 0.42374 0.29158 0.0
H6080 H 0.2003 0.44894 0.31234 0.0
H6081 H 0.20574 0.46122 0.32282 0.0
H6082 H 0.21781 0.44101 0.3407 0.0
H6083 H 0.21255 0.42861 0.33026 0.0
C6084 C 0.17345 0.40007 0.31663 0.0
C6085 C 0.1771 0.39401 0.32327 0.0
C6086 C 0.17882 0.40739 0.31312 0.0
C6087 C 0.18794 0.40881 0.31617 0.0
C6088 C 0.19153 0.40296 0.32298 0.0
C6089 C 0.18618 0.39561 0.32647 0.0
C6090 C 0.19385 0.4162 0.31203 0.0
C6091 C 0.19748 0.42314 0.31776 0.0
C6092 C 0.19578 0.4165 0.30246 0.0
C6093 C 0.19236 0.40922 0.29611 0.0
C6094 C 0.19449 0.39993 0.29767 0.0
C6095 C 0.19115 0.3931 0.29171 0.0
C6096 C 0.18572 0.39549 0.28411 0.0
C6097 C 0.18365 0.40472 0.28245 0.0
C6098 C 0.18696 0.41157 0.2884 0.0
C6099 C 0.22647 0.44553 0.30034 0.0
C6100 C 0.22401 0.45044 0.29234 0.0
C6101 C 0.22031 0.43914 0.30434 0.0
C6102 C 0.21151 0.43759 0.30048 0.0
C6103 C 0.20906 0.44243 0.29244 0.0
C6104 C 0.21527 0.44873 0.28836 0.0
C6105 C 0.20505 0.43061 0.3046 0.0
C6106 C 0.20131 0.4237 0.29887 0.0
C6107 C 0.20295 0.43041 0.31415 0.0
C6108 C 0.20609 0.43785 0.32047 0.0
C6109 C 0.20417 0.44711 0.31847 0.0
C6110 C 0.20721 0.4541 0.32441 0.0
C6111 C 0.21213 0.4519 0.33241 0.0
C6112 C 0.214 0.44271 0.33449 0.0
C6113 C 0.21098 0.4357 0.32858 0.0
H6114 H 0.21448 0.45731 0.33699 0.0
H6115 H 0.18314 0.3902 0.2795 0.0
H6116 H 0.1217 0.67349 0.3109 0.0
H6117 H 0.10901 0.68232 0.30451 0.0
H6118 H 0.10139 0.69079 0.3319 0.0
H6119 H 0.11396 0.68167 0.3384 0.0
H6120 H 0.08639 0.68563 0.3221 0.0
H6121 H 0.11208 0.70599 0.31728 0.0
H6122 H 0.1278 0.71064 0.31236 0.0
H6123 H 0.12101 0.70391 0.28431 0.0
H6124 H 0.10528 0.69909 0.28908 0.0
H6125 H 0.05304 0.71524 0.30174 0.0
H6126 H 0.0666 0.71061 0.31073 0.0
H6127 H 0.07855 0.69909 0.28621 0.0
H6128 H 0.06513 0.7038 0.27723 0.0
H6129 H 0.09156 0.70791 0.2964 0.0
H6130 H 0.06654 0.68575 0.30184 0.0
H6131 H 0.05084 0.68109 0.30684 0.0
H6132 H 0.0565 0.69149 0.33399 0.0
H6133 H 0.0722 0.69633 0.3291 0.0
C6134 C 0.1173 0.67716 0.31559 0.0
C6135 C 0.11885 0.67684 0.32517 0.0
C6136 C 0.1101 0.68231 0.31191 0.0
C6137 C 0.10432 0.68733 0.31771 0.0
C6138 C 0.1058 0.68701 0.32729 0.0
C6139 C 0.11302 0.68185 0.33099 0.0
C6140 C 0.0966 0.69269 0.31371 0.0
C6141 C 0.08754 0.69065 0.31661 0.0
C6142 C 0.09807 0.69917 0.30648 0.0
C6143 C 0.10751 0.70212 0.30356 0.0
C6144 C 0.11396 0.70544 0.31007 0.0
C6145 C 0.12287 0.70812 0.30731 0.0
C6146 C 0.12541 0.70756 0.29803 0.0
C6147 C 0.11903 0.70434 0.2915 0.0
C6148 C 0.11011 0.70164 0.29423 0.0
C6149 C 0.05867 0.7119 0.29826 0.0
C6150 C 0.05809 0.71 0.28876 0.0
C6151 C 0.06637 0.7092 0.3034 0.0
C6152 C 0.07357 0.70443 0.29915 0.0
C6153 C 0.07312 0.70279 0.28963 0.0
C6154 C 0.06544 0.70549 0.2845 0.0
C6155 C 0.08135 0.70067 0.30462 0.0
C6156 C 0.09043 0.70301 0.30199 0.0
C6157 C 0.07989 0.69449 0.31211 0.0
C6158 C 0.0705 0.6915 0.31507 0.0
C6159 C 0.06441 0.6871 0.30885 0.0
C6160 C 0.05552 0.68442 0.31167 0.0
C6161 C 0.05267 0.68602 0.32072 0.0
C6162 C 0.05871 0.69027 0.32698 0.0
C6163 C 0.06761 0.69298 0.32419 0.0
H6164 H 0.04578 0.68394 0.32289 0.0
H6165 H 0.13231 0.70963 0.29591 0.0
H6166 H 0.83061 0.61199 0.32221 0.0
H6167 H 0.82442 0.5985 0.31411 0.0
H6168 H 0.79692 0.60502 0.32305 0.0
H6169 H 0.80303 0.61861 0.33107 0.0
H6170 H 0.80074 0.58695 0.32589 0.0
H6171 H 0.80322 0.60872 0.30092 0.0
H6172 H 0.81107 0.62022 0.29091 0.0
H6173 H 0.83073 0.60006 0.28276 0.0
H6174 H 0.82308 0.58847 0.29282 0.0
H6175 H 0.77876 0.55236 0.29883 0.0
H6176 H 0.78316 0.56737 0.30525 0.0
H6177 H 0.81098 0.56417 0.29524 0.0
H6178 H 0.80651 0.54934 0.28849 0.0
H6179 H 0.80606 0.58119 0.29263 0.0
H6180 H 0.80458 0.55981 0.31817 0.0
H6181 H 0.79721 0.54815 0.32837 0.0
H6182 H 0.77631 0.56737 0.3357 0.0
H6183 H 0.78348 0.57911 0.32544 0.0
C6184 C 0.82323 0.61064 0.32235 0.0
C6185 C 0.81732 0.61639 0.3273 0.0
C6186 C 0.8197 0.60291 0.31772 0.0
C6187 C 0.8102 0.60079 0.31792 0.0
C6188 C 0.80428 0.60652 0.32283 0.0
C6189 C 0.80779 0.61426 0.32744 0.0
C6190 C 0.80648 0.59244 0.31325 0.0
C6191 C 0.80176 0.58575 0.31858 0.0
C6192 C 0.80802 0.59079 0.30377 0.0
C6193 C 0.81262 0.59775 0.29769 0.0
C6194 C 0.80926 0.60676 0.29705 0.0
C6195 C 0.81367 0.61329 0.29136 0.0
C6196 C 0.82141 0.61088 0.28622 0.0
C6197 C 0.82474 0.60192 0.28675 0.0
C6198 C 0.82037 0.59536 0.29244 0.0
C6199 C 0.78577 0.55494 0.29785 0.0
C6200 C 0.79225 0.54976 0.29299 0.0
C6201 C 0.7883 0.56348 0.3016 0.0
C6202 C 0.79743 0.56687 0.30081 0.0
C6203 C 0.80388 0.56174 0.2959 0.0
C6204 C 0.80133 0.55327 0.29206 0.0
C6205 C 0.80039 0.57565 0.30528 0.0
C6206 C 0.80497 0.58241 0.29992 0.0
C6207 C 0.7988 0.57734 0.31476 0.0
C6208 C 0.79451 0.5703 0.32096 0.0
C6209 C 0.79837 0.56153 0.32191 0.0
C6210 C 0.79424 0.55491 0.3277 0.0
C6211 C 0.78628 0.55701 0.33266 0.0
C6212 C 0.78246 0.56575 0.33184 0.0
C6213 C 0.78656 0.57239 0.32604 0.0
H6214 H 0.78309 0.55188 0.33714 0.0
H6215 H 0.82481 0.61595 0.28181 0.0
H6216 H 0.90072 0.3217 0.33601 0.0
H6217 H 0.91375 0.31551 0.32751 0.0
H6218 H 0.89597 0.3102 0.30414 0.0
H6219 H 0.88283 0.31618 0.31272 0.0
H6220 H 0.90618 0.29553 0.30807 0.0
H6221 H 0.91206 0.32753 0.30331 0.0
H6222 H 0.91419 0.34387 0.3075 0.0
H6223 H 0.93764 0.33706 0.32423 0.0
H6224 H 0.93557 0.32065 0.32025 0.0
H6225 H 0.94397 0.28249 0.27994 0.0
H6226 H 0.93114 0.29184 0.28536 0.0
H6227 H 0.94494 0.29556 0.31151 0.0
H6228 H 0.95769 0.28611 0.3062 0.0
H6229 H 0.93646 0.31181 0.30455 0.0
H6230 H 0.92935 0.27958 0.31025 0.0
H6231 H 0.92725 0.26333 0.3057 0.0
H6232 H 0.90591 0.27095 0.28664 0.0
H6233 H 0.908 0.28728 0.29097 0.0
C6234 C 0.89958 0.31921 0.32906 0.0
C6235 C 0.89073 0.3194 0.32505 0.0
C6236 C 0.90706 0.31576 0.32417 0.0
C6237 C 0.90587 0.31247 0.31515 0.0
C6238 C 0.89706 0.31274 0.31108 0.0
C6239 C 0.88957 0.31622 0.31597 0.0
C6240 C 0.91372 0.3083 0.31019 0.0
C6241 C 0.91273 0.29917 0.30714 0.0
C6242 C 0.92233 0.31298 0.3091 0.0
C6243 C 0.9236 0.32284 0.31154 0.0
C6244 C 0.91762 0.3295 0.30795 0.0
C6245 C 0.91883 0.33878 0.31028 0.0
C6246 C 0.92604 0.3415 0.31615 0.0
C6247 C 0.93206 0.33494 0.31969 0.0
C6248 C 0.93087 0.32565 0.3174 0.0
C6249 C 0.94431 0.28541 0.2868 0.0
C6250 C 0.95182 0.28355 0.29266 0.0
C6251 C 0.93699 0.29073 0.28988 0.0
C6252 C 0.93708 0.29434 0.29885 0.0
C6253 C 0.94476 0.29286 0.30455 0.0
C6254 C 0.95202 0.28745 0.30152 0.0
C6255 C 0.9289 0.29907 0.30255 0.0
C6256 C 0.92984 0.30826 0.30538 0.0
C6257 C 0.92023 0.29448 0.3034 0.0
C6258 C 0.91891 0.28466 0.30085 0.0
C6259 C 0.92426 0.2778 0.30503 0.0
C6260 C 0.92307 0.26858 0.3025 0.0
C6261 C 0.91647 0.26611 0.29586 0.0
C6262 C 0.91103 0.27287 0.29177 0.0
C6263 C 0.91222 0.28211 0.29426 0.0
H6264 H 0.91555 0.25897 0.29392 0.0
H6265 H 0.92696 0.34868 0.31794 0.0
H6266 H 0.81476 0.39178 0.68123 0.0
H6267 H 0.80626 0.40428 0.68845 0.0
H6268 H 0.83136 0.414 0.70151 0.0
H6269 H 0.83992 0.40172 0.69419 0.0
H6270 H 0.81716 0.41091 0.71378 0.0
H6271 H 0.82185 0.42625 0.68451 0.0
H6272 H 0.82088 0.42788 0.66759 0.0
H6273 H 0.79128 0.42575 0.66894 0.0
H6274 H 0.79208 0.42397 0.68587 0.0
H6275 H 0.80476 0.45385 0.73935 0.0
H6276 H 0.81295 0.44055 0.7273 0.0
H6277 H 0.7828 0.43499 0.71104 0.0
H6278 H 0.7737 0.44825 0.72273 0.0
H6279 H 0.79879 0.43549 0.69899 0.0
H6280 H 0.79363 0.42034 0.7276 0.0
H6281 H 0.79389 0.41811 0.74448 0.0
H6282 H 0.82357 0.41887 0.74425 0.0
H6283 H 0.82348 0.42124 0.72737 0.0
C6284 C 0.81851 0.3967 0.68548 0.0
C6285 C 0.82802 0.39566 0.68722 0.0
C6286 C 0.81363 0.40383 0.68961 0.0
C6287 C 0.81817 0.41006 0.69554 0.0
C6288 C 0.82771 0.40924 0.69701 0.0
C6289 C 0.83258 0.40217 0.69286 0.0
C6290 C 0.81294 0.41695 0.70087 0.0
C6291 C 0.81328 0.41638 0.71053 0.0
C6292 C 0.80752 0.42382 0.69663 0.0
C6293 C 0.80703 0.42487 0.68645 0.0
C6294 C 0.81514 0.42603 0.6812 0.0
C6295 C 0.81462 0.42701 0.6716 0.0
C6296 C 0.80603 0.42689 0.66719 0.0
C6297 C 0.79793 0.42582 0.67237 0.0
C6298 C 0.79842 0.42484 0.68196 0.0
C6299 C 0.80059 0.45007 0.7344 0.0
C6300 C 0.78875 0.45368 0.7312 0.0
C6301 C 0.80573 0.44215 0.72653 0.0
C6302 C 0.79896 0.43681 0.71746 0.0
C6303 C 0.78671 0.43873 0.71622 0.0
C6304 C 0.78088 0.44657 0.72376 0.0
C6305 C 0.80334 0.42962 0.71186 0.0
C6306 C 0.80273 0.43005 0.7022 0.0
C6307 C 0.80845 0.42253 0.71607 0.0
C6308 C 0.80854 0.42107 0.72623 0.0
C6309 C 0.80021 0.42011 0.73116 0.0
C6310 C 0.80033 0.4188 0.74072 0.0
C6311 C 0.80874 0.41838 0.74544 0.0
C6312 C 0.81705 0.41922 0.74059 0.0
C6313 C 0.81698 0.42053 0.73102 0.0
H6314 H 0.80881 0.41737 0.75284 0.0
H6315 H 0.80564 0.42765 0.65976 0.0
H6316 H 0.11173 0.32939 0.68466 0.0
H6317 H 0.09878 0.32381 0.69409 0.0
H6318 H 0.10561 0.29576 0.6878 0.0
H6319 H 0.11865 0.30127 0.67842 0.0
H6320 H 0.08697 0.29837 0.68698 0.0
H6321 H 0.11167 0.3048 0.70826 0.0
H6322 H 0.12397 0.31424 0.71555 0.0
H6323 H 0.10398 0.33405 0.72378 0.0
H6324 H 0.09157 0.32479 0.71643 0.0
H6325 H 0.0576 0.27291 0.72391 0.0
H6326 H 0.0715 0.27971 0.71103 0.0
H6327 H 0.06907 0.31177 0.72337 0.0
H6328 H 0.05517 0.30584 0.73654 0.0
H6329 H 0.08553 0.30742 0.71988 0.0
H6330 H 0.06101 0.30173 0.69802 0.0
H6331 H 0.04855 0.29266 0.69052 0.0
H6332 H 0.06794 0.27186 0.68332 0.0
H6333 H 0.08049 0.28079 0.69087 0.0
C6334 C 0.11053 0.32203 0.68532 0.0
C6335 C 0.11629 0.31578 0.68083 0.0
C6336 C 0.10309 0.31885 0.69069 0.0
C6337 C 0.10128 0.30936 0.69174 0.0
C6338 C 0.10687 0.30311 0.68708 0.0
C6339 C 0.11431 0.30628 0.6817 0.0
C6340 C 0.09372 0.30597 0.69788 0.0
C6341 C 0.08671 0.30025 0.6942 0.0
C6342 C 0.09325 0.30858 0.70726 0.0
C6343 C 0.1007 0.31415 0.71171 0.0
C6344 C 0.1099 0.31121 0.71156 0.0
C6345 C 0.1169 0.31652 0.71571 0.0
C6346 C 0.11476 0.32475 0.7201 0.0
C6347 C 0.10563 0.32768 0.72037 0.0
C6348 C 0.09861 0.3224 0.71621 0.0
C6349 C 0.05994 0.28003 0.72398 0.0
C6350 C 0.05369 0.28907 0.73044 0.0
C6351 C 0.0682 0.28444 0.71565 0.0
C6352 C 0.07126 0.29659 0.71527 0.0
C6353 C 0.06674 0.30464 0.72352 0.0
C6354 C 0.05846 0.30093 0.73208 0.0
C6355 C 0.07868 0.29991 0.70898 0.0
C6356 C 0.08572 0.30558 0.71264 0.0
C6357 C 0.07915 0.29726 0.69961 0.0
C6358 C 0.07164 0.29185 0.69513 0.0
C6359 C 0.0626 0.29519 0.69489 0.0
C6360 C 0.05552 0.29008 0.69062 0.0
C6361 C 0.05744 0.28167 0.68648 0.0
C6362 C 0.06645 0.27837 0.68656 0.0
C6363 C 0.07355 0.28345 0.69083 0.0
H6364 H 0.05196 0.27772 0.68317 0.0
H6365 H 0.12019 0.32885 0.72331 0.0
H6366 H 0.90199 0.69229 0.6629 0.0
H6367 H 0.91499 0.6983 0.6719 0.0
H6368 H 0.9039 0.6851 0.69637 0.0
H6369 H 0.89063 0.6794 0.68747 0.0
H6370 H 0.90873 0.7022 0.69999 0.0
H6371 H 0.92357 0.67713 0.68571 0.0
H6372 H 0.9283 0.66702 0.67301 0.0
H6373 H 0.94283 0.68971 0.66008 0.0
H6374 H 0.93808 0.69999 0.67263 0.0
H6375 H 0.94854 0.71762 0.725 0.0
H6376 H 0.93752 0.70674 0.71785 0.0
H6377 H 0.94289 0.7192 0.69123 0.0
H6378 H 0.95389 0.73002 0.69831 0.0
H6379 H 0.94149 0.70027 0.69026 0.0
H6380 H 0.92466 0.72551 0.7037 0.0
H6381 H 0.91995 0.73548 0.71651 0.0
H6382 H 0.90919 0.71187 0.73126 0.0
H6383 H 0.91397 0.70174 0.71858 0.0
C6384 C 0.9023 0.69067 0.6702 0.0
C6385 C 0.89524 0.68539 0.67446 0.0
C6386 C 0.90981 0.69401 0.67532 0.0
C6387 C 0.91049 0.69206 0.6848 0.0
C6388 C 0.90354 0.68666 0.68906 0.0
C6389 C 0.896 0.68334 0.68394 0.0
C6390 C 0.91815 0.69618 0.69034 0.0
C6391 C 0.91591 0.7016 0.69798 0.0
C6392 C 0.92752 0.6955 0.68766 0.0
C6393 C 0.93041 0.68935 0.68009 0.0
C6394 C 0.92772 0.67998 0.68012 0.0
C6395 C 0.93041 0.67422 0.67296 0.0
C6396 C 0.93585 0.67773 0.66574 0.0
C6397 C 0.93862 0.68701 0.66568 0.0
C6398 C 0.93594 0.6928 0.67282 0.0
C6399 C 0.94747 0.71791 0.7176 0.0
C6400 C 0.95212 0.72461 0.71219 0.0
C6401 C 0.94117 0.71173 0.71354 0.0
C6402 C 0.93936 0.7122 0.70402 0.0
C6403 C 0.94422 0.71869 0.69858 0.0
C6404 C 0.95049 0.72487 0.70263 0.0
C6405 C 0.93201 0.7064 0.69974 0.0
C6406 C 0.93431 0.7007 0.69235 0.0
C6407 C 0.9227 0.70677 0.70267 0.0
C6408 C 0.91977 0.71286 0.71025 0.0
C6409 C 0.92135 0.72244 0.70971 0.0
C6410 C 0.91866 0.72812 0.71694 0.0
C6411 C 0.9143 0.72431 0.72471 0.0
C6412 C 0.91259 0.71481 0.72525 0.0
C6413 C 0.91529 0.7091 0.71804 0.0
H6414 H 0.91222 0.72872 0.7303 0.0
H6415 H 0.93793 0.67326 0.6602 0.0
H6416 H 0.68227 0.16325 0.60534 0.0
H6417 H 0.68959 0.17215 0.59283 0.0
H6418 H 0.69441 0.19485 0.6114 0.0
H6419 H 0.68707 0.18602 0.62391 0.0
H6420 H 0.68867 0.20091 0.59479 0.0
H6421 H 0.71158 0.17955 0.60603 0.0
H6422 H 0.71734 0.1641 0.60983 0.0
H6423 H 0.71351 0.15578 0.58168 0.0
H6424 H 0.7076 0.17115 0.57773 0.0
H6425 H 0.72384 0.22642 0.57185 0.0
H6426 H 0.7142 0.21737 0.58252 0.0
H6427 H 0.71345 0.19487 0.5632 0.0
H6428 H 0.72354 0.20368 0.55277 0.0
H6429 H 0.71611 0.18824 0.57922 0.0
H6430 H 0.6942 0.20955 0.56745 0.0
H6431 H 0.68809 0.22479 0.56332 0.0
H6432 H 0.68941 0.23294 0.59173 0.0
H6433 H 0.69564 0.2178 0.59602 0.0
C6434 C 0.6849 0.17014 0.60675 0.0
C6435 C 0.68413 0.17391 0.61563 0.0
C6436 C 0.68907 0.17522 0.5996 0.0
C6437 C 0.69266 0.18413 0.6012 0.0
C6438 C 0.69168 0.188 0.60999 0.0
C6439 C 0.68746 0.18295 0.61713 0.0
C6440 C 0.6977 0.18934 0.59385 0.0
C6441 C 0.69472 0.19818 0.59143 0.0
C6442 C 0.70542 0.18567 0.58925 0.0
C6443 C 0.70907 0.17647 0.59161 0.0
C6444 C 0.71191 0.17441 0.60066 0.0
C6445 C 0.71521 0.16567 0.60284 0.0
C6446 C 0.71577 0.15895 0.59601 0.0
C6447 C 0.71306 0.16098 0.58697 0.0
C6448 C 0.70974 0.16971 0.58476 0.0
C6449 C 0.72153 0.21957 0.56985 0.0
C6450 C 0.72431 0.21587 0.56138 0.0
C6451 C 0.71597 0.21442 0.57593 0.0
C6452 C 0.71288 0.20549 0.5736 0.0
C6453 C 0.71566 0.20176 0.56514 0.0
C6454 C 0.72138 0.20685 0.55913 0.0
C6455 C 0.70715 0.1999 0.58018 0.0
C6456 C 0.71001 0.19097 0.58248 0.0
C6457 C 0.69926 0.20346 0.58459 0.0
C6458 C 0.69545 0.21256 0.58204 0.0
C6459 C 0.69324 0.21461 0.57281 0.0
C6460 C 0.68975 0.22323 0.57044 0.0
C6461 C 0.68838 0.22983 0.57725 0.0
C6462 C 0.69048 0.22782 0.58646 0.0
C6463 C 0.69397 0.21922 0.58886 0.0
H6464 H 0.68568 0.2365 0.5754 0.0
H6465 H 0.71832 0.15219 0.59771 0.0
H6466 H 0.30734 0.18174 0.62039 0.0
H6467 H 0.30108 0.19092 0.60775 0.0
H6468 H 0.32759 0.19098 0.59417 0.0
H6469 H 0.33393 0.18178 0.60685 0.0
H6470 H 0.32025 0.20783 0.59381 0.0
H6471 H 0.30975 0.17729 0.58641 0.0
H6472 H 0.30229 0.16214 0.58939 0.0
H6473 H 0.27655 0.17526 0.59488 0.0
H6474 H 0.28388 0.1905 0.59206 0.0
H6475 H 0.30214 0.22774 0.55279 0.0
H6476 H 0.30955 0.21699 0.56344 0.0
H6477 H 0.2841 0.21414 0.57878 0.0
H6478 H 0.27659 0.22461 0.56794 0.0
H6479 H 0.29177 0.19794 0.57721 0.0
H6480 H 0.30247 0.22844 0.58578 0.0
H6481 H 0.30987 0.24366 0.58305 0.0
H6482 H 0.33516 0.23067 0.57555 0.0
H6483 H 0.32787 0.21536 0.57812 0.0
C6484 C 0.31182 0.18362 0.61467 0.0
C6485 C 0.32112 0.18097 0.61459 0.0
C6486 C 0.30823 0.18887 0.60745 0.0
C6487 C 0.31382 0.19152 0.59994 0.0
C6488 C 0.32314 0.18899 0.59989 0.0
C6489 C 0.32676 0.18376 0.60714 0.0
C6490 C 0.30994 0.19705 0.59224 0.0
C6491 C 0.31411 0.2056 0.59007 0.0
C6492 C 0.30184 0.19421 0.58747 0.0
C6493 C 0.29739 0.18505 0.58909 0.0
C6494 C 0.30251 0.17695 0.58831 0.0
C6495 C 0.29831 0.16835 0.58996 0.0
C6496 C 0.28896 0.16774 0.59234 0.0
C6497 C 0.28379 0.17574 0.59304 0.0
C6498 C 0.28797 0.18436 0.59141 0.0
C6499 C 0.29808 0.22468 0.55833 0.0
C6500 C 0.28872 0.22686 0.55942 0.0
C6501 C 0.30235 0.21861 0.56447 0.0
C6502 C 0.29741 0.21482 0.57197 0.0
C6503 C 0.28804 0.21694 0.57302 0.0
C6504 C 0.28376 0.22292 0.56684 0.0
C6505 C 0.30199 0.2088 0.57888 0.0
C6506 C 0.29795 0.20014 0.5809 0.0
C6507 C 0.3102 0.21155 0.58353 0.0
C6508 C 0.3146 0.22075 0.58205 0.0
C6509 C 0.30959 0.22883 0.58349 0.0
C6510 C 0.31377 0.23747 0.58198 0.0
C6511 C 0.32297 0.23813 0.5791 0.0
C6512 C 0.32803 0.23015 0.57776 0.0
C6513 C 0.32388 0.22149 0.57925 0.0
H6514 H 0.32619 0.24483 0.57793 0.0
H6515 H 0.28572 0.16107 0.59362 0.0
H6516 H 0.3256 0.84188 0.61058 0.0
H6517 H 0.31981 0.83312 0.59737 0.0
H6518 H 0.31794 0.80859 0.61429 0.0
H6519 H 0.32376 0.81732 0.62756 0.0
H6520 H 0.32511 0.80488 0.59757 0.0
H6521 H 0.29861 0.82064 0.60885 0.0
H6522 H 0.28987 0.83411 0.61391 0.0
H6523 H 0.29337 0.84668 0.5872 0.0
H6524 H 0.30225 0.83333 0.58201 0.0
H6525 H 0.29943 0.77963 0.56392 0.0
H6526 H 0.30388 0.78719 0.57837 0.0
H6527 H 0.30525 0.81343 0.56419 0.0
H6528 H 0.30048 0.80594 0.54985 0.0
H6529 H 0.29761 0.81556 0.58035 0.0
H6530 H 0.32482 0.80047 0.56931 0.0
H6531 H 0.33384 0.78723 0.56411 0.0
H6532 H 0.32927 0.77365 0.59017 0.0
H6533 H 0.32011 0.78676 0.59548 0.0
C6534 C 0.3239 0.83463 0.61151 0.0
C6535 C 0.32507 0.83032 0.62015 0.0
C6536 C 0.3206 0.82963 0.60395 0.0
C6537 C 0.31829 0.82022 0.60487 0.0
C6538 C 0.31965 0.81584 0.61342 0.0
C6539 C 0.323 0.82084 0.62099 0.0
C6540 C 0.31444 0.815 0.5969 0.0
C6541 C 0.31901 0.80713 0.59389 0.0
C6542 C 0.30658 0.81802 0.59199 0.0
C6543 C 0.30116 0.82602 0.59507 0.0
C6544 C 0.29757 0.8263 0.60407 0.0
C6545 C 0.29258 0.83391 0.60696 0.0
C6546 C 0.29108 0.84126 0.60089 0.0
C6547 C 0.29455 0.84099 0.5919 0.0
C6548 C 0.29955 0.8334 0.58898 0.0
C6549 C 0.3005 0.78703 0.56394 0.0
C6550 C 0.29941 0.79223 0.55579 0.0
C6551 C 0.30315 0.79134 0.57218 0.0
C6552 C 0.305 0.80088 0.57237 0.0
C6553 C 0.30382 0.80608 0.56425 0.0
C6554 C 0.30108 0.8018 0.55606 0.0
C6555 C 0.30835 0.8055 0.58092 0.0
C6556 C 0.30368 0.81326 0.58406 0.0
C6557 C 0.31614 0.8024 0.58592 0.0
C6558 C 0.3217 0.79455 0.58275 0.0
C6559 C 0.32568 0.79463 0.57391 0.0
C6560 C 0.33083 0.78715 0.57094 0.0
C6561 C 0.33211 0.77959 0.57679 0.0
C6562 C 0.32826 0.7795 0.58564 0.0
C6563 C 0.3231 0.78695 0.58863 0.0
H6564 H 0.33609 0.77381 0.57449 0.0
H6565 H 0.28722 0.84714 0.60314 0.0
H6566 H 0.69246 0.81798 0.62198 0.0
H6567 H 0.69924 0.80913 0.60946 0.0
H6568 H 0.68926 0.82885 0.5896 0.0
H6569 H 0.68238 0.83771 0.6021 0.0
H6570 H 0.68615 0.81046 0.58437 0.0
H6571 H 0.71124 0.82974 0.59525 0.0
H6572 H 0.72167 0.83638 0.60704 0.0
H6573 H 0.73124 0.80935 0.6139 0.0
H6574 H 0.72076 0.80254 0.60223 0.0
H6575 H 0.71126 0.79337 0.54661 0.0
H6576 H 0.70509 0.80358 0.55829 0.0
H6577 H 0.7185 0.7878 0.57963 0.0
H6578 H 0.72516 0.77789 0.56789 0.0
H6579 H 0.71987 0.80493 0.58383 0.0
H6580 H 0.69465 0.78535 0.5739 0.0
H6581 H 0.68401 0.77817 0.56262 0.0
H6582 H 0.67437 0.80486 0.55462 0.0
H6583 H 0.68505 0.81221 0.56577 0.0
C6584 C 0.69164 0.82039 0.61494 0.0
C6585 C 0.6869 0.82855 0.61302 0.0
C6586 C 0.69557 0.81536 0.60781 0.0
C6587 C 0.69482 0.81838 0.59862 0.0
C6588 C 0.68994 0.82642 0.59665 0.0
C6589 C 0.68607 0.8315 0.60379 0.0
C6590 C 0.69919 0.81316 0.59108 0.0
C6591 C 0.69354 0.80935 0.58416 0.0
C6592 C 0.7088 0.81154 0.59096 0.0
C6593 C 0.71516 0.81563 0.59792 0.0
C6594 C 0.71552 0.82521 0.59932 0.0
C6595 C 0.72145 0.829 0.60597 0.0
C6596 C 0.7271 0.82329 0.61123 0.0
C6597 C 0.72685 0.81377 0.60983 0.0
C6598 C 0.72092 0.80994 0.60319 0.0
C6599 C 0.71306 0.79218 0.55377 0.0
C6600 C 0.71885 0.7849 0.55632 0.0
C6601 C 0.70942 0.79796 0.56047 0.0
C6602 C 0.71118 0.79639 0.56988 0.0
C6603 C 0.71704 0.78919 0.57243 0.0
C6604 C 0.72083 0.78352 0.56572 0.0
C6605 C 0.70683 0.80211 0.57711 0.0
C6606 C 0.71248 0.80603 0.58399 0.0
C6607 C 0.6972 0.80374 0.57726 0.0
C6608 C 0.69071 0.79933 0.57061 0.0
C6609 C 0.6903 0.78969 0.5697 0.0
C6610 C 0.68426 0.78559 0.56333 0.0
C6611 C 0.67853 0.79106 0.55789 0.0
C6612 C 0.67882 0.80063 0.55883 0.0
C6613 C 0.68486 0.80477 0.56518 0.0
H6614 H 0.67386 0.78787 0.55296 0.0
H6615 H 0.73168 0.82624 0.61638 0.0
H6616 H 0.67504 0.82409 0.39338 0.0
H6617 H 0.6818 0.81525 0.40602 0.0
H6618 H 0.70828 0.82848 0.40097 0.0
H6619 H 0.70168 0.83703 0.38805 0.0
H6620 H 0.71025 0.81059 0.4032 0.0
H6621 H 0.69474 0.83425 0.41964 0.0
H6622 H 0.68163 0.84389 0.424 0.0
H6623 H 0.66646 0.81982 0.43319 0.0
H6624 H 0.67944 0.81002 0.42875 0.0
H6625 H 0.7314 0.79346 0.44392 0.0
H6626 H 0.72496 0.80417 0.43256 0.0
H6627 H 0.69822 0.79079 0.4354 0.0
H6628 H 0.70459 0.78017 0.44683 0.0
H6629 H 0.69681 0.80945 0.43468 0.0
H6630 H 0.71209 0.78583 0.41755 0.0
H6631 H 0.72525 0.77622 0.41326 0.0
H6632 H 0.74092 0.80045 0.40543 0.0
H6633 H 0.72789 0.81022 0.40981 0.0
C6634 C 0.68232 0.82508 0.39492 0.0
C6635 C 0.68781 0.83128 0.3897 0.0
C6636 C 0.68615 0.8201 0.40222 0.0
C6637 C 0.69552 0.82129 0.40452 0.0
C6638 C 0.70102 0.82749 0.39935 0.0
C6639 C 0.69721 0.83244 0.39202 0.0
C6640 C 0.69968 0.81582 0.41211 0.0
C6641 C 0.7074 0.81047 0.41012 0.0
C6642 C 0.69585 0.8155 0.42109 0.0
C6643 C 0.68804 0.82139 0.42378 0.0
C6644 C 0.68858 0.831 0.42252 0.0
C6645 C 0.68118 0.8365 0.42502 0.0
C6646 C 0.67321 0.83247 0.42885 0.0
C6647 C 0.67263 0.82293 0.43021 0.0
C6648 C 0.68002 0.8174 0.42771 0.0
C6649 C 0.72412 0.79291 0.44221 0.0
C6650 C 0.71845 0.78607 0.44636 0.0
C6651 C 0.72047 0.79898 0.43569 0.0
C6652 C 0.71113 0.79823 0.4331 0.0
C6653 C 0.70543 0.79152 0.43733 0.0
C6654 C 0.70907 0.78545 0.44385 0.0
C6655 C 0.70733 0.80423 0.42574 0.0
C6656 C 0.69968 0.80965 0.42777 0.0
C6657 C 0.71123 0.80463 0.4168 0.0
C6658 C 0.71905 0.79876 0.4141 0.0
C6659 C 0.71837 0.78911 0.41498 0.0
C6660 C 0.7258 0.78363 0.41252 0.0
C6661 C 0.73393 0.78772 0.40909 0.0
C6662 C 0.73463 0.79729 0.40809 0.0
C6663 C 0.72722 0.8028 0.41056 0.0
H6664 H 0.73968 0.78347 0.40719 0.0
H6665 H 0.66748 0.83674 0.43078 0.0
H6666 H 0.66703 0.18112 0.40485 0.0
H6667 H 0.67601 0.18796 0.41747 0.0
H6668 H 0.70008 0.18949 0.39997 0.0
H6669 H 0.69115 0.18269 0.38731 0.0
H6670 H 0.70441 0.18378 0.41742 0.0
H6671 H 0.68684 0.20834 0.40344 0.0
H6672 H 0.67249 0.21566 0.39819 0.0
H6673 H 0.6618 0.21448 0.42581 0.0
H6674 H 0.67604 0.20705 0.4312 0.0
H6675 H 0.73235 0.21677 0.44042 0.0
H6676 H 0.72297 0.20776 0.42959 0.0
H6677 H 0.69917 0.21079 0.44715 0.0
H6678 H 0.70841 0.22025 0.45772 0.0
H6679 H 0.6941 0.21333 0.43055 0.0
H6680 H 0.71157 0.18972 0.44504 0.0
H6681 H 0.72555 0.18201 0.45068 0.0
H6682 H 0.73596 0.18071 0.423 0.0
H6683 H 0.7221 0.18852 0.41719 0.0
C6684 C 0.67423 0.18293 0.40368 0.0
C6685 C 0.67835 0.18142 0.39504 0.0
C6686 C 0.67936 0.18682 0.41091 0.0
C6687 C 0.68869 0.18936 0.40963 0.0
C6688 C 0.6929 0.18758 0.40112 0.0
C6689 C 0.68778 0.18367 0.39389 0.0
C6690 C 0.69399 0.19416 0.41703 0.0
C6691 C 0.70221 0.19028 0.42025 0.0
C6692 C 0.69097 0.20249 0.42092 0.0
C6693 C 0.68246 0.20707 0.4177 0.0
C6694 C 0.6814 0.20959 0.40838 0.0
C6695 C 0.67329 0.21377 0.40538 0.0
C6696 C 0.66623 0.21551 0.41166 0.0
C6697 C 0.66727 0.21312 0.42095 0.0
C6698 C 0.67536 0.20893 0.42398 0.0
C6699 C 0.72513 0.21542 0.442 0.0
C6700 C 0.7212 0.21906 0.45003 0.0
C6701 C 0.71978 0.21022 0.43584 0.0
C6702 C 0.71038 0.20837 0.43764 0.0
C6703 C 0.70641 0.21204 0.44563 0.0
C6704 C 0.71174 0.2174 0.45172 0.0
C6705 C 0.70462 0.20301 0.43094 0.0
C6706 C 0.69629 0.20679 0.42783 0.0
C6707 C 0.7075 0.19452 0.42723 0.0
C6708 C 0.71582 0.18977 0.43069 0.0
C6709 C 0.71687 0.18784 0.44016 0.0
C6710 C 0.72477 0.18345 0.44339 0.0
C6711 C 0.73165 0.18089 0.4372 0.0
C6712 C 0.73063 0.1827 0.42778 0.0
C6713 C 0.72275 0.1871 0.42451 0.0
H6714 H 0.73776 0.17749 0.43972 0.0
H6715 H 0.65995 0.21874 0.40932 0.0
H6716 H 0.31778 0.17523 0.3959 0.0
H6717 H 0.30931 0.18215 0.40865 0.0
H6718 H 0.3229 0.20831 0.40311 0.0
H6719 H 0.33127 0.20151 0.39033 0.0
H6720 H 0.3228 0.2042 0.42144 0.0
H6721 H 0.30078 0.20404 0.39616 0.0
H6722 H 0.2913 0.19668 0.384 0.0
H6723 H 0.27773 0.17958 0.40435 0.0
H6724 H 0.28721 0.18677 0.41662 0.0
H6725 H 0.2958 0.23764 0.4424 0.0
H6726 H 0.30397 0.22772 0.43174 0.0
H6727 H 0.28668 0.20459 0.44008 0.0
H6728 H 0.27832 0.2146 0.45067 0.0
H6729 H 0.28854 0.20511 0.42178 0.0
H6730 H 0.30924 0.2062 0.44727 0.0
H6731 H 0.31862 0.21338 0.4596 0.0
H6732 H 0.33472 0.2282 0.43931 0.0
H6733 H 0.32536 0.22121 0.42686 0.0
C6734 C 0.31891 0.18247 0.39735 0.0
C6735 C 0.32522 0.18781 0.39209 0.0
C6736 C 0.31408 0.18641 0.40466 0.0
C6737 C 0.31545 0.19576 0.40681 0.0
C6738 C 0.32178 0.20107 0.40161 0.0
C6739 C 0.32659 0.19716 0.39432 0.0
C6740 C 0.31027 0.20011 0.41441 0.0
C6741 C 0.31531 0.20446 0.42149 0.0
C6742 C 0.3005 0.20015 0.41465 0.0
C6743 C 0.29477 0.19586 0.40729 0.0
C6744 C 0.29582 0.19866 0.39803 0.0
C6745 C 0.29044 0.19453 0.39112 0.0
C6746 C 0.28394 0.18765 0.3934 0.0
C6747 C 0.28278 0.1849 0.4026 0.0
C6748 C 0.28815 0.189 0.40953 0.0
C6749 C 0.29382 0.23041 0.44205 0.0
C6750 C 0.28659 0.22684 0.44756 0.0
C6751 C 0.2985 0.22474 0.43597 0.0
C6752 C 0.29608 0.21536 0.43525 0.0
C6753 C 0.28873 0.21179 0.4406 0.0
C6754 C 0.28401 0.21749 0.44668 0.0
C6755 C 0.30108 0.20943 0.42869 0.0
C6756 C 0.29603 0.20476 0.42182 0.0
C6757 C 0.31085 0.20903 0.42867 0.0
C6758 C 0.31655 0.21322 0.43613 0.0
C6759 C 0.31474 0.21104 0.44544 0.0
C6760 C 0.32006 0.21506 0.45245 0.0
C6761 C 0.32725 0.22125 0.45024 0.0
C6762 C 0.32915 0.2234 0.44101 0.0
C6763 C 0.32385 0.2194 0.43398 0.0
H6764 H 0.33137 0.22436 0.45568 0.0
H6765 H 0.27978 0.18446 0.38804 0.0
H6766 H 0.3062 0.83054 0.39001 0.0
H6767 H 0.30091 0.82232 0.40386 0.0
H6768 H 0.32874 0.81358 0.4092 0.0
H6769 H 0.33412 0.82191 0.39543 0.0
H6770 H 0.31593 0.7995 0.41153 0.0
H6771 H 0.3199 0.83117 0.42112 0.0
H6772 H 0.31728 0.84789 0.42013 0.0
H6773 H 0.28814 0.84315 0.42388 0.0
H6774 H 0.29057 0.82639 0.42478 0.0
H6775 H 0.31319 0.78551 0.45808 0.0
H6776 H 0.31686 0.79291 0.44332 0.0
H6777 H 0.28922 0.80346 0.44182 0.0
H6778 H 0.28565 0.79638 0.45683 0.0
H6779 H 0.30088 0.81633 0.43694 0.0
H6780 H 0.29658 0.78492 0.42811 0.0
H6781 H 0.29878 0.76813 0.42887 0.0
H6782 H 0.32772 0.77207 0.42328 0.0
H6783 H 0.32573 0.7889 0.4226 0.0
C6784 C 0.31122 0.82694 0.39416 0.0
C6785 C 0.32061 0.82694 0.39162 0.0
C6786 C 0.30817 0.82221 0.40206 0.0
C6787 C 0.31444 0.81741 0.40761 0.0
C6788 C 0.32378 0.81723 0.405 0.0
C6789 C 0.32684 0.82197 0.39711 0.0
C6790 C 0.31132 0.81268 0.4162 0.0
C6791 C 0.31272 0.80318 0.41713 0.0
C6792 C 0.30686 0.81744 0.42338 0.0
C6793 C 0.30541 0.82752 0.42292 0.0
C6794 C 0.31292 0.83369 0.42167 0.0
C6795 C 0.31147 0.84317 0.42114 0.0
C6796 C 0.30255 0.84658 0.42192 0.0
C6797 C 0.29505 0.84051 0.42327 0.0
C6798 C 0.29646 0.83101 0.42379 0.0
C6799 C 0.30786 0.78931 0.45453 0.0
C6800 C 0.29906 0.79013 0.45849 0.0
C6801 C 0.30995 0.79351 0.44608 0.0
C6802 C 0.30325 0.79856 0.44131 0.0
C6803 C 0.29448 0.79951 0.44531 0.0
C6804 C 0.29242 0.7954 0.45385 0.0
C6805 C 0.30556 0.80311 0.43235 0.0
C6806 C 0.30401 0.81259 0.43133 0.0
C6807 C 0.3098 0.79831 0.42505 0.0
C6808 C 0.31101 0.78818 0.42537 0.0
C6809 C 0.30343 0.78221 0.42709 0.0
C6810 C 0.30464 0.77269 0.4275 0.0
C6811 C 0.31339 0.76903 0.42614 0.0
C6812 C 0.32095 0.7749 0.42434 0.0
C6813 C 0.31978 0.78444 0.42393 0.0
H6814 H 0.31431 0.76166 0.42646 0.0
H6815 H 0.30144 0.85392 0.4215 0.0
H6816 H 0.61196 0.17118 0.68628 0.0
H6817 H 0.5994 0.17839 0.69475 0.0
H6818 H 0.60419 0.2037 0.67958 0.0
H6819 H 0.61694 0.1967 0.67138 0.0
H6820 H 0.60143 0.20716 0.69738 0.0
H6821 H 0.58649 0.18817 0.674 0.0
H6822 H 0.5829 0.17354 0.66606 0.0
H6823 H 0.57239 0.16188 0.69136 0.0
H6824 H 0.57602 0.17641 0.69946 0.0
H6825 H 0.55998 0.23142 0.69875 0.0
H6826 H 0.57373 0.22275 0.69499 0.0
H6827 H 0.56382 0.20007 0.71191 0.0
H6828 H 0.54988 0.2087 0.71553 0.0
H6829 H 0.56957 0.19401 0.69581 0.0
H6830 H 0.58256 0.21366 0.71874 0.0
H6831 H 0.58598 0.22829 0.72671 0.0
H6832 H 0.60015 0.23867 0.70267 0.0
H6833 H 0.5967 0.22414 0.69451 0.0
C6834 C 0.6104 0.17832 0.68482 0.0
C6835 C 0.61542 0.18334 0.67809 0.0
C6836 C 0.60317 0.1824 0.68962 0.0
C6837 C 0.60078 0.19156 0.68773 0.0
C6838 C 0.60589 0.19662 0.68114 0.0
C6839 C 0.61312 0.19257 0.67638 0.0
C6840 C 0.59288 0.19592 0.69244 0.0
C6841 C 0.59445 0.20431 0.697 0.0
C6842 C 0.58383 0.19205 0.69224 0.0
C6843 C 0.58163 0.18333 0.68735 0.0
C6844 C 0.58348 0.18246 0.67788 0.0
C6845 C 0.58142 0.17419 0.67335 0.0
C6846 C 0.57744 0.16678 0.67821 0.0
C6847 C 0.57548 0.16762 0.6876 0.0
C6848 C 0.57754 0.17587 0.69217 0.0
C6849 C 0.56082 0.22466 0.70182 0.0
C6850 C 0.55396 0.22084 0.70762 0.0
C6851 C 0.5687 0.21971 0.69969 0.0
C6852 C 0.56992 0.21082 0.70331 0.0
C6853 C 0.56308 0.20696 0.70911 0.0
C6854 C 0.55516 0.21191 0.71123 0.0
C6855 C 0.57806 0.20541 0.70052 0.0
C6856 C 0.57656 0.1968 0.69634 0.0
C6857 C 0.58718 0.20908 0.70109 0.0
C6858 C 0.58932 0.21782 0.70599 0.0
C6859 C 0.58635 0.21908 0.71513 0.0
C6860 C 0.5883 0.22736 0.71968 0.0
C6861 C 0.59327 0.23441 0.71519 0.0
C6862 C 0.59631 0.2332 0.70614 0.0
C6863 C 0.59437 0.22494 0.70155 0.0
H6864 H 0.59477 0.24081 0.71873 0.0
H6865 H 0.57586 0.16038 0.67469 0.0
H6866 H 0.33967 0.109 0.68383 0.0
H6867 H 0.3305 0.09623 0.69044 0.0
H6868 H 0.30756 0.11435 0.69423 0.0
H6869 H 0.31673 0.12719 0.68776 0.0
H6870 H 0.31089 0.1034 0.70959 0.0
H6871 H 0.3074 0.09961 0.6766 0.0
H6872 H 0.31309 0.09777 0.6607 0.0
H6873 H 0.32692 0.07306 0.66872 0.0
H6874 H 0.32141 0.07482 0.68471 0.0
H6875 H 0.2744 0.07121 0.7176 0.0
H6876 H 0.28476 0.0836 0.7122 0.0
H6877 H 0.30487 0.06353 0.70436 0.0
H6878 H 0.2943 0.05112 0.70924 0.0
H6879 H 0.3038 0.07528 0.69144 0.0
H6880 H 0.30734 0.0783 0.72406 0.0
H6881 H 0.30237 0.0799 0.74024 0.0
H6882 H 0.28958 0.10556 0.73357 0.0
H6883 H 0.29437 0.10405 0.71732 0.0
C6884 C 0.33269 0.11028 0.68613 0.0
C6885 C 0.32891 0.1191 0.68525 0.0
C6886 C 0.32744 0.10296 0.68984 0.0
C6887 C 0.31833 0.10433 0.69277 0.0
C6888 C 0.31458 0.11315 0.692 0.0
C6889 C 0.31979 0.12045 0.68823 0.0
C6890 C 0.31267 0.09658 0.69659 0.0
C6891 C 0.30925 0.09728 0.70561 0.0
C6892 C 0.3108 0.08848 0.69149 0.0
C6893 C 0.31407 0.0874 0.68187 0.0
C6894 C 0.31171 0.09383 0.67499 0.0
C6895 C 0.3149 0.09279 0.66596 0.0
C6896 C 0.32039 0.08532 0.66371 0.0
C6897 C 0.32268 0.07885 0.67048 0.0
C6898 C 0.31952 0.07986 0.67952 0.0
C6899 C 0.2811 0.06947 0.71484 0.0
C6900 C 0.28361 0.0602 0.71406 0.0
C6901 C 0.28704 0.07655 0.7118 0.0
C6902 C 0.29572 0.07454 0.70805 0.0
C6903 C 0.29825 0.06528 0.70728 0.0
C6904 C 0.29223 0.05819 0.71016 0.0
C6905 C 0.30194 0.08206 0.70449 0.0
C6906 C 0.30547 0.08134 0.6955 0.0
C6907 C 0.30402 0.09008 0.70968 0.0
C6908 C 0.30115 0.09102 0.71946 0.0
C6909 C 0.30341 0.08425 0.72603 0.0
C6910 C 0.30063 0.08515 0.73521 0.0
C6911 C 0.29564 0.09282 0.73792 0.0
C6912 C 0.29344 0.09962 0.73146 0.0
C6913 C 0.29619 0.09875 0.72226 0.0
H6914 H 0.2935 0.0935 0.74503 0.0
H6915 H 0.32285 0.08453 0.65671 0.0
H6916 H 0.40328 0.82343 0.67161 0.0
H6917 H 0.416 0.81674 0.68035 0.0
H6918 H 0.40036 0.81921 0.7055 0.0
H6919 H 0.38757 0.82584 0.6968 0.0
H6920 H 0.41853 0.8243 0.70788 0.0
H6921 H 0.40141 0.79871 0.69444 0.0
H6922 H 0.3944 0.79001 0.68157 0.0
H6923 H 0.42101 0.78795 0.66874 0.0
H6924 H 0.42816 0.79676 0.68149 0.0
H6925 H 0.44189 0.7936 0.73735 0.0
H6926 H 0.43074 0.8019 0.72794 0.0
H6927 H 0.44597 0.79516 0.70339 0.0
H6928 H 0.45686 0.78642 0.71275 0.0
H6929 H 0.42875 0.79287 0.70004 0.0
H6930 H 0.44623 0.81764 0.7134 0.0
H6931 H 0.4536 0.82662 0.72588 0.0
H6932 H 0.42709 0.83074 0.7383 0.0
H6933 H 0.41957 0.82167 0.72595 0.0
C6934 C 0.40252 0.82253 0.679 0.0
C6935 C 0.39436 0.82511 0.68349 0.0
C6936 C 0.40982 0.81872 0.68399 0.0
C6937 C 0.40908 0.81736 0.69356 0.0
C6938 C 0.40108 0.8202 0.69811 0.0
C6939 C 0.39378 0.82401 0.69313 0.0
C6940 C 0.41654 0.81274 0.69881 0.0
C6941 C 0.42071 0.81739 0.70624 0.0
C6942 C 0.41958 0.80385 0.69648 0.0
C6943 C 0.4153 0.79847 0.68887 0.0
C6944 C 0.40576 0.79646 0.68885 0.0
C6945 C 0.40176 0.7915 0.68158 0.0
C6946 C 0.40725 0.78845 0.67433 0.0
C6947 C 0.41676 0.79033 0.67435 0.0
C6948 C 0.42079 0.79529 0.6816 0.0
C6949 C 0.4429 0.79398 0.72995 0.0
C6950 C 0.45039 0.78954 0.72584 0.0
C6951 C 0.43655 0.79877 0.72457 0.0
C6952 C 0.43761 0.79938 0.71494 0.0
C6953 C 0.44504 0.79488 0.7108 0.0
C6954 C 0.45131 0.78994 0.71617 0.0
C6955 C 0.43075 0.80439 0.7092 0.0
C6956 C 0.42666 0.79981 0.70167 0.0
C6957 C 0.42786 0.8134 0.71138 0.0
C6958 C 0.43235 0.81891 0.71878 0.0
C6959 C 0.44198 0.82041 0.71882 0.0
C6960 C 0.44618 0.82553 0.72587 0.0
C6961 C 0.44082 0.82923 0.73289 0.0
C6962 C 0.43123 0.82786 0.73286 0.0
C6963 C 0.427 0.82274 0.72583 0.0
H6964 H 0.44409 0.83319 0.73834 0.0
H6965 H 0.40415 0.78461 0.6687 0.0
H6966 H 0.67169 0.90296 0.67643 0.0
H6967 H 0.68069 0.91542 0.68376 0.0
H6968 H 0.69789 0.89535 0.6971 0.0
H6969 H 0.68893 0.88289 0.68983 0.0
H6970 H 0.69148 0.90918 0.70902 0.0
H6971 H 0.70604 0.90654 0.67902 0.0
H6972 H 0.70609 0.90643 0.662 0.0
H6973 H 0.69569 0.93394 0.66142 0.0
H6974 H 0.69546 0.93416 0.67845 0.0
H6975 H 0.72913 0.93577 0.72539 0.0
H6976 H 0.71875 0.92455 0.71807 0.0
H6977 H 0.70758 0.94609 0.70092 0.0
H6978 H 0.7184 0.9572 0.70777 0.0
H6979 H 0.70972 0.9322 0.69087 0.0
H6980 H 0.69551 0.93575 0.72022 0.0
H6981 H 0.69449 0.93639 0.73719 0.0
H6982 H 0.70268 0.90816 0.73915 0.0
H6983 H 0.70386 0.90738 0.72219 0.0
C6984 C 0.67739 0.90122 0.68094 0.0
C6985 C 0.67964 0.89196 0.68253 0.0
C6986 C 0.68253 0.90833 0.68508 0.0
C6987 C 0.68997 0.90629 0.69094 0.0
C6988 C 0.69218 0.89706 0.69259 0.0
C6989 C 0.68711 0.88996 0.68838 0.0
C6990 C 0.69544 0.91375 0.69541 0.0
C6991 C 0.69555 0.91418 0.70508 0.0
C6992 C 0.70045 0.92046 0.69023 0.0
C6993 C 0.70064 0.92033 0.68 0.0
C6994 C 0.70369 0.91254 0.67526 0.0
C6995 C 0.70376 0.91246 0.66561 0.0
C6996 C 0.70087 0.92016 0.66063 0.0
C6997 C 0.69792 0.92797 0.66529 0.0
C6998 C 0.69782 0.92808 0.67494 0.0
C6999 C 0.72442 0.93811 0.72009 0.0
C7000 C 0.72453 0.9474 0.71728 0.0
C7001 C 0.71842 0.93171 0.71595 0.0
C7002 C 0.71219 0.93448 0.70907 0.0
C7003 C 0.71227 0.94377 0.70625 0.0
C7004 C 0.71842 0.95014 0.71024 0.0
C7005 C 0.70589 0.92762 0.70456 0.0
C7006 C 0.70561 0.92729 0.69487 0.0
C7007 C 0.70057 0.92111 0.70972 0.0
C7008 C 0.69984 0.92153 0.71993 0.0
C7009 C 0.69715 0.9297 0.72427 0.0
C7010 C 0.69654 0.93008 0.73389 0.0
C7011 C 0.69854 0.92232 0.73924 0.0
C7012 C 0.70114 0.91416 0.73499 0.0
C7013 C 0.70177 0.91374 0.72537 0.0
H7014 H 0.69806 0.92264 0.74669 0.0
H7015 H 0.70093 0.92008 0.65316 0.0
H7016 H 0.62375 0.80767 0.32424 0.0
H7017 H 0.61134 0.8017 0.31437 0.0
H7018 H 0.59686 0.82723 0.31714 0.0
H7019 H 0.60919 0.83319 0.3272 0.0
H7020 H 0.58519 0.81219 0.31874 0.0
H7021 H 0.60822 0.82334 0.2978 0.0
H7022 H 0.62384 0.82519 0.2912 0.0
H7023 H 0.62445 0.7962 0.28559 0.0
H7024 H 0.60887 0.79414 0.29229 0.0
H7025 H 0.55508 0.80378 0.28004 0.0
H7026 H 0.56656 0.81055 0.29056 0.0
H7027 H 0.58152 0.78514 0.29061 0.0
H7028 H 0.56996 0.77826 0.28021 0.0
H7029 H 0.59263 0.80092 0.2874 0.0
H7030 H 0.56941 0.79002 0.30883 0.0
H7031 H 0.55365 0.78862 0.3152 0.0
H7032 H 0.55326 0.81785 0.31949 0.0
H7033 H 0.56897 0.81945 0.31301 0.0
C7034 C 0.61788 0.81198 0.32284 0.0
C7035 C 0.61745 0.82091 0.32649 0.0
C7036 C 0.61083 0.80859 0.31713 0.0
C7037 C 0.60323 0.81406 0.31494 0.0
C7038 C 0.60268 0.82291 0.31872 0.0
C7039 C 0.60976 0.82633 0.32441 0.0
C7040 C 0.59593 0.81053 0.30863 0.0
C7041 C 0.58679 0.80985 0.31184 0.0
C7042 C 0.59804 0.80738 0.29967 0.0
C7043 C 0.60741 0.80857 0.29563 0.0
C7044 C 0.61172 0.81734 0.29524 0.0
C7045 C 0.62056 0.81843 0.29146 0.0
C7046 C 0.62514 0.81082 0.288 0.0
C7047 C 0.62089 0.80209 0.28829 0.0
C7048 C 0.61205 0.80096 0.29207 0.0
C7049 C 0.56072 0.79958 0.28243 0.0
C7050 C 0.5615 0.79039 0.2795 0.0
C7051 C 0.56728 0.80347 0.28841 0.0
C7052 C 0.57482 0.79831 0.29143 0.0
C7053 C 0.57571 0.78921 0.2884 0.0
C7054 C 0.5691 0.78528 0.28251 0.0
C7055 C 0.58194 0.80246 0.29756 0.0
C7056 C 0.59104 0.80328 0.2943 0.0
C7057 C 0.57977 0.80581 0.30642 0.0
C7058 C 0.57032 0.80486 0.31033 0.0
C7059 C 0.56593 0.79616 0.31105 0.0
C7060 C 0.55701 0.79533 0.3147 0.0
C7061 C 0.55245 0.80314 0.31772 0.0
C7062 C 0.5568 0.81181 0.31713 0.0
C7063 C 0.56571 0.81268 0.31347 0.0
H7064 H 0.54554 0.80248 0.32055 0.0
H7065 H 0.63199 0.81168 0.28508 0.0
H7066 H 0.67668 0.11477 0.31913 0.0
H7067 H 0.68319 0.10168 0.31094 0.0
H7068 H 0.70205 0.09718 0.33352 0.0
H7069 H 0.6955 0.11008 0.3418 0.0
H7070 H 0.71082 0.09719 0.31689 0.0
H7071 H 0.68333 0.08326 0.33044 0.0
H7072 H 0.66657 0.08172 0.33331 0.0
H7073 H 0.66163 0.07835 0.30429 0.0
H7074 H 0.67836 0.08 0.30123 0.0
H7075 H 0.72768 0.05267 0.31136 0.0
H7076 H 0.7201 0.06661 0.31647 0.0
H7077 H 0.70255 0.06587 0.29238 0.0
H7078 H 0.71005 0.05172 0.28731 0.0
H7079 H 0.69271 0.06941 0.30755 0.0
H7080 H 0.72017 0.0819 0.29402 0.0
H7081 H 0.7369 0.08336 0.29097 0.0
H7082 H 0.74187 0.08968 0.31948 0.0
H7083 H 0.72518 0.08813 0.32273 0.0
C7084 C 0.68213 0.11093 0.3224 0.0
C7085 C 0.6856 0.11354 0.33111 0.0
C7086 C 0.68587 0.10346 0.3177 0.0
C7087 C 0.69311 0.09846 0.32162 0.0
C7088 C 0.69652 0.10099 0.33033 0.0
C7089 C 0.69278 0.10841 0.33504 0.0
C7090 C 0.69734 0.09067 0.31666 0.0
C7091 C 0.70687 0.09109 0.31491 0.0
C7092 C 0.69213 0.08285 0.31376 0.0
C7093 C 0.68208 0.08187 0.3156 0.0
C7094 C 0.67866 0.08228 0.32466 0.0
C7095 C 0.66917 0.08137 0.32633 0.0
C7096 C 0.66304 0.07997 0.31899 0.0
C7097 C 0.66639 0.07945 0.30997 0.0
C7098 C 0.67587 0.08037 0.30827 0.0
C7099 C 0.72231 0.05556 0.30707 0.0
C7100 C 0.71964 0.05125 0.29881 0.0
C7101 C 0.71798 0.06354 0.30999 0.0
C7102 C 0.71087 0.06741 0.30472 0.0
C7103 C 0.70808 0.06306 0.29651 0.0
C7104 C 0.71241 0.05503 0.29359 0.0
C7105 C 0.70625 0.07584 0.30801 0.0
C7106 C 0.69664 0.07556 0.30942 0.0
C7107 C 0.71138 0.08384 0.31055 0.0
C7108 C 0.72143 0.08484 0.30862 0.0
C7109 C 0.72484 0.08354 0.29965 0.0
C7110 C 0.73431 0.0844 0.29789 0.0
C7111 C 0.74044 0.0866 0.30503 0.0
C7112 C 0.73711 0.08797 0.31395 0.0
C7113 C 0.72764 0.08712 0.31576 0.0
H7114 H 0.74778 0.08726 0.30365 0.0
H7115 H 0.6557 0.07926 0.32029 0.0
H7116 H 0.39537 0.16577 0.32013 0.0
H7117 H 0.40849 0.17448 0.31366 0.0
H7118 H 0.39464 0.19992 0.31912 0.0
H7119 H 0.38137 0.19125 0.32532 0.0
H7120 H 0.40144 0.19996 0.3021 0.0
H7121 H 0.41299 0.19306 0.33227 0.0
H7122 H 0.41701 0.18322 0.34556 0.0
H7123 H 0.43592 0.16835 0.32869 0.0
H7124 H 0.43192 0.17803 0.31526 0.0
H7125 H 0.43918 0.23081 0.29484 0.0
H7126 H 0.42711 0.22163 0.30264 0.0
H7127 H 0.43974 0.19667 0.2934 0.0
H7128 H 0.45177 0.20582 0.28546 0.0
H7129 H 0.43389 0.19621 0.31237 0.0
H7130 H 0.42209 0.20331 0.28219 0.0
H7131 H 0.41822 0.21355 0.26916 0.0
H7132 H 0.39974 0.22842 0.2865 0.0
H7133 H 0.40362 0.21836 0.29968 0.0
C7134 C 0.39511 0.17322 0.31993 0.0
C7135 C 0.38731 0.17781 0.32324 0.0
C7136 C 0.40265 0.17819 0.31632 0.0
C7137 C 0.40259 0.18786 0.31597 0.0
C7138 C 0.39485 0.19247 0.31934 0.0
C7139 C 0.38731 0.1875 0.32295 0.0
C7140 C 0.4104 0.19317 0.31177 0.0
C7141 C 0.40851 0.19923 0.30444 0.0
C7142 C 0.41967 0.19206 0.31467 0.0
C7143 C 0.42208 0.18621 0.32273 0.0
C7144 C 0.41794 0.18764 0.33137 0.0
C7145 C 0.42023 0.1821 0.33893 0.0
C7146 C 0.42669 0.17515 0.33797 0.0
C7147 C 0.4309 0.17373 0.32943 0.0
C7148 C 0.42863 0.17925 0.32184 0.0
C7149 C 0.43945 0.22336 0.29459 0.0
C7150 C 0.44653 0.21904 0.2897 0.0
C7151 C 0.43255 0.21814 0.29901 0.0
C7152 C 0.43255 0.20848 0.29859 0.0
C7153 C 0.43967 0.20411 0.29385 0.0
C7154 C 0.44654 0.20935 0.28934 0.0
C7155 C 0.42487 0.203 0.30278 0.0
C7156 C 0.4268 0.19692 0.31006 0.0
C7157 C 0.41562 0.20411 0.29988 0.0
C7158 C 0.41322 0.21014 0.29195 0.0
C7159 C 0.41727 0.20882 0.28324 0.0
C7160 C 0.41506 0.21458 0.27583 0.0
C7161 C 0.40876 0.22165 0.277 0.0
C7162 C 0.40463 0.22295 0.2856 0.0
C7163 C 0.40683 0.21721 0.29305 0.0
H7164 H 0.40705 0.2261 0.27125 0.0
H7165 H 0.42846 0.17088 0.34383 0.0
H7166 H 0.3384 0.9005 0.32357 0.0
H7167 H 0.32981 0.91347 0.31731 0.0
H7168 H 0.30557 0.89594 0.31445 0.0
H7169 H 0.3142 0.88287 0.32049 0.0
H7170 H 0.30872 0.90566 0.29902 0.0
H7171 H 0.30664 0.9124 0.33106 0.0
H7172 H 0.31226 0.91496 0.34693 0.0
H7173 H 0.32887 0.93801 0.33758 0.0
H7174 H 0.32345 0.93551 0.32163 0.0
H7175 H 0.28017 0.94265 0.28569 0.0
H7176 H 0.28615 0.9302 0.2954 0.0
H7177 H 0.31249 0.9445 0.29715 0.0
H7178 H 0.30658 0.95691 0.2874 0.0
H7179 H 0.30696 0.93623 0.31399 0.0
H7180 H 0.30999 0.92844 0.28182 0.0
H7181 H 0.3042 0.92596 0.266 0.0
H7182 H 0.28556 0.90474 0.27588 0.0
H7183 H 0.29113 0.90721 0.2918 0.0
C7184 C 0.33124 0.8994 0.32161 0.0
C7185 C 0.327 0.89064 0.32251 0.0
C7186 C 0.3263 0.90685 0.31812 0.0
C7187 C 0.31701 0.9057 0.31549 0.0
C7188 C 0.31272 0.89699 0.31647 0.0
C7189 C 0.31765 0.88954 0.31999 0.0
C7190 C 0.31195 0.91348 0.31124 0.0
C7191 C 0.30818 0.91229 0.30239 0.0
C7192 C 0.3114 0.92219 0.31554 0.0
C7193 C 0.31469 0.92371 0.32513 0.0
C7194 C 0.31155 0.91797 0.33237 0.0
C7195 C 0.31469 0.91942 0.34139 0.0
C7196 C 0.32094 0.92663 0.34326 0.0
C7197 C 0.32404 0.93242 0.33612 0.0
C7198 C 0.32093 0.931 0.32709 0.0
C7199 C 0.28718 0.9432 0.28828 0.0
C7200 C 0.2929 0.95076 0.2858 0.0
C7201 C 0.29059 0.93608 0.2938 0.0
C7202 C 0.29978 0.9364 0.29694 0.0
C7203 C 0.30537 0.94414 0.29483 0.0
C7204 C 0.30199 0.95121 0.28925 0.0
C7205 C 0.3038 0.92839 0.3018 0.0
C7206 C 0.30741 0.92956 0.31072 0.0
C7207 C 0.30419 0.91964 0.29758 0.0
C7208 C 0.3009 0.91808 0.28801 0.0
C7209 C 0.3046 0.9233 0.28063 0.0
C7210 C 0.30137 0.92189 0.27164 0.0
C7211 C 0.2945 0.91521 0.26994 0.0
C7212 C 0.29087 0.90992 0.27722 0.0
C7213 C 0.29406 0.91132 0.28622 0.0
H7214 H 0.29201 0.91413 0.26298 0.0
H7215 H 0.32336 0.92774 0.35024 0.0
H7216 H 0.66454 0.10533 0.69416 0.0
H7217 H 0.6736 0.09289 0.70083 0.0
H7218 H 0.69762 0.10264 0.68585 0.0
H7219 H 0.68868 0.11522 0.67928 0.0
H7220 H 0.69539 0.08352 0.68542 0.0
H7221 H 0.69551 0.1079 0.708 0.0
H7222 H 0.68822 0.11913 0.71824 0.0
H7223 H 0.6739 0.09714 0.73254 0.0
H7224 H 0.68102 0.08578 0.72228 0.0
H7225 H 0.73134 0.06193 0.70993 0.0
H7226 H 0.72087 0.07258 0.7023 0.0
H7227 H 0.6991 0.06434 0.72112 0.0
H7228 H 0.7097 0.05397 0.72903 0.0
H7229 H 0.69928 0.08201 0.71943 0.0
H7230 H 0.69948 0.05745 0.6977 0.0
H7231 H 0.70632 0.04595 0.68743 0.0
H7232 H 0.71933 0.06761 0.6715 0.0
H7233 H 0.71267 0.07924 0.68175 0.0
C7234 C 0.67177 0.10487 0.69231 0.0
C7235 C 0.67589 0.11134 0.68624 0.0
C7236 C 0.67692 0.09773 0.6961 0.0
C7237 C 0.6863 0.0969 0.6939 0.0
C7238 C 0.69038 0.10314 0.68762 0.0
C7239 C 0.68524 0.11032 0.68385 0.0
C7240 C 0.69196 0.08971 0.69839 0.0
C7241 C 0.69633 0.08322 0.69285 0.0
C7242 C 0.69294 0.08918 0.7081 0.0
C7243 C 0.68872 0.096 0.71431 0.0
C7244 C 0.69076 0.10546 0.71328 0.0
C7245 C 0.68666 0.11185 0.7191 0.0
C7246 C 0.68058 0.10885 0.72602 0.0
C7247 C 0.6786 0.09945 0.72716 0.0
C7248 C 0.68267 0.09304 0.72135 0.0
C7249 C 0.72427 0.06231 0.71235 0.0
C7250 C 0.72128 0.05693 0.71992 0.0
C7251 C 0.71828 0.06837 0.70797 0.0
C7252 C 0.70911 0.06912 0.71098 0.0
C7253 C 0.70611 0.06382 0.7186 0.0
C7254 C 0.71215 0.05784 0.72308 0.0
C7255 C 0.7028 0.07578 0.70647 0.0
C7256 C 0.69831 0.08221 0.712 0.0
C7257 C 0.70164 0.07619 0.69675 0.0
C7258 C 0.70563 0.06922 0.69054 0.0
C7259 C 0.70385 0.05976 0.69205 0.0
C7260 C 0.70769 0.05322 0.68622 0.0
C7261 C 0.71327 0.05605 0.67883 0.0
C7262 C 0.71501 0.06543 0.67723 0.0
C7263 C 0.7112 0.072 0.68304 0.0
H7264 H 0.71624 0.05098 0.67433 0.0
H7265 H 0.67742 0.11381 0.73052 0.0
H7266 H 0.69363 0.88481 0.3224 0.0
H7267 H 0.70283 0.89823 0.31738 0.0
H7268 H 0.67786 0.91254 0.31051 0.0
H7269 H 0.66861 0.89917 0.31557 0.0
H7270 H 0.69083 0.91477 0.29718 0.0
H7271 H 0.68953 0.91714 0.33038 0.0
H7272 H 0.69161 0.91164 0.34638 0.0
H7273 H 0.72068 0.90869 0.34162 0.0
H7274 H 0.71875 0.91405 0.32554 0.0
H7275 H 0.70577 0.96139 0.29633 0.0
H7276 H 0.6984 0.94641 0.29948 0.0
H7277 H 0.72496 0.93508 0.30613 0.0
H7278 H 0.73236 0.95015 0.3031 0.0
H7279 H 0.71237 0.93048 0.31891 0.0
H7280 H 0.71396 0.92926 0.28609 0.0
H7281 H 0.71196 0.93478 0.2701 0.0
H7282 H 0.68257 0.93549 0.27399 0.0
H7283 H 0.6844 0.9301 0.29006 0.0
C7284 C 0.69009 0.89083 0.31988 0.0
C7285 C 0.68038 0.89094 0.31943 0.0
C7286 C 0.69536 0.89849 0.31699 0.0
C7287 C 0.69102 0.90641 0.31365 0.0
C7288 C 0.68135 0.90648 0.31304 0.0
C7289 C 0.67607 0.89883 0.31592 0.0
C7290 C 0.69654 0.91471 0.31092 0.0
C7291 C 0.69548 0.91826 0.30195 0.0
C7292 C 0.70281 0.91909 0.31706 0.0
C7293 C 0.70398 0.9159 0.32673 0.0
C7294 C 0.69636 0.91525 0.33273 0.0
C7295 C 0.69751 0.91217 0.34181 0.0
C7296 C 0.70627 0.90979 0.34501 0.0
C7297 C 0.7139 0.91052 0.33913 0.0
C7298 C 0.71278 0.91358 0.33003 0.0
C7299 C 0.71005 0.95567 0.29832 0.0
C7300 C 0.71965 0.95689 0.29931 0.0
C7301 C 0.70584 0.94711 0.3001 0.0
C7302 C 0.71114 0.93959 0.3029 0.0
C7303 C 0.72074 0.94078 0.30391 0.0
C7304 C 0.72497 0.94936 0.30213 0.0
C7305 C 0.70657 0.93063 0.30521 0.0
C7306 C 0.7078 0.92695 0.3141 0.0
C7307 C 0.70047 0.92612 0.29899 0.0
C7308 C 0.69933 0.92934 0.28931 0.0
C7309 C 0.70707 0.93066 0.28356 0.0
C7310 C 0.70597 0.93376 0.27448 0.0
C7311 C 0.69715 0.93551 0.27104 0.0
C7312 C 0.68941 0.93414 0.27667 0.0
C7313 C 0.69047 0.93106 0.28577 0.0
H7314 H 0.69631 0.9379 0.264 0.0
H7315 H 0.70714 0.90741 0.35204 0.0
H7316 H 0.60348 0.16581 0.33065 0.0
H7317 H 0.59028 0.17447 0.32496 0.0
H7318 H 0.60874 0.1962 0.31543 0.0
H7319 H 0.62197 0.18761 0.32121 0.0
H7320 H 0.59419 0.20331 0.32354 0.0
H7321 H 0.59874 0.18025 0.30042 0.0
H7322 H 0.60059 0.16446 0.29462 0.0
H7323 H 0.57368 0.15682 0.3049 0.0
H7324 H 0.57172 0.17254 0.31088 0.0
H7325 H 0.56059 0.22655 0.29688 0.0
H7326 H 0.57436 0.21795 0.3012 0.0
H7327 H 0.557 0.19549 0.3111 0.0
H7328 H 0.54326 0.20395 0.30653 0.0
H7329 H 0.57134 0.18891 0.30224 0.0
H7330 H 0.56696 0.21166 0.32579 0.0
H7331 H 0.56502 0.22738 0.33176 0.0
H7332 H 0.59155 0.23549 0.32085 0.0
H7333 H 0.59358 0.21985 0.31469 0.0
C7334 C 0.60473 0.17241 0.3273 0.0
C7335 C 0.61377 0.17601 0.32634 0.0
C7336 C 0.59718 0.17735 0.32404 0.0
C7337 C 0.59852 0.18593 0.31962 0.0
C7338 C 0.60753 0.1896 0.3188 0.0
C7339 C 0.61508 0.18469 0.32213 0.0
C7340 C 0.59052 0.19109 0.3159 0.0
C7341 C 0.58928 0.2002 0.31877 0.0
C7342 C 0.58398 0.18699 0.30983 0.0
C7343 C 0.58512 0.17755 0.30616 0.0
C7344 C 0.59324 0.17519 0.3015 0.0
C7345 C 0.5943 0.16625 0.29817 0.0
C7346 C 0.58726 0.15964 0.2994 0.0
C7347 C 0.57913 0.16195 0.30395 0.0
C7348 C 0.57803 0.17087 0.3073 0.0
C7349 C 0.55973 0.2197 0.29981 0.0
C7350 C 0.55085 0.21584 0.3012 0.0
C7351 C 0.56759 0.21483 0.30236 0.0
C7352 C 0.56672 0.2061 0.30658 0.0
C7353 C 0.55786 0.20218 0.30784 0.0
C7354 C 0.55001 0.20702 0.30521 0.0
C7355 C 0.57499 0.20111 0.3099 0.0
C7356 C 0.57629 0.19203 0.30697 0.0
C7357 C 0.58157 0.20523 0.31593 0.0
C7358 C 0.58038 0.21461 0.3197 0.0
C7359 C 0.57235 0.21681 0.32461 0.0
C7360 C 0.57124 0.22571 0.32803 0.0
C7361 C 0.57815 0.23243 0.32667 0.0
C7362 C 0.5862 0.23028 0.32189 0.0
C7363 C 0.58733 0.2214 0.31844 0.0
H7364 H 0.57727 0.23931 0.32933 0.0
H7365 H 0.5881 0.15272 0.29682 0.0
H7366 H 0.3263 0.11068 0.32947 0.0
H7367 H 0.32001 0.09709 0.32162 0.0
H7368 H 0.29337 0.10983 0.31984 0.0
H7369 H 0.29963 0.12346 0.32768 0.0
H7370 H 0.29177 0.09255 0.32616 0.0
H7371 H 0.30705 0.10752 0.30068 0.0
H7372 H 0.32012 0.11502 0.29247 0.0
H7373 H 0.3358 0.09032 0.29509 0.0
H7374 H 0.32288 0.08272 0.30343 0.0
H7375 H 0.27182 0.05664 0.29963 0.0
H7376 H 0.27746 0.07196 0.30411 0.0
H7377 H 0.30532 0.06193 0.30533 0.0
H7378 H 0.29976 0.04672 0.30042 0.0
H7379 H 0.30566 0.07859 0.29841 0.0
H7380 H 0.29124 0.06408 0.32491 0.0
H7381 H 0.27848 0.05642 0.33346 0.0
H7382 H 0.26159 0.0801 0.32933 0.0
H7383 H 0.2742 0.08785 0.32065 0.0
C7384 C 0.31914 0.11065 0.32728 0.0
C7385 C 0.31346 0.11816 0.32921 0.0
C7386 C 0.31555 0.10287 0.32279 0.0
C7387 C 0.30623 0.10246 0.32007 0.0
C7388 C 0.30057 0.10998 0.32189 0.0
C7389 C 0.30415 0.11776 0.3264 0.0
C7390 C 0.30228 0.09402 0.31572 0.0
C7391 C 0.2947 0.08959 0.31999 0.0
C7392 C 0.30625 0.09003 0.30781 0.0
C7393 C 0.31402 0.09458 0.30275 0.0
C7394 C 0.31331 0.10371 0.29956 0.0
C7395 C 0.32069 0.10798 0.29488 0.0
C7396 C 0.32879 0.10316 0.29328 0.0
C7397 C 0.32952 0.09405 0.29634 0.0
C7398 C 0.32217 0.08976 0.30104 0.0
C7399 C 0.27917 0.05775 0.30065 0.0
C7400 C 0.28538 0.05051 0.29952 0.0
C7401 C 0.28238 0.0665 0.30331 0.0
C7402 C 0.29181 0.06808 0.30519 0.0
C7403 C 0.29803 0.0609 0.30389 0.0
C7404 C 0.29485 0.05221 0.3011 0.0
C7405 C 0.29519 0.07708 0.30889 0.0
C7406 C 0.30267 0.0816 0.30452 0.0
C7407 C 0.29118 0.08113 0.31676 0.0
C7408 C 0.28363 0.07651 0.32205 0.0
C7409 C 0.28478 0.06763 0.32578 0.0
C7410 C 0.27758 0.06327 0.33065 0.0
C7411 C 0.26922 0.06776 0.33191 0.0
C7412 C 0.26806 0.07662 0.32833 0.0
C7413 C 0.27523 0.08101 0.32344 0.0
H7414 H 0.26366 0.06437 0.33569 0.0
H7415 H 0.33449 0.10647 0.28965 0.0
H7416 H 0.39178 0.8333 0.31939 0.0
H7417 H 0.40495 0.82765 0.31069 0.0
H7418 H 0.40485 0.80288 0.3273 0.0
H7419 H 0.39154 0.80836 0.33589 0.0
H7420 H 0.4224 0.8105 0.32506 0.0
H7421 H 0.39649 0.80201 0.30594 0.0
H7422 H 0.38216 0.80475 0.29719 0.0
H7423 H 0.39655 0.82437 0.27987 0.0
H7424 H 0.41094 0.82184 0.2886 0.0
H7425 H 0.45511 0.78762 0.2973 0.0
H7426 H 0.44105 0.7912 0.30581 0.0
H7427 H 0.43678 0.81472 0.28802 0.0
H7428 H 0.45058 0.81091 0.27925 0.0
H7429 H 0.42099 0.80674 0.29108 0.0
H7430 H 0.44649 0.81626 0.31038 0.0
H7431 H 0.46093 0.81421 0.31915 0.0
H7432 H 0.44759 0.7936 0.33615 0.0
H7433 H 0.43309 0.79543 0.32739 0.0
C7434 C 0.39447 0.8266 0.32113 0.0
C7435 C 0.39055 0.82129 0.32834 0.0
C7436 C 0.40203 0.8234 0.31617 0.0
C7437 C 0.40583 0.81481 0.3183 0.0
C7438 C 0.40204 0.80954 0.32555 0.0
C7439 C 0.39444 0.81271 0.33049 0.0
C7440 C 0.4138 0.81136 0.31297 0.0
C7441 C 0.42206 0.80954 0.31765 0.0
C7442 C 0.41341 0.81031 0.30327 0.0
C7443 C 0.40477 0.81179 0.29798 0.0
C7444 C 0.39658 0.80696 0.30031 0.0
C7445 C 0.38845 0.80846 0.29535 0.0
C7446 C 0.38844 0.81474 0.28799 0.0
C7447 C 0.39657 0.81951 0.28557 0.0
C7448 C 0.40471 0.81804 0.29052 0.0
C7449 C 0.45107 0.79344 0.29509 0.0
C7450 C 0.45385 0.79888 0.28747 0.0
C7451 C 0.44308 0.79555 0.30003 0.0
C7452 C 0.43788 0.8033 0.29764 0.0
C7453 C 0.44062 0.80868 0.28999 0.0
C7454 C 0.44851 0.8065 0.28498 0.0
C7455 C 0.42968 0.80597 0.30314 0.0
C7456 C 0.42135 0.80765 0.2985 0.0
C7457 C 0.43004 0.80699 0.31287 0.0
C7458 C 0.43874 0.80591 0.31817 0.0
C7459 C 0.44666 0.81124 0.31595 0.0
C7460 C 0.45485 0.81013 0.32092 0.0
C7461 C 0.45519 0.80376 0.32819 0.0
C7462 C 0.44732 0.79851 0.33051 0.0
C7463 C 0.43911 0.79959 0.32555 0.0
H7464 H 0.46154 0.80291 0.33203 0.0
H7465 H 0.38214 0.8159 0.28416 0.0
H7466 H 0.34258 0.90426 0.68909 0.0
H7467 H 0.33393 0.91692 0.69573 0.0
H7468 H 0.30958 0.89939 0.69736 0.0
H7469 H 0.31818 0.88669 0.69075 0.0
H7470 H 0.30541 0.91661 0.69136 0.0
H7471 H 0.32316 0.90334 0.71633 0.0
H7472 H 0.33751 0.89832 0.72389 0.0
H7473 H 0.34867 0.92591 0.72218 0.0
H7474 H 0.33442 0.93106 0.71449 0.0
H7475 H 0.27852 0.94038 0.72375 0.0
H7476 H 0.28753 0.92934 0.71506 0.0
H7477 H 0.31167 0.94709 0.71749 0.0
H7478 H 0.30279 0.95791 0.72662 0.0
H7479 H 0.31648 0.93055 0.72062 0.0
H7480 H 0.2988 0.94429 0.69651 0.0
H7481 H 0.28476 0.94964 0.68863 0.0
H7482 H 0.27386 0.92192 0.68813 0.0
H7483 H 0.28779 0.91641 0.69612 0.0
C7484 C 0.33539 0.90309 0.69088 0.0
C7485 C 0.33109 0.89443 0.68945 0.0
C7486 C 0.33045 0.91034 0.69466 0.0
C7487 C 0.32113 0.90907 0.69716 0.0
C7488 C 0.31675 0.90053 0.69548 0.0
C7489 C 0.32168 0.89328 0.69168 0.0
C7490 C 0.31602 0.91653 0.70178 0.0
C7491 C 0.30778 0.91961 0.6978 0.0
C7492 C 0.31925 0.92065 0.71005 0.0
C7493 C 0.32777 0.91756 0.71476 0.0
C7494 C 0.3287 0.90832 0.71751 0.0
C7495 C 0.33681 0.90545 0.72183 0.0
C7496 C 0.344 0.91178 0.72349 0.0
C7497 C 0.34309 0.92101 0.72087 0.0
C7498 C 0.335 0.92391 0.71654 0.0
C7499 C 0.28573 0.94197 0.72233 0.0
C7500 C 0.28986 0.95012 0.72569 0.0
C7501 C 0.29087 0.93568 0.71732 0.0
C7502 C 0.30025 0.93746 0.7154 0.0
C7503 C 0.30443 0.94558 0.7188 0.0
C7504 C 0.29932 0.95181 0.72396 0.0
C7505 C 0.30579 0.93063 0.71024 0.0
C7506 C 0.31412 0.92765 0.71413 0.0
C7507 C 0.30268 0.92667 0.70184 0.0
C7508 C 0.29432 0.92995 0.69698 0.0
C7509 C 0.29339 0.93934 0.69478 0.0
C7510 C 0.28545 0.9424 0.69028 0.0
C7511 C 0.27841 0.93613 0.6879 0.0
C7512 C 0.27931 0.92677 0.68999 0.0
C7513 C 0.28723 0.92368 0.69449 0.0
H7514 H 0.27227 0.93851 0.68442 0.0
H7515 H 0.35028 0.90955 0.72683 0.0
H7516 H 0.62138 0.82838 0.68872 0.0
H7517 H 0.60872 0.82224 0.69823 0.0
H7518 H 0.59499 0.81195 0.67383 0.0
H7519 H 0.60743 0.81838 0.66425 0.0
H7520 H 0.58274 0.81905 0.68552 0.0
H7521 H 0.60805 0.79792 0.68761 0.0
H7522 H 0.6241 0.79347 0.69085 0.0
H7523 H 0.62128 0.80214 0.71896 0.0
H7524 H 0.60524 0.80677 0.71586 0.0
H7525 H 0.55545 0.78145 0.70191 0.0
H7526 H 0.56657 0.79199 0.6945 0.0
H7527 H 0.57625 0.80094 0.72121 0.0
H7528 H 0.56506 0.79038 0.72869 0.0
H7529 H 0.59037 0.79618 0.70984 0.0
H7530 H 0.56421 0.8155 0.70803 0.0
H7531 H 0.54808 0.81956 0.70464 0.0
H7532 H 0.55233 0.81398 0.67591 0.0
H7533 H 0.56845 0.80975 0.67914 0.0
C7534 C 0.61559 0.82495 0.68536 0.0
C7535 C 0.61546 0.82381 0.67572 0.0
C7536 C 0.60839 0.82137 0.69082 0.0
C7537 C 0.60097 0.81651 0.68676 0.0
C7538 C 0.60066 0.81564 0.67712 0.0
C7539 C 0.60783 0.81924 0.67166 0.0
C7540 C 0.59369 0.81199 0.69253 0.0
C7541 C 0.5844 0.81401 0.6908 0.0
C7542 C 0.59586 0.80559 0.6996 0.0
C7543 C 0.60549 0.80279 0.70148 0.0
C7544 C 0.61088 0.79895 0.69447 0.0
C7545 C 0.61997 0.79638 0.69628 0.0
C7546 C 0.62372 0.79755 0.7051 0.0
C7547 C 0.61837 0.80126 0.71213 0.0
C7548 C 0.60928 0.80385 0.71035 0.0
C7549 C 0.55983 0.78579 0.7062 0.0
C7550 C 0.55932 0.78516 0.71588 0.0
C7551 C 0.56617 0.79182 0.70196 0.0
C7552 C 0.57217 0.79732 0.7073 0.0
C7553 C 0.57164 0.79679 0.71696 0.0
C7554 C 0.56524 0.79079 0.72122 0.0
C7555 C 0.5794 0.80312 0.70272 0.0
C7556 C 0.5887 0.80133 0.70467 0.0
C7557 C 0.57722 0.80969 0.69583 0.0
C7558 C 0.56753 0.81224 0.69384 0.0
C7559 C 0.56169 0.81507 0.701 0.0
C7560 C 0.55255 0.81741 0.69911 0.0
C7561 C 0.54918 0.81701 0.69007 0.0
C7562 C 0.55495 0.81428 0.68291 0.0
C7563 C 0.56409 0.81192 0.68477 0.0
H7564 H 0.54211 0.81883 0.68862 0.0
H7565 H 0.63075 0.79555 0.70649 0.0
H7566 H 0.39152 0.20263 0.67018 0.0
H7567 H 0.40368 0.20921 0.67996 0.0
H7568 H 0.40691 0.18288 0.69343 0.0
H7569 H 0.3949 0.17617 0.68354 0.0
H7570 H 0.40497 0.19692 0.7057 0.0
H7571 H 0.4232 0.19086 0.6789 0.0
H7572 H 0.42728 0.19153 0.66239 0.0
H7573 H 0.42925 0.22105 0.66357 0.0
H7574 H 0.42505 0.22057 0.68006 0.0
H7575 H 0.44686 0.20647 0.73639 0.0
H7576 H 0.43322 0.19923 0.72367 0.0
H7577 H 0.43336 0.22886 0.7057 0.0
H7578 H 0.44706 0.23695 0.71802 0.0
H7579 H 0.43347 0.21302 0.69466 0.0
H7580 H 0.4153 0.21934 0.72103 0.0
H7581 H 0.41086 0.21916 0.73745 0.0
H7582 H 0.40828 0.18964 0.73695 0.0
H7583 H 0.41282 0.18963 0.72054 0.0
C7584 C 0.39493 0.19817 0.67509 0.0
C7585 C 0.39219 0.18886 0.67608 0.0
C7586 C 0.40188 0.20197 0.68069 0.0
C7587 C 0.40622 0.19653 0.6874 0.0
C7588 C 0.40362 0.18721 0.68832 0.0
C7589 C 0.39671 0.1834 0.68268 0.0
C7590 C 0.41313 0.20067 0.6938 0.0
C7591 C 0.41129 0.20028 0.7033 0.0
C7592 C 0.42119 0.20537 0.69062 0.0
C7593 C 0.42371 0.20569 0.6807 0.0
C7594 C 0.42442 0.1975 0.67562 0.0
C7595 C 0.42677 0.19784 0.66627 0.0
C7596 C 0.4285 0.20633 0.66193 0.0
C7597 C 0.4279 0.21449 0.66694 0.0
C7598 C 0.42553 0.21418 0.67629 0.0
C7599 C 0.44403 0.21078 0.73101 0.0
C7600 C 0.44961 0.22192 0.72755 0.0
C7601 C 0.43587 0.20619 0.72278 0.0
C7602 C 0.43221 0.21304 0.71302 0.0
C7603 C 0.43604 0.22487 0.71141 0.0
C7604 C 0.44421 0.23011 0.71927 0.0
C7605 C 0.42537 0.20907 0.70654 0.0
C7606 C 0.42718 0.20959 0.69705 0.0
C7607 C 0.41724 0.20451 0.70971 0.0
C7608 C 0.41451 0.20448 0.71958 0.0
C7609 C 0.41386 0.2128 0.72444 0.0
C7610 C 0.41131 0.21273 0.73374 0.0
C7611 C 0.40932 0.20439 0.73825 0.0
C7612 C 0.40984 0.1961 0.73345 0.0
C7613 C 0.41239 0.19612 0.72415 0.0
H7614 H 0.40735 0.20435 0.74545 0.0
H7615 H 0.43032 0.20658 0.65469 0.0
H7616 H 0.67422 0.67303 0.10904 0.0
H7617 H 0.68121 0.68177 0.09619 0.0
H7618 H 0.70339 0.69086 0.11406 0.0
H7619 H 0.69641 0.68225 0.12692 0.0
H7620 H 0.69664 0.70494 0.10284 0.0
H7621 H 0.70658 0.67325 0.0998 0.0
H7622 H 0.70388 0.65651 0.09814 0.0
H7623 H 0.68868 0.66116 0.07311 0.0
H7624 H 0.69119 0.67794 0.0747 0.0
H7625 H 0.73274 0.71898 0.07312 0.0
H7626 H 0.72247 0.71217 0.08476 0.0
H7627 H 0.70559 0.7001 0.06325 0.0
H7628 H 0.7162 0.70642 0.05162 0.0
H7629 H 0.70774 0.68799 0.07552 0.0
H7630 H 0.69857 0.71921 0.07724 0.0
H7631 H 0.70047 0.73607 0.07856 0.0
H7632 H 0.71278 0.73283 0.10534 0.0
H7633 H 0.71107 0.71594 0.10414 0.0
C7634 C 0.68053 0.67698 0.11024 0.0
C7635 C 0.6848 0.6769 0.11897 0.0
C7636 C 0.68454 0.68192 0.10289 0.0
C7637 C 0.69286 0.6869 0.10416 0.0
C7638 C 0.69698 0.68705 0.11293 0.0
C7639 C 0.69302 0.68207 0.12025 0.0
C7640 C 0.69749 0.69172 0.09632 0.0
C7641 C 0.69913 0.70125 0.09688 0.0
C7642 C 0.70043 0.68694 0.0884 0.0
C7643 C 0.69899 0.67685 0.08742 0.0
C7644 C 0.70261 0.67071 0.09398 0.0
C7645 C 0.70112 0.66121 0.09305 0.0
C7646 C 0.69609 0.65778 0.08554 0.0
C7647 C 0.69256 0.66383 0.07893 0.0
C7648 C 0.69402 0.67333 0.07984 0.0
C7649 C 0.72675 0.71499 0.07088 0.0
C7650 C 0.72519 0.71343 0.06144 0.0
C7651 C 0.72084 0.71114 0.07754 0.0
C7652 C 0.71309 0.70578 0.07492 0.0
C7653 C 0.71147 0.70426 0.06547 0.0
C7654 C 0.7175 0.70796 0.05881 0.0
C7655 C 0.70706 0.70129 0.08204 0.0
C7656 C 0.70516 0.69178 0.08138 0.0
C7657 C 0.70374 0.70613 0.08979 0.0
C7658 C 0.70475 0.7163 0.09057 0.0
C7659 C 0.70174 0.72209 0.08339 0.0
C7660 C 0.70277 0.73165 0.08412 0.0
C7661 C 0.70676 0.73552 0.09202 0.0
C7662 C 0.7097 0.72983 0.09922 0.0
C7663 C 0.70869 0.72026 0.09852 0.0
H7664 H 0.70755 0.74293 0.09257 0.0
H7665 H 0.69494 0.65042 0.08483 0.0
H7666 H 0.33142 0.67564 0.10093 0.0
H7667 H 0.32534 0.68544 0.08855 0.0
H7668 H 0.30691 0.69799 0.10793 0.0
H7669 H 0.31294 0.68823 0.12031 0.0
H7670 H 0.2984 0.69279 0.09106 0.0
H7671 H 0.32571 0.70931 0.10199 0.0
H7672 H 0.34231 0.71092 0.10563 0.0
H7673 H 0.34913 0.70515 0.07745 0.0
H7674 H 0.33256 0.70338 0.07366 0.0
H7675 H 0.2838 0.7328 0.06795 0.0
H7676 H 0.28983 0.72129 0.07863 0.0
H7677 H 0.31137 0.71507 0.05919 0.0
H7678 H 0.30567 0.72695 0.04873 0.0
H7679 H 0.31857 0.71589 0.07516 0.0
H7680 H 0.29189 0.70014 0.06355 0.0
H7681 H 0.27549 0.69785 0.05933 0.0
H7682 H 0.26762 0.70101 0.08768 0.0
H7683 H 0.28397 0.70345 0.09205 0.0
C7684 C 0.32604 0.68045 0.10253 0.0
C7685 C 0.32268 0.6812 0.11159 0.0
C7686 C 0.32261 0.68606 0.09547 0.0
C7687 C 0.31571 0.69246 0.09735 0.0
C7688 C 0.31223 0.6931 0.10635 0.0
C7689 C 0.31573 0.68757 0.11342 0.0
C7690 C 0.31215 0.69858 0.08998 0.0
C7691 C 0.30277 0.6979 0.08762 0.0
C7692 C 0.31795 0.705 0.08529 0.0
C7693 C 0.3279 0.70611 0.08757 0.0
C7694 C 0.33075 0.7083 0.09659 0.0
C7695 C 0.34016 0.70927 0.09868 0.0
C7696 C 0.34677 0.70811 0.09179 0.0
C7697 C 0.344 0.70603 0.08278 0.0
C7698 C 0.3346 0.70505 0.08066 0.0
C7699 C 0.28976 0.7289 0.06592 0.0
C7700 C 0.29412 0.73066 0.05742 0.0
C7701 C 0.29318 0.72228 0.07201 0.0
C7702 C 0.30095 0.71712 0.06965 0.0
C7703 C 0.30533 0.71889 0.06116 0.0
C7704 C 0.30201 0.72564 0.05514 0.0
C7705 C 0.30472 0.71022 0.07624 0.0
C7706 C 0.31416 0.71074 0.07849 0.0
C7707 C 0.299 0.70353 0.08071 0.0
C7708 C 0.28915 0.70205 0.07811 0.0
C7709 C 0.28666 0.70041 0.06887 0.0
C7710 C 0.27737 0.69907 0.06646 0.0
C7711 C 0.27052 0.6993 0.07323 0.0
C7712 C 0.27294 0.70084 0.08244 0.0
C7713 C 0.28221 0.70219 0.08489 0.0
H7714 H 0.26334 0.69826 0.07135 0.0
H7715 H 0.35405 0.70886 0.09342 0.0
H7716 H 0.30874 0.33417 0.11935 0.0
H7717 H 0.30255 0.32527 0.10648 0.0
H7718 H 0.3281 0.31057 0.10462 0.0
H7719 H 0.33453 0.31977 0.1173 0.0
H7720 H 0.32217 0.31533 0.08784 0.0
H7721 H 0.30869 0.3002 0.11392 0.0
H7722 H 0.30039 0.29898 0.12875 0.0
H7723 H 0.27624 0.31039 0.11617 0.0
H7724 H 0.28443 0.31179 0.1013 0.0
H7725 H 0.30042 0.2864 0.05401 0.0
H7726 H 0.30837 0.29094 0.06831 0.0
H7727 H 0.2856 0.30838 0.07521 0.0
H7728 H 0.2776 0.3037 0.06112 0.0
H7729 H 0.29147 0.29969 0.09019 0.0
H7730 H 0.30586 0.31665 0.06474 0.0
H7731 H 0.31425 0.31796 0.04997 0.0
H7732 H 0.33682 0.30291 0.0615 0.0
H7733 H 0.3285 0.30141 0.07631 0.0
C7734 C 0.31311 0.32912 0.11616 0.0
C7735 C 0.32215 0.32772 0.11937 0.0
C7736 C 0.3095 0.32394 0.10886 0.0
C7737 C 0.3148 0.31713 0.10467 0.0
C7738 C 0.32386 0.31574 0.10779 0.0
C7739 C 0.3275 0.32096 0.11509 0.0
C7740 C 0.31088 0.31166 0.09689 0.0
C7741 C 0.31555 0.31175 0.0884 0.0
C7742 C 0.30219 0.30705 0.09759 0.0
C7743 C 0.2972 0.30615 0.10651 0.0
C7744 C 0.30163 0.3025 0.11433 0.0
C7745 C 0.29694 0.30177 0.12274 0.0
C7746 C 0.2878 0.30462 0.1234 0.0
C7747 C 0.28332 0.30818 0.11565 0.0
C7748 C 0.28798 0.30893 0.10722 0.0
C7749 C 0.29705 0.29104 0.0587 0.0
C7750 C 0.2883 0.29456 0.05654 0.0
C7751 C 0.30162 0.2937 0.06682 0.0
C7752 C 0.29761 0.30006 0.07281 0.0
C7753 C 0.28881 0.30342 0.07074 0.0
C7754 C 0.28424 0.30073 0.06268 0.0
C7755 C 0.30263 0.30361 0.08107 0.0
C7756 C 0.29817 0.30314 0.08966 0.0
C7757 C 0.31151 0.30786 0.08047 0.0
C7758 C 0.31652 0.30883 0.07159 0.0
C7759 C 0.31258 0.31357 0.0641 0.0
C7760 C 0.31733 0.31435 0.05573 0.0
C7761 C 0.32605 0.3105 0.05479 0.0
C7762 C 0.33006 0.30588 0.06223 0.0
C7763 C 0.32533 0.30506 0.07062 0.0
H7764 H 0.32971 0.31111 0.0483 0.0
H7765 H 0.28418 0.30406 0.12992 0.0
H7766 H 0.68427 0.31739 0.1204 0.0
H7767 H 0.69174 0.30924 0.1078 0.0
H7768 H 0.68708 0.33234 0.0896 0.0
H7769 H 0.67941 0.34045 0.10212 0.0
H7770 H 0.68398 0.31592 0.08087 0.0
H7771 H 0.70768 0.32995 0.09968 0.0
H7772 H 0.71605 0.3333 0.11415 0.0
H7773 H 0.72178 0.30456 0.1176 0.0
H7774 H 0.71332 0.30102 0.1032 0.0
H7775 H 0.71996 0.31107 0.04778 0.0
H7776 H 0.70936 0.31605 0.05982 0.0
H7777 H 0.71422 0.29103 0.07515 0.0
H7778 H 0.72473 0.28592 0.06302 0.0
H7779 H 0.71661 0.30707 0.08555 0.0
H7780 H 0.69399 0.29338 0.06569 0.0
H7781 H 0.68586 0.29041 0.05102 0.0
H7782 H 0.67837 0.31885 0.04925 0.0
H7783 H 0.68659 0.32203 0.06386 0.0
C7784 C 0.6847 0.32067 0.11368 0.0
C7785 C 0.68131 0.32959 0.11228 0.0
C7786 C 0.68902 0.31603 0.1065 0.0
C7787 C 0.69006 0.32023 0.0978 0.0
C7788 C 0.68638 0.32899 0.09627 0.0
C7789 C 0.68207 0.33364 0.10345 0.0
C7790 C 0.6954 0.31572 0.09041 0.0
C7791 C 0.69113 0.31405 0.08186 0.0
C7792 C 0.70468 0.31311 0.09178 0.0
C7793 C 0.70977 0.31521 0.10043 0.0
C7794 C 0.71065 0.32434 0.10357 0.0
C7795 C 0.71542 0.32627 0.11174 0.0
C7796 C 0.71942 0.31914 0.1168 0.0
C7797 C 0.71866 0.31007 0.11368 0.0
C7798 C 0.71388 0.3081 0.10551 0.0
C7799 C 0.71866 0.30657 0.05364 0.0
C7800 C 0.72318 0.29811 0.05447 0.0
C7801 C 0.71259 0.30941 0.06051 0.0
C7802 C 0.71099 0.30389 0.06835 0.0
C7803 C 0.71537 0.29538 0.06914 0.0
C7804 C 0.72135 0.29247 0.06222 0.0
C7805 C 0.70521 0.30732 0.07599 0.0
C7806 C 0.70942 0.30883 0.08459 0.0
C7807 C 0.69591 0.30984 0.07464 0.0
C7808 C 0.69098 0.30797 0.06583 0.0
C7809 C 0.69069 0.29903 0.06213 0.0
C7810 C 0.68605 0.2973 0.05384 0.0
C7811 C 0.68162 0.30444 0.04919 0.0
C7812 C 0.68182 0.31333 0.05285 0.0
C7813 C 0.68646 0.3151 0.06115 0.0
H7814 H 0.67803 0.30309 0.04277 0.0
H7815 H 0.72311 0.32065 0.12313 0.0
H7816 H 0.66966 0.32322 0.89498 0.0
H7817 H 0.67644 0.31398 0.90738 0.0
H7818 H 0.70277 0.32774 0.90299 0.0
H7819 H 0.69617 0.33669 0.89039 0.0
H7820 H 0.70493 0.30965 0.90522 0.0
H7821 H 0.688 0.33361 0.92081 0.0
H7822 H 0.67402 0.34226 0.92462 0.0
H7823 H 0.66072 0.31739 0.93445 0.0
H7824 H 0.67459 0.30856 0.93059 0.0
H7825 H 0.73007 0.30552 0.94633 0.0
H7826 H 0.72127 0.31025 0.93279 0.0
H7827 H 0.69771 0.29428 0.94243 0.0
H7828 H 0.70649 0.28967 0.95618 0.0
H7829 H 0.69261 0.31091 0.93711 0.0
H7830 H 0.71025 0.28731 0.92352 0.0
H7831 H 0.72422 0.27859 0.91987 0.0
H7832 H 0.73606 0.30237 0.90625 0.0
H7833 H 0.72222 0.31128 0.90992 0.0
C7834 C 0.67691 0.32421 0.8966 0.0
C7835 C 0.68235 0.33075 0.89173 0.0
C7836 C 0.68076 0.31898 0.90374 0.0
C7837 C 0.6901 0.32024 0.90618 0.0
C7838 C 0.69555 0.32666 0.90125 0.0
C7839 C 0.69173 0.33186 0.89411 0.0
C7840 C 0.69426 0.31498 0.91392 0.0
C7841 C 0.70227 0.30997 0.9122 0.0
C7842 C 0.69059 0.3151 0.92297 0.0
C7843 C 0.68228 0.32041 0.92532 0.0
C7844 C 0.68207 0.32997 0.92372 0.0
C7845 C 0.67417 0.33491 0.9259 0.0
C7846 C 0.66648 0.33037 0.92975 0.0
C7847 C 0.66667 0.32089 0.93145 0.0
C7848 C 0.67455 0.31592 0.92928 0.0
C7849 C 0.72308 0.30286 0.94547 0.0
C7850 C 0.71905 0.29704 0.95219 0.0
C7851 C 0.71805 0.30556 0.93772 0.0
C7852 C 0.70888 0.30247 0.93649 0.0
C7853 C 0.70481 0.29666 0.94319 0.0
C7854 C 0.70984 0.29398 0.95099 0.0
C7855 C 0.70346 0.30582 0.92846 0.0
C7856 C 0.6952 0.31046 0.93011 0.0
C7857 C 0.70688 0.30533 0.91933 0.0
C7858 C 0.71521 0.29998 0.91704 0.0
C7859 C 0.71585 0.2907 0.91979 0.0
C7860 C 0.72375 0.28572 0.91772 0.0
C7861 C 0.73103 0.28992 0.91285 0.0
C7862 C 0.73042 0.29912 0.91002 0.0
C7863 C 0.72254 0.30413 0.91209 0.0
H7864 H 0.73714 0.28605 0.91125 0.0
H7865 H 0.66037 0.33421 0.93143 0.0
H7866 H 0.66824 0.68715 0.90258 0.0
H7867 H 0.6773 0.69359 0.91534 0.0
H7868 H 0.70236 0.68435 0.9026 0.0
H7869 H 0.69337 0.67801 0.88973 0.0
H7870 H 0.70203 0.68108 0.92146 0.0
H7871 H 0.6962 0.70646 0.90046 0.0
H7872 H 0.68619 0.71663 0.8913 0.0
H7873 H 0.67225 0.72484 0.91597 0.0
H7874 H 0.68209 0.71462 0.92526 0.0
H7875 H 0.73605 0.70775 0.94436 0.0
H7876 H 0.72577 0.70019 0.93326 0.0
H7877 H 0.70253 0.71428 0.94483 0.0
H7878 H 0.71289 0.72228 0.95559 0.0
H7879 H 0.70099 0.71468 0.92734 0.0
H7880 H 0.70682 0.69029 0.94865 0.0
H7881 H 0.7162 0.67993 0.95825 0.0
H7882 H 0.72922 0.66951 0.93394 0.0
H7883 H 0.72001 0.67989 0.92421 0.0
C7884 C 0.67568 0.68652 0.90246 0.0
C7885 C 0.68008 0.68212 0.89507 0.0
C7886 C 0.68085 0.69017 0.90978 0.0
C7887 C 0.69051 0.68954 0.90987 0.0
C7888 C 0.6949 0.6849 0.90267 0.0
C7889 C 0.68974 0.68126 0.89533 0.0
C7890 C 0.69609 0.69394 0.9173 0.0
C7891 C 0.70188 0.68844 0.9227 0.0
C7892 C 0.69566 0.70349 0.91912 0.0
C7893 C 0.68982 0.70971 0.91354 0.0
C7894 C 0.69096 0.71039 0.90392 0.0
C7895 C 0.68532 0.71617 0.89871 0.0
C7896 C 0.67857 0.72136 0.90305 0.0
C7897 C 0.67747 0.7208 0.91262 0.0
C7898 C 0.68308 0.71503 0.91786 0.0
C7899 C 0.72873 0.70917 0.94457 0.0
C7900 C 0.72529 0.71547 0.95098 0.0
C7901 C 0.72284 0.7048 0.93826 0.0
C7902 C 0.7133 0.70646 0.93833 0.0
C7903 C 0.70984 0.71281 0.94468 0.0
C7904 C 0.71577 0.71733 0.95089 0.0
C7905 C 0.70704 0.70185 0.93152 0.0
C7906 C 0.70111 0.70731 0.9262 0.0
C7907 C 0.70725 0.69223 0.92988 0.0
C7908 C 0.71277 0.68593 0.93571 0.0
C7909 C 0.71173 0.68583 0.94536 0.0
C7910 C 0.71701 0.67994 0.95082 0.0
C7911 C 0.72332 0.67408 0.94671 0.0
C7912 C 0.72434 0.67406 0.93712 0.0
C7913 C 0.71908 0.67994 0.93162 0.0
H7914 H 0.7274 0.66953 0.95095 0.0
H7915 H 0.67422 0.72582 0.899 0.0
H7916 H 0.32534 0.69958 0.88344 0.0
H7917 H 0.31693 0.70645 0.89617 0.0
H7918 H 0.32018 0.68163 0.91231 0.0
H7919 H 0.3286 0.67468 0.89953 0.0
H7920 H 0.30292 0.68806 0.91381 0.0
H7921 H 0.33356 0.70075 0.91664 0.0
H7922 H 0.34785 0.70857 0.91124 0.0
H7923 H 0.33257 0.73281 0.90459 0.0
H7924 H 0.31816 0.72509 0.90983 0.0
H7925 H 0.28656 0.70936 0.95456 0.0
H7926 H 0.29646 0.70139 0.94366 0.0
H7927 H 0.29634 0.72516 0.92561 0.0
H7928 H 0.28677 0.7333 0.93668 0.0
H7929 H 0.31296 0.71846 0.92615 0.0
H7930 H 0.28221 0.70541 0.92217 0.0
H7931 H 0.26784 0.69761 0.92739 0.0
H7932 H 0.28327 0.67409 0.93606 0.0
H7933 H 0.29775 0.68181 0.931 0.0
C7934 C 0.32432 0.6956 0.88972 0.0
C7935 C 0.32771 0.68661 0.8905 0.0
C7936 C 0.31952 0.69954 0.89699 0.0
C7937 C 0.31807 0.69462 0.90526 0.0
C7938 C 0.32125 0.68557 0.906 0.0
C7939 C 0.32603 0.68159 0.89869 0.0
C7940 C 0.3132 0.69897 0.91308 0.0
C7941 C 0.3052 0.69464 0.91662 0.0
C7942 C 0.31609 0.70762 0.91665 0.0
C7943 C 0.32477 0.71231 0.91357 0.0
C7944 C 0.33324 0.70773 0.91397 0.0
C7945 C 0.34136 0.71215 0.91095 0.0
C7946 C 0.34112 0.72118 0.90756 0.0
C7947 C 0.33275 0.72581 0.90721 0.0
C7948 C 0.3246 0.72142 0.91022 0.0
C7949 C 0.28879 0.71295 0.94835 0.0
C7950 C 0.28605 0.72204 0.94655 0.0
C7951 C 0.29436 0.70834 0.94207 0.0
C7952 C 0.29707 0.71263 0.93375 0.0
C7953 C 0.29438 0.72172 0.93199 0.0
C7954 C 0.28892 0.72636 0.93831 0.0
C7955 C 0.30256 0.70765 0.92676 0.0
C7956 C 0.31071 0.71185 0.92339 0.0
C7957 C 0.29979 0.6989 0.92334 0.0
C7958 C 0.29107 0.69422 0.92629 0.0
C7959 C 0.28254 0.6986 0.92524 0.0
C7960 C 0.27438 0.69419 0.92817 0.0
C7961 C 0.27464 0.68537 0.93208 0.0
C7962 C 0.28307 0.68093 0.93304 0.0
C7963 C 0.29126 0.68531 0.93014 0.0
H7964 H 0.26831 0.68197 0.93434 0.0
H7965 H 0.34742 0.72458 0.90522 0.0
H7966 H 0.3319 0.33511 0.90006 0.0
H7967 H 0.3254 0.32719 0.91359 0.0
H7968 H 0.30905 0.30955 0.8958 0.0
H7969 H 0.31542 0.31756 0.88227 0.0
H7970 H 0.29863 0.3157 0.90871 0.0
H7971 H 0.32806 0.30163 0.90829 0.0
H7972 H 0.34505 0.30083 0.90779 0.0
H7973 H 0.34699 0.31549 0.93338 0.0
H7974 H 0.33 0.31649 0.93397 0.0
H7975 H 0.28368 0.28488 0.9442 0.0
H7976 H 0.29323 0.29013 0.93115 0.0
H7977 H 0.30254 0.31368 0.94685 0.0
H7978 H 0.29276 0.30866 0.9598 0.0
H7979 H 0.3168 0.30366 0.93509 0.0
H7980 H 0.2869 0.31841 0.93429 0.0
H7981 H 0.26986 0.31812 0.93469 0.0
H7982 H 0.26908 0.30079 0.91078 0.0
H7983 H 0.28613 0.30084 0.91036 0.0
C7984 C 0.32702 0.32945 0.89904 0.0
C7985 C 0.32414 0.32698 0.8901 0.0
C7986 C 0.32332 0.32491 0.90678 0.0
C7987 C 0.31677 0.3177 0.90573 0.0
C7988 C 0.31406 0.3151 0.8968 0.0
C7989 C 0.31769 0.31969 0.88907 0.0
C7990 C 0.31234 0.31326 0.91394 0.0
C7991 C 0.30264 0.31294 0.91439 0.0
C7992 C 0.31753 0.30977 0.92146 0.0
C7993 C 0.32775 0.30921 0.92113 0.0
C7994 C 0.33211 0.30475 0.91377 0.0
C7995 C 0.34174 0.30425 0.91348 0.0
C7996 C 0.3471 0.30813 0.92054 0.0
C7997 C 0.34283 0.3125 0.92791 0.0
C7998 C 0.3332 0.31303 0.92823 0.0
C7999 C 0.28784 0.29112 0.9449 0.0
C8000 C 0.28736 0.29643 0.95297 0.0
C8001 C 0.29331 0.29408 0.93747 0.0
C8002 C 0.29854 0.3023 0.93805 0.0
C8003 C 0.29857 0.3073 0.9463 0.0
C8004 C 0.29296 0.30444 0.95367 0.0
C8005 C 0.3032 0.30615 0.92976 0.0
C8006 C 0.31288 0.30638 0.92934 0.0
C8007 C 0.29802 0.30946 0.92219 0.0
C8008 C 0.28778 0.30953 0.92236 0.0
C8009 C 0.28309 0.31446 0.92918 0.0
C8010 C 0.27344 0.31436 0.9294 0.0
C8011 C 0.26839 0.30942 0.92278 0.0
C8012 C 0.27299 0.3046 0.91592 0.0
C8013 C 0.28266 0.30466 0.91568 0.0
H8014 H 0.26091 0.30935 0.92297 0.0
H8015 H 0.35455 0.30773 0.9203 0.0
H8016 H 0.62336 0.69285 0.19079 0.0
H8017 H 0.61046 0.69986 0.19887 0.0
H8018 H 0.59118 0.68605 0.18065 0.0
H8019 H 0.60408 0.67907 0.17247 0.0
H8020 H 0.58776 0.70474 0.18264 0.0
H8021 H 0.59304 0.67855 0.20223 0.0
H8022 H 0.60243 0.66812 0.21173 0.0
H8023 H 0.60977 0.69049 0.22972 0.0
H8024 H 0.60053 0.70109 0.22025 0.0
H8025 H 0.54893 0.72052 0.2071 0.0
H8026 H 0.55992 0.71047 0.19963 0.0
H8027 H 0.58078 0.71838 0.21954 0.0
H8028 H 0.56959 0.72794 0.22743 0.0
H8029 H 0.58257 0.70136 0.21634 0.0
H8030 H 0.57902 0.72785 0.19647 0.0
H8031 H 0.57043 0.73893 0.18693 0.0
H8032 H 0.56081 0.71693 0.16949 0.0
H8033 H 0.56926 0.70571 0.179 0.0
C8034 C 0.61637 0.6913 0.18851 0.0
C8035 C 0.61473 0.68541 0.18098 0.0
C8036 C 0.60901 0.69525 0.19317 0.0
C8037 C 0.59986 0.69342 0.1904 0.0
C8038 C 0.59819 0.68753 0.18291 0.0
C8039 C 0.60556 0.6835 0.17829 0.0
C8040 C 0.59209 0.69795 0.19513 0.0
C8041 C 0.5865 0.70389 0.18999 0.0
C8042 C 0.59063 0.69701 0.20474 0.0
C8043 C 0.59614 0.69063 0.21049 0.0
C8044 C 0.59671 0.68126 0.20817 0.0
C8045 C 0.602 0.67531 0.21356 0.0
C8046 C 0.60671 0.67864 0.22131 0.0
C8047 C 0.60612 0.68792 0.22371 0.0
C8048 C 0.60085 0.6939 0.21834 0.0
C8049 C 0.5558 0.72002 0.20999 0.0
C8050 C 0.55838 0.72503 0.21792 0.0
C8051 C 0.56213 0.71433 0.20563 0.0
C8052 C 0.57127 0.71379 0.20888 0.0
C8053 C 0.57379 0.71866 0.21688 0.0
C8054 C 0.56741 0.72416 0.22136 0.0
C8055 C 0.57829 0.70832 0.2039 0.0
C8056 C 0.58375 0.70218 0.20899 0.0
C8057 C 0.57973 0.70919 0.19425 0.0
C8058 C 0.57469 0.71594 0.1885 0.0
C8059 C 0.57503 0.72538 0.19064 0.0
C8060 C 0.57019 0.73168 0.18523 0.0
C8061 C 0.56505 0.72863 0.17762 0.0
C8062 C 0.56477 0.71928 0.17539 0.0
C8063 C 0.56959 0.71295 0.18078 0.0
H8064 H 0.56131 0.73352 0.17345 0.0
H8065 H 0.6108 0.67403 0.22547 0.0
H8066 H 0.34417 0.60558 0.18028 0.0
H8067 H 0.33583 0.5929 0.18791 0.0
H8068 H 0.31075 0.60848 0.18703 0.0
H8069 H 0.31914 0.62135 0.17969 0.0
H8070 H 0.31332 0.60143 0.20373 0.0
H8071 H 0.31359 0.58967 0.17313 0.0
H8072 H 0.32033 0.58532 0.1582 0.0
H8073 H 0.33755 0.5657 0.17189 0.0
H8074 H 0.33102 0.57004 0.18693 0.0
H8075 H 0.28609 0.56379 0.22089 0.0
H8076 H 0.29205 0.57553 0.21007 0.0
H8077 H 0.31914 0.56375 0.21177 0.0
H8078 H 0.31324 0.55204 0.22262 0.0
H8079 H 0.3142 0.56882 0.19373 0.0
H8080 H 0.31471 0.58173 0.22437 0.0
H8081 H 0.30782 0.58608 0.23924 0.0
H8082 H 0.2888 0.60363 0.2251 0.0
H8083 H 0.29549 0.59926 0.21012 0.0
C8084 C 0.33688 0.60631 0.1817 0.0
C8085 C 0.33233 0.6145 0.1794 0.0
C8086 C 0.33209 0.59901 0.18597 0.0
C8087 C 0.32264 0.59969 0.18797 0.0
C8088 C 0.31803 0.60778 0.18553 0.0
C8089 C 0.32282 0.6151 0.18126 0.0
C8090 C 0.31772 0.59218 0.19309 0.0
C8091 C 0.31336 0.59433 0.20143 0.0
C8092 C 0.31792 0.58288 0.19021 0.0
C8093 C 0.32187 0.58024 0.18117 0.0
C8094 C 0.31887 0.58448 0.17297 0.0
C8095 C 0.32264 0.58201 0.16448 0.0
C8096 C 0.32937 0.57525 0.1641 0.0
C8097 C 0.33234 0.57094 0.1722 0.0
C8098 C 0.32859 0.5734 0.18071 0.0
C8099 C 0.29329 0.56365 0.21885 0.0
C8100 C 0.2992 0.55698 0.22257 0.0
C8101 C 0.29668 0.57035 0.2127 0.0
C8102 C 0.30605 0.57052 0.21017 0.0
C8103 C 0.31189 0.56371 0.21362 0.0
C8104 C 0.30851 0.55704 0.21982 0.0
C8105 C 0.3099 0.5781 0.20435 0.0
C8106 C 0.31408 0.57595 0.19593 0.0
C8107 C 0.30951 0.58742 0.20713 0.0
C8108 C 0.30552 0.59009 0.21612 0.0
C8109 C 0.30901 0.58646 0.22443 0.0
C8110 C 0.30515 0.58893 0.23287 0.0
C8111 C 0.29786 0.5951 0.23311 0.0
C8112 C 0.29444 0.59883 0.2249 0.0
C8113 C 0.29826 0.59636 0.21643 0.0
H8114 H 0.29489 0.59702 0.23966 0.0
H8115 H 0.33228 0.57335 0.15752 0.0
H8116 H 0.39028 0.30737 0.17647 0.0
H8117 H 0.40291 0.30081 0.18536 0.0
H8118 H 0.40696 0.32665 0.19949 0.0
H8119 H 0.39454 0.3334 0.19033 0.0
H8120 H 0.42325 0.31947 0.19483 0.0
H8121 H 0.39558 0.30843 0.20984 0.0
H8122 H 0.38021 0.30083 0.21075 0.0
H8123 H 0.39165 0.27558 0.20111 0.0
H8124 H 0.40707 0.28307 0.20002 0.0
H8125 H 0.44885 0.3033 0.23338 0.0
H8126 H 0.43744 0.30992 0.22292 0.0
H8127 H 0.4343 0.28374 0.20922 0.0
H8128 H 0.44566 0.27705 0.21978 0.0
H8129 H 0.41784 0.29089 0.21318 0.0
H8130 H 0.44571 0.30187 0.19875 0.0
H8131 H 0.46105 0.30953 0.19802 0.0
H8132 H 0.44926 0.33494 0.20678 0.0
H8133 H 0.43386 0.3274 0.20768 0.0
C8134 C 0.39392 0.31171 0.18138 0.0
C8135 C 0.39137 0.32092 0.18268 0.0
C8136 C 0.40109 0.30791 0.18654 0.0
C8137 C 0.40581 0.3132 0.19319 0.0
C8138 C 0.40339 0.32243 0.19442 0.0
C8139 C 0.39623 0.32625 0.18924 0.0
C8140 C 0.41322 0.30906 0.1989 0.0
C8141 C 0.42204 0.31328 0.19893 0.0
C8142 C 0.41172 0.30086 0.20408 0.0
C8143 C 0.40246 0.29634 0.20476 0.0
C8144 C 0.3948 0.30128 0.20785 0.0
C8145 C 0.38609 0.29699 0.20841 0.0
C8146 C 0.38495 0.28774 0.20597 0.0
C8147 C 0.39254 0.28275 0.20298 0.0
C8148 C 0.40127 0.28701 0.2024 0.0
C8149 C 0.44585 0.299 0.22803 0.0
C8150 C 0.4483 0.28971 0.22727 0.0
C8151 C 0.43933 0.30279 0.22205 0.0
C8152 C 0.43511 0.29737 0.21519 0.0
C8153 C 0.43752 0.28808 0.21442 0.0
C8154 C 0.44405 0.28428 0.22041 0.0
C8155 C 0.42786 0.3013 0.20913 0.0
C8156 C 0.41907 0.29705 0.20905 0.0
C8157 C 0.42939 0.30948 0.20392 0.0
C8158 C 0.43864 0.31405 0.20335 0.0
C8159 C 0.4464 0.30908 0.20058 0.0
C8160 C 0.4551 0.3134 0.20013 0.0
C8161 C 0.45613 0.32271 0.20237 0.0
C8162 C 0.44845 0.32773 0.20505 0.0
C8163 C 0.43973 0.32343 0.20552 0.0
H8164 H 0.46288 0.32605 0.20202 0.0
H8165 H 0.3782 0.28443 0.2064 0.0
H8166 H 0.66206 0.3992 0.18571 0.0
H8167 H 0.67109 0.41199 0.19215 0.0
H8168 H 0.69629 0.39895 0.18394 0.0
H8169 H 0.6873 0.38592 0.17779 0.0
H8170 H 0.69764 0.40462 0.20112 0.0
H8171 H 0.68869 0.41845 0.1728 0.0
H8172 H 0.67818 0.42315 0.16029 0.0
H8173 H 0.66311 0.43974 0.17929 0.0
H8174 H 0.67345 0.43503 0.19194 0.0
H8175 H 0.72348 0.44388 0.21673 0.0
H8176 H 0.71698 0.43259 0.20585 0.0
H8177 H 0.68944 0.44011 0.21381 0.0
H8178 H 0.69588 0.45135 0.22467 0.0
H8179 H 0.69107 0.43751 0.19491 0.0
H8180 H 0.69918 0.42185 0.22342 0.0
H8181 H 0.70995 0.41719 0.23573 0.0
H8182 H 0.72705 0.40406 0.21572 0.0
H8183 H 0.71644 0.40877 0.20326 0.0
C8184 C 0.66953 0.39903 0.18528 0.0
C8185 C 0.67395 0.39151 0.18127 0.0
C8186 C 0.67468 0.40642 0.18886 0.0
C8187 C 0.68438 0.4065 0.18843 0.0
C8188 C 0.68882 0.39906 0.18431 0.0
C8189 C 0.68366 0.39165 0.18074 0.0
C8190 C 0.68983 0.41408 0.19281 0.0
C8191 C 0.69634 0.41181 0.1996 0.0
C8192 C 0.68807 0.42347 0.19093 0.0
C8193 C 0.68182 0.42633 0.18334 0.0
C8194 C 0.68309 0.42304 0.17433 0.0
C8195 C 0.67717 0.42572 0.16721 0.0
C8196 C 0.66997 0.43172 0.169 0.0
C8197 C 0.66869 0.43508 0.17791 0.0
C8198 C 0.67459 0.43242 0.18506 0.0
C8199 C 0.71604 0.44321 0.21604 0.0
C8200 C 0.71018 0.44853 0.22151 0.0
C8201 C 0.71235 0.43675 0.20985 0.0
C8202 C 0.70273 0.43548 0.20907 0.0
C8203 C 0.69688 0.44101 0.21428 0.0
C8204 C 0.70056 0.44742 0.22049 0.0
C8205 C 0.69871 0.42802 0.2033 0.0
C8206 C 0.69246 0.43031 0.19627 0.0
C8207 C 0.70075 0.41865 0.20491 0.0
C8208 C 0.70708 0.41575 0.2124 0.0
C8209 C 0.70528 0.41803 0.22164 0.0
C8210 C 0.71135 0.41537 0.22864 0.0
C8211 C 0.71919 0.41036 0.2265 0.0
C8212 C 0.72098 0.40796 0.21736 0.0
C8213 C 0.71494 0.41062 0.21033 0.0
H8214 H 0.72388 0.4083 0.23193 0.0
H8215 H 0.66539 0.43379 0.16348 0.0
H8216 H 0.6018 0.32532 0.83849 0.0
H8217 H 0.58944 0.3187 0.82891 0.0
H8218 H 0.60834 0.31699 0.80602 0.0
H8219 H 0.6207 0.32364 0.81553 0.0
H8220 H 0.5916 0.32286 0.80042 0.0
H8221 H 0.60319 0.29814 0.81967 0.0
H8222 H 0.60708 0.29084 0.83456 0.0
H8223 H 0.57881 0.29264 0.84323 0.0
H8224 H 0.57478 0.30006 0.82842 0.0
H8225 H 0.56897 0.29007 0.77204 0.0
H8226 H 0.57962 0.29894 0.78179 0.0
H8227 H 0.56039 0.29651 0.80446 0.0
H8228 H 0.55002 0.28716 0.79493 0.0
H8229 H 0.57645 0.2936 0.81066 0.0
H8230 H 0.56434 0.31738 0.79138 0.0
H8231 H 0.56013 0.32502 0.77676 0.0
H8232 H 0.5886 0.32561 0.76843 0.0
H8233 H 0.59297 0.31787 0.78296 0.0
C8234 C 0.60331 0.32353 0.83141 0.0
C8235 C 0.61223 0.32495 0.82778 0.0
C8236 C 0.59624 0.31976 0.82595 0.0
C8237 C 0.598 0.31724 0.81678 0.0
C8238 C 0.60683 0.3189 0.81306 0.0
C8239 C 0.61388 0.32271 0.81851 0.0
C8240 C 0.59076 0.31255 0.81115 0.0
C8241 C 0.58833 0.31643 0.8026 0.0
C8242 C 0.5863 0.3043 0.81413 0.0
C8243 C 0.58871 0.29973 0.82298 0.0
C8244 C 0.59782 0.29702 0.82477 0.0
C8245 C 0.60005 0.29286 0.8332 0.0
C8246 C 0.5932 0.2913 0.83985 0.0
C8247 C 0.58411 0.29386 0.83808 0.0
C8248 C 0.58185 0.29804 0.82967 0.0
C8249 C 0.567 0.2915 0.77909 0.0
C8250 C 0.55858 0.28804 0.78263 0.0
C8251 C 0.57306 0.29663 0.78464 0.0
C8252 C 0.57074 0.2986 0.79383 0.0
C8253 C 0.56233 0.29515 0.79739 0.0
C8254 C 0.55635 0.28985 0.79189 0.0
C8255 C 0.57728 0.30386 0.79984 0.0
C8256 C 0.57961 0.30009 0.80847 0.0
C8257 C 0.58157 0.31226 0.79696 0.0
C8258 C 0.57897 0.31698 0.78824 0.0
C8259 C 0.5697 0.31909 0.78641 0.0
C8260 C 0.56728 0.32345 0.77814 0.0
C8261 C 0.57409 0.32578 0.77166 0.0
C8262 C 0.58333 0.32379 0.77345 0.0
C8263 C 0.58578 0.31943 0.78171 0.0
H8264 H 0.57221 0.32915 0.76526 0.0
H8265 H 0.59494 0.28808 0.84637 0.0
H8266 H 0.68987 0.60521 0.84215 0.0
H8267 H 0.69626 0.59281 0.83292 0.0
H8268 H 0.68974 0.60773 0.80798 0.0
H8269 H 0.68345 0.62021 0.81715 0.0
H8270 H 0.68529 0.5893 0.80667 0.0
H8271 H 0.7116 0.60798 0.81653 0.0
H8272 H 0.72155 0.61558 0.82815 0.0
H8273 H 0.72673 0.58938 0.84091 0.0
H8274 H 0.7167 0.58164 0.82943 0.0
H8275 H 0.71294 0.5678 0.77359 0.0
H8276 H 0.70542 0.57842 0.78404 0.0
H8277 H 0.71667 0.56382 0.80741 0.0
H8278 H 0.72463 0.55348 0.79693 0.0
H8279 H 0.7182 0.58109 0.8105 0.0
H8280 H 0.69292 0.56205 0.80065 0.0
H8281 H 0.68271 0.55398 0.78958 0.0
H8282 H 0.67509 0.57989 0.7776 0.0
H8283 H 0.68536 0.58812 0.78852 0.0
C8284 C 0.68984 0.60589 0.8347 0.0
C8285 C 0.6862 0.61376 0.8304 0.0
C8286 C 0.69347 0.59877 0.82944 0.0
C8287 C 0.69358 0.59938 0.81976 0.0
C8288 C 0.68972 0.6071 0.81544 0.0
C8289 C 0.6861 0.61422 0.8207 0.0
C8290 C 0.69789 0.5921 0.81413 0.0
C8291 C 0.6925 0.58756 0.80744 0.0
C8292 C 0.70722 0.5896 0.81535 0.0
C8293 C 0.71333 0.59424 0.82218 0.0
C8294 C 0.71481 0.60385 0.82185 0.0
C8295 C 0.72047 0.60818 0.82841 0.0
C8296 C 0.72475 0.60297 0.83528 0.0
C8297 C 0.7234 0.59341 0.83559 0.0
C8298 C 0.71774 0.58905 0.82906 0.0
C8299 C 0.71374 0.56681 0.78096 0.0
C8300 C 0.71921 0.55966 0.78441 0.0
C8301 C 0.70939 0.57285 0.78695 0.0
C8302 C 0.71025 0.57181 0.79655 0.0
C8303 C 0.71581 0.56473 0.80003 0.0
C8304 C 0.7203 0.55877 0.79403 0.0
C8305 C 0.70564 0.57832 0.80291 0.0
C8306 C 0.71096 0.58274 0.80975 0.0
C8307 C 0.6962 0.58061 0.80191 0.0
C8308 C 0.68997 0.5757 0.79536 0.0
C8309 C 0.68912 0.56603 0.79562 0.0
C8310 C 0.68331 0.56142 0.78938 0.0
C8311 C 0.67827 0.56642 0.78288 0.0
C8312 C 0.67901 0.57603 0.78263 0.0
C8313 C 0.68481 0.58067 0.78886 0.0
H8314 H 0.67378 0.56284 0.77805 0.0
H8315 H 0.72913 0.60633 0.84035 0.0
H8316 H 0.38356 0.68938 0.81966 0.0
H8317 H 0.39672 0.69797 0.81308 0.0
H8318 H 0.41449 0.67519 0.81919 0.0
H8319 H 0.40139 0.66663 0.82595 0.0
H8320 H 0.42295 0.69184 0.82298 0.0
H8321 H 0.40626 0.67778 0.79796 0.0
H8322 H 0.39258 0.67408 0.78842 0.0
H8323 H 0.38932 0.70281 0.7822 0.0
H8324 H 0.40292 0.7067 0.79182 0.0
H8325 H 0.45851 0.69874 0.78923 0.0
H8326 H 0.44581 0.69305 0.79898 0.0
H8327 H 0.43101 0.71807 0.79388 0.0
H8328 H 0.44383 0.72394 0.7843 0.0
H8329 H 0.42084 0.70147 0.79012 0.0
H8330 H 0.43867 0.71521 0.8143 0.0
H8331 H 0.45264 0.71845 0.82356 0.0
H8332 H 0.45413 0.68984 0.83104 0.0
H8333 H 0.44024 0.68639 0.82169 0.0
C8334 C 0.3903 0.68626 0.81973 0.0
C8335 C 0.39142 0.6773 0.82327 0.0
C8336 C 0.3978 0.69115 0.81592 0.0
C8337 C 0.40656 0.68718 0.81556 0.0
C8338 C 0.40778 0.67838 0.81938 0.0
C8339 C 0.40027 0.67346 0.82316 0.0
C8340 C 0.41435 0.69203 0.81083 0.0
C8341 C 0.42253 0.69388 0.81577 0.0
C8342 C 0.41372 0.69485 0.80148 0.0
C8343 C 0.40554 0.69254 0.7957 0.0
C8344 C 0.40258 0.68332 0.79463 0.0
C8345 C 0.39485 0.68119 0.7892 0.0
C8346 C 0.39006 0.68821 0.78474 0.0
C8347 C 0.39302 0.69738 0.78568 0.0
C8348 C 0.40074 0.69955 0.79112 0.0
C8349 C 0.45262 0.7031 0.79031 0.0
C8350 C 0.45213 0.71176 0.78594 0.0
C8351 C 0.44538 0.69984 0.79588 0.0
C8352 C 0.43748 0.70514 0.79713 0.0
C8353 C 0.43705 0.71388 0.79298 0.0
C8354 C 0.44436 0.71722 0.78752 0.0
C8355 C 0.42944 0.70125 0.80225 0.0
C8356 C 0.42123 0.69953 0.79735 0.0
C8357 C 0.43008 0.6985 0.81161 0.0
C8358 C 0.43846 0.70052 0.81721 0.0
C8359 C 0.44202 0.70959 0.81784 0.0
C8360 C 0.44992 0.71147 0.82312 0.0
C8361 C 0.45428 0.70435 0.82787 0.0
C8362 C 0.45075 0.69534 0.82735 0.0
C8363 C 0.44286 0.69342 0.82206 0.0
H8364 H 0.46039 0.70582 0.83196 0.0
H8365 H 0.38408 0.68654 0.78053 0.0
H8366 H 0.32925 0.38572 0.80529 0.0
H8367 H 0.32034 0.39857 0.79934 0.0
H8368 H 0.31829 0.4096 0.82681 0.0
H8369 H 0.32726 0.39672 0.83284 0.0
H8370 H 0.30193 0.41031 0.81784 0.0
H8371 H 0.33312 0.41941 0.81135 0.0
H8372 H 0.34894 0.4176 0.80542 0.0
H8373 H 0.33829 0.4141 0.77796 0.0
H8374 H 0.32238 0.41576 0.78374 0.0
H8375 H 0.28295 0.45194 0.8003 0.0
H8376 H 0.29323 0.44124 0.80823 0.0
H8377 H 0.29841 0.42764 0.7824 0.0
H8378 H 0.28837 0.43848 0.77444 0.0
H8379 H 0.31398 0.42948 0.79188 0.0
H8380 H 0.28274 0.41904 0.79869 0.0
H8381 H 0.26691 0.42075 0.80465 0.0
H8382 H 0.27773 0.4268 0.83159 0.0
H8383 H 0.29364 0.42525 0.82576 0.0
C8384 C 0.32698 0.39092 0.81007 0.0
C8385 C 0.32904 0.39024 0.81953 0.0
C8386 C 0.32188 0.39826 0.80665 0.0
C8387 C 0.31877 0.40514 0.8126 0.0
C8388 C 0.32064 0.40439 0.82209 0.0
C8389 C 0.32574 0.39702 0.82553 0.0
C8390 C 0.31352 0.41304 0.80886 0.0
C8391 C 0.30462 0.41461 0.81227 0.0
C8392 C 0.31699 0.41857 0.80152 0.0
C8393 C 0.32655 0.41764 0.79799 0.0
C8394 C 0.33414 0.41819 0.80405 0.0
C8395 C 0.34313 0.4172 0.80072 0.0
C8396 C 0.34462 0.41572 0.79132 0.0
C8397 C 0.33712 0.41525 0.78524 0.0
C8398 C 0.32812 0.41622 0.78854 0.0
C8399 C 0.28642 0.44677 0.7963 0.0
C8400 C 0.28501 0.44616 0.78671 0.0
C8401 C 0.29222 0.4406 0.80085 0.0
C8402 C 0.29654 0.43357 0.79593 0.0
C8403 C 0.2952 0.43302 0.78634 0.0
C8404 C 0.28947 0.43922 0.7818 0.0
C8405 C 0.3023 0.42663 0.80071 0.0
C8406 C 0.31131 0.42524 0.7975 0.0
C8407 C 0.29893 0.42127 0.80824 0.0
C8408 C 0.28938 0.42213 0.81176 0.0
C8409 C 0.28174 0.4208 0.80587 0.0
C8410 C 0.27276 0.42173 0.80922 0.0
C8411 C 0.27132 0.42391 0.81849 0.0
C8412 C 0.27886 0.42513 0.82442 0.0
C8413 C 0.28786 0.42422 0.82109 0.0
H8414 H 0.26436 0.42462 0.82107 0.0
H8415 H 0.35158 0.41495 0.78875 0.0
H8416 H 0.6636 0.60669 0.19536 0.0
H8417 H 0.67276 0.59403 0.20141 0.0
H8418 H 0.69593 0.60314 0.18482 0.0
H8419 H 0.68692 0.61596 0.17888 0.0
H8420 H 0.69302 0.58405 0.18447 0.0
H8421 H 0.69555 0.60839 0.20704 0.0
H8422 H 0.68936 0.61977 0.21785 0.0
H8423 H 0.67556 0.59809 0.23309 0.0
H8424 H 0.68158 0.58658 0.22229 0.0
H8425 H 0.72996 0.56111 0.20598 0.0
H8426 H 0.71933 0.57219 0.19925 0.0
H8427 H 0.69893 0.56478 0.21983 0.0
H8428 H 0.70973 0.55402 0.22685 0.0
H8429 H 0.69947 0.58236 0.21807 0.0
H8430 H 0.69718 0.55784 0.19639 0.0
H8431 H 0.70279 0.54613 0.18562 0.0
H8432 H 0.71523 0.56737 0.16871 0.0
H8433 H 0.70979 0.57921 0.17945 0.0
C8434 C 0.67066 0.60605 0.19303 0.0
C8435 C 0.67453 0.61241 0.18667 0.0
C8436 C 0.67587 0.59878 0.19647 0.0
C8437 C 0.68505 0.59769 0.19362 0.0
C8438 C 0.68885 0.60384 0.18708 0.0
C8439 C 0.68366 0.61115 0.18367 0.0
C8440 C 0.69079 0.59032 0.19767 0.0
C8441 C 0.69452 0.58371 0.1918 0.0
C8442 C 0.69249 0.58973 0.20727 0.0
C8443 C 0.68894 0.59664 0.21381 0.0
C8444 C 0.69114 0.60606 0.21266 0.0
C8445 C 0.68767 0.61253 0.21879 0.0
C8446 C 0.68205 0.60966 0.22613 0.0
C8447 C 0.6799 0.60031 0.22738 0.0
C8448 C 0.68335 0.5938 0.22127 0.0
C8449 C 0.72316 0.56178 0.20899 0.0
C8450 C 0.72061 0.55652 0.21679 0.0
C8451 C 0.71707 0.56808 0.20511 0.0
C8452 C 0.70822 0.56919 0.20888 0.0
C8453 C 0.70568 0.564 0.21674 0.0
C8454 C 0.71183 0.55779 0.2207 0.0
C8455 C 0.7018 0.57605 0.20487 0.0
C8456 C 0.69794 0.5826 0.21074 0.0
C8457 C 0.69989 0.57651 0.19528 0.0
C8458 C 0.70314 0.56941 0.18878 0.0
C8459 C 0.70117 0.56001 0.19041 0.0
C8460 C 0.70431 0.55335 0.18431 0.0
C8461 C 0.70938 0.556 0.1765 0.0
C8462 C 0.7113 0.56532 0.17477 0.0
C8463 C 0.70818 0.57202 0.18086 0.0
H8464 H 0.71181 0.55083 0.17178 0.0
H8465 H 0.67937 0.61468 0.23087 0.0
H8466 H 0.66459 0.39943 0.81319 0.0
H8467 H 0.67411 0.41191 0.8066 0.0
H8468 H 0.69713 0.40359 0.82343 0.0
H8469 H 0.68774 0.39095 0.82991 0.0
H8470 H 0.69477 0.42274 0.82296 0.0
H8471 H 0.69658 0.39741 0.80162 0.0
H8472 H 0.69009 0.38537 0.79143 0.0
H8473 H 0.67664 0.40601 0.77515 0.0
H8474 H 0.68295 0.41817 0.78533 0.0
H8475 H 0.73171 0.44562 0.79989 0.0
H8476 H 0.72113 0.43451 0.80725 0.0
H8477 H 0.70032 0.44056 0.78683 0.0
H8478 H 0.71105 0.45137 0.7792 0.0
H8479 H 0.70087 0.423 0.78926 0.0
H8480 H 0.69921 0.44846 0.80987 0.0
H8481 H 0.70519 0.46077 0.82003 0.0
H8482 H 0.71761 0.44056 0.83765 0.0
H8483 H 0.71179 0.42813 0.82752 0.0
C8484 C 0.6717 0.4002 0.81546 0.0
C8485 C 0.67542 0.39412 0.82203 0.0
C8486 C 0.67711 0.40737 0.81172 0.0
C8487 C 0.68634 0.40861 0.81447 0.0
C8488 C 0.69001 0.40275 0.82123 0.0
C8489 C 0.68461 0.39555 0.82495 0.0
C8490 C 0.69227 0.41583 0.81008 0.0
C8491 C 0.6962 0.42277 0.81561 0.0
C8492 C 0.69389 0.41599 0.80045 0.0
C8493 C 0.69016 0.40869 0.79429 0.0
C8494 C 0.69218 0.39938 0.79591 0.0
C8495 C 0.68854 0.39253 0.79013 0.0
C8496 C 0.68293 0.39492 0.78266 0.0
C8497 C 0.68097 0.40417 0.78094 0.0
C8498 C 0.68458 0.41104 0.78671 0.0
C8499 C 0.72483 0.44465 0.79704 0.0
C8500 C 0.72214 0.44956 0.78912 0.0
C8501 C 0.71877 0.43833 0.80127 0.0
C8502 C 0.70983 0.43684 0.79773 0.0
C8503 C 0.70715 0.44165 0.78975 0.0
C8504 C 0.71326 0.44789 0.78543 0.0
C8505 C 0.70343 0.42998 0.80213 0.0
C8506 C 0.69942 0.42306 0.79661 0.0
C8507 C 0.70166 0.42991 0.81175 0.0
C8508 C 0.70513 0.43737 0.81789 0.0
C8509 C 0.70327 0.44665 0.81587 0.0
C8510 C 0.70662 0.45364 0.82163 0.0
C8511 C 0.71179 0.45145 0.82947 0.0
C8512 C 0.7136 0.44225 0.83157 0.0
C8513 C 0.71027 0.43522 0.82583 0.0
H8514 H 0.71439 0.45688 0.83392 0.0
H8515 H 0.68012 0.38961 0.7782 0.0
H8516 H 0.61285 0.66689 0.81469 0.0
H8517 H 0.59991 0.67566 0.80873 0.0
H8518 H 0.60728 0.69826 0.82662 0.0
H8519 H 0.62041 0.68958 0.83253 0.0
H8520 H 0.58841 0.69444 0.82648 0.0
H8521 H 0.61237 0.70011 0.80442 0.0
H8522 H 0.6248 0.69598 0.79368 0.0
H8523 H 0.60538 0.68029 0.77742 0.0
H8524 H 0.59285 0.68421 0.78814 0.0
H8525 H 0.55567 0.72305 0.80352 0.0
H8526 H 0.57031 0.71755 0.80992 0.0
H8527 H 0.56835 0.69355 0.79255 0.0
H8528 H 0.55389 0.6991 0.78605 0.0
H8529 H 0.58558 0.70007 0.79278 0.0
H8530 H 0.56205 0.69305 0.81556 0.0
H8531 H 0.54955 0.69682 0.82637 0.0
H8532 H 0.56808 0.71476 0.84129 0.0
H8533 H 0.58067 0.7112 0.83048 0.0
C8534 C 0.61181 0.67376 0.8173 0.0
C8535 C 0.61776 0.67755 0.82403 0.0
C8536 C 0.60437 0.67876 0.81391 0.0
C8537 C 0.6027 0.68767 0.81713 0.0
C8538 C 0.60846 0.6914 0.82402 0.0
C8539 C 0.61594 0.68641 0.82741 0.0
C8540 C 0.59495 0.69302 0.81324 0.0
C8541 C 0.58786 0.69583 0.81913 0.0
C8542 C 0.59418 0.69472 0.80364 0.0
C8543 C 0.60168 0.6924 0.79713 0.0
C8544 C 0.61076 0.69572 0.79859 0.0
C8545 C 0.61782 0.69343 0.7925 0.0
C8546 C 0.61588 0.68786 0.78488 0.0
C8547 C 0.60687 0.6846 0.78332 0.0
C8548 C 0.59978 0.68686 0.7894 0.0
C8549 C 0.55847 0.71669 0.80097 0.0
C8550 C 0.55373 0.71159 0.79416 0.0
C8551 C 0.56678 0.71351 0.80468 0.0
C8552 C 0.57041 0.7051 0.80176 0.0
C8553 C 0.56573 0.70008 0.79488 0.0
C8554 C 0.55747 0.70326 0.79116 0.0
C8555 C 0.57892 0.7013 0.80598 0.0
C8556 C 0.58617 0.69879 0.80014 0.0
C8557 C 0.57981 0.69985 0.81563 0.0
C8558 C 0.57227 0.70195 0.82215 0.0
C8559 C 0.56344 0.69786 0.8211 0.0
C8560 C 0.55634 0.69994 0.82723 0.0
C8561 C 0.55801 0.70605 0.8345 0.0
C8562 C 0.56679 0.71005 0.83565 0.0
C8563 C 0.57391 0.708 0.82953 0.0
H8564 H 0.55251 0.70765 0.83924 0.0
H8565 H 0.62136 0.68609 0.78017 0.0
H8566 H 0.31496 0.62363 0.81702 0.0
H8567 H 0.30878 0.61081 0.80785 0.0
H8568 H 0.31795 0.59155 0.82856 0.0
H8569 H 0.32421 0.60437 0.83776 0.0
H8570 H 0.32228 0.5864 0.81037 0.0
H8571 H 0.29593 0.59613 0.82769 0.0
H8572 H 0.28488 0.60742 0.83351 0.0
H8573 H 0.27668 0.61387 0.80575 0.0
H8574 H 0.28779 0.60271 0.79975 0.0
H8575 H 0.29914 0.54778 0.79097 0.0
H8576 H 0.30443 0.55959 0.80178 0.0
H8577 H 0.29152 0.58049 0.7851 0.0
H8578 H 0.28577 0.5686 0.77454 0.0
H8579 H 0.289 0.58443 0.80215 0.0
H8580 H 0.31555 0.57584 0.78453 0.0
H8581 H 0.32689 0.56515 0.77811 0.0
H8582 H 0.33511 0.55732 0.80551 0.0
H8583 H 0.32373 0.56787 0.81209 0.0
C8584 C 0.31571 0.61666 0.81959 0.0
C8585 C 0.32006 0.615 0.82811 0.0
C8586 C 0.31213 0.60935 0.81438 0.0
C8587 C 0.31285 0.60024 0.81757 0.0
C8588 C 0.3173 0.59854 0.826 0.0
C8589 C 0.32082 0.60586 0.83127 0.0
C8590 C 0.30896 0.59251 0.81206 0.0
C8591 C 0.31498 0.58587 0.80868 0.0
C8592 C 0.29949 0.59198 0.80967 0.0
C8593 C 0.29275 0.59864 0.81327 0.0
C8594 C 0.29182 0.60001 0.82282 0.0
C8595 C 0.28554 0.60637 0.82615 0.0
C8596 C 0.28009 0.61138 0.82 0.0
C8597 C 0.28091 0.61 0.81051 0.0
C8598 C 0.28719 0.60364 0.80714 0.0
C8599 C 0.29727 0.55486 0.7897 0.0
C8600 C 0.29188 0.55724 0.78197 0.0
C8601 C 0.3004 0.56164 0.79583 0.0
C8602 C 0.29852 0.57098 0.7942 0.0
C8603 C 0.29306 0.57334 0.78654 0.0
C8604 C 0.28978 0.56655 0.78051 0.0
C8605 C 0.30233 0.57831 0.80034 0.0
C8606 C 0.2963 0.5849 0.80385 0.0
C8607 C 0.31183 0.57887 0.80274 0.0
C8608 C 0.31872 0.57257 0.7988 0.0
C8609 C 0.31974 0.57179 0.78918 0.0
C8610 C 0.32618 0.56576 0.78552 0.0
C8611 C 0.3317 0.56054 0.7914 0.0
C8612 C 0.33082 0.56136 0.80096 0.0
C8613 C 0.32438 0.56736 0.80466 0.0
H8614 H 0.33668 0.55588 0.78855 0.0
H8615 H 0.27524 0.61631 0.8226 0.0
H8616 H 0.38371 0.31237 0.81667 0.0
H8617 H 0.39626 0.30597 0.80756 0.0
H8618 H 0.41593 0.32364 0.82163 0.0
H8619 H 0.40337 0.33008 0.8308 0.0
H8620 H 0.41803 0.32319 0.80197 0.0
H8621 H 0.41531 0.30226 0.82772 0.0
H8622 H 0.40694 0.2919 0.83851 0.0
H8623 H 0.39847 0.27463 0.81595 0.0
H8624 H 0.40669 0.28498 0.805 0.0
H8625 H 0.45666 0.30137 0.78229 0.0
H8626 H 0.44599 0.30798 0.79333 0.0
H8627 H 0.42533 0.28741 0.78611 0.0
H8628 H 0.43621 0.28041 0.77549 0.0
H8629 H 0.42455 0.28978 0.80345 0.0
H8630 H 0.42577 0.31074 0.77754 0.0
H8631 H 0.43331 0.32113 0.76617 0.0
H8632 H 0.4436 0.33828 0.78809 0.0
H8633 H 0.43621 0.32792 0.7996 0.0
C8634 C 0.3907 0.31493 0.81778 0.0
C8635 C 0.39257 0.32172 0.82444 0.0
C8636 C 0.39786 0.31124 0.81262 0.0
C8637 C 0.40702 0.31429 0.81397 0.0
C8638 C 0.40891 0.32118 0.8205 0.0
C8639 C 0.40175 0.32481 0.82576 0.0
C8640 C 0.4146 0.31024 0.80855 0.0
C8641 C 0.41958 0.31592 0.80238 0.0
C8642 C 0.41643 0.30072 0.80895 0.0
C8643 C 0.41155 0.29444 0.81553 0.0
C8644 C 0.41161 0.2963 0.82505 0.0
C8645 C 0.4069 0.29042 0.83119 0.0
C8646 C 0.40216 0.28262 0.82791 0.0
C8647 C 0.40214 0.28068 0.81848 0.0
C8648 C 0.40683 0.28654 0.8123 0.0
C8649 C 0.44991 0.29815 0.78315 0.0
C8650 C 0.44731 0.29028 0.77806 0.0
C8651 C 0.44375 0.30202 0.7894 0.0
C8652 C 0.43476 0.29832 0.79046 0.0
C8653 C 0.43221 0.29041 0.78545 0.0
C8654 C 0.43842 0.28643 0.77936 0.0
C8655 C 0.42794 0.30268 0.79668 0.0
C8656 C 0.42308 0.29707 0.80304 0.0
C8657 C 0.42612 0.31225 0.79634 0.0
C8658 C 0.43052 0.31851 0.78943 0.0
C8659 C 0.42969 0.3167 0.77994 0.0
C8660 C 0.43393 0.32258 0.77347 0.0
C8661 C 0.43895 0.33035 0.77641 0.0
C8662 C 0.43972 0.33226 0.78582 0.0
C8663 C 0.4355 0.32638 0.79232 0.0
H8664 H 0.44223 0.33489 0.77139 0.0
H8665 H 0.39852 0.27808 0.83268 0.0
H8666 H 0.32768 0.38563 0.20317 0.0
H8667 H 0.31859 0.39825 0.20913 0.0
H8668 H 0.31805 0.41075 0.18205 0.0
H8669 H 0.3274 0.39821 0.17605 0.0
H8670 H 0.3215 0.42353 0.1953 0.0
H8671 H 0.29911 0.39972 0.19012 0.0
H8672 H 0.29223 0.38406 0.19094 0.0
H8673 H 0.29124 0.38566 0.2205 0.0
H8674 H 0.29824 0.40129 0.21988 0.0
H8675 H 0.28503 0.45413 0.20862 0.0
H8676 H 0.29417 0.44253 0.20069 0.0
H8677 H 0.29859 0.42848 0.2266 0.0
H8678 H 0.28959 0.44011 0.23456 0.0
H8679 H 0.29252 0.41684 0.21255 0.0
H8680 H 0.31576 0.44063 0.21738 0.0
H8681 H 0.32238 0.45637 0.21618 0.0
H8682 H 0.32124 0.45491 0.1866 0.0
H8683 H 0.31448 0.4392 0.18763 0.0
C8684 C 0.32571 0.3911 0.19848 0.0
C8685 C 0.32828 0.3909 0.18913 0.0
C8686 C 0.32043 0.39827 0.20189 0.0
C8687 C 0.31755 0.4054 0.19602 0.0
C8688 C 0.32017 0.4053 0.1867 0.0
C8689 C 0.32545 0.39809 0.18327 0.0
C8690 C 0.31182 0.41293 0.1997 0.0
C8691 C 0.31508 0.42208 0.19893 0.0
C8692 C 0.30349 0.41105 0.20453 0.0
C8693 C 0.29928 0.40165 0.20495 0.0
C8694 C 0.2975 0.3967 0.19681 0.0
C8695 C 0.29356 0.38784 0.19723 0.0
C8696 C 0.29132 0.38386 0.20577 0.0
C8697 C 0.29299 0.38875 0.21389 0.0
C8698 C 0.29693 0.39762 0.21351 0.0
C8699 C 0.28811 0.44867 0.21264 0.0
C8700 C 0.28679 0.44816 0.22227 0.0
C8701 C 0.29329 0.44204 0.2081 0.0
C8702 C 0.29711 0.43469 0.21307 0.0
C8703 C 0.29573 0.43412 0.22264 0.0
C8704 C 0.29065 0.44079 0.22719 0.0
C8705 C 0.3023 0.42739 0.2083 0.0
C8706 C 0.29891 0.41828 0.20885 0.0
C8707 C 0.31045 0.42934 0.20321 0.0
C8708 C 0.31451 0.43878 0.20258 0.0
C8709 C 0.31684 0.4437 0.21062 0.0
C8710 C 0.32063 0.45261 0.20997 0.0
C8711 C 0.3222 0.45665 0.20132 0.0
C8712 C 0.32 0.45178 0.1933 0.0
C8713 C 0.31619 0.44287 0.19391 0.0
H8714 H 0.32515 0.46355 0.20083 0.0
H8715 H 0.28827 0.377 0.20608 0.0
H8716 H 0.61916 0.30608 0.17956 0.0
H8717 H 0.60667 0.29978 0.18915 0.0
H8718 H 0.59202 0.32526 0.18638 0.0
H8719 H 0.60455 0.33164 0.17677 0.0
H8720 H 0.59162 0.31917 0.20388 0.0
H8721 H 0.5852 0.30613 0.17426 0.0
H8722 H 0.58875 0.29785 0.15993 0.0
H8723 H 0.59511 0.2736 0.17566 0.0
H8724 H 0.59173 0.28177 0.1901 0.0
H8725 H 0.55109 0.29996 0.22474 0.0
H8726 H 0.56159 0.30728 0.21355 0.0
H8727 H 0.57801 0.28278 0.21325 0.0
H8728 H 0.56731 0.27531 0.22413 0.0
H8729 H 0.57642 0.2892 0.19643 0.0
H8730 H 0.58397 0.30259 0.22605 0.0
H8731 H 0.58059 0.31088 0.24042 0.0
H8732 H 0.57219 0.33447 0.22468 0.0
H8733 H 0.57541 0.32627 0.21021 0.0
C8734 C 0.61325 0.31032 0.18091 0.0
C8735 C 0.61282 0.31933 0.17735 0.0
C8736 C 0.60611 0.30671 0.1864 0.0
C8737 C 0.59834 0.312 0.18837 0.0
C8738 C 0.59794 0.32105 0.18493 0.0
C8739 C 0.60511 0.32469 0.17947 0.0
C8740 C 0.5907 0.30807 0.1941 0.0
C8741 C 0.58819 0.31269 0.20217 0.0
C8742 C 0.58631 0.29955 0.19196 0.0
C8743 C 0.58828 0.29459 0.18327 0.0
C8744 C 0.58742 0.29905 0.17467 0.0
C8745 C 0.58939 0.29437 0.16653 0.0
C8746 C 0.59217 0.28521 0.16688 0.0
C8747 C 0.59296 0.2807 0.17539 0.0
C8748 C 0.59101 0.28534 0.18356 0.0
C8749 C 0.55684 0.29608 0.22215 0.0
C8750 C 0.55828 0.28697 0.22517 0.0
C8751 C 0.5629 0.30031 0.21584 0.0
C8752 C 0.57066 0.29562 0.21262 0.0
C8753 C 0.57206 0.28652 0.21559 0.0
C8754 C 0.56595 0.28226 0.2218 0.0
C8755 C 0.57746 0.30019 0.20631 0.0
C8756 C 0.5798 0.29571 0.19811 0.0
C8757 C 0.5817 0.30883 0.20835 0.0
C8758 C 0.57984 0.31378 0.21705 0.0
C8759 C 0.58135 0.30952 0.22566 0.0
C8760 C 0.57947 0.31421 0.23382 0.0
C8761 C 0.57616 0.32319 0.23347 0.0
C8762 C 0.57475 0.32751 0.22495 0.0
C8763 C 0.5766 0.32285 0.21676 0.0
H8764 H 0.57471 0.3268 0.2398 0.0
H8765 H 0.5937 0.2816 0.16057 0.0
H8766 H 0.40151 0.69029 0.16202 0.0
H8767 H 0.41414 0.69667 0.17132 0.0
H8768 H 0.40023 0.6875 0.19615 0.0
H8769 H 0.38739 0.68139 0.18688 0.0
H8770 H 0.40594 0.70478 0.19782 0.0
H8771 H 0.4199 0.67696 0.18861 0.0
H8772 H 0.42488 0.66487 0.17794 0.0
H8773 H 0.44222 0.68455 0.16359 0.0
H8774 H 0.43724 0.6968 0.17409 0.0
H8775 H 0.44432 0.72022 0.22477 0.0
H8776 H 0.43327 0.70927 0.21778 0.0
H8777 H 0.44193 0.7183 0.19066 0.0
H8778 H 0.45293 0.72923 0.19759 0.0
H8779 H 0.43912 0.69927 0.1918 0.0
H8780 H 0.4234 0.72726 0.20003 0.0
H8781 H 0.41848 0.73922 0.21089 0.0
H8782 H 0.40444 0.71866 0.22739 0.0
H8783 H 0.40941 0.70654 0.2167 0.0
C8784 C 0.40113 0.68963 0.16946 0.0
C8785 C 0.39341 0.68537 0.17371 0.0
C8786 C 0.40841 0.69318 0.17477 0.0
C8787 C 0.40819 0.69247 0.18444 0.0
C8788 C 0.40057 0.68809 0.1887 0.0
C8789 C 0.39327 0.68454 0.18339 0.0
C8790 C 0.41564 0.69683 0.19007 0.0
C8791 C 0.41318 0.70341 0.19664 0.0
C8792 C 0.42511 0.69516 0.18845 0.0
C8793 C 0.42813 0.68782 0.1821 0.0
C8794 C 0.42472 0.67873 0.18313 0.0
C8795 C 0.42755 0.67184 0.17712 0.0
C8796 C 0.43385 0.67394 0.17008 0.0
C8797 C 0.43734 0.68293 0.16905 0.0
C8798 C 0.43452 0.68985 0.17503 0.0
C8799 C 0.44395 0.71974 0.21732 0.0
C8800 C 0.44951 0.72554 0.21172 0.0
C8801 C 0.43764 0.71352 0.21334 0.0
C8802 C 0.43676 0.71302 0.2037 0.0
C8803 C 0.44254 0.71855 0.19811 0.0
C8804 C 0.4488 0.7248 0.20207 0.0
C8805 C 0.42938 0.70727 0.19939 0.0
C8806 C 0.43186 0.70048 0.19307 0.0
C8807 C 0.41992 0.7087 0.20127 0.0
C8808 C 0.41686 0.71599 0.20763 0.0
C8809 C 0.41932 0.72528 0.20602 0.0
C8810 C 0.41652 0.73209 0.21213 0.0
C8811 C 0.41118 0.7297 0.21984 0.0
C8812 C 0.4086 0.72049 0.22143 0.0
C8813 C 0.4114 0.71366 0.21535 0.0
H8814 H 0.40901 0.73498 0.22457 0.0
H8815 H 0.43604 0.6686 0.16544 0.0
loop_
_geom_bond_atom_site_label_1
_geom_bond_atom_site_label_2
_geom_bond_distance
_geom_bond_site_symmetry_2
_ccdc_geom_bond_type
C0 C1 1.264 . S
C0 C5 1.479 . S
C0 C10 1.465 . S
C1 C0 1.264 . S
C1 C3 1.339 . S
C1 H28 0.931 . S
C2 C3 1.395 . S
C2 C4 1.320 . S
C3 C1 1.339 . S
C3 C2 1.395 . S
C3 H29 0.929 . S
C4 C2 1.320 . S
C4 C5 1.405 . S
C4 H30 0.930 . S
C5 C0 1.479 . S
C5 C4 1.405 . S
C5 H31 0.931 . S
U6 O7 2.454 . S
U6 O8 2.458 . S
U6 C9 2.984 . S
U6 C10 2.847 . S
U6 C23 2.882 . S
U6 O24 2.441 . S
U6 O25 2.420 . S
U6 O26 2.455 . S
U6 O27 2.449 . S
O7 U6 2.454 . S
O7 C9 1.353 . S
O8 U6 2.458 . S
O8 C9 1.286 . S
C9 U6 2.984 . S
C9 O7 1.353 . S
C9 O8 1.286 . S
C9 C11 1.363 . S
C10 C0 1.465 . S
C10 U6 2.847 . S
C10 O24 1.249 . S
C10 O25 1.202 . S
C11 C9 1.363 . S
C11 C13 1.408 . S
C11 C16 1.342 . S
C12 C13 1.310 . S
C12 C15 1.461 . S
C12 H32 0.932 . S
C13 C11 1.408 . S
C13 C12 1.310 . S
C13 H33 0.930 . S
C14 C15 1.474 . S
C14 C16 1.285 . S
C14 H34 0.929 . S
C15 C12 1.461 . S
C15 C14 1.474 . S
C16 C11 1.342 . S
C16 C14 1.285 . S
C16 H35 0.930 . S
C17 C20 1.424 . S
C17 C22 1.245 . S
C17 C23 1.428 . S
C18 C21 1.260 . S
C18 C22 1.477 . S
C18 H36 0.932 . S
C19 C20 1.384 . S
C19 C21 1.479 . S
C19 H37 0.929 . S
C20 C17 1.424 . S
C20 C19 1.384 . S
C20 H38 0.928 . S
C21 C18 1.260 . S
C21 C19 1.479 . S
C22 C17 1.245 . S
C22 C18 1.477 . S
C22 H39 0.932 . S
C23 U6 2.882 . S
C23 C17 1.428 . S
C23 O26 1.301 . S
C23 O27 1.282 . S
O24 U6 2.441 . S
O24 C10 1.249 . S
O25 U6 2.420 . S
O25 C10 1.202 . S
O26 U6 2.455 . S
O26 C23 1.301 . S
O27 U6 2.449 . S
O27 C23 1.282 . S
H28 C1 0.931 . S
H29 C3 0.929 . S
H30 C4 0.930 . S
H31 C5 0.931 . S
H32 C12 0.932 . S
H33 C13 0.930 . S
H34 C14 0.929 . S
H35 C16 0.930 . S
H36 C18 0.932 . S
H37 C19 0.929 . S
H38 C20 0.928 . S
H39 C22 0.932 . S
C40 C41 1.264 . S
C40 C45 1.479 . S
C40 C50 1.465 . S
C41 C40 1.264 . S
C41 C43 1.339 . S
C41 H68 0.931 . S
C42 C43 1.395 . S
C42 C44 1.320 . S
C43 C41 1.339 . S
C43 C42 1.395 . S
C43 H69 0.929 . S
C44 C42 1.320 . S
C44 C45 1.405 . S
C44 H70 0.930 . S
C45 C40 1.479 . S
C45 C44 1.405 . S
C45 H71 0.931 . S
U46 O47 2.454 . S
U46 O48 2.458 . S
U46 C49 2.984 . S
U46 C50 2.847 . S
U46 C63 2.882 . S
U46 O64 2.441 . S
U46 O65 2.420 . S
U46 O66 2.455 . S
U46 O67 2.449 . S
O47 U46 2.454 . S
O47 C49 1.353 . S
O48 U46 2.458 . S
O48 C49 1.286 . S
C49 U46 2.984 . S
C49 O47 1.353 . S
C49 O48 1.286 . S
C49 C51 1.363 . S
C50 C40 1.465 . S
C50 U46 2.847 . S
C50 O64 1.249 . S
C50 O65 1.202 . S
C51 C49 1.363 . S
C51 C53 1.408 . S
C51 C56 1.342 . S
C52 C53 1.310 . S
C52 C55 1.461 . S
C52 H72 0.932 . S
C53 C51 1.408 . S
C53 C52 1.310 . S
C53 H73 0.930 . S
C54 C55 1.474 . S
C54 C56 1.285 . S
C54 H74 0.929 . S
C55 C52 1.461 . S
C55 C54 1.474 . S
C56 C51 1.342 . S
C56 C54 1.285 . S
C56 H75 0.930 . S
C57 C60 1.424 . S
C57 C62 1.245 . S
C57 C63 1.428 . S
C58 C61 1.260 . S
C58 C62 1.477 . S
C58 H76 0.932 . S
C59 C60 1.384 . S
C59 C61 1.479 . S
C59 H77 0.929 . S
C60 C57 1.424 . S
C60 C59 1.384 . S
C60 H78 0.928 . S
C61 C58 1.260 . S
C61 C59 1.479 . S
C62 C57 1.245 . S
C62 C58 1.477 . S
C62 H79 0.932 . S
C63 U46 2.882 . S
C63 C57 1.428 . S
C63 O66 1.301 . S
C63 O67 1.282 . S
O64 U46 2.441 . S
O64 C50 1.249 . S
O65 U46 2.420 . S
O65 C50 1.202 . S
O66 U46 2.455 . S
O66 C63 1.301 . S
O67 U46 2.449 . S
O67 C63 1.282 . S
H68 C41 0.931 . S
H69 C43 0.929 . S
H70 C44 0.930 . S
H71 C45 0.931 . S
H72 C52 0.932 . S
H73 C53 0.930 . S
H74 C54 0.929 . S
H75 C56 0.930 . S
H76 C58 0.932 . S
H77 C59 0.929 . S
H78 C60 0.928 . S
H79 C62 0.932 . S
C80 C81 1.264 . S
C80 C85 1.479 . S
C80 C90 1.465 . S
C81 C80 1.264 . S
C81 C83 1.339 . S
C81 H108 0.931 . S
C82 C83 1.395 . S
C82 C84 1.320 . S
C83 C81 1.339 . S
C83 C82 1.395 . S
C83 H109 0.929 . S
C84 C82 1.320 . S
C84 C85 1.405 . S
C84 H110 0.930 . S
C85 C80 1.479 . S
C85 C84 1.405 . S
C85 H111 0.931 . S
U86 O87 2.454 . S
U86 O88 2.458 . S
U86 C89 2.984 . S
U86 C90 2.847 . S
U86 C103 2.882 . S
U86 O104 2.441 . S
U86 O105 2.420 . S
U86 O106 2.455 . S
U86 O107 2.449 . S
O87 U86 2.454 . S
O87 C89 1.353 . S
O88 U86 2.458 . S
O88 C89 1.286 . S
C89 U86 2.984 . S
C89 O87 1.353 . S
C89 O88 1.286 . S
C89 C91 1.363 . S
C90 C80 1.465 . S
C90 U86 2.847 . S
C90 O104 1.249 . S
C90 O105 1.202 . S
C91 C89 1.363 . S
C91 C93 1.408 . S
C91 C96 1.342 . S
C92 C93 1.310 . S
C92 C95 1.461 . S
C92 H112 0.932 . S
C93 C91 1.408 . S
C93 C92 1.310 . S
C93 H113 0.930 . S
C94 C95 1.474 . S
C94 C96 1.285 . S
C94 H114 0.929 . S
C95 C92 1.461 . S
C95 C94 1.474 . S
C96 C91 1.342 . S
C96 C94 1.285 . S
C96 H115 0.930 . S
C97 C100 1.424 . S
C97 C102 1.245 . S
C97 C103 1.428 . S
C98 C101 1.260 . S
C98 C102 1.477 . S
C98 H116 0.932 . S
C99 C100 1.384 . S
C99 C101 1.479 . S
C99 H117 0.929 . S
C100 C97 1.424 . S
C100 C99 1.384 . S
C100 H118 0.928 . S
C101 C98 1.260 . S
C101 C99 1.479 . S
C102 C97 1.245 . S
C102 C98 1.477 . S
C102 H119 0.932 . S
C103 U86 2.882 . S
C103 C97 1.428 . S
C103 O106 1.301 . S
C103 O107 1.282 . S
O104 U86 2.441 . S
O104 C90 1.249 . S
O105 U86 2.420 . S
O105 C90 1.202 . S
O106 U86 2.455 . S
O106 C103 1.301 . S
O107 U86 2.449 . S
O107 C103 1.282 . S
H108 C81 0.931 . S
H109 C83 0.929 . S
H110 C84 0.930 . S
H111 C85 0.931 . S
H112 C92 0.932 . S
H113 C93 0.930 . S
H114 C94 0.929 . S
H115 C96 0.930 . S
H116 C98 0.932 . S
H117 C99 0.929 . S
H118 C100 0.928 . S
H119 C102 0.932 . S
C120 C121 1.264 . S
C120 C125 1.479 . S
C120 C130 1.465 . S
C121 C120 1.264 . S
C121 C123 1.339 . S
C121 H148 0.931 . S
C122 C123 1.395 . S
C122 C124 1.320 . S
C123 C121 1.339 . S
C123 C122 1.395 . S
C123 H149 0.929 . S
C124 C122 1.320 . S
C124 C125 1.405 . S
C124 H150 0.930 . S
C125 C120 1.479 . S
C125 C124 1.405 . S
C125 H151 0.931 . S
U126 O127 2.454 . S
U126 O128 2.458 . S
U126 C129 2.984 . S
U126 C130 2.847 . S
U126 C143 2.882 . S
U126 O144 2.441 . S
U126 O145 2.420 . S
U126 O146 2.455 . S
U126 O147 2.449 . S
O127 U126 2.454 . S
O127 C129 1.353 . S
O128 U126 2.458 . S
O128 C129 1.286 . S
C129 U126 2.984 . S
C129 O127 1.353 . S
C129 O128 1.286 . S
C129 C131 1.363 . S
C130 C120 1.465 . S
C130 U126 2.847 . S
C130 O144 1.249 . S
C130 O145 1.202 . S
C131 C129 1.363 . S
C131 C133 1.408 . S
C131 C136 1.342 . S
C132 C133 1.310 . S
C132 C135 1.461 . S
C132 H152 0.932 . S
C133 C131 1.408 . S
C133 C132 1.310 . S
C133 H153 0.930 . S
C134 C135 1.474 . S
C134 C136 1.285 . S
C134 H154 0.929 . S
C135 C132 1.461 . S
C135 C134 1.474 . S
C136 C131 1.342 . S
C136 C134 1.285 . S
C136 H155 0.930 . S
C137 C140 1.424 . S
C137 C142 1.245 . S
C137 C143 1.428 . S
C138 C141 1.260 . S
C138 C142 1.477 . S
C138 H156 0.932 . S
C139 C140 1.384 . S
C139 C141 1.479 . S
C139 H157 0.929 . S
C140 C137 1.424 . S
C140 C139 1.384 . S
C140 H158 0.928 . S
C141 C138 1.260 . S
C141 C139 1.479 . S
C142 C137 1.245 . S
C142 C138 1.477 . S
C142 H159 0.932 . S
C143 U126 2.882 . S
C143 C137 1.428 . S
C143 O146 1.301 . S
C143 O147 1.282 . S
O144 U126 2.441 . S
O144 C130 1.249 . S
O145 U126 2.420 . S
O145 C130 1.202 . S
O146 U126 2.455 . S
O146 C143 1.301 . S
O147 U126 2.449 . S
O147 C143 1.282 . S
H148 C121 0.931 . S
H149 C123 0.929 . S
H150 C124 0.930 . S
H151 C125 0.931 . S
H152 C132 0.932 . S
H153 C133 0.930 . S
H154 C134 0.929 . S
H155 C136 0.930 . S
H156 C138 0.932 . S
H157 C139 0.929 . S
H158 C140 0.928 . S
H159 C142 0.932 . S
C160 C161 1.264 . S
C160 C165 1.479 . S
C160 C170 1.465 . S
C161 C160 1.264 . S
C161 C163 1.339 . S
C161 H188 0.931 . S
C162 C163 1.395 . S
C162 C164 1.320 . S
C163 C161 1.339 . S
C163 C162 1.395 . S
C163 H189 0.929 . S
C164 C162 1.320 . S
C164 C165 1.405 . S
C164 H190 0.930 . S
C165 C160 1.479 . S
C165 C164 1.405 . S
C165 H191 0.931 . S
U166 O167 2.454 . S
U166 O168 2.458 . S
U166 C169 2.984 . S
U166 C170 2.847 . S
U166 C183 2.882 . S
U166 O184 2.441 . S
U166 O185 2.420 . S
U166 O186 2.455 . S
U166 O187 2.449 . S
O167 U166 2.454 . S
O167 C169 1.353 . S
O168 U166 2.458 . S
O168 C169 1.286 . S
C169 U166 2.984 . S
C169 O167 1.353 . S
C169 O168 1.286 . S
C169 C171 1.363 . S
C170 C160 1.465 . S
C170 U166 2.847 . S
C170 O184 1.249 . S
C170 O185 1.202 . S
C171 C169 1.363 . S
C171 C173 1.408 . S
C171 C176 1.342 . S
C172 C173 1.310 . S
C172 C175 1.461 . S
C172 H192 0.932 . S
C173 C171 1.408 . S
C173 C172 1.310 . S
C173 H193 0.930 . S
C174 C175 1.474 . S
C174 C176 1.285 . S
C174 H194 0.929 . S
C175 C172 1.461 . S
C175 C174 1.474 . S
C176 C171 1.342 . S
C176 C174 1.285 . S
C176 H195 0.930 . S
C177 C180 1.424 . S
C177 C182 1.245 . S
C177 C183 1.428 . S
C178 C181 1.260 . S
C178 C182 1.477 . S
C178 H196 0.932 . S
C179 C180 1.384 . S
C179 C181 1.479 . S
C179 H197 0.929 . S
C180 C177 1.424 . S
C180 C179 1.384 . S
C180 H198 0.928 . S
C181 C178 1.260 . S
C181 C179 1.479 . S
C182 C177 1.245 . S
C182 C178 1.477 . S
C182 H199 0.932 . S
C183 U166 2.882 . S
C183 C177 1.428 . S
C183 O186 1.301 . S
C183 O187 1.282 . S
O184 U166 2.441 . S
O184 C170 1.249 . S
O185 U166 2.420 . S
O185 C170 1.202 . S
O186 U166 2.455 . S
O186 C183 1.301 . S
O187 U166 2.449 . S
O187 C183 1.282 . S
H188 C161 0.931 . S
H189 C163 0.929 . S
H190 C164 0.930 . S
H191 C165 0.931 . S
H192 C172 0.932 . S
H193 C173 0.930 . S
H194 C174 0.929 . S
H195 C176 0.930 . S
H196 C178 0.932 . S
H197 C179 0.929 . S
H198 C180 0.928 . S
H199 C182 0.932 . S
C200 C201 1.264 . S
C200 C205 1.479 . S
C200 C210 1.465 . S
C201 C200 1.264 . S
C201 C203 1.339 . S
C201 H228 0.931 . S
C202 C203 1.395 . S
C202 C204 1.320 . S
C203 C201 1.339 . S
C203 C202 1.395 . S
C203 H229 0.929 . S
C204 C202 1.320 . S
C204 C205 1.405 . S
C204 H230 0.930 . S
C205 C200 1.479 . S
C205 C204 1.405 . S
C205 H231 0.931 . S
U206 O207 2.454 . S
U206 O208 2.458 . S
U206 C209 2.984 . S
U206 C210 2.847 . S
U206 C223 2.882 . S
U206 O224 2.441 . S
U206 O225 2.420 . S
U206 O226 2.455 . S
U206 O227 2.449 . S
O207 U206 2.454 . S
O207 C209 1.353 . S
O208 U206 2.458 . S
O208 C209 1.286 . S
C209 U206 2.984 . S
C209 O207 1.353 . S
C209 O208 1.286 . S
C209 C211 1.363 . S
C210 C200 1.465 . S
C210 U206 2.847 . S
C210 O224 1.249 . S
C210 O225 1.202 . S
C211 C209 1.363 . S
C211 C213 1.408 . S
C211 C216 1.342 . S
C212 C213 1.310 . S
C212 C215 1.461 . S
C212 H232 0.932 . S
C213 C211 1.408 . S
C213 C212 1.310 . S
C213 H233 0.930 . S
C214 C215 1.474 . S
C214 C216 1.285 . S
C214 H234 0.929 . S
C215 C212 1.461 . S
C215 C214 1.474 . S
C216 C211 1.342 . S
C216 C214 1.285 . S
C216 H235 0.930 . S
C217 C220 1.424 . S
C217 C222 1.245 . S
C217 C223 1.428 . S
C218 C221 1.260 . S
C218 C222 1.477 . S
C218 H236 0.932 . S
C219 C220 1.384 . S
C219 C221 1.479 . S
C219 H237 0.929 . S
C220 C217 1.424 . S
C220 C219 1.384 . S
C220 H238 0.928 . S
C221 C218 1.260 . S
C221 C219 1.479 . S
C222 C217 1.245 . S
C222 C218 1.477 . S
C222 H239 0.932 . S
C223 U206 2.882 . S
C223 C217 1.428 . S
C223 O226 1.301 . S
C223 O227 1.282 . S
O224 U206 2.441 . S
O224 C210 1.249 . S
O225 U206 2.420 . S
O225 C210 1.202 . S
O226 U206 2.455 . S
O226 C223 1.301 . S
O227 U206 2.449 . S
O227 C223 1.282 . S
H228 C201 0.931 . S
H229 C203 0.929 . S
H230 C204 0.930 . S
H231 C205 0.931 . S
H232 C212 0.932 . S
H233 C213 0.930 . S
H234 C214 0.929 . S
H235 C216 0.930 . S
H236 C218 0.932 . S
H237 C219 0.929 . S
H238 C220 0.928 . S
H239 C222 0.932 . S
C240 C241 1.264 . S
C240 C245 1.479 . S
C240 C250 1.465 . S
C241 C240 1.264 . S
C241 C243 1.339 . S
C241 H268 0.931 . S
C242 C243 1.395 . S
C242 C244 1.320 . S
C243 C241 1.339 . S
C243 C242 1.395 . S
C243 H269 0.929 . S
C244 C242 1.320 . S
C244 C245 1.405 . S
C244 H270 0.930 . S
C245 C240 1.479 . S
C245 C244 1.405 . S
C245 H271 0.931 . S
U246 O247 2.454 . S
U246 O248 2.458 . S
U246 C249 2.984 . S
U246 C250 2.847 . S
U246 C263 2.882 . S
U246 O264 2.441 . S
U246 O265 2.420 . S
U246 O266 2.455 . S
U246 O267 2.449 . S
O247 U246 2.454 . S
O247 C249 1.353 . S
O248 U246 2.458 . S
O248 C249 1.286 . S
C249 U246 2.984 . S
C249 O247 1.353 . S
C249 O248 1.286 . S
C249 C251 1.363 . S
C250 C240 1.465 . S
C250 U246 2.847 . S
C250 O264 1.249 . S
C250 O265 1.202 . S
C251 C249 1.363 . S
C251 C253 1.408 . S
C251 C256 1.342 . S
C252 C253 1.310 . S
C252 C255 1.461 . S
C252 H272 0.932 . S
C253 C251 1.408 . S
C253 C252 1.310 . S
C253 H273 0.930 . S
C254 C255 1.474 . S
C254 C256 1.285 . S
C254 H274 0.929 . S
C255 C252 1.461 . S
C255 C254 1.474 . S
C256 C251 1.342 . S
C256 C254 1.285 . S
C256 H275 0.930 . S
C257 C260 1.424 . S
C257 C262 1.245 . S
C257 C263 1.428 . S
C258 C261 1.260 . S
C258 C262 1.477 . S
C258 H276 0.932 . S
C259 C260 1.384 . S
C259 C261 1.479 . S
C259 H277 0.929 . S
C260 C257 1.424 . S
C260 C259 1.384 . S
C260 H278 0.928 . S
C261 C258 1.260 . S
C261 C259 1.479 . S
C262 C257 1.245 . S
C262 C258 1.477 . S
C262 H279 0.932 . S
C263 U246 2.882 . S
C263 C257 1.428 . S
C263 O266 1.301 . S
C263 O267 1.282 . S
O264 U246 2.441 . S
O264 C250 1.249 . S
O265 U246 2.420 . S
O265 C250 1.202 . S
O266 U246 2.455 . S
O266 C263 1.301 . S
O267 U246 2.449 . S
O267 C263 1.282 . S
H268 C241 0.931 . S
H269 C243 0.929 . S
H270 C244 0.930 . S
H271 C245 0.931 . S
H272 C252 0.932 . S
H273 C253 0.930 . S
H274 C254 0.929 . S
H275 C256 0.930 . S
H276 C258 0.932 . S
H277 C259 0.929 . S
H278 C260 0.928 . S
H279 C262 0.932 . S
C280 C281 1.264 . S
C280 C285 1.479 . S
C280 C290 1.465 . S
C281 C280 1.264 . S
C281 C283 1.339 . S
C281 H308 0.931 . S
C282 C283 1.395 . S
C282 C284 1.320 . S
C283 C281 1.339 . S
C283 C282 1.395 . S
C283 H309 0.929 . S
C284 C282 1.320 . S
C284 C285 1.405 . S
C284 H310 0.930 . S
C285 C280 1.479 . S
C285 C284 1.405 . S
C285 H311 0.931 . S
U286 O287 2.454 . S
U286 O288 2.458 . S
U286 C289 2.984 . S
U286 C290 2.847 . S
U286 C303 2.882 . S
U286 O304 2.441 . S
U286 O305 2.420 . S
U286 O306 2.455 . S
U286 O307 2.449 . S
O287 U286 2.454 . S
O287 C289 1.353 . S
O288 U286 2.458 . S
O288 C289 1.286 . S
C289 U286 2.984 . S
C289 O287 1.353 . S
C289 O288 1.286 . S
C289 C291 1.363 . S
C290 C280 1.465 . S
C290 U286 2.847 . S
C290 O304 1.249 . S
C290 O305 1.202 . S
C291 C289 1.363 . S
C291 C293 1.408 . S
C291 C296 1.342 . S
C292 C293 1.310 . S
C292 C295 1.461 . S
C292 H312 0.932 . S
C293 C291 1.408 . S
C293 C292 1.310 . S
C293 H313 0.930 . S
C294 C295 1.474 . S
C294 C296 1.285 . S
C294 H314 0.929 . S
C295 C292 1.461 . S
C295 C294 1.474 . S
C296 C291 1.342 . S
C296 C294 1.285 . S
C296 H315 0.930 . S
C297 C300 1.424 . S
C297 C302 1.245 . S
C297 C303 1.428 . S
C298 C301 1.260 . S
C298 C302 1.477 . S
C298 H316 0.932 . S
C299 C300 1.384 . S
C299 C301 1.479 . S
C299 H317 0.929 . S
C300 C297 1.424 . S
C300 C299 1.384 . S
C300 H318 0.928 . S
C301 C298 1.260 . S
C301 C299 1.479 . S
C302 C297 1.245 . S
C302 C298 1.477 . S
C302 H319 0.932 . S
C303 U286 2.882 . S
C303 C297 1.428 . S
C303 O306 1.301 . S
C303 O307 1.282 . S
O304 U286 2.441 . S
O304 C290 1.249 . S
O305 U286 2.420 . S
O305 C290 1.202 . S
O306 U286 2.455 . S
O306 C303 1.301 . S
O307 U286 2.449 . S
O307 C303 1.282 . S
H308 C281 0.931 . S
H309 C283 0.929 . S
H310 C284 0.930 . S
H311 C285 0.931 . S
H312 C292 0.932 . S
H313 C293 0.930 . S
H314 C294 0.929 . S
H315 C296 0.930 . S
H316 C298 0.932 . S
H317 C299 0.929 . S
H318 C300 0.928 . S
H319 C302 0.932 . S
C320 C321 1.264 . S
C320 C325 1.479 . S
C320 C330 1.465 . S
C321 C320 1.264 . S
C321 C323 1.339 . S
C321 H348 0.931 . S
C322 C323 1.395 . S
C322 C324 1.320 . S
C323 C321 1.339 . S
C323 C322 1.395 . S
C323 H349 0.929 . S
C324 C322 1.320 . S
C324 C325 1.405 . S
C324 H350 0.930 . S
C325 C320 1.479 . S
C325 C324 1.405 . S
C325 H351 0.931 . S
U326 O327 2.454 . S
U326 O328 2.458 . S
U326 C329 2.984 . S
U326 C330 2.847 . S
U326 C343 2.882 . S
U326 O344 2.441 . S
U326 O345 2.420 . S
U326 O346 2.455 . S
U326 O347 2.449 . S
O327 U326 2.454 . S
O327 C329 1.353 . S
O328 U326 2.458 . S
O328 C329 1.286 . S
C329 U326 2.984 . S
C329 O327 1.353 . S
C329 O328 1.286 . S
C329 C331 1.363 . S
C330 C320 1.465 . S
C330 U326 2.847 . S
C330 O344 1.249 . S
C330 O345 1.202 . S
C331 C329 1.363 . S
C331 C333 1.408 . S
C331 C336 1.342 . S
C332 C333 1.310 . S
C332 C335 1.461 . S
C332 H352 0.932 . S
C333 C331 1.408 . S
C333 C332 1.310 . S
C333 H353 0.930 . S
C334 C335 1.474 . S
C334 C336 1.285 . S
C334 H354 0.929 . S
C335 C332 1.461 . S
C335 C334 1.474 . S
C336 C331 1.342 . S
C336 C334 1.285 . S
C336 H355 0.930 . S
C337 C340 1.424 . S
C337 C342 1.245 . S
C337 C343 1.428 . S
C338 C341 1.260 . S
C338 C342 1.477 . S
C338 H356 0.932 . S
C339 C340 1.384 . S
C339 C341 1.479 . S
C339 H357 0.929 . S
C340 C337 1.424 . S
C340 C339 1.384 . S
C340 H358 0.928 . S
C341 C338 1.260 . S
C341 C339 1.479 . S
C342 C337 1.245 . S
C342 C338 1.477 . S
C342 H359 0.932 . S
C343 U326 2.882 . S
C343 C337 1.428 . S
C343 O346 1.301 . S
C343 O347 1.282 . S
O344 U326 2.441 . S
O344 C330 1.249 . S
O345 U326 2.420 . S
O345 C330 1.202 . S
O346 U326 2.455 . S
O346 C343 1.301 . S
O347 U326 2.449 . S
O347 C343 1.282 . S
H348 C321 0.931 . S
H349 C323 0.929 . S
H350 C324 0.930 . S
H351 C325 0.931 . S
H352 C332 0.932 . S
H353 C333 0.930 . S
H354 C334 0.929 . S
H355 C336 0.930 . S
H356 C338 0.932 . S
H357 C339 0.929 . S
H358 C340 0.928 . S
H359 C342 0.932 . S
C360 C361 1.264 . S
C360 C365 1.479 . S
C360 C370 1.465 . S
C361 C360 1.264 . S
C361 C363 1.339 . S
C361 H388 0.931 . S
C362 C363 1.395 . S
C362 C364 1.320 . S
C363 C361 1.339 . S
C363 C362 1.395 . S
C363 H389 0.929 . S
C364 C362 1.320 . S
C364 C365 1.405 . S
C364 H390 0.930 . S
C365 C360 1.479 . S
C365 C364 1.405 . S
C365 H391 0.931 . S
U366 O367 2.454 . S
U366 O368 2.458 . S
U366 C369 2.984 . S
U366 C370 2.847 . S
U366 C383 2.882 . S
U366 O384 2.441 . S
U366 O385 2.420 . S
U366 O386 2.455 . S
U366 O387 2.449 . S
O367 U366 2.454 . S
O367 C369 1.353 . S
O368 U366 2.458 . S
O368 C369 1.286 . S
C369 U366 2.984 . S
C369 O367 1.353 . S
C369 O368 1.286 . S
C369 C371 1.363 . S
C370 C360 1.465 . S
C370 U366 2.847 . S
C370 O384 1.249 . S
C370 O385 1.202 . S
C371 C369 1.363 . S
C371 C373 1.408 . S
C371 C376 1.342 . S
C372 C373 1.310 . S
C372 C375 1.461 . S
C372 H392 0.932 . S
C373 C371 1.408 . S
C373 C372 1.310 . S
C373 H393 0.930 . S
C374 C375 1.474 . S
C374 C376 1.285 . S
C374 H394 0.929 . S
C375 C372 1.461 . S
C375 C374 1.474 . S
C376 C371 1.342 . S
C376 C374 1.285 . S
C376 H395 0.930 . S
C377 C380 1.424 . S
C377 C382 1.245 . S
C377 C383 1.428 . S
C378 C381 1.260 . S
C378 C382 1.477 . S
C378 H396 0.932 . S
C379 C380 1.384 . S
C379 C381 1.479 . S
C379 H397 0.929 . S
C380 C377 1.424 . S
C380 C379 1.384 . S
C380 H398 0.928 . S
C381 C378 1.260 . S
C381 C379 1.479 . S
C382 C377 1.245 . S
C382 C378 1.477 . S
C382 H399 0.932 . S
C383 U366 2.882 . S
C383 C377 1.428 . S
C383 O386 1.301 . S
C383 O387 1.282 . S
O384 U366 2.441 . S
O384 C370 1.249 . S
O385 U366 2.420 . S
O385 C370 1.202 . S
O386 U366 2.455 . S
O386 C383 1.301 . S
O387 U366 2.449 . S
O387 C383 1.282 . S
H388 C361 0.931 . S
H389 C363 0.929 . S
H390 C364 0.930 . S
H391 C365 0.931 . S
H392 C372 0.932 . S
H393 C373 0.930 . S
H394 C374 0.929 . S
H395 C376 0.930 . S
H396 C378 0.932 . S
H397 C379 0.929 . S
H398 C380 0.928 . S
H399 C382 0.932 . S
C400 C401 1.264 . S
C400 C405 1.479 . S
C400 C410 1.465 . S
C401 C400 1.264 . S
C401 C403 1.339 . S
C401 H428 0.931 . S
C402 C403 1.395 . S
C402 C404 1.320 . S
C403 C401 1.339 . S
C403 C402 1.395 . S
C403 H429 0.929 . S
C404 C402 1.320 . S
C404 C405 1.405 . S
C404 H430 0.930 . S
C405 C400 1.479 . S
C405 C404 1.405 . S
C405 H431 0.931 . S
U406 O407 2.454 . S
U406 O408 2.458 . S
U406 C409 2.984 . S
U406 C410 2.847 . S
U406 C423 2.882 . S
U406 O424 2.441 . S
U406 O425 2.420 . S
U406 O426 2.455 . S
U406 O427 2.449 . S
O407 U406 2.454 . S
O407 C409 1.353 . S
O408 U406 2.458 . S
O408 C409 1.286 . S
C409 U406 2.984 . S
C409 O407 1.353 . S
C409 O408 1.286 . S
C409 C411 1.363 . S
C410 C400 1.465 . S
C410 U406 2.847 . S
C410 O424 1.249 . S
C410 O425 1.202 . S
C411 C409 1.363 . S
C411 C413 1.408 . S
C411 C416 1.342 . S
C412 C413 1.310 . S
C412 C415 1.461 . S
C412 H432 0.932 . S
C413 C411 1.408 . S
C413 C412 1.310 . S
C413 H433 0.930 . S
C414 C415 1.474 . S
C414 C416 1.285 . S
C414 H434 0.929 . S
C415 C412 1.461 . S
C415 C414 1.474 . S
C416 C411 1.342 . S
C416 C414 1.285 . S
C416 H435 0.930 . S
C417 C420 1.424 . S
C417 C422 1.245 . S
C417 C423 1.428 . S
C418 C421 1.260 . S
C418 C422 1.477 . S
C418 H436 0.932 . S
C419 C420 1.384 . S
C419 C421 1.479 . S
C419 H437 0.929 . S
C420 C417 1.424 . S
C420 C419 1.384 . S
C420 H438 0.928 . S
C421 C418 1.260 . S
C421 C419 1.479 . S
C422 C417 1.245 . S
C422 C418 1.477 . S
C422 H439 0.932 . S
C423 U406 2.882 . S
C423 C417 1.428 . S
C423 O426 1.301 . S
C423 O427 1.282 . S
O424 U406 2.441 . S
O424 C410 1.249 . S
O425 U406 2.420 . S
O425 C410 1.202 . S
O426 U406 2.455 . S
O426 C423 1.301 . S
O427 U406 2.449 . S
O427 C423 1.282 . S
H428 C401 0.931 . S
H429 C403 0.929 . S
H430 C404 0.930 . S
H431 C405 0.931 . S
H432 C412 0.932 . S
H433 C413 0.930 . S
H434 C414 0.929 . S
H435 C416 0.930 . S
H436 C418 0.932 . S
H437 C419 0.929 . S
H438 C420 0.928 . S
H439 C422 0.932 . S
C440 C441 1.264 . S
C440 C445 1.479 . S
C440 C450 1.465 . S
C441 C440 1.264 . S
C441 C443 1.339 . S
C441 H468 0.931 . S
C442 C443 1.395 . S
C442 C444 1.320 . S
C443 C441 1.339 . S
C443 C442 1.395 . S
C443 H469 0.929 . S
C444 C442 1.320 . S
C444 C445 1.405 . S
C444 H470 0.930 . S
C445 C440 1.479 . S
C445 C444 1.405 . S
C445 H471 0.931 . S
U446 O447 2.454 . S
U446 O448 2.458 . S
U446 C449 2.984 . S
U446 C450 2.847 . S
U446 C463 2.882 . S
U446 O464 2.441 . S
U446 O465 2.420 . S
U446 O466 2.455 . S
U446 O467 2.449 . S
O447 U446 2.454 . S
O447 C449 1.353 . S
O448 U446 2.458 . S
O448 C449 1.286 . S
C449 U446 2.984 . S
C449 O447 1.353 . S
C449 O448 1.286 . S
C449 C451 1.363 . S
C450 C440 1.465 . S
C450 U446 2.847 . S
C450 O464 1.249 . S
C450 O465 1.202 . S
C451 C449 1.363 . S
C451 C453 1.408 . S
C451 C456 1.342 . S
C452 C453 1.310 . S
C452 C455 1.461 . S
C452 H472 0.932 . S
C453 C451 1.408 . S
C453 C452 1.310 . S
C453 H473 0.930 . S
C454 C455 1.474 . S
C454 C456 1.285 . S
C454 H474 0.929 . S
C455 C452 1.461 . S
C455 C454 1.474 . S
C456 C451 1.342 . S
C456 C454 1.285 . S
C456 H475 0.930 . S
C457 C460 1.424 . S
C457 C462 1.245 . S
C457 C463 1.428 . S
C458 C461 1.260 . S
C458 C462 1.477 . S
C458 H476 0.932 . S
C459 C460 1.384 . S
C459 C461 1.479 . S
C459 H477 0.929 . S
C460 C457 1.424 . S
C460 C459 1.384 . S
C460 H478 0.928 . S
C461 C458 1.260 . S
C461 C459 1.479 . S
C462 C457 1.245 . S
C462 C458 1.477 . S
C462 H479 0.932 . S
C463 U446 2.882 . S
C463 C457 1.428 . S
C463 O466 1.301 . S
C463 O467 1.282 . S
O464 U446 2.441 . S
O464 C450 1.249 . S
O465 U446 2.420 . S
O465 C450 1.202 . S
O466 U446 2.455 . S
O466 C463 1.301 . S
O467 U446 2.449 . S
O467 C463 1.282 . S
H468 C441 0.931 . S
H469 C443 0.929 . S
H470 C444 0.930 . S
H471 C445 0.931 . S
H472 C452 0.932 . S
H473 C453 0.930 . S
H474 C454 0.929 . S
H475 C456 0.930 . S
H476 C458 0.932 . S
H477 C459 0.929 . S
H478 C460 0.928 . S
H479 C462 0.932 . S
C480 C481 1.264 . S
C480 C485 1.479 . S
C480 C490 1.465 . S
C481 C480 1.264 . S
C481 C483 1.339 . S
C481 H508 0.931 . S
C482 C483 1.395 . S
C482 C484 1.320 . S
C483 C481 1.339 . S
C483 C482 1.395 . S
C483 H509 0.929 . S
C484 C482 1.320 . S
C484 C485 1.405 . S
C484 H510 0.930 . S
C485 C480 1.479 . S
C485 C484 1.405 . S
C485 H511 0.931 . S
U486 O487 2.454 . S
U486 O488 2.458 . S
U486 C489 2.984 . S
U486 C490 2.847 . S
U486 C503 2.882 . S
U486 O504 2.441 . S
U486 O505 2.420 . S
U486 O506 2.455 . S
U486 O507 2.449 . S
O487 U486 2.454 . S
O487 C489 1.353 . S
O488 U486 2.458 . S
O488 C489 1.286 . S
C489 U486 2.984 . S
C489 O487 1.353 . S
C489 O488 1.286 . S
C489 C491 1.363 . S
C490 C480 1.465 . S
C490 U486 2.847 . S
C490 O504 1.249 . S
C490 O505 1.202 . S
C491 C489 1.363 . S
C491 C493 1.408 . S
C491 C496 1.342 . S
C492 C493 1.310 . S
C492 C495 1.461 . S
C492 H512 0.932 . S
C493 C491 1.408 . S
C493 C492 1.310 . S
C493 H513 0.930 . S
C494 C495 1.474 . S
C494 C496 1.285 . S
C494 H514 0.929 . S
C495 C492 1.461 . S
C495 C494 1.474 . S
C496 C491 1.342 . S
C496 C494 1.285 . S
C496 H515 0.930 . S
C497 C500 1.424 . S
C497 C502 1.245 . S
C497 C503 1.428 . S
C498 C501 1.260 . S
C498 C502 1.477 . S
C498 H516 0.932 . S
C499 C500 1.384 . S
C499 C501 1.479 . S
C499 H517 0.929 . S
C500 C497 1.424 . S
C500 C499 1.384 . S
C500 H518 0.928 . S
C501 C498 1.260 . S
C501 C499 1.479 . S
C502 C497 1.245 . S
C502 C498 1.477 . S
C502 H519 0.932 . S
C503 U486 2.882 . S
C503 C497 1.428 . S
C503 O506 1.301 . S
C503 O507 1.282 . S
O504 U486 2.441 . S
O504 C490 1.249 . S
O505 U486 2.420 . S
O505 C490 1.202 . S
O506 U486 2.455 . S
O506 C503 1.301 . S
O507 U486 2.449 . S
O507 C503 1.282 . S
H508 C481 0.931 . S
H509 C483 0.929 . S
H510 C484 0.930 . S
H511 C485 0.931 . S
H512 C492 0.932 . S
H513 C493 0.930 . S
H514 C494 0.929 . S
H515 C496 0.930 . S
H516 C498 0.932 . S
H517 C499 0.929 . S
H518 C500 0.928 . S
H519 C502 0.932 . S
C520 C521 1.264 . S
C520 C525 1.479 . S
C520 C530 1.465 . S
C521 C520 1.264 . S
C521 C523 1.339 . S
C521 H548 0.931 . S
C522 C523 1.395 . S
C522 C524 1.320 . S
C523 C521 1.339 . S
C523 C522 1.395 . S
C523 H549 0.929 . S
C524 C522 1.320 . S
C524 C525 1.405 . S
C524 H550 0.930 . S
C525 C520 1.479 . S
C525 C524 1.405 . S
C525 H551 0.931 . S
U526 O527 2.454 . S
U526 O528 2.458 . S
U526 C529 2.984 . S
U526 C530 2.847 . S
U526 C543 2.882 . S
U526 O544 2.441 . S
U526 O545 2.420 . S
U526 O546 2.455 . S
U526 O547 2.449 . S
O527 U526 2.454 . S
O527 C529 1.353 . S
O528 U526 2.458 . S
O528 C529 1.286 . S
C529 U526 2.984 . S
C529 O527 1.353 . S
C529 O528 1.286 . S
C529 C531 1.363 . S
C530 C520 1.465 . S
C530 U526 2.847 . S
C530 O544 1.249 . S
C530 O545 1.202 . S
C531 C529 1.363 . S
C531 C533 1.408 . S
C531 C536 1.342 . S
C532 C533 1.310 . S
C532 C535 1.461 . S
C532 H552 0.932 . S
C533 C531 1.408 . S
C533 C532 1.310 . S
C533 H553 0.930 . S
C534 C535 1.474 . S
C534 C536 1.285 . S
C534 H554 0.929 . S
C535 C532 1.461 . S
C535 C534 1.474 . S
C536 C531 1.342 . S
C536 C534 1.285 . S
C536 H555 0.930 . S
C537 C540 1.424 . S
C537 C542 1.245 . S
C537 C543 1.428 . S
C538 C541 1.260 . S
C538 C542 1.477 . S
C538 H556 0.932 . S
C539 C540 1.384 . S
C539 C541 1.479 . S
C539 H557 0.929 . S
C540 C537 1.424 . S
C540 C539 1.384 . S
C540 H558 0.928 . S
C541 C538 1.260 . S
C541 C539 1.479 . S
C542 C537 1.245 . S
C542 C538 1.477 . S
C542 H559 0.932 . S
C543 U526 2.882 . S
C543 C537 1.428 . S
C543 O546 1.301 . S
C543 O547 1.282 . S
O544 U526 2.441 . S
O544 C530 1.249 . S
O545 U526 2.420 . S
O545 C530 1.202 . S
O546 U526 2.455 . S
O546 C543 1.301 . S
O547 U526 2.449 . S
O547 C543 1.282 . S
H548 C521 0.931 . S
H549 C523 0.929 . S
H550 C524 0.930 . S
H551 C525 0.931 . S
H552 C532 0.932 . S
H553 C533 0.930 . S
H554 C534 0.929 . S
H555 C536 0.930 . S
H556 C538 0.932 . S
H557 C539 0.929 . S
H558 C540 0.928 . S
H559 C542 0.932 . S
C560 C561 1.264 . S
C560 C565 1.479 . S
C560 C570 1.465 . S
C561 C560 1.264 . S
C561 C563 1.339 . S
C561 H588 0.931 . S
C562 C563 1.395 . S
C562 C564 1.320 . S
C563 C561 1.339 . S
C563 C562 1.395 . S
C563 H589 0.929 . S
C564 C562 1.320 . S
C564 C565 1.405 . S
C564 H590 0.930 . S
C565 C560 1.479 . S
C565 C564 1.405 . S
C565 H591 0.931 . S
U566 O567 2.454 . S
U566 O568 2.458 . S
U566 C569 2.984 . S
U566 C570 2.847 . S
U566 C583 2.882 . S
U566 O584 2.441 . S
U566 O585 2.420 . S
U566 O586 2.455 . S
U566 O587 2.449 . S
O567 U566 2.454 . S
O567 C569 1.353 . S
O568 U566 2.458 . S
O568 C569 1.286 . S
C569 U566 2.984 . S
C569 O567 1.353 . S
C569 O568 1.286 . S
C569 C571 1.363 . S
C570 C560 1.465 . S
C570 U566 2.847 . S
C570 O584 1.249 . S
C570 O585 1.202 . S
C571 C569 1.363 . S
C571 C573 1.408 . S
C571 C576 1.342 . S
C572 C573 1.310 . S
C572 C575 1.461 . S
C572 H592 0.932 . S
C573 C571 1.408 . S
C573 C572 1.310 . S
C573 H593 0.930 . S
C574 C575 1.474 . S
C574 C576 1.285 . S
C574 H594 0.929 . S
C575 C572 1.461 . S
C575 C574 1.474 . S
C576 C571 1.342 . S
C576 C574 1.285 . S
C576 H595 0.930 . S
C577 C580 1.424 . S
C577 C582 1.245 . S
C577 C583 1.428 . S
C578 C581 1.260 . S
C578 C582 1.477 . S
C578 H596 0.932 . S
C579 C580 1.384 . S
C579 C581 1.479 . S
C579 H597 0.929 . S
C580 C577 1.424 . S
C580 C579 1.384 . S
C580 H598 0.928 . S
C581 C578 1.260 . S
C581 C579 1.479 . S
C582 C577 1.245 . S
C582 C578 1.477 . S
C582 H599 0.932 . S
C583 U566 2.882 . S
C583 C577 1.428 . S
C583 O586 1.301 . S
C583 O587 1.282 . S
O584 U566 2.441 . S
O584 C570 1.249 . S
O585 U566 2.420 . S
O585 C570 1.202 . S
O586 U566 2.455 . S
O586 C583 1.301 . S
O587 U566 2.449 . S
O587 C583 1.282 . S
H588 C561 0.931 . S
H589 C563 0.929 . S
H590 C564 0.930 . S
H591 C565 0.931 . S
H592 C572 0.932 . S
H593 C573 0.930 . S
H594 C574 0.929 . S
H595 C576 0.930 . S
H596 C578 0.932 . S
H597 C579 0.929 . S
H598 C580 0.928 . S
H599 C582 0.932 . S
C600 C601 1.264 . S
C600 C605 1.479 . S
C600 C610 1.465 . S
C601 C600 1.264 . S
C601 C603 1.339 . S
C601 H628 0.931 . S
C602 C603 1.395 . S
C602 C604 1.320 . S
C603 C601 1.339 . S
C603 C602 1.395 . S
C603 H629 0.929 . S
C604 C602 1.320 . S
C604 C605 1.405 . S
C604 H630 0.930 . S
C605 C600 1.479 . S
C605 C604 1.405 . S
C605 H631 0.931 . S
U606 O607 2.454 . S
U606 O608 2.458 . S
U606 C609 2.984 . S
U606 C610 2.847 . S
U606 C623 2.882 . S
U606 O624 2.441 . S
U606 O625 2.420 . S
U606 O626 2.455 . S
U606 O627 2.449 . S
O607 U606 2.454 . S
O607 C609 1.353 . S
O608 U606 2.458 . S
O608 C609 1.286 . S
C609 U606 2.984 . S
C609 O607 1.353 . S
C609 O608 1.286 . S
C609 C611 1.363 . S
C610 C600 1.465 . S
C610 U606 2.847 . S
C610 O624 1.249 . S
C610 O625 1.202 . S
C611 C609 1.363 . S
C611 C613 1.408 . S
C611 C616 1.342 . S
C612 C613 1.310 . S
C612 C615 1.461 . S
C612 H632 0.932 . S
C613 C611 1.408 . S
C613 C612 1.310 . S
C613 H633 0.930 . S
C614 C615 1.474 . S
C614 C616 1.285 . S
C614 H634 0.929 . S
C615 C612 1.461 . S
C615 C614 1.474 . S
C616 C611 1.342 . S
C616 C614 1.285 . S
C616 H635 0.930 . S
C617 C620 1.424 . S
C617 C622 1.245 . S
C617 C623 1.428 . S
C618 C621 1.260 . S
C618 C622 1.477 . S
C618 H636 0.932 . S
C619 C620 1.384 . S
C619 C621 1.479 . S
C619 H637 0.929 . S
C620 C617 1.424 . S
C620 C619 1.384 . S
C620 H638 0.928 . S
C621 C618 1.260 . S
C621 C619 1.479 . S
C622 C617 1.245 . S
C622 C618 1.477 . S
C622 H639 0.932 . S
C623 U606 2.882 . S
C623 C617 1.428 . S
C623 O626 1.301 . S
C623 O627 1.282 . S
O624 U606 2.441 . S
O624 C610 1.249 . S
O625 U606 2.420 . S
O625 C610 1.202 . S
O626 U606 2.455 . S
O626 C623 1.301 . S
O627 U606 2.449 . S
O627 C623 1.282 . S
H628 C601 0.931 . S
H629 C603 0.929 . S
H630 C604 0.930 . S
H631 C605 0.931 . S
H632 C612 0.932 . S
H633 C613 0.930 . S
H634 C614 0.929 . S
H635 C616 0.930 . S
H636 C618 0.932 . S
H637 C619 0.929 . S
H638 C620 0.928 . S
H639 C622 0.932 . S
C640 C641 1.264 . S
C640 C645 1.479 . S
C640 C650 1.465 . S
C641 C640 1.264 . S
C641 C643 1.339 . S
C641 H668 0.931 . S
C642 C643 1.395 . S
C642 C644 1.320 . S
C643 C641 1.339 . S
C643 C642 1.395 . S
C643 H669 0.929 . S
C644 C642 1.320 . S
C644 C645 1.405 . S
C644 H670 0.930 . S
C645 C640 1.479 . S
C645 C644 1.405 . S
C645 H671 0.931 . S
U646 O647 2.454 . S
U646 O648 2.458 . S
U646 C649 2.984 . S
U646 C650 2.847 . S
U646 C663 2.882 . S
U646 O664 2.441 . S
U646 O665 2.420 . S
U646 O666 2.455 . S
U646 O667 2.449 . S
O647 U646 2.454 . S
O647 C649 1.353 . S
O648 U646 2.458 . S
O648 C649 1.286 . S
C649 U646 2.984 . S
C649 O647 1.353 . S
C649 O648 1.286 . S
C649 C651 1.363 . S
C650 C640 1.465 . S
C650 U646 2.847 . S
C650 O664 1.249 . S
C650 O665 1.202 . S
C651 C649 1.363 . S
C651 C653 1.408 . S
C651 C656 1.342 . S
C652 C653 1.310 . S
C652 C655 1.461 . S
C652 H672 0.932 . S
C653 C651 1.408 . S
C653 C652 1.310 . S
C653 H673 0.930 . S
C654 C655 1.474 . S
C654 C656 1.285 . S
C654 H674 0.929 . S
C655 C652 1.461 . S
C655 C654 1.474 . S
C656 C651 1.342 . S
C656 C654 1.285 . S
C656 H675 0.930 . S
C657 C660 1.424 . S
C657 C662 1.245 . S
C657 C663 1.428 . S
C658 C661 1.260 . S
C658 C662 1.477 . S
C658 H676 0.932 . S
C659 C660 1.384 . S
C659 C661 1.479 . S
C659 H677 0.929 . S
C660 C657 1.424 . S
C660 C659 1.384 . S
C660 H678 0.928 . S
C661 C658 1.260 . S
C661 C659 1.479 . S
C662 C657 1.245 . S
C662 C658 1.477 . S
C662 H679 0.932 . S
C663 U646 2.882 . S
C663 C657 1.428 . S
C663 O666 1.301 . S
C663 O667 1.282 . S
O664 U646 2.441 . S
O664 C650 1.249 . S
O665 U646 2.420 . S
O665 C650 1.202 . S
O666 U646 2.455 . S
O666 C663 1.301 . S
O667 U646 2.449 . S
O667 C663 1.282 . S
H668 C641 0.931 . S
H669 C643 0.929 . S
H670 C644 0.930 . S
H671 C645 0.931 . S
H672 C652 0.932 . S
H673 C653 0.930 . S
H674 C654 0.929 . S
H675 C656 0.930 . S
H676 C658 0.932 . S
H677 C659 0.929 . S
H678 C660 0.928 . S
H679 C662 0.932 . S
C680 C681 1.264 . S
C680 C685 1.479 . S
C680 C690 1.465 . S
C681 C680 1.264 . S
C681 C683 1.339 . S
C681 H708 0.931 . S
C682 C683 1.395 . S
C682 C684 1.320 . S
C683 C681 1.339 . S
C683 C682 1.395 . S
C683 H709 0.929 . S
C684 C682 1.320 . S
C684 C685 1.405 . S
C684 H710 0.930 . S
C685 C680 1.479 . S
C685 C684 1.405 . S
C685 H711 0.931 . S
U686 O687 2.454 . S
U686 O688 2.458 . S
U686 C689 2.984 . S
U686 C690 2.847 . S
U686 C703 2.882 . S
U686 O704 2.441 . S
U686 O705 2.420 . S
U686 O706 2.455 . S
U686 O707 2.449 . S
O687 U686 2.454 . S
O687 C689 1.353 . S
O688 U686 2.458 . S
O688 C689 1.286 . S
C689 U686 2.984 . S
C689 O687 1.353 . S
C689 O688 1.286 . S
C689 C691 1.363 . S
C690 C680 1.465 . S
C690 U686 2.847 . S
C690 O704 1.249 . S
C690 O705 1.202 . S
C691 C689 1.363 . S
C691 C693 1.408 . S
C691 C696 1.342 . S
C692 C693 1.310 . S
C692 C695 1.461 . S
C692 H712 0.932 . S
C693 C691 1.408 . S
C693 C692 1.310 . S
C693 H713 0.930 . S
C694 C695 1.474 . S
C694 C696 1.285 . S
C694 H714 0.929 . S
C695 C692 1.461 . S
C695 C694 1.474 . S
C696 C691 1.342 . S
C696 C694 1.285 . S
C696 H715 0.930 . S
C697 C700 1.424 . S
C697 C702 1.245 . S
C697 C703 1.428 . S
C698 C701 1.260 . S
C698 C702 1.477 . S
C698 H716 0.932 . S
C699 C700 1.384 . S
C699 C701 1.479 . S
C699 H717 0.929 . S
C700 C697 1.424 . S
C700 C699 1.384 . S
C700 H718 0.928 . S
C701 C698 1.260 . S
C701 C699 1.479 . S
C702 C697 1.245 . S
C702 C698 1.477 . S
C702 H719 0.932 . S
C703 U686 2.882 . S
C703 C697 1.428 . S
C703 O706 1.301 . S
C703 O707 1.282 . S
O704 U686 2.441 . S
O704 C690 1.249 . S
O705 U686 2.420 . S
O705 C690 1.202 . S
O706 U686 2.455 . S
O706 C703 1.301 . S
O707 U686 2.449 . S
O707 C703 1.282 . S
H708 C681 0.931 . S
H709 C683 0.929 . S
H710 C684 0.930 . S
H711 C685 0.931 . S
H712 C692 0.932 . S
H713 C693 0.930 . S
H714 C694 0.929 . S
H715 C696 0.930 . S
H716 C698 0.932 . S
H717 C699 0.929 . S
H718 C700 0.928 . S
H719 C702 0.932 . S
C720 C721 1.264 . S
C720 C725 1.479 . S
C720 C730 1.465 . S
C721 C720 1.264 . S
C721 C723 1.339 . S
C721 H748 0.931 . S
C722 C723 1.395 . S
C722 C724 1.320 . S
C723 C721 1.339 . S
C723 C722 1.395 . S
C723 H749 0.929 . S
C724 C722 1.320 . S
C724 C725 1.405 . S
C724 H750 0.930 . S
C725 C720 1.479 . S
C725 C724 1.405 . S
C725 H751 0.931 . S
U726 O727 2.454 . S
U726 O728 2.458 . S
U726 C729 2.984 . S
U726 C730 2.847 . S
U726 C743 2.882 . S
U726 O744 2.441 . S
U726 O745 2.420 . S
U726 O746 2.455 . S
U726 O747 2.449 . S
O727 U726 2.454 . S
O727 C729 1.353 . S
O728 U726 2.458 . S
O728 C729 1.286 . S
C729 U726 2.984 . S
C729 O727 1.353 . S
C729 O728 1.286 . S
C729 C731 1.363 . S
C730 C720 1.465 . S
C730 U726 2.847 . S
C730 O744 1.249 . S
C730 O745 1.202 . S
C731 C729 1.363 . S
C731 C733 1.408 . S
C731 C736 1.342 . S
C732 C733 1.310 . S
C732 C735 1.461 . S
C732 H752 0.932 . S
C733 C731 1.408 . S
C733 C732 1.310 . S
C733 H753 0.930 . S
C734 C735 1.474 . S
C734 C736 1.285 . S
C734 H754 0.929 . S
C735 C732 1.461 . S
C735 C734 1.474 . S
C736 C731 1.342 . S
C736 C734 1.285 . S
C736 H755 0.930 . S
C737 C740 1.424 . S
C737 C742 1.245 . S
C737 C743 1.428 . S
C738 C741 1.260 . S
C738 C742 1.477 . S
C738 H756 0.932 . S
C739 C740 1.384 . S
C739 C741 1.479 . S
C739 H757 0.929 . S
C740 C737 1.424 . S
C740 C739 1.384 . S
C740 H758 0.928 . S
C741 C738 1.260 . S
C741 C739 1.479 . S
C742 C737 1.245 . S
C742 C738 1.477 . S
C742 H759 0.932 . S
C743 U726 2.882 . S
C743 C737 1.428 . S
C743 O746 1.301 . S
C743 O747 1.282 . S
O744 U726 2.441 . S
O744 C730 1.249 . S
O745 U726 2.420 . S
O745 C730 1.202 . S
O746 U726 2.455 . S
O746 C743 1.301 . S
O747 U726 2.449 . S
O747 C743 1.282 . S
H748 C721 0.931 . S
H749 C723 0.929 . S
H750 C724 0.930 . S
H751 C725 0.931 . S
H752 C732 0.932 . S
H753 C733 0.930 . S
H754 C734 0.929 . S
H755 C736 0.930 . S
H756 C738 0.932 . S
H757 C739 0.929 . S
H758 C740 0.928 . S
H759 C742 0.932 . S
C760 C761 1.264 . S
C760 C765 1.479 . S
C760 C770 1.465 . S
C761 C760 1.264 . S
C761 C763 1.339 . S
C761 H788 0.931 . S
C762 C763 1.395 . S
C762 C764 1.320 . S
C763 C761 1.339 . S
C763 C762 1.395 . S
C763 H789 0.929 . S
C764 C762 1.320 . S
C764 C765 1.405 . S
C764 H790 0.930 . S
C765 C760 1.479 . S
C765 C764 1.405 . S
C765 H791 0.931 . S
U766 O767 2.454 . S
U766 O768 2.458 . S
U766 C769 2.984 . S
U766 C770 2.847 . S
U766 C783 2.882 . S
U766 O784 2.441 . S
U766 O785 2.420 . S
U766 O786 2.455 . S
U766 O787 2.449 . S
O767 U766 2.454 . S
O767 C769 1.353 . S
O768 U766 2.458 . S
O768 C769 1.286 . S
C769 U766 2.984 . S
C769 O767 1.353 . S
C769 O768 1.286 . S
C769 C771 1.363 . S
C770 C760 1.465 . S
C770 U766 2.847 . S
C770 O784 1.249 . S
C770 O785 1.202 . S
C771 C769 1.363 . S
C771 C773 1.408 . S
C771 C776 1.342 . S
C772 C773 1.310 . S
C772 C775 1.461 . S
C772 H792 0.932 . S
C773 C771 1.408 . S
C773 C772 1.310 . S
C773 H793 0.930 . S
C774 C775 1.474 . S
C774 C776 1.285 . S
C774 H794 0.929 . S
C775 C772 1.461 . S
C775 C774 1.474 . S
C776 C771 1.342 . S
C776 C774 1.285 . S
C776 H795 0.930 . S
C777 C780 1.424 . S
C777 C782 1.245 . S
C777 C783 1.428 . S
C778 C781 1.260 . S
C778 C782 1.477 . S
C778 H796 0.932 . S
C779 C780 1.384 . S
C779 C781 1.479 . S
C779 H797 0.929 . S
C780 C777 1.424 . S
C780 C779 1.384 . S
C780 H798 0.928 . S
C781 C778 1.260 . S
C781 C779 1.479 . S
C782 C777 1.245 . S
C782 C778 1.477 . S
C782 H799 0.932 . S
C783 U766 2.882 . S
C783 C777 1.428 . S
C783 O786 1.301 . S
C783 O787 1.282 . S
O784 U766 2.441 . S
O784 C770 1.249 . S
O785 U766 2.420 . S
O785 C770 1.202 . S
O786 U766 2.455 . S
O786 C783 1.301 . S
O787 U766 2.449 . S
O787 C783 1.282 . S
H788 C761 0.931 . S
H789 C763 0.929 . S
H790 C764 0.930 . S
H791 C765 0.931 . S
H792 C772 0.932 . S
H793 C773 0.930 . S
H794 C774 0.929 . S
H795 C776 0.930 . S
H796 C778 0.932 . S
H797 C779 0.929 . S
H798 C780 0.928 . S
H799 C782 0.932 . S
C800 C801 1.264 . S
C800 C805 1.479 . S
C800 C810 1.465 . S
C801 C800 1.264 . S
C801 C803 1.339 . S
C801 H828 0.931 . S
C802 C803 1.395 . S
C802 C804 1.320 . S
C803 C801 1.339 . S
C803 C802 1.395 . S
C803 H829 0.929 . S
C804 C802 1.320 . S
C804 C805 1.405 . S
C804 H830 0.930 . S
C805 C800 1.479 . S
C805 C804 1.405 . S
C805 H831 0.931 . S
U806 O807 2.454 . S
U806 O808 2.458 . S
U806 C809 2.984 . S
U806 C810 2.847 . S
U806 C823 2.882 . S
U806 O824 2.441 . S
U806 O825 2.420 . S
U806 O826 2.455 . S
U806 O827 2.449 . S
O807 U806 2.454 . S
O807 C809 1.353 . S
O808 U806 2.458 . S
O808 C809 1.286 . S
C809 U806 2.984 . S
C809 O807 1.353 . S
C809 O808 1.286 . S
C809 C811 1.363 . S
C810 C800 1.465 . S
C810 U806 2.847 . S
C810 O824 1.249 . S
C810 O825 1.202 . S
C811 C809 1.363 . S
C811 C813 1.408 . S
C811 C816 1.342 . S
C812 C813 1.310 . S
C812 C815 1.461 . S
C812 H832 0.932 . S
C813 C811 1.408 . S
C813 C812 1.310 . S
C813 H833 0.930 . S
C814 C815 1.474 . S
C814 C816 1.285 . S
C814 H834 0.929 . S
C815 C812 1.461 . S
C815 C814 1.474 . S
C816 C811 1.342 . S
C816 C814 1.285 . S
C816 H835 0.930 . S
C817 C820 1.424 . S
C817 C822 1.245 . S
C817 C823 1.428 . S
C818 C821 1.260 . S
C818 C822 1.477 . S
C818 H836 0.932 . S
C819 C820 1.384 . S
C819 C821 1.479 . S
C819 H837 0.929 . S
C820 C817 1.424 . S
C820 C819 1.384 . S
C820 H838 0.928 . S
C821 C818 1.260 . S
C821 C819 1.479 . S
C822 C817 1.245 . S
C822 C818 1.477 . S
C822 H839 0.932 . S
C823 U806 2.882 . S
C823 C817 1.428 . S
C823 O826 1.301 . S
C823 O827 1.282 . S
O824 U806 2.441 . S
O824 C810 1.249 . S
O825 U806 2.420 . S
O825 C810 1.202 . S
O826 U806 2.455 . S
O826 C823 1.301 . S
O827 U806 2.449 . S
O827 C823 1.282 . S
H828 C801 0.931 . S
H829 C803 0.929 . S
H830 C804 0.930 . S
H831 C805 0.931 . S
H832 C812 0.932 . S
H833 C813 0.930 . S
H834 C814 0.929 . S
H835 C816 0.930 . S
H836 C818 0.932 . S
H837 C819 0.929 . S
H838 C820 0.928 . S
H839 C822 0.932 . S
C840 C841 1.264 . S
C840 C845 1.479 . S
C840 C850 1.465 . S
C841 C840 1.264 . S
C841 C843 1.339 . S
C841 H868 0.931 . S
C842 C843 1.395 . S
C842 C844 1.320 . S
C843 C841 1.339 . S
C843 C842 1.395 . S
C843 H869 0.929 . S
C844 C842 1.320 . S
C844 C845 1.405 . S
C844 H870 0.930 . S
C845 C840 1.479 . S
C845 C844 1.405 . S
C845 H871 0.931 . S
U846 O847 2.454 . S
U846 O848 2.458 . S
U846 C849 2.984 . S
U846 C850 2.847 . S
U846 C863 2.882 . S
U846 O864 2.441 . S
U846 O865 2.420 . S
U846 O866 2.455 . S
U846 O867 2.449 . S
O847 U846 2.454 . S
O847 C849 1.353 . S
O848 U846 2.458 . S
O848 C849 1.286 . S
C849 U846 2.984 . S
C849 O847 1.353 . S
C849 O848 1.286 . S
C849 C851 1.363 . S
C850 C840 1.465 . S
C850 U846 2.847 . S
C850 O864 1.249 . S
C850 O865 1.202 . S
C851 C849 1.363 . S
C851 C853 1.408 . S
C851 C856 1.342 . S
C852 C853 1.310 . S
C852 C855 1.461 . S
C852 H872 0.932 . S
C853 C851 1.408 . S
C853 C852 1.310 . S
C853 H873 0.930 . S
C854 C855 1.474 . S
C854 C856 1.285 . S
C854 H874 0.929 . S
C855 C852 1.461 . S
C855 C854 1.474 . S
C856 C851 1.342 . S
C856 C854 1.285 . S
C856 H875 0.930 . S
C857 C860 1.424 . S
C857 C862 1.245 . S
C857 C863 1.428 . S
C858 C861 1.260 . S
C858 C862 1.477 . S
C858 H876 0.932 . S
C859 C860 1.384 . S
C859 C861 1.479 . S
C859 H877 0.929 . S
C860 C857 1.424 . S
C860 C859 1.384 . S
C860 H878 0.928 . S
C861 C858 1.260 . S
C861 C859 1.479 . S
C862 C857 1.245 . S
C862 C858 1.477 . S
C862 H879 0.932 . S
C863 U846 2.882 . S
C863 C857 1.428 . S
C863 O866 1.301 . S
C863 O867 1.282 . S
O864 U846 2.441 . S
O864 C850 1.249 . S
O865 U846 2.420 . S
O865 C850 1.202 . S
O866 U846 2.455 . S
O866 C863 1.301 . S
O867 U846 2.449 . S
O867 C863 1.282 . S
H868 C841 0.931 . S
H869 C843 0.929 . S
H870 C844 0.930 . S
H871 C845 0.931 . S
H872 C852 0.932 . S
H873 C853 0.930 . S
H874 C854 0.929 . S
H875 C856 0.930 . S
H876 C858 0.932 . S
H877 C859 0.929 . S
H878 C860 0.928 . S
H879 C862 0.932 . S
C880 C881 1.264 . S
C880 C885 1.479 . S
C880 C890 1.465 . S
C881 C880 1.264 . S
C881 C883 1.339 . S
C881 H908 0.931 . S
C882 C883 1.395 . S
C882 C884 1.320 . S
C883 C881 1.339 . S
C883 C882 1.395 . S
C883 H909 0.929 . S
C884 C882 1.320 . S
C884 C885 1.405 . S
C884 H910 0.930 . S
C885 C880 1.479 . S
C885 C884 1.405 . S
C885 H911 0.931 . S
U886 O887 2.454 . S
U886 O888 2.458 . S
U886 C889 2.984 . S
U886 C890 2.847 . S
U886 C903 2.882 . S
U886 O904 2.441 . S
U886 O905 2.420 . S
U886 O906 2.455 . S
U886 O907 2.449 . S
O887 U886 2.454 . S
O887 C889 1.353 . S
O888 U886 2.458 . S
O888 C889 1.286 . S
C889 U886 2.984 . S
C889 O887 1.353 . S
C889 O888 1.286 . S
C889 C891 1.363 . S
C890 C880 1.465 . S
C890 U886 2.847 . S
C890 O904 1.249 . S
C890 O905 1.202 . S
C891 C889 1.363 . S
C891 C893 1.408 . S
C891 C896 1.342 . S
C892 C893 1.310 . S
C892 C895 1.461 . S
C892 H912 0.932 . S
C893 C891 1.408 . S
C893 C892 1.310 . S
C893 H913 0.930 . S
C894 C895 1.474 . S
C894 C896 1.285 . S
C894 H914 0.929 . S
C895 C892 1.461 . S
C895 C894 1.474 . S
C896 C891 1.342 . S
C896 C894 1.285 . S
C896 H915 0.930 . S
C897 C900 1.424 . S
C897 C902 1.245 . S
C897 C903 1.428 . S
C898 C901 1.260 . S
C898 C902 1.477 . S
C898 H916 0.932 . S
C899 C900 1.384 . S
C899 C901 1.479 . S
C899 H917 0.929 . S
C900 C897 1.424 . S
C900 C899 1.384 . S
C900 H918 0.928 . S
C901 C898 1.260 . S
C901 C899 1.479 . S
C902 C897 1.245 . S
C902 C898 1.477 . S
C902 H919 0.932 . S
C903 U886 2.882 . S
C903 C897 1.428 . S
C903 O906 1.301 . S
C903 O907 1.282 . S
O904 U886 2.441 . S
O904 C890 1.249 . S
O905 U886 2.420 . S
O905 C890 1.202 . S
O906 U886 2.455 . S
O906 C903 1.301 . S
O907 U886 2.449 . S
O907 C903 1.282 . S
H908 C881 0.931 . S
H909 C883 0.929 . S
H910 C884 0.930 . S
H911 C885 0.931 . S
H912 C892 0.932 . S
H913 C893 0.930 . S
H914 C894 0.929 . S
H915 C896 0.930 . S
H916 C898 0.932 . S
H917 C899 0.929 . S
H918 C900 0.928 . S
H919 C902 0.932 . S
C920 C921 1.264 . S
C920 C925 1.479 . S
C920 C930 1.465 . S
C921 C920 1.264 . S
C921 C923 1.339 . S
C921 H948 0.931 . S
C922 C923 1.395 . S
C922 C924 1.320 . S
C923 C921 1.339 . S
C923 C922 1.395 . S
C923 H949 0.929 . S
C924 C922 1.320 . S
C924 C925 1.405 . S
C924 H950 0.930 . S
C925 C920 1.479 . S
C925 C924 1.405 . S
C925 H951 0.931 . S
U926 O927 2.454 . S
U926 O928 2.458 . S
U926 C929 2.984 . S
U926 C930 2.847 . S
U926 C943 2.882 . S
U926 O944 2.441 . S
U926 O945 2.420 . S
U926 O946 2.455 . S
U926 O947 2.449 . S
O927 U926 2.454 . S
O927 C929 1.353 . S
O928 U926 2.458 . S
O928 C929 1.286 . S
C929 U926 2.984 . S
C929 O927 1.353 . S
C929 O928 1.286 . S
C929 C931 1.363 . S
C930 C920 1.465 . S
C930 U926 2.847 . S
C930 O944 1.249 . S
C930 O945 1.202 . S
C931 C929 1.363 . S
C931 C933 1.408 . S
C931 C936 1.342 . S
C932 C933 1.310 . S
C932 C935 1.461 . S
C932 H952 0.932 . S
C933 C931 1.408 . S
C933 C932 1.310 . S
C933 H953 0.930 . S
C934 C935 1.474 . S
C934 C936 1.285 . S
C934 H954 0.929 . S
C935 C932 1.461 . S
C935 C934 1.474 . S
C936 C931 1.342 . S
C936 C934 1.285 . S
C936 H955 0.930 . S
C937 C940 1.424 . S
C937 C942 1.245 . S
C937 C943 1.428 . S
C938 C941 1.260 . S
C938 C942 1.477 . S
C938 H956 0.932 . S
C939 C940 1.384 . S
C939 C941 1.479 . S
C939 H957 0.929 . S
C940 C937 1.424 . S
C940 C939 1.384 . S
C940 H958 0.928 . S
C941 C938 1.260 . S
C941 C939 1.479 . S
C942 C937 1.245 . S
C942 C938 1.477 . S
C942 H959 0.932 . S
C943 U926 2.882 . S
C943 C937 1.428 . S
C943 O946 1.301 . S
C943 O947 1.282 . S
O944 U926 2.441 . S
O944 C930 1.249 . S
O945 U926 2.420 . S
O945 C930 1.202 . S
O946 U926 2.455 . S
O946 C943 1.301 . S
O947 U926 2.449 . S
O947 C943 1.282 . S
H948 C921 0.931 . S
H949 C923 0.929 . S
H950 C924 0.930 . S
H951 C925 0.931 . S
H952 C932 0.932 . S
H953 C933 0.930 . S
H954 C934 0.929 . S
H955 C936 0.930 . S
H956 C938 0.932 . S
H957 C939 0.929 . S
H958 C940 0.928 . S
H959 C942 0.932 . S
C960 C961 1.264 . S
C960 C965 1.479 . S
C960 C970 1.465 . S
C961 C960 1.264 . S
C961 C963 1.339 . S
C961 H988 0.931 . S
C962 C963 1.395 . S
C962 C964 1.320 . S
C963 C961 1.339 . S
C963 C962 1.395 . S
C963 H989 0.929 . S
C964 C962 1.320 . S
C964 C965 1.405 . S
C964 H990 0.930 . S
C965 C960 1.479 . S
C965 C964 1.405 . S
C965 H991 0.931 . S
U966 O967 2.454 . S
U966 O968 2.458 . S
U966 C969 2.984 . S
U966 C970 2.847 . S
U966 C983 2.882 . S
U966 O984 2.441 . S
U966 O985 2.420 . S
U966 O986 2.455 . S
U966 O987 2.449 . S
O967 U966 2.454 . S
O967 C969 1.353 . S
O968 U966 2.458 . S
O968 C969 1.286 . S
C969 U966 2.984 . S
C969 O967 1.353 . S
C969 O968 1.286 . S
C969 C971 1.363 . S
C970 C960 1.465 . S
C970 U966 2.847 . S
C970 O984 1.249 . S
C970 O985 1.202 . S
C971 C969 1.363 . S
C971 C973 1.408 . S
C971 C976 1.342 . S
C972 C973 1.310 . S
C972 C975 1.461 . S
C972 H992 0.932 . S
C973 C971 1.408 . S
C973 C972 1.310 . S
C973 H993 0.930 . S
C974 C975 1.474 . S
C974 C976 1.285 . S
C974 H994 0.929 . S
C975 C972 1.461 . S
C975 C974 1.474 . S
C976 C971 1.342 . S
C976 C974 1.285 . S
C976 H995 0.930 . S
C977 C980 1.424 . S
C977 C982 1.245 . S
C977 C983 1.428 . S
C978 C981 1.260 . S
C978 C982 1.477 . S
C978 H996 0.932 . S
C979 C980 1.384 . S
C979 C981 1.479 . S
C979 H997 0.929 . S
C980 C977 1.424 . S
C980 C979 1.384 . S
C980 H998 0.928 . S
C981 C978 1.260 . S
C981 C979 1.479 . S
C982 C977 1.245 . S
C982 C978 1.477 . S
C982 H999 0.932 . S
C983 U966 2.882 . S
C983 C977 1.428 . S
C983 O986 1.301 . S
C983 O987 1.282 . S
O984 U966 2.441 . S
O984 C970 1.249 . S
O985 U966 2.420 . S
O985 C970 1.202 . S
O986 U966 2.455 . S
O986 C983 1.301 . S
O987 U966 2.449 . S
O987 C983 1.282 . S
H988 C961 0.931 . S
H989 C963 0.929 . S
H990 C964 0.930 . S
H991 C965 0.931 . S
H992 C972 0.932 . S
H993 C973 0.930 . S
H994 C974 0.929 . S
H995 C976 0.930 . S
H996 C978 0.932 . S
H997 C979 0.929 . S
H998 C980 0.928 . S
H999 C982 0.932 . S
C1000 C1001 1.264 . S
C1000 C1005 1.479 . S
C1000 C1010 1.465 . S
C1001 C1000 1.264 . S
C1001 C1003 1.339 . S
C1001 H1028 0.931 . S
C1002 C1003 1.395 . S
C1002 C1004 1.320 . S
C1003 C1001 1.339 . S
C1003 C1002 1.395 . S
C1003 H1029 0.929 . S
C1004 C1002 1.320 . S
C1004 C1005 1.405 . S
C1004 H1030 0.930 . S
C1005 C1000 1.479 . S
C1005 C1004 1.405 . S
C1005 H1031 0.931 . S
U1006 O1007 2.454 . S
U1006 O1008 2.458 . S
U1006 C1009 2.984 . S
U1006 C1010 2.847 . S
U1006 C1023 2.882 . S
U1006 O1024 2.441 . S
U1006 O1025 2.420 . S
U1006 O1026 2.455 . S
U1006 O1027 2.449 . S
O1007 U1006 2.454 . S
O1007 C1009 1.353 . S
O1008 U1006 2.458 . S
O1008 C1009 1.286 . S
C1009 U1006 2.984 . S
C1009 O1007 1.353 . S
C1009 O1008 1.286 . S
C1009 C1011 1.363 . S
C1010 C1000 1.465 . S
C1010 U1006 2.847 . S
C1010 O1024 1.249 . S
C1010 O1025 1.202 . S
C1011 C1009 1.363 . S
C1011 C1013 1.408 . S
C1011 C1016 1.342 . S
C1012 C1013 1.310 . S
C1012 C1015 1.461 . S
C1012 H1032 0.932 . S
C1013 C1011 1.408 . S
C1013 C1012 1.310 . S
C1013 H1033 0.930 . S
C1014 C1015 1.474 . S
C1014 C1016 1.285 . S
C1014 H1034 0.929 . S
C1015 C1012 1.461 . S
C1015 C1014 1.474 . S
C1016 C1011 1.342 . S
C1016 C1014 1.285 . S
C1016 H1035 0.930 . S
C1017 C1020 1.424 . S
C1017 C1022 1.245 . S
C1017 C1023 1.428 . S
C1018 C1021 1.260 . S
C1018 C1022 1.477 . S
C1018 H1036 0.932 . S
C1019 C1020 1.384 . S
C1019 C1021 1.479 . S
C1019 H1037 0.929 . S
C1020 C1017 1.424 . S
C1020 C1019 1.384 . S
C1020 H1038 0.928 . S
C1021 C1018 1.260 . S
C1021 C1019 1.479 . S
C1022 C1017 1.245 . S
C1022 C1018 1.477 . S
C1022 H1039 0.932 . S
C1023 U1006 2.882 . S
C1023 C1017 1.428 . S
C1023 O1026 1.301 . S
C1023 O1027 1.282 . S
O1024 U1006 2.441 . S
O1024 C1010 1.249 . S
O1025 U1006 2.420 . S
O1025 C1010 1.202 . S
O1026 U1006 2.455 . S
O1026 C1023 1.301 . S
O1027 U1006 2.449 . S
O1027 C1023 1.282 . S
H1028 C1001 0.931 . S
H1029 C1003 0.929 . S
H1030 C1004 0.930 . S
H1031 C1005 0.931 . S
H1032 C1012 0.932 . S
H1033 C1013 0.930 . S
H1034 C1014 0.929 . S
H1035 C1016 0.930 . S
H1036 C1018 0.932 . S
H1037 C1019 0.929 . S
H1038 C1020 0.928 . S
H1039 C1022 0.932 . S
C1040 C1041 1.264 . S
C1040 C1045 1.479 . S
C1040 C1050 1.465 . S
C1041 C1040 1.264 . S
C1041 C1043 1.339 . S
C1041 H1068 0.931 . S
C1042 C1043 1.395 . S
C1042 C1044 1.320 . S
C1043 C1041 1.339 . S
C1043 C1042 1.395 . S
C1043 H1069 0.929 . S
C1044 C1042 1.320 . S
C1044 C1045 1.405 . S
C1044 H1070 0.930 . S
C1045 C1040 1.479 . S
C1045 C1044 1.405 . S
C1045 H1071 0.931 . S
U1046 O1047 2.454 . S
U1046 O1048 2.458 . S
U1046 C1049 2.984 . S
U1046 C1050 2.847 . S
U1046 C1063 2.882 . S
U1046 O1064 2.441 . S
U1046 O1065 2.420 . S
U1046 O1066 2.455 . S
U1046 O1067 2.449 . S
O1047 U1046 2.454 . S
O1047 C1049 1.353 . S
O1048 U1046 2.458 . S
O1048 C1049 1.286 . S
C1049 U1046 2.984 . S
C1049 O1047 1.353 . S
C1049 O1048 1.286 . S
C1049 C1051 1.363 . S
C1050 C1040 1.465 . S
C1050 U1046 2.847 . S
C1050 O1064 1.249 . S
C1050 O1065 1.202 . S
C1051 C1049 1.363 . S
C1051 C1053 1.408 . S
C1051 C1056 1.342 . S
C1052 C1053 1.310 . S
C1052 C1055 1.461 . S
C1052 H1072 0.932 . S
C1053 C1051 1.408 . S
C1053 C1052 1.310 . S
C1053 H1073 0.930 . S
C1054 C1055 1.474 . S
C1054 C1056 1.285 . S
C1054 H1074 0.929 . S
C1055 C1052 1.461 . S
C1055 C1054 1.474 . S
C1056 C1051 1.342 . S
C1056 C1054 1.285 . S
C1056 H1075 0.930 . S
C1057 C1060 1.424 . S
C1057 C1062 1.245 . S
C1057 C1063 1.428 . S
C1058 C1061 1.260 . S
C1058 C1062 1.477 . S
C1058 H1076 0.932 . S
C1059 C1060 1.384 . S
C1059 C1061 1.479 . S
C1059 H1077 0.929 . S
C1060 C1057 1.424 . S
C1060 C1059 1.384 . S
C1060 H1078 0.928 . S
C1061 C1058 1.260 . S
C1061 C1059 1.479 . S
C1062 C1057 1.245 . S
C1062 C1058 1.477 . S
C1062 H1079 0.932 . S
C1063 U1046 2.882 . S
C1063 C1057 1.428 . S
C1063 O1066 1.301 . S
C1063 O1067 1.282 . S
O1064 U1046 2.441 . S
O1064 C1050 1.249 . S
O1065 U1046 2.420 . S
O1065 C1050 1.202 . S
O1066 U1046 2.455 . S
O1066 C1063 1.301 . S
O1067 U1046 2.449 . S
O1067 C1063 1.282 . S
H1068 C1041 0.931 . S
H1069 C1043 0.929 . S
H1070 C1044 0.930 . S
H1071 C1045 0.931 . S
H1072 C1052 0.932 . S
H1073 C1053 0.930 . S
H1074 C1054 0.929 . S
H1075 C1056 0.930 . S
H1076 C1058 0.932 . S
H1077 C1059 0.929 . S
H1078 C1060 0.928 . S
H1079 C1062 0.932 . S
C1080 C1081 1.264 . S
C1080 C1085 1.479 . S
C1080 C1090 1.465 . S
C1081 C1080 1.264 . S
C1081 C1083 1.339 . S
C1081 H1108 0.931 . S
C1082 C1083 1.395 . S
C1082 C1084 1.320 . S
C1083 C1081 1.339 . S
C1083 C1082 1.395 . S
C1083 H1109 0.929 . S
C1084 C1082 1.320 . S
C1084 C1085 1.405 . S
C1084 H1110 0.930 . S
C1085 C1080 1.479 . S
C1085 C1084 1.405 . S
C1085 H1111 0.931 . S
U1086 O1087 2.454 . S
U1086 O1088 2.458 . S
U1086 C1089 2.984 . S
U1086 C1090 2.847 . S
U1086 C1103 2.882 . S
U1086 O1104 2.441 . S
U1086 O1105 2.420 . S
U1086 O1106 2.455 . S
U1086 O1107 2.449 . S
O1087 U1086 2.454 . S
O1087 C1089 1.353 . S
O1088 U1086 2.458 . S
O1088 C1089 1.286 . S
C1089 U1086 2.984 . S
C1089 O1087 1.353 . S
C1089 O1088 1.286 . S
C1089 C1091 1.363 . S
C1090 C1080 1.465 . S
C1090 U1086 2.847 . S
C1090 O1104 1.249 . S
C1090 O1105 1.202 . S
C1091 C1089 1.363 . S
C1091 C1093 1.408 . S
C1091 C1096 1.342 . S
C1092 C1093 1.310 . S
C1092 C1095 1.461 . S
C1092 H1112 0.932 . S
C1093 C1091 1.408 . S
C1093 C1092 1.310 . S
C1093 H1113 0.930 . S
C1094 C1095 1.474 . S
C1094 C1096 1.285 . S
C1094 H1114 0.929 . S
C1095 C1092 1.461 . S
C1095 C1094 1.474 . S
C1096 C1091 1.342 . S
C1096 C1094 1.285 . S
C1096 H1115 0.930 . S
C1097 C1100 1.424 . S
C1097 C1102 1.245 . S
C1097 C1103 1.428 . S
C1098 C1101 1.260 . S
C1098 C1102 1.477 . S
C1098 H1116 0.932 . S
C1099 C1100 1.384 . S
C1099 C1101 1.479 . S
C1099 H1117 0.929 . S
C1100 C1097 1.424 . S
C1100 C1099 1.384 . S
C1100 H1118 0.928 . S
C1101 C1098 1.260 . S
C1101 C1099 1.479 . S
C1102 C1097 1.245 . S
C1102 C1098 1.477 . S
C1102 H1119 0.932 . S
C1103 U1086 2.882 . S
C1103 C1097 1.428 . S
C1103 O1106 1.301 . S
C1103 O1107 1.282 . S
O1104 U1086 2.441 . S
O1104 C1090 1.249 . S
O1105 U1086 2.420 . S
O1105 C1090 1.202 . S
O1106 U1086 2.455 . S
O1106 C1103 1.301 . S
O1107 U1086 2.449 . S
O1107 C1103 1.282 . S
H1108 C1081 0.931 . S
H1109 C1083 0.929 . S
H1110 C1084 0.930 . S
H1111 C1085 0.931 . S
H1112 C1092 0.932 . S
H1113 C1093 0.930 . S
H1114 C1094 0.929 . S
H1115 C1096 0.930 . S
H1116 C1098 0.932 . S
H1117 C1099 0.929 . S
H1118 C1100 0.928 . S
H1119 C1102 0.932 . S
C1120 C1121 1.264 . S
C1120 C1125 1.479 . S
C1120 C1130 1.465 . S
C1121 C1120 1.264 . S
C1121 C1123 1.339 . S
C1121 H1148 0.931 . S
C1122 C1123 1.395 . S
C1122 C1124 1.320 . S
C1123 C1121 1.339 . S
C1123 C1122 1.395 . S
C1123 H1149 0.929 . S
C1124 C1122 1.320 . S
C1124 C1125 1.405 . S
C1124 H1150 0.930 . S
C1125 C1120 1.479 . S
C1125 C1124 1.405 . S
C1125 H1151 0.931 . S
U1126 O1127 2.454 . S
U1126 O1128 2.458 . S
U1126 C1129 2.984 . S
U1126 C1130 2.847 . S
U1126 C1143 2.882 . S
U1126 O1144 2.441 . S
U1126 O1145 2.420 . S
U1126 O1146 2.455 . S
U1126 O1147 2.449 . S
O1127 U1126 2.454 . S
O1127 C1129 1.353 . S
O1128 U1126 2.458 . S
O1128 C1129 1.286 . S
C1129 U1126 2.984 . S
C1129 O1127 1.353 . S
C1129 O1128 1.286 . S
C1129 C1131 1.363 . S
C1130 C1120 1.465 . S
C1130 U1126 2.847 . S
C1130 O1144 1.249 . S
C1130 O1145 1.202 . S
C1131 C1129 1.363 . S
C1131 C1133 1.408 . S
C1131 C1136 1.342 . S
C1132 C1133 1.310 . S
C1132 C1135 1.461 . S
C1132 H1152 0.932 . S
C1133 C1131 1.408 . S
C1133 C1132 1.310 . S
C1133 H1153 0.930 . S
C1134 C1135 1.474 . S
C1134 C1136 1.285 . S
C1134 H1154 0.929 . S
C1135 C1132 1.461 . S
C1135 C1134 1.474 . S
C1136 C1131 1.342 . S
C1136 C1134 1.285 . S
C1136 H1155 0.930 . S
C1137 C1140 1.424 . S
C1137 C1142 1.245 . S
C1137 C1143 1.428 . S
C1138 C1141 1.260 . S
C1138 C1142 1.477 . S
C1138 H1156 0.932 . S
C1139 C1140 1.384 . S
C1139 C1141 1.479 . S
C1139 H1157 0.929 . S
C1140 C1137 1.424 . S
C1140 C1139 1.384 . S
C1140 H1158 0.928 . S
C1141 C1138 1.260 . S
C1141 C1139 1.479 . S
C1142 C1137 1.245 . S
C1142 C1138 1.477 . S
C1142 H1159 0.932 . S
C1143 U1126 2.882 . S
C1143 C1137 1.428 . S
C1143 O1146 1.301 . S
C1143 O1147 1.282 . S
O1144 U1126 2.441 . S
O1144 C1130 1.249 . S
O1145 U1126 2.420 . S
O1145 C1130 1.202 . S
O1146 U1126 2.455 . S
O1146 C1143 1.301 . S
O1147 U1126 2.449 . S
O1147 C1143 1.282 . S
H1148 C1121 0.931 . S
H1149 C1123 0.929 . S
H1150 C1124 0.930 . S
H1151 C1125 0.931 . S
H1152 C1132 0.932 . S
H1153 C1133 0.930 . S
H1154 C1134 0.929 . S
H1155 C1136 0.930 . S
H1156 C1138 0.932 . S
H1157 C1139 0.929 . S
H1158 C1140 0.928 . S
H1159 C1142 0.932 . S
C1160 C1161 1.264 . S
C1160 C1165 1.479 . S
C1160 C1170 1.465 . S
C1161 C1160 1.264 . S
C1161 C1163 1.339 . S
C1161 H1188 0.931 . S
C1162 C1163 1.395 . S
C1162 C1164 1.320 . S
C1163 C1161 1.339 . S
C1163 C1162 1.395 . S
C1163 H1189 0.929 . S
C1164 C1162 1.320 . S
C1164 C1165 1.405 . S
C1164 H1190 0.930 . S
C1165 C1160 1.479 . S
C1165 C1164 1.405 . S
C1165 H1191 0.931 . S
U1166 O1167 2.454 . S
U1166 O1168 2.458 . S
U1166 C1169 2.984 . S
U1166 C1170 2.847 . S
U1166 C1183 2.882 . S
U1166 O1184 2.441 . S
U1166 O1185 2.420 . S
U1166 O1186 2.455 . S
U1166 O1187 2.449 . S
O1167 U1166 2.454 . S
O1167 C1169 1.353 . S
O1168 U1166 2.458 . S
O1168 C1169 1.286 . S
C1169 U1166 2.984 . S
C1169 O1167 1.353 . S
C1169 O1168 1.286 . S
C1169 C1171 1.363 . S
C1170 C1160 1.465 . S
C1170 U1166 2.847 . S
C1170 O1184 1.249 . S
C1170 O1185 1.202 . S
C1171 C1169 1.363 . S
C1171 C1173 1.408 . S
C1171 C1176 1.342 . S
C1172 C1173 1.310 . S
C1172 C1175 1.461 . S
C1172 H1192 0.932 . S
C1173 C1171 1.408 . S
C1173 C1172 1.310 . S
C1173 H1193 0.930 . S
C1174 C1175 1.474 . S
C1174 C1176 1.285 . S
C1174 H1194 0.929 . S
C1175 C1172 1.461 . S
C1175 C1174 1.474 . S
C1176 C1171 1.342 . S
C1176 C1174 1.285 . S
C1176 H1195 0.930 . S
C1177 C1180 1.424 . S
C1177 C1182 1.245 . S
C1177 C1183 1.428 . S
C1178 C1181 1.260 . S
C1178 C1182 1.477 . S
C1178 H1196 0.932 . S
C1179 C1180 1.384 . S
C1179 C1181 1.479 . S
C1179 H1197 0.929 . S
C1180 C1177 1.424 . S
C1180 C1179 1.384 . S
C1180 H1198 0.928 . S
C1181 C1178 1.260 . S
C1181 C1179 1.479 . S
C1182 C1177 1.245 . S
C1182 C1178 1.477 . S
C1182 H1199 0.932 . S
C1183 U1166 2.882 . S
C1183 C1177 1.428 . S
C1183 O1186 1.301 . S
C1183 O1187 1.282 . S
O1184 U1166 2.441 . S
O1184 C1170 1.249 . S
O1185 U1166 2.420 . S
O1185 C1170 1.202 . S
O1186 U1166 2.455 . S
O1186 C1183 1.301 . S
O1187 U1166 2.449 . S
O1187 C1183 1.282 . S
H1188 C1161 0.931 . S
H1189 C1163 0.929 . S
H1190 C1164 0.930 . S
H1191 C1165 0.931 . S
H1192 C1172 0.932 . S
H1193 C1173 0.930 . S
H1194 C1174 0.929 . S
H1195 C1176 0.930 . S
H1196 C1178 0.932 . S
H1197 C1179 0.929 . S
H1198 C1180 0.928 . S
H1199 C1182 0.932 . S
C1200 C1201 1.264 . S
C1200 C1205 1.479 . S
C1200 C1210 1.465 . S
C1201 C1200 1.264 . S
C1201 C1203 1.339 . S
C1201 H1228 0.931 . S
C1202 C1203 1.395 . S
C1202 C1204 1.320 . S
C1203 C1201 1.339 . S
C1203 C1202 1.395 . S
C1203 H1229 0.929 . S
C1204 C1202 1.320 . S
C1204 C1205 1.405 . S
C1204 H1230 0.930 . S
C1205 C1200 1.479 . S
C1205 C1204 1.405 . S
C1205 H1231 0.931 . S
U1206 O1207 2.454 . S
U1206 O1208 2.458 . S
U1206 C1209 2.984 . S
U1206 C1210 2.847 . S
U1206 C1223 2.882 . S
U1206 O1224 2.441 . S
U1206 O1225 2.420 . S
U1206 O1226 2.455 . S
U1206 O1227 2.449 . S
O1207 U1206 2.454 . S
O1207 C1209 1.353 . S
O1208 U1206 2.458 . S
O1208 C1209 1.286 . S
C1209 U1206 2.984 . S
C1209 O1207 1.353 . S
C1209 O1208 1.286 . S
C1209 C1211 1.363 . S
C1210 C1200 1.465 . S
C1210 U1206 2.847 . S
C1210 O1224 1.249 . S
C1210 O1225 1.202 . S
C1211 C1209 1.363 . S
C1211 C1213 1.408 . S
C1211 C1216 1.342 . S
C1212 C1213 1.310 . S
C1212 C1215 1.461 . S
C1212 H1232 0.932 . S
C1213 C1211 1.408 . S
C1213 C1212 1.310 . S
C1213 H1233 0.930 . S
C1214 C1215 1.474 . S
C1214 C1216 1.285 . S
C1214 H1234 0.929 . S
C1215 C1212 1.461 . S
C1215 C1214 1.474 . S
C1216 C1211 1.342 . S
C1216 C1214 1.285 . S
C1216 H1235 0.930 . S
C1217 C1220 1.424 . S
C1217 C1222 1.245 . S
C1217 C1223 1.428 . S
C1218 C1221 1.260 . S
C1218 C1222 1.477 . S
C1218 H1236 0.932 . S
C1219 C1220 1.384 . S
C1219 C1221 1.479 . S
C1219 H1237 0.929 . S
C1220 C1217 1.424 . S
C1220 C1219 1.384 . S
C1220 H1238 0.928 . S
C1221 C1218 1.260 . S
C1221 C1219 1.479 . S
C1222 C1217 1.245 . S
C1222 C1218 1.477 . S
C1222 H1239 0.932 . S
C1223 U1206 2.882 . S
C1223 C1217 1.428 . S
C1223 O1226 1.301 . S
C1223 O1227 1.282 . S
O1224 U1206 2.441 . S
O1224 C1210 1.249 . S
O1225 U1206 2.420 . S
O1225 C1210 1.202 . S
O1226 U1206 2.455 . S
O1226 C1223 1.301 . S
O1227 U1206 2.449 . S
O1227 C1223 1.282 . S
H1228 C1201 0.931 . S
H1229 C1203 0.929 . S
H1230 C1204 0.930 . S
H1231 C1205 0.931 . S
H1232 C1212 0.932 . S
H1233 C1213 0.930 . S
H1234 C1214 0.929 . S
H1235 C1216 0.930 . S
H1236 C1218 0.932 . S
H1237 C1219 0.929 . S
H1238 C1220 0.928 . S
H1239 C1222 0.932 . S
C1240 C1241 1.264 . S
C1240 C1245 1.479 . S
C1240 C1250 1.465 . S
C1241 C1240 1.264 . S
C1241 C1243 1.339 . S
C1241 H1268 0.931 . S
C1242 C1243 1.395 . S
C1242 C1244 1.320 . S
C1243 C1241 1.339 . S
C1243 C1242 1.395 . S
C1243 H1269 0.929 . S
C1244 C1242 1.320 . S
C1244 C1245 1.405 . S
C1244 H1270 0.930 . S
C1245 C1240 1.479 . S
C1245 C1244 1.405 . S
C1245 H1271 0.931 . S
U1246 O1247 2.454 . S
U1246 O1248 2.458 . S
U1246 C1249 2.984 . S
U1246 C1250 2.847 . S
U1246 C1263 2.882 . S
U1246 O1264 2.441 . S
U1246 O1265 2.420 . S
U1246 O1266 2.455 . S
U1246 O1267 2.449 . S
O1247 U1246 2.454 . S
O1247 C1249 1.353 . S
O1248 U1246 2.458 . S
O1248 C1249 1.286 . S
C1249 U1246 2.984 . S
C1249 O1247 1.353 . S
C1249 O1248 1.286 . S
C1249 C1251 1.363 . S
C1250 C1240 1.465 . S
C1250 U1246 2.847 . S
C1250 O1264 1.249 . S
C1250 O1265 1.202 . S
C1251 C1249 1.363 . S
C1251 C1253 1.408 . S
C1251 C1256 1.342 . S
C1252 C1253 1.310 . S
C1252 C1255 1.461 . S
C1252 H1272 0.932 . S
C1253 C1251 1.408 . S
C1253 C1252 1.310 . S
C1253 H1273 0.930 . S
C1254 C1255 1.474 . S
C1254 C1256 1.285 . S
C1254 H1274 0.929 . S
C1255 C1252 1.461 . S
C1255 C1254 1.474 . S
C1256 C1251 1.342 . S
C1256 C1254 1.285 . S
C1256 H1275 0.930 . S
C1257 C1260 1.424 . S
C1257 C1262 1.245 . S
C1257 C1263 1.428 . S
C1258 C1261 1.260 . S
C1258 C1262 1.477 . S
C1258 H1276 0.932 . S
C1259 C1260 1.384 . S
C1259 C1261 1.479 . S
C1259 H1277 0.929 . S
C1260 C1257 1.424 . S
C1260 C1259 1.384 . S
C1260 H1278 0.928 . S
C1261 C1258 1.260 . S
C1261 C1259 1.479 . S
C1262 C1257 1.245 . S
C1262 C1258 1.477 . S
C1262 H1279 0.932 . S
C1263 U1246 2.882 . S
C1263 C1257 1.428 . S
C1263 O1266 1.301 . S
C1263 O1267 1.282 . S
O1264 U1246 2.441 . S
O1264 C1250 1.249 . S
O1265 U1246 2.420 . S
O1265 C1250 1.202 . S
O1266 U1246 2.455 . S
O1266 C1263 1.301 . S
O1267 U1246 2.449 . S
O1267 C1263 1.282 . S
H1268 C1241 0.931 . S
H1269 C1243 0.929 . S
H1270 C1244 0.930 . S
H1271 C1245 0.931 . S
H1272 C1252 0.932 . S
H1273 C1253 0.930 . S
H1274 C1254 0.929 . S
H1275 C1256 0.930 . S
H1276 C1258 0.932 . S
H1277 C1259 0.929 . S
H1278 C1260 0.928 . S
H1279 C1262 0.932 . S
C1280 C1281 1.560 . S
C1280 H1341 0.959 . S
C1280 H1342 0.959 . S
C1280 H1343 0.960 . S
C1281 C1280 1.560 . S
C1281 O1336 1.426 . S
C1281 H1340 0.980 . S
C1282 C1283 1.407 . S
C1282 C1287 1.418 . S
C1282 O1336 1.334 . S
C1283 C1282 1.407 . S
C1283 C1284 1.360 . S
C1283 H1344 0.929 . S
C1284 C1283 1.360 . S
C1284 C1285 1.401 . S
C1284 C1288 1.527 . S
C1285 C1284 1.401 . S
C1285 C1286 1.405 . S
C1285 C1318 1.587 . S
C1286 C1285 1.405 . S
C1286 C1287 1.332 . S
C1286 C1289 1.496 . S
C1287 C1282 1.418 . S
C1287 C1286 1.332 . S
C1287 H1345 0.929 . S
C1288 C1284 1.527 . S
C1288 H1346 0.959 . S
C1288 H1347 0.961 . S
C1288 H1348 0.961 . S
C1289 C1286 1.496 . S
C1289 H1349 0.960 . S
C1289 H1350 0.960 . S
C1289 H1351 0.961 . S
C1290 C1291 1.517 . S
C1290 H1353 0.961 . S
C1290 H1354 0.960 . S
C1290 H1355 0.959 . S
C1291 C1290 1.517 . S
C1291 O1339 1.468 . S
C1291 H1352 0.980 . S
C1292 C1293 1.349 . S
C1292 C1297 1.367 . S
C1292 O1339 1.408 . S
C1293 C1292 1.349 . S
C1293 C1294 1.407 . S
C1293 H1356 0.930 . S
C1294 C1293 1.407 . S
C1294 C1295 1.449 . S
C1294 C1298 1.535 . S
C1295 C1294 1.449 . S
C1295 C1296 1.384 . S
C1295 C1320 1.553 . S
C1296 C1295 1.384 . S
C1296 C1297 1.364 . S
C1296 C1299 1.450 . S
C1297 C1292 1.367 . S
C1297 C1296 1.364 . S
C1297 H1357 0.931 . S
C1298 C1294 1.535 . S
C1298 H1358 0.959 . S
C1298 H1359 0.961 . S
C1298 H1360 0.959 . S
C1299 C1296 1.450 . S
C1299 H1361 0.960 . S
C1299 H1362 0.960 . S
C1299 H1363 0.960 . S
C1300 C1301 1.309 . S
C1300 C1305 1.304 . S
C1300 O1338 1.435 . S
C1301 C1300 1.309 . S
C1301 C1302 1.476 . S
C1301 H1365 0.930 . S
C1302 C1301 1.476 . S
C1302 C1303 1.400 . S
C1302 C1306 1.567 . S
C1303 C1302 1.400 . S
C1303 C1304 1.373 . S
C1303 C1325 1.432 . S
C1304 C1303 1.373 . S
C1304 C1305 1.339 . S
C1304 C1307 1.530 . S
C1305 C1300 1.304 . S
C1305 C1304 1.339 . S
C1305 H1366 0.930 . S
C1306 C1302 1.567 . S
C1306 H1367 0.961 . S
C1306 H1368 0.960 . S
C1306 H1369 0.958 . S
C1307 C1304 1.530 . S
C1307 H1370 0.961 . S
C1307 H1371 0.960 . S
C1307 H1372 0.960 . S
C1308 C1309 1.530 . S
C1308 H1374 0.961 . S
C1308 H1375 0.961 . S
C1308 H1376 0.959 . S
C1309 C1308 1.530 . S
C1309 O1337 1.412 . S
C1309 H1373 0.980 . S
C1310 C1311 1.288 . S
C1310 C1315 1.377 . S
C1310 O1337 1.393 . S
C1311 C1310 1.288 . S
C1311 C1312 1.369 . S
C1311 H1377 0.932 . S
C1312 C1311 1.369 . S
C1312 C1313 1.398 . S
C1312 C1316 1.527 . S
C1313 C1312 1.398 . S
C1313 C1314 1.380 . S
C1313 C1327 1.497 . S
C1314 C1313 1.380 . S
C1314 C1315 1.383 . S
C1314 C1317 1.603 . S
C1315 C1310 1.377 . S
C1315 C1314 1.383 . S
C1315 H1378 0.929 . S
C1316 C1312 1.527 . S
C1316 H1379 0.961 . S
C1316 H1380 0.959 . S
C1316 H1381 0.959 . S
C1317 C1314 1.603 . S
C1317 H1382 0.960 . S
C1317 H1383 0.962 . S
C1317 H1384 0.961 . S
C1318 C1285 1.587 . S
C1318 C1319 1.360 . S
C1318 C1331 1.412 . S
C1319 C1318 1.360 . S
C1319 C1320 1.365 1_554 S
C1319 H1385 0.929 . S
C1320 C1295 1.553 . S
C1320 C1319 1.365 1_556 S
C1320 C1321 1.404 . S
C1321 C1320 1.404 . S
C1321 C1322 1.395 . S
C1321 C1332 1.451 1_556 S
C1322 C1321 1.395 . S
C1322 C1323 1.322 . S
C1322 H1386 0.930 . S
C1323 C1322 1.322 . S
C1323 C1324 1.459 . S
C1323 H1387 0.929 . S
C1324 C1323 1.459 . S
C1324 C1325 1.445 . S
C1324 C1333 1.395 1_556 S
C1325 C1303 1.432 . S
C1325 C1324 1.445 . S
C1325 C1326 1.370 1_556 S
C1326 C1325 1.370 1_554 S
C1326 C1327 1.438 . S
C1326 H1388 0.930 . S
C1327 C1313 1.497 . S
C1327 C1326 1.438 . S
C1327 C1328 1.360 . S
C1328 C1327 1.360 . S
C1328 C1329 1.401 . S
C1328 C1333 1.446 . S
C1329 C1328 1.401 . S
C1329 C1330 1.347 . S
C1329 H1389 0.929 . S
C1330 C1329 1.347 . S
C1330 C1331 1.455 . S
C1330 H1390 0.930 . S
C1331 C1318 1.412 . S
C1331 C1330 1.455 . S
C1331 C1332 1.331 . S
C1332 C1321 1.451 1_554 S
C1332 C1331 1.331 . S
C1332 C1333 1.497 . S
C1333 C1324 1.395 1_554 S
C1333 C1328 1.446 . S
C1333 C1332 1.497 . S
C1334 C1335 1.582 . S
C1334 H1391 0.962 . S
C1334 H1392 0.959 . S
C1334 H1393 0.958 . S
C1335 C1334 1.582 . S
C1335 O1338 1.458 . S
C1335 H1364 0.980 . S
O1336 C1281 1.426 . S
O1336 C1282 1.334 . S
O1337 C1309 1.412 . S
O1337 C1310 1.393 . S
O1338 C1300 1.435 . S
O1338 C1335 1.458 . S
O1339 C1291 1.468 . S
O1339 C1292 1.408 . S
H1340 C1281 0.980 . S
H1341 C1280 0.959 . S
H1342 C1280 0.959 . S
H1343 C1280 0.960 . S
H1344 C1283 0.929 . S
H1345 C1287 0.929 . S
H1346 C1288 0.959 . S
H1347 C1288 0.961 . S
H1348 C1288 0.961 . S
H1349 C1289 0.960 . S
H1350 C1289 0.960 . S
H1351 C1289 0.961 . S
H1352 C1291 0.980 . S
H1353 C1290 0.961 . S
H1354 C1290 0.960 . S
H1355 C1290 0.959 . S
H1356 C1293 0.930 . S
H1357 C1297 0.931 . S
H1358 C1298 0.959 . S
H1359 C1298 0.961 . S
H1360 C1298 0.959 . S
H1361 C1299 0.960 . S
H1362 C1299 0.960 . S
H1363 C1299 0.960 . S
H1364 C1335 0.980 . S
H1365 C1301 0.930 . S
H1366 C1305 0.930 . S
H1367 C1306 0.961 . S
H1368 C1306 0.960 . S
H1369 C1306 0.958 . S
H1370 C1307 0.961 . S
H1371 C1307 0.960 . S
H1372 C1307 0.960 . S
H1373 C1309 0.980 . S
H1374 C1308 0.961 . S
H1375 C1308 0.961 . S
H1376 C1308 0.959 . S
H1377 C1311 0.932 . S
H1378 C1315 0.929 . S
H1379 C1316 0.961 . S
H1380 C1316 0.959 . S
H1381 C1316 0.959 . S
H1382 C1317 0.960 . S
H1383 C1317 0.962 . S
H1384 C1317 0.961 . S
H1385 C1319 0.929 . S
H1386 C1322 0.930 . S
H1387 C1323 0.929 . S
H1388 C1326 0.930 . S
H1389 C1329 0.929 . S
H1390 C1330 0.930 . S
H1391 C1334 0.962 . S
H1392 C1334 0.959 . S
H1393 C1334 0.958 . S
C1394 C1395 1.560 . S
C1394 H1455 0.959 . S
C1394 H1456 0.959 . S
C1394 H1457 0.960 . S
C1395 C1394 1.560 . S
C1395 O1450 1.426 . S
C1395 H1454 0.980 . S
C1396 C1397 1.407 . S
C1396 C1401 1.418 . S
C1396 O1450 1.334 . S
C1397 C1396 1.407 . S
C1397 C1398 1.360 . S
C1397 H1458 0.929 . S
C1398 C1397 1.360 . S
C1398 C1399 1.401 . S
C1398 C1402 1.527 . S
C1399 C1398 1.401 . S
C1399 C1400 1.405 . S
C1399 C1432 1.587 . S
C1400 C1399 1.405 . S
C1400 C1401 1.332 . S
C1400 C1403 1.496 . S
C1401 C1396 1.418 . S
C1401 C1400 1.332 . S
C1401 H1459 0.929 . S
C1402 C1398 1.527 . S
C1402 H1460 0.959 . S
C1402 H1461 0.961 . S
C1402 H1462 0.961 . S
C1403 C1400 1.496 . S
C1403 H1463 0.960 . S
C1403 H1464 0.960 . S
C1403 H1465 0.961 . S
C1404 C1405 1.517 . S
C1404 H1467 0.961 . S
C1404 H1468 0.960 . S
C1404 H1469 0.959 . S
C1405 C1404 1.517 . S
C1405 O1453 1.468 . S
C1405 H1466 0.980 . S
C1406 C1407 1.349 . S
C1406 C1411 1.367 . S
C1406 O1453 1.408 . S
C1407 C1406 1.349 . S
C1407 C1408 1.407 . S
C1407 H1470 0.930 . S
C1408 C1407 1.407 . S
C1408 C1409 1.449 . S
C1408 C1412 1.535 . S
C1409 C1408 1.449 . S
C1409 C1410 1.384 . S
C1409 C1434 1.553 . S
C1410 C1409 1.384 . S
C1410 C1411 1.364 . S
C1410 C1413 1.450 . S
C1411 C1406 1.367 . S
C1411 C1410 1.364 . S
C1411 H1471 0.931 . S
C1412 C1408 1.535 . S
C1412 H1472 0.959 . S
C1412 H1473 0.961 . S
C1412 H1474 0.959 . S
C1413 C1410 1.450 . S
C1413 H1475 0.960 . S
C1413 H1476 0.960 . S
C1413 H1477 0.960 . S
C1414 C1415 1.309 . S
C1414 C1419 1.304 . S
C1414 O1452 1.435 . S
C1415 C1414 1.309 . S
C1415 C1416 1.476 . S
C1415 H1479 0.930 . S
C1416 C1415 1.476 . S
C1416 C1417 1.400 . S
C1416 C1420 1.567 . S
C1417 C1416 1.400 . S
C1417 C1418 1.373 . S
C1417 C1439 1.432 . S
C1418 C1417 1.373 . S
C1418 C1419 1.339 . S
C1418 C1421 1.530 . S
C1419 C1414 1.304 . S
C1419 C1418 1.339 . S
C1419 H1480 0.930 . S
C1420 C1416 1.567 . S
C1420 H1481 0.961 . S
C1420 H1482 0.960 . S
C1420 H1483 0.958 . S
C1421 C1418 1.530 . S
C1421 H1484 0.961 . S
C1421 H1485 0.960 . S
C1421 H1486 0.960 . S
C1422 C1423 1.530 . S
C1422 H1488 0.961 . S
C1422 H1489 0.961 . S
C1422 H1490 0.959 . S
C1423 C1422 1.530 . S
C1423 O1451 1.412 . S
C1423 H1487 0.980 . S
C1424 C1425 1.288 . S
C1424 C1429 1.377 . S
C1424 O1451 1.393 . S
C1425 C1424 1.288 . S
C1425 C1426 1.369 . S
C1425 H1491 0.932 . S
C1426 C1425 1.369 . S
C1426 C1427 1.398 . S
C1426 C1430 1.527 . S
C1427 C1426 1.398 . S
C1427 C1428 1.380 . S
C1427 C1441 1.497 . S
C1428 C1427 1.380 . S
C1428 C1429 1.383 . S
C1428 C1431 1.603 . S
C1429 C1424 1.377 . S
C1429 C1428 1.383 . S
C1429 H1492 0.929 . S
C1430 C1426 1.527 . S
C1430 H1493 0.961 . S
C1430 H1494 0.959 . S
C1430 H1495 0.959 . S
C1431 C1428 1.603 . S
C1431 H1496 0.960 . S
C1431 H1497 0.962 . S
C1431 H1498 0.961 . S
C1432 C1399 1.587 . S
C1432 C1433 1.360 1_556 S
C1432 C1445 1.412 . S
C1433 C1432 1.360 1_554 S
C1433 C1434 1.365 . S
C1433 H1499 0.929 . S
C1434 C1409 1.553 . S
C1434 C1433 1.365 . S
C1434 C1435 1.404 . S
C1435 C1434 1.404 . S
C1435 C1436 1.395 . S
C1435 C1446 1.451 . S
C1436 C1435 1.395 . S
C1436 C1437 1.322 . S
C1436 H1500 0.930 . S
C1437 C1436 1.322 . S
C1437 C1438 1.459 . S
C1437 H1501 0.929 . S
C1438 C1437 1.459 . S
C1438 C1439 1.445 . S
C1438 C1447 1.395 . S
C1439 C1417 1.432 . S
C1439 C1438 1.445 . S
C1439 C1440 1.370 . S
C1440 C1439 1.370 . S
C1440 C1441 1.438 1_554 S
C1440 H1502 0.930 . S
C1441 C1427 1.497 . S
C1441 C1440 1.438 1_556 S
C1441 C1442 1.360 . S
C1442 C1441 1.360 . S
C1442 C1443 1.401 . S
C1442 C1447 1.446 1_556 S
C1443 C1442 1.401 . S
C1443 C1444 1.347 . S
C1443 H1503 0.929 . S
C1444 C1443 1.347 . S
C1444 C1445 1.455 . S
C1444 H1504 0.930 . S
C1445 C1432 1.412 . S
C1445 C1444 1.455 . S
C1445 C1446 1.331 1_556 S
C1446 C1435 1.451 . S
C1446 C1445 1.331 1_554 S
C1446 C1447 1.497 . S
C1447 C1438 1.395 . S
C1447 C1442 1.446 1_554 S
C1447 C1446 1.497 . S
C1448 C1449 1.582 . S
C1448 H1505 0.962 . S
C1448 H1506 0.959 . S
C1448 H1507 0.958 . S
C1449 C1448 1.582 . S
C1449 O1452 1.458 . S
C1449 H1478 0.980 . S
O1450 C1395 1.426 . S
O1450 C1396 1.334 . S
O1451 C1423 1.412 . S
O1451 C1424 1.393 . S
O1452 C1414 1.435 . S
O1452 C1449 1.458 . S
O1453 C1405 1.468 . S
O1453 C1406 1.408 . S
H1454 C1395 0.980 . S
H1455 C1394 0.959 . S
H1456 C1394 0.959 . S
H1457 C1394 0.960 . S
H1458 C1397 0.929 . S
H1459 C1401 0.929 . S
H1460 C1402 0.959 . S
H1461 C1402 0.961 . S
H1462 C1402 0.961 . S
H1463 C1403 0.960 . S
H1464 C1403 0.960 . S
H1465 C1403 0.961 . S
H1466 C1405 0.980 . S
H1467 C1404 0.961 . S
H1468 C1404 0.960 . S
H1469 C1404 0.959 . S
H1470 C1407 0.930 . S
H1471 C1411 0.931 . S
H1472 C1412 0.959 . S
H1473 C1412 0.961 . S
H1474 C1412 0.959 . S
H1475 C1413 0.960 . S
H1476 C1413 0.960 . S
H1477 C1413 0.960 . S
H1478 C1449 0.980 . S
H1479 C1415 0.930 . S
H1480 C1419 0.930 . S
H1481 C1420 0.961 . S
H1482 C1420 0.960 . S
H1483 C1420 0.958 . S
H1484 C1421 0.961 . S
H1485 C1421 0.960 . S
H1486 C1421 0.960 . S
H1487 C1423 0.980 . S
H1488 C1422 0.961 . S
H1489 C1422 0.961 . S
H1490 C1422 0.959 . S
H1491 C1425 0.932 . S
H1492 C1429 0.929 . S
H1493 C1430 0.961 . S
H1494 C1430 0.959 . S
H1495 C1430 0.959 . S
H1496 C1431 0.960 . S
H1497 C1431 0.962 . S
H1498 C1431 0.961 . S
H1499 C1433 0.929 . S
H1500 C1436 0.930 . S
H1501 C1437 0.929 . S
H1502 C1440 0.930 . S
H1503 C1443 0.929 . S
H1504 C1444 0.930 . S
H1505 C1448 0.962 . S
H1506 C1448 0.959 . S
H1507 C1448 0.958 . S
C1508 C1509 1.560 . S
C1508 H1569 0.959 . S
C1508 H1570 0.959 . S
C1508 H1571 0.960 . S
C1509 C1508 1.560 . S
C1509 O1564 1.426 . S
C1509 H1568 0.980 . S
C1510 C1511 1.407 . S
C1510 C1515 1.418 . S
C1510 O1564 1.334 . S
C1511 C1510 1.407 . S
C1511 C1512 1.360 . S
C1511 H1572 0.929 . S
C1512 C1511 1.360 . S
C1512 C1513 1.401 . S
C1512 C1516 1.527 . S
C1513 C1512 1.401 . S
C1513 C1514 1.405 . S
C1513 C1546 1.587 . S
C1514 C1513 1.405 . S
C1514 C1515 1.332 . S
C1514 C1517 1.496 . S
C1515 C1510 1.418 . S
C1515 C1514 1.332 . S
C1515 H1573 0.929 . S
C1516 C1512 1.527 . S
C1516 H1574 0.959 . S
C1516 H1575 0.961 . S
C1516 H1576 0.961 . S
C1517 C1514 1.496 . S
C1517 H1577 0.960 . S
C1517 H1578 0.960 . S
C1517 H1579 0.961 . S
C1518 C1519 1.517 . S
C1518 H1581 0.961 . S
C1518 H1582 0.960 . S
C1518 H1583 0.959 . S
C1519 C1518 1.517 . S
C1519 O1567 1.468 . S
C1519 H1580 0.980 . S
C1520 C1521 1.349 . S
C1520 C1525 1.367 . S
C1520 O1567 1.408 . S
C1521 C1520 1.349 . S
C1521 C1522 1.407 . S
C1521 H1584 0.930 . S
C1522 C1521 1.407 . S
C1522 C1523 1.449 . S
C1522 C1526 1.535 . S
C1523 C1522 1.449 . S
C1523 C1524 1.384 . S
C1523 C1548 1.553 . S
C1524 C1523 1.384 . S
C1524 C1525 1.364 . S
C1524 C1527 1.450 . S
C1525 C1520 1.367 . S
C1525 C1524 1.364 . S
C1525 H1585 0.931 . S
C1526 C1522 1.535 . S
C1526 H1586 0.959 . S
C1526 H1587 0.961 . S
C1526 H1588 0.959 . S
C1527 C1524 1.450 . S
C1527 H1589 0.960 . S
C1527 H1590 0.960 . S
C1527 H1591 0.960 . S
C1528 C1529 1.309 . S
C1528 C1533 1.304 . S
C1528 O1566 1.435 . S
C1529 C1528 1.309 . S
C1529 C1530 1.476 . S
C1529 H1593 0.930 . S
C1530 C1529 1.476 . S
C1530 C1531 1.400 . S
C1530 C1534 1.567 . S
C1531 C1530 1.400 . S
C1531 C1532 1.373 . S
C1531 C1553 1.432 . S
C1532 C1531 1.373 . S
C1532 C1533 1.339 . S
C1532 C1535 1.530 . S
C1533 C1528 1.304 . S
C1533 C1532 1.339 . S
C1533 H1594 0.930 . S
C1534 C1530 1.567 . S
C1534 H1595 0.961 . S
C1534 H1596 0.960 . S
C1534 H1597 0.958 . S
C1535 C1532 1.530 . S
C1535 H1598 0.961 . S
C1535 H1599 0.960 . S
C1535 H1600 0.960 . S
C1536 C1537 1.530 . S
C1536 H1602 0.961 . S
C1536 H1603 0.961 . S
C1536 H1604 0.959 . S
C1537 C1536 1.530 . S
C1537 O1565 1.412 . S
C1537 H1601 0.980 . S
C1538 C1539 1.288 . S
C1538 C1543 1.377 . S
C1538 O1565 1.393 . S
C1539 C1538 1.288 . S
C1539 C1540 1.369 . S
C1539 H1605 0.932 . S
C1540 C1539 1.369 . S
C1540 C1541 1.398 . S
C1540 C1544 1.527 . S
C1541 C1540 1.398 . S
C1541 C1542 1.380 . S
C1541 C1555 1.497 . S
C1542 C1541 1.380 . S
C1542 C1543 1.383 . S
C1542 C1545 1.603 . S
C1543 C1538 1.377 . S
C1543 C1542 1.383 . S
C1543 H1606 0.929 . S
C1544 C1540 1.527 . S
C1544 H1607 0.961 . S
C1544 H1608 0.959 . S
C1544 H1609 0.959 . S
C1545 C1542 1.603 . S
C1545 H1610 0.960 . S
C1545 H1611 0.962 . S
C1545 H1612 0.961 . S
C1546 C1513 1.587 . S
C1546 C1547 1.360 . S
C1546 C1559 1.412 . S
C1547 C1546 1.360 . S
C1547 C1548 1.365 1_554 S
C1547 H1613 0.929 . S
C1548 C1523 1.553 . S
C1548 C1547 1.365 1_556 S
C1548 C1549 1.404 . S
C1549 C1548 1.404 . S
C1549 C1550 1.395 . S
C1549 C1560 1.451 1_556 S
C1550 C1549 1.395 . S
C1550 C1551 1.322 . S
C1550 H1614 0.930 . S
C1551 C1550 1.322 . S
C1551 C1552 1.459 . S
C1551 H1615 0.929 . S
C1552 C1551 1.459 . S
C1552 C1553 1.445 . S
C1552 C1561 1.395 1_556 S
C1553 C1531 1.432 . S
C1553 C1552 1.445 . S
C1553 C1554 1.370 1_556 S
C1554 C1553 1.370 1_554 S
C1554 C1555 1.438 . S
C1554 H1616 0.930 . S
C1555 C1541 1.497 . S
C1555 C1554 1.438 . S
C1555 C1556 1.360 . S
C1556 C1555 1.360 . S
C1556 C1557 1.401 . S
C1556 C1561 1.446 . S
C1557 C1556 1.401 . S
C1557 C1558 1.347 . S
C1557 H1617 0.929 . S
C1558 C1557 1.347 . S
C1558 C1559 1.455 . S
C1558 H1618 0.930 . S
C1559 C1546 1.412 . S
C1559 C1558 1.455 . S
C1559 C1560 1.331 . S
C1560 C1549 1.451 1_554 S
C1560 C1559 1.331 . S
C1560 C1561 1.497 . S
C1561 C1552 1.395 1_554 S
C1561 C1556 1.446 . S
C1561 C1560 1.497 . S
C1562 C1563 1.582 . S
C1562 H1619 0.962 . S
C1562 H1620 0.959 . S
C1562 H1621 0.958 . S
C1563 C1562 1.582 . S
C1563 O1566 1.458 . S
C1563 H1592 0.980 . S
O1564 C1509 1.426 . S
O1564 C1510 1.334 . S
O1565 C1537 1.412 . S
O1565 C1538 1.393 . S
O1566 C1528 1.435 . S
O1566 C1563 1.458 . S
O1567 C1519 1.468 . S
O1567 C1520 1.408 . S
H1568 C1509 0.980 . S
H1569 C1508 0.959 . S
H1570 C1508 0.959 . S
H1571 C1508 0.960 . S
H1572 C1511 0.929 . S
H1573 C1515 0.929 . S
H1574 C1516 0.959 . S
H1575 C1516 0.961 . S
H1576 C1516 0.961 . S
H1577 C1517 0.960 . S
H1578 C1517 0.960 . S
H1579 C1517 0.961 . S
H1580 C1519 0.980 . S
H1581 C1518 0.961 . S
H1582 C1518 0.960 . S
H1583 C1518 0.959 . S
H1584 C1521 0.930 . S
H1585 C1525 0.931 . S
H1586 C1526 0.959 . S
H1587 C1526 0.961 . S
H1588 C1526 0.959 . S
H1589 C1527 0.960 . S
H1590 C1527 0.960 . S
H1591 C1527 0.960 . S
H1592 C1563 0.980 . S
H1593 C1529 0.930 . S
H1594 C1533 0.930 . S
H1595 C1534 0.961 . S
H1596 C1534 0.960 . S
H1597 C1534 0.958 . S
H1598 C1535 0.961 . S
H1599 C1535 0.960 . S
H1600 C1535 0.960 . S
H1601 C1537 0.980 . S
H1602 C1536 0.961 . S
H1603 C1536 0.961 . S
H1604 C1536 0.959 . S
H1605 C1539 0.932 . S
H1606 C1543 0.929 . S
H1607 C1544 0.961 . S
H1608 C1544 0.959 . S
H1609 C1544 0.959 . S
H1610 C1545 0.960 . S
H1611 C1545 0.962 . S
H1612 C1545 0.961 . S
H1613 C1547 0.929 . S
H1614 C1550 0.930 . S
H1615 C1551 0.929 . S
H1616 C1554 0.930 . S
H1617 C1557 0.929 . S
H1618 C1558 0.930 . S
H1619 C1562 0.962 . S
H1620 C1562 0.959 . S
H1621 C1562 0.958 . S
C1622 C1623 1.560 . S
C1622 H1683 0.959 . S
C1622 H1684 0.959 . S
C1622 H1685 0.960 . S
C1623 C1622 1.560 . S
C1623 O1678 1.426 . S
C1623 H1682 0.980 . S
C1624 C1625 1.407 . S
C1624 C1629 1.418 . S
C1624 O1678 1.334 . S
C1625 C1624 1.407 . S
C1625 C1626 1.360 . S
C1625 H1686 0.929 . S
C1626 C1625 1.360 . S
C1626 C1627 1.401 . S
C1626 C1630 1.527 . S
C1627 C1626 1.401 . S
C1627 C1628 1.405 . S
C1627 C1660 1.587 . S
C1628 C1627 1.405 . S
C1628 C1629 1.332 . S
C1628 C1631 1.496 . S
C1629 C1624 1.418 . S
C1629 C1628 1.332 . S
C1629 H1687 0.929 . S
C1630 C1626 1.527 . S
C1630 H1688 0.959 . S
C1630 H1689 0.961 . S
C1630 H1690 0.961 . S
C1631 C1628 1.496 . S
C1631 H1691 0.960 . S
C1631 H1692 0.960 . S
C1631 H1693 0.961 . S
C1632 C1633 1.517 . S
C1632 H1695 0.961 . S
C1632 H1696 0.960 . S
C1632 H1697 0.959 . S
C1633 C1632 1.517 . S
C1633 O1681 1.468 . S
C1633 H1694 0.980 . S
C1634 C1635 1.349 . S
C1634 C1639 1.367 . S
C1634 O1681 1.408 . S
C1635 C1634 1.349 . S
C1635 C1636 1.407 . S
C1635 H1698 0.930 . S
C1636 C1635 1.407 . S
C1636 C1637 1.449 . S
C1636 C1640 1.535 . S
C1637 C1636 1.449 . S
C1637 C1638 1.384 . S
C1637 C1662 1.553 . S
C1638 C1637 1.384 . S
C1638 C1639 1.364 . S
C1638 C1641 1.450 . S
C1639 C1634 1.367 . S
C1639 C1638 1.364 . S
C1639 H1699 0.931 . S
C1640 C1636 1.535 . S
C1640 H1700 0.959 . S
C1640 H1701 0.961 . S
C1640 H1702 0.959 . S
C1641 C1638 1.450 . S
C1641 H1703 0.960 . S
C1641 H1704 0.960 . S
C1641 H1705 0.960 . S
C1642 C1643 1.309 . S
C1642 C1647 1.304 . S
C1642 O1680 1.435 . S
C1643 C1642 1.309 . S
C1643 C1644 1.476 . S
C1643 H1707 0.930 . S
C1644 C1643 1.476 . S
C1644 C1645 1.400 . S
C1644 C1648 1.567 . S
C1645 C1644 1.400 . S
C1645 C1646 1.373 . S
C1645 C1667 1.432 . S
C1646 C1645 1.373 . S
C1646 C1647 1.339 . S
C1646 C1649 1.530 . S
C1647 C1642 1.304 . S
C1647 C1646 1.339 . S
C1647 H1708 0.930 . S
C1648 C1644 1.567 . S
C1648 H1709 0.961 . S
C1648 H1710 0.960 . S
C1648 H1711 0.958 . S
C1649 C1646 1.530 . S
C1649 H1712 0.961 . S
C1649 H1713 0.960 . S
C1649 H1714 0.960 . S
C1650 C1651 1.530 . S
C1650 H1716 0.961 . S
C1650 H1717 0.961 . S
C1650 H1718 0.959 . S
C1651 C1650 1.530 . S
C1651 O1679 1.412 . S
C1651 H1715 0.980 . S
C1652 C1653 1.288 . S
C1652 C1657 1.377 . S
C1652 O1679 1.393 . S
C1653 C1652 1.288 . S
C1653 C1654 1.369 . S
C1653 H1719 0.932 . S
C1654 C1653 1.369 . S
C1654 C1655 1.398 . S
C1654 C1658 1.527 . S
C1655 C1654 1.398 . S
C1655 C1656 1.380 . S
C1655 C1669 1.497 . S
C1656 C1655 1.380 . S
C1656 C1657 1.383 . S
C1656 C1659 1.603 . S
C1657 C1652 1.377 . S
C1657 C1656 1.383 . S
C1657 H1720 0.929 . S
C1658 C1654 1.527 . S
C1658 H1721 0.961 . S
C1658 H1722 0.959 . S
C1658 H1723 0.959 . S
C1659 C1656 1.603 . S
C1659 H1724 0.960 . S
C1659 H1725 0.962 . S
C1659 H1726 0.961 . S
C1660 C1627 1.587 . S
C1660 C1661 1.384 . S
C1660 C1673 1.412 . S
C1661 C1660 1.384 . S
C1661 C1662 1.341 1_556 S
C1661 H1727 0.929 . S
C1662 C1637 1.553 . S
C1662 C1661 1.341 1_554 S
C1662 C1663 1.404 . S
C1663 C1662 1.404 . S
C1663 C1664 1.395 . S
C1663 C1674 1.448 . S
C1664 C1663 1.395 . S
C1664 C1665 1.322 . S
C1664 H1728 0.930 . S
C1665 C1664 1.322 . S
C1665 C1666 1.459 . S
C1665 H1729 0.929 . S
C1666 C1665 1.459 . S
C1666 C1667 1.445 . S
C1666 C1675 1.473 . S
C1667 C1645 1.432 . S
C1667 C1666 1.445 . S
C1667 C1668 1.370 . S
C1668 C1667 1.370 . S
C1668 C1669 1.438 1_554 S
C1668 H1730 0.930 . S
C1669 C1655 1.497 . S
C1669 C1668 1.438 1_556 S
C1669 C1670 1.360 . S
C1670 C1669 1.360 . S
C1670 C1671 1.401 . S
C1670 C1675 1.373 1_556 S
C1671 C1670 1.401 . S
C1671 C1672 1.347 . S
C1671 H1731 0.929 . S
C1672 C1671 1.347 . S
C1672 C1673 1.455 . S
C1672 H1732 0.930 . S
C1673 C1660 1.412 . S
C1673 C1672 1.455 . S
C1673 C1674 1.334 1_556 S
C1674 C1663 1.448 . S
C1674 C1673 1.334 1_554 S
C1674 C1675 1.494 . S
C1675 C1666 1.473 . S
C1675 C1670 1.373 1_554 S
C1675 C1674 1.494 . S
C1676 C1677 1.582 . S
C1676 H1733 0.962 . S
C1676 H1734 0.959 . S
C1676 H1735 0.958 . S
C1677 C1676 1.582 . S
C1677 O1680 1.458 . S
C1677 H1706 0.980 . S
O1678 C1623 1.426 . S
O1678 C1624 1.334 . S
O1679 C1651 1.412 . S
O1679 C1652 1.393 . S
O1680 C1642 1.435 . S
O1680 C1677 1.458 . S
O1681 C1633 1.468 . S
O1681 C1634 1.408 . S
H1682 C1623 0.980 . S
H1683 C1622 0.959 . S
H1684 C1622 0.959 . S
H1685 C1622 0.960 . S
H1686 C1625 0.929 . S
H1687 C1629 0.929 . S
H1688 C1630 0.959 . S
H1689 C1630 0.961 . S
H1690 C1630 0.961 . S
H1691 C1631 0.960 . S
H1692 C1631 0.960 . S
H1693 C1631 0.961 . S
H1694 C1633 0.980 . S
H1695 C1632 0.961 . S
H1696 C1632 0.960 . S
H1697 C1632 0.959 . S
H1698 C1635 0.930 . S
H1699 C1639 0.931 . S
H1700 C1640 0.959 . S
H1701 C1640 0.961 . S
H1702 C1640 0.959 . S
H1703 C1641 0.960 . S
H1704 C1641 0.960 . S
H1705 C1641 0.960 . S
H1706 C1677 0.980 . S
H1707 C1643 0.930 . S
H1708 C1647 0.930 . S
H1709 C1648 0.961 . S
H1710 C1648 0.960 . S
H1711 C1648 0.958 . S
H1712 C1649 0.961 . S
H1713 C1649 0.960 . S
H1714 C1649 0.960 . S
H1715 C1651 0.980 . S
H1716 C1650 0.961 . S
H1717 C1650 0.961 . S
H1718 C1650 0.959 . S
H1719 C1653 0.932 . S
H1720 C1657 0.929 . S
H1721 C1658 0.961 . S
H1722 C1658 0.959 . S
H1723 C1658 0.959 . S
H1724 C1659 0.960 . S
H1725 C1659 0.962 . S
H1726 C1659 0.961 . S
H1727 C1661 0.929 . S
H1728 C1664 0.930 . S
H1729 C1665 0.929 . S
H1730 C1668 0.930 . S
H1731 C1671 0.929 . S
H1732 C1672 0.930 . S
H1733 C1676 0.962 . S
H1734 C1676 0.959 . S
H1735 C1676 0.958 . S
C1736 C1737 1.560 . S
C1736 H1797 0.959 . S
C1736 H1798 0.959 . S
C1736 H1799 0.960 . S
C1737 C1736 1.560 . S
C1737 O1792 1.426 . S
C1737 H1796 0.980 . S
C1738 C1739 1.407 . S
C1738 C1743 1.418 . S
C1738 O1792 1.334 . S
C1739 C1738 1.407 . S
C1739 C1740 1.360 . S
C1739 H1800 0.929 . S
C1740 C1739 1.360 . S
C1740 C1741 1.401 . S
C1740 C1744 1.527 . S
C1741 C1740 1.401 . S
C1741 C1742 1.405 . S
C1741 C1774 1.587 . S
C1742 C1741 1.405 . S
C1742 C1743 1.332 . S
C1742 C1745 1.496 . S
C1743 C1738 1.418 . S
C1743 C1742 1.332 . S
C1743 H1801 0.929 . S
C1744 C1740 1.527 . S
C1744 H1802 0.959 . S
C1744 H1803 0.961 . S
C1744 H1804 0.961 . S
C1745 C1742 1.496 . S
C1745 H1805 0.960 . S
C1745 H1806 0.960 . S
C1745 H1807 0.961 . S
C1746 C1747 1.517 . S
C1746 H1809 0.961 . S
C1746 H1810 0.960 . S
C1746 H1811 0.959 . S
C1747 C1746 1.517 . S
C1747 O1795 1.468 . S
C1747 H1808 0.980 . S
C1748 C1749 1.349 . S
C1748 C1753 1.367 . S
C1748 O1795 1.408 . S
C1749 C1748 1.349 . S
C1749 C1750 1.407 . S
C1749 H1812 0.930 . S
C1750 C1749 1.407 . S
C1750 C1751 1.449 . S
C1750 C1754 1.535 . S
C1751 C1750 1.449 . S
C1751 C1752 1.384 . S
C1751 C1776 1.553 . S
C1752 C1751 1.384 . S
C1752 C1753 1.364 . S
C1752 C1755 1.450 . S
C1753 C1748 1.367 . S
C1753 C1752 1.364 . S
C1753 H1813 0.931 . S
C1754 C1750 1.535 . S
C1754 H1814 0.959 . S
C1754 H1815 0.961 . S
C1754 H1816 0.959 . S
C1755 C1752 1.450 . S
C1755 H1817 0.960 . S
C1755 H1818 0.960 . S
C1755 H1819 0.960 . S
C1756 C1757 1.309 . S
C1756 C1761 1.304 . S
C1756 O1794 1.435 . S
C1757 C1756 1.309 . S
C1757 C1758 1.476 . S
C1757 H1821 0.930 . S
C1758 C1757 1.476 . S
C1758 C1759 1.400 . S
C1758 C1762 1.567 . S
C1759 C1758 1.400 . S
C1759 C1760 1.373 . S
C1759 C1781 1.432 . S
C1760 C1759 1.373 . S
C1760 C1761 1.339 . S
C1760 C1763 1.530 . S
C1761 C1756 1.304 . S
C1761 C1760 1.339 . S
C1761 H1822 0.930 . S
C1762 C1758 1.567 . S
C1762 H1823 0.961 . S
C1762 H1824 0.960 . S
C1762 H1825 0.958 . S
C1763 C1760 1.530 . S
C1763 H1826 0.961 . S
C1763 H1827 0.960 . S
C1763 H1828 0.960 . S
C1764 C1765 1.530 . S
C1764 H1830 0.961 . S
C1764 H1831 0.961 . S
C1764 H1832 0.959 . S
C1765 C1764 1.530 . S
C1765 O1793 1.412 . S
C1765 H1829 0.980 . S
C1766 C1767 1.288 . S
C1766 C1771 1.377 . S
C1766 O1793 1.393 . S
C1767 C1766 1.288 . S
C1767 C1768 1.369 . S
C1767 H1833 0.932 . S
C1768 C1767 1.369 . S
C1768 C1769 1.398 . S
C1768 C1772 1.527 . S
C1769 C1768 1.398 . S
C1769 C1770 1.380 . S
C1769 C1783 1.497 . S
C1770 C1769 1.380 . S
C1770 C1771 1.383 . S
C1770 C1773 1.603 . S
C1771 C1766 1.377 . S
C1771 C1770 1.383 . S
C1771 H1834 0.929 . S
C1772 C1768 1.527 . S
C1772 H1835 0.961 . S
C1772 H1836 0.959 . S
C1772 H1837 0.959 . S
C1773 C1770 1.603 . S
C1773 H1838 0.960 . S
C1773 H1839 0.962 . S
C1773 H1840 0.961 . S
C1774 C1741 1.587 . S
C1774 C1775 1.360 . S
C1774 C1787 1.412 . S
C1775 C1774 1.360 . S
C1775 C1776 1.365 1_455 S
C1775 H1841 0.929 . S
C1776 C1751 1.553 . S
C1776 C1775 1.365 1_655 S
C1776 C1777 1.404 . S
C1777 C1776 1.404 . S
C1777 C1778 1.395 . S
C1777 C1788 1.451 1_655 S
C1778 C1777 1.395 . S
C1778 C1779 1.322 . S
C1778 H1842 0.930 . S
C1779 C1778 1.322 . S
C1779 C1780 1.459 . S
C1779 H1843 0.929 . S
C1780 C1779 1.459 . S
C1780 C1781 1.445 . S
C1780 C1789 1.395 1_655 S
C1781 C1759 1.432 . S
C1781 C1780 1.445 . S
C1781 C1782 1.370 1_655 S
C1782 C1781 1.370 1_455 S
C1782 C1783 1.438 . S
C1782 H1844 0.930 . S
C1783 C1769 1.497 . S
C1783 C1782 1.438 . S
C1783 C1784 1.360 . S
C1784 C1783 1.360 . S
C1784 C1785 1.401 . S
C1784 C1789 1.446 . S
C1785 C1784 1.401 . S
C1785 C1786 1.347 . S
C1785 H1845 0.929 . S
C1786 C1785 1.347 . S
C1786 C1787 1.455 . S
C1786 H1846 0.930 . S
C1787 C1774 1.412 . S
C1787 C1786 1.455 . S
C1787 C1788 1.331 . S
C1788 C1777 1.451 1_455 S
C1788 C1787 1.331 . S
C1788 C1789 1.497 . S
C1789 C1780 1.395 1_455 S
C1789 C1784 1.446 . S
C1789 C1788 1.497 . S
C1790 C1791 1.582 . S
C1790 H1847 0.962 . S
C1790 H1848 0.959 . S
C1790 H1849 0.958 . S
C1791 C1790 1.582 . S
C1791 O1794 1.458 . S
C1791 H1820 0.980 . S
O1792 C1737 1.426 . S
O1792 C1738 1.334 . S
O1793 C1765 1.412 . S
O1793 C1766 1.393 . S
O1794 C1756 1.435 . S
O1794 C1791 1.458 . S
O1795 C1747 1.468 . S
O1795 C1748 1.408 . S
H1796 C1737 0.980 . S
H1797 C1736 0.959 . S
H1798 C1736 0.959 . S
H1799 C1736 0.960 . S
H1800 C1739 0.929 . S
H1801 C1743 0.929 . S
H1802 C1744 0.959 . S
H1803 C1744 0.961 . S
H1804 C1744 0.961 . S
H1805 C1745 0.960 . S
H1806 C1745 0.960 . S
H1807 C1745 0.961 . S
H1808 C1747 0.980 . S
H1809 C1746 0.961 . S
H1810 C1746 0.960 . S
H1811 C1746 0.959 . S
H1812 C1749 0.930 . S
H1813 C1753 0.931 . S
H1814 C1754 0.959 . S
H1815 C1754 0.961 . S
H1816 C1754 0.959 . S
H1817 C1755 0.960 . S
H1818 C1755 0.960 . S
H1819 C1755 0.960 . S
H1820 C1791 0.980 . S
H1821 C1757 0.930 . S
H1822 C1761 0.930 . S
H1823 C1762 0.961 . S
H1824 C1762 0.960 . S
H1825 C1762 0.958 . S
H1826 C1763 0.961 . S
H1827 C1763 0.960 . S
H1828 C1763 0.960 . S
H1829 C1765 0.980 . S
H1830 C1764 0.961 . S
H1831 C1764 0.961 . S
H1832 C1764 0.959 . S
H1833 C1767 0.932 . S
H1834 C1771 0.929 . S
H1835 C1772 0.961 . S
H1836 C1772 0.959 . S
H1837 C1772 0.959 . S
H1838 C1773 0.960 . S
H1839 C1773 0.962 . S
H1840 C1773 0.961 . S
H1841 C1775 0.929 . S
H1842 C1778 0.930 . S
H1843 C1779 0.929 . S
H1844 C1782 0.930 . S
H1845 C1785 0.929 . S
H1846 C1786 0.930 . S
H1847 C1790 0.962 . S
H1848 C1790 0.959 . S
H1849 C1790 0.958 . S
C1850 C1851 1.560 . S
C1850 H1911 0.959 . S
C1850 H1912 0.959 . S
C1850 H1913 0.960 . S
C1851 C1850 1.560 . S
C1851 O1906 1.426 . S
C1851 H1910 0.980 . S
C1852 C1853 1.407 . S
C1852 C1857 1.418 . S
C1852 O1906 1.334 . S
C1853 C1852 1.407 . S
C1853 C1854 1.360 . S
C1853 H1914 0.929 . S
C1854 C1853 1.360 . S
C1854 C1855 1.401 . S
C1854 C1858 1.527 . S
C1855 C1854 1.401 . S
C1855 C1856 1.405 . S
C1855 C1888 1.587 . S
C1856 C1855 1.405 . S
C1856 C1857 1.332 . S
C1856 C1859 1.496 . S
C1857 C1852 1.418 . S
C1857 C1856 1.332 . S
C1857 H1915 0.929 . S
C1858 C1854 1.527 . S
C1858 H1916 0.959 . S
C1858 H1917 0.961 . S
C1858 H1918 0.961 . S
C1859 C1856 1.496 . S
C1859 H1919 0.960 . S
C1859 H1920 0.960 . S
C1859 H1921 0.961 . S
C1860 C1861 1.517 . S
C1860 H1923 0.961 . S
C1860 H1924 0.960 . S
C1860 H1925 0.959 . S
C1861 C1860 1.517 . S
C1861 O1909 1.468 . S
C1861 H1922 0.980 . S
C1862 C1863 1.349 . S
C1862 C1867 1.367 . S
C1862 O1909 1.408 . S
C1863 C1862 1.349 . S
C1863 C1864 1.407 . S
C1863 H1926 0.930 . S
C1864 C1863 1.407 . S
C1864 C1865 1.449 . S
C1864 C1868 1.535 . S
C1865 C1864 1.449 . S
C1865 C1866 1.384 . S
C1865 C1890 1.553 . S
C1866 C1865 1.384 . S
C1866 C1867 1.364 . S
C1866 C1869 1.450 . S
C1867 C1862 1.367 . S
C1867 C1866 1.364 . S
C1867 H1927 0.931 . S
C1868 C1864 1.535 . S
C1868 H1928 0.959 . S
C1868 H1929 0.961 . S
C1868 H1930 0.959 . S
C1869 C1866 1.450 . S
C1869 H1931 0.960 . S
C1869 H1932 0.960 . S
C1869 H1933 0.960 . S
C1870 C1871 1.309 . S
C1870 C1875 1.304 . S
C1870 O1908 1.435 . S
C1871 C1870 1.309 . S
C1871 C1872 1.476 . S
C1871 H1935 0.930 . S
C1872 C1871 1.476 . S
C1872 C1873 1.400 . S
C1872 C1876 1.567 . S
C1873 C1872 1.400 . S
C1873 C1874 1.373 . S
C1873 C1895 1.432 . S
C1874 C1873 1.373 . S
C1874 C1875 1.339 . S
C1874 C1877 1.530 . S
C1875 C1870 1.304 . S
C1875 C1874 1.339 . S
C1875 H1936 0.930 . S
C1876 C1872 1.567 . S
C1876 H1937 0.961 . S
C1876 H1938 0.960 . S
C1876 H1939 0.958 . S
C1877 C1874 1.530 . S
C1877 H1940 0.961 . S
C1877 H1941 0.960 . S
C1877 H1942 0.960 . S
C1878 C1879 1.530 . S
C1878 H1944 0.961 . S
C1878 H1945 0.961 . S
C1878 H1946 0.959 . S
C1879 C1878 1.530 . S
C1879 O1907 1.412 . S
C1879 H1943 0.980 . S
C1880 C1881 1.288 . S
C1880 C1885 1.377 . S
C1880 O1907 1.393 . S
C1881 C1880 1.288 . S
C1881 C1882 1.369 . S
C1881 H1947 0.932 . S
C1882 C1881 1.369 . S
C1882 C1883 1.398 . S
C1882 C1886 1.527 . S
C1883 C1882 1.398 . S
C1883 C1884 1.380 . S
C1883 C1897 1.497 . S
C1884 C1883 1.380 . S
C1884 C1885 1.383 . S
C1884 C1887 1.603 . S
C1885 C1880 1.377 . S
C1885 C1884 1.383 . S
C1885 H1948 0.929 . S
C1886 C1882 1.527 . S
C1886 H1949 0.961 . S
C1886 H1950 0.959 . S
C1886 H1951 0.959 . S
C1887 C1884 1.603 . S
C1887 H1952 0.960 . S
C1887 H1953 0.962 . S
C1887 H1954 0.961 . S
C1888 C1855 1.587 . S
C1888 C1889 1.360 . S
C1888 C1901 1.412 . S
C1889 C1888 1.360 . S
C1889 C1890 1.365 1_545 S
C1889 H1955 0.929 . S
C1890 C1865 1.553 . S
C1890 C1889 1.365 1_565 S
C1890 C1891 1.404 . S
C1891 C1890 1.404 . S
C1891 C1892 1.395 . S
C1891 C1902 1.451 1_565 S
C1892 C1891 1.395 . S
C1892 C1893 1.322 . S
C1892 H1956 0.930 . S
C1893 C1892 1.322 . S
C1893 C1894 1.459 . S
C1893 H1957 0.929 . S
C1894 C1893 1.459 . S
C1894 C1895 1.445 . S
C1894 C1903 1.395 1_565 S
C1895 C1873 1.432 . S
C1895 C1894 1.445 . S
C1895 C1896 1.370 1_565 S
C1896 C1895 1.370 1_545 S
C1896 C1897 1.438 . S
C1896 H1958 0.930 . S
C1897 C1883 1.497 . S
C1897 C1896 1.438 . S
C1897 C1898 1.360 . S
C1898 C1897 1.360 . S
C1898 C1899 1.401 . S
C1898 C1903 1.446 . S
C1899 C1898 1.401 . S
C1899 C1900 1.347 . S
C1899 H1959 0.929 . S
C1900 C1899 1.347 . S
C1900 C1901 1.455 . S
C1900 H1960 0.930 . S
C1901 C1888 1.412 . S
C1901 C1900 1.455 . S
C1901 C1902 1.331 . S
C1902 C1891 1.451 1_545 S
C1902 C1901 1.331 . S
C1902 C1903 1.497 . S
C1903 C1894 1.395 1_545 S
C1903 C1898 1.446 . S
C1903 C1902 1.497 . S
C1904 C1905 1.582 . S
C1904 H1961 0.962 . S
C1904 H1962 0.959 . S
C1904 H1963 0.958 . S
C1905 C1904 1.582 . S
C1905 O1908 1.458 . S
C1905 H1934 0.980 . S
O1906 C1851 1.426 . S
O1906 C1852 1.334 . S
O1907 C1879 1.412 . S
O1907 C1880 1.393 . S
O1908 C1870 1.435 . S
O1908 C1905 1.458 . S
O1909 C1861 1.468 . S
O1909 C1862 1.408 . S
H1910 C1851 0.980 . S
H1911 C1850 0.959 . S
H1912 C1850 0.959 . S
H1913 C1850 0.960 . S
H1914 C1853 0.929 . S
H1915 C1857 0.929 . S
H1916 C1858 0.959 . S
H1917 C1858 0.961 . S
H1918 C1858 0.961 . S
H1919 C1859 0.960 . S
H1920 C1859 0.960 . S
H1921 C1859 0.961 . S
H1922 C1861 0.980 . S
H1923 C1860 0.961 . S
H1924 C1860 0.960 . S
H1925 C1860 0.959 . S
H1926 C1863 0.930 . S
H1927 C1867 0.931 . S
H1928 C1868 0.959 . S
H1929 C1868 0.961 . S
H1930 C1868 0.959 . S
H1931 C1869 0.960 . S
H1932 C1869 0.960 . S
H1933 C1869 0.960 . S
H1934 C1905 0.980 . S
H1935 C1871 0.930 . S
H1936 C1875 0.930 . S
H1937 C1876 0.961 . S
H1938 C1876 0.960 . S
H1939 C1876 0.958 . S
H1940 C1877 0.961 . S
H1941 C1877 0.960 . S
H1942 C1877 0.960 . S
H1943 C1879 0.980 . S
H1944 C1878 0.961 . S
H1945 C1878 0.961 . S
H1946 C1878 0.959 . S
H1947 C1881 0.932 . S
H1948 C1885 0.929 . S
H1949 C1886 0.961 . S
H1950 C1886 0.959 . S
H1951 C1886 0.959 . S
H1952 C1887 0.960 . S
H1953 C1887 0.962 . S
H1954 C1887 0.961 . S
H1955 C1889 0.929 . S
H1956 C1892 0.930 . S
H1957 C1893 0.929 . S
H1958 C1896 0.930 . S
H1959 C1899 0.929 . S
H1960 C1900 0.930 . S
H1961 C1904 0.962 . S
H1962 C1904 0.959 . S
H1963 C1904 0.958 . S
C1964 C1965 1.560 . S
C1964 H2025 0.959 . S
C1964 H2026 0.959 . S
C1964 H2027 0.960 . S
C1965 C1964 1.560 . S
C1965 O2020 1.426 . S
C1965 H2024 0.980 . S
C1966 C1967 1.407 . S
C1966 C1971 1.418 . S
C1966 O2020 1.334 . S
C1967 C1966 1.407 . S
C1967 C1968 1.360 . S
C1967 H2028 0.929 . S
C1968 C1967 1.360 . S
C1968 C1969 1.401 . S
C1968 C1972 1.527 . S
C1969 C1968 1.401 . S
C1969 C1970 1.405 . S
C1969 C2002 1.587 . S
C1970 C1969 1.405 . S
C1970 C1971 1.332 . S
C1970 C1973 1.496 . S
C1971 C1966 1.418 . S
C1971 C1970 1.332 . S
C1971 H2029 0.929 . S
C1972 C1968 1.527 . S
C1972 H2030 0.959 . S
C1972 H2031 0.961 . S
C1972 H2032 0.961 . S
C1973 C1970 1.496 . S
C1973 H2033 0.960 . S
C1973 H2034 0.960 . S
C1973 H2035 0.961 . S
C1974 C1975 1.517 . S
C1974 H2037 0.961 . S
C1974 H2038 0.960 . S
C1974 H2039 0.959 . S
C1975 C1974 1.517 . S
C1975 O2023 1.468 . S
C1975 H2036 0.980 . S
C1976 C1977 1.349 . S
C1976 C1981 1.367 . S
C1976 O2023 1.408 . S
C1977 C1976 1.349 . S
C1977 C1978 1.407 . S
C1977 H2040 0.930 . S
C1978 C1977 1.407 . S
C1978 C1979 1.449 . S
C1978 C1982 1.535 . S
C1979 C1978 1.449 . S
C1979 C1980 1.384 . S
C1979 C2004 1.553 . S
C1980 C1979 1.384 . S
C1980 C1981 1.364 . S
C1980 C1983 1.450 . S
C1981 C1976 1.367 . S
C1981 C1980 1.364 . S
C1981 H2041 0.931 . S
C1982 C1978 1.535 . S
C1982 H2042 0.959 . S
C1982 H2043 0.961 . S
C1982 H2044 0.959 . S
C1983 C1980 1.450 . S
C1983 H2045 0.960 . S
C1983 H2046 0.960 . S
C1983 H2047 0.960 . S
C1984 C1985 1.309 . S
C1984 C1989 1.304 . S
C1984 O2022 1.435 . S
C1985 C1984 1.309 . S
C1985 C1986 1.476 . S
C1985 H2049 0.930 . S
C1986 C1985 1.476 . S
C1986 C1987 1.400 . S
C1986 C1990 1.567 . S
C1987 C1986 1.400 . S
C1987 C1988 1.373 . S
C1987 C2009 1.432 . S
C1988 C1987 1.373 . S
C1988 C1989 1.339 . S
C1988 C1991 1.530 . S
C1989 C1984 1.304 . S
C1989 C1988 1.339 . S
C1989 H2050 0.930 . S
C1990 C1986 1.567 . S
C1990 H2051 0.961 . S
C1990 H2052 0.960 . S
C1990 H2053 0.958 . S
C1991 C1988 1.530 . S
C1991 H2054 0.961 . S
C1991 H2055 0.960 . S
C1991 H2056 0.960 . S
C1992 C1993 1.530 . S
C1992 H2058 0.961 . S
C1992 H2059 0.961 . S
C1992 H2060 0.959 . S
C1993 C1992 1.530 . S
C1993 O2021 1.412 . S
C1993 H2057 0.980 . S
C1994 C1995 1.288 . S
C1994 C1999 1.377 . S
C1994 O2021 1.393 . S
C1995 C1994 1.288 . S
C1995 C1996 1.369 . S
C1995 H2061 0.932 . S
C1996 C1995 1.369 . S
C1996 C1997 1.398 . S
C1996 C2000 1.527 . S
C1997 C1996 1.398 . S
C1997 C1998 1.380 . S
C1997 C2011 1.497 . S
C1998 C1997 1.380 . S
C1998 C1999 1.383 . S
C1998 C2001 1.603 . S
C1999 C1994 1.377 . S
C1999 C1998 1.383 . S
C1999 H2062 0.929 . S
C2000 C1996 1.527 . S
C2000 H2063 0.961 . S
C2000 H2064 0.959 . S
C2000 H2065 0.959 . S
C2001 C1998 1.603 . S
C2001 H2066 0.960 . S
C2001 H2067 0.962 . S
C2001 H2068 0.961 . S
C2002 C1969 1.587 . S
C2002 C2003 1.360 . S
C2002 C2015 1.412 . S
C2003 C2002 1.360 . S
C2003 C2004 1.365 1_455 S
C2003 H2069 0.929 . S
C2004 C1979 1.553 . S
C2004 C2003 1.365 1_655 S
C2004 C2005 1.404 . S
C2005 C2004 1.404 . S
C2005 C2006 1.395 . S
C2005 C2016 1.451 1_655 S
C2006 C2005 1.395 . S
C2006 C2007 1.322 . S
C2006 H2070 0.930 . S
C2007 C2006 1.322 . S
C2007 C2008 1.459 . S
C2007 H2071 0.929 . S
C2008 C2007 1.459 . S
C2008 C2009 1.445 . S
C2008 C2017 1.395 1_655 S
C2009 C1987 1.432 . S
C2009 C2008 1.445 . S
C2009 C2010 1.370 1_655 S
C2010 C2009 1.370 1_455 S
C2010 C2011 1.438 . S
C2010 H2072 0.930 . S
C2011 C1997 1.497 . S
C2011 C2010 1.438 . S
C2011 C2012 1.360 . S
C2012 C2011 1.360 . S
C2012 C2013 1.401 . S
C2012 C2017 1.446 . S
C2013 C2012 1.401 . S
C2013 C2014 1.347 . S
C2013 H2073 0.929 . S
C2014 C2013 1.347 . S
C2014 C2015 1.455 . S
C2014 H2074 0.930 . S
C2015 C2002 1.412 . S
C2015 C2014 1.455 . S
C2015 C2016 1.331 . S
C2016 C2005 1.451 1_455 S
C2016 C2015 1.331 . S
C2016 C2017 1.497 . S
C2017 C2008 1.395 1_455 S
C2017 C2012 1.446 . S
C2017 C2016 1.497 . S
C2018 C2019 1.582 . S
C2018 H2075 0.962 . S
C2018 H2076 0.959 . S
C2018 H2077 0.958 . S
C2019 C2018 1.582 . S
C2019 O2022 1.458 . S
C2019 H2048 0.980 . S
O2020 C1965 1.426 . S
O2020 C1966 1.334 . S
O2021 C1993 1.412 . S
O2021 C1994 1.393 . S
O2022 C1984 1.435 . S
O2022 C2019 1.458 . S
O2023 C1975 1.468 . S
O2023 C1976 1.408 . S
H2024 C1965 0.980 . S
H2025 C1964 0.959 . S
H2026 C1964 0.959 . S
H2027 C1964 0.960 . S
H2028 C1967 0.929 . S
H2029 C1971 0.929 . S
H2030 C1972 0.959 . S
H2031 C1972 0.961 . S
H2032 C1972 0.961 . S
H2033 C1973 0.960 . S
H2034 C1973 0.960 . S
H2035 C1973 0.961 . S
H2036 C1975 0.980 . S
H2037 C1974 0.961 . S
H2038 C1974 0.960 . S
H2039 C1974 0.959 . S
H2040 C1977 0.930 . S
H2041 C1981 0.931 . S
H2042 C1982 0.959 . S
H2043 C1982 0.961 . S
H2044 C1982 0.959 . S
H2045 C1983 0.960 . S
H2046 C1983 0.960 . S
H2047 C1983 0.960 . S
H2048 C2019 0.980 . S
H2049 C1985 0.930 . S
H2050 C1989 0.930 . S
H2051 C1990 0.961 . S
H2052 C1990 0.960 . S
H2053 C1990 0.958 . S
H2054 C1991 0.961 . S
H2055 C1991 0.960 . S
H2056 C1991 0.960 . S
H2057 C1993 0.980 . S
H2058 C1992 0.961 . S
H2059 C1992 0.961 . S
H2060 C1992 0.959 . S
H2061 C1995 0.932 . S
H2062 C1999 0.929 . S
H2063 C2000 0.961 . S
H2064 C2000 0.959 . S
H2065 C2000 0.959 . S
H2066 C2001 0.960 . S
H2067 C2001 0.962 . S
H2068 C2001 0.961 . S
H2069 C2003 0.929 . S
H2070 C2006 0.930 . S
H2071 C2007 0.929 . S
H2072 C2010 0.930 . S
H2073 C2013 0.929 . S
H2074 C2014 0.930 . S
H2075 C2018 0.962 . S
H2076 C2018 0.959 . S
H2077 C2018 0.958 . S
C2078 C2079 1.560 . S
C2078 H2139 0.959 . S
C2078 H2140 0.959 . S
C2078 H2141 0.960 . S
C2079 C2078 1.560 . S
C2079 O2134 1.426 . S
C2079 H2138 0.980 . S
C2080 C2081 1.407 . S
C2080 C2085 1.418 . S
C2080 O2134 1.334 . S
C2081 C2080 1.407 . S
C2081 C2082 1.360 . S
C2081 H2142 0.929 . S
C2082 C2081 1.360 . S
C2082 C2083 1.401 . S
C2082 C2086 1.527 . S
C2083 C2082 1.401 . S
C2083 C2084 1.405 . S
C2083 C2116 1.587 . S
C2084 C2083 1.405 . S
C2084 C2085 1.332 . S
C2084 C2087 1.496 . S
C2085 C2080 1.418 . S
C2085 C2084 1.332 . S
C2085 H2143 0.929 . S
C2086 C2082 1.527 . S
C2086 H2144 0.959 . S
C2086 H2145 0.961 . S
C2086 H2146 0.961 . S
C2087 C2084 1.496 . S
C2087 H2147 0.960 . S
C2087 H2148 0.960 . S
C2087 H2149 0.961 . S
C2088 C2089 1.517 . S
C2088 H2151 0.961 . S
C2088 H2152 0.960 . S
C2088 H2153 0.959 . S
C2089 C2088 1.517 . S
C2089 O2137 1.468 . S
C2089 H2150 0.980 . S
C2090 C2091 1.349 . S
C2090 C2095 1.367 . S
C2090 O2137 1.408 . S
C2091 C2090 1.349 . S
C2091 C2092 1.407 . S
C2091 H2154 0.930 . S
C2092 C2091 1.407 . S
C2092 C2093 1.449 . S
C2092 C2096 1.535 . S
C2093 C2092 1.449 . S
C2093 C2094 1.384 . S
C2093 C2118 1.553 . S
C2094 C2093 1.384 . S
C2094 C2095 1.364 . S
C2094 C2097 1.450 . S
C2095 C2090 1.367 . S
C2095 C2094 1.364 . S
C2095 H2155 0.931 . S
C2096 C2092 1.535 . S
C2096 H2156 0.959 . S
C2096 H2157 0.961 . S
C2096 H2158 0.959 . S
C2097 C2094 1.450 . S
C2097 H2159 0.960 . S
C2097 H2160 0.960 . S
C2097 H2161 0.960 . S
C2098 C2099 1.309 . S
C2098 C2103 1.304 . S
C2098 O2136 1.435 . S
C2099 C2098 1.309 . S
C2099 C2100 1.476 . S
C2099 H2163 0.930 . S
C2100 C2099 1.476 . S
C2100 C2101 1.400 . S
C2100 C2104 1.567 . S
C2101 C2100 1.400 . S
C2101 C2102 1.373 . S
C2101 C2123 1.432 . S
C2102 C2101 1.373 . S
C2102 C2103 1.339 . S
C2102 C2105 1.530 . S
C2103 C2098 1.304 . S
C2103 C2102 1.339 . S
C2103 H2164 0.930 . S
C2104 C2100 1.567 . S
C2104 H2165 0.961 . S
C2104 H2166 0.960 . S
C2104 H2167 0.958 . S
C2105 C2102 1.530 . S
C2105 H2168 0.961 . S
C2105 H2169 0.960 . S
C2105 H2170 0.960 . S
C2106 C2107 1.530 . S
C2106 H2172 0.961 . S
C2106 H2173 0.961 . S
C2106 H2174 0.959 . S
C2107 C2106 1.530 . S
C2107 O2135 1.412 . S
C2107 H2171 0.980 . S
C2108 C2109 1.288 . S
C2108 C2113 1.377 . S
C2108 O2135 1.393 . S
C2109 C2108 1.288 . S
C2109 C2110 1.369 . S
C2109 H2175 0.932 . S
C2110 C2109 1.369 . S
C2110 C2111 1.398 . S
C2110 C2114 1.527 . S
C2111 C2110 1.398 . S
C2111 C2112 1.380 . S
C2111 C2125 1.497 . S
C2112 C2111 1.380 . S
C2112 C2113 1.383 . S
C2112 C2115 1.603 . S
C2113 C2108 1.377 . S
C2113 C2112 1.383 . S
C2113 H2176 0.929 . S
C2114 C2110 1.527 . S
C2114 H2177 0.961 . S
C2114 H2178 0.959 . S
C2114 H2179 0.959 . S
C2115 C2112 1.603 . S
C2115 H2180 0.960 . S
C2115 H2181 0.962 . S
C2115 H2182 0.961 . S
C2116 C2083 1.587 . S
C2116 C2117 1.360 1_565 S
C2116 C2129 1.412 . S
C2117 C2116 1.360 1_545 S
C2117 C2118 1.365 . S
C2117 H2183 0.929 . S
C2118 C2093 1.553 . S
C2118 C2117 1.365 . S
C2118 C2119 1.404 . S
C2119 C2118 1.404 . S
C2119 C2120 1.395 . S
C2119 C2130 1.563 . S
C2120 C2119 1.395 . S
C2120 C2121 1.322 . S
C2120 H2184 0.930 . S
C2121 C2120 1.322 . S
C2121 C2122 1.459 . S
C2121 H2185 0.929 . S
C2122 C2121 1.459 . S
C2122 C2123 1.445 . S
C2122 C2131 1.395 . S
C2123 C2101 1.432 . S
C2123 C2122 1.445 . S
C2123 C2124 1.370 . S
C2124 C2123 1.370 . S
C2124 C2125 1.438 1_545 S
C2124 H2186 0.930 . S
C2125 C2111 1.497 . S
C2125 C2124 1.438 1_565 S
C2125 C2126 1.360 . S
C2126 C2125 1.360 . S
C2126 C2127 1.401 . S
C2126 C2131 1.446 1_565 S
C2127 C2126 1.401 . S
C2127 C2128 1.347 . S
C2127 H2187 0.929 . S
C2128 C2127 1.347 . S
C2128 C2129 1.455 . S
C2128 H2188 0.930 . S
C2129 C2116 1.412 . S
C2129 C2128 1.455 . S
C2129 C2130 1.222 1_565 S
C2130 C2119 1.563 . S
C2130 C2129 1.222 1_545 S
C2130 C2131 1.508 . S
C2131 C2122 1.395 . S
C2131 C2126 1.446 1_545 S
C2131 C2130 1.508 . S
C2132 C2133 1.582 . S
C2132 H2189 0.962 . S
C2132 H2190 0.959 . S
C2132 H2191 0.958 . S
C2133 C2132 1.582 . S
C2133 O2136 1.458 . S
C2133 H2162 0.980 . S
O2134 C2079 1.426 . S
O2134 C2080 1.334 . S
O2135 C2107 1.412 . S
O2135 C2108 1.393 . S
O2136 C2098 1.435 . S
O2136 C2133 1.458 . S
O2137 C2089 1.468 . S
O2137 C2090 1.408 . S
H2138 C2079 0.980 . S
H2139 C2078 0.959 . S
H2140 C2078 0.959 . S
H2141 C2078 0.960 . S
H2142 C2081 0.929 . S
H2143 C2085 0.929 . S
H2144 C2086 0.959 . S
H2145 C2086 0.961 . S
H2146 C2086 0.961 . S
H2147 C2087 0.960 . S
H2148 C2087 0.960 . S
H2149 C2087 0.961 . S
H2150 C2089 0.980 . S
H2151 C2088 0.961 . S
H2152 C2088 0.960 . S
H2153 C2088 0.959 . S
H2154 C2091 0.930 . S
H2155 C2095 0.931 . S
H2156 C2096 0.959 . S
H2157 C2096 0.961 . S
H2158 C2096 0.959 . S
H2159 C2097 0.960 . S
H2160 C2097 0.960 . S
H2161 C2097 0.960 . S
H2162 C2133 0.980 . S
H2163 C2099 0.930 . S
H2164 C2103 0.930 . S
H2165 C2104 0.961 . S
H2166 C2104 0.960 . S
H2167 C2104 0.958 . S
H2168 C2105 0.961 . S
H2169 C2105 0.960 . S
H2170 C2105 0.960 . S
H2171 C2107 0.980 . S
H2172 C2106 0.961 . S
H2173 C2106 0.961 . S
H2174 C2106 0.959 . S
H2175 C2109 0.932 . S
H2176 C2113 0.929 . S
H2177 C2114 0.961 . S
H2178 C2114 0.959 . S
H2179 C2114 0.959 . S
H2180 C2115 0.960 . S
H2181 C2115 0.962 . S
H2182 C2115 0.961 . S
H2183 C2117 0.929 . S
H2184 C2120 0.930 . S
H2185 C2121 0.929 . S
H2186 C2124 0.930 . S
H2187 C2127 0.929 . S
H2188 C2128 0.930 . S
H2189 C2132 0.962 . S
H2190 C2132 0.959 . S
H2191 C2132 0.958 . S
C2192 C2193 1.560 . S
C2192 H2253 0.959 . S
C2192 H2254 0.959 . S
C2192 H2255 0.960 . S
C2193 C2192 1.560 . S
C2193 O2248 1.426 . S
C2193 H2252 0.980 . S
C2194 C2195 1.407 . S
C2194 C2199 1.418 . S
C2194 O2248 1.334 . S
C2195 C2194 1.407 . S
C2195 C2196 1.360 . S
C2195 H2256 0.929 . S
C2196 C2195 1.360 . S
C2196 C2197 1.401 . S
C2196 C2200 1.527 . S
C2197 C2196 1.401 . S
C2197 C2198 1.405 . S
C2197 C2230 1.587 . S
C2198 C2197 1.405 . S
C2198 C2199 1.332 . S
C2198 C2201 1.496 . S
C2199 C2194 1.418 . S
C2199 C2198 1.332 . S
C2199 H2257 0.929 . S
C2200 C2196 1.527 . S
C2200 H2258 0.959 . S
C2200 H2259 0.961 . S
C2200 H2260 0.961 . S
C2201 C2198 1.496 . S
C2201 H2261 0.960 . S
C2201 H2262 0.960 . S
C2201 H2263 0.961 . S
C2202 C2203 1.517 . S
C2202 H2265 0.961 . S
C2202 H2266 0.960 . S
C2202 H2267 0.959 . S
C2203 C2202 1.517 . S
C2203 O2251 1.468 . S
C2203 H2264 0.980 . S
C2204 C2205 1.349 . S
C2204 C2209 1.367 . S
C2204 O2251 1.408 . S
C2205 C2204 1.349 . S
C2205 C2206 1.407 . S
C2205 H2268 0.930 . S
C2206 C2205 1.407 . S
C2206 C2207 1.449 . S
C2206 C2210 1.535 . S
C2207 C2206 1.449 . S
C2207 C2208 1.384 . S
C2207 C2232 1.553 . S
C2208 C2207 1.384 . S
C2208 C2209 1.364 . S
C2208 C2211 1.450 . S
C2209 C2204 1.367 . S
C2209 C2208 1.364 . S
C2209 H2269 0.931 . S
C2210 C2206 1.535 . S
C2210 H2270 0.959 . S
C2210 H2271 0.961 . S
C2210 H2272 0.959 . S
C2211 C2208 1.450 . S
C2211 H2273 0.960 . S
C2211 H2274 0.960 . S
C2211 H2275 0.960 . S
C2212 C2213 1.309 . S
C2212 C2217 1.304 . S
C2212 O2250 1.435 . S
C2213 C2212 1.309 . S
C2213 C2214 1.476 . S
C2213 H2277 0.930 . S
C2214 C2213 1.476 . S
C2214 C2215 1.400 . S
C2214 C2218 1.567 . S
C2215 C2214 1.400 . S
C2215 C2216 1.373 . S
C2215 C2237 1.432 . S
C2216 C2215 1.373 . S
C2216 C2217 1.339 . S
C2216 C2219 1.530 . S
C2217 C2212 1.304 . S
C2217 C2216 1.339 . S
C2217 H2278 0.930 . S
C2218 C2214 1.567 . S
C2218 H2279 0.961 . S
C2218 H2280 0.960 . S
C2218 H2281 0.958 . S
C2219 C2216 1.530 . S
C2219 H2282 0.961 . S
C2219 H2283 0.960 . S
C2219 H2284 0.960 . S
C2220 C2221 1.530 . S
C2220 H2286 0.961 . S
C2220 H2287 0.961 . S
C2220 H2288 0.959 . S
C2221 C2220 1.530 . S
C2221 O2249 1.412 . S
C2221 H2285 0.980 . S
C2222 C2223 1.288 . S
C2222 C2227 1.377 . S
C2222 O2249 1.393 . S
C2223 C2222 1.288 . S
C2223 C2224 1.369 . S
C2223 H2289 0.932 . S
C2224 C2223 1.369 . S
C2224 C2225 1.398 . S
C2224 C2228 1.527 . S
C2225 C2224 1.398 . S
C2225 C2226 1.380 . S
C2225 C2239 1.497 . S
C2226 C2225 1.380 . S
C2226 C2227 1.383 . S
C2226 C2229 1.603 . S
C2227 C2222 1.377 . S
C2227 C2226 1.383 . S
C2227 H2290 0.929 . S
C2228 C2224 1.527 . S
C2228 H2291 0.961 . S
C2228 H2292 0.959 . S
C2228 H2293 0.959 . S
C2229 C2226 1.603 . S
C2229 H2294 0.960 . S
C2229 H2295 0.962 . S
C2229 H2296 0.961 . S
C2230 C2197 1.587 . S
C2230 C2231 1.360 1_655 S
C2230 C2243 1.412 . S
C2231 C2230 1.360 1_455 S
C2231 C2232 1.365 . S
C2231 H2297 0.929 . S
C2232 C2207 1.553 . S
C2232 C2231 1.365 . S
C2232 C2233 1.404 . S
C2233 C2232 1.404 . S
C2233 C2234 1.395 . S
C2233 C2244 1.451 . S
C2234 C2233 1.395 . S
C2234 C2235 1.322 . S
C2234 H2298 0.930 . S
C2235 C2234 1.322 . S
C2235 C2236 1.459 . S
C2235 H2299 0.929 . S
C2236 C2235 1.459 . S
C2236 C2237 1.445 . S
C2236 C2245 1.395 . S
C2237 C2215 1.432 . S
C2237 C2236 1.445 . S
C2237 C2238 1.370 . S
C2238 C2237 1.370 . S
C2238 C2239 1.438 1_455 S
C2238 H2300 0.930 . S
C2239 C2225 1.497 . S
C2239 C2238 1.438 1_655 S
C2239 C2240 1.360 . S
C2240 C2239 1.360 . S
C2240 C2241 1.401 . S
C2240 C2245 1.446 1_655 S
C2241 C2240 1.401 . S
C2241 C2242 1.347 . S
C2241 H2301 0.929 . S
C2242 C2241 1.347 . S
C2242 C2243 1.455 . S
C2242 H2302 0.930 . S
C2243 C2230 1.412 . S
C2243 C2242 1.455 . S
C2243 C2244 1.331 1_655 S
C2244 C2233 1.451 . S
C2244 C2243 1.331 1_455 S
C2244 C2245 1.497 . S
C2245 C2236 1.395 . S
C2245 C2240 1.446 1_455 S
C2245 C2244 1.497 . S
C2246 C2247 1.582 . S
C2246 H2303 0.962 . S
C2246 H2304 0.959 . S
C2246 H2305 0.958 . S
C2247 C2246 1.582 . S
C2247 O2250 1.458 . S
C2247 H2276 0.980 . S
O2248 C2193 1.426 . S
O2248 C2194 1.334 . S
O2249 C2221 1.412 . S
O2249 C2222 1.393 . S
O2250 C2212 1.435 . S
O2250 C2247 1.458 . S
O2251 C2203 1.468 . S
O2251 C2204 1.408 . S
H2252 C2193 0.980 . S
H2253 C2192 0.959 . S
H2254 C2192 0.959 . S
H2255 C2192 0.960 . S
H2256 C2195 0.929 . S
H2257 C2199 0.929 . S
H2258 C2200 0.959 . S
H2259 C2200 0.961 . S
H2260 C2200 0.961 . S
H2261 C2201 0.960 . S
H2262 C2201 0.960 . S
H2263 C2201 0.961 . S
H2264 C2203 0.980 . S
H2265 C2202 0.961 . S
H2266 C2202 0.960 . S
H2267 C2202 0.959 . S
H2268 C2205 0.930 . S
H2269 C2209 0.931 . S
H2270 C2210 0.959 . S
H2271 C2210 0.961 . S
H2272 C2210 0.959 . S
H2273 C2211 0.960 . S
H2274 C2211 0.960 . S
H2275 C2211 0.960 . S
H2276 C2247 0.980 . S
H2277 C2213 0.930 . S
H2278 C2217 0.930 . S
H2279 C2218 0.961 . S
H2280 C2218 0.960 . S
H2281 C2218 0.958 . S
H2282 C2219 0.961 . S
H2283 C2219 0.960 . S
H2284 C2219 0.960 . S
H2285 C2221 0.980 . S
H2286 C2220 0.961 . S
H2287 C2220 0.961 . S
H2288 C2220 0.959 . S
H2289 C2223 0.932 . S
H2290 C2227 0.929 . S
H2291 C2228 0.961 . S
H2292 C2228 0.959 . S
H2293 C2228 0.959 . S
H2294 C2229 0.960 . S
H2295 C2229 0.962 . S
H2296 C2229 0.961 . S
H2297 C2231 0.929 . S
H2298 C2234 0.930 . S
H2299 C2235 0.929 . S
H2300 C2238 0.930 . S
H2301 C2241 0.929 . S
H2302 C2242 0.930 . S
H2303 C2246 0.962 . S
H2304 C2246 0.959 . S
H2305 C2246 0.958 . S
C2306 C2307 1.560 . S
C2306 H2367 0.959 . S
C2306 H2368 0.959 . S
C2306 H2369 0.960 . S
C2307 C2306 1.560 . S
C2307 O2362 1.426 . S
C2307 H2366 0.980 . S
C2308 C2309 1.407 . S
C2308 C2313 1.418 . S
C2308 O2362 1.334 . S
C2309 C2308 1.407 . S
C2309 C2310 1.360 . S
C2309 H2370 0.929 . S
C2310 C2309 1.360 . S
C2310 C2311 1.401 . S
C2310 C2314 1.527 . S
C2311 C2310 1.401 . S
C2311 C2312 1.405 . S
C2311 C2344 1.587 . S
C2312 C2311 1.405 . S
C2312 C2313 1.332 . S
C2312 C2315 1.496 . S
C2313 C2308 1.418 . S
C2313 C2312 1.332 . S
C2313 H2371 0.929 . S
C2314 C2310 1.527 . S
C2314 H2372 0.959 . S
C2314 H2373 0.961 . S
C2314 H2374 0.961 . S
C2315 C2312 1.496 . S
C2315 H2375 0.960 . S
C2315 H2376 0.960 . S
C2315 H2377 0.961 . S
C2316 C2317 1.517 . S
C2316 H2379 0.961 . S
C2316 H2380 0.960 . S
C2316 H2381 0.959 . S
C2317 C2316 1.517 . S
C2317 O2365 1.468 . S
C2317 H2378 0.980 . S
C2318 C2319 1.349 . S
C2318 C2323 1.367 . S
C2318 O2365 1.408 . S
C2319 C2318 1.349 . S
C2319 C2320 1.407 . S
C2319 H2382 0.930 . S
C2320 C2319 1.407 . S
C2320 C2321 1.449 . S
C2320 C2324 1.535 . S
C2321 C2320 1.449 . S
C2321 C2322 1.384 . S
C2321 C2346 1.553 . S
C2322 C2321 1.384 . S
C2322 C2323 1.364 . S
C2322 C2325 1.450 . S
C2323 C2318 1.367 . S
C2323 C2322 1.364 . S
C2323 H2383 0.931 . S
C2324 C2320 1.535 . S
C2324 H2384 0.959 . S
C2324 H2385 0.961 . S
C2324 H2386 0.959 . S
C2325 C2322 1.450 . S
C2325 H2387 0.960 . S
C2325 H2388 0.960 . S
C2325 H2389 0.960 . S
C2326 C2327 1.309 . S
C2326 C2331 1.304 . S
C2326 O2364 1.435 . S
C2327 C2326 1.309 . S
C2327 C2328 1.476 . S
C2327 H2391 0.930 . S
C2328 C2327 1.476 . S
C2328 C2329 1.400 . S
C2328 C2332 1.567 . S
C2329 C2328 1.400 . S
C2329 C2330 1.373 . S
C2329 C2351 1.432 . S
C2330 C2329 1.373 . S
C2330 C2331 1.339 . S
C2330 C2333 1.530 . S
C2331 C2326 1.304 . S
C2331 C2330 1.339 . S
C2331 H2392 0.930 . S
C2332 C2328 1.567 . S
C2332 H2393 0.961 . S
C2332 H2394 0.960 . S
C2332 H2395 0.958 . S
C2333 C2330 1.530 . S
C2333 H2396 0.961 . S
C2333 H2397 0.960 . S
C2333 H2398 0.960 . S
C2334 C2335 1.530 . S
C2334 H2400 0.961 . S
C2334 H2401 0.961 . S
C2334 H2402 0.959 . S
C2335 C2334 1.530 . S
C2335 O2363 1.412 . S
C2335 H2399 0.980 . S
C2336 C2337 1.288 . S
C2336 C2341 1.377 . S
C2336 O2363 1.393 . S
C2337 C2336 1.288 . S
C2337 C2338 1.369 . S
C2337 H2403 0.932 . S
C2338 C2337 1.369 . S
C2338 C2339 1.398 . S
C2338 C2342 1.527 . S
C2339 C2338 1.398 . S
C2339 C2340 1.380 . S
C2339 C2353 1.497 . S
C2340 C2339 1.380 . S
C2340 C2341 1.383 . S
C2340 C2343 1.603 . S
C2341 C2336 1.377 . S
C2341 C2340 1.383 . S
C2341 H2404 0.929 . S
C2342 C2338 1.527 . S
C2342 H2405 0.961 . S
C2342 H2406 0.959 . S
C2342 H2407 0.959 . S
C2343 C2340 1.603 . S
C2343 H2408 0.960 . S
C2343 H2409 0.962 . S
C2343 H2410 0.961 . S
C2344 C2311 1.587 . S
C2344 C2345 1.360 . S
C2344 C2357 1.412 . S
C2345 C2344 1.360 . S
C2345 C2346 1.365 1_545 S
C2345 H2411 0.929 . S
C2346 C2321 1.553 . S
C2346 C2345 1.365 1_565 S
C2346 C2347 1.404 . S
C2347 C2346 1.404 . S
C2347 C2348 1.395 . S
C2347 C2358 1.451 1_565 S
C2348 C2347 1.395 . S
C2348 C2349 1.322 . S
C2348 H2412 0.930 . S
C2349 C2348 1.322 . S
C2349 C2350 1.459 . S
C2349 H2413 0.929 . S
C2350 C2349 1.459 . S
C2350 C2351 1.445 . S
C2350 C2359 1.395 1_565 S
C2351 C2329 1.432 . S
C2351 C2350 1.445 . S
C2351 C2352 1.370 1_565 S
C2352 C2351 1.370 1_545 S
C2352 C2353 1.438 . S
C2352 H2414 0.930 . S
C2353 C2339 1.497 . S
C2353 C2352 1.438 . S
C2353 C2354 1.360 . S
C2354 C2353 1.360 . S
C2354 C2355 1.401 . S
C2354 C2359 1.446 . S
C2355 C2354 1.401 . S
C2355 C2356 1.347 . S
C2355 H2415 0.929 . S
C2356 C2355 1.347 . S
C2356 C2357 1.455 . S
C2356 H2416 0.930 . S
C2357 C2344 1.412 . S
C2357 C2356 1.455 . S
C2357 C2358 1.331 . S
C2358 C2347 1.451 1_545 S
C2358 C2357 1.331 . S
C2358 C2359 1.497 . S
C2359 C2350 1.395 1_545 S
C2359 C2354 1.446 . S
C2359 C2358 1.497 . S
C2360 C2361 1.582 . S
C2360 H2417 0.962 . S
C2360 H2418 0.959 . S
C2360 H2419 0.958 . S
C2361 C2360 1.582 . S
C2361 O2364 1.458 . S
C2361 H2390 0.980 . S
O2362 C2307 1.426 . S
O2362 C2308 1.334 . S
O2363 C2335 1.412 . S
O2363 C2336 1.393 . S
O2364 C2326 1.435 . S
O2364 C2361 1.458 . S
O2365 C2317 1.468 . S
O2365 C2318 1.408 . S
H2366 C2307 0.980 . S
H2367 C2306 0.959 . S
H2368 C2306 0.959 . S
H2369 C2306 0.960 . S
H2370 C2309 0.929 . S
H2371 C2313 0.929 . S
H2372 C2314 0.959 . S
H2373 C2314 0.961 . S
H2374 C2314 0.961 . S
H2375 C2315 0.960 . S
H2376 C2315 0.960 . S
H2377 C2315 0.961 . S
H2378 C2317 0.980 . S
H2379 C2316 0.961 . S
H2380 C2316 0.960 . S
H2381 C2316 0.959 . S
H2382 C2319 0.930 . S
H2383 C2323 0.931 . S
H2384 C2324 0.959 . S
H2385 C2324 0.961 . S
H2386 C2324 0.959 . S
H2387 C2325 0.960 . S
H2388 C2325 0.960 . S
H2389 C2325 0.960 . S
H2390 C2361 0.980 . S
H2391 C2327 0.930 . S
H2392 C2331 0.930 . S
H2393 C2332 0.961 . S
H2394 C2332 0.960 . S
H2395 C2332 0.958 . S
H2396 C2333 0.961 . S
H2397 C2333 0.960 . S
H2398 C2333 0.960 . S
H2399 C2335 0.980 . S
H2400 C2334 0.961 . S
H2401 C2334 0.961 . S
H2402 C2334 0.959 . S
H2403 C2337 0.932 . S
H2404 C2341 0.929 . S
H2405 C2342 0.961 . S
H2406 C2342 0.959 . S
H2407 C2342 0.959 . S
H2408 C2343 0.960 . S
H2409 C2343 0.962 . S
H2410 C2343 0.961 . S
H2411 C2345 0.929 . S
H2412 C2348 0.930 . S
H2413 C2349 0.929 . S
H2414 C2352 0.930 . S
H2415 C2355 0.929 . S
H2416 C2356 0.930 . S
H2417 C2360 0.962 . S
H2418 C2360 0.959 . S
H2419 C2360 0.958 . S
C2420 C2421 1.560 . S
C2420 H2481 0.959 . S
C2420 H2482 0.959 . S
C2420 H2483 0.960 . S
C2421 C2420 1.560 . S
C2421 O2476 1.426 . S
C2421 H2480 0.980 . S
C2422 C2423 1.407 . S
C2422 C2427 1.418 . S
C2422 O2476 1.334 . S
C2423 C2422 1.407 . S
C2423 C2424 1.360 . S
C2423 H2484 0.929 . S
C2424 C2423 1.360 . S
C2424 C2425 1.401 . S
C2424 C2428 1.527 . S
C2425 C2424 1.401 . S
C2425 C2426 1.405 . S
C2425 C2458 1.587 . S
C2426 C2425 1.405 . S
C2426 C2427 1.332 . S
C2426 C2429 1.496 . S
C2427 C2422 1.418 . S
C2427 C2426 1.332 . S
C2427 H2485 0.929 . S
C2428 C2424 1.527 . S
C2428 H2486 0.959 . S
C2428 H2487 0.961 . S
C2428 H2488 0.961 . S
C2429 C2426 1.496 . S
C2429 H2489 0.960 . S
C2429 H2490 0.960 . S
C2429 H2491 0.961 . S
C2430 C2431 1.517 . S
C2430 H2493 0.961 . S
C2430 H2494 0.960 . S
C2430 H2495 0.959 . S
C2431 C2430 1.517 . S
C2431 O2479 1.468 . S
C2431 H2492 0.980 . S
C2432 C2433 1.349 . S
C2432 C2437 1.367 . S
C2432 O2479 1.408 . S
C2433 C2432 1.349 . S
C2433 C2434 1.407 . S
C2433 H2496 0.930 . S
C2434 C2433 1.407 . S
C2434 C2435 1.449 . S
C2434 C2438 1.535 . S
C2435 C2434 1.449 . S
C2435 C2436 1.384 . S
C2435 C2460 1.553 . S
C2436 C2435 1.384 . S
C2436 C2437 1.364 . S
C2436 C2439 1.450 . S
C2437 C2432 1.367 . S
C2437 C2436 1.364 . S
C2437 H2497 0.931 . S
C2438 C2434 1.535 . S
C2438 H2498 0.959 . S
C2438 H2499 0.961 . S
C2438 H2500 0.959 . S
C2439 C2436 1.450 . S
C2439 H2501 0.960 . S
C2439 H2502 0.960 . S
C2439 H2503 0.960 . S
C2440 C2441 1.309 . S
C2440 C2445 1.304 . S
C2440 O2478 1.435 . S
C2441 C2440 1.309 . S
C2441 C2442 1.476 . S
C2441 H2505 0.930 . S
C2442 C2441 1.476 . S
C2442 C2443 1.400 . S
C2442 C2446 1.567 . S
C2443 C2442 1.400 . S
C2443 C2444 1.373 . S
C2443 C2465 1.432 . S
C2444 C2443 1.373 . S
C2444 C2445 1.339 . S
C2444 C2447 1.530 . S
C2445 C2440 1.304 . S
C2445 C2444 1.339 . S
C2445 H2506 0.930 . S
C2446 C2442 1.567 . S
C2446 H2507 0.961 . S
C2446 H2508 0.960 . S
C2446 H2509 0.958 . S
C2447 C2444 1.530 . S
C2447 H2510 0.961 . S
C2447 H2511 0.960 . S
C2447 H2512 0.960 . S
C2448 C2449 1.530 . S
C2448 H2514 0.961 . S
C2448 H2515 0.961 . S
C2448 H2516 0.959 . S
C2449 C2448 1.530 . S
C2449 O2477 1.412 . S
C2449 H2513 0.980 . S
C2450 C2451 1.288 . S
C2450 C2455 1.377 . S
C2450 O2477 1.393 . S
C2451 C2450 1.288 . S
C2451 C2452 1.369 . S
C2451 H2517 0.932 . S
C2452 C2451 1.369 . S
C2452 C2453 1.398 . S
C2452 C2456 1.527 . S
C2453 C2452 1.398 . S
C2453 C2454 1.380 . S
C2453 C2467 1.497 . S
C2454 C2453 1.380 . S
C2454 C2455 1.383 . S
C2454 C2457 1.603 . S
C2455 C2450 1.377 . S
C2455 C2454 1.383 . S
C2455 H2518 0.929 . S
C2456 C2452 1.527 . S
C2456 H2519 0.961 . S
C2456 H2520 0.959 . S
C2456 H2521 0.959 . S
C2457 C2454 1.603 . S
C2457 H2522 0.960 . S
C2457 H2523 0.962 . S
C2457 H2524 0.961 . S
C2458 C2425 1.587 . S
C2458 C2459 1.368 1_655 S
C2458 C2471 1.412 . S
C2459 C2458 1.368 1_455 S
C2459 C2460 1.357 . S
C2459 H2525 0.930 1_455 S
C2460 C2435 1.553 . S
C2460 C2459 1.357 . S
C2460 C2461 1.404 . S
C2461 C2460 1.404 . S
C2461 C2462 1.395 . S
C2461 C2472 1.441 . S
C2462 C2461 1.395 . S
C2462 C2463 1.322 . S
C2462 H2526 0.930 . S
C2463 C2462 1.322 . S
C2463 C2464 1.459 . S
C2463 H2527 0.929 . S
C2464 C2463 1.459 . S
C2464 C2465 1.445 . S
C2464 C2473 1.437 . S
C2465 C2443 1.432 . S
C2465 C2464 1.445 . S
C2465 C2466 1.459 . S
C2466 C2465 1.459 . S
C2466 C2467 1.349 1_455 S
C2466 H2528 0.930 . S
C2467 C2453 1.497 . S
C2467 C2466 1.349 1_655 S
C2467 C2468 1.360 . S
C2468 C2467 1.360 . S
C2468 C2469 1.401 . S
C2468 C2473 1.407 1_655 S
C2469 C2468 1.401 . S
C2469 C2470 1.347 . S
C2469 H2529 0.929 . S
C2470 C2469 1.347 . S
C2470 C2471 1.455 . S
C2470 H2530 0.930 . S
C2471 C2458 1.412 . S
C2471 C2470 1.455 . S
C2471 C2472 1.341 1_655 S
C2472 C2461 1.441 . S
C2472 C2471 1.341 1_455 S
C2472 C2473 1.495 . S
C2473 C2464 1.437 . S
C2473 C2468 1.407 1_455 S
C2473 C2472 1.495 . S
C2474 C2475 1.582 . S
C2474 H2531 0.962 . S
C2474 H2532 0.959 . S
C2474 H2533 0.958 . S
C2475 C2474 1.582 . S
C2475 O2478 1.458 . S
C2475 H2504 0.980 . S
O2476 C2421 1.426 . S
O2476 C2422 1.334 . S
O2477 C2449 1.412 . S
O2477 C2450 1.393 . S
O2478 C2440 1.435 . S
O2478 C2475 1.458 . S
O2479 C2431 1.468 . S
O2479 C2432 1.408 . S
H2480 C2421 0.980 . S
H2481 C2420 0.959 . S
H2482 C2420 0.959 . S
H2483 C2420 0.960 . S
H2484 C2423 0.929 . S
H2485 C2427 0.929 . S
H2486 C2428 0.959 . S
H2487 C2428 0.961 . S
H2488 C2428 0.961 . S
H2489 C2429 0.960 . S
H2490 C2429 0.960 . S
H2491 C2429 0.961 . S
H2492 C2431 0.980 . S
H2493 C2430 0.961 . S
H2494 C2430 0.960 . S
H2495 C2430 0.959 . S
H2496 C2433 0.930 . S
H2497 C2437 0.931 . S
H2498 C2438 0.959 . S
H2499 C2438 0.961 . S
H2500 C2438 0.959 . S
H2501 C2439 0.960 . S
H2502 C2439 0.960 . S
H2503 C2439 0.960 . S
H2504 C2475 0.980 . S
H2505 C2441 0.930 . S
H2506 C2445 0.930 . S
H2507 C2446 0.961 . S
H2508 C2446 0.960 . S
H2509 C2446 0.958 . S
H2510 C2447 0.961 . S
H2511 C2447 0.960 . S
H2512 C2447 0.960 . S
H2513 C2449 0.980 . S
H2514 C2448 0.961 . S
H2515 C2448 0.961 . S
H2516 C2448 0.959 . S
H2517 C2451 0.932 . S
H2518 C2455 0.929 . S
H2519 C2456 0.961 . S
H2520 C2456 0.959 . S
H2521 C2456 0.959 . S
H2522 C2457 0.960 . S
H2523 C2457 0.962 . S
H2524 C2457 0.961 . S
H2525 C2459 0.930 1_655 S
H2526 C2462 0.930 . S
H2527 C2463 0.929 . S
H2528 C2466 0.930 . S
H2529 C2469 0.929 . S
H2530 C2470 0.930 . S
H2531 C2474 0.962 . S
H2532 C2474 0.959 . S
H2533 C2474 0.958 . S
C2534 C2535 1.560 . S
C2534 H2595 0.959 . S
C2534 H2596 0.959 . S
C2534 H2597 0.960 . S
C2535 C2534 1.560 . S
C2535 O2590 1.426 . S
C2535 H2594 0.980 . S
C2536 C2537 1.407 . S
C2536 C2541 1.418 . S
C2536 O2590 1.334 . S
C2537 C2536 1.407 . S
C2537 C2538 1.360 . S
C2537 H2598 0.929 . S
C2538 C2537 1.360 . S
C2538 C2539 1.401 . S
C2538 C2542 1.527 . S
C2539 C2538 1.401 . S
C2539 C2540 1.405 . S
C2539 C2572 1.587 . S
C2540 C2539 1.405 . S
C2540 C2541 1.332 . S
C2540 C2543 1.496 . S
C2541 C2536 1.418 . S
C2541 C2540 1.332 . S
C2541 H2599 0.929 . S
C2542 C2538 1.527 . S
C2542 H2600 0.959 . S
C2542 H2601 0.961 . S
C2542 H2602 0.961 . S
C2543 C2540 1.496 . S
C2543 H2603 0.960 . S
C2543 H2604 0.960 . S
C2543 H2605 0.961 . S
C2544 C2545 1.517 . S
C2544 H2607 0.961 . S
C2544 H2608 0.960 . S
C2544 H2609 0.959 . S
C2545 C2544 1.517 . S
C2545 O2593 1.468 . S
C2545 H2606 0.980 . S
C2546 C2547 1.349 . S
C2546 C2551 1.367 . S
C2546 O2593 1.408 . S
C2547 C2546 1.349 . S
C2547 C2548 1.407 . S
C2547 H2610 0.930 . S
C2548 C2547 1.407 . S
C2548 C2549 1.449 . S
C2548 C2552 1.535 . S
C2549 C2548 1.449 . S
C2549 C2550 1.384 . S
C2549 C2574 1.553 . S
C2550 C2549 1.384 . S
C2550 C2551 1.364 . S
C2550 C2553 1.450 . S
C2551 C2546 1.367 . S
C2551 C2550 1.364 . S
C2551 H2611 0.931 . S
C2552 C2548 1.535 . S
C2552 H2612 0.959 . S
C2552 H2613 0.961 . S
C2552 H2614 0.959 . S
C2553 C2550 1.450 . S
C2553 H2615 0.960 . S
C2553 H2616 0.960 . S
C2553 H2617 0.960 . S
C2554 C2555 1.309 . S
C2554 C2559 1.304 . S
C2554 O2592 1.435 . S
C2555 C2554 1.309 . S
C2555 C2556 1.476 . S
C2555 H2619 0.930 . S
C2556 C2555 1.476 . S
C2556 C2557 1.400 . S
C2556 C2560 1.567 . S
C2557 C2556 1.400 . S
C2557 C2558 1.373 . S
C2557 C2579 1.432 . S
C2558 C2557 1.373 . S
C2558 C2559 1.339 . S
C2558 C2561 1.530 . S
C2559 C2554 1.304 . S
C2559 C2558 1.339 . S
C2559 H2620 0.930 . S
C2560 C2556 1.567 . S
C2560 H2621 0.961 . S
C2560 H2622 0.960 . S
C2560 H2623 0.958 . S
C2561 C2558 1.530 . S
C2561 H2624 0.961 . S
C2561 H2625 0.960 . S
C2561 H2626 0.960 . S
C2562 C2563 1.530 . S
C2562 H2628 0.961 . S
C2562 H2629 0.961 . S
C2562 H2630 0.959 . S
C2563 C2562 1.530 . S
C2563 O2591 1.412 . S
C2563 H2627 0.980 . S
C2564 C2565 1.288 . S
C2564 C2569 1.377 . S
C2564 O2591 1.393 . S
C2565 C2564 1.288 . S
C2565 C2566 1.369 . S
C2565 H2631 0.932 . S
C2566 C2565 1.369 . S
C2566 C2567 1.398 . S
C2566 C2570 1.527 . S
C2567 C2566 1.398 . S
C2567 C2568 1.380 . S
C2567 C2581 1.497 . S
C2568 C2567 1.380 . S
C2568 C2569 1.383 . S
C2568 C2571 1.603 . S
C2569 C2564 1.377 . S
C2569 C2568 1.383 . S
C2569 H2632 0.929 . S
C2570 C2566 1.527 . S
C2570 H2633 0.961 . S
C2570 H2634 0.959 . S
C2570 H2635 0.959 . S
C2571 C2568 1.603 . S
C2571 H2636 0.960 . S
C2571 H2637 0.962 . S
C2571 H2638 0.961 . S
C2572 C2539 1.587 . S
C2572 C2573 1.380 . S
C2572 C2585 1.412 . S
C2573 C2572 1.380 . S
C2573 C2574 1.344 1_565 S
C2573 H2639 0.929 . S
C2574 C2549 1.553 . S
C2574 C2573 1.344 1_545 S
C2574 C2575 1.404 . S
C2575 C2574 1.404 . S
C2575 C2576 1.395 . S
C2575 C2586 1.455 1_545 S
C2576 C2575 1.395 . S
C2576 C2577 1.322 . S
C2576 H2640 0.930 . S
C2577 C2576 1.322 . S
C2577 C2578 1.459 . S
C2577 H2641 0.929 . S
C2578 C2577 1.459 . S
C2578 C2579 1.445 . S
C2578 C2587 1.441 . S
C2579 C2557 1.432 . S
C2579 C2578 1.445 . S
C2579 C2580 1.370 . S
C2580 C2579 1.370 . S
C2580 C2581 1.438 1_545 S
C2580 H2642 0.930 . S
C2581 C2567 1.497 . S
C2581 C2580 1.438 1_565 S
C2581 C2582 1.360 . S
C2582 C2581 1.360 . S
C2582 C2583 1.401 . S
C2582 C2587 1.402 1_565 S
C2583 C2582 1.401 . S
C2583 C2584 1.347 . S
C2583 H2643 0.929 . S
C2584 C2583 1.347 . S
C2584 C2585 1.455 . S
C2584 H2644 0.930 . S
C2585 C2572 1.412 . S
C2585 C2584 1.455 . S
C2585 C2586 1.327 . S
C2586 C2575 1.455 1_565 S
C2586 C2585 1.327 . S
C2586 C2587 1.495 1_565 S
C2587 C2578 1.441 . S
C2587 C2582 1.402 1_545 S
C2587 C2586 1.495 1_545 S
C2588 C2589 1.582 . S
C2588 H2645 0.962 . S
C2588 H2646 0.959 . S
C2588 H2647 0.958 . S
C2589 C2588 1.582 . S
C2589 O2592 1.458 . S
C2589 H2618 0.980 . S
O2590 C2535 1.426 . S
O2590 C2536 1.334 . S
O2591 C2563 1.412 . S
O2591 C2564 1.393 . S
O2592 C2554 1.435 . S
O2592 C2589 1.458 . S
O2593 C2545 1.468 . S
O2593 C2546 1.408 . S
H2594 C2535 0.980 . S
H2595 C2534 0.959 . S
H2596 C2534 0.959 . S
H2597 C2534 0.960 . S
H2598 C2537 0.929 . S
H2599 C2541 0.929 . S
H2600 C2542 0.959 . S
H2601 C2542 0.961 . S
H2602 C2542 0.961 . S
H2603 C2543 0.960 . S
H2604 C2543 0.960 . S
H2605 C2543 0.961 . S
H2606 C2545 0.980 . S
H2607 C2544 0.961 . S
H2608 C2544 0.960 . S
H2609 C2544 0.959 . S
H2610 C2547 0.930 . S
H2611 C2551 0.931 . S
H2612 C2552 0.959 . S
H2613 C2552 0.961 . S
H2614 C2552 0.959 . S
H2615 C2553 0.960 . S
H2616 C2553 0.960 . S
H2617 C2553 0.960 . S
H2618 C2589 0.980 . S
H2619 C2555 0.930 . S
H2620 C2559 0.930 . S
H2621 C2560 0.961 . S
H2622 C2560 0.960 . S
H2623 C2560 0.958 . S
H2624 C2561 0.961 . S
H2625 C2561 0.960 . S
H2626 C2561 0.960 . S
H2627 C2563 0.980 . S
H2628 C2562 0.961 . S
H2629 C2562 0.961 . S
H2630 C2562 0.959 . S
H2631 C2565 0.932 . S
H2632 C2569 0.929 . S
H2633 C2570 0.961 . S
H2634 C2570 0.959 . S
H2635 C2570 0.959 . S
H2636 C2571 0.960 . S
H2637 C2571 0.962 . S
H2638 C2571 0.961 . S
H2639 C2573 0.929 . S
H2640 C2576 0.930 . S
H2641 C2577 0.929 . S
H2642 C2580 0.930 . S
H2643 C2583 0.929 . S
H2644 C2584 0.930 . S
H2645 C2588 0.962 . S
H2646 C2588 0.959 . S
H2647 C2588 0.958 . S
C2648 C2649 1.560 . S
C2648 H2709 0.959 . S
C2648 H2710 0.959 . S
C2648 H2711 0.960 . S
C2649 C2648 1.560 . S
C2649 O2704 1.426 . S
C2649 H2708 0.980 . S
C2650 C2651 1.407 . S
C2650 C2655 1.418 . S
C2650 O2704 1.334 . S
C2651 C2650 1.407 . S
C2651 C2652 1.360 . S
C2651 H2712 0.929 . S
C2652 C2651 1.360 . S
C2652 C2653 1.401 . S
C2652 C2656 1.527 . S
C2653 C2652 1.401 . S
C2653 C2654 1.405 . S
C2653 C2686 1.587 . S
C2654 C2653 1.405 . S
C2654 C2655 1.332 . S
C2654 C2657 1.496 . S
C2655 C2650 1.418 . S
C2655 C2654 1.332 . S
C2655 H2713 0.929 . S
C2656 C2652 1.527 . S
C2656 H2714 0.959 . S
C2656 H2715 0.961 . S
C2656 H2716 0.961 . S
C2657 C2654 1.496 . S
C2657 H2717 0.960 . S
C2657 H2718 0.960 . S
C2657 H2719 0.961 . S
C2658 C2659 1.517 . S
C2658 H2721 0.961 . S
C2658 H2722 0.960 . S
C2658 H2723 0.959 . S
C2659 C2658 1.517 . S
C2659 O2707 1.468 . S
C2659 H2720 0.980 . S
C2660 C2661 1.349 . S
C2660 C2665 1.367 . S
C2660 O2707 1.408 . S
C2661 C2660 1.349 . S
C2661 C2662 1.407 . S
C2661 H2724 0.930 . S
C2662 C2661 1.407 . S
C2662 C2663 1.449 . S
C2662 C2666 1.535 . S
C2663 C2662 1.449 . S
C2663 C2664 1.384 . S
C2663 C2688 1.553 . S
C2664 C2663 1.384 . S
C2664 C2665 1.364 . S
C2664 C2667 1.450 . S
C2665 C2660 1.367 . S
C2665 C2664 1.364 . S
C2665 H2725 0.931 . S
C2666 C2662 1.535 . S
C2666 H2726 0.959 . S
C2666 H2727 0.961 . S
C2666 H2728 0.959 . S
C2667 C2664 1.450 . S
C2667 H2729 0.960 . S
C2667 H2730 0.960 . S
C2667 H2731 0.960 . S
C2668 C2669 1.309 . S
C2668 C2673 1.304 . S
C2668 O2706 1.435 . S
C2669 C2668 1.309 . S
C2669 C2670 1.476 . S
C2669 H2733 0.930 . S
C2670 C2669 1.476 . S
C2670 C2671 1.400 . S
C2670 C2674 1.567 . S
C2671 C2670 1.400 . S
C2671 C2672 1.373 . S
C2671 C2693 1.432 . S
C2672 C2671 1.373 . S
C2672 C2673 1.339 . S
C2672 C2675 1.530 . S
C2673 C2668 1.304 . S
C2673 C2672 1.339 . S
C2673 H2734 0.930 . S
C2674 C2670 1.567 . S
C2674 H2735 0.961 . S
C2674 H2736 0.960 . S
C2674 H2737 0.958 . S
C2675 C2672 1.530 . S
C2675 H2738 0.961 . S
C2675 H2739 0.960 . S
C2675 H2740 0.960 . S
C2676 C2677 1.530 . S
C2676 H2742 0.961 . S
C2676 H2743 0.961 . S
C2676 H2744 0.959 . S
C2677 C2676 1.530 . S
C2677 O2705 1.412 . S
C2677 H2741 0.980 . S
C2678 C2679 1.288 . S
C2678 C2683 1.377 . S
C2678 O2705 1.393 . S
C2679 C2678 1.288 . S
C2679 C2680 1.369 . S
C2679 H2745 0.932 . S
C2680 C2679 1.369 . S
C2680 C2681 1.398 . S
C2680 C2684 1.527 . S
C2681 C2680 1.398 . S
C2681 C2682 1.380 . S
C2681 C2695 1.497 . S
C2682 C2681 1.380 . S
C2682 C2683 1.383 . S
C2682 C2685 1.603 . S
C2683 C2678 1.377 . S
C2683 C2682 1.383 . S
C2683 H2746 0.929 . S
C2684 C2680 1.527 . S
C2684 H2747 0.961 . S
C2684 H2748 0.959 . S
C2684 H2749 0.959 . S
C2685 C2682 1.603 . S
C2685 H2750 0.960 . S
C2685 H2751 0.962 . S
C2685 H2752 0.961 . S
C2686 C2653 1.587 . S
C2686 C2687 1.360 . S
C2686 C2699 1.412 . S
C2687 C2686 1.360 . S
C2687 C2688 1.365 . S
C2687 H2753 0.929 . S
C2688 C2663 1.553 . S
C2688 C2687 1.365 . S
C2688 C2689 1.404 . S
C2689 C2688 1.404 . S
C2689 C2690 1.395 . S
C2689 C2700 1.451 . S
C2690 C2689 1.395 . S
C2690 C2691 1.322 . S
C2690 H2754 0.930 . S
C2691 C2690 1.322 . S
C2691 C2692 1.459 . S
C2691 H2755 0.929 . S
C2692 C2691 1.459 . S
C2692 C2693 1.445 . S
C2692 C2701 1.395 . S
C2693 C2671 1.432 . S
C2693 C2692 1.445 . S
C2693 C2694 1.370 . S
C2694 C2693 1.370 . S
C2694 C2695 1.438 . S
C2694 H2756 0.930 . S
C2695 C2681 1.497 . S
C2695 C2694 1.438 . S
C2695 C2696 1.360 . S
C2696 C2695 1.360 . S
C2696 C2697 1.401 . S
C2696 C2701 1.446 . S
C2697 C2696 1.401 . S
C2697 C2698 1.347 . S
C2697 H2757 0.929 . S
C2698 C2697 1.347 . S
C2698 C2699 1.455 . S
C2698 H2758 0.930 . S
C2699 C2686 1.412 . S
C2699 C2698 1.455 . S
C2699 C2700 1.331 . S
C2700 C2689 1.451 . S
C2700 C2699 1.331 . S
C2700 C2701 1.497 . S
C2701 C2692 1.395 . S
C2701 C2696 1.446 . S
C2701 C2700 1.497 . S
C2702 C2703 1.582 . S
C2702 H2759 0.962 . S
C2702 H2760 0.959 . S
C2702 H2761 0.958 . S
C2703 C2702 1.582 . S
C2703 O2706 1.458 . S
C2703 H2732 0.980 . S
O2704 C2649 1.426 . S
O2704 C2650 1.334 . S
O2705 C2677 1.412 . S
O2705 C2678 1.393 . S
O2706 C2668 1.435 . S
O2706 C2703 1.458 . S
O2707 C2659 1.468 . S
O2707 C2660 1.408 . S
H2708 C2649 0.980 . S
H2709 C2648 0.959 . S
H2710 C2648 0.959 . S
H2711 C2648 0.960 . S
H2712 C2651 0.929 . S
H2713 C2655 0.929 . S
H2714 C2656 0.959 . S
H2715 C2656 0.961 . S
H2716 C2656 0.961 . S
H2717 C2657 0.960 . S
H2718 C2657 0.960 . S
H2719 C2657 0.961 . S
H2720 C2659 0.980 . S
H2721 C2658 0.961 . S
H2722 C2658 0.960 . S
H2723 C2658 0.959 . S
H2724 C2661 0.930 . S
H2725 C2665 0.931 . S
H2726 C2666 0.959 . S
H2727 C2666 0.961 . S
H2728 C2666 0.959 . S
H2729 C2667 0.960 . S
H2730 C2667 0.960 . S
H2731 C2667 0.960 . S
H2732 C2703 0.980 . S
H2733 C2669 0.930 . S
H2734 C2673 0.930 . S
H2735 C2674 0.961 . S
H2736 C2674 0.960 . S
H2737 C2674 0.958 . S
H2738 C2675 0.961 . S
H2739 C2675 0.960 . S
H2740 C2675 0.960 . S
H2741 C2677 0.980 . S
H2742 C2676 0.961 . S
H2743 C2676 0.961 . S
H2744 C2676 0.959 . S
H2745 C2679 0.932 . S
H2746 C2683 0.929 . S
H2747 C2684 0.961 . S
H2748 C2684 0.959 . S
H2749 C2684 0.959 . S
H2750 C2685 0.960 . S
H2751 C2685 0.962 . S
H2752 C2685 0.961 . S
H2753 C2687 0.929 . S
H2754 C2690 0.930 . S
H2755 C2691 0.929 . S
H2756 C2694 0.930 . S
H2757 C2697 0.929 . S
H2758 C2698 0.930 . S
H2759 C2702 0.962 . S
H2760 C2702 0.959 . S
H2761 C2702 0.958 . S
C2762 C2763 1.560 . S
C2762 H2823 0.959 . S
C2762 H2824 0.959 . S
C2762 H2825 0.960 . S
C2763 C2762 1.560 . S
C2763 O2818 1.426 . S
C2763 H2822 0.980 . S
C2764 C2765 1.407 . S
C2764 C2769 1.418 . S
C2764 O2818 1.334 . S
C2765 C2764 1.407 . S
C2765 C2766 1.360 . S
C2765 H2826 0.929 . S
C2766 C2765 1.360 . S
C2766 C2767 1.401 . S
C2766 C2770 1.527 . S
C2767 C2766 1.401 . S
C2767 C2768 1.405 . S
C2767 C2800 1.587 . S
C2768 C2767 1.405 . S
C2768 C2769 1.332 . S
C2768 C2771 1.496 . S
C2769 C2764 1.418 . S
C2769 C2768 1.332 . S
C2769 H2827 0.929 . S
C2770 C2766 1.527 . S
C2770 H2828 0.959 . S
C2770 H2829 0.961 . S
C2770 H2830 0.961 . S
C2771 C2768 1.496 . S
C2771 H2831 0.960 . S
C2771 H2832 0.960 . S
C2771 H2833 0.961 . S
C2772 C2773 1.517 . S
C2772 H2835 0.961 . S
C2772 H2836 0.960 . S
C2772 H2837 0.959 . S
C2773 C2772 1.517 . S
C2773 O2821 1.468 . S
C2773 H2834 0.980 . S
C2774 C2775 1.349 . S
C2774 C2779 1.367 . S
C2774 O2821 1.408 . S
C2775 C2774 1.349 . S
C2775 C2776 1.407 . S
C2775 H2838 0.930 . S
C2776 C2775 1.407 . S
C2776 C2777 1.449 . S
C2776 C2780 1.535 . S
C2777 C2776 1.449 . S
C2777 C2778 1.384 . S
C2777 C2802 1.553 . S
C2778 C2777 1.384 . S
C2778 C2779 1.364 . S
C2778 C2781 1.450 . S
C2779 C2774 1.367 . S
C2779 C2778 1.364 . S
C2779 H2839 0.931 . S
C2780 C2776 1.535 . S
C2780 H2840 0.959 . S
C2780 H2841 0.961 . S
C2780 H2842 0.959 . S
C2781 C2778 1.450 . S
C2781 H2843 0.960 . S
C2781 H2844 0.960 . S
C2781 H2845 0.960 . S
C2782 C2783 1.309 . S
C2782 C2787 1.304 . S
C2782 O2820 1.435 . S
C2783 C2782 1.309 . S
C2783 C2784 1.476 . S
C2783 H2847 0.930 . S
C2784 C2783 1.476 . S
C2784 C2785 1.400 . S
C2784 C2788 1.567 . S
C2785 C2784 1.400 . S
C2785 C2786 1.373 . S
C2785 C2807 1.432 . S
C2786 C2785 1.373 . S
C2786 C2787 1.339 . S
C2786 C2789 1.530 . S
C2787 C2782 1.304 . S
C2787 C2786 1.339 . S
C2787 H2848 0.930 . S
C2788 C2784 1.567 . S
C2788 H2849 0.961 . S
C2788 H2850 0.960 . S
C2788 H2851 0.958 . S
C2789 C2786 1.530 . S
C2789 H2852 0.961 . S
C2789 H2853 0.960 . S
C2789 H2854 0.960 . S
C2790 C2791 1.530 . S
C2790 H2856 0.961 . S
C2790 H2857 0.961 . S
C2790 H2858 0.959 . S
C2791 C2790 1.530 . S
C2791 O2819 1.412 . S
C2791 H2855 0.980 . S
C2792 C2793 1.288 . S
C2792 C2797 1.377 . S
C2792 O2819 1.393 . S
C2793 C2792 1.288 . S
C2793 C2794 1.369 . S
C2793 H2859 0.932 . S
C2794 C2793 1.369 . S
C2794 C2795 1.398 . S
C2794 C2798 1.527 . S
C2795 C2794 1.398 . S
C2795 C2796 1.380 . S
C2795 C2809 1.497 . S
C2796 C2795 1.380 . S
C2796 C2797 1.383 . S
C2796 C2799 1.603 . S
C2797 C2792 1.377 . S
C2797 C2796 1.383 . S
C2797 H2860 0.929 . S
C2798 C2794 1.527 . S
C2798 H2861 0.961 . S
C2798 H2862 0.959 . S
C2798 H2863 0.959 . S
C2799 C2796 1.603 . S
C2799 H2864 0.960 . S
C2799 H2865 0.962 . S
C2799 H2866 0.961 . S
C2800 C2767 1.587 . S
C2800 C2801 1.360 . S
C2800 C2813 1.412 . S
C2801 C2800 1.360 . S
C2801 C2802 1.365 . S
C2801 H2867 0.929 . S
C2802 C2777 1.553 . S
C2802 C2801 1.365 . S
C2802 C2803 1.404 . S
C2803 C2802 1.404 . S
C2803 C2804 1.395 . S
C2803 C2814 1.451 . S
C2804 C2803 1.395 . S
C2804 C2805 1.322 . S
C2804 H2868 0.930 . S
C2805 C2804 1.322 . S
C2805 C2806 1.459 . S
C2805 H2869 0.929 . S
C2806 C2805 1.459 . S
C2806 C2807 1.445 . S
C2806 C2815 1.395 . S
C2807 C2785 1.432 . S
C2807 C2806 1.445 . S
C2807 C2808 1.370 . S
C2808 C2807 1.370 . S
C2808 C2809 1.438 . S
C2808 H2870 0.930 . S
C2809 C2795 1.497 . S
C2809 C2808 1.438 . S
C2809 C2810 1.360 . S
C2810 C2809 1.360 . S
C2810 C2811 1.401 . S
C2810 C2815 1.446 . S
C2811 C2810 1.401 . S
C2811 C2812 1.347 . S
C2811 H2871 0.929 . S
C2812 C2811 1.347 . S
C2812 C2813 1.455 . S
C2812 H2872 0.930 . S
C2813 C2800 1.412 . S
C2813 C2812 1.455 . S
C2813 C2814 1.331 . S
C2814 C2803 1.451 . S
C2814 C2813 1.331 . S
C2814 C2815 1.497 . S
C2815 C2806 1.395 . S
C2815 C2810 1.446 . S
C2815 C2814 1.497 . S
C2816 C2817 1.582 . S
C2816 H2873 0.962 . S
C2816 H2874 0.959 . S
C2816 H2875 0.958 . S
C2817 C2816 1.582 . S
C2817 O2820 1.458 . S
C2817 H2846 0.980 . S
O2818 C2763 1.426 . S
O2818 C2764 1.334 . S
O2819 C2791 1.412 . S
O2819 C2792 1.393 . S
O2820 C2782 1.435 . S
O2820 C2817 1.458 . S
O2821 C2773 1.468 . S
O2821 C2774 1.408 . S
H2822 C2763 0.980 . S
H2823 C2762 0.959 . S
H2824 C2762 0.959 . S
H2825 C2762 0.960 . S
H2826 C2765 0.929 . S
H2827 C2769 0.929 . S
H2828 C2770 0.959 . S
H2829 C2770 0.961 . S
H2830 C2770 0.961 . S
H2831 C2771 0.960 . S
H2832 C2771 0.960 . S
H2833 C2771 0.961 . S
H2834 C2773 0.980 . S
H2835 C2772 0.961 . S
H2836 C2772 0.960 . S
H2837 C2772 0.959 . S
H2838 C2775 0.930 . S
H2839 C2779 0.931 . S
H2840 C2780 0.959 . S
H2841 C2780 0.961 . S
H2842 C2780 0.959 . S
H2843 C2781 0.960 . S
H2844 C2781 0.960 . S
H2845 C2781 0.960 . S
H2846 C2817 0.980 . S
H2847 C2783 0.930 . S
H2848 C2787 0.930 . S
H2849 C2788 0.961 . S
H2850 C2788 0.960 . S
H2851 C2788 0.958 . S
H2852 C2789 0.961 . S
H2853 C2789 0.960 . S
H2854 C2789 0.960 . S
H2855 C2791 0.980 . S
H2856 C2790 0.961 . S
H2857 C2790 0.961 . S
H2858 C2790 0.959 . S
H2859 C2793 0.932 . S
H2860 C2797 0.929 . S
H2861 C2798 0.961 . S
H2862 C2798 0.959 . S
H2863 C2798 0.959 . S
H2864 C2799 0.960 . S
H2865 C2799 0.962 . S
H2866 C2799 0.961 . S
H2867 C2801 0.929 . S
H2868 C2804 0.930 . S
H2869 C2805 0.929 . S
H2870 C2808 0.930 . S
H2871 C2811 0.929 . S
H2872 C2812 0.930 . S
H2873 C2816 0.962 . S
H2874 C2816 0.959 . S
H2875 C2816 0.958 . S
C2876 C2877 1.560 . S
C2876 H2937 0.959 . S
C2876 H2938 0.959 . S
C2876 H2939 0.960 . S
C2877 C2876 1.560 . S
C2877 O2932 1.426 . S
C2877 H2936 0.980 . S
C2878 C2879 1.407 . S
C2878 C2883 1.418 . S
C2878 O2932 1.334 . S
C2879 C2878 1.407 . S
C2879 C2880 1.360 . S
C2879 H2940 0.929 . S
C2880 C2879 1.360 . S
C2880 C2881 1.401 . S
C2880 C2884 1.527 . S
C2881 C2880 1.401 . S
C2881 C2882 1.405 . S
C2881 C2914 1.587 . S
C2882 C2881 1.405 . S
C2882 C2883 1.332 . S
C2882 C2885 1.496 . S
C2883 C2878 1.418 . S
C2883 C2882 1.332 . S
C2883 H2941 0.929 . S
C2884 C2880 1.527 . S
C2884 H2942 0.959 . S
C2884 H2943 0.961 . S
C2884 H2944 0.961 . S
C2885 C2882 1.496 . S
C2885 H2945 0.960 . S
C2885 H2946 0.960 . S
C2885 H2947 0.961 . S
C2886 C2887 1.517 . S
C2886 H2949 0.961 . S
C2886 H2950 0.960 . S
C2886 H2951 0.959 . S
C2887 C2886 1.517 . S
C2887 O2935 1.468 . S
C2887 H2948 0.980 . S
C2888 C2889 1.349 . S
C2888 C2893 1.367 . S
C2888 O2935 1.408 . S
C2889 C2888 1.349 . S
C2889 C2890 1.407 . S
C2889 H2952 0.930 . S
C2890 C2889 1.407 . S
C2890 C2891 1.449 . S
C2890 C2894 1.535 . S
C2891 C2890 1.449 . S
C2891 C2892 1.384 . S
C2891 C2916 1.553 . S
C2892 C2891 1.384 . S
C2892 C2893 1.364 . S
C2892 C2895 1.450 . S
C2893 C2888 1.367 . S
C2893 C2892 1.364 . S
C2893 H2953 0.931 . S
C2894 C2890 1.535 . S
C2894 H2954 0.959 . S
C2894 H2955 0.961 . S
C2894 H2956 0.959 . S
C2895 C2892 1.450 . S
C2895 H2957 0.960 . S
C2895 H2958 0.960 . S
C2895 H2959 0.960 . S
C2896 C2897 1.309 . S
C2896 C2901 1.304 . S
C2896 O2934 1.435 . S
C2897 C2896 1.309 . S
C2897 C2898 1.476 . S
C2897 H2961 0.930 . S
C2898 C2897 1.476 . S
C2898 C2899 1.400 . S
C2898 C2902 1.567 . S
C2899 C2898 1.400 . S
C2899 C2900 1.373 . S
C2899 C2921 1.432 . S
C2900 C2899 1.373 . S
C2900 C2901 1.339 . S
C2900 C2903 1.530 . S
C2901 C2896 1.304 . S
C2901 C2900 1.339 . S
C2901 H2962 0.930 . S
C2902 C2898 1.567 . S
C2902 H2963 0.961 . S
C2902 H2964 0.960 . S
C2902 H2965 0.958 . S
C2903 C2900 1.530 . S
C2903 H2966 0.961 . S
C2903 H2967 0.960 . S
C2903 H2968 0.960 . S
C2904 C2905 1.530 . S
C2904 H2970 0.961 . S
C2904 H2971 0.961 . S
C2904 H2972 0.959 . S
C2905 C2904 1.530 . S
C2905 O2933 1.412 . S
C2905 H2969 0.980 . S
C2906 C2907 1.288 . S
C2906 C2911 1.377 . S
C2906 O2933 1.393 . S
C2907 C2906 1.288 . S
C2907 C2908 1.369 . S
C2907 H2973 0.932 . S
C2908 C2907 1.369 . S
C2908 C2909 1.398 . S
C2908 C2912 1.527 . S
C2909 C2908 1.398 . S
C2909 C2910 1.380 . S
C2909 C2923 1.497 . S
C2910 C2909 1.380 . S
C2910 C2911 1.383 . S
C2910 C2913 1.603 . S
C2911 C2906 1.377 . S
C2911 C2910 1.383 . S
C2911 H2974 0.929 . S
C2912 C2908 1.527 . S
C2912 H2975 0.961 . S
C2912 H2976 0.959 . S
C2912 H2977 0.959 . S
C2913 C2910 1.603 . S
C2913 H2978 0.960 . S
C2913 H2979 0.962 . S
C2913 H2980 0.961 . S
C2914 C2881 1.587 . S
C2914 C2915 1.360 . S
C2914 C2927 1.412 . S
C2915 C2914 1.360 . S
C2915 C2916 1.365 . S
C2915 H2981 0.929 . S
C2916 C2891 1.553 . S
C2916 C2915 1.365 . S
C2916 C2917 1.404 . S
C2917 C2916 1.404 . S
C2917 C2918 1.395 . S
C2917 C2928 1.451 . S
C2918 C2917 1.395 . S
C2918 C2919 1.322 . S
C2918 H2982 0.930 . S
C2919 C2918 1.322 . S
C2919 C2920 1.459 . S
C2919 H2983 0.929 . S
C2920 C2919 1.459 . S
C2920 C2921 1.445 . S
C2920 C2929 1.395 . S
C2921 C2899 1.432 . S
C2921 C2920 1.445 . S
C2921 C2922 1.370 . S
C2922 C2921 1.370 . S
C2922 C2923 1.438 . S
C2922 H2984 0.930 . S
C2923 C2909 1.497 . S
C2923 C2922 1.438 . S
C2923 C2924 1.360 . S
C2924 C2923 1.360 . S
C2924 C2925 1.401 . S
C2924 C2929 1.446 . S
C2925 C2924 1.401 . S
C2925 C2926 1.347 . S
C2925 H2985 0.929 . S
C2926 C2925 1.347 . S
C2926 C2927 1.455 . S
C2926 H2986 0.930 . S
C2927 C2914 1.412 . S
C2927 C2926 1.455 . S
C2927 C2928 1.331 . S
C2928 C2917 1.451 . S
C2928 C2927 1.331 . S
C2928 C2929 1.497 . S
C2929 C2920 1.395 . S
C2929 C2924 1.446 . S
C2929 C2928 1.497 . S
C2930 C2931 1.582 . S
C2930 H2987 0.962 . S
C2930 H2988 0.959 . S
C2930 H2989 0.958 . S
C2931 C2930 1.582 . S
C2931 O2934 1.458 . S
C2931 H2960 0.980 . S
O2932 C2877 1.426 . S
O2932 C2878 1.334 . S
O2933 C2905 1.412 . S
O2933 C2906 1.393 . S
O2934 C2896 1.435 . S
O2934 C2931 1.458 . S
O2935 C2887 1.468 . S
O2935 C2888 1.408 . S
H2936 C2877 0.980 . S
H2937 C2876 0.959 . S
H2938 C2876 0.959 . S
H2939 C2876 0.960 . S
H2940 C2879 0.929 . S
H2941 C2883 0.929 . S
H2942 C2884 0.959 . S
H2943 C2884 0.961 . S
H2944 C2884 0.961 . S
H2945 C2885 0.960 . S
H2946 C2885 0.960 . S
H2947 C2885 0.961 . S
H2948 C2887 0.980 . S
H2949 C2886 0.961 . S
H2950 C2886 0.960 . S
H2951 C2886 0.959 . S
H2952 C2889 0.930 . S
H2953 C2893 0.931 . S
H2954 C2894 0.959 . S
H2955 C2894 0.961 . S
H2956 C2894 0.959 . S
H2957 C2895 0.960 . S
H2958 C2895 0.960 . S
H2959 C2895 0.960 . S
H2960 C2931 0.980 . S
H2961 C2897 0.930 . S
H2962 C2901 0.930 . S
H2963 C2902 0.961 . S
H2964 C2902 0.960 . S
H2965 C2902 0.958 . S
H2966 C2903 0.961 . S
H2967 C2903 0.960 . S
H2968 C2903 0.960 . S
H2969 C2905 0.980 . S
H2970 C2904 0.961 . S
H2971 C2904 0.961 . S
H2972 C2904 0.959 . S
H2973 C2907 0.932 . S
H2974 C2911 0.929 . S
H2975 C2912 0.961 . S
H2976 C2912 0.959 . S
H2977 C2912 0.959 . S
H2978 C2913 0.960 . S
H2979 C2913 0.962 . S
H2980 C2913 0.961 . S
H2981 C2915 0.929 . S
H2982 C2918 0.930 . S
H2983 C2919 0.929 . S
H2984 C2922 0.930 . S
H2985 C2925 0.929 . S
H2986 C2926 0.930 . S
H2987 C2930 0.962 . S
H2988 C2930 0.959 . S
H2989 C2930 0.958 . S
C2990 C2991 1.560 . S
C2990 H3051 0.959 . S
C2990 H3052 0.959 . S
C2990 H3053 0.960 . S
C2991 C2990 1.560 . S
C2991 O3046 1.426 . S
C2991 H3050 0.980 . S
C2992 C2993 1.407 . S
C2992 C2997 1.418 . S
C2992 O3046 1.334 . S
C2993 C2992 1.407 . S
C2993 C2994 1.360 . S
C2993 H3054 0.929 . S
C2994 C2993 1.360 . S
C2994 C2995 1.401 . S
C2994 C2998 1.527 . S
C2995 C2994 1.401 . S
C2995 C2996 1.405 . S
C2995 C3028 1.587 . S
C2996 C2995 1.405 . S
C2996 C2997 1.332 . S
C2996 C2999 1.496 . S
C2997 C2992 1.418 . S
C2997 C2996 1.332 . S
C2997 H3055 0.929 . S
C2998 C2994 1.527 . S
C2998 H3056 0.959 . S
C2998 H3057 0.961 . S
C2998 H3058 0.961 . S
C2999 C2996 1.496 . S
C2999 H3059 0.960 . S
C2999 H3060 0.960 . S
C2999 H3061 0.961 . S
C3000 C3001 1.517 . S
C3000 H3063 0.961 . S
C3000 H3064 0.960 . S
C3000 H3065 0.959 . S
C3001 C3000 1.517 . S
C3001 O3049 1.468 . S
C3001 H3062 0.980 . S
C3002 C3003 1.349 . S
C3002 C3007 1.367 . S
C3002 O3049 1.408 . S
C3003 C3002 1.349 . S
C3003 C3004 1.407 . S
C3003 H3066 0.930 . S
C3004 C3003 1.407 . S
C3004 C3005 1.449 . S
C3004 C3008 1.535 . S
C3005 C3004 1.449 . S
C3005 C3006 1.384 . S
C3005 C3030 1.553 . S
C3006 C3005 1.384 . S
C3006 C3007 1.364 . S
C3006 C3009 1.450 . S
C3007 C3002 1.367 . S
C3007 C3006 1.364 . S
C3007 H3067 0.931 . S
C3008 C3004 1.535 . S
C3008 H3068 0.959 . S
C3008 H3069 0.961 . S
C3008 H3070 0.959 . S
C3009 C3006 1.450 . S
C3009 H3071 0.960 . S
C3009 H3072 0.960 . S
C3009 H3073 0.960 . S
C3010 C3011 1.309 . S
C3010 C3015 1.304 . S
C3010 O3048 1.435 . S
C3011 C3010 1.309 . S
C3011 C3012 1.476 . S
C3011 H3075 0.930 . S
C3012 C3011 1.476 . S
C3012 C3013 1.400 . S
C3012 C3016 1.567 . S
C3013 C3012 1.400 . S
C3013 C3014 1.373 . S
C3013 C3035 1.432 . S
C3014 C3013 1.373 . S
C3014 C3015 1.339 . S
C3014 C3017 1.530 . S
C3015 C3010 1.304 . S
C3015 C3014 1.339 . S
C3015 H3076 0.930 . S
C3016 C3012 1.567 . S
C3016 H3077 0.961 . S
C3016 H3078 0.960 . S
C3016 H3079 0.958 . S
C3017 C3014 1.530 . S
C3017 H3080 0.961 . S
C3017 H3081 0.960 . S
C3017 H3082 0.960 . S
C3018 C3019 1.530 . S
C3018 H3084 0.961 . S
C3018 H3085 0.961 . S
C3018 H3086 0.959 . S
C3019 C3018 1.530 . S
C3019 O3047 1.412 . S
C3019 H3083 0.980 . S
C3020 C3021 1.288 . S
C3020 C3025 1.377 . S
C3020 O3047 1.393 . S
C3021 C3020 1.288 . S
C3021 C3022 1.369 . S
C3021 H3087 0.932 . S
C3022 C3021 1.369 . S
C3022 C3023 1.398 . S
C3022 C3026 1.527 . S
C3023 C3022 1.398 . S
C3023 C3024 1.380 . S
C3023 C3037 1.497 . S
C3024 C3023 1.380 . S
C3024 C3025 1.383 . S
C3024 C3027 1.603 . S
C3025 C3020 1.377 . S
C3025 C3024 1.383 . S
C3025 H3088 0.929 . S
C3026 C3022 1.527 . S
C3026 H3089 0.961 . S
C3026 H3090 0.959 . S
C3026 H3091 0.959 . S
C3027 C3024 1.603 . S
C3027 H3092 0.960 . S
C3027 H3093 0.962 . S
C3027 H3094 0.961 . S
C3028 C2995 1.587 . S
C3028 C3029 1.360 . S
C3028 C3041 1.412 . S
C3029 C3028 1.360 . S
C3029 C3030 1.365 . S
C3029 H3095 0.929 . S
C3030 C3005 1.553 . S
C3030 C3029 1.365 . S
C3030 C3031 1.404 . S
C3031 C3030 1.404 . S
C3031 C3032 1.395 . S
C3031 C3042 1.451 . S
C3032 C3031 1.395 . S
C3032 C3033 1.322 . S
C3032 H3096 0.930 . S
C3033 C3032 1.322 . S
C3033 C3034 1.459 . S
C3033 H3097 0.929 . S
C3034 C3033 1.459 . S
C3034 C3035 1.445 . S
C3034 C3043 1.395 . S
C3035 C3013 1.432 . S
C3035 C3034 1.445 . S
C3035 C3036 1.370 . S
C3036 C3035 1.370 . S
C3036 C3037 1.438 . S
C3036 H3098 0.930 . S
C3037 C3023 1.497 . S
C3037 C3036 1.438 . S
C3037 C3038 1.360 . S
C3038 C3037 1.360 . S
C3038 C3039 1.401 . S
C3038 C3043 1.446 . S
C3039 C3038 1.401 . S
C3039 C3040 1.347 . S
C3039 H3099 0.929 . S
C3040 C3039 1.347 . S
C3040 C3041 1.455 . S
C3040 H3100 0.930 . S
C3041 C3028 1.412 . S
C3041 C3040 1.455 . S
C3041 C3042 1.331 . S
C3042 C3031 1.451 . S
C3042 C3041 1.331 . S
C3042 C3043 1.497 . S
C3043 C3034 1.395 . S
C3043 C3038 1.446 . S
C3043 C3042 1.497 . S
C3044 C3045 1.582 . S
C3044 H3101 0.962 . S
C3044 H3102 0.959 . S
C3044 H3103 0.958 . S
C3045 C3044 1.582 . S
C3045 O3048 1.458 . S
C3045 H3074 0.980 . S
O3046 C2991 1.426 . S
O3046 C2992 1.334 . S
O3047 C3019 1.412 . S
O3047 C3020 1.393 . S
O3048 C3010 1.435 . S
O3048 C3045 1.458 . S
O3049 C3001 1.468 . S
O3049 C3002 1.408 . S
H3050 C2991 0.980 . S
H3051 C2990 0.959 . S
H3052 C2990 0.959 . S
H3053 C2990 0.960 . S
H3054 C2993 0.929 . S
H3055 C2997 0.929 . S
H3056 C2998 0.959 . S
H3057 C2998 0.961 . S
H3058 C2998 0.961 . S
H3059 C2999 0.960 . S
H3060 C2999 0.960 . S
H3061 C2999 0.961 . S
H3062 C3001 0.980 . S
H3063 C3000 0.961 . S
H3064 C3000 0.960 . S
H3065 C3000 0.959 . S
H3066 C3003 0.930 . S
H3067 C3007 0.931 . S
H3068 C3008 0.959 . S
H3069 C3008 0.961 . S
H3070 C3008 0.959 . S
H3071 C3009 0.960 . S
H3072 C3009 0.960 . S
H3073 C3009 0.960 . S
H3074 C3045 0.980 . S
H3075 C3011 0.930 . S
H3076 C3015 0.930 . S
H3077 C3016 0.961 . S
H3078 C3016 0.960 . S
H3079 C3016 0.958 . S
H3080 C3017 0.961 . S
H3081 C3017 0.960 . S
H3082 C3017 0.960 . S
H3083 C3019 0.980 . S
H3084 C3018 0.961 . S
H3085 C3018 0.961 . S
H3086 C3018 0.959 . S
H3087 C3021 0.932 . S
H3088 C3025 0.929 . S
H3089 C3026 0.961 . S
H3090 C3026 0.959 . S
H3091 C3026 0.959 . S
H3092 C3027 0.960 . S
H3093 C3027 0.962 . S
H3094 C3027 0.961 . S
H3095 C3029 0.929 . S
H3096 C3032 0.930 . S
H3097 C3033 0.929 . S
H3098 C3036 0.930 . S
H3099 C3039 0.929 . S
H3100 C3040 0.930 . S
H3101 C3044 0.962 . S
H3102 C3044 0.959 . S
H3103 C3044 0.958 . S
C3104 C3105 1.560 . S
C3104 H3165 0.959 . S
C3104 H3166 0.959 . S
C3104 H3167 0.960 . S
C3105 C3104 1.560 . S
C3105 O3160 1.426 . S
C3105 H3164 0.980 . S
C3106 C3107 1.407 . S
C3106 C3111 1.418 . S
C3106 O3160 1.334 . S
C3107 C3106 1.407 . S
C3107 C3108 1.360 . S
C3107 H3168 0.929 . S
C3108 C3107 1.360 . S
C3108 C3109 1.401 . S
C3108 C3112 1.527 . S
C3109 C3108 1.401 . S
C3109 C3110 1.405 . S
C3109 C3142 1.587 . S
C3110 C3109 1.405 . S
C3110 C3111 1.332 . S
C3110 C3113 1.496 . S
C3111 C3106 1.418 . S
C3111 C3110 1.332 . S
C3111 H3169 0.929 . S
C3112 C3108 1.527 . S
C3112 H3170 0.959 . S
C3112 H3171 0.961 . S
C3112 H3172 0.961 . S
C3113 C3110 1.496 . S
C3113 H3173 0.960 . S
C3113 H3174 0.960 . S
C3113 H3175 0.961 . S
C3114 C3115 1.517 . S
C3114 H3177 0.961 . S
C3114 H3178 0.960 . S
C3114 H3179 0.959 . S
C3115 C3114 1.517 . S
C3115 O3163 1.468 . S
C3115 H3176 0.980 . S
C3116 C3117 1.349 . S
C3116 C3121 1.367 . S
C3116 O3163 1.408 . S
C3117 C3116 1.349 . S
C3117 C3118 1.407 . S
C3117 H3180 0.930 . S
C3118 C3117 1.407 . S
C3118 C3119 1.449 . S
C3118 C3122 1.535 . S
C3119 C3118 1.449 . S
C3119 C3120 1.384 . S
C3119 C3144 1.553 . S
C3120 C3119 1.384 . S
C3120 C3121 1.364 . S
C3120 C3123 1.450 . S
C3121 C3116 1.367 . S
C3121 C3120 1.364 . S
C3121 H3181 0.931 . S
C3122 C3118 1.535 . S
C3122 H3182 0.959 . S
C3122 H3183 0.961 . S
C3122 H3184 0.959 . S
C3123 C3120 1.450 . S
C3123 H3185 0.960 . S
C3123 H3186 0.960 . S
C3123 H3187 0.960 . S
C3124 C3125 1.309 . S
C3124 C3129 1.304 . S
C3124 O3162 1.435 . S
C3125 C3124 1.309 . S
C3125 C3126 1.476 . S
C3125 H3189 0.930 . S
C3126 C3125 1.476 . S
C3126 C3127 1.400 . S
C3126 C3130 1.567 . S
C3127 C3126 1.400 . S
C3127 C3128 1.373 . S
C3127 C3149 1.432 . S
C3128 C3127 1.373 . S
C3128 C3129 1.339 . S
C3128 C3131 1.530 . S
C3129 C3124 1.304 . S
C3129 C3128 1.339 . S
C3129 H3190 0.930 . S
C3130 C3126 1.567 . S
C3130 H3191 0.961 . S
C3130 H3192 0.960 . S
C3130 H3193 0.958 . S
C3131 C3128 1.530 . S
C3131 H3194 0.961 . S
C3131 H3195 0.960 . S
C3131 H3196 0.960 . S
C3132 C3133 1.530 . S
C3132 H3198 0.961 . S
C3132 H3199 0.961 . S
C3132 H3200 0.959 . S
C3133 C3132 1.530 . S
C3133 O3161 1.412 . S
C3133 H3197 0.980 . S
C3134 C3135 1.288 . S
C3134 C3139 1.377 . S
C3134 O3161 1.393 . S
C3135 C3134 1.288 . S
C3135 C3136 1.369 . S
C3135 H3201 0.932 . S
C3136 C3135 1.369 . S
C3136 C3137 1.398 . S
C3136 C3140 1.527 . S
C3137 C3136 1.398 . S
C3137 C3138 1.380 . S
C3137 C3151 1.497 . S
C3138 C3137 1.380 . S
C3138 C3139 1.383 . S
C3138 C3141 1.603 . S
C3139 C3134 1.377 . S
C3139 C3138 1.383 . S
C3139 H3202 0.929 . S
C3140 C3136 1.527 . S
C3140 H3203 0.961 . S
C3140 H3204 0.959 . S
C3140 H3205 0.959 . S
C3141 C3138 1.603 . S
C3141 H3206 0.960 . S
C3141 H3207 0.962 . S
C3141 H3208 0.961 . S
C3142 C3109 1.587 . S
C3142 C3143 1.360 . S
C3142 C3155 1.412 . S
C3143 C3142 1.360 . S
C3143 C3144 1.365 . S
C3143 H3209 0.929 . S
C3144 C3119 1.553 . S
C3144 C3143 1.365 . S
C3144 C3145 1.404 . S
C3145 C3144 1.404 . S
C3145 C3146 1.395 . S
C3145 C3156 1.451 . S
C3146 C3145 1.395 . S
C3146 C3147 1.322 . S
C3146 H3210 0.930 . S
C3147 C3146 1.322 . S
C3147 C3148 1.459 . S
C3147 H3211 0.929 . S
C3148 C3147 1.459 . S
C3148 C3149 1.445 . S
C3148 C3157 1.395 . S
C3149 C3127 1.432 . S
C3149 C3148 1.445 . S
C3149 C3150 1.370 . S
C3150 C3149 1.370 . S
C3150 C3151 1.438 . S
C3150 H3212 0.930 . S
C3151 C3137 1.497 . S
C3151 C3150 1.438 . S
C3151 C3152 1.360 . S
C3152 C3151 1.360 . S
C3152 C3153 1.401 . S
C3152 C3157 1.446 . S
C3153 C3152 1.401 . S
C3153 C3154 1.347 . S
C3153 H3213 0.929 . S
C3154 C3153 1.347 . S
C3154 C3155 1.455 . S
C3154 H3214 0.930 . S
C3155 C3142 1.412 . S
C3155 C3154 1.455 . S
C3155 C3156 1.331 . S
C3156 C3145 1.451 . S
C3156 C3155 1.331 . S
C3156 C3157 1.497 . S
C3157 C3148 1.395 . S
C3157 C3152 1.446 . S
C3157 C3156 1.497 . S
C3158 C3159 1.582 . S
C3158 H3215 0.962 . S
C3158 H3216 0.959 . S
C3158 H3217 0.958 . S
C3159 C3158 1.582 . S
C3159 O3162 1.458 . S
C3159 H3188 0.980 . S
O3160 C3105 1.426 . S
O3160 C3106 1.334 . S
O3161 C3133 1.412 . S
O3161 C3134 1.393 . S
O3162 C3124 1.435 . S
O3162 C3159 1.458 . S
O3163 C3115 1.468 . S
O3163 C3116 1.408 . S
H3164 C3105 0.980 . S
H3165 C3104 0.959 . S
H3166 C3104 0.959 . S
H3167 C3104 0.960 . S
H3168 C3107 0.929 . S
H3169 C3111 0.929 . S
H3170 C3112 0.959 . S
H3171 C3112 0.961 . S
H3172 C3112 0.961 . S
H3173 C3113 0.960 . S
H3174 C3113 0.960 . S
H3175 C3113 0.961 . S
H3176 C3115 0.980 . S
H3177 C3114 0.961 . S
H3178 C3114 0.960 . S
H3179 C3114 0.959 . S
H3180 C3117 0.930 . S
H3181 C3121 0.931 . S
H3182 C3122 0.959 . S
H3183 C3122 0.961 . S
H3184 C3122 0.959 . S
H3185 C3123 0.960 . S
H3186 C3123 0.960 . S
H3187 C3123 0.960 . S
H3188 C3159 0.980 . S
H3189 C3125 0.930 . S
H3190 C3129 0.930 . S
H3191 C3130 0.961 . S
H3192 C3130 0.960 . S
H3193 C3130 0.958 . S
H3194 C3131 0.961 . S
H3195 C3131 0.960 . S
H3196 C3131 0.960 . S
H3197 C3133 0.980 . S
H3198 C3132 0.961 . S
H3199 C3132 0.961 . S
H3200 C3132 0.959 . S
H3201 C3135 0.932 . S
H3202 C3139 0.929 . S
H3203 C3140 0.961 . S
H3204 C3140 0.959 . S
H3205 C3140 0.959 . S
H3206 C3141 0.960 . S
H3207 C3141 0.962 . S
H3208 C3141 0.961 . S
H3209 C3143 0.929 . S
H3210 C3146 0.930 . S
H3211 C3147 0.929 . S
H3212 C3150 0.930 . S
H3213 C3153 0.929 . S
H3214 C3154 0.930 . S
H3215 C3158 0.962 . S
H3216 C3158 0.959 . S
H3217 C3158 0.958 . S
C3218 C3219 1.560 . S
C3218 H3279 0.959 . S
C3218 H3280 0.959 . S
C3218 H3281 0.960 . S
C3219 C3218 1.560 . S
C3219 O3274 1.426 . S
C3219 H3278 0.980 . S
C3220 C3221 1.407 . S
C3220 C3225 1.418 . S
C3220 O3274 1.334 . S
C3221 C3220 1.407 . S
C3221 C3222 1.360 . S
C3221 H3282 0.929 . S
C3222 C3221 1.360 . S
C3222 C3223 1.401 . S
C3222 C3226 1.527 . S
C3223 C3222 1.401 . S
C3223 C3224 1.405 . S
C3223 C3256 1.587 . S
C3224 C3223 1.405 . S
C3224 C3225 1.332 . S
C3224 C3227 1.496 . S
C3225 C3220 1.418 . S
C3225 C3224 1.332 . S
C3225 H3283 0.929 . S
C3226 C3222 1.527 . S
C3226 H3284 0.959 . S
C3226 H3285 0.961 . S
C3226 H3286 0.961 . S
C3227 C3224 1.496 . S
C3227 H3287 0.960 . S
C3227 H3288 0.960 . S
C3227 H3289 0.961 . S
C3228 C3229 1.517 . S
C3228 H3291 0.961 . S
C3228 H3292 0.960 . S
C3228 H3293 0.959 . S
C3229 C3228 1.517 . S
C3229 O3277 1.468 . S
C3229 H3290 0.980 . S
C3230 C3231 1.349 . S
C3230 C3235 1.367 . S
C3230 O3277 1.408 . S
C3231 C3230 1.349 . S
C3231 C3232 1.407 . S
C3231 H3294 0.930 . S
C3232 C3231 1.407 . S
C3232 C3233 1.449 . S
C3232 C3236 1.535 . S
C3233 C3232 1.449 . S
C3233 C3234 1.384 . S
C3233 C3258 1.553 . S
C3234 C3233 1.384 . S
C3234 C3235 1.364 . S
C3234 C3237 1.450 . S
C3235 C3230 1.367 . S
C3235 C3234 1.364 . S
C3235 H3295 0.931 . S
C3236 C3232 1.535 . S
C3236 H3296 0.959 . S
C3236 H3297 0.961 . S
C3236 H3298 0.959 . S
C3237 C3234 1.450 . S
C3237 H3299 0.960 . S
C3237 H3300 0.960 . S
C3237 H3301 0.960 . S
C3238 C3239 1.309 . S
C3238 C3243 1.304 . S
C3238 O3276 1.435 . S
C3239 C3238 1.309 . S
C3239 C3240 1.476 . S
C3239 H3303 0.930 . S
C3240 C3239 1.476 . S
C3240 C3241 1.400 . S
C3240 C3244 1.567 . S
C3241 C3240 1.400 . S
C3241 C3242 1.373 . S
C3241 C3263 1.432 . S
C3242 C3241 1.373 . S
C3242 C3243 1.339 . S
C3242 C3245 1.530 . S
C3243 C3238 1.304 . S
C3243 C3242 1.339 . S
C3243 H3304 0.930 . S
C3244 C3240 1.567 . S
C3244 H3305 0.961 . S
C3244 H3306 0.960 . S
C3244 H3307 0.958 . S
C3245 C3242 1.530 . S
C3245 H3308 0.961 . S
C3245 H3309 0.960 . S
C3245 H3310 0.960 . S
C3246 C3247 1.530 . S
C3246 H3312 0.961 . S
C3246 H3313 0.961 . S
C3246 H3314 0.959 . S
C3247 C3246 1.530 . S
C3247 O3275 1.412 . S
C3247 H3311 0.980 . S
C3248 C3249 1.288 . S
C3248 C3253 1.377 . S
C3248 O3275 1.393 . S
C3249 C3248 1.288 . S
C3249 C3250 1.369 . S
C3249 H3315 0.932 . S
C3250 C3249 1.369 . S
C3250 C3251 1.398 . S
C3250 C3254 1.527 . S
C3251 C3250 1.398 . S
C3251 C3252 1.380 . S
C3251 C3265 1.497 . S
C3252 C3251 1.380 . S
C3252 C3253 1.383 . S
C3252 C3255 1.603 . S
C3253 C3248 1.377 . S
C3253 C3252 1.383 . S
C3253 H3316 0.929 . S
C3254 C3250 1.527 . S
C3254 H3317 0.961 . S
C3254 H3318 0.959 . S
C3254 H3319 0.959 . S
C3255 C3252 1.603 . S
C3255 H3320 0.960 . S
C3255 H3321 0.962 . S
C3255 H3322 0.961 . S
C3256 C3223 1.587 . S
C3256 C3257 1.360 . S
C3256 C3269 1.412 . S
C3257 C3256 1.360 . S
C3257 C3258 1.365 . S
C3257 H3323 0.929 . S
C3258 C3233 1.553 . S
C3258 C3257 1.365 . S
C3258 C3259 1.404 . S
C3259 C3258 1.404 . S
C3259 C3260 1.395 . S
C3259 C3270 1.451 . S
C3260 C3259 1.395 . S
C3260 C3261 1.322 . S
C3260 H3324 0.930 . S
C3261 C3260 1.322 . S
C3261 C3262 1.459 . S
C3261 H3325 0.929 . S
C3262 C3261 1.459 . S
C3262 C3263 1.445 . S
C3262 C3271 1.395 . S
C3263 C3241 1.432 . S
C3263 C3262 1.445 . S
C3263 C3264 1.370 . S
C3264 C3263 1.370 . S
C3264 C3265 1.438 . S
C3264 H3326 0.930 . S
C3265 C3251 1.497 . S
C3265 C3264 1.438 . S
C3265 C3266 1.360 . S
C3266 C3265 1.360 . S
C3266 C3267 1.401 . S
C3266 C3271 1.446 . S
C3267 C3266 1.401 . S
C3267 C3268 1.347 . S
C3267 H3327 0.929 . S
C3268 C3267 1.347 . S
C3268 C3269 1.455 . S
C3268 H3328 0.930 . S
C3269 C3256 1.412 . S
C3269 C3268 1.455 . S
C3269 C3270 1.331 . S
C3270 C3259 1.451 . S
C3270 C3269 1.331 . S
C3270 C3271 1.497 . S
C3271 C3262 1.395 . S
C3271 C3266 1.446 . S
C3271 C3270 1.497 . S
C3272 C3273 1.582 . S
C3272 H3329 0.962 . S
C3272 H3330 0.959 . S
C3272 H3331 0.958 . S
C3273 C3272 1.582 . S
C3273 O3276 1.458 . S
C3273 H3302 0.980 . S
O3274 C3219 1.426 . S
O3274 C3220 1.334 . S
O3275 C3247 1.412 . S
O3275 C3248 1.393 . S
O3276 C3238 1.435 . S
O3276 C3273 1.458 . S
O3277 C3229 1.468 . S
O3277 C3230 1.408 . S
H3278 C3219 0.980 . S
H3279 C3218 0.959 . S
H3280 C3218 0.959 . S
H3281 C3218 0.960 . S
H3282 C3221 0.929 . S
H3283 C3225 0.929 . S
H3284 C3226 0.959 . S
H3285 C3226 0.961 . S
H3286 C3226 0.961 . S
H3287 C3227 0.960 . S
H3288 C3227 0.960 . S
H3289 C3227 0.961 . S
H3290 C3229 0.980 . S
H3291 C3228 0.961 . S
H3292 C3228 0.960 . S
H3293 C3228 0.959 . S
H3294 C3231 0.930 . S
H3295 C3235 0.931 . S
H3296 C3236 0.959 . S
H3297 C3236 0.961 . S
H3298 C3236 0.959 . S
H3299 C3237 0.960 . S
H3300 C3237 0.960 . S
H3301 C3237 0.960 . S
H3302 C3273 0.980 . S
H3303 C3239 0.930 . S
H3304 C3243 0.930 . S
H3305 C3244 0.961 . S
H3306 C3244 0.960 . S
H3307 C3244 0.958 . S
H3308 C3245 0.961 . S
H3309 C3245 0.960 . S
H3310 C3245 0.960 . S
H3311 C3247 0.980 . S
H3312 C3246 0.961 . S
H3313 C3246 0.961 . S
H3314 C3246 0.959 . S
H3315 C3249 0.932 . S
H3316 C3253 0.929 . S
H3317 C3254 0.961 . S
H3318 C3254 0.959 . S
H3319 C3254 0.959 . S
H3320 C3255 0.960 . S
H3321 C3255 0.962 . S
H3322 C3255 0.961 . S
H3323 C3257 0.929 . S
H3324 C3260 0.930 . S
H3325 C3261 0.929 . S
H3326 C3264 0.930 . S
H3327 C3267 0.929 . S
H3328 C3268 0.930 . S
H3329 C3272 0.962 . S
H3330 C3272 0.959 . S
H3331 C3272 0.958 . S
C3332 C3333 1.560 . S
C3332 H3393 0.959 . S
C3332 H3394 0.959 . S
C3332 H3395 0.960 . S
C3333 C3332 1.560 . S
C3333 O3388 1.426 . S
C3333 H3392 0.980 . S
C3334 C3335 1.407 . S
C3334 C3339 1.418 . S
C3334 O3388 1.334 . S
C3335 C3334 1.407 . S
C3335 C3336 1.360 . S
C3335 H3396 0.929 . S
C3336 C3335 1.360 . S
C3336 C3337 1.401 . S
C3336 C3340 1.527 . S
C3337 C3336 1.401 . S
C3337 C3338 1.405 . S
C3337 C3370 1.587 . S
C3338 C3337 1.405 . S
C3338 C3339 1.332 . S
C3338 C3341 1.496 . S
C3339 C3334 1.418 . S
C3339 C3338 1.332 . S
C3339 H3397 0.929 . S
C3340 C3336 1.527 . S
C3340 H3398 0.959 . S
C3340 H3399 0.961 . S
C3340 H3400 0.961 . S
C3341 C3338 1.496 . S
C3341 H3401 0.960 . S
C3341 H3402 0.960 . S
C3341 H3403 0.961 . S
C3342 C3343 1.517 . S
C3342 H3405 0.961 . S
C3342 H3406 0.960 . S
C3342 H3407 0.959 . S
C3343 C3342 1.517 . S
C3343 O3391 1.468 . S
C3343 H3404 0.980 . S
C3344 C3345 1.349 . S
C3344 C3349 1.367 . S
C3344 O3391 1.408 . S
C3345 C3344 1.349 . S
C3345 C3346 1.407 . S
C3345 H3408 0.930 . S
C3346 C3345 1.407 . S
C3346 C3347 1.449 . S
C3346 C3350 1.535 . S
C3347 C3346 1.449 . S
C3347 C3348 1.384 . S
C3347 C3372 1.553 . S
C3348 C3347 1.384 . S
C3348 C3349 1.364 . S
C3348 C3351 1.450 . S
C3349 C3344 1.367 . S
C3349 C3348 1.364 . S
C3349 H3409 0.931 . S
C3350 C3346 1.535 . S
C3350 H3410 0.959 . S
C3350 H3411 0.961 . S
C3350 H3412 0.959 . S
C3351 C3348 1.450 . S
C3351 H3413 0.960 . S
C3351 H3414 0.960 . S
C3351 H3415 0.960 . S
C3352 C3353 1.309 . S
C3352 C3357 1.304 . S
C3352 O3390 1.435 . S
C3353 C3352 1.309 . S
C3353 C3354 1.476 . S
C3353 H3417 0.930 . S
C3354 C3353 1.476 . S
C3354 C3355 1.400 . S
C3354 C3358 1.567 . S
C3355 C3354 1.400 . S
C3355 C3356 1.373 . S
C3355 C3377 1.432 . S
C3356 C3355 1.373 . S
C3356 C3357 1.339 . S
C3356 C3359 1.530 . S
C3357 C3352 1.304 . S
C3357 C3356 1.339 . S
C3357 H3418 0.930 . S
C3358 C3354 1.567 . S
C3358 H3419 0.961 . S
C3358 H3420 0.960 . S
C3358 H3421 0.958 . S
C3359 C3356 1.530 . S
C3359 H3422 0.961 . S
C3359 H3423 0.960 . S
C3359 H3424 0.960 . S
C3360 C3361 1.530 . S
C3360 H3426 0.961 . S
C3360 H3427 0.961 . S
C3360 H3428 0.959 . S
C3361 C3360 1.530 . S
C3361 O3389 1.412 . S
C3361 H3425 0.980 . S
C3362 C3363 1.288 . S
C3362 C3367 1.377 . S
C3362 O3389 1.393 . S
C3363 C3362 1.288 . S
C3363 C3364 1.369 . S
C3363 H3429 0.932 . S
C3364 C3363 1.369 . S
C3364 C3365 1.398 . S
C3364 C3368 1.527 . S
C3365 C3364 1.398 . S
C3365 C3366 1.380 . S
C3365 C3379 1.497 . S
C3366 C3365 1.380 . S
C3366 C3367 1.383 . S
C3366 C3369 1.603 . S
C3367 C3362 1.377 . S
C3367 C3366 1.383 . S
C3367 H3430 0.929 . S
C3368 C3364 1.527 . S
C3368 H3431 0.961 . S
C3368 H3432 0.959 . S
C3368 H3433 0.959 . S
C3369 C3366 1.603 . S
C3369 H3434 0.960 . S
C3369 H3435 0.962 . S
C3369 H3436 0.961 . S
C3370 C3337 1.587 . S
C3370 C3371 1.360 . S
C3370 C3383 1.412 . S
C3371 C3370 1.360 . S
C3371 C3372 1.365 . S
C3371 H3437 0.929 . S
C3372 C3347 1.553 . S
C3372 C3371 1.365 . S
C3372 C3373 1.404 . S
C3373 C3372 1.404 . S
C3373 C3374 1.395 . S
C3373 C3384 1.451 . S
C3374 C3373 1.395 . S
C3374 C3375 1.322 . S
C3374 H3438 0.930 . S
C3375 C3374 1.322 . S
C3375 C3376 1.459 . S
C3375 H3439 0.929 . S
C3376 C3375 1.459 . S
C3376 C3377 1.445 . S
C3376 C3385 1.395 . S
C3377 C3355 1.432 . S
C3377 C3376 1.445 . S
C3377 C3378 1.370 . S
C3378 C3377 1.370 . S
C3378 C3379 1.438 . S
C3378 H3440 0.930 . S
C3379 C3365 1.497 . S
C3379 C3378 1.438 . S
C3379 C3380 1.360 . S
C3380 C3379 1.360 . S
C3380 C3381 1.401 . S
C3380 C3385 1.446 . S
C3381 C3380 1.401 . S
C3381 C3382 1.347 . S
C3381 H3441 0.929 . S
C3382 C3381 1.347 . S
C3382 C3383 1.455 . S
C3382 H3442 0.930 . S
C3383 C3370 1.412 . S
C3383 C3382 1.455 . S
C3383 C3384 1.331 . S
C3384 C3373 1.451 . S
C3384 C3383 1.331 . S
C3384 C3385 1.497 . S
C3385 C3376 1.395 . S
C3385 C3380 1.446 . S
C3385 C3384 1.497 . S
C3386 C3387 1.582 . S
C3386 H3443 0.962 . S
C3386 H3444 0.959 . S
C3386 H3445 0.958 . S
C3387 C3386 1.582 . S
C3387 O3390 1.458 . S
C3387 H3416 0.980 . S
O3388 C3333 1.426 . S
O3388 C3334 1.334 . S
O3389 C3361 1.412 . S
O3389 C3362 1.393 . S
O3390 C3352 1.435 . S
O3390 C3387 1.458 . S
O3391 C3343 1.468 . S
O3391 C3344 1.408 . S
H3392 C3333 0.980 . S
H3393 C3332 0.959 . S
H3394 C3332 0.959 . S
H3395 C3332 0.960 . S
H3396 C3335 0.929 . S
H3397 C3339 0.929 . S
H3398 C3340 0.959 . S
H3399 C3340 0.961 . S
H3400 C3340 0.961 . S
H3401 C3341 0.960 . S
H3402 C3341 0.960 . S
H3403 C3341 0.961 . S
H3404 C3343 0.980 . S
H3405 C3342 0.961 . S
H3406 C3342 0.960 . S
H3407 C3342 0.959 . S
H3408 C3345 0.930 . S
H3409 C3349 0.931 . S
H3410 C3350 0.959 . S
H3411 C3350 0.961 . S
H3412 C3350 0.959 . S
H3413 C3351 0.960 . S
H3414 C3351 0.960 . S
H3415 C3351 0.960 . S
H3416 C3387 0.980 . S
H3417 C3353 0.930 . S
H3418 C3357 0.930 . S
H3419 C3358 0.961 . S
H3420 C3358 0.960 . S
H3421 C3358 0.958 . S
H3422 C3359 0.961 . S
H3423 C3359 0.960 . S
H3424 C3359 0.960 . S
H3425 C3361 0.980 . S
H3426 C3360 0.961 . S
H3427 C3360 0.961 . S
H3428 C3360 0.959 . S
H3429 C3363 0.932 . S
H3430 C3367 0.929 . S
H3431 C3368 0.961 . S
H3432 C3368 0.959 . S
H3433 C3368 0.959 . S
H3434 C3369 0.960 . S
H3435 C3369 0.962 . S
H3436 C3369 0.961 . S
H3437 C3371 0.929 . S
H3438 C3374 0.930 . S
H3439 C3375 0.929 . S
H3440 C3378 0.930 . S
H3441 C3381 0.929 . S
H3442 C3382 0.930 . S
H3443 C3386 0.962 . S
H3444 C3386 0.959 . S
H3445 C3386 0.958 . S
C3446 C3447 1.560 . S
C3446 H3507 0.959 . S
C3446 H3508 0.959 . S
C3446 H3509 0.960 . S
C3447 C3446 1.560 . S
C3447 O3502 1.426 . S
C3447 H3506 0.980 . S
C3448 C3449 1.407 . S
C3448 C3453 1.418 . S
C3448 O3502 1.334 . S
C3449 C3448 1.407 . S
C3449 C3450 1.360 . S
C3449 H3510 0.929 . S
C3450 C3449 1.360 . S
C3450 C3451 1.401 . S
C3450 C3454 1.527 . S
C3451 C3450 1.401 . S
C3451 C3452 1.405 . S
C3451 C3484 1.587 . S
C3452 C3451 1.405 . S
C3452 C3453 1.332 . S
C3452 C3455 1.496 . S
C3453 C3448 1.418 . S
C3453 C3452 1.332 . S
C3453 H3511 0.929 . S
C3454 C3450 1.527 . S
C3454 H3512 0.959 . S
C3454 H3513 0.961 . S
C3454 H3514 0.961 . S
C3455 C3452 1.496 . S
C3455 H3515 0.960 . S
C3455 H3516 0.960 . S
C3455 H3517 0.961 . S
C3456 C3457 1.517 . S
C3456 H3519 0.961 . S
C3456 H3520 0.960 . S
C3456 H3521 0.959 . S
C3457 C3456 1.517 . S
C3457 O3505 1.468 . S
C3457 H3518 0.980 . S
C3458 C3459 1.349 . S
C3458 C3463 1.367 . S
C3458 O3505 1.408 . S
C3459 C3458 1.349 . S
C3459 C3460 1.407 . S
C3459 H3522 0.930 . S
C3460 C3459 1.407 . S
C3460 C3461 1.449 . S
C3460 C3464 1.535 . S
C3461 C3460 1.449 . S
C3461 C3462 1.384 . S
C3461 C3486 1.553 . S
C3462 C3461 1.384 . S
C3462 C3463 1.364 . S
C3462 C3465 1.450 . S
C3463 C3458 1.367 . S
C3463 C3462 1.364 . S
C3463 H3523 0.931 . S
C3464 C3460 1.535 . S
C3464 H3524 0.959 . S
C3464 H3525 0.961 . S
C3464 H3526 0.959 . S
C3465 C3462 1.450 . S
C3465 H3527 0.960 . S
C3465 H3528 0.960 . S
C3465 H3529 0.960 . S
C3466 C3467 1.309 . S
C3466 C3471 1.304 . S
C3466 O3504 1.435 . S
C3467 C3466 1.309 . S
C3467 C3468 1.476 . S
C3467 H3531 0.930 . S
C3468 C3467 1.476 . S
C3468 C3469 1.400 . S
C3468 C3472 1.567 . S
C3469 C3468 1.400 . S
C3469 C3470 1.373 . S
C3469 C3491 1.432 . S
C3470 C3469 1.373 . S
C3470 C3471 1.339 . S
C3470 C3473 1.530 . S
C3471 C3466 1.304 . S
C3471 C3470 1.339 . S
C3471 H3532 0.930 . S
C3472 C3468 1.567 . S
C3472 H3533 0.961 . S
C3472 H3534 0.960 . S
C3472 H3535 0.958 . S
C3473 C3470 1.530 . S
C3473 H3536 0.961 . S
C3473 H3537 0.960 . S
C3473 H3538 0.960 . S
C3474 C3475 1.530 . S
C3474 H3540 0.961 . S
C3474 H3541 0.961 . S
C3474 H3542 0.959 . S
C3475 C3474 1.530 . S
C3475 O3503 1.412 . S
C3475 H3539 0.980 . S
C3476 C3477 1.288 . S
C3476 C3481 1.377 . S
C3476 O3503 1.393 . S
C3477 C3476 1.288 . S
C3477 C3478 1.369 . S
C3477 H3543 0.932 . S
C3478 C3477 1.369 . S
C3478 C3479 1.398 . S
C3478 C3482 1.527 . S
C3479 C3478 1.398 . S
C3479 C3480 1.380 . S
C3479 C3493 1.497 . S
C3480 C3479 1.380 . S
C3480 C3481 1.383 . S
C3480 C3483 1.603 . S
C3481 C3476 1.377 . S
C3481 C3480 1.383 . S
C3481 H3544 0.929 . S
C3482 C3478 1.527 . S
C3482 H3545 0.961 . S
C3482 H3546 0.959 . S
C3482 H3547 0.959 . S
C3483 C3480 1.603 . S
C3483 H3548 0.960 . S
C3483 H3549 0.962 . S
C3483 H3550 0.961 . S
C3484 C3451 1.587 . S
C3484 C3485 1.360 . S
C3484 C3497 1.412 . S
C3485 C3484 1.360 . S
C3485 C3486 1.365 . S
C3485 H3551 0.929 . S
C3486 C3461 1.553 . S
C3486 C3485 1.365 . S
C3486 C3487 1.404 . S
C3487 C3486 1.404 . S
C3487 C3488 1.395 . S
C3487 C3498 1.451 . S
C3488 C3487 1.395 . S
C3488 C3489 1.322 . S
C3488 H3552 0.930 . S
C3489 C3488 1.322 . S
C3489 C3490 1.459 . S
C3489 H3553 0.929 . S
C3490 C3489 1.459 . S
C3490 C3491 1.445 . S
C3490 C3499 1.395 . S
C3491 C3469 1.432 . S
C3491 C3490 1.445 . S
C3491 C3492 1.370 . S
C3492 C3491 1.370 . S
C3492 C3493 1.438 . S
C3492 H3554 0.930 . S
C3493 C3479 1.497 . S
C3493 C3492 1.438 . S
C3493 C3494 1.360 . S
C3494 C3493 1.360 . S
C3494 C3495 1.401 . S
C3494 C3499 1.446 . S
C3495 C3494 1.401 . S
C3495 C3496 1.347 . S
C3495 H3555 0.929 . S
C3496 C3495 1.347 . S
C3496 C3497 1.455 . S
C3496 H3556 0.930 . S
C3497 C3484 1.412 . S
C3497 C3496 1.455 . S
C3497 C3498 1.331 . S
C3498 C3487 1.451 . S
C3498 C3497 1.331 . S
C3498 C3499 1.497 . S
C3499 C3490 1.395 . S
C3499 C3494 1.446 . S
C3499 C3498 1.497 . S
C3500 C3501 1.582 . S
C3500 H3557 0.962 . S
C3500 H3558 0.959 . S
C3500 H3559 0.958 . S
C3501 C3500 1.582 . S
C3501 O3504 1.458 . S
C3501 H3530 0.980 . S
O3502 C3447 1.426 . S
O3502 C3448 1.334 . S
O3503 C3475 1.412 . S
O3503 C3476 1.393 . S
O3504 C3466 1.435 . S
O3504 C3501 1.458 . S
O3505 C3457 1.468 . S
O3505 C3458 1.408 . S
H3506 C3447 0.980 . S
H3507 C3446 0.959 . S
H3508 C3446 0.959 . S
H3509 C3446 0.960 . S
H3510 C3449 0.929 . S
H3511 C3453 0.929 . S
H3512 C3454 0.959 . S
H3513 C3454 0.961 . S
H3514 C3454 0.961 . S
H3515 C3455 0.960 . S
H3516 C3455 0.960 . S
H3517 C3455 0.961 . S
H3518 C3457 0.980 . S
H3519 C3456 0.961 . S
H3520 C3456 0.960 . S
H3521 C3456 0.959 . S
H3522 C3459 0.930 . S
H3523 C3463 0.931 . S
H3524 C3464 0.959 . S
H3525 C3464 0.961 . S
H3526 C3464 0.959 . S
H3527 C3465 0.960 . S
H3528 C3465 0.960 . S
H3529 C3465 0.960 . S
H3530 C3501 0.980 . S
H3531 C3467 0.930 . S
H3532 C3471 0.930 . S
H3533 C3472 0.961 . S
H3534 C3472 0.960 . S
H3535 C3472 0.958 . S
H3536 C3473 0.961 . S
H3537 C3473 0.960 . S
H3538 C3473 0.960 . S
H3539 C3475 0.980 . S
H3540 C3474 0.961 . S
H3541 C3474 0.961 . S
H3542 C3474 0.959 . S
H3543 C3477 0.932 . S
H3544 C3481 0.929 . S
H3545 C3482 0.961 . S
H3546 C3482 0.959 . S
H3547 C3482 0.959 . S
H3548 C3483 0.960 . S
H3549 C3483 0.962 . S
H3550 C3483 0.961 . S
H3551 C3485 0.929 . S
H3552 C3488 0.930 . S
H3553 C3489 0.929 . S
H3554 C3492 0.930 . S
H3555 C3495 0.929 . S
H3556 C3496 0.930 . S
H3557 C3500 0.962 . S
H3558 C3500 0.959 . S
H3559 C3500 0.958 . S
C3560 C3561 1.560 . S
C3560 H3621 0.959 . S
C3560 H3622 0.959 . S
C3560 H3623 0.960 . S
C3561 C3560 1.560 . S
C3561 O3616 1.426 . S
C3561 H3620 0.980 . S
C3562 C3563 1.407 . S
C3562 C3567 1.418 . S
C3562 O3616 1.334 . S
C3563 C3562 1.407 . S
C3563 C3564 1.360 . S
C3563 H3624 0.929 . S
C3564 C3563 1.360 . S
C3564 C3565 1.401 . S
C3564 C3568 1.527 . S
C3565 C3564 1.401 . S
C3565 C3566 1.405 . S
C3565 C3598 1.587 . S
C3566 C3565 1.405 . S
C3566 C3567 1.332 . S
C3566 C3569 1.496 . S
C3567 C3562 1.418 . S
C3567 C3566 1.332 . S
C3567 H3625 0.929 . S
C3568 C3564 1.527 . S
C3568 H3626 0.959 . S
C3568 H3627 0.961 . S
C3568 H3628 0.961 . S
C3569 C3566 1.496 . S
C3569 H3629 0.960 . S
C3569 H3630 0.960 . S
C3569 H3631 0.961 . S
C3570 C3571 1.517 . S
C3570 H3633 0.961 . S
C3570 H3634 0.960 . S
C3570 H3635 0.959 . S
C3571 C3570 1.517 . S
C3571 O3619 1.468 . S
C3571 H3632 0.980 . S
C3572 C3573 1.349 . S
C3572 C3577 1.367 . S
C3572 O3619 1.408 . S
C3573 C3572 1.349 . S
C3573 C3574 1.407 . S
C3573 H3636 0.930 . S
C3574 C3573 1.407 . S
C3574 C3575 1.449 . S
C3574 C3578 1.535 . S
C3575 C3574 1.449 . S
C3575 C3576 1.384 . S
C3575 C3600 1.553 . S
C3576 C3575 1.384 . S
C3576 C3577 1.364 . S
C3576 C3579 1.450 . S
C3577 C3572 1.367 . S
C3577 C3576 1.364 . S
C3577 H3637 0.931 . S
C3578 C3574 1.535 . S
C3578 H3638 0.959 . S
C3578 H3639 0.961 . S
C3578 H3640 0.959 . S
C3579 C3576 1.450 . S
C3579 H3641 0.960 . S
C3579 H3642 0.960 . S
C3579 H3643 0.960 . S
C3580 C3581 1.309 . S
C3580 C3585 1.304 . S
C3580 O3618 1.435 . S
C3581 C3580 1.309 . S
C3581 C3582 1.476 . S
C3581 H3645 0.930 . S
C3582 C3581 1.476 . S
C3582 C3583 1.400 . S
C3582 C3586 1.567 . S
C3583 C3582 1.400 . S
C3583 C3584 1.373 . S
C3583 C3605 1.432 . S
C3584 C3583 1.373 . S
C3584 C3585 1.339 . S
C3584 C3587 1.530 . S
C3585 C3580 1.304 . S
C3585 C3584 1.339 . S
C3585 H3646 0.930 . S
C3586 C3582 1.567 . S
C3586 H3647 0.961 . S
C3586 H3648 0.960 . S
C3586 H3649 0.958 . S
C3587 C3584 1.530 . S
C3587 H3650 0.961 . S
C3587 H3651 0.960 . S
C3587 H3652 0.960 . S
C3588 C3589 1.530 . S
C3588 H3654 0.961 . S
C3588 H3655 0.961 . S
C3588 H3656 0.959 . S
C3589 C3588 1.530 . S
C3589 O3617 1.412 . S
C3589 H3653 0.980 . S
C3590 C3591 1.288 . S
C3590 C3595 1.377 . S
C3590 O3617 1.393 . S
C3591 C3590 1.288 . S
C3591 C3592 1.369 . S
C3591 H3657 0.932 . S
C3592 C3591 1.369 . S
C3592 C3593 1.398 . S
C3592 C3596 1.527 . S
C3593 C3592 1.398 . S
C3593 C3594 1.380 . S
C3593 C3607 1.497 . S
C3594 C3593 1.380 . S
C3594 C3595 1.383 . S
C3594 C3597 1.603 . S
C3595 C3590 1.377 . S
C3595 C3594 1.383 . S
C3595 H3658 0.929 . S
C3596 C3592 1.527 . S
C3596 H3659 0.961 . S
C3596 H3660 0.959 . S
C3596 H3661 0.959 . S
C3597 C3594 1.603 . S
C3597 H3662 0.960 . S
C3597 H3663 0.962 . S
C3597 H3664 0.961 . S
C3598 C3565 1.587 . S
C3598 C3599 1.360 . S
C3598 C3611 1.412 . S
C3599 C3598 1.360 . S
C3599 C3600 1.365 . S
C3599 H3665 0.929 . S
C3600 C3575 1.553 . S
C3600 C3599 1.365 . S
C3600 C3601 1.404 . S
C3601 C3600 1.404 . S
C3601 C3602 1.395 . S
C3601 C3612 1.451 . S
C3602 C3601 1.395 . S
C3602 C3603 1.322 . S
C3602 H3666 0.930 . S
C3603 C3602 1.322 . S
C3603 C3604 1.459 . S
C3603 H3667 0.929 . S
C3604 C3603 1.459 . S
C3604 C3605 1.445 . S
C3604 C3613 1.395 . S
C3605 C3583 1.432 . S
C3605 C3604 1.445 . S
C3605 C3606 1.370 . S
C3606 C3605 1.370 . S
C3606 C3607 1.438 . S
C3606 H3668 0.930 . S
C3607 C3593 1.497 . S
C3607 C3606 1.438 . S
C3607 C3608 1.360 . S
C3608 C3607 1.360 . S
C3608 C3609 1.401 . S
C3608 C3613 1.446 . S
C3609 C3608 1.401 . S
C3609 C3610 1.347 . S
C3609 H3669 0.929 . S
C3610 C3609 1.347 . S
C3610 C3611 1.455 . S
C3610 H3670 0.930 . S
C3611 C3598 1.412 . S
C3611 C3610 1.455 . S
C3611 C3612 1.331 . S
C3612 C3601 1.451 . S
C3612 C3611 1.331 . S
C3612 C3613 1.497 . S
C3613 C3604 1.395 . S
C3613 C3608 1.446 . S
C3613 C3612 1.497 . S
C3614 C3615 1.582 . S
C3614 H3671 0.962 . S
C3614 H3672 0.959 . S
C3614 H3673 0.958 . S
C3615 C3614 1.582 . S
C3615 O3618 1.458 . S
C3615 H3644 0.980 . S
O3616 C3561 1.426 . S
O3616 C3562 1.334 . S
O3617 C3589 1.412 . S
O3617 C3590 1.393 . S
O3618 C3580 1.435 . S
O3618 C3615 1.458 . S
O3619 C3571 1.468 . S
O3619 C3572 1.408 . S
H3620 C3561 0.980 . S
H3621 C3560 0.959 . S
H3622 C3560 0.959 . S
H3623 C3560 0.960 . S
H3624 C3563 0.929 . S
H3625 C3567 0.929 . S
H3626 C3568 0.959 . S
H3627 C3568 0.961 . S
H3628 C3568 0.961 . S
H3629 C3569 0.960 . S
H3630 C3569 0.960 . S
H3631 C3569 0.961 . S
H3632 C3571 0.980 . S
H3633 C3570 0.961 . S
H3634 C3570 0.960 . S
H3635 C3570 0.959 . S
H3636 C3573 0.930 . S
H3637 C3577 0.931 . S
H3638 C3578 0.959 . S
H3639 C3578 0.961 . S
H3640 C3578 0.959 . S
H3641 C3579 0.960 . S
H3642 C3579 0.960 . S
H3643 C3579 0.960 . S
H3644 C3615 0.980 . S
H3645 C3581 0.930 . S
H3646 C3585 0.930 . S
H3647 C3586 0.961 . S
H3648 C3586 0.960 . S
H3649 C3586 0.958 . S
H3650 C3587 0.961 . S
H3651 C3587 0.960 . S
H3652 C3587 0.960 . S
H3653 C3589 0.980 . S
H3654 C3588 0.961 . S
H3655 C3588 0.961 . S
H3656 C3588 0.959 . S
H3657 C3591 0.932 . S
H3658 C3595 0.929 . S
H3659 C3596 0.961 . S
H3660 C3596 0.959 . S
H3661 C3596 0.959 . S
H3662 C3597 0.960 . S
H3663 C3597 0.962 . S
H3664 C3597 0.961 . S
H3665 C3599 0.929 . S
H3666 C3602 0.930 . S
H3667 C3603 0.929 . S
H3668 C3606 0.930 . S
H3669 C3609 0.929 . S
H3670 C3610 0.930 . S
H3671 C3614 0.962 . S
H3672 C3614 0.959 . S
H3673 C3614 0.958 . S
C3674 C3675 1.560 . S
C3674 H3735 0.959 . S
C3674 H3736 0.959 . S
C3674 H3737 0.960 . S
C3675 C3674 1.560 . S
C3675 O3730 1.426 . S
C3675 H3734 0.980 . S
C3676 C3677 1.407 . S
C3676 C3681 1.418 . S
C3676 O3730 1.334 . S
C3677 C3676 1.407 . S
C3677 C3678 1.360 . S
C3677 H3738 0.929 . S
C3678 C3677 1.360 . S
C3678 C3679 1.401 . S
C3678 C3682 1.527 . S
C3679 C3678 1.401 . S
C3679 C3680 1.405 . S
C3679 C3712 1.587 . S
C3680 C3679 1.405 . S
C3680 C3681 1.332 . S
C3680 C3683 1.496 . S
C3681 C3676 1.418 . S
C3681 C3680 1.332 . S
C3681 H3739 0.929 . S
C3682 C3678 1.527 . S
C3682 H3740 0.959 . S
C3682 H3741 0.961 . S
C3682 H3742 0.961 . S
C3683 C3680 1.496 . S
C3683 H3743 0.960 . S
C3683 H3744 0.960 . S
C3683 H3745 0.961 . S
C3684 C3685 1.517 . S
C3684 H3747 0.961 . S
C3684 H3748 0.960 . S
C3684 H3749 0.959 . S
C3685 C3684 1.517 . S
C3685 O3733 1.468 . S
C3685 H3746 0.980 . S
C3686 C3687 1.349 . S
C3686 C3691 1.367 . S
C3686 O3733 1.408 . S
C3687 C3686 1.349 . S
C3687 C3688 1.407 . S
C3687 H3750 0.930 . S
C3688 C3687 1.407 . S
C3688 C3689 1.449 . S
C3688 C3692 1.535 . S
C3689 C3688 1.449 . S
C3689 C3690 1.384 . S
C3689 C3714 1.553 . S
C3690 C3689 1.384 . S
C3690 C3691 1.364 . S
C3690 C3693 1.450 . S
C3691 C3686 1.367 . S
C3691 C3690 1.364 . S
C3691 H3751 0.931 . S
C3692 C3688 1.535 . S
C3692 H3752 0.959 . S
C3692 H3753 0.961 . S
C3692 H3754 0.959 . S
C3693 C3690 1.450 . S
C3693 H3755 0.960 . S
C3693 H3756 0.960 . S
C3693 H3757 0.960 . S
C3694 C3695 1.309 . S
C3694 C3699 1.304 . S
C3694 O3732 1.435 . S
C3695 C3694 1.309 . S
C3695 C3696 1.476 . S
C3695 H3759 0.930 . S
C3696 C3695 1.476 . S
C3696 C3697 1.400 . S
C3696 C3700 1.567 . S
C3697 C3696 1.400 . S
C3697 C3698 1.373 . S
C3697 C3719 1.432 . S
C3698 C3697 1.373 . S
C3698 C3699 1.339 . S
C3698 C3701 1.530 . S
C3699 C3694 1.304 . S
C3699 C3698 1.339 . S
C3699 H3760 0.930 . S
C3700 C3696 1.567 . S
C3700 H3761 0.961 . S
C3700 H3762 0.960 . S
C3700 H3763 0.958 . S
C3701 C3698 1.530 . S
C3701 H3764 0.961 . S
C3701 H3765 0.960 . S
C3701 H3766 0.960 . S
C3702 C3703 1.530 . S
C3702 H3768 0.961 . S
C3702 H3769 0.961 . S
C3702 H3770 0.959 . S
C3703 C3702 1.530 . S
C3703 O3731 1.412 . S
C3703 H3767 0.980 . S
C3704 C3705 1.288 . S
C3704 C3709 1.377 . S
C3704 O3731 1.393 . S
C3705 C3704 1.288 . S
C3705 C3706 1.369 . S
C3705 H3771 0.932 . S
C3706 C3705 1.369 . S
C3706 C3707 1.398 . S
C3706 C3710 1.527 . S
C3707 C3706 1.398 . S
C3707 C3708 1.380 . S
C3707 C3721 1.497 . S
C3708 C3707 1.380 . S
C3708 C3709 1.383 . S
C3708 C3711 1.603 . S
C3709 C3704 1.377 . S
C3709 C3708 1.383 . S
C3709 H3772 0.929 . S
C3710 C3706 1.527 . S
C3710 H3773 0.961 . S
C3710 H3774 0.959 . S
C3710 H3775 0.959 . S
C3711 C3708 1.603 . S
C3711 H3776 0.960 . S
C3711 H3777 0.962 . S
C3711 H3778 0.961 . S
C3712 C3679 1.587 . S
C3712 C3713 1.360 . S
C3712 C3725 1.412 . S
C3713 C3712 1.360 . S
C3713 C3714 1.365 . S
C3713 H3779 0.929 . S
C3714 C3689 1.553 . S
C3714 C3713 1.365 . S
C3714 C3715 1.404 . S
C3715 C3714 1.404 . S
C3715 C3716 1.395 . S
C3715 C3726 1.451 . S
C3716 C3715 1.395 . S
C3716 C3717 1.322 . S
C3716 H3780 0.930 . S
C3717 C3716 1.322 . S
C3717 C3718 1.459 . S
C3717 H3781 0.929 . S
C3718 C3717 1.459 . S
C3718 C3719 1.445 . S
C3718 C3727 1.395 . S
C3719 C3697 1.432 . S
C3719 C3718 1.445 . S
C3719 C3720 1.370 . S
C3720 C3719 1.370 . S
C3720 C3721 1.438 . S
C3720 H3782 0.930 . S
C3721 C3707 1.497 . S
C3721 C3720 1.438 . S
C3721 C3722 1.360 . S
C3722 C3721 1.360 . S
C3722 C3723 1.401 . S
C3722 C3727 1.446 . S
C3723 C3722 1.401 . S
C3723 C3724 1.347 . S
C3723 H3783 0.929 . S
C3724 C3723 1.347 . S
C3724 C3725 1.455 . S
C3724 H3784 0.930 . S
C3725 C3712 1.412 . S
C3725 C3724 1.455 . S
C3725 C3726 1.331 . S
C3726 C3715 1.451 . S
C3726 C3725 1.331 . S
C3726 C3727 1.497 . S
C3727 C3718 1.395 . S
C3727 C3722 1.446 . S
C3727 C3726 1.497 . S
C3728 C3729 1.582 . S
C3728 H3785 0.962 . S
C3728 H3786 0.959 . S
C3728 H3787 0.958 . S
C3729 C3728 1.582 . S
C3729 O3732 1.458 . S
C3729 H3758 0.980 . S
O3730 C3675 1.426 . S
O3730 C3676 1.334 . S
O3731 C3703 1.412 . S
O3731 C3704 1.393 . S
O3732 C3694 1.435 . S
O3732 C3729 1.458 . S
O3733 C3685 1.468 . S
O3733 C3686 1.408 . S
H3734 C3675 0.980 . S
H3735 C3674 0.959 . S
H3736 C3674 0.959 . S
H3737 C3674 0.960 . S
H3738 C3677 0.929 . S
H3739 C3681 0.929 . S
H3740 C3682 0.959 . S
H3741 C3682 0.961 . S
H3742 C3682 0.961 . S
H3743 C3683 0.960 . S
H3744 C3683 0.960 . S
H3745 C3683 0.961 . S
H3746 C3685 0.980 . S
H3747 C3684 0.961 . S
H3748 C3684 0.960 . S
H3749 C3684 0.959 . S
H3750 C3687 0.930 . S
H3751 C3691 0.931 . S
H3752 C3692 0.959 . S
H3753 C3692 0.961 . S
H3754 C3692 0.959 . S
H3755 C3693 0.960 . S
H3756 C3693 0.960 . S
H3757 C3693 0.960 . S
H3758 C3729 0.980 . S
H3759 C3695 0.930 . S
H3760 C3699 0.930 . S
H3761 C3700 0.961 . S
H3762 C3700 0.960 . S
H3763 C3700 0.958 . S
H3764 C3701 0.961 . S
H3765 C3701 0.960 . S
H3766 C3701 0.960 . S
H3767 C3703 0.980 . S
H3768 C3702 0.961 . S
H3769 C3702 0.961 . S
H3770 C3702 0.959 . S
H3771 C3705 0.932 . S
H3772 C3709 0.929 . S
H3773 C3710 0.961 . S
H3774 C3710 0.959 . S
H3775 C3710 0.959 . S
H3776 C3711 0.960 . S
H3777 C3711 0.962 . S
H3778 C3711 0.961 . S
H3779 C3713 0.929 . S
H3780 C3716 0.930 . S
H3781 C3717 0.929 . S
H3782 C3720 0.930 . S
H3783 C3723 0.929 . S
H3784 C3724 0.930 . S
H3785 C3728 0.962 . S
H3786 C3728 0.959 . S
H3787 C3728 0.958 . S
C3788 C3789 1.560 . S
C3788 H3849 0.959 . S
C3788 H3850 0.959 . S
C3788 H3851 0.960 . S
C3789 C3788 1.560 . S
C3789 O3844 1.426 . S
C3789 H3848 0.980 . S
C3790 C3791 1.407 . S
C3790 C3795 1.418 . S
C3790 O3844 1.334 . S
C3791 C3790 1.407 . S
C3791 C3792 1.360 . S
C3791 H3852 0.929 . S
C3792 C3791 1.360 . S
C3792 C3793 1.401 . S
C3792 C3796 1.527 . S
C3793 C3792 1.401 . S
C3793 C3794 1.405 . S
C3793 C3826 1.587 . S
C3794 C3793 1.405 . S
C3794 C3795 1.332 . S
C3794 C3797 1.496 . S
C3795 C3790 1.418 . S
C3795 C3794 1.332 . S
C3795 H3853 0.929 . S
C3796 C3792 1.527 . S
C3796 H3854 0.959 . S
C3796 H3855 0.961 . S
C3796 H3856 0.961 . S
C3797 C3794 1.496 . S
C3797 H3857 0.960 . S
C3797 H3858 0.960 . S
C3797 H3859 0.961 . S
C3798 C3799 1.517 . S
C3798 H3861 0.961 . S
C3798 H3862 0.960 . S
C3798 H3863 0.959 . S
C3799 C3798 1.517 . S
C3799 O3847 1.468 . S
C3799 H3860 0.980 . S
C3800 C3801 1.349 . S
C3800 C3805 1.367 . S
C3800 O3847 1.408 . S
C3801 C3800 1.349 . S
C3801 C3802 1.407 . S
C3801 H3864 0.930 . S
C3802 C3801 1.407 . S
C3802 C3803 1.449 . S
C3802 C3806 1.535 . S
C3803 C3802 1.449 . S
C3803 C3804 1.384 . S
C3803 C3828 1.553 . S
C3804 C3803 1.384 . S
C3804 C3805 1.364 . S
C3804 C3807 1.450 . S
C3805 C3800 1.367 . S
C3805 C3804 1.364 . S
C3805 H3865 0.931 . S
C3806 C3802 1.535 . S
C3806 H3866 0.959 . S
C3806 H3867 0.961 . S
C3806 H3868 0.959 . S
C3807 C3804 1.450 . S
C3807 H3869 0.960 . S
C3807 H3870 0.960 . S
C3807 H3871 0.960 . S
C3808 C3809 1.309 . S
C3808 C3813 1.304 . S
C3808 O3846 1.435 . S
C3809 C3808 1.309 . S
C3809 C3810 1.476 . S
C3809 H3873 0.930 . S
C3810 C3809 1.476 . S
C3810 C3811 1.400 . S
C3810 C3814 1.567 . S
C3811 C3810 1.400 . S
C3811 C3812 1.373 . S
C3811 C3833 1.432 . S
C3812 C3811 1.373 . S
C3812 C3813 1.339 . S
C3812 C3815 1.530 . S
C3813 C3808 1.304 . S
C3813 C3812 1.339 . S
C3813 H3874 0.930 . S
C3814 C3810 1.567 . S
C3814 H3875 0.961 . S
C3814 H3876 0.960 . S
C3814 H3877 0.958 . S
C3815 C3812 1.530 . S
C3815 H3878 0.961 . S
C3815 H3879 0.960 . S
C3815 H3880 0.960 . S
C3816 C3817 1.530 . S
C3816 H3882 0.961 . S
C3816 H3883 0.961 . S
C3816 H3884 0.959 . S
C3817 C3816 1.530 . S
C3817 O3845 1.412 . S
C3817 H3881 0.980 . S
C3818 C3819 1.288 . S
C3818 C3823 1.377 . S
C3818 O3845 1.393 . S
C3819 C3818 1.288 . S
C3819 C3820 1.369 . S
C3819 H3885 0.932 . S
C3820 C3819 1.369 . S
C3820 C3821 1.398 . S
C3820 C3824 1.527 . S
C3821 C3820 1.398 . S
C3821 C3822 1.380 . S
C3821 C3835 1.497 . S
C3822 C3821 1.380 . S
C3822 C3823 1.383 . S
C3822 C3825 1.603 . S
C3823 C3818 1.377 . S
C3823 C3822 1.383 . S
C3823 H3886 0.929 . S
C3824 C3820 1.527 . S
C3824 H3887 0.961 . S
C3824 H3888 0.959 . S
C3824 H3889 0.959 . S
C3825 C3822 1.603 . S
C3825 H3890 0.960 . S
C3825 H3891 0.962 . S
C3825 H3892 0.961 . S
C3826 C3793 1.587 . S
C3826 C3827 1.360 . S
C3826 C3839 1.412 . S
C3827 C3826 1.360 . S
C3827 C3828 1.365 . S
C3827 H3893 0.929 . S
C3828 C3803 1.553 . S
C3828 C3827 1.365 . S
C3828 C3829 1.404 . S
C3829 C3828 1.404 . S
C3829 C3830 1.395 . S
C3829 C3840 1.451 . S
C3830 C3829 1.395 . S
C3830 C3831 1.322 . S
C3830 H3894 0.930 . S
C3831 C3830 1.322 . S
C3831 C3832 1.459 . S
C3831 H3895 0.929 . S
C3832 C3831 1.459 . S
C3832 C3833 1.445 . S
C3832 C3841 1.395 . S
C3833 C3811 1.432 . S
C3833 C3832 1.445 . S
C3833 C3834 1.370 . S
C3834 C3833 1.370 . S
C3834 C3835 1.438 . S
C3834 H3896 0.930 . S
C3835 C3821 1.497 . S
C3835 C3834 1.438 . S
C3835 C3836 1.360 . S
C3836 C3835 1.360 . S
C3836 C3837 1.401 . S
C3836 C3841 1.446 . S
C3837 C3836 1.401 . S
C3837 C3838 1.347 . S
C3837 H3897 0.929 . S
C3838 C3837 1.347 . S
C3838 C3839 1.455 . S
C3838 H3898 0.930 . S
C3839 C3826 1.412 . S
C3839 C3838 1.455 . S
C3839 C3840 1.331 . S
C3840 C3829 1.451 . S
C3840 C3839 1.331 . S
C3840 C3841 1.497 . S
C3841 C3832 1.395 . S
C3841 C3836 1.446 . S
C3841 C3840 1.497 . S
C3842 C3843 1.582 . S
C3842 H3899 0.962 . S
C3842 H3900 0.959 . S
C3842 H3901 0.958 . S
C3843 C3842 1.582 . S
C3843 O3846 1.458 . S
C3843 H3872 0.980 . S
O3844 C3789 1.426 . S
O3844 C3790 1.334 . S
O3845 C3817 1.412 . S
O3845 C3818 1.393 . S
O3846 C3808 1.435 . S
O3846 C3843 1.458 . S
O3847 C3799 1.468 . S
O3847 C3800 1.408 . S
H3848 C3789 0.980 . S
H3849 C3788 0.959 . S
H3850 C3788 0.959 . S
H3851 C3788 0.960 . S
H3852 C3791 0.929 . S
H3853 C3795 0.929 . S
H3854 C3796 0.959 . S
H3855 C3796 0.961 . S
H3856 C3796 0.961 . S
H3857 C3797 0.960 . S
H3858 C3797 0.960 . S
H3859 C3797 0.961 . S
H3860 C3799 0.980 . S
H3861 C3798 0.961 . S
H3862 C3798 0.960 . S
H3863 C3798 0.959 . S
H3864 C3801 0.930 . S
H3865 C3805 0.931 . S
H3866 C3806 0.959 . S
H3867 C3806 0.961 . S
H3868 C3806 0.959 . S
H3869 C3807 0.960 . S
H3870 C3807 0.960 . S
H3871 C3807 0.960 . S
H3872 C3843 0.980 . S
H3873 C3809 0.930 . S
H3874 C3813 0.930 . S
H3875 C3814 0.961 . S
H3876 C3814 0.960 . S
H3877 C3814 0.958 . S
H3878 C3815 0.961 . S
H3879 C3815 0.960 . S
H3880 C3815 0.960 . S
H3881 C3817 0.980 . S
H3882 C3816 0.961 . S
H3883 C3816 0.961 . S
H3884 C3816 0.959 . S
H3885 C3819 0.932 . S
H3886 C3823 0.929 . S
H3887 C3824 0.961 . S
H3888 C3824 0.959 . S
H3889 C3824 0.959 . S
H3890 C3825 0.960 . S
H3891 C3825 0.962 . S
H3892 C3825 0.961 . S
H3893 C3827 0.929 . S
H3894 C3830 0.930 . S
H3895 C3831 0.929 . S
H3896 C3834 0.930 . S
H3897 C3837 0.929 . S
H3898 C3838 0.930 . S
H3899 C3842 0.962 . S
H3900 C3842 0.959 . S
H3901 C3842 0.958 . S
C3902 C3903 1.560 . S
C3902 H3963 0.959 . S
C3902 H3964 0.959 . S
C3902 H3965 0.960 . S
C3903 C3902 1.560 . S
C3903 O3958 1.426 . S
C3903 H3962 0.980 . S
C3904 C3905 1.407 . S
C3904 C3909 1.418 . S
C3904 O3958 1.334 . S
C3905 C3904 1.407 . S
C3905 C3906 1.360 . S
C3905 H3966 0.929 . S
C3906 C3905 1.360 . S
C3906 C3907 1.401 . S
C3906 C3910 1.527 . S
C3907 C3906 1.401 . S
C3907 C3908 1.405 . S
C3907 C3940 1.587 . S
C3908 C3907 1.405 . S
C3908 C3909 1.332 . S
C3908 C3911 1.496 . S
C3909 C3904 1.418 . S
C3909 C3908 1.332 . S
C3909 H3967 0.929 . S
C3910 C3906 1.527 . S
C3910 H3968 0.959 . S
C3910 H3969 0.961 . S
C3910 H3970 0.961 . S
C3911 C3908 1.496 . S
C3911 H3971 0.960 . S
C3911 H3972 0.960 . S
C3911 H3973 0.961 . S
C3912 C3913 1.517 . S
C3912 H3975 0.961 . S
C3912 H3976 0.960 . S
C3912 H3977 0.959 . S
C3913 C3912 1.517 . S
C3913 O3961 1.468 . S
C3913 H3974 0.980 . S
C3914 C3915 1.349 . S
C3914 C3919 1.367 . S
C3914 O3961 1.408 . S
C3915 C3914 1.349 . S
C3915 C3916 1.407 . S
C3915 H3978 0.930 . S
C3916 C3915 1.407 . S
C3916 C3917 1.449 . S
C3916 C3920 1.535 . S
C3917 C3916 1.449 . S
C3917 C3918 1.384 . S
C3917 C3942 1.553 . S
C3918 C3917 1.384 . S
C3918 C3919 1.364 . S
C3918 C3921 1.450 . S
C3919 C3914 1.367 . S
C3919 C3918 1.364 . S
C3919 H3979 0.931 . S
C3920 C3916 1.535 . S
C3920 H3980 0.959 . S
C3920 H3981 0.961 . S
C3920 H3982 0.959 . S
C3921 C3918 1.450 . S
C3921 H3983 0.960 . S
C3921 H3984 0.960 . S
C3921 H3985 0.960 . S
C3922 C3923 1.309 . S
C3922 C3927 1.304 . S
C3922 O3960 1.435 . S
C3923 C3922 1.309 . S
C3923 C3924 1.476 . S
C3923 H3987 0.930 . S
C3924 C3923 1.476 . S
C3924 C3925 1.400 . S
C3924 C3928 1.567 . S
C3925 C3924 1.400 . S
C3925 C3926 1.373 . S
C3925 C3947 1.432 . S
C3926 C3925 1.373 . S
C3926 C3927 1.339 . S
C3926 C3929 1.530 . S
C3927 C3922 1.304 . S
C3927 C3926 1.339 . S
C3927 H3988 0.930 . S
C3928 C3924 1.567 . S
C3928 H3989 0.961 . S
C3928 H3990 0.960 . S
C3928 H3991 0.958 . S
C3929 C3926 1.530 . S
C3929 H3992 0.961 . S
C3929 H3993 0.960 . S
C3929 H3994 0.960 . S
C3930 C3931 1.530 . S
C3930 H3996 0.961 . S
C3930 H3997 0.961 . S
C3930 H3998 0.959 . S
C3931 C3930 1.530 . S
C3931 O3959 1.412 . S
C3931 H3995 0.980 . S
C3932 C3933 1.288 . S
C3932 C3937 1.377 . S
C3932 O3959 1.393 . S
C3933 C3932 1.288 . S
C3933 C3934 1.369 . S
C3933 H3999 0.932 . S
C3934 C3933 1.369 . S
C3934 C3935 1.398 . S
C3934 C3938 1.527 . S
C3935 C3934 1.398 . S
C3935 C3936 1.380 . S
C3935 C3949 1.497 . S
C3936 C3935 1.380 . S
C3936 C3937 1.383 . S
C3936 C3939 1.603 . S
C3937 C3932 1.377 . S
C3937 C3936 1.383 . S
C3937 H4000 0.929 . S
C3938 C3934 1.527 . S
C3938 H4001 0.961 . S
C3938 H4002 0.959 . S
C3938 H4003 0.959 . S
C3939 C3936 1.603 . S
C3939 H4004 0.960 . S
C3939 H4005 0.962 . S
C3939 H4006 0.961 . S
C3940 C3907 1.587 . S
C3940 C3941 1.360 . S
C3940 C3953 1.412 . S
C3941 C3940 1.360 . S
C3941 C3942 1.365 . S
C3941 H4007 0.929 . S
C3942 C3917 1.553 . S
C3942 C3941 1.365 . S
C3942 C3943 1.404 . S
C3943 C3942 1.404 . S
C3943 C3944 1.395 . S
C3943 C3954 1.451 . S
C3944 C3943 1.395 . S
C3944 C3945 1.322 . S
C3944 H4008 0.930 . S
C3945 C3944 1.322 . S
C3945 C3946 1.459 . S
C3945 H4009 0.929 . S
C3946 C3945 1.459 . S
C3946 C3947 1.445 . S
C3946 C3955 1.395 . S
C3947 C3925 1.432 . S
C3947 C3946 1.445 . S
C3947 C3948 1.370 . S
C3948 C3947 1.370 . S
C3948 C3949 1.438 . S
C3948 H4010 0.930 . S
C3949 C3935 1.497 . S
C3949 C3948 1.438 . S
C3949 C3950 1.360 . S
C3950 C3949 1.360 . S
C3950 C3951 1.401 . S
C3950 C3955 1.446 . S
C3951 C3950 1.401 . S
C3951 C3952 1.347 . S
C3951 H4011 0.929 . S
C3952 C3951 1.347 . S
C3952 C3953 1.455 . S
C3952 H4012 0.930 . S
C3953 C3940 1.412 . S
C3953 C3952 1.455 . S
C3953 C3954 1.331 . S
C3954 C3943 1.451 . S
C3954 C3953 1.331 . S
C3954 C3955 1.497 . S
C3955 C3946 1.395 . S
C3955 C3950 1.446 . S
C3955 C3954 1.497 . S
C3956 C3957 1.582 . S
C3956 H4013 0.962 . S
C3956 H4014 0.959 . S
C3956 H4015 0.958 . S
C3957 C3956 1.582 . S
C3957 O3960 1.458 . S
C3957 H3986 0.980 . S
O3958 C3903 1.426 . S
O3958 C3904 1.334 . S
O3959 C3931 1.412 . S
O3959 C3932 1.393 . S
O3960 C3922 1.435 . S
O3960 C3957 1.458 . S
O3961 C3913 1.468 . S
O3961 C3914 1.408 . S
H3962 C3903 0.980 . S
H3963 C3902 0.959 . S
H3964 C3902 0.959 . S
H3965 C3902 0.960 . S
H3966 C3905 0.929 . S
H3967 C3909 0.929 . S
H3968 C3910 0.959 . S
H3969 C3910 0.961 . S
H3970 C3910 0.961 . S
H3971 C3911 0.960 . S
H3972 C3911 0.960 . S
H3973 C3911 0.961 . S
H3974 C3913 0.980 . S
H3975 C3912 0.961 . S
H3976 C3912 0.960 . S
H3977 C3912 0.959 . S
H3978 C3915 0.930 . S
H3979 C3919 0.931 . S
H3980 C3920 0.959 . S
H3981 C3920 0.961 . S
H3982 C3920 0.959 . S
H3983 C3921 0.960 . S
H3984 C3921 0.960 . S
H3985 C3921 0.960 . S
H3986 C3957 0.980 . S
H3987 C3923 0.930 . S
H3988 C3927 0.930 . S
H3989 C3928 0.961 . S
H3990 C3928 0.960 . S
H3991 C3928 0.958 . S
H3992 C3929 0.961 . S
H3993 C3929 0.960 . S
H3994 C3929 0.960 . S
H3995 C3931 0.980 . S
H3996 C3930 0.961 . S
H3997 C3930 0.961 . S
H3998 C3930 0.959 . S
H3999 C3933 0.932 . S
H4000 C3937 0.929 . S
H4001 C3938 0.961 . S
H4002 C3938 0.959 . S
H4003 C3938 0.959 . S
H4004 C3939 0.960 . S
H4005 C3939 0.962 . S
H4006 C3939 0.961 . S
H4007 C3941 0.929 . S
H4008 C3944 0.930 . S
H4009 C3945 0.929 . S
H4010 C3948 0.930 . S
H4011 C3951 0.929 . S
H4012 C3952 0.930 . S
H4013 C3956 0.962 . S
H4014 C3956 0.959 . S
H4015 C3956 0.958 . S
H4016 C4034 0.951 . S
H4017 C4036 0.951 . S
H4018 C4038 0.950 . S
H4019 C4039 0.950 . S
H4020 C4041 0.950 . S
H4021 C4044 0.950 . S
H4022 C4045 0.950 . S
H4023 C4047 0.950 . S
H4024 C4048 0.950 . S
H4025 C4049 0.951 . S
H4026 C4051 0.951 . S
H4027 C4053 0.950 . S
H4028 C4054 0.950 . S
H4029 C4056 0.950 . S
H4030 C4059 0.950 . S
H4031 C4060 0.950 . S
H4032 C4062 0.950 . S
H4033 C4063 0.950 . S
C4034 H4016 0.951 . S
C4034 C4035 1.366 . S
C4034 C4036 1.388 . S
C4035 C4034 1.366 . S
C4035 C4039 1.385 . S
C4036 H4017 0.951 . S
C4036 C4034 1.388 . S
C4036 C4037 1.366 . S
C4037 C4036 1.366 . S
C4037 C4038 1.414 . S
C4037 C4040 1.499 . S
C4038 H4018 0.950 . S
C4038 C4037 1.414 . S
C4038 C4039 1.374 . S
C4039 H4019 0.950 . S
C4039 C4035 1.385 . S
C4039 C4038 1.374 . S
C4040 C4037 1.499 . S
C4040 C4041 1.373 . S
C4040 C4042 1.389 . S
C4041 H4020 0.950 . S
C4041 C4040 1.373 . S
C4041 C4057 1.377 . S
C4042 C4040 1.389 . S
C4042 C4043 1.524 . S
C4042 C4056 1.377 . S
C4043 C4042 1.524 . S
C4043 C4044 1.397 . S
C4043 C4048 1.363 . S
C4044 H4021 0.950 . S
C4044 C4043 1.397 . S
C4044 C4045 1.334 . S
C4045 H4022 0.950 . S
C4045 C4044 1.334 . S
C4045 C4046 1.287 . S
C4046 C4045 1.287 . S
C4046 C4047 1.524 . S
C4046 H4065 0.913 . S
C4047 H4023 0.950 . S
C4047 C4046 1.524 . S
C4047 C4048 1.415 . S
C4048 H4024 0.950 . S
C4048 C4043 1.363 . S
C4048 C4047 1.415 . S
C4049 H4025 0.951 . S
C4049 C4050 1.366 . S
C4049 C4051 1.388 . S
C4050 C4049 1.366 . S
C4050 C4054 1.385 . S
C4051 H4026 0.951 . S
C4051 C4049 1.388 . S
C4051 C4052 1.366 . S
C4052 C4051 1.366 . S
C4052 C4053 1.414 . S
C4052 C4055 1.499 . S
C4053 H4027 0.950 . S
C4053 C4052 1.414 . S
C4053 C4054 1.374 . S
C4054 H4028 0.950 . S
C4054 C4050 1.385 . S
C4054 C4053 1.374 . S
C4055 C4052 1.499 . S
C4055 C4056 1.373 . S
C4055 C4057 1.389 . S
C4056 H4029 0.950 . S
C4056 C4042 1.377 . S
C4056 C4055 1.373 . S
C4057 C4041 1.377 . S
C4057 C4055 1.389 . S
C4057 C4058 1.524 . S
C4058 C4057 1.524 . S
C4058 C4059 1.397 . S
C4058 C4063 1.363 . S
C4059 H4030 0.950 . S
C4059 C4058 1.397 . S
C4059 C4060 1.334 . S
C4060 H4031 0.950 . S
C4060 C4059 1.334 . S
C4060 C4061 1.287 . S
C4061 C4060 1.287 . S
C4061 C4062 1.524 . S
C4061 H4064 0.999 . S
C4062 H4032 0.950 . S
C4062 C4061 1.524 . S
C4062 C4063 1.415 . S
C4063 H4033 0.950 . S
C4063 C4058 1.363 . S
C4063 C4062 1.415 . S
H4064 C4061 0.999 . S
H4065 C4046 0.913 . S
H4066 C4084 0.951 . S
H4067 C4086 0.951 . S
H4068 C4088 0.950 . S
H4069 C4089 0.950 . S
H4070 C4091 0.950 . S
H4071 C4094 0.950 . S
H4072 C4095 0.950 . S
H4073 C4097 0.950 . S
H4074 C4098 0.950 . S
H4075 C4099 0.951 . S
H4076 C4101 0.951 . S
H4077 C4103 0.950 . S
H4078 C4104 0.950 . S
H4079 C4106 0.950 . S
H4080 C4109 0.950 . S
H4081 C4110 0.950 . S
H4082 C4112 0.950 . S
H4083 C4113 0.950 . S
C4084 H4066 0.951 . S
C4084 C4085 1.366 . S
C4084 C4086 1.388 . S
C4085 C4084 1.366 . S
C4085 C4089 1.385 . S
C4086 H4067 0.951 . S
C4086 C4084 1.388 . S
C4086 C4087 1.366 . S
C4087 C4086 1.366 . S
C4087 C4088 1.414 . S
C4087 C4090 1.499 . S
C4088 H4068 0.950 . S
C4088 C4087 1.414 . S
C4088 C4089 1.374 . S
C4089 H4069 0.950 . S
C4089 C4085 1.385 . S
C4089 C4088 1.374 . S
C4090 C4087 1.499 . S
C4090 C4091 1.373 . S
C4090 C4092 1.389 . S
C4091 H4070 0.950 . S
C4091 C4090 1.373 . S
C4091 C4107 1.377 . S
C4092 C4090 1.389 . S
C4092 C4093 1.524 . S
C4092 C4106 1.377 . S
C4093 C4092 1.524 . S
C4093 C4094 1.397 . S
C4093 C4098 1.363 . S
C4094 H4071 0.950 . S
C4094 C4093 1.397 . S
C4094 C4095 1.334 . S
C4095 H4072 0.950 . S
C4095 C4094 1.334 . S
C4095 C4096 1.287 . S
C4096 C4095 1.287 . S
C4096 C4097 1.524 . S
C4096 H4115 0.913 . S
C4097 H4073 0.950 . S
C4097 C4096 1.524 . S
C4097 C4098 1.415 . S
C4098 H4074 0.950 . S
C4098 C4093 1.363 . S
C4098 C4097 1.415 . S
C4099 H4075 0.951 . S
C4099 C4100 1.366 . S
C4099 C4101 1.388 . S
C4100 C4099 1.366 . S
C4100 C4104 1.385 . S
C4101 H4076 0.951 . S
C4101 C4099 1.388 . S
C4101 C4102 1.366 . S
C4102 C4101 1.366 . S
C4102 C4103 1.414 . S
C4102 C4105 1.499 . S
C4103 H4077 0.950 . S
C4103 C4102 1.414 . S
C4103 C4104 1.374 . S
C4104 H4078 0.950 . S
C4104 C4100 1.385 . S
C4104 C4103 1.374 . S
C4105 C4102 1.499 . S
C4105 C4106 1.373 . S
C4105 C4107 1.389 . S
C4106 H4079 0.950 . S
C4106 C4092 1.377 . S
C4106 C4105 1.373 . S
C4107 C4091 1.377 . S
C4107 C4105 1.389 . S
C4107 C4108 1.524 . S
C4108 C4107 1.524 . S
C4108 C4109 1.397 . S
C4108 C4113 1.363 . S
C4109 H4080 0.950 . S
C4109 C4108 1.397 . S
C4109 C4110 1.334 . S
C4110 H4081 0.950 . S
C4110 C4109 1.334 . S
C4110 C4111 1.287 . S
C4111 C4110 1.287 . S
C4111 C4112 1.524 . S
C4111 H4114 0.999 . S
C4112 H4082 0.950 . S
C4112 C4111 1.524 . S
C4112 C4113 1.415 . S
C4113 H4083 0.950 . S
C4113 C4108 1.363 . S
C4113 C4112 1.415 . S
H4114 C4111 0.999 . S
H4115 C4096 0.913 . S
H4116 C4134 0.951 . S
H4117 C4136 0.951 . S
H4118 C4138 0.950 . S
H4119 C4139 0.950 . S
H4120 C4141 0.950 . S
H4121 C4144 0.950 . S
H4122 C4145 0.950 . S
H4123 C4147 0.950 . S
H4124 C4148 0.950 . S
H4125 C4149 0.951 . S
H4126 C4151 0.951 . S
H4127 C4153 0.950 . S
H4128 C4154 0.950 . S
H4129 C4156 0.950 . S
H4130 C4159 0.950 . S
H4131 C4160 0.950 . S
H4132 C4162 0.950 . S
H4133 C4163 0.950 . S
C4134 H4116 0.951 . S
C4134 C4135 1.366 . S
C4134 C4136 1.388 . S
C4135 C4134 1.366 . S
C4135 C4139 1.385 . S
C4136 H4117 0.951 . S
C4136 C4134 1.388 . S
C4136 C4137 1.366 . S
C4137 C4136 1.366 . S
C4137 C4138 1.414 . S
C4137 C4140 1.499 . S
C4138 H4118 0.950 . S
C4138 C4137 1.414 . S
C4138 C4139 1.374 . S
C4139 H4119 0.950 . S
C4139 C4135 1.385 . S
C4139 C4138 1.374 . S
C4140 C4137 1.499 . S
C4140 C4141 1.373 . S
C4140 C4142 1.389 . S
C4141 H4120 0.950 . S
C4141 C4140 1.373 . S
C4141 C4157 1.377 . S
C4142 C4140 1.389 . S
C4142 C4143 1.524 . S
C4142 C4156 1.377 . S
C4143 C4142 1.524 . S
C4143 C4144 1.397 . S
C4143 C4148 1.363 . S
C4144 H4121 0.950 . S
C4144 C4143 1.397 . S
C4144 C4145 1.334 . S
C4145 H4122 0.950 . S
C4145 C4144 1.334 . S
C4145 C4146 1.287 . S
C4146 C4145 1.287 . S
C4146 C4147 1.524 . S
C4146 H4165 0.913 . S
C4147 H4123 0.950 . S
C4147 C4146 1.524 . S
C4147 C4148 1.415 . S
C4148 H4124 0.950 . S
C4148 C4143 1.363 . S
C4148 C4147 1.415 . S
C4149 H4125 0.951 . S
C4149 C4150 1.366 . S
C4149 C4151 1.388 . S
C4150 C4149 1.366 . S
C4150 C4154 1.385 . S
C4151 H4126 0.951 . S
C4151 C4149 1.388 . S
C4151 C4152 1.366 . S
C4152 C4151 1.366 . S
C4152 C4153 1.414 . S
C4152 C4155 1.499 . S
C4153 H4127 0.950 . S
C4153 C4152 1.414 . S
C4153 C4154 1.374 . S
C4154 H4128 0.950 . S
C4154 C4150 1.385 . S
C4154 C4153 1.374 . S
C4155 C4152 1.499 . S
C4155 C4156 1.373 . S
C4155 C4157 1.389 . S
C4156 H4129 0.950 . S
C4156 C4142 1.377 . S
C4156 C4155 1.373 . S
C4157 C4141 1.377 . S
C4157 C4155 1.389 . S
C4157 C4158 1.524 . S
C4158 C4157 1.524 . S
C4158 C4159 1.397 . S
C4158 C4163 1.363 . S
C4159 H4130 0.950 . S
C4159 C4158 1.397 . S
C4159 C4160 1.334 . S
C4160 H4131 0.950 . S
C4160 C4159 1.334 . S
C4160 C4161 1.287 . S
C4161 C4160 1.287 . S
C4161 C4162 1.524 . S
C4161 H4164 0.999 . S
C4162 H4132 0.950 . S
C4162 C4161 1.524 . S
C4162 C4163 1.415 . S
C4163 H4133 0.950 . S
C4163 C4158 1.363 . S
C4163 C4162 1.415 . S
H4164 C4161 0.999 . S
H4165 C4146 0.913 . S
H4166 C4184 0.951 . S
H4167 C4186 0.951 . S
H4168 C4188 0.950 . S
H4169 C4189 0.950 . S
H4170 C4191 0.950 . S
H4171 C4194 0.950 . S
H4172 C4195 0.950 . S
H4173 C4197 0.950 . S
H4174 C4198 0.950 . S
H4175 C4199 0.951 . S
H4176 C4201 0.951 . S
H4177 C4203 0.950 . S
H4178 C4204 0.950 . S
H4179 C4206 0.950 . S
H4180 C4209 0.950 . S
H4181 C4210 0.950 . S
H4182 C4212 0.950 . S
H4183 C4213 0.950 . S
C4184 H4166 0.951 . S
C4184 C4185 1.366 . S
C4184 C4186 1.388 . S
C4185 C4184 1.366 . S
C4185 C4189 1.385 . S
C4186 H4167 0.951 . S
C4186 C4184 1.388 . S
C4186 C4187 1.366 . S
C4187 C4186 1.366 . S
C4187 C4188 1.414 . S
C4187 C4190 1.499 . S
C4188 H4168 0.950 . S
C4188 C4187 1.414 . S
C4188 C4189 1.374 . S
C4189 H4169 0.950 . S
C4189 C4185 1.385 . S
C4189 C4188 1.374 . S
C4190 C4187 1.499 . S
C4190 C4191 1.373 . S
C4190 C4192 1.389 . S
C4191 H4170 0.950 . S
C4191 C4190 1.373 . S
C4191 C4207 1.377 . S
C4192 C4190 1.389 . S
C4192 C4193 1.524 . S
C4192 C4206 1.377 . S
C4193 C4192 1.524 . S
C4193 C4194 1.397 . S
C4193 C4198 1.363 . S
C4194 H4171 0.950 . S
C4194 C4193 1.397 . S
C4194 C4195 1.334 . S
C4195 H4172 0.950 . S
C4195 C4194 1.334 . S
C4195 C4196 1.287 . S
C4196 C4195 1.287 . S
C4196 C4197 1.524 . S
C4196 H4215 0.913 . S
C4197 H4173 0.950 . S
C4197 C4196 1.524 . S
C4197 C4198 1.415 . S
C4198 H4174 0.950 . S
C4198 C4193 1.363 . S
C4198 C4197 1.415 . S
C4199 H4175 0.951 . S
C4199 C4200 1.366 . S
C4199 C4201 1.388 . S
C4200 C4199 1.366 . S
C4200 C4204 1.385 . S
C4201 H4176 0.951 . S
C4201 C4199 1.388 . S
C4201 C4202 1.366 . S
C4202 C4201 1.366 . S
C4202 C4203 1.414 . S
C4202 C4205 1.499 . S
C4203 H4177 0.950 . S
C4203 C4202 1.414 . S
C4203 C4204 1.374 . S
C4204 H4178 0.950 . S
C4204 C4200 1.385 . S
C4204 C4203 1.374 . S
C4205 C4202 1.499 . S
C4205 C4206 1.373 . S
C4205 C4207 1.389 . S
C4206 H4179 0.950 . S
C4206 C4192 1.377 . S
C4206 C4205 1.373 . S
C4207 C4191 1.377 . S
C4207 C4205 1.389 . S
C4207 C4208 1.524 . S
C4208 C4207 1.524 . S
C4208 C4209 1.397 . S
C4208 C4213 1.363 . S
C4209 H4180 0.950 . S
C4209 C4208 1.397 . S
C4209 C4210 1.334 . S
C4210 H4181 0.950 . S
C4210 C4209 1.334 . S
C4210 C4211 1.287 . S
C4211 C4210 1.287 . S
C4211 C4212 1.524 . S
C4211 H4214 0.999 . S
C4212 H4182 0.950 . S
C4212 C4211 1.524 . S
C4212 C4213 1.415 . S
C4213 H4183 0.950 . S
C4213 C4208 1.363 . S
C4213 C4212 1.415 . S
H4214 C4211 0.999 . S
H4215 C4196 0.913 . S
H4216 C4234 0.951 . S
H4217 C4236 0.951 . S
H4218 C4238 0.950 . S
H4219 C4239 0.950 . S
H4220 C4241 0.950 . S
H4221 C4244 0.950 . S
H4222 C4245 0.950 . S
H4223 C4247 0.950 . S
H4224 C4248 0.950 . S
H4225 C4249 0.951 . S
H4226 C4251 0.951 . S
H4227 C4253 0.950 . S
H4228 C4254 0.950 . S
H4229 C4256 0.950 . S
H4230 C4259 0.950 . S
H4231 C4260 0.950 . S
H4232 C4262 0.950 . S
H4233 C4263 0.950 . S
C4234 H4216 0.951 . S
C4234 C4235 1.366 . S
C4234 C4236 1.388 . S
C4235 C4234 1.366 . S
C4235 C4239 1.385 . S
C4236 H4217 0.951 . S
C4236 C4234 1.388 . S
C4236 C4237 1.366 . S
C4237 C4236 1.366 . S
C4237 C4238 1.414 . S
C4237 C4240 1.499 . S
C4238 H4218 0.950 . S
C4238 C4237 1.414 . S
C4238 C4239 1.374 . S
C4239 H4219 0.950 . S
C4239 C4235 1.385 . S
C4239 C4238 1.374 . S
C4240 C4237 1.499 . S
C4240 C4241 1.373 . S
C4240 C4242 1.389 . S
C4241 H4220 0.950 . S
C4241 C4240 1.373 . S
C4241 C4257 1.377 . S
C4242 C4240 1.389 . S
C4242 C4243 1.524 . S
C4242 C4256 1.377 . S
C4243 C4242 1.524 . S
C4243 C4244 1.397 . S
C4243 C4248 1.363 . S
C4244 H4221 0.950 . S
C4244 C4243 1.397 . S
C4244 C4245 1.334 . S
C4245 H4222 0.950 . S
C4245 C4244 1.334 . S
C4245 C4246 1.287 . S
C4246 C4245 1.287 . S
C4246 C4247 1.524 . S
C4246 H4265 0.913 . S
C4247 H4223 0.950 . S
C4247 C4246 1.524 . S
C4247 C4248 1.415 . S
C4248 H4224 0.950 . S
C4248 C4243 1.363 . S
C4248 C4247 1.415 . S
C4249 H4225 0.951 . S
C4249 C4250 1.366 . S
C4249 C4251 1.388 . S
C4250 C4249 1.366 . S
C4250 C4254 1.385 . S
C4251 H4226 0.951 . S
C4251 C4249 1.388 . S
C4251 C4252 1.366 . S
C4252 C4251 1.366 . S
C4252 C4253 1.414 . S
C4252 C4255 1.499 . S
C4253 H4227 0.950 . S
C4253 C4252 1.414 . S
C4253 C4254 1.374 . S
C4254 H4228 0.950 . S
C4254 C4250 1.385 . S
C4254 C4253 1.374 . S
C4255 C4252 1.499 . S
C4255 C4256 1.373 . S
C4255 C4257 1.389 . S
C4256 H4229 0.950 . S
C4256 C4242 1.377 . S
C4256 C4255 1.373 . S
C4257 C4241 1.377 . S
C4257 C4255 1.389 . S
C4257 C4258 1.524 . S
C4258 C4257 1.524 . S
C4258 C4259 1.397 . S
C4258 C4263 1.363 . S
C4259 H4230 0.950 . S
C4259 C4258 1.397 . S
C4259 C4260 1.334 . S
C4260 H4231 0.950 . S
C4260 C4259 1.334 . S
C4260 C4261 1.287 . S
C4261 C4260 1.287 . S
C4261 C4262 1.524 . S
C4261 H4264 0.999 . S
C4262 H4232 0.950 . S
C4262 C4261 1.524 . S
C4262 C4263 1.415 . S
C4263 H4233 0.950 . S
C4263 C4258 1.363 . S
C4263 C4262 1.415 . S
H4264 C4261 0.999 . S
H4265 C4246 0.913 . S
H4266 C4284 0.951 . S
H4267 C4286 0.951 . S
H4268 C4288 0.950 . S
H4269 C4289 0.950 . S
H4270 C4291 0.950 . S
H4271 C4294 0.950 . S
H4272 C4295 0.950 . S
H4273 C4297 0.950 . S
H4274 C4298 0.950 . S
H4275 C4299 0.951 . S
H4276 C4301 0.951 . S
H4277 C4303 0.950 . S
H4278 C4304 0.950 . S
H4279 C4306 0.950 . S
H4280 C4309 0.950 . S
H4281 C4310 0.950 . S
H4282 C4312 0.950 . S
H4283 C4313 0.950 . S
C4284 H4266 0.951 . S
C4284 C4285 1.366 . S
C4284 C4286 1.388 . S
C4285 C4284 1.366 . S
C4285 C4289 1.385 . S
C4286 H4267 0.951 . S
C4286 C4284 1.388 . S
C4286 C4287 1.366 . S
C4287 C4286 1.366 . S
C4287 C4288 1.414 . S
C4287 C4290 1.499 . S
C4288 H4268 0.950 . S
C4288 C4287 1.414 . S
C4288 C4289 1.374 . S
C4289 H4269 0.950 . S
C4289 C4285 1.385 . S
C4289 C4288 1.374 . S
C4290 C4287 1.499 . S
C4290 C4291 1.373 . S
C4290 C4292 1.389 . S
C4291 H4270 0.950 . S
C4291 C4290 1.373 . S
C4291 C4307 1.377 . S
C4292 C4290 1.389 . S
C4292 C4293 1.524 . S
C4292 C4306 1.377 . S
C4293 C4292 1.524 . S
C4293 C4294 1.397 . S
C4293 C4298 1.363 . S
C4294 H4271 0.950 . S
C4294 C4293 1.397 . S
C4294 C4295 1.334 . S
C4295 H4272 0.950 . S
C4295 C4294 1.334 . S
C4295 C4296 1.287 . S
C4296 C4295 1.287 . S
C4296 C4297 1.524 . S
C4296 H4315 0.913 . S
C4297 H4273 0.950 . S
C4297 C4296 1.524 . S
C4297 C4298 1.415 . S
C4298 H4274 0.950 . S
C4298 C4293 1.363 . S
C4298 C4297 1.415 . S
C4299 H4275 0.951 . S
C4299 C4300 1.366 . S
C4299 C4301 1.388 . S
C4300 C4299 1.366 . S
C4300 C4304 1.385 . S
C4301 H4276 0.951 . S
C4301 C4299 1.388 . S
C4301 C4302 1.366 . S
C4302 C4301 1.366 . S
C4302 C4303 1.414 . S
C4302 C4305 1.499 . S
C4303 H4277 0.950 . S
C4303 C4302 1.414 . S
C4303 C4304 1.374 . S
C4304 H4278 0.950 . S
C4304 C4300 1.385 . S
C4304 C4303 1.374 . S
C4305 C4302 1.499 . S
C4305 C4306 1.373 . S
C4305 C4307 1.389 . S
C4306 H4279 0.950 . S
C4306 C4292 1.377 . S
C4306 C4305 1.373 . S
C4307 C4291 1.377 . S
C4307 C4305 1.389 . S
C4307 C4308 1.524 . S
C4308 C4307 1.524 . S
C4308 C4309 1.397 . S
C4308 C4313 1.363 . S
C4309 H4280 0.950 . S
C4309 C4308 1.397 . S
C4309 C4310 1.334 . S
C4310 H4281 0.950 . S
C4310 C4309 1.334 . S
C4310 C4311 1.287 . S
C4311 C4310 1.287 . S
C4311 C4312 1.524 . S
C4311 H4314 0.999 . S
C4312 H4282 0.950 . S
C4312 C4311 1.524 . S
C4312 C4313 1.415 . S
C4313 H4283 0.950 . S
C4313 C4308 1.363 . S
C4313 C4312 1.415 . S
H4314 C4311 0.999 . S
H4315 C4296 0.913 . S
H4316 C4334 0.951 . S
H4317 C4336 0.951 . S
H4318 C4338 0.950 . S
H4319 C4339 0.950 . S
H4320 C4341 0.950 . S
H4321 C4344 0.950 . S
H4322 C4345 0.950 . S
H4323 C4347 0.950 . S
H4324 C4348 0.950 . S
H4325 C4349 0.951 . S
H4326 C4351 0.951 . S
H4327 C4353 0.950 . S
H4328 C4354 0.950 . S
H4329 C4356 0.950 . S
H4330 C4359 0.950 . S
H4331 C4360 0.950 . S
H4332 C4362 0.950 . S
H4333 C4363 0.950 . S
C4334 H4316 0.951 . S
C4334 C4335 1.366 . S
C4334 C4336 1.388 . S
C4335 C4334 1.366 . S
C4335 C4339 1.385 . S
C4336 H4317 0.951 . S
C4336 C4334 1.388 . S
C4336 C4337 1.366 . S
C4337 C4336 1.366 . S
C4337 C4338 1.414 . S
C4337 C4340 1.499 . S
C4338 H4318 0.950 . S
C4338 C4337 1.414 . S
C4338 C4339 1.374 . S
C4339 H4319 0.950 . S
C4339 C4335 1.385 . S
C4339 C4338 1.374 . S
C4340 C4337 1.499 . S
C4340 C4341 1.373 . S
C4340 C4342 1.389 . S
C4341 H4320 0.950 . S
C4341 C4340 1.373 . S
C4341 C4357 1.377 . S
C4342 C4340 1.389 . S
C4342 C4343 1.524 . S
C4342 C4356 1.377 . S
C4343 C4342 1.524 . S
C4343 C4344 1.397 . S
C4343 C4348 1.363 . S
C4344 H4321 0.950 . S
C4344 C4343 1.397 . S
C4344 C4345 1.334 . S
C4345 H4322 0.950 . S
C4345 C4344 1.334 . S
C4345 C4346 1.287 . S
C4346 C4345 1.287 . S
C4346 C4347 1.524 . S
C4346 H4365 0.913 . S
C4347 H4323 0.950 . S
C4347 C4346 1.524 . S
C4347 C4348 1.415 . S
C4348 H4324 0.950 . S
C4348 C4343 1.363 . S
C4348 C4347 1.415 . S
C4349 H4325 0.951 . S
C4349 C4350 1.366 . S
C4349 C4351 1.388 . S
C4350 C4349 1.366 . S
C4350 C4354 1.385 . S
C4351 H4326 0.951 . S
C4351 C4349 1.388 . S
C4351 C4352 1.366 . S
C4352 C4351 1.366 . S
C4352 C4353 1.414 . S
C4352 C4355 1.499 . S
C4353 H4327 0.950 . S
C4353 C4352 1.414 . S
C4353 C4354 1.374 . S
C4354 H4328 0.950 . S
C4354 C4350 1.385 . S
C4354 C4353 1.374 . S
C4355 C4352 1.499 . S
C4355 C4356 1.373 . S
C4355 C4357 1.389 . S
C4356 H4329 0.950 . S
C4356 C4342 1.377 . S
C4356 C4355 1.373 . S
C4357 C4341 1.377 . S
C4357 C4355 1.389 . S
C4357 C4358 1.524 . S
C4358 C4357 1.524 . S
C4358 C4359 1.397 . S
C4358 C4363 1.363 . S
C4359 H4330 0.950 . S
C4359 C4358 1.397 . S
C4359 C4360 1.334 . S
C4360 H4331 0.950 . S
C4360 C4359 1.334 . S
C4360 C4361 1.287 . S
C4361 C4360 1.287 . S
C4361 C4362 1.524 . S
C4361 H4364 0.999 . S
C4362 H4332 0.950 . S
C4362 C4361 1.524 . S
C4362 C4363 1.415 . S
C4363 H4333 0.950 . S
C4363 C4358 1.363 . S
C4363 C4362 1.415 . S
H4364 C4361 0.999 . S
H4365 C4346 0.913 . S
H4366 C4384 0.951 . S
H4367 C4386 0.951 . S
H4368 C4388 0.950 . S
H4369 C4389 0.950 . S
H4370 C4391 0.950 . S
H4371 C4394 0.950 . S
H4372 C4395 0.950 . S
H4373 C4397 0.950 . S
H4374 C4398 0.950 . S
H4375 C4399 0.951 . S
H4376 C4401 0.951 . S
H4377 C4403 0.950 . S
H4378 C4404 0.950 . S
H4379 C4406 0.950 . S
H4380 C4409 0.950 . S
H4381 C4410 0.950 . S
H4382 C4412 0.950 . S
H4383 C4413 0.950 . S
C4384 H4366 0.951 . S
C4384 C4385 1.366 . S
C4384 C4386 1.388 . S
C4385 C4384 1.366 . S
C4385 C4389 1.385 . S
C4386 H4367 0.951 . S
C4386 C4384 1.388 . S
C4386 C4387 1.366 . S
C4387 C4386 1.366 . S
C4387 C4388 1.414 . S
C4387 C4390 1.499 . S
C4388 H4368 0.950 . S
C4388 C4387 1.414 . S
C4388 C4389 1.374 . S
C4389 H4369 0.950 . S
C4389 C4385 1.385 . S
C4389 C4388 1.374 . S
C4390 C4387 1.499 . S
C4390 C4391 1.373 . S
C4390 C4392 1.389 . S
C4391 H4370 0.950 . S
C4391 C4390 1.373 . S
C4391 C4407 1.377 . S
C4392 C4390 1.389 . S
C4392 C4393 1.524 . S
C4392 C4406 1.377 . S
C4393 C4392 1.524 . S
C4393 C4394 1.397 . S
C4393 C4398 1.363 . S
C4394 H4371 0.950 . S
C4394 C4393 1.397 . S
C4394 C4395 1.334 . S
C4395 H4372 0.950 . S
C4395 C4394 1.334 . S
C4395 C4396 1.287 . S
C4396 C4395 1.287 . S
C4396 C4397 1.524 . S
C4396 H4415 0.913 . S
C4397 H4373 0.950 . S
C4397 C4396 1.524 . S
C4397 C4398 1.415 . S
C4398 H4374 0.950 . S
C4398 C4393 1.363 . S
C4398 C4397 1.415 . S
C4399 H4375 0.951 . S
C4399 C4400 1.366 . S
C4399 C4401 1.388 . S
C4400 C4399 1.366 . S
C4400 C4404 1.385 . S
C4401 H4376 0.951 . S
C4401 C4399 1.388 . S
C4401 C4402 1.366 . S
C4402 C4401 1.366 . S
C4402 C4403 1.414 . S
C4402 C4405 1.499 . S
C4403 H4377 0.950 . S
C4403 C4402 1.414 . S
C4403 C4404 1.374 . S
C4404 H4378 0.950 . S
C4404 C4400 1.385 . S
C4404 C4403 1.374 . S
C4405 C4402 1.499 . S
C4405 C4406 1.373 . S
C4405 C4407 1.389 . S
C4406 H4379 0.950 . S
C4406 C4392 1.377 . S
C4406 C4405 1.373 . S
C4407 C4391 1.377 . S
C4407 C4405 1.389 . S
C4407 C4408 1.524 . S
C4408 C4407 1.524 . S
C4408 C4409 1.397 . S
C4408 C4413 1.363 . S
C4409 H4380 0.950 . S
C4409 C4408 1.397 . S
C4409 C4410 1.334 . S
C4410 H4381 0.950 . S
C4410 C4409 1.334 . S
C4410 C4411 1.287 . S
C4411 C4410 1.287 . S
C4411 C4412 1.524 . S
C4411 H4414 0.999 . S
C4412 H4382 0.950 . S
C4412 C4411 1.524 . S
C4412 C4413 1.415 . S
C4413 H4383 0.950 . S
C4413 C4408 1.363 . S
C4413 C4412 1.415 . S
H4414 C4411 0.999 . S
H4415 C4396 0.913 . S
H4416 C4434 0.951 . S
H4417 C4436 0.951 . S
H4418 C4438 0.950 . S
H4419 C4439 0.950 . S
H4420 C4441 0.950 . S
H4421 C4444 0.950 . S
H4422 C4445 0.950 . S
H4423 C4447 0.950 . S
H4424 C4448 0.950 . S
H4425 C4449 0.951 . S
H4426 C4451 0.951 . S
H4427 C4453 0.950 . S
H4428 C4454 0.950 . S
H4429 C4456 0.950 . S
H4430 C4459 0.950 . S
H4431 C4460 0.950 . S
H4432 C4462 0.950 . S
H4433 C4463 0.950 . S
C4434 H4416 0.951 . S
C4434 C4435 1.366 . S
C4434 C4436 1.388 . S
C4435 C4434 1.366 . S
C4435 C4439 1.385 . S
C4436 H4417 0.951 . S
C4436 C4434 1.388 . S
C4436 C4437 1.366 . S
C4437 C4436 1.366 . S
C4437 C4438 1.414 . S
C4437 C4440 1.499 . S
C4438 H4418 0.950 . S
C4438 C4437 1.414 . S
C4438 C4439 1.374 . S
C4439 H4419 0.950 . S
C4439 C4435 1.385 . S
C4439 C4438 1.374 . S
C4440 C4437 1.499 . S
C4440 C4441 1.373 . S
C4440 C4442 1.389 . S
C4441 H4420 0.950 . S
C4441 C4440 1.373 . S
C4441 C4457 1.377 . S
C4442 C4440 1.389 . S
C4442 C4443 1.524 . S
C4442 C4456 1.377 . S
C4443 C4442 1.524 . S
C4443 C4444 1.397 . S
C4443 C4448 1.363 . S
C4444 H4421 0.950 . S
C4444 C4443 1.397 . S
C4444 C4445 1.334 . S
C4445 H4422 0.950 . S
C4445 C4444 1.334 . S
C4445 C4446 1.287 . S
C4446 C4445 1.287 . S
C4446 C4447 1.524 . S
C4446 H4465 0.913 . S
C4447 H4423 0.950 . S
C4447 C4446 1.524 . S
C4447 C4448 1.415 . S
C4448 H4424 0.950 . S
C4448 C4443 1.363 . S
C4448 C4447 1.415 . S
C4449 H4425 0.951 . S
C4449 C4450 1.366 . S
C4449 C4451 1.388 . S
C4450 C4449 1.366 . S
C4450 C4454 1.385 . S
C4451 H4426 0.951 . S
C4451 C4449 1.388 . S
C4451 C4452 1.366 . S
C4452 C4451 1.366 . S
C4452 C4453 1.414 . S
C4452 C4455 1.499 . S
C4453 H4427 0.950 . S
C4453 C4452 1.414 . S
C4453 C4454 1.374 . S
C4454 H4428 0.950 . S
C4454 C4450 1.385 . S
C4454 C4453 1.374 . S
C4455 C4452 1.499 . S
C4455 C4456 1.373 . S
C4455 C4457 1.389 . S
C4456 H4429 0.950 . S
C4456 C4442 1.377 . S
C4456 C4455 1.373 . S
C4457 C4441 1.377 . S
C4457 C4455 1.389 . S
C4457 C4458 1.524 . S
C4458 C4457 1.524 . S
C4458 C4459 1.397 . S
C4458 C4463 1.363 . S
C4459 H4430 0.950 . S
C4459 C4458 1.397 . S
C4459 C4460 1.334 . S
C4460 H4431 0.950 . S
C4460 C4459 1.334 . S
C4460 C4461 1.287 . S
C4461 C4460 1.287 . S
C4461 C4462 1.524 . S
C4461 H4464 0.999 . S
C4462 H4432 0.950 . S
C4462 C4461 1.524 . S
C4462 C4463 1.415 . S
C4463 H4433 0.950 . S
C4463 C4458 1.363 . S
C4463 C4462 1.415 . S
H4464 C4461 0.999 . S
H4465 C4446 0.913 . S
H4466 C4484 0.951 . S
H4467 C4486 0.951 . S
H4468 C4488 0.950 . S
H4469 C4489 0.950 . S
H4470 C4491 0.950 . S
H4471 C4494 0.950 . S
H4472 C4495 0.950 . S
H4473 C4497 0.950 . S
H4474 C4498 0.950 . S
H4475 C4499 0.951 . S
H4476 C4501 0.951 . S
H4477 C4503 0.950 . S
H4478 C4504 0.950 . S
H4479 C4506 0.950 . S
H4480 C4509 0.950 . S
H4481 C4510 0.950 . S
H4482 C4512 0.950 . S
H4483 C4513 0.950 . S
C4484 H4466 0.951 . S
C4484 C4485 1.366 . S
C4484 C4486 1.388 . S
C4485 C4484 1.366 . S
C4485 C4489 1.385 . S
C4486 H4467 0.951 . S
C4486 C4484 1.388 . S
C4486 C4487 1.366 . S
C4487 C4486 1.366 . S
C4487 C4488 1.414 . S
C4487 C4490 1.499 . S
C4488 H4468 0.950 . S
C4488 C4487 1.414 . S
C4488 C4489 1.374 . S
C4489 H4469 0.950 . S
C4489 C4485 1.385 . S
C4489 C4488 1.374 . S
C4490 C4487 1.499 . S
C4490 C4491 1.373 . S
C4490 C4492 1.389 . S
C4491 H4470 0.950 . S
C4491 C4490 1.373 . S
C4491 C4507 1.377 . S
C4492 C4490 1.389 . S
C4492 C4493 1.524 . S
C4492 C4506 1.377 . S
C4493 C4492 1.524 . S
C4493 C4494 1.397 . S
C4493 C4498 1.363 . S
C4494 H4471 0.950 . S
C4494 C4493 1.397 . S
C4494 C4495 1.334 . S
C4495 H4472 0.950 . S
C4495 C4494 1.334 . S
C4495 C4496 1.287 . S
C4496 C4495 1.287 . S
C4496 C4497 1.524 . S
C4496 H4515 0.913 . S
C4497 H4473 0.950 . S
C4497 C4496 1.524 . S
C4497 C4498 1.415 . S
C4498 H4474 0.950 . S
C4498 C4493 1.363 . S
C4498 C4497 1.415 . S
C4499 H4475 0.951 . S
C4499 C4500 1.366 . S
C4499 C4501 1.388 . S
C4500 C4499 1.366 . S
C4500 C4504 1.385 . S
C4501 H4476 0.951 . S
C4501 C4499 1.388 . S
C4501 C4502 1.366 . S
C4502 C4501 1.366 . S
C4502 C4503 1.414 . S
C4502 C4505 1.499 . S
C4503 H4477 0.950 . S
C4503 C4502 1.414 . S
C4503 C4504 1.374 . S
C4504 H4478 0.950 . S
C4504 C4500 1.385 . S
C4504 C4503 1.374 . S
C4505 C4502 1.499 . S
C4505 C4506 1.373 . S
C4505 C4507 1.389 . S
C4506 H4479 0.950 . S
C4506 C4492 1.377 . S
C4506 C4505 1.373 . S
C4507 C4491 1.377 . S
C4507 C4505 1.389 . S
C4507 C4508 1.524 . S
C4508 C4507 1.524 . S
C4508 C4509 1.397 . S
C4508 C4513 1.363 . S
C4509 H4480 0.950 . S
C4509 C4508 1.397 . S
C4509 C4510 1.334 . S
C4510 H4481 0.950 . S
C4510 C4509 1.334 . S
C4510 C4511 1.287 . S
C4511 C4510 1.287 . S
C4511 C4512 1.524 . S
C4511 H4514 0.999 . S
C4512 H4482 0.950 . S
C4512 C4511 1.524 . S
C4512 C4513 1.415 . S
C4513 H4483 0.950 . S
C4513 C4508 1.363 . S
C4513 C4512 1.415 . S
H4514 C4511 0.999 . S
H4515 C4496 0.913 . S
H4516 C4534 0.951 . S
H4517 C4536 0.951 . S
H4518 C4538 0.950 . S
H4519 C4539 0.950 . S
H4520 C4541 0.950 . S
H4521 C4544 0.950 . S
H4522 C4545 0.950 . S
H4523 C4547 0.950 . S
H4524 C4548 0.950 . S
H4525 C4549 0.951 . S
H4526 C4551 0.951 . S
H4527 C4553 0.950 . S
H4528 C4554 0.950 . S
H4529 C4556 0.950 . S
H4530 C4559 0.950 . S
H4531 C4560 0.950 . S
H4532 C4562 0.950 . S
H4533 C4563 0.950 . S
C4534 H4516 0.951 . S
C4534 C4535 1.366 . S
C4534 C4536 1.388 . S
C4535 C4534 1.366 . S
C4535 C4539 1.385 . S
C4536 H4517 0.951 . S
C4536 C4534 1.388 . S
C4536 C4537 1.366 . S
C4537 C4536 1.366 . S
C4537 C4538 1.414 . S
C4537 C4540 1.499 . S
C4538 H4518 0.950 . S
C4538 C4537 1.414 . S
C4538 C4539 1.374 . S
C4539 H4519 0.950 . S
C4539 C4535 1.385 . S
C4539 C4538 1.374 . S
C4540 C4537 1.499 . S
C4540 C4541 1.373 . S
C4540 C4542 1.389 . S
C4541 H4520 0.950 . S
C4541 C4540 1.373 . S
C4541 C4557 1.377 . S
C4542 C4540 1.389 . S
C4542 C4543 1.524 . S
C4542 C4556 1.377 . S
C4543 C4542 1.524 . S
C4543 C4544 1.397 . S
C4543 C4548 1.363 . S
C4544 H4521 0.950 . S
C4544 C4543 1.397 . S
C4544 C4545 1.334 . S
C4545 H4522 0.950 . S
C4545 C4544 1.334 . S
C4545 C4546 1.287 . S
C4546 C4545 1.287 . S
C4546 C4547 1.524 . S
C4546 H4565 0.913 . S
C4547 H4523 0.950 . S
C4547 C4546 1.524 . S
C4547 C4548 1.415 . S
C4548 H4524 0.950 . S
C4548 C4543 1.363 . S
C4548 C4547 1.415 . S
C4549 H4525 0.951 . S
C4549 C4550 1.366 . S
C4549 C4551 1.388 . S
C4550 C4549 1.366 . S
C4550 C4554 1.385 . S
C4551 H4526 0.951 . S
C4551 C4549 1.388 . S
C4551 C4552 1.366 . S
C4552 C4551 1.366 . S
C4552 C4553 1.414 . S
C4552 C4555 1.499 . S
C4553 H4527 0.950 . S
C4553 C4552 1.414 . S
C4553 C4554 1.374 . S
C4554 H4528 0.950 . S
C4554 C4550 1.385 . S
C4554 C4553 1.374 . S
C4555 C4552 1.499 . S
C4555 C4556 1.373 . S
C4555 C4557 1.389 . S
C4556 H4529 0.950 . S
C4556 C4542 1.377 . S
C4556 C4555 1.373 . S
C4557 C4541 1.377 . S
C4557 C4555 1.389 . S
C4557 C4558 1.524 . S
C4558 C4557 1.524 . S
C4558 C4559 1.397 . S
C4558 C4563 1.363 . S
C4559 H4530 0.950 . S
C4559 C4558 1.397 . S
C4559 C4560 1.334 . S
C4560 H4531 0.950 . S
C4560 C4559 1.334 . S
C4560 C4561 1.287 . S
C4561 C4560 1.287 . S
C4561 C4562 1.524 . S
C4561 H4564 0.999 . S
C4562 H4532 0.950 . S
C4562 C4561 1.524 . S
C4562 C4563 1.415 . S
C4563 H4533 0.950 . S
C4563 C4558 1.363 . S
C4563 C4562 1.415 . S
H4564 C4561 0.999 . S
H4565 C4546 0.913 . S
H4566 C4584 0.951 . S
H4567 C4586 0.951 . S
H4568 C4588 0.950 . S
H4569 C4589 0.950 . S
H4570 C4591 0.950 . S
H4571 C4594 0.950 . S
H4572 C4595 0.950 . S
H4573 C4597 0.950 . S
H4574 C4598 0.950 . S
H4575 C4599 0.951 . S
H4576 C4601 0.951 . S
H4577 C4603 0.950 . S
H4578 C4604 0.950 . S
H4579 C4606 0.950 . S
H4580 C4609 0.950 . S
H4581 C4610 0.950 . S
H4582 C4612 0.950 . S
H4583 C4613 0.950 . S
C4584 H4566 0.951 . S
C4584 C4585 1.366 . S
C4584 C4586 1.388 . S
C4585 C4584 1.366 . S
C4585 C4589 1.385 . S
C4586 H4567 0.951 . S
C4586 C4584 1.388 . S
C4586 C4587 1.366 . S
C4587 C4586 1.366 . S
C4587 C4588 1.414 . S
C4587 C4590 1.499 . S
C4588 H4568 0.950 . S
C4588 C4587 1.414 . S
C4588 C4589 1.374 . S
C4589 H4569 0.950 . S
C4589 C4585 1.385 . S
C4589 C4588 1.374 . S
C4590 C4587 1.499 . S
C4590 C4591 1.373 . S
C4590 C4592 1.389 . S
C4591 H4570 0.950 . S
C4591 C4590 1.373 . S
C4591 C4607 1.377 . S
C4592 C4590 1.389 . S
C4592 C4593 1.524 . S
C4592 C4606 1.377 . S
C4593 C4592 1.524 . S
C4593 C4594 1.397 . S
C4593 C4598 1.363 . S
C4594 H4571 0.950 . S
C4594 C4593 1.397 . S
C4594 C4595 1.334 . S
C4595 H4572 0.950 . S
C4595 C4594 1.334 . S
C4595 C4596 1.287 . S
C4596 C4595 1.287 . S
C4596 C4597 1.524 . S
C4596 H4615 0.913 . S
C4597 H4573 0.950 . S
C4597 C4596 1.524 . S
C4597 C4598 1.415 . S
C4598 H4574 0.950 . S
C4598 C4593 1.363 . S
C4598 C4597 1.415 . S
C4599 H4575 0.951 . S
C4599 C4600 1.366 . S
C4599 C4601 1.388 . S
C4600 C4599 1.366 . S
C4600 C4604 1.385 . S
C4601 H4576 0.951 . S
C4601 C4599 1.388 . S
C4601 C4602 1.366 . S
C4602 C4601 1.366 . S
C4602 C4603 1.414 . S
C4602 C4605 1.499 . S
C4603 H4577 0.950 . S
C4603 C4602 1.414 . S
C4603 C4604 1.374 . S
C4604 H4578 0.950 . S
C4604 C4600 1.385 . S
C4604 C4603 1.374 . S
C4605 C4602 1.499 . S
C4605 C4606 1.373 . S
C4605 C4607 1.389 . S
C4606 H4579 0.950 . S
C4606 C4592 1.377 . S
C4606 C4605 1.373 . S
C4607 C4591 1.377 . S
C4607 C4605 1.389 . S
C4607 C4608 1.524 . S
C4608 C4607 1.524 . S
C4608 C4609 1.397 . S
C4608 C4613 1.363 . S
C4609 H4580 0.950 . S
C4609 C4608 1.397 . S
C4609 C4610 1.334 . S
C4610 H4581 0.950 . S
C4610 C4609 1.334 . S
C4610 C4611 1.287 . S
C4611 C4610 1.287 . S
C4611 C4612 1.524 . S
C4611 H4614 0.999 . S
C4612 H4582 0.950 . S
C4612 C4611 1.524 . S
C4612 C4613 1.415 . S
C4613 H4583 0.950 . S
C4613 C4608 1.363 . S
C4613 C4612 1.415 . S
H4614 C4611 0.999 . S
H4615 C4596 0.913 . S
H4616 C4634 0.951 . S
H4617 C4636 0.951 . S
H4618 C4638 0.950 . S
H4619 C4639 0.950 . S
H4620 C4641 0.950 . S
H4621 C4644 0.950 . S
H4622 C4645 0.950 . S
H4623 C4647 0.950 . S
H4624 C4648 0.950 . S
H4625 C4649 0.951 . S
H4626 C4651 0.951 . S
H4627 C4653 0.950 . S
H4628 C4654 0.950 . S
H4629 C4656 0.950 . S
H4630 C4659 0.950 . S
H4631 C4660 0.950 . S
H4632 C4662 0.950 . S
H4633 C4663 0.950 . S
C4634 H4616 0.951 . S
C4634 C4635 1.366 . S
C4634 C4636 1.388 . S
C4635 C4634 1.366 . S
C4635 C4639 1.385 . S
C4636 H4617 0.951 . S
C4636 C4634 1.388 . S
C4636 C4637 1.366 . S
C4637 C4636 1.366 . S
C4637 C4638 1.414 . S
C4637 C4640 1.499 . S
C4638 H4618 0.950 . S
C4638 C4637 1.414 . S
C4638 C4639 1.374 . S
C4639 H4619 0.950 . S
C4639 C4635 1.385 . S
C4639 C4638 1.374 . S
C4640 C4637 1.499 . S
C4640 C4641 1.373 . S
C4640 C4642 1.389 . S
C4641 H4620 0.950 . S
C4641 C4640 1.373 . S
C4641 C4657 1.377 . S
C4642 C4640 1.389 . S
C4642 C4643 1.524 . S
C4642 C4656 1.377 . S
C4643 C4642 1.524 . S
C4643 C4644 1.397 . S
C4643 C4648 1.363 . S
C4644 H4621 0.950 . S
C4644 C4643 1.397 . S
C4644 C4645 1.334 . S
C4645 H4622 0.950 . S
C4645 C4644 1.334 . S
C4645 C4646 1.287 . S
C4646 C4645 1.287 . S
C4646 C4647 1.524 . S
C4646 H4665 0.913 . S
C4647 H4623 0.950 . S
C4647 C4646 1.524 . S
C4647 C4648 1.415 . S
C4648 H4624 0.950 . S
C4648 C4643 1.363 . S
C4648 C4647 1.415 . S
C4649 H4625 0.951 . S
C4649 C4650 1.366 . S
C4649 C4651 1.388 . S
C4650 C4649 1.366 . S
C4650 C4654 1.385 . S
C4651 H4626 0.951 . S
C4651 C4649 1.388 . S
C4651 C4652 1.366 . S
C4652 C4651 1.366 . S
C4652 C4653 1.414 . S
C4652 C4655 1.499 . S
C4653 H4627 0.950 . S
C4653 C4652 1.414 . S
C4653 C4654 1.374 . S
C4654 H4628 0.950 . S
C4654 C4650 1.385 . S
C4654 C4653 1.374 . S
C4655 C4652 1.499 . S
C4655 C4656 1.373 . S
C4655 C4657 1.389 . S
C4656 H4629 0.950 . S
C4656 C4642 1.377 . S
C4656 C4655 1.373 . S
C4657 C4641 1.377 . S
C4657 C4655 1.389 . S
C4657 C4658 1.524 . S
C4658 C4657 1.524 . S
C4658 C4659 1.397 . S
C4658 C4663 1.363 . S
C4659 H4630 0.950 . S
C4659 C4658 1.397 . S
C4659 C4660 1.334 . S
C4660 H4631 0.950 . S
C4660 C4659 1.334 . S
C4660 C4661 1.287 . S
C4661 C4660 1.287 . S
C4661 C4662 1.524 . S
C4661 H4664 0.999 . S
C4662 H4632 0.950 . S
C4662 C4661 1.524 . S
C4662 C4663 1.415 . S
C4663 H4633 0.950 . S
C4663 C4658 1.363 . S
C4663 C4662 1.415 . S
H4664 C4661 0.999 . S
H4665 C4646 0.913 . S
H4666 C4684 0.951 . S
H4667 C4686 0.951 . S
H4668 C4688 0.950 . S
H4669 C4689 0.950 . S
H4670 C4691 0.950 . S
H4671 C4694 0.950 . S
H4672 C4695 0.950 . S
H4673 C4697 0.950 . S
H4674 C4698 0.950 . S
H4675 C4699 0.951 . S
H4676 C4701 0.951 . S
H4677 C4703 0.950 . S
H4678 C4704 0.950 . S
H4679 C4706 0.950 . S
H4680 C4709 0.950 . S
H4681 C4710 0.950 . S
H4682 C4712 0.950 . S
H4683 C4713 0.950 . S
C4684 H4666 0.951 . S
C4684 C4685 1.366 . S
C4684 C4686 1.388 . S
C4685 C4684 1.366 . S
C4685 C4689 1.385 . S
C4686 H4667 0.951 . S
C4686 C4684 1.388 . S
C4686 C4687 1.366 . S
C4687 C4686 1.366 . S
C4687 C4688 1.414 . S
C4687 C4690 1.499 . S
C4688 H4668 0.950 . S
C4688 C4687 1.414 . S
C4688 C4689 1.374 . S
C4689 H4669 0.950 . S
C4689 C4685 1.385 . S
C4689 C4688 1.374 . S
C4690 C4687 1.499 . S
C4690 C4691 1.373 . S
C4690 C4692 1.389 . S
C4691 H4670 0.950 . S
C4691 C4690 1.373 . S
C4691 C4707 1.377 . S
C4692 C4690 1.389 . S
C4692 C4693 1.524 . S
C4692 C4706 1.377 . S
C4693 C4692 1.524 . S
C4693 C4694 1.397 . S
C4693 C4698 1.363 . S
C4694 H4671 0.950 . S
C4694 C4693 1.397 . S
C4694 C4695 1.334 . S
C4695 H4672 0.950 . S
C4695 C4694 1.334 . S
C4695 C4696 1.287 . S
C4696 C4695 1.287 . S
C4696 C4697 1.524 . S
C4696 H4715 0.913 . S
C4697 H4673 0.950 . S
C4697 C4696 1.524 . S
C4697 C4698 1.415 . S
C4698 H4674 0.950 . S
C4698 C4693 1.363 . S
C4698 C4697 1.415 . S
C4699 H4675 0.951 . S
C4699 C4700 1.366 . S
C4699 C4701 1.388 . S
C4700 C4699 1.366 . S
C4700 C4704 1.385 . S
C4701 H4676 0.951 . S
C4701 C4699 1.388 . S
C4701 C4702 1.366 . S
C4702 C4701 1.366 . S
C4702 C4703 1.414 . S
C4702 C4705 1.499 . S
C4703 H4677 0.950 . S
C4703 C4702 1.414 . S
C4703 C4704 1.374 . S
C4704 H4678 0.950 . S
C4704 C4700 1.385 . S
C4704 C4703 1.374 . S
C4705 C4702 1.499 . S
C4705 C4706 1.373 . S
C4705 C4707 1.389 . S
C4706 H4679 0.950 . S
C4706 C4692 1.377 . S
C4706 C4705 1.373 . S
C4707 C4691 1.377 . S
C4707 C4705 1.389 . S
C4707 C4708 1.524 . S
C4708 C4707 1.524 . S
C4708 C4709 1.397 . S
C4708 C4713 1.363 . S
C4709 H4680 0.950 . S
C4709 C4708 1.397 . S
C4709 C4710 1.334 . S
C4710 H4681 0.950 . S
C4710 C4709 1.334 . S
C4710 C4711 1.287 . S
C4711 C4710 1.287 . S
C4711 C4712 1.524 . S
C4711 H4714 0.999 . S
C4712 H4682 0.950 . S
C4712 C4711 1.524 . S
C4712 C4713 1.415 . S
C4713 H4683 0.950 . S
C4713 C4708 1.363 . S
C4713 C4712 1.415 . S
H4714 C4711 0.999 . S
H4715 C4696 0.913 . S
H4716 C4734 0.951 . S
H4717 C4736 0.951 . S
H4718 C4738 0.950 . S
H4719 C4739 0.950 . S
H4720 C4741 0.950 . S
H4721 C4744 0.950 . S
H4722 C4745 0.950 . S
H4723 C4747 0.950 . S
H4724 C4748 0.950 . S
H4725 C4749 0.951 . S
H4726 C4751 0.951 . S
H4727 C4753 0.950 . S
H4728 C4754 0.950 . S
H4729 C4756 0.950 . S
H4730 C4759 0.950 . S
H4731 C4760 0.950 . S
H4732 C4762 0.950 . S
H4733 C4763 0.950 . S
C4734 H4716 0.951 . S
C4734 C4735 1.366 . S
C4734 C4736 1.388 . S
C4735 C4734 1.366 . S
C4735 C4739 1.385 . S
C4736 H4717 0.951 . S
C4736 C4734 1.388 . S
C4736 C4737 1.366 . S
C4737 C4736 1.366 . S
C4737 C4738 1.414 . S
C4737 C4740 1.499 . S
C4738 H4718 0.950 . S
C4738 C4737 1.414 . S
C4738 C4739 1.374 . S
C4739 H4719 0.950 . S
C4739 C4735 1.385 . S
C4739 C4738 1.374 . S
C4740 C4737 1.499 . S
C4740 C4741 1.373 . S
C4740 C4742 1.389 . S
C4741 H4720 0.950 . S
C4741 C4740 1.373 . S
C4741 C4757 1.377 . S
C4742 C4740 1.389 . S
C4742 C4743 1.524 . S
C4742 C4756 1.377 . S
C4743 C4742 1.524 . S
C4743 C4744 1.397 . S
C4743 C4748 1.363 . S
C4744 H4721 0.950 . S
C4744 C4743 1.397 . S
C4744 C4745 1.334 . S
C4745 H4722 0.950 . S
C4745 C4744 1.334 . S
C4745 C4746 1.287 . S
C4746 C4745 1.287 . S
C4746 C4747 1.524 . S
C4746 H4765 0.913 . S
C4747 H4723 0.950 . S
C4747 C4746 1.524 . S
C4747 C4748 1.415 . S
C4748 H4724 0.950 . S
C4748 C4743 1.363 . S
C4748 C4747 1.415 . S
C4749 H4725 0.951 . S
C4749 C4750 1.366 . S
C4749 C4751 1.388 . S
C4750 C4749 1.366 . S
C4750 C4754 1.385 . S
C4751 H4726 0.951 . S
C4751 C4749 1.388 . S
C4751 C4752 1.366 . S
C4752 C4751 1.366 . S
C4752 C4753 1.414 . S
C4752 C4755 1.499 . S
C4753 H4727 0.950 . S
C4753 C4752 1.414 . S
C4753 C4754 1.374 . S
C4754 H4728 0.950 . S
C4754 C4750 1.385 . S
C4754 C4753 1.374 . S
C4755 C4752 1.499 . S
C4755 C4756 1.373 . S
C4755 C4757 1.389 . S
C4756 H4729 0.950 . S
C4756 C4742 1.377 . S
C4756 C4755 1.373 . S
C4757 C4741 1.377 . S
C4757 C4755 1.389 . S
C4757 C4758 1.524 . S
C4758 C4757 1.524 . S
C4758 C4759 1.397 . S
C4758 C4763 1.363 . S
C4759 H4730 0.950 . S
C4759 C4758 1.397 . S
C4759 C4760 1.334 . S
C4760 H4731 0.950 . S
C4760 C4759 1.334 . S
C4760 C4761 1.287 . S
C4761 C4760 1.287 . S
C4761 C4762 1.524 . S
C4761 H4764 0.999 . S
C4762 H4732 0.950 . S
C4762 C4761 1.524 . S
C4762 C4763 1.415 . S
C4763 H4733 0.950 . S
C4763 C4758 1.363 . S
C4763 C4762 1.415 . S
H4764 C4761 0.999 . S
H4765 C4746 0.913 . S
H4766 C4784 0.951 . S
H4767 C4786 0.951 . S
H4768 C4788 0.950 . S
H4769 C4789 0.950 . S
H4770 C4791 0.950 . S
H4771 C4794 0.950 . S
H4772 C4795 0.950 . S
H4773 C4797 0.950 . S
H4774 C4798 0.950 . S
H4775 C4799 0.951 . S
H4776 C4801 0.951 . S
H4777 C4803 0.950 . S
H4778 C4804 0.950 . S
H4779 C4806 0.950 . S
H4780 C4809 0.950 . S
H4781 C4810 0.950 . S
H4782 C4812 0.950 . S
H4783 C4813 0.950 . S
C4784 H4766 0.951 . S
C4784 C4785 1.366 . S
C4784 C4786 1.388 . S
C4785 C4784 1.366 . S
C4785 C4789 1.385 . S
C4786 H4767 0.951 . S
C4786 C4784 1.388 . S
C4786 C4787 1.366 . S
C4787 C4786 1.366 . S
C4787 C4788 1.414 . S
C4787 C4790 1.499 . S
C4788 H4768 0.950 . S
C4788 C4787 1.414 . S
C4788 C4789 1.374 . S
C4789 H4769 0.950 . S
C4789 C4785 1.385 . S
C4789 C4788 1.374 . S
C4790 C4787 1.499 . S
C4790 C4791 1.373 . S
C4790 C4792 1.389 . S
C4791 H4770 0.950 . S
C4791 C4790 1.373 . S
C4791 C4807 1.377 . S
C4792 C4790 1.389 . S
C4792 C4793 1.524 . S
C4792 C4806 1.377 . S
C4793 C4792 1.524 . S
C4793 C4794 1.397 . S
C4793 C4798 1.363 . S
C4794 H4771 0.950 . S
C4794 C4793 1.397 . S
C4794 C4795 1.334 . S
C4795 H4772 0.950 . S
C4795 C4794 1.334 . S
C4795 C4796 1.287 . S
C4796 C4795 1.287 . S
C4796 C4797 1.524 . S
C4796 H4815 0.913 . S
C4797 H4773 0.950 . S
C4797 C4796 1.524 . S
C4797 C4798 1.415 . S
C4798 H4774 0.950 . S
C4798 C4793 1.363 . S
C4798 C4797 1.415 . S
C4799 H4775 0.951 . S
C4799 C4800 1.366 . S
C4799 C4801 1.388 . S
C4800 C4799 1.366 . S
C4800 C4804 1.385 . S
C4801 H4776 0.951 . S
C4801 C4799 1.388 . S
C4801 C4802 1.366 . S
C4802 C4801 1.366 . S
C4802 C4803 1.414 . S
C4802 C4805 1.499 . S
C4803 H4777 0.950 . S
C4803 C4802 1.414 . S
C4803 C4804 1.374 . S
C4804 H4778 0.950 . S
C4804 C4800 1.385 . S
C4804 C4803 1.374 . S
C4805 C4802 1.499 . S
C4805 C4806 1.373 . S
C4805 C4807 1.389 . S
C4806 H4779 0.950 . S
C4806 C4792 1.377 . S
C4806 C4805 1.373 . S
C4807 C4791 1.377 . S
C4807 C4805 1.389 . S
C4807 C4808 1.524 . S
C4808 C4807 1.524 . S
C4808 C4809 1.397 . S
C4808 C4813 1.363 . S
C4809 H4780 0.950 . S
C4809 C4808 1.397 . S
C4809 C4810 1.334 . S
C4810 H4781 0.950 . S
C4810 C4809 1.334 . S
C4810 C4811 1.287 . S
C4811 C4810 1.287 . S
C4811 C4812 1.524 . S
C4811 H4814 0.999 . S
C4812 H4782 0.950 . S
C4812 C4811 1.524 . S
C4812 C4813 1.415 . S
C4813 H4783 0.950 . S
C4813 C4808 1.363 . S
C4813 C4812 1.415 . S
H4814 C4811 0.999 . S
H4815 C4796 0.913 . S
H4816 C4834 0.951 . S
H4817 C4836 0.951 . S
H4818 C4838 0.950 . S
H4819 C4839 0.950 . S
H4820 C4841 0.950 . S
H4821 C4844 0.950 . S
H4822 C4845 0.950 . S
H4823 C4847 0.950 . S
H4824 C4848 0.950 . S
H4825 C4849 0.951 . S
H4826 C4851 0.951 . S
H4827 C4853 0.950 . S
H4828 C4854 0.950 . S
H4829 C4856 0.950 . S
H4830 C4859 0.950 . S
H4831 C4860 0.950 . S
H4832 C4862 0.950 . S
H4833 C4863 0.950 . S
C4834 H4816 0.951 . S
C4834 C4835 1.366 . S
C4834 C4836 1.388 . S
C4835 C4834 1.366 . S
C4835 C4839 1.385 . S
C4836 H4817 0.951 . S
C4836 C4834 1.388 . S
C4836 C4837 1.366 . S
C4837 C4836 1.366 . S
C4837 C4838 1.414 . S
C4837 C4840 1.499 . S
C4838 H4818 0.950 . S
C4838 C4837 1.414 . S
C4838 C4839 1.374 . S
C4839 H4819 0.950 . S
C4839 C4835 1.385 . S
C4839 C4838 1.374 . S
C4840 C4837 1.499 . S
C4840 C4841 1.373 . S
C4840 C4842 1.389 . S
C4841 H4820 0.950 . S
C4841 C4840 1.373 . S
C4841 C4857 1.377 . S
C4842 C4840 1.389 . S
C4842 C4843 1.524 . S
C4842 C4856 1.377 . S
C4843 C4842 1.524 . S
C4843 C4844 1.397 . S
C4843 C4848 1.363 . S
C4844 H4821 0.950 . S
C4844 C4843 1.397 . S
C4844 C4845 1.334 . S
C4845 H4822 0.950 . S
C4845 C4844 1.334 . S
C4845 C4846 1.287 . S
C4846 C4845 1.287 . S
C4846 C4847 1.524 . S
C4846 H4865 0.913 . S
C4847 H4823 0.950 . S
C4847 C4846 1.524 . S
C4847 C4848 1.415 . S
C4848 H4824 0.950 . S
C4848 C4843 1.363 . S
C4848 C4847 1.415 . S
C4849 H4825 0.951 . S
C4849 C4850 1.366 . S
C4849 C4851 1.388 . S
C4850 C4849 1.366 . S
C4850 C4854 1.385 . S
C4851 H4826 0.951 . S
C4851 C4849 1.388 . S
C4851 C4852 1.366 . S
C4852 C4851 1.366 . S
C4852 C4853 1.414 . S
C4852 C4855 1.499 . S
C4853 H4827 0.950 . S
C4853 C4852 1.414 . S
C4853 C4854 1.374 . S
C4854 H4828 0.950 . S
C4854 C4850 1.385 . S
C4854 C4853 1.374 . S
C4855 C4852 1.499 . S
C4855 C4856 1.373 . S
C4855 C4857 1.389 . S
C4856 H4829 0.950 . S
C4856 C4842 1.377 . S
C4856 C4855 1.373 . S
C4857 C4841 1.377 . S
C4857 C4855 1.389 . S
C4857 C4858 1.524 . S
C4858 C4857 1.524 . S
C4858 C4859 1.397 . S
C4858 C4863 1.363 . S
C4859 H4830 0.950 . S
C4859 C4858 1.397 . S
C4859 C4860 1.334 . S
C4860 H4831 0.950 . S
C4860 C4859 1.334 . S
C4860 C4861 1.287 . S
C4861 C4860 1.287 . S
C4861 C4862 1.524 . S
C4861 H4864 0.999 . S
C4862 H4832 0.950 . S
C4862 C4861 1.524 . S
C4862 C4863 1.415 . S
C4863 H4833 0.950 . S
C4863 C4858 1.363 . S
C4863 C4862 1.415 . S
H4864 C4861 0.999 . S
H4865 C4846 0.913 . S
H4866 C4884 0.951 . S
H4867 C4886 0.951 . S
H4868 C4888 0.950 . S
H4869 C4889 0.950 . S
H4870 C4891 0.950 . S
H4871 C4894 0.950 . S
H4872 C4895 0.950 . S
H4873 C4897 0.950 . S
H4874 C4898 0.950 . S
H4875 C4899 0.951 . S
H4876 C4901 0.951 . S
H4877 C4903 0.950 . S
H4878 C4904 0.950 . S
H4879 C4906 0.950 . S
H4880 C4909 0.950 . S
H4881 C4910 0.950 . S
H4882 C4912 0.950 . S
H4883 C4913 0.950 . S
C4884 H4866 0.951 . S
C4884 C4885 1.366 . S
C4884 C4886 1.388 . S
C4885 C4884 1.366 . S
C4885 C4889 1.385 . S
C4886 H4867 0.951 . S
C4886 C4884 1.388 . S
C4886 C4887 1.366 . S
C4887 C4886 1.366 . S
C4887 C4888 1.414 . S
C4887 C4890 1.499 . S
C4888 H4868 0.950 . S
C4888 C4887 1.414 . S
C4888 C4889 1.374 . S
C4889 H4869 0.950 . S
C4889 C4885 1.385 . S
C4889 C4888 1.374 . S
C4890 C4887 1.499 . S
C4890 C4891 1.373 . S
C4890 C4892 1.389 . S
C4891 H4870 0.950 . S
C4891 C4890 1.373 . S
C4891 C4907 1.377 . S
C4892 C4890 1.389 . S
C4892 C4893 1.524 . S
C4892 C4906 1.377 . S
C4893 C4892 1.524 . S
C4893 C4894 1.397 . S
C4893 C4898 1.363 . S
C4894 H4871 0.950 . S
C4894 C4893 1.397 . S
C4894 C4895 1.334 . S
C4895 H4872 0.950 . S
C4895 C4894 1.334 . S
C4895 C4896 1.287 . S
C4896 C4895 1.287 . S
C4896 C4897 1.524 . S
C4896 H4915 0.913 . S
C4897 H4873 0.950 . S
C4897 C4896 1.524 . S
C4897 C4898 1.415 . S
C4898 H4874 0.950 . S
C4898 C4893 1.363 . S
C4898 C4897 1.415 . S
C4899 H4875 0.951 . S
C4899 C4900 1.366 . S
C4899 C4901 1.388 . S
C4900 C4899 1.366 . S
C4900 C4904 1.385 . S
C4901 H4876 0.951 . S
C4901 C4899 1.388 . S
C4901 C4902 1.366 . S
C4902 C4901 1.366 . S
C4902 C4903 1.414 . S
C4902 C4905 1.499 . S
C4903 H4877 0.950 . S
C4903 C4902 1.414 . S
C4903 C4904 1.374 . S
C4904 H4878 0.950 . S
C4904 C4900 1.385 . S
C4904 C4903 1.374 . S
C4905 C4902 1.499 . S
C4905 C4906 1.373 . S
C4905 C4907 1.389 . S
C4906 H4879 0.950 . S
C4906 C4892 1.377 . S
C4906 C4905 1.373 . S
C4907 C4891 1.377 . S
C4907 C4905 1.389 . S
C4907 C4908 1.524 . S
C4908 C4907 1.524 . S
C4908 C4909 1.397 . S
C4908 C4913 1.363 . S
C4909 H4880 0.950 . S
C4909 C4908 1.397 . S
C4909 C4910 1.334 . S
C4910 H4881 0.950 . S
C4910 C4909 1.334 . S
C4910 C4911 1.287 . S
C4911 C4910 1.287 . S
C4911 C4912 1.524 . S
C4911 H4914 0.999 . S
C4912 H4882 0.950 . S
C4912 C4911 1.524 . S
C4912 C4913 1.415 . S
C4913 H4883 0.950 . S
C4913 C4908 1.363 . S
C4913 C4912 1.415 . S
H4914 C4911 0.999 . S
H4915 C4896 0.913 . S
H4916 C4934 0.951 . S
H4917 C4936 0.951 . S
H4918 C4938 0.950 . S
H4919 C4939 0.950 . S
H4920 C4941 0.950 . S
H4921 C4944 0.950 . S
H4922 C4945 0.950 . S
H4923 C4947 0.950 . S
H4924 C4948 0.950 . S
H4925 C4949 0.951 . S
H4926 C4951 0.951 . S
H4927 C4953 0.950 . S
H4928 C4954 0.950 . S
H4929 C4956 0.950 . S
H4930 C4959 0.950 . S
H4931 C4960 0.950 . S
H4932 C4962 0.950 . S
H4933 C4963 0.950 . S
C4934 H4916 0.951 . S
C4934 C4935 1.366 . S
C4934 C4936 1.388 . S
C4935 C4934 1.366 . S
C4935 C4939 1.385 . S
C4936 H4917 0.951 . S
C4936 C4934 1.388 . S
C4936 C4937 1.366 . S
C4937 C4936 1.366 . S
C4937 C4938 1.414 . S
C4937 C4940 1.499 . S
C4938 H4918 0.950 . S
C4938 C4937 1.414 . S
C4938 C4939 1.374 . S
C4939 H4919 0.950 . S
C4939 C4935 1.385 . S
C4939 C4938 1.374 . S
C4940 C4937 1.499 . S
C4940 C4941 1.373 . S
C4940 C4942 1.389 . S
C4941 H4920 0.950 . S
C4941 C4940 1.373 . S
C4941 C4957 1.377 . S
C4942 C4940 1.389 . S
C4942 C4943 1.524 . S
C4942 C4956 1.377 . S
C4943 C4942 1.524 . S
C4943 C4944 1.397 . S
C4943 C4948 1.363 . S
C4944 H4921 0.950 . S
C4944 C4943 1.397 . S
C4944 C4945 1.334 . S
C4945 H4922 0.950 . S
C4945 C4944 1.334 . S
C4945 C4946 1.287 . S
C4946 C4945 1.287 . S
C4946 C4947 1.524 . S
C4946 H4965 0.913 . S
C4947 H4923 0.950 . S
C4947 C4946 1.524 . S
C4947 C4948 1.415 . S
C4948 H4924 0.950 . S
C4948 C4943 1.363 . S
C4948 C4947 1.415 . S
C4949 H4925 0.951 . S
C4949 C4950 1.366 . S
C4949 C4951 1.388 . S
C4950 C4949 1.366 . S
C4950 C4954 1.385 . S
C4951 H4926 0.951 . S
C4951 C4949 1.388 . S
C4951 C4952 1.366 . S
C4952 C4951 1.366 . S
C4952 C4953 1.414 . S
C4952 C4955 1.499 . S
C4953 H4927 0.950 . S
C4953 C4952 1.414 . S
C4953 C4954 1.374 . S
C4954 H4928 0.950 . S
C4954 C4950 1.385 . S
C4954 C4953 1.374 . S
C4955 C4952 1.499 . S
C4955 C4956 1.373 . S
C4955 C4957 1.389 . S
C4956 H4929 0.950 . S
C4956 C4942 1.377 . S
C4956 C4955 1.373 . S
C4957 C4941 1.377 . S
C4957 C4955 1.389 . S
C4957 C4958 1.524 . S
C4958 C4957 1.524 . S
C4958 C4959 1.397 . S
C4958 C4963 1.363 . S
C4959 H4930 0.950 . S
C4959 C4958 1.397 . S
C4959 C4960 1.334 . S
C4960 H4931 0.950 . S
C4960 C4959 1.334 . S
C4960 C4961 1.287 . S
C4961 C4960 1.287 . S
C4961 C4962 1.524 . S
C4961 H4964 0.999 . S
C4962 H4932 0.950 . S
C4962 C4961 1.524 . S
C4962 C4963 1.415 . S
C4963 H4933 0.950 . S
C4963 C4958 1.363 . S
C4963 C4962 1.415 . S
H4964 C4961 0.999 . S
H4965 C4946 0.913 . S
H4966 C4984 0.951 . S
H4967 C4986 0.951 . S
H4968 C4988 0.950 . S
H4969 C4989 0.950 . S
H4970 C4991 0.950 . S
H4971 C4994 0.950 . S
H4972 C4995 0.950 . S
H4973 C4997 0.950 . S
H4974 C4998 0.950 . S
H4975 C4999 0.951 . S
H4976 C5001 0.951 . S
H4977 C5003 0.950 . S
H4978 C5004 0.950 . S
H4979 C5006 0.950 . S
H4980 C5009 0.950 . S
H4981 C5010 0.950 . S
H4982 C5012 0.950 . S
H4983 C5013 0.950 . S
C4984 H4966 0.951 . S
C4984 C4985 1.366 . S
C4984 C4986 1.388 . S
C4985 C4984 1.366 . S
C4985 C4989 1.385 . S
C4986 H4967 0.951 . S
C4986 C4984 1.388 . S
C4986 C4987 1.366 . S
C4987 C4986 1.366 . S
C4987 C4988 1.414 . S
C4987 C4990 1.499 . S
C4988 H4968 0.950 . S
C4988 C4987 1.414 . S
C4988 C4989 1.374 . S
C4989 H4969 0.950 . S
C4989 C4985 1.385 . S
C4989 C4988 1.374 . S
C4990 C4987 1.499 . S
C4990 C4991 1.373 . S
C4990 C4992 1.389 . S
C4991 H4970 0.950 . S
C4991 C4990 1.373 . S
C4991 C5007 1.377 . S
C4992 C4990 1.389 . S
C4992 C4993 1.524 . S
C4992 C5006 1.377 . S
C4993 C4992 1.524 . S
C4993 C4994 1.397 . S
C4993 C4998 1.363 . S
C4994 H4971 0.950 . S
C4994 C4993 1.397 . S
C4994 C4995 1.334 . S
C4995 H4972 0.950 . S
C4995 C4994 1.334 . S
C4995 C4996 1.287 . S
C4996 C4995 1.287 . S
C4996 C4997 1.524 . S
C4996 H5015 0.913 . S
C4997 H4973 0.950 . S
C4997 C4996 1.524 . S
C4997 C4998 1.415 . S
C4998 H4974 0.950 . S
C4998 C4993 1.363 . S
C4998 C4997 1.415 . S
C4999 H4975 0.951 . S
C4999 C5000 1.366 . S
C4999 C5001 1.388 . S
C5000 C4999 1.366 . S
C5000 C5004 1.385 . S
C5001 H4976 0.951 . S
C5001 C4999 1.388 . S
C5001 C5002 1.366 . S
C5002 C5001 1.366 . S
C5002 C5003 1.414 . S
C5002 C5005 1.499 . S
C5003 H4977 0.950 . S
C5003 C5002 1.414 . S
C5003 C5004 1.374 . S
C5004 H4978 0.950 . S
C5004 C5000 1.385 . S
C5004 C5003 1.374 . S
C5005 C5002 1.499 . S
C5005 C5006 1.373 . S
C5005 C5007 1.389 . S
C5006 H4979 0.950 . S
C5006 C4992 1.377 . S
C5006 C5005 1.373 . S
C5007 C4991 1.377 . S
C5007 C5005 1.389 . S
C5007 C5008 1.524 . S
C5008 C5007 1.524 . S
C5008 C5009 1.397 . S
C5008 C5013 1.363 . S
C5009 H4980 0.950 . S
C5009 C5008 1.397 . S
C5009 C5010 1.334 . S
C5010 H4981 0.950 . S
C5010 C5009 1.334 . S
C5010 C5011 1.287 . S
C5011 C5010 1.287 . S
C5011 C5012 1.524 . S
C5011 H5014 0.999 . S
C5012 H4982 0.950 . S
C5012 C5011 1.524 . S
C5012 C5013 1.415 . S
C5013 H4983 0.950 . S
C5013 C5008 1.363 . S
C5013 C5012 1.415 . S
H5014 C5011 0.999 . S
H5015 C4996 0.913 . S
H5016 C5034 0.951 . S
H5017 C5036 0.951 . S
H5018 C5038 0.950 . S
H5019 C5039 0.950 . S
H5020 C5041 0.950 . S
H5021 C5044 0.950 . S
H5022 C5045 0.950 . S
H5023 C5047 0.950 . S
H5024 C5048 0.950 . S
H5025 C5049 0.951 . S
H5026 C5051 0.951 . S
H5027 C5053 0.950 . S
H5028 C5054 0.950 . S
H5029 C5056 0.950 . S
H5030 C5059 0.950 . S
H5031 C5060 0.950 . S
H5032 C5062 0.950 . S
H5033 C5063 0.950 . S
C5034 H5016 0.951 . S
C5034 C5035 1.366 . S
C5034 C5036 1.388 . S
C5035 C5034 1.366 . S
C5035 C5039 1.385 . S
C5036 H5017 0.951 . S
C5036 C5034 1.388 . S
C5036 C5037 1.366 . S
C5037 C5036 1.366 . S
C5037 C5038 1.414 . S
C5037 C5040 1.499 . S
C5038 H5018 0.950 . S
C5038 C5037 1.414 . S
C5038 C5039 1.374 . S
C5039 H5019 0.950 . S
C5039 C5035 1.385 . S
C5039 C5038 1.374 . S
C5040 C5037 1.499 . S
C5040 C5041 1.373 . S
C5040 C5042 1.389 . S
C5041 H5020 0.950 . S
C5041 C5040 1.373 . S
C5041 C5057 1.377 . S
C5042 C5040 1.389 . S
C5042 C5043 1.524 . S
C5042 C5056 1.377 . S
C5043 C5042 1.524 . S
C5043 C5044 1.397 . S
C5043 C5048 1.363 . S
C5044 H5021 0.950 . S
C5044 C5043 1.397 . S
C5044 C5045 1.334 . S
C5045 H5022 0.950 . S
C5045 C5044 1.334 . S
C5045 C5046 1.287 . S
C5046 C5045 1.287 . S
C5046 C5047 1.524 . S
C5046 H5065 0.913 . S
C5047 H5023 0.950 . S
C5047 C5046 1.524 . S
C5047 C5048 1.415 . S
C5048 H5024 0.950 . S
C5048 C5043 1.363 . S
C5048 C5047 1.415 . S
C5049 H5025 0.951 . S
C5049 C5050 1.366 . S
C5049 C5051 1.388 . S
C5050 C5049 1.366 . S
C5050 C5054 1.385 . S
C5051 H5026 0.951 . S
C5051 C5049 1.388 . S
C5051 C5052 1.366 . S
C5052 C5051 1.366 . S
C5052 C5053 1.414 . S
C5052 C5055 1.499 . S
C5053 H5027 0.950 . S
C5053 C5052 1.414 . S
C5053 C5054 1.374 . S
C5054 H5028 0.950 . S
C5054 C5050 1.385 . S
C5054 C5053 1.374 . S
C5055 C5052 1.499 . S
C5055 C5056 1.373 . S
C5055 C5057 1.389 . S
C5056 H5029 0.950 . S
C5056 C5042 1.377 . S
C5056 C5055 1.373 . S
C5057 C5041 1.377 . S
C5057 C5055 1.389 . S
C5057 C5058 1.524 . S
C5058 C5057 1.524 . S
C5058 C5059 1.397 . S
C5058 C5063 1.363 . S
C5059 H5030 0.950 . S
C5059 C5058 1.397 . S
C5059 C5060 1.334 . S
C5060 H5031 0.950 . S
C5060 C5059 1.334 . S
C5060 C5061 1.287 . S
C5061 C5060 1.287 . S
C5061 C5062 1.524 . S
C5061 H5064 0.999 . S
C5062 H5032 0.950 . S
C5062 C5061 1.524 . S
C5062 C5063 1.415 . S
C5063 H5033 0.950 . S
C5063 C5058 1.363 . S
C5063 C5062 1.415 . S
H5064 C5061 0.999 . S
H5065 C5046 0.913 . S
H5066 C5084 0.951 . S
H5067 C5086 0.951 . S
H5068 C5088 0.950 . S
H5069 C5089 0.950 . S
H5070 C5091 0.950 . S
H5071 C5094 0.950 . S
H5072 C5095 0.950 . S
H5073 C5097 0.950 . S
H5074 C5098 0.950 . S
H5075 C5099 0.951 . S
H5076 C5101 0.951 . S
H5077 C5103 0.950 . S
H5078 C5104 0.950 . S
H5079 C5106 0.950 . S
H5080 C5109 0.950 . S
H5081 C5110 0.950 . S
H5082 C5112 0.950 . S
H5083 C5113 0.950 . S
C5084 H5066 0.951 . S
C5084 C5085 1.366 . S
C5084 C5086 1.388 . S
C5085 C5084 1.366 . S
C5085 C5089 1.385 . S
C5086 H5067 0.951 . S
C5086 C5084 1.388 . S
C5086 C5087 1.366 . S
C5087 C5086 1.366 . S
C5087 C5088 1.414 . S
C5087 C5090 1.499 . S
C5088 H5068 0.950 . S
C5088 C5087 1.414 . S
C5088 C5089 1.374 . S
C5089 H5069 0.950 . S
C5089 C5085 1.385 . S
C5089 C5088 1.374 . S
C5090 C5087 1.499 . S
C5090 C5091 1.373 . S
C5090 C5092 1.389 . S
C5091 H5070 0.950 . S
C5091 C5090 1.373 . S
C5091 C5107 1.377 . S
C5092 C5090 1.389 . S
C5092 C5093 1.524 . S
C5092 C5106 1.377 . S
C5093 C5092 1.524 . S
C5093 C5094 1.397 . S
C5093 C5098 1.363 . S
C5094 H5071 0.950 . S
C5094 C5093 1.397 . S
C5094 C5095 1.334 . S
C5095 H5072 0.950 . S
C5095 C5094 1.334 . S
C5095 C5096 1.287 . S
C5096 C5095 1.287 . S
C5096 C5097 1.524 . S
C5096 H5115 0.913 . S
C5097 H5073 0.950 . S
C5097 C5096 1.524 . S
C5097 C5098 1.415 . S
C5098 H5074 0.950 . S
C5098 C5093 1.363 . S
C5098 C5097 1.415 . S
C5099 H5075 0.951 . S
C5099 C5100 1.366 . S
C5099 C5101 1.388 . S
C5100 C5099 1.366 . S
C5100 C5104 1.385 . S
C5101 H5076 0.951 . S
C5101 C5099 1.388 . S
C5101 C5102 1.366 . S
C5102 C5101 1.366 . S
C5102 C5103 1.414 . S
C5102 C5105 1.499 . S
C5103 H5077 0.950 . S
C5103 C5102 1.414 . S
C5103 C5104 1.374 . S
C5104 H5078 0.950 . S
C5104 C5100 1.385 . S
C5104 C5103 1.374 . S
C5105 C5102 1.499 . S
C5105 C5106 1.373 . S
C5105 C5107 1.389 . S
C5106 H5079 0.950 . S
C5106 C5092 1.377 . S
C5106 C5105 1.373 . S
C5107 C5091 1.377 . S
C5107 C5105 1.389 . S
C5107 C5108 1.524 . S
C5108 C5107 1.524 . S
C5108 C5109 1.397 . S
C5108 C5113 1.363 . S
C5109 H5080 0.950 . S
C5109 C5108 1.397 . S
C5109 C5110 1.334 . S
C5110 H5081 0.950 . S
C5110 C5109 1.334 . S
C5110 C5111 1.287 . S
C5111 C5110 1.287 . S
C5111 C5112 1.524 . S
C5111 H5114 0.999 . S
C5112 H5082 0.950 . S
C5112 C5111 1.524 . S
C5112 C5113 1.415 . S
C5113 H5083 0.950 . S
C5113 C5108 1.363 . S
C5113 C5112 1.415 . S
H5114 C5111 0.999 . S
H5115 C5096 0.913 . S
H5116 C5134 0.951 . S
H5117 C5136 0.951 . S
H5118 C5138 0.950 . S
H5119 C5139 0.950 . S
H5120 C5141 0.950 . S
H5121 C5144 0.950 . S
H5122 C5145 0.950 . S
H5123 C5147 0.950 . S
H5124 C5148 0.950 . S
H5125 C5149 0.951 . S
H5126 C5151 0.951 . S
H5127 C5153 0.950 . S
H5128 C5154 0.950 . S
H5129 C5156 0.950 . S
H5130 C5159 0.950 . S
H5131 C5160 0.950 . S
H5132 C5162 0.950 . S
H5133 C5163 0.950 . S
C5134 H5116 0.951 . S
C5134 C5135 1.366 . S
C5134 C5136 1.388 . S
C5135 C5134 1.366 . S
C5135 C5139 1.385 . S
C5136 H5117 0.951 . S
C5136 C5134 1.388 . S
C5136 C5137 1.366 . S
C5137 C5136 1.366 . S
C5137 C5138 1.414 . S
C5137 C5140 1.499 . S
C5138 H5118 0.950 . S
C5138 C5137 1.414 . S
C5138 C5139 1.374 . S
C5139 H5119 0.950 . S
C5139 C5135 1.385 . S
C5139 C5138 1.374 . S
C5140 C5137 1.499 . S
C5140 C5141 1.373 . S
C5140 C5142 1.389 . S
C5141 H5120 0.950 . S
C5141 C5140 1.373 . S
C5141 C5157 1.377 . S
C5142 C5140 1.389 . S
C5142 C5143 1.524 . S
C5142 C5156 1.377 . S
C5143 C5142 1.524 . S
C5143 C5144 1.397 . S
C5143 C5148 1.363 . S
C5144 H5121 0.950 . S
C5144 C5143 1.397 . S
C5144 C5145 1.334 . S
C5145 H5122 0.950 . S
C5145 C5144 1.334 . S
C5145 C5146 1.287 . S
C5146 C5145 1.287 . S
C5146 C5147 1.524 . S
C5146 H5165 0.913 . S
C5147 H5123 0.950 . S
C5147 C5146 1.524 . S
C5147 C5148 1.415 . S
C5148 H5124 0.950 . S
C5148 C5143 1.363 . S
C5148 C5147 1.415 . S
C5149 H5125 0.951 . S
C5149 C5150 1.366 . S
C5149 C5151 1.388 . S
C5150 C5149 1.366 . S
C5150 C5154 1.385 . S
C5151 H5126 0.951 . S
C5151 C5149 1.388 . S
C5151 C5152 1.366 . S
C5152 C5151 1.366 . S
C5152 C5153 1.414 . S
C5152 C5155 1.499 . S
C5153 H5127 0.950 . S
C5153 C5152 1.414 . S
C5153 C5154 1.374 . S
C5154 H5128 0.950 . S
C5154 C5150 1.385 . S
C5154 C5153 1.374 . S
C5155 C5152 1.499 . S
C5155 C5156 1.373 . S
C5155 C5157 1.389 . S
C5156 H5129 0.950 . S
C5156 C5142 1.377 . S
C5156 C5155 1.373 . S
C5157 C5141 1.377 . S
C5157 C5155 1.389 . S
C5157 C5158 1.524 . S
C5158 C5157 1.524 . S
C5158 C5159 1.397 . S
C5158 C5163 1.363 . S
C5159 H5130 0.950 . S
C5159 C5158 1.397 . S
C5159 C5160 1.334 . S
C5160 H5131 0.950 . S
C5160 C5159 1.334 . S
C5160 C5161 1.287 . S
C5161 C5160 1.287 . S
C5161 C5162 1.524 . S
C5161 H5164 0.999 . S
C5162 H5132 0.950 . S
C5162 C5161 1.524 . S
C5162 C5163 1.415 . S
C5163 H5133 0.950 . S
C5163 C5158 1.363 . S
C5163 C5162 1.415 . S
H5164 C5161 0.999 . S
H5165 C5146 0.913 . S
H5166 C5184 0.951 . S
H5167 C5186 0.951 . S
H5168 C5188 0.950 . S
H5169 C5189 0.950 . S
H5170 C5191 0.950 . S
H5171 C5194 0.950 . S
H5172 C5195 0.950 . S
H5173 C5197 0.950 . S
H5174 C5198 0.950 . S
H5175 C5199 0.951 . S
H5176 C5201 0.951 . S
H5177 C5203 0.950 . S
H5178 C5204 0.950 . S
H5179 C5206 0.950 . S
H5180 C5209 0.950 . S
H5181 C5210 0.950 . S
H5182 C5212 0.950 . S
H5183 C5213 0.950 . S
C5184 H5166 0.951 . S
C5184 C5185 1.366 . S
C5184 C5186 1.388 . S
C5185 C5184 1.366 . S
C5185 C5189 1.385 . S
C5186 H5167 0.951 . S
C5186 C5184 1.388 . S
C5186 C5187 1.366 . S
C5187 C5186 1.366 . S
C5187 C5188 1.414 . S
C5187 C5190 1.499 . S
C5188 H5168 0.950 . S
C5188 C5187 1.414 . S
C5188 C5189 1.374 . S
C5189 H5169 0.950 . S
C5189 C5185 1.385 . S
C5189 C5188 1.374 . S
C5190 C5187 1.499 . S
C5190 C5191 1.373 . S
C5190 C5192 1.389 . S
C5191 H5170 0.950 . S
C5191 C5190 1.373 . S
C5191 C5207 1.377 . S
C5192 C5190 1.389 . S
C5192 C5193 1.524 . S
C5192 C5206 1.377 . S
C5193 C5192 1.524 . S
C5193 C5194 1.397 . S
C5193 C5198 1.363 . S
C5194 H5171 0.950 . S
C5194 C5193 1.397 . S
C5194 C5195 1.334 . S
C5195 H5172 0.950 . S
C5195 C5194 1.334 . S
C5195 C5196 1.287 . S
C5196 C5195 1.287 . S
C5196 C5197 1.524 . S
C5196 H5215 0.913 . S
C5197 H5173 0.950 . S
C5197 C5196 1.524 . S
C5197 C5198 1.415 . S
C5198 H5174 0.950 . S
C5198 C5193 1.363 . S
C5198 C5197 1.415 . S
C5199 H5175 0.951 . S
C5199 C5200 1.366 . S
C5199 C5201 1.388 . S
C5200 C5199 1.366 . S
C5200 C5204 1.385 . S
C5201 H5176 0.951 . S
C5201 C5199 1.388 . S
C5201 C5202 1.366 . S
C5202 C5201 1.366 . S
C5202 C5203 1.414 . S
C5202 C5205 1.499 . S
C5203 H5177 0.950 . S
C5203 C5202 1.414 . S
C5203 C5204 1.374 . S
C5204 H5178 0.950 . S
C5204 C5200 1.385 . S
C5204 C5203 1.374 . S
C5205 C5202 1.499 . S
C5205 C5206 1.373 . S
C5205 C5207 1.389 . S
C5206 H5179 0.950 . S
C5206 C5192 1.377 . S
C5206 C5205 1.373 . S
C5207 C5191 1.377 . S
C5207 C5205 1.389 . S
C5207 C5208 1.524 . S
C5208 C5207 1.524 . S
C5208 C5209 1.397 . S
C5208 C5213 1.363 . S
C5209 H5180 0.950 . S
C5209 C5208 1.397 . S
C5209 C5210 1.334 . S
C5210 H5181 0.950 . S
C5210 C5209 1.334 . S
C5210 C5211 1.287 . S
C5211 C5210 1.287 . S
C5211 C5212 1.524 . S
C5211 H5214 0.999 . S
C5212 H5182 0.950 . S
C5212 C5211 1.524 . S
C5212 C5213 1.415 . S
C5213 H5183 0.950 . S
C5213 C5208 1.363 . S
C5213 C5212 1.415 . S
H5214 C5211 0.999 . S
H5215 C5196 0.913 . S
H5216 C5234 0.951 . S
H5217 C5236 0.951 . S
H5218 C5238 0.950 . S
H5219 C5239 0.950 . S
H5220 C5241 0.950 . S
H5221 C5244 0.950 . S
H5222 C5245 0.950 . S
H5223 C5247 0.950 . S
H5224 C5248 0.950 . S
H5225 C5249 0.951 . S
H5226 C5251 0.951 . S
H5227 C5253 0.950 . S
H5228 C5254 0.950 . S
H5229 C5256 0.950 . S
H5230 C5259 0.950 . S
H5231 C5260 0.950 . S
H5232 C5262 0.950 . S
H5233 C5263 0.950 . S
C5234 H5216 0.951 . S
C5234 C5235 1.366 . S
C5234 C5236 1.388 . S
C5235 C5234 1.366 . S
C5235 C5239 1.385 . S
C5236 H5217 0.951 . S
C5236 C5234 1.388 . S
C5236 C5237 1.366 . S
C5237 C5236 1.366 . S
C5237 C5238 1.414 . S
C5237 C5240 1.499 . S
C5238 H5218 0.950 . S
C5238 C5237 1.414 . S
C5238 C5239 1.374 . S
C5239 H5219 0.950 . S
C5239 C5235 1.385 . S
C5239 C5238 1.374 . S
C5240 C5237 1.499 . S
C5240 C5241 1.373 . S
C5240 C5242 1.389 . S
C5241 H5220 0.950 . S
C5241 C5240 1.373 . S
C5241 C5257 1.377 . S
C5242 C5240 1.389 . S
C5242 C5243 1.524 . S
C5242 C5256 1.377 . S
C5243 C5242 1.524 . S
C5243 C5244 1.397 . S
C5243 C5248 1.363 . S
C5244 H5221 0.950 . S
C5244 C5243 1.397 . S
C5244 C5245 1.334 . S
C5245 H5222 0.950 . S
C5245 C5244 1.334 . S
C5245 C5246 1.287 . S
C5246 C5245 1.287 . S
C5246 C5247 1.524 . S
C5246 H5265 0.913 . S
C5247 H5223 0.950 . S
C5247 C5246 1.524 . S
C5247 C5248 1.415 . S
C5248 H5224 0.950 . S
C5248 C5243 1.363 . S
C5248 C5247 1.415 . S
C5249 H5225 0.951 . S
C5249 C5250 1.366 . S
C5249 C5251 1.388 . S
C5250 C5249 1.366 . S
C5250 C5254 1.385 . S
C5251 H5226 0.951 . S
C5251 C5249 1.388 . S
C5251 C5252 1.366 . S
C5252 C5251 1.366 . S
C5252 C5253 1.414 . S
C5252 C5255 1.499 . S
C5253 H5227 0.950 . S
C5253 C5252 1.414 . S
C5253 C5254 1.374 . S
C5254 H5228 0.950 . S
C5254 C5250 1.385 . S
C5254 C5253 1.374 . S
C5255 C5252 1.499 . S
C5255 C5256 1.373 . S
C5255 C5257 1.389 . S
C5256 H5229 0.950 . S
C5256 C5242 1.377 . S
C5256 C5255 1.373 . S
C5257 C5241 1.377 . S
C5257 C5255 1.389 . S
C5257 C5258 1.524 . S
C5258 C5257 1.524 . S
C5258 C5259 1.397 . S
C5258 C5263 1.363 . S
C5259 H5230 0.950 . S
C5259 C5258 1.397 . S
C5259 C5260 1.334 . S
C5260 H5231 0.950 . S
C5260 C5259 1.334 . S
C5260 C5261 1.287 . S
C5261 C5260 1.287 . S
C5261 C5262 1.524 . S
C5261 H5264 0.999 . S
C5262 H5232 0.950 . S
C5262 C5261 1.524 . S
C5262 C5263 1.415 . S
C5263 H5233 0.950 . S
C5263 C5258 1.363 . S
C5263 C5262 1.415 . S
H5264 C5261 0.999 . S
H5265 C5246 0.913 . S
H5266 C5284 0.951 . S
H5267 C5286 0.951 . S
H5268 C5288 0.950 . S
H5269 C5289 0.950 . S
H5270 C5291 0.950 . S
H5271 C5294 0.950 . S
H5272 C5295 0.950 . S
H5273 C5297 0.950 . S
H5274 C5298 0.950 . S
H5275 C5299 0.951 . S
H5276 C5301 0.951 . S
H5277 C5303 0.950 . S
H5278 C5304 0.950 . S
H5279 C5306 0.950 . S
H5280 C5309 0.950 . S
H5281 C5310 0.950 . S
H5282 C5312 0.950 . S
H5283 C5313 0.950 . S
C5284 H5266 0.951 . S
C5284 C5285 1.366 . S
C5284 C5286 1.388 . S
C5285 C5284 1.366 . S
C5285 C5289 1.385 . S
C5286 H5267 0.951 . S
C5286 C5284 1.388 . S
C5286 C5287 1.366 . S
C5287 C5286 1.366 . S
C5287 C5288 1.414 . S
C5287 C5290 1.499 . S
C5288 H5268 0.950 . S
C5288 C5287 1.414 . S
C5288 C5289 1.374 . S
C5289 H5269 0.950 . S
C5289 C5285 1.385 . S
C5289 C5288 1.374 . S
C5290 C5287 1.499 . S
C5290 C5291 1.373 . S
C5290 C5292 1.389 . S
C5291 H5270 0.950 . S
C5291 C5290 1.373 . S
C5291 C5307 1.377 . S
C5292 C5290 1.389 . S
C5292 C5293 1.524 . S
C5292 C5306 1.377 . S
C5293 C5292 1.524 . S
C5293 C5294 1.397 . S
C5293 C5298 1.363 . S
C5294 H5271 0.950 . S
C5294 C5293 1.397 . S
C5294 C5295 1.334 . S
C5295 H5272 0.950 . S
C5295 C5294 1.334 . S
C5295 C5296 1.287 . S
C5296 C5295 1.287 . S
C5296 C5297 1.524 . S
C5296 H5315 0.913 . S
C5297 H5273 0.950 . S
C5297 C5296 1.524 . S
C5297 C5298 1.415 . S
C5298 H5274 0.950 . S
C5298 C5293 1.363 . S
C5298 C5297 1.415 . S
C5299 H5275 0.951 . S
C5299 C5300 1.366 . S
C5299 C5301 1.388 . S
C5300 C5299 1.366 . S
C5300 C5304 1.385 . S
C5301 H5276 0.951 . S
C5301 C5299 1.388 . S
C5301 C5302 1.366 . S
C5302 C5301 1.366 . S
C5302 C5303 1.414 . S
C5302 C5305 1.499 . S
C5303 H5277 0.950 . S
C5303 C5302 1.414 . S
C5303 C5304 1.374 . S
C5304 H5278 0.950 . S
C5304 C5300 1.385 . S
C5304 C5303 1.374 . S
C5305 C5302 1.499 . S
C5305 C5306 1.373 . S
C5305 C5307 1.389 . S
C5306 H5279 0.950 . S
C5306 C5292 1.377 . S
C5306 C5305 1.373 . S
C5307 C5291 1.377 . S
C5307 C5305 1.389 . S
C5307 C5308 1.524 . S
C5308 C5307 1.524 . S
C5308 C5309 1.397 . S
C5308 C5313 1.363 . S
C5309 H5280 0.950 . S
C5309 C5308 1.397 . S
C5309 C5310 1.334 . S
C5310 H5281 0.950 . S
C5310 C5309 1.334 . S
C5310 C5311 1.287 . S
C5311 C5310 1.287 . S
C5311 C5312 1.524 . S
C5311 H5314 0.999 . S
C5312 H5282 0.950 . S
C5312 C5311 1.524 . S
C5312 C5313 1.415 . S
C5313 H5283 0.950 . S
C5313 C5308 1.363 . S
C5313 C5312 1.415 . S
H5314 C5311 0.999 . S
H5315 C5296 0.913 . S
H5316 C5334 0.951 . S
H5317 C5336 0.951 . S
H5318 C5338 0.950 . S
H5319 C5339 0.950 . S
H5320 C5341 0.950 . S
H5321 C5344 0.950 . S
H5322 C5345 0.950 . S
H5323 C5347 0.950 . S
H5324 C5348 0.950 . S
H5325 C5349 0.951 . S
H5326 C5351 0.951 . S
H5327 C5353 0.950 . S
H5328 C5354 0.950 . S
H5329 C5356 0.950 . S
H5330 C5359 0.950 . S
H5331 C5360 0.950 . S
H5332 C5362 0.950 . S
H5333 C5363 0.950 . S
C5334 H5316 0.951 . S
C5334 C5335 1.366 . S
C5334 C5336 1.388 . S
C5335 C5334 1.366 . S
C5335 C5339 1.385 . S
C5336 H5317 0.951 . S
C5336 C5334 1.388 . S
C5336 C5337 1.366 . S
C5337 C5336 1.366 . S
C5337 C5338 1.414 . S
C5337 C5340 1.499 . S
C5338 H5318 0.950 . S
C5338 C5337 1.414 . S
C5338 C5339 1.374 . S
C5339 H5319 0.950 . S
C5339 C5335 1.385 . S
C5339 C5338 1.374 . S
C5340 C5337 1.499 . S
C5340 C5341 1.373 . S
C5340 C5342 1.389 . S
C5341 H5320 0.950 . S
C5341 C5340 1.373 . S
C5341 C5357 1.377 . S
C5342 C5340 1.389 . S
C5342 C5343 1.524 . S
C5342 C5356 1.377 . S
C5343 C5342 1.524 . S
C5343 C5344 1.397 . S
C5343 C5348 1.363 . S
C5344 H5321 0.950 . S
C5344 C5343 1.397 . S
C5344 C5345 1.334 . S
C5345 H5322 0.950 . S
C5345 C5344 1.334 . S
C5345 C5346 1.287 . S
C5346 C5345 1.287 . S
C5346 C5347 1.524 . S
C5346 H5365 0.913 . S
C5347 H5323 0.950 . S
C5347 C5346 1.524 . S
C5347 C5348 1.415 . S
C5348 H5324 0.950 . S
C5348 C5343 1.363 . S
C5348 C5347 1.415 . S
C5349 H5325 0.951 . S
C5349 C5350 1.366 . S
C5349 C5351 1.388 . S
C5350 C5349 1.366 . S
C5350 C5354 1.385 . S
C5351 H5326 0.951 . S
C5351 C5349 1.388 . S
C5351 C5352 1.366 . S
C5352 C5351 1.366 . S
C5352 C5353 1.414 . S
C5352 C5355 1.499 . S
C5353 H5327 0.950 . S
C5353 C5352 1.414 . S
C5353 C5354 1.374 . S
C5354 H5328 0.950 . S
C5354 C5350 1.385 . S
C5354 C5353 1.374 . S
C5355 C5352 1.499 . S
C5355 C5356 1.373 . S
C5355 C5357 1.389 . S
C5356 H5329 0.950 . S
C5356 C5342 1.377 . S
C5356 C5355 1.373 . S
C5357 C5341 1.377 . S
C5357 C5355 1.389 . S
C5357 C5358 1.524 . S
C5358 C5357 1.524 . S
C5358 C5359 1.397 . S
C5358 C5363 1.363 . S
C5359 H5330 0.950 . S
C5359 C5358 1.397 . S
C5359 C5360 1.334 . S
C5360 H5331 0.950 . S
C5360 C5359 1.334 . S
C5360 C5361 1.287 . S
C5361 C5360 1.287 . S
C5361 C5362 1.524 . S
C5361 H5364 0.999 . S
C5362 H5332 0.950 . S
C5362 C5361 1.524 . S
C5362 C5363 1.415 . S
C5363 H5333 0.950 . S
C5363 C5358 1.363 . S
C5363 C5362 1.415 . S
H5364 C5361 0.999 . S
H5365 C5346 0.913 . S
H5366 C5384 0.951 . S
H5367 C5386 0.951 . S
H5368 C5388 0.950 . S
H5369 C5389 0.950 . S
H5370 C5391 0.950 . S
H5371 C5394 0.950 . S
H5372 C5395 0.950 . S
H5373 C5397 0.950 . S
H5374 C5398 0.950 . S
H5375 C5399 0.951 . S
H5376 C5401 0.951 . S
H5377 C5403 0.950 . S
H5378 C5404 0.950 . S
H5379 C5406 0.950 . S
H5380 C5409 0.950 . S
H5381 C5410 0.950 . S
H5382 C5412 0.950 . S
H5383 C5413 0.950 . S
C5384 H5366 0.951 . S
C5384 C5385 1.366 . S
C5384 C5386 1.388 . S
C5385 C5384 1.366 . S
C5385 C5389 1.385 . S
C5386 H5367 0.951 . S
C5386 C5384 1.388 . S
C5386 C5387 1.366 . S
C5387 C5386 1.366 . S
C5387 C5388 1.414 . S
C5387 C5390 1.499 . S
C5388 H5368 0.950 . S
C5388 C5387 1.414 . S
C5388 C5389 1.374 . S
C5389 H5369 0.950 . S
C5389 C5385 1.385 . S
C5389 C5388 1.374 . S
C5390 C5387 1.499 . S
C5390 C5391 1.373 . S
C5390 C5392 1.389 . S
C5391 H5370 0.950 . S
C5391 C5390 1.373 . S
C5391 C5407 1.377 . S
C5392 C5390 1.389 . S
C5392 C5393 1.524 . S
C5392 C5406 1.377 . S
C5393 C5392 1.524 . S
C5393 C5394 1.397 . S
C5393 C5398 1.363 . S
C5394 H5371 0.950 . S
C5394 C5393 1.397 . S
C5394 C5395 1.334 . S
C5395 H5372 0.950 . S
C5395 C5394 1.334 . S
C5395 C5396 1.287 . S
C5396 C5395 1.287 . S
C5396 C5397 1.524 . S
C5396 H5415 0.913 . S
C5397 H5373 0.950 . S
C5397 C5396 1.524 . S
C5397 C5398 1.415 . S
C5398 H5374 0.950 . S
C5398 C5393 1.363 . S
C5398 C5397 1.415 . S
C5399 H5375 0.951 . S
C5399 C5400 1.366 . S
C5399 C5401 1.388 . S
C5400 C5399 1.366 . S
C5400 C5404 1.385 . S
C5401 H5376 0.951 . S
C5401 C5399 1.388 . S
C5401 C5402 1.366 . S
C5402 C5401 1.366 . S
C5402 C5403 1.414 . S
C5402 C5405 1.499 . S
C5403 H5377 0.950 . S
C5403 C5402 1.414 . S
C5403 C5404 1.374 . S
C5404 H5378 0.950 . S
C5404 C5400 1.385 . S
C5404 C5403 1.374 . S
C5405 C5402 1.499 . S
C5405 C5406 1.373 . S
C5405 C5407 1.389 . S
C5406 H5379 0.950 . S
C5406 C5392 1.377 . S
C5406 C5405 1.373 . S
C5407 C5391 1.377 . S
C5407 C5405 1.389 . S
C5407 C5408 1.524 . S
C5408 C5407 1.524 . S
C5408 C5409 1.397 . S
C5408 C5413 1.363 . S
C5409 H5380 0.950 . S
C5409 C5408 1.397 . S
C5409 C5410 1.334 . S
C5410 H5381 0.950 . S
C5410 C5409 1.334 . S
C5410 C5411 1.287 . S
C5411 C5410 1.287 . S
C5411 C5412 1.524 . S
C5411 H5414 0.999 . S
C5412 H5382 0.950 . S
C5412 C5411 1.524 . S
C5412 C5413 1.415 . S
C5413 H5383 0.950 . S
C5413 C5408 1.363 . S
C5413 C5412 1.415 . S
H5414 C5411 0.999 . S
H5415 C5396 0.913 . S
H5416 C5434 0.951 . S
H5417 C5436 0.951 . S
H5418 C5438 0.950 . S
H5419 C5439 0.950 . S
H5420 C5441 0.950 . S
H5421 C5444 0.950 . S
H5422 C5445 0.950 . S
H5423 C5447 0.950 . S
H5424 C5448 0.950 . S
H5425 C5449 0.951 . S
H5426 C5451 0.951 . S
H5427 C5453 0.950 . S
H5428 C5454 0.950 . S
H5429 C5456 0.950 . S
H5430 C5459 0.950 . S
H5431 C5460 0.950 . S
H5432 C5462 0.950 . S
H5433 C5463 0.950 . S
C5434 H5416 0.951 . S
C5434 C5435 1.366 . S
C5434 C5436 1.388 . S
C5435 C5434 1.366 . S
C5435 C5439 1.385 . S
C5436 H5417 0.951 . S
C5436 C5434 1.388 . S
C5436 C5437 1.366 . S
C5437 C5436 1.366 . S
C5437 C5438 1.414 . S
C5437 C5440 1.499 . S
C5438 H5418 0.950 . S
C5438 C5437 1.414 . S
C5438 C5439 1.374 . S
C5439 H5419 0.950 . S
C5439 C5435 1.385 . S
C5439 C5438 1.374 . S
C5440 C5437 1.499 . S
C5440 C5441 1.373 . S
C5440 C5442 1.389 . S
C5441 H5420 0.950 . S
C5441 C5440 1.373 . S
C5441 C5457 1.377 . S
C5442 C5440 1.389 . S
C5442 C5443 1.524 . S
C5442 C5456 1.377 . S
C5443 C5442 1.524 . S
C5443 C5444 1.397 . S
C5443 C5448 1.363 . S
C5444 H5421 0.950 . S
C5444 C5443 1.397 . S
C5444 C5445 1.334 . S
C5445 H5422 0.950 . S
C5445 C5444 1.334 . S
C5445 C5446 1.287 . S
C5446 C5445 1.287 . S
C5446 C5447 1.524 . S
C5446 H5465 0.913 . S
C5447 H5423 0.950 . S
C5447 C5446 1.524 . S
C5447 C5448 1.415 . S
C5448 H5424 0.950 . S
C5448 C5443 1.363 . S
C5448 C5447 1.415 . S
C5449 H5425 0.951 . S
C5449 C5450 1.366 . S
C5449 C5451 1.388 . S
C5450 C5449 1.366 . S
C5450 C5454 1.385 . S
C5451 H5426 0.951 . S
C5451 C5449 1.388 . S
C5451 C5452 1.366 . S
C5452 C5451 1.366 . S
C5452 C5453 1.414 . S
C5452 C5455 1.499 . S
C5453 H5427 0.950 . S
C5453 C5452 1.414 . S
C5453 C5454 1.374 . S
C5454 H5428 0.950 . S
C5454 C5450 1.385 . S
C5454 C5453 1.374 . S
C5455 C5452 1.499 . S
C5455 C5456 1.373 . S
C5455 C5457 1.389 . S
C5456 H5429 0.950 . S
C5456 C5442 1.377 . S
C5456 C5455 1.373 . S
C5457 C5441 1.377 . S
C5457 C5455 1.389 . S
C5457 C5458 1.524 . S
C5458 C5457 1.524 . S
C5458 C5459 1.397 . S
C5458 C5463 1.363 . S
C5459 H5430 0.950 . S
C5459 C5458 1.397 . S
C5459 C5460 1.334 . S
C5460 H5431 0.950 . S
C5460 C5459 1.334 . S
C5460 C5461 1.287 . S
C5461 C5460 1.287 . S
C5461 C5462 1.524 . S
C5461 H5464 0.999 . S
C5462 H5432 0.950 . S
C5462 C5461 1.524 . S
C5462 C5463 1.415 . S
C5463 H5433 0.950 . S
C5463 C5458 1.363 . S
C5463 C5462 1.415 . S
H5464 C5461 0.999 . S
H5465 C5446 0.913 . S
H5466 C5484 0.951 . S
H5467 C5486 0.951 . S
H5468 C5488 0.950 . S
H5469 C5489 0.950 . S
H5470 C5491 0.950 . S
H5471 C5494 0.950 . S
H5472 C5495 0.950 . S
H5473 C5497 0.950 . S
H5474 C5498 0.950 . S
H5475 C5499 0.951 . S
H5476 C5501 0.951 . S
H5477 C5503 0.950 . S
H5478 C5504 0.950 . S
H5479 C5506 0.950 . S
H5480 C5509 0.950 . S
H5481 C5510 0.950 . S
H5482 C5512 0.950 . S
H5483 C5513 0.950 . S
C5484 H5466 0.951 . S
C5484 C5485 1.366 . S
C5484 C5486 1.388 . S
C5485 C5484 1.366 . S
C5485 C5489 1.385 . S
C5486 H5467 0.951 . S
C5486 C5484 1.388 . S
C5486 C5487 1.366 . S
C5487 C5486 1.366 . S
C5487 C5488 1.414 . S
C5487 C5490 1.499 . S
C5488 H5468 0.950 . S
C5488 C5487 1.414 . S
C5488 C5489 1.374 . S
C5489 H5469 0.950 . S
C5489 C5485 1.385 . S
C5489 C5488 1.374 . S
C5490 C5487 1.499 . S
C5490 C5491 1.373 . S
C5490 C5492 1.389 . S
C5491 H5470 0.950 . S
C5491 C5490 1.373 . S
C5491 C5507 1.377 . S
C5492 C5490 1.389 . S
C5492 C5493 1.524 . S
C5492 C5506 1.377 . S
C5493 C5492 1.524 . S
C5493 C5494 1.397 . S
C5493 C5498 1.363 . S
C5494 H5471 0.950 . S
C5494 C5493 1.397 . S
C5494 C5495 1.334 . S
C5495 H5472 0.950 . S
C5495 C5494 1.334 . S
C5495 C5496 1.287 . S
C5496 C5495 1.287 . S
C5496 C5497 1.524 . S
C5496 H5515 0.913 . S
C5497 H5473 0.950 . S
C5497 C5496 1.524 . S
C5497 C5498 1.415 . S
C5498 H5474 0.950 . S
C5498 C5493 1.363 . S
C5498 C5497 1.415 . S
C5499 H5475 0.951 . S
C5499 C5500 1.366 . S
C5499 C5501 1.388 . S
C5500 C5499 1.366 . S
C5500 C5504 1.385 . S
C5501 H5476 0.951 . S
C5501 C5499 1.388 . S
C5501 C5502 1.366 . S
C5502 C5501 1.366 . S
C5502 C5503 1.414 . S
C5502 C5505 1.499 . S
C5503 H5477 0.950 . S
C5503 C5502 1.414 . S
C5503 C5504 1.374 . S
C5504 H5478 0.950 . S
C5504 C5500 1.385 . S
C5504 C5503 1.374 . S
C5505 C5502 1.499 . S
C5505 C5506 1.373 . S
C5505 C5507 1.389 . S
C5506 H5479 0.950 . S
C5506 C5492 1.377 . S
C5506 C5505 1.373 . S
C5507 C5491 1.377 . S
C5507 C5505 1.389 . S
C5507 C5508 1.524 . S
C5508 C5507 1.524 . S
C5508 C5509 1.397 . S
C5508 C5513 1.363 . S
C5509 H5480 0.950 . S
C5509 C5508 1.397 . S
C5509 C5510 1.334 . S
C5510 H5481 0.950 . S
C5510 C5509 1.334 . S
C5510 C5511 1.287 . S
C5511 C5510 1.287 . S
C5511 C5512 1.524 . S
C5511 H5514 0.999 . S
C5512 H5482 0.950 . S
C5512 C5511 1.524 . S
C5512 C5513 1.415 . S
C5513 H5483 0.950 . S
C5513 C5508 1.363 . S
C5513 C5512 1.415 . S
H5514 C5511 0.999 . S
H5515 C5496 0.913 . S
H5516 C5534 0.951 . S
H5517 C5536 0.951 . S
H5518 C5538 0.950 . S
H5519 C5539 0.950 . S
H5520 C5541 0.950 . S
H5521 C5544 0.950 . S
H5522 C5545 0.950 . S
H5523 C5547 0.950 . S
H5524 C5548 0.950 . S
H5525 C5549 0.951 . S
H5526 C5551 0.951 . S
H5527 C5553 0.950 . S
H5528 C5554 0.950 . S
H5529 C5556 0.950 . S
H5530 C5559 0.950 . S
H5531 C5560 0.950 . S
H5532 C5562 0.950 . S
H5533 C5563 0.950 . S
C5534 H5516 0.951 . S
C5534 C5535 1.366 . S
C5534 C5536 1.388 . S
C5535 C5534 1.366 . S
C5535 C5539 1.385 . S
C5536 H5517 0.951 . S
C5536 C5534 1.388 . S
C5536 C5537 1.366 . S
C5537 C5536 1.366 . S
C5537 C5538 1.414 . S
C5537 C5540 1.499 . S
C5538 H5518 0.950 . S
C5538 C5537 1.414 . S
C5538 C5539 1.374 . S
C5539 H5519 0.950 . S
C5539 C5535 1.385 . S
C5539 C5538 1.374 . S
C5540 C5537 1.499 . S
C5540 C5541 1.373 . S
C5540 C5542 1.389 . S
C5541 H5520 0.950 . S
C5541 C5540 1.373 . S
C5541 C5557 1.377 . S
C5542 C5540 1.389 . S
C5542 C5543 1.524 . S
C5542 C5556 1.377 . S
C5543 C5542 1.524 . S
C5543 C5544 1.397 . S
C5543 C5548 1.363 . S
C5544 H5521 0.950 . S
C5544 C5543 1.397 . S
C5544 C5545 1.334 . S
C5545 H5522 0.950 . S
C5545 C5544 1.334 . S
C5545 C5546 1.287 . S
C5546 C5545 1.287 . S
C5546 C5547 1.524 . S
C5546 H5565 0.913 . S
C5547 H5523 0.950 . S
C5547 C5546 1.524 . S
C5547 C5548 1.415 . S
C5548 H5524 0.950 . S
C5548 C5543 1.363 . S
C5548 C5547 1.415 . S
C5549 H5525 0.951 . S
C5549 C5550 1.366 . S
C5549 C5551 1.388 . S
C5550 C5549 1.366 . S
C5550 C5554 1.385 . S
C5551 H5526 0.951 . S
C5551 C5549 1.388 . S
C5551 C5552 1.366 . S
C5552 C5551 1.366 . S
C5552 C5553 1.414 . S
C5552 C5555 1.499 . S
C5553 H5527 0.950 . S
C5553 C5552 1.414 . S
C5553 C5554 1.374 . S
C5554 H5528 0.950 . S
C5554 C5550 1.385 . S
C5554 C5553 1.374 . S
C5555 C5552 1.499 . S
C5555 C5556 1.373 . S
C5555 C5557 1.389 . S
C5556 H5529 0.950 . S
C5556 C5542 1.377 . S
C5556 C5555 1.373 . S
C5557 C5541 1.377 . S
C5557 C5555 1.389 . S
C5557 C5558 1.524 . S
C5558 C5557 1.524 . S
C5558 C5559 1.397 . S
C5558 C5563 1.363 . S
C5559 H5530 0.950 . S
C5559 C5558 1.397 . S
C5559 C5560 1.334 . S
C5560 H5531 0.950 . S
C5560 C5559 1.334 . S
C5560 C5561 1.287 . S
C5561 C5560 1.287 . S
C5561 C5562 1.524 . S
C5561 H5564 0.999 . S
C5562 H5532 0.950 . S
C5562 C5561 1.524 . S
C5562 C5563 1.415 . S
C5563 H5533 0.950 . S
C5563 C5558 1.363 . S
C5563 C5562 1.415 . S
H5564 C5561 0.999 . S
H5565 C5546 0.913 . S
H5566 C5584 0.951 . S
H5567 C5586 0.951 . S
H5568 C5588 0.950 . S
H5569 C5589 0.950 . S
H5570 C5591 0.950 . S
H5571 C5594 0.950 . S
H5572 C5595 0.950 . S
H5573 C5597 0.950 . S
H5574 C5598 0.950 . S
H5575 C5599 0.951 . S
H5576 C5601 0.951 . S
H5577 C5603 0.950 . S
H5578 C5604 0.950 . S
H5579 C5606 0.950 . S
H5580 C5609 0.950 . S
H5581 C5610 0.950 . S
H5582 C5612 0.950 . S
H5583 C5613 0.950 . S
C5584 H5566 0.951 . S
C5584 C5585 1.366 . S
C5584 C5586 1.388 . S
C5585 C5584 1.366 . S
C5585 C5589 1.385 . S
C5586 H5567 0.951 . S
C5586 C5584 1.388 . S
C5586 C5587 1.366 . S
C5587 C5586 1.366 . S
C5587 C5588 1.414 . S
C5587 C5590 1.499 . S
C5588 H5568 0.950 . S
C5588 C5587 1.414 . S
C5588 C5589 1.374 . S
C5589 H5569 0.950 . S
C5589 C5585 1.385 . S
C5589 C5588 1.374 . S
C5590 C5587 1.499 . S
C5590 C5591 1.373 . S
C5590 C5592 1.389 . S
C5591 H5570 0.950 . S
C5591 C5590 1.373 . S
C5591 C5607 1.377 . S
C5592 C5590 1.389 . S
C5592 C5593 1.524 . S
C5592 C5606 1.377 . S
C5593 C5592 1.524 . S
C5593 C5594 1.397 . S
C5593 C5598 1.363 . S
C5594 H5571 0.950 . S
C5594 C5593 1.397 . S
C5594 C5595 1.334 . S
C5595 H5572 0.950 . S
C5595 C5594 1.334 . S
C5595 C5596 1.287 . S
C5596 C5595 1.287 . S
C5596 C5597 1.524 . S
C5596 H5615 0.913 . S
C5597 H5573 0.950 . S
C5597 C5596 1.524 . S
C5597 C5598 1.415 . S
C5598 H5574 0.950 . S
C5598 C5593 1.363 . S
C5598 C5597 1.415 . S
C5599 H5575 0.951 . S
C5599 C5600 1.366 . S
C5599 C5601 1.388 . S
C5600 C5599 1.366 . S
C5600 C5604 1.385 . S
C5601 H5576 0.951 . S
C5601 C5599 1.388 . S
C5601 C5602 1.366 . S
C5602 C5601 1.366 . S
C5602 C5603 1.414 . S
C5602 C5605 1.499 . S
C5603 H5577 0.950 . S
C5603 C5602 1.414 . S
C5603 C5604 1.374 . S
C5604 H5578 0.950 . S
C5604 C5600 1.385 . S
C5604 C5603 1.374 . S
C5605 C5602 1.499 . S
C5605 C5606 1.373 . S
C5605 C5607 1.389 . S
C5606 H5579 0.950 . S
C5606 C5592 1.377 . S
C5606 C5605 1.373 . S
C5607 C5591 1.377 . S
C5607 C5605 1.389 . S
C5607 C5608 1.524 . S
C5608 C5607 1.524 . S
C5608 C5609 1.397 . S
C5608 C5613 1.363 . S
C5609 H5580 0.950 . S
C5609 C5608 1.397 . S
C5609 C5610 1.334 . S
C5610 H5581 0.950 . S
C5610 C5609 1.334 . S
C5610 C5611 1.287 . S
C5611 C5610 1.287 . S
C5611 C5612 1.524 . S
C5611 H5614 0.999 . S
C5612 H5582 0.950 . S
C5612 C5611 1.524 . S
C5612 C5613 1.415 . S
C5613 H5583 0.950 . S
C5613 C5608 1.363 . S
C5613 C5612 1.415 . S
H5614 C5611 0.999 . S
H5615 C5596 0.913 . S
H5616 C5634 0.951 . S
H5617 C5636 0.951 . S
H5618 C5638 0.950 . S
H5619 C5639 0.950 . S
H5620 C5641 0.950 . S
H5621 C5644 0.950 . S
H5622 C5645 0.950 . S
H5623 C5647 0.950 . S
H5624 C5648 0.950 . S
H5625 C5649 0.951 . S
H5626 C5651 0.951 . S
H5627 C5653 0.950 . S
H5628 C5654 0.950 . S
H5629 C5656 0.950 . S
H5630 C5659 0.950 . S
H5631 C5660 0.950 . S
H5632 C5662 0.950 . S
H5633 C5663 0.950 . S
C5634 H5616 0.951 . S
C5634 C5635 1.366 . S
C5634 C5636 1.388 . S
C5635 C5634 1.366 . S
C5635 C5639 1.385 . S
C5636 H5617 0.951 . S
C5636 C5634 1.388 . S
C5636 C5637 1.366 . S
C5637 C5636 1.366 . S
C5637 C5638 1.414 . S
C5637 C5640 1.499 . S
C5638 H5618 0.950 . S
C5638 C5637 1.414 . S
C5638 C5639 1.374 . S
C5639 H5619 0.950 . S
C5639 C5635 1.385 . S
C5639 C5638 1.374 . S
C5640 C5637 1.499 . S
C5640 C5641 1.373 . S
C5640 C5642 1.389 . S
C5641 H5620 0.950 . S
C5641 C5640 1.373 . S
C5641 C5657 1.377 . S
C5642 C5640 1.389 . S
C5642 C5643 1.524 . S
C5642 C5656 1.377 . S
C5643 C5642 1.524 . S
C5643 C5644 1.397 . S
C5643 C5648 1.363 . S
C5644 H5621 0.950 . S
C5644 C5643 1.397 . S
C5644 C5645 1.334 . S
C5645 H5622 0.950 . S
C5645 C5644 1.334 . S
C5645 C5646 1.287 . S
C5646 C5645 1.287 . S
C5646 C5647 1.524 . S
C5646 H5665 0.913 . S
C5647 H5623 0.950 . S
C5647 C5646 1.524 . S
C5647 C5648 1.415 . S
C5648 H5624 0.950 . S
C5648 C5643 1.363 . S
C5648 C5647 1.415 . S
C5649 H5625 0.951 . S
C5649 C5650 1.366 . S
C5649 C5651 1.388 . S
C5650 C5649 1.366 . S
C5650 C5654 1.385 . S
C5651 H5626 0.951 . S
C5651 C5649 1.388 . S
C5651 C5652 1.366 . S
C5652 C5651 1.366 . S
C5652 C5653 1.414 . S
C5652 C5655 1.499 . S
C5653 H5627 0.950 . S
C5653 C5652 1.414 . S
C5653 C5654 1.374 . S
C5654 H5628 0.950 . S
C5654 C5650 1.385 . S
C5654 C5653 1.374 . S
C5655 C5652 1.499 . S
C5655 C5656 1.373 . S
C5655 C5657 1.389 . S
C5656 H5629 0.950 . S
C5656 C5642 1.377 . S
C5656 C5655 1.373 . S
C5657 C5641 1.377 . S
C5657 C5655 1.389 . S
C5657 C5658 1.524 . S
C5658 C5657 1.524 . S
C5658 C5659 1.397 . S
C5658 C5663 1.363 . S
C5659 H5630 0.950 . S
C5659 C5658 1.397 . S
C5659 C5660 1.334 . S
C5660 H5631 0.950 . S
C5660 C5659 1.334 . S
C5660 C5661 1.287 . S
C5661 C5660 1.287 . S
C5661 C5662 1.524 . S
C5661 H5664 0.999 . S
C5662 H5632 0.950 . S
C5662 C5661 1.524 . S
C5662 C5663 1.415 . S
C5663 H5633 0.950 . S
C5663 C5658 1.363 . S
C5663 C5662 1.415 . S
H5664 C5661 0.999 . S
H5665 C5646 0.913 . S
H5666 C5684 0.951 . S
H5667 C5686 0.951 . S
H5668 C5688 0.950 . S
H5669 C5689 0.950 . S
H5670 C5691 0.950 . S
H5671 C5694 0.950 . S
H5672 C5695 0.950 . S
H5673 C5697 0.950 . S
H5674 C5698 0.950 . S
H5675 C5699 0.951 . S
H5676 C5701 0.951 . S
H5677 C5703 0.950 . S
H5678 C5704 0.950 . S
H5679 C5706 0.950 . S
H5680 C5709 0.950 . S
H5681 C5710 0.950 . S
H5682 C5712 0.950 . S
H5683 C5713 0.950 . S
C5684 H5666 0.951 . S
C5684 C5685 1.366 . S
C5684 C5686 1.388 . S
C5685 C5684 1.366 . S
C5685 C5689 1.385 . S
C5686 H5667 0.951 . S
C5686 C5684 1.388 . S
C5686 C5687 1.366 . S
C5687 C5686 1.366 . S
C5687 C5688 1.414 . S
C5687 C5690 1.499 . S
C5688 H5668 0.950 . S
C5688 C5687 1.414 . S
C5688 C5689 1.374 . S
C5689 H5669 0.950 . S
C5689 C5685 1.385 . S
C5689 C5688 1.374 . S
C5690 C5687 1.499 . S
C5690 C5691 1.373 . S
C5690 C5692 1.389 . S
C5691 H5670 0.950 . S
C5691 C5690 1.373 . S
C5691 C5707 1.377 . S
C5692 C5690 1.389 . S
C5692 C5693 1.524 . S
C5692 C5706 1.377 . S
C5693 C5692 1.524 . S
C5693 C5694 1.397 . S
C5693 C5698 1.363 . S
C5694 H5671 0.950 . S
C5694 C5693 1.397 . S
C5694 C5695 1.334 . S
C5695 H5672 0.950 . S
C5695 C5694 1.334 . S
C5695 C5696 1.287 . S
C5696 C5695 1.287 . S
C5696 C5697 1.524 . S
C5696 H5715 0.913 . S
C5697 H5673 0.950 . S
C5697 C5696 1.524 . S
C5697 C5698 1.415 . S
C5698 H5674 0.950 . S
C5698 C5693 1.363 . S
C5698 C5697 1.415 . S
C5699 H5675 0.951 . S
C5699 C5700 1.366 . S
C5699 C5701 1.388 . S
C5700 C5699 1.366 . S
C5700 C5704 1.385 . S
C5701 H5676 0.951 . S
C5701 C5699 1.388 . S
C5701 C5702 1.366 . S
C5702 C5701 1.366 . S
C5702 C5703 1.414 . S
C5702 C5705 1.499 . S
C5703 H5677 0.950 . S
C5703 C5702 1.414 . S
C5703 C5704 1.374 . S
C5704 H5678 0.950 . S
C5704 C5700 1.385 . S
C5704 C5703 1.374 . S
C5705 C5702 1.499 . S
C5705 C5706 1.373 . S
C5705 C5707 1.389 . S
C5706 H5679 0.950 . S
C5706 C5692 1.377 . S
C5706 C5705 1.373 . S
C5707 C5691 1.377 . S
C5707 C5705 1.389 . S
C5707 C5708 1.524 . S
C5708 C5707 1.524 . S
C5708 C5709 1.397 . S
C5708 C5713 1.363 . S
C5709 H5680 0.950 . S
C5709 C5708 1.397 . S
C5709 C5710 1.334 . S
C5710 H5681 0.950 . S
C5710 C5709 1.334 . S
C5710 C5711 1.287 . S
C5711 C5710 1.287 . S
C5711 C5712 1.524 . S
C5711 H5714 0.999 . S
C5712 H5682 0.950 . S
C5712 C5711 1.524 . S
C5712 C5713 1.415 . S
C5713 H5683 0.950 . S
C5713 C5708 1.363 . S
C5713 C5712 1.415 . S
H5714 C5711 0.999 . S
H5715 C5696 0.913 . S
H5716 C5734 0.951 . S
H5717 C5736 0.951 . S
H5718 C5738 0.950 . S
H5719 C5739 0.950 . S
H5720 C5741 0.950 . S
H5721 C5744 0.950 . S
H5722 C5745 0.950 . S
H5723 C5747 0.950 . S
H5724 C5748 0.950 . S
H5725 C5749 0.951 . S
H5726 C5751 0.951 . S
H5727 C5753 0.950 . S
H5728 C5754 0.950 . S
H5729 C5756 0.950 . S
H5730 C5759 0.950 . S
H5731 C5760 0.950 . S
H5732 C5762 0.950 . S
H5733 C5763 0.950 . S
C5734 H5716 0.951 . S
C5734 C5735 1.366 . S
C5734 C5736 1.388 . S
C5735 C5734 1.366 . S
C5735 C5739 1.385 . S
C5736 H5717 0.951 . S
C5736 C5734 1.388 . S
C5736 C5737 1.366 . S
C5737 C5736 1.366 . S
C5737 C5738 1.414 . S
C5737 C5740 1.499 . S
C5738 H5718 0.950 . S
C5738 C5737 1.414 . S
C5738 C5739 1.374 . S
C5739 H5719 0.950 . S
C5739 C5735 1.385 . S
C5739 C5738 1.374 . S
C5740 C5737 1.499 . S
C5740 C5741 1.373 . S
C5740 C5742 1.389 . S
C5741 H5720 0.950 . S
C5741 C5740 1.373 . S
C5741 C5757 1.377 . S
C5742 C5740 1.389 . S
C5742 C5743 1.524 . S
C5742 C5756 1.377 . S
C5743 C5742 1.524 . S
C5743 C5744 1.397 . S
C5743 C5748 1.363 . S
C5744 H5721 0.950 . S
C5744 C5743 1.397 . S
C5744 C5745 1.334 . S
C5745 H5722 0.950 . S
C5745 C5744 1.334 . S
C5745 C5746 1.287 . S
C5746 C5745 1.287 . S
C5746 C5747 1.524 . S
C5746 H5765 0.913 . S
C5747 H5723 0.950 . S
C5747 C5746 1.524 . S
C5747 C5748 1.415 . S
C5748 H5724 0.950 . S
C5748 C5743 1.363 . S
C5748 C5747 1.415 . S
C5749 H5725 0.951 . S
C5749 C5750 1.366 . S
C5749 C5751 1.388 . S
C5750 C5749 1.366 . S
C5750 C5754 1.385 . S
C5751 H5726 0.951 . S
C5751 C5749 1.388 . S
C5751 C5752 1.366 . S
C5752 C5751 1.366 . S
C5752 C5753 1.414 . S
C5752 C5755 1.499 . S
C5753 H5727 0.950 . S
C5753 C5752 1.414 . S
C5753 C5754 1.374 . S
C5754 H5728 0.950 . S
C5754 C5750 1.385 . S
C5754 C5753 1.374 . S
C5755 C5752 1.499 . S
C5755 C5756 1.373 . S
C5755 C5757 1.389 . S
C5756 H5729 0.950 . S
C5756 C5742 1.377 . S
C5756 C5755 1.373 . S
C5757 C5741 1.377 . S
C5757 C5755 1.389 . S
C5757 C5758 1.524 . S
C5758 C5757 1.524 . S
C5758 C5759 1.397 . S
C5758 C5763 1.363 . S
C5759 H5730 0.950 . S
C5759 C5758 1.397 . S
C5759 C5760 1.334 . S
C5760 H5731 0.950 . S
C5760 C5759 1.334 . S
C5760 C5761 1.287 . S
C5761 C5760 1.287 . S
C5761 C5762 1.524 . S
C5761 H5764 0.999 . S
C5762 H5732 0.950 . S
C5762 C5761 1.524 . S
C5762 C5763 1.415 . S
C5763 H5733 0.950 . S
C5763 C5758 1.363 . S
C5763 C5762 1.415 . S
H5764 C5761 0.999 . S
H5765 C5746 0.913 . S
H5766 C5784 0.951 . S
H5767 C5786 0.951 . S
H5768 C5788 0.950 . S
H5769 C5789 0.950 . S
H5770 C5791 0.950 . S
H5771 C5794 0.950 . S
H5772 C5795 0.950 . S
H5773 C5797 0.950 . S
H5774 C5798 0.950 . S
H5775 C5799 0.951 . S
H5776 C5801 0.951 . S
H5777 C5803 0.950 . S
H5778 C5804 0.950 . S
H5779 C5806 0.950 . S
H5780 C5809 0.950 . S
H5781 C5810 0.950 . S
H5782 C5812 0.950 . S
H5783 C5813 0.950 . S
C5784 H5766 0.951 . S
C5784 C5785 1.366 . S
C5784 C5786 1.388 . S
C5785 C5784 1.366 . S
C5785 C5789 1.385 . S
C5786 H5767 0.951 . S
C5786 C5784 1.388 . S
C5786 C5787 1.366 . S
C5787 C5786 1.366 . S
C5787 C5788 1.414 . S
C5787 C5790 1.499 . S
C5788 H5768 0.950 . S
C5788 C5787 1.414 . S
C5788 C5789 1.374 . S
C5789 H5769 0.950 . S
C5789 C5785 1.385 . S
C5789 C5788 1.374 . S
C5790 C5787 1.499 . S
C5790 C5791 1.373 . S
C5790 C5792 1.389 . S
C5791 H5770 0.950 . S
C5791 C5790 1.373 . S
C5791 C5807 1.377 . S
C5792 C5790 1.389 . S
C5792 C5793 1.524 . S
C5792 C5806 1.377 . S
C5793 C5792 1.524 . S
C5793 C5794 1.397 . S
C5793 C5798 1.363 . S
C5794 H5771 0.950 . S
C5794 C5793 1.397 . S
C5794 C5795 1.334 . S
C5795 H5772 0.950 . S
C5795 C5794 1.334 . S
C5795 C5796 1.287 . S
C5796 C5795 1.287 . S
C5796 C5797 1.524 . S
C5796 H5815 0.913 . S
C5797 H5773 0.950 . S
C5797 C5796 1.524 . S
C5797 C5798 1.415 . S
C5798 H5774 0.950 . S
C5798 C5793 1.363 . S
C5798 C5797 1.415 . S
C5799 H5775 0.951 . S
C5799 C5800 1.366 . S
C5799 C5801 1.388 . S
C5800 C5799 1.366 . S
C5800 C5804 1.385 . S
C5801 H5776 0.951 . S
C5801 C5799 1.388 . S
C5801 C5802 1.366 . S
C5802 C5801 1.366 . S
C5802 C5803 1.414 . S
C5802 C5805 1.499 . S
C5803 H5777 0.950 . S
C5803 C5802 1.414 . S
C5803 C5804 1.374 . S
C5804 H5778 0.950 . S
C5804 C5800 1.385 . S
C5804 C5803 1.374 . S
C5805 C5802 1.499 . S
C5805 C5806 1.373 . S
C5805 C5807 1.389 . S
C5806 H5779 0.950 . S
C5806 C5792 1.377 . S
C5806 C5805 1.373 . S
C5807 C5791 1.377 . S
C5807 C5805 1.389 . S
C5807 C5808 1.524 . S
C5808 C5807 1.524 . S
C5808 C5809 1.397 . S
C5808 C5813 1.363 . S
C5809 H5780 0.950 . S
C5809 C5808 1.397 . S
C5809 C5810 1.334 . S
C5810 H5781 0.950 . S
C5810 C5809 1.334 . S
C5810 C5811 1.287 . S
C5811 C5810 1.287 . S
C5811 C5812 1.524 . S
C5811 H5814 0.999 . S
C5812 H5782 0.950 . S
C5812 C5811 1.524 . S
C5812 C5813 1.415 . S
C5813 H5783 0.950 . S
C5813 C5808 1.363 . S
C5813 C5812 1.415 . S
H5814 C5811 0.999 . S
H5815 C5796 0.913 . S
H5816 C5834 0.951 . S
H5817 C5836 0.951 . S
H5818 C5838 0.950 . S
H5819 C5839 0.950 . S
H5820 C5841 0.950 . S
H5821 C5844 0.950 . S
H5822 C5845 0.950 . S
H5823 C5847 0.950 . S
H5824 C5848 0.950 . S
H5825 C5849 0.951 . S
H5826 C5851 0.951 . S
H5827 C5853 0.950 . S
H5828 C5854 0.950 . S
H5829 C5856 0.950 . S
H5830 C5859 0.950 . S
H5831 C5860 0.950 . S
H5832 C5862 0.950 . S
H5833 C5863 0.950 . S
C5834 H5816 0.951 . S
C5834 C5835 1.366 . S
C5834 C5836 1.388 . S
C5835 C5834 1.366 . S
C5835 C5839 1.385 . S
C5836 H5817 0.951 . S
C5836 C5834 1.388 . S
C5836 C5837 1.366 . S
C5837 C5836 1.366 . S
C5837 C5838 1.414 . S
C5837 C5840 1.499 . S
C5838 H5818 0.950 . S
C5838 C5837 1.414 . S
C5838 C5839 1.374 . S
C5839 H5819 0.950 . S
C5839 C5835 1.385 . S
C5839 C5838 1.374 . S
C5840 C5837 1.499 . S
C5840 C5841 1.373 . S
C5840 C5842 1.389 . S
C5841 H5820 0.950 . S
C5841 C5840 1.373 . S
C5841 C5857 1.377 . S
C5842 C5840 1.389 . S
C5842 C5843 1.524 . S
C5842 C5856 1.377 . S
C5843 C5842 1.524 . S
C5843 C5844 1.397 . S
C5843 C5848 1.363 . S
C5844 H5821 0.950 . S
C5844 C5843 1.397 . S
C5844 C5845 1.334 . S
C5845 H5822 0.950 . S
C5845 C5844 1.334 . S
C5845 C5846 1.287 . S
C5846 C5845 1.287 . S
C5846 C5847 1.524 . S
C5846 H5865 0.913 . S
C5847 H5823 0.950 . S
C5847 C5846 1.524 . S
C5847 C5848 1.415 . S
C5848 H5824 0.950 . S
C5848 C5843 1.363 . S
C5848 C5847 1.415 . S
C5849 H5825 0.951 . S
C5849 C5850 1.366 . S
C5849 C5851 1.388 . S
C5850 C5849 1.366 . S
C5850 C5854 1.385 . S
C5851 H5826 0.951 . S
C5851 C5849 1.388 . S
C5851 C5852 1.366 . S
C5852 C5851 1.366 . S
C5852 C5853 1.414 . S
C5852 C5855 1.499 . S
C5853 H5827 0.950 . S
C5853 C5852 1.414 . S
C5853 C5854 1.374 . S
C5854 H5828 0.950 . S
C5854 C5850 1.385 . S
C5854 C5853 1.374 . S
C5855 C5852 1.499 . S
C5855 C5856 1.373 . S
C5855 C5857 1.389 . S
C5856 H5829 0.950 . S
C5856 C5842 1.377 . S
C5856 C5855 1.373 . S
C5857 C5841 1.377 . S
C5857 C5855 1.389 . S
C5857 C5858 1.524 . S
C5858 C5857 1.524 . S
C5858 C5859 1.397 . S
C5858 C5863 1.363 . S
C5859 H5830 0.950 . S
C5859 C5858 1.397 . S
C5859 C5860 1.334 . S
C5860 H5831 0.950 . S
C5860 C5859 1.334 . S
C5860 C5861 1.287 . S
C5861 C5860 1.287 . S
C5861 C5862 1.524 . S
C5861 H5864 0.999 . S
C5862 H5832 0.950 . S
C5862 C5861 1.524 . S
C5862 C5863 1.415 . S
C5863 H5833 0.950 . S
C5863 C5858 1.363 . S
C5863 C5862 1.415 . S
H5864 C5861 0.999 . S
H5865 C5846 0.913 . S
H5866 C5884 0.951 . S
H5867 C5886 0.951 . S
H5868 C5888 0.950 . S
H5869 C5889 0.950 . S
H5870 C5891 0.950 . S
H5871 C5894 0.950 . S
H5872 C5895 0.950 . S
H5873 C5897 0.950 . S
H5874 C5898 0.950 . S
H5875 C5899 0.951 . S
H5876 C5901 0.951 . S
H5877 C5903 0.950 . S
H5878 C5904 0.950 . S
H5879 C5906 0.950 . S
H5880 C5909 0.950 . S
H5881 C5910 0.950 . S
H5882 C5912 0.950 . S
H5883 C5913 0.950 . S
C5884 H5866 0.951 . S
C5884 C5885 1.366 . S
C5884 C5886 1.388 . S
C5885 C5884 1.366 . S
C5885 C5889 1.385 . S
C5886 H5867 0.951 . S
C5886 C5884 1.388 . S
C5886 C5887 1.366 . S
C5887 C5886 1.366 . S
C5887 C5888 1.414 . S
C5887 C5890 1.499 . S
C5888 H5868 0.950 . S
C5888 C5887 1.414 . S
C5888 C5889 1.374 . S
C5889 H5869 0.950 . S
C5889 C5885 1.385 . S
C5889 C5888 1.374 . S
C5890 C5887 1.499 . S
C5890 C5891 1.373 . S
C5890 C5892 1.389 . S
C5891 H5870 0.950 . S
C5891 C5890 1.373 . S
C5891 C5907 1.377 . S
C5892 C5890 1.389 . S
C5892 C5893 1.524 . S
C5892 C5906 1.377 . S
C5893 C5892 1.524 . S
C5893 C5894 1.397 . S
C5893 C5898 1.363 . S
C5894 H5871 0.950 . S
C5894 C5893 1.397 . S
C5894 C5895 1.334 . S
C5895 H5872 0.950 . S
C5895 C5894 1.334 . S
C5895 C5896 1.287 . S
C5896 C5895 1.287 . S
C5896 C5897 1.524 . S
C5896 H5915 0.913 . S
C5897 H5873 0.950 . S
C5897 C5896 1.524 . S
C5897 C5898 1.415 . S
C5898 H5874 0.950 . S
C5898 C5893 1.363 . S
C5898 C5897 1.415 . S
C5899 H5875 0.951 . S
C5899 C5900 1.366 . S
C5899 C5901 1.388 . S
C5900 C5899 1.366 . S
C5900 C5904 1.385 . S
C5901 H5876 0.951 . S
C5901 C5899 1.388 . S
C5901 C5902 1.366 . S
C5902 C5901 1.366 . S
C5902 C5903 1.414 . S
C5902 C5905 1.499 . S
C5903 H5877 0.950 . S
C5903 C5902 1.414 . S
C5903 C5904 1.374 . S
C5904 H5878 0.950 . S
C5904 C5900 1.385 . S
C5904 C5903 1.374 . S
C5905 C5902 1.499 . S
C5905 C5906 1.373 . S
C5905 C5907 1.389 . S
C5906 H5879 0.950 . S
C5906 C5892 1.377 . S
C5906 C5905 1.373 . S
C5907 C5891 1.377 . S
C5907 C5905 1.389 . S
C5907 C5908 1.524 . S
C5908 C5907 1.524 . S
C5908 C5909 1.397 . S
C5908 C5913 1.363 . S
C5909 H5880 0.950 . S
C5909 C5908 1.397 . S
C5909 C5910 1.334 . S
C5910 H5881 0.950 . S
C5910 C5909 1.334 . S
C5910 C5911 1.287 . S
C5911 C5910 1.287 . S
C5911 C5912 1.524 . S
C5911 H5914 0.999 . S
C5912 H5882 0.950 . S
C5912 C5911 1.524 . S
C5912 C5913 1.415 . S
C5913 H5883 0.950 . S
C5913 C5908 1.363 . S
C5913 C5912 1.415 . S
H5914 C5911 0.999 . S
H5915 C5896 0.913 . S
H5916 C5934 0.951 . S
H5917 C5936 0.951 . S
H5918 C5938 0.950 . S
H5919 C5939 0.950 . S
H5920 C5941 0.950 . S
H5921 C5944 0.950 . S
H5922 C5945 0.950 . S
H5923 C5947 0.950 . S
H5924 C5948 0.950 . S
H5925 C5949 0.951 . S
H5926 C5951 0.951 . S
H5927 C5953 0.950 . S
H5928 C5954 0.950 . S
H5929 C5956 0.950 . S
H5930 C5959 0.950 . S
H5931 C5960 0.950 . S
H5932 C5962 0.950 . S
H5933 C5963 0.950 . S
C5934 H5916 0.951 . S
C5934 C5935 1.366 . S
C5934 C5936 1.388 . S
C5935 C5934 1.366 . S
C5935 C5939 1.385 . S
C5936 H5917 0.951 . S
C5936 C5934 1.388 . S
C5936 C5937 1.366 . S
C5937 C5936 1.366 . S
C5937 C5938 1.414 . S
C5937 C5940 1.499 . S
C5938 H5918 0.950 . S
C5938 C5937 1.414 . S
C5938 C5939 1.374 . S
C5939 H5919 0.950 . S
C5939 C5935 1.385 . S
C5939 C5938 1.374 . S
C5940 C5937 1.499 . S
C5940 C5941 1.373 . S
C5940 C5942 1.389 . S
C5941 H5920 0.950 . S
C5941 C5940 1.373 . S
C5941 C5957 1.377 . S
C5942 C5940 1.389 . S
C5942 C5943 1.524 . S
C5942 C5956 1.377 . S
C5943 C5942 1.524 . S
C5943 C5944 1.397 . S
C5943 C5948 1.363 . S
C5944 H5921 0.950 . S
C5944 C5943 1.397 . S
C5944 C5945 1.334 . S
C5945 H5922 0.950 . S
C5945 C5944 1.334 . S
C5945 C5946 1.287 . S
C5946 C5945 1.287 . S
C5946 C5947 1.524 . S
C5946 H5965 0.913 . S
C5947 H5923 0.950 . S
C5947 C5946 1.524 . S
C5947 C5948 1.415 . S
C5948 H5924 0.950 . S
C5948 C5943 1.363 . S
C5948 C5947 1.415 . S
C5949 H5925 0.951 . S
C5949 C5950 1.366 . S
C5949 C5951 1.388 . S
C5950 C5949 1.366 . S
C5950 C5954 1.385 . S
C5951 H5926 0.951 . S
C5951 C5949 1.388 . S
C5951 C5952 1.366 . S
C5952 C5951 1.366 . S
C5952 C5953 1.414 . S
C5952 C5955 1.499 . S
C5953 H5927 0.950 . S
C5953 C5952 1.414 . S
C5953 C5954 1.374 . S
C5954 H5928 0.950 . S
C5954 C5950 1.385 . S
C5954 C5953 1.374 . S
C5955 C5952 1.499 . S
C5955 C5956 1.373 . S
C5955 C5957 1.389 . S
C5956 H5929 0.950 . S
C5956 C5942 1.377 . S
C5956 C5955 1.373 . S
C5957 C5941 1.377 . S
C5957 C5955 1.389 . S
C5957 C5958 1.524 . S
C5958 C5957 1.524 . S
C5958 C5959 1.397 . S
C5958 C5963 1.363 . S
C5959 H5930 0.950 . S
C5959 C5958 1.397 . S
C5959 C5960 1.334 . S
C5960 H5931 0.950 . S
C5960 C5959 1.334 . S
C5960 C5961 1.287 . S
C5961 C5960 1.287 . S
C5961 C5962 1.524 . S
C5961 H5964 0.999 . S
C5962 H5932 0.950 . S
C5962 C5961 1.524 . S
C5962 C5963 1.415 . S
C5963 H5933 0.950 . S
C5963 C5958 1.363 . S
C5963 C5962 1.415 . S
H5964 C5961 0.999 . S
H5965 C5946 0.913 . S
H5966 C5984 0.951 . S
H5967 C5986 0.951 . S
H5968 C5988 0.950 . S
H5969 C5989 0.950 . S
H5970 C5991 0.950 . S
H5971 C5994 0.950 . S
H5972 C5995 0.950 . S
H5973 C5997 0.950 . S
H5974 C5998 0.950 . S
H5975 C5999 0.951 . S
H5976 C6001 0.951 . S
H5977 C6003 0.950 . S
H5978 C6004 0.950 . S
H5979 C6006 0.950 . S
H5980 C6009 0.950 . S
H5981 C6010 0.950 . S
H5982 C6012 0.950 . S
H5983 C6013 0.950 . S
C5984 H5966 0.951 . S
C5984 C5985 1.366 . S
C5984 C5986 1.388 . S
C5985 C5984 1.366 . S
C5985 C5989 1.385 . S
C5986 H5967 0.951 . S
C5986 C5984 1.388 . S
C5986 C5987 1.366 . S
C5987 C5986 1.366 . S
C5987 C5988 1.414 . S
C5987 C5990 1.499 . S
C5988 H5968 0.950 . S
C5988 C5987 1.414 . S
C5988 C5989 1.374 . S
C5989 H5969 0.950 . S
C5989 C5985 1.385 . S
C5989 C5988 1.374 . S
C5990 C5987 1.499 . S
C5990 C5991 1.373 . S
C5990 C5992 1.389 . S
C5991 H5970 0.950 . S
C5991 C5990 1.373 . S
C5991 C6007 1.377 . S
C5992 C5990 1.389 . S
C5992 C5993 1.524 . S
C5992 C6006 1.377 . S
C5993 C5992 1.524 . S
C5993 C5994 1.397 . S
C5993 C5998 1.363 . S
C5994 H5971 0.950 . S
C5994 C5993 1.397 . S
C5994 C5995 1.334 . S
C5995 H5972 0.950 . S
C5995 C5994 1.334 . S
C5995 C5996 1.287 . S
C5996 C5995 1.287 . S
C5996 C5997 1.524 . S
C5996 H6015 0.913 . S
C5997 H5973 0.950 . S
C5997 C5996 1.524 . S
C5997 C5998 1.415 . S
C5998 H5974 0.950 . S
C5998 C5993 1.363 . S
C5998 C5997 1.415 . S
C5999 H5975 0.951 . S
C5999 C6000 1.366 . S
C5999 C6001 1.388 . S
C6000 C5999 1.366 . S
C6000 C6004 1.385 . S
C6001 H5976 0.951 . S
C6001 C5999 1.388 . S
C6001 C6002 1.366 . S
C6002 C6001 1.366 . S
C6002 C6003 1.414 . S
C6002 C6005 1.499 . S
C6003 H5977 0.950 . S
C6003 C6002 1.414 . S
C6003 C6004 1.374 . S
C6004 H5978 0.950 . S
C6004 C6000 1.385 . S
C6004 C6003 1.374 . S
C6005 C6002 1.499 . S
C6005 C6006 1.373 . S
C6005 C6007 1.389 . S
C6006 H5979 0.950 . S
C6006 C5992 1.377 . S
C6006 C6005 1.373 . S
C6007 C5991 1.377 . S
C6007 C6005 1.389 . S
C6007 C6008 1.524 . S
C6008 C6007 1.524 . S
C6008 C6009 1.397 . S
C6008 C6013 1.363 . S
C6009 H5980 0.950 . S
C6009 C6008 1.397 . S
C6009 C6010 1.334 . S
C6010 H5981 0.950 . S
C6010 C6009 1.334 . S
C6010 C6011 1.287 . S
C6011 C6010 1.287 . S
C6011 C6012 1.524 . S
C6011 H6014 0.999 . S
C6012 H5982 0.950 . S
C6012 C6011 1.524 . S
C6012 C6013 1.415 . S
C6013 H5983 0.950 . S
C6013 C6008 1.363 . S
C6013 C6012 1.415 . S
H6014 C6011 0.999 . S
H6015 C5996 0.913 . S
H6016 C6034 0.951 . S
H6017 C6036 0.951 . S
H6018 C6038 0.950 . S
H6019 C6039 0.950 . S
H6020 C6041 0.950 . S
H6021 C6044 0.950 . S
H6022 C6045 0.950 . S
H6023 C6047 0.950 . S
H6024 C6048 0.950 . S
H6025 C6049 0.951 . S
H6026 C6051 0.951 . S
H6027 C6053 0.950 . S
H6028 C6054 0.950 . S
H6029 C6056 0.950 . S
H6030 C6059 0.950 . S
H6031 C6060 0.950 . S
H6032 C6062 0.950 . S
H6033 C6063 0.950 . S
C6034 H6016 0.951 . S
C6034 C6035 1.366 . S
C6034 C6036 1.388 . S
C6035 C6034 1.366 . S
C6035 C6039 1.385 . S
C6036 H6017 0.951 . S
C6036 C6034 1.388 . S
C6036 C6037 1.366 . S
C6037 C6036 1.366 . S
C6037 C6038 1.414 . S
C6037 C6040 1.499 . S
C6038 H6018 0.950 . S
C6038 C6037 1.414 . S
C6038 C6039 1.374 . S
C6039 H6019 0.950 . S
C6039 C6035 1.385 . S
C6039 C6038 1.374 . S
C6040 C6037 1.499 . S
C6040 C6041 1.373 . S
C6040 C6042 1.389 . S
C6041 H6020 0.950 . S
C6041 C6040 1.373 . S
C6041 C6057 1.377 . S
C6042 C6040 1.389 . S
C6042 C6043 1.524 . S
C6042 C6056 1.377 . S
C6043 C6042 1.524 . S
C6043 C6044 1.397 . S
C6043 C6048 1.363 . S
C6044 H6021 0.950 . S
C6044 C6043 1.397 . S
C6044 C6045 1.334 . S
C6045 H6022 0.950 . S
C6045 C6044 1.334 . S
C6045 C6046 1.287 . S
C6046 C6045 1.287 . S
C6046 C6047 1.524 . S
C6046 H6065 0.913 . S
C6047 H6023 0.950 . S
C6047 C6046 1.524 . S
C6047 C6048 1.415 . S
C6048 H6024 0.950 . S
C6048 C6043 1.363 . S
C6048 C6047 1.415 . S
C6049 H6025 0.951 . S
C6049 C6050 1.366 . S
C6049 C6051 1.388 . S
C6050 C6049 1.366 . S
C6050 C6054 1.385 . S
C6051 H6026 0.951 . S
C6051 C6049 1.388 . S
C6051 C6052 1.366 . S
C6052 C6051 1.366 . S
C6052 C6053 1.414 . S
C6052 C6055 1.499 . S
C6053 H6027 0.950 . S
C6053 C6052 1.414 . S
C6053 C6054 1.374 . S
C6054 H6028 0.950 . S
C6054 C6050 1.385 . S
C6054 C6053 1.374 . S
C6055 C6052 1.499 . S
C6055 C6056 1.373 . S
C6055 C6057 1.389 . S
C6056 H6029 0.950 . S
C6056 C6042 1.377 . S
C6056 C6055 1.373 . S
C6057 C6041 1.377 . S
C6057 C6055 1.389 . S
C6057 C6058 1.524 . S
C6058 C6057 1.524 . S
C6058 C6059 1.397 . S
C6058 C6063 1.363 . S
C6059 H6030 0.950 . S
C6059 C6058 1.397 . S
C6059 C6060 1.334 . S
C6060 H6031 0.950 . S
C6060 C6059 1.334 . S
C6060 C6061 1.287 . S
C6061 C6060 1.287 . S
C6061 C6062 1.524 . S
C6061 H6064 0.999 . S
C6062 H6032 0.950 . S
C6062 C6061 1.524 . S
C6062 C6063 1.415 . S
C6063 H6033 0.950 . S
C6063 C6058 1.363 . S
C6063 C6062 1.415 . S
H6064 C6061 0.999 . S
H6065 C6046 0.913 . S
H6066 C6084 0.951 . S
H6067 C6086 0.951 . S
H6068 C6088 0.950 . S
H6069 C6089 0.950 . S
H6070 C6091 0.950 . S
H6071 C6094 0.950 . S
H6072 C6095 0.950 . S
H6073 C6097 0.950 . S
H6074 C6098 0.950 . S
H6075 C6099 0.951 . S
H6076 C6101 0.951 . S
H6077 C6103 0.950 . S
H6078 C6104 0.950 . S
H6079 C6106 0.950 . S
H6080 C6109 0.950 . S
H6081 C6110 0.950 . S
H6082 C6112 0.950 . S
H6083 C6113 0.950 . S
C6084 H6066 0.951 . S
C6084 C6085 1.366 . S
C6084 C6086 1.388 . S
C6085 C6084 1.366 . S
C6085 C6089 1.385 . S
C6086 H6067 0.951 . S
C6086 C6084 1.388 . S
C6086 C6087 1.366 . S
C6087 C6086 1.366 . S
C6087 C6088 1.414 . S
C6087 C6090 1.499 . S
C6088 H6068 0.950 . S
C6088 C6087 1.414 . S
C6088 C6089 1.374 . S
C6089 H6069 0.950 . S
C6089 C6085 1.385 . S
C6089 C6088 1.374 . S
C6090 C6087 1.499 . S
C6090 C6091 1.373 . S
C6090 C6092 1.389 . S
C6091 H6070 0.950 . S
C6091 C6090 1.373 . S
C6091 C6107 1.377 . S
C6092 C6090 1.389 . S
C6092 C6093 1.524 . S
C6092 C6106 1.377 . S
C6093 C6092 1.524 . S
C6093 C6094 1.397 . S
C6093 C6098 1.363 . S
C6094 H6071 0.950 . S
C6094 C6093 1.397 . S
C6094 C6095 1.334 . S
C6095 H6072 0.950 . S
C6095 C6094 1.334 . S
C6095 C6096 1.287 . S
C6096 C6095 1.287 . S
C6096 C6097 1.524 . S
C6096 H6115 0.913 . S
C6097 H6073 0.950 . S
C6097 C6096 1.524 . S
C6097 C6098 1.415 . S
C6098 H6074 0.950 . S
C6098 C6093 1.363 . S
C6098 C6097 1.415 . S
C6099 H6075 0.951 . S
C6099 C6100 1.366 . S
C6099 C6101 1.388 . S
C6100 C6099 1.366 . S
C6100 C6104 1.385 . S
C6101 H6076 0.951 . S
C6101 C6099 1.388 . S
C6101 C6102 1.366 . S
C6102 C6101 1.366 . S
C6102 C6103 1.414 . S
C6102 C6105 1.499 . S
C6103 H6077 0.950 . S
C6103 C6102 1.414 . S
C6103 C6104 1.374 . S
C6104 H6078 0.950 . S
C6104 C6100 1.385 . S
C6104 C6103 1.374 . S
C6105 C6102 1.499 . S
C6105 C6106 1.373 . S
C6105 C6107 1.389 . S
C6106 H6079 0.950 . S
C6106 C6092 1.377 . S
C6106 C6105 1.373 . S
C6107 C6091 1.377 . S
C6107 C6105 1.389 . S
C6107 C6108 1.524 . S
C6108 C6107 1.524 . S
C6108 C6109 1.397 . S
C6108 C6113 1.363 . S
C6109 H6080 0.950 . S
C6109 C6108 1.397 . S
C6109 C6110 1.334 . S
C6110 H6081 0.950 . S
C6110 C6109 1.334 . S
C6110 C6111 1.287 . S
C6111 C6110 1.287 . S
C6111 C6112 1.524 . S
C6111 H6114 0.999 . S
C6112 H6082 0.950 . S
C6112 C6111 1.524 . S
C6112 C6113 1.415 . S
C6113 H6083 0.950 . S
C6113 C6108 1.363 . S
C6113 C6112 1.415 . S
H6114 C6111 0.999 . S
H6115 C6096 0.913 . S
H6116 C6134 0.951 . S
H6117 C6136 0.951 . S
H6118 C6138 0.950 . S
H6119 C6139 0.950 . S
H6120 C6141 0.950 . S
H6121 C6144 0.950 . S
H6122 C6145 0.950 . S
H6123 C6147 0.950 . S
H6124 C6148 0.950 . S
H6125 C6149 0.951 . S
H6126 C6151 0.951 . S
H6127 C6153 0.950 . S
H6128 C6154 0.950 . S
H6129 C6156 0.950 . S
H6130 C6159 0.950 . S
H6131 C6160 0.950 . S
H6132 C6162 0.950 . S
H6133 C6163 0.950 . S
C6134 H6116 0.951 . S
C6134 C6135 1.366 . S
C6134 C6136 1.388 . S
C6135 C6134 1.366 . S
C6135 C6139 1.385 . S
C6136 H6117 0.951 . S
C6136 C6134 1.388 . S
C6136 C6137 1.366 . S
C6137 C6136 1.366 . S
C6137 C6138 1.414 . S
C6137 C6140 1.499 . S
C6138 H6118 0.950 . S
C6138 C6137 1.414 . S
C6138 C6139 1.374 . S
C6139 H6119 0.950 . S
C6139 C6135 1.385 . S
C6139 C6138 1.374 . S
C6140 C6137 1.499 . S
C6140 C6141 1.373 . S
C6140 C6142 1.389 . S
C6141 H6120 0.950 . S
C6141 C6140 1.373 . S
C6141 C6157 1.377 . S
C6142 C6140 1.389 . S
C6142 C6143 1.524 . S
C6142 C6156 1.377 . S
C6143 C6142 1.524 . S
C6143 C6144 1.397 . S
C6143 C6148 1.363 . S
C6144 H6121 0.950 . S
C6144 C6143 1.397 . S
C6144 C6145 1.334 . S
C6145 H6122 0.950 . S
C6145 C6144 1.334 . S
C6145 C6146 1.287 . S
C6146 C6145 1.287 . S
C6146 C6147 1.524 . S
C6146 H6165 0.913 . S
C6147 H6123 0.950 . S
C6147 C6146 1.524 . S
C6147 C6148 1.415 . S
C6148 H6124 0.950 . S
C6148 C6143 1.363 . S
C6148 C6147 1.415 . S
C6149 H6125 0.951 . S
C6149 C6150 1.366 . S
C6149 C6151 1.388 . S
C6150 C6149 1.366 . S
C6150 C6154 1.385 . S
C6151 H6126 0.951 . S
C6151 C6149 1.388 . S
C6151 C6152 1.366 . S
C6152 C6151 1.366 . S
C6152 C6153 1.414 . S
C6152 C6155 1.499 . S
C6153 H6127 0.950 . S
C6153 C6152 1.414 . S
C6153 C6154 1.374 . S
C6154 H6128 0.950 . S
C6154 C6150 1.385 . S
C6154 C6153 1.374 . S
C6155 C6152 1.499 . S
C6155 C6156 1.373 . S
C6155 C6157 1.389 . S
C6156 H6129 0.950 . S
C6156 C6142 1.377 . S
C6156 C6155 1.373 . S
C6157 C6141 1.377 . S
C6157 C6155 1.389 . S
C6157 C6158 1.524 . S
C6158 C6157 1.524 . S
C6158 C6159 1.397 . S
C6158 C6163 1.363 . S
C6159 H6130 0.950 . S
C6159 C6158 1.397 . S
C6159 C6160 1.334 . S
C6160 H6131 0.950 . S
C6160 C6159 1.334 . S
C6160 C6161 1.287 . S
C6161 C6160 1.287 . S
C6161 C6162 1.524 . S
C6161 H6164 0.999 . S
C6162 H6132 0.950 . S
C6162 C6161 1.524 . S
C6162 C6163 1.415 . S
C6163 H6133 0.950 . S
C6163 C6158 1.363 . S
C6163 C6162 1.415 . S
H6164 C6161 0.999 . S
H6165 C6146 0.913 . S
H6166 C6184 0.951 . S
H6167 C6186 0.951 . S
H6168 C6188 0.950 . S
H6169 C6189 0.950 . S
H6170 C6191 0.950 . S
H6171 C6194 0.950 . S
H6172 C6195 0.950 . S
H6173 C6197 0.950 . S
H6174 C6198 0.950 . S
H6175 C6199 0.951 . S
H6176 C6201 0.951 . S
H6177 C6203 0.950 . S
H6178 C6204 0.950 . S
H6179 C6206 0.950 . S
H6180 C6209 0.950 . S
H6181 C6210 0.950 . S
H6182 C6212 0.950 . S
H6183 C6213 0.950 . S
C6184 H6166 0.951 . S
C6184 C6185 1.366 . S
C6184 C6186 1.388 . S
C6185 C6184 1.366 . S
C6185 C6189 1.385 . S
C6186 H6167 0.951 . S
C6186 C6184 1.388 . S
C6186 C6187 1.366 . S
C6187 C6186 1.366 . S
C6187 C6188 1.414 . S
C6187 C6190 1.499 . S
C6188 H6168 0.950 . S
C6188 C6187 1.414 . S
C6188 C6189 1.374 . S
C6189 H6169 0.950 . S
C6189 C6185 1.385 . S
C6189 C6188 1.374 . S
C6190 C6187 1.499 . S
C6190 C6191 1.373 . S
C6190 C6192 1.389 . S
C6191 H6170 0.950 . S
C6191 C6190 1.373 . S
C6191 C6207 1.377 . S
C6192 C6190 1.389 . S
C6192 C6193 1.524 . S
C6192 C6206 1.377 . S
C6193 C6192 1.524 . S
C6193 C6194 1.397 . S
C6193 C6198 1.363 . S
C6194 H6171 0.950 . S
C6194 C6193 1.397 . S
C6194 C6195 1.334 . S
C6195 H6172 0.950 . S
C6195 C6194 1.334 . S
C6195 C6196 1.287 . S
C6196 C6195 1.287 . S
C6196 C6197 1.524 . S
C6196 H6215 0.913 . S
C6197 H6173 0.950 . S
C6197 C6196 1.524 . S
C6197 C6198 1.415 . S
C6198 H6174 0.950 . S
C6198 C6193 1.363 . S
C6198 C6197 1.415 . S
C6199 H6175 0.951 . S
C6199 C6200 1.366 . S
C6199 C6201 1.388 . S
C6200 C6199 1.366 . S
C6200 C6204 1.385 . S
C6201 H6176 0.951 . S
C6201 C6199 1.388 . S
C6201 C6202 1.366 . S
C6202 C6201 1.366 . S
C6202 C6203 1.414 . S
C6202 C6205 1.499 . S
C6203 H6177 0.950 . S
C6203 C6202 1.414 . S
C6203 C6204 1.374 . S
C6204 H6178 0.950 . S
C6204 C6200 1.385 . S
C6204 C6203 1.374 . S
C6205 C6202 1.499 . S
C6205 C6206 1.373 . S
C6205 C6207 1.389 . S
C6206 H6179 0.950 . S
C6206 C6192 1.377 . S
C6206 C6205 1.373 . S
C6207 C6191 1.377 . S
C6207 C6205 1.389 . S
C6207 C6208 1.524 . S
C6208 C6207 1.524 . S
C6208 C6209 1.397 . S
C6208 C6213 1.363 . S
C6209 H6180 0.950 . S
C6209 C6208 1.397 . S
C6209 C6210 1.334 . S
C6210 H6181 0.950 . S
C6210 C6209 1.334 . S
C6210 C6211 1.287 . S
C6211 C6210 1.287 . S
C6211 C6212 1.524 . S
C6211 H6214 0.999 . S
C6212 H6182 0.950 . S
C6212 C6211 1.524 . S
C6212 C6213 1.415 . S
C6213 H6183 0.950 . S
C6213 C6208 1.363 . S
C6213 C6212 1.415 . S
H6214 C6211 0.999 . S
H6215 C6196 0.913 . S
H6216 C6234 0.951 . S
H6217 C6236 0.951 . S
H6218 C6238 0.950 . S
H6219 C6239 0.950 . S
H6220 C6241 0.950 . S
H6221 C6244 0.950 . S
H6222 C6245 0.950 . S
H6223 C6247 0.950 . S
H6224 C6248 0.950 . S
H6225 C6249 0.951 . S
H6226 C6251 0.951 . S
H6227 C6253 0.950 . S
H6228 C6254 0.950 . S
H6229 C6256 0.950 . S
H6230 C6259 0.950 . S
H6231 C6260 0.950 . S
H6232 C6262 0.950 . S
H6233 C6263 0.950 . S
C6234 H6216 0.951 . S
C6234 C6235 1.366 . S
C6234 C6236 1.388 . S
C6235 C6234 1.366 . S
C6235 C6239 1.385 . S
C6236 H6217 0.951 . S
C6236 C6234 1.388 . S
C6236 C6237 1.366 . S
C6237 C6236 1.366 . S
C6237 C6238 1.414 . S
C6237 C6240 1.499 . S
C6238 H6218 0.950 . S
C6238 C6237 1.414 . S
C6238 C6239 1.374 . S
C6239 H6219 0.950 . S
C6239 C6235 1.385 . S
C6239 C6238 1.374 . S
C6240 C6237 1.499 . S
C6240 C6241 1.373 . S
C6240 C6242 1.389 . S
C6241 H6220 0.950 . S
C6241 C6240 1.373 . S
C6241 C6257 1.377 . S
C6242 C6240 1.389 . S
C6242 C6243 1.524 . S
C6242 C6256 1.377 . S
C6243 C6242 1.524 . S
C6243 C6244 1.397 . S
C6243 C6248 1.363 . S
C6244 H6221 0.950 . S
C6244 C6243 1.397 . S
C6244 C6245 1.334 . S
C6245 H6222 0.950 . S
C6245 C6244 1.334 . S
C6245 C6246 1.287 . S
C6246 C6245 1.287 . S
C6246 C6247 1.524 . S
C6246 H6265 0.913 . S
C6247 H6223 0.950 . S
C6247 C6246 1.524 . S
C6247 C6248 1.415 . S
C6248 H6224 0.950 . S
C6248 C6243 1.363 . S
C6248 C6247 1.415 . S
C6249 H6225 0.951 . S
C6249 C6250 1.366 . S
C6249 C6251 1.388 . S
C6250 C6249 1.366 . S
C6250 C6254 1.385 . S
C6251 H6226 0.951 . S
C6251 C6249 1.388 . S
C6251 C6252 1.366 . S
C6252 C6251 1.366 . S
C6252 C6253 1.414 . S
C6252 C6255 1.499 . S
C6253 H6227 0.950 . S
C6253 C6252 1.414 . S
C6253 C6254 1.374 . S
C6254 H6228 0.950 . S
C6254 C6250 1.385 . S
C6254 C6253 1.374 . S
C6255 C6252 1.499 . S
C6255 C6256 1.373 . S
C6255 C6257 1.389 . S
C6256 H6229 0.950 . S
C6256 C6242 1.377 . S
C6256 C6255 1.373 . S
C6257 C6241 1.377 . S
C6257 C6255 1.389 . S
C6257 C6258 1.524 . S
C6258 C6257 1.524 . S
C6258 C6259 1.397 . S
C6258 C6263 1.363 . S
C6259 H6230 0.950 . S
C6259 C6258 1.397 . S
C6259 C6260 1.334 . S
C6260 H6231 0.950 . S
C6260 C6259 1.334 . S
C6260 C6261 1.287 . S
C6261 C6260 1.287 . S
C6261 C6262 1.524 . S
C6261 H6264 0.999 . S
C6262 H6232 0.950 . S
C6262 C6261 1.524 . S
C6262 C6263 1.415 . S
C6263 H6233 0.950 . S
C6263 C6258 1.363 . S
C6263 C6262 1.415 . S
H6264 C6261 0.999 . S
H6265 C6246 0.913 . S
H6266 C6284 0.951 . S
H6267 C6286 0.951 . S
H6268 C6288 0.950 . S
H6269 C6289 0.950 . S
H6270 C6291 0.950 . S
H6271 C6294 0.950 . S
H6272 C6295 0.950 . S
H6273 C6297 0.950 . S
H6274 C6298 0.950 . S
H6275 C6299 0.951 . S
H6276 C6301 0.951 . S
H6277 C6303 0.950 . S
H6278 C6304 0.950 . S
H6279 C6306 0.950 . S
H6280 C6309 0.950 . S
H6281 C6310 0.950 . S
H6282 C6312 0.950 . S
H6283 C6313 0.950 . S
C6284 H6266 0.951 . S
C6284 C6285 1.366 . S
C6284 C6286 1.388 . S
C6285 C6284 1.366 . S
C6285 C6289 1.385 . S
C6286 H6267 0.951 . S
C6286 C6284 1.388 . S
C6286 C6287 1.366 . S
C6287 C6286 1.366 . S
C6287 C6288 1.414 . S
C6287 C6290 1.499 . S
C6288 H6268 0.950 . S
C6288 C6287 1.414 . S
C6288 C6289 1.374 . S
C6289 H6269 0.950 . S
C6289 C6285 1.385 . S
C6289 C6288 1.374 . S
C6290 C6287 1.499 . S
C6290 C6291 1.373 . S
C6290 C6292 1.389 . S
C6291 H6270 0.950 . S
C6291 C6290 1.373 . S
C6291 C6307 1.377 . S
C6292 C6290 1.389 . S
C6292 C6293 1.524 . S
C6292 C6306 1.377 . S
C6293 C6292 1.524 . S
C6293 C6294 1.397 . S
C6293 C6298 1.363 . S
C6294 H6271 0.950 . S
C6294 C6293 1.397 . S
C6294 C6295 1.334 . S
C6295 H6272 0.950 . S
C6295 C6294 1.334 . S
C6295 C6296 1.287 . S
C6296 C6295 1.287 . S
C6296 C6297 1.524 . S
C6296 H6315 0.913 . S
C6297 H6273 0.950 . S
C6297 C6296 1.524 . S
C6297 C6298 1.415 . S
C6298 H6274 0.950 . S
C6298 C6293 1.363 . S
C6298 C6297 1.415 . S
C6299 H6275 0.951 . S
C6299 C6300 1.366 . S
C6299 C6301 1.388 . S
C6300 C6299 1.366 . S
C6300 C6304 1.385 . S
C6301 H6276 0.951 . S
C6301 C6299 1.388 . S
C6301 C6302 1.366 . S
C6302 C6301 1.366 . S
C6302 C6303 1.414 . S
C6302 C6305 1.499 . S
C6303 H6277 0.950 . S
C6303 C6302 1.414 . S
C6303 C6304 1.374 . S
C6304 H6278 0.950 . S
C6304 C6300 1.385 . S
C6304 C6303 1.374 . S
C6305 C6302 1.499 . S
C6305 C6306 1.373 . S
C6305 C6307 1.389 . S
C6306 H6279 0.950 . S
C6306 C6292 1.377 . S
C6306 C6305 1.373 . S
C6307 C6291 1.377 . S
C6307 C6305 1.389 . S
C6307 C6308 1.524 . S
C6308 C6307 1.524 . S
C6308 C6309 1.397 . S
C6308 C6313 1.363 . S
C6309 H6280 0.950 . S
C6309 C6308 1.397 . S
C6309 C6310 1.334 . S
C6310 H6281 0.950 . S
C6310 C6309 1.334 . S
C6310 C6311 1.287 . S
C6311 C6310 1.287 . S
C6311 C6312 1.524 . S
C6311 H6314 0.999 . S
C6312 H6282 0.950 . S
C6312 C6311 1.524 . S
C6312 C6313 1.415 . S
C6313 H6283 0.950 . S
C6313 C6308 1.363 . S
C6313 C6312 1.415 . S
H6314 C6311 0.999 . S
H6315 C6296 0.913 . S
H6316 C6334 0.951 . S
H6317 C6336 0.951 . S
H6318 C6338 0.950 . S
H6319 C6339 0.950 . S
H6320 C6341 0.950 . S
H6321 C6344 0.950 . S
H6322 C6345 0.950 . S
H6323 C6347 0.950 . S
H6324 C6348 0.950 . S
H6325 C6349 0.951 . S
H6326 C6351 0.951 . S
H6327 C6353 0.950 . S
H6328 C6354 0.950 . S
H6329 C6356 0.950 . S
H6330 C6359 0.950 . S
H6331 C6360 0.950 . S
H6332 C6362 0.950 . S
H6333 C6363 0.950 . S
C6334 H6316 0.951 . S
C6334 C6335 1.366 . S
C6334 C6336 1.388 . S
C6335 C6334 1.366 . S
C6335 C6339 1.385 . S
C6336 H6317 0.951 . S
C6336 C6334 1.388 . S
C6336 C6337 1.366 . S
C6337 C6336 1.366 . S
C6337 C6338 1.414 . S
C6337 C6340 1.499 . S
C6338 H6318 0.950 . S
C6338 C6337 1.414 . S
C6338 C6339 1.374 . S
C6339 H6319 0.950 . S
C6339 C6335 1.385 . S
C6339 C6338 1.374 . S
C6340 C6337 1.499 . S
C6340 C6341 1.373 . S
C6340 C6342 1.389 . S
C6341 H6320 0.950 . S
C6341 C6340 1.373 . S
C6341 C6357 1.377 . S
C6342 C6340 1.389 . S
C6342 C6343 1.524 . S
C6342 C6356 1.377 . S
C6343 C6342 1.524 . S
C6343 C6344 1.397 . S
C6343 C6348 1.363 . S
C6344 H6321 0.950 . S
C6344 C6343 1.397 . S
C6344 C6345 1.334 . S
C6345 H6322 0.950 . S
C6345 C6344 1.334 . S
C6345 C6346 1.287 . S
C6346 C6345 1.287 . S
C6346 C6347 1.524 . S
C6346 H6365 0.913 . S
C6347 H6323 0.950 . S
C6347 C6346 1.524 . S
C6347 C6348 1.415 . S
C6348 H6324 0.950 . S
C6348 C6343 1.363 . S
C6348 C6347 1.415 . S
C6349 H6325 0.951 . S
C6349 C6350 1.366 . S
C6349 C6351 1.388 . S
C6350 C6349 1.366 . S
C6350 C6354 1.385 . S
C6351 H6326 0.951 . S
C6351 C6349 1.388 . S
C6351 C6352 1.366 . S
C6352 C6351 1.366 . S
C6352 C6353 1.414 . S
C6352 C6355 1.499 . S
C6353 H6327 0.950 . S
C6353 C6352 1.414 . S
C6353 C6354 1.374 . S
C6354 H6328 0.950 . S
C6354 C6350 1.385 . S
C6354 C6353 1.374 . S
C6355 C6352 1.499 . S
C6355 C6356 1.373 . S
C6355 C6357 1.389 . S
C6356 H6329 0.950 . S
C6356 C6342 1.377 . S
C6356 C6355 1.373 . S
C6357 C6341 1.377 . S
C6357 C6355 1.389 . S
C6357 C6358 1.524 . S
C6358 C6357 1.524 . S
C6358 C6359 1.397 . S
C6358 C6363 1.363 . S
C6359 H6330 0.950 . S
C6359 C6358 1.397 . S
C6359 C6360 1.334 . S
C6360 H6331 0.950 . S
C6360 C6359 1.334 . S
C6360 C6361 1.287 . S
C6361 C6360 1.287 . S
C6361 C6362 1.524 . S
C6361 H6364 0.999 . S
C6362 H6332 0.950 . S
C6362 C6361 1.524 . S
C6362 C6363 1.415 . S
C6363 H6333 0.950 . S
C6363 C6358 1.363 . S
C6363 C6362 1.415 . S
H6364 C6361 0.999 . S
H6365 C6346 0.913 . S
H6366 C6384 0.951 . S
H6367 C6386 0.951 . S
H6368 C6388 0.950 . S
H6369 C6389 0.950 . S
H6370 C6391 0.950 . S
H6371 C6394 0.950 . S
H6372 C6395 0.950 . S
H6373 C6397 0.950 . S
H6374 C6398 0.950 . S
H6375 C6399 0.951 . S
H6376 C6401 0.951 . S
H6377 C6403 0.950 . S
H6378 C6404 0.950 . S
H6379 C6406 0.950 . S
H6380 C6409 0.950 . S
H6381 C6410 0.950 . S
H6382 C6412 0.950 . S
H6383 C6413 0.950 . S
C6384 H6366 0.951 . S
C6384 C6385 1.366 . S
C6384 C6386 1.388 . S
C6385 C6384 1.366 . S
C6385 C6389 1.385 . S
C6386 H6367 0.951 . S
C6386 C6384 1.388 . S
C6386 C6387 1.366 . S
C6387 C6386 1.366 . S
C6387 C6388 1.414 . S
C6387 C6390 1.499 . S
C6388 H6368 0.950 . S
C6388 C6387 1.414 . S
C6388 C6389 1.374 . S
C6389 H6369 0.950 . S
C6389 C6385 1.385 . S
C6389 C6388 1.374 . S
C6390 C6387 1.499 . S
C6390 C6391 1.373 . S
C6390 C6392 1.389 . S
C6391 H6370 0.950 . S
C6391 C6390 1.373 . S
C6391 C6407 1.377 . S
C6392 C6390 1.389 . S
C6392 C6393 1.524 . S
C6392 C6406 1.377 . S
C6393 C6392 1.524 . S
C6393 C6394 1.397 . S
C6393 C6398 1.363 . S
C6394 H6371 0.950 . S
C6394 C6393 1.397 . S
C6394 C6395 1.334 . S
C6395 H6372 0.950 . S
C6395 C6394 1.334 . S
C6395 C6396 1.287 . S
C6396 C6395 1.287 . S
C6396 C6397 1.524 . S
C6396 H6415 0.913 . S
C6397 H6373 0.950 . S
C6397 C6396 1.524 . S
C6397 C6398 1.415 . S
C6398 H6374 0.950 . S
C6398 C6393 1.363 . S
C6398 C6397 1.415 . S
C6399 H6375 0.951 . S
C6399 C6400 1.366 . S
C6399 C6401 1.388 . S
C6400 C6399 1.366 . S
C6400 C6404 1.385 . S
C6401 H6376 0.951 . S
C6401 C6399 1.388 . S
C6401 C6402 1.366 . S
C6402 C6401 1.366 . S
C6402 C6403 1.414 . S
C6402 C6405 1.499 . S
C6403 H6377 0.950 . S
C6403 C6402 1.414 . S
C6403 C6404 1.374 . S
C6404 H6378 0.950 . S
C6404 C6400 1.385 . S
C6404 C6403 1.374 . S
C6405 C6402 1.499 . S
C6405 C6406 1.373 . S
C6405 C6407 1.389 . S
C6406 H6379 0.950 . S
C6406 C6392 1.377 . S
C6406 C6405 1.373 . S
C6407 C6391 1.377 . S
C6407 C6405 1.389 . S
C6407 C6408 1.524 . S
C6408 C6407 1.524 . S
C6408 C6409 1.397 . S
C6408 C6413 1.363 . S
C6409 H6380 0.950 . S
C6409 C6408 1.397 . S
C6409 C6410 1.334 . S
C6410 H6381 0.950 . S
C6410 C6409 1.334 . S
C6410 C6411 1.287 . S
C6411 C6410 1.287 . S
C6411 C6412 1.524 . S
C6411 H6414 0.999 . S
C6412 H6382 0.950 . S
C6412 C6411 1.524 . S
C6412 C6413 1.415 . S
C6413 H6383 0.950 . S
C6413 C6408 1.363 . S
C6413 C6412 1.415 . S
H6414 C6411 0.999 . S
H6415 C6396 0.913 . S
H6416 C6434 0.951 . S
H6417 C6436 0.951 . S
H6418 C6438 0.950 . S
H6419 C6439 0.950 . S
H6420 C6441 0.950 . S
H6421 C6444 0.950 . S
H6422 C6445 0.950 . S
H6423 C6447 0.950 . S
H6424 C6448 0.950 . S
H6425 C6449 0.951 . S
H6426 C6451 0.951 . S
H6427 C6453 0.950 . S
H6428 C6454 0.950 . S
H6429 C6456 0.950 . S
H6430 C6459 0.950 . S
H6431 C6460 0.950 . S
H6432 C6462 0.950 . S
H6433 C6463 0.950 . S
C6434 H6416 0.951 . S
C6434 C6435 1.366 . S
C6434 C6436 1.388 . S
C6435 C6434 1.366 . S
C6435 C6439 1.385 . S
C6436 H6417 0.951 . S
C6436 C6434 1.388 . S
C6436 C6437 1.366 . S
C6437 C6436 1.366 . S
C6437 C6438 1.414 . S
C6437 C6440 1.499 . S
C6438 H6418 0.950 . S
C6438 C6437 1.414 . S
C6438 C6439 1.374 . S
C6439 H6419 0.950 . S
C6439 C6435 1.385 . S
C6439 C6438 1.374 . S
C6440 C6437 1.499 . S
C6440 C6441 1.373 . S
C6440 C6442 1.389 . S
C6441 H6420 0.950 . S
C6441 C6440 1.373 . S
C6441 C6457 1.377 . S
C6442 C6440 1.389 . S
C6442 C6443 1.524 . S
C6442 C6456 1.377 . S
C6443 C6442 1.524 . S
C6443 C6444 1.397 . S
C6443 C6448 1.363 . S
C6444 H6421 0.950 . S
C6444 C6443 1.397 . S
C6444 C6445 1.334 . S
C6445 H6422 0.950 . S
C6445 C6444 1.334 . S
C6445 C6446 1.287 . S
C6446 C6445 1.287 . S
C6446 C6447 1.524 . S
C6446 H6465 0.913 . S
C6447 H6423 0.950 . S
C6447 C6446 1.524 . S
C6447 C6448 1.415 . S
C6448 H6424 0.950 . S
C6448 C6443 1.363 . S
C6448 C6447 1.415 . S
C6449 H6425 0.951 . S
C6449 C6450 1.366 . S
C6449 C6451 1.388 . S
C6450 C6449 1.366 . S
C6450 C6454 1.385 . S
C6451 H6426 0.951 . S
C6451 C6449 1.388 . S
C6451 C6452 1.366 . S
C6452 C6451 1.366 . S
C6452 C6453 1.414 . S
C6452 C6455 1.499 . S
C6453 H6427 0.950 . S
C6453 C6452 1.414 . S
C6453 C6454 1.374 . S
C6454 H6428 0.950 . S
C6454 C6450 1.385 . S
C6454 C6453 1.374 . S
C6455 C6452 1.499 . S
C6455 C6456 1.373 . S
C6455 C6457 1.389 . S
C6456 H6429 0.950 . S
C6456 C6442 1.377 . S
C6456 C6455 1.373 . S
C6457 C6441 1.377 . S
C6457 C6455 1.389 . S
C6457 C6458 1.524 . S
C6458 C6457 1.524 . S
C6458 C6459 1.397 . S
C6458 C6463 1.363 . S
C6459 H6430 0.950 . S
C6459 C6458 1.397 . S
C6459 C6460 1.334 . S
C6460 H6431 0.950 . S
C6460 C6459 1.334 . S
C6460 C6461 1.287 . S
C6461 C6460 1.287 . S
C6461 C6462 1.524 . S
C6461 H6464 0.999 . S
C6462 H6432 0.950 . S
C6462 C6461 1.524 . S
C6462 C6463 1.415 . S
C6463 H6433 0.950 . S
C6463 C6458 1.363 . S
C6463 C6462 1.415 . S
H6464 C6461 0.999 . S
H6465 C6446 0.913 . S
H6466 C6484 0.951 . S
H6467 C6486 0.951 . S
H6468 C6488 0.950 . S
H6469 C6489 0.950 . S
H6470 C6491 0.950 . S
H6471 C6494 0.950 . S
H6472 C6495 0.950 . S
H6473 C6497 0.950 . S
H6474 C6498 0.950 . S
H6475 C6499 0.951 . S
H6476 C6501 0.951 . S
H6477 C6503 0.950 . S
H6478 C6504 0.950 . S
H6479 C6506 0.950 . S
H6480 C6509 0.950 . S
H6481 C6510 0.950 . S
H6482 C6512 0.950 . S
H6483 C6513 0.950 . S
C6484 H6466 0.951 . S
C6484 C6485 1.366 . S
C6484 C6486 1.388 . S
C6485 C6484 1.366 . S
C6485 C6489 1.385 . S
C6486 H6467 0.951 . S
C6486 C6484 1.388 . S
C6486 C6487 1.366 . S
C6487 C6486 1.366 . S
C6487 C6488 1.414 . S
C6487 C6490 1.499 . S
C6488 H6468 0.950 . S
C6488 C6487 1.414 . S
C6488 C6489 1.374 . S
C6489 H6469 0.950 . S
C6489 C6485 1.385 . S
C6489 C6488 1.374 . S
C6490 C6487 1.499 . S
C6490 C6491 1.373 . S
C6490 C6492 1.389 . S
C6491 H6470 0.950 . S
C6491 C6490 1.373 . S
C6491 C6507 1.377 . S
C6492 C6490 1.389 . S
C6492 C6493 1.524 . S
C6492 C6506 1.377 . S
C6493 C6492 1.524 . S
C6493 C6494 1.397 . S
C6493 C6498 1.363 . S
C6494 H6471 0.950 . S
C6494 C6493 1.397 . S
C6494 C6495 1.334 . S
C6495 H6472 0.950 . S
C6495 C6494 1.334 . S
C6495 C6496 1.287 . S
C6496 C6495 1.287 . S
C6496 C6497 1.524 . S
C6496 H6515 0.913 . S
C6497 H6473 0.950 . S
C6497 C6496 1.524 . S
C6497 C6498 1.415 . S
C6498 H6474 0.950 . S
C6498 C6493 1.363 . S
C6498 C6497 1.415 . S
C6499 H6475 0.951 . S
C6499 C6500 1.366 . S
C6499 C6501 1.388 . S
C6500 C6499 1.366 . S
C6500 C6504 1.385 . S
C6501 H6476 0.951 . S
C6501 C6499 1.388 . S
C6501 C6502 1.366 . S
C6502 C6501 1.366 . S
C6502 C6503 1.414 . S
C6502 C6505 1.499 . S
C6503 H6477 0.950 . S
C6503 C6502 1.414 . S
C6503 C6504 1.374 . S
C6504 H6478 0.950 . S
C6504 C6500 1.385 . S
C6504 C6503 1.374 . S
C6505 C6502 1.499 . S
C6505 C6506 1.373 . S
C6505 C6507 1.389 . S
C6506 H6479 0.950 . S
C6506 C6492 1.377 . S
C6506 C6505 1.373 . S
C6507 C6491 1.377 . S
C6507 C6505 1.389 . S
C6507 C6508 1.524 . S
C6508 C6507 1.524 . S
C6508 C6509 1.397 . S
C6508 C6513 1.363 . S
C6509 H6480 0.950 . S
C6509 C6508 1.397 . S
C6509 C6510 1.334 . S
C6510 H6481 0.950 . S
C6510 C6509 1.334 . S
C6510 C6511 1.287 . S
C6511 C6510 1.287 . S
C6511 C6512 1.524 . S
C6511 H6514 0.999 . S
C6512 H6482 0.950 . S
C6512 C6511 1.524 . S
C6512 C6513 1.415 . S
C6513 H6483 0.950 . S
C6513 C6508 1.363 . S
C6513 C6512 1.415 . S
H6514 C6511 0.999 . S
H6515 C6496 0.913 . S
H6516 C6534 0.951 . S
H6517 C6536 0.951 . S
H6518 C6538 0.950 . S
H6519 C6539 0.950 . S
H6520 C6541 0.950 . S
H6521 C6544 0.950 . S
H6522 C6545 0.950 . S
H6523 C6547 0.950 . S
H6524 C6548 0.950 . S
H6525 C6549 0.951 . S
H6526 C6551 0.951 . S
H6527 C6553 0.950 . S
H6528 C6554 0.950 . S
H6529 C6556 0.950 . S
H6530 C6559 0.950 . S
H6531 C6560 0.950 . S
H6532 C6562 0.950 . S
H6533 C6563 0.950 . S
C6534 H6516 0.951 . S
C6534 C6535 1.366 . S
C6534 C6536 1.388 . S
C6535 C6534 1.366 . S
C6535 C6539 1.385 . S
C6536 H6517 0.951 . S
C6536 C6534 1.388 . S
C6536 C6537 1.366 . S
C6537 C6536 1.366 . S
C6537 C6538 1.414 . S
C6537 C6540 1.499 . S
C6538 H6518 0.950 . S
C6538 C6537 1.414 . S
C6538 C6539 1.374 . S
C6539 H6519 0.950 . S
C6539 C6535 1.385 . S
C6539 C6538 1.374 . S
C6540 C6537 1.499 . S
C6540 C6541 1.373 . S
C6540 C6542 1.389 . S
C6541 H6520 0.950 . S
C6541 C6540 1.373 . S
C6541 C6557 1.377 . S
C6542 C6540 1.389 . S
C6542 C6543 1.524 . S
C6542 C6556 1.377 . S
C6543 C6542 1.524 . S
C6543 C6544 1.397 . S
C6543 C6548 1.363 . S
C6544 H6521 0.950 . S
C6544 C6543 1.397 . S
C6544 C6545 1.334 . S
C6545 H6522 0.950 . S
C6545 C6544 1.334 . S
C6545 C6546 1.287 . S
C6546 C6545 1.287 . S
C6546 C6547 1.524 . S
C6546 H6565 0.913 . S
C6547 H6523 0.950 . S
C6547 C6546 1.524 . S
C6547 C6548 1.415 . S
C6548 H6524 0.950 . S
C6548 C6543 1.363 . S
C6548 C6547 1.415 . S
C6549 H6525 0.951 . S
C6549 C6550 1.366 . S
C6549 C6551 1.388 . S
C6550 C6549 1.366 . S
C6550 C6554 1.385 . S
C6551 H6526 0.951 . S
C6551 C6549 1.388 . S
C6551 C6552 1.366 . S
C6552 C6551 1.366 . S
C6552 C6553 1.414 . S
C6552 C6555 1.499 . S
C6553 H6527 0.950 . S
C6553 C6552 1.414 . S
C6553 C6554 1.374 . S
C6554 H6528 0.950 . S
C6554 C6550 1.385 . S
C6554 C6553 1.374 . S
C6555 C6552 1.499 . S
C6555 C6556 1.373 . S
C6555 C6557 1.389 . S
C6556 H6529 0.950 . S
C6556 C6542 1.377 . S
C6556 C6555 1.373 . S
C6557 C6541 1.377 . S
C6557 C6555 1.389 . S
C6557 C6558 1.524 . S
C6558 C6557 1.524 . S
C6558 C6559 1.397 . S
C6558 C6563 1.363 . S
C6559 H6530 0.950 . S
C6559 C6558 1.397 . S
C6559 C6560 1.334 . S
C6560 H6531 0.950 . S
C6560 C6559 1.334 . S
C6560 C6561 1.287 . S
C6561 C6560 1.287 . S
C6561 C6562 1.524 . S
C6561 H6564 0.999 . S
C6562 H6532 0.950 . S
C6562 C6561 1.524 . S
C6562 C6563 1.415 . S
C6563 H6533 0.950 . S
C6563 C6558 1.363 . S
C6563 C6562 1.415 . S
H6564 C6561 0.999 . S
H6565 C6546 0.913 . S
H6566 C6584 0.951 . S
H6567 C6586 0.951 . S
H6568 C6588 0.950 . S
H6569 C6589 0.950 . S
H6570 C6591 0.950 . S
H6571 C6594 0.950 . S
H6572 C6595 0.950 . S
H6573 C6597 0.950 . S
H6574 C6598 0.950 . S
H6575 C6599 0.951 . S
H6576 C6601 0.951 . S
H6577 C6603 0.950 . S
H6578 C6604 0.950 . S
H6579 C6606 0.950 . S
H6580 C6609 0.950 . S
H6581 C6610 0.950 . S
H6582 C6612 0.950 . S
H6583 C6613 0.950 . S
C6584 H6566 0.951 . S
C6584 C6585 1.366 . S
C6584 C6586 1.388 . S
C6585 C6584 1.366 . S
C6585 C6589 1.385 . S
C6586 H6567 0.951 . S
C6586 C6584 1.388 . S
C6586 C6587 1.366 . S
C6587 C6586 1.366 . S
C6587 C6588 1.414 . S
C6587 C6590 1.499 . S
C6588 H6568 0.950 . S
C6588 C6587 1.414 . S
C6588 C6589 1.374 . S
C6589 H6569 0.950 . S
C6589 C6585 1.385 . S
C6589 C6588 1.374 . S
C6590 C6587 1.499 . S
C6590 C6591 1.373 . S
C6590 C6592 1.389 . S
C6591 H6570 0.950 . S
C6591 C6590 1.373 . S
C6591 C6607 1.377 . S
C6592 C6590 1.389 . S
C6592 C6593 1.524 . S
C6592 C6606 1.377 . S
C6593 C6592 1.524 . S
C6593 C6594 1.397 . S
C6593 C6598 1.363 . S
C6594 H6571 0.950 . S
C6594 C6593 1.397 . S
C6594 C6595 1.334 . S
C6595 H6572 0.950 . S
C6595 C6594 1.334 . S
C6595 C6596 1.287 . S
C6596 C6595 1.287 . S
C6596 C6597 1.524 . S
C6596 H6615 0.913 . S
C6597 H6573 0.950 . S
C6597 C6596 1.524 . S
C6597 C6598 1.415 . S
C6598 H6574 0.950 . S
C6598 C6593 1.363 . S
C6598 C6597 1.415 . S
C6599 H6575 0.951 . S
C6599 C6600 1.366 . S
C6599 C6601 1.388 . S
C6600 C6599 1.366 . S
C6600 C6604 1.385 . S
C6601 H6576 0.951 . S
C6601 C6599 1.388 . S
C6601 C6602 1.366 . S
C6602 C6601 1.366 . S
C6602 C6603 1.414 . S
C6602 C6605 1.499 . S
C6603 H6577 0.950 . S
C6603 C6602 1.414 . S
C6603 C6604 1.374 . S
C6604 H6578 0.950 . S
C6604 C6600 1.385 . S
C6604 C6603 1.374 . S
C6605 C6602 1.499 . S
C6605 C6606 1.373 . S
C6605 C6607 1.389 . S
C6606 H6579 0.950 . S
C6606 C6592 1.377 . S
C6606 C6605 1.373 . S
C6607 C6591 1.377 . S
C6607 C6605 1.389 . S
C6607 C6608 1.524 . S
C6608 C6607 1.524 . S
C6608 C6609 1.397 . S
C6608 C6613 1.363 . S
C6609 H6580 0.950 . S
C6609 C6608 1.397 . S
C6609 C6610 1.334 . S
C6610 H6581 0.950 . S
C6610 C6609 1.334 . S
C6610 C6611 1.287 . S
C6611 C6610 1.287 . S
C6611 C6612 1.524 . S
C6611 H6614 0.999 . S
C6612 H6582 0.950 . S
C6612 C6611 1.524 . S
C6612 C6613 1.415 . S
C6613 H6583 0.950 . S
C6613 C6608 1.363 . S
C6613 C6612 1.415 . S
H6614 C6611 0.999 . S
H6615 C6596 0.913 . S
H6616 C6634 0.951 . S
H6617 C6636 0.951 . S
H6618 C6638 0.950 . S
H6619 C6639 0.950 . S
H6620 C6641 0.950 . S
H6621 C6644 0.950 . S
H6622 C6645 0.950 . S
H6623 C6647 0.950 . S
H6624 C6648 0.950 . S
H6625 C6649 0.951 . S
H6626 C6651 0.951 . S
H6627 C6653 0.950 . S
H6628 C6654 0.950 . S
H6629 C6656 0.950 . S
H6630 C6659 0.950 . S
H6631 C6660 0.950 . S
H6632 C6662 0.950 . S
H6633 C6663 0.950 . S
C6634 H6616 0.951 . S
C6634 C6635 1.366 . S
C6634 C6636 1.388 . S
C6635 C6634 1.366 . S
C6635 C6639 1.385 . S
C6636 H6617 0.951 . S
C6636 C6634 1.388 . S
C6636 C6637 1.366 . S
C6637 C6636 1.366 . S
C6637 C6638 1.414 . S
C6637 C6640 1.499 . S
C6638 H6618 0.950 . S
C6638 C6637 1.414 . S
C6638 C6639 1.374 . S
C6639 H6619 0.950 . S
C6639 C6635 1.385 . S
C6639 C6638 1.374 . S
C6640 C6637 1.499 . S
C6640 C6641 1.373 . S
C6640 C6642 1.389 . S
C6641 H6620 0.950 . S
C6641 C6640 1.373 . S
C6641 C6657 1.377 . S
C6642 C6640 1.389 . S
C6642 C6643 1.524 . S
C6642 C6656 1.377 . S
C6643 C6642 1.524 . S
C6643 C6644 1.397 . S
C6643 C6648 1.363 . S
C6644 H6621 0.950 . S
C6644 C6643 1.397 . S
C6644 C6645 1.334 . S
C6645 H6622 0.950 . S
C6645 C6644 1.334 . S
C6645 C6646 1.287 . S
C6646 C6645 1.287 . S
C6646 C6647 1.524 . S
C6646 H6665 0.913 . S
C6647 H6623 0.950 . S
C6647 C6646 1.524 . S
C6647 C6648 1.415 . S
C6648 H6624 0.950 . S
C6648 C6643 1.363 . S
C6648 C6647 1.415 . S
C6649 H6625 0.951 . S
C6649 C6650 1.366 . S
C6649 C6651 1.388 . S
C6650 C6649 1.366 . S
C6650 C6654 1.385 . S
C6651 H6626 0.951 . S
C6651 C6649 1.388 . S
C6651 C6652 1.366 . S
C6652 C6651 1.366 . S
C6652 C6653 1.414 . S
C6652 C6655 1.499 . S
C6653 H6627 0.950 . S
C6653 C6652 1.414 . S
C6653 C6654 1.374 . S
C6654 H6628 0.950 . S
C6654 C6650 1.385 . S
C6654 C6653 1.374 . S
C6655 C6652 1.499 . S
C6655 C6656 1.373 . S
C6655 C6657 1.389 . S
C6656 H6629 0.950 . S
C6656 C6642 1.377 . S
C6656 C6655 1.373 . S
C6657 C6641 1.377 . S
C6657 C6655 1.389 . S
C6657 C6658 1.524 . S
C6658 C6657 1.524 . S
C6658 C6659 1.397 . S
C6658 C6663 1.363 . S
C6659 H6630 0.950 . S
C6659 C6658 1.397 . S
C6659 C6660 1.334 . S
C6660 H6631 0.950 . S
C6660 C6659 1.334 . S
C6660 C6661 1.287 . S
C6661 C6660 1.287 . S
C6661 C6662 1.524 . S
C6661 H6664 0.999 . S
C6662 H6632 0.950 . S
C6662 C6661 1.524 . S
C6662 C6663 1.415 . S
C6663 H6633 0.950 . S
C6663 C6658 1.363 . S
C6663 C6662 1.415 . S
H6664 C6661 0.999 . S
H6665 C6646 0.913 . S
H6666 C6684 0.951 . S
H6667 C6686 0.951 . S
H6668 C6688 0.950 . S
H6669 C6689 0.950 . S
H6670 C6691 0.950 . S
H6671 C6694 0.950 . S
H6672 C6695 0.950 . S
H6673 C6697 0.950 . S
H6674 C6698 0.950 . S
H6675 C6699 0.951 . S
H6676 C6701 0.951 . S
H6677 C6703 0.950 . S
H6678 C6704 0.950 . S
H6679 C6706 0.950 . S
H6680 C6709 0.950 . S
H6681 C6710 0.950 . S
H6682 C6712 0.950 . S
H6683 C6713 0.950 . S
C6684 H6666 0.951 . S
C6684 C6685 1.366 . S
C6684 C6686 1.388 . S
C6685 C6684 1.366 . S
C6685 C6689 1.385 . S
C6686 H6667 0.951 . S
C6686 C6684 1.388 . S
C6686 C6687 1.366 . S
C6687 C6686 1.366 . S
C6687 C6688 1.414 . S
C6687 C6690 1.499 . S
C6688 H6668 0.950 . S
C6688 C6687 1.414 . S
C6688 C6689 1.374 . S
C6689 H6669 0.950 . S
C6689 C6685 1.385 . S
C6689 C6688 1.374 . S
C6690 C6687 1.499 . S
C6690 C6691 1.373 . S
C6690 C6692 1.389 . S
C6691 H6670 0.950 . S
C6691 C6690 1.373 . S
C6691 C6707 1.377 . S
C6692 C6690 1.389 . S
C6692 C6693 1.524 . S
C6692 C6706 1.377 . S
C6693 C6692 1.524 . S
C6693 C6694 1.397 . S
C6693 C6698 1.363 . S
C6694 H6671 0.950 . S
C6694 C6693 1.397 . S
C6694 C6695 1.334 . S
C6695 H6672 0.950 . S
C6695 C6694 1.334 . S
C6695 C6696 1.287 . S
C6696 C6695 1.287 . S
C6696 C6697 1.524 . S
C6696 H6715 0.913 . S
C6697 H6673 0.950 . S
C6697 C6696 1.524 . S
C6697 C6698 1.415 . S
C6698 H6674 0.950 . S
C6698 C6693 1.363 . S
C6698 C6697 1.415 . S
C6699 H6675 0.951 . S
C6699 C6700 1.366 . S
C6699 C6701 1.388 . S
C6700 C6699 1.366 . S
C6700 C6704 1.385 . S
C6701 H6676 0.951 . S
C6701 C6699 1.388 . S
C6701 C6702 1.366 . S
C6702 C6701 1.366 . S
C6702 C6703 1.414 . S
C6702 C6705 1.499 . S
C6703 H6677 0.950 . S
C6703 C6702 1.414 . S
C6703 C6704 1.374 . S
C6704 H6678 0.950 . S
C6704 C6700 1.385 . S
C6704 C6703 1.374 . S
C6705 C6702 1.499 . S
C6705 C6706 1.373 . S
C6705 C6707 1.389 . S
C6706 H6679 0.950 . S
C6706 C6692 1.377 . S
C6706 C6705 1.373 . S
C6707 C6691 1.377 . S
C6707 C6705 1.389 . S
C6707 C6708 1.524 . S
C6708 C6707 1.524 . S
C6708 C6709 1.397 . S
C6708 C6713 1.363 . S
C6709 H6680 0.950 . S
C6709 C6708 1.397 . S
C6709 C6710 1.334 . S
C6710 H6681 0.950 . S
C6710 C6709 1.334 . S
C6710 C6711 1.287 . S
C6711 C6710 1.287 . S
C6711 C6712 1.524 . S
C6711 H6714 0.999 . S
C6712 H6682 0.950 . S
C6712 C6711 1.524 . S
C6712 C6713 1.415 . S
C6713 H6683 0.950 . S
C6713 C6708 1.363 . S
C6713 C6712 1.415 . S
H6714 C6711 0.999 . S
H6715 C6696 0.913 . S
H6716 C6734 0.951 . S
H6717 C6736 0.951 . S
H6718 C6738 0.950 . S
H6719 C6739 0.950 . S
H6720 C6741 0.950 . S
H6721 C6744 0.950 . S
H6722 C6745 0.950 . S
H6723 C6747 0.950 . S
H6724 C6748 0.950 . S
H6725 C6749 0.951 . S
H6726 C6751 0.951 . S
H6727 C6753 0.950 . S
H6728 C6754 0.950 . S
H6729 C6756 0.950 . S
H6730 C6759 0.950 . S
H6731 C6760 0.950 . S
H6732 C6762 0.950 . S
H6733 C6763 0.950 . S
C6734 H6716 0.951 . S
C6734 C6735 1.366 . S
C6734 C6736 1.388 . S
C6735 C6734 1.366 . S
C6735 C6739 1.385 . S
C6736 H6717 0.951 . S
C6736 C6734 1.388 . S
C6736 C6737 1.366 . S
C6737 C6736 1.366 . S
C6737 C6738 1.414 . S
C6737 C6740 1.499 . S
C6738 H6718 0.950 . S
C6738 C6737 1.414 . S
C6738 C6739 1.374 . S
C6739 H6719 0.950 . S
C6739 C6735 1.385 . S
C6739 C6738 1.374 . S
C6740 C6737 1.499 . S
C6740 C6741 1.373 . S
C6740 C6742 1.389 . S
C6741 H6720 0.950 . S
C6741 C6740 1.373 . S
C6741 C6757 1.377 . S
C6742 C6740 1.389 . S
C6742 C6743 1.524 . S
C6742 C6756 1.377 . S
C6743 C6742 1.524 . S
C6743 C6744 1.397 . S
C6743 C6748 1.363 . S
C6744 H6721 0.950 . S
C6744 C6743 1.397 . S
C6744 C6745 1.334 . S
C6745 H6722 0.950 . S
C6745 C6744 1.334 . S
C6745 C6746 1.287 . S
C6746 C6745 1.287 . S
C6746 C6747 1.524 . S
C6746 H6765 0.913 . S
C6747 H6723 0.950 . S
C6747 C6746 1.524 . S
C6747 C6748 1.415 . S
C6748 H6724 0.950 . S
C6748 C6743 1.363 . S
C6748 C6747 1.415 . S
C6749 H6725 0.951 . S
C6749 C6750 1.366 . S
C6749 C6751 1.388 . S
C6750 C6749 1.366 . S
C6750 C6754 1.385 . S
C6751 H6726 0.951 . S
C6751 C6749 1.388 . S
C6751 C6752 1.366 . S
C6752 C6751 1.366 . S
C6752 C6753 1.414 . S
C6752 C6755 1.499 . S
C6753 H6727 0.950 . S
C6753 C6752 1.414 . S
C6753 C6754 1.374 . S
C6754 H6728 0.950 . S
C6754 C6750 1.385 . S
C6754 C6753 1.374 . S
C6755 C6752 1.499 . S
C6755 C6756 1.373 . S
C6755 C6757 1.389 . S
C6756 H6729 0.950 . S
C6756 C6742 1.377 . S
C6756 C6755 1.373 . S
C6757 C6741 1.377 . S
C6757 C6755 1.389 . S
C6757 C6758 1.524 . S
C6758 C6757 1.524 . S
C6758 C6759 1.397 . S
C6758 C6763 1.363 . S
C6759 H6730 0.950 . S
C6759 C6758 1.397 . S
C6759 C6760 1.334 . S
C6760 H6731 0.950 . S
C6760 C6759 1.334 . S
C6760 C6761 1.287 . S
C6761 C6760 1.287 . S
C6761 C6762 1.524 . S
C6761 H6764 0.999 . S
C6762 H6732 0.950 . S
C6762 C6761 1.524 . S
C6762 C6763 1.415 . S
C6763 H6733 0.950 . S
C6763 C6758 1.363 . S
C6763 C6762 1.415 . S
H6764 C6761 0.999 . S
H6765 C6746 0.913 . S
H6766 C6784 0.951 . S
H6767 C6786 0.951 . S
H6768 C6788 0.950 . S
H6769 C6789 0.950 . S
H6770 C6791 0.950 . S
H6771 C6794 0.950 . S
H6772 C6795 0.950 . S
H6773 C6797 0.950 . S
H6774 C6798 0.950 . S
H6775 C6799 0.951 . S
H6776 C6801 0.951 . S
H6777 C6803 0.950 . S
H6778 C6804 0.950 . S
H6779 C6806 0.950 . S
H6780 C6809 0.950 . S
H6781 C6810 0.950 . S
H6782 C6812 0.950 . S
H6783 C6813 0.950 . S
C6784 H6766 0.951 . S
C6784 C6785 1.366 . S
C6784 C6786 1.388 . S
C6785 C6784 1.366 . S
C6785 C6789 1.385 . S
C6786 H6767 0.951 . S
C6786 C6784 1.388 . S
C6786 C6787 1.366 . S
C6787 C6786 1.366 . S
C6787 C6788 1.414 . S
C6787 C6790 1.499 . S
C6788 H6768 0.950 . S
C6788 C6787 1.414 . S
C6788 C6789 1.374 . S
C6789 H6769 0.950 . S
C6789 C6785 1.385 . S
C6789 C6788 1.374 . S
C6790 C6787 1.499 . S
C6790 C6791 1.373 . S
C6790 C6792 1.389 . S
C6791 H6770 0.950 . S
C6791 C6790 1.373 . S
C6791 C6807 1.377 . S
C6792 C6790 1.389 . S
C6792 C6793 1.524 . S
C6792 C6806 1.377 . S
C6793 C6792 1.524 . S
C6793 C6794 1.397 . S
C6793 C6798 1.363 . S
C6794 H6771 0.950 . S
C6794 C6793 1.397 . S
C6794 C6795 1.334 . S
C6795 H6772 0.950 . S
C6795 C6794 1.334 . S
C6795 C6796 1.287 . S
C6796 C6795 1.287 . S
C6796 C6797 1.524 . S
C6796 H6815 0.913 . S
C6797 H6773 0.950 . S
C6797 C6796 1.524 . S
C6797 C6798 1.415 . S
C6798 H6774 0.950 . S
C6798 C6793 1.363 . S
C6798 C6797 1.415 . S
C6799 H6775 0.951 . S
C6799 C6800 1.366 . S
C6799 C6801 1.388 . S
C6800 C6799 1.366 . S
C6800 C6804 1.385 . S
C6801 H6776 0.951 . S
C6801 C6799 1.388 . S
C6801 C6802 1.366 . S
C6802 C6801 1.366 . S
C6802 C6803 1.414 . S
C6802 C6805 1.499 . S
C6803 H6777 0.950 . S
C6803 C6802 1.414 . S
C6803 C6804 1.374 . S
C6804 H6778 0.950 . S
C6804 C6800 1.385 . S
C6804 C6803 1.374 . S
C6805 C6802 1.499 . S
C6805 C6806 1.373 . S
C6805 C6807 1.389 . S
C6806 H6779 0.950 . S
C6806 C6792 1.377 . S
C6806 C6805 1.373 . S
C6807 C6791 1.377 . S
C6807 C6805 1.389 . S
C6807 C6808 1.524 . S
C6808 C6807 1.524 . S
C6808 C6809 1.397 . S
C6808 C6813 1.363 . S
C6809 H6780 0.950 . S
C6809 C6808 1.397 . S
C6809 C6810 1.334 . S
C6810 H6781 0.950 . S
C6810 C6809 1.334 . S
C6810 C6811 1.287 . S
C6811 C6810 1.287 . S
C6811 C6812 1.524 . S
C6811 H6814 0.999 . S
C6812 H6782 0.950 . S
C6812 C6811 1.524 . S
C6812 C6813 1.415 . S
C6813 H6783 0.950 . S
C6813 C6808 1.363 . S
C6813 C6812 1.415 . S
H6814 C6811 0.999 . S
H6815 C6796 0.913 . S
H6816 C6834 0.951 . S
H6817 C6836 0.951 . S
H6818 C6838 0.950 . S
H6819 C6839 0.950 . S
H6820 C6841 0.950 . S
H6821 C6844 0.950 . S
H6822 C6845 0.950 . S
H6823 C6847 0.950 . S
H6824 C6848 0.950 . S
H6825 C6849 0.951 . S
H6826 C6851 0.951 . S
H6827 C6853 0.950 . S
H6828 C6854 0.950 . S
H6829 C6856 0.950 . S
H6830 C6859 0.950 . S
H6831 C6860 0.950 . S
H6832 C6862 0.950 . S
H6833 C6863 0.950 . S
C6834 H6816 0.951 . S
C6834 C6835 1.366 . S
C6834 C6836 1.388 . S
C6835 C6834 1.366 . S
C6835 C6839 1.385 . S
C6836 H6817 0.951 . S
C6836 C6834 1.388 . S
C6836 C6837 1.366 . S
C6837 C6836 1.366 . S
C6837 C6838 1.414 . S
C6837 C6840 1.499 . S
C6838 H6818 0.950 . S
C6838 C6837 1.414 . S
C6838 C6839 1.374 . S
C6839 H6819 0.950 . S
C6839 C6835 1.385 . S
C6839 C6838 1.374 . S
C6840 C6837 1.499 . S
C6840 C6841 1.373 . S
C6840 C6842 1.389 . S
C6841 H6820 0.950 . S
C6841 C6840 1.373 . S
C6841 C6857 1.377 . S
C6842 C6840 1.389 . S
C6842 C6843 1.524 . S
C6842 C6856 1.377 . S
C6843 C6842 1.524 . S
C6843 C6844 1.397 . S
C6843 C6848 1.363 . S
C6844 H6821 0.950 . S
C6844 C6843 1.397 . S
C6844 C6845 1.334 . S
C6845 H6822 0.950 . S
C6845 C6844 1.334 . S
C6845 C6846 1.287 . S
C6846 C6845 1.287 . S
C6846 C6847 1.524 . S
C6846 H6865 0.913 . S
C6847 H6823 0.950 . S
C6847 C6846 1.524 . S
C6847 C6848 1.415 . S
C6848 H6824 0.950 . S
C6848 C6843 1.363 . S
C6848 C6847 1.415 . S
C6849 H6825 0.951 . S
C6849 C6850 1.366 . S
C6849 C6851 1.388 . S
C6850 C6849 1.366 . S
C6850 C6854 1.385 . S
C6851 H6826 0.951 . S
C6851 C6849 1.388 . S
C6851 C6852 1.366 . S
C6852 C6851 1.366 . S
C6852 C6853 1.414 . S
C6852 C6855 1.499 . S
C6853 H6827 0.950 . S
C6853 C6852 1.414 . S
C6853 C6854 1.374 . S
C6854 H6828 0.950 . S
C6854 C6850 1.385 . S
C6854 C6853 1.374 . S
C6855 C6852 1.499 . S
C6855 C6856 1.373 . S
C6855 C6857 1.389 . S
C6856 H6829 0.950 . S
C6856 C6842 1.377 . S
C6856 C6855 1.373 . S
C6857 C6841 1.377 . S
C6857 C6855 1.389 . S
C6857 C6858 1.524 . S
C6858 C6857 1.524 . S
C6858 C6859 1.397 . S
C6858 C6863 1.363 . S
C6859 H6830 0.950 . S
C6859 C6858 1.397 . S
C6859 C6860 1.334 . S
C6860 H6831 0.950 . S
C6860 C6859 1.334 . S
C6860 C6861 1.287 . S
C6861 C6860 1.287 . S
C6861 C6862 1.524 . S
C6861 H6864 0.999 . S
C6862 H6832 0.950 . S
C6862 C6861 1.524 . S
C6862 C6863 1.415 . S
C6863 H6833 0.950 . S
C6863 C6858 1.363 . S
C6863 C6862 1.415 . S
H6864 C6861 0.999 . S
H6865 C6846 0.913 . S
H6866 C6884 0.951 . S
H6867 C6886 0.951 . S
H6868 C6888 0.950 . S
H6869 C6889 0.950 . S
H6870 C6891 0.950 . S
H6871 C6894 0.950 . S
H6872 C6895 0.950 . S
H6873 C6897 0.950 . S
H6874 C6898 0.950 . S
H6875 C6899 0.951 . S
H6876 C6901 0.951 . S
H6877 C6903 0.950 . S
H6878 C6904 0.950 . S
H6879 C6906 0.950 . S
H6880 C6909 0.950 . S
H6881 C6910 0.950 . S
H6882 C6912 0.950 . S
H6883 C6913 0.950 . S
C6884 H6866 0.951 . S
C6884 C6885 1.366 . S
C6884 C6886 1.388 . S
C6885 C6884 1.366 . S
C6885 C6889 1.385 . S
C6886 H6867 0.951 . S
C6886 C6884 1.388 . S
C6886 C6887 1.366 . S
C6887 C6886 1.366 . S
C6887 C6888 1.414 . S
C6887 C6890 1.499 . S
C6888 H6868 0.950 . S
C6888 C6887 1.414 . S
C6888 C6889 1.374 . S
C6889 H6869 0.950 . S
C6889 C6885 1.385 . S
C6889 C6888 1.374 . S
C6890 C6887 1.499 . S
C6890 C6891 1.373 . S
C6890 C6892 1.389 . S
C6891 H6870 0.950 . S
C6891 C6890 1.373 . S
C6891 C6907 1.377 . S
C6892 C6890 1.389 . S
C6892 C6893 1.524 . S
C6892 C6906 1.377 . S
C6893 C6892 1.524 . S
C6893 C6894 1.397 . S
C6893 C6898 1.363 . S
C6894 H6871 0.950 . S
C6894 C6893 1.397 . S
C6894 C6895 1.334 . S
C6895 H6872 0.950 . S
C6895 C6894 1.334 . S
C6895 C6896 1.287 . S
C6896 C6895 1.287 . S
C6896 C6897 1.524 . S
C6896 H6915 0.913 . S
C6897 H6873 0.950 . S
C6897 C6896 1.524 . S
C6897 C6898 1.415 . S
C6898 H6874 0.950 . S
C6898 C6893 1.363 . S
C6898 C6897 1.415 . S
C6899 H6875 0.951 . S
C6899 C6900 1.366 . S
C6899 C6901 1.388 . S
C6900 C6899 1.366 . S
C6900 C6904 1.385 . S
C6901 H6876 0.951 . S
C6901 C6899 1.388 . S
C6901 C6902 1.366 . S
C6902 C6901 1.366 . S
C6902 C6903 1.414 . S
C6902 C6905 1.499 . S
C6903 H6877 0.950 . S
C6903 C6902 1.414 . S
C6903 C6904 1.374 . S
C6904 H6878 0.950 . S
C6904 C6900 1.385 . S
C6904 C6903 1.374 . S
C6905 C6902 1.499 . S
C6905 C6906 1.373 . S
C6905 C6907 1.389 . S
C6906 H6879 0.950 . S
C6906 C6892 1.377 . S
C6906 C6905 1.373 . S
C6907 C6891 1.377 . S
C6907 C6905 1.389 . S
C6907 C6908 1.524 . S
C6908 C6907 1.524 . S
C6908 C6909 1.397 . S
C6908 C6913 1.363 . S
C6909 H6880 0.950 . S
C6909 C6908 1.397 . S
C6909 C6910 1.334 . S
C6910 H6881 0.950 . S
C6910 C6909 1.334 . S
C6910 C6911 1.287 . S
C6911 C6910 1.287 . S
C6911 C6912 1.524 . S
C6911 H6914 0.999 . S
C6912 H6882 0.950 . S
C6912 C6911 1.524 . S
C6912 C6913 1.415 . S
C6913 H6883 0.950 . S
C6913 C6908 1.363 . S
C6913 C6912 1.415 . S
H6914 C6911 0.999 . S
H6915 C6896 0.913 . S
H6916 C6934 0.951 . S
H6917 C6936 0.951 . S
H6918 C6938 0.950 . S
H6919 C6939 0.950 . S
H6920 C6941 0.950 . S
H6921 C6944 0.950 . S
H6922 C6945 0.950 . S
H6923 C6947 0.950 . S
H6924 C6948 0.950 . S
H6925 C6949 0.951 . S
H6926 C6951 0.951 . S
H6927 C6953 0.950 . S
H6928 C6954 0.950 . S
H6929 C6956 0.950 . S
H6930 C6959 0.950 . S
H6931 C6960 0.950 . S
H6932 C6962 0.950 . S
H6933 C6963 0.950 . S
C6934 H6916 0.951 . S
C6934 C6935 1.366 . S
C6934 C6936 1.388 . S
C6935 C6934 1.366 . S
C6935 C6939 1.385 . S
C6936 H6917 0.951 . S
C6936 C6934 1.388 . S
C6936 C6937 1.366 . S
C6937 C6936 1.366 . S
C6937 C6938 1.414 . S
C6937 C6940 1.499 . S
C6938 H6918 0.950 . S
C6938 C6937 1.414 . S
C6938 C6939 1.374 . S
C6939 H6919 0.950 . S
C6939 C6935 1.385 . S
C6939 C6938 1.374 . S
C6940 C6937 1.499 . S
C6940 C6941 1.373 . S
C6940 C6942 1.389 . S
C6941 H6920 0.950 . S
C6941 C6940 1.373 . S
C6941 C6957 1.377 . S
C6942 C6940 1.389 . S
C6942 C6943 1.524 . S
C6942 C6956 1.377 . S
C6943 C6942 1.524 . S
C6943 C6944 1.397 . S
C6943 C6948 1.363 . S
C6944 H6921 0.950 . S
C6944 C6943 1.397 . S
C6944 C6945 1.334 . S
C6945 H6922 0.950 . S
C6945 C6944 1.334 . S
C6945 C6946 1.287 . S
C6946 C6945 1.287 . S
C6946 C6947 1.524 . S
C6946 H6965 0.913 . S
C6947 H6923 0.950 . S
C6947 C6946 1.524 . S
C6947 C6948 1.415 . S
C6948 H6924 0.950 . S
C6948 C6943 1.363 . S
C6948 C6947 1.415 . S
C6949 H6925 0.951 . S
C6949 C6950 1.366 . S
C6949 C6951 1.388 . S
C6950 C6949 1.366 . S
C6950 C6954 1.385 . S
C6951 H6926 0.951 . S
C6951 C6949 1.388 . S
C6951 C6952 1.366 . S
C6952 C6951 1.366 . S
C6952 C6953 1.414 . S
C6952 C6955 1.499 . S
C6953 H6927 0.950 . S
C6953 C6952 1.414 . S
C6953 C6954 1.374 . S
C6954 H6928 0.950 . S
C6954 C6950 1.385 . S
C6954 C6953 1.374 . S
C6955 C6952 1.499 . S
C6955 C6956 1.373 . S
C6955 C6957 1.389 . S
C6956 H6929 0.950 . S
C6956 C6942 1.377 . S
C6956 C6955 1.373 . S
C6957 C6941 1.377 . S
C6957 C6955 1.389 . S
C6957 C6958 1.524 . S
C6958 C6957 1.524 . S
C6958 C6959 1.397 . S
C6958 C6963 1.363 . S
C6959 H6930 0.950 . S
C6959 C6958 1.397 . S
C6959 C6960 1.334 . S
C6960 H6931 0.950 . S
C6960 C6959 1.334 . S
C6960 C6961 1.287 . S
C6961 C6960 1.287 . S
C6961 C6962 1.524 . S
C6961 H6964 0.999 . S
C6962 H6932 0.950 . S
C6962 C6961 1.524 . S
C6962 C6963 1.415 . S
C6963 H6933 0.950 . S
C6963 C6958 1.363 . S
C6963 C6962 1.415 . S
H6964 C6961 0.999 . S
H6965 C6946 0.913 . S
H6966 C6984 0.951 . S
H6967 C6986 0.951 . S
H6968 C6988 0.950 . S
H6969 C6989 0.950 . S
H6970 C6991 0.950 . S
H6971 C6994 0.950 . S
H6972 C6995 0.950 . S
H6973 C6997 0.950 . S
H6974 C6998 0.950 . S
H6975 C6999 0.951 . S
H6976 C7001 0.951 . S
H6977 C7003 0.950 . S
H6978 C7004 0.950 . S
H6979 C7006 0.950 . S
H6980 C7009 0.950 . S
H6981 C7010 0.950 . S
H6982 C7012 0.950 . S
H6983 C7013 0.950 . S
C6984 H6966 0.951 . S
C6984 C6985 1.366 . S
C6984 C6986 1.388 . S
C6985 C6984 1.366 . S
C6985 C6989 1.385 . S
C6986 H6967 0.951 . S
C6986 C6984 1.388 . S
C6986 C6987 1.366 . S
C6987 C6986 1.366 . S
C6987 C6988 1.414 . S
C6987 C6990 1.499 . S
C6988 H6968 0.950 . S
C6988 C6987 1.414 . S
C6988 C6989 1.374 . S
C6989 H6969 0.950 . S
C6989 C6985 1.385 . S
C6989 C6988 1.374 . S
C6990 C6987 1.499 . S
C6990 C6991 1.373 . S
C6990 C6992 1.389 . S
C6991 H6970 0.950 . S
C6991 C6990 1.373 . S
C6991 C7007 1.377 . S
C6992 C6990 1.389 . S
C6992 C6993 1.524 . S
C6992 C7006 1.377 . S
C6993 C6992 1.524 . S
C6993 C6994 1.397 . S
C6993 C6998 1.363 . S
C6994 H6971 0.950 . S
C6994 C6993 1.397 . S
C6994 C6995 1.334 . S
C6995 H6972 0.950 . S
C6995 C6994 1.334 . S
C6995 C6996 1.287 . S
C6996 C6995 1.287 . S
C6996 C6997 1.524 . S
C6996 H7015 0.913 . S
C6997 H6973 0.950 . S
C6997 C6996 1.524 . S
C6997 C6998 1.415 . S
C6998 H6974 0.950 . S
C6998 C6993 1.363 . S
C6998 C6997 1.415 . S
C6999 H6975 0.951 . S
C6999 C7000 1.366 . S
C6999 C7001 1.388 . S
C7000 C6999 1.366 . S
C7000 C7004 1.385 . S
C7001 H6976 0.951 . S
C7001 C6999 1.388 . S
C7001 C7002 1.366 . S
C7002 C7001 1.366 . S
C7002 C7003 1.414 . S
C7002 C7005 1.499 . S
C7003 H6977 0.950 . S
C7003 C7002 1.414 . S
C7003 C7004 1.374 . S
C7004 H6978 0.950 . S
C7004 C7000 1.385 . S
C7004 C7003 1.374 . S
C7005 C7002 1.499 . S
C7005 C7006 1.373 . S
C7005 C7007 1.389 . S
C7006 H6979 0.950 . S
C7006 C6992 1.377 . S
C7006 C7005 1.373 . S
C7007 C6991 1.377 . S
C7007 C7005 1.389 . S
C7007 C7008 1.524 . S
C7008 C7007 1.524 . S
C7008 C7009 1.397 . S
C7008 C7013 1.363 . S
C7009 H6980 0.950 . S
C7009 C7008 1.397 . S
C7009 C7010 1.334 . S
C7010 H6981 0.950 . S
C7010 C7009 1.334 . S
C7010 C7011 1.287 . S
C7011 C7010 1.287 . S
C7011 C7012 1.524 . S
C7011 H7014 0.999 . S
C7012 H6982 0.950 . S
C7012 C7011 1.524 . S
C7012 C7013 1.415 . S
C7013 H6983 0.950 . S
C7013 C7008 1.363 . S
C7013 C7012 1.415 . S
H7014 C7011 0.999 . S
H7015 C6996 0.913 . S
H7016 C7034 0.951 . S
H7017 C7036 0.951 . S
H7018 C7038 0.950 . S
H7019 C7039 0.950 . S
H7020 C7041 0.950 . S
H7021 C7044 0.950 . S
H7022 C7045 0.950 . S
H7023 C7047 0.950 . S
H7024 C7048 0.950 . S
H7025 C7049 0.951 . S
H7026 C7051 0.951 . S
H7027 C7053 0.950 . S
H7028 C7054 0.950 . S
H7029 C7056 0.950 . S
H7030 C7059 0.950 . S
H7031 C7060 0.950 . S
H7032 C7062 0.950 . S
H7033 C7063 0.950 . S
C7034 H7016 0.951 . S
C7034 C7035 1.366 . S
C7034 C7036 1.388 . S
C7035 C7034 1.366 . S
C7035 C7039 1.385 . S
C7036 H7017 0.951 . S
C7036 C7034 1.388 . S
C7036 C7037 1.366 . S
C7037 C7036 1.366 . S
C7037 C7038 1.414 . S
C7037 C7040 1.499 . S
C7038 H7018 0.950 . S
C7038 C7037 1.414 . S
C7038 C7039 1.374 . S
C7039 H7019 0.950 . S
C7039 C7035 1.385 . S
C7039 C7038 1.374 . S
C7040 C7037 1.499 . S
C7040 C7041 1.373 . S
C7040 C7042 1.389 . S
C7041 H7020 0.950 . S
C7041 C7040 1.373 . S
C7041 C7057 1.377 . S
C7042 C7040 1.389 . S
C7042 C7043 1.524 . S
C7042 C7056 1.377 . S
C7043 C7042 1.524 . S
C7043 C7044 1.397 . S
C7043 C7048 1.363 . S
C7044 H7021 0.950 . S
C7044 C7043 1.397 . S
C7044 C7045 1.334 . S
C7045 H7022 0.950 . S
C7045 C7044 1.334 . S
C7045 C7046 1.287 . S
C7046 C7045 1.287 . S
C7046 C7047 1.524 . S
C7046 H7065 0.913 . S
C7047 H7023 0.950 . S
C7047 C7046 1.524 . S
C7047 C7048 1.415 . S
C7048 H7024 0.950 . S
C7048 C7043 1.363 . S
C7048 C7047 1.415 . S
C7049 H7025 0.951 . S
C7049 C7050 1.366 . S
C7049 C7051 1.388 . S
C7050 C7049 1.366 . S
C7050 C7054 1.385 . S
C7051 H7026 0.951 . S
C7051 C7049 1.388 . S
C7051 C7052 1.366 . S
C7052 C7051 1.366 . S
C7052 C7053 1.414 . S
C7052 C7055 1.499 . S
C7053 H7027 0.950 . S
C7053 C7052 1.414 . S
C7053 C7054 1.374 . S
C7054 H7028 0.950 . S
C7054 C7050 1.385 . S
C7054 C7053 1.374 . S
C7055 C7052 1.499 . S
C7055 C7056 1.373 . S
C7055 C7057 1.389 . S
C7056 H7029 0.950 . S
C7056 C7042 1.377 . S
C7056 C7055 1.373 . S
C7057 C7041 1.377 . S
C7057 C7055 1.389 . S
C7057 C7058 1.524 . S
C7058 C7057 1.524 . S
C7058 C7059 1.397 . S
C7058 C7063 1.363 . S
C7059 H7030 0.950 . S
C7059 C7058 1.397 . S
C7059 C7060 1.334 . S
C7060 H7031 0.950 . S
C7060 C7059 1.334 . S
C7060 C7061 1.287 . S
C7061 C7060 1.287 . S
C7061 C7062 1.524 . S
C7061 H7064 0.999 . S
C7062 H7032 0.950 . S
C7062 C7061 1.524 . S
C7062 C7063 1.415 . S
C7063 H7033 0.950 . S
C7063 C7058 1.363 . S
C7063 C7062 1.415 . S
H7064 C7061 0.999 . S
H7065 C7046 0.913 . S
H7066 C7084 0.951 . S
H7067 C7086 0.951 . S
H7068 C7088 0.950 . S
H7069 C7089 0.950 . S
H7070 C7091 0.950 . S
H7071 C7094 0.950 . S
H7072 C7095 0.950 . S
H7073 C7097 0.950 . S
H7074 C7098 0.950 . S
H7075 C7099 0.951 . S
H7076 C7101 0.951 . S
H7077 C7103 0.950 . S
H7078 C7104 0.950 . S
H7079 C7106 0.950 . S
H7080 C7109 0.950 . S
H7081 C7110 0.950 . S
H7082 C7112 0.950 . S
H7083 C7113 0.950 . S
C7084 H7066 0.951 . S
C7084 C7085 1.366 . S
C7084 C7086 1.388 . S
C7085 C7084 1.366 . S
C7085 C7089 1.385 . S
C7086 H7067 0.951 . S
C7086 C7084 1.388 . S
C7086 C7087 1.366 . S
C7087 C7086 1.366 . S
C7087 C7088 1.414 . S
C7087 C7090 1.499 . S
C7088 H7068 0.950 . S
C7088 C7087 1.414 . S
C7088 C7089 1.374 . S
C7089 H7069 0.950 . S
C7089 C7085 1.385 . S
C7089 C7088 1.374 . S
C7090 C7087 1.499 . S
C7090 C7091 1.373 . S
C7090 C7092 1.389 . S
C7091 H7070 0.950 . S
C7091 C7090 1.373 . S
C7091 C7107 1.377 . S
C7092 C7090 1.389 . S
C7092 C7093 1.524 . S
C7092 C7106 1.377 . S
C7093 C7092 1.524 . S
C7093 C7094 1.397 . S
C7093 C7098 1.363 . S
C7094 H7071 0.950 . S
C7094 C7093 1.397 . S
C7094 C7095 1.334 . S
C7095 H7072 0.950 . S
C7095 C7094 1.334 . S
C7095 C7096 1.287 . S
C7096 C7095 1.287 . S
C7096 C7097 1.524 . S
C7096 H7115 0.913 . S
C7097 H7073 0.950 . S
C7097 C7096 1.524 . S
C7097 C7098 1.415 . S
C7098 H7074 0.950 . S
C7098 C7093 1.363 . S
C7098 C7097 1.415 . S
C7099 H7075 0.951 . S
C7099 C7100 1.366 . S
C7099 C7101 1.388 . S
C7100 C7099 1.366 . S
C7100 C7104 1.385 . S
C7101 H7076 0.951 . S
C7101 C7099 1.388 . S
C7101 C7102 1.366 . S
C7102 C7101 1.366 . S
C7102 C7103 1.414 . S
C7102 C7105 1.499 . S
C7103 H7077 0.950 . S
C7103 C7102 1.414 . S
C7103 C7104 1.374 . S
C7104 H7078 0.950 . S
C7104 C7100 1.385 . S
C7104 C7103 1.374 . S
C7105 C7102 1.499 . S
C7105 C7106 1.373 . S
C7105 C7107 1.389 . S
C7106 H7079 0.950 . S
C7106 C7092 1.377 . S
C7106 C7105 1.373 . S
C7107 C7091 1.377 . S
C7107 C7105 1.389 . S
C7107 C7108 1.524 . S
C7108 C7107 1.524 . S
C7108 C7109 1.397 . S
C7108 C7113 1.363 . S
C7109 H7080 0.950 . S
C7109 C7108 1.397 . S
C7109 C7110 1.334 . S
C7110 H7081 0.950 . S
C7110 C7109 1.334 . S
C7110 C7111 1.287 . S
C7111 C7110 1.287 . S
C7111 C7112 1.524 . S
C7111 H7114 0.999 . S
C7112 H7082 0.950 . S
C7112 C7111 1.524 . S
C7112 C7113 1.415 . S
C7113 H7083 0.950 . S
C7113 C7108 1.363 . S
C7113 C7112 1.415 . S
H7114 C7111 0.999 . S
H7115 C7096 0.913 . S
H7116 C7134 0.951 . S
H7117 C7136 0.951 . S
H7118 C7138 0.950 . S
H7119 C7139 0.950 . S
H7120 C7141 0.950 . S
H7121 C7144 0.950 . S
H7122 C7145 0.950 . S
H7123 C7147 0.950 . S
H7124 C7148 0.950 . S
H7125 C7149 0.951 . S
H7126 C7151 0.951 . S
H7127 C7153 0.950 . S
H7128 C7154 0.950 . S
H7129 C7156 0.950 . S
H7130 C7159 0.950 . S
H7131 C7160 0.950 . S
H7132 C7162 0.950 . S
H7133 C7163 0.950 . S
C7134 H7116 0.951 . S
C7134 C7135 1.366 . S
C7134 C7136 1.388 . S
C7135 C7134 1.366 . S
C7135 C7139 1.385 . S
C7136 H7117 0.951 . S
C7136 C7134 1.388 . S
C7136 C7137 1.366 . S
C7137 C7136 1.366 . S
C7137 C7138 1.414 . S
C7137 C7140 1.499 . S
C7138 H7118 0.950 . S
C7138 C7137 1.414 . S
C7138 C7139 1.374 . S
C7139 H7119 0.950 . S
C7139 C7135 1.385 . S
C7139 C7138 1.374 . S
C7140 C7137 1.499 . S
C7140 C7141 1.373 . S
C7140 C7142 1.389 . S
C7141 H7120 0.950 . S
C7141 C7140 1.373 . S
C7141 C7157 1.377 . S
C7142 C7140 1.389 . S
C7142 C7143 1.524 . S
C7142 C7156 1.377 . S
C7143 C7142 1.524 . S
C7143 C7144 1.397 . S
C7143 C7148 1.363 . S
C7144 H7121 0.950 . S
C7144 C7143 1.397 . S
C7144 C7145 1.334 . S
C7145 H7122 0.950 . S
C7145 C7144 1.334 . S
C7145 C7146 1.287 . S
C7146 C7145 1.287 . S
C7146 C7147 1.524 . S
C7146 H7165 0.913 . S
C7147 H7123 0.950 . S
C7147 C7146 1.524 . S
C7147 C7148 1.415 . S
C7148 H7124 0.950 . S
C7148 C7143 1.363 . S
C7148 C7147 1.415 . S
C7149 H7125 0.951 . S
C7149 C7150 1.366 . S
C7149 C7151 1.388 . S
C7150 C7149 1.366 . S
C7150 C7154 1.385 . S
C7151 H7126 0.951 . S
C7151 C7149 1.388 . S
C7151 C7152 1.366 . S
C7152 C7151 1.366 . S
C7152 C7153 1.414 . S
C7152 C7155 1.499 . S
C7153 H7127 0.950 . S
C7153 C7152 1.414 . S
C7153 C7154 1.374 . S
C7154 H7128 0.950 . S
C7154 C7150 1.385 . S
C7154 C7153 1.374 . S
C7155 C7152 1.499 . S
C7155 C7156 1.373 . S
C7155 C7157 1.389 . S
C7156 H7129 0.950 . S
C7156 C7142 1.377 . S
C7156 C7155 1.373 . S
C7157 C7141 1.377 . S
C7157 C7155 1.389 . S
C7157 C7158 1.524 . S
C7158 C7157 1.524 . S
C7158 C7159 1.397 . S
C7158 C7163 1.363 . S
C7159 H7130 0.950 . S
C7159 C7158 1.397 . S
C7159 C7160 1.334 . S
C7160 H7131 0.950 . S
C7160 C7159 1.334 . S
C7160 C7161 1.287 . S
C7161 C7160 1.287 . S
C7161 C7162 1.524 . S
C7161 H7164 0.999 . S
C7162 H7132 0.950 . S
C7162 C7161 1.524 . S
C7162 C7163 1.415 . S
C7163 H7133 0.950 . S
C7163 C7158 1.363 . S
C7163 C7162 1.415 . S
H7164 C7161 0.999 . S
H7165 C7146 0.913 . S
H7166 C7184 0.951 . S
H7167 C7186 0.951 . S
H7168 C7188 0.950 . S
H7169 C7189 0.950 . S
H7170 C7191 0.950 . S
H7171 C7194 0.950 . S
H7172 C7195 0.950 . S
H7173 C7197 0.950 . S
H7174 C7198 0.950 . S
H7175 C7199 0.951 . S
H7176 C7201 0.951 . S
H7177 C7203 0.950 . S
H7178 C7204 0.950 . S
H7179 C7206 0.950 . S
H7180 C7209 0.950 . S
H7181 C7210 0.950 . S
H7182 C7212 0.950 . S
H7183 C7213 0.950 . S
C7184 H7166 0.951 . S
C7184 C7185 1.366 . S
C7184 C7186 1.388 . S
C7185 C7184 1.366 . S
C7185 C7189 1.385 . S
C7186 H7167 0.951 . S
C7186 C7184 1.388 . S
C7186 C7187 1.366 . S
C7187 C7186 1.366 . S
C7187 C7188 1.414 . S
C7187 C7190 1.499 . S
C7188 H7168 0.950 . S
C7188 C7187 1.414 . S
C7188 C7189 1.374 . S
C7189 H7169 0.950 . S
C7189 C7185 1.385 . S
C7189 C7188 1.374 . S
C7190 C7187 1.499 . S
C7190 C7191 1.373 . S
C7190 C7192 1.389 . S
C7191 H7170 0.950 . S
C7191 C7190 1.373 . S
C7191 C7207 1.377 . S
C7192 C7190 1.389 . S
C7192 C7193 1.524 . S
C7192 C7206 1.377 . S
C7193 C7192 1.524 . S
C7193 C7194 1.397 . S
C7193 C7198 1.363 . S
C7194 H7171 0.950 . S
C7194 C7193 1.397 . S
C7194 C7195 1.334 . S
C7195 H7172 0.950 . S
C7195 C7194 1.334 . S
C7195 C7196 1.287 . S
C7196 C7195 1.287 . S
C7196 C7197 1.524 . S
C7196 H7215 0.913 . S
C7197 H7173 0.950 . S
C7197 C7196 1.524 . S
C7197 C7198 1.415 . S
C7198 H7174 0.950 . S
C7198 C7193 1.363 . S
C7198 C7197 1.415 . S
C7199 H7175 0.951 . S
C7199 C7200 1.366 . S
C7199 C7201 1.388 . S
C7200 C7199 1.366 . S
C7200 C7204 1.385 . S
C7201 H7176 0.951 . S
C7201 C7199 1.388 . S
C7201 C7202 1.366 . S
C7202 C7201 1.366 . S
C7202 C7203 1.414 . S
C7202 C7205 1.499 . S
C7203 H7177 0.950 . S
C7203 C7202 1.414 . S
C7203 C7204 1.374 . S
C7204 H7178 0.950 . S
C7204 C7200 1.385 . S
C7204 C7203 1.374 . S
C7205 C7202 1.499 . S
C7205 C7206 1.373 . S
C7205 C7207 1.389 . S
C7206 H7179 0.950 . S
C7206 C7192 1.377 . S
C7206 C7205 1.373 . S
C7207 C7191 1.377 . S
C7207 C7205 1.389 . S
C7207 C7208 1.524 . S
C7208 C7207 1.524 . S
C7208 C7209 1.397 . S
C7208 C7213 1.363 . S
C7209 H7180 0.950 . S
C7209 C7208 1.397 . S
C7209 C7210 1.334 . S
C7210 H7181 0.950 . S
C7210 C7209 1.334 . S
C7210 C7211 1.287 . S
C7211 C7210 1.287 . S
C7211 C7212 1.524 . S
C7211 H7214 0.999 . S
C7212 H7182 0.950 . S
C7212 C7211 1.524 . S
C7212 C7213 1.415 . S
C7213 H7183 0.950 . S
C7213 C7208 1.363 . S
C7213 C7212 1.415 . S
H7214 C7211 0.999 . S
H7215 C7196 0.913 . S
H7216 C7234 0.951 . S
H7217 C7236 0.951 . S
H7218 C7238 0.950 . S
H7219 C7239 0.950 . S
H7220 C7241 0.950 . S
H7221 C7244 0.950 . S
H7222 C7245 0.950 . S
H7223 C7247 0.950 . S
H7224 C7248 0.950 . S
H7225 C7249 0.951 . S
H7226 C7251 0.951 . S
H7227 C7253 0.950 . S
H7228 C7254 0.950 . S
H7229 C7256 0.950 . S
H7230 C7259 0.950 . S
H7231 C7260 0.950 . S
H7232 C7262 0.950 . S
H7233 C7263 0.950 . S
C7234 H7216 0.951 . S
C7234 C7235 1.366 . S
C7234 C7236 1.388 . S
C7235 C7234 1.366 . S
C7235 C7239 1.385 . S
C7236 H7217 0.951 . S
C7236 C7234 1.388 . S
C7236 C7237 1.366 . S
C7237 C7236 1.366 . S
C7237 C7238 1.414 . S
C7237 C7240 1.499 . S
C7238 H7218 0.950 . S
C7238 C7237 1.414 . S
C7238 C7239 1.374 . S
C7239 H7219 0.950 . S
C7239 C7235 1.385 . S
C7239 C7238 1.374 . S
C7240 C7237 1.499 . S
C7240 C7241 1.373 . S
C7240 C7242 1.389 . S
C7241 H7220 0.950 . S
C7241 C7240 1.373 . S
C7241 C7257 1.377 . S
C7242 C7240 1.389 . S
C7242 C7243 1.524 . S
C7242 C7256 1.377 . S
C7243 C7242 1.524 . S
C7243 C7244 1.397 . S
C7243 C7248 1.363 . S
C7244 H7221 0.950 . S
C7244 C7243 1.397 . S
C7244 C7245 1.334 . S
C7245 H7222 0.950 . S
C7245 C7244 1.334 . S
C7245 C7246 1.287 . S
C7246 C7245 1.287 . S
C7246 C7247 1.524 . S
C7246 H7265 0.913 . S
C7247 H7223 0.950 . S
C7247 C7246 1.524 . S
C7247 C7248 1.415 . S
C7248 H7224 0.950 . S
C7248 C7243 1.363 . S
C7248 C7247 1.415 . S
C7249 H7225 0.951 . S
C7249 C7250 1.366 . S
C7249 C7251 1.388 . S
C7250 C7249 1.366 . S
C7250 C7254 1.385 . S
C7251 H7226 0.951 . S
C7251 C7249 1.388 . S
C7251 C7252 1.366 . S
C7252 C7251 1.366 . S
C7252 C7253 1.414 . S
C7252 C7255 1.499 . S
C7253 H7227 0.950 . S
C7253 C7252 1.414 . S
C7253 C7254 1.374 . S
C7254 H7228 0.950 . S
C7254 C7250 1.385 . S
C7254 C7253 1.374 . S
C7255 C7252 1.499 . S
C7255 C7256 1.373 . S
C7255 C7257 1.389 . S
C7256 H7229 0.950 . S
C7256 C7242 1.377 . S
C7256 C7255 1.373 . S
C7257 C7241 1.377 . S
C7257 C7255 1.389 . S
C7257 C7258 1.524 . S
C7258 C7257 1.524 . S
C7258 C7259 1.397 . S
C7258 C7263 1.363 . S
C7259 H7230 0.950 . S
C7259 C7258 1.397 . S
C7259 C7260 1.334 . S
C7260 H7231 0.950 . S
C7260 C7259 1.334 . S
C7260 C7261 1.287 . S
C7261 C7260 1.287 . S
C7261 C7262 1.524 . S
C7261 H7264 0.999 . S
C7262 H7232 0.950 . S
C7262 C7261 1.524 . S
C7262 C7263 1.415 . S
C7263 H7233 0.950 . S
C7263 C7258 1.363 . S
C7263 C7262 1.415 . S
H7264 C7261 0.999 . S
H7265 C7246 0.913 . S
H7266 C7284 0.951 . S
H7267 C7286 0.951 . S
H7268 C7288 0.950 . S
H7269 C7289 0.950 . S
H7270 C7291 0.950 . S
H7271 C7294 0.950 . S
H7272 C7295 0.950 . S
H7273 C7297 0.950 . S
H7274 C7298 0.950 . S
H7275 C7299 0.951 . S
H7276 C7301 0.951 . S
H7277 C7303 0.950 . S
H7278 C7304 0.950 . S
H7279 C7306 0.950 . S
H7280 C7309 0.950 . S
H7281 C7310 0.950 . S
H7282 C7312 0.950 . S
H7283 C7313 0.950 . S
C7284 H7266 0.951 . S
C7284 C7285 1.366 . S
C7284 C7286 1.388 . S
C7285 C7284 1.366 . S
C7285 C7289 1.385 . S
C7286 H7267 0.951 . S
C7286 C7284 1.388 . S
C7286 C7287 1.366 . S
C7287 C7286 1.366 . S
C7287 C7288 1.414 . S
C7287 C7290 1.499 . S
C7288 H7268 0.950 . S
C7288 C7287 1.414 . S
C7288 C7289 1.374 . S
C7289 H7269 0.950 . S
C7289 C7285 1.385 . S
C7289 C7288 1.374 . S
C7290 C7287 1.499 . S
C7290 C7291 1.373 . S
C7290 C7292 1.389 . S
C7291 H7270 0.950 . S
C7291 C7290 1.373 . S
C7291 C7307 1.377 . S
C7292 C7290 1.389 . S
C7292 C7293 1.524 . S
C7292 C7306 1.377 . S
C7293 C7292 1.524 . S
C7293 C7294 1.397 . S
C7293 C7298 1.363 . S
C7294 H7271 0.950 . S
C7294 C7293 1.397 . S
C7294 C7295 1.334 . S
C7295 H7272 0.950 . S
C7295 C7294 1.334 . S
C7295 C7296 1.287 . S
C7296 C7295 1.287 . S
C7296 C7297 1.524 . S
C7296 H7315 0.913 . S
C7297 H7273 0.950 . S
C7297 C7296 1.524 . S
C7297 C7298 1.415 . S
C7298 H7274 0.950 . S
C7298 C7293 1.363 . S
C7298 C7297 1.415 . S
C7299 H7275 0.951 . S
C7299 C7300 1.366 . S
C7299 C7301 1.388 . S
C7300 C7299 1.366 . S
C7300 C7304 1.385 . S
C7301 H7276 0.951 . S
C7301 C7299 1.388 . S
C7301 C7302 1.366 . S
C7302 C7301 1.366 . S
C7302 C7303 1.414 . S
C7302 C7305 1.499 . S
C7303 H7277 0.950 . S
C7303 C7302 1.414 . S
C7303 C7304 1.374 . S
C7304 H7278 0.950 . S
C7304 C7300 1.385 . S
C7304 C7303 1.374 . S
C7305 C7302 1.499 . S
C7305 C7306 1.373 . S
C7305 C7307 1.389 . S
C7306 H7279 0.950 . S
C7306 C7292 1.377 . S
C7306 C7305 1.373 . S
C7307 C7291 1.377 . S
C7307 C7305 1.389 . S
C7307 C7308 1.524 . S
C7308 C7307 1.524 . S
C7308 C7309 1.397 . S
C7308 C7313 1.363 . S
C7309 H7280 0.950 . S
C7309 C7308 1.397 . S
C7309 C7310 1.334 . S
C7310 H7281 0.950 . S
C7310 C7309 1.334 . S
C7310 C7311 1.287 . S
C7311 C7310 1.287 . S
C7311 C7312 1.524 . S
C7311 H7314 0.999 . S
C7312 H7282 0.950 . S
C7312 C7311 1.524 . S
C7312 C7313 1.415 . S
C7313 H7283 0.950 . S
C7313 C7308 1.363 . S
C7313 C7312 1.415 . S
H7314 C7311 0.999 . S
H7315 C7296 0.913 . S
H7316 C7334 0.951 . S
H7317 C7336 0.951 . S
H7318 C7338 0.950 . S
H7319 C7339 0.950 . S
H7320 C7341 0.950 . S
H7321 C7344 0.950 . S
H7322 C7345 0.950 . S
H7323 C7347 0.950 . S
H7324 C7348 0.950 . S
H7325 C7349 0.951 . S
H7326 C7351 0.951 . S
H7327 C7353 0.950 . S
H7328 C7354 0.950 . S
H7329 C7356 0.950 . S
H7330 C7359 0.950 . S
H7331 C7360 0.950 . S
H7332 C7362 0.950 . S
H7333 C7363 0.950 . S
C7334 H7316 0.951 . S
C7334 C7335 1.366 . S
C7334 C7336 1.388 . S
C7335 C7334 1.366 . S
C7335 C7339 1.385 . S
C7336 H7317 0.951 . S
C7336 C7334 1.388 . S
C7336 C7337 1.366 . S
C7337 C7336 1.366 . S
C7337 C7338 1.414 . S
C7337 C7340 1.499 . S
C7338 H7318 0.950 . S
C7338 C7337 1.414 . S
C7338 C7339 1.374 . S
C7339 H7319 0.950 . S
C7339 C7335 1.385 . S
C7339 C7338 1.374 . S
C7340 C7337 1.499 . S
C7340 C7341 1.373 . S
C7340 C7342 1.389 . S
C7341 H7320 0.950 . S
C7341 C7340 1.373 . S
C7341 C7357 1.377 . S
C7342 C7340 1.389 . S
C7342 C7343 1.524 . S
C7342 C7356 1.377 . S
C7343 C7342 1.524 . S
C7343 C7344 1.397 . S
C7343 C7348 1.363 . S
C7344 H7321 0.950 . S
C7344 C7343 1.397 . S
C7344 C7345 1.334 . S
C7345 H7322 0.950 . S
C7345 C7344 1.334 . S
C7345 C7346 1.287 . S
C7346 C7345 1.287 . S
C7346 C7347 1.524 . S
C7346 H7365 0.913 . S
C7347 H7323 0.950 . S
C7347 C7346 1.524 . S
C7347 C7348 1.415 . S
C7348 H7324 0.950 . S
C7348 C7343 1.363 . S
C7348 C7347 1.415 . S
C7349 H7325 0.951 . S
C7349 C7350 1.366 . S
C7349 C7351 1.388 . S
C7350 C7349 1.366 . S
C7350 C7354 1.385 . S
C7351 H7326 0.951 . S
C7351 C7349 1.388 . S
C7351 C7352 1.366 . S
C7352 C7351 1.366 . S
C7352 C7353 1.414 . S
C7352 C7355 1.499 . S
C7353 H7327 0.950 . S
C7353 C7352 1.414 . S
C7353 C7354 1.374 . S
C7354 H7328 0.950 . S
C7354 C7350 1.385 . S
C7354 C7353 1.374 . S
C7355 C7352 1.499 . S
C7355 C7356 1.373 . S
C7355 C7357 1.389 . S
C7356 H7329 0.950 . S
C7356 C7342 1.377 . S
C7356 C7355 1.373 . S
C7357 C7341 1.377 . S
C7357 C7355 1.389 . S
C7357 C7358 1.524 . S
C7358 C7357 1.524 . S
C7358 C7359 1.397 . S
C7358 C7363 1.363 . S
C7359 H7330 0.950 . S
C7359 C7358 1.397 . S
C7359 C7360 1.334 . S
C7360 H7331 0.950 . S
C7360 C7359 1.334 . S
C7360 C7361 1.287 . S
C7361 C7360 1.287 . S
C7361 C7362 1.524 . S
C7361 H7364 0.999 . S
C7362 H7332 0.950 . S
C7362 C7361 1.524 . S
C7362 C7363 1.415 . S
C7363 H7333 0.950 . S
C7363 C7358 1.363 . S
C7363 C7362 1.415 . S
H7364 C7361 0.999 . S
H7365 C7346 0.913 . S
H7366 C7384 0.951 . S
H7367 C7386 0.951 . S
H7368 C7388 0.950 . S
H7369 C7389 0.950 . S
H7370 C7391 0.950 . S
H7371 C7394 0.950 . S
H7372 C7395 0.950 . S
H7373 C7397 0.950 . S
H7374 C7398 0.950 . S
H7375 C7399 0.951 . S
H7376 C7401 0.951 . S
H7377 C7403 0.950 . S
H7378 C7404 0.950 . S
H7379 C7406 0.950 . S
H7380 C7409 0.950 . S
H7381 C7410 0.950 . S
H7382 C7412 0.950 . S
H7383 C7413 0.950 . S
C7384 H7366 0.951 . S
C7384 C7385 1.366 . S
C7384 C7386 1.388 . S
C7385 C7384 1.366 . S
C7385 C7389 1.385 . S
C7386 H7367 0.951 . S
C7386 C7384 1.388 . S
C7386 C7387 1.366 . S
C7387 C7386 1.366 . S
C7387 C7388 1.414 . S
C7387 C7390 1.499 . S
C7388 H7368 0.950 . S
C7388 C7387 1.414 . S
C7388 C7389 1.374 . S
C7389 H7369 0.950 . S
C7389 C7385 1.385 . S
C7389 C7388 1.374 . S
C7390 C7387 1.499 . S
C7390 C7391 1.373 . S
C7390 C7392 1.389 . S
C7391 H7370 0.950 . S
C7391 C7390 1.373 . S
C7391 C7407 1.377 . S
C7392 C7390 1.389 . S
C7392 C7393 1.524 . S
C7392 C7406 1.377 . S
C7393 C7392 1.524 . S
C7393 C7394 1.397 . S
C7393 C7398 1.363 . S
C7394 H7371 0.950 . S
C7394 C7393 1.397 . S
C7394 C7395 1.334 . S
C7395 H7372 0.950 . S
C7395 C7394 1.334 . S
C7395 C7396 1.287 . S
C7396 C7395 1.287 . S
C7396 C7397 1.524 . S
C7396 H7415 0.913 . S
C7397 H7373 0.950 . S
C7397 C7396 1.524 . S
C7397 C7398 1.415 . S
C7398 H7374 0.950 . S
C7398 C7393 1.363 . S
C7398 C7397 1.415 . S
C7399 H7375 0.951 . S
C7399 C7400 1.366 . S
C7399 C7401 1.388 . S
C7400 C7399 1.366 . S
C7400 C7404 1.385 . S
C7401 H7376 0.951 . S
C7401 C7399 1.388 . S
C7401 C7402 1.366 . S
C7402 C7401 1.366 . S
C7402 C7403 1.414 . S
C7402 C7405 1.499 . S
C7403 H7377 0.950 . S
C7403 C7402 1.414 . S
C7403 C7404 1.374 . S
C7404 H7378 0.950 . S
C7404 C7400 1.385 . S
C7404 C7403 1.374 . S
C7405 C7402 1.499 . S
C7405 C7406 1.373 . S
C7405 C7407 1.389 . S
C7406 H7379 0.950 . S
C7406 C7392 1.377 . S
C7406 C7405 1.373 . S
C7407 C7391 1.377 . S
C7407 C7405 1.389 . S
C7407 C7408 1.524 . S
C7408 C7407 1.524 . S
C7408 C7409 1.397 . S
C7408 C7413 1.363 . S
C7409 H7380 0.950 . S
C7409 C7408 1.397 . S
C7409 C7410 1.334 . S
C7410 H7381 0.950 . S
C7410 C7409 1.334 . S
C7410 C7411 1.287 . S
C7411 C7410 1.287 . S
C7411 C7412 1.524 . S
C7411 H7414 0.999 . S
C7412 H7382 0.950 . S
C7412 C7411 1.524 . S
C7412 C7413 1.415 . S
C7413 H7383 0.950 . S
C7413 C7408 1.363 . S
C7413 C7412 1.415 . S
H7414 C7411 0.999 . S
H7415 C7396 0.913 . S
H7416 C7434 0.951 . S
H7417 C7436 0.951 . S
H7418 C7438 0.950 . S
H7419 C7439 0.950 . S
H7420 C7441 0.950 . S
H7421 C7444 0.950 . S
H7422 C7445 0.950 . S
H7423 C7447 0.950 . S
H7424 C7448 0.950 . S
H7425 C7449 0.951 . S
H7426 C7451 0.951 . S
H7427 C7453 0.950 . S
H7428 C7454 0.950 . S
H7429 C7456 0.950 . S
H7430 C7459 0.950 . S
H7431 C7460 0.950 . S
H7432 C7462 0.950 . S
H7433 C7463 0.950 . S
C7434 H7416 0.951 . S
C7434 C7435 1.366 . S
C7434 C7436 1.388 . S
C7435 C7434 1.366 . S
C7435 C7439 1.385 . S
C7436 H7417 0.951 . S
C7436 C7434 1.388 . S
C7436 C7437 1.366 . S
C7437 C7436 1.366 . S
C7437 C7438 1.414 . S
C7437 C7440 1.499 . S
C7438 H7418 0.950 . S
C7438 C7437 1.414 . S
C7438 C7439 1.374 . S
C7439 H7419 0.950 . S
C7439 C7435 1.385 . S
C7439 C7438 1.374 . S
C7440 C7437 1.499 . S
C7440 C7441 1.373 . S
C7440 C7442 1.389 . S
C7441 H7420 0.950 . S
C7441 C7440 1.373 . S
C7441 C7457 1.377 . S
C7442 C7440 1.389 . S
C7442 C7443 1.524 . S
C7442 C7456 1.377 . S
C7443 C7442 1.524 . S
C7443 C7444 1.397 . S
C7443 C7448 1.363 . S
C7444 H7421 0.950 . S
C7444 C7443 1.397 . S
C7444 C7445 1.334 . S
C7445 H7422 0.950 . S
C7445 C7444 1.334 . S
C7445 C7446 1.287 . S
C7446 C7445 1.287 . S
C7446 C7447 1.524 . S
C7446 H7465 0.913 . S
C7447 H7423 0.950 . S
C7447 C7446 1.524 . S
C7447 C7448 1.415 . S
C7448 H7424 0.950 . S
C7448 C7443 1.363 . S
C7448 C7447 1.415 . S
C7449 H7425 0.951 . S
C7449 C7450 1.366 . S
C7449 C7451 1.388 . S
C7450 C7449 1.366 . S
C7450 C7454 1.385 . S
C7451 H7426 0.951 . S
C7451 C7449 1.388 . S
C7451 C7452 1.366 . S
C7452 C7451 1.366 . S
C7452 C7453 1.414 . S
C7452 C7455 1.499 . S
C7453 H7427 0.950 . S
C7453 C7452 1.414 . S
C7453 C7454 1.374 . S
C7454 H7428 0.950 . S
C7454 C7450 1.385 . S
C7454 C7453 1.374 . S
C7455 C7452 1.499 . S
C7455 C7456 1.373 . S
C7455 C7457 1.389 . S
C7456 H7429 0.950 . S
C7456 C7442 1.377 . S
C7456 C7455 1.373 . S
C7457 C7441 1.377 . S
C7457 C7455 1.389 . S
C7457 C7458 1.524 . S
C7458 C7457 1.524 . S
C7458 C7459 1.397 . S
C7458 C7463 1.363 . S
C7459 H7430 0.950 . S
C7459 C7458 1.397 . S
C7459 C7460 1.334 . S
C7460 H7431 0.950 . S
C7460 C7459 1.334 . S
C7460 C7461 1.287 . S
C7461 C7460 1.287 . S
C7461 C7462 1.524 . S
C7461 H7464 0.999 . S
C7462 H7432 0.950 . S
C7462 C7461 1.524 . S
C7462 C7463 1.415 . S
C7463 H7433 0.950 . S
C7463 C7458 1.363 . S
C7463 C7462 1.415 . S
H7464 C7461 0.999 . S
H7465 C7446 0.913 . S
H7466 C7484 0.951 . S
H7467 C7486 0.951 . S
H7468 C7488 0.950 . S
H7469 C7489 0.950 . S
H7470 C7491 0.950 . S
H7471 C7494 0.950 . S
H7472 C7495 0.950 . S
H7473 C7497 0.950 . S
H7474 C7498 0.950 . S
H7475 C7499 0.951 . S
H7476 C7501 0.951 . S
H7477 C7503 0.950 . S
H7478 C7504 0.950 . S
H7479 C7506 0.950 . S
H7480 C7509 0.950 . S
H7481 C7510 0.950 . S
H7482 C7512 0.950 . S
H7483 C7513 0.950 . S
C7484 H7466 0.951 . S
C7484 C7485 1.366 . S
C7484 C7486 1.388 . S
C7485 C7484 1.366 . S
C7485 C7489 1.385 . S
C7486 H7467 0.951 . S
C7486 C7484 1.388 . S
C7486 C7487 1.366 . S
C7487 C7486 1.366 . S
C7487 C7488 1.414 . S
C7487 C7490 1.499 . S
C7488 H7468 0.950 . S
C7488 C7487 1.414 . S
C7488 C7489 1.374 . S
C7489 H7469 0.950 . S
C7489 C7485 1.385 . S
C7489 C7488 1.374 . S
C7490 C7487 1.499 . S
C7490 C7491 1.373 . S
C7490 C7492 1.389 . S
C7491 H7470 0.950 . S
C7491 C7490 1.373 . S
C7491 C7507 1.377 . S
C7492 C7490 1.389 . S
C7492 C7493 1.524 . S
C7492 C7506 1.377 . S
C7493 C7492 1.524 . S
C7493 C7494 1.397 . S
C7493 C7498 1.363 . S
C7494 H7471 0.950 . S
C7494 C7493 1.397 . S
C7494 C7495 1.334 . S
C7495 H7472 0.950 . S
C7495 C7494 1.334 . S
C7495 C7496 1.287 . S
C7496 C7495 1.287 . S
C7496 C7497 1.524 . S
C7496 H7515 0.913 . S
C7497 H7473 0.950 . S
C7497 C7496 1.524 . S
C7497 C7498 1.415 . S
C7498 H7474 0.950 . S
C7498 C7493 1.363 . S
C7498 C7497 1.415 . S
C7499 H7475 0.951 . S
C7499 C7500 1.366 . S
C7499 C7501 1.388 . S
C7500 C7499 1.366 . S
C7500 C7504 1.385 . S
C7501 H7476 0.951 . S
C7501 C7499 1.388 . S
C7501 C7502 1.366 . S
C7502 C7501 1.366 . S
C7502 C7503 1.414 . S
C7502 C7505 1.499 . S
C7503 H7477 0.950 . S
C7503 C7502 1.414 . S
C7503 C7504 1.374 . S
C7504 H7478 0.950 . S
C7504 C7500 1.385 . S
C7504 C7503 1.374 . S
C7505 C7502 1.499 . S
C7505 C7506 1.373 . S
C7505 C7507 1.389 . S
C7506 H7479 0.950 . S
C7506 C7492 1.377 . S
C7506 C7505 1.373 . S
C7507 C7491 1.377 . S
C7507 C7505 1.389 . S
C7507 C7508 1.524 . S
C7508 C7507 1.524 . S
C7508 C7509 1.397 . S
C7508 C7513 1.363 . S
C7509 H7480 0.950 . S
C7509 C7508 1.397 . S
C7509 C7510 1.334 . S
C7510 H7481 0.950 . S
C7510 C7509 1.334 . S
C7510 C7511 1.287 . S
C7511 C7510 1.287 . S
C7511 C7512 1.524 . S
C7511 H7514 0.999 . S
C7512 H7482 0.950 . S
C7512 C7511 1.524 . S
C7512 C7513 1.415 . S
C7513 H7483 0.950 . S
C7513 C7508 1.363 . S
C7513 C7512 1.415 . S
H7514 C7511 0.999 . S
H7515 C7496 0.913 . S
H7516 C7534 0.951 . S
H7517 C7536 0.951 . S
H7518 C7538 0.950 . S
H7519 C7539 0.950 . S
H7520 C7541 0.950 . S
H7521 C7544 0.950 . S
H7522 C7545 0.950 . S
H7523 C7547 0.950 . S
H7524 C7548 0.950 . S
H7525 C7549 0.951 . S
H7526 C7551 0.951 . S
H7527 C7553 0.950 . S
H7528 C7554 0.950 . S
H7529 C7556 0.950 . S
H7530 C7559 0.950 . S
H7531 C7560 0.950 . S
H7532 C7562 0.950 . S
H7533 C7563 0.950 . S
C7534 H7516 0.951 . S
C7534 C7535 1.366 . S
C7534 C7536 1.388 . S
C7535 C7534 1.366 . S
C7535 C7539 1.385 . S
C7536 H7517 0.951 . S
C7536 C7534 1.388 . S
C7536 C7537 1.366 . S
C7537 C7536 1.366 . S
C7537 C7538 1.414 . S
C7537 C7540 1.499 . S
C7538 H7518 0.950 . S
C7538 C7537 1.414 . S
C7538 C7539 1.374 . S
C7539 H7519 0.950 . S
C7539 C7535 1.385 . S
C7539 C7538 1.374 . S
C7540 C7537 1.499 . S
C7540 C7541 1.373 . S
C7540 C7542 1.389 . S
C7541 H7520 0.950 . S
C7541 C7540 1.373 . S
C7541 C7557 1.377 . S
C7542 C7540 1.389 . S
C7542 C7543 1.524 . S
C7542 C7556 1.377 . S
C7543 C7542 1.524 . S
C7543 C7544 1.397 . S
C7543 C7548 1.363 . S
C7544 H7521 0.950 . S
C7544 C7543 1.397 . S
C7544 C7545 1.334 . S
C7545 H7522 0.950 . S
C7545 C7544 1.334 . S
C7545 C7546 1.287 . S
C7546 C7545 1.287 . S
C7546 C7547 1.524 . S
C7546 H7565 0.913 . S
C7547 H7523 0.950 . S
C7547 C7546 1.524 . S
C7547 C7548 1.415 . S
C7548 H7524 0.950 . S
C7548 C7543 1.363 . S
C7548 C7547 1.415 . S
C7549 H7525 0.951 . S
C7549 C7550 1.366 . S
C7549 C7551 1.388 . S
C7550 C7549 1.366 . S
C7550 C7554 1.385 . S
C7551 H7526 0.951 . S
C7551 C7549 1.388 . S
C7551 C7552 1.366 . S
C7552 C7551 1.366 . S
C7552 C7553 1.414 . S
C7552 C7555 1.499 . S
C7553 H7527 0.950 . S
C7553 C7552 1.414 . S
C7553 C7554 1.374 . S
C7554 H7528 0.950 . S
C7554 C7550 1.385 . S
C7554 C7553 1.374 . S
C7555 C7552 1.499 . S
C7555 C7556 1.373 . S
C7555 C7557 1.389 . S
C7556 H7529 0.950 . S
C7556 C7542 1.377 . S
C7556 C7555 1.373 . S
C7557 C7541 1.377 . S
C7557 C7555 1.389 . S
C7557 C7558 1.524 . S
C7558 C7557 1.524 . S
C7558 C7559 1.397 . S
C7558 C7563 1.363 . S
C7559 H7530 0.950 . S
C7559 C7558 1.397 . S
C7559 C7560 1.334 . S
C7560 H7531 0.950 . S
C7560 C7559 1.334 . S
C7560 C7561 1.287 . S
C7561 C7560 1.287 . S
C7561 C7562 1.524 . S
C7561 H7564 0.999 . S
C7562 H7532 0.950 . S
C7562 C7561 1.524 . S
C7562 C7563 1.415 . S
C7563 H7533 0.950 . S
C7563 C7558 1.363 . S
C7563 C7562 1.415 . S
H7564 C7561 0.999 . S
H7565 C7546 0.913 . S
H7566 C7584 0.951 . S
H7567 C7586 0.951 . S
H7568 C7588 0.950 . S
H7569 C7589 0.950 . S
H7570 C7591 0.950 . S
H7571 C7594 0.950 . S
H7572 C7595 0.950 . S
H7573 C7597 0.950 . S
H7574 C7598 0.950 . S
H7575 C7599 0.951 . S
H7576 C7601 0.951 . S
H7577 C7603 0.950 . S
H7578 C7604 0.950 . S
H7579 C7606 0.950 . S
H7580 C7609 0.950 . S
H7581 C7610 0.950 . S
H7582 C7612 0.950 . S
H7583 C7613 0.950 . S
C7584 H7566 0.951 . S
C7584 C7585 1.366 . S
C7584 C7586 1.388 . S
C7585 C7584 1.366 . S
C7585 C7589 1.385 . S
C7586 H7567 0.951 . S
C7586 C7584 1.388 . S
C7586 C7587 1.366 . S
C7587 C7586 1.366 . S
C7587 C7588 1.414 . S
C7587 C7590 1.499 . S
C7588 H7568 0.950 . S
C7588 C7587 1.414 . S
C7588 C7589 1.374 . S
C7589 H7569 0.950 . S
C7589 C7585 1.385 . S
C7589 C7588 1.374 . S
C7590 C7587 1.499 . S
C7590 C7591 1.373 . S
C7590 C7592 1.389 . S
C7591 H7570 0.950 . S
C7591 C7590 1.373 . S
C7591 C7607 1.377 . S
C7592 C7590 1.389 . S
C7592 C7593 1.524 . S
C7592 C7606 1.377 . S
C7593 C7592 1.524 . S
C7593 C7594 1.397 . S
C7593 C7598 1.363 . S
C7594 H7571 0.950 . S
C7594 C7593 1.397 . S
C7594 C7595 1.334 . S
C7595 H7572 0.950 . S
C7595 C7594 1.334 . S
C7595 C7596 1.287 . S
C7596 C7595 1.287 . S
C7596 C7597 1.524 . S
C7596 H7615 0.913 . S
C7597 H7573 0.950 . S
C7597 C7596 1.524 . S
C7597 C7598 1.415 . S
C7598 H7574 0.950 . S
C7598 C7593 1.363 . S
C7598 C7597 1.415 . S
C7599 H7575 0.951 . S
C7599 C7600 1.366 . S
C7599 C7601 1.388 . S
C7600 C7599 1.366 . S
C7600 C7604 1.385 . S
C7601 H7576 0.951 . S
C7601 C7599 1.388 . S
C7601 C7602 1.366 . S
C7602 C7601 1.366 . S
C7602 C7603 1.414 . S
C7602 C7605 1.499 . S
C7603 H7577 0.950 . S
C7603 C7602 1.414 . S
C7603 C7604 1.374 . S
C7604 H7578 0.950 . S
C7604 C7600 1.385 . S
C7604 C7603 1.374 . S
C7605 C7602 1.499 . S
C7605 C7606 1.373 . S
C7605 C7607 1.389 . S
C7606 H7579 0.950 . S
C7606 C7592 1.377 . S
C7606 C7605 1.373 . S
C7607 C7591 1.377 . S
C7607 C7605 1.389 . S
C7607 C7608 1.524 . S
C7608 C7607 1.524 . S
C7608 C7609 1.397 . S
C7608 C7613 1.363 . S
C7609 H7580 0.950 . S
C7609 C7608 1.397 . S
C7609 C7610 1.334 . S
C7610 H7581 0.950 . S
C7610 C7609 1.334 . S
C7610 C7611 1.287 . S
C7611 C7610 1.287 . S
C7611 C7612 1.524 . S
C7611 H7614 0.999 . S
C7612 H7582 0.950 . S
C7612 C7611 1.524 . S
C7612 C7613 1.415 . S
C7613 H7583 0.950 . S
C7613 C7608 1.363 . S
C7613 C7612 1.415 . S
H7614 C7611 0.999 . S
H7615 C7596 0.913 . S
H7616 C7634 0.951 . S
H7617 C7636 0.951 . S
H7618 C7638 0.950 . S
H7619 C7639 0.950 . S
H7620 C7641 0.950 . S
H7621 C7644 0.950 . S
H7622 C7645 0.950 . S
H7623 C7647 0.950 . S
H7624 C7648 0.950 . S
H7625 C7649 0.951 . S
H7626 C7651 0.951 . S
H7627 C7653 0.950 . S
H7628 C7654 0.950 . S
H7629 C7656 0.950 . S
H7630 C7659 0.950 . S
H7631 C7660 0.950 . S
H7632 C7662 0.950 . S
H7633 C7663 0.950 . S
C7634 H7616 0.951 . S
C7634 C7635 1.366 . S
C7634 C7636 1.388 . S
C7635 C7634 1.366 . S
C7635 C7639 1.385 . S
C7636 H7617 0.951 . S
C7636 C7634 1.388 . S
C7636 C7637 1.366 . S
C7637 C7636 1.366 . S
C7637 C7638 1.414 . S
C7637 C7640 1.499 . S
C7638 H7618 0.950 . S
C7638 C7637 1.414 . S
C7638 C7639 1.374 . S
C7639 H7619 0.950 . S
C7639 C7635 1.385 . S
C7639 C7638 1.374 . S
C7640 C7637 1.499 . S
C7640 C7641 1.373 . S
C7640 C7642 1.389 . S
C7641 H7620 0.950 . S
C7641 C7640 1.373 . S
C7641 C7657 1.377 . S
C7642 C7640 1.389 . S
C7642 C7643 1.524 . S
C7642 C7656 1.377 . S
C7643 C7642 1.524 . S
C7643 C7644 1.397 . S
C7643 C7648 1.363 . S
C7644 H7621 0.950 . S
C7644 C7643 1.397 . S
C7644 C7645 1.334 . S
C7645 H7622 0.950 . S
C7645 C7644 1.334 . S
C7645 C7646 1.287 . S
C7646 C7645 1.287 . S
C7646 C7647 1.524 . S
C7646 H7665 0.913 . S
C7647 H7623 0.950 . S
C7647 C7646 1.524 . S
C7647 C7648 1.415 . S
C7648 H7624 0.950 . S
C7648 C7643 1.363 . S
C7648 C7647 1.415 . S
C7649 H7625 0.951 . S
C7649 C7650 1.366 . S
C7649 C7651 1.388 . S
C7650 C7649 1.366 . S
C7650 C7654 1.385 . S
C7651 H7626 0.951 . S
C7651 C7649 1.388 . S
C7651 C7652 1.366 . S
C7652 C7651 1.366 . S
C7652 C7653 1.414 . S
C7652 C7655 1.499 . S
C7653 H7627 0.950 . S
C7653 C7652 1.414 . S
C7653 C7654 1.374 . S
C7654 H7628 0.950 . S
C7654 C7650 1.385 . S
C7654 C7653 1.374 . S
C7655 C7652 1.499 . S
C7655 C7656 1.373 . S
C7655 C7657 1.389 . S
C7656 H7629 0.950 . S
C7656 C7642 1.377 . S
C7656 C7655 1.373 . S
C7657 C7641 1.377 . S
C7657 C7655 1.389 . S
C7657 C7658 1.524 . S
C7658 C7657 1.524 . S
C7658 C7659 1.397 . S
C7658 C7663 1.363 . S
C7659 H7630 0.950 . S
C7659 C7658 1.397 . S
C7659 C7660 1.334 . S
C7660 H7631 0.950 . S
C7660 C7659 1.334 . S
C7660 C7661 1.287 . S
C7661 C7660 1.287 . S
C7661 C7662 1.524 . S
C7661 H7664 0.999 . S
C7662 H7632 0.950 . S
C7662 C7661 1.524 . S
C7662 C7663 1.415 . S
C7663 H7633 0.950 . S
C7663 C7658 1.363 . S
C7663 C7662 1.415 . S
H7664 C7661 0.999 . S
H7665 C7646 0.913 . S
H7666 C7684 0.951 . S
H7667 C7686 0.951 . S
H7668 C7688 0.950 . S
H7669 C7689 0.950 . S
H7670 C7691 0.950 . S
H7671 C7694 0.950 . S
H7672 C7695 0.950 . S
H7673 C7697 0.950 . S
H7674 C7698 0.950 . S
H7675 C7699 0.951 . S
H7676 C7701 0.951 . S
H7677 C7703 0.950 . S
H7678 C7704 0.950 . S
H7679 C7706 0.950 . S
H7680 C7709 0.950 . S
H7681 C7710 0.950 . S
H7682 C7712 0.950 . S
H7683 C7713 0.950 . S
C7684 H7666 0.951 . S
C7684 C7685 1.366 . S
C7684 C7686 1.388 . S
C7685 C7684 1.366 . S
C7685 C7689 1.385 . S
C7686 H7667 0.951 . S
C7686 C7684 1.388 . S
C7686 C7687 1.366 . S
C7687 C7686 1.366 . S
C7687 C7688 1.414 . S
C7687 C7690 1.499 . S
C7688 H7668 0.950 . S
C7688 C7687 1.414 . S
C7688 C7689 1.374 . S
C7689 H7669 0.950 . S
C7689 C7685 1.385 . S
C7689 C7688 1.374 . S
C7690 C7687 1.499 . S
C7690 C7691 1.373 . S
C7690 C7692 1.389 . S
C7691 H7670 0.950 . S
C7691 C7690 1.373 . S
C7691 C7707 1.377 . S
C7692 C7690 1.389 . S
C7692 C7693 1.524 . S
C7692 C7706 1.377 . S
C7693 C7692 1.524 . S
C7693 C7694 1.397 . S
C7693 C7698 1.363 . S
C7694 H7671 0.950 . S
C7694 C7693 1.397 . S
C7694 C7695 1.334 . S
C7695 H7672 0.950 . S
C7695 C7694 1.334 . S
C7695 C7696 1.287 . S
C7696 C7695 1.287 . S
C7696 C7697 1.524 . S
C7696 H7715 0.913 . S
C7697 H7673 0.950 . S
C7697 C7696 1.524 . S
C7697 C7698 1.415 . S
C7698 H7674 0.950 . S
C7698 C7693 1.363 . S
C7698 C7697 1.415 . S
C7699 H7675 0.951 . S
C7699 C7700 1.366 . S
C7699 C7701 1.388 . S
C7700 C7699 1.366 . S
C7700 C7704 1.385 . S
C7701 H7676 0.951 . S
C7701 C7699 1.388 . S
C7701 C7702 1.366 . S
C7702 C7701 1.366 . S
C7702 C7703 1.414 . S
C7702 C7705 1.499 . S
C7703 H7677 0.950 . S
C7703 C7702 1.414 . S
C7703 C7704 1.374 . S
C7704 H7678 0.950 . S
C7704 C7700 1.385 . S
C7704 C7703 1.374 . S
C7705 C7702 1.499 . S
C7705 C7706 1.373 . S
C7705 C7707 1.389 . S
C7706 H7679 0.950 . S
C7706 C7692 1.377 . S
C7706 C7705 1.373 . S
C7707 C7691 1.377 . S
C7707 C7705 1.389 . S
C7707 C7708 1.524 . S
C7708 C7707 1.524 . S
C7708 C7709 1.397 . S
C7708 C7713 1.363 . S
C7709 H7680 0.950 . S
C7709 C7708 1.397 . S
C7709 C7710 1.334 . S
C7710 H7681 0.950 . S
C7710 C7709 1.334 . S
C7710 C7711 1.287 . S
C7711 C7710 1.287 . S
C7711 C7712 1.524 . S
C7711 H7714 0.999 . S
C7712 H7682 0.950 . S
C7712 C7711 1.524 . S
C7712 C7713 1.415 . S
C7713 H7683 0.950 . S
C7713 C7708 1.363 . S
C7713 C7712 1.415 . S
H7714 C7711 0.999 . S
H7715 C7696 0.913 . S
H7716 C7734 0.951 . S
H7717 C7736 0.951 . S
H7718 C7738 0.950 . S
H7719 C7739 0.950 . S
H7720 C7741 0.950 . S
H7721 C7744 0.950 . S
H7722 C7745 0.950 . S
H7723 C7747 0.950 . S
H7724 C7748 0.950 . S
H7725 C7749 0.951 . S
H7726 C7751 0.951 . S
H7727 C7753 0.950 . S
H7728 C7754 0.950 . S
H7729 C7756 0.950 . S
H7730 C7759 0.950 . S
H7731 C7760 0.950 . S
H7732 C7762 0.950 . S
H7733 C7763 0.950 . S
C7734 H7716 0.951 . S
C7734 C7735 1.366 . S
C7734 C7736 1.388 . S
C7735 C7734 1.366 . S
C7735 C7739 1.385 . S
C7736 H7717 0.951 . S
C7736 C7734 1.388 . S
C7736 C7737 1.366 . S
C7737 C7736 1.366 . S
C7737 C7738 1.414 . S
C7737 C7740 1.499 . S
C7738 H7718 0.950 . S
C7738 C7737 1.414 . S
C7738 C7739 1.374 . S
C7739 H7719 0.950 . S
C7739 C7735 1.385 . S
C7739 C7738 1.374 . S
C7740 C7737 1.499 . S
C7740 C7741 1.373 . S
C7740 C7742 1.389 . S
C7741 H7720 0.950 . S
C7741 C7740 1.373 . S
C7741 C7757 1.377 . S
C7742 C7740 1.389 . S
C7742 C7743 1.524 . S
C7742 C7756 1.377 . S
C7743 C7742 1.524 . S
C7743 C7744 1.397 . S
C7743 C7748 1.363 . S
C7744 H7721 0.950 . S
C7744 C7743 1.397 . S
C7744 C7745 1.334 . S
C7745 H7722 0.950 . S
C7745 C7744 1.334 . S
C7745 C7746 1.287 . S
C7746 C7745 1.287 . S
C7746 C7747 1.524 . S
C7746 H7765 0.913 . S
C7747 H7723 0.950 . S
C7747 C7746 1.524 . S
C7747 C7748 1.415 . S
C7748 H7724 0.950 . S
C7748 C7743 1.363 . S
C7748 C7747 1.415 . S
C7749 H7725 0.951 . S
C7749 C7750 1.366 . S
C7749 C7751 1.388 . S
C7750 C7749 1.366 . S
C7750 C7754 1.385 . S
C7751 H7726 0.951 . S
C7751 C7749 1.388 . S
C7751 C7752 1.366 . S
C7752 C7751 1.366 . S
C7752 C7753 1.414 . S
C7752 C7755 1.499 . S
C7753 H7727 0.950 . S
C7753 C7752 1.414 . S
C7753 C7754 1.374 . S
C7754 H7728 0.950 . S
C7754 C7750 1.385 . S
C7754 C7753 1.374 . S
C7755 C7752 1.499 . S
C7755 C7756 1.373 . S
C7755 C7757 1.389 . S
C7756 H7729 0.950 . S
C7756 C7742 1.377 . S
C7756 C7755 1.373 . S
C7757 C7741 1.377 . S
C7757 C7755 1.389 . S
C7757 C7758 1.524 . S
C7758 C7757 1.524 . S
C7758 C7759 1.397 . S
C7758 C7763 1.363 . S
C7759 H7730 0.950 . S
C7759 C7758 1.397 . S
C7759 C7760 1.334 . S
C7760 H7731 0.950 . S
C7760 C7759 1.334 . S
C7760 C7761 1.287 . S
C7761 C7760 1.287 . S
C7761 C7762 1.524 . S
C7761 H7764 0.999 . S
C7762 H7732 0.950 . S
C7762 C7761 1.524 . S
C7762 C7763 1.415 . S
C7763 H7733 0.950 . S
C7763 C7758 1.363 . S
C7763 C7762 1.415 . S
H7764 C7761 0.999 . S
H7765 C7746 0.913 . S
H7766 C7784 0.951 . S
H7767 C7786 0.951 . S
H7768 C7788 0.950 . S
H7769 C7789 0.950 . S
H7770 C7791 0.950 . S
H7771 C7794 0.950 . S
H7772 C7795 0.950 . S
H7773 C7797 0.950 . S
H7774 C7798 0.950 . S
H7775 C7799 0.951 . S
H7776 C7801 0.951 . S
H7777 C7803 0.950 . S
H7778 C7804 0.950 . S
H7779 C7806 0.950 . S
H7780 C7809 0.950 . S
H7781 C7810 0.950 . S
H7782 C7812 0.950 . S
H7783 C7813 0.950 . S
C7784 H7766 0.951 . S
C7784 C7785 1.366 . S
C7784 C7786 1.388 . S
C7785 C7784 1.366 . S
C7785 C7789 1.385 . S
C7786 H7767 0.951 . S
C7786 C7784 1.388 . S
C7786 C7787 1.366 . S
C7787 C7786 1.366 . S
C7787 C7788 1.414 . S
C7787 C7790 1.499 . S
C7788 H7768 0.950 . S
C7788 C7787 1.414 . S
C7788 C7789 1.374 . S
C7789 H7769 0.950 . S
C7789 C7785 1.385 . S
C7789 C7788 1.374 . S
C7790 C7787 1.499 . S
C7790 C7791 1.373 . S
C7790 C7792 1.389 . S
C7791 H7770 0.950 . S
C7791 C7790 1.373 . S
C7791 C7807 1.377 . S
C7792 C7790 1.389 . S
C7792 C7793 1.524 . S
C7792 C7806 1.377 . S
C7793 C7792 1.524 . S
C7793 C7794 1.397 . S
C7793 C7798 1.363 . S
C7794 H7771 0.950 . S
C7794 C7793 1.397 . S
C7794 C7795 1.334 . S
C7795 H7772 0.950 . S
C7795 C7794 1.334 . S
C7795 C7796 1.287 . S
C7796 C7795 1.287 . S
C7796 C7797 1.524 . S
C7796 H7815 0.913 . S
C7797 H7773 0.950 . S
C7797 C7796 1.524 . S
C7797 C7798 1.415 . S
C7798 H7774 0.950 . S
C7798 C7793 1.363 . S
C7798 C7797 1.415 . S
C7799 H7775 0.951 . S
C7799 C7800 1.366 . S
C7799 C7801 1.388 . S
C7800 C7799 1.366 . S
C7800 C7804 1.385 . S
C7801 H7776 0.951 . S
C7801 C7799 1.388 . S
C7801 C7802 1.366 . S
C7802 C7801 1.366 . S
C7802 C7803 1.414 . S
C7802 C7805 1.499 . S
C7803 H7777 0.950 . S
C7803 C7802 1.414 . S
C7803 C7804 1.374 . S
C7804 H7778 0.950 . S
C7804 C7800 1.385 . S
C7804 C7803 1.374 . S
C7805 C7802 1.499 . S
C7805 C7806 1.373 . S
C7805 C7807 1.389 . S
C7806 H7779 0.950 . S
C7806 C7792 1.377 . S
C7806 C7805 1.373 . S
C7807 C7791 1.377 . S
C7807 C7805 1.389 . S
C7807 C7808 1.524 . S
C7808 C7807 1.524 . S
C7808 C7809 1.397 . S
C7808 C7813 1.363 . S
C7809 H7780 0.950 . S
C7809 C7808 1.397 . S
C7809 C7810 1.334 . S
C7810 H7781 0.950 . S
C7810 C7809 1.334 . S
C7810 C7811 1.287 . S
C7811 C7810 1.287 . S
C7811 C7812 1.524 . S
C7811 H7814 0.999 . S
C7812 H7782 0.950 . S
C7812 C7811 1.524 . S
C7812 C7813 1.415 . S
C7813 H7783 0.950 . S
C7813 C7808 1.363 . S
C7813 C7812 1.415 . S
H7814 C7811 0.999 . S
H7815 C7796 0.913 . S
H7816 C7834 0.951 . S
H7817 C7836 0.951 . S
H7818 C7838 0.950 . S
H7819 C7839 0.950 . S
H7820 C7841 0.950 . S
H7821 C7844 0.950 . S
H7822 C7845 0.950 . S
H7823 C7847 0.950 . S
H7824 C7848 0.950 . S
H7825 C7849 0.951 . S
H7826 C7851 0.951 . S
H7827 C7853 0.950 . S
H7828 C7854 0.950 . S
H7829 C7856 0.950 . S
H7830 C7859 0.950 . S
H7831 C7860 0.950 . S
H7832 C7862 0.950 . S
H7833 C7863 0.950 . S
C7834 H7816 0.951 . S
C7834 C7835 1.366 . S
C7834 C7836 1.388 . S
C7835 C7834 1.366 . S
C7835 C7839 1.385 . S
C7836 H7817 0.951 . S
C7836 C7834 1.388 . S
C7836 C7837 1.366 . S
C7837 C7836 1.366 . S
C7837 C7838 1.414 . S
C7837 C7840 1.499 . S
C7838 H7818 0.950 . S
C7838 C7837 1.414 . S
C7838 C7839 1.374 . S
C7839 H7819 0.950 . S
C7839 C7835 1.385 . S
C7839 C7838 1.374 . S
C7840 C7837 1.499 . S
C7840 C7841 1.373 . S
C7840 C7842 1.389 . S
C7841 H7820 0.950 . S
C7841 C7840 1.373 . S
C7841 C7857 1.377 . S
C7842 C7840 1.389 . S
C7842 C7843 1.524 . S
C7842 C7856 1.377 . S
C7843 C7842 1.524 . S
C7843 C7844 1.397 . S
C7843 C7848 1.363 . S
C7844 H7821 0.950 . S
C7844 C7843 1.397 . S
C7844 C7845 1.334 . S
C7845 H7822 0.950 . S
C7845 C7844 1.334 . S
C7845 C7846 1.287 . S
C7846 C7845 1.287 . S
C7846 C7847 1.524 . S
C7846 H7865 0.913 . S
C7847 H7823 0.950 . S
C7847 C7846 1.524 . S
C7847 C7848 1.415 . S
C7848 H7824 0.950 . S
C7848 C7843 1.363 . S
C7848 C7847 1.415 . S
C7849 H7825 0.951 . S
C7849 C7850 1.366 . S
C7849 C7851 1.388 . S
C7850 C7849 1.366 . S
C7850 C7854 1.385 . S
C7851 H7826 0.951 . S
C7851 C7849 1.388 . S
C7851 C7852 1.366 . S
C7852 C7851 1.366 . S
C7852 C7853 1.414 . S
C7852 C7855 1.499 . S
C7853 H7827 0.950 . S
C7853 C7852 1.414 . S
C7853 C7854 1.374 . S
C7854 H7828 0.950 . S
C7854 C7850 1.385 . S
C7854 C7853 1.374 . S
C7855 C7852 1.499 . S
C7855 C7856 1.373 . S
C7855 C7857 1.389 . S
C7856 H7829 0.950 . S
C7856 C7842 1.377 . S
C7856 C7855 1.373 . S
C7857 C7841 1.377 . S
C7857 C7855 1.389 . S
C7857 C7858 1.524 . S
C7858 C7857 1.524 . S
C7858 C7859 1.397 . S
C7858 C7863 1.363 . S
C7859 H7830 0.950 . S
C7859 C7858 1.397 . S
C7859 C7860 1.334 . S
C7860 H7831 0.950 . S
C7860 C7859 1.334 . S
C7860 C7861 1.287 . S
C7861 C7860 1.287 . S
C7861 C7862 1.524 . S
C7861 H7864 0.999 . S
C7862 H7832 0.950 . S
C7862 C7861 1.524 . S
C7862 C7863 1.415 . S
C7863 H7833 0.950 . S
C7863 C7858 1.363 . S
C7863 C7862 1.415 . S
H7864 C7861 0.999 . S
H7865 C7846 0.913 . S
H7866 C7884 0.951 . S
H7867 C7886 0.951 . S
H7868 C7888 0.950 . S
H7869 C7889 0.950 . S
H7870 C7891 0.950 . S
H7871 C7894 0.950 . S
H7872 C7895 0.950 . S
H7873 C7897 0.950 . S
H7874 C7898 0.950 . S
H7875 C7899 0.951 . S
H7876 C7901 0.951 . S
H7877 C7903 0.950 . S
H7878 C7904 0.950 . S
H7879 C7906 0.950 . S
H7880 C7909 0.950 . S
H7881 C7910 0.950 . S
H7882 C7912 0.950 . S
H7883 C7913 0.950 . S
C7884 H7866 0.951 . S
C7884 C7885 1.366 . S
C7884 C7886 1.388 . S
C7885 C7884 1.366 . S
C7885 C7889 1.385 . S
C7886 H7867 0.951 . S
C7886 C7884 1.388 . S
C7886 C7887 1.366 . S
C7887 C7886 1.366 . S
C7887 C7888 1.414 . S
C7887 C7890 1.499 . S
C7888 H7868 0.950 . S
C7888 C7887 1.414 . S
C7888 C7889 1.374 . S
C7889 H7869 0.950 . S
C7889 C7885 1.385 . S
C7889 C7888 1.374 . S
C7890 C7887 1.499 . S
C7890 C7891 1.373 . S
C7890 C7892 1.389 . S
C7891 H7870 0.950 . S
C7891 C7890 1.373 . S
C7891 C7907 1.377 . S
C7892 C7890 1.389 . S
C7892 C7893 1.524 . S
C7892 C7906 1.377 . S
C7893 C7892 1.524 . S
C7893 C7894 1.397 . S
C7893 C7898 1.363 . S
C7894 H7871 0.950 . S
C7894 C7893 1.397 . S
C7894 C7895 1.334 . S
C7895 H7872 0.950 . S
C7895 C7894 1.334 . S
C7895 C7896 1.287 . S
C7896 C7895 1.287 . S
C7896 C7897 1.524 . S
C7896 H7915 0.913 . S
C7897 H7873 0.950 . S
C7897 C7896 1.524 . S
C7897 C7898 1.415 . S
C7898 H7874 0.950 . S
C7898 C7893 1.363 . S
C7898 C7897 1.415 . S
C7899 H7875 0.951 . S
C7899 C7900 1.366 . S
C7899 C7901 1.388 . S
C7900 C7899 1.366 . S
C7900 C7904 1.385 . S
C7901 H7876 0.951 . S
C7901 C7899 1.388 . S
C7901 C7902 1.366 . S
C7902 C7901 1.366 . S
C7902 C7903 1.414 . S
C7902 C7905 1.499 . S
C7903 H7877 0.950 . S
C7903 C7902 1.414 . S
C7903 C7904 1.374 . S
C7904 H7878 0.950 . S
C7904 C7900 1.385 . S
C7904 C7903 1.374 . S
C7905 C7902 1.499 . S
C7905 C7906 1.373 . S
C7905 C7907 1.389 . S
C7906 H7879 0.950 . S
C7906 C7892 1.377 . S
C7906 C7905 1.373 . S
C7907 C7891 1.377 . S
C7907 C7905 1.389 . S
C7907 C7908 1.524 . S
C7908 C7907 1.524 . S
C7908 C7909 1.397 . S
C7908 C7913 1.363 . S
C7909 H7880 0.950 . S
C7909 C7908 1.397 . S
C7909 C7910 1.334 . S
C7910 H7881 0.950 . S
C7910 C7909 1.334 . S
C7910 C7911 1.287 . S
C7911 C7910 1.287 . S
C7911 C7912 1.524 . S
C7911 H7914 0.999 . S
C7912 H7882 0.950 . S
C7912 C7911 1.524 . S
C7912 C7913 1.415 . S
C7913 H7883 0.950 . S
C7913 C7908 1.363 . S
C7913 C7912 1.415 . S
H7914 C7911 0.999 . S
H7915 C7896 0.913 . S
H7916 C7934 0.951 . S
H7917 C7936 0.951 . S
H7918 C7938 0.950 . S
H7919 C7939 0.950 . S
H7920 C7941 0.950 . S
H7921 C7944 0.950 . S
H7922 C7945 0.950 . S
H7923 C7947 0.950 . S
H7924 C7948 0.950 . S
H7925 C7949 0.951 . S
H7926 C7951 0.951 . S
H7927 C7953 0.950 . S
H7928 C7954 0.950 . S
H7929 C7956 0.950 . S
H7930 C7959 0.950 . S
H7931 C7960 0.950 . S
H7932 C7962 0.950 . S
H7933 C7963 0.950 . S
C7934 H7916 0.951 . S
C7934 C7935 1.366 . S
C7934 C7936 1.388 . S
C7935 C7934 1.366 . S
C7935 C7939 1.385 . S
C7936 H7917 0.951 . S
C7936 C7934 1.388 . S
C7936 C7937 1.366 . S
C7937 C7936 1.366 . S
C7937 C7938 1.414 . S
C7937 C7940 1.499 . S
C7938 H7918 0.950 . S
C7938 C7937 1.414 . S
C7938 C7939 1.374 . S
C7939 H7919 0.950 . S
C7939 C7935 1.385 . S
C7939 C7938 1.374 . S
C7940 C7937 1.499 . S
C7940 C7941 1.373 . S
C7940 C7942 1.389 . S
C7941 H7920 0.950 . S
C7941 C7940 1.373 . S
C7941 C7957 1.377 . S
C7942 C7940 1.389 . S
C7942 C7943 1.524 . S
C7942 C7956 1.377 . S
C7943 C7942 1.524 . S
C7943 C7944 1.397 . S
C7943 C7948 1.363 . S
C7944 H7921 0.950 . S
C7944 C7943 1.397 . S
C7944 C7945 1.334 . S
C7945 H7922 0.950 . S
C7945 C7944 1.334 . S
C7945 C7946 1.287 . S
C7946 C7945 1.287 . S
C7946 C7947 1.524 . S
C7946 H7965 0.913 . S
C7947 H7923 0.950 . S
C7947 C7946 1.524 . S
C7947 C7948 1.415 . S
C7948 H7924 0.950 . S
C7948 C7943 1.363 . S
C7948 C7947 1.415 . S
C7949 H7925 0.951 . S
C7949 C7950 1.366 . S
C7949 C7951 1.388 . S
C7950 C7949 1.366 . S
C7950 C7954 1.385 . S
C7951 H7926 0.951 . S
C7951 C7949 1.388 . S
C7951 C7952 1.366 . S
C7952 C7951 1.366 . S
C7952 C7953 1.414 . S
C7952 C7955 1.499 . S
C7953 H7927 0.950 . S
C7953 C7952 1.414 . S
C7953 C7954 1.374 . S
C7954 H7928 0.950 . S
C7954 C7950 1.385 . S
C7954 C7953 1.374 . S
C7955 C7952 1.499 . S
C7955 C7956 1.373 . S
C7955 C7957 1.389 . S
C7956 H7929 0.950 . S
C7956 C7942 1.377 . S
C7956 C7955 1.373 . S
C7957 C7941 1.377 . S
C7957 C7955 1.389 . S
C7957 C7958 1.524 . S
C7958 C7957 1.524 . S
C7958 C7959 1.397 . S
C7958 C7963 1.363 . S
C7959 H7930 0.950 . S
C7959 C7958 1.397 . S
C7959 C7960 1.334 . S
C7960 H7931 0.950 . S
C7960 C7959 1.334 . S
C7960 C7961 1.287 . S
C7961 C7960 1.287 . S
C7961 C7962 1.524 . S
C7961 H7964 0.999 . S
C7962 H7932 0.950 . S
C7962 C7961 1.524 . S
C7962 C7963 1.415 . S
C7963 H7933 0.950 . S
C7963 C7958 1.363 . S
C7963 C7962 1.415 . S
H7964 C7961 0.999 . S
H7965 C7946 0.913 . S
H7966 C7984 0.951 . S
H7967 C7986 0.951 . S
H7968 C7988 0.950 . S
H7969 C7989 0.950 . S
H7970 C7991 0.950 . S
H7971 C7994 0.950 . S
H7972 C7995 0.950 . S
H7973 C7997 0.950 . S
H7974 C7998 0.950 . S
H7975 C7999 0.951 . S
H7976 C8001 0.951 . S
H7977 C8003 0.950 . S
H7978 C8004 0.950 . S
H7979 C8006 0.950 . S
H7980 C8009 0.950 . S
H7981 C8010 0.950 . S
H7982 C8012 0.950 . S
H7983 C8013 0.950 . S
C7984 H7966 0.951 . S
C7984 C7985 1.366 . S
C7984 C7986 1.388 . S
C7985 C7984 1.366 . S
C7985 C7989 1.385 . S
C7986 H7967 0.951 . S
C7986 C7984 1.388 . S
C7986 C7987 1.366 . S
C7987 C7986 1.366 . S
C7987 C7988 1.414 . S
C7987 C7990 1.499 . S
C7988 H7968 0.950 . S
C7988 C7987 1.414 . S
C7988 C7989 1.374 . S
C7989 H7969 0.950 . S
C7989 C7985 1.385 . S
C7989 C7988 1.374 . S
C7990 C7987 1.499 . S
C7990 C7991 1.373 . S
C7990 C7992 1.389 . S
C7991 H7970 0.950 . S
C7991 C7990 1.373 . S
C7991 C8007 1.377 . S
C7992 C7990 1.389 . S
C7992 C7993 1.524 . S
C7992 C8006 1.377 . S
C7993 C7992 1.524 . S
C7993 C7994 1.397 . S
C7993 C7998 1.363 . S
C7994 H7971 0.950 . S
C7994 C7993 1.397 . S
C7994 C7995 1.334 . S
C7995 H7972 0.950 . S
C7995 C7994 1.334 . S
C7995 C7996 1.287 . S
C7996 C7995 1.287 . S
C7996 C7997 1.524 . S
C7996 H8015 0.913 . S
C7997 H7973 0.950 . S
C7997 C7996 1.524 . S
C7997 C7998 1.415 . S
C7998 H7974 0.950 . S
C7998 C7993 1.363 . S
C7998 C7997 1.415 . S
C7999 H7975 0.951 . S
C7999 C8000 1.366 . S
C7999 C8001 1.388 . S
C8000 C7999 1.366 . S
C8000 C8004 1.385 . S
C8001 H7976 0.951 . S
C8001 C7999 1.388 . S
C8001 C8002 1.366 . S
C8002 C8001 1.366 . S
C8002 C8003 1.414 . S
C8002 C8005 1.499 . S
C8003 H7977 0.950 . S
C8003 C8002 1.414 . S
C8003 C8004 1.374 . S
C8004 H7978 0.950 . S
C8004 C8000 1.385 . S
C8004 C8003 1.374 . S
C8005 C8002 1.499 . S
C8005 C8006 1.373 . S
C8005 C8007 1.389 . S
C8006 H7979 0.950 . S
C8006 C7992 1.377 . S
C8006 C8005 1.373 . S
C8007 C7991 1.377 . S
C8007 C8005 1.389 . S
C8007 C8008 1.524 . S
C8008 C8007 1.524 . S
C8008 C8009 1.397 . S
C8008 C8013 1.363 . S
C8009 H7980 0.950 . S
C8009 C8008 1.397 . S
C8009 C8010 1.334 . S
C8010 H7981 0.950 . S
C8010 C8009 1.334 . S
C8010 C8011 1.287 . S
C8011 C8010 1.287 . S
C8011 C8012 1.524 . S
C8011 H8014 0.999 . S
C8012 H7982 0.950 . S
C8012 C8011 1.524 . S
C8012 C8013 1.415 . S
C8013 H7983 0.950 . S
C8013 C8008 1.363 . S
C8013 C8012 1.415 . S
H8014 C8011 0.999 . S
H8015 C7996 0.913 . S
H8016 C8034 0.951 . S
H8017 C8036 0.951 . S
H8018 C8038 0.950 . S
H8019 C8039 0.950 . S
H8020 C8041 0.950 . S
H8021 C8044 0.950 . S
H8022 C8045 0.950 . S
H8023 C8047 0.950 . S
H8024 C8048 0.950 . S
H8025 C8049 0.951 . S
H8026 C8051 0.951 . S
H8027 C8053 0.950 . S
H8028 C8054 0.950 . S
H8029 C8056 0.950 . S
H8030 C8059 0.950 . S
H8031 C8060 0.950 . S
H8032 C8062 0.950 . S
H8033 C8063 0.950 . S
C8034 H8016 0.951 . S
C8034 C8035 1.366 . S
C8034 C8036 1.388 . S
C8035 C8034 1.366 . S
C8035 C8039 1.385 . S
C8036 H8017 0.951 . S
C8036 C8034 1.388 . S
C8036 C8037 1.366 . S
C8037 C8036 1.366 . S
C8037 C8038 1.414 . S
C8037 C8040 1.499 . S
C8038 H8018 0.950 . S
C8038 C8037 1.414 . S
C8038 C8039 1.374 . S
C8039 H8019 0.950 . S
C8039 C8035 1.385 . S
C8039 C8038 1.374 . S
C8040 C8037 1.499 . S
C8040 C8041 1.373 . S
C8040 C8042 1.389 . S
C8041 H8020 0.950 . S
C8041 C8040 1.373 . S
C8041 C8057 1.377 . S
C8042 C8040 1.389 . S
C8042 C8043 1.524 . S
C8042 C8056 1.377 . S
C8043 C8042 1.524 . S
C8043 C8044 1.397 . S
C8043 C8048 1.363 . S
C8044 H8021 0.950 . S
C8044 C8043 1.397 . S
C8044 C8045 1.334 . S
C8045 H8022 0.950 . S
C8045 C8044 1.334 . S
C8045 C8046 1.287 . S
C8046 C8045 1.287 . S
C8046 C8047 1.524 . S
C8046 H8065 0.913 . S
C8047 H8023 0.950 . S
C8047 C8046 1.524 . S
C8047 C8048 1.415 . S
C8048 H8024 0.950 . S
C8048 C8043 1.363 . S
C8048 C8047 1.415 . S
C8049 H8025 0.951 . S
C8049 C8050 1.366 . S
C8049 C8051 1.388 . S
C8050 C8049 1.366 . S
C8050 C8054 1.385 . S
C8051 H8026 0.951 . S
C8051 C8049 1.388 . S
C8051 C8052 1.366 . S
C8052 C8051 1.366 . S
C8052 C8053 1.414 . S
C8052 C8055 1.499 . S
C8053 H8027 0.950 . S
C8053 C8052 1.414 . S
C8053 C8054 1.374 . S
C8054 H8028 0.950 . S
C8054 C8050 1.385 . S
C8054 C8053 1.374 . S
C8055 C8052 1.499 . S
C8055 C8056 1.373 . S
C8055 C8057 1.389 . S
C8056 H8029 0.950 . S
C8056 C8042 1.377 . S
C8056 C8055 1.373 . S
C8057 C8041 1.377 . S
C8057 C8055 1.389 . S
C8057 C8058 1.524 . S
C8058 C8057 1.524 . S
C8058 C8059 1.397 . S
C8058 C8063 1.363 . S
C8059 H8030 0.950 . S
C8059 C8058 1.397 . S
C8059 C8060 1.334 . S
C8060 H8031 0.950 . S
C8060 C8059 1.334 . S
C8060 C8061 1.287 . S
C8061 C8060 1.287 . S
C8061 C8062 1.524 . S
C8061 H8064 0.999 . S
C8062 H8032 0.950 . S
C8062 C8061 1.524 . S
C8062 C8063 1.415 . S
C8063 H8033 0.950 . S
C8063 C8058 1.363 . S
C8063 C8062 1.415 . S
H8064 C8061 0.999 . S
H8065 C8046 0.913 . S
H8066 C8084 0.951 . S
H8067 C8086 0.951 . S
H8068 C8088 0.950 . S
H8069 C8089 0.950 . S
H8070 C8091 0.950 . S
H8071 C8094 0.950 . S
H8072 C8095 0.950 . S
H8073 C8097 0.950 . S
H8074 C8098 0.950 . S
H8075 C8099 0.951 . S
H8076 C8101 0.951 . S
H8077 C8103 0.950 . S
H8078 C8104 0.950 . S
H8079 C8106 0.950 . S
H8080 C8109 0.950 . S
H8081 C8110 0.950 . S
H8082 C8112 0.950 . S
H8083 C8113 0.950 . S
C8084 H8066 0.951 . S
C8084 C8085 1.366 . S
C8084 C8086 1.388 . S
C8085 C8084 1.366 . S
C8085 C8089 1.385 . S
C8086 H8067 0.951 . S
C8086 C8084 1.388 . S
C8086 C8087 1.366 . S
C8087 C8086 1.366 . S
C8087 C8088 1.414 . S
C8087 C8090 1.499 . S
C8088 H8068 0.950 . S
C8088 C8087 1.414 . S
C8088 C8089 1.374 . S
C8089 H8069 0.950 . S
C8089 C8085 1.385 . S
C8089 C8088 1.374 . S
C8090 C8087 1.499 . S
C8090 C8091 1.373 . S
C8090 C8092 1.389 . S
C8091 H8070 0.950 . S
C8091 C8090 1.373 . S
C8091 C8107 1.377 . S
C8092 C8090 1.389 . S
C8092 C8093 1.524 . S
C8092 C8106 1.377 . S
C8093 C8092 1.524 . S
C8093 C8094 1.397 . S
C8093 C8098 1.363 . S
C8094 H8071 0.950 . S
C8094 C8093 1.397 . S
C8094 C8095 1.334 . S
C8095 H8072 0.950 . S
C8095 C8094 1.334 . S
C8095 C8096 1.287 . S
C8096 C8095 1.287 . S
C8096 C8097 1.524 . S
C8096 H8115 0.913 . S
C8097 H8073 0.950 . S
C8097 C8096 1.524 . S
C8097 C8098 1.415 . S
C8098 H8074 0.950 . S
C8098 C8093 1.363 . S
C8098 C8097 1.415 . S
C8099 H8075 0.951 . S
C8099 C8100 1.366 . S
C8099 C8101 1.388 . S
C8100 C8099 1.366 . S
C8100 C8104 1.385 . S
C8101 H8076 0.951 . S
C8101 C8099 1.388 . S
C8101 C8102 1.366 . S
C8102 C8101 1.366 . S
C8102 C8103 1.414 . S
C8102 C8105 1.499 . S
C8103 H8077 0.950 . S
C8103 C8102 1.414 . S
C8103 C8104 1.374 . S
C8104 H8078 0.950 . S
C8104 C8100 1.385 . S
C8104 C8103 1.374 . S
C8105 C8102 1.499 . S
C8105 C8106 1.373 . S
C8105 C8107 1.389 . S
C8106 H8079 0.950 . S
C8106 C8092 1.377 . S
C8106 C8105 1.373 . S
C8107 C8091 1.377 . S
C8107 C8105 1.389 . S
C8107 C8108 1.524 . S
C8108 C8107 1.524 . S
C8108 C8109 1.397 . S
C8108 C8113 1.363 . S
C8109 H8080 0.950 . S
C8109 C8108 1.397 . S
C8109 C8110 1.334 . S
C8110 H8081 0.950 . S
C8110 C8109 1.334 . S
C8110 C8111 1.287 . S
C8111 C8110 1.287 . S
C8111 C8112 1.524 . S
C8111 H8114 0.999 . S
C8112 H8082 0.950 . S
C8112 C8111 1.524 . S
C8112 C8113 1.415 . S
C8113 H8083 0.950 . S
C8113 C8108 1.363 . S
C8113 C8112 1.415 . S
H8114 C8111 0.999 . S
H8115 C8096 0.913 . S
H8116 C8134 0.951 . S
H8117 C8136 0.951 . S
H8118 C8138 0.950 . S
H8119 C8139 0.950 . S
H8120 C8141 0.950 . S
H8121 C8144 0.950 . S
H8122 C8145 0.950 . S
H8123 C8147 0.950 . S
H8124 C8148 0.950 . S
H8125 C8149 0.951 . S
H8126 C8151 0.951 . S
H8127 C8153 0.950 . S
H8128 C8154 0.950 . S
H8129 C8156 0.950 . S
H8130 C8159 0.950 . S
H8131 C8160 0.950 . S
H8132 C8162 0.950 . S
H8133 C8163 0.950 . S
C8134 H8116 0.951 . S
C8134 C8135 1.366 . S
C8134 C8136 1.388 . S
C8135 C8134 1.366 . S
C8135 C8139 1.385 . S
C8136 H8117 0.951 . S
C8136 C8134 1.388 . S
C8136 C8137 1.366 . S
C8137 C8136 1.366 . S
C8137 C8138 1.414 . S
C8137 C8140 1.499 . S
C8138 H8118 0.950 . S
C8138 C8137 1.414 . S
C8138 C8139 1.374 . S
C8139 H8119 0.950 . S
C8139 C8135 1.385 . S
C8139 C8138 1.374 . S
C8140 C8137 1.499 . S
C8140 C8141 1.373 . S
C8140 C8142 1.389 . S
C8141 H8120 0.950 . S
C8141 C8140 1.373 . S
C8141 C8157 1.377 . S
C8142 C8140 1.389 . S
C8142 C8143 1.524 . S
C8142 C8156 1.377 . S
C8143 C8142 1.524 . S
C8143 C8144 1.397 . S
C8143 C8148 1.363 . S
C8144 H8121 0.950 . S
C8144 C8143 1.397 . S
C8144 C8145 1.334 . S
C8145 H8122 0.950 . S
C8145 C8144 1.334 . S
C8145 C8146 1.287 . S
C8146 C8145 1.287 . S
C8146 C8147 1.524 . S
C8146 H8165 0.913 . S
C8147 H8123 0.950 . S
C8147 C8146 1.524 . S
C8147 C8148 1.415 . S
C8148 H8124 0.950 . S
C8148 C8143 1.363 . S
C8148 C8147 1.415 . S
C8149 H8125 0.951 . S
C8149 C8150 1.366 . S
C8149 C8151 1.388 . S
C8150 C8149 1.366 . S
C8150 C8154 1.385 . S
C8151 H8126 0.951 . S
C8151 C8149 1.388 . S
C8151 C8152 1.366 . S
C8152 C8151 1.366 . S
C8152 C8153 1.414 . S
C8152 C8155 1.499 . S
C8153 H8127 0.950 . S
C8153 C8152 1.414 . S
C8153 C8154 1.374 . S
C8154 H8128 0.950 . S
C8154 C8150 1.385 . S
C8154 C8153 1.374 . S
C8155 C8152 1.499 . S
C8155 C8156 1.373 . S
C8155 C8157 1.389 . S
C8156 H8129 0.950 . S
C8156 C8142 1.377 . S
C8156 C8155 1.373 . S
C8157 C8141 1.377 . S
C8157 C8155 1.389 . S
C8157 C8158 1.524 . S
C8158 C8157 1.524 . S
C8158 C8159 1.397 . S
C8158 C8163 1.363 . S
C8159 H8130 0.950 . S
C8159 C8158 1.397 . S
C8159 C8160 1.334 . S
C8160 H8131 0.950 . S
C8160 C8159 1.334 . S
C8160 C8161 1.287 . S
C8161 C8160 1.287 . S
C8161 C8162 1.524 . S
C8161 H8164 0.999 . S
C8162 H8132 0.950 . S
C8162 C8161 1.524 . S
C8162 C8163 1.415 . S
C8163 H8133 0.950 . S
C8163 C8158 1.363 . S
C8163 C8162 1.415 . S
H8164 C8161 0.999 . S
H8165 C8146 0.913 . S
H8166 C8184 0.951 . S
H8167 C8186 0.951 . S
H8168 C8188 0.950 . S
H8169 C8189 0.950 . S
H8170 C8191 0.950 . S
H8171 C8194 0.950 . S
H8172 C8195 0.950 . S
H8173 C8197 0.950 . S
H8174 C8198 0.950 . S
H8175 C8199 0.951 . S
H8176 C8201 0.951 . S
H8177 C8203 0.950 . S
H8178 C8204 0.950 . S
H8179 C8206 0.950 . S
H8180 C8209 0.950 . S
H8181 C8210 0.950 . S
H8182 C8212 0.950 . S
H8183 C8213 0.950 . S
C8184 H8166 0.951 . S
C8184 C8185 1.366 . S
C8184 C8186 1.388 . S
C8185 C8184 1.366 . S
C8185 C8189 1.385 . S
C8186 H8167 0.951 . S
C8186 C8184 1.388 . S
C8186 C8187 1.366 . S
C8187 C8186 1.366 . S
C8187 C8188 1.414 . S
C8187 C8190 1.499 . S
C8188 H8168 0.950 . S
C8188 C8187 1.414 . S
C8188 C8189 1.374 . S
C8189 H8169 0.950 . S
C8189 C8185 1.385 . S
C8189 C8188 1.374 . S
C8190 C8187 1.499 . S
C8190 C8191 1.373 . S
C8190 C8192 1.389 . S
C8191 H8170 0.950 . S
C8191 C8190 1.373 . S
C8191 C8207 1.377 . S
C8192 C8190 1.389 . S
C8192 C8193 1.524 . S
C8192 C8206 1.377 . S
C8193 C8192 1.524 . S
C8193 C8194 1.397 . S
C8193 C8198 1.363 . S
C8194 H8171 0.950 . S
C8194 C8193 1.397 . S
C8194 C8195 1.334 . S
C8195 H8172 0.950 . S
C8195 C8194 1.334 . S
C8195 C8196 1.287 . S
C8196 C8195 1.287 . S
C8196 C8197 1.524 . S
C8196 H8215 0.913 . S
C8197 H8173 0.950 . S
C8197 C8196 1.524 . S
C8197 C8198 1.415 . S
C8198 H8174 0.950 . S
C8198 C8193 1.363 . S
C8198 C8197 1.415 . S
C8199 H8175 0.951 . S
C8199 C8200 1.366 . S
C8199 C8201 1.388 . S
C8200 C8199 1.366 . S
C8200 C8204 1.385 . S
C8201 H8176 0.951 . S
C8201 C8199 1.388 . S
C8201 C8202 1.366 . S
C8202 C8201 1.366 . S
C8202 C8203 1.414 . S
C8202 C8205 1.499 . S
C8203 H8177 0.950 . S
C8203 C8202 1.414 . S
C8203 C8204 1.374 . S
C8204 H8178 0.950 . S
C8204 C8200 1.385 . S
C8204 C8203 1.374 . S
C8205 C8202 1.499 . S
C8205 C8206 1.373 . S
C8205 C8207 1.389 . S
C8206 H8179 0.950 . S
C8206 C8192 1.377 . S
C8206 C8205 1.373 . S
C8207 C8191 1.377 . S
C8207 C8205 1.389 . S
C8207 C8208 1.524 . S
C8208 C8207 1.524 . S
C8208 C8209 1.397 . S
C8208 C8213 1.363 . S
C8209 H8180 0.950 . S
C8209 C8208 1.397 . S
C8209 C8210 1.334 . S
C8210 H8181 0.950 . S
C8210 C8209 1.334 . S
C8210 C8211 1.287 . S
C8211 C8210 1.287 . S
C8211 C8212 1.524 . S
C8211 H8214 0.999 . S
C8212 H8182 0.950 . S
C8212 C8211 1.524 . S
C8212 C8213 1.415 . S
C8213 H8183 0.950 . S
C8213 C8208 1.363 . S
C8213 C8212 1.415 . S
H8214 C8211 0.999 . S
H8215 C8196 0.913 . S
H8216 C8234 0.951 . S
H8217 C8236 0.951 . S
H8218 C8238 0.950 . S
H8219 C8239 0.950 . S
H8220 C8241 0.950 . S
H8221 C8244 0.950 . S
H8222 C8245 0.950 . S
H8223 C8247 0.950 . S
H8224 C8248 0.950 . S
H8225 C8249 0.951 . S
H8226 C8251 0.951 . S
H8227 C8253 0.950 . S
H8228 C8254 0.950 . S
H8229 C8256 0.950 . S
H8230 C8259 0.950 . S
H8231 C8260 0.950 . S
H8232 C8262 0.950 . S
H8233 C8263 0.950 . S
C8234 H8216 0.951 . S
C8234 C8235 1.366 . S
C8234 C8236 1.388 . S
C8235 C8234 1.366 . S
C8235 C8239 1.385 . S
C8236 H8217 0.951 . S
C8236 C8234 1.388 . S
C8236 C8237 1.366 . S
C8237 C8236 1.366 . S
C8237 C8238 1.414 . S
C8237 C8240 1.499 . S
C8238 H8218 0.950 . S
C8238 C8237 1.414 . S
C8238 C8239 1.374 . S
C8239 H8219 0.950 . S
C8239 C8235 1.385 . S
C8239 C8238 1.374 . S
C8240 C8237 1.499 . S
C8240 C8241 1.373 . S
C8240 C8242 1.389 . S
C8241 H8220 0.950 . S
C8241 C8240 1.373 . S
C8241 C8257 1.377 . S
C8242 C8240 1.389 . S
C8242 C8243 1.524 . S
C8242 C8256 1.377 . S
C8243 C8242 1.524 . S
C8243 C8244 1.397 . S
C8243 C8248 1.363 . S
C8244 H8221 0.950 . S
C8244 C8243 1.397 . S
C8244 C8245 1.334 . S
C8245 H8222 0.950 . S
C8245 C8244 1.334 . S
C8245 C8246 1.287 . S
C8246 C8245 1.287 . S
C8246 C8247 1.524 . S
C8246 H8265 0.913 . S
C8247 H8223 0.950 . S
C8247 C8246 1.524 . S
C8247 C8248 1.415 . S
C8248 H8224 0.950 . S
C8248 C8243 1.363 . S
C8248 C8247 1.415 . S
C8249 H8225 0.951 . S
C8249 C8250 1.366 . S
C8249 C8251 1.388 . S
C8250 C8249 1.366 . S
C8250 C8254 1.385 . S
C8251 H8226 0.951 . S
C8251 C8249 1.388 . S
C8251 C8252 1.366 . S
C8252 C8251 1.366 . S
C8252 C8253 1.414 . S
C8252 C8255 1.499 . S
C8253 H8227 0.950 . S
C8253 C8252 1.414 . S
C8253 C8254 1.374 . S
C8254 H8228 0.950 . S
C8254 C8250 1.385 . S
C8254 C8253 1.374 . S
C8255 C8252 1.499 . S
C8255 C8256 1.373 . S
C8255 C8257 1.389 . S
C8256 H8229 0.950 . S
C8256 C8242 1.377 . S
C8256 C8255 1.373 . S
C8257 C8241 1.377 . S
C8257 C8255 1.389 . S
C8257 C8258 1.524 . S
C8258 C8257 1.524 . S
C8258 C8259 1.397 . S
C8258 C8263 1.363 . S
C8259 H8230 0.950 . S
C8259 C8258 1.397 . S
C8259 C8260 1.334 . S
C8260 H8231 0.950 . S
C8260 C8259 1.334 . S
C8260 C8261 1.287 . S
C8261 C8260 1.287 . S
C8261 C8262 1.524 . S
C8261 H8264 0.999 . S
C8262 H8232 0.950 . S
C8262 C8261 1.524 . S
C8262 C8263 1.415 . S
C8263 H8233 0.950 . S
C8263 C8258 1.363 . S
C8263 C8262 1.415 . S
H8264 C8261 0.999 . S
H8265 C8246 0.913 . S
H8266 C8284 0.951 . S
H8267 C8286 0.951 . S
H8268 C8288 0.950 . S
H8269 C8289 0.950 . S
H8270 C8291 0.950 . S
H8271 C8294 0.950 . S
H8272 C8295 0.950 . S
H8273 C8297 0.950 . S
H8274 C8298 0.950 . S
H8275 C8299 0.951 . S
H8276 C8301 0.951 . S
H8277 C8303 0.950 . S
H8278 C8304 0.950 . S
H8279 C8306 0.950 . S
H8280 C8309 0.950 . S
H8281 C8310 0.950 . S
H8282 C8312 0.950 . S
H8283 C8313 0.950 . S
C8284 H8266 0.951 . S
C8284 C8285 1.366 . S
C8284 C8286 1.388 . S
C8285 C8284 1.366 . S
C8285 C8289 1.385 . S
C8286 H8267 0.951 . S
C8286 C8284 1.388 . S
C8286 C8287 1.366 . S
C8287 C8286 1.366 . S
C8287 C8288 1.414 . S
C8287 C8290 1.499 . S
C8288 H8268 0.950 . S
C8288 C8287 1.414 . S
C8288 C8289 1.374 . S
C8289 H8269 0.950 . S
C8289 C8285 1.385 . S
C8289 C8288 1.374 . S
C8290 C8287 1.499 . S
C8290 C8291 1.373 . S
C8290 C8292 1.389 . S
C8291 H8270 0.950 . S
C8291 C8290 1.373 . S
C8291 C8307 1.377 . S
C8292 C8290 1.389 . S
C8292 C8293 1.524 . S
C8292 C8306 1.377 . S
C8293 C8292 1.524 . S
C8293 C8294 1.397 . S
C8293 C8298 1.363 . S
C8294 H8271 0.950 . S
C8294 C8293 1.397 . S
C8294 C8295 1.334 . S
C8295 H8272 0.950 . S
C8295 C8294 1.334 . S
C8295 C8296 1.287 . S
C8296 C8295 1.287 . S
C8296 C8297 1.524 . S
C8296 H8315 0.913 . S
C8297 H8273 0.950 . S
C8297 C8296 1.524 . S
C8297 C8298 1.415 . S
C8298 H8274 0.950 . S
C8298 C8293 1.363 . S
C8298 C8297 1.415 . S
C8299 H8275 0.951 . S
C8299 C8300 1.366 . S
C8299 C8301 1.388 . S
C8300 C8299 1.366 . S
C8300 C8304 1.385 . S
C8301 H8276 0.951 . S
C8301 C8299 1.388 . S
C8301 C8302 1.366 . S
C8302 C8301 1.366 . S
C8302 C8303 1.414 . S
C8302 C8305 1.499 . S
C8303 H8277 0.950 . S
C8303 C8302 1.414 . S
C8303 C8304 1.374 . S
C8304 H8278 0.950 . S
C8304 C8300 1.385 . S
C8304 C8303 1.374 . S
C8305 C8302 1.499 . S
C8305 C8306 1.373 . S
C8305 C8307 1.389 . S
C8306 H8279 0.950 . S
C8306 C8292 1.377 . S
C8306 C8305 1.373 . S
C8307 C8291 1.377 . S
C8307 C8305 1.389 . S
C8307 C8308 1.524 . S
C8308 C8307 1.524 . S
C8308 C8309 1.397 . S
C8308 C8313 1.363 . S
C8309 H8280 0.950 . S
C8309 C8308 1.397 . S
C8309 C8310 1.334 . S
C8310 H8281 0.950 . S
C8310 C8309 1.334 . S
C8310 C8311 1.287 . S
C8311 C8310 1.287 . S
C8311 C8312 1.524 . S
C8311 H8314 0.999 . S
C8312 H8282 0.950 . S
C8312 C8311 1.524 . S
C8312 C8313 1.415 . S
C8313 H8283 0.950 . S
C8313 C8308 1.363 . S
C8313 C8312 1.415 . S
H8314 C8311 0.999 . S
H8315 C8296 0.913 . S
H8316 C8334 0.951 . S
H8317 C8336 0.951 . S
H8318 C8338 0.950 . S
H8319 C8339 0.950 . S
H8320 C8341 0.950 . S
H8321 C8344 0.950 . S
H8322 C8345 0.950 . S
H8323 C8347 0.950 . S
H8324 C8348 0.950 . S
H8325 C8349 0.951 . S
H8326 C8351 0.951 . S
H8327 C8353 0.950 . S
H8328 C8354 0.950 . S
H8329 C8356 0.950 . S
H8330 C8359 0.950 . S
H8331 C8360 0.950 . S
H8332 C8362 0.950 . S
H8333 C8363 0.950 . S
C8334 H8316 0.951 . S
C8334 C8335 1.366 . S
C8334 C8336 1.388 . S
C8335 C8334 1.366 . S
C8335 C8339 1.385 . S
C8336 H8317 0.951 . S
C8336 C8334 1.388 . S
C8336 C8337 1.366 . S
C8337 C8336 1.366 . S
C8337 C8338 1.414 . S
C8337 C8340 1.499 . S
C8338 H8318 0.950 . S
C8338 C8337 1.414 . S
C8338 C8339 1.374 . S
C8339 H8319 0.950 . S
C8339 C8335 1.385 . S
C8339 C8338 1.374 . S
C8340 C8337 1.499 . S
C8340 C8341 1.373 . S
C8340 C8342 1.389 . S
C8341 H8320 0.950 . S
C8341 C8340 1.373 . S
C8341 C8357 1.377 . S
C8342 C8340 1.389 . S
C8342 C8343 1.524 . S
C8342 C8356 1.377 . S
C8343 C8342 1.524 . S
C8343 C8344 1.397 . S
C8343 C8348 1.363 . S
C8344 H8321 0.950 . S
C8344 C8343 1.397 . S
C8344 C8345 1.334 . S
C8345 H8322 0.950 . S
C8345 C8344 1.334 . S
C8345 C8346 1.287 . S
C8346 C8345 1.287 . S
C8346 C8347 1.524 . S
C8346 H8365 0.913 . S
C8347 H8323 0.950 . S
C8347 C8346 1.524 . S
C8347 C8348 1.415 . S
C8348 H8324 0.950 . S
C8348 C8343 1.363 . S
C8348 C8347 1.415 . S
C8349 H8325 0.951 . S
C8349 C8350 1.366 . S
C8349 C8351 1.388 . S
C8350 C8349 1.366 . S
C8350 C8354 1.385 . S
C8351 H8326 0.951 . S
C8351 C8349 1.388 . S
C8351 C8352 1.366 . S
C8352 C8351 1.366 . S
C8352 C8353 1.414 . S
C8352 C8355 1.499 . S
C8353 H8327 0.950 . S
C8353 C8352 1.414 . S
C8353 C8354 1.374 . S
C8354 H8328 0.950 . S
C8354 C8350 1.385 . S
C8354 C8353 1.374 . S
C8355 C8352 1.499 . S
C8355 C8356 1.373 . S
C8355 C8357 1.389 . S
C8356 H8329 0.950 . S
C8356 C8342 1.377 . S
C8356 C8355 1.373 . S
C8357 C8341 1.377 . S
C8357 C8355 1.389 . S
C8357 C8358 1.524 . S
C8358 C8357 1.524 . S
C8358 C8359 1.397 . S
C8358 C8363 1.363 . S
C8359 H8330 0.950 . S
C8359 C8358 1.397 . S
C8359 C8360 1.334 . S
C8360 H8331 0.950 . S
C8360 C8359 1.334 . S
C8360 C8361 1.287 . S
C8361 C8360 1.287 . S
C8361 C8362 1.524 . S
C8361 H8364 0.999 . S
C8362 H8332 0.950 . S
C8362 C8361 1.524 . S
C8362 C8363 1.415 . S
C8363 H8333 0.950 . S
C8363 C8358 1.363 . S
C8363 C8362 1.415 . S
H8364 C8361 0.999 . S
H8365 C8346 0.913 . S
H8366 C8384 0.951 . S
H8367 C8386 0.951 . S
H8368 C8388 0.950 . S
H8369 C8389 0.950 . S
H8370 C8391 0.950 . S
H8371 C8394 0.950 . S
H8372 C8395 0.950 . S
H8373 C8397 0.950 . S
H8374 C8398 0.950 . S
H8375 C8399 0.951 . S
H8376 C8401 0.951 . S
H8377 C8403 0.950 . S
H8378 C8404 0.950 . S
H8379 C8406 0.950 . S
H8380 C8409 0.950 . S
H8381 C8410 0.950 . S
H8382 C8412 0.950 . S
H8383 C8413 0.950 . S
C8384 H8366 0.951 . S
C8384 C8385 1.366 . S
C8384 C8386 1.388 . S
C8385 C8384 1.366 . S
C8385 C8389 1.385 . S
C8386 H8367 0.951 . S
C8386 C8384 1.388 . S
C8386 C8387 1.366 . S
C8387 C8386 1.366 . S
C8387 C8388 1.414 . S
C8387 C8390 1.499 . S
C8388 H8368 0.950 . S
C8388 C8387 1.414 . S
C8388 C8389 1.374 . S
C8389 H8369 0.950 . S
C8389 C8385 1.385 . S
C8389 C8388 1.374 . S
C8390 C8387 1.499 . S
C8390 C8391 1.373 . S
C8390 C8392 1.389 . S
C8391 H8370 0.950 . S
C8391 C8390 1.373 . S
C8391 C8407 1.377 . S
C8392 C8390 1.389 . S
C8392 C8393 1.524 . S
C8392 C8406 1.377 . S
C8393 C8392 1.524 . S
C8393 C8394 1.397 . S
C8393 C8398 1.363 . S
C8394 H8371 0.950 . S
C8394 C8393 1.397 . S
C8394 C8395 1.334 . S
C8395 H8372 0.950 . S
C8395 C8394 1.334 . S
C8395 C8396 1.287 . S
C8396 C8395 1.287 . S
C8396 C8397 1.524 . S
C8396 H8415 0.913 . S
C8397 H8373 0.950 . S
C8397 C8396 1.524 . S
C8397 C8398 1.415 . S
C8398 H8374 0.950 . S
C8398 C8393 1.363 . S
C8398 C8397 1.415 . S
C8399 H8375 0.951 . S
C8399 C8400 1.366 . S
C8399 C8401 1.388 . S
C8400 C8399 1.366 . S
C8400 C8404 1.385 . S
C8401 H8376 0.951 . S
C8401 C8399 1.388 . S
C8401 C8402 1.366 . S
C8402 C8401 1.366 . S
C8402 C8403 1.414 . S
C8402 C8405 1.499 . S
C8403 H8377 0.950 . S
C8403 C8402 1.414 . S
C8403 C8404 1.374 . S
C8404 H8378 0.950 . S
C8404 C8400 1.385 . S
C8404 C8403 1.374 . S
C8405 C8402 1.499 . S
C8405 C8406 1.373 . S
C8405 C8407 1.389 . S
C8406 H8379 0.950 . S
C8406 C8392 1.377 . S
C8406 C8405 1.373 . S
C8407 C8391 1.377 . S
C8407 C8405 1.389 . S
C8407 C8408 1.524 . S
C8408 C8407 1.524 . S
C8408 C8409 1.397 . S
C8408 C8413 1.363 . S
C8409 H8380 0.950 . S
C8409 C8408 1.397 . S
C8409 C8410 1.334 . S
C8410 H8381 0.950 . S
C8410 C8409 1.334 . S
C8410 C8411 1.287 . S
C8411 C8410 1.287 . S
C8411 C8412 1.524 . S
C8411 H8414 0.999 . S
C8412 H8382 0.950 . S
C8412 C8411 1.524 . S
C8412 C8413 1.415 . S
C8413 H8383 0.950 . S
C8413 C8408 1.363 . S
C8413 C8412 1.415 . S
H8414 C8411 0.999 . S
H8415 C8396 0.913 . S
H8416 C8434 0.951 . S
H8417 C8436 0.951 . S
H8418 C8438 0.950 . S
H8419 C8439 0.950 . S
H8420 C8441 0.950 . S
H8421 C8444 0.950 . S
H8422 C8445 0.950 . S
H8423 C8447 0.950 . S
H8424 C8448 0.950 . S
H8425 C8449 0.951 . S
H8426 C8451 0.951 . S
H8427 C8453 0.950 . S
H8428 C8454 0.950 . S
H8429 C8456 0.950 . S
H8430 C8459 0.950 . S
H8431 C8460 0.950 . S
H8432 C8462 0.950 . S
H8433 C8463 0.950 . S
C8434 H8416 0.951 . S
C8434 C8435 1.366 . S
C8434 C8436 1.388 . S
C8435 C8434 1.366 . S
C8435 C8439 1.385 . S
C8436 H8417 0.951 . S
C8436 C8434 1.388 . S
C8436 C8437 1.366 . S
C8437 C8436 1.366 . S
C8437 C8438 1.414 . S
C8437 C8440 1.499 . S
C8438 H8418 0.950 . S
C8438 C8437 1.414 . S
C8438 C8439 1.374 . S
C8439 H8419 0.950 . S
C8439 C8435 1.385 . S
C8439 C8438 1.374 . S
C8440 C8437 1.499 . S
C8440 C8441 1.373 . S
C8440 C8442 1.389 . S
C8441 H8420 0.950 . S
C8441 C8440 1.373 . S
C8441 C8457 1.377 . S
C8442 C8440 1.389 . S
C8442 C8443 1.524 . S
C8442 C8456 1.377 . S
C8443 C8442 1.524 . S
C8443 C8444 1.397 . S
C8443 C8448 1.363 . S
C8444 H8421 0.950 . S
C8444 C8443 1.397 . S
C8444 C8445 1.334 . S
C8445 H8422 0.950 . S
C8445 C8444 1.334 . S
C8445 C8446 1.287 . S
C8446 C8445 1.287 . S
C8446 C8447 1.524 . S
C8446 H8465 0.913 . S
C8447 H8423 0.950 . S
C8447 C8446 1.524 . S
C8447 C8448 1.415 . S
C8448 H8424 0.950 . S
C8448 C8443 1.363 . S
C8448 C8447 1.415 . S
C8449 H8425 0.951 . S
C8449 C8450 1.366 . S
C8449 C8451 1.388 . S
C8450 C8449 1.366 . S
C8450 C8454 1.385 . S
C8451 H8426 0.951 . S
C8451 C8449 1.388 . S
C8451 C8452 1.366 . S
C8452 C8451 1.366 . S
C8452 C8453 1.414 . S
C8452 C8455 1.499 . S
C8453 H8427 0.950 . S
C8453 C8452 1.414 . S
C8453 C8454 1.374 . S
C8454 H8428 0.950 . S
C8454 C8450 1.385 . S
C8454 C8453 1.374 . S
C8455 C8452 1.499 . S
C8455 C8456 1.373 . S
C8455 C8457 1.389 . S
C8456 H8429 0.950 . S
C8456 C8442 1.377 . S
C8456 C8455 1.373 . S
C8457 C8441 1.377 . S
C8457 C8455 1.389 . S
C8457 C8458 1.524 . S
C8458 C8457 1.524 . S
C8458 C8459 1.397 . S
C8458 C8463 1.363 . S
C8459 H8430 0.950 . S
C8459 C8458 1.397 . S
C8459 C8460 1.334 . S
C8460 H8431 0.950 . S
C8460 C8459 1.334 . S
C8460 C8461 1.287 . S
C8461 C8460 1.287 . S
C8461 C8462 1.524 . S
C8461 H8464 0.999 . S
C8462 H8432 0.950 . S
C8462 C8461 1.524 . S
C8462 C8463 1.415 . S
C8463 H8433 0.950 . S
C8463 C8458 1.363 . S
C8463 C8462 1.415 . S
H8464 C8461 0.999 . S
H8465 C8446 0.913 . S
H8466 C8484 0.951 . S
H8467 C8486 0.951 . S
H8468 C8488 0.950 . S
H8469 C8489 0.950 . S
H8470 C8491 0.950 . S
H8471 C8494 0.950 . S
H8472 C8495 0.950 . S
H8473 C8497 0.950 . S
H8474 C8498 0.950 . S
H8475 C8499 0.951 . S
H8476 C8501 0.951 . S
H8477 C8503 0.950 . S
H8478 C8504 0.950 . S
H8479 C8506 0.950 . S
H8480 C8509 0.950 . S
H8481 C8510 0.950 . S
H8482 C8512 0.950 . S
H8483 C8513 0.950 . S
C8484 H8466 0.951 . S
C8484 C8485 1.366 . S
C8484 C8486 1.388 . S
C8485 C8484 1.366 . S
C8485 C8489 1.385 . S
C8486 H8467 0.951 . S
C8486 C8484 1.388 . S
C8486 C8487 1.366 . S
C8487 C8486 1.366 . S
C8487 C8488 1.414 . S
C8487 C8490 1.499 . S
C8488 H8468 0.950 . S
C8488 C8487 1.414 . S
C8488 C8489 1.374 . S
C8489 H8469 0.950 . S
C8489 C8485 1.385 . S
C8489 C8488 1.374 . S
C8490 C8487 1.499 . S
C8490 C8491 1.373 . S
C8490 C8492 1.389 . S
C8491 H8470 0.950 . S
C8491 C8490 1.373 . S
C8491 C8507 1.377 . S
C8492 C8490 1.389 . S
C8492 C8493 1.524 . S
C8492 C8506 1.377 . S
C8493 C8492 1.524 . S
C8493 C8494 1.397 . S
C8493 C8498 1.363 . S
C8494 H8471 0.950 . S
C8494 C8493 1.397 . S
C8494 C8495 1.334 . S
C8495 H8472 0.950 . S
C8495 C8494 1.334 . S
C8495 C8496 1.287 . S
C8496 C8495 1.287 . S
C8496 C8497 1.524 . S
C8496 H8515 0.913 . S
C8497 H8473 0.950 . S
C8497 C8496 1.524 . S
C8497 C8498 1.415 . S
C8498 H8474 0.950 . S
C8498 C8493 1.363 . S
C8498 C8497 1.415 . S
C8499 H8475 0.951 . S
C8499 C8500 1.366 . S
C8499 C8501 1.388 . S
C8500 C8499 1.366 . S
C8500 C8504 1.385 . S
C8501 H8476 0.951 . S
C8501 C8499 1.388 . S
C8501 C8502 1.366 . S
C8502 C8501 1.366 . S
C8502 C8503 1.414 . S
C8502 C8505 1.499 . S
C8503 H8477 0.950 . S
C8503 C8502 1.414 . S
C8503 C8504 1.374 . S
C8504 H8478 0.950 . S
C8504 C8500 1.385 . S
C8504 C8503 1.374 . S
C8505 C8502 1.499 . S
C8505 C8506 1.373 . S
C8505 C8507 1.389 . S
C8506 H8479 0.950 . S
C8506 C8492 1.377 . S
C8506 C8505 1.373 . S
C8507 C8491 1.377 . S
C8507 C8505 1.389 . S
C8507 C8508 1.524 . S
C8508 C8507 1.524 . S
C8508 C8509 1.397 . S
C8508 C8513 1.363 . S
C8509 H8480 0.950 . S
C8509 C8508 1.397 . S
C8509 C8510 1.334 . S
C8510 H8481 0.950 . S
C8510 C8509 1.334 . S
C8510 C8511 1.287 . S
C8511 C8510 1.287 . S
C8511 C8512 1.524 . S
C8511 H8514 0.999 . S
C8512 H8482 0.950 . S
C8512 C8511 1.524 . S
C8512 C8513 1.415 . S
C8513 H8483 0.950 . S
C8513 C8508 1.363 . S
C8513 C8512 1.415 . S
H8514 C8511 0.999 . S
H8515 C8496 0.913 . S
H8516 C8534 0.951 . S
H8517 C8536 0.951 . S
H8518 C8538 0.950 . S
H8519 C8539 0.950 . S
H8520 C8541 0.950 . S
H8521 C8544 0.950 . S
H8522 C8545 0.950 . S
H8523 C8547 0.950 . S
H8524 C8548 0.950 . S
H8525 C8549 0.951 . S
H8526 C8551 0.951 . S
H8527 C8553 0.950 . S
H8528 C8554 0.950 . S
H8529 C8556 0.950 . S
H8530 C8559 0.950 . S
H8531 C8560 0.950 . S
H8532 C8562 0.950 . S
H8533 C8563 0.950 . S
C8534 H8516 0.951 . S
C8534 C8535 1.366 . S
C8534 C8536 1.388 . S
C8535 C8534 1.366 . S
C8535 C8539 1.385 . S
C8536 H8517 0.951 . S
C8536 C8534 1.388 . S
C8536 C8537 1.366 . S
C8537 C8536 1.366 . S
C8537 C8538 1.414 . S
C8537 C8540 1.499 . S
C8538 H8518 0.950 . S
C8538 C8537 1.414 . S
C8538 C8539 1.374 . S
C8539 H8519 0.950 . S
C8539 C8535 1.385 . S
C8539 C8538 1.374 . S
C8540 C8537 1.499 . S
C8540 C8541 1.373 . S
C8540 C8542 1.389 . S
C8541 H8520 0.950 . S
C8541 C8540 1.373 . S
C8541 C8557 1.377 . S
C8542 C8540 1.389 . S
C8542 C8543 1.524 . S
C8542 C8556 1.377 . S
C8543 C8542 1.524 . S
C8543 C8544 1.397 . S
C8543 C8548 1.363 . S
C8544 H8521 0.950 . S
C8544 C8543 1.397 . S
C8544 C8545 1.334 . S
C8545 H8522 0.950 . S
C8545 C8544 1.334 . S
C8545 C8546 1.287 . S
C8546 C8545 1.287 . S
C8546 C8547 1.524 . S
C8546 H8565 0.913 . S
C8547 H8523 0.950 . S
C8547 C8546 1.524 . S
C8547 C8548 1.415 . S
C8548 H8524 0.950 . S
C8548 C8543 1.363 . S
C8548 C8547 1.415 . S
C8549 H8525 0.951 . S
C8549 C8550 1.366 . S
C8549 C8551 1.388 . S
C8550 C8549 1.366 . S
C8550 C8554 1.385 . S
C8551 H8526 0.951 . S
C8551 C8549 1.388 . S
C8551 C8552 1.366 . S
C8552 C8551 1.366 . S
C8552 C8553 1.414 . S
C8552 C8555 1.499 . S
C8553 H8527 0.950 . S
C8553 C8552 1.414 . S
C8553 C8554 1.374 . S
C8554 H8528 0.950 . S
C8554 C8550 1.385 . S
C8554 C8553 1.374 . S
C8555 C8552 1.499 . S
C8555 C8556 1.373 . S
C8555 C8557 1.389 . S
C8556 H8529 0.950 . S
C8556 C8542 1.377 . S
C8556 C8555 1.373 . S
C8557 C8541 1.377 . S
C8557 C8555 1.389 . S
C8557 C8558 1.524 . S
C8558 C8557 1.524 . S
C8558 C8559 1.397 . S
C8558 C8563 1.363 . S
C8559 H8530 0.950 . S
C8559 C8558 1.397 . S
C8559 C8560 1.334 . S
C8560 H8531 0.950 . S
C8560 C8559 1.334 . S
C8560 C8561 1.287 . S
C8561 C8560 1.287 . S
C8561 C8562 1.524 . S
C8561 H8564 0.999 . S
C8562 H8532 0.950 . S
C8562 C8561 1.524 . S
C8562 C8563 1.415 . S
C8563 H8533 0.950 . S
C8563 C8558 1.363 . S
C8563 C8562 1.415 . S
H8564 C8561 0.999 . S
H8565 C8546 0.913 . S
H8566 C8584 0.951 . S
H8567 C8586 0.951 . S
H8568 C8588 0.950 . S
H8569 C8589 0.950 . S
H8570 C8591 0.950 . S
H8571 C8594 0.950 . S
H8572 C8595 0.950 . S
H8573 C8597 0.950 . S
H8574 C8598 0.950 . S
H8575 C8599 0.951 . S
H8576 C8601 0.951 . S
H8577 C8603 0.950 . S
H8578 C8604 0.950 . S
H8579 C8606 0.950 . S
H8580 C8609 0.950 . S
H8581 C8610 0.950 . S
H8582 C8612 0.950 . S
H8583 C8613 0.950 . S
C8584 H8566 0.951 . S
C8584 C8585 1.366 . S
C8584 C8586 1.388 . S
C8585 C8584 1.366 . S
C8585 C8589 1.385 . S
C8586 H8567 0.951 . S
C8586 C8584 1.388 . S
C8586 C8587 1.366 . S
C8587 C8586 1.366 . S
C8587 C8588 1.414 . S
C8587 C8590 1.499 . S
C8588 H8568 0.950 . S
C8588 C8587 1.414 . S
C8588 C8589 1.374 . S
C8589 H8569 0.950 . S
C8589 C8585 1.385 . S
C8589 C8588 1.374 . S
C8590 C8587 1.499 . S
C8590 C8591 1.373 . S
C8590 C8592 1.389 . S
C8591 H8570 0.950 . S
C8591 C8590 1.373 . S
C8591 C8607 1.377 . S
C8592 C8590 1.389 . S
C8592 C8593 1.524 . S
C8592 C8606 1.377 . S
C8593 C8592 1.524 . S
C8593 C8594 1.397 . S
C8593 C8598 1.363 . S
C8594 H8571 0.950 . S
C8594 C8593 1.397 . S
C8594 C8595 1.334 . S
C8595 H8572 0.950 . S
C8595 C8594 1.334 . S
C8595 C8596 1.287 . S
C8596 C8595 1.287 . S
C8596 C8597 1.524 . S
C8596 H8615 0.913 . S
C8597 H8573 0.950 . S
C8597 C8596 1.524 . S
C8597 C8598 1.415 . S
C8598 H8574 0.950 . S
C8598 C8593 1.363 . S
C8598 C8597 1.415 . S
C8599 H8575 0.951 . S
C8599 C8600 1.366 . S
C8599 C8601 1.388 . S
C8600 C8599 1.366 . S
C8600 C8604 1.385 . S
C8601 H8576 0.951 . S
C8601 C8599 1.388 . S
C8601 C8602 1.366 . S
C8602 C8601 1.366 . S
C8602 C8603 1.414 . S
C8602 C8605 1.499 . S
C8603 H8577 0.950 . S
C8603 C8602 1.414 . S
C8603 C8604 1.374 . S
C8604 H8578 0.950 . S
C8604 C8600 1.385 . S
C8604 C8603 1.374 . S
C8605 C8602 1.499 . S
C8605 C8606 1.373 . S
C8605 C8607 1.389 . S
C8606 H8579 0.950 . S
C8606 C8592 1.377 . S
C8606 C8605 1.373 . S
C8607 C8591 1.377 . S
C8607 C8605 1.389 . S
C8607 C8608 1.524 . S
C8608 C8607 1.524 . S
C8608 C8609 1.397 . S
C8608 C8613 1.363 . S
C8609 H8580 0.950 . S
C8609 C8608 1.397 . S
C8609 C8610 1.334 . S
C8610 H8581 0.950 . S
C8610 C8609 1.334 . S
C8610 C8611 1.287 . S
C8611 C8610 1.287 . S
C8611 C8612 1.524 . S
C8611 H8614 0.999 . S
C8612 H8582 0.950 . S
C8612 C8611 1.524 . S
C8612 C8613 1.415 . S
C8613 H8583 0.950 . S
C8613 C8608 1.363 . S
C8613 C8612 1.415 . S
H8614 C8611 0.999 . S
H8615 C8596 0.913 . S
H8616 C8634 0.951 . S
H8617 C8636 0.951 . S
H8618 C8638 0.950 . S
H8619 C8639 0.950 . S
H8620 C8641 0.950 . S
H8621 C8644 0.950 . S
H8622 C8645 0.950 . S
H8623 C8647 0.950 . S
H8624 C8648 0.950 . S
H8625 C8649 0.951 . S
H8626 C8651 0.951 . S
H8627 C8653 0.950 . S
H8628 C8654 0.950 . S
H8629 C8656 0.950 . S
H8630 C8659 0.950 . S
H8631 C8660 0.950 . S
H8632 C8662 0.950 . S
H8633 C8663 0.950 . S
C8634 H8616 0.951 . S
C8634 C8635 1.366 . S
C8634 C8636 1.388 . S
C8635 C8634 1.366 . S
C8635 C8639 1.385 . S
C8636 H8617 0.951 . S
C8636 C8634 1.388 . S
C8636 C8637 1.366 . S
C8637 C8636 1.366 . S
C8637 C8638 1.414 . S
C8637 C8640 1.499 . S
C8638 H8618 0.950 . S
C8638 C8637 1.414 . S
C8638 C8639 1.374 . S
C8639 H8619 0.950 . S
C8639 C8635 1.385 . S
C8639 C8638 1.374 . S
C8640 C8637 1.499 . S
C8640 C8641 1.373 . S
C8640 C8642 1.389 . S
C8641 H8620 0.950 . S
C8641 C8640 1.373 . S
C8641 C8657 1.377 . S
C8642 C8640 1.389 . S
C8642 C8643 1.524 . S
C8642 C8656 1.377 . S
C8643 C8642 1.524 . S
C8643 C8644 1.397 . S
C8643 C8648 1.363 . S
C8644 H8621 0.950 . S
C8644 C8643 1.397 . S
C8644 C8645 1.334 . S
C8645 H8622 0.950 . S
C8645 C8644 1.334 . S
C8645 C8646 1.287 . S
C8646 C8645 1.287 . S
C8646 C8647 1.524 . S
C8646 H8665 0.913 . S
C8647 H8623 0.950 . S
C8647 C8646 1.524 . S
C8647 C8648 1.415 . S
C8648 H8624 0.950 . S
C8648 C8643 1.363 . S
C8648 C8647 1.415 . S
C8649 H8625 0.951 . S
C8649 C8650 1.366 . S
C8649 C8651 1.388 . S
C8650 C8649 1.366 . S
C8650 C8654 1.385 . S
C8651 H8626 0.951 . S
C8651 C8649 1.388 . S
C8651 C8652 1.366 . S
C8652 C8651 1.366 . S
C8652 C8653 1.414 . S
C8652 C8655 1.499 . S
C8653 H8627 0.950 . S
C8653 C8652 1.414 . S
C8653 C8654 1.374 . S
C8654 H8628 0.950 . S
C8654 C8650 1.385 . S
C8654 C8653 1.374 . S
C8655 C8652 1.499 . S
C8655 C8656 1.373 . S
C8655 C8657 1.389 . S
C8656 H8629 0.950 . S
C8656 C8642 1.377 . S
C8656 C8655 1.373 . S
C8657 C8641 1.377 . S
C8657 C8655 1.389 . S
C8657 C8658 1.524 . S
C8658 C8657 1.524 . S
C8658 C8659 1.397 . S
C8658 C8663 1.363 . S
C8659 H8630 0.950 . S
C8659 C8658 1.397 . S
C8659 C8660 1.334 . S
C8660 H8631 0.950 . S
C8660 C8659 1.334 . S
C8660 C8661 1.287 . S
C8661 C8660 1.287 . S
C8661 C8662 1.524 . S
C8661 H8664 0.999 . S
C8662 H8632 0.950 . S
C8662 C8661 1.524 . S
C8662 C8663 1.415 . S
C8663 H8633 0.950 . S
C8663 C8658 1.363 . S
C8663 C8662 1.415 . S
H8664 C8661 0.999 . S
H8665 C8646 0.913 . S
H8666 C8684 0.951 . S
H8667 C8686 0.951 . S
H8668 C8688 0.950 . S
H8669 C8689 0.950 . S
H8670 C8691 0.950 . S
H8671 C8694 0.950 . S
H8672 C8695 0.950 . S
H8673 C8697 0.950 . S
H8674 C8698 0.950 . S
H8675 C8699 0.951 . S
H8676 C8701 0.951 . S
H8677 C8703 0.950 . S
H8678 C8704 0.950 . S
H8679 C8706 0.950 . S
H8680 C8709 0.950 . S
H8681 C8710 0.950 . S
H8682 C8712 0.950 . S
H8683 C8713 0.950 . S
C8684 H8666 0.951 . S
C8684 C8685 1.366 . S
C8684 C8686 1.388 . S
C8685 C8684 1.366 . S
C8685 C8689 1.385 . S
C8686 H8667 0.951 . S
C8686 C8684 1.388 . S
C8686 C8687 1.366 . S
C8687 C8686 1.366 . S
C8687 C8688 1.414 . S
C8687 C8690 1.499 . S
C8688 H8668 0.950 . S
C8688 C8687 1.414 . S
C8688 C8689 1.374 . S
C8689 H8669 0.950 . S
C8689 C8685 1.385 . S
C8689 C8688 1.374 . S
C8690 C8687 1.499 . S
C8690 C8691 1.373 . S
C8690 C8692 1.389 . S
C8691 H8670 0.950 . S
C8691 C8690 1.373 . S
C8691 C8707 1.377 . S
C8692 C8690 1.389 . S
C8692 C8693 1.524 . S
C8692 C8706 1.377 . S
C8693 C8692 1.524 . S
C8693 C8694 1.397 . S
C8693 C8698 1.363 . S
C8694 H8671 0.950 . S
C8694 C8693 1.397 . S
C8694 C8695 1.334 . S
C8695 H8672 0.950 . S
C8695 C8694 1.334 . S
C8695 C8696 1.287 . S
C8696 C8695 1.287 . S
C8696 C8697 1.524 . S
C8696 H8715 0.913 . S
C8697 H8673 0.950 . S
C8697 C8696 1.524 . S
C8697 C8698 1.415 . S
C8698 H8674 0.950 . S
C8698 C8693 1.363 . S
C8698 C8697 1.415 . S
C8699 H8675 0.951 . S
C8699 C8700 1.366 . S
C8699 C8701 1.388 . S
C8700 C8699 1.366 . S
C8700 C8704 1.385 . S
C8701 H8676 0.951 . S
C8701 C8699 1.388 . S
C8701 C8702 1.366 . S
C8702 C8701 1.366 . S
C8702 C8703 1.414 . S
C8702 C8705 1.499 . S
C8703 H8677 0.950 . S
C8703 C8702 1.414 . S
C8703 C8704 1.374 . S
C8704 H8678 0.950 . S
C8704 C8700 1.385 . S
C8704 C8703 1.374 . S
C8705 C8702 1.499 . S
C8705 C8706 1.373 . S
C8705 C8707 1.389 . S
C8706 H8679 0.950 . S
C8706 C8692 1.377 . S
C8706 C8705 1.373 . S
C8707 C8691 1.377 . S
C8707 C8705 1.389 . S
C8707 C8708 1.524 . S
C8708 C8707 1.524 . S
C8708 C8709 1.397 . S
C8708 C8713 1.363 . S
C8709 H8680 0.950 . S
C8709 C8708 1.397 . S
C8709 C8710 1.334 . S
C8710 H8681 0.950 . S
C8710 C8709 1.334 . S
C8710 C8711 1.287 . S
C8711 C8710 1.287 . S
C8711 C8712 1.524 . S
C8711 H8714 0.999 . S
C8712 H8682 0.950 . S
C8712 C8711 1.524 . S
C8712 C8713 1.415 . S
C8713 H8683 0.950 . S
C8713 C8708 1.363 . S
C8713 C8712 1.415 . S
H8714 C8711 0.999 . S
H8715 C8696 0.913 . S
H8716 C8734 0.951 . S
H8717 C8736 0.951 . S
H8718 C8738 0.950 . S
H8719 C8739 0.950 . S
H8720 C8741 0.950 . S
H8721 C8744 0.950 . S
H8722 C8745 0.950 . S
H8723 C8747 0.950 . S
H8724 C8748 0.950 . S
H8725 C8749 0.951 . S
H8726 C8751 0.951 . S
H8727 C8753 0.950 . S
H8728 C8754 0.950 . S
H8729 C8756 0.950 . S
H8730 C8759 0.950 . S
H8731 C8760 0.950 . S
H8732 C8762 0.950 . S
H8733 C8763 0.950 . S
C8734 H8716 0.951 . S
C8734 C8735 1.366 . S
C8734 C8736 1.388 . S
C8735 C8734 1.366 . S
C8735 C8739 1.385 . S
C8736 H8717 0.951 . S
C8736 C8734 1.388 . S
C8736 C8737 1.366 . S
C8737 C8736 1.366 . S
C8737 C8738 1.414 . S
C8737 C8740 1.499 . S
C8738 H8718 0.950 . S
C8738 C8737 1.414 . S
C8738 C8739 1.374 . S
C8739 H8719 0.950 . S
C8739 C8735 1.385 . S
C8739 C8738 1.374 . S
C8740 C8737 1.499 . S
C8740 C8741 1.373 . S
C8740 C8742 1.389 . S
C8741 H8720 0.950 . S
C8741 C8740 1.373 . S
C8741 C8757 1.377 . S
C8742 C8740 1.389 . S
C8742 C8743 1.524 . S
C8742 C8756 1.377 . S
C8743 C8742 1.524 . S
C8743 C8744 1.397 . S
C8743 C8748 1.363 . S
C8744 H8721 0.950 . S
C8744 C8743 1.397 . S
C8744 C8745 1.334 . S
C8745 H8722 0.950 . S
C8745 C8744 1.334 . S
C8745 C8746 1.287 . S
C8746 C8745 1.287 . S
C8746 C8747 1.524 . S
C8746 H8765 0.913 . S
C8747 H8723 0.950 . S
C8747 C8746 1.524 . S
C8747 C8748 1.415 . S
C8748 H8724 0.950 . S
C8748 C8743 1.363 . S
C8748 C8747 1.415 . S
C8749 H8725 0.951 . S
C8749 C8750 1.366 . S
C8749 C8751 1.388 . S
C8750 C8749 1.366 . S
C8750 C8754 1.385 . S
C8751 H8726 0.951 . S
C8751 C8749 1.388 . S
C8751 C8752 1.366 . S
C8752 C8751 1.366 . S
C8752 C8753 1.414 . S
C8752 C8755 1.499 . S
C8753 H8727 0.950 . S
C8753 C8752 1.414 . S
C8753 C8754 1.374 . S
C8754 H8728 0.950 . S
C8754 C8750 1.385 . S
C8754 C8753 1.374 . S
C8755 C8752 1.499 . S
C8755 C8756 1.373 . S
C8755 C8757 1.389 . S
C8756 H8729 0.950 . S
C8756 C8742 1.377 . S
C8756 C8755 1.373 . S
C8757 C8741 1.377 . S
C8757 C8755 1.389 . S
C8757 C8758 1.524 . S
C8758 C8757 1.524 . S
C8758 C8759 1.397 . S
C8758 C8763 1.363 . S
C8759 H8730 0.950 . S
C8759 C8758 1.397 . S
C8759 C8760 1.334 . S
C8760 H8731 0.950 . S
C8760 C8759 1.334 . S
C8760 C8761 1.287 . S
C8761 C8760 1.287 . S
C8761 C8762 1.524 . S
C8761 H8764 0.999 . S
C8762 H8732 0.950 . S
C8762 C8761 1.524 . S
C8762 C8763 1.415 . S
C8763 H8733 0.950 . S
C8763 C8758 1.363 . S
C8763 C8762 1.415 . S
H8764 C8761 0.999 . S
H8765 C8746 0.913 . S
H8766 C8784 0.951 . S
H8767 C8786 0.951 . S
H8768 C8788 0.950 . S
H8769 C8789 0.950 . S
H8770 C8791 0.950 . S
H8771 C8794 0.950 . S
H8772 C8795 0.950 . S
H8773 C8797 0.950 . S
H8774 C8798 0.950 . S
H8775 C8799 0.951 . S
H8776 C8801 0.951 . S
H8777 C8803 0.950 . S
H8778 C8804 0.950 . S
H8779 C8806 0.950 . S
H8780 C8809 0.950 . S
H8781 C8810 0.950 . S
H8782 C8812 0.950 . S
H8783 C8813 0.950 . S
C8784 H8766 0.951 . S
C8784 C8785 1.366 . S
C8784 C8786 1.388 . S
C8785 C8784 1.366 . S
C8785 C8789 1.385 . S
C8786 H8767 0.951 . S
C8786 C8784 1.388 . S
C8786 C8787 1.366 . S
C8787 C8786 1.366 . S
C8787 C8788 1.414 . S
C8787 C8790 1.499 . S
C8788 H8768 0.950 . S
C8788 C8787 1.414 . S
C8788 C8789 1.374 . S
C8789 H8769 0.950 . S
C8789 C8785 1.385 . S
C8789 C8788 1.374 . S
C8790 C8787 1.499 . S
C8790 C8791 1.373 . S
C8790 C8792 1.389 . S
C8791 H8770 0.950 . S
C8791 C8790 1.373 . S
C8791 C8807 1.377 . S
C8792 C8790 1.389 . S
C8792 C8793 1.524 . S
C8792 C8806 1.377 . S
C8793 C8792 1.524 . S
C8793 C8794 1.397 . S
C8793 C8798 1.363 . S
C8794 H8771 0.950 . S
C8794 C8793 1.397 . S
C8794 C8795 1.334 . S
C8795 H8772 0.950 . S
C8795 C8794 1.334 . S
C8795 C8796 1.287 . S
C8796 C8795 1.287 . S
C8796 C8797 1.524 . S
C8796 H8815 0.913 . S
C8797 H8773 0.950 . S
C8797 C8796 1.524 . S
C8797 C8798 1.415 . S
C8798 H8774 0.950 . S
C8798 C8793 1.363 . S
C8798 C8797 1.415 . S
C8799 H8775 0.951 . S
C8799 C8800 1.366 . S
C8799 C8801 1.388 . S
C8800 C8799 1.366 . S
C8800 C8804 1.385 . S
C8801 H8776 0.951 . S
C8801 C8799 1.388 . S
C8801 C8802 1.366 . S
C8802 C8801 1.366 . S
C8802 C8803 1.414 . S
C8802 C8805 1.499 . S
C8803 H8777 0.950 . S
C8803 C8802 1.414 . S
C8803 C8804 1.374 . S
C8804 H8778 0.950 . S
C8804 C8800 1.385 . S
C8804 C8803 1.374 . S
C8805 C8802 1.499 . S
C8805 C8806 1.373 . S
C8805 C8807 1.389 . S
C8806 H8779 0.950 . S
C8806 C8792 1.377 . S
C8806 C8805 1.373 . S
C8807 C8791 1.377 . S
C8807 C8805 1.389 . S
C8807 C8808 1.524 . S
C8808 C8807 1.524 . S
C8808 C8809 1.397 . S
C8808 C8813 1.363 . S
C8809 H8780 0.950 . S
C8809 C8808 1.397 . S
C8809 C8810 1.334 . S
C8810 H8781 0.950 . S
C8810 C8809 1.334 . S
C8810 C8811 1.287 . S
C8811 C8810 1.287 . S
C8811 C8812 1.524 . S
C8811 H8814 0.999 . S
C8812 H8782 0.950 . S
C8812 C8811 1.524 . S
C8812 C8813 1.415 . S
C8813 H8783 0.950 . S
C8813 C8808 1.363 . S
C8813 C8812 1.415 . S
H8814 C8811 0.999 . S
H8815 C8796 0.913 . S
C4050 C1309 1.343 . S
C4035 C21 1.616 . S
C4100 C1449 1.219 . S
C4085 C42 1.575 . S
C4135 C82 1.528 . S
C4150 C1509 1.171 . S
C4200 C1633 1.009 . S
C4185 C135 1.672 . S
C4235 C175 1.342 . S
C4250 C1623 1.035 . S
C4285 C221 1.671 . S
C4300 C1335 1.248 . S
C4335 C255 1.537 . S
C4350 C1423 1.268 . S
C4400 C1519 0.964 . S
C4385 C301 1.601 . S
C4450 C1765 1.370 . S
C4435 C15 1.614 . S
C4485 C55 1.479 . S
C4500 C1879 1.209 . S
C4535 C101 1.684 . S
C4550 C2019 1.282 . S
C4600 C2107 1.271 . S
C4585 C141 1.514 . S
C4635 C162 1.512 . S
C4650 C2203 0.897 . S
C4700 C2307 1.156 . S
C4685 C215 1.509 . S
C4735 C261 1.529 . S
C4750 C2449 1.305 . S
C4800 C2535 1.127 . S
C4785 C282 1.446 . S
C4835 C2 1.733 . S
C4850 C2133 1.328 . S
C4885 C181 1.474 . S
C4900 C2317 0.902 . S
C4950 C2475 1.245 . S
C4935 C202 1.658 . S
C4985 C242 1.640 . S
C5000 C2545 1.004 . S
C5050 C2193 1.088 . S
C5035 C295 1.446 . S
C5100 C1905 1.239 . S
C5085 C95 1.659 . S
C5135 C122 1.505 . S
C5150 C1993 1.287 . S
C5200 C1791 1.157 . S
C5185 C61 1.525 . S
C5250 C2677 1.306 . S
C5235 C341 1.577 . S
C5285 C362 1.519 . S
C5300 C2773 0.908 . S
C5335 C402 1.500 . S
C5350 C2877 1.162 . S
C5400 C3001 0.952 . S
C5385 C455 1.564 . S
C5435 C495 1.368 . S
C5450 C2991 1.048 . S
C5485 C541 1.698 . S
C5500 C2703 1.273 . S
C5535 C575 1.421 . S
C5550 C2763 1.108 . S
C5585 C621 1.628 . S
C5600 C2887 1.004 . S
C5650 C2247 1.268 . S
C5635 C335 1.645 . S
C5685 C375 1.399 . S
C5700 C3105 1.074 . S
C5750 C2421 1.150 . S
C5735 C421 1.520 . S
C5785 C461 1.413 . S
C5800 C3219 1.113 . S
C5835 C482 1.474 . S
C5850 C1737 1.112 . S
C5900 C3361 1.285 . S
C5885 C535 1.543 . S
C5935 C581 1.552 . S
C5950 C1975 0.934 . S
C6000 C3447 1.154 . S
C5985 C602 1.465 . S
C6035 C322 1.695 . S
C6050 C3229 1.012 . S
C6100 C3387 1.136 . S
C6085 C501 1.535 . S
C6135 C522 1.577 . S
C6150 C1965 1.193 . S
C6200 C3457 0.992 . S
C6185 C562 1.588 . S
C6235 C615 1.560 . S
C6250 C1747 0.914 . S
C6285 C415 1.606 . S
C6300 C3115 0.954 . S
C6335 C442 1.516 . S
C6350 C2431 0.912 . S
C6385 C381 1.418 . S
C6400 C2221 1.197 . S
C6435 C661 1.542 . S
C6450 C2905 1.277 . S
C6500 C3045 1.163 . S
C6485 C682 1.518 . S
C6535 C722 1.520 . S
C6550 C2649 1.169 . S
C6585 C775 1.722 . S
C6600 C2817 1.303 . S
C6635 C815 1.377 . S
C6650 C2791 1.137 . S
C6685 C861 1.630 . S
C6700 C2931 1.211 . S
C6750 C3019 1.215 . S
C6735 C895 1.497 . S
C6785 C941 1.640 . S
C6800 C2659 0.989 . S
C6850 C3561 1.130 . S
C6835 C655 1.505 . S
C6885 C695 1.442 . S
C6900 C2335 1.186 . S
C6950 C3729 1.286 . S
C6935 C741 1.695 . S
C6985 C781 1.548 . S
C7000 C2563 1.310 . S
C7035 C802 1.542 . S
C7050 C3799 0.924 . S
C7085 C855 1.481 . S
C7100 C1851 1.123 . S
C7150 C3913 0.943 . S
C7135 C901 1.553 . S
C7185 C922 1.493 . S
C7200 C2079 1.168 . S
C7250 C2589 1.267 . S
C7235 C642 1.662 . S
C7300 C1861 0.907 . S
C7285 C821 1.500 . S
C7335 C842 1.568 . S
C7350 C3903 1.188 . S
C7385 C882 1.611 . S
C7400 C2089 0.996 . S
C7450 C3789 1.129 . S
C7435 C935 1.496 . S
C7500 C2361 1.228 . S
C7485 C735 1.649 . S
C7550 C3703 1.329 . S
C7535 C762 1.550 . S
C7600 C3571 0.938 . S
C7585 C701 1.548 . S
C7635 C981 1.559 . S
C7650 C1537 1.295 . S
C7685 C1002 1.558 . S
C7700 C1677 1.221 . S
C7750 C1281 1.183 . S
C7735 C1042 1.521 . S
C7800 C1405 0.989 . S
C7785 C1095 1.657 . S
C7850 C1395 1.074 . S
C7835 C1135 1.414 . S
C7900 C1563 1.263 . S
C7885 C1181 1.687 . S
C7950 C1651 1.210 . S
C7935 C1215 1.483 . S
C7985 C1261 1.719 . S
C8000 C1291 1.065 . S
C8035 C975 1.641 . S
C8050 C3843 1.267 . S
C8100 C3333 1.110 . S
C8085 C1015 1.441 . S
C8150 C3957 1.213 . S
C8135 C1061 1.621 . S
C8200 C3475 1.265 . S
C8185 C1101 1.502 . S
C8235 C1122 1.468 . S
C8250 C3589 1.215 . S
C8300 C3133 1.275 . S
C8285 C1175 1.541 . S
C8350 C3685 0.954 . S
C8335 C1221 1.594 . S
C8385 C1242 1.550 . S
C8400 C3247 1.302 . S
C8450 C3501 1.248 . S
C8435 C962 1.654 . S
C8500 C3159 1.160 . S
C8485 C1141 1.563 . S
C8550 C3675 1.189 . S
C8535 C1162 1.569 . S
C8585 C1202 1.625 . S
C8600 C3273 1.243 . S
C8635 C1255 1.693 . S
C8650 C3615 1.317 . S
C8685 C1055 1.604 . S
C8700 C3343 0.969 . S
C8735 C1082 1.535 . S
C8750 C3931 1.317 . S
C8800 C3817 1.219 . S
C8785 C1021 1.438 . S
