# Generated by pormake.
# Topology dag, (6,3)-cn, num edge types: 1
# Building blocks:
#     Node 0, Type 0, BuildingBlock: OJICUG_clean_sbu_0, # of connection points: 6
#     Node 1, Type 0, BuildingBlock: OJICUG_clean_sbu_0, # of connection points: 6
#     Node 2, Type 0, BuildingBlock: OJICUG_clean_sbu_0, # of connection points: 6
#     Node 3, Type 0, BuildingBlock: OJICUG_clean_sbu_0, # of connection points: 6
#     Node 4, Type 1, BuildingBlock: KAKCAD_clean_linker_0, # of connection points: 3
#     Node 5, Type 1, BuildingBlock: KAKCAD_clean_linker_0, # of connection points: 3
#     Node 6, Type 1, BuildingBlock: KAKCAD_clean_linker_0, # of connection points: 3
#     Node 7, Type 1, BuildingBlock: KAKCAD_clean_linker_0, # of connection points: 3
#     Node 8, Type 1, BuildingBlock: KAKCAD_clean_linker_0, # of connection points: 3
#     Node 9, Type 1, BuildingBlock: KAKCAD_clean_linker_0, # of connection points: 3
#     Node 10, Type 1, BuildingBlock: KAKCAD_clean_linker_0, # of connection points: 3
#     Node 11, Type 1, BuildingBlock: KAKCAD_clean_linker_0, # of connection points: 3
#     Edge 12, Type (0, 1), BuildingBlock: XIVTED_clean_linker_0, # of connection points: 2
#     Edge 13, Type (0, 1), BuildingBlock: XIVTED_clean_linker_0, # of connection points: 2
#     Edge 14, Type (0, 1), BuildingBlock: XIVTED_clean_linker_0, # of connection points: 2
#     Edge 15, Type (0, 1), BuildingBlock: XIVTED_clean_linker_0, # of connection points: 2
#     Edge 16, Type (0, 1), BuildingBlock: XIVTED_clean_linker_0, # of connection points: 2
#     Edge 17, Type (0, 1), BuildingBlock: XIVTED_clean_linker_0, # of connection points: 2
#     Edge 18, Type (0, 1), BuildingBlock: XIVTED_clean_linker_0, # of connection points: 2
#     Edge 19, Type (0, 1), BuildingBlock: XIVTED_clean_linker_0, # of connection points: 2
#     Edge 20, Type (0, 1), BuildingBlock: XIVTED_clean_linker_0, # of connection points: 2
#     Edge 21, Type (0, 1), BuildingBlock: XIVTED_clean_linker_0, # of connection points: 2
#     Edge 22, Type (0, 1), BuildingBlock: XIVTED_clean_linker_0, # of connection points: 2
#     Edge 23, Type (0, 1), BuildingBlock: XIVTED_clean_linker_0, # of connection points: 2
#     Edge 24, Type (0, 1), BuildingBlock: XIVTED_clean_linker_0, # of connection points: 2
#     Edge 25, Type (0, 1), BuildingBlock: XIVTED_clean_linker_0, # of connection points: 2
#     Edge 26, Type (0, 1), BuildingBlock: XIVTED_clean_linker_0, # of connection points: 2
#     Edge 27, Type (0, 1), BuildingBlock: XIVTED_clean_linker_0, # of connection points: 2
#     Edge 28, Type (0, 1), BuildingBlock: XIVTED_clean_linker_0, # of connection points: 2
#     Edge 29, Type (0, 1), BuildingBlock: XIVTED_clean_linker_0, # of connection points: 2
#     Edge 30, Type (0, 1), BuildingBlock: XIVTED_clean_linker_0, # of connection points: 2
#     Edge 31, Type (0, 1), BuildingBlock: XIVTED_clean_linker_0, # of connection points: 2
#     Edge 32, Type (0, 1), BuildingBlock: XIVTED_clean_linker_0, # of connection points: 2
#     Edge 33, Type (0, 1), BuildingBlock: XIVTED_clean_linker_0, # of connection points: 2
#     Edge 34, Type (0, 1), BuildingBlock: XIVTED_clean_linker_0, # of connection points: 2
#     Edge 35, Type (0, 1), BuildingBlock: XIVTED_clean_linker_0, # of connection points: 2
# Relax obj value: 0.252
# Max RMSD: 0.199
# Mean RMSD: 0.164
data_MOF--net-dag--node1-OJICUG_clean_sbu_0--node2-KAKCAD_clean_linker_0--edge1-XIVTED_clean_linker_0
_symmetry_space_group_name_H-M    P1
_symmetry_Int_Tables_number       1
_symmetry_cell_setting            triclinic
loop_
_symmetry_equiv_pos_as_xyz
'x, y, z'
_cell_length_a     44.096888
_cell_length_b     46.205789
_cell_length_c     45.306799
_cell_angle_alpha  95.219126
_cell_angle_beta   90.082143
_cell_angle_gamma 90.062888
loop_
_atom_site_label
_atom_site_type_symbol
_atom_site_fract_x
_atom_site_fract_y
_atom_site_fract_z
_atom_type_partial_charge
Sc0 Sc 0.12668 0.85351 0.03971 0.0
Sc1 Sc 0.13834 0.77876 0.04532 0.0
Sc2 Sc 0.18725 0.83129 0.08238 0.0
O3 O 0.15076 0.8211 0.05581 0.0
C4 C 0.19434 0.87778 0.03546 0.0
C5 C 0.12948 0.80678 0.98371 0.0
C6 C 0.21076 0.77588 0.04153 0.0
C7 C 0.0738 0.80902 0.0533 0.0
C8 C 0.13876 0.87914 0.10638 0.0
C9 C 0.15665 0.77929 0.11354 0.0
O10 O 0.16635 0.87724 0.02887 0.0
O11 O 0.13179 0.78486 0.99873 0.0
O12 O 0.2152 0.79891 0.05857 0.0
O13 O 0.08383 0.83368 0.04762 0.0
O14 O 0.16301 0.8647 0.10897 0.0
O15 O 0.14327 0.76778 0.0905 0.0
O16 O 0.12285 0.87714 0.08282 0.0
O17 O 0.09081 0.78695 0.0546 0.0
O18 O 0.17298 0.80195 0.11364 0.0
O19 O 0.12833 0.83277 0.99551 0.0
O20 O 0.2057 0.8622 0.05432 0.0
O21 O 0.18443 0.76601 0.03485 0.0
Sc22 Sc 0.6898 0.6631 0.46459 0.0
Sc23 Sc 0.63928 0.71766 0.49489 0.0
Sc24 Sc 0.62451 0.64362 0.50216 0.0
O25 O 0.65122 0.67487 0.48723 0.0
C26 C 0.64259 0.61569 0.43731 0.0
C27 C 0.66611 0.71569 0.42942 0.0
C28 C 0.57555 0.68767 0.47933 0.0
C29 C 0.711 0.7184 0.50696 0.0
C30 C 0.68985 0.61758 0.51347 0.0
C31 C 0.62186 0.69279 0.55623 0.0
O32 O 0.66649 0.63087 0.43531 0.0
O33 O 0.64911 0.72698 0.44998 0.0
O34 O 0.58402 0.66298 0.48648 0.0
O35 O 0.71627 0.69437 0.49178 0.0
O36 O 0.66184 0.62051 0.51938 0.0
O37 O 0.62758 0.71378 0.54076 0.0
O38 O 0.70293 0.631 0.49381 0.0
O39 O 0.68465 0.72965 0.50951 0.0
O40 O 0.62052 0.66648 0.54542 0.0
O41 O 0.68207 0.69326 0.43219 0.0
O42 O 0.62588 0.61758 0.46027 0.0
O43 O 0.59277 0.70987 0.48115 0.0
Sc44 Sc 0.8692 0.217 0.00928 0.0
Sc45 Sc 0.82086 0.16861 0.96637 0.0
Sc46 Sc 0.88088 0.14178 0.00627 0.0
O47 O 0.85693 0.1759 0.99396 0.0
C48 C 0.93379 0.1886 0.00018 0.0
C49 C 0.85196 0.22358 0.94165 0.0
C50 C 0.87073 0.12354 0.93829 0.0
C51 C 0.79722 0.22015 0.01265 0.0
C52 C 0.87589 0.18128 0.06656 0.0
C53 C 0.81331 0.11585 0.00478 0.0
O54 O 0.9164 0.21025 0.99835 0.0
O55 O 0.83702 0.20001 0.93824 0.0
O56 O 0.88775 0.12534 0.96106 0.0
O57 O 0.82349 0.22778 0.02195 0.0
O58 O 0.87529 0.15635 0.05213 0.0
O59 O 0.80122 0.13613 0.99177 0.0
O60 O 0.87635 0.20494 0.05407 0.0
O61 O 0.7928 0.20029 0.9917 0.0
O62 O 0.84166 0.11444 0.00939 0.0
O63 O 0.86336 0.23359 0.96634 0.0
O64 O 0.92394 0.1636 0.00493 0.0
O65 O 0.84495 0.13598 0.93781 0.0
Sc66 Sc 0.37613 0.35383 0.54336 0.0
Sc67 Sc 0.30948 0.3308 0.57567 0.0
Sc68 Sc 0.36096 0.27885 0.54198 0.0
O69 O 0.34879 0.32104 0.55356 0.0
C70 C 0.37674 0.31105 0.48417 0.0
C71 C 0.31032 0.38111 0.53325 0.0
C72 C 0.28939 0.27682 0.5309 0.0
C73 C 0.35633 0.3761 0.60835 0.0
C74 C 0.42519 0.30665 0.55922 0.0
C75 C 0.33563 0.27747 0.60794 0.0
O76 O 0.37807 0.33624 0.49802 0.0
O77 O 0.29553 0.36276 0.54673 0.0
O78 O 0.31612 0.2673 0.52607 0.0
O79 O 0.3762 0.37341 0.58805 0.0
O80 O 0.40747 0.28491 0.5562 0.0
O81 O 0.31983 0.30031 0.60679 0.0
O82 O 0.41695 0.33208 0.55443 0.0
O83 O 0.33051 0.36376 0.60608 0.0
O84 O 0.35108 0.26615 0.58608 0.0
O85 O 0.33909 0.38089 0.53158 0.0
O86 O 0.37215 0.28797 0.49699 0.0
O87 O 0.28358 0.29909 0.5485 0.0
C88 C 0.96798 0.18262 0.27902 0.0
C89 C 0.93967 0.1689 0.27393 0.0
C90 C 0.98831 0.17276 0.29955 0.0
C91 C 0.98086 0.14884 0.3151 0.0
C92 C 0.95177 0.13667 0.31192 0.0
C93 C 0.93121 0.14685 0.29181 0.0
C94 C 0.0049 0.13378 0.33045 0.0
C95 C 0.02343 0.14889 0.3518 0.0
C96 C 0.04854 0.13513 0.3635 0.0
C97 C 0.05531 0.10624 0.35329 0.0
C98 C 0.03758 0.09121 0.3311 0.0
C99 C 0.01191 0.10494 0.32046 0.0
C100 C 0.04807 0.06322 0.31574 0.0
C101 C 0.07866 0.05973 0.30746 0.0
C102 C 0.02719 0.04137 0.30602 0.0
C103 C 0.03634 0.01749 0.28698 0.0
C104 C 0.06658 0.01491 0.27731 0.0
C105 C 0.06975 0.15173 0.38389 0.0
C106 C 0.08208 0.17801 0.37611 0.0
C107 C 0.07948 0.14047 0.41007 0.0
C108 C 0.10158 0.15504 0.42793 0.0
C109 C 0.11469 0.18075 0.41953 0.0
C110 C 0.10453 0.19228 0.39366 0.0
C111 C 0.08781 0.03584 0.28849 0.0
H112 H 0.97549 0.19946 0.26559 0.0
H113 H 0.01076 0.18232 0.30149 0.0
H114 H 0.94552 0.11831 0.32391 0.0
H115 H 0.90931 0.13632 0.28911 0.0
H116 H 0.01862 0.17147 0.35887 0.0
H117 H 0.99871 0.09406 0.30252 0.0
H118 H 0.07537 0.096 0.36147 0.0
H119 H 0.09527 0.07634 0.31412 0.0
H120 H 0.00354 0.04326 0.31234 0.0
H121 H 0.01956 0.00143 0.27917 0.0
H122 H 0.07515 0.18696 0.35587 0.0
H123 H 0.07026 0.12022 0.41647 0.0
H124 H 0.11121 0.0347 0.28124 0.0
H125 H 0.11423 0.21217 0.38684 0.0
H126 H 0.10919 0.14568 0.44771 0.0
C127 C 0.39784 0.54199 0.78744 0.0
C128 C 0.41841 0.5233 0.77155 0.0
C129 C 0.40781 0.56773 0.80291 0.0
C130 C 0.43877 0.57521 0.80361 0.0
C131 C 0.45957 0.55561 0.78931 0.0
C132 C 0.44952 0.53016 0.77324 0.0
C133 C 0.44886 0.60422 0.81723 0.0
C134 C 0.43351 0.61802 0.84165 0.0
C135 C 0.43976 0.64703 0.85182 0.0
C136 C 0.46334 0.66185 0.8387 0.0
C137 C 0.47979 0.64802 0.81483 0.0
C138 C 0.47206 0.61943 0.80411 0.0
C139 C 0.50322 0.66366 0.79883 0.0
C140 C 0.49789 0.69181 0.79061 0.0
C141 C 0.52949 0.64893 0.78844 0.0
C142 C 0.54855 0.66088 0.76822 0.0
C143 C 0.54211 0.68813 0.75812 0.0
C144 C 0.41943 0.6621 0.87424 0.0
C145 C 0.38792 0.65892 0.87078 0.0
C146 C 0.43083 0.67881 0.89928 0.0
C147 C 0.41094 0.69115 0.92105 0.0
C148 C 0.37942 0.68699 0.91797 0.0
C149 C 0.3682 0.67119 0.89232 0.0
C150 C 0.51721 0.70397 0.77053 0.0
H151 H 0.37381 0.53717 0.78737 0.0
H152 H 0.39091 0.58226 0.81329 0.0
H153 H 0.48365 0.56024 0.78985 0.0
H154 H 0.46615 0.51654 0.76119 0.0
H155 H 0.41591 0.60645 0.85243 0.0
H156 H 0.4831 0.60961 0.78434 0.0
H157 H 0.46818 0.68428 0.84639 0.0
H158 H 0.47785 0.70375 0.79824 0.0
H159 H 0.53449 0.62739 0.79477 0.0
H160 H 0.56722 0.64774 0.75917 0.0
H161 H 0.37846 0.64677 0.85133 0.0
H162 H 0.45505 0.6816 0.90241 0.0
H163 H 0.51188 0.72529 0.76384 0.0
H164 H 0.34404 0.66833 0.8888 0.0
H165 H 0.42024 0.70327 0.94057 0.0
C166 C 0.83154 0.79485 0.10124 0.0
C167 C 0.85164 0.81705 0.09477 0.0
C168 C 0.80157 0.80149 0.10969 0.0
C169 C 0.79131 0.83044 0.1119 0.0
C170 C 0.81178 0.85256 0.10614 0.0
C171 C 0.84147 0.84595 0.09763 0.0
C172 C 0.75965 0.83817 0.12066 0.0
C173 C 0.74555 0.82581 0.14424 0.0
C174 C 0.71738 0.83627 0.1552 0.0
C175 C 0.70329 0.85942 0.1424 0.0
C176 C 0.71663 0.87106 0.11802 0.0
C177 C 0.74445 0.86008 0.10709 0.0
C178 C 0.70419 0.89693 0.10546 0.0
C179 C 0.69906 0.8961 0.07484 0.0
C180 C 0.70461 0.92384 0.12251 0.0
C181 C 0.7037 0.94966 0.10861 0.0
C182 C 0.70227 0.94878 0.07751 0.0
C183 C 0.70404 0.82395 0.18125 0.0
C184 C 0.70211 0.79371 0.18193 0.0
C185 C 0.69562 0.84209 0.20646 0.0
C186 C 0.68715 0.83011 0.2325 0.0
C187 C 0.68678 0.79979 0.23367 0.0
C188 C 0.69338 0.78176 0.20778 0.0
C189 C 0.69785 0.92184 0.06099 0.0
H190 H 0.8388 0.77238 0.09921 0.0
H191 H 0.78633 0.78398 0.11401 0.0
H192 H 0.80499 0.87517 0.10855 0.0
H193 H 0.85663 0.86363 0.09358 0.0
H194 H 0.75725 0.80916 0.15522 0.0
H195 H 0.755 0.86968 0.08868 0.0
H196 H 0.68207 0.86825 0.15126 0.0
H197 H 0.69863 0.87551 0.06132 0.0
H198 H 0.70881 0.92493 0.14615 0.0
H199 H 0.70722 0.97003 0.12197 0.0
H200 H 0.70809 0.77929 0.16261 0.0
H201 H 0.69711 0.8655 0.2065 0.0
H202 H 0.6961 0.92052 0.03705 0.0
H203 H 0.69258 0.75833 0.20769 0.0
H204 H 0.68241 0.84462 0.25208 0.0
C205 C 0.65225 0.30446 0.65192 0.0
C206 C 0.64214 0.30008 0.62243 0.0
C207 C 0.68248 0.31159 0.65825 0.0
C208 C 0.70324 0.31461 0.6352 0.0
C209 C 0.69352 0.3086 0.60571 0.0
C210 C 0.66326 0.30128 0.59938 0.0
C211 C 0.73382 0.32697 0.64201 0.0
C212 C 0.75059 0.31855 0.66614 0.0
C213 C 0.77749 0.33309 0.67515 0.0
C214 C 0.78795 0.35598 0.65952 0.0
C215 C 0.77123 0.36499 0.63558 0.0
C216 C 0.74452 0.34998 0.62667 0.0
C217 C 0.77863 0.3926 0.62279 0.0
C218 C 0.78533 0.41768 0.64162 0.0
C219 C 0.77491 0.39511 0.59231 0.0
C220 C 0.77543 0.42238 0.5813 0.0
C221 C 0.77962 0.44768 0.60058 0.0
C222 C 0.79279 0.3264 0.70276 0.0
C223 C 0.77587 0.32571 0.7289 0.0
C224 C 0.82413 0.32111 0.7034 0.0
C225 C 0.83814 0.31439 0.72966 0.0
C226 C 0.8211 0.31349 0.75576 0.0
C227 C 0.7899 0.31947 0.75516 0.0
C228 C 0.78583 0.44493 0.63062 0.0
H229 H 0.63651 0.30341 0.67012 0.0
H230 H 0.68916 0.31631 0.6812 0.0
H231 H 0.70908 0.31053 0.58752 0.0
H232 H 0.65607 0.29817 0.57644 0.0
H233 H 0.74232 0.30108 0.67843 0.0
H234 H 0.73067 0.35776 0.60926 0.0
H235 H 0.80821 0.36778 0.66702 0.0
H236 H 0.78812 0.41657 0.66525 0.0
H237 H 0.77005 0.37611 0.57722 0.0
H238 H 0.77046 0.42376 0.55805 0.0
H239 H 0.75173 0.33008 0.72904 0.0
H240 H 0.83761 0.32162 0.68348 0.0
H241 H 0.78955 0.46402 0.64592 0.0
H242 H 0.77615 0.31854 0.77485 0.0
H243 H 0.86223 0.30984 0.72958 0.0
C244 C 0.54452 0.47018 0.25983 0.0
C245 C 0.57482 0.47329 0.26935 0.0
C246 C 0.53535 0.4457 0.24161 0.0
C247 C 0.55629 0.42381 0.23244 0.0
C248 C 0.58694 0.4278 0.24041 0.0
C249 C 0.5961 0.45226 0.25867 0.0
C250 C 0.54579 0.39543 0.21792 0.0
C251 C 0.56277 0.38043 0.19522 0.0
C252 C 0.55567 0.35152 0.18515 0.0
C253 C 0.53117 0.33766 0.19785 0.0
C254 C 0.51354 0.3527 0.2199 0.0
C255 C 0.52072 0.38159 0.22955 0.0
C256 C 0.49004 0.33766 0.23595 0.0
C257 C 0.46061 0.34902 0.23847 0.0
C258 C 0.49827 0.31482 0.25268 0.0
C259 C 0.47825 0.30526 0.27365 0.0
C260 C 0.44951 0.31821 0.27797 0.0
C261 C 0.57573 0.33514 0.16345 0.0
C262 C 0.58494 0.34726 0.13756 0.0
C263 C 0.58745 0.30808 0.16958 0.0
C264 C 0.60896 0.29398 0.15084 0.0
C265 C 0.61887 0.30651 0.12544 0.0
C266 C 0.60617 0.33294 0.11857 0.0
C267 C 0.44037 0.3391 0.25898 0.0
H268 H 0.52767 0.48629 0.26717 0.0
H269 H 0.51165 0.4434 0.23549 0.0
H270 H 0.60358 0.41117 0.23406 0.0
H271 H 0.61955 0.45379 0.26579 0.0
H272 H 0.58239 0.3908 0.18634 0.0
H273 H 0.50808 0.39252 0.24782 0.0
H274 H 0.52605 0.31511 0.19089 0.0
H275 H 0.45381 0.36658 0.2256 0.0
H276 H 0.521 0.30593 0.25122 0.0
H277 H 0.48626 0.28932 0.28791 0.0
H278 H 0.57611 0.36806 0.13232 0.0
H279 H 0.58092 0.29838 0.18951 0.0
H280 H 0.41813 0.34897 0.26106 0.0
H281 H 0.6136 0.34312 0.09921 0.0
H282 H 0.61832 0.27353 0.15651 0.0
C283 C 0.16237 0.19617 0.92669 0.0
C284 C 0.15578 0.19623 0.95702 0.0
C285 C 0.19116 0.18836 0.91595 0.0
C286 C 0.2141 0.18054 0.93532 0.0
C287 C 0.20801 0.18224 0.96588 0.0
C288 C 0.17914 0.18996 0.97661 0.0
C289 C 0.243 0.16785 0.92321 0.0
C290 C 0.25664 0.17846 0.89843 0.0
C291 C 0.28073 0.16347 0.88357 0.0
C292 C 0.2924 0.13845 0.89493 0.0
C293 C 0.27949 0.12784 0.92019 0.0
C294 C 0.25485 0.14275 0.93414 0.0
C295 C 0.2885 0.09918 0.92985 0.0
C296 C 0.29289 0.07525 0.90884 0.0
C297 C 0.28871 0.09464 0.96011 0.0
C298 C 0.29017 0.06654 0.96902 0.0
C299 C 0.29171 0.04236 0.94785 0.0
C300 C 0.29147 0.17254 0.85473 0.0
C301 C 0.27034 0.18203 0.83444 0.0
C302 C 0.3224 0.17162 0.84698 0.0
C303 C 0.33197 0.18095 0.8199 0.0
C304 C 0.31077 0.19153 0.80042 0.0
C305 C 0.2799 0.19159 0.80775 0.0
C306 C 0.29464 0.04715 0.91777 0.0
H307 H 0.1448 0.2005 0.91096 0.0
H308 H 0.19485 0.18687 0.89224 0.0
H309 H 0.22532 0.17679 0.98142 0.0
H310 H 0.17486 0.19025 0.00017 0.0
H311 H 0.24782 0.19805 0.89012 0.0
H312 H 0.24341 0.13356 0.95227 0.0
H313 H 0.31062 0.1265 0.88338 0.0
H314 H 0.29281 0.07789 0.88533 0.0
H315 H 0.28595 0.11271 0.97686 0.0
H316 H 0.2878 0.06376 0.99238 0.0
H317 H 0.24626 0.1821 0.83915 0.0
H318 H 0.33923 0.1644 0.8621 0.0
H319 H 0.2965 0.02904 0.90094 0.0
H320 H 0.26311 0.19927 0.79282 0.0
H321 H 0.35593 0.18082 0.81465 0.0
C322 C 0.3369 0.7042 0.41966 0.0
C323 C 0.35714 0.68122 0.42307 0.0
C324 C 0.30569 0.69886 0.41662 0.0
C325 C 0.29421 0.67051 0.41726 0.0
C326 C 0.31453 0.64768 0.42077 0.0
C327 C 0.34551 0.65298 0.42374 0.0
C328 C 0.26132 0.66411 0.41361 0.0
C329 C 0.24452 0.6754 0.39101 0.0
C330 C 0.21462 0.66591 0.3847 0.0
C331 C 0.20165 0.64479 0.40136 0.0
C332 C 0.21805 0.63386 0.42444 0.0
C333 C 0.24753 0.64405 0.43074 0.0
C334 C 0.20703 0.60883 0.43952 0.0
C335 C 0.20935 0.60941 0.47046 0.0
C336 C 0.20108 0.58232 0.42282 0.0
C337 C 0.20137 0.55634 0.43645 0.0
C338 C 0.20757 0.55666 0.46692 0.0
C339 C 0.19817 0.67661 0.35923 0.0
C340 C 0.20041 0.70592 0.35361 0.0
C341 C 0.18187 0.65734 0.33925 0.0
C342 C 0.16918 0.66698 0.31359 0.0
C343 C 0.1726 0.69606 0.30733 0.0
C344 C 0.18791 0.71551 0.32795 0.0
C345 C 0.20949 0.58352 0.48408 0.0
H346 H 0.34521 0.72619 0.41896 0.0
H347 H 0.29053 0.71688 0.41398 0.0
H348 H 0.30655 0.62551 0.42083 0.0
H349 H 0.36037 0.63484 0.42682 0.0
H350 H 0.25539 0.69024 0.37711 0.0
H351 H 0.26048 0.635 0.44806 0.0
H352 H 0.17901 0.63663 0.39628 0.0
H353 H 0.21372 0.62966 0.48379 0.0
H354 H 0.19939 0.58134 0.39889 0.0
H355 H 0.19986 0.53597 0.42265 0.0
H356 H 0.21249 0.72138 0.36875 0.0
H357 H 0.17991 0.63455 0.34282 0.0
H358 H 0.21373 0.5844 0.5077 0.0
H359 H 0.19139 0.73797 0.32376 0.0
H360 H 0.15722 0.65151 0.29839 0.0
C361 C 0.06263 0.82544 0.75843 0.0
C362 C 0.05338 0.80624 0.77914 0.0
C363 C 0.04155 0.83658 0.73939 0.0
C364 C 0.01105 0.82809 0.74008 0.0
C365 C 0.00242 0.80653 0.75828 0.0
C366 C 0.02334 0.79579 0.77776 0.0
C367 C 0.98747 0.84581 0.72725 0.0
C368 C 0.96638 0.83347 0.70661 0.0
C369 C 0.94157 0.84989 0.69795 0.0
C370 C 0.93771 0.87854 0.71083 0.0
C371 C 0.95839 0.89093 0.73196 0.0
C372 C 0.98376 0.87464 0.73918 0.0
C373 C 0.95212 0.91957 0.74865 0.0
C374 C 0.93884 0.94256 0.73484 0.0
C375 C 0.95833 0.9236 0.77922 0.0
C376 C 0.95172 0.94985 0.79549 0.0
C377 C 0.93834 0.9727 0.78179 0.0
C378 C 0.91875 0.83673 0.67668 0.0
C379 C 0.92782 0.82036 0.65054 0.0
C380 C 0.88764 0.84071 0.68234 0.0
C381 C 0.86606 0.82883 0.66218 0.0
C382 C 0.87504 0.81273 0.63582 0.0
C383 C 0.90618 0.80853 0.63028 0.0
C384 C 0.93183 0.96884 0.75133 0.0
H385 H 0.08575 0.83334 0.7582 0.0
H386 H 0.04865 0.8532 0.72546 0.0
H387 H 0.97889 0.79993 0.75938 0.0
H388 H 0.01519 0.78121 0.79339 0.0
H389 H 0.96882 0.81092 0.69801 0.0
H390 H 2e-05 0.88385 0.7554 0.0
H391 H 0.91803 0.89085 0.70502 0.0
H392 H 0.93393 0.9403 0.71132 0.0
H393 H 0.96762 0.90619 0.79089 0.0
H394 H 0.95637 0.95198 0.81908 0.0
H395 H 0.95165 0.81715 0.6455 0.0
H396 H 0.87994 0.85273 0.70257 0.0
H397 H 0.92155 0.98619 0.74025 0.0
H398 H 0.91388 0.79649 0.61005 0.0
H399 H 0.84228 0.83194 0.66748 0.0
H400 H 0.16698 0.89117 0.16017 0.0
H401 H 0.03497 0.99612 0.22719 0.0
H402 H 0.08619 0.91096 0.11186 0.0
H403 H 0.1188 0.98231 0.27316 0.0
H404 H 0.05179 0.96196 0.1863 0.0
H405 H 0.14855 0.9222 0.20283 0.0
C406 C 0.1454 0.90205 0.15845 0.0
C407 C 0.1282 0.89847 0.13223 0.0
C408 C 0.06646 0.96626 0.20539 0.0
C409 C 0.10687 0.93395 0.18122 0.0
C410 C 0.05674 0.98556 0.22891 0.0
C411 C 0.0755 0.99211 0.25369 0.0
C412 C 0.09519 0.95334 0.20656 0.0
C413 C 0.10374 0.97816 0.25436 0.0
C414 C 0.13487 0.91975 0.18289 0.0
C415 C 0.10034 0.91312 0.13148 0.0
N416 N 0.11276 0.9595 0.23111 0.0
N417 N 0.09057 0.93018 0.1556 0.0
H418 H 0.59016 0.73842 0.58388 0.0
H419 H 0.6026 0.68002 0.74395 0.0
H420 H 0.63905 0.66086 0.6009 0.0
H421 H 0.52055 0.71848 0.71287 0.0
H422 H 0.62646 0.68661 0.69637 0.0
H423 H 0.57477 0.74435 0.63632 0.0
C424 C 0.59812 0.72302 0.59879 0.0
C425 C 0.61561 0.69897 0.58815 0.0
C426 C 0.6034 0.69403 0.70032 0.0
C427 C 0.59871 0.7059 0.64774 0.0
C428 C 0.58964 0.69015 0.72739 0.0
C429 C 0.55912 0.69797 0.73236 0.0
C430 C 0.58682 0.70637 0.67823 0.0
C431 C 0.54404 0.71204 0.71029 0.0
C432 C 0.58928 0.72635 0.62855 0.0
C433 C 0.62525 0.67951 0.60824 0.0
N434 N 0.55794 0.71552 0.68407 0.0
N435 N 0.61666 0.68338 0.63709 0.0
H436 H 0.83007 0.05986 0.00823 0.0
H437 H 0.68636 0.00655 0.08996 0.0
H438 H 0.75314 0.11725 0.02132 0.0
H439 H 0.74156 0.94953 0.03151 0.0
H440 H 0.71067 0.04857 0.0698 0.0
H441 H 0.79901 0.01992 0.02266 0.0
C442 C 0.80662 0.06407 0.01426 0.0
C443 C 0.79416 0.0919 0.01365 0.0
C444 C 0.71686 0.02678 0.06109 0.0
C445 C 0.75847 0.04621 0.03034 0.0
C446 C 0.7031 0.00287 0.07256 0.0
C447 C 0.71187 0.97447 0.06237 0.0
C448 C 0.73996 0.02209 0.0399 0.0
C449 C 0.73371 0.97092 0.03981 0.0
C450 C 0.78884 0.04121 0.02226 0.0
C451 C 0.76352 0.09604 0.02143 0.0
N452 N 0.74728 0.9944 0.0297 0.0
N453 N 0.74669 0.07343 0.02983 0.0
H454 H 0.46099 0.25763 0.55296 0.0
H455 H 0.59664 0.33303 0.64815 0.0
H456 H 0.46062 0.34716 0.58974 0.0
H457 H 0.61292 0.2622 0.58124 0.0
H458 H 0.54311 0.33219 0.63454 0.0
H459 H 0.51371 0.25331 0.57008 0.0
C460 C 0.47192 0.27627 0.56474 0.0
C461 C 0.45654 0.30285 0.56976 0.0
C462 C 0.55834 0.31668 0.62296 0.0
C463 C 0.51619 0.29792 0.58965 0.0
C464 C 0.58884 0.31696 0.63089 0.0
C465 C 0.60924 0.29763 0.61581 0.0
C466 C 0.54799 0.29679 0.59991 0.0
C467 C 0.59793 0.2776 0.59326 0.0
C468 C 0.50193 0.27381 0.57436 0.0
C469 C 0.47172 0.32635 0.58509 0.0
N470 N 0.56796 0.27767 0.58594 0.0
N471 N 0.5006 0.32328 0.59458 0.0
H472 H 0.67265 0.60228 0.38456 0.0
H473 H 0.54282 0.49349 0.31859 0.0
H474 H 0.59069 0.58312 0.4312 0.0
H475 H 0.62719 0.50607 0.27324 0.0
H476 H 0.55889 0.52917 0.35837 0.0
H477 H 0.6557 0.56932 0.34239 0.0
C478 C 0.65114 0.59115 0.38601 0.0
C479 C 0.63316 0.59546 0.41162 0.0
C480 C 0.57388 0.52428 0.33967 0.0
C481 C 0.61358 0.55785 0.36331 0.0
C482 C 0.56457 0.50407 0.31674 0.0
C483 C 0.58363 0.49676 0.29242 0.0
C484 C 0.60255 0.53737 0.33845 0.0
C485 C 0.61188 0.51081 0.29169 0.0
C486 C 0.64148 0.57236 0.36188 0.0
C487 C 0.60546 0.58046 0.41208 0.0
N488 N 0.62052 0.53039 0.3144 0.0
N489 N 0.59656 0.5624 0.38834 0.0
H490 H 0.97855 0.15215 0.01564 0.0
H491 H 0.11274 0.23517 0.94127 0.0
H492 H 0.96471 0.23322 0.97707 0.0
H493 H 0.12615 0.16456 0.99606 0.0
H494 H 0.05878 0.23584 0.9543 0.0
H495 H 0.03288 0.15702 0.00854 0.0
C496 C 0.98692 0.17104 0.00567 0.0
C497 C 0.96694 0.19223 0.99676 0.0
C498 C 0.07364 0.22047 0.96374 0.0
C499 C 0.02947 0.19792 0.9885 0.0
C500 C 0.1044 0.22001 0.95625 0.0
C501 C 0.12399 0.19972 0.96752 0.0
C502 C 0.06238 0.20026 0.98234 0.0
C503 C 0.11202 0.18078 0.98706 0.0
C504 C 0.01805 0.17388 0.00176 0.0
C505 C 0.97927 0.21635 0.98425 0.0
N506 N 0.08199 0.18133 0.99359 0.0
N507 N 0.00976 0.21843 0.98024 0.0
H508 H 0.33417 0.43136 0.51616 0.0
H509 H 0.1831 0.50127 0.4604 0.0
H510 H 0.24891 0.38633 0.52313 0.0
H511 H 0.25791 0.55106 0.50017 0.0
H512 H 0.20681 0.45671 0.47588 0.0
H513 H 0.30689 0.47317 0.50085 0.0
C514 C 0.30971 0.43009 0.51419 0.0
C515 C 0.29381 0.40529 0.52115 0.0
C516 C 0.21765 0.47753 0.48148 0.0
C517 C 0.26242 0.45336 0.50365 0.0
C518 C 0.2042 0.50286 0.47271 0.0
C519 C 0.21841 0.52991 0.47928 0.0
C520 C 0.24577 0.47941 0.4961 0.0
C521 C 0.24583 0.5308 0.49509 0.0
C522 C 0.29414 0.45411 0.50567 0.0
C523 C 0.26204 0.40509 0.51818 0.0
N524 N 0.25874 0.50593 0.50264 0.0
N525 N 0.2473 0.42883 0.50958 0.0
H526 H 0.14452 0.84487 0.94379 0.0
H527 H 0.05834 0.75682 0.80924 0.0
H528 H 0.10795 0.75886 0.94931 0.0
H529 H 0.09288 0.84433 0.8088 0.0
H530 H 0.08343 0.75319 0.85706 0.0
H531 H 0.13346 0.84077 0.89101 0.0
C532 C 0.13434 0.82497 0.9338 0.0
C533 C 0.12667 0.80236 0.95108 0.0
C534 C 0.08589 0.77295 0.84614 0.0
C535 C 0.11352 0.79762 0.89042 0.0
C536 C 0.07149 0.77511 0.81887 0.0
C537 C 0.07311 0.80105 0.8049 0.0
C538 C 0.10202 0.7969 0.85953 0.0
C539 C 0.09105 0.82375 0.81829 0.0
C540 C 0.12805 0.82261 0.90358 0.0
C541 C 0.11405 0.77688 0.93681 0.0
N542 N 0.10444 0.82123 0.84489 0.0
N543 N 0.10738 0.77536 0.90733 0.0
H544 H 0.83857 0.10525 0.88778 0.0
H545 H 0.97403 0.00413 0.82206 0.0
H546 H 0.92726 0.10084 0.92772 0.0
H547 H 0.88471 0.00287 0.78306 0.0
H548 H 0.95873 0.04473 0.85696 0.0
H549 H 0.8563 0.07261 0.84568 0.0
C550 C 0.8618 0.09764 0.88763 0.0
C551 C 0.88132 0.10554 0.91156 0.0
C552 C 0.94247 0.03582 0.84065 0.0
C553 C 0.9017 0.06831 0.86347 0.0
C554 C 0.95122 0.01263 0.82073 0.0
C555 C 0.93047 -7e-05 0.79994 0.0
C556 C 0.91262 0.04631 0.84 0.0
C557 C 0.90137 0.01207 0.7988 0.0
C558 C 0.87188 0.079 0.86359 0.0
C559 C 0.91122 0.09508 0.91004 0.0
N560 N 0.89314 0.0344 0.81886 0.0
N561 N 0.92038 0.07693 0.88655 0.0
H562 H 0.36737 0.35373 0.44776 0.0
H563 H 0.44205 0.2675 0.30551 0.0
H564 H 0.39534 0.26412 0.44647 0.0
H565 H 0.41607 0.358 0.31237 0.0
H566 H 0.419 0.263 0.3541 0.0
H567 H 0.37854 0.35264 0.39527 0.0
C568 C 0.37583 0.33373 0.43638 0.0
C569 C 0.38093 0.30912 0.45167 0.0
C570 C 0.41799 0.28368 0.34464 0.0
C571 C 0.39404 0.30775 0.39119 0.0
C572 C 0.43123 0.28632 0.31695 0.0
C573 C 0.43129 0.31325 0.30473 0.0
C574 C 0.40474 0.30813 0.36019 0.0
C575 C 0.4164 0.33668 0.32044 0.0
C576 C 0.38213 0.33309 0.40629 0.0
C577 C 0.3913 0.28365 0.43555 0.0
N578 N 0.40405 0.33361 0.34734 0.0
N579 N 0.39794 0.28372 0.40619 0.0
H580 H 0.24964 0.90073 0.05366 0.0
H581 H 0.25718 -7e-05 0.91838 0.0
H582 H 0.1842 0.89968 0.98259 0.0
H583 H 0.3107 0.01748 0.99794 0.0
H584 H 0.23902 0.95543 0.9369 0.0
H585 H 0.27963 0.93657 0.02933 0.0
C586 C 0.24176 0.90779 0.03283 0.0
C587 C 0.21416 0.89756 0.02034 0.0
C588 C 0.25503 0.9688 0.95019 0.0
C589 C 0.24837 0.9381 0.99241 0.0
C590 C 0.26577 0.99414 0.93945 0.0
C591 C 0.28536 0.01275 0.95672 0.0
C592 C 0.26369 0.96196 0.97854 0.0
C593 C 0.29516 0.00409 0.98412 0.0
C594 C 0.25883 0.92824 0.01902 0.0
C595 C 0.20505 0.90735 0.99329 0.0
N596 N 0.28393 0.97947 0.99438 0.0
N597 N 0.22204 0.92711 0.98033 0.0
H598 H 0.53876 0.73597 0.48111 0.0
H599 H 0.40282 0.64804 0.39738 0.0
H600 H 0.54149 0.64463 0.45111 0.0
H601 H 0.38713 0.72565 0.45582 0.0
H602 H 0.45692 0.65229 0.40788 0.0
H603 H 0.48594 0.73772 0.46362 0.0
C604 C 0.52835 0.71641 0.47066 0.0
C605 C 0.54438 0.69005 0.46781 0.0
C606 C 0.44167 0.66851 0.41828 0.0
C607 C 0.48457 0.69202 0.44751 0.0
C608 C 0.41077 0.66607 0.41237 0.0
C609 C 0.39032 0.68617 0.42625 0.0
C610 C 0.4524 0.69132 0.43811 0.0
C611 C 0.40209 0.70961 0.44473 0.0
C612 C 0.49829 0.71741 0.4608 0.0
C613 C 0.52987 0.66532 0.45412 0.0
N614 N 0.43241 0.71141 0.45038 0.0
N615 N 0.50086 0.66694 0.44447 0.0
H616 H 0.31725 0.40697 0.64607 0.0
H617 H 0.44603 0.47015 0.75772 0.0
H618 H 0.41216 0.38723 0.6327 0.0
H619 H 0.36545 0.5187 0.73929 0.0
H620 H 0.42975 0.43163 0.72048 0.0
H621 H 0.33076 0.44015 0.68953 0.0
C622 C 0.34086 0.40939 0.65247 0.0
C623 C 0.36367 0.39464 0.63565 0.0
C624 C 0.4156 0.45067 0.72495 0.0
C625 C 0.3791 0.43198 0.68528 0.0
C626 C 0.42491 0.47278 0.74605 0.0
C627 C 0.40733 0.49806 0.75161 0.0
C628 C 0.38827 0.45356 0.70966 0.0
C629 C 0.37969 0.49962 0.73625 0.0
C630 C 0.34852 0.42833 0.67713 0.0
C631 C 0.39393 0.39853 0.64486 0.0
N632 N 0.37107 0.47773 0.71596 0.0
N633 N 0.40079 0.41682 0.66911 0.0
H634 H 0.04242 0.7675 0.08127 0.0
H635 H 0.88187 0.83933 0.04965 0.0
H636 H 0.02966 0.84424 0.03495 0.0
H637 H 0.89321 0.78035 0.1174 0.0
H638 H 0.93538 0.83393 0.03736 0.0
H639 H 0.9872 0.76532 0.08889 0.0
C640 C 0.02806 0.78375 0.07259 0.0
C641 C 0.0407 0.80623 0.05767 0.0
C642 C 0.92623 0.82203 0.05485 0.0
C643 C 0.97789 0.80363 0.06595 0.0
C644 C 0.89567 0.82514 0.0619 0.0
C645 C 0.88321 0.8107 0.08496 0.0
C646 C 0.94468 0.80433 0.07093 0.0
C647 C 0.90198 0.79196 0.09953 0.0
C648 C 0.99664 0.78251 0.07699 0.0
C649 C 0.02105 0.8267 0.04688 0.0
N650 N 0.93196 0.78951 0.09248 0.0
N651 N 0.99075 0.82487 0.05121 0.0
H652 H 0.67659 0.5968 0.56648 0.0
H653 H 0.79703 0.46917 0.54842 0.0
H654 H 0.74318 0.59046 0.49642 0.0
H655 H 0.74672 0.49171 0.62887 0.0
H656 H 0.77926 0.51412 0.52924 0.0
H657 H 0.70331 0.55893 0.59013 0.0
C658 C 0.69696 0.58755 0.55616 0.0
C659 C 0.70751 0.59662 0.5293 0.0
C660 C 0.77255 0.50942 0.55128 0.0
C661 C 0.73814 0.55301 0.55616 0.0
C662 C 0.78261 0.48375 0.56218 0.0
C663 C 0.77327 0.47662 0.59024 0.0
C664 C 0.75268 0.52779 0.5684 0.0
C665 C 0.75475 0.4964 0.60725 0.0
C666 C 0.7123 0.566 0.56974 0.0
C667 C 0.73422 0.58407 0.5171 0.0
N668 N 0.74477 0.52085 0.59592 0.0
N669 N 0.74842 0.5626 0.53043 0.0
H670 H 0.86209 0.13795 0.10132 0.0
H671 H 0.9307 0.22065 0.2488 0.0
H672 H 0.89294 0.227 0.10645 0.0
H673 H 0.90767 0.12939 0.23753 0.0
H674 H 0.90867 0.22639 0.20001 0.0
H675 H 0.86995 0.13775 0.1544 0.0
C676 C 0.87038 0.15757 0.11365 0.0
C677 C 0.8774 0.18237 0.09928 0.0
C678 C 0.90805 0.20525 0.20853 0.0
C679 C 0.88665 0.18222 0.16033 0.0
C680 C 0.9207 0.20191 0.23634 0.0
C681 C 0.92143 0.17441 0.24733 0.0
C682 C 0.89601 0.18093 0.19163 0.0
C683 C 0.90751 0.15109 0.23037 0.0
C684 C 0.87481 0.15745 0.14404 0.0
C685 C 0.8875 0.20731 0.11658 0.0
N686 N 0.89572 0.15485 0.20334 0.0
N687 N 0.89224 0.20648 0.14618 0.0
H688 H 0.15819 0.8072 0.1689 0.0
H689 H 0.17471 0.66601 0.25212 0.0
H690 H 0.14674 0.72203 0.12267 0.0
H691 H 0.14762 0.74855 0.29664 0.0
H692 H 0.16464 0.68504 0.2045 0.0
H693 H 0.1555 0.78568 0.21598 0.0
C694 C 0.15502 0.78392 0.1687 0.0
C695 C 0.15298 0.7663 0.14189 0.0
C696 C 0.16049 0.6988 0.22474 0.0
C697 C 0.15006 0.74149 0.19574 0.0
C698 C 0.16607 0.68792 0.25199 0.0
C699 C 0.16243 0.70583 0.27854 0.0
C700 C 0.15163 0.72787 0.22402 0.0
C701 C 0.15156 0.73418 0.2768 0.0
C702 C 0.15327 0.77169 0.19558 0.0
C703 C 0.14847 0.73633 0.1429 0.0
N704 N 0.14698 0.74445 0.25002 0.0
N705 N 0.14762 0.72475 0.16946 0.0
H706 H 0.76938 0.69906 0.51254 0.0
H707 H 0.82205 0.83767 0.61908 0.0
H708 H 0.711 0.77189 0.53882 0.0
H709 H 0.87519 0.75933 0.60374 0.0
H710 H 0.78301 0.81581 0.58591 0.0
H711 H 0.81032 0.72294 0.54175 0.0
C712 C 0.76516 0.72014 0.52429 0.0
C713 C 0.73655 0.73339 0.52328 0.0
C714 C 0.80324 0.80343 0.58974 0.0
C715 C 0.78348 0.76082 0.55686 0.0
C716 C 0.8255 0.81583 0.6088 0.0
C717 C 0.85188 0.80023 0.61445 0.0
C718 C 0.80735 0.77521 0.57608 0.0
C719 C 0.85537 0.77227 0.59991 0.0
C720 C 0.78858 0.73373 0.54104 0.0
C721 C 0.73256 0.76074 0.53902 0.0
N722 N 0.83331 0.76062 0.5815 0.0
N723 N 0.75573 0.7735 0.55519 0.0
H724 H 0.79624 0.25057 0.06711 0.0
H725 H 0.62206 0.29505 0.06496 0.0
H726 H 0.73786 0.22124 0.99374 0.0
H727 H 0.6731 0.28822 0.14531 0.0
H728 H 0.66538 0.27426 0.03615 0.0
H729 H 0.75238 0.27154 0.0937 0.0
C730 C 0.77422 0.24871 0.05645 0.0
C731 C 0.77074 0.23406 0.02812 0.0
C732 C 0.66692 0.27721 0.06009 0.0
C733 C 0.72037 0.25811 0.0586 0.0
C734 C 0.64236 0.28912 0.07647 0.0
C735 C 0.64406 0.29315 0.1075 0.0
C736 C 0.69345 0.26994 0.07492 0.0
C737 C 0.67077 0.28513 0.12144 0.0
C738 C 0.74917 0.26055 0.07176 0.0
C739 C 0.74155 0.23223 0.01559 0.0
N740 N 0.69449 0.2741 0.10504 0.0
N741 N 0.71743 0.24423 0.03089 0.0
H742 H 0.31941 0.30391 0.66142 0.0
H743 H 0.34523 0.1668 0.75416 0.0
H744 H 0.35447 0.22264 0.62062 0.0
H745 H 0.29765 0.24517 0.78508 0.0
H746 H 0.35567 0.18781 0.70702 0.0
H747 H 0.3184 0.28373 0.70868 0.0
C748 C 0.32681 0.28166 0.66232 0.0
C749 C 0.33651 0.26478 0.63677 0.0
C750 C 0.34317 0.2004 0.72427 0.0
C751 C 0.3354 0.24132 0.6915 0.0
C752 C 0.33738 0.18853 0.7511 0.0
C753 C 0.32035 0.20428 0.77323 0.0
C754 C 0.33208 0.22823 0.72 0.0
C755 C 0.31055 0.23224 0.76838 0.0
C756 C 0.32632 0.27014 0.68951 0.0
C757 C 0.34654 0.23632 0.63972 0.0
N758 N 0.31647 0.24323 0.74231 0.0
N759 N 0.34547 0.22531 0.66664 0.0
H760 H 0.63493 0.76312 0.41203 0.0
H761 H 0.71692 0.75406 0.25403 0.0
H762 H 0.70074 0.69805 0.38127 0.0
H763 H 0.64665 0.8166 0.27877 0.0
H764 H 0.7106 0.73369 0.30111 0.0
H765 H 0.63852 0.78373 0.36411 0.0
C766 C 0.65011 0.75317 0.3953 0.0
C767 C 0.6676 0.72882 0.40081 0.0
C768 C 0.6964 0.75179 0.2963 0.0
C769 C 0.67175 0.75225 0.34608 0.0
C770 C 0.69982 0.76331 0.26921 0.0
C771 C 0.68207 0.78694 0.26221 0.0
C772 C 0.67517 0.76399 0.31687 0.0
C773 C 0.66094 0.79849 0.28329 0.0
C774 C 0.65209 0.76492 0.36796 0.0
C775 C 0.68681 0.71682 0.37822 0.0
N776 N 0.65807 0.7869 0.30972 0.0
N777 N 0.68836 0.72867 0.35199 0.0
H778 H 0.85369 0.28268 0.93871 0.0
H779 H 0.85762 0.26671 0.7614 0.0
H780 H 0.85908 0.20095 0.88478 0.0
H781 H 0.81557 0.33919 0.81237 0.0
H782 H 0.87322 0.24735 0.8076 0.0
H783 H 0.85393 0.30814 0.89327 0.0
C784 C 0.85546 0.27019 0.91736 0.0
C785 C 0.85592 0.23973 0.91534 0.0
C786 C 0.86099 0.26774 0.80863 0.0
C787 C 0.85662 0.26846 0.86377 0.0
C788 C 0.85229 0.27887 0.78232 0.0
C789 C 0.83499 0.30437 0.78317 0.0
C790 C 0.85253 0.28233 0.83591 0.0
C791 C 0.82849 0.3192 0.81086 0.0
C792 C 0.85549 0.28466 0.89154 0.0
C793 C 0.85819 0.22447 0.88722 0.0
N794 N 0.83705 0.30783 0.83622 0.0
N795 N 0.85835 0.23898 0.86254 0.0
H796 H 0.29142 0.24178 0.47894 0.0
H797 H 0.1172 0.19638 0.47922 0.0
H798 H 0.22939 0.27724 0.54646 0.0
H799 H 0.1697 0.19646 0.39899 0.0
H800 H 0.16003 0.21933 0.5072 0.0
H801 H 0.2487 0.21786 0.45215 0.0
C802 C 0.26885 0.24439 0.48822 0.0
C803 C 0.26392 0.26159 0.51492 0.0
C804 C 0.16207 0.21435 0.48346 0.0
C805 C 0.21513 0.23416 0.48451 0.0
C806 C 0.13778 0.20121 0.46758 0.0
C807 C 0.14 0.19475 0.43682 0.0
C808 C 0.18887 0.22044 0.46849 0.0
C809 C 0.16705 0.20143 0.42267 0.0
C810 C 0.24451 0.23088 0.47285 0.0
C811 C 0.23417 0.26434 0.52584 0.0
N812 N 0.19054 0.21376 0.43865 0.0
N813 N 0.21087 0.25064 0.51065 0.0
H814 H 0.21301 0.72143 0.01212 0.0
H815 H 0.38 0.74062 0.94986 0.0
H816 H 0.26927 0.7958 0.03899 0.0
H817 H 0.32967 0.66018 0.93889 0.0
H818 H 0.34083 0.76095 0.98403 0.0
H819 H 0.25624 0.69838 0.98608 0.0
C820 C 0.23449 0.73286 0.01271 0.0
C821 C 0.23741 0.76069 0.02764 0.0
C822 C 0.33854 0.73877 0.97432 0.0
C823 C 0.28707 0.73445 0.99763 0.0
C824 C 0.36095 0.72712 0.95493 0.0
C825 C 0.35786 0.69882 0.94113 0.0
C826 C 0.31287 0.722 0.9798 0.0
C827 C 0.33261 0.68235 0.94842 0.0
C828 C 0.25923 0.71964 0.99789 0.0
C829 C 0.26593 0.77434 0.02777 0.0
N830 N 0.31099 0.69426 0.96699 0.0
N831 N 0.28957 0.7612 0.01273 0.0
loop_
_geom_bond_atom_site_label_1
_geom_bond_atom_site_label_2
_geom_bond_distance
_geom_bond_site_symmetry_2
_ccdc_geom_bond_type
Sc0 O3 2.025 . S
Sc0 O10 2.105 . S
Sc0 O13 2.105 . S
Sc0 O16 2.105 . S
Sc0 O19 2.105 1_554 S
Sc1 O3 2.025 . S
Sc1 O11 2.105 1_554 S
Sc1 O15 2.105 . S
Sc1 O17 2.105 . S
Sc1 O21 2.105 . S
Sc2 O3 2.025 . S
Sc2 O12 2.105 . S
Sc2 O14 2.105 . S
Sc2 O18 2.105 . S
Sc2 O20 2.105 . S
O3 Sc0 2.025 . S
O3 Sc1 2.025 . S
O3 Sc2 2.025 . S
C4 O10 1.268 . S
C4 O20 1.268 . S
C5 O11 1.268 . S
C5 O19 1.268 . S
C6 O12 1.268 . S
C6 O21 1.268 . S
C7 O13 1.268 . S
C7 O17 1.268 . S
C8 O14 1.268 . S
C8 O16 1.268 . S
C9 O15 1.268 . S
C9 O18 1.268 . S
O10 Sc0 2.105 . S
O10 C4 1.268 . S
O11 Sc1 2.105 1_556 S
O11 C5 1.268 . S
O12 Sc2 2.105 . S
O12 C6 1.268 . S
O13 Sc0 2.105 . S
O13 C7 1.268 . S
O14 Sc2 2.105 . S
O14 C8 1.268 . S
O15 Sc1 2.105 . S
O15 C9 1.268 . S
O16 Sc0 2.105 . S
O16 C8 1.268 . S
O17 Sc1 2.105 . S
O17 C7 1.268 . S
O18 Sc2 2.105 . S
O18 C9 1.268 . S
O19 Sc0 2.105 1_556 S
O19 C5 1.268 . S
O20 Sc2 2.105 . S
O20 C4 1.268 . S
O21 Sc1 2.105 . S
O21 C6 1.268 . S
Sc22 O25 2.025 . S
Sc22 O32 2.105 . S
Sc22 O35 2.105 . S
Sc22 O38 2.105 . S
Sc22 O41 2.105 . S
Sc23 O25 2.025 . S
Sc23 O33 2.105 . S
Sc23 O37 2.105 . S
Sc23 O39 2.105 . S
Sc23 O43 2.105 . S
Sc24 O25 2.025 . S
Sc24 O34 2.105 . S
Sc24 O36 2.105 . S
Sc24 O40 2.105 . S
Sc24 O42 2.105 . S
O25 Sc22 2.025 . S
O25 Sc23 2.025 . S
O25 Sc24 2.025 . S
C26 O32 1.268 . S
C26 O42 1.268 . S
C27 O33 1.268 . S
C27 O41 1.268 . S
C28 O34 1.268 . S
C28 O43 1.268 . S
C29 O35 1.268 . S
C29 O39 1.268 . S
C30 O36 1.268 . S
C30 O38 1.268 . S
C31 O37 1.268 . S
C31 O40 1.268 . S
O32 Sc22 2.105 . S
O32 C26 1.268 . S
O33 Sc23 2.105 . S
O33 C27 1.268 . S
O34 Sc24 2.105 . S
O34 C28 1.268 . S
O35 Sc22 2.105 . S
O35 C29 1.268 . S
O36 Sc24 2.105 . S
O36 C30 1.268 . S
O37 Sc23 2.105 . S
O37 C31 1.268 . S
O38 Sc22 2.105 . S
O38 C30 1.268 . S
O39 Sc23 2.105 . S
O39 C29 1.268 . S
O40 Sc24 2.105 . S
O40 C31 1.268 . S
O41 Sc22 2.105 . S
O41 C27 1.268 . S
O42 Sc24 2.105 . S
O42 C26 1.268 . S
O43 Sc23 2.105 . S
O43 C28 1.268 . S
Sc44 O47 2.025 . S
Sc44 O54 2.105 1_554 S
Sc44 O57 2.105 . S
Sc44 O60 2.105 . S
Sc44 O63 2.105 1_554 S
Sc45 O47 2.025 1_556 S
Sc45 O55 2.105 . S
Sc45 O59 2.105 1_556 S
Sc45 O61 2.105 1_556 S
Sc45 O65 2.105 . S
Sc46 O47 2.025 . S
Sc46 O56 2.105 1_554 S
Sc46 O58 2.105 . S
Sc46 O62 2.105 . S
Sc46 O64 2.105 1_554 S
O47 Sc44 2.025 . S
O47 Sc45 2.025 1_554 S
O47 Sc46 2.025 . S
C48 O54 1.268 . S
C48 O64 1.268 . S
C49 O55 1.268 . S
C49 O63 1.268 . S
C50 O56 1.268 . S
C50 O65 1.268 . S
C51 O57 1.268 . S
C51 O61 1.268 . S
C52 O58 1.268 . S
C52 O60 1.268 . S
C53 O59 1.268 . S
C53 O62 1.268 . S
O54 Sc44 2.105 1_556 S
O54 C48 1.268 . S
O55 Sc45 2.105 . S
O55 C49 1.268 . S
O56 Sc46 2.105 1_556 S
O56 C50 1.268 . S
O57 Sc44 2.105 . S
O57 C51 1.268 . S
O58 Sc46 2.105 . S
O58 C52 1.268 . S
O59 Sc45 2.105 1_554 S
O59 C53 1.268 . S
O60 Sc44 2.105 . S
O60 C52 1.268 . S
O61 Sc45 2.105 1_554 S
O61 C51 1.268 . S
O62 Sc46 2.105 . S
O62 C53 1.268 . S
O63 Sc44 2.105 1_556 S
O63 C49 1.268 . S
O64 Sc46 2.105 1_556 S
O64 C48 1.268 . S
O65 Sc45 2.105 . S
O65 C50 1.268 . S
Sc66 O69 2.025 . S
Sc66 O76 2.105 . S
Sc66 O79 2.105 . S
Sc66 O82 2.105 . S
Sc66 O85 2.105 . S
Sc67 O69 2.025 . S
Sc67 O77 2.105 . S
Sc67 O81 2.105 . S
Sc67 O83 2.105 . S
Sc67 O87 2.105 . S
Sc68 O69 2.025 . S
Sc68 O78 2.105 . S
Sc68 O80 2.105 . S
Sc68 O84 2.105 . S
Sc68 O86 2.105 . S
O69 Sc66 2.025 . S
O69 Sc67 2.025 . S
O69 Sc68 2.025 . S
C70 O76 1.268 . S
C70 O86 1.268 . S
C71 O77 1.268 . S
C71 O85 1.268 . S
C72 O78 1.268 . S
C72 O87 1.268 . S
C73 O79 1.268 . S
C73 O83 1.268 . S
C74 O80 1.268 . S
C74 O82 1.268 . S
C75 O81 1.268 . S
C75 O84 1.268 . S
O76 Sc66 2.105 . S
O76 C70 1.268 . S
O77 Sc67 2.105 . S
O77 C71 1.268 . S
O78 Sc68 2.105 . S
O78 C72 1.268 . S
O79 Sc66 2.105 . S
O79 C73 1.268 . S
O80 Sc68 2.105 . S
O80 C74 1.268 . S
O81 Sc67 2.105 . S
O81 C75 1.268 . S
O82 Sc66 2.105 . S
O82 C74 1.268 . S
O83 Sc67 2.105 . S
O83 C73 1.268 . S
O84 Sc68 2.105 . S
O84 C75 1.268 . S
O85 Sc66 2.105 . S
O85 C71 1.268 . S
O86 Sc68 2.105 . S
O86 C70 1.268 . S
O87 Sc67 2.105 . S
O87 C72 1.268 . S
C88 C89 1.386 . S
C88 C90 1.397 1_655 S
C88 H112 0.931 . S
C89 C88 1.386 . S
C89 C93 1.397 . S
C90 C88 1.397 1_455 S
C90 C91 1.384 . S
C90 H113 0.930 . S
C91 C90 1.384 . S
C91 C92 1.377 1_455 S
C91 C94 1.481 . S
C92 C91 1.377 1_655 S
C92 C93 1.389 . S
C92 H114 0.929 . S
C93 C89 1.397 . S
C93 C92 1.389 . S
C93 H115 0.931 . S
C94 C91 1.481 . S
C94 C95 1.387 . S
C94 C99 1.390 . S
C95 C94 1.387 . S
C95 C96 1.401 . S
C95 H116 0.930 . S
C96 C95 1.401 . S
C96 C97 1.376 . S
C96 C105 1.511 . S
C97 C96 1.376 . S
C97 C98 1.392 . S
C97 H118 0.931 . S
C98 C97 1.392 . S
C98 C99 1.361 . S
C98 C100 1.500 . S
C99 C94 1.390 . S
C99 C98 1.361 . S
C99 H117 0.931 . S
C100 C98 1.500 . S
C100 C101 1.371 . S
C100 C102 1.365 . S
C101 C100 1.371 . S
C101 C111 1.386 . S
C101 H119 0.931 . S
C102 C100 1.365 . S
C102 C103 1.409 . S
C102 H120 0.929 . S
C103 C102 1.409 . S
C103 C104 1.380 . S
C103 H121 0.930 . S
C104 C103 1.380 . S
C104 C111 1.357 . S
C105 C96 1.511 . S
C105 C106 1.341 . S
C105 C107 1.371 . S
C106 C105 1.341 . S
C106 C110 1.394 . S
C106 H122 0.930 . S
C107 C105 1.371 . S
C107 C108 1.392 . S
C107 H123 0.931 . S
C108 C107 1.392 . S
C108 C109 1.331 . S
C108 H126 0.932 . S
C109 C108 1.331 . S
C109 C110 1.336 . S
C110 C106 1.394 . S
C110 C109 1.336 . S
C110 H125 0.929 . S
C111 C101 1.386 . S
C111 C104 1.357 . S
C111 H124 0.928 . S
H112 C88 0.931 . S
H113 C90 0.930 . S
H114 C92 0.929 . S
H115 C93 0.931 . S
H116 C95 0.930 . S
H117 C99 0.931 . S
H118 C97 0.931 . S
H119 C101 0.931 . S
H120 C102 0.929 . S
H121 C103 0.930 . S
H122 C106 0.930 . S
H123 C107 0.931 . S
H124 C111 0.928 . S
H125 C110 0.929 . S
H126 C108 0.932 . S
C127 C128 1.386 . S
C127 C129 1.397 . S
C127 H151 0.931 . S
C128 C127 1.386 . S
C128 C132 1.397 . S
C129 C127 1.397 . S
C129 C130 1.384 . S
C129 H152 0.930 . S
C130 C129 1.384 . S
C130 C131 1.377 . S
C130 C133 1.481 . S
C131 C130 1.377 . S
C131 C132 1.389 . S
C131 H153 0.929 . S
C132 C128 1.397 . S
C132 C131 1.389 . S
C132 H154 0.931 . S
C133 C130 1.481 . S
C133 C134 1.387 . S
C133 C138 1.390 . S
C134 C133 1.387 . S
C134 C135 1.401 . S
C134 H155 0.930 . S
C135 C134 1.401 . S
C135 C136 1.376 . S
C135 C144 1.511 . S
C136 C135 1.376 . S
C136 C137 1.392 . S
C136 H157 0.931 . S
C137 C136 1.392 . S
C137 C138 1.361 . S
C137 C139 1.500 . S
C138 C133 1.390 . S
C138 C137 1.361 . S
C138 H156 0.931 . S
C139 C137 1.500 . S
C139 C140 1.371 . S
C139 C141 1.365 . S
C140 C139 1.371 . S
C140 C150 1.386 . S
C140 H158 0.931 . S
C141 C139 1.365 . S
C141 C142 1.409 . S
C141 H159 0.929 . S
C142 C141 1.409 . S
C142 C143 1.380 . S
C142 H160 0.930 . S
C143 C142 1.380 . S
C143 C150 1.357 . S
C144 C135 1.511 . S
C144 C145 1.341 . S
C144 C146 1.371 . S
C145 C144 1.341 . S
C145 C149 1.394 . S
C145 H161 0.930 . S
C146 C144 1.371 . S
C146 C147 1.392 . S
C146 H162 0.931 . S
C147 C146 1.392 . S
C147 C148 1.331 . S
C147 H165 0.932 . S
C148 C147 1.331 . S
C148 C149 1.336 . S
C149 C145 1.394 . S
C149 C148 1.336 . S
C149 H164 0.929 . S
C150 C140 1.386 . S
C150 C143 1.357 . S
C150 H163 0.928 . S
H151 C127 0.931 . S
H152 C129 0.930 . S
H153 C131 0.929 . S
H154 C132 0.931 . S
H155 C134 0.930 . S
H156 C138 0.931 . S
H157 C136 0.931 . S
H158 C140 0.931 . S
H159 C141 0.929 . S
H160 C142 0.930 . S
H161 C145 0.930 . S
H162 C146 0.931 . S
H163 C150 0.928 . S
H164 C149 0.929 . S
H165 C147 0.932 . S
C166 C167 1.386 . S
C166 C168 1.397 . S
C166 H190 0.931 . S
C167 C166 1.386 . S
C167 C171 1.397 . S
C168 C166 1.397 . S
C168 C169 1.384 . S
C168 H191 0.930 . S
C169 C168 1.384 . S
C169 C170 1.377 . S
C169 C172 1.481 . S
C170 C169 1.377 . S
C170 C171 1.389 . S
C170 H192 0.929 . S
C171 C167 1.397 . S
C171 C170 1.389 . S
C171 H193 0.931 . S
C172 C169 1.481 . S
C172 C173 1.387 . S
C172 C177 1.390 . S
C173 C172 1.387 . S
C173 C174 1.401 . S
C173 H194 0.930 . S
C174 C173 1.401 . S
C174 C175 1.376 . S
C174 C183 1.511 . S
C175 C174 1.376 . S
C175 C176 1.392 . S
C175 H196 0.931 . S
C176 C175 1.392 . S
C176 C177 1.361 . S
C176 C178 1.500 . S
C177 C172 1.390 . S
C177 C176 1.361 . S
C177 H195 0.931 . S
C178 C176 1.500 . S
C178 C179 1.371 . S
C178 C180 1.365 . S
C179 C178 1.371 . S
C179 C189 1.386 . S
C179 H197 0.931 . S
C180 C178 1.365 . S
C180 C181 1.409 . S
C180 H198 0.929 . S
C181 C180 1.409 . S
C181 C182 1.380 . S
C181 H199 0.930 . S
C182 C181 1.380 . S
C182 C189 1.357 . S
C183 C174 1.511 . S
C183 C184 1.341 . S
C183 C185 1.371 . S
C184 C183 1.341 . S
C184 C188 1.394 . S
C184 H200 0.930 . S
C185 C183 1.371 . S
C185 C186 1.392 . S
C185 H201 0.931 . S
C186 C185 1.392 . S
C186 C187 1.331 . S
C186 H204 0.932 . S
C187 C186 1.331 . S
C187 C188 1.336 . S
C188 C184 1.394 . S
C188 C187 1.336 . S
C188 H203 0.929 . S
C189 C179 1.386 . S
C189 C182 1.357 . S
C189 H202 0.928 . S
H190 C166 0.931 . S
H191 C168 0.930 . S
H192 C170 0.929 . S
H193 C171 0.931 . S
H194 C173 0.930 . S
H195 C177 0.931 . S
H196 C175 0.931 . S
H197 C179 0.931 . S
H198 C180 0.929 . S
H199 C181 0.930 . S
H200 C184 0.930 . S
H201 C185 0.931 . S
H202 C189 0.928 . S
H203 C188 0.929 . S
H204 C186 0.932 . S
C205 C206 1.386 . S
C205 C207 1.397 . S
C205 H229 0.931 . S
C206 C205 1.386 . S
C206 C210 1.397 . S
C207 C205 1.397 . S
C207 C208 1.384 . S
C207 H230 0.930 . S
C208 C207 1.384 . S
C208 C209 1.377 . S
C208 C211 1.481 . S
C209 C208 1.377 . S
C209 C210 1.389 . S
C209 H231 0.929 . S
C210 C206 1.397 . S
C210 C209 1.389 . S
C210 H232 0.931 . S
C211 C208 1.481 . S
C211 C212 1.387 . S
C211 C216 1.390 . S
C212 C211 1.387 . S
C212 C213 1.401 . S
C212 H233 0.930 . S
C213 C212 1.401 . S
C213 C214 1.376 . S
C213 C222 1.511 . S
C214 C213 1.376 . S
C214 C215 1.392 . S
C214 H235 0.931 . S
C215 C214 1.392 . S
C215 C216 1.361 . S
C215 C217 1.500 . S
C216 C211 1.390 . S
C216 C215 1.361 . S
C216 H234 0.931 . S
C217 C215 1.500 . S
C217 C218 1.371 . S
C217 C219 1.365 . S
C218 C217 1.371 . S
C218 C228 1.386 . S
C218 H236 0.931 . S
C219 C217 1.365 . S
C219 C220 1.409 . S
C219 H237 0.929 . S
C220 C219 1.409 . S
C220 C221 1.380 . S
C220 H238 0.930 . S
C221 C220 1.380 . S
C221 C228 1.357 . S
C222 C213 1.511 . S
C222 C223 1.341 . S
C222 C224 1.371 . S
C223 C222 1.341 . S
C223 C227 1.394 . S
C223 H239 0.930 . S
C224 C222 1.371 . S
C224 C225 1.392 . S
C224 H240 0.931 . S
C225 C224 1.392 . S
C225 C226 1.331 . S
C225 H243 0.932 . S
C226 C225 1.331 . S
C226 C227 1.336 . S
C227 C223 1.394 . S
C227 C226 1.336 . S
C227 H242 0.929 . S
C228 C218 1.386 . S
C228 C221 1.357 . S
C228 H241 0.928 . S
H229 C205 0.931 . S
H230 C207 0.930 . S
H231 C209 0.929 . S
H232 C210 0.931 . S
H233 C212 0.930 . S
H234 C216 0.931 . S
H235 C214 0.931 . S
H236 C218 0.931 . S
H237 C219 0.929 . S
H238 C220 0.930 . S
H239 C223 0.930 . S
H240 C224 0.931 . S
H241 C228 0.928 . S
H242 C227 0.929 . S
H243 C225 0.932 . S
C244 C245 1.386 . S
C244 C246 1.397 . S
C244 H268 0.931 . S
C245 C244 1.386 . S
C245 C249 1.397 . S
C246 C244 1.397 . S
C246 C247 1.384 . S
C246 H269 0.930 . S
C247 C246 1.384 . S
C247 C248 1.377 . S
C247 C250 1.481 . S
C248 C247 1.377 . S
C248 C249 1.389 . S
C248 H270 0.929 . S
C249 C245 1.397 . S
C249 C248 1.389 . S
C249 H271 0.931 . S
C250 C247 1.481 . S
C250 C251 1.387 . S
C250 C255 1.390 . S
C251 C250 1.387 . S
C251 C252 1.401 . S
C251 H272 0.930 . S
C252 C251 1.401 . S
C252 C253 1.376 . S
C252 C261 1.511 . S
C253 C252 1.376 . S
C253 C254 1.392 . S
C253 H274 0.931 . S
C254 C253 1.392 . S
C254 C255 1.361 . S
C254 C256 1.500 . S
C255 C250 1.390 . S
C255 C254 1.361 . S
C255 H273 0.931 . S
C256 C254 1.500 . S
C256 C257 1.371 . S
C256 C258 1.365 . S
C257 C256 1.371 . S
C257 C267 1.386 . S
C257 H275 0.931 . S
C258 C256 1.365 . S
C258 C259 1.409 . S
C258 H276 0.929 . S
C259 C258 1.409 . S
C259 C260 1.380 . S
C259 H277 0.930 . S
C260 C259 1.380 . S
C260 C267 1.357 . S
C261 C252 1.511 . S
C261 C262 1.341 . S
C261 C263 1.371 . S
C262 C261 1.341 . S
C262 C266 1.394 . S
C262 H278 0.930 . S
C263 C261 1.371 . S
C263 C264 1.392 . S
C263 H279 0.931 . S
C264 C263 1.392 . S
C264 C265 1.331 . S
C264 H282 0.932 . S
C265 C264 1.331 . S
C265 C266 1.336 . S
C266 C262 1.394 . S
C266 C265 1.336 . S
C266 H281 0.929 . S
C267 C257 1.386 . S
C267 C260 1.357 . S
C267 H280 0.928 . S
H268 C244 0.931 . S
H269 C246 0.930 . S
H270 C248 0.929 . S
H271 C249 0.931 . S
H272 C251 0.930 . S
H273 C255 0.931 . S
H274 C253 0.931 . S
H275 C257 0.931 . S
H276 C258 0.929 . S
H277 C259 0.930 . S
H278 C262 0.930 . S
H279 C263 0.931 . S
H280 C267 0.928 . S
H281 C266 0.929 . S
H282 C264 0.932 . S
C283 C284 1.386 . S
C283 C285 1.397 . S
C283 H307 0.931 . S
C284 C283 1.386 . S
C284 C288 1.397 . S
C285 C283 1.397 . S
C285 C286 1.384 . S
C285 H308 0.930 . S
C286 C285 1.384 . S
C286 C287 1.377 . S
C286 C289 1.481 . S
C287 C286 1.377 . S
C287 C288 1.389 . S
C287 H309 0.929 . S
C288 C284 1.397 . S
C288 C287 1.389 . S
C288 H310 0.931 . S
C289 C286 1.481 . S
C289 C290 1.387 . S
C289 C294 1.390 . S
C290 C289 1.387 . S
C290 C291 1.401 . S
C290 H311 0.930 . S
C291 C290 1.401 . S
C291 C292 1.376 . S
C291 C300 1.511 . S
C292 C291 1.376 . S
C292 C293 1.392 . S
C292 H313 0.931 . S
C293 C292 1.392 . S
C293 C294 1.361 . S
C293 C295 1.500 . S
C294 C289 1.390 . S
C294 C293 1.361 . S
C294 H312 0.931 . S
C295 C293 1.500 . S
C295 C296 1.371 . S
C295 C297 1.365 . S
C296 C295 1.371 . S
C296 C306 1.386 . S
C296 H314 0.931 . S
C297 C295 1.365 . S
C297 C298 1.409 . S
C297 H315 0.929 . S
C298 C297 1.409 . S
C298 C299 1.380 . S
C298 H316 0.930 . S
C299 C298 1.380 . S
C299 C306 1.357 . S
C300 C291 1.511 . S
C300 C301 1.341 . S
C300 C302 1.371 . S
C301 C300 1.341 . S
C301 C305 1.394 . S
C301 H317 0.930 . S
C302 C300 1.371 . S
C302 C303 1.392 . S
C302 H318 0.931 . S
C303 C302 1.392 . S
C303 C304 1.331 . S
C303 H321 0.932 . S
C304 C303 1.331 . S
C304 C305 1.336 . S
C305 C301 1.394 . S
C305 C304 1.336 . S
C305 H320 0.929 . S
C306 C296 1.386 . S
C306 C299 1.357 . S
C306 H319 0.928 . S
H307 C283 0.931 . S
H308 C285 0.930 . S
H309 C287 0.929 . S
H310 C288 0.931 . S
H311 C290 0.930 . S
H312 C294 0.931 . S
H313 C292 0.931 . S
H314 C296 0.931 . S
H315 C297 0.929 . S
H316 C298 0.930 . S
H317 C301 0.930 . S
H318 C302 0.931 . S
H319 C306 0.928 . S
H320 C305 0.929 . S
H321 C303 0.932 . S
C322 C323 1.386 . S
C322 C324 1.397 . S
C322 H346 0.931 . S
C323 C322 1.386 . S
C323 C327 1.397 . S
C324 C322 1.397 . S
C324 C325 1.384 . S
C324 H347 0.930 . S
C325 C324 1.384 . S
C325 C326 1.377 . S
C325 C328 1.481 . S
C326 C325 1.377 . S
C326 C327 1.389 . S
C326 H348 0.929 . S
C327 C323 1.397 . S
C327 C326 1.389 . S
C327 H349 0.931 . S
C328 C325 1.481 . S
C328 C329 1.387 . S
C328 C333 1.390 . S
C329 C328 1.387 . S
C329 C330 1.401 . S
C329 H350 0.930 . S
C330 C329 1.401 . S
C330 C331 1.376 . S
C330 C339 1.511 . S
C331 C330 1.376 . S
C331 C332 1.392 . S
C331 H352 0.931 . S
C332 C331 1.392 . S
C332 C333 1.361 . S
C332 C334 1.500 . S
C333 C328 1.390 . S
C333 C332 1.361 . S
C333 H351 0.931 . S
C334 C332 1.500 . S
C334 C335 1.371 . S
C334 C336 1.365 . S
C335 C334 1.371 . S
C335 C345 1.386 . S
C335 H353 0.931 . S
C336 C334 1.365 . S
C336 C337 1.409 . S
C336 H354 0.929 . S
C337 C336 1.409 . S
C337 C338 1.380 . S
C337 H355 0.930 . S
C338 C337 1.380 . S
C338 C345 1.357 . S
C339 C330 1.511 . S
C339 C340 1.341 . S
C339 C341 1.371 . S
C340 C339 1.341 . S
C340 C344 1.394 . S
C340 H356 0.930 . S
C341 C339 1.371 . S
C341 C342 1.392 . S
C341 H357 0.931 . S
C342 C341 1.392 . S
C342 C343 1.331 . S
C342 H360 0.932 . S
C343 C342 1.331 . S
C343 C344 1.336 . S
C344 C340 1.394 . S
C344 C343 1.336 . S
C344 H359 0.929 . S
C345 C335 1.386 . S
C345 C338 1.357 . S
C345 H358 0.928 . S
H346 C322 0.931 . S
H347 C324 0.930 . S
H348 C326 0.929 . S
H349 C327 0.931 . S
H350 C329 0.930 . S
H351 C333 0.931 . S
H352 C331 0.931 . S
H353 C335 0.931 . S
H354 C336 0.929 . S
H355 C337 0.930 . S
H356 C340 0.930 . S
H357 C341 0.931 . S
H358 C345 0.928 . S
H359 C344 0.929 . S
H360 C342 0.932 . S
C361 C362 1.386 . S
C361 C363 1.397 . S
C361 H385 0.931 . S
C362 C361 1.386 . S
C362 C366 1.397 . S
C363 C361 1.397 . S
C363 C364 1.384 1_455 S
C363 H386 0.930 . S
C364 C363 1.384 1_655 S
C364 C365 1.377 . S
C364 C367 1.481 . S
C365 C364 1.377 . S
C365 C366 1.389 1_655 S
C365 H387 0.929 . S
C366 C362 1.397 . S
C366 C365 1.389 1_455 S
C366 H388 0.931 . S
C367 C364 1.481 . S
C367 C368 1.387 . S
C367 C372 1.390 . S
C368 C367 1.387 . S
C368 C369 1.401 . S
C368 H389 0.930 . S
C369 C368 1.401 . S
C369 C370 1.376 . S
C369 C378 1.511 . S
C370 C369 1.376 . S
C370 C371 1.392 . S
C370 H391 0.931 . S
C371 C370 1.392 . S
C371 C372 1.361 . S
C371 C373 1.500 . S
C372 C367 1.390 . S
C372 C371 1.361 . S
C372 H390 0.931 . S
C373 C371 1.500 . S
C373 C374 1.371 . S
C373 C375 1.365 . S
C374 C373 1.371 . S
C374 C384 1.386 . S
C374 H392 0.931 . S
C375 C373 1.365 . S
C375 C376 1.409 . S
C375 H393 0.929 . S
C376 C375 1.409 . S
C376 C377 1.380 . S
C376 H394 0.930 . S
C377 C376 1.380 . S
C377 C384 1.357 . S
C378 C369 1.511 . S
C378 C379 1.341 . S
C378 C380 1.371 . S
C379 C378 1.341 . S
C379 C383 1.394 . S
C379 H395 0.930 . S
C380 C378 1.371 . S
C380 C381 1.392 . S
C380 H396 0.931 . S
C381 C380 1.392 . S
C381 C382 1.331 . S
C381 H399 0.932 . S
C382 C381 1.331 . S
C382 C383 1.336 . S
C383 C379 1.394 . S
C383 C382 1.336 . S
C383 H398 0.929 . S
C384 C374 1.386 . S
C384 C377 1.357 . S
C384 H397 0.928 . S
H385 C361 0.931 . S
H386 C363 0.930 . S
H387 C365 0.929 . S
H388 C366 0.931 . S
H389 C368 0.930 . S
H390 C372 0.931 . S
H391 C370 0.931 . S
H392 C374 0.931 . S
H393 C375 0.929 . S
H394 C376 0.930 . S
H395 C379 0.930 . S
H396 C380 0.931 . S
H397 C384 0.928 . S
H398 C383 0.929 . S
H399 C381 0.932 . S
H400 C406 0.930 . S
H401 C410 0.930 1_545 S
H402 C415 0.929 . S
H403 C413 0.929 . S
H404 C408 0.929 . S
H405 C414 0.929 . S
C406 H400 0.930 . S
C406 C407 1.367 . S
C406 C414 1.378 . S
C407 C406 1.367 . S
C407 C415 1.433 . S
C408 H404 0.929 . S
C408 C410 1.378 . S
C408 C412 1.350 . S
C409 C412 1.463 . S
C409 C414 1.350 . S
C409 N417 1.427 . S
C410 H401 0.930 1_565 S
C410 C408 1.378 . S
C410 C411 1.367 . S
C411 C410 1.367 . S
C411 C413 1.433 . S
C412 C408 1.350 . S
C412 C409 1.463 . S
C412 N416 1.427 . S
C413 H403 0.929 . S
C413 C411 1.433 . S
C413 N416 1.384 . S
C414 H405 0.929 . S
C414 C406 1.378 . S
C414 C409 1.350 . S
C415 H402 0.929 . S
C415 C407 1.433 . S
C415 N417 1.384 . S
N416 C412 1.427 . S
N416 C413 1.384 . S
N417 C409 1.427 . S
N417 C415 1.384 . S
H418 C424 0.930 . S
H419 C428 0.930 . S
H420 C433 0.929 . S
H421 C431 0.929 . S
H422 C426 0.929 . S
H423 C432 0.929 . S
C424 H418 0.930 . S
C424 C425 1.367 . S
C424 C432 1.378 . S
C425 C424 1.367 . S
C425 C433 1.433 . S
C426 H422 0.929 . S
C426 C428 1.378 . S
C426 C430 1.350 . S
C427 C430 1.463 . S
C427 C432 1.350 . S
C427 N435 1.427 . S
C428 H419 0.930 . S
C428 C426 1.378 . S
C428 C429 1.367 . S
C429 C428 1.367 . S
C429 C431 1.433 . S
C430 C426 1.350 . S
C430 C427 1.463 . S
C430 N434 1.427 . S
C431 H421 0.929 . S
C431 C429 1.433 . S
C431 N434 1.384 . S
C432 H423 0.929 . S
C432 C424 1.378 . S
C432 C427 1.350 . S
C433 H420 0.929 . S
C433 C425 1.433 . S
C433 N435 1.384 . S
N434 C430 1.427 . S
N434 C431 1.384 . S
N435 C427 1.427 . S
N435 C433 1.384 . S
H436 C442 0.930 . S
H437 C446 0.930 . S
H438 C451 0.929 . S
H439 C449 0.929 . S
H440 C444 0.929 . S
H441 C450 0.929 . S
C442 H436 0.930 . S
C442 C443 1.367 . S
C442 C450 1.378 . S
C443 C442 1.367 . S
C443 C451 1.433 . S
C444 H440 0.929 . S
C444 C446 1.378 . S
C444 C448 1.350 . S
C445 C448 1.463 . S
C445 C450 1.350 . S
C445 N453 1.427 . S
C446 H437 0.930 . S
C446 C444 1.378 . S
C446 C447 1.367 1_545 S
C447 C446 1.367 1_565 S
C447 C449 1.433 . S
C448 C444 1.350 . S
C448 C445 1.463 . S
C448 N452 1.427 1_545 S
C449 H439 0.929 . S
C449 C447 1.433 . S
C449 N452 1.384 . S
C450 H441 0.929 . S
C450 C442 1.378 . S
C450 C445 1.350 . S
C451 H438 0.929 . S
C451 C443 1.433 . S
C451 N453 1.384 . S
N452 C448 1.427 1_565 S
N452 C449 1.384 . S
N453 C445 1.427 . S
N453 C451 1.384 . S
H454 C460 0.930 . S
H455 C464 0.930 . S
H456 C469 0.929 . S
H457 C467 0.929 . S
H458 C462 0.929 . S
H459 C468 0.929 . S
C460 H454 0.930 . S
C460 C461 1.367 . S
C460 C468 1.378 . S
C461 C460 1.367 . S
C461 C469 1.433 . S
C462 H458 0.929 . S
C462 C464 1.378 . S
C462 C466 1.350 . S
C463 C466 1.463 . S
C463 C468 1.350 . S
C463 N471 1.427 . S
C464 H455 0.930 . S
C464 C462 1.378 . S
C464 C465 1.367 . S
C465 C464 1.367 . S
C465 C467 1.433 . S
C466 C462 1.350 . S
C466 C463 1.463 . S
C466 N470 1.427 . S
C467 H457 0.929 . S
C467 C465 1.433 . S
C467 N470 1.384 . S
C468 H459 0.929 . S
C468 C460 1.378 . S
C468 C463 1.350 . S
C469 H456 0.929 . S
C469 C461 1.433 . S
C469 N471 1.384 . S
N470 C466 1.427 . S
N470 C467 1.384 . S
N471 C463 1.427 . S
N471 C469 1.384 . S
H472 C478 0.930 . S
H473 C482 0.930 . S
H474 C487 0.929 . S
H475 C485 0.929 . S
H476 C480 0.929 . S
H477 C486 0.929 . S
C478 H472 0.930 . S
C478 C479 1.367 . S
C478 C486 1.378 . S
C479 C478 1.367 . S
C479 C487 1.433 . S
C480 H476 0.929 . S
C480 C482 1.378 . S
C480 C484 1.350 . S
C481 C484 1.463 . S
C481 C486 1.350 . S
C481 N489 1.427 . S
C482 H473 0.930 . S
C482 C480 1.378 . S
C482 C483 1.367 . S
C483 C482 1.367 . S
C483 C485 1.433 . S
C484 C480 1.350 . S
C484 C481 1.463 . S
C484 N488 1.427 . S
C485 H475 0.929 . S
C485 C483 1.433 . S
C485 N488 1.384 . S
C486 H477 0.929 . S
C486 C478 1.378 . S
C486 C481 1.350 . S
C487 H474 0.929 . S
C487 C479 1.433 . S
C487 N489 1.384 . S
N488 C484 1.427 . S
N488 C485 1.384 . S
N489 C481 1.427 . S
N489 C487 1.384 . S
H490 C496 0.930 . S
H491 C500 0.930 . S
H492 C505 0.929 . S
H493 C503 0.929 . S
H494 C498 0.929 . S
H495 C504 0.929 1_455 S
C496 H490 0.930 . S
C496 C497 1.367 . S
C496 C504 1.378 . S
C497 C496 1.367 . S
C497 C505 1.433 . S
C498 H494 0.929 . S
C498 C500 1.378 . S
C498 C502 1.350 . S
C499 C502 1.463 . S
C499 C504 1.350 1_455 S
C499 N507 1.427 1_455 S
C500 H491 0.930 . S
C500 C498 1.378 . S
C500 C501 1.367 . S
C501 C500 1.367 . S
C501 C503 1.433 . S
C502 C498 1.350 . S
C502 C499 1.463 . S
C502 N506 1.427 . S
C503 H493 0.929 . S
C503 C501 1.433 . S
C503 N506 1.384 . S
C504 H495 0.929 1_655 S
C504 C496 1.378 . S
C504 C499 1.350 1_655 S
C505 H492 0.929 . S
C505 C497 1.433 . S
C505 N507 1.384 . S
N506 C502 1.427 . S
N506 C503 1.384 . S
N507 C499 1.427 1_655 S
N507 C505 1.384 . S
H508 C514 0.930 . S
H509 C518 0.930 . S
H510 C523 0.929 . S
H511 C521 0.929 . S
H512 C516 0.929 . S
H513 C522 0.929 . S
C514 H508 0.930 . S
C514 C515 1.367 . S
C514 C522 1.378 . S
C515 C514 1.367 . S
C515 C523 1.433 . S
C516 H512 0.929 . S
C516 C518 1.378 . S
C516 C520 1.350 . S
C517 C520 1.463 . S
C517 C522 1.350 . S
C517 N525 1.427 . S
C518 H509 0.930 . S
C518 C516 1.378 . S
C518 C519 1.367 . S
C519 C518 1.367 . S
C519 C521 1.433 . S
C520 C516 1.350 . S
C520 C517 1.463 . S
C520 N524 1.427 . S
C521 H511 0.929 . S
C521 C519 1.433 . S
C521 N524 1.384 . S
C522 H513 0.929 . S
C522 C514 1.378 . S
C522 C517 1.350 . S
C523 H510 0.929 . S
C523 C515 1.433 . S
C523 N525 1.384 . S
N524 C520 1.427 . S
N524 C521 1.384 . S
N525 C517 1.427 . S
N525 C523 1.384 . S
H526 C532 0.930 . S
H527 C536 0.930 . S
H528 C541 0.929 . S
H529 C539 0.929 . S
H530 C534 0.929 . S
H531 C540 0.929 . S
C532 H526 0.930 . S
C532 C533 1.367 . S
C532 C540 1.378 . S
C533 C532 1.367 . S
C533 C541 1.433 . S
C534 H530 0.929 . S
C534 C536 1.378 . S
C534 C538 1.350 . S
C535 C538 1.463 . S
C535 C540 1.350 . S
C535 N543 1.427 . S
C536 H527 0.930 . S
C536 C534 1.378 . S
C536 C537 1.367 . S
C537 C536 1.367 . S
C537 C539 1.433 . S
C538 C534 1.350 . S
C538 C535 1.463 . S
C538 N542 1.427 . S
C539 H529 0.929 . S
C539 C537 1.433 . S
C539 N542 1.384 . S
C540 H531 0.929 . S
C540 C532 1.378 . S
C540 C535 1.350 . S
C541 H528 0.929 . S
C541 C533 1.433 . S
C541 N543 1.384 . S
N542 C538 1.427 . S
N542 C539 1.384 . S
N543 C535 1.427 . S
N543 C541 1.384 . S
H544 C550 0.930 . S
H545 C554 0.930 . S
H546 C559 0.929 . S
H547 C557 0.929 . S
H548 C552 0.929 . S
H549 C558 0.929 . S
C550 H544 0.930 . S
C550 C551 1.367 . S
C550 C558 1.378 . S
C551 C550 1.367 . S
C551 C559 1.433 . S
C552 H548 0.929 . S
C552 C554 1.378 . S
C552 C556 1.350 . S
C553 C556 1.463 . S
C553 C558 1.350 . S
C553 N561 1.427 . S
C554 H545 0.930 . S
C554 C552 1.378 . S
C554 C555 1.367 . S
C555 C554 1.367 . S
C555 C557 1.433 . S
C556 C552 1.350 . S
C556 C553 1.463 . S
C556 N560 1.427 . S
C557 H547 0.929 . S
C557 C555 1.433 . S
C557 N560 1.384 . S
C558 H549 0.929 . S
C558 C550 1.378 . S
C558 C553 1.350 . S
C559 H546 0.929 . S
C559 C551 1.433 . S
C559 N561 1.384 . S
N560 C556 1.427 . S
N560 C557 1.384 . S
N561 C553 1.427 . S
N561 C559 1.384 . S
H562 C568 0.930 . S
H563 C572 0.930 . S
H564 C577 0.929 . S
H565 C575 0.929 . S
H566 C570 0.929 . S
H567 C576 0.929 . S
C568 H562 0.930 . S
C568 C569 1.367 . S
C568 C576 1.378 . S
C569 C568 1.367 . S
C569 C577 1.433 . S
C570 H566 0.929 . S
C570 C572 1.378 . S
C570 C574 1.350 . S
C571 C574 1.463 . S
C571 C576 1.350 . S
C571 N579 1.427 . S
C572 H563 0.930 . S
C572 C570 1.378 . S
C572 C573 1.367 . S
C573 C572 1.367 . S
C573 C575 1.433 . S
C574 C570 1.350 . S
C574 C571 1.463 . S
C574 N578 1.427 . S
C575 H565 0.929 . S
C575 C573 1.433 . S
C575 N578 1.384 . S
C576 H567 0.929 . S
C576 C568 1.378 . S
C576 C571 1.350 . S
C577 H564 0.929 . S
C577 C569 1.433 . S
C577 N579 1.384 . S
N578 C574 1.427 . S
N578 C575 1.384 . S
N579 C571 1.427 . S
N579 C577 1.384 . S
H580 C586 0.930 . S
H581 C590 0.930 . S
H582 C595 0.929 . S
H583 C593 0.929 . S
H584 C588 0.929 . S
H585 C594 0.929 . S
C586 H580 0.930 . S
C586 C587 1.388 . S
C586 C594 1.378 . S
C587 C586 1.388 . S
C587 C595 1.397 1_554 S
C588 H584 0.929 . S
C588 C590 1.378 1_565 S
C588 C592 1.350 . S
C589 C592 1.463 . S
C589 C594 1.350 1_556 S
C589 N597 1.427 . S
C590 H581 0.930 . S
C590 C588 1.378 1_545 S
C590 C591 1.367 . S
C591 C590 1.367 . S
C591 C593 1.433 . S
C592 C588 1.350 . S
C592 C589 1.463 . S
C592 N596 1.427 . S
C593 H583 0.929 . S
C593 C591 1.433 . S
C593 N596 1.384 1_545 S
C594 H585 0.929 . S
C594 C586 1.378 . S
C594 C589 1.350 1_554 S
C595 H582 0.929 . S
C595 C587 1.397 1_556 S
C595 N597 1.384 . S
N596 C592 1.427 . S
N596 C593 1.384 1_565 S
N597 C589 1.427 . S
N597 C595 1.384 . S
H598 C604 0.930 . S
H599 C608 0.930 . S
H600 C613 0.929 . S
H601 C611 0.929 . S
H602 C606 0.929 . S
H603 C612 0.929 . S
C604 H598 0.930 . S
C604 C605 1.367 . S
C604 C612 1.378 . S
C605 C604 1.367 . S
C605 C613 1.433 . S
C606 H602 0.929 . S
C606 C608 1.378 . S
C606 C610 1.350 . S
C607 C610 1.463 . S
C607 C612 1.350 . S
C607 N615 1.427 . S
C608 H599 0.930 . S
C608 C606 1.378 . S
C608 C609 1.367 . S
C609 C608 1.367 . S
C609 C611 1.433 . S
C610 C606 1.350 . S
C610 C607 1.463 . S
C610 N614 1.427 . S
C611 H601 0.929 . S
C611 C609 1.433 . S
C611 N614 1.384 . S
C612 H603 0.929 . S
C612 C604 1.378 . S
C612 C607 1.350 . S
C613 H600 0.929 . S
C613 C605 1.433 . S
C613 N615 1.384 . S
N614 C610 1.427 . S
N614 C611 1.384 . S
N615 C607 1.427 . S
N615 C613 1.384 . S
H616 C622 0.930 . S
H617 C626 0.930 . S
H618 C631 0.929 . S
H619 C629 0.929 . S
H620 C624 0.929 . S
H621 C630 0.929 . S
C622 H616 0.930 . S
C622 C623 1.367 . S
C622 C630 1.378 . S
C623 C622 1.367 . S
C623 C631 1.433 . S
C624 H620 0.929 . S
C624 C626 1.378 . S
C624 C628 1.350 . S
C625 C628 1.463 . S
C625 C630 1.350 . S
C625 N633 1.427 . S
C626 H617 0.930 . S
C626 C624 1.378 . S
C626 C627 1.367 . S
C627 C626 1.367 . S
C627 C629 1.433 . S
C628 C624 1.350 . S
C628 C625 1.463 . S
C628 N632 1.427 . S
C629 H619 0.929 . S
C629 C627 1.433 . S
C629 N632 1.384 . S
C630 H621 0.929 . S
C630 C622 1.378 . S
C630 C625 1.350 . S
C631 H618 0.929 . S
C631 C623 1.433 . S
C631 N633 1.384 . S
N632 C628 1.427 . S
N632 C629 1.384 . S
N633 C625 1.427 . S
N633 C631 1.384 . S
H634 C640 0.930 . S
H635 C644 0.930 . S
H636 C649 0.929 . S
H637 C647 0.929 . S
H638 C642 0.929 . S
H639 C648 0.929 . S
C640 H634 0.930 . S
C640 C641 1.367 . S
C640 C648 1.378 . S
C641 C640 1.367 . S
C641 C649 1.433 . S
C642 H638 0.929 . S
C642 C644 1.378 . S
C642 C646 1.350 . S
C643 C646 1.463 . S
C643 C648 1.350 1_655 S
C643 N651 1.427 1_655 S
C644 H635 0.930 . S
C644 C642 1.378 . S
C644 C645 1.367 . S
C645 C644 1.367 . S
C645 C647 1.433 . S
C646 C642 1.350 . S
C646 C643 1.463 . S
C646 N650 1.427 . S
C647 H637 0.929 . S
C647 C645 1.433 . S
C647 N650 1.384 . S
C648 H639 0.929 . S
C648 C640 1.378 . S
C648 C643 1.350 1_455 S
C649 H636 0.929 . S
C649 C641 1.433 . S
C649 N651 1.384 . S
N650 C646 1.427 . S
N650 C647 1.384 . S
N651 C643 1.427 1_455 S
N651 C649 1.384 . S
H652 C658 0.930 . S
H653 C662 0.930 . S
H654 C667 0.929 . S
H655 C665 0.929 . S
H656 C660 0.929 . S
H657 C666 0.929 . S
C658 H652 0.930 . S
C658 C659 1.367 . S
C658 C666 1.378 . S
C659 C658 1.367 . S
C659 C667 1.433 . S
C660 H656 0.929 . S
C660 C662 1.378 . S
C660 C664 1.350 . S
C661 C664 1.463 . S
C661 C666 1.350 . S
C661 N669 1.427 . S
C662 H653 0.930 . S
C662 C660 1.378 . S
C662 C663 1.367 . S
C663 C662 1.367 . S
C663 C665 1.433 . S
C664 C660 1.350 . S
C664 C661 1.463 . S
C664 N668 1.427 . S
C665 H655 0.929 . S
C665 C663 1.433 . S
C665 N668 1.384 . S
C666 H657 0.929 . S
C666 C658 1.378 . S
C666 C661 1.350 . S
C667 H654 0.929 . S
C667 C659 1.433 . S
C667 N669 1.384 . S
N668 C664 1.427 . S
N668 C665 1.384 . S
N669 C661 1.427 . S
N669 C667 1.384 . S
H670 C676 0.930 . S
H671 C680 0.930 . S
H672 C685 0.929 . S
H673 C683 0.929 . S
H674 C678 0.929 . S
H675 C684 0.929 . S
C676 H670 0.930 . S
C676 C677 1.367 . S
C676 C684 1.378 . S
C677 C676 1.367 . S
C677 C685 1.433 . S
C678 H674 0.929 . S
C678 C680 1.378 . S
C678 C682 1.350 . S
C679 C682 1.463 . S
C679 C684 1.350 . S
C679 N687 1.427 . S
C680 H671 0.930 . S
C680 C678 1.378 . S
C680 C681 1.367 . S
C681 C680 1.367 . S
C681 C683 1.433 . S
C682 C678 1.350 . S
C682 C679 1.463 . S
C682 N686 1.427 . S
C683 H673 0.929 . S
C683 C681 1.433 . S
C683 N686 1.384 . S
C684 H675 0.929 . S
C684 C676 1.378 . S
C684 C679 1.350 . S
C685 H672 0.929 . S
C685 C677 1.433 . S
C685 N687 1.384 . S
N686 C682 1.427 . S
N686 C683 1.384 . S
N687 C679 1.427 . S
N687 C685 1.384 . S
H688 C694 0.930 . S
H689 C698 0.930 . S
H690 C703 0.929 . S
H691 C701 0.929 . S
H692 C696 0.929 . S
H693 C702 0.929 . S
C694 H688 0.930 . S
C694 C695 1.367 . S
C694 C702 1.378 . S
C695 C694 1.367 . S
C695 C703 1.433 . S
C696 H692 0.929 . S
C696 C698 1.378 . S
C696 C700 1.350 . S
C697 C700 1.463 . S
C697 C702 1.350 . S
C697 N705 1.427 . S
C698 H689 0.930 . S
C698 C696 1.378 . S
C698 C699 1.367 . S
C699 C698 1.367 . S
C699 C701 1.433 . S
C700 C696 1.350 . S
C700 C697 1.463 . S
C700 N704 1.427 . S
C701 H691 0.929 . S
C701 C699 1.433 . S
C701 N704 1.384 . S
C702 H693 0.929 . S
C702 C694 1.378 . S
C702 C697 1.350 . S
C703 H690 0.929 . S
C703 C695 1.433 . S
C703 N705 1.384 . S
N704 C700 1.427 . S
N704 C701 1.384 . S
N705 C697 1.427 . S
N705 C703 1.384 . S
H706 C712 0.930 . S
H707 C716 0.930 . S
H708 C721 0.929 . S
H709 C719 0.929 . S
H710 C714 0.929 . S
H711 C720 0.929 . S
C712 H706 0.930 . S
C712 C713 1.367 . S
C712 C720 1.378 . S
C713 C712 1.367 . S
C713 C721 1.433 . S
C714 H710 0.929 . S
C714 C716 1.378 . S
C714 C718 1.350 . S
C715 C718 1.463 . S
C715 C720 1.350 . S
C715 N723 1.427 . S
C716 H707 0.930 . S
C716 C714 1.378 . S
C716 C717 1.367 . S
C717 C716 1.367 . S
C717 C719 1.433 . S
C718 C714 1.350 . S
C718 C715 1.463 . S
C718 N722 1.427 . S
C719 H709 0.929 . S
C719 C717 1.433 . S
C719 N722 1.384 . S
C720 H711 0.929 . S
C720 C712 1.378 . S
C720 C715 1.350 . S
C721 H708 0.929 . S
C721 C713 1.433 . S
C721 N723 1.384 . S
N722 C718 1.427 . S
N722 C719 1.384 . S
N723 C715 1.427 . S
N723 C721 1.384 . S
H724 C730 0.930 . S
H725 C734 0.930 . S
H726 C739 0.929 . S
H727 C737 0.929 . S
H728 C732 0.929 . S
H729 C738 0.929 . S
C730 H724 0.930 . S
C730 C731 1.367 . S
C730 C738 1.378 . S
C731 C730 1.367 . S
C731 C739 1.433 . S
C732 H728 0.929 . S
C732 C734 1.378 . S
C732 C736 1.350 . S
C733 C736 1.463 . S
C733 C738 1.350 . S
C733 N741 1.427 . S
C734 H725 0.930 . S
C734 C732 1.378 . S
C734 C735 1.367 . S
C735 C734 1.367 . S
C735 C737 1.433 . S
C736 C732 1.350 . S
C736 C733 1.463 . S
C736 N740 1.427 . S
C737 H727 0.929 . S
C737 C735 1.433 . S
C737 N740 1.384 . S
C738 H729 0.929 . S
C738 C730 1.378 . S
C738 C733 1.350 . S
C739 H726 0.929 . S
C739 C731 1.433 . S
C739 N741 1.384 . S
N740 C736 1.427 . S
N740 C737 1.384 . S
N741 C733 1.427 . S
N741 C739 1.384 . S
H742 C748 0.930 . S
H743 C752 0.930 . S
H744 C757 0.929 . S
H745 C755 0.929 . S
H746 C750 0.929 . S
H747 C756 0.929 . S
C748 H742 0.930 . S
C748 C749 1.367 . S
C748 C756 1.378 . S
C749 C748 1.367 . S
C749 C757 1.433 . S
C750 H746 0.929 . S
C750 C752 1.378 . S
C750 C754 1.350 . S
C751 C754 1.463 . S
C751 C756 1.350 . S
C751 N759 1.427 . S
C752 H743 0.930 . S
C752 C750 1.378 . S
C752 C753 1.367 . S
C753 C752 1.367 . S
C753 C755 1.433 . S
C754 C750 1.350 . S
C754 C751 1.463 . S
C754 N758 1.427 . S
C755 H745 0.929 . S
C755 C753 1.433 . S
C755 N758 1.384 . S
C756 H747 0.929 . S
C756 C748 1.378 . S
C756 C751 1.350 . S
C757 H744 0.929 . S
C757 C749 1.433 . S
C757 N759 1.384 . S
N758 C754 1.427 . S
N758 C755 1.384 . S
N759 C751 1.427 . S
N759 C757 1.384 . S
H760 C766 0.930 . S
H761 C770 0.930 . S
H762 C775 0.929 . S
H763 C773 0.929 . S
H764 C768 0.929 . S
H765 C774 0.929 . S
C766 H760 0.930 . S
C766 C767 1.367 . S
C766 C774 1.378 . S
C767 C766 1.367 . S
C767 C775 1.433 . S
C768 H764 0.929 . S
C768 C770 1.378 . S
C768 C772 1.350 . S
C769 C772 1.463 . S
C769 C774 1.350 . S
C769 N777 1.427 . S
C770 H761 0.930 . S
C770 C768 1.378 . S
C770 C771 1.367 . S
C771 C770 1.367 . S
C771 C773 1.433 . S
C772 C768 1.350 . S
C772 C769 1.463 . S
C772 N776 1.427 . S
C773 H763 0.929 . S
C773 C771 1.433 . S
C773 N776 1.384 . S
C774 H765 0.929 . S
C774 C766 1.378 . S
C774 C769 1.350 . S
C775 H762 0.929 . S
C775 C767 1.433 . S
C775 N777 1.384 . S
N776 C772 1.427 . S
N776 C773 1.384 . S
N777 C769 1.427 . S
N777 C775 1.384 . S
H778 C784 0.930 . S
H779 C788 0.930 . S
H780 C793 0.929 . S
H781 C791 0.929 . S
H782 C786 0.929 . S
H783 C792 0.929 . S
C784 H778 0.930 . S
C784 C785 1.367 . S
C784 C792 1.378 . S
C785 C784 1.367 . S
C785 C793 1.433 . S
C786 H782 0.929 . S
C786 C788 1.378 . S
C786 C790 1.350 . S
C787 C790 1.463 . S
C787 C792 1.350 . S
C787 N795 1.427 . S
C788 H779 0.930 . S
C788 C786 1.378 . S
C788 C789 1.367 . S
C789 C788 1.367 . S
C789 C791 1.433 . S
C790 C786 1.350 . S
C790 C787 1.463 . S
C790 N794 1.427 . S
C791 H781 0.929 . S
C791 C789 1.433 . S
C791 N794 1.384 . S
C792 H783 0.929 . S
C792 C784 1.378 . S
C792 C787 1.350 . S
C793 H780 0.929 . S
C793 C785 1.433 . S
C793 N795 1.384 . S
N794 C790 1.427 . S
N794 C791 1.384 . S
N795 C787 1.427 . S
N795 C793 1.384 . S
H796 C802 0.930 . S
H797 C806 0.930 . S
H798 C811 0.929 . S
H799 C809 0.929 . S
H800 C804 0.929 . S
H801 C810 0.929 . S
C802 H796 0.930 . S
C802 C803 1.367 . S
C802 C810 1.378 . S
C803 C802 1.367 . S
C803 C811 1.433 . S
C804 H800 0.929 . S
C804 C806 1.378 . S
C804 C808 1.350 . S
C805 C808 1.463 . S
C805 C810 1.350 . S
C805 N813 1.427 . S
C806 H797 0.930 . S
C806 C804 1.378 . S
C806 C807 1.367 . S
C807 C806 1.367 . S
C807 C809 1.433 . S
C808 C804 1.350 . S
C808 C805 1.463 . S
C808 N812 1.427 . S
C809 H799 0.929 . S
C809 C807 1.433 . S
C809 N812 1.384 . S
C810 H801 0.929 . S
C810 C802 1.378 . S
C810 C805 1.350 . S
C811 H798 0.929 . S
C811 C803 1.433 . S
C811 N813 1.384 . S
N812 C808 1.427 . S
N812 C809 1.384 . S
N813 C805 1.427 . S
N813 C811 1.384 . S
H814 C820 0.930 . S
H815 C824 0.930 . S
H816 C829 0.929 1_554 S
H817 C827 0.929 . S
H818 C822 0.929 . S
H819 C828 0.929 . S
C820 H814 0.930 . S
C820 C821 1.367 . S
C820 C828 1.378 . S
C821 C820 1.367 . S
C821 C829 1.433 . S
C822 H818 0.929 . S
C822 C824 1.378 . S
C822 C826 1.350 . S
C823 C826 1.463 . S
C823 C828 1.350 . S
C823 N831 1.427 . S
C824 H815 0.930 . S
C824 C822 1.378 . S
C824 C825 1.367 . S
C825 C824 1.367 . S
C825 C827 1.433 . S
C826 C822 1.350 . S
C826 C823 1.463 . S
C826 N830 1.427 . S
C827 H817 0.929 . S
C827 C825 1.433 . S
C827 N830 1.384 . S
C828 H819 0.929 . S
C828 C820 1.378 . S
C828 C823 1.350 . S
C829 H816 0.929 1_556 S
C829 C821 1.433 . S
C829 N831 1.384 . S
N830 C826 1.427 . S
N830 C827 1.384 . S
N831 C823 1.427 . S
N831 C829 1.384 . S
C407 C8 1.606 . S
C411 C104 1.530 1_565 S
C425 C31 1.531 . S
C429 C143 1.429 . S
C443 C53 1.798 . S
C447 C182 1.699 . S
C465 C206 1.433 . S
C461 C74 1.445 . S
C483 C245 1.535 . S
C479 C26 1.599 . S
C497 C48 1.448 . S
C501 C284 1.448 . S
C515 C71 1.789 . S
C519 C338 1.689 . S
C533 C5 1.529 . S
C537 C362 1.439 . S
C551 C50 1.606 . S
C555 C377 1.527 1_545 S
C573 C260 1.434 . S
C569 C70 1.528 . S
C591 C299 1.693 . S
C587 C4 1.818 . S
C605 C28 1.446 . S
C609 C323 1.439 . S
C627 C128 1.531 . S
C623 C73 1.598 . S
C641 C7 1.455 . S
C645 C167 1.444 . S
C663 C221 1.690 . S
C659 C30 1.798 . S
C681 C89 1.436 . S
C677 C52 1.528 . S
C699 C343 1.501 . S
C695 C9 1.558 . S
C717 C382 1.378 . S
C713 C29 1.391 . S
C731 C51 1.389 . S
C735 C265 1.383 . S
C753 C304 1.497 . S
C749 C75 1.567 . S
C771 C187 1.511 . S
C767 C27 1.569 . S
C785 C49 1.561 . S
C789 C226 1.489 . S
C807 C109 1.373 . S
C803 C72 1.394 . S
C825 C148 1.368 . S
C821 C6 1.384 1_556 S
