# Generated by pormake.
# Topology wbl, (4,4)-cn, num edge types: 1
# Building blocks:
#     Node 0, Type 0, BuildingBlock: MUDLON_clean_linker_0, # of connection points: 4
#     Node 1, Type 0, BuildingBlock: MUDLON_clean_linker_0, # of connection points: 4
#     Node 2, Type 0, BuildingBlock: MUDLON_clean_linker_0, # of connection points: 4
#     Node 3, Type 0, BuildingBlock: MUDLON_clean_linker_0, # of connection points: 4
#     Node 4, Type 0, BuildingBlock: MUDLON_clean_linker_0, # of connection points: 4
#     Node 5, Type 0, BuildingBlock: MUDLON_clean_linker_0, # of connection points: 4
#     Node 6, Type 0, BuildingBlock: MUDLON_clean_linker_0, # of connection points: 4
#     Node 7, Type 0, BuildingBlock: MUDLON_clean_linker_0, # of connection points: 4
#     Node 8, Type 1, BuildingBlock: QUQFOY_clean_sbu_3, # of connection points: 4
#     Node 9, Type 1, BuildingBlock: QUQFOY_clean_sbu_3, # of connection points: 4
#     Node 10, Type 1, BuildingBlock: QUQFOY_clean_sbu_3, # of connection points: 4
#     Node 11, Type 1, BuildingBlock: QUQFOY_clean_sbu_3, # of connection points: 4
#     Node 12, Type 1, BuildingBlock: QUQFOY_clean_sbu_3, # of connection points: 4
#     Node 13, Type 1, BuildingBlock: QUQFOY_clean_sbu_3, # of connection points: 4
#     Node 14, Type 1, BuildingBlock: QUQFOY_clean_sbu_3, # of connection points: 4
#     Node 15, Type 1, BuildingBlock: QUQFOY_clean_sbu_3, # of connection points: 4
#     Edge 16, Type (0, 1), BuildingBlock: UVAHIK_clean_linker_0, # of connection points: 2
#     Edge 17, Type (0, 1), BuildingBlock: UVAHIK_clean_linker_0, # of connection points: 2
#     Edge 18, Type (0, 1), BuildingBlock: UVAHIK_clean_linker_0, # of connection points: 2
#     Edge 19, Type (0, 1), BuildingBlock: UVAHIK_clean_linker_0, # of connection points: 2
#     Edge 20, Type (0, 1), BuildingBlock: UVAHIK_clean_linker_0, # of connection points: 2
#     Edge 21, Type (0, 1), BuildingBlock: UVAHIK_clean_linker_0, # of connection points: 2
#     Edge 22, Type (0, 1), BuildingBlock: UVAHIK_clean_linker_0, # of connection points: 2
#     Edge 23, Type (0, 1), BuildingBlock: UVAHIK_clean_linker_0, # of connection points: 2
#     Edge 24, Type (0, 1), BuildingBlock: UVAHIK_clean_linker_0, # of connection points: 2
#     Edge 25, Type (0, 1), BuildingBlock: UVAHIK_clean_linker_0, # of connection points: 2
#     Edge 26, Type (0, 1), BuildingBlock: UVAHIK_clean_linker_0, # of connection points: 2
#     Edge 27, Type (0, 1), BuildingBlock: UVAHIK_clean_linker_0, # of connection points: 2
#     Edge 28, Type (0, 1), BuildingBlock: UVAHIK_clean_linker_0, # of connection points: 2
#     Edge 29, Type (0, 1), BuildingBlock: UVAHIK_clean_linker_0, # of connection points: 2
#     Edge 30, Type (0, 1), BuildingBlock: UVAHIK_clean_linker_0, # of connection points: 2
#     Edge 31, Type (0, 1), BuildingBlock: UVAHIK_clean_linker_0, # of connection points: 2
#     Edge 32, Type (0, 1), BuildingBlock: UVAHIK_clean_linker_0, # of connection points: 2
#     Edge 33, Type (0, 1), BuildingBlock: UVAHIK_clean_linker_0, # of connection points: 2
#     Edge 34, Type (0, 1), BuildingBlock: UVAHIK_clean_linker_0, # of connection points: 2
#     Edge 35, Type (0, 1), BuildingBlock: UVAHIK_clean_linker_0, # of connection points: 2
#     Edge 36, Type (0, 1), BuildingBlock: UVAHIK_clean_linker_0, # of connection points: 2
#     Edge 37, Type (0, 1), BuildingBlock: UVAHIK_clean_linker_0, # of connection points: 2
#     Edge 38, Type (0, 1), BuildingBlock: UVAHIK_clean_linker_0, # of connection points: 2
#     Edge 39, Type (0, 1), BuildingBlock: UVAHIK_clean_linker_0, # of connection points: 2
#     Edge 40, Type (0, 1), BuildingBlock: UVAHIK_clean_linker_0, # of connection points: 2
#     Edge 41, Type (0, 1), BuildingBlock: UVAHIK_clean_linker_0, # of connection points: 2
#     Edge 42, Type (0, 1), BuildingBlock: UVAHIK_clean_linker_0, # of connection points: 2
#     Edge 43, Type (0, 1), BuildingBlock: UVAHIK_clean_linker_0, # of connection points: 2
#     Edge 44, Type (0, 1), BuildingBlock: UVAHIK_clean_linker_0, # of connection points: 2
#     Edge 45, Type (0, 1), BuildingBlock: UVAHIK_clean_linker_0, # of connection points: 2
#     Edge 46, Type (0, 1), BuildingBlock: UVAHIK_clean_linker_0, # of connection points: 2
#     Edge 47, Type (0, 1), BuildingBlock: UVAHIK_clean_linker_0, # of connection points: 2
# Relax obj value: 0.127
# Max RMSD: 0.145
# Mean RMSD: 0.130
data_MOF--net-wbl--node1-QUQFOY_clean_sbu_3--node2-MUDLON_clean_linker_0--edge1-UVAHIK_clean_linker_0
_symmetry_space_group_name_H-M    P1
_symmetry_Int_Tables_number       1
_symmetry_cell_setting            triclinic
loop_
_symmetry_equiv_pos_as_xyz
'x, y, z'
_cell_length_a     65.037384
_cell_length_b     65.655224
_cell_length_c     93.465377
_cell_angle_alpha  90.71663
_cell_angle_beta   90.257799
_cell_angle_gamma 89.967636
loop_
_atom_site_label
_atom_site_type_symbol
_atom_site_fract_x
_atom_site_fract_y
_atom_site_fract_z
_atom_type_partial_charge
H0 H 0.12392 0.98768 0.31681 0.0
N1 N 0.09134 0.98332 0.29989 0.0
H2 H 0.13046 0.97117 0.33968 0.0
H3 H 0.06527 0.95758 0.31351 0.0
H4 H 0.07183 0.9404 0.33623 0.0
H5 H 0.08967 0.94233 0.29387 0.0
H6 H 0.11008 0.92456 0.27608 0.0
H7 H 0.10999 3e-05 0.27764 0.0
H8 H 0.12892 0.98243 0.25871 0.0
H9 H 0.08828 0.02126 0.30934 0.0
H10 H 0.05442 0.97391 0.28741 0.0
H11 H 0.0587 0.04388 0.30787 0.0
H12 H 0.02475 0.99686 0.28511 0.0
H13 H 0.97246 0.11645 0.31033 0.0
H14 H 0.96191 0.12654 0.33454 0.0
H15 H 0.95018 0.06338 0.3442 0.0
H16 H 0.96139 0.05352 0.32042 0.0
H17 H 0.93661 0.05758 0.30142 0.0
H18 H 0.90529 0.06311 0.28793 0.0
H19 H 0.93787 0.1041 0.26008 0.0
H20 H 0.96889 0.09963 0.27456 0.0
H21 H 0.0114 0.08747 0.29357 0.0
H22 H 0.04006 0.06359 0.29187 0.0
H23 H 0.99798 0.01346 0.29798 0.0
N24 N 0.97244 0.07925 0.29879 0.0
H25 H 0.96928 0.03751 0.29859 0.0
C26 C 0.0942 0.97384 0.31355 0.0
C27 C 0.11249 0.97745 0.32108 0.0
C28 C 0.11624 0.96785 0.33406 0.0
C29 C 0.10176 0.95427 0.33974 0.0
C30 C 0.08323 0.95087 0.33223 0.0
C31 C 0.07946 0.96062 0.31924 0.0
C32 C 0.09894 0.97259 0.28743 0.0
C33 C 0.0981 0.95124 0.28622 0.0
C34 C 0.10968 0.94103 0.27581 0.0
C35 C 0.12181 0.95195 0.26608 0.0
C36 C 0.12056 0.97339 0.26634 0.0
C37 C 0.1095 0.98355 0.27703 0.0
C38 C 0.07356 0.99613 0.29837 0.0
C39 C 0.07443 0.01592 0.30402 0.0
C40 C 0.05753 0.02886 0.30302 0.0
C41 C 0.03934 0.02239 0.29613 0.0
C42 C 0.03844 0.00236 0.29053 0.0
C43 C 0.05539 0.98927 0.29173 0.0
C44 C 0.96779 0.08431 0.3135 0.0
C45 C 0.9679 0.10483 0.3178 0.0
C46 C 0.96168 0.11054 0.33158 0.0
C47 C 0.95508 0.09578 0.34133 0.0
C48 C 0.95545 0.07515 0.33708 0.0
C49 C 0.9618 0.06947 0.32336 0.0
C50 C 0.95502 0.07868 0.28922 0.0
C51 C 0.93712 0.06765 0.29238 0.0
C52 C 0.91913 0.07069 0.28447 0.0
C53 C 0.91876 0.08442 0.273 0.0
C54 C 0.93728 0.09395 0.26911 0.0
C55 C 0.95513 0.09123 0.27724 0.0
C56 C 0.98836 0.06436 0.29649 0.0
C57 C 0.0084 0.07129 0.29432 0.0
C58 C 0.02476 0.05759 0.29351 0.0
C59 C 0.02147 0.03656 0.29517 0.0
C60 C 0.00115 0.02951 0.29666 0.0
C61 C 0.9847 0.04329 0.29719 0.0
H62 H 0.98287 0.40129 0.56101 0.0
N63 N 0.98506 0.43475 0.5456 0.0
H64 H 0.96535 0.39667 0.58372 0.0
H65 H 0.96507 0.46445 0.56088 0.0
H66 H 0.94843 0.46044 0.58413 0.0
H67 H 0.94822 0.45014 0.53666 0.0
H68 H 0.92448 0.43357 0.51982 0.0
H69 H 0.99323 0.40336 0.52857 0.0
H70 H 0.96946 0.38605 0.51236 0.0
H71 H 0.02301 0.437 0.55565 0.0
H72 H 0.97818 0.47067 0.53144 0.0
H73 H 0.04721 0.46509 0.55375 0.0
H74 H 0.00271 0.49838 0.52861 0.0
H75 H 0.12246 0.5514 0.55574 0.0
H76 H 0.13036 0.56463 0.5798 0.0
H77 H 0.0656 0.57487 0.58707 0.0
H78 H 0.05788 0.56164 0.56328 0.0
H79 H 0.06282 0.58405 0.54256 0.0
H80 H 0.07011 0.61407 0.52852 0.0
H81 H 0.11819 0.58117 0.5063 0.0
H82 H 0.11117 0.55126 0.52089 0.0
H83 H 0.09376 0.50983 0.5399 0.0
H84 H 0.06915 0.48185 0.53848 0.0
H85 H 0.01914 0.52528 0.54057 0.0
N86 N 0.08593 0.54913 0.54302 0.0
H87 H 0.04392 0.55305 0.54082 0.0
C88 C 0.9755 0.43318 0.5594 0.0
C89 C 0.97544 0.41424 0.56608 0.0
C90 C 0.96552 0.41172 0.57912 0.0
C91 C 0.95561 0.42823 0.58593 0.0
C92 C 0.9557 0.44732 0.57918 0.0
C93 C 0.96541 0.44973 0.56596 0.0
C94 C 0.97252 0.42793 0.53377 0.0
C95 C 0.95318 0.43658 0.53094 0.0
C96 C 0.93953 0.42691 0.52144 0.0
C97 C 0.94486 0.40827 0.51481 0.0
C98 C 0.9648 0.40049 0.51702 0.0
C99 C 0.97846 0.41029 0.52635 0.0
C100 C 0.99893 0.45155 0.54359 0.0
C101 C 0.01856 0.45037 0.54971 0.0
C102 C 0.03243 0.46642 0.54846 0.0
C103 C 0.02712 0.48402 0.54083 0.0
C104 C 0.00735 0.48518 0.53467 0.0
C105 C 0.9933 0.4692 0.53615 0.0
C106 C 0.08966 0.55531 0.55767 0.0
C107 C 0.11 0.55626 0.56263 0.0
C108 C 0.11447 0.56395 0.57631 0.0
C109 C 0.09858 0.57081 0.58531 0.0
C110 C 0.07815 0.56945 0.58046 0.0
C111 C 0.07371 0.56186 0.56677 0.0
C112 C 0.08667 0.56542 0.53286 0.0
C113 C 0.07458 0.58307 0.53445 0.0
C114 C 0.07874 0.60028 0.52632 0.0
C115 C 0.09496 0.60016 0.5164 0.0
C116 C 0.10588 0.58193 0.51406 0.0
C117 C 0.10179 0.56477 0.52226 0.0
C118 C 0.07077 0.53344 0.54073 0.0
C119 C 0.07746 0.51323 0.5398 0.0
C120 C 0.06332 0.49727 0.53917 0.0
C121 C 0.04205 0.50118 0.53976 0.0
C122 C 0.03534 0.52159 0.54004 0.0
C123 C 0.04956 0.53758 0.54036 0.0
H124 H 0.6102 0.48086 0.81766 0.0
N125 N 0.57782 0.48615 0.8008 0.0
H126 H 0.61178 0.46235 0.84023 0.0
H127 H 0.54587 0.46615 0.81343 0.0
H128 H 0.5472 0.44801 0.83625 0.0
H129 H 0.56287 0.45072 0.78919 0.0
H130 H 0.58003 0.42951 0.77111 0.0
H131 H 0.61012 0.49618 0.78535 0.0
H132 H 0.62786 0.47497 0.76777 0.0
H133 H 0.57727 0.52371 0.81127 0.0
H134 H 0.54136 0.48104 0.78627 0.0
H135 H 0.54965 0.5487 0.80975 0.0
H136 H 0.51397 0.50629 0.784 0.0
H137 H 0.46437 0.62617 0.81213 0.0
H138 H 0.45089 0.63541 0.83578 0.0
H139 H 0.43889 0.57191 0.84395 0.0
H140 H 0.45243 0.56285 0.82051 0.0
H141 H 0.43026 0.56622 0.7992 0.0
H142 H 0.39945 0.57318 0.78529 0.0
H143 H 0.43064 0.6227 0.76449 0.0
H144 H 0.46164 0.6156 0.77861 0.0
H145 H 0.50494 0.59628 0.79642 0.0
H146 H 0.5326 0.57122 0.79457 0.0
H147 H 0.48785 0.52272 0.79728 0.0
N148 N 0.46524 0.58951 0.7999 0.0
H149 H 0.4604 0.54784 0.7982 0.0
C150 C 0.57794 0.47512 0.81401 0.0
C151 C 0.59644 0.47364 0.82165 0.0
C152 C 0.59733 0.46299 0.83445 0.0
C153 C 0.57961 0.45377 0.83994 0.0
C154 C 0.56104 0.4551 0.83225 0.0
C155 C 0.56025 0.46548 0.81927 0.0
C156 C 0.5853 0.47504 0.78854 0.0
C157 C 0.57669 0.45633 0.78418 0.0
C158 C 0.58665 0.44415 0.77395 0.0
C159 C 0.60546 0.45039 0.76802 0.0
C160 C 0.61328 0.46971 0.77186 0.0
C161 C 0.60324 0.48187 0.78198 0.0
C162 C 0.56151 0.50067 0.7988 0.0
C163 C 0.56351 0.51992 0.80523 0.0
C164 C 0.54773 0.53422 0.80424 0.0
C165 C 0.52956 0.52966 0.79662 0.0
C166 C 0.52763 0.51031 0.79005 0.0
C167 C 0.5434 0.49588 0.79122 0.0
C168 C 0.45959 0.5939 0.81452 0.0
C169 C 0.45916 0.61426 0.81916 0.0
C170 C 0.4513 0.6195 0.83259 0.0
C171 C 0.44373 0.60438 0.84169 0.0
C172 C 0.44481 0.58388 0.83724 0.0
C173 C 0.45257 0.57868 0.82377 0.0
C174 C 0.44838 0.59038 0.78988 0.0
C175 C 0.43082 0.5781 0.79132 0.0
C176 C 0.41311 0.58214 0.78334 0.0
C177 C 0.41255 0.5986 0.77386 0.0
C178 C 0.43053 0.61006 0.77183 0.0
C179 C 0.44827 0.60594 0.77977 0.0
C180 C 0.48067 0.57406 0.79764 0.0
C181 C 0.50116 0.58022 0.7964 0.0
C182 C 0.51693 0.56584 0.79549 0.0
C183 C 0.51256 0.54487 0.79603 0.0
C184 C 0.49186 0.53869 0.79674 0.0
C185 C 0.47606 0.55313 0.79742 0.0
H186 H 0.48927 0.90339 0.0645 0.0
N187 N 0.48995 0.93683 0.04893 0.0
H188 H 0.47375 0.89895 0.08811 0.0
H189 H 0.47219 0.96683 0.06533 0.0
H190 H 0.45713 0.96261 0.0892 0.0
H191 H 0.45134 0.95089 0.04292 0.0
H192 H 0.42554 0.93303 0.02835 0.0
H193 H 0.49669 0.90606 0.03101 0.0
H194 H 0.47105 0.88775 0.01678 0.0
H195 H 0.52888 0.94047 0.05668 0.0
H196 H 0.48019 0.9722 0.03486 0.0
H197 H 0.55179 0.96924 0.05312 0.0
H198 H 0.50334 0.0006 0.03037 0.0
H199 H 0.62311 0.05457 0.05259 0.0
H200 H 0.63239 0.06894 0.07609 0.0
H201 H 0.56856 0.08358 0.08367 0.0
H202 H 0.55953 0.06956 0.06031 0.0
H203 H 0.56152 0.08787 0.03845 0.0
H204 H 0.56845 0.11782 0.02429 0.0
H205 H 0.61915 0.08645 0.00392 0.0
H206 H 0.61245 0.05661 0.01864 0.0
H207 H 0.59502 0.01515 0.0366 0.0
H208 H 0.57127 0.9864 0.03655 0.0
H209 H 0.52024 0.02827 0.04108 0.0
N210 N 0.58628 0.05416 0.04021 0.0
H211 H 0.54401 0.05678 0.0399 0.0
C212 C 0.4821 0.9354 0.06327 0.0
C213 C 0.4824 0.91639 0.06989 0.0
C214 C 0.47344 0.91387 0.08327 0.0
C215 C 0.46423 0.93044 0.09038 0.0
C216 C 0.46424 0.94965 0.08391 0.0
C217 C 0.47288 0.95208 0.07034 0.0
C218 C 0.47594 0.9297 0.03801 0.0
C219 C 0.45588 0.93753 0.03682 0.0
C220 C 0.4411 0.92717 0.0286 0.0
C221 C 0.4461 0.90879 0.02152 0.0
C222 C 0.46662 0.90196 0.02191 0.0
C223 C 0.48135 0.91236 0.03006 0.0
C224 C 0.50296 0.954 0.04594 0.0
C225 C 0.52328 0.95356 0.05089 0.0
C226 C 0.5364 0.97 0.04869 0.0
C227 C 0.52961 0.98727 0.04125 0.0
C228 C 0.50914 0.98769 0.03625 0.0
C229 C 0.49586 0.9713 0.03869 0.0
C230 C 0.59071 0.06088 0.05464 0.0
C231 C 0.61114 0.06066 0.05944 0.0
C232 C 0.61638 0.06884 0.07285 0.0
C233 C 0.6012 0.07752 0.08169 0.0
C234 C 0.58064 0.07729 0.07701 0.0
C235 C 0.57543 0.06907 0.06363 0.0
C236 C 0.58664 0.06999 0.02969 0.0
C237 C 0.57377 0.08714 0.03069 0.0
C238 C 0.57774 0.10435 0.0225 0.0
C239 C 0.59458 0.1047 0.0131 0.0
C240 C 0.60633 0.08686 0.01127 0.0
C241 C 0.6024 0.06972 0.01954 0.0
C242 C 0.57143 0.03804 0.03854 0.0
C243 C 0.57865 0.01804 0.03731 0.0
C244 C 0.56503 0.00164 0.03748 0.0
C245 C 0.54377 0.00488 0.03921 0.0
C246 C 0.53644 0.02507 0.03972 0.0
C247 C 0.55012 0.04151 0.03924 0.0
H248 H 0.10854 0.52783 0.94071 0.0
N249 N 0.07569 0.53531 0.9567 0.0
H250 H 0.11691 0.54243 0.91749 0.0
H251 H 0.0515 0.56115 0.94134 0.0
H252 H 0.0599 0.57635 0.91838 0.0
H253 H 0.07276 0.57652 0.96143 0.0
H254 H 0.09294 0.59594 0.97863 0.0
H255 H 0.0947 0.52052 0.97958 0.0
H256 H 0.11342 0.53981 0.99791 0.0
H257 H 0.07543 0.49513 0.95493 0.0
H258 H 0.03627 0.54701 0.96235 0.0
H259 H 0.04574 0.47247 0.95593 0.0
H260 H 0.00605 0.52457 0.96266 0.0
H261 H 0.94814 0.40545 0.94311 0.0
H262 H 0.93303 0.39813 0.91955 0.0
H263 H 0.92749 0.46273 0.91202 0.0
H264 H 0.94305 0.46984 0.93541 0.0
H265 H 0.92627 0.47282 0.9581 0.0
H266 H 0.89359 0.47107 0.97075 0.0
H267 H 0.91024 0.4117 0.98659 0.0
H268 H 0.94313 0.41389 0.97417 0.0
H269 H 0.98858 0.44099 0.93998 0.0
H270 H 0.01747 0.46428 0.94101 0.0
H271 H 0.98826 0.49781 0.97539 0.0
N272 N 0.95418 0.44172 0.95539 0.0
H273 H 0.95901 0.47494 0.9741 0.0
C274 C 0.07947 0.54335 0.9427 0.0
C275 C 0.09783 0.53826 0.93577 0.0
C276 C 0.10263 0.54679 0.92259 0.0
C277 C 0.08915 0.56072 0.9161 0.0
C278 C 0.07053 0.56552 0.92298 0.0
C279 C 0.0657 0.55687 0.93614 0.0
C280 C 0.08287 0.54699 0.96888 0.0
C281 C 0.08147 0.56835 0.96938 0.0
C282 C 0.09292 0.57952 0.97945 0.0
C283 C 0.10548 0.56954 0.9895 0.0
C284 C 0.10471 0.54811 0.99 0.0
C285 C 0.09377 0.537 0.97965 0.0
C286 C 0.05793 0.52261 0.95836 0.0
C287 C 0.06031 0.50156 0.95676 0.0
C288 C 0.04329 0.4887 0.95721 0.0
C289 C 0.02341 0.49671 0.9591 0.0
C290 C 0.02113 0.51789 0.96121 0.0
C291 C 0.03831 0.53075 0.9609 0.0
C292 C 0.94671 0.43809 0.941 0.0
C293 C 0.94385 0.41797 0.93627 0.0
C294 C 0.93507 0.41386 0.92289 0.0
C295 C 0.92892 0.42986 0.91396 0.0
C296 C 0.93221 0.45007 0.91859 0.0
C297 C 0.94098 0.45417 0.93199 0.0
C298 C 0.93719 0.44342 0.96523 0.0
C299 C 0.92312 0.45968 0.9646 0.0
C300 C 0.90435 0.45858 0.97176 0.0
C301 C 0.89913 0.4411 0.97951 0.0
C302 C 0.91379 0.42547 0.98085 0.0
C303 C 0.93261 0.42667 0.97377 0.0
C304 C 0.97092 0.45636 0.95646 0.0
C305 C 0.98813 0.45353 0.94761 0.0
C306 C 0.00485 0.46676 0.94834 0.0
C307 C 0.00522 0.48298 0.95828 0.0
C308 C 0.98829 0.48571 0.96741 0.0
C309 C 0.97139 0.4725 0.96661 0.0
H310 H 0.51965 0.39247 0.19653 0.0
N311 N 0.52035 0.42638 0.2122 0.0
H312 H 0.53745 0.38574 0.1739 0.0
H313 H 0.54323 0.4538 0.19729 0.0
H314 H 0.56083 0.4473 0.17448 0.0
H315 H 0.55758 0.44073 0.22159 0.0
H316 H 0.58101 0.42298 0.23764 0.0
H317 H 0.51117 0.3953 0.22869 0.0
H318 H 0.53472 0.37668 0.244 0.0
H319 H 0.48225 0.42979 0.20274 0.0
H320 H 0.52978 0.46331 0.225 0.0
H321 H 0.4603 0.45982 0.2031 0.0
H322 H 0.50755 0.4932 0.22617 0.0
H323 H 0.39265 0.55584 0.19665 0.0
H324 H 0.38518 0.56831 0.17269 0.0
H325 H 0.44977 0.56397 0.16225 0.0
H326 H 0.45714 0.55274 0.18636 0.0
H327 H 0.45541 0.58104 0.20659 0.0
H328 H 0.4513 0.61363 0.21906 0.0
H329 H 0.40056 0.58888 0.24293 0.0
H330 H 0.40464 0.55631 0.23018 0.0
H331 H 0.41792 0.51078 0.21366 0.0
H332 H 0.43993 0.48109 0.21705 0.0
H333 H 0.49363 0.51918 0.21206 0.0
N334 N 0.42919 0.54858 0.2082 0.0
H335 H 0.47144 0.54887 0.20971 0.0
C336 C 0.52995 0.4236 0.19847 0.0
C337 C 0.52852 0.40451 0.1917 0.0
C338 C 0.53878 0.40068 0.17888 0.0
C339 C 0.55054 0.416 0.17251 0.0
C340 C 0.55175 0.43529 0.17916 0.0
C341 C 0.54169 0.43902 0.19214 0.0
C342 C 0.5325 0.41937 0.22407 0.0
C343 C 0.55218 0.42728 0.22699 0.0
C344 C 0.56572 0.41686 0.236 0.0
C345 C 0.56001 0.39811 0.24199 0.0
C346 C 0.53974 0.39113 0.23982 0.0
C347 C 0.52616 0.40173 0.23101 0.0
C348 C 0.50752 0.44413 0.21393 0.0
C349 C 0.48774 0.44356 0.20799 0.0
C350 C 0.47517 0.46077 0.20831 0.0
C351 C 0.48199 0.47904 0.21479 0.0
C352 C 0.50181 0.47952 0.22095 0.0
C353 C 0.51453 0.46229 0.22043 0.0
C354 C 0.42534 0.55314 0.19336 0.0
C355 C 0.40512 0.55733 0.18909 0.0
C356 C 0.4009 0.56439 0.17535 0.0
C357 C 0.41688 0.56726 0.16547 0.0
C358 C 0.4371 0.56234 0.16962 0.0
C359 C 0.44133 0.55558 0.18344 0.0
C360 C 0.43024 0.56623 0.21747 0.0
C361 C 0.44384 0.58239 0.21482 0.0
C362 C 0.44145 0.60107 0.22197 0.0
C363 C 0.42542 0.60392 0.23186 0.0
C364 C 0.41283 0.58726 0.2352 0.0
C365 C 0.41525 0.56861 0.22805 0.0
C366 C 0.44293 0.53193 0.2112 0.0
C367 C 0.43446 0.51268 0.2135 0.0
C368 C 0.44711 0.49571 0.21529 0.0
C369 C 0.46865 0.49755 0.21454 0.0
C370 C 0.47716 0.51709 0.21279 0.0
C371 C 0.46444 0.53414 0.21128 0.0
H372 H 0.39452 0.99872 0.44524 0.0
N373 N 0.43071 0.99024 0.45721 0.0
H374 H 0.38204 0.98829 0.42139 0.0
H375 H 0.45303 0.97039 0.43608 0.0
H376 H 0.44086 0.96054 0.41253 0.0
H377 H 0.42731 0.94857 0.45516 0.0
H378 H 0.40688 0.92728 0.47061 0.0
H379 H 0.41652 0.0003 0.48296 0.0
H380 H 0.39765 0.97865 0.49937 0.0
H381 H 0.44393 0.0284 0.45901 0.0
H382 H 0.46468 0.9662 0.46071 0.0
H383 H 0.47944 0.04027 0.46035 0.0
H384 H 0.50027 0.9776 0.46069 0.0
H385 H 0.57528 0.0721 0.44122 0.0
H386 H 0.58316 0.08593 0.4178 0.0
H387 H 0.59592 0.0251 0.4019 0.0
H388 H 0.58722 0.01137 0.42534 0.0
H389 H 0.61532 0.02131 0.45438 0.0
H390 H 0.63982 0.03841 0.47011 0.0
H391 H 0.59191 0.07958 0.4844 0.0
H392 H 0.56779 0.06293 0.46785 0.0
H393 H 0.54195 0.05335 0.44136 0.0
H394 H 0.50698 0.04332 0.4457 0.0
H395 H 0.52859 0.99262 0.47085 0.0
N396 N 0.57698 0.03203 0.4489 0.0
H397 H 0.56398 0.00189 0.46527 0.0
C398 C 0.42478 0.98573 0.44255 0.0
C399 C 0.40479 0.99065 0.43805 0.0
C400 C 0.39765 0.98459 0.4245 0.0
C401 C 0.41055 0.97373 0.41512 0.0
C402 C 0.4307 0.96919 0.41947 0.0
C403 C 0.4377 0.97493 0.43305 0.0
C404 C 0.42271 0.97631 0.46763 0.0
C405 C 0.42094 0.95528 0.4648 0.0
C406 C 0.4094 0.94297 0.47383 0.0
C407 C 0.39998 0.95127 0.48614 0.0
C408 C 0.40387 0.97183 0.48972 0.0
C409 C 0.41487 0.98424 0.48045 0.0
C410 C 0.45172 0.99652 0.45945 0.0
C411 C 0.45625 0.01733 0.45965 0.0
C412 C 0.47661 0.02403 0.46024 0.0
C413 C 0.49298 0.00996 0.46025 0.0
C414 C 0.48827 0.98902 0.46081 0.0
C415 C 0.46785 0.98239 0.46066 0.0
C416 C 0.58059 0.04061 0.43498 0.0
C417 C 0.57962 0.06173 0.43267 0.0
C418 C 0.58429 0.06964 0.41927 0.0
C419 C 0.59028 0.05666 0.40795 0.0
C420 C 0.59107 0.03553 0.4103 0.0
C421 C 0.58621 0.02763 0.42368 0.0
C422 C 0.58981 0.04071 0.45999 0.0
C423 C 0.61008 0.0338 0.46111 0.0
C424 C 0.62402 0.04358 0.47022 0.0
C425 C 0.61792 0.06043 0.47865 0.0
C426 C 0.59726 0.06685 0.47795 0.0
C427 C 0.58336 0.0572 0.46862 0.0
C428 C 0.55584 0.02801 0.45267 0.0
C429 C 0.53939 0.04001 0.44775 0.0
C430 C 0.51912 0.03436 0.45047 0.0
C431 C 0.51468 0.01697 0.45857 0.0
C432 C 0.53123 0.00576 0.46423 0.0
C433 C 0.55152 0.01113 0.46118 0.0
H434 H 0.04644 0.93437 0.69489 0.0
N435 N 0.06295 0.96547 0.71128 0.0
H436 H 0.05685 0.92414 0.67097 0.0
H437 H 0.09176 0.98235 0.69514 0.0
H438 H 0.10283 0.97149 0.67107 0.0
H439 H 0.09666 0.96317 0.72716 0.0
H440 H 0.10797 0.93444 0.74156 0.0
H441 H 0.03875 0.9333 0.71912 0.0
H442 H 0.0504 0.90381 0.73245 0.0
H443 H 0.02331 0.95772 0.70208 0.0
H444 H 0.06131 0.00103 0.72498 0.0
H445 H 0.9947 0.98118 0.70295 0.0
H446 H 0.03207 0.02431 0.72686 0.0
H447 H 0.90813 0.05954 0.69484 0.0
H448 H 0.89896 0.07174 0.67099 0.0
H449 H 0.9627 0.08632 0.66333 0.0
H450 H 0.97165 0.07446 0.68705 0.0
H451 H 0.96512 0.0983 0.70699 0.0
H452 H 0.95578 0.12923 0.71983 0.0
H453 H 0.90795 0.09664 0.74184 0.0
H454 H 0.9175 0.06539 0.7288 0.0
H455 H 0.94146 0.02222 0.71234 0.0
H456 H 0.96925 0.9977 0.7159 0.0
H457 H 0.01361 0.04648 0.71254 0.0
N458 N 0.94453 0.06182 0.70771 0.0
H459 H 0.98586 0.07075 0.71004 0.0
C460 C 0.06806 0.95954 0.6968 0.0
C461 C 0.05837 0.94302 0.68978 0.0
C462 C 0.0644 0.93705 0.67605 0.0
C463 C 0.08053 0.94711 0.66918 0.0
C464 C 0.09032 0.96352 0.67617 0.0
C465 C 0.08399 0.96976 0.68984 0.0
C466 C 0.06713 0.95021 0.72183 0.0
C467 C 0.08631 0.95047 0.72867 0.0
C468 C 0.09281 0.93389 0.73672 0.0
C469 C 0.08038 0.91644 0.73785 0.0
C470 C 0.06046 0.9169 0.73187 0.0
C471 C 0.05381 0.93372 0.72405 0.0
C472 C 0.04478 0.97779 0.71319 0.0
C473 C 0.02554 0.97216 0.70748 0.0
C474 C 0.00892 0.98563 0.70817 0.0
C475 C 0.01098 0.00487 0.71485 0.0
C476 C 0.02996 0.00991 0.72128 0.0
C477 C 0.04667 0.99655 0.72036 0.0
C478 C 0.9405 0.06599 0.69283 0.0
C479 C 0.92015 0.06497 0.68787 0.0
C480 C 0.91496 0.07195 0.67425 0.0
C481 C 0.93009 0.08018 0.66533 0.0
C482 C 0.95064 0.08036 0.67005 0.0
C483 C 0.95581 0.07336 0.68364 0.0
C484 C 0.94207 0.07934 0.71701 0.0
C485 C 0.95312 0.09747 0.71491 0.0
C486 C 0.94771 0.11528 0.72228 0.0
C487 C 0.93106 0.11542 0.73181 0.0
C488 C 0.92073 0.09705 0.73446 0.0
C489 C 0.92626 0.07918 0.72713 0.0
C490 C 0.96143 0.04827 0.71073 0.0
C491 C 0.95721 0.02756 0.71258 0.0
C492 C 0.97316 0.01356 0.71449 0.0
C493 C 0.99382 0.01996 0.71435 0.0
C494 C 0.99797 0.04089 0.71291 0.0
C495 C 0.98197 0.0549 0.71128 0.0
C496 C 0.37356 0.65848 0.02906 0.0
O497 O 0.38847 0.66089 0.02052 0.0
Cd498 Cd 0.38446 0.67033 0.99592 0.0
O499 O 0.35513 0.66174 0.02497 0.0
Cd500 Cd 0.33636 0.67287 0.0032 0.0
C501 C 0.36221 0.71748 -0.00014 0.0
O502 O 0.3559 0.65118 0.98693 0.0
O503 O 0.33504 0.67211 0.97684 0.0
O504 O 0.30934 0.64964 0.0103 0.0
C505 C 0.3479 0.65771 0.97549 0.0
O506 O 0.37726 0.7067 0.9955 0.0
C507 C 0.29477 0.66247 0.00974 0.0
O508 O 0.3459 0.70913 0.00451 0.0
O509 O 0.29949 0.68047 0.00617 0.0
C510 C 0.39352 0.8752 0.2299 0.0
O511 O 0.40683 0.87537 0.23988 0.0
Cd512 Cd 0.40026 0.86442 0.26367 0.0
O513 O 0.37508 0.86957 0.23225 0.0
Cd514 Cd 0.35374 0.85877 0.25302 0.0
C515 C 0.38232 0.81581 0.25747 0.0
O516 O 0.36959 0.88252 0.26973 0.0
O517 O 0.34813 0.86186 0.27926 0.0
O518 O 0.32668 0.87979 0.2429 0.0
C519 C 0.36003 0.87702 0.28077 0.0
O520 O 0.39653 0.82738 0.26227 0.0
C521 C 0.31259 0.86648 0.24354 0.0
O522 O 0.36546 0.82329 0.25293 0.0
O523 O 0.31769 0.84915 0.24831 0.0
C524 C 0.14746 0.88584 0.48159 0.0
O525 O 0.14763 0.90004 0.49094 0.0
Cd526 Cd 0.15543 0.89592 0.51574 0.0
O527 O 0.1515 0.86754 0.48507 0.0
Cd528 Cd 0.16077 0.8489 0.50731 0.0
C529 C 0.20431 0.87629 0.51269 0.0
O530 O 0.13724 0.86653 0.52345 0.0
O531 O 0.16044 0.84823 0.53361 0.0
O532 O 0.13904 0.82029 0.49992 0.0
C533 C 0.14457 0.85931 0.53489 0.0
O534 O 0.19252 0.89067 0.51684 0.0
C535 C 0.15309 0.80692 0.50073 0.0
O536 O 0.19688 0.85969 0.50772 0.0
O537 O 0.17087 0.81314 0.50437 0.0
C538 C 0.14222 0.63232 0.77635 0.0
O539 O 0.14334 0.61841 0.76682 0.0
Cd540 Cd 0.15289 0.62301 0.74242 0.0
O541 O 0.14609 0.65081 0.77329 0.0
Cd542 Cd 0.15647 0.67027 0.75167 0.0
C543 C 0.20095 0.64336 0.74809 0.0
O544 O 0.13466 0.65226 0.73443 0.0
O545 O 0.15727 0.67227 0.72545 0.0
O546 O 0.13403 0.69836 0.7591 0.0
C547 C 0.14223 0.66032 0.72339 0.0
O548 O 0.18991 0.62878 0.74326 0.0
C549 C 0.14771 0.71206 0.75819 0.0
O550 O 0.1927 0.65978 0.7527 0.0
O551 O 0.16562 0.70622 0.75465 0.0
C552 C 0.86913 0.14199 0.47981 0.0
O553 O 0.86924 0.12805 0.48912 0.0
Cd554 Cd 0.85972 0.13274 0.51371 0.0
O555 O 0.86348 0.16003 0.48315 0.0
Cd556 Cd 0.85139 0.17892 0.50475 0.0
C557 C 0.80997 0.14867 0.50962 0.0
O558 O 0.87619 0.1636 0.52081 0.0
O559 O 0.85321 0.18184 0.53125 0.0
O560 O 0.86973 0.20801 0.49506 0.0
C561 C 0.8693 0.17107 0.53235 0.0
O562 O 0.8223 0.13572 0.51495 0.0
C563 C 0.85536 0.22078 0.49718 0.0
O564 O 0.81656 0.16485 0.50383 0.0
O565 O 0.83895 0.21403 0.50269 0.0
C566 C 0.87348 0.383 0.7236 0.0
O567 O 0.88711 0.3846 0.73332 0.0
Cd568 Cd 0.88316 0.37291 0.75726 0.0
O569 O 0.85582 0.3756 0.72634 0.0
Cd570 Cd 0.83676 0.36312 0.74765 0.0
C571 C 0.86907 0.32292 0.75119 0.0
O572 O 0.85128 0.38709 0.76504 0.0
O573 O 0.83344 0.36283 0.77391 0.0
O574 O 0.80678 0.3815 0.73877 0.0
C575 C 0.84367 0.37901 0.77603 0.0
O576 O 0.88233 0.33564 0.7559 0.0
C577 C 0.79429 0.36678 0.74002 0.0
O578 O 0.85157 0.32894 0.74674 0.0
O579 O 0.80166 0.3501 0.7445 0.0
C580 C 0.62712 0.39108 0.98213 0.0
O581 O 0.62599 0.40508 0.99159 0.0
Cd582 Cd 0.6392 0.40236 0.01543 0.0
O583 O 0.63484 0.37376 0.9851 0.0
Cd584 Cd 0.64888 0.35585 0.0064 0.0
C585 C 0.68939 0.38846 0.00869 0.0
O586 O 0.62563 0.37105 0.02378 0.0
O587 O 0.65007 0.35309 0.03275 0.0
O588 O 0.6293 0.32605 -0.00142 0.0
C589 C 0.63402 0.36367 0.0348 0.0
O590 O 0.67666 0.40163 0.01343 0.0
C591 C 0.64427 0.31365 -0.00093 0.0
O592 O 0.68329 0.37085 0.00465 0.0
O593 O 0.66164 0.32097 0.0027 0.0
C594 C 0.65112 0.13117 0.27007 0.0
O595 O 0.65136 0.11833 0.25979 0.0
Cd596 Cd 0.66181 0.12527 0.23587 0.0
O597 O 0.65637 0.14965 0.2681 0.0
Cd598 Cd 0.66775 0.17116 0.24776 0.0
C599 C 0.7107 0.14254 0.24298 0.0
O600 O 0.64469 0.1561 0.23019 0.0
O601 O 0.6678 0.17556 0.22141 0.0
O602 O 0.64686 0.19842 0.25817 0.0
C603 C 0.65208 0.16452 0.21927 0.0
O604 O 0.69914 0.12944 0.23681 0.0
C605 C 0.66026 0.21231 0.25681 0.0
O606 O 0.70317 0.15845 0.24892 0.0
O607 O 0.67748 0.20696 0.2516 0.0
C608 C 0.1347 0.9209 0.25244 0.0
C609 C 0.13751 0.94124 0.25708 0.0
C610 C 0.15092 0.90994 0.24623 0.0
C611 C 0.20173 0.91462 0.22933 0.0
H612 H 0.21781 0.86878 0.25261 0.0
C613 C 0.28571 0.89167 0.23656 0.0
C614 C 0.29104 0.87154 0.23987 0.0
C615 C 0.26517 0.89721 0.23471 0.0
C616 C 0.2134 0.88115 0.24568 0.0
H617 H 0.1597 0.96606 0.25802 0.0
H618 H 0.18724 0.94732 0.24664 0.0
H619 H 0.18401 0.88406 0.25577 0.0
H620 H 0.27906 0.84113 0.24301 0.0
H621 H 0.24309 0.85068 0.23943 0.0
H622 H 0.2312 0.91209 0.21943 0.0
C623 C 0.17252 0.93986 0.2479 0.0
C624 C 0.19399 0.88992 0.24754 0.0
C625 C 0.15654 0.95066 0.25439 0.0
C626 C 0.27542 0.85681 0.24058 0.0
C627 C 0.2548 0.86232 0.2386 0.0
C628 C 0.22101 0.90568 0.22732 0.0
C629 C 0.17009 0.91925 0.24417 0.0
C630 C 0.18833 0.90724 0.23979 0.0
C631 C 0.24937 0.88271 0.23598 0.0
C632 C 0.22747 0.8894 0.23592 0.0
H633 H 0.12019 0.9132 0.25398 0.0
H634 H 0.14866 0.89406 0.24336 0.0
H635 H 0.19761 0.92786 0.22313 0.0
H636 H 0.29736 0.90341 0.23595 0.0
H637 H 0.26169 0.91311 0.23296 0.0
C638 C 0.12307 0.62389 0.50905 0.0
C639 C 0.10194 0.61952 0.50988 0.0
C640 C 0.12981 0.64312 0.50495 0.0
C641 C 0.11351 0.69208 0.48895 0.0
H642 H 0.15538 0.71457 0.51424 0.0
C643 C 0.12845 0.77841 0.49569 0.0
C644 C 0.14868 0.78505 0.49829 0.0
C645 C 0.12395 0.75763 0.49468 0.0
C646 C 0.14397 0.70846 0.50688 0.0
H647 H 0.07138 0.63162 0.50615 0.0
H648 H 0.08315 0.66539 0.49931 0.0
H649 H 0.14531 0.67917 0.51651 0.0
H650 H 0.18022 0.77512 0.50119 0.0
H651 H 0.17242 0.73886 0.49923 0.0
H652 H 0.1119 0.72165 0.47955 0.0
C653 C 0.09451 0.65385 0.50173 0.0
C654 C 0.13817 0.68812 0.50819 0.0
C655 C 0.08775 0.63456 0.5058 0.0
C656 C 0.16445 0.77049 0.49929 0.0
C657 C 0.15996 0.74971 0.49824 0.0
C658 C 0.11934 0.71249 0.48763 0.0
C659 C 0.11561 0.65851 0.50165 0.0
C660 C 0.12272 0.67973 0.49935 0.0
C661 C 0.13959 0.74302 0.49622 0.0
C662 C 0.13447 0.72097 0.4967 0.0
H663 H 0.13447 0.6128 0.51225 0.0
H664 H 0.14618 0.64612 0.50478 0.0
H665 H 0.10172 0.686 0.48188 0.0
H666 H 0.11595 0.78925 0.49487 0.0
H667 H 0.10808 0.75303 0.49327 0.0
C668 C 0.38696 0.62571 0.76785 0.0
C669 C 0.39272 0.60507 0.76743 0.0
C670 C 0.36726 0.63165 0.7636 0.0
C671 C 0.32069 0.61501 0.74392 0.0
H672 H 0.29226 0.64989 0.77117 0.0
C673 C 0.23254 0.62201 0.74489 0.0
C674 C 0.22359 0.64086 0.74854 0.0
C675 C 0.25379 0.61929 0.74568 0.0
C676 C 0.30004 0.64047 0.76329 0.0
H677 H 0.38272 0.57462 0.76152 0.0
H678 H 0.34822 0.58499 0.75413 0.0
H679 H 0.32853 0.64227 0.77475 0.0
H680 H 0.23011 0.67183 0.75554 0.0
H681 H 0.26731 0.66716 0.75671 0.0
H682 H 0.29215 0.61305 0.73252 0.0
C683 C 0.35898 0.59658 0.75772 0.0
C684 C 0.32084 0.63607 0.76536 0.0
C685 C 0.37866 0.59061 0.76205 0.0
C686 C 0.23648 0.65706 0.75276 0.0
C687 C 0.2578 0.65436 0.75348 0.0
C688 C 0.2999 0.61951 0.74179 0.0
C689 C 0.35292 0.6171 0.75878 0.0
C690 C 0.33132 0.62306 0.75582 0.0
C691 C 0.2667 0.63538 0.75006 0.0
C692 C 0.28922 0.63202 0.75159 0.0
H693 H 0.39735 0.63721 0.77209 0.0
H694 H 0.36309 0.6476 0.76439 0.0
H695 H 0.32844 0.60515 0.73629 0.0
H696 H 0.2231 0.60916 0.74164 0.0
H697 H 0.26004 0.60437 0.74321 0.0
C698 C 0.41122 0.89262 0.02287 0.0
C699 C 0.42978 0.8953 0.01545 0.0
C700 C 0.39769 0.87695 0.01898 0.0
C701 C 0.38793 0.83583 0.99167 0.0
H702 H 0.37191 0.80497 0.02493 0.0
C703 C 0.37966 0.74902 0.99151 0.0
C704 C 0.36404 0.73994 -0.0004 0.0
C705 C 0.38239 0.77008 0.99179 0.0
C706 C 0.37584 0.81357 0.01551 0.0
H707 H 0.44763 0.88485 0.99725 0.0
H708 H 0.42454 0.85712 0.9908 0.0
H709 H 0.38594 0.83901 0.0281 0.0
H710 H 0.3386 0.74597 0.01397 0.0
H711 H 0.34367 0.78295 0.01465 0.0
H712 H 0.3789 0.8097 0.97919 0.0
C713 C 0.42025 0.86718 -0.00044 0.0
C714 C 0.38386 0.83316 0.01731 0.0
C715 C 0.43367 0.88296 0.00337 0.0
C716 C 0.35081 0.7525 0.00766 0.0
C717 C 0.35372 0.77364 0.00807 0.0
C718 C 0.38004 0.81615 0.98989 0.0
C719 C 0.40249 0.86348 0.00767 0.0
C720 C 0.39061 0.84431 0.00545 0.0
C721 C 0.3697 0.7826 0.00026 0.0
C722 C 0.37451 0.8046 0.00183 0.0
H723 H 0.4077 0.90174 0.03228 0.0
H724 H 0.38394 0.87482 0.02528 0.0
H725 H 0.39257 0.84412 0.98228 0.0
H726 H 0.39003 0.73982 0.9851 0.0
H727 H 0.39501 0.77649 0.98581 0.0
C728 C 0.11806 0.60169 0.00202 0.0
C729 C 0.12119 0.58115 0.998 0.0
C730 C 0.13422 0.61337 0.00772 0.0
C731 C 0.18589 0.61054 0.02404 0.0
H732 H 0.19948 0.65621 -4e-05 0.0
C733 C 0.26875 0.63592 0.01549 0.0
C734 C 0.27331 0.65636 0.01262 0.0
C735 C 0.24845 0.62963 0.01725 0.0
C736 C 0.19576 0.64387 0.00707 0.0
H737 H 0.14392 0.55679 0.99758 0.0
H738 H 0.17141 0.57679 0.00804 0.0
H739 H 0.16601 0.63986 0.99751 0.0
H740 H 0.26018 0.68644 0.0099 0.0
H741 H 0.2246 0.67548 0.01319 0.0
H742 H 0.21576 0.61411 0.03337 0.0
C743 C 0.15647 0.58386 0.00672 0.0
C744 C 0.17654 0.6345 0.00565 0.0
C745 C 0.14053 0.57233 0.00077 0.0
C746 C 0.25714 0.67054 0.01202 0.0
C747 C 0.23675 0.66425 0.01385 0.0
C748 C 0.20499 0.62004 0.02559 0.0
C749 C 0.15368 0.60462 0.00985 0.0
C750 C 0.17177 0.61725 0.01372 0.0
C751 C 0.23214 0.64364 0.01629 0.0
C752 C 0.21051 0.63626 0.01669 0.0
H753 H 0.10331 0.60897 0.00038 0.0
H754 H 0.13167 0.62935 0.01014 0.0
H755 H 0.18247 0.59739 0.0305 0.0
H756 H 0.28083 0.62459 0.016 0.0
H757 H 0.24554 0.61358 0.01882 0.0
C758 C 0.43608 0.63832 0.24155 0.0
C759 C 0.42046 0.62466 0.2374 0.0
C760 C 0.43131 0.65845 0.24537 0.0
C761 C 0.39218 0.69742 0.2387 0.0
H762 H 0.41769 0.72629 0.27054 0.0
C763 C 0.36974 0.78015 0.25291 0.0
C764 C 0.38576 0.79349 0.25679 0.0
C765 C 0.37328 0.75918 0.25175 0.0
C766 C 0.41058 0.7185 0.26152 0.0
H767 H 0.38754 0.62138 0.23421 0.0
H768 H 0.37926 0.65633 0.24102 0.0
H769 H 0.42545 0.69027 0.26647 0.0
H770 H 0.41805 0.79518 0.26265 0.0
H771 H 0.42431 0.75878 0.26032 0.0
H772 H 0.3777 0.7256 0.23347 0.0
C773 C 0.3952 0.65152 0.24126 0.0
C774 C 0.415 0.69787 0.25922 0.0
C775 C 0.39994 0.63142 0.23753 0.0
C776 C 0.40532 0.78535 0.25969 0.0
C777 C 0.40889 0.76441 0.25844 0.0
C778 C 0.38786 0.71805 0.24093 0.0
C779 C 0.41084 0.66536 0.24499 0.0
C780 C 0.40587 0.68712 0.24776 0.0
C781 C 0.39296 0.75106 0.25435 0.0
C782 C 0.39705 0.72889 0.25234 0.0
H783 H 0.45202 0.63353 0.24163 0.0
H784 H 0.44372 0.6688 0.24813 0.0
H785 H 0.38516 0.68964 0.22963 0.0
H786 H 0.35444 0.78588 0.2507 0.0
H787 H 0.36055 0.74932 0.24882 0.0
C788 C 0.36691 0.9493 0.49982 0.0
C789 C 0.38429 0.93936 0.49411 0.0
C790 C 0.35069 0.93819 0.5055 0.0
C791 C 0.32375 0.89146 0.49946 0.0
H792 H 0.29332 0.90808 0.53322 0.0
C793 C 0.24059 0.86375 0.50928 0.0
C794 C 0.22688 0.87927 0.51349 0.0
C795 C 0.26186 0.86711 0.50961 0.0
C796 C 0.30162 0.90324 0.52375 0.0
H797 H 0.39852 0.9097 0.49085 0.0
H798 H 0.36952 0.8903 0.50016 0.0
H799 H 0.32788 0.92136 0.52941 0.0
H800 H 0.22486 0.91033 0.52161 0.0
H801 H 0.26158 0.91628 0.52186 0.0
H802 H 0.29704 0.87449 0.49324 0.0
C803 C 0.36876 0.90678 0.50026 0.0
C804 C 0.32144 0.91073 0.52164 0.0
C805 C 0.38527 0.91794 0.49483 0.0
C806 C 0.23492 0.89801 0.5183 0.0
C807 C 0.25608 0.90136 0.51859 0.0
C808 C 0.30381 0.88412 0.50148 0.0
C809 C 0.35119 0.91684 0.5054 0.0
C810 C 0.33239 0.90548 0.50923 0.0
C811 C 0.26984 0.88604 0.51416 0.0
C812 C 0.29221 0.89057 0.51338 0.0
H813 H 0.36515 0.96565 0.49922 0.0
H814 H 0.33718 0.94633 0.50918 0.0
H815 H 0.33183 0.8873 0.48974 0.0
H816 H 0.23491 0.84909 0.5056 0.0
H817 H 0.27204 0.85493 0.50623 0.0
C818 C 0.07633 0.88326 0.751 0.0
C819 C 0.08893 0.89723 0.74384 0.0
C820 C 0.08396 0.86418 0.75496 0.0
C821 C 0.12512 0.82802 0.7447 0.0
H822 H 0.10753 0.79875 0.77827 0.0
C823 C 0.15745 0.74889 0.75722 0.0
C824 C 0.14267 0.73391 0.7601 0.0
C825 C 0.15207 0.7695 0.75735 0.0
C826 C 0.11254 0.80676 0.76885 0.0
H827 H 0.1198 0.90208 0.73574 0.0
H828 H 0.13322 0.86956 0.74326 0.0
H829 H 0.09605 0.83384 0.77476 0.0
H830 H 0.11091 0.72885 0.76609 0.0
H831 H 0.10153 0.76487 0.76632 0.0
H832 H 0.14148 0.80101 0.73873 0.0
C833 C 0.11727 0.87306 0.74548 0.0
C834 C 0.10592 0.82683 0.7668 0.0
C835 C 0.10961 0.89197 0.74138 0.0
C836 C 0.12264 0.74003 0.76379 0.0
C837 C 0.11729 0.76067 0.76399 0.0
C838 C 0.13183 0.8081 0.7468 0.0
C839 C 0.10442 0.85868 0.75195 0.0
C840 C 0.11205 0.83767 0.75465 0.0
C841 C 0.13182 0.77558 0.76043 0.0
C842 C 0.12553 0.79718 0.75883 0.0
H843 H 0.06043 0.88686 0.75328 0.0
H844 H 0.07358 0.85348 0.75987 0.0
H845 H 0.12977 0.83565 0.73503 0.0
H846 H 0.17304 0.74469 0.7544 0.0
H847 H 0.16367 0.78067 0.75475 0.0
C848 C 0.63117 0.44346 0.74851 0.0
C849 C 0.61827 0.43611 0.75932 0.0
C850 C 0.64646 0.43106 0.74259 0.0
C851 C 0.67807 0.38752 0.75365 0.0
H852 H 0.70397 0.39611 0.71694 0.0
C853 C 0.75791 0.35456 0.74173 0.0
C854 C 0.77201 0.36948 0.73744 0.0
C855 C 0.73676 0.35839 0.74117 0.0
C856 C 0.69682 0.39345 0.72719 0.0
H857 H 0.61012 0.40919 0.77131 0.0
H858 H 0.63601 0.38736 0.76047 0.0
H859 H 0.66975 0.41011 0.72147 0.0
H860 H 0.77499 0.39952 0.72828 0.0
H861 H 0.73816 0.40618 0.72731 0.0
H862 H 0.7053 0.37135 0.7595 0.0
C863 C 0.63484 0.40297 0.75695 0.0
C864 C 0.67726 0.40153 0.72982 0.0
C865 C 0.61972 0.41546 0.76303 0.0
C866 C 0.76452 0.38776 0.73174 0.0
C867 C 0.74339 0.39152 0.73108 0.0
C868 C 0.69748 0.3793 0.75097 0.0
C869 C 0.64905 0.41089 0.74718 0.0
C870 C 0.66793 0.39924 0.74327 0.0
C871 C 0.72932 0.37713 0.73619 0.0
C872 C 0.70735 0.38273 0.73789 0.0
H873 H 0.63016 0.45915 0.74513 0.0
H874 H 0.65707 0.43779 0.73511 0.0
H875 H 0.67165 0.38568 0.76422 0.0
H876 H 0.7632 0.34028 0.7461 0.0
H877 H 0.72625 0.34695 0.74507 0.0
C878 C 0.62228 0.12937 0.00648 0.0
C879 C 0.60128 0.12423 0.00668 0.0
C880 C 0.62858 0.14881 0.0025 0.0
C881 C 0.61137 0.19707 0.98583 0.0
H882 H 0.65089 0.22131 0.01215 0.0
C883 C 0.62156 0.28389 0.99325 0.0
C884 C 0.64127 0.29159 0.99635 0.0
C885 C 0.61827 0.26291 0.99202 0.0
C886 C 0.64015 0.21472 0.00451 0.0
H887 H 0.57057 0.13519 0.00193 0.0
H888 H 0.58153 0.1693 0.9953 0.0
H889 H 0.64222 0.18551 0.0142 0.0
H890 H 0.67315 0.28336 -6e-05 0.0
H891 H 0.66744 0.24672 0.99763 0.0
H892 H 0.60896 0.22656 0.97639 0.0
C893 C 0.59314 0.15822 -0.00187 0.0
C894 C 0.63516 0.19414 0.00568 0.0
C895 C 0.58683 0.13872 0.00208 0.0
C896 C 0.65776 0.2779 0.99763 0.0
C897 C 0.65447 0.2569 0.99638 0.0
C898 C 0.61638 0.21771 0.98464 0.0
C899 C 0.61405 0.16366 -0.00131 0.0
C900 C 0.62052 0.18511 0.99649 0.0
C901 C 0.6346 0.24914 0.99384 0.0
C902 C 0.63062 0.22684 0.99411 0.0
H903 H 0.63386 0.11873 0.0101 0.0
H904 H 0.64483 0.1524 0.00283 0.0
H905 H 0.60022 0.19051 0.97846 0.0
H906 H 0.60852 0.29404 0.99219 0.0
H907 H 0.60274 0.25748 0.99021 0.0
C908 C 0.88256 0.07613 0.26499 0.0
C909 C 0.89887 0.09014 0.26609 0.0
C910 C 0.86309 0.08234 0.26038 0.0
C911 C 0.83179 0.12952 0.2568 0.0
H912 H 0.79315 0.09206 0.239 0.0
C913 C 0.74493 0.14672 0.25499 0.0
C914 C 0.73306 0.13867 0.2437 0.0
C915 C 0.76573 0.14167 0.25628 0.0
C916 C 0.80377 0.10292 0.24374 0.0
H917 H 0.90741 0.12166 0.26241 0.0
H918 H 0.87414 0.13199 0.25342 0.0
H919 H 0.82849 0.08153 0.2426 0.0
H920 H 0.73381 0.11983 0.22451 0.0
H921 H 0.77026 0.11185 0.22629 0.0
H922 H 0.80735 0.15123 0.25734 0.0
C923 C 0.8761 0.11636 0.25671 0.0
C924 C 0.82406 0.09671 0.24605 0.0
C925 C 0.89543 0.11026 0.26161 0.0
C926 C 0.74255 0.12608 0.23343 0.0
C927 C 0.76344 0.12138 0.23453 0.0
C928 C 0.81162 0.13587 0.25423 0.0
C929 C 0.85947 0.10266 0.25643 0.0
C930 C 0.83829 0.10979 0.25284 0.0
C931 C 0.77527 0.12879 0.24612 0.0
C932 C 0.7972 0.12254 0.2479 0.0
H933 H 0.88463 0.0604 0.26801 0.0
H934 H 0.85074 0.0713 0.26044 0.0
H935 H 0.84209 0.14001 0.26225 0.0
H936 H 0.73797 0.15634 0.26314 0.0
H937 H 0.77412 0.14742 0.2655 0.0
C938 C 0.93472 0.38213 0.49613 0.0
C939 C 0.9291 0.3955 0.50732 0.0
C940 C 0.92132 0.36677 0.49147 0.0
C941 C 0.87932 0.33657 0.5067 0.0
H942 H 0.88247 0.30809 0.47019 0.0
C943 C 0.84394 0.25715 0.49922 0.0
C944 C 0.85818 0.24266 0.49419 0.0
C945 C 0.84793 0.27797 0.49793 0.0
C946 C 0.88133 0.31597 0.48041 0.0
H947 H 0.90393 0.40444 0.52128 0.0
H948 H 0.88028 0.37856 0.51257 0.0
H949 H 0.89723 0.34219 0.47273 0.0
H950 H 0.88709 0.23859 0.48303 0.0
H951 H 0.89403 0.27489 0.48077 0.0
H952 H 0.86389 0.31023 0.51446 0.0
C953 C 0.8954 0.37935 0.50781 0.0
C954 C 0.88985 0.33546 0.48189 0.0
C955 C 0.90893 0.39448 0.51265 0.0
C956 C 0.87588 0.24939 0.48709 0.0
C957 C 0.87978 0.27019 0.48569 0.0
C958 C 0.87064 0.31724 0.50516 0.0
C959 C 0.90181 0.36463 0.49772 0.0
C960 C 0.88955 0.34574 0.4952 0.0
C961 C 0.86613 0.28469 0.49144 0.0
C962 C 0.87212 0.30647 0.49214 0.0
H963 H 0.94992 0.3828 0.49148 0.0
H964 H 0.92689 0.3558 0.48366 0.0
H965 H 0.87906 0.34371 0.5172 0.0
H966 H 0.83011 0.25244 0.50468 0.0
H967 H 0.83707 0.28882 0.50236 0.0
C968 C 0.63275 0.09339 0.48822 0.0
C969 C 0.63356 0.072 0.48717 0.0
C970 C 0.64905 0.10437 0.49434 0.0
C971 C 0.69977 0.09779 0.51341 0.0
H972 H 0.71291 0.14772 0.49383 0.0
C973 C 0.77882 0.13522 0.52172 0.0
C974 C 0.78776 0.1444 0.5098 0.0
C975 C 0.75804 0.12985 0.52155 0.0
C976 C 0.70968 0.13367 0.49931 0.0
H977 H 0.65148 0.04543 0.49296 0.0
H978 H 0.6803 0.06436 0.50249 0.0
H979 H 0.68044 0.13109 0.48909 0.0
H980 H 0.78216 0.15546 0.48843 0.0
H981 H 0.74641 0.1448 0.48759 0.0
H982 H 0.72979 0.09916 0.52249 0.0
C983 C 0.667 0.07286 0.49895 0.0
C984 C 0.6907 0.12429 0.49682 0.0
C985 C 0.65052 0.06189 0.49318 0.0
C986 C 0.77553 0.1485 0.4978 0.0
C987 C 0.75492 0.14252 0.49741 0.0
C988 C 0.71899 0.10681 0.51556 0.0
C989 C 0.66679 0.0943 0.49928 0.0
C990 C 0.68566 0.1059 0.50355 0.0
C991 C 0.74588 0.13284 0.50923 0.0
C992 C 0.72446 0.12465 0.50827 0.0
H993 H 0.62 0.10179 0.48371 0.0
H994 H 0.64795 0.12082 0.49475 0.0
H995 H 0.69633 0.08403 0.51918 0.0
H996 H 0.78793 0.13217 0.53119 0.0
H997 H 0.75167 0.12307 0.53104 0.0
C998 C 0.90209 0.13942 0.73718 0.0
C999 C 0.92325 0.13506 0.73766 0.0
C1000 C 0.89488 0.15888 0.7407 0.0
C1001 C 0.90884 0.20785 0.75818 0.0
H1002 H 0.87139 0.23078 0.73027 0.0
C1003 C 0.89404 0.29422 0.75439 0.0
C1004 C 0.87411 0.3009 0.75093 0.0
C1005 C 0.8989 0.2735 0.75404 0.0
C1006 C 0.88156 0.22455 0.73831 0.0
H1007 H 0.95329 0.14734 0.74299 0.0
H1008 H 0.9407 0.1814 0.74906 0.0
H1009 H 0.88163 0.19523 0.72809 0.0
H1010 H 0.84354 0.29094 0.74463 0.0
H1011 H 0.85194 0.25476 0.74425 0.0
H1012 H 0.90889 0.23725 0.76835 0.0
C1013 C 0.92969 0.16975 0.74599 0.0
C1014 C 0.88744 0.20415 0.73706 0.0
C1015 C 0.93692 0.1503 0.74241 0.0
C1016 C 0.85908 0.28634 0.74726 0.0
C1017 C 0.86392 0.26559 0.74698 0.0
C1018 C 0.90288 0.22826 0.75949 0.0
C1019 C 0.90865 0.17439 0.74482 0.0
C1020 C 0.90131 0.19563 0.74688 0.0
C1021 C 0.88392 0.25892 0.7503 0.0
C1022 C 0.88935 0.23692 0.74946 0.0
H1023 H 0.89117 0.12809 0.73343 0.0
H1024 H 0.87855 0.16194 0.73986 0.0
H1025 H 0.91938 0.20164 0.766 0.0
H1026 H 0.90602 0.30502 0.75722 0.0
H1027 H 0.91454 0.26895 0.75643 0.0
C1028 C 0.86096 0.44403 0.97637 0.0
C1029 C 0.87783 0.4382 0.98485 0.0
C1030 C 0.84091 0.43966 0.98058 0.0
C1031 C 0.81148 0.404 0.00241 0.0
H1032 H 0.76704 0.44215 0.99571 0.0
C1033 C 0.71831 0.4132 0.01243 0.0
C1034 C 0.71144 0.39396 0.00766 0.0
C1035 C 0.73891 0.41877 0.01105 0.0
C1036 C 0.77928 0.43138 0.9978 0.0
H1037 H 0.88671 0.42377 0.0047 0.0
H1038 H 0.85156 0.41607 0.01205 0.0
H1039 H 0.80238 0.45246 0.99129 0.0
H1040 H 0.72104 0.36534 0.99793 0.0
H1041 H 0.75699 0.37519 0.99536 0.0
H1042 H 0.78832 0.38292 0.00895 0.0
C1043 C 0.85397 0.42384 0.00204 0.0
C1044 C 0.79952 0.43723 0.99513 0.0
C1045 C 0.87409 0.42828 0.99784 0.0
C1046 C 0.72579 0.38028 0.00171 0.0
C1047 C 0.74643 0.38588 0.00032 0.0
C1048 C 0.7912 0.39812 0.00506 0.0
C1049 C 0.83717 0.42929 0.99337 0.0
C1050 C 0.81584 0.42355 0.99725 0.0
C1051 C 0.75318 0.40527 0.00485 0.0
C1052 C 0.77485 0.41169 0.00266 0.0
H1053 H 0.86324 0.45127 0.96615 0.0
H1054 H 0.82835 0.44377 0.97353 0.0
H1055 H 0.82369 0.39303 0.00403 0.0
H1056 H 0.70774 0.42408 0.01717 0.0
H1057 H 0.74366 0.4337 0.01484 0.0
C1058 C 0.59573 0.38346 0.24319 0.0
C1059 C 0.57564 0.38451 0.2487 0.0
C1060 C 0.60923 0.3681 0.24744 0.0
C1061 C 0.61548 0.32419 0.27248 0.0
H1062 H 0.64378 0.30027 0.23993 0.0
C1063 C 0.63682 0.23912 0.26682 0.0
C1064 C 0.65538 0.23389 0.26005 0.0
C1065 C 0.63087 0.2595 0.26822 0.0
C1066 C 0.63633 0.30693 0.24922 0.0
H1067 H 0.55488 0.37124 0.26413 0.0
H1068 H 0.57788 0.34385 0.27088 0.0
H1069 H 0.62662 0.33279 0.23742 0.0
H1070 H 0.68278 0.24601 0.25013 0.0
H1071 H 0.67225 0.28164 0.25244 0.0
H1072 H 0.62431 0.29742 0.28394 0.0
C1073 C 0.58339 0.35504 0.26341 0.0
C1074 C 0.6265 0.3257 0.24782 0.0
C1075 C 0.57001 0.37064 0.25935 0.0
C1076 C 0.66835 0.24954 0.25535 0.0
C1077 C 0.66231 0.26993 0.25662 0.0
C1078 C 0.62514 0.30524 0.27382 0.0
C1079 C 0.60291 0.35311 0.25709 0.0
C1080 C 0.61558 0.33444 0.25933 0.0
C1081 C 0.64328 0.27508 0.26276 0.0
C1082 C 0.63534 0.29626 0.26212 0.0
H1083 H 0.60074 0.39372 0.23493 0.0
H1084 H 0.62434 0.36748 0.24264 0.0
H1085 H 0.60758 0.33058 0.28167 0.0
H1086 H 0.62652 0.22741 0.27061 0.0
H1087 H 0.61605 0.26298 0.27289 0.0
C1088 C 0.0906 0.94123 0.36371 0.0
C1089 C 0.10612 0.94382 0.35346 0.0
C1090 C 0.09512 0.93252 0.37694 0.0
C1091 C 0.13797 0.92648 0.40188 0.0
H1092 H 0.10257 0.88759 0.42065 0.0
C1093 C 0.14271 0.91126 0.46216 0.0
C1094 C 0.14279 0.89084 0.46651 0.0
C1095 C 0.13855 0.91619 0.44796 0.0
C1096 C 0.11266 0.89833 0.41547 0.0
H1097 H 0.13832 0.9382 0.34882 0.0
H1098 H 0.14622 0.9234 0.37197 0.0
H1099 H 0.0945 0.89842 0.39625 0.0
H1100 H 0.13831 0.85958 0.45937 0.0
H1101 H 0.13074 0.86832 0.43448 0.0
H1102 H 0.15595 0.92667 0.42111 0.0
C1103 C 0.13063 0.92835 0.36982 0.0
C1104 C 0.10796 0.90463 0.40158 0.0
C1105 C 0.1261 0.93691 0.35658 0.0
C1106 C 0.13842 0.87545 0.45634 0.0
C1107 C 0.13399 0.88043 0.44213 0.0
C1108 C 0.14252 0.92036 0.41578 0.0
C1109 C 0.11527 0.92633 0.38022 0.0
C1110 C 0.12053 0.91885 0.39469 0.0
C1111 C 0.13416 0.90085 0.43781 0.0
C1112 C 0.12983 0.90636 0.42276 0.0
H1113 H 0.07509 0.94654 0.36171 0.0
H1114 H 0.08301 0.93132 0.3848 0.0
H1115 H 0.14783 0.93759 0.39689 0.0
H1116 H 0.14603 0.9235 0.46969 0.0
H1117 H 0.13855 0.93207 0.44496 0.0
C1118 C 0.11944 0.59417 0.60106 0.0
C1119 C 0.10329 0.5801 0.5995 0.0
C1120 C 0.12335 0.60359 0.61427 0.0
C1121 C 0.09882 0.6157 0.649 0.0
H1122 H 0.155 0.62409 0.66181 0.0
C1123 C 0.12024 0.63921 0.70695 0.0
C1124 C 0.13624 0.65337 0.70886 0.0
C1125 C 0.1156 0.63142 0.69333 0.0
C1126 C 0.13923 0.62209 0.6583 0.0
H1127 H 0.07888 0.5645 0.61066 0.0
H1128 H 0.08583 0.58076 0.63378 0.0
H1129 H 0.14846 0.60767 0.63871 0.0
H1130 H 0.15951 0.67097 0.69795 0.0
H1131 H 0.15133 0.65739 0.67417 0.0
H1132 H 0.08963 0.6299 0.66871 0.0
C1133 C 0.09522 0.58484 0.62472 0.0
C1134 C 0.13547 0.61268 0.64506 0.0
C1135 C 0.09127 0.57548 0.61149 0.0
C1136 C 0.14713 0.66 0.69683 0.0
C1137 C 0.14255 0.65214 0.68323 0.0
C1138 C 0.10258 0.62505 0.66226 0.0
C1139 C 0.11123 0.59911 0.62625 0.0
C1140 C 0.11522 0.60931 0.64027 0.0
C1141 C 0.1269 0.63758 0.68136 0.0
C1142 C 0.12283 0.6283 0.66707 0.0
H1143 H 0.12876 0.59829 0.59197 0.0
H1144 H 0.1356 0.61472 0.61503 0.0
H1145 H 0.08304 0.61367 0.64552 0.0
H1146 H 0.11157 0.6338 0.716 0.0
H1147 H 0.10357 0.62009 0.69226 0.0
C1148 C 0.41985 0.62635 0.85612 0.0
C1149 C 0.43381 0.61002 0.85544 0.0
C1150 C 0.40981 0.63121 0.86889 0.0
C1151 C 0.3956 0.60944 0.90382 0.0
H1152 H 0.38732 0.66602 0.91474 0.0
C1153 C 0.36983 0.63494 0.96031 0.0
C1154 C 0.35553 0.65093 0.96134 0.0
C1155 C 0.3782 0.62938 0.94709 0.0
C1156 C 0.38928 0.65015 0.91174 0.0
H1157 H 0.44848 0.58622 0.8677 0.0
H1158 H 0.43117 0.59486 0.89008 0.0
H1159 H 0.40487 0.65772 0.89243 0.0
H1160 H 0.33836 0.67333 0.94927 0.0
H1161 H 0.35302 0.66356 0.92614 0.0
H1162 H 0.38026 0.60192 0.92328 0.0
C1163 C 0.42766 0.60367 0.88066 0.0
C1164 C 0.39935 0.64538 0.89896 0.0
C1165 C 0.43764 0.59876 0.86786 0.0
C1166 C 0.3494 0.66095 0.94882 0.0
C1167 C 0.35787 0.65546 0.9356 0.0
C1168 C 0.38561 0.61421 0.91664 0.0
C1169 C 0.41355 0.6199 0.88131 0.0
C1170 C 0.40269 0.62496 0.89486 0.0
C1171 C 0.37252 0.63975 0.93462 0.0
C1172 C 0.3824 0.63462 0.92076 0.0
H1173 H 0.4163 0.6351 0.84667 0.0
H1174 H 0.3988 0.64359 0.86894 0.0
H1175 H 0.39758 0.59356 0.90087 0.0
H1176 H 0.37485 0.62692 0.96975 0.0
H1177 H 0.38959 0.61733 0.94671 0.0
C1178 C 0.44014 0.91184 0.10633 0.0
C1179 C 0.45462 0.92745 0.1045 0.0
C1180 C 0.43206 0.90798 0.11985 0.0
C1181 C 0.44588 0.91053 0.1572 0.0
H1182 H 0.3876 0.9045 0.16464 0.0
C1183 C 0.41664 0.89492 0.21394 0.0
C1184 C 0.3995 0.88216 0.21552 0.0
C1185 C 0.42245 0.90163 0.20045 0.0
C1186 C 0.40395 0.90582 0.16272 0.0
H1187 H 0.47182 0.95146 0.11518 0.0
H1188 H 0.45802 0.94437 0.139 0.0
H1189 H 0.39912 0.91432 0.14086 0.0
H1190 H 0.375 0.86637 0.2042 0.0
H1191 H 0.38566 0.87729 0.18051 0.0
H1192 H 0.451 0.90116 0.17869 0.0
C1193 C 0.45282 0.93529 0.12993 0.0
C1194 C 0.41049 0.9116 0.14913 0.0
C1195 C 0.4606 0.93941 0.11635 0.0
C1196 C 0.38825 0.87626 0.20331 0.0
C1197 C 0.3943 0.88267 0.18974 0.0
C1198 C 0.43939 0.9044 0.1707 0.0
C1199 C 0.43862 0.91943 0.1318 0.0
C1200 C 0.43151 0.91404 0.14628 0.0
C1201 C 0.41153 0.89542 0.18812 0.0
C1202 C 0.41833 0.902 0.17368 0.0
H1203 H 0.43524 0.90249 0.09731 0.0
H1204 H 0.42123 0.89559 0.12104 0.0
H1205 H 0.4622 0.91199 0.15519 0.0
H1206 H 0.42547 0.89997 0.22319 0.0
H1207 H 0.43547 0.91183 0.19974 0.0
C1208 C 0.11509 0.57626 0.89966 0.0
C1209 C 0.09468 0.57037 0.90233 0.0
C1210 C 0.12047 0.58478 0.88659 0.0
C1211 C 0.09956 0.61064 0.85492 0.0
H1212 H 0.14764 0.58836 0.83594 0.0
C1213 C 0.13215 0.6417 0.80155 0.0
C1214 C 0.13678 0.62672 0.79116 0.0
C1215 C 0.12718 0.63614 0.81553 0.0
C1216 C 0.13418 0.59473 0.84112 0.0
H1217 H 0.06389 0.56908 0.89331 0.0
H1218 H 0.0733 0.58418 0.87053 0.0
H1219 H 0.13842 0.57643 0.85968 0.0
H1220 H 0.13985 0.59416 0.78736 0.0
H1221 H 0.13135 0.58458 0.81167 0.0
H1222 H 0.0952 0.62873 0.8362 0.0
C1223 C 0.08507 0.5823 0.87864 0.0
C1224 C 0.12901 0.58804 0.85475 0.0
C1225 C 0.0797 0.57364 0.89169 0.0
C1226 C 0.13636 0.60611 0.79507 0.0
C1227 C 0.13162 0.6006 0.80903 0.0
C1228 C 0.10486 0.6175 0.84132 0.0
C1229 C 0.10556 0.58775 0.8759 0.0
C1230 C 0.11152 0.59574 0.86173 0.0
C1231 C 0.12701 0.61552 0.81941 0.0
C1232 C 0.12207 0.60939 0.83421 0.0
H1233 H 0.12694 0.5744 0.90772 0.0
H1234 H 0.13633 0.58911 0.88485 0.0
H1235 H 0.08609 0.61696 0.86011 0.0
H1236 H 0.13231 0.65771 0.79888 0.0
H1237 H 0.12377 0.64795 0.82336 0.0
C1238 C 0.39416 0.57181 0.14379 0.0
C1239 C 0.41259 0.57619 0.15117 0.0
C1240 C 0.38979 0.58099 0.13071 0.0
C1241 C 0.41382 0.60441 0.0998 0.0
H1242 H 0.36136 0.63142 0.09448 0.0
C1243 C 0.39747 0.65165 0.04953 0.0
C1244 C 0.37759 0.6508 0.04363 0.0
C1245 C 0.40155 0.64329 0.06293 0.0
C1246 C 0.37597 0.62371 0.09568 0.0
H1247 H 0.4408 0.59388 0.15042 0.0
H1248 H 0.43344 0.6092 0.12737 0.0
H1249 H 0.36878 0.61445 0.117 0.0
H1250 H 0.34633 0.64064 0.04719 0.0
H1251 H 0.35353 0.62545 0.07029 0.0
H1252 H 0.42091 0.61301 0.07843 0.0
C1253 C 0.42242 0.59865 0.13179 0.0
C1254 C 0.38021 0.61405 0.1086 0.0
C1255 C 0.42666 0.58974 0.14497 0.0
C1256 C 0.36179 0.64168 0.0515 0.0
C1257 C 0.36593 0.63304 0.0648 0.0
C1258 C 0.40948 0.61379 0.0868 0.0
C1259 C 0.40388 0.59449 0.12459 0.0
C1260 C 0.39921 0.60439 0.1108 0.0
C1261 C 0.38591 0.63358 0.07065 0.0
C1262 C 0.39052 0.62366 0.08457 0.0
H1263 H 0.3831 0.56121 0.14808 0.0
H1264 H 0.37548 0.57735 0.12528 0.0
H1265 H 0.42851 0.59688 0.10118 0.0
H1266 H 0.40994 0.65874 0.04378 0.0
H1267 H 0.41701 0.64446 0.0672 0.0
C1268 C 0.38439 0.95534 0.40002 0.0
C1269 C 0.40296 0.96619 0.40107 0.0
C1270 C 0.37844 0.94622 0.38704 0.0
C1271 C 0.40117 0.92783 0.35302 0.0
H1272 H 0.34448 0.92438 0.34017 0.0
C1273 C 0.37952 0.90158 0.29621 0.0
C1274 C 0.36368 0.88716 0.29476 0.0
C1275 C 0.38339 0.9111 0.30936 0.0
C1276 C 0.36034 0.92508 0.34372 0.0
H1277 H 0.42926 0.97704 0.38926 0.0
H1278 H 0.41868 0.96168 0.36654 0.0
H1279 H 0.35269 0.94224 0.36261 0.0
H1280 H 0.33922 0.87162 0.30592 0.0
H1281 H 0.34594 0.88849 0.32903 0.0
H1282 H 0.40885 0.91099 0.33405 0.0
C1283 C 0.40899 0.95959 0.3758 0.0
C1284 C 0.36506 0.93529 0.35656 0.0
C1285 C 0.41501 0.96851 0.38878 0.0
C1286 C 0.35158 0.88263 0.30673 0.0
C1287 C 0.35534 0.89235 0.31991 0.0
C1288 C 0.39647 0.91781 0.34018 0.0
C1289 C 0.39089 0.94792 0.37483 0.0
C1290 C 0.38558 0.93693 0.3613 0.0
C1291 C 0.37141 0.90654 0.32136 0.0
C1292 C 0.37605 0.91646 0.33533 0.0
H1293 H 0.37491 0.95317 0.40938 0.0
H1294 H 0.3645 0.93721 0.38672 0.0
H1295 H 0.41706 0.92829 0.35651 0.0
H1296 H 0.3891 0.90545 0.28718 0.0
H1297 H 0.39572 0.92216 0.31012 0.0
C1298 C 0.07324 0.93651 0.64389 0.0
C1299 C 0.08751 0.9398 0.65498 0.0
C1300 C 0.07952 0.92813 0.63082 0.0
C1301 C 0.1261 0.91618 0.6091 0.0
H1302 H 0.08871 0.87896 0.58964 0.0
C1303 C 0.15008 0.86502 0.56116 0.0
C1304 C 0.13739 0.86663 0.54901 0.0
C1305 C 0.14396 0.87352 0.57425 0.0
C1306 C 0.09925 0.88938 0.59496 0.0
H1307 H 0.11948 0.93706 0.66118 0.0
H1308 H 0.13045 0.92179 0.63854 0.0
H1309 H 0.07838 0.89509 0.61211 0.0
H1310 H 0.10811 0.87774 0.54112 0.0
H1311 H 0.09722 0.89215 0.56412 0.0
H1312 H 0.14717 0.90985 0.59204 0.0
C1313 C 0.11449 0.92618 0.63971 0.0
C1314 C 0.09332 0.89877 0.60778 0.0
C1315 C 0.10824 0.93488 0.65271 0.0
C1316 C 0.11821 0.87631 0.55031 0.0
C1317 C 0.11195 0.88449 0.56345 0.0
C1318 C 0.13215 0.90652 0.59639 0.0
C1319 C 0.10017 0.9225 0.62863 0.0
C1320 C 0.1066 0.91242 0.61499 0.0
C1321 C 0.1249 0.88344 0.57548 0.0
C1322 C 0.11873 0.89313 0.58917 0.0
H1323 H 0.05718 0.94036 0.64537 0.0
H1324 H 0.06813 0.92603 0.62245 0.0
H1325 H 0.13663 0.92683 0.61418 0.0
H1326 H 0.16497 0.85769 0.56047 0.0
H1327 H 0.15414 0.87239 0.58341 0.0
C1328 C 0.56673 0.449 0.86484 0.0
C1329 C 0.58055 0.44356 0.85395 0.0
C1330 C 0.56921 0.44128 0.87861 0.0
C1331 C 0.59297 0.40082 0.89976 0.0
H1332 H 0.59772 0.44237 0.92942 0.0
C1333 C 0.62672 0.38379 0.95573 0.0
C1334 C 0.61942 0.39506 0.96753 0.0
C1335 C 0.62016 0.3884 0.94187 0.0
C1336 C 0.59602 0.43045 0.92139 0.0
H1337 H 0.60705 0.42501 0.84861 0.0
H1338 H 0.61117 0.4112 0.87266 0.0
H1339 H 0.58846 0.45205 0.90523 0.0
H1340 H 0.59879 0.41931 0.97415 0.0
H1341 H 0.58668 0.42676 0.95015 0.0
H1342 H 0.60024 0.37913 0.91591 0.0
C1343 C 0.59854 0.42152 0.87057 0.0
C1344 C 0.59079 0.43606 0.9075 0.0
C1345 C 0.59627 0.4295 0.85687 0.0
C1346 C 0.60493 0.41055 0.96524 0.0
C1347 C 0.59808 0.4149 0.95144 0.0
C1348 C 0.59789 0.39513 0.91374 0.0
C1349 C 0.58534 0.42773 0.88165 0.0
C1350 C 0.58941 0.42135 0.89653 0.0
C1351 C 0.60588 0.40415 0.93952 0.0
C1352 C 0.59969 0.40991 0.92473 0.0
H1353 H 0.55457 0.45991 0.86287 0.0
H1354 H 0.55878 0.44621 0.88697 0.0
H1355 H 0.5919 0.38918 0.89147 0.0
H1356 H 0.63797 0.3718 0.95717 0.0
H1357 H 0.62676 0.37996 0.93298 0.0
C1358 C 0.59799 0.10601 0.09964 0.0
C1359 C 0.60681 0.08727 0.09557 0.0
C1360 C 0.60313 0.11523 0.11272 0.0
C1361 C 0.6232 0.10343 0.14846 0.0
H1362 H 0.63225 0.16174 0.1514 0.0
C1363 C 0.62929 0.14423 0.20294 0.0
C1364 C 0.64548 0.15821 0.20473 0.0
C1365 C 0.62424 0.1366 0.18939 0.0
C1366 C 0.62987 0.14543 0.15072 0.0
H1367 H 0.62796 0.06353 0.10201 0.0
H1368 H 0.63709 0.07972 0.12484 0.0
H1369 H 0.62497 0.14609 0.12805 0.0
H1370 H 0.66853 0.17578 0.19362 0.0
H1371 H 0.6597 0.16237 0.16986 0.0
H1372 H 0.62831 0.10267 0.17105 0.0
C1373 C 0.62608 0.0872 0.11794 0.0
C1374 C 0.62553 0.1365 0.13739 0.0
C1375 C 0.621 0.07802 0.10482 0.0
C1376 C 0.656 0.16501 0.19258 0.0
C1377 C 0.6509 0.15737 0.17898 0.0
C1378 C 0.62745 0.11235 0.16177 0.0
C1379 C 0.61715 0.10588 0.12204 0.0
C1380 C 0.62213 0.11539 0.13612 0.0
C1381 C 0.63522 0.14279 0.17729 0.0
C1382 C 0.63076 0.13346 0.16307 0.0
H1383 H 0.5872 0.11366 0.09266 0.0
H1384 H 0.59585 0.12953 0.11563 0.0
H1385 H 0.62046 0.08717 0.14786 0.0
H1386 H 0.62079 0.1388 0.21208 0.0
H1387 H 0.61182 0.12567 0.18839 0.0
C1388 C 0.95087 0.08966 0.36766 0.0
C1389 C 0.94703 0.10182 0.35565 0.0
C1390 C 0.94213 0.09452 0.38089 0.0
C1391 C 0.91993 0.13627 0.40216 0.0
H1392 H 0.893 0.09287 0.42268 0.0
C1393 C 0.87448 0.15176 0.4542 0.0
C1394 C 0.87651 0.1374 0.46515 0.0
C1395 C 0.88224 0.14764 0.44053 0.0
C1396 C 0.90067 0.10513 0.4172 0.0
H1397 H 0.93114 0.12885 0.34828 0.0
H1398 H 0.91633 0.13758 0.3715 0.0
H1399 H 0.90905 0.08555 0.39969 0.0
H1400 H 0.88828 0.10742 0.47029 0.0
H1401 H 0.90221 0.10047 0.44667 0.0
H1402 H 0.91199 0.15579 0.41978 0.0
C1403 C 0.92613 0.12428 0.37061 0.0
C1404 C 0.90982 0.10093 0.40401 0.0
C1405 C 0.9347 0.11931 0.35733 0.0
C1406 C 0.88631 0.11878 0.46209 0.0
C1407 C 0.89422 0.11474 0.44849 0.0
C1408 C 0.91094 0.14045 0.41544 0.0
C1409 C 0.92953 0.11178 0.38247 0.0
C1410 C 0.91963 0.11642 0.39639 0.0
C1411 C 0.89236 0.12913 0.43754 0.0
C1412 C 0.90128 0.12491 0.42316 0.0
H1413 H 0.96061 0.07632 0.36686 0.0
H1414 H 0.94528 0.0848 0.38992 0.0
H1415 H 0.92752 0.14847 0.39655 0.0
H1416 H 0.86692 0.16622 0.45618 0.0
H1417 H 0.88024 0.15895 0.43231 0.0
C1418 C 0.92676 0.43565 0.60323 0.0
C1419 C 0.94517 0.42533 0.59992 0.0
C1420 C 0.91669 0.43222 0.61618 0.0
C1421 C 0.90979 0.39381 0.64345 0.0
H1422 H 0.89684 0.43829 0.6696 0.0
C1423 C 0.86745 0.38194 0.69707 0.0
C1424 C 0.87838 0.38967 0.70896 0.0
C1425 C 0.87309 0.38735 0.68319 0.0
C1426 C 0.90023 0.42577 0.66233 0.0
H1427 H 0.96771 0.40388 0.60805 0.0
H1428 H 0.9497 0.39739 0.63028 0.0
H1429 H 0.91177 0.44562 0.64616 0.0
H1430 H 0.90321 0.40973 0.71567 0.0
H1431 H 0.91274 0.41943 0.69148 0.0
H1432 H 0.89849 0.37393 0.65963 0.0
C1433 C 0.94308 0.40803 0.62278 0.0
C1434 C 0.90866 0.42996 0.64894 0.0
C1435 C 0.95332 0.41171 0.60999 0.0
C1436 C 0.89457 0.40343 0.70672 0.0
C1437 C 0.89994 0.40911 0.69289 0.0
C1438 C 0.90103 0.38964 0.65671 0.0
C1439 C 0.92464 0.41816 0.62596 0.0
C1440 C 0.9139 0.41397 0.63953 0.0
C1441 C 0.88946 0.40089 0.681 0.0
C1442 C 0.89655 0.40555 0.66638 0.0
H1443 H 0.91985 0.44604 0.5957 0.0
H1444 H 0.90245 0.44018 0.61842 0.0
H1445 H 0.91361 0.38124 0.63632 0.0
H1446 H 0.85492 0.3713 0.69846 0.0
H1447 H 0.86477 0.38085 0.67417 0.0
C1448 C 0.60717 0.0835 0.39304 0.0
C1449 C 0.59606 0.06516 0.39384 0.0
C1450 C 0.61295 0.09128 0.37981 0.0
C1451 C 0.62347 0.07547 0.34289 0.0
H1452 H 0.61556 0.13249 0.33399 0.0
C1453 C 0.63551 0.10521 0.28605 0.0
C1454 C 0.64464 0.12443 0.28441 0.0
C1455 C 0.62959 0.09854 0.29953 0.0
C1456 C 0.61815 0.1166 0.33638 0.0
H1457 H 0.58193 0.04091 0.38124 0.0
H1458 H 0.59242 0.0543 0.35818 0.0
H1459 H 0.60521 0.11981 0.35734 0.0
H1460 H 0.65466 0.15177 0.29569 0.0
H1461 H 0.64475 0.13991 0.31933 0.0
H1462 H 0.6367 0.07219 0.32212 0.0
C1463 C 0.59674 0.06255 0.36784 0.0
C1464 C 0.61216 0.10934 0.34973 0.0
C1465 C 0.5908 0.05486 0.38106 0.0
C1466 C 0.64761 0.1369 0.29658 0.0
C1467 C 0.64182 0.13014 0.31012 0.0
C1468 C 0.62962 0.08274 0.32961 0.0
C1469 C 0.60793 0.08079 0.36709 0.0
C1470 C 0.6146 0.08867 0.35306 0.0
C1471 C 0.63282 0.11082 0.31176 0.0
C1472 C 0.62687 0.10335 0.32612 0.0
H1473 H 0.6118 0.09167 0.40266 0.0
H1474 H 0.62177 0.10526 0.37955 0.0
H1475 H 0.62586 0.05954 0.34527 0.0
H1476 H 0.63281 0.09528 0.2769 0.0
H1477 H 0.6223 0.08378 0.30033 0.0
C1478 C 0.90985 0.08036 0.64235 0.0
C1479 C 0.92433 0.08964 0.65153 0.0
C1480 C 0.90409 0.08968 0.62957 0.0
C1481 C 0.90452 0.10702 0.5995 0.0
H1482 H 0.89442 0.16527 0.59913 0.0
C1483 C 0.89347 0.15017 0.54693 0.0
C1484 C 0.87704 0.16405 0.54635 0.0
C1485 C 0.89965 0.14191 0.55995 0.0
C1486 C 0.89709 0.14898 0.59908 0.0
H1487 H 0.94387 0.11612 0.6546 0.0
H1488 H 0.93404 0.1322 0.63223 0.0
H1489 H 0.90381 0.14881 0.62153 0.0
H1490 H 0.85467 0.18072 0.55904 0.0
H1491 H 0.86549 0.16624 0.58184 0.0
H1492 H 0.89758 0.10711 0.57711 0.0
C1493 C 0.92707 0.11779 0.63494 0.0
C1494 C 0.90265 0.13959 0.61188 0.0
C1495 C 0.93289 0.10844 0.64767 0.0
C1496 C 0.86738 0.17006 0.55915 0.0
C1497 C 0.87361 0.16181 0.5722 0.0
C1498 C 0.89906 0.11642 0.58671 0.0
C1499 C 0.91258 0.10853 0.62575 0.0
C1500 C 0.90645 0.1185 0.61222 0.0
C1501 C 0.88958 0.14737 0.5727 0.0
C1502 C 0.89534 0.1375 0.58635 0.0
H1503 H 0.90306 0.06585 0.64501 0.0
H1504 H 0.89276 0.08225 0.62277 0.0
H1505 H 0.90751 0.09079 0.59939 0.0
H1506 H 0.90132 0.14532 0.53727 0.0
H1507 H 0.91224 0.13111 0.56001 0.0
C1508 C 0.92362 0.43668 0.88781 0.0
C1509 C 0.91871 0.42544 0.90002 0.0
C1510 C 0.914 0.43243 0.8747 0.0
C1511 C 0.88635 0.3916 0.85524 0.0
H1512 H 0.86956 0.43529 0.8302 0.0
C1513 C 0.84242 0.37557 0.80266 0.0
C1514 C 0.84937 0.38606 0.79059 0.0
C1515 C 0.84921 0.38123 0.81635 0.0
C1516 C 0.87429 0.42293 0.83704 0.0
H1517 H 0.89943 0.40128 0.90814 0.0
H1518 H 0.8827 0.39383 0.88529 0.0
H1519 H 0.88496 0.44343 0.85344 0.0
H1520 H 0.86834 0.41109 0.78343 0.0
H1521 H 0.88029 0.42082 0.8073 0.0
H1522 H 0.87592 0.37109 0.83881 0.0
C1523 C 0.89424 0.40571 0.88578 0.0
C1524 C 0.88313 0.42759 0.85034 0.0
C1525 C 0.90385 0.40996 0.89887 0.0
C1526 C 0.8627 0.4027 0.79253 0.0
C1527 C 0.86947 0.40836 0.80621 0.0
C1528 C 0.87752 0.38694 0.84195 0.0
C1529 C 0.89925 0.41684 0.87354 0.0
C1530 C 0.88936 0.41197 0.85955 0.0
C1531 C 0.86305 0.39749 0.81826 0.0
C1532 C 0.87149 0.40255 0.83266 0.0
H1533 H 0.93518 0.44855 0.88831 0.0
H1534 H 0.91842 0.44109 0.86542 0.0
H1535 H 0.89126 0.37921 0.86199 0.0
H1536 H 0.83206 0.36276 0.80152 0.0
H1537 H 0.84372 0.37276 0.82544 0.0
C1538 C 0.57355 0.39397 0.15756 0.0
C1539 C 0.56154 0.41165 0.15898 0.0
C1540 C 0.58311 0.38922 0.14459 0.0
C1541 C 0.59743 0.41116 0.10942 0.0
H1542 H 0.59833 0.35438 0.09742 0.0
C1543 C 0.61248 0.38486 0.05128 0.0
C1544 C 0.62669 0.36895 0.04931 0.0
C1545 C 0.60582 0.39027 0.06499 0.0
C1546 C 0.59836 0.37026 0.10071 0.0
H1547 H 0.55022 0.43834 0.1481 0.0
H1548 H 0.56636 0.42981 0.12527 0.0
H1549 H 0.58431 0.3637 0.12073 0.0
H1550 H 0.64492 0.3461 0.0601 0.0
H1551 H 0.6329 0.35533 0.08412 0.0
H1552 H 0.61084 0.41766 0.08908 0.0
C1553 C 0.56888 0.41982 0.13424 0.0
C1554 C 0.59041 0.37564 0.11409 0.0
C1555 C 0.55955 0.4247 0.14729 0.0
C1556 C 0.63397 0.35843 0.06131 0.0
C1557 C 0.62706 0.36366 0.07502 0.0
C1558 C 0.60513 0.40579 0.09596 0.0
C1559 C 0.58064 0.40191 0.13268 0.0
C1560 C 0.58976 0.39617 0.11861 0.0
C1561 C 0.61301 0.3797 0.07698 0.0
C1562 C 0.60558 0.3853 0.09146 0.0
H1563 H 0.57556 0.38381 0.1665 0.0
H1564 H 0.59242 0.37557 0.14392 0.0
H1565 H 0.59755 0.42706 0.11262 0.0
H1566 H 0.60663 0.39329 0.04224 0.0
H1567 H 0.59481 0.40256 0.0662 0.0
loop_
_geom_bond_atom_site_label_1
_geom_bond_atom_site_label_2
_geom_bond_distance
_geom_bond_site_symmetry_2
_ccdc_geom_bond_type
H0 C27 0.929 . S
N1 C26 1.433 . S
N1 C32 1.435 . S
N1 C38 1.423 . S
H2 C28 0.930 . S
H3 C31 0.931 . S
H4 C30 0.929 . S
H5 C33 0.930 . S
H6 C34 0.932 . S
H7 C37 0.929 . S
H8 C36 0.931 . S
H9 C39 0.929 . S
H10 C43 0.932 . S
H11 C40 0.931 . S
H12 C42 0.929 . S
H13 C45 0.929 . S
H14 C46 0.930 . S
H15 C48 0.929 . S
H16 C49 0.931 . S
H17 C51 0.930 . S
H18 C52 0.932 . S
H19 C54 0.931 . S
H20 C55 0.929 . S
H21 C57 0.929 . S
H22 C58 0.931 . S
H23 C60 0.929 . S
N24 C44 1.433 . S
N24 C50 1.435 . S
N24 C56 1.423 . S
H25 C61 0.932 . S
C26 N1 1.433 . S
C26 C27 1.363 . S
C26 C31 1.370 . S
C27 H0 0.929 . S
C27 C26 1.363 . S
C27 C28 1.385 . S
C28 H2 0.930 . S
C28 C27 1.385 . S
C28 C29 1.357 . S
C29 C28 1.357 . S
C29 C30 1.406 . S
C30 H4 0.929 . S
C30 C29 1.406 . S
C30 C31 1.391 . S
C31 H3 0.931 . S
C31 C26 1.370 . S
C31 C30 1.391 . S
C32 N1 1.435 . S
C32 C33 1.358 . S
C32 C37 1.371 . S
C33 H5 0.930 . S
C33 C32 1.358 . S
C33 C34 1.405 . S
C34 H6 0.932 . S
C34 C33 1.405 . S
C34 C35 1.383 . S
C35 C34 1.383 . S
C35 C36 1.393 . S
C36 H8 0.931 . S
C36 C35 1.393 . S
C36 C37 1.382 . S
C37 H7 0.929 . S
C37 C32 1.371 . S
C37 C36 1.382 . S
C38 N1 1.423 . S
C38 C39 1.362 1_565 S
C38 C43 1.388 . S
C39 H9 0.929 . S
C39 C38 1.362 1_545 S
C39 C40 1.376 . S
C40 H11 0.931 . S
C40 C39 1.376 . S
C40 C41 1.396 . S
C41 C40 1.396 . S
C41 C42 1.348 1_545 S
C41 C59 1.472 . S
C42 H12 0.929 . S
C42 C41 1.348 1_565 S
C42 C43 1.443 . S
C43 H10 0.932 . S
C43 C38 1.388 . S
C43 C42 1.443 . S
C44 N24 1.433 . S
C44 C45 1.363 . S
C44 C49 1.370 . S
C45 H13 0.929 . S
C45 C44 1.363 . S
C45 C46 1.385 . S
C46 H14 0.930 . S
C46 C45 1.385 . S
C46 C47 1.357 . S
C47 C46 1.357 . S
C47 C48 1.406 . S
C48 H15 0.929 . S
C48 C47 1.406 . S
C48 C49 1.391 . S
C49 H16 0.931 . S
C49 C44 1.370 . S
C49 C48 1.391 . S
C50 N24 1.435 . S
C50 C51 1.358 . S
C50 C55 1.371 . S
C51 H17 0.930 . S
C51 C50 1.358 . S
C51 C52 1.405 . S
C52 H18 0.932 . S
C52 C51 1.405 . S
C52 C53 1.383 . S
C53 C52 1.383 . S
C53 C54 1.393 . S
C54 H19 0.931 . S
C54 C53 1.393 . S
C54 C55 1.382 . S
C55 H20 0.929 . S
C55 C50 1.371 . S
C55 C54 1.382 . S
C56 N24 1.423 . S
C56 C57 1.362 . S
C56 C61 1.388 . S
C57 H21 0.929 . S
C57 C56 1.362 . S
C57 C58 1.376 1_655 S
C58 H22 0.931 . S
C58 C57 1.376 1_455 S
C58 C59 1.396 . S
C59 C41 1.472 . S
C59 C58 1.396 . S
C59 C60 1.348 1_455 S
C60 H23 0.929 . S
C60 C59 1.348 1_655 S
C60 C61 1.443 . S
C61 H25 0.932 . S
C61 C56 1.388 . S
C61 C60 1.443 . S
H62 C89 0.929 . S
N63 C88 1.433 . S
N63 C94 1.435 . S
N63 C100 1.423 . S
H64 C90 0.930 . S
H65 C93 0.931 . S
H66 C92 0.929 . S
H67 C95 0.930 . S
H68 C96 0.932 . S
H69 C99 0.929 . S
H70 C98 0.931 . S
H71 C101 0.929 . S
H72 C105 0.932 . S
H73 C102 0.931 . S
H74 C104 0.931 . S
H75 C107 0.929 . S
H76 C108 0.930 . S
H77 C110 0.929 . S
H78 C111 0.931 . S
H79 C113 0.930 . S
H80 C114 0.932 . S
H81 C116 0.931 . S
H82 C117 0.929 . S
H83 C119 0.929 . S
H84 C120 0.931 . S
H85 C122 0.929 . S
N86 C106 1.433 . S
N86 C112 1.435 . S
N86 C118 1.423 . S
H87 C123 0.932 . S
C88 N63 1.433 . S
C88 C89 1.363 . S
C88 C93 1.370 . S
C89 H62 0.929 . S
C89 C88 1.363 . S
C89 C90 1.385 . S
C90 H64 0.930 . S
C90 C89 1.385 . S
C90 C91 1.357 . S
C91 C90 1.357 . S
C91 C92 1.406 . S
C92 H66 0.929 . S
C92 C91 1.406 . S
C92 C93 1.391 . S
C93 H65 0.931 . S
C93 C88 1.370 . S
C93 C92 1.391 . S
C94 N63 1.435 . S
C94 C95 1.358 . S
C94 C99 1.371 . S
C95 H67 0.930 . S
C95 C94 1.358 . S
C95 C96 1.405 . S
C96 H68 0.932 . S
C96 C95 1.405 . S
C96 C97 1.383 . S
C97 C96 1.383 . S
C97 C98 1.393 . S
C98 H70 0.931 . S
C98 C97 1.393 . S
C98 C99 1.382 . S
C99 H69 0.929 . S
C99 C94 1.371 . S
C99 C98 1.382 . S
C100 N63 1.423 . S
C100 C101 1.362 1_655 S
C100 C105 1.388 . S
C101 H71 0.929 . S
C101 C100 1.362 1_455 S
C101 C102 1.376 . S
C102 H73 0.931 . S
C102 C101 1.376 . S
C102 C103 1.396 . S
C103 C102 1.396 . S
C103 C104 1.328 1_455 S
C103 C121 1.472 . S
C104 H74 0.931 . S
C104 C103 1.328 1_655 S
C104 C105 1.461 . S
C105 H72 0.932 . S
C105 C100 1.388 . S
C105 C104 1.461 . S
C106 N86 1.433 . S
C106 C107 1.363 . S
C106 C111 1.370 . S
C107 H75 0.929 . S
C107 C106 1.363 . S
C107 C108 1.385 . S
C108 H76 0.930 . S
C108 C107 1.385 . S
C108 C109 1.357 . S
C109 C108 1.357 . S
C109 C110 1.406 . S
C110 H77 0.929 . S
C110 C109 1.406 . S
C110 C111 1.391 . S
C111 H78 0.931 . S
C111 C106 1.370 . S
C111 C110 1.391 . S
C112 N86 1.435 . S
C112 C113 1.358 . S
C112 C117 1.371 . S
C113 H79 0.930 . S
C113 C112 1.358 . S
C113 C114 1.405 . S
C114 H80 0.932 . S
C114 C113 1.405 . S
C114 C115 1.383 . S
C115 C114 1.383 . S
C115 C116 1.393 . S
C116 H81 0.931 . S
C116 C115 1.393 . S
C116 C117 1.382 . S
C117 H82 0.929 . S
C117 C112 1.371 . S
C117 C116 1.382 . S
C118 N86 1.423 . S
C118 C119 1.362 . S
C118 C123 1.388 . S
C119 H83 0.929 . S
C119 C118 1.362 . S
C119 C120 1.376 . S
C120 H84 0.931 . S
C120 C119 1.376 . S
C120 C121 1.396 . S
C121 C103 1.472 . S
C121 C120 1.396 . S
C121 C122 1.348 . S
C122 H85 0.929 . S
C122 C121 1.348 . S
C122 C123 1.443 . S
C123 H87 0.932 . S
C123 C118 1.388 . S
C123 C122 1.443 . S
H124 C151 0.929 . S
N125 C150 1.433 . S
N125 C156 1.435 . S
N125 C162 1.423 . S
H126 C152 0.930 . S
H127 C155 0.931 . S
H128 C154 0.929 . S
H129 C157 0.930 . S
H130 C158 0.932 . S
H131 C161 0.929 . S
H132 C160 0.931 . S
H133 C163 0.929 . S
H134 C167 0.932 . S
H135 C164 0.931 . S
H136 C166 0.929 . S
H137 C169 0.929 . S
H138 C170 0.930 . S
H139 C172 0.929 . S
H140 C173 0.931 . S
H141 C175 0.930 . S
H142 C176 0.932 . S
H143 C178 0.931 . S
H144 C179 0.929 . S
H145 C181 0.929 . S
H146 C182 0.931 . S
H147 C184 0.929 . S
N148 C168 1.433 . S
N148 C174 1.435 . S
N148 C180 1.423 . S
H149 C185 0.932 . S
C150 N125 1.433 . S
C150 C151 1.363 . S
C150 C155 1.370 . S
C151 H124 0.929 . S
C151 C150 1.363 . S
C151 C152 1.385 . S
C152 H126 0.930 . S
C152 C151 1.385 . S
C152 C153 1.357 . S
C153 C152 1.357 . S
C153 C154 1.406 . S
C154 H128 0.929 . S
C154 C153 1.406 . S
C154 C155 1.391 . S
C155 H127 0.931 . S
C155 C150 1.370 . S
C155 C154 1.391 . S
C156 N125 1.435 . S
C156 C157 1.358 . S
C156 C161 1.371 . S
C157 H129 0.930 . S
C157 C156 1.358 . S
C157 C158 1.405 . S
C158 H130 0.932 . S
C158 C157 1.405 . S
C158 C159 1.383 . S
C159 C158 1.383 . S
C159 C160 1.393 . S
C160 H132 0.931 . S
C160 C159 1.393 . S
C160 C161 1.382 . S
C161 H131 0.929 . S
C161 C156 1.371 . S
C161 C160 1.382 . S
C162 N125 1.423 . S
C162 C163 1.362 . S
C162 C167 1.388 . S
C163 H133 0.929 . S
C163 C162 1.362 . S
C163 C164 1.376 . S
C164 H135 0.931 . S
C164 C163 1.376 . S
C164 C165 1.396 . S
C165 C164 1.396 . S
C165 C166 1.348 . S
C165 C183 1.472 . S
C166 H136 0.929 . S
C166 C165 1.348 . S
C166 C167 1.443 . S
C167 H134 0.932 . S
C167 C162 1.388 . S
C167 C166 1.443 . S
C168 N148 1.433 . S
C168 C169 1.363 . S
C168 C173 1.370 . S
C169 H137 0.929 . S
C169 C168 1.363 . S
C169 C170 1.385 . S
C170 H138 0.930 . S
C170 C169 1.385 . S
C170 C171 1.357 . S
C171 C170 1.357 . S
C171 C172 1.406 . S
C172 H139 0.929 . S
C172 C171 1.406 . S
C172 C173 1.391 . S
C173 H140 0.931 . S
C173 C168 1.370 . S
C173 C172 1.391 . S
C174 N148 1.435 . S
C174 C175 1.358 . S
C174 C179 1.371 . S
C175 H141 0.930 . S
C175 C174 1.358 . S
C175 C176 1.405 . S
C176 H142 0.932 . S
C176 C175 1.405 . S
C176 C177 1.383 . S
C177 C176 1.383 . S
C177 C178 1.393 . S
C178 H143 0.931 . S
C178 C177 1.393 . S
C178 C179 1.382 . S
C179 H144 0.929 . S
C179 C174 1.371 . S
C179 C178 1.382 . S
C180 N148 1.423 . S
C180 C181 1.362 . S
C180 C185 1.388 . S
C181 H145 0.929 . S
C181 C180 1.362 . S
C181 C182 1.376 . S
C182 H146 0.931 . S
C182 C181 1.376 . S
C182 C183 1.396 . S
C183 C165 1.472 . S
C183 C182 1.396 . S
C183 C184 1.348 . S
C184 H147 0.929 . S
C184 C183 1.348 . S
C184 C185 1.443 . S
C185 H149 0.932 . S
C185 C180 1.388 . S
C185 C184 1.443 . S
H186 C213 0.929 . S
N187 C212 1.433 . S
N187 C218 1.435 . S
N187 C224 1.423 . S
H188 C214 0.930 . S
H189 C217 0.931 . S
H190 C216 0.929 . S
H191 C219 0.930 . S
H192 C220 0.932 . S
H193 C223 0.929 . S
H194 C222 0.931 . S
H195 C225 0.929 . S
H196 C229 0.932 . S
H197 C226 0.931 . S
H198 C228 0.929 . S
H199 C231 0.929 . S
H200 C232 0.930 . S
H201 C234 0.929 . S
H202 C235 0.931 . S
H203 C237 0.930 . S
H204 C238 0.932 . S
H205 C240 0.931 . S
H206 C241 0.929 . S
H207 C243 0.929 . S
H208 C244 0.931 1_565 S
H209 C246 0.929 . S
N210 C230 1.433 . S
N210 C236 1.435 . S
N210 C242 1.423 . S
H211 C247 0.932 . S
C212 N187 1.433 . S
C212 C213 1.363 . S
C212 C217 1.370 . S
C213 H186 0.929 . S
C213 C212 1.363 . S
C213 C214 1.385 . S
C214 H188 0.930 . S
C214 C213 1.385 . S
C214 C215 1.357 . S
C215 C214 1.357 . S
C215 C216 1.406 . S
C216 H190 0.929 . S
C216 C215 1.406 . S
C216 C217 1.391 . S
C217 H189 0.931 . S
C217 C212 1.370 . S
C217 C216 1.391 . S
C218 N187 1.435 . S
C218 C219 1.358 . S
C218 C223 1.371 . S
C219 H191 0.930 . S
C219 C218 1.358 . S
C219 C220 1.405 . S
C220 H192 0.932 . S
C220 C219 1.405 . S
C220 C221 1.383 . S
C221 C220 1.383 . S
C221 C222 1.393 . S
C222 H194 0.931 . S
C222 C221 1.393 . S
C222 C223 1.382 . S
C223 H193 0.929 . S
C223 C218 1.371 . S
C223 C222 1.382 . S
C224 N187 1.423 . S
C224 C225 1.362 . S
C224 C229 1.388 . S
C225 H195 0.929 . S
C225 C224 1.362 . S
C225 C226 1.376 . S
C226 H197 0.931 . S
C226 C225 1.376 . S
C226 C227 1.396 . S
C227 C226 1.396 . S
C227 C228 1.348 . S
C227 C245 1.472 1_565 S
C228 H198 0.929 . S
C228 C227 1.348 . S
C228 C229 1.443 . S
C229 H196 0.932 . S
C229 C224 1.388 . S
C229 C228 1.443 . S
C230 N210 1.433 . S
C230 C231 1.363 . S
C230 C235 1.370 . S
C231 H199 0.929 . S
C231 C230 1.363 . S
C231 C232 1.385 . S
C232 H200 0.930 . S
C232 C231 1.385 . S
C232 C233 1.357 . S
C233 C232 1.357 . S
C233 C234 1.406 . S
C234 H201 0.929 . S
C234 C233 1.406 . S
C234 C235 1.391 . S
C235 H202 0.931 . S
C235 C230 1.370 . S
C235 C234 1.391 . S
C236 N210 1.435 . S
C236 C237 1.358 . S
C236 C241 1.371 . S
C237 H203 0.930 . S
C237 C236 1.358 . S
C237 C238 1.405 . S
C238 H204 0.932 . S
C238 C237 1.405 . S
C238 C239 1.383 . S
C239 C238 1.383 . S
C239 C240 1.393 . S
C240 H205 0.931 . S
C240 C239 1.393 . S
C240 C241 1.382 . S
C241 H206 0.929 . S
C241 C236 1.371 . S
C241 C240 1.382 . S
C242 N210 1.423 . S
C242 C243 1.362 . S
C242 C247 1.388 . S
C243 H207 0.929 . S
C243 C242 1.362 . S
C243 C244 1.376 . S
C244 H208 0.931 1_545 S
C244 C243 1.376 . S
C244 C245 1.396 . S
C245 C227 1.472 1_545 S
C245 C244 1.396 . S
C245 C246 1.348 . S
C246 H209 0.929 . S
C246 C245 1.348 . S
C246 C247 1.443 . S
C247 H211 0.932 . S
C247 C242 1.388 . S
C247 C246 1.443 . S
H248 C275 0.929 . S
N249 C274 1.433 . S
N249 C280 1.435 . S
N249 C286 1.423 . S
H250 C276 0.930 . S
H251 C279 0.931 . S
H252 C278 0.929 . S
H253 C281 0.930 . S
H254 C282 0.932 . S
H255 C285 0.929 . S
H256 C284 0.931 . S
H257 C287 0.929 . S
H258 C291 0.932 . S
H259 C288 0.931 . S
H260 C290 0.929 . S
H261 C293 0.929 . S
H262 C294 0.930 . S
H263 C296 0.929 . S
H264 C297 0.931 . S
H265 C299 0.930 . S
H266 C300 0.932 . S
H267 C302 0.931 . S
H268 C303 0.929 . S
H269 C305 0.929 . S
H270 C306 0.894 1_455 S
H271 C308 0.929 . S
N272 C292 1.433 . S
N272 C298 1.435 . S
N272 C304 1.423 . S
H273 C309 0.932 . S
C274 N249 1.433 . S
C274 C275 1.363 . S
C274 C279 1.370 . S
C275 H248 0.929 . S
C275 C274 1.363 . S
C275 C276 1.385 . S
C276 H250 0.930 . S
C276 C275 1.385 . S
C276 C277 1.357 . S
C277 C276 1.357 . S
C277 C278 1.406 . S
C278 H252 0.929 . S
C278 C277 1.406 . S
C278 C279 1.391 . S
C279 H251 0.931 . S
C279 C274 1.370 . S
C279 C278 1.391 . S
C280 N249 1.435 . S
C280 C281 1.358 . S
C280 C285 1.371 . S
C281 H253 0.930 . S
C281 C280 1.358 . S
C281 C282 1.405 . S
C282 H254 0.932 . S
C282 C281 1.405 . S
C282 C283 1.383 . S
C283 C282 1.383 . S
C283 C284 1.393 . S
C284 H256 0.931 . S
C284 C283 1.393 . S
C284 C285 1.382 . S
C285 H255 0.929 . S
C285 C280 1.371 . S
C285 C284 1.382 . S
C286 N249 1.423 . S
C286 C287 1.362 . S
C286 C291 1.388 . S
C287 H257 0.929 . S
C287 C286 1.362 . S
C287 C288 1.376 . S
C288 H259 0.931 . S
C288 C287 1.376 . S
C288 C289 1.396 . S
C289 C288 1.396 . S
C289 C290 1.348 . S
C289 C307 1.472 . S
C290 H260 0.929 . S
C290 C289 1.348 . S
C290 C291 1.443 . S
C291 H258 0.932 . S
C291 C286 1.388 . S
C291 C290 1.443 . S
C292 N272 1.433 . S
C292 C293 1.363 . S
C292 C297 1.370 . S
C293 H261 0.929 . S
C293 C292 1.363 . S
C293 C294 1.385 . S
C294 H262 0.930 . S
C294 C293 1.385 . S
C294 C295 1.357 . S
C295 C294 1.357 . S
C295 C296 1.406 . S
C296 H263 0.929 . S
C296 C295 1.406 . S
C296 C297 1.391 . S
C297 H264 0.931 . S
C297 C292 1.370 . S
C297 C296 1.391 . S
C298 N272 1.435 . S
C298 C299 1.358 . S
C298 C303 1.371 . S
C299 H265 0.930 . S
C299 C298 1.358 . S
C299 C300 1.405 . S
C300 H266 0.932 . S
C300 C299 1.405 . S
C300 C301 1.383 . S
C301 C300 1.383 . S
C301 C302 1.393 . S
C302 H267 0.931 . S
C302 C301 1.393 . S
C302 C303 1.382 . S
C303 H268 0.929 . S
C303 C298 1.371 . S
C303 C302 1.382 . S
C304 N272 1.423 . S
C304 C305 1.362 . S
C304 C309 1.388 . S
C305 H269 0.929 . S
C305 C304 1.362 . S
C305 C306 1.418 . S
C306 H270 0.894 1_655 S
C306 C305 1.418 . S
C306 C307 1.392 1_655 S
C307 C289 1.472 . S
C307 C306 1.392 1_455 S
C307 C308 1.348 1_455 S
C308 H271 0.929 . S
C308 C307 1.348 1_655 S
C308 C309 1.443 . S
C309 H273 0.932 . S
C309 C304 1.388 . S
C309 C308 1.443 . S
H310 C337 0.929 . S
N311 C336 1.433 . S
N311 C342 1.435 . S
N311 C348 1.423 . S
H312 C338 0.930 . S
H313 C341 0.931 . S
H314 C340 0.929 . S
H315 C343 0.930 . S
H316 C344 0.932 . S
H317 C347 0.929 . S
H318 C346 0.931 . S
H319 C349 0.929 . S
H320 C353 0.932 . S
H321 C350 0.931 . S
H322 C352 0.929 . S
H323 C355 0.929 . S
H324 C356 0.930 . S
H325 C358 0.929 . S
H326 C359 0.931 . S
H327 C361 0.930 . S
H328 C362 0.932 . S
H329 C364 0.931 . S
H330 C365 0.929 . S
H331 C367 0.929 . S
H332 C368 0.931 . S
H333 C370 0.929 . S
N334 C354 1.433 . S
N334 C360 1.435 . S
N334 C366 1.423 . S
H335 C371 0.932 . S
C336 N311 1.433 . S
C336 C337 1.363 . S
C336 C341 1.370 . S
C337 H310 0.929 . S
C337 C336 1.363 . S
C337 C338 1.385 . S
C338 H312 0.930 . S
C338 C337 1.385 . S
C338 C339 1.357 . S
C339 C338 1.357 . S
C339 C340 1.406 . S
C340 H314 0.929 . S
C340 C339 1.406 . S
C340 C341 1.391 . S
C341 H313 0.931 . S
C341 C336 1.370 . S
C341 C340 1.391 . S
C342 N311 1.435 . S
C342 C343 1.358 . S
C342 C347 1.371 . S
C343 H315 0.930 . S
C343 C342 1.358 . S
C343 C344 1.405 . S
C344 H316 0.932 . S
C344 C343 1.405 . S
C344 C345 1.383 . S
C345 C344 1.383 . S
C345 C346 1.393 . S
C346 H318 0.931 . S
C346 C345 1.393 . S
C346 C347 1.382 . S
C347 H317 0.929 . S
C347 C342 1.371 . S
C347 C346 1.382 . S
C348 N311 1.423 . S
C348 C349 1.362 . S
C348 C353 1.388 . S
C349 H319 0.929 . S
C349 C348 1.362 . S
C349 C350 1.376 . S
C350 H321 0.931 . S
C350 C349 1.376 . S
C350 C351 1.396 . S
C351 C350 1.396 . S
C351 C352 1.348 . S
C351 C369 1.472 . S
C352 H322 0.929 . S
C352 C351 1.348 . S
C352 C353 1.443 . S
C353 H320 0.932 . S
C353 C348 1.388 . S
C353 C352 1.443 . S
C354 N334 1.433 . S
C354 C355 1.363 . S
C354 C359 1.370 . S
C355 H323 0.929 . S
C355 C354 1.363 . S
C355 C356 1.385 . S
C356 H324 0.930 . S
C356 C355 1.385 . S
C356 C357 1.357 . S
C357 C356 1.357 . S
C357 C358 1.406 . S
C358 H325 0.929 . S
C358 C357 1.406 . S
C358 C359 1.391 . S
C359 H326 0.931 . S
C359 C354 1.370 . S
C359 C358 1.391 . S
C360 N334 1.435 . S
C360 C361 1.358 . S
C360 C365 1.371 . S
C361 H327 0.930 . S
C361 C360 1.358 . S
C361 C362 1.405 . S
C362 H328 0.932 . S
C362 C361 1.405 . S
C362 C363 1.383 . S
C363 C362 1.383 . S
C363 C364 1.393 . S
C364 H329 0.931 . S
C364 C363 1.393 . S
C364 C365 1.382 . S
C365 H330 0.929 . S
C365 C360 1.371 . S
C365 C364 1.382 . S
C366 N334 1.423 . S
C366 C367 1.362 . S
C366 C371 1.388 . S
C367 H331 0.929 . S
C367 C366 1.362 . S
C367 C368 1.376 . S
C368 H332 0.931 . S
C368 C367 1.376 . S
C368 C369 1.396 . S
C369 C351 1.472 . S
C369 C368 1.396 . S
C369 C370 1.348 . S
C370 H333 0.929 . S
C370 C369 1.348 . S
C370 C371 1.443 . S
C371 H335 0.932 . S
C371 C366 1.388 . S
C371 C370 1.443 . S
H372 C399 0.929 . S
N373 C398 1.433 . S
N373 C404 1.435 . S
N373 C410 1.423 . S
H374 C400 0.930 . S
H375 C403 0.931 . S
H376 C402 0.929 . S
H377 C405 0.930 . S
H378 C406 0.932 . S
H379 C409 0.929 . S
H380 C408 0.931 . S
H381 C411 0.929 . S
H382 C415 0.932 . S
H383 C412 0.931 . S
H384 C414 0.933 . S
H385 C417 0.929 . S
H386 C418 0.930 . S
H387 C420 0.929 . S
H388 C421 0.931 . S
H389 C423 0.930 . S
H390 C424 0.932 . S
H391 C426 0.931 . S
H392 C427 0.929 . S
H393 C429 0.929 . S
H394 C430 0.931 . S
H395 C432 0.929 . S
N396 C416 1.433 . S
N396 C422 1.435 . S
N396 C428 1.423 . S
H397 C433 0.932 . S
C398 N373 1.433 . S
C398 C399 1.363 . S
C398 C403 1.370 . S
C399 H372 0.929 . S
C399 C398 1.363 . S
C399 C400 1.385 . S
C400 H374 0.930 . S
C400 C399 1.385 . S
C400 C401 1.357 . S
C401 C400 1.357 . S
C401 C402 1.406 . S
C402 H376 0.929 . S
C402 C401 1.406 . S
C402 C403 1.391 . S
C403 H375 0.931 . S
C403 C398 1.370 . S
C403 C402 1.391 . S
C404 N373 1.435 . S
C404 C405 1.358 . S
C404 C409 1.371 . S
C405 H377 0.930 . S
C405 C404 1.358 . S
C405 C406 1.405 . S
C406 H378 0.932 . S
C406 C405 1.405 . S
C406 C407 1.383 . S
C407 C406 1.383 . S
C407 C408 1.393 . S
C408 H380 0.931 . S
C408 C407 1.393 . S
C408 C409 1.382 . S
C409 H379 0.929 . S
C409 C404 1.371 . S
C409 C408 1.382 . S
C410 N373 1.423 . S
C410 C411 1.362 1_565 S
C410 C415 1.388 . S
C411 H381 0.929 . S
C411 C410 1.362 1_545 S
C411 C412 1.376 . S
C412 H383 0.931 . S
C412 C411 1.376 . S
C412 C413 1.396 . S
C413 C412 1.396 . S
C413 C414 1.321 1_545 S
C413 C431 1.472 . S
C414 H384 0.933 . S
C414 C413 1.321 1_565 S
C414 C415 1.468 . S
C415 H382 0.932 . S
C415 C410 1.388 . S
C415 C414 1.468 . S
C416 N396 1.433 . S
C416 C417 1.363 . S
C416 C421 1.370 . S
C417 H385 0.929 . S
C417 C416 1.363 . S
C417 C418 1.385 . S
C418 H386 0.930 . S
C418 C417 1.385 . S
C418 C419 1.357 . S
C419 C418 1.357 . S
C419 C420 1.406 . S
C420 H387 0.929 . S
C420 C419 1.406 . S
C420 C421 1.391 . S
C421 H388 0.931 . S
C421 C416 1.370 . S
C421 C420 1.391 . S
C422 N396 1.435 . S
C422 C423 1.358 . S
C422 C427 1.371 . S
C423 H389 0.930 . S
C423 C422 1.358 . S
C423 C424 1.405 . S
C424 H390 0.932 . S
C424 C423 1.405 . S
C424 C425 1.383 . S
C425 C424 1.383 . S
C425 C426 1.393 . S
C426 H391 0.931 . S
C426 C425 1.393 . S
C426 C427 1.382 . S
C427 H392 0.929 . S
C427 C422 1.371 . S
C427 C426 1.382 . S
C428 N396 1.423 . S
C428 C429 1.362 . S
C428 C433 1.388 . S
C429 H393 0.929 . S
C429 C428 1.362 . S
C429 C430 1.376 . S
C430 H394 0.931 . S
C430 C429 1.376 . S
C430 C431 1.396 . S
C431 C413 1.472 . S
C431 C430 1.396 . S
C431 C432 1.348 . S
C432 H395 0.929 . S
C432 C431 1.348 . S
C432 C433 1.443 . S
C433 H397 0.932 . S
C433 C428 1.388 . S
C433 C432 1.443 . S
H434 C461 0.929 . S
N435 C460 1.433 . S
N435 C466 1.435 . S
N435 C472 1.423 . S
H436 C462 0.930 . S
H437 C465 0.931 . S
H438 C464 0.929 . S
H439 C467 0.930 . S
H440 C468 0.932 . S
H441 C471 0.929 . S
H442 C470 0.931 . S
H443 C473 0.929 . S
H444 C477 0.932 . S
H445 C474 0.931 1_655 S
H446 C476 0.929 . S
H447 C479 0.929 . S
H448 C480 0.930 . S
H449 C482 0.929 . S
H450 C483 0.931 . S
H451 C485 0.930 . S
H452 C486 0.932 . S
H453 C488 0.931 . S
H454 C489 0.929 . S
H455 C491 0.929 . S
H456 C492 0.931 . S
H457 C494 0.929 1_455 S
N458 C478 1.433 . S
N458 C484 1.435 . S
N458 C490 1.423 . S
H459 C495 0.932 . S
C460 N435 1.433 . S
C460 C461 1.363 . S
C460 C465 1.370 . S
C461 H434 0.929 . S
C461 C460 1.363 . S
C461 C462 1.385 . S
C462 H436 0.930 . S
C462 C461 1.385 . S
C462 C463 1.357 . S
C463 C462 1.357 . S
C463 C464 1.406 . S
C464 H438 0.929 . S
C464 C463 1.406 . S
C464 C465 1.391 . S
C465 H437 0.931 . S
C465 C460 1.370 . S
C465 C464 1.391 . S
C466 N435 1.435 . S
C466 C467 1.358 . S
C466 C471 1.371 . S
C467 H439 0.930 . S
C467 C466 1.358 . S
C467 C468 1.405 . S
C468 H440 0.932 . S
C468 C467 1.405 . S
C468 C469 1.383 . S
C469 C468 1.383 . S
C469 C470 1.393 . S
C470 H442 0.931 . S
C470 C469 1.393 . S
C470 C471 1.382 . S
C471 H441 0.929 . S
C471 C466 1.371 . S
C471 C470 1.382 . S
C472 N435 1.423 . S
C472 C473 1.362 . S
C472 C477 1.388 . S
C473 H443 0.929 . S
C473 C472 1.362 . S
C473 C474 1.376 . S
C474 H445 0.931 1_455 S
C474 C473 1.376 . S
C474 C475 1.396 1_565 S
C475 C474 1.396 1_545 S
C475 C476 1.348 . S
C475 C493 1.472 1_455 S
C476 H446 0.929 . S
C476 C475 1.348 . S
C476 C477 1.443 1_545 S
C477 H444 0.932 . S
C477 C472 1.388 . S
C477 C476 1.443 1_565 S
C478 N458 1.433 . S
C478 C479 1.363 . S
C478 C483 1.370 . S
C479 H447 0.929 . S
C479 C478 1.363 . S
C479 C480 1.385 . S
C480 H448 0.930 . S
C480 C479 1.385 . S
C480 C481 1.357 . S
C481 C480 1.357 . S
C481 C482 1.406 . S
C482 H449 0.929 . S
C482 C481 1.406 . S
C482 C483 1.391 . S
C483 H450 0.931 . S
C483 C478 1.370 . S
C483 C482 1.391 . S
C484 N458 1.435 . S
C484 C485 1.358 . S
C484 C489 1.371 . S
C485 H451 0.930 . S
C485 C484 1.358 . S
C485 C486 1.405 . S
C486 H452 0.932 . S
C486 C485 1.405 . S
C486 C487 1.383 . S
C487 C486 1.383 . S
C487 C488 1.393 . S
C488 H453 0.931 . S
C488 C487 1.393 . S
C488 C489 1.382 . S
C489 H454 0.929 . S
C489 C484 1.371 . S
C489 C488 1.382 . S
C490 N458 1.423 . S
C490 C491 1.362 . S
C490 C495 1.388 . S
C491 H455 0.929 . S
C491 C490 1.362 . S
C491 C492 1.376 . S
C492 H456 0.931 . S
C492 C491 1.376 . S
C492 C493 1.396 . S
C493 C475 1.472 1_655 S
C493 C492 1.396 . S
C493 C494 1.348 . S
C494 H457 0.929 1_655 S
C494 C493 1.348 . S
C494 C495 1.443 . S
C495 H459 0.932 . S
C495 C490 1.388 . S
C495 C494 1.443 . S
C496 O497 1.306 . S
C496 O499 1.160 . S
O497 C496 1.306 . S
O497 Cd498 2.228 . S
Cd498 O497 2.228 . S
Cd498 O502 2.273 1_554 S
Cd498 O506 2.277 . S
O499 C496 1.160 . S
O499 Cd500 2.203 . S
Cd500 O499 2.203 . S
Cd500 O502 2.411 1_554 S
Cd500 O503 2.333 1_554 S
Cd500 O504 2.352 . S
Cd500 O508 2.277 . S
Cd500 O509 2.356 . S
C501 O506 1.209 . S
C501 O508 1.226 . S
O502 Cd498 2.273 1_556 S
O502 Cd500 2.411 1_556 S
O502 C505 1.320 . S
O503 Cd500 2.333 1_556 S
O503 C505 1.214 . S
O504 Cd500 2.352 . S
O504 C507 1.258 . S
C505 O502 1.320 . S
C505 O503 1.214 . S
O506 Cd498 2.277 . S
O506 C501 1.209 . S
C507 O504 1.258 . S
C507 O509 1.282 . S
O508 Cd500 2.277 . S
O508 C501 1.226 . S
O509 Cd500 2.356 . S
O509 C507 1.282 . S
C510 O511 1.306 . S
C510 O513 1.160 . S
O511 C510 1.306 . S
O511 Cd512 2.228 . S
Cd512 O511 2.228 . S
Cd512 O516 2.273 . S
Cd512 O520 2.277 . S
O513 C510 1.160 . S
O513 Cd514 2.203 . S
Cd514 O513 2.203 . S
Cd514 O516 2.411 . S
Cd514 O517 2.333 . S
Cd514 O518 2.352 . S
Cd514 O522 2.277 . S
Cd514 O523 2.356 . S
C515 O520 1.209 . S
C515 O522 1.226 . S
O516 Cd512 2.273 . S
O516 Cd514 2.411 . S
O516 C519 1.320 . S
O517 Cd514 2.333 . S
O517 C519 1.214 . S
O518 Cd514 2.352 . S
O518 C521 1.258 . S
C519 O516 1.320 . S
C519 O517 1.214 . S
O520 Cd512 2.277 . S
O520 C515 1.209 . S
C521 O518 1.258 . S
C521 O523 1.282 . S
O522 Cd514 2.277 . S
O522 C515 1.226 . S
O523 Cd514 2.356 . S
O523 C521 1.282 . S
C524 O525 1.306 . S
C524 O527 1.160 . S
O525 C524 1.306 . S
O525 Cd526 2.228 . S
Cd526 O525 2.228 . S
Cd526 O530 2.273 . S
Cd526 O534 2.277 . S
O527 C524 1.160 . S
O527 Cd528 2.203 . S
Cd528 O527 2.203 . S
Cd528 O530 2.411 . S
Cd528 O531 2.333 . S
Cd528 O532 2.352 . S
Cd528 O536 2.277 . S
Cd528 O537 2.356 . S
C529 O534 1.209 . S
C529 O536 1.226 . S
O530 Cd526 2.273 . S
O530 Cd528 2.411 . S
O530 C533 1.320 . S
O531 Cd528 2.333 . S
O531 C533 1.214 . S
O532 Cd528 2.352 . S
O532 C535 1.258 . S
C533 O530 1.320 . S
C533 O531 1.214 . S
O534 Cd526 2.277 . S
O534 C529 1.209 . S
C535 O532 1.258 . S
C535 O537 1.282 . S
O536 Cd528 2.277 . S
O536 C529 1.226 . S
O537 Cd528 2.356 . S
O537 C535 1.282 . S
C538 O539 1.306 . S
C538 O541 1.160 . S
O539 C538 1.306 . S
O539 Cd540 2.228 . S
Cd540 O539 2.228 . S
Cd540 O544 2.273 . S
Cd540 O548 2.277 . S
O541 C538 1.160 . S
O541 Cd542 2.203 . S
Cd542 O541 2.203 . S
Cd542 O544 2.411 . S
Cd542 O545 2.333 . S
Cd542 O546 2.352 . S
Cd542 O550 2.277 . S
Cd542 O551 2.356 . S
C543 O548 1.209 . S
C543 O550 1.226 . S
O544 Cd540 2.273 . S
O544 Cd542 2.411 . S
O544 C547 1.320 . S
O545 Cd542 2.333 . S
O545 C547 1.214 . S
O546 Cd542 2.352 . S
O546 C549 1.258 . S
C547 O544 1.320 . S
C547 O545 1.214 . S
O548 Cd540 2.277 . S
O548 C543 1.209 . S
C549 O546 1.258 . S
C549 O551 1.282 . S
O550 Cd542 2.277 . S
O550 C543 1.226 . S
O551 Cd542 2.356 . S
O551 C549 1.282 . S
C552 O553 1.306 . S
C552 O555 1.160 . S
O553 C552 1.306 . S
O553 Cd554 2.228 . S
Cd554 O553 2.228 . S
Cd554 O558 2.273 . S
Cd554 O562 2.277 . S
O555 C552 1.160 . S
O555 Cd556 2.203 . S
Cd556 O555 2.203 . S
Cd556 O558 2.411 . S
Cd556 O559 2.333 . S
Cd556 O560 2.352 . S
Cd556 O564 2.277 . S
Cd556 O565 2.356 . S
C557 O562 1.209 . S
C557 O564 1.226 . S
O558 Cd554 2.273 . S
O558 Cd556 2.411 . S
O558 C561 1.320 . S
O559 Cd556 2.333 . S
O559 C561 1.214 . S
O560 Cd556 2.352 . S
O560 C563 1.258 . S
C561 O558 1.320 . S
C561 O559 1.214 . S
O562 Cd554 2.277 . S
O562 C557 1.209 . S
C563 O560 1.258 . S
C563 O565 1.282 . S
O564 Cd556 2.277 . S
O564 C557 1.226 . S
O565 Cd556 2.356 . S
O565 C563 1.282 . S
C566 O567 1.306 . S
C566 O569 1.160 . S
O567 C566 1.306 . S
O567 Cd568 2.228 . S
Cd568 O567 2.228 . S
Cd568 O572 2.273 . S
Cd568 O576 2.277 . S
O569 C566 1.160 . S
O569 Cd570 2.203 . S
Cd570 O569 2.203 . S
Cd570 O572 2.411 . S
Cd570 O573 2.333 . S
Cd570 O574 2.352 . S
Cd570 O578 2.277 . S
Cd570 O579 2.356 . S
C571 O576 1.209 . S
C571 O578 1.226 . S
O572 Cd568 2.273 . S
O572 Cd570 2.411 . S
O572 C575 1.320 . S
O573 Cd570 2.333 . S
O573 C575 1.214 . S
O574 Cd570 2.352 . S
O574 C577 1.258 . S
C575 O572 1.320 . S
C575 O573 1.214 . S
O576 Cd568 2.277 . S
O576 C571 1.209 . S
C577 O574 1.258 . S
C577 O579 1.282 . S
O578 Cd570 2.277 . S
O578 C571 1.226 . S
O579 Cd570 2.356 . S
O579 C577 1.282 . S
C580 O581 1.306 . S
C580 O583 1.160 . S
O581 C580 1.306 . S
O581 Cd582 2.228 1_556 S
Cd582 O581 2.228 1_554 S
Cd582 O586 2.273 . S
Cd582 O590 2.273 1_554 S
O583 C580 1.160 . S
O583 Cd584 2.203 1_556 S
Cd584 O583 2.203 1_554 S
Cd584 O586 2.411 . S
Cd584 O587 2.333 . S
Cd584 O588 2.352 . S
Cd584 O592 2.277 1_554 S
Cd584 O593 2.356 . S
C585 O590 1.217 . S
C585 O592 1.226 . S
O586 Cd582 2.273 . S
O586 Cd584 2.411 . S
O586 C589 1.320 . S
O587 Cd584 2.333 . S
O587 C589 1.214 . S
O588 Cd584 2.352 . S
O588 C591 1.258 . S
C589 O586 1.320 . S
C589 O587 1.214 . S
O590 Cd582 2.273 1_556 S
O590 C585 1.217 . S
C591 O588 1.258 . S
C591 O593 1.282 . S
O592 Cd584 2.277 1_556 S
O592 C585 1.226 . S
O593 Cd584 2.356 . S
O593 C591 1.282 . S
C594 O595 1.306 . S
C594 O597 1.160 . S
O595 C594 1.306 . S
O595 Cd596 2.228 . S
Cd596 O595 2.228 . S
Cd596 O600 2.273 . S
Cd596 O604 2.277 . S
O597 C594 1.160 . S
O597 Cd598 2.203 . S
Cd598 O597 2.203 . S
Cd598 O600 2.411 . S
Cd598 O601 2.333 . S
Cd598 O602 2.352 . S
Cd598 O606 2.277 . S
Cd598 O607 2.356 . S
C599 O604 1.209 . S
C599 O606 1.226 . S
O600 Cd596 2.273 . S
O600 Cd598 2.411 . S
O600 C603 1.320 . S
O601 Cd598 2.333 . S
O601 C603 1.214 . S
O602 Cd598 2.352 . S
O602 C605 1.258 . S
C603 O600 1.320 . S
C603 O601 1.214 . S
O604 Cd596 2.277 . S
O604 C599 1.209 . S
C605 O602 1.258 . S
C605 O607 1.282 . S
O606 Cd598 2.277 . S
O606 C599 1.226 . S
O607 Cd598 2.356 . S
O607 C605 1.282 . S
C608 C609 1.349 . S
C608 C610 1.327 . S
C608 H633 0.950 . S
C609 C608 1.349 . S
C609 C625 1.349 . S
C610 C608 1.327 . S
C610 C629 1.429 . S
C610 H634 0.950 . S
C611 C628 1.574 . S
C611 C630 1.368 . S
C611 H635 0.949 . S
H612 C616 0.949 . S
C613 C614 1.349 . S
C613 C615 1.327 . S
C613 H636 0.950 . S
C614 C613 1.349 . S
C614 C626 1.349 . S
C615 C613 1.327 . S
C615 C631 1.429 . S
C615 H637 0.950 . S
C616 H612 0.949 . S
C616 C624 1.574 . S
C616 C632 1.368 . S
H617 C625 0.950 . S
H618 C623 0.950 . S
H619 C624 0.949 . S
H620 C626 0.950 . S
H621 C627 0.950 . S
H622 C628 0.949 . S
C623 H618 0.950 . S
C623 C625 1.327 . S
C623 C629 1.429 . S
C624 C616 1.574 . S
C624 H619 0.949 . S
C624 C630 1.368 . S
C625 C609 1.349 . S
C625 H617 0.950 . S
C625 C623 1.327 . S
C626 C614 1.349 . S
C626 H620 0.950 . S
C626 C627 1.327 . S
C627 H621 0.950 . S
C627 C626 1.327 . S
C627 C631 1.429 . S
C628 C611 1.574 . S
C628 H622 0.949 . S
C628 C632 1.368 . S
C629 C610 1.429 . S
C629 C623 1.429 . S
C629 C630 1.523 . S
C630 C611 1.368 . S
C630 C624 1.368 . S
C630 C629 1.523 . S
C631 C615 1.429 . S
C631 C627 1.429 . S
C631 C632 1.523 . S
C632 C616 1.368 . S
C632 C628 1.368 . S
C632 C631 1.523 . S
H633 C608 0.950 . S
H634 C610 0.950 . S
H635 C611 0.949 . S
H636 C613 0.950 . S
H637 C615 0.950 . S
C638 C639 1.349 . S
C638 C640 1.327 . S
C638 H663 0.950 . S
C639 C638 1.349 . S
C639 C655 1.349 . S
C640 C638 1.327 . S
C640 C659 1.429 . S
C640 H664 0.950 . S
C641 C658 1.574 . S
C641 C660 1.368 . S
C641 H665 0.949 . S
H642 C646 0.949 . S
C643 C644 1.349 . S
C643 C645 1.327 . S
C643 H666 0.950 . S
C644 C643 1.349 . S
C644 C656 1.349 . S
C645 C643 1.327 . S
C645 C661 1.429 . S
C645 H667 0.950 . S
C646 H642 0.949 . S
C646 C654 1.574 . S
C646 C662 1.368 . S
H647 C655 0.950 . S
H648 C653 0.950 . S
H649 C654 0.949 . S
H650 C656 0.950 . S
H651 C657 0.950 . S
H652 C658 0.949 . S
C653 H648 0.950 . S
C653 C655 1.327 . S
C653 C659 1.429 . S
C654 C646 1.574 . S
C654 H649 0.949 . S
C654 C660 1.368 . S
C655 C639 1.349 . S
C655 H647 0.950 . S
C655 C653 1.327 . S
C656 C644 1.349 . S
C656 H650 0.950 . S
C656 C657 1.327 . S
C657 H651 0.950 . S
C657 C656 1.327 . S
C657 C661 1.429 . S
C658 C641 1.574 . S
C658 H652 0.949 . S
C658 C662 1.368 . S
C659 C640 1.429 . S
C659 C653 1.429 . S
C659 C660 1.523 . S
C660 C641 1.368 . S
C660 C654 1.368 . S
C660 C659 1.523 . S
C661 C645 1.429 . S
C661 C657 1.429 . S
C661 C662 1.523 . S
C662 C646 1.368 . S
C662 C658 1.368 . S
C662 C661 1.523 . S
H663 C638 0.950 . S
H664 C640 0.950 . S
H665 C641 0.949 . S
H666 C643 0.950 . S
H667 C645 0.950 . S
C668 C669 1.349 . S
C668 C670 1.327 . S
C668 H693 0.950 . S
C669 C668 1.349 . S
C669 C685 1.349 . S
C670 C668 1.327 . S
C670 C689 1.429 . S
C670 H694 0.950 . S
C671 C688 1.574 . S
C671 C690 1.368 . S
C671 H695 0.949 . S
H672 C676 0.949 . S
C673 C674 1.349 . S
C673 C675 1.327 . S
C673 H696 0.950 . S
C674 C673 1.349 . S
C674 C686 1.349 . S
C675 C673 1.327 . S
C675 C691 1.429 . S
C675 H697 0.950 . S
C676 H672 0.949 . S
C676 C684 1.574 . S
C676 C692 1.368 . S
H677 C685 0.950 . S
H678 C683 0.950 . S
H679 C684 0.949 . S
H680 C686 0.950 . S
H681 C687 0.950 . S
H682 C688 0.949 . S
C683 H678 0.950 . S
C683 C685 1.327 . S
C683 C689 1.429 . S
C684 C676 1.574 . S
C684 H679 0.949 . S
C684 C690 1.368 . S
C685 C669 1.349 . S
C685 H677 0.950 . S
C685 C683 1.327 . S
C686 C674 1.349 . S
C686 H680 0.950 . S
C686 C687 1.327 . S
C687 H681 0.950 . S
C687 C686 1.327 . S
C687 C691 1.429 . S
C688 C671 1.574 . S
C688 H682 0.949 . S
C688 C692 1.368 . S
C689 C670 1.429 . S
C689 C683 1.429 . S
C689 C690 1.523 . S
C690 C671 1.368 . S
C690 C684 1.368 . S
C690 C689 1.523 . S
C691 C675 1.429 . S
C691 C687 1.429 . S
C691 C692 1.523 . S
C692 C676 1.368 . S
C692 C688 1.368 . S
C692 C691 1.523 . S
H693 C668 0.950 . S
H694 C670 0.950 . S
H695 C671 0.949 . S
H696 C673 0.950 . S
H697 C675 0.950 . S
C698 C699 1.349 . S
C698 C700 1.327 . S
C698 H723 0.950 . S
C699 C698 1.349 . S
C699 C715 1.349 . S
C700 C698 1.327 . S
C700 C719 1.429 . S
C700 H724 0.950 . S
C701 C718 1.574 . S
C701 C720 1.368 . S
C701 H725 0.936 1_554 S
H702 C706 0.949 . S
C703 C704 1.349 . S
C703 C705 1.327 . S
C703 H726 0.950 1_554 S
C704 C703 1.349 . S
C704 C716 1.349 . S
C705 C703 1.327 . S
C705 C721 1.429 . S
C705 H727 0.950 1_554 S
C706 H702 0.949 . S
C706 C714 1.574 . S
C706 C722 1.368 . S
H707 C715 0.950 . S
H708 C713 0.950 . S
H709 C714 0.949 . S
H710 C716 0.950 . S
H711 C717 0.950 . S
H712 C718 0.949 1_556 S
C713 H708 0.950 . S
C713 C715 1.327 . S
C713 C719 1.429 . S
C714 C706 1.574 . S
C714 H709 0.949 . S
C714 C720 1.368 . S
C715 C699 1.349 . S
C715 H707 0.950 . S
C715 C713 1.327 . S
C716 C704 1.349 . S
C716 H710 0.950 . S
C716 C717 1.327 . S
C717 H711 0.950 . S
C717 C716 1.327 . S
C717 C721 1.429 . S
C718 C701 1.574 . S
C718 H712 0.949 1_554 S
C718 C722 1.368 . S
C719 C700 1.429 . S
C719 C713 1.429 . S
C719 C720 1.523 . S
C720 C701 1.368 . S
C720 C714 1.368 . S
C720 C719 1.523 . S
C721 C705 1.429 . S
C721 C717 1.429 . S
C721 C722 1.523 . S
C722 C706 1.368 . S
C722 C718 1.368 . S
C722 C721 1.523 . S
H723 C698 0.950 . S
H724 C700 0.950 . S
H725 C701 0.936 1_556 S
H726 C703 0.950 1_556 S
H727 C705 0.950 1_556 S
C728 C729 1.349 . S
C728 C730 1.327 . S
C728 H753 0.950 . S
C729 C728 1.349 . S
C729 C745 1.349 . S
C730 C728 1.327 . S
C730 C749 1.429 . S
C730 H754 0.950 . S
C731 C748 1.574 . S
C731 C750 1.368 1_554 S
C731 H755 0.949 . S
H732 C736 0.949 . S
C733 C734 1.349 . S
C733 C735 1.327 . S
C733 H756 0.950 . S
C734 C733 1.349 . S
C734 C746 1.349 1_554 S
C735 C733 1.327 . S
C735 C751 1.429 1_554 S
C735 H757 0.950 . S
C736 H732 0.949 . S
C736 C744 1.574 . S
C736 C752 1.368 . S
H737 C745 0.950 1_554 S
H738 C743 0.950 1_554 S
H739 C744 0.949 . S
H740 C746 0.950 . S
H741 C747 0.950 . S
H742 C748 0.949 . S
C743 H738 0.950 1_556 S
C743 C745 1.327 . S
C743 C749 1.429 . S
C744 C736 1.574 . S
C744 H739 0.949 . S
C744 C750 1.368 . S
C745 C729 1.349 . S
C745 H737 0.950 1_556 S
C745 C743 1.327 . S
C746 C734 1.349 1_556 S
C746 H740 0.950 . S
C746 C747 1.327 . S
C747 H741 0.950 . S
C747 C746 1.327 . S
C747 C751 1.429 . S
C748 C731 1.574 . S
C748 H742 0.949 . S
C748 C752 1.368 1_554 S
C749 C730 1.429 . S
C749 C743 1.429 . S
C749 C750 1.523 . S
C750 C731 1.368 1_556 S
C750 C744 1.368 . S
C750 C749 1.523 . S
C751 C735 1.429 1_556 S
C751 C747 1.429 . S
C751 C752 1.523 . S
C752 C736 1.368 . S
C752 C748 1.368 1_556 S
C752 C751 1.523 . S
H753 C728 0.950 . S
H754 C730 0.950 . S
H755 C731 0.949 . S
H756 C733 0.950 . S
H757 C735 0.950 . S
C758 C759 1.349 . S
C758 C760 1.327 . S
C758 H783 0.950 . S
C759 C758 1.349 . S
C759 C775 1.349 . S
C760 C758 1.327 . S
C760 C779 1.429 . S
C760 H784 0.950 . S
C761 C778 1.574 . S
C761 C780 1.368 . S
C761 H785 0.949 . S
H762 C766 0.949 . S
C763 C764 1.349 . S
C763 C765 1.327 . S
C763 H786 0.950 . S
C764 C763 1.349 . S
C764 C776 1.349 . S
C765 C763 1.327 . S
C765 C781 1.429 . S
C765 H787 0.950 . S
C766 H762 0.949 . S
C766 C774 1.574 . S
C766 C782 1.368 . S
H767 C775 0.950 . S
H768 C773 0.950 . S
H769 C774 0.949 . S
H770 C776 0.950 . S
H771 C777 0.950 . S
H772 C778 0.949 . S
C773 H768 0.950 . S
C773 C775 1.327 . S
C773 C779 1.429 . S
C774 C766 1.574 . S
C774 H769 0.949 . S
C774 C780 1.368 . S
C775 C759 1.349 . S
C775 H767 0.950 . S
C775 C773 1.327 . S
C776 C764 1.349 . S
C776 H770 0.950 . S
C776 C777 1.327 . S
C777 H771 0.950 . S
C777 C776 1.327 . S
C777 C781 1.429 . S
C778 C761 1.574 . S
C778 H772 0.949 . S
C778 C782 1.368 . S
C779 C760 1.429 . S
C779 C773 1.429 . S
C779 C780 1.523 . S
C780 C761 1.368 . S
C780 C774 1.368 . S
C780 C779 1.523 . S
C781 C765 1.429 . S
C781 C777 1.429 . S
C781 C782 1.523 . S
C782 C766 1.368 . S
C782 C778 1.368 . S
C782 C781 1.523 . S
H783 C758 0.950 . S
H784 C760 0.950 . S
H785 C761 0.949 . S
H786 C763 0.950 . S
H787 C765 0.950 . S
C788 C789 1.349 . S
C788 C790 1.327 . S
C788 H813 0.950 . S
C789 C788 1.349 . S
C789 C805 1.349 . S
C790 C788 1.327 . S
C790 C809 1.429 . S
C790 H814 0.950 . S
C791 C808 1.574 . S
C791 C810 1.368 . S
C791 H815 0.949 . S
H792 C796 0.949 . S
C793 C794 1.349 . S
C793 C795 1.327 . S
C793 H816 0.950 . S
C794 C793 1.349 . S
C794 C806 1.349 . S
C795 C793 1.327 . S
C795 C811 1.429 . S
C795 H817 0.950 . S
C796 H792 0.949 . S
C796 C804 1.574 . S
C796 C812 1.368 . S
H797 C805 0.950 . S
H798 C803 0.950 . S
H799 C804 0.949 . S
H800 C806 0.950 . S
H801 C807 0.950 . S
H802 C808 0.949 . S
C803 H798 0.950 . S
C803 C805 1.327 . S
C803 C809 1.429 . S
C804 C796 1.574 . S
C804 H799 0.949 . S
C804 C810 1.368 . S
C805 C789 1.349 . S
C805 H797 0.950 . S
C805 C803 1.327 . S
C806 C794 1.349 . S
C806 H800 0.950 . S
C806 C807 1.327 . S
C807 H801 0.950 . S
C807 C806 1.327 . S
C807 C811 1.429 . S
C808 C791 1.574 . S
C808 H802 0.949 . S
C808 C812 1.368 . S
C809 C790 1.429 . S
C809 C803 1.429 . S
C809 C810 1.523 . S
C810 C791 1.368 . S
C810 C804 1.368 . S
C810 C809 1.523 . S
C811 C795 1.429 . S
C811 C807 1.429 . S
C811 C812 1.523 . S
C812 C796 1.368 . S
C812 C808 1.368 . S
C812 C811 1.523 . S
H813 C788 0.950 . S
H814 C790 0.950 . S
H815 C791 0.949 . S
H816 C793 0.950 . S
H817 C795 0.950 . S
C818 C819 1.349 . S
C818 C820 1.327 . S
C818 H843 0.950 . S
C819 C818 1.349 . S
C819 C835 1.349 . S
C820 C818 1.327 . S
C820 C839 1.429 . S
C820 H844 0.950 . S
C821 C838 1.574 . S
C821 C840 1.368 . S
C821 H845 0.949 . S
H822 C826 0.949 . S
C823 C824 1.349 . S
C823 C825 1.327 . S
C823 H846 0.950 . S
C824 C823 1.349 . S
C824 C836 1.349 . S
C825 C823 1.327 . S
C825 C841 1.429 . S
C825 H847 0.950 . S
C826 H822 0.949 . S
C826 C834 1.574 . S
C826 C842 1.368 . S
H827 C835 0.950 . S
H828 C833 0.950 . S
H829 C834 0.949 . S
H830 C836 0.950 . S
H831 C837 0.950 . S
H832 C838 0.949 . S
C833 H828 0.950 . S
C833 C835 1.327 . S
C833 C839 1.429 . S
C834 C826 1.574 . S
C834 H829 0.949 . S
C834 C840 1.368 . S
C835 C819 1.349 . S
C835 H827 0.950 . S
C835 C833 1.327 . S
C836 C824 1.349 . S
C836 H830 0.950 . S
C836 C837 1.327 . S
C837 H831 0.950 . S
C837 C836 1.327 . S
C837 C841 1.429 . S
C838 C821 1.574 . S
C838 H832 0.949 . S
C838 C842 1.368 . S
C839 C820 1.429 . S
C839 C833 1.429 . S
C839 C840 1.523 . S
C840 C821 1.368 . S
C840 C834 1.368 . S
C840 C839 1.523 . S
C841 C825 1.429 . S
C841 C837 1.429 . S
C841 C842 1.523 . S
C842 C826 1.368 . S
C842 C838 1.368 . S
C842 C841 1.523 . S
H843 C818 0.950 . S
H844 C820 0.950 . S
H845 C821 0.949 . S
H846 C823 0.950 . S
H847 C825 0.950 . S
C848 C849 1.349 . S
C848 C850 1.327 . S
C848 H873 0.950 . S
C849 C848 1.349 . S
C849 C865 1.349 . S
C850 C848 1.327 . S
C850 C869 1.429 . S
C850 H874 0.950 . S
C851 C868 1.574 . S
C851 C870 1.368 . S
C851 H875 0.949 . S
H852 C856 0.949 . S
C853 C854 1.349 . S
C853 C855 1.327 . S
C853 H876 0.950 . S
C854 C853 1.349 . S
C854 C866 1.349 . S
C855 C853 1.327 . S
C855 C871 1.429 . S
C855 H877 0.950 . S
C856 H852 0.949 . S
C856 C864 1.574 . S
C856 C872 1.368 . S
H857 C865 0.950 . S
H858 C863 0.950 . S
H859 C864 0.949 . S
H860 C866 0.950 . S
H861 C867 0.950 . S
H862 C868 0.949 . S
C863 H858 0.950 . S
C863 C865 1.327 . S
C863 C869 1.429 . S
C864 C856 1.574 . S
C864 H859 0.949 . S
C864 C870 1.368 . S
C865 C849 1.349 . S
C865 H857 0.950 . S
C865 C863 1.327 . S
C866 C854 1.349 . S
C866 H860 0.950 . S
C866 C867 1.327 . S
C867 H861 0.950 . S
C867 C866 1.327 . S
C867 C871 1.429 . S
C868 C851 1.574 . S
C868 H862 0.949 . S
C868 C872 1.368 . S
C869 C850 1.429 . S
C869 C863 1.429 . S
C869 C870 1.523 . S
C870 C851 1.368 . S
C870 C864 1.368 . S
C870 C869 1.523 . S
C871 C855 1.429 . S
C871 C867 1.429 . S
C871 C872 1.523 . S
C872 C856 1.368 . S
C872 C868 1.368 . S
C872 C871 1.523 . S
H873 C848 0.950 . S
H874 C850 0.950 . S
H875 C851 0.949 . S
H876 C853 0.950 . S
H877 C855 0.950 . S
C878 C879 1.349 . S
C878 C880 1.327 . S
C878 H903 0.950 . S
C879 C878 1.349 . S
C879 C895 1.349 . S
C880 C878 1.327 . S
C880 C899 1.429 . S
C880 H904 0.950 . S
C881 C898 1.574 . S
C881 C900 1.368 . S
C881 H905 0.949 1_554 S
H882 C886 0.949 . S
C883 C884 1.349 1_556 S
C883 C885 1.337 . S
C883 H906 0.950 . S
C884 C883 1.349 1_554 S
C884 C896 1.349 . S
C885 C883 1.337 . S
C885 C901 1.370 1_556 S
C885 H907 1.005 . S
C886 H882 0.949 . S
C886 C894 1.574 . S
C886 C902 1.368 . S
H887 C895 0.950 . S
H888 C893 0.950 1_556 S
H889 C894 0.949 . S
H890 C896 0.950 . S
H891 C897 0.950 . S
H892 C898 0.949 1_556 S
C893 H888 0.950 1_554 S
C893 C895 1.327 . S
C893 C899 1.429 . S
C894 C886 1.574 . S
C894 H889 0.949 . S
C894 C900 1.368 . S
C895 C879 1.349 . S
C895 H887 0.950 . S
C895 C893 1.327 . S
C896 C884 1.349 . S
C896 H890 0.950 . S
C896 C897 1.327 . S
C897 H891 0.950 . S
C897 C896 1.327 . S
C897 C901 1.429 . S
C898 C881 1.574 . S
C898 H892 0.949 1_554 S
C898 C902 1.368 . S
C899 C880 1.429 . S
C899 C893 1.429 . S
C899 C900 1.523 . S
C900 C881 1.368 . S
C900 C894 1.368 . S
C900 C899 1.523 . S
C901 C885 1.370 1_554 S
C901 C897 1.429 . S
C901 C902 1.523 . S
C902 C886 1.368 . S
C902 C898 1.368 . S
C902 C901 1.523 . S
H903 C878 0.950 . S
H904 C880 0.950 . S
H905 C881 0.949 1_556 S
H906 C883 0.950 . S
H907 C885 1.005 . S
C908 C909 1.349 . S
C908 C910 1.327 . S
C908 H933 0.950 . S
C909 C908 1.349 . S
C909 C925 1.349 . S
C910 C908 1.327 . S
C910 C929 1.429 . S
C910 H934 0.950 . S
C911 C928 1.574 . S
C911 C930 1.368 . S
C911 H935 0.949 . S
H912 C916 0.949 . S
C913 C914 1.349 . S
C913 C915 1.327 . S
C913 H936 0.950 . S
C914 C913 1.349 . S
C914 C926 1.349 . S
C915 C913 1.327 . S
C915 C931 1.429 . S
C915 H937 0.950 . S
C916 H912 0.949 . S
C916 C924 1.574 . S
C916 C932 1.368 . S
H917 C925 0.950 . S
H918 C923 0.950 . S
H919 C924 0.949 . S
H920 C926 0.950 . S
H921 C927 0.950 . S
H922 C928 0.949 . S
C923 H918 0.950 . S
C923 C925 1.327 . S
C923 C929 1.429 . S
C924 C916 1.574 . S
C924 H919 0.949 . S
C924 C930 1.368 . S
C925 C909 1.349 . S
C925 H917 0.950 . S
C925 C923 1.327 . S
C926 C914 1.349 . S
C926 H920 0.950 . S
C926 C927 1.327 . S
C927 H921 0.950 . S
C927 C926 1.327 . S
C927 C931 1.429 . S
C928 C911 1.574 . S
C928 H922 0.949 . S
C928 C932 1.368 . S
C929 C910 1.429 . S
C929 C923 1.429 . S
C929 C930 1.523 . S
C930 C911 1.368 . S
C930 C924 1.368 . S
C930 C929 1.523 . S
C931 C915 1.429 . S
C931 C927 1.429 . S
C931 C932 1.523 . S
C932 C916 1.368 . S
C932 C928 1.368 . S
C932 C931 1.523 . S
H933 C908 0.950 . S
H934 C910 0.950 . S
H935 C911 0.949 . S
H936 C913 0.950 . S
H937 C915 0.950 . S
C938 C939 1.349 . S
C938 C940 1.327 . S
C938 H963 0.950 . S
C939 C938 1.349 . S
C939 C955 1.349 . S
C940 C938 1.327 . S
C940 C959 1.429 . S
C940 H964 0.950 . S
C941 C958 1.574 . S
C941 C960 1.368 . S
C941 H965 0.949 . S
H942 C946 0.949 . S
C943 C944 1.349 . S
C943 C945 1.327 . S
C943 H966 0.950 . S
C944 C943 1.349 . S
C944 C956 1.349 . S
C945 C943 1.327 . S
C945 C961 1.429 . S
C945 H967 0.950 . S
C946 H942 0.949 . S
C946 C954 1.574 . S
C946 C962 1.368 . S
H947 C955 0.950 . S
H948 C953 0.950 . S
H949 C954 0.949 . S
H950 C956 0.950 . S
H951 C957 0.950 . S
H952 C958 0.949 . S
C953 H948 0.950 . S
C953 C955 1.327 . S
C953 C959 1.429 . S
C954 C946 1.574 . S
C954 H949 0.949 . S
C954 C960 1.368 . S
C955 C939 1.349 . S
C955 H947 0.950 . S
C955 C953 1.327 . S
C956 C944 1.349 . S
C956 H950 0.950 . S
C956 C957 1.327 . S
C957 H951 0.950 . S
C957 C956 1.327 . S
C957 C961 1.429 . S
C958 C941 1.574 . S
C958 H952 0.949 . S
C958 C962 1.368 . S
C959 C940 1.429 . S
C959 C953 1.429 . S
C959 C960 1.523 . S
C960 C941 1.368 . S
C960 C954 1.368 . S
C960 C959 1.523 . S
C961 C945 1.429 . S
C961 C957 1.429 . S
C961 C962 1.523 . S
C962 C946 1.368 . S
C962 C958 1.368 . S
C962 C961 1.523 . S
H963 C938 0.950 . S
H964 C940 0.950 . S
H965 C941 0.949 . S
H966 C943 0.950 . S
H967 C945 0.950 . S
C968 C969 1.349 . S
C968 C970 1.327 . S
C968 H993 0.950 . S
C969 C968 1.349 . S
C969 C985 1.349 . S
C970 C968 1.327 . S
C970 C989 1.429 . S
C970 H994 0.950 . S
C971 C988 1.574 . S
C971 C990 1.368 . S
C971 H995 0.949 . S
H972 C976 0.949 . S
C973 C974 1.349 . S
C973 C975 1.327 . S
C973 H996 0.950 . S
C974 C973 1.349 . S
C974 C986 1.349 . S
C975 C973 1.327 . S
C975 C991 1.429 . S
C975 H997 0.950 . S
C976 H972 0.949 . S
C976 C984 1.574 . S
C976 C992 1.368 . S
H977 C985 0.950 . S
H978 C983 0.950 . S
H979 C984 0.949 . S
H980 C986 0.950 . S
H981 C987 0.950 . S
H982 C988 0.949 . S
C983 H978 0.950 . S
C983 C985 1.327 . S
C983 C989 1.429 . S
C984 C976 1.574 . S
C984 H979 0.949 . S
C984 C990 1.368 . S
C985 C969 1.349 . S
C985 H977 0.950 . S
C985 C983 1.327 . S
C986 C974 1.349 . S
C986 H980 0.950 . S
C986 C987 1.327 . S
C987 H981 0.950 . S
C987 C986 1.327 . S
C987 C991 1.429 . S
C988 C971 1.574 . S
C988 H982 0.949 . S
C988 C992 1.368 . S
C989 C970 1.429 . S
C989 C983 1.429 . S
C989 C990 1.523 . S
C990 C971 1.368 . S
C990 C984 1.368 . S
C990 C989 1.523 . S
C991 C975 1.429 . S
C991 C987 1.429 . S
C991 C992 1.523 . S
C992 C976 1.368 . S
C992 C988 1.368 . S
C992 C991 1.523 . S
H993 C968 0.950 . S
H994 C970 0.950 . S
H995 C971 0.949 . S
H996 C973 0.950 . S
H997 C975 0.950 . S
C998 C999 1.349 . S
C998 C1000 1.327 . S
C998 H1023 0.950 . S
C999 C998 1.349 . S
C999 C1015 1.349 . S
C1000 C998 1.327 . S
C1000 C1019 1.429 . S
C1000 H1024 0.950 . S
C1001 C1018 1.574 . S
C1001 C1020 1.368 . S
C1001 H1025 0.949 . S
H1002 C1006 0.949 . S
C1003 C1004 1.349 . S
C1003 C1005 1.327 . S
C1003 H1026 0.950 . S
C1004 C1003 1.349 . S
C1004 C1016 1.349 . S
C1005 C1003 1.327 . S
C1005 C1021 1.429 . S
C1005 H1027 0.950 . S
C1006 H1002 0.949 . S
C1006 C1014 1.574 . S
C1006 C1022 1.368 . S
H1007 C1015 0.950 . S
H1008 C1013 0.950 . S
H1009 C1014 0.949 . S
H1010 C1016 0.950 . S
H1011 C1017 0.950 . S
H1012 C1018 0.949 . S
C1013 H1008 0.950 . S
C1013 C1015 1.327 . S
C1013 C1019 1.429 . S
C1014 C1006 1.574 . S
C1014 H1009 0.949 . S
C1014 C1020 1.368 . S
C1015 C999 1.349 . S
C1015 H1007 0.950 . S
C1015 C1013 1.327 . S
C1016 C1004 1.349 . S
C1016 H1010 0.950 . S
C1016 C1017 1.327 . S
C1017 H1011 0.950 . S
C1017 C1016 1.327 . S
C1017 C1021 1.429 . S
C1018 C1001 1.574 . S
C1018 H1012 0.949 . S
C1018 C1022 1.368 . S
C1019 C1000 1.429 . S
C1019 C1013 1.429 . S
C1019 C1020 1.523 . S
C1020 C1001 1.368 . S
C1020 C1014 1.368 . S
C1020 C1019 1.523 . S
C1021 C1005 1.429 . S
C1021 C1017 1.429 . S
C1021 C1022 1.523 . S
C1022 C1006 1.368 . S
C1022 C1018 1.368 . S
C1022 C1021 1.523 . S
H1023 C998 0.950 . S
H1024 C1000 0.950 . S
H1025 C1001 0.949 . S
H1026 C1003 0.950 . S
H1027 C1005 0.950 . S
C1028 C1029 1.349 . S
C1028 C1030 1.327 . S
C1028 H1053 0.950 . S
C1029 C1028 1.349 . S
C1029 C1045 1.349 . S
C1030 C1028 1.327 . S
C1030 C1049 1.429 . S
C1030 H1054 0.950 . S
C1031 C1048 1.574 . S
C1031 C1050 1.368 1_554 S
C1031 H1055 0.949 . S
H1032 C1036 0.949 . S
C1033 C1034 1.349 1_554 S
C1033 C1035 1.327 . S
C1033 H1056 0.950 . S
C1034 C1033 1.349 1_556 S
C1034 C1046 1.349 . S
C1035 C1033 1.327 . S
C1035 C1051 1.429 1_554 S
C1035 H1057 0.950 . S
C1036 H1032 0.949 . S
C1036 C1044 1.574 . S
C1036 C1052 1.368 . S
H1037 C1045 0.950 1_554 S
H1038 C1043 0.950 1_554 S
H1039 C1044 0.949 . S
H1040 C1046 0.950 . S
H1041 C1047 0.950 . S
H1042 C1048 0.949 . S
C1043 H1038 0.950 1_556 S
C1043 C1045 1.327 . S
C1043 C1049 1.428 . S
C1044 C1036 1.574 . S
C1044 H1039 0.949 . S
C1044 C1050 1.368 . S
C1045 C1029 1.349 . S
C1045 H1037 0.950 1_556 S
C1045 C1043 1.327 . S
C1046 C1034 1.349 . S
C1046 H1040 0.950 . S
C1046 C1047 1.327 . S
C1047 H1041 0.950 . S
C1047 C1046 1.327 . S
C1047 C1051 1.429 . S
C1048 C1031 1.574 . S
C1048 H1042 0.949 . S
C1048 C1052 1.368 1_554 S
C1049 C1030 1.429 . S
C1049 C1043 1.428 . S
C1049 C1050 1.523 . S
C1050 C1031 1.368 1_556 S
C1050 C1044 1.368 . S
C1050 C1049 1.523 . S
C1051 C1035 1.429 1_556 S
C1051 C1047 1.429 . S
C1051 C1052 1.523 . S
C1052 C1036 1.368 . S
C1052 C1048 1.368 1_556 S
C1052 C1051 1.523 . S
H1053 C1028 0.950 . S
H1054 C1030 0.950 . S
H1055 C1031 0.949 . S
H1056 C1033 0.950 . S
H1057 C1035 0.950 . S
C1058 C1059 1.349 . S
C1058 C1060 1.327 . S
C1058 H1083 0.950 . S
C1059 C1058 1.349 . S
C1059 C1075 1.349 . S
C1060 C1058 1.327 . S
C1060 C1079 1.429 . S
C1060 H1084 0.950 . S
C1061 C1078 1.574 . S
C1061 C1080 1.368 . S
C1061 H1085 0.949 . S
H1062 C1066 0.949 . S
C1063 C1064 1.349 . S
C1063 C1065 1.327 . S
C1063 H1086 0.950 . S
C1064 C1063 1.349 . S
C1064 C1076 1.349 . S
C1065 C1063 1.327 . S
C1065 C1081 1.429 . S
C1065 H1087 0.950 . S
C1066 H1062 0.949 . S
C1066 C1074 1.574 . S
C1066 C1082 1.368 . S
H1067 C1075 0.950 . S
H1068 C1073 0.950 . S
H1069 C1074 0.949 . S
H1070 C1076 0.950 . S
H1071 C1077 0.950 . S
H1072 C1078 0.949 . S
C1073 H1068 0.950 . S
C1073 C1075 1.327 . S
C1073 C1079 1.429 . S
C1074 C1066 1.574 . S
C1074 H1069 0.949 . S
C1074 C1080 1.368 . S
C1075 C1059 1.349 . S
C1075 H1067 0.950 . S
C1075 C1073 1.327 . S
C1076 C1064 1.349 . S
C1076 H1070 0.950 . S
C1076 C1077 1.327 . S
C1077 H1071 0.950 . S
C1077 C1076 1.327 . S
C1077 C1081 1.429 . S
C1078 C1061 1.574 . S
C1078 H1072 0.949 . S
C1078 C1082 1.368 . S
C1079 C1060 1.429 . S
C1079 C1073 1.429 . S
C1079 C1080 1.523 . S
C1080 C1061 1.368 . S
C1080 C1074 1.368 . S
C1080 C1079 1.523 . S
C1081 C1065 1.429 . S
C1081 C1077 1.429 . S
C1081 C1082 1.523 . S
C1082 C1066 1.368 . S
C1082 C1078 1.368 . S
C1082 C1081 1.523 . S
H1083 C1058 0.950 . S
H1084 C1060 0.950 . S
H1085 C1061 0.949 . S
H1086 C1063 0.950 . S
H1087 C1065 0.950 . S
C1088 C1089 1.349 . S
C1088 C1090 1.327 . S
C1088 H1113 0.950 . S
C1089 C1088 1.349 . S
C1089 C1105 1.349 . S
C1090 C1088 1.327 . S
C1090 C1109 1.429 . S
C1090 H1114 0.950 . S
C1091 C1108 1.574 . S
C1091 C1110 1.368 . S
C1091 H1115 0.949 . S
H1092 C1096 0.949 . S
C1093 C1094 1.349 . S
C1093 C1095 1.327 . S
C1093 H1116 0.950 . S
C1094 C1093 1.349 . S
C1094 C1106 1.349 . S
C1095 C1093 1.327 . S
C1095 C1111 1.429 . S
C1095 H1117 0.950 . S
C1096 H1092 0.949 . S
C1096 C1104 1.574 . S
C1096 C1112 1.368 . S
H1097 C1105 0.950 . S
H1098 C1103 0.950 . S
H1099 C1104 0.949 . S
H1100 C1106 0.950 . S
H1101 C1107 0.950 . S
H1102 C1108 0.949 . S
C1103 H1098 0.950 . S
C1103 C1105 1.327 . S
C1103 C1109 1.429 . S
C1104 C1096 1.574 . S
C1104 H1099 0.949 . S
C1104 C1110 1.368 . S
C1105 C1089 1.349 . S
C1105 H1097 0.950 . S
C1105 C1103 1.327 . S
C1106 C1094 1.349 . S
C1106 H1100 0.950 . S
C1106 C1107 1.327 . S
C1107 H1101 0.950 . S
C1107 C1106 1.327 . S
C1107 C1111 1.429 . S
C1108 C1091 1.574 . S
C1108 H1102 0.949 . S
C1108 C1112 1.368 . S
C1109 C1090 1.429 . S
C1109 C1103 1.429 . S
C1109 C1110 1.523 . S
C1110 C1091 1.368 . S
C1110 C1104 1.368 . S
C1110 C1109 1.523 . S
C1111 C1095 1.429 . S
C1111 C1107 1.429 . S
C1111 C1112 1.523 . S
C1112 C1096 1.368 . S
C1112 C1108 1.368 . S
C1112 C1111 1.523 . S
H1113 C1088 0.950 . S
H1114 C1090 0.950 . S
H1115 C1091 0.949 . S
H1116 C1093 0.950 . S
H1117 C1095 0.950 . S
C1118 C1119 1.349 . S
C1118 C1120 1.327 . S
C1118 H1143 0.950 . S
C1119 C1118 1.349 . S
C1119 C1135 1.349 . S
C1120 C1118 1.327 . S
C1120 C1139 1.429 . S
C1120 H1144 0.950 . S
C1121 C1138 1.574 . S
C1121 C1140 1.368 . S
C1121 H1145 0.949 . S
H1122 C1126 0.949 . S
C1123 C1124 1.349 . S
C1123 C1125 1.327 . S
C1123 H1146 0.950 . S
C1124 C1123 1.349 . S
C1124 C1136 1.349 . S
C1125 C1123 1.327 . S
C1125 C1141 1.429 . S
C1125 H1147 0.950 . S
C1126 H1122 0.949 . S
C1126 C1134 1.574 . S
C1126 C1142 1.368 . S
H1127 C1135 0.950 . S
H1128 C1133 0.950 . S
H1129 C1134 0.949 . S
H1130 C1136 0.950 . S
H1131 C1137 0.950 . S
H1132 C1138 0.949 . S
C1133 H1128 0.950 . S
C1133 C1135 1.327 . S
C1133 C1139 1.429 . S
C1134 C1126 1.574 . S
C1134 H1129 0.949 . S
C1134 C1140 1.368 . S
C1135 C1119 1.349 . S
C1135 H1127 0.950 . S
C1135 C1133 1.327 . S
C1136 C1124 1.349 . S
C1136 H1130 0.950 . S
C1136 C1137 1.327 . S
C1137 H1131 0.950 . S
C1137 C1136 1.327 . S
C1137 C1141 1.429 . S
C1138 C1121 1.574 . S
C1138 H1132 0.949 . S
C1138 C1142 1.368 . S
C1139 C1120 1.429 . S
C1139 C1133 1.429 . S
C1139 C1140 1.523 . S
C1140 C1121 1.368 . S
C1140 C1134 1.368 . S
C1140 C1139 1.523 . S
C1141 C1125 1.429 . S
C1141 C1137 1.429 . S
C1141 C1142 1.523 . S
C1142 C1126 1.368 . S
C1142 C1138 1.368 . S
C1142 C1141 1.523 . S
H1143 C1118 0.950 . S
H1144 C1120 0.950 . S
H1145 C1121 0.949 . S
H1146 C1123 0.950 . S
H1147 C1125 0.950 . S
C1148 C1149 1.349 . S
C1148 C1150 1.327 . S
C1148 H1173 0.950 . S
C1149 C1148 1.349 . S
C1149 C1165 1.349 . S
C1150 C1148 1.327 . S
C1150 C1169 1.429 . S
C1150 H1174 0.950 . S
C1151 C1168 1.574 . S
C1151 C1170 1.368 . S
C1151 H1175 0.949 . S
H1152 C1156 0.949 . S
C1153 C1154 1.349 . S
C1153 C1155 1.327 . S
C1153 H1176 0.950 . S
C1154 C1153 1.349 . S
C1154 C1166 1.349 . S
C1155 C1153 1.327 . S
C1155 C1171 1.429 . S
C1155 H1177 0.950 . S
C1156 H1152 0.949 . S
C1156 C1164 1.574 . S
C1156 C1172 1.368 . S
H1157 C1165 0.950 . S
H1158 C1163 0.950 . S
H1159 C1164 0.949 . S
H1160 C1166 0.950 . S
H1161 C1167 0.950 . S
H1162 C1168 0.949 . S
C1163 H1158 0.950 . S
C1163 C1165 1.327 . S
C1163 C1169 1.429 . S
C1164 C1156 1.574 . S
C1164 H1159 0.949 . S
C1164 C1170 1.368 . S
C1165 C1149 1.349 . S
C1165 H1157 0.950 . S
C1165 C1163 1.327 . S
C1166 C1154 1.349 . S
C1166 H1160 0.950 . S
C1166 C1167 1.327 . S
C1167 H1161 0.950 . S
C1167 C1166 1.327 . S
C1167 C1171 1.429 . S
C1168 C1151 1.574 . S
C1168 H1162 0.949 . S
C1168 C1172 1.368 . S
C1169 C1150 1.429 . S
C1169 C1163 1.429 . S
C1169 C1170 1.523 . S
C1170 C1151 1.368 . S
C1170 C1164 1.368 . S
C1170 C1169 1.523 . S
C1171 C1155 1.429 . S
C1171 C1167 1.429 . S
C1171 C1172 1.523 . S
C1172 C1156 1.368 . S
C1172 C1168 1.368 . S
C1172 C1171 1.523 . S
H1173 C1148 0.950 . S
H1174 C1150 0.950 . S
H1175 C1151 0.949 . S
H1176 C1153 0.950 . S
H1177 C1155 0.950 . S
C1178 C1179 1.349 . S
C1178 C1180 1.327 . S
C1178 H1203 0.950 . S
C1179 C1178 1.349 . S
C1179 C1195 1.349 . S
C1180 C1178 1.327 . S
C1180 C1199 1.429 . S
C1180 H1204 0.950 . S
C1181 C1198 1.574 . S
C1181 C1200 1.368 . S
C1181 H1205 0.949 . S
H1182 C1186 0.949 . S
C1183 C1184 1.349 . S
C1183 C1185 1.327 . S
C1183 H1206 0.950 . S
C1184 C1183 1.349 . S
C1184 C1196 1.349 . S
C1185 C1183 1.327 . S
C1185 C1201 1.429 . S
C1185 H1207 0.950 . S
C1186 H1182 0.949 . S
C1186 C1194 1.574 . S
C1186 C1202 1.368 . S
H1187 C1195 0.950 . S
H1188 C1193 0.950 . S
H1189 C1194 0.949 . S
H1190 C1196 0.950 . S
H1191 C1197 0.950 . S
H1192 C1198 0.949 . S
C1193 H1188 0.950 . S
C1193 C1195 1.327 . S
C1193 C1199 1.429 . S
C1194 C1186 1.574 . S
C1194 H1189 0.949 . S
C1194 C1200 1.368 . S
C1195 C1179 1.349 . S
C1195 H1187 0.950 . S
C1195 C1193 1.327 . S
C1196 C1184 1.349 . S
C1196 H1190 0.950 . S
C1196 C1197 1.327 . S
C1197 H1191 0.950 . S
C1197 C1196 1.327 . S
C1197 C1201 1.429 . S
C1198 C1181 1.574 . S
C1198 H1192 0.949 . S
C1198 C1202 1.368 . S
C1199 C1180 1.429 . S
C1199 C1193 1.429 . S
C1199 C1200 1.523 . S
C1200 C1181 1.368 . S
C1200 C1194 1.368 . S
C1200 C1199 1.523 . S
C1201 C1185 1.429 . S
C1201 C1197 1.429 . S
C1201 C1202 1.523 . S
C1202 C1186 1.368 . S
C1202 C1198 1.368 . S
C1202 C1201 1.523 . S
H1203 C1178 0.950 . S
H1204 C1180 0.950 . S
H1205 C1181 0.949 . S
H1206 C1183 0.950 . S
H1207 C1185 0.950 . S
C1208 C1209 1.349 . S
C1208 C1210 1.327 . S
C1208 H1233 0.950 . S
C1209 C1208 1.349 . S
C1209 C1225 1.349 . S
C1210 C1208 1.327 . S
C1210 C1229 1.429 . S
C1210 H1234 0.950 . S
C1211 C1228 1.574 . S
C1211 C1230 1.368 . S
C1211 H1235 0.949 . S
H1212 C1216 0.949 . S
C1213 C1214 1.349 . S
C1213 C1215 1.327 . S
C1213 H1236 0.950 . S
C1214 C1213 1.349 . S
C1214 C1226 1.349 . S
C1215 C1213 1.327 . S
C1215 C1231 1.429 . S
C1215 H1237 0.950 . S
C1216 H1212 0.949 . S
C1216 C1224 1.574 . S
C1216 C1232 1.368 . S
H1217 C1225 0.950 . S
H1218 C1223 0.950 . S
H1219 C1224 0.949 . S
H1220 C1226 0.950 . S
H1221 C1227 0.950 . S
H1222 C1228 0.949 . S
C1223 H1218 0.950 . S
C1223 C1225 1.327 . S
C1223 C1229 1.429 . S
C1224 C1216 1.574 . S
C1224 H1219 0.949 . S
C1224 C1230 1.368 . S
C1225 C1209 1.349 . S
C1225 H1217 0.950 . S
C1225 C1223 1.327 . S
C1226 C1214 1.349 . S
C1226 H1220 0.950 . S
C1226 C1227 1.327 . S
C1227 H1221 0.950 . S
C1227 C1226 1.327 . S
C1227 C1231 1.429 . S
C1228 C1211 1.574 . S
C1228 H1222 0.949 . S
C1228 C1232 1.368 . S
C1229 C1210 1.429 . S
C1229 C1223 1.429 . S
C1229 C1230 1.523 . S
C1230 C1211 1.368 . S
C1230 C1224 1.368 . S
C1230 C1229 1.523 . S
C1231 C1215 1.429 . S
C1231 C1227 1.429 . S
C1231 C1232 1.523 . S
C1232 C1216 1.368 . S
C1232 C1228 1.368 . S
C1232 C1231 1.523 . S
H1233 C1208 0.950 . S
H1234 C1210 0.950 . S
H1235 C1211 0.949 . S
H1236 C1213 0.950 . S
H1237 C1215 0.950 . S
C1238 C1239 1.349 . S
C1238 C1240 1.327 . S
C1238 H1263 0.950 . S
C1239 C1238 1.349 . S
C1239 C1255 1.349 . S
C1240 C1238 1.327 . S
C1240 C1259 1.429 . S
C1240 H1264 0.950 . S
C1241 C1258 1.574 . S
C1241 C1260 1.368 . S
C1241 H1265 0.949 . S
H1242 C1246 0.949 . S
C1243 C1244 1.349 . S
C1243 C1245 1.327 . S
C1243 H1266 0.950 . S
C1244 C1243 1.349 . S
C1244 C1256 1.349 . S
C1245 C1243 1.327 . S
C1245 C1261 1.429 . S
C1245 H1267 0.950 . S
C1246 H1242 0.949 . S
C1246 C1254 1.574 . S
C1246 C1262 1.368 . S
H1247 C1255 0.950 . S
H1248 C1253 0.950 . S
H1249 C1254 0.949 . S
H1250 C1256 0.950 . S
H1251 C1257 0.950 . S
H1252 C1258 0.949 . S
C1253 H1248 0.950 . S
C1253 C1255 1.327 . S
C1253 C1259 1.429 . S
C1254 C1246 1.574 . S
C1254 H1249 0.949 . S
C1254 C1260 1.368 . S
C1255 C1239 1.349 . S
C1255 H1247 0.950 . S
C1255 C1253 1.327 . S
C1256 C1244 1.349 . S
C1256 H1250 0.950 . S
C1256 C1257 1.327 . S
C1257 H1251 0.950 . S
C1257 C1256 1.327 . S
C1257 C1261 1.429 . S
C1258 C1241 1.574 . S
C1258 H1252 0.949 . S
C1258 C1262 1.368 . S
C1259 C1240 1.429 . S
C1259 C1253 1.429 . S
C1259 C1260 1.523 . S
C1260 C1241 1.368 . S
C1260 C1254 1.368 . S
C1260 C1259 1.523 . S
C1261 C1245 1.429 . S
C1261 C1257 1.429 . S
C1261 C1262 1.523 . S
C1262 C1246 1.368 . S
C1262 C1258 1.368 . S
C1262 C1261 1.523 . S
H1263 C1238 0.950 . S
H1264 C1240 0.950 . S
H1265 C1241 0.949 . S
H1266 C1243 0.950 . S
H1267 C1245 0.950 . S
C1268 C1269 1.349 . S
C1268 C1270 1.327 . S
C1268 H1293 0.950 . S
C1269 C1268 1.349 . S
C1269 C1285 1.349 . S
C1270 C1268 1.327 . S
C1270 C1289 1.429 . S
C1270 H1294 0.950 . S
C1271 C1288 1.574 . S
C1271 C1290 1.368 . S
C1271 H1295 0.949 . S
H1272 C1276 0.949 . S
C1273 C1274 1.349 . S
C1273 C1275 1.327 . S
C1273 H1296 0.950 . S
C1274 C1273 1.349 . S
C1274 C1286 1.349 . S
C1275 C1273 1.327 . S
C1275 C1291 1.429 . S
C1275 H1297 0.950 . S
C1276 H1272 0.949 . S
C1276 C1284 1.574 . S
C1276 C1292 1.368 . S
H1277 C1285 0.950 . S
H1278 C1283 0.950 . S
H1279 C1284 0.949 . S
H1280 C1286 0.950 . S
H1281 C1287 0.950 . S
H1282 C1288 0.949 . S
C1283 H1278 0.950 . S
C1283 C1285 1.327 . S
C1283 C1289 1.429 . S
C1284 C1276 1.574 . S
C1284 H1279 0.949 . S
C1284 C1290 1.368 . S
C1285 C1269 1.349 . S
C1285 H1277 0.950 . S
C1285 C1283 1.327 . S
C1286 C1274 1.349 . S
C1286 H1280 0.950 . S
C1286 C1287 1.327 . S
C1287 H1281 0.950 . S
C1287 C1286 1.327 . S
C1287 C1291 1.429 . S
C1288 C1271 1.574 . S
C1288 H1282 0.949 . S
C1288 C1292 1.368 . S
C1289 C1270 1.429 . S
C1289 C1283 1.429 . S
C1289 C1290 1.523 . S
C1290 C1271 1.368 . S
C1290 C1284 1.368 . S
C1290 C1289 1.523 . S
C1291 C1275 1.429 . S
C1291 C1287 1.429 . S
C1291 C1292 1.523 . S
C1292 C1276 1.368 . S
C1292 C1288 1.368 . S
C1292 C1291 1.523 . S
H1293 C1268 0.950 . S
H1294 C1270 0.950 . S
H1295 C1271 0.949 . S
H1296 C1273 0.950 . S
H1297 C1275 0.950 . S
C1298 C1299 1.349 . S
C1298 C1300 1.327 . S
C1298 H1323 0.950 . S
C1299 C1298 1.349 . S
C1299 C1315 1.349 . S
C1300 C1298 1.327 . S
C1300 C1319 1.429 . S
C1300 H1324 0.950 . S
C1301 C1318 1.574 . S
C1301 C1320 1.368 . S
C1301 H1325 0.949 . S
H1302 C1306 0.949 . S
C1303 C1304 1.349 . S
C1303 C1305 1.327 . S
C1303 H1326 0.950 . S
C1304 C1303 1.349 . S
C1304 C1316 1.349 . S
C1305 C1303 1.327 . S
C1305 C1321 1.429 . S
C1305 H1327 0.950 . S
C1306 H1302 0.949 . S
C1306 C1314 1.574 . S
C1306 C1322 1.368 . S
H1307 C1315 0.950 . S
H1308 C1313 0.950 . S
H1309 C1314 0.949 . S
H1310 C1316 0.950 . S
H1311 C1317 0.950 . S
H1312 C1318 0.949 . S
C1313 H1308 0.950 . S
C1313 C1315 1.327 . S
C1313 C1319 1.429 . S
C1314 C1306 1.574 . S
C1314 H1309 0.949 . S
C1314 C1320 1.368 . S
C1315 C1299 1.349 . S
C1315 H1307 0.950 . S
C1315 C1313 1.327 . S
C1316 C1304 1.349 . S
C1316 H1310 0.950 . S
C1316 C1317 1.327 . S
C1317 H1311 0.950 . S
C1317 C1316 1.327 . S
C1317 C1321 1.429 . S
C1318 C1301 1.574 . S
C1318 H1312 0.949 . S
C1318 C1322 1.368 . S
C1319 C1300 1.429 . S
C1319 C1313 1.429 . S
C1319 C1320 1.523 . S
C1320 C1301 1.368 . S
C1320 C1314 1.368 . S
C1320 C1319 1.523 . S
C1321 C1305 1.429 . S
C1321 C1317 1.429 . S
C1321 C1322 1.523 . S
C1322 C1306 1.368 . S
C1322 C1318 1.368 . S
C1322 C1321 1.523 . S
H1323 C1298 0.950 . S
H1324 C1300 0.950 . S
H1325 C1301 0.949 . S
H1326 C1303 0.950 . S
H1327 C1305 0.950 . S
C1328 C1329 1.349 . S
C1328 C1330 1.327 . S
C1328 H1353 0.950 . S
C1329 C1328 1.349 . S
C1329 C1345 1.349 . S
C1330 C1328 1.327 . S
C1330 C1349 1.429 . S
C1330 H1354 0.950 . S
C1331 C1348 1.574 . S
C1331 C1350 1.368 . S
C1331 H1355 0.949 . S
H1332 C1336 0.949 . S
C1333 C1334 1.349 . S
C1333 C1335 1.327 . S
C1333 H1356 0.950 . S
C1334 C1333 1.349 . S
C1334 C1346 1.349 . S
C1335 C1333 1.327 . S
C1335 C1351 1.429 . S
C1335 H1357 0.950 . S
C1336 H1332 0.949 . S
C1336 C1344 1.574 . S
C1336 C1352 1.368 . S
H1337 C1345 0.950 . S
H1338 C1343 0.950 . S
H1339 C1344 0.949 . S
H1340 C1346 0.950 . S
H1341 C1347 0.950 . S
H1342 C1348 0.949 . S
C1343 H1338 0.950 . S
C1343 C1345 1.327 . S
C1343 C1349 1.429 . S
C1344 C1336 1.574 . S
C1344 H1339 0.949 . S
C1344 C1350 1.368 . S
C1345 C1329 1.349 . S
C1345 H1337 0.950 . S
C1345 C1343 1.327 . S
C1346 C1334 1.349 . S
C1346 H1340 0.950 . S
C1346 C1347 1.327 . S
C1347 H1341 0.950 . S
C1347 C1346 1.327 . S
C1347 C1351 1.429 . S
C1348 C1331 1.574 . S
C1348 H1342 0.949 . S
C1348 C1352 1.368 . S
C1349 C1330 1.429 . S
C1349 C1343 1.429 . S
C1349 C1350 1.523 . S
C1350 C1331 1.368 . S
C1350 C1344 1.368 . S
C1350 C1349 1.523 . S
C1351 C1335 1.429 . S
C1351 C1347 1.429 . S
C1351 C1352 1.523 . S
C1352 C1336 1.368 . S
C1352 C1348 1.368 . S
C1352 C1351 1.523 . S
H1353 C1328 0.950 . S
H1354 C1330 0.950 . S
H1355 C1331 0.949 . S
H1356 C1333 0.950 . S
H1357 C1335 0.950 . S
C1358 C1359 1.349 . S
C1358 C1360 1.327 . S
C1358 H1383 0.950 . S
C1359 C1358 1.349 . S
C1359 C1375 1.349 . S
C1360 C1358 1.327 . S
C1360 C1379 1.429 . S
C1360 H1384 0.950 . S
C1361 C1378 1.574 . S
C1361 C1380 1.368 . S
C1361 H1385 0.949 . S
H1362 C1366 0.949 . S
C1363 C1364 1.349 . S
C1363 C1365 1.327 . S
C1363 H1386 0.950 . S
C1364 C1363 1.349 . S
C1364 C1376 1.349 . S
C1365 C1363 1.327 . S
C1365 C1381 1.429 . S
C1365 H1387 0.950 . S
C1366 H1362 0.949 . S
C1366 C1374 1.574 . S
C1366 C1382 1.368 . S
H1367 C1375 0.950 . S
H1368 C1373 0.950 . S
H1369 C1374 0.949 . S
H1370 C1376 0.950 . S
H1371 C1377 0.950 . S
H1372 C1378 0.949 . S
C1373 H1368 0.950 . S
C1373 C1375 1.327 . S
C1373 C1379 1.429 . S
C1374 C1366 1.574 . S
C1374 H1369 0.949 . S
C1374 C1380 1.368 . S
C1375 C1359 1.349 . S
C1375 H1367 0.950 . S
C1375 C1373 1.327 . S
C1376 C1364 1.349 . S
C1376 H1370 0.950 . S
C1376 C1377 1.327 . S
C1377 H1371 0.950 . S
C1377 C1376 1.327 . S
C1377 C1381 1.429 . S
C1378 C1361 1.574 . S
C1378 H1372 0.949 . S
C1378 C1382 1.368 . S
C1379 C1360 1.429 . S
C1379 C1373 1.429 . S
C1379 C1380 1.523 . S
C1380 C1361 1.368 . S
C1380 C1374 1.368 . S
C1380 C1379 1.523 . S
C1381 C1365 1.429 . S
C1381 C1377 1.429 . S
C1381 C1382 1.523 . S
C1382 C1366 1.368 . S
C1382 C1378 1.368 . S
C1382 C1381 1.523 . S
H1383 C1358 0.950 . S
H1384 C1360 0.950 . S
H1385 C1361 0.949 . S
H1386 C1363 0.950 . S
H1387 C1365 0.950 . S
C1388 C1389 1.349 . S
C1388 C1390 1.327 . S
C1388 H1413 0.950 . S
C1389 C1388 1.349 . S
C1389 C1405 1.349 . S
C1390 C1388 1.327 . S
C1390 C1409 1.429 . S
C1390 H1414 0.950 . S
C1391 C1408 1.574 . S
C1391 C1410 1.368 . S
C1391 H1415 0.949 . S
H1392 C1396 0.949 . S
C1393 C1394 1.349 . S
C1393 C1395 1.327 . S
C1393 H1416 0.950 . S
C1394 C1393 1.349 . S
C1394 C1406 1.349 . S
C1395 C1393 1.327 . S
C1395 C1411 1.429 . S
C1395 H1417 0.950 . S
C1396 H1392 0.949 . S
C1396 C1404 1.574 . S
C1396 C1412 1.368 . S
H1397 C1405 0.950 . S
H1398 C1403 0.950 . S
H1399 C1404 0.949 . S
H1400 C1406 0.950 . S
H1401 C1407 0.950 . S
H1402 C1408 0.949 . S
C1403 H1398 0.950 . S
C1403 C1405 1.327 . S
C1403 C1409 1.429 . S
C1404 C1396 1.574 . S
C1404 H1399 0.949 . S
C1404 C1410 1.368 . S
C1405 C1389 1.349 . S
C1405 H1397 0.950 . S
C1405 C1403 1.327 . S
C1406 C1394 1.349 . S
C1406 H1400 0.950 . S
C1406 C1407 1.327 . S
C1407 H1401 0.950 . S
C1407 C1406 1.327 . S
C1407 C1411 1.429 . S
C1408 C1391 1.574 . S
C1408 H1402 0.949 . S
C1408 C1412 1.368 . S
C1409 C1390 1.429 . S
C1409 C1403 1.429 . S
C1409 C1410 1.523 . S
C1410 C1391 1.368 . S
C1410 C1404 1.368 . S
C1410 C1409 1.523 . S
C1411 C1395 1.429 . S
C1411 C1407 1.429 . S
C1411 C1412 1.523 . S
C1412 C1396 1.368 . S
C1412 C1408 1.368 . S
C1412 C1411 1.523 . S
H1413 C1388 0.950 . S
H1414 C1390 0.950 . S
H1415 C1391 0.949 . S
H1416 C1393 0.950 . S
H1417 C1395 0.950 . S
C1418 C1419 1.349 . S
C1418 C1420 1.327 . S
C1418 H1443 0.950 . S
C1419 C1418 1.349 . S
C1419 C1435 1.349 . S
C1420 C1418 1.327 . S
C1420 C1439 1.429 . S
C1420 H1444 0.950 . S
C1421 C1438 1.574 . S
C1421 C1440 1.368 . S
C1421 H1445 0.949 . S
H1422 C1426 0.949 . S
C1423 C1424 1.349 . S
C1423 C1425 1.327 . S
C1423 H1446 0.950 . S
C1424 C1423 1.349 . S
C1424 C1436 1.349 . S
C1425 C1423 1.327 . S
C1425 C1441 1.429 . S
C1425 H1447 0.950 . S
C1426 H1422 0.949 . S
C1426 C1434 1.574 . S
C1426 C1442 1.368 . S
H1427 C1435 0.950 . S
H1428 C1433 0.950 . S
H1429 C1434 0.949 . S
H1430 C1436 0.950 . S
H1431 C1437 0.950 . S
H1432 C1438 0.949 . S
C1433 H1428 0.950 . S
C1433 C1435 1.327 . S
C1433 C1439 1.429 . S
C1434 C1426 1.574 . S
C1434 H1429 0.949 . S
C1434 C1440 1.368 . S
C1435 C1419 1.349 . S
C1435 H1427 0.950 . S
C1435 C1433 1.327 . S
C1436 C1424 1.349 . S
C1436 H1430 0.950 . S
C1436 C1437 1.327 . S
C1437 H1431 0.950 . S
C1437 C1436 1.327 . S
C1437 C1441 1.429 . S
C1438 C1421 1.574 . S
C1438 H1432 0.949 . S
C1438 C1442 1.368 . S
C1439 C1420 1.429 . S
C1439 C1433 1.429 . S
C1439 C1440 1.523 . S
C1440 C1421 1.368 . S
C1440 C1434 1.368 . S
C1440 C1439 1.523 . S
C1441 C1425 1.429 . S
C1441 C1437 1.429 . S
C1441 C1442 1.523 . S
C1442 C1426 1.368 . S
C1442 C1438 1.368 . S
C1442 C1441 1.523 . S
H1443 C1418 0.950 . S
H1444 C1420 0.950 . S
H1445 C1421 0.949 . S
H1446 C1423 0.950 . S
H1447 C1425 0.950 . S
C1448 C1449 1.349 . S
C1448 C1450 1.327 . S
C1448 H1473 0.950 . S
C1449 C1448 1.349 . S
C1449 C1465 1.349 . S
C1450 C1448 1.327 . S
C1450 C1469 1.429 . S
C1450 H1474 0.950 . S
C1451 C1468 1.574 . S
C1451 C1470 1.368 . S
C1451 H1475 0.949 . S
H1452 C1456 0.949 . S
C1453 C1454 1.349 . S
C1453 C1455 1.327 . S
C1453 H1476 0.950 . S
C1454 C1453 1.349 . S
C1454 C1466 1.349 . S
C1455 C1453 1.327 . S
C1455 C1471 1.429 . S
C1455 H1477 0.950 . S
C1456 H1452 0.949 . S
C1456 C1464 1.574 . S
C1456 C1472 1.368 . S
H1457 C1465 0.950 . S
H1458 C1463 0.950 . S
H1459 C1464 0.949 . S
H1460 C1466 0.950 . S
H1461 C1467 0.950 . S
H1462 C1468 0.949 . S
C1463 H1458 0.950 . S
C1463 C1465 1.327 . S
C1463 C1469 1.429 . S
C1464 C1456 1.574 . S
C1464 H1459 0.949 . S
C1464 C1470 1.368 . S
C1465 C1449 1.349 . S
C1465 H1457 0.950 . S
C1465 C1463 1.327 . S
C1466 C1454 1.349 . S
C1466 H1460 0.950 . S
C1466 C1467 1.327 . S
C1467 H1461 0.950 . S
C1467 C1466 1.327 . S
C1467 C1471 1.429 . S
C1468 C1451 1.574 . S
C1468 H1462 0.949 . S
C1468 C1472 1.368 . S
C1469 C1450 1.429 . S
C1469 C1463 1.429 . S
C1469 C1470 1.523 . S
C1470 C1451 1.368 . S
C1470 C1464 1.368 . S
C1470 C1469 1.523 . S
C1471 C1455 1.429 . S
C1471 C1467 1.429 . S
C1471 C1472 1.523 . S
C1472 C1456 1.368 . S
C1472 C1468 1.368 . S
C1472 C1471 1.523 . S
H1473 C1448 0.950 . S
H1474 C1450 0.950 . S
H1475 C1451 0.949 . S
H1476 C1453 0.950 . S
H1477 C1455 0.950 . S
C1478 C1479 1.349 . S
C1478 C1480 1.327 . S
C1478 H1503 0.950 . S
C1479 C1478 1.349 . S
C1479 C1495 1.349 . S
C1480 C1478 1.327 . S
C1480 C1499 1.429 . S
C1480 H1504 0.950 . S
C1481 C1498 1.574 . S
C1481 C1500 1.368 . S
C1481 H1505 0.949 . S
H1482 C1486 0.949 . S
C1483 C1484 1.349 . S
C1483 C1485 1.327 . S
C1483 H1506 0.950 . S
C1484 C1483 1.349 . S
C1484 C1496 1.349 . S
C1485 C1483 1.327 . S
C1485 C1501 1.429 . S
C1485 H1507 0.950 . S
C1486 H1482 0.949 . S
C1486 C1494 1.574 . S
C1486 C1502 1.368 . S
H1487 C1495 0.950 . S
H1488 C1493 0.950 . S
H1489 C1494 0.949 . S
H1490 C1496 0.950 . S
H1491 C1497 0.950 . S
H1492 C1498 0.949 . S
C1493 H1488 0.950 . S
C1493 C1495 1.327 . S
C1493 C1499 1.429 . S
C1494 C1486 1.574 . S
C1494 H1489 0.949 . S
C1494 C1500 1.368 . S
C1495 C1479 1.349 . S
C1495 H1487 0.950 . S
C1495 C1493 1.327 . S
C1496 C1484 1.349 . S
C1496 H1490 0.950 . S
C1496 C1497 1.327 . S
C1497 H1491 0.950 . S
C1497 C1496 1.327 . S
C1497 C1501 1.429 . S
C1498 C1481 1.574 . S
C1498 H1492 0.949 . S
C1498 C1502 1.368 . S
C1499 C1480 1.429 . S
C1499 C1493 1.429 . S
C1499 C1500 1.523 . S
C1500 C1481 1.368 . S
C1500 C1494 1.368 . S
C1500 C1499 1.523 . S
C1501 C1485 1.429 . S
C1501 C1497 1.429 . S
C1501 C1502 1.523 . S
C1502 C1486 1.368 . S
C1502 C1498 1.368 . S
C1502 C1501 1.523 . S
H1503 C1478 0.950 . S
H1504 C1480 0.950 . S
H1505 C1481 0.949 . S
H1506 C1483 0.950 . S
H1507 C1485 0.950 . S
C1508 C1509 1.349 . S
C1508 C1510 1.327 . S
C1508 H1533 0.950 . S
C1509 C1508 1.349 . S
C1509 C1525 1.349 . S
C1510 C1508 1.327 . S
C1510 C1529 1.429 . S
C1510 H1534 0.950 . S
C1511 C1528 1.574 . S
C1511 C1530 1.368 . S
C1511 H1535 0.949 . S
H1512 C1516 0.949 . S
C1513 C1514 1.349 . S
C1513 C1515 1.327 . S
C1513 H1536 0.950 . S
C1514 C1513 1.349 . S
C1514 C1526 1.349 . S
C1515 C1513 1.327 . S
C1515 C1531 1.429 . S
C1515 H1537 0.950 . S
C1516 H1512 0.949 . S
C1516 C1524 1.574 . S
C1516 C1532 1.368 . S
H1517 C1525 0.950 . S
H1518 C1523 0.950 . S
H1519 C1524 0.949 . S
H1520 C1526 0.950 . S
H1521 C1527 0.950 . S
H1522 C1528 0.949 . S
C1523 H1518 0.950 . S
C1523 C1525 1.327 . S
C1523 C1529 1.429 . S
C1524 C1516 1.574 . S
C1524 H1519 0.949 . S
C1524 C1530 1.368 . S
C1525 C1509 1.349 . S
C1525 H1517 0.950 . S
C1525 C1523 1.327 . S
C1526 C1514 1.349 . S
C1526 H1520 0.950 . S
C1526 C1527 1.327 . S
C1527 H1521 0.950 . S
C1527 C1526 1.327 . S
C1527 C1531 1.429 . S
C1528 C1511 1.574 . S
C1528 H1522 0.949 . S
C1528 C1532 1.368 . S
C1529 C1510 1.429 . S
C1529 C1523 1.429 . S
C1529 C1530 1.523 . S
C1530 C1511 1.368 . S
C1530 C1524 1.368 . S
C1530 C1529 1.523 . S
C1531 C1515 1.429 . S
C1531 C1527 1.429 . S
C1531 C1532 1.523 . S
C1532 C1516 1.368 . S
C1532 C1528 1.368 . S
C1532 C1531 1.523 . S
H1533 C1508 0.950 . S
H1534 C1510 0.950 . S
H1535 C1511 0.949 . S
H1536 C1513 0.950 . S
H1537 C1515 0.950 . S
C1538 C1539 1.349 . S
C1538 C1540 1.327 . S
C1538 H1563 0.950 . S
C1539 C1538 1.349 . S
C1539 C1555 1.349 . S
C1540 C1538 1.327 . S
C1540 C1559 1.429 . S
C1540 H1564 0.950 . S
C1541 C1558 1.574 . S
C1541 C1560 1.368 . S
C1541 H1565 0.949 . S
H1542 C1546 0.949 . S
C1543 C1544 1.349 . S
C1543 C1545 1.327 . S
C1543 H1566 0.950 . S
C1544 C1543 1.349 . S
C1544 C1556 1.349 . S
C1545 C1543 1.327 . S
C1545 C1561 1.429 . S
C1545 H1567 0.950 . S
C1546 H1542 0.949 . S
C1546 C1554 1.574 . S
C1546 C1562 1.368 . S
H1547 C1555 0.950 . S
H1548 C1553 0.950 . S
H1549 C1554 0.949 . S
H1550 C1556 0.950 . S
H1551 C1557 0.950 . S
H1552 C1558 0.949 . S
C1553 H1548 0.950 . S
C1553 C1555 1.327 . S
C1553 C1559 1.429 . S
C1554 C1546 1.574 . S
C1554 H1549 0.949 . S
C1554 C1560 1.368 . S
C1555 C1539 1.349 . S
C1555 H1547 0.950 . S
C1555 C1553 1.327 . S
C1556 C1544 1.349 . S
C1556 H1550 0.950 . S
C1556 C1557 1.327 . S
C1557 H1551 0.950 . S
C1557 C1556 1.327 . S
C1557 C1561 1.429 . S
C1558 C1541 1.574 . S
C1558 H1552 0.949 . S
C1558 C1562 1.368 . S
C1559 C1540 1.429 . S
C1559 C1553 1.429 . S
C1559 C1560 1.523 . S
C1560 C1541 1.368 . S
C1560 C1554 1.368 . S
C1560 C1559 1.523 . S
C1561 C1545 1.429 . S
C1561 C1557 1.429 . S
C1561 C1562 1.523 . S
C1562 C1546 1.368 . S
C1562 C1558 1.368 . S
C1562 C1561 1.523 . S
H1563 C1538 0.950 . S
H1564 C1540 0.950 . S
H1565 C1541 0.949 . S
H1566 C1543 0.950 . S
H1567 C1545 0.950 . S
C614 C521 1.365 . S
C609 C35 1.234 . S
C644 C535 1.358 . S
C639 C115 1.245 . S
C674 C543 1.397 . S
C669 C177 1.279 . S
C699 C221 1.237 . S
C704 C501 1.362 . S
C729 C283 1.208 . S
C734 C507 1.334 . S
C759 C363 1.240 . S
C764 C515 1.358 . S
C794 C529 1.469 . S
C789 C407 1.329 . S
C824 C549 1.403 . S
C819 C469 1.273 . S
C849 C159 1.213 . S
C854 C577 1.339 . S
C884 C591 1.439 . S
C879 C239 1.316 . S
C909 C53 1.246 . S
C914 C599 1.365 . S
C944 C563 1.293 . S
C939 C97 1.174 . S
C969 C425 1.272 . S
C974 C557 1.394 . S
C999 C487 1.275 . S
C1004 C571 1.391 . S
C1034 C585 1.394 . S
C1029 C301 1.278 . S
C1059 C345 1.291 . S
C1064 C605 1.425 . S
C1094 C524 1.851 . S
C1089 C29 1.868 . S
C1124 C547 1.878 . S
C1119 C109 1.836 . S
C1149 C171 1.834 . S
C1154 C505 1.879 . S
C1179 C215 1.886 . S
C1184 C510 1.867 . S
C1209 C277 1.862 . S
C1214 C538 1.842 . S
C1244 C496 1.848 . S
C1239 C357 1.836 . S
C1274 C519 1.879 . S
C1269 C401 1.869 . S
C1304 C533 1.891 . S
C1299 C463 1.879 . S
C1334 C580 1.846 . S
C1329 C153 1.865 . S
C1364 C603 1.875 . S
C1359 C233 1.839 . S
C1389 C47 1.819 . S
C1394 C552 1.830 . S
C1424 C566 1.827 . S
C1419 C91 1.847 . S
C1454 C594 1.878 . S
C1449 C419 1.866 . S
C1479 C481 1.851 . S
C1484 C561 1.898 . S
C1514 C575 1.887 . S
C1509 C295 1.843 . S
C1544 C589 1.894 . S
C1539 C339 1.881 . S
