# Generated by pormake.
# Topology pyr, (3,6)-cn, num edge types: 1
# Building blocks:
#     Node 0, Type 0, BuildingBlock: VETTIZ_charged_linker_0, # of connection points: 3
#     Node 1, Type 0, BuildingBlock: VETTIZ_charged_linker_0, # of connection points: 3
#     Node 2, Type 0, BuildingBlock: VETTIZ_charged_linker_0, # of connection points: 3
#     Node 3, Type 0, BuildingBlock: VETTIZ_charged_linker_0, # of connection points: 3
#     Node 4, Type 0, BuildingBlock: VETTIZ_charged_linker_0, # of connection points: 3
#     Node 5, Type 0, BuildingBlock: VETTIZ_charged_linker_0, # of connection points: 3
#     Node 6, Type 0, BuildingBlock: VETTIZ_charged_linker_0, # of connection points: 3
#     Node 7, Type 0, BuildingBlock: VETTIZ_charged_linker_0, # of connection points: 3
#     Node 8, Type 1, BuildingBlock: GEDQOX_clean_sbu_0, # of connection points: 6
#     Node 9, Type 1, BuildingBlock: GEDQOX_clean_sbu_0, # of connection points: 6
#     Node 10, Type 1, BuildingBlock: GEDQOX_clean_sbu_0, # of connection points: 6
#     Node 11, Type 1, BuildingBlock: GEDQOX_clean_sbu_0, # of connection points: 6
#     Edge 12, Type (0, 1), BuildingBlock: CIFDUS_clean_linker_0, # of connection points: 2
#     Edge 13, Type (0, 1), BuildingBlock: CIFDUS_clean_linker_0, # of connection points: 2
#     Edge 14, Type (0, 1), BuildingBlock: CIFDUS_clean_linker_0, # of connection points: 2
#     Edge 15, Type (0, 1), BuildingBlock: CIFDUS_clean_linker_0, # of connection points: 2
#     Edge 16, Type (0, 1), BuildingBlock: CIFDUS_clean_linker_0, # of connection points: 2
#     Edge 17, Type (0, 1), BuildingBlock: CIFDUS_clean_linker_0, # of connection points: 2
#     Edge 18, Type (0, 1), BuildingBlock: CIFDUS_clean_linker_0, # of connection points: 2
#     Edge 19, Type (0, 1), BuildingBlock: CIFDUS_clean_linker_0, # of connection points: 2
#     Edge 20, Type (0, 1), BuildingBlock: CIFDUS_clean_linker_0, # of connection points: 2
#     Edge 21, Type (0, 1), BuildingBlock: CIFDUS_clean_linker_0, # of connection points: 2
#     Edge 22, Type (0, 1), BuildingBlock: CIFDUS_clean_linker_0, # of connection points: 2
#     Edge 23, Type (0, 1), BuildingBlock: CIFDUS_clean_linker_0, # of connection points: 2
#     Edge 24, Type (0, 1), BuildingBlock: CIFDUS_clean_linker_0, # of connection points: 2
#     Edge 25, Type (0, 1), BuildingBlock: CIFDUS_clean_linker_0, # of connection points: 2
#     Edge 26, Type (0, 1), BuildingBlock: CIFDUS_clean_linker_0, # of connection points: 2
#     Edge 27, Type (0, 1), BuildingBlock: CIFDUS_clean_linker_0, # of connection points: 2
#     Edge 28, Type (0, 1), BuildingBlock: CIFDUS_clean_linker_0, # of connection points: 2
#     Edge 29, Type (0, 1), BuildingBlock: CIFDUS_clean_linker_0, # of connection points: 2
#     Edge 30, Type (0, 1), BuildingBlock: CIFDUS_clean_linker_0, # of connection points: 2
#     Edge 31, Type (0, 1), BuildingBlock: CIFDUS_clean_linker_0, # of connection points: 2
#     Edge 32, Type (0, 1), BuildingBlock: CIFDUS_clean_linker_0, # of connection points: 2
#     Edge 33, Type (0, 1), BuildingBlock: CIFDUS_clean_linker_0, # of connection points: 2
#     Edge 34, Type (0, 1), BuildingBlock: CIFDUS_clean_linker_0, # of connection points: 2
#     Edge 35, Type (0, 1), BuildingBlock: CIFDUS_clean_linker_0, # of connection points: 2
# Relax obj value: 0.115
# Max RMSD: 0.160
# Mean RMSD: 0.064
data_MOF--net-pyr--node1-GEDQOX_clean_sbu_0--node2-VETTIZ_charged_linker_0--edge1-CIFDUS_clean_linker_0
_symmetry_space_group_name_H-M    P1
_symmetry_Int_Tables_number       1
_symmetry_cell_setting            triclinic
loop_
_symmetry_equiv_pos_as_xyz
'x, y, z'
_cell_length_a     43.993563
_cell_length_b     43.881946
_cell_length_c     38.617666
_cell_angle_alpha  88.510234
_cell_angle_beta   92.324158
_cell_angle_gamma 87.606298
loop_
_atom_site_label
_atom_site_type_symbol
_atom_site_fract_x
_atom_site_fract_y
_atom_site_fract_z
_atom_type_partial_charge
C0 C 0.16055 0.12784 0.27558 0.0
C1 C 0.1337 0.1388 0.2922 0.0
C2 C 0.11919 0.16566 0.27699 0.0
C3 C 0.15739 0.17085 0.23254 0.0
C4 C 0.17192 0.14425 0.24603 0.0
C5 C 0.20029 0.13688 0.22537 0.0
H6 H 0.29839 0.1713 0.09361 0.0
C7 C 0.1749 0.18329 0.20243 0.0
C8 C 0.20039 0.16326 0.19784 0.0
H9 H 0.30533 0.09473 0.16639 0.0
H10 H 0.25899 0.11232 0.19223 0.0
H11 H 0.27325 0.224 0.15357 0.0
H12 H 0.21772 0.17357 0.08113 0.0
H13 H 0.21128 0.21392 0.07855 0.0
H14 H 0.24709 0.19737 0.06603 0.0
H15 H 0.27859 0.22695 0.10765 0.0
H16 H 0.2472 0.24695 0.12663 0.0
C17 C 0.22845 0.13709 0.2505 0.0
C18 C 0.19612 0.10585 0.20828 0.0
C19 C 0.13384 0.28439 0.14233 0.0
C20 C 0.14266 0.30453 0.11515 0.0
C21 C 0.16972 0.29453 0.0987 0.0
C22 C 0.18676 0.26675 0.10879 0.0
C23 C 0.17751 0.24749 0.13619 0.0
C24 C 0.15121 0.25692 0.15227 0.0
C25 C 0.14406 0.23465 0.18113 0.0
C26 C 0.16996 0.21024 0.18027 0.0
C27 C 0.19017 0.21724 0.15364 0.0
C28 C 0.14516 0.252 0.21558 0.0
C29 C 0.11282 0.22126 0.17185 0.0
C30 C 0.28976 0.15795 0.11472 0.0
C31 C 0.30665 0.1307 0.12711 0.0
C32 C 0.29382 0.1153 0.15551 0.0
C33 C 0.26649 0.12573 0.17085 0.0
C34 C 0.25036 0.15272 0.15873 0.0
C35 C 0.26204 0.1685 0.1309 0.0
C36 C 0.24185 0.19742 0.12231 0.0
C37 C 0.21634 0.19621 0.1488 0.0
C38 C 0.22148 0.1695 0.17056 0.0
C39 C 0.26121 0.22548 0.12766 0.0
C40 C 0.22877 0.19565 0.08488 0.0
H41 H 0.11778 0.20152 0.23892 0.0
H42 H 0.17288 0.1075 0.28582 0.0
H43 H 0.17278 0.1049 0.19625 0.0
H44 H 0.21182 0.10185 0.18716 0.0
H45 H 0.19932 0.08678 0.22775 0.0
H46 H 0.227 0.15728 0.26729 0.0
H47 H 0.23005 0.11628 0.2676 0.0
H48 H 0.24991 0.13885 0.23692 0.0
H49 H 0.11337 0.28945 0.15598 0.0
H50 H 0.1783 0.30839 0.07802 0.0
H51 H 0.20684 0.26121 0.0949 0.0
H52 H 0.16339 0.26884 0.21565 0.0
H53 H 0.12325 0.2647 0.2195 0.0
H54 H 0.15087 0.23694 0.23846 0.0
H55 H 0.1099 0.21824 0.1434 0.0
H56 H 0.1104 0.19824 0.18341 0.0
H57 H 0.09375 0.23655 0.17982 0.0
H58 H 0.09854 0.17497 0.28773 0.0
C59 C 0.13054 0.18133 0.24805 0.0
C60 C 0.27317 0.808 0.6853 0.0
C61 C 0.25263 0.82866 0.7003 0.0
C62 C 0.26236 0.84407 0.73016 0.0
C63 C 0.31251 0.81905 0.72849 0.0
C64 C 0.30266 0.80345 0.69985 0.0
C65 C 0.32686 0.78197 0.68705 0.0
H66 H 0.46657 0.71297 0.70638 0.0
C67 C 0.34472 0.80936 0.73648 0.0
C68 C 0.35308 0.78741 0.71255 0.0
H69 H 0.39456 0.69856 0.62954 0.0
H70 H 0.36394 0.73863 0.65273 0.0
H71 H 0.45797 0.78936 0.69867 0.0
H72 H 0.42411 0.72478 0.77271 0.0
H73 H 0.43986 0.75569 0.79451 0.0
H74 H 0.46399 0.73129 0.76964 0.0
H75 H 0.48269 0.76966 0.73079 0.0
H76 H 0.46138 0.8042 0.74044 0.0
C77 C 0.33393 0.79233 0.64959 0.0
C78 C 0.31539 0.74908 0.69058 0.0
C79 C 0.40374 0.86049 0.8325 0.0
C80 C 0.43402 0.85762 0.84558 0.0
C81 C 0.45372 0.83514 0.83185 0.0
C82 C 0.44352 0.81635 0.80517 0.0
C83 C 0.41329 0.82002 0.79196 0.0
C84 C 0.39398 0.84173 0.80587 0.0
C85 C 0.36264 0.8427 0.78889 0.0
C86 C 0.36641 0.81856 0.76188 0.0
C87 C 0.39609 0.80511 0.76371 0.0
C88 C 0.35621 0.87493 0.77215 0.0
C89 C 0.33978 0.83355 0.81647 0.0
C90 C 0.44423 0.71864 0.69461 0.0
C91 C 0.43262 0.70177 0.66671 0.0
C92 C 0.40366 0.71028 0.65177 0.0
C93 C 0.38586 0.7338 0.6652 0.0
C94 C 0.39695 0.74943 0.69394 0.0
C95 C 0.42593 0.74245 0.70779 0.0
C96 C 0.43388 0.76294 0.73747 0.0
C97 C 0.4043 0.78207 0.73997 0.0
C98 C 0.3829 0.77374 0.71435 0.0
C99 C 0.46051 0.78254 0.72663 0.0
C100 C 0.44105 0.74278 0.77044 0.0
H101 H 0.29821 0.85198 0.7668 0.0
H102 H 0.26679 0.79603 0.66211 0.0
H103 H 0.30061 0.74674 0.71313 0.0
H104 H 0.33396 0.73164 0.69574 0.0
H105 H 0.30182 0.74297 0.66709 0.0
H106 H 0.33091 0.81754 0.64602 0.0
H107 H 0.31859 0.78184 0.63016 0.0
H108 H 0.35785 0.7872 0.64321 0.0
H109 H 0.38779 0.87702 0.84284 0.0
H110 H 0.47723 0.83248 0.84126 0.0
H111 H 0.45958 0.79981 0.79571 0.0
H112 H 0.37681 0.88311 0.75961 0.0
H113 H 0.34975 0.89168 0.79194 0.0
H114 H 0.33826 0.87557 0.75135 0.0
H115 H 0.35073 0.81748 0.83646 0.0
H116 H 0.32049 0.82112 0.80538 0.0
H117 H 0.33082 0.85383 0.83004 0.0
H118 H 0.24695 0.85979 0.74264 0.0
C119 C 0.29215 0.8394 0.74428 0.0
C120 C 0.73197 0.28138 0.8701 0.0
C121 C 0.71091 0.26335 0.85256 0.0
C122 C 0.70055 0.27219 0.81861 0.0
C123 C 0.72802 0.31862 0.82247 0.0
C124 C 0.74018 0.30889 0.85457 0.0
C125 C 0.76062 0.33195 0.87034 0.0
H126 H 0.82177 0.47078 0.86078 0.0
C127 C 0.73724 0.35009 0.81591 0.0
C128 C 0.75653 0.35804 0.84361 0.0
H129 H 0.84377 0.39597 0.93391 0.0
H130 H 0.80488 0.36658 0.90731 0.0
H131 H 0.74722 0.46315 0.86437 0.0
H132 H 0.81159 0.43116 0.7903 0.0
H133 H 0.77965 0.45106 0.76947 0.0
H134 H 0.80408 0.47085 0.79865 0.0
H135 H 0.76096 0.48824 0.83165 0.0
H136 H 0.72902 0.46456 0.82301 0.0
C137 C 0.7481 0.34102 0.90574 0.0
C138 C 0.79368 0.31797 0.87248 0.0
C139 C 0.68552 0.41033 0.71561 0.0
C140 C 0.68105 0.44172 0.70802 0.0
C141 C 0.69883 0.4622 0.72699 0.0
C142 C 0.71942 0.45151 0.75397 0.0
C143 C 0.72182 0.42011 0.76257 0.0
C144 C 0.70479 0.40026 0.74346 0.0
C145 C 0.70641 0.36845 0.75867 0.0
C146 C 0.72756 0.37221 0.78998 0.0
C147 C 0.73729 0.40226 0.79183 0.0
C148 C 0.6738 0.36013 0.76879 0.0
C149 C 0.72102 0.34707 0.73211 0.0
C150 C 0.8179 0.44817 0.87114 0.0
C151 C 0.83633 0.4354 0.89902 0.0
C152 C 0.83046 0.406 0.91195 0.0
C153 C 0.80787 0.3889 0.89645 0.0
C154 C 0.79066 0.40125 0.86771 0.0
C155 C 0.79528 0.4306 0.85575 0.0
C156 C 0.77408 0.43968 0.82508 0.0
C157 C 0.75816 0.41001 0.81902 0.0
C158 C 0.76773 0.38787 0.84455 0.0
C159 C 0.75169 0.46539 0.83628 0.0
C160 C 0.79323 0.44882 0.7941 0.0
H161 H 0.69966 0.30549 0.77802 0.0
H162 H 0.74083 0.27486 0.89593 0.0
H163 H 0.79674 0.29896 0.85426 0.0
H164 H 0.81056 0.33466 0.86484 0.0
H165 H 0.80001 0.30869 0.89895 0.0
H166 H 0.72288 0.34439 0.9037 0.0
H167 H 0.7538 0.32294 0.92592 0.0
H168 H 0.75664 0.36277 0.91503 0.0
H169 H 0.67309 0.39362 0.70131 0.0
H170 H 0.69604 0.48656 0.72197 0.0
H171 H 0.732 0.4681 0.76781 0.0
H172 H 0.6587 0.38079 0.77185 0.0
H173 H 0.66271 0.34609 0.74878 0.0
H174 H 0.67352 0.34802 0.79423 0.0
H175 H 0.7401 0.35821 0.71942 0.0
H176 H 0.73122 0.32573 0.74421 0.0
H177 H 0.70411 0.34129 0.71142 0.0
H178 H 0.68422 0.2589 0.80448 0.0
C179 C 0.70915 0.29958 0.80342 0.0
C180 C 0.85895 0.91017 0.34934 0.0
C181 C 0.84932 0.92673 0.378 0.0
C182 C 0.82179 0.9194 0.39309 0.0
C183 C 0.81534 0.87837 0.35322 0.0
C184 C 0.84165 0.88614 0.33743 0.0
C185 C 0.84923 0.86512 0.30846 0.0
H186 H 0.82395 0.73184 0.23089 0.0
C187 C 0.80368 0.85123 0.33636 0.0
C188 C 0.82312 0.84351 0.30966 0.0
H189 H 0.89465 0.79458 0.20974 0.0
H190 H 0.8722 0.83074 0.24848 0.0
H191 H 0.8229 0.74034 0.31162 0.0
H192 H 0.77006 0.78105 0.22533 0.0
H193 H 0.74553 0.78197 0.26011 0.0
H194 H 0.75996 0.74568 0.24505 0.0
H195 H 0.79728 0.72026 0.28389 0.0
H196 H 0.78416 0.73946 0.32114 0.0
C197 C 0.8804 0.8487 0.318 0.0
C198 C 0.8484 0.88412 0.27408 0.0
C199 C 0.71894 0.79402 0.39107 0.0
C200 C 0.70482 0.76697 0.38226 0.0
C201 C 0.71082 0.75367 0.35029 0.0
C202 C 0.73213 0.76586 0.32855 0.0
C203 C 0.74787 0.79144 0.339 0.0
C204 C 0.74017 0.80598 0.36889 0.0
C205 C 0.75837 0.83379 0.37475 0.0
C206 C 0.77919 0.83254 0.34425 0.0
C207 C 0.77339 0.80722 0.32404 0.0
C208 C 0.77636 0.82915 0.40997 0.0
C209 C 0.73623 0.8623 0.37245 0.0
C210 C 0.8344 0.75356 0.23378 0.0
C211 C 0.86149 0.75993 0.21744 0.0
C212 C 0.87424 0.78858 0.22261 0.0
C213 C 0.86115 0.80961 0.24509 0.0
C214 C 0.83508 0.80195 0.26273 0.0
C215 C 0.82162 0.77475 0.25593 0.0
C216 C 0.79377 0.77035 0.27632 0.0
C217 C 0.79316 0.79902 0.2974 0.0
C218 C 0.81766 0.81728 0.28982 0.0
C219 C 0.79952 0.74105 0.29943 0.0
C220 C 0.76581 0.7695 0.25057 0.0
H221 H 0.78431 0.89085 0.39375 0.0
H222 H 0.87974 0.91546 0.3368 0.0
H223 H 0.83037 0.90269 0.27396 0.0
H224 H 0.8426 0.87049 0.25127 0.0
H225 H 0.87048 0.89486 0.27024 0.0
H226 H 0.88179 0.84145 0.34587 0.0
H227 H 0.89937 0.86407 0.31347 0.0
H228 H 0.88448 0.82766 0.30368 0.0
H229 H 0.71431 0.805 0.41521 0.0
H230 H 0.70031 0.73277 0.34294 0.0
H231 H 0.73651 0.75407 0.30521 0.0
H232 H 0.78652 0.80552 0.41271 0.0
H233 H 0.76121 0.8328 0.43195 0.0
H234 H 0.79566 0.84421 0.41297 0.0
H235 H 0.71504 0.85801 0.35693 0.0
H236 H 0.74606 0.88194 0.35895 0.0
H237 H 0.72939 0.86924 0.39857 0.0
H238 H 0.81393 0.93137 0.41544 0.0
C239 C 0.8047 0.89556 0.3807 0.0
C240 C 0.87782 0.76905 0.92671 0.0
C241 C 0.90507 0.75283 0.91621 0.0
C242 C 0.91973 0.76722 0.88839 0.0
C243 C 0.88159 0.81031 0.88244 0.0
C244 C 0.86675 0.79744 0.90974 0.0
C245 C 0.83878 0.81785 0.91782 0.0
H246 H 0.74463 0.94868 0.88368 0.0
C247 C 0.86462 0.83989 0.87 0.0
C248 C 0.83917 0.84466 0.89091 0.0
H249 H 0.73564 0.87924 0.96353 0.0
H250 H 0.78018 0.85181 0.94424 0.0
H251 H 0.76754 0.89871 0.8198 0.0
H252 H 0.82288 0.94975 0.8916 0.0
H253 H 0.83271 0.95473 0.8478 0.0
H254 H 0.79612 0.96884 0.861 0.0
H255 H 0.76417 0.9397 0.82052 0.0
H256 H 0.79493 0.92072 0.79924 0.0
C257 C 0.81012 0.7992 0.91249 0.0
C258 C 0.84323 0.82901 0.95515 0.0
C259 C 0.90636 0.89936 0.76577 0.0
C260 C 0.89817 0.92685 0.74638 0.0
C261 C 0.87201 0.94332 0.75785 0.0
C262 C 0.85488 0.93288 0.78637 0.0
C263 C 0.8634 0.90532 0.80498 0.0
C264 C 0.88908 0.88931 0.79431 0.0
C265 C 0.89576 0.86077 0.81676 0.0
C266 C 0.87007 0.86165 0.84244 0.0
C267 C 0.85052 0.88796 0.83589 0.0
C268 C 0.89379 0.8329 0.79312 0.0
C269 C 0.92729 0.86372 0.83546 0.0
C270 C 0.75195 0.9275 0.89706 0.0
C271 C 0.7353 0.91708 0.92613 0.0
C272 C 0.74709 0.88907 0.94191 0.0
C273 C 0.77341 0.87269 0.93044 0.0
C274 C 0.7898 0.88357 0.90224 0.0
C275 C 0.77888 0.91072 0.88591 0.0
C276 C 0.79967 0.919 0.85645 0.0
C277 C 0.8244 0.89281 0.85761 0.0
C278 C 0.81859 0.87153 0.88489 0.0
C279 C 0.78064 0.91976 0.82202 0.0
C280 C 0.81358 0.94984 0.86438 0.0
H281 H 0.92137 0.80361 0.85108 0.0
H282 H 0.86503 0.75998 0.94763 0.0
H283 H 0.86659 0.83731 0.95942 0.0
H284 H 0.82751 0.84834 0.96066 0.0
H285 H 0.84014 0.81023 0.97437 0.0
H286 H 0.81063 0.78742 0.88735 0.0
H287 H 0.8088 0.78156 0.93349 0.0
H288 H 0.78895 0.81362 0.91153 0.0
H289 H 0.92627 0.88575 0.75926 0.0
H290 H 0.86421 0.96426 0.74429 0.0
H291 H 0.83534 0.94672 0.79291 0.0
H292 H 0.87455 0.83631 0.77362 0.0
H293 H 0.91501 0.82935 0.77882 0.0
H294 H 0.88916 0.81161 0.80742 0.0
H295 H 0.93106 0.88784 0.84208 0.0
H296 H 0.92947 0.851 0.86056 0.0
H297 H 0.94601 0.85602 0.81887 0.0
H298 H 0.94071 0.75746 0.87913 0.0
C299 C 0.9084 0.79496 0.87184 0.0
C300 C 0.7933 0.25101 0.32197 0.0
C301 C 0.81021 0.22359 0.31708 0.0
C302 C 0.79617 0.20055 0.298 0.0
C303 C 0.74864 0.23068 0.29353 0.0
C304 C 0.76252 0.25357 0.31124 0.0
C305 C 0.74013 0.27828 0.32127 0.0
H306 H 0.59557 0.3189 0.35282 0.0
C307 C 0.71573 0.23895 0.28965 0.0
C308 C 0.71049 0.26657 0.30624 0.0
H309 H 0.6778 0.36617 0.37775 0.0
H310 H 0.70638 0.33219 0.34272 0.0
H311 H 0.6211 0.24721 0.35193 0.0
H312 H 0.61369 0.31669 0.2704 0.0
H313 H 0.61004 0.28113 0.25114 0.0
H314 H 0.58198 0.29431 0.28089 0.0
H315 H 0.58586 0.26604 0.33637 0.0
H316 H 0.60193 0.23448 0.31383 0.0
C317 C 0.74095 0.27874 0.3615 0.0
C318 C 0.74846 0.30868 0.30336 0.0
C319 C 0.64636 0.16993 0.22321 0.0
C320 C 0.61525 0.17181 0.2136 0.0
C321 C 0.59683 0.19597 0.22591 0.0
C322 C 0.60938 0.21786 0.24772 0.0
C323 C 0.64073 0.21584 0.2567 0.0
C324 C 0.65863 0.19226 0.24413 0.0
C325 C 0.69165 0.19426 0.25474 0.0
C326 C 0.69097 0.22371 0.27438 0.0
C327 C 0.66103 0.23594 0.27638 0.0
C328 C 0.70111 0.16617 0.27865 0.0
C329 C 0.71007 0.19692 0.22152 0.0
C330 C 0.61974 0.32184 0.35079 0.0
C331 C 0.63471 0.34421 0.37008 0.0
C332 C 0.66592 0.34812 0.36512 0.0
C333 C 0.68258 0.32844 0.34456 0.0
C334 C 0.66812 0.30438 0.32857 0.0
C335 C 0.63694 0.30238 0.3298 0.0
C336 C 0.62556 0.27763 0.30657 0.0
C337 C 0.6555 0.26305 0.29511 0.0
C338 C 0.68026 0.27872 0.30878 0.0
C339 C 0.60752 0.25506 0.3282 0.0
C340 C 0.60665 0.29302 0.27569 0.0
H341 H 0.75634 0.1855 0.27224 0.0
H342 H 0.80314 0.26966 0.33565 0.0
H343 H 0.7606 0.30458 0.27908 0.0
H344 H 0.72807 0.32308 0.29503 0.0
H345 H 0.7635 0.32193 0.32055 0.0
H346 H 0.74217 0.25509 0.37275 0.0
H347 H 0.76121 0.29047 0.37166 0.0
H348 H 0.72057 0.28959 0.37227 0.0
H349 H 0.66108 0.15184 0.21376 0.0
H350 H 0.57274 0.19776 0.21879 0.0
H351 H 0.59434 0.23554 0.25675 0.0
H352 H 0.68119 0.15663 0.29134 0.0
H353 H 0.71193 0.14758 0.26382 0.0
H354 H 0.71673 0.17198 0.30046 0.0
H355 H 0.69812 0.21298 0.20221 0.0
H356 H 0.73278 0.20611 0.22627 0.0
H357 H 0.71292 0.17444 0.20922 0.0
H358 H 0.80801 0.17892 0.29394 0.0
C359 C 0.76573 0.20414 0.28587 0.0
C360 C 0.39421 0.58649 0.29151 0.0
C361 C 0.38066 0.56451 0.31215 0.0
C362 C 0.35282 0.55277 0.30045 0.0
C363 C 0.35165 0.5867 0.24952 0.0
C364 C 0.37942 0.59728 0.26072 0.0
C365 C 0.39067 0.62153 0.23702 0.0
H366 H 0.364 0.72249 0.1039 0.0
C367 C 0.34182 0.60422 0.21735 0.0
C368 C 0.36465 0.62465 0.21013 0.0
H369 H 0.44567 0.70805 0.16928 0.0
H370 H 0.42381 0.66548 0.19826 0.0
H371 H 0.31537 0.71086 0.16191 0.0
H372 H 0.35749 0.65127 0.08952 0.0
H373 H 0.32002 0.63973 0.09277 0.0
H374 H 0.32671 0.67774 0.0766 0.0
H375 H 0.30634 0.71303 0.11613 0.0
H376 H 0.28696 0.6879 0.14469 0.0
C377 C 0.39396 0.65094 0.25804 0.0
C378 C 0.42058 0.60919 0.22138 0.0
C379 C 0.2409 0.58488 0.15394 0.0
C380 C 0.2255 0.59925 0.12488 0.0
C381 C 0.23821 0.62463 0.10881 0.0
C382 C 0.26615 0.6352 0.12094 0.0
C383 C 0.28153 0.62039 0.14965 0.0
C384 C 0.26872 0.59597 0.16603 0.0
C385 C 0.28788 0.58405 0.19712 0.0
C386 C 0.31493 0.6044 0.19559 0.0
C387 C 0.31099 0.62561 0.16766 0.0
C388 C 0.26946 0.58939 0.22991 0.0
C389 C 0.29719 0.55023 0.19147 0.0
C390 C 0.37704 0.71001 0.12447 0.0
C391 C 0.40643 0.7186 0.13462 0.0
C392 C 0.42303 0.70166 0.16101 0.0
C393 C 0.41022 0.67706 0.17793 0.0
C394 C 0.3805 0.66921 0.1683 0.0
C395 C 0.36471 0.685 0.14136 0.0
C396 C 0.33417 0.672 0.13338 0.0
C397 C 0.33396 0.64645 0.16074 0.0
C398 C 0.3609 0.64539 0.1814 0.0
C399 C 0.30923 0.69715 0.13901 0.0
C400 C 0.33427 0.65967 0.0961 0.0
H401 H 0.31688 0.55432 0.26175 0.0
H402 H 0.41598 0.59539 0.29932 0.0
H403 H 0.42181 0.58381 0.22112 0.0
H404 H 0.42236 0.6164 0.19387 0.0
H405 H 0.44092 0.61643 0.23651 0.0
H406 H 0.37444 0.65431 0.27519 0.0
H407 H 0.41516 0.64959 0.27474 0.0
H408 H 0.39387 0.67192 0.2417 0.0
H409 H 0.23137 0.5656 0.16708 0.0
H410 H 0.22677 0.63593 0.08633 0.0
H411 H 0.27473 0.65443 0.10737 0.0
H412 H 0.25537 0.61104 0.22726 0.0
H413 H 0.25385 0.57056 0.23441 0.0
H414 H 0.28408 0.59198 0.25346 0.0
H415 H 0.30397 0.54697 0.16432 0.0
H416 H 0.31708 0.54208 0.20799 0.0
H417 H 0.27798 0.53525 0.19632 0.0
H418 H 0.34205 0.53563 0.31585 0.0
C419 C 0.3382 0.5638 0.26921 0.0
C420 C 0.18169 0.14032 0.69329 0.0
C421 C 0.1941 0.11869 0.6708 0.0
C422 C 0.2261 0.11409 0.67087 0.0
C423 C 0.23236 0.15555 0.71007 0.0
C424 C 0.20126 0.15801 0.71311 0.0
C425 C 0.19221 0.18159 0.73885 0.0
H426 H 0.23047 0.30447 0.82893 0.0
C427 C 0.24628 0.17898 0.73129 0.0
C428 C 0.2231 0.19353 0.74952 0.0
H429 H 0.14246 0.2642 0.82021 0.0
H430 H 0.1647 0.22166 0.79027 0.0
H431 H 0.25029 0.30223 0.76661 0.0
H432 H 0.26936 0.23552 0.84601 0.0
H433 H 0.30309 0.23999 0.82353 0.0
H434 H 0.28437 0.27283 0.84192 0.0
H435 H 0.28738 0.29914 0.787 0.0
H436 H 0.27866 0.2801 0.74721 0.0
C437 C 0.17137 0.20631 0.71944 0.0
C438 C 0.17719 0.16535 0.76949 0.0
C439 C 0.34715 0.21928 0.69732 0.0
C440 C 0.36254 0.24509 0.70806 0.0
C441 C 0.35524 0.25834 0.73968 0.0
C442 C 0.33065 0.24836 0.7581 0.0
C443 C 0.31301 0.22524 0.74455 0.0
C444 C 0.32241 0.20969 0.71597 0.0
C445 C 0.30107 0.18505 0.70615 0.0
C446 C 0.27583 0.19078 0.73147 0.0
C447 C 0.28279 0.21483 0.75326 0.0
C448 C 0.28968 0.19082 0.66797 0.0
C449 C 0.31788 0.1535 0.71277 0.0
C450 C 0.21597 0.28622 0.82139 0.0
C451 C 0.18449 0.28812 0.8265 0.0
C452 C 0.16663 0.26379 0.81584 0.0
C453 C 0.17958 0.23906 0.7985 0.0
C454 C 0.21067 0.23871 0.79146 0.0
C455 C 0.22849 0.26151 0.80388 0.0
C456 C 0.26113 0.25741 0.79428 0.0
C457 C 0.25973 0.22885 0.77291 0.0
C458 C 0.23009 0.21812 0.77123 0.0
C459 C 0.27 0.28606 0.77282 0.0
C460 C 0.28074 0.25129 0.82813 0.0
H461 H 0.26932 0.12829 0.68913 0.0
H462 H 0.15735 0.1443 0.6947 0.0
H463 H 0.18528 0.14102 0.77249 0.0
H464 H 0.1832 0.17542 0.79472 0.0
H465 H 0.15202 0.16582 0.76562 0.0
H466 H 0.18124 0.21314 0.69447 0.0
H467 H 0.14843 0.19761 0.71353 0.0
H468 H 0.16849 0.22747 0.73388 0.0
H469 H 0.35296 0.20827 0.67356 0.0
H470 H 0.36687 0.2781 0.74869 0.0
H471 H 0.32517 0.26021 0.78106 0.0
H472 H 0.27978 0.21447 0.66414 0.0
H473 H 0.30864 0.18779 0.65007 0.0
H474 H 0.27203 0.17521 0.65961 0.0
H475 H 0.34026 0.1553 0.72689 0.0
H476 H 0.3047 0.13816 0.72922 0.0
H477 H 0.32242 0.14204 0.68807 0.0
H478 H 0.23651 0.09659 0.65543 0.0
C479 C 0.24522 0.13236 0.69044 0.0
Nd480 Nd 0.03405 0.99941 0.5151 0.0
Nd481 Nd 1.00516 0.05888 0.52334 0.0
C482 C 0.05134 0.94124 0.51268 0.0
C483 C 0.06569 0.92158 0.54058 0.0
C484 C 0.08693 0.89836 0.53276 0.0
C485 C 0.1065 0.88511 0.55895 0.0
C486 C 0.10521 0.89522 0.59316 0.0
C487 C 0.08238 0.91687 0.60125 0.0
C488 C 0.06283 0.93 0.57517 0.0
C489 C 0.06838 0.03611 0.55635 0.0
C490 C 0.98696 1.00706 0.58156 0.0
C491 C 0.98986 0.11733 0.52948 0.0
C492 C 0.97601 0.14149 0.50607 0.0
C493 C 0.98574 0.14593 0.47217 0.0
C494 C 0.96892 0.16548 0.44867 0.0
C495 C 0.94183 0.18052 0.45849 0.0
C496 C 0.93311 0.17697 0.49302 0.0
C497 C 0.95013 0.15785 0.51654 0.0
C498 C 0.97094 0.02245 0.48159 0.0
C499 C 0.05151 0.05113 0.45641 0.0
O500 O 1.02302 0.95043 0.51656 0.0
O501 O 0.06822 0.96333 0.50277 0.0
O502 O 0.07948 1.01863 0.5332 0.0
O503 O 0.04014 0.03342 0.55806 0.0
O504 O 0.99962 0.98787 0.55957 0.0
O505 O 0.98974 0.03677 0.57556 0.0
O506 O 1.01765 0.10743 0.52381 0.0
O507 O 0.97192 0.09533 0.53686 0.0
O508 O 0.95938 0.04134 0.50309 0.0
O509 O 0.99925 0.02466 0.48066 0.0
O510 O 0.03932 0.07029 0.47876 0.0
O511 O 0.04845 0.02136 0.46213 0.0
H512 H 0.08978 0.89194 0.50615 0.0
H513 H 0.12407 0.86864 0.55194 0.0
H514 H 0.08071 0.92486 0.62745 0.0
H515 H 0.04688 0.9482 0.58173 0.0
H516 H 1.00562 0.13344 0.46339 0.0
H517 H 0.97667 0.16804 0.42254 0.0
H518 H 0.91216 0.18756 0.50158 0.0
H519 H 0.94211 0.15455 0.54249 0.0
Nd520 Nd 0.51863 1.01117 0.04089 0.0
Nd521 Nd 0.51873 0.04554 0.99091 0.0
C522 C 0.5185 0.96258 0.08337 0.0
C523 C 0.50004 0.93537 0.08617 0.0
C524 C 0.49935 0.91376 0.05989 0.0
C525 C 0.48204 0.88797 0.06318 0.0
C526 C 0.46493 0.88341 0.09265 0.0
C527 C 0.46526 0.90522 0.11865 0.0
C528 C 0.48278 0.93089 0.1155 0.0
C529 C 0.46654 0.05206 0.04807 0.0
C530 C 0.48211 0.99018 0.97271 0.0
C531 C 0.5215 0.09178 0.94576 0.0
C532 C 0.54664 0.10728 0.92989 0.0
C533 C 0.54603 0.13922 0.92854 0.0
C534 C 0.57089 0.15452 0.91665 0.0
C535 C 0.59672 0.13811 0.9057 0.0
C536 C 0.59707 0.10609 0.90628 0.0
C537 C 0.57229 0.09075 0.91859 0.0
C538 C 0.57017 1.00434 0.98224 0.0
C539 C 0.54992 0.06937 0.0616 0.0
O540 O 0.53574 0.96451 0.05689 0.0
O541 O 0.50507 0.98863 0.08989 0.0
O542 O 0.48773 0.04516 0.0716 0.0
O543 O 0.47431 0.0391 0.02004 0.0
O544 O 0.50079 0.98003 0.99798 0.0
O545 O 0.47934 0.01967 0.96764 0.0
O546 O 0.5195 0.09522 0.97897 0.0
O547 O 0.5171 0.06388 0.93673 0.0
O548 O 0.54805 1.01129 0.96009 0.0
O549 O 0.56331 1.0174 1.01066 0.0
O550 O 0.53315 0.07808 0.03408 0.0
O551 O 0.55315 0.04019 0.0686 0.0
H552 H 0.51226 0.91662 0.03682 0.0
H553 H 0.48201 0.87158 0.04268 0.0
H554 H 0.45256 0.90204 0.14183 0.0
H555 H 0.483 0.94718 0.13611 0.0
H556 H 0.52654 0.15232 0.93736 0.0
H557 H 0.56994 0.17924 0.91601 0.0
H558 H 0.61679 0.09298 0.89809 0.0
H559 H 0.57346 0.06604 0.91988 0.0
Nd560 Nd 0.48745 0.48655 0.53331 0.0
Nd561 Nd 0.54106 0.52422 0.52156 0.0
C562 C 0.43515 0.46017 0.54154 0.0
C563 C 0.42697 0.42922 0.55143 0.0
C564 C 0.39636 0.4225 0.55428 0.0
C565 C 0.3886 0.39369 0.56638 0.0
C566 C 0.41142 0.37127 0.57598 0.0
C567 C 0.44209 0.37789 0.5721 0.0
C568 C 0.44979 0.40663 0.5598 0.0
C569 C 0.5378 0.46921 0.57505 0.0
C570 C 0.49012 0.55387 0.56771 0.0
C571 C 0.59349 0.55017 0.51312 0.0
C572 C 0.60168 0.58106 0.50313 0.0
C573 C 0.63232 0.58794 0.50096 0.0
C574 C 0.64008 0.61649 0.48805 0.0
C575 C 0.61724 0.63838 0.47691 0.0
C576 C 0.58655 0.63173 0.48038 0.0
C577 C 0.57884 0.60329 0.49355 0.0
C578 C 0.49069 0.54148 0.47971 0.0
C579 C 0.53721 0.45814 0.48526 0.0
O580 O 0.4491 0.47506 0.5659 0.0
O581 O 0.44746 0.4633 0.5115 0.0
O582 O 0.51896 0.45022 0.56215 0.0
O583 O 0.52885 0.49625 0.56772 0.0
O584 O 0.47244 0.5338 0.55307 0.0
O585 O 0.51968 0.55273 0.56348 0.0
O586 O 0.57933 0.5354 0.48881 0.0
O587 O 0.58133 0.54711 0.54326 0.0
O588 O 0.50919 0.5605 0.49318 0.0
O589 O 0.49991 0.51448 0.4869 0.0
O590 O 0.55553 0.47671 0.50149 0.0
O591 O 0.50764 0.4603 0.48901 0.0
H592 H 0.37851 0.43976 0.54798 0.0
H593 H 0.36479 0.38937 0.56953 0.0
H594 H 0.4601 0.36098 0.57904 0.0
H595 H 0.47357 0.41145 0.55754 0.0
H596 H 0.65018 0.57096 0.50823 0.0
H597 H 0.66392 0.62091 0.48526 0.0
H598 H 0.56855 0.64827 0.47222 0.0
H599 H 0.55504 0.59835 0.49529 0.0
Nd600 Nd 1.0087 0.5305 0.0399 0.0
Nd601 Nd 0.04568 0.52691 0.98006 0.0
C602 C 0.97011 0.5301 0.09038 0.0
C603 C 0.9531 0.55653 0.10372 0.0
C604 C 0.92726 0.553 0.12326 0.0
C605 C 0.91129 0.57876 0.1351 0.0
C606 C 0.92113 0.60826 0.12762 0.0
C607 C 0.94678 0.61155 0.10764 0.0
C608 C 0.9625 0.58598 0.09575 0.0
C609 C 0.06113 0.56216 0.04653 0.0
C610 C 0.99702 0.58883 0.98388 0.0
C611 C 0.08504 0.5289 0.93053 0.0
C612 C 0.10693 0.50491 0.92009 0.0
C613 C 0.12236 0.48567 0.9453 0.0
C614 C 0.13789 0.45904 0.93569 0.0
C615 C 0.13818 0.45105 0.90072 0.0
C616 C 0.1242 0.47123 0.87537 0.0
C617 C 0.10866 0.49792 0.885 0.0
C618 C 0.99485 0.49325 0.97394 0.0
C619 C 0.05794 0.46868 0.03547 0.0
O620 O 0.96243 0.52297 0.05864 0.0
O621 O 0.99961 0.5302 0.09589 0.0
O622 O 0.03462 0.57332 0.05421 0.0
O623 O 0.05915 0.53572 0.03514 0.0
O624 O 0.98607 0.57464 1.0112 0.0
O625 O 1.0213 0.57596 0.96941 0.0
O626 O 0.09017 0.54054 0.96099 0.0
O627 O 0.0565 0.52279 0.9248 0.0
O628 O 1.02179 0.48335 0.9661 0.0
O629 O 0.99529 0.52007 0.98492 0.0
O630 O 0.06898 0.4844 1.00936 0.0
O631 O 0.03284 0.4802 0.0499 0.0
H632 H 0.91952 0.53044 0.12937 0.0
H633 H 0.8916 0.57562 0.15056 0.0
H634 H 0.95458 0.63397 0.10099 0.0
H635 H 0.9821 0.58926 0.08027 0.0
H636 H 0.12114 0.49033 0.97262 0.0
H637 H 0.1482 0.44388 0.95585 0.0
H638 H 0.12446 0.46589 0.84815 0.0
H639 H 0.09673 0.51232 0.8652 0.0
H640 H 0.1227 0.07706 0.31391 0.0
H641 H 0.11408 0.16948 0.34869 0.0
H642 H 0.08854 0.15209 0.39985 0.0
H643 H 0.06664 0.11094 0.436 0.0
H644 H 0.07544 1.01816 0.40276 0.0
H645 H 0.10198 0.03515 0.35166 0.0
C646 C 0.11563 0.09349 0.33275 0.0
C647 C 0.12072 0.12512 0.32605 0.0
C648 C 0.10031 0.08315 0.36322 0.0
C649 C 0.11064 0.14528 0.35173 0.0
C650 C 0.09582 0.13525 0.38155 0.0
C651 C 0.07429 0.09422 0.41774 0.0
C652 C 0.06836 0.06286 0.42431 0.0
C653 C 0.09009 0.10428 0.3877 0.0
C654 C 0.0791 0.04229 0.39942 0.0
C655 C 0.09455 0.05212 0.36973 0.0
H656 H 0.42107 0.91862 0.85036 0.0
H657 H 0.47152 0.84321 0.90262 0.0
H658 H 0.48946 0.87725 0.94747 0.0
H659 H 0.49167 0.9286 0.97117 0.0
H660 H 0.44149 1.00405 0.91859 0.0
H661 H 0.42198 0.96961 0.87502 0.0
C662 C 0.43571 0.90951 0.87176 0.0
C663 C 0.44492 0.87833 0.87302 0.0
C664 C 0.44586 0.92919 0.89752 0.0
C665 C 0.46437 0.86713 0.90068 0.0
C666 C 0.47448 0.88656 0.92649 0.0
C667 C 0.47622 0.9375 0.95038 0.0
C668 C 0.46805 0.96891 0.94818 0.0
C669 C 0.46547 0.91765 0.92509 0.0
C670 C 0.44814 0.98001 0.92094 0.0
C671 C 0.43706 0.96034 0.89593 0.0
H672 H 0.62659 0.41601 0.69479 0.0
H673 H 0.67916 0.49225 0.66337 0.0
H674 H 0.63865 0.50848 0.62075 0.0
H675 H 0.58887 0.49969 0.59086 0.0
H676 H 0.54068 0.41951 0.61816 0.0
H677 H 0.57968 0.40541 0.66317 0.0
C678 C 0.62988 0.43575 0.67814 0.0
C679 C 0.65643 0.45249 0.68217 0.0
C680 C 0.60728 0.44412 0.65272 0.0
C681 C 0.65907 0.4789 0.66121 0.0
C682 C 0.63598 0.48808 0.63657 0.0
C683 C 0.58705 0.47916 0.60672 0.0
C684 C 0.56198 0.46069 0.60143 0.0
C685 C 0.61009 0.4707 0.63191 0.0
C686 C 0.55986 0.43398 0.62176 0.0
C687 C 0.58207 0.42599 0.64754 0.0
H688 H 0.83609 0.71666 0.1768 0.0
H689 H 0.92297 0.74798 0.21423 0.0
H690 H 0.94887 0.70473 0.18823 0.0
H691 H 0.94678 0.65583 0.15911 0.0
H692 H 0.85995 0.6222 0.12579 0.0
H693 H 0.83399 0.6679 0.14742 0.0
C694 C 0.86069 0.71402 0.17956 0.0
C695 C 0.8774 0.73567 0.19777 0.0
C696 C 0.87542 0.68831 0.1659 0.0
C697 C 0.90937 0.73213 0.20002 0.0
C698 C 0.92426 0.7071 0.18554 0.0
C699 C 0.92218 0.65865 0.15635 0.0
C700 C 0.90526 0.63572 0.14094 0.0
C701 C 0.90748 0.68477 0.16906 0.0
C702 C 0.87339 0.63942 0.13792 0.0
C703 C 0.8586 0.66561 0.15005 0.0
H704 H 0.32826 0.11388 0.05959 0.0
H705 H 0.35906 0.11878 0.16661 0.0
H706 H 0.4086 0.09635 0.15275 0.0
H707 H 0.44471 0.07353 0.11109 0.0
H708 H 0.41512 0.0666 1.00411 0.0
H709 H 0.36547 0.09078 1.01696 0.0
C710 C 0.3458 0.1105 0.07998 0.0
C711 C 0.33867 0.11892 0.11469 0.0
C712 C 0.3753 0.09657 0.07176 0.0
C713 C 0.36268 0.11317 0.1399 0.0
C714 C 0.39152 0.10004 0.13189 0.0
C715 C 0.42759 0.07721 0.09027 0.0
C716 C 0.43489 0.06762 0.0562 0.0
C717 C 0.39833 0.0913 0.09804 0.0
C718 C 0.4113 0.07319 0.03046 0.0
C719 C 0.38243 0.08728 0.03796 0.0
H720 H 0.22145 0.8835 0.69331 0.0
H721 H 0.21463 0.7884 0.6694 0.0
H722 H 0.16749 0.80025 0.63536 0.0
H723 H 0.13001 0.8383 0.60905 0.0
H724 H 0.13661 0.93299 0.63458 0.0
H725 H 0.18143 0.92042 0.6722 0.0
C726 C 0.20935 0.86519 0.68141 0.0
C727 C 0.2219 0.83517 0.68359 0.0
C728 C 0.18212 0.87209 0.66212 0.0
C729 C 0.20593 0.81186 0.66752 0.0
C730 C 0.17885 0.81857 0.64817 0.0
C731 C 0.14115 0.85606 0.62315 0.0
C732 C 0.13005 0.88648 0.61902 0.0
C733 C 0.16709 0.84871 0.64466 0.0
C734 C 0.1445 0.90931 0.63763 0.0
C735 C 0.17029 0.9022 0.65895 0.0
H736 H 0.8929 0.41119 0.91368 0.0
H737 H 0.83932 0.49556 0.91666 0.0
H738 H 0.88335 0.52088 0.94198 0.0
H739 H 0.93745 0.51874 0.96295 0.0
H740 H 0.99038 0.43404 0.95813 0.0
H741 H 0.94595 0.40886 0.93465 0.0
C742 C 0.89071 0.43505 0.92021 0.0
C743 C 0.86282 0.45141 0.91362 0.0
C744 C 0.91595 0.44929 0.93466 0.0
C745 C 0.8606 0.48251 0.92139 0.0
C746 C 0.88569 0.49691 0.93604 0.0
C747 C 0.93907 0.49472 0.95703 0.0
C748 C 0.96706 0.47818 0.96229 0.0
C749 C 0.91351 0.48049 0.94283 0.0
C750 C 0.96905 0.44718 0.95424 0.0
C751 C 0.9437 0.43281 0.94075 0.0
H752 H 0.65054 0.74101 0.37074 0.0
H753 H 0.71973 0.75495 0.45041 0.0
H754 H 0.69643 0.71843 0.48889 0.0
H755 H 0.66059 0.67747 0.49664 0.0
H756 H 0.5925 0.66244 0.41607 0.0
H757 H 0.61094 0.70453 0.38132 0.0
C758 C 0.66015 0.73638 0.39676 0.0
C759 C 0.68693 0.75033 0.40763 0.0
C760 C 0.64704 0.7149 0.41841 0.0
C761 C 0.699 0.74458 0.44154 0.0
C762 C 0.68588 0.72347 0.46341 0.0
C763 C 0.64962 0.68372 0.47165 0.0
C764 C 0.62549 0.66675 0.45874 0.0
C765 C 0.66058 0.70769 0.45163 0.0
C766 C 0.61106 0.67528 0.4266 0.0
C767 C 0.62171 0.6992 0.40661 0.0
H768 H 0.14248 0.34336 0.05403 0.0
H769 H 0.09984 0.33833 0.15268 0.0
H770 H 0.07011 0.38495 0.13775 0.0
H771 H 0.05518 0.42979 0.0969 0.0
H772 H 0.09998 0.43554 0.99981 0.0
H773 H 0.12871 0.38805 1.01423 0.0
C774 C 0.12695 0.35213 0.07276 0.0
C775 C 0.12416 0.3353 0.10483 0.0
C776 C 0.10956 0.38029 0.0642 0.0
C777 C 0.10304 0.34873 0.12752 0.0
C778 C 0.08574 0.37625 0.11903 0.0
C779 C 0.07107 0.42078 0.07865 0.0
C780 C 0.07461 0.43755 0.04675 0.0
C781 C 0.08853 0.39255 0.08738 0.0
C782 C 0.09604 0.42435 0.02443 0.0
C783 C 0.11283 0.39664 0.03274 0.0
H784 H 0.69636 0.20804 0.82736 0.0
H785 H 0.69173 0.26244 0.91872 0.0
H786 H 0.65834 0.22628 0.94485 0.0
H787 H 0.62505 0.18321 0.93856 0.0
H788 H 0.62747 0.12987 0.84646 0.0
H789 H 0.66701 0.1616 0.82372 0.0
C790 C 0.68831 0.21174 0.85316 0.0
C791 C 0.69628 0.23807 0.87086 0.0
C792 C 0.66834 0.19132 0.86766 0.0
C793 C 0.6862 0.24227 0.90457 0.0
C794 C 0.66677 0.22179 0.91941 0.0
C795 C 0.63445 0.17846 0.91362 0.0
C796 C 0.62313 0.15469 0.89388 0.0
C797 C 0.65683 0.19691 0.90066 0.0
C798 C 0.63585 0.14818 0.86199 0.0
C799 C 0.65833 0.16637 0.84896 0.0
H800 H 0.91111 0.92466 0.38739 0.0
H801 H 0.83081 0.98128 0.40477 0.0
H802 H 0.8615 1.01605 0.43816 0.0
H803 H 0.91063 0.02874 0.46534 0.0
H804 H 0.99131 0.97378 0.44567 0.0
H805 H 0.96102 0.94017 0.40977 0.0
C806 C 0.90037 0.94495 0.39778 0.0
C807 C 0.8686 0.95007 0.39393 0.0
C808 C 0.91818 0.96501 0.41676 0.0
C809 C 0.85511 0.97638 0.40795 0.0
C810 C 0.87265 0.99636 0.42697 0.0
C811 C 0.92154 1.00948 0.45301 0.0
C812 C 0.95299 1.00346 0.45829 0.0
C813 C 0.90408 0.99055 0.43214 0.0
C814 C 0.96704 0.97873 0.44193 0.0
C815 C 0.94975 0.95953 0.42148 0.0
H816 H 0.40984 0.64778 0.64904 0.0
H817 H 0.4936 0.69548 0.65332 0.0
H818 H 0.51942 0.65316 0.62437 0.0
H819 H 0.51696 0.60407 0.59419 0.0
H820 H 0.43171 0.55862 0.58812 0.0
H821 H 0.40762 0.59898 0.62074 0.0
C822 C 0.43375 0.64905 0.64354 0.0
C823 C 0.44964 0.67499 0.65288 0.0
C824 C 0.44809 0.62517 0.62617 0.0
C825 C 0.48083 0.67578 0.64648 0.0
C826 C 0.49551 0.65169 0.62966 0.0
C827 C 0.49315 0.60293 0.60013 0.0
C828 C 0.47616 0.57835 0.58844 0.0
C829 C 0.4792 0.6265 0.61879 0.0
C830 C 0.44533 0.57729 0.59646 0.0
C831 C 0.4315 0.60035 0.61524 0.0
H832 H 0.90702 0.98635 0.71784 0.0
H833 H 0.93091 0.89185 0.70009 0.0
H834 H 0.95947 0.90693 0.65012 0.0
H835 H 0.97848 0.94708 0.60925 0.0
H836 H 0.95468 0.04144 0.62747 0.0
H837 H 0.92613 0.02628 0.67752 0.0
C838 C 0.91823 0.96876 0.70319 0.0
C839 C 0.9162 0.93749 0.71433 0.0
C840 C 0.93517 0.9777 0.67352 0.0
C841 C 0.93178 0.91597 0.69389 0.0
C842 C 0.94826 0.92467 0.66457 0.0
C843 C 0.96711 0.96451 0.62401 0.0
C844 C 0.96935 0.99585 0.61337 0.0
C845 C 0.95032 0.95551 0.65384 0.0
C846 C 0.95402 1.01733 0.63396 0.0
C847 C 0.93738 1.00857 0.66306 0.0
H848 H 0.58453 0.18227 0.15173 0.0
H849 H 0.61914 0.11007 0.22213 0.0
H850 H 0.60265 0.07182 0.18116 0.0
H851 H 0.57915 0.05893 0.12479 0.0
H852 H 0.5459 0.13134 0.05357 0.0
H853 H 0.56137 0.16935 0.09504 0.0
C854 C 0.58805 0.15814 0.15817 0.0
C855 C 0.60274 0.14892 0.18994 0.0
C856 C 0.57913 0.13631 0.13413 0.0
C857 C 0.60777 0.11763 0.19782 0.0
C858 C 0.59845 0.09579 0.17437 0.0
C859 C 0.57546 0.08302 0.11824 0.0
C860 C 0.5614 0.0922 0.08605 0.0
C861 C 0.58436 0.10485 0.14229 0.0
C862 C 0.5567 0.12356 0.07811 0.0
C863 C 0.56543 0.14537 0.10188 0.0
H864 H 0.40419 0.60074 0.36092 0.0
H865 H 0.39131 0.50626 0.33876 0.0
H866 H 0.42253 0.49052 0.39075 0.0
H867 H 0.4574 0.50392 0.43943 0.0
H868 H 0.47119 0.59876 0.45942 0.0
H869 H 0.43582 0.61412 0.41121 0.0
C870 C 0.40813 0.57668 0.36755 0.0
C871 C 0.39587 0.55467 0.34583 0.0
C872 C 0.42649 0.56792 0.39689 0.0
C873 C 0.40052 0.52361 0.35512 0.0
C874 C 0.41854 0.51464 0.38467 0.0
C875 C 0.45239 0.52792 0.43336 0.0
C876 C 0.46711 0.55022 0.45263 0.0
C877 C 0.43224 0.53661 0.40528 0.0
C878 C 0.46034 0.58122 0.44473 0.0
C879 C 0.44012 0.59001 0.41719 0.0
H880 H 0.20689 0.3245 0.87714 0.0
H881 H 0.1301 0.31628 0.80516 0.0
H882 H 0.10895 0.36549 0.82231 0.0
H883 H 0.11328 0.41195 0.85557 0.0
H884 H 0.19131 0.42181 0.9251 0.0
H885 H 0.2112 0.37107 0.91057 0.0
C886 C 0.18559 0.33348 0.86508 0.0
C887 C 0.17021 0.31657 0.83984 0.0
C888 C 0.17394 0.36228 0.87428 0.0
C889 C 0.14226 0.3284 0.82507 0.0
C890 C 0.13029 0.35678 0.83454 0.0
C891 C 0.13485 0.40318 0.8672 0.0
C892 C 0.15095 0.42076 0.89108 0.0
C893 C 0.14617 0.37411 0.85867 0.0
C894 C 0.17845 0.4087 0.90666 0.0
C895 C 0.18984 0.37972 0.89835 0.0
H896 H 0.68458 0.9527 0.89398 0.0
H897 H 0.7199 0.92176 0.99509 0.0
H898 H 0.67551 0.94495 0.02156 0.0
H899 H 0.62399 0.97393 1.01752 0.0
H900 H 0.5888 1.00363 0.91582 0.0
H901 H 0.63403 0.98208 0.88998 0.0
C902 C 0.68299 0.95104 0.92187 0.0
C903 C 0.7069 0.93445 0.94169 0.0
C904 C 0.65637 0.96471 0.93772 0.0
C905 C 0.70273 0.93331 0.97804 0.0
C906 C 0.67688 0.94699 0.99366 0.0
C907 C 0.62609 0.9761 0.98973 0.0
C908 C 0.60158 0.9913 0.96935 0.0
C909 C 0.65307 0.96274 0.97401 0.0
C910 C 0.60614 0.99263 0.93313 0.0
C911 C 0.63253 0.98004 0.91787 0.0
H912 H 0.83067 0.24663 0.37864 0.0
H913 H 0.85867 0.18637 0.29782 0.0
H914 H 0.90328 0.16919 0.3336 0.0
H915 H 0.93074 0.16707 0.39038 0.0
H916 H 0.90559 0.23186 0.46776 0.0
H917 H 0.86371 0.25213 0.42973 0.0
C918 C 0.84684 0.23059 0.36786 0.0
C919 C 0.8405 0.21745 0.33554 0.0
C920 C 0.87293 0.22138 0.38809 0.0
C921 C 0.86205 0.19623 0.32301 0.0
C922 C 0.88782 0.18652 0.34336 0.0
C923 C 0.9168 0.18626 0.39867 0.0
C924 C 0.92092 0.19722 0.43248 0.0
C925 C 0.89296 0.19827 0.37642 0.0
C926 C 0.90238 0.22212 0.44246 0.0
C927 C 0.87846 0.23389 0.42064 0.0
H928 H 0.17262 0.63158 0.10887 0.0
H929 H 0.21398 0.54075 0.10886 0.0
H930 H 0.16716 0.52153 0.08279 0.0
H931 H 0.11457 0.53061 0.06003 0.0
H932 H 0.0719 0.62071 0.06325 0.0
H933 H 0.11929 0.64039 0.08759 0.0
C934 C 0.1713 0.6076 0.10308 0.0
C935 C 0.19662 0.58757 0.11065 0.0
C936 C 0.14422 0.5967 0.08849 0.0
C937 C 0.19463 0.5565 0.10348 0.0
C938 C 0.16798 0.54556 0.0884 0.0
C939 C 0.11574 0.5546 0.06586 0.0
C940 C 0.08997 0.57431 0.05968 0.0
C941 C 0.14268 0.56547 0.08073 0.0
C942 C 0.09156 0.60521 0.06775 0.0
C943 C 0.11858 0.61641 0.08172 0.0
H944 H 0.3482 0.25918 0.64095 0.0
H945 H 0.41764 0.27036 0.72113 0.0
H946 H 0.44134 0.30843 0.68473 0.0
H947 H 0.43766 0.34349 0.63392 0.0
H948 H 0.36636 0.33396 0.55539 0.0
H949 H 0.34802 0.29004 0.58732 0.0
C950 C 0.36912 0.26917 0.65 0.0
C951 C 0.3812 0.26201 0.68364 0.0
C952 C 0.38188 0.29172 0.6295 0.0
C953 C 0.40793 0.27562 0.69533 0.0
C954 C 0.42135 0.29747 0.67462 0.0
C955 C 0.41858 0.33132 0.62338 0.0
C956 C 0.4032 0.34207 0.59252 0.0
C957 C 0.40783 0.3065 0.64222 0.0
C958 C 0.37828 0.32634 0.57936 0.0
C959 C 0.36785 0.30121 0.59755 0.0
H960 H 0.95065 0.70988 0.89376 0.0
H961 H 0.89162 0.72304 0.97934 0.0
H962 H 0.91296 0.6757 1.00671 0.0
H963 H 0.9496 0.62914 1.00794 0.0
H964 H 1.0096 0.61883 0.92301 0.0
H965 H 0.9873 0.6656 0.89549 0.0
C966 C 0.94224 0.7033 0.91863 0.0
C967 C 0.91872 0.72194 0.93358 0.0
C968 C 0.95526 0.67558 0.93513 0.0
C969 C 0.90898 0.71052 0.96587 0.0
C970 C 0.92154 0.68293 0.98205 0.0
C971 C 0.95798 0.63697 0.9834 0.0
C972 C 0.98193 0.61924 0.96812 0.0
C973 C 0.94486 0.66501 0.96715 0.0
C974 C 0.9917 0.63095 0.93615 0.0
C975 C 0.97871 0.65814 0.92007 0.0
H976 H 0.38092 0.77569 0.13098 0.0
H977 H 0.46141 0.72293 0.1056 0.0
H978 H 0.48579 0.76953 0.08744 0.0
H979 H 0.48573 0.82541 0.08369 0.0
H980 H 0.4064 0.87849 0.1123 0.0
H981 H 0.37991 0.83167 0.12436 0.0
C982 C 0.40356 0.77447 0.12081 0.0
C983 C 0.41942 0.74612 0.11946 0.0
C984 C 0.41769 0.80138 0.11145 0.0
C985 C 0.44891 0.74465 0.10685 0.0
C986 C 0.46283 0.77122 0.09658 0.0
C987 C 0.46246 0.82667 0.092 0.0
C988 C 0.448 0.85525 0.09717 0.0
C989 C 0.44768 0.79974 0.09949 0.0
C990 C 0.41803 0.85667 0.10846 0.0
C991 C 0.40289 0.82995 0.11526 0.0
H992 H 0.13597 0.09987 0.67988 0.0
H993 H 0.20672 0.10079 0.60531 0.0
H994 H 0.17452 0.07452 0.56443 0.0
H995 H 0.12599 0.05225 0.54884 0.0
H996 H 0.05318 0.0557 0.62023 0.0
H997 H 0.08615 0.08027 0.66289 0.0
C998 C 0.14434 0.09475 0.65459 0.0
C999 C 0.17411 0.10212 0.64619 0.0
C1000 C 0.12519 0.08067 0.63039 0.0
C1001 C 0.18441 0.0947 0.61325 0.0
C1002 C 0.16583 0.07997 0.5895 0.0
C1003 C 0.11738 0.05843 0.57376 0.0
C1004 C 0.0874 0.0521 0.5816 0.0
C1005 C 0.13621 0.07293 0.59775 0.0
C1006 C 0.07626 0.06044 0.61371 0.0
C1007 C 0.09512 0.07437 0.63809 0.0
H1008 H 0.57576 0.36858 0.36751 0.0
H1009 H 0.65806 0.36152 0.43269 0.0
H1010 H 0.63554 0.39614 0.4734 0.0
H1011 H 0.59336 0.43018 0.48991 0.0
H1012 H 0.50935 0.43449 0.42821 0.0
H1013 H 0.53139 0.39894 0.3873 0.0
C1014 C 0.58864 0.37426 0.39081 0.0
C1015 C 0.61898 0.36304 0.39624 0.0
C1016 C 0.57526 0.39381 0.41488 0.0
C1017 C 0.63511 0.37063 0.4269 0.0
C1018 C 0.62217 0.39029 0.45051 0.0
C1019 C 0.57988 0.42325 0.46755 0.0
C1020 C 0.54994 0.43515 0.46188 0.0
C1021 C 0.59248 0.40243 0.44451 0.0
C1022 C 0.53252 0.4256 0.43313 0.0
C1023 C 0.54513 0.40535 0.40967 0.0
loop_
_geom_bond_atom_site_label_1
_geom_bond_atom_site_label_2
_geom_bond_distance
_geom_bond_site_symmetry_2
_ccdc_geom_bond_type
C0 C1 1.391 . S
C0 C4 1.391 . S
C0 H42 0.948 . S
C1 C0 1.391 . S
C1 C2 1.391 . S
C2 C1 1.391 . S
C2 H58 0.947 . S
C2 C59 1.392 . S
C3 C4 1.391 . S
C3 C7 1.397 . S
C3 C59 1.419 . S
C4 C0 1.391 . S
C4 C3 1.391 . S
C4 C5 1.399 . S
C5 C4 1.399 . S
C5 C8 1.396 . S
C5 C17 1.453 . S
C5 C18 1.684 . S
H6 C30 0.948 . S
C7 C3 1.397 . S
C7 C8 1.394 . S
C7 C26 1.723 . S
C8 C5 1.396 . S
C8 C7 1.394 . S
C8 C38 1.723 . S
H9 C32 0.947 . S
H10 C33 0.948 . S
H11 C39 0.982 . S
H12 C40 0.979 . S
H13 C40 0.980 . S
H14 C40 0.983 . S
H15 C39 0.979 . S
H16 C39 0.977 . S
C17 C5 1.453 . S
C17 H46 0.982 . S
C17 H47 0.979 . S
C17 H48 0.977 . S
C18 C5 1.684 . S
C18 H43 0.979 . S
C18 H44 0.980 . S
C18 H45 0.983 . S
C19 C20 1.391 . S
C19 C24 1.391 . S
C19 H49 0.948 . S
C20 C19 1.391 . S
C20 C21 1.391 . S
C21 C20 1.391 . S
C21 C22 1.392 . S
C21 H50 0.947 . S
C22 C21 1.392 . S
C22 C23 1.419 . S
C22 H51 0.948 . S
C23 C22 1.419 . S
C23 C24 1.391 . S
C23 C27 1.397 . S
C24 C19 1.391 . S
C24 C23 1.391 . S
C24 C25 1.399 . S
C25 C24 1.399 . S
C25 C26 1.396 . S
C25 C28 1.453 . S
C25 C29 1.684 . S
C26 C7 1.723 . S
C26 C25 1.396 . S
C26 C27 1.394 . S
C27 C23 1.397 . S
C27 C26 1.394 . S
C27 C37 1.723 . S
C28 C25 1.453 . S
C28 H52 0.982 . S
C28 H53 0.979 . S
C28 H54 0.977 . S
C29 C25 1.684 . S
C29 H55 0.979 . S
C29 H56 0.980 . S
C29 H57 0.983 . S
C30 H6 0.948 . S
C30 C31 1.391 . S
C30 C35 1.391 . S
C31 C30 1.391 . S
C31 C32 1.391 . S
C32 H9 0.947 . S
C32 C31 1.391 . S
C32 C33 1.392 . S
C33 H10 0.948 . S
C33 C32 1.392 . S
C33 C34 1.419 . S
C34 C33 1.419 . S
C34 C35 1.391 . S
C34 C38 1.397 . S
C35 C30 1.391 . S
C35 C34 1.391 . S
C35 C36 1.399 . S
C36 C35 1.399 . S
C36 C37 1.396 . S
C36 C39 1.453 . S
C36 C40 1.684 . S
C37 C27 1.723 . S
C37 C36 1.396 . S
C37 C38 1.394 . S
C38 C8 1.723 . S
C38 C34 1.397 . S
C38 C37 1.394 . S
C39 H11 0.982 . S
C39 H15 0.979 . S
C39 H16 0.977 . S
C39 C36 1.453 . S
C40 H12 0.979 . S
C40 H13 0.980 . S
C40 H14 0.983 . S
C40 C36 1.684 . S
H41 C59 0.948 . S
H42 C0 0.948 . S
H43 C18 0.979 . S
H44 C18 0.980 . S
H45 C18 0.983 . S
H46 C17 0.982 . S
H47 C17 0.979 . S
H48 C17 0.977 . S
H49 C19 0.948 . S
H50 C21 0.947 . S
H51 C22 0.948 . S
H52 C28 0.982 . S
H53 C28 0.979 . S
H54 C28 0.977 . S
H55 C29 0.979 . S
H56 C29 0.980 . S
H57 C29 0.983 . S
H58 C2 0.947 . S
C59 C2 1.392 . S
C59 C3 1.419 . S
C59 H41 0.948 . S
C60 C61 1.391 . S
C60 C64 1.391 . S
C60 H102 0.948 . S
C61 C60 1.391 . S
C61 C62 1.391 . S
C62 C61 1.391 . S
C62 H118 0.947 . S
C62 C119 1.392 . S
C63 C64 1.391 . S
C63 C67 1.397 . S
C63 C119 1.419 . S
C64 C60 1.391 . S
C64 C63 1.391 . S
C64 C65 1.399 . S
C65 C64 1.399 . S
C65 C68 1.396 . S
C65 C77 1.453 . S
C65 C78 1.684 . S
H66 C90 0.948 . S
C67 C63 1.397 . S
C67 C68 1.394 . S
C67 C86 1.723 . S
C68 C65 1.396 . S
C68 C67 1.394 . S
C68 C98 1.723 . S
H69 C92 0.947 . S
H70 C93 0.948 . S
H71 C99 0.982 . S
H72 C100 0.979 . S
H73 C100 0.980 . S
H74 C100 0.983 . S
H75 C99 0.979 . S
H76 C99 0.977 . S
C77 C65 1.453 . S
C77 H106 0.982 . S
C77 H107 0.979 . S
C77 H108 0.977 . S
C78 C65 1.684 . S
C78 H103 0.979 . S
C78 H104 0.980 . S
C78 H105 0.983 . S
C79 C80 1.391 . S
C79 C84 1.391 . S
C79 H109 0.948 . S
C80 C79 1.391 . S
C80 C81 1.391 . S
C81 C80 1.391 . S
C81 C82 1.392 . S
C81 H110 0.947 . S
C82 C81 1.392 . S
C82 C83 1.419 . S
C82 H111 0.948 . S
C83 C82 1.419 . S
C83 C84 1.391 . S
C83 C87 1.397 . S
C84 C79 1.391 . S
C84 C83 1.391 . S
C84 C85 1.399 . S
C85 C84 1.399 . S
C85 C86 1.396 . S
C85 C88 1.453 . S
C85 C89 1.684 . S
C86 C67 1.723 . S
C86 C85 1.396 . S
C86 C87 1.394 . S
C87 C83 1.397 . S
C87 C86 1.394 . S
C87 C97 1.723 . S
C88 C85 1.453 . S
C88 H112 0.982 . S
C88 H113 0.979 . S
C88 H114 0.977 . S
C89 C85 1.684 . S
C89 H115 0.979 . S
C89 H116 0.980 . S
C89 H117 0.983 . S
C90 H66 0.948 . S
C90 C91 1.391 . S
C90 C95 1.391 . S
C91 C90 1.391 . S
C91 C92 1.391 . S
C92 H69 0.947 . S
C92 C91 1.391 . S
C92 C93 1.392 . S
C93 H70 0.948 . S
C93 C92 1.392 . S
C93 C94 1.419 . S
C94 C93 1.419 . S
C94 C95 1.391 . S
C94 C98 1.397 . S
C95 C90 1.391 . S
C95 C94 1.391 . S
C95 C96 1.399 . S
C96 C95 1.399 . S
C96 C97 1.396 . S
C96 C99 1.453 . S
C96 C100 1.684 . S
C97 C87 1.723 . S
C97 C96 1.396 . S
C97 C98 1.394 . S
C98 C68 1.723 . S
C98 C94 1.397 . S
C98 C97 1.394 . S
C99 H71 0.982 . S
C99 H75 0.979 . S
C99 H76 0.977 . S
C99 C96 1.453 . S
C100 H72 0.979 . S
C100 H73 0.980 . S
C100 H74 0.983 . S
C100 C96 1.684 . S
H101 C119 0.948 . S
H102 C60 0.948 . S
H103 C78 0.979 . S
H104 C78 0.980 . S
H105 C78 0.983 . S
H106 C77 0.982 . S
H107 C77 0.979 . S
H108 C77 0.977 . S
H109 C79 0.948 . S
H110 C81 0.947 . S
H111 C82 0.948 . S
H112 C88 0.982 . S
H113 C88 0.979 . S
H114 C88 0.977 . S
H115 C89 0.979 . S
H116 C89 0.980 . S
H117 C89 0.983 . S
H118 C62 0.947 . S
C119 C62 1.392 . S
C119 C63 1.419 . S
C119 H101 0.948 . S
C120 C121 1.391 . S
C120 C124 1.391 . S
C120 H162 0.948 . S
C121 C120 1.391 . S
C121 C122 1.391 . S
C122 C121 1.391 . S
C122 H178 0.947 . S
C122 C179 1.392 . S
C123 C124 1.391 . S
C123 C127 1.397 . S
C123 C179 1.419 . S
C124 C120 1.391 . S
C124 C123 1.391 . S
C124 C125 1.399 . S
C125 C124 1.399 . S
C125 C128 1.396 . S
C125 C137 1.453 . S
C125 C138 1.684 . S
H126 C150 0.948 . S
C127 C123 1.397 . S
C127 C128 1.394 . S
C127 C146 1.723 . S
C128 C125 1.396 . S
C128 C127 1.394 . S
C128 C158 1.723 . S
H129 C152 0.947 . S
H130 C153 0.948 . S
H131 C159 0.982 . S
H132 C160 0.979 . S
H133 C160 0.980 . S
H134 C160 0.983 . S
H135 C159 0.979 . S
H136 C159 0.977 . S
C137 C125 1.453 . S
C137 H166 0.982 . S
C137 H167 0.979 . S
C137 H168 0.977 . S
C138 C125 1.684 . S
C138 H163 0.979 . S
C138 H164 0.980 . S
C138 H165 0.983 . S
C139 C140 1.391 . S
C139 C144 1.391 . S
C139 H169 0.948 . S
C140 C139 1.391 . S
C140 C141 1.391 . S
C141 C140 1.391 . S
C141 C142 1.392 . S
C141 H170 0.947 . S
C142 C141 1.392 . S
C142 C143 1.419 . S
C142 H171 0.948 . S
C143 C142 1.419 . S
C143 C144 1.391 . S
C143 C147 1.397 . S
C144 C139 1.391 . S
C144 C143 1.391 . S
C144 C145 1.399 . S
C145 C144 1.399 . S
C145 C146 1.396 . S
C145 C148 1.453 . S
C145 C149 1.684 . S
C146 C127 1.723 . S
C146 C145 1.396 . S
C146 C147 1.394 . S
C147 C143 1.397 . S
C147 C146 1.394 . S
C147 C157 1.723 . S
C148 C145 1.453 . S
C148 H172 0.982 . S
C148 H173 0.979 . S
C148 H174 0.977 . S
C149 C145 1.684 . S
C149 H175 0.979 . S
C149 H176 0.980 . S
C149 H177 0.983 . S
C150 H126 0.948 . S
C150 C151 1.391 . S
C150 C155 1.391 . S
C151 C150 1.391 . S
C151 C152 1.391 . S
C152 H129 0.947 . S
C152 C151 1.391 . S
C152 C153 1.392 . S
C153 H130 0.948 . S
C153 C152 1.392 . S
C153 C154 1.419 . S
C154 C153 1.419 . S
C154 C155 1.391 . S
C154 C158 1.397 . S
C155 C150 1.391 . S
C155 C154 1.391 . S
C155 C156 1.399 . S
C156 C155 1.399 . S
C156 C157 1.396 . S
C156 C159 1.453 . S
C156 C160 1.684 . S
C157 C147 1.723 . S
C157 C156 1.396 . S
C157 C158 1.394 . S
C158 C128 1.723 . S
C158 C154 1.397 . S
C158 C157 1.394 . S
C159 H131 0.982 . S
C159 H135 0.979 . S
C159 H136 0.977 . S
C159 C156 1.453 . S
C160 H132 0.979 . S
C160 H133 0.980 . S
C160 H134 0.983 . S
C160 C156 1.684 . S
H161 C179 0.948 . S
H162 C120 0.948 . S
H163 C138 0.979 . S
H164 C138 0.980 . S
H165 C138 0.983 . S
H166 C137 0.982 . S
H167 C137 0.979 . S
H168 C137 0.977 . S
H169 C139 0.948 . S
H170 C141 0.947 . S
H171 C142 0.948 . S
H172 C148 0.982 . S
H173 C148 0.979 . S
H174 C148 0.977 . S
H175 C149 0.979 . S
H176 C149 0.980 . S
H177 C149 0.983 . S
H178 C122 0.947 . S
C179 C122 1.392 . S
C179 C123 1.419 . S
C179 H161 0.948 . S
C180 C181 1.391 . S
C180 C184 1.391 . S
C180 H222 0.948 . S
C181 C180 1.391 . S
C181 C182 1.391 . S
C182 C181 1.391 . S
C182 H238 0.947 . S
C182 C239 1.392 . S
C183 C184 1.391 . S
C183 C187 1.397 . S
C183 C239 1.419 . S
C184 C180 1.391 . S
C184 C183 1.391 . S
C184 C185 1.399 . S
C185 C184 1.399 . S
C185 C188 1.396 . S
C185 C197 1.453 . S
C185 C198 1.684 . S
H186 C210 0.948 . S
C187 C183 1.397 . S
C187 C188 1.394 . S
C187 C206 1.723 . S
C188 C185 1.396 . S
C188 C187 1.394 . S
C188 C218 1.723 . S
H189 C212 0.947 . S
H190 C213 0.948 . S
H191 C219 0.982 . S
H192 C220 0.979 . S
H193 C220 0.980 . S
H194 C220 0.983 . S
H195 C219 0.979 . S
H196 C219 0.977 . S
C197 C185 1.453 . S
C197 H226 0.982 . S
C197 H227 0.979 . S
C197 H228 0.977 . S
C198 C185 1.684 . S
C198 H223 0.979 . S
C198 H224 0.980 . S
C198 H225 0.983 . S
C199 C200 1.391 . S
C199 C204 1.391 . S
C199 H229 0.948 . S
C200 C199 1.391 . S
C200 C201 1.391 . S
C201 C200 1.391 . S
C201 C202 1.392 . S
C201 H230 0.947 . S
C202 C201 1.392 . S
C202 C203 1.419 . S
C202 H231 0.948 . S
C203 C202 1.419 . S
C203 C204 1.391 . S
C203 C207 1.397 . S
C204 C199 1.391 . S
C204 C203 1.391 . S
C204 C205 1.399 . S
C205 C204 1.399 . S
C205 C206 1.396 . S
C205 C208 1.453 . S
C205 C209 1.684 . S
C206 C187 1.723 . S
C206 C205 1.396 . S
C206 C207 1.394 . S
C207 C203 1.397 . S
C207 C206 1.394 . S
C207 C217 1.723 . S
C208 C205 1.453 . S
C208 H232 0.982 . S
C208 H233 0.979 . S
C208 H234 0.977 . S
C209 C205 1.684 . S
C209 H235 0.979 . S
C209 H236 0.980 . S
C209 H237 0.983 . S
C210 H186 0.948 . S
C210 C211 1.391 . S
C210 C215 1.391 . S
C211 C210 1.391 . S
C211 C212 1.391 . S
C212 H189 0.947 . S
C212 C211 1.391 . S
C212 C213 1.392 . S
C213 H190 0.948 . S
C213 C212 1.392 . S
C213 C214 1.419 . S
C214 C213 1.419 . S
C214 C215 1.391 . S
C214 C218 1.397 . S
C215 C210 1.391 . S
C215 C214 1.391 . S
C215 C216 1.399 . S
C216 C215 1.399 . S
C216 C217 1.396 . S
C216 C219 1.453 . S
C216 C220 1.684 . S
C217 C207 1.723 . S
C217 C216 1.396 . S
C217 C218 1.394 . S
C218 C188 1.723 . S
C218 C214 1.397 . S
C218 C217 1.394 . S
C219 H191 0.982 . S
C219 H195 0.979 . S
C219 H196 0.977 . S
C219 C216 1.453 . S
C220 H192 0.979 . S
C220 H193 0.980 . S
C220 H194 0.983 . S
C220 C216 1.684 . S
H221 C239 0.948 . S
H222 C180 0.948 . S
H223 C198 0.979 . S
H224 C198 0.980 . S
H225 C198 0.983 . S
H226 C197 0.982 . S
H227 C197 0.979 . S
H228 C197 0.977 . S
H229 C199 0.948 . S
H230 C201 0.947 . S
H231 C202 0.948 . S
H232 C208 0.982 . S
H233 C208 0.979 . S
H234 C208 0.977 . S
H235 C209 0.979 . S
H236 C209 0.980 . S
H237 C209 0.983 . S
H238 C182 0.947 . S
C239 C182 1.392 . S
C239 C183 1.419 . S
C239 H221 0.948 . S
C240 C241 1.391 . S
C240 C244 1.391 . S
C240 H282 0.948 . S
C241 C240 1.391 . S
C241 C242 1.391 . S
C242 C241 1.391 . S
C242 H298 0.947 . S
C242 C299 1.392 . S
C243 C244 1.391 . S
C243 C247 1.397 . S
C243 C299 1.419 . S
C244 C240 1.391 . S
C244 C243 1.391 . S
C244 C245 1.399 . S
C245 C244 1.399 . S
C245 C248 1.396 . S
C245 C257 1.453 . S
C245 C258 1.684 . S
H246 C270 0.948 . S
C247 C243 1.397 . S
C247 C248 1.394 . S
C247 C266 1.723 . S
C248 C245 1.396 . S
C248 C247 1.394 . S
C248 C278 1.723 . S
H249 C272 0.947 . S
H250 C273 0.948 . S
H251 C279 0.982 . S
H252 C280 0.979 . S
H253 C280 0.980 . S
H254 C280 0.983 . S
H255 C279 0.979 . S
H256 C279 0.977 . S
C257 C245 1.453 . S
C257 H286 0.982 . S
C257 H287 0.979 . S
C257 H288 0.977 . S
C258 C245 1.684 . S
C258 H283 0.979 . S
C258 H284 0.980 . S
C258 H285 0.983 . S
C259 C260 1.391 . S
C259 C264 1.391 . S
C259 H289 0.948 . S
C260 C259 1.391 . S
C260 C261 1.391 . S
C261 C260 1.391 . S
C261 C262 1.392 . S
C261 H290 0.947 . S
C262 C261 1.392 . S
C262 C263 1.419 . S
C262 H291 0.948 . S
C263 C262 1.419 . S
C263 C264 1.391 . S
C263 C267 1.397 . S
C264 C259 1.391 . S
C264 C263 1.391 . S
C264 C265 1.399 . S
C265 C264 1.399 . S
C265 C266 1.396 . S
C265 C268 1.453 . S
C265 C269 1.684 . S
C266 C247 1.723 . S
C266 C265 1.396 . S
C266 C267 1.394 . S
C267 C263 1.397 . S
C267 C266 1.394 . S
C267 C277 1.723 . S
C268 C265 1.453 . S
C268 H292 0.982 . S
C268 H293 0.979 . S
C268 H294 0.977 . S
C269 C265 1.684 . S
C269 H295 0.979 . S
C269 H296 0.980 . S
C269 H297 0.983 . S
C270 H246 0.948 . S
C270 C271 1.391 . S
C270 C275 1.391 . S
C271 C270 1.391 . S
C271 C272 1.391 . S
C272 H249 0.947 . S
C272 C271 1.391 . S
C272 C273 1.392 . S
C273 H250 0.948 . S
C273 C272 1.392 . S
C273 C274 1.419 . S
C274 C273 1.419 . S
C274 C275 1.391 . S
C274 C278 1.397 . S
C275 C270 1.391 . S
C275 C274 1.391 . S
C275 C276 1.399 . S
C276 C275 1.399 . S
C276 C277 1.396 . S
C276 C279 1.453 . S
C276 C280 1.684 . S
C277 C267 1.723 . S
C277 C276 1.396 . S
C277 C278 1.394 . S
C278 C248 1.723 . S
C278 C274 1.397 . S
C278 C277 1.394 . S
C279 H251 0.982 . S
C279 H255 0.979 . S
C279 H256 0.977 . S
C279 C276 1.453 . S
C280 H252 0.979 . S
C280 H253 0.980 . S
C280 H254 0.983 . S
C280 C276 1.684 . S
H281 C299 0.948 . S
H282 C240 0.948 . S
H283 C258 0.979 . S
H284 C258 0.980 . S
H285 C258 0.983 . S
H286 C257 0.982 . S
H287 C257 0.979 . S
H288 C257 0.977 . S
H289 C259 0.948 . S
H290 C261 0.947 . S
H291 C262 0.948 . S
H292 C268 0.982 . S
H293 C268 0.979 . S
H294 C268 0.977 . S
H295 C269 0.979 . S
H296 C269 0.980 . S
H297 C269 0.983 . S
H298 C242 0.947 . S
C299 C242 1.392 . S
C299 C243 1.419 . S
C299 H281 0.948 . S
C300 C301 1.391 . S
C300 C304 1.391 . S
C300 H342 0.948 . S
C301 C300 1.391 . S
C301 C302 1.391 . S
C302 C301 1.391 . S
C302 H358 0.947 . S
C302 C359 1.392 . S
C303 C304 1.391 . S
C303 C307 1.397 . S
C303 C359 1.419 . S
C304 C300 1.391 . S
C304 C303 1.391 . S
C304 C305 1.399 . S
C305 C304 1.399 . S
C305 C308 1.396 . S
C305 C317 1.453 . S
C305 C318 1.684 . S
H306 C330 0.948 . S
C307 C303 1.397 . S
C307 C308 1.394 . S
C307 C326 1.723 . S
C308 C305 1.396 . S
C308 C307 1.394 . S
C308 C338 1.723 . S
H309 C332 0.947 . S
H310 C333 0.948 . S
H311 C339 0.982 . S
H312 C340 0.979 . S
H313 C340 0.980 . S
H314 C340 0.983 . S
H315 C339 0.979 . S
H316 C339 0.977 . S
C317 C305 1.453 . S
C317 H346 0.982 . S
C317 H347 0.979 . S
C317 H348 0.977 . S
C318 C305 1.684 . S
C318 H343 0.979 . S
C318 H344 0.980 . S
C318 H345 0.983 . S
C319 C320 1.391 . S
C319 C324 1.391 . S
C319 H349 0.948 . S
C320 C319 1.391 . S
C320 C321 1.391 . S
C321 C320 1.391 . S
C321 C322 1.392 . S
C321 H350 0.947 . S
C322 C321 1.392 . S
C322 C323 1.419 . S
C322 H351 0.948 . S
C323 C322 1.419 . S
C323 C324 1.391 . S
C323 C327 1.397 . S
C324 C319 1.391 . S
C324 C323 1.391 . S
C324 C325 1.399 . S
C325 C324 1.399 . S
C325 C326 1.396 . S
C325 C328 1.453 . S
C325 C329 1.684 . S
C326 C307 1.723 . S
C326 C325 1.396 . S
C326 C327 1.394 . S
C327 C323 1.397 . S
C327 C326 1.394 . S
C327 C337 1.723 . S
C328 C325 1.453 . S
C328 H352 0.982 . S
C328 H353 0.979 . S
C328 H354 0.977 . S
C329 C325 1.684 . S
C329 H355 0.979 . S
C329 H356 0.980 . S
C329 H357 0.983 . S
C330 H306 0.948 . S
C330 C331 1.391 . S
C330 C335 1.391 . S
C331 C330 1.391 . S
C331 C332 1.391 . S
C332 H309 0.947 . S
C332 C331 1.391 . S
C332 C333 1.392 . S
C333 H310 0.948 . S
C333 C332 1.392 . S
C333 C334 1.419 . S
C334 C333 1.419 . S
C334 C335 1.391 . S
C334 C338 1.397 . S
C335 C330 1.391 . S
C335 C334 1.391 . S
C335 C336 1.399 . S
C336 C335 1.399 . S
C336 C337 1.396 . S
C336 C339 1.453 . S
C336 C340 1.684 . S
C337 C327 1.723 . S
C337 C336 1.396 . S
C337 C338 1.394 . S
C338 C308 1.723 . S
C338 C334 1.397 . S
C338 C337 1.394 . S
C339 H311 0.982 . S
C339 H315 0.979 . S
C339 H316 0.977 . S
C339 C336 1.453 . S
C340 H312 0.979 . S
C340 H313 0.980 . S
C340 H314 0.983 . S
C340 C336 1.684 . S
H341 C359 0.948 . S
H342 C300 0.948 . S
H343 C318 0.979 . S
H344 C318 0.980 . S
H345 C318 0.983 . S
H346 C317 0.982 . S
H347 C317 0.979 . S
H348 C317 0.977 . S
H349 C319 0.948 . S
H350 C321 0.947 . S
H351 C322 0.948 . S
H352 C328 0.982 . S
H353 C328 0.979 . S
H354 C328 0.977 . S
H355 C329 0.979 . S
H356 C329 0.980 . S
H357 C329 0.983 . S
H358 C302 0.947 . S
C359 C302 1.392 . S
C359 C303 1.419 . S
C359 H341 0.948 . S
C360 C361 1.391 . S
C360 C364 1.391 . S
C360 H402 0.948 . S
C361 C360 1.391 . S
C361 C362 1.391 . S
C362 C361 1.391 . S
C362 H418 0.947 . S
C362 C419 1.392 . S
C363 C364 1.391 . S
C363 C367 1.397 . S
C363 C419 1.419 . S
C364 C360 1.391 . S
C364 C363 1.391 . S
C364 C365 1.399 . S
C365 C364 1.399 . S
C365 C368 1.396 . S
C365 C377 1.453 . S
C365 C378 1.684 . S
H366 C390 0.948 . S
C367 C363 1.397 . S
C367 C368 1.394 . S
C367 C386 1.723 . S
C368 C365 1.396 . S
C368 C367 1.394 . S
C368 C398 1.723 . S
H369 C392 0.947 . S
H370 C393 0.948 . S
H371 C399 0.982 . S
H372 C400 0.979 . S
H373 C400 0.980 . S
H374 C400 0.983 . S
H375 C399 0.979 . S
H376 C399 0.977 . S
C377 C365 1.453 . S
C377 H406 0.982 . S
C377 H407 0.979 . S
C377 H408 0.977 . S
C378 C365 1.684 . S
C378 H403 0.979 . S
C378 H404 0.980 . S
C378 H405 0.983 . S
C379 C380 1.391 . S
C379 C384 1.391 . S
C379 H409 0.948 . S
C380 C379 1.391 . S
C380 C381 1.391 . S
C381 C380 1.391 . S
C381 C382 1.392 . S
C381 H410 0.947 . S
C382 C381 1.392 . S
C382 C383 1.419 . S
C382 H411 0.948 . S
C383 C382 1.419 . S
C383 C384 1.391 . S
C383 C387 1.397 . S
C384 C379 1.391 . S
C384 C383 1.391 . S
C384 C385 1.399 . S
C385 C384 1.399 . S
C385 C386 1.396 . S
C385 C388 1.453 . S
C385 C389 1.684 . S
C386 C367 1.723 . S
C386 C385 1.396 . S
C386 C387 1.394 . S
C387 C383 1.397 . S
C387 C386 1.394 . S
C387 C397 1.723 . S
C388 C385 1.453 . S
C388 H412 0.982 . S
C388 H413 0.979 . S
C388 H414 0.977 . S
C389 C385 1.684 . S
C389 H415 0.979 . S
C389 H416 0.980 . S
C389 H417 0.983 . S
C390 H366 0.948 . S
C390 C391 1.391 . S
C390 C395 1.391 . S
C391 C390 1.391 . S
C391 C392 1.391 . S
C392 H369 0.947 . S
C392 C391 1.391 . S
C392 C393 1.392 . S
C393 H370 0.948 . S
C393 C392 1.392 . S
C393 C394 1.419 . S
C394 C393 1.419 . S
C394 C395 1.391 . S
C394 C398 1.397 . S
C395 C390 1.391 . S
C395 C394 1.391 . S
C395 C396 1.399 . S
C396 C395 1.399 . S
C396 C397 1.396 . S
C396 C399 1.453 . S
C396 C400 1.684 . S
C397 C387 1.723 . S
C397 C396 1.396 . S
C397 C398 1.394 . S
C398 C368 1.723 . S
C398 C394 1.397 . S
C398 C397 1.394 . S
C399 H371 0.982 . S
C399 H375 0.979 . S
C399 H376 0.977 . S
C399 C396 1.453 . S
C400 H372 0.979 . S
C400 H373 0.980 . S
C400 H374 0.983 . S
C400 C396 1.684 . S
H401 C419 0.948 . S
H402 C360 0.948 . S
H403 C378 0.979 . S
H404 C378 0.980 . S
H405 C378 0.983 . S
H406 C377 0.982 . S
H407 C377 0.979 . S
H408 C377 0.977 . S
H409 C379 0.948 . S
H410 C381 0.947 . S
H411 C382 0.948 . S
H412 C388 0.982 . S
H413 C388 0.979 . S
H414 C388 0.977 . S
H415 C389 0.979 . S
H416 C389 0.980 . S
H417 C389 0.983 . S
H418 C362 0.947 . S
C419 C362 1.392 . S
C419 C363 1.419 . S
C419 H401 0.948 . S
C420 C421 1.391 . S
C420 C424 1.391 . S
C420 H462 0.948 . S
C421 C420 1.391 . S
C421 C422 1.391 . S
C422 C421 1.391 . S
C422 H478 0.947 . S
C422 C479 1.392 . S
C423 C424 1.391 . S
C423 C427 1.397 . S
C423 C479 1.419 . S
C424 C420 1.391 . S
C424 C423 1.391 . S
C424 C425 1.399 . S
C425 C424 1.399 . S
C425 C428 1.396 . S
C425 C437 1.453 . S
C425 C438 1.684 . S
H426 C450 0.948 . S
C427 C423 1.397 . S
C427 C428 1.394 . S
C427 C446 1.723 . S
C428 C425 1.396 . S
C428 C427 1.394 . S
C428 C458 1.723 . S
H429 C452 0.947 . S
H430 C453 0.948 . S
H431 C459 0.982 . S
H432 C460 0.979 . S
H433 C460 0.980 . S
H434 C460 0.983 . S
H435 C459 0.979 . S
H436 C459 0.977 . S
C437 C425 1.453 . S
C437 H466 0.982 . S
C437 H467 0.979 . S
C437 H468 0.977 . S
C438 C425 1.684 . S
C438 H463 0.979 . S
C438 H464 0.980 . S
C438 H465 0.983 . S
C439 C440 1.391 . S
C439 C444 1.391 . S
C439 H469 0.948 . S
C440 C439 1.391 . S
C440 C441 1.391 . S
C441 C440 1.391 . S
C441 C442 1.392 . S
C441 H470 0.947 . S
C442 C441 1.392 . S
C442 C443 1.419 . S
C442 H471 0.948 . S
C443 C442 1.419 . S
C443 C444 1.391 . S
C443 C447 1.397 . S
C444 C439 1.391 . S
C444 C443 1.391 . S
C444 C445 1.399 . S
C445 C444 1.399 . S
C445 C446 1.396 . S
C445 C448 1.453 . S
C445 C449 1.684 . S
C446 C427 1.723 . S
C446 C445 1.396 . S
C446 C447 1.394 . S
C447 C443 1.397 . S
C447 C446 1.394 . S
C447 C457 1.723 . S
C448 C445 1.453 . S
C448 H472 0.982 . S
C448 H473 0.979 . S
C448 H474 0.977 . S
C449 C445 1.684 . S
C449 H475 0.979 . S
C449 H476 0.980 . S
C449 H477 0.983 . S
C450 H426 0.948 . S
C450 C451 1.391 . S
C450 C455 1.391 . S
C451 C450 1.391 . S
C451 C452 1.391 . S
C452 H429 0.947 . S
C452 C451 1.391 . S
C452 C453 1.392 . S
C453 H430 0.948 . S
C453 C452 1.392 . S
C453 C454 1.419 . S
C454 C453 1.419 . S
C454 C455 1.391 . S
C454 C458 1.397 . S
C455 C450 1.391 . S
C455 C454 1.391 . S
C455 C456 1.399 . S
C456 C455 1.399 . S
C456 C457 1.396 . S
C456 C459 1.453 . S
C456 C460 1.684 . S
C457 C447 1.723 . S
C457 C456 1.396 . S
C457 C458 1.394 . S
C458 C428 1.723 . S
C458 C454 1.397 . S
C458 C457 1.394 . S
C459 H431 0.982 . S
C459 H435 0.979 . S
C459 H436 0.977 . S
C459 C456 1.453 . S
C460 H432 0.979 . S
C460 H433 0.980 . S
C460 H434 0.983 . S
C460 C456 1.684 . S
H461 C479 0.948 . S
H462 C420 0.948 . S
H463 C438 0.979 . S
H464 C438 0.980 . S
H465 C438 0.983 . S
H466 C437 0.982 . S
H467 C437 0.979 . S
H468 C437 0.977 . S
H469 C439 0.948 . S
H470 C441 0.947 . S
H471 C442 0.948 . S
H472 C448 0.982 . S
H473 C448 0.979 . S
H474 C448 0.977 . S
H475 C449 0.979 . S
H476 C449 0.980 . S
H477 C449 0.983 . S
H478 C422 0.947 . S
C479 C422 1.392 . S
C479 C423 1.419 . S
C479 H461 0.948 . S
Nd480 C482 2.836 . S
Nd480 O500 2.500 . S
Nd480 O501 2.492 . S
Nd480 O502 2.487 1_565 S
Nd480 O503 2.682 1_565 S
Nd480 O504 2.410 . S
Nd480 O509 2.414 1_455 S
Nd480 O511 2.424 1_565 S
Nd481 C491 2.836 . S
Nd481 O503 2.414 1_655 S
Nd481 O505 2.424 1_545 S
Nd481 O506 2.500 . S
Nd481 O507 2.492 . S
Nd481 O508 2.487 1_545 S
Nd481 O509 2.682 1_545 S
Nd481 O510 2.410 . S
C482 Nd480 2.836 . S
C482 C483 1.498 . S
C482 O500 1.258 . S
C482 O501 1.239 . S
C483 C482 1.498 . S
C483 C484 1.366 . S
C483 C488 1.407 . S
C484 C483 1.366 . S
C484 C485 1.392 . S
C484 H512 0.930 . S
C485 C484 1.392 . S
C485 C486 1.398 . S
C485 H513 0.929 . S
C486 C485 1.398 . S
C486 C487 1.352 . S
C487 C486 1.352 . S
C487 C488 1.384 . S
C487 H514 0.930 . S
C488 C483 1.407 . S
C488 C487 1.384 . S
C488 H515 0.929 . S
C489 O502 1.241 . S
C489 O503 1.273 . S
C490 O504 1.251 1_655 S
C490 O505 1.268 . S
C491 Nd481 2.836 . S
C491 C492 1.498 . S
C491 O506 1.258 . S
C491 O507 1.239 . S
C492 C491 1.498 . S
C492 C493 1.366 . S
C492 C497 1.407 . S
C493 C492 1.366 . S
C493 C494 1.392 . S
C493 H516 0.930 . S
C494 C493 1.392 . S
C494 C495 1.398 . S
C494 H517 0.929 . S
C495 C494 1.398 . S
C495 C496 1.352 . S
C496 C495 1.352 . S
C496 C497 1.384 . S
C496 H518 0.930 . S
C497 C492 1.407 . S
C497 C496 1.384 . S
C497 H519 0.929 . S
C498 O508 1.241 . S
C498 O509 1.273 . S
C499 O510 1.251 1_455 S
C499 O511 1.268 . S
O500 Nd480 2.500 . S
O500 C482 1.258 . S
O501 Nd480 2.492 . S
O501 C482 1.239 . S
O502 Nd480 2.487 1_545 S
O502 C489 1.241 . S
O503 Nd480 2.682 1_545 S
O503 Nd481 2.414 1_455 S
O503 C489 1.273 . S
O504 Nd480 2.410 . S
O504 C490 1.251 1_455 S
O505 Nd481 2.424 1_565 S
O505 C490 1.268 . S
O506 Nd481 2.500 . S
O506 C491 1.258 . S
O507 Nd481 2.492 . S
O507 C491 1.239 . S
O508 Nd481 2.487 1_565 S
O508 C498 1.241 . S
O509 Nd480 2.414 1_655 S
O509 Nd481 2.682 1_565 S
O509 C498 1.273 . S
O510 Nd481 2.410 . S
O510 C499 1.251 1_655 S
O511 Nd480 2.424 1_545 S
O511 C499 1.268 . S
H512 C484 0.930 . S
H513 C485 0.929 . S
H514 C487 0.930 . S
H515 C488 0.929 . S
H516 C493 0.930 . S
H517 C494 0.929 . S
H518 C496 0.930 . S
H519 C497 0.929 . S
Nd520 C522 2.836 . S
Nd520 O540 2.500 . S
Nd520 O541 2.492 . S
Nd520 O542 2.487 1_565 S
Nd520 O543 2.682 1_565 S
Nd520 O544 2.410 1_554 S
Nd520 O549 2.414 1_554 S
Nd520 O551 2.424 1_565 S
Nd521 C531 2.836 . S
Nd521 O543 2.414 1_556 S
Nd521 O545 2.424 1_545 S
Nd521 O546 2.500 . S
Nd521 O547 2.492 . S
Nd521 O548 2.487 1_545 S
Nd521 O549 2.682 1_545 S
Nd521 O550 2.410 1_556 S
C522 Nd520 2.836 . S
C522 C523 1.498 . S
C522 O540 1.258 . S
C522 O541 1.239 . S
C523 C522 1.498 . S
C523 C524 1.366 . S
C523 C528 1.407 . S
C524 C523 1.366 . S
C524 C525 1.392 . S
C524 H552 0.930 . S
C525 C524 1.392 . S
C525 C526 1.398 . S
C525 H553 0.929 . S
C526 C525 1.398 . S
C526 C527 1.352 . S
C527 C526 1.352 . S
C527 C528 1.384 . S
C527 H554 0.930 . S
C528 C523 1.407 . S
C528 C527 1.384 . S
C528 H555 0.929 . S
C529 O542 1.241 . S
C529 O543 1.273 . S
C530 O544 1.251 . S
C530 O545 1.268 . S
C531 Nd521 2.836 . S
C531 C532 1.498 . S
C531 O546 1.258 . S
C531 O547 1.239 . S
C532 C531 1.498 . S
C532 C533 1.366 . S
C532 C537 1.407 . S
C533 C532 1.366 . S
C533 C534 1.392 . S
C533 H556 0.930 . S
C534 C533 1.392 . S
C534 C535 1.398 . S
C534 H557 0.929 . S
C535 C534 1.398 . S
C535 C536 1.352 . S
C536 C535 1.352 . S
C536 C537 1.384 . S
C536 H558 0.930 . S
C537 C532 1.407 . S
C537 C536 1.384 . S
C537 H559 0.929 . S
C538 O548 1.241 . S
C538 O549 1.273 . S
C539 O550 1.251 . S
C539 O551 1.268 . S
O540 Nd520 2.500 . S
O540 C522 1.258 . S
O541 Nd520 2.492 . S
O541 C522 1.239 . S
O542 Nd520 2.487 1_545 S
O542 C529 1.241 . S
O543 Nd520 2.682 1_545 S
O543 Nd521 2.414 1_554 S
O543 C529 1.273 . S
O544 Nd520 2.410 1_556 S
O544 C530 1.251 . S
O545 Nd521 2.424 1_565 S
O545 C530 1.268 . S
O546 Nd521 2.500 . S
O546 C531 1.258 . S
O547 Nd521 2.492 . S
O547 C531 1.239 . S
O548 Nd521 2.487 1_565 S
O548 C538 1.241 . S
O549 Nd520 2.414 1_556 S
O549 Nd521 2.682 1_565 S
O549 C538 1.273 . S
O550 Nd521 2.410 1_554 S
O550 C539 1.251 . S
O551 Nd520 2.424 1_545 S
O551 C539 1.268 . S
H552 C524 0.930 . S
H553 C525 0.929 . S
H554 C527 0.930 . S
H555 C528 0.929 . S
H556 C533 0.930 . S
H557 C534 0.929 . S
H558 C536 0.930 . S
H559 C537 0.929 . S
Nd560 C562 2.836 . S
Nd560 O580 2.500 . S
Nd560 O581 2.492 . S
Nd560 O582 2.487 . S
Nd560 O583 2.682 . S
Nd560 O584 2.410 . S
Nd560 O589 2.414 . S
Nd560 O591 2.424 . S
Nd561 C571 2.836 . S
Nd561 O583 2.414 . S
Nd561 O585 2.424 . S
Nd561 O586 2.500 . S
Nd561 O587 2.492 . S
Nd561 O588 2.487 . S
Nd561 O589 2.682 . S
Nd561 O590 2.410 . S
C562 Nd560 2.836 . S
C562 C563 1.498 . S
C562 O580 1.258 . S
C562 O581 1.239 . S
C563 C562 1.498 . S
C563 C564 1.366 . S
C563 C568 1.407 . S
C564 C563 1.366 . S
C564 C565 1.392 . S
C564 H592 0.930 . S
C565 C564 1.392 . S
C565 C566 1.398 . S
C565 H593 0.929 . S
C566 C565 1.398 . S
C566 C567 1.352 . S
C567 C566 1.352 . S
C567 C568 1.384 . S
C567 H594 0.930 . S
C568 C563 1.407 . S
C568 C567 1.384 . S
C568 H595 0.929 . S
C569 O582 1.241 . S
C569 O583 1.273 . S
C570 O584 1.251 . S
C570 O585 1.268 . S
C571 Nd561 2.836 . S
C571 C572 1.498 . S
C571 O586 1.258 . S
C571 O587 1.239 . S
C572 C571 1.498 . S
C572 C573 1.366 . S
C572 C577 1.407 . S
C573 C572 1.366 . S
C573 C574 1.392 . S
C573 H596 0.930 . S
C574 C573 1.392 . S
C574 C575 1.398 . S
C574 H597 0.929 . S
C575 C574 1.398 . S
C575 C576 1.352 . S
C576 C575 1.352 . S
C576 C577 1.384 . S
C576 H598 0.930 . S
C577 C572 1.407 . S
C577 C576 1.384 . S
C577 H599 0.929 . S
C578 O588 1.241 . S
C578 O589 1.273 . S
C579 O590 1.251 . S
C579 O591 1.268 . S
O580 Nd560 2.500 . S
O580 C562 1.258 . S
O581 Nd560 2.492 . S
O581 C562 1.239 . S
O582 Nd560 2.487 . S
O582 C569 1.241 . S
O583 Nd560 2.682 . S
O583 Nd561 2.414 . S
O583 C569 1.273 . S
O584 Nd560 2.410 . S
O584 C570 1.251 . S
O585 Nd561 2.424 . S
O585 C570 1.268 . S
O586 Nd561 2.500 . S
O586 C571 1.258 . S
O587 Nd561 2.492 . S
O587 C571 1.239 . S
O588 Nd561 2.487 . S
O588 C578 1.241 . S
O589 Nd560 2.414 . S
O589 Nd561 2.682 . S
O589 C578 1.273 . S
O590 Nd561 2.410 . S
O590 C579 1.251 . S
O591 Nd560 2.424 . S
O591 C579 1.268 . S
H592 C564 0.930 . S
H593 C565 0.929 . S
H594 C567 0.930 . S
H595 C568 0.929 . S
H596 C573 0.930 . S
H597 C574 0.929 . S
H598 C576 0.930 . S
H599 C577 0.929 . S
Nd600 C602 2.836 . S
Nd600 O620 2.500 . S
Nd600 O621 2.492 . S
Nd600 O622 2.487 1_655 S
Nd600 O623 2.682 1_655 S
Nd600 O624 2.410 . S
Nd600 O629 2.414 1_554 S
Nd600 O631 2.424 1_655 S
Nd601 C611 2.836 . S
Nd601 O623 2.414 1_556 S
Nd601 O625 2.424 1_455 S
Nd601 O626 2.500 . S
Nd601 O627 2.492 . S
Nd601 O628 2.487 1_455 S
Nd601 O629 2.682 1_455 S
Nd601 O630 2.410 . S
C602 Nd600 2.836 . S
C602 C603 1.498 . S
C602 O620 1.258 . S
C602 O621 1.239 . S
C603 C602 1.498 . S
C603 C604 1.366 . S
C603 C608 1.407 . S
C604 C603 1.366 . S
C604 C605 1.392 . S
C604 H632 0.930 . S
C605 C604 1.392 . S
C605 C606 1.398 . S
C605 H633 0.929 . S
C606 C605 1.398 . S
C606 C607 1.352 . S
C607 C606 1.352 . S
C607 C608 1.384 . S
C607 H634 0.930 . S
C608 C603 1.407 . S
C608 C607 1.384 . S
C608 H635 0.929 . S
C609 O622 1.241 . S
C609 O623 1.273 . S
C610 O624 1.251 1_556 S
C610 O625 1.268 . S
C611 Nd601 2.836 . S
C611 C612 1.498 . S
C611 O626 1.258 . S
C611 O627 1.239 . S
C612 C611 1.498 . S
C612 C613 1.366 . S
C612 C617 1.407 . S
C613 C612 1.366 . S
C613 C614 1.392 . S
C613 H636 0.930 . S
C614 C613 1.392 . S
C614 C615 1.398 . S
C614 H637 0.929 . S
C615 C614 1.398 . S
C615 C616 1.352 . S
C616 C615 1.352 . S
C616 C617 1.384 . S
C616 H638 0.930 . S
C617 C612 1.407 . S
C617 C616 1.384 . S
C617 H639 0.929 . S
C618 O628 1.241 . S
C618 O629 1.273 . S
C619 O630 1.251 1_554 S
C619 O631 1.268 . S
O620 Nd600 2.500 . S
O620 C602 1.258 . S
O621 Nd600 2.492 . S
O621 C602 1.239 . S
O622 Nd600 2.487 1_455 S
O622 C609 1.241 . S
O623 Nd600 2.682 1_455 S
O623 Nd601 2.414 1_554 S
O623 C609 1.273 . S
O624 Nd600 2.410 . S
O624 C610 1.251 1_554 S
O625 Nd601 2.424 1_655 S
O625 C610 1.268 . S
O626 Nd601 2.500 . S
O626 C611 1.258 . S
O627 Nd601 2.492 . S
O627 C611 1.239 . S
O628 Nd601 2.487 1_655 S
O628 C618 1.241 . S
O629 Nd600 2.414 1_556 S
O629 Nd601 2.682 1_655 S
O629 C618 1.273 . S
O630 Nd601 2.410 . S
O630 C619 1.251 1_556 S
O631 Nd600 2.424 1_455 S
O631 C619 1.268 . S
H632 C604 0.930 . S
H633 C605 0.929 . S
H634 C607 0.930 . S
H635 C608 0.929 . S
H636 C613 0.930 . S
H637 C614 0.929 . S
H638 C616 0.930 . S
H639 C617 0.929 . S
H640 C646 0.930 . S
H641 C649 0.930 . S
H642 C650 0.930 . S
H643 C651 0.930 . S
H644 C654 0.930 . S
H645 C655 0.930 . S
C646 H640 0.930 . S
C646 C647 1.355 . S
C646 C648 1.415 . S
C647 C646 1.355 . S
C647 C649 1.419 . S
C648 C646 1.415 . S
C648 C653 1.425 . S
C648 C655 1.409 . S
C649 H641 0.930 . S
C649 C647 1.419 . S
C649 C650 1.362 . S
C650 H642 0.930 . S
C650 C649 1.362 . S
C650 C653 1.409 . S
C651 H643 0.930 . S
C651 C652 1.355 . S
C651 C653 1.415 . S
C652 C651 1.355 . S
C652 C654 1.419 . S
C653 C648 1.425 . S
C653 C650 1.409 . S
C653 C651 1.415 . S
C654 H644 0.930 . S
C654 C652 1.419 . S
C654 C655 1.362 . S
C655 H645 0.930 . S
C655 C648 1.409 . S
C655 C654 1.362 . S
H656 C662 0.930 . S
H657 C665 0.930 . S
H658 C666 0.930 . S
H659 C667 0.930 . S
H660 C670 0.930 . S
H661 C671 0.930 . S
C662 H656 0.930 . S
C662 C663 1.355 . S
C662 C664 1.415 . S
C663 C662 1.355 . S
C663 C665 1.419 . S
C664 C662 1.415 . S
C664 C669 1.425 . S
C664 C671 1.409 . S
C665 H657 0.930 . S
C665 C663 1.419 . S
C665 C666 1.362 . S
C666 H658 0.930 . S
C666 C665 1.362 . S
C666 C669 1.409 . S
C667 H659 0.930 . S
C667 C668 1.355 . S
C667 C669 1.415 . S
C668 C667 1.355 . S
C668 C670 1.419 . S
C669 C664 1.425 . S
C669 C666 1.409 . S
C669 C667 1.415 . S
C670 H660 0.930 . S
C670 C668 1.419 . S
C670 C671 1.362 . S
C671 H661 0.930 . S
C671 C664 1.409 . S
C671 C670 1.362 . S
H672 C678 0.930 . S
H673 C681 0.930 . S
H674 C682 0.930 . S
H675 C683 0.930 . S
H676 C686 0.930 . S
H677 C687 0.930 . S
C678 H672 0.930 . S
C678 C679 1.355 . S
C678 C680 1.415 . S
C679 C678 1.355 . S
C679 C681 1.419 . S
C680 C678 1.415 . S
C680 C685 1.425 . S
C680 C687 1.409 . S
C681 H673 0.930 . S
C681 C679 1.419 . S
C681 C682 1.362 . S
C682 H674 0.930 . S
C682 C681 1.362 . S
C682 C685 1.409 . S
C683 H675 0.930 . S
C683 C684 1.355 . S
C683 C685 1.415 . S
C684 C683 1.355 . S
C684 C686 1.419 . S
C685 C680 1.425 . S
C685 C682 1.409 . S
C685 C683 1.415 . S
C686 H676 0.930 . S
C686 C684 1.419 . S
C686 C687 1.362 . S
C687 H677 0.930 . S
C687 C680 1.409 . S
C687 C686 1.362 . S
H688 C694 0.930 . S
H689 C697 0.930 . S
H690 C698 0.930 . S
H691 C699 0.930 . S
H692 C702 0.930 . S
H693 C703 0.930 . S
C694 H688 0.930 . S
C694 C695 1.355 . S
C694 C696 1.415 . S
C695 C694 1.355 . S
C695 C697 1.419 . S
C696 C694 1.415 . S
C696 C701 1.425 . S
C696 C703 1.409 . S
C697 H689 0.930 . S
C697 C695 1.419 . S
C697 C698 1.362 . S
C698 H690 0.930 . S
C698 C697 1.362 . S
C698 C701 1.409 . S
C699 H691 0.930 . S
C699 C700 1.355 . S
C699 C701 1.415 . S
C700 C699 1.355 . S
C700 C702 1.419 . S
C701 C696 1.425 . S
C701 C698 1.409 . S
C701 C699 1.415 . S
C702 H692 0.930 . S
C702 C700 1.419 . S
C702 C703 1.362 . S
C703 H693 0.930 . S
C703 C696 1.409 . S
C703 C702 1.362 . S
H704 C710 0.930 . S
H705 C713 0.930 . S
H706 C714 0.930 . S
H707 C715 0.930 . S
H708 C718 0.930 1_556 S
H709 C719 0.930 1_556 S
C710 H704 0.930 . S
C710 C711 1.355 . S
C710 C712 1.415 . S
C711 C710 1.355 . S
C711 C713 1.419 . S
C712 C710 1.415 . S
C712 C717 1.425 . S
C712 C719 1.409 . S
C713 H705 0.930 . S
C713 C711 1.419 . S
C713 C714 1.362 . S
C714 H706 0.930 . S
C714 C713 1.362 . S
C714 C717 1.409 . S
C715 H707 0.930 . S
C715 C716 1.355 . S
C715 C717 1.415 . S
C716 C715 1.355 . S
C716 C718 1.419 . S
C717 C712 1.425 . S
C717 C714 1.409 . S
C717 C715 1.415 . S
C718 H708 0.930 1_554 S
C718 C716 1.419 . S
C718 C719 1.362 . S
C719 H709 0.930 1_554 S
C719 C712 1.409 . S
C719 C718 1.362 . S
H720 C726 0.930 . S
H721 C729 0.930 . S
H722 C730 0.930 . S
H723 C731 0.930 . S
H724 C734 0.930 . S
H725 C735 0.930 . S
C726 H720 0.930 . S
C726 C727 1.355 . S
C726 C728 1.415 . S
C727 C726 1.355 . S
C727 C729 1.419 . S
C728 C726 1.415 . S
C728 C733 1.425 . S
C728 C735 1.409 . S
C729 H721 0.930 . S
C729 C727 1.419 . S
C729 C730 1.362 . S
C730 H722 0.930 . S
C730 C729 1.362 . S
C730 C733 1.409 . S
C731 H723 0.930 . S
C731 C732 1.355 . S
C731 C733 1.415 . S
C732 C731 1.355 . S
C732 C734 1.419 . S
C733 C728 1.425 . S
C733 C730 1.409 . S
C733 C731 1.415 . S
C734 H724 0.930 . S
C734 C732 1.419 . S
C734 C735 1.362 . S
C735 H725 0.930 . S
C735 C728 1.409 . S
C735 C734 1.362 . S
H736 C742 0.930 . S
H737 C745 0.930 . S
H738 C746 0.930 . S
H739 C747 0.930 . S
H740 C750 0.930 . S
H741 C751 0.930 . S
C742 H736 0.930 . S
C742 C743 1.355 . S
C742 C744 1.415 . S
C743 C742 1.355 . S
C743 C745 1.419 . S
C744 C742 1.415 . S
C744 C749 1.425 . S
C744 C751 1.409 . S
C745 H737 0.930 . S
C745 C743 1.419 . S
C745 C746 1.362 . S
C746 H738 0.930 . S
C746 C745 1.362 . S
C746 C749 1.409 . S
C747 H739 0.930 . S
C747 C748 1.355 . S
C747 C749 1.415 . S
C748 C747 1.355 . S
C748 C750 1.419 . S
C749 C744 1.425 . S
C749 C746 1.409 . S
C749 C747 1.415 . S
C750 H740 0.930 . S
C750 C748 1.419 . S
C750 C751 1.362 . S
C751 H741 0.930 . S
C751 C744 1.409 . S
C751 C750 1.362 . S
H752 C758 0.930 . S
H753 C761 0.930 . S
H754 C762 0.930 . S
H755 C763 0.930 . S
H756 C766 0.930 . S
H757 C767 0.930 . S
C758 H752 0.930 . S
C758 C759 1.355 . S
C758 C760 1.415 . S
C759 C758 1.355 . S
C759 C761 1.419 . S
C760 C758 1.415 . S
C760 C765 1.425 . S
C760 C767 1.409 . S
C761 H753 0.930 . S
C761 C759 1.419 . S
C761 C762 1.362 . S
C762 H754 0.930 . S
C762 C761 1.362 . S
C762 C765 1.409 . S
C763 H755 0.930 . S
C763 C764 1.355 . S
C763 C765 1.415 . S
C764 C763 1.355 . S
C764 C766 1.419 . S
C765 C760 1.425 . S
C765 C762 1.409 . S
C765 C763 1.415 . S
C766 H756 0.930 . S
C766 C764 1.419 . S
C766 C767 1.362 . S
C767 H757 0.930 . S
C767 C760 1.409 . S
C767 C766 1.362 . S
H768 C774 0.930 . S
H769 C777 0.930 . S
H770 C778 0.930 . S
H771 C779 0.930 . S
H772 C782 0.930 1_556 S
H773 C783 0.930 1_556 S
C774 H768 0.930 . S
C774 C775 1.355 . S
C774 C776 1.415 . S
C775 C774 1.355 . S
C775 C777 1.419 . S
C776 C774 1.415 . S
C776 C781 1.425 . S
C776 C783 1.409 . S
C777 H769 0.930 . S
C777 C775 1.419 . S
C777 C778 1.362 . S
C778 H770 0.930 . S
C778 C777 1.362 . S
C778 C781 1.409 . S
C779 H771 0.930 . S
C779 C780 1.355 . S
C779 C781 1.415 . S
C780 C779 1.355 . S
C780 C782 1.419 . S
C781 C776 1.425 . S
C781 C778 1.409 . S
C781 C779 1.415 . S
C782 H772 0.930 1_554 S
C782 C780 1.419 . S
C782 C783 1.362 . S
C783 H773 0.930 1_554 S
C783 C776 1.409 . S
C783 C782 1.362 . S
H784 C790 0.930 . S
H785 C793 0.930 . S
H786 C794 0.930 . S
H787 C795 0.930 . S
H788 C798 0.930 . S
H789 C799 0.930 . S
C790 H784 0.930 . S
C790 C791 1.355 . S
C790 C792 1.415 . S
C791 C790 1.355 . S
C791 C793 1.419 . S
C792 C790 1.415 . S
C792 C797 1.425 . S
C792 C799 1.409 . S
C793 H785 0.930 . S
C793 C791 1.419 . S
C793 C794 1.362 . S
C794 H786 0.930 . S
C794 C793 1.362 . S
C794 C797 1.409 . S
C795 H787 0.930 . S
C795 C796 1.355 . S
C795 C797 1.415 . S
C796 C795 1.355 . S
C796 C798 1.419 . S
C797 C792 1.425 . S
C797 C794 1.409 . S
C797 C795 1.415 . S
C798 H788 0.930 . S
C798 C796 1.419 . S
C798 C799 1.362 . S
C799 H789 0.930 . S
C799 C792 1.409 . S
C799 C798 1.362 . S
H800 C806 0.930 . S
H801 C809 0.930 . S
H802 C810 0.930 . S
H803 C811 0.930 . S
H804 C814 0.930 . S
H805 C815 0.930 . S
C806 H800 0.930 . S
C806 C807 1.355 . S
C806 C808 1.415 . S
C807 C806 1.355 . S
C807 C809 1.419 . S
C808 C806 1.415 . S
C808 C813 1.425 . S
C808 C815 1.409 . S
C809 H801 0.930 . S
C809 C807 1.419 . S
C809 C810 1.362 . S
C810 H802 0.930 . S
C810 C809 1.362 . S
C810 C813 1.409 . S
C811 H803 0.930 . S
C811 C812 1.355 . S
C811 C813 1.415 . S
C812 C811 1.355 . S
C812 C814 1.419 . S
C813 C808 1.425 . S
C813 C810 1.409 . S
C813 C811 1.415 . S
C814 H804 0.930 . S
C814 C812 1.419 . S
C814 C815 1.362 . S
C815 H805 0.930 . S
C815 C808 1.409 . S
C815 C814 1.362 . S
H816 C822 0.930 . S
H817 C825 0.930 . S
H818 C826 0.930 . S
H819 C827 0.930 . S
H820 C830 0.930 . S
H821 C831 0.930 . S
C822 H816 0.930 . S
C822 C823 1.355 . S
C822 C824 1.415 . S
C823 C822 1.355 . S
C823 C825 1.419 . S
C824 C822 1.415 . S
C824 C829 1.425 . S
C824 C831 1.409 . S
C825 H817 0.930 . S
C825 C823 1.419 . S
C825 C826 1.362 . S
C826 H818 0.930 . S
C826 C825 1.362 . S
C826 C829 1.409 . S
C827 H819 0.930 . S
C827 C828 1.355 . S
C827 C829 1.415 . S
C828 C827 1.355 . S
C828 C830 1.419 . S
C829 C824 1.425 . S
C829 C826 1.409 . S
C829 C827 1.415 . S
C830 H820 0.930 . S
C830 C828 1.419 . S
C830 C831 1.362 . S
C831 H821 0.930 . S
C831 C824 1.409 . S
C831 C830 1.362 . S
H832 C838 0.930 . S
H833 C841 0.930 . S
H834 C842 0.930 . S
H835 C843 0.930 . S
H836 C846 0.930 . S
H837 C847 0.930 . S
C838 H832 0.930 . S
C838 C839 1.355 . S
C838 C840 1.415 . S
C839 C838 1.355 . S
C839 C841 1.419 . S
C840 C838 1.415 . S
C840 C845 1.425 . S
C840 C847 1.409 . S
C841 H833 0.930 . S
C841 C839 1.419 . S
C841 C842 1.362 . S
C842 H834 0.930 . S
C842 C841 1.362 . S
C842 C845 1.409 . S
C843 H835 0.930 . S
C843 C844 1.355 . S
C843 C845 1.415 . S
C844 C843 1.355 . S
C844 C846 1.419 . S
C845 C840 1.425 . S
C845 C842 1.409 . S
C845 C843 1.415 . S
C846 H836 0.930 . S
C846 C844 1.419 . S
C846 C847 1.362 . S
C847 H837 0.930 . S
C847 C840 1.409 . S
C847 C846 1.362 . S
H848 C854 0.930 . S
H849 C857 0.930 . S
H850 C858 0.930 . S
H851 C859 0.930 . S
H852 C862 0.930 . S
H853 C863 0.930 . S
C854 H848 0.930 . S
C854 C855 1.355 . S
C854 C856 1.415 . S
C855 C854 1.355 . S
C855 C857 1.419 . S
C856 C854 1.415 . S
C856 C861 1.425 . S
C856 C863 1.409 . S
C857 H849 0.930 . S
C857 C855 1.419 . S
C857 C858 1.362 . S
C858 H850 0.930 . S
C858 C857 1.362 . S
C858 C861 1.409 . S
C859 H851 0.930 . S
C859 C860 1.355 . S
C859 C861 1.415 . S
C860 C859 1.355 . S
C860 C862 1.419 . S
C861 C856 1.425 . S
C861 C858 1.409 . S
C861 C859 1.415 . S
C862 H852 0.930 . S
C862 C860 1.419 . S
C862 C863 1.362 . S
C863 H853 0.930 . S
C863 C856 1.409 . S
C863 C862 1.362 . S
H864 C870 0.930 . S
H865 C873 0.930 . S
H866 C874 0.930 . S
H867 C875 0.930 . S
H868 C878 0.930 . S
H869 C879 0.930 . S
C870 H864 0.930 . S
C870 C871 1.355 . S
C870 C872 1.415 . S
C871 C870 1.355 . S
C871 C873 1.419 . S
C872 C870 1.415 . S
C872 C877 1.425 . S
C872 C879 1.409 . S
C873 H865 0.930 . S
C873 C871 1.419 . S
C873 C874 1.362 . S
C874 H866 0.930 . S
C874 C873 1.362 . S
C874 C877 1.409 . S
C875 H867 0.930 . S
C875 C876 1.355 . S
C875 C877 1.415 . S
C876 C875 1.355 . S
C876 C878 1.419 . S
C877 C872 1.425 . S
C877 C874 1.409 . S
C877 C875 1.415 . S
C878 H868 0.930 . S
C878 C876 1.419 . S
C878 C879 1.362 . S
C879 H869 0.930 . S
C879 C872 1.409 . S
C879 C878 1.362 . S
H880 C886 0.930 . S
H881 C889 0.930 . S
H882 C890 0.930 . S
H883 C891 0.930 . S
H884 C894 0.930 . S
H885 C895 0.930 . S
C886 H880 0.930 . S
C886 C887 1.355 . S
C886 C888 1.415 . S
C887 C886 1.355 . S
C887 C889 1.419 . S
C888 C886 1.415 . S
C888 C893 1.425 . S
C888 C895 1.409 . S
C889 H881 0.930 . S
C889 C887 1.419 . S
C889 C890 1.362 . S
C890 H882 0.930 . S
C890 C889 1.362 . S
C890 C893 1.409 . S
C891 H883 0.930 . S
C891 C892 1.355 . S
C891 C893 1.415 . S
C892 C891 1.355 . S
C892 C894 1.419 . S
C893 C888 1.425 . S
C893 C890 1.409 . S
C893 C891 1.415 . S
C894 H884 0.930 . S
C894 C892 1.419 . S
C894 C895 1.362 . S
C895 H885 0.930 . S
C895 C888 1.409 . S
C895 C894 1.362 . S
H896 C902 0.930 . S
H897 C905 0.930 . S
H898 C906 0.933 1_554 S
H899 C907 0.930 . S
H900 C910 0.930 . S
H901 C911 0.930 . S
C902 H896 0.930 . S
C902 C903 1.355 . S
C902 C904 1.415 . S
C903 C902 1.355 . S
C903 C905 1.419 . S
C904 C902 1.415 . S
C904 C909 1.425 . S
C904 C911 1.409 . S
C905 H897 0.930 . S
C905 C903 1.419 . S
C905 C906 1.362 . S
C906 H898 0.933 1_556 S
C906 C905 1.362 . S
C906 C909 1.409 . S
C907 H899 0.930 . S
C907 C908 1.355 . S
C907 C909 1.415 . S
C908 C907 1.355 . S
C908 C910 1.419 . S
C909 C904 1.425 . S
C909 C906 1.409 . S
C909 C907 1.415 . S
C910 H900 0.930 . S
C910 C908 1.419 . S
C910 C911 1.362 . S
C911 H901 0.930 . S
C911 C904 1.409 . S
C911 C910 1.362 . S
H912 C918 0.930 . S
H913 C921 0.930 . S
H914 C922 0.930 . S
H915 C923 0.930 . S
H916 C926 0.930 . S
H917 C927 0.930 . S
C918 H912 0.930 . S
C918 C919 1.355 . S
C918 C920 1.415 . S
C919 C918 1.355 . S
C919 C921 1.419 . S
C920 C918 1.415 . S
C920 C925 1.425 . S
C920 C927 1.409 . S
C921 H913 0.930 . S
C921 C919 1.419 . S
C921 C922 1.362 . S
C922 H914 0.930 . S
C922 C921 1.362 . S
C922 C925 1.409 . S
C923 H915 0.930 . S
C923 C924 1.355 . S
C923 C925 1.415 . S
C924 C923 1.355 . S
C924 C926 1.419 . S
C925 C920 1.425 . S
C925 C922 1.409 . S
C925 C923 1.415 . S
C926 H916 0.930 . S
C926 C924 1.419 . S
C926 C927 1.362 . S
C927 H917 0.930 . S
C927 C920 1.409 . S
C927 C926 1.362 . S
H928 C934 0.930 . S
H929 C937 0.930 . S
H930 C938 0.930 . S
H931 C939 0.930 . S
H932 C942 0.930 . S
H933 C943 0.930 . S
C934 H928 0.930 . S
C934 C935 1.355 . S
C934 C936 1.415 . S
C935 C934 1.355 . S
C935 C937 1.419 . S
C936 C934 1.415 . S
C936 C941 1.425 . S
C936 C943 1.409 . S
C937 H929 0.930 . S
C937 C935 1.419 . S
C937 C938 1.362 . S
C938 H930 0.930 . S
C938 C937 1.362 . S
C938 C941 1.409 . S
C939 H931 0.930 . S
C939 C940 1.355 . S
C939 C941 1.415 . S
C940 C939 1.355 . S
C940 C942 1.419 . S
C941 C936 1.425 . S
C941 C938 1.409 . S
C941 C939 1.415 . S
C942 H932 0.930 . S
C942 C940 1.419 . S
C942 C943 1.362 . S
C943 H933 0.930 . S
C943 C936 1.409 . S
C943 C942 1.362 . S
H944 C950 0.930 . S
H945 C953 0.930 . S
H946 C954 0.930 . S
H947 C955 0.930 . S
H948 C958 0.930 . S
H949 C959 0.930 . S
C950 H944 0.930 . S
C950 C951 1.355 . S
C950 C952 1.415 . S
C951 C950 1.355 . S
C951 C953 1.419 . S
C952 C950 1.415 . S
C952 C957 1.425 . S
C952 C959 1.409 . S
C953 H945 0.930 . S
C953 C951 1.419 . S
C953 C954 1.362 . S
C954 H946 0.930 . S
C954 C953 1.362 . S
C954 C957 1.409 . S
C955 H947 0.930 . S
C955 C956 1.355 . S
C955 C957 1.415 . S
C956 C955 1.355 . S
C956 C958 1.419 . S
C957 C952 1.425 . S
C957 C954 1.409 . S
C957 C955 1.415 . S
C958 H948 0.930 . S
C958 C956 1.419 . S
C958 C959 1.362 . S
C959 H949 0.930 . S
C959 C952 1.409 . S
C959 C958 1.362 . S
H960 C966 0.930 . S
H961 C969 0.931 1_554 S
H962 C970 0.922 1_554 S
H963 C971 0.930 1_554 S
H964 C974 0.930 . S
H965 C975 0.930 . S
C966 H960 0.930 . S
C966 C967 1.355 . S
C966 C968 1.415 . S
C967 C966 1.355 . S
C967 C969 1.419 . S
C968 C966 1.415 . S
C968 C973 1.425 . S
C968 C975 1.409 . S
C969 H961 0.931 1_556 S
C969 C967 1.419 . S
C969 C970 1.365 . S
C970 H962 0.922 1_556 S
C970 C969 1.365 . S
C970 C973 1.414 . S
C971 H963 0.930 1_556 S
C971 C972 1.355 . S
C971 C973 1.415 . S
C972 C971 1.355 . S
C972 C974 1.419 . S
C973 C968 1.425 . S
C973 C970 1.414 . S
C973 C971 1.415 . S
C974 H964 0.930 . S
C974 C972 1.419 . S
C974 C975 1.362 . S
C975 H965 0.930 . S
C975 C968 1.409 . S
C975 C974 1.362 . S
H976 C982 0.930 . S
H977 C985 0.930 . S
H978 C986 0.930 . S
H979 C987 0.930 . S
H980 C990 0.930 . S
H981 C991 0.930 . S
C982 H976 0.930 . S
C982 C983 1.355 . S
C982 C984 1.415 . S
C983 C982 1.355 . S
C983 C985 1.419 . S
C984 C982 1.415 . S
C984 C989 1.425 . S
C984 C991 1.409 . S
C985 H977 0.930 . S
C985 C983 1.419 . S
C985 C986 1.362 . S
C986 H978 0.930 . S
C986 C985 1.362 . S
C986 C989 1.409 . S
C987 H979 0.930 . S
C987 C988 1.355 . S
C987 C989 1.415 . S
C988 C987 1.355 . S
C988 C990 1.419 . S
C989 C984 1.425 . S
C989 C986 1.409 . S
C989 C987 1.415 . S
C990 H980 0.930 . S
C990 C988 1.419 . S
C990 C991 1.362 . S
C991 H981 0.930 . S
C991 C984 1.409 . S
C991 C990 1.362 . S
H992 C998 0.930 . S
H993 C1001 0.930 . S
H994 C1002 0.930 . S
H995 C1003 0.930 . S
H996 C1006 0.930 . S
H997 C1007 0.930 . S
C998 H992 0.930 . S
C998 C999 1.355 . S
C998 C1000 1.415 . S
C999 C998 1.355 . S
C999 C1001 1.419 . S
C1000 C998 1.415 . S
C1000 C1005 1.425 . S
C1000 C1007 1.409 . S
C1001 H993 0.930 . S
C1001 C999 1.419 . S
C1001 C1002 1.362 . S
C1002 H994 0.930 . S
C1002 C1001 1.362 . S
C1002 C1005 1.409 . S
C1003 H995 0.930 . S
C1003 C1004 1.355 . S
C1003 C1005 1.415 . S
C1004 C1003 1.355 . S
C1004 C1006 1.419 . S
C1005 C1000 1.425 . S
C1005 C1002 1.409 . S
C1005 C1003 1.415 . S
C1006 H996 0.930 . S
C1006 C1004 1.419 . S
C1006 C1007 1.362 . S
C1007 H997 0.930 . S
C1007 C1000 1.409 . S
C1007 C1006 1.362 . S
H1008 C1014 0.930 . S
H1009 C1017 0.930 . S
H1010 C1018 0.930 . S
H1011 C1019 0.930 . S
H1012 C1022 0.930 . S
H1013 C1023 0.930 . S
C1014 H1008 0.930 . S
C1014 C1015 1.355 . S
C1014 C1016 1.415 . S
C1015 C1014 1.355 . S
C1015 C1017 1.419 . S
C1016 C1014 1.415 . S
C1016 C1021 1.425 . S
C1016 C1023 1.409 . S
C1017 H1009 0.930 . S
C1017 C1015 1.419 . S
C1017 C1018 1.362 . S
C1018 H1010 0.930 . S
C1018 C1017 1.362 . S
C1018 C1021 1.409 . S
C1019 H1011 0.930 . S
C1019 C1020 1.355 . S
C1019 C1021 1.415 . S
C1020 C1019 1.355 . S
C1020 C1022 1.419 . S
C1021 C1016 1.425 . S
C1021 C1018 1.409 . S
C1021 C1019 1.415 . S
C1022 H1012 0.930 . S
C1022 C1020 1.419 . S
C1022 C1023 1.362 . S
C1023 H1013 0.930 . S
C1023 C1016 1.409 . S
C1023 C1022 1.362 . S
C647 C1 2.821 . S
C652 C499 2.834 . S
C663 C80 2.517 . S
C668 C530 2.547 . S
C684 C569 1.381 . S
C679 C140 1.407 . S
C695 C211 0.600 . S
C700 C606 0.622 . S
C716 C529 2.799 . S
C711 C31 2.833 . S
C732 C486 1.474 . S
C727 C61 1.447 . S
C748 C618 1.466 . S
C743 C151 1.490 . S
C764 C575 1.205 . S
C759 C200 1.185 . S
C775 C20 2.297 . S
C780 C619 2.296 . S
C796 C535 1.300 . S
C791 C121 1.300 . S
C807 C181 0.570 . S
C812 C498 0.685 . S
C823 C91 2.485 . S
C828 C570 2.531 . S
C844 C490 2.838 . S
C839 C260 2.865 . S
C855 C320 2.483 . S
C860 C539 2.523 . S
C871 C361 1.468 . S
C876 C578 1.452 . S
C887 C451 0.589 . S
C892 C615 0.639 . S
C903 C271 2.859 . S
C908 C538 2.773 . S
C924 C495 1.475 . S
C919 C301 1.451 . S
C940 C609 1.436 . S
C935 C380 1.471 . S
C956 C566 1.186 . S
C951 C440 1.133 . S
C967 C241 2.261 . S
C972 C610 2.294 . S
C988 C526 1.286 . S
C983 C391 1.236 . S
C1004 C489 0.638 . S
C999 C421 0.525 . S
C1015 C331 2.480 . S
C1020 C579 2.512 . S
