# Generated by pormake.
# Topology ftw, (4,12)-cn, num edge types: 1
# Building blocks:
#     Node 0, Type 0, BuildingBlock: AZAVOO_clean_linker_0, # of connection points: 4
#     Node 1, Type 0, BuildingBlock: AZAVOO_clean_linker_0, # of connection points: 4
#     Node 2, Type 0, BuildingBlock: AZAVOO_clean_linker_0, # of connection points: 4
#     Node 3, Type 1, BuildingBlock: QEWDON_clean_sbu_0, # of connection points: 12
#     Edge 4, Type (0, 1), BuildingBlock: ZUJKAS_clean_linker_0, # of connection points: 2
#     Edge 5, Type (0, 1), BuildingBlock: ZUJKAS_clean_linker_0, # of connection points: 2
#     Edge 6, Type (0, 1), BuildingBlock: ZUJKAS_clean_linker_0, # of connection points: 2
#     Edge 7, Type (0, 1), BuildingBlock: ZUJKAS_clean_linker_0, # of connection points: 2
#     Edge 8, Type (0, 1), BuildingBlock: ZUJKAS_clean_linker_0, # of connection points: 2
#     Edge 9, Type (0, 1), BuildingBlock: ZUJKAS_clean_linker_0, # of connection points: 2
#     Edge 10, Type (0, 1), BuildingBlock: ZUJKAS_clean_linker_0, # of connection points: 2
#     Edge 11, Type (0, 1), BuildingBlock: ZUJKAS_clean_linker_0, # of connection points: 2
#     Edge 12, Type (0, 1), BuildingBlock: ZUJKAS_clean_linker_0, # of connection points: 2
#     Edge 13, Type (0, 1), BuildingBlock: ZUJKAS_clean_linker_0, # of connection points: 2
#     Edge 14, Type (0, 1), BuildingBlock: ZUJKAS_clean_linker_0, # of connection points: 2
#     Edge 15, Type (0, 1), BuildingBlock: ZUJKAS_clean_linker_0, # of connection points: 2
# Relax obj value: 0.071
# Max RMSD: 0.223
# Mean RMSD: 0.192
data_MOF--net-ftw--node1-QEWDON_clean_sbu_0--node2-AZAVOO_clean_linker_0--edge1-ZUJKAS_clean_linker_0
_symmetry_space_group_name_H-M    P1
_symmetry_Int_Tables_number       1
_symmetry_cell_setting            triclinic
loop_
_symmetry_equiv_pos_as_xyz
'x, y, z'
_cell_length_a     34.159114
_cell_length_b     33.888581
_cell_length_c     35.280144
_cell_angle_alpha  91.075956
_cell_angle_beta   88.950293
_cell_angle_gamma 91.450882
loop_
_atom_site_label
_atom_site_type_symbol
_atom_site_fract_x
_atom_site_fract_y
_atom_site_fract_z
_atom_type_partial_charge
H0 H 0.06207 0.24756 0.45237 0.0
H1 H 0.93571 0.5783 0.74985 0.0
H2 H 0.0661 0.45948 0.44099 0.0
H3 H 0.07075 0.41658 0.3847 0.0
H4 H 0.94567 0.42333 0.37069 0.0
H5 H 0.9416 0.46696 0.42658 0.0
H6 H 0.06524 0.40937 0.51328 0.0
H7 H 0.07503 0.34105 0.49206 0.0
H8 H 0.9546 0.33282 0.45634 0.0
H9 H 0.94515 0.40098 0.4781 0.0
H10 H 0.05528 0.45227 0.59418 0.0
H11 H 0.05613 0.40495 0.64576 0.0
H12 H 0.93935 0.36408 0.61672 0.0
H13 H 0.93918 0.41109 0.56487 0.0
H14 H 0.04862 0.53831 0.59833 0.0
H15 H 0.04151 0.56599 0.66259 0.0
H16 H 0.9196 0.52825 0.66485 0.0
H17 H 0.92712 0.50093 0.60042 0.0
H18 H 0.04697 0.59 0.53408 0.0
H19 H 0.04228 0.64762 0.5765 0.0
H20 H 0.91734 0.62657 0.58762 0.0
H21 H 0.92257 0.5686 0.54576 0.0
H22 H 0.05416 0.54282 0.43914 0.0
H23 H 0.05385 0.59141 0.38881 0.0
H24 H 0.93306 0.6161 0.41671 0.0
H25 H 0.93332 0.56628 0.4661 0.0
O26 O 0.05729 0.27412 0.46152 0.0
O27 O -0.00465 0.27169 0.44307 0.0
O28 O 0.00278 0.584 0.72281 0.0
O29 O 0.93961 0.56645 0.72495 0.0
C30 C -0.00079 0.48067 0.47773 0.0
C31 C -0.00026 0.45247 0.50693 0.0
C32 C -0.00367 0.46458 0.54523 0.0
C33 C 0.9918 0.50483 0.55443 0.0
C34 C 0.99021 0.53309 0.52539 0.0
C35 C -0.00582 0.52117 0.48684 0.0
C36 C 0.00353 0.46638 0.43783 0.0
C37 C 0.03999 0.45302 0.4248 0.0
C38 C 0.04246 0.42796 0.39299 0.0
C39 C 0.00846 0.41577 0.37362 0.0
C40 C 0.97247 0.43219 0.38478 0.0
C41 C 0.97006 0.45737 0.41662 0.0
C42 C 0.00455 0.41004 0.49712 0.0
C43 C 0.04092 0.39255 0.5013 0.0
C44 C 0.04645 0.35362 0.48897 0.0
C45 C 0.01566 0.33154 0.47228 0.0
C46 C 0.97897 0.34901 0.46894 0.0
C47 C 0.97346 0.38788 0.4814 0.0
C48 C -0.00283 0.43509 0.57585 0.0
C49 C 0.02996 0.43299 0.59898 0.0
C50 C 0.03028 0.40608 0.62853 0.0
C51 C -0.00224 0.38072 0.6355 0.0
C52 C 0.9651 0.38274 0.61189 0.0
C53 C 0.96483 0.40968 0.58236 0.0
C54 C 0.98836 0.51776 0.5948 0.0
C55 C 0.02052 0.53574 0.61293 0.0
C56 C 0.01634 0.5516 0.64957 0.0
C57 C 0.97991 0.54952 0.66879 0.0
C58 C 0.94802 0.53046 0.65083 0.0
C59 C 0.95225 0.51465 0.61414 0.0
C60 C 0.98515 0.57507 0.53689 0.0
C61 C 0.01835 0.59901 0.54416 0.0
C62 C 0.0156 0.6318 0.56871 0.0
C63 C 0.97954 0.64115 0.5862 0.0
C64 C 0.94568 0.61965 0.57531 0.0
C65 C 0.94847 0.5869 0.55083 0.0
C66 C -0.00622 0.55091 0.45634 0.0
C67 C 0.02756 0.55854 0.43421 0.0
C68 C 0.02741 0.58665 0.40567 0.0
C69 C -0.00654 0.60793 0.39869 0.0
C70 C 0.95959 0.60005 0.42093 0.0
C71 C 0.95977 0.57182 0.44942 0.0
C72 C 0.02197 0.29064 0.45809 0.0
C73 C 0.97497 0.56765 0.70716 0.0
H74 H 0.57053 0.94333 0.26452 0.0
H75 H 0.24636 0.02968 0.56542 0.0
H76 H 0.57669 0.92222 0.46568 0.0
H77 H 0.63599 0.92645 0.42619 0.0
H78 H 0.64864 0.05059 0.45498 0.0
H79 H 0.58864 0.04607 0.494 0.0
H80 H 0.50195 0.92288 0.41633 0.0
H81 H 0.5262 0.92024 0.3506 0.0
H82 H 0.5654 0.04229 0.3606 0.0
H83 H 0.54042 0.04467 0.42602 0.0
H84 H 0.41483 0.92623 0.4587 0.0
H85 H 0.36525 0.926 0.40936 0.0
H86 H 0.40405 0.04346 0.37777 0.0
H87 H 0.45249 0.04383 0.42793 0.0
H88 H 0.41093 0.92832 0.54756 0.0
H89 H 0.34224 0.9316 0.56808 0.0
H90 H 0.33861 0.05126 0.52798 0.0
H91 H 0.40747 0.04773 0.50806 0.0
H92 H 0.48145 0.92797 0.59586 0.0
H93 H 0.44644 0.92911 0.65725 0.0
H94 H 0.42208 0.05235 0.64227 0.0
H95 H 0.45764 0.05099 0.5817 0.0
H96 H 0.57337 0.9248 0.54901 0.0
H97 H 0.62207 0.92186 0.59882 0.0
H98 H 0.59396 0.04039 0.63542 0.0
H99 H 0.54518 0.04295 0.58552 0.0
O100 O 0.56025 0.94529 0.29022 0.0
O101 O 0.5806 0.00782 0.29717 0.0
O102 O 0.2769 0.96594 0.57758 0.0
O103 O 0.27345 0.02748 0.55732 0.0
C104 C 0.53649 0.9841 0.49494 0.0
C105 C 0.50758 0.9845 0.46661 0.0
C106 C 0.4675 0.98515 0.47685 0.0
C107 C 0.45629 0.98632 0.51554 0.0
C108 C 0.4851 0.98678 0.54402 0.0
C109 C 0.52536 0.98516 0.5338 0.0
C110 C 0.57833 0.98383 0.48267 0.0
C111 C 0.59317 0.94994 0.46471 0.0
C112 C 0.62703 0.9525 0.44198 0.0
C113 C 0.64673 0.98904 0.43689 0.0
C114 C 0.63373 0.02218 0.45777 0.0
C115 C 0.59984 0.01954 0.48059 0.0
C116 C 0.51959 0.98389 0.4259 0.0
C117 C 0.51538 0.9491 0.40408 0.0
C118 C 0.52942 0.94765 0.36663 0.0
C119 C 0.54795 0.98099 0.35041 0.0
C120 C 0.5514 0.01605 0.37223 0.0
C121 C 0.53716 0.0175 0.40958 0.0
C122 C 0.43728 0.98504 0.44692 0.0
C123 C 0.41241 0.95196 0.44121 0.0
C124 C 0.38432 0.95178 0.4128 0.0
C125 C 0.38059 0.98471 0.38951 0.0
C126 C 0.40565 0.01781 0.39545 0.0
C127 C 0.43361 0.01798 0.42391 0.0
C128 C 0.41412 0.9878 0.52641 0.0
C129 C 0.39521 0.95519 0.54325 0.0
C130 C 0.35599 0.95714 0.5549 0.0
C131 C 0.33494 0.99174 0.54972 0.0
C132 C 0.35395 0.0242 0.53242 0.0
C133 C 0.39321 0.02223 0.52089 0.0
C134 C 0.47212 0.98941 0.58441 0.0
C135 C 0.4696 0.95546 0.60652 0.0
C136 C 0.44917 0.95608 0.64131 0.0
C137 C 0.43109 0.99073 0.65457 0.0
C138 C 0.43593 0.02528 0.63327 0.0
C139 C 0.45625 0.02459 0.59858 0.0
C140 C 0.55563 0.98406 0.56359 0.0
C141 C 0.57793 0.95023 0.56762 0.0
C142 C 0.60585 0.94867 0.59607 0.0
C143 C 0.61199 0.98089 0.62121 0.0
C144 C 0.58967 0.01484 0.61692 0.0
C145 C 0.56186 0.01643 0.58834 0.0
C146 C 0.56391 0.97902 0.31101 0.0
C147 C 0.29337 0.99411 0.56241 0.0
H148 H 0.33339 0.2513 1.00589 0.0
H149 H 0.73035 0.51499 0.06933 0.0
H150 H 0.3859 0.49388 0.97627 0.0
H151 H 0.31424 0.4872 0.97703 0.0
H152 H 0.31669 0.45051 0.09372 0.0
H153 H 0.38777 0.45863 0.09294 0.0
H154 H 0.41057 0.40449 0.97858 0.0
H155 H 0.37364 0.34167 0.97946 0.0
H156 H 0.40737 0.32533 0.09558 0.0
H157 H 0.44382 0.3884 0.09442 0.0
H158 H 0.50016 0.37919 0.9819 0.0
H159 H 0.53035 0.3148 0.98697 0.0
H160 H 0.56386 0.34474 0.10177 0.0
H161 H 0.53255 0.40857 0.09672 0.0
H162 H 0.57016 0.45092 0.97928 0.0
H163 H 0.64151 0.46029 0.98022 0.0
H164 H 0.63313 0.50272 0.09639 0.0
H165 H 0.56203 0.49265 0.09519 0.0
H166 H 0.54288 0.53484 0.97107 0.0
H167 H 0.60016 0.57908 0.97527 0.0
H168 H 0.56939 0.60677 0.09199 0.0
H169 H 0.51247 0.56162 0.08764 0.0
H170 H 0.45779 0.55766 0.96887 0.0
H171 H 0.43145 0.62405 0.96564 0.0
H172 H 0.39054 0.6154 0.08195 0.0
H173 H 0.41775 0.5494 0.08509 0.0
O174 O 0.34753 0.27646 0.0064 0.0
O175 O 0.36511 0.26981 0.06628 0.0
O176 O 0.70605 0.48332 0.01035 0.0
O177 O 0.70263 0.50868 0.06889 0.0
C178 C 0.43522 0.47499 0.03275 0.0
C179 C 0.45366 0.43819 0.03513 0.0
C180 C 0.49492 0.43676 0.03614 0.0
C181 C 0.51766 0.4719 0.03459 0.0
C182 C 0.49925 0.50842 0.03067 0.0
C183 C 0.45813 0.51008 0.02988 0.0
C184 C 0.39191 0.4764 0.03445 0.0
C185 C 0.37074 0.48537 1.0022 0.0
C186 C 0.32989 0.48131 1.00265 0.0
C187 C 0.3097 0.46811 0.03537 0.0
C188 C 0.33109 0.4613 0.06821 0.0
C189 C 0.37179 0.46553 0.06775 0.0
C190 C 0.42985 0.40093 0.03641 0.0
C191 C 0.40964 0.38744 1.00426 0.0
C192 C 0.3887 0.35148 1.00481 0.0
C193 C 0.38767 0.3284 0.03755 0.0
C194 C 0.40762 0.34232 0.06988 0.0
C195 C 0.42848 0.37831 0.0693 0.0
C196 C 0.51431 0.3984 0.03891 0.0
C197 C 0.514 0.37171 0.00811 0.0
C198 C 0.53135 0.33509 0.01103 0.0
C199 C 0.54939 0.32468 0.04482 0.0
C200 C 0.54968 0.35166 0.0756 0.0
C201 C 0.53224 0.38824 0.07265 0.0
C202 C 0.56102 0.4711 0.03715 0.0
C203 C 0.58393 0.46134 1.00514 0.0
C204 C 0.62461 0.46705 1.00568 0.0
C205 C 0.64298 0.48267 0.03828 0.0
C206 C 0.61995 0.49086 0.07077 0.0
C207 C 0.57936 0.48493 0.07025 0.0
C208 C 0.52397 0.54483 0.02917 0.0
C209 C 0.54763 0.55177 0.99701 0.0
C210 C 0.58039 0.57698 0.99953 0.0
C211 C 0.58966 0.59566 0.03424 0.0
C212 C 0.5633 0.59206 0.06514 0.0
C213 C 0.53053 0.5668 0.06257 0.0
C214 C 0.4395 0.54883 0.02716 0.0
C215 C 0.44292 0.57012 0.99352 0.0
C216 C 0.42781 0.60791 0.99172 0.0
C217 C 0.40915 0.62502 0.02362 0.0
C218 C 0.40532 0.60325 0.05711 0.0
C219 C 0.4204 0.56545 0.05886 0.0
C220 C 0.3661 0.28981 0.03778 0.0
C221 C 0.68579 0.49136 0.03822 0.0
Zn222 Zn 0.06824 0.08852 0.97664 0.0
Zn223 Zn 0.04172 0.08598 0.06583 0.0
O224 O 0.0489 0.05267 0.01855 0.0
H225 H 0.04262 0.02489 0.01541 0.0
C226 C 0.95465 0.11238 0.94504 0.0
O227 O 0.96591 0.12143 0.97962 0.0
Zn228 Zn 0.95003 0.89813 0.06863 0.0
Zn229 Zn 0.93336 0.89346 0.97745 0.0
O230 O 0.93786 0.9308 0.02325 0.0
H231 H 0.93969 0.95917 0.02167 0.0
Zn232 Zn 0.91164 0.04772 0.98446 0.0
O233 O 0.94683 0.03728 0.02861 0.0
Zn234 Zn 0.91238 0.03088 0.07484 0.0
H235 H 0.9726 0.02646 0.02574 0.0
Zn236 Zn 0.07412 0.93669 0.9706 0.0
O237 O 0.04205 0.94503 0.01911 0.0
H238 H 0.01531 0.95365 0.0198 0.0
Zn239 Zn 0.08043 0.95238 0.06153 0.0
C240 C 0.0262 0.8806 0.92322 0.0
O241 O 0.01384 0.86762 0.95632 0.0
O242 O 0.06525 0.14699 0.99222 0.0
O243 O 0.04878 0.1446 0.05357 0.0
O244 O 0.9274 0.83581 0.99431 0.0
O245 O 0.93731 0.84042 0.05645 0.0
O246 O 0.85364 0.05248 1.00031 0.0
O247 O 0.8559 0.04138 0.06221 0.0
C248 C 0.09254 0.03356 0.10393 0.0
O249 O 0.13255 0.92861 0.98017 0.0
O250 O 0.1354 0.94001 0.0424 0.0
O251 O 0.8985 0.90758 0.93144 0.0
C252 C 0.05753 0.16418 0.02382 0.0
O253 O 0.11567 0.07272 0.94191 0.0
C254 C 0.9069 0.9511 0.11736 0.0
O255 O 0.93237 0.08222 0.93974 0.0
C256 C 0.92908 0.82001 0.02673 0.0
O257 O 0.05049 0.90965 0.92214 0.0
C258 C 0.96398 0.08647 0.11302 0.0
O259 O 0.08153 0.06916 0.1037 0.0
O260 O 0.07769 0.00946 0.07968 0.0
C261 C 0.83676 0.04925 0.03268 0.0
O262 O 0.91722 0.91545 0.1139 0.0
O263 O 0.91735 0.9746 0.09115 0.0
C264 C 0.03172 0.89868 0.10605 0.0
O265 O 0.92996 0.07041 0.11495 0.0
O266 O 0.98716 0.07455 0.08675 0.0
C267 C 0.15188 0.93117 0.0107 0.0
O268 O 0.06579 0.91453 0.10365 0.0
O269 O 0.00688 0.90809 0.08148 0.0
C270 C 0.887 0.94187 0.92362 0.0
O271 O 0.89791 0.97209 0.94516 0.0
C272 C 0.12475 0.03731 0.93403 0.0
O273 O 0.10332 0.00826 0.94821 0.0
H274 H 0.96888 0.40879 0.30651 0.0
H275 H 0.96719 0.35215 0.26231 0.0
H276 H 0.05004 0.29277 0.33065 0.0
H277 H 0.05067 0.34832 0.37567 0.0
H278 H 0.02514 0.31577 0.21916 0.0
H279 H 0.96 0.21241 0.3245 0.0
H280 H 0.96252 0.2651 0.33272 0.0
H281 H 0.00511 0.23596 0.33896 0.0
C282 C 0.98668 0.38364 0.31217 0.0
C283 C 0.00989 0.38319 0.34468 0.0
C284 C 0.98586 0.35139 0.28677 0.0
C285 C 0.00804 0.31795 0.29345 0.0
C286 C 0.03217 0.31792 0.32521 0.0
H287 H 0.03563 0.12475 0.12431 0.0
H288 H 0.04989 0.18011 0.1679 0.0
C289 C 0.03292 0.35004 0.35067 0.0
C290 C 0.00519 0.28282 0.26767 0.0
H291 H 0.97812 0.18509 0.26481 0.0
C292 C 0.01495 0.28714 0.22911 0.0
C293 C 0.9916 0.24556 0.28067 0.0
C294 C 0.97885 0.2394 0.32138 0.0
C295 C 0.01121 0.25532 0.20314 0.0
C296 C -0.00203 0.21796 0.21619 0.0
C297 C 0.9886 0.21361 0.25485 0.0
C298 C 0.99047 0.18381 0.18992 0.0
C299 C 0.02028 0.26237 0.1618 0.0
C300 C 0.95274 0.16666 0.18845 0.0
C301 C 0.94469 0.1349 0.16384 0.0
C302 C 0.97416 0.11937 0.13988 0.0
C303 C 0.01216 0.13616 0.14179 0.0
C304 C 0.0203 0.16799 0.16669 0.0
H305 H 0.02118 0.29433 0.15527 0.0
H306 H 0.04942 0.2503 0.15452 0.0
H307 H -0.00177 0.24726 0.14349 0.0
H308 H 0.92922 0.1782 0.2061 0.0
H309 H 0.91502 0.12285 0.16333 0.0
H310 H 0.65698 0.04847 0.38591 0.0
H311 H 0.70407 0.05227 0.33299 0.0
H312 H 0.75237 0.94185 0.36558 0.0
H313 H 0.70628 0.93852 0.41945 0.0
H314 H 0.80947 -0.00197 0.34508 0.0
H315 H 0.69357 0.98488 0.23656 0.0
H316 H 0.6884 0.02516 0.26994 0.0
H317 H 0.68391 0.97523 0.28602 0.0
C318 C 0.67816 0.02539 0.38235 0.0
C319 C 0.67785 0.99317 0.407 0.0
C320 C 0.7047 0.02734 0.35171 0.0
C321 C 0.73124 -0.00303 0.34488 0.0
C322 C 0.73195 0.96549 0.37016 0.0
H323 H 0.89198 0.90859 0.18064 0.0
H324 H 0.85123 0.92566 0.23547 0.0
C325 C 0.70548 0.96353 0.40084 0.0
C326 C 0.75779 -0.00266 0.31103 0.0
H327 H 0.7588 0.9916 0.21413 0.0
C328 C 0.79838 -0.0031 0.31646 0.0
C329 C 0.7433 -0.00396 0.27363 0.0
C330 C 0.69993 -0.00498 0.266 0.0
C331 C 0.82483 -0.00555 0.28559 0.0
C332 C 0.8103 0.99189 0.24831 0.0
C333 C 0.76983 0.99375 0.24275 0.0
C334 C 0.83625 0.98307 0.2152 0.0
C335 C 0.86815 0.99411 0.29311 0.0
C336 C 0.84102 0.00953 0.18518 0.0
C337 C 0.86459 -0.00015 0.1535 0.0
C338 C 0.88314 0.96328 0.15108 0.0
C339 C 0.87816 0.93703 0.18136 0.0
C340 C 0.85502 0.9468 0.21296 0.0
H341 H 0.87504 0.00749 0.32128 0.0
H342 H 0.87792 0.96313 0.29281 0.0
H343 H 0.88512 0.01032 0.27093 0.0
H344 H 0.82651 0.0376 0.18626 0.0
H345 H 0.8677 0.02068 0.13082 0.0
H346 H 0.05217 0.66118 0.37993 0.0
H347 H 0.05308 0.70969 0.32954 0.0
H348 H 0.93609 0.67271 0.29874 0.0
H349 H 0.93507 0.62355 0.34878 0.0
H350 H 0.04339 0.69457 0.2509 0.0
H351 H 0.92913 0.79399 0.30925 0.0
H352 H 0.95273 0.75829 0.33793 0.0
H353 H 0.91539 0.74252 0.30543 0.0
C354 C 0.02666 0.6631 0.36236 0.0
C355 C -0.00644 0.63828 0.3685 0.0
C356 C 0.02715 0.69108 0.33368 0.0
C357 C -0.0055 0.69519 0.31064 0.0
C358 C 0.96134 0.67063 0.31665 0.0
H359 H 0.96299 0.85605 0.12114 0.0
H360 H 0.95176 0.80565 0.16921 0.0
C361 C 0.96082 0.64252 0.34532 0.0
C362 C -0.00398 0.72423 0.27949 0.0
H363 H 0.9563 0.80948 0.24911 0.0
C364 C 0.0243 0.71965 0.25049 0.0
C365 C 0.97082 0.75673 0.27875 0.0
C366 C 0.94044 0.76355 0.30959 0.0
C367 C 0.02834 0.7468 0.221 0.0
C368 C 0.00403 0.78003 0.22087 0.0
C369 C 0.97501 0.7841 0.2493 0.0
C370 C 0.0098 0.81171 0.19251 0.0
C371 C 0.05852 0.73947 0.19005 0.0
C372 C 0.04567 0.83266 0.1902 0.0
C373 C 0.05216 0.86124 0.16261 0.0
C374 C 0.02282 0.86992 0.13669 0.0
C375 C 0.98635 0.84994 0.14003 0.0
C376 C 0.97987 0.82113 0.16769 0.0
H377 H 0.06612 0.70781 0.18793 0.0
H378 H 0.04797 0.74883 0.1621 0.0
H379 H 0.0857 0.75672 0.19657 0.0
H380 H 0.06888 0.82668 0.20963 0.0
H381 H 0.08053 0.87622 0.1614 0.0
H382 H 0.35878 0.92378 0.3411 0.0
H383 H 0.31113 0.92493 0.29001 0.0
H384 H 0.28763 0.04655 0.31775 0.0
H385 H 0.33455 0.04557 0.36912 0.0
H386 H 0.22929 0.94395 0.29243 0.0
H387 H 0.31775 0.04729 0.20367 0.0
H388 H 0.33821 0.02087 0.24233 0.0
H389 H 0.3105 0.06453 0.25167 0.0
C390 C 0.34319 0.95068 0.3366 0.0
C391 C 0.35082 0.98472 0.35908 0.0
C392 C 0.3161 0.9513 0.30727 0.0
C393 C 0.29635 0.98601 0.29968 0.0
C394 C 0.30319 0.01969 0.32259 0.0
H395 H 0.1256 0.08031 0.1586 0.0
H396 H 0.17512 0.06375 0.20386 0.0
C397 C 0.33013 0.0191 0.3519 0.0
C398 C 0.26861 0.98742 0.26784 0.0
H399 H 0.25078 0.03743 0.1871 0.0
C400 C 0.23413 0.96395 0.26908 0.0
C401 C 0.27519 0.01331 0.23727 0.0
C402 C 0.31259 0.03767 0.23332 0.0
C403 C 0.20506 0.96736 0.24162 0.0
C404 C 0.21098 -0.00547 0.21196 0.0
C405 C 0.24619 0.01675 0.20995 0.0
C406 C 0.1799 0.00309 0.18459 0.0
C407 C 0.16749 0.94329 0.24552 0.0
C408 C 0.16596 0.97443 0.15853 0.0
C409 C 0.1373 0.98384 0.13238 0.0
C410 C 0.12229 0.0221 0.1317 0.0
C411 C 0.1364 0.05052 0.15804 0.0
C412 C 0.16483 0.04115 0.18405 0.0
H413 H 0.16473 0.92886 0.27349 0.0
H414 H 0.14177 0.96215 0.24182 0.0
H415 H 0.16673 0.91991 0.22308 0.0
H416 H 0.1776 0.94499 0.15804 0.0
H417 H 0.12727 0.96128 0.11265 0.0
H418 H 0.01817 0.71299 0.59442 0.0
H419 H 0.02067 0.75551 0.65143 0.0
H420 H 0.94039 0.67573 0.70906 0.0
H421 H 0.93853 0.63271 0.65285 0.0
H422 H 0.96042 0.79374 0.69426 0.0
H423 H 0.035 0.68229 0.77891 0.0
H424 H 0.03105 0.67808 0.72805 0.0
H425 H 0.9899 0.66517 0.7582 0.0
C426 C 0.00097 0.70459 0.61921 0.0
C427 C 0.97812 0.66946 0.61899 0.0
C428 C 0.0023 0.72898 0.65169 0.0
C429 C 0.98113 0.7185 0.68465 0.0
C430 C 0.95737 0.68414 0.68413 0.0
H431 H 0.97631 0.81644 0.91524 0.0
H432 H 0.96174 0.77879 0.85706 0.0
C433 C 0.95596 0.65982 0.65173 0.0
C434 C 0.9847 0.7429 0.7199 0.0
H435 H 0.01555 0.74045 0.81137 0.0
C436 C 0.97251 0.78216 0.71987 0.0
C437 C 0.00034 0.72765 0.75333 0.0
C438 C 0.01516 0.68611 0.75472 0.0
C439 C 0.97521 0.80648 0.75252 0.0
C440 C 0.99128 0.79136 0.78582 0.0
C441 C 0.00313 0.75199 0.78589 0.0
C442 C -0.00249 0.81614 0.82052 0.0
C443 C 0.96025 0.84793 0.75124 0.0
C444 C 0.02233 0.84976 0.81934 0.0
C445 C 0.0307 0.87136 0.85251 0.0
C446 C 0.01467 0.85959 0.88767 0.0
C447 C 0.9892 0.82632 0.88868 0.0
C448 C 0.98085 0.80474 0.85545 0.0
H449 H 0.93878 0.85104 0.72826 0.0
H450 H 0.94617 0.85667 0.77864 0.0
H451 H 0.9852 0.86873 0.74561 0.0
H452 H 0.03621 0.85867 0.7929 0.0
H453 H 0.05055 0.89671 0.85067 0.0
H454 H 0.37735 0.93328 0.67517 0.0
H455 H 0.32826 0.93629 0.72656 0.0
H456 H 0.3739 0.05082 0.76103 0.0
H457 H 0.42378 0.04778 0.71036 0.0
H458 H 0.34248 0.96262 0.81669 0.0
H459 H 0.24895 0.05269 0.72566 0.0
H460 H 0.2829 0.01755 0.70575 0.0
H461 H 0.30096 0.06317 0.72606 0.0
C462 C 0.37771 0.95866 0.69429 0.0
C463 C 0.40452 0.99036 0.68854 0.0
C464 C 0.34949 0.96038 0.7235 0.0
C465 C 0.3475 0.9938 0.7474 0.0
C466 C 0.37503 0.0248 0.74276 0.0
H467 H 0.17551 0.09077 0.90136 0.0
H468 H 0.23026 0.07771 0.8579 0.0
C469 C 0.40333 0.02309 0.71366 0.0
C470 C 0.31485 -0.00218 0.77523 0.0
H471 H 0.22682 0.04192 0.78818 0.0
C472 C 0.31705 0.97977 0.81056 0.0
C473 C 0.28188 0.0202 0.76695 0.0
C474 C 0.27811 0.0395 0.72904 0.0
C475 C 0.2873 0.98437 0.83833 0.0
C476 C 0.25434 0.00707 0.83012 0.0
C477 C 0.2521 0.02462 0.79449 0.0
C478 C 0.22225 0.01417 0.85825 0.0
C479 C 0.29198 0.96592 0.87653 0.0
C480 C 0.19942 0.98277 0.87294 0.0
C481 C 0.16803 0.99015 0.89797 0.0
C482 C 0.1587 0.02911 0.90851 0.0
C483 C 0.1818 0.06042 0.89386 0.0
C484 C 0.21315 0.05301 0.86898 0.0
H485 H 0.32285 0.95814 0.88151 0.0
H486 H 0.28213 0.98613 0.89974 0.0
H487 H 0.27374 0.93841 0.87791 0.0
H488 H 0.20534 0.9526 0.86447 0.0
H489 H 0.15075 0.96536 0.90858 0.0
H490 H 0.96941 0.30426 0.63662 0.0
H491 H 0.9669 0.25934 0.69014 0.0
H492 H 0.02462 0.34801 0.76 0.0
H493 H 0.02594 0.39365 0.7071 0.0
H494 H 0.0271 0.22953 0.7326 0.0
H495 H 0.92732 0.31926 0.82328 0.0
H496 H 0.93521 0.32844 0.77348 0.0
H497 H 0.97088 0.34519 0.80739 0.0
C498 C 0.9812 0.3144 0.66348 0.0
C499 C -0.0024 0.35273 0.66759 0.0
C500 C 0.98002 0.28856 0.69396 0.0
C501 C -0.00496 0.30052 0.72923 0.0
C502 C 0.01221 0.33839 0.73324 0.0
H503 H -0.00302 0.18218 0.94728 0.0
H504 H 0.01069 0.22723 0.89493 0.0
C505 C 0.01335 0.36429 0.7028 0.0
C506 C -0.00743 0.27331 0.76176 0.0
H507 H 0.95319 0.26268 0.85082 0.0
C508 C 0.01095 0.23677 0.75845 0.0
C509 C 0.97155 0.28283 0.79552 0.0
C510 C 0.9498 0.32089 0.80016 0.0
C511 C 0.00895 0.20954 0.78803 0.0
C512 C 0.98758 0.21891 0.82158 0.0
C513 C 0.96969 0.25565 0.82512 0.0
C514 C 0.98179 0.19034 0.85268 0.0
C515 C 0.03 0.17111 0.78329 0.0
C516 C 0.96104 0.15465 0.84627 0.0
C517 C 0.95305 0.12891 0.87609 0.0
C518 C 0.96551 0.13843 0.91301 0.0
C519 C 0.98694 0.17392 0.91922 0.0
C520 C -0.00521 0.19973 0.88935 0.0
H521 H 0.05335 0.17291 0.76099 0.0
H522 H 0.04332 0.16251 0.81031 0.0
H523 H 0.0087 0.14747 0.77475 0.0
H524 H 0.95012 0.14715 0.81835 0.0
H525 H 0.93642 0.1019 0.87029 0.0
H526 H 0.68542 0.94982 0.61729 0.0
H527 H 0.73237 0.94448 0.66844 0.0
H528 H 0.65249 0.00287 0.74566 0.0
H529 H 0.60494 0.00744 0.69496 0.0
H530 H 0.76835 0.00428 0.71377 0.0
H531 H 0.67748 0.90064 0.80055 0.0
H532 H 0.6672 0.91017 0.7516 0.0
H533 H 0.65354 0.94508 0.78815 0.0
C534 C 0.67765 0.96123 0.64523 0.0
C535 C 0.64122 0.97883 0.65201 0.0
C536 C 0.70467 0.9584 0.67438 0.0
C537 C 0.69577 0.97281 0.71101 0.0
C538 C 0.65977 0.99101 0.71777 0.0
H539 H 0.85698 0.01089 0.89862 0.0
H540 H 0.81157 0.01921 0.84659 0.0
C541 C 0.63276 0.99395 0.68862 0.0
C542 C 0.72415 0.96867 0.7421 0.0
H543 H 0.73593 0.92589 0.82799 0.0
C544 C 0.76129 0.98716 0.73876 0.0
C545 C 0.71506 0.94594 0.7745 0.0
C546 C 0.67631 0.92399 0.77894 0.0
C547 C 0.78939 0.98391 0.76714 0.0
C548 C 0.77998 0.96187 0.79989 0.0
C549 C 0.74301 0.94304 0.80302 0.0
C550 C 0.80835 0.95719 0.83089 0.0
C551 C 0.8292 0.00345 0.76152 0.0
C552 C 0.82127 0.91953 0.83973 0.0
C553 C 0.84717 0.91464 0.86947 0.0
C554 C 0.86048 0.94733 0.89128 0.0
C555 C 0.84748 0.98509 0.88235 0.0
C556 C 0.82164 0.98994 0.85248 0.0
H557 H 0.83483 0.01137 0.73146 0.0
H558 H 0.83088 0.03095 0.77904 0.0
H559 H 0.85269 0.98384 0.77064 0.0
H560 H 0.81131 0.89383 0.82354 0.0
H561 H 0.85648 0.88514 0.87553 0.0
H562 H 0.27115 0.42983 0.9779 0.0
H563 H 0.20668 0.398 0.98105 0.0
H564 H 0.18843 0.44594 0.09389 0.0
H565 H 0.25306 0.47877 0.09073 0.0
H566 H 0.1856 0.3654 0.09019 0.0
H567 H 0.09062 0.42263 0.98023 0.0
H568 H 0.13871 0.41315 0.96154 0.0
H569 H 0.13248 0.45034 0.99817 0.0
C570 C 0.25288 0.43516 1.00278 0.0
C571 C 0.26747 0.45659 0.03421 0.0
C572 C 0.21583 0.41694 1.0045 0.0
C573 C 0.19255 0.41988 0.03757 0.0
C574 C 0.20583 0.44353 0.06801 0.0
H575 H 0.03904 0.21374 0.08382 0.0
H576 H 0.05887 0.28356 0.09118 0.0
C577 C 0.24289 0.46197 0.06626 0.0
C578 C 0.15879 0.39213 0.04265 0.0
H579 H 0.07977 0.35324 0.99605 0.0
C580 C 0.16165 0.36331 0.07042 0.0
C581 C 0.12767 0.3896 0.01684 0.0
C582 C 0.12196 0.42088 0.98777 0.0
C583 C 0.13673 0.32982 0.07063 0.0
C584 C 0.10739 0.3257 0.04284 0.0
C585 C 0.10235 0.35632 0.0172 0.0
C586 C 0.08676 0.2873 0.0359 0.0
C587 C 0.14454 0.29763 0.09839 0.0
C588 C 0.09307 0.26745 1.00119 0.0
C589 C 0.08108 0.22809 0.99649 0.0
C590 C 0.06296 0.2076 0.02664 0.0
C591 C 0.05367 0.22847 0.06033 0.0
C592 C 0.0651 0.26824 0.0647 0.0
H593 H 0.17251 0.30283 0.11349 0.0
H594 H 0.12054 0.29637 0.11999 0.0
H595 H 0.14571 0.26845 0.08364 0.0
H596 H 0.10948 0.28163 0.97842 0.0
H597 H 0.08821 0.21317 0.96993 0.0
H598 H 0.41502 0.68407 0.07721 0.0
H599 H 0.38529 0.74905 0.07641 0.0
H600 H 0.33898 0.7223 0.96573 0.0
H601 H 0.36832 0.65717 0.96637 0.0
H602 H 0.37217 0.80309 0.97718 0.0
H603 H 0.26394 0.75536 0.08832 0.0
H604 H 0.3148 0.74989 0.09879 0.0
H605 H 0.29303 0.72064 0.06143 0.0
C606 C 0.39851 0.69205 0.05269 0.0
C607 C 0.39358 0.66536 0.02204 0.0
C608 C 0.38182 0.72922 0.05219 0.0
C609 C 0.3598 0.7402 0.02114 0.0
C610 C 0.35608 0.71431 0.98987 0.0
H611 H 0.19328 0.89936 0.95106 0.0
H612 H 0.25265 0.86173 0.95484 0.0
C613 C 0.37282 0.67716 0.9903 0.0
C614 C 0.33776 0.77712 0.02246 0.0
H615 H 0.25754 0.81843 0.06405 0.0
C616 C 0.34735 0.80682 0.99643 0.0
C617 C 0.30559 0.78178 0.04773 0.0
C618 C 0.29338 0.75021 0.07553 0.0
C619 C 0.32494 0.84089 0.99451 0.0
C620 C 0.29175 0.84476 0.01875 0.0
C621 C 0.28319 0.81565 0.0457 0.0
C622 C 0.26253 0.87579 0.0141 0.0
C623 C 0.33682 0.87213 0.96636 0.0
C624 C 0.24877 0.89722 0.04587 0.0
C625 C 0.2142 0.91817 0.04402 0.0
C626 C 0.19284 0.91799 0.01032 0.0
C627 C 0.2088 0.89981 0.97757 0.0
C628 C 0.24313 0.87856 0.97956 0.0
H629 H 0.369 0.87263 0.96111 0.0
H630 H 0.32256 0.86527 0.93892 0.0
H631 H 0.32793 0.90193 0.97626 0.0
H632 H 0.26333 0.89553 0.0728 0.0
H633 H 0.20298 0.93228 0.06966 0.0
H634 H 0.54703 0.27407 0.10451 0.0
H635 H 0.58256 0.21254 0.11014 0.0
H636 H 0.63056 0.22702 0.99721 0.0
H637 H 0.59569 0.28859 0.99148 0.0
H638 H 0.60163 0.14672 0.01641 0.0
H639 H 0.70427 0.21551 0.12123 0.0
H640 H 0.65252 0.21855 0.13086 0.0
H641 H 0.67415 0.24489 0.09181 0.0
C642 C 0.56518 0.26411 0.08091 0.0
C643 C 0.56877 0.28626 0.04762 0.0
C644 C 0.58523 0.22893 0.08411 0.0
C645 C 0.6092 0.2155 0.05414 0.0
C646 C 0.61193 0.23688 0.02053 0.0
H647 H 0.78873 0.07556 0.97806 0.0
H648 H 0.7255 0.10569 0.98778 0.0
C649 C 0.59196 0.27199 0.01729 0.0
C650 C 0.63373 0.18071 0.05824 0.0
H651 H 0.71909 0.15301 0.09707 0.0
C652 C 0.62696 0.14763 0.03454 0.0
C653 C 0.66641 0.18196 0.08224 0.0
C654 C 0.67513 0.21711 0.10793 0.0
C655 C 0.65326 0.1165 0.03282 0.0
C656 C 0.68752 0.11914 0.05471 0.0
C657 C 0.6928 0.151 0.0803 0.0
C658 C 0.72103 0.09299 0.04768 0.0
C659 C 0.64458 0.08167 0.00682 0.0
C660 C 0.73949 0.07531 0.07801 0.0
C661 C 0.77617 0.05855 0.07266 0.0
C662 C 0.79504 0.05941 0.03688 0.0
C663 C 0.77513 0.07449 1.00601 0.0
C664 C 0.73864 0.09141 0.01144 0.0
H665 H 0.6125 0.07621 1.00452 0.0
H666 H 0.65627 0.08813 0.97798 0.0
H667 H 0.65818 0.05442 0.01683 0.0
H668 H 0.72647 0.07638 0.10624 0.0
H669 H 0.79058 0.04689 0.097 0.0
H670 H 0.63008 0.64485 0.98595 0.0
H671 H 0.6977 0.66981 0.99219 0.0
H672 H 0.70566 0.61274 0.09983 0.0
H673 H 0.63846 0.58687 0.09355 0.0
H674 H 0.72806 0.70789 0.08338 0.0
H675 H 0.80106 0.58789 1.00097 0.0
H676 H 0.75486 0.60532 0.98485 0.0
H677 H 0.75655 0.57925 0.02847 0.0
C678 C 0.64622 0.63768 0.01095 0.0
C679 C 0.62891 0.61422 0.0394 0.0
C680 C 0.68472 0.65183 0.01441 0.0
C681 C 0.7064 0.64267 0.04627 0.0
C682 C 0.68918 0.61988 0.07503 0.0
H683 H 0.92156 0.7772 0.09191 0.0
H684 H 0.87465 0.72257 0.10193 0.0
C685 C 0.65071 0.60561 0.07157 0.0
C686 C 0.74678 0.65813 0.04979 0.0
H687 H 0.83982 0.64488 0.01617 0.0
C688 C 0.75279 0.69391 0.06942 0.0
C689 C 0.77848 0.63951 0.03133 0.0
C690 C 0.77278 0.60073 0.01026 0.0
C691 C 0.78963 0.713 0.06928 0.0
C692 C 0.82141 0.69505 0.04975 0.0
C693 C 0.81559 0.65824 0.03152 0.0
C694 C 0.85861 0.71724 0.04298 0.0
C695 C 0.7934 0.75349 0.08774 0.0
C696 C 0.86798 0.72925 1.00604 0.0
C697 C 0.89515 0.75998 1.00009 0.0
C698 C 0.91291 0.77942 0.03113 0.0
C699 C 0.90765 0.76347 0.06748 0.0
C700 C 0.88073 0.73235 0.07332 0.0
H701 H 0.76447 0.76574 0.09571 0.0
H702 H 0.8107 0.75163 0.11392 0.0
H703 H 0.80882 0.77447 0.06843 0.0
H704 H 0.85162 0.71752 0.98214 0.0
H705 H 0.89914 0.77092 0.97159 0.0
loop_
_geom_bond_atom_site_label_1
_geom_bond_atom_site_label_2
_geom_bond_distance
_geom_bond_site_symmetry_2
_ccdc_geom_bond_type
H0 O26 0.856 . S
H1 O29 0.854 . S
H2 C37 0.930 . S
H3 C38 0.930 . S
H4 C40 0.930 . S
H5 C41 0.930 . S
H6 C43 0.931 . S
H7 C44 0.930 . S
H8 C46 0.930 . S
H9 C47 0.929 . S
H10 C49 0.930 . S
H11 C50 0.931 . S
H12 C52 0.930 . S
H13 C53 0.929 . S
H14 C55 0.931 . S
H15 C56 0.930 . S
H16 C58 0.930 . S
H17 C59 0.932 . S
H18 C61 0.930 . S
H19 C62 0.929 . S
H20 C64 0.931 . S
H21 C65 0.930 . S
H22 C67 0.929 . S
H23 C68 0.931 . S
H24 C70 0.930 . S
H25 C71 0.929 . S
O26 H0 0.856 . S
O26 C72 1.300 1_455 S
O27 C72 1.209 . S
O28 C73 1.199 1_455 S
O29 H1 0.854 . S
O29 C73 1.297 . S
C30 C31 1.404 1_455 S
C30 C35 1.397 . S
C30 C36 1.493 . S
C31 C30 1.404 1_655 S
C31 C32 1.396 . S
C31 C42 1.492 . S
C32 C31 1.396 . S
C32 C33 1.397 . S
C32 C48 1.509 . S
C33 C32 1.397 . S
C33 C34 1.412 1_655 S
C33 C54 1.485 . S
C34 C33 1.412 1_455 S
C34 C35 1.388 . S
C34 C60 1.490 . S
C35 C30 1.397 . S
C35 C34 1.388 . S
C35 C66 1.519 . S
C36 C30 1.493 . S
C36 C37 1.363 . S
C36 C41 1.390 1_455 S
C37 H2 0.930 . S
C37 C36 1.363 . S
C37 C38 1.372 . S
C38 H3 0.930 . S
C38 C37 1.372 . S
C38 C39 1.383 . S
C39 C38 1.383 . S
C39 C40 1.395 1_455 S
C40 H4 0.930 . S
C40 C39 1.395 1_655 S
C40 C41 1.362 . S
C41 H5 0.930 . S
C41 C36 1.390 1_655 S
C41 C40 1.362 . S
C42 C31 1.492 . S
C42 C43 1.377 1_655 S
C42 C47 1.397 . S
C43 H6 0.931 . S
C43 C42 1.377 1_455 S
C43 C44 1.376 . S
C44 H7 0.930 . S
C44 C43 1.376 . S
C44 C45 1.376 1_455 S
C45 C44 1.376 1_655 S
C45 C46 1.378 . S
C45 C72 1.486 . S
C46 H8 0.930 . S
C46 C45 1.378 . S
C46 C47 1.376 . S
C47 H9 0.929 . S
C47 C42 1.397 . S
C47 C46 1.376 . S
C48 C32 1.509 . S
C48 C49 1.391 1_655 S
C48 C53 1.386 . S
C49 H10 0.930 . S
C49 C48 1.391 1_455 S
C49 C50 1.375 . S
C50 H11 0.931 . S
C50 C49 1.375 . S
C50 C51 1.375 1_455 S
C51 C50 1.375 1_655 S
C51 C52 1.361 . S
C52 H12 0.930 . S
C52 C51 1.361 . S
C52 C53 1.399 . S
C53 H13 0.929 . S
C53 C48 1.386 . S
C53 C52 1.399 . S
C54 C33 1.485 . S
C54 C55 1.394 1_655 S
C54 C59 1.360 . S
C55 H14 0.931 . S
C55 C54 1.394 1_455 S
C55 C56 1.372 . S
C56 H15 0.930 . S
C56 C55 1.372 . S
C56 C57 1.397 1_455 S
C57 C56 1.397 1_655 S
C57 C58 1.390 . S
C57 C73 1.476 . S
C58 H16 0.930 . S
C58 C57 1.390 . S
C58 C59 1.366 . S
C59 H17 0.932 . S
C59 C54 1.360 . S
C59 C58 1.366 . S
C60 C34 1.490 . S
C60 C61 1.380 . S
C60 C65 1.386 1_455 S
C61 H18 0.930 . S
C61 C60 1.380 . S
C61 C62 1.381 . S
C62 H19 0.929 . S
C62 C61 1.381 . S
C62 C63 1.371 . S
C63 C62 1.371 . S
C63 C64 1.380 1_455 S
C64 H20 0.931 . S
C64 C63 1.380 1_655 S
C64 C65 1.387 . S
C65 H21 0.930 . S
C65 C60 1.386 1_655 S
C65 C64 1.387 . S
C66 C35 1.519 . S
C66 C67 1.377 . S
C66 C71 1.361 1_455 S
C67 H22 0.929 . S
C67 C66 1.377 . S
C67 C68 1.386 . S
C68 H23 0.931 . S
C68 C67 1.386 . S
C68 C69 1.363 1_455 S
C69 C68 1.363 1_655 S
C69 C70 1.385 . S
C70 H24 0.930 . S
C70 C69 1.385 . S
C70 C71 1.396 . S
C71 H25 0.929 . S
C71 C66 1.361 1_655 S
C71 C70 1.396 . S
C72 O26 1.300 1_655 S
C72 O27 1.209 . S
C72 C45 1.486 . S
C73 O28 1.199 1_655 S
C73 O29 1.297 . S
C73 C57 1.476 . S
H74 O100 0.856 . S
H75 O103 0.854 . S
H76 C111 0.930 . S
H77 C112 0.930 . S
H78 C114 0.930 . S
H79 C115 0.930 . S
H80 C117 0.931 . S
H81 C118 0.930 . S
H82 C120 0.930 . S
H83 C121 0.929 . S
H84 C123 0.930 . S
H85 C124 0.931 . S
H86 C126 0.930 . S
H87 C127 0.929 . S
H88 C129 0.931 . S
H89 C130 0.930 . S
H90 C132 0.930 . S
H91 C133 0.932 . S
H92 C135 0.930 . S
H93 C136 0.929 . S
H94 C138 0.931 . S
H95 C139 0.930 . S
H96 C141 0.929 . S
H97 C142 0.931 . S
H98 C144 0.930 . S
H99 C145 0.929 . S
O100 H74 0.856 . S
O100 C146 1.300 1_565 S
O101 C146 1.209 . S
O102 C147 1.199 1_565 S
O103 H75 0.854 . S
O103 C147 1.297 . S
C104 C105 1.404 . S
C104 C109 1.397 . S
C104 C110 1.491 1_545 S
C105 C104 1.404 . S
C105 C106 1.396 . S
C105 C116 1.492 . S
C106 C105 1.396 . S
C106 C107 1.397 . S
C106 C122 1.509 . S
C107 C106 1.397 . S
C107 C108 1.412 . S
C107 C128 1.485 . S
C108 C107 1.412 . S
C108 C109 1.388 . S
C108 C134 1.488 1_545 S
C109 C104 1.397 . S
C109 C108 1.388 . S
C109 C140 1.519 . S
C110 C104 1.491 1_565 S
C110 C111 1.367 . S
C110 C115 1.387 1_565 S
C111 H76 0.930 . S
C111 C110 1.367 . S
C111 C112 1.372 . S
C112 H77 0.930 . S
C112 C111 1.372 . S
C112 C113 1.383 . S
C113 C112 1.383 . S
C113 C114 1.395 1_565 S
C114 H78 0.930 . S
C114 C113 1.395 1_545 S
C114 C115 1.362 . S
C115 H79 0.930 . S
C115 C110 1.387 1_545 S
C115 C114 1.362 . S
C116 C105 1.492 . S
C116 C117 1.377 1_545 S
C116 C121 1.397 . S
C117 H80 0.931 . S
C117 C116 1.377 1_565 S
C117 C118 1.376 . S
C118 H81 0.930 . S
C118 C117 1.376 . S
C118 C119 1.376 1_565 S
C119 C118 1.376 1_545 S
C119 C120 1.378 . S
C119 C146 1.486 . S
C120 H82 0.930 . S
C120 C119 1.378 . S
C120 C121 1.376 . S
C121 H83 0.929 . S
C121 C116 1.397 . S
C121 C120 1.376 . S
C122 C106 1.509 . S
C122 C123 1.391 1_545 S
C122 C127 1.386 . S
C123 H84 0.930 . S
C123 C122 1.391 1_565 S
C123 C124 1.375 . S
C124 H85 0.931 . S
C124 C123 1.375 . S
C124 C125 1.375 1_565 S
C125 C124 1.375 1_545 S
C125 C126 1.361 . S
C126 H86 0.930 . S
C126 C125 1.361 . S
C126 C127 1.399 . S
C127 H87 0.929 . S
C127 C122 1.386 . S
C127 C126 1.399 . S
C128 C107 1.485 . S
C128 C129 1.394 1_545 S
C128 C133 1.360 . S
C129 H88 0.931 . S
C129 C128 1.394 1_565 S
C129 C130 1.372 . S
C130 H89 0.930 . S
C130 C129 1.372 . S
C130 C131 1.397 1_565 S
C131 C130 1.397 1_545 S
C131 C132 1.390 . S
C131 C147 1.476 . S
C132 H90 0.930 . S
C132 C131 1.390 . S
C132 C133 1.366 . S
C133 H91 0.932 . S
C133 C128 1.360 . S
C133 C132 1.366 . S
C134 C108 1.488 1_565 S
C134 C135 1.398 . S
C134 C139 1.371 1_565 S
C135 H92 0.930 . S
C135 C134 1.398 . S
C135 C136 1.381 . S
C136 H93 0.929 . S
C136 C135 1.381 . S
C136 C137 1.371 . S
C137 C136 1.371 . S
C137 C138 1.380 1_565 S
C138 H94 0.931 . S
C138 C137 1.380 1_545 S
C138 C139 1.387 . S
C139 H95 0.930 . S
C139 C134 1.371 1_545 S
C139 C138 1.387 . S
C140 C109 1.519 . S
C140 C141 1.377 1_545 S
C140 C145 1.361 . S
C141 H96 0.929 . S
C141 C140 1.377 1_565 S
C141 C142 1.386 . S
C142 H97 0.931 . S
C142 C141 1.386 . S
C142 C143 1.363 1_565 S
C143 C142 1.363 1_545 S
C143 C144 1.385 . S
C144 H98 0.930 . S
C144 C143 1.385 . S
C144 C145 1.396 . S
C145 H99 0.929 . S
C145 C140 1.361 . S
C145 C144 1.396 . S
C146 O100 1.300 1_545 S
C146 O101 1.209 . S
C146 C119 1.486 . S
C147 O102 1.199 1_545 S
C147 O103 1.297 . S
C147 C131 1.476 . S
H148 O174 0.856 . S
H149 O177 0.854 . S
H150 C185 0.930 . S
H151 C186 0.930 . S
H152 C188 0.930 . S
H153 C189 0.930 . S
H154 C191 0.931 . S
H155 C192 0.935 . S
H156 C194 0.930 . S
H157 C195 0.929 . S
H158 C197 0.942 . S
H159 C198 0.931 1_556 S
H160 C200 0.930 . S
H161 C201 0.929 . S
H162 C203 0.931 . S
H163 C204 0.930 . S
H164 C206 0.930 . S
H165 C207 0.932 . S
H166 C209 0.930 . S
H167 C210 0.929 . S
H168 C212 0.931 . S
H169 C213 0.930 . S
H170 C215 0.929 . S
H171 C216 0.931 . S
H172 C218 0.930 . S
H173 C219 0.929 . S
O174 H148 0.856 . S
O174 C220 1.300 . S
O175 C220 1.209 . S
O176 C221 1.199 . S
O177 H149 0.854 . S
O177 C221 1.297 . S
C178 C179 1.404 . S
C178 C183 1.397 . S
C178 C184 1.492 . S
C179 C178 1.404 . S
C179 C180 1.396 . S
C179 C190 1.492 . S
C180 C179 1.396 . S
C180 C181 1.397 . S
C180 C196 1.509 . S
C181 C180 1.397 . S
C181 C182 1.412 . S
C181 C202 1.485 . S
C182 C181 1.412 . S
C182 C183 1.388 . S
C182 C208 1.490 . S
C183 C178 1.397 . S
C183 C182 1.388 . S
C183 C214 1.519 . S
C184 C178 1.492 . S
C184 C185 1.363 1_554 S
C184 C189 1.390 . S
C185 H150 0.930 . S
C185 C184 1.363 1_556 S
C185 C186 1.372 . S
C186 H151 0.930 . S
C186 C185 1.372 . S
C186 C187 1.383 1_556 S
C187 C186 1.383 1_554 S
C187 C188 1.395 . S
C188 H152 0.930 . S
C188 C187 1.395 . S
C188 C189 1.362 . S
C189 H153 0.930 . S
C189 C184 1.390 . S
C189 C188 1.362 . S
C190 C179 1.492 . S
C190 C191 1.377 1_554 S
C190 C195 1.397 . S
C191 H154 0.931 . S
C191 C190 1.377 1_556 S
C191 C192 1.376 . S
C192 H155 0.935 . S
C192 C191 1.376 . S
C192 C193 1.371 1_556 S
C193 C192 1.371 1_554 S
C193 C194 1.378 . S
C193 C220 1.486 . S
C194 H156 0.930 . S
C194 C193 1.378 . S
C194 C195 1.376 . S
C195 H157 0.929 . S
C195 C190 1.397 . S
C195 C194 1.376 . S
C196 C180 1.509 . S
C196 C197 1.381 1_554 S
C196 C201 1.386 . S
C197 H158 0.942 . S
C197 C196 1.381 1_556 S
C197 C198 1.373 1_556 S
C198 H159 0.931 1_554 S
C198 C197 1.373 1_554 S
C198 C199 1.375 . S
C199 C198 1.375 . S
C199 C200 1.361 . S
C200 H160 0.930 . S
C200 C199 1.361 . S
C200 C201 1.399 . S
C201 H161 0.929 . S
C201 C196 1.386 . S
C201 C200 1.399 . S
C202 C181 1.485 . S
C202 C203 1.394 1_554 S
C202 C207 1.360 . S
C203 H162 0.931 . S
C203 C202 1.394 1_556 S
C203 C204 1.372 . S
C204 H163 0.930 . S
C204 C203 1.372 . S
C204 C205 1.397 1_556 S
C205 C204 1.397 1_554 S
C205 C206 1.390 . S
C205 C221 1.476 . S
C206 H164 0.930 . S
C206 C205 1.390 . S
C206 C207 1.366 . S
C207 H165 0.932 . S
C207 C202 1.360 . S
C207 C206 1.366 . S
C208 C182 1.490 . S
C208 C209 1.380 1_554 S
C208 C213 1.386 . S
C209 H166 0.930 . S
C209 C208 1.380 1_556 S
C209 C210 1.381 . S
C210 H167 0.929 . S
C210 C209 1.381 . S
C210 C211 1.371 1_556 S
C211 C210 1.371 1_554 S
C211 C212 1.380 . S
C212 H168 0.931 . S
C212 C211 1.380 . S
C212 C213 1.387 . S
C213 H169 0.930 . S
C213 C208 1.386 . S
C213 C212 1.387 . S
C214 C183 1.519 . S
C214 C215 1.377 1_554 S
C214 C219 1.361 . S
C215 H170 0.929 . S
C215 C214 1.377 1_556 S
C215 C216 1.386 . S
C216 H171 0.931 . S
C216 C215 1.386 . S
C216 C217 1.363 1_556 S
C217 C216 1.363 1_554 S
C217 C218 1.385 . S
C218 H172 0.930 . S
C218 C217 1.385 . S
C218 C219 1.396 . S
C219 H173 0.929 . S
C219 C214 1.361 . S
C219 C218 1.396 . S
C220 O174 1.300 . S
C220 O175 1.209 . S
C220 C193 1.486 . S
C221 O176 1.199 . S
C221 O177 1.297 . S
C221 C205 1.476 . S
Zn222 O224 1.933 1_556 S
Zn222 O242 1.985 . S
Zn222 O253 1.955 . S
Zn223 O224 1.911 . S
Zn223 O243 1.970 . S
Zn223 O259 1.945 . S
Zn223 O266 1.981 . S
O224 Zn222 1.933 1_554 S
O224 Zn223 1.911 . S
O224 H225 0.841 . S
H225 O224 0.841 . S
C226 O227 1.246 . S
C226 O255 1.276 1_455 S
O227 C226 1.246 . S
Zn228 O230 1.911 . S
Zn228 O245 1.970 . S
Zn228 O262 1.945 . S
Zn228 O269 1.981 . S
Zn229 O230 1.933 1_556 S
Zn229 O244 1.985 . S
Zn229 O251 1.955 . S
O230 Zn228 1.911 . S
O230 Zn229 1.933 1_554 S
O230 H231 0.841 . S
H231 O230 0.841 . S
Zn232 O233 1.933 1_556 S
Zn232 O246 1.985 . S
Zn232 O255 1.955 . S
O233 Zn232 1.933 1_554 S
O233 Zn234 1.911 . S
O233 H235 0.841 . S
Zn234 O233 1.911 . S
Zn234 O247 1.970 . S
Zn234 O263 1.981 . S
Zn234 O265 1.945 . S
H235 O233 0.841 . S
Zn236 O237 1.933 1_556 S
Zn236 O249 1.985 . S
Zn236 O257 1.955 . S
O237 Zn236 1.933 1_554 S
O237 H238 0.841 . S
O237 Zn239 1.911 . S
H238 O237 0.841 . S
Zn239 O237 1.911 . S
Zn239 O250 1.970 . S
Zn239 O260 1.981 . S
Zn239 O268 1.945 . S
C240 O241 1.246 . S
C240 O257 1.276 1_655 S
O241 C240 1.246 . S
O242 Zn222 1.985 . S
O242 C252 1.245 1_556 S
O243 Zn223 1.970 . S
O243 C252 1.263 . S
O244 Zn229 1.985 . S
O244 C256 1.245 1_556 S
O245 Zn228 1.970 . S
O245 C256 1.263 . S
O246 Zn232 1.985 . S
O246 C261 1.245 1_556 S
O247 Zn234 1.970 . S
O247 C261 1.263 . S
C248 O259 1.262 . S
C248 O260 1.245 1_545 S
O249 Zn236 1.985 . S
O249 C267 1.245 1_556 S
O250 Zn239 1.970 . S
O250 C267 1.263 . S
O251 Zn229 1.955 . S
O251 C270 1.276 1_565 S
C252 O242 1.245 1_554 S
C252 O243 1.263 . S
O253 Zn222 1.955 . S
O253 C272 1.285 . S
C254 O262 1.262 1_545 S
C254 O263 1.245 . S
O255 C226 1.276 1_655 S
O255 Zn232 1.955 . S
C256 O244 1.245 1_554 S
C256 O245 1.263 . S
O257 Zn236 1.955 . S
O257 C240 1.276 1_455 S
C258 O265 1.237 1_455 S
C258 O266 1.258 . S
O259 Zn223 1.945 . S
O259 C248 1.262 . S
O260 Zn239 1.981 . S
O260 C248 1.245 1_565 S
C261 O246 1.245 1_554 S
C261 O247 1.263 . S
O262 Zn228 1.945 . S
O262 C254 1.262 1_565 S
O263 Zn234 1.981 . S
O263 C254 1.245 . S
C264 O268 1.262 1_655 S
C264 O269 1.245 . S
O265 Zn234 1.945 . S
O265 C258 1.237 1_655 S
O266 Zn223 1.981 . S
O266 C258 1.258 . S
C267 O249 1.245 1_554 S
C267 O250 1.263 . S
O268 Zn239 1.945 . S
O268 C264 1.262 1_455 S
O269 Zn228 1.981 . S
O269 C264 1.245 . S
C270 O251 1.276 1_545 S
C270 O271 1.246 . S
O271 C270 1.246 . S
C272 O253 1.285 . S
C272 O273 1.241 1_545 S
O273 C272 1.241 1_565 S
H274 C282 0.929 1_655 S
H275 C284 0.929 1_655 S
H276 C286 0.930 . S
H277 C289 0.929 . S
H278 C292 0.930 . S
H279 C294 0.960 . S
H280 C294 0.960 . S
H281 C294 0.960 . S
C282 H274 0.929 1_455 S
C282 C283 1.377 . S
C282 C284 1.384 . S
C283 C282 1.377 . S
C283 C289 1.390 . S
C284 H275 0.929 1_455 S
C284 C282 1.384 . S
C284 C285 1.372 . S
C285 C284 1.372 . S
C285 C286 1.400 . S
C285 C290 1.490 . S
C286 H276 0.930 . S
C286 C285 1.400 . S
C286 C289 1.386 . S
H287 C303 0.930 . S
H288 C304 0.931 . S
C289 H277 0.929 . S
C289 C283 1.390 . S
C289 C286 1.386 . S
C290 C285 1.490 . S
C290 C292 1.395 . S
C290 C293 1.403 1_455 S
H291 C297 0.930 . S
C292 H278 0.930 . S
C292 C290 1.395 . S
C292 C295 1.403 . S
C293 C290 1.403 1_655 S
C293 C294 1.524 . S
C293 C297 1.400 . S
C294 H279 0.960 . S
C294 H280 0.960 . S
C294 H281 0.960 . S
C294 C293 1.524 . S
C295 C292 1.403 . S
C295 C296 1.392 . S
C295 C299 1.495 . S
C296 C295 1.392 . S
C296 C297 1.385 1_455 S
C296 C298 1.478 . S
C297 H291 0.930 . S
C297 C293 1.400 . S
C297 C296 1.385 1_655 S
C298 C296 1.478 . S
C298 C300 1.381 1_455 S
C298 C304 1.383 . S
C299 C295 1.495 . S
C299 H305 0.959 . S
C299 H306 0.961 . S
C299 H307 0.960 . S
C300 C298 1.381 1_655 S
C300 C301 1.394 . S
C300 H308 0.930 . S
C301 C300 1.394 . S
C301 C302 1.383 1_655 S
C301 H309 0.929 . S
C302 C301 1.383 1_455 S
C302 C303 1.377 . S
C303 H287 0.930 . S
C303 C302 1.377 . S
C303 C304 1.379 . S
C304 H288 0.931 . S
C304 C298 1.383 . S
C304 C303 1.379 . S
H305 C299 0.959 . S
H306 C299 0.961 . S
H307 C299 0.960 . S
H308 C300 0.930 . S
H309 C301 0.929 . S
H310 C318 0.929 . S
H311 C320 0.930 . S
H312 C322 0.930 . S
H313 C325 0.929 . S
H314 C328 0.930 . S
H315 C330 0.960 . S
H316 C330 0.960 . S
H317 C330 0.960 . S
C318 H310 0.929 . S
C318 C319 1.377 1_545 S
C318 C320 1.384 . S
C319 C318 1.377 1_565 S
C319 C325 1.390 . S
C320 H311 0.930 . S
C320 C318 1.384 . S
C320 C321 1.372 1_545 S
C321 C320 1.372 1_565 S
C321 C322 1.400 . S
C321 C326 1.493 . S
C322 H312 0.930 . S
C322 C321 1.400 . S
C322 C325 1.386 . S
H323 C339 0.930 . S
H324 C340 0.931 . S
C325 H313 0.929 . S
C325 C319 1.390 . S
C325 C322 1.386 . S
C326 C321 1.493 . S
C326 C328 1.385 1_565 S
C326 C329 1.410 . S
H327 C333 0.930 . S
C328 H314 0.930 . S
C328 C326 1.385 1_545 S
C328 C331 1.403 . S
C329 C326 1.410 . S
C329 C330 1.524 . S
C329 C333 1.400 . S
C330 H315 0.960 . S
C330 H316 0.960 . S
C330 H317 0.960 . S
C330 C329 1.524 . S
C331 C328 1.403 . S
C331 C332 1.392 . S
C331 C335 1.495 . S
C332 C331 1.392 . S
C332 C333 1.385 1_545 S
C332 C334 1.478 . S
C333 H327 0.930 . S
C333 C329 1.400 . S
C333 C332 1.385 1_565 S
C334 C332 1.478 . S
C334 C336 1.381 . S
C334 C340 1.383 1_545 S
C335 C331 1.495 . S
C335 H341 0.959 . S
C335 H342 0.961 . S
C335 H343 0.960 . S
C336 C334 1.381 . S
C336 C337 1.394 . S
C336 H344 0.930 . S
C337 C336 1.394 . S
C337 C338 1.383 . S
C337 H345 0.929 . S
C338 C337 1.383 . S
C338 C339 1.377 1_545 S
C339 H323 0.930 . S
C339 C338 1.377 1_565 S
C339 C340 1.379 . S
C340 H324 0.931 . S
C340 C334 1.383 1_565 S
C340 C339 1.379 . S
H341 C335 0.959 . S
H342 C335 0.961 . S
H343 C335 0.960 . S
H344 C336 0.930 . S
H345 C337 0.929 . S
H346 C354 0.929 . S
H347 C356 0.930 . S
H348 C358 0.930 . S
H349 C361 0.929 . S
H350 C364 0.925 1_455 S
H351 C366 0.960 . S
H352 C366 0.960 1_455 S
H353 C366 0.960 . S
C354 H346 0.929 . S
C354 C355 1.377 1_455 S
C354 C356 1.384 . S
C355 C354 1.377 1_655 S
C355 C361 1.390 . S
C356 H347 0.930 . S
C356 C354 1.384 . S
C356 C357 1.372 1_455 S
C357 C356 1.372 1_655 S
C357 C358 1.400 . S
C357 C362 1.490 . S
C358 H348 0.930 . S
C358 C357 1.400 . S
C358 C361 1.386 . S
H359 C375 0.930 . S
H360 C376 0.931 . S
C361 H349 0.929 . S
C361 C355 1.390 . S
C361 C358 1.386 . S
C362 C357 1.490 . S
C362 C364 1.399 . S
C362 C365 1.403 . S
H363 C369 0.930 . S
C364 H350 0.925 1_655 S
C364 C362 1.399 . S
C364 C367 1.404 . S
C365 C362 1.403 . S
C365 C366 1.524 . S
C365 C369 1.400 . S
C366 H351 0.960 . S
C366 H352 0.960 1_655 S
C366 H353 0.960 . S
C366 C365 1.524 . S
C367 C364 1.404 . S
C367 C368 1.397 . S
C367 C371 1.492 1_655 S
C368 C367 1.397 . S
C368 C369 1.385 . S
C368 C370 1.478 . S
C369 H363 0.930 . S
C369 C365 1.400 . S
C369 C368 1.385 . S
C370 C368 1.478 . S
C370 C372 1.381 1_655 S
C370 C376 1.383 . S
C371 C367 1.492 1_455 S
C371 H377 0.959 . S
C371 H378 0.961 1_455 S
C371 H379 0.960 . S
C372 C370 1.381 1_455 S
C372 C373 1.394 . S
C372 H380 0.930 . S
C373 C372 1.394 . S
C373 C374 1.383 1_455 S
C373 H381 0.929 . S
C374 C373 1.383 1_655 S
C374 C375 1.377 . S
C375 H359 0.930 . S
C375 C374 1.377 . S
C375 C376 1.379 . S
C376 H360 0.931 . S
C376 C370 1.383 . S
C376 C375 1.379 . S
H377 C371 0.959 . S
H378 C371 0.961 1_655 S
H379 C371 0.960 . S
H380 C372 0.930 . S
H381 C373 0.929 . S
H382 C390 0.929 . S
H383 C392 0.930 . S
H384 C394 0.930 . S
H385 C397 0.929 . S
H386 C400 0.930 . S
H387 C402 0.960 . S
H388 C402 0.960 . S
H389 C402 0.960 . S
C390 H382 0.929 . S
C390 C391 1.377 1_565 S
C390 C392 1.384 . S
C391 C390 1.377 1_545 S
C391 C397 1.390 . S
C392 H383 0.930 . S
C392 C390 1.384 . S
C392 C393 1.372 1_565 S
C393 C392 1.372 1_545 S
C393 C394 1.400 . S
C393 C398 1.490 . S
C394 H384 0.930 . S
C394 C393 1.400 . S
C394 C397 1.386 . S
H395 C411 0.930 . S
H396 C412 0.931 . S
C397 H385 0.929 . S
C397 C391 1.390 . S
C397 C394 1.386 . S
C398 C393 1.490 . S
C398 C400 1.395 1_545 S
C398 C401 1.403 . S
H399 C405 0.930 . S
C400 H386 0.930 . S
C400 C398 1.395 1_565 S
C400 C403 1.403 . S
C401 C398 1.403 . S
C401 C402 1.524 . S
C401 C405 1.400 . S
C402 H387 0.960 . S
C402 H388 0.960 . S
C402 H389 0.960 . S
C402 C401 1.524 . S
C403 C400 1.403 . S
C403 C404 1.392 1_565 S
C403 C407 1.495 . S
C404 C403 1.392 1_545 S
C404 C405 1.385 . S
C404 C406 1.478 1_545 S
C405 H399 0.930 . S
C405 C401 1.400 . S
C405 C404 1.385 . S
C406 C404 1.478 1_565 S
C406 C408 1.381 . S
C406 C412 1.383 1_565 S
C407 C403 1.495 . S
C407 H413 0.959 . S
C407 H414 0.961 . S
C407 H415 0.960 . S
C408 C406 1.381 . S
C408 C409 1.394 . S
C408 H416 0.930 . S
C409 C408 1.394 . S
C409 C410 1.383 . S
C409 H417 0.929 . S
C410 C409 1.383 . S
C410 C411 1.377 1_565 S
C411 H395 0.930 . S
C411 C410 1.377 1_545 S
C411 C412 1.379 . S
C412 H396 0.931 . S
C412 C406 1.383 1_545 S
C412 C411 1.379 . S
H413 C407 0.959 . S
H414 C407 0.961 . S
H415 C407 0.960 . S
H416 C408 0.930 . S
H417 C409 0.929 . S
H418 C426 0.929 . S
H419 C428 0.930 . S
H420 C430 0.935 . S
H421 C433 0.929 1_655 S
H422 C436 0.930 . S
H423 C438 0.960 . S
H424 C438 0.960 . S
H425 C438 0.960 . S
C426 H418 0.929 . S
C426 C427 1.377 . S
C426 C428 1.384 . S
C427 C426 1.377 . S
C427 C433 1.390 . S
C428 H419 0.930 . S
C428 C426 1.384 . S
C428 C429 1.372 . S
C429 C428 1.372 . S
C429 C430 1.396 1_455 S
C429 C434 1.490 . S
C430 H420 0.935 . S
C430 C429 1.396 1_655 S
C430 C433 1.385 1_655 S
H431 C447 0.930 . S
H432 C448 0.931 . S
C433 H421 0.929 1_455 S
C433 C427 1.390 . S
C433 C430 1.385 1_455 S
C434 C429 1.490 . S
C434 C436 1.395 1_455 S
C434 C437 1.403 . S
H435 C441 0.930 . S
C436 H422 0.930 . S
C436 C434 1.395 1_655 S
C436 C439 1.403 . S
C437 C434 1.403 . S
C437 C438 1.524 . S
C437 C441 1.400 . S
C438 H423 0.960 . S
C438 H424 0.960 . S
C438 H425 0.960 . S
C438 C437 1.524 . S
C439 C436 1.403 . S
C439 C440 1.392 . S
C439 C443 1.495 . S
C440 C439 1.392 . S
C440 C441 1.385 1_655 S
C440 C442 1.478 . S
C441 H435 0.930 . S
C441 C437 1.400 . S
C441 C440 1.385 1_455 S
C442 C440 1.478 . S
C442 C444 1.381 1_655 S
C442 C448 1.383 . S
C443 C439 1.495 . S
C443 H449 0.959 . S
C443 H450 0.961 . S
C443 H451 0.960 . S
C444 C442 1.381 1_455 S
C444 C445 1.394 . S
C444 H452 0.930 . S
C445 C444 1.394 . S
C445 C446 1.383 1_455 S
C445 H453 0.929 . S
C446 C445 1.383 1_655 S
C446 C447 1.377 . S
C447 H431 0.930 . S
C447 C446 1.377 . S
C447 C448 1.379 . S
C448 H432 0.931 . S
C448 C442 1.383 . S
C448 C447 1.379 . S
H449 C443 0.959 . S
H450 C443 0.961 . S
H451 C443 0.960 . S
H452 C444 0.930 . S
H453 C445 0.929 . S
H454 C462 0.929 . S
H455 C464 0.930 . S
H456 C466 0.930 . S
H457 C469 0.929 . S
H458 C472 0.930 . S
H459 C474 0.960 . S
H460 C474 0.960 . S
H461 C474 0.960 . S
C462 H454 0.929 . S
C462 C463 1.377 . S
C462 C464 1.384 . S
C463 C462 1.377 . S
C463 C469 1.390 1_565 S
C464 H455 0.930 . S
C464 C462 1.384 . S
C464 C465 1.372 . S
C465 C464 1.372 . S
C465 C466 1.400 1_565 S
C465 C470 1.490 . S
C466 H456 0.930 . S
C466 C465 1.400 1_545 S
C466 C469 1.386 . S
H467 C483 0.930 . S
H468 C484 0.931 . S
C469 H457 0.929 . S
C469 C463 1.390 1_545 S
C469 C466 1.386 . S
C470 C465 1.490 . S
C470 C472 1.395 . S
C470 C473 1.403 1_565 S
H471 C477 0.930 . S
C472 H458 0.930 . S
C472 C470 1.395 . S
C472 C475 1.403 . S
C473 C470 1.403 1_545 S
C473 C474 1.524 . S
C473 C477 1.400 . S
C474 H459 0.960 . S
C474 H460 0.960 . S
C474 H461 0.960 . S
C474 C473 1.524 . S
C475 C472 1.403 . S
C475 C476 1.392 . S
C475 C479 1.495 . S
C476 C475 1.392 . S
C476 C477 1.385 1_565 S
C476 C478 1.478 . S
C477 H471 0.930 . S
C477 C473 1.400 . S
C477 C476 1.385 1_545 S
C478 C476 1.478 . S
C478 C480 1.381 . S
C478 C484 1.383 1_565 S
C479 C475 1.495 . S
C479 H485 0.959 . S
C479 H486 0.961 . S
C479 H487 0.960 . S
C480 C478 1.381 . S
C480 C481 1.394 . S
C480 H488 0.930 . S
C481 C480 1.394 . S
C481 C482 1.383 . S
C481 H489 0.929 . S
C482 C481 1.383 . S
C482 C483 1.377 1_565 S
C483 H467 0.930 . S
C483 C482 1.377 1_545 S
C483 C484 1.379 . S
C484 H468 0.931 . S
C484 C478 1.383 1_545 S
C484 C483 1.379 . S
H485 C479 0.959 . S
H486 C479 0.961 . S
H487 C479 0.960 . S
H488 C480 0.930 . S
H489 C481 0.929 . S
H490 C498 0.929 . S
H491 C500 0.930 . S
H492 C502 0.930 . S
H493 C505 0.929 . S
H494 C508 0.930 . S
H495 C510 0.960 . S
H496 C510 0.960 . S
H497 C510 0.960 . S
C498 H490 0.929 . S
C498 C499 1.377 . S
C498 C500 1.384 . S
C499 C498 1.377 . S
C499 C505 1.390 1_655 S
C500 H491 0.930 . S
C500 C498 1.384 . S
C500 C501 1.372 . S
C501 C500 1.372 . S
C501 C502 1.400 1_655 S
C501 C506 1.490 . S
C502 H492 0.930 . S
C502 C501 1.400 1_455 S
C502 C505 1.386 . S
H503 C519 0.930 . S
H504 C520 0.931 . S
C505 H493 0.929 . S
C505 C499 1.390 1_455 S
C505 C502 1.386 . S
C506 C501 1.490 . S
C506 C508 1.395 1_655 S
C506 C509 1.403 . S
H507 C513 0.930 . S
C508 H494 0.930 . S
C508 C506 1.395 1_455 S
C508 C511 1.403 . S
C509 C506 1.403 . S
C509 C510 1.524 . S
C509 C513 1.400 . S
C510 H495 0.960 . S
C510 H496 0.960 . S
C510 H497 0.960 . S
C510 C509 1.524 . S
C511 C508 1.403 . S
C511 C512 1.392 . S
C511 C515 1.495 . S
C512 C511 1.392 . S
C512 C513 1.385 1_455 S
C512 C514 1.478 . S
C513 H507 0.930 . S
C513 C509 1.400 . S
C513 C512 1.385 1_655 S
C514 C512 1.478 . S
C514 C516 1.381 1_455 S
C514 C520 1.383 . S
C515 C511 1.495 . S
C515 H521 0.959 . S
C515 H522 0.961 . S
C515 H523 0.960 1_455 S
C516 C514 1.381 1_655 S
C516 C517 1.394 . S
C516 H524 0.930 . S
C517 C516 1.394 . S
C517 C518 1.383 1_655 S
C517 H525 0.929 . S
C518 C517 1.383 1_455 S
C518 C519 1.377 . S
C519 H503 0.930 . S
C519 C518 1.377 . S
C519 C520 1.379 . S
C520 H504 0.931 . S
C520 C514 1.383 . S
C520 C519 1.379 . S
H521 C515 0.959 . S
H522 C515 0.961 . S
H523 C515 0.960 1_655 S
H524 C516 0.930 . S
H525 C517 0.929 . S
H526 C534 0.929 . S
H527 C536 0.930 . S
H528 C538 0.930 . S
H529 C541 0.929 . S
H530 C544 0.930 . S
H531 C546 0.960 . S
H532 C546 0.960 . S
H533 C546 0.960 . S
C534 H526 0.929 . S
C534 C535 1.377 1_565 S
C534 C536 1.384 . S
C535 C534 1.377 1_545 S
C535 C541 1.390 . S
C536 H527 0.930 . S
C536 C534 1.384 . S
C536 C537 1.372 1_565 S
C537 C536 1.372 1_545 S
C537 C538 1.400 . S
C537 C542 1.490 . S
C538 H528 0.930 . S
C538 C537 1.400 . S
C538 C541 1.386 . S
H539 C555 0.930 . S
H540 C556 0.931 . S
C541 H529 0.929 . S
C541 C535 1.390 . S
C541 C538 1.386 . S
C542 C537 1.490 . S
C542 C544 1.395 . S
C542 C545 1.403 1_545 S
H543 C549 0.930 . S
C544 H530 0.930 . S
C544 C542 1.395 . S
C544 C547 1.403 . S
C545 C542 1.403 1_565 S
C545 C546 1.524 . S
C545 C549 1.400 . S
C546 H531 0.960 . S
C546 H532 0.960 . S
C546 H533 0.960 . S
C546 C545 1.524 . S
C547 C544 1.403 . S
C547 C548 1.392 . S
C547 C551 1.495 . S
C548 C547 1.392 . S
C548 C549 1.385 1_545 S
C548 C550 1.478 . S
C549 H543 0.930 . S
C549 C545 1.400 . S
C549 C548 1.385 1_565 S
C550 C548 1.478 . S
C550 C552 1.368 1_545 S
C550 C556 1.383 . S
C551 C547 1.495 . S
C551 H557 0.959 . S
C551 H558 0.961 . S
C551 H559 0.960 . S
C552 C550 1.368 1_565 S
C552 C553 1.396 . S
C552 H560 0.942 . S
C553 C552 1.396 . S
C553 C554 1.383 1_565 S
C553 H561 0.929 . S
C554 C553 1.383 1_545 S
C554 C555 1.377 . S
C555 H539 0.930 . S
C555 C554 1.377 . S
C555 C556 1.379 . S
C556 H540 0.931 . S
C556 C550 1.383 . S
C556 C555 1.379 . S
H557 C551 0.959 . S
H558 C551 0.961 . S
H559 C551 0.960 . S
H560 C552 0.942 . S
H561 C553 0.929 . S
H562 C570 0.929 . S
H563 C572 0.930 . S
H564 C574 0.930 . S
H565 C577 0.929 . S
H566 C580 0.930 . S
H567 C582 0.960 . S
H568 C582 0.960 . S
H569 C582 0.960 . S
C570 H562 0.929 . S
C570 C571 1.377 1_556 S
C570 C572 1.384 . S
C571 C570 1.377 1_554 S
C571 C577 1.390 . S
C572 H563 0.930 . S
C572 C570 1.384 . S
C572 C573 1.372 1_556 S
C573 C572 1.372 1_554 S
C573 C574 1.400 . S
C573 C578 1.490 . S
C574 H564 0.930 . S
C574 C573 1.400 . S
C574 C577 1.386 . S
H575 C591 0.930 . S
H576 C592 0.931 . S
C577 H565 0.929 . S
C577 C571 1.390 . S
C577 C574 1.386 . S
C578 C573 1.490 . S
C578 C580 1.395 . S
C578 C581 1.403 1_554 S
H579 C585 0.935 . S
C580 H566 0.930 . S
C580 C578 1.395 . S
C580 C583 1.403 . S
C581 C578 1.403 1_556 S
C581 C582 1.524 . S
C581 C585 1.402 . S
C582 H567 0.960 . S
C582 H568 0.960 . S
C582 H569 0.960 . S
C582 C581 1.524 . S
C583 C580 1.403 . S
C583 C584 1.392 . S
C583 C587 1.495 . S
C584 C583 1.392 . S
C584 C585 1.379 1_554 S
C584 C586 1.478 . S
C585 H579 0.935 . S
C585 C581 1.402 . S
C585 C584 1.379 1_556 S
C586 C584 1.478 . S
C586 C588 1.381 1_554 S
C586 C592 1.383 . S
C587 C583 1.495 . S
C587 H593 0.959 . S
C587 H594 0.961 . S
C587 H595 0.960 . S
C588 C586 1.381 1_556 S
C588 C589 1.394 . S
C588 H596 0.930 . S
C589 C588 1.394 . S
C589 C590 1.383 1_556 S
C589 H597 0.929 . S
C590 C589 1.383 1_554 S
C590 C591 1.377 . S
C591 H575 0.930 . S
C591 C590 1.377 . S
C591 C592 1.379 . S
C592 H576 0.931 . S
C592 C586 1.383 . S
C592 C591 1.379 . S
H593 C587 0.959 . S
H594 C587 0.961 . S
H595 C587 0.960 . S
H596 C588 0.930 . S
H597 C589 0.929 . S
H598 C606 0.929 . S
H599 C608 0.930 . S
H600 C610 0.930 1_556 S
H601 C613 0.929 1_556 S
H602 C616 0.930 . S
H603 C618 0.960 . S
H604 C618 0.960 . S
H605 C618 0.960 . S
C606 H598 0.929 . S
C606 C607 1.377 . S
C606 C608 1.384 . S
C607 C606 1.377 . S
C607 C613 1.390 . S
C608 H599 0.930 . S
C608 C606 1.384 . S
C608 C609 1.372 . S
C609 C608 1.372 . S
C609 C610 1.400 . S
C609 C614 1.490 . S
C610 H600 0.930 1_554 S
C610 C609 1.400 . S
C610 C613 1.386 . S
H611 C627 0.930 . S
H612 C628 0.931 . S
C613 H601 0.929 1_554 S
C613 C607 1.390 . S
C613 C610 1.386 . S
C614 C609 1.490 . S
C614 C616 1.395 . S
C614 C617 1.403 . S
H615 C621 0.930 . S
C616 H602 0.930 . S
C616 C614 1.395 . S
C616 C619 1.403 . S
C617 C614 1.403 . S
C617 C618 1.524 . S
C617 C621 1.400 . S
C618 H603 0.960 . S
C618 H604 0.960 . S
C618 H605 0.960 . S
C618 C617 1.524 . S
C619 C616 1.403 . S
C619 C620 1.392 . S
C619 C623 1.495 1_554 S
C620 C619 1.392 . S
C620 C621 1.385 . S
C620 C622 1.478 . S
C621 H615 0.930 . S
C621 C617 1.400 . S
C621 C620 1.385 . S
C622 C620 1.478 . S
C622 C624 1.381 . S
C622 C628 1.383 1_554 S
C623 C619 1.495 1_556 S
C623 H629 0.959 . S
C623 H630 0.961 . S
C623 H631 0.960 1_556 S
C624 C622 1.381 . S
C624 C625 1.394 . S
C624 H632 0.930 . S
C625 C624 1.394 . S
C625 C626 1.383 . S
C625 H633 0.929 . S
C626 C625 1.383 . S
C626 C627 1.377 1_554 S
C627 H611 0.930 . S
C627 C626 1.377 1_556 S
C627 C628 1.379 . S
C628 H612 0.931 . S
C628 C622 1.383 1_556 S
C628 C627 1.379 . S
H629 C623 0.959 . S
H630 C623 0.961 . S
H631 C623 0.960 1_554 S
H632 C624 0.930 . S
H633 C625 0.929 . S
H634 C642 0.929 . S
H635 C644 0.930 . S
H636 C646 0.930 . S
H637 C649 0.929 . S
H638 C652 0.930 . S
H639 C654 0.960 . S
H640 C654 0.960 . S
H641 C654 0.960 . S
C642 H634 0.929 . S
C642 C643 1.377 . S
C642 C644 1.384 . S
C643 C642 1.377 . S
C643 C649 1.390 . S
C644 H635 0.930 . S
C644 C642 1.384 . S
C644 C645 1.372 . S
C645 C644 1.372 . S
C645 C646 1.400 . S
C645 C650 1.490 . S
C646 H636 0.930 . S
C646 C645 1.400 . S
C646 C649 1.386 . S
H647 C663 0.930 . S
H648 C664 0.931 . S
C649 H637 0.929 . S
C649 C643 1.390 . S
C649 C646 1.386 . S
C650 C645 1.490 . S
C650 C652 1.395 1_554 S
C650 C653 1.403 . S
H651 C657 0.930 . S
C652 H638 0.930 . S
C652 C650 1.395 1_556 S
C652 C655 1.403 . S
C653 C650 1.403 . S
C653 C654 1.524 . S
C653 C657 1.400 . S
C654 H639 0.960 . S
C654 H640 0.960 . S
C654 H641 0.960 . S
C654 C653 1.524 . S
C655 C652 1.403 . S
C655 C656 1.392 1_556 S
C655 C659 1.495 . S
C656 C655 1.392 1_554 S
C656 C657 1.385 . S
C656 C658 1.478 . S
C657 H651 0.930 . S
C657 C653 1.400 . S
C657 C656 1.385 . S
C658 C656 1.478 . S
C658 C660 1.381 . S
C658 C664 1.383 . S
C659 C655 1.495 . S
C659 H665 0.959 . S
C659 H666 0.961 . S
C659 H667 0.960 . S
C660 C658 1.381 . S
C660 C661 1.394 . S
C660 H668 0.930 . S
C661 C660 1.394 . S
C661 C662 1.383 . S
C661 H669 0.929 . S
C662 C661 1.383 . S
C662 C663 1.377 . S
C663 H647 0.930 . S
C663 C662 1.377 . S
C663 C664 1.379 . S
C664 H648 0.931 . S
C664 C658 1.383 . S
C664 C663 1.379 . S
H665 C659 0.959 . S
H666 C659 0.961 . S
H667 C659 0.960 . S
H668 C660 0.930 . S
H669 C661 0.929 . S
H670 C678 0.929 . S
H671 C680 0.930 . S
H672 C682 0.930 . S
H673 C685 0.929 . S
H674 C688 0.930 . S
H675 C690 0.960 . S
H676 C690 0.960 . S
H677 C690 0.948 1_554 S
C678 H670 0.929 . S
C678 C679 1.377 1_556 S
C678 C680 1.384 . S
C679 C678 1.377 1_554 S
C679 C685 1.390 . S
C680 H671 0.930 . S
C680 C678 1.384 . S
C680 C681 1.372 1_556 S
C681 C680 1.372 1_554 S
C681 C682 1.400 . S
C681 C686 1.490 . S
C682 H672 0.930 . S
C682 C681 1.400 . S
C682 C685 1.386 . S
H683 C699 0.930 . S
H684 C700 0.931 . S
C685 H673 0.929 . S
C685 C679 1.390 . S
C685 C682 1.386 . S
C686 C681 1.490 . S
C686 C688 1.395 . S
C686 C689 1.403 1_554 S
H687 C693 0.926 1_556 S
C688 H674 0.930 . S
C688 C686 1.395 . S
C688 C691 1.403 . S
C689 C686 1.403 1_556 S
C689 C690 1.524 . S
C689 C693 1.398 1_556 S
C690 H675 0.960 . S
C690 H676 0.960 . S
C690 H677 0.948 1_556 S
C690 C689 1.524 . S
C691 C688 1.403 . S
C691 C692 1.392 . S
C691 C695 1.495 . S
C692 C691 1.392 . S
C692 C693 1.392 . S
C692 C694 1.478 . S
C693 H687 0.926 1_554 S
C693 C689 1.398 1_554 S
C693 C692 1.392 . S
C694 C692 1.478 . S
C694 C696 1.381 1_554 S
C694 C700 1.383 . S
C695 C691 1.495 . S
C695 H701 0.959 . S
C695 H702 0.961 . S
C695 H703 0.960 . S
C696 C694 1.381 1_556 S
C696 C697 1.394 . S
C696 H704 0.930 . S
C697 C696 1.394 . S
C697 C698 1.383 1_556 S
C697 H705 0.929 . S
C698 C697 1.383 1_554 S
C698 C699 1.377 . S
C699 H683 0.930 . S
C699 C698 1.377 . S
C699 C700 1.379 . S
C700 H684 0.931 . S
C700 C694 1.383 . S
C700 C699 1.379 . S
H701 C695 0.959 . S
H702 C695 0.961 . S
H703 C695 0.960 . S
H704 C696 0.930 . S
H705 C697 0.929 . S
C302 C258 1.689 . S
C283 C39 1.707 . S
C338 C254 1.876 . S
C319 C113 1.823 . S
C374 C264 2.215 . S
C355 C69 2.332 . S
C410 C248 0.959 1_565 S
C391 C125 0.941 . S
C427 C63 1.901 . S
C446 C240 1.924 . S
C482 C272 1.789 1_565 S
C463 C137 1.831 . S
C499 C51 1.078 . S
C518 C226 1.057 . S
C535 C143 2.483 . S
C554 C270 2.392 . S
C571 C187 0.977 . S
C590 C252 0.986 . S
C607 C217 1.596 . S
C626 C267 1.580 . S
C662 C261 0.360 . S
C643 C199 0.181 . S
C698 C256 1.022 . S
C679 C211 1.043 . S
