# Generated by pormake.
# Topology zzz, (3,6)-cn, num edge types: 1
# Building blocks:
#     Node 0, Type 0, BuildingBlock: VETTIZ_charged_linker_0, # of connection points: 3
#     Node 1, Type 0, BuildingBlock: VETTIZ_charged_linker_0, # of connection points: 3
#     Node 2, Type 0, BuildingBlock: VETTIZ_charged_linker_0, # of connection points: 3
#     Node 3, Type 0, BuildingBlock: VETTIZ_charged_linker_0, # of connection points: 3
#     Node 4, Type 0, BuildingBlock: VETTIZ_charged_linker_0, # of connection points: 3
#     Node 5, Type 0, BuildingBlock: VETTIZ_charged_linker_0, # of connection points: 3
#     Node 6, Type 0, BuildingBlock: VETTIZ_charged_linker_0, # of connection points: 3
#     Node 7, Type 0, BuildingBlock: VETTIZ_charged_linker_0, # of connection points: 3
#     Node 8, Type 1, BuildingBlock: PAMTUU_clean_sbu_0, # of connection points: 6
#     Node 9, Type 1, BuildingBlock: PAMTUU_clean_sbu_0, # of connection points: 6
#     Node 10, Type 1, BuildingBlock: PAMTUU_clean_sbu_0, # of connection points: 6
#     Node 11, Type 1, BuildingBlock: PAMTUU_clean_sbu_0, # of connection points: 6
#     Edge 12, Type (0, 1), BuildingBlock: OJICUG_clean_linker_0, # of connection points: 2
#     Edge 13, Type (0, 1), BuildingBlock: OJICUG_clean_linker_0, # of connection points: 2
#     Edge 14, Type (0, 1), BuildingBlock: OJICUG_clean_linker_0, # of connection points: 2
#     Edge 15, Type (0, 1), BuildingBlock: OJICUG_clean_linker_0, # of connection points: 2
#     Edge 16, Type (0, 1), BuildingBlock: OJICUG_clean_linker_0, # of connection points: 2
#     Edge 17, Type (0, 1), BuildingBlock: OJICUG_clean_linker_0, # of connection points: 2
#     Edge 18, Type (0, 1), BuildingBlock: OJICUG_clean_linker_0, # of connection points: 2
#     Edge 19, Type (0, 1), BuildingBlock: OJICUG_clean_linker_0, # of connection points: 2
#     Edge 20, Type (0, 1), BuildingBlock: OJICUG_clean_linker_0, # of connection points: 2
#     Edge 21, Type (0, 1), BuildingBlock: OJICUG_clean_linker_0, # of connection points: 2
#     Edge 22, Type (0, 1), BuildingBlock: OJICUG_clean_linker_0, # of connection points: 2
#     Edge 23, Type (0, 1), BuildingBlock: OJICUG_clean_linker_0, # of connection points: 2
#     Edge 24, Type (0, 1), BuildingBlock: OJICUG_clean_linker_0, # of connection points: 2
#     Edge 25, Type (0, 1), BuildingBlock: OJICUG_clean_linker_0, # of connection points: 2
#     Edge 26, Type (0, 1), BuildingBlock: OJICUG_clean_linker_0, # of connection points: 2
#     Edge 27, Type (0, 1), BuildingBlock: OJICUG_clean_linker_0, # of connection points: 2
#     Edge 28, Type (0, 1), BuildingBlock: OJICUG_clean_linker_0, # of connection points: 2
#     Edge 29, Type (0, 1), BuildingBlock: OJICUG_clean_linker_0, # of connection points: 2
#     Edge 30, Type (0, 1), BuildingBlock: OJICUG_clean_linker_0, # of connection points: 2
#     Edge 31, Type (0, 1), BuildingBlock: OJICUG_clean_linker_0, # of connection points: 2
#     Edge 32, Type (0, 1), BuildingBlock: OJICUG_clean_linker_0, # of connection points: 2
#     Edge 33, Type (0, 1), BuildingBlock: OJICUG_clean_linker_0, # of connection points: 2
#     Edge 34, Type (0, 1), BuildingBlock: OJICUG_clean_linker_0, # of connection points: 2
#     Edge 35, Type (0, 1), BuildingBlock: OJICUG_clean_linker_0, # of connection points: 2
# Relax obj value: 0.429
# Max RMSD: 0.292
# Mean RMSD: 0.222
data_MOF--net-zzz--node1-PAMTUU_clean_sbu_0--node2-VETTIZ_charged_linker_0--edge1-OJICUG_clean_linker_0
_symmetry_space_group_name_H-M    P1
_symmetry_Int_Tables_number       1
_symmetry_cell_setting            triclinic
loop_
_symmetry_equiv_pos_as_xyz
'x, y, z'
_cell_length_a     43.946493
_cell_length_b     47.939519
_cell_length_c     16.461414
_cell_angle_alpha  100.90748
_cell_angle_beta   89.996134
_cell_angle_gamma 88.8186
loop_
_atom_site_label
_atom_site_type_symbol
_atom_site_fract_x
_atom_site_fract_y
_atom_site_fract_z
_atom_type_partial_charge
C0 C 0.8402 0.52902 0.50887 0.0
C1 C 0.86799 0.54309 0.53772 0.0
C2 C 0.8762 0.56661 0.50274 0.0
C3 C 0.83449 0.55923 0.40667 0.0
C4 C 0.82308 0.53829 0.4438 0.0
C5 C 0.79138 0.53006 0.40604 0.0
H6 H 0.68321 0.56521 0.12342 0.0
C7 C 0.81431 0.56468 0.34105 0.0
C8 C 0.78715 0.54983 0.34199 0.0
H9 H 0.67376 0.4953 0.25109 0.0
H10 H 0.72234 0.50826 0.32499 0.0
H11 H 0.71693 0.61264 0.25481 0.0
H12 H 0.73297 0.5477 0.05421 0.0
H13 H 0.77141 0.5553 0.07236 0.0
H14 H 0.74504 0.58147 0.04353 0.0
H15 H 0.71153 0.61104 0.14571 0.0
H16 H 0.74636 0.62387 0.19601 0.0
C17 C 0.76679 0.53605 0.47374 0.0
C18 C 0.79233 0.49865 0.3633 0.0
C19 C 0.85639 0.57885 0.07272 0.0
C20 C 0.83995 0.58166 1.00107 0.0
C21 C 0.81249 0.59754 0.0097 0.0
C22 C 0.79879 0.60517 0.08784 0.0
C23 C 0.81171 0.59462 0.15415 0.0
C24 C 0.84149 0.58504 0.14937 0.0
C25 C 0.85174 0.57677 0.22897 0.0
C26 C 0.8213 0.57879 0.27591 0.0
C27 C 0.79769 0.58617 0.22683 0.0
C28 C 0.87565 0.5983 0.26844 0.0
C29 C 0.86509 0.54609 0.21283 0.0
C30 C 0.69098 0.55246 0.16744 0.0
C31 C 0.67442 0.52896 0.17922 0.0
C32 C 0.6859 0.51354 0.2392 0.0
C33 C 0.71411 0.52087 0.28158 0.0
C34 C 0.73143 0.54342 0.26271 0.0
C35 C 0.7194 0.55814 0.20478 0.0
C36 C 0.74166 0.5771 0.17584 0.0
C37 C 0.76859 0.57403 0.2313 0.0
C38 C 0.76314 0.5545 0.28464 0.0
C39 C 0.72846 0.60785 0.19341 0.0
C40 C 0.74827 0.56506 0.08218 0.0
H41 H 0.86428 0.5949 0.42192 0.0
H42 H 0.83195 0.51194 0.53695 0.0
H43 H 0.81086 0.49465 0.31623 0.0
H44 H 0.77064 0.49245 0.33151 0.0
H45 H 0.79659 0.48476 0.40922 0.0
H46 H 0.76704 0.55872 0.50514 0.0
H47 H 0.77082 0.52262 0.52097 0.0
H48 H 0.74384 0.53156 0.44723 0.0
H49 H 0.87811 0.56757 0.06745 0.0
H50 H 0.79998 0.60085 0.95553 0.0
H51 H 0.77714 0.61613 0.09256 0.0
H52 H 0.89075 0.60424 0.22047 0.0
H53 H 0.8912 0.58907 0.30981 0.0
H54 H 0.86457 0.6181 0.30277 0.0
H55 H 0.8485 0.53096 0.17899 0.0
H56 H 0.87083 0.53924 0.27177 0.0
H57 H 0.88644 0.5445 0.17603 0.0
H58 H 0.89615 0.57875 0.52389 0.0
C59 C 0.85909 0.57518 0.44026 0.0
C60 C 0.11049 0.78735 0.08094 0.0
C61 C 0.10407 0.81215 0.04947 0.0
C62 C 0.0752 0.82554 0.06323 0.0
C63 C 0.063 0.79479 0.15712 0.0
C64 C 0.08864 0.77832 0.13238 0.0
C65 C 0.08841 0.75102 0.16564 0.0
H66 H 0.98218 0.67069 0.2748 0.0
C67 C 0.04725 0.78317 0.22063 0.0
C68 C 0.0607 0.75663 0.22349 0.0
H69 H 0.06918 0.64425 0.15925 0.0
H70 H 0.0886 0.69189 0.20879 0.0
H71 H 0.02043 0.72323 0.46053 0.0
H72 H 0.97396 0.73715 0.23711 0.0
H73 H 0.96062 0.75466 0.33776 0.0
H74 H 0.95506 0.71722 0.30422 0.0
H75 H 0.98632 0.70373 0.43048 0.0
H76 H 0.98366 0.74126 0.46578 0.0
C77 C 0.11793 0.74811 0.21415 0.0
C78 C 0.08414 0.72591 0.09191 0.0
C79 C 1.00376 0.85285 0.45956 0.0
C80 C 1.00228 0.8509 0.54361 0.0
C81 C 1.00466 0.8236 0.56459 0.0
C82 C 1.00807 0.7989 0.50235 0.0
C83 C 1.00903 0.80163 0.41892 0.0
C84 C 1.0087 0.82841 0.39919 0.0
C85 C 1.018 0.82773 0.31069 0.0
C86 C 0.02721 0.79642 0.28444 0.0
C87 C 1.01842 0.78104 0.3444 0.0
C88 C 0.04476 0.84818 0.30796 0.0
C89 C 0.98963 0.83562 0.26395 0.0
C90 C 1.00541 0.67516 0.26044 0.0
C91 C 0.02386 0.65415 0.21032 0.0
C92 C 0.05435 0.6603 0.19523 0.0
C93 C 0.06528 0.68775 0.22085 0.0
C94 C 0.0455 0.70907 0.26105 0.0
C95 C 1.01733 0.70245 0.28821 0.0
C96 C 1.00205 0.72848 0.34027 0.0
C97 C 0.02509 0.75151 0.33331 0.0
C98 C 0.0485 0.73995 0.27798 0.0
C99 C 0.99802 0.72401 0.42961 0.0
C100 C 0.9711 0.73471 0.30252 0.0
H101 H 0.03267 0.82728 0.12561 0.0
H102 H 0.13194 0.77588 0.06744 0.0
H103 H 0.09039 0.73159 0.03171 0.0
H104 H 0.06011 0.71906 0.08655 0.0
H105 H 0.09908 0.70741 0.09673 0.0
H106 H 0.1219 0.76785 0.26029 0.0
H107 H 0.13784 0.74414 0.17162 0.0
H108 H 0.11674 0.73038 0.24837 0.0
H109 H 1.00314 0.87342 0.44152 0.0
H110 H 1.00454 0.82144 0.62888 0.0
H111 H 1.01187 0.77859 0.52008 0.0
H112 H 0.04088 0.86905 0.34918 0.0
H113 H 0.04781 0.85356 0.24643 0.0
H114 H 0.06639 0.83892 0.32714 0.0
H115 H 0.96948 0.82377 0.27872 0.0
H116 H 0.99245 0.83027 0.19626 0.0
H117 H 0.98421 0.85872 0.28177 0.0
H118 H 0.06953 0.84408 0.03697 0.0
C119 C 0.05439 0.8166 0.11618 0.0
C120 C 0.86076 0.01254 0.22177 0.0
C121 C 0.86609 0.01195 0.13503 0.0
C122 C 0.84018 0.0105 0.0836 0.0
C123 C 0.80812 1.0001 0.19216 0.0
C124 C 0.8306 0.00763 0.24954 0.0
C125 C 0.81742 0.00663 0.33595 0.0
H126 H 0.69381 0.9547 0.52843 0.0
C127 C 0.7828 0.98769 0.22995 0.0
C128 C 0.7848 0.99543 0.31649 0.0
H129 H 0.70727 0.04512 0.57016 0.0
H130 H 0.75083 0.03731 0.47072 0.0
H131 H 0.69803 0.94241 0.29328 0.0
H132 H 0.76801 0.92848 0.46958 0.0
H133 H 0.75757 0.90215 0.38365 0.0
H134 H 0.73198 0.91132 0.47051 0.0
H135 H 0.68173 0.94309 0.391 0.0
H136 H 0.69848 0.9112 0.34122 0.0
C137 C 0.81632 0.03651 0.3898 0.0
C138 C 0.83653 0.9861 0.37764 0.0
C139 C 0.72324 0.91014 0.05696 0.0
C140 C 0.70064 0.8946 0.08859 0.0
C141 C 0.70864 0.88241 0.15753 0.0
C142 C 0.73207 0.89446 0.20989 0.0
C143 C 0.74611 0.91853 0.19178 0.0
C144 C 0.74457 0.92398 0.11268 0.0
C145 C 0.761 0.95056 0.10461 0.0
C146 C 0.76922 0.96164 0.1948 0.0
C147 C 0.75906 0.94336 0.24581 0.0
C148 C 0.73874 0.97139 0.07202 0.0
C149 C 0.78898 0.94183 0.0475 0.0
C150 C 0.70588 0.97314 0.51771 0.0
C151 C 0.69621 0.00048 0.55732 0.0
C152 C 0.71382 0.0236 0.54165 0.0
C153 C 0.73899 0.01922 0.48471 0.0
C154 C 0.74657 0.99155 0.44204 0.0
C155 C 0.72888 0.9694 0.45679 0.0
C156 C 0.73307 0.94324 0.39097 0.0
C157 C 0.7548 0.95397 0.33171 0.0
C158 C 0.76593 0.98096 0.36642 0.0
C159 C 0.7015 0.93446 0.35176 0.0
C160 C 0.7484 0.91989 0.43063 0.0
H161 H 0.7928 0.00312 0.06925 0.0
H162 H 0.87944 0.01543 0.26515 0.0
H163 H 0.83736 0.96452 0.33827 0.0
H164 H 0.82652 0.98446 0.43852 0.0
H165 H 0.86021 0.99365 0.38798 0.0
H166 H 0.80193 0.05114 0.3604 0.0
H167 H 0.83957 0.04527 0.3983 0.0
H168 H 0.80668 0.03585 0.45177 0.0
H169 H 0.71969 0.91758 0.99952 0.0
H170 H 0.69334 0.86801 0.17952 0.0
H171 H 0.73608 0.88712 0.26671 0.0
H172 H 0.71586 0.97135 0.10103 0.0
H173 H 0.73609 0.96543 1.00385 0.0
H174 H 0.74622 0.99362 0.0872 0.0
H175 H 0.78457 0.92237 1.00065 0.0
H176 H 0.80928 0.93732 0.08357 0.0
H177 H 0.79466 0.95807 0.01076 0.0
H178 H 0.84221 0.01281 0.01964 0.0
C179 C 0.81155 0.00447 0.11148 0.0
C180 C 0.55482 0.77214 0.48939 0.0
C181 C 0.574 0.75137 0.51627 0.0
C182 C 0.60235 0.74425 0.47616 0.0
C183 C 0.58618 0.76835 0.36867 0.0
C184 C 0.56289 0.78191 0.41656 0.0
C185 C 0.54687 0.80265 0.37021 0.0
H186 H 0.5274 0.84197 0.99526 0.0
C187 C 0.58151 0.7717 0.28402 0.0
C188 C 0.56408 0.79662 0.28674 0.0
H189 H 0.55459 0.90189 0.21223 0.0
H190 H 0.56273 0.86237 0.28701 0.0
H191 H 0.58015 0.80125 1.00194 0.0
H192 H 0.48987 0.79523 0.10088 0.0
H193 H 0.50199 0.7616 0.04735 0.0
H194 H 0.49727 0.79032 0.99177 0.0
H195 H 0.54778 0.79247 0.936 0.0
H196 H 0.56867 0.76566 0.97729 0.0
C197 C 0.55067 0.83324 0.41721 0.0
C198 C 0.5129 0.79556 0.35869 0.0
C199 C 0.55434 0.6772 0.11093 0.0
C200 C 0.5376 0.66962 0.03778 0.0
C201 C 0.53199 0.69041 0.98887 0.0
C202 C 0.54079 0.71861 0.01607 0.0
C203 C 0.55529 0.72613 0.09294 0.0
C204 C 0.56293 0.70533 0.13739 0.0
C205 C 0.57759 0.71699 0.21877 0.0
C206 C 0.57707 0.74879 0.21655 0.0
C207 C 0.56261 0.75385 0.14425 0.0
C208 C 0.61007 0.70415 0.21896 0.0
C209 C 0.55751 0.70957 0.28897 0.0
C210 C 0.53352 0.847 0.06004 0.0
C211 C 0.53924 0.87521 0.09848 0.0
C212 C 0.54921 0.88051 0.1818 0.0
C213 C 0.55307 0.8581 0.22579 0.0
C214 C 0.54635 0.83037 0.18658 0.0
C215 C 0.53798 0.82496 0.1042 0.0
C216 C 0.53859 0.79355 0.06839 0.0
C217 C 0.55202 0.78171 0.14023 0.0
C218 C 0.5536 0.80305 0.21089 0.0
C219 C 0.55972 0.78773 0.99146 0.0
C220 C 0.50531 0.78448 0.05044 0.0
H221 H 0.62913 0.74566 0.36723 0.0
H222 H 0.53357 0.77898 0.52089 0.0
H223 H 0.51018 0.77315 0.32678 0.0
H224 H 0.50158 0.8096 0.32078 0.0
H225 H 0.50102 0.79865 0.41942 0.0
H226 H 0.57486 0.83957 0.4167 0.0
H227 H 0.54325 0.8352 0.48265 0.0
H228 H 0.53635 0.84828 0.38948 0.0
H229 H 0.55921 0.66188 0.14987 0.0
H230 H 0.5203 0.68506 0.93027 0.0
H231 H 0.53548 0.73359 0.97702 0.0
H232 H 0.62562 0.71396 0.17963 0.0
H233 H 0.61023 0.68086 0.19493 0.0
H234 H 0.6195 0.70668 0.28193 0.0
H235 H 0.553 0.68652 0.27961 0.0
H236 H 0.53526 0.72121 0.29255 0.0
H237 H 0.56851 0.71447 0.34985 0.0
H238 H 0.61803 0.72939 0.4971 0.0
C239 C 0.60849 0.75268 0.40119 0.0
C240 C 0.35249 0.50189 0.45139 0.0
C241 C 0.37486 0.48527 0.48622 0.0
C242 C 0.37382 0.45537 0.46348 0.0
C243 C 0.32496 0.4592 0.40094 0.0
C244 C 0.3279 0.48772 0.40453 0.0
C245 C 0.29986 0.49866 0.36226 0.0
H246 H 0.15151 0.46562 0.23068 0.0
C247 C 0.29369 0.45135 0.3819 0.0
C248 C 0.27979 0.47185 0.34248 0.0
H249 H 0.21128 0.51053 0.09441 0.0
H250 H 0.25398 0.5018 0.18504 0.0
H251 H 0.19669 0.4146 0.23463 0.0
H252 H 0.16754 0.4884 0.39791 0.0
H253 H 0.18875 0.47225 0.46801 0.0
H254 H 0.15584 0.45501 0.41691 0.0
H255 H 0.16085 0.42183 0.28792 0.0
H256 H 0.19223 0.40543 0.33292 0.0
C257 C 0.31009 0.50897 0.28393 0.0
C258 C 0.28338 0.52265 0.42257 0.0
C259 C 0.24392 0.4266 0.63036 0.0
C260 C 0.21335 0.43269 0.65261 0.0
C261 C 0.19111 0.42605 0.59061 0.0
C262 C 0.19959 0.42191 0.5072 0.0
C263 C 0.2302 0.42506 0.48731 0.0
C264 C 0.25224 0.42468 0.54703 0.0
C265 C 0.2834 0.43015 0.51614 0.0
C266 C 0.27552 0.43657 0.43028 0.0
C267 C 0.24406 0.43517 0.4168 0.0
C268 C 0.3033 0.40302 0.51256 0.0
C269 C 0.29705 0.45607 0.57501 0.0
C270 C 0.17347 0.4741 0.21984 0.0
C271 C 0.1774 0.48884 0.15445 0.0
C272 C 0.20693 0.49957 0.14487 0.0
C273 C 0.2316 0.49502 0.19797 0.0
C274 C 0.22673 0.48041 0.26338 0.0
C275 C 0.198 0.46975 0.27143 0.0
C276 C 0.19695 0.45176 0.33657 0.0
C277 C 0.23032 0.45076 0.36051 0.0
C278 C 0.24782 0.46906 0.3223 0.0
C279 C 0.18593 0.4218 0.29643 0.0
C280 C 0.17627 0.46744 0.40855 0.0
H281 H 0.34776 0.41936 0.40609 0.0
H282 H 0.35324 0.52484 0.46416 0.0
H283 H 0.27694 0.5153 0.48025 0.0
H284 H 0.2623 0.52952 0.39398 0.0
H285 H 0.29824 0.54133 0.43925 0.0
H286 H 0.31713 0.49074 0.23478 0.0
H287 H 0.32971 0.52336 0.29785 0.0
H288 H 0.29168 0.52132 0.26025 0.0
H289 H 0.26101 0.42956 0.67829 0.0
H290 H 0.16711 0.42879 0.60571 0.0
H291 H 0.18183 0.41936 0.46204 0.0
H292 H 0.29846 0.39267 0.56606 0.0
H293 H 0.32782 0.40776 0.51696 0.0
H294 H 0.29902 0.38735 0.45494 0.0
H295 H 0.28273 0.47549 0.57548 0.0
H296 H 0.3204 0.46058 0.55832 0.0
H297 H 0.29916 0.45237 0.6392 0.0
H298 H 0.39119 0.44211 0.48478 0.0
C299 C 0.34899 0.44225 0.42012 0.0
C300 C 0.88907 0.23709 0.56274 0.0
C301 C 0.87683 0.20979 0.53908 0.0
C302 C 0.87566 0.1977 0.454 0.0
C303 C 0.90791 0.23447 0.42334 0.0
C304 C 0.9046 0.24907 0.50349 0.0
C305 C 0.92216 0.27627 0.51764 0.0
H306 H 0.04525 0.34616 0.42627 0.0
C307 C 0.93266 0.24736 0.38387 0.0
C308 C 0.94083 0.27225 0.43759 0.0
H309 H 0.97129 0.37707 0.59479 0.0
H310 H 0.94384 0.33424 0.54628 0.0
H311 H 0.04251 0.27705 0.44921 0.0
H312 H 0.01999 0.28654 0.22037 0.0
H313 H 0.03944 0.31692 0.27537 0.0
H314 H 0.99872 0.31766 0.26407 0.0
H315 H 0.06445 0.29159 0.37554 0.0
H316 H 0.04766 0.25717 0.34812 0.0
C317 C 0.94262 0.27745 0.5947 0.0
C318 C 0.8989 0.30151 0.52552 0.0
C319 C 0.98572 0.18329 0.14547 0.0
C320 C 1.01469 0.18233 0.10986 0.0
C321 C 0.03457 0.20493 0.13747 0.0
C322 C 0.02519 0.22829 0.19933 0.0
C323 C 0.99598 0.22859 0.23525 0.0
C324 C 0.97716 0.20592 0.20832 0.0
C325 C 0.94824 0.20748 0.25686 0.0
C326 C 0.95217 0.23519 0.31732 0.0
C327 C 0.97986 0.24808 0.30418 0.0
C328 C 0.94724 0.18112 0.29979 0.0
C329 C 0.92136 0.2097 0.19737 0.0
C330 C 0.02313 0.34347 0.45233 0.0
C331 C 1.01038 0.3648 0.51503 0.0
C332 C 0.98147 0.36088 0.54699 0.0
C333 C 0.96563 0.33601 0.51937 0.0
C334 C 0.97879 0.3145 0.45966 0.0
C335 C 1.00652 0.31851 0.42442 0.0
C336 C 1.01497 0.29342 0.35646 0.0
C337 C 0.98716 0.27465 0.35569 0.0
C338 C 0.96692 0.28693 0.41937 0.0
C339 C 0.04406 0.27898 0.38305 0.0
C340 C 1.01864 0.30407 0.27438 0.0
H341 H 0.89061 0.19933 0.33282 0.0
H342 H 0.88895 0.24753 0.62707 0.0
H343 H 0.87499 0.29444 0.51594 0.0
H344 H 0.90306 0.31479 0.47832 0.0
H345 H 0.8996 0.31524 0.58793 0.0
H346 H 0.92867 0.27989 0.65195 0.0
H347 H 0.95838 0.29538 0.60313 0.0
H348 H 0.95669 0.25763 0.58933 0.0
H349 H 0.97022 0.16594 0.12707 0.0
H350 H 0.05715 0.20458 0.11091 0.0
H351 H 0.04105 0.24503 0.2176 0.0
H352 H 0.96797 0.16725 0.28772 0.0
H353 H 0.92777 0.16733 0.27788 0.0
H354 H 0.94611 0.18726 0.36814 0.0
H355 H 0.92695 0.22395 0.1536 0.0
H356 H 0.90055 0.21911 0.23024 0.0
H357 H 0.91603 0.18853 0.16019 0.0
H358 H 0.86586 0.17709 0.43273 0.0
C359 C 0.89093 0.21012 0.39596 0.0
C360 C 0.33366 0.00524 0.13634 0.0
C361 C 0.35904 0.99097 0.08968 0.0
C362 C 0.36425 0.9622 0.09213 0.0
C363 C 0.32258 0.96222 0.18911 0.0
C364 C 0.31517 0.99003 0.18499 0.0
C365 C 0.28598 0.99929 0.23646 0.0
H366 H 0.18511 0.96003 0.52343 0.0
C367 C 0.30176 0.95203 0.2475 0.0
C368 C 0.2792 0.97314 0.2757 0.0
H369 H 0.17315 0.03587 0.42058 0.0
H370 H 0.22018 0.02321 0.33756 0.0
H371 H 0.19674 0.91989 0.35468 0.0
H372 H 0.25172 0.96304 0.55124 0.0
H373 H 0.27235 0.93157 0.51531 0.0
H374 H 0.23445 0.9299 0.55611 0.0
H375 H 0.20088 0.90884 0.45234 0.0
H376 H 0.22588 0.89541 0.36615 0.0
C377 C 0.2603 0.00491 0.17784 0.0
C378 C 0.29217 0.02563 0.30303 0.0
C379 C 0.33692 0.86536 0.35803 0.0
C380 C 0.32776 0.85492 0.42839 0.0
C381 C 0.29794 0.86126 0.45861 0.0
C382 C 0.27971 0.88131 0.42824 0.0
C383 C 0.29152 0.89528 0.3674 0.0
C384 C 0.31888 0.88598 0.33011 0.0
C385 C 0.32858 0.90368 0.26889 0.0
C386 C 0.3037 0.92673 0.28057 0.0
C387 C 0.2822 0.92164 0.33808 0.0
C388 C 0.32756 0.88454 0.18144 0.0
C389 C 0.36041 0.91579 0.29558 0.0
C390 C 0.19135 0.97396 0.48184 0.0
C391 C 0.17399 0.99857 0.47824 0.0
C392 C 0.18539 0.01644 0.42533 0.0
C393 C 0.21257 0.00902 0.37648 0.0
C394 C 0.22866 0.98333 0.37945 0.0
C395 C 0.21724 0.96662 0.43211 0.0
C396 C 0.23511 0.93984 0.4299 0.0
C397 C 0.25896 0.9421 0.36582 0.0
C398 C 0.25647 0.96786 0.33547 0.0
C399 C 0.2137 0.91455 0.39988 0.0
C400 C 0.24905 0.94082 0.51736 0.0
H401 H 0.35263 0.9263 0.13913 0.0
H402 H 0.32833 0.02723 0.13435 0.0
H403 H 0.31144 0.0213 0.34294 0.0
H404 H 0.27195 0.03174 0.34313 0.0
H405 H 0.29808 0.04396 0.27409 0.0
H406 H 0.25722 0.986 0.128 0.0
H407 H 0.26574 0.02327 0.14847 0.0
H408 H 0.23837 0.00952 0.21094 0.0
H409 H 0.35956 0.86084 0.33241 0.0
H410 H 0.28994 0.85298 0.51142 0.0
H411 H 0.25814 0.88664 0.45809 0.0
H412 H 0.31339 0.86548 0.18018 0.0
H413 H 0.35067 0.87676 0.15959 0.0
H414 H 0.31687 0.8957 0.13516 0.0
H415 H 0.36192 0.92167 0.36417 0.0
H416 H 0.36561 0.93549 0.27372 0.0
H417 H 0.37883 0.8999 0.27405 0.0
H418 H 0.38296 0.95055 0.05731 0.0
C419 C 0.34638 0.94798 0.14024 0.0
C420 C 0.48487 0.25276 0.18757 0.0
C421 C 0.4648 0.27356 0.16416 0.0
C422 C 0.43741 0.28073 0.2093 0.0
C423 C 0.45623 0.25621 0.31294 0.0
C424 C 0.47866 0.24288 0.26146 0.0
C425 C 0.49609 0.2222 0.30512 0.0
H426 H 0.51262 0.18072 0.68143 0.0
C427 C 0.46276 0.25272 0.39635 0.0
C428 C 0.48033 0.22778 0.39082 0.0
H429 H 0.49225 0.12185 0.45477 0.0
H430 H 0.48438 0.16196 0.38433 0.0
H431 H 0.55482 0.22592 0.58029 0.0
H432 H 0.46243 0.22471 0.67105 0.0
H433 H 0.47761 0.25895 0.70149 0.0
H434 H 0.49457 0.22956 0.73955 0.0
H435 H 0.54616 0.23143 0.68884 0.0
H436 H 0.54373 0.26008 0.6322 0.0
C437 C 0.53 0.2298 0.31256 0.0
C438 C 0.49225 0.19169 0.25753 0.0
C439 C 0.49403 0.34658 0.56479 0.0
C440 C 0.51071 0.3542 0.63807 0.0
C441 C 0.51614 0.33335 0.68707 0.0
C442 C 0.50693 0.30522 0.6603 0.0
C443 C 0.49197 0.29783 0.58411 0.0
C444 C 0.48461 0.31866 0.53952 0.0
C445 C 0.46883 0.30726 0.45964 0.0
C446 C 0.46852 0.27556 0.46281 0.0
C447 C 0.48354 0.27023 0.53391 0.0
C448 C 0.48845 0.31389 0.38754 0.0
C449 C 0.43667 0.32098 0.46149 0.0
C450 C 0.50815 0.17586 0.61572 0.0
C451 C 0.50362 0.14761 0.57447 0.0
C452 C 0.49602 0.14305 0.48914 0.0
C453 C 0.49252 0.16595 0.44706 0.0
C454 C 0.49812 0.19352 0.48917 0.0
C455 C 0.50514 0.19832 0.57244 0.0
C456 C 0.50576 0.22966 0.60902 0.0
C457 C 0.49384 0.24219 0.53675 0.0
C458 C 0.49213 0.22114 0.46521 0.0
C459 C 0.53926 0.23739 0.62936 0.0
C460 C 0.4841 0.23623 0.68467 0.0
H461 H 0.4134 0.27936 0.32272 0.0
H462 H 0.50544 0.24598 0.15257 0.0
H463 H 0.46844 0.18475 0.26222 0.0
H464 H 0.50803 0.17681 0.28137 0.0
H465 H 0.49785 0.19029 0.191 0.0
H466 H 0.53272 0.25217 0.34473 0.0
H467 H 0.54079 0.22713 0.25044 0.0
H468 H 0.5424 0.21577 0.34851 0.0
H469 H 0.48935 0.36175 0.5253 0.0
H470 H 0.52764 0.33863 0.74594 0.0
H471 H 0.51183 0.29024 0.69969 0.0
H472 H 0.49273 0.33694 0.39467 0.0
H473 H 0.4772 0.30819 0.32715 0.0
H474 H 0.51079 0.30244 0.38432 0.0
H475 H 0.42082 0.31091 0.4994 0.0
H476 H 0.42723 0.31962 0.39877 0.0
H477 H 0.43709 0.34407 0.48817 0.0
H478 H 0.4211 0.29573 0.19165 0.0
C479 C 0.43315 0.27216 0.28486 0.0
Tb480 Tb 0.99929 0.0275 0.7575 0.0
Tb481 Tb 0.04676 0.00721 0.88572 0.0
C482 C 0.9771 0.01623 0.93442 0.0
C483 C 0.93681 0.06602 0.67017 0.0
C484 C 0.89774 0.11354 0.67452 0.0
C485 C 0.91411 0.10998 0.74547 0.0
C486 C 0.93353 0.08636 0.74328 0.0
C487 C 0.91869 0.06822 0.60179 0.0
C488 C 0.89922 0.09173 0.60392 0.0
C489 C 0.96132 0.04442 0.66121 0.0
O490 O 1.00307 0.06393 0.85673 0.0
O491 O 0.04966 0.05371 0.90733 0.0
O492 O 0.06929 0.99873 0.76381 0.0
O493 O 0.04508 0.03268 0.70664 0.0
O494 O 0.05789 0.98704 0.98447 0.0
O495 O 0.0926 0.00641 0.92258 0.0
O496 O 0.02472 0.96815 0.82358 0.0
O497 O 1.00891 0.98319 0.7059 0.0
O498 O 0.97133 0.01448 0.85485 0.0
O499 O 1.00531 0.01864 0.96193 0.0
C500 C 0.02739 0.07189 0.90036 0.0
O501 O 0.98864 0.05427 0.6743 0.0
O502 O 0.95707 0.02269 0.69648 0.0
C503 C 0.06853 0.01526 0.70851 0.0
C504 C 0.1048 0.96281 0.96116 0.0
C505 C 0.13259 0.90871 0.95276 0.0
C506 C 0.14501 0.93304 1.00267 0.0
C507 C 0.13094 0.95982 1.00764 0.0
C508 C 0.09443 0.9394 0.90476 0.0
C509 C 0.1079 0.91265 0.90101 0.0
C510 C 0.08706 0.98961 0.97414 0.0
C511 C 1.01412 0.96276 0.74743 0.0
H512 H 0.91327 0.12625 0.80096 0.0
H513 H 0.94723 0.08478 0.797 0.0
H514 H 0.92092 0.05265 0.54497 0.0
H515 H 0.88731 0.09386 0.54775 0.0
H516 H 0.16458 0.93126 0.0414 0.0
H517 H 0.13971 0.9779 0.05015 0.0
H518 H 0.07467 0.94148 0.86704 0.0
H519 H 0.09712 0.89493 0.86198 0.0
Tb520 Tb 0.50983 0.98617 0.74437 0.0
Tb521 Tb 0.53743 0.02766 0.90416 0.0
C522 C 0.53121 0.96304 0.89739 0.0
C523 C 0.47486 0.92446 0.60818 0.0
C524 C 0.43503 0.87846 0.57821 0.0
C525 C 0.44197 0.89163 0.65984 0.0
C526 C 0.46168 0.91457 0.6747 0.0
C527 C 0.46976 0.91025 0.52729 0.0
C528 C 0.45004 0.88747 0.5123 0.0
C529 C 0.49386 0.94962 0.62183 0.0
O530 O 0.46871 0.99638 0.82205 0.0
O531 O 0.48884 0.02517 0.93682 0.0
O532 O 0.5191 0.05826 0.83362 0.0
O533 O 0.50936 0.02788 0.70963 0.0
O534 O 0.53532 0.03804 0.03391 0.0
O535 O 0.56943 0.056 0.96739 0.0
O536 O 0.57473 0.02599 0.81404 0.0
O537 O 0.55936 0.98726 0.72075 0.0
O538 O 0.50888 0.96301 0.84538 0.0
O539 O 0.55081 0.98359 0.90607 0.0
C540 C 0.46564 0.01152 0.89778 0.0
O541 O 0.47981 0.97414 0.64511 0.0
O542 O 0.51852 0.94747 0.66433 0.0
C543 C 0.51196 0.0536 0.75439 0.0
C544 C 0.58561 0.03335 0.07668 0.0
C545 C 0.61909 0.98449 0.09733 0.0
C546 C 0.63048 0.00266 0.04736 0.0
C547 C 0.61398 0.02692 0.03733 0.0
C548 C 0.57662 0.01755 0.13625 0.0
C549 C 0.59318 0.99322 0.14628 0.0
C550 C 0.56217 0.04916 0.03782 0.0
C551 C 0.57995 0.00652 0.7474 0.0
H552 H 0.43105 0.8851 0.71199 0.0
H553 H 0.46588 0.92512 0.73781 0.0
H554 H 0.48013 0.91746 0.47541 0.0
H555 H 0.44499 0.87833 0.44855 0.0
H556 H 0.65118 0.99712 0.01165 0.0
H557 H 0.62202 0.03888 0.99226 0.0
H558 H 0.55502 0.02212 0.16823 0.0
H559 H 0.58406 0.97989 0.18632 0.0
Tb560 Tb 0.50087 0.49251 0.9039 0.0
Tb561 Tb 0.53671 0.53354 0.79426 0.0
C562 C 0.47215 0.51033 0.73335 0.0
C563 C 0.47553 0.4284 0.99045 0.0
C564 C 0.47892 0.37272 0.02542 0.0
C565 C 0.45158 0.38882 0.03667 0.0
C566 C 0.44995 0.41628 0.0195 0.0
C567 C 0.50314 0.41274 0.98026 0.0
C568 C 0.50489 0.38519 0.99839 0.0
C569 C 0.47145 0.45576 0.9623 0.0
O570 O 0.53967 0.4698 0.84037 0.0
O571 O 0.54483 0.49043 0.72704 0.0
O572 O 0.56915 0.52393 0.89014 0.0
O573 O 0.54278 0.49971 0.97606 0.0
O574 O 0.55481 0.54996 0.69405 0.0
O575 O 0.55867 0.57248 0.8203 0.0
O576 O 0.49582 0.55288 0.85467 0.0
O577 O 0.49558 0.53584 0.97239 0.0
O578 O 0.46947 0.50052 0.80345 0.0
O579 O 0.4969 0.52319 0.71582 0.0
C580 C 0.5459 0.46797 0.76203 0.0
O581 O 0.48206 0.47879 1.00776 0.0
O582 O 0.4764 0.4549 0.88389 0.0
C583 C 0.56744 0.51259 0.95778 0.0
C584 C 0.55623 0.60142 0.71781 0.0
C585 C 0.55207 0.65534 0.66914 0.0
C586 C 0.5569 0.65338 0.75235 0.0
C587 C 0.55893 0.62685 0.77632 0.0
C588 C 0.55044 0.60337 0.63501 0.0
C589 C 0.54821 0.62998 0.6111 0.0
C590 C 0.56294 0.5735 0.7425 0.0
C591 C 0.49286 0.55736 0.93446 0.0
H592 H 0.4313 0.38017 0.05894 0.0
H593 H 0.42836 0.42783 0.02704 0.0
H594 H 0.52307 0.42153 0.95663 0.0
H595 H 0.52629 0.37338 0.98919 0.0
H596 H 0.55976 0.67238 0.79887 0.0
H597 H 0.56363 0.6263 0.84061 0.0
H598 H 0.54863 0.58433 0.58807 0.0
H599 H 0.54487 0.6306 0.54628 0.0
Tb600 Tb 0.03613 0.533 0.80748 0.0
Tb601 Tb 1.00136 0.48778 0.89325 0.0
C602 C 1.00272 0.55288 0.9742 0.0
C603 C 0.10542 0.56407 0.76158 0.0
C604 C 0.16052 0.53553 0.7782 0.0
C605 C 0.14537 0.54998 0.84873 0.0
C606 C 0.11795 0.56442 0.84065 0.0
C607 C 0.12346 0.55392 0.69151 0.0
C608 C 0.15091 0.53959 0.69981 0.0
C609 C 0.07205 0.56499 0.75189 0.0
O610 O 0.06945 0.51912 0.89455 0.0
O611 O 0.04538 0.48555 0.9537 0.0
O612 O 0.03331 0.46325 0.80698 0.0
O613 O 0.03306 0.4933 0.71603 0.0
O614 O 0.97063 0.4798 0.98343 0.0
O615 O 0.98656 0.44588 0.88714 0.0
O616 O 0.96972 0.49961 0.79818 0.0
O617 O 0.99072 0.53861 0.75902 0.0
O618 O 1.00673 0.55829 0.90007 0.0
O619 O 1.00447 0.5267 0.98711 0.0
C620 C 0.06942 0.50085 0.94576 0.0
O621 O 0.06094 0.54215 0.70688 0.0
O622 O 0.05625 0.57302 0.81954 0.0
C623 C 0.03666 0.46758 0.73166 0.0
C624 C 0.9337 0.45029 0.91425 0.0
C625 C 0.8803 0.47633 0.87106 0.0
C626 C 0.90047 0.46327 0.80894 0.0
C627 C 0.92712 0.4501 0.83034 0.0
C628 C 0.91034 0.45758 0.97293 0.0
C629 C 0.88357 0.47053 0.95124 0.0
C630 C 0.96544 0.4543 0.94245 0.0
C631 C 0.96821 0.52083 0.75705 0.0
H632 H 0.15318 0.54765 0.90944 0.0
H633 H 0.10496 0.57269 0.8962 0.0
H634 H 0.1145 0.55361 0.63003 0.0
H635 H 0.1625 0.52861 0.64442 0.0
H636 H 0.89787 0.46691 0.74642 0.0
H637 H 0.94438 0.44394 0.78298 0.0
H638 H 0.91469 0.45762 0.03775 0.0
H639 H 0.86809 0.48025 1.00024 0.0
C640 C 0.13338 0.0316 0.56537 0.0
C641 C 0.14466 0.0041 0.5301 0.0
H642 H 0.10057 0.05693 0.64784 0.0
C643 C 0.12842 0.98095 0.54972 0.0
H644 H 0.14471 0.05015 0.5526 0.0
C645 C 0.10404 0.98487 0.60644 0.0
C646 C 0.09352 0.01213 0.64379 0.0
H647 H 0.13467 0.95931 0.52191 0.0
H648 H 0.09323 0.96629 0.62096 0.0
C649 C 0.10802 0.03553 0.62063 0.0
C650 C 0.48803 0.09888 0.5977 0.0
C651 C 0.50549 0.12345 0.6213 0.0
H652 H 0.47639 0.05779 0.62065 0.0
C653 C 0.52437 0.12489 0.6914 0.0
H654 H 0.4726 0.09689 0.54584 0.0
C655 C 0.52554 0.10277 0.73632 0.0
C656 C 0.50853 0.07817 0.71144 0.0
H657 H 0.53881 0.14289 0.71123 0.0
H658 H 0.54062 0.10455 0.78905 0.0
C659 C 0.48985 0.07646 0.64143 0.0
C660 C 0.42372 0.51128 0.53692 0.0
C661 C 0.39737 0.49696 0.55301 0.0
H662 H 0.46774 0.52673 0.57993 0.0
C663 C 0.39529 0.4887 0.63069 0.0
H664 H 0.42657 0.51738 0.47736 0.0
C665 C 0.41891 0.49372 0.68923 0.0
C666 C 0.44583 0.50713 0.67258 0.0
H667 H 0.37563 0.4772 0.64501 0.0
H668 H 0.41633 0.48626 0.74692 0.0
C669 C 0.44754 0.51633 0.59581 0.0
C670 C 0.04353 0.39068 0.62494 0.0
C671 C 0.02652 0.39088 0.55292 0.0
H672 H 0.06045 0.41506 0.73794 0.0
C673 C 1.01771 0.41715 0.53315 0.0
H674 H 0.04996 0.3707 0.64248 0.0
C675 C 0.02381 0.44268 0.58766 0.0
C676 C 0.03822 0.44226 0.66375 0.0
H677 H 1.00388 0.41779 0.47903 0.0
H678 H 1.01475 0.46242 0.57369 0.0
C679 C 0.04925 0.4161 0.67992 0.0
C680 C 0.92193 0.02819 0.12351 0.0
C681 C 0.89708 0.01121 0.09209 0.0
H682 H 0.96673 0.04315 0.09971 0.0
C683 C 0.90076 0.9944 0.01197 0.0
H684 H 0.92041 0.04142 0.18451 0.0
C685 C 0.92657 0.99608 0.96293 0.0
C686 C 0.95079 0.01382 0.99221 0.0
H687 H 0.88305 0.98014 0.98544 0.0
H688 H 0.92746 0.98334 0.90111 0.0
C689 C 0.94851 0.02929 0.07446 0.0
C690 C 0.51206 0.89957 0.99533 0.0
C691 C 0.53673 0.89839 0.04923 0.0
H692 H 0.49088 0.92068 0.90568 0.0
C693 C 0.55974 0.9185 0.05183 0.0
H694 H 0.49388 0.88447 0.99179 0.0
C695 C 0.55817 0.93907 1.00144 0.0
C696 C 0.53347 0.94039 0.94816 0.0
H697 H 0.57934 0.91786 0.09128 0.0
H698 H 0.57638 0.95386 1.00325 0.0
C699 C 0.51039 0.92033 0.94572 0.0
C700 C 0.64927 0.52321 0.03811 0.0
C701 C 0.64731 0.52068 0.12228 0.0
H702 H 0.62666 0.52316 0.92259 0.0
C703 C 0.6188 0.5132 0.15032 0.0
H704 H 0.67075 0.52819 0.01247 0.0
C705 C 0.59308 0.5098 0.09704 0.0
C706 C 0.59498 0.51394 0.01415 0.0
H707 H 0.61603 0.51107 0.2142 0.0
H708 H 0.57145 0.50481 0.12171 0.0
C709 C 0.62375 0.52025 0.98577 0.0
C710 C 0.0231 0.60086 0.17602 0.0
C711 C 1.01137 0.62725 0.16379 0.0
H712 H 0.0286 0.55626 0.12651 0.0
C713 C 0.99295 0.62809 0.09453 0.0
H714 H 0.03786 0.59975 0.22808 0.0
C715 C 0.98836 0.60341 0.03522 0.0
C716 C 1.00154 0.57726 0.04494 0.0
H717 H 0.98415 0.64823 0.08284 0.0
H718 H 0.97581 0.60505 0.97962 0.0
C719 C 1.01782 0.57601 0.11778 0.0
C720 C 0.89616 0.19051 0.66 0.0
C721 C 0.87331 0.19085 0.6003 0.0
H722 H 0.92179 0.16551 0.7308 0.0
C723 C 0.85291 0.16821 0.5855 0.0
H724 H 0.91232 0.2075 0.67353 0.0
C725 C 0.85857 0.14374 0.61828 0.0
C726 C 0.8845 0.14172 0.66705 0.0
H727 H 0.83447 0.16817 0.54181 0.0
H728 H 0.84433 0.1255 0.5992 0.0
C729 C 0.90171 0.16616 0.693 0.0
C730 C 0.37871 0.8329 0.44853 0.0
C731 C 0.35193 0.84679 0.48318 0.0
H732 H 0.42738 0.83166 0.45382 0.0
C733 C 0.35285 0.86188 0.56521 0.0
H734 H 0.37857 0.82019 0.38666 0.0
C735 C 0.38075 0.86871 0.60324 0.0
C736 C 0.40799 0.8602 0.56006 0.0
H737 H 0.33266 0.87243 0.59512 0.0
H738 H 0.38068 0.88405 0.66071 0.0
C739 C 0.40671 0.83966 0.48679 0.0
C740 C 0.50716 0.40676 0.63739 0.0
C741 C 0.5226 0.38358 0.66163 0.0
H742 H 0.50415 0.45176 0.6458 0.0
C743 C 0.54949 0.38886 0.70813 0.0
H744 H 0.48594 0.40411 0.60384 0.0
C745 C 0.55932 0.41665 0.73443 0.0
C746 C 0.54319 0.43954 0.71196 0.0
H747 H 0.56257 0.3717 0.72634 0.0
H748 H 0.57858 0.4204 0.77586 0.0
C749 C 0.51771 0.4343 0.66087 0.0
C750 C 0.17854 0.45892 0.76292 0.0
C751 C 0.20645 0.45709 0.72062 0.0
H752 H 0.14221 0.48655 0.81807 0.0
C753 C 0.223 0.48218 0.72269 0.0
H754 H 0.16538 0.44005 0.76273 0.0
C755 C 0.20942 0.50869 0.75196 0.0
C756 C 0.17971 0.51042 0.78264 0.0
H757 H 0.24461 0.48175 0.69098 0.0
H758 H 0.22078 0.52765 0.74226 0.0
C759 C 0.16532 0.48554 0.79444 0.0
C760 C 0.14175 0.84941 0.0702 0.0
C761 C 0.1276 0.82782 0.01461 0.0
H762 H 0.15414 0.89269 0.0951 0.0
C763 C 0.12587 0.82989 0.93101 0.0
H764 H 0.14332 0.84816 0.13516 0.0
C765 C 0.13308 0.85537 0.9066 0.0
C766 C 0.14048 0.87942 0.96651 0.0
H767 H 0.11522 0.81333 0.88688 0.0
H768 H 0.1291 0.85712 0.84286 0.0
C769 C 0.1478 0.87523 0.04677 0.0
C770 C 0.65447 0.91887 0.15828 0.0
C771 C 0.66907 0.90616 0.0836 0.0
H772 H 0.62894 0.95483 0.22262 0.0
C773 C 0.65974 0.9149 0.01051 0.0
H774 H 0.65974 0.91204 0.21572 0.0
C775 C 0.64216 0.93973 0.01479 0.0
C776 C 0.63272 0.9556 0.09187 0.0
H777 H 0.66948 0.90492 0.95142 0.0
H778 H 0.63751 0.9474 0.95814 0.0
C779 C 0.63698 0.94376 0.16272 0.0
C780 C 0.49637 0.63653 0.97627 0.0
C781 C 0.52469 0.6407 0.01621 0.0
H782 H 0.46358 0.60636 0.92026 0.0
C783 C 0.53997 0.61712 0.03842 0.0
H784 H 0.48352 0.65413 0.95983 0.0
C785 C 0.52749 0.59017 0.02031 0.0
C786 C 0.5 0.58601 0.97721 0.0
H787 H 0.56215 0.61912 0.06721 0.0
H788 H 0.54055 0.57224 0.03423 0.0
C789 C 0.48442 0.60935 0.95574 0.0
C790 C 0.82454 0.53672 0.91429 0.0
C791 C 0.84524 0.55919 0.92763 0.0
H792 H 0.81977 0.49145 0.88571 0.0
C793 C 0.87474 0.5544 0.89525 0.0
H794 H 0.80165 0.53985 0.93924 0.0
C795 C 0.88486 0.52673 0.86359 0.0
C796 C 0.86563 0.50366 0.86393 0.0
H797 H 0.89116 0.57125 0.90572 0.0
H798 H 0.90892 0.5231 0.85119 0.0
C799 C 0.83485 0.50892 0.88403 0.0
C800 C 1.00387 0.14885 0.97826 0.0
C801 C 0.02317 0.15692 0.04626 0.0
H802 H 0.99029 0.11614 0.87901 0.0
C803 C 0.04646 0.13789 0.06057 0.0
H804 H 0.98565 0.16304 0.96593 0.0
C805 C 0.04904 0.11058 0.01084 0.0
C806 C 0.02828 0.10187 0.94618 0.0
H807 H 0.06137 0.14342 0.1133 0.0
H808 H 0.06622 0.09585 0.02577 0.0
C809 C 1.0064 0.12179 0.9289 0.0
C810 C 0.38411 0.99229 0.95196 0.0
C811 C 0.3814 0.00379 0.03737 0.0
H812 H 0.41176 0.98562 0.84181 0.0
C813 C 0.40567 0.02037 0.0742 0.0
H814 H 0.3665 0.97866 0.92153 0.0
C815 C 0.43214 0.02415 0.0283 0.0
C816 C 0.43551 0.01129 0.94381 0.0
H817 H 0.40517 0.02876 0.14008 0.0
H818 H 0.45066 0.03601 0.06048 0.0
C819 C 0.41048 0.996 0.90617 0.0
C820 C 0.49974 0.30948 0.12525 0.0
C821 C 0.4739 0.29257 0.10692 0.0
H822 H 0.5216 0.34829 0.11417 0.0
C823 C 0.45272 0.29981 0.04994 0.0
H824 H 0.51617 0.30479 0.17013 0.0
C825 C 0.45561 0.32486 0.01883 0.0
C826 C 0.47977 0.34332 0.04377 0.0
H827 H 0.43255 0.28728 0.03481 0.0
H828 H 0.43791 0.33061 0.97886 0.0
C829 C 0.50268 0.33461 0.09385 0.0
C830 C 0.14473 0.51688 0.0661 0.0
C831 C 0.15077 0.49173 0.09666 0.0
H832 H 0.11408 0.53992 0.99903 0.0
C833 C 0.12983 0.4695 0.07496 0.0
H834 H 0.1597 0.53474 0.0818 0.0
C835 C 0.10385 0.47241 0.02645 0.0
C836 C 0.09764 0.49762 0.99677 0.0
H837 H 0.1335 0.44953 0.09543 0.0
H838 H 0.0886 0.45471 0.01189 0.0
C839 C 0.11853 0.51982 0.0178 0.0
C840 C 0.98356 0.90119 0.59205 0.0
C841 C 1.00133 0.87791 0.60685 0.0
H842 H 0.97386 0.9458 0.62393 0.0
C843 C 0.02104 0.88218 0.67546 0.0
H844 H 0.96767 0.89868 0.54102 0.0
C845 C 0.0243 0.90946 0.72433 0.0
C846 C 1.00821 0.93304 0.70487 0.0
H847 H 0.03521 0.86484 0.68857 0.0
H848 H 0.04053 0.91228 0.77446 0.0
C849 C 0.98716 0.92831 0.63967 0.0
C850 C 0.64182 0.98547 0.57959 0.0
C851 C 0.66625 0.00374 0.60643 0.0
H852 H 0.59686 0.97175 0.60102 0.0
C853 C 0.66147 0.02381 0.68037 0.0
H854 H 0.6436 0.97019 0.52216 0.0
C855 C 0.63384 0.02485 0.72628 0.0
C856 C 0.60985 0.00595 0.69984 0.0
H857 H 0.67932 0.03836 0.70384 0.0
H858 H 0.63138 0.0404 0.78298 0.0
C859 C 0.61451 0.98645 0.62513 0.0
C860 C 0.58169 0.72654 0.63625 0.0
C861 C 0.56315 0.73237 0.57164 0.0
H862 H 0.5927 0.69788 0.71768 0.0
C863 C 0.5385 0.71455 0.5465 0.0
H864 H 0.60118 0.73957 0.65586 0.0
C865 C 0.53394 0.69025 0.58074 0.0
C866 C 0.5537 0.68337 0.6417 0.0
H867 H 0.52423 0.7181 0.49559 0.0
H868 H 0.51565 0.67621 0.5571 0.0
C869 C 0.57689 0.70249 0.6713 0.0
C870 C 0.90219 0.55748 0.66281 0.0
C871 C 0.8892 0.53547 0.60427 0.0
H872 H 0.93694 0.57038 0.75339 0.0
C873 C 0.90115 0.50773 0.60183 0.0
H874 H 0.89364 0.57912 0.6685 0.0
C875 C 0.92608 0.50266 0.65276 0.0
C876 C 0.9401 0.52516 0.70697 0.0
H877 H 0.89233 0.49017 0.55753 0.0
H878 H 0.93527 0.48124 0.64701 0.0
C879 C 0.92733 0.55254 0.71171 0.0
loop_
_geom_bond_atom_site_label_1
_geom_bond_atom_site_label_2
_geom_bond_distance
_geom_bond_site_symmetry_2
_ccdc_geom_bond_type
C0 C1 1.391 . S
C0 C4 1.391 . S
C0 H42 0.948 . S
C1 C0 1.391 . S
C1 C2 1.391 . S
C2 C1 1.391 . S
C2 H58 0.947 . S
C2 C59 1.392 . S
C3 C4 1.391 . S
C3 C7 1.397 . S
C3 C59 1.419 . S
C4 C0 1.391 . S
C4 C3 1.391 . S
C4 C5 1.399 . S
C5 C4 1.399 . S
C5 C8 1.396 . S
C5 C17 1.453 . S
C5 C18 1.684 . S
H6 C30 0.948 . S
C7 C3 1.397 . S
C7 C8 1.394 . S
C7 C26 1.723 . S
C8 C5 1.396 . S
C8 C7 1.394 . S
C8 C38 1.723 . S
H9 C32 0.947 . S
H10 C33 0.948 . S
H11 C39 0.982 . S
H12 C40 0.979 . S
H13 C40 0.980 . S
H14 C40 0.983 . S
H15 C39 0.979 . S
H16 C39 0.977 . S
C17 C5 1.453 . S
C17 H46 0.982 . S
C17 H47 0.979 . S
C17 H48 0.977 . S
C18 C5 1.684 . S
C18 H43 0.979 . S
C18 H44 0.980 . S
C18 H45 0.983 . S
C19 C20 1.391 . S
C19 C24 1.391 . S
C19 H49 0.948 . S
C20 C19 1.391 . S
C20 C21 1.391 . S
C21 C20 1.391 . S
C21 C22 1.392 . S
C21 H50 0.947 . S
C22 C21 1.392 . S
C22 C23 1.419 . S
C22 H51 0.948 . S
C23 C22 1.419 . S
C23 C24 1.391 . S
C23 C27 1.397 . S
C24 C19 1.391 . S
C24 C23 1.391 . S
C24 C25 1.399 . S
C25 C24 1.399 . S
C25 C26 1.396 . S
C25 C28 1.453 . S
C25 C29 1.684 . S
C26 C7 1.723 . S
C26 C25 1.396 . S
C26 C27 1.394 . S
C27 C23 1.397 . S
C27 C26 1.394 . S
C27 C37 1.723 . S
C28 C25 1.453 . S
C28 H52 0.982 . S
C28 H53 0.979 . S
C28 H54 0.977 . S
C29 C25 1.684 . S
C29 H55 0.979 . S
C29 H56 0.980 . S
C29 H57 0.983 . S
C30 H6 0.948 . S
C30 C31 1.391 . S
C30 C35 1.391 . S
C31 C30 1.391 . S
C31 C32 1.391 . S
C32 H9 0.947 . S
C32 C31 1.391 . S
C32 C33 1.392 . S
C33 H10 0.948 . S
C33 C32 1.392 . S
C33 C34 1.419 . S
C34 C33 1.419 . S
C34 C35 1.391 . S
C34 C38 1.397 . S
C35 C30 1.391 . S
C35 C34 1.391 . S
C35 C36 1.399 . S
C36 C35 1.399 . S
C36 C37 1.396 . S
C36 C39 1.453 . S
C36 C40 1.684 . S
C37 C27 1.723 . S
C37 C36 1.396 . S
C37 C38 1.394 . S
C38 C8 1.723 . S
C38 C34 1.397 . S
C38 C37 1.394 . S
C39 H11 0.982 . S
C39 H15 0.979 . S
C39 H16 0.977 . S
C39 C36 1.453 . S
C40 H12 0.979 . S
C40 H13 0.980 . S
C40 H14 0.983 . S
C40 C36 1.684 . S
H41 C59 0.948 . S
H42 C0 0.948 . S
H43 C18 0.979 . S
H44 C18 0.980 . S
H45 C18 0.983 . S
H46 C17 0.982 . S
H47 C17 0.979 . S
H48 C17 0.977 . S
H49 C19 0.948 . S
H50 C21 0.947 . S
H51 C22 0.948 . S
H52 C28 0.982 . S
H53 C28 0.979 . S
H54 C28 0.977 . S
H55 C29 0.979 . S
H56 C29 0.980 . S
H57 C29 0.983 . S
H58 C2 0.947 . S
C59 C2 1.392 . S
C59 C3 1.419 . S
C59 H41 0.948 . S
C60 C61 1.391 . S
C60 C64 1.391 . S
C60 H102 0.948 . S
C61 C60 1.391 . S
C61 C62 1.391 . S
C62 C61 1.391 . S
C62 H118 0.947 . S
C62 C119 1.392 . S
C63 C64 1.391 . S
C63 C67 1.397 1_655 S
C63 C119 1.419 . S
C64 C60 1.391 . S
C64 C63 1.391 . S
C64 C65 1.399 . S
C65 C64 1.399 . S
C65 C68 1.396 1_655 S
C65 C77 1.453 1_655 S
C65 C78 1.684 . S
H66 C90 0.948 . S
C67 C63 1.397 1_455 S
C67 C68 1.394 . S
C67 C86 1.723 . S
C68 C65 1.396 1_455 S
C68 C67 1.394 . S
C68 C98 1.723 . S
H69 C92 0.947 . S
H70 C93 0.948 . S
H71 C99 0.982 . S
H72 C100 0.979 . S
H73 C100 0.980 . S
H74 C100 0.983 . S
H75 C99 0.979 . S
H76 C99 0.977 . S
C77 C65 1.453 1_455 S
C77 H106 0.982 . S
C77 H107 0.979 . S
C77 H108 0.977 . S
C78 C65 1.684 . S
C78 H103 0.979 . S
C78 H104 0.980 . S
C78 H105 0.983 . S
C79 C80 1.391 . S
C79 C84 1.391 . S
C79 H109 0.948 . S
C80 C79 1.391 . S
C80 C81 1.391 . S
C81 C80 1.391 . S
C81 C82 1.392 . S
C81 H110 0.947 . S
C82 C81 1.392 . S
C82 C83 1.419 . S
C82 H111 0.948 . S
C83 C82 1.419 . S
C83 C84 1.391 . S
C83 C87 1.397 1_655 S
C84 C79 1.391 . S
C84 C83 1.391 . S
C84 C85 1.399 . S
C85 C84 1.399 . S
C85 C86 1.396 1_655 S
C85 C88 1.453 1_655 S
C85 C89 1.684 . S
C86 C67 1.723 . S
C86 C85 1.396 1_455 S
C86 C87 1.394 . S
C87 C83 1.397 1_455 S
C87 C86 1.394 . S
C87 C97 1.723 . S
C88 C85 1.453 1_455 S
C88 H112 0.982 . S
C88 H113 0.979 . S
C88 H114 0.977 . S
C89 C85 1.684 . S
C89 H115 0.979 . S
C89 H116 0.980 . S
C89 H117 0.983 . S
C90 H66 0.948 . S
C90 C91 1.391 . S
C90 C95 1.391 . S
C91 C90 1.391 . S
C91 C92 1.391 . S
C92 H69 0.947 . S
C92 C91 1.391 . S
C92 C93 1.392 . S
C93 H70 0.948 . S
C93 C92 1.392 . S
C93 C94 1.419 . S
C94 C93 1.419 . S
C94 C95 1.391 . S
C94 C98 1.397 1_655 S
C95 C90 1.391 . S
C95 C94 1.391 . S
C95 C96 1.399 . S
C96 C95 1.399 . S
C96 C97 1.396 1_655 S
C96 C99 1.453 1_655 S
C96 C100 1.684 . S
C97 C87 1.723 . S
C97 C96 1.396 1_455 S
C97 C98 1.394 . S
C98 C68 1.723 . S
C98 C94 1.397 1_455 S
C98 C97 1.394 . S
C99 H71 0.982 . S
C99 H75 0.979 . S
C99 H76 0.977 . S
C99 C96 1.453 1_455 S
C100 H72 0.979 . S
C100 H73 0.980 . S
C100 H74 0.983 . S
C100 C96 1.684 . S
H101 C119 0.948 . S
H102 C60 0.948 . S
H103 C78 0.979 . S
H104 C78 0.980 . S
H105 C78 0.983 . S
H106 C77 0.982 . S
H107 C77 0.979 . S
H108 C77 0.977 . S
H109 C79 0.948 . S
H110 C81 0.947 . S
H111 C82 0.948 . S
H112 C88 0.982 . S
H113 C88 0.979 . S
H114 C88 0.977 . S
H115 C89 0.979 . S
H116 C89 0.980 . S
H117 C89 0.983 . S
H118 C62 0.947 . S
C119 C62 1.392 . S
C119 C63 1.419 . S
C119 H101 0.948 . S
C120 C121 1.391 . S
C120 C124 1.391 . S
C120 H162 0.948 . S
C121 C120 1.391 . S
C121 C122 1.391 . S
C122 C121 1.391 . S
C122 H178 0.947 . S
C122 C179 1.392 . S
C123 C124 1.391 . S
C123 C127 1.397 1_565 S
C123 C179 1.419 . S
C124 C120 1.391 . S
C124 C123 1.391 . S
C124 C125 1.399 . S
C125 C124 1.399 . S
C125 C128 1.396 1_565 S
C125 C137 1.453 1_565 S
C125 C138 1.684 . S
H126 C150 0.948 . S
C127 C123 1.397 1_545 S
C127 C128 1.394 . S
C127 C146 1.723 . S
C128 C125 1.396 1_545 S
C128 C127 1.394 . S
C128 C158 1.723 . S
H129 C152 0.947 . S
H130 C153 0.948 . S
H131 C159 0.982 . S
H132 C160 0.979 . S
H133 C160 0.980 . S
H134 C160 0.983 . S
H135 C159 0.979 . S
H136 C159 0.977 . S
C137 C125 1.453 1_545 S
C137 H166 0.982 . S
C137 H167 0.979 . S
C137 H168 0.977 . S
C138 C125 1.684 . S
C138 H163 0.979 . S
C138 H164 0.980 . S
C138 H165 0.983 . S
C139 C140 1.391 . S
C139 C144 1.391 . S
C139 H169 0.948 . S
C140 C139 1.391 . S
C140 C141 1.391 . S
C141 C140 1.391 . S
C141 C142 1.392 . S
C141 H170 0.947 . S
C142 C141 1.392 . S
C142 C143 1.419 . S
C142 H171 0.948 . S
C143 C142 1.419 . S
C143 C144 1.391 . S
C143 C147 1.397 1_565 S
C144 C139 1.391 . S
C144 C143 1.391 . S
C144 C145 1.399 . S
C145 C144 1.399 . S
C145 C146 1.396 1_565 S
C145 C148 1.453 1_565 S
C145 C149 1.684 . S
C146 C127 1.723 . S
C146 C145 1.396 1_545 S
C146 C147 1.394 . S
C147 C143 1.397 1_545 S
C147 C146 1.394 . S
C147 C157 1.723 . S
C148 C145 1.453 1_545 S
C148 H172 0.982 . S
C148 H173 0.979 . S
C148 H174 0.977 . S
C149 C145 1.684 . S
C149 H175 0.979 . S
C149 H176 0.980 . S
C149 H177 0.983 . S
C150 H126 0.948 . S
C150 C151 1.391 . S
C150 C155 1.391 . S
C151 C150 1.391 . S
C151 C152 1.391 . S
C152 H129 0.947 . S
C152 C151 1.391 . S
C152 C153 1.392 . S
C153 H130 0.948 . S
C153 C152 1.392 . S
C153 C154 1.419 . S
C154 C153 1.419 . S
C154 C155 1.391 . S
C154 C158 1.397 1_565 S
C155 C150 1.391 . S
C155 C154 1.391 . S
C155 C156 1.399 . S
C156 C155 1.399 . S
C156 C157 1.396 1_565 S
C156 C159 1.453 1_565 S
C156 C160 1.684 . S
C157 C147 1.723 . S
C157 C156 1.396 1_545 S
C157 C158 1.394 . S
C158 C128 1.723 . S
C158 C154 1.397 1_545 S
C158 C157 1.394 . S
C159 H131 0.982 . S
C159 H135 0.979 . S
C159 H136 0.977 . S
C159 C156 1.453 1_545 S
C160 H132 0.979 . S
C160 H133 0.980 . S
C160 H134 0.983 . S
C160 C156 1.684 . S
H161 C179 0.948 . S
H162 C120 0.948 . S
H163 C138 0.979 . S
H164 C138 0.980 . S
H165 C138 0.983 . S
H166 C137 0.982 . S
H167 C137 0.979 . S
H168 C137 0.977 . S
H169 C139 0.948 . S
H170 C141 0.947 . S
H171 C142 0.948 . S
H172 C148 0.982 . S
H173 C148 0.979 . S
H174 C148 0.977 . S
H175 C149 0.979 . S
H176 C149 0.980 . S
H177 C149 0.983 . S
H178 C122 0.947 . S
C179 C122 1.392 . S
C179 C123 1.419 . S
C179 H161 0.948 . S
C180 C181 1.391 . S
C180 C184 1.391 . S
C180 H222 0.948 . S
C181 C180 1.391 . S
C181 C182 1.391 . S
C182 C181 1.391 . S
C182 H238 0.947 . S
C182 C239 1.392 . S
C183 C184 1.391 . S
C183 C187 1.397 . S
C183 C239 1.419 . S
C184 C180 1.391 . S
C184 C183 1.391 . S
C184 C185 1.399 . S
C185 C184 1.399 . S
C185 C188 1.396 . S
C185 C197 1.453 . S
C185 C198 1.684 . S
H186 C210 0.948 . S
C187 C183 1.397 . S
C187 C188 1.394 . S
C187 C206 1.723 1_554 S
C188 C185 1.396 . S
C188 C187 1.394 . S
C188 C218 1.723 . S
H189 C212 0.947 . S
H190 C213 0.948 . S
H191 C219 0.982 . S
H192 C220 0.979 . S
H193 C220 0.980 . S
H194 C220 0.983 . S
H195 C219 0.979 . S
H196 C219 0.977 . S
C197 C185 1.453 . S
C197 H226 0.982 . S
C197 H227 0.979 . S
C197 H228 0.977 . S
C198 C185 1.684 . S
C198 H223 0.979 . S
C198 H224 0.980 . S
C198 H225 0.983 . S
C199 C200 1.391 . S
C199 C204 1.391 . S
C199 H229 0.948 . S
C200 C199 1.391 . S
C200 C201 1.391 . S
C201 C200 1.391 . S
C201 C202 1.392 . S
C201 H230 0.947 . S
C202 C201 1.392 . S
C202 C203 1.419 . S
C202 H231 0.948 . S
C203 C202 1.419 . S
C203 C204 1.391 . S
C203 C207 1.397 . S
C204 C199 1.391 . S
C204 C203 1.391 . S
C204 C205 1.399 . S
C205 C204 1.399 . S
C205 C206 1.396 . S
C205 C208 1.453 . S
C205 C209 1.684 . S
C206 C187 1.723 1_556 S
C206 C205 1.396 . S
C206 C207 1.394 . S
C207 C203 1.397 . S
C207 C206 1.394 . S
C207 C217 1.723 . S
C208 C205 1.453 . S
C208 H232 0.982 . S
C208 H233 0.979 . S
C208 H234 0.977 1_556 S
C209 C205 1.684 . S
C209 H235 0.979 . S
C209 H236 0.980 1_556 S
C209 H237 0.983 . S
C210 H186 0.948 . S
C210 C211 1.391 . S
C210 C215 1.391 . S
C211 C210 1.391 . S
C211 C212 1.391 1_556 S
C212 H189 0.947 . S
C212 C211 1.391 1_554 S
C212 C213 1.392 . S
C213 H190 0.948 . S
C213 C212 1.392 . S
C213 C214 1.418 1_554 S
C214 C213 1.418 1_556 S
C214 C215 1.392 . S
C214 C218 1.397 1_556 S
C215 C210 1.391 . S
C215 C214 1.392 . S
C215 C216 1.399 . S
C216 C215 1.399 . S
C216 C217 1.396 . S
C216 C219 1.453 . S
C216 C220 1.684 . S
C217 C207 1.723 . S
C217 C216 1.396 . S
C217 C218 1.394 1_556 S
C218 C188 1.723 . S
C218 C214 1.397 1_554 S
C218 C217 1.394 1_554 S
C219 H191 0.982 . S
C219 H195 0.979 . S
C219 H196 0.977 . S
C219 C216 1.453 . S
C220 H192 0.979 . S
C220 H193 0.980 . S
C220 H194 0.983 . S
C220 C216 1.684 . S
H221 C239 0.948 . S
H222 C180 0.948 . S
H223 C198 0.979 . S
H224 C198 0.980 . S
H225 C198 0.983 . S
H226 C197 0.982 . S
H227 C197 0.979 . S
H228 C197 0.977 . S
H229 C199 0.948 . S
H230 C201 0.947 . S
H231 C202 0.948 . S
H232 C208 0.982 . S
H233 C208 0.979 . S
H234 C208 0.977 1_554 S
H235 C209 0.979 . S
H236 C209 0.980 1_554 S
H237 C209 0.983 . S
H238 C182 0.947 . S
C239 C182 1.392 . S
C239 C183 1.419 . S
C239 H221 0.948 . S
C240 C241 1.391 . S
C240 C244 1.391 . S
C240 H282 0.948 . S
C241 C240 1.391 . S
C241 C242 1.391 . S
C242 C241 1.391 . S
C242 H298 0.947 . S
C242 C299 1.392 . S
C243 C244 1.391 . S
C243 C247 1.397 . S
C243 C299 1.419 . S
C244 C240 1.391 . S
C244 C243 1.391 . S
C244 C245 1.399 . S
C245 C244 1.399 . S
C245 C248 1.396 . S
C245 C257 1.453 . S
C245 C258 1.684 . S
H246 C270 0.948 . S
C247 C243 1.397 . S
C247 C248 1.394 . S
C247 C266 1.723 . S
C248 C245 1.396 . S
C248 C247 1.394 . S
C248 C278 1.723 . S
H249 C272 0.947 . S
H250 C273 0.948 . S
H251 C279 0.982 . S
H252 C280 0.979 . S
H253 C280 0.980 . S
H254 C280 0.983 . S
H255 C279 0.979 . S
H256 C279 0.977 . S
C257 C245 1.453 . S
C257 H286 0.982 . S
C257 H287 0.979 . S
C257 H288 0.977 1_554 S
C258 C245 1.684 . S
C258 H283 0.979 . S
C258 H284 0.980 1_554 S
C258 H285 0.983 . S
C259 C260 1.391 . S
C259 C264 1.391 . S
C259 H289 0.948 . S
C260 C259 1.391 . S
C260 C261 1.391 . S
C261 C260 1.391 . S
C261 C262 1.392 . S
C261 H290 0.947 . S
C262 C261 1.392 . S
C262 C263 1.419 . S
C262 H291 0.948 . S
C263 C262 1.419 . S
C263 C264 1.391 . S
C263 C267 1.397 . S
C264 C259 1.391 . S
C264 C263 1.391 . S
C264 C265 1.399 . S
C265 C264 1.399 . S
C265 C266 1.396 . S
C265 C268 1.453 . S
C265 C269 1.684 . S
C266 C247 1.723 . S
C266 C265 1.396 . S
C266 C267 1.394 . S
C267 C263 1.397 . S
C267 C266 1.394 . S
C267 C277 1.723 . S
C268 C265 1.453 . S
C268 H292 0.982 . S
C268 H293 0.979 . S
C268 H294 0.977 . S
C269 C265 1.684 . S
C269 H295 0.979 . S
C269 H296 0.980 . S
C269 H297 0.983 . S
C270 H246 0.948 . S
C270 C271 1.391 . S
C270 C275 1.391 . S
C271 C270 1.391 . S
C271 C272 1.391 . S
C272 H249 0.947 . S
C272 C271 1.391 . S
C272 C273 1.392 . S
C273 H250 0.948 . S
C273 C272 1.392 . S
C273 C274 1.419 1_556 S
C274 C273 1.419 1_554 S
C274 C275 1.391 1_554 S
C274 C278 1.397 . S
C275 C270 1.391 . S
C275 C274 1.391 1_556 S
C275 C276 1.399 1_556 S
C276 C275 1.399 1_554 S
C276 C277 1.396 . S
C276 C279 1.453 . S
C276 C280 1.684 . S
C277 C267 1.723 . S
C277 C276 1.396 . S
C277 C278 1.394 . S
C278 C248 1.723 . S
C278 C274 1.397 . S
C278 C277 1.394 . S
C279 H251 0.982 . S
C279 H255 0.979 . S
C279 H256 0.977 . S
C279 C276 1.453 . S
C280 H252 0.979 . S
C280 H253 0.980 . S
C280 H254 0.983 . S
C280 C276 1.684 . S
H281 C299 0.948 . S
H282 C240 0.948 . S
H283 C258 0.979 . S
H284 C258 0.980 1_556 S
H285 C258 0.983 . S
H286 C257 0.982 . S
H287 C257 0.979 . S
H288 C257 0.977 1_556 S
H289 C259 0.948 . S
H290 C261 0.947 . S
H291 C262 0.948 . S
H292 C268 0.982 . S
H293 C268 0.979 . S
H294 C268 0.977 . S
H295 C269 0.979 . S
H296 C269 0.980 . S
H297 C269 0.983 . S
H298 C242 0.947 . S
C299 C242 1.392 . S
C299 C243 1.419 . S
C299 H281 0.948 . S
C300 C301 1.391 . S
C300 C304 1.391 . S
C300 H342 0.948 . S
C301 C300 1.391 . S
C301 C302 1.391 . S
C302 C301 1.391 . S
C302 H358 0.947 . S
C302 C359 1.392 . S
C303 C304 1.391 . S
C303 C307 1.396 1_655 S
C303 C359 1.419 . S
C304 C300 1.391 . S
C304 C303 1.391 . S
C304 C305 1.399 . S
C305 C304 1.399 . S
C305 C308 1.396 1_655 S
C305 C317 1.453 1_655 S
C305 C318 1.684 . S
H306 C330 0.948 . S
C307 C303 1.396 1_455 S
C307 C308 1.395 . S
C307 C326 1.723 . S
C308 C305 1.396 1_455 S
C308 C307 1.395 . S
C308 C338 1.723 . S
H309 C332 0.947 . S
H310 C333 0.948 . S
H311 C339 0.982 . S
H312 C340 0.979 . S
H313 C340 0.980 . S
H314 C340 0.983 . S
H315 C339 0.979 . S
H316 C339 0.977 . S
C317 C305 1.453 1_455 S
C317 H346 0.982 . S
C317 H347 0.979 . S
C317 H348 0.977 . S
C318 C305 1.684 . S
C318 H343 0.979 . S
C318 H344 0.980 . S
C318 H345 0.983 . S
C319 C320 1.391 . S
C319 C324 1.391 1_556 S
C319 H349 0.948 . S
C320 C319 1.391 . S
C320 C321 1.391 . S
C321 C320 1.391 . S
C321 C322 1.392 . S
C321 H350 0.947 . S
C322 C321 1.392 . S
C322 C323 1.419 1_556 S
C322 H351 0.948 1_556 S
C323 C322 1.419 1_554 S
C323 C324 1.391 . S
C323 C327 1.396 1_655 S
C324 C319 1.391 1_554 S
C324 C323 1.391 . S
C324 C325 1.399 . S
C325 C324 1.399 . S
C325 C326 1.396 1_655 S
C325 C328 1.453 1_655 S
C325 C329 1.684 . S
C326 C307 1.723 . S
C326 C325 1.396 1_455 S
C326 C327 1.394 . S
C327 C323 1.396 1_455 S
C327 C326 1.394 . S
C327 C337 1.723 . S
C328 C325 1.453 1_455 S
C328 H352 0.982 . S
C328 H353 0.979 . S
C328 H354 0.977 . S
C329 C325 1.684 . S
C329 H355 0.979 . S
C329 H356 0.980 . S
C329 H357 0.983 . S
C330 H306 0.948 . S
C330 C331 1.391 . S
C330 C335 1.391 . S
C331 C330 1.391 . S
C331 C332 1.391 . S
C332 H309 0.947 . S
C332 C331 1.391 . S
C332 C333 1.392 . S
C333 H310 0.948 . S
C333 C332 1.392 . S
C333 C334 1.419 . S
C334 C333 1.419 . S
C334 C335 1.391 . S
C334 C338 1.397 1_655 S
C335 C330 1.391 . S
C335 C334 1.391 . S
C335 C336 1.399 . S
C336 C335 1.399 . S
C336 C337 1.396 1_655 S
C336 C339 1.453 1_655 S
C336 C340 1.684 . S
C337 C327 1.723 . S
C337 C336 1.396 1_455 S
C337 C338 1.395 . S
C338 C308 1.723 . S
C338 C334 1.397 1_455 S
C338 C337 1.395 . S
C339 H311 0.982 . S
C339 H315 0.979 . S
C339 H316 0.977 . S
C339 C336 1.453 1_455 S
C340 H312 0.979 . S
C340 H313 0.980 . S
C340 H314 0.983 . S
C340 C336 1.684 . S
H341 C359 0.948 . S
H342 C300 0.948 . S
H343 C318 0.979 . S
H344 C318 0.980 . S
H345 C318 0.983 . S
H346 C317 0.982 . S
H347 C317 0.979 . S
H348 C317 0.977 . S
H349 C319 0.948 . S
H350 C321 0.947 . S
H351 C322 0.948 1_554 S
H352 C328 0.982 . S
H353 C328 0.979 . S
H354 C328 0.977 . S
H355 C329 0.979 . S
H356 C329 0.980 . S
H357 C329 0.983 . S
H358 C302 0.947 . S
C359 C302 1.392 . S
C359 C303 1.419 . S
C359 H341 0.948 . S
C360 C361 1.391 . S
C360 C364 1.391 . S
C360 H402 0.948 . S
C361 C360 1.391 . S
C361 C362 1.391 . S
C362 C361 1.391 . S
C362 H418 0.947 . S
C362 C419 1.392 1_556 S
C363 C364 1.391 1_554 S
C363 C367 1.397 1_545 S
C363 C419 1.419 . S
C364 C360 1.391 . S
C364 C363 1.391 1_556 S
C364 C365 1.399 1_556 S
C365 C364 1.399 1_554 S
C365 C368 1.396 1_545 S
C365 C377 1.453 1_544 S
C365 C378 1.684 . S
H366 C390 0.948 . S
C367 C363 1.397 1_565 S
C367 C368 1.394 . S
C367 C386 1.723 . S
C368 C365 1.396 1_565 S
C368 C367 1.394 . S
C368 C398 1.723 . S
H369 C392 0.947 . S
H370 C393 0.948 . S
H371 C399 0.982 . S
H372 C400 0.979 . S
H373 C400 0.980 . S
H374 C400 0.983 . S
H375 C399 0.979 . S
H376 C399 0.977 . S
C377 C365 1.453 1_566 S
C377 H406 0.982 . S
C377 H407 0.979 . S
C377 H408 0.977 1_556 S
C378 C365 1.684 . S
C378 H403 0.979 . S
C378 H404 0.980 . S
C378 H405 0.983 1_554 S
C379 C380 1.391 . S
C379 C384 1.391 . S
C379 H409 0.948 . S
C380 C379 1.391 . S
C380 C381 1.391 . S
C381 C380 1.391 . S
C381 C382 1.392 . S
C381 H410 0.947 . S
C382 C381 1.392 . S
C382 C383 1.419 . S
C382 H411 0.948 . S
C383 C382 1.419 . S
C383 C384 1.391 . S
C383 C387 1.397 1_545 S
C384 C379 1.391 . S
C384 C383 1.391 . S
C384 C385 1.399 . S
C385 C384 1.399 . S
C385 C386 1.396 1_545 S
C385 C388 1.453 1_545 S
C385 C389 1.684 . S
C386 C367 1.723 . S
C386 C385 1.396 1_565 S
C386 C387 1.394 . S
C387 C383 1.397 1_565 S
C387 C386 1.394 . S
C387 C397 1.723 . S
C388 C385 1.453 1_565 S
C388 H412 0.982 . S
C388 H413 0.979 . S
C388 H414 0.977 . S
C389 C385 1.684 . S
C389 H415 0.979 . S
C389 H416 0.980 . S
C389 H417 0.983 . S
C390 H366 0.948 . S
C390 C391 1.391 . S
C390 C395 1.391 . S
C391 C390 1.391 . S
C391 C392 1.391 . S
C392 H369 0.947 . S
C392 C391 1.391 . S
C392 C393 1.392 . S
C393 H370 0.948 . S
C393 C392 1.392 . S
C393 C394 1.419 . S
C394 C393 1.419 . S
C394 C395 1.391 . S
C394 C398 1.397 1_545 S
C395 C390 1.391 . S
C395 C394 1.391 . S
C395 C396 1.399 . S
C396 C395 1.399 . S
C396 C397 1.396 1_545 S
C396 C399 1.453 1_545 S
C396 C400 1.684 . S
C397 C387 1.723 . S
C397 C396 1.396 1_565 S
C397 C398 1.394 . S
C398 C368 1.723 . S
C398 C394 1.397 1_565 S
C398 C397 1.394 . S
C399 H371 0.982 . S
C399 H375 0.979 . S
C399 H376 0.977 . S
C399 C396 1.453 1_565 S
C400 H372 0.979 . S
C400 H373 0.980 . S
C400 H374 0.983 . S
C400 C396 1.684 . S
H401 C419 0.948 . S
H402 C360 0.948 . S
H403 C378 0.979 . S
H404 C378 0.980 . S
H405 C378 0.983 1_556 S
H406 C377 0.982 . S
H407 C377 0.979 . S
H408 C377 0.977 1_554 S
H409 C379 0.948 . S
H410 C381 0.947 . S
H411 C382 0.948 . S
H412 C388 0.982 . S
H413 C388 0.979 . S
H414 C388 0.977 . S
H415 C389 0.979 . S
H416 C389 0.980 . S
H417 C389 0.983 . S
H418 C362 0.947 . S
C419 C362 1.392 1_554 S
C419 C363 1.419 . S
C419 H401 0.948 . S
C420 C421 1.391 . S
C420 C424 1.391 . S
C420 H462 0.948 . S
C421 C420 1.391 . S
C421 C422 1.391 . S
C422 C421 1.391 . S
C422 H478 0.947 . S
C422 C479 1.392 . S
C423 C424 1.391 . S
C423 C427 1.397 . S
C423 C479 1.419 . S
C424 C420 1.391 . S
C424 C423 1.391 . S
C424 C425 1.399 . S
C425 C424 1.399 . S
C425 C428 1.396 . S
C425 C437 1.453 . S
C425 C438 1.684 . S
H426 C450 0.948 . S
C427 C423 1.397 . S
C427 C428 1.394 . S
C427 C446 1.723 . S
C428 C425 1.396 . S
C428 C427 1.394 . S
C428 C458 1.723 . S
H429 C452 0.947 . S
H430 C453 0.948 . S
H431 C459 0.982 . S
H432 C460 0.979 . S
H433 C460 0.980 . S
H434 C460 0.983 . S
H435 C459 0.979 . S
H436 C459 0.977 . S
C437 C425 1.453 . S
C437 H466 0.982 . S
C437 H467 0.979 . S
C437 H468 0.977 . S
C438 C425 1.684 . S
C438 H463 0.979 . S
C438 H464 0.980 . S
C438 H465 0.983 . S
C439 C440 1.391 . S
C439 C444 1.391 . S
C439 H469 0.948 . S
C440 C439 1.391 . S
C440 C441 1.391 . S
C441 C440 1.391 . S
C441 C442 1.392 . S
C441 H470 0.947 . S
C442 C441 1.392 . S
C442 C443 1.419 . S
C442 H471 0.948 . S
C443 C442 1.419 . S
C443 C444 1.391 . S
C443 C447 1.397 . S
C444 C439 1.391 . S
C444 C443 1.391 . S
C444 C445 1.399 . S
C445 C444 1.399 . S
C445 C446 1.396 . S
C445 C448 1.453 . S
C445 C449 1.684 . S
C446 C427 1.723 . S
C446 C445 1.396 . S
C446 C447 1.394 . S
C447 C443 1.397 . S
C447 C446 1.394 . S
C447 C457 1.723 . S
C448 C445 1.453 . S
C448 H472 0.982 . S
C448 H473 0.979 . S
C448 H474 0.977 . S
C449 C445 1.684 . S
C449 H475 0.979 . S
C449 H476 0.980 . S
C449 H477 0.983 . S
C450 H426 0.948 . S
C450 C451 1.391 . S
C450 C455 1.391 . S
C451 C450 1.391 . S
C451 C452 1.391 . S
C452 H429 0.947 . S
C452 C451 1.391 . S
C452 C453 1.392 . S
C453 H430 0.948 . S
C453 C452 1.392 . S
C453 C454 1.419 . S
C454 C453 1.419 . S
C454 C455 1.391 . S
C454 C458 1.397 . S
C455 C450 1.391 . S
C455 C454 1.391 . S
C455 C456 1.399 . S
C456 C455 1.399 . S
C456 C457 1.396 . S
C456 C459 1.453 . S
C456 C460 1.684 . S
C457 C447 1.723 . S
C457 C456 1.396 . S
C457 C458 1.394 . S
C458 C428 1.723 . S
C458 C454 1.397 . S
C458 C457 1.394 . S
C459 H431 0.982 . S
C459 H435 0.979 . S
C459 H436 0.977 . S
C459 C456 1.453 . S
C460 H432 0.979 . S
C460 H433 0.980 . S
C460 H434 0.983 . S
C460 C456 1.684 . S
H461 C479 0.948 . S
H462 C420 0.948 . S
H463 C438 0.979 . S
H464 C438 0.980 . S
H465 C438 0.983 . S
H466 C437 0.982 . S
H467 C437 0.979 . S
H468 C437 0.977 . S
H469 C439 0.948 . S
H470 C441 0.947 . S
H471 C442 0.948 . S
H472 C448 0.982 . S
H473 C448 0.979 . S
H474 C448 0.977 . S
H475 C449 0.979 . S
H476 C449 0.980 . S
H477 C449 0.983 . S
H478 C422 0.947 . S
C479 C422 1.392 . S
C479 C423 1.419 . S
C479 H461 0.948 . S
Tb480 C489 2.764 . S
Tb480 O490 2.325 . S
Tb480 O493 2.303 1_655 S
Tb480 O497 2.322 1_545 S
Tb480 O498 2.349 . S
Tb480 O501 2.415 . S
Tb480 O502 2.399 . S
Tb481 O491 2.322 1_565 S
Tb481 O492 2.349 . S
Tb481 O494 2.415 . S
Tb481 O495 2.399 . S
Tb481 O496 2.325 . S
Tb481 O499 2.303 1_455 S
Tb481 C510 2.764 . S
C482 O498 1.261 . S
C482 O499 1.257 1_545 S
C483 C486 1.358 . S
C483 C487 1.332 . S
C483 C489 1.504 . S
C484 C485 1.373 . S
C484 C488 1.308 . S
C485 C484 1.373 . S
C485 C486 1.429 . S
C485 H512 0.932 . S
C486 C483 1.358 . S
C486 C485 1.429 . S
C486 H513 0.930 . S
C487 C483 1.332 . S
C487 C488 1.394 . S
C487 H514 0.915 1_655 S
C488 C484 1.308 . S
C488 C487 1.394 . S
C488 H515 0.929 . S
C489 Tb480 2.764 . S
C489 C483 1.504 . S
C489 O501 1.239 . S
C489 O502 1.263 . S
O490 Tb480 2.325 . S
O490 C500 1.236 1_655 S
O491 Tb481 2.322 1_545 S
O491 C500 1.257 . S
O492 Tb481 2.349 . S
O492 C503 1.261 . S
O493 Tb480 2.303 1_455 S
O493 C503 1.257 1_545 S
O494 Tb481 2.415 . S
O494 C510 1.239 . S
O495 Tb481 2.399 . S
O495 C510 1.263 . S
O496 Tb481 2.325 . S
O496 C511 1.236 1_455 S
O497 Tb480 2.322 1_565 S
O497 C511 1.257 . S
O498 Tb480 2.349 . S
O498 C482 1.261 . S
O499 Tb481 2.303 1_655 S
O499 C482 1.257 1_565 S
C500 O490 1.236 1_455 S
C500 O491 1.257 . S
O501 Tb480 2.415 . S
O501 C489 1.239 . S
O502 Tb480 2.399 . S
O502 C489 1.263 . S
C503 O492 1.261 . S
C503 O493 1.257 1_565 S
C504 C507 1.358 1_556 S
C504 C508 1.332 1_556 S
C504 C510 1.504 . S
C505 C506 1.373 . S
C505 C509 1.308 . S
C506 C505 1.373 . S
C506 C507 1.429 . S
C506 H516 0.932 . S
C507 C504 1.358 1_554 S
C507 C506 1.429 . S
C507 H517 0.930 1_554 S
C508 C504 1.332 1_554 S
C508 C509 1.394 . S
C508 H518 0.923 1_455 S
C509 C505 1.308 . S
C509 C508 1.394 . S
C509 H519 0.929 . S
C510 Tb481 2.764 . S
C510 O494 1.239 . S
C510 O495 1.263 . S
C510 C504 1.504 . S
C511 O496 1.236 1_655 S
C511 O497 1.257 . S
H512 C485 0.932 . S
H513 C486 0.930 . S
H514 C487 0.915 1_455 S
H515 C488 0.929 . S
H516 C506 0.932 . S
H517 C507 0.930 1_556 S
H518 C508 0.923 1_655 S
H519 C509 0.929 . S
Tb520 C529 2.764 . S
Tb520 O530 2.325 . S
Tb520 O533 2.303 1_565 S
Tb520 O537 2.322 . S
Tb520 O538 2.349 . S
Tb520 O541 2.415 1_565 S
Tb520 O542 2.399 . S
Tb521 O531 2.322 . S
Tb521 O532 2.349 . S
Tb521 O534 2.415 1_545 S
Tb521 O535 2.399 . S
Tb521 O536 2.325 . S
Tb521 O539 2.303 1_545 S
Tb521 C550 2.764 1_556 S
C522 O538 1.261 . S
C522 O539 1.257 . S
C523 C526 1.358 . S
C523 C527 1.318 1_565 S
C523 C529 1.504 . S
C524 C525 1.373 . S
C524 C528 1.308 . S
C525 C524 1.373 . S
C525 C526 1.429 . S
C525 H552 0.932 . S
C526 C523 1.358 . S
C526 C525 1.429 . S
C526 H553 0.930 . S
C527 C523 1.318 1_545 S
C527 C528 1.395 1_545 S
C527 H554 0.946 . S
C528 C524 1.308 . S
C528 C527 1.395 1_565 S
C528 H555 0.929 1_565 S
C529 Tb520 2.764 . S
C529 C523 1.504 . S
C529 O541 1.239 1_565 S
C529 O542 1.263 . S
O530 Tb520 2.325 . S
O530 C540 1.236 1_565 S
O531 Tb521 2.322 . S
O531 C540 1.257 . S
O532 Tb521 2.349 . S
O532 C543 1.261 . S
O533 Tb520 2.303 1_545 S
O533 C543 1.257 . S
O534 Tb521 2.415 1_565 S
O534 C550 1.239 1_566 S
O535 Tb521 2.399 . S
O535 C550 1.263 1_556 S
O536 Tb521 2.325 . S
O536 C551 1.236 1_545 S
O537 Tb520 2.322 . S
O537 C551 1.257 . S
O538 Tb520 2.349 . S
O538 C522 1.261 . S
O539 Tb521 2.303 1_565 S
O539 C522 1.257 . S
C540 O530 1.236 1_545 S
C540 O531 1.257 . S
O541 Tb520 2.415 1_545 S
O541 C529 1.239 1_545 S
O542 Tb520 2.399 . S
O542 C529 1.263 . S
C543 O532 1.261 . S
C543 O533 1.257 . S
C544 C547 1.358 . S
C544 C548 1.326 1_545 S
C544 C550 1.504 . S
C545 C546 1.373 . S
C545 C549 1.308 . S
C546 C545 1.373 . S
C546 C547 1.429 . S
C546 H556 0.932 . S
C547 C544 1.358 . S
C547 C546 1.429 . S
C547 H557 0.930 . S
C548 C544 1.326 1_565 S
C548 C549 1.394 1_565 S
C548 H558 0.938 . S
C549 C545 1.308 . S
C549 C548 1.394 1_545 S
C549 H559 0.929 1_545 S
C550 Tb521 2.764 1_554 S
C550 O534 1.239 1_544 S
C550 O535 1.263 1_554 S
C550 C544 1.504 . S
C551 O536 1.236 1_565 S
C551 O537 1.257 . S
H552 C525 0.932 . S
H553 C526 0.930 . S
H554 C527 0.946 . S
H555 C528 0.929 1_545 S
H556 C546 0.932 . S
H557 C547 0.930 . S
H558 C548 0.938 . S
H559 C549 0.929 1_565 S
Tb560 C569 2.764 1_556 S
Tb560 O570 2.325 . S
Tb560 O573 2.303 . S
Tb560 O577 2.322 . S
Tb560 O578 2.349 . S
Tb560 O581 2.415 1_556 S
Tb560 O582 2.399 . S
Tb561 O571 2.322 . S
Tb561 O572 2.349 . S
Tb561 O574 2.415 . S
Tb561 O575 2.399 . S
Tb561 O576 2.325 . S
Tb561 O579 2.303 . S
Tb561 C590 2.764 . S
C562 O578 1.261 . S
C562 O579 1.257 . S
C563 C566 1.358 . S
C563 C567 1.332 . S
C563 C569 1.504 . S
C564 C565 1.373 . S
C564 C568 1.308 . S
C565 C564 1.373 . S
C565 C566 1.429 . S
C565 H592 0.932 . S
C566 C563 1.358 . S
C566 C565 1.429 . S
C566 H593 0.930 . S
C567 C563 1.332 . S
C567 C568 1.394 . S
C567 H594 0.932 . S
C568 C564 1.308 . S
C568 C567 1.394 . S
C568 H595 0.929 . S
C569 Tb560 2.764 1_554 S
C569 C563 1.504 . S
C569 O581 1.239 . S
C569 O582 1.263 1_554 S
O570 Tb560 2.325 . S
O570 C580 1.236 . S
O571 Tb561 2.322 . S
O571 C580 1.257 . S
O572 Tb561 2.349 . S
O572 C583 1.261 . S
O573 Tb560 2.303 . S
O573 C583 1.257 . S
O574 Tb561 2.415 . S
O574 C590 1.239 . S
O575 Tb561 2.399 . S
O575 C590 1.263 . S
O576 Tb561 2.325 . S
O576 C591 1.236 . S
O577 Tb560 2.322 . S
O577 C591 1.257 . S
O578 Tb560 2.349 . S
O578 C562 1.261 . S
O579 Tb561 2.303 . S
O579 C562 1.257 . S
C580 O570 1.236 . S
C580 O571 1.257 . S
O581 Tb560 2.415 1_554 S
O581 C569 1.239 . S
O582 Tb560 2.399 . S
O582 C569 1.263 1_556 S
C583 O572 1.261 . S
C583 O573 1.257 . S
C584 C587 1.358 . S
C584 C588 1.332 . S
C584 C590 1.504 . S
C585 C586 1.373 . S
C585 C589 1.308 . S
C586 C585 1.373 . S
C586 C587 1.429 . S
C586 H596 0.932 . S
C587 C584 1.358 . S
C587 C586 1.429 . S
C587 H597 0.930 . S
C588 C584 1.332 . S
C588 C589 1.394 . S
C588 H598 0.932 . S
C589 C585 1.308 . S
C589 C588 1.394 . S
C589 H599 0.929 . S
C590 Tb561 2.764 . S
C590 O574 1.239 . S
C590 O575 1.263 . S
C590 C584 1.504 . S
C591 O576 1.236 . S
C591 O577 1.257 . S
H592 C565 0.932 . S
H593 C566 0.930 . S
H594 C567 0.932 . S
H595 C568 0.929 . S
H596 C586 0.932 . S
H597 C587 0.930 . S
H598 C588 0.932 . S
H599 C589 0.929 . S
Tb600 C609 2.764 . S
Tb600 O610 2.325 . S
Tb600 O613 2.303 . S
Tb600 O617 2.322 1_455 S
Tb600 O618 2.349 . S
Tb600 O621 2.415 . S
Tb600 O622 2.399 . S
Tb601 O611 2.322 1_655 S
Tb601 O612 2.349 . S
Tb601 O614 2.415 . S
Tb601 O615 2.399 . S
Tb601 O616 2.325 . S
Tb601 O619 2.303 . S
Tb601 C630 2.764 . S
C602 O618 1.261 . S
C602 O619 1.257 1_455 S
C603 C606 1.358 . S
C603 C607 1.332 . S
C603 C609 1.504 . S
C604 C605 1.373 . S
C604 C608 1.308 . S
C605 C604 1.373 . S
C605 C606 1.429 . S
C605 H632 0.932 . S
C606 C603 1.358 . S
C606 C605 1.429 . S
C606 H633 0.930 . S
C607 C603 1.332 . S
C607 C608 1.394 . S
C607 H634 0.932 . S
C608 C604 1.308 . S
C608 C607 1.394 . S
C608 H635 0.929 . S
C609 Tb600 2.764 . S
C609 C603 1.504 . S
C609 O621 1.239 . S
C609 O622 1.263 . S
O610 Tb600 2.325 . S
O610 C620 1.236 . S
O611 Tb601 2.322 1_455 S
O611 C620 1.257 . S
O612 Tb601 2.349 . S
O612 C623 1.261 . S
O613 Tb600 2.303 . S
O613 C623 1.257 1_455 S
O614 Tb601 2.415 . S
O614 C630 1.239 . S
O615 Tb601 2.399 . S
O615 C630 1.263 . S
O616 Tb601 2.325 . S
O616 C631 1.236 . S
O617 Tb600 2.322 1_655 S
O617 C631 1.257 . S
O618 Tb600 2.349 . S
O618 C602 1.261 . S
O619 Tb601 2.303 . S
O619 C602 1.257 1_655 S
C620 O610 1.236 . S
C620 O611 1.257 . S
O621 Tb600 2.415 . S
O621 C609 1.239 . S
O622 Tb600 2.399 . S
O622 C609 1.263 . S
C623 O612 1.261 . S
C623 O613 1.257 1_655 S
C624 C627 1.358 . S
C624 C628 1.332 . S
C624 C630 1.504 1_554 S
C625 C626 1.373 . S
C625 C629 1.308 . S
C626 C625 1.373 . S
C626 C627 1.429 . S
C626 H636 0.932 . S
C627 C624 1.358 . S
C627 C626 1.429 . S
C627 H637 0.927 1_554 S
C628 C624 1.332 . S
C628 C629 1.394 . S
C628 H638 0.932 . S
C629 C625 1.308 . S
C629 C628 1.394 . S
C629 H639 0.929 . S
C630 Tb601 2.764 . S
C630 O614 1.239 . S
C630 O615 1.263 . S
C630 C624 1.504 1_556 S
C631 O616 1.236 . S
C631 O617 1.257 . S
H632 C605 0.932 . S
H633 C606 0.930 . S
H634 C607 0.932 . S
H635 C608 0.929 . S
H636 C626 0.932 . S
H637 C627 0.927 1_556 S
H638 C628 0.932 . S
H639 C629 0.929 . S
C640 C641 1.387 . S
C640 H644 0.950 . S
C640 C649 1.390 . S
C641 C640 1.387 . S
C641 C643 1.387 1_545 S
H642 C649 0.950 . S
C643 C641 1.387 1_565 S
C643 C645 1.390 . S
C643 H647 0.950 . S
H644 C640 0.950 . S
C645 C643 1.390 . S
C645 C646 1.387 1_565 S
C645 H648 0.950 . S
C646 C645 1.387 1_545 S
C646 C649 1.387 . S
H647 C643 0.950 . S
H648 C645 0.950 . S
C649 C640 1.390 . S
C649 H642 0.950 . S
C649 C646 1.387 . S
C650 C651 1.387 . S
C650 H654 0.950 . S
C650 C659 1.390 . S
C651 C650 1.387 . S
C651 C653 1.387 . S
H652 C659 0.950 . S
C653 C651 1.387 . S
C653 C655 1.390 . S
C653 H657 0.950 . S
H654 C650 0.950 . S
C655 C653 1.390 . S
C655 C656 1.387 . S
C655 H658 0.950 . S
C656 C655 1.387 . S
C656 C659 1.387 . S
H657 C653 0.950 . S
H658 C655 0.950 . S
C659 C650 1.390 . S
C659 H652 0.950 . S
C659 C656 1.387 . S
C660 C661 1.387 . S
C660 H664 0.950 . S
C660 C669 1.390 . S
C661 C660 1.387 . S
C661 C663 1.387 . S
H662 C669 0.950 . S
C663 C661 1.387 . S
C663 C665 1.390 . S
C663 H667 0.950 . S
H664 C660 0.950 . S
C665 C663 1.390 . S
C665 C666 1.387 . S
C665 H668 0.950 . S
C666 C665 1.387 . S
C666 C669 1.387 . S
H667 C663 0.950 . S
H668 C665 0.950 . S
C669 C660 1.390 . S
C669 H662 0.950 . S
C669 C666 1.387 . S
C670 C671 1.407 . S
C670 H674 0.950 . S
C670 C679 1.390 . S
C671 C670 1.407 . S
C671 C673 1.369 1_455 S
H672 C679 0.950 . S
C673 C671 1.369 1_655 S
C673 C675 1.390 . S
C673 H677 0.950 . S
H674 C670 0.950 . S
C675 C673 1.390 . S
C675 C676 1.387 1_655 S
C675 H678 0.950 . S
C676 C675 1.387 1_455 S
C676 C679 1.387 . S
H677 C673 0.950 . S
H678 C675 0.950 . S
C679 C670 1.390 . S
C679 H672 0.950 . S
C679 C676 1.387 . S
C680 C681 1.358 1_545 S
C680 H684 0.950 . S
C680 C689 1.390 . S
C681 C680 1.358 1_565 S
C681 C683 1.411 . S
H682 C689 0.950 . S
C683 C681 1.411 . S
C683 C685 1.390 . S
C683 H687 0.950 . S
H684 C680 0.950 . S
C685 C683 1.390 . S
C685 C686 1.387 . S
C685 H688 0.950 . S
C686 C685 1.387 . S
C686 C689 1.387 1_565 S
H687 C683 0.950 . S
H688 C685 0.950 . S
C689 C680 1.390 . S
C689 H682 0.950 . S
C689 C686 1.387 1_545 S
C690 C691 1.387 . S
C690 H694 0.950 . S
C690 C699 1.390 . S
C691 C690 1.387 . S
C691 C693 1.387 . S
H692 C699 0.950 . S
C693 C691 1.387 . S
C693 C695 1.390 . S
C693 H697 0.950 1_556 S
H694 C690 0.950 . S
C695 C693 1.390 . S
C695 C696 1.387 . S
C695 H698 0.950 . S
C696 C695 1.387 . S
C696 C699 1.387 . S
H697 C693 0.950 1_554 S
H698 C695 0.950 . S
C699 C690 1.390 . S
C699 H692 0.950 . S
C699 C696 1.387 . S
C700 C701 1.387 . S
C700 H704 0.950 . S
C700 C709 1.390 . S
C701 C700 1.387 . S
C701 C703 1.387 . S
H702 C709 0.950 . S
C703 C701 1.387 . S
C703 C705 1.390 . S
C703 H707 0.950 . S
H704 C700 0.950 . S
C705 C703 1.390 . S
C705 C706 1.387 . S
C705 H708 0.950 . S
C706 C705 1.387 . S
C706 C709 1.387 . S
H707 C703 0.950 . S
H708 C705 0.950 . S
C709 C700 1.390 . S
C709 H702 0.950 . S
C709 C706 1.387 . S
C710 C711 1.365 1_455 S
C710 H714 0.950 . S
C710 C719 1.390 . S
C711 C710 1.365 1_655 S
C711 C713 1.411 . S
H712 C719 0.950 . S
C713 C711 1.411 . S
C713 C715 1.390 . S
C713 H717 0.950 . S
H714 C710 0.950 . S
C715 C713 1.390 . S
C715 C716 1.387 . S
C715 H718 0.950 . S
C716 C715 1.387 . S
C716 C719 1.387 1_655 S
H717 C713 0.950 . S
H718 C715 0.950 . S
C719 C710 1.390 . S
C719 H712 0.950 . S
C719 C716 1.387 1_455 S
C720 C721 1.387 . S
C720 H724 0.950 . S
C720 C729 1.390 . S
C721 C720 1.387 . S
C721 C723 1.387 . S
H722 C729 0.950 . S
C723 C721 1.387 . S
C723 C725 1.390 . S
C723 H727 0.950 . S
H724 C720 0.950 . S
C725 C723 1.390 . S
C725 C726 1.387 . S
C725 H728 0.950 . S
C726 C725 1.387 . S
C726 C729 1.387 . S
H727 C723 0.950 . S
H728 C725 0.950 . S
C729 C720 1.390 . S
C729 H722 0.950 . S
C729 C726 1.387 . S
C730 C731 1.387 1_565 S
C730 H734 0.950 . S
C730 C739 1.390 . S
C731 C730 1.387 1_545 S
C731 C733 1.387 1_545 S
H732 C739 0.950 . S
C733 C731 1.387 1_565 S
C733 C735 1.390 . S
C733 H737 0.950 1_565 S
H734 C730 0.950 . S
C735 C733 1.390 . S
C735 C736 1.387 . S
C735 H738 0.950 . S
C736 C735 1.387 . S
C736 C739 1.387 . S
H737 C733 0.950 1_545 S
H738 C735 0.950 . S
C739 C730 1.390 . S
C739 H732 0.950 . S
C739 C736 1.387 . S
C740 C741 1.387 . S
C740 H744 0.950 . S
C740 C749 1.390 . S
C741 C740 1.387 . S
C741 C743 1.387 . S
H742 C749 0.950 . S
C743 C741 1.387 . S
C743 C745 1.390 . S
C743 H747 0.950 . S
H744 C740 0.950 . S
C745 C743 1.390 . S
C745 C746 1.387 . S
C745 H748 0.950 . S
C746 C745 1.387 . S
C746 C749 1.387 . S
H747 C743 0.950 . S
H748 C745 0.950 . S
C749 C740 1.390 . S
C749 H742 0.950 . S
C749 C746 1.387 . S
C750 C751 1.387 . S
C750 H754 0.950 . S
C750 C759 1.390 . S
C751 C750 1.387 . S
C751 C753 1.387 . S
H752 C759 0.950 . S
C753 C751 1.387 . S
C753 C755 1.390 . S
C753 H757 0.950 . S
H754 C750 0.950 . S
C755 C753 1.390 . S
C755 C756 1.387 . S
C755 H758 0.950 . S
C756 C755 1.387 . S
C756 C759 1.387 . S
H757 C753 0.950 . S
H758 C755 0.950 . S
C759 C750 1.390 . S
C759 H752 0.950 . S
C759 C756 1.387 . S
C760 C761 1.387 . S
C760 H764 0.950 . S
C760 C769 1.390 . S
C761 C760 1.387 . S
C761 C763 1.387 . S
H762 C769 0.950 . S
C763 C761 1.387 . S
C763 C765 1.390 . S
C763 H767 0.950 1_455 S
H764 C760 0.950 . S
C765 C763 1.390 . S
C765 C766 1.387 . S
C765 H768 0.950 1_554 S
C766 C765 1.387 . S
C766 C769 1.387 . S
H767 C763 0.950 1_655 S
H768 C765 0.950 1_556 S
C769 C760 1.390 . S
C769 H762 0.950 . S
C769 C766 1.387 . S
C770 C771 1.387 1_545 S
C770 H774 0.950 . S
C770 C779 1.390 . S
C771 C770 1.387 1_565 S
C771 C773 1.387 . S
H772 C779 0.950 . S
C773 C771 1.387 . S
C773 C775 1.390 1_565 S
C773 H777 0.950 . S
H774 C770 0.950 . S
C775 C773 1.390 1_545 S
C775 C776 1.387 . S
C775 H778 0.950 . S
C776 C775 1.387 . S
C776 C779 1.387 . S
H777 C773 0.950 . S
H778 C775 0.950 . S
C779 C770 1.390 . S
C779 H772 0.950 . S
C779 C776 1.387 . S
C780 C781 1.387 . S
C780 H784 0.950 . S
C780 C789 1.390 . S
C781 C780 1.387 . S
C781 C783 1.387 . S
H782 C789 0.950 . S
C783 C781 1.387 . S
C783 C785 1.390 . S
C783 H787 0.950 . S
H784 C780 0.950 . S
C785 C783 1.390 . S
C785 C786 1.387 . S
C785 H788 0.950 . S
C786 C785 1.387 . S
C786 C789 1.387 . S
H787 C783 0.950 . S
H788 C785 0.950 . S
C789 C780 1.390 . S
C789 H782 0.950 . S
C789 C786 1.387 . S
C790 C791 1.387 . S
C790 H794 0.950 . S
C790 C799 1.390 . S
C791 C790 1.387 . S
C791 C793 1.387 . S
H792 C799 0.950 . S
C793 C791 1.387 . S
C793 C795 1.390 . S
C793 H797 0.950 . S
H794 C790 0.950 . S
C795 C793 1.390 . S
C795 C796 1.387 . S
C795 H798 0.950 . S
C796 C795 1.387 . S
C796 C799 1.387 . S
H797 C793 0.950 . S
H798 C795 0.950 . S
C799 C790 1.390 . S
C799 H792 0.950 . S
C799 C796 1.387 . S
C800 C801 1.387 1_655 S
C800 H804 0.950 . S
C800 C809 1.390 . S
C801 C800 1.387 1_455 S
C801 C803 1.387 . S
H802 C809 0.950 . S
C803 C801 1.387 . S
C803 C805 1.390 . S
C803 H807 0.950 . S
H804 C800 0.950 . S
C805 C803 1.390 . S
C805 C806 1.387 . S
C805 H808 0.950 . S
C806 C805 1.387 . S
C806 C809 1.387 1_455 S
H807 C803 0.950 . S
H808 C805 0.950 . S
C809 C800 1.390 . S
C809 H802 0.950 . S
C809 C806 1.387 1_655 S
C810 C811 1.387 1_565 S
C810 H814 0.950 . S
C810 C819 1.390 . S
C811 C810 1.387 1_545 S
C811 C813 1.387 . S
H812 C819 0.950 . S
C813 C811 1.387 . S
C813 C815 1.390 . S
C813 H817 0.950 . S
H814 C810 0.950 . S
C815 C813 1.390 . S
C815 C816 1.387 . S
C815 H818 0.950 . S
C816 C815 1.387 . S
C816 C819 1.387 1_545 S
H817 C813 0.950 . S
H818 C815 0.950 . S
C819 C810 1.390 . S
C819 H812 0.950 . S
C819 C816 1.387 1_565 S
C820 C821 1.387 . S
C820 H824 0.950 . S
C820 C829 1.390 . S
C821 C820 1.387 . S
C821 C823 1.387 . S
H822 C829 0.950 . S
C823 C821 1.387 . S
C823 C825 1.390 . S
C823 H827 0.950 . S
H824 C820 0.950 . S
C825 C823 1.390 . S
C825 C826 1.387 . S
C825 H828 0.950 . S
C826 C825 1.387 . S
C826 C829 1.387 . S
H827 C823 0.950 . S
H828 C825 0.950 . S
C829 C820 1.390 . S
C829 H822 0.950 . S
C829 C826 1.387 . S
C830 C831 1.387 . S
C830 H834 0.950 . S
C830 C839 1.390 . S
C831 C830 1.387 . S
C831 C833 1.387 . S
H832 C839 0.950 . S
C833 C831 1.387 . S
C833 C835 1.390 . S
C833 H837 0.950 . S
H834 C830 0.950 . S
C835 C833 1.390 . S
C835 C836 1.387 . S
C835 H838 0.950 . S
C836 C835 1.387 . S
C836 C839 1.387 . S
H837 C833 0.950 . S
H838 C835 0.950 . S
C839 C830 1.390 . S
C839 H832 0.950 . S
C839 C836 1.387 . S
C840 C841 1.387 . S
C840 H844 0.950 . S
C840 C849 1.390 . S
C841 C840 1.387 . S
C841 C843 1.387 1_655 S
H842 C849 0.950 . S
C843 C841 1.387 1_455 S
C843 C845 1.390 . S
C843 H847 0.950 . S
H844 C840 0.950 . S
C845 C843 1.390 . S
C845 C846 1.387 1_455 S
C845 H848 0.950 . S
C846 C845 1.387 1_655 S
C846 C849 1.387 . S
H847 C843 0.950 . S
H848 C845 0.950 . S
C849 C840 1.390 . S
C849 H842 0.950 . S
C849 C846 1.387 . S
C850 C851 1.387 . S
C850 H854 0.950 . S
C850 C859 1.390 . S
C851 C850 1.387 . S
C851 C853 1.387 1_565 S
H852 C859 0.950 . S
C853 C851 1.387 1_545 S
C853 C855 1.390 . S
C853 H857 0.950 . S
H854 C850 0.950 . S
C855 C853 1.390 . S
C855 C856 1.387 1_545 S
C855 H858 0.950 . S
C856 C855 1.387 1_565 S
C856 C859 1.387 . S
H857 C853 0.950 . S
H858 C855 0.950 . S
C859 C850 1.390 . S
C859 H852 0.950 . S
C859 C856 1.387 . S
C860 C861 1.387 . S
C860 H864 0.950 . S
C860 C869 1.390 . S
C861 C860 1.387 . S
C861 C863 1.387 . S
H862 C869 0.950 . S
C863 C861 1.387 . S
C863 C865 1.390 . S
C863 H867 0.950 . S
H864 C860 0.950 . S
C865 C863 1.390 . S
C865 C866 1.387 . S
C865 H868 0.950 . S
C866 C865 1.387 . S
C866 C869 1.387 . S
H867 C863 0.950 . S
H868 C865 0.950 . S
C869 C860 1.390 . S
C869 H862 0.950 . S
C869 C866 1.387 . S
C870 C871 1.387 . S
C870 H874 0.950 . S
C870 C879 1.390 . S
C871 C870 1.387 . S
C871 C873 1.387 . S
H872 C879 0.950 . S
C873 C871 1.387 . S
C873 C875 1.390 . S
C873 H877 0.950 . S
H874 C870 0.950 . S
C875 C873 1.390 . S
C875 C876 1.387 . S
C875 H878 0.950 . S
C876 C875 1.387 . S
C876 C879 1.387 . S
H877 C873 0.950 . S
H878 C875 0.950 . S
C879 C870 1.390 . S
C879 H872 0.950 . S
C879 C876 1.387 . S
C641 C391 2.776 . S
C646 C503 2.928 1_545 S
C656 C543 1.754 . S
C651 C451 1.733 . S
C666 C562 2.988 . S
C661 C241 2.430 . S
C676 C623 2.211 1_455 S
C671 C331 1.753 1_455 S
C686 C482 2.929 1_564 S
C681 C121 2.406 . S
C691 C211 1.664 . S
C696 C522 1.758 . S
C701 C31 2.802 . S
C706 C583 2.988 1_554 S
C711 C91 1.753 . S
C716 C602 2.213 1_654 S
C726 C484 1.033 . S
C721 C301 1.018 . S
C736 C524 0.617 . S
C731 C380 0.501 . S
C746 C580 1.680 . S
C741 C440 1.603 . S
C751 C260 0.771 . S
C756 C604 0.778 . S
C761 C61 1.097 1_455 S
C766 C505 1.037 . S
C776 C545 0.625 . S
C771 C140 0.620 . S
C786 C591 1.680 . S
C781 C200 1.484 . S
C791 C20 0.778 . S
C796 C625 0.782 . S
C801 C320 2.707 1_455 S
C806 C500 2.939 . S
C811 C361 2.917 . S
C816 C540 3.603 . S
C826 C564 2.119 . S
C821 C421 1.882 . S
C836 C620 3.589 . S
C831 C271 3.317 . S
C841 C80 2.683 . S
C846 C511 2.949 . S
C856 C551 3.604 . S
C851 C151 3.334 . S
C866 C585 2.119 . S
C861 C181 1.920 . S
C871 C1 2.906 . S
C876 C631 3.594 . S
