# Generated by pormake.
# Topology wbl, (4,4)-cn, num edge types: 1
# Building blocks:
#     Node 0, Type 0, BuildingBlock: MUDLON_clean_linker_0, # of connection points: 4
#     Node 1, Type 0, BuildingBlock: MUDLON_clean_linker_0, # of connection points: 4
#     Node 2, Type 0, BuildingBlock: MUDLON_clean_linker_0, # of connection points: 4
#     Node 3, Type 0, BuildingBlock: MUDLON_clean_linker_0, # of connection points: 4
#     Node 4, Type 0, BuildingBlock: MUDLON_clean_linker_0, # of connection points: 4
#     Node 5, Type 0, BuildingBlock: MUDLON_clean_linker_0, # of connection points: 4
#     Node 6, Type 0, BuildingBlock: MUDLON_clean_linker_0, # of connection points: 4
#     Node 7, Type 0, BuildingBlock: MUDLON_clean_linker_0, # of connection points: 4
#     Node 8, Type 1, BuildingBlock: CEKHIL_clean_sbu_0, # of connection points: 4
#     Node 9, Type 1, BuildingBlock: CEKHIL_clean_sbu_0, # of connection points: 4
#     Node 10, Type 1, BuildingBlock: CEKHIL_clean_sbu_0, # of connection points: 4
#     Node 11, Type 1, BuildingBlock: CEKHIL_clean_sbu_0, # of connection points: 4
#     Node 12, Type 1, BuildingBlock: CEKHIL_clean_sbu_0, # of connection points: 4
#     Node 13, Type 1, BuildingBlock: CEKHIL_clean_sbu_0, # of connection points: 4
#     Node 14, Type 1, BuildingBlock: CEKHIL_clean_sbu_0, # of connection points: 4
#     Node 15, Type 1, BuildingBlock: CEKHIL_clean_sbu_0, # of connection points: 4
#     Edge 16, Type (0, 1), BuildingBlock: KIFKEQ_clean_linker_1, # of connection points: 2
#     Edge 17, Type (0, 1), BuildingBlock: KIFKEQ_clean_linker_1, # of connection points: 2
#     Edge 18, Type (0, 1), BuildingBlock: KIFKEQ_clean_linker_1, # of connection points: 2
#     Edge 19, Type (0, 1), BuildingBlock: KIFKEQ_clean_linker_1, # of connection points: 2
#     Edge 20, Type (0, 1), BuildingBlock: KIFKEQ_clean_linker_1, # of connection points: 2
#     Edge 21, Type (0, 1), BuildingBlock: KIFKEQ_clean_linker_1, # of connection points: 2
#     Edge 22, Type (0, 1), BuildingBlock: KIFKEQ_clean_linker_1, # of connection points: 2
#     Edge 23, Type (0, 1), BuildingBlock: KIFKEQ_clean_linker_1, # of connection points: 2
#     Edge 24, Type (0, 1), BuildingBlock: KIFKEQ_clean_linker_1, # of connection points: 2
#     Edge 25, Type (0, 1), BuildingBlock: KIFKEQ_clean_linker_1, # of connection points: 2
#     Edge 26, Type (0, 1), BuildingBlock: KIFKEQ_clean_linker_1, # of connection points: 2
#     Edge 27, Type (0, 1), BuildingBlock: KIFKEQ_clean_linker_1, # of connection points: 2
#     Edge 28, Type (0, 1), BuildingBlock: KIFKEQ_clean_linker_1, # of connection points: 2
#     Edge 29, Type (0, 1), BuildingBlock: KIFKEQ_clean_linker_1, # of connection points: 2
#     Edge 30, Type (0, 1), BuildingBlock: KIFKEQ_clean_linker_1, # of connection points: 2
#     Edge 31, Type (0, 1), BuildingBlock: KIFKEQ_clean_linker_1, # of connection points: 2
#     Edge 32, Type (0, 1), BuildingBlock: KIFKEQ_clean_linker_1, # of connection points: 2
#     Edge 33, Type (0, 1), BuildingBlock: KIFKEQ_clean_linker_1, # of connection points: 2
#     Edge 34, Type (0, 1), BuildingBlock: KIFKEQ_clean_linker_1, # of connection points: 2
#     Edge 35, Type (0, 1), BuildingBlock: KIFKEQ_clean_linker_1, # of connection points: 2
#     Edge 36, Type (0, 1), BuildingBlock: KIFKEQ_clean_linker_1, # of connection points: 2
#     Edge 37, Type (0, 1), BuildingBlock: KIFKEQ_clean_linker_1, # of connection points: 2
#     Edge 38, Type (0, 1), BuildingBlock: KIFKEQ_clean_linker_1, # of connection points: 2
#     Edge 39, Type (0, 1), BuildingBlock: KIFKEQ_clean_linker_1, # of connection points: 2
#     Edge 40, Type (0, 1), BuildingBlock: KIFKEQ_clean_linker_1, # of connection points: 2
#     Edge 41, Type (0, 1), BuildingBlock: KIFKEQ_clean_linker_1, # of connection points: 2
#     Edge 42, Type (0, 1), BuildingBlock: KIFKEQ_clean_linker_1, # of connection points: 2
#     Edge 43, Type (0, 1), BuildingBlock: KIFKEQ_clean_linker_1, # of connection points: 2
#     Edge 44, Type (0, 1), BuildingBlock: KIFKEQ_clean_linker_1, # of connection points: 2
#     Edge 45, Type (0, 1), BuildingBlock: KIFKEQ_clean_linker_1, # of connection points: 2
#     Edge 46, Type (0, 1), BuildingBlock: KIFKEQ_clean_linker_1, # of connection points: 2
#     Edge 47, Type (0, 1), BuildingBlock: KIFKEQ_clean_linker_1, # of connection points: 2
# Relax obj value: 0.124
# Max RMSD: 0.149
# Mean RMSD: 0.134
data_MOF--net-wbl--node1-CEKHIL_clean_sbu_0--node2-MUDLON_clean_linker_0--edge1-KIFKEQ_clean_linker_1
_symmetry_space_group_name_H-M    P1
_symmetry_Int_Tables_number       1
_symmetry_cell_setting            triclinic
loop_
_symmetry_equiv_pos_as_xyz
'x, y, z'
_cell_length_a     54.143707
_cell_length_b     54.382063
_cell_length_c     77.88294
_cell_angle_alpha  90.327232
_cell_angle_beta   90.10452
_cell_angle_gamma 90.017994
loop_
_atom_site_label
_atom_site_type_symbol
_atom_site_fract_x
_atom_site_fract_y
_atom_site_fract_z
_atom_type_partial_charge
H0 H 0.10969 0.96632 0.32257 0.0
N1 N 0.07282 0.94723 0.3024 0.0
H2 H 0.12157 0.95221 0.35101 0.0
H3 H 0.04893 0.9151 0.32186 0.0
H4 H 0.06041 0.9011 0.35065 0.0
H5 H 0.08051 0.90353 0.28833 0.0
H6 H 0.11866 0.88874 0.27503 0.0
H7 H 0.11085 0.97675 0.29099 0.0
H8 H 0.14892 0.96211 0.27791 0.0
H9 H 0.08428 0.99557 0.30946 0.0
H10 H 0.02743 0.94773 0.28965 0.0
H11 H 0.05687 0.03062 0.30678 0.0
H12 H 0.99901 0.98254 0.28805 0.0
H13 H 0.95084 0.13477 0.31473 0.0
H14 H 0.93455 0.1467 0.34299 0.0
H15 H 0.92531 0.07014 0.3558 0.0
H16 H 0.94094 0.05831 0.32746 0.0
H17 H 0.91779 0.05505 0.30051 0.0
H18 H 0.87677 0.06115 0.28819 0.0
H19 H 0.90083 0.13013 0.26661 0.0
H20 H 0.94174 0.12405 0.27936 0.0
H21 H 0.99427 0.08129 0.32185 0.0
H22 H 0.02339 0.04767 0.32059 0.0
H23 H 0.98696 0.01955 0.27514 0.0
N24 N 0.95469 0.08954 0.30164 0.0
H25 H 0.95689 0.05248 0.27693 0.0
C26 C 0.07829 0.94175 0.32009 0.0
C27 C 0.09852 0.95243 0.32868 0.0
C28 C 0.10534 0.9443 0.345 0.0
C29 C 0.09207 0.92537 0.35306 0.0
C30 C 0.07129 0.9154 0.34467 0.0
C31 C 0.06452 0.92354 0.32834 0.0
C32 C 0.09262 0.94118 0.29073 0.0
C33 C 0.09507 0.91656 0.28555 0.0
C34 C 0.11698 0.9081 0.27815 0.0
C35 C 0.13694 0.92418 0.27568 0.0
C36 C 0.13384 0.94927 0.27961 0.0
C37 C 0.11193 0.9577 0.28713 0.0
C38 C 0.05808 0.9689 0.29944 0.0
C39 C 0.06603 0.99257 0.30426 0.0
C40 C 0.05002 0.01268 0.30301 0.0
C41 C 0.02545 0.00957 0.29737 0.0
C42 C 0.01781 0.9859 0.2922 0.0
C43 C 0.03399 0.96589 0.29317 0.0
C44 C 0.94743 0.09574 0.31903 0.0
C45 C 0.94554 0.1206 0.32372 0.0
C46 C 0.93611 0.12736 0.33976 0.0
C47 C 0.92873 0.1093 0.3515 0.0
C48 C 0.93107 0.08438 0.34699 0.0
C49 C 0.94002 0.07763 0.33082 0.0
C50 C 0.9329 0.08918 0.29086 0.0
C51 C 0.91445 0.07114 0.29274 0.0
C52 C 0.89097 0.07467 0.28564 0.0
C53 C 0.8854 0.09632 0.2766 0.0
C54 C 0.90439 0.11345 0.27373 0.0
C55 C 0.92786 0.10987 0.2808 0.0
C56 C 0.97195 0.06898 0.30028 0.0
C57 C 0.99201 0.06762 0.3118 0.0
C58 C 0.00913 0.04849 0.31086 0.0
C59 C 0.00754 0.03052 0.29786 0.0
C60 C 0.98839 0.03254 0.28568 0.0
C61 C 0.97096 0.05156 0.28677 0.0
H62 H 0.96016 0.40801 0.57174 0.0
N63 N 0.94004 0.44776 0.55558 0.0
H64 H 0.95096 0.39444 0.60091 0.0
H65 H 0.9152 0.47249 0.57949 0.0
H66 H 0.90567 0.45894 0.60868 0.0
H67 H 0.89391 0.43281 0.5519 0.0
H68 H 0.87964 0.39432 0.53982 0.0
H69 H 0.96764 0.4176 0.53392 0.0
H70 H 0.95318 0.3801 0.52036 0.0
H71 H 0.98895 0.43487 0.55797 0.0
H72 H 0.93957 0.49381 0.5446 0.0
H73 H 0.0242 0.46213 0.55446 0.0
H74 H 0.97462 0.52184 0.54207 0.0
H75 H 0.12668 0.57054 0.56793 0.0
H76 H 0.13616 0.58751 0.59623 0.0
H77 H 0.05792 0.59261 0.60704 0.0
H78 H 0.04882 0.57747 0.57824 0.0
H79 H 0.04926 0.60285 0.55119 0.0
H80 H 0.05795 0.64336 0.539 0.0
H81 H 0.12787 0.61654 0.52008 0.0
H82 H 0.11893 0.576 0.53215 0.0
H83 H 0.07658 0.52322 0.57095 0.0
H84 H 0.04299 0.49388 0.56936 0.0
H85 H 0.01035 0.53519 0.52786 0.0
N86 N 0.08246 0.56495 0.55345 0.0
H87 H 0.04333 0.56522 0.53003 0.0
C88 C 0.93829 0.44134 0.57348 0.0
C89 C 0.94877 0.41954 0.57987 0.0
C90 C 0.94328 0.41167 0.59647 0.0
C91 C 0.92739 0.4255 0.60702 0.0
C92 C 0.9181 0.44797 0.60092 0.0
C93 C 0.92349 0.45575 0.58428 0.0
C94 C 0.93187 0.42821 0.54419 0.0
C95 C 0.90685 0.42158 0.54474 0.0
C96 C 0.89869 0.39938 0.53768 0.0
C97 C 0.91522 0.3834 0.52923 0.0
C98 C 0.93994 0.39121 0.52731 0.0
C99 C 0.94828 0.41311 0.53492 0.0
C100 C 0.96151 0.46222 0.55129 0.0
C101 C 0.98568 0.45361 0.55401 0.0
C102 C 0.00589 0.46944 0.55224 0.0
C103 C 0.00242 0.49444 0.54819 0.0
C104 C 0.97822 0.50273 0.54495 0.0
C105 C 0.95808 0.48675 0.54643 0.0
C106 C 0.08716 0.5724 0.57102 0.0
C107 C 0.11165 0.57519 0.57651 0.0
C108 C 0.11698 0.58481 0.59276 0.0
C109 C 0.09784 0.59149 0.60409 0.0
C110 C 0.07321 0.58822 0.59864 0.0
C111 C 0.06792 0.57914 0.58222 0.0
C112 C 0.08344 0.58626 0.54245 0.0
C113 C 0.06601 0.60541 0.54384 0.0
C114 C 0.07104 0.62858 0.53693 0.0
C115 C 0.09372 0.63314 0.52879 0.0
C116 C 0.11034 0.61358 0.52643 0.0
C117 C 0.10514 0.59036 0.53312 0.0
C118 C 0.06226 0.54744 0.55135 0.0
C119 C 0.06205 0.52625 0.56163 0.0
C120 C 0.04289 0.50914 0.5605 0.0
C121 C 0.02363 0.51211 0.54856 0.0
C122 C 0.02443 0.53258 0.53756 0.0
C123 C 0.0435 0.54997 0.53886 0.0
H124 H 0.60142 0.45991 0.82008 0.0
N125 N 0.56202 0.44051 0.80276 0.0
H126 H 0.61567 0.44787 0.84858 0.0
H127 H 0.53803 0.41261 0.82512 0.0
H128 H 0.55191 0.40068 0.85386 0.0
H129 H 0.57718 0.395 0.79725 0.0
H130 H 0.6158 0.38192 0.78474 0.0
H131 H 0.59192 0.46971 0.78211 0.0
H132 H 0.62955 0.45654 0.7681 0.0
H133 H 0.57509 0.48907 0.80663 0.0
H134 H 0.51529 0.4407 0.79268 0.0
H135 H 0.54783 0.52438 0.80417 0.0
H136 H 0.48717 0.47566 0.79148 0.0
H137 H 0.43832 0.62897 0.81581 0.0
H138 H 0.42285 0.64074 0.84413 0.0
H139 H 0.42324 0.56425 0.85912 0.0
H140 H 0.43694 0.55269 0.83052 0.0
H141 H 0.40558 0.55273 0.80682 0.0
H142 H 0.36488 0.55874 0.79445 0.0
H143 H 0.3935 0.61837 0.76372 0.0
H144 H 0.43382 0.61334 0.77742 0.0
H145 H 0.48802 0.57804 0.82025 0.0
H146 H 0.51699 0.54421 0.81858 0.0
H147 H 0.47297 0.51083 0.77835 0.0
N148 N 0.44509 0.58369 0.80341 0.0
H149 H 0.44315 0.54369 0.78089 0.0
C150 C 0.56857 0.43713 0.82053 0.0
C151 C 0.59018 0.44749 0.82755 0.0
C152 C 0.59835 0.44051 0.84384 0.0
C153 C 0.58507 0.42308 0.8534 0.0
C154 C 0.5628 0.41377 0.84668 0.0
C155 C 0.55467 0.42076 0.83039 0.0
C156 C 0.58156 0.43335 0.79106 0.0
C157 C 0.58834 0.40847 0.79062 0.0
C158 C 0.61061 0.401 0.7833 0.0
C159 C 0.62652 0.41814 0.77554 0.0
C160 C 0.61853 0.44281 0.77453 0.0
C161 C 0.59655 0.45042 0.78243 0.0
C162 C 0.54735 0.46215 0.79944 0.0
C163 C 0.55614 0.48604 0.80278 0.0
C164 C 0.54027 0.50629 0.80167 0.0
C165 C 0.515 0.50312 0.79778 0.0
C166 C 0.50647 0.47915 0.79418 0.0
C167 C 0.52251 0.45901 0.79491 0.0
C168 C 0.43913 0.59007 0.82102 0.0
C169 C 0.43529 0.61484 0.82532 0.0
C170 C 0.42649 0.6215 0.84156 0.0
C171 C 0.4216 0.60348 0.85402 0.0
C172 C 0.42618 0.57866 0.84982 0.0
C173 C 0.43447 0.572 0.83348 0.0
C174 C 0.42269 0.58293 0.79326 0.0
C175 C 0.40314 0.56694 0.79731 0.0
C176 C 0.3798 0.57032 0.79002 0.0
C177 C 0.37552 0.58939 0.7782 0.0
C178 C 0.39573 0.604 0.77315 0.0
C179 C 0.41896 0.60092 0.78074 0.0
C180 C 0.46237 0.56325 0.80148 0.0
C181 C 0.48427 0.56323 0.81127 0.0
C182 C 0.50119 0.54392 0.81006 0.0
C183 C 0.4974 0.52437 0.79844 0.0
C184 C 0.47625 0.52503 0.78788 0.0
C185 C 0.45899 0.54412 0.78935 0.0
H186 H 0.46717 0.90557 0.07115 0.0
N187 N 0.44664 0.94378 0.05316 0.0
H188 H 0.45541 0.89199 0.0997 0.0
H189 H 0.41595 0.96608 0.07486 0.0
H190 H 0.40403 0.95248 0.10368 0.0
H191 H 0.4028 0.93461 0.03943 0.0
H192 H 0.38939 0.89633 0.0257 0.0
H193 H 0.4778 0.90812 0.04012 0.0
H194 H 0.46454 0.86968 0.02714 0.0
H195 H 0.49552 0.93392 0.06006 0.0
H196 H 0.44577 0.98912 0.04076 0.0
H197 H 0.52966 0.96269 0.05827 0.0
H198 H 0.4798 0.01874 0.0398 0.0
H199 H 0.62975 0.06151 0.07165 0.0
H200 H 0.6403 0.07523 0.10079 0.0
H201 H 0.56506 0.09943 0.10827 0.0
H202 H 0.55471 0.08562 0.07917 0.0
H203 H 0.5523 0.10182 0.05101 0.0
H204 H 0.56113 0.14203 0.03842 0.0
H205 H 0.6336 0.11655 0.02369 0.0
H206 H 0.62467 0.07643 0.03636 0.0
H207 H 0.57621 0.02662 0.07633 0.0
H208 H 0.54318 0.99697 0.0739 0.0
H209 H 0.51814 0.0317 0.02728 0.0
N210 N 0.58632 0.06497 0.05581 0.0
H211 H 0.5508 0.06218 0.03001 0.0
C212 C 0.44231 0.93693 0.07078 0.0
C213 C 0.45362 0.91619 0.07815 0.0
C214 C 0.44674 0.90827 0.09447 0.0
C215 C 0.42864 0.92103 0.10384 0.0
C216 C 0.41813 0.94235 0.09678 0.0
C217 C 0.42488 0.95014 0.08036 0.0
C218 C 0.4412 0.92435 0.041 0.0
C219 C 0.41649 0.92085 0.03616 0.0
C220 C 0.40882 0.89879 0.02856 0.0
C221 C 0.42577 0.87962 0.02568 0.0
C222 C 0.45093 0.88399 0.02913 0.0
C223 C 0.4586 0.90615 0.03665 0.0
C224 C 0.46793 0.95923 0.05033 0.0
C225 C 0.49191 0.95209 0.05514 0.0
C226 C 0.51148 0.96882 0.05437 0.0
C227 C 0.50753 0.99327 0.04913 0.0
C228 C 0.48368 1.00007 0.04374 0.0
C229 C 0.46417 0.98319 0.04432 0.0
C230 C 0.59156 0.0725 0.07327 0.0
C231 C 0.61558 0.0697 0.07964 0.0
C232 C 0.62153 0.07752 0.09625 0.0
C233 C 0.6035 0.08846 0.10679 0.0
C234 C 0.57941 0.09139 0.10036 0.0
C235 C 0.57345 0.08343 0.08377 0.0
C236 C 0.5879 0.08602 0.0446 0.0
C237 C 0.5698 0.10463 0.04463 0.0
C238 C 0.57487 0.12762 0.03742 0.0
C239 C 0.5982 0.13252 0.0303 0.0
C240 C 0.61558 0.1134 0.02928 0.0
C241 C 0.61041 0.09039 0.03631 0.0
C242 C 0.56556 0.04801 0.05405 0.0
C243 C 0.56334 0.02846 0.06575 0.0
C244 C 0.54459 0.01102 0.06416 0.0
C245 C 0.52778 0.01188 0.05042 0.0
C246 C 0.53037 0.03078 0.03827 0.0
C247 C 0.54915 0.04846 0.03993 0.0
H248 H 0.10194 0.55171 0.92923 0.0
N249 N 0.06184 0.57059 0.94601 0.0
H250 H 0.11554 0.5624 0.90038 0.0
H251 H 0.03685 0.59634 0.92284 0.0
H252 H 0.05027 0.60708 0.89378 0.0
H253 H 0.07594 0.61673 0.95039 0.0
H254 H 0.11445 0.6313 0.96241 0.0
H255 H 0.09265 0.54316 0.96721 0.0
H256 H 0.13013 0.55788 0.98074 0.0
H257 H 0.07647 0.52243 0.94237 0.0
H258 H 0.01579 0.56893 0.95745 0.0
H259 H 0.05044 0.48627 0.9454 0.0
H260 H 0.98904 0.53289 0.95968 0.0
H261 H 0.94434 0.38058 0.93243 0.0
H262 H 0.9286 0.3709 0.90355 0.0
H263 H 0.92129 0.44845 0.89323 0.0
H264 H 0.93636 0.45803 0.9221 0.0
H265 H 0.91171 0.45884 0.94843 0.0
H266 H 0.87082 0.45215 0.96062 0.0
H267 H 0.89524 0.3826 0.98112 0.0
H268 H 0.93613 0.38932 0.96855 0.0
H269 H 0.9901 0.43285 0.92861 0.0
H270 H 0.01848 0.46721 0.93039 0.0
H271 H 0.97815 0.4961 0.97386 0.0
N272 N 0.94898 0.42485 0.94702 0.0
H273 H 0.94913 0.46231 0.97167 0.0
C274 C 0.06824 0.5732 0.92814 0.0
C275 C 0.09018 0.5632 0.92141 0.0
C276 C 0.09799 0.56941 0.90491 0.0
C277 C 0.08409 0.58577 0.89487 0.0
C278 C 0.06156 0.59473 0.90132 0.0
C279 C 0.05373 0.58845 0.9178 0.0
C280 C 0.08133 0.57881 0.95746 0.0
C281 C 0.08751 0.60386 0.95728 0.0
C282 C 0.10971 0.6122 0.96432 0.0
C283 C 0.12613 0.5958 0.97237 0.0
C284 C 0.1187 0.57104 0.97404 0.0
C285 C 0.09681 0.56253 0.96644 0.0
C286 C 0.04814 0.54853 0.94989 0.0
C287 C 0.05761 0.52489 0.94656 0.0
C288 C 0.04251 0.50415 0.9481 0.0
C289 C 0.01743 0.50653 0.9526 0.0
C290 C 0.00827 0.53016 0.95642 0.0
C291 C 0.02351 0.55085 0.95512 0.0
C292 C 0.94192 0.41993 0.92938 0.0
C293 C 0.93955 0.39544 0.92385 0.0
C294 C 0.93039 0.38996 0.90748 0.0
C295 C 0.92378 0.40896 0.89624 0.0
C296 C 0.92644 0.4335 0.90164 0.0
C297 C 0.93512 0.43897 0.91811 0.0
C298 C 0.92707 0.42453 0.95762 0.0
C299 C 0.90849 0.44248 0.95594 0.0
C300 C 0.88509 0.43863 0.96296 0.0
C301 C 0.87968 0.4167 0.97169 0.0
C302 C 0.89872 0.39952 0.97427 0.0
C303 C 0.92216 0.40345 0.9673 0.0
C304 C 0.96616 0.44536 0.94916 0.0
C305 C 0.98699 0.44675 0.93839 0.0
C306 C 0.00358 0.46632 0.93961 0.0
C307 C 1.00052 0.4848 0.95213 0.0
C308 C 0.98068 0.48268 0.96369 0.0
C309 C 0.96385 0.46317 0.96234 0.0
H310 H 0.53719 0.43007 0.1679 0.0
N311 N 0.56838 0.44083 0.19461 0.0
H312 H 0.54931 0.41786 0.1389 0.0
H313 H 0.61367 0.44072 0.1815 0.0
H314 H 0.62601 0.42887 0.15235 0.0
H315 H 0.59789 0.43358 0.22147 0.0
H316 H 0.60947 0.39373 0.2338 0.0
H317 H 0.54321 0.39751 0.18985 0.0
H318 H 0.55509 0.35784 0.20176 0.0
H319 H 0.52016 0.43036 0.20411 0.0
H320 H 0.56998 0.4891 0.19082 0.0
H321 H 0.48649 0.45968 0.20667 0.0
H322 H 0.53609 0.51841 0.19229 0.0
H323 H 0.38214 0.56787 0.18475 0.0
H324 H 0.36901 0.58115 0.15627 0.0
H325 H 0.44471 0.57714 0.13882 0.0
H326 H 0.45773 0.56527 0.16753 0.0
H327 H 0.45531 0.60262 0.18832 0.0
H328 H 0.45002 0.64333 0.20056 0.0
H329 H 0.39842 0.614 0.23752 0.0
H330 H 0.40286 0.57322 0.22432 0.0
H331 H 0.42619 0.5136 0.18979 0.0
H332 H 0.45973 0.48375 0.19065 0.0
H333 H 0.5091 0.54046 0.20931 0.0
N334 N 0.42813 0.56168 0.19601 0.0
H335 H 0.47618 0.57029 0.20738 0.0
C336 C 0.57461 0.43653 0.17684 0.0
C337 C 0.55658 0.43021 0.16455 0.0
C338 C 0.56354 0.42319 0.14797 0.0
C339 C 0.58864 0.42224 0.14337 0.0
C340 C 0.60656 0.42904 0.15558 0.0
C341 C 0.59957 0.43611 0.17213 0.0
C342 C 0.56981 0.41866 0.20471 0.0
C343 C 0.58783 0.41723 0.21762 0.0
C344 C 0.59452 0.39448 0.22455 0.0
C345 C 0.58343 0.37275 0.21848 0.0
C346 C 0.56413 0.37433 0.20648 0.0
C347 C 0.55722 0.39707 0.19975 0.0
C348 C 0.54793 0.45752 0.19739 0.0
C349 C 0.52402 0.44953 0.20177 0.0
C350 C 0.50455 0.46643 0.20306 0.0
C351 C 0.50834 0.4916 0.19968 0.0
C352 C 0.53234 0.4994 0.1954 0.0
C353 C 0.5518 0.48262 0.19442 0.0
C354 C 0.42079 0.5654 0.17833 0.0
C355 C 0.39578 0.56947 0.17466 0.0
C356 C 0.38834 0.57701 0.15834 0.0
C357 C 0.4058 0.58044 0.1452 0.0
C358 C 0.43078 0.57522 0.14868 0.0
C359 C 0.43825 0.56803 0.16508 0.0
C360 C 0.42931 0.58476 0.20534 0.0
C361 C 0.44309 0.60481 0.19919 0.0
C362 C 0.44015 0.6282 0.20635 0.0
C363 C 0.42361 0.6322 0.22002 0.0
C364 C 0.41093 0.61181 0.22679 0.0
C365 C 0.4137 0.58839 0.21945 0.0
C366 C 0.4483 0.54437 0.19831 0.0
C367 C 0.44426 0.51955 0.19411 0.0
C368 C 0.4635 0.50242 0.19475 0.0
C369 C 0.48737 0.50955 0.19997 0.0
C370 C 0.49121 0.53427 0.20481 0.0
C371 C 0.47208 0.55151 0.20383 0.0
H372 H 0.40258 0.96045 0.42918 0.0
N373 N 0.44169 0.93986 0.44619 0.0
H374 H 0.38877 0.95055 0.40011 0.0
H375 H 0.4637 0.91027 0.42361 0.0
H376 H 0.44979 0.90002 0.39443 0.0
H377 H 0.42416 0.89555 0.453 0.0
H378 H 0.38449 0.88561 0.46565 0.0
H379 H 0.4135 0.97201 0.46611 0.0
H380 H 0.37473 0.96204 0.47975 0.0
H381 H 0.43048 0.98852 0.44052 0.0
H382 H 0.4879 0.93963 0.45775 0.0
H383 H 0.45835 0.02322 0.44318 0.0
H384 H 0.51667 0.97427 0.45952 0.0
H385 H 0.56225 0.12859 0.43677 0.0
H386 H 0.57966 0.14196 0.40946 0.0
H387 H 0.58979 0.06591 0.39445 0.0
H388 H 0.57377 0.0529 0.42213 0.0
H389 H 0.5969 0.049 0.44896 0.0
H390 H 0.6382 0.05603 0.46062 0.0
H391 H 0.61319 0.124 0.4837 0.0
H392 H 0.57199 0.11704 0.47161 0.0
H393 H 0.52002 0.07441 0.42833 0.0
H394 H 0.49151 0.04024 0.42888 0.0
H395 H 0.52886 0.01118 0.47345 0.0
N396 N 0.55941 0.08287 0.44871 0.0
H397 H 0.55829 0.04478 0.4724 0.0
C398 C 0.43448 0.9363 0.42849 0.0
C399 C 0.41339 0.94773 0.42157 0.0
C400 C 0.40539 0.94192 0.40497 0.0
C401 C 0.41812 0.92441 0.39504 0.0
C402 C 0.43944 0.91336 0.40187 0.0
C403 C 0.44755 0.91935 0.41842 0.0
C404 C 0.42184 0.93453 0.45806 0.0
C405 C 0.4137 0.91008 0.45917 0.0
C406 C 0.3909 0.90443 0.46651 0.0
C407 C 0.37585 0.9231 0.4734 0.0
C408 C 0.38526 0.94726 0.47397 0.0
C409 C 0.40782 0.953 0.46621 0.0
C410 C 0.45698 0.9613 0.44915 0.0
C411 C 0.44906 0.98518 0.445 0.0
C412 C 0.46525 0.00511 0.44633 0.0
C413 C 0.49 0.00167 0.45137 0.0
C414 C 0.49773 0.97781 0.45582 0.0
C415 C 0.48134 0.95792 0.45476 0.0
C416 C 0.56651 0.08985 0.43149 0.0
C417 C 0.56798 0.11487 0.42745 0.0
C418 C 0.57789 0.12244 0.4118 0.0
C419 C 0.58632 0.10504 0.39971 0.0
C420 C 0.58404 0.07988 0.40356 0.0
C421 C 0.57454 0.07236 0.41933 0.0
C422 C 0.5813 0.0826 0.45939 0.0
C423 C 0.6001 0.06503 0.45696 0.0
C424 C 0.62375 0.06909 0.46366 0.0
C425 C 0.62911 0.0908 0.47286 0.0
C426 C 0.60978 0.10732 0.47641 0.0
C427 C 0.58615 0.10322 0.46973 0.0
C428 C 0.54269 0.06182 0.44954 0.0
C429 C 0.52263 0.06044 0.43802 0.0
C430 C 0.50588 0.04097 0.43855 0.0
C431 C 0.50787 0.02264 0.45113 0.0
C432 C 0.52712 0.02452 0.46325 0.0
C433 C 0.54417 0.04392 0.46258 0.0
H434 H 0.03243 0.93202 0.66801 0.0
N435 N 0.06252 0.94225 0.69549 0.0
H436 H 0.04573 0.92078 0.63912 0.0
H437 H 0.10828 0.94283 0.6832 0.0
H438 H 0.12182 0.93181 0.65414 0.0
H439 H 0.09016 0.93542 0.72334 0.0
H440 H 0.10169 0.89575 0.73599 0.0
H441 H 0.03908 0.89827 0.68947 0.0
H442 H 0.05087 0.85884 0.70175 0.0
H443 H 0.0133 0.93071 0.70036 0.0
H444 H 0.06478 0.99084 0.69622 0.0
H445 H 0.97921 0.95977 0.70246 0.0
H446 H 0.0307 0.02011 0.69759 0.0
H447 H 0.87826 0.07043 0.68123 0.0
H448 H 0.86803 0.08512 0.65256 0.0
H449 H 0.9455 0.0828 0.63903 0.0
H450 H 0.95554 0.06989 0.66808 0.0
H451 H 0.95488 0.10236 0.6921 0.0
H452 H 0.94882 0.14322 0.70449 0.0
H453 H 0.88413 0.11714 0.73117 0.0
H454 H 0.89041 0.07609 0.71866 0.0
H455 H 0.92328 0.0172 0.68329 0.0
H456 H 0.95644 0.98704 0.68505 0.0
H457 H 0.99997 0.0385 0.71483 0.0
N458 N 0.92296 0.06352 0.69461 0.0
H459 H 0.96746 0.06872 0.71258 0.0
C460 C 0.06943 0.93856 0.67777 0.0
C461 C 0.05193 0.93246 0.66505 0.0
C462 C 0.05958 0.92596 0.64852 0.0
C463 C 0.08484 0.92528 0.64438 0.0
C464 C 0.10225 0.93183 0.65701 0.0
C465 C 0.09457 0.93843 0.67352 0.0
C466 C 0.06388 0.91995 0.70544 0.0
C467 C 0.08085 0.91885 0.71904 0.0
C468 C 0.0875 0.89622 0.72617 0.0
C469 C 0.07744 0.87427 0.71962 0.0
C470 C 0.05912 0.8755 0.70686 0.0
C471 C 0.05224 0.89811 0.69993 0.0
C472 C 0.04183 0.9586 0.69828 0.0
C473 C 0.0174 0.95014 0.70005 0.0
C474 C 0.99777 0.96689 0.70107 0.0
C475 C 0.00206 0.99241 0.70015 0.0
C476 C 0.02658 1.0007 0.69867 0.0
C477 C 0.04614 0.98399 0.6978 0.0
C478 C 0.91754 0.06878 0.6768 0.0
C479 C 0.89294 0.07285 0.67196 0.0
C480 C 0.88716 0.08119 0.65551 0.0
C481 C 0.90591 0.08531 0.64335 0.0
C482 C 0.93055 0.08042 0.64808 0.0
C483 C 0.93635 0.07259 0.66466 0.0
C484 C 0.9232 0.086 0.70463 0.0
C485 C 0.93985 0.1052 0.70103 0.0
C486 C 0.93633 0.12859 0.70812 0.0
C487 C 0.9159 0.13344 0.71873 0.0
C488 C 0.89993 0.11399 0.72293 0.0
C489 C 0.90364 0.0905 0.71598 0.0
C490 C 0.9427 0.04574 0.69723 0.0
C491 C 0.93999 0.02203 0.69019 0.0
C492 C 0.95895 0.00466 0.69135 0.0
C493 C 0.98113 0.01033 0.69994 0.0
C494 C 0.98347 0.03366 0.70771 0.0
C495 C 0.96459 0.05115 0.70639 0.0
Co496 Co 0.34056 0.66078 0.00433 0.0
O497 O 0.31725 0.63456 0.00048 0.0
O498 O 0.30996 0.67397 0.99536 0.0
C499 C 0.35198 0.64865 0.03086 0.0
O500 O 0.35961 0.69301 0.00714 0.0
Co501 Co 0.3963 0.64967 0.00963 0.0
O502 O 0.39908 0.68542 0.01438 0.0
C503 C 0.3736 0.64366 0.97546 0.0
C504 C 0.30195 0.65142 0.99547 0.0
C505 C 0.38141 0.70032 0.01147 0.0
O506 O 0.35435 0.65561 0.98048 0.0
O507 O 0.39098 0.63713 0.98562 0.0
O508 O 0.33207 0.66161 0.02871 0.0
O509 O 0.36312 0.64197 0.01697 0.0
Co510 Co 0.34972 0.85402 0.2443 0.0
O511 O 0.32715 0.88136 0.2454 0.0
O512 O 0.31782 0.84312 0.25248 0.0
C513 C 0.36453 0.86273 0.21795 0.0
O514 O 0.36743 0.82082 0.24408 0.0
Co515 Co 0.40632 0.86215 0.24157 0.0
O516 O 0.40813 0.82589 0.2394 0.0
C517 C 0.38029 0.87371 0.27376 0.0
C518 C 0.3107 0.86582 0.25073 0.0
C519 C 0.38932 0.81219 0.24163 0.0
O520 O 0.36124 0.86159 0.2685 0.0
O521 O 0.39892 0.87822 0.26419 0.0
O522 O 0.34391 0.85071 0.21958 0.0
O523 O 0.37436 0.87047 0.23207 0.0
Co524 Co 0.15272 0.84748 0.49559 0.0
O525 O 0.12573 0.82487 0.49907 0.0
O526 O 0.16485 0.81716 0.50532 0.0
C527 C 0.14162 0.85833 0.46872 0.0
O528 O 0.18582 0.86526 0.49326 0.0
Co529 Co 0.14472 0.90315 0.4884 0.0
O530 O 0.17978 0.90223 0.48121 0.0
C531 C 0.13864 0.88368 0.5237 0.0
C532 C 0.14213 0.80944 0.50467 0.0
C533 C 0.19399 0.88506 0.48626 0.0
O534 O 0.14701 0.86243 0.51912 0.0
O535 O 0.13491 0.90125 0.51312 0.0
O536 O 0.15409 0.83824 0.47124 0.0
O537 O 0.13504 0.87006 0.48238 0.0
Co538 Co 0.15387 0.6674 0.75604 0.0
O539 O 0.1266 0.69004 0.75521 0.0
O540 O 0.16503 0.69915 0.74795 0.0
C541 C 0.14503 0.65231 0.78222 0.0
O542 O 0.18694 0.64937 0.75616 0.0
Co543 Co 0.14445 0.61111 0.75792 0.0
O544 O 0.1809 0.60878 0.76001 0.0
C545 C 0.13457 0.63767 0.72596 0.0
C546 C 0.14227 0.70632 0.74987 0.0
C547 C 0.19507 0.62731 0.75821 0.0
O548 O 0.14671 0.65633 0.73173 0.0
O549 O 0.12912 0.61903 0.73516 0.0
O550 O 0.15706 0.67289 0.78079 0.0
O551 O 0.1371 0.64286 0.76803 0.0
Co552 Co 0.85063 0.17034 0.49421 0.0
O553 O 0.87711 0.19332 0.49833 0.0
O554 O 0.83764 0.20049 0.50397 0.0
C555 C 0.86225 0.15995 0.46733 0.0
O556 O 0.81815 0.1516 0.49125 0.0
Co557 Co 0.86143 0.11498 0.48753 0.0
O558 O 0.82566 0.11299 0.48219 0.0
C559 C 0.86779 0.13608 0.52221 0.0
C560 C 0.8603 0.20843 0.50379 0.0
C561 C 0.81075 0.13035 0.48591 0.0
O562 O 0.85606 0.15561 0.51769 0.0
O563 O 0.87403 0.11907 0.51164 0.0
O564 O 0.84947 0.1798 0.47005 0.0
O565 O 0.86918 0.14829 0.4809 0.0
Co566 Co 0.84204 0.35456 0.74485 0.0
O567 O 0.819 0.38126 0.74784 0.0
O568 O 0.81038 0.34193 0.7522 0.0
C569 C 0.85654 0.3668 0.71913 0.0
O570 O 0.86047 0.32194 0.74259 0.0
Co571 Co 0.89858 0.36415 0.74216 0.0
O572 O 0.90026 0.32876 0.7359 0.0
C573 C 0.87264 0.37085 0.77512 0.0
C574 C 0.80291 0.36465 0.752 0.0
C575 C 0.8821 0.31424 0.73825 0.0
O576 O 0.85371 0.35906 0.76935 0.0
O577 O 0.89101 0.37705 0.76576 0.0
O578 O 0.83609 0.35435 0.72004 0.0
O579 O 0.86627 0.37294 0.73365 0.0
Co580 Co 0.65563 0.34641 0.99387 0.0
O581 O 0.62867 0.32372 0.99734 0.0
O582 O 0.66787 0.31595 0.0033 0.0
C583 C 0.64423 0.35781 0.96718 0.0
O584 O 0.68873 0.36419 0.99148 0.0
Co585 Co 0.64752 0.40225 0.98736 0.0
O586 O 0.6831 0.40251 0.98161 0.0
C587 C 0.64119 0.38184 0.02231 0.0
C588 C 0.64515 0.30824 0.00278 0.0
C589 C 0.69717 0.38476 0.9858 0.0
O590 O 0.65015 0.36091 0.01756 0.0
O591 O 0.63703 0.39949 0.01188 0.0
O592 O 0.65666 0.33762 0.96943 0.0
O593 O 0.63784 0.36928 0.98099 0.0
Co594 Co 0.6604 0.16694 0.25754 0.0
O595 O 0.63266 0.18881 0.25553 0.0
O596 O 0.67055 0.19737 0.24676 0.0
C597 C 0.6527 0.15655 0.28499 0.0
O598 O 0.69393 0.14953 0.25835 0.0
Co599 Co 0.65275 0.11133 0.26476 0.0
O600 O 0.68886 0.11139 0.26878 0.0
C601 C 0.64278 0.1309 0.23013 0.0
C602 C 0.64778 0.20449 0.24877 0.0
C603 C 0.70268 0.12895 0.26386 0.0
O604 O 0.65236 0.15174 0.23444 0.0
O605 O 0.63949 0.11335 0.24078 0.0
O606 O 0.66442 0.17679 0.28158 0.0
O607 O 0.64458 0.14442 0.27187 0.0
H608 H 0.16031 0.8837 0.28822 0.0
H609 H 0.16945 0.94297 0.25215 0.0
H610 H 0.2018 0.86921 0.28189 0.0
H611 H 0.21089 0.92811 0.24539 0.0
H612 H 0.29302 0.91267 0.25239 0.0
H613 H 0.25083 0.92601 0.25768 0.0
H614 H 0.22772 0.85012 0.26136 0.0
H615 H 0.27026 0.83686 0.25671 0.0
C616 C 0.17104 0.89335 0.27865 0.0
C617 C 0.16156 0.91445 0.27064 0.0
C618 C 0.19488 0.88501 0.275 0.0
C619 C 0.20985 0.89747 0.26314 0.0
C620 C 0.20012 0.9183 0.25484 0.0
C621 C 0.17632 0.92677 0.25862 0.0
C622 C 0.27894 0.89883 0.25438 0.0
C623 C 0.285 0.87371 0.25419 0.0
C624 C 0.25465 0.90647 0.25726 0.0
C625 C 0.23571 0.88919 0.25986 0.0
C626 C 0.24182 0.864 0.25964 0.0
C627 C 0.26621 0.85636 0.25691 0.0
H628 H 0.13649 0.65624 0.53746 0.0
H629 H 0.06754 0.66768 0.51087 0.0
H630 H 0.14811 0.69874 0.53233 0.0
H631 H 0.07954 0.71008 0.5049 0.0
H632 H 0.09623 0.79128 0.51146 0.0
H633 H 0.08472 0.74885 0.51728 0.0
H634 H 0.16121 0.72707 0.51219 0.0
H635 H 0.1727 0.76974 0.50734 0.0
C636 C 0.12402 0.6678 0.5302 0.0
C637 C 0.10117 0.65863 0.52448 0.0
C638 C 0.1307 0.69221 0.52719 0.0
C639 C 0.11484 0.70808 0.51816 0.0
C640 C 0.09208 0.69869 0.5122 0.0
C641 C 0.08523 0.67432 0.51547 0.0
C642 C 0.11058 0.77741 0.51175 0.0
C643 C 0.13537 0.78386 0.50903 0.0
C644 C 0.10396 0.75298 0.5149 0.0
C645 C 0.12195 0.73427 0.51512 0.0
C646 C 0.14682 0.74088 0.51245 0.0
C647 C 0.15346 0.76538 0.50959 0.0
H648 H 0.33679 0.55736 0.77258 0.0
H649 H 0.35551 0.6346 0.77048 0.0
H650 H 0.29405 0.5673 0.76693 0.0
H651 H 0.31327 0.64426 0.76293 0.0
H652 H 0.23082 0.65745 0.77137 0.0
H653 H 0.27466 0.64854 0.77457 0.0
H654 H 0.26404 0.57905 0.74817 0.0
H655 H 0.22002 0.5874 0.74621 0.0
C656 C 0.33195 0.57647 0.77073 0.0
C657 C 0.34985 0.59511 0.77227 0.0
C658 C 0.30731 0.58219 0.76713 0.0
C659 C 0.29985 0.6067 0.76451 0.0
C660 C 0.31798 0.62523 0.76524 0.0
C661 C 0.34252 0.61956 0.76924 0.0
C662 C 0.23799 0.64035 0.7662 0.0
C663 C 0.22202 0.62303 0.7587 0.0
C664 C 0.26322 0.63524 0.76791 0.0
C665 C 0.27319 0.6129 0.76175 0.0
C666 C 0.25717 0.5961 0.75356 0.0
C667 C 0.23189 0.60096 0.75228 0.0
H668 H 0.44756 0.84601 0.00394 0.0
H669 H 0.38436 0.8559 0.03708 0.0
H670 H 0.43571 0.80317 -0.00075 0.0
H671 H 0.37243 0.81331 0.03219 0.0
H672 H 0.34867 0.73889 0.00918 0.0
H673 H 0.35797 0.78288 0.01055 0.0
H674 H 0.43531 0.76631 0.01755 0.0
H675 H 0.42622 0.72262 0.01607 0.0
C676 C 0.43107 0.83915 0.01013 0.0
C677 C 0.41701 0.85447 0.02094 0.0
C678 C 0.42427 0.81459 0.00744 0.0
C679 C 0.40322 0.80478 0.01546 0.0
C680 C 0.38859 0.82035 0.02568 0.0
C681 C 0.39543 0.84485 0.02843 0.0
C682 C 0.36766 0.74463 0.011 0.0
C683 C 0.38666 0.72712 0.01256 0.0
C684 C 0.37297 0.76984 0.01181 0.0
C685 C 0.3974 0.7781 0.01404 0.0
C686 C 0.41635 0.7606 0.01553 0.0
C687 C 0.41106 0.73548 0.01485 0.0
H688 H 0.169 0.56839 0.97409 0.0
H689 H 0.1417 0.64228 0.98246 0.0
H690 H 0.21019 0.58209 0.98059 0.0
H691 H 0.18343 0.65664 0.98643 0.0
H692 H 0.26025 0.67472 0.00606 0.0
H693 H 0.21777 0.66108 0.00219 0.0
H694 H 0.24362 0.60089 0.97024 0.0
H695 H 0.28599 0.61342 0.97575 0.0
C696 C 0.17156 0.58759 0.97733 0.0
C697 C 0.15152 0.6041 0.97757 0.0
C698 C 0.19562 0.59568 0.98062 0.0
C699 C 0.20072 0.62074 0.98366 0.0
C700 C 0.18064 0.63718 0.98428 0.0
C701 C 0.15645 0.62892 0.9816 0.0
C702 C 0.25663 0.65866 -0.00186 0.0
C703 C 0.27623 0.64508 0.99118 0.0
C704 C 0.23222 0.6508 0.99582 0.0
C705 C 0.2268 0.62958 0.98598 0.0
C706 C 0.24669 0.61674 0.97842 0.0
C707 C 0.27109 0.62411 0.9813 0.0
H708 H 0.37956 0.6518 0.23125 0.0
H709 H 0.4561 0.67085 0.22292 0.0
H710 H 0.37076 0.69414 0.23923 0.0
H711 H 0.44688 0.71343 0.2293 0.0
H712 H 0.43015 0.78689 0.25163 0.0
H713 H 0.43774 0.74295 0.24944 0.0
H714 H 0.36504 0.73276 0.22734 0.0
H715 H 0.35704 0.77666 0.23066 0.0
C716 C 0.3946 0.66491 0.23123 0.0
C717 C 0.41857 0.65773 0.2263 0.0
C718 C 0.38943 0.68941 0.23552 0.0
C719 C 0.40797 0.70753 0.23478 0.0
C720 C 0.43206 0.70016 0.23029 0.0
C721 C 0.43731 0.67564 0.2263 0.0
C722 C 0.41573 0.77518 0.24645 0.0
C723 C 0.39307 0.78523 0.2412 0.0
C724 C 0.42013 0.74994 0.24505 0.0
C725 C 0.40221 0.73409 0.23794 0.0
C726 C 0.37924 0.74416 0.23309 0.0
C727 C 0.37465 0.7694 0.23488 0.0
H728 H 0.35593 0.88069 0.48717 0.0
H729 H 0.33568 0.95345 0.46994 0.0
H730 H 0.31246 0.87038 0.49019 0.0
H731 H 0.29269 0.94394 0.47455 0.0
H732 H 0.21793 0.91316 0.46284 0.0
H733 H 0.26181 0.92169 0.46098 0.0
H734 H 0.275 0.87529 0.50498 0.0
H735 H 0.23093 0.86574 0.50619 0.0
C736 C 0.34233 0.89464 0.48422 0.0
C737 C 0.3496 0.91786 0.47808 0.0
C738 C 0.3173 0.88879 0.48619 0.0
C739 C 0.29887 0.90615 0.48233 0.0
C740 C 0.30622 0.92979 0.47717 0.0
C741 C 0.33113 0.93547 0.4749 0.0
C742 C 0.23022 0.90468 0.47207 0.0
C743 C 0.22096 0.88888 0.48471 0.0
C744 C 0.25543 0.90976 0.47113 0.0
C745 C 0.27209 0.8996 0.48304 0.0
C746 C 0.26285 0.88335 0.4955 0.0
C747 C 0.23757 0.8779 0.49624 0.0
H748 H 0.08395 0.85637 0.75213 0.0
H749 H 0.09449 0.83809 0.69864 0.0
H750 H 0.10117 0.81627 0.76025 0.0
H751 H 0.11197 0.79834 0.70672 0.0
H752 H 0.16556 0.74094 0.73025 0.0
H753 H 0.15087 0.78248 0.72354 0.0
H754 H 0.08654 0.77069 0.75507 0.0
H755 H 0.10087 0.72917 0.76152 0.0
C756 C 0.09001 0.84379 0.74216 0.0
C757 C 0.08767 0.85015 0.72478 0.0
C758 C 0.0998 0.82092 0.74677 0.0
C759 C 0.10794 0.8043 0.73409 0.0
C760 C 0.10601 0.81089 0.71674 0.0
C761 C 0.09579 0.83349 0.71213 0.0
C762 C 0.14835 0.74729 0.73579 0.0
C763 C 0.13428 0.73179 0.74631 0.0
C764 C 0.13994 0.77098 0.73192 0.0
C765 C 0.1176 0.77974 0.73882 0.0
C766 C 0.1039 0.76446 0.7497 0.0
C767 C 0.11204 0.74065 0.75328 0.0
H768 H 0.66885 0.44651 0.77387 0.0
H769 H 0.64276 0.37244 0.76433 0.0
H770 H 0.71014 0.43386 0.76677 0.0
H771 H 0.68459 0.35904 0.7598 0.0
H772 H 0.76129 0.34184 0.74057 0.0
H773 H 0.71878 0.35538 0.74412 0.0
H774 H 0.74421 0.41552 0.77637 0.0
H775 H 0.78663 0.40311 0.77115 0.0
C776 C 0.67169 0.42749 0.77026 0.0
C777 C 0.65196 0.41061 0.76991 0.0
C778 C 0.69583 0.41999 0.7666 0.0
C779 C 0.70134 0.39514 0.76307 0.0
C780 C 0.68152 0.37837 0.76231 0.0
C781 C 0.65725 0.38606 0.76533 0.0
C782 C 0.75758 0.35793 0.74842 0.0
C783 C 0.77709 0.37146 0.7556 0.0
C784 C 0.73313 0.36572 0.75059 0.0
C785 C 0.72754 0.38679 0.76053 0.0
C786 C 0.74737 0.39975 0.76815 0.0
C787 C 0.77181 0.39246 0.76541 0.0
H788 H 0.57219 0.1656 0.01089 0.0
H789 H 0.64002 0.15707 0.03939 0.0
H790 H 0.58372 0.20785 0.004 0.0
H791 H 0.65118 0.19938 0.0332 0.0
H792 H 0.67594 0.26887 0.00642 0.0
H793 H 0.66471 0.22634 0.0121 0.0
H794 H 0.58789 0.24752 0.01561 0.0
H795 H 0.59915 0.28982 0.00907 0.0
C796 C 0.58952 0.17283 0.01572 0.0
C797 C 0.60529 0.15798 0.02554 0.0
C798 C 0.5961 0.19711 0.0119 0.0
C799 C 0.61844 0.20723 0.01804 0.0
C800 C 0.63412 0.19223 0.0279 0.0
C801 C 0.6277 0.16792 0.0315 0.0
C802 C 0.65667 0.26443 0.00848 0.0
C803 C 0.63844 0.2827 0.00732 0.0
C804 C 0.65019 0.24001 0.01181 0.0
C805 C 0.62532 0.23329 0.01434 0.0
C806 C 0.60715 0.25176 0.01341 0.0
C807 C 0.61362 0.27611 0.00982 0.0
H808 H 0.86128 0.14026 0.27986 0.0
H809 H 0.85054 0.06534 0.26273 0.0
H810 H 0.81767 0.14874 0.27509 0.0
H811 H 0.80684 0.07387 0.25783 0.0
H812 H 0.73976 0.16043 0.25369 0.0
H813 H 0.78431 0.15303 0.25436 0.0
H814 H 0.7715 0.08111 0.27587 0.0
H815 H 0.72736 0.08818 0.27491 0.0
C816 C 0.84973 0.12573 0.2747 0.0
C817 C 0.85942 0.10207 0.27174 0.0
C818 C 0.82467 0.13061 0.27197 0.0
C819 C 0.80865 0.11195 0.26622 0.0
C820 C 0.81855 0.08855 0.2626 0.0
C821 C 0.84361 0.08365 0.26537 0.0
C822 C 0.74646 0.14303 0.25851 0.0
C823 C 0.72986 0.12495 0.26425 0.0
C824 C 0.77202 0.1388 0.25894 0.0
C825 C 0.78153 0.1164 0.26507 0.0
C826 C 0.76488 0.09838 0.27074 0.0
C827 C 0.73947 0.10257 0.27033 0.0
H828 H 0.86852 0.36755 0.51956 0.0
H829 H 0.94321 0.34105 0.5265 0.0
H830 H 0.8545 0.326 0.51507 0.0
H831 H 0.9298 0.30006 0.51947 0.0
H832 H 0.89916 0.22395 0.52302 0.0
H833 H 0.91163 0.26603 0.52912 0.0
H834 H 0.84992 0.29237 0.49884 0.0
H835 H 0.83639 0.25016 0.49443 0.0
C836 C 0.88213 0.35302 0.52001 0.0
C837 C 0.90709 0.35812 0.52379 0.0
C838 C 0.87407 0.32893 0.51701 0.0
C839 C 0.89081 0.3091 0.51704 0.0
C840 C 0.91598 0.3144 0.51987 0.0
C841 C 0.9239 0.33836 0.52348 0.0
C842 C 0.88813 0.23889 0.51797 0.0
C843 C 0.86675 0.23394 0.50841 0.0
C844 C 0.89546 0.26314 0.52119 0.0
C845 C 0.88215 0.28312 0.5143 0.0
C846 C 0.86057 0.27787 0.50474 0.0
C847 C 0.85277 0.2536 0.50209 0.0
H848 H 0.65159 0.13547 0.46941 0.0
H849 H 0.66566 0.06088 0.48547 0.0
H850 H 0.69502 0.14549 0.47346 0.0
H851 H 0.70921 0.07096 0.48966 0.0
H852 H 0.7721 0.16029 0.49541 0.0
H853 H 0.72801 0.15104 0.49407 0.0
H854 H 0.74434 0.07994 0.47184 0.0
H855 H 0.78821 0.08886 0.47349 0.0
C856 C 0.66386 0.12133 0.47418 0.0
C857 C 0.65512 0.09735 0.47712 0.0
C858 C 0.68882 0.12709 0.47647 0.0
C859 C 0.7057 0.10901 0.48177 0.0
C860 C 0.69681 0.08522 0.48524 0.0
C861 C 0.67184 0.07944 0.4829 0.0
C862 C 0.76629 0.14269 0.49021 0.0
C863 C 0.78381 0.12534 0.48458 0.0
C864 C 0.74099 0.13741 0.48941 0.0
C865 C 0.73259 0.11467 0.48295 0.0
C866 C 0.75011 0.09744 0.47722 0.0
C867 C 0.77534 0.10268 0.47803 0.0
H868 H 0.87133 0.15684 0.71755 0.0
H869 H 0.94767 0.16814 0.73159 0.0
H870 H 0.86272 0.20011 0.72317 0.0
H871 H 0.93903 0.21136 0.73762 0.0
H872 H 0.85121 0.27617 0.74691 0.0
H873 H 0.85907 0.23214 0.74416 0.0
H874 H 0.93037 0.24761 0.72181 0.0
H875 H 0.92287 0.29138 0.72502 0.0
C876 C 0.88616 0.16848 0.72221 0.0
C877 C 0.91021 0.1591 0.72407 0.0
C878 C 0.88123 0.19332 0.72544 0.0
C879 C 0.90021 0.20937 0.73071 0.0
C880 C 0.92406 0.19971 0.7332 0.0
C881 C 0.92903 0.17491 0.72984 0.0
C882 C 0.86856 0.27016 0.74142 0.0
C883 C 0.88641 0.28739 0.73623 0.0
C884 C 0.87305 0.24489 0.73979 0.0
C885 C 0.89543 0.23623 0.73284 0.0
C886 C 0.91315 0.25351 0.72756 0.0
C887 C 0.90874 0.2787 0.72928 0.0
H888 H 0.84519 0.44724 0.98624 0.0
H889 H 0.85541 0.37295 0.96768 0.0
H890 H 0.80147 0.43877 0.99097 0.0
H891 H 0.81175 0.36452 0.97233 0.0
H892 H 0.73434 0.35275 0.99474 0.0
H893 H 0.77886 0.35983 0.99343 0.0
H894 H 0.76586 0.43218 0.97268 0.0
H895 H 0.72163 0.4254 0.97425 0.0
C896 C 0.83813 0.42907 0.98326 0.0
C897 C 0.85378 0.41082 0.97653 0.0
C898 C 0.81307 0.42422 0.98592 0.0
C899 C 0.80303 0.40103 0.98186 0.0
C900 C 0.81889 0.38249 0.97576 0.0
C901 C 0.84396 0.38733 0.97313 0.0
C902 C 0.74098 0.37017 0.9899 0.0
C903 C 0.72431 0.38849 0.98463 0.0
C904 C 0.76651 0.3742 0.98912 0.0
C905 C 0.77595 0.39665 0.98308 0.0
C906 C 0.75926 0.41487 0.97773 0.0
C907 C 0.73383 0.41086 0.9785 0.0
H908 H 0.59195 0.35488 0.25076 0.0
H909 H 0.5981 0.33608 0.19702 0.0
H910 H 0.60882 0.31444 0.25838 0.0
H911 H 0.61527 0.29596 0.20461 0.0
H912 H 0.66981 0.23781 0.22735 0.0
H913 H 0.65512 0.27927 0.2203 0.0
H914 H 0.59255 0.26926 0.25379 0.0
H915 H 0.60683 0.22787 0.26056 0.0
C916 C 0.59697 0.34211 0.24062 0.0
C917 C 0.5935 0.34842 0.22333 0.0
C918 C 0.60656 0.31905 0.24496 0.0
C919 C 0.61336 0.30217 0.23206 0.0
C920 C 0.61033 0.3087 0.21478 0.0
C921 C 0.6003 0.33152 0.21046 0.0
C922 C 0.65294 0.24451 0.23318 0.0
C923 C 0.63939 0.22957 0.24441 0.0
C924 C 0.64453 0.26815 0.22913 0.0
C925 C 0.62275 0.27743 0.23657 0.0
C926 C 0.60948 0.26263 0.248 0.0
C927 C 0.61758 0.23888 0.25176 0.0
H928 H 0.10962 0.95107 0.38087 0.0
H929 H 0.09368 0.87728 0.36321 0.0
H930 H 0.12383 0.93479 0.40823 0.0
H931 H 0.10689 0.86108 0.39086 0.0
H932 H 0.15377 0.83863 0.43731 0.0
H933 H 0.14326 0.855 0.40898 0.0
H934 H 0.1057 0.91608 0.43321 0.0
H935 H 0.11655 0.90011 0.46125 0.0
C936 C 0.10917 0.93138 0.38281 0.0
C937 C 0.10038 0.91551 0.36987 0.0
C938 C 0.1171 0.92205 0.39856 0.0
C939 C 0.11641 0.89663 0.40177 0.0
C940 C 0.10788 0.88073 0.38876 0.0
C941 C 0.09996 0.89006 0.373 0.0
C942 C 0.14338 0.8556 0.43652 0.0
C943 C 0.13599 0.86807 0.45148 0.0
C944 C 0.13725 0.86491 0.42033 0.0
C945 C 0.12366 0.88688 0.41884 0.0
C946 C 0.1165 0.89935 0.43386 0.0
C947 C 0.12261 0.89008 0.44996 0.0
H948 H 0.13702 0.58046 0.62526 0.0
H949 H 0.07166 0.62616 0.62252 0.0
H950 H 0.14584 0.59689 0.65377 0.0
H951 H 0.07987 0.6411 0.65159 0.0
H952 H 0.09245 0.61913 0.71214 0.0
H953 H 0.08345 0.61192 0.68172 0.0
H954 H 0.15312 0.64493 0.66809 0.0
H955 H 0.16183 0.65298 0.69859 0.0
C956 C 0.12466 0.59418 0.63054 0.0
C957 C 0.10353 0.60184 0.62144 0.0
C958 C 0.12973 0.60349 0.64692 0.0
C959 C 0.11356 0.62026 0.65472 0.0
C960 C 0.09257 0.62814 0.64575 0.0
C961 C 0.08777 0.61929 0.62919 0.0
C962 C 0.10558 0.62532 0.70262 0.0
C963 C 0.12782 0.63657 0.70764 0.0
C964 C 0.10041 0.62126 0.68527 0.0
C965 C 0.11765 0.62784 0.67271 0.0
C966 C 0.13958 0.63976 0.67764 0.0
C967 C 0.14448 0.64444 0.695 0.0
H968 H 0.43112 0.64513 0.87326 0.0
H969 H 0.38876 0.57762 0.87388 0.0
H970 H 0.41537 0.6555 0.90174 0.0
H971 H 0.37442 0.58754 0.90274 0.0
H972 H 0.39411 0.60246 0.96198 0.0
H973 H 0.40257 0.59339 0.9318 0.0
H974 H 0.36935 0.66234 0.9173 0.0
H975 H 0.36012 0.67119 0.94764 0.0
C976 C 0.41829 0.63261 0.87929 0.0
C977 C 0.41147 0.61037 0.8712 0.0
C978 C 0.40934 0.63858 0.89563 0.0
C979 C 0.39375 0.62228 0.90434 0.0
C980 C 0.38655 0.60032 0.89626 0.0
C981 C 0.39506 0.59456 0.8798 0.0
C982 C 0.38831 0.61554 0.95234 0.0
C983 C 0.37649 0.63752 0.9571 0.0
C984 C 0.39308 0.61031 0.93511 0.0
C985 C 0.38664 0.62721 0.92234 0.0
C986 C 0.3745 0.64908 0.927 0.0
C987 C 0.36913 0.65405 0.94427 0.0
H988 H 0.42107 0.94701 0.1335 0.0
H989 H 0.41675 0.87374 0.11202 0.0
H990 H 0.4062 0.93148 0.16099 0.0
H991 H 0.40218 0.85815 0.13959 0.0
H992 H 0.34814 0.84898 0.18601 0.0
H993 H 0.36441 0.86228 0.15826 0.0
H994 H 0.42137 0.90385 0.18428 0.0
H995 H 0.40518 0.89071 0.2119 0.0
C996 C 0.41695 0.9276 0.13467 0.0
C997 C 0.42012 0.91158 0.12065 0.0
C998 C 0.40863 0.91867 0.15042 0.0
C999 C 0.40309 0.89358 0.15243 0.0
C1000 C 0.40617 0.87758 0.13838 0.0
C1001 C 0.41472 0.88647 0.12267 0.0
C1002 C 0.36425 0.86078 0.18577 0.0
C1003 C 0.37529 0.86891 0.20111 0.0
C1004 C 0.3736 0.86833 0.1699 0.0
C1005 C 0.39402 0.88428 0.16913 0.0
C1006 C 0.40538 0.89187 0.18449 0.0
C1007 C 0.39618 0.8842 0.2003 0.0
H1008 H 0.10659 0.5591 0.86935 0.0
H1009 H 0.08417 0.63287 0.88304 0.0
H1010 H 0.12396 0.57446 0.84252 0.0
H1011 H 0.10087 0.64806 0.85608 0.0
H1012 H 0.1542 0.67112 0.81423 0.0
H1013 H 0.14097 0.65422 0.84175 0.0
H1014 H 0.10869 0.5919 0.81538 0.0
H1015 H 0.12214 0.60858 0.78798 0.0
C1016 C 0.10535 0.57857 0.86662 0.0
C1017 C 0.09388 0.59475 0.87826 0.0
C1018 C 0.11516 0.58733 0.85122 0.0
C1019 C 0.11385 0.61248 0.84722 0.0
C1020 C 0.10245 0.62864 0.85889 0.0
C1021 C 0.09255 0.61988 0.87422 0.0
C1022 C 0.14452 0.65369 0.81436 0.0
C1023 C 0.13909 0.64123 0.79897 0.0
C1024 C 0.13681 0.6441 0.83008 0.0
C1025 C 0.12364 0.62182 0.83071 0.0
C1026 C 0.11897 0.60899 0.81534 0.0
C1027 C 0.12657 0.61862 0.79963 0.0
H1028 H 0.43118 0.61277 0.12484 0.0
H1029 H 0.36297 0.57149 0.12713 0.0
H1030 H 0.4185 0.62995 0.09739 0.0
H1031 H 0.35001 0.58959 0.09996 0.0
H1032 H 0.3262 0.64938 0.06095 0.0
H1033 H 0.33931 0.63305 0.08874 0.0
H1034 H 0.40989 0.61321 0.06702 0.0
H1035 H 0.39675 0.62924 0.03922 0.0
C1036 C 0.41361 0.60712 0.11946 0.0
C1037 C 0.39819 0.59057 0.12824 0.0
C1038 C 0.4063 0.61715 0.10378 0.0
C1039 C 0.38326 0.61117 0.09662 0.0
C1040 C 0.36775 0.59475 0.10534 0.0
C1041 C 0.37519 0.58443 0.12092 0.0
C1042 C 0.34457 0.6417 0.06216 0.0
C1043 C 0.36046 0.64054 0.04794 0.0
C1044 C 0.35199 0.63221 0.07801 0.0
C1045 C 0.37556 0.62179 0.07997 0.0
C1046 C 0.39167 0.62125 0.06586 0.0
C1047 C 0.38412 0.63037 0.04996 0.0
H1048 H 0.40234 0.95486 0.3695 0.0
H1049 H 0.41313 0.87819 0.38154 0.0
H1050 H 0.38892 0.94343 0.34056 0.0
H1051 H 0.39996 0.86678 0.35252 0.0
H1052 H 0.35689 0.85496 0.30213 0.0
H1053 H 0.36271 0.86783 0.33214 0.0
H1054 H 0.41231 0.92521 0.31569 0.0
H1055 H 0.40668 0.91244 0.28598 0.0
C1056 C 0.40161 0.93557 0.36601 0.0
C1057 C 0.40901 0.91743 0.37771 0.0
C1058 C 0.39402 0.92904 0.34944 0.0
C1059 C 0.39343 0.90422 0.3443 0.0
C1060 C 0.40003 0.88603 0.35618 0.0
C1061 C 0.40786 0.89257 0.3727 0.0
C1062 C 0.36876 0.8705 0.30496 0.0
C1063 C 0.38148 0.88256 0.29173 0.0
C1064 C 0.37219 0.87777 0.3221 0.0
C1065 C 0.38799 0.89749 0.32621 0.0
C1066 C 0.39987 0.91009 0.3129 0.0
C1067 C 0.39676 0.90264 0.29589 0.0
H1068 H 0.12308 0.89461 0.6357 0.0
H1069 H 0.06486 0.9387 0.61366 0.0
H1070 H 0.13705 0.88324 0.60685 0.0
H1071 H 0.07834 0.92683 0.58498 0.0
H1072 H 0.13652 0.85091 0.55064 0.0
H1073 H 0.12375 0.85971 0.58026 0.0
H1074 H 0.11482 0.93636 0.56751 0.0
H1075 H 0.12718 0.9278 0.53826 0.0
C1076 C 0.11328 0.90185 0.6247 0.0
C1077 C 0.09297 0.9177 0.62694 0.0
C1078 C 0.12111 0.89512 0.60822 0.0
C1079 C 0.10888 0.90426 0.59367 0.0
C1080 C 0.08833 0.91974 0.59595 0.0
C1081 C 0.08047 0.92637 0.61238 0.0
C1082 C 0.13195 0.86964 0.55422 0.0
C1083 C 0.1326 0.88856 0.54198 0.0
C1084 C 0.1247 0.87467 0.57116 0.0
C1085 C 0.11792 0.89866 0.57611 0.0
C1086 C 0.11935 0.91759 0.564 0.0
C1087 C 0.12657 0.91263 0.5472 0.0
H1088 H 0.60735 0.44923 0.87931 0.0
H1089 H 0.58577 0.37556 0.86461 0.0
H1090 H 0.6243 0.4335 0.90613 0.0
H1091 H 0.60186 0.35998 0.89169 0.0
H1092 H 0.65305 0.3371 0.93556 0.0
H1093 H 0.64049 0.35319 0.90754 0.0
H1094 H 0.60808 0.4165 0.93256 0.0
H1095 H 0.62087 0.40076 0.96028 0.0
C1096 C 0.60624 0.42969 0.8818 0.0
C1097 C 0.59505 0.41369 0.86988 0.0
C1098 C 0.61579 0.4207 0.89721 0.0
C1099 C 0.61438 0.39549 0.90106 0.0
C1100 C 0.60346 0.37945 0.88905 0.0
C1101 C 0.5939 0.38845 0.87365 0.0
C1102 C 0.64341 0.35453 0.935 0.0
C1103 C 0.63791 0.36764 0.9501 0.0
C1104 C 0.63611 0.36368 0.919 0.0
C1105 C 0.62328 0.38613 0.91784 0.0
C1106 C 0.61822 0.39935 0.93296 0.0
C1107 C 0.62544 0.39022 0.94888 0.0
H1108 H 0.63003 0.06288 0.13045 0.0
H1109 H 0.59089 0.13128 0.12332 0.0
H1110 H 0.63948 0.0747 0.15996 0.0
H1111 H 0.60004 0.14296 0.1531 0.0
H1112 H 0.6238 0.08875 0.21626 0.0
H1113 H 0.61434 0.07999 0.18642 0.0
H1114 H 0.63661 0.15345 0.17253 0.0
H1115 H 0.64608 0.16253 0.20268 0.0
C1116 C 0.6236 0.08052 0.13516 0.0
C1117 C 0.60968 0.09613 0.12459 0.0
C1118 C 0.62882 0.0872 0.1521 0.0
C1119 C 0.62035 0.10967 0.15885 0.0
C1120 C 0.60687 0.12557 0.1482 0.0
C1121 C 0.60146 0.11879 0.13124 0.0
C1122 C 0.62668 0.10317 0.20694 0.0
C1123 C 0.63593 0.12633 0.21193 0.0
C1124 C 0.62134 0.09805 0.18979 0.0
C1125 C 0.62501 0.11592 0.17713 0.0
C1126 C 0.63357 0.13934 0.18206 0.0
C1127 C 0.63908 0.14448 0.1993 0.0
H1128 H 0.89057 0.14073 0.35751 0.0
H1129 H 0.94297 0.0938 0.38317 0.0
H1130 H 0.87243 0.15196 0.38511 0.0
H1131 H 0.92589 0.10587 0.41089 0.0
H1132 H 0.87806 0.1145 0.45751 0.0
H1133 H 0.89242 0.10162 0.42927 0.0
H1134 H 0.87888 0.17489 0.41004 0.0
H1135 H 0.8632 0.18719 0.43809 0.0
C1136 C 0.89835 0.13307 0.36914 0.0
C1137 C 0.91813 0.11644 0.36828 0.0
C1138 C 0.88806 0.13956 0.38497 0.0
C1139 C 0.89763 0.12988 0.40034 0.0
C1140 C 0.91761 0.11333 0.39938 0.0
C1141 C 0.92757 0.10651 0.38352 0.0
C1142 C 0.87796 0.12775 0.44717 0.0
C1143 C 0.86957 0.15184 0.44997 0.0
C1144 C 0.88641 0.12045 0.43099 0.0
C1145 C 0.88714 0.13724 0.41731 0.0
C1146 C 0.87831 0.16129 0.42012 0.0
C1147 C 0.86942 0.16843 0.43624 0.0
H1148 H 0.92297 0.45046 0.63747 0.0
H1149 H 0.91269 0.37872 0.61444 0.0
H1150 H 0.90649 0.43512 0.66452 0.0
H1151 H 0.89676 0.36323 0.64162 0.0
H1152 H 0.84084 0.35575 0.68654 0.0
H1153 H 0.85934 0.36908 0.65951 0.0
H1154 H 0.91711 0.40643 0.68774 0.0
H1155 H 0.89855 0.3934 0.71465 0.0
C1156 C 0.91734 0.43138 0.63823 0.0
C1157 C 0.91915 0.4158 0.62384 0.0
C1158 C 0.90808 0.42254 0.65375 0.0
C1159 C 0.90029 0.39796 0.65519 0.0
C1160 C 0.9024 0.3823 0.64086 0.0
C1161 C 0.9118 0.39111 0.62537 0.0
C1162 C 0.85755 0.3667 0.68694 0.0
C1163 C 0.86817 0.37363 0.7027 0.0
C1164 C 0.86821 0.37423 0.67148 0.0
C1165 C 0.88962 0.3889 0.67151 0.0
C1166 C 0.90043 0.39543 0.6873 0.0
C1167 C 0.88985 0.38785 0.70271 0.0
H1168 H 0.6251 0.08359 0.38259 0.0
H1169 H 0.5743 0.14485 0.37973 0.0
H1170 H 0.64349 0.09608 0.35546 0.0
H1171 H 0.59368 0.15784 0.35303 0.0
H1172 H 0.65208 0.18492 0.31401 0.0
H1173 H 0.63763 0.17285 0.34257 0.0
H1174 H 0.6258 0.09876 0.32414 0.0
H1175 H 0.63976 0.11084 0.29561 0.0
C1176 C 0.61774 0.09963 0.3762 0.0
C1177 C 0.598 0.11306 0.38336 0.0
C1178 C 0.62848 0.10687 0.36075 0.0
C1179 C 0.62004 0.12794 0.35226 0.0
C1180 C 0.60072 0.1417 0.35948 0.0
C1181 C 0.58968 0.13424 0.3748 0.0
C1182 C 0.6467 0.166 0.31615 0.0
C1183 C 0.64694 0.14881 0.30263 0.0
C1184 C 0.63831 0.15916 0.33242 0.0
C1185 C 0.63055 0.13493 0.33547 0.0
C1186 C 0.6318 0.11753 0.32212 0.0
C1187 C 0.63971 0.12446 0.30581 0.0
H1188 H 0.93343 0.11684 0.62355 0.0
H1189 H 0.86452 0.07644 0.62359 0.0
H1190 H 0.92433 0.13147 0.59469 0.0
H1191 H 0.85499 0.09253 0.59516 0.0
H1192 H 0.8407 0.14939 0.55041 0.0
H1193 H 0.84944 0.13903 0.58052 0.0
H1194 H 0.91759 0.10435 0.56509 0.0
H1195 H 0.90861 0.11395 0.5351 0.0
C1196 C 0.91639 0.11099 0.61749 0.0
C1197 C 0.89987 0.09515 0.62597 0.0
C1198 C 0.9111 0.11967 0.60104 0.0
C1199 C 0.88893 0.1132 0.59285 0.0
C1200 C 0.87207 0.098 0.60137 0.0
C1201 C 0.87756 0.08887 0.61769 0.0
C1202 C 0.85765 0.13981 0.55352 0.0
C1203 C 0.87395 0.13238 0.54047 0.0
C1204 C 0.86256 0.1338 0.57066 0.0
C1205 C 0.88416 0.12092 0.575 0.0
C1206 C 0.90088 0.11439 0.56203 0.0
C1207 C 0.89569 0.1198 0.54491 0.0
H1208 H 0.88565 0.37842 0.88752 0.0
H1209 H 0.94039 0.42679 0.86593 0.0
H1210 H 0.86915 0.37019 0.8588 0.0
H1211 H 0.92503 0.41777 0.83725 0.0
H1212 H 0.8838 0.41523 0.78859 0.0
H1213 H 0.89293 0.42515 0.81841 0.0
H1214 H 0.87648 0.35007 0.83256 0.0
H1215 H 0.86571 0.34084 0.80268 0.0
C1216 C 0.89426 0.38707 0.87656 0.0
C1217 C 0.91418 0.40332 0.87887 0.0
C1218 C 0.8849 0.38233 0.8601 0.0
C1219 C 0.89553 0.39346 0.8456 0.0
C1220 C 0.91579 0.40939 0.84805 0.0
C1221 C 0.92481 0.41444 0.86448 0.0
C1222 C 0.88165 0.40105 0.79819 0.0
C1223 C 0.87417 0.3773 0.79344 0.0
C1224 C 0.88718 0.40659 0.81526 0.0
C1225 C 0.88613 0.38827 0.82793 0.0
C1226 C 0.87741 0.36472 0.82324 0.0
C1227 C 0.87126 0.35936 0.80614 0.0
H1228 H 0.56733 0.43482 0.11289 0.0
H1229 H 0.6267 0.39157 0.13429 0.0
H1230 H 0.58013 0.42288 0.08408 0.0
H1231 H 0.64001 0.38021 0.1053 0.0
H1232 H 0.62862 0.42543 0.03716 0.0
H1233 H 0.61614 0.4333 0.06645 0.0
H1234 H 0.62687 0.35669 0.07869 0.0
H1235 H 0.63977 0.3486 0.04899 0.0
C1236 C 0.58302 0.42262 0.11145 0.0
C1237 C 0.59609 0.41428 0.12586 0.0
C1238 C 0.59049 0.41595 0.09494 0.0
C1239 C 0.61122 0.4008 0.09244 0.0
C1240 C 0.62392 0.39185 0.10684 0.0
C1241 C 0.61647 0.3986 0.12341 0.0
C1242 C 0.62836 0.41012 0.04599 0.0
C1243 C 0.63497 0.38627 0.04061 0.0
C1244 C 0.62106 0.41468 0.06281 0.0
C1245 C 0.62012 0.39556 0.07479 0.0
C1246 C 0.62742 0.37179 0.06969 0.0
C1247 C 0.63476 0.36716 0.0527 0.0
loop_
_geom_bond_atom_site_label_1
_geom_bond_atom_site_label_2
_geom_bond_distance
_geom_bond_site_symmetry_2
_ccdc_geom_bond_type
H0 C27 0.929 . S
N1 C26 1.433 . S
N1 C32 1.435 . S
N1 C38 1.423 . S
H2 C28 0.930 . S
H3 C31 0.931 . S
H4 C30 0.929 . S
H5 C33 0.930 . S
H6 C34 0.932 . S
H7 C37 0.929 . S
H8 C36 0.931 . S
H9 C39 0.932 . S
H10 C43 0.932 . S
H11 C40 0.931 . S
H12 C42 0.929 . S
H13 C45 0.929 . S
H14 C46 0.930 . S
H15 C48 0.929 . S
H16 C49 0.931 . S
H17 C51 0.930 . S
H18 C52 0.932 . S
H19 C54 0.931 . S
H20 C55 0.929 . S
H21 C57 0.929 . S
H22 C58 0.959 . S
H23 C60 0.929 . S
N24 C44 1.433 . S
N24 C50 1.435 . S
N24 C56 1.423 . S
H25 C61 0.932 . S
C26 N1 1.433 . S
C26 C27 1.363 . S
C26 C31 1.370 . S
C27 H0 0.929 . S
C27 C26 1.363 . S
C27 C28 1.385 . S
C28 H2 0.930 . S
C28 C27 1.385 . S
C28 C29 1.357 . S
C29 C28 1.357 . S
C29 C30 1.406 . S
C30 H4 0.929 . S
C30 C29 1.406 . S
C30 C31 1.391 . S
C31 H3 0.931 . S
C31 C26 1.370 . S
C31 C30 1.391 . S
C32 N1 1.435 . S
C32 C33 1.358 . S
C32 C37 1.371 . S
C33 H5 0.930 . S
C33 C32 1.358 . S
C33 C34 1.405 . S
C34 H6 0.932 . S
C34 C33 1.405 . S
C34 C35 1.383 . S
C35 C34 1.383 . S
C35 C36 1.393 . S
C36 H8 0.931 . S
C36 C35 1.393 . S
C36 C37 1.382 . S
C37 H7 0.929 . S
C37 C32 1.371 . S
C37 C36 1.382 . S
C38 N1 1.423 . S
C38 C39 1.362 . S
C38 C43 1.388 . S
C39 H9 0.932 . S
C39 C38 1.362 . S
C39 C40 1.376 1_565 S
C40 H11 0.931 . S
C40 C39 1.376 1_545 S
C40 C41 1.396 . S
C41 C40 1.396 . S
C41 C42 1.348 1_545 S
C41 C59 1.472 . S
C42 H12 0.929 . S
C42 C41 1.348 1_565 S
C42 C43 1.443 . S
C43 H10 0.932 . S
C43 C38 1.388 . S
C43 C42 1.443 . S
C44 N24 1.433 . S
C44 C45 1.363 . S
C44 C49 1.370 . S
C45 H13 0.929 . S
C45 C44 1.363 . S
C45 C46 1.385 . S
C46 H14 0.930 . S
C46 C45 1.385 . S
C46 C47 1.357 . S
C47 C46 1.357 . S
C47 C48 1.406 . S
C48 H15 0.929 . S
C48 C47 1.406 . S
C48 C49 1.391 . S
C49 H16 0.931 . S
C49 C44 1.370 . S
C49 C48 1.391 . S
C50 N24 1.435 . S
C50 C51 1.358 . S
C50 C55 1.371 . S
C51 H17 0.930 . S
C51 C50 1.358 . S
C51 C52 1.405 . S
C52 H18 0.932 . S
C52 C51 1.405 . S
C52 C53 1.383 . S
C53 C52 1.383 . S
C53 C54 1.393 . S
C54 H19 0.931 . S
C54 C53 1.393 . S
C54 C55 1.382 . S
C55 H20 0.929 . S
C55 C50 1.371 . S
C55 C54 1.382 . S
C56 N24 1.423 . S
C56 C57 1.362 . S
C56 C61 1.388 . S
C57 H21 0.929 . S
C57 C56 1.362 . S
C57 C58 1.347 1_655 S
C58 H22 0.959 . S
C58 C57 1.347 1_455 S
C58 C59 1.400 . S
C59 C41 1.472 . S
C59 C58 1.400 . S
C59 C60 1.348 1_455 S
C60 H23 0.929 . S
C60 C59 1.348 1_655 S
C60 C61 1.443 . S
C61 H25 0.932 . S
C61 C56 1.388 . S
C61 C60 1.443 . S
H62 C89 0.929 . S
N63 C88 1.433 . S
N63 C94 1.435 . S
N63 C100 1.423 . S
H64 C90 0.930 . S
H65 C93 0.931 . S
H66 C92 0.929 . S
H67 C95 0.930 . S
H68 C96 0.932 . S
H69 C99 0.929 . S
H70 C98 0.931 . S
H71 C101 0.929 . S
H72 C105 0.932 . S
H73 C102 0.931 . S
H74 C104 0.929 . S
H75 C107 0.929 . S
H76 C108 0.930 . S
H77 C110 0.929 . S
H78 C111 0.931 . S
H79 C113 0.930 . S
H80 C114 0.932 . S
H81 C116 0.931 . S
H82 C117 0.929 . S
H83 C119 0.929 . S
H84 C120 0.931 . S
H85 C122 0.929 . S
N86 C106 1.433 . S
N86 C112 1.435 . S
N86 C118 1.423 . S
H87 C123 0.932 . S
C88 N63 1.433 . S
C88 C89 1.363 . S
C88 C93 1.370 . S
C89 H62 0.929 . S
C89 C88 1.363 . S
C89 C90 1.385 . S
C90 H64 0.930 . S
C90 C89 1.385 . S
C90 C91 1.357 . S
C91 C90 1.357 . S
C91 C92 1.406 . S
C92 H66 0.929 . S
C92 C91 1.406 . S
C92 C93 1.391 . S
C93 H65 0.931 . S
C93 C88 1.370 . S
C93 C92 1.391 . S
C94 N63 1.435 . S
C94 C95 1.358 . S
C94 C99 1.371 . S
C95 H67 0.930 . S
C95 C94 1.358 . S
C95 C96 1.405 . S
C96 H68 0.932 . S
C96 C95 1.405 . S
C96 C97 1.383 . S
C97 C96 1.383 . S
C97 C98 1.393 . S
C98 H70 0.931 . S
C98 C97 1.393 . S
C98 C99 1.382 . S
C99 H69 0.929 . S
C99 C94 1.371 . S
C99 C98 1.382 . S
C100 N63 1.423 . S
C100 C101 1.362 . S
C100 C105 1.388 . S
C101 H71 0.929 . S
C101 C100 1.362 . S
C101 C102 1.376 1_655 S
C102 H73 0.931 . S
C102 C101 1.376 1_455 S
C102 C103 1.396 . S
C103 C102 1.396 . S
C103 C104 1.348 1_455 S
C103 C121 1.472 . S
C104 H74 0.929 . S
C104 C103 1.348 1_655 S
C104 C105 1.443 . S
C105 H72 0.932 . S
C105 C100 1.388 . S
C105 C104 1.443 . S
C106 N86 1.433 . S
C106 C107 1.363 . S
C106 C111 1.370 . S
C107 H75 0.929 . S
C107 C106 1.363 . S
C107 C108 1.385 . S
C108 H76 0.930 . S
C108 C107 1.385 . S
C108 C109 1.357 . S
C109 C108 1.357 . S
C109 C110 1.406 . S
C110 H77 0.929 . S
C110 C109 1.406 . S
C110 C111 1.391 . S
C111 H78 0.931 . S
C111 C106 1.370 . S
C111 C110 1.391 . S
C112 N86 1.435 . S
C112 C113 1.358 . S
C112 C117 1.371 . S
C113 H79 0.930 . S
C113 C112 1.358 . S
C113 C114 1.405 . S
C114 H80 0.932 . S
C114 C113 1.405 . S
C114 C115 1.383 . S
C115 C114 1.383 . S
C115 C116 1.393 . S
C116 H81 0.931 . S
C116 C115 1.393 . S
C116 C117 1.382 . S
C117 H82 0.929 . S
C117 C112 1.371 . S
C117 C116 1.382 . S
C118 N86 1.423 . S
C118 C119 1.362 . S
C118 C123 1.388 . S
C119 H83 0.929 . S
C119 C118 1.362 . S
C119 C120 1.376 . S
C120 H84 0.931 . S
C120 C119 1.376 . S
C120 C121 1.396 . S
C121 C103 1.472 . S
C121 C120 1.396 . S
C121 C122 1.348 . S
C122 H85 0.929 . S
C122 C121 1.348 . S
C122 C123 1.443 . S
C123 H87 0.932 . S
C123 C118 1.388 . S
C123 C122 1.443 . S
H124 C151 0.929 . S
N125 C150 1.433 . S
N125 C156 1.435 . S
N125 C162 1.423 . S
H126 C152 0.930 . S
H127 C155 0.931 . S
H128 C154 0.929 . S
H129 C157 0.930 . S
H130 C158 0.932 . S
H131 C161 0.929 . S
H132 C160 0.931 . S
H133 C163 0.929 . S
H134 C167 0.932 . S
H135 C164 0.931 . S
H136 C166 0.929 . S
H137 C169 0.929 . S
H138 C170 0.930 . S
H139 C172 0.929 . S
H140 C173 0.931 . S
H141 C175 0.930 . S
H142 C176 0.932 . S
H143 C178 0.931 . S
H144 C179 0.929 . S
H145 C181 0.929 . S
H146 C182 0.931 . S
H147 C184 0.929 . S
N148 C168 1.433 . S
N148 C174 1.435 . S
N148 C180 1.423 . S
H149 C185 0.932 . S
C150 N125 1.433 . S
C150 C151 1.363 . S
C150 C155 1.370 . S
C151 H124 0.929 . S
C151 C150 1.363 . S
C151 C152 1.385 . S
C152 H126 0.930 . S
C152 C151 1.385 . S
C152 C153 1.357 . S
C153 C152 1.357 . S
C153 C154 1.406 . S
C154 H128 0.929 . S
C154 C153 1.406 . S
C154 C155 1.391 . S
C155 H127 0.931 . S
C155 C150 1.370 . S
C155 C154 1.391 . S
C156 N125 1.435 . S
C156 C157 1.358 . S
C156 C161 1.371 . S
C157 H129 0.930 . S
C157 C156 1.358 . S
C157 C158 1.405 . S
C158 H130 0.932 . S
C158 C157 1.405 . S
C158 C159 1.383 . S
C159 C158 1.383 . S
C159 C160 1.393 . S
C160 H132 0.931 . S
C160 C159 1.393 . S
C160 C161 1.382 . S
C161 H131 0.929 . S
C161 C156 1.371 . S
C161 C160 1.382 . S
C162 N125 1.423 . S
C162 C163 1.362 . S
C162 C167 1.388 . S
C163 H133 0.929 . S
C163 C162 1.362 . S
C163 C164 1.376 . S
C164 H135 0.931 . S
C164 C163 1.376 . S
C164 C165 1.396 . S
C165 C164 1.396 . S
C165 C166 1.348 . S
C165 C183 1.472 . S
C166 H136 0.929 . S
C166 C165 1.348 . S
C166 C167 1.443 . S
C167 H134 0.932 . S
C167 C162 1.388 . S
C167 C166 1.443 . S
C168 N148 1.433 . S
C168 C169 1.363 . S
C168 C173 1.370 . S
C169 H137 0.929 . S
C169 C168 1.363 . S
C169 C170 1.385 . S
C170 H138 0.930 . S
C170 C169 1.385 . S
C170 C171 1.357 . S
C171 C170 1.357 . S
C171 C172 1.406 . S
C172 H139 0.929 . S
C172 C171 1.406 . S
C172 C173 1.391 . S
C173 H140 0.931 . S
C173 C168 1.370 . S
C173 C172 1.391 . S
C174 N148 1.435 . S
C174 C175 1.358 . S
C174 C179 1.371 . S
C175 H141 0.930 . S
C175 C174 1.358 . S
C175 C176 1.405 . S
C176 H142 0.932 . S
C176 C175 1.405 . S
C176 C177 1.383 . S
C177 C176 1.383 . S
C177 C178 1.393 . S
C178 H143 0.931 . S
C178 C177 1.393 . S
C178 C179 1.382 . S
C179 H144 0.929 . S
C179 C174 1.371 . S
C179 C178 1.382 . S
C180 N148 1.423 . S
C180 C181 1.362 . S
C180 C185 1.388 . S
C181 H145 0.929 . S
C181 C180 1.362 . S
C181 C182 1.376 . S
C182 H146 0.931 . S
C182 C181 1.376 . S
C182 C183 1.396 . S
C183 C165 1.472 . S
C183 C182 1.396 . S
C183 C184 1.348 . S
C184 H147 0.929 . S
C184 C183 1.348 . S
C184 C185 1.443 . S
C185 H149 0.932 . S
C185 C180 1.388 . S
C185 C184 1.443 . S
H186 C213 0.929 . S
N187 C212 1.433 . S
N187 C218 1.435 . S
N187 C224 1.423 . S
H188 C214 0.930 . S
H189 C217 0.931 . S
H190 C216 0.929 . S
H191 C219 0.930 . S
H192 C220 0.932 . S
H193 C223 0.929 . S
H194 C222 0.931 . S
H195 C225 0.929 . S
H196 C229 0.932 . S
H197 C226 0.931 . S
H198 C228 0.929 . S
H199 C231 0.929 . S
H200 C232 0.930 . S
H201 C234 0.929 . S
H202 C235 0.931 . S
H203 C237 0.930 . S
H204 C238 0.932 . S
H205 C240 0.931 . S
H206 C241 0.929 . S
H207 C243 0.929 . S
H208 C244 0.931 1_565 S
H209 C246 0.929 . S
N210 C230 1.433 . S
N210 C236 1.435 . S
N210 C242 1.423 . S
H211 C247 0.932 . S
C212 N187 1.433 . S
C212 C213 1.363 . S
C212 C217 1.370 . S
C213 H186 0.929 . S
C213 C212 1.363 . S
C213 C214 1.385 . S
C214 H188 0.930 . S
C214 C213 1.385 . S
C214 C215 1.357 . S
C215 C214 1.357 . S
C215 C216 1.406 . S
C216 H190 0.929 . S
C216 C215 1.406 . S
C216 C217 1.391 . S
C217 H189 0.931 . S
C217 C212 1.370 . S
C217 C216 1.391 . S
C218 N187 1.435 . S
C218 C219 1.358 . S
C218 C223 1.371 . S
C219 H191 0.930 . S
C219 C218 1.358 . S
C219 C220 1.405 . S
C220 H192 0.932 . S
C220 C219 1.405 . S
C220 C221 1.383 . S
C221 C220 1.383 . S
C221 C222 1.393 . S
C222 H194 0.931 . S
C222 C221 1.393 . S
C222 C223 1.382 . S
C223 H193 0.929 . S
C223 C218 1.371 . S
C223 C222 1.382 . S
C224 N187 1.423 . S
C224 C225 1.362 . S
C224 C229 1.388 . S
C225 H195 0.929 . S
C225 C224 1.362 . S
C225 C226 1.376 . S
C226 H197 0.931 . S
C226 C225 1.376 . S
C226 C227 1.396 . S
C227 C226 1.396 . S
C227 C228 1.348 . S
C227 C245 1.472 1_565 S
C228 H198 0.929 . S
C228 C227 1.348 . S
C228 C229 1.443 . S
C229 H196 0.932 . S
C229 C224 1.388 . S
C229 C228 1.443 . S
C230 N210 1.433 . S
C230 C231 1.363 . S
C230 C235 1.370 . S
C231 H199 0.929 . S
C231 C230 1.363 . S
C231 C232 1.385 . S
C232 H200 0.930 . S
C232 C231 1.385 . S
C232 C233 1.357 . S
C233 C232 1.357 . S
C233 C234 1.406 . S
C234 H201 0.929 . S
C234 C233 1.406 . S
C234 C235 1.391 . S
C235 H202 0.931 . S
C235 C230 1.370 . S
C235 C234 1.391 . S
C236 N210 1.435 . S
C236 C237 1.358 . S
C236 C241 1.371 . S
C237 H203 0.930 . S
C237 C236 1.358 . S
C237 C238 1.405 . S
C238 H204 0.932 . S
C238 C237 1.405 . S
C238 C239 1.383 . S
C239 C238 1.383 . S
C239 C240 1.393 . S
C240 H205 0.931 . S
C240 C239 1.393 . S
C240 C241 1.382 . S
C241 H206 0.929 . S
C241 C236 1.371 . S
C241 C240 1.382 . S
C242 N210 1.423 . S
C242 C243 1.362 . S
C242 C247 1.388 . S
C243 H207 0.929 . S
C243 C242 1.362 . S
C243 C244 1.376 . S
C244 H208 0.931 1_545 S
C244 C243 1.376 . S
C244 C245 1.396 . S
C245 C227 1.472 1_545 S
C245 C244 1.396 . S
C245 C246 1.348 . S
C246 H209 0.929 . S
C246 C245 1.348 . S
C246 C247 1.443 . S
C247 H211 0.932 . S
C247 C242 1.388 . S
C247 C246 1.443 . S
H248 C275 0.929 . S
N249 C274 1.433 . S
N249 C280 1.435 . S
N249 C286 1.423 . S
H250 C276 0.930 . S
H251 C279 0.931 . S
H252 C278 0.929 . S
H253 C281 0.930 . S
H254 C282 0.932 . S
H255 C285 0.929 . S
H256 C284 0.931 . S
H257 C287 0.929 . S
H258 C291 0.932 . S
H259 C288 0.931 . S
H260 C290 0.929 . S
H261 C293 0.929 . S
H262 C294 0.930 . S
H263 C296 0.929 . S
H264 C297 0.931 . S
H265 C299 0.930 . S
H266 C300 0.932 . S
H267 C302 0.931 . S
H268 C303 0.929 . S
H269 C305 0.929 . S
H270 C306 0.931 1_455 S
H271 C308 0.929 . S
N272 C292 1.433 . S
N272 C298 1.435 . S
N272 C304 1.423 . S
H273 C309 0.932 . S
C274 N249 1.433 . S
C274 C275 1.363 . S
C274 C279 1.370 . S
C275 H248 0.929 . S
C275 C274 1.363 . S
C275 C276 1.385 . S
C276 H250 0.930 . S
C276 C275 1.385 . S
C276 C277 1.357 . S
C277 C276 1.357 . S
C277 C278 1.406 . S
C278 H252 0.929 . S
C278 C277 1.406 . S
C278 C279 1.391 . S
C279 H251 0.931 . S
C279 C274 1.370 . S
C279 C278 1.391 . S
C280 N249 1.435 . S
C280 C281 1.358 . S
C280 C285 1.371 . S
C281 H253 0.930 . S
C281 C280 1.358 . S
C281 C282 1.405 . S
C282 H254 0.932 . S
C282 C281 1.405 . S
C282 C283 1.383 . S
C283 C282 1.383 . S
C283 C284 1.393 . S
C284 H256 0.931 . S
C284 C283 1.393 . S
C284 C285 1.382 . S
C285 H255 0.929 . S
C285 C280 1.371 . S
C285 C284 1.382 . S
C286 N249 1.423 . S
C286 C287 1.362 . S
C286 C291 1.388 . S
C287 H257 0.929 . S
C287 C286 1.362 . S
C287 C288 1.376 . S
C288 H259 0.931 . S
C288 C287 1.376 . S
C288 C289 1.396 . S
C289 C288 1.396 . S
C289 C290 1.348 . S
C289 C307 1.496 . S
C290 H260 0.929 . S
C290 C289 1.348 . S
C290 C291 1.443 . S
C291 H258 0.932 . S
C291 C286 1.388 . S
C291 C290 1.443 . S
C292 N272 1.433 . S
C292 C293 1.363 . S
C292 C297 1.370 . S
C293 H261 0.929 . S
C293 C292 1.363 . S
C293 C294 1.385 . S
C294 H262 0.930 . S
C294 C293 1.385 . S
C294 C295 1.357 . S
C295 C294 1.357 . S
C295 C296 1.406 . S
C296 H263 0.929 . S
C296 C295 1.406 . S
C296 C297 1.391 . S
C297 H264 0.931 . S
C297 C292 1.370 . S
C297 C296 1.391 . S
C298 N272 1.435 . S
C298 C299 1.358 . S
C298 C303 1.371 . S
C299 H265 0.930 . S
C299 C298 1.358 . S
C299 C300 1.405 . S
C300 H266 0.932 . S
C300 C299 1.405 . S
C300 C301 1.383 . S
C301 C300 1.383 . S
C301 C302 1.393 . S
C302 H267 0.931 . S
C302 C301 1.393 . S
C302 C303 1.382 . S
C303 H268 0.929 . S
C303 C298 1.371 . S
C303 C302 1.382 . S
C304 N272 1.423 . S
C304 C305 1.362 . S
C304 C309 1.388 . S
C305 H269 0.929 . S
C305 C304 1.362 . S
C305 C306 1.376 . S
C306 H270 0.931 1_655 S
C306 C305 1.376 . S
C306 C307 1.393 1_655 S
C307 C289 1.496 . S
C307 C306 1.393 1_455 S
C307 C308 1.326 1_455 S
C308 H271 0.929 . S
C308 C307 1.326 1_655 S
C308 C309 1.443 . S
C309 H273 0.932 . S
C309 C304 1.388 . S
C309 C308 1.443 . S
H310 C337 0.929 . S
N311 C336 1.433 . S
N311 C342 1.435 . S
N311 C348 1.423 . S
H312 C338 0.930 . S
H313 C341 0.931 . S
H314 C340 0.929 . S
H315 C343 0.930 . S
H316 C344 0.932 . S
H317 C347 0.929 . S
H318 C346 0.931 . S
H319 C349 0.929 . S
H320 C353 0.932 . S
H321 C350 0.931 . S
H322 C352 0.929 . S
H323 C355 0.929 . S
H324 C356 0.930 . S
H325 C358 0.929 . S
H326 C359 0.931 . S
H327 C361 0.930 . S
H328 C362 0.932 . S
H329 C364 0.931 . S
H330 C365 0.929 . S
H331 C367 0.929 . S
H332 C368 0.931 . S
H333 C370 0.929 . S
N334 C354 1.433 . S
N334 C360 1.435 . S
N334 C366 1.423 . S
H335 C371 0.932 . S
C336 N311 1.433 . S
C336 C337 1.363 . S
C336 C341 1.370 . S
C337 H310 0.929 . S
C337 C336 1.363 . S
C337 C338 1.385 . S
C338 H312 0.930 . S
C338 C337 1.385 . S
C338 C339 1.357 . S
C339 C338 1.357 . S
C339 C340 1.406 . S
C340 H314 0.929 . S
C340 C339 1.406 . S
C340 C341 1.391 . S
C341 H313 0.931 . S
C341 C336 1.370 . S
C341 C340 1.391 . S
C342 N311 1.435 . S
C342 C343 1.358 . S
C342 C347 1.371 . S
C343 H315 0.930 . S
C343 C342 1.358 . S
C343 C344 1.405 . S
C344 H316 0.932 . S
C344 C343 1.405 . S
C344 C345 1.383 . S
C345 C344 1.383 . S
C345 C346 1.393 . S
C346 H318 0.931 . S
C346 C345 1.393 . S
C346 C347 1.382 . S
C347 H317 0.929 . S
C347 C342 1.371 . S
C347 C346 1.382 . S
C348 N311 1.423 . S
C348 C349 1.362 . S
C348 C353 1.388 . S
C349 H319 0.929 . S
C349 C348 1.362 . S
C349 C350 1.376 . S
C350 H321 0.931 . S
C350 C349 1.376 . S
C350 C351 1.396 . S
C351 C350 1.396 . S
C351 C352 1.348 . S
C351 C369 1.472 . S
C352 H322 0.929 . S
C352 C351 1.348 . S
C352 C353 1.443 . S
C353 H320 0.932 . S
C353 C348 1.388 . S
C353 C352 1.443 . S
C354 N334 1.433 . S
C354 C355 1.363 . S
C354 C359 1.370 . S
C355 H323 0.929 . S
C355 C354 1.363 . S
C355 C356 1.385 . S
C356 H324 0.930 . S
C356 C355 1.385 . S
C356 C357 1.357 . S
C357 C356 1.357 . S
C357 C358 1.406 . S
C358 H325 0.929 . S
C358 C357 1.406 . S
C358 C359 1.391 . S
C359 H326 0.931 . S
C359 C354 1.370 . S
C359 C358 1.391 . S
C360 N334 1.435 . S
C360 C361 1.358 . S
C360 C365 1.371 . S
C361 H327 0.930 . S
C361 C360 1.358 . S
C361 C362 1.405 . S
C362 H328 0.932 . S
C362 C361 1.405 . S
C362 C363 1.383 . S
C363 C362 1.383 . S
C363 C364 1.393 . S
C364 H329 0.931 . S
C364 C363 1.393 . S
C364 C365 1.382 . S
C365 H330 0.929 . S
C365 C360 1.371 . S
C365 C364 1.382 . S
C366 N334 1.423 . S
C366 C367 1.362 . S
C366 C371 1.388 . S
C367 H331 0.929 . S
C367 C366 1.362 . S
C367 C368 1.376 . S
C368 H332 0.931 . S
C368 C367 1.376 . S
C368 C369 1.396 . S
C369 C351 1.472 . S
C369 C368 1.396 . S
C369 C370 1.348 . S
C370 H333 0.929 . S
C370 C369 1.348 . S
C370 C371 1.443 . S
C371 H335 0.932 . S
C371 C366 1.388 . S
C371 C370 1.443 . S
H372 C399 0.929 . S
N373 C398 1.433 . S
N373 C404 1.435 . S
N373 C410 1.423 . S
H374 C400 0.930 . S
H375 C403 0.931 . S
H376 C402 0.929 . S
H377 C405 0.930 . S
H378 C406 0.932 . S
H379 C409 0.929 . S
H380 C408 0.931 . S
H381 C411 0.931 . S
H382 C415 0.932 . S
H383 C412 0.931 . S
H384 C414 0.929 . S
H385 C417 0.929 . S
H386 C418 0.930 . S
H387 C420 0.929 . S
H388 C421 0.931 . S
H389 C423 0.930 . S
H390 C424 0.932 . S
H391 C426 0.931 . S
H392 C427 0.929 . S
H393 C429 0.929 . S
H394 C430 0.931 . S
H395 C432 0.929 . S
N396 C416 1.433 . S
N396 C422 1.435 . S
N396 C428 1.423 . S
H397 C433 0.932 . S
C398 N373 1.433 . S
C398 C399 1.363 . S
C398 C403 1.370 . S
C399 H372 0.929 . S
C399 C398 1.363 . S
C399 C400 1.385 . S
C400 H374 0.930 . S
C400 C399 1.385 . S
C400 C401 1.357 . S
C401 C400 1.357 . S
C401 C402 1.406 . S
C402 H376 0.929 . S
C402 C401 1.406 . S
C402 C403 1.391 . S
C403 H375 0.931 . S
C403 C398 1.370 . S
C403 C402 1.391 . S
C404 N373 1.435 . S
C404 C405 1.358 . S
C404 C409 1.371 . S
C405 H377 0.930 . S
C405 C404 1.358 . S
C405 C406 1.405 . S
C406 H378 0.932 . S
C406 C405 1.405 . S
C406 C407 1.383 . S
C407 C406 1.383 . S
C407 C408 1.393 . S
C408 H380 0.931 . S
C408 C407 1.393 . S
C408 C409 1.382 . S
C409 H379 0.929 . S
C409 C404 1.371 . S
C409 C408 1.382 . S
C410 N373 1.423 . S
C410 C411 1.362 . S
C410 C415 1.388 . S
C411 H381 0.931 . S
C411 C410 1.362 . S
C411 C412 1.376 1_565 S
C412 H383 0.931 . S
C412 C411 1.376 1_545 S
C412 C413 1.396 . S
C413 C412 1.396 . S
C413 C414 1.348 1_545 S
C413 C431 1.472 . S
C414 H384 0.929 . S
C414 C413 1.348 1_565 S
C414 C415 1.443 . S
C415 H382 0.932 . S
C415 C410 1.388 . S
C415 C414 1.443 . S
C416 N396 1.433 . S
C416 C417 1.363 . S
C416 C421 1.370 . S
C417 H385 0.929 . S
C417 C416 1.363 . S
C417 C418 1.385 . S
C418 H386 0.930 . S
C418 C417 1.385 . S
C418 C419 1.357 . S
C419 C418 1.357 . S
C419 C420 1.406 . S
C420 H387 0.929 . S
C420 C419 1.406 . S
C420 C421 1.391 . S
C421 H388 0.931 . S
C421 C416 1.370 . S
C421 C420 1.391 . S
C422 N396 1.435 . S
C422 C423 1.358 . S
C422 C427 1.371 . S
C423 H389 0.930 . S
C423 C422 1.358 . S
C423 C424 1.405 . S
C424 H390 0.932 . S
C424 C423 1.405 . S
C424 C425 1.383 . S
C425 C424 1.383 . S
C425 C426 1.393 . S
C426 H391 0.931 . S
C426 C425 1.393 . S
C426 C427 1.382 . S
C427 H392 0.929 . S
C427 C422 1.371 . S
C427 C426 1.382 . S
C428 N396 1.423 . S
C428 C429 1.362 . S
C428 C433 1.388 . S
C429 H393 0.929 . S
C429 C428 1.362 . S
C429 C430 1.376 . S
C430 H394 0.931 . S
C430 C429 1.376 . S
C430 C431 1.396 . S
C431 C413 1.472 . S
C431 C430 1.396 . S
C431 C432 1.348 . S
C432 H395 0.929 . S
C432 C431 1.348 . S
C432 C433 1.443 . S
C433 H397 0.932 . S
C433 C428 1.388 . S
C433 C432 1.443 . S
H434 C461 0.929 . S
N435 C460 1.433 . S
N435 C466 1.435 . S
N435 C472 1.423 . S
H436 C462 0.930 . S
H437 C465 0.931 . S
H438 C464 0.929 . S
H439 C467 0.930 . S
H440 C468 0.932 . S
H441 C471 0.929 . S
H442 C470 0.931 . S
H443 C473 0.929 . S
H444 C477 0.932 . S
H445 C474 0.931 . S
H446 C476 0.929 . S
H447 C479 0.929 . S
H448 C480 0.930 . S
H449 C482 0.929 . S
H450 C483 0.931 . S
H451 C485 0.930 . S
H452 C486 0.932 . S
H453 C488 0.931 . S
H454 C489 0.929 . S
H455 C491 0.929 . S
H456 C492 0.936 . S
H457 C494 0.929 . S
N458 C478 1.433 . S
N458 C484 1.435 . S
N458 C490 1.423 . S
H459 C495 0.932 . S
C460 N435 1.433 . S
C460 C461 1.363 . S
C460 C465 1.370 . S
C461 H434 0.929 . S
C461 C460 1.363 . S
C461 C462 1.385 . S
C462 H436 0.930 . S
C462 C461 1.385 . S
C462 C463 1.357 . S
C463 C462 1.357 . S
C463 C464 1.406 . S
C464 H438 0.929 . S
C464 C463 1.406 . S
C464 C465 1.391 . S
C465 H437 0.931 . S
C465 C460 1.370 . S
C465 C464 1.391 . S
C466 N435 1.435 . S
C466 C467 1.358 . S
C466 C471 1.371 . S
C467 H439 0.930 . S
C467 C466 1.358 . S
C467 C468 1.405 . S
C468 H440 0.932 . S
C468 C467 1.405 . S
C468 C469 1.383 . S
C469 C468 1.383 . S
C469 C470 1.393 . S
C470 H442 0.931 . S
C470 C469 1.393 . S
C470 C471 1.382 . S
C471 H441 0.929 . S
C471 C466 1.371 . S
C471 C470 1.382 . S
C472 N435 1.423 . S
C472 C473 1.362 . S
C472 C477 1.388 . S
C473 H443 0.929 . S
C473 C472 1.362 . S
C473 C474 1.376 1_455 S
C474 H445 0.931 . S
C474 C473 1.376 1_655 S
C474 C475 1.401 . S
C475 C474 1.401 . S
C475 C476 1.315 1_655 S
C475 C493 1.499 1_565 S
C476 H446 0.929 . S
C476 C475 1.315 1_455 S
C476 C477 1.443 . S
C477 H444 0.932 . S
C477 C472 1.388 . S
C477 C476 1.443 . S
C478 N458 1.433 . S
C478 C479 1.363 . S
C478 C483 1.370 . S
C479 H447 0.929 . S
C479 C478 1.363 . S
C479 C480 1.385 . S
C480 H448 0.930 . S
C480 C479 1.385 . S
C480 C481 1.357 . S
C481 C480 1.357 . S
C481 C482 1.406 . S
C482 H449 0.929 . S
C482 C481 1.406 . S
C482 C483 1.391 . S
C483 H450 0.931 . S
C483 C478 1.370 . S
C483 C482 1.391 . S
C484 N458 1.435 . S
C484 C485 1.358 . S
C484 C489 1.371 . S
C485 H451 0.930 . S
C485 C484 1.358 . S
C485 C486 1.405 . S
C486 H452 0.932 . S
C486 C485 1.405 . S
C486 C487 1.383 . S
C487 C486 1.383 . S
C487 C488 1.393 . S
C488 H453 0.931 . S
C488 C487 1.393 . S
C488 C489 1.382 . S
C489 H454 0.929 . S
C489 C484 1.371 . S
C489 C488 1.382 . S
C490 N458 1.423 . S
C490 C491 1.362 . S
C490 C495 1.388 . S
C491 H455 0.929 . S
C491 C490 1.362 . S
C491 C492 1.376 . S
C492 H456 0.936 . S
C492 C491 1.376 . S
C492 C493 1.396 . S
C493 C475 1.499 1_545 S
C493 C492 1.396 . S
C493 C494 1.348 . S
C494 H457 0.929 . S
C494 C493 1.348 . S
C494 C495 1.443 . S
C495 H459 0.932 . S
C495 C490 1.388 . S
C495 C494 1.443 . S
Co496 O497 2.217 1_554 S
Co496 O498 2.089 1_554 S
Co496 O500 2.004 . S
Co496 O506 2.021 1_554 S
Co496 O508 2.137 . S
Co496 O509 2.244 . S
O497 Co496 2.217 1_556 S
O497 C504 1.246 . S
O498 Co496 2.089 1_556 S
O498 C504 1.262 . S
C499 O508 1.247 . S
C499 O509 1.272 . S
O500 Co496 2.004 . S
O500 C505 1.259 . S
Co501 O502 2.061 . S
Co501 O507 2.052 1_554 S
Co501 O509 2.135 . S
O502 Co501 2.061 . S
O502 C505 1.235 . S
C503 O506 1.238 . S
C503 O507 1.241 . S
C504 O497 1.246 . S
C504 O498 1.262 . S
C505 O500 1.259 . S
C505 O502 1.235 . S
O506 Co496 2.021 1_556 S
O506 C503 1.238 . S
O507 Co501 2.052 1_556 S
O507 C503 1.241 . S
O508 Co496 2.137 . S
O508 C499 1.247 . S
O509 Co496 2.244 . S
O509 C499 1.272 . S
O509 Co501 2.135 . S
Co510 O511 2.216 . S
Co510 O512 2.091 . S
Co510 O514 2.004 . S
Co510 O520 2.021 . S
Co510 O522 2.137 . S
Co510 O523 2.244 . S
O511 Co510 2.216 . S
O511 C518 1.247 . S
O512 Co510 2.091 . S
O512 C518 1.261 . S
C513 O522 1.247 . S
C513 O523 1.272 . S
O514 Co510 2.004 . S
O514 C519 1.259 . S
Co515 O516 2.061 . S
Co515 O521 2.052 . S
Co515 O523 2.135 . S
O516 Co515 2.061 . S
O516 C519 1.235 . S
C517 O520 1.238 . S
C517 O521 1.241 . S
C518 O511 1.247 . S
C518 O512 1.261 . S
C519 O514 1.259 . S
C519 O516 1.235 . S
O520 Co510 2.021 . S
O520 C517 1.238 . S
O521 Co515 2.052 . S
O521 C517 1.241 . S
O522 Co510 2.137 . S
O522 C513 1.247 . S
O523 Co510 2.244 . S
O523 C513 1.272 . S
O523 Co515 2.135 . S
Co524 O525 2.216 . S
Co524 O526 2.091 . S
Co524 O528 2.004 . S
Co524 O534 2.021 . S
Co524 O536 2.137 . S
Co524 O537 2.244 . S
O525 Co524 2.216 . S
O525 C532 1.247 . S
O526 Co524 2.091 . S
O526 C532 1.261 . S
C527 O536 1.247 . S
C527 O537 1.272 . S
O528 Co524 2.004 . S
O528 C533 1.259 . S
Co529 O530 2.061 . S
Co529 O535 2.052 . S
Co529 O537 2.135 . S
O530 Co529 2.061 . S
O530 C533 1.235 . S
C531 O534 1.238 . S
C531 O535 1.241 . S
C532 O525 1.247 . S
C532 O526 1.261 . S
C533 O528 1.259 . S
C533 O530 1.235 . S
O534 Co524 2.021 . S
O534 C531 1.238 . S
O535 Co529 2.052 . S
O535 C531 1.241 . S
O536 Co524 2.137 . S
O536 C527 1.247 . S
O537 Co524 2.244 . S
O537 C527 1.272 . S
O537 Co529 2.135 . S
Co538 O539 2.216 . S
Co538 O540 2.091 . S
Co538 O542 2.004 . S
Co538 O548 2.021 . S
Co538 O550 2.137 . S
Co538 O551 2.244 . S
O539 Co538 2.216 . S
O539 C546 1.247 . S
O540 Co538 2.091 . S
O540 C546 1.261 . S
C541 O550 1.247 . S
C541 O551 1.272 . S
O542 Co538 2.004 . S
O542 C547 1.259 . S
Co543 O544 2.061 . S
Co543 O549 2.052 . S
Co543 O551 2.135 . S
O544 Co543 2.061 . S
O544 C547 1.235 . S
C545 O548 1.238 . S
C545 O549 1.241 . S
C546 O539 1.247 . S
C546 O540 1.261 . S
C547 O542 1.259 . S
C547 O544 1.235 . S
O548 Co538 2.021 . S
O548 C545 1.238 . S
O549 Co543 2.052 . S
O549 C545 1.241 . S
O550 Co538 2.137 . S
O550 C541 1.247 . S
O551 Co538 2.244 . S
O551 C541 1.272 . S
O551 Co543 2.135 . S
Co552 O553 2.216 . S
Co552 O554 2.091 . S
Co552 O556 2.004 . S
Co552 O562 2.021 . S
Co552 O564 2.137 . S
Co552 O565 2.244 . S
O553 Co552 2.216 . S
O553 C560 1.247 . S
O554 Co552 2.091 . S
O554 C560 1.261 . S
C555 O564 1.247 . S
C555 O565 1.272 . S
O556 Co552 2.004 . S
O556 C561 1.259 . S
Co557 O558 2.061 . S
Co557 O563 2.052 . S
Co557 O565 2.135 . S
O558 Co557 2.061 . S
O558 C561 1.235 . S
C559 O562 1.238 . S
C559 O563 1.241 . S
C560 O553 1.247 . S
C560 O554 1.261 . S
C561 O556 1.259 . S
C561 O558 1.235 . S
O562 Co552 2.021 . S
O562 C559 1.238 . S
O563 Co557 2.052 . S
O563 C559 1.241 . S
O564 Co552 2.137 . S
O564 C555 1.247 . S
O565 Co552 2.244 . S
O565 C555 1.272 . S
O565 Co557 2.135 . S
Co566 O567 2.216 . S
Co566 O568 2.091 . S
Co566 O570 2.004 . S
Co566 O576 2.021 . S
Co566 O578 2.137 . S
Co566 O579 2.244 . S
O567 Co566 2.216 . S
O567 C574 1.247 . S
O568 Co566 2.091 . S
O568 C574 1.261 . S
C569 O578 1.247 . S
C569 O579 1.272 . S
O570 Co566 2.004 . S
O570 C575 1.259 . S
Co571 O572 2.061 . S
Co571 O577 2.052 . S
Co571 O579 2.135 . S
O572 Co571 2.061 . S
O572 C575 1.235 . S
C573 O576 1.238 . S
C573 O577 1.241 . S
C574 O567 1.247 . S
C574 O568 1.261 . S
C575 O570 1.259 . S
C575 O572 1.235 . S
O576 Co566 2.021 . S
O576 C573 1.238 . S
O577 Co571 2.052 . S
O577 C573 1.241 . S
O578 Co566 2.137 . S
O578 C569 1.247 . S
O579 Co566 2.244 . S
O579 C569 1.272 . S
O579 Co571 2.135 . S
Co580 O581 2.216 1_556 S
Co580 O582 2.091 1_556 S
Co580 O584 2.004 . S
Co580 O590 2.021 1_556 S
Co580 O592 2.137 . S
Co580 O593 2.244 . S
O581 Co580 2.216 1_554 S
O581 C588 1.247 . S
O582 Co580 2.091 1_554 S
O582 C588 1.261 . S
C583 O592 1.247 . S
C583 O593 1.272 . S
O584 Co580 2.004 . S
O584 C589 1.259 . S
Co585 O586 2.061 . S
Co585 O591 2.052 1_556 S
Co585 O593 2.135 . S
O586 Co585 2.061 . S
O586 C589 1.235 . S
C587 O590 1.238 . S
C587 O591 1.241 . S
C588 O581 1.247 . S
C588 O582 1.261 . S
C589 O584 1.259 . S
C589 O586 1.235 . S
O590 Co580 2.021 1_554 S
O590 C587 1.238 . S
O591 Co585 2.052 1_554 S
O591 C587 1.241 . S
O592 Co580 2.137 . S
O592 C583 1.247 . S
O593 Co580 2.244 . S
O593 C583 1.272 . S
O593 Co585 2.135 . S
Co594 O595 2.216 . S
Co594 O596 2.091 . S
Co594 O598 2.004 . S
Co594 O604 2.021 . S
Co594 O606 2.137 . S
Co594 O607 2.244 . S
O595 Co594 2.216 . S
O595 C602 1.247 . S
O596 Co594 2.091 . S
O596 C602 1.261 . S
C597 O606 1.247 . S
C597 O607 1.272 . S
O598 Co594 2.004 . S
O598 C603 1.259 . S
Co599 O600 2.061 . S
Co599 O605 2.052 . S
Co599 O607 2.135 . S
O600 Co599 2.061 . S
O600 C603 1.235 . S
C601 O604 1.238 . S
C601 O605 1.241 . S
C602 O595 1.247 . S
C602 O596 1.261 . S
C603 O598 1.259 . S
C603 O600 1.235 . S
O604 Co594 2.021 . S
O604 C601 1.238 . S
O605 Co599 2.052 . S
O605 C601 1.241 . S
O606 Co594 2.137 . S
O606 C597 1.247 . S
O607 Co594 2.244 . S
O607 C597 1.272 . S
O607 Co599 2.135 . S
H608 C616 0.950 . S
H609 C621 0.950 . S
H610 C618 0.950 . S
H611 C620 0.950 . S
H612 C622 0.950 . S
H613 C624 0.950 . S
H614 C626 0.950 . S
H615 C627 0.950 . S
C616 H608 0.950 . S
C616 C617 1.386 . S
C616 C618 1.391 . S
C617 C616 1.386 . S
C617 C621 1.393 . S
C618 H610 0.950 . S
C618 C616 1.391 . S
C618 C619 1.400 . S
C619 C618 1.400 . S
C619 C620 1.398 . S
C619 C625 1.491 . S
C620 H611 0.950 . S
C620 C619 1.398 . S
C620 C621 1.391 . S
C621 H609 0.950 . S
C621 C617 1.393 . S
C621 C620 1.391 . S
C622 H612 0.950 . S
C622 C623 1.386 . S
C622 C624 1.391 . S
C623 C622 1.386 . S
C623 C627 1.393 . S
C624 H613 0.950 . S
C624 C622 1.391 . S
C624 C625 1.400 . S
C625 C619 1.491 . S
C625 C624 1.400 . S
C625 C626 1.398 . S
C626 H614 0.950 . S
C626 C625 1.398 . S
C626 C627 1.391 . S
C627 H615 0.950 . S
C627 C623 1.393 . S
C627 C626 1.391 . S
H628 C636 0.950 . S
H629 C641 0.950 . S
H630 C638 0.950 . S
H631 C640 0.950 . S
H632 C642 0.950 . S
H633 C644 0.950 . S
H634 C646 0.950 . S
H635 C647 0.950 . S
C636 H628 0.950 . S
C636 C637 1.386 . S
C636 C638 1.391 . S
C637 C636 1.386 . S
C637 C641 1.393 . S
C638 H630 0.950 . S
C638 C636 1.391 . S
C638 C639 1.400 . S
C639 C638 1.400 . S
C639 C640 1.398 . S
C639 C645 1.491 . S
C640 H631 0.950 . S
C640 C639 1.398 . S
C640 C641 1.391 . S
C641 H629 0.950 . S
C641 C637 1.393 . S
C641 C640 1.391 . S
C642 H632 0.950 . S
C642 C643 1.386 . S
C642 C644 1.391 . S
C643 C642 1.386 . S
C643 C647 1.393 . S
C644 H633 0.950 . S
C644 C642 1.391 . S
C644 C645 1.400 . S
C645 C639 1.491 . S
C645 C644 1.400 . S
C645 C646 1.398 . S
C646 H634 0.950 . S
C646 C645 1.398 . S
C646 C647 1.391 . S
C647 H635 0.950 . S
C647 C643 1.393 . S
C647 C646 1.391 . S
H648 C656 0.950 . S
H649 C661 0.950 . S
H650 C658 0.950 . S
H651 C660 0.950 . S
H652 C662 0.950 . S
H653 C664 0.950 . S
H654 C666 0.950 . S
H655 C667 0.950 . S
C656 H648 0.950 . S
C656 C657 1.386 . S
C656 C658 1.391 . S
C657 C656 1.386 . S
C657 C661 1.393 . S
C658 H650 0.950 . S
C658 C656 1.391 . S
C658 C659 1.400 . S
C659 C658 1.400 . S
C659 C660 1.398 . S
C659 C665 1.491 . S
C660 H651 0.950 . S
C660 C659 1.398 . S
C660 C661 1.391 . S
C661 H649 0.950 . S
C661 C657 1.393 . S
C661 C660 1.391 . S
C662 H652 0.950 . S
C662 C663 1.386 . S
C662 C664 1.391 . S
C663 C662 1.386 . S
C663 C667 1.393 . S
C664 H653 0.950 . S
C664 C662 1.391 . S
C664 C665 1.400 . S
C665 C659 1.491 . S
C665 C664 1.400 . S
C665 C666 1.398 . S
C666 H654 0.950 . S
C666 C665 1.398 . S
C666 C667 1.391 . S
C667 H655 0.950 . S
C667 C663 1.393 . S
C667 C666 1.391 . S
H668 C676 0.950 . S
H669 C681 0.950 . S
H670 C678 0.950 . S
H671 C680 0.950 . S
H672 C682 0.950 . S
H673 C684 0.950 . S
H674 C686 0.950 . S
H675 C687 0.950 . S
C676 H668 0.950 . S
C676 C677 1.386 1_556 S
C676 C678 1.391 . S
C677 C676 1.386 1_554 S
C677 C681 1.393 . S
C678 H670 0.950 . S
C678 C676 1.391 . S
C678 C679 1.400 1_556 S
C679 C678 1.400 1_554 S
C679 C680 1.398 . S
C679 C685 1.491 . S
C680 H671 0.950 . S
C680 C679 1.398 . S
C680 C681 1.391 . S
C681 H669 0.950 . S
C681 C677 1.393 . S
C681 C680 1.391 . S
C682 H672 0.950 . S
C682 C683 1.386 . S
C682 C684 1.391 . S
C683 C682 1.386 . S
C683 C687 1.393 1_554 S
C684 H673 0.950 . S
C684 C682 1.391 . S
C684 C685 1.400 . S
C685 C679 1.491 . S
C685 C684 1.400 . S
C685 C686 1.398 1_554 S
C686 H674 0.950 . S
C686 C685 1.398 1_556 S
C686 C687 1.391 . S
C687 H675 0.950 . S
C687 C683 1.393 1_556 S
C687 C686 1.391 . S
H688 C696 0.950 . S
H689 C701 0.950 . S
H690 C698 0.950 . S
H691 C700 0.950 . S
H692 C702 0.950 . S
H693 C704 0.950 . S
H694 C706 0.950 . S
H695 C707 0.950 . S
C696 H688 0.950 . S
C696 C697 1.386 . S
C696 C698 1.391 . S
C697 C696 1.386 . S
C697 C701 1.393 1_556 S
C698 H690 0.950 . S
C698 C696 1.391 . S
C698 C699 1.400 . S
C699 C698 1.400 . S
C699 C700 1.398 1_556 S
C699 C705 1.491 . S
C700 H691 0.950 . S
C700 C699 1.398 1_554 S
C700 C701 1.391 . S
C701 H689 0.950 . S
C701 C697 1.393 1_554 S
C701 C700 1.391 . S
C702 H692 0.950 . S
C702 C703 1.386 1_554 S
C702 C704 1.391 . S
C703 C702 1.386 1_556 S
C703 C707 1.393 . S
C704 H693 0.950 . S
C704 C702 1.391 . S
C704 C705 1.400 1_554 S
C705 C699 1.491 . S
C705 C704 1.400 1_556 S
C705 C706 1.398 . S
C706 H694 0.950 . S
C706 C705 1.398 . S
C706 C707 1.391 . S
C707 H695 0.950 . S
C707 C703 1.393 . S
C707 C706 1.391 . S
H708 C716 0.950 . S
H709 C721 0.950 . S
H710 C718 0.950 . S
H711 C720 0.950 . S
H712 C722 0.950 . S
H713 C724 0.950 . S
H714 C726 0.950 . S
H715 C727 0.950 . S
C716 H708 0.950 . S
C716 C717 1.386 . S
C716 C718 1.391 . S
C717 C716 1.386 . S
C717 C721 1.393 . S
C718 H710 0.950 . S
C718 C716 1.391 . S
C718 C719 1.400 . S
C719 C718 1.400 . S
C719 C720 1.398 . S
C719 C725 1.491 . S
C720 H711 0.950 . S
C720 C719 1.398 . S
C720 C721 1.391 . S
C721 H709 0.950 . S
C721 C717 1.393 . S
C721 C720 1.391 . S
C722 H712 0.950 . S
C722 C723 1.386 . S
C722 C724 1.391 . S
C723 C722 1.386 . S
C723 C727 1.393 . S
C724 H713 0.950 . S
C724 C722 1.391 . S
C724 C725 1.400 . S
C725 C719 1.491 . S
C725 C724 1.400 . S
C725 C726 1.398 . S
C726 H714 0.950 . S
C726 C725 1.398 . S
C726 C727 1.391 . S
C727 H715 0.950 . S
C727 C723 1.393 . S
C727 C726 1.391 . S
H728 C736 0.950 . S
H729 C741 0.950 . S
H730 C738 0.950 . S
H731 C740 0.950 . S
H732 C742 0.950 . S
H733 C744 0.950 . S
H734 C746 0.950 . S
H735 C747 0.950 . S
C736 H728 0.950 . S
C736 C737 1.386 . S
C736 C738 1.391 . S
C737 C736 1.386 . S
C737 C741 1.393 . S
C738 H730 0.950 . S
C738 C736 1.391 . S
C738 C739 1.400 . S
C739 C738 1.400 . S
C739 C740 1.398 . S
C739 C745 1.491 . S
C740 H731 0.950 . S
C740 C739 1.398 . S
C740 C741 1.391 . S
C741 H729 0.950 . S
C741 C737 1.393 . S
C741 C740 1.391 . S
C742 H732 0.950 . S
C742 C743 1.386 . S
C742 C744 1.391 . S
C743 C742 1.386 . S
C743 C747 1.393 . S
C744 H733 0.950 . S
C744 C742 1.391 . S
C744 C745 1.400 . S
C745 C739 1.491 . S
C745 C744 1.400 . S
C745 C746 1.398 . S
C746 H734 0.950 . S
C746 C745 1.398 . S
C746 C747 1.391 . S
C747 H735 0.950 . S
C747 C743 1.393 . S
C747 C746 1.391 . S
H748 C756 0.950 . S
H749 C761 0.950 . S
H750 C758 0.950 . S
H751 C760 0.950 . S
H752 C762 0.950 . S
H753 C764 0.950 . S
H754 C766 0.950 . S
H755 C767 0.950 . S
C756 H748 0.950 . S
C756 C757 1.386 . S
C756 C758 1.391 . S
C757 C756 1.386 . S
C757 C761 1.393 . S
C758 H750 0.950 . S
C758 C756 1.391 . S
C758 C759 1.400 . S
C759 C758 1.400 . S
C759 C760 1.398 . S
C759 C765 1.491 . S
C760 H751 0.950 . S
C760 C759 1.398 . S
C760 C761 1.391 . S
C761 H749 0.950 . S
C761 C757 1.393 . S
C761 C760 1.391 . S
C762 H752 0.950 . S
C762 C763 1.386 . S
C762 C764 1.391 . S
C763 C762 1.386 . S
C763 C767 1.393 . S
C764 H753 0.950 . S
C764 C762 1.391 . S
C764 C765 1.400 . S
C765 C759 1.491 . S
C765 C764 1.400 . S
C765 C766 1.398 . S
C766 H754 0.950 . S
C766 C765 1.398 . S
C766 C767 1.391 . S
C767 H755 0.950 . S
C767 C763 1.393 . S
C767 C766 1.391 . S
H768 C776 0.950 . S
H769 C781 0.950 . S
H770 C778 0.950 . S
H771 C780 0.950 . S
H772 C782 0.950 . S
H773 C784 0.950 . S
H774 C786 0.950 . S
H775 C787 0.950 . S
C776 H768 0.950 . S
C776 C777 1.386 . S
C776 C778 1.391 . S
C777 C776 1.386 . S
C777 C781 1.393 . S
C778 H770 0.950 . S
C778 C776 1.391 . S
C778 C779 1.400 . S
C779 C778 1.400 . S
C779 C780 1.398 . S
C779 C785 1.491 . S
C780 H771 0.950 . S
C780 C779 1.398 . S
C780 C781 1.391 . S
C781 H769 0.950 . S
C781 C777 1.393 . S
C781 C780 1.391 . S
C782 H772 0.950 . S
C782 C783 1.386 . S
C782 C784 1.391 . S
C783 C782 1.386 . S
C783 C787 1.393 . S
C784 H773 0.950 . S
C784 C782 1.391 . S
C784 C785 1.400 . S
C785 C779 1.491 . S
C785 C784 1.400 . S
C785 C786 1.398 . S
C786 H774 0.950 . S
C786 C785 1.398 . S
C786 C787 1.391 . S
C787 H775 0.950 . S
C787 C783 1.393 . S
C787 C786 1.391 . S
H788 C796 0.950 . S
H789 C801 0.950 . S
H790 C798 0.950 . S
H791 C800 0.950 . S
H792 C802 0.950 . S
H793 C804 0.950 . S
H794 C806 0.950 . S
H795 C807 0.950 . S
C796 H788 0.950 . S
C796 C797 1.386 . S
C796 C798 1.391 . S
C797 C796 1.386 . S
C797 C801 1.393 . S
C798 H790 0.950 . S
C798 C796 1.391 . S
C798 C799 1.400 . S
C799 C798 1.400 . S
C799 C800 1.398 . S
C799 C805 1.491 . S
C800 H791 0.950 . S
C800 C799 1.398 . S
C800 C801 1.391 . S
C801 H789 0.950 . S
C801 C797 1.393 . S
C801 C800 1.391 . S
C802 H792 0.950 . S
C802 C803 1.386 . S
C802 C804 1.391 . S
C803 C802 1.386 . S
C803 C807 1.393 . S
C804 H793 0.950 . S
C804 C802 1.391 . S
C804 C805 1.400 . S
C805 C799 1.491 . S
C805 C804 1.400 . S
C805 C806 1.398 . S
C806 H794 0.950 . S
C806 C805 1.398 . S
C806 C807 1.391 . S
C807 H795 0.950 . S
C807 C803 1.393 . S
C807 C806 1.391 . S
H808 C816 0.950 . S
H809 C821 0.950 . S
H810 C818 0.950 . S
H811 C820 0.950 . S
H812 C822 0.950 . S
H813 C824 0.950 . S
H814 C826 0.950 . S
H815 C827 0.950 . S
C816 H808 0.950 . S
C816 C817 1.386 . S
C816 C818 1.391 . S
C817 C816 1.386 . S
C817 C821 1.393 . S
C818 H810 0.950 . S
C818 C816 1.391 . S
C818 C819 1.400 . S
C819 C818 1.400 . S
C819 C820 1.398 . S
C819 C825 1.491 . S
C820 H811 0.950 . S
C820 C819 1.398 . S
C820 C821 1.391 . S
C821 H809 0.950 . S
C821 C817 1.393 . S
C821 C820 1.391 . S
C822 H812 0.950 . S
C822 C823 1.386 . S
C822 C824 1.391 . S
C823 C822 1.386 . S
C823 C827 1.393 . S
C824 H813 0.950 . S
C824 C822 1.391 . S
C824 C825 1.400 . S
C825 C819 1.491 . S
C825 C824 1.400 . S
C825 C826 1.398 . S
C826 H814 0.950 . S
C826 C825 1.398 . S
C826 C827 1.391 . S
C827 H815 0.950 . S
C827 C823 1.393 . S
C827 C826 1.391 . S
H828 C836 0.950 . S
H829 C841 0.950 . S
H830 C838 0.950 . S
H831 C840 0.950 . S
H832 C842 0.950 . S
H833 C844 0.950 . S
H834 C846 0.950 . S
H835 C847 0.950 . S
C836 H828 0.950 . S
C836 C837 1.386 . S
C836 C838 1.391 . S
C837 C836 1.386 . S
C837 C841 1.393 . S
C838 H830 0.950 . S
C838 C836 1.391 . S
C838 C839 1.400 . S
C839 C838 1.400 . S
C839 C840 1.398 . S
C839 C845 1.491 . S
C840 H831 0.950 . S
C840 C839 1.398 . S
C840 C841 1.391 . S
C841 H829 0.950 . S
C841 C837 1.393 . S
C841 C840 1.391 . S
C842 H832 0.950 . S
C842 C843 1.386 . S
C842 C844 1.391 . S
C843 C842 1.386 . S
C843 C847 1.393 . S
C844 H833 0.950 . S
C844 C842 1.391 . S
C844 C845 1.400 . S
C845 C839 1.491 . S
C845 C844 1.400 . S
C845 C846 1.398 . S
C846 H834 0.950 . S
C846 C845 1.398 . S
C846 C847 1.391 . S
C847 H835 0.950 . S
C847 C843 1.393 . S
C847 C846 1.391 . S
H848 C856 0.950 . S
H849 C861 0.950 . S
H850 C858 0.950 . S
H851 C860 0.950 . S
H852 C862 0.950 . S
H853 C864 0.950 . S
H854 C866 0.950 . S
H855 C867 0.950 . S
C856 H848 0.950 . S
C856 C857 1.386 . S
C856 C858 1.391 . S
C857 C856 1.386 . S
C857 C861 1.393 . S
C858 H850 0.950 . S
C858 C856 1.391 . S
C858 C859 1.400 . S
C859 C858 1.400 . S
C859 C860 1.398 . S
C859 C865 1.491 . S
C860 H851 0.950 . S
C860 C859 1.398 . S
C860 C861 1.391 . S
C861 H849 0.950 . S
C861 C857 1.393 . S
C861 C860 1.391 . S
C862 H852 0.950 . S
C862 C863 1.386 . S
C862 C864 1.391 . S
C863 C862 1.386 . S
C863 C867 1.393 . S
C864 H853 0.950 . S
C864 C862 1.391 . S
C864 C865 1.400 . S
C865 C859 1.491 . S
C865 C864 1.400 . S
C865 C866 1.398 . S
C866 H854 0.950 . S
C866 C865 1.398 . S
C866 C867 1.391 . S
C867 H855 0.950 . S
C867 C863 1.393 . S
C867 C866 1.391 . S
H868 C876 0.950 . S
H869 C881 0.950 . S
H870 C878 0.950 . S
H871 C880 0.950 . S
H872 C882 0.950 . S
H873 C884 0.950 . S
H874 C886 0.950 . S
H875 C887 0.950 . S
C876 H868 0.950 . S
C876 C877 1.386 . S
C876 C878 1.391 . S
C877 C876 1.386 . S
C877 C881 1.393 . S
C878 H870 0.950 . S
C878 C876 1.391 . S
C878 C879 1.400 . S
C879 C878 1.400 . S
C879 C880 1.398 . S
C879 C885 1.491 . S
C880 H871 0.950 . S
C880 C879 1.398 . S
C880 C881 1.391 . S
C881 H869 0.950 . S
C881 C877 1.393 . S
C881 C880 1.391 . S
C882 H872 0.950 . S
C882 C883 1.386 . S
C882 C884 1.391 . S
C883 C882 1.386 . S
C883 C887 1.393 . S
C884 H873 0.950 . S
C884 C882 1.391 . S
C884 C885 1.400 . S
C885 C879 1.491 . S
C885 C884 1.400 . S
C885 C886 1.398 . S
C886 H874 0.950 . S
C886 C885 1.398 . S
C886 C887 1.391 . S
C887 H875 0.950 . S
C887 C883 1.393 . S
C887 C886 1.391 . S
H888 C896 0.950 . S
H889 C901 0.950 . S
H890 C898 0.950 . S
H891 C900 0.950 . S
H892 C902 0.950 . S
H893 C904 0.950 . S
H894 C906 0.950 . S
H895 C907 0.950 . S
C896 H888 0.950 . S
C896 C897 1.386 . S
C896 C898 1.391 . S
C897 C896 1.386 . S
C897 C901 1.393 1_556 S
C898 H890 0.950 . S
C898 C896 1.391 . S
C898 C899 1.400 . S
C899 C898 1.400 . S
C899 C900 1.398 1_556 S
C899 C905 1.491 . S
C900 H891 0.950 . S
C900 C899 1.398 1_554 S
C900 C901 1.391 . S
C901 H889 0.950 . S
C901 C897 1.393 1_554 S
C901 C900 1.391 . S
C902 H892 0.950 . S
C902 C903 1.386 1_554 S
C902 C904 1.391 . S
C903 C902 1.386 1_556 S
C903 C907 1.393 . S
C904 H893 0.950 . S
C904 C902 1.391 . S
C904 C905 1.400 1_554 S
C905 C899 1.491 . S
C905 C904 1.400 1_556 S
C905 C906 1.398 . S
C906 H894 0.950 . S
C906 C905 1.398 . S
C906 C907 1.391 . S
C907 H895 0.950 . S
C907 C903 1.393 . S
C907 C906 1.391 . S
H908 C916 0.950 . S
H909 C921 0.950 . S
H910 C918 0.950 . S
H911 C920 0.950 . S
H912 C922 0.950 . S
H913 C924 0.950 . S
H914 C926 0.950 . S
H915 C927 0.950 . S
C916 H908 0.950 . S
C916 C917 1.386 . S
C916 C918 1.391 . S
C917 C916 1.386 . S
C917 C921 1.393 . S
C918 H910 0.950 . S
C918 C916 1.391 . S
C918 C919 1.400 . S
C919 C918 1.400 . S
C919 C920 1.398 . S
C919 C925 1.491 . S
C920 H911 0.950 . S
C920 C919 1.398 . S
C920 C921 1.391 . S
C921 H909 0.950 . S
C921 C917 1.393 . S
C921 C920 1.391 . S
C922 H912 0.950 . S
C922 C923 1.386 . S
C922 C924 1.391 . S
C923 C922 1.386 . S
C923 C927 1.393 . S
C924 H913 0.950 . S
C924 C922 1.391 . S
C924 C925 1.400 . S
C925 C919 1.491 . S
C925 C924 1.400 . S
C925 C926 1.398 . S
C926 H914 0.950 . S
C926 C925 1.398 . S
C926 C927 1.391 . S
C927 H915 0.950 . S
C927 C923 1.393 . S
C927 C926 1.391 . S
H928 C936 0.950 . S
H929 C941 0.950 . S
H930 C938 0.950 . S
H931 C940 0.950 . S
H932 C942 0.950 . S
H933 C944 0.950 . S
H934 C946 0.950 . S
H935 C947 0.950 . S
C936 H928 0.950 . S
C936 C937 1.386 . S
C936 C938 1.391 . S
C937 C936 1.386 . S
C937 C941 1.393 . S
C938 H930 0.950 . S
C938 C936 1.391 . S
C938 C939 1.400 . S
C939 C938 1.400 . S
C939 C940 1.398 . S
C939 C945 1.491 . S
C940 H931 0.950 . S
C940 C939 1.398 . S
C940 C941 1.391 . S
C941 H929 0.950 . S
C941 C937 1.393 . S
C941 C940 1.391 . S
C942 H932 0.950 . S
C942 C943 1.386 . S
C942 C944 1.391 . S
C943 C942 1.386 . S
C943 C947 1.393 . S
C944 H933 0.950 . S
C944 C942 1.391 . S
C944 C945 1.400 . S
C945 C939 1.491 . S
C945 C944 1.400 . S
C945 C946 1.398 . S
C946 H934 0.950 . S
C946 C945 1.398 . S
C946 C947 1.391 . S
C947 H935 0.950 . S
C947 C943 1.393 . S
C947 C946 1.391 . S
H948 C956 0.950 . S
H949 C961 0.950 . S
H950 C958 0.950 . S
H951 C960 0.950 . S
H952 C962 0.950 . S
H953 C964 0.950 . S
H954 C966 0.950 . S
H955 C967 0.950 . S
C956 H948 0.950 . S
C956 C957 1.386 . S
C956 C958 1.391 . S
C957 C956 1.386 . S
C957 C961 1.393 . S
C958 H950 0.950 . S
C958 C956 1.391 . S
C958 C959 1.400 . S
C959 C958 1.400 . S
C959 C960 1.398 . S
C959 C965 1.491 . S
C960 H951 0.950 . S
C960 C959 1.398 . S
C960 C961 1.391 . S
C961 H949 0.950 . S
C961 C957 1.393 . S
C961 C960 1.391 . S
C962 H952 0.950 . S
C962 C963 1.386 . S
C962 C964 1.391 . S
C963 C962 1.386 . S
C963 C967 1.393 . S
C964 H953 0.950 . S
C964 C962 1.391 . S
C964 C965 1.400 . S
C965 C959 1.491 . S
C965 C964 1.400 . S
C965 C966 1.398 . S
C966 H954 0.950 . S
C966 C965 1.398 . S
C966 C967 1.391 . S
C967 H955 0.950 . S
C967 C963 1.393 . S
C967 C966 1.391 . S
H968 C976 0.950 . S
H969 C981 0.950 . S
H970 C978 0.950 . S
H971 C980 0.950 . S
H972 C982 0.950 . S
H973 C984 0.950 . S
H974 C986 0.950 . S
H975 C987 0.950 . S
C976 H968 0.950 . S
C976 C977 1.386 . S
C976 C978 1.391 . S
C977 C976 1.386 . S
C977 C981 1.393 . S
C978 H970 0.950 . S
C978 C976 1.391 . S
C978 C979 1.400 . S
C979 C978 1.400 . S
C979 C980 1.398 . S
C979 C985 1.491 . S
C980 H971 0.950 . S
C980 C979 1.398 . S
C980 C981 1.391 . S
C981 H969 0.950 . S
C981 C977 1.393 . S
C981 C980 1.391 . S
C982 H972 0.950 . S
C982 C983 1.386 . S
C982 C984 1.391 . S
C983 C982 1.386 . S
C983 C987 1.393 . S
C984 H973 0.950 . S
C984 C982 1.391 . S
C984 C985 1.400 . S
C985 C979 1.491 . S
C985 C984 1.400 . S
C985 C986 1.398 . S
C986 H974 0.950 . S
C986 C985 1.398 . S
C986 C987 1.391 . S
C987 H975 0.950 . S
C987 C983 1.393 . S
C987 C986 1.391 . S
H988 C996 0.950 . S
H989 C1001 0.950 . S
H990 C998 0.950 . S
H991 C1000 0.950 . S
H992 C1002 0.950 . S
H993 C1004 0.950 . S
H994 C1006 0.950 . S
H995 C1007 0.950 . S
C996 H988 0.950 . S
C996 C997 1.386 . S
C996 C998 1.391 . S
C997 C996 1.386 . S
C997 C1001 1.393 . S
C998 H990 0.950 . S
C998 C996 1.391 . S
C998 C999 1.400 . S
C999 C998 1.400 . S
C999 C1000 1.398 . S
C999 C1005 1.491 . S
C1000 H991 0.950 . S
C1000 C999 1.398 . S
C1000 C1001 1.391 . S
C1001 H989 0.950 . S
C1001 C997 1.393 . S
C1001 C1000 1.391 . S
C1002 H992 0.950 . S
C1002 C1003 1.386 . S
C1002 C1004 1.391 . S
C1003 C1002 1.386 . S
C1003 C1007 1.393 . S
C1004 H993 0.950 . S
C1004 C1002 1.391 . S
C1004 C1005 1.400 . S
C1005 C999 1.491 . S
C1005 C1004 1.400 . S
C1005 C1006 1.398 . S
C1006 H994 0.950 . S
C1006 C1005 1.398 . S
C1006 C1007 1.391 . S
C1007 H995 0.950 . S
C1007 C1003 1.393 . S
C1007 C1006 1.391 . S
H1008 C1016 0.950 . S
H1009 C1021 0.950 . S
H1010 C1018 0.950 . S
H1011 C1020 0.950 . S
H1012 C1022 0.950 . S
H1013 C1024 0.950 . S
H1014 C1026 0.950 . S
H1015 C1027 0.950 . S
C1016 H1008 0.950 . S
C1016 C1017 1.386 . S
C1016 C1018 1.391 . S
C1017 C1016 1.386 . S
C1017 C1021 1.393 . S
C1018 H1010 0.950 . S
C1018 C1016 1.391 . S
C1018 C1019 1.400 . S
C1019 C1018 1.400 . S
C1019 C1020 1.398 . S
C1019 C1025 1.491 . S
C1020 H1011 0.950 . S
C1020 C1019 1.398 . S
C1020 C1021 1.391 . S
C1021 H1009 0.950 . S
C1021 C1017 1.393 . S
C1021 C1020 1.391 . S
C1022 H1012 0.950 . S
C1022 C1023 1.386 . S
C1022 C1024 1.391 . S
C1023 C1022 1.386 . S
C1023 C1027 1.393 . S
C1024 H1013 0.950 . S
C1024 C1022 1.391 . S
C1024 C1025 1.400 . S
C1025 C1019 1.491 . S
C1025 C1024 1.400 . S
C1025 C1026 1.398 . S
C1026 H1014 0.950 . S
C1026 C1025 1.398 . S
C1026 C1027 1.391 . S
C1027 H1015 0.950 . S
C1027 C1023 1.393 . S
C1027 C1026 1.391 . S
H1028 C1036 0.950 . S
H1029 C1041 0.950 . S
H1030 C1038 0.950 . S
H1031 C1040 0.950 . S
H1032 C1042 0.950 . S
H1033 C1044 0.950 . S
H1034 C1046 0.950 . S
H1035 C1047 0.950 . S
C1036 H1028 0.950 . S
C1036 C1037 1.386 . S
C1036 C1038 1.391 . S
C1037 C1036 1.386 . S
C1037 C1041 1.393 . S
C1038 H1030 0.950 . S
C1038 C1036 1.391 . S
C1038 C1039 1.400 . S
C1039 C1038 1.400 . S
C1039 C1040 1.398 . S
C1039 C1045 1.491 . S
C1040 H1031 0.950 . S
C1040 C1039 1.398 . S
C1040 C1041 1.391 . S
C1041 H1029 0.950 . S
C1041 C1037 1.393 . S
C1041 C1040 1.391 . S
C1042 H1032 0.950 . S
C1042 C1043 1.386 . S
C1042 C1044 1.391 . S
C1043 C1042 1.386 . S
C1043 C1047 1.393 . S
C1044 H1033 0.950 . S
C1044 C1042 1.391 . S
C1044 C1045 1.400 . S
C1045 C1039 1.491 . S
C1045 C1044 1.400 . S
C1045 C1046 1.398 . S
C1046 H1034 0.950 . S
C1046 C1045 1.398 . S
C1046 C1047 1.391 . S
C1047 H1035 0.950 . S
C1047 C1043 1.393 . S
C1047 C1046 1.391 . S
H1048 C1056 0.950 . S
H1049 C1061 0.950 . S
H1050 C1058 0.950 . S
H1051 C1060 0.950 . S
H1052 C1062 0.950 . S
H1053 C1064 0.950 . S
H1054 C1066 0.950 . S
H1055 C1067 0.950 . S
C1056 H1048 0.950 . S
C1056 C1057 1.386 . S
C1056 C1058 1.391 . S
C1057 C1056 1.386 . S
C1057 C1061 1.393 . S
C1058 H1050 0.950 . S
C1058 C1056 1.391 . S
C1058 C1059 1.400 . S
C1059 C1058 1.400 . S
C1059 C1060 1.398 . S
C1059 C1065 1.491 . S
C1060 H1051 0.950 . S
C1060 C1059 1.398 . S
C1060 C1061 1.391 . S
C1061 H1049 0.950 . S
C1061 C1057 1.393 . S
C1061 C1060 1.391 . S
C1062 H1052 0.950 . S
C1062 C1063 1.386 . S
C1062 C1064 1.391 . S
C1063 C1062 1.386 . S
C1063 C1067 1.393 . S
C1064 H1053 0.950 . S
C1064 C1062 1.391 . S
C1064 C1065 1.400 . S
C1065 C1059 1.491 . S
C1065 C1064 1.400 . S
C1065 C1066 1.398 . S
C1066 H1054 0.950 . S
C1066 C1065 1.398 . S
C1066 C1067 1.391 . S
C1067 H1055 0.950 . S
C1067 C1063 1.393 . S
C1067 C1066 1.391 . S
H1068 C1076 0.950 . S
H1069 C1081 0.950 . S
H1070 C1078 0.950 . S
H1071 C1080 0.950 . S
H1072 C1082 0.950 . S
H1073 C1084 0.950 . S
H1074 C1086 0.950 . S
H1075 C1087 0.950 . S
C1076 H1068 0.950 . S
C1076 C1077 1.386 . S
C1076 C1078 1.391 . S
C1077 C1076 1.386 . S
C1077 C1081 1.393 . S
C1078 H1070 0.950 . S
C1078 C1076 1.391 . S
C1078 C1079 1.400 . S
C1079 C1078 1.400 . S
C1079 C1080 1.398 . S
C1079 C1085 1.491 . S
C1080 H1071 0.950 . S
C1080 C1079 1.398 . S
C1080 C1081 1.391 . S
C1081 H1069 0.950 . S
C1081 C1077 1.393 . S
C1081 C1080 1.391 . S
C1082 H1072 0.950 . S
C1082 C1083 1.386 . S
C1082 C1084 1.391 . S
C1083 C1082 1.386 . S
C1083 C1087 1.393 . S
C1084 H1073 0.950 . S
C1084 C1082 1.391 . S
C1084 C1085 1.400 . S
C1085 C1079 1.491 . S
C1085 C1084 1.400 . S
C1085 C1086 1.398 . S
C1086 H1074 0.950 . S
C1086 C1085 1.398 . S
C1086 C1087 1.391 . S
C1087 H1075 0.950 . S
C1087 C1083 1.393 . S
C1087 C1086 1.391 . S
H1088 C1096 0.950 . S
H1089 C1101 0.950 . S
H1090 C1098 0.950 . S
H1091 C1100 0.950 . S
H1092 C1102 0.950 . S
H1093 C1104 0.950 . S
H1094 C1106 0.950 . S
H1095 C1107 0.950 . S
C1096 H1088 0.950 . S
C1096 C1097 1.386 . S
C1096 C1098 1.391 . S
C1097 C1096 1.386 . S
C1097 C1101 1.393 . S
C1098 H1090 0.950 . S
C1098 C1096 1.391 . S
C1098 C1099 1.400 . S
C1099 C1098 1.400 . S
C1099 C1100 1.398 . S
C1099 C1105 1.491 . S
C1100 H1091 0.950 . S
C1100 C1099 1.398 . S
C1100 C1101 1.391 . S
C1101 H1089 0.950 . S
C1101 C1097 1.393 . S
C1101 C1100 1.391 . S
C1102 H1092 0.950 . S
C1102 C1103 1.386 . S
C1102 C1104 1.391 . S
C1103 C1102 1.386 . S
C1103 C1107 1.393 . S
C1104 H1093 0.950 . S
C1104 C1102 1.391 . S
C1104 C1105 1.400 . S
C1105 C1099 1.491 . S
C1105 C1104 1.400 . S
C1105 C1106 1.398 . S
C1106 H1094 0.950 . S
C1106 C1105 1.398 . S
C1106 C1107 1.391 . S
C1107 H1095 0.950 . S
C1107 C1103 1.393 . S
C1107 C1106 1.391 . S
H1108 C1116 0.950 . S
H1109 C1121 0.950 . S
H1110 C1118 0.950 . S
H1111 C1120 0.950 . S
H1112 C1122 0.950 . S
H1113 C1124 0.950 . S
H1114 C1126 0.950 . S
H1115 C1127 0.950 . S
C1116 H1108 0.950 . S
C1116 C1117 1.386 . S
C1116 C1118 1.391 . S
C1117 C1116 1.386 . S
C1117 C1121 1.393 . S
C1118 H1110 0.950 . S
C1118 C1116 1.391 . S
C1118 C1119 1.400 . S
C1119 C1118 1.400 . S
C1119 C1120 1.398 . S
C1119 C1125 1.491 . S
C1120 H1111 0.950 . S
C1120 C1119 1.398 . S
C1120 C1121 1.391 . S
C1121 H1109 0.950 . S
C1121 C1117 1.393 . S
C1121 C1120 1.391 . S
C1122 H1112 0.950 . S
C1122 C1123 1.386 . S
C1122 C1124 1.391 . S
C1123 C1122 1.386 . S
C1123 C1127 1.393 . S
C1124 H1113 0.950 . S
C1124 C1122 1.391 . S
C1124 C1125 1.400 . S
C1125 C1119 1.491 . S
C1125 C1124 1.400 . S
C1125 C1126 1.398 . S
C1126 H1114 0.950 . S
C1126 C1125 1.398 . S
C1126 C1127 1.391 . S
C1127 H1115 0.950 . S
C1127 C1123 1.393 . S
C1127 C1126 1.391 . S
H1128 C1136 0.950 . S
H1129 C1141 0.950 . S
H1130 C1138 0.950 . S
H1131 C1140 0.950 . S
H1132 C1142 0.950 . S
H1133 C1144 0.950 . S
H1134 C1146 0.950 . S
H1135 C1147 0.950 . S
C1136 H1128 0.950 . S
C1136 C1137 1.386 . S
C1136 C1138 1.391 . S
C1137 C1136 1.386 . S
C1137 C1141 1.393 . S
C1138 H1130 0.950 . S
C1138 C1136 1.391 . S
C1138 C1139 1.400 . S
C1139 C1138 1.400 . S
C1139 C1140 1.398 . S
C1139 C1145 1.491 . S
C1140 H1131 0.950 . S
C1140 C1139 1.398 . S
C1140 C1141 1.391 . S
C1141 H1129 0.950 . S
C1141 C1137 1.393 . S
C1141 C1140 1.391 . S
C1142 H1132 0.950 . S
C1142 C1143 1.386 . S
C1142 C1144 1.391 . S
C1143 C1142 1.386 . S
C1143 C1147 1.393 . S
C1144 H1133 0.950 . S
C1144 C1142 1.391 . S
C1144 C1145 1.400 . S
C1145 C1139 1.491 . S
C1145 C1144 1.400 . S
C1145 C1146 1.398 . S
C1146 H1134 0.950 . S
C1146 C1145 1.398 . S
C1146 C1147 1.391 . S
C1147 H1135 0.950 . S
C1147 C1143 1.393 . S
C1147 C1146 1.391 . S
H1148 C1156 0.950 . S
H1149 C1161 0.950 . S
H1150 C1158 0.950 . S
H1151 C1160 0.950 . S
H1152 C1162 0.950 . S
H1153 C1164 0.950 . S
H1154 C1166 0.950 . S
H1155 C1167 0.950 . S
C1156 H1148 0.950 . S
C1156 C1157 1.386 . S
C1156 C1158 1.391 . S
C1157 C1156 1.386 . S
C1157 C1161 1.393 . S
C1158 H1150 0.950 . S
C1158 C1156 1.391 . S
C1158 C1159 1.400 . S
C1159 C1158 1.400 . S
C1159 C1160 1.398 . S
C1159 C1165 1.491 . S
C1160 H1151 0.950 . S
C1160 C1159 1.398 . S
C1160 C1161 1.391 . S
C1161 H1149 0.950 . S
C1161 C1157 1.393 . S
C1161 C1160 1.391 . S
C1162 H1152 0.950 . S
C1162 C1163 1.386 . S
C1162 C1164 1.391 . S
C1163 C1162 1.386 . S
C1163 C1167 1.393 . S
C1164 H1153 0.950 . S
C1164 C1162 1.391 . S
C1164 C1165 1.400 . S
C1165 C1159 1.491 . S
C1165 C1164 1.400 . S
C1165 C1166 1.398 . S
C1166 H1154 0.950 . S
C1166 C1165 1.398 . S
C1166 C1167 1.391 . S
C1167 H1155 0.950 . S
C1167 C1163 1.393 . S
C1167 C1166 1.391 . S
H1168 C1176 0.950 . S
H1169 C1181 0.950 . S
H1170 C1178 0.950 . S
H1171 C1180 0.950 . S
H1172 C1182 0.950 . S
H1173 C1184 0.950 . S
H1174 C1186 0.950 . S
H1175 C1187 0.950 . S
C1176 H1168 0.950 . S
C1176 C1177 1.386 . S
C1176 C1178 1.391 . S
C1177 C1176 1.386 . S
C1177 C1181 1.393 . S
C1178 H1170 0.950 . S
C1178 C1176 1.391 . S
C1178 C1179 1.400 . S
C1179 C1178 1.400 . S
C1179 C1180 1.398 . S
C1179 C1185 1.491 . S
C1180 H1171 0.950 . S
C1180 C1179 1.398 . S
C1180 C1181 1.391 . S
C1181 H1169 0.950 . S
C1181 C1177 1.393 . S
C1181 C1180 1.391 . S
C1182 H1172 0.950 . S
C1182 C1183 1.386 . S
C1182 C1184 1.391 . S
C1183 C1182 1.386 . S
C1183 C1187 1.393 . S
C1184 H1173 0.950 . S
C1184 C1182 1.391 . S
C1184 C1185 1.400 . S
C1185 C1179 1.491 . S
C1185 C1184 1.400 . S
C1185 C1186 1.398 . S
C1186 H1174 0.950 . S
C1186 C1185 1.398 . S
C1186 C1187 1.391 . S
C1187 H1175 0.950 . S
C1187 C1183 1.393 . S
C1187 C1186 1.391 . S
H1188 C1196 0.950 . S
H1189 C1201 0.950 . S
H1190 C1198 0.950 . S
H1191 C1200 0.950 . S
H1192 C1202 0.950 . S
H1193 C1204 0.950 . S
H1194 C1206 0.950 . S
H1195 C1207 0.950 . S
C1196 H1188 0.950 . S
C1196 C1197 1.386 . S
C1196 C1198 1.391 . S
C1197 C1196 1.386 . S
C1197 C1201 1.393 . S
C1198 H1190 0.950 . S
C1198 C1196 1.391 . S
C1198 C1199 1.400 . S
C1199 C1198 1.400 . S
C1199 C1200 1.398 . S
C1199 C1205 1.491 . S
C1200 H1191 0.950 . S
C1200 C1199 1.398 . S
C1200 C1201 1.391 . S
C1201 H1189 0.950 . S
C1201 C1197 1.393 . S
C1201 C1200 1.391 . S
C1202 H1192 0.950 . S
C1202 C1203 1.386 . S
C1202 C1204 1.391 . S
C1203 C1202 1.386 . S
C1203 C1207 1.393 . S
C1204 H1193 0.950 . S
C1204 C1202 1.391 . S
C1204 C1205 1.400 . S
C1205 C1199 1.491 . S
C1205 C1204 1.400 . S
C1205 C1206 1.398 . S
C1206 H1194 0.950 . S
C1206 C1205 1.398 . S
C1206 C1207 1.391 . S
C1207 H1195 0.950 . S
C1207 C1203 1.393 . S
C1207 C1206 1.391 . S
H1208 C1216 0.950 . S
H1209 C1221 0.950 . S
H1210 C1218 0.950 . S
H1211 C1220 0.950 . S
H1212 C1222 0.950 . S
H1213 C1224 0.950 . S
H1214 C1226 0.950 . S
H1215 C1227 0.950 . S
C1216 H1208 0.950 . S
C1216 C1217 1.386 . S
C1216 C1218 1.391 . S
C1217 C1216 1.386 . S
C1217 C1221 1.393 . S
C1218 H1210 0.950 . S
C1218 C1216 1.391 . S
C1218 C1219 1.400 . S
C1219 C1218 1.400 . S
C1219 C1220 1.398 . S
C1219 C1225 1.491 . S
C1220 H1211 0.950 . S
C1220 C1219 1.398 . S
C1220 C1221 1.391 . S
C1221 H1209 0.950 . S
C1221 C1217 1.393 . S
C1221 C1220 1.391 . S
C1222 H1212 0.950 . S
C1222 C1223 1.386 . S
C1222 C1224 1.391 . S
C1223 C1222 1.386 . S
C1223 C1227 1.393 . S
C1224 H1213 0.950 . S
C1224 C1222 1.391 . S
C1224 C1225 1.400 . S
C1225 C1219 1.491 . S
C1225 C1224 1.400 . S
C1225 C1226 1.398 . S
C1226 H1214 0.950 . S
C1226 C1225 1.398 . S
C1226 C1227 1.391 . S
C1227 H1215 0.950 . S
C1227 C1223 1.393 . S
C1227 C1226 1.391 . S
H1228 C1236 0.950 . S
H1229 C1241 0.950 . S
H1230 C1238 0.950 . S
H1231 C1240 0.950 . S
H1232 C1242 0.950 . S
H1233 C1244 0.950 . S
H1234 C1246 0.950 . S
H1235 C1247 0.950 . S
C1236 H1228 0.950 . S
C1236 C1237 1.386 . S
C1236 C1238 1.391 . S
C1237 C1236 1.386 . S
C1237 C1241 1.393 . S
C1238 H1230 0.950 . S
C1238 C1236 1.391 . S
C1238 C1239 1.400 . S
C1239 C1238 1.400 . S
C1239 C1240 1.398 . S
C1239 C1245 1.491 . S
C1240 H1231 0.950 . S
C1240 C1239 1.398 . S
C1240 C1241 1.391 . S
C1241 H1229 0.950 . S
C1241 C1237 1.393 . S
C1241 C1240 1.391 . S
C1242 H1232 0.950 . S
C1242 C1243 1.386 . S
C1242 C1244 1.391 . S
C1243 C1242 1.386 . S
C1243 C1247 1.393 . S
C1244 H1233 0.950 . S
C1244 C1242 1.391 . S
C1244 C1245 1.400 . S
C1245 C1239 1.491 . S
C1245 C1244 1.400 . S
C1245 C1246 1.398 . S
C1246 H1234 0.950 . S
C1246 C1245 1.398 . S
C1246 C1247 1.391 . S
C1247 H1235 0.950 . S
C1247 C1243 1.393 . S
C1247 C1246 1.391 . S
C623 C518 1.457 . S
C617 C35 1.314 . S
C643 C532 1.457 . S
C637 C115 1.329 . S
C663 C547 1.449 . S
C657 C177 1.306 . S
C677 C221 1.283 . S
C683 C505 1.440 . S
C697 C283 1.283 . S
C703 C504 1.440 . S
C717 C363 1.326 . S
C723 C519 1.427 . S
C743 C533 1.488 . S
C737 C407 1.353 . S
C763 C546 1.471 . S
C757 C469 1.314 . S
C777 C159 1.277 . S
C783 C574 1.441 . S
C803 C588 1.482 . S
C797 C239 1.323 . S
C817 C53 1.322 . S
C823 C603 1.431 . S
C843 C560 1.430 . S
C837 C97 1.293 . S
C857 C425 1.320 . S
C863 C561 1.439 . S
C877 C487 1.323 . S
C883 C575 1.435 . S
C903 C589 1.441 . S
C897 C301 1.316 . S
C917 C345 1.323 . S
C923 C602 1.482 . S
C943 C527 1.894 . S
C937 C29 1.880 . S
C963 C545 1.841 . S
C957 C109 1.836 . S
C977 C171 1.834 . S
C983 C503 1.845 . S
C997 C215 1.886 . S
C1003 C513 1.900 . S
C1017 C277 1.878 . S
C1023 C541 1.890 . S
C1043 C499 1.898 . S
C1037 C357 1.846 . S
C1063 C517 1.857 . S
C1057 C401 1.878 . S
C1083 C531 1.842 . S
C1077 C463 1.868 . S
C1103 C583 1.890 . S
C1097 C153 1.878 . S
C1123 C601 1.832 . S
C1117 C233 1.827 . S
C1137 C47 1.845 . S
C1143 C555 1.894 . S
C1163 C569 1.883 . S
C1157 C91 1.866 . S
C1183 C597 1.905 . S
C1177 C419 1.853 . S
C1197 C481 1.848 . S
C1203 C559 1.870 . S
C1223 C573 1.852 . S
C1217 C295 1.844 . S
C1243 C587 1.859 . S
C1237 C339 1.881 . S
