# Generated by pormake.
# Topology nom, (4,4)-cn, num edge types: 1
# Building blocks:
#     Node 0, Type 0, BuildingBlock: NAWXER_clean_linker_0, # of connection points: 4
#     Node 1, Type 0, BuildingBlock: NAWXER_clean_linker_0, # of connection points: 4
#     Node 2, Type 0, BuildingBlock: NAWXER_clean_linker_0, # of connection points: 4
#     Node 3, Type 0, BuildingBlock: NAWXER_clean_linker_0, # of connection points: 4
#     Node 4, Type 0, BuildingBlock: NAWXER_clean_linker_0, # of connection points: 4
#     Node 5, Type 0, BuildingBlock: NAWXER_clean_linker_0, # of connection points: 4
#     Node 6, Type 1, BuildingBlock: AZAVOO_clean_sbu_0, # of connection points: 4
#     Node 7, Type 1, BuildingBlock: AZAVOO_clean_sbu_0, # of connection points: 4
#     Node 8, Type 1, BuildingBlock: AZAVOO_clean_sbu_0, # of connection points: 4
#     Node 9, Type 1, BuildingBlock: AZAVOO_clean_sbu_0, # of connection points: 4
#     Node 10, Type 1, BuildingBlock: AZAVOO_clean_sbu_0, # of connection points: 4
#     Node 11, Type 1, BuildingBlock: AZAVOO_clean_sbu_0, # of connection points: 4
#     Edge 12, Type (0, 1), BuildingBlock: TEMPAE_clean_linker_10, # of connection points: 2
#     Edge 13, Type (0, 1), BuildingBlock: TEMPAE_clean_linker_10, # of connection points: 2
#     Edge 14, Type (0, 1), BuildingBlock: TEMPAE_clean_linker_10, # of connection points: 2
#     Edge 15, Type (0, 1), BuildingBlock: TEMPAE_clean_linker_10, # of connection points: 2
#     Edge 16, Type (0, 1), BuildingBlock: TEMPAE_clean_linker_10, # of connection points: 2
#     Edge 17, Type (0, 1), BuildingBlock: TEMPAE_clean_linker_10, # of connection points: 2
#     Edge 18, Type (0, 1), BuildingBlock: TEMPAE_clean_linker_10, # of connection points: 2
#     Edge 19, Type (0, 1), BuildingBlock: TEMPAE_clean_linker_10, # of connection points: 2
#     Edge 20, Type (0, 1), BuildingBlock: TEMPAE_clean_linker_10, # of connection points: 2
#     Edge 21, Type (0, 1), BuildingBlock: TEMPAE_clean_linker_10, # of connection points: 2
#     Edge 22, Type (0, 1), BuildingBlock: TEMPAE_clean_linker_10, # of connection points: 2
#     Edge 23, Type (0, 1), BuildingBlock: TEMPAE_clean_linker_10, # of connection points: 2
#     Edge 24, Type (0, 1), BuildingBlock: TEMPAE_clean_linker_10, # of connection points: 2
#     Edge 25, Type (0, 1), BuildingBlock: TEMPAE_clean_linker_10, # of connection points: 2
#     Edge 26, Type (0, 1), BuildingBlock: TEMPAE_clean_linker_10, # of connection points: 2
#     Edge 27, Type (0, 1), BuildingBlock: TEMPAE_clean_linker_10, # of connection points: 2
#     Edge 28, Type (0, 1), BuildingBlock: TEMPAE_clean_linker_10, # of connection points: 2
#     Edge 29, Type (0, 1), BuildingBlock: TEMPAE_clean_linker_10, # of connection points: 2
#     Edge 30, Type (0, 1), BuildingBlock: TEMPAE_clean_linker_10, # of connection points: 2
#     Edge 31, Type (0, 1), BuildingBlock: TEMPAE_clean_linker_10, # of connection points: 2
#     Edge 32, Type (0, 1), BuildingBlock: TEMPAE_clean_linker_10, # of connection points: 2
#     Edge 33, Type (0, 1), BuildingBlock: TEMPAE_clean_linker_10, # of connection points: 2
#     Edge 34, Type (0, 1), BuildingBlock: TEMPAE_clean_linker_10, # of connection points: 2
#     Edge 35, Type (0, 1), BuildingBlock: TEMPAE_clean_linker_10, # of connection points: 2
# Relax obj value: 0.043
# Max RMSD: 0.157
# Mean RMSD: 0.130
data_MOF--net-nom--node1-AZAVOO_clean_sbu_0--node2-NAWXER_clean_linker_0--edge1-TEMPAE_clean_linker_10
_symmetry_space_group_name_H-M    P1
_symmetry_Int_Tables_number       1
_symmetry_cell_setting            triclinic
loop_
_symmetry_equiv_pos_as_xyz
'x, y, z'
_cell_length_a     52.884716
_cell_length_b     53.379539
_cell_length_c     56.569208
_cell_angle_alpha  91.048252
_cell_angle_beta   91.108284
_cell_angle_gamma 120.04088
loop_
_atom_site_label
_atom_site_type_symbol
_atom_site_fract_x
_atom_site_fract_y
_atom_site_fract_z
_atom_type_partial_charge
C0 C 0.89731 0.46671 0.34072 0.0
C1 C 0.88426 0.44499 0.35733 0.0
C2 C 0.92678 0.47861 0.33599 0.0
C3 C 0.94365 0.46846 0.34727 0.0
C4 C 0.90133 0.43563 0.36943 0.0
C5 C 0.93089 0.4473 0.3644 0.0
C6 C 0.97489 0.48113 0.34193 0.0
C7 C 0.92334 0.4348 0.27594 0.0
C8 C 0.9254 0.4535 0.25791 0.0
C9 C 0.94291 0.44511 0.29546 0.0
C10 C 0.96491 0.47435 0.29741 0.0
C11 C 0.94788 0.48266 0.25973 0.0
C12 C 0.96756 0.49289 0.27918 0.0
C13 C 0.9849 0.48586 0.31856 0.0
C14 C 0.11681 0.54903 0.33362 0.0
C15 C 0.12373 0.57244 0.31896 0.0
C16 C 0.08761 0.52887 0.33782 0.0
C17 C 0.06501 0.53233 0.32789 0.0
C18 C 0.10099 0.57503 0.30827 0.0
C19 C 0.07195 0.55514 0.31265 0.0
C20 C 0.03408 0.51316 0.3336 0.0
C21 C 0.08456 0.55821 0.40069 0.0
C22 C 0.08214 0.53914 0.41841 0.0
C23 C 0.06521 0.54824 0.38104 0.0
C24 C 0.04389 0.51876 0.37831 0.0
C25 C 0.05988 0.51002 0.41631 0.0
C26 C 0.04097 0.49991 0.3964 0.0
C27 C 0.02415 0.50735 0.35701 0.0
H28 H 0.88478 0.47484 0.33163 0.0
H29 H 0.93639 0.49592 0.32358 0.0
H30 H 0.89171 0.41907 0.38248 0.0
H31 H 0.94368 0.43961 0.37366 0.0
H32 H 0.90675 0.4121 0.27491 0.0
H33 H 0.9408 0.43024 0.30908 0.0
H34 H 0.94998 0.49778 0.24636 0.0
H35 H 0.98436 0.51553 0.2803 0.0
H36 H 0.13396 0.54635 0.34182 0.0
H37 H 0.08271 0.51098 0.34919 0.0
H38 H 0.10567 0.59299 0.29705 0.0
H39 H 0.05488 0.55816 0.30471 0.0
H40 H 0.10125 0.58087 0.40217 0.0
H41 H 0.06715 0.56352 0.36788 0.0
H42 H 0.05756 0.49494 0.42981 0.0
H43 H 0.02439 0.47721 0.3949 0.0
N44 N 0.99488 0.49155 0.36025 0.0
N45 N 0.01406 0.50213 0.31532 0.0
C46 C 0.43669 0.90929 0.49938 0.0
C47 C 0.44465 0.89543 0.5164 0.0
C48 C 0.45633 0.93759 0.4933 0.0
C49 C 0.48453 0.95258 0.50385 0.0
C50 C 0.47285 0.9105 0.52707 0.0
C51 C 0.49257 0.93892 0.52093 0.0
C52 C 0.50445 0.98322 0.49837 0.0
C53 C 0.49458 0.93156 0.43209 0.0
C54 C 0.48313 0.93806 0.41197 0.0
C55 C 0.50305 0.94946 0.45248 0.0
C56 C 0.49949 0.97386 0.45352 0.0
C57 C 0.48045 0.963 0.41283 0.0
C58 C 0.48845 0.98059 0.43335 0.0
C59 C 0.50841 0.99325 0.47501 0.0
C60 C 0.57414 0.12381 0.48693 0.0
C61 C 0.55502 0.12886 0.47283 0.0
C62 C 0.56638 0.09557 0.493 0.0
C63 C 0.5394 0.07209 0.48504 0.0
C64 C 0.52811 0.10522 0.46496 0.0
C65 C 0.52046 0.07719 0.47094 0.0
C66 C 0.53048 0.04185 0.49036 0.0
C67 C 0.53749 0.08695 0.56085 0.0
C68 C 0.56075 0.08914 0.57495 0.0
C69 C 0.52722 0.06846 0.54078 0.0
C70 C 0.53994 0.05174 0.53457 0.0
C71 C 0.57335 0.07229 0.56869 0.0
C72 C 0.56283 0.05354 0.54879 0.0
C73 C 0.52923 0.03202 0.51351 0.0
H74 H 0.41492 0.89858 0.49128 0.0
H75 H 0.44917 0.94801 0.48073 0.0
H76 H 0.47964 0.90035 0.54019 0.0
H77 H 0.51406 0.95023 0.52952 0.0
H78 H 0.49685 0.9125 0.43222 0.0
H79 H 0.51254 0.94422 0.46737 0.0
H80 H 0.47246 0.96921 0.39755 0.0
H81 H 0.48587 -0.0005 0.43344 0.0
H82 H 0.59506 0.14164 0.49317 0.0
H83 H 0.58158 0.09207 0.50354 0.0
H84 H 0.51319 0.10828 0.45363 0.0
H85 H 0.49962 0.05938 0.46449 0.0
H86 H 0.52743 0.09975 0.56525 0.0
H87 H 0.5093 0.06712 0.53015 0.0
H88 H 0.59106 0.07329 0.5794 0.0
H89 H 0.57275 0.04064 0.54435 0.0
N90 N 0.51584 0.00301 0.51671 0.0
N91 N 0.52056 0.02215 0.47202 0.0
C92 C 0.58504 0.49468 0.56831 0.0
C93 C 0.56446 0.47906 0.54987 0.0
C94 C 0.57659 0.50311 0.58885 0.0
C95 C 0.54746 0.49621 0.5913 0.0
C96 C 0.53521 0.47183 0.55264 0.0
C97 C 0.52689 0.4806 0.57302 0.0
C98 C 0.53858 0.5066 0.61219 0.0
C99 C 0.55206 0.43588 0.63906 0.0
C100 C 0.57364 0.44388 0.65706 0.0
C101 C 0.54348 0.45538 0.63167 0.0
C102 C 0.5566 0.48349 0.64185 0.0
C103 C 0.58696 0.4721 0.66712 0.0
C104 C 0.5784 0.49168 0.65965 0.0
C105 C 0.54536 0.50305 0.63569 0.0
C106 C 0.47904 0.54583 0.69333 0.0
C107 C 0.50066 0.56362 0.71037 0.0
C108 C 0.48611 0.53429 0.67388 0.0
C109 C 0.51511 0.54102 0.67072 0.0
C110 C 0.5294 0.56929 0.70776 0.0
C111 C 0.53655 0.55808 0.6881 0.0
C112 C 0.52323 0.52976 0.64981 0.0
C113 C 0.48417 0.58249 0.62282 0.0
C114 C 0.45902 0.56585 0.6083 0.0
C115 C 0.50303 0.57202 0.62839 0.0
C116 C 0.4967 0.54453 0.61986 0.0
C117 C 0.45347 0.5389 0.59909 0.0
C118 C 0.47217 0.52842 0.60474 0.0
C119 C 0.51512 0.53193 0.62627 0.0
H120 H 0.60783 0.50105 0.56665 0.0
H121 H 0.59296 0.51565 0.60256 0.0
H122 H 0.51863 0.45933 0.53907 0.0
H123 H 0.50429 0.47505 0.57457 0.0
H124 H 0.54087 0.41411 0.63135 0.0
H125 H 0.52575 0.44801 0.61863 0.0
H126 H 0.60375 0.47892 0.68097 0.0
H127 H 0.58855 0.5131 0.66798 0.0
H128 H 0.45659 0.54064 0.69518 0.0
H129 H 0.4689 0.5202 0.66126 0.0
H130 H 0.54646 0.5829 0.72066 0.0
H131 H 0.55896 0.56316 0.68624 0.0
H132 H 0.48917 0.60351 0.62993 0.0
H133 H 0.52229 0.58519 0.63956 0.0
H134 H 0.43411 0.5254 0.58811 0.0
H135 H 0.46695 0.50724 0.59783 0.0
N136 N 0.52332 0.52044 0.60844 0.0
N137 N 0.53794 0.51527 0.65359 0.0
C138 C 0.90711 0.44633 0.83092 0.0
C139 C 0.8942 0.45097 0.81082 0.0
C140 C 0.93493 0.46747 0.83918 0.0
C141 C 0.95008 0.49407 0.82792 0.0
C142 C 0.90928 0.47747 0.79948 0.0
C143 C 0.93695 0.49883 0.80799 0.0
C144 C 0.98089 0.51527 0.83481 0.0
C145 C 0.93126 0.50891 0.90005 0.0
C146 C 0.93763 0.49625 0.91917 0.0
C147 C 0.94867 0.51718 0.88022 0.0
C148 C 0.97274 0.5129 0.87913 0.0
C149 C 0.96198 0.49234 0.91809 0.0
C150 C 0.97948 0.5008 0.89835 0.0
C151 C 0.9917 0.52198 0.8585 0.0
C152 C 0.12189 0.6024 0.84728 0.0
C153 C 0.13232 0.58851 0.8622 0.0
C154 C 0.09192 0.59006 0.84224 0.0
C155 C 0.07197 0.5634 0.85174 0.0
C156 C 0.1121 0.56264 0.87264 0.0
C157 C 0.08225 0.5503 0.86753 0.0
C158 C 0.04047 0.54827 0.84506 0.0
C159 C 0.08836 0.55433 0.7785 0.0
C160 C 0.08286 0.56876 0.76034 0.0
C161 C 0.07105 0.54571 0.79836 0.0
C162 C 0.04843 0.55204 0.80068 0.0
C163 C 0.05969 0.57433 0.76236 0.0
C164 C 0.0426 0.566 0.78236 0.0
C165 C 0.0296 0.54274 0.82138 0.0
H166 H 0.89617 0.42585 0.8397 0.0
H167 H 0.94494 0.46244 0.85381 0.0
H168 H 0.89974 0.48155 0.78395 0.0
H169 H 0.94834 0.51893 0.79872 0.0
H170 H 0.913 0.51273 0.9005 0.0
H171 H 0.94351 0.52718 0.86585 0.0
H172 H 0.96729 0.48232 0.93235 0.0
H173 H -0.00195 0.49744 0.89792 0.0
H174 H 0.13693 0.62258 0.83926 0.0
H175 H 0.0844 0.60098 0.83053 0.0
H176 H 0.11939 0.55122 0.88399 0.0
H177 H 0.06725 0.52983 0.87519 0.0
H178 H 0.10574 0.54928 0.77714 0.0
H179 H 0.07524 0.53393 0.8118 0.0
H180 H 0.05505 0.58547 0.74862 0.0
H181 H 0.02495 0.57067 0.78363 0.0
N182 N 0.00028 0.52641 0.81723 0.0
N183 N 0.02105 0.53778 0.86266 0.0
C184 C 0.45488 0.91041 0.99468 0.0
C185 C 0.43666 0.89603 0.97472 0.0
C186 C 0.45972 0.9376 0.00228 0.0
C187 C 0.44641 0.95088 0.99006 0.0
C188 C 0.42248 0.90888 0.96312 0.0
C189 C 0.4275 0.93613 0.97061 0.0
C190 C 0.45547 0.98159 0.99516 0.0
C191 C 0.40841 0.93477 0.05953 0.0
C192 C 0.42322 0.94587 0.08153 0.0
C193 C 0.41945 0.95008 0.03891 0.0
C194 C 0.44613 0.97637 0.03963 0.0
C195 C 0.44933 0.97273 0.08229 0.0
C196 C 0.46072 0.98764 0.06162 0.0
C197 C 0.458 0.99365 0.01818 0.0
C198 C 0.51728 0.11383 0.03523 0.0
C199 C 0.5446 0.12896 0.02475 0.0
C200 C 0.49678 0.08577 0.0272 0.0
C201 C 0.50316 0.07232 0.00852 0.0
C202 C 0.55073 0.11575 0.00573 0.0
C203 C 0.53038 0.08764 0.99788 0.0
C204 C 0.48331 0.04113 0.00268 0.0
C205 C 0.5071 0.05601 0.91915 0.0
C206 C 0.50198 0.0793 0.91685 0.0
C207 C 0.49902 0.03963 0.93946 0.0
C208 C 0.486 0.0464 0.95801 0.0
C209 C 0.48823 0.08557 0.93521 0.0
C210 C 0.48025 0.06922 0.95556 0.0
C211 C 0.47781 0.02894 0.97948 0.0
H212 H 0.46601 0.90098 0.00401 0.0
H213 H 0.47495 0.94881 0.017 0.0
H214 H 0.40862 0.89853 0.94752 0.0
H215 H 0.41732 0.94612 0.96072 0.0
H216 H 0.3884 0.91405 0.05809 0.0
H217 H 0.40684 0.94138 0.02252 0.0
H218 H 0.46105 0.98241 0.09889 0.0
H219 H 0.48103 0.00814 0.0629 0.0
H220 H 0.51196 0.12355 0.04987 0.0
H221 H 0.47615 0.07429 0.03596 0.0
H222 H 0.57184 0.12665 0.99763 0.0
H223 H 0.53659 0.07749 0.98421 0.0
H224 H 0.51797 0.05083 0.90549 0.0
H225 H 0.50353 0.02202 0.94088 0.0
H226 H 0.4835 0.10303 0.9338 0.0
H227 H 0.46945 0.07434 0.96934 0.0
N228 N 0.46475 -0.0003 0.97671 0.0
N229 N 0.47242 0.02297 0.02097 0.0
C230 C 0.46005 0.58868 0.15468 0.0
C231 C 0.43568 0.57853 0.16894 0.0
C232 C 0.4674 0.56936 0.1444 0.0
C233 C 0.45056 0.53958 0.14836 0.0
C234 C 0.41812 0.54873 0.17223 0.0
C235 C 0.42575 0.52936 0.16221 0.0
C236 C 0.46178 0.52025 0.14145 0.0
C237 C 0.43211 0.53865 0.07264 0.0
C238 C 0.45444 0.55545 0.05709 0.0
C239 C 0.43814 0.52777 0.09294 0.0
C240 C 0.46661 0.53338 0.09815 0.0
C241 C 0.48301 0.56129 0.06253 0.0
C242 C 0.48896 0.55016 0.08273 0.0
C243 C 0.47278 0.52043 0.11886 0.0
C244 C 0.52946 0.44664 0.13266 0.0
C245 C 0.55714 0.46572 0.12393 0.0
C246 C 0.50883 0.45548 0.13538 0.0
C247 C 0.51562 0.48362 0.12959 0.0
C248 C 0.5635 0.49356 0.11753 0.0
C249 C 0.54291 0.50236 0.12026 0.0
C250 C 0.49494 0.49418 0.13366 0.0
C251 C 0.52265 0.48219 0.20681 0.0
C252 C 0.50083 0.45609 0.21582 0.0
C253 C 0.5166 0.49394 0.18714 0.0
C254 C 0.48856 0.47991 0.17641 0.0
C255 C 0.47271 0.44214 0.20511 0.0
C256 C 0.46651 0.45422 0.1857 0.0
C257 C 0.48224 0.49238 0.15571 0.0
H258 H 0.47384 0.61167 0.15205 0.0
H259 H 0.48715 0.5779 0.13442 0.0
H260 H 0.39928 0.54064 0.18329 0.0
H261 H 0.41279 0.50654 0.16581 0.0
H262 H 0.40975 0.53317 0.06881 0.0
H263 H 0.42033 0.51428 0.10422 0.0
H264 H 0.50085 0.57448 0.05119 0.0
H265 H 0.5111 0.55475 0.08635 0.0
H266 H 0.52389 0.42504 0.13769 0.0
H267 H 0.48765 0.44038 0.14208 0.0
H268 H 0.58439 0.50854 0.11028 0.0
H269 H 0.54854 0.52409 0.11552 0.0
H270 H 0.54454 0.49315 0.2147 0.0
H271 H 0.53378 0.51393 0.18025 0.0
H272 H 0.4556 0.422 0.21184 0.0
H273 H 0.44471 0.44328 0.17764 0.0
N274 N 0.46647 0.50578 0.1589 0.0
N275 N 0.48947 0.50786 0.11594 0.0
Mg276 Mg 0.60893 0.36199 0.36364 0.0
O277 O 0.6077 0.39096 0.39325 0.0
O278 O 0.62918 0.43648 0.38118 0.0
Mg279 Mg 0.64313 0.43605 0.34313 0.0
C280 C 0.61619 0.41772 0.39687 0.0
C281 C 0.59139 0.30178 0.38138 0.0
O282 O 0.5893 0.29749 0.3583 0.0
O283 O 0.65732 0.3799 0.37089 0.0
O284 O 0.6772 0.42439 0.35671 0.0
O285 O 0.56626 0.35486 0.34894 0.0
O286 O 0.60954 0.38991 0.33851 0.0
C287 C 0.67958 0.40415 0.36634 0.0
C288 C 0.58151 0.37768 0.33674 0.0
O289 O 0.59844 0.32671 0.38977 0.0
Mg290 Mg 0.26512 0.64531 0.60119 0.0
O291 O 0.23401 0.62196 0.56923 0.0
O292 O 0.2083 0.57503 0.57754 0.0
Mg293 Mg 0.22023 0.56921 0.61539 0.0
C294 C 0.21489 0.5958 0.56357 0.0
C295 C 0.28833 0.70386 0.57461 0.0
O296 O 0.26384 0.70163 0.58182 0.0
O297 O 0.29291 0.6253 0.59242 0.0
O298 O 0.26625 0.57996 0.60437 0.0
O299 O 0.23227 0.6544 0.61723 0.0
O300 O 0.23519 0.61522 0.62359 0.0
C301 C 0.28972 0.6004 0.59612 0.0
C302 C 0.22196 0.62962 0.62715 0.0
O303 O 0.29402 0.68397 0.57923 0.0
Mg304 Mg 0.62786 0.2604 0.76145 0.0
O305 O 0.62367 0.22999 0.73047 0.0
O306 O 0.64023 0.20145 0.74359 0.0
Mg307 Mg 0.65446 0.21325 0.78263 0.0
C308 C 0.62924 0.20952 0.72716 0.0
C309 C 0.59739 0.28552 0.72893 0.0
O310 O 0.57377 0.2619 0.73505 0.0
O311 O 0.67691 0.28676 0.75826 0.0
O312 O 0.69247 0.25853 0.77382 0.0
O313 O 0.58331 0.2283 0.77331 0.0
O314 O 0.624 0.22998 0.78564 0.0
C315 C 0.69753 0.28244 0.76499 0.0
C316 C 0.59595 0.21749 0.78601 0.0
O317 O 0.62222 0.29012 0.73636 0.0
Mg318 Mg 0.4078 0.66443 0.86645 0.0
O319 O 0.41149 0.63933 0.89762 0.0
O320 O 0.38779 0.59238 0.88688 0.0
Mg321 Mg 0.37129 0.58776 0.84843 0.0
C322 C 0.40248 0.61286 0.90212 0.0
C323 C 0.42112 0.72561 0.88214 0.0
O324 O 0.41684 0.72559 0.85917 0.0
O325 O 0.35977 0.64753 0.87314 0.0
O326 O 0.33838 0.6017 0.85955 0.0
O327 O 0.44926 0.67001 0.85157 0.0
O328 O 0.40541 0.63299 0.84269 0.0
C329 C 0.33693 0.62315 0.86834 0.0
C330 C 0.43324 0.64546 0.8403 0.0
O331 O 0.42 0.70342 0.89107 0.0
Mg332 Mg 0.74884 0.39028 0.0725 0.0
O333 O 0.77627 0.39332 0.10576 0.0
O334 O 0.80039 0.37031 0.09615 0.0
Mg335 Mg 0.79084 0.35535 0.0572 0.0
C336 C 0.79389 0.38428 0.11108 0.0
C337 C 0.70962 0.41463 0.08015 0.0
O338 O 0.71742 0.41916 0.05802 0.0
O339 O 0.71734 0.34242 0.07719 0.0
O340 O 0.74284 0.32209 0.06451 0.0
O341 O 0.78493 0.43204 0.0601 0.0
O342 O 0.77959 0.38924 0.05092 0.0
C343 C 0.7192 0.32008 0.07186 0.0
C344 C 0.79454 0.41697 0.04937 0.0
O345 O 0.71997 0.40253 0.09315 0.0
Mg346 Mg 0.3595 0.76057 0.23247 0.0
O347 O 0.39126 0.79324 0.26042 0.0
O348 O 0.43264 0.82315 0.24268 0.0
Mg349 Mg 0.42736 0.80903 0.20345 0.0
C350 C 0.41718 0.81491 0.26106 0.0
C351 C 0.31382 0.73799 0.27296 0.0
O352 O 0.31509 0.76298 0.27021 0.0
O353 O 0.38442 0.73621 0.23241 0.0
O354 O 0.42382 0.76545 0.2121 0.0
O355 O 0.34372 0.79132 0.22261 0.0
O356 O 0.37979 0.78884 0.20576 0.0
C357 C 0.40809 0.74173 0.22254 0.0
C358 C 0.36396 0.80075 0.20714 0.0
O359 O 0.33014 0.73195 0.26087 0.0
C360 C 0.16321 0.60469 0.29232 0.0
C361 C 0.15446 0.59477 0.31512 0.0
C362 C 0.1912 0.62791 0.28852 0.0
C363 C 0.21098 0.64154 0.30802 0.0
C364 C 0.2027 0.63094 0.33101 0.0
C365 C 0.17445 0.6076 0.3343 0.0
C366 C 0.19928 0.63836 0.26366 0.0
C367 C 0.22326 0.64486 0.35219 0.0
C368 C 0.28858 0.68805 0.28865 0.0
C369 C 0.2902 0.71498 0.28651 0.0
C370 C 0.26365 0.66428 0.29738 0.0
C371 C 0.2398 0.66754 0.30408 0.0
C372 C 0.24228 0.69521 0.30379 0.0
C373 C 0.26751 0.71866 0.29504 0.0
C374 C 0.262 0.63522 0.29772 0.0
C375 C 0.21739 0.69959 0.311 0.0
H376 H 0.14791 0.59452 0.27743 0.0
H377 H 0.16764 0.60009 0.35199 0.0
H378 H 0.20381 0.66098 0.26269 0.0
H379 H 0.21949 0.63833 0.25882 0.0
H380 H 0.18169 0.62476 0.25037 0.0
H381 H 0.21459 0.63229 0.36842 0.0
H382 H 0.24486 0.64707 0.34875 0.0
H383 H 0.22688 0.66699 0.35551 0.0
H384 H 0.3062 0.68511 0.28242 0.0
H385 H 0.2687 0.73944 0.29367 0.0
H386 H 0.24719 0.62111 0.28305 0.0
H387 H 0.25285 0.62429 0.31449 0.0
H388 H 0.28376 0.63719 0.29557 0.0
H389 H 0.19929 0.68909 0.29751 0.0
H390 H 0.2241 0.72289 0.31271 0.0
H391 H 0.20871 0.6893 0.32808 0.0
C392 C 0.54249 0.1672 0.46424 0.0
C393 C 0.56333 0.15828 0.46495 0.0
C394 C 0.54814 0.1926 0.45304 0.0
C395 C 0.57539 0.2096 0.44248 0.0
C396 C 0.5973 0.20184 0.44465 0.0
C397 C 0.59097 0.17618 0.45583 0.0
C398 C 0.52424 0.20019 0.45119 0.0
C399 C 0.62676 0.21964 0.43385 0.0
C400 C 0.57571 0.25 0.38802 0.0
C401 C 0.5869 0.27826 0.39723 0.0
C402 C 0.5719 0.22753 0.40262 0.0
C403 C 0.5797 0.2335 0.427 0.0
C404 C 0.59107 0.26199 0.43645 0.0
C405 C 0.59441 0.28405 0.42145 0.0
C406 C 0.55943 0.19733 0.39193 0.0
C407 C 0.59982 0.26915 0.46232 0.0
H408 H 0.52128 0.15369 0.47169 0.0
H409 H 0.60712 0.16933 0.45625 0.0
H410 H 0.53284 0.22325 0.45639 0.0
H411 H 0.51606 0.19715 0.43255 0.0
H412 H 0.50554 0.18652 0.46244 0.0
H413 H 0.64257 0.2129 0.43974 0.0
H414 H 0.62422 0.21715 0.41429 0.0
H415 H 0.63602 0.24295 0.43849 0.0
H416 H 0.5698 0.24536 0.36934 0.0
H417 H 0.60323 0.3059 0.42866 0.0
H418 H 0.53908 0.1822 0.40086 0.0
H419 H 0.57515 0.18956 0.39468 0.0
H420 H 0.55437 0.19631 0.37266 0.0
H421 H 0.58075 0.25608 0.47337 0.0
H422 H 0.6085 0.29244 0.46685 0.0
H423 H 0.61677 0.2635 0.46707 0.0
C424 C 0.42847 0.58641 0.62246 0.0
C425 C 0.43752 0.57548 0.60377 0.0
C426 C 0.40555 0.59218 0.61914 0.0
C427 C 0.39138 0.58688 0.59659 0.0
C428 C 0.40131 0.57713 0.5774 0.0
C429 C 0.42428 0.57154 0.58123 0.0
C430 C 0.39562 0.60267 0.64005 0.0
C431 C 0.38689 0.57145 0.55308 0.0
C432 C 0.31251 0.56913 0.59781 0.0
C433 C 0.31503 0.59598 0.59307 0.0
C434 C 0.33709 0.56565 0.59816 0.0
C435 C 0.36488 0.58959 0.59364 0.0
C436 C 0.36741 0.61636 0.58771 0.0
C437 C 0.34245 0.61924 0.58747 0.0
C438 C 0.33349 0.53665 0.60436 0.0
C439 C 0.39667 0.64231 0.58265 0.0
H440 H 0.43842 0.58922 0.63997 0.0
H441 H 0.43151 0.56348 0.56665 0.0
H442 H 0.39474 0.62236 0.63556 0.0
H443 H 0.37321 0.58581 0.64455 0.0
H444 H 0.41026 0.60769 0.65593 0.0
H445 H 0.39887 0.56643 0.53962 0.0
H446 H 0.36424 0.55287 0.55354 0.0
H447 H 0.38541 0.59048 0.54743 0.0
H448 H 0.29145 0.55096 0.602 0.0
H449 H 0.34467 0.64008 0.5837 0.0
H450 H 0.34518 0.53875 0.62144 0.0
H451 H 0.34332 0.52927 0.59072 0.0
H452 H 0.31019 0.51976 0.60593 0.0
H453 H 0.41069 0.64958 0.59904 0.0
H454 H 0.39456 0.66071 0.57616 0.0
H455 H 0.40808 0.63646 0.56929 0.0
C456 C 0.862 0.41894 0.7773 0.0
C457 C 0.86558 0.42763 0.80125 0.0
C458 C 0.83552 0.39556 0.76838 0.0
C459 C 0.81206 0.38087 0.78376 0.0
C460 C 0.8154 0.39005 0.80784 0.0
C461 C 0.84221 0.4132 0.81633 0.0
C462 C 0.83288 0.38616 0.74269 0.0
C463 C 0.79075 0.37523 0.82473 0.0
C464 C 0.73337 0.3353 0.76161 0.0
C465 C 0.72796 0.30716 0.76558 0.0
C466 C 0.7611 0.35953 0.76634 0.0
C467 C 0.78406 0.35553 0.77499 0.0
C468 C 0.77933 0.32715 0.7774 0.0
C469 C 0.75131 0.3033 0.77275 0.0
C470 C 0.76526 0.38944 0.76355 0.0
C471 C 0.80344 0.32201 0.7862 0.0
H472 H 0.88021 0.42992 0.76569 0.0
H473 H 0.84493 0.42009 0.83481 0.0
H474 H 0.82895 0.36372 0.74136 0.0
H475 H 0.81387 0.38603 0.73391 0.0
H476 H 0.85281 0.40049 0.73289 0.0
H477 H 0.79659 0.38568 0.8427 0.0
H478 H 0.77109 0.37549 0.81786 0.0
H479 H 0.78476 0.35222 0.82621 0.0
H480 H 0.71556 0.3386 0.75598 0.0
H481 H 0.74747 0.28167 0.77565 0.0
H482 H 0.78523 0.40316 0.75363 0.0
H483 H 0.76822 0.39999 0.78127 0.0
H484 H 0.74629 0.38887 0.75423 0.0
H485 H 0.82362 0.33509 0.77631 0.0
H486 H 0.79723 0.29884 0.78445 0.0
H487 H 0.80868 0.32894 0.80512 0.0
C488 C 0.40722 0.84593 0.95663 0.0
C489 C 0.43432 0.86899 0.96471 0.0
C490 C 0.40521 0.82157 0.94486 0.0
C491 C 0.43096 0.82038 0.94089 0.0
C492 C 0.45826 0.84315 0.94972 0.0
C493 C 0.45959 0.86714 0.96158 0.0
C494 C 0.37564 0.79757 0.93596 0.0
C495 C 0.48622 0.8428 0.94571 0.0
C496 C 0.42376 0.74819 0.92209 0.0
C497 C 0.42515 0.75031 0.8974 0.0
C498 C 0.42579 0.77088 0.93654 0.0
C499 C 0.42955 0.79636 0.92605 0.0
C500 C 0.43157 0.79883 0.90119 0.0
C501 C 0.42923 0.77576 0.88718 0.0
C502 C 0.42338 0.76739 0.96296 0.0
C503 C 0.43587 0.82576 0.88933 0.0
H504 H 0.3876 0.84715 0.95921 0.0
H505 H 0.48065 0.88506 0.96752 0.0
H506 H 0.37484 0.79662 0.91633 0.0
H507 H 0.37194 0.77635 0.94196 0.0
H508 H 0.35755 0.80069 0.94211 0.0
H509 H 0.50533 0.86106 0.95523 0.0
H510 H 0.48415 0.82216 0.95159 0.0
H511 H 0.49055 0.84423 0.92652 0.0
H512 H 0.4205 0.72855 0.93013 0.0
H513 H 0.43044 0.77764 0.86814 0.0
H514 H 0.40411 0.76851 0.96898 0.0
H515 H 0.44294 0.78535 0.9722 0.0
H516 H 0.42116 0.7465 0.96841 0.0
H517 H 0.41713 0.82903 0.89284 0.0
H518 H 0.43789 0.82462 0.86988 0.0
H519 H 0.45584 0.84506 0.89678 0.0
C520 C 0.57134 0.42934 0.11116 0.0
C521 C 0.57931 0.45666 0.12109 0.0
C522 C 0.59249 0.42148 0.10665 0.0
C523 C 0.6223 0.44144 0.1122 0.0
C524 C 0.63032 0.46857 0.12314 0.0
C525 C 0.60872 0.47585 0.12746 0.0
C526 C 0.58309 0.39233 0.09497 0.0
C527 C 0.66185 0.49039 0.12942 0.0
C528 C 0.6769 0.41476 0.11171 0.0
C529 C 0.68812 0.4223 0.08904 0.0
C530 C 0.65553 0.42096 0.11964 0.0
C531 C 0.64528 0.43507 0.10453 0.0
C532 C 0.65683 0.44305 0.08178 0.0
C533 C 0.67807 0.43657 0.07432 0.0
C534 C 0.64367 0.41215 0.14402 0.0
C535 C 0.64656 0.45824 0.06517 0.0
H536 H 0.54867 0.41449 0.10606 0.0
H537 H 0.61492 0.49678 0.13557 0.0
H538 H 0.59151 0.39538 0.07681 0.0
H539 H 0.59245 0.38095 0.10487 0.0
H540 H 0.55893 0.3783 0.09381 0.0
H541 H 0.66416 0.50941 0.13968 0.0
H542 H 0.67202 0.48019 0.13991 0.0
H543 H 0.67427 0.49812 0.113 0.0
H544 H 0.68453 0.40368 0.12316 0.0
H545 H 0.68665 0.44256 0.0568 0.0
H546 H 0.61983 0.39662 0.14262 0.0
H547 H 0.6468 0.43133 0.15449 0.0
H548 H 0.6544 0.40193 0.1538 0.0
H549 H 0.62274 0.44449 0.06132 0.0
H550 H 0.65801 0.46327 0.04815 0.0
H551 H 0.65021 0.47876 0.07362 0.0
C552 C 0.40439 0.84475 0.50677 0.0
C553 C 0.42294 0.8659 0.5237 0.0
C554 C 0.38231 0.81746 0.51356 0.0
C555 C 0.37878 0.81116 0.53786 0.0
C556 C 0.39788 0.83214 0.555 0.0
C557 C 0.41971 0.85928 0.54772 0.0
C558 C 0.36245 0.79557 0.49477 0.0
C559 C 0.39483 0.82616 0.58109 0.0
C560 C 0.30546 0.75352 0.55968 0.0
C561 C 0.31048 0.73044 0.5633 0.0
C562 C 0.32729 0.77971 0.55082 0.0
C563 C 0.35476 0.78285 0.54549 0.0
C564 C 0.35966 0.75934 0.5484 0.0
C565 C 0.33745 0.73341 0.55724 0.0
C566 C 0.32122 0.80429 0.54779 0.0
C567 C 0.38866 0.76187 0.54285 0.0
H568 H 0.40704 0.84962 0.48815 0.0
H569 H 0.43371 0.87563 0.5609 0.0
H570 H 0.363 0.77516 0.49633 0.0
H571 H 0.33956 0.79026 0.49734 0.0
H572 H 0.36864 0.80356 0.47661 0.0
H573 H 0.41207 0.84442 0.59209 0.0
H574 H 0.37317 0.82214 0.58675 0.0
H575 H 0.39596 0.80637 0.58462 0.0
H576 H 0.28467 0.75138 0.56423 0.0
H577 H 0.34152 0.71565 0.5599 0.0
H578 H 0.32573 0.81207 0.52946 0.0
H579 H 0.336 0.82276 0.55985 0.0
H580 H 0.29827 0.79788 0.5516 0.0
H581 H 0.3946 0.7691 0.52451 0.0
H582 H 0.3884 0.74108 0.54484 0.0
H583 H 0.40606 0.77847 0.55486 0.0
C584 C 0.58321 0.40276 0.65077 0.0
C585 C 0.58061 0.42209 0.66629 0.0
C586 C 0.58721 0.38044 0.65938 0.0
C587 C 0.58861 0.37742 0.6841 0.0
C588 C 0.58681 0.39735 0.69984 0.0
C589 C 0.58282 0.41944 0.69075 0.0
C590 C 0.58927 0.35973 0.64206 0.0
C591 C 0.58822 0.39483 0.72633 0.0
C592 C 0.56774 0.30435 0.70921 0.0
C593 C 0.59516 0.30792 0.71548 0.0
C594 C 0.56533 0.32653 0.69835 0.0
C595 C 0.59096 0.35287 0.69362 0.0
C596 C 0.61872 0.35623 0.69913 0.0
C597 C 0.62049 0.33372 0.70999 0.0
C598 C 0.53533 0.32212 0.69263 0.0
C599 C 0.64653 0.38396 0.69425 0.0
H600 H 0.58186 0.40493 0.63184 0.0
H601 H 0.58042 0.43404 0.70284 0.0
H602 H 0.60952 0.35892 0.64575 0.0
H603 H 0.57056 0.33755 0.64414 0.0
H604 H 0.58919 0.36589 0.62341 0.0
H605 H 0.5877 0.41278 0.73614 0.0
H606 H 0.56949 0.374 0.73171 0.0
H607 H 0.60849 0.39479 0.7317 0.0
H608 H 0.54807 0.28448 0.7133 0.0
H609 H 0.6418 0.33664 0.71466 0.0
H610 H 0.53351 0.32642 0.67375 0.0
H611 H 0.53185 0.3377 0.70334 0.0
H612 H 0.51764 0.29983 0.69625 0.0
H613 H 0.64657 0.38965 0.67548 0.0
H614 H 0.66636 0.38239 0.6981 0.0
H615 H 0.64781 0.40198 0.70529 0.0
C616 C 0.1759 0.59872 0.8878 0.0
C617 C 0.16412 0.5995 0.86556 0.0
C618 C 0.20499 0.60513 0.89049 0.0
C619 C 0.22268 0.6125 0.87047 0.0
C620 C 0.21139 0.61485 0.84823 0.0
C621 C 0.18223 0.60829 0.84605 0.0
C622 C 0.21631 0.60259 0.91451 0.0
C623 C 0.2296 0.62273 0.82646 0.0
C624 C 0.30495 0.64445 0.87657 0.0
C625 C 0.30773 0.62012 0.87137 0.0
C626 C 0.27735 0.64224 0.87699 0.0
C627 C 0.25198 0.61505 0.87218 0.0
C628 C 0.25457 0.59025 0.86784 0.0
C629 C 0.28237 0.59308 0.86747 0.0
C630 C 0.27541 0.66914 0.88175 0.0
C631 C 0.22798 0.56081 0.86281 0.0
H632 H 0.16211 0.59236 0.90301 0.0
H633 H 0.17321 0.60865 0.82877 0.0
H634 H 0.21976 0.58372 0.91423 0.0
H635 H 0.23773 0.62211 0.91897 0.0
H636 H 0.20092 0.5997 0.92869 0.0
H637 H 0.21853 0.62624 0.81105 0.0
H638 H 0.25099 0.64266 0.83002 0.0
H639 H 0.23407 0.60509 0.82168 0.0
H640 H 0.32438 0.66545 0.87962 0.0
H641 H 0.28421 0.57411 0.8636 0.0
H642 H 0.25979 0.66539 0.89591 0.0
H643 H 0.267 0.67441 0.86559 0.0
H644 H 0.29694 0.68813 0.88705 0.0
H645 H 0.21231 0.55524 0.87725 0.0
H646 H 0.23365 0.54346 0.86093 0.0
H647 H 0.21664 0.56117 0.84623 0.0
C648 C 0.57387 0.16229 0.05882 0.0
C649 C 0.56747 0.15771 0.0344 0.0
C650 C 0.59729 0.18849 0.06797 0.0
C651 C 0.61456 0.21062 0.05231 0.0
C652 C 0.60754 0.20646 0.02773 0.0
C653 C 0.58413 0.18002 0.01908 0.0
C654 C 0.60419 0.19208 0.09425 0.0
C655 C 0.62525 0.22965 0.01048 0.0
C656 C 0.66469 0.28885 0.07251 0.0
C657 C 0.69229 0.2912 0.07115 0.0
C658 C 0.63899 0.26236 0.06755 0.0
C659 C 0.64094 0.23762 0.06127 0.0
C660 C 0.66856 0.23939 0.06146 0.0
C661 C 0.6939 0.26616 0.06634 0.0
C662 C 0.60993 0.26131 0.06762 0.0
C663 C 0.67152 0.21337 0.05516 0.0
H664 H 0.56123 0.14496 0.0707 0.0
H665 H 0.57902 0.17665 0.00023 0.0
H666 H 0.6256 0.19351 0.09773 0.0
H667 H 0.60604 0.21253 0.10118 0.0
H668 H 0.58732 0.17378 0.1042 0.0
H669 H 0.61599 0.22357 0.9921 0.0
H670 H 0.62632 0.25026 0.01583 0.0
H671 H 0.64798 0.23371 0.01063 0.0
H672 H 0.66314 0.30802 0.07625 0.0
H673 H 0.71506 0.26764 0.06547 0.0
H674 H 0.59384 0.24254 0.07758 0.0
H675 H 0.60113 0.25845 0.04919 0.0
H676 H 0.61178 0.28139 0.07552 0.0
H677 H 0.65632 0.19452 0.06549 0.0
H678 H 0.69412 0.2176 0.05846 0.0
H679 H 0.66555 0.20732 0.03616 0.0
C680 C 0.44884 0.61724 0.19962 0.0
C681 C 0.4298 0.59946 0.18128 0.0
C682 C 0.4455 0.6394 0.21001 0.0
C683 C 0.42302 0.64417 0.20135 0.0
C684 C 0.40312 0.6255 0.18333 0.0
C685 C 0.40664 0.60312 0.1736 0.0
C686 C 0.46675 0.65845 0.2295 0.0
C687 C 0.37911 0.63015 0.17343 0.0
C688 C 0.40043 0.69294 0.23283 0.0
C689 C 0.41536 0.7184 0.22011 0.0
C690 C 0.40379 0.66894 0.22776 0.0
C691 C 0.42208 0.67034 0.20929 0.0
C692 C 0.43826 0.69641 0.1972 0.0
C693 C 0.43493 0.7202 0.20293 0.0
C694 C 0.38684 0.64173 0.24146 0.0
C695 C 0.45786 0.6987 0.17726 0.0
H696 H 0.4667 0.61413 0.20548 0.0
H697 H 0.3921 0.58929 0.15931 0.0
H698 H 0.48142 0.68031 0.22275 0.0
H699 H 0.45488 0.66109 0.24442 0.0
H700 H 0.48041 0.64956 0.23628 0.0
H701 H 0.36443 0.61268 0.16051 0.0
H702 H 0.36581 0.63122 0.1879 0.0
H703 H 0.38889 0.65114 0.16445 0.0
H704 H 0.38544 0.69145 0.24627 0.0
H705 H 0.44656 0.73972 0.19297 0.0
H706 H 0.40136 0.63351 0.24749 0.0
H707 H 0.3694 0.62461 0.22981 0.0
H708 H 0.37653 0.6453 0.2571 0.0
H709 H 0.474 0.69251 0.18329 0.0
H710 H 0.46987 0.7209 0.17032 0.0
H711 H 0.44454 0.68345 0.16252 0.0
C712 C 0.83263 0.42358 0.34304 0.0
C713 C 0.85297 0.4329 0.36204 0.0
C714 C 0.8036 0.41609 0.34655 0.0
C715 C 0.79481 0.41824 0.36963 0.0
C716 C 0.81486 0.42606 0.38909 0.0
C717 C 0.84382 0.43324 0.38506 0.0
C718 C 0.78279 0.40747 0.32535 0.0
C719 C 0.80625 0.42855 0.41392 0.0
C720 C 0.73389 0.43578 0.3686 0.0
C721 C 0.70916 0.40831 0.37069 0.0
C722 C 0.76207 0.43952 0.36965 0.0
C723 C 0.76561 0.41519 0.37273 0.0
C724 C 0.7409 0.38769 0.3762 0.0
C725 C 0.71292 0.38457 0.37521 0.0
C726 C 0.78794 0.4693 0.36615 0.0
C727 C 0.74386 0.36127 0.37957 0.0
H728 H 0.83973 0.42302 0.32527 0.0
H729 H 0.85965 0.44058 0.39972 0.0
H730 H 0.76217 0.38716 0.32864 0.0
H731 H 0.77712 0.42457 0.32226 0.0
H732 H 0.7923 0.40426 0.30902 0.0
H733 H 0.82298 0.43092 0.42735 0.0
H734 H 0.80346 0.44776 0.41556 0.0
H735 H 0.78504 0.40929 0.41792 0.0
H736 H 0.73123 0.45431 0.36543 0.0
H737 H 0.69395 0.36326 0.37694 0.0
H738 H 0.7978 0.46958 0.34895 0.0
H739 H 0.80499 0.47479 0.38021 0.0
H740 H 0.78174 0.48635 0.36628 0.0
H741 H 0.75002 0.35524 0.36265 0.0
H742 H 0.72318 0.34242 0.38524 0.0
H743 H 0.76144 0.36589 0.3929 0.0
C744 C 0.09262 0.54508 0.46201 0.0
C745 C 0.10295 0.54946 0.43899 0.0
C746 C 0.11205 0.55414 0.4817 0.0
C747 C 0.14248 0.56722 0.47823 0.0
C748 C 0.15301 0.57171 0.45496 0.0
C749 C 0.13309 0.56305 0.43559 0.0
C750 C 0.1 0.54953 0.50622 0.0
C751 C 0.1852 0.58498 0.45052 0.0
C752 C 0.19383 0.61033 0.5301 0.0
C753 C 0.19855 0.58936 0.54063 0.0
C754 C 0.17596 0.60358 0.50956 0.0
C755 C 0.1631 0.57541 0.49902 0.0
C756 C 0.16883 0.55456 0.50903 0.0
C757 C 0.18618 0.56168 0.52988 0.0
C758 C 0.16991 0.62622 0.4997 0.0
C759 C 0.15614 0.52453 0.49799 0.0
H760 H 0.06929 0.53474 0.46458 0.0
H761 H 0.14099 0.56619 0.41773 0.0
H762 H 0.10501 0.53443 0.51568 0.0
H763 H 0.11056 0.57033 0.51659 0.0
H764 H 0.07596 0.54052 0.50586 0.0
H765 H 0.18986 0.5874 0.43137 0.0
H766 H 0.19765 0.60658 0.45956 0.0
H767 H 0.19342 0.57123 0.45802 0.0
H768 H 0.20317 0.6317 0.53845 0.0
H769 H 0.18997 0.54548 0.53785 0.0
H770 H 0.14626 0.61877 0.50073 0.0
H771 H 0.17541 0.62937 0.48076 0.0
H772 H 0.18249 0.64742 0.50941 0.0
H773 H 0.13199 0.51281 0.49908 0.0
H774 H 0.16458 0.51165 0.50685 0.0
H775 H 0.16127 0.52583 0.47897 0.0
C776 C 0.55185 0.10777 0.61296 0.0
C777 C 0.57155 0.10853 0.59638 0.0
C778 C 0.5618 0.1251 0.63381 0.0
C779 C 0.59217 0.14396 0.63799 0.0
C780 C 0.61213 0.14527 0.62103 0.0
C781 C 0.60158 0.12736 0.60051 0.0
C782 C 0.53985 0.12274 0.6516 0.0
C783 C 0.64462 0.16541 0.62467 0.0
C784 C 0.61458 0.20485 0.6841 0.0
C785 C 0.6213 0.19359 0.70394 0.0
C786 C 0.60571 0.18924 0.66235 0.0
C787 C 0.60305 0.16152 0.6605 0.0
C788 C 0.61008 0.15017 0.68038 0.0
C789 C 0.61931 0.16641 0.70178 0.0
C790 C 0.59886 0.20226 0.64144 0.0
C791 C 0.6072 0.12056 0.67921 0.0
H792 H 0.52864 0.09302 0.6099 0.0
H793 H 0.61683 0.12819 0.58758 0.0
H794 H 0.54415 0.11533 0.66863 0.0
H795 H 0.54209 0.14428 0.65513 0.0
H796 H 0.51698 0.10739 0.64551 0.0
H797 H 0.65709 0.16485 0.60929 0.0
H798 H 0.64934 0.18796 0.62776 0.0
H799 H 0.65263 0.15936 0.64063 0.0
H800 H 0.61619 0.22588 0.68555 0.0
H801 H 0.62428 0.15742 0.71701 0.0
H802 H 0.57549 0.18862 0.63591 0.0
H803 H 0.61197 0.20278 0.62619 0.0
H804 H 0.60336 0.2246 0.64546 0.0
H805 H 0.5842 0.10389 0.67474 0.0
H806 H 0.61387 0.115 0.69617 0.0
H807 H 0.62083 0.11947 0.66502 0.0
C808 C 0.47714 0.59044 0.72682 0.0
C809 C 0.4932 0.57643 0.73067 0.0
C810 C 0.46945 0.60232 0.74578 0.0
C811 C 0.47767 0.59976 0.7692 0.0
C812 C 0.49411 0.58582 0.77318 0.0
C813 C 0.50188 0.5745 0.75383 0.0
C814 C 0.45225 0.61734 0.74074 0.0
C815 C 0.50288 0.58227 0.7979 0.0
C816 C 0.47431 0.65011 0.81591 0.0
C817 C 0.44612 0.63281 0.82433 0.0
C818 C 0.48531 0.6394 0.79842 0.0
C819 C 0.46785 0.61059 0.78946 0.0
C820 C 0.44 0.59262 0.79879 0.0
C821 C 0.4294 0.60402 0.81594 0.0
C822 C 0.51501 0.65933 0.78876 0.0
C823 C 0.4209 0.56161 0.79002 0.0
H824 H 0.47074 0.59227 0.70889 0.0
H825 H 0.51414 0.56349 0.75683 0.0
H826 H 0.43056 0.60546 0.74885 0.0
H827 H 0.46374 0.63956 0.7488 0.0
H828 H 0.44885 0.61877 0.72148 0.0
H829 H 0.51652 0.57183 0.79795 0.0
H830 H 0.51523 0.60365 0.80731 0.0
H831 H 0.48303 0.56887 0.80808 0.0
H832 H 0.48734 0.67243 0.82223 0.0
H833 H 0.40771 0.59041 0.82239 0.0
H834 H 0.51248 0.66357 0.76997 0.0
H835 H 0.52869 0.64898 0.78924 0.0
H836 H 0.52673 0.68038 0.79878 0.0
H837 H 0.41399 0.56115 0.7713 0.0
H838 H 0.40101 0.54977 0.80057 0.0
H839 H 0.43331 0.54993 0.79066 0.0
C840 C 0.93097 0.49072 0.96298 0.0
C841 C 0.9187 0.48671 0.94002 0.0
C842 C 0.91321 0.48083 0.98269 0.0
C843 C 0.88249 0.46684 0.97936 0.0
C844 C 0.86999 0.46316 0.9563 0.0
C845 C 0.88823 0.473 0.93691 0.0
C846 C 0.92726 0.48502 0.00702 0.0
C847 C 0.83729 0.44844 0.95205 0.0
C848 C 0.83055 0.41421 0.02306 0.0
C849 C 0.82024 0.43085 0.03426 0.0
C850 C 0.852 0.42613 0.00599 0.0
C851 C 0.86315 0.4553 -0.00019 0.0
C852 C 0.85392 0.47263 0.01189 0.0
C853 C 0.83265 0.46022 0.02907 0.0
C854 C 0.86161 0.40707 0.99372 0.0
C855 C 0.86525 0.5038 0.00573 0.0
H856 H 0.95451 0.5017 0.96557 0.0
H857 H 0.87855 0.46941 0.91923 0.0
H858 H 0.92051 0.49731 0.0188 0.0
H859 H 0.91975 0.46366 0.01496 0.0
H860 H 0.95151 0.49675 0.00664 0.0
H861 H 0.83114 0.44828 0.93313 0.0
H862 H 0.82688 0.42574 0.9578 0.0
H863 H 0.82819 0.45956 0.9627 0.0
H864 H 0.82117 0.39155 0.02699 0.0
H865 H 0.82479 0.47323 0.03764 0.0
H866 H 0.88581 0.418 0.99375 0.0
H867 H 0.85366 0.40308 0.97498 0.0
H868 H 0.85311 0.38585 0.0022 0.0
H869 H 0.88947 0.51577 0.00563 0.0
H870 H 0.85807 0.51508 0.01828 0.0
H871 H 0.85721 0.50465 0.98766 0.0
C872 C 0.38199 0.91133 0.10653 0.0
C873 C 0.41213 0.92899 0.10337 0.0
C874 C 0.37148 0.89254 0.12549 0.0
C875 C 0.39158 0.89188 0.14199 0.0
C876 C 0.42185 0.91132 0.14003 0.0
C877 C 0.43178 0.9293 0.12059 0.0
C878 C 0.33903 0.87192 0.12683 0.0
C879 C 0.44399 0.91165 0.15751 0.0
C880 C 0.36643 0.84763 0.19756 0.0
C881 C 0.36859 0.82348 0.19062 0.0
C882 C 0.37334 0.87013 0.1818 0.0
C883 C 0.3817 0.86773 0.15857 0.0
C884 C 0.38248 0.84263 0.15131 0.0
C885 C 0.37634 0.82107 0.16754 0.0
C886 C 0.37294 0.89689 0.19027 0.0
C887 C 0.39058 0.83882 0.12655 0.0
H888 H 0.36652 0.91149 0.09379 0.0
H889 H 0.45511 0.94254 0.11838 0.0
H890 H 0.33412 0.84976 0.12154 0.0
H891 H 0.33173 0.8711 0.14519 0.0
H892 H 0.32614 0.87802 0.11498 0.0
H893 H 0.46592 0.93112 0.1559 0.0
H894 H 0.43682 0.91103 0.1759 0.0
H895 H 0.446 0.89216 0.15433 0.0
H896 H 0.36052 0.84944 0.2155 0.0
H897 H 0.37763 0.80215 0.16212 0.0
H898 H 0.36067 0.90259 0.17742 0.0
H899 H 0.39565 0.91542 0.19162 0.0
H900 H 0.36302 0.89412 0.20786 0.0
H901 H 0.37696 0.84226 0.11329 0.0
H902 H 0.38774 0.81697 0.12323 0.0
H903 H 0.41373 0.85519 0.12369 0.0
C904 C 0.52052 0.45915 0.25685 0.0
C905 C 0.50791 0.44303 0.2358 0.0
C906 C 0.52979 0.44794 0.27514 0.0
C907 C 0.52703 0.42029 0.27196 0.0
C908 C 0.51345 0.40358 0.25098 0.0
C909 C 0.50377 0.41508 0.23321 0.0
C910 C 0.54358 0.46613 0.29746 0.0
C911 C 0.51062 0.37426 0.24674 0.0
C912 C 0.58366 0.40792 0.30312 0.0
C913 C 0.56756 0.38943 0.3211 0.0
C914 C 0.57067 0.41812 0.28708 0.0
C915 C 0.54099 0.41013 0.2894 0.0
C916 C 0.52478 0.39207 0.30792 0.0
C917 C 0.5382 0.38162 0.32344 0.0
C918 C 0.58858 0.43695 0.26733 0.0
C919 C 0.49328 0.38369 0.31122 0.0
H920 H 0.52347 0.48071 0.25883 0.0
H921 H 0.49418 0.40276 0.21681 0.0
H922 H 0.53388 0.45309 0.31328 0.0
H923 H 0.56729 0.47358 0.29827 0.0
H924 H 0.54085 0.48545 0.29835 0.0
H925 H 0.4977 0.3632 0.23027 0.0
H926 H 0.53269 0.37682 0.24534 0.0
H927 H 0.50008 0.36015 0.26184 0.0
H928 H 0.60632 0.41385 0.30114 0.0
H929 H 0.52575 0.36744 0.33741 0.0
H930 H 0.58938 0.4581 0.26835 0.0
H931 H 0.57817 0.42647 0.24996 0.0
H932 H 0.61133 0.44098 0.26793 0.0
H933 H 0.4913 0.40339 0.31271 0.0
H934 H 0.4842 0.37075 0.32722 0.0
H935 H 0.47977 0.37082 0.29555 0.0
C936 C 0.48993 0.9057 0.38292 0.0
C937 C 0.47412 0.91908 0.39012 0.0
C938 C 0.48164 0.88788 0.36235 0.0
C939 C 0.45732 0.88377 0.34833 0.0
C940 C 0.44134 0.89725 0.35539 0.0
C941 C 0.44972 0.91443 0.37629 0.0
C942 C 0.49897 0.87352 0.35557 0.0
C943 C 0.41545 0.89366 0.34079 0.0
C944 C 0.45108 0.86108 0.28344 0.0
C945 C 0.42902 0.83191 0.28358 0.0
C946 C 0.4608 0.87812 0.30444 0.0
C947 C 0.44858 0.86553 0.32616 0.0
C948 C 0.42707 0.83583 0.32652 0.0
C949 C 0.41732 0.81945 0.3052 0.0
C950 C 0.4834 0.90984 0.30326 0.0
C951 C 0.41396 0.82147 0.34939 0.0
H952 H 0.50908 0.90943 0.39319 0.0
H953 H 0.43693 0.92409 0.38186 0.0
H954 H 0.48426 0.84974 0.35359 0.0
H955 H 0.509 0.88126 0.33823 0.0
H956 H 0.51658 0.87797 0.36886 0.0
H957 H 0.4058 0.9062 0.34841 0.0
H958 H 0.42216 0.90085 0.32254 0.0
H959 H 0.39828 0.87048 0.33945 0.0
H960 H 0.46008 0.87091 0.26678 0.0
H961 H 0.40041 0.79686 0.30545 0.0
H962 H 0.50234 0.91517 0.31531 0.0
H963 H 0.47389 0.92317 0.30928 0.0
H964 H 0.4914 0.9161 0.2851 0.0
H965 H 0.43153 0.8252 0.36244 0.0
H966 H 0.39896 0.79778 0.34686 0.0
H967 H 0.40158 0.83118 0.35712 0.0
C968 C 0.59438 0.46193 0.52816 0.0
C969 C 0.57347 0.4708 0.52762 0.0
C970 C 0.60285 0.45398 0.50726 0.0
C971 C 0.58975 0.45444 0.48533 0.0
C972 C 0.56871 0.46341 0.48463 0.0
C973 C 0.56105 0.47174 0.50573 0.0
C974 C 0.62563 0.44484 0.50864 0.0
C975 C 0.55406 0.46394 0.46161 0.0
C976 C 0.62577 0.45629 0.42743 0.0
C977 C 0.61019 0.42709 0.41985 0.0
C978 C 0.61986 0.46541 0.44902 0.0
C979 C 0.59749 0.44492 0.46312 0.0
C980 C 0.58179 0.41542 0.45561 0.0
C981 C 0.58849 0.40682 0.43417 0.0
C982 C 0.63739 0.49698 0.45666 0.0
C983 C 0.55746 0.39301 0.46998 0.0
H984 H 0.60386 0.46078 0.54497 0.0
H985 H 0.54538 0.47916 0.50501 0.0
H986 H 0.61592 0.42196 0.5024 0.0
H987 H 0.64381 0.45813 0.49686 0.0
H988 H 0.63474 0.44702 0.52692 0.0
H989 H 0.53796 0.47127 0.46413 0.0
H990 H 0.57069 0.4786 0.44924 0.0
H991 H 0.54262 0.44199 0.45305 0.0
H992 H 0.64272 0.47203 0.41655 0.0
H993 H 0.57625 0.38425 0.42838 0.0
H994 H 0.64745 0.49923 0.47455 0.0
H995 H 0.62279 0.50627 0.45783 0.0
H996 H 0.65496 0.5099 0.44424 0.0
H997 H 0.56578 0.39281 0.48808 0.0
H998 H 0.54766 0.37088 0.46184 0.0
H999 H 0.54 0.39862 0.47177 0.0
C1000 C 0.08847 0.57195 0.71649 0.0
C1001 C 0.10129 0.57792 0.73933 0.0
C1002 C 0.10579 0.57985 0.69646 0.0
C1003 C 0.13658 0.59429 0.69946 0.0
C1004 C 0.14962 0.60083 0.72252 0.0
C1005 C 0.13179 0.59243 0.74218 0.0
C1006 C 0.09116 0.57225 0.67215 0.0
C1007 C 0.18241 0.61649 0.72644 0.0
C1008 C 0.18526 0.59146 0.65258 0.0
C1009 C 0.19712 0.61907 0.64315 0.0
C1010 C 0.16436 0.58255 0.67009 0.0
C1011 C 0.15538 0.60187 0.67861 0.0
C1012 C 0.16627 0.62928 0.66844 0.0
C1013 C 0.18692 0.6375 0.65071 0.0
C1014 C 0.15292 0.55297 0.68027 0.0
C1015 C 0.15729 0.65051 0.67714 0.0
H1016 H 0.06486 0.56051 0.71428 0.0
H1017 H 0.1417 0.59737 0.75986 0.0
H1018 H 0.09943 0.592 0.6616 0.0
H1019 H 0.09659 0.55727 0.66265 0.0
H1020 H 0.067 0.56183 0.67287 0.0
H1021 H 0.18905 0.62083 0.7455 0.0
H1022 H 0.19133 0.60339 0.71869 0.0
H1023 H 0.19255 0.63741 0.71734 0.0
H1024 H 0.19292 0.57704 0.64683 0.0
H1025 H 0.196 0.65889 0.64352 0.0
H1026 H 0.1287 0.54133 0.6805 0.0
H1027 H 0.16113 0.55532 0.69884 0.0
H1028 H 0.1598 0.5395 0.67011 0.0
H1029 H 0.13313 0.63997 0.67744 0.0
H1030 H 0.16568 0.66983 0.66599 0.0
H1031 H 0.16582 0.65784 0.69555 0.0
C1032 C 0.52548 0.12778 0.89834 0.0
C1033 C 0.51192 0.09757 0.89573 0.0
C1034 C 0.53672 0.14551 0.87885 0.0
C1035 C 0.53452 0.13274 0.85619 0.0
C1036 C 0.52017 0.10224 0.85327 0.0
C1037 C 0.50898 0.085 0.87308 0.0
C1038 C 0.55185 0.17798 0.88268 0.0
C1039 C 0.5174 0.08788 0.82938 0.0
C1040 C 0.54921 0.18223 0.80458 0.0
C1041 C 0.57913 0.19291 0.80156 0.0
C1042 C 0.53399 0.16169 0.8217 0.0
C1043 C 0.54905 0.15154 0.83598 0.0
C1044 C 0.57885 0.16112 0.83215 0.0
C1045 C 0.59354 0.18176 0.81506 0.0
C1046 C 0.50221 0.15195 0.82528 0.0
C1047 C 0.59562 0.15061 0.84688 0.0
H1048 H 0.52817 0.13769 0.9158 0.0
H1049 H 0.49811 0.06165 0.87087 0.0
H1050 H 0.57536 0.18771 0.87883 0.0
H1051 H 0.54241 0.1873 0.87036 0.0
H1052 H 0.55002 0.18438 0.90109 0.0
H1053 H 0.50389 0.06391 0.8298 0.0
H1054 H 0.50752 0.09579 0.81612 0.0
H1055 H 0.53942 0.09365 0.82326 0.0
H1056 H 0.53792 0.19074 0.79422 0.0
H1057 H 0.61661 0.18984 0.81289 0.0
H1058 H 0.49991 0.16052 0.84264 0.0
H1059 H 0.4891 0.12799 0.82561 0.0
H1060 H 0.49293 0.15956 0.81123 0.0
H1061 H 0.59759 0.15846 0.86549 0.0
H1062 H 0.61794 0.1583 0.84036 0.0
H1063 H 0.58374 0.1266 0.84685 0.0
C1064 C 0.42721 0.57535 0.03455 0.0
C1065 C 0.44771 0.56593 0.03489 0.0
C1066 C 0.41968 0.58394 0.01349 0.0
C1067 C 0.43322 0.58347 0.99227 0.0
C1068 C 0.45438 0.57464 0.99256 0.0
C1069 C 0.46121 0.5658 0.01379 0.0
C1070 C 0.39688 0.59307 0.01386 0.0
C1071 C 0.46946 0.57402 0.97034 0.0
C1072 C 0.39501 0.57693 0.93301 0.0
C1073 C 0.40968 0.60562 0.92559 0.0
C1074 C 0.40207 0.56956 0.95486 0.0
C1075 C 0.42462 0.59133 0.96958 0.0
C1076 C 0.43938 0.62037 0.96232 0.0
C1077 C 0.43161 0.6272 0.94049 0.0
C1078 C 0.38555 0.53841 0.96212 0.0
C1079 C 0.46376 0.64412 0.97741 0.0
H1080 H 0.41699 0.576 0.05079 0.0
H1081 H 0.47671 0.55814 0.01371 0.0
H1082 H 0.40605 0.61526 0.00717 0.0
H1083 H 0.37807 0.57844 0.00194 0.0
H1084 H 0.38873 0.59267 0.03189 0.0
H1085 H 0.4865 0.56807 0.97378 0.0
H1086 H 0.45316 0.55816 0.95724 0.0
H1087 H 0.47979 0.59554 0.96218 0.0
H1088 H 0.37789 0.56013 0.92173 0.0
H1089 H 0.44315 0.64941 0.93489 0.0
H1090 H 0.37575 0.53694 0.97957 0.0
H1091 H 0.40079 0.52993 0.96406 0.0
H1092 H 0.36787 0.52428 0.94908 0.0
H1093 H 0.45586 0.64506 0.99524 0.0
H1094 H 0.47263 0.6657 0.96949 0.0
H1095 H 0.48181 0.63938 0.97982 0.0
C1096 C 0.91373 0.45235 0.21448 0.0
C1097 C 0.90425 0.44267 0.23727 0.0
C1098 C 0.89413 0.44239 0.19486 0.0
C1099 C 0.8643 0.42194 0.19798 0.0
C1100 C 0.85451 0.41206 0.2209 0.0
C1101 C 0.87455 0.42264 0.24026 0.0
C1102 C 0.90544 0.45357 0.17073 0.0
C1103 C 0.82292 0.39013 0.22492 0.0
C1104 C 0.81116 0.41502 0.1485 0.0
C1105 C 0.80908 0.39191 0.13469 0.0
C1106 C 0.82842 0.42456 0.16953 0.0
C1107 C 0.84364 0.41042 0.17707 0.0
C1108 C 0.84051 0.38625 0.16378 0.0
C1109 C 0.82344 0.37741 0.14271 0.0
C1110 C 0.83137 0.45055 0.18311 0.0
C1111 C 0.856 0.37028 0.1714 0.0
H1112 H 0.93666 0.46744 0.21186 0.0
H1113 H 0.86687 0.41536 0.25782 0.0
H1114 H 0.90229 0.43542 0.15882 0.0
H1115 H 0.89291 0.46304 0.16274 0.0
H1116 H 0.929 0.47028 0.17143 0.0
H1117 H 0.81875 0.38484 0.24386 0.0
H1118 H 0.80861 0.39847 0.21862 0.0
H1119 H 0.81654 0.36988 0.21454 0.0
H1120 H 0.80025 0.42644 0.14241 0.0
H1121 H 0.82176 0.35936 0.13229 0.0
H1122 H 0.85422 0.46871 0.18249 0.0
H1123 H 0.82652 0.4455 0.20198 0.0
H1124 H 0.81657 0.45788 0.17584 0.0
H1125 H 0.87998 0.38476 0.17046 0.0
H1126 H 0.8495 0.35058 0.16015 0.0
H1127 H 0.85125 0.36384 0.19005 0.0
loop_
_geom_bond_atom_site_label_1
_geom_bond_atom_site_label_2
_geom_bond_distance
_geom_bond_site_symmetry_2
_ccdc_geom_bond_type
C0 C1 1.384 . S
C0 C2 1.384 . S
C0 H28 0.931 . S
C1 C0 1.384 . S
C1 C4 1.382 . S
C2 C0 1.384 . S
C2 C3 1.381 . S
C2 H29 0.930 . S
C3 C2 1.381 . S
C3 C5 1.381 . S
C3 C6 1.487 . S
C4 C1 1.382 . S
C4 C5 1.387 . S
C4 H30 0.930 . S
C5 C3 1.381 . S
C5 C4 1.387 . S
C5 H31 0.931 . S
C6 C3 1.487 . S
C6 C13 1.399 . S
C6 N44 1.343 . S
C7 C8 1.384 . S
C7 C9 1.384 . S
C7 H32 0.931 . S
C8 C7 1.384 . S
C8 C11 1.382 . S
C9 C7 1.384 . S
C9 C10 1.381 . S
C9 H33 0.930 . S
C10 C9 1.381 . S
C10 C12 1.381 . S
C10 C13 1.487 . S
C11 C8 1.382 . S
C11 C12 1.387 . S
C11 H34 0.930 . S
C12 C10 1.381 . S
C12 C11 1.387 . S
C12 H35 0.931 . S
C13 C6 1.399 . S
C13 C10 1.487 . S
C13 N45 1.343 1_655 S
C14 C15 1.384 . S
C14 C16 1.384 . S
C14 H36 0.931 . S
C15 C14 1.384 . S
C15 C18 1.382 . S
C16 C14 1.384 . S
C16 C17 1.381 . S
C16 H37 0.930 . S
C17 C16 1.381 . S
C17 C19 1.381 . S
C17 C20 1.487 . S
C18 C15 1.382 . S
C18 C19 1.387 . S
C18 H38 0.930 . S
C19 C17 1.381 . S
C19 C18 1.387 . S
C19 H39 0.931 . S
C20 C17 1.487 . S
C20 C27 1.399 . S
C20 N45 1.343 . S
C21 C22 1.384 . S
C21 C23 1.384 . S
C21 H40 0.931 . S
C22 C21 1.384 . S
C22 C25 1.382 . S
C23 C21 1.384 . S
C23 C24 1.381 . S
C23 H41 0.930 . S
C24 C23 1.381 . S
C24 C26 1.381 . S
C24 C27 1.487 . S
C25 C22 1.382 . S
C25 C26 1.387 . S
C25 H42 0.930 . S
C26 C24 1.381 . S
C26 C25 1.387 . S
C26 H43 0.931 . S
C27 C20 1.399 . S
C27 C24 1.487 . S
C27 N44 1.343 1_455 S
H28 C0 0.931 . S
H29 C2 0.930 . S
H30 C4 0.930 . S
H31 C5 0.931 . S
H32 C7 0.931 . S
H33 C9 0.930 . S
H34 C11 0.930 . S
H35 C12 0.931 . S
H36 C14 0.931 . S
H37 C16 0.930 . S
H38 C18 0.930 . S
H39 C19 0.931 . S
H40 C21 0.931 . S
H41 C23 0.930 . S
H42 C25 0.930 . S
H43 C26 0.931 . S
N44 C6 1.343 . S
N44 C27 1.343 1_655 S
N45 C13 1.343 1_455 S
N45 C20 1.343 . S
C46 C47 1.384 . S
C46 C48 1.384 . S
C46 H74 0.931 . S
C47 C46 1.384 . S
C47 C50 1.382 . S
C48 C46 1.384 . S
C48 C49 1.381 . S
C48 H75 0.930 . S
C49 C48 1.381 . S
C49 C51 1.381 . S
C49 C52 1.487 . S
C50 C47 1.382 . S
C50 C51 1.387 . S
C50 H76 0.930 . S
C51 C49 1.381 . S
C51 C50 1.387 . S
C51 H77 0.931 . S
C52 C49 1.487 . S
C52 C59 1.399 . S
C52 N90 1.343 1_565 S
C53 C54 1.384 . S
C53 C55 1.384 . S
C53 H78 0.931 . S
C54 C53 1.384 . S
C54 C57 1.382 . S
C55 C53 1.384 . S
C55 C56 1.381 . S
C55 H79 0.930 . S
C56 C55 1.381 . S
C56 C58 1.381 . S
C56 C59 1.487 . S
C57 C54 1.382 . S
C57 C58 1.387 . S
C57 H80 0.930 . S
C58 C56 1.381 . S
C58 C57 1.387 . S
C58 H81 0.931 . S
C59 C52 1.399 . S
C59 C56 1.487 . S
C59 N91 1.343 1_565 S
C60 C61 1.384 . S
C60 C62 1.384 . S
C60 H82 0.931 . S
C61 C60 1.384 . S
C61 C64 1.382 . S
C62 C60 1.384 . S
C62 C63 1.381 . S
C62 H83 0.930 . S
C63 C62 1.381 . S
C63 C65 1.381 . S
C63 C66 1.487 . S
C64 C61 1.382 . S
C64 C65 1.387 . S
C64 H84 0.930 . S
C65 C63 1.381 . S
C65 C64 1.387 . S
C65 H85 0.931 . S
C66 C63 1.487 . S
C66 C73 1.399 . S
C66 N91 1.343 . S
C67 C68 1.384 . S
C67 C69 1.384 . S
C67 H86 0.931 . S
C68 C67 1.384 . S
C68 C71 1.382 . S
C69 C67 1.384 . S
C69 C70 1.381 . S
C69 H87 0.930 . S
C70 C69 1.381 . S
C70 C72 1.381 . S
C70 C73 1.487 . S
C71 C68 1.382 . S
C71 C72 1.387 . S
C71 H88 0.930 . S
C72 C70 1.381 . S
C72 C71 1.387 . S
C72 H89 0.931 . S
C73 C66 1.399 . S
C73 C70 1.487 . S
C73 N90 1.343 . S
H74 C46 0.931 . S
H75 C48 0.930 . S
H76 C50 0.930 . S
H77 C51 0.931 . S
H78 C53 0.931 . S
H79 C55 0.930 . S
H80 C57 0.930 . S
H81 C58 0.931 . S
H82 C60 0.931 . S
H83 C62 0.930 . S
H84 C64 0.930 . S
H85 C65 0.931 . S
H86 C67 0.931 . S
H87 C69 0.930 . S
H88 C71 0.930 . S
H89 C72 0.931 . S
N90 C52 1.343 1_545 S
N90 C73 1.343 . S
N91 C59 1.343 1_545 S
N91 C66 1.343 . S
C92 C93 1.384 . S
C92 C94 1.384 . S
C92 H120 0.931 . S
C93 C92 1.384 . S
C93 C96 1.382 . S
C94 C92 1.384 . S
C94 C95 1.381 . S
C94 H121 0.930 . S
C95 C94 1.381 . S
C95 C97 1.381 . S
C95 C98 1.487 . S
C96 C93 1.382 . S
C96 C97 1.387 . S
C96 H122 0.930 . S
C97 C95 1.381 . S
C97 C96 1.387 . S
C97 H123 0.931 . S
C98 C95 1.487 . S
C98 C105 1.399 . S
C98 N136 1.343 . S
C99 C100 1.384 . S
C99 C101 1.384 . S
C99 H124 0.931 . S
C100 C99 1.384 . S
C100 C103 1.382 . S
C101 C99 1.384 . S
C101 C102 1.381 . S
C101 H125 0.930 . S
C102 C101 1.381 . S
C102 C104 1.381 . S
C102 C105 1.487 . S
C103 C100 1.382 . S
C103 C104 1.387 . S
C103 H126 0.930 . S
C104 C102 1.381 . S
C104 C103 1.387 . S
C104 H127 0.931 . S
C105 C98 1.399 . S
C105 C102 1.487 . S
C105 N137 1.343 . S
C106 C107 1.384 . S
C106 C108 1.384 . S
C106 H128 0.931 . S
C107 C106 1.384 . S
C107 C110 1.382 . S
C108 C106 1.384 . S
C108 C109 1.381 . S
C108 H129 0.930 . S
C109 C108 1.381 . S
C109 C111 1.381 . S
C109 C112 1.487 . S
C110 C107 1.382 . S
C110 C111 1.387 . S
C110 H130 0.930 . S
C111 C109 1.381 . S
C111 C110 1.387 . S
C111 H131 0.931 . S
C112 C109 1.487 . S
C112 C119 1.399 . S
C112 N137 1.343 . S
C113 C114 1.384 . S
C113 C115 1.384 . S
C113 H132 0.931 . S
C114 C113 1.384 . S
C114 C117 1.382 . S
C115 C113 1.384 . S
C115 C116 1.381 . S
C115 H133 0.930 . S
C116 C115 1.381 . S
C116 C118 1.381 . S
C116 C119 1.487 . S
C117 C114 1.382 . S
C117 C118 1.387 . S
C117 H134 0.930 . S
C118 C116 1.381 . S
C118 C117 1.387 . S
C118 H135 0.931 . S
C119 C112 1.399 . S
C119 C116 1.487 . S
C119 N136 1.343 . S
H120 C92 0.931 . S
H121 C94 0.930 . S
H122 C96 0.930 . S
H123 C97 0.931 . S
H124 C99 0.931 . S
H125 C101 0.930 . S
H126 C103 0.930 . S
H127 C104 0.931 . S
H128 C106 0.931 . S
H129 C108 0.930 . S
H130 C110 0.930 . S
H131 C111 0.931 . S
H132 C113 0.931 . S
H133 C115 0.930 . S
H134 C117 0.930 . S
H135 C118 0.931 . S
N136 C98 1.343 . S
N136 C119 1.343 . S
N137 C105 1.343 . S
N137 C112 1.343 . S
C138 C139 1.384 . S
C138 C140 1.384 . S
C138 H166 0.931 . S
C139 C138 1.384 . S
C139 C142 1.382 . S
C140 C138 1.384 . S
C140 C141 1.381 . S
C140 H167 0.930 . S
C141 C140 1.381 . S
C141 C143 1.381 . S
C141 C144 1.487 . S
C142 C139 1.382 . S
C142 C143 1.387 . S
C142 H168 0.930 . S
C143 C141 1.381 . S
C143 C142 1.387 . S
C143 H169 0.931 . S
C144 C141 1.487 . S
C144 C151 1.399 . S
C144 N182 1.343 . S
C145 C146 1.384 . S
C145 C147 1.384 . S
C145 H170 0.931 . S
C146 C145 1.384 . S
C146 C149 1.382 . S
C147 C145 1.384 . S
C147 C148 1.381 . S
C147 H171 0.930 . S
C148 C147 1.381 . S
C148 C150 1.381 . S
C148 C151 1.487 . S
C149 C146 1.382 . S
C149 C150 1.387 . S
C149 H172 0.930 . S
C150 C148 1.381 . S
C150 C149 1.387 . S
C150 H173 0.931 . S
C151 C144 1.399 . S
C151 C148 1.487 . S
C151 N183 1.343 1_655 S
C152 C153 1.384 . S
C152 C154 1.384 . S
C152 H174 0.931 . S
C153 C152 1.384 . S
C153 C156 1.382 . S
C154 C152 1.384 . S
C154 C155 1.381 . S
C154 H175 0.930 . S
C155 C154 1.381 . S
C155 C157 1.381 . S
C155 C158 1.487 . S
C156 C153 1.382 . S
C156 C157 1.387 . S
C156 H176 0.930 . S
C157 C155 1.381 . S
C157 C156 1.387 . S
C157 H177 0.931 . S
C158 C155 1.487 . S
C158 C165 1.399 . S
C158 N183 1.343 . S
C159 C160 1.384 . S
C159 C161 1.384 . S
C159 H178 0.931 . S
C160 C159 1.384 . S
C160 C163 1.382 . S
C161 C159 1.384 . S
C161 C162 1.381 . S
C161 H179 0.930 . S
C162 C161 1.381 . S
C162 C164 1.381 . S
C162 C165 1.487 . S
C163 C160 1.382 . S
C163 C164 1.387 . S
C163 H180 0.930 . S
C164 C162 1.381 . S
C164 C163 1.387 . S
C164 H181 0.931 . S
C165 C158 1.399 . S
C165 C162 1.487 . S
C165 N182 1.343 1_455 S
H166 C138 0.931 . S
H167 C140 0.930 . S
H168 C142 0.930 . S
H169 C143 0.931 . S
H170 C145 0.931 . S
H171 C147 0.930 . S
H172 C149 0.930 . S
H173 C150 0.931 . S
H174 C152 0.931 . S
H175 C154 0.930 . S
H176 C156 0.930 . S
H177 C157 0.931 . S
H178 C159 0.931 . S
H179 C161 0.930 . S
H180 C163 0.930 . S
H181 C164 0.931 . S
N182 C144 1.343 . S
N182 C165 1.343 1_655 S
N183 C151 1.343 1_455 S
N183 C158 1.343 . S
C184 C185 1.384 . S
C184 C186 1.384 . S
C184 H212 0.931 . S
C185 C184 1.384 . S
C185 C188 1.382 . S
C186 C184 1.384 . S
C186 C187 1.381 . S
C186 H213 0.920 1_556 S
C187 C186 1.381 . S
C187 C189 1.381 . S
C187 C190 1.487 . S
C188 C185 1.382 . S
C188 C189 1.387 . S
C188 H214 0.930 . S
C189 C187 1.381 . S
C189 C188 1.387 . S
C189 H215 0.931 . S
C190 C187 1.487 . S
C190 C197 1.407 1_556 S
C190 N228 1.343 1_565 S
C191 C192 1.384 . S
C191 C193 1.384 . S
C191 H216 0.931 . S
C192 C191 1.384 . S
C192 C195 1.382 . S
C193 C191 1.384 . S
C193 C194 1.381 . S
C193 H217 0.930 . S
C194 C193 1.381 . S
C194 C196 1.381 . S
C194 C197 1.505 . S
C195 C192 1.382 . S
C195 C196 1.387 . S
C195 H218 0.930 . S
C196 C194 1.381 . S
C196 C195 1.387 . S
C196 H219 0.931 1_565 S
C197 C190 1.407 1_554 S
C197 C194 1.505 . S
C197 N229 1.315 1_565 S
C198 C199 1.384 . S
C198 C200 1.384 1_554 S
C198 H220 0.932 1_554 S
C199 C198 1.384 . S
C199 C202 1.382 . S
C200 C198 1.384 1_556 S
C200 C201 1.381 1_556 S
C200 H221 0.930 . S
C201 C200 1.381 1_554 S
C201 C203 1.381 . S
C201 C204 1.487 1_554 S
C202 C199 1.382 . S
C202 C203 1.387 . S
C202 H222 0.930 . S
C203 C201 1.381 . S
C203 C202 1.387 . S
C203 H223 0.931 . S
C204 C201 1.487 1_556 S
C204 C211 1.399 . S
C204 N229 1.343 1_556 S
C205 C206 1.384 . S
C205 C207 1.384 . S
C205 H224 0.931 . S
C206 C205 1.384 . S
C206 C209 1.382 . S
C207 C205 1.384 . S
C207 C208 1.381 . S
C207 H225 0.930 . S
C208 C207 1.381 . S
C208 C210 1.381 . S
C208 C211 1.487 . S
C209 C206 1.382 . S
C209 C210 1.387 . S
C209 H226 0.930 . S
C210 C208 1.381 . S
C210 C209 1.387 . S
C210 H227 0.931 . S
C211 C204 1.399 . S
C211 C208 1.487 . S
C211 N228 1.343 . S
H212 C184 0.931 . S
H213 C186 0.920 1_554 S
H214 C188 0.930 . S
H215 C189 0.931 . S
H216 C191 0.931 . S
H217 C193 0.930 . S
H218 C195 0.930 . S
H219 C196 0.931 1_545 S
H220 C198 0.932 1_556 S
H221 C200 0.930 . S
H222 C202 0.930 . S
H223 C203 0.931 . S
H224 C205 0.931 . S
H225 C207 0.930 . S
H226 C209 0.930 . S
H227 C210 0.931 . S
N228 C190 1.343 1_545 S
N228 C211 1.343 . S
N229 C197 1.315 1_545 S
N229 C204 1.343 1_554 S
C230 C231 1.384 . S
C230 C232 1.384 . S
C230 H258 0.931 . S
C231 C230 1.384 . S
C231 C234 1.382 . S
C232 C230 1.384 . S
C232 C233 1.381 . S
C232 H259 0.930 . S
C233 C232 1.381 . S
C233 C235 1.381 . S
C233 C236 1.487 . S
C234 C231 1.382 . S
C234 C235 1.387 . S
C234 H260 0.930 . S
C235 C233 1.381 . S
C235 C234 1.387 . S
C235 H261 0.931 . S
C236 C233 1.487 . S
C236 C243 1.399 . S
C236 N274 1.343 . S
C237 C238 1.384 . S
C237 C239 1.384 . S
C237 H262 0.931 . S
C238 C237 1.384 . S
C238 C241 1.382 . S
C239 C237 1.384 . S
C239 C240 1.381 . S
C239 H263 0.930 . S
C240 C239 1.381 . S
C240 C242 1.381 . S
C240 C243 1.487 . S
C241 C238 1.382 . S
C241 C242 1.387 . S
C241 H264 0.930 . S
C242 C240 1.381 . S
C242 C241 1.387 . S
C242 H265 0.931 . S
C243 C236 1.399 . S
C243 C240 1.487 . S
C243 N275 1.343 . S
C244 C245 1.384 . S
C244 C246 1.384 . S
C244 H266 0.931 . S
C245 C244 1.384 . S
C245 C248 1.382 . S
C246 C244 1.384 . S
C246 C247 1.381 . S
C246 H267 0.930 . S
C247 C246 1.381 . S
C247 C249 1.381 . S
C247 C250 1.487 . S
C248 C245 1.382 . S
C248 C249 1.387 . S
C248 H268 0.930 . S
C249 C247 1.381 . S
C249 C248 1.387 . S
C249 H269 0.931 . S
C250 C247 1.487 . S
C250 C257 1.399 . S
C250 N275 1.343 . S
C251 C252 1.384 . S
C251 C253 1.384 . S
C251 H270 0.931 . S
C252 C251 1.384 . S
C252 C255 1.382 . S
C253 C251 1.384 . S
C253 C254 1.381 . S
C253 H271 0.930 . S
C254 C253 1.381 . S
C254 C256 1.381 . S
C254 C257 1.487 . S
C255 C252 1.382 . S
C255 C256 1.387 . S
C255 H272 0.930 . S
C256 C254 1.381 . S
C256 C255 1.387 . S
C256 H273 0.931 . S
C257 C250 1.399 . S
C257 C254 1.487 . S
C257 N274 1.343 . S
H258 C230 0.931 . S
H259 C232 0.930 . S
H260 C234 0.930 . S
H261 C235 0.931 . S
H262 C237 0.931 . S
H263 C239 0.930 . S
H264 C241 0.930 . S
H265 C242 0.931 . S
H266 C244 0.931 . S
H267 C246 0.930 . S
H268 C248 0.930 . S
H269 C249 0.931 . S
H270 C251 0.931 . S
H271 C253 0.930 . S
H272 C255 0.930 . S
H273 C256 0.931 . S
N274 C236 1.343 . S
N274 C257 1.343 . S
N275 C243 1.343 . S
N275 C250 1.343 . S
Mg276 O277 2.028 . S
Mg276 O283 1.986 . S
Mg276 O285 2.114 . S
Mg276 O286 2.251 . S
Mg276 O289 2.010 . S
O277 Mg276 2.028 . S
O277 C280 1.250 . S
O278 Mg279 2.028 . S
O278 C280 1.248 . S
Mg279 O278 2.028 . S
Mg279 O284 2.032 . S
Mg279 O286 2.079 . S
C280 O277 1.250 . S
C280 O278 1.248 . S
C281 O282 1.264 . S
C281 O289 1.249 . S
O282 C281 1.264 . S
O283 Mg276 1.986 . S
O283 C287 1.246 . S
O284 Mg279 2.032 . S
O284 C287 1.259 . S
O285 Mg276 2.114 . S
O285 C288 1.252 . S
O286 Mg276 2.251 . S
O286 Mg279 2.079 . S
O286 C288 1.273 . S
C287 O283 1.246 . S
C287 O284 1.259 . S
C288 O285 1.252 . S
C288 O286 1.273 . S
O289 Mg276 2.010 . S
O289 C281 1.249 . S
Mg290 O291 2.028 . S
Mg290 O297 1.986 . S
Mg290 O299 2.114 . S
Mg290 O300 2.251 . S
Mg290 O303 2.010 . S
O291 Mg290 2.028 . S
O291 C294 1.250 . S
O292 Mg293 2.028 . S
O292 C294 1.248 . S
Mg293 O292 2.028 . S
Mg293 O298 2.032 . S
Mg293 O300 2.079 . S
C294 O291 1.250 . S
C294 O292 1.248 . S
C295 O296 1.264 . S
C295 O303 1.249 . S
O296 C295 1.264 . S
O297 Mg290 1.986 . S
O297 C301 1.246 . S
O298 Mg293 2.032 . S
O298 C301 1.259 . S
O299 Mg290 2.114 . S
O299 C302 1.252 . S
O300 Mg290 2.251 . S
O300 Mg293 2.079 . S
O300 C302 1.273 . S
C301 O297 1.246 . S
C301 O298 1.259 . S
C302 O299 1.252 . S
C302 O300 1.273 . S
O303 Mg290 2.010 . S
O303 C295 1.249 . S
Mg304 O305 2.028 . S
Mg304 O311 1.986 . S
Mg304 O313 2.114 . S
Mg304 O314 2.251 . S
Mg304 O317 2.010 . S
O305 Mg304 2.028 . S
O305 C308 1.250 . S
O306 Mg307 2.028 . S
O306 C308 1.248 . S
Mg307 O306 2.028 . S
Mg307 O312 2.032 . S
Mg307 O314 2.079 . S
C308 O305 1.250 . S
C308 O306 1.248 . S
C309 O310 1.264 . S
C309 O317 1.249 . S
O310 C309 1.264 . S
O311 Mg304 1.986 . S
O311 C315 1.246 . S
O312 Mg307 2.032 . S
O312 C315 1.259 . S
O313 Mg304 2.114 . S
O313 C316 1.252 . S
O314 Mg304 2.251 . S
O314 Mg307 2.079 . S
O314 C316 1.273 . S
C315 O311 1.246 . S
C315 O312 1.259 . S
C316 O313 1.252 . S
C316 O314 1.273 . S
O317 Mg304 2.010 . S
O317 C309 1.249 . S
Mg318 O319 2.028 . S
Mg318 O325 1.986 . S
Mg318 O327 2.114 . S
Mg318 O328 2.251 . S
Mg318 O331 2.010 . S
O319 Mg318 2.028 . S
O319 C322 1.250 . S
O320 Mg321 2.028 . S
O320 C322 1.248 . S
Mg321 O320 2.028 . S
Mg321 O326 2.032 . S
Mg321 O328 2.079 . S
C322 O319 1.250 . S
C322 O320 1.248 . S
C323 O324 1.264 . S
C323 O331 1.249 . S
O324 C323 1.264 . S
O325 Mg318 1.986 . S
O325 C329 1.246 . S
O326 Mg321 2.032 . S
O326 C329 1.259 . S
O327 Mg318 2.114 . S
O327 C330 1.252 . S
O328 Mg318 2.251 . S
O328 Mg321 2.079 . S
O328 C330 1.273 . S
C329 O325 1.246 . S
C329 O326 1.259 . S
C330 O327 1.252 . S
C330 O328 1.273 . S
O331 Mg318 2.010 . S
O331 C323 1.249 . S
Mg332 O333 2.028 . S
Mg332 O339 1.986 . S
Mg332 O341 2.114 . S
Mg332 O342 2.251 . S
Mg332 O345 2.010 . S
O333 Mg332 2.028 . S
O333 C336 1.250 . S
O334 Mg335 2.028 . S
O334 C336 1.248 . S
Mg335 O334 2.028 . S
Mg335 O340 2.032 . S
Mg335 O342 2.079 . S
C336 O333 1.250 . S
C336 O334 1.248 . S
C337 O338 1.264 . S
C337 O345 1.249 . S
O338 C337 1.264 . S
O339 Mg332 1.986 . S
O339 C343 1.246 . S
O340 Mg335 2.032 . S
O340 C343 1.259 . S
O341 Mg332 2.114 . S
O341 C344 1.252 . S
O342 Mg332 2.251 . S
O342 Mg335 2.079 . S
O342 C344 1.273 . S
C343 O339 1.246 . S
C343 O340 1.259 . S
C344 O341 1.252 . S
C344 O342 1.273 . S
O345 Mg332 2.010 . S
O345 C337 1.249 . S
Mg346 O347 2.028 . S
Mg346 O353 1.986 . S
Mg346 O355 2.114 . S
Mg346 O356 2.251 . S
Mg346 O359 2.010 . S
O347 Mg346 2.028 . S
O347 C350 1.250 . S
O348 Mg349 2.028 . S
O348 C350 1.248 . S
Mg349 O348 2.028 . S
Mg349 O354 2.032 . S
Mg349 O356 2.079 . S
C350 O347 1.250 . S
C350 O348 1.248 . S
C351 O352 1.264 . S
C351 O359 1.249 . S
O352 C351 1.264 . S
O353 Mg346 1.986 . S
O353 C357 1.246 . S
O354 Mg349 2.032 . S
O354 C357 1.259 . S
O355 Mg346 2.114 . S
O355 C358 1.252 . S
O356 Mg346 2.251 . S
O356 Mg349 2.079 . S
O356 C358 1.273 . S
C357 O353 1.246 . S
C357 O354 1.259 . S
C358 O355 1.252 . S
C358 O356 1.273 . S
O359 Mg346 2.010 . S
O359 C351 1.249 . S
C360 C361 1.391 . S
C360 C362 1.394 . S
C360 H376 0.931 . S
C361 C360 1.391 . S
C361 C365 1.376 . S
C362 C360 1.394 . S
C362 C363 1.369 . S
C362 C366 1.531 . S
C363 C362 1.369 . S
C363 C364 1.410 . S
C363 C371 1.503 . S
C364 C363 1.410 . S
C364 C365 1.392 . S
C364 C367 1.511 . S
C365 C361 1.376 . S
C365 C364 1.392 . S
C365 H377 0.929 . S
C366 C362 1.531 . S
C366 H378 0.960 . S
C366 H379 0.962 . S
C366 H380 0.960 . S
C367 C364 1.511 . S
C367 H381 0.961 . S
C367 H382 0.961 . S
C367 H383 0.961 . S
C368 C369 1.370 . S
C368 C370 1.363 . S
C368 H384 0.931 . S
C369 C368 1.370 . S
C369 C373 1.408 . S
C370 C368 1.363 . S
C370 C371 1.370 . S
C370 C374 1.524 . S
C371 C363 1.503 . S
C371 C370 1.370 . S
C371 C372 1.403 . S
C372 C371 1.403 . S
C372 C373 1.404 . S
C372 C375 1.539 . S
C373 C369 1.408 . S
C373 C372 1.404 . S
C373 H385 0.930 . S
C374 C370 1.524 . S
C374 H386 0.956 . S
C374 H387 0.961 . S
C374 H388 0.961 . S
C375 C372 1.539 . S
C375 H389 0.958 . S
C375 H390 0.961 . S
C375 H391 0.960 . S
H376 C360 0.931 . S
H377 C365 0.929 . S
H378 C366 0.960 . S
H379 C366 0.962 . S
H380 C366 0.960 . S
H381 C367 0.961 . S
H382 C367 0.961 . S
H383 C367 0.961 . S
H384 C368 0.931 . S
H385 C373 0.930 . S
H386 C374 0.956 . S
H387 C374 0.961 . S
H388 C374 0.961 . S
H389 C375 0.958 . S
H390 C375 0.961 . S
H391 C375 0.960 . S
C392 C393 1.391 . S
C392 C394 1.394 . S
C392 H408 0.931 . S
C393 C392 1.391 . S
C393 C397 1.376 . S
C394 C392 1.394 . S
C394 C395 1.369 . S
C394 C398 1.531 . S
C395 C394 1.369 . S
C395 C396 1.410 . S
C395 C403 1.503 . S
C396 C395 1.410 . S
C396 C397 1.392 . S
C396 C399 1.511 . S
C397 C393 1.376 . S
C397 C396 1.392 . S
C397 H409 0.929 . S
C398 C394 1.531 . S
C398 H410 0.960 . S
C398 H411 0.962 . S
C398 H412 0.960 . S
C399 C396 1.511 . S
C399 H413 0.961 . S
C399 H414 0.961 . S
C399 H415 0.961 . S
C400 C401 1.370 . S
C400 C402 1.363 . S
C400 H416 0.931 . S
C401 C400 1.370 . S
C401 C405 1.408 . S
C402 C400 1.363 . S
C402 C403 1.370 . S
C402 C406 1.524 . S
C403 C395 1.503 . S
C403 C402 1.370 . S
C403 C404 1.403 . S
C404 C403 1.403 . S
C404 C405 1.404 . S
C404 C407 1.539 . S
C405 C401 1.408 . S
C405 C404 1.404 . S
C405 H417 0.930 . S
C406 C402 1.524 . S
C406 H418 0.956 . S
C406 H419 0.961 . S
C406 H420 0.961 . S
C407 C404 1.539 . S
C407 H421 0.958 . S
C407 H422 0.961 . S
C407 H423 0.960 . S
H408 C392 0.931 . S
H409 C397 0.929 . S
H410 C398 0.960 . S
H411 C398 0.962 . S
H412 C398 0.960 . S
H413 C399 0.961 . S
H414 C399 0.961 . S
H415 C399 0.961 . S
H416 C400 0.931 . S
H417 C405 0.930 . S
H418 C406 0.956 . S
H419 C406 0.961 . S
H420 C406 0.961 . S
H421 C407 0.958 . S
H422 C407 0.961 . S
H423 C407 0.960 . S
C424 C425 1.391 . S
C424 C426 1.394 . S
C424 H440 0.931 . S
C425 C424 1.391 . S
C425 C429 1.376 . S
C426 C424 1.394 . S
C426 C427 1.369 . S
C426 C430 1.531 . S
C427 C426 1.369 . S
C427 C428 1.410 . S
C427 C435 1.503 . S
C428 C427 1.410 . S
C428 C429 1.392 . S
C428 C431 1.511 . S
C429 C425 1.376 . S
C429 C428 1.392 . S
C429 H441 0.929 . S
C430 C426 1.531 . S
C430 H442 0.960 . S
C430 H443 0.962 . S
C430 H444 0.960 . S
C431 C428 1.511 . S
C431 H445 0.961 . S
C431 H446 0.961 . S
C431 H447 0.961 . S
C432 C433 1.370 . S
C432 C434 1.363 . S
C432 H448 0.931 . S
C433 C432 1.370 . S
C433 C437 1.408 . S
C434 C432 1.363 . S
C434 C435 1.370 . S
C434 C438 1.524 . S
C435 C427 1.503 . S
C435 C434 1.370 . S
C435 C436 1.403 . S
C436 C435 1.403 . S
C436 C437 1.404 . S
C436 C439 1.539 . S
C437 C433 1.408 . S
C437 C436 1.404 . S
C437 H449 0.930 . S
C438 C434 1.524 . S
C438 H450 0.956 . S
C438 H451 0.961 . S
C438 H452 0.961 . S
C439 C436 1.539 . S
C439 H453 0.958 . S
C439 H454 0.961 . S
C439 H455 0.960 . S
H440 C424 0.931 . S
H441 C429 0.929 . S
H442 C430 0.960 . S
H443 C430 0.962 . S
H444 C430 0.960 . S
H445 C431 0.961 . S
H446 C431 0.961 . S
H447 C431 0.961 . S
H448 C432 0.931 . S
H449 C437 0.930 . S
H450 C438 0.956 . S
H451 C438 0.961 . S
H452 C438 0.961 . S
H453 C439 0.958 . S
H454 C439 0.961 . S
H455 C439 0.960 . S
C456 C457 1.391 . S
C456 C458 1.394 . S
C456 H472 0.931 . S
C457 C456 1.391 . S
C457 C461 1.376 . S
C458 C456 1.394 . S
C458 C459 1.369 . S
C458 C462 1.531 . S
C459 C458 1.369 . S
C459 C460 1.410 . S
C459 C467 1.503 . S
C460 C459 1.410 . S
C460 C461 1.392 . S
C460 C463 1.511 . S
C461 C457 1.376 . S
C461 C460 1.392 . S
C461 H473 0.929 . S
C462 C458 1.531 . S
C462 H474 0.960 . S
C462 H475 0.962 . S
C462 H476 0.960 . S
C463 C460 1.511 . S
C463 H477 0.961 . S
C463 H478 0.961 . S
C463 H479 0.961 . S
C464 C465 1.370 . S
C464 C466 1.363 . S
C464 H480 0.931 . S
C465 C464 1.370 . S
C465 C469 1.408 . S
C466 C464 1.363 . S
C466 C467 1.370 . S
C466 C470 1.524 . S
C467 C459 1.503 . S
C467 C466 1.370 . S
C467 C468 1.403 . S
C468 C467 1.403 . S
C468 C469 1.404 . S
C468 C471 1.539 . S
C469 C465 1.408 . S
C469 C468 1.404 . S
C469 H481 0.930 . S
C470 C466 1.524 . S
C470 H482 0.956 . S
C470 H483 0.961 . S
C470 H484 0.961 . S
C471 C468 1.539 . S
C471 H485 0.958 . S
C471 H486 0.961 . S
C471 H487 0.960 . S
H472 C456 0.931 . S
H473 C461 0.929 . S
H474 C462 0.960 . S
H475 C462 0.962 . S
H476 C462 0.960 . S
H477 C463 0.961 . S
H478 C463 0.961 . S
H479 C463 0.961 . S
H480 C464 0.931 . S
H481 C469 0.930 . S
H482 C470 0.956 . S
H483 C470 0.961 . S
H484 C470 0.961 . S
H485 C471 0.958 . S
H486 C471 0.961 . S
H487 C471 0.960 . S
C488 C489 1.391 . S
C488 C490 1.394 . S
C488 H504 0.931 . S
C489 C488 1.391 . S
C489 C493 1.376 . S
C490 C488 1.394 . S
C490 C491 1.369 . S
C490 C494 1.531 . S
C491 C490 1.369 . S
C491 C492 1.410 . S
C491 C499 1.503 . S
C492 C491 1.410 . S
C492 C493 1.392 . S
C492 C495 1.511 . S
C493 C489 1.376 . S
C493 C492 1.392 . S
C493 H505 0.929 . S
C494 C490 1.531 . S
C494 H506 0.960 . S
C494 H507 0.962 . S
C494 H508 0.960 . S
C495 C492 1.511 . S
C495 H509 0.961 . S
C495 H510 0.961 . S
C495 H511 0.961 . S
C496 C497 1.370 . S
C496 C498 1.363 . S
C496 H512 0.931 . S
C497 C496 1.370 . S
C497 C501 1.408 . S
C498 C496 1.363 . S
C498 C499 1.370 . S
C498 C502 1.524 . S
C499 C491 1.503 . S
C499 C498 1.370 . S
C499 C500 1.403 . S
C500 C499 1.403 . S
C500 C501 1.404 . S
C500 C503 1.539 . S
C501 C497 1.408 . S
C501 C500 1.404 . S
C501 H513 0.930 . S
C502 C498 1.524 . S
C502 H514 0.956 . S
C502 H515 0.961 . S
C502 H516 0.961 . S
C503 C500 1.539 . S
C503 H517 0.958 . S
C503 H518 0.961 . S
C503 H519 0.960 . S
H504 C488 0.931 . S
H505 C493 0.929 . S
H506 C494 0.960 . S
H507 C494 0.962 . S
H508 C494 0.960 . S
H509 C495 0.961 . S
H510 C495 0.961 . S
H511 C495 0.961 . S
H512 C496 0.931 . S
H513 C501 0.930 . S
H514 C502 0.956 . S
H515 C502 0.961 . S
H516 C502 0.961 . S
H517 C503 0.958 . S
H518 C503 0.961 . S
H519 C503 0.960 . S
C520 C521 1.391 . S
C520 C522 1.394 . S
C520 H536 0.931 . S
C521 C520 1.391 . S
C521 C525 1.376 . S
C522 C520 1.394 . S
C522 C523 1.369 . S
C522 C526 1.531 . S
C523 C522 1.369 . S
C523 C524 1.410 . S
C523 C531 1.503 . S
C524 C523 1.410 . S
C524 C525 1.392 . S
C524 C527 1.511 . S
C525 C521 1.376 . S
C525 C524 1.392 . S
C525 H537 0.929 . S
C526 C522 1.531 . S
C526 H538 0.960 . S
C526 H539 0.962 . S
C526 H540 0.960 . S
C527 C524 1.511 . S
C527 H541 0.961 . S
C527 H542 0.961 . S
C527 H543 0.961 . S
C528 C529 1.370 . S
C528 C530 1.363 . S
C528 H544 0.931 . S
C529 C528 1.370 . S
C529 C533 1.408 . S
C530 C528 1.363 . S
C530 C531 1.370 . S
C530 C534 1.524 . S
C531 C523 1.503 . S
C531 C530 1.370 . S
C531 C532 1.403 . S
C532 C531 1.403 . S
C532 C533 1.404 . S
C532 C535 1.539 . S
C533 C529 1.408 . S
C533 C532 1.404 . S
C533 H545 0.930 . S
C534 C530 1.524 . S
C534 H546 0.956 . S
C534 H547 0.961 . S
C534 H548 0.961 . S
C535 C532 1.539 . S
C535 H549 0.958 . S
C535 H550 0.961 . S
C535 H551 0.960 . S
H536 C520 0.931 . S
H537 C525 0.929 . S
H538 C526 0.960 . S
H539 C526 0.962 . S
H540 C526 0.960 . S
H541 C527 0.961 . S
H542 C527 0.961 . S
H543 C527 0.961 . S
H544 C528 0.931 . S
H545 C533 0.930 . S
H546 C534 0.956 . S
H547 C534 0.961 . S
H548 C534 0.961 . S
H549 C535 0.958 . S
H550 C535 0.961 . S
H551 C535 0.960 . S
C552 C553 1.391 . S
C552 C554 1.394 . S
C552 H568 0.931 . S
C553 C552 1.391 . S
C553 C557 1.376 . S
C554 C552 1.394 . S
C554 C555 1.369 . S
C554 C558 1.531 . S
C555 C554 1.369 . S
C555 C556 1.410 . S
C555 C563 1.503 . S
C556 C555 1.410 . S
C556 C557 1.392 . S
C556 C559 1.511 . S
C557 C553 1.376 . S
C557 C556 1.392 . S
C557 H569 0.929 . S
C558 C554 1.531 . S
C558 H570 0.960 . S
C558 H571 0.962 . S
C558 H572 0.960 . S
C559 C556 1.511 . S
C559 H573 0.961 . S
C559 H574 0.961 . S
C559 H575 0.961 . S
C560 C561 1.370 . S
C560 C562 1.363 . S
C560 H576 0.931 . S
C561 C560 1.370 . S
C561 C565 1.408 . S
C562 C560 1.363 . S
C562 C563 1.370 . S
C562 C566 1.524 . S
C563 C555 1.503 . S
C563 C562 1.370 . S
C563 C564 1.403 . S
C564 C563 1.403 . S
C564 C565 1.404 . S
C564 C567 1.539 . S
C565 C561 1.408 . S
C565 C564 1.404 . S
C565 H577 0.930 . S
C566 C562 1.524 . S
C566 H578 0.956 . S
C566 H579 0.961 . S
C566 H580 0.961 . S
C567 C564 1.539 . S
C567 H581 0.958 . S
C567 H582 0.961 . S
C567 H583 0.960 . S
H568 C552 0.931 . S
H569 C557 0.929 . S
H570 C558 0.960 . S
H571 C558 0.962 . S
H572 C558 0.960 . S
H573 C559 0.961 . S
H574 C559 0.961 . S
H575 C559 0.961 . S
H576 C560 0.931 . S
H577 C565 0.930 . S
H578 C566 0.956 . S
H579 C566 0.961 . S
H580 C566 0.961 . S
H581 C567 0.958 . S
H582 C567 0.961 . S
H583 C567 0.960 . S
C584 C585 1.391 . S
C584 C586 1.394 . S
C584 H600 0.931 . S
C585 C584 1.391 . S
C585 C589 1.376 . S
C586 C584 1.394 . S
C586 C587 1.369 . S
C586 C590 1.531 . S
C587 C586 1.369 . S
C587 C588 1.410 . S
C587 C595 1.503 . S
C588 C587 1.410 . S
C588 C589 1.392 . S
C588 C591 1.511 . S
C589 C585 1.376 . S
C589 C588 1.392 . S
C589 H601 0.929 . S
C590 C586 1.531 . S
C590 H602 0.960 . S
C590 H603 0.962 . S
C590 H604 0.960 . S
C591 C588 1.511 . S
C591 H605 0.961 . S
C591 H606 0.961 . S
C591 H607 0.961 . S
C592 C593 1.370 . S
C592 C594 1.363 . S
C592 H608 0.931 . S
C593 C592 1.370 . S
C593 C597 1.408 . S
C594 C592 1.363 . S
C594 C595 1.370 . S
C594 C598 1.524 . S
C595 C587 1.503 . S
C595 C594 1.370 . S
C595 C596 1.403 . S
C596 C595 1.403 . S
C596 C597 1.404 . S
C596 C599 1.539 . S
C597 C593 1.408 . S
C597 C596 1.404 . S
C597 H609 0.930 . S
C598 C594 1.524 . S
C598 H610 0.956 . S
C598 H611 0.961 . S
C598 H612 0.961 . S
C599 C596 1.539 . S
C599 H613 0.958 . S
C599 H614 0.961 . S
C599 H615 0.960 . S
H600 C584 0.931 . S
H601 C589 0.929 . S
H602 C590 0.960 . S
H603 C590 0.962 . S
H604 C590 0.960 . S
H605 C591 0.961 . S
H606 C591 0.961 . S
H607 C591 0.961 . S
H608 C592 0.931 . S
H609 C597 0.930 . S
H610 C598 0.956 . S
H611 C598 0.961 . S
H612 C598 0.961 . S
H613 C599 0.958 . S
H614 C599 0.961 . S
H615 C599 0.960 . S
C616 C617 1.391 . S
C616 C618 1.394 . S
C616 H632 0.931 . S
C617 C616 1.391 . S
C617 C621 1.376 . S
C618 C616 1.394 . S
C618 C619 1.369 . S
C618 C622 1.531 . S
C619 C618 1.369 . S
C619 C620 1.410 . S
C619 C627 1.503 . S
C620 C619 1.410 . S
C620 C621 1.392 . S
C620 C623 1.511 . S
C621 C617 1.376 . S
C621 C620 1.392 . S
C621 H633 0.929 . S
C622 C618 1.531 . S
C622 H634 0.960 . S
C622 H635 0.962 . S
C622 H636 0.960 . S
C623 C620 1.511 . S
C623 H637 0.961 . S
C623 H638 0.961 . S
C623 H639 0.961 . S
C624 C625 1.370 . S
C624 C626 1.363 . S
C624 H640 0.931 . S
C625 C624 1.370 . S
C625 C629 1.408 . S
C626 C624 1.363 . S
C626 C627 1.370 . S
C626 C630 1.524 . S
C627 C619 1.503 . S
C627 C626 1.370 . S
C627 C628 1.403 . S
C628 C627 1.403 . S
C628 C629 1.404 . S
C628 C631 1.539 . S
C629 C625 1.408 . S
C629 C628 1.404 . S
C629 H641 0.930 . S
C630 C626 1.524 . S
C630 H642 0.956 . S
C630 H643 0.961 . S
C630 H644 0.961 . S
C631 C628 1.539 . S
C631 H645 0.958 . S
C631 H646 0.961 . S
C631 H647 0.960 . S
H632 C616 0.931 . S
H633 C621 0.929 . S
H634 C622 0.960 . S
H635 C622 0.962 . S
H636 C622 0.960 . S
H637 C623 0.961 . S
H638 C623 0.961 . S
H639 C623 0.961 . S
H640 C624 0.931 . S
H641 C629 0.930 . S
H642 C630 0.956 . S
H643 C630 0.961 . S
H644 C630 0.961 . S
H645 C631 0.958 . S
H646 C631 0.961 . S
H647 C631 0.960 . S
C648 C649 1.391 . S
C648 C650 1.394 . S
C648 H664 0.931 . S
C649 C648 1.391 . S
C649 C653 1.376 . S
C650 C648 1.394 . S
C650 C651 1.369 . S
C650 C654 1.531 . S
C651 C650 1.369 . S
C651 C652 1.410 . S
C651 C659 1.503 . S
C652 C651 1.410 . S
C652 C653 1.392 . S
C652 C655 1.511 . S
C653 C649 1.376 . S
C653 C652 1.392 . S
C653 H665 0.929 . S
C654 C650 1.531 . S
C654 H666 0.960 . S
C654 H667 0.962 . S
C654 H668 0.960 . S
C655 C652 1.511 . S
C655 H669 0.961 . S
C655 H670 0.961 . S
C655 H671 0.961 . S
C656 C657 1.370 . S
C656 C658 1.363 . S
C656 H672 0.931 . S
C657 C656 1.370 . S
C657 C661 1.408 . S
C658 C656 1.363 . S
C658 C659 1.370 . S
C658 C662 1.524 . S
C659 C651 1.503 . S
C659 C658 1.370 . S
C659 C660 1.403 . S
C660 C659 1.403 . S
C660 C661 1.404 . S
C660 C663 1.539 . S
C661 C657 1.408 . S
C661 C660 1.404 . S
C661 H673 0.930 . S
C662 C658 1.524 . S
C662 H674 0.956 . S
C662 H675 0.961 . S
C662 H676 0.959 1_554 S
C663 C660 1.539 . S
C663 H677 0.958 . S
C663 H678 0.961 . S
C663 H679 0.960 . S
H664 C648 0.931 . S
H665 C653 0.929 . S
H666 C654 0.960 . S
H667 C654 0.962 . S
H668 C654 0.960 . S
H669 C655 0.961 . S
H670 C655 0.961 . S
H671 C655 0.961 . S
H672 C656 0.931 . S
H673 C661 0.930 . S
H674 C662 0.956 . S
H675 C662 0.961 . S
H676 C662 0.959 1_556 S
H677 C663 0.958 . S
H678 C663 0.961 . S
H679 C663 0.960 . S
C680 C681 1.391 . S
C680 C682 1.394 . S
C680 H696 0.931 . S
C681 C680 1.391 . S
C681 C685 1.376 . S
C682 C680 1.394 . S
C682 C683 1.369 . S
C682 C686 1.531 . S
C683 C682 1.369 . S
C683 C684 1.410 . S
C683 C691 1.503 . S
C684 C683 1.410 . S
C684 C685 1.392 . S
C684 C687 1.511 . S
C685 C681 1.376 . S
C685 C684 1.392 . S
C685 H697 0.929 . S
C686 C682 1.531 . S
C686 H698 0.960 . S
C686 H699 0.962 . S
C686 H700 0.960 . S
C687 C684 1.511 . S
C687 H701 0.961 . S
C687 H702 0.961 . S
C687 H703 0.961 . S
C688 C689 1.370 . S
C688 C690 1.363 . S
C688 H704 0.931 . S
C689 C688 1.370 . S
C689 C693 1.408 . S
C690 C688 1.363 . S
C690 C691 1.370 . S
C690 C694 1.524 . S
C691 C683 1.503 . S
C691 C690 1.370 . S
C691 C692 1.403 . S
C692 C691 1.403 . S
C692 C693 1.404 . S
C692 C695 1.539 . S
C693 C689 1.408 . S
C693 C692 1.404 . S
C693 H705 0.930 . S
C694 C690 1.524 . S
C694 H706 0.956 . S
C694 H707 0.961 . S
C694 H708 0.961 . S
C695 C692 1.539 . S
C695 H709 0.958 . S
C695 H710 0.961 . S
C695 H711 0.960 . S
H696 C680 0.931 . S
H697 C685 0.929 . S
H698 C686 0.960 . S
H699 C686 0.962 . S
H700 C686 0.960 . S
H701 C687 0.961 . S
H702 C687 0.961 . S
H703 C687 0.961 . S
H704 C688 0.931 . S
H705 C693 0.930 . S
H706 C694 0.956 . S
H707 C694 0.961 . S
H708 C694 0.961 . S
H709 C695 0.958 . S
H710 C695 0.961 . S
H711 C695 0.960 . S
C712 C713 1.391 . S
C712 C714 1.394 . S
C712 H728 0.931 . S
C713 C712 1.391 . S
C713 C717 1.376 . S
C714 C712 1.394 . S
C714 C715 1.369 . S
C714 C718 1.531 . S
C715 C714 1.369 . S
C715 C716 1.410 . S
C715 C723 1.503 . S
C716 C715 1.410 . S
C716 C717 1.392 . S
C716 C719 1.511 . S
C717 C713 1.376 . S
C717 C716 1.392 . S
C717 H729 0.929 . S
C718 C714 1.531 . S
C718 H730 0.960 . S
C718 H731 0.962 . S
C718 H732 0.960 . S
C719 C716 1.511 . S
C719 H733 0.961 . S
C719 H734 0.961 . S
C719 H735 0.961 . S
C720 C721 1.370 . S
C720 C722 1.363 . S
C720 H736 0.931 . S
C721 C720 1.370 . S
C721 C725 1.408 . S
C722 C720 1.363 . S
C722 C723 1.370 . S
C722 C726 1.524 . S
C723 C715 1.503 . S
C723 C722 1.370 . S
C723 C724 1.403 . S
C724 C723 1.403 . S
C724 C725 1.404 . S
C724 C727 1.539 . S
C725 C721 1.408 . S
C725 C724 1.404 . S
C725 H737 0.930 . S
C726 C722 1.524 . S
C726 H738 0.956 . S
C726 H739 0.961 . S
C726 H740 0.961 . S
C727 C724 1.539 . S
C727 H741 0.958 . S
C727 H742 0.961 . S
C727 H743 0.960 . S
H728 C712 0.931 . S
H729 C717 0.929 . S
H730 C718 0.960 . S
H731 C718 0.962 . S
H732 C718 0.960 . S
H733 C719 0.961 . S
H734 C719 0.961 . S
H735 C719 0.961 . S
H736 C720 0.931 . S
H737 C725 0.930 . S
H738 C726 0.956 . S
H739 C726 0.961 . S
H740 C726 0.961 . S
H741 C727 0.958 . S
H742 C727 0.961 . S
H743 C727 0.960 . S
C744 C745 1.391 . S
C744 C746 1.394 . S
C744 H760 0.931 . S
C745 C744 1.391 . S
C745 C749 1.376 . S
C746 C744 1.394 . S
C746 C747 1.369 . S
C746 C750 1.531 . S
C747 C746 1.369 . S
C747 C748 1.410 . S
C747 C755 1.503 . S
C748 C747 1.410 . S
C748 C749 1.392 . S
C748 C751 1.511 . S
C749 C745 1.376 . S
C749 C748 1.392 . S
C749 H761 0.929 . S
C750 C746 1.531 . S
C750 H762 0.960 . S
C750 H763 0.962 . S
C750 H764 0.960 . S
C751 C748 1.511 . S
C751 H765 0.961 . S
C751 H766 0.961 . S
C751 H767 0.961 . S
C752 C753 1.370 . S
C752 C754 1.363 . S
C752 H768 0.931 . S
C753 C752 1.370 . S
C753 C757 1.408 . S
C754 C752 1.363 . S
C754 C755 1.370 . S
C754 C758 1.524 . S
C755 C747 1.503 . S
C755 C754 1.370 . S
C755 C756 1.403 . S
C756 C755 1.403 . S
C756 C757 1.404 . S
C756 C759 1.539 . S
C757 C753 1.408 . S
C757 C756 1.404 . S
C757 H769 0.930 . S
C758 C754 1.524 . S
C758 H770 0.956 . S
C758 H771 0.961 . S
C758 H772 0.961 . S
C759 C756 1.539 . S
C759 H773 0.958 . S
C759 H774 0.961 . S
C759 H775 0.960 . S
H760 C744 0.931 . S
H761 C749 0.929 . S
H762 C750 0.960 . S
H763 C750 0.962 . S
H764 C750 0.960 . S
H765 C751 0.961 . S
H766 C751 0.961 . S
H767 C751 0.961 . S
H768 C752 0.931 . S
H769 C757 0.930 . S
H770 C758 0.956 . S
H771 C758 0.961 . S
H772 C758 0.961 . S
H773 C759 0.958 . S
H774 C759 0.961 . S
H775 C759 0.960 . S
C776 C777 1.391 . S
C776 C778 1.394 . S
C776 H792 0.931 . S
C777 C776 1.391 . S
C777 C781 1.376 . S
C778 C776 1.394 . S
C778 C779 1.369 . S
C778 C782 1.531 . S
C779 C778 1.369 . S
C779 C780 1.410 . S
C779 C787 1.503 . S
C780 C779 1.410 . S
C780 C781 1.392 . S
C780 C783 1.511 . S
C781 C777 1.376 . S
C781 C780 1.392 . S
C781 H793 0.929 . S
C782 C778 1.531 . S
C782 H794 0.960 . S
C782 H795 0.962 . S
C782 H796 0.960 . S
C783 C780 1.511 . S
C783 H797 0.961 . S
C783 H798 0.961 . S
C783 H799 0.961 . S
C784 C785 1.370 . S
C784 C786 1.363 . S
C784 H800 0.931 . S
C785 C784 1.370 . S
C785 C789 1.408 . S
C786 C784 1.363 . S
C786 C787 1.370 . S
C786 C790 1.524 . S
C787 C779 1.503 . S
C787 C786 1.370 . S
C787 C788 1.403 . S
C788 C787 1.403 . S
C788 C789 1.404 . S
C788 C791 1.539 . S
C789 C785 1.408 . S
C789 C788 1.404 . S
C789 H801 0.930 . S
C790 C786 1.524 . S
C790 H802 0.956 . S
C790 H803 0.961 . S
C790 H804 0.961 . S
C791 C788 1.539 . S
C791 H805 0.958 . S
C791 H806 0.961 . S
C791 H807 0.960 . S
H792 C776 0.931 . S
H793 C781 0.929 . S
H794 C782 0.960 . S
H795 C782 0.962 . S
H796 C782 0.960 . S
H797 C783 0.961 . S
H798 C783 0.961 . S
H799 C783 0.961 . S
H800 C784 0.931 . S
H801 C789 0.930 . S
H802 C790 0.956 . S
H803 C790 0.961 . S
H804 C790 0.961 . S
H805 C791 0.958 . S
H806 C791 0.961 . S
H807 C791 0.960 . S
C808 C809 1.391 . S
C808 C810 1.394 . S
C808 H824 0.931 . S
C809 C808 1.391 . S
C809 C813 1.376 . S
C810 C808 1.394 . S
C810 C811 1.369 . S
C810 C814 1.531 . S
C811 C810 1.369 . S
C811 C812 1.410 . S
C811 C819 1.503 . S
C812 C811 1.410 . S
C812 C813 1.392 . S
C812 C815 1.511 . S
C813 C809 1.376 . S
C813 C812 1.392 . S
C813 H825 0.929 . S
C814 C810 1.531 . S
C814 H826 0.960 . S
C814 H827 0.962 . S
C814 H828 0.960 . S
C815 C812 1.511 . S
C815 H829 0.961 . S
C815 H830 0.961 . S
C815 H831 0.961 . S
C816 C817 1.370 . S
C816 C818 1.363 . S
C816 H832 0.931 . S
C817 C816 1.370 . S
C817 C821 1.408 . S
C818 C816 1.363 . S
C818 C819 1.370 . S
C818 C822 1.524 . S
C819 C811 1.503 . S
C819 C818 1.370 . S
C819 C820 1.403 . S
C820 C819 1.403 . S
C820 C821 1.404 . S
C820 C823 1.539 . S
C821 C817 1.408 . S
C821 C820 1.404 . S
C821 H833 0.930 . S
C822 C818 1.524 . S
C822 H834 0.956 . S
C822 H835 0.961 . S
C822 H836 0.961 . S
C823 C820 1.539 . S
C823 H837 0.958 . S
C823 H838 0.961 . S
C823 H839 0.960 . S
H824 C808 0.931 . S
H825 C813 0.929 . S
H826 C814 0.960 . S
H827 C814 0.962 . S
H828 C814 0.960 . S
H829 C815 0.961 . S
H830 C815 0.961 . S
H831 C815 0.961 . S
H832 C816 0.931 . S
H833 C821 0.930 . S
H834 C822 0.956 . S
H835 C822 0.961 . S
H836 C822 0.961 . S
H837 C823 0.958 . S
H838 C823 0.961 . S
H839 C823 0.960 . S
C840 C841 1.391 . S
C840 C842 1.394 . S
C840 H856 0.931 . S
C841 C840 1.391 . S
C841 C845 1.376 . S
C842 C840 1.394 . S
C842 C843 1.369 . S
C842 C846 1.531 . S
C843 C842 1.369 . S
C843 C844 1.410 . S
C843 C851 1.503 . S
C844 C843 1.410 . S
C844 C845 1.392 . S
C844 C847 1.511 . S
C845 C841 1.376 . S
C845 C844 1.392 . S
C845 H857 0.929 . S
C846 C842 1.531 . S
C846 H858 0.960 1_556 S
C846 H859 0.962 . S
C846 H860 0.960 . S
C847 C844 1.511 . S
C847 H861 0.961 . S
C847 H862 0.961 . S
C847 H863 0.961 . S
C848 C849 1.370 . S
C848 C850 1.363 1_554 S
C848 H864 0.931 . S
C849 C848 1.370 . S
C849 C853 1.408 . S
C850 C848 1.363 1_556 S
C850 C851 1.370 . S
C850 C854 1.524 . S
C851 C843 1.503 . S
C851 C850 1.370 . S
C851 C852 1.403 . S
C852 C851 1.403 . S
C852 C853 1.404 1_556 S
C852 C855 1.539 . S
C853 C849 1.408 . S
C853 C852 1.404 1_554 S
C853 H865 0.930 . S
C854 C850 1.524 . S
C854 H866 0.956 . S
C854 H867 0.961 . S
C854 H868 0.961 . S
C855 C852 1.539 . S
C855 H869 0.958 1_556 S
C855 H870 0.961 . S
C855 H871 0.960 . S
H856 C840 0.931 . S
H857 C845 0.929 . S
H858 C846 0.960 1_554 S
H859 C846 0.962 . S
H860 C846 0.960 . S
H861 C847 0.961 . S
H862 C847 0.961 . S
H863 C847 0.961 . S
H864 C848 0.931 . S
H865 C853 0.930 . S
H866 C854 0.956 . S
H867 C854 0.961 . S
H868 C854 0.961 . S
H869 C855 0.958 1_554 S
H870 C855 0.961 . S
H871 C855 0.960 . S
C872 C873 1.391 . S
C872 C874 1.394 . S
C872 H888 0.931 . S
C873 C872 1.391 . S
C873 C877 1.376 . S
C874 C872 1.394 . S
C874 C875 1.369 . S
C874 C878 1.531 . S
C875 C874 1.369 . S
C875 C876 1.410 . S
C875 C883 1.503 . S
C876 C875 1.410 . S
C876 C877 1.392 . S
C876 C879 1.511 . S
C877 C873 1.376 . S
C877 C876 1.392 . S
C877 H889 0.929 . S
C878 C874 1.531 . S
C878 H890 0.960 . S
C878 H891 0.962 . S
C878 H892 0.960 . S
C879 C876 1.511 . S
C879 H893 0.961 . S
C879 H894 0.961 . S
C879 H895 0.961 . S
C880 C881 1.370 . S
C880 C882 1.363 . S
C880 H896 0.931 . S
C881 C880 1.370 . S
C881 C885 1.408 . S
C882 C880 1.363 . S
C882 C883 1.370 . S
C882 C886 1.524 . S
C883 C875 1.503 . S
C883 C882 1.370 . S
C883 C884 1.403 . S
C884 C883 1.403 . S
C884 C885 1.404 . S
C884 C887 1.539 . S
C885 C881 1.408 . S
C885 C884 1.404 . S
C885 H897 0.930 . S
C886 C882 1.524 . S
C886 H898 0.956 . S
C886 H899 0.961 . S
C886 H900 0.961 . S
C887 C884 1.539 . S
C887 H901 0.958 . S
C887 H902 0.961 . S
C887 H903 0.960 . S
H888 C872 0.931 . S
H889 C877 0.929 . S
H890 C878 0.960 . S
H891 C878 0.962 . S
H892 C878 0.960 . S
H893 C879 0.961 . S
H894 C879 0.961 . S
H895 C879 0.961 . S
H896 C880 0.931 . S
H897 C885 0.930 . S
H898 C886 0.956 . S
H899 C886 0.961 . S
H900 C886 0.961 . S
H901 C887 0.958 . S
H902 C887 0.961 . S
H903 C887 0.960 . S
C904 C905 1.391 . S
C904 C906 1.394 . S
C904 H920 0.931 . S
C905 C904 1.391 . S
C905 C909 1.376 . S
C906 C904 1.394 . S
C906 C907 1.369 . S
C906 C910 1.531 . S
C907 C906 1.369 . S
C907 C908 1.410 . S
C907 C915 1.503 . S
C908 C907 1.410 . S
C908 C909 1.392 . S
C908 C911 1.511 . S
C909 C905 1.376 . S
C909 C908 1.392 . S
C909 H921 0.929 . S
C910 C906 1.531 . S
C910 H922 0.960 . S
C910 H923 0.962 . S
C910 H924 0.960 . S
C911 C908 1.511 . S
C911 H925 0.961 . S
C911 H926 0.961 . S
C911 H927 0.961 . S
C912 C913 1.370 . S
C912 C914 1.363 . S
C912 H928 0.931 . S
C913 C912 1.370 . S
C913 C917 1.408 . S
C914 C912 1.363 . S
C914 C915 1.370 . S
C914 C918 1.524 . S
C915 C907 1.503 . S
C915 C914 1.370 . S
C915 C916 1.403 . S
C916 C915 1.403 . S
C916 C917 1.404 . S
C916 C919 1.539 . S
C917 C913 1.408 . S
C917 C916 1.404 . S
C917 H929 0.930 . S
C918 C914 1.524 . S
C918 H930 0.956 . S
C918 H931 0.961 . S
C918 H932 0.961 . S
C919 C916 1.539 . S
C919 H933 0.958 . S
C919 H934 0.961 . S
C919 H935 0.960 . S
H920 C904 0.931 . S
H921 C909 0.929 . S
H922 C910 0.960 . S
H923 C910 0.962 . S
H924 C910 0.960 . S
H925 C911 0.961 . S
H926 C911 0.961 . S
H927 C911 0.961 . S
H928 C912 0.931 . S
H929 C917 0.930 . S
H930 C918 0.956 . S
H931 C918 0.961 . S
H932 C918 0.961 . S
H933 C919 0.958 . S
H934 C919 0.961 . S
H935 C919 0.960 . S
C936 C937 1.391 . S
C936 C938 1.394 . S
C936 H952 0.931 . S
C937 C936 1.391 . S
C937 C941 1.376 . S
C938 C936 1.394 . S
C938 C939 1.369 . S
C938 C942 1.531 . S
C939 C938 1.369 . S
C939 C940 1.410 . S
C939 C947 1.503 . S
C940 C939 1.410 . S
C940 C941 1.392 . S
C940 C943 1.511 . S
C941 C937 1.376 . S
C941 C940 1.392 . S
C941 H953 0.929 . S
C942 C938 1.531 . S
C942 H954 0.960 . S
C942 H955 0.962 . S
C942 H956 0.960 . S
C943 C940 1.511 . S
C943 H957 0.961 . S
C943 H958 0.961 . S
C943 H959 0.961 . S
C944 C945 1.370 . S
C944 C946 1.363 . S
C944 H960 0.931 . S
C945 C944 1.370 . S
C945 C949 1.408 . S
C946 C944 1.363 . S
C946 C947 1.370 . S
C946 C950 1.524 . S
C947 C939 1.503 . S
C947 C946 1.370 . S
C947 C948 1.403 . S
C948 C947 1.403 . S
C948 C949 1.404 . S
C948 C951 1.539 . S
C949 C945 1.408 . S
C949 C948 1.404 . S
C949 H961 0.930 . S
C950 C946 1.524 . S
C950 H962 0.956 . S
C950 H963 0.961 . S
C950 H964 0.961 . S
C951 C948 1.539 . S
C951 H965 0.958 . S
C951 H966 0.961 . S
C951 H967 0.960 . S
H952 C936 0.931 . S
H953 C941 0.929 . S
H954 C942 0.960 . S
H955 C942 0.962 . S
H956 C942 0.960 . S
H957 C943 0.961 . S
H958 C943 0.961 . S
H959 C943 0.961 . S
H960 C944 0.931 . S
H961 C949 0.930 . S
H962 C950 0.956 . S
H963 C950 0.961 . S
H964 C950 0.961 . S
H965 C951 0.958 . S
H966 C951 0.961 . S
H967 C951 0.960 . S
C968 C969 1.391 . S
C968 C970 1.394 . S
C968 H984 0.931 . S
C969 C968 1.391 . S
C969 C973 1.376 . S
C970 C968 1.394 . S
C970 C971 1.369 . S
C970 C974 1.531 . S
C971 C970 1.369 . S
C971 C972 1.410 . S
C971 C979 1.503 . S
C972 C971 1.410 . S
C972 C973 1.392 . S
C972 C975 1.511 . S
C973 C969 1.376 . S
C973 C972 1.392 . S
C973 H985 0.929 . S
C974 C970 1.531 . S
C974 H986 0.960 . S
C974 H987 0.962 . S
C974 H988 0.960 . S
C975 C972 1.511 . S
C975 H989 0.961 . S
C975 H990 0.961 . S
C975 H991 0.961 . S
C976 C977 1.370 . S
C976 C978 1.363 . S
C976 H992 0.931 . S
C977 C976 1.370 . S
C977 C981 1.408 . S
C978 C976 1.363 . S
C978 C979 1.370 . S
C978 C982 1.524 . S
C979 C971 1.503 . S
C979 C978 1.370 . S
C979 C980 1.403 . S
C980 C979 1.403 . S
C980 C981 1.404 . S
C980 C983 1.539 . S
C981 C977 1.408 . S
C981 C980 1.404 . S
C981 H993 0.930 . S
C982 C978 1.524 . S
C982 H994 0.956 . S
C982 H995 0.961 . S
C982 H996 0.961 . S
C983 C980 1.539 . S
C983 H997 0.958 . S
C983 H998 0.961 . S
C983 H999 0.960 . S
H984 C968 0.931 . S
H985 C973 0.929 . S
H986 C974 0.960 . S
H987 C974 0.962 . S
H988 C974 0.960 . S
H989 C975 0.961 . S
H990 C975 0.961 . S
H991 C975 0.961 . S
H992 C976 0.931 . S
H993 C981 0.930 . S
H994 C982 0.956 . S
H995 C982 0.961 . S
H996 C982 0.961 . S
H997 C983 0.958 . S
H998 C983 0.961 . S
H999 C983 0.960 . S
C1000 C1001 1.391 . S
C1000 C1002 1.394 . S
C1000 H1016 0.931 . S
C1001 C1000 1.391 . S
C1001 C1005 1.376 . S
C1002 C1000 1.394 . S
C1002 C1003 1.369 . S
C1002 C1006 1.531 . S
C1003 C1002 1.369 . S
C1003 C1004 1.410 . S
C1003 C1011 1.503 . S
C1004 C1003 1.410 . S
C1004 C1005 1.392 . S
C1004 C1007 1.511 . S
C1005 C1001 1.376 . S
C1005 C1004 1.392 . S
C1005 H1017 0.929 . S
C1006 C1002 1.531 . S
C1006 H1018 0.960 . S
C1006 H1019 0.962 . S
C1006 H1020 0.960 . S
C1007 C1004 1.511 . S
C1007 H1021 0.961 . S
C1007 H1022 0.961 . S
C1007 H1023 0.961 . S
C1008 C1009 1.370 . S
C1008 C1010 1.363 . S
C1008 H1024 0.931 . S
C1009 C1008 1.370 . S
C1009 C1013 1.408 . S
C1010 C1008 1.363 . S
C1010 C1011 1.370 . S
C1010 C1014 1.524 . S
C1011 C1003 1.503 . S
C1011 C1010 1.370 . S
C1011 C1012 1.403 . S
C1012 C1011 1.403 . S
C1012 C1013 1.404 . S
C1012 C1015 1.539 . S
C1013 C1009 1.408 . S
C1013 C1012 1.404 . S
C1013 H1025 0.930 . S
C1014 C1010 1.524 . S
C1014 H1026 0.956 . S
C1014 H1027 0.961 . S
C1014 H1028 0.961 . S
C1015 C1012 1.539 . S
C1015 H1029 0.958 . S
C1015 H1030 0.961 . S
C1015 H1031 0.960 . S
H1016 C1000 0.931 . S
H1017 C1005 0.929 . S
H1018 C1006 0.960 . S
H1019 C1006 0.962 . S
H1020 C1006 0.960 . S
H1021 C1007 0.961 . S
H1022 C1007 0.961 . S
H1023 C1007 0.961 . S
H1024 C1008 0.931 . S
H1025 C1013 0.930 . S
H1026 C1014 0.956 . S
H1027 C1014 0.961 . S
H1028 C1014 0.961 . S
H1029 C1015 0.958 . S
H1030 C1015 0.961 . S
H1031 C1015 0.960 . S
C1032 C1033 1.391 . S
C1032 C1034 1.394 . S
C1032 H1048 0.931 . S
C1033 C1032 1.391 . S
C1033 C1037 1.376 . S
C1034 C1032 1.394 . S
C1034 C1035 1.369 . S
C1034 C1038 1.531 . S
C1035 C1034 1.369 . S
C1035 C1036 1.410 . S
C1035 C1043 1.503 . S
C1036 C1035 1.410 . S
C1036 C1037 1.392 . S
C1036 C1039 1.511 . S
C1037 C1033 1.376 . S
C1037 C1036 1.392 . S
C1037 H1049 0.929 . S
C1038 C1034 1.531 . S
C1038 H1050 0.960 . S
C1038 H1051 0.962 . S
C1038 H1052 0.960 . S
C1039 C1036 1.511 . S
C1039 H1053 0.961 . S
C1039 H1054 0.961 . S
C1039 H1055 0.961 . S
C1040 C1041 1.370 . S
C1040 C1042 1.363 . S
C1040 H1056 0.931 . S
C1041 C1040 1.370 . S
C1041 C1045 1.408 . S
C1042 C1040 1.363 . S
C1042 C1043 1.370 . S
C1042 C1046 1.524 . S
C1043 C1035 1.503 . S
C1043 C1042 1.370 . S
C1043 C1044 1.403 . S
C1044 C1043 1.403 . S
C1044 C1045 1.404 . S
C1044 C1047 1.539 . S
C1045 C1041 1.408 . S
C1045 C1044 1.404 . S
C1045 H1057 0.930 . S
C1046 C1042 1.524 . S
C1046 H1058 0.956 . S
C1046 H1059 0.961 . S
C1046 H1060 0.961 . S
C1047 C1044 1.539 . S
C1047 H1061 0.958 . S
C1047 H1062 0.961 . S
C1047 H1063 0.960 . S
H1048 C1032 0.931 . S
H1049 C1037 0.929 . S
H1050 C1038 0.960 . S
H1051 C1038 0.962 . S
H1052 C1038 0.960 . S
H1053 C1039 0.961 . S
H1054 C1039 0.961 . S
H1055 C1039 0.961 . S
H1056 C1040 0.931 . S
H1057 C1045 0.930 . S
H1058 C1046 0.956 . S
H1059 C1046 0.961 . S
H1060 C1046 0.961 . S
H1061 C1047 0.958 . S
H1062 C1047 0.961 . S
H1063 C1047 0.960 . S
C1064 C1065 1.391 . S
C1064 C1066 1.394 . S
C1064 H1080 0.931 . S
C1065 C1064 1.391 . S
C1065 C1069 1.376 . S
C1066 C1064 1.394 . S
C1066 C1067 1.369 . S
C1066 C1070 1.531 . S
C1067 C1066 1.369 . S
C1067 C1068 1.410 . S
C1067 C1075 1.503 1_554 S
C1068 C1067 1.410 . S
C1068 C1069 1.392 . S
C1068 C1071 1.511 1_554 S
C1069 C1065 1.376 . S
C1069 C1068 1.392 . S
C1069 H1081 0.929 . S
C1070 C1066 1.531 . S
C1070 H1082 0.960 . S
C1070 H1083 0.962 . S
C1070 H1084 0.960 . S
C1071 C1068 1.511 1_556 S
C1071 H1085 0.961 . S
C1071 H1086 0.961 . S
C1071 H1087 0.961 . S
C1072 C1073 1.370 . S
C1072 C1074 1.363 . S
C1072 H1088 0.931 . S
C1073 C1072 1.370 . S
C1073 C1077 1.408 . S
C1074 C1072 1.363 . S
C1074 C1075 1.370 . S
C1074 C1078 1.524 . S
C1075 C1067 1.503 1_556 S
C1075 C1074 1.370 . S
C1075 C1076 1.403 . S
C1076 C1075 1.403 . S
C1076 C1077 1.404 . S
C1076 C1079 1.539 1_556 S
C1077 C1073 1.408 . S
C1077 C1076 1.404 . S
C1077 H1089 0.930 . S
C1078 C1074 1.524 . S
C1078 H1090 0.956 1_556 S
C1078 H1091 0.961 . S
C1078 H1092 0.961 . S
C1079 C1076 1.539 1_554 S
C1079 H1093 0.958 . S
C1079 H1094 0.961 1_554 S
C1079 H1095 0.960 . S
H1080 C1064 0.931 . S
H1081 C1069 0.929 . S
H1082 C1070 0.960 . S
H1083 C1070 0.962 . S
H1084 C1070 0.960 . S
H1085 C1071 0.961 . S
H1086 C1071 0.961 . S
H1087 C1071 0.961 . S
H1088 C1072 0.931 . S
H1089 C1077 0.930 . S
H1090 C1078 0.956 1_554 S
H1091 C1078 0.961 . S
H1092 C1078 0.961 . S
H1093 C1079 0.958 . S
H1094 C1079 0.961 1_556 S
H1095 C1079 0.960 . S
C1096 C1097 1.391 . S
C1096 C1098 1.394 . S
C1096 H1112 0.931 . S
C1097 C1096 1.391 . S
C1097 C1101 1.376 . S
C1098 C1096 1.394 . S
C1098 C1099 1.369 . S
C1098 C1102 1.531 . S
C1099 C1098 1.369 . S
C1099 C1100 1.410 . S
C1099 C1107 1.503 . S
C1100 C1099 1.410 . S
C1100 C1101 1.392 . S
C1100 C1103 1.511 . S
C1101 C1097 1.376 . S
C1101 C1100 1.392 . S
C1101 H1113 0.929 . S
C1102 C1098 1.531 . S
C1102 H1114 0.960 . S
C1102 H1115 0.962 . S
C1102 H1116 0.960 . S
C1103 C1100 1.511 . S
C1103 H1117 0.961 . S
C1103 H1118 0.961 . S
C1103 H1119 0.961 . S
C1104 C1105 1.370 . S
C1104 C1106 1.363 . S
C1104 H1120 0.931 . S
C1105 C1104 1.370 . S
C1105 C1109 1.408 . S
C1106 C1104 1.363 . S
C1106 C1107 1.370 . S
C1106 C1110 1.524 . S
C1107 C1099 1.503 . S
C1107 C1106 1.370 . S
C1107 C1108 1.403 . S
C1108 C1107 1.403 . S
C1108 C1109 1.404 . S
C1108 C1111 1.539 . S
C1109 C1105 1.408 . S
C1109 C1108 1.404 . S
C1109 H1121 0.930 . S
C1110 C1106 1.524 . S
C1110 H1122 0.956 . S
C1110 H1123 0.961 . S
C1110 H1124 0.961 . S
C1111 C1108 1.539 . S
C1111 H1125 0.958 . S
C1111 H1126 0.961 . S
C1111 H1127 0.960 . S
H1112 C1096 0.931 . S
H1113 C1101 0.929 . S
H1114 C1102 0.960 . S
H1115 C1102 0.962 . S
H1116 C1102 0.960 . S
H1117 C1103 0.961 . S
H1118 C1103 0.961 . S
H1119 C1103 0.961 . S
H1120 C1104 0.931 . S
H1121 C1109 0.930 . S
H1122 C1110 0.956 . S
H1123 C1110 0.961 . S
H1124 C1110 0.961 . S
H1125 C1111 0.958 . S
H1126 C1111 0.961 . S
H1127 C1111 0.960 . S
C369 C351 1.296 . S
C361 C15 1.480 . S
C393 C61 1.542 . S
C401 C281 1.319 . S
C425 C114 1.522 . S
C433 C301 1.545 . S
C457 C139 1.466 . S
C465 C315 1.477 . S
C497 C323 1.221 . S
C489 C185 1.510 . S
C521 C245 1.497 . S
C529 C337 1.236 . S
C553 C47 1.562 . S
C561 C295 1.264 . S
C585 C100 1.510 . S
C593 C309 1.245 . S
C617 C153 1.433 . S
C625 C329 1.472 . S
C657 C343 1.522 . S
C649 C199 1.488 . S
C689 C357 1.516 . S
C681 C231 1.492 . S
C721 C287 1.544 . S
C713 C1 1.540 . S
C745 C22 1.423 . S
C753 C294 1.413 . S
C777 C68 1.448 . S
C785 C308 1.424 . S
C817 C330 1.443 . S
C809 C107 1.445 . S
C841 C146 1.447 . S
C849 C344 1.455 . S
C881 C358 1.417 . S
C873 C192 1.404 . S
C913 C288 1.403 . S
C905 C252 1.411 . S
C945 C350 1.424 . S
C937 C54 1.426 . S
C969 C93 1.434 . S
C977 C280 1.419 . S
C1009 C302 1.440 . S
C1001 C160 1.418 . S
C1033 C206 1.435 . S
C1041 C316 1.444 . S
C1065 C238 1.480 . S
C1073 C322 1.471 . S
C1097 C8 1.460 . S
C1105 C336 1.445 . S
