# Generated by pormake.
# Topology ptr, (4,4)-cn, num edge types: 1
# Building blocks:
#     Node 0, Type 0, BuildingBlock: AZAVOO_clean_sbu_0, # of connection points: 4
#     Node 1, Type 0, BuildingBlock: AZAVOO_clean_sbu_0, # of connection points: 4
#     Node 2, Type 0, BuildingBlock: AZAVOO_clean_sbu_0, # of connection points: 4
#     Node 3, Type 0, BuildingBlock: AZAVOO_clean_sbu_0, # of connection points: 4
#     Node 4, Type 0, BuildingBlock: AZAVOO_clean_sbu_0, # of connection points: 4
#     Node 5, Type 0, BuildingBlock: AZAVOO_clean_sbu_0, # of connection points: 4
#     Node 6, Type 0, BuildingBlock: AZAVOO_clean_sbu_0, # of connection points: 4
#     Node 7, Type 0, BuildingBlock: AZAVOO_clean_sbu_0, # of connection points: 4
#     Node 8, Type 0, BuildingBlock: AZAVOO_clean_sbu_0, # of connection points: 4
#     Node 9, Type 0, BuildingBlock: AZAVOO_clean_sbu_0, # of connection points: 4
#     Node 10, Type 0, BuildingBlock: AZAVOO_clean_sbu_0, # of connection points: 4
#     Node 11, Type 0, BuildingBlock: AZAVOO_clean_sbu_0, # of connection points: 4
#     Node 12, Type 0, BuildingBlock: AZAVOO_clean_sbu_0, # of connection points: 4
#     Node 13, Type 0, BuildingBlock: AZAVOO_clean_sbu_0, # of connection points: 4
#     Node 14, Type 0, BuildingBlock: AZAVOO_clean_sbu_0, # of connection points: 4
#     Node 15, Type 0, BuildingBlock: AZAVOO_clean_sbu_0, # of connection points: 4
#     Node 16, Type 0, BuildingBlock: AZAVOO_clean_sbu_0, # of connection points: 4
#     Node 17, Type 0, BuildingBlock: AZAVOO_clean_sbu_0, # of connection points: 4
#     Node 18, Type 1, BuildingBlock: MUDLON_clean_linker_0, # of connection points: 4
#     Node 19, Type 1, BuildingBlock: MUDLON_clean_linker_0, # of connection points: 4
#     Node 20, Type 1, BuildingBlock: MUDLON_clean_linker_0, # of connection points: 4
#     Node 21, Type 1, BuildingBlock: MUDLON_clean_linker_0, # of connection points: 4
#     Node 22, Type 1, BuildingBlock: MUDLON_clean_linker_0, # of connection points: 4
#     Node 23, Type 1, BuildingBlock: MUDLON_clean_linker_0, # of connection points: 4
#     Node 24, Type 1, BuildingBlock: MUDLON_clean_linker_0, # of connection points: 4
#     Node 25, Type 1, BuildingBlock: MUDLON_clean_linker_0, # of connection points: 4
#     Node 26, Type 1, BuildingBlock: MUDLON_clean_linker_0, # of connection points: 4
#     Node 27, Type 1, BuildingBlock: MUDLON_clean_linker_0, # of connection points: 4
#     Node 28, Type 1, BuildingBlock: MUDLON_clean_linker_0, # of connection points: 4
#     Node 29, Type 1, BuildingBlock: MUDLON_clean_linker_0, # of connection points: 4
#     Node 30, Type 1, BuildingBlock: MUDLON_clean_linker_0, # of connection points: 4
#     Node 31, Type 1, BuildingBlock: MUDLON_clean_linker_0, # of connection points: 4
#     Node 32, Type 1, BuildingBlock: MUDLON_clean_linker_0, # of connection points: 4
#     Node 33, Type 1, BuildingBlock: MUDLON_clean_linker_0, # of connection points: 4
#     Node 34, Type 1, BuildingBlock: MUDLON_clean_linker_0, # of connection points: 4
#     Node 35, Type 1, BuildingBlock: MUDLON_clean_linker_0, # of connection points: 4
#     Edge 36, Type (0, 1), BuildingBlock: EZIPEK_clean_linker_0, # of connection points: 2
#     Edge 37, Type (0, 1), BuildingBlock: EZIPEK_clean_linker_0, # of connection points: 2
#     Edge 38, Type (0, 1), BuildingBlock: EZIPEK_clean_linker_0, # of connection points: 2
#     Edge 39, Type (0, 1), BuildingBlock: EZIPEK_clean_linker_0, # of connection points: 2
#     Edge 40, Type (0, 1), BuildingBlock: EZIPEK_clean_linker_0, # of connection points: 2
#     Edge 41, Type (0, 1), BuildingBlock: EZIPEK_clean_linker_0, # of connection points: 2
#     Edge 42, Type (0, 1), BuildingBlock: EZIPEK_clean_linker_0, # of connection points: 2
#     Edge 43, Type (0, 1), BuildingBlock: EZIPEK_clean_linker_0, # of connection points: 2
#     Edge 44, Type (0, 1), BuildingBlock: EZIPEK_clean_linker_0, # of connection points: 2
#     Edge 45, Type (0, 1), BuildingBlock: EZIPEK_clean_linker_0, # of connection points: 2
#     Edge 46, Type (0, 1), BuildingBlock: EZIPEK_clean_linker_0, # of connection points: 2
#     Edge 47, Type (0, 1), BuildingBlock: EZIPEK_clean_linker_0, # of connection points: 2
#     Edge 48, Type (0, 1), BuildingBlock: EZIPEK_clean_linker_0, # of connection points: 2
#     Edge 49, Type (0, 1), BuildingBlock: EZIPEK_clean_linker_0, # of connection points: 2
#     Edge 50, Type (0, 1), BuildingBlock: EZIPEK_clean_linker_0, # of connection points: 2
#     Edge 51, Type (0, 1), BuildingBlock: EZIPEK_clean_linker_0, # of connection points: 2
#     Edge 52, Type (0, 1), BuildingBlock: EZIPEK_clean_linker_0, # of connection points: 2
#     Edge 53, Type (0, 1), BuildingBlock: EZIPEK_clean_linker_0, # of connection points: 2
#     Edge 54, Type (0, 1), BuildingBlock: EZIPEK_clean_linker_0, # of connection points: 2
#     Edge 55, Type (0, 1), BuildingBlock: EZIPEK_clean_linker_0, # of connection points: 2
#     Edge 56, Type (0, 1), BuildingBlock: EZIPEK_clean_linker_0, # of connection points: 2
#     Edge 57, Type (0, 1), BuildingBlock: EZIPEK_clean_linker_0, # of connection points: 2
#     Edge 58, Type (0, 1), BuildingBlock: EZIPEK_clean_linker_0, # of connection points: 2
#     Edge 59, Type (0, 1), BuildingBlock: EZIPEK_clean_linker_0, # of connection points: 2
#     Edge 60, Type (0, 1), BuildingBlock: EZIPEK_clean_linker_0, # of connection points: 2
#     Edge 61, Type (0, 1), BuildingBlock: EZIPEK_clean_linker_0, # of connection points: 2
#     Edge 62, Type (0, 1), BuildingBlock: EZIPEK_clean_linker_0, # of connection points: 2
#     Edge 63, Type (0, 1), BuildingBlock: EZIPEK_clean_linker_0, # of connection points: 2
#     Edge 64, Type (0, 1), BuildingBlock: EZIPEK_clean_linker_0, # of connection points: 2
#     Edge 65, Type (0, 1), BuildingBlock: EZIPEK_clean_linker_0, # of connection points: 2
#     Edge 66, Type (0, 1), BuildingBlock: EZIPEK_clean_linker_0, # of connection points: 2
#     Edge 67, Type (0, 1), BuildingBlock: EZIPEK_clean_linker_0, # of connection points: 2
#     Edge 68, Type (0, 1), BuildingBlock: EZIPEK_clean_linker_0, # of connection points: 2
#     Edge 69, Type (0, 1), BuildingBlock: EZIPEK_clean_linker_0, # of connection points: 2
#     Edge 70, Type (0, 1), BuildingBlock: EZIPEK_clean_linker_0, # of connection points: 2
#     Edge 71, Type (0, 1), BuildingBlock: EZIPEK_clean_linker_0, # of connection points: 2
#     Edge 72, Type (0, 1), BuildingBlock: EZIPEK_clean_linker_0, # of connection points: 2
#     Edge 73, Type (0, 1), BuildingBlock: EZIPEK_clean_linker_0, # of connection points: 2
#     Edge 74, Type (0, 1), BuildingBlock: EZIPEK_clean_linker_0, # of connection points: 2
#     Edge 75, Type (0, 1), BuildingBlock: EZIPEK_clean_linker_0, # of connection points: 2
#     Edge 76, Type (0, 1), BuildingBlock: EZIPEK_clean_linker_0, # of connection points: 2
#     Edge 77, Type (0, 1), BuildingBlock: EZIPEK_clean_linker_0, # of connection points: 2
#     Edge 78, Type (0, 1), BuildingBlock: EZIPEK_clean_linker_0, # of connection points: 2
#     Edge 79, Type (0, 1), BuildingBlock: EZIPEK_clean_linker_0, # of connection points: 2
#     Edge 80, Type (0, 1), BuildingBlock: EZIPEK_clean_linker_0, # of connection points: 2
#     Edge 81, Type (0, 1), BuildingBlock: EZIPEK_clean_linker_0, # of connection points: 2
#     Edge 82, Type (0, 1), BuildingBlock: EZIPEK_clean_linker_0, # of connection points: 2
#     Edge 83, Type (0, 1), BuildingBlock: EZIPEK_clean_linker_0, # of connection points: 2
#     Edge 84, Type (0, 1), BuildingBlock: EZIPEK_clean_linker_0, # of connection points: 2
#     Edge 85, Type (0, 1), BuildingBlock: EZIPEK_clean_linker_0, # of connection points: 2
#     Edge 86, Type (0, 1), BuildingBlock: EZIPEK_clean_linker_0, # of connection points: 2
#     Edge 87, Type (0, 1), BuildingBlock: EZIPEK_clean_linker_0, # of connection points: 2
#     Edge 88, Type (0, 1), BuildingBlock: EZIPEK_clean_linker_0, # of connection points: 2
#     Edge 89, Type (0, 1), BuildingBlock: EZIPEK_clean_linker_0, # of connection points: 2
#     Edge 90, Type (0, 1), BuildingBlock: EZIPEK_clean_linker_0, # of connection points: 2
#     Edge 91, Type (0, 1), BuildingBlock: EZIPEK_clean_linker_0, # of connection points: 2
#     Edge 92, Type (0, 1), BuildingBlock: EZIPEK_clean_linker_0, # of connection points: 2
#     Edge 93, Type (0, 1), BuildingBlock: EZIPEK_clean_linker_0, # of connection points: 2
#     Edge 94, Type (0, 1), BuildingBlock: EZIPEK_clean_linker_0, # of connection points: 2
#     Edge 95, Type (0, 1), BuildingBlock: EZIPEK_clean_linker_0, # of connection points: 2
#     Edge 96, Type (0, 1), BuildingBlock: EZIPEK_clean_linker_0, # of connection points: 2
#     Edge 97, Type (0, 1), BuildingBlock: EZIPEK_clean_linker_0, # of connection points: 2
#     Edge 98, Type (0, 1), BuildingBlock: EZIPEK_clean_linker_0, # of connection points: 2
#     Edge 99, Type (0, 1), BuildingBlock: EZIPEK_clean_linker_0, # of connection points: 2
#     Edge 100, Type (0, 1), BuildingBlock: EZIPEK_clean_linker_0, # of connection points: 2
#     Edge 101, Type (0, 1), BuildingBlock: EZIPEK_clean_linker_0, # of connection points: 2
#     Edge 102, Type (0, 1), BuildingBlock: EZIPEK_clean_linker_0, # of connection points: 2
#     Edge 103, Type (0, 1), BuildingBlock: EZIPEK_clean_linker_0, # of connection points: 2
#     Edge 104, Type (0, 1), BuildingBlock: EZIPEK_clean_linker_0, # of connection points: 2
#     Edge 105, Type (0, 1), BuildingBlock: EZIPEK_clean_linker_0, # of connection points: 2
#     Edge 106, Type (0, 1), BuildingBlock: EZIPEK_clean_linker_0, # of connection points: 2
#     Edge 107, Type (0, 1), BuildingBlock: EZIPEK_clean_linker_0, # of connection points: 2
# Relax obj value: 0.069
# Max RMSD: 0.230
# Mean RMSD: 0.113
data_MOF--net-ptr--node1-AZAVOO_clean_sbu_0--node2-MUDLON_clean_linker_0--edge1-EZIPEK_clean_linker_0
_symmetry_space_group_name_H-M    P1
_symmetry_Int_Tables_number       1
_symmetry_cell_setting            triclinic
loop_
_symmetry_equiv_pos_as_xyz
'x, y, z'
_cell_length_a     85.519121
_cell_length_b     84.257189
_cell_length_c     47.73004
_cell_angle_alpha  91.104414
_cell_angle_beta   91.084017
_cell_angle_gamma 119.9923
loop_
_atom_site_label
_atom_site_type_symbol
_atom_site_fract_x
_atom_site_fract_y
_atom_site_fract_z
_atom_type_partial_charge
Mg0 Mg 0.01365 0.36176 0.9854 0.0
O1 O 0.00553 0.37273 0.02356 0.0
O2 O 0.98271 0.37671 0.00892 0.0
Mg3 Mg 0.97773 0.3704 0.96149 0.0
C4 C 0.99359 0.37725 0.0281 0.0
C5 C 0.0459 0.36094 0.01635 0.0
O6 O 0.05501 0.37675 0.00424 0.0
O7 O 0.98783 0.33405 0.98722 0.0
O8 O 0.96706 0.33956 0.96762 0.0
O9 O 0.03398 0.39029 0.97335 0.0
O10 O 0.00546 0.37548 0.95828 0.0
C11 C 0.97186 0.3286 0.97755 0.0
C12 C 0.02102 0.39013 0.95865 0.0
O13 O 0.02878 0.35189 0.01345 0.0
Mg14 Mg 0.65165 0.64732 0.04241 0.0
O15 O 0.62921 0.63553 0.0086 0.0
O16 O 0.60471 0.63448 0.02646 0.0
Mg17 Mg 0.61127 0.64356 0.07305 0.0
C18 C 0.61292 0.63205 0.00623 0.0
C19 C 0.68894 0.66432 0.01549 0.0
O20 O 0.69366 0.67091 0.04135 0.0
O21 O 0.65459 0.67546 0.03833 0.0
O22 O 0.63132 0.67345 0.06135 0.0
O23 O 0.64359 0.61927 0.05664 0.0
O24 O 0.63292 0.63644 0.07389 0.0
C25 C 0.64591 0.68282 0.0482 0.0
C26 C 0.63288 0.62113 0.07351 0.0
O27 O 0.67237 0.65363 0.00894 0.0
Mg28 Mg 0.34814 0.97383 0.97305 0.0
O29 O 0.37105 0.98649 0.00582 0.0
O30 O 0.39607 0.00811 0.98645 0.0
Mg31 Mg 0.3893 0.00754 0.93949 0.0
C32 C 0.38758 0.99903 0.00754 0.0
C33 C 0.31714 0.94477 0.00786 0.0
O34 O 0.31653 0.93421 0.98677 0.0
O35 O 0.34613 0.9998 0.97389 0.0
O36 O 0.37029 0.01862 0.94942 0.0
O37 O 0.35541 0.95253 0.96068 0.0
O38 O 0.36618 0.97955 0.94142 0.0
C39 C 0.35585 0.01495 0.96194 0.0
C40 C 0.36581 0.96416 0.94271 0.0
O41 O 0.32847 0.96182 0.00816 0.0
Mg42 Mg 0.97805 0.64634 0.04669 0.0
O43 O 0.98904 0.63479 0.01336 0.0
O44 O 0.0127 0.63399 0.03265 0.0
Mg45 Mg 0.01538 0.64296 0.07905 0.0
C46 C 0.00187 0.6312 0.01191 0.0
C47 C 0.95444 0.66083 0.02242 0.0
O48 O 0.95435 0.66386 0.0495 0.0
O49 O 0.00253 0.67508 0.04391 0.0
O50 O 0.02396 0.67261 0.06783 0.0
O51 O 0.95902 0.61774 0.0602 0.0
O52 O 0.98675 0.63549 0.07777 0.0
C53 C 0.0184 0.68212 0.05504 0.0
C54 C 0.97217 0.6198 0.07666 0.0
O55 O 0.96282 0.65292 0.01351 0.0
Mg56 Mg 0.35899 0.36124 0.98518 0.0
O57 O 0.3799 0.37156 0.0216 0.0
O58 O 0.40434 0.37108 0.00695 0.0
Mg59 Mg 0.39997 0.3631 0.96005 0.0
C60 C 0.39575 0.37404 0.02601 0.0
C61 C 0.32141 0.34233 0.01209 0.0
O62 O 0.31807 0.33044 0.99139 0.0
O63 O 0.35349 0.33195 0.98852 0.0
O64 O 0.37777 0.33366 0.96856 0.0
O65 O 0.36959 0.38988 0.97109 0.0
O66 O 0.37919 0.37119 0.95649 0.0
C67 C 0.36226 0.32448 0.97925 0.0
C68 C 0.38044 0.38703 0.95604 0.0
O69 O 0.33706 0.35631 0.01541 0.0
Mg70 Mg 0.63738 0.00311 0.03572 0.0
O71 O 0.61713 0.98881 0.99913 0.0
O72 O 0.59441 0.96246 0.01391 0.0
Mg73 Mg 0.60024 0.96015 0.06028 0.0
C74 C 0.60211 0.97401 0.99478 0.0
C75 C 0.67459 0.02832 0.00959 0.0
O76 O 0.6801 0.02358 0.03213 0.0
O77 O 0.64734 0.98276 0.03114 0.0
O78 O 0.62503 0.95754 0.04901 0.0
O79 O 0.62244 0.01711 0.05007 0.0
O80 O 0.61732 0.99015 0.06452 0.0
C81 C 0.64061 0.96615 0.03828 0.0
C82 C 0.61318 0.00286 0.06495 0.0
O83 O 0.65783 0.02227 0.00517 0.0
Mg84 Mg 0.69042 0.69566 0.32249 0.0
O85 O 0.67908 0.705 0.35839 0.0
O86 O 0.65646 0.70809 0.34011 0.0
Mg87 Mg 0.6549 0.70285 0.29242 0.0
C88 C 0.66639 0.7087 0.36086 0.0
C89 C 0.71268 0.67846 0.34256 0.0
O90 O 0.71263 0.6767 0.31515 0.0
O91 O 0.66531 0.6671 0.32029 0.0
O92 O 0.64505 0.67228 0.29816 0.0
O93 O 0.71058 0.72495 0.31402 0.0
O94 O 0.68345 0.70963 0.29364 0.0
C95 C 0.64971 0.66144 0.30889 0.0
C96 C 0.69869 0.72469 0.29654 0.0
O97 O 0.70456 0.68615 0.35334 0.0
Mg98 Mg 0.31502 0.98534 0.38869 0.0
O99 O 0.29369 0.9678 0.35485 0.0
O100 O 0.26634 0.95951 0.37089 0.0
Mg101 Mg 0.27037 0.97022 0.41651 0.0
C102 C 0.27653 0.95958 0.35164 0.0
C103 C 0.3403 0.98371 0.34475 0.0
O104 O 0.33153 0.96655 0.35216 0.0
O105 O 0.31021 0.00929 0.38161 0.0
O106 O 0.28393 -3e-05 0.40181 0.0
O107 O 0.31398 0.96034 0.40565 0.0
O108 O 0.29675 0.97151 0.41966 0.0
C109 C 0.29753 0.01215 0.38911 0.0
C110 C 0.30099 0.95887 0.42089 0.0
O111 O 0.33666 0.99525 0.35592 0.0
Mg112 Mg 0.01148 0.30875 0.31151 0.0
O113 O 0.03316 0.31994 0.34632 0.0
O114 O 0.05883 0.34257 0.33013 0.0
Mg115 Mg 0.05383 0.34418 0.28305 0.0
C116 C 0.04966 0.33234 0.34986 0.0
C117 C 0.98655 0.28019 0.35421 0.0
O118 O 0.99442 0.27137 0.34438 0.0
O119 O 0.00895 0.33441 0.31298 0.0
O120 O 0.03386 0.35433 0.2911 0.0
O121 O 0.01952 0.28812 0.29836 0.0
O122 O 0.03083 0.31586 0.28151 0.0
C123 C 0.01883 0.34997 0.30227 0.0
C124 C 0.03062 0.30054 0.28195 0.0
O125 O 0.9904 0.29563 0.34462 0.0
Mg126 Mg 0.65129 0.97632 0.37874 0.0
O127 O 0.66425 0.96713 0.34505 0.0
O128 O 0.69001 0.97063 0.36389 0.0
Mg129 Mg 0.69215 0.97949 0.4102 0.0
C130 C 0.67869 0.96622 0.3433 0.0
C131 C 0.62644 0.98896 0.35203 0.0
O132 O 0.63238 0.9995 0.37487 0.0
O133 O 0.67298 0.0064 0.37417 0.0
O134 O 0.69644 0.00757 0.39785 0.0
O135 O 0.63563 0.94758 0.39352 0.0
O136 O 0.66285 0.9684 0.40988 0.0
C137 C 0.689 0.01534 0.3849 0.0
C138 C 0.64958 0.95183 0.4097 0.0
O139 O 0.63239 0.97816 0.34647 0.0
Mg140 Mg 0.02187 0.70187 0.31361 0.0
O141 O 0.04457 0.71392 0.34711 0.0
O142 O 0.0702 0.71952 0.32717 0.0
Mg143 Mg 0.06418 0.71355 0.27985 0.0
C144 C 0.0614 0.71928 0.34862 0.0
C145 C 0.98475 0.68059 0.34006 0.0
O146 O 0.98044 0.67591 0.31342 0.0
O147 O 0.02226 0.67497 0.31179 0.0
O148 O 0.047 0.68267 0.28714 0.0
O149 O 0.02678 0.72988 0.30376 0.0
O150 O 0.03982 0.71603 0.28283 0.0
C151 C 0.03291 0.67085 0.29933 0.0
C152 C 0.03799 0.7302 0.28559 0.0
O153 O 0.00112 0.69147 0.3475 0.0
Mg154 Mg 0.32176 0.36649 0.38749 0.0
O155 O 0.30274 0.35566 0.34905 0.0
O156 O 0.27614 0.33246 0.36148 0.0
Mg157 Mg 0.27813 0.32907 0.40885 0.0
C158 C 0.28653 0.34321 0.34317 0.0
C159 C 0.36074 0.38401 0.36522 0.0
O160 O 0.36379 0.37981 0.39031 0.0
O161 O 0.32528 0.34146 0.38714 0.0
O162 O 0.29912 0.31977 0.40391 0.0
O163 O 0.31172 0.38595 0.39828 0.0
O164 O 0.30015 0.35784 0.41383 0.0
C165 C 0.31509 0.32527 0.39561 0.0
C166 C 0.29974 0.37283 0.41284 0.0
O167 O 0.34505 0.38089 0.35815 0.0
Mg168 Mg 0.35569 0.0283 0.64178 0.0
O169 O 0.34753 0.04151 0.67684 0.0
O170 O 0.32497 0.04512 0.65982 0.0
Mg171 Mg 0.32037 0.03648 0.61322 0.0
C172 C 0.33586 0.04662 0.67974 0.0
C173 C 0.37827 0.01164 0.6627 0.0
O174 O 0.37794 0.00926 0.63537 0.0
O175 O 0.32962 0.00081 0.64498 0.0
O176 O 0.30928 0.00626 0.62367 0.0
O177 O 0.37633 0.05617 0.62788 0.0
O178 O 0.34796 0.0408 0.61191 0.0
C179 C 0.31366 0.99545 0.63535 0.0
C180 C 0.3635 0.0555 0.61214 0.0
O181 O 0.37037 0.01968 0.67305 0.0
Mg182 Mg 0.98354 0.31028 0.72849 0.0
O183 O 0.96139 0.29748 0.69435 0.0
O184 O 0.93616 0.29572 0.71012 0.0
Mg185 Mg 0.9419 0.30545 0.75642 0.0
C186 C 0.94491 0.29318 0.69085 0.0
C187 C 0.02098 0.32658 0.70009 0.0
O188 O 0.0268 0.3354 0.72444 0.0
O189 O 0.98648 0.33851 0.72356 0.0
O190 O 0.96201 0.33516 0.7451 0.0
O191 O 0.97544 0.28239 0.7436 0.0
O192 O 0.9643 0.29956 0.75906 0.0
C193 C 0.97688 0.34501 0.73296 0.0
C194 C 0.96427 0.28427 0.75937 0.0
O195 O 0.00421 0.3157 0.69549 0.0
Mg196 Mg 0.68952 0.64708 0.64604 0.0
O197 O 0.7121 0.66156 0.67935 0.0
O198 O 0.73761 0.68041 0.65801 0.0
Mg199 Mg 0.73127 0.67694 0.61063 0.0
C200 C 0.72886 0.67354 0.68013 0.0
C201 C 0.65356 0.62422 0.67475 0.0
O202 O 0.65061 0.61466 0.6512 0.0
O203 O 0.68865 0.67317 0.64002 0.0
O204 O 0.71335 0.69003 0.6153 0.0
O205 O 0.69554 0.6242 0.63998 0.0
O206 O 0.70756 0.64968 0.6161 0.0
C207 C 0.69887 0.68748 0.6266 0.0
C208 C 0.70629 0.63413 0.62076 0.0
O209 O 0.66878 0.63852 0.67954 0.0
Mg210 Mg 0.32007 0.30723 0.71476 0.0
O211 O 0.33034 0.29631 0.6792 0.0
O212 O 0.34978 0.28887 0.69848 0.0
Mg213 Mg 0.35235 0.2954 0.74566 0.0
C214 C 0.34126 0.29016 0.67719 0.0
C215 C 0.29802 0.32441 0.69407 0.0
O216 O 0.29962 0.32815 0.72118 0.0
O217 O 0.34679 0.33441 0.71565 0.0
O218 O 0.3651 0.32622 0.73726 0.0
O219 O 0.29806 0.27893 0.72429 0.0
O220 O 0.32548 0.29254 0.74405 0.0
C221 C 0.36216 0.33824 0.72626 0.0
C222 C 0.30966 0.2783 0.74132 0.0
O223 O 0.30626 0.31676 0.68361 0.0
Mg224 Mg 0.68137 0.0316 0.63648 0.0
O225 O 0.70292 0.04678 0.67116 0.0
O226 O 0.7301 0.05607 0.65352 0.0
Mg227 Mg 0.72577 0.04825 0.60652 0.0
C228 C 0.72009 0.05476 0.67387 0.0
C229 C 0.64348 0.00933 0.66044 0.0
O230 O 0.63974 0.00592 0.63343 0.0
O231 O 0.68572 0.00698 0.63796 0.0
O232 O 0.7118 0.01754 0.6158 0.0
O233 O 0.68284 0.05786 0.62418 0.0
O234 O 0.6994 0.04692 0.60634 0.0
C235 C 0.69814 0.00471 0.62753 0.0
C236 C 0.69541 0.05973 0.60756 0.0
O237 O 0.65974 0.01966 0.66899 0.0
Mg238 Mg 0.98368 0.69839 0.71014 0.0
O239 O 0.96183 0.68157 0.67664 0.0
O240 O 0.93624 0.66253 0.69761 0.0
Mg241 Mg 0.94188 0.66767 0.74514 0.0
C242 C 0.94524 0.66905 0.67558 0.0
C243 C 0.02131 0.71284 0.68531 0.0
O244 O 0.0252 0.71304 0.71211 0.0
O245 O 0.98646 0.67348 0.71965 0.0
O246 O 0.96131 0.65635 0.74325 0.0
O247 O 0.97519 0.71975 0.71173 0.0
O248 O 0.9643 0.69557 0.73825 0.0
C249 C 0.97625 0.65928 0.73336 0.0
C250 C 0.9644 0.71027 0.73119 0.0
O251 O 0.00512 0.70745 0.67728 0.0
H252 H 0.26812 0.37033 0.17855 0.0
N253 N 0.23799 0.34588 0.15161 0.0
H254 H 0.27957 0.36787 0.22481 0.0
H255 H 0.22134 0.31671 0.18639 0.0
H256 H 0.23238 0.31463 0.23331 0.0
H257 H 0.24105 0.3155 0.1416 0.0
H258 H 0.2598 0.31226 0.10609 0.0
H259 H 0.25585 0.36905 0.11178 0.0
H260 H 0.27476 0.3659 0.07642 0.0
H261 H 0.22146 0.36448 0.16401 0.0
H262 H 0.21155 0.31243 0.12977 0.0
H263 H 0.18944 0.35458 0.15754 0.0
H264 H 0.17982 0.30279 0.12172 0.0
H265 H 0.07555 0.27505 0.13813 0.0
H266 H 0.05743 0.27054 0.1797 0.0
H267 H 0.09965 0.32183 0.216 0.0
H268 H 0.11792 0.32613 0.17484 0.0
H269 H 0.08882 0.29281 0.07701 0.0
H270 H 0.07432 0.30652 0.04915 0.0
H271 H 0.09489 0.35216 0.10868 0.0
H272 H 0.10904 0.33848 0.13656 0.0
H273 H 0.1356 0.33968 0.11802 0.0
H274 H 0.16714 0.3488 0.12296 0.0
H275 H 0.15259 0.29359 0.14451 0.0
N276 N 0.10632 0.30491 0.1264 0.0
H277 H 0.12071 0.28422 0.13814 0.0
C278 C 0.24379 0.34395 0.17925 0.0
C279 C 0.26028 0.35813 0.19038 0.0
C280 C 0.26682 0.35667 0.21659 0.0
C281 C 0.2568 0.34107 0.2324 0.0
C282 C 0.2403 0.32674 0.22133 0.0
C283 C 0.23394 0.32803 0.19471 0.0
C284 C 0.2471 0.34257 0.12917 0.0
C285 C 0.24809 0.3264 0.12712 0.0
C286 C 0.25878 0.32457 0.107 0.0
C287 C 0.26868 0.3389 0.0889 0.0
C288 C 0.2672 0.35473 0.0903 0.0
C289 C 0.25645 0.35652 0.11031 0.0
C290 C 0.21899 0.33939 0.14712 0.0
C291 C 0.21238 0.35099 0.1548 0.0
C292 C 0.19409 0.34534 0.15084 0.0
C293 C 0.18199 0.32793 0.13881 0.0
C294 C 0.18866 0.31622 0.13128 0.0
C295 C 0.20693 0.32181 0.13561 0.0
C296 C 0.09789 0.30098 0.15321 0.0
C297 C 0.08112 0.28499 0.15547 0.0
C298 C 0.07086 0.2824 0.17912 0.0
C299 C 0.07723 0.29592 0.20071 0.0
C300 C 0.09459 0.31125 0.19953 0.0
C301 C 0.10493 0.31375 0.17598 0.0
C302 C 0.10017 0.31459 0.1087 0.0
C303 C 0.09045 0.30592 0.08375 0.0
C304 C 0.08214 0.31366 0.06801 0.0
C305 C 0.08352 0.3303 0.07698 0.0
C306 C 0.09367 0.3393 0.10148 0.0
C307 C 0.10179 0.33147 0.11734 0.0
C308 C 0.12546 0.31105 0.12774 0.0
C309 C 0.13891 0.32935 0.12363 0.0
C310 C 0.15718 0.33469 0.1267 0.0
C311 C 0.16252 0.32201 0.13438 0.0
C312 C 0.14907 0.30372 0.1382 0.0
C313 C 0.13081 0.29833 0.13473 0.0
H314 H 0.71186 0.77692 0.14306 0.0
N315 N 0.70231 0.80262 0.13973 0.0
H316 H 0.71258 0.76067 0.18435 0.0
H317 H 0.70026 0.81201 0.19553 0.0
H318 H 0.70225 0.79646 0.23672 0.0
H319 H 0.6686 0.77358 0.14808 0.0
H320 H 0.65337 0.7458 0.11778 0.0
H321 H 0.70886 0.80016 0.08601 0.0
H322 H 0.69322 0.77261 0.05517 0.0
H323 H 0.7273 0.83643 0.12823 0.0
H324 H 0.67285 0.80472 0.15617 0.0
H325 H 0.72557 0.86441 0.13285 0.0
H326 H 0.67114 0.83274 0.16215 0.0
H327 H 0.71973 0.95188 0.18448 0.0
H328 H 0.71532 0.96358 0.22953 0.0
H329 H 0.66699 0.91174 0.24104 0.0
H330 H 0.67148 0.90001 0.19619 0.0
H331 H 0.66465 0.91537 0.15571 0.0
H332 H 0.65293 0.92584 0.11772 0.0
H333 H 0.70105 0.94125 0.07153 0.0
H334 H 0.7134 0.93173 0.11061 0.0
H335 H 0.72552 0.91329 0.17163 0.0
H336 H 0.72567 0.88444 0.16767 0.0
H337 H 0.66961 0.85676 0.13924 0.0
N338 N 0.69853 0.91922 0.15973 0.0
H339 H 0.66943 0.88558 0.14479 0.0
C340 C 0.70512 0.79521 0.16544 0.0
C341 C 0.70962 0.78128 0.16335 0.0
C342 C 0.71013 0.77204 0.18694 0.0
C343 C 0.70704 0.77707 0.21353 0.0
C344 C 0.70425 0.79209 0.21626 0.0
C345 C 0.70304 0.80094 0.19247 0.0
C346 C 0.69011 0.7888 0.11942 0.0
C347 C 0.67369 0.77374 0.12742 0.0
C348 C 0.66503 0.75787 0.11019 0.0
C349 C 0.67241 0.75708 0.08454 0.0
C350 C 0.68743 0.77294 0.07502 0.0
C351 C 0.69631 0.78865 0.09251 0.0
C352 C 0.70033 0.81861 0.14197 0.0
C353 C 0.71499 0.83558 0.13547 0.0
C354 C 0.71399 0.85156 0.13841 0.0
C355 C 0.6983 0.85095 0.14831 0.0
C356 C 0.68339 0.83377 0.15427 0.0
C357 C 0.68434 0.81771 0.15095 0.0
C358 C 0.69605 0.92511 0.18706 0.0
C359 C 0.7083 0.94301 0.19688 0.0
C360 C 0.70575 0.94967 0.2224 0.0
C361 C 0.6908 0.93853 0.23845 0.0
C362 C 0.67859 0.92053 0.22887 0.0
C363 C 0.68121 0.91383 0.20339 0.0
C364 C 0.69027 0.92335 0.13643 0.0
C365 C 0.67284 0.92112 0.13766 0.0
C366 C 0.66605 0.92697 0.11584 0.0
C367 C 0.6763 0.93468 0.09212 0.0
C368 C 0.69309 0.93563 0.08991 0.0
C369 C 0.7001 0.93022 0.1121 0.0
C370 C 0.69764 0.90167 0.15815 0.0
C371 C 0.71326 0.90094 0.16474 0.0
C372 C 0.71333 0.88445 0.16217 0.0
C373 C 0.69774 0.86825 0.1526 0.0
C374 C 0.68186 0.8689 0.14676 0.0
C375 C 0.68176 0.88542 0.14969 0.0
H376 H 0.07398 0.80491 0.14652 0.0
N377 N 0.10355 0.80583 0.12783 0.0
H378 H 0.05781 0.79015 0.18898 0.0
H379 H 0.1169 0.79477 0.17138 0.0
H380 H 0.10068 0.77989 0.21329 0.0
H381 H 0.08358 0.80225 0.08212 0.0
H382 H 0.06293 0.77345 0.05609 0.0
H383 H 0.10402 0.77346 0.13071 0.0
H384 H 0.08375 0.74512 0.10471 0.0
H385 H 0.13089 0.79792 0.1175 0.0
H386 H 0.12023 0.8416 0.13856 0.0
H387 H 0.16296 0.81871 0.12526 0.0
H388 H 0.15257 0.86254 0.14683 0.0
H389 H 0.25604 0.88772 0.20988 0.0
H390 H 0.26498 0.90564 0.25444 0.0
H391 H 0.2339 0.93095 0.2303 0.0
H392 H 0.22493 0.91305 0.18587 0.0
H393 H 0.24491 0.92182 0.14614 0.0
H394 H 0.26486 0.9356 0.10681 0.0
H395 H 0.27289 0.88906 0.10061 0.0
H396 H 0.25271 0.8751 0.13993 0.0
H397 H 0.21452 0.85346 0.17954 0.0
H398 H 0.1826 0.83343 0.16629 0.0
H399 H 0.18198 0.8786 0.12592 0.0
N400 N 0.23539 0.88853 0.16852 0.0
H401 H 0.21368 0.89854 0.13978 0.0
C402 C 0.09652 0.80084 0.15556 0.0
C403 C 0.08016 0.80006 0.16151 0.0
C404 C 0.07099 0.79169 0.18565 0.0
C405 C 0.07808 0.78389 0.20403 0.0
C406 C 0.09509 0.78591 0.19932 0.0
C407 C 0.1043 0.79436 0.17531 0.0
C408 C 0.09552 0.79024 0.10826 0.0
C409 C 0.08421 0.79 0.08635 0.0
C410 C 0.07242 0.77361 0.0716 0.0
C411 C 0.07187 0.75724 0.07859 0.0
C412 C 0.08411 0.75767 0.09892 0.0
C413 C 0.09577 0.77397 0.11372 0.0
C414 C 0.12287 0.81811 0.12761 0.0
C415 C 0.13528 0.81196 0.1235 0.0
C416 C 0.15378 0.82391 0.12816 0.0
C417 C 0.16033 0.84223 0.13707 0.0
C418 C 0.14803 0.84856 0.13982 0.0
C419 C 0.12953 0.83662 0.1351 0.0
C420 C 0.23982 0.89896 0.19462 0.0
C421 C 0.25111 0.89708 0.21428 0.0
C422 C 0.25621 0.90728 0.23954 0.0
C423 C 0.25011 0.9196 0.24547 0.0
C424 C 0.23874 0.92152 0.22595 0.0
C425 C 0.23362 0.91127 0.20064 0.0
C426 C 0.24733 0.89735 0.14593 0.0
C427 C 0.2509 0.91452 0.13641 0.0
C428 C 0.26227 0.9224 0.114 0.0
C429 C 0.27024 0.91328 0.10097 0.0
C430 C 0.2668 0.89624 0.11052 0.0
C431 C 0.25537 0.88833 0.13283 0.0
C432 C 0.2165 0.87743 0.16076 0.0
C433 C 0.20743 0.85899 0.1679 0.0
C434 C 0.18926 0.84756 0.16006 0.0
C435 C 0.17977 0.85438 0.14483 0.0
C436 C 0.18886 0.87295 0.1378 0.0
C437 C 0.20705 0.88438 0.14569 0.0
H438 H 0.33481 0.23363 0.87378 0.0
N439 N 0.30859 0.20171 0.89644 0.0
H440 H 0.33126 0.24837 0.83283 0.0
H441 H 0.2803 0.18856 0.86037 0.0
H442 H 0.27704 0.20333 0.81824 0.0
H443 H 0.28934 0.21113 0.92862 0.0
H444 H 0.30121 0.2394 0.95764 0.0
H445 H 0.34375 0.22199 0.91742 0.0
H446 H 0.35545 0.25026 0.94549 0.0
H447 H 0.33961 0.20755 0.87112 0.0
H448 H 0.29316 0.16776 0.91465 0.0
H449 H 0.3496 0.18534 0.86466 0.0
H450 H 0.30325 0.14534 0.90841 0.0
H451 H 0.37228 0.12206 0.8214 0.0
H452 H 0.36706 0.10548 0.77609 0.0
H453 H 0.31457 0.06403 0.80212 0.0
H454 H 0.31994 0.08034 0.84752 0.0
H455 H 0.32284 0.09171 0.89987 0.0
H456 H 0.32108 0.06868 0.93217 0.0
H457 H 0.37519 0.08208 0.91211 0.0
H458 H 0.37719 0.10552 0.88037 0.0
H459 H 0.37104 0.14634 0.88265 0.0
H460 H 0.36128 0.1687 0.89216 0.0
H461 H 0.30639 0.12766 0.86877 0.0
N462 N 0.35092 0.11173 0.86496 0.0
H463 H 0.31618 0.10546 0.85959 0.0
C464 C 0.3076 0.21 0.87066 0.0
C465 C 0.32209 0.22676 0.86206 0.0
C466 C 0.32015 0.23521 0.83851 0.0
C467 C 0.30387 0.227 0.82278 0.0
C468 C 0.28968 0.20986 0.8303 0.0
C469 C 0.29153 0.20149 0.85423 0.0
C470 C 0.31554 0.21453 0.92021 0.0
C471 C 0.30372 0.21911 0.93339 0.0
C472 C 0.31047 0.23519 0.94996 0.0
C473 C 0.32919 0.24696 0.95327 0.0
C474 C 0.34096 0.24132 0.94307 0.0
C475 C 0.3342 0.22512 0.92686 0.0
C476 C 0.31553 0.18931 0.89347 0.0
C477 C 0.33159 0.19409 0.87952 0.0
C478 C 0.33738 0.18138 0.87592 0.0
C479 C 0.32721 0.16359 0.886 0.0
C480 C 0.31127 0.15889 0.90017 0.0
C481 C 0.30555 0.17167 0.9039 0.0
C482 C 0.34651 0.1026 0.8377 0.0
C483 C 0.35958 0.10953 0.81716 0.0
C484 C 0.35663 0.10005 0.79149 0.0
C485 C 0.34048 0.08351 0.78592 0.0
C486 C 0.32713 0.07676 0.80612 0.0
C487 C 0.33015 0.08617 0.83191 0.0
C488 C 0.35025 0.10037 0.8876 0.0
C489 C 0.33455 0.09017 0.90297 0.0
C490 C 0.33351 0.07701 0.92144 0.0
C491 C 0.34793 0.07361 0.92418 0.0
C492 C 0.36392 0.08452 0.91017 0.0
C493 C 0.36507 0.09783 0.89211 0.0
C494 C 0.34445 0.1243 0.87034 0.0
C495 C 0.35691 0.14222 0.87962 0.0
C496 C 0.35133 0.15495 0.88494 0.0
C497 C 0.33306 0.14993 0.88118 0.0
C498 C 0.32051 0.13187 0.87214 0.0
C499 C 0.32615 0.11918 0.86668 0.0
H500 H 0.73604 0.1126 0.8292 0.0
N501 N 0.75874 0.11167 0.86679 0.0
H502 H 0.72837 0.0985 0.78167 0.0
H503 H 0.77343 0.09287 0.84127 0.0
H504 H 0.76567 0.0787 0.79385 0.0
H505 H 0.75466 0.07842 0.88105 0.0
H506 H 0.73483 0.05826 0.91668 0.0
H507 H 0.73744 0.11749 0.89996 0.0
H508 H 0.71722 0.09704 0.93536 0.0
H509 H 0.77585 0.14758 0.86042 0.0
H510 H 0.78371 0.10414 0.8908 0.0
H511 H 0.80741 0.16989 0.87262 0.0
H512 H 0.81495 0.1263 0.90401 0.0
H513 H 0.92073 0.20784 0.89247 0.0
H514 H 0.93832 0.22497 0.85249 0.0
H515 H 0.8933 0.2301 0.82221 0.0
H516 H 0.87571 0.213 0.86203 0.0
H517 H 0.90937 0.20886 0.95334 0.0
H518 H 0.92884 0.23855 0.97785 0.0
H519 H 0.90403 0.26291 0.92876 0.0
H520 H 0.88487 0.23362 0.90421 0.0
H521 H 0.85956 0.20769 0.91945 0.0
H522 H 0.82804 0.18491 0.91159 0.0
H523 H 0.84318 0.1456 0.88317 0.0
N524 N 0.88902 0.20337 0.90735 0.0
H525 H 0.87495 0.16846 0.89182 0.0
C526 C 0.75525 0.10382 0.83872 0.0
C527 C 0.74263 0.10531 0.82152 0.0
C528 C 0.73826 0.09729 0.79456 0.0
C529 C 0.74645 0.08757 0.78445 0.0
C530 C 0.75924 0.08615 0.80144 0.0
C531 C 0.76364 0.09424 0.82845 0.0
C532 C 0.74759 0.09957 0.88797 0.0
C533 C 0.74673 0.08274 0.89291 0.0
C534 C 0.73538 0.0712 0.91319 0.0
C535 C 0.72459 0.0762 0.92854 0.0
C536 C 0.72548 0.093 0.92369 0.0
C537 C 0.73696 0.10461 0.90361 0.0
C538 C 0.77735 0.12426 0.87475 0.0
C539 C 0.78437 0.14291 0.86996 0.0
C540 C 0.80235 0.15563 0.87718 0.0
C541 C 0.81373 0.14992 0.88949 0.0
C542 C 0.80664 0.13116 0.89432 0.0
C543 C 0.78866 0.11844 0.88693 0.0
C544 C 0.89699 0.20918 0.88037 0.0
C545 C 0.91443 0.21205 0.87665 0.0
C546 C 0.92443 0.22181 0.85395 0.0
C547 C 0.91705 0.22877 0.8346 0.0
C548 C 0.89911 0.2247 0.83692 0.0
C549 C 0.88911 0.21494 0.85966 0.0
C550 C 0.89552 0.2188 0.92706 0.0
C551 C 0.90751 0.22037 0.94883 0.0
C552 C 0.91866 0.23729 0.9627 0.0
C553 C 0.91783 0.25284 0.95498 0.0
C554 C 0.90472 0.25099 0.93511 0.0
C555 C 0.89369 0.23416 0.92117 0.0
C556 C 0.86993 0.18993 0.90599 0.0
C557 C 0.85636 0.19426 0.91169 0.0
C558 C 0.83813 0.18114 0.90704 0.0
C559 C 0.83302 0.16345 0.89644 0.0
C560 C 0.84656 0.159 0.89162 0.0
C561 C 0.86475 0.17207 0.89645 0.0
H562 H 0.75894 0.71693 0.85081 0.0
N563 N 0.7859 0.71373 0.87392 0.0
H564 H 0.74547 0.70749 0.80334 0.0
H565 H 0.79752 0.69981 0.83021 0.0
H566 H 0.78401 0.6906 0.78347 0.0
H567 H 0.76153 0.67726 0.87919 0.0
H568 H 0.73778 0.66398 0.91394 0.0
H569 H 0.77986 0.73122 0.91545 0.0
H570 H 0.75605 0.71795 0.95008 0.0
H571 H 0.81692 0.74395 0.88728 0.0
H572 H 0.79263 0.68533 0.87833 0.0
H573 H 0.846 0.74661 0.89914 0.0
H574 H 0.82176 0.68774 0.88721 0.0
H575 H 0.94067 0.73398 0.88655 0.0
H576 H 0.95229 0.73213 0.84099 0.0
H577 H 0.89924 0.71139 0.80274 0.0
H578 H 0.88707 0.711 0.84866 0.0
H579 H 0.8972 0.68665 0.89232 0.0
H580 H 0.90741 0.66984 0.92213 0.0
H581 H 0.93452 0.71704 0.9786 0.0
H582 H 0.92429 0.73383 0.9488 0.0
H583 H 0.89926 0.7486 0.88534 0.0
H584 H 0.86998 0.74654 0.88112 0.0
H585 H 0.84507 0.69225 0.91507 0.0
N586 N 0.90655 0.72262 0.89946 0.0
H587 H 0.87397 0.69372 0.91625 0.0
C588 C 0.77888 0.70857 0.84515 0.0
C589 C 0.76447 0.71109 0.83638 0.0
C590 C 0.75681 0.70577 0.80931 0.0
C591 C 0.76364 0.69816 0.79015 0.0
C592 C 0.77844 0.69625 0.79819 0.0
C593 C 0.78605 0.70143 0.82532 0.0
C594 C 0.77247 0.70527 0.89489 0.0
C595 C 0.7606 0.68619 0.89485 0.0
C596 C 0.74705 0.67863 0.91453 0.0
C597 C 0.74524 0.69004 0.93445 0.0
C598 C 0.7573 0.70899 0.93484 0.0
C599 C 0.77083 0.71652 0.91521 0.0
C600 C 0.80275 0.71457 0.88128 0.0
C601 C 0.81798 0.73167 0.88754 0.0
C602 C 0.83466 0.73312 0.89403 0.0
C603 C 0.83661 0.71745 0.89366 0.0
C604 C 0.82104 0.70019 0.88822 0.0
C605 C 0.80425 0.69874 0.88278 0.0
C606 C 0.91299 0.72257 0.87152 0.0
C607 C 0.93146 0.72886 0.86844 0.0
C608 C 0.93811 0.72789 0.84241 0.0
C609 C 0.92661 0.72144 0.81844 0.0
C610 C 0.90832 0.71616 0.82102 0.0
C611 C 0.90142 0.71611 0.84738 0.0
C612 C 0.90999 0.7115 0.91851 0.0
C613 C 0.90503 0.69322 0.91142 0.0
C614 C 0.91086 0.68368 0.92831 0.0
C615 C 0.92172 0.69227 0.95242 0.0
C616 C 0.92611 0.71023 0.96006 0.0
C617 C 0.92024 0.71974 0.94322 0.0
C618 C 0.88907 0.72143 0.90091 0.0
C619 C 0.88744 0.7363 0.89196 0.0
C620 C 0.87058 0.7351 0.88983 0.0
C621 C 0.85482 0.71915 0.89762 0.0
C622 C 0.85663 0.70458 0.90799 0.0
C623 C 0.87343 0.70552 0.90909 0.0
H624 H 0.73878 0.59271 0.47743 0.0
N625 N 0.76864 0.62112 0.4593 0.0
H626 H 0.72327 0.59152 0.52091 0.0
H627 H 0.78267 0.64609 0.50369 0.0
H628 H 0.767 0.64513 0.54626 0.0
H629 H 0.77822 0.6576 0.46225 0.0
H630 H 0.76547 0.67217 0.4333 0.0
H631 H 0.74719 0.607 0.41394 0.0
H632 H 0.73435 0.62176 0.3848 0.0
H633 H 0.77544 0.59431 0.44833 0.0
H634 H 0.80186 0.65242 0.46695 0.0
H635 H 0.80467 0.59568 0.45027 0.0
H636 H 0.83081 0.65378 0.47084 0.0
H637 H 0.90789 0.61639 0.5102 0.0
H638 H 0.92171 0.62632 0.5575 0.0
H639 H 0.8971 0.65998 0.56632 0.0
H640 H 0.88433 0.65111 0.51863 0.0
H641 H 0.91401 0.66359 0.4786 0.0
H642 H 0.93759 0.67663 0.44372 0.0
H643 H 0.91678 0.62303 0.40445 0.0
H644 H 0.89311 0.60992 0.43942 0.0
H645 H 0.85526 0.59994 0.49179 0.0
H646 H 0.82633 0.59859 0.48379 0.0
H647 H 0.85411 0.65241 0.44853 0.0
N648 N 0.88808 0.62744 0.48214 0.0
H649 H 0.88283 0.65408 0.45826 0.0
C650 C 0.76167 0.61956 0.48697 0.0
C651 C 0.74523 0.60394 0.49279 0.0
C652 C 0.73646 0.60323 0.51753 0.0
C653 C 0.74397 0.61833 0.53653 0.0
C654 C 0.76103 0.63338 0.53177 0.0
C655 C 0.7699 0.63397 0.50725 0.0
C656 C 0.76378 0.6311 0.44014 0.0
C657 C 0.76905 0.64968 0.44508 0.0
C658 C 0.76167 0.65804 0.42864 0.0
C659 C 0.74895 0.648 0.40705 0.0
C660 C 0.74418 0.6297 0.4014 0.0
C661 C 0.75156 0.62135 0.41784 0.0
C662 C 0.78634 0.62312 0.45774 0.0
C663 C 0.78758 0.60737 0.45275 0.0
C664 C 0.80428 0.60817 0.45422 0.0
C665 C 0.82018 0.6248 0.46116 0.0
C666 C 0.81896 0.64074 0.4652 0.0
C667 C 0.80225 0.63995 0.46327 0.0
C668 C 0.89489 0.63274 0.51079 0.0
C669 C 0.90543 0.62586 0.52238 0.0
C670 C 0.91328 0.6315 0.54928 0.0
C671 C 0.91034 0.6438 0.56544 0.0
C672 C 0.89949 0.65043 0.5542 0.0
C673 C 0.89211 0.64525 0.52694 0.0
C674 C 0.90182 0.63571 0.46155 0.0
C675 C 0.91448 0.65463 0.46249 0.0
C676 C 0.92789 0.66207 0.44265 0.0
C677 C 0.92885 0.65073 0.42169 0.0
C678 C 0.91619 0.63192 0.42057 0.0
C679 C 0.90275 0.62449 0.44037 0.0
C680 C 0.87125 0.62691 0.47543 0.0
C681 C 0.85504 0.61138 0.48222 0.0
C682 C 0.8385 0.61061 0.47739 0.0
C683 C 0.83778 0.62536 0.46531 0.0
C684 C 0.85408 0.64087 0.45818 0.0
C685 C 0.87063 0.64175 0.46345 0.0
H686 H 0.39387 0.14161 0.4901 0.0
N687 N 0.36377 0.13597 0.4637 0.0
H688 H 0.39603 0.1246 0.52991 0.0
H689 H 0.33596 0.11344 0.49674 0.0
H690 H 0.3382 0.09706 0.53694 0.0
H691 H 0.37414 0.11459 0.43869 0.0
H692 H 0.35483 0.08533 0.4135 0.0
H693 H 0.32906 0.12406 0.44284 0.0
H694 H 0.31014 0.09538 0.41619 0.0
H695 H 0.38555 0.16731 0.43979 0.0
H696 H 0.33795 0.14117 0.4892 0.0
H697 H 0.38477 0.19598 0.44251 0.0
H698 H 0.33726 0.16968 0.49244 0.0
H699 H 0.37793 0.28712 0.50947 0.0
H700 H 0.37243 0.29594 0.55595 0.0
H701 H 0.33728 0.23895 0.57329 0.0
H702 H 0.34186 0.23016 0.52645 0.0
H703 H 0.32807 0.24708 0.48452 0.0
H704 H 0.3166 0.26315 0.4559 0.0
H705 H 0.3662 0.28856 0.4111 0.0
H706 H 0.37796 0.27291 0.44046 0.0
H707 H 0.39066 0.24809 0.48662 0.0
H708 H 0.39025 0.21906 0.47922 0.0
H709 H 0.33236 0.19125 0.46485 0.0
N710 N 0.36283 0.25374 0.48566 0.0
H711 H 0.33292 0.22033 0.47271 0.0
C712 C 0.36485 0.12903 0.49064 0.0
C713 C 0.38175 0.13237 0.50085 0.0
C714 C 0.38297 0.12269 0.52345 0.0
C715 C 0.36727 0.1097 0.53633 0.0
C716 C 0.35046 0.10724 0.52745 0.0
C717 C 0.34921 0.11671 0.50462 0.0
C718 C 0.35317 0.12156 0.443 0.0
C719 C 0.3603 0.11071 0.43329 0.0
C720 C 0.34928 0.09402 0.41901 0.0
C721 C 0.33097 0.08804 0.41349 0.0
C722 C 0.3242 0.09968 0.42061 0.0
C723 C 0.33509 0.11614 0.43579 0.0
C724 C 0.36195 0.15211 0.46432 0.0
C725 C 0.37489 0.16774 0.45108 0.0
C726 C 0.37447 0.1841 0.45281 0.0
C727 C 0.36101 0.18514 0.46785 0.0
C728 C 0.34773 0.1693 0.4805 0.0
C729 C 0.3482 0.15296 0.47884 0.0
C730 C 0.36057 0.25803 0.51432 0.0
C731 C 0.36914 0.27652 0.52336 0.0
C732 C 0.36596 0.28154 0.54978 0.0
C733 C 0.35446 0.26809 0.56808 0.0
C734 C 0.3462 0.24953 0.55947 0.0
C735 C 0.34896 0.24453 0.53268 0.0
C736 C 0.35406 0.25916 0.46492 0.0
C737 C 0.3363 0.2557 0.46806 0.0
C738 C 0.32973 0.2648 0.45169 0.0
C739 C 0.34065 0.27711 0.43165 0.0
C740 C 0.3576 0.27906 0.42647 0.0
C741 C 0.3643 0.2702 0.44319 0.0
C742 C 0.36192 0.23641 0.48016 0.0
C743 C 0.37793 0.23572 0.48171 0.0
C744 C 0.37766 0.21915 0.4773 0.0
C745 C 0.36127 0.20284 0.47134 0.0
C746 C 0.34518 0.20355 0.4696 0.0
C747 C 0.34549 0.22019 0.4739 0.0
H748 H 0.73784 0.13766 0.47217 0.0
N749 N 0.76867 0.13899 0.45991 0.0
H750 H 0.71856 0.12192 0.51161 0.0
H751 H 0.77948 0.12871 0.50778 0.0
H752 H 0.76034 0.11316 0.54663 0.0
H753 H 0.75189 0.13604 0.4109 0.0
H754 H 0.7322 0.10747 0.38359 0.0
H755 H 0.76724 0.1059 0.46632 0.0
H756 H 0.74815 0.07789 0.4389 0.0
H757 H 0.79546 0.12974 0.46425 0.0
H758 H 0.78594 0.17528 0.45922 0.0
H759 H 0.82711 0.15056 0.47435 0.0
H760 H 0.81821 0.19658 0.4674 0.0
H761 H 0.90826 0.21353 0.55713 0.0
H762 H 0.91797 0.2319 0.60124 0.0
H763 H 0.91048 0.27353 0.56238 0.0
H764 H 0.90133 0.25541 0.51807 0.0
H765 H 0.89716 0.24384 0.4684 0.0
H766 H 0.9184 0.25873 0.43059 0.0
H767 H 0.95148 0.23716 0.46171 0.0
H768 H 0.93018 0.22218 0.49936 0.0
H769 H 0.88622 0.19188 0.47701 0.0
H770 H 0.85512 0.17225 0.45995 0.0
H771 H 0.83973 0.20757 0.50365 0.0
N772 N 0.89981 0.22248 0.50845 0.0
H773 H 0.87083 0.22768 0.51871 0.0
C774 C 0.76007 0.13434 0.48666 0.0
C775 C 0.74311 0.133 0.48894 0.0
C776 C 0.73214 0.12405 0.51134 0.0
C777 C 0.73808 0.11634 0.53178 0.0
C778 C 0.75562 0.1191 0.53102 0.0
C779 C 0.76656 0.12802 0.50867 0.0
C780 C 0.76133 0.12337 0.44046 0.0
C781 C 0.75169 0.12354 0.41643 0.0
C782 C 0.74044 0.10729 0.40095 0.0
C783 C 0.73882 0.09067 0.40929 0.0
C784 C 0.74942 0.09066 0.43201 0.0
C785 C 0.7605 0.1068 0.44756 0.0
C786 C 0.78806 0.15089 0.46128 0.0
C787 C 0.80014 0.14423 0.46463 0.0
C788 C 0.8185 0.15632 0.47027 0.0
C789 C 0.82539 0.17539 0.47206 0.0
C790 C 0.81343 0.18201 0.46699 0.0
C791 C 0.79499 0.16987 0.46192 0.0
C792 C 0.90396 0.23299 0.53447 0.0
C793 C 0.90858 0.22654 0.55823 0.0
C794 C 0.91413 0.23701 0.58326 0.0
C795 C 0.91499 0.25408 0.58498 0.0
C796 C 0.90996 0.26041 0.5614 0.0
C797 C 0.90471 0.25007 0.53619 0.0
C798 C 0.91214 0.23183 0.48652 0.0
C799 C 0.90901 0.24239 0.46713 0.0
C800 C 0.92106 0.25084 0.44565 0.0
C801 C 0.9364 0.24895 0.44352 0.0
C802 C 0.93968 0.23872 0.46314 0.0
C803 C 0.9276 0.23021 0.48448 0.0
C804 C 0.88106 0.2112 0.4994 0.0
C805 C 0.87611 0.1954 0.48275 0.0
C806 C 0.85825 0.18412 0.47317 0.0
C807 C 0.84472 0.18814 0.48052 0.0
C808 C 0.84973 0.2041 0.49706 0.0
C809 C 0.86768 0.21561 0.50612 0.0
H810 H 0.97344 0.54149 0.19677 0.0
N811 N 0.00973 0.55689 0.20809 0.0
H812 H 0.95949 0.55271 0.16275 0.0
H813 H 0.02614 0.58031 0.16793 0.0
H814 H 0.01223 0.59124 0.1336 0.0
H815 H 0.98426 0.55771 0.24129 0.0
H816 H 0.9894 0.58363 0.27158 0.0
H817 H 0.04149 0.58323 0.22841 0.0
H818 H 0.04659 0.60943 0.25857 0.0
H819 H 0.02219 0.5394 0.17771 0.0
H820 H 0.98673 0.53179 0.24552 0.0
H821 H 0.01448 0.50744 0.17985 0.0
H822 H 0.97971 0.50017 0.24892 0.0
H823 H 0.00708 0.424 0.19732 0.0
H824 H 0.01122 0.41196 0.15289 0.0
H825 H 0.95867 0.4008 0.12309 0.0
H826 H 0.95421 0.41246 0.1682 0.0
H827 H 0.9545 0.39259 0.23338 0.0
H828 H 0.96306 0.37468 0.26341 0.0
H829 H 0.01649 0.42148 0.27554 0.0
H830 H 0.00804 0.43941 0.24606 0.0
H831 H 0.01026 0.45451 0.20388 0.0
H832 H 0.01858 0.48661 0.20584 0.0
H833 H 0.96376 0.47116 0.22605 0.0
N834 N 0.97672 0.42503 0.21288 0.0
H835 H 0.95589 0.43897 0.22572 0.0
C836 C 0.00087 0.56024 0.1849 0.0
C837 C 0.98194 0.55206 0.18264 0.0
C838 C 0.97399 0.55838 0.16323 0.0
C839 C 0.98489 0.57276 0.14577 0.0
C840 C 0.00365 0.58005 0.14681 0.0
C841 C 0.01156 0.57384 0.16628 0.0
C842 C 0.01258 0.56848 0.23252 0.0
C843 C 0.99801 0.56838 0.24601 0.0
C844 C 0.00091 0.58322 0.26333 0.0
C845 C 0.01835 0.59842 0.26714 0.0
C846 C 0.03306 0.59774 0.25601 0.0
C847 C 0.03016 0.58282 0.23886 0.0
C848 C 0.00524 0.53814 0.21145 0.0
C849 C 0.01294 0.53087 0.19335 0.0
C850 C 0.00861 0.51262 0.1948 0.0
C851 C 0.99656 0.50115 0.21475 0.0
C852 C 0.98887 0.50848 0.23306 0.0
C853 C 0.99303 0.52674 0.23129 0.0
C854 C 0.98014 0.41899 0.18629 0.0
C855 C 0.99635 0.41897 0.18144 0.0
C856 C 0.99877 0.41211 0.15603 0.0
C857 C 0.98523 0.40545 0.13482 0.0
C858 C 0.96924 0.40584 0.1393 0.0
C859 C 0.96672 0.4125 0.16489 0.0
C860 C 0.98059 0.41721 0.23689 0.0
C861 C 0.96779 0.39924 0.24355 0.0
C862 C 0.97264 0.38906 0.26072 0.0
C863 C 0.99043 0.39679 0.27144 0.0
C864 C 0.00268 0.41537 0.26752 0.0
C865 C 0.99781 0.42557 0.25042 0.0
C866 C 0.9824 0.44427 0.21496 0.0
C867 C 8e-05 0.45799 0.20922 0.0
C868 C 0.00478 0.47642 0.21001 0.0
C869 C 0.99183 0.48159 0.2159 0.0
C870 C 0.9742 0.46781 0.22188 0.0
C871 C 0.9696 0.44938 0.22153 0.0
H872 H 0.59222 0.53272 0.19245 0.0
N873 N 0.57304 0.5381 0.23087 0.0
H874 H 0.60571 0.55115 0.15101 0.0
H875 H 0.56573 0.56387 0.20963 0.0
H876 H 0.57915 0.5821 0.16867 0.0
H877 H 0.60513 0.54962 0.25516 0.0
H878 H 0.62298 0.57859 0.28191 0.0
H879 H 0.55838 0.55622 0.25844 0.0
H880 H 0.57633 0.5854 0.28489 0.0
H881 H 0.56471 0.50596 0.25141 0.0
H882 H 0.54059 0.5353 0.21463 0.0
H883 H 0.53519 0.47802 0.25048 0.0
H884 H 0.51139 0.50736 0.21192 0.0
H885 H 0.44535 0.39012 0.19293 0.0
H886 H 0.43136 0.37832 0.14604 0.0
H887 H 0.4302 0.42819 0.13263 0.0
H888 H 0.44448 0.4401 0.17927 0.0
H889 H 0.42727 0.43146 0.22152 0.0
H890 H 0.40527 0.42288 0.25854 0.0
H891 H 0.42845 0.39389 0.29943 0.0
H892 H 0.45073 0.40269 0.26241 0.0
H893 H 0.48656 0.42713 0.21257 0.0
H894 H 0.51526 0.45587 0.21753 0.0
H895 H 0.48642 0.48479 0.23487 0.0
N896 N 0.45356 0.42197 0.21753 0.0
H897 H 0.45789 0.4562 0.22821 0.0
C898 C 0.57792 0.54677 0.20415 0.0
C899 C 0.58891 0.54312 0.18689 0.0
C900 C 0.59661 0.55363 0.16341 0.0
C901 C 0.5934 0.56795 0.15698 0.0
C902 C 0.58168 0.57103 0.17331 0.0
C903 C 0.57399 0.56054 0.1967 0.0
C904 C 0.58057 0.5509 0.25445 0.0
C905 C 0.5985 0.55686 0.26285 0.0
C906 C 0.60868 0.57338 0.27802 0.0
C907 C 0.60098 0.58415 0.28508 0.0
C908 C 0.58245 0.5772 0.27968 0.0
C909 C 0.57222 0.56056 0.26454 0.0
C910 C 0.55503 0.52267 0.23276 0.0
C911 C 0.55302 0.50637 0.24322 0.0
C912 C 0.53616 0.49037 0.24231 0.0
C913 C 0.52087 0.49024 0.23054 0.0
C914 C 0.52276 0.50686 0.22123 0.0
C915 C 0.53962 0.52294 0.22255 0.0
C916 C 0.44594 0.41591 0.18956 0.0
C917 C 0.44216 0.39852 0.17977 0.0
C918 C 0.43417 0.3918 0.15318 0.0
C919 C 0.4297 0.40237 0.13601 0.0
C920 C 0.43352 0.41984 0.14566 0.0
C921 C 0.44166 0.42662 0.17223 0.0
C922 C 0.44071 0.4177 0.23927 0.0
C923 C 0.42779 0.42341 0.23847 0.0
C924 C 0.41524 0.41854 0.25958 0.0
C925 C 0.41535 0.40782 0.2816 0.0
C926 C 0.42827 0.40223 0.28257 0.0
C927 C 0.4409 0.40721 0.26156 0.0
C928 C 0.47009 0.43938 0.22028 0.0
C929 C 0.4865 0.43972 0.21734 0.0
C930 C 0.50289 0.45617 0.22051 0.0
C931 C 0.50327 0.47273 0.22704 0.0
C932 C 0.48673 0.47239 0.22967 0.0
C933 C 0.47031 0.45593 0.22609 0.0
H934 H 0.53758 0.95538 0.19137 0.0
N935 N 0.52902 0.97722 0.21967 0.0
H936 H 0.55696 0.96312 0.1507 0.0
H937 H 0.5409 0.00816 0.18862 0.0
H938 H 0.55966 0.01552 0.14744 0.0
H939 H 0.55984 0.00955 0.23427 0.0
H940 H 0.58323 0.01337 0.26853 0.0
H941 H 0.527 0.95305 0.25642 0.0
H942 H 0.55069 0.95681 0.29041 0.0
H943 H 0.49486 0.95764 0.20205 0.0
H944 H 0.53271 0.00915 0.24345 0.0
H945 H 0.47194 0.96686 0.20128 0.0
H946 H 0.50982 0.0182 0.24354 0.0
H947 H 0.4239 0.9862 0.17006 0.0
H948 H 0.41326 0.98342 0.12131 0.0
H949 H 0.42725 0.0402 0.12452 0.0
H950 H 0.4377 0.04296 0.17374 0.0
H951 H 0.43866 0.03736 0.24895 0.0
H952 H 0.41521 0.03023 0.28355 0.0
H953 H 0.38045 0.97871 0.23972 0.0
H954 H 0.40371 0.98561 0.2055 0.0
H955 H 0.43023 0.98285 0.22112 0.0
H956 H 0.45243 0.97322 0.22901 0.0
H957 H 0.49513 0.02742 0.20939 0.0
N958 N 0.43716 0.01687 0.20482 0.0
H959 H 0.47278 0.03711 0.2024 0.0
C960 C 0.53769 0.98105 0.19303 0.0
C961 C 0.54204 0.96837 0.18152 0.0
C962 C 0.55308 0.97278 0.15847 0.0
C963 C 0.55974 0.98989 0.14633 0.0
C964 C 0.55457 0.00224 0.15663 0.0
C965 C 0.54381 0.99797 0.18008 0.0
C966 C 0.54147 0.98098 0.24305 0.0
C967 C 0.55739 0.99811 0.24704 0.0
C968 C 0.57083 0.00028 0.2664 0.0
C969 C 0.5687 0.98533 0.28175 0.0
C970 C 0.55254 0.96848 0.27869 0.0
C971 C 0.53902 0.96637 0.25952 0.0
C972 C 0.51549 0.98254 0.22279 0.0
C973 C 0.4981 0.97077 0.21148 0.0
C974 C 0.48501 0.97605 0.21118 0.0
C975 C 0.48905 0.99332 0.2223 0.0
C976 C 0.50634 0.00492 0.23445 0.0
C977 C 0.51946 0.99964 0.23463 0.0
C978 C 0.43153 0.01486 0.17566 0.0
C979 C 0.42479 0.99811 0.16041 0.0
C980 C 0.41875 0.9965 0.13255 0.0
C981 C 0.41949 0.0116 0.11944 0.0
C982 C 0.42661 0.02842 0.13436 0.0
C983 C 0.43251 0.02998 0.16231 0.0
C984 C 0.42302 0.01217 0.22455 0.0
C985 C 0.42597 0.02456 0.24681 0.0
C986 C 0.41265 0.02053 0.26642 0.0
C987 C 0.39616 0.00401 0.26396 0.0
C988 C 0.3931 0.99156 0.24176 0.0
C989 C 0.40642 0.99556 0.22222 0.0
C990 C 0.44988 0.01085 0.21129 0.0
C991 C 0.44435 0.99278 0.2189 0.0
C992 C 0.45709 0.98722 0.22321 0.0
C993 C 0.47559 0.99953 0.21981 0.0
C994 C 0.48105 0.01765 0.21265 0.0
C995 C 0.46832 0.0232 0.20847 0.0
H996 H 0.3982 0.92585 0.7983 0.0
N997 N 0.43015 0.95149 0.78141 0.0
H998 H 0.3833 0.92661 0.84141 0.0
H999 H 0.44626 0.97564 0.82602 0.0
H1000 H 0.4312 0.97672 0.86872 0.0
H1001 H 0.44078 0.98817 0.78511 0.0
H1002 H 0.42932 0.00379 0.75568 0.0
H1003 H 0.4101 0.93856 0.73444 0.0
H1004 H 0.39857 0.95434 0.70489 0.0
H1005 H 0.43514 0.92315 0.78589 0.0
H1006 H 0.46417 0.98173 0.77699 0.0
H1007 H 0.46359 0.92317 0.78938 0.0
H1008 H 0.49268 0.98182 0.77882 0.0
H1009 H 0.58054 0.9587 0.81639 0.0
H1010 H 0.59321 0.96408 0.86388 0.0
H1011 H 0.54169 0.95075 0.89677 0.0
H1012 H 0.52855 0.94511 0.84934 0.0
H1013 H 0.56823 0.98648 0.7948 0.0
H1014 H 0.59157 0.00143 0.75997 0.0
H1015 H 0.57638 0.94863 0.72197 0.0
H1016 H 0.55297 0.93364 0.75689 0.0
H1017 H 0.51576 0.92494 0.77295 0.0
H1018 H 0.48813 0.92621 0.76491 0.0
H1019 H 0.51263 0.97872 0.80965 0.0
N1020 N 0.54602 0.94951 0.79976 0.0
H1021 H 0.54046 0.97768 0.81614 0.0
C1022 C 0.42314 0.95078 0.80881 0.0
C1023 C 0.40563 0.93668 0.81398 0.0
C1024 C 0.39721 0.93709 0.83851 0.0
C1025 C 0.40617 0.95176 0.85806 0.0
C1026 C 0.42414 0.96528 0.85385 0.0
C1027 C 0.43264 0.96473 0.82942 0.0
C1028 C 0.42639 0.9621 0.76183 0.0
C1029 C 0.43197 0.98072 0.76731 0.0
C1030 C 0.42536 0.98967 0.7506 0.0
C1031 C 0.41308 0.98017 0.72825 0.0
C1032 C 0.40808 0.96186 0.72205 0.0
C1033 C 0.41471 0.95293 0.73873 0.0
C1034 C 0.44739 0.9523 0.78091 0.0
C1035 C 0.44768 0.93597 0.78411 0.0
C1036 C 0.46401 0.93603 0.78591 0.0
C1037 C 0.48056 0.9525 0.78419 0.0
C1038 C 0.48026 0.9689 0.78058 0.0
C1039 C 0.46385 0.96884 0.77921 0.0
C1040 C 0.55373 0.95299 0.82835 0.0
C1041 C 0.57185 0.95739 0.83343 0.0
C1042 C 0.57916 0.96025 0.86068 0.0
C1043 C 0.56847 0.95824 0.88362 0.0
C1044 C 0.55022 0.95277 0.87914 0.0
C1045 C 0.54283 0.94982 0.85186 0.0
C1046 C 0.55886 0.95889 0.77831 0.0
C1047 C 0.56966 0.97814 0.77869 0.0
C1048 C 0.58302 0.98665 0.75897 0.0
C1049 C 0.58564 0.97608 0.73857 0.0
C1050 C 0.5745 0.95695 0.73763 0.0
C1051 C 0.56121 0.94844 0.75741 0.0
C1052 C 0.53002 0.95099 0.79548 0.0
C1053 C 0.51512 0.93673 0.78088 0.0
C1054 C 0.49931 0.93746 0.7765 0.0
C1055 C 0.49796 0.95246 0.78697 0.0
C1056 C 0.51316 0.96704 0.80099 0.0
C1057 C 0.5291 0.96642 0.80491 0.0
H1058 H 0.96153 0.5629 0.8663 0.0
N1059 N 0.98475 0.56253 0.83049 0.0
H1060 H 0.96849 0.58079 0.91068 0.0
H1061 H 0.01838 0.58381 0.85521 0.0
H1062 H 0.02537 0.6021 0.8993 0.0
H1063 H 0.01515 0.59052 0.8082 0.0
H1064 H 0.01601 0.61446 0.77869 0.0
H1065 H 0.95693 0.56218 0.80441 0.0
H1066 H 0.95778 0.58625 0.77518 0.0
H1067 H 0.98218 0.53694 0.86537 0.0
H1068 H 0.00146 0.55827 0.78364 0.0
H1069 H 0.99134 0.51415 0.85796 0.0
H1070 H 0.01028 0.53537 0.77627 0.0
H1071 H 0.99571 0.43776 0.82624 0.0
H1072 H 0.99768 0.42169 0.86673 0.0
H1073 H 0.05233 0.46509 0.88451 0.0
H1074 H 0.0507 0.48106 0.84274 0.0
H1075 H 0.0442 0.45899 0.77754 0.0
H1076 H 0.03345 0.42997 0.75117 0.0
H1077 H 0.97895 0.42004 0.75321 0.0
H1078 H 0.98959 0.44903 0.77916 0.0
H1079 H 0.99137 0.46368 0.82461 0.0
H1080 H 0.98232 0.48673 0.8294 0.0
H1081 H 0.03209 0.52658 0.79272 0.0
N1082 N 0.02356 0.46895 0.80466 0.0
H1083 H 0.04093 0.50315 0.78747 0.0
C1084 C 0.98937 0.57203 0.85752 0.0
C1085 C 0.97547 0.57125 0.87358 0.0
C1086 C 0.97944 0.58148 0.89869 0.0
C1087 C 0.99742 0.59279 0.90804 0.0
C1088 C 0.01142 0.59349 0.89225 0.0
C1089 C 0.00743 0.58308 0.86718 0.0
C1090 C 0.98589 0.57454 0.8085 0.0
C1091 C 0.00257 0.58922 0.80049 0.0
C1092 C 0.00308 0.60282 0.78359 0.0
C1093 C 0.98695 0.60212 0.77503 0.0
C1094 C 0.97034 0.58695 0.78158 0.0
C1095 C 0.96985 0.57326 0.79815 0.0
C1096 C 0.99166 0.55009 0.82582 0.0
C1097 C 0.98865 0.53701 0.84605 0.0
C1098 C 0.99367 0.52377 0.84162 0.0
C1099 C 0.00158 0.52295 0.81652 0.0
C1100 C 0.00452 0.53585 0.79606 0.0
C1101 C 0.99949 0.54914 0.80048 0.0
C1102 C 0.02327 0.46059 0.831 0.0
C1103 C 0.00813 0.44404 0.83873 0.0
C1104 C 0.0092 0.43482 0.86196 0.0
C1105 C 0.02521 0.44211 0.8783 0.0
C1106 C 0.03991 0.45923 0.87194 0.0
C1107 C 0.03897 0.46832 0.84826 0.0
C1108 C 0.01778 0.45612 0.78095 0.0
C1109 C 0.03008 0.45107 0.771 0.0
C1110 C 0.02395 0.43452 0.75598 0.0
C1111 C 0.0054 0.42284 0.7506 0.0
C1112 C 0.99332 0.42894 0.75716 0.0
C1113 C 0.99947 0.44555 0.77213 0.0
C1114 C 0.01695 0.4817 0.80565 0.0
C1115 C 0.0003 0.47727 0.81731 0.0
C1116 C 0.99519 0.49056 0.82026 0.0
C1117 C 0.00658 0.50857 0.81174 0.0
C1118 C 0.02295 0.51281 0.79933 0.0
C1119 C 0.02804 0.49949 0.79636 0.0
H1120 H 0.45912 0.41661 0.83885 0.0
N1121 N 0.467 0.44471 0.80621 0.0
H1122 H 0.43818 0.40615 0.87775 0.0
H1123 H 0.45034 0.46236 0.8286 0.0
H1124 H 0.42962 0.45202 0.86775 0.0
H1125 H 0.44122 0.45019 0.78023 0.0
H1126 H 0.4154 0.42651 0.75246 0.0
H1127 H 0.4662 0.41667 0.77882 0.0
H1128 H 0.44026 0.39288 0.75133 0.0
H1129 H 0.49255 0.46357 0.84513 0.0
H1130 H 0.47272 0.46969 0.76448 0.0
H1131 H 0.51363 0.49617 0.84839 0.0
H1132 H 0.49474 0.50221 0.76672 0.0
H1133 H 0.58795 0.58434 0.84057 0.0
H1134 H 0.6003 0.59757 0.88722 0.0
H1135 H 0.55466 0.60492 0.90149 0.0
H1136 H 0.54235 0.59201 0.85412 0.0
H1137 H 0.56867 0.61088 0.78907 0.0
H1138 H 0.59235 0.62328 0.75402 0.0
H1139 H 0.59728 0.57493 0.75876 0.0
H1140 H 0.57438 0.56283 0.79377 0.0
H1141 H 0.56054 0.55225 0.83871 0.0
H1142 H 0.5398 0.51966 0.8333 0.0
H1143 H 0.5019 0.53031 0.78779 0.0
N1144 N 0.55647 0.57971 0.81606 0.0
H1145 H 0.5237 0.56319 0.79147 0.0
C1146 C 0.45628 0.44019 0.83091 0.0
C1147 C 0.45295 0.42455 0.84537 0.0
C1148 C 0.4411 0.41864 0.86745 0.0
C1149 C 0.43252 0.4284 0.87547 0.0
C1150 C 0.43629 0.44446 0.86183 0.0
C1151 C 0.44802 0.45027 0.83952 0.0
C1152 C 0.4557 0.43516 0.78175 0.0
C1153 C 0.44161 0.43819 0.7728 0.0
C1154 C 0.42683 0.42465 0.757 0.0
C1155 C 0.42586 0.40788 0.75027 0.0
C1156 C 0.44079 0.40574 0.75636 0.0
C1157 C 0.45563 0.41934 0.77189 0.0
C1158 C 0.48047 0.46399 0.80515 0.0
C1159 C 0.49286 0.47192 0.82793 0.0
C1160 C 0.50511 0.49065 0.82961 0.0
C1161 C 0.50594 0.50204 0.80789 0.0
C1162 C 0.49417 0.49401 0.78427 0.0
C1163 C 0.48152 0.47521 0.78292 0.0
C1164 C 0.56422 0.58737 0.8436 0.0
C1165 C 0.5806 0.58893 0.85341 0.0
C1166 C 0.58767 0.59645 0.8801 0.0
C1167 C 0.57845 0.60233 0.89761 0.0
C1168 C 0.56202 0.60058 0.88811 0.0
C1169 C 0.55502 0.59322 0.86124 0.0
C1170 C 0.56942 0.58585 0.79401 0.0
C1171 C 0.57474 0.6029 0.78232 0.0
C1172 C 0.5882 0.60995 0.76245 0.0
C1173 C 0.59641 0.59992 0.75387 0.0
C1174 C 0.59097 0.58278 0.7651 0.0
C1175 C 0.57773 0.57584 0.78511 0.0
C1176 C 0.5437 0.56026 0.81535 0.0
C1177 C 0.54779 0.54766 0.82759 0.0
C1178 C 0.53575 0.52887 0.82459 0.0
C1179 C 0.519 0.52215 0.81016 0.0
C1180 C 0.51477 0.53485 0.79854 0.0
C1181 C 0.52708 0.55367 0.80093 0.0
H1182 H 0.65492 0.87727 0.53239 0.0
N1183 N 0.69062 0.89487 0.54907 0.0
H1184 H 0.64139 0.88756 0.49626 0.0
H1185 H 0.70794 0.92077 0.51232 0.0
H1186 H 0.69444 0.93083 0.47589 0.0
H1187 H 0.66215 0.89265 0.57797 0.0
H1188 H 0.66358 0.91801 0.60564 0.0
H1189 H 0.72023 0.92186 0.57408 0.0
H1190 H 0.72163 0.94729 0.60204 0.0
H1191 H 0.70146 0.8774 0.51533 0.0
H1192 H 0.66914 0.86938 0.58773 0.0
H1193 H 0.69241 0.84509 0.51406 0.0
H1194 H 0.66089 0.83729 0.58766 0.0
H1195 H 0.68279 0.76036 0.525 0.0
H1196 H 0.68509 0.74694 0.48064 0.0
H1197 H 0.63125 0.73437 0.45598 0.0
H1198 H 0.62871 0.74761 0.50102 0.0
H1199 H 0.63262 0.72849 0.56365 0.0
H1200 H 0.64329 0.71136 0.59137 0.0
H1201 H 0.69551 0.76002 0.60266 0.0
H1202 H 0.68508 0.77713 0.57535 0.0
H1203 H 0.68619 0.79033 0.53044 0.0
H1204 H 0.6959 0.82264 0.53512 0.0
H1205 H 0.64304 0.80903 0.56376 0.0
N1206 N 0.65304 0.7615 0.54345 0.0
H1207 H 0.63385 0.77648 0.56075 0.0
C1208 C 0.68248 0.8984 0.52504 0.0
C1209 C 0.66365 0.88874 0.51979 0.0
C1210 C 0.65594 0.89453 0.49919 0.0
C1211 C 0.66698 0.90987 0.4835 0.0
C1212 C 0.68578 0.91886 0.48771 0.0
C1213 C 0.69346 0.91316 0.50838 0.0
C1214 C 0.69118 0.90539 0.57368 0.0
C1215 C 0.67527 0.90401 0.58429 0.0
C1216 C 0.67606 0.91851 0.60015 0.0
C1217 C 0.69269 0.93451 0.60566 0.0
C1218 C 0.70868 0.93497 0.59814 0.0
C1219 C 0.70789 0.92045 0.58226 0.0
C1220 C 0.68605 0.87598 0.55141 0.0
C1221 C 0.69266 0.86871 0.53127 0.0
C1222 C 0.68755 0.8502 0.53074 0.0
C1223 C 0.67592 0.83845 0.55082 0.0
C1224 C 0.6696 0.84581 0.57153 0.0
C1225 C 0.67448 0.86435 0.57172 0.0
C1226 C 0.65545 0.75499 0.51648 0.0
C1227 C 0.67143 0.75484 0.5102 0.0
C1228 C 0.67277 0.74711 0.48488 0.0
C1229 C 0.6583 0.73957 0.46521 0.0
C1230 C 0.6425 0.74004 0.47105 0.0
C1231 C 0.6411 0.74766 0.49655 0.0
C1232 C 0.65798 0.75399 0.56675 0.0
C1233 C 0.6461 0.73568 0.57316 0.0
C1234 C 0.65217 0.72594 0.58895 0.0
C1235 C 0.6702 0.73448 0.59874 0.0
C1236 C 0.68153 0.75329 0.59528 0.0
C1237 C 0.67549 0.76303 0.57942 0.0
C1238 C 0.65922 0.78088 0.54541 0.0
C1239 C 0.67668 0.7942 0.53789 0.0
C1240 C 0.68219 0.81281 0.54039 0.0
C1241 C 0.67026 0.81859 0.54969 0.0
C1242 C 0.65275 0.8052 0.55701 0.0
C1243 C 0.64738 0.78656 0.55505 0.0
H1244 H 0.25821 0.86589 0.53366 0.0
N1245 N 0.23718 0.87053 0.56942 0.0
H1246 H 0.27363 0.88517 0.49379 0.0
H1247 H 0.23013 0.89596 0.54618 0.0
H1248 H 0.24521 0.91479 0.50661 0.0
H1249 H 0.26899 0.88294 0.59516 0.0
H1250 H 0.28618 0.91273 0.61987 0.0
H1251 H 0.22133 0.88809 0.59542 0.0
H1252 H 0.23856 0.91795 0.6202 0.0
H1253 H 0.22812 0.8378 0.58827 0.0
H1254 H 0.20515 0.86841 0.5522 0.0
H1255 H 0.19849 0.80997 0.58495 0.0
H1256 H 0.17593 0.84069 0.54726 0.0
H1257 H 0.11234 0.72672 0.51179 0.0
H1258 H 0.09982 0.71833 0.46349 0.0
H1259 H 0.09585 0.76735 0.46089 0.0
H1260 H 0.10918 0.77614 0.50858 0.0
H1261 H 0.09144 0.76502 0.54794 0.0
H1262 H 0.06826 0.75424 0.58315 0.0
H1263 H 0.08965 0.72232 0.61958 0.0
H1264 H 0.11307 0.73318 0.5841 0.0
H1265 H 0.15092 0.76075 0.54031 0.0
H1266 H 0.17953 0.78911 0.54939 0.0
H1267 H 0.1503 0.8174 0.56844 0.0
N1268 N 0.11783 0.75565 0.54273 0.0
H1269 H 0.12191 0.78923 0.55787 0.0
C1270 C 0.24288 0.87925 0.54285 0.0
C1271 C 0.25487 0.87613 0.52724 0.0
C1272 C 0.26366 0.8871 0.50463 0.0
C1273 C 0.26045 0.9013 0.49735 0.0
C1274 C 0.24768 0.90375 0.51182 0.0
C1275 C 0.23898 0.89287 0.53439 0.0
C1276 C 0.24402 0.88343 0.59296 0.0
C1277 C 0.26199 0.89001 0.60193 0.0
C1278 C 0.2718 0.90702 0.61594 0.0
C1279 C 0.26367 0.91758 0.62147 0.0
C1280 C 0.24502 0.90992 0.61613 0.0
C1281 C 0.2352 0.89287 0.60193 0.0
C1282 C 0.21905 0.85516 0.57017 0.0
C1283 C 0.21666 0.83853 0.57979 0.0
C1284 C 0.19975 0.82261 0.57753 0.0
C1285 C 0.18482 0.82293 0.56528 0.0
C1286 C 0.18705 0.83985 0.55691 0.0
C1287 C 0.20394 0.85583 0.55951 0.0
C1288 C 0.11144 0.75185 0.51389 0.0
C1289 C 0.10895 0.73573 0.50064 0.0
C1290 C 0.10182 0.73097 0.47322 0.0
C1291 C 0.09676 0.74214 0.45877 0.0
C1292 C 0.0996 0.75851 0.47177 0.0
C1293 C 0.10709 0.76346 0.49903 0.0
C1294 C 0.10407 0.74986 0.56335 0.0
C1295 C 0.09128 0.75574 0.56336 0.0
C1296 C 0.07801 0.7496 0.58347 0.0
C1297 C 0.0773 0.7375 0.6038 0.0
C1298 C 0.09004 0.73165 0.60395 0.0
C1299 C 0.10334 0.73783 0.58384 0.0
C1300 C 0.13429 0.77275 0.54859 0.0
C1301 C 0.15076 0.77311 0.54644 0.0
C1302 C 0.16708 0.78932 0.55194 0.0
C1303 C 0.1673 0.8056 0.56 0.0
C1304 C 0.15071 0.80521 0.56208 0.0
C1305 C 0.13437 0.789 0.55623 0.0
H1306 H 0.22356 0.31437 0.51782 0.0
N1307 N 0.21128 0.32806 0.55614 0.0
H1308 H 0.24475 0.33092 0.48094 0.0
H1309 H 0.22391 0.36392 0.54333 0.0
H1310 H 0.24485 0.38044 0.50594 0.0
H1311 H 0.23329 0.35757 0.59054 0.0
H1312 H 0.25436 0.3583 0.62705 0.0
H1313 H 0.21209 0.29957 0.57685 0.0
H1314 H 0.23318 0.30028 0.61317 0.0
H1315 H 0.18063 0.30109 0.53441 0.0
H1316 H 0.20303 0.3522 0.58177 0.0
H1317 H 0.15107 0.29895 0.53279 0.0
H1318 H 0.17339 0.35018 0.58055 0.0
H1319 H 0.09743 0.35175 0.52171 0.0
H1320 H 0.08916 0.35776 0.47517 0.0
H1321 H 0.06597 0.30058 0.45129 0.0
H1322 H 0.07427 0.29457 0.49788 0.0
H1323 H 0.10198 0.35028 0.57111 0.0
H1324 H 0.08659 0.3548 0.61089 0.0
H1325 H 0.04454 0.29814 0.6025 0.0
H1326 H 0.05982 0.29369 0.5625 0.0
H1327 H 0.09705 0.29201 0.55465 0.0
H1328 H 0.1265 0.29433 0.56243 0.0
H1329 H 0.15284 0.35208 0.54527 0.0
N1330 N 0.09038 0.31831 0.54049 0.0
H1331 H 0.1233 0.34964 0.5381 0.0
C1332 C 0.22216 0.33786 0.53313 0.0
C1333 C 0.228 0.32873 0.51512 0.0
C1334 C 0.24006 0.33815 0.49424 0.0
C1335 C 0.24641 0.35688 0.491 0.0
C1336 C 0.24011 0.36599 0.50832 0.0
C1337 C 0.22815 0.35656 0.52952 0.0
C1338 C 0.22104 0.32841 0.58119 0.0
C1339 C 0.2328 0.34492 0.59593 0.0
C1340 C 0.24491 0.34538 0.61654 0.0
C1341 C 0.24541 0.32938 0.62247 0.0
C1342 C 0.23302 0.31276 0.60876 0.0
C1343 C 0.22093 0.31231 0.58829 0.0
C1344 C 0.19392 0.32671 0.55818 0.0
C1345 C 0.17903 0.3117 0.54482 0.0
C1346 C 0.16217 0.31051 0.54401 0.0
C1347 C 0.15986 0.3244 0.55657 0.0
C1348 C 0.17479 0.33935 0.57044 0.0
C1349 C 0.1917 0.34048 0.57131 0.0
C1350 C 0.08641 0.32263 0.5132 0.0
C1351 C 0.09067 0.34052 0.5065 0.0
C1352 C 0.08595 0.34396 0.48 0.0
C1353 C 0.07691 0.32958 0.45997 0.0
C1354 C 0.07291 0.31182 0.46655 0.0
C1355 C 0.07763 0.3084 0.49298 0.0
C1356 C 0.08192 0.3216 0.56386 0.0
C1357 C 0.08943 0.33887 0.57769 0.0
C1358 C 0.0807 0.34145 0.60036 0.0
C1359 C 0.06449 0.32678 0.60946 0.0
C1360 C 0.05705 0.30957 0.59568 0.0
C1361 C 0.06571 0.30704 0.573 0.0
C1362 C 0.10799 0.32053 0.54557 0.0
C1363 C 0.10921 0.30516 0.55272 0.0
C1364 C 0.12603 0.30652 0.55705 0.0
C1365 C 0.14203 0.32337 0.55427 0.0
C1366 C 0.14078 0.33894 0.54781 0.0
C1367 C 0.12389 0.33754 0.54349 0.0
C1368 C 0.00445 0.40249 0.06477 0.0
C1369 C 0.99251 0.38391 0.05654 0.0
C1370 C 0.97741 0.37887 0.10137 0.0
C1371 C 0.9878 0.39797 0.10791 0.0
N1372 N 0.00934 0.4285 0.09399 0.0
N1373 N 0.96682 0.35446 0.06573 0.0
C1374 C 0.00088 0.40994 0.08915 0.0
C1375 C 0.97873 0.3721 0.07449 0.0
N1376 N 0.01938 0.41294 0.04956 0.0
N1377 N 0.96682 0.36713 0.12122 0.0
H1378 H 0.96809 0.34876 0.04693 0.0
H1379 H 0.95517 0.34583 0.07628 0.0
H1380 H 0.9657 0.37155 0.14126 0.0
H1381 H 0.96037 0.35292 0.11878 0.0
H1382 H 0.02951 0.42603 0.05604 0.0
H1383 H 0.02258 0.40785 0.03184 0.0
H1384 H 0.01753 0.43796 0.07952 0.0
H1385 H 0.00691 0.43453 0.1114 0.0
C1386 C 0.63191 0.60665 0.11906 0.0
C1387 C 0.62271 0.60709 0.09428 0.0
C1388 C 0.59482 0.58038 0.10912 0.0
C1389 C 0.60363 0.58096 0.1349 0.0
N1390 N 0.62952 0.59654 0.16676 0.0
N1391 N 0.59496 0.59633 0.06732 0.0
C1392 C 0.62193 0.59457 0.1405 0.0
C1393 C 0.60401 0.59451 0.08976 0.0
N1394 N 0.65024 0.61774 0.12209 0.0
N1395 N 0.57783 0.56609 0.10294 0.0
H1396 H 0.60139 0.60643 0.05271 0.0
H1397 H 0.58098 0.58886 0.06436 0.0
H1398 H 0.57071 0.55557 0.11675 0.0
H1399 H 0.57136 0.56383 0.08336 0.0
H1400 H 0.65796 0.61647 0.13807 0.0
H1401 H 0.65799 0.62742 0.10752 0.0
H1402 H 0.64206 0.60755 0.17308 0.0
H1403 H 0.62269 0.58802 0.18315 0.0
C1404 C 0.38905 0.00851 0.0579 0.0
C1405 C 0.39678 0.0037 0.03557 0.0
C1406 C 0.4211 0.00708 0.06757 0.0
C1407 C 0.41202 0.0095 0.0904 0.0
N1408 N 0.38571 0.00944 0.10801 0.0
N1409 N 0.41872 0.99574 0.01974 0.0
C1410 C 0.39555 0.00942 0.08578 0.0
C1411 C 0.41251 0.00237 0.04047 0.0
N1412 N 0.37588 0.01281 0.0524 0.0
N1413 N 0.43809 0.00965 0.07168 0.0
H1414 H 0.41268 0.9919 0.99971 0.0
H1415 H 0.42889 0.99256 0.02306 0.0
H1416 H 0.4448 0.01315 0.09125 0.0
H1417 H 0.44613 0.00994 0.05535 0.0
H1418 H 0.37108 0.01824 0.06755 0.0
H1419 H 0.37102 0.01276 0.03216 0.0
H1420 H 0.37264 0.00731 0.10581 0.0
H1421 H 0.38987 0.00991 0.12884 0.0
C1422 C 0.3894 0.95587 0.92996 0.0
C1423 C 0.37546 0.95946 0.92176 0.0
C1424 C 0.38292 0.95961 0.87256 0.0
C1425 C 0.3958 0.95445 0.88035 0.0
N1426 N 0.40968 0.94505 0.91576 0.0
N1427 N 0.35599 0.96018 0.88509 0.0
C1428 C 0.39858 0.95179 0.9089 0.0
C1429 C 0.37135 0.95998 0.89299 0.0
N1430 N 0.39434 0.95711 0.95766 0.0
N1431 N 0.38219 0.96486 0.84584 0.0
H1432 H 0.34678 0.95988 0.89939 0.0
H1433 H 0.3514 0.95866 0.8643 0.0
H1434 H 0.39066 0.96516 0.83018 0.0
H1435 H 0.3744 0.97067 0.83994 0.0
H1436 H 0.40568 0.95662 0.96472 0.0
H1437 H 0.38785 0.96001 0.97356 0.0
H1438 H 0.41086 0.94107 0.93585 0.0
H1439 H 0.41671 0.9421 0.90082 0.0
C1440 C 0.01737 0.41702 0.94677 0.0
C1441 C 0.02436 0.40533 0.94012 0.0
C1442 C 0.03521 0.42058 0.89555 0.0
C1443 C 0.02663 0.431 0.90095 0.0
N1444 N 0.0094 0.43939 0.93092 0.0
N1445 N 0.03871 0.39469 0.90773 0.0
C1446 C 0.01778 0.42939 0.92649 0.0
C1447 C 0.0332 0.40695 0.91457 0.0
N1448 N 0.01064 0.41644 0.97271 0.0
N1449 N 0.04513 0.42361 0.87206 0.0
H1450 H 0.03781 0.3847 0.92122 0.0
H1451 H 0.04312 0.39352 0.88804 0.0
H1452 H 0.04599 0.43257 0.85664 0.0
H1453 H 0.05352 0.41818 0.86857 0.0
H1454 H 0.00684 0.42565 0.9802 0.0
H1455 H 0.01 0.40734 0.9877 0.0
H1456 H 0.0009 0.43743 0.94741 0.0
H1457 H 0.01039 0.44936 0.91728 0.0
C1458 C 0.59653 0.60556 0.97197 0.0
C1459 C 0.60308 0.6243 0.97913 0.0
C1460 C 0.59356 0.62886 0.93264 0.0
C1461 C 0.58593 0.60983 0.92624 0.0
N1462 N 0.57656 0.5794 0.94181 0.0
N1463 N 0.60558 0.65332 0.96839 0.0
C1464 C 0.58634 0.59797 0.94654 0.0
C1465 C 0.60078 0.63579 0.96015 0.0
N1466 N 0.60045 0.59508 0.98906 0.0
N1467 N 0.59471 0.64044 0.91207 0.0
H1468 H 0.61161 0.65909 0.98796 0.0
H1469 H 0.60242 0.6617 0.95667 0.0
H1470 H 0.58967 0.63592 0.89164 0.0
H1471 H 0.60191 0.65467 0.91456 0.0
H1472 H 0.59778 0.58194 0.9834 0.0
H1473 H 0.60777 0.60005 0.00799 0.0
H1474 H 0.5748 0.56998 0.95701 0.0
H1475 H 0.56873 0.57333 0.92354 0.0
C1476 C 0.00496 0.63123 0.95973 0.0
C1477 C 0.00353 0.62256 0.98552 0.0
C1478 C 0.00264 0.59643 0.96015 0.0
C1479 C 0.00136 0.6039 0.93446 0.0
N1480 N 0.0005 0.62794 0.90913 0.0
N1481 N 0.99949 0.59604 0.0104 0.0
C1482 C 0.00241 0.62124 0.93405 0.0
C1483 C 0.00224 0.60504 0.98584 0.0
N1484 N 0.00936 0.64923 0.95988 0.0
N1485 N 0.00424 0.58107 0.95996 0.0
H1486 H 0.99919 0.60166 0.02983 0.0
H1487 H 0.99611 0.58236 0.01141 0.0
H1488 H 0.004 0.57407 0.94154 0.0
H1489 H 0.00732 0.57613 0.97781 0.0
H1490 H 0.01231 0.6569 0.94191 0.0
H1491 H 0.0118 0.65706 0.97834 0.0
H1492 H 0.99891 0.63937 0.90765 0.0
H1493 H 0.99944 0.62141 0.8898 0.0
C1494 C 0.38761 0.39697 0.90703 0.0
C1495 C 0.39244 0.40047 0.93601 0.0
C1496 C 0.42292 0.42462 0.92541 0.0
C1497 C 0.41829 0.42064 0.89642 0.0
N1498 N 0.39561 0.40635 0.85923 0.0
N1499 N 0.41263 0.41996 0.97328 0.0
C1500 C 0.40036 0.40791 0.88711 0.0
C1501 C 0.40945 0.41517 0.94538 0.0
N1502 N 0.37099 0.38276 0.89862 0.0
N1503 N 0.44035 0.4369 0.93371 0.0
H1504 H 0.40296 0.4131 0.98825 0.0
H1505 H 0.42419 0.43149 0.98142 0.0
H1506 H 0.45033 0.44452 0.91954 0.0
H1507 H 0.44518 0.43897 0.9544 0.0
H1508 H 0.3674 0.37786 0.87797 0.0
H1509 H 0.36085 0.37524 0.91263 0.0
H1510 H 0.3824 0.39868 0.85129 0.0
H1511 H 0.40473 0.4139 0.84397 0.0
C1512 C 0.58925 0.9534 0.95177 0.0
C1513 C 0.59341 0.96999 0.96636 0.0
C1514 C 0.58226 0.97936 0.92578 0.0
C1515 C 0.57658 0.96207 0.91242 0.0
N1516 N 0.57196 0.93146 0.91408 0.0
N1517 N 0.59138 0.99759 0.96905 0.0
C1518 C 0.57924 0.94872 0.92587 0.0
C1519 C 0.58927 0.98269 0.95384 0.0
N1520 N 0.59568 0.94261 0.96188 0.0
N1521 N 0.58144 0.99281 0.91134 0.0
H1522 H 0.59665 0.00075 0.98954 0.0
H1523 H 0.58655 0.00605 0.96221 0.0
H1524 H 0.57604 0.99079 0.89094 0.0
H1525 H 0.58738 0.00637 0.9187 0.0
H1526 H 0.5947 0.9314 0.95069 0.0
H1527 H 0.60361 0.94584 0.98026 0.0
H1528 H 0.57173 0.92056 0.92435 0.0
H1529 H 0.56476 0.92762 0.89491 0.0
C1530 C 0.58099 0.99232 0.07597 0.0
C1531 C 0.59952 0.00187 0.08437 0.0
C1532 C 0.59194 0.00634 0.13206 0.0
C1533 C 0.57333 0.99531 0.12433 0.0
N1534 N 0.54969 0.97759 0.08975 0.0
N1535 N 0.62309 0.01746 0.11995 0.0
C1536 C 0.56772 0.98835 0.0964 0.0
C1537 C 0.60513 0.00896 0.11222 0.0
N1538 N 0.57621 0.98723 0.04838 0.0
N1539 N 0.59696 0.01421 0.15846 0.0
H1540 H 0.63323 0.02033 0.10575 0.0
H1541 H 0.62803 0.0209 0.14056 0.0
H1542 H 0.58781 0.01169 0.17424 0.0
H1543 H 0.61008 0.02411 0.16451 0.0
H1544 H 0.56313 0.98162 0.04003 0.0
H1545 H 0.5857 0.98972 0.03323 0.0
H1546 H 0.54456 0.97038 0.07075 0.0
H1547 H 0.53964 0.97524 0.10387 0.0
C1548 C 0.9695 0.58885 0.08275 0.0
C1549 C 0.97073 0.60503 0.09464 0.0
C1550 C 0.97729 0.59764 0.14116 0.0
C1551 C 0.97725 0.5821 0.12907 0.0
N1552 N 0.96957 0.56038 0.0906 0.0
N1553 N 0.9701 0.62186 0.1355 0.0
C1554 C 0.97198 0.57681 0.10053 0.0
C1555 C 0.97281 0.60845 0.12403 0.0
N1556 N 0.96681 0.5855 0.05443 0.0
N1557 N 0.98236 0.60247 0.16877 0.0
H1558 H 0.96645 0.62976 0.12343 0.0
H1559 H 0.96973 0.62401 0.15696 0.0
H1560 H 0.9849 0.59442 0.18238 0.0
H1561 H 0.98492 0.61487 0.17798 0.0
H1562 H 0.96721 0.57479 0.04392 0.0
H1563 H 0.96488 0.59398 0.04092 0.0
H1564 H 0.96448 0.55485 0.07062 0.0
H1565 H 0.97153 0.55151 0.10326 0.0
C1566 C 0.42201 0.39706 0.05665 0.0
C1567 C 0.40464 0.38106 0.05414 0.0
C1568 C 0.40298 0.38029 0.10541 0.0
C1569 C 0.42103 0.39508 0.10781 0.0
N1570 N 0.449 0.41524 0.08575 0.0
N1571 N 0.38022 0.35522 0.07622 0.0
C1572 C 0.43093 0.4028 0.08343 0.0
C1573 C 0.39554 0.37205 0.07856 0.0
N1574 N 0.42969 0.40734 0.03377 0.0
N1575 N 0.39273 0.37445 0.12866 0.0
H1576 H 0.37469 0.34837 0.05701 0.0
H1577 H 0.37405 0.34723 0.09337 0.0
H1578 H 0.39765 0.38023 0.14868 0.0
H1579 H 0.37892 0.36506 0.12774 0.0
H1580 H 0.44135 0.42019 0.03507 0.0
H1581 H 0.42356 0.40397 0.01383 0.0
H1582 H 0.4573 0.4198 0.06856 0.0
H1583 H 0.45607 0.41975 0.10498 0.0
C1584 C 0.65156 0.70465 0.40715 0.0
C1585 C 0.66455 0.71624 0.38803 0.0
C1586 C 0.67178 0.74315 0.41796 0.0
C1587 C 0.65996 0.73146 0.43828 0.0
N1588 N 0.64067 0.70092 0.4545 0.0
N1589 N 0.68932 0.746 0.37718 0.0
C1590 C 0.65036 0.71213 0.4335 0.0
C1591 C 0.67537 0.73535 0.39404 0.0
N1592 N 0.64026 0.68656 0.39997 0.0
N1593 N 0.6791 0.76172 0.42105 0.0
H1594 H 0.69239 0.74083 0.35941 0.0
H1595 H 0.69887 0.75962 0.38215 0.0
H1596 H 0.67664 0.76796 0.43817 0.0
H1597 H 0.68623 0.77084 0.4055 0.0
H1598 H 0.62919 0.67783 0.41159 0.0
H1599 H 0.64124 0.68054 0.38127 0.0
H1600 H 0.63496 0.68673 0.45339 0.0
H1601 H 0.63951 0.70589 0.47408 0.0
C1602 C 0.29482 0.94715 0.46941 0.0
C1603 C 0.2917 0.94355 0.44006 0.0
C1604 C 0.26859 0.9117 0.44797 0.0
C1605 C 0.27205 0.91522 0.47725 0.0
N1606 N 0.29112 0.93466 0.51572 0.0
N1607 N 0.27844 0.92188 0.40101 0.0
C1608 C 0.28599 0.93249 0.48794 0.0
C1609 C 0.27952 0.92561 0.4292 0.0
N1610 N 0.3061 0.96463 0.47962 0.0
N1611 N 0.25442 0.89535 0.43821 0.0
H1612 H 0.28573 0.93187 0.38655 0.0
H1613 H 0.27127 0.90869 0.39206 0.0
H1614 H 0.24639 0.88476 0.45138 0.0
H1615 H 0.24985 0.89269 0.41734 0.0
H1616 H 0.30708 0.96854 0.5007 0.0
H1617 H 0.31382 0.97558 0.46683 0.0
H1618 H 0.30243 0.94628 0.52429 0.0
H1619 H 0.28504 0.92417 0.52991 0.0
C1620 C 0.07357 0.3319 0.38096 0.0
C1621 C 0.05837 0.33438 0.37789 0.0
C1622 C 0.05573 0.33451 0.42896 0.0
C1623 C 0.07139 0.33288 0.43201 0.0
N1624 N 0.09759 0.33424 0.4117 0.0
N1625 N 0.03771 0.34244 0.39879 0.0
C1626 C 0.0811 0.33298 0.40821 0.0
C1627 C 0.05029 0.33705 0.40188 0.0
N1628 N 0.08015 0.32736 0.35815 0.0
N1629 N 0.04562 0.33288 0.45172 0.0
H1630 H 0.03373 0.34485 0.37928 0.0
H1631 H 0.03256 0.34626 0.41557 0.0
H1632 H 0.04927 0.33126 0.47199 0.0
H1633 H 0.03294 0.33175 0.45025 0.0
H1634 H 0.08977 0.32325 0.35966 0.0
H1635 H 0.07497 0.32612 0.3378 0.0
H1636 H 0.10616 0.33629 0.39524 0.0
H1637 H 0.10344 0.33495 0.43141 0.0
C1638 C 0.03825 0.29835 0.23275 0.0
C1639 C 0.04132 0.29688 0.26161 0.0
C1640 C 0.06628 0.29171 0.25015 0.0
C1641 C 0.06462 0.29563 0.22182 0.0
N1642 N 0.05109 0.30597 0.187 0.0
N1643 N 0.059 0.29364 0.2986 0.0
C1644 C 0.05113 0.2998 0.2133 0.0
C1645 C 0.05545 0.29379 0.27061 0.0
N1646 N 0.02273 0.29788 0.2238 0.0
N1647 N 0.078 0.28577 0.25733 0.0
H1648 H 0.05118 0.29489 0.31405 0.0
H1649 H 0.07035 0.29353 0.30659 0.0
H1650 H 0.0862 0.28429 0.24281 0.0
H1651 H 0.07861 0.28099 0.27703 0.0
H1652 H 0.01893 0.29702 0.20271 0.0
H1653 H 0.01268 0.29636 0.23739 0.0
H1654 H 0.04282 0.31118 0.18087 0.0
H1655 H 0.06045 0.30757 0.17202 0.0
C1656 C 0.71835 0.74918 0.26285 0.0
C1657 C 0.70261 0.7407 0.27915 0.0
C1658 C 0.68993 0.75661 0.25309 0.0
C1659 C 0.7061 0.766 0.23809 0.0
N1660 N 0.73762 0.77521 0.23506 0.0
N1661 N 0.67696 0.74196 0.29626 0.0
C1662 C 0.72097 0.76362 0.24513 0.0
C1663 C 0.6895 0.74619 0.2763 0.0
N1664 N 0.73021 0.74277 0.26263 0.0
N1665 N 0.67463 0.75665 0.24442 0.0
H1666 H 0.6773 0.73557 0.3145 0.0
H1667 H 0.66793 0.74687 0.29634 0.0
H1668 H 0.6739 0.76325 0.22662 0.0
H1669 H 0.66215 0.7485 0.25332 0.0
H1670 H 0.74077 0.74733 0.24876 0.0
H1671 H 0.7286 0.73172 0.27414 0.0
H1672 H 0.74925 0.77508 0.24158 0.0
H1673 H 0.74006 0.78619 0.22255 0.0
C1674 C 0.27469 0.95911 0.2991 0.0
C1675 C 0.2683 0.94973 0.32447 0.0
C1676 C 0.24741 0.92165 0.29741 0.0
C1677 C 0.25564 0.93036 0.27241 0.0
N1678 N 0.27856 0.95674 0.24933 0.0
N1679 N 0.25014 0.92123 0.34785 0.0
C1680 C 0.26965 0.94895 0.27318 0.0
C1681 C 0.25494 0.9308 0.3237 0.0
N1682 N 0.28503 0.97781 0.29971 0.0
N1683 N 0.23222 0.9047 0.29599 0.0
H1684 H 0.25526 0.9272 0.36764 0.0
H1685 H 0.24219 0.90701 0.34812 0.0
H1686 H 0.22641 0.89753 0.27708 0.0
H1687 H 0.22447 0.89848 0.31328 0.0
H1688 H 0.28866 0.98553 0.28174 0.0
H1689 H 0.28845 0.9858 0.31821 0.0
H1690 H 0.29028 0.96953 0.24927 0.0
H1691 H 0.27509 0.94984 0.22984 0.0
C1692 C 0.68597 0.94473 0.31649 0.0
C1693 C 0.68226 0.95943 0.31652 0.0
C1694 C 0.68254 0.95923 0.2651 0.0
C1695 C 0.68791 0.94578 0.26533 0.0
N1696 N 0.69821 0.92833 0.29142 0.0
N1697 N 0.6811 0.98338 0.29116 0.0
C1698 C 0.69065 0.93929 0.29109 0.0
C1699 C 0.68166 0.96744 0.29089 0.0
N1700 N 0.68423 0.93535 0.34036 0.0
N1701 N 0.6778 0.9638 0.24032 0.0
H1702 H 0.68119 0.99026 0.3096 0.0
H1703 H 0.68247 0.99079 0.27326 0.0
H1704 H 0.6782 0.95804 0.22099 0.0
H1705 H 0.67193 0.97203 0.23916 0.0
H1706 H 0.68468 0.92323 0.34067 0.0
H1707 H 0.68067 0.93863 0.35943 0.0
H1708 H 0.7024 0.92487 0.3098 0.0
H1709 H 0.70186 0.92406 0.27327 0.0
C1710 C 0.04159 0.741 0.23694 0.0
C1711 C 0.04673 0.74515 0.26572 0.0
C1712 C 0.07016 0.77619 0.25437 0.0
C1713 C 0.06658 0.77109 0.22544 0.0
N1714 N 0.05067 0.7477 0.18901 0.0
N1715 N 0.06643 0.76603 0.30235 0.0
C1716 C 0.05268 0.75327 0.21663 0.0
C1717 C 0.06106 0.76265 0.27469 0.0
N1718 N 0.02584 0.72542 0.22907 0.0
N1719 N 0.08209 0.79399 0.2623 0.0
H1720 H 0.0598 0.75651 0.31774 0.0
H1721 H 0.07807 0.77775 0.30984 0.0
H1722 H 0.08898 0.80414 0.24783 0.0
H1723 H 0.08408 0.79902 0.28293 0.0
H1724 H 0.02044 0.72262 0.20864 0.0
H1725 H 0.0172 0.71616 0.24344 0.0
H1726 H 0.04218 0.7342 0.18198 0.0
H1727 H 0.0586 0.75612 0.17326 0.0
C1728 C 0.2749 0.35612 0.30691 0.0
C1729 C 0.27898 0.34238 0.31469 0.0
C1730 C 0.26913 0.32782 0.26778 0.0
C1731 C 0.26333 0.34049 0.26122 0.0
N1732 N 0.25652 0.36365 0.27715 0.0
N1733 N 0.27807 0.31383 0.30401 0.0
C1734 C 0.26496 0.35372 0.2816 0.0
C1735 C 0.27538 0.32772 0.29562 0.0
N1736 N 0.28088 0.37173 0.32319 0.0
N1737 N 0.26951 0.31654 0.24717 0.0
H1738 H 0.28354 0.31381 0.32373 0.0
H1739 H 0.27382 0.30179 0.29211 0.0
H1740 H 0.26529 0.3164 0.22648 0.0
H1741 H 0.27538 0.30841 0.25 0.0
H1742 H 0.27977 0.3829 0.31689 0.0
H1743 H 0.28866 0.37442 0.34158 0.0
H1744 H 0.25573 0.37214 0.29255 0.0
H1745 H 0.24864 0.36191 0.25915 0.0
C1746 C 0.29182 0.38279 0.45698 0.0
C1747 C 0.28645 0.37487 0.42958 0.0
C1748 C 0.25472 0.36229 0.44101 0.0
C1749 C 0.26006 0.36663 0.46966 0.0
N1750 N 0.28364 0.38117 0.5056 0.0
N1751 N 0.26303 0.3579 0.3945 0.0
C1752 C 0.27861 0.37736 0.47783 0.0
C1753 C 0.26794 0.36514 0.42114 0.0
N1754 N 0.3096 0.39505 0.46314 0.0
N1755 N 0.23697 0.35522 0.43309 0.0
H1756 H 0.27254 0.36062 0.37934 0.0
H1757 H 0.24978 0.34874 0.38779 0.0
H1758 H 0.22712 0.35312 0.44748 0.0
H1759 H 0.23231 0.35305 0.41229 0.0
H1760 H 0.31421 0.40252 0.48207 0.0
H1761 H 0.31953 0.39905 0.44823 0.0
H1762 H 0.29694 0.38692 0.5131 0.0
H1763 H 0.27438 0.37761 0.52149 0.0
C1764 C 0.65118 0.942 0.45786 0.0
C1765 C 0.65028 0.93849 0.42855 0.0
C1766 C 0.65528 0.91265 0.43631 0.0
C1767 C 0.65899 0.91808 0.46508 0.0
N1768 N 0.66026 0.93742 0.50401 0.0
N1769 N 0.65047 0.92024 0.38921 0.0
C1770 C 0.65665 0.93248 0.47615 0.0
C1771 C 0.65172 0.92351 0.41756 0.0
N1772 N 0.64631 0.95413 0.46813 0.0
N1773 N 0.65529 0.89718 0.42709 0.0
H1774 H 0.64765 0.9278 0.37501 0.0
H1775 H 0.65301 0.91066 0.37944 0.0
H1776 H 0.65817 0.88922 0.44038 0.0
H1777 H 0.65128 0.89145 0.40693 0.0
H1778 H 0.64498 0.9561 0.48934 0.0
H1779 H 0.64194 0.96111 0.45521 0.0
H1780 H 0.6611 0.94924 0.51279 0.0
H1781 H 0.6633 0.93011 0.5184 0.0
C1782 C 0.08696 0.74228 0.38046 0.0
C1783 C 0.07088 0.72503 0.37652 0.0
C1784 C 0.07078 0.72015 0.42697 0.0
C1785 C 0.0879 0.73632 0.43037 0.0
N1786 N 0.11403 0.76081 0.40922 0.0
N1787 N 0.04999 0.69562 0.39518 0.0
C1788 C 0.09653 0.74683 0.40677 0.0
C1789 C 0.06348 0.71339 0.39954 0.0
N1790 N 0.09269 0.7547 0.35965 0.0
N1791 N 0.06114 0.71158 0.4499 0.0
H1792 H 0.04477 0.6898 0.37529 0.0
H1793 H 0.04537 0.68609 0.41097 0.0
H1794 H 0.06573 0.71636 0.47041 0.0
H1795 H 0.04781 0.70083 0.44846 0.0
H1796 H 0.10326 0.76815 0.36254 0.0
H1797 H 0.0858 0.75223 0.34037 0.0
H1798 H 0.12155 0.76769 0.39206 0.0
H1799 H 0.1216 0.76437 0.42802 0.0
C1800 C 0.33671 0.07285 0.70758 0.0
C1801 C 0.33551 0.05537 0.70691 0.0
C1802 C 0.33793 0.05647 0.7583 0.0
C1803 C 0.33775 0.07322 0.75891 0.0
N1804 N 0.33265 0.0951 0.73454 0.0
N1805 N 0.33044 0.02862 0.73183 0.0
C1806 C 0.33577 0.08069 0.73365 0.0
C1807 C 0.33478 0.04659 0.73236 0.0
N1808 N 0.33979 0.08252 0.68367 0.0
N1809 N 0.34182 0.05031 0.78227 0.0
H1810 H 0.32739 0.02072 0.7133 0.0
H1811 H 0.32799 0.02102 0.74983 0.0
H1812 H 0.34435 0.05719 0.80168 0.0
H1813 H 0.34409 0.03927 0.78243 0.0
H1814 H 0.34288 0.09615 0.68367 0.0
H1815 H 0.34102 0.07768 0.66409 0.0
H1816 H 0.3292 0.09987 0.71682 0.0
H1817 H 0.33175 0.10113 0.75328 0.0
C1818 C 0.93955 0.25195 0.76732 0.0
C1819 C 0.95231 0.2697 0.77824 0.0
C1820 C 0.94057 0.26094 0.82522 0.0
C1821 C 0.92898 0.24274 0.81485 0.0
N1822 N 0.91882 0.22005 0.77713 0.0
N1823 N 0.96765 0.28991 0.8184 0.0
C1824 C 0.92887 0.23797 0.78617 0.0
C1825 C 0.95355 0.27389 0.80742 0.0
N1826 N 0.9371 0.24866 0.73896 0.0
N1827 N 0.93886 0.266 0.85189 0.0
H1828 H 0.97784 0.29961 0.80626 0.0
H1829 H 0.9703 0.29276 0.83986 0.0
H1830 H 0.92955 0.25693 0.86578 0.0
H1831 H 0.94552 0.27956 0.85943 0.0
H1832 H 0.9267 0.23661 0.72967 0.0
H1833 H 0.94454 0.2586 0.72453 0.0
H1834 H 0.91963 0.21537 0.75716 0.0
H1835 H 0.91061 0.20957 0.79034 0.0
C1836 C 0.73812 0.66705 0.7268 0.0
C1837 C 0.73834 0.67996 0.70789 0.0
C1838 C 0.75707 0.70498 0.74173 0.0
C1839 C 0.75511 0.69191 0.76169 0.0
N1840 N 0.74111 0.66035 0.77506 0.0
N1841 N 0.74495 0.71088 0.69951 0.0
C1842 C 0.74489 0.67288 0.75474 0.0
C1843 C 0.74703 0.69887 0.71587 0.0
N1844 N 0.73206 0.64936 0.7178 0.0
N1845 N 0.76883 0.72321 0.74717 0.0
H1846 H 0.73725 0.70693 0.68082 0.0
H1847 H 0.74938 0.72441 0.70581 0.0
H1848 H 0.77647 0.72821 0.76587 0.0
H1849 H 0.77224 0.73316 0.7322 0.0
H1850 H 0.73336 0.63987 0.72981 0.0
H1851 H 0.72733 0.64462 0.69732 0.0
H1852 H 0.73207 0.64638 0.77187 0.0
H1853 H 0.7457 0.66404 0.79585 0.0
C1854 C 0.70781 0.62404 0.57244 0.0
C1855 C 0.71414 0.62672 0.60073 0.0
C1856 C 0.73752 0.61955 0.58755 0.0
C1857 C 0.7329 0.61978 0.55887 0.0
N1858 N 0.71546 0.62529 0.52386 0.0
N1859 N 0.73532 0.62789 0.63577 0.0
C1860 C 0.71843 0.62268 0.55122 0.0
C1861 C 0.72897 0.62451 0.60857 0.0
N1862 N 0.6915 0.62259 0.56591 0.0
N1863 N 0.74989 0.61443 0.59456 0.0
H1864 H 0.72903 0.63111 0.65161 0.0
H1865 H 0.74731 0.62854 0.64233 0.0
H1866 H 0.75632 0.61074 0.57955 0.0
H1867 H 0.75269 0.6124 0.61507 0.0
H1868 H 0.68538 0.6188 0.54595 0.0
H1869 H 0.68318 0.62326 0.58106 0.0
H1870 H 0.70642 0.62955 0.51771 0.0
H1871 H 0.72317 0.62495 0.50745 0.0
C1872 C 0.37028 0.08776 0.60391 0.0
C1873 C 0.36667 0.0704 0.5931 0.0
C1874 C 0.36441 0.07924 0.54525 0.0
C1875 C 0.36804 0.09664 0.55595 0.0
N1876 N 0.37721 0.11883 0.59421 0.0
N1877 N 0.36467 0.05111 0.55365 0.0
C1878 C 0.37192 0.10136 0.58495 0.0
C1879 C 0.36498 0.06657 0.56379 0.0
N1880 N 0.37139 0.09093 0.63228 0.0
N1881 N 0.36005 0.07469 0.51738 0.0
H1882 H 0.36541 0.04164 0.56659 0.0
H1883 H 0.36541 0.04843 0.53248 0.0
H1884 H 0.36057 0.08391 0.50265 0.0
H1885 H 0.35487 0.06145 0.50898 0.0
H1886 H 0.37211 0.10251 0.64177 0.0
H1887 H 0.37057 0.0814 0.64665 0.0
H1888 H 0.38197 0.12381 0.61455 0.0
H1889 H 0.37797 0.12887 0.58094 0.0
C1890 C 0.91948 0.26707 0.66253 0.0
C1891 C 0.93568 0.28438 0.66357 0.0
C1892 C 0.93826 0.28204 0.61278 0.0
C1893 C 0.9215 0.26534 0.61153 0.0
N1894 N 0.89395 0.24454 0.634 0.0
N1895 N 0.95763 0.31049 0.63874 0.0
C1896 C 0.91139 0.2587 0.63605 0.0
C1897 C 0.94417 0.29255 0.63835 0.0
N1898 N 0.91239 0.25797 0.68658 0.0
N1899 N 0.94902 0.28745 0.59005 0.0
H1900 H 0.9619 0.31879 0.65698 0.0
H1901 H 0.96315 0.31763 0.62061 0.0
H1902 H 0.94545 0.27999 0.57105 0.0
H1903 H 0.96222 0.29845 0.59088 0.0
H1904 H 0.90184 0.24443 0.68659 0.0
H1905 H 0.91801 0.26316 0.70651 0.0
H1906 H 0.88537 0.24033 0.65087 0.0
H1907 H 0.88752 0.23823 0.61487 0.0
C1908 C 0.32975 0.2727 0.63079 0.0
C1909 C 0.3445 0.28461 0.64908 0.0
C1910 C 0.36545 0.28346 0.61586 0.0
C1911 C 0.35094 0.27355 0.59613 0.0
N1912 N 0.31968 0.26243 0.58275 0.0
N1913 N 0.37673 0.30502 0.65536 0.0
C1914 C 0.33318 0.26922 0.60298 0.0
C1915 C 0.36248 0.29104 0.64061 0.0
N1916 N 0.31252 0.26402 0.6402 0.0
N1917 N 0.38197 0.28517 0.61147 0.0
H1918 H 0.37518 0.31173 0.67274 0.0
H1919 H 0.38992 0.31132 0.64843 0.0
H1920 H 0.38457 0.2793 0.59404 0.0
H1921 H 0.39247 0.29075 0.62656 0.0
H1922 H 0.30157 0.25385 0.62843 0.0
H1923 H 0.3094 0.2655 0.66074 0.0
H1924 H 0.30695 0.26078 0.5861 0.0
H1925 H 0.32172 0.26025 0.56189 0.0
C1926 C 0.71575 0.09333 0.59898 0.0
C1927 C 0.70404 0.07519 0.58846 0.0
C1928 C 0.71352 0.08447 0.54065 0.0
C1929 C 0.72512 0.1027 0.55098 0.0
N1930 N 0.73494 0.12548 0.58848 0.0
N1931 N 0.68793 0.0546 0.54918 0.0
C1932 C 0.72545 0.10746 0.57974 0.0
C1933 C 0.70172 0.07113 0.55922 0.0
N1934 N 0.71822 0.09686 0.62727 0.0
N1935 N 0.7144 0.07965 0.51342 0.0
H1936 H 0.6788 0.04458 0.56222 0.0
H1937 H 0.68439 0.05154 0.52795 0.0
H1938 H 0.72274 0.08894 0.49885 0.0
H1939 H 0.70789 0.06613 0.50572 0.0
H1940 H 0.72804 0.1093 0.6364 0.0
H1941 H 0.71109 0.08689 0.64185 0.0
H1942 H 0.73447 0.13013 0.60863 0.0
H1943 H 0.74225 0.13602 0.57479 0.0
C1944 C 0.92552 0.64336 0.64096 0.0
C1945 C 0.93596 0.66244 0.64765 0.0
C1946 C 0.93139 0.66909 0.59945 0.0
C1947 C 0.91909 0.65018 0.59384 0.0
N1948 N 0.9014 0.61975 0.61163 0.0
N1949 N 0.9447 0.69339 0.63497 0.0
C1950 C 0.91524 0.63741 0.61531 0.0
C1951 C 0.93773 0.67532 0.62739 0.0
N1952 N 0.92602 0.63092 0.65836 0.0
N1953 N 0.93759 0.68106 0.57803 0.0
H1954 H 0.94855 0.69844 0.65557 0.0
H1955 H 0.94469 0.70294 0.62141 0.0
H1956 H 0.93387 0.67698 0.55705 0.0
H1957 H 0.9479 0.69465 0.58086 0.0
H1958 H 0.92002 0.617 0.65299 0.0
H1959 H 0.934 0.63468 0.67675 0.0
H1960 H 0.89695 0.61041 0.62769 0.0
H1961 H 0.89317 0.61498 0.59348 0.0
C1962 C 0.96022 0.73304 0.76098 0.0
C1963 C 0.95276 0.71593 0.74604 0.0
C1964 C 0.92665 0.70302 0.77579 0.0
C1965 C 0.93399 0.72003 0.79101 0.0
N1966 N 0.95414 0.75276 0.79092 0.0
N1967 N 0.9256 0.68855 0.73102 0.0
C1968 C 0.94957 0.7356 0.78112 0.0
C1969 C 0.9348 0.70224 0.75069 0.0
N1970 N 0.9777 0.7464 0.7575 0.0
N1971 N 0.91294 0.68728 0.78608 0.0
H1972 H 0.93119 0.68865 0.71174 0.0
H1973 H 0.91198 0.67874 0.73254 0.0
H1974 H 0.90739 0.68669 0.80552 0.0
H1975 H 0.90846 0.67443 0.77652 0.0
H1976 H 0.9843 0.75813 0.77052 0.0
H1977 H 0.98601 0.74537 0.74281 0.0
H1978 H 0.96453 0.76467 0.78273 0.0
H1979 H 0.94625 0.75505 0.80506 0.0
C1980 C 0.31018 0.24969 0.7525 0.0
C1981 C 0.30461 0.2625 0.75932 0.0
C1982 C 0.29382 0.24819 0.80446 0.0
C1983 C 0.30173 0.23714 0.79932 0.0
N1984 N 0.31716 0.22673 0.76889 0.0
N1985 N 0.29128 0.27451 0.79127 0.0
C1986 C 0.30965 0.23755 0.77327 0.0
C1987 C 0.29616 0.26169 0.78496 0.0
N1988 N 0.31574 0.24908 0.72604 0.0
N1989 N 0.28424 0.24589 0.82815 0.0
H1990 H 0.29216 0.28418 0.77711 0.0
H1991 H 0.28721 0.27627 0.81093 0.0
H1992 H 0.28287 0.23668 0.8435 0.0
H1993 H 0.27651 0.25206 0.8318 0.0
H1994 H 0.31868 0.23918 0.71874 0.0
H1995 H 0.31598 0.25772 0.71048 0.0
H1996 H 0.32499 0.22779 0.75184 0.0
H1997 H 0.31613 0.21702 0.78311 0.0
C1998 C 0.74099 0.08199 0.70514 0.0
C1999 C 0.72857 0.06287 0.7018 0.0
C2000 C 0.72839 0.05978 0.75282 0.0
C2001 C 0.74131 0.07872 0.75602 0.0
N2002 N 0.76282 0.10703 0.73556 0.0
N2003 N 0.71376 0.0329 0.72166 0.0
C2004 C 0.74856 0.08955 0.73223 0.0
C2005 C 0.72325 0.05156 0.72544 0.0
N2006 N 0.74481 0.09312 0.68279 0.0
N2007 N 0.72054 0.0498 0.7759 0.0
H2008 H 0.71007 0.0264 0.70187 0.0
H2009 H 0.71106 0.02387 0.73786 0.0
H2010 H 0.72421 0.05524 0.79635 0.0
H2011 H 0.70951 0.03654 0.77475 0.0
H2012 H 0.75198 0.10737 0.68463 0.0
H2013 H 0.73963 0.08824 0.66255 0.0
H2014 H 0.76997 0.11497 0.71888 0.0
H2015 H 0.76856 0.11305 0.75516 0.0
C2016 C 0.05104 0.34761 0.0599 0.0
C2017 C 0.05557 0.35316 0.03193 0.0
C2018 C 0.0796 0.34534 0.0345 0.0
C2019 C 0.07382 0.33805 0.06131 0.0
N2020 N 0.05179 0.32899 0.09736 0.0
N2021 N 0.07155 0.35354 0.99046 0.0
C2022 C 0.05887 0.33824 0.07341 0.0
C2023 C 0.06917 0.35103 0.01861 0.0
N2024 N 0.03984 0.35194 0.07403 0.0
N2025 N 0.09533 0.34731 0.02451 0.0
H2026 H 0.06375 0.35703 0.97774 0.0
H2027 H 0.07996 0.35032 0.97919 0.0
H2028 H 0.1034 0.34336 0.03557 0.0
H2029 H 0.1012 0.35437 0.00646 0.0
H2030 H 0.03759 0.34993 0.09537 0.0
H2031 H 0.03419 0.35922 0.06516 0.0
H2032 H 0.03975 0.32704 0.10547 0.0
H2033 H 0.057 0.32176 0.10774 0.0
C2034 C 0.64225 0.71077 0.04687 0.0
C2035 C 0.65387 0.70322 0.04781 0.0
C2036 C 0.67786 0.73153 0.07005 0.0
C2037 C 0.66625 0.73904 0.07001 0.0
N2038 N 0.63902 0.73777 0.05271 0.0
N2039 N 0.68516 0.71061 0.04664 0.0
C2040 C 0.6489 0.72927 0.05654 0.0
C2041 C 0.67247 0.71489 0.05492 0.0
N2042 N 0.62492 0.7002 0.03663 0.0
N2043 N 0.69366 0.73968 0.0857 0.0
H2044 H 0.68236 0.69997 0.03237 0.0
H2045 H 0.69897 0.71946 0.05012 0.0
H2046 H 0.69798 0.75154 0.09813 0.0
H2047 H 0.70153 0.73355 0.08864 0.0
H2048 H 0.61498 0.70381 0.03842 0.0
H2049 H 0.62048 0.68754 0.02638 0.0
H2050 H 0.62689 0.73204 0.04113 0.0
H2051 H 0.64367 0.75129 0.05951 0.0
C2052 C 0.31271 0.93812 0.05893 0.0
C2053 C 0.30511 0.93677 0.03167 0.0
C2054 C 0.27462 0.91891 0.04961 0.0
C2055 C 0.28223 0.92156 0.07714 0.0
N2056 N 0.30815 0.93587 0.109 0.0
N2057 N 0.27904 0.92871 0.00158 0.0
C2058 C 0.30119 0.93184 0.0821 0.0
C2059 C 0.2861 0.92788 0.0271 0.0
N2060 N 0.33085 0.94462 0.06249 0.0
N2061 N 0.25647 0.90752 0.04492 0.0
H2062 H 0.28702 0.93535 0.98465 0.0
H2063 H 0.26541 0.92425 0.99782 0.0
H2064 H 0.24756 0.90106 0.06099 0.0
H2065 H 0.2504 0.90336 0.02498 0.0
H2066 H 0.3369 0.94411 0.08133 0.0
H2067 H 0.33974 0.94907 0.04599 0.0
H2068 H 0.32169 0.94505 0.11407 0.0
H2069 H 0.30014 0.93116 0.12651 0.0
C2070 C 0.33616 0.02468 0.93795 0.0
C2071 C 0.34939 0.02816 0.95917 0.0
C2072 C 0.35636 0.06006 0.96385 0.0
C2073 C 0.34591 0.0574 0.93897 0.0
N2074 N 0.32663 0.03742 0.90088 0.0
N2075 N 0.37167 0.04859 0.99357 0.0
C2076 C 0.33565 0.03969 0.92594 0.0
C2077 C 0.35919 0.04566 0.97282 0.0
N2078 N 0.32444 0.0071 0.9287 0.0
N2079 N 0.36359 0.07637 0.97865 0.0
H2080 H 0.37328 0.03801 0.00142 0.0
H2081 H 0.38081 0.06149 0.00223 0.0
H2082 H 0.36157 0.08704 0.97242 0.0
H2083 H 0.37019 0.07878 0.99814 0.0
H2084 H 0.31336 0.00358 0.9153 0.0
H2085 H 0.32471 0.99577 0.93651 0.0
H2086 H 0.3209 0.02533 0.88868 0.0
H2087 H 0.32598 0.04799 0.89096 0.0
C2088 C 0.94294 0.30045 0.99004 0.0
C2089 C 0.95895 0.30862 0.97444 0.0
C2090 C 0.94841 0.27977 0.94743 0.0
C2091 C 0.93261 0.2715 0.96349 0.0
N2092 N 0.91587 0.27252 0.0027 0.0
N2093 N 0.97828 0.30566 0.94093 0.0
C2094 C 0.93021 0.28142 0.98567 0.0
C2095 C 0.96216 0.29809 0.95414 0.0
N2096 N 0.93977 0.31101 0.0086 0.0
N2097 N 0.94983 0.27041 0.92475 0.0
H2098 H 0.98819 0.31943 0.94322 0.0
H2099 H 0.98241 0.29807 0.92888 0.0
H2100 H 0.94036 0.2568 0.91944 0.0
H2101 H 0.95975 0.27638 0.90993 0.0
H2102 H 0.92756 0.30654 0.01837 0.0
H2103 H 0.94916 0.32474 0.01321 0.0
H2104 H 0.91412 0.27838 0.0209 0.0
H2105 H 0.9063 0.25864 0.99975 0.0
C2106 C 0.702 0.67957 0.97036 0.0
C2107 C 0.70283 0.66997 0.99395 0.0
C2108 C 0.73176 0.67383 0.97886 0.0
C2109 C 0.73029 0.68232 0.95437 0.0
N2110 N 0.71253 0.69016 0.92389 0.0
N2111 N 0.71652 0.65482 0.01802 0.0
C2112 C 0.71492 0.68421 0.94922 0.0
C2113 C 0.71717 0.66621 0.99748 0.0
N2114 N 0.68947 0.68513 0.96884 0.0
N2115 N 0.74733 0.67354 0.98474 0.0
H2116 H 0.70591 0.64878 0.0318 0.0
H2117 H 0.72558 0.65003 0.01982 0.0
H2118 H 0.75817 0.67869 0.97134 0.0
H2119 H 0.75005 0.66946 0.0038 0.0
H2120 H 0.68954 0.69393 0.95378 0.0
H2121 H 0.67994 0.68232 0.98408 0.0
H2122 H 0.70067 0.68992 0.91775 0.0
H2123 H 0.7218 0.69382 0.90796 0.0
C2124 C 0.9563 0.68122 0.98337 0.0
C2125 C 0.9457 0.66761 0.00266 0.0
C2126 C 0.91922 0.67014 0.98909 0.0
C2127 C 0.92958 0.68299 0.9688 0.0
N2128 N 0.95675 0.69801 0.94243 0.0
N2129 N 0.91643 0.64645 0.0201 0.0
C2130 C 0.94775 0.68764 0.96461 0.0
C2131 C 0.92695 0.66129 0.00443 0.0
N2132 N 0.97467 0.68879 0.98402 0.0
N2133 N 0.90219 0.66682 0.99429 0.0
H2134 H 0.92161 0.63947 0.03127 0.0
H2135 H 0.90239 0.64001 0.02003 0.0
H2136 H 0.89597 0.67277 0.98303 0.0
H2137 H 0.89472 0.65924 0.011 0.0
H2138 H 0.98326 0.70021 0.97272 0.0
H2139 H 0.98158 0.68476 0.9977 0.0
H2140 H 0.9693 0.70016 0.93646 0.0
H2141 H 0.951 0.70315 0.92841 0.0
C2142 C 0.35027 0.29232 0.99563 0.0
C2143 C 0.3524 0.30442 0.97391 0.0
C2144 C 0.33727 0.27857 0.93992 0.0
C2145 C 0.33645 0.26658 0.96113 0.0
N2146 N 0.34258 0.26148 0.00849 0.0
N2147 N 0.34844 0.30974 0.92543 0.0
C2148 C 0.34298 0.27329 0.9889 0.0
C2149 C 0.34591 0.29769 0.94611 0.0
N2150 N 0.35511 0.29909 0.0226 0.0
N2151 N 0.32959 0.27159 0.91386 0.0
H2152 H 0.35333 0.32368 0.92932 0.0
H2153 H 0.34647 0.30623 0.90413 0.0
H2154 H 0.32422 0.25788 0.90761 0.0
H2155 H 0.32754 0.27907 0.89861 0.0
H2156 H 0.35256 0.29097 0.03996 0.0
H2157 H 0.36079 0.31301 0.0279 0.0
H2158 H 0.34865 0.26557 0.02841 0.0
H2159 H 0.33681 0.24742 0.00432 0.0
C2160 C 0.68554 0.03449 0.96046 0.0
C2161 C 0.68777 0.04036 0.98907 0.0
C2162 C 0.71559 0.06857 0.97842 0.0
C2163 C 0.71208 0.06369 0.94943 0.0
N2164 N 0.69199 0.0435 0.91233 0.0
N2165 N 0.70314 0.06447 0.02456 0.0
C2166 C 0.69656 0.04705 0.94027 0.0
C2167 C 0.70236 0.05779 0.99793 0.0
N2168 N 0.67342 0.01669 0.95269 0.0
N2169 N 0.73174 0.08323 0.98738 0.0
H2170 H 0.69345 0.05727 0.03933 0.0
H2171 H 0.7124 0.07787 0.03119 0.0
H2172 H 0.74183 0.09139 0.9737 0.0
H2173 H 0.7358 0.08626 0.00845 0.0
H2174 H 0.67256 0.01123 0.93258 0.0
H2175 H 0.6655 0.00686 0.96697 0.0
H2176 H 0.67978 0.03252 0.90471 0.0
H2177 H 0.69962 0.05243 0.89683 0.0
C2178 C 0.6707 0.96835 0.04681 0.0
C2179 C 0.65216 0.95743 0.03919 0.0
C2180 C 0.65311 0.93038 0.05503 0.0
C2181 C 0.66945 0.94225 0.07028 0.0
N2182 N 0.6937 0.97321 0.08136 0.0
N2183 N 0.62717 0.92732 0.02823 0.0
C2184 C 0.67845 0.96142 0.06598 0.0
C2185 C 0.64389 0.93809 0.04054 0.0
N2186 N 0.68097 0.98501 0.0353 0.0
N2187 N 0.6466 0.91189 0.05448 0.0
H2188 H 0.6212 0.93276 0.01518 0.0
H2189 H 0.61928 0.91327 0.03089 0.0
H2190 H 0.6534 0.90609 0.06451 0.0
H2191 H 0.63536 0.90246 0.04247 0.0
H2192 H 0.69487 0.99302 0.03918 0.0
H2193 H 0.67615 0.98934 0.01861 0.0
H2194 H 0.69951 0.98741 0.08078 0.0
H2195 H 0.69962 0.96896 0.09651 0.0
C2196 C 0.02651 0.713 0.07513 0.0
C2197 C 0.03032 0.70231 0.05612 0.0
C2198 C 0.05953 0.72934 0.0464 0.0
C2199 C 0.05676 0.73919 0.0683 0.0
N2200 N 0.03834 0.74037 0.10508 0.0
N2201 N 0.05 0.69982 0.02315 0.0
C2202 C 0.04031 0.73112 0.08278 0.0
C2203 C 0.04667 0.71041 0.04139 0.0
N2204 N 0.00976 0.70577 0.08625 0.0
N2205 N 0.07442 0.7382 0.03042 0.0
H2206 H 0.0404 0.68623 0.01784 0.0
H2207 H 0.06241 0.70415 0.01406 0.0
H2208 H 0.08402 0.75203 0.03385 0.0
H2209 H 0.07662 0.73239 0.01259 0.0
H2210 H 0.0055 0.71353 0.09754 0.0
H2211 H 0.9995 0.69227 0.08244 0.0
H2212 H 0.02782 0.73438 0.11893 0.0
H2213 H 0.0479 0.75382 0.1111 0.0
C2214 C 0.31019 0.3393 0.06075 0.0
C2215 C 0.30709 0.33962 0.03152 0.0
C2216 C 0.2772 0.33563 0.04012 0.0
C2217 C 0.28139 0.33789 0.0693 0.0
N2218 N 0.30286 0.3444 0.10756 0.0
N2219 N 0.28877 0.34078 0.9933 0.0
C2220 C 0.29813 0.34033 0.07972 0.0
C2221 C 0.29082 0.33834 0.02109 0.0
N2222 N 0.32435 0.33745 0.07035 0.0
N2223 N 0.26012 0.33067 0.03064 0.0
H2224 H 0.29858 0.34326 0.97868 0.0
H2225 H 0.27806 0.34202 0.98515 0.0
H2226 H 0.24983 0.3286 0.04407 0.0
H2227 H 0.25574 0.32697 0.00979 0.0
H2228 H 0.32622 0.3353 0.09127 0.0
H2229 H 0.33324 0.33622 0.05703 0.0
H2230 H 0.31573 0.3484 0.11573 0.0
H2231 H 0.29444 0.34531 0.12224 0.0
C2232 C 0.74083 0.67798 0.35676 0.0
C2233 C 0.72217 0.67147 0.36042 0.0
C2234 C 0.72185 0.65146 0.39734 0.0
C2235 C 0.73988 0.65638 0.39129 0.0
N2236 N 0.76592 0.67247 0.36284 0.0
N2237 N 0.6941 0.64989 0.38105 0.0
C2238 C 0.74923 0.66916 0.37034 0.0
C2239 C 0.71245 0.6577 0.37999 0.0
N2240 N 0.7507 0.69305 0.34113 0.0
N2241 N 0.71384 0.64117 0.42008 0.0
H2242 H 0.68661 0.65382 0.36843 0.0
H2243 H 0.68607 0.63839 0.39263 0.0
H2244 H 0.72026 0.63628 0.43325 0.0
H2245 H 0.70148 0.63884 0.42735 0.0
H2246 H 0.7647 0.69959 0.34004 0.0
H2247 H 0.74512 0.70015 0.3314 0.0
H2248 H 0.77255 0.68006 0.34557 0.0
H2249 H 0.77257 0.66639 0.3725 0.0
C2250 C 0.29381 0.0379 0.40902 0.0
C2251 C 0.30043 0.03122 0.38755 0.0
C2252 C 0.3218 0.06312 0.3761 0.0
C2253 C 0.31879 0.06892 0.40262 0.0
N2254 N 0.30264 0.06081 0.44605 0.0
N2255 N 0.31728 0.03763 0.34542 0.0
C2256 C 0.30481 0.05612 0.41943 0.0
C2257 C 0.31331 0.04396 0.36924 0.0
N2258 N 0.27692 0.0272 0.41887 0.0
N2259 N 0.33254 0.07594 0.35758 0.0
H2260 H 0.30955 0.02398 0.33835 0.0
H2261 H 0.32802 0.04573 0.3328 0.0
H2262 H 0.3385 0.08999 0.362 0.0
H2263 H 0.33441 0.07281 0.33717 0.0
H2264 H 0.27131 0.03206 0.43356 0.0
H2265 H 0.2676 0.01473 0.4091 0.0
H2266 H 0.29365 0.05122 0.45971 0.0
H2267 H 0.31098 0.07367 0.45554 0.0
C2268 C 0.95689 0.25596 0.3716 0.0
C2269 C 0.97355 0.27239 0.37687 0.0
C2270 C 0.96483 0.27456 0.42481 0.0
C2271 C 0.94891 0.25731 0.42028 0.0
N2272 N 0.93059 0.23032 0.39098 0.0
N2273 N 0.99481 0.29606 0.4093 0.0
C2274 C 0.94515 0.24765 0.3941 0.0
C2275 C 0.97791 0.28142 0.40368 0.0
N2276 N 0.95198 0.2487 0.34487 0.0
N2277 N 0.96728 0.28449 0.44914 0.0
H2278 H 0.00482 0.30141 0.39445 0.0
H2279 H 0.99948 0.30199 0.42925 0.0
H2280 H 0.95813 0.27972 0.46529 0.0
H2281 H 0.97761 0.298 0.45248 0.0
H2282 H 0.93919 0.23791 0.33911 0.0
H2283 H 0.96022 0.25444 0.32782 0.0
H2284 H 0.92831 0.22172 0.37355 0.0
H2285 H 0.9214 0.22394 0.40674 0.0
C2286 C 0.00834 0.37203 0.31672 0.0
C2287 C 0.01061 0.36131 0.29567 0.0
C2288 C 0.00079 0.37475 0.25931 0.0
C2289 C 0.99728 0.38458 0.28036 0.0
N2290 N 0.99554 0.39124 0.3291 0.0
N2291 N 0.00484 0.349 0.24805 0.0
C2292 C 0.00042 0.38283 0.30915 0.0
C2293 C 0.0056 0.36165 0.2673 0.0
N2294 N 0.01421 0.37224 0.34362 0.0
N2295 N 0.00018 0.37839 0.2316 0.0
H2296 H 0.008 0.3389 0.25301 0.0
H2297 H 0.99933 0.34732 0.22782 0.0
H2298 H 0.99673 0.38791 0.22454 0.0
H2299 H 0.00471 0.3732 0.2157 0.0
H2300 H 0.01464 0.38111 0.35948 0.0
H2301 H 0.01972 0.36419 0.34972 0.0
H2302 H 0.99585 0.38917 0.35048 0.0
H2303 H 0.99 0.39944 0.32405 0.0
C2304 C 0.6348 0.6344 0.27571 0.0
C2305 C 0.63757 0.6415 0.30369 0.0
C2306 C 0.617 0.61063 0.32021 0.0
C2307 C 0.61308 0.60396 0.29195 0.0
N2308 N 0.61595 0.60983 0.24241 0.0
N2309 N 0.63032 0.63716 0.35247 0.0
C2310 C 0.6213 0.61596 0.26959 0.0
C2311 C 0.62845 0.62981 0.326 0.0
N2312 N 0.64566 0.6451 0.2551 0.0
N2313 N 0.61007 0.59857 0.34141 0.0
H2314 H 0.63882 0.65107 0.35737 0.0
H2315 H 0.62265 0.62979 0.36917 0.0
H2316 H 0.60129 0.58456 0.33773 0.0
H2317 H 0.61384 0.60218 0.36245 0.0
H2318 H 0.64569 0.64009 0.23501 0.0
H2319 H 0.65592 0.65865 0.25871 0.0
H2320 H 0.61989 0.61845 0.22545 0.0
H2321 H 0.60636 0.59631 0.23677 0.0
C2322 C 0.35295 0.99592 0.29792 0.0
C2323 C 0.35488 0.98965 0.32444 0.0
C2324 C 0.38344 0.99202 0.31079 0.0
C2325 C 0.38214 0.99947 0.28504 0.0
N2326 N 0.36736 0.01124 0.2555 0.0
N2327 N 0.37329 0.9849 0.35835 0.0
C2328 C 0.36738 0.00224 0.27902 0.0
C2329 C 0.3705 0.98856 0.33151 0.0
N2330 N 0.33704 0.99506 0.29032 0.0
N2331 N 0.39676 0.98776 0.31512 0.0
H2332 H 0.36421 0.98247 0.37421 0.0
H2333 H 0.38531 0.98587 0.36559 0.0
H2334 H 0.4067 0.9904 0.30065 0.0
H2335 H 0.39718 0.98035 0.33203 0.0
H2336 H 0.33403 0.99747 0.27015 0.0
H2337 H 0.32615 0.99048 0.30357 0.0
H2338 H 0.35801 0.01546 0.25144 0.0
H2339 H 0.37758 0.01581 0.24098 0.0
C2340 C 0.59546 0.98513 0.34616 0.0
C2341 C 0.61191 0.9886 0.3341 0.0
C2342 C 0.59945 0.98853 0.28742 0.0
C2343 C 0.58379 0.98696 0.29984 0.0
N2344 N 0.56835 0.98732 0.34137 0.0
N2345 N 0.63091 0.9972 0.29399 0.0
C2346 C 0.58225 0.98635 0.32935 0.0
C2347 C 0.6143 0.99132 0.3049 0.0
N2348 N 0.59198 0.97967 0.37322 0.0
N2349 N 0.5999 0.98668 0.25896 0.0
H2350 H 0.64224 0.99979 0.3062 0.0
H2351 H 0.63388 0.00123 0.27336 0.0
H2352 H 0.58924 0.98442 0.24537 0.0
H2353 H 0.61015 0.98571 0.24904 0.0
H2354 H 0.57945 0.97513 0.38207 0.0
H2355 H 0.60091 0.97781 0.38602 0.0
H2356 H 0.56762 0.98889 0.36293 0.0
H2357 H 0.55843 0.98826 0.3297 0.0
C2358 C 0.03237 0.64173 0.31205 0.0
C2359 C 0.02703 0.65135 0.29374 0.0
C2360 C 0.01613 0.62637 0.25848 0.0
C2361 C 0.02069 0.61628 0.27716 0.0
N2362 N 0.03057 0.61279 0.32302 0.0
N2363 N 0.01023 0.65137 0.2526 0.0
C2364 C 0.02802 0.62349 0.30444 0.0
C2365 C 0.01771 0.64315 0.26797 0.0
N2366 N 0.042 0.65026 0.33624 0.0
N2367 N 0.01125 0.62046 0.23112 0.0
H2368 H 0.01129 0.66384 0.25868 0.0
H2369 H 0.00157 0.64505 0.23523 0.0
H2370 H 0.00999 0.60829 0.22297 0.0
H2371 H 0.01006 0.62844 0.21577 0.0
H2372 H 0.048 0.64484 0.34912 0.0
H2373 H 0.04477 0.66334 0.34271 0.0
H2374 H 0.03431 0.61652 0.34404 0.0
H2375 H 0.02766 0.59948 0.31781 0.0
C2376 C 0.39068 0.40762 0.34735 0.0
C2377 C 0.37487 0.39015 0.34407 0.0
C2378 C 0.38506 0.38493 0.29895 0.0
C2379 C 0.40142 0.40182 0.30315 0.0
N2380 N 0.42111 0.4283 0.33247 0.0
N2381 N 0.35833 0.36071 0.3197 0.0
C2382 C 0.40462 0.4129 0.32772 0.0
C2383 C 0.37238 0.3784 0.32063 0.0
N2384 N 0.39204 0.4194 0.36861 0.0
N2385 N 0.38151 0.37527 0.27403 0.0
H2386 H 0.34886 0.35529 0.33534 0.0
H2387 H 0.35691 0.35087 0.30476 0.0
H2388 H 0.3907 0.3793 0.25795 0.0
H2389 H 0.36897 0.36402 0.26839 0.0
H2390 H 0.40228 0.43305 0.37043 0.0
H2391 H 0.38212 0.41594 0.38343 0.0
H2392 H 0.42504 0.43587 0.35135 0.0
H2393 H 0.43144 0.43286 0.31815 0.0
C2394 C 0.33499 0.3188 0.42629 0.0
C2395 C 0.32332 0.31392 0.40219 0.0
C2396 C 0.32354 0.28503 0.3963 0.0
C2397 C 0.33561 0.29019 0.41993 0.0
N2398 N 0.35529 0.3131 0.45473 0.0
N2399 N 0.30849 0.29417 0.36174 0.0
C2400 C 0.34218 0.30749 0.43395 0.0
C2401 C 0.31819 0.29753 0.38639 0.0
N2402 N 0.33831 0.33365 0.44295 0.0
N2403 N 0.31691 0.26803 0.38386 0.0
H2404 H 0.30442 0.30312 0.35415 0.0
H2405 H 0.30559 0.28333 0.3478 0.0
H2406 H 0.32113 0.25891 0.38999 0.0
H2407 H 0.30662 0.26255 0.36848 0.0
H2408 H 0.34469 0.3365 0.46269 0.0
H2409 H 0.3335 0.3425 0.43822 0.0
H2410 H 0.36233 0.32645 0.4631 0.0
H2411 H 0.36017 0.30485 0.46243 0.0
C2412 C 0.69424 0.0458 0.40257 0.0
C2413 C 0.69926 0.03564 0.38451 0.0
C2414 C 0.728 0.06356 0.3759 0.0
C2415 C 0.7242 0.07283 0.39744 0.0
N2416 N 0.70403 0.07326 0.4317 0.0
N2417 N 0.72002 0.03451 0.35231 0.0
C2418 C 0.70724 0.0642 0.41048 0.0
C2419 C 0.71582 0.04452 0.37036 0.0
N2420 N 0.67716 0.03777 0.41257 0.0
N2421 N 0.74329 0.07304 0.36098 0.0
H2422 H 0.71084 0.02087 0.34657 0.0
H2423 H 0.73261 0.03941 0.3436 0.0
H2424 H 0.75239 0.08696 0.36487 0.0
H2425 H 0.74636 0.06764 0.34355 0.0
H2426 H 0.67204 0.04496 0.42333 0.0
H2427 H 0.66744 0.02413 0.40824 0.0
H2428 H 0.6931 0.06702 0.44478 0.0
H2429 H 0.7129 0.08697 0.43744 0.0
C2430 C 0.95605 0.67673 0.35938 0.0
C2431 C 0.9706 0.67318 0.36121 0.0
C2432 C 0.95868 0.65652 0.40434 0.0
C2433 C 0.94328 0.65856 0.40094 0.0
N2434 N 0.92579 0.66818 0.3733 0.0
N2435 N 0.98434 0.65716 0.38254 0.0
C2436 C 0.94152 0.66798 0.37788 0.0
C2437 C 0.97159 0.66243 0.38297 0.0
N2438 N 0.95649 0.68908 0.34077 0.0
N2439 N 0.96118 0.6493 0.42829 0.0
H2440 H 0.99387 0.66095 0.36701 0.0
H2441 H 0.98449 0.6477 0.3961 0.0
H2442 H 0.95189 0.6446 0.44427 0.0
H2443 H 0.97309 0.64934 0.4334 0.0
H2444 H 0.94725 0.69371 0.34053 0.0
H2445 H 0.96705 0.69603 0.32718 0.0
H2446 H 0.92291 0.67302 0.35513 0.0
H2447 H 0.91494 0.66214 0.38664 0.0
C2448 C 0.40606 0.01063 0.67743 0.0
C2449 C 0.38748 0.00457 0.68099 0.0
C2450 C 0.3866 0.9846 0.71839 0.0
C2451 C 0.40451 0.98902 0.71244 0.0
N2452 N 0.43075 0.00456 0.68425 0.0
N2453 N 0.35921 0.98368 0.70183 0.0
C2454 C 0.41413 0.00161 0.69141 0.0
C2455 C 0.37752 0.99106 0.7008 0.0
N2456 N 0.41617 0.02545 0.66146 0.0
N2457 N 0.3784 0.97451 0.74122 0.0
H2458 H 0.35193 0.98777 0.68905 0.0
H2459 H 0.35098 0.97235 0.71358 0.0
H2460 H 0.38456 0.96941 0.7545 0.0
H2461 H 0.36616 0.97256 0.74842 0.0
H2462 H 0.43015 0.0317 0.66034 0.0
H2463 H 0.41081 0.03264 0.65137 0.0
H2464 H 0.43756 0.01197 0.66696 0.0
H2465 H 0.43719 0.9984 0.69432 0.0
C2466 C 0.99225 0.37342 0.76293 0.0
C2467 C 0.98512 0.36512 0.7361 0.0
C2468 C 0.993 0.39511 0.71754 0.0
C2469 C 0.99844 0.40299 0.74504 0.0
N2470 N 0.00058 0.39923 0.79483 0.0
N2471 N 0.9774 0.36725 0.68813 0.0
C2472 C 0.99734 0.39203 0.76799 0.0
C2473 C 0.98519 0.37575 0.71336 0.0
N2474 N 0.99465 0.36363 0.78342 0.0
N2475 N 0.9956 0.4062 0.6955 0.0
H2476 H 0.97201 0.35319 0.68441 0.0
H2477 H 0.97532 0.37382 0.67143 0.0
H2478 H 0.00097 0.42033 0.69812 0.0
H2479 H 0.99356 0.40169 0.6746 0.0
H2480 H 0.00173 0.36951 0.80228 0.0
H2481 H 0.99109 0.3499 0.78066 0.0
H2482 H 0.99782 0.39134 0.81253 0.0
H2483 H 0.00458 0.41288 0.79972 0.0
C2484 C 0.62196 0.616 0.6863 0.0
C2485 C 0.63909 0.61869 0.69518 0.0
C2486 C 0.629 0.61261 0.74342 0.0
C2487 C 0.61125 0.60747 0.73382 0.0
N2488 N 0.59006 0.6016 0.69544 0.0
N2489 N 0.65801 0.61647 0.73136 0.0
C2490 C 0.60749 0.60845 0.70505 0.0
C2491 C 0.64243 0.61625 0.72357 0.0
N2492 N 0.61969 0.62139 0.66043 0.0
N2493 N 0.6331 0.61436 0.77154 0.0
H2494 H 0.66797 0.61847 0.71731 0.0
H2495 H 0.66025 0.61287 0.75116 0.0
H2496 H 0.62363 0.61199 0.78674 0.0
H2497 H 0.64624 0.61987 0.77973 0.0
H2498 H 0.60801 0.62145 0.65404 0.0
H2499 H 0.63012 0.6276 0.64639 0.0
H2500 H 0.5864 0.6001 0.6742 0.0
H2501 H 0.57906 0.59596 0.70851 0.0
C2502 C 0.68978 0.7104 0.64168 0.0
C2503 C 0.69217 0.70012 0.62 0.0
C2504 C 0.68236 0.71424 0.58477 0.0
C2505 C 0.67817 0.72307 0.60655 0.0
N2506 N 0.67613 0.72852 0.65568 0.0
N2507 N 0.68717 0.68925 0.57159 0.0
C2508 C 0.68141 0.7209 0.63506 0.0
C2509 C 0.68755 0.70126 0.5917 0.0
N2510 N 0.69599 0.71052 0.66834 0.0
N2511 N 0.68173 0.71854 0.55741 0.0
H2512 H 0.69043 0.67913 0.5757 0.0
H2513 H 0.68189 0.68811 0.55132 0.0
H2514 H 0.67782 0.72788 0.55119 0.0
H2515 H 0.68667 0.71411 0.54107 0.0
H2516 H 0.69627 0.71911 0.68456 0.0
H2517 H 0.70221 0.70301 0.67376 0.0
H2518 H 0.67639 0.7259 0.67686 0.0
H2519 H 0.67032 0.73657 0.65138 0.0
C2520 C 0.29319 0.96496 0.65673 0.0
C2521 C 0.30065 0.97552 0.63268 0.0
C2522 C 0.28179 0.94865 0.60203 0.0
C2523 C 0.27543 0.93769 0.62596 0.0
N2524 N 0.27607 0.93459 0.67592 0.0
N2525 N 0.30506 0.97667 0.58274 0.0
C2526 C 0.28141 0.94562 0.65333 0.0
C2527 C 0.29571 0.96718 0.6054 0.0
N2528 N 0.29697 0.97351 0.68261 0.0
N2529 N 0.27447 0.9414 0.57596 0.0
H2530 H 0.31575 0.99015 0.5842 0.0
H2531 H 0.30347 0.97065 0.56285 0.0
H2532 H 0.26484 0.92765 0.57208 0.0
H2533 H 0.27686 0.94934 0.55838 0.0
H2534 H 0.29062 0.96696 0.70073 0.0
H2535 H 0.30563 0.98759 0.6857 0.0
H2536 H 0.28139 0.93911 0.69618 0.0
H2537 H 0.26697 0.92053 0.67407 0.0
C2538 C 0.03241 0.33589 0.65192 0.0
C2539 C 0.03381 0.32887 0.67805 0.0
C2540 C 0.05821 0.32449 0.66063 0.0
C2541 C 0.05512 0.32918 0.63354 0.0
N2542 N 0.03868 0.33823 0.60235 0.0
N2543 N 0.04658 0.31465 0.70683 0.0
C2544 C 0.04212 0.3347 0.62891 0.0
C2545 C 0.04648 0.32288 0.68246 0.0
N2546 N 0.02216 0.34411 0.64937 0.0
N2547 N 0.07242 0.32165 0.66545 0.0
H2548 H 0.03815 0.31308 0.72331 0.0
H2549 H 0.054 0.30807 0.70995 0.0
H2550 H 0.08107 0.32238 0.64976 0.0
H2551 H 0.07658 0.3201 0.68535 0.0
H2552 H 0.02197 0.35111 0.63175 0.0
H2553 H 0.01504 0.34541 0.66594 0.0
H2554 H 0.02789 0.34013 0.59699 0.0
H2555 H 0.04598 0.33814 0.58514 0.0
C2556 C 0.29061 0.33727 0.65204 0.0
C2557 C 0.2849 0.32685 0.67657 0.0
C2558 C 0.25423 0.32155 0.66824 0.0
C2559 C 0.25941 0.32991 0.64199 0.0
N2560 N 0.28193 0.34356 0.60682 0.0
N2561 N 0.2604 0.30602 0.70515 0.0
C2562 C 0.27747 0.33727 0.63333 0.0
C2563 C 0.26649 0.31826 0.68406 0.0
N2564 N 0.30863 0.34758 0.64703 0.0
N2565 N 0.23765 0.31692 0.67817 0.0
H2566 H 0.26865 0.30246 0.71653 0.0
H2567 H 0.24677 0.29793 0.70946 0.0
H2568 H 0.22833 0.31915 0.66706 0.0
H2569 H 0.23384 0.31252 0.69844 0.0
H2570 H 0.3137 0.35692 0.63105 0.0
H2571 H 0.31865 0.34808 0.66045 0.0
H2572 H 0.29433 0.34711 0.59827 0.0
H2573 H 0.27274 0.34386 0.59246 0.0
C2574 C 0.68973 0.97755 0.59636 0.0
C2575 C 0.69499 0.98588 0.62355 0.0
C2576 C 0.6963 0.9592 0.64039 0.0
C2577 C 0.69307 0.95196 0.61245 0.0
N2578 N 0.68938 0.95545 0.56299 0.0
N2579 N 0.70432 0.98565 0.67135 0.0
C2580 C 0.69045 0.96143 0.59021 0.0
C2581 C 0.69845 0.97693 0.64567 0.0
N2582 N 0.68359 0.98482 0.57653 0.0
N2583 N 0.69709 0.94903 0.66174 0.0
H2584 H 0.70555 0.99839 0.67588 0.0
H2585 H 0.70891 0.98081 0.68762 0.0
H2586 H 0.69588 0.93619 0.6583 0.0
H2587 H 0.69771 0.95267 0.68286 0.0
H2588 H 0.67765 0.97821 0.55736 0.0
H2589 H 0.6828 0.99665 0.5802 0.0
H2590 H 0.68993 0.96317 0.54587 0.0
H2591 H 0.68949 0.9435 0.55728 0.0
C2592 C 0.03469 0.70672 0.64301 0.0
C2593 C 0.03573 0.71905 0.66463 0.0
C2594 C 0.06504 0.74269 0.64817 0.0
C2595 C 0.06313 0.73098 0.62503 0.0
N2596 N 0.0451 0.70292 0.59782 0.0
N2597 N 0.05022 0.74972 0.68514 0.0
C2598 C 0.04765 0.71327 0.6217 0.0
C2599 C 0.05049 0.73729 0.66658 0.0
N2600 N 0.02179 0.68857 0.64349 0.0
N2601 N 0.08091 0.7588 0.65287 0.0
H2602 H 0.03966 0.74642 0.69866 0.0
H2603 H 0.05962 0.76369 0.6854 0.0
H2604 H 0.09181 0.76329 0.63966 0.0
H2605 H 0.08386 0.76694 0.67107 0.0
H2606 H 0.02155 0.67857 0.63005 0.0
H2607 H 0.01221 0.68317 0.65898 0.0
H2608 H 0.03313 0.69081 0.59273 0.0
H2609 H 0.05442 0.70715 0.5819 0.0
C2610 C 0.97797 0.63084 0.7238 0.0
C2611 C 0.98262 0.64655 0.74103 0.0
C2612 C 0.99169 0.63393 0.77961 0.0
C2613 C 0.98725 0.61821 0.76237 0.0
N2614 N 0.97984 0.6032 0.71666 0.0
N2615 N 0.99814 0.6654 0.78206 0.0
C2616 C 0.98158 0.61717 0.73392 0.0
C2617 C 0.99097 0.64887 0.76783 0.0
N2618 N 0.96953 0.62873 0.69826 0.0
N2619 N 0.99543 0.63412 0.80766 0.0
H2620 H 0.99769 0.6766 0.77403 0.0
H2621 H 0.00603 0.66855 0.80045 0.0
H2622 H 0.99585 0.62339 0.81746 0.0
H2623 H 0.99663 0.64427 0.82179 0.0
H2624 H 0.96387 0.61668 0.686 0.0
H2625 H 0.96742 0.63889 0.68989 0.0
H2626 H 0.97729 0.60248 0.69513 0.0
H2627 H 0.98244 0.59305 0.72359 0.0
C2628 C 0.3785 0.36689 0.75554 0.0
C2629 C 0.37664 0.35761 0.72958 0.0
C2630 C 0.40519 0.38348 0.71468 0.0
C2631 C 0.40824 0.39144 0.74215 0.0
N2632 N 0.39896 0.38936 0.79017 0.0
N2633 N 0.38801 0.3563 0.68439 0.0
C2634 C 0.39511 0.38291 0.76292 0.0
C2635 C 0.38986 0.36577 0.70897 0.0
N2636 N 0.36435 0.36032 0.77322 0.0
N2637 N 0.41687 0.39296 0.69413 0.0
H2638 H 0.37656 0.34368 0.67925 0.0
H2639 H 0.39809 0.36046 0.66976 0.0
H2640 H 0.42819 0.40591 0.69786 0.0
H2641 H 0.41464 0.38873 0.67309 0.0
H2642 H 0.36421 0.36751 0.79112 0.0
H2643 H 0.35201 0.34847 0.76856 0.0
H2644 H 0.39079 0.38238 0.8067 0.0
H2645 H 0.41107 0.40085 0.7969 0.0
C2646 C 0.61413 0.00443 0.67875 0.0
C2647 C 0.62884 0.00111 0.68075 0.0
C2648 C 0.61622 0.98331 0.7227 0.0
C2649 C 0.60061 0.98495 0.71884 0.0
N2650 N 0.5833 0.99467 0.69093 0.0
N2651 N 0.64235 0.98469 0.7015 0.0
C2652 C 0.59916 0.99485 0.69621 0.0
C2653 C 0.62952 0.98986 0.70194 0.0
N2654 N 0.61481 0.01732 0.66106 0.0
N2655 N 0.61858 0.97593 0.74658 0.0
H2656 H 0.6521 0.98882 0.68628 0.0
H2657 H 0.64228 0.97493 0.71462 0.0
H2658 H 0.60914 0.97099 0.76232 0.0
H2659 H 0.63058 0.97621 0.75195 0.0
H2660 H 0.60538 0.0217 0.66088 0.0
H2661 H 0.62574 0.02495 0.6484 0.0
H2662 H 0.58077 -7e-05 0.67293 0.0
H2663 H 0.57207 0.9879 0.70338 0.0
loop_
_geom_bond_atom_site_label_1
_geom_bond_atom_site_label_2
_geom_bond_distance
_geom_bond_site_symmetry_2
_ccdc_geom_bond_type
Mg0 O1 2.028 1_556 S
Mg0 O7 1.982 1_456 S
Mg0 O9 2.114 . S
Mg0 O10 2.251 1_455 S
Mg0 O13 2.010 1_556 S
O1 Mg0 2.028 1_554 S
O1 C4 1.250 1_455 S
O2 Mg3 2.028 1_554 S
O2 C4 1.248 . S
Mg3 O2 2.028 1_556 S
Mg3 O8 2.032 . S
Mg3 O10 2.079 . S
C4 O1 1.250 1_655 S
C4 O2 1.248 . S
C5 O6 1.286 . S
C5 O13 1.249 . S
O6 C5 1.286 . S
O7 Mg0 1.982 1_654 S
O7 C11 1.241 1_554 S
O8 Mg3 2.032 . S
O8 C11 1.259 . S
O9 Mg0 2.114 . S
O9 C12 1.252 . S
O10 Mg0 2.251 1_655 S
O10 Mg3 2.079 . S
O10 C12 1.273 1_655 S
C11 O7 1.241 1_556 S
C11 O8 1.259 . S
C12 O9 1.252 . S
C12 O10 1.273 1_455 S
O13 Mg0 2.010 1_554 S
O13 C5 1.249 . S
Mg14 O15 2.028 1_554 S
Mg14 O21 1.986 . S
Mg14 O23 2.114 . S
Mg14 O24 2.251 . S
Mg14 O27 2.010 . S
O15 Mg14 2.028 1_556 S
O15 C18 1.250 . S
O16 Mg17 2.028 1_556 S
O16 C18 1.248 . S
Mg17 O16 2.028 1_554 S
Mg17 O22 2.032 . S
Mg17 O24 2.079 . S
C18 O15 1.250 . S
C18 O16 1.248 . S
C19 O20 1.264 . S
C19 O27 1.249 . S
O20 C19 1.264 . S
O21 Mg14 1.986 . S
O21 C25 1.246 . S
O22 Mg17 2.032 . S
O22 C25 1.259 . S
O23 Mg14 2.114 . S
O23 C26 1.252 . S
O24 Mg14 2.251 . S
O24 Mg17 2.079 . S
O24 C26 1.273 . S
C25 O21 1.246 . S
C25 O22 1.259 . S
C26 O23 1.252 . S
C26 O24 1.273 . S
O27 Mg14 2.010 . S
O27 C19 1.249 . S
Mg28 O29 2.021 1_556 S
Mg28 O35 1.986 1_566 S
Mg28 O37 2.114 . S
Mg28 O38 2.251 1_565 S
Mg28 O41 2.010 1_556 S
O29 Mg28 2.021 1_554 S
O29 C32 1.243 1_565 S
O30 Mg31 2.028 1_554 S
O30 C32 1.248 . S
Mg31 O30 2.028 1_556 S
Mg31 O36 2.032 . S
Mg31 O38 2.079 . S
C32 O29 1.243 1_545 S
C32 O30 1.248 . S
C33 O34 1.261 1_554 S
C33 O41 1.249 . S
O34 C33 1.261 1_556 S
O35 Mg28 1.986 1_544 S
O35 C39 1.246 1_554 S
O36 Mg31 2.032 . S
O36 C39 1.259 . S
O37 Mg28 2.114 . S
O37 C40 1.252 . S
O38 Mg28 2.251 1_545 S
O38 Mg31 2.079 . S
O38 C40 1.273 1_545 S
C39 O35 1.246 1_556 S
C39 O36 1.259 . S
C40 O37 1.252 . S
C40 O38 1.273 1_565 S
O41 Mg28 2.010 1_554 S
O41 C33 1.249 . S
Mg42 O43 2.028 1_554 S
Mg42 O49 1.986 1_655 S
Mg42 O51 2.114 . S
Mg42 O52 2.251 1_655 S
Mg42 O55 2.010 . S
O43 Mg42 2.028 1_556 S
O43 C46 1.250 1_655 S
O44 Mg45 2.028 1_556 S
O44 C46 1.248 . S
Mg45 O44 2.028 1_554 S
Mg45 O50 2.032 . S
Mg45 O52 2.079 . S
C46 O43 1.250 1_455 S
C46 O44 1.248 . S
C47 O48 1.264 . S
C47 O55 1.249 . S
O48 C47 1.264 . S
O49 Mg42 1.986 1_455 S
O49 C53 1.246 . S
O50 Mg45 2.032 . S
O50 C53 1.259 . S
O51 Mg42 2.114 . S
O51 C54 1.252 . S
O52 Mg42 2.251 1_455 S
O52 Mg45 2.079 . S
O52 C54 1.273 1_455 S
C53 O49 1.246 . S
C53 O50 1.259 . S
C54 O51 1.252 . S
C54 O52 1.273 1_655 S
O55 Mg42 2.010 . S
O55 C47 1.249 . S
Mg56 O57 2.014 1_556 S
Mg56 O63 1.984 1_556 S
Mg56 O65 2.121 . S
Mg56 O66 2.260 . S
Mg56 O69 2.005 1_556 S
O57 Mg56 2.014 1_554 S
O57 C60 1.250 . S
O58 Mg59 2.028 1_554 S
O58 C60 1.248 . S
Mg59 O58 2.028 1_556 S
Mg59 O64 2.032 . S
Mg59 O66 2.079 . S
C60 O57 1.250 . S
C60 O58 1.248 . S
C61 O62 1.264 . S
C61 O69 1.249 . S
O62 C61 1.264 . S
O63 Mg56 1.984 1_554 S
O63 C67 1.246 1_554 S
O64 Mg59 2.032 . S
O64 C67 1.259 . S
O65 Mg56 2.121 . S
O65 C68 1.252 . S
O66 Mg56 2.260 . S
O66 Mg59 2.079 . S
O66 C68 1.273 . S
C67 O63 1.246 1_556 S
C67 O64 1.259 . S
C68 O65 1.252 . S
C68 O66 1.273 . S
O69 Mg56 2.005 1_554 S
O69 C61 1.249 . S
Mg70 O71 2.028 1_554 S
Mg70 O77 1.986 1_545 S
Mg70 O79 2.114 . S
Mg70 O80 2.251 1_545 S
Mg70 O83 2.010 . S
O71 Mg70 2.028 1_556 S
O71 C74 1.250 1_545 S
O72 Mg73 2.028 1_556 S
O72 C74 1.248 . S
Mg73 O72 2.028 1_554 S
Mg73 O78 2.032 . S
Mg73 O80 2.079 . S
C74 O71 1.250 1_565 S
C74 O72 1.248 . S
C75 O76 1.264 . S
C75 O83 1.249 . S
O76 C75 1.264 . S
O77 Mg70 1.986 1_565 S
O77 C81 1.246 . S
O78 Mg73 2.032 . S
O78 C81 1.259 . S
O79 Mg70 2.114 . S
O79 C82 1.252 . S
O80 Mg70 2.251 1_565 S
O80 Mg73 2.079 . S
O80 C82 1.273 1_565 S
C81 O77 1.246 . S
C81 O78 1.259 . S
C82 O79 1.252 . S
C82 O80 1.273 1_545 S
O83 Mg70 2.010 . S
O83 C75 1.249 . S
Mg84 O85 2.028 . S
Mg84 O91 1.986 . S
Mg84 O93 2.114 . S
Mg84 O94 2.251 . S
Mg84 O97 2.010 . S
O85 Mg84 2.028 . S
O85 C88 1.250 . S
O86 Mg87 2.028 . S
O86 C88 1.248 . S
Mg87 O86 2.028 . S
Mg87 O92 2.032 . S
Mg87 O94 2.079 . S
C88 O85 1.250 . S
C88 O86 1.248 . S
C89 O90 1.264 . S
C89 O97 1.249 . S
O90 C89 1.264 . S
O91 Mg84 1.986 . S
O91 C95 1.246 . S
O92 Mg87 2.032 . S
O92 C95 1.259 . S
O93 Mg84 2.114 . S
O93 C96 1.252 . S
O94 Mg84 2.251 . S
O94 Mg87 2.079 . S
O94 C96 1.273 . S
C95 O91 1.246 . S
C95 O92 1.259 . S
C96 O93 1.252 . S
C96 O94 1.273 . S
O97 Mg84 2.010 . S
O97 C89 1.249 . S
Mg98 O99 2.028 . S
Mg98 O105 1.931 1_565 S
Mg98 O107 2.114 . S
Mg98 O108 2.251 . S
Mg98 O111 2.010 . S
O99 Mg98 2.028 . S
O99 C102 1.250 . S
O100 Mg101 2.028 . S
O100 C102 1.248 . S
Mg101 O100 2.028 . S
Mg101 O106 2.032 . S
Mg101 O108 2.079 . S
C102 O99 1.250 . S
C102 O100 1.248 . S
C103 O104 1.264 . S
C103 O111 1.249 . S
O104 C103 1.264 . S
O105 Mg98 1.931 1_545 S
O105 C109 1.289 . S
O106 Mg101 2.032 . S
O106 C109 1.259 1_565 S
O107 Mg98 2.114 . S
O107 C110 1.252 . S
O108 Mg98 2.251 . S
O108 Mg101 2.079 . S
O108 C110 1.273 . S
C109 O105 1.289 . S
C109 O106 1.259 1_545 S
C110 O107 1.252 . S
C110 O108 1.273 . S
O111 Mg98 2.010 . S
O111 C103 1.249 . S
Mg112 O113 2.028 . S
Mg112 O119 1.986 . S
Mg112 O121 2.114 . S
Mg112 O122 2.251 . S
Mg112 O125 2.010 1_455 S
O113 Mg112 2.028 . S
O113 C116 1.250 . S
O114 Mg115 2.028 . S
O114 C116 1.248 . S
Mg115 O114 2.028 . S
Mg115 O120 2.032 . S
Mg115 O122 2.079 . S
C116 O113 1.250 . S
C116 O114 1.248 . S
C117 O118 1.264 . S
C117 O125 1.249 . S
O118 C117 1.264 . S
O119 Mg112 1.986 . S
O119 C123 1.246 . S
O120 Mg115 2.032 . S
O120 C123 1.259 . S
O121 Mg112 2.114 . S
O121 C124 1.252 . S
O122 Mg112 2.251 . S
O122 Mg115 2.079 . S
O122 C124 1.273 . S
C123 O119 1.246 . S
C123 O120 1.259 . S
C124 O121 1.252 . S
C124 O122 1.273 . S
O125 Mg112 2.010 1_655 S
O125 C117 1.249 . S
Mg126 O127 2.028 . S
Mg126 O133 1.986 . S
Mg126 O135 2.114 . S
Mg126 O136 2.251 . S
Mg126 O139 2.010 . S
O127 Mg126 2.028 . S
O127 C130 1.250 . S
O128 Mg129 2.028 . S
O128 C130 1.248 . S
Mg129 O128 2.028 . S
Mg129 O134 2.032 . S
Mg129 O136 2.079 . S
C130 O127 1.250 . S
C130 O128 1.248 . S
C131 O132 1.264 . S
C131 O139 1.249 . S
O132 C131 1.264 . S
O133 Mg126 1.986 . S
O133 C137 1.246 1_565 S
O134 Mg129 2.032 . S
O134 C137 1.259 1_565 S
O135 Mg126 2.114 . S
O135 C138 1.252 . S
O136 Mg126 2.251 . S
O136 Mg129 2.079 . S
O136 C138 1.273 . S
C137 O133 1.246 1_545 S
C137 O134 1.259 1_545 S
C138 O135 1.252 . S
C138 O136 1.273 . S
O139 Mg126 2.010 . S
O139 C131 1.249 . S
Mg140 O141 2.028 . S
Mg140 O147 1.986 . S
Mg140 O149 2.114 . S
Mg140 O150 2.251 . S
Mg140 O153 1.955 1_455 S
O141 Mg140 2.028 . S
O141 C144 1.250 . S
O142 Mg143 2.028 . S
O142 C144 1.248 . S
Mg143 O142 2.028 . S
Mg143 O148 2.032 . S
Mg143 O150 2.079 . S
C144 O141 1.250 . S
C144 O142 1.248 . S
C145 O146 1.264 . S
C145 O153 1.306 . S
O146 C145 1.264 . S
O147 Mg140 1.986 . S
O147 C151 1.246 . S
O148 Mg143 2.032 . S
O148 C151 1.259 . S
O149 Mg140 2.114 . S
O149 C152 1.252 . S
O150 Mg140 2.251 . S
O150 Mg143 2.079 . S
O150 C152 1.273 . S
C151 O147 1.246 . S
C151 O148 1.259 . S
C152 O149 1.252 . S
C152 O150 1.273 . S
O153 Mg140 1.955 1_655 S
O153 C145 1.306 . S
Mg154 O155 2.028 . S
Mg154 O161 1.986 . S
Mg154 O163 2.114 . S
Mg154 O164 2.251 . S
Mg154 O167 2.010 . S
O155 Mg154 2.028 . S
O155 C158 1.250 . S
O156 Mg157 2.028 . S
O156 C158 1.248 . S
Mg157 O156 2.028 . S
Mg157 O162 2.032 . S
Mg157 O164 2.079 . S
C158 O155 1.250 . S
C158 O156 1.248 . S
C159 O160 1.264 . S
C159 O167 1.249 . S
O160 C159 1.264 . S
O161 Mg154 1.986 . S
O161 C165 1.246 . S
O162 Mg157 2.032 . S
O162 C165 1.259 . S
O163 Mg154 2.114 . S
O163 C166 1.252 . S
O164 Mg154 2.251 . S
O164 Mg157 2.079 . S
O164 C166 1.273 . S
C165 O161 1.246 . S
C165 O162 1.259 . S
C166 O163 1.252 . S
C166 O164 1.273 . S
O167 Mg154 2.010 . S
O167 C159 1.249 . S
Mg168 O169 2.028 . S
Mg168 O175 1.986 . S
Mg168 O177 2.114 . S
Mg168 O178 2.251 . S
Mg168 O181 2.010 . S
O169 Mg168 2.028 . S
O169 C172 1.250 . S
O170 Mg171 2.028 . S
O170 C172 1.248 . S
Mg171 O170 2.028 . S
Mg171 O176 2.032 . S
Mg171 O178 2.079 . S
C172 O169 1.250 . S
C172 O170 1.248 . S
C173 O174 1.264 . S
C173 O181 1.249 . S
O174 C173 1.264 . S
O175 Mg168 1.986 . S
O175 C179 1.246 1_545 S
O176 Mg171 2.032 . S
O176 C179 1.259 1_545 S
O177 Mg168 2.114 . S
O177 C180 1.252 . S
O178 Mg168 2.251 . S
O178 Mg171 2.079 . S
O178 C180 1.273 . S
C179 O175 1.246 1_565 S
C179 O176 1.259 1_565 S
C180 O177 1.252 . S
C180 O178 1.273 . S
O181 Mg168 2.010 . S
O181 C173 1.249 . S
Mg182 O183 2.028 . S
Mg182 O189 1.986 . S
Mg182 O191 2.114 . S
Mg182 O192 2.251 . S
Mg182 O195 2.010 1_655 S
O183 Mg182 2.028 . S
O183 C186 1.250 . S
O184 Mg185 2.028 . S
O184 C186 1.248 . S
Mg185 O184 2.028 . S
Mg185 O190 2.032 . S
Mg185 O192 2.079 . S
C186 O183 1.250 . S
C186 O184 1.248 . S
C187 O188 1.264 . S
C187 O195 1.249 . S
O188 C187 1.264 . S
O189 Mg182 1.986 . S
O189 C193 1.246 . S
O190 Mg185 2.032 . S
O190 C193 1.259 . S
O191 Mg182 2.114 . S
O191 C194 1.252 . S
O192 Mg182 2.251 . S
O192 Mg185 2.079 . S
O192 C194 1.273 . S
C193 O189 1.246 . S
C193 O190 1.259 . S
C194 O191 1.252 . S
C194 O192 1.273 . S
O195 Mg182 2.010 1_455 S
O195 C187 1.249 . S
Mg196 O197 2.028 . S
Mg196 O203 1.986 . S
Mg196 O205 2.114 . S
Mg196 O206 2.251 . S
Mg196 O209 2.010 . S
O197 Mg196 2.028 . S
O197 C200 1.250 . S
O198 Mg199 2.028 . S
O198 C200 1.248 . S
Mg199 O198 2.028 . S
Mg199 O204 2.032 . S
Mg199 O206 2.079 . S
C200 O197 1.250 . S
C200 O198 1.248 . S
C201 O202 1.264 . S
C201 O209 1.249 . S
O202 C201 1.264 . S
O203 Mg196 1.986 . S
O203 C207 1.246 . S
O204 Mg199 2.032 . S
O204 C207 1.259 . S
O205 Mg196 2.114 . S
O205 C208 1.252 . S
O206 Mg196 2.251 . S
O206 Mg199 2.079 . S
O206 C208 1.273 . S
C207 O203 1.246 . S
C207 O204 1.259 . S
C208 O205 1.252 . S
C208 O206 1.273 . S
O209 Mg196 2.010 . S
O209 C201 1.249 . S
Mg210 O211 2.028 . S
Mg210 O217 1.986 . S
Mg210 O219 2.114 . S
Mg210 O220 2.251 . S
Mg210 O223 2.010 . S
O211 Mg210 2.028 . S
O211 C214 1.250 . S
O212 Mg213 2.028 . S
O212 C214 1.248 . S
Mg213 O212 2.028 . S
Mg213 O218 2.032 . S
Mg213 O220 2.079 . S
C214 O211 1.250 . S
C214 O212 1.248 . S
C215 O216 1.264 . S
C215 O223 1.249 . S
O216 C215 1.264 . S
O217 Mg210 1.986 . S
O217 C221 1.246 . S
O218 Mg213 2.032 . S
O218 C221 1.259 . S
O219 Mg210 2.114 . S
O219 C222 1.252 . S
O220 Mg210 2.251 . S
O220 Mg213 2.079 . S
O220 C222 1.273 . S
C221 O217 1.246 . S
C221 O218 1.259 . S
C222 O219 1.252 . S
C222 O220 1.273 . S
O223 Mg210 2.010 . S
O223 C215 1.249 . S
Mg224 O225 2.028 . S
Mg224 O231 1.986 . S
Mg224 O233 2.114 . S
Mg224 O234 2.251 . S
Mg224 O237 2.010 . S
O225 Mg224 2.028 . S
O225 C228 1.250 . S
O226 Mg227 2.028 . S
O226 C228 1.248 . S
Mg227 O226 2.028 . S
Mg227 O232 2.032 . S
Mg227 O234 2.079 . S
C228 O225 1.250 . S
C228 O226 1.248 . S
C229 O230 1.264 . S
C229 O237 1.249 . S
O230 C229 1.264 . S
O231 Mg224 1.986 . S
O231 C235 1.246 1_545 S
O232 Mg227 2.032 . S
O232 C235 1.259 1_545 S
O233 Mg224 2.114 . S
O233 C236 1.252 . S
O234 Mg224 2.251 . S
O234 Mg227 2.079 . S
O234 C236 1.273 . S
C235 O231 1.246 1_565 S
C235 O232 1.259 1_565 S
C236 O233 1.252 . S
C236 O234 1.273 . S
O237 Mg224 2.010 . S
O237 C229 1.249 . S
Mg238 O239 2.028 . S
Mg238 O245 1.986 . S
Mg238 O247 2.114 . S
Mg238 O248 2.251 . S
Mg238 O251 2.010 1_655 S
O239 Mg238 2.028 . S
O239 C242 1.250 . S
O240 Mg241 2.028 . S
O240 C242 1.248 . S
Mg241 O240 2.028 . S
Mg241 O246 2.032 . S
Mg241 O248 2.079 . S
C242 O239 1.250 . S
C242 O240 1.248 . S
C243 O244 1.264 . S
C243 O251 1.249 . S
O244 C243 1.264 . S
O245 Mg238 1.986 . S
O245 C249 1.246 . S
O246 Mg241 2.032 . S
O246 C249 1.259 . S
O247 Mg238 2.114 . S
O247 C250 1.252 . S
O248 Mg238 2.251 . S
O248 Mg241 2.079 . S
O248 C250 1.273 . S
C249 O245 1.246 . S
C249 O246 1.259 . S
C250 O247 1.252 . S
C250 O248 1.273 . S
O251 Mg238 2.010 1_455 S
O251 C243 1.249 . S
H252 C279 0.929 . S
N253 C278 1.433 . S
N253 C284 1.435 . S
N253 C290 1.423 . S
H254 C280 0.930 . S
H255 C283 0.931 . S
H256 C282 0.929 . S
H257 C285 0.930 . S
H258 C286 0.932 . S
H259 C289 0.929 . S
H260 C288 0.931 . S
H261 C291 0.929 . S
H262 C295 0.932 . S
H263 C292 0.931 . S
H264 C294 0.929 . S
H265 C297 0.929 . S
H266 C298 0.930 . S
H267 C300 0.929 . S
H268 C301 0.931 . S
H269 C303 0.930 . S
H270 C304 0.932 . S
H271 C306 0.931 . S
H272 C307 0.929 . S
H273 C309 0.929 . S
H274 C310 0.931 . S
H275 C312 0.929 . S
N276 C296 1.433 . S
N276 C302 1.435 . S
N276 C308 1.423 . S
H277 C313 0.932 . S
C278 N253 1.433 . S
C278 C279 1.363 . S
C278 C283 1.370 . S
C279 H252 0.929 . S
C279 C278 1.363 . S
C279 C280 1.385 . S
C280 H254 0.930 . S
C280 C279 1.385 . S
C280 C281 1.357 . S
C281 C280 1.357 . S
C281 C282 1.406 . S
C282 H256 0.929 . S
C282 C281 1.406 . S
C282 C283 1.391 . S
C283 H255 0.931 . S
C283 C278 1.370 . S
C283 C282 1.391 . S
C284 N253 1.435 . S
C284 C285 1.358 . S
C284 C289 1.371 . S
C285 H257 0.930 . S
C285 C284 1.358 . S
C285 C286 1.405 . S
C286 H258 0.932 . S
C286 C285 1.405 . S
C286 C287 1.383 . S
C287 C286 1.383 . S
C287 C288 1.393 . S
C288 H260 0.931 . S
C288 C287 1.393 . S
C288 C289 1.382 . S
C289 H259 0.929 . S
C289 C284 1.371 . S
C289 C288 1.382 . S
C290 N253 1.423 . S
C290 C291 1.362 . S
C290 C295 1.388 . S
C291 H261 0.929 . S
C291 C290 1.362 . S
C291 C292 1.376 . S
C292 H263 0.931 . S
C292 C291 1.376 . S
C292 C293 1.396 . S
C293 C292 1.396 . S
C293 C294 1.348 . S
C293 C311 1.472 . S
C294 H264 0.929 . S
C294 C293 1.348 . S
C294 C295 1.443 . S
C295 H262 0.932 . S
C295 C290 1.388 . S
C295 C294 1.443 . S
C296 N276 1.433 . S
C296 C297 1.363 . S
C296 C301 1.370 . S
C297 H265 0.929 . S
C297 C296 1.363 . S
C297 C298 1.385 . S
C298 H266 0.930 . S
C298 C297 1.385 . S
C298 C299 1.357 . S
C299 C298 1.357 . S
C299 C300 1.406 . S
C300 H267 0.929 . S
C300 C299 1.406 . S
C300 C301 1.391 . S
C301 H268 0.931 . S
C301 C296 1.370 . S
C301 C300 1.391 . S
C302 N276 1.435 . S
C302 C303 1.358 . S
C302 C307 1.371 . S
C303 H269 0.930 . S
C303 C302 1.358 . S
C303 C304 1.405 . S
C304 H270 0.932 . S
C304 C303 1.405 . S
C304 C305 1.383 . S
C305 C304 1.383 . S
C305 C306 1.393 . S
C306 H271 0.931 . S
C306 C305 1.393 . S
C306 C307 1.382 . S
C307 H272 0.929 . S
C307 C302 1.371 . S
C307 C306 1.382 . S
C308 N276 1.423 . S
C308 C309 1.362 . S
C308 C313 1.388 . S
C309 H273 0.929 . S
C309 C308 1.362 . S
C309 C310 1.376 . S
C310 H274 0.931 . S
C310 C309 1.376 . S
C310 C311 1.396 . S
C311 C293 1.472 . S
C311 C310 1.396 . S
C311 C312 1.348 . S
C312 H275 0.929 . S
C312 C311 1.348 . S
C312 C313 1.443 . S
C313 H277 0.932 . S
C313 C308 1.388 . S
C313 C312 1.443 . S
H314 C341 0.929 . S
N315 C340 1.433 . S
N315 C346 1.435 . S
N315 C352 1.423 . S
H316 C342 0.930 . S
H317 C345 0.931 . S
H318 C344 0.929 . S
H319 C347 0.930 . S
H320 C348 0.932 . S
H321 C351 0.929 . S
H322 C350 0.931 . S
H323 C353 0.929 . S
H324 C357 0.932 . S
H325 C354 0.931 . S
H326 C356 0.929 . S
H327 C359 0.929 . S
H328 C360 0.930 . S
H329 C362 0.929 . S
H330 C363 0.931 . S
H331 C365 0.930 . S
H332 C366 0.932 . S
H333 C368 0.931 . S
H334 C369 0.929 . S
H335 C371 0.929 . S
H336 C372 0.931 . S
H337 C374 0.929 . S
N338 C358 1.433 . S
N338 C364 1.435 . S
N338 C370 1.423 . S
H339 C375 0.932 . S
C340 N315 1.433 . S
C340 C341 1.363 . S
C340 C345 1.370 . S
C341 H314 0.929 . S
C341 C340 1.363 . S
C341 C342 1.385 . S
C342 H316 0.930 . S
C342 C341 1.385 . S
C342 C343 1.357 . S
C343 C342 1.357 . S
C343 C344 1.406 . S
C344 H318 0.929 . S
C344 C343 1.406 . S
C344 C345 1.391 . S
C345 H317 0.931 . S
C345 C340 1.370 . S
C345 C344 1.391 . S
C346 N315 1.435 . S
C346 C347 1.358 . S
C346 C351 1.371 . S
C347 H319 0.930 . S
C347 C346 1.358 . S
C347 C348 1.405 . S
C348 H320 0.932 . S
C348 C347 1.405 . S
C348 C349 1.383 . S
C349 C348 1.383 . S
C349 C350 1.393 . S
C350 H322 0.931 . S
C350 C349 1.393 . S
C350 C351 1.382 . S
C351 H321 0.929 . S
C351 C346 1.371 . S
C351 C350 1.382 . S
C352 N315 1.423 . S
C352 C353 1.362 . S
C352 C357 1.388 . S
C353 H323 0.929 . S
C353 C352 1.362 . S
C353 C354 1.376 . S
C354 H325 0.931 . S
C354 C353 1.376 . S
C354 C355 1.396 . S
C355 C354 1.396 . S
C355 C356 1.348 . S
C355 C373 1.472 . S
C356 H326 0.929 . S
C356 C355 1.348 . S
C356 C357 1.443 . S
C357 H324 0.932 . S
C357 C352 1.388 . S
C357 C356 1.443 . S
C358 N338 1.433 . S
C358 C359 1.363 . S
C358 C363 1.370 . S
C359 H327 0.929 . S
C359 C358 1.363 . S
C359 C360 1.385 . S
C360 H328 0.930 . S
C360 C359 1.385 . S
C360 C361 1.357 . S
C361 C360 1.357 . S
C361 C362 1.406 . S
C362 H329 0.929 . S
C362 C361 1.406 . S
C362 C363 1.391 . S
C363 H330 0.931 . S
C363 C358 1.370 . S
C363 C362 1.391 . S
C364 N338 1.435 . S
C364 C365 1.358 . S
C364 C369 1.371 . S
C365 H331 0.930 . S
C365 C364 1.358 . S
C365 C366 1.405 . S
C366 H332 0.932 . S
C366 C365 1.405 . S
C366 C367 1.383 . S
C367 C366 1.383 . S
C367 C368 1.393 . S
C368 H333 0.931 . S
C368 C367 1.393 . S
C368 C369 1.382 . S
C369 H334 0.929 . S
C369 C364 1.371 . S
C369 C368 1.382 . S
C370 N338 1.423 . S
C370 C371 1.362 . S
C370 C375 1.388 . S
C371 H335 0.929 . S
C371 C370 1.362 . S
C371 C372 1.376 . S
C372 H336 0.931 . S
C372 C371 1.376 . S
C372 C373 1.396 . S
C373 C355 1.472 . S
C373 C372 1.396 . S
C373 C374 1.348 . S
C374 H337 0.929 . S
C374 C373 1.348 . S
C374 C375 1.443 . S
C375 H339 0.932 . S
C375 C370 1.388 . S
C375 C374 1.443 . S
H376 C403 0.929 . S
N377 C402 1.433 . S
N377 C408 1.435 . S
N377 C414 1.423 . S
H378 C404 0.930 . S
H379 C407 0.931 . S
H380 C406 0.929 . S
H381 C409 0.930 . S
H382 C410 0.932 . S
H383 C413 0.929 . S
H384 C412 0.931 . S
H385 C415 0.929 . S
H386 C419 0.932 . S
H387 C416 0.931 . S
H388 C418 0.929 . S
H389 C421 0.929 . S
H390 C422 0.930 . S
H391 C424 0.929 . S
H392 C425 0.931 . S
H393 C427 0.930 . S
H394 C428 0.932 . S
H395 C430 0.931 . S
H396 C431 0.929 . S
H397 C433 0.929 . S
H398 C434 0.931 . S
H399 C436 0.929 . S
N400 C420 1.433 . S
N400 C426 1.435 . S
N400 C432 1.423 . S
H401 C437 0.932 . S
C402 N377 1.433 . S
C402 C403 1.363 . S
C402 C407 1.370 . S
C403 H376 0.929 . S
C403 C402 1.363 . S
C403 C404 1.385 . S
C404 H378 0.930 . S
C404 C403 1.385 . S
C404 C405 1.357 . S
C405 C404 1.357 . S
C405 C406 1.406 . S
C406 H380 0.929 . S
C406 C405 1.406 . S
C406 C407 1.391 . S
C407 H379 0.931 . S
C407 C402 1.370 . S
C407 C406 1.391 . S
C408 N377 1.435 . S
C408 C409 1.358 . S
C408 C413 1.371 . S
C409 H381 0.930 . S
C409 C408 1.358 . S
C409 C410 1.405 . S
C410 H382 0.932 . S
C410 C409 1.405 . S
C410 C411 1.383 . S
C411 C410 1.383 . S
C411 C412 1.393 . S
C412 H384 0.931 . S
C412 C411 1.393 . S
C412 C413 1.382 . S
C413 H383 0.929 . S
C413 C408 1.371 . S
C413 C412 1.382 . S
C414 N377 1.423 . S
C414 C415 1.362 . S
C414 C419 1.388 . S
C415 H385 0.929 . S
C415 C414 1.362 . S
C415 C416 1.376 . S
C416 H387 0.931 . S
C416 C415 1.376 . S
C416 C417 1.396 . S
C417 C416 1.396 . S
C417 C418 1.348 . S
C417 C435 1.472 . S
C418 H388 0.929 . S
C418 C417 1.348 . S
C418 C419 1.443 . S
C419 H386 0.932 . S
C419 C414 1.388 . S
C419 C418 1.443 . S
C420 N400 1.433 . S
C420 C421 1.363 . S
C420 C425 1.370 . S
C421 H389 0.929 . S
C421 C420 1.363 . S
C421 C422 1.385 . S
C422 H390 0.930 . S
C422 C421 1.385 . S
C422 C423 1.357 . S
C423 C422 1.357 . S
C423 C424 1.406 . S
C424 H391 0.929 . S
C424 C423 1.406 . S
C424 C425 1.391 . S
C425 H392 0.931 . S
C425 C420 1.370 . S
C425 C424 1.391 . S
C426 N400 1.435 . S
C426 C427 1.358 . S
C426 C431 1.371 . S
C427 H393 0.930 . S
C427 C426 1.358 . S
C427 C428 1.405 . S
C428 H394 0.932 . S
C428 C427 1.405 . S
C428 C429 1.383 . S
C429 C428 1.383 . S
C429 C430 1.393 . S
C430 H395 0.931 . S
C430 C429 1.393 . S
C430 C431 1.382 . S
C431 H396 0.929 . S
C431 C426 1.371 . S
C431 C430 1.382 . S
C432 N400 1.423 . S
C432 C433 1.362 . S
C432 C437 1.388 . S
C433 H397 0.929 . S
C433 C432 1.362 . S
C433 C434 1.376 . S
C434 H398 0.931 . S
C434 C433 1.376 . S
C434 C435 1.396 . S
C435 C417 1.472 . S
C435 C434 1.396 . S
C435 C436 1.348 . S
C436 H399 0.929 . S
C436 C435 1.348 . S
C436 C437 1.443 . S
C437 H401 0.932 . S
C437 C432 1.388 . S
C437 C436 1.443 . S
H438 C465 0.929 . S
N439 C464 1.433 . S
N439 C470 1.435 . S
N439 C476 1.423 . S
H440 C466 0.930 . S
H441 C469 0.931 . S
H442 C468 0.929 . S
H443 C471 0.930 . S
H444 C472 0.932 . S
H445 C475 0.929 . S
H446 C474 0.931 . S
H447 C477 0.929 . S
H448 C481 0.932 . S
H449 C478 0.931 . S
H450 C480 0.929 . S
H451 C483 0.929 . S
H452 C484 0.930 . S
H453 C486 0.929 . S
H454 C487 0.931 . S
H455 C489 0.930 . S
H456 C490 0.932 . S
H457 C492 0.931 . S
H458 C493 0.929 . S
H459 C495 0.929 . S
H460 C496 0.931 . S
H461 C498 0.929 . S
N462 C482 1.433 . S
N462 C488 1.435 . S
N462 C494 1.423 . S
H463 C499 0.932 . S
C464 N439 1.433 . S
C464 C465 1.363 . S
C464 C469 1.370 . S
C465 H438 0.929 . S
C465 C464 1.363 . S
C465 C466 1.385 . S
C466 H440 0.930 . S
C466 C465 1.385 . S
C466 C467 1.357 . S
C467 C466 1.357 . S
C467 C468 1.406 . S
C468 H442 0.929 . S
C468 C467 1.406 . S
C468 C469 1.391 . S
C469 H441 0.931 . S
C469 C464 1.370 . S
C469 C468 1.391 . S
C470 N439 1.435 . S
C470 C471 1.358 . S
C470 C475 1.371 . S
C471 H443 0.930 . S
C471 C470 1.358 . S
C471 C472 1.405 . S
C472 H444 0.932 . S
C472 C471 1.405 . S
C472 C473 1.383 . S
C473 C472 1.383 . S
C473 C474 1.393 . S
C474 H446 0.931 . S
C474 C473 1.393 . S
C474 C475 1.382 . S
C475 H445 0.929 . S
C475 C470 1.371 . S
C475 C474 1.382 . S
C476 N439 1.423 . S
C476 C477 1.362 . S
C476 C481 1.388 . S
C477 H447 0.929 . S
C477 C476 1.362 . S
C477 C478 1.376 . S
C478 H449 0.931 . S
C478 C477 1.376 . S
C478 C479 1.396 . S
C479 C478 1.396 . S
C479 C480 1.348 . S
C479 C497 1.472 . S
C480 H450 0.929 . S
C480 C479 1.348 . S
C480 C481 1.443 . S
C481 H448 0.932 . S
C481 C476 1.388 . S
C481 C480 1.443 . S
C482 N462 1.433 . S
C482 C483 1.363 . S
C482 C487 1.370 . S
C483 H451 0.929 . S
C483 C482 1.363 . S
C483 C484 1.385 . S
C484 H452 0.930 . S
C484 C483 1.385 . S
C484 C485 1.357 . S
C485 C484 1.357 . S
C485 C486 1.406 . S
C486 H453 0.929 . S
C486 C485 1.406 . S
C486 C487 1.391 . S
C487 H454 0.931 . S
C487 C482 1.370 . S
C487 C486 1.391 . S
C488 N462 1.435 . S
C488 C489 1.358 . S
C488 C493 1.371 . S
C489 H455 0.930 . S
C489 C488 1.358 . S
C489 C490 1.405 . S
C490 H456 0.932 . S
C490 C489 1.405 . S
C490 C491 1.383 . S
C491 C490 1.383 . S
C491 C492 1.393 . S
C492 H457 0.931 . S
C492 C491 1.393 . S
C492 C493 1.382 . S
C493 H458 0.929 . S
C493 C488 1.371 . S
C493 C492 1.382 . S
C494 N462 1.423 . S
C494 C495 1.362 . S
C494 C499 1.388 . S
C495 H459 0.929 . S
C495 C494 1.362 . S
C495 C496 1.376 . S
C496 H460 0.931 . S
C496 C495 1.376 . S
C496 C497 1.396 . S
C497 C479 1.472 . S
C497 C496 1.396 . S
C497 C498 1.348 . S
C498 H461 0.929 . S
C498 C497 1.348 . S
C498 C499 1.443 . S
C499 H463 0.932 . S
C499 C494 1.388 . S
C499 C498 1.443 . S
H500 C527 0.929 . S
N501 C526 1.433 . S
N501 C532 1.435 . S
N501 C538 1.423 . S
H502 C528 0.930 . S
H503 C531 0.931 . S
H504 C530 0.929 . S
H505 C533 0.930 . S
H506 C534 0.932 . S
H507 C537 0.929 . S
H508 C536 0.931 . S
H509 C539 0.929 . S
H510 C543 0.932 . S
H511 C540 0.931 . S
H512 C542 0.929 . S
H513 C545 0.929 . S
H514 C546 0.930 . S
H515 C548 0.929 . S
H516 C549 0.931 . S
H517 C551 0.930 . S
H518 C552 0.932 . S
H519 C554 0.931 . S
H520 C555 0.929 . S
H521 C557 0.929 . S
H522 C558 0.931 . S
H523 C560 0.929 . S
N524 C544 1.433 . S
N524 C550 1.435 . S
N524 C556 1.423 . S
H525 C561 0.932 . S
C526 N501 1.433 . S
C526 C527 1.363 . S
C526 C531 1.370 . S
C527 H500 0.929 . S
C527 C526 1.363 . S
C527 C528 1.385 . S
C528 H502 0.930 . S
C528 C527 1.385 . S
C528 C529 1.357 . S
C529 C528 1.357 . S
C529 C530 1.406 . S
C530 H504 0.929 . S
C530 C529 1.406 . S
C530 C531 1.391 . S
C531 H503 0.931 . S
C531 C526 1.370 . S
C531 C530 1.391 . S
C532 N501 1.435 . S
C532 C533 1.358 . S
C532 C537 1.371 . S
C533 H505 0.930 . S
C533 C532 1.358 . S
C533 C534 1.405 . S
C534 H506 0.932 . S
C534 C533 1.405 . S
C534 C535 1.383 . S
C535 C534 1.383 . S
C535 C536 1.393 . S
C536 H508 0.931 . S
C536 C535 1.393 . S
C536 C537 1.382 . S
C537 H507 0.929 . S
C537 C532 1.371 . S
C537 C536 1.382 . S
C538 N501 1.423 . S
C538 C539 1.362 . S
C538 C543 1.388 . S
C539 H509 0.929 . S
C539 C538 1.362 . S
C539 C540 1.376 . S
C540 H511 0.931 . S
C540 C539 1.376 . S
C540 C541 1.396 . S
C541 C540 1.396 . S
C541 C542 1.348 . S
C541 C559 1.472 . S
C542 H512 0.929 . S
C542 C541 1.348 . S
C542 C543 1.443 . S
C543 H510 0.932 . S
C543 C538 1.388 . S
C543 C542 1.443 . S
C544 N524 1.433 . S
C544 C545 1.363 . S
C544 C549 1.370 . S
C545 H513 0.929 . S
C545 C544 1.363 . S
C545 C546 1.385 . S
C546 H514 0.930 . S
C546 C545 1.385 . S
C546 C547 1.357 . S
C547 C546 1.357 . S
C547 C548 1.406 . S
C548 H515 0.929 . S
C548 C547 1.406 . S
C548 C549 1.391 . S
C549 H516 0.931 . S
C549 C544 1.370 . S
C549 C548 1.391 . S
C550 N524 1.435 . S
C550 C551 1.358 . S
C550 C555 1.371 . S
C551 H517 0.930 . S
C551 C550 1.358 . S
C551 C552 1.405 . S
C552 H518 0.932 . S
C552 C551 1.405 . S
C552 C553 1.383 . S
C553 C552 1.383 . S
C553 C554 1.393 . S
C554 H519 0.931 . S
C554 C553 1.393 . S
C554 C555 1.382 . S
C555 H520 0.929 . S
C555 C550 1.371 . S
C555 C554 1.382 . S
C556 N524 1.423 . S
C556 C557 1.362 . S
C556 C561 1.388 . S
C557 H521 0.929 . S
C557 C556 1.362 . S
C557 C558 1.376 . S
C558 H522 0.931 . S
C558 C557 1.376 . S
C558 C559 1.396 . S
C559 C541 1.472 . S
C559 C558 1.396 . S
C559 C560 1.348 . S
C560 H523 0.929 . S
C560 C559 1.348 . S
C560 C561 1.443 . S
C561 H525 0.932 . S
C561 C556 1.388 . S
C561 C560 1.443 . S
H562 C589 0.929 . S
N563 C588 1.433 . S
N563 C594 1.435 . S
N563 C600 1.423 . S
H564 C590 0.930 . S
H565 C593 0.931 . S
H566 C592 0.929 . S
H567 C595 0.930 . S
H568 C596 0.932 . S
H569 C599 0.929 . S
H570 C598 0.931 . S
H571 C601 0.929 . S
H572 C605 0.932 . S
H573 C602 0.931 . S
H574 C604 0.929 . S
H575 C607 0.929 . S
H576 C608 0.930 . S
H577 C610 0.929 . S
H578 C611 0.931 . S
H579 C613 0.930 . S
H580 C614 0.932 . S
H581 C616 0.931 . S
H582 C617 0.929 . S
H583 C619 0.929 . S
H584 C620 0.931 . S
H585 C622 0.929 . S
N586 C606 1.433 . S
N586 C612 1.435 . S
N586 C618 1.423 . S
H587 C623 0.932 . S
C588 N563 1.433 . S
C588 C589 1.363 . S
C588 C593 1.370 . S
C589 H562 0.929 . S
C589 C588 1.363 . S
C589 C590 1.385 . S
C590 H564 0.930 . S
C590 C589 1.385 . S
C590 C591 1.357 . S
C591 C590 1.357 . S
C591 C592 1.406 . S
C592 H566 0.929 . S
C592 C591 1.406 . S
C592 C593 1.391 . S
C593 H565 0.931 . S
C593 C588 1.370 . S
C593 C592 1.391 . S
C594 N563 1.435 . S
C594 C595 1.358 . S
C594 C599 1.371 . S
C595 H567 0.930 . S
C595 C594 1.358 . S
C595 C596 1.405 . S
C596 H568 0.932 . S
C596 C595 1.405 . S
C596 C597 1.383 . S
C597 C596 1.383 . S
C597 C598 1.393 . S
C598 H570 0.931 . S
C598 C597 1.393 . S
C598 C599 1.382 . S
C599 H569 0.929 . S
C599 C594 1.371 . S
C599 C598 1.382 . S
C600 N563 1.423 . S
C600 C601 1.362 . S
C600 C605 1.388 . S
C601 H571 0.929 . S
C601 C600 1.362 . S
C601 C602 1.376 . S
C602 H573 0.931 . S
C602 C601 1.376 . S
C602 C603 1.396 . S
C603 C602 1.396 . S
C603 C604 1.348 . S
C603 C621 1.472 . S
C604 H574 0.929 . S
C604 C603 1.348 . S
C604 C605 1.443 . S
C605 H572 0.932 . S
C605 C600 1.388 . S
C605 C604 1.443 . S
C606 N586 1.433 . S
C606 C607 1.363 . S
C606 C611 1.370 . S
C607 H575 0.929 . S
C607 C606 1.363 . S
C607 C608 1.385 . S
C608 H576 0.930 . S
C608 C607 1.385 . S
C608 C609 1.357 . S
C609 C608 1.357 . S
C609 C610 1.406 . S
C610 H577 0.929 . S
C610 C609 1.406 . S
C610 C611 1.391 . S
C611 H578 0.931 . S
C611 C606 1.370 . S
C611 C610 1.391 . S
C612 N586 1.435 . S
C612 C613 1.358 . S
C612 C617 1.371 . S
C613 H579 0.930 . S
C613 C612 1.358 . S
C613 C614 1.405 . S
C614 H580 0.932 . S
C614 C613 1.405 . S
C614 C615 1.383 . S
C615 C614 1.383 . S
C615 C616 1.393 . S
C616 H581 0.931 . S
C616 C615 1.393 . S
C616 C617 1.382 . S
C617 H582 0.929 . S
C617 C612 1.371 . S
C617 C616 1.382 . S
C618 N586 1.423 . S
C618 C619 1.362 . S
C618 C623 1.388 . S
C619 H583 0.929 . S
C619 C618 1.362 . S
C619 C620 1.376 . S
C620 H584 0.931 . S
C620 C619 1.376 . S
C620 C621 1.396 . S
C621 C603 1.472 . S
C621 C620 1.396 . S
C621 C622 1.348 . S
C622 H585 0.929 . S
C622 C621 1.348 . S
C622 C623 1.443 . S
C623 H587 0.932 . S
C623 C618 1.388 . S
C623 C622 1.443 . S
H624 C651 0.929 . S
N625 C650 1.433 . S
N625 C656 1.435 . S
N625 C662 1.423 . S
H626 C652 0.930 . S
H627 C655 0.931 . S
H628 C654 0.929 . S
H629 C657 0.930 . S
H630 C658 0.932 . S
H631 C661 0.929 . S
H632 C660 0.931 . S
H633 C663 0.929 . S
H634 C667 0.932 . S
H635 C664 0.931 . S
H636 C666 0.929 . S
H637 C669 0.929 . S
H638 C670 0.930 . S
H639 C672 0.929 . S
H640 C673 0.931 . S
H641 C675 0.930 . S
H642 C676 0.932 . S
H643 C678 0.931 . S
H644 C679 0.929 . S
H645 C681 0.929 . S
H646 C682 0.931 . S
H647 C684 0.929 . S
N648 C668 1.433 . S
N648 C674 1.435 . S
N648 C680 1.423 . S
H649 C685 0.932 . S
C650 N625 1.433 . S
C650 C651 1.363 . S
C650 C655 1.370 . S
C651 H624 0.929 . S
C651 C650 1.363 . S
C651 C652 1.385 . S
C652 H626 0.930 . S
C652 C651 1.385 . S
C652 C653 1.357 . S
C653 C652 1.357 . S
C653 C654 1.406 . S
C654 H628 0.929 . S
C654 C653 1.406 . S
C654 C655 1.391 . S
C655 H627 0.931 . S
C655 C650 1.370 . S
C655 C654 1.391 . S
C656 N625 1.435 . S
C656 C657 1.358 . S
C656 C661 1.371 . S
C657 H629 0.930 . S
C657 C656 1.358 . S
C657 C658 1.405 . S
C658 H630 0.932 . S
C658 C657 1.405 . S
C658 C659 1.383 . S
C659 C658 1.383 . S
C659 C660 1.393 . S
C660 H632 0.931 . S
C660 C659 1.393 . S
C660 C661 1.382 . S
C661 H631 0.929 . S
C661 C656 1.371 . S
C661 C660 1.382 . S
C662 N625 1.423 . S
C662 C663 1.362 . S
C662 C667 1.388 . S
C663 H633 0.929 . S
C663 C662 1.362 . S
C663 C664 1.376 . S
C664 H635 0.931 . S
C664 C663 1.376 . S
C664 C665 1.396 . S
C665 C664 1.396 . S
C665 C666 1.348 . S
C665 C683 1.472 . S
C666 H636 0.929 . S
C666 C665 1.348 . S
C666 C667 1.443 . S
C667 H634 0.932 . S
C667 C662 1.388 . S
C667 C666 1.443 . S
C668 N648 1.433 . S
C668 C669 1.363 . S
C668 C673 1.370 . S
C669 H637 0.929 . S
C669 C668 1.363 . S
C669 C670 1.385 . S
C670 H638 0.930 . S
C670 C669 1.385 . S
C670 C671 1.357 . S
C671 C670 1.357 . S
C671 C672 1.406 . S
C672 H639 0.929 . S
C672 C671 1.406 . S
C672 C673 1.391 . S
C673 H640 0.931 . S
C673 C668 1.370 . S
C673 C672 1.391 . S
C674 N648 1.435 . S
C674 C675 1.358 . S
C674 C679 1.371 . S
C675 H641 0.930 . S
C675 C674 1.358 . S
C675 C676 1.405 . S
C676 H642 0.932 . S
C676 C675 1.405 . S
C676 C677 1.383 . S
C677 C676 1.383 . S
C677 C678 1.393 . S
C678 H643 0.931 . S
C678 C677 1.393 . S
C678 C679 1.382 . S
C679 H644 0.929 . S
C679 C674 1.371 . S
C679 C678 1.382 . S
C680 N648 1.423 . S
C680 C681 1.362 . S
C680 C685 1.388 . S
C681 H645 0.929 . S
C681 C680 1.362 . S
C681 C682 1.376 . S
C682 H646 0.931 . S
C682 C681 1.376 . S
C682 C683 1.396 . S
C683 C665 1.472 . S
C683 C682 1.396 . S
C683 C684 1.348 . S
C684 H647 0.929 . S
C684 C683 1.348 . S
C684 C685 1.443 . S
C685 H649 0.932 . S
C685 C680 1.388 . S
C685 C684 1.443 . S
H686 C713 0.929 . S
N687 C712 1.433 . S
N687 C718 1.435 . S
N687 C724 1.423 . S
H688 C714 0.930 . S
H689 C717 0.931 . S
H690 C716 0.929 . S
H691 C719 0.930 . S
H692 C720 0.932 . S
H693 C723 0.929 . S
H694 C722 0.931 . S
H695 C725 0.929 . S
H696 C729 0.932 . S
H697 C726 0.931 . S
H698 C728 0.929 . S
H699 C731 0.929 . S
H700 C732 0.930 . S
H701 C734 0.929 . S
H702 C735 0.931 . S
H703 C737 0.930 . S
H704 C738 0.932 . S
H705 C740 0.931 . S
H706 C741 0.929 . S
H707 C743 0.929 . S
H708 C744 0.931 . S
H709 C746 0.929 . S
N710 C730 1.433 . S
N710 C736 1.435 . S
N710 C742 1.423 . S
H711 C747 0.932 . S
C712 N687 1.433 . S
C712 C713 1.363 . S
C712 C717 1.370 . S
C713 H686 0.929 . S
C713 C712 1.363 . S
C713 C714 1.385 . S
C714 H688 0.930 . S
C714 C713 1.385 . S
C714 C715 1.357 . S
C715 C714 1.357 . S
C715 C716 1.406 . S
C716 H690 0.929 . S
C716 C715 1.406 . S
C716 C717 1.391 . S
C717 H689 0.931 . S
C717 C712 1.370 . S
C717 C716 1.391 . S
C718 N687 1.435 . S
C718 C719 1.358 . S
C718 C723 1.371 . S
C719 H691 0.930 . S
C719 C718 1.358 . S
C719 C720 1.405 . S
C720 H692 0.932 . S
C720 C719 1.405 . S
C720 C721 1.383 . S
C721 C720 1.383 . S
C721 C722 1.393 . S
C722 H694 0.931 . S
C722 C721 1.393 . S
C722 C723 1.382 . S
C723 H693 0.929 . S
C723 C718 1.371 . S
C723 C722 1.382 . S
C724 N687 1.423 . S
C724 C725 1.362 . S
C724 C729 1.388 . S
C725 H695 0.929 . S
C725 C724 1.362 . S
C725 C726 1.376 . S
C726 H697 0.931 . S
C726 C725 1.376 . S
C726 C727 1.396 . S
C727 C726 1.396 . S
C727 C728 1.348 . S
C727 C745 1.472 . S
C728 H698 0.929 . S
C728 C727 1.348 . S
C728 C729 1.443 . S
C729 H696 0.932 . S
C729 C724 1.388 . S
C729 C728 1.443 . S
C730 N710 1.433 . S
C730 C731 1.363 . S
C730 C735 1.370 . S
C731 H699 0.929 . S
C731 C730 1.363 . S
C731 C732 1.385 . S
C732 H700 0.930 . S
C732 C731 1.385 . S
C732 C733 1.357 . S
C733 C732 1.357 . S
C733 C734 1.406 . S
C734 H701 0.929 . S
C734 C733 1.406 . S
C734 C735 1.391 . S
C735 H702 0.931 . S
C735 C730 1.370 . S
C735 C734 1.391 . S
C736 N710 1.435 . S
C736 C737 1.358 . S
C736 C741 1.371 . S
C737 H703 0.930 . S
C737 C736 1.358 . S
C737 C738 1.405 . S
C738 H704 0.932 . S
C738 C737 1.405 . S
C738 C739 1.383 . S
C739 C738 1.383 . S
C739 C740 1.393 . S
C740 H705 0.931 . S
C740 C739 1.393 . S
C740 C741 1.382 . S
C741 H706 0.929 . S
C741 C736 1.371 . S
C741 C740 1.382 . S
C742 N710 1.423 . S
C742 C743 1.362 . S
C742 C747 1.388 . S
C743 H707 0.929 . S
C743 C742 1.362 . S
C743 C744 1.376 . S
C744 H708 0.931 . S
C744 C743 1.376 . S
C744 C745 1.396 . S
C745 C727 1.472 . S
C745 C744 1.396 . S
C745 C746 1.348 . S
C746 H709 0.929 . S
C746 C745 1.348 . S
C746 C747 1.443 . S
C747 H711 0.932 . S
C747 C742 1.388 . S
C747 C746 1.443 . S
H748 C775 0.929 . S
N749 C774 1.433 . S
N749 C780 1.435 . S
N749 C786 1.423 . S
H750 C776 0.930 . S
H751 C779 0.931 . S
H752 C778 0.929 . S
H753 C781 0.930 . S
H754 C782 0.932 . S
H755 C785 0.929 . S
H756 C784 0.931 . S
H757 C787 0.929 . S
H758 C791 0.932 . S
H759 C788 0.931 . S
H760 C790 0.929 . S
H761 C793 0.929 . S
H762 C794 0.930 . S
H763 C796 0.929 . S
H764 C797 0.931 . S
H765 C799 0.930 . S
H766 C800 0.932 . S
H767 C802 0.931 . S
H768 C803 0.929 . S
H769 C805 0.929 . S
H770 C806 0.931 . S
H771 C808 0.929 . S
N772 C792 1.433 . S
N772 C798 1.435 . S
N772 C804 1.423 . S
H773 C809 0.932 . S
C774 N749 1.433 . S
C774 C775 1.363 . S
C774 C779 1.370 . S
C775 H748 0.929 . S
C775 C774 1.363 . S
C775 C776 1.385 . S
C776 H750 0.930 . S
C776 C775 1.385 . S
C776 C777 1.357 . S
C777 C776 1.357 . S
C777 C778 1.406 . S
C778 H752 0.929 . S
C778 C777 1.406 . S
C778 C779 1.391 . S
C779 H751 0.931 . S
C779 C774 1.370 . S
C779 C778 1.391 . S
C780 N749 1.435 . S
C780 C781 1.358 . S
C780 C785 1.371 . S
C781 H753 0.930 . S
C781 C780 1.358 . S
C781 C782 1.405 . S
C782 H754 0.932 . S
C782 C781 1.405 . S
C782 C783 1.383 . S
C783 C782 1.383 . S
C783 C784 1.393 . S
C784 H756 0.931 . S
C784 C783 1.393 . S
C784 C785 1.382 . S
C785 H755 0.929 . S
C785 C780 1.371 . S
C785 C784 1.382 . S
C786 N749 1.423 . S
C786 C787 1.362 . S
C786 C791 1.388 . S
C787 H757 0.929 . S
C787 C786 1.362 . S
C787 C788 1.376 . S
C788 H759 0.931 . S
C788 C787 1.376 . S
C788 C789 1.396 . S
C789 C788 1.396 . S
C789 C790 1.348 . S
C789 C807 1.472 . S
C790 H760 0.929 . S
C790 C789 1.348 . S
C790 C791 1.443 . S
C791 H758 0.932 . S
C791 C786 1.388 . S
C791 C790 1.443 . S
C792 N772 1.433 . S
C792 C793 1.363 . S
C792 C797 1.370 . S
C793 H761 0.929 . S
C793 C792 1.363 . S
C793 C794 1.385 . S
C794 H762 0.930 . S
C794 C793 1.385 . S
C794 C795 1.357 . S
C795 C794 1.357 . S
C795 C796 1.406 . S
C796 H763 0.929 . S
C796 C795 1.406 . S
C796 C797 1.391 . S
C797 H764 0.931 . S
C797 C792 1.370 . S
C797 C796 1.391 . S
C798 N772 1.435 . S
C798 C799 1.358 . S
C798 C803 1.371 . S
C799 H765 0.930 . S
C799 C798 1.358 . S
C799 C800 1.405 . S
C800 H766 0.932 . S
C800 C799 1.405 . S
C800 C801 1.383 . S
C801 C800 1.383 . S
C801 C802 1.393 . S
C802 H767 0.931 . S
C802 C801 1.393 . S
C802 C803 1.382 . S
C803 H768 0.929 . S
C803 C798 1.371 . S
C803 C802 1.382 . S
C804 N772 1.423 . S
C804 C805 1.362 . S
C804 C809 1.388 . S
C805 H769 0.929 . S
C805 C804 1.362 . S
C805 C806 1.376 . S
C806 H770 0.931 . S
C806 C805 1.376 . S
C806 C807 1.396 . S
C807 C789 1.472 . S
C807 C806 1.396 . S
C807 C808 1.348 . S
C808 H771 0.929 . S
C808 C807 1.348 . S
C808 C809 1.443 . S
C809 H773 0.932 . S
C809 C804 1.388 . S
C809 C808 1.443 . S
H810 C837 0.929 . S
N811 C836 1.433 . S
N811 C842 1.435 . S
N811 C848 1.423 . S
H812 C838 0.930 . S
H813 C841 0.931 . S
H814 C840 0.929 . S
H815 C843 0.930 . S
H816 C844 0.932 . S
H817 C847 0.929 . S
H818 C846 0.931 . S
H819 C849 0.929 . S
H820 C853 0.932 1_655 S
H821 C850 0.931 . S
H822 C852 0.929 . S
H823 C855 0.929 . S
H824 C856 0.930 . S
H825 C858 0.929 . S
H826 C859 0.931 . S
H827 C861 0.930 . S
H828 C862 0.932 . S
H829 C864 0.931 . S
H830 C865 0.929 . S
H831 C867 0.929 . S
H832 C868 0.931 . S
H833 C870 0.929 . S
N834 C854 1.433 . S
N834 C860 1.435 . S
N834 C866 1.423 . S
H835 C871 0.932 1_655 S
C836 N811 1.433 . S
C836 C837 1.363 . S
C836 C841 1.370 1_455 S
C837 H810 0.929 . S
C837 C836 1.363 . S
C837 C838 1.385 . S
C838 H812 0.930 . S
C838 C837 1.385 . S
C838 C839 1.357 1_455 S
C839 C838 1.357 1_655 S
C839 C840 1.406 . S
C840 H814 0.929 . S
C840 C839 1.406 . S
C840 C841 1.391 . S
C841 H813 0.931 . S
C841 C836 1.370 1_655 S
C841 C840 1.391 . S
C842 N811 1.435 . S
C842 C843 1.358 1_455 S
C842 C847 1.371 . S
C843 H815 0.930 . S
C843 C842 1.358 1_655 S
C843 C844 1.405 . S
C844 H816 0.932 . S
C844 C843 1.405 . S
C844 C845 1.383 1_655 S
C845 C844 1.383 1_455 S
C845 C846 1.393 . S
C846 H818 0.931 . S
C846 C845 1.393 . S
C846 C847 1.382 . S
C847 H817 0.929 . S
C847 C842 1.371 . S
C847 C846 1.382 . S
C848 N811 1.423 . S
C848 C849 1.362 . S
C848 C853 1.388 . S
C849 H819 0.929 . S
C849 C848 1.362 . S
C849 C850 1.376 . S
C850 H821 0.931 . S
C850 C849 1.376 . S
C850 C851 1.396 . S
C851 C850 1.396 . S
C851 C852 1.348 . S
C851 C869 1.472 . S
C852 H822 0.929 . S
C852 C851 1.348 . S
C852 C853 1.443 . S
C853 H820 0.932 1_455 S
C853 C848 1.388 . S
C853 C852 1.443 . S
C854 N834 1.433 . S
C854 C855 1.363 . S
C854 C859 1.370 1_455 S
C855 H823 0.929 . S
C855 C854 1.363 . S
C855 C856 1.385 . S
C856 H824 0.930 . S
C856 C855 1.385 . S
C856 C857 1.357 1_455 S
C857 C856 1.357 1_655 S
C857 C858 1.406 . S
C858 H825 0.929 . S
C858 C857 1.406 . S
C858 C859 1.391 . S
C859 H826 0.931 . S
C859 C854 1.370 1_655 S
C859 C858 1.391 . S
C860 N834 1.435 . S
C860 C861 1.358 1_455 S
C860 C865 1.371 . S
C861 H827 0.930 . S
C861 C860 1.358 1_655 S
C861 C862 1.405 . S
C862 H828 0.932 . S
C862 C861 1.405 . S
C862 C863 1.383 1_655 S
C863 C862 1.383 1_455 S
C863 C864 1.393 . S
C864 H829 0.931 . S
C864 C863 1.393 . S
C864 C865 1.382 . S
C865 H830 0.929 . S
C865 C860 1.371 . S
C865 C864 1.382 . S
C866 N834 1.423 . S
C866 C867 1.362 . S
C866 C871 1.388 . S
C867 H831 0.929 . S
C867 C866 1.362 . S
C867 C868 1.376 . S
C868 H832 0.931 . S
C868 C867 1.376 . S
C868 C869 1.396 . S
C869 C851 1.472 . S
C869 C868 1.396 . S
C869 C870 1.348 . S
C870 H833 0.929 . S
C870 C869 1.348 . S
C870 C871 1.443 . S
C871 H835 0.932 1_455 S
C871 C866 1.388 . S
C871 C870 1.443 . S
H872 C899 0.929 . S
N873 C898 1.433 . S
N873 C904 1.435 . S
N873 C910 1.423 . S
H874 C900 0.930 . S
H875 C903 0.931 . S
H876 C902 0.929 . S
H877 C905 0.930 . S
H878 C906 0.932 . S
H879 C909 0.929 . S
H880 C908 0.931 . S
H881 C911 0.929 . S
H882 C915 0.932 . S
H883 C912 0.931 . S
H884 C914 0.929 . S
H885 C917 0.929 . S
H886 C918 0.930 . S
H887 C920 0.929 . S
H888 C921 0.931 . S
H889 C923 0.930 . S
H890 C924 0.932 . S
H891 C926 0.931 . S
H892 C927 0.929 . S
H893 C929 0.929 . S
H894 C930 0.931 . S
H895 C932 0.929 . S
N896 C916 1.433 . S
N896 C922 1.435 . S
N896 C928 1.423 . S
H897 C933 0.932 . S
C898 N873 1.433 . S
C898 C899 1.363 . S
C898 C903 1.370 . S
C899 H872 0.929 . S
C899 C898 1.363 . S
C899 C900 1.385 . S
C900 H874 0.930 . S
C900 C899 1.385 . S
C900 C901 1.357 . S
C901 C900 1.357 . S
C901 C902 1.406 . S
C902 H876 0.929 . S
C902 C901 1.406 . S
C902 C903 1.391 . S
C903 H875 0.931 . S
C903 C898 1.370 . S
C903 C902 1.391 . S
C904 N873 1.435 . S
C904 C905 1.358 . S
C904 C909 1.371 . S
C905 H877 0.930 . S
C905 C904 1.358 . S
C905 C906 1.405 . S
C906 H878 0.932 . S
C906 C905 1.405 . S
C906 C907 1.383 . S
C907 C906 1.383 . S
C907 C908 1.393 . S
C908 H880 0.931 . S
C908 C907 1.393 . S
C908 C909 1.382 . S
C909 H879 0.929 . S
C909 C904 1.371 . S
C909 C908 1.382 . S
C910 N873 1.423 . S
C910 C911 1.362 . S
C910 C915 1.388 . S
C911 H881 0.929 . S
C911 C910 1.362 . S
C911 C912 1.376 . S
C912 H883 0.931 . S
C912 C911 1.376 . S
C912 C913 1.396 . S
C913 C912 1.396 . S
C913 C914 1.348 . S
C913 C931 1.472 . S
C914 H884 0.929 . S
C914 C913 1.348 . S
C914 C915 1.443 . S
C915 H882 0.932 . S
C915 C910 1.388 . S
C915 C914 1.443 . S
C916 N896 1.433 . S
C916 C917 1.363 . S
C916 C921 1.370 . S
C917 H885 0.929 . S
C917 C916 1.363 . S
C917 C918 1.385 . S
C918 H886 0.930 . S
C918 C917 1.385 . S
C918 C919 1.357 . S
C919 C918 1.357 . S
C919 C920 1.406 . S
C920 H887 0.929 . S
C920 C919 1.406 . S
C920 C921 1.391 . S
C921 H888 0.931 . S
C921 C916 1.370 . S
C921 C920 1.391 . S
C922 N896 1.435 . S
C922 C923 1.358 . S
C922 C927 1.371 . S
C923 H889 0.930 . S
C923 C922 1.358 . S
C923 C924 1.405 . S
C924 H890 0.932 . S
C924 C923 1.405 . S
C924 C925 1.383 . S
C925 C924 1.383 . S
C925 C926 1.393 . S
C926 H891 0.931 . S
C926 C925 1.393 . S
C926 C927 1.382 . S
C927 H892 0.929 . S
C927 C922 1.371 . S
C927 C926 1.382 . S
C928 N896 1.423 . S
C928 C929 1.362 . S
C928 C933 1.388 . S
C929 H893 0.929 . S
C929 C928 1.362 . S
C929 C930 1.376 . S
C930 H894 0.931 . S
C930 C929 1.376 . S
C930 C931 1.396 . S
C931 C913 1.472 . S
C931 C930 1.396 . S
C931 C932 1.348 . S
C932 H895 0.929 . S
C932 C931 1.348 . S
C932 C933 1.443 . S
C933 H897 0.932 . S
C933 C928 1.388 . S
C933 C932 1.443 . S
H934 C961 0.929 . S
N935 C960 1.433 . S
N935 C966 1.435 . S
N935 C972 1.423 . S
H936 C962 0.930 . S
H937 C965 0.931 . S
H938 C964 0.929 . S
H939 C967 0.930 . S
H940 C968 0.932 . S
H941 C971 0.929 . S
H942 C970 0.931 . S
H943 C973 0.929 . S
H944 C977 0.932 1_545 S
H945 C974 0.931 . S
H946 C976 0.929 . S
H947 C979 0.929 . S
H948 C980 0.930 . S
H949 C982 0.929 . S
H950 C983 0.931 . S
H951 C985 0.930 . S
H952 C986 0.932 . S
H953 C988 0.931 . S
H954 C989 0.929 . S
H955 C991 0.929 . S
H956 C992 0.931 . S
H957 C994 0.929 . S
N958 C978 1.433 . S
N958 C984 1.435 . S
N958 C990 1.423 . S
H959 C995 0.932 1_545 S
C960 N935 1.433 . S
C960 C961 1.363 . S
C960 C965 1.370 1_565 S
C961 H934 0.929 . S
C961 C960 1.363 . S
C961 C962 1.385 . S
C962 H936 0.930 . S
C962 C961 1.385 . S
C962 C963 1.357 1_565 S
C963 C962 1.357 1_545 S
C963 C964 1.406 . S
C964 H938 0.929 . S
C964 C963 1.406 . S
C964 C965 1.391 . S
C965 H937 0.931 . S
C965 C960 1.370 1_545 S
C965 C964 1.391 . S
C966 N935 1.435 . S
C966 C967 1.358 1_565 S
C966 C971 1.371 . S
C967 H939 0.930 . S
C967 C966 1.358 1_545 S
C967 C968 1.405 . S
C968 H940 0.932 . S
C968 C967 1.405 . S
C968 C969 1.383 1_545 S
C969 C968 1.383 1_565 S
C969 C970 1.393 . S
C970 H942 0.931 . S
C970 C969 1.393 . S
C970 C971 1.382 . S
C971 H941 0.929 . S
C971 C966 1.371 . S
C971 C970 1.382 . S
C972 N935 1.423 . S
C972 C973 1.362 . S
C972 C977 1.388 . S
C973 H943 0.929 . S
C973 C972 1.362 . S
C973 C974 1.376 . S
C974 H945 0.931 . S
C974 C973 1.376 . S
C974 C975 1.396 . S
C975 C974 1.396 . S
C975 C976 1.348 . S
C975 C993 1.472 . S
C976 H946 0.929 . S
C976 C975 1.348 . S
C976 C977 1.443 . S
C977 H944 0.932 1_565 S
C977 C972 1.388 . S
C977 C976 1.443 . S
C978 N958 1.433 . S
C978 C979 1.363 . S
C978 C983 1.370 1_565 S
C979 H947 0.929 . S
C979 C978 1.363 . S
C979 C980 1.385 . S
C980 H948 0.930 . S
C980 C979 1.385 . S
C980 C981 1.357 1_565 S
C981 C980 1.357 1_545 S
C981 C982 1.406 . S
C982 H949 0.929 . S
C982 C981 1.406 . S
C982 C983 1.391 . S
C983 H950 0.931 . S
C983 C978 1.370 1_545 S
C983 C982 1.391 . S
C984 N958 1.435 . S
C984 C985 1.358 1_565 S
C984 C989 1.371 . S
C985 H951 0.930 . S
C985 C984 1.358 1_545 S
C985 C986 1.405 . S
C986 H952 0.932 . S
C986 C985 1.405 . S
C986 C987 1.383 1_545 S
C987 C986 1.383 1_565 S
C987 C988 1.393 . S
C988 H953 0.931 . S
C988 C987 1.393 . S
C988 C989 1.382 . S
C989 H954 0.929 . S
C989 C984 1.371 . S
C989 C988 1.382 . S
C990 N958 1.423 . S
C990 C991 1.362 . S
C990 C995 1.388 . S
C991 H955 0.929 . S
C991 C990 1.362 . S
C991 C992 1.376 . S
C992 H956 0.931 . S
C992 C991 1.376 . S
C992 C993 1.396 . S
C993 C975 1.472 . S
C993 C992 1.396 . S
C993 C994 1.348 . S
C994 H957 0.929 . S
C994 C993 1.348 . S
C994 C995 1.443 . S
C995 H959 0.932 1_565 S
C995 C990 1.388 . S
C995 C994 1.443 . S
H996 C1023 0.929 . S
N997 C1022 1.433 . S
N997 C1028 1.435 . S
N997 C1034 1.423 . S
H998 C1024 0.930 . S
H999 C1027 0.930 . S
H1000 C1026 0.939 . S
H1001 C1029 0.930 . S
H1002 C1030 0.932 . S
H1003 C1033 0.929 . S
H1004 C1032 0.931 . S
H1005 C1035 0.929 . S
H1006 C1039 0.932 . S
H1007 C1036 0.931 . S
H1008 C1038 0.919 1_545 S
H1009 C1041 0.929 . S
H1010 C1042 0.930 . S
H1011 C1044 0.929 . S
H1012 C1045 0.990 . S
H1013 C1047 0.930 . S
H1014 C1048 0.932 . S
H1015 C1050 0.931 . S
H1016 C1051 0.929 . S
H1017 C1053 0.929 . S
H1018 C1054 0.931 . S
H1019 C1056 0.903 1_545 S
N1020 C1040 1.433 . S
N1020 C1046 1.435 . S
N1020 C1052 1.423 . S
H1021 C1057 0.932 . S
C1022 N997 1.433 . S
C1022 C1023 1.363 . S
C1022 C1027 1.366 1_565 S
C1023 H996 0.929 . S
C1023 C1022 1.363 . S
C1023 C1024 1.385 . S
C1024 H998 0.930 . S
C1024 C1023 1.385 . S
C1024 C1025 1.357 . S
C1025 C1024 1.357 . S
C1025 C1026 1.410 1_565 S
C1026 H1000 0.939 . S
C1026 C1025 1.410 1_545 S
C1026 C1027 1.389 . S
C1027 H999 0.930 . S
C1027 C1022 1.366 1_545 S
C1027 C1026 1.389 . S
C1028 N997 1.435 . S
C1028 C1029 1.358 1_565 S
C1028 C1033 1.371 . S
C1029 H1001 0.930 . S
C1029 C1028 1.358 1_545 S
C1029 C1030 1.405 . S
C1030 H1002 0.932 . S
C1030 C1029 1.405 . S
C1030 C1031 1.383 . S
C1031 C1030 1.383 . S
C1031 C1032 1.393 1_545 S
C1032 H1004 0.931 . S
C1032 C1031 1.393 1_565 S
C1032 C1033 1.382 . S
C1033 H1003 0.929 . S
C1033 C1028 1.371 . S
C1033 C1032 1.382 . S
C1034 N997 1.423 . S
C1034 C1035 1.362 . S
C1034 C1039 1.388 1_565 S
C1035 H1005 0.929 . S
C1035 C1034 1.362 . S
C1035 C1036 1.376 . S
C1036 H1007 0.931 . S
C1036 C1035 1.376 . S
C1036 C1037 1.396 . S
C1037 C1036 1.396 . S
C1037 C1038 1.385 . S
C1037 C1055 1.472 . S
C1038 H1008 0.919 1_565 S
C1038 C1037 1.385 . S
C1038 C1039 1.417 1_565 S
C1039 H1006 0.932 . S
C1039 C1034 1.388 1_545 S
C1039 C1038 1.417 1_545 S
C1040 N1020 1.433 . S
C1040 C1041 1.363 . S
C1040 C1045 1.326 1_565 S
C1041 H1009 0.929 . S
C1041 C1040 1.363 . S
C1041 C1042 1.385 . S
C1042 H1010 0.930 . S
C1042 C1041 1.385 . S
C1042 C1043 1.357 . S
C1043 C1042 1.357 . S
C1043 C1044 1.406 1_565 S
C1044 H1011 0.929 . S
C1044 C1043 1.406 1_545 S
C1044 C1045 1.380 . S
C1045 H1012 0.990 . S
C1045 C1040 1.326 1_545 S
C1045 C1044 1.380 . S
C1046 N1020 1.435 . S
C1046 C1047 1.358 1_565 S
C1046 C1051 1.371 . S
C1047 H1013 0.930 . S
C1047 C1046 1.358 1_545 S
C1047 C1048 1.405 . S
C1048 H1014 0.932 . S
C1048 C1047 1.405 . S
C1048 C1049 1.383 . S
C1049 C1048 1.383 . S
C1049 C1050 1.393 1_545 S
C1050 H1015 0.931 . S
C1050 C1049 1.393 1_565 S
C1050 C1051 1.382 . S
C1051 H1016 0.929 . S
C1051 C1046 1.371 . S
C1051 C1050 1.382 . S
C1052 N1020 1.423 . S
C1052 C1053 1.362 . S
C1052 C1057 1.388 1_565 S
C1053 H1017 0.929 . S
C1053 C1052 1.362 . S
C1053 C1054 1.376 . S
C1054 H1018 0.931 . S
C1054 C1053 1.376 . S
C1054 C1055 1.396 . S
C1055 C1037 1.472 . S
C1055 C1054 1.396 . S
C1055 C1056 1.359 . S
C1056 H1019 0.903 1_565 S
C1056 C1055 1.359 . S
C1056 C1057 1.458 1_565 S
C1057 H1021 0.932 . S
C1057 C1052 1.388 1_545 S
C1057 C1056 1.458 1_545 S
H1058 C1085 0.929 . S
N1059 C1084 1.433 . S
N1059 C1090 1.435 . S
N1059 C1096 1.423 . S
H1060 C1086 0.930 . S
H1061 C1089 0.931 . S
H1062 C1088 0.929 . S
H1063 C1091 0.930 . S
H1064 C1092 0.932 . S
H1065 C1095 0.929 . S
H1066 C1094 0.931 . S
H1067 C1097 0.929 . S
H1068 C1101 0.932 1_455 S
H1069 C1098 0.931 . S
H1070 C1100 0.929 . S
H1071 C1103 0.929 . S
H1072 C1104 0.930 . S
H1073 C1106 0.929 . S
H1074 C1107 0.931 . S
H1075 C1109 0.930 . S
H1076 C1110 0.932 . S
H1077 C1112 0.931 . S
H1078 C1113 0.929 . S
H1079 C1115 0.929 . S
H1080 C1116 0.931 . S
H1081 C1118 0.929 . S
N1082 C1102 1.433 . S
N1082 C1108 1.435 . S
N1082 C1114 1.423 . S
H1083 C1119 0.932 1_455 S
C1084 N1059 1.433 . S
C1084 C1085 1.363 . S
C1084 C1089 1.370 1_655 S
C1085 H1058 0.929 . S
C1085 C1084 1.363 . S
C1085 C1086 1.385 . S
C1086 H1060 0.930 . S
C1086 C1085 1.385 . S
C1086 C1087 1.357 1_655 S
C1087 C1086 1.357 1_455 S
C1087 C1088 1.406 . S
C1088 H1062 0.929 . S
C1088 C1087 1.406 . S
C1088 C1089 1.391 . S
C1089 H1061 0.931 . S
C1089 C1084 1.370 1_455 S
C1089 C1088 1.391 . S
C1090 N1059 1.435 . S
C1090 C1091 1.358 1_655 S
C1090 C1095 1.371 . S
C1091 H1063 0.930 . S
C1091 C1090 1.358 1_455 S
C1091 C1092 1.405 . S
C1092 H1064 0.932 . S
C1092 C1091 1.405 . S
C1092 C1093 1.383 1_455 S
C1093 C1092 1.383 1_655 S
C1093 C1094 1.393 . S
C1094 H1066 0.931 . S
C1094 C1093 1.393 . S
C1094 C1095 1.382 . S
C1095 H1065 0.929 . S
C1095 C1090 1.371 . S
C1095 C1094 1.382 . S
C1096 N1059 1.423 . S
C1096 C1097 1.362 . S
C1096 C1101 1.388 . S
C1097 H1067 0.929 . S
C1097 C1096 1.362 . S
C1097 C1098 1.376 . S
C1098 H1069 0.931 . S
C1098 C1097 1.376 . S
C1098 C1099 1.396 . S
C1099 C1098 1.396 . S
C1099 C1100 1.348 . S
C1099 C1117 1.472 . S
C1100 H1070 0.929 . S
C1100 C1099 1.348 . S
C1100 C1101 1.443 . S
C1101 H1068 0.932 1_655 S
C1101 C1096 1.388 . S
C1101 C1100 1.443 . S
C1102 N1082 1.433 . S
C1102 C1103 1.363 . S
C1102 C1107 1.370 1_655 S
C1103 H1071 0.929 . S
C1103 C1102 1.363 . S
C1103 C1104 1.385 . S
C1104 H1072 0.930 . S
C1104 C1103 1.385 . S
C1104 C1105 1.357 1_655 S
C1105 C1104 1.357 1_455 S
C1105 C1106 1.406 . S
C1106 H1073 0.929 . S
C1106 C1105 1.406 . S
C1106 C1107 1.391 . S
C1107 H1074 0.931 . S
C1107 C1102 1.370 1_455 S
C1107 C1106 1.391 . S
C1108 N1082 1.435 . S
C1108 C1109 1.358 1_655 S
C1108 C1113 1.371 . S
C1109 H1075 0.930 . S
C1109 C1108 1.358 1_455 S
C1109 C1110 1.405 . S
C1110 H1076 0.932 . S
C1110 C1109 1.405 . S
C1110 C1111 1.383 1_455 S
C1111 C1110 1.383 1_655 S
C1111 C1112 1.393 . S
C1112 H1077 0.931 . S
C1112 C1111 1.393 . S
C1112 C1113 1.382 . S
C1113 H1078 0.929 . S
C1113 C1108 1.371 . S
C1113 C1112 1.382 . S
C1114 N1082 1.423 . S
C1114 C1115 1.362 . S
C1114 C1119 1.388 . S
C1115 H1079 0.929 . S
C1115 C1114 1.362 . S
C1115 C1116 1.376 . S
C1116 H1080 0.931 . S
C1116 C1115 1.376 . S
C1116 C1117 1.396 . S
C1117 C1099 1.472 . S
C1117 C1116 1.396 . S
C1117 C1118 1.348 . S
C1118 H1081 0.929 . S
C1118 C1117 1.348 . S
C1118 C1119 1.443 . S
C1119 H1083 0.932 1_655 S
C1119 C1114 1.388 . S
C1119 C1118 1.443 . S
H1120 C1147 0.929 . S
N1121 C1146 1.433 . S
N1121 C1152 1.435 . S
N1121 C1158 1.423 . S
H1122 C1148 0.930 . S
H1123 C1151 0.931 . S
H1124 C1150 0.929 . S
H1125 C1153 0.930 . S
H1126 C1154 0.932 . S
H1127 C1157 0.929 . S
H1128 C1156 0.931 . S
H1129 C1159 0.929 . S
H1130 C1163 0.932 . S
H1131 C1160 0.931 . S
H1132 C1162 0.929 . S
H1133 C1165 0.929 . S
H1134 C1166 0.930 . S
H1135 C1168 0.929 . S
H1136 C1169 0.931 . S
H1137 C1171 0.930 . S
H1138 C1172 0.932 . S
H1139 C1174 0.931 . S
H1140 C1175 0.929 . S
H1141 C1177 0.929 . S
H1142 C1178 0.931 . S
H1143 C1180 0.929 . S
N1144 C1164 1.433 . S
N1144 C1170 1.435 . S
N1144 C1176 1.423 . S
H1145 C1181 0.932 . S
C1146 N1121 1.433 . S
C1146 C1147 1.363 . S
C1146 C1151 1.370 . S
C1147 H1120 0.929 . S
C1147 C1146 1.363 . S
C1147 C1148 1.385 . S
C1148 H1122 0.930 . S
C1148 C1147 1.385 . S
C1148 C1149 1.357 . S
C1149 C1148 1.357 . S
C1149 C1150 1.406 . S
C1150 H1124 0.929 . S
C1150 C1149 1.406 . S
C1150 C1151 1.391 . S
C1151 H1123 0.931 . S
C1151 C1146 1.370 . S
C1151 C1150 1.391 . S
C1152 N1121 1.435 . S
C1152 C1153 1.358 . S
C1152 C1157 1.371 . S
C1153 H1125 0.930 . S
C1153 C1152 1.358 . S
C1153 C1154 1.405 . S
C1154 H1126 0.932 . S
C1154 C1153 1.405 . S
C1154 C1155 1.383 . S
C1155 C1154 1.383 . S
C1155 C1156 1.393 . S
C1156 H1128 0.931 . S
C1156 C1155 1.393 . S
C1156 C1157 1.382 . S
C1157 H1127 0.929 . S
C1157 C1152 1.371 . S
C1157 C1156 1.382 . S
C1158 N1121 1.423 . S
C1158 C1159 1.362 . S
C1158 C1163 1.388 . S
C1159 H1129 0.929 . S
C1159 C1158 1.362 . S
C1159 C1160 1.376 . S
C1160 H1131 0.931 . S
C1160 C1159 1.376 . S
C1160 C1161 1.396 . S
C1161 C1160 1.396 . S
C1161 C1162 1.348 . S
C1161 C1179 1.472 . S
C1162 H1132 0.929 . S
C1162 C1161 1.348 . S
C1162 C1163 1.443 . S
C1163 H1130 0.932 . S
C1163 C1158 1.388 . S
C1163 C1162 1.443 . S
C1164 N1144 1.433 . S
C1164 C1165 1.363 . S
C1164 C1169 1.370 . S
C1165 H1133 0.929 . S
C1165 C1164 1.363 . S
C1165 C1166 1.385 . S
C1166 H1134 0.930 . S
C1166 C1165 1.385 . S
C1166 C1167 1.357 . S
C1167 C1166 1.357 . S
C1167 C1168 1.406 . S
C1168 H1135 0.929 . S
C1168 C1167 1.406 . S
C1168 C1169 1.391 . S
C1169 H1136 0.931 . S
C1169 C1164 1.370 . S
C1169 C1168 1.391 . S
C1170 N1144 1.435 . S
C1170 C1171 1.358 . S
C1170 C1175 1.371 . S
C1171 H1137 0.930 . S
C1171 C1170 1.358 . S
C1171 C1172 1.405 . S
C1172 H1138 0.932 . S
C1172 C1171 1.405 . S
C1172 C1173 1.383 . S
C1173 C1172 1.383 . S
C1173 C1174 1.393 . S
C1174 H1139 0.931 . S
C1174 C1173 1.393 . S
C1174 C1175 1.382 . S
C1175 H1140 0.929 . S
C1175 C1170 1.371 . S
C1175 C1174 1.382 . S
C1176 N1144 1.423 . S
C1176 C1177 1.362 . S
C1176 C1181 1.388 . S
C1177 H1141 0.929 . S
C1177 C1176 1.362 . S
C1177 C1178 1.376 . S
C1178 H1142 0.931 . S
C1178 C1177 1.376 . S
C1178 C1179 1.396 . S
C1179 C1161 1.472 . S
C1179 C1178 1.396 . S
C1179 C1180 1.348 . S
C1180 H1143 0.929 . S
C1180 C1179 1.348 . S
C1180 C1181 1.443 . S
C1181 H1145 0.932 . S
C1181 C1176 1.388 . S
C1181 C1180 1.443 . S
H1182 C1209 0.929 . S
N1183 C1208 1.433 . S
N1183 C1214 1.435 . S
N1183 C1220 1.423 . S
H1184 C1210 0.930 . S
H1185 C1213 0.931 . S
H1186 C1212 0.929 . S
H1187 C1215 0.930 . S
H1188 C1216 0.932 . S
H1189 C1219 0.929 . S
H1190 C1218 0.931 . S
H1191 C1221 0.929 . S
H1192 C1225 0.932 . S
H1193 C1222 0.931 . S
H1194 C1224 0.929 . S
H1195 C1227 0.929 . S
H1196 C1228 0.930 . S
H1197 C1230 0.929 . S
H1198 C1231 0.931 . S
H1199 C1233 0.930 . S
H1200 C1234 0.932 . S
H1201 C1236 0.931 . S
H1202 C1237 0.929 . S
H1203 C1239 0.929 . S
H1204 C1240 0.931 . S
H1205 C1242 0.929 . S
N1206 C1226 1.433 . S
N1206 C1232 1.435 . S
N1206 C1238 1.423 . S
H1207 C1243 0.932 . S
C1208 N1183 1.433 . S
C1208 C1209 1.363 . S
C1208 C1213 1.370 . S
C1209 H1182 0.929 . S
C1209 C1208 1.363 . S
C1209 C1210 1.385 . S
C1210 H1184 0.930 . S
C1210 C1209 1.385 . S
C1210 C1211 1.357 . S
C1211 C1210 1.357 . S
C1211 C1212 1.406 . S
C1212 H1186 0.929 . S
C1212 C1211 1.406 . S
C1212 C1213 1.391 . S
C1213 H1185 0.931 . S
C1213 C1208 1.370 . S
C1213 C1212 1.391 . S
C1214 N1183 1.435 . S
C1214 C1215 1.358 . S
C1214 C1219 1.371 . S
C1215 H1187 0.930 . S
C1215 C1214 1.358 . S
C1215 C1216 1.405 . S
C1216 H1188 0.932 . S
C1216 C1215 1.405 . S
C1216 C1217 1.383 . S
C1217 C1216 1.383 . S
C1217 C1218 1.393 . S
C1218 H1190 0.931 . S
C1218 C1217 1.393 . S
C1218 C1219 1.382 . S
C1219 H1189 0.929 . S
C1219 C1214 1.371 . S
C1219 C1218 1.382 . S
C1220 N1183 1.423 . S
C1220 C1221 1.362 . S
C1220 C1225 1.388 . S
C1221 H1191 0.929 . S
C1221 C1220 1.362 . S
C1221 C1222 1.376 . S
C1222 H1193 0.931 . S
C1222 C1221 1.376 . S
C1222 C1223 1.396 . S
C1223 C1222 1.396 . S
C1223 C1224 1.348 . S
C1223 C1241 1.472 . S
C1224 H1194 0.929 . S
C1224 C1223 1.348 . S
C1224 C1225 1.443 . S
C1225 H1192 0.932 . S
C1225 C1220 1.388 . S
C1225 C1224 1.443 . S
C1226 N1206 1.433 . S
C1226 C1227 1.363 . S
C1226 C1231 1.370 . S
C1227 H1195 0.929 . S
C1227 C1226 1.363 . S
C1227 C1228 1.385 . S
C1228 H1196 0.930 . S
C1228 C1227 1.385 . S
C1228 C1229 1.357 . S
C1229 C1228 1.357 . S
C1229 C1230 1.406 . S
C1230 H1197 0.929 . S
C1230 C1229 1.406 . S
C1230 C1231 1.391 . S
C1231 H1198 0.931 . S
C1231 C1226 1.370 . S
C1231 C1230 1.391 . S
C1232 N1206 1.435 . S
C1232 C1233 1.358 . S
C1232 C1237 1.371 . S
C1233 H1199 0.930 . S
C1233 C1232 1.358 . S
C1233 C1234 1.405 . S
C1234 H1200 0.932 . S
C1234 C1233 1.405 . S
C1234 C1235 1.383 . S
C1235 C1234 1.383 . S
C1235 C1236 1.393 . S
C1236 H1201 0.931 . S
C1236 C1235 1.393 . S
C1236 C1237 1.382 . S
C1237 H1202 0.929 . S
C1237 C1232 1.371 . S
C1237 C1236 1.382 . S
C1238 N1206 1.423 . S
C1238 C1239 1.362 . S
C1238 C1243 1.388 . S
C1239 H1203 0.929 . S
C1239 C1238 1.362 . S
C1239 C1240 1.376 . S
C1240 H1204 0.931 . S
C1240 C1239 1.376 . S
C1240 C1241 1.396 . S
C1241 C1223 1.472 . S
C1241 C1240 1.396 . S
C1241 C1242 1.348 . S
C1242 H1205 0.929 . S
C1242 C1241 1.348 . S
C1242 C1243 1.443 . S
C1243 H1207 0.932 . S
C1243 C1238 1.388 . S
C1243 C1242 1.443 . S
H1244 C1271 0.929 . S
N1245 C1270 1.433 . S
N1245 C1276 1.435 . S
N1245 C1282 1.423 . S
H1246 C1272 0.930 . S
H1247 C1275 0.931 . S
H1248 C1274 0.929 . S
H1249 C1277 0.930 . S
H1250 C1278 0.932 . S
H1251 C1281 0.929 . S
H1252 C1280 0.931 . S
H1253 C1283 0.929 . S
H1254 C1287 0.932 . S
H1255 C1284 0.931 . S
H1256 C1286 0.929 . S
H1257 C1289 0.929 . S
H1258 C1290 0.930 . S
H1259 C1292 0.929 . S
H1260 C1293 0.931 . S
H1261 C1295 0.930 . S
H1262 C1296 0.932 . S
H1263 C1298 0.931 . S
H1264 C1299 0.929 . S
H1265 C1301 0.929 . S
H1266 C1302 0.931 . S
H1267 C1304 0.929 . S
N1268 C1288 1.433 . S
N1268 C1294 1.435 . S
N1268 C1300 1.423 . S
H1269 C1305 0.932 . S
C1270 N1245 1.433 . S
C1270 C1271 1.363 . S
C1270 C1275 1.370 . S
C1271 H1244 0.929 . S
C1271 C1270 1.363 . S
C1271 C1272 1.385 . S
C1272 H1246 0.930 . S
C1272 C1271 1.385 . S
C1272 C1273 1.357 . S
C1273 C1272 1.357 . S
C1273 C1274 1.406 . S
C1274 H1248 0.929 . S
C1274 C1273 1.406 . S
C1274 C1275 1.391 . S
C1275 H1247 0.931 . S
C1275 C1270 1.370 . S
C1275 C1274 1.391 . S
C1276 N1245 1.435 . S
C1276 C1277 1.358 . S
C1276 C1281 1.371 . S
C1277 H1249 0.930 . S
C1277 C1276 1.358 . S
C1277 C1278 1.405 . S
C1278 H1250 0.932 . S
C1278 C1277 1.405 . S
C1278 C1279 1.383 . S
C1279 C1278 1.383 . S
C1279 C1280 1.393 . S
C1280 H1252 0.931 . S
C1280 C1279 1.393 . S
C1280 C1281 1.382 . S
C1281 H1251 0.929 . S
C1281 C1276 1.371 . S
C1281 C1280 1.382 . S
C1282 N1245 1.423 . S
C1282 C1283 1.362 . S
C1282 C1287 1.388 . S
C1283 H1253 0.929 . S
C1283 C1282 1.362 . S
C1283 C1284 1.376 . S
C1284 H1255 0.931 . S
C1284 C1283 1.376 . S
C1284 C1285 1.396 . S
C1285 C1284 1.396 . S
C1285 C1286 1.348 . S
C1285 C1303 1.472 . S
C1286 H1256 0.929 . S
C1286 C1285 1.348 . S
C1286 C1287 1.443 . S
C1287 H1254 0.932 . S
C1287 C1282 1.388 . S
C1287 C1286 1.443 . S
C1288 N1268 1.433 . S
C1288 C1289 1.363 . S
C1288 C1293 1.370 . S
C1289 H1257 0.929 . S
C1289 C1288 1.363 . S
C1289 C1290 1.385 . S
C1290 H1258 0.930 . S
C1290 C1289 1.385 . S
C1290 C1291 1.357 . S
C1291 C1290 1.357 . S
C1291 C1292 1.406 . S
C1292 H1259 0.929 . S
C1292 C1291 1.406 . S
C1292 C1293 1.391 . S
C1293 H1260 0.931 . S
C1293 C1288 1.370 . S
C1293 C1292 1.391 . S
C1294 N1268 1.435 . S
C1294 C1295 1.358 . S
C1294 C1299 1.371 . S
C1295 H1261 0.930 . S
C1295 C1294 1.358 . S
C1295 C1296 1.405 . S
C1296 H1262 0.932 . S
C1296 C1295 1.405 . S
C1296 C1297 1.383 . S
C1297 C1296 1.383 . S
C1297 C1298 1.393 . S
C1298 H1263 0.931 . S
C1298 C1297 1.393 . S
C1298 C1299 1.382 . S
C1299 H1264 0.929 . S
C1299 C1294 1.371 . S
C1299 C1298 1.382 . S
C1300 N1268 1.423 . S
C1300 C1301 1.362 . S
C1300 C1305 1.388 . S
C1301 H1265 0.929 . S
C1301 C1300 1.362 . S
C1301 C1302 1.376 . S
C1302 H1266 0.931 . S
C1302 C1301 1.376 . S
C1302 C1303 1.396 . S
C1303 C1285 1.472 . S
C1303 C1302 1.396 . S
C1303 C1304 1.348 . S
C1304 H1267 0.929 . S
C1304 C1303 1.348 . S
C1304 C1305 1.443 . S
C1305 H1269 0.932 . S
C1305 C1300 1.388 . S
C1305 C1304 1.443 . S
H1306 C1333 0.929 . S
N1307 C1332 1.433 . S
N1307 C1338 1.435 . S
N1307 C1344 1.423 . S
H1308 C1334 0.930 . S
H1309 C1337 0.931 . S
H1310 C1336 0.929 . S
H1311 C1339 0.930 . S
H1312 C1340 0.932 . S
H1313 C1343 0.929 . S
H1314 C1342 0.931 . S
H1315 C1345 0.929 . S
H1316 C1349 0.932 . S
H1317 C1346 0.931 . S
H1318 C1348 0.929 . S
H1319 C1351 0.929 . S
H1320 C1352 0.930 . S
H1321 C1354 0.929 . S
H1322 C1355 0.931 . S
H1323 C1357 0.930 . S
H1324 C1358 0.932 . S
H1325 C1360 0.931 . S
H1326 C1361 0.929 . S
H1327 C1363 0.929 . S
H1328 C1364 0.931 . S
H1329 C1366 0.929 . S
N1330 C1350 1.433 . S
N1330 C1356 1.435 . S
N1330 C1362 1.423 . S
H1331 C1367 0.932 . S
C1332 N1307 1.433 . S
C1332 C1333 1.363 . S
C1332 C1337 1.370 . S
C1333 H1306 0.929 . S
C1333 C1332 1.363 . S
C1333 C1334 1.385 . S
C1334 H1308 0.930 . S
C1334 C1333 1.385 . S
C1334 C1335 1.357 . S
C1335 C1334 1.357 . S
C1335 C1336 1.406 . S
C1336 H1310 0.929 . S
C1336 C1335 1.406 . S
C1336 C1337 1.391 . S
C1337 H1309 0.931 . S
C1337 C1332 1.370 . S
C1337 C1336 1.391 . S
C1338 N1307 1.435 . S
C1338 C1339 1.358 . S
C1338 C1343 1.371 . S
C1339 H1311 0.930 . S
C1339 C1338 1.358 . S
C1339 C1340 1.405 . S
C1340 H1312 0.932 . S
C1340 C1339 1.405 . S
C1340 C1341 1.383 . S
C1341 C1340 1.383 . S
C1341 C1342 1.393 . S
C1342 H1314 0.931 . S
C1342 C1341 1.393 . S
C1342 C1343 1.382 . S
C1343 H1313 0.929 . S
C1343 C1338 1.371 . S
C1343 C1342 1.382 . S
C1344 N1307 1.423 . S
C1344 C1345 1.362 . S
C1344 C1349 1.388 . S
C1345 H1315 0.929 . S
C1345 C1344 1.362 . S
C1345 C1346 1.376 . S
C1346 H1317 0.931 . S
C1346 C1345 1.376 . S
C1346 C1347 1.396 . S
C1347 C1346 1.396 . S
C1347 C1348 1.348 . S
C1347 C1365 1.472 . S
C1348 H1318 0.929 . S
C1348 C1347 1.348 . S
C1348 C1349 1.443 . S
C1349 H1316 0.932 . S
C1349 C1344 1.388 . S
C1349 C1348 1.443 . S
C1350 N1330 1.433 . S
C1350 C1351 1.363 . S
C1350 C1355 1.370 . S
C1351 H1319 0.929 . S
C1351 C1350 1.363 . S
C1351 C1352 1.385 . S
C1352 H1320 0.930 . S
C1352 C1351 1.385 . S
C1352 C1353 1.357 . S
C1353 C1352 1.357 . S
C1353 C1354 1.406 . S
C1354 H1321 0.929 . S
C1354 C1353 1.406 . S
C1354 C1355 1.391 . S
C1355 H1322 0.931 . S
C1355 C1350 1.370 . S
C1355 C1354 1.391 . S
C1356 N1330 1.435 . S
C1356 C1357 1.358 . S
C1356 C1361 1.371 . S
C1357 H1323 0.930 . S
C1357 C1356 1.358 . S
C1357 C1358 1.405 . S
C1358 H1324 0.932 . S
C1358 C1357 1.405 . S
C1358 C1359 1.383 . S
C1359 C1358 1.383 . S
C1359 C1360 1.393 . S
C1360 H1325 0.931 . S
C1360 C1359 1.393 . S
C1360 C1361 1.382 . S
C1361 H1326 0.929 . S
C1361 C1356 1.371 . S
C1361 C1360 1.382 . S
C1362 N1330 1.423 . S
C1362 C1363 1.362 . S
C1362 C1367 1.388 . S
C1363 H1327 0.929 . S
C1363 C1362 1.362 . S
C1363 C1364 1.376 . S
C1364 H1328 0.931 . S
C1364 C1363 1.376 . S
C1364 C1365 1.396 . S
C1365 C1347 1.472 . S
C1365 C1364 1.396 . S
C1365 C1366 1.348 . S
C1366 H1329 0.929 . S
C1366 C1365 1.348 . S
C1366 C1367 1.443 . S
C1367 H1331 0.932 . S
C1367 C1362 1.388 . S
C1367 C1366 1.443 . S
C1368 C1369 1.363 1_455 S
C1368 C1374 1.379 . S
C1368 N1376 1.356 . S
C1369 C1368 1.363 1_655 S
C1369 C1375 1.363 . S
C1370 C1371 1.363 . S
C1370 C1375 1.379 . S
C1370 N1377 1.356 . S
C1371 C1370 1.363 . S
C1371 C1374 1.363 1_655 S
N1372 C1374 1.356 . S
N1372 H1384 0.984 . S
N1372 H1385 0.985 . S
N1373 C1375 1.356 . S
N1373 H1378 0.984 . S
N1373 H1379 0.985 . S
C1374 C1368 1.379 . S
C1374 C1371 1.363 1_455 S
C1374 N1372 1.356 . S
C1375 C1369 1.363 . S
C1375 C1370 1.379 . S
C1375 N1373 1.356 . S
N1376 C1368 1.356 . S
N1376 H1382 0.984 . S
N1376 H1383 0.984 . S
N1377 C1370 1.356 . S
N1377 H1380 0.984 . S
N1377 H1381 0.985 . S
H1378 N1373 0.984 . S
H1379 N1373 0.985 . S
H1380 N1377 0.984 . S
H1381 N1377 0.985 . S
H1382 N1376 0.984 . S
H1383 N1376 0.984 . S
H1384 N1372 0.984 . S
H1385 N1372 0.985 . S
C1386 C1387 1.363 . S
C1386 C1392 1.379 . S
C1386 N1394 1.356 . S
C1387 C1386 1.363 . S
C1387 C1393 1.363 . S
C1388 C1389 1.363 . S
C1388 C1393 1.379 . S
C1388 N1395 1.356 . S
C1389 C1388 1.363 . S
C1389 C1392 1.363 . S
N1390 C1392 1.356 . S
N1390 H1402 0.984 . S
N1390 H1403 0.985 . S
N1391 C1393 1.356 . S
N1391 H1396 0.984 . S
N1391 H1397 0.985 . S
C1392 C1386 1.379 . S
C1392 C1389 1.363 . S
C1392 N1390 1.356 . S
C1393 C1387 1.363 . S
C1393 C1388 1.379 . S
C1393 N1391 1.356 . S
N1394 C1386 1.356 . S
N1394 H1400 0.984 . S
N1394 H1401 0.984 . S
N1395 C1388 1.356 . S
N1395 H1398 0.984 . S
N1395 H1399 0.985 . S
H1396 N1391 0.984 . S
H1397 N1391 0.985 . S
H1398 N1395 0.984 . S
H1399 N1395 0.985 . S
H1400 N1394 0.984 . S
H1401 N1394 0.984 . S
H1402 N1390 0.984 . S
H1403 N1390 0.985 . S
C1404 C1405 1.363 . S
C1404 C1410 1.379 . S
C1404 N1412 1.356 . S
C1405 C1404 1.363 . S
C1405 C1411 1.363 1_545 S
C1406 C1407 1.363 1_565 S
C1406 C1411 1.379 . S
C1406 N1413 1.356 . S
C1407 C1406 1.363 1_545 S
C1407 C1410 1.363 . S
N1408 C1410 1.356 . S
N1408 H1420 0.984 . S
N1408 H1421 0.985 . S
N1409 C1411 1.356 . S
N1409 H1414 0.984 . S
N1409 H1415 0.985 . S
C1410 C1404 1.379 . S
C1410 C1407 1.363 . S
C1410 N1408 1.356 . S
C1411 C1405 1.363 1_565 S
C1411 C1406 1.379 . S
C1411 N1409 1.356 . S
N1412 C1404 1.356 . S
N1412 H1418 0.984 . S
N1412 H1419 0.984 . S
N1413 C1406 1.356 . S
N1413 H1416 0.984 . S
N1413 H1417 0.985 . S
H1414 N1409 0.984 . S
H1415 N1409 0.985 . S
H1416 N1413 0.984 . S
H1417 N1413 0.985 . S
H1418 N1412 0.984 . S
H1419 N1412 0.984 . S
H1420 N1408 0.984 . S
H1421 N1408 0.985 . S
C1422 C1423 1.363 . S
C1422 C1428 1.379 . S
C1422 N1430 1.356 . S
C1423 C1422 1.363 . S
C1423 C1429 1.363 1_565 S
C1424 C1425 1.363 1_545 S
C1424 C1429 1.379 . S
C1424 N1431 1.356 . S
C1425 C1424 1.363 1_565 S
C1425 C1428 1.363 . S
N1426 C1428 1.356 . S
N1426 H1438 0.984 . S
N1426 H1439 0.985 . S
N1427 C1429 1.356 . S
N1427 H1432 0.984 . S
N1427 H1433 0.985 . S
C1428 C1422 1.379 . S
C1428 C1425 1.363 . S
C1428 N1426 1.356 . S
C1429 C1423 1.363 1_545 S
C1429 C1424 1.379 . S
C1429 N1427 1.356 . S
N1430 C1422 1.356 . S
N1430 H1436 0.984 . S
N1430 H1437 0.984 . S
N1431 C1424 1.356 . S
N1431 H1434 0.984 . S
N1431 H1435 0.985 . S
H1432 N1427 0.984 . S
H1433 N1427 0.985 . S
H1434 N1431 0.984 . S
H1435 N1431 0.985 . S
H1436 N1430 0.984 . S
H1437 N1430 0.984 . S
H1438 N1426 0.984 . S
H1439 N1426 0.985 . S
C1440 C1441 1.363 . S
C1440 C1446 1.379 . S
C1440 N1448 1.356 . S
C1441 C1440 1.363 . S
C1441 C1447 1.363 . S
C1442 C1443 1.363 . S
C1442 C1447 1.379 . S
C1442 N1449 1.356 . S
C1443 C1442 1.363 . S
C1443 C1446 1.363 . S
N1444 C1446 1.356 . S
N1444 H1456 0.984 . S
N1444 H1457 0.985 . S
N1445 C1447 1.356 . S
N1445 H1450 0.984 . S
N1445 H1451 0.985 . S
C1446 C1440 1.379 . S
C1446 C1443 1.363 . S
C1446 N1444 1.356 . S
C1447 C1441 1.363 . S
C1447 C1442 1.379 . S
C1447 N1445 1.356 . S
N1448 C1440 1.356 . S
N1448 H1454 0.984 . S
N1448 H1455 0.984 . S
N1449 C1442 1.356 . S
N1449 H1452 0.984 . S
N1449 H1453 0.985 . S
H1450 N1445 0.984 . S
H1451 N1445 0.985 . S
H1452 N1449 0.984 . S
H1453 N1449 0.985 . S
H1454 N1448 0.984 . S
H1455 N1448 0.984 . S
H1456 N1444 0.984 . S
H1457 N1444 0.985 . S
C1458 C1459 1.363 . S
C1458 C1464 1.379 . S
C1458 N1466 1.356 . S
C1459 C1458 1.363 . S
C1459 C1465 1.363 . S
C1460 C1461 1.363 . S
C1460 C1465 1.379 . S
C1460 N1467 1.356 . S
C1461 C1460 1.363 . S
C1461 C1464 1.363 . S
N1462 C1464 1.356 . S
N1462 H1474 0.984 . S
N1462 H1475 0.985 . S
N1463 C1465 1.356 . S
N1463 H1468 0.984 . S
N1463 H1469 0.985 . S
C1464 C1458 1.379 . S
C1464 C1461 1.363 . S
C1464 N1462 1.356 . S
C1465 C1459 1.363 . S
C1465 C1460 1.379 . S
C1465 N1463 1.356 . S
N1466 C1458 1.356 . S
N1466 H1472 0.984 . S
N1466 H1473 0.984 . S
N1467 C1460 1.356 . S
N1467 H1470 0.984 . S
N1467 H1471 0.985 . S
H1468 N1463 0.984 . S
H1469 N1463 0.985 . S
H1470 N1467 0.984 . S
H1471 N1467 0.985 . S
H1472 N1466 0.984 . S
H1473 N1466 0.984 . S
H1474 N1462 0.984 . S
H1475 N1462 0.985 . S
C1476 C1477 1.363 . S
C1476 C1482 1.379 . S
C1476 N1484 1.356 . S
C1477 C1476 1.363 . S
C1477 C1483 1.364 1_455 S
C1478 C1479 1.361 1_655 S
C1478 C1483 1.377 . S
C1478 N1485 1.355 . S
C1479 C1478 1.361 1_455 S
C1479 C1482 1.363 . S
N1480 C1482 1.356 . S
N1480 H1492 0.984 . S
N1480 H1493 0.985 . S
N1481 C1483 1.361 . S
N1481 H1486 0.984 . S
N1481 H1487 0.985 . S
C1482 C1476 1.379 . S
C1482 C1479 1.363 . S
C1482 N1480 1.356 . S
C1483 C1477 1.364 1_655 S
C1483 C1478 1.377 . S
C1483 N1481 1.361 . S
N1484 C1476 1.356 . S
N1484 H1490 0.984 . S
N1484 H1491 0.984 . S
N1485 C1478 1.355 . S
N1485 H1488 0.984 . S
N1485 H1489 0.985 . S
H1486 N1481 0.984 . S
H1487 N1481 0.985 . S
H1488 N1485 0.984 . S
H1489 N1485 0.985 . S
H1490 N1484 0.984 . S
H1491 N1484 0.984 . S
H1492 N1480 0.984 . S
H1493 N1480 0.985 . S
C1494 C1495 1.363 . S
C1494 C1500 1.379 . S
C1494 N1502 1.356 . S
C1495 C1494 1.363 . S
C1495 C1501 1.363 . S
C1496 C1497 1.363 . S
C1496 C1501 1.379 . S
C1496 N1503 1.356 . S
C1497 C1496 1.363 . S
C1497 C1500 1.363 . S
N1498 C1500 1.356 . S
N1498 H1510 0.984 . S
N1498 H1511 0.985 . S
N1499 C1501 1.356 . S
N1499 H1504 0.984 . S
N1499 H1505 0.985 . S
C1500 C1494 1.379 . S
C1500 C1497 1.363 . S
C1500 N1498 1.356 . S
C1501 C1495 1.363 . S
C1501 C1496 1.379 . S
C1501 N1499 1.356 . S
N1502 C1494 1.356 . S
N1502 H1508 0.984 . S
N1502 H1509 0.984 . S
N1503 C1496 1.356 . S
N1503 H1506 0.984 . S
N1503 H1507 0.985 . S
H1504 N1499 0.984 . S
H1505 N1499 0.985 . S
H1506 N1503 0.984 . S
H1507 N1503 0.985 . S
H1508 N1502 0.984 . S
H1509 N1502 0.984 . S
H1510 N1498 0.984 . S
H1511 N1498 0.985 . S
C1512 C1513 1.363 . S
C1512 C1518 1.379 . S
C1512 N1520 1.356 . S
C1513 C1512 1.363 . S
C1513 C1519 1.363 1_565 S
C1514 C1515 1.363 1_545 S
C1514 C1519 1.379 . S
C1514 N1521 1.356 . S
C1515 C1514 1.363 1_565 S
C1515 C1518 1.363 . S
N1516 C1518 1.356 . S
N1516 H1528 0.984 . S
N1516 H1529 0.985 . S
N1517 C1519 1.356 . S
N1517 H1522 0.984 . S
N1517 H1523 0.985 . S
C1518 C1512 1.379 . S
C1518 C1515 1.363 . S
C1518 N1516 1.356 . S
C1519 C1513 1.363 1_545 S
C1519 C1514 1.379 . S
C1519 N1517 1.356 . S
N1520 C1512 1.356 . S
N1520 H1526 0.984 . S
N1520 H1527 0.984 . S
N1521 C1514 1.356 . S
N1521 H1524 0.984 . S
N1521 H1525 0.985 . S
H1522 N1517 0.984 . S
H1523 N1517 0.985 . S
H1524 N1521 0.984 . S
H1525 N1521 0.985 . S
H1526 N1520 0.984 . S
H1527 N1520 0.984 . S
H1528 N1516 0.984 . S
H1529 N1516 0.985 . S
C1530 C1531 1.363 1_565 S
C1530 C1536 1.379 . S
C1530 N1538 1.356 . S
C1531 C1530 1.363 1_545 S
C1531 C1537 1.363 . S
C1532 C1533 1.363 . S
C1532 C1537 1.379 . S
C1532 N1539 1.356 . S
C1533 C1532 1.363 . S
C1533 C1536 1.363 1_545 S
N1534 C1536 1.356 . S
N1534 H1546 0.984 . S
N1534 H1547 0.985 . S
N1535 C1537 1.356 . S
N1535 H1540 0.984 . S
N1535 H1541 0.985 . S
C1536 C1530 1.379 . S
C1536 C1533 1.363 1_565 S
C1536 N1534 1.356 . S
C1537 C1531 1.363 . S
C1537 C1532 1.379 . S
C1537 N1535 1.356 . S
N1538 C1530 1.356 . S
N1538 H1544 0.984 . S
N1538 H1545 0.984 . S
N1539 C1532 1.356 . S
N1539 H1542 0.984 . S
N1539 H1543 0.985 . S
H1540 N1535 0.984 . S
H1541 N1535 0.985 . S
H1542 N1539 0.984 . S
H1543 N1539 0.985 . S
H1544 N1538 0.984 . S
H1545 N1538 0.984 . S
H1546 N1534 0.984 . S
H1547 N1534 0.985 . S
C1548 C1549 1.363 . S
C1548 C1554 1.379 . S
C1548 N1556 1.356 . S
C1549 C1548 1.363 . S
C1549 C1555 1.363 1_655 S
C1550 C1551 1.363 1_455 S
C1550 C1555 1.379 . S
C1550 N1557 1.356 . S
C1551 C1550 1.363 1_655 S
C1551 C1554 1.363 . S
N1552 C1554 1.356 . S
N1552 H1564 0.984 . S
N1552 H1565 0.985 . S
N1553 C1555 1.356 . S
N1553 H1558 0.984 . S
N1553 H1559 0.985 . S
C1554 C1548 1.379 . S
C1554 C1551 1.363 . S
C1554 N1552 1.356 . S
C1555 C1549 1.363 1_455 S
C1555 C1550 1.379 . S
C1555 N1553 1.356 . S
N1556 C1548 1.356 . S
N1556 H1562 0.984 . S
N1556 H1563 0.984 . S
N1557 C1550 1.356 . S
N1557 H1560 0.984 . S
N1557 H1561 0.985 . S
H1558 N1553 0.984 . S
H1559 N1553 0.985 . S
H1560 N1557 0.984 . S
H1561 N1557 0.985 . S
H1562 N1556 0.984 . S
H1563 N1556 0.984 . S
H1564 N1552 0.984 . S
H1565 N1552 0.985 . S
C1566 C1567 1.363 . S
C1566 C1572 1.379 . S
C1566 N1574 1.356 . S
C1567 C1566 1.363 . S
C1567 C1573 1.363 . S
C1568 C1569 1.363 . S
C1568 C1573 1.379 . S
C1568 N1575 1.356 . S
C1569 C1568 1.363 . S
C1569 C1572 1.363 . S
N1570 C1572 1.356 . S
N1570 H1582 0.984 . S
N1570 H1583 0.985 . S
N1571 C1573 1.356 . S
N1571 H1576 0.984 . S
N1571 H1577 0.985 . S
C1572 C1566 1.379 . S
C1572 C1569 1.363 . S
C1572 N1570 1.356 . S
C1573 C1567 1.363 . S
C1573 C1568 1.379 . S
C1573 N1571 1.356 . S
N1574 C1566 1.356 . S
N1574 H1580 0.984 . S
N1574 H1581 0.984 . S
N1575 C1568 1.356 . S
N1575 H1578 0.984 . S
N1575 H1579 0.985 . S
H1576 N1571 0.984 . S
H1577 N1571 0.985 . S
H1578 N1575 0.984 . S
H1579 N1575 0.985 . S
H1580 N1574 0.984 . S
H1581 N1574 0.984 . S
H1582 N1570 0.984 . S
H1583 N1570 0.985 . S
C1584 C1585 1.363 . S
C1584 C1590 1.379 . S
C1584 N1592 1.356 . S
C1585 C1584 1.363 . S
C1585 C1591 1.363 . S
C1586 C1587 1.363 . S
C1586 C1591 1.379 . S
C1586 N1593 1.356 . S
C1587 C1586 1.363 . S
C1587 C1590 1.363 . S
N1588 C1590 1.356 . S
N1588 H1600 0.984 . S
N1588 H1601 0.985 . S
N1589 C1591 1.356 . S
N1589 H1594 0.984 . S
N1589 H1595 0.985 . S
C1590 C1584 1.379 . S
C1590 C1587 1.363 . S
C1590 N1588 1.356 . S
C1591 C1585 1.363 . S
C1591 C1586 1.379 . S
C1591 N1589 1.356 . S
N1592 C1584 1.356 . S
N1592 H1598 0.984 . S
N1592 H1599 0.984 . S
N1593 C1586 1.356 . S
N1593 H1596 0.984 . S
N1593 H1597 0.985 . S
H1594 N1589 0.984 . S
H1595 N1589 0.985 . S
H1596 N1593 0.984 . S
H1597 N1593 0.985 . S
H1598 N1592 0.984 . S
H1599 N1592 0.984 . S
H1600 N1588 0.984 . S
H1601 N1588 0.985 . S
C1602 C1603 1.363 . S
C1602 C1608 1.379 . S
C1602 N1610 1.356 . S
C1603 C1602 1.363 . S
C1603 C1609 1.363 . S
C1604 C1605 1.363 . S
C1604 C1609 1.379 . S
C1604 N1611 1.356 . S
C1605 C1604 1.363 . S
C1605 C1608 1.363 . S
N1606 C1608 1.356 . S
N1606 H1618 0.984 . S
N1606 H1619 0.985 . S
N1607 C1609 1.356 . S
N1607 H1612 0.984 . S
N1607 H1613 0.985 . S
C1608 C1602 1.379 . S
C1608 C1605 1.363 . S
C1608 N1606 1.356 . S
C1609 C1603 1.363 . S
C1609 C1604 1.379 . S
C1609 N1607 1.356 . S
N1610 C1602 1.356 . S
N1610 H1616 0.984 . S
N1610 H1617 0.984 . S
N1611 C1604 1.356 . S
N1611 H1614 0.984 . S
N1611 H1615 0.985 . S
H1612 N1607 0.984 . S
H1613 N1607 0.985 . S
H1614 N1611 0.984 . S
H1615 N1611 0.985 . S
H1616 N1610 0.984 . S
H1617 N1610 0.984 . S
H1618 N1606 0.984 . S
H1619 N1606 0.985 . S
C1620 C1621 1.363 . S
C1620 C1626 1.379 . S
C1620 N1628 1.356 . S
C1621 C1620 1.363 . S
C1621 C1627 1.363 . S
C1622 C1623 1.363 . S
C1622 C1627 1.379 . S
C1622 N1629 1.356 . S
C1623 C1622 1.363 . S
C1623 C1626 1.363 . S
N1624 C1626 1.356 . S
N1624 H1636 0.984 . S
N1624 H1637 0.985 . S
N1625 C1627 1.356 . S
N1625 H1630 0.984 . S
N1625 H1631 0.985 . S
C1626 C1620 1.379 . S
C1626 C1623 1.363 . S
C1626 N1624 1.356 . S
C1627 C1621 1.363 . S
C1627 C1622 1.379 . S
C1627 N1625 1.356 . S
N1628 C1620 1.356 . S
N1628 H1634 0.984 . S
N1628 H1635 0.984 . S
N1629 C1622 1.356 . S
N1629 H1632 0.984 . S
N1629 H1633 0.985 . S
H1630 N1625 0.984 . S
H1631 N1625 0.985 . S
H1632 N1629 0.984 . S
H1633 N1629 0.985 . S
H1634 N1628 0.984 . S
H1635 N1628 0.984 . S
H1636 N1624 0.984 . S
H1637 N1624 0.985 . S
C1638 C1639 1.363 . S
C1638 C1644 1.379 . S
C1638 N1646 1.356 . S
C1639 C1638 1.363 . S
C1639 C1645 1.363 . S
C1640 C1641 1.363 . S
C1640 C1645 1.379 . S
C1640 N1647 1.356 . S
C1641 C1640 1.363 . S
C1641 C1644 1.363 . S
N1642 C1644 1.356 . S
N1642 H1654 0.984 . S
N1642 H1655 0.985 . S
N1643 C1645 1.356 . S
N1643 H1648 0.984 . S
N1643 H1649 0.985 . S
C1644 C1638 1.379 . S
C1644 C1641 1.363 . S
C1644 N1642 1.356 . S
C1645 C1639 1.363 . S
C1645 C1640 1.379 . S
C1645 N1643 1.356 . S
N1646 C1638 1.356 . S
N1646 H1652 0.984 . S
N1646 H1653 0.984 . S
N1647 C1640 1.356 . S
N1647 H1650 0.984 . S
N1647 H1651 0.985 . S
H1648 N1643 0.984 . S
H1649 N1643 0.985 . S
H1650 N1647 0.984 . S
H1651 N1647 0.985 . S
H1652 N1646 0.984 . S
H1653 N1646 0.984 . S
H1654 N1642 0.984 . S
H1655 N1642 0.985 . S
C1656 C1657 1.363 . S
C1656 C1662 1.379 . S
C1656 N1664 1.356 . S
C1657 C1656 1.363 . S
C1657 C1663 1.363 . S
C1658 C1659 1.363 . S
C1658 C1663 1.379 . S
C1658 N1665 1.356 . S
C1659 C1658 1.363 . S
C1659 C1662 1.363 . S
N1660 C1662 1.356 . S
N1660 H1672 0.984 . S
N1660 H1673 0.985 . S
N1661 C1663 1.356 . S
N1661 H1666 0.984 . S
N1661 H1667 0.985 . S
C1662 C1656 1.379 . S
C1662 C1659 1.363 . S
C1662 N1660 1.356 . S
C1663 C1657 1.363 . S
C1663 C1658 1.379 . S
C1663 N1661 1.356 . S
N1664 C1656 1.356 . S
N1664 H1670 0.984 . S
N1664 H1671 0.984 . S
N1665 C1658 1.356 . S
N1665 H1668 0.984 . S
N1665 H1669 0.985 . S
H1666 N1661 0.984 . S
H1667 N1661 0.985 . S
H1668 N1665 0.984 . S
H1669 N1665 0.985 . S
H1670 N1664 0.984 . S
H1671 N1664 0.984 . S
H1672 N1660 0.984 . S
H1673 N1660 0.985 . S
C1674 C1675 1.363 . S
C1674 C1680 1.379 . S
C1674 N1682 1.356 . S
C1675 C1674 1.363 . S
C1675 C1681 1.363 . S
C1676 C1677 1.363 . S
C1676 C1681 1.379 . S
C1676 N1683 1.356 . S
C1677 C1676 1.363 . S
C1677 C1680 1.363 . S
N1678 C1680 1.356 . S
N1678 H1690 0.984 . S
N1678 H1691 0.985 . S
N1679 C1681 1.356 . S
N1679 H1684 0.984 . S
N1679 H1685 0.985 . S
C1680 C1674 1.379 . S
C1680 C1677 1.363 . S
C1680 N1678 1.356 . S
C1681 C1675 1.363 . S
C1681 C1676 1.379 . S
C1681 N1679 1.356 . S
N1682 C1674 1.356 . S
N1682 H1688 0.984 . S
N1682 H1689 0.984 . S
N1683 C1676 1.356 . S
N1683 H1686 0.984 . S
N1683 H1687 0.985 . S
H1684 N1679 0.984 . S
H1685 N1679 0.985 . S
H1686 N1683 0.984 . S
H1687 N1683 0.985 . S
H1688 N1682 0.984 . S
H1689 N1682 0.984 . S
H1690 N1678 0.984 . S
H1691 N1678 0.985 . S
C1692 C1693 1.363 . S
C1692 C1698 1.379 . S
C1692 N1700 1.356 . S
C1693 C1692 1.363 . S
C1693 C1699 1.363 . S
C1694 C1695 1.363 . S
C1694 C1699 1.379 . S
C1694 N1701 1.356 . S
C1695 C1694 1.363 . S
C1695 C1698 1.363 . S
N1696 C1698 1.356 . S
N1696 H1708 0.984 . S
N1696 H1709 0.985 . S
N1697 C1699 1.356 . S
N1697 H1702 0.984 . S
N1697 H1703 0.985 . S
C1698 C1692 1.379 . S
C1698 C1695 1.363 . S
C1698 N1696 1.356 . S
C1699 C1693 1.363 . S
C1699 C1694 1.379 . S
C1699 N1697 1.356 . S
N1700 C1692 1.356 . S
N1700 H1706 0.984 . S
N1700 H1707 0.984 . S
N1701 C1694 1.356 . S
N1701 H1704 0.984 . S
N1701 H1705 0.985 . S
H1702 N1697 0.984 . S
H1703 N1697 0.985 . S
H1704 N1701 0.984 . S
H1705 N1701 0.985 . S
H1706 N1700 0.984 . S
H1707 N1700 0.984 . S
H1708 N1696 0.984 . S
H1709 N1696 0.985 . S
C1710 C1711 1.363 . S
C1710 C1716 1.379 . S
C1710 N1718 1.356 . S
C1711 C1710 1.363 . S
C1711 C1717 1.363 . S
C1712 C1713 1.363 . S
C1712 C1717 1.379 . S
C1712 N1719 1.356 . S
C1713 C1712 1.363 . S
C1713 C1716 1.363 . S
N1714 C1716 1.356 . S
N1714 H1726 0.984 . S
N1714 H1727 0.985 . S
N1715 C1717 1.356 . S
N1715 H1720 0.984 . S
N1715 H1721 0.985 . S
C1716 C1710 1.379 . S
C1716 C1713 1.363 . S
C1716 N1714 1.356 . S
C1717 C1711 1.363 . S
C1717 C1712 1.379 . S
C1717 N1715 1.356 . S
N1718 C1710 1.356 . S
N1718 H1724 0.984 . S
N1718 H1725 0.984 . S
N1719 C1712 1.356 . S
N1719 H1722 0.984 . S
N1719 H1723 0.985 . S
H1720 N1715 0.984 . S
H1721 N1715 0.985 . S
H1722 N1719 0.984 . S
H1723 N1719 0.985 . S
H1724 N1718 0.984 . S
H1725 N1718 0.984 . S
H1726 N1714 0.984 . S
H1727 N1714 0.985 . S
C1728 C1729 1.363 . S
C1728 C1734 1.379 . S
C1728 N1736 1.356 . S
C1729 C1728 1.363 . S
C1729 C1735 1.363 . S
C1730 C1731 1.363 . S
C1730 C1735 1.379 . S
C1730 N1737 1.356 . S
C1731 C1730 1.363 . S
C1731 C1734 1.363 . S
N1732 C1734 1.356 . S
N1732 H1744 0.984 . S
N1732 H1745 0.985 . S
N1733 C1735 1.356 . S
N1733 H1738 0.984 . S
N1733 H1739 0.985 . S
C1734 C1728 1.379 . S
C1734 C1731 1.363 . S
C1734 N1732 1.356 . S
C1735 C1729 1.363 . S
C1735 C1730 1.379 . S
C1735 N1733 1.356 . S
N1736 C1728 1.356 . S
N1736 H1742 0.984 . S
N1736 H1743 0.984 . S
N1737 C1730 1.356 . S
N1737 H1740 0.984 . S
N1737 H1741 0.985 . S
H1738 N1733 0.984 . S
H1739 N1733 0.985 . S
H1740 N1737 0.984 . S
H1741 N1737 0.985 . S
H1742 N1736 0.984 . S
H1743 N1736 0.984 . S
H1744 N1732 0.984 . S
H1745 N1732 0.985 . S
C1746 C1747 1.363 . S
C1746 C1752 1.379 . S
C1746 N1754 1.356 . S
C1747 C1746 1.363 . S
C1747 C1753 1.363 . S
C1748 C1749 1.363 . S
C1748 C1753 1.379 . S
C1748 N1755 1.356 . S
C1749 C1748 1.363 . S
C1749 C1752 1.363 . S
N1750 C1752 1.356 . S
N1750 H1762 0.984 . S
N1750 H1763 0.985 . S
N1751 C1753 1.356 . S
N1751 H1756 0.984 . S
N1751 H1757 0.985 . S
C1752 C1746 1.379 . S
C1752 C1749 1.363 . S
C1752 N1750 1.356 . S
C1753 C1747 1.363 . S
C1753 C1748 1.379 . S
C1753 N1751 1.356 . S
N1754 C1746 1.356 . S
N1754 H1760 0.984 . S
N1754 H1761 0.984 . S
N1755 C1748 1.356 . S
N1755 H1758 0.984 . S
N1755 H1759 0.985 . S
H1756 N1751 0.984 . S
H1757 N1751 0.985 . S
H1758 N1755 0.984 . S
H1759 N1755 0.985 . S
H1760 N1754 0.984 . S
H1761 N1754 0.984 . S
H1762 N1750 0.984 . S
H1763 N1750 0.985 . S
C1764 C1765 1.363 . S
C1764 C1770 1.379 . S
C1764 N1772 1.356 . S
C1765 C1764 1.363 . S
C1765 C1771 1.363 . S
C1766 C1767 1.363 . S
C1766 C1771 1.379 . S
C1766 N1773 1.356 . S
C1767 C1766 1.363 . S
C1767 C1770 1.363 . S
N1768 C1770 1.356 . S
N1768 H1780 0.984 . S
N1768 H1781 0.985 . S
N1769 C1771 1.356 . S
N1769 H1774 0.984 . S
N1769 H1775 0.985 . S
C1770 C1764 1.379 . S
C1770 C1767 1.363 . S
C1770 N1768 1.356 . S
C1771 C1765 1.363 . S
C1771 C1766 1.379 . S
C1771 N1769 1.356 . S
N1772 C1764 1.356 . S
N1772 H1778 0.984 . S
N1772 H1779 0.984 . S
N1773 C1766 1.356 . S
N1773 H1776 0.984 . S
N1773 H1777 0.985 . S
H1774 N1769 0.984 . S
H1775 N1769 0.985 . S
H1776 N1773 0.984 . S
H1777 N1773 0.985 . S
H1778 N1772 0.984 . S
H1779 N1772 0.984 . S
H1780 N1768 0.984 . S
H1781 N1768 0.985 . S
C1782 C1783 1.363 . S
C1782 C1788 1.379 . S
C1782 N1790 1.356 . S
C1783 C1782 1.363 . S
C1783 C1789 1.363 . S
C1784 C1785 1.363 . S
C1784 C1789 1.379 . S
C1784 N1791 1.356 . S
C1785 C1784 1.363 . S
C1785 C1788 1.363 . S
N1786 C1788 1.356 . S
N1786 H1798 0.984 . S
N1786 H1799 0.985 . S
N1787 C1789 1.356 . S
N1787 H1792 0.984 . S
N1787 H1793 0.985 . S
C1788 C1782 1.379 . S
C1788 C1785 1.363 . S
C1788 N1786 1.356 . S
C1789 C1783 1.363 . S
C1789 C1784 1.379 . S
C1789 N1787 1.356 . S
N1790 C1782 1.356 . S
N1790 H1796 0.984 . S
N1790 H1797 0.984 . S
N1791 C1784 1.356 . S
N1791 H1794 0.984 . S
N1791 H1795 0.985 . S
H1792 N1787 0.984 . S
H1793 N1787 0.985 . S
H1794 N1791 0.984 . S
H1795 N1791 0.985 . S
H1796 N1790 0.984 . S
H1797 N1790 0.984 . S
H1798 N1786 0.984 . S
H1799 N1786 0.985 . S
C1800 C1801 1.363 . S
C1800 C1806 1.379 . S
C1800 N1808 1.356 . S
C1801 C1800 1.363 . S
C1801 C1807 1.363 . S
C1802 C1803 1.363 . S
C1802 C1807 1.379 . S
C1802 N1809 1.356 . S
C1803 C1802 1.363 . S
C1803 C1806 1.363 . S
N1804 C1806 1.356 . S
N1804 H1816 0.984 . S
N1804 H1817 0.985 . S
N1805 C1807 1.356 . S
N1805 H1810 0.984 . S
N1805 H1811 0.985 . S
C1806 C1800 1.379 . S
C1806 C1803 1.363 . S
C1806 N1804 1.356 . S
C1807 C1801 1.363 . S
C1807 C1802 1.379 . S
C1807 N1805 1.356 . S
N1808 C1800 1.356 . S
N1808 H1814 0.984 . S
N1808 H1815 0.984 . S
N1809 C1802 1.356 . S
N1809 H1812 0.984 . S
N1809 H1813 0.985 . S
H1810 N1805 0.984 . S
H1811 N1805 0.985 . S
H1812 N1809 0.984 . S
H1813 N1809 0.985 . S
H1814 N1808 0.984 . S
H1815 N1808 0.984 . S
H1816 N1804 0.984 . S
H1817 N1804 0.985 . S
C1818 C1819 1.363 . S
C1818 C1824 1.379 . S
C1818 N1826 1.356 . S
C1819 C1818 1.363 . S
C1819 C1825 1.363 . S
C1820 C1821 1.363 . S
C1820 C1825 1.379 . S
C1820 N1827 1.356 . S
C1821 C1820 1.363 . S
C1821 C1824 1.363 . S
N1822 C1824 1.356 . S
N1822 H1834 0.984 . S
N1822 H1835 0.985 . S
N1823 C1825 1.356 . S
N1823 H1828 0.984 . S
N1823 H1829 0.985 . S
C1824 C1818 1.379 . S
C1824 C1821 1.363 . S
C1824 N1822 1.356 . S
C1825 C1819 1.363 . S
C1825 C1820 1.379 . S
C1825 N1823 1.356 . S
N1826 C1818 1.356 . S
N1826 H1832 0.984 . S
N1826 H1833 0.984 . S
N1827 C1820 1.356 . S
N1827 H1830 0.984 . S
N1827 H1831 0.985 . S
H1828 N1823 0.984 . S
H1829 N1823 0.985 . S
H1830 N1827 0.984 . S
H1831 N1827 0.985 . S
H1832 N1826 0.984 . S
H1833 N1826 0.984 . S
H1834 N1822 0.984 . S
H1835 N1822 0.985 . S
C1836 C1837 1.363 . S
C1836 C1842 1.379 . S
C1836 N1844 1.356 . S
C1837 C1836 1.363 . S
C1837 C1843 1.363 . S
C1838 C1839 1.363 . S
C1838 C1843 1.379 . S
C1838 N1845 1.356 . S
C1839 C1838 1.363 . S
C1839 C1842 1.363 . S
N1840 C1842 1.356 . S
N1840 H1852 0.984 . S
N1840 H1853 0.985 . S
N1841 C1843 1.356 . S
N1841 H1846 0.984 . S
N1841 H1847 0.985 . S
C1842 C1836 1.379 . S
C1842 C1839 1.363 . S
C1842 N1840 1.356 . S
C1843 C1837 1.363 . S
C1843 C1838 1.379 . S
C1843 N1841 1.356 . S
N1844 C1836 1.356 . S
N1844 H1850 0.984 . S
N1844 H1851 0.984 . S
N1845 C1838 1.356 . S
N1845 H1848 0.984 . S
N1845 H1849 0.985 . S
H1846 N1841 0.984 . S
H1847 N1841 0.985 . S
H1848 N1845 0.984 . S
H1849 N1845 0.985 . S
H1850 N1844 0.984 . S
H1851 N1844 0.984 . S
H1852 N1840 0.984 . S
H1853 N1840 0.985 . S
C1854 C1855 1.363 . S
C1854 C1860 1.379 . S
C1854 N1862 1.356 . S
C1855 C1854 1.363 . S
C1855 C1861 1.363 . S
C1856 C1857 1.363 . S
C1856 C1861 1.379 . S
C1856 N1863 1.356 . S
C1857 C1856 1.363 . S
C1857 C1860 1.363 . S
N1858 C1860 1.356 . S
N1858 H1870 0.984 . S
N1858 H1871 0.985 . S
N1859 C1861 1.356 . S
N1859 H1864 0.984 . S
N1859 H1865 0.985 . S
C1860 C1854 1.379 . S
C1860 C1857 1.363 . S
C1860 N1858 1.356 . S
C1861 C1855 1.363 . S
C1861 C1856 1.379 . S
C1861 N1859 1.356 . S
N1862 C1854 1.356 . S
N1862 H1868 0.984 . S
N1862 H1869 0.984 . S
N1863 C1856 1.356 . S
N1863 H1866 0.984 . S
N1863 H1867 0.985 . S
H1864 N1859 0.984 . S
H1865 N1859 0.985 . S
H1866 N1863 0.984 . S
H1867 N1863 0.985 . S
H1868 N1862 0.984 . S
H1869 N1862 0.984 . S
H1870 N1858 0.984 . S
H1871 N1858 0.985 . S
C1872 C1873 1.363 . S
C1872 C1878 1.379 . S
C1872 N1880 1.356 . S
C1873 C1872 1.363 . S
C1873 C1879 1.363 . S
C1874 C1875 1.363 . S
C1874 C1879 1.379 . S
C1874 N1881 1.356 . S
C1875 C1874 1.363 . S
C1875 C1878 1.363 . S
N1876 C1878 1.356 . S
N1876 H1888 0.984 . S
N1876 H1889 0.985 . S
N1877 C1879 1.356 . S
N1877 H1882 0.984 . S
N1877 H1883 0.985 . S
C1878 C1872 1.379 . S
C1878 C1875 1.363 . S
C1878 N1876 1.356 . S
C1879 C1873 1.363 . S
C1879 C1874 1.379 . S
C1879 N1877 1.356 . S
N1880 C1872 1.356 . S
N1880 H1886 0.984 . S
N1880 H1887 0.984 . S
N1881 C1874 1.356 . S
N1881 H1884 0.984 . S
N1881 H1885 0.985 . S
H1882 N1877 0.984 . S
H1883 N1877 0.985 . S
H1884 N1881 0.984 . S
H1885 N1881 0.985 . S
H1886 N1880 0.984 . S
H1887 N1880 0.984 . S
H1888 N1876 0.984 . S
H1889 N1876 0.985 . S
C1890 C1891 1.363 . S
C1890 C1896 1.379 . S
C1890 N1898 1.356 . S
C1891 C1890 1.363 . S
C1891 C1897 1.363 . S
C1892 C1893 1.363 . S
C1892 C1897 1.379 . S
C1892 N1899 1.356 . S
C1893 C1892 1.363 . S
C1893 C1896 1.363 . S
N1894 C1896 1.356 . S
N1894 H1906 0.984 . S
N1894 H1907 0.985 . S
N1895 C1897 1.356 . S
N1895 H1900 0.984 . S
N1895 H1901 0.985 . S
C1896 C1890 1.379 . S
C1896 C1893 1.363 . S
C1896 N1894 1.356 . S
C1897 C1891 1.363 . S
C1897 C1892 1.379 . S
C1897 N1895 1.356 . S
N1898 C1890 1.356 . S
N1898 H1904 0.984 . S
N1898 H1905 0.984 . S
N1899 C1892 1.356 . S
N1899 H1902 0.984 . S
N1899 H1903 0.985 . S
H1900 N1895 0.984 . S
H1901 N1895 0.985 . S
H1902 N1899 0.984 . S
H1903 N1899 0.985 . S
H1904 N1898 0.984 . S
H1905 N1898 0.984 . S
H1906 N1894 0.984 . S
H1907 N1894 0.985 . S
C1908 C1909 1.363 . S
C1908 C1914 1.379 . S
C1908 N1916 1.356 . S
C1909 C1908 1.363 . S
C1909 C1915 1.363 . S
C1910 C1911 1.363 . S
C1910 C1915 1.379 . S
C1910 N1917 1.356 . S
C1911 C1910 1.363 . S
C1911 C1914 1.363 . S
N1912 C1914 1.356 . S
N1912 H1924 0.984 . S
N1912 H1925 0.985 . S
N1913 C1915 1.356 . S
N1913 H1918 0.984 . S
N1913 H1919 0.985 . S
C1914 C1908 1.379 . S
C1914 C1911 1.363 . S
C1914 N1912 1.356 . S
C1915 C1909 1.363 . S
C1915 C1910 1.379 . S
C1915 N1913 1.356 . S
N1916 C1908 1.356 . S
N1916 H1922 0.984 . S
N1916 H1923 0.984 . S
N1917 C1910 1.356 . S
N1917 H1920 0.984 . S
N1917 H1921 0.985 . S
H1918 N1913 0.984 . S
H1919 N1913 0.985 . S
H1920 N1917 0.984 . S
H1921 N1917 0.985 . S
H1922 N1916 0.984 . S
H1923 N1916 0.984 . S
H1924 N1912 0.984 . S
H1925 N1912 0.985 . S
C1926 C1927 1.363 . S
C1926 C1932 1.379 . S
C1926 N1934 1.356 . S
C1927 C1926 1.363 . S
C1927 C1933 1.363 . S
C1928 C1929 1.363 . S
C1928 C1933 1.379 . S
C1928 N1935 1.356 . S
C1929 C1928 1.363 . S
C1929 C1932 1.363 . S
N1930 C1932 1.356 . S
N1930 H1942 0.984 . S
N1930 H1943 0.985 . S
N1931 C1933 1.356 . S
N1931 H1936 0.984 . S
N1931 H1937 0.985 . S
C1932 C1926 1.379 . S
C1932 C1929 1.363 . S
C1932 N1930 1.356 . S
C1933 C1927 1.363 . S
C1933 C1928 1.379 . S
C1933 N1931 1.356 . S
N1934 C1926 1.356 . S
N1934 H1940 0.984 . S
N1934 H1941 0.984 . S
N1935 C1928 1.356 . S
N1935 H1938 0.984 . S
N1935 H1939 0.985 . S
H1936 N1931 0.984 . S
H1937 N1931 0.985 . S
H1938 N1935 0.984 . S
H1939 N1935 0.985 . S
H1940 N1934 0.984 . S
H1941 N1934 0.984 . S
H1942 N1930 0.984 . S
H1943 N1930 0.985 . S
C1944 C1945 1.363 . S
C1944 C1950 1.379 . S
C1944 N1952 1.356 . S
C1945 C1944 1.363 . S
C1945 C1951 1.363 . S
C1946 C1947 1.363 . S
C1946 C1951 1.379 . S
C1946 N1953 1.356 . S
C1947 C1946 1.363 . S
C1947 C1950 1.363 . S
N1948 C1950 1.356 . S
N1948 H1960 0.984 . S
N1948 H1961 0.985 . S
N1949 C1951 1.356 . S
N1949 H1954 0.984 . S
N1949 H1955 0.985 . S
C1950 C1944 1.379 . S
C1950 C1947 1.363 . S
C1950 N1948 1.356 . S
C1951 C1945 1.363 . S
C1951 C1946 1.379 . S
C1951 N1949 1.356 . S
N1952 C1944 1.356 . S
N1952 H1958 0.984 . S
N1952 H1959 0.984 . S
N1953 C1946 1.356 . S
N1953 H1956 0.984 . S
N1953 H1957 0.985 . S
H1954 N1949 0.984 . S
H1955 N1949 0.985 . S
H1956 N1953 0.984 . S
H1957 N1953 0.985 . S
H1958 N1952 0.984 . S
H1959 N1952 0.984 . S
H1960 N1948 0.984 . S
H1961 N1948 0.985 . S
C1962 C1963 1.363 . S
C1962 C1968 1.379 . S
C1962 N1970 1.356 . S
C1963 C1962 1.363 . S
C1963 C1969 1.363 . S
C1964 C1965 1.363 . S
C1964 C1969 1.379 . S
C1964 N1971 1.356 . S
C1965 C1964 1.363 . S
C1965 C1968 1.363 . S
N1966 C1968 1.356 . S
N1966 H1978 0.984 . S
N1966 H1979 0.985 . S
N1967 C1969 1.356 . S
N1967 H1972 0.984 . S
N1967 H1973 0.985 . S
C1968 C1962 1.379 . S
C1968 C1965 1.363 . S
C1968 N1966 1.356 . S
C1969 C1963 1.363 . S
C1969 C1964 1.379 . S
C1969 N1967 1.356 . S
N1970 C1962 1.356 . S
N1970 H1976 0.984 . S
N1970 H1977 0.984 . S
N1971 C1964 1.356 . S
N1971 H1974 0.984 . S
N1971 H1975 0.985 . S
H1972 N1967 0.984 . S
H1973 N1967 0.985 . S
H1974 N1971 0.984 . S
H1975 N1971 0.985 . S
H1976 N1970 0.984 . S
H1977 N1970 0.984 . S
H1978 N1966 0.984 . S
H1979 N1966 0.985 . S
C1980 C1981 1.363 . S
C1980 C1986 1.379 . S
C1980 N1988 1.356 . S
C1981 C1980 1.363 . S
C1981 C1987 1.363 . S
C1982 C1983 1.363 . S
C1982 C1987 1.379 . S
C1982 N1989 1.356 . S
C1983 C1982 1.363 . S
C1983 C1986 1.363 . S
N1984 C1986 1.356 . S
N1984 H1996 0.984 . S
N1984 H1997 0.985 . S
N1985 C1987 1.356 . S
N1985 H1990 0.984 . S
N1985 H1991 0.985 . S
C1986 C1980 1.379 . S
C1986 C1983 1.363 . S
C1986 N1984 1.356 . S
C1987 C1981 1.363 . S
C1987 C1982 1.379 . S
C1987 N1985 1.356 . S
N1988 C1980 1.356 . S
N1988 H1994 0.984 . S
N1988 H1995 0.984 . S
N1989 C1982 1.356 . S
N1989 H1992 0.984 . S
N1989 H1993 0.985 . S
H1990 N1985 0.984 . S
H1991 N1985 0.985 . S
H1992 N1989 0.984 . S
H1993 N1989 0.985 . S
H1994 N1988 0.984 . S
H1995 N1988 0.984 . S
H1996 N1984 0.984 . S
H1997 N1984 0.985 . S
C1998 C1999 1.363 . S
C1998 C2004 1.379 . S
C1998 N2006 1.356 . S
C1999 C1998 1.363 . S
C1999 C2005 1.363 . S
C2000 C2001 1.363 . S
C2000 C2005 1.379 . S
C2000 N2007 1.356 . S
C2001 C2000 1.363 . S
C2001 C2004 1.363 . S
N2002 C2004 1.356 . S
N2002 H2014 0.984 . S
N2002 H2015 0.985 . S
N2003 C2005 1.356 . S
N2003 H2008 0.984 . S
N2003 H2009 0.985 . S
C2004 C1998 1.379 . S
C2004 C2001 1.363 . S
C2004 N2002 1.356 . S
C2005 C1999 1.363 . S
C2005 C2000 1.379 . S
C2005 N2003 1.356 . S
N2006 C1998 1.356 . S
N2006 H2012 0.984 . S
N2006 H2013 0.984 . S
N2007 C2000 1.356 . S
N2007 H2010 0.984 . S
N2007 H2011 0.985 . S
H2008 N2003 0.984 . S
H2009 N2003 0.985 . S
H2010 N2007 0.984 . S
H2011 N2007 0.985 . S
H2012 N2006 0.984 . S
H2013 N2006 0.984 . S
H2014 N2002 0.984 . S
H2015 N2002 0.985 . S
C2016 C2017 1.363 . S
C2016 C2022 1.379 . S
C2016 N2024 1.356 . S
C2017 C2016 1.363 . S
C2017 C2023 1.363 . S
C2018 C2019 1.363 . S
C2018 C2023 1.379 . S
C2018 N2025 1.356 . S
C2019 C2018 1.363 . S
C2019 C2022 1.363 . S
N2020 C2022 1.356 . S
N2020 H2032 0.984 . S
N2020 H2033 0.985 . S
N2021 C2023 1.356 1_556 S
N2021 H2026 0.985 . S
N2021 H2027 0.985 . S
C2022 C2016 1.379 . S
C2022 C2019 1.363 . S
C2022 N2020 1.356 . S
C2023 C2017 1.363 . S
C2023 C2018 1.379 . S
C2023 N2021 1.356 1_554 S
N2024 C2016 1.356 . S
N2024 H2030 0.984 . S
N2024 H2031 0.984 . S
N2025 C2018 1.356 . S
N2025 H2028 0.984 . S
N2025 H2029 0.985 1_554 S
H2026 N2021 0.985 . S
H2027 N2021 0.985 . S
H2028 N2025 0.984 . S
H2029 N2025 0.985 1_556 S
H2030 N2024 0.984 . S
H2031 N2024 0.984 . S
H2032 N2020 0.984 . S
H2033 N2020 0.985 . S
C2034 C2035 1.363 . S
C2034 C2040 1.379 . S
C2034 N2042 1.356 . S
C2035 C2034 1.363 . S
C2035 C2041 1.363 . S
C2036 C2037 1.363 . S
C2036 C2041 1.379 . S
C2036 N2043 1.356 . S
C2037 C2036 1.363 . S
C2037 C2040 1.363 . S
N2038 C2040 1.356 . S
N2038 H2050 0.984 . S
N2038 H2051 0.985 . S
N2039 C2041 1.356 . S
N2039 H2044 0.984 . S
N2039 H2045 0.985 1_554 S
C2040 C2034 1.379 . S
C2040 C2037 1.363 . S
C2040 N2038 1.356 . S
C2041 C2035 1.363 . S
C2041 C2036 1.379 . S
C2041 N2039 1.356 . S
N2042 C2034 1.356 . S
N2042 H2048 0.984 . S
N2042 H2049 0.984 . S
N2043 C2036 1.356 . S
N2043 H2046 0.984 . S
N2043 H2047 0.985 . S
H2044 N2039 0.984 . S
H2045 N2039 0.985 1_556 S
H2046 N2043 0.984 . S
H2047 N2043 0.985 . S
H2048 N2042 0.984 . S
H2049 N2042 0.984 . S
H2050 N2038 0.984 . S
H2051 N2038 0.985 . S
C2052 C2053 1.363 . S
C2052 C2058 1.379 . S
C2052 N2060 1.356 . S
C2053 C2052 1.363 . S
C2053 C2059 1.363 . S
C2054 C2055 1.363 . S
C2054 C2059 1.379 . S
C2054 N2061 1.356 . S
C2055 C2054 1.363 . S
C2055 C2058 1.363 . S
N2056 C2058 1.356 . S
N2056 H2068 0.984 . S
N2056 H2069 0.985 . S
N2057 C2059 1.356 1_556 S
N2057 H2062 0.984 . S
N2057 H2063 0.985 . S
C2058 C2052 1.379 . S
C2058 C2055 1.363 . S
C2058 N2056 1.356 . S
C2059 C2053 1.363 . S
C2059 C2054 1.379 . S
C2059 N2057 1.356 1_554 S
N2060 C2052 1.356 . S
N2060 H2066 0.984 . S
N2060 H2067 0.984 . S
N2061 C2054 1.356 . S
N2061 H2064 0.984 . S
N2061 H2065 0.985 1_554 S
H2062 N2057 0.984 . S
H2063 N2057 0.985 . S
H2064 N2061 0.984 . S
H2065 N2061 0.985 1_556 S
H2066 N2060 0.984 . S
H2067 N2060 0.984 . S
H2068 N2056 0.984 . S
H2069 N2056 0.985 . S
C2070 C2071 1.363 . S
C2070 C2076 1.379 . S
C2070 N2078 1.356 . S
C2071 C2070 1.363 . S
C2071 C2077 1.363 1_556 S
C2072 C2073 1.363 1_554 S
C2072 C2077 1.379 . S
C2072 N2079 1.356 . S
C2073 C2072 1.363 1_556 S
C2073 C2076 1.363 . S
N2074 C2076 1.356 . S
N2074 H2086 0.984 . S
N2074 H2087 0.985 . S
N2075 C2077 1.356 . S
N2075 H2080 0.984 . S
N2075 H2081 0.985 . S
C2076 C2070 1.379 . S
C2076 C2073 1.363 . S
C2076 N2074 1.356 . S
C2077 C2071 1.363 1_554 S
C2077 C2072 1.379 . S
C2077 N2075 1.356 . S
N2078 C2070 1.356 . S
N2078 H2084 0.984 . S
N2078 H2085 0.984 . S
N2079 C2072 1.356 . S
N2079 H2082 0.984 . S
N2079 H2083 0.985 . S
H2080 N2075 0.984 . S
H2081 N2075 0.985 . S
H2082 N2079 0.984 . S
H2083 N2079 0.985 . S
H2084 N2078 0.984 . S
H2085 N2078 0.984 . S
H2086 N2074 0.984 . S
H2087 N2074 0.985 . S
C2088 C2089 1.363 1_554 S
C2088 C2094 1.379 . S
C2088 N2096 1.356 . S
C2089 C2088 1.363 1_556 S
C2089 C2095 1.363 . S
C2090 C2091 1.363 . S
C2090 C2095 1.379 . S
C2090 N2097 1.356 . S
C2091 C2090 1.363 . S
C2091 C2094 1.363 1_556 S
N2092 C2094 1.356 . S
N2092 H2104 0.984 . S
N2092 H2105 0.985 . S
N2093 C2095 1.356 . S
N2093 H2098 0.984 . S
N2093 H2099 0.985 . S
C2094 C2088 1.379 . S
C2094 C2091 1.363 1_554 S
C2094 N2092 1.356 . S
C2095 C2089 1.363 . S
C2095 C2090 1.379 . S
C2095 N2093 1.356 . S
N2096 C2088 1.356 . S
N2096 H2102 0.984 . S
N2096 H2103 0.984 . S
N2097 C2090 1.356 . S
N2097 H2100 0.984 . S
N2097 H2101 0.985 . S
H2098 N2093 0.984 . S
H2099 N2093 0.985 . S
H2100 N2097 0.984 . S
H2101 N2097 0.985 . S
H2102 N2096 0.984 . S
H2103 N2096 0.984 . S
H2104 N2092 0.984 . S
H2105 N2092 0.985 . S
C2106 C2107 1.363 . S
C2106 C2112 1.379 . S
C2106 N2114 1.356 1_556 S
C2107 C2106 1.363 . S
C2107 C2113 1.363 . S
C2108 C2109 1.363 . S
C2108 C2113 1.379 . S
C2108 N2115 1.356 . S
C2109 C2108 1.363 . S
C2109 C2112 1.363 . S
N2110 C2112 1.356 . S
N2110 H2122 0.984 1_556 S
N2110 H2123 0.985 . S
N2111 C2113 1.356 . S
N2111 H2116 0.984 . S
N2111 H2117 0.985 . S
C2112 C2106 1.379 . S
C2112 C2109 1.363 . S
C2112 N2110 1.356 . S
C2113 C2107 1.363 . S
C2113 C2108 1.379 . S
C2113 N2111 1.356 . S
N2114 C2106 1.356 1_554 S
N2114 H2120 0.984 . S
N2114 H2121 0.984 . S
N2115 C2108 1.356 . S
N2115 H2118 0.984 . S
N2115 H2119 0.985 . S
H2116 N2111 0.984 . S
H2117 N2111 0.985 . S
H2118 N2115 0.984 . S
H2119 N2115 0.985 . S
H2120 N2114 0.984 . S
H2121 N2114 0.984 . S
H2122 N2110 0.984 1_554 S
H2123 N2110 0.985 . S
C2124 C2125 1.363 . S
C2124 C2130 1.379 . S
C2124 N2132 1.356 . S
C2125 C2124 1.363 . S
C2125 C2131 1.363 1_556 S
C2126 C2127 1.363 1_554 S
C2126 C2131 1.379 . S
C2126 N2133 1.356 . S
C2127 C2126 1.363 1_556 S
C2127 C2130 1.363 . S
N2128 C2130 1.356 . S
N2128 H2140 0.984 . S
N2128 H2141 0.985 . S
N2129 C2131 1.356 . S
N2129 H2134 0.984 . S
N2129 H2135 0.985 . S
C2130 C2124 1.379 . S
C2130 C2127 1.363 . S
C2130 N2128 1.356 . S
C2131 C2125 1.363 1_554 S
C2131 C2126 1.379 . S
C2131 N2129 1.356 . S
N2132 C2124 1.356 . S
N2132 H2138 0.984 . S
N2132 H2139 0.984 . S
N2133 C2126 1.356 . S
N2133 H2136 0.984 . S
N2133 H2137 0.985 . S
H2134 N2129 0.984 . S
H2135 N2129 0.985 . S
H2136 N2133 0.984 . S
H2137 N2133 0.985 . S
H2138 N2132 0.984 . S
H2139 N2132 0.984 . S
H2140 N2128 0.984 . S
H2141 N2128 0.985 . S
C2142 C2143 1.355 1_554 S
C2142 C2148 1.375 1_554 S
C2142 N2150 1.368 . S
C2143 C2142 1.355 1_556 S
C2143 C2149 1.363 . S
C2144 C2145 1.363 . S
C2144 C2149 1.379 . S
C2144 N2151 1.356 . S
C2145 C2144 1.363 . S
C2145 C2148 1.363 . S
N2146 C2148 1.353 1_554 S
N2146 H2158 0.994 . S
N2146 H2159 0.979 1_554 S
N2147 C2149 1.356 . S
N2147 H2152 0.984 . S
N2147 H2153 0.985 . S
C2148 C2142 1.375 1_556 S
C2148 C2145 1.363 . S
C2148 N2146 1.353 1_556 S
C2149 C2143 1.363 . S
C2149 C2144 1.379 . S
C2149 N2147 1.356 . S
N2150 C2142 1.368 . S
N2150 H2156 0.984 . S
N2150 H2157 0.984 . S
N2151 C2144 1.356 . S
N2151 H2154 0.984 . S
N2151 H2155 0.985 . S
H2152 N2147 0.984 . S
H2153 N2147 0.985 . S
H2154 N2151 0.984 . S
H2155 N2151 0.985 . S
H2156 N2150 0.984 . S
H2157 N2150 0.984 . S
H2158 N2146 0.994 . S
H2159 N2146 0.979 1_556 S
C2160 C2161 1.363 . S
C2160 C2166 1.379 . S
C2160 N2168 1.356 . S
C2161 C2160 1.363 . S
C2161 C2167 1.363 1_556 S
C2162 C2163 1.363 . S
C2162 C2167 1.379 1_556 S
C2162 N2169 1.354 1_556 S
C2163 C2162 1.363 . S
C2163 C2166 1.363 . S
N2164 C2166 1.356 . S
N2164 H2176 0.984 . S
N2164 H2177 0.985 . S
N2165 C2167 1.356 . S
N2165 H2170 0.984 . S
N2165 H2171 0.985 . S
C2166 C2160 1.379 . S
C2166 C2163 1.363 . S
C2166 N2164 1.356 . S
C2167 C2161 1.363 1_554 S
C2167 C2162 1.379 1_554 S
C2167 N2165 1.356 . S
N2168 C2160 1.356 . S
N2168 H2174 0.984 . S
N2168 H2175 0.984 . S
N2169 C2162 1.354 1_554 S
N2169 H2172 0.978 1_554 S
N2169 H2173 0.993 . S
H2170 N2165 0.984 . S
H2171 N2165 0.985 . S
H2172 N2169 0.978 1_556 S
H2173 N2169 0.993 . S
H2174 N2168 0.984 . S
H2175 N2168 0.984 . S
H2176 N2164 0.984 . S
H2177 N2164 0.985 . S
C2178 C2179 1.363 . S
C2178 C2184 1.379 . S
C2178 N2186 1.356 . S
C2179 C2178 1.363 . S
C2179 C2185 1.363 . S
C2180 C2181 1.363 . S
C2180 C2185 1.379 . S
C2180 N2187 1.356 . S
C2181 C2180 1.363 . S
C2181 C2184 1.363 . S
N2182 C2184 1.356 . S
N2182 H2194 0.984 . S
N2182 H2195 0.985 . S
N2183 C2185 1.356 . S
N2183 H2188 0.984 . S
N2183 H2189 0.985 . S
C2184 C2178 1.379 . S
C2184 C2181 1.363 . S
C2184 N2182 1.356 . S
C2185 C2179 1.363 . S
C2185 C2180 1.379 . S
C2185 N2183 1.356 . S
N2186 C2178 1.356 . S
N2186 H2192 0.984 . S
N2186 H2193 0.984 . S
N2187 C2180 1.356 . S
N2187 H2190 0.984 . S
N2187 H2191 0.985 . S
H2188 N2183 0.984 . S
H2189 N2183 0.985 . S
H2190 N2187 0.984 . S
H2191 N2187 0.985 . S
H2192 N2186 0.984 . S
H2193 N2186 0.984 . S
H2194 N2182 0.984 . S
H2195 N2182 0.985 . S
C2196 C2197 1.363 . S
C2196 C2202 1.379 . S
C2196 N2204 1.356 . S
C2197 C2196 1.363 . S
C2197 C2203 1.363 . S
C2198 C2199 1.363 . S
C2198 C2203 1.379 . S
C2198 N2205 1.356 . S
C2199 C2198 1.363 . S
C2199 C2202 1.363 . S
N2200 C2202 1.356 . S
N2200 H2212 0.984 . S
N2200 H2213 0.985 . S
N2201 C2203 1.356 1_556 S
N2201 H2206 0.984 . S
N2201 H2207 0.985 . S
C2202 C2196 1.379 . S
C2202 C2199 1.363 . S
C2202 N2200 1.356 . S
C2203 C2197 1.363 . S
C2203 C2198 1.379 . S
C2203 N2201 1.356 1_554 S
N2204 C2196 1.356 . S
N2204 H2210 0.984 . S
N2204 H2211 0.984 . S
N2205 C2198 1.356 . S
N2205 H2208 0.984 . S
N2205 H2209 0.985 1_554 S
H2206 N2201 0.984 . S
H2207 N2201 0.985 . S
H2208 N2205 0.984 . S
H2209 N2205 0.985 1_556 S
H2210 N2204 0.984 . S
H2211 N2204 0.984 . S
H2212 N2200 0.984 . S
H2213 N2200 0.985 . S
C2214 C2215 1.363 . S
C2214 C2220 1.379 . S
C2214 N2222 1.356 . S
C2215 C2214 1.363 . S
C2215 C2221 1.363 . S
C2216 C2217 1.363 . S
C2216 C2221 1.379 . S
C2216 N2223 1.356 . S
C2217 C2216 1.363 . S
C2217 C2220 1.363 . S
N2218 C2220 1.356 . S
N2218 H2230 0.984 . S
N2218 H2231 0.985 . S
N2219 C2221 1.356 1_556 S
N2219 H2224 0.984 . S
N2219 H2225 0.985 . S
C2220 C2214 1.379 . S
C2220 C2217 1.363 . S
C2220 N2218 1.356 . S
C2221 C2215 1.363 . S
C2221 C2216 1.379 . S
C2221 N2219 1.356 1_554 S
N2222 C2214 1.356 . S
N2222 H2228 0.984 . S
N2222 H2229 0.984 . S
N2223 C2216 1.356 . S
N2223 H2226 0.984 . S
N2223 H2227 0.985 1_554 S
H2224 N2219 0.984 . S
H2225 N2219 0.985 . S
H2226 N2223 0.984 . S
H2227 N2223 0.985 1_556 S
H2228 N2222 0.984 . S
H2229 N2222 0.984 . S
H2230 N2218 0.984 . S
H2231 N2218 0.985 . S
C2232 C2233 1.363 . S
C2232 C2238 1.379 . S
C2232 N2240 1.356 . S
C2233 C2232 1.363 . S
C2233 C2239 1.363 . S
C2234 C2235 1.363 . S
C2234 C2239 1.379 . S
C2234 N2241 1.356 . S
C2235 C2234 1.363 . S
C2235 C2238 1.363 . S
N2236 C2238 1.356 . S
N2236 H2248 0.984 . S
N2236 H2249 0.985 . S
N2237 C2239 1.356 . S
N2237 H2242 0.984 . S
N2237 H2243 0.985 . S
C2238 C2232 1.379 . S
C2238 C2235 1.363 . S
C2238 N2236 1.356 . S
C2239 C2233 1.363 . S
C2239 C2234 1.379 . S
C2239 N2237 1.356 . S
N2240 C2232 1.356 . S
N2240 H2246 0.984 . S
N2240 H2247 0.984 . S
N2241 C2234 1.356 . S
N2241 H2244 0.984 . S
N2241 H2245 0.985 . S
H2242 N2237 0.984 . S
H2243 N2237 0.985 . S
H2244 N2241 0.984 . S
H2245 N2241 0.985 . S
H2246 N2240 0.984 . S
H2247 N2240 0.984 . S
H2248 N2236 0.984 . S
H2249 N2236 0.985 . S
C2250 C2251 1.363 . S
C2250 C2256 1.379 . S
C2250 N2258 1.356 . S
C2251 C2250 1.363 . S
C2251 C2257 1.363 . S
C2252 C2253 1.363 . S
C2252 C2257 1.379 . S
C2252 N2259 1.356 . S
C2253 C2252 1.363 . S
C2253 C2256 1.363 . S
N2254 C2256 1.356 . S
N2254 H2266 0.984 . S
N2254 H2267 0.985 . S
N2255 C2257 1.356 . S
N2255 H2260 0.984 . S
N2255 H2261 0.985 . S
C2256 C2250 1.379 . S
C2256 C2253 1.363 . S
C2256 N2254 1.356 . S
C2257 C2251 1.363 . S
C2257 C2252 1.379 . S
C2257 N2255 1.356 . S
N2258 C2250 1.356 . S
N2258 H2264 0.984 . S
N2258 H2265 0.984 . S
N2259 C2252 1.356 . S
N2259 H2262 0.984 . S
N2259 H2263 0.985 . S
H2260 N2255 0.984 . S
H2261 N2255 0.985 . S
H2262 N2259 0.984 . S
H2263 N2259 0.985 . S
H2264 N2258 0.984 . S
H2265 N2258 0.984 . S
H2266 N2254 0.984 . S
H2267 N2254 0.985 . S
C2268 C2269 1.363 . S
C2268 C2274 1.379 . S
C2268 N2276 1.356 . S
C2269 C2268 1.363 . S
C2269 C2275 1.363 . S
C2270 C2271 1.363 . S
C2270 C2275 1.379 . S
C2270 N2277 1.356 . S
C2271 C2270 1.363 . S
C2271 C2274 1.363 . S
N2272 C2274 1.356 . S
N2272 H2284 0.984 . S
N2272 H2285 0.985 . S
N2273 C2275 1.356 . S
N2273 H2278 0.984 . S
N2273 H2279 0.985 . S
C2274 C2268 1.379 . S
C2274 C2271 1.363 . S
C2274 N2272 1.356 . S
C2275 C2269 1.363 . S
C2275 C2270 1.379 . S
C2275 N2273 1.356 . S
N2276 C2268 1.356 . S
N2276 H2282 0.984 . S
N2276 H2283 0.984 . S
N2277 C2270 1.356 . S
N2277 H2280 0.984 . S
N2277 H2281 0.985 . S
H2278 N2273 0.984 . S
H2279 N2273 0.985 . S
H2280 N2277 0.984 . S
H2281 N2277 0.985 . S
H2282 N2276 0.984 . S
H2283 N2276 0.984 . S
H2284 N2272 0.984 . S
H2285 N2272 0.985 . S
C2286 C2287 1.363 . S
C2286 C2292 1.374 . S
C2286 N2294 1.357 1_455 S
C2287 C2286 1.363 . S
C2287 C2293 1.363 . S
C2288 C2289 1.363 . S
C2288 C2293 1.379 . S
C2288 N2295 1.356 . S
C2289 C2288 1.363 . S
C2289 C2292 1.362 . S
N2290 C2292 1.363 1_655 S
N2290 H2302 0.984 . S
N2290 H2303 0.985 . S
N2291 C2293 1.356 . S
N2291 H2296 0.984 . S
N2291 H2297 0.985 . S
C2292 C2286 1.374 . S
C2292 C2289 1.362 . S
C2292 N2290 1.363 1_455 S
C2293 C2287 1.363 . S
C2293 C2288 1.379 . S
C2293 N2291 1.356 . S
N2294 C2286 1.357 1_655 S
N2294 H2300 0.986 . S
N2294 H2301 0.982 1_655 S
N2295 C2288 1.356 . S
N2295 H2298 0.984 . S
N2295 H2299 0.985 . S
H2296 N2291 0.984 . S
H2297 N2291 0.985 . S
H2298 N2295 0.984 . S
H2299 N2295 0.985 . S
H2300 N2294 0.986 . S
H2301 N2294 0.982 1_455 S
H2302 N2290 0.984 . S
H2303 N2290 0.985 . S
C2304 C2305 1.363 . S
C2304 C2310 1.379 . S
C2304 N2312 1.356 . S
C2305 C2304 1.363 . S
C2305 C2311 1.363 . S
C2306 C2307 1.363 . S
C2306 C2311 1.379 . S
C2306 N2313 1.356 . S
C2307 C2306 1.363 . S
C2307 C2310 1.363 . S
N2308 C2310 1.356 . S
N2308 H2320 0.984 . S
N2308 H2321 0.985 . S
N2309 C2311 1.356 . S
N2309 H2314 0.984 . S
N2309 H2315 0.985 . S
C2310 C2304 1.379 . S
C2310 C2307 1.363 . S
C2310 N2308 1.356 . S
C2311 C2305 1.363 . S
C2311 C2306 1.379 . S
C2311 N2309 1.356 . S
N2312 C2304 1.356 . S
N2312 H2318 0.984 . S
N2312 H2319 0.984 . S
N2313 C2306 1.356 . S
N2313 H2316 0.984 . S
N2313 H2317 0.985 . S
H2314 N2309 0.984 . S
H2315 N2309 0.985 . S
H2316 N2313 0.984 . S
H2317 N2313 0.985 . S
H2318 N2312 0.984 . S
H2319 N2312 0.984 . S
H2320 N2308 0.984 . S
H2321 N2308 0.985 . S
C2322 C2323 1.363 . S
C2322 C2328 1.379 . S
C2322 N2330 1.356 . S
C2323 C2322 1.363 . S
C2323 C2329 1.363 . S
C2324 C2325 1.363 1_545 S
C2324 C2329 1.379 1_545 S
C2324 N2331 1.356 . S
C2325 C2324 1.363 1_565 S
C2325 C2328 1.363 . S
N2326 C2328 1.356 . S
N2326 H2338 0.984 . S
N2326 H2339 0.985 . S
N2327 C2329 1.356 1_545 S
N2327 H2332 0.984 1_545 S
N2327 H2333 0.985 . S
C2328 C2322 1.379 . S
C2328 C2325 1.363 . S
C2328 N2326 1.356 . S
C2329 C2323 1.363 . S
C2329 C2324 1.379 1_565 S
C2329 N2327 1.356 1_565 S
N2330 C2322 1.356 . S
N2330 H2336 0.984 . S
N2330 H2337 0.984 . S
N2331 C2324 1.356 . S
N2331 H2334 0.984 . S
N2331 H2335 0.985 . S
H2332 N2327 0.984 1_565 S
H2333 N2327 0.985 . S
H2334 N2331 0.984 . S
H2335 N2331 0.985 . S
H2336 N2330 0.984 . S
H2337 N2330 0.984 . S
H2338 N2326 0.984 . S
H2339 N2326 0.985 . S
C2340 C2341 1.363 . S
C2340 C2346 1.379 . S
C2340 N2348 1.356 . S
C2341 C2340 1.363 . S
C2341 C2347 1.363 . S
C2342 C2343 1.363 . S
C2342 C2347 1.379 . S
C2342 N2349 1.356 . S
C2343 C2342 1.363 . S
C2343 C2346 1.363 . S
N2344 C2346 1.356 . S
N2344 H2356 0.984 . S
N2344 H2357 0.985 . S
N2345 C2347 1.356 . S
N2345 H2350 0.984 . S
N2345 H2351 0.985 . S
C2346 C2340 1.379 . S
C2346 C2343 1.363 . S
C2346 N2344 1.356 . S
C2347 C2341 1.363 . S
C2347 C2342 1.379 . S
C2347 N2345 1.356 . S
N2348 C2340 1.356 . S
N2348 H2354 0.984 . S
N2348 H2355 0.984 . S
N2349 C2342 1.356 . S
N2349 H2352 0.984 . S
N2349 H2353 0.985 . S
H2350 N2345 0.984 . S
H2351 N2345 0.985 . S
H2352 N2349 0.984 . S
H2353 N2349 0.985 . S
H2354 N2348 0.984 . S
H2355 N2348 0.984 . S
H2356 N2344 0.984 . S
H2357 N2344 0.985 . S
C2358 C2359 1.363 . S
C2358 C2364 1.379 . S
C2358 N2366 1.356 . S
C2359 C2358 1.363 . S
C2359 C2365 1.363 . S
C2360 C2361 1.363 . S
C2360 C2365 1.379 . S
C2360 N2367 1.356 . S
C2361 C2360 1.363 . S
C2361 C2364 1.363 . S
N2362 C2364 1.356 . S
N2362 H2374 0.984 . S
N2362 H2375 0.985 . S
N2363 C2365 1.356 . S
N2363 H2368 0.984 . S
N2363 H2369 0.985 . S
C2364 C2358 1.379 . S
C2364 C2361 1.363 . S
C2364 N2362 1.356 . S
C2365 C2359 1.363 . S
C2365 C2360 1.379 . S
C2365 N2363 1.356 . S
N2366 C2358 1.356 . S
N2366 H2372 0.984 . S
N2366 H2373 0.984 . S
N2367 C2360 1.356 . S
N2367 H2370 0.978 . S
N2367 H2371 0.985 . S
H2368 N2363 0.984 . S
H2369 N2363 0.985 . S
H2370 N2367 0.978 . S
H2371 N2367 0.985 . S
H2372 N2366 0.984 . S
H2373 N2366 0.984 . S
H2374 N2362 0.984 . S
H2375 N2362 0.985 . S
C2376 C2377 1.363 . S
C2376 C2382 1.379 . S
C2376 N2384 1.356 . S
C2377 C2376 1.363 . S
C2377 C2383 1.363 . S
C2378 C2379 1.363 . S
C2378 C2383 1.379 . S
C2378 N2385 1.356 . S
C2379 C2378 1.363 . S
C2379 C2382 1.363 . S
N2380 C2382 1.356 . S
N2380 H2392 0.984 . S
N2380 H2393 0.985 . S
N2381 C2383 1.356 . S
N2381 H2386 0.984 . S
N2381 H2387 0.985 . S
C2382 C2376 1.379 . S
C2382 C2379 1.363 . S
C2382 N2380 1.356 . S
C2383 C2377 1.363 . S
C2383 C2378 1.379 . S
C2383 N2381 1.356 . S
N2384 C2376 1.356 . S
N2384 H2390 0.984 . S
N2384 H2391 0.984 . S
N2385 C2378 1.356 . S
N2385 H2388 0.984 . S
N2385 H2389 0.985 . S
H2386 N2381 0.984 . S
H2387 N2381 0.985 . S
H2388 N2385 0.984 . S
H2389 N2385 0.985 . S
H2390 N2384 0.984 . S
H2391 N2384 0.984 . S
H2392 N2380 0.984 . S
H2393 N2380 0.985 . S
C2394 C2395 1.363 . S
C2394 C2400 1.379 . S
C2394 N2402 1.356 . S
C2395 C2394 1.363 . S
C2395 C2401 1.363 . S
C2396 C2397 1.363 . S
C2396 C2401 1.379 . S
C2396 N2403 1.356 . S
C2397 C2396 1.363 . S
C2397 C2400 1.363 . S
N2398 C2400 1.356 . S
N2398 H2410 0.984 . S
N2398 H2411 0.985 . S
N2399 C2401 1.356 . S
N2399 H2404 0.984 . S
N2399 H2405 0.985 . S
C2400 C2394 1.379 . S
C2400 C2397 1.363 . S
C2400 N2398 1.356 . S
C2401 C2395 1.363 . S
C2401 C2396 1.379 . S
C2401 N2399 1.356 . S
N2402 C2394 1.356 . S
N2402 H2408 0.984 . S
N2402 H2409 0.984 . S
N2403 C2396 1.356 . S
N2403 H2406 0.984 . S
N2403 H2407 0.985 . S
H2404 N2399 0.984 . S
H2405 N2399 0.985 . S
H2406 N2403 0.984 . S
H2407 N2403 0.985 . S
H2408 N2402 0.984 . S
H2409 N2402 0.984 . S
H2410 N2398 0.984 . S
H2411 N2398 0.985 . S
C2412 C2413 1.363 . S
C2412 C2418 1.379 . S
C2412 N2420 1.356 . S
C2413 C2412 1.363 . S
C2413 C2419 1.363 . S
C2414 C2415 1.363 . S
C2414 C2419 1.379 . S
C2414 N2421 1.356 . S
C2415 C2414 1.363 . S
C2415 C2418 1.363 . S
N2416 C2418 1.356 . S
N2416 H2428 0.984 . S
N2416 H2429 0.985 . S
N2417 C2419 1.356 . S
N2417 H2422 0.984 . S
N2417 H2423 0.985 . S
C2418 C2412 1.379 . S
C2418 C2415 1.363 . S
C2418 N2416 1.356 . S
C2419 C2413 1.363 . S
C2419 C2414 1.379 . S
C2419 N2417 1.356 . S
N2420 C2412 1.356 . S
N2420 H2426 0.984 . S
N2420 H2427 0.984 . S
N2421 C2414 1.356 . S
N2421 H2424 0.984 . S
N2421 H2425 0.985 . S
H2422 N2417 0.984 . S
H2423 N2417 0.985 . S
H2424 N2421 0.984 . S
H2425 N2421 0.985 . S
H2426 N2420 0.984 . S
H2427 N2420 0.984 . S
H2428 N2416 0.984 . S
H2429 N2416 0.985 . S
C2430 C2431 1.363 . S
C2430 C2436 1.379 . S
C2430 N2438 1.356 . S
C2431 C2430 1.363 . S
C2431 C2437 1.363 . S
C2432 C2433 1.363 . S
C2432 C2437 1.379 . S
C2432 N2439 1.356 . S
C2433 C2432 1.363 . S
C2433 C2436 1.363 . S
N2434 C2436 1.356 . S
N2434 H2446 0.984 . S
N2434 H2447 0.985 . S
N2435 C2437 1.356 . S
N2435 H2440 0.984 . S
N2435 H2441 0.985 . S
C2436 C2430 1.379 . S
C2436 C2433 1.363 . S
C2436 N2434 1.356 . S
C2437 C2431 1.363 . S
C2437 C2432 1.379 . S
C2437 N2435 1.356 . S
N2438 C2430 1.356 . S
N2438 H2444 0.984 . S
N2438 H2445 0.984 . S
N2439 C2432 1.356 . S
N2439 H2442 0.984 . S
N2439 H2443 0.985 . S
H2440 N2435 0.984 . S
H2441 N2435 0.985 . S
H2442 N2439 0.984 . S
H2443 N2439 0.985 . S
H2444 N2438 0.984 . S
H2445 N2438 0.984 . S
H2446 N2434 0.984 . S
H2447 N2434 0.985 . S
C2448 C2449 1.363 . S
C2448 C2454 1.379 . S
C2448 N2456 1.356 . S
C2449 C2448 1.363 . S
C2449 C2455 1.363 . S
C2450 C2451 1.356 1_565 S
C2450 C2455 1.334 1_565 S
C2450 N2457 1.415 . S
C2451 C2450 1.356 1_545 S
C2451 C2454 1.363 . S
N2452 C2454 1.356 . S
N2452 H2464 0.984 . S
N2452 H2465 0.985 . S
N2453 C2455 1.365 1_565 S
N2453 H2458 0.931 1_565 S
N2453 H2459 1.031 . S
C2454 C2448 1.379 . S
C2454 C2451 1.363 . S
C2454 N2452 1.356 . S
C2455 C2449 1.363 . S
C2455 C2450 1.334 1_545 S
C2455 N2453 1.365 1_545 S
N2456 C2448 1.356 . S
N2456 H2462 0.984 . S
N2456 H2463 0.984 . S
N2457 C2450 1.415 . S
N2457 H2460 0.984 . S
N2457 H2461 0.985 . S
H2458 N2453 0.931 1_545 S
H2459 N2453 1.031 . S
H2460 N2457 0.984 . S
H2461 N2457 0.985 . S
H2462 N2456 0.984 . S
H2463 N2456 0.984 . S
H2464 N2452 0.984 . S
H2465 N2452 0.985 . S
C2466 C2467 1.363 . S
C2466 C2472 1.379 . S
C2466 N2474 1.356 . S
C2467 C2466 1.363 . S
C2467 C2473 1.363 . S
C2468 C2469 1.363 . S
C2468 C2473 1.379 . S
C2468 N2475 1.356 1_655 S
C2469 C2468 1.363 . S
C2469 C2472 1.363 . S
N2470 C2472 1.356 . S
N2470 H2482 0.984 . S
N2470 H2483 0.985 . S
N2471 C2473 1.356 . S
N2471 H2476 0.984 . S
N2471 H2477 0.959 1_655 S
C2472 C2466 1.379 . S
C2472 C2469 1.363 . S
C2472 N2470 1.356 . S
C2473 C2467 1.363 . S
C2473 C2468 1.379 . S
C2473 N2471 1.356 . S
N2474 C2466 1.356 . S
N2474 H2480 0.984 . S
N2474 H2481 0.984 . S
N2475 C2468 1.356 1_455 S
N2475 H2478 0.984 . S
N2475 H2479 0.985 . S
H2476 N2471 0.984 . S
H2477 N2471 0.959 1_455 S
H2478 N2475 0.984 . S
H2479 N2475 0.985 . S
H2480 N2474 0.984 . S
H2481 N2474 0.984 . S
H2482 N2470 0.984 . S
H2483 N2470 0.985 . S
C2484 C2485 1.363 . S
C2484 C2490 1.379 . S
C2484 N2492 1.356 . S
C2485 C2484 1.363 . S
C2485 C2491 1.363 . S
C2486 C2487 1.363 . S
C2486 C2491 1.379 . S
C2486 N2493 1.356 . S
C2487 C2486 1.363 . S
C2487 C2490 1.363 . S
N2488 C2490 1.356 . S
N2488 H2500 0.984 . S
N2488 H2501 0.985 . S
N2489 C2491 1.356 . S
N2489 H2494 0.984 . S
N2489 H2495 0.985 . S
C2490 C2484 1.379 . S
C2490 C2487 1.363 . S
C2490 N2488 1.356 . S
C2491 C2485 1.363 . S
C2491 C2486 1.379 . S
C2491 N2489 1.356 . S
N2492 C2484 1.356 . S
N2492 H2498 0.984 . S
N2492 H2499 0.984 . S
N2493 C2486 1.356 . S
N2493 H2496 0.984 . S
N2493 H2497 0.985 . S
H2494 N2489 0.984 . S
H2495 N2489 0.985 . S
H2496 N2493 0.984 . S
H2497 N2493 0.985 . S
H2498 N2492 0.984 . S
H2499 N2492 0.984 . S
H2500 N2488 0.984 . S
H2501 N2488 0.985 . S
C2502 C2503 1.363 . S
C2502 C2508 1.379 . S
C2502 N2510 1.356 . S
C2503 C2502 1.363 . S
C2503 C2509 1.363 . S
C2504 C2505 1.363 . S
C2504 C2509 1.379 . S
C2504 N2511 1.356 . S
C2505 C2504 1.363 . S
C2505 C2508 1.363 . S
N2506 C2508 1.356 . S
N2506 H2518 0.984 . S
N2506 H2519 0.985 . S
N2507 C2509 1.356 . S
N2507 H2512 0.984 . S
N2507 H2513 0.985 . S
C2508 C2502 1.379 . S
C2508 C2505 1.363 . S
C2508 N2506 1.356 . S
C2509 C2503 1.363 . S
C2509 C2504 1.379 . S
C2509 N2507 1.356 . S
N2510 C2502 1.356 . S
N2510 H2516 0.984 . S
N2510 H2517 0.984 . S
N2511 C2504 1.356 . S
N2511 H2514 0.984 . S
N2511 H2515 0.985 . S
H2512 N2507 0.984 . S
H2513 N2507 0.985 . S
H2514 N2511 0.984 . S
H2515 N2511 0.985 . S
H2516 N2510 0.984 . S
H2517 N2510 0.984 . S
H2518 N2506 0.984 . S
H2519 N2506 0.985 . S
C2520 C2521 1.363 . S
C2520 C2526 1.379 . S
C2520 N2528 1.356 . S
C2521 C2520 1.363 . S
C2521 C2527 1.363 . S
C2522 C2523 1.363 . S
C2522 C2527 1.379 . S
C2522 N2529 1.356 . S
C2523 C2522 1.363 . S
C2523 C2526 1.363 . S
N2524 C2526 1.356 . S
N2524 H2536 0.984 . S
N2524 H2537 0.985 . S
N2525 C2527 1.356 . S
N2525 H2530 0.984 . S
N2525 H2531 0.985 . S
C2526 C2520 1.379 . S
C2526 C2523 1.363 . S
C2526 N2524 1.356 . S
C2527 C2521 1.363 . S
C2527 C2522 1.379 . S
C2527 N2525 1.356 . S
N2528 C2520 1.356 . S
N2528 H2534 0.984 . S
N2528 H2535 0.984 . S
N2529 C2522 1.356 . S
N2529 H2532 0.984 . S
N2529 H2533 0.985 . S
H2530 N2525 0.984 . S
H2531 N2525 0.985 . S
H2532 N2529 0.984 . S
H2533 N2529 0.985 . S
H2534 N2528 0.984 . S
H2535 N2528 0.984 . S
H2536 N2524 0.984 . S
H2537 N2524 0.985 . S
C2538 C2539 1.363 . S
C2538 C2544 1.379 . S
C2538 N2546 1.356 . S
C2539 C2538 1.363 . S
C2539 C2545 1.363 . S
C2540 C2541 1.363 . S
C2540 C2545 1.379 . S
C2540 N2547 1.356 . S
C2541 C2540 1.363 . S
C2541 C2544 1.363 . S
N2542 C2544 1.356 . S
N2542 H2554 0.984 . S
N2542 H2555 0.985 . S
N2543 C2545 1.356 . S
N2543 H2548 0.984 . S
N2543 H2549 0.985 . S
C2544 C2538 1.379 . S
C2544 C2541 1.363 . S
C2544 N2542 1.356 . S
C2545 C2539 1.363 . S
C2545 C2540 1.379 . S
C2545 N2543 1.356 . S
N2546 C2538 1.356 . S
N2546 H2552 0.984 . S
N2546 H2553 0.984 . S
N2547 C2540 1.356 . S
N2547 H2550 0.984 . S
N2547 H2551 0.985 . S
H2548 N2543 0.984 . S
H2549 N2543 0.985 . S
H2550 N2547 0.984 . S
H2551 N2547 0.985 . S
H2552 N2546 0.984 . S
H2553 N2546 0.984 . S
H2554 N2542 0.984 . S
H2555 N2542 0.985 . S
C2556 C2557 1.363 . S
C2556 C2562 1.379 . S
C2556 N2564 1.356 . S
C2557 C2556 1.363 . S
C2557 C2563 1.363 . S
C2558 C2559 1.363 . S
C2558 C2563 1.379 . S
C2558 N2565 1.356 . S
C2559 C2558 1.363 . S
C2559 C2562 1.363 . S
N2560 C2562 1.356 . S
N2560 H2572 0.984 . S
N2560 H2573 0.985 . S
N2561 C2563 1.356 . S
N2561 H2566 0.984 . S
N2561 H2567 0.985 . S
C2562 C2556 1.379 . S
C2562 C2559 1.363 . S
C2562 N2560 1.356 . S
C2563 C2557 1.363 . S
C2563 C2558 1.379 . S
C2563 N2561 1.356 . S
N2564 C2556 1.356 . S
N2564 H2570 0.984 . S
N2564 H2571 0.984 . S
N2565 C2558 1.356 . S
N2565 H2568 0.984 . S
N2565 H2569 0.985 . S
H2566 N2561 0.984 . S
H2567 N2561 0.985 . S
H2568 N2565 0.984 . S
H2569 N2565 0.985 . S
H2570 N2564 0.984 . S
H2571 N2564 0.984 . S
H2572 N2560 0.984 . S
H2573 N2560 0.985 . S
C2574 C2575 1.363 . S
C2574 C2580 1.379 . S
C2574 N2582 1.356 . S
C2575 C2574 1.363 . S
C2575 C2581 1.363 . S
C2576 C2577 1.363 . S
C2576 C2581 1.379 . S
C2576 N2583 1.356 . S
C2577 C2576 1.363 . S
C2577 C2580 1.363 . S
N2578 C2580 1.356 . S
N2578 H2590 0.984 . S
N2578 H2591 0.985 . S
N2579 C2581 1.356 . S
N2579 H2584 0.984 . S
N2579 H2585 0.985 . S
C2580 C2574 1.379 . S
C2580 C2577 1.363 . S
C2580 N2578 1.356 . S
C2581 C2575 1.363 . S
C2581 C2576 1.379 . S
C2581 N2579 1.356 . S
N2582 C2574 1.356 . S
N2582 H2588 0.984 . S
N2582 H2589 0.984 . S
N2583 C2576 1.356 . S
N2583 H2586 0.984 . S
N2583 H2587 0.985 . S
H2584 N2579 0.984 . S
H2585 N2579 0.985 . S
H2586 N2583 0.984 . S
H2587 N2583 0.985 . S
H2588 N2582 0.984 . S
H2589 N2582 0.984 . S
H2590 N2578 0.984 . S
H2591 N2578 0.985 . S
C2592 C2593 1.363 . S
C2592 C2598 1.379 . S
C2592 N2600 1.356 . S
C2593 C2592 1.363 . S
C2593 C2599 1.363 . S
C2594 C2595 1.363 . S
C2594 C2599 1.379 . S
C2594 N2601 1.356 . S
C2595 C2594 1.363 . S
C2595 C2598 1.363 . S
N2596 C2598 1.356 . S
N2596 H2608 0.984 . S
N2596 H2609 0.985 . S
N2597 C2599 1.356 . S
N2597 H2602 0.984 . S
N2597 H2603 0.985 . S
C2598 C2592 1.379 . S
C2598 C2595 1.363 . S
C2598 N2596 1.356 . S
C2599 C2593 1.363 . S
C2599 C2594 1.379 . S
C2599 N2597 1.356 . S
N2600 C2592 1.356 . S
N2600 H2606 0.984 . S
N2600 H2607 0.984 . S
N2601 C2594 1.356 . S
N2601 H2604 0.984 . S
N2601 H2605 0.985 . S
H2602 N2597 0.984 . S
H2603 N2597 0.985 . S
H2604 N2601 0.984 . S
H2605 N2601 0.985 . S
H2606 N2600 0.984 . S
H2607 N2600 0.984 . S
H2608 N2596 0.984 . S
H2609 N2596 0.985 . S
C2610 C2611 1.363 . S
C2610 C2616 1.379 . S
C2610 N2618 1.356 . S
C2611 C2610 1.363 . S
C2611 C2617 1.363 . S
C2612 C2613 1.363 . S
C2612 C2617 1.379 . S
C2612 N2619 1.312 1_655 S
C2613 C2612 1.363 . S
C2613 C2616 1.363 . S
N2614 C2616 1.356 . S
N2614 H2626 0.984 . S
N2614 H2627 0.985 . S
N2615 C2617 1.356 . S
N2615 H2620 0.984 . S
N2615 H2621 0.985 . S
C2616 C2610 1.379 . S
C2616 C2613 1.363 . S
C2616 N2614 1.356 . S
C2617 C2611 1.363 . S
C2617 C2612 1.379 . S
C2617 N2615 1.356 . S
N2618 C2610 1.356 . S
N2618 H2624 0.984 . S
N2618 H2625 0.984 . S
N2619 C2612 1.312 1_455 S
N2619 H2622 1.032 . S
N2619 H2623 0.986 . S
H2620 N2615 0.984 . S
H2621 N2615 0.985 . S
H2622 N2619 1.032 . S
H2623 N2619 0.986 . S
H2624 N2618 0.984 . S
H2625 N2618 0.984 . S
H2626 N2614 0.984 . S
H2627 N2614 0.985 . S
C2628 C2629 1.363 . S
C2628 C2634 1.379 . S
C2628 N2636 1.356 . S
C2629 C2628 1.363 . S
C2629 C2635 1.363 . S
C2630 C2631 1.363 . S
C2630 C2635 1.379 . S
C2630 N2637 1.356 . S
C2631 C2630 1.363 . S
C2631 C2634 1.363 . S
N2632 C2634 1.356 . S
N2632 H2644 0.984 . S
N2632 H2645 0.985 . S
N2633 C2635 1.356 . S
N2633 H2638 0.984 . S
N2633 H2639 0.985 . S
C2634 C2628 1.379 . S
C2634 C2631 1.363 . S
C2634 N2632 1.356 . S
C2635 C2629 1.363 . S
C2635 C2630 1.379 . S
C2635 N2633 1.356 . S
N2636 C2628 1.356 . S
N2636 H2642 0.984 . S
N2636 H2643 0.984 . S
N2637 C2630 1.356 . S
N2637 H2640 0.984 . S
N2637 H2641 0.985 . S
H2638 N2633 0.984 . S
H2639 N2633 0.985 . S
H2640 N2637 0.984 . S
H2641 N2637 0.985 . S
H2642 N2636 0.984 . S
H2643 N2636 0.984 . S
H2644 N2632 0.984 . S
H2645 N2632 0.985 . S
C2646 C2647 1.363 . S
C2646 C2652 1.379 . S
C2646 N2654 1.356 . S
C2647 C2646 1.363 . S
C2647 C2653 1.363 . S
C2648 C2649 1.413 . S
C2648 C2653 1.370 . S
C2648 N2655 1.329 1_545 S
C2649 C2648 1.413 . S
C2649 C2652 1.363 . S
N2650 C2652 1.356 . S
N2650 H2662 0.984 . S
N2650 H2663 0.985 . S
N2651 C2653 1.356 . S
N2651 H2656 0.984 . S
N2651 H2657 0.985 1_545 S
C2652 C2646 1.379 . S
C2652 C2649 1.363 . S
C2652 N2650 1.356 . S
C2653 C2647 1.363 . S
C2653 C2648 1.370 . S
C2653 N2651 1.356 . S
N2654 C2646 1.356 . S
N2654 H2660 0.984 . S
N2654 H2661 0.984 . S
N2655 C2648 1.329 1_565 S
N2655 H2658 0.984 . S
N2655 H2659 0.985 . S
H2656 N2651 0.984 . S
H2657 N2651 0.985 1_565 S
H2658 N2655 0.984 . S
H2659 N2655 0.985 . S
H2660 N2654 0.984 . S
H2661 N2654 0.984 . S
H2662 N2650 0.984 . S
H2663 N2650 0.985 . S
C1369 C4 1.599 . S
C1371 C857 1.577 . S
C1387 C26 1.599 . S
C1389 C901 1.546 . S
C1407 C981 1.512 . S
C1405 C32 1.536 . S
C1423 C40 1.528 . S
C1425 C1025 1.479 . S
C1441 C12 1.565 . S
C1443 C1105 1.518 . S
C1459 C18 1.569 . S
C1461 C1167 1.546 . S
C1477 C46 1.585 . S
C1479 C1087 1.565 . S
C1497 C1149 1.517 . S
C1495 C68 1.596 . S
C1515 C1043 1.546 . S
C1513 C74 1.551 . S
C1531 C82 1.513 . S
C1533 C963 1.464 . S
C1551 C839 1.523 . S
C1549 C54 1.582 . S
C1567 C60 1.566 . S
C1569 C919 1.570 . S
C1585 C88 1.635 . S
C1587 C1229 1.610 . S
C1603 C110 1.620 . S
C1605 C1273 1.568 . S
C1623 C1353 1.569 . S
C1621 C116 1.600 . S
C1639 C124 1.547 . S
C1641 C299 1.475 . S
C1657 C96 1.587 . S
C1659 C343 1.542 . S
C1675 C102 1.575 . S
C1677 C423 1.549 . S
C1693 C130 1.621 . S
C1695 C361 1.627 . S
C1711 C152 1.630 . S
C1713 C405 1.549 . S
C1731 C281 1.566 . S
C1729 C158 1.597 . S
C1749 C1335 1.488 . S
C1747 C166 1.562 . S
C1767 C1211 1.516 . S
C1765 C138 1.581 . S
C1785 C1291 1.600 . S
C1783 C144 1.595 . S
C1801 C172 1.628 . S
C1803 C485 1.602 . S
C1819 C194 1.624 . S
C1821 C547 1.541 . S
C1837 C200 1.599 . S
C1839 C591 1.604 . S
C1855 C208 1.556 . S
C1857 C653 1.506 . S
C1875 C715 1.545 . S
C1873 C180 1.591 . S
C1893 C795 1.565 . S
C1891 C186 1.589 . S
C1911 C733 1.647 . S
C1909 C214 1.640 . S
C1929 C777 1.539 . S
C1927 C236 1.623 . S
C1945 C242 1.590 . S
C1947 C671 1.596 . S
C1965 C609 1.491 . S
C1963 C250 1.541 . S
C1981 C222 1.587 . S
C1983 C467 1.521 . S
C2001 C529 1.557 . S
C1999 C228 1.583 . S
C2019 C305 1.415 . S
C2017 C5 1.212 . S
C2035 C25 1.505 . S
C2037 C349 1.393 . S
C2055 C429 1.411 . S
C2053 C33 1.220 . S
C2073 C491 1.317 . S
C2071 C39 1.412 . S
C2091 C553 1.361 . S
C2089 C11 1.490 . S
C2109 C597 1.392 . S
C2107 C19 1.168 1_556 S
C2125 C47 1.222 1_556 S
C2127 C615 1.466 . S
C2143 C67 1.499 . S
C2145 C473 1.360 . S
C2161 C75 1.215 1_556 S
C2163 C535 1.407 . S
C2179 C81 1.436 . S
C2181 C367 1.352 . S
C2199 C411 1.350 . S
C2197 C53 1.477 . S
C2215 C61 1.165 . S
C2217 C287 1.361 . S
C2235 C659 1.436 . S
C2233 C89 1.198 . S
C2251 C109 1.528 . S
C2253 C721 1.416 . S
C2269 C117 1.207 . S
C2271 C801 1.404 . S
C2289 C863 1.298 . S
C2287 C123 1.393 . S
C2305 C95 1.468 . S
C2307 C907 1.370 . S
C2323 C103 1.122 . S
C2325 C987 1.293 . S
C2341 C131 1.134 . S
C2343 C969 1.309 . S
C2359 C151 1.455 . S
C2361 C845 1.332 . S
C2379 C925 1.408 . S
C2377 C159 1.184 . S
C2395 C165 1.445 . S
C2397 C739 1.355 . S
C2413 C137 1.505 . S
C2415 C783 1.374 . S
C2433 C677 1.404 . S
C2431 C145 1.180 . S
C2451 C1031 1.363 . S
C2449 C173 1.150 . S
C2467 C193 1.423 . S
C2469 C1111 1.308 . S
C2485 C201 1.180 . S
C2487 C1173 1.375 . S
C2505 C1235 1.319 . S
C2503 C207 1.431 . S
C2523 C1279 1.411 . S
C2521 C179 1.515 . S
C2539 C187 1.183 . S
C2541 C1359 1.382 . S
C2557 C215 1.209 . S
C2559 C1341 1.417 . S
C2575 C235 1.523 . S
C2577 C1217 1.382 . S
C2595 C1297 1.427 . S
C2593 C243 1.200 . S
C2613 C1093 1.273 . S
C2611 C249 1.359 . S
C2631 C1155 1.348 . S
C2629 C221 1.472 . S
C2647 C229 1.133 . S
C2649 C1049 1.329 . S
