# Generated by pormake.
# Topology tbo, (3,4)-cn, num edge types: 1
# Building blocks:
#     Node 0, Type 0, BuildingBlock: VETTIZ_charged_linker_0, # of connection points: 3
#     Node 1, Type 0, BuildingBlock: VETTIZ_charged_linker_0, # of connection points: 3
#     Node 2, Type 0, BuildingBlock: VETTIZ_charged_linker_0, # of connection points: 3
#     Node 3, Type 0, BuildingBlock: VETTIZ_charged_linker_0, # of connection points: 3
#     Node 4, Type 0, BuildingBlock: VETTIZ_charged_linker_0, # of connection points: 3
#     Node 5, Type 0, BuildingBlock: VETTIZ_charged_linker_0, # of connection points: 3
#     Node 6, Type 0, BuildingBlock: VETTIZ_charged_linker_0, # of connection points: 3
#     Node 7, Type 0, BuildingBlock: VETTIZ_charged_linker_0, # of connection points: 3
#     Node 8, Type 0, BuildingBlock: VETTIZ_charged_linker_0, # of connection points: 3
#     Node 9, Type 0, BuildingBlock: VETTIZ_charged_linker_0, # of connection points: 3
#     Node 10, Type 0, BuildingBlock: VETTIZ_charged_linker_0, # of connection points: 3
#     Node 11, Type 0, BuildingBlock: VETTIZ_charged_linker_0, # of connection points: 3
#     Node 12, Type 0, BuildingBlock: VETTIZ_charged_linker_0, # of connection points: 3
#     Node 13, Type 0, BuildingBlock: VETTIZ_charged_linker_0, # of connection points: 3
#     Node 14, Type 0, BuildingBlock: VETTIZ_charged_linker_0, # of connection points: 3
#     Node 15, Type 0, BuildingBlock: VETTIZ_charged_linker_0, # of connection points: 3
#     Node 16, Type 0, BuildingBlock: VETTIZ_charged_linker_0, # of connection points: 3
#     Node 17, Type 0, BuildingBlock: VETTIZ_charged_linker_0, # of connection points: 3
#     Node 18, Type 0, BuildingBlock: VETTIZ_charged_linker_0, # of connection points: 3
#     Node 19, Type 0, BuildingBlock: VETTIZ_charged_linker_0, # of connection points: 3
#     Node 20, Type 0, BuildingBlock: VETTIZ_charged_linker_0, # of connection points: 3
#     Node 21, Type 0, BuildingBlock: VETTIZ_charged_linker_0, # of connection points: 3
#     Node 22, Type 0, BuildingBlock: VETTIZ_charged_linker_0, # of connection points: 3
#     Node 23, Type 0, BuildingBlock: VETTIZ_charged_linker_0, # of connection points: 3
#     Node 24, Type 0, BuildingBlock: VETTIZ_charged_linker_0, # of connection points: 3
#     Node 25, Type 0, BuildingBlock: VETTIZ_charged_linker_0, # of connection points: 3
#     Node 26, Type 0, BuildingBlock: VETTIZ_charged_linker_0, # of connection points: 3
#     Node 27, Type 0, BuildingBlock: VETTIZ_charged_linker_0, # of connection points: 3
#     Node 28, Type 0, BuildingBlock: VETTIZ_charged_linker_0, # of connection points: 3
#     Node 29, Type 0, BuildingBlock: VETTIZ_charged_linker_0, # of connection points: 3
#     Node 30, Type 0, BuildingBlock: VETTIZ_charged_linker_0, # of connection points: 3
#     Node 31, Type 0, BuildingBlock: VETTIZ_charged_linker_0, # of connection points: 3
#     Node 32, Type 1, BuildingBlock: ESEHIV_clean_sbu_0, # of connection points: 4
#     Node 33, Type 1, BuildingBlock: ESEHIV_clean_sbu_0, # of connection points: 4
#     Node 34, Type 1, BuildingBlock: ESEHIV_clean_sbu_0, # of connection points: 4
#     Node 35, Type 1, BuildingBlock: ESEHIV_clean_sbu_0, # of connection points: 4
#     Node 36, Type 1, BuildingBlock: ESEHIV_clean_sbu_0, # of connection points: 4
#     Node 37, Type 1, BuildingBlock: ESEHIV_clean_sbu_0, # of connection points: 4
#     Node 38, Type 1, BuildingBlock: ESEHIV_clean_sbu_0, # of connection points: 4
#     Node 39, Type 1, BuildingBlock: ESEHIV_clean_sbu_0, # of connection points: 4
#     Node 40, Type 1, BuildingBlock: ESEHIV_clean_sbu_0, # of connection points: 4
#     Node 41, Type 1, BuildingBlock: ESEHIV_clean_sbu_0, # of connection points: 4
#     Node 42, Type 1, BuildingBlock: ESEHIV_clean_sbu_0, # of connection points: 4
#     Node 43, Type 1, BuildingBlock: ESEHIV_clean_sbu_0, # of connection points: 4
#     Node 44, Type 1, BuildingBlock: ESEHIV_clean_sbu_0, # of connection points: 4
#     Node 45, Type 1, BuildingBlock: ESEHIV_clean_sbu_0, # of connection points: 4
#     Node 46, Type 1, BuildingBlock: ESEHIV_clean_sbu_0, # of connection points: 4
#     Node 47, Type 1, BuildingBlock: ESEHIV_clean_sbu_0, # of connection points: 4
#     Node 48, Type 1, BuildingBlock: ESEHIV_clean_sbu_0, # of connection points: 4
#     Node 49, Type 1, BuildingBlock: ESEHIV_clean_sbu_0, # of connection points: 4
#     Node 50, Type 1, BuildingBlock: ESEHIV_clean_sbu_0, # of connection points: 4
#     Node 51, Type 1, BuildingBlock: ESEHIV_clean_sbu_0, # of connection points: 4
#     Node 52, Type 1, BuildingBlock: ESEHIV_clean_sbu_0, # of connection points: 4
#     Node 53, Type 1, BuildingBlock: ESEHIV_clean_sbu_0, # of connection points: 4
#     Node 54, Type 1, BuildingBlock: ESEHIV_clean_sbu_0, # of connection points: 4
#     Node 55, Type 1, BuildingBlock: ESEHIV_clean_sbu_0, # of connection points: 4
#     Edge 56, Type (0, 1), BuildingBlock: CIFDUS_clean_linker_0, # of connection points: 2
#     Edge 57, Type (0, 1), BuildingBlock: CIFDUS_clean_linker_0, # of connection points: 2
#     Edge 58, Type (0, 1), BuildingBlock: CIFDUS_clean_linker_0, # of connection points: 2
#     Edge 59, Type (0, 1), BuildingBlock: CIFDUS_clean_linker_0, # of connection points: 2
#     Edge 60, Type (0, 1), BuildingBlock: CIFDUS_clean_linker_0, # of connection points: 2
#     Edge 61, Type (0, 1), BuildingBlock: CIFDUS_clean_linker_0, # of connection points: 2
#     Edge 62, Type (0, 1), BuildingBlock: CIFDUS_clean_linker_0, # of connection points: 2
#     Edge 63, Type (0, 1), BuildingBlock: CIFDUS_clean_linker_0, # of connection points: 2
#     Edge 64, Type (0, 1), BuildingBlock: CIFDUS_clean_linker_0, # of connection points: 2
#     Edge 65, Type (0, 1), BuildingBlock: CIFDUS_clean_linker_0, # of connection points: 2
#     Edge 66, Type (0, 1), BuildingBlock: CIFDUS_clean_linker_0, # of connection points: 2
#     Edge 67, Type (0, 1), BuildingBlock: CIFDUS_clean_linker_0, # of connection points: 2
#     Edge 68, Type (0, 1), BuildingBlock: CIFDUS_clean_linker_0, # of connection points: 2
#     Edge 69, Type (0, 1), BuildingBlock: CIFDUS_clean_linker_0, # of connection points: 2
#     Edge 70, Type (0, 1), BuildingBlock: CIFDUS_clean_linker_0, # of connection points: 2
#     Edge 71, Type (0, 1), BuildingBlock: CIFDUS_clean_linker_0, # of connection points: 2
#     Edge 72, Type (0, 1), BuildingBlock: CIFDUS_clean_linker_0, # of connection points: 2
#     Edge 73, Type (0, 1), BuildingBlock: CIFDUS_clean_linker_0, # of connection points: 2
#     Edge 74, Type (0, 1), BuildingBlock: CIFDUS_clean_linker_0, # of connection points: 2
#     Edge 75, Type (0, 1), BuildingBlock: CIFDUS_clean_linker_0, # of connection points: 2
#     Edge 76, Type (0, 1), BuildingBlock: CIFDUS_clean_linker_0, # of connection points: 2
#     Edge 77, Type (0, 1), BuildingBlock: CIFDUS_clean_linker_0, # of connection points: 2
#     Edge 78, Type (0, 1), BuildingBlock: CIFDUS_clean_linker_0, # of connection points: 2
#     Edge 79, Type (0, 1), BuildingBlock: CIFDUS_clean_linker_0, # of connection points: 2
#     Edge 80, Type (0, 1), BuildingBlock: CIFDUS_clean_linker_0, # of connection points: 2
#     Edge 81, Type (0, 1), BuildingBlock: CIFDUS_clean_linker_0, # of connection points: 2
#     Edge 82, Type (0, 1), BuildingBlock: CIFDUS_clean_linker_0, # of connection points: 2
#     Edge 83, Type (0, 1), BuildingBlock: CIFDUS_clean_linker_0, # of connection points: 2
#     Edge 84, Type (0, 1), BuildingBlock: CIFDUS_clean_linker_0, # of connection points: 2
#     Edge 85, Type (0, 1), BuildingBlock: CIFDUS_clean_linker_0, # of connection points: 2
#     Edge 86, Type (0, 1), BuildingBlock: CIFDUS_clean_linker_0, # of connection points: 2
#     Edge 87, Type (0, 1), BuildingBlock: CIFDUS_clean_linker_0, # of connection points: 2
#     Edge 88, Type (0, 1), BuildingBlock: CIFDUS_clean_linker_0, # of connection points: 2
#     Edge 89, Type (0, 1), BuildingBlock: CIFDUS_clean_linker_0, # of connection points: 2
#     Edge 90, Type (0, 1), BuildingBlock: CIFDUS_clean_linker_0, # of connection points: 2
#     Edge 91, Type (0, 1), BuildingBlock: CIFDUS_clean_linker_0, # of connection points: 2
#     Edge 92, Type (0, 1), BuildingBlock: CIFDUS_clean_linker_0, # of connection points: 2
#     Edge 93, Type (0, 1), BuildingBlock: CIFDUS_clean_linker_0, # of connection points: 2
#     Edge 94, Type (0, 1), BuildingBlock: CIFDUS_clean_linker_0, # of connection points: 2
#     Edge 95, Type (0, 1), BuildingBlock: CIFDUS_clean_linker_0, # of connection points: 2
#     Edge 96, Type (0, 1), BuildingBlock: CIFDUS_clean_linker_0, # of connection points: 2
#     Edge 97, Type (0, 1), BuildingBlock: CIFDUS_clean_linker_0, # of connection points: 2
#     Edge 98, Type (0, 1), BuildingBlock: CIFDUS_clean_linker_0, # of connection points: 2
#     Edge 99, Type (0, 1), BuildingBlock: CIFDUS_clean_linker_0, # of connection points: 2
#     Edge 100, Type (0, 1), BuildingBlock: CIFDUS_clean_linker_0, # of connection points: 2
#     Edge 101, Type (0, 1), BuildingBlock: CIFDUS_clean_linker_0, # of connection points: 2
#     Edge 102, Type (0, 1), BuildingBlock: CIFDUS_clean_linker_0, # of connection points: 2
#     Edge 103, Type (0, 1), BuildingBlock: CIFDUS_clean_linker_0, # of connection points: 2
#     Edge 104, Type (0, 1), BuildingBlock: CIFDUS_clean_linker_0, # of connection points: 2
#     Edge 105, Type (0, 1), BuildingBlock: CIFDUS_clean_linker_0, # of connection points: 2
#     Edge 106, Type (0, 1), BuildingBlock: CIFDUS_clean_linker_0, # of connection points: 2
#     Edge 107, Type (0, 1), BuildingBlock: CIFDUS_clean_linker_0, # of connection points: 2
#     Edge 108, Type (0, 1), BuildingBlock: CIFDUS_clean_linker_0, # of connection points: 2
#     Edge 109, Type (0, 1), BuildingBlock: CIFDUS_clean_linker_0, # of connection points: 2
#     Edge 110, Type (0, 1), BuildingBlock: CIFDUS_clean_linker_0, # of connection points: 2
#     Edge 111, Type (0, 1), BuildingBlock: CIFDUS_clean_linker_0, # of connection points: 2
#     Edge 112, Type (0, 1), BuildingBlock: CIFDUS_clean_linker_0, # of connection points: 2
#     Edge 113, Type (0, 1), BuildingBlock: CIFDUS_clean_linker_0, # of connection points: 2
#     Edge 114, Type (0, 1), BuildingBlock: CIFDUS_clean_linker_0, # of connection points: 2
#     Edge 115, Type (0, 1), BuildingBlock: CIFDUS_clean_linker_0, # of connection points: 2
#     Edge 116, Type (0, 1), BuildingBlock: CIFDUS_clean_linker_0, # of connection points: 2
#     Edge 117, Type (0, 1), BuildingBlock: CIFDUS_clean_linker_0, # of connection points: 2
#     Edge 118, Type (0, 1), BuildingBlock: CIFDUS_clean_linker_0, # of connection points: 2
#     Edge 119, Type (0, 1), BuildingBlock: CIFDUS_clean_linker_0, # of connection points: 2
#     Edge 120, Type (0, 1), BuildingBlock: CIFDUS_clean_linker_0, # of connection points: 2
#     Edge 121, Type (0, 1), BuildingBlock: CIFDUS_clean_linker_0, # of connection points: 2
#     Edge 122, Type (0, 1), BuildingBlock: CIFDUS_clean_linker_0, # of connection points: 2
#     Edge 123, Type (0, 1), BuildingBlock: CIFDUS_clean_linker_0, # of connection points: 2
#     Edge 124, Type (0, 1), BuildingBlock: CIFDUS_clean_linker_0, # of connection points: 2
#     Edge 125, Type (0, 1), BuildingBlock: CIFDUS_clean_linker_0, # of connection points: 2
#     Edge 126, Type (0, 1), BuildingBlock: CIFDUS_clean_linker_0, # of connection points: 2
#     Edge 127, Type (0, 1), BuildingBlock: CIFDUS_clean_linker_0, # of connection points: 2
#     Edge 128, Type (0, 1), BuildingBlock: CIFDUS_clean_linker_0, # of connection points: 2
#     Edge 129, Type (0, 1), BuildingBlock: CIFDUS_clean_linker_0, # of connection points: 2
#     Edge 130, Type (0, 1), BuildingBlock: CIFDUS_clean_linker_0, # of connection points: 2
#     Edge 131, Type (0, 1), BuildingBlock: CIFDUS_clean_linker_0, # of connection points: 2
#     Edge 132, Type (0, 1), BuildingBlock: CIFDUS_clean_linker_0, # of connection points: 2
#     Edge 133, Type (0, 1), BuildingBlock: CIFDUS_clean_linker_0, # of connection points: 2
#     Edge 134, Type (0, 1), BuildingBlock: CIFDUS_clean_linker_0, # of connection points: 2
#     Edge 135, Type (0, 1), BuildingBlock: CIFDUS_clean_linker_0, # of connection points: 2
#     Edge 136, Type (0, 1), BuildingBlock: CIFDUS_clean_linker_0, # of connection points: 2
#     Edge 137, Type (0, 1), BuildingBlock: CIFDUS_clean_linker_0, # of connection points: 2
#     Edge 138, Type (0, 1), BuildingBlock: CIFDUS_clean_linker_0, # of connection points: 2
#     Edge 139, Type (0, 1), BuildingBlock: CIFDUS_clean_linker_0, # of connection points: 2
#     Edge 140, Type (0, 1), BuildingBlock: CIFDUS_clean_linker_0, # of connection points: 2
#     Edge 141, Type (0, 1), BuildingBlock: CIFDUS_clean_linker_0, # of connection points: 2
#     Edge 142, Type (0, 1), BuildingBlock: CIFDUS_clean_linker_0, # of connection points: 2
#     Edge 143, Type (0, 1), BuildingBlock: CIFDUS_clean_linker_0, # of connection points: 2
#     Edge 144, Type (0, 1), BuildingBlock: CIFDUS_clean_linker_0, # of connection points: 2
#     Edge 145, Type (0, 1), BuildingBlock: CIFDUS_clean_linker_0, # of connection points: 2
#     Edge 146, Type (0, 1), BuildingBlock: CIFDUS_clean_linker_0, # of connection points: 2
#     Edge 147, Type (0, 1), BuildingBlock: CIFDUS_clean_linker_0, # of connection points: 2
#     Edge 148, Type (0, 1), BuildingBlock: CIFDUS_clean_linker_0, # of connection points: 2
#     Edge 149, Type (0, 1), BuildingBlock: CIFDUS_clean_linker_0, # of connection points: 2
#     Edge 150, Type (0, 1), BuildingBlock: CIFDUS_clean_linker_0, # of connection points: 2
#     Edge 151, Type (0, 1), BuildingBlock: CIFDUS_clean_linker_0, # of connection points: 2
# Relax obj value: 0.002
# Max RMSD: 0.119
# Mean RMSD: 0.048
data_MOF--net-tbo--node1-ESEHIV_clean_sbu_0--node2-VETTIZ_charged_linker_0--edge1-CIFDUS_clean_linker_0
_symmetry_space_group_name_H-M    P1
_symmetry_Int_Tables_number       1
_symmetry_cell_setting            triclinic
loop_
_symmetry_equiv_pos_as_xyz
'x, y, z'
_cell_length_a     81.392865
_cell_length_b     81.365602
_cell_length_c     81.352928
_cell_angle_alpha  90.105784
_cell_angle_beta   91.911625
_cell_angle_gamma 90.731186
loop_
_atom_site_label
_atom_site_type_symbol
_atom_site_fract_x
_atom_site_fract_y
_atom_site_fract_z
_atom_type_partial_charge
C0 C 0.19852 0.2046 0.13771 0.0
C1 C 0.21179 0.20006 0.12807 0.0
C2 C 0.22002 0.1853 0.13175 0.0
C3 C 0.20184 0.17986 0.1542 0.0
C4 C 0.19387 0.19443 0.15075 0.0
C5 C 0.18049 0.1977 0.16265 0.0
H6 H 0.13705 0.17285 0.22819 0.0
C7 C 0.194 0.17208 0.16846 0.0
C8 C 0.1815 0.18254 0.17353 0.0
H9 H 0.13249 0.21839 0.20118 0.0
H10 H 0.15387 0.20997 0.18323 0.0
H11 H 0.14007 0.14993 0.19773 0.0
H12 H 0.17701 0.17271 0.22948 0.0
H13 H 0.18286 0.15225 0.22625 0.0
H14 H 0.16373 0.15633 0.23592 0.0
H15 H 0.14543 0.14169 0.2176 0.0
H16 H 0.15617 0.13586 0.19945 0.0
C17 C 0.16392 0.19844 0.1528 0.0
C18 C 0.18507 0.21363 0.17232 0.0
C19 C 0.21255 0.11558 0.18846 0.0
C20 C 0.20644 0.10484 0.20039 0.0
C21 C 0.19343 0.10995 0.21007 0.0
C22 C 0.18643 0.12546 0.20787 0.0
C23 C 0.19236 0.13599 0.19569 0.0
C24 C 0.2052 0.13102 0.1862 0.0
C25 C 0.20928 0.14362 0.17335 0.0
C26 C 0.19679 0.15689 0.1767 0.0
C27 C 0.18701 0.15237 0.18989 0.0
C28 C 0.20628 0.13561 0.1562 0.0
C29 C 0.22715 0.14978 0.17683 0.0
C30 C 0.14074 0.18113 0.21854 0.0
C31 C 0.13298 0.19636 0.21621 0.0
C32 C 0.13804 0.20651 0.2032 0.0
C33 C 0.15059 0.20165 0.19284 0.0
C34 C 0.15828 0.18645 0.19545 0.0
C35 C 0.15329 0.17649 0.20814 0.0
C36 C 0.16279 0.16077 0.20915 0.0
C37 C 0.1745 0.16302 0.19516 0.0
C38 C 0.17178 0.17805 0.18709 0.0
C39 C 0.15058 0.14622 0.20595 0.0
C40 C 0.17205 0.16031 0.22609 0.0
H41 H 0.22188 0.16412 0.14679 0.0
H42 H 0.19212 0.21599 0.13536 0.0
H43 H 0.19862 0.21487 0.17429 0.0
H44 H 0.18017 0.21375 0.18481 0.0
H45 H 0.18076 0.2247 0.16556 0.0
H46 H 0.1632 0.18867 0.14321 0.0
H47 H 0.16251 0.21048 0.14652 0.0
H48 H 0.15319 0.19625 0.16047 0.0
H49 H 0.2224 0.11183 0.1807 0.0
H50 H 0.18856 0.10181 0.21931 0.0
H51 H 0.17652 0.12854 0.21562 0.0
H52 H 0.19532 0.1273 0.15614 0.0
H53 H 0.21698 0.12817 0.15271 0.0
H54 H 0.20358 0.14462 0.14639 0.0
H55 H 0.22998 0.15045 0.19029 0.0
H56 H 0.22935 0.16238 0.17231 0.0
H57 H 0.23615 0.14138 0.17138 0.0
H58 H 0.2302 0.18147 0.12447 0.0
C59 C 0.21512 0.1752 0.1447 0.0
C60 C 0.83961 0.14514 0.21283 0.0
C61 C 0.82497 0.1377 0.20657 0.0
C62 C 0.81689 0.1449 0.19278 0.0
C63 C 0.83785 0.16642 0.19189 0.0
C64 C 0.84577 0.15936 0.20536 0.0
C65 C 0.86122 0.1686 0.21054 0.0
H66 H 0.9156 0.23066 0.19761 0.0
C67 C 0.84742 0.18126 0.18725 0.0
C68 C 0.8611 0.1826 0.19822 0.0
H69 H 0.91853 0.19224 0.2342 0.0
H70 H 0.89207 0.18162 0.22501 0.0
H71 H 0.87907 0.23948 0.20311 0.0
H72 H 0.90039 0.20768 0.16768 0.0
H73 H 0.88615 0.22058 0.15743 0.0
H74 H 0.90342 0.22958 0.16858 0.0
H75 H 0.88633 0.24734 0.18407 0.0
H76 H 0.86548 0.2398 0.1859 0.0
C77 C 0.8593 0.17489 0.22835 0.0
C78 C 0.87597 0.15702 0.20833 0.0
C79 C 0.8295 0.21604 0.1377 0.0
C80 C 0.83547 0.23104 0.13132 0.0
C81 C 0.84876 0.23901 0.13981 0.0
C82 C 0.85641 0.23194 0.15367 0.0
C83 C 0.85069 0.21678 0.15948 0.0
C84 C 0.83713 0.2093 0.15187 0.0
C85 C 0.83196 0.19394 0.16083 0.0
C86 C 0.84504 0.19321 0.17464 0.0
C87 C 0.85612 0.20652 0.17354 0.0
C88 C 0.81459 0.19668 0.16747 0.0
C89 C 0.83303 0.17918 0.14892 0.0
C90 C 0.91046 0.22005 0.20372 0.0
C91 C 0.91935 0.21214 0.21648 0.0
C92 C 0.91215 0.19836 0.2241 0.0
C93 C 0.89673 0.19221 0.21877 0.0
C94 C 0.88826 0.19986 0.20561 0.0
C95 C 0.89503 0.21368 0.19847 0.0
C96 C 0.88419 0.2202 0.1847 0.0
C97 C 0.87009 0.20772 0.18446 0.0
C98 C 0.87254 0.19584 0.19673 0.0
C99 C 0.8785 0.23764 0.18954 0.0
C100 C 0.89397 0.21961 0.1687 0.0
H101 H 0.81657 0.16393 0.17493 0.0
H102 H 0.84608 0.14013 0.2235 0.0
H103 H 0.87373 0.14865 0.19763 0.0
H104 H 0.88746 0.16367 0.20557 0.0
H105 H 0.87812 0.14925 0.21938 0.0
H106 H 0.84645 0.17879 0.23029 0.0
H107 H 0.86227 0.16512 0.23746 0.0
H108 H 0.86696 0.18588 0.23126 0.0
H109 H 0.81926 0.20952 0.13176 0.0
H110 H 0.85329 0.25087 0.13585 0.0
H111 H 0.86655 0.2386 0.15934 0.0
H112 H 0.81291 0.20977 0.17095 0.0
H113 H 0.80488 0.19344 0.15805 0.0
H114 H 0.81238 0.18971 0.17883 0.0
H115 H 0.84448 0.18 0.14185 0.0
H116 H 0.83354 0.16725 0.15531 0.0
H117 H 0.82244 0.17895 0.13995 0.0
H118 H 0.80573 0.13937 0.18753 0.0
C119 C 0.82324 0.15915 0.18543 0.0
C120 C 0.88436 0.84419 0.20531 0.0
C121 C 0.89376 0.83055 0.20101 0.0
C122 C 0.88937 0.82186 0.18644 0.0
C123 C 0.86685 0.84058 0.1807 0.0
C124 C 0.87105 0.84891 0.19508 0.0
C125 C 0.85993 0.86313 0.19805 0.0
H126 H 0.79557 0.91033 0.17414 0.0
C127 C 0.85242 0.84883 0.17288 0.0
C128 C 0.8483 0.862 0.1831 0.0
H129 H 0.82802 0.91569 0.21701 0.0
H130 H 0.84277 0.89164 0.20928 0.0
H131 H 0.79195 0.86997 0.1756 0.0
H132 H 0.8242 0.90233 0.14952 0.0
H133 H 0.81839 0.88624 0.13609 0.0
H134 H 0.80289 0.8997 0.14363 0.0
H135 H 0.78492 0.88231 0.15856 0.0
H136 H 0.79351 0.86224 0.15552 0.0
C137 C 0.85092 0.85983 0.21424 0.0
C138 C 0.8705 0.87914 0.19806 0.0
C139 C 0.82917 0.82978 0.1168 0.0
C140 C 0.81644 0.83575 0.10639 0.0
C141 C 0.80663 0.84861 0.11212 0.0
C142 C 0.80975 0.85582 0.12757 0.0
C143 C 0.82292 0.85025 0.13755 0.0
C144 C 0.83223 0.83725 0.13227 0.0
C145 C 0.84573 0.83305 0.14466 0.0
C146 C 0.84317 0.84588 0.15796 0.0
C147 C 0.82976 0.85595 0.1537 0.0
C148 C 0.84251 0.81539 0.15092 0.0
C149 C 0.86244 0.83543 0.13639 0.0
C150 C 0.80578 0.90616 0.18187 0.0
C151 C 0.81069 0.91495 0.19619 0.0
C152 C 0.82412 0.90925 0.20585 0.0
C153 C 0.83267 0.89523 0.20135 0.0
C154 C 0.82791 0.88673 0.18689 0.0
C155 C 0.81467 0.89218 0.17739 0.0
C156 C 0.8119 0.88181 0.16211 0.0
C157 C 0.82555 0.86923 0.16415 0.0
C158 C 0.83481 0.8722 0.17873 0.0
C159 C 0.79464 0.87368 0.1628 0.0
C160 C 0.81433 0.893 0.14696 0.0
H161 H 0.8734 0.81976 0.16531 0.0
H162 H 0.88718 0.85101 0.21652 0.0
H163 H 0.88094 0.87806 0.18965 0.0
H164 H 0.86362 0.8899 0.19344 0.0
H165 H 0.87576 0.88193 0.21055 0.0
H166 H 0.84808 0.8465 0.21564 0.0
H167 H 0.8586 0.86375 0.22513 0.0
H168 H 0.83887 0.86589 0.21463 0.0
H169 H 0.83693 0.81993 0.11278 0.0
H170 H 0.79655 0.85324 0.1045 0.0
H171 H 0.80192 0.86565 0.13104 0.0
H172 H 0.82909 0.81291 0.15187 0.0
H173 H 0.84744 0.80611 0.14243 0.0
H174 H 0.84772 0.81331 0.16344 0.0
H175 H 0.86236 0.84669 0.12863 0.0
H176 H 0.87281 0.83723 0.1453 0.0
H177 H 0.86511 0.82482 0.12834 0.0
H178 H 0.89646 0.81139 0.18273 0.0
C179 C 0.87601 0.8268 0.17628 0.0
C180 C 0.18419 0.88032 0.19948 0.0
C181 C 0.1761 0.88848 0.21215 0.0
C182 C 0.16177 0.88116 0.21836 0.0
C183 C 0.1636 0.85831 0.19932 0.0
C184 C 0.17772 0.86534 0.19325 0.0
C185 C 0.18453 0.8552 0.17956 0.0
H186 H 0.1778 0.78783 0.13007 0.0
C187 C 0.16004 0.8428 0.1902 0.0
C188 C 0.17231 0.84088 0.17859 0.0
H189 H 0.21481 0.82636 0.12924 0.0
H190 H 0.2024 0.8398 0.15222 0.0
H191 H 0.17827 0.78351 0.16796 0.0
H192 H 0.14684 0.8119 0.13575 0.0
H193 H 0.13433 0.80152 0.14969 0.0
H194 H 0.14676 0.78984 0.13613 0.0
H195 H 0.16133 0.77426 0.15655 0.0
H196 H 0.15886 0.78306 0.17672 0.0
C197 C 0.20196 0.84956 0.18503 0.0
C198 C 0.18399 0.86566 0.16368 0.0
C199 C 0.10955 0.80793 0.20328 0.0
C200 C 0.10364 0.79257 0.19744 0.0
C201 C 0.1125 0.78424 0.18549 0.0
C202 C 0.12684 0.7912 0.17922 0.0
C203 C 0.13255 0.80661 0.18504 0.0
C204 C 0.12407 0.8146 0.19706 0.0
C205 C 0.1325 0.83045 0.20239 0.0
C206 C 0.14724 0.83078 0.19136 0.0
C207 C 0.14705 0.81688 0.18111 0.0
C208 C 0.13774 0.8289 0.22081 0.0
C209 C 0.12062 0.84474 0.19851 0.0
C210 C 0.18315 0.79926 0.1347 0.0
C211 C 0.19725 0.80607 0.12769 0.0
C212 C 0.20401 0.82077 0.13443 0.0
C213 C 0.19672 0.82862 0.14773 0.0
C214 C 0.1825 0.82172 0.15444 0.0
C215 C 0.17605 0.80721 0.14795 0.0
C216 C 0.16106 0.80144 0.15666 0.0
C217 C 0.15934 0.815 0.16929 0.0
C218 C 0.17191 0.8269 0.16799 0.0
C219 C 0.16491 0.78465 0.16484 0.0
C220 C 0.14642 0.80101 0.14398 0.0
H221 H 0.14456 0.86139 0.21733 0.0
H222 H 0.19513 0.88562 0.1943 0.0
H223 H 0.17267 0.87318 0.16294 0.0
H224 H 0.1835 0.85814 0.15236 0.0
H225 H 0.19473 0.8742 0.16334 0.0
H226 H 0.20237 0.8462 0.19829 0.0
H227 H 0.21121 0.8595 0.18327 0.0
H228 H 0.20583 0.83843 0.17852 0.0
H229 H 0.10314 0.81446 0.21269 0.0
H230 H 0.10818 0.77242 0.18083 0.0
H231 H 0.13291 0.78429 0.17002 0.0
H232 H 0.14098 0.81601 0.22396 0.0
H233 H 0.12767 0.8326 0.22887 0.0
H234 H 0.14893 0.83616 0.22413 0.0
H235 H 0.11407 0.84274 0.18643 0.0
H236 H 0.12697 0.85672 0.1974 0.0
H237 H 0.11119 0.84571 0.20802 0.0
H238 H 0.1554 0.88697 0.22825 0.0
C239 C 0.15551 0.86621 0.21205 0.0
C240 C 0.22379 0.82487 0.89588 0.0
C241 C 0.21701 0.81215 0.90516 0.0
C242 C 0.20089 0.80655 0.9012 0.0
C243 C 0.19889 0.82603 0.87855 0.0
C244 C 0.21455 0.83167 0.88287 0.0
C245 C 0.22 0.8457 0.87239 0.0
H246 H 0.20482 0.90046 0.81194 0.0
C247 C 0.19284 0.83587 0.86426 0.0
C248 C 0.20518 0.84749 0.86081 0.0
H249 H 0.24826 0.89575 0.84369 0.0
H250 H 0.23631 0.87242 0.85677 0.0
H251 H 0.17792 0.89247 0.83967 0.0
H252 H 0.20121 0.86161 0.80451 0.0
H253 H 0.18084 0.85453 0.80581 0.0
H254 H 0.18483 0.87513 0.79859 0.0
H255 H 0.17377 0.8938 0.8179 0.0
H256 H 0.1628 0.87945 0.83046 0.0
C257 C 0.22271 0.86098 0.88368 0.0
C258 C 0.23541 0.84023 0.86317 0.0
C259 C 0.13688 0.82353 0.83604 0.0
C260 C 0.12826 0.83105 0.82282 0.0
C261 C 0.13582 0.84428 0.81465 0.0
C262 C 0.15143 0.85017 0.81966 0.0
C263 C 0.15975 0.84285 0.83307 0.0
C264 C 0.15255 0.82969 0.84101 0.0
C265 C 0.16326 0.82375 0.85525 0.0
C266 C 0.17809 0.8353 0.8543 0.0
C267 C 0.17589 0.84653 0.84128 0.0
C268 C 0.15391 0.82626 0.87131 0.0
C269 C 0.16783 0.8057 0.8519 0.0
C270 C 0.21176 0.89434 0.82168 0.0
C271 C 0.22744 0.9003 0.82698 0.0
C272 C 0.23601 0.89185 0.83965 0.0
C273 C 0.22906 0.87813 0.84719 0.0
C274 C 0.21332 0.87256 0.84207 0.0
C275 C 0.20497 0.88047 0.82939 0.0
C276 C 0.18849 0.87236 0.82547 0.0
C277 C 0.18827 0.85859 0.83816 0.0
C278 C 0.20284 0.8589 0.84782 0.0
C279 C 0.17494 0.88512 0.82838 0.0
C280 C 0.18867 0.86561 0.80765 0.0
H281 H 0.17968 0.80849 0.88529 0.0
H282 H 0.23605 0.82961 0.89882 0.0
H283 H 0.23468 0.82691 0.86009 0.0
H284 H 0.23667 0.84643 0.85119 0.0
H285 H 0.24682 0.84233 0.8708 0.0
H286 H 0.21441 0.86062 0.89427 0.0
H287 H 0.23554 0.86166 0.88876 0.0
H288 H 0.21975 0.87266 0.87741 0.0
H289 H 0.13136 0.81344 0.84265 0.0
H290 H 0.12955 0.85017 0.80433 0.0
H291 H 0.15635 0.86034 0.81297 0.0
H292 H 0.14654 0.83768 0.87068 0.0
H293 H 0.14534 0.81582 0.87348 0.0
H294 H 0.16222 0.8279 0.8822 0.0
H295 H 0.17149 0.80416 0.83894 0.0
H296 H 0.17839 0.80155 0.85957 0.0
H297 H 0.15721 0.79733 0.85394 0.0
H298 H 0.19544 0.79673 0.90825 0.0
C299 C 0.19182 0.81335 0.88786 0.0
C300 C 0.14668 0.17944 0.82357 0.0
C301 C 0.13861 0.19399 0.82762 0.0
C302 C 0.14514 0.20377 0.84067 0.0
C303 C 0.16736 0.1845 0.84532 0.0
C304 C 0.16097 0.17501 0.83247 0.0
C305 C 0.17118 0.16014 0.82936 0.0
H306 H 0.2389 0.11546 0.84641 0.0
C307 C 0.18246 0.17644 0.85185 0.0
C308 C 0.18477 0.16222 0.84247 0.0
H309 H 0.19971 0.10572 0.81023 0.0
H310 H 0.18583 0.12995 0.81875 0.0
H311 H 0.24079 0.1554 0.84201 0.0
H312 H 0.21398 0.12487 0.87555 0.0
H313 H 0.22222 0.1419 0.88646 0.0
H314 H 0.23591 0.12746 0.87737 0.0
H315 H 0.25086 0.14342 0.85781 0.0
H316 H 0.24309 0.16355 0.86206 0.0
C317 C 0.17781 0.16158 0.81176 0.0
C318 C 0.16044 0.14461 0.83233 0.0
C319 C 0.21492 0.20204 0.90004 0.0
C320 C 0.22966 0.19801 0.90859 0.0
C321 C 0.23782 0.18356 0.90406 0.0
C322 C 0.23161 0.1736 0.89102 0.0
C323 C 0.21703 0.17805 0.88242 0.0
C324 C 0.20893 0.19205 0.88709 0.0
C325 C 0.19373 0.19513 0.87657 0.0
C326 C 0.19388 0.18062 0.86487 0.0
C327 C 0.20756 0.17061 0.86826 0.0
C328 C 0.19608 0.2117 0.86751 0.0
C329 C 0.1787 0.19449 0.88774 0.0
C330 C 0.22726 0.11844 0.84038 0.0
C331 C 0.22057 0.1086 0.8274 0.0
C332 C 0.20544 0.11316 0.81992 0.0
C333 C 0.19727 0.12723 0.82501 0.0
C334 C 0.20415 0.13694 0.83785 0.0
C335 C 0.21881 0.13242 0.84545 0.0
C336 C 0.22389 0.14397 0.85932 0.0
C337 C 0.21 0.15632 0.85853 0.0
C338 C 0.19856 0.15212 0.84583 0.0
C339 C 0.24059 0.152 0.85524 0.0
C340 C 0.22417 0.13413 0.87558 0.0
H341 H 0.1637 0.20701 0.8594 0.0
H342 H 0.14214 0.17176 0.81347 0.0
H343 H 0.15134 0.14689 0.84196 0.0
H344 H 0.16766 0.1341 0.83704 0.0
H345 H 0.15348 0.14082 0.82094 0.0
H346 H 0.1808 0.17459 0.80876 0.0
H347 H 0.16855 0.15707 0.80241 0.0
H348 H 0.18941 0.15497 0.8102 0.0
H349 H 0.20812 0.21285 0.90331 0.0
H350 H 0.24923 0.18018 0.91032 0.0
H351 H 0.2385 0.16291 0.88802 0.0
H352 H 0.2092 0.21383 0.86462 0.0
H353 H 0.19217 0.22219 0.87515 0.0
H354 H 0.18943 0.2121 0.85546 0.0
H355 H 0.18004 0.18449 0.89699 0.0
H356 H 0.16705 0.1917 0.88091 0.0
H357 H 0.17742 0.20624 0.89452 0.0
H358 H 0.13908 0.21498 0.84412 0.0
C359 C 0.1594 0.19908 0.84957 0.0
C360 C 0.8326 0.15862 0.83207 0.0
C361 C 0.83622 0.15118 0.81705 0.0
C362 C 0.85054 0.15628 0.80905 0.0
C363 C 0.85676 0.17639 0.83067 0.0
C364 C 0.84289 0.17107 0.83856 0.0
C365 C 0.8403 0.18017 0.85427 0.0
H366 H 0.86265 0.2398 0.90843 0.0
C367 C 0.86445 0.18991 0.84072 0.0
C368 C 0.85477 0.19207 0.85453 0.0
H369 H 0.8221 0.20499 0.9105 0.0
H370 H 0.82995 0.19288 0.88512 0.0
H371 H 0.85908 0.24722 0.86965 0.0
H372 H 0.88919 0.21293 0.89694 0.0
H373 H 0.90129 0.2216 0.88163 0.0
H374 H 0.89324 0.23467 0.8973 0.0
H375 H 0.87659 0.25366 0.88215 0.0
H376 H 0.87859 0.2474 0.86104 0.0
C377 C 0.82364 0.18917 0.85254 0.0
C378 C 0.84151 0.16767 0.86865 0.0
C379 C 0.91661 0.21934 0.82264 0.0
C380 C 0.92617 0.23243 0.82944 0.0
C381 C 0.92113 0.23979 0.84412 0.0
C382 C 0.90702 0.23419 0.85195 0.0
C383 C 0.89771 0.22106 0.84509 0.0
C384 C 0.90249 0.2139 0.83062 0.0
C385 C 0.89092 0.2002 0.82505 0.0
C386 C 0.87856 0.20018 0.83867 0.0
C387 C 0.88264 0.21245 0.8504 0.0
C388 C 0.88293 0.20504 0.80826 0.0
C389 C 0.90069 0.18403 0.82467 0.0
C390 C 0.85553 0.2295 0.90345 0.0
C391 C 0.84157 0.22352 0.91147 0.0
C392 C 0.83266 0.21013 0.90446 0.0
C393 C 0.83733 0.20299 0.88972 0.0
C394 C 0.85116 0.20917 0.88177 0.0
C395 C 0.86009 0.22214 0.88867 0.0
C396 C 0.87458 0.22681 0.87849 0.0
C397 C 0.87277 0.21455 0.86436 0.0
C398 C 0.85899 0.20433 0.86639 0.0
C399 C 0.87227 0.24474 0.87255 0.0
C400 C 0.89048 0.22401 0.88906 0.0
H401 H 0.87144 0.17232 0.80903 0.0
H402 H 0.82193 0.15479 0.83877 0.0
H403 H 0.84995 0.15747 0.86582 0.0
H404 H 0.84679 0.17315 0.88013 0.0
H405 H 0.82931 0.16211 0.87113 0.0
H406 H 0.8214 0.19357 0.83972 0.0
H407 H 0.81324 0.18088 0.85559 0.0
H408 H 0.82316 0.20037 0.86018 0.0
H409 H 0.91998 0.21352 0.81128 0.0
H410 H 0.9283 0.24972 0.84977 0.0
H411 H 0.90396 0.24028 0.86313 0.0
H412 H 0.87992 0.21834 0.80808 0.0
H413 H 0.89138 0.20269 0.79809 0.0
H414 H 0.87115 0.19857 0.80557 0.0
H415 H 0.9094 0.18331 0.83548 0.0
H416 H 0.89276 0.17298 0.82542 0.0
H417 H 0.90797 0.18325 0.81339 0.0
H418 H 0.85363 0.15076 0.79744 0.0
C419 C 0.86081 0.16886 0.81575 0.0
C420 C 0.83242 0.84798 0.88136 0.0
C421 C 0.81854 0.85532 0.88813 0.0
C422 C 0.8114 0.86886 0.87991 0.0
C423 C 0.83201 0.86798 0.85911 0.0
C424 C 0.83894 0.85453 0.86689 0.0
C425 C 0.85377 0.84851 0.85806 0.0
H426 H 0.90544 0.85746 0.79444 0.0
C427 C 0.84169 0.87195 0.84452 0.0
C428 C 0.85446 0.86052 0.84374 0.0
H429 H 0.90818 0.82129 0.83327 0.0
H430 H 0.88369 0.83237 0.845 0.0
H431 H 0.89727 0.88777 0.81795 0.0
H432 H 0.86736 0.85504 0.78772 0.0
H433 H 0.8583 0.87444 0.78598 0.0
H434 H 0.87898 0.87164 0.77917 0.0
H435 H 0.8967 0.88857 0.79589 0.0
H436 H 0.88231 0.89978 0.80783 0.0
C437 C 0.86898 0.85027 0.86987 0.0
C438 C 0.85017 0.83071 0.85214 0.0
C439 C 0.82671 0.92159 0.80919 0.0
C440 C 0.83325 0.92823 0.79479 0.0
C441 C 0.84638 0.92016 0.78749 0.0
C442 C 0.85312 0.90595 0.79458 0.0
C443 C 0.84666 0.89965 0.80915 0.0
C444 C 0.83351 0.90731 0.81607 0.0
C445 C 0.82792 0.89855 0.83124 0.0
C446 C 0.84012 0.88456 0.83248 0.0
C447 C 0.85112 0.88537 0.81958 0.0
C448 C 0.82996 0.91058 0.84597 0.0
C449 C 0.81007 0.8922 0.82787 0.0
C450 C 0.90094 0.852 0.80559 0.0
C451 C 0.90892 0.83854 0.81296 0.0
C452 C 0.90227 0.83161 0.82724 0.0
C453 C 0.88808 0.83812 0.8341 0.0
C454 C 0.88039 0.85173 0.82663 0.0
C455 C 0.88688 0.85836 0.81258 0.0
C456 C 0.87733 0.8728 0.80622 0.0
C457 C 0.86401 0.87385 0.81874 0.0
C458 C 0.86577 0.86149 0.83073 0.0
C459 C 0.88892 0.88808 0.80684 0.0
C460 C 0.87016 0.86843 0.78882 0.0
H461 H 0.81198 0.88554 0.86002 0.0
H462 H 0.83828 0.83761 0.88734 0.0
H463 H 0.83725 0.82941 0.84737 0.0
H464 H 0.85783 0.82702 0.84186 0.0
H465 H 0.85194 0.82182 0.86238 0.0
H466 H 0.86846 0.86186 0.87711 0.0
H467 H 0.86961 0.83989 0.87872 0.0
H468 H 0.88065 0.85106 0.86338 0.0
H469 H 0.81642 0.92734 0.81494 0.0
H470 H 0.85167 0.92504 0.77645 0.0
H471 H 0.86321 0.90052 0.7885 0.0
H472 H 0.8416 0.91782 0.8452 0.0
H473 H 0.81966 0.9194 0.8461 0.0
H474 H 0.83085 0.90431 0.85797 0.0
H475 H 0.80776 0.88943 0.81458 0.0
H476 H 0.80748 0.88046 0.83416 0.0
H477 H 0.80096 0.90146 0.83149 0.0
H478 H 0.80053 0.87456 0.88456 0.0
C479 C 0.81802 0.87519 0.86554 0.0
C480 C 0.20427 0.64291 0.69537 0.0
C481 C 0.21636 0.6334 0.68781 0.0
C482 C 0.22069 0.63747 0.67164 0.0
C483 C 0.20247 0.66075 0.67143 0.0
C484 C 0.19742 0.65642 0.68689 0.0
C485 C 0.18415 0.6677 0.6927 0.0
H486 H 0.13722 0.73533 0.67839 0.0
C487 C 0.19365 0.6757 0.66617 0.0
C488 C 0.18269 0.67982 0.67844 0.0
H489 H 0.1351 0.70193 0.71956 0.0
H490 H 0.15707 0.686 0.70847 0.0
H491 H 0.14068 0.70743 0.65024 0.0
H492 H 0.1761 0.73725 0.6777 0.0
H493 H 0.18315 0.73564 0.65763 0.0
H494 H 0.16378 0.74545 0.66103 0.0
H495 H 0.14266 0.72926 0.64754 0.0
H496 H 0.15512 0.71514 0.63648 0.0
C497 C 0.16821 0.65738 0.69452 0.0
C498 C 0.19043 0.67619 0.70877 0.0
C499 C 0.2107 0.7046 0.61417 0.0
C500 C 0.20653 0.7197 0.60686 0.0
C501 C 0.19365 0.72881 0.61342 0.0
C502 C 0.18561 0.72328 0.62746 0.0
C503 C 0.19052 0.70849 0.63506 0.0
C504 C 0.20276 0.69938 0.62823 0.0
C505 C 0.20686 0.68428 0.63806 0.0
C506 C 0.19526 0.68591 0.65216 0.0
C507 C 0.18566 0.70004 0.65033 0.0
C508 C 0.20267 0.66897 0.62723 0.0
C509 C 0.22515 0.68574 0.64396 0.0
C510 C 0.1413 0.72447 0.68494 0.0
C511 C 0.13426 0.71988 0.69984 0.0
C512 C 0.14034 0.70586 0.70813 0.0
C513 C 0.15302 0.69652 0.7016 0.0
C514 C 0.15976 0.70121 0.6866 0.0
C515 C 0.15389 0.71503 0.67858 0.0
C516 C 0.16255 0.71837 0.66289 0.0
C517 C 0.17424 0.70403 0.66249 0.0
C518 C 0.17269 0.694 0.67647 0.0
C519 C 0.14966 0.71765 0.64845 0.0
C520 C 0.17182 0.73507 0.66473 0.0
H521 H 0.21798 0.65345 0.65136 0.0
H522 H 0.2004 0.64009 0.70766 0.0
H523 H 0.20342 0.68036 0.70768 0.0
H524 H 0.18349 0.6873 0.71171 0.0
H525 H 0.18993 0.66759 0.71934 0.0
H526 H 0.16712 0.64767 0.68488 0.0
H527 H 0.16808 0.65121 0.70668 0.0
H528 H 0.15697 0.66472 0.69283 0.0
H529 H 0.2203 0.69711 0.60927 0.0
H530 H 0.19019 0.74049 0.60804 0.0
H531 H 0.17611 0.73089 0.63206 0.0
H532 H 0.19283 0.67162 0.61782 0.0
H533 H 0.21358 0.66479 0.62061 0.0
H534 H 0.19769 0.65861 0.63441 0.0
H535 H 0.22829 0.6986 0.64771 0.0
H536 H 0.22816 0.67826 0.65491 0.0
H537 H 0.23346 0.68228 0.634 0.0
H538 H 0.22933 0.6301 0.6651 0.0
C539 C 0.21391 0.65103 0.66352 0.0
C540 C 0.85043 0.64136 0.70849 0.0
C541 C 0.83656 0.63244 0.70259 0.0
C542 C 0.82771 0.63835 0.68864 0.0
C543 C 0.84667 0.66154 0.68673 0.0
C544 C 0.8552 0.65577 0.70047 0.0
C545 C 0.86958 0.66663 0.7054 0.0
H546 H 0.91713 0.73373 0.69255 0.0
C547 C 0.85496 0.67688 0.68138 0.0
C548 C 0.86836 0.6799 0.69236 0.0
H549 H 0.92229 0.69694 0.73067 0.0
H550 H 0.89816 0.68286 0.72004 0.0
H551 H 0.87747 0.73674 0.69382 0.0
H552 H 0.90774 0.70749 0.66288 0.0
H553 H 0.89207 0.71637 0.65055 0.0
H554 H 0.90686 0.72947 0.66131 0.0
H555 H 0.88936 0.7457 0.67785 0.0
H556 H 0.86902 0.73732 0.67365 0.0
C557 C 0.86664 0.67351 0.72284 0.0
C558 C 0.88546 0.65643 0.70401 0.0
C559 C 0.83424 0.70674 0.62976 0.0
C560 C 0.83977 0.72089 0.62153 0.0
C561 C 0.8531 0.72999 0.62868 0.0
C562 C 0.8611 0.72488 0.6433 0.0
C563 C 0.85581 0.71046 0.65106 0.0
C564 C 0.84244 0.70176 0.64441 0.0
C565 C 0.83849 0.68678 0.65447 0.0
C566 C 0.8518 0.68781 0.66804 0.0
C567 C 0.86199 0.70172 0.66598 0.0
C568 C 0.82109 0.68884 0.66127 0.0
C569 C 0.84038 0.6714 0.64349 0.0
C570 C 0.91311 0.72259 0.69855 0.0
C571 C 0.92171 0.71658 0.71263 0.0
C572 C 0.91584 0.7021 0.72007 0.0
C573 C 0.90183 0.69381 0.71375 0.0
C574 C 0.89343 0.69991 0.69972 0.0
C575 C 0.89904 0.71408 0.69234 0.0
C576 C 0.88843 0.71859 0.67745 0.0
C577 C 0.87559 0.70476 0.67718 0.0
C578 C 0.87868 0.69389 0.69027 0.0
C579 C 0.88069 0.73552 0.68069 0.0
C580 C 0.89925 0.7181 0.66218 0.0
H581 H 0.82551 0.65661 0.67009 0.0
H582 H 0.85735 0.63735 0.71933 0.0
H583 H 0.88426 0.64747 0.69367 0.0
H584 H 0.89635 0.66401 0.70117 0.0
H585 H 0.88809 0.64936 0.71544 0.0
H586 H 0.85331 0.67542 0.72469 0.0
H587 H 0.87116 0.66492 0.73252 0.0
H588 H 0.87237 0.68574 0.72499 0.0
H589 H 0.82409 0.69942 0.62467 0.0
H590 H 0.85744 0.74113 0.62288 0.0
H591 H 0.87122 0.73232 0.64792 0.0
H592 H 0.8188 0.70192 0.66435 0.0
H593 H 0.81145 0.68483 0.65209 0.0
H594 H 0.81938 0.68211 0.67287 0.0
H595 H 0.85119 0.67281 0.63558 0.0
H596 H 0.84265 0.66008 0.65062 0.0
H597 H 0.82934 0.66944 0.63529 0.0
H598 H 0.81703 0.63167 0.68376 0.0
C599 C 0.8327 0.65281 0.68068 0.0
C600 C 0.91171 0.33855 0.70222 0.0
C601 C 0.9201 0.32507 0.6957 0.0
C602 C 0.91404 0.31788 0.6809 0.0
C603 C 0.8915 0.33703 0.67958 0.0
C604 C 0.8975 0.34434 0.69393 0.0
C605 C 0.8869 0.35841 0.69908 0.0
H606 H 0.81724 0.40283 0.68755 0.0
C607 C 0.87623 0.34543 0.67434 0.0
C608 C 0.87343 0.35806 0.68559 0.0
H609 H 0.85557 0.40849 0.7253 0.0
H610 H 0.87098 0.38689 0.71314 0.0
H611 H 0.81692 0.36312 0.68745 0.0
H612 H 0.84286 0.39719 0.65657 0.0
H613 H 0.83371 0.38149 0.64429 0.0
H614 H 0.82085 0.39504 0.6556 0.0
H615 H 0.80639 0.37565 0.67242 0.0
H616 H 0.8152 0.35628 0.66693 0.0
C617 C 0.88008 0.35424 0.71614 0.0
C618 C 0.89736 0.37444 0.69867 0.0
C619 C 0.84387 0.32313 0.62493 0.0
C620 C 0.82863 0.3269 0.61739 0.0
C621 C 0.81986 0.34041 0.62335 0.0
C622 C 0.82604 0.34968 0.6369 0.0
C623 C 0.84114 0.34539 0.64457 0.0
C624 C 0.84977 0.33235 0.63841 0.0
C625 C 0.86538 0.32911 0.64805 0.0
C626 C 0.86482 0.34232 0.66113 0.0
C627 C 0.85065 0.35191 0.65912 0.0
C628 C 0.86409 0.31156 0.65543 0.0
C629 C 0.87996 0.33184 0.63651 0.0
C630 C 0.82904 0.39949 0.69303 0.0
C631 C 0.83509 0.40726 0.70753 0.0
C632 C 0.85049 0.40252 0.71432 0.0
C633 C 0.85947 0.38996 0.70722 0.0
C634 C 0.85304 0.38188 0.69315 0.0
C635 C 0.83819 0.38679 0.6861 0.0
C636 C 0.8334 0.37659 0.67113 0.0
C637 C 0.8478 0.36486 0.67044 0.0
C638 C 0.85921 0.36798 0.68349 0.0
C639 C 0.81707 0.36746 0.67449 0.0
C640 C 0.83252 0.3881 0.65603 0.0
H641 H 0.89595 0.31761 0.66171 0.0
H642 H 0.91611 0.34447 0.71349 0.0
H643 H 0.90669 0.37384 0.689 0.0
H644 H 0.88998 0.38535 0.69544 0.0
H645 H 0.90403 0.37664 0.71062 0.0
H646 H 0.87643 0.34104 0.71675 0.0
H647 H 0.8895 0.35662 0.72609 0.0
H648 H 0.86887 0.36106 0.7189 0.0
H649 H 0.85113 0.31308 0.62051 0.0
H650 H 0.80805 0.34358 0.6178 0.0
H651 H 0.81874 0.35969 0.641 0.0
H652 H 0.85114 0.30829 0.65814 0.0
H653 H 0.86855 0.30217 0.64678 0.0
H654 H 0.87079 0.31031 0.66738 0.0
H655 H 0.87723 0.34171 0.62741 0.0
H656 H 0.89132 0.33609 0.64313 0.0
H657 H 0.88259 0.32049 0.62952 0.0
H658 H 0.92002 0.30735 0.6757 0.0
C659 C 0.89991 0.32379 0.67282 0.0
C660 C 0.20976 0.41559 0.71232 0.0
C661 C 0.20336 0.42426 0.72561 0.0
C662 C 0.18884 0.41837 0.73265 0.0
C663 C 0.18782 0.39517 0.71373 0.0
C664 C 0.20181 0.40123 0.70658 0.0
C665 C 0.20697 0.39075 0.69244 0.0
H666 H 0.1951 0.32356 0.64397 0.0
C667 C 0.18289 0.37973 0.70506 0.0
C668 C 0.19402 0.37715 0.69251 0.0
H669 H 0.23227 0.36183 0.6408 0.0
H670 H 0.22136 0.37553 0.6641 0.0
H671 H 0.19805 0.3204 0.68363 0.0
H672 H 0.16443 0.34785 0.65247 0.0
H673 H 0.15328 0.33735 0.66752 0.0
H674 H 0.16459 0.32578 0.65291 0.0
H675 H 0.18162 0.31052 0.67197 0.0
H676 H 0.17852 0.31907 0.6921 0.0
C677 C 0.22439 0.38417 0.69666 0.0
C678 C 0.20574 0.40123 0.67654 0.0
C679 C 0.13436 0.34608 0.72499 0.0
C680 C 0.12767 0.33065 0.72047 0.0
C681 C 0.1345 0.32209 0.70727 0.0
C682 C 0.14775 0.32875 0.69876 0.0
C683 C 0.15445 0.34411 0.70354 0.0
C684 C 0.14778 0.35246 0.71652 0.0
C685 C 0.1569 0.36825 0.72042 0.0
C686 C 0.17008 0.36807 0.70764 0.0
C687 C 0.16855 0.35395 0.69765 0.0
C688 C 0.16432 0.36703 0.73817 0.0
C689 C 0.14487 0.38267 0.71767 0.0
C690 C 0.20092 0.33485 0.64834 0.0
C691 C 0.2145 0.34167 0.64025 0.0
C692 C 0.22161 0.35644 0.64643 0.0
C693 C 0.2153 0.36437 0.66011 0.0
C694 C 0.20169 0.35755 0.66792 0.0
C695 C 0.19472 0.343 0.66208 0.0
C696 C 0.18036 0.3376 0.67216 0.0
C697 C 0.1797 0.35148 0.68473 0.0
C698 C 0.19231 0.36307 0.68218 0.0
C699 C 0.18469 0.32098 0.68036 0.0
C700 C 0.16479 0.33698 0.66074 0.0
H701 H 0.17015 0.39994 0.73282 0.0
H702 H 0.2207 0.41998 0.7064 0.0
H703 H 0.19584 0.4105 0.67726 0.0
H704 H 0.20233 0.39386 0.6655 0.0
H705 H 0.21743 0.40798 0.67446 0.0
H706 H 0.22564 0.38095 0.70993 0.0
H707 H 0.23399 0.39355 0.69407 0.0
H708 H 0.22714 0.37273 0.69004 0.0
H709 H 0.12955 0.35286 0.7352 0.0
H710 H 0.1295 0.31022 0.70349 0.0
H711 H 0.15235 0.32164 0.68883 0.0
H712 H 0.16858 0.35433 0.74081 0.0
H713 H 0.15508 0.37016 0.74738 0.0
H714 H 0.17533 0.37489 0.74027 0.0
H715 H 0.13624 0.38012 0.70705 0.0
H716 H 0.15116 0.39429 0.71452 0.0
H717 H 0.1374 0.38467 0.72866 0.0
H718 H 0.18367 0.42482 0.74289 0.0
C719 C 0.18107 0.40387 0.72682 0.0
C720 C 0.2098 0.3363 0.41603 0.0
C721 C 0.20258 0.32292 0.42422 0.0
C722 C 0.18928 0.31446 0.41637 0.0
C723 C 0.19013 0.33321 0.39309 0.0
C724 C 0.2034 0.34122 0.40065 0.0
C725 C 0.20947 0.35549 0.39069 0.0
H726 H 0.20223 0.40409 0.32336 0.0
C727 C 0.18626 0.34183 0.37738 0.0
C728 C 0.19758 0.35487 0.37592 0.0
H729 H 0.2377 0.40763 0.36402 0.0
H730 H 0.22577 0.38376 0.37651 0.0
H731 H 0.17093 0.39561 0.34553 0.0
H732 H 0.20339 0.36354 0.31995 0.0
H733 H 0.183 0.35664 0.31644 0.0
H734 H 0.18908 0.37669 0.30927 0.0
H735 H 0.17077 0.39431 0.32349 0.0
H736 H 0.15906 0.38011 0.33558 0.0
C737 C 0.20756 0.37139 0.40097 0.0
C738 C 0.22733 0.35189 0.38584 0.0
C739 C 0.1386 0.32164 0.34058 0.0
C740 C 0.13204 0.32658 0.32517 0.0
C741 C 0.1388 0.34062 0.31766 0.0
C742 C 0.15218 0.34924 0.32517 0.0
C743 C 0.15885 0.34381 0.34039 0.0
C744 C 0.15192 0.33028 0.34786 0.0
C745 C 0.16049 0.32609 0.36394 0.0
C746 C 0.17385 0.33923 0.3649 0.0
C747 C 0.17289 0.34964 0.3511 0.0
C748 C 0.14803 0.328 0.37778 0.0
C749 C 0.16769 0.30863 0.36246 0.0
C750 C 0.20747 0.3996 0.33488 0.0
C751 C 0.22089 0.40788 0.34276 0.0
C752 C 0.22725 0.40168 0.35781 0.0
C753 C 0.22032 0.38774 0.36504 0.0
C754 C 0.20676 0.37978 0.35724 0.0
C755 C 0.20057 0.38566 0.34238 0.0
C756 C 0.18596 0.37559 0.33607 0.0
C757 C 0.18445 0.36281 0.34961 0.0
C758 C 0.19671 0.36536 0.36196 0.0
C759 C 0.17083 0.38692 0.33496 0.0
C760 C 0.19042 0.36772 0.3195 0.0
H761 H 0.17272 0.31272 0.39567 0.0
H762 H 0.22023 0.34292 0.42152 0.0
H763 H 0.22899 0.33852 0.38359 0.0
H764 H 0.23069 0.35786 0.37422 0.0
H765 H 0.23631 0.35569 0.39575 0.0
H766 H 0.19644 0.37062 0.40855 0.0
H767 H 0.21835 0.37346 0.40947 0.0
H768 H 0.2057 0.38244 0.39331 0.0
H769 H 0.13354 0.3111 0.34688 0.0
H770 H 0.13404 0.34467 0.30578 0.0
H771 H 0.15693 0.35968 0.31874 0.0
H772 H 0.13983 0.33862 0.37531 0.0
H773 H 0.14013 0.31684 0.37877 0.0
H774 H 0.15398 0.33065 0.3899 0.0
H775 H 0.17208 0.30642 0.34985 0.0
H776 H 0.17859 0.30674 0.37065 0.0
H777 H 0.1583 0.29904 0.36502 0.0
H778 H 0.18344 0.30417 0.42238 0.0
C779 C 0.183 0.31954 0.40089 0.0
C780 C 0.20106 0.61299 0.31076 0.0
C781 C 0.19251 0.6059 0.29723 0.0
C782 C 0.17894 0.61417 0.29013 0.0
C783 C 0.18223 0.63598 0.31061 0.0
C784 C 0.19586 0.62797 0.31711 0.0
C785 C 0.20383 0.63699 0.33144 0.0
H786 H 0.20619 0.70224 0.38291 0.0
C787 C 0.17993 0.65111 0.32055 0.0
C788 C 0.19276 0.65174 0.33263 0.0
H789 H 0.23853 0.6604 0.3832 0.0
H790 H 0.22362 0.64903 0.35972 0.0
H791 H 0.17454 0.6816 0.37934 0.0
H792 H 0.20282 0.70697 0.34361 0.0
H793 H 0.18204 0.71062 0.33847 0.0
H794 H 0.19043 0.71715 0.35826 0.0
H795 H 0.17225 0.70317 0.37568 0.0
H796 H 0.16005 0.68798 0.36438 0.0
C797 C 0.20294 0.62583 0.34683 0.0
C798 C 0.22149 0.64201 0.32674 0.0
C799 C 0.12949 0.68765 0.31172 0.0
C800 C 0.12428 0.70178 0.32012 0.0
C801 C 0.13481 0.70884 0.33235 0.0
C802 C 0.14988 0.70177 0.33666 0.0
C803 C 0.15463 0.68734 0.32876 0.0
C804 C 0.14471 0.68058 0.31632 0.0
C805 C 0.15216 0.66521 0.30935 0.0
C806 C 0.16776 0.66361 0.32015 0.0
C807 C 0.16904 0.6767 0.33144 0.0
C808 C 0.14007 0.65068 0.31178 0.0
C809 C 0.15609 0.66849 0.29118 0.0
C810 C 0.21005 0.69056 0.37807 0.0
C811 C 0.22371 0.68233 0.38504 0.0
C812 C 0.2283 0.66725 0.37801 0.0
C813 C 0.21951 0.66056 0.36439 0.0
C814 C 0.20582 0.6689 0.35771 0.0
C815 C 0.20127 0.68359 0.36463 0.0
C816 C 0.18596 0.69036 0.35651 0.0
C817 C 0.1822 0.67745 0.34335 0.0
C818 C 0.19391 0.66498 0.34403 0.0
C819 C 0.17246 0.69097 0.36956 0.0
C820 C 0.19038 0.70722 0.34887 0.0
H821 H 0.16314 0.63482 0.29106 0.0
H822 H 0.21157 0.60688 0.3164 0.0
H823 H 0.2218 0.64563 0.31357 0.0
H824 H 0.22632 0.65285 0.33359 0.0
H825 H 0.23012 0.63166 0.32864 0.0
H826 H 0.19158 0.61806 0.34636 0.0
H827 H 0.21361 0.61747 0.34775 0.0
H828 H 0.20224 0.63287 0.35841 0.0
H829 H 0.1217 0.68198 0.3022 0.0
H830 H 0.13131 0.7199 0.33873 0.0
H831 H 0.15714 0.70776 0.34618 0.0
H832 H 0.13532 0.65085 0.32445 0.0
H833 H 0.12937 0.65142 0.30297 0.0
H834 H 0.14583 0.6386 0.31034 0.0
H835 H 0.16069 0.6813 0.28957 0.0
H836 H 0.16595 0.66059 0.28676 0.0
H837 H 0.14495 0.66681 0.28306 0.0
H838 H 0.17216 0.60883 0.27971 0.0
C839 C 0.17371 0.62918 0.29678 0.0
C840 C 0.80988 0.63344 0.33321 0.0
C841 C 0.8147 0.62519 0.31893 0.0
C842 C 0.82978 0.62954 0.31202 0.0
C843 C 0.83464 0.65058 0.33274 0.0
C844 C 0.82002 0.64618 0.33985 0.0
C845 C 0.81666 0.65697 0.35448 0.0
H846 H 0.84175 0.7197 0.40547 0.0
C847 C 0.84206 0.66462 0.34202 0.0
C848 C 0.83162 0.66849 0.35487 0.0
H849 H 0.79692 0.69069 0.40744 0.0
H850 H 0.80472 0.67527 0.38365 0.0
H851 H 0.83928 0.72502 0.36648 0.0
H852 H 0.86569 0.69025 0.39677 0.0
H853 H 0.87898 0.69705 0.38153 0.0
H854 H 0.87128 0.71165 0.39598 0.0
H855 H 0.85743 0.73069 0.37837 0.0
H856 H 0.85854 0.7225 0.35781 0.0
C857 C 0.80051 0.66631 0.3508 0.0
C858 C 0.81626 0.64594 0.36993 0.0
C859 C 0.89642 0.68939 0.32387 0.0
C860 C 0.90656 0.70222 0.33017 0.0
C861 C 0.90136 0.7111 0.34395 0.0
C862 C 0.8866 0.70714 0.35151 0.0
C863 C 0.87675 0.69411 0.34529 0.0
C864 C 0.88167 0.68554 0.33164 0.0
C865 C 0.86966 0.67202 0.32683 0.0
C866 C 0.85676 0.6739 0.33981 0.0
C867 C 0.86097 0.68687 0.35059 0.0
C868 C 0.86262 0.67582 0.30932 0.0
C869 C 0.87869 0.6554 0.32841 0.0
C870 C 0.83345 0.71018 0.40075 0.0
C871 C 0.81869 0.70647 0.40863 0.0
C872 C 0.80852 0.69372 0.40197 0.0
C873 C 0.81301 0.68479 0.38802 0.0
C874 C 0.82783 0.68862 0.38041 0.0
C875 C 0.83769 0.70124 0.38674 0.0
C876 C 0.85283 0.7039 0.37691 0.0
C877 C 0.85055 0.69073 0.36374 0.0
C878 C 0.83591 0.68169 0.36584 0.0
C879 C 0.85217 0.72145 0.36955 0.0
C880 C 0.86808 0.70069 0.38831 0.0
H881 H 0.85096 0.6448 0.31279 0.0
H882 H 0.79828 0.63043 0.33871 0.0
H883 H 0.8263 0.63679 0.36979 0.0
H884 H 0.81827 0.65288 0.38149 0.0
H885 H 0.80441 0.63907 0.37042 0.0
H886 H 0.7995 0.6699 0.33762 0.0
H887 H 0.78961 0.65854 0.35349 0.0
H888 H 0.79984 0.67797 0.35769 0.0
H889 H 0.90005 0.68224 0.31338 0.0
H890 H 0.90874 0.72123 0.34892 0.0
H891 H 0.88349 0.71435 0.36198 0.0
H892 H 0.86128 0.6893 0.30749 0.0
H893 H 0.87085 0.67125 0.29974 0.0
H894 H 0.85013 0.6707 0.30698 0.0
H895 H 0.88809 0.65578 0.33867 0.0
H896 H 0.87043 0.64506 0.33151 0.0
H897 H 0.8851 0.65239 0.31697 0.0
H898 H 0.83379 0.62329 0.3011 0.0
C899 C 0.83975 0.64208 0.31882 0.0
C900 C 0.82292 0.32049 0.39845 0.0
C901 C 0.8074 0.3262 0.40281 0.0
C902 C 0.80137 0.34066 0.39539 0.0
C903 C 0.82564 0.34265 0.37874 0.0
C904 C 0.83173 0.3288 0.38647 0.0
C905 C 0.84814 0.32389 0.38022 0.0
H906 H 0.90941 0.3349 0.32688 0.0
C907 C 0.83761 0.34781 0.3663 0.0
C908 C 0.85082 0.33686 0.36718 0.0
H909 H 0.90572 0.29878 0.36555 0.0
H910 H 0.87989 0.31 0.3733 0.0
H911 H 0.89725 0.36528 0.34866 0.0
H912 H 0.87046 0.33328 0.31467 0.0
H913 H 0.86433 0.35363 0.31092 0.0
H914 H 0.88542 0.34808 0.30813 0.0
H915 H 0.89952 0.36664 0.32682 0.0
H916 H 0.88344 0.37734 0.337 0.0
C917 C 0.86104 0.32533 0.39464 0.0
C918 C 0.84626 0.30643 0.37266 0.0
C919 C 0.82497 0.39645 0.32898 0.0
C920 C 0.83329 0.40388 0.31597 0.0
C921 C 0.84858 0.39747 0.31159 0.0
C922 C 0.85537 0.38389 0.31989 0.0
C923 C 0.84683 0.37656 0.33278 0.0
C924 C 0.83191 0.38291 0.33714 0.0
C925 C 0.82451 0.37357 0.35109 0.0
C926 C 0.83745 0.36061 0.35443 0.0
C927 C 0.85052 0.36236 0.34364 0.0
C928 C 0.82304 0.38547 0.36584 0.0
C929 C 0.80796 0.3659 0.34477 0.0
C930 C 0.90293 0.32936 0.33692 0.0
C931 C 0.90966 0.31591 0.34561 0.0
C932 C 0.90094 0.30923 0.35877 0.0
C933 C 0.88587 0.31573 0.36322 0.0
C934 C 0.8793 0.32915 0.35449 0.0
C935 C 0.88784 0.33584 0.34165 0.0
C936 C 0.87911 0.35042 0.33417 0.0
C937 C 0.86391 0.35126 0.34456 0.0
C938 C 0.86408 0.33867 0.35635 0.0
C939 C 0.89036 0.36578 0.33662 0.0
C940 C 0.87463 0.34631 0.31597 0.0
H941 H 0.80503 0.35969 0.37797 0.0
H942 H 0.82808 0.30961 0.40415 0.0
H943 H 0.83419 0.30499 0.36593 0.0
H944 H 0.8555 0.30377 0.36344 0.0
H945 H 0.84689 0.29685 0.38236 0.0
H946 H 0.85777 0.33517 0.40342 0.0
H947 H 0.86192 0.31366 0.40165 0.0
H948 H 0.87339 0.32893 0.39053 0.0
H949 H 0.81332 0.40114 0.33285 0.0
H950 H 0.8552 0.40278 0.30152 0.0
H951 H 0.86698 0.37957 0.31588 0.0
H952 H 0.83366 0.39422 0.36659 0.0
H953 H 0.81165 0.39281 0.36464 0.0
H954 H 0.82329 0.3791 0.37782 0.0
H955 H 0.80884 0.36156 0.33185 0.0
H956 H 0.80429 0.35492 0.35174 0.0
H957 H 0.79794 0.37502 0.34504 0.0
H958 H 0.78946 0.34532 0.39853 0.0
C959 C 0.81039 0.3489 0.38337 0.0
C960 C 0.69819 0.22051 0.62468 0.0
C961 C 0.71173 0.21661 0.61517 0.0
C962 C 0.71992 0.20168 0.61806 0.0
C963 C 0.70175 0.1951 0.64013 0.0
C964 C 0.6935 0.20963 0.63718 0.0
C965 C 0.68007 0.21216 0.64923 0.0
H966 H 0.64065 0.18609 0.71695 0.0
C967 C 0.69434 0.1868 0.6543 0.0
C968 C 0.68159 0.19674 0.65973 0.0
H969 H 0.63183 0.23033 0.68889 0.0
H970 H 0.65251 0.22251 0.66978 0.0
H971 H 0.64215 0.16273 0.68679 0.0
H972 H 0.68065 0.18701 0.71537 0.0
H973 H 0.68623 0.16637 0.71257 0.0
H974 H 0.66776 0.17092 0.72312 0.0
H975 H 0.64974 0.15443 0.70594 0.0
H976 H 0.65895 0.14945 0.68667 0.0
C977 C 0.66343 0.21264 0.63947 0.0
C978 C 0.68423 0.22796 0.65925 0.0
C979 C 0.71691 0.13195 0.67466 0.0
C980 C 0.71181 0.12099 0.68688 0.0
C981 C 0.69841 0.12517 0.6965 0.0
C982 C 0.69019 0.14003 0.69408 0.0
C983 C 0.69529 0.15086 0.68176 0.0
C984 C 0.70834 0.14669 0.67218 0.0
C985 C 0.7114 0.15938 0.65913 0.0
C986 C 0.69809 0.17181 0.66251 0.0
C987 C 0.68887 0.16683 0.67593 0.0
C988 C 0.70871 0.15103 0.64208 0.0
C989 C 0.72887 0.16671 0.66235 0.0
C990 C 0.64327 0.19416 0.70676 0.0
C991 C 0.63469 0.20893 0.70454 0.0
C992 C 0.6382 0.21886 0.69086 0.0
C993 C 0.6503 0.21435 0.67984 0.0
C994 C 0.659 0.19969 0.68244 0.0
C995 C 0.65524 0.18979 0.69562 0.0
C996 C 0.66532 0.17444 0.69627 0.0
C997 C 0.67611 0.17695 0.68159 0.0
C998 C 0.67242 0.19179 0.67353 0.0
C999 C 0.65353 0.15941 0.69392 0.0
C1000 C 0.67551 0.17451 0.7127 0.0
H1001 H 0.72186 0.17985 0.63201 0.0
H1002 H 0.6918 0.23199 0.62282 0.0
H1003 H 0.69769 0.22898 0.66202 0.0
H1004 H 0.67854 0.22812 0.67137 0.0
H1005 H 0.68047 0.23911 0.65231 0.0
H1006 H 0.66319 0.2036 0.62918 0.0
H1007 H 0.66129 0.225 0.63409 0.0
H1008 H 0.6529 0.20918 0.64699 0.0
H1009 H 0.72705 0.12892 0.66696 0.0
H1010 H 0.69432 0.11689 0.706 0.0
H1011 H 0.68014 0.14247 0.70187 0.0
H1012 H 0.69887 0.14143 0.64243 0.0
H1013 H 0.72009 0.145 0.63812 0.0
H1014 H 0.70444 0.15965 0.63242 0.0
H1015 H 0.73165 0.16799 0.67578 0.0
H1016 H 0.73033 0.17924 0.65739 0.0
H1017 H 0.73837 0.15869 0.65719 0.0
H1018 H 0.73033 0.19842 0.61082 0.0
C1019 C 0.71499 0.19092 0.63039 0.0
C1020 C 0.35846 0.14075 0.71073 0.0
C1021 C 0.34393 0.1318 0.70694 0.0
C1022 C 0.33274 0.13815 0.69501 0.0
C1023 C 0.35085 0.16166 0.69067 0.0
C1024 C 0.36165 0.15549 0.70252 0.0
C1025 C 0.37668 0.16618 0.70512 0.0
H1026 H 0.42151 0.23354 0.68557 0.0
C1027 C 0.35809 0.17717 0.68436 0.0
C1028 C 0.37323 0.17982 0.69285 0.0
H1029 H 0.43324 0.19557 0.721 0.0
H1030 H 0.40749 0.18189 0.71472 0.0
H1031 H 0.38261 0.23645 0.69481 0.0
H1032 H 0.40737 0.20933 0.65774 0.0
H1033 H 0.38908 0.21663 0.64852 0.0
H1034 H 0.40441 0.23111 0.65635 0.0
H1035 H 0.3914 0.24615 0.67729 0.0
H1036 H 0.37072 0.23787 0.67646 0.0
C1037 C 0.37698 0.17258 0.7231 0.0
C1038 C 0.39189 0.15602 0.70058 0.0
C1039 C 0.32791 0.21036 0.63971 0.0
C1040 C 0.33166 0.22539 0.63203 0.0
C1041 C 0.34679 0.23331 0.63608 0.0
C1042 C 0.35779 0.22672 0.6478 0.0
C1043 C 0.35376 0.21197 0.65569 0.0
C1044 C 0.3391 0.20394 0.65156 0.0
C1045 C 0.33695 0.18844 0.66144 0.0
C1046 C 0.35266 0.18859 0.67215 0.0
C1047 C 0.36246 0.20245 0.66869 0.0
C1048 C 0.32146 0.19023 0.67179 0.0
C1049 C 0.33623 0.17369 0.64939 0.0
C1050 C 0.41839 0.22236 0.69202 0.0
C1051 C 0.42949 0.21555 0.7037 0.0
C1052 C 0.42502 0.20093 0.71179 0.0
C1053 C 0.41 0.193 0.70814 0.0
C1054 C 0.39919 0.19964 0.69618 0.0
C1055 C 0.40337 0.21411 0.68838 0.0
C1056 C 0.39032 0.21906 0.67581 0.0
C1057 C 0.37775 0.20515 0.67738 0.0
C1058 C 0.38305 0.19387 0.68938 0.0
C1059 C 0.38339 0.2358 0.68119 0.0
C1060 C 0.3981 0.2192 0.65868 0.0
H1061 H 0.3272 0.15711 0.67782 0.0
H1062 H 0.36722 0.13642 0.72001 0.0
H1063 H 0.38875 0.14714 0.69049 0.0
H1064 H 0.40196 0.16364 0.69576 0.0
H1065 H 0.39665 0.14885 0.71128 0.0
H1066 H 0.3643 0.17474 0.72727 0.0
H1067 H 0.38278 0.16356 0.73165 0.0
H1068 H 0.38334 0.18458 0.72464 0.0
H1069 H 0.31638 0.20401 0.63692 0.0
H1070 H 0.35012 0.24474 0.63017 0.0
H1071 H 0.36899 0.23347 0.65034 0.0
H1072 H 0.32045 0.20302 0.67649 0.0
H1073 H 0.31011 0.18736 0.66432 0.0
H1074 H 0.32172 0.18242 0.68287 0.0
H1075 H 0.3452 0.17543 0.6395 0.0
H1076 H 0.33959 0.16197 0.65533 0.0
H1077 H 0.3238 0.17234 0.64343 0.0
H1078 H 0.3215 0.13148 0.69175 0.0
C1079 C 0.33613 0.153 0.68685 0.0
C1080 C 0.39955 0.836 0.70212 0.0
C1081 C 0.40586 0.82079 0.6972 0.0
C1082 C 0.39722 0.81151 0.68505 0.0
C1083 C 0.37674 0.83277 0.68227 0.0
C1084 C 0.38484 0.84162 0.69466 0.0
C1085 C 0.37596 0.85723 0.69863 0.0
H1086 H 0.31344 0.90984 0.68159 0.0
C1087 C 0.36219 0.84216 0.67666 0.0
C1088 C 0.3614 0.85636 0.68637 0.0
H1089 H 0.35216 0.91411 0.71907 0.0
H1090 H 0.36282 0.8879 0.71119 0.0
H1091 H 0.30568 0.87051 0.68715 0.0
H1092 H 0.33699 0.89569 0.65325 0.0
H1093 H 0.32538 0.88048 0.64253 0.0
H1094 H 0.31498 0.89717 0.65209 0.0
H1095 H 0.29744 0.88206 0.67006 0.0
H1096 H 0.30339 0.8609 0.66781 0.0
C1097 C 0.37045 0.85616 0.71666 0.0
C1098 C 0.38758 0.87193 0.69513 0.0
C1099 C 0.32979 0.82264 0.62598 0.0
C1100 C 0.31565 0.82823 0.61741 0.0
C1101 C 0.30759 0.84212 0.62362 0.0
C1102 C 0.31371 0.85037 0.6378 0.0
C1103 C 0.32803 0.84468 0.64599 0.0
C1104 C 0.33556 0.83081 0.64019 0.0
C1105 C 0.3501 0.82586 0.65077 0.0
C1106 C 0.35052 0.83942 0.66357 0.0
C1107 C 0.33768 0.85055 0.66069 0.0
C1108 C 0.3463 0.80879 0.65837 0.0
C1109 C 0.36549 0.82637 0.64004 0.0
C1110 C 0.32409 0.90498 0.68817 0.0
C1111 C 0.33204 0.91411 0.70089 0.0
C1112 C 0.34595 0.90742 0.7091 0.0
C1113 C 0.35213 0.89217 0.70452 0.0
C1114 C 0.34442 0.88341 0.69148 0.0
C1115 C 0.33056 0.88974 0.6836 0.0
C1116 C 0.32428 0.87872 0.66978 0.0
C1117 C 0.33659 0.8648 0.67076 0.0
C1118 C 0.3484 0.86767 0.68351 0.0
C1119 C 0.30672 0.87276 0.67373 0.0
C1120 C 0.32532 0.88844 0.6535 0.0
H1121 H 0.37701 0.8099 0.66813 0.0
H1122 H 0.40587 0.84328 0.71158 0.0
H1123 H 0.39436 0.86978 0.68368 0.0
H1124 H 0.38101 0.88355 0.69301 0.0
H1125 H 0.39683 0.87374 0.70535 0.0
H1126 H 0.36763 0.84323 0.72013 0.0
H1127 H 0.38022 0.86086 0.72536 0.0
H1128 H 0.35894 0.86282 0.71869 0.0
H1129 H 0.33656 0.81222 0.62164 0.0
H1130 H 0.29647 0.8466 0.61759 0.0
H1131 H 0.30708 0.86087 0.64184 0.0
H1132 H 0.33285 0.80627 0.6587 0.0
H1133 H 0.35178 0.79872 0.65121 0.0
H1134 H 0.35066 0.80792 0.67138 0.0
H1135 H 0.36545 0.83754 0.63216 0.0
H1136 H 0.37717 0.82703 0.6473 0.0
H1137 H 0.36578 0.81547 0.63183 0.0
H1138 H 0.40193 0.79982 0.68103 0.0
C1139 C 0.38277 0.81743 0.67753 0.0
C1140 C 0.69797 0.9113 0.70366 0.0
C1141 C 0.69034 0.91958 0.71651 0.0
C1142 C 0.67648 0.91229 0.72359 0.0
C1143 C 0.67795 0.88894 0.70514 0.0
C1144 C 0.69149 0.89611 0.69809 0.0
C1145 C 0.69752 0.88601 0.68402 0.0
H1146 H 0.6914 0.81745 0.63649 0.0
C1147 C 0.67417 0.87327 0.69643 0.0
C1148 C 0.6855 0.87151 0.68395 0.0
H1149 H 0.72482 0.859 0.63245 0.0
H1150 H 0.71277 0.87186 0.65553 0.0
H1151 H 0.69182 0.81569 0.67726 0.0
H1152 H 0.65916 0.84025 0.64253 0.0
H1153 H 0.6475 0.83068 0.65771 0.0
H1154 H 0.65945 0.81826 0.64429 0.0
H1155 H 0.67856 0.80459 0.66291 0.0
H1156 H 0.67119 0.81183 0.68221 0.0
C1157 C 0.7153 0.88067 0.68847 0.0
C1158 C 0.69578 0.89636 0.66807 0.0
C1159 C 0.6269 0.83763 0.71558 0.0
C1160 C 0.61982 0.82267 0.71011 0.0
C1161 C 0.6267 0.81468 0.69657 0.0
C1162 C 0.64037 0.82145 0.68869 0.0
C1163 C 0.64724 0.83649 0.69429 0.0
C1164 C 0.64041 0.84429 0.70752 0.0
C1165 C 0.64885 0.86035 0.71163 0.0
C1166 C 0.66198 0.86094 0.69882 0.0
C1167 C 0.66112 0.84693 0.68864 0.0
C1168 C 0.65641 0.85909 0.72931 0.0
C1169 C 0.63616 0.87429 0.70914 0.0
C1170 C 0.6961 0.82935 0.64049 0.0
C1171 C 0.70944 0.83694 0.63259 0.0
C1172 C 0.71501 0.85248 0.63842 0.0
C1173 C 0.70784 0.8601 0.65182 0.0
C1174 C 0.69471 0.85235 0.65959 0.0
C1175 C 0.68891 0.83729 0.65386 0.0
C1176 C 0.67439 0.83128 0.66343 0.0
C1177 C 0.6726 0.84514 0.67587 0.0
C1178 C 0.68465 0.85741 0.67354 0.0
C1179 C 0.67909 0.81492 0.67188 0.0
C1180 C 0.65927 0.8299 0.65144 0.0
H1181 H 0.65976 0.89219 0.72404 0.0
H1182 H 0.70851 0.91672 0.69782 0.0
H1183 H 0.68557 0.90527 0.66878 0.0
H1184 H 0.69255 0.8888 0.65709 0.0
H1185 H 0.70721 0.9035 0.66584 0.0
H1186 H 0.71643 0.87694 0.70161 0.0
H1187 H 0.72419 0.89091 0.68658 0.0
H1188 H 0.71917 0.86987 0.68143 0.0
H1189 H 0.6218 0.84426 0.72574 0.0
H1190 H 0.62157 0.80308 0.69214 0.0
H1191 H 0.64505 0.81475 0.67852 0.0
H1192 H 0.66158 0.84666 0.73154 0.0
H1193 H 0.64698 0.8612 0.73862 0.0
H1194 H 0.66682 0.86768 0.73167 0.0
H1195 H 0.62665 0.87098 0.69952 0.0
H1196 H 0.64176 0.88583 0.70467 0.0
H1197 H 0.62971 0.87684 0.72067 0.0
H1198 H 0.67046 0.91839 0.73356 0.0
C1199 C 0.67031 0.89704 0.71805 0.0
C1200 C 0.71062 0.83674 0.41082 0.0
C1201 C 0.704 0.82325 0.41937 0.0
C1202 C 0.69061 0.81448 0.412 0.0
C1203 C 0.69038 0.83294 0.38844 0.0
C1204 C 0.70366 0.84135 0.39553 0.0
C1205 C 0.70909 0.85564 0.38517 0.0
H1206 H 0.7002 0.90021 0.3151 0.0
C1207 C 0.68595 0.84111 0.3726 0.0
C1208 C 0.69694 0.8544 0.37062 0.0
H1209 H 0.7345 0.90885 0.35613 0.0
H1210 H 0.7237 0.88517 0.37002 0.0
H1211 H 0.66955 0.89377 0.33765 0.0
H1212 H 0.70255 0.86087 0.31424 0.0
H1213 H 0.68262 0.85249 0.31167 0.0
H1214 H 0.68724 0.87232 0.30295 0.0
H1215 H 0.66845 0.88992 0.31592 0.0
H1216 H 0.65764 0.87709 0.33016 0.0
C1217 C 0.70692 0.87167 0.39513 0.0
C1218 C 0.72693 0.85253 0.38004 0.0
C1219 C 0.6376 0.81968 0.33696 0.0
C1220 C 0.63095 0.82424 0.3214 0.0
C1221 C 0.6381 0.83771 0.31327 0.0
C1222 C 0.65163 0.84631 0.32035 0.0
C1223 C 0.65821 0.84146 0.33577 0.0
C1224 C 0.6512 0.82832 0.3438 0.0
C1225 C 0.66006 0.82463 0.35992 0.0
C1226 C 0.67344 0.83784 0.36034 0.0
C1227 C 0.67225 0.84768 0.34617 0.0
C1228 C 0.64785 0.82691 0.37391 0.0
C1229 C 0.66727 0.80714 0.35886 0.0
C1230 C 0.70536 0.89718 0.32713 0.0
C1231 C 0.7184 0.90656 0.33433 0.0
C1232 C 0.72474 0.90179 0.34998 0.0
C1233 C 0.71832 0.88806 0.35817 0.0
C1234 C 0.70526 0.87894 0.35081 0.0
C1235 C 0.69893 0.88365 0.33558 0.0
C1236 C 0.68464 0.87295 0.32987 0.0
C1237 C 0.68349 0.86097 0.3441 0.0
C1238 C 0.69568 0.86442 0.3563 0.0
C1239 C 0.66922 0.8839 0.32816 0.0
C1240 C 0.68934 0.86423 0.31378 0.0
H1241 H 0.67348 0.8122 0.39181 0.0
H1242 H 0.72105 0.84365 0.41592 0.0
H1243 H 0.72853 0.8394 0.37671 0.0
H1244 H 0.73035 0.85954 0.36905 0.0
H1245 H 0.73587 0.85553 0.39027 0.0
H1246 H 0.69619 0.87066 0.40321 0.0
H1247 H 0.71796 0.87442 0.40311 0.0
H1248 H 0.70427 0.88241 0.38724 0.0
H1249 H 0.63237 0.80955 0.34373 0.0
H1250 H 0.63348 0.84139 0.30121 0.0
H1251 H 0.65655 0.85634 0.31343 0.0
H1252 H 0.64003 0.83782 0.37154 0.0
H1253 H 0.63958 0.81601 0.37489 0.0
H1254 H 0.65401 0.82923 0.38598 0.0
H1255 H 0.67129 0.80448 0.34619 0.0
H1256 H 0.67841 0.80558 0.36679 0.0
H1257 H 0.658 0.79763 0.36204 0.0
H1258 H 0.68515 0.80415 0.41828 0.0
C1259 C 0.68377 0.81926 0.39664 0.0
C1260 C 0.6963 0.11692 0.31939 0.0
C1261 C 0.69016 0.10959 0.30476 0.0
C1262 C 0.67748 0.11747 0.2957 0.0
C1263 C 0.67668 0.13908 0.31647 0.0
C1264 C 0.6895 0.13153 0.32494 0.0
C1265 C 0.69472 0.14053 0.34039 0.0
H1266 H 0.68545 0.20324 0.3936 0.0
C1267 C 0.67217 0.15385 0.3261 0.0
C1268 C 0.68283 0.15471 0.34004 0.0
H1269 H 0.72062 0.16387 0.3962 0.0
H1270 H 0.70956 0.15269 0.37076 0.0
H1271 H 0.65466 0.18039 0.38179 0.0
H1272 H 0.68826 0.21009 0.35436 0.0
H1273 H 0.66842 0.21285 0.34569 0.0
H1274 H 0.67278 0.21889 0.36676 0.0
H1275 H 0.65409 0.20243 0.38189 0.0
H1276 H 0.64317 0.19046 0.36627 0.0
C1277 C 0.69194 0.12891 0.35518 0.0
C1278 C 0.71276 0.14648 0.3386 0.0
C1279 C 0.62388 0.18943 0.30754 0.0
C1280 C 0.617 0.2039 0.31383 0.0
C1281 C 0.624 0.2107 0.32847 0.0
C1282 C 0.63754 0.20336 0.33655 0.0
C1283 C 0.64429 0.18902 0.33 0.0
C1284 C 0.63748 0.18231 0.31569 0.0
C1285 C 0.6465 0.16723 0.31031 0.0
C1286 C 0.65971 0.16587 0.32386 0.0
C1287 C 0.65832 0.17867 0.33541 0.0
C1288 C 0.63437 0.15244 0.31027 0.0
C1289 C 0.65394 0.1708 0.2934 0.0
C1290 C 0.69081 0.19228 0.38858 0.0
C1291 C 0.7039 0.18438 0.39698 0.0
C1292 C 0.7104 0.17005 0.39012 0.0
C1293 C 0.704 0.16362 0.37525 0.0
C1294 C 0.69084 0.1715 0.36706 0.0
C1295 C 0.68443 0.18558 0.37372 0.0
C1296 C 0.67025 0.19205 0.36335 0.0
C1297 C 0.66931 0.17958 0.34936 0.0
C1298 C 0.68144 0.16763 0.35164 0.0
C1299 C 0.65468 0.19146 0.37379 0.0
C1300 C 0.675 0.20943 0.35724 0.0
H1301 H 0.66081 0.13744 0.29426 0.0
H1302 H 0.7062 0.11129 0.32651 0.0
H1303 H 0.71522 0.14966 0.3256 0.0
H1304 H 0.71569 0.15787 0.34557 0.0
H1305 H 0.72157 0.1368 0.34248 0.0
H1306 H 0.68107 0.1207 0.3528 0.0
H1307 H 0.70275 0.12096 0.35758 0.0
H1308 H 0.68914 0.13555 0.36658 0.0
H1309 H 0.61878 0.18366 0.29647 0.0
H1310 H 0.61923 0.22192 0.33352 0.0
H1311 H 0.64232 0.20923 0.34755 0.0
H1312 H 0.62679 0.1527 0.32139 0.0
H1313 H 0.62589 0.15274 0.29929 0.0
H1314 H 0.6406 0.14049 0.31061 0.0
H1315 H 0.65826 0.18379 0.29266 0.0
H1316 H 0.66491 0.16339 0.29114 0.0
H1317 H 0.64469 0.16869 0.28323 0.0
H1318 H 0.67257 0.11204 0.28437 0.0
C1319 C 0.67064 0.13215 0.30152 0.0
C1320 C 0.30568 0.12696 0.34836 0.0
C1321 C 0.30947 0.11761 0.33439 0.0
C1322 C 0.32291 0.12265 0.32502 0.0
C1323 C 0.32849 0.14575 0.34339 0.0
C1324 C 0.31529 0.14094 0.35258 0.0
C1325 C 0.31289 0.15235 0.36691 0.0
H1326 H 0.33977 0.21769 0.41297 0.0
C1327 C 0.33609 0.16064 0.35114 0.0
C1328 C 0.327 0.16459 0.36497 0.0
H1329 H 0.29613 0.18764 0.41926 0.0
H1330 H 0.30251 0.17168 0.39549 0.0
H1331 H 0.33343 0.22175 0.37413 0.0
H1332 H 0.36405 0.18875 0.40244 0.0
H1333 H 0.37542 0.19592 0.38584 0.0
H1334 H 0.36848 0.21036 0.40086 0.0
H1335 H 0.35239 0.22841 0.38403 0.0
H1336 H 0.35175 0.21967 0.36361 0.0
C1337 C 0.29591 0.16059 0.36452 0.0
C1338 C 0.31489 0.14227 0.38295 0.0
C1339 C 0.38616 0.18759 0.32584 0.0
C1340 C 0.39587 0.20149 0.33018 0.0
C1341 C 0.39233 0.21014 0.34467 0.0
C1342 C 0.37926 0.20529 0.35446 0.0
C1343 C 0.36948 0.1916 0.34979 0.0
C1344 C 0.37308 0.18293 0.33576 0.0
C1345 C 0.36138 0.16867 0.33274 0.0
C1346 C 0.35002 0.17039 0.3471 0.0
C1347 C 0.35483 0.18384 0.35707 0.0
C1348 C 0.35218 0.17141 0.316 0.0
C1349 C 0.3714 0.15261 0.33378 0.0
C1350 C 0.33145 0.2078 0.40923 0.0
C1351 C 0.31751 0.20393 0.41842 0.0
C1352 C 0.30721 0.19076 0.41289 0.0
C1353 C 0.31084 0.18152 0.39891 0.0
C1354 C 0.32486 0.18546 0.39004 0.0
C1355 C 0.33477 0.19856 0.39512 0.0
C1356 C 0.34873 0.20146 0.38372 0.0
C1357 C 0.3457 0.18781 0.37113 0.0
C1358 C 0.33177 0.17836 0.37497 0.0
C1359 C 0.34666 0.21874 0.37599 0.0
C1360 C 0.3651 0.19914 0.39364 0.0
H1361 H 0.34245 0.13965 0.32176 0.0
H1362 H 0.29534 0.12359 0.35575 0.0
H1363 H 0.3255 0.13384 0.38225 0.0
H1364 H 0.31751 0.14998 0.39392 0.0
H1365 H 0.30373 0.13466 0.38506 0.0
H1366 H 0.29263 0.1622 0.35124 0.0
H1367 H 0.28604 0.15304 0.37 0.0
H1368 H 0.29571 0.17314 0.36972 0.0
H1369 H 0.38842 0.1807 0.31476 0.0
H1370 H 0.39975 0.2207 0.34853 0.0
H1371 H 0.37724 0.21245 0.36528 0.0
H1372 H 0.34955 0.18467 0.31409 0.0
H1373 H 0.35964 0.16724 0.30563 0.0
H1374 H 0.34003 0.16521 0.31517 0.0
H1375 H 0.38164 0.15373 0.34314 0.0
H1376 H 0.36406 0.14193 0.33778 0.0
H1377 H 0.37688 0.14973 0.3218 0.0
H1378 H 0.32631 0.11561 0.31436 0.0
C1379 C 0.33239 0.13659 0.32941 0.0
C1380 C 0.33253 0.82761 0.3994 0.0
C1381 C 0.31793 0.83349 0.40593 0.0
C1382 C 0.30904 0.84558 0.39716 0.0
C1383 C 0.32965 0.84613 0.37616 0.0
C1384 C 0.33813 0.83407 0.38466 0.0
C1385 C 0.35359 0.82924 0.37641 0.0
H1386 H 0.40667 0.83859 0.31486 0.0
C1387 C 0.33914 0.85035 0.36145 0.0
C1388 C 0.35314 0.84049 0.36156 0.0
H1389 H 0.40916 0.80538 0.35632 0.0
H1390 H 0.38371 0.81559 0.36584 0.0
H1391 H 0.39357 0.87032 0.33552 0.0
H1392 H 0.36622 0.83349 0.30716 0.0
H1393 H 0.3589 0.85323 0.3022 0.0
H1394 H 0.37974 0.84806 0.29776 0.0
H1395 H 0.39468 0.869 0.31354 0.0
H1396 H 0.37835 0.87985 0.32309 0.0
C1397 C 0.36837 0.8333 0.38834 0.0
C1398 C 0.35187 0.81087 0.37141 0.0
C1399 C 0.3176 0.89386 0.32223 0.0
C1400 C 0.32305 0.9005 0.3074 0.0
C1401 C 0.33821 0.89527 0.30145 0.0
C1402 C 0.34747 0.88322 0.30991 0.0
C1403 C 0.34155 0.8764 0.32453 0.0
C1404 C 0.32689 0.88193 0.33047 0.0
C1405 C 0.32229 0.87355 0.3461 0.0
C1406 C 0.33648 0.86189 0.3486 0.0
C1407 C 0.34782 0.86351 0.33597 0.0
C1408 C 0.32196 0.8867 0.35989 0.0
C1409 C 0.30574 0.86424 0.3429 0.0
C1410 C 0.40161 0.83351 0.32593 0.0
C1411 C 0.4101 0.82126 0.33496 0.0
C1412 C 0.40311 0.81501 0.34931 0.0
C1413 C 0.38822 0.82092 0.3548 0.0
C1414 C 0.38003 0.8333 0.34591 0.0
C1415 C 0.38663 0.8394 0.33169 0.0
C1416 C 0.37599 0.85264 0.32405 0.0
C1417 C 0.36202 0.8534 0.33607 0.0
C1418 C 0.36457 0.84198 0.34881 0.0
C1419 C 0.38611 0.86885 0.32389 0.0
C1420 C 0.3699 0.8467 0.30682 0.0
H1421 H 0.3076 0.86126 0.37633 0.0
H1422 H 0.33952 0.81809 0.40563 0.0
H1423 H 0.33885 0.80753 0.36821 0.0
H1424 H 0.3586 0.80786 0.36024 0.0
H1425 H 0.35607 0.8027 0.38159 0.0
H1426 H 0.36596 0.84441 0.39584 0.0
H1427 H 0.37082 0.823 0.39699 0.0
H1428 H 0.37975 0.83636 0.38192 0.0
H1429 H 0.30618 0.89782 0.32734 0.0
H1430 H 0.34269 0.9002 0.29005 0.0
H1431 H 0.3588 0.87956 0.30468 0.0
H1432 H 0.33178 0.89615 0.35831 0.0
H1433 H 0.31 0.89313 0.35973 0.0
H1434 H 0.32443 0.8816 0.37228 0.0
H1435 H 0.30491 0.85918 0.33018 0.0
H1436 H 0.30427 0.85344 0.35095 0.0
H1437 H 0.29514 0.87252 0.34438 0.0
H1438 H 0.29778 0.85034 0.40193 0.0
C1439 C 0.31483 0.85195 0.38234 0.0
C1440 C 0.70676 0.6333 0.18502 0.0
C1441 C 0.72071 0.62767 0.17705 0.0
C1442 C 0.72617 0.63642 0.16323 0.0
C1443 C 0.70391 0.65582 0.16555 0.0
C1444 C 0.69863 0.64729 0.1791 0.0
C1445 C 0.68355 0.65466 0.18615 0.0
H1446 H 0.62501 0.71298 0.18413 0.0
C1447 C 0.69254 0.6697 0.16253 0.0
C1448 C 0.6806 0.66903 0.1746 0.0
H1449 H 0.63103 0.67268 0.2183 0.0
H1450 H 0.65487 0.66373 0.20422 0.0
H1451 H 0.6323 0.69212 0.15201 0.0
H1452 H 0.66418 0.72273 0.18273 0.0
H1453 H 0.66824 0.72705 0.16207 0.0
H1454 H 0.64808 0.73089 0.16964 0.0
H1455 H 0.63141 0.71414 0.15141 0.0
H1456 H 0.64542 0.70288 0.13901 0.0
C1457 C 0.66943 0.6417 0.18482 0.0
C1458 C 0.68802 0.66046 0.20393 0.0
C1459 C 0.70085 0.70852 0.11425 0.0
C1460 C 0.69197 0.72206 0.10809 0.0
C1461 C 0.67799 0.72713 0.11645 0.0
C1462 C 0.67289 0.71888 0.13057 0.0
C1463 C 0.68178 0.70529 0.13647 0.0
C1464 C 0.69552 0.70031 0.12833 0.0
C1465 C 0.70324 0.6854 0.1362 0.0
C1466 C 0.6919 0.68227 0.15037 0.0
C1467 C 0.67936 0.69401 0.1505 0.0
C1468 C 0.70244 0.6712 0.12349 0.0
C1469 C 0.72087 0.69019 0.14236 0.0
C1470 C 0.63156 0.70231 0.18863 0.0
C1471 C 0.62606 0.69351 0.20236 0.0
C1472 C 0.63484 0.67956 0.20766 0.0
C1473 C 0.64877 0.67442 0.1995 0.0
C1474 C 0.65409 0.68327 0.1858 0.0
C1475 C 0.64552 0.69694 0.18054 0.0
C1476 C 0.65286 0.70459 0.16554 0.0
C1477 C 0.66733 0.69335 0.16281 0.0
C1478 C 0.66796 0.68091 0.17475 0.0
C1479 C 0.63988 0.70355 0.1512 0.0
C1480 C 0.65859 0.7223 0.17007 0.0
H1481 H 0.72266 0.65652 0.14693 0.0
H1482 H 0.70204 0.6268 0.1955 0.0
H1483 H 0.70088 0.66527 0.20487 0.0
H1484 H 0.68043 0.67076 0.20799 0.0
H1485 H 0.687 0.65018 0.21281 0.0
H1486 H 0.67047 0.63398 0.17361 0.0
H1487 H 0.66968 0.63336 0.19561 0.0
H1488 H 0.65714 0.64726 0.1835 0.0
H1489 H 0.71153 0.70416 0.10803 0.0
H1490 H 0.67102 0.73762 0.11213 0.0
H1491 H 0.66217 0.7234 0.13633 0.0
H1492 H 0.69078 0.67155 0.11597 0.0
H1493 H 0.71278 0.67208 0.11494 0.0
H1494 H 0.70247 0.65893 0.12925 0.0
H1495 H 0.7212 0.70287 0.14749 0.0
H1496 H 0.72549 0.68231 0.15248 0.0
H1497 H 0.7296 0.6898 0.13216 0.0
H1498 H 0.73697 0.6325 0.15695 0.0
C1499 C 0.71788 0.65043 0.15747 0.0
C1500 C 0.35073 0.64141 0.2091 0.0
C1501 C 0.33763 0.63106 0.20365 0.0
C1502 C 0.3286 0.63543 0.18922 0.0
C1503 C 0.3455 0.66001 0.18618 0.0
C1504 C 0.35443 0.6557 0.20022 0.0
C1505 C 0.36791 0.66799 0.20444 0.0
H1506 H 0.40798 0.73945 0.18798 0.0
C1507 C 0.35241 0.67572 0.18001 0.0
C1508 C 0.36559 0.68042 0.19065 0.0
H1509 H 0.41683 0.70581 0.22825 0.0
H1510 H 0.39523 0.68781 0.21777 0.0
H1511 H 0.36949 0.73825 0.18986 0.0
H1512 H 0.40122 0.71073 0.15895 0.0
H1513 H 0.3845 0.71789 0.14679 0.0
H1514 H 0.3983 0.73248 0.15689 0.0
H1515 H 0.37882 0.74733 0.17232 0.0
H1516 H 0.35944 0.73634 0.17053 0.0
C1517 C 0.36446 0.67552 0.22149 0.0
C1518 C 0.3846 0.65911 0.20356 0.0
C1519 C 0.326 0.70322 0.12985 0.0
C1520 C 0.32868 0.71838 0.12194 0.0
C1521 C 0.34208 0.72835 0.12748 0.0
C1522 C 0.35228 0.7235 0.14085 0.0
C1523 C 0.34905 0.70857 0.1489 0.0
C1524 C 0.33612 0.69869 0.1433 0.0
C1525 C 0.33412 0.68349 0.1536 0.0
C1526 C 0.34793 0.68587 0.16641 0.0
C1527 C 0.35671 0.70055 0.16356 0.0
C1528 C 0.31697 0.68395 0.16132 0.0
C1529 C 0.3369 0.6683 0.14259 0.0
C1530 C 0.40534 0.72809 0.19435 0.0
C1531 C 0.41407 0.72402 0.20896 0.0
C1532 C 0.41016 0.70924 0.21705 0.0
C1533 C 0.39762 0.69879 0.21093 0.0
C1534 C 0.38868 0.70314 0.19657 0.0
C1535 C 0.39261 0.71754 0.18847 0.0
C1536 C 0.38131 0.72035 0.17372 0.0
C1537 C 0.37013 0.70523 0.17427 0.0
C1538 C 0.37454 0.6952 0.1877 0.0
C1539 C 0.37179 0.73644 0.17658 0.0
C1540 C 0.39179 0.7205 0.1582 0.0
H1541 H 0.32512 0.65233 0.16961 0.0
H1542 H 0.35785 0.63862 0.2202 0.0
H1543 H 0.38426 0.64986 0.19345 0.0
H1544 H 0.39489 0.66749 0.2007 0.0
H1545 H 0.38761 0.65255 0.21521 0.0
H1546 H 0.35102 0.67662 0.22321 0.0
H1547 H 0.36953 0.66775 0.23161 0.0
H1548 H 0.36936 0.68817 0.223 0.0
H1549 H 0.31608 0.69503 0.1258 0.0
H1550 H 0.34443 0.74012 0.12179 0.0
H1551 H 0.36213 0.73172 0.14457 0.0
H1552 H 0.31367 0.69676 0.16454 0.0
H1553 H 0.30727 0.67909 0.15262 0.0
H1554 H 0.31643 0.67712 0.17299 0.0
H1555 H 0.34677 0.67081 0.13376 0.0
H1556 H 0.34111 0.65747 0.14964 0.0
H1557 H 0.32554 0.66494 0.13532 0.0
H1558 H 0.31864 0.62762 0.18452 0.0
C1559 C 0.33246 0.64977 0.18049 0.0
C1560 C 0.39427 0.32875 0.21693 0.0
C1561 C 0.40027 0.31315 0.21288 0.0
C1562 C 0.39419 0.3054 0.19833 0.0
C1563 C 0.37581 0.32803 0.19269 0.0
C1564 C 0.38201 0.3359 0.20671 0.0
C1565 C 0.37371 0.35209 0.20944 0.0
H1566 H 0.31678 0.40827 0.18515 0.0
C1567 C 0.36282 0.3384 0.18506 0.0
C1568 C 0.36154 0.35257 0.19481 0.0
H1569 H 0.35031 0.4101 0.22751 0.0
H1570 H 0.36139 0.38397 0.22008 0.0
H1571 H 0.30722 0.36915 0.18916 0.0
H1572 H 0.34232 0.39501 0.16002 0.0
H1573 H 0.33409 0.37893 0.14777 0.0
H1574 H 0.32072 0.39483 0.1548 0.0
H1575 H 0.30131 0.38177 0.17194 0.0
H1576 H 0.30635 0.36044 0.16938 0.0
C1577 C 0.36489 0.35115 0.22601 0.0
C1578 C 0.3869 0.36592 0.20857 0.0
C1579 C 0.33021 0.31799 0.13411 0.0
C1580 C 0.31701 0.32468 0.12481 0.0
C1581 C 0.31175 0.34067 0.12868 0.0
C1582 C 0.31893 0.34953 0.1419 0.0
C1583 C 0.33159 0.34244 0.15151 0.0
C1584 C 0.33726 0.32706 0.14739 0.0
C1585 C 0.35093 0.32163 0.15901 0.0
C1586 C 0.35229 0.33613 0.17088 0.0
C1587 C 0.34083 0.34825 0.16645 0.0
C1588 C 0.34519 0.3057 0.16765 0.0
C1589 C 0.36668 0.31973 0.14903 0.0
C1590 C 0.3264 0.40296 0.1929 0.0
C1591 C 0.33274 0.41144 0.20688 0.0
C1592 C 0.34537 0.40406 0.21652 0.0
C1593 C 0.35177 0.38879 0.21223 0.0
C1594 C 0.34552 0.3806 0.19812 0.0
C1595 C 0.333 0.38764 0.18875 0.0
C1596 C 0.32793 0.37708 0.17416 0.0
C1597 C 0.33951 0.36263 0.17631 0.0
C1598 C 0.34978 0.36476 0.19041 0.0
C1599 C 0.30973 0.37185 0.17607 0.0
C1600 C 0.33128 0.38691 0.15829 0.0
H1601 H 0.37793 0.30605 0.1775 0.0
H1602 H 0.39863 0.33501 0.22802 0.0
H1603 H 0.3959 0.36315 0.19897 0.0
H1604 H 0.38172 0.37791 0.20501 0.0
H1605 H 0.39386 0.36727 0.22049 0.0
H1606 H 0.35986 0.33858 0.22809 0.0
H1607 H 0.3735 0.35417 0.2365 0.0
H1608 H 0.35414 0.35925 0.22645 0.0
H1609 H 0.33456 0.30577 0.1315 0.0
H1610 H 0.30187 0.3463 0.12154 0.0
H1611 H 0.31416 0.3615 0.14424 0.0
H1612 H 0.33194 0.30635 0.1705 0.0
H1613 H 0.34681 0.29477 0.15969 0.0
H1614 H 0.35158 0.30363 0.17962 0.0
H1615 H 0.36708 0.3289 0.13892 0.0
H1616 H 0.37807 0.32207 0.15647 0.0
H1617 H 0.36722 0.30732 0.14337 0.0
H1618 H 0.39878 0.29352 0.19475 0.0
C1619 C 0.38207 0.31272 0.18826 0.0
C1620 C 0.70223 0.40452 0.21244 0.0
C1621 C 0.69604 0.41232 0.22636 0.0
C1622 C 0.68208 0.40538 0.23368 0.0
C1623 C 0.68054 0.38369 0.21297 0.0
C1624 C 0.69439 0.39037 0.20602 0.0
C1625 C 0.6996 0.3808 0.1913 0.0
H1626 H 0.68655 0.31727 0.13842 0.0
C1627 C 0.6753 0.36904 0.20306 0.0
C1628 C 0.68654 0.36735 0.19036 0.0
H1629 H 0.72588 0.35347 0.13827 0.0
H1630 H 0.71512 0.36645 0.16235 0.0
H1631 H 0.68786 0.31108 0.17636 0.0
H1632 H 0.6582 0.34235 0.14549 0.0
H1633 H 0.64505 0.33464 0.16036 0.0
H1634 H 0.65477 0.32057 0.14666 0.0
H1635 H 0.67088 0.30337 0.16388 0.0
H1636 H 0.66825 0.31052 0.18464 0.0
C1637 C 0.71693 0.37384 0.19517 0.0
C1638 C 0.69861 0.39226 0.17612 0.0
C1639 C 0.62385 0.33533 0.21671 0.0
C1640 C 0.61627 0.3214 0.20915 0.0
C1641 C 0.62355 0.31447 0.19532 0.0
C1642 C 0.63785 0.32125 0.18898 0.0
C1643 C 0.64519 0.33518 0.19648 0.0
C1644 C 0.63827 0.34204 0.21013 0.0
C1645 C 0.64805 0.35685 0.21636 0.0
C1646 C 0.66186 0.35769 0.20415 0.0
C1647 C 0.66 0.3449 0.19258 0.0
C1648 C 0.65462 0.35315 0.23401 0.0
C1649 C 0.63686 0.37204 0.21512 0.0
C1650 C 0.69277 0.3281 0.14342 0.0
C1651 C 0.70705 0.33438 0.13631 0.0
C1652 C 0.71493 0.3483 0.14354 0.0
C1653 C 0.7086 0.35586 0.15749 0.0
C1654 C 0.69424 0.34945 0.16438 0.0
C1655 C 0.68665 0.33576 0.15732 0.0
C1656 C 0.67163 0.33046 0.16624 0.0
C1657 C 0.67139 0.34321 0.17986 0.0
C1658 C 0.68461 0.35433 0.17875 0.0
C1659 C 0.67463 0.31291 0.17309 0.0
C1660 C 0.65657 0.33192 0.15414 0.0
H1661 H 0.66365 0.38657 0.23309 0.0
H1662 H 0.71312 0.40926 0.20668 0.0
H1663 H 0.68772 0.40037 0.17663 0.0
H1664 H 0.69699 0.38551 0.16439 0.0
H1665 H 0.70972 0.40028 0.17557 0.0
H1666 H 0.71837 0.37045 0.20838 0.0
H1667 H 0.72668 0.38303 0.19249 0.0
H1668 H 0.71928 0.36238 0.1884 0.0
H1669 H 0.6186 0.34099 0.22736 0.0
H1670 H 0.61831 0.30355 0.18947 0.0
H1671 H 0.64265 0.31527 0.17845 0.0
H1672 H 0.65872 0.34018 0.23501 0.0
H1673 H 0.64494 0.35501 0.24311 0.0
H1674 H 0.66552 0.36068 0.23763 0.0
H1675 H 0.62948 0.37184 0.20336 0.0
H1676 H 0.64382 0.38375 0.21508 0.0
H1677 H 0.62817 0.37226 0.22536 0.0
H1678 H 0.67702 0.41111 0.24438 0.0
C1679 C 0.67429 0.39116 0.22705 0.0
C1680 C 0.71201 0.34596 0.91158 0.0
C1681 C 0.70512 0.33285 0.92034 0.0
C1682 C 0.69109 0.32465 0.91355 0.0
C1683 C 0.69084 0.34297 0.88995 0.0
C1684 C 0.70477 0.35073 0.89653 0.0
C1685 C 0.71082 0.36433 0.88576 0.0
H1686 H 0.70427 0.40849 0.81578 0.0
C1687 C 0.68641 0.35118 0.87415 0.0
C1688 C 0.69816 0.36362 0.87165 0.0
H1689 H 0.74011 0.41341 0.85613 0.0
H1690 H 0.72708 0.39143 0.87035 0.0
H1691 H 0.67351 0.40525 0.83965 0.0
H1692 H 0.70137 0.36812 0.81541 0.0
H1693 H 0.68022 0.36358 0.81263 0.0
H1694 H 0.68843 0.38238 0.80442 0.0
H1695 H 0.67105 0.40139 0.81797 0.0
H1696 H 0.65971 0.38977 0.8328 0.0
C1697 C 0.71006 0.38069 0.89554 0.0
C1698 C 0.72821 0.35974 0.88015 0.0
C1699 C 0.63444 0.33414 0.84171 0.0
C1700 C 0.62654 0.34007 0.82726 0.0
C1701 C 0.63441 0.35263 0.81837 0.0
C1702 C 0.64957 0.3594 0.824 0.0
C1703 C 0.65699 0.35366 0.83874 0.0
C1704 C 0.64945 0.34113 0.84725 0.0
C1705 C 0.65891 0.33667 0.8628 0.0
C1706 C 0.67321 0.3488 0.86243 0.0
C1707 C 0.6721 0.35869 0.84825 0.0
C1708 C 0.64781 0.33981 0.87755 0.0
C1709 C 0.66465 0.31868 0.86123 0.0
C1710 C 0.70929 0.40488 0.8277 0.0
C1711 C 0.72358 0.4126 0.83457 0.0
C1712 C 0.72953 0.40744 0.85019 0.0
C1713 C 0.7218 0.3947 0.85858 0.0
C1714 C 0.70775 0.38699 0.85151 0.0
C1715 C 0.70156 0.3922 0.83642 0.0
C1716 C 0.686 0.38295 0.83131 0.0
C1717 C 0.68424 0.37109 0.84563 0.0
C1718 C 0.69709 0.37355 0.85735 0.0
C1719 C 0.67176 0.3954 0.83022 0.0
C1720 C 0.68901 0.3738 0.81503 0.0
H1721 H 0.67316 0.32303 0.89398 0.0
H1722 H 0.72297 0.35232 0.91627 0.0
H1723 H 0.72913 0.34625 0.87817 0.0
H1724 H 0.7313 0.36523 0.86823 0.0
H1725 H 0.7378 0.36336 0.88954 0.0
H1726 H 0.69988 0.3804 0.90434 0.0
H1727 H 0.72167 0.38308 0.90275 0.0
H1728 H 0.70736 0.39139 0.88759 0.0
H1729 H 0.62902 0.32428 0.84871 0.0
H1730 H 0.62865 0.35753 0.80727 0.0
H1731 H 0.65483 0.36901 0.81677 0.0
H1732 H 0.6407 0.35128 0.87569 0.0
H1733 H 0.63887 0.32953 0.87904 0.0
H1734 H 0.65481 0.34165 0.88926 0.0
H1735 H 0.66787 0.31585 0.84835 0.0
H1736 H 0.67594 0.31619 0.86866 0.0
H1737 H 0.65483 0.30989 0.86474 0.0
H1738 H 0.68551 0.31454 0.92007 0.0
C1739 C 0.6839 0.32966 0.89844 0.0
C1740 C 0.64521 0.68081 0.80957 0.0
C1741 C 0.63605 0.69465 0.81383 0.0
C1742 C 0.6412 0.70394 0.82778 0.0
C1743 C 0.6646 0.68609 0.83241 0.0
C1744 C 0.65934 0.67679 0.81896 0.0
C1745 C 0.6705 0.66261 0.81589 0.0
H1746 H 0.74023 0.62153 0.83475 0.0
C1747 C 0.68007 0.67889 0.83912 0.0
C1748 C 0.68354 0.66512 0.82949 0.0
H1749 H 0.70239 0.60933 0.79789 0.0
H1750 H 0.68712 0.63305 0.80564 0.0
H1751 H 0.74013 0.66123 0.82942 0.0
H1752 H 0.7146 0.62992 0.86322 0.0
H1753 H 0.7221 0.64736 0.874 0.0
H1754 H 0.7364 0.63351 0.86498 0.0
H1755 H 0.75062 0.65069 0.84598 0.0
H1756 H 0.74126 0.67035 0.84906 0.0
C1757 C 0.67764 0.66484 0.7986 0.0
C1758 C 0.66056 0.64642 0.81812 0.0
C1759 C 0.71078 0.70658 0.88728 0.0
C1760 C 0.726 0.70382 0.89551 0.0
C1761 C 0.73515 0.69001 0.89093 0.0
C1762 C 0.72945 0.6795 0.87813 0.0
C1763 C 0.71442 0.68278 0.86975 0.0
C1764 C 0.70534 0.69611 0.87448 0.0
C1765 C 0.68988 0.69809 0.86404 0.0
C1766 C 0.69107 0.68371 0.85227 0.0
C1767 C 0.70545 0.67472 0.85563 0.0
C1768 C 0.69095 0.71484 0.85506 0.0
C1769 C 0.67498 0.69622 0.87527 0.0
C1770 C 0.72859 0.62384 0.82839 0.0
C1771 C 0.72264 0.61341 0.81556 0.0
C1772 C 0.70752 0.61719 0.80756 0.0
C1773 C 0.69854 0.63094 0.81221 0.0
C1774 C 0.70461 0.64111 0.82508 0.0
C1775 C 0.71936 0.63743 0.83302 0.0
C1776 C 0.72359 0.64933 0.84682 0.0
C1777 C 0.70894 0.66075 0.84582 0.0
C1778 C 0.69797 0.65592 0.83294 0.0
C1779 C 0.7398 0.65837 0.84278 0.0
C1780 C 0.72435 0.63962 0.86317 0.0
H1781 H 0.65872 0.70741 0.84743 0.0
H1782 H 0.64147 0.67323 0.79911 0.0
H1783 H 0.65064 0.64801 0.82705 0.0
H1784 H 0.66815 0.63639 0.82333 0.0
H1785 H 0.65466 0.64224 0.8063 0.0
H1786 H 0.68079 0.67798 0.79637 0.0
H1787 H 0.66861 0.66085 0.78882 0.0
H1788 H 0.68921 0.65818 0.79703 0.0
H1789 H 0.70322 0.71685 0.89059 0.0
H1790 H 0.74694 0.68759 0.89692 0.0
H1791 H 0.73709 0.66936 0.87508 0.0
H1792 H 0.70382 0.71773 0.85176 0.0
H1793 H 0.68672 0.72499 0.86296 0.0
H1794 H 0.68388 0.715 0.84325 0.0
H1795 H 0.6773 0.68665 0.8848 0.0
H1796 H 0.66367 0.69207 0.86854 0.0
H1797 H 0.67251 0.70793 0.88173 0.0
H1798 H 0.63449 0.71473 0.83129 0.0
C1799 C 0.65538 0.69974 0.83707 0.0
C1800 C 0.33647 0.63482 0.8281 0.0
C1801 C 0.34299 0.62775 0.81396 0.0
C1802 C 0.35599 0.63605 0.80625 0.0
C1803 C 0.35665 0.65715 0.82732 0.0
C1804 C 0.34346 0.64948 0.8345 0.0
C1805 C 0.3382 0.65854 0.84954 0.0
H1806 H 0.35036 0.71947 0.90547 0.0
C1807 C 0.36154 0.67167 0.83746 0.0
C1808 C 0.35068 0.67264 0.85041 0.0
H1809 H 0.3113 0.68287 0.90194 0.0
H1810 H 0.32258 0.67195 0.87755 0.0
H1811 H 0.34954 0.72787 0.86539 0.0
H1812 H 0.3804 0.69492 0.89408 0.0
H1813 H 0.39243 0.70705 0.88101 0.0
H1814 H 0.3813 0.71682 0.89699 0.0
H1815 H 0.36438 0.73536 0.88054 0.0
H1816 H 0.37023 0.73029 0.85999 0.0
C1817 C 0.32042 0.66469 0.84621 0.0
C1818 C 0.3402 0.6468 0.86445 0.0
C1819 C 0.41306 0.70372 0.82366 0.0
C1820 C 0.42185 0.71691 0.83107 0.0
C1821 C 0.41516 0.72469 0.84481 0.0
C1822 C 0.40033 0.7189 0.85141 0.0
C1823 C 0.39205 0.70523 0.84416 0.0
C1824 C 0.3984 0.69811 0.83034 0.0
C1825 C 0.38827 0.68373 0.82408 0.0
C1826 C 0.3748 0.68313 0.83648 0.0
C1827 C 0.37698 0.6957 0.84834 0.0
C1828 C 0.38143 0.68791 0.80657 0.0
C1829 C 0.39919 0.66825 0.82498 0.0
C1830 C 0.34425 0.70913 0.89939 0.0
C1831 C 0.33005 0.70184 0.906 0.0
C1832 C 0.32249 0.68845 0.89756 0.0
C1833 C 0.32898 0.68217 0.88321 0.0
C1834 C 0.34324 0.6893 0.87695 0.0
C1835 C 0.35061 0.70266 0.88485 0.0
C1836 C 0.36553 0.70872 0.87591 0.0
C1837 C 0.36579 0.69678 0.86144 0.0
C1838 C 0.3527 0.68537 0.86231 0.0
C1839 C 0.36241 0.72655 0.87019 0.0
C1840 C 0.38079 0.70692 0.88756 0.0
H1841 H 0.37283 0.65611 0.80646 0.0
H1842 H 0.32647 0.62888 0.83434 0.0
H1843 H 0.35169 0.63963 0.86367 0.0
H1844 H 0.34133 0.65329 0.87636 0.0
H1845 H 0.32975 0.63791 0.86484 0.0
H1846 H 0.31765 0.66627 0.83282 0.0
H1847 H 0.31118 0.65588 0.85095 0.0
H1848 H 0.3184 0.67698 0.85156 0.0
H1849 H 0.41767 0.69764 0.81292 0.0
H1850 H 0.42167 0.73489 0.85075 0.0
H1851 H 0.396 0.72511 0.86205 0.0
H1852 H 0.3794 0.70134 0.8052 0.0
H1853 H 0.39009 0.68418 0.79703 0.0
H1854 H 0.36925 0.68221 0.80381 0.0
H1855 H 0.4073 0.6685 0.83627 0.0
H1856 H 0.39208 0.65667 0.8258 0.0
H1857 H 0.40721 0.66756 0.81422 0.0
H1858 H 0.36098 0.63124 0.79507 0.0
C1859 C 0.36283 0.65061 0.81283 0.0
C1860 C 0.32851 0.33319 0.9002 0.0
C1861 C 0.31454 0.34139 0.9057 0.0
C1862 C 0.30985 0.35614 0.89781 0.0
C1863 C 0.33229 0.3539 0.87907 0.0
C1864 C 0.33719 0.33969 0.88699 0.0
C1865 C 0.35241 0.33266 0.87974 0.0
H1866 H 0.41247 0.33816 0.824 0.0
C1867 C 0.34375 0.35724 0.86567 0.0
C1868 C 0.35566 0.3449 0.86606 0.0
H1869 H 0.40609 0.30115 0.86147 0.0
H1870 H 0.38163 0.31451 0.87017 0.0
H1871 H 0.40256 0.36951 0.84586 0.0
H1872 H 0.37429 0.33839 0.8123 0.0
H1873 H 0.36756 0.35859 0.80923 0.0
H1874 H 0.38859 0.35355 0.80524 0.0
H1875 H 0.40539 0.36953 0.82406 0.0
H1876 H 0.39007 0.38209 0.83322 0.0
C1877 C 0.3663 0.33297 0.89323 0.0
C1878 C 0.34806 0.31532 0.87287 0.0
C1879 C 0.33348 0.40562 0.8273 0.0
C1880 C 0.34146 0.41161 0.81339 0.0
C1881 C 0.35583 0.40367 0.80845 0.0
C1882 C 0.36197 0.38998 0.81706 0.0
C1883 C 0.35368 0.38403 0.83078 0.0
C1884 C 0.33971 0.39189 0.8357 0.0
C1885 C 0.33242 0.38385 0.85047 0.0
C1886 C 0.34417 0.36974 0.85349 0.0
C1887 C 0.35664 0.36991 0.84195 0.0
C1888 C 0.33312 0.39641 0.86485 0.0
C1889 C 0.31487 0.37767 0.84546 0.0
C1890 C 0.40576 0.33282 0.83399 0.0
C1891 C 0.41145 0.31859 0.84212 0.0
C1892 C 0.40229 0.31225 0.85517 0.0
C1893 C 0.38797 0.31999 0.86017 0.0
C1894 C 0.38258 0.33426 0.85204 0.0
C1895 C 0.39137 0.34037 0.8391 0.0
C1896 C 0.38359 0.35547 0.83168 0.0
C1897 C 0.36889 0.35757 0.84251 0.0
C1898 C 0.36836 0.34511 0.85444 0.0
C1899 C 0.396 0.36997 0.83365 0.0
C1900 C 0.37828 0.35146 0.81363 0.0
H1901 H 0.31428 0.37358 0.87913 0.0
H1902 H 0.3325 0.32182 0.90584 0.0
H1903 H 0.3354 0.31501 0.86727 0.0
H1904 H 0.35607 0.31153 0.8629 0.0
H1905 H 0.3486 0.30595 0.88278 0.0
H1906 H 0.36548 0.34411 0.90111 0.0
H1907 H 0.36548 0.32205 0.90135 0.0
H1908 H 0.37871 0.33367 0.88818 0.0
H1909 H 0.32259 0.41151 0.83166 0.0
H1910 H 0.36217 0.40784 0.79771 0.0
H1911 H 0.37288 0.38447 0.81261 0.0
H1912 H 0.34393 0.40485 0.86399 0.0
H1913 H 0.32193 0.40409 0.86477 0.0
H1914 H 0.33474 0.39051 0.87701 0.0
H1915 H 0.31458 0.37247 0.83279 0.0
H1916 H 0.31044 0.36761 0.8533 0.0
H1917 H 0.30593 0.38786 0.84564 0.0
H1918 H 0.29946 0.36301 0.90194 0.0
C1919 C 0.31858 0.36237 0.88458 0.0
Cu1920 Cu 0.26517 0.26558 0.01731 0.0
N1921 N 0.26585 0.28481 1.0046 0.0
N1922 N 0.27462 0.30191 0.98514 0.0
C1923 C 0.27746 0.28791 0.99356 0.0
C1924 C 0.26066 0.30794 0.99118 0.0
C1925 C 0.25532 0.29741 1.00326 0.0
O1926 O 0.26704 0.24735 1.00163 0.0
C1927 C 0.27828 0.28003 0.04479 0.0
O1928 O 0.26464 0.2881 0.0417 0.0
H1929 H 0.28753 0.2797 0.99137 0.0
H1930 H 0.24445 0.29877 0.01039 0.0
N1931 N 0.24536 0.26218 0.0281 0.0
N1932 N 0.22859 0.25256 0.04732 0.0
C1933 C 0.24408 0.25301 0.04178 0.0
C1934 C 0.23012 0.26768 0.02467 0.0
C1935 C 0.21978 0.26181 0.0365 0.0
C1936 C 0.25673 0.2484 0.98948 0.0
O1937 O 0.24636 0.26064 0.98922 0.0
H1938 H 0.25441 0.24664 0.04739 0.0
H1939 H 0.22672 0.27536 0.01431 0.0
O1940 O 0.28205 0.26856 0.0349 0.0
H1941 H 0.25476 0.31916 0.98718 0.0
H1942 H 0.2068 0.26434 0.03709 0.0
Cu1943 Cu 0.76301 0.26946 0.02408 0.0
N1944 N 0.74351 0.27363 0.03671 0.0
N1945 N 0.72698 0.28418 0.05528 0.0
C1946 C 0.74221 0.28446 0.04912 0.0
C1947 C 0.71848 0.2727 0.04632 0.0
C1948 C 0.72873 0.26621 0.03488 0.0
O1949 O 0.77409 0.25968 0.04464 0.0
C1950 C 0.74852 0.29296 1.0004 0.0
O1951 O 0.75351 0.3041 0.01122 0.0
H1952 H 0.75219 0.29245 0.0534 0.0
H1953 H 0.72567 0.25671 0.02593 0.0
N1954 N 0.78266 0.26568 0.0114 0.0
N1955 N 0.79859 0.25819 0.99087 0.0
C1956 C 0.78374 0.25643 0.99774 0.0
C1957 C 0.79719 0.27365 0.0132 0.0
C1958 C 0.80707 0.26898 1.00064 0.0
C1959 C 0.78404 0.26754 0.05423 0.0
O1960 O 0.78798 0.28286 0.05096 0.0
H1961 H 0.77369 0.24895 0.99274 0.0
H1962 H 0.80015 0.28283 0.02246 0.0
O1963 O 0.75126 0.27787 1.00331 0.0
H1964 H 0.70584 0.26901 0.04807 0.0
H1965 H 0.81923 0.27383 0.99844 0.0
Cu1966 Cu 0.7674 0.77685 0.999 0.0
N1967 N 0.76829 0.79507 0.98474 0.0
N1968 N 0.77657 0.81068 0.96381 0.0
C1969 C 0.77858 0.79645 0.97214 0.0
C1970 C 0.7645 0.81856 0.9715 0.0
C1971 C 0.75936 0.80888 0.98433 0.0
O1972 O 0.76723 0.75747 0.98457 0.0
C1973 C 0.78499 0.79334 0.02306 0.0
O1974 O 0.77404 0.80411 0.01807 0.0
H1975 H 0.78746 0.78718 0.96922 0.0
H1976 H 0.74981 0.81174 0.99277 0.0
N1977 N 0.74837 0.7755 0.01133 0.0
N1978 N 0.73268 0.76739 0.03205 0.0
C1979 C 0.7477 0.76696 0.02546 0.0
C1980 C 0.73322 0.7816 0.00875 0.0
C1981 C 0.72351 0.77661 0.02151 0.0
C1982 C 0.75602 0.75818 0.97322 0.0
O1983 O 0.74607 0.77077 0.97308 0.0
H1984 H 0.75805 0.76027 0.03059 0.0
H1985 H 0.72944 0.78901 0.99831 0.0
O1986 O 0.78518 0.77941 0.01578 0.0
H1987 H 0.75951 0.83034 0.96794 0.0
H1988 H 0.71073 0.77965 0.02293 0.0
Cu1989 Cu 0.25978 0.75486 0.01444 0.0
N1990 N 0.24072 0.753 0.02669 0.0
N1991 N 0.22288 0.75925 0.04614 0.0
C1992 C 0.23844 0.76096 0.04098 0.0
C1993 C 0.21511 0.7498 0.03453 0.0
C1994 C 0.22606 0.74613 0.02251 0.0
O1995 O 0.27799 0.75665 0.03061 0.0
C1996 C 0.26162 0.77651 0.98632 0.0
O1997 O 0.27513 0.76897 0.98254 0.0
H1998 H 0.24786 0.76857 0.04695 0.0
H1999 H 0.22323 0.73963 0.01116 0.0
N2000 N 0.2636 0.73626 1.00138 0.0
N2001 N 0.27581 0.71986 0.98344 0.0
C2002 C 0.27684 0.73401 0.99211 0.0
C2003 C 0.25408 0.72278 0.99882 0.0
C2004 C 0.26155 0.71268 0.98774 0.0
C2005 C 0.27793 0.74466 0.04071 0.0
O2006 O 0.26671 0.73303 0.03857 0.0
H2007 H 0.28715 0.74251 0.99183 0.0
H2008 H 0.24249 0.72042 1.00447 0.0
O2009 O 0.25514 0.77352 1.00004 0.0
H2010 H 0.2023 0.7461 0.03439 0.0
H2011 H 0.25664 0.70117 0.98289 0.0
Cu2012 Cu 0.02414 0.26604 0.27628 0.0
N2013 N 0.03753 0.24745 0.2747 0.0
N2014 N 0.05675 0.23146 0.26413 0.0
C2015 C 0.04772 0.24516 0.26222 0.0
C2016 C 0.05203 0.22482 0.27846 0.0
C2017 C 0.04012 0.23468 0.28493 0.0
O2018 O 0.03959 0.28467 0.27801 0.0
C2019 C 1.00102 0.2512 0.25665 0.0
O2020 O 1.00504 0.23985 0.26747 0.0
H2021 H 0.04878 0.25371 0.25212 0.0
H2022 H 0.03395 0.23274 0.29633 0.0
N2023 N 0.01068 0.26667 0.29452 0.0
N2024 N 0.98901 0.27426 0.30896 0.0
C2025 C 0.99645 0.27496 0.29437 0.0
C2026 C 0.01241 0.26046 0.30979 0.0
C2027 C 0.99906 0.26513 0.31873 0.0
C2028 C 0.05022 0.28268 0.28972 0.0
O2029 O 0.04876 0.26973 0.2992 0.0
H2030 H 0.99188 0.28172 0.28377 0.0
H2031 H 0.0227 0.25325 0.31422 0.0
O2032 O 0.00853 0.26506 0.2575 0.0
H2033 H 0.05678 0.21361 0.28384 0.0
H2034 H 0.99694 0.26195 0.33139 0.0
Cu2035 Cu 0.77038 0.01797 0.2619 0.0
N2036 N 0.78806 0.03316 0.2616 0.0
N2037 N 0.80399 0.05424 0.25365 0.0
C2038 C 0.78915 0.04658 0.2519 0.0
C2039 C 0.81246 0.04531 0.26496 0.0
C2040 C 0.80269 0.03238 0.26977 0.0
O2041 O 0.75029 0.03119 0.26119 0.0
C2042 C 0.78674 0.99548 0.24382 0.0
O2043 O 0.79716 0.99861 0.25612 0.0
H2044 H 0.77947 0.05028 0.24329 0.0
H2045 H 0.80633 0.02275 0.27819 0.0
N2046 N 0.77116 1.00487 0.28101 0.0
N2047 N 0.76653 0.98398 0.29821 0.0
C2048 C 0.7632 0.9904 0.28317 0.0
C2049 C 0.7796 0.00773 0.29528 0.0
C2050 C 0.77688 0.99483 0.30583 0.0
C2051 C 0.74387 0.03523 0.2747 0.0
O2052 O 0.74999 0.02918 0.28849 0.0
H2053 H 0.75527 0.98462 0.27384 0.0
H2054 H 0.78693 0.01861 0.29802 0.0
O2055 O 0.77295 1.00279 0.24339 0.0
H2056 H 0.82494 0.0478 0.26936 0.0
H2057 H 0.78182 0.99369 0.31829 0.0
Cu2058 Cu 1.00192 0.75701 0.26318 0.0
N2059 N 0.98765 0.77491 0.26362 0.0
N2060 N 0.96617 0.78993 0.25501 0.0
C2061 C 0.97442 0.77578 0.2533 0.0
C2062 C 0.97459 0.79835 0.26696 0.0
C2063 C 0.98782 0.789 0.27232 0.0
O2064 O 0.98741 0.73809 0.26709 0.0
C2065 C 0.01982 0.77255 0.24013 0.0
O2066 O 0.01695 0.78435 0.25063 0.0
H2067 H 0.97123 0.76633 0.24434 0.0
H2068 H 0.99705 0.79243 0.2816 0.0
N2069 N 0.01915 0.75685 0.27905 0.0
N2070 N 0.04294 0.74844 0.29061 0.0
C2071 C 0.03228 0.7471 0.27761 0.0
C2072 C 0.02161 0.76482 0.29346 0.0
C2073 C 0.03625 0.75957 0.30067 0.0
C2074 C 0.98247 0.73762 0.28183 0.0
O2075 O 0.98839 0.7486 0.29237 0.0
H2076 H 0.03374 0.73885 0.26732 0.0
H2077 H 0.01325 0.77357 0.29852 0.0
O2078 O 0.01355 0.75831 0.24253 0.0
H2079 H 0.97144 0.81037 0.27151 0.0
H2080 H 0.04157 0.76366 0.31236 0.0
Cu2081 Cu 0.25658 1.00325 0.25972 0.0
N2082 N 0.25718 0.0169 0.27834 0.0
N2083 N 0.26427 0.03881 0.29394 0.0
C2084 C 0.26542 0.03136 0.27916 0.0
C2085 C 0.25491 0.02851 0.30281 0.0
C2086 C 0.25053 0.01502 0.29315 0.0
O2087 O 0.25695 0.01875 0.2413 0.0
C2088 C 0.27364 0.97727 0.27257 0.0
O2089 O 0.26041 0.97723 0.2814 0.0
H2090 H 0.27242 0.03612 0.2691 0.0
H2091 H 0.2431 1.00458 0.2967 0.0
N2092 N 0.2376 0.98975 0.25809 0.0
N2093 N 0.22129 0.96838 0.25061 0.0
C2094 C 0.23637 0.97543 0.24971 0.0
C2095 C 0.22279 0.99188 0.26457 0.0
C2096 C 0.2127 0.97875 0.25996 0.0
C2097 C 0.24456 0.02069 0.2315 0.0
O2098 O 0.23255 0.00978 0.23147 0.0
H2099 H 0.24637 0.97042 0.24291 0.0
H2100 H 0.21955 1.00225 0.27209 0.0
O2101 O 0.2753 0.98844 0.26175 0.0
H2102 H 0.25131 0.03059 0.31532 0.0
H2103 H 0.2001 0.97691 0.26346 0.0
Cu2104 Cu 0.0239 0.78227 0.75656 0.0
N2105 N 0.03696 0.78232 0.73807 0.0
N2106 N 0.05638 0.77383 0.72121 0.0
C2107 C 0.05059 0.77326 0.73659 0.0
C2108 C 0.04593 0.78374 0.71275 0.0
C2109 C 0.03392 0.78883 0.72312 0.0
O2110 O 0.03947 0.78241 0.77557 0.0
C2111 C 0.99823 0.7581 0.76281 0.0
O2112 O 0.99866 0.76304 0.7782 0.0
H2113 H 0.05556 0.76567 0.74642 0.0
H2114 H 0.02332 0.79611 0.71975 0.0
N2115 N 0.01045 0.80086 0.75758 0.0
N2116 N 0.99053 0.8175 0.76576 0.0
C2117 C 0.99796 0.80287 0.76787 0.0
C2118 C 0.011 0.81478 0.74869 0.0
C2119 C 0.99876 0.82504 0.75369 0.0
C2120 C 0.04682 0.79622 0.77802 0.0
O2121 O 0.04272 0.80863 0.76852 0.0
H2122 H 0.99461 0.79391 0.77699 0.0
H2123 H 0.0198 0.81743 0.73937 0.0
O2124 O 0.00892 0.76357 0.75309 0.0
H2125 H 0.04659 0.7868 0.69985 0.0
H2126 H 0.99606 0.83706 0.74869 0.0
Cu2127 Cu 0.2844 0.01378 0.76626 0.0
N2128 N 0.30161 0.02914 0.76404 0.0
N2129 N 0.3142 0.05187 0.755 0.0
C2130 C 0.30005 0.04303 0.75518 0.0
C2131 C 0.32513 0.04317 0.76418 0.0
C2132 C 0.31732 0.02919 0.76979 0.0
O2133 O 0.26532 0.02726 0.77052 0.0
C2134 C 0.29726 0.993 0.7439 0.0
O2135 O 0.31016 0.99736 0.75308 0.0
H2136 H 0.28878 0.04637 0.74867 0.0
H2137 H 0.32286 0.01962 0.77723 0.0
N2138 N 0.28688 0.99939 0.78407 0.0
N2139 N 0.28004 0.97887 0.80092 0.0
C2140 C 0.27621 0.987 0.78689 0.0
C2141 C 0.29795 0.99911 0.79671 0.0
C2142 C 0.29375 0.98647 0.80714 0.0
C2143 C 0.26662 0.03459 0.78441 0.0
O2144 O 0.27963 0.03177 0.79392 0.0
H2145 H 0.26551 0.9844 0.77902 0.0
H2146 H 0.30807 0.0077 0.79852 0.0
O2147 O 0.28343 0.99939 0.74691 0.0
H2148 H 0.33784 0.04666 0.76672 0.0
H2149 H 0.30028 0.98321 0.81845 0.0
Cu2150 Cu 0.02994 0.26852 0.76675 0.0
N2151 N 0.01855 0.2695 0.74648 0.0
N2152 N 1.00027 0.27769 0.72711 0.0
C2153 C 1.00508 0.2785 0.74314 0.0
C2154 C 0.01114 0.2676 0.72014 0.0
C2155 C 0.0224 0.2626 0.73211 0.0
O2156 O 0.01374 0.26599 0.78372 0.0
C2157 C 0.0443 0.30039 0.7606 0.0
O2158 O 0.02991 0.30455 0.75425 0.0
H2159 H 0.99937 0.28606 0.75221 0.0
H2160 H 0.03283 0.25475 0.7304 0.0
N2161 N 0.04306 0.24995 0.76816 0.0
N2162 N 0.06395 0.23421 0.77683 0.0
C2163 C 0.05739 0.24937 0.77685 0.0
C2164 C 0.04034 0.23462 0.76239 0.0
C2165 C 0.05323 0.22486 0.76772 0.0
C2166 C 1.0036 0.27657 0.78859 0.0
O2167 O 1.00493 0.29188 0.78366 0.0
H2168 H 0.06258 0.25981 0.78356 0.0
H2169 H 0.02961 0.23077 0.75509 0.0
O2170 O 0.04572 0.28678 0.76819 0.0
H2171 H 0.01108 0.26412 0.70729 0.0
H2172 H 0.05455 0.21191 0.76513 0.0
Cu2173 Cu 0.77267 0.03444 0.75391 0.0
N2174 N 0.77485 0.05098 0.76991 0.0
N2175 N 0.78603 0.07257 0.78341 0.0
C2176 C 0.7879 0.06128 0.77147 0.0
C2177 C 0.7712 0.06919 0.78965 0.0
C2178 C 0.76434 0.05584 0.78132 0.0
O2179 O 0.77275 0.04646 0.73313 0.0
C2180 C 0.79108 0.01376 0.77298 0.0
O2181 O 0.78114 0.0202 0.78356 0.0
H2182 H 0.7984 0.06072 0.76367 0.0
H2183 H 0.75254 0.05015 0.78344 0.0
N2184 N 0.75315 0.02214 0.75518 0.0
N2185 N 0.73609 1.00062 0.75075 0.0
C2186 C 0.75176 1.00628 0.75053 0.0
C2187 C 0.73783 0.0268 0.75853 0.0
C2188 C 0.72729 0.01354 0.75589 0.0
C2189 C 0.76134 0.04487 0.7221 0.0
O2190 O 0.75158 0.03192 0.72241 0.0
H2191 H 0.76202 0.99937 0.74618 0.0
H2192 H 0.73442 0.03911 0.76196 0.0
O2193 O 0.79019 0.01867 0.75809 0.0
H2194 H 0.76573 0.07581 0.79961 0.0
H2195 H 0.71412 0.0136 0.75732 0.0
Cu2196 Cu 0.2663 0.76169 0.50046 0.0
N2197 N 0.28423 0.76397 0.51543 0.0
N2198 N 0.29783 0.77213 0.53837 0.0
C2199 C 0.28407 0.77366 0.52886 0.0
C2200 C 0.30712 0.76113 0.53062 0.0
C2201 C 0.29876 0.75619 0.51639 0.0
O2202 O 0.24732 0.75977 0.51434 0.0
C2203 C 0.28066 0.78296 0.47931 0.0
O2204 O 0.29288 0.77335 0.48364 0.0
H2205 H 0.27376 0.78123 0.53191 0.0
H2206 H 0.30302 0.74755 0.50745 0.0
N2207 N 0.26692 0.74279 0.48732 0.0
N2208 N 0.25966 0.7255 0.46689 0.0
C2209 C 0.25676 0.74004 0.47418 0.0
C2210 C 0.27649 0.72943 0.48849 0.0
C2211 C 0.27212 0.71879 0.4758 0.0
C2212 C 0.24896 0.74793 0.52448 0.0
O2213 O 0.26168 0.73828 0.52323 0.0
H2214 H 0.24745 0.74859 0.47001 0.0
H2215 H 0.2857 0.72728 0.49806 0.0
O2216 O 0.26667 0.78038 0.48549 0.0
H2217 H 0.31909 0.75699 0.53494 0.0
H2218 H 0.27734 0.70685 0.47357 0.0
Cu2219 Cu 0.77154 0.77497 0.52198 0.0
N2220 N 0.78835 0.77478 0.5065 0.0
N2221 N 0.80158 0.76676 0.4841 0.0
C2222 C 0.78852 0.76422 0.49367 0.0
C2223 C 0.81 0.77943 0.49125 0.0
C2224 C 0.80188 0.7843 0.50504 0.0
O2225 O 0.75147 0.77533 0.50786 0.0
C2226 C 0.79015 0.75752 0.5439 0.0
O2227 O 0.79997 0.76948 0.53934 0.0
H2228 H 0.77902 0.75502 0.49125 0.0
H2229 H 0.80577 0.79397 0.51345 0.0
N2230 N 0.77104 0.79347 0.53602 0.0
N2231 N 0.7639 0.80886 0.55754 0.0
C2232 C 0.76129 0.79467 0.54911 0.0
C2233 C 0.78 0.80749 0.53611 0.0
C2234 C 0.77569 0.81694 0.54937 0.0
C2235 C 0.74992 0.789 0.50026 0.0
O2236 O 0.76073 0.80076 0.50362 0.0
H2237 H 0.75276 0.78509 0.55263 0.0
H2238 H 0.789 0.81075 0.5272 0.0
O2239 O 0.77571 0.75663 0.53721 0.0
H2240 H 0.82136 0.78467 0.48695 0.0
H2241 H 0.78078 0.82889 0.55268 0.0
Cu2242 Cu 0.75556 0.26835 0.50595 0.0
N2243 N 0.75367 0.24846 0.49435 0.0
N2244 N 0.74538 0.23125 0.47415 0.0
C2245 C 0.74478 0.24668 0.4802 0.0
C2246 C 0.75496 0.22293 0.48507 0.0
C2247 C 0.76007 0.23358 0.49752 0.0
O2248 O 0.75517 0.28567 0.48928 0.0
C2249 C 0.74262 0.25777 0.53433 0.0
O2250 O 0.75605 0.24913 0.53318 0.0
H2251 H 0.7379 0.25658 0.47454 0.0
H2252 H 0.76789 0.23065 0.50808 0.0
N2253 N 0.77565 0.27136 0.51744 0.0
N2254 N 0.79298 0.28252 0.53627 0.0
C2255 C 0.77846 0.28389 0.528 0.0
C2256 C 0.78898 0.26176 0.51887 0.0
C2257 C 0.79968 0.26859 0.53062 0.0
C2258 C 0.76631 0.28331 0.47887 0.0
O2259 O 0.77594 0.27058 0.48089 0.0
H2260 H 0.76958 0.29337 0.53021 0.0
H2261 H 0.79057 0.25037 0.5123 0.0
O2262 O 0.73887 0.26784 0.52281 0.0
H2263 H 0.75828 0.21014 0.48403 0.0
H2264 H 0.81131 0.26358 0.53489 0.0
Cu2265 Cu 0.26898 0.2762 0.52794 0.0
N2266 N 0.26809 0.29591 0.54019 0.0
N2267 N 0.25993 0.31378 0.55926 0.0
C2268 C 0.25826 0.2984 0.553 0.0
C2269 C 0.27134 0.32119 0.55 0.0
C2270 C 0.27633 0.31019 0.53832 0.0
O2271 O 0.27181 0.25875 0.5443 0.0
C2272 C 0.24871 0.28867 0.50423 0.0
O2273 O 0.26021 0.30001 0.50635 0.0
H2274 H 0.24981 0.28916 0.55742 0.0
H2275 H 0.28514 0.31261 0.52895 0.0
N2276 N 0.28676 0.2748 0.51383 0.0
N2277 N 0.30107 0.26587 0.49256 0.0
C2278 C 0.28726 0.26408 0.50118 0.0
C2279 C 0.30087 0.28358 0.51331 0.0
C2280 C 0.30965 0.27818 0.50013 0.0
C2281 C 0.28383 0.26192 0.55434 0.0
O2282 O 0.29264 0.27532 0.55208 0.0
H2283 H 0.27747 0.25536 0.49814 0.0
H2284 H 0.30459 0.29318 0.5219 0.0
O2285 O 0.24953 0.27572 0.51307 0.0
H2286 H 0.27585 0.33368 0.55157 0.0
H2287 H 0.32151 0.28283 0.4965 0.0
Cu2288 Cu 0.78933 0.51468 0.76329 0.0
N2289 N 0.80809 0.52785 0.76086 0.0
N2290 N 0.82356 0.54859 0.75156 0.0
C2291 C 0.80843 0.54155 0.75161 0.0
C2292 C 0.8331 0.53881 0.7612 0.0
C2293 C 0.82354 0.52603 0.76687 0.0
O2294 O 0.77107 0.52993 0.76483 0.0
C2295 C 0.79996 0.48762 0.74751 0.0
O2296 O 0.81034 0.48916 0.76014 0.0
H2297 H 0.79776 0.54599 0.74477 0.0
H2298 H 0.82767 0.51603 0.77462 0.0
N2299 N 0.78964 0.50245 0.78281 0.0
N2300 N 0.78241 0.48275 0.80035 0.0
C2301 C 0.77892 0.49018 0.78587 0.0
C2302 C 0.80022 0.50293 0.79589 0.0
C2303 C 0.79582 0.49072 0.80671 0.0
C2304 C 0.77237 0.5388 0.77779 0.0
O2305 O 0.78514 0.53668 0.78783 0.0
H2306 H 0.76907 0.48645 0.77735 0.0
H2307 H 0.81044 0.51145 0.79744 0.0
O2308 O 0.78877 0.49837 0.74549 0.0
H2309 H 0.84606 0.54071 0.76404 0.0
H2310 H 0.80197 0.48795 0.81835 0.0
Cu2311 Cu 0.28251 0.52562 0.75461 0.0
N2312 N 0.30155 0.51271 0.75484 0.0
N2313 N 0.31867 0.49257 0.76255 0.0
C2314 C 0.30396 0.49962 0.76472 0.0
C2315 C 0.32581 0.50163 0.7508 0.0
C2316 C 0.31522 0.51399 0.74603 0.0
O2317 O 0.26441 0.50973 0.75609 0.0
C2318 C 0.29854 0.5505 0.77077 0.0
O2319 O 0.30774 0.54775 0.75813 0.0
H2320 H 0.29512 0.49553 0.77354 0.0
H2321 H 0.31746 0.52332 0.73691 0.0
N2322 N 0.27936 0.5377 0.73518 0.0
N2323 N 0.27085 0.55785 0.71841 0.0
C2324 C 0.27 0.5512 0.73355 0.0
C2325 C 0.28622 0.53564 0.72051 0.0
C2326 C 0.28107 0.54811 0.71017 0.0
C2327 C 0.26486 0.49878 0.74488 0.0
O2328 O 0.27607 0.5001 0.7337 0.0
H2329 H 0.26312 0.55635 0.74345 0.0
H2330 H 0.29449 0.52586 0.71754 0.0
O2331 O 0.28551 0.54182 0.77228 0.0
H2332 H 0.33778 0.49942 0.74588 0.0
H2333 H 0.28458 0.54988 0.69757 0.0
Cu2334 Cu 0.27067 0.51376 0.25737 0.0
N2335 N 0.27039 0.50168 0.27699 0.0
N2336 N 0.2633 0.48159 0.2943 0.0
C2337 C 0.26271 0.48702 0.2786 0.0
C2338 C 0.27188 0.49331 0.30285 0.0
C2339 C 0.27621 0.50567 0.29216 0.0
O2340 O 0.27486 0.49746 0.24025 0.0
C2341 C 0.24 0.52766 0.26611 0.0
O2342 O 0.24112 0.5176 0.27867 0.0
H2343 H 0.25619 0.48086 0.2685 0.0
H2344 H 0.28273 0.51697 0.29532 0.0
N2345 N 0.28749 0.5298 0.25731 0.0
N2346 N 0.30117 0.55243 0.2495 0.0
C2347 C 0.28756 0.54288 0.24717 0.0
C2348 C 0.30154 0.5311 0.26647 0.0
C2349 C 0.31002 0.545 0.26164 0.0
C2350 C 0.28917 0.49118 0.2413 0.0
O2351 O 0.29954 0.49666 0.25281 0.0
H2352 H 0.27787 0.54518 0.23807 0.0
H2353 H 0.30542 0.52251 0.2759 0.0
O2354 O 0.25036 0.52653 0.25472 0.0
H2355 H 0.27473 0.49309 0.31594 0.0
H2356 H 0.32169 0.54939 0.26681 0.0
Cu2357 Cu 0.77002 0.51701 0.25846 0.0
N2358 N 0.78958 0.50513 0.26013 0.0
N2359 N 0.80761 0.48603 0.26847 0.0
C2360 C 0.79196 0.49135 0.26904 0.0
C2361 C 0.81532 0.49694 0.25877 0.0
C2362 C 0.8042 0.50868 0.25368 0.0
O2363 O 0.75186 0.50086 0.2568 0.0
C2364 C 0.78049 0.54452 0.27544 0.0
O2365 O 0.78992 0.5447 0.26265 0.0
H2366 H 0.78246 0.48564 0.27616 0.0
H2367 H 0.80669 0.51921 0.24602 0.0
N2368 N 0.76878 0.52991 0.23929 0.0
N2369 N 0.76157 0.55078 0.22272 0.0
C2370 C 0.75953 0.54343 0.23742 0.0
C2371 C 0.77693 0.52855 0.22523 0.0
C2372 C 0.77248 0.54137 0.21498 0.0
C2373 C 0.75219 0.49202 0.24384 0.0
O2374 O 0.76429 0.49432 0.23378 0.0
H2375 H 0.75152 0.54782 0.24679 0.0
H2376 H 0.78565 0.51904 0.22267 0.0
O2377 O 0.77021 0.53266 0.27692 0.0
H2378 H 0.82809 0.49651 0.25553 0.0
H2379 H 0.77726 0.54378 0.20296 0.0
Cu2380 Cu 0.52655 0.27372 0.77037 0.0
N2381 N 0.51183 0.27213 0.7876 0.0
N2382 N 0.4897 0.27826 0.80196 0.0
C2383 C 0.49882 0.28206 0.7889 0.0
C2384 C 0.49729 0.26537 0.80918 0.0
C2385 C 0.51088 0.26153 0.80023 0.0
O2386 O 0.51222 0.27285 0.75058 0.0
C2387 C 0.54659 0.29529 0.78811 0.0
O2388 O 0.54189 0.28522 0.7997 0.0
H2389 H 0.49613 0.29193 0.78036 0.0
H2390 H 0.51923 0.25156 0.80267 0.0
N2391 N 0.54157 0.2565 0.76913 0.0
N2392 N 0.5612 0.24137 0.75801 0.0
C2393 C 0.54947 0.25277 0.75536 0.0
C2394 C 0.54861 0.24726 0.78105 0.0
C2395 C 0.56063 0.23784 0.77421 0.0
C2396 C 0.50637 0.25853 0.74739 0.0
O2397 O 0.51117 0.24619 0.75669 0.0
H2398 H 0.54716 0.25898 0.74378 0.0
H2399 H 0.54579 0.24784 0.79391 0.0
O2400 O 0.54044 0.29334 0.77358 0.0
H2401 H 0.4931 0.25889 0.8199 0.0
H2402 H 0.56856 0.22934 0.78079 0.0
Cu2403 Cu 0.5209 0.7645 0.76183 0.0
N2404 N 0.53421 0.74589 0.7621 0.0
N2405 N 0.55389 0.72865 0.77072 0.0
C2406 C 0.54382 0.74094 0.77491 0.0
C2407 C 0.55025 0.72561 0.75467 0.0
C2408 C 0.53812 0.73627 0.7494 0.0
O2409 O 0.53578 0.78323 0.75879 0.0
C2410 C 0.49959 0.75015 0.78337 0.0
O2411 O 0.50321 0.7377 0.77391 0.0
H2412 H 0.54404 0.74689 0.78682 0.0
H2413 H 0.533 0.73737 0.73702 0.0
N2414 N 0.50695 0.7649 0.74319 0.0
N2415 N 0.48507 0.77234 0.72785 0.0
C2416 C 0.49073 0.76808 0.74299 0.0
C2417 C 0.51164 0.76719 0.72764 0.0
C2418 C 0.49815 0.77186 0.71814 0.0
C2419 C 0.54939 0.78574 0.76662 0.0
O2420 O 0.55257 0.77764 0.78027 0.0
H2421 H 0.48358 0.76882 0.75395 0.0
H2422 H 0.52424 0.7669 0.72381 0.0
O2423 O 0.50661 0.76402 0.78086 0.0
H2424 H 0.5562 0.71663 0.74714 0.0
H2425 H 0.49811 0.77555 0.70536 0.0
Cu2426 Cu 0.52272 0.77054 0.26391 0.0
N2427 N 0.50913 0.77083 0.28205 0.0
N2428 N 0.48768 0.77842 0.29668 0.0
C2429 C 0.49528 0.7797 0.28226 0.0
C2430 C 0.4972 0.76836 0.30601 0.0
C2431 C 0.51041 0.76363 0.29691 0.0
O2432 O 0.50742 0.77223 0.24495 0.0
C2433 C 0.54972 0.78378 0.27936 0.0
O2434 O 0.54725 0.76991 0.2872 0.0
H2435 H 0.491 0.78719 0.27204 0.0
H2436 H 0.52024 0.75559 0.30088 0.0
N2437 N 0.53434 0.75106 0.26108 0.0
N2438 N 0.55389 0.73501 0.25123 0.0
C2439 C 0.54696 0.74999 0.25089 0.0
C2440 C 0.5331 0.73619 0.26818 0.0
C2441 C 0.54514 0.72622 0.26207 0.0
C2442 C 0.4969 0.76046 0.24509 0.0
O2443 O 0.49837 0.74921 0.25658 0.0
H2444 H 0.55094 0.76014 0.24335 0.0
H2445 H 0.52424 0.7329 0.27727 0.0
O2446 O 0.53959 0.78764 0.26771 0.0
H2447 H 0.4947 0.76458 0.31844 0.0
H2448 H 0.54749 0.71364 0.26563 0.0
Cu2449 Cu 0.50574 0.25553 0.26429 0.0
N2450 N 0.49301 0.23617 0.26548 0.0
N2451 N 0.4731 0.21947 0.27442 0.0
C2452 C 0.4806 0.23433 0.2759 0.0
C2453 C 0.48126 0.21158 0.26261 0.0
C2454 C 0.49351 0.22193 0.25709 0.0
O2455 O 0.48998 0.27356 0.26511 0.0
C2456 C 0.53361 0.24238 0.2772 0.0
O2457 O 0.53052 0.23388 0.26367 0.0
H2458 H 0.47727 0.24377 0.28452 0.0
H2459 H 0.50211 0.21925 0.24763 0.0
N2460 N 0.51662 0.25861 0.24459 0.0
N2461 N 0.53523 0.26941 0.22789 0.0
C2462 C 0.52908 0.2695 0.24309 0.0
C2463 C 0.51467 0.25133 0.22979 0.0
C2464 C 0.52613 0.25798 0.21945 0.0
C2465 C 0.47847 0.27162 0.25417 0.0
O2466 O 0.47894 0.25883 0.24433 0.0
H2467 H 0.53342 0.27741 0.25306 0.0
H2468 H 0.50564 0.24185 0.22674 0.0
O2469 O 0.52349 0.25352 0.28109 0.0
H2470 H 0.47845 0.19932 0.25808 0.0
H2471 H 0.52778 0.25444 0.20679 0.0
H2472 H 0.19298 0.21402 0.10354 0.0
H2473 H 0.2431 0.20977 0.12179 0.0
H2474 H 0.25267 0.22606 0.09872 0.0
H2475 H 0.24693 0.24106 0.07321 0.0
H2476 H 0.19695 0.24427 0.05401 0.0
H2477 H 0.18725 0.2292 0.07772 0.0
C2478 C 0.20598 0.2168 0.10251 0.0
C2479 C 0.21731 0.21065 0.11435 0.0
C2480 C 0.21144 0.22602 0.08904 0.0
C2481 C 0.23413 0.21421 0.11277 0.0
C2482 C 0.23961 0.22356 0.0996 0.0
C2483 C 0.23392 0.23838 0.07401 0.0
C2484 C 0.22278 0.24385 0.0616 0.0
C2485 C 0.2284 0.2294 0.08757 0.0
C2486 C 0.20591 0.24044 0.0633 0.0
C2487 C 0.20031 0.2317 0.07687 0.0
H2488 H 0.80337 0.22928 0.11933 0.0
H2489 H 0.8511 0.24946 0.1081 0.0
H2490 H 0.83924 0.26327 0.08422 0.0
H2491 H 0.81538 0.26978 0.06622 0.0
H2492 H 0.76849 0.24691 0.07509 0.0
H2493 H 0.78002 0.23375 0.0999 0.0
C2494 C 0.81131 0.23645 0.11158 0.0
C2495 C 0.82813 0.23852 0.11597 0.0
C2496 C 0.80454 0.24392 0.09733 0.0
C2497 C 0.83802 0.24804 0.10561 0.0
C2498 C 0.83129 0.25586 0.09174 0.0
C2499 C 0.80772 0.26193 0.07364 0.0
C2500 C 0.79111 0.25942 0.069 0.0
C2501 C 0.81456 0.25399 0.08754 0.0
C2502 C 0.78133 0.249 0.07848 0.0
C2503 C 0.78791 0.2415 0.09266 0.0
H2504 H 0.81423 0.80366 0.09527 0.0
H2505 H 0.81263 0.85404 0.07883 0.0
H2506 H 0.80489 0.84501 0.05109 0.0
H2507 H 0.7958 0.82329 0.0322 0.0
H2508 H 0.79641 0.77272 0.04773 0.0
H2509 H 0.80771 0.78121 0.07492 0.0
C2510 C 0.81242 0.8126 0.08553 0.0
C2511 C 0.81368 0.82955 0.08923 0.0
C2512 C 0.80779 0.80728 0.06944 0.0
C2513 C 0.81137 0.84098 0.07644 0.0
C2514 C 0.80701 0.83582 0.06053 0.0
C2515 C 0.79869 0.81407 0.04143 0.0
C2516 C 0.79521 0.79742 0.03799 0.0
C2517 C 0.80476 0.81908 0.05701 0.0
C2518 C 0.79912 0.78561 0.05003 0.0
C2519 C 0.8054 0.7905 0.06563 0.0
H2520 H 0.18147 0.79249 0.10081 0.0
H2521 H 0.22992 0.80118 0.12243 0.0
H2522 H 0.24215 0.78726 0.09923 0.0
H2523 H 0.23903 0.77225 0.07302 0.0
H2524 H 0.19043 0.76429 0.05124 0.0
H2525 H 0.17839 0.77782 0.0745 0.0
C2526 C 0.19471 0.79124 0.10052 0.0
C2527 C 0.20474 0.79786 0.1134 0.0
C2528 C 0.20166 0.7832 0.08716 0.0
C2529 C 0.2219 0.79636 0.11264 0.0
C2530 C 0.2289 0.78831 0.09941 0.0
C2531 C 0.22582 0.77356 0.07321 0.0
C2532 C 0.21576 0.76711 0.06021 0.0
C2533 C 0.21889 0.78166 0.08659 0.0
C2534 C 0.1986 0.76881 0.06101 0.0
C2535 C 0.19164 0.7767 0.07432 0.0
H2536 H 0.20943 0.80906 0.9374 0.0
H2537 H 0.24741 0.79927 0.90317 0.0
H2538 H 0.26507 0.78847 0.92541 0.0
H2539 H 0.26957 0.78142 0.95444 0.0
H2540 H 0.23186 0.79151 0.98901 0.0
H2541 H 0.21444 0.80286 0.96692 0.0
C2542 C 0.22152 0.80441 0.93487 0.0
C2543 C 0.22709 0.80479 0.91869 0.0
C2544 C 0.23175 0.79849 0.9478 0.0
C2545 C 0.24288 0.79903 0.91554 0.0
C2546 C 0.25299 0.79292 0.92825 0.0
C2547 C 0.25764 0.78628 0.95723 0.0
C2548 C 0.25209 0.78557 0.97342 0.0
C2549 C 0.24758 0.79261 0.94443 0.0
C2550 C 0.23652 0.79192 0.9767 0.0
C2551 C 0.22647 0.79831 0.96403 0.0
H2552 H 0.24448 0.19017 0.93862 0.0
H2553 H 0.23071 0.23141 0.90799 0.0
H2554 H 0.23909 0.25036 0.92989 0.0
H2555 H 0.24831 0.25537 0.95822 0.0
H2556 H 0.26286 0.21503 0.98943 0.0
H2557 H 0.25665 0.19562 0.96673 0.0
C2558 C 0.24354 0.20331 0.93667 0.0
C2559 C 0.23654 0.20928 0.92172 0.0
C2560 C 0.24854 0.21431 0.94942 0.0
C2561 C 0.23552 0.22638 0.91946 0.0
C2562 C 0.24044 0.23728 0.93196 0.0
C2563 C 0.2503 0.24233 0.96004 0.0
C2564 C 0.25588 0.23662 0.97552 0.0
C2565 C 0.2466 0.23138 0.94707 0.0
C2566 C 0.25863 0.21973 0.97761 0.0
C2567 C 0.25494 0.20865 0.96466 0.0
H2568 H 0.81027 0.22943 0.92058 0.0
H2569 H 0.86087 0.23428 0.93771 0.0
H2570 H 0.85199 0.24542 0.96383 0.0
H2571 H 0.82984 0.25304 0.98208 0.0
H2572 H 0.77928 0.24795 0.96489 0.0
H2573 H 0.78819 0.23706 0.93876 0.0
C2574 C 0.81938 0.23278 0.93007 0.0
C2575 C 0.83623 0.23095 0.92715 0.0
C2576 C 0.81419 0.23894 0.94514 0.0
C2577 C 0.84784 0.23572 0.9395 0.0
C2578 C 0.84276 0.24196 0.95451 0.0
C2579 C 0.82075 0.24967 0.9726 0.0
C2580 C 0.80388 0.25132 0.97556 0.0
C2581 C 0.82597 0.24356 0.95749 0.0
C2582 C 0.79231 0.24661 0.96315 0.0
C2583 C 0.79741 0.24051 0.94811 0.0
H2584 H 0.81367 0.8234 0.89809 0.0
H2585 H 0.80744 0.87367 0.9135 0.0
H2586 H 0.79391 0.86434 0.93812 0.0
H2587 H 0.78324 0.842 0.95515 0.0
H2588 H 0.78963 0.79169 0.94024 0.0
H2589 H 0.80388 0.80089 0.91585 0.0
C2590 C 0.80953 0.83231 0.90693 0.0
C2591 C 0.81143 0.84925 0.90375 0.0
C2592 C 0.80174 0.82685 0.92122 0.0
C2593 C 0.80587 0.86057 0.91537 0.0
C2594 C 0.79818 0.85525 0.92954 0.0
C2595 C 0.78767 0.83305 0.94653 0.0
C2596 C 0.78528 0.81617 0.94955 0.0
C2597 C 0.79587 0.83843 0.93251 0.0
C2598 C 0.7914 0.80474 0.93835 0.0
C2599 C 0.7995 0.81001 0.92433 0.0
H2600 H 0.1046 0.21262 0.20817 0.0
H2601 H 0.13174 0.19208 0.24957 0.0
H2602 H 0.11029 0.2005 0.26793 0.0
H2603 H 0.08403 0.21431 0.27245 0.0
H2604 H 0.05731 0.2354 0.23116 0.0
H2605 H 0.07847 0.22645 0.21268 0.0
C2606 C 0.10593 0.21011 0.22123 0.0
C2607 C 0.11983 0.20166 0.22739 0.0
C2608 C 0.09361 0.21515 0.23181 0.0
C2609 C 0.12112 0.19832 0.24436 0.0
C2610 C 0.10887 0.20323 0.25493 0.0
C2611 C 0.08276 0.2168 0.2594 0.0
C2612 C 0.06908 0.22557 0.25325 0.0
C2613 C 0.09506 0.21166 0.24881 0.0
C2614 C 0.06778 0.22888 0.23629 0.0
C2615 C 0.07986 0.22369 0.22568 0.0
H2616 H 0.84192 0.11134 0.21858 0.0
H2617 H 0.79271 0.12995 0.21229 0.0
H2618 H 0.78174 0.10554 0.22579 0.0
H2619 H 0.78623 0.07919 0.24032 0.0
H2620 H 0.83562 0.06107 0.24665 0.0
H2621 H 0.84634 0.08508 0.23257 0.0
C2622 C 0.82879 0.11016 0.22026 0.0
C2623 C 0.81821 0.12258 0.21444 0.0
C2624 C 0.82257 0.09617 0.22819 0.0
C2625 C 0.80118 0.12057 0.21646 0.0
C2626 C 0.79489 0.10663 0.22429 0.0
C2627 C 0.79931 0.08043 0.2385 0.0
C2628 C 0.81007 0.06833 0.24474 0.0
C2629 C 0.80547 0.09436 0.2303 0.0
C2630 C 0.82703 0.07027 0.24233 0.0
C2631 C 0.8332 0.08398 0.23415 0.0
H2632 H 0.90266 0.79952 0.21003 0.0
H2633 H 0.91714 0.85042 0.21602 0.0
H2634 H 0.94045 0.84246 0.23381 0.0
H2635 H 0.95718 0.82095 0.24725 0.0
H2636 H 0.94263 0.77009 0.24115 0.0
H2637 H 0.91913 0.7781 0.22374 0.0
C2638 C 0.91099 0.80886 0.21511 0.0
C2639 C 0.90811 0.82555 0.21166 0.0
C2640 C 0.92443 0.80421 0.22533 0.0
C2641 C 0.91892 0.8375 0.2186 0.0
C2642 C 0.93232 0.83296 0.22873 0.0
C2643 C 0.94877 0.81164 0.24226 0.0
C2644 C 0.95179 0.79493 0.24546 0.0
C2645 C 0.93522 0.81634 0.23219 0.0
C2646 C 0.94081 0.78302 0.23871 0.0
C2647 C 0.92729 0.7876 0.22878 0.0
H2648 H 0.20795 0.89812 0.21957 0.0
H2649 H 0.15804 0.91538 0.2197 0.0
H2650 H 0.16755 0.94147 0.23163 0.0
H2651 H 0.18995 0.95948 0.24219 0.0
H2652 H 0.23988 0.94231 0.24234 0.0
H2653 H 0.23049 0.91638 0.22992 0.0
C2654 C 0.19917 0.90764 0.22206 0.0
C2655 C 0.18226 0.90466 0.21881 0.0
C2656 C 0.20473 0.92273 0.22898 0.0
C2657 C 0.17108 0.91716 0.2223 0.0
C2658 C 0.17652 0.93215 0.22907 0.0
C2659 C 0.19879 0.95005 0.23965 0.0
C2660 C 0.21564 0.95298 0.24324 0.0
C2661 C 0.19329 0.93505 0.23257 0.0
C2662 C 0.22688 0.9406 0.23955 0.0
C2663 C 0.2215 0.92567 0.23251 0.0
H2664 H 0.11589 0.79993 0.816 0.0
H2665 H 0.10214 0.85091 0.81819 0.0
H2666 H 0.07504 0.84411 0.80634 0.0
H2667 H 0.05632 0.82447 0.79275 0.0
H2668 H 0.0693 0.77342 0.78953 0.0
H2669 H 0.09539 0.77932 0.80466 0.0
C2670 C 0.10683 0.80946 0.81413 0.0
C2671 C 0.11115 0.82598 0.81773 0.0
C2672 C 0.09115 0.80546 0.80706 0.0
C2673 C 0.09926 0.83818 0.81525 0.0
C2674 C 0.08373 0.8343 0.8085 0.0
C2675 C 0.06473 0.81454 0.79557 0.0
C2676 C 0.06092 0.79855 0.78991 0.0
C2677 C 0.07972 0.8181 0.80394 0.0
C2678 C 0.07189 0.78583 0.79382 0.0
C2679 C 0.08688 0.78925 0.80234 0.0
H2680 H 0.22208 0.09617 0.79603 0.0
H2681 H 0.23821 0.08673 0.84626 0.0
H2682 H 0.25293 0.06264 0.83732 0.0
H2683 H 0.262 0.04477 0.81537 0.0
H2684 H 0.24543 0.05314 0.76522 0.0
H2685 H 0.22949 0.07678 0.77415 0.0
C2686 C 0.22858 0.08873 0.8051 0.0
C2687 C 0.22913 0.09352 0.82183 0.0
C2688 C 0.2368 0.0746 0.79993 0.0
C2689 C 0.23786 0.08373 0.83328 0.0
C2690 C 0.24616 0.0698 0.82821 0.0
C2691 C 0.25478 0.05167 0.80638 0.0
C2692 C 0.25497 0.04727 0.78964 0.0
C2693 C 0.24585 0.06523 0.81157 0.0
C2694 C 0.24542 0.05622 0.77818 0.0
C2695 C 0.23643 0.06981 0.78328 0.0
H2696 H 0.93716 0.26409 0.82536 0.0
H2697 H 0.94984 0.21371 0.81577 0.0
H2698 H 0.9751 0.22287 0.80306 0.0
H2699 H 0.99349 0.24511 0.79437 0.0
H2700 H 0.98076 0.29557 0.80345 0.0
H2701 H 0.95584 0.28643 0.81694 0.0
C2702 C 0.94551 0.2551 0.82062 0.0
C2703 C 0.94151 0.2382 0.82152 0.0
C2704 C 0.96009 0.26046 0.81331 0.0
C2705 C 0.95242 0.22678 0.81506 0.0
C2706 C 0.96696 0.23201 0.80788 0.0
C2707 C 0.98538 0.25414 0.79943 0.0
C2708 C 0.98911 0.27104 0.79794 0.0
C2709 C 0.97091 0.24881 0.80692 0.0
C2710 C 0.97828 0.28251 0.80444 0.0
C2711 C 0.96398 0.27728 0.81212 0.0
H2712 H 0.8265 0.95635 0.81093 0.0
H2713 H 0.82541 0.93484 0.76245 0.0
H2714 H 0.81377 0.9601 0.75087 0.0
H2715 H 0.80219 0.98785 0.75493 0.0
H2716 H 0.80316 0.00867 0.80378 0.0
H2717 H 0.81665 0.98431 0.81473 0.0
C2718 C 0.82366 0.95718 0.79783 0.0
C2719 C 0.82664 0.94369 0.78761 0.0
C2720 C 0.817 0.97169 0.79129 0.0
C2721 C 0.82324 0.94507 0.7706 0.0
C2722 C 0.81655 0.9595 0.76397 0.0
C2723 C 0.80568 0.98715 0.76789 0.0
C2724 C 0.80165 1.00004 0.77852 0.0
C2725 C 0.81321 0.97287 0.77423 0.0
C2726 C 0.80606 0.99888 0.79534 0.0
C2727 C 0.81372 0.98493 0.80165 0.0
H2728 H 0.2371 0.09519 0.21077 0.0
H2729 H 0.18941 0.07666 0.19465 0.0
H2730 H 0.19791 0.04856 0.20077 0.0
H2731 H 0.21773 0.02971 0.2132 0.0
H2732 H 0.26492 0.048 0.23141 0.0
H2733 H 0.25796 0.07561 0.22174 0.0
C2734 C 0.22874 0.08491 0.20836 0.0
C2735 C 0.21266 0.08789 0.20229 0.0
C2736 C 0.2336 0.06878 0.21237 0.0
C2737 C 0.20182 0.07458 0.19935 0.0
C2738 C 0.20667 0.05855 0.20287 0.0
C2739 C 0.22666 0.03964 0.21485 0.0
C2740 C 0.24181 0.03672 0.22312 0.0
C2741 C 0.22237 0.05555 0.20975 0.0
C2742 C 0.25316 0.04983 0.22509 0.0
C2743 C 0.24915 0.06567 0.21965 0.0
H2744 H 0.24524 0.92458 0.84261 0.0
H2745 H 0.22705 0.90941 0.79443 0.0
H2746 H 0.24144 0.93268 0.78212 0.0
H2747 H 0.26037 0.95653 0.78495 0.0
H2748 H 0.27894 0.97101 0.83321 0.0
H2749 H 0.26367 0.94846 0.84548 0.0
C2750 C 0.2445 0.92624 0.82939 0.0
C2751 C 0.23516 0.91511 0.81948 0.0
C2752 C 0.25307 0.93942 0.82237 0.0
C2753 C 0.23402 0.91781 0.80241 0.0
C2754 C 0.24237 0.93105 0.79533 0.0
C2755 C 0.26097 0.95486 0.79816 0.0
C2756 C 0.27091 0.96548 0.8081 0.0
C2757 C 0.25208 0.94183 0.80518 0.0
C2758 C 0.27166 0.96293 0.8252 0.0
C2759 C 0.26281 0.95009 0.83226 0.0
H2760 H 0.13116 0.22435 0.81571 0.0
H2761 H 0.11225 0.17468 0.81816 0.0
H2762 H 0.08762 0.18259 0.80224 0.0
H2763 H 0.07121 0.20377 0.78802 0.0
H2764 H 0.09043 0.25331 0.7852 0.0
H2765 H 0.11501 0.24536 0.801 0.0
C2766 C 0.12158 0.21529 0.81287 0.0
C2767 C 0.12353 0.19896 0.81816 0.0
C2768 C 0.10747 0.21991 0.80365 0.0
C2769 C 0.11112 0.18731 0.81413 0.0
C2770 C 0.097 0.19184 0.80507 0.0
C2771 C 0.08083 0.21279 0.79069 0.0
C2772 C 0.07884 0.22916 0.78548 0.0
C2773 C 0.09504 0.20811 0.79975 0.0
C2774 C 0.09144 0.2407 0.78926 0.0
C2775 C 0.10557 0.23614 0.79825 0.0
H2776 H 0.84386 0.12181 0.8028 0.0
H2777 H 0.80275 0.1518 0.81536 0.0
H2778 H 0.78363 0.13013 0.80617 0.0
H2779 H 0.77845 0.10237 0.79524 0.0
H2780 H 0.81926 0.07227 0.78229 0.0
H2781 H 0.83854 0.09426 0.79069 0.0
C2782 C 0.83072 0.12367 0.80331 0.0
C2783 C 0.82479 0.13837 0.80995 0.0
C2784 C 0.8197 0.11109 0.79798 0.0
C2785 C 0.80769 0.14051 0.8106 0.0
C2786 C 0.79672 0.12814 0.8053 0.0
C2787 C 0.79156 0.10059 0.79436 0.0
C2788 C 0.79738 0.08565 0.78823 0.0
C2789 C 0.80257 0.11329 0.79918 0.0
C2790 C 0.81443 0.08368 0.78686 0.0
C2791 C 0.82548 0.09623 0.79172 0.0
H2792 H 0.93432 0.85572 0.79991 0.0
H2793 H 0.91754 0.80623 0.80942 0.0
H2794 H 0.9416 0.79532 0.79609 0.0
H2795 H 0.96678 0.79985 0.7806 0.0
H2796 H 0.98315 0.84944 0.77087 0.0
H2797 H 0.95965 0.86024 0.78501 0.0
C2798 C 0.93584 0.84253 0.79898 0.0
C2799 C 0.92402 0.83184 0.80561 0.0
C2800 C 0.94957 0.83634 0.7911 0.0
C2801 C 0.92646 0.81478 0.8046 0.0
C2802 C 0.94018 0.80852 0.79685 0.0
C2803 C 0.96534 0.81302 0.78172 0.0
C2804 C 0.97677 0.82379 0.77455 0.0
C2805 C 0.95175 0.81919 0.78993 0.0
C2806 C 0.97448 0.84083 0.77598 0.0
C2807 C 0.96107 0.84704 0.78418 0.0
H2808 H 0.82498 0.94434 0.20291 0.0
H2809 H 0.77783 0.91971 0.20098 0.0
H2810 H 0.76525 0.94371 0.21372 0.0
H2811 H 0.76868 0.97049 0.22867 0.0
H2812 H 0.81653 0.99394 0.23093 0.0
H2813 H 0.82774 0.97186 0.21467 0.0
C2814 C 0.8119 0.94433 0.20508 0.0
C2815 C 0.80238 0.93025 0.20122 0.0
C2816 C 0.80489 0.958 0.21256 0.0
C2817 C 0.7854 0.93044 0.20387 0.0
C2818 C 0.77825 0.94413 0.21124 0.0
C2819 C 0.78142 0.97092 0.22517 0.0
C2820 C 0.79179 0.9838 0.23102 0.0
C2821 C 0.78798 0.95783 0.21609 0.0
C2822 C 0.80834 0.98412 0.22662 0.0
C2823 C 0.81479 0.97147 0.21738 0.0
H2824 H 0.07387 0.80684 0.1992 0.0
H2825 H 0.09911 0.76169 0.2098 0.0
H2826 H 0.0743 0.75012 0.22185 0.0
H2827 H 0.0461 0.75404 0.23184 0.0
H2828 H 0.02139 0.79954 0.22129 0.0
H2829 H 0.04501 0.8096 0.20641 0.0
C2830 C 0.07387 0.79444 0.20408 0.0
C2831 C 0.08832 0.78521 0.20383 0.0
C2832 C 0.05956 0.78787 0.21086 0.0
C2833 C 0.08812 0.76905 0.20992 0.0
C2834 C 0.07394 0.76244 0.21681 0.0
C2835 C 0.04572 0.76588 0.22575 0.0
C2836 C 0.032 0.776 0.2275 0.0
C2837 C 0.05963 0.77183 0.2176 0.0
C2838 C 0.03179 0.79151 0.21996 0.0
C2839 C 0.04536 0.79735 0.2116 0.0
H2840 H 0.93128 0.24369 0.22125 0.0
H2841 H 0.94575 0.19282 0.22275 0.0
H2842 H 0.97296 0.20085 0.23341 0.0
H2843 H 0.99178 0.22179 0.24458 0.0
H2844 H 0.97809 0.27277 0.24383 0.0
H2845 H 0.95165 0.26533 0.2301 0.0
C2846 C 0.94047 0.23441 0.2237 0.0
C2847 C 0.93632 0.21762 0.22154 0.0
C2848 C 0.95625 0.23913 0.22989 0.0
C2849 C 0.94842 0.20576 0.22473 0.0
C2850 C 0.96405 0.21035 0.23071 0.0
C2851 C 0.98312 0.23134 0.24117 0.0
C2852 C 0.98681 0.24778 0.24528 0.0
C2853 C 0.96795 0.22692 0.23369 0.0
C2854 C 0.97557 0.26003 0.24067 0.0
C2855 C 0.96039 0.25574 0.23299 0.0
H2856 H 0.1959 0.73521 0.57838 0.0
H2857 H 0.23966 0.71907 0.60485 0.0
H2858 H 0.25638 0.72705 0.58196 0.0
H2859 H 0.25862 0.73702 0.55408 0.0
H2860 H 0.21584 0.75429 0.52703 0.0
H2861 H 0.19869 0.74778 0.55061 0.0
C2862 C 0.20911 0.73363 0.57917 0.0
C2863 C 0.21644 0.72614 0.59318 0.0
C2864 C 0.2188 0.73841 0.56589 0.0
C2865 C 0.23361 0.7243 0.59405 0.0
C2866 C 0.24322 0.72897 0.581 0.0
C2867 C 0.24553 0.73941 0.55332 0.0
C2868 C 0.23842 0.74585 0.53879 0.0
C2869 C 0.23593 0.7357 0.56678 0.0
C2870 C 0.22155 0.74926 0.53811 0.0
C2871 C 0.21177 0.74547 0.55155 0.0
H2872 H 0.807 0.72149 0.61125 0.0
H2873 H 0.85606 0.73135 0.59483 0.0
H2874 H 0.84488 0.7419 0.56892 0.0
H2875 H 0.8215 0.75028 0.5517 0.0
H2876 H 0.77211 0.74104 0.56715 0.0
H2877 H 0.78304 0.72787 0.59238 0.0
C2878 C 0.81522 0.72576 0.60191 0.0
C2879 C 0.8324 0.72594 0.60523 0.0
C2880 C 0.80866 0.73188 0.58682 0.0
C2881 C 0.84283 0.73148 0.5929 0.0
C2882 C 0.83645 0.73742 0.57798 0.0
C2883 C 0.81306 0.7452 0.56048 0.0
C2884 C 0.796 0.74674 0.55758 0.0
C2885 C 0.81942 0.73799 0.57495 0.0
C2886 C 0.78529 0.73993 0.56901 0.0
C2887 C 0.79156 0.73255 0.58351 0.0
H2888 H 0.81288 0.33652 0.5888 0.0
H2889 H 0.82948 0.29348 0.61514 0.0
H2890 H 0.82074 0.27607 0.59202 0.0
H2891 H 0.80842 0.27291 0.56422 0.0
H2892 H 0.79054 0.31547 0.53822 0.0
H2893 H 0.79959 0.33319 0.56125 0.0
C2894 C 0.8144 0.32332 0.58955 0.0
C2895 C 0.82203 0.31639 0.60363 0.0
C2896 C 0.80919 0.31328 0.57621 0.0
C2897 C 0.82398 0.29923 0.60433 0.0
C2898 C 0.81892 0.28922 0.59113 0.0
C2899 C 0.80669 0.28608 0.56357 0.0
C2900 C 0.79899 0.29292 0.54954 0.0
C2901 C 0.81165 0.29611 0.57695 0.0
C2902 C 0.79645 0.30997 0.54895 0.0
C2903 C 0.80161 0.32008 0.5621 0.0
H2904 H 0.2258 0.35634 0.6126 0.0
H2905 H 0.21899 0.30867 0.63467 0.0
H2906 H 0.23192 0.2957 0.6113 0.0
H2907 H 0.24645 0.29806 0.58511 0.0
H2908 H 0.25342 0.346 0.56363 0.0
H2909 H 0.23956 0.35864 0.58641 0.0
C2910 C 0.22722 0.34311 0.61241 0.0
C2911 C 0.22149 0.33356 0.62553 0.0
C2912 C 0.23489 0.33576 0.59906 0.0
C2913 C 0.22313 0.31638 0.62475 0.0
C2914 C 0.23065 0.30894 0.61142 0.0
C2915 C 0.24481 0.31125 0.58532 0.0
C2916 C 0.25117 0.32103 0.57264 0.0
C2917 C 0.23674 0.31853 0.59855 0.0
C2918 C 0.24899 0.33815 0.57329 0.0
C2919 C 0.24094 0.34541 0.58629 0.0
H2920 H 0.20789 0.29204 0.43714 0.0
H2921 H 0.21079 0.34368 0.44942 0.0
H2922 H 0.22348 0.33722 0.47607 0.0
H2923 H 0.23609 0.31742 0.49478 0.0
H2924 H 0.23386 0.26571 0.48337 0.0
H2925 H 0.21811 0.27158 0.45775 0.0
C2926 C 0.21107 0.30184 0.44576 0.0
C2927 C 0.20872 0.31838 0.44107 0.0
C2928 C 0.21844 0.29802 0.46123 0.0
C2929 C 0.21287 0.3309 0.45246 0.0
C2930 C 0.22003 0.32722 0.46778 0.0
C2931 C 0.2319 0.30738 0.48683 0.0
C2932 C 0.23619 0.29117 0.49088 0.0
C2933 C 0.22324 0.3109 0.47211 0.0
C2934 C 0.23059 0.27828 0.48056 0.0
C2935 C 0.22176 0.28168 0.46584 0.0
H2936 H 0.21145 0.69938 0.41083 0.0
H2937 H 0.25691 0.68106 0.39237 0.0
H2938 H 0.2719 0.69214 0.41645 0.0
H2939 H 0.27227 0.70763 0.44259 0.0
H2940 H 0.22717 0.72756 0.45982 0.0
H2941 H 0.21196 0.71565 0.43617 0.0
C2942 C 0.22467 0.69799 0.41186 0.0
C2943 C 0.23294 0.68931 0.39969 0.0
C2944 C 0.23333 0.70478 0.42553 0.0
C2945 C 0.25007 0.68739 0.40161 0.0
C2946 C 0.25873 0.69385 0.41534 0.0
C2947 C 0.25911 0.70926 0.44115 0.0
C2948 C 0.25083 0.71842 0.45291 0.0
C2949 C 0.25049 0.70258 0.42738 0.0
C2950 C 0.23381 0.72068 0.45084 0.0
C2951 C 0.22511 0.71381 0.43737 0.0
H2952 H 0.82413 0.73912 0.4162 0.0
H2953 H 0.80275 0.69462 0.43554 0.0
H2954 H 0.79505 0.7094 0.46014 0.0
H2955 H 0.79489 0.73485 0.47669 0.0
H2956 H 0.8174 0.77892 0.45793 0.0
H2957 H 0.82447 0.76434 0.43292 0.0
C2958 C 0.81796 0.73254 0.42583 0.0
C2959 C 0.81401 0.71568 0.42378 0.0
C2960 C 0.81382 0.74105 0.44021 0.0
C2961 C 0.80572 0.70761 0.43645 0.0
C2962 C 0.8014 0.71604 0.45067 0.0
C2963 C 0.80124 0.74129 0.46708 0.0
C2964 C 0.80559 0.758 0.46926 0.0
C2965 C 0.8054 0.73276 0.45271 0.0
C2966 C 0.81404 0.76605 0.45672 0.0
C2967 C 0.81803 0.75772 0.44235 0.0
H2968 H 0.7899 0.33724 0.42899 0.0
H2969 H 0.80235 0.29325 0.40264 0.0
H2970 H 0.78884 0.2764 0.42296 0.0
H2971 H 0.776 0.27383 0.44937 0.0
H2972 H 0.76348 0.31705 0.47668 0.0
H2973 H 0.77404 0.33458 0.45465 0.0
C2974 C 0.78941 0.32399 0.42761 0.0
C2975 C 0.79745 0.3165 0.41448 0.0
C2976 C 0.78161 0.31425 0.43949 0.0
C2977 C 0.79665 0.29931 0.41282 0.0
C2978 C 0.78884 0.28965 0.42439 0.0
C2979 C 0.77535 0.28711 0.45041 0.0
C2980 C 0.76913 0.29417 0.46465 0.0
C2981 C 0.78169 0.29695 0.43796 0.0
C2982 C 0.76815 0.31135 0.46577 0.0
C2983 C 0.77434 0.32134 0.45325 0.0
H2984 H 0.10824 0.7333 0.68295 0.0
H2985 H 0.12958 0.72853 0.73195 0.0
H2986 H 0.10744 0.7449 0.7429 0.0
H2987 H 0.08223 0.76094 0.73848 0.0
H2988 H 0.06096 0.76537 0.68937 0.0
H2989 H 0.08313 0.74925 0.67856 0.0
C2990 C 0.10817 0.73596 0.69601 0.0
C2991 C 0.12063 0.72968 0.70658 0.0
C2992 C 0.09546 0.74547 0.70222 0.0
C2993 C 0.12008 0.73301 0.72353 0.0
C2994 C 0.10747 0.74248 0.72979 0.0
C2995 C 0.08233 0.75831 0.72543 0.0
C2996 C 0.06982 0.7645 0.71482 0.0
C2997 C 0.09509 0.74879 0.71925 0.0
C2998 C 0.07044 0.76108 0.69788 0.0
C2999 C 0.08309 0.7517 0.69166 0.0
H3000 H 0.85596 0.60775 0.71424 0.0
H3001 H 0.80536 0.62279 0.7101 0.0
H3002 H 0.79685 0.59816 0.72491 0.0
H3003 H 0.80388 0.57281 0.73967 0.0
H3004 H 0.85451 0.55753 0.74328 0.0
H3005 H 0.8629 0.58204 0.72848 0.0
C3006 C 0.84308 0.60569 0.71666 0.0
C3007 C 0.83133 0.61714 0.71109 0.0
C3008 C 0.83828 0.59153 0.72523 0.0
C3009 C 0.81465 0.61411 0.71409 0.0
C3010 C 0.80979 0.60008 0.72266 0.0
C3011 C 0.81674 0.57466 0.7371 0.0
C3012 C 0.82849 0.56318 0.74271 0.0
C3013 C 0.8215 0.58873 0.72834 0.0
C3014 C 0.84514 0.56614 0.73941 0.0
C3015 C 0.84998 0.58015 0.73081 0.0
H3016 H 0.9482 0.31431 0.68222 0.0
H3017 H 0.92482 0.31961 0.72873 0.0
H3018 H 0.94772 0.30557 0.74263 0.0
H3019 H 0.97357 0.29044 0.74129 0.0
H3020 H 0.99684 0.2852 0.69466 0.0
H3021 H 0.97448 0.30004 0.68105 0.0
C3022 C 0.94808 0.31237 0.6954 0.0
C3023 C 0.93473 0.31794 0.70439 0.0
C3024 C 0.96114 0.30405 0.70327 0.0
C3025 C 0.93498 0.31561 0.72152 0.0
C3026 C 0.94801 0.30743 0.72945 0.0
C3027 C 0.97391 0.29267 0.72819 0.0
C3028 C 0.98696 0.28654 0.71907 0.0
C3029 C 0.96106 0.30141 0.72041 0.0
C3030 C 0.98692 0.28944 0.70202 0.0
C3031 C 0.97416 0.29808 0.69421 0.0
H3032 H 0.23591 0.42812 0.73251 0.0
H3033 H 0.19013 0.45408 0.73327 0.0
H3034 H 0.20488 0.4794 0.74154 0.0
H3035 H 0.23136 0.49479 0.74589 0.0
H3036 H 0.27682 0.46835 0.744 0.0
H3037 H 0.26173 0.44264 0.73906 0.0
C3038 C 0.22916 0.43932 0.73453 0.0
C3039 C 0.212 0.43928 0.73206 0.0
C3040 C 0.23771 0.45378 0.73913 0.0
C3041 C 0.20336 0.45379 0.73508 0.0
C3042 C 0.21181 0.46829 0.73975 0.0
C3043 C 0.23785 0.48331 0.7448 0.0
C3044 C 0.25513 0.48339 0.74531 0.0
C3045 C 0.22904 0.46853 0.7415 0.0
C3046 C 0.26349 0.46852 0.74363 0.0
C3047 C 0.25489 0.45384 0.74072 0.0
H3048 H 0.10409 0.33703 0.30829 0.0
H3049 H 0.1302 0.29333 0.32317 0.0
H3050 H 0.10763 0.2762 0.31246 0.0
H3051 H 0.07991 0.27345 0.30079 0.0
H3052 H 0.05311 0.31627 0.28508 0.0
H3053 H 0.07664 0.33393 0.29381 0.0
C3054 C 0.10491 0.32376 0.30896 0.0
C3055 C 0.11871 0.31652 0.3169 0.0
C3056 C 0.09177 0.31383 0.30266 0.0
C3057 C 0.11957 0.29928 0.31759 0.0
C3058 C 0.1067 0.28943 0.31137 0.0
C3059 C 0.07923 0.28666 0.29915 0.0
C3060 C 0.06475 0.29359 0.29251 0.0
C3061 C 0.09264 0.29657 0.30423 0.0
C3062 C 0.06415 0.31067 0.29017 0.0
C3063 C 0.07756 0.32074 0.29526 0.0
H3064 H 0.20718 0.59775 0.2686 0.0
H3065 H 0.18935 0.57734 0.31356 0.0
H3066 H 0.20074 0.55061 0.30677 0.0
H3067 H 0.21802 0.53391 0.28961 0.0
H3068 H 0.23764 0.55433 0.24533 0.0
H3069 H 0.2231 0.58 0.25007 0.0
C3070 C 0.20554 0.58731 0.27667 0.0
C3071 C 0.19738 0.5894 0.29151 0.0
C3072 C 0.21254 0.57202 0.27286 0.0
C3073 C 0.19552 0.57592 0.30205 0.0
C3074 C 0.20208 0.56068 0.2982 0.0
C3075 C 0.21896 0.54385 0.28081 0.0
C3076 C 0.22904 0.54214 0.26717 0.0
C3077 C 0.21095 0.55869 0.28385 0.0
C3078 C 0.22999 0.55523 0.25593 0.0
C3079 C 0.22175 0.56998 0.2587 0.0
H3080 H 0.91416 0.70465 0.29747 0.0
H3081 H 0.93553 0.70857 0.34663 0.0
H3082 H 0.96147 0.7179 0.33565 0.0
H3083 H 0.9773 0.72738 0.31256 0.0
H3084 H 0.95666 0.72424 0.26317 0.0
H3085 H 0.93144 0.7117 0.27366 0.0
C3086 C 0.92458 0.70731 0.30573 0.0
C3087 C 0.92274 0.70623 0.32291 0.0
C3088 C 0.93961 0.71277 0.29929 0.0
C3089 C 0.93641 0.7097 0.33342 0.0
C3090 C 0.95131 0.71494 0.32715 0.0
C3091 C 0.96739 0.7237 0.30403 0.0
C3092 C 0.96881 0.72682 0.28713 0.0
C3093 C 0.95292 0.71691 0.31017 0.0
C3094 C 0.95593 0.72186 0.27623 0.0
C3095 C 0.94144 0.71486 0.28226 0.0
H3096 H 0.84894 0.43158 0.30521 0.0
H3097 H 0.80108 0.40824 0.30635 0.0
H3098 H 0.7889 0.43159 0.29189 0.0
H3099 H 0.79181 0.45857 0.27864 0.0
H3100 H 0.83968 0.48189 0.27755 0.0
H3101 H 0.85185 0.4585 0.29185 0.0
C3102 C 0.83587 0.43151 0.30216 0.0
C3103 C 0.82598 0.41813 0.30694 0.0
C3104 C 0.82891 0.44498 0.29374 0.0
C3105 C 0.809 0.41844 0.30307 0.0
C3106 C 0.80201 0.43176 0.29469 0.0
C3107 C 0.80488 0.45863 0.28163 0.0
C3108 C 0.81475 0.47207 0.27694 0.0
C3109 C 0.81184 0.44513 0.28999 0.0
C3110 C 0.83175 0.4717 0.28075 0.0
C3111 C 0.83874 0.45834 0.28905 0.0
H3112 H 0.2482 0.62373 0.68562 0.0
H3113 H 0.20316 0.6111 0.70948 0.0
H3114 H 0.21639 0.58713 0.72194 0.0
H3115 H 0.24045 0.56871 0.72475 0.0
H3116 H 0.28434 0.58053 0.69878 0.0
H3117 H 0.2717 0.60555 0.68806 0.0
C3118 C 0.2411 0.61566 0.69334 0.0
C3119 C 0.22456 0.61925 0.69636 0.0
C3120 C 0.24858 0.6016 0.69999 0.0
C3121 C 0.21591 0.60884 0.70696 0.0
C3122 C 0.22344 0.595 0.714 0.0
C3123 C 0.24722 0.57686 0.71682 0.0
C3124 C 0.26329 0.57275 0.7125 0.0
C3125 C 0.23972 0.59113 0.71043 0.0
C3126 C 0.27191 0.58332 0.70211 0.0
C3127 C 0.26471 0.59766 0.69605 0.0
H3128 H 0.22917 0.41381 0.31092 0.0
H3129 H 0.229 0.43629 0.35898 0.0
H3130 H 0.24222 0.46095 0.34832 0.0
H3131 H 0.25396 0.47616 0.32548 0.0
H3132 H 0.25483 0.4537 0.27744 0.0
H3133 H 0.24106 0.42923 0.28788 0.0
C3134 C 0.2319 0.42418 0.319 0.0
C3135 C 0.22816 0.42314 0.33576 0.0
C3136 C 0.23966 0.43837 0.3128 0.0
C3137 C 0.23192 0.43665 0.34609 0.0
C3138 C 0.23945 0.4508 0.34 0.0
C3139 C 0.25133 0.46589 0.31729 0.0
C3140 C 0.2555 0.46691 0.30065 0.0
C3141 C 0.24349 0.45176 0.32341 0.0
C3142 C 0.25164 0.45345 0.29024 0.0
C3143 C 0.2438 0.43937 0.29623 0.0
H3144 H 0.10941 0.70946 0.29041 0.0
H3145 H 0.10226 0.71082 0.34268 0.0
H3146 H 0.07659 0.72553 0.33824 0.0
H3147 H 0.05646 0.73879 0.31964 0.0
H3148 H 0.06328 0.7376 0.26735 0.0
H3149 H 0.08857 0.72205 0.2716 0.0
C3150 C 0.1021 0.7128 0.30077 0.0
C3151 C 0.10784 0.70916 0.31685 0.0
C3152 C 0.08731 0.72141 0.29814 0.0
C3153 C 0.09825 0.71366 0.33019 0.0
C3154 C 0.08355 0.72208 0.32767 0.0
C3155 C 0.06355 0.73523 0.3092 0.0
C3156 C 0.05798 0.73942 0.29322 0.0
C3157 C 0.07806 0.72624 0.31173 0.0
C3158 C 0.06719 0.73443 0.27978 0.0
C3159 C 0.0817 0.72556 0.28221 0.0
H3160 H 0.8027 0.59567 0.33036 0.0
H3161 H 0.80312 0.62694 0.28763 0.0
H3162 H 0.79037 0.60513 0.27085 0.0
H3163 H 0.78268 0.57625 0.26742 0.0
H3164 H 0.78228 0.54408 0.30935 0.0
H3165 H 0.79113 0.56708 0.32742 0.0
C3166 C 0.79959 0.59776 0.31747 0.0
C3167 C 0.80398 0.61283 0.31018 0.0
C3168 C 0.79243 0.58495 0.30774 0.0
C3169 C 0.79998 0.6154 0.29346 0.0
C3170 C 0.79273 0.60292 0.28385 0.0
C3171 C 0.78419 0.57436 0.28058 0.0
C3172 C 0.78195 0.55853 0.28707 0.0
C3173 C 0.78945 0.5875 0.29071 0.0
C3174 C 0.78383 0.55621 0.30412 0.0
C3175 C 0.78905 0.56934 0.3144 0.0
H3176 H 0.92019 0.30808 0.31506 0.0
H3177 H 0.93517 0.30752 0.3664 0.0
H3178 H 0.96098 0.29449 0.35968 0.0
H3179 H 0.9793 0.28306 0.33925 0.0
H3180 H 0.96398 0.28292 0.28795 0.0
H3181 H 0.93855 0.29652 0.2946 0.0
C3182 C 0.92919 0.30525 0.32475 0.0
C3183 C 0.92572 0.30876 0.34121 0.0
C3184 C 0.94399 0.29759 0.32081 0.0
C3185 C 0.93744 0.30481 0.35364 0.0
C3186 C 0.95223 0.29738 0.34981 0.0
C3187 C 0.97037 0.28586 0.32952 0.0
C3188 C 0.97373 0.28197 0.31309 0.0
C3189 C 0.95561 0.2936 0.33344 0.0
C3190 C 0.96197 0.28594 0.30067 0.0
C3191 C 0.94732 0.29368 0.30447 0.0
H3192 H 0.81973 0.43483 0.69512 0.0
H3193 H 0.82862 0.40747 0.73987 0.0
H3194 H 0.81651 0.42926 0.75581 0.0
H3195 H 0.80645 0.45719 0.75759 0.0
H3196 H 0.79746 0.48551 0.71362 0.0
H3197 H 0.80616 0.4622 0.69676 0.0
C3198 C 0.81871 0.43357 0.70831 0.0
C3199 C 0.82539 0.41968 0.71635 0.0
C3200 C 0.81179 0.44634 0.71754 0.0
C3201 C 0.82392 0.41817 0.73345 0.0
C3202 C 0.81695 0.43061 0.74258 0.0
C3203 C 0.80611 0.45816 0.74427 0.0
C3204 C 0.80147 0.47303 0.73683 0.0
C3205 C 0.81133 0.44492 0.73483 0.0
C3206 C 0.80091 0.47412 0.7196 0.0
C3207 C 0.80604 0.46085 0.71 0.0
H3208 H 0.0989 0.34495 0.72874 0.0
H3209 H 0.12566 0.29968 0.73292 0.0
H3210 H 0.10296 0.28695 0.7474 0.0
H3211 H 0.07492 0.28813 0.75748 0.0
H3212 H 0.04713 0.33263 0.75152 0.0
H3213 H 0.07084 0.3463 0.73945 0.0
C3214 C 0.09978 0.33235 0.73296 0.0
C3215 C 0.11392 0.32325 0.72969 0.0
C3216 C 0.08651 0.32499 0.74103 0.0
C3217 C 0.11484 0.30688 0.73511 0.0
C3218 C 0.1019 0.29962 0.74346 0.0
C3219 C 0.07414 0.30092 0.75384 0.0
C3220 C 0.0593 0.3094 0.75555 0.0
C3221 C 0.08759 0.30849 0.74633 0.0
C3222 C 0.05842 0.32586 0.75042 0.0
C3223 C 0.07196 0.33365 0.74344 0.0
H3224 H 0.93108 0.72112 0.74498 0.0
H3225 H 0.94673 0.73092 0.69574 0.0
H3226 H 0.972 0.74381 0.70687 0.0
H3227 H 0.98968 0.75239 0.73054 0.0
H3228 H 0.974 0.74265 0.77979 0.0
H3229 H 0.94899 0.72923 0.76865 0.0
C3230 C 0.94007 0.72592 0.73664 0.0
C3231 C 0.93691 0.72499 0.71949 0.0
C3232 C 0.95469 0.73319 0.74313 0.0
C3233 C 0.94864 0.73163 0.70896 0.0
C3234 C 0.9632 0.73888 0.71532 0.0
C3235 C 0.98091 0.74717 0.73888 0.0
C3236 C 0.98384 0.74848 0.75603 0.0
C3237 C 0.96638 0.73971 0.73238 0.0
C3238 C 0.97216 0.74179 0.76657 0.0
C3239 C 0.95779 0.73417 0.76019 0.0
H3240 H 0.69599 0.22988 0.58796 0.0
H3241 H 0.74248 0.22918 0.61497 0.0
H3242 H 0.75547 0.24449 0.5931 0.0
H3243 H 0.75461 0.25459 0.56498 0.0
H3244 H 0.70896 0.25469 0.53667 0.0
H3245 H 0.6945 0.24351 0.56039 0.0
C3246 C 0.70886 0.23343 0.58913 0.0
C3247 C 0.71835 0.22825 0.60294 0.0
C3248 C 0.71639 0.24203 0.57624 0.0
C3249 C 0.73502 0.23287 0.60436 0.0
C3250 C 0.74245 0.24161 0.59186 0.0
C3251 C 0.7414 0.25251 0.56413 0.0
C3252 C 0.73285 0.25534 0.54914 0.0
C3253 C 0.7334 0.24574 0.57755 0.0
C3254 C 0.71576 0.25271 0.54816 0.0
C3255 C 0.70756 0.24614 0.56166 0.0
H3256 H 0.31434 0.21178 0.60555 0.0
H3257 H 0.32244 0.25721 0.63226 0.0
H3258 H 0.30658 0.27202 0.61134 0.0
H3259 H 0.29316 0.27278 0.58419 0.0
H3260 H 0.28464 0.22808 0.55664 0.0
H3261 H 0.29753 0.21217 0.57924 0.0
C3262 C 0.31235 0.22485 0.60689 0.0
C3263 C 0.31988 0.23344 0.62028 0.0
C3264 C 0.3032 0.23342 0.59464 0.0
C3265 C 0.31713 0.25038 0.62189 0.0
C3266 C 0.30801 0.25887 0.60996 0.0
C3267 C 0.29387 0.2595 0.58324 0.0
C3268 C 0.28812 0.2516 0.56877 0.0
C3269 C 0.30144 0.25062 0.59608 0.0
C3270 C 0.28893 0.2344 0.56773 0.0
C3271 C 0.29644 0.22536 0.58059 0.0
H3272 H 0.31731 0.79549 0.60977 0.0
H3273 H 0.30068 0.84184 0.58986 0.0
H3274 H 0.29274 0.82829 0.564 0.0
H3275 H 0.29202 0.80352 0.54634 0.0
H3276 H 0.31152 0.75817 0.56538 0.0
H3277 H 0.31745 0.77123 0.59209 0.0
C3278 C 0.31221 0.80279 0.59976 0.0
C3279 C 0.30977 0.81979 0.60191 0.0
C3280 C 0.30837 0.7951 0.58464 0.0
C3281 C 0.30254 0.82874 0.58881 0.0
C3282 C 0.29815 0.82103 0.57389 0.0
C3283 C 0.29751 0.79655 0.5564 0.0
C3284 C 0.30137 0.77995 0.55397 0.0
C3285 C 0.30121 0.80427 0.57159 0.0
C3286 C 0.30862 0.77101 0.56698 0.0
C3287 C 0.31192 0.77845 0.58224 0.0
H3288 H 0.7419 0.83841 0.62459 0.0
H3289 H 0.69517 0.8177 0.60784 0.0
H3290 H 0.70804 0.80634 0.58369 0.0
H3291 H 0.73243 0.80351 0.56636 0.0
H3292 H 0.7784 0.82605 0.58252 0.0
H3293 H 0.76587 0.83581 0.60751 0.0
C3294 C 0.73438 0.8316 0.61562 0.0
C3295 C 0.71745 0.82912 0.61817 0.0
C3296 C 0.74175 0.82552 0.60146 0.0
C3297 C 0.70822 0.81975 0.60648 0.0
C3298 C 0.71556 0.81334 0.59251 0.0
C3299 C 0.7397 0.81045 0.57543 0.0
C3300 C 0.75634 0.8141 0.5725 0.0
C3301 C 0.7323 0.81629 0.58976 0.0
C3302 C 0.76555 0.82326 0.58433 0.0
C3303 C 0.7584 0.82878 0.59868 0.0
H3304 H 0.7094 0.79245 0.43264 0.0
H3305 H 0.71356 0.84423 0.44409 0.0
H3306 H 0.7265 0.8379 0.47065 0.0
H3307 H 0.7384 0.81808 0.48983 0.0
H3308 H 0.73484 0.76621 0.47926 0.0
H3309 H 0.71942 0.77211 0.45346 0.0
C3310 C 0.71294 0.80233 0.44104 0.0
C3311 C 0.71077 0.81885 0.43611 0.0
C3312 C 0.72041 0.79859 0.45651 0.0
C3313 C 0.71546 0.83145 0.44724 0.0
C3314 C 0.72275 0.82784 0.46254 0.0
C3315 C 0.73406 0.808 0.48201 0.0
C3316 C 0.73785 0.79172 0.48644 0.0
C3317 C 0.72557 0.81151 0.46716 0.0
C3318 C 0.732 0.77884 0.47622 0.0
C3319 C 0.72333 0.78224 0.46138 0.0
H3320 H 0.71208 0.21611 0.40477 0.0
H3321 H 0.71148 0.16708 0.42483 0.0
H3322 H 0.72433 0.17722 0.45051 0.0
H3323 H 0.73599 0.19997 0.46722 0.0
H3324 H 0.73715 0.24891 0.44694 0.0
H3325 H 0.72365 0.23892 0.42159 0.0
C3326 C 0.71461 0.20769 0.41484 0.0
C3327 C 0.71087 0.19087 0.41286 0.0
C3328 C 0.72211 0.21359 0.42956 0.0
C3329 C 0.7144 0.18007 0.42596 0.0
C3330 C 0.72171 0.18586 0.44067 0.0
C3331 C 0.73342 0.20843 0.45722 0.0
C3332 C 0.73756 0.22519 0.45909 0.0
C3333 C 0.72575 0.20257 0.44257 0.0
C3334 C 0.73389 0.236 0.44602 0.0
C3335 C 0.72624 0.23028 0.43144 0.0
H3336 H 0.3232 0.23679 0.42519 0.0
H3337 H 0.30327 0.19248 0.44644 0.0
H3338 H 0.29594 0.20778 0.47077 0.0
H3339 H 0.29522 0.23374 0.48636 0.0
H3340 H 0.31693 0.27753 0.46625 0.0
H3341 H 0.3239 0.26238 0.44144 0.0
C3342 C 0.31748 0.23035 0.43519 0.0
C3343 C 0.31365 0.21341 0.43366 0.0
C3344 C 0.31365 0.23916 0.44949 0.0
C3345 C 0.30601 0.20553 0.44686 0.0
C3346 C 0.30192 0.21426 0.46094 0.0
C3347 C 0.30142 0.23995 0.47651 0.0
C3348 C 0.30548 0.25677 0.47812 0.0
C3349 C 0.3056 0.23109 0.46238 0.0
C3350 C 0.31377 0.26459 0.46536 0.0
C3351 C 0.31769 0.25593 0.45114 0.0
H3352 H 0.28672 0.82444 0.41447 0.0
H3353 H 0.33677 0.82825 0.43354 0.0
H3354 H 0.32905 0.81444 0.45869 0.0
H3355 H 0.30894 0.79893 0.47405 0.0
H3356 H 0.25876 0.79475 0.4558 0.0
H3357 H 0.26552 0.81145 0.43174 0.0
C3358 C 0.29585 0.8225 0.42426 0.0
C3359 C 0.31239 0.82705 0.42195 0.0
C3360 C 0.29131 0.81448 0.43881 0.0
C3361 C 0.32406 0.82449 0.4348 0.0
C3362 C 0.31965 0.81667 0.44924 0.0
C3363 C 0.29941 0.80188 0.46492 0.0
C3364 C 0.28344 0.7955 0.46656 0.0
C3365 C 0.30345 0.81122 0.45116 0.0
C3366 C 0.27114 0.79957 0.45479 0.0
C3367 C 0.27506 0.809 0.44099 0.0
H3368 H 0.60406 0.22123 0.69833 0.0
H3369 H 0.6378 0.20811 0.73802 0.0
H3370 H 0.61792 0.21658 0.75811 0.0
H3371 H 0.59124 0.22836 0.76444 0.0
H3372 H 0.55716 0.24082 0.72475 0.0
H3373 H 0.57693 0.23221 0.70473 0.0
C3374 C 0.60708 0.22031 0.71138 0.0
C3375 C 0.62241 0.21406 0.71665 0.0
C3376 C 0.59554 0.22515 0.7229 0.0
C3377 C 0.62604 0.21273 0.73362 0.0
C3378 C 0.61469 0.21764 0.74513 0.0
C3379 C 0.588 0.22902 0.75144 0.0
C3380 C 0.57268 0.2354 0.74622 0.0
C3381 C 0.59941 0.22389 0.73992 0.0
C3382 C 0.56891 0.23628 0.72922 0.0
C3383 C 0.5802 0.23126 0.71771 0.0
H3384 H 0.31494 0.12024 0.7189 0.0
H3385 H 0.3658 0.10737 0.71383 0.0
H3386 H 0.36119 0.08172 0.72852 0.0
H3387 H 0.34277 0.06282 0.74282 0.0
H3388 H 0.29188 0.07544 0.74779 0.0
H3389 H 0.29638 0.10108 0.73294 0.0
C3390 C 0.32498 0.11175 0.72086 0.0
C3391 C 0.34072 0.11584 0.71533 0.0
C3392 C 0.32224 0.09692 0.72931 0.0
C3393 C 0.35361 0.10472 0.71816 0.0
C3394 C 0.35098 0.08998 0.72651 0.0
C3395 C 0.3327 0.07123 0.74079 0.0
C3396 C 0.31701 0.06715 0.74644 0.0
C3397 C 0.33538 0.08598 0.73223 0.0
C3398 C 0.30404 0.07813 0.74343 0.0
C3399 C 0.30662 0.09286 0.73499 0.0
H3400 H 0.41185 0.79135 0.7117 0.0
H3401 H 0.43547 0.83661 0.69753 0.0
H3402 H 0.46238 0.82547 0.70559 0.0
H3403 H 0.47928 0.80225 0.71553 0.0
H3404 H 0.45565 0.75777 0.73149 0.0
H3405 H 0.42857 0.76904 0.72386 0.0
C3406 C 0.42291 0.79878 0.71055 0.0
C3407 C 0.42177 0.81473 0.704 0.0
C3408 C 0.43827 0.79234 0.71537 0.0
C3409 C 0.4361 0.82434 0.70265 0.0
C3410 C 0.45146 0.81793 0.70715 0.0
C3411 C 0.46814 0.79511 0.71727 0.0
C3412 C 0.46928 0.77916 0.72375 0.0
C3413 C 0.45271 0.80187 0.71329 0.0
C3414 C 0.45489 0.77003 0.72638 0.0
C3415 C 0.4395 0.77647 0.72204 0.0
H3416 H 0.7217 0.92828 0.72582 0.0
H3417 H 0.67265 0.94735 0.72062 0.0
H3418 H 0.68237 0.97413 0.73092 0.0
H3419 H 0.70483 0.99215 0.74117 0.0
H3420 H 0.7537 0.97263 0.74779 0.0
H3421 H 0.74407 0.94617 0.73707 0.0
C3422 C 0.7132 0.93836 0.72686 0.0
C3423 C 0.6965 0.93588 0.72242 0.0
C3424 C 0.71883 0.95366 0.73305 0.0
C3425 C 0.68555 0.94895 0.72404 0.0
C3426 C 0.69111 0.96427 0.72991 0.0
C3427 C 0.71339 0.98213 0.74049 0.0
C3428 C 0.73006 0.98463 0.74522 0.0
C3429 C 0.70772 0.96676 0.7345 0.0
C3430 C 0.74089 0.97134 0.744 0.0
C3431 C 0.73537 0.95608 0.73792 0.0
H3432 H 0.60471 0.83549 0.30243 0.0
H3433 H 0.62603 0.79103 0.32222 0.0
H3434 H 0.60314 0.77497 0.31054 0.0
H3435 H 0.57692 0.77337 0.29547 0.0
H3436 H 0.55532 0.81701 0.27451 0.0
H3437 H 0.57876 0.83351 0.28547 0.0
C3438 C 0.60446 0.82227 0.30404 0.0
C3439 C 0.61705 0.81459 0.31352 0.0
C3440 C 0.59127 0.81294 0.29701 0.0
C3441 C 0.61638 0.79742 0.31546 0.0
C3442 C 0.60334 0.78815 0.30863 0.0
C3443 C 0.57729 0.78651 0.29323 0.0
C3444 C 0.5643 0.79398 0.28433 0.0
C3445 C 0.59067 0.79579 0.29956 0.0
C3446 C 0.56516 0.81096 0.28132 0.0
C3447 C 0.57852 0.82038 0.28767 0.0
H3448 H 0.70261 0.10061 0.27507 0.0
H3449 H 0.69255 0.08231 0.32348 0.0
H3450 H 0.70666 0.05685 0.31757 0.0
H3451 H 0.72418 0.04103 0.29998 0.0
H3452 H 0.73555 0.05895 0.25178 0.0
H3453 H 0.71837 0.08308 0.25607 0.0
C3454 C 0.70327 0.09089 0.28415 0.0
C3455 C 0.69671 0.09341 0.29977 0.0
C3456 C 0.71172 0.07625 0.28074 0.0
C3457 C 0.69769 0.08074 0.31147 0.0
C3458 C 0.70575 0.06617 0.3081 0.0
C3459 C 0.72275 0.05008 0.29028 0.0
C3460 C 0.73128 0.04824 0.27564 0.0
C3461 C 0.71319 0.06399 0.29298 0.0
C3462 C 0.72911 0.06003 0.26316 0.0
C3463 C 0.71938 0.0739 0.26568 0.0
H3464 H 0.4185 0.18301 0.31434 0.0
H3465 H 0.40359 0.2331 0.32192 0.0
H3466 H 0.42599 0.243 0.30526 0.0
H3467 H 0.44985 0.2376 0.28863 0.0
H3468 H 0.46513 0.18767 0.28099 0.0
H3469 H 0.44233 0.17758 0.29716 0.0
C3470 C 0.42006 0.19608 0.31223 0.0
C3471 C 0.40939 0.20728 0.31955 0.0
C3472 C 0.43301 0.20175 0.30254 0.0
C3473 C 0.41175 0.2242 0.31675 0.0
C3474 C 0.42451 0.22989 0.30712 0.0
C3475 C 0.44834 0.22451 0.2906 0.0
C3476 C 0.45935 0.21345 0.28363 0.0
C3477 C 0.43528 0.2188 0.30004 0.0
C3478 C 0.45684 0.1965 0.28606 0.0
C3479 C 0.44383 0.19071 0.29541 0.0
H3480 H 0.33177 0.92979 0.29285 0.0
H3481 H 0.29023 0.89771 0.3012 0.0
H3482 H 0.27158 0.91825 0.28996 0.0
H3483 H 0.26668 0.94607 0.28023 0.0
H3484 H 0.30744 0.97866 0.27101 0.0
H3485 H 0.32681 0.95713 0.27979 0.0
C3486 C 0.31867 0.92723 0.29192 0.0
C3487 C 0.31239 0.91236 0.29823 0.0
C3488 C 0.30787 0.93921 0.28538 0.0
C3489 C 0.29537 0.90919 0.29685 0.0
C3490 C 0.28467 0.92091 0.29036 0.0
C3491 C 0.27983 0.94842 0.27998 0.0
C3492 C 0.28565 0.96395 0.27521 0.0
C3493 C 0.29073 0.93609 0.28504 0.0
C3494 C 0.30269 0.96676 0.27465 0.0
C3495 C 0.31373 0.95449 0.27976 0.0
H3496 H 0.74402 0.11544 0.69508 0.0
H3497 H 0.6976 0.09077 0.68503 0.0
H3498 H 0.70972 0.06442 0.69268 0.0
H3499 H 0.73248 0.049 0.70503 0.0
H3500 H 0.77846 0.07373 0.71744 0.0
H3501 H 0.76773 0.09931 0.70579 0.0
C3502 C 0.73671 0.10421 0.69431 0.0
C3503 C 0.71996 0.10498 0.68956 0.0
C3504 C 0.74367 0.08914 0.69922 0.0
C3505 C 0.7105 0.09043 0.68874 0.0
C3506 C 0.71743 0.07538 0.69312 0.0
C3507 C 0.74032 0.05987 0.70491 0.0
C3508 C 0.75625 0.0594 0.71219 0.0
C3509 C 0.73386 0.07466 0.69878 0.0
C3510 C 0.76614 0.07371 0.71195 0.0
C3511 C 0.75997 0.08839 0.70538 0.0
H3512 H 0.75024 0.9182 0.33479 0.0
H3513 H 0.70176 0.9286 0.31449 0.0
H3514 H 0.71259 0.95266 0.30055 0.0
H3515 H 0.7357 0.97162 0.29487 0.0
H3516 H 0.78347 0.96247 0.31707 0.0
H3517 H 0.77301 0.93735 0.32973 0.0
C3518 C 0.74193 0.92579 0.32751 0.0
C3519 C 0.72514 0.92136 0.32576 0.0
C3520 C 0.74814 0.93997 0.31986 0.0
C3521 C 0.71478 0.93134 0.3159 0.0
C3522 C 0.72094 0.94526 0.30799 0.0
C3523 C 0.7438 0.964 0.30236 0.0
C3524 C 0.76034 0.96884 0.30501 0.0
C3525 C 0.73758 0.94975 0.30992 0.0
C3526 C 0.77068 0.95903 0.31495 0.0
C3527 C 0.76471 0.94466 0.32216 0.0
H3528 H 0.59056 0.21989 0.32673 0.0
H3529 H 0.61185 0.20667 0.28063 0.0
H3530 H 0.58846 0.21826 0.26563 0.0
H3531 H 0.56153 0.23088 0.26534 0.0
H3532 H 0.53991 0.24526 0.31073 0.0
H3533 H 0.56415 0.23499 0.32625 0.0
C3534 C 0.59022 0.21973 0.3134 0.0
C3535 C 0.60293 0.21202 0.3049 0.0
C3536 C 0.57672 0.22671 0.3047 0.0
C3537 C 0.60212 0.21198 0.2876 0.0
C3538 C 0.58879 0.21877 0.27895 0.0
C3539 C 0.56214 0.2319 0.27865 0.0
C3540 C 0.54887 0.23866 0.2869 0.0
C3541 C 0.57594 0.22592 0.28736 0.0
C3542 C 0.54998 0.24014 0.3041 0.0
C3543 C 0.56378 0.23415 0.31295 0.0
H3544 H 0.29921 0.10778 0.30359 0.0
H3545 H 0.29784 0.09339 0.35453 0.0
H3546 H 0.28323 0.06798 0.34664 0.0
H3547 H 0.27196 0.04918 0.32509 0.0
H3548 H 0.27332 0.06396 0.27421 0.0
H3549 H 0.28706 0.0896 0.28226 0.0
C3550 C 0.29579 0.09907 0.31299 0.0
C3551 C 0.29975 0.10252 0.32964 0.0
C3552 C 0.28749 0.08441 0.30835 0.0
C3553 C 0.29487 0.09118 0.34164 0.0
C3554 C 0.2866 0.07656 0.33712 0.0
C3555 C 0.27508 0.05805 0.31575 0.0
C3556 C 0.2717 0.05439 0.299 0.0
C3557 C 0.28296 0.07296 0.32049 0.0
C3558 C 0.27602 0.06614 0.28714 0.0
C3559 C 0.28381 0.08092 0.29175 0.0
H3560 H 0.41896 0.81185 0.30419 0.0
H3561 H 0.43742 0.81606 0.35437 0.0
H3562 H 0.46292 0.80289 0.34707 0.0
H3563 H 0.47984 0.78946 0.32661 0.0
H3564 H 0.46173 0.78541 0.27637 0.0
H3565 H 0.43642 0.79924 0.28343 0.0
C3566 C 0.42867 0.81008 0.31345 0.0
C3567 C 0.4262 0.81481 0.32983 0.0
C3568 C 0.44337 0.80241 0.30918 0.0
C3569 C 0.43888 0.81232 0.34172 0.0
C3570 C 0.4535 0.8048 0.33756 0.0
C3571 C 0.4703 0.79152 0.31726 0.0
C3572 C 0.47267 0.78637 0.30102 0.0
C3573 C 0.4558 0.79958 0.32139 0.0
C3574 C 0.46028 0.78937 0.28895 0.0
C3575 C 0.44577 0.79725 0.29298 0.0
H3576 H 0.30102 0.92448 0.70804 0.0
H3577 H 0.35113 0.94145 0.70369 0.0
H3578 H 0.34397 0.96827 0.71447 0.0
H3579 H 0.32453 0.98575 0.72801 0.0
H3580 H 0.2745 0.96936 0.73369 0.0
H3581 H 0.28038 0.94368 0.71914 0.0
C3582 C 0.31025 0.93418 0.7092 0.0
C3583 C 0.32666 0.9309 0.70534 0.0
C3584 C 0.30607 0.94965 0.71568 0.0
C3585 C 0.33851 0.94357 0.70688 0.0
C3586 C 0.33442 0.95893 0.71299 0.0
C3587 C 0.3148 0.97669 0.72581 0.0
C3588 C 0.29915 0.97938 0.73202 0.0
C3589 C 0.3184 0.96193 0.71788 0.0
C3590 C 0.28663 0.96762 0.72894 0.0
C3591 C 0.29006 0.95286 0.72078 0.0
H3592 H 0.61466 0.82024 0.74307 0.0
H3593 H 0.59185 0.8095 0.69558 0.0
H3594 H 0.56757 0.79845 0.70882 0.0
H3595 H 0.55303 0.79116 0.7339 0.0
H3596 H 0.57637 0.80051 0.78143 0.0
H3597 H 0.60001 0.81308 0.76821 0.0
C3598 C 0.60432 0.81558 0.73562 0.0
C3599 C 0.60513 0.8157 0.71832 0.0
C3600 C 0.59041 0.80911 0.74334 0.0
C3601 C 0.59169 0.80939 0.70889 0.0
C3602 C 0.57773 0.80317 0.71646 0.0
C3603 C 0.56316 0.79619 0.74139 0.0
C3604 C 0.56282 0.79506 0.75867 0.0
C3605 C 0.57696 0.80291 0.73368 0.0
C3606 C 0.57626 0.80132 0.76813 0.0
C3607 C 0.58982 0.80843 0.76057 0.0
H3608 H 0.43729 0.24754 0.71202 0.0
H3609 H 0.45871 0.20012 0.7038 0.0
H3610 H 0.48529 0.21028 0.7144 0.0
H3611 H 0.50138 0.23122 0.7294 0.0
H3612 H 0.4806 0.27863 0.73864 0.0
H3613 H 0.45502 0.27013 0.72392 0.0
C3614 C 0.44789 0.2396 0.71223 0.0
C3615 C 0.44598 0.22301 0.70741 0.0
C3616 C 0.46322 0.2455 0.7186 0.0
C3617 C 0.45981 0.21284 0.70773 0.0
C3618 C 0.47502 0.21864 0.71376 0.0
C3619 C 0.49138 0.23983 0.72786 0.0
C3620 C 0.4928 0.25546 0.73516 0.0
C3621 C 0.47671 0.23473 0.71976 0.0
C3622 C 0.47983 0.26656 0.73301 0.0
C3623 C 0.46514 0.26162 0.72475 0.0
H3624 H 0.72293 0.73137 0.09962 0.0
H3625 H 0.67228 0.7323 0.08231 0.0
H3626 H 0.68029 0.74666 0.05742 0.0
H3627 H 0.70174 0.75858 0.04027 0.0
H3628 H 0.75233 0.75817 0.05797 0.0
H3629 H 0.7443 0.74383 0.08273 0.0
C3630 C 0.71366 0.73462 0.09035 0.0
C3631 C 0.69702 0.73074 0.09288 0.0
C3632 C 0.71834 0.74295 0.07604 0.0
C3633 C 0.68515 0.73527 0.0808 0.0
C3634 C 0.68973 0.74344 0.06651 0.0
C3635 C 0.71102 0.75553 0.04958 0.0
C3636 C 0.72767 0.75941 0.04704 0.0
C3637 C 0.7063 0.74735 0.06398 0.0
C3638 C 0.73947 0.75512 0.0593 0.0
C3639 C 0.73488 0.74697 0.07359 0.0
H3640 H 0.33559 0.73579 0.09382 0.0
H3641 H 0.29541 0.71388 0.11987 0.0
H3642 H 0.27642 0.7208 0.09741 0.0
H3643 H 0.2712 0.73173 0.06994 0.0
H3644 H 0.31031 0.75502 0.04379 0.0
H3645 H 0.32965 0.74938 0.06695 0.0
C3646 C 0.32265 0.73272 0.0947 0.0
C3647 C 0.31711 0.7239 0.10846 0.0
C3648 C 0.31157 0.73705 0.08176 0.0
C3649 C 0.30024 0.72011 0.10928 0.0
C3650 C 0.28927 0.72422 0.09648 0.0
C3651 C 0.28395 0.73569 0.06934 0.0
C3652 C 0.2894 0.7436 0.05515 0.0
C3653 C 0.29484 0.73242 0.08259 0.0
C3654 C 0.30585 0.74892 0.05463 0.0
C3655 C 0.31689 0.74559 0.06781 0.0
H3656 H 0.32933 0.30544 0.10012 0.0
H3657 H 0.28399 0.32184 0.12041 0.0
H3658 H 0.2683 0.30841 0.09817 0.0
H3659 H 0.26727 0.29378 0.07216 0.0
H3660 H 0.31181 0.27684 0.05091 0.0
H3661 H 0.32798 0.28835 0.07445 0.0
C3662 C 0.31602 0.30589 0.09973 0.0
C3663 C 0.30789 0.31498 0.11178 0.0
C3664 C 0.30693 0.29806 0.08674 0.0
C3665 C 0.29061 0.31535 0.11112 0.0
C3666 C 0.28159 0.30758 0.09844 0.0
C3667 C 0.28053 0.29249 0.07267 0.0
C3668 C 0.28834 0.28465 0.0597 0.0
C3669 C 0.28961 0.29922 0.08603 0.0
C3670 C 0.30549 0.28282 0.06074 0.0
C3671 C 0.31472 0.28951 0.07415 0.0
H3672 H 0.68981 0.32259 0.10949 0.0
H3673 H 0.73919 0.32787 0.12994 0.0
H3674 H 0.74984 0.31325 0.10635 0.0
H3675 H 0.74494 0.2978 0.08054 0.0
H3676 H 0.69544 0.29255 0.06032 0.0
H3677 H 0.68503 0.30796 0.08338 0.0
C3678 C 0.7029 0.32048 0.10884 0.0
C3679 C 0.71366 0.32626 0.12154 0.0
C3680 C 0.70892 0.31191 0.09534 0.0
C3681 C 0.73063 0.3237 0.1203 0.0
C3682 C 0.73672 0.31523 0.10686 0.0
C3683 C 0.73191 0.30018 0.08105 0.0
C3684 C 0.72101 0.29388 0.06869 0.0
C3685 C 0.72596 0.30915 0.09437 0.0
C3686 C 0.70411 0.29696 0.06974 0.0
C3687 C 0.69813 0.30588 0.0829 0.0
H3688 H 0.71145 0.30182 0.93136 0.0
H3689 H 0.71585 0.35283 0.94555 0.0
H3690 H 0.72953 0.34508 0.9715 0.0
H3691 H 0.74071 0.32387 0.99003 0.0
H3692 H 0.7365 0.27281 0.97577 0.0
H3693 H 0.72224 0.28052 0.95015 0.0
C3694 C 0.71524 0.31121 0.94022 0.0
C3695 C 0.71267 0.32788 0.93647 0.0
C3696 C 0.7232 0.30667 0.95512 0.0
C3697 C 0.71785 0.33992 0.94802 0.0
C3698 C 0.72564 0.3355 0.9629 0.0
C3699 C 0.73666 0.31441 0.98134 0.0
C3700 C 0.73972 0.29778 0.98488 0.0
C3701 C 0.72849 0.31892 0.96654 0.0
C3702 C 0.73435 0.28572 0.97342 0.0
C3703 C 0.72617 0.29011 0.95873 0.0
H3704 H 0.743 0.69776 0.92488 0.0
H3705 H 0.72393 0.73715 0.89453 0.0
H3706 H 0.73223 0.75708 0.91553 0.0
H3707 H 0.74354 0.76346 0.94283 0.0
H3708 H 0.76368 0.72511 0.97358 0.0
H3709 H 0.75673 0.70471 0.95196 0.0
C3710 C 0.74083 0.71072 0.92279 0.0
C3711 C 0.73244 0.71582 0.9082 0.0
C3712 C 0.74586 0.72232 0.93497 0.0
C3713 C 0.72984 0.73272 0.90577 0.0
C3714 C 0.73472 0.7442 0.91774 0.0
C3715 C 0.74651 0.75064 0.94483 0.0
C3716 C 0.75394 0.74577 0.95987 0.0
C3717 C 0.74246 0.73913 0.93246 0.0
C3718 C 0.75796 0.72917 0.96211 0.0
C3719 C 0.75389 0.71752 0.94978 0.0
H3720 H 0.31665 0.68387 0.93053 0.0
H3721 H 0.32667 0.73391 0.91606 0.0
H3722 H 0.31176 0.74396 0.93962 0.0
H3723 H 0.29381 0.73846 0.963 0.0
H3724 H 0.28264 0.68835 0.9762 0.0
H3725 H 0.29972 0.6784 0.95424 0.0
C3726 C 0.31554 0.697 0.93245 0.0
C3727 C 0.32264 0.70809 0.92134 0.0
C3728 C 0.30656 0.70268 0.94572 0.0
C3729 C 0.32145 0.72505 0.92439 0.0
C3730 C 0.31278 0.73081 0.9378 0.0
C3731 C 0.29532 0.72538 0.96122 0.0
C3732 C 0.2869 0.71415 0.97122 0.0
C3733 C 0.30501 0.71974 0.94837 0.0
C3734 C 0.28882 0.69722 0.96858 0.0
C3735 C 0.29864 0.69154 0.95606 0.0
H3736 H 0.3257 0.3257 0.93368 0.0
H3737 H 0.2811 0.3418 0.90873 0.0
H3738 H 0.26497 0.33176 0.93139 0.0
H3739 H 0.26331 0.31799 0.95821 0.0
H3740 H 0.30757 0.30056 0.98251 0.0
H3741 H 0.32394 0.31121 0.96011 0.0
C3742 C 0.31244 0.32686 0.93307 0.0
C3743 C 0.30474 0.33469 0.91947 0.0
C3744 C 0.30312 0.32076 0.94606 0.0
C3745 C 0.2875 0.3362 0.91912 0.0
C3746 C 0.2782 0.33034 0.93205 0.0
C3747 C 0.27655 0.31666 0.95865 0.0
C3748 C 0.28421 0.30855 0.97204 0.0
C3749 C 0.28586 0.32264 0.94561 0.0
C3750 C 0.30136 0.30666 0.97229 0.0
C3751 C 0.31074 0.31279 0.9595 0.0
H3752 H 0.61788 0.72457 0.21136 0.0
H3753 H 0.60108 0.67415 0.21345 0.0
H3754 H 0.57736 0.68245 0.22896 0.0
H3755 H 0.56129 0.70408 0.24196 0.0
H3756 H 0.57845 0.75442 0.24015 0.0
H3757 H 0.60187 0.74614 0.22437 0.0
C3758 C 0.60894 0.71543 0.21507 0.0
C3759 C 0.6113 0.69877 0.21125 0.0
C3760 C 0.59533 0.72027 0.22405 0.0
C3761 C 0.59969 0.68704 0.21637 0.0
C3762 C 0.58607 0.69178 0.2252 0.0
C3763 C 0.57021 0.71322 0.23823 0.0
C3764 C 0.56796 0.72988 0.2422 0.0
C3765 C 0.5838 0.70836 0.22919 0.0
C3766 C 0.57962 0.74156 0.23707 0.0
C3767 C 0.59312 0.73682 0.2281 0.0
H3768 H 0.30711 0.61844 0.20978 0.0
H3769 H 0.35877 0.60916 0.21838 0.0
H3770 H 0.35208 0.58428 0.23362 0.0
H3771 H 0.33157 0.56478 0.24415 0.0
H3772 H 0.27996 0.57394 0.23522 0.0
H3773 H 0.28664 0.59894 0.22021 0.0
C3774 C 0.31693 0.61091 0.21483 0.0
C3775 C 0.33344 0.61578 0.21289 0.0
C3776 C 0.31301 0.59649 0.22349 0.0
C3777 C 0.34595 0.60593 0.21983 0.0
C3778 C 0.34214 0.5916 0.22849 0.0
C3779 C 0.32178 0.57231 0.23905 0.0
C3780 C 0.30526 0.56737 0.24082 0.0
C3781 C 0.32571 0.58675 0.23041 0.0
C3782 C 0.29276 0.57723 0.23389 0.0
C3783 C 0.29658 0.59162 0.22536 0.0
H3784 H 0.42904 0.325 0.22772 0.0
H3785 H 0.39837 0.28148 0.22283 0.0
H3786 H 0.41916 0.26542 0.23749 0.0
H3787 H 0.44712 0.26286 0.24865 0.0
H3788 H 0.47873 0.30554 0.25351 0.0
H3789 H 0.45644 0.32291 0.24239 0.0
C3790 C 0.42684 0.31207 0.23014 0.0
C3791 C 0.41229 0.30437 0.22384 0.0
C3792 C 0.43902 0.30277 0.23857 0.0
C3793 C 0.40959 0.28762 0.22716 0.0
C3794 C 0.42145 0.27843 0.23562 0.0
C3795 C 0.44901 0.27605 0.24763 0.0
C3796 C 0.4645 0.28294 0.25182 0.0
C3797 C 0.43637 0.28574 0.24091 0.0
C3798 C 0.46683 0.3 0.25051 0.0
C3799 C 0.45414 0.30987 0.24396 0.0
H3800 H 0.70712 0.43836 0.20895 0.0
H3801 H 0.70326 0.42079 0.25864 0.0
H3802 H 0.71878 0.44493 0.26896 0.0
H3803 H 0.73569 0.47006 0.26346 0.0
H3804 H 0.74005 0.4862 0.2133 0.0
H3805 H 0.72217 0.46376 0.20365 0.0
C3806 C 0.70967 0.43977 0.22206 0.0
C3807 C 0.7042 0.42764 0.23296 0.0
C3808 C 0.71877 0.45351 0.22785 0.0
C3809 C 0.70729 0.42993 0.24994 0.0
C3810 C 0.71625 0.44371 0.25585 0.0
C3811 C 0.73241 0.4688 0.25049 0.0
C3812 C 0.73921 0.47978 0.23911 0.0
C3813 C 0.72233 0.45548 0.24489 0.0
C3814 C 0.73505 0.47788 0.2223 0.0
C3815 C 0.72484 0.46502 0.21674 0.0
H3816 H 0.61432 0.33379 0.7958 0.0
H3817 H 0.60112 0.3318 0.84676 0.0
H3818 H 0.57483 0.3191 0.83889 0.0
H3819 H 0.55628 0.30693 0.81795 0.0
H3820 H 0.56854 0.309 0.76685 0.0
H3821 H 0.5942 0.32379 0.7743 0.0
C3822 C 0.60561 0.3308 0.80517 0.0
C3823 C 0.60997 0.33346 0.82193 0.0
C3824 C 0.59027 0.32358 0.80053 0.0
C3825 C 0.59843 0.32946 0.83384 0.0
C3826 C 0.58327 0.32232 0.82934 0.0
C3827 C 0.56445 0.31079 0.80839 0.0
C3828 C 0.56054 0.30677 0.79188 0.0
C3829 C 0.57919 0.31905 0.81278 0.0
C3830 C 0.5712 0.31202 0.77964 0.0
C3831 C 0.58595 0.32034 0.78393 0.0
H3832 H 0.72561 0.59971 0.78478 0.0
H3833 H 0.74035 0.59296 0.83585 0.0
H3834 H 0.7563 0.56916 0.82854 0.0
H3835 H 0.76672 0.55069 0.80786 0.0
H3836 H 0.75149 0.55602 0.7569 0.0
H3837 H 0.73455 0.57961 0.76408 0.0
C3838 C 0.7321 0.59293 0.79438 0.0
C3839 C 0.73191 0.59844 0.81087 0.0
C3840 C 0.74106 0.57891 0.79014 0.0
C3841 C 0.74059 0.58945 0.82302 0.0
C3842 C 0.7496 0.57567 0.81888 0.0
C3843 C 0.75962 0.55694 0.79829 0.0
C3844 C 0.76045 0.5517 0.78184 0.0
C3845 C 0.75005 0.57041 0.8025 0.0
C3846 C 0.75101 0.55978 0.76965 0.0
C3847 C 0.74143 0.57333 0.77376 0.0
H3848 H 0.43437 0.74777 0.82393 0.0
H3849 H 0.44652 0.69629 0.82423 0.0
H3850 H 0.47223 0.70239 0.81097 0.0
H3851 H 0.49016 0.7217 0.79716 0.0
H3852 H 0.47886 0.77328 0.79608 0.0
H3853 H 0.45421 0.7679 0.81201 0.0
C3854 C 0.44279 0.73797 0.8213 0.0
C3855 C 0.43833 0.72154 0.82482 0.0
C3856 C 0.4577 0.74156 0.81348 0.0
C3857 C 0.44943 0.70898 0.82135 0.0
C3858 C 0.46419 0.71245 0.81381 0.0
C3859 C 0.48243 0.73184 0.80056 0.0
C3860 C 0.4863 0.74785 0.79532 0.0
C3861 C 0.46826 0.7286 0.80946 0.0
C3862 C 0.47622 0.76084 0.80001 0.0
C3863 C 0.46204 0.75773 0.80901 0.0
H3864 H 0.35834 0.43703 0.79936 0.0
H3865 H 0.30917 0.41825 0.80599 0.0
H3866 H 0.29781 0.44164 0.79099 0.0
H3867 H 0.30174 0.46737 0.77578 0.0
H3868 H 0.35084 0.48603 0.76878 0.0
H3869 H 0.36228 0.46256 0.7837 0.0
C3870 C 0.34515 0.43794 0.7974 0.0
C3871 C 0.33467 0.42586 0.80394 0.0
C3872 C 0.33865 0.45139 0.78858 0.0
C3873 C 0.31757 0.42745 0.8014 0.0
C3874 C 0.31103 0.44079 0.7927 0.0
C3875 C 0.31494 0.46639 0.77763 0.0
C3876 C 0.32539 0.47853 0.77118 0.0
C3877 C 0.32145 0.45287 0.78628 0.0
C3878 C 0.34249 0.47683 0.77344 0.0
C3879 C 0.34905 0.46344 0.78207 0.0
H3880 H 0.72755 0.61855 0.2088 0.0
H3881 H 0.73323 0.60282 0.15865 0.0
H3882 H 0.74667 0.5778 0.16833 0.0
H3883 H 0.75607 0.55993 0.19106 0.0
H3884 H 0.75033 0.57579 0.24117 0.0
H3885 H 0.73732 0.60094 0.23147 0.0
C3886 C 0.73162 0.60961 0.19997 0.0
C3887 C 0.72933 0.61262 0.183 0.0
C3888 C 0.73922 0.59515 0.20562 0.0
C3889 C 0.73498 0.60098 0.17177 0.0
C3890 C 0.74258 0.58658 0.1773 0.0
C3891 C 0.75211 0.56893 0.19987 0.0
C3892 C 0.75411 0.56581 0.21685 0.0
C3893 C 0.7447 0.5835 0.1942 0.0
C3894 C 0.74871 0.57762 0.22805 0.0
C3895 C 0.74136 0.59211 0.22251 0.0
H3896 H 0.75661 0.41878 0.83421 0.0
H3897 H 0.71016 0.43708 0.81524 0.0
H3898 H 0.72439 0.46003 0.80235 0.0
H3899 H 0.74997 0.47574 0.79764 0.0
H3900 H 0.79595 0.45828 0.81833 0.0
H3901 H 0.78187 0.43448 0.82989 0.0
C3902 C 0.7495 0.42786 0.82745 0.0
C3903 C 0.73225 0.42616 0.82586 0.0
C3904 C 0.75768 0.44133 0.82054 0.0
C3905 C 0.72342 0.43787 0.81657 0.0
C3906 C 0.73155 0.45113 0.80931 0.0
C3907 C 0.75689 0.46665 0.8046 0.0
C3908 C 0.77398 0.46879 0.80716 0.0
C3909 C 0.74866 0.45308 0.81136 0.0
C3910 C 0.78278 0.45703 0.81637 0.0
C3911 C 0.77474 0.44337 0.82289 0.0
H3912 H 0.60639 0.70552 0.82397 0.0
H3913 H 0.63313 0.69515 0.7803 0.0
H3914 H 0.60976 0.70397 0.76308 0.0
H3915 H 0.58221 0.71573 0.76039 0.0
H3916 H 0.55539 0.72622 0.80396 0.0
H3917 H 0.57838 0.7165 0.82121 0.0
C3918 C 0.60713 0.70525 0.81069 0.0
C3919 C 0.62153 0.69967 0.80347 0.0
C3920 C 0.59365 0.71045 0.80082 0.0
C3921 C 0.62216 0.69919 0.78621 0.0
C3922 C 0.60882 0.70433 0.77634 0.0
C3923 C 0.58125 0.71567 0.77363 0.0
C3924 C 0.56705 0.72179 0.78081 0.0
C3925 C 0.59454 0.71006 0.7835 0.0
C3926 C 0.56622 0.72181 0.79807 0.0
C3927 C 0.57936 0.71619 0.80796 0.0
H3928 H 0.31109 0.61582 0.81159 0.0
H3929 H 0.3612 0.60293 0.80195 0.0
H3930 H 0.35174 0.57745 0.789 0.0
H3931 H 0.32944 0.55971 0.77868 0.0
H3932 H 0.27919 0.57132 0.78841 0.0
H3933 H 0.28851 0.59616 0.80352 0.0
C3934 C 0.31994 0.60733 0.80687 0.0
C3935 C 0.33685 0.61158 0.8074 0.0
C3936 C 0.31441 0.59244 0.79951 0.0
C3937 C 0.34811 0.60033 0.80125 0.0
C3938 C 0.34273 0.58564 0.79395 0.0
C3939 C 0.32051 0.56758 0.78428 0.0
C3940 C 0.30366 0.56381 0.78233 0.0
C3941 C 0.32594 0.58175 0.79272 0.0
C3942 C 0.29224 0.57396 0.78982 0.0
C3943 C 0.29758 0.58821 0.79832 0.0
H3944 H 0.42275 0.31438 0.81105 0.0
H3945 H 0.43509 0.30438 0.86205 0.0
H3946 H 0.46003 0.29058 0.85412 0.0
H3947 H 0.47873 0.28163 0.83272 0.0
H3948 H 0.46685 0.29245 0.78188 0.0
H3949 H 0.44164 0.30591 0.78975 0.0
C3950 C 0.43096 0.30936 0.82047 0.0
C3951 C 0.42688 0.3104 0.83715 0.0
C3952 C 0.44548 0.30161 0.81586 0.0
C3953 C 0.43765 0.30354 0.8491 0.0
C3954 C 0.45203 0.29572 0.84459 0.0
C3955 C 0.47056 0.28684 0.82337 0.0
C3956 C 0.47472 0.28604 0.80674 0.0
C3957 C 0.45607 0.29466 0.82801 0.0
C3958 C 0.46408 0.29306 0.79479 0.0
C3959 C 0.4496 0.3007 0.79928 0.0
H3960 H 0.30088 0.42267 0.20681 0.0
H3961 H 0.35124 0.43787 0.21691 0.0
H3962 H 0.34209 0.46425 0.22703 0.0
H3963 H 0.32002 0.48222 0.235 0.0
H3964 H 0.26945 0.46792 0.22526 0.0
H3965 H 0.27843 0.4422 0.21265 0.0
C3966 C 0.30984 0.43185 0.21101 0.0
C3967 C 0.32675 0.42809 0.2114 0.0
C3968 C 0.30446 0.44717 0.21688 0.0
C3969 C 0.33816 0.4402 0.21686 0.0
C3970 C 0.33295 0.45536 0.22257 0.0
C3971 C 0.31091 0.47357 0.22996 0.0
C3972 C 0.29408 0.47693 0.2312 0.0
C3973 C 0.31616 0.45884 0.22298 0.0
C3974 C 0.28249 0.46567 0.22442 0.0
C3975 C 0.28763 0.45091 0.21732 0.0
H3976 H 0.58972 0.30935 0.19149 0.0
H3977 H 0.60863 0.31579 0.2413 0.0
H3978 H 0.58496 0.30059 0.25155 0.0
H3979 H 0.55983 0.28401 0.2462 0.0
H3980 H 0.54121 0.27746 0.19627 0.0
H3981 H 0.56415 0.2937 0.18624 0.0
C3982 C 0.58872 0.30741 0.20461 0.0
C3983 C 0.60107 0.31363 0.21559 0.0
C3984 C 0.57524 0.29841 0.21039 0.0
C3985 C 0.5993 0.31129 0.23256 0.0
C3986 C 0.58582 0.30245 0.23842 0.0
C3987 C 0.56061 0.28627 0.23314 0.0
C3988 C 0.54871 0.27936 0.22204 0.0
C3989 C 0.57383 0.29576 0.22743 0.0
C3990 C 0.55023 0.28232 0.20512 0.0
C3991 C 0.56331 0.29174 0.19936 0.0
H3992 H 0.44167 0.73677 0.19502 0.0
H3993 H 0.4149 0.73613 0.23988 0.0
H3994 H 0.43753 0.75054 0.25433 0.0
H3995 H 0.46627 0.75935 0.25529 0.0
H3996 H 0.49426 0.75895 0.21135 0.0
H3997 H 0.46982 0.74935 0.19529 0.0
C3998 C 0.44072 0.74015 0.20785 0.0
C3999 C 0.42677 0.73521 0.21647 0.0
C4000 C 0.45403 0.74818 0.21622 0.0
C4001 C 0.42563 0.73961 0.23309 0.0
C4002 C 0.43855 0.74785 0.24134 0.0
C4003 C 0.46684 0.75765 0.24208 0.0
C4004 C 0.48191 0.75987 0.23444 0.0
C4005 C 0.453 0.75164 0.2332 0.0
C4006 C 0.48267 0.75754 0.2174 0.0
C4007 C 0.46876 0.75183 0.2083 0.0
loop_
_geom_bond_atom_site_label_1
_geom_bond_atom_site_label_2
_geom_bond_distance
_geom_bond_site_symmetry_2
_ccdc_geom_bond_type
C0 C1 1.391 . S
C0 C4 1.391 . S
C0 H42 0.948 . S
C1 C0 1.391 . S
C1 C2 1.391 . S
C2 C1 1.391 . S
C2 H58 0.947 . S
C2 C59 1.392 . S
C3 C4 1.391 . S
C3 C7 1.397 . S
C3 C59 1.419 . S
C4 C0 1.391 . S
C4 C3 1.391 . S
C4 C5 1.399 . S
C5 C4 1.399 . S
C5 C8 1.396 . S
C5 C17 1.453 . S
C5 C18 1.684 . S
H6 C30 0.948 . S
C7 C3 1.397 . S
C7 C8 1.394 . S
C7 C26 1.723 . S
C8 C5 1.396 . S
C8 C7 1.394 . S
C8 C38 1.723 . S
H9 C32 0.947 . S
H10 C33 0.948 . S
H11 C39 0.982 . S
H12 C40 0.979 . S
H13 C40 0.980 . S
H14 C40 0.983 . S
H15 C39 0.979 . S
H16 C39 0.977 . S
C17 C5 1.453 . S
C17 H46 0.982 . S
C17 H47 0.979 . S
C17 H48 0.977 . S
C18 C5 1.684 . S
C18 H43 0.979 . S
C18 H44 0.980 . S
C18 H45 0.983 . S
C19 C20 1.391 . S
C19 C24 1.391 . S
C19 H49 0.948 . S
C20 C19 1.391 . S
C20 C21 1.391 . S
C21 C20 1.391 . S
C21 C22 1.392 . S
C21 H50 0.947 . S
C22 C21 1.392 . S
C22 C23 1.419 . S
C22 H51 0.948 . S
C23 C22 1.419 . S
C23 C24 1.391 . S
C23 C27 1.397 . S
C24 C19 1.391 . S
C24 C23 1.391 . S
C24 C25 1.399 . S
C25 C24 1.399 . S
C25 C26 1.396 . S
C25 C28 1.453 . S
C25 C29 1.684 . S
C26 C7 1.723 . S
C26 C25 1.396 . S
C26 C27 1.394 . S
C27 C23 1.397 . S
C27 C26 1.394 . S
C27 C37 1.723 . S
C28 C25 1.453 . S
C28 H52 0.982 . S
C28 H53 0.979 . S
C28 H54 0.977 . S
C29 C25 1.684 . S
C29 H55 0.979 . S
C29 H56 0.980 . S
C29 H57 0.983 . S
C30 H6 0.948 . S
C30 C31 1.391 . S
C30 C35 1.391 . S
C31 C30 1.391 . S
C31 C32 1.391 . S
C32 H9 0.947 . S
C32 C31 1.391 . S
C32 C33 1.392 . S
C33 H10 0.948 . S
C33 C32 1.392 . S
C33 C34 1.419 . S
C34 C33 1.419 . S
C34 C35 1.391 . S
C34 C38 1.397 . S
C35 C30 1.391 . S
C35 C34 1.391 . S
C35 C36 1.399 . S
C36 C35 1.399 . S
C36 C37 1.396 . S
C36 C39 1.453 . S
C36 C40 1.684 . S
C37 C27 1.723 . S
C37 C36 1.396 . S
C37 C38 1.394 . S
C38 C8 1.723 . S
C38 C34 1.397 . S
C38 C37 1.394 . S
C39 H11 0.982 . S
C39 H15 0.979 . S
C39 H16 0.977 . S
C39 C36 1.453 . S
C40 H12 0.979 . S
C40 H13 0.980 . S
C40 H14 0.983 . S
C40 C36 1.684 . S
H41 C59 0.948 . S
H42 C0 0.948 . S
H43 C18 0.979 . S
H44 C18 0.980 . S
H45 C18 0.983 . S
H46 C17 0.982 . S
H47 C17 0.979 . S
H48 C17 0.977 . S
H49 C19 0.948 . S
H50 C21 0.947 . S
H51 C22 0.948 . S
H52 C28 0.982 . S
H53 C28 0.979 . S
H54 C28 0.977 . S
H55 C29 0.979 . S
H56 C29 0.980 . S
H57 C29 0.983 . S
H58 C2 0.947 . S
C59 C2 1.392 . S
C59 C3 1.419 . S
C59 H41 0.948 . S
C60 C61 1.391 . S
C60 C64 1.391 . S
C60 H102 0.948 . S
C61 C60 1.391 . S
C61 C62 1.391 . S
C62 C61 1.391 . S
C62 H118 0.947 . S
C62 C119 1.392 . S
C63 C64 1.391 . S
C63 C67 1.397 . S
C63 C119 1.419 . S
C64 C60 1.391 . S
C64 C63 1.391 . S
C64 C65 1.399 . S
C65 C64 1.399 . S
C65 C68 1.396 . S
C65 C77 1.453 . S
C65 C78 1.684 . S
H66 C90 0.948 . S
C67 C63 1.397 . S
C67 C68 1.394 . S
C67 C86 1.723 . S
C68 C65 1.396 . S
C68 C67 1.394 . S
C68 C98 1.723 . S
H69 C92 0.947 . S
H70 C93 0.948 . S
H71 C99 0.982 . S
H72 C100 0.979 . S
H73 C100 0.980 . S
H74 C100 0.983 . S
H75 C99 0.979 . S
H76 C99 0.977 . S
C77 C65 1.453 . S
C77 H106 0.982 . S
C77 H107 0.979 . S
C77 H108 0.977 . S
C78 C65 1.684 . S
C78 H103 0.979 . S
C78 H104 0.980 . S
C78 H105 0.983 . S
C79 C80 1.391 . S
C79 C84 1.391 . S
C79 H109 0.948 . S
C80 C79 1.391 . S
C80 C81 1.391 . S
C81 C80 1.391 . S
C81 C82 1.392 . S
C81 H110 0.947 . S
C82 C81 1.392 . S
C82 C83 1.419 . S
C82 H111 0.948 . S
C83 C82 1.419 . S
C83 C84 1.391 . S
C83 C87 1.397 . S
C84 C79 1.391 . S
C84 C83 1.391 . S
C84 C85 1.399 . S
C85 C84 1.399 . S
C85 C86 1.396 . S
C85 C88 1.453 . S
C85 C89 1.684 . S
C86 C67 1.723 . S
C86 C85 1.396 . S
C86 C87 1.394 . S
C87 C83 1.397 . S
C87 C86 1.394 . S
C87 C97 1.723 . S
C88 C85 1.453 . S
C88 H112 0.982 . S
C88 H113 0.979 . S
C88 H114 0.977 . S
C89 C85 1.684 . S
C89 H115 0.979 . S
C89 H116 0.980 . S
C89 H117 0.983 . S
C90 H66 0.948 . S
C90 C91 1.391 . S
C90 C95 1.391 . S
C91 C90 1.391 . S
C91 C92 1.391 . S
C92 H69 0.947 . S
C92 C91 1.391 . S
C92 C93 1.392 . S
C93 H70 0.948 . S
C93 C92 1.392 . S
C93 C94 1.419 . S
C94 C93 1.419 . S
C94 C95 1.391 . S
C94 C98 1.397 . S
C95 C90 1.391 . S
C95 C94 1.391 . S
C95 C96 1.399 . S
C96 C95 1.399 . S
C96 C97 1.396 . S
C96 C99 1.453 . S
C96 C100 1.684 . S
C97 C87 1.723 . S
C97 C96 1.396 . S
C97 C98 1.394 . S
C98 C68 1.723 . S
C98 C94 1.397 . S
C98 C97 1.394 . S
C99 H71 0.982 . S
C99 H75 0.979 . S
C99 H76 0.977 . S
C99 C96 1.453 . S
C100 H72 0.979 . S
C100 H73 0.980 . S
C100 H74 0.983 . S
C100 C96 1.684 . S
H101 C119 0.948 . S
H102 C60 0.948 . S
H103 C78 0.979 . S
H104 C78 0.980 . S
H105 C78 0.983 . S
H106 C77 0.982 . S
H107 C77 0.979 . S
H108 C77 0.977 . S
H109 C79 0.948 . S
H110 C81 0.947 . S
H111 C82 0.948 . S
H112 C88 0.982 . S
H113 C88 0.979 . S
H114 C88 0.977 . S
H115 C89 0.979 . S
H116 C89 0.980 . S
H117 C89 0.983 . S
H118 C62 0.947 . S
C119 C62 1.392 . S
C119 C63 1.419 . S
C119 H101 0.948 . S
C120 C121 1.391 . S
C120 C124 1.391 . S
C120 H162 0.948 . S
C121 C120 1.391 . S
C121 C122 1.391 . S
C122 C121 1.391 . S
C122 H178 0.947 . S
C122 C179 1.392 . S
C123 C124 1.391 . S
C123 C127 1.397 . S
C123 C179 1.419 . S
C124 C120 1.391 . S
C124 C123 1.391 . S
C124 C125 1.399 . S
C125 C124 1.399 . S
C125 C128 1.396 . S
C125 C137 1.453 . S
C125 C138 1.684 . S
H126 C150 0.948 . S
C127 C123 1.397 . S
C127 C128 1.394 . S
C127 C146 1.723 . S
C128 C125 1.396 . S
C128 C127 1.394 . S
C128 C158 1.723 . S
H129 C152 0.947 . S
H130 C153 0.948 . S
H131 C159 0.982 . S
H132 C160 0.979 . S
H133 C160 0.980 . S
H134 C160 0.983 . S
H135 C159 0.979 . S
H136 C159 0.977 . S
C137 C125 1.453 . S
C137 H166 0.982 . S
C137 H167 0.979 . S
C137 H168 0.977 . S
C138 C125 1.684 . S
C138 H163 0.979 . S
C138 H164 0.980 . S
C138 H165 0.983 . S
C139 C140 1.391 . S
C139 C144 1.391 . S
C139 H169 0.948 . S
C140 C139 1.391 . S
C140 C141 1.391 . S
C141 C140 1.391 . S
C141 C142 1.392 . S
C141 H170 0.947 . S
C142 C141 1.392 . S
C142 C143 1.419 . S
C142 H171 0.948 . S
C143 C142 1.419 . S
C143 C144 1.391 . S
C143 C147 1.397 . S
C144 C139 1.391 . S
C144 C143 1.391 . S
C144 C145 1.399 . S
C145 C144 1.399 . S
C145 C146 1.396 . S
C145 C148 1.453 . S
C145 C149 1.684 . S
C146 C127 1.723 . S
C146 C145 1.396 . S
C146 C147 1.394 . S
C147 C143 1.397 . S
C147 C146 1.394 . S
C147 C157 1.723 . S
C148 C145 1.453 . S
C148 H172 0.982 . S
C148 H173 0.979 . S
C148 H174 0.977 . S
C149 C145 1.684 . S
C149 H175 0.979 . S
C149 H176 0.980 . S
C149 H177 0.983 . S
C150 H126 0.948 . S
C150 C151 1.391 . S
C150 C155 1.391 . S
C151 C150 1.391 . S
C151 C152 1.391 . S
C152 H129 0.947 . S
C152 C151 1.391 . S
C152 C153 1.392 . S
C153 H130 0.948 . S
C153 C152 1.392 . S
C153 C154 1.419 . S
C154 C153 1.419 . S
C154 C155 1.391 . S
C154 C158 1.397 . S
C155 C150 1.391 . S
C155 C154 1.391 . S
C155 C156 1.399 . S
C156 C155 1.399 . S
C156 C157 1.396 . S
C156 C159 1.453 . S
C156 C160 1.684 . S
C157 C147 1.723 . S
C157 C156 1.396 . S
C157 C158 1.394 . S
C158 C128 1.723 . S
C158 C154 1.397 . S
C158 C157 1.394 . S
C159 H131 0.982 . S
C159 H135 0.979 . S
C159 H136 0.977 . S
C159 C156 1.453 . S
C160 H132 0.979 . S
C160 H133 0.980 . S
C160 H134 0.983 . S
C160 C156 1.684 . S
H161 C179 0.948 . S
H162 C120 0.948 . S
H163 C138 0.979 . S
H164 C138 0.980 . S
H165 C138 0.983 . S
H166 C137 0.982 . S
H167 C137 0.979 . S
H168 C137 0.977 . S
H169 C139 0.948 . S
H170 C141 0.947 . S
H171 C142 0.948 . S
H172 C148 0.982 . S
H173 C148 0.979 . S
H174 C148 0.977 . S
H175 C149 0.979 . S
H176 C149 0.980 . S
H177 C149 0.983 . S
H178 C122 0.947 . S
C179 C122 1.392 . S
C179 C123 1.419 . S
C179 H161 0.948 . S
C180 C181 1.391 . S
C180 C184 1.391 . S
C180 H222 0.948 . S
C181 C180 1.391 . S
C181 C182 1.391 . S
C182 C181 1.391 . S
C182 H238 0.947 . S
C182 C239 1.392 . S
C183 C184 1.391 . S
C183 C187 1.397 . S
C183 C239 1.419 . S
C184 C180 1.391 . S
C184 C183 1.391 . S
C184 C185 1.399 . S
C185 C184 1.399 . S
C185 C188 1.396 . S
C185 C197 1.453 . S
C185 C198 1.684 . S
H186 C210 0.948 . S
C187 C183 1.397 . S
C187 C188 1.394 . S
C187 C206 1.723 . S
C188 C185 1.396 . S
C188 C187 1.394 . S
C188 C218 1.723 . S
H189 C212 0.947 . S
H190 C213 0.948 . S
H191 C219 0.982 . S
H192 C220 0.979 . S
H193 C220 0.980 . S
H194 C220 0.983 . S
H195 C219 0.979 . S
H196 C219 0.977 . S
C197 C185 1.453 . S
C197 H226 0.982 . S
C197 H227 0.979 . S
C197 H228 0.977 . S
C198 C185 1.684 . S
C198 H223 0.979 . S
C198 H224 0.980 . S
C198 H225 0.983 . S
C199 C200 1.391 . S
C199 C204 1.391 . S
C199 H229 0.948 . S
C200 C199 1.391 . S
C200 C201 1.391 . S
C201 C200 1.391 . S
C201 C202 1.392 . S
C201 H230 0.947 . S
C202 C201 1.392 . S
C202 C203 1.419 . S
C202 H231 0.948 . S
C203 C202 1.419 . S
C203 C204 1.391 . S
C203 C207 1.397 . S
C204 C199 1.391 . S
C204 C203 1.391 . S
C204 C205 1.399 . S
C205 C204 1.399 . S
C205 C206 1.396 . S
C205 C208 1.453 . S
C205 C209 1.684 . S
C206 C187 1.723 . S
C206 C205 1.396 . S
C206 C207 1.394 . S
C207 C203 1.397 . S
C207 C206 1.394 . S
C207 C217 1.723 . S
C208 C205 1.453 . S
C208 H232 0.982 . S
C208 H233 0.979 . S
C208 H234 0.977 . S
C209 C205 1.684 . S
C209 H235 0.979 . S
C209 H236 0.980 . S
C209 H237 0.983 . S
C210 H186 0.948 . S
C210 C211 1.391 . S
C210 C215 1.391 . S
C211 C210 1.391 . S
C211 C212 1.391 . S
C212 H189 0.947 . S
C212 C211 1.391 . S
C212 C213 1.392 . S
C213 H190 0.948 . S
C213 C212 1.392 . S
C213 C214 1.419 . S
C214 C213 1.419 . S
C214 C215 1.391 . S
C214 C218 1.397 . S
C215 C210 1.391 . S
C215 C214 1.391 . S
C215 C216 1.399 . S
C216 C215 1.399 . S
C216 C217 1.396 . S
C216 C219 1.453 . S
C216 C220 1.684 . S
C217 C207 1.723 . S
C217 C216 1.396 . S
C217 C218 1.394 . S
C218 C188 1.723 . S
C218 C214 1.397 . S
C218 C217 1.394 . S
C219 H191 0.982 . S
C219 H195 0.979 . S
C219 H196 0.977 . S
C219 C216 1.453 . S
C220 H192 0.979 . S
C220 H193 0.980 . S
C220 H194 0.983 . S
C220 C216 1.684 . S
H221 C239 0.948 . S
H222 C180 0.948 . S
H223 C198 0.979 . S
H224 C198 0.980 . S
H225 C198 0.983 . S
H226 C197 0.982 . S
H227 C197 0.979 . S
H228 C197 0.977 . S
H229 C199 0.948 . S
H230 C201 0.947 . S
H231 C202 0.948 . S
H232 C208 0.982 . S
H233 C208 0.979 . S
H234 C208 0.977 . S
H235 C209 0.979 . S
H236 C209 0.980 . S
H237 C209 0.983 . S
H238 C182 0.947 . S
C239 C182 1.392 . S
C239 C183 1.419 . S
C239 H221 0.948 . S
C240 C241 1.391 . S
C240 C244 1.391 . S
C240 H282 0.948 . S
C241 C240 1.391 . S
C241 C242 1.391 . S
C242 C241 1.391 . S
C242 H298 0.947 . S
C242 C299 1.392 . S
C243 C244 1.391 . S
C243 C247 1.397 . S
C243 C299 1.419 . S
C244 C240 1.391 . S
C244 C243 1.391 . S
C244 C245 1.399 . S
C245 C244 1.399 . S
C245 C248 1.396 . S
C245 C257 1.453 . S
C245 C258 1.684 . S
H246 C270 0.948 . S
C247 C243 1.397 . S
C247 C248 1.394 . S
C247 C266 1.723 . S
C248 C245 1.396 . S
C248 C247 1.394 . S
C248 C278 1.723 . S
H249 C272 0.947 . S
H250 C273 0.948 . S
H251 C279 0.982 . S
H252 C280 0.979 . S
H253 C280 0.980 . S
H254 C280 0.983 . S
H255 C279 0.979 . S
H256 C279 0.977 . S
C257 C245 1.453 . S
C257 H286 0.982 . S
C257 H287 0.979 . S
C257 H288 0.977 . S
C258 C245 1.684 . S
C258 H283 0.979 . S
C258 H284 0.980 . S
C258 H285 0.983 . S
C259 C260 1.391 . S
C259 C264 1.391 . S
C259 H289 0.948 . S
C260 C259 1.391 . S
C260 C261 1.391 . S
C261 C260 1.391 . S
C261 C262 1.392 . S
C261 H290 0.947 . S
C262 C261 1.392 . S
C262 C263 1.419 . S
C262 H291 0.948 . S
C263 C262 1.419 . S
C263 C264 1.391 . S
C263 C267 1.397 . S
C264 C259 1.391 . S
C264 C263 1.391 . S
C264 C265 1.399 . S
C265 C264 1.399 . S
C265 C266 1.396 . S
C265 C268 1.453 . S
C265 C269 1.684 . S
C266 C247 1.723 . S
C266 C265 1.396 . S
C266 C267 1.394 . S
C267 C263 1.397 . S
C267 C266 1.394 . S
C267 C277 1.723 . S
C268 C265 1.453 . S
C268 H292 0.982 . S
C268 H293 0.979 . S
C268 H294 0.977 . S
C269 C265 1.684 . S
C269 H295 0.979 . S
C269 H296 0.980 . S
C269 H297 0.983 . S
C270 H246 0.948 . S
C270 C271 1.391 . S
C270 C275 1.391 . S
C271 C270 1.391 . S
C271 C272 1.391 . S
C272 H249 0.947 . S
C272 C271 1.391 . S
C272 C273 1.392 . S
C273 H250 0.948 . S
C273 C272 1.392 . S
C273 C274 1.419 . S
C274 C273 1.419 . S
C274 C275 1.391 . S
C274 C278 1.397 . S
C275 C270 1.391 . S
C275 C274 1.391 . S
C275 C276 1.399 . S
C276 C275 1.399 . S
C276 C277 1.396 . S
C276 C279 1.453 . S
C276 C280 1.684 . S
C277 C267 1.723 . S
C277 C276 1.396 . S
C277 C278 1.394 . S
C278 C248 1.723 . S
C278 C274 1.397 . S
C278 C277 1.394 . S
C279 H251 0.982 . S
C279 H255 0.979 . S
C279 H256 0.977 . S
C279 C276 1.453 . S
C280 H252 0.979 . S
C280 H253 0.980 . S
C280 H254 0.983 . S
C280 C276 1.684 . S
H281 C299 0.948 . S
H282 C240 0.948 . S
H283 C258 0.979 . S
H284 C258 0.980 . S
H285 C258 0.983 . S
H286 C257 0.982 . S
H287 C257 0.979 . S
H288 C257 0.977 . S
H289 C259 0.948 . S
H290 C261 0.947 . S
H291 C262 0.948 . S
H292 C268 0.982 . S
H293 C268 0.979 . S
H294 C268 0.977 . S
H295 C269 0.979 . S
H296 C269 0.980 . S
H297 C269 0.983 . S
H298 C242 0.947 . S
C299 C242 1.392 . S
C299 C243 1.419 . S
C299 H281 0.948 . S
C300 C301 1.391 . S
C300 C304 1.391 . S
C300 H342 0.948 . S
C301 C300 1.391 . S
C301 C302 1.391 . S
C302 C301 1.391 . S
C302 H358 0.947 . S
C302 C359 1.392 . S
C303 C304 1.391 . S
C303 C307 1.397 . S
C303 C359 1.419 . S
C304 C300 1.391 . S
C304 C303 1.391 . S
C304 C305 1.399 . S
C305 C304 1.399 . S
C305 C308 1.396 . S
C305 C317 1.453 . S
C305 C318 1.684 . S
H306 C330 0.948 . S
C307 C303 1.397 . S
C307 C308 1.394 . S
C307 C326 1.723 . S
C308 C305 1.396 . S
C308 C307 1.394 . S
C308 C338 1.723 . S
H309 C332 0.947 . S
H310 C333 0.948 . S
H311 C339 0.982 . S
H312 C340 0.979 . S
H313 C340 0.980 . S
H314 C340 0.983 . S
H315 C339 0.979 . S
H316 C339 0.977 . S
C317 C305 1.453 . S
C317 H346 0.982 . S
C317 H347 0.979 . S
C317 H348 0.977 . S
C318 C305 1.684 . S
C318 H343 0.979 . S
C318 H344 0.980 . S
C318 H345 0.983 . S
C319 C320 1.391 . S
C319 C324 1.391 . S
C319 H349 0.948 . S
C320 C319 1.391 . S
C320 C321 1.391 . S
C321 C320 1.391 . S
C321 C322 1.392 . S
C321 H350 0.947 . S
C322 C321 1.392 . S
C322 C323 1.419 . S
C322 H351 0.948 . S
C323 C322 1.419 . S
C323 C324 1.391 . S
C323 C327 1.397 . S
C324 C319 1.391 . S
C324 C323 1.391 . S
C324 C325 1.399 . S
C325 C324 1.399 . S
C325 C326 1.396 . S
C325 C328 1.453 . S
C325 C329 1.684 . S
C326 C307 1.723 . S
C326 C325 1.396 . S
C326 C327 1.394 . S
C327 C323 1.397 . S
C327 C326 1.394 . S
C327 C337 1.723 . S
C328 C325 1.453 . S
C328 H352 0.982 . S
C328 H353 0.979 . S
C328 H354 0.977 . S
C329 C325 1.684 . S
C329 H355 0.979 . S
C329 H356 0.980 . S
C329 H357 0.983 . S
C330 H306 0.948 . S
C330 C331 1.391 . S
C330 C335 1.391 . S
C331 C330 1.391 . S
C331 C332 1.391 . S
C332 H309 0.947 . S
C332 C331 1.391 . S
C332 C333 1.392 . S
C333 H310 0.948 . S
C333 C332 1.392 . S
C333 C334 1.419 . S
C334 C333 1.419 . S
C334 C335 1.391 . S
C334 C338 1.397 . S
C335 C330 1.391 . S
C335 C334 1.391 . S
C335 C336 1.399 . S
C336 C335 1.399 . S
C336 C337 1.396 . S
C336 C339 1.453 . S
C336 C340 1.684 . S
C337 C327 1.723 . S
C337 C336 1.396 . S
C337 C338 1.394 . S
C338 C308 1.723 . S
C338 C334 1.397 . S
C338 C337 1.394 . S
C339 H311 0.982 . S
C339 H315 0.979 . S
C339 H316 0.977 . S
C339 C336 1.453 . S
C340 H312 0.979 . S
C340 H313 0.980 . S
C340 H314 0.983 . S
C340 C336 1.684 . S
H341 C359 0.948 . S
H342 C300 0.948 . S
H343 C318 0.979 . S
H344 C318 0.980 . S
H345 C318 0.983 . S
H346 C317 0.982 . S
H347 C317 0.979 . S
H348 C317 0.977 . S
H349 C319 0.948 . S
H350 C321 0.947 . S
H351 C322 0.948 . S
H352 C328 0.982 . S
H353 C328 0.979 . S
H354 C328 0.977 . S
H355 C329 0.979 . S
H356 C329 0.980 . S
H357 C329 0.983 . S
H358 C302 0.947 . S
C359 C302 1.392 . S
C359 C303 1.419 . S
C359 H341 0.948 . S
C360 C361 1.391 . S
C360 C364 1.391 . S
C360 H402 0.948 . S
C361 C360 1.391 . S
C361 C362 1.391 . S
C362 C361 1.391 . S
C362 H418 0.947 . S
C362 C419 1.392 . S
C363 C364 1.391 . S
C363 C367 1.397 . S
C363 C419 1.419 . S
C364 C360 1.391 . S
C364 C363 1.391 . S
C364 C365 1.399 . S
C365 C364 1.399 . S
C365 C368 1.396 . S
C365 C377 1.453 . S
C365 C378 1.684 . S
H366 C390 0.948 . S
C367 C363 1.397 . S
C367 C368 1.394 . S
C367 C386 1.723 . S
C368 C365 1.396 . S
C368 C367 1.394 . S
C368 C398 1.723 . S
H369 C392 0.947 . S
H370 C393 0.948 . S
H371 C399 0.982 . S
H372 C400 0.979 . S
H373 C400 0.980 . S
H374 C400 0.983 . S
H375 C399 0.979 . S
H376 C399 0.977 . S
C377 C365 1.453 . S
C377 H406 0.982 . S
C377 H407 0.979 . S
C377 H408 0.977 . S
C378 C365 1.684 . S
C378 H403 0.979 . S
C378 H404 0.980 . S
C378 H405 0.983 . S
C379 C380 1.391 . S
C379 C384 1.391 . S
C379 H409 0.948 . S
C380 C379 1.391 . S
C380 C381 1.391 . S
C381 C380 1.391 . S
C381 C382 1.392 . S
C381 H410 0.947 . S
C382 C381 1.392 . S
C382 C383 1.419 . S
C382 H411 0.948 . S
C383 C382 1.419 . S
C383 C384 1.391 . S
C383 C387 1.397 . S
C384 C379 1.391 . S
C384 C383 1.391 . S
C384 C385 1.399 . S
C385 C384 1.399 . S
C385 C386 1.396 . S
C385 C388 1.453 . S
C385 C389 1.684 . S
C386 C367 1.723 . S
C386 C385 1.396 . S
C386 C387 1.394 . S
C387 C383 1.397 . S
C387 C386 1.394 . S
C387 C397 1.723 . S
C388 C385 1.453 . S
C388 H412 0.982 . S
C388 H413 0.979 . S
C388 H414 0.977 . S
C389 C385 1.684 . S
C389 H415 0.979 . S
C389 H416 0.980 . S
C389 H417 0.983 . S
C390 H366 0.948 . S
C390 C391 1.391 . S
C390 C395 1.391 . S
C391 C390 1.391 . S
C391 C392 1.391 . S
C392 H369 0.947 . S
C392 C391 1.391 . S
C392 C393 1.392 . S
C393 H370 0.948 . S
C393 C392 1.392 . S
C393 C394 1.419 . S
C394 C393 1.419 . S
C394 C395 1.391 . S
C394 C398 1.397 . S
C395 C390 1.391 . S
C395 C394 1.391 . S
C395 C396 1.399 . S
C396 C395 1.399 . S
C396 C397 1.396 . S
C396 C399 1.453 . S
C396 C400 1.684 . S
C397 C387 1.723 . S
C397 C396 1.396 . S
C397 C398 1.394 . S
C398 C368 1.723 . S
C398 C394 1.397 . S
C398 C397 1.394 . S
C399 H371 0.982 . S
C399 H375 0.979 . S
C399 H376 0.977 . S
C399 C396 1.453 . S
C400 H372 0.979 . S
C400 H373 0.980 . S
C400 H374 0.983 . S
C400 C396 1.684 . S
H401 C419 0.948 . S
H402 C360 0.948 . S
H403 C378 0.979 . S
H404 C378 0.980 . S
H405 C378 0.983 . S
H406 C377 0.982 . S
H407 C377 0.979 . S
H408 C377 0.977 . S
H409 C379 0.948 . S
H410 C381 0.947 . S
H411 C382 0.948 . S
H412 C388 0.982 . S
H413 C388 0.979 . S
H414 C388 0.977 . S
H415 C389 0.979 . S
H416 C389 0.980 . S
H417 C389 0.983 . S
H418 C362 0.947 . S
C419 C362 1.392 . S
C419 C363 1.419 . S
C419 H401 0.948 . S
C420 C421 1.391 . S
C420 C424 1.391 . S
C420 H462 0.948 . S
C421 C420 1.391 . S
C421 C422 1.391 . S
C422 C421 1.391 . S
C422 H478 0.947 . S
C422 C479 1.392 . S
C423 C424 1.391 . S
C423 C427 1.397 . S
C423 C479 1.419 . S
C424 C420 1.391 . S
C424 C423 1.391 . S
C424 C425 1.399 . S
C425 C424 1.399 . S
C425 C428 1.396 . S
C425 C437 1.453 . S
C425 C438 1.684 . S
H426 C450 0.948 . S
C427 C423 1.397 . S
C427 C428 1.394 . S
C427 C446 1.723 . S
C428 C425 1.396 . S
C428 C427 1.394 . S
C428 C458 1.723 . S
H429 C452 0.947 . S
H430 C453 0.948 . S
H431 C459 0.982 . S
H432 C460 0.979 . S
H433 C460 0.980 . S
H434 C460 0.983 . S
H435 C459 0.979 . S
H436 C459 0.977 . S
C437 C425 1.453 . S
C437 H466 0.982 . S
C437 H467 0.979 . S
C437 H468 0.977 . S
C438 C425 1.684 . S
C438 H463 0.979 . S
C438 H464 0.980 . S
C438 H465 0.983 . S
C439 C440 1.391 . S
C439 C444 1.391 . S
C439 H469 0.948 . S
C440 C439 1.391 . S
C440 C441 1.391 . S
C441 C440 1.391 . S
C441 C442 1.392 . S
C441 H470 0.947 . S
C442 C441 1.392 . S
C442 C443 1.419 . S
C442 H471 0.948 . S
C443 C442 1.419 . S
C443 C444 1.391 . S
C443 C447 1.397 . S
C444 C439 1.391 . S
C444 C443 1.391 . S
C444 C445 1.399 . S
C445 C444 1.399 . S
C445 C446 1.396 . S
C445 C448 1.453 . S
C445 C449 1.684 . S
C446 C427 1.723 . S
C446 C445 1.396 . S
C446 C447 1.394 . S
C447 C443 1.397 . S
C447 C446 1.394 . S
C447 C457 1.723 . S
C448 C445 1.453 . S
C448 H472 0.982 . S
C448 H473 0.979 . S
C448 H474 0.977 . S
C449 C445 1.684 . S
C449 H475 0.979 . S
C449 H476 0.980 . S
C449 H477 0.983 . S
C450 H426 0.948 . S
C450 C451 1.391 . S
C450 C455 1.391 . S
C451 C450 1.391 . S
C451 C452 1.391 . S
C452 H429 0.947 . S
C452 C451 1.391 . S
C452 C453 1.392 . S
C453 H430 0.948 . S
C453 C452 1.392 . S
C453 C454 1.419 . S
C454 C453 1.419 . S
C454 C455 1.391 . S
C454 C458 1.397 . S
C455 C450 1.391 . S
C455 C454 1.391 . S
C455 C456 1.399 . S
C456 C455 1.399 . S
C456 C457 1.396 . S
C456 C459 1.453 . S
C456 C460 1.684 . S
C457 C447 1.723 . S
C457 C456 1.396 . S
C457 C458 1.394 . S
C458 C428 1.723 . S
C458 C454 1.397 . S
C458 C457 1.394 . S
C459 H431 0.982 . S
C459 H435 0.979 . S
C459 H436 0.977 . S
C459 C456 1.453 . S
C460 H432 0.979 . S
C460 H433 0.980 . S
C460 H434 0.983 . S
C460 C456 1.684 . S
H461 C479 0.948 . S
H462 C420 0.948 . S
H463 C438 0.979 . S
H464 C438 0.980 . S
H465 C438 0.983 . S
H466 C437 0.982 . S
H467 C437 0.979 . S
H468 C437 0.977 . S
H469 C439 0.948 . S
H470 C441 0.947 . S
H471 C442 0.948 . S
H472 C448 0.982 . S
H473 C448 0.979 . S
H474 C448 0.977 . S
H475 C449 0.979 . S
H476 C449 0.980 . S
H477 C449 0.983 . S
H478 C422 0.947 . S
C479 C422 1.392 . S
C479 C423 1.419 . S
C479 H461 0.948 . S
C480 C481 1.391 . S
C480 C484 1.391 . S
C480 H522 0.948 . S
C481 C480 1.391 . S
C481 C482 1.391 . S
C482 C481 1.391 . S
C482 H538 0.947 . S
C482 C539 1.392 . S
C483 C484 1.391 . S
C483 C487 1.397 . S
C483 C539 1.419 . S
C484 C480 1.391 . S
C484 C483 1.391 . S
C484 C485 1.399 . S
C485 C484 1.399 . S
C485 C488 1.396 . S
C485 C497 1.453 . S
C485 C498 1.684 . S
H486 C510 0.948 . S
C487 C483 1.397 . S
C487 C488 1.394 . S
C487 C506 1.723 . S
C488 C485 1.396 . S
C488 C487 1.394 . S
C488 C518 1.723 . S
H489 C512 0.947 . S
H490 C513 0.948 . S
H491 C519 0.982 . S
H492 C520 0.979 . S
H493 C520 0.980 . S
H494 C520 0.983 . S
H495 C519 0.979 . S
H496 C519 0.977 . S
C497 C485 1.453 . S
C497 H526 0.982 . S
C497 H527 0.979 . S
C497 H528 0.977 . S
C498 C485 1.684 . S
C498 H523 0.979 . S
C498 H524 0.980 . S
C498 H525 0.983 . S
C499 C500 1.391 . S
C499 C504 1.391 . S
C499 H529 0.948 . S
C500 C499 1.391 . S
C500 C501 1.391 . S
C501 C500 1.391 . S
C501 C502 1.392 . S
C501 H530 0.947 . S
C502 C501 1.392 . S
C502 C503 1.419 . S
C502 H531 0.948 . S
C503 C502 1.419 . S
C503 C504 1.391 . S
C503 C507 1.397 . S
C504 C499 1.391 . S
C504 C503 1.391 . S
C504 C505 1.399 . S
C505 C504 1.399 . S
C505 C506 1.396 . S
C505 C508 1.453 . S
C505 C509 1.684 . S
C506 C487 1.723 . S
C506 C505 1.396 . S
C506 C507 1.394 . S
C507 C503 1.397 . S
C507 C506 1.394 . S
C507 C517 1.723 . S
C508 C505 1.453 . S
C508 H532 0.982 . S
C508 H533 0.979 . S
C508 H534 0.977 . S
C509 C505 1.684 . S
C509 H535 0.979 . S
C509 H536 0.980 . S
C509 H537 0.983 . S
C510 H486 0.948 . S
C510 C511 1.391 . S
C510 C515 1.391 . S
C511 C510 1.391 . S
C511 C512 1.391 . S
C512 H489 0.947 . S
C512 C511 1.391 . S
C512 C513 1.392 . S
C513 H490 0.948 . S
C513 C512 1.392 . S
C513 C514 1.419 . S
C514 C513 1.419 . S
C514 C515 1.391 . S
C514 C518 1.397 . S
C515 C510 1.391 . S
C515 C514 1.391 . S
C515 C516 1.399 . S
C516 C515 1.399 . S
C516 C517 1.396 . S
C516 C519 1.453 . S
C516 C520 1.684 . S
C517 C507 1.723 . S
C517 C516 1.396 . S
C517 C518 1.394 . S
C518 C488 1.723 . S
C518 C514 1.397 . S
C518 C517 1.394 . S
C519 H491 0.982 . S
C519 H495 0.979 . S
C519 H496 0.977 . S
C519 C516 1.453 . S
C520 H492 0.979 . S
C520 H493 0.980 . S
C520 H494 0.983 . S
C520 C516 1.684 . S
H521 C539 0.948 . S
H522 C480 0.948 . S
H523 C498 0.979 . S
H524 C498 0.980 . S
H525 C498 0.983 . S
H526 C497 0.982 . S
H527 C497 0.979 . S
H528 C497 0.977 . S
H529 C499 0.948 . S
H530 C501 0.947 . S
H531 C502 0.948 . S
H532 C508 0.982 . S
H533 C508 0.979 . S
H534 C508 0.977 . S
H535 C509 0.979 . S
H536 C509 0.980 . S
H537 C509 0.983 . S
H538 C482 0.947 . S
C539 C482 1.392 . S
C539 C483 1.419 . S
C539 H521 0.948 . S
C540 C541 1.391 . S
C540 C544 1.391 . S
C540 H582 0.948 . S
C541 C540 1.391 . S
C541 C542 1.391 . S
C542 C541 1.391 . S
C542 H598 0.947 . S
C542 C599 1.392 . S
C543 C544 1.391 . S
C543 C547 1.397 . S
C543 C599 1.419 . S
C544 C540 1.391 . S
C544 C543 1.391 . S
C544 C545 1.399 . S
C545 C544 1.399 . S
C545 C548 1.396 . S
C545 C557 1.453 . S
C545 C558 1.684 . S
H546 C570 0.948 . S
C547 C543 1.397 . S
C547 C548 1.394 . S
C547 C566 1.723 . S
C548 C545 1.396 . S
C548 C547 1.394 . S
C548 C578 1.723 . S
H549 C572 0.947 . S
H550 C573 0.948 . S
H551 C579 0.982 . S
H552 C580 0.979 . S
H553 C580 0.980 . S
H554 C580 0.983 . S
H555 C579 0.979 . S
H556 C579 0.977 . S
C557 C545 1.453 . S
C557 H586 0.982 . S
C557 H587 0.979 . S
C557 H588 0.977 . S
C558 C545 1.684 . S
C558 H583 0.979 . S
C558 H584 0.980 . S
C558 H585 0.983 . S
C559 C560 1.391 . S
C559 C564 1.391 . S
C559 H589 0.948 . S
C560 C559 1.391 . S
C560 C561 1.391 . S
C561 C560 1.391 . S
C561 C562 1.392 . S
C561 H590 0.947 . S
C562 C561 1.392 . S
C562 C563 1.419 . S
C562 H591 0.948 . S
C563 C562 1.419 . S
C563 C564 1.391 . S
C563 C567 1.397 . S
C564 C559 1.391 . S
C564 C563 1.391 . S
C564 C565 1.399 . S
C565 C564 1.399 . S
C565 C566 1.396 . S
C565 C568 1.453 . S
C565 C569 1.684 . S
C566 C547 1.723 . S
C566 C565 1.396 . S
C566 C567 1.394 . S
C567 C563 1.397 . S
C567 C566 1.394 . S
C567 C577 1.723 . S
C568 C565 1.453 . S
C568 H592 0.982 . S
C568 H593 0.979 . S
C568 H594 0.977 . S
C569 C565 1.684 . S
C569 H595 0.979 . S
C569 H596 0.980 . S
C569 H597 0.983 . S
C570 H546 0.948 . S
C570 C571 1.391 . S
C570 C575 1.391 . S
C571 C570 1.391 . S
C571 C572 1.391 . S
C572 H549 0.947 . S
C572 C571 1.391 . S
C572 C573 1.392 . S
C573 H550 0.948 . S
C573 C572 1.392 . S
C573 C574 1.419 . S
C574 C573 1.419 . S
C574 C575 1.391 . S
C574 C578 1.397 . S
C575 C570 1.391 . S
C575 C574 1.391 . S
C575 C576 1.399 . S
C576 C575 1.399 . S
C576 C577 1.396 . S
C576 C579 1.453 . S
C576 C580 1.684 . S
C577 C567 1.723 . S
C577 C576 1.396 . S
C577 C578 1.394 . S
C578 C548 1.723 . S
C578 C574 1.397 . S
C578 C577 1.394 . S
C579 H551 0.982 . S
C579 H555 0.979 . S
C579 H556 0.977 . S
C579 C576 1.453 . S
C580 H552 0.979 . S
C580 H553 0.980 . S
C580 H554 0.983 . S
C580 C576 1.684 . S
H581 C599 0.948 . S
H582 C540 0.948 . S
H583 C558 0.979 . S
H584 C558 0.980 . S
H585 C558 0.983 . S
H586 C557 0.982 . S
H587 C557 0.979 . S
H588 C557 0.977 . S
H589 C559 0.948 . S
H590 C561 0.947 . S
H591 C562 0.948 . S
H592 C568 0.982 . S
H593 C568 0.979 . S
H594 C568 0.977 . S
H595 C569 0.979 . S
H596 C569 0.980 . S
H597 C569 0.983 . S
H598 C542 0.947 . S
C599 C542 1.392 . S
C599 C543 1.419 . S
C599 H581 0.948 . S
C600 C601 1.391 . S
C600 C604 1.391 . S
C600 H642 0.948 . S
C601 C600 1.391 . S
C601 C602 1.391 . S
C602 C601 1.391 . S
C602 H658 0.947 . S
C602 C659 1.392 . S
C603 C604 1.391 . S
C603 C607 1.397 . S
C603 C659 1.419 . S
C604 C600 1.391 . S
C604 C603 1.391 . S
C604 C605 1.399 . S
C605 C604 1.399 . S
C605 C608 1.396 . S
C605 C617 1.453 . S
C605 C618 1.684 . S
H606 C630 0.948 . S
C607 C603 1.397 . S
C607 C608 1.394 . S
C607 C626 1.723 . S
C608 C605 1.396 . S
C608 C607 1.394 . S
C608 C638 1.723 . S
H609 C632 0.947 . S
H610 C633 0.948 . S
H611 C639 0.982 . S
H612 C640 0.979 . S
H613 C640 0.980 . S
H614 C640 0.983 . S
H615 C639 0.979 . S
H616 C639 0.977 . S
C617 C605 1.453 . S
C617 H646 0.982 . S
C617 H647 0.979 . S
C617 H648 0.977 . S
C618 C605 1.684 . S
C618 H643 0.979 . S
C618 H644 0.980 . S
C618 H645 0.983 . S
C619 C620 1.391 . S
C619 C624 1.391 . S
C619 H649 0.948 . S
C620 C619 1.391 . S
C620 C621 1.391 . S
C621 C620 1.391 . S
C621 C622 1.392 . S
C621 H650 0.947 . S
C622 C621 1.392 . S
C622 C623 1.419 . S
C622 H651 0.948 . S
C623 C622 1.419 . S
C623 C624 1.391 . S
C623 C627 1.397 . S
C624 C619 1.391 . S
C624 C623 1.391 . S
C624 C625 1.399 . S
C625 C624 1.399 . S
C625 C626 1.396 . S
C625 C628 1.453 . S
C625 C629 1.684 . S
C626 C607 1.723 . S
C626 C625 1.396 . S
C626 C627 1.394 . S
C627 C623 1.397 . S
C627 C626 1.394 . S
C627 C637 1.723 . S
C628 C625 1.453 . S
C628 H652 0.982 . S
C628 H653 0.979 . S
C628 H654 0.977 . S
C629 C625 1.684 . S
C629 H655 0.979 . S
C629 H656 0.980 . S
C629 H657 0.983 . S
C630 H606 0.948 . S
C630 C631 1.391 . S
C630 C635 1.391 . S
C631 C630 1.391 . S
C631 C632 1.391 . S
C632 H609 0.947 . S
C632 C631 1.391 . S
C632 C633 1.392 . S
C633 H610 0.948 . S
C633 C632 1.392 . S
C633 C634 1.419 . S
C634 C633 1.419 . S
C634 C635 1.391 . S
C634 C638 1.397 . S
C635 C630 1.391 . S
C635 C634 1.391 . S
C635 C636 1.399 . S
C636 C635 1.399 . S
C636 C637 1.396 . S
C636 C639 1.453 . S
C636 C640 1.684 . S
C637 C627 1.723 . S
C637 C636 1.396 . S
C637 C638 1.394 . S
C638 C608 1.723 . S
C638 C634 1.397 . S
C638 C637 1.394 . S
C639 H611 0.982 . S
C639 H615 0.979 . S
C639 H616 0.977 . S
C639 C636 1.453 . S
C640 H612 0.979 . S
C640 H613 0.980 . S
C640 H614 0.983 . S
C640 C636 1.684 . S
H641 C659 0.948 . S
H642 C600 0.948 . S
H643 C618 0.979 . S
H644 C618 0.980 . S
H645 C618 0.983 . S
H646 C617 0.982 . S
H647 C617 0.979 . S
H648 C617 0.977 . S
H649 C619 0.948 . S
H650 C621 0.947 . S
H651 C622 0.948 . S
H652 C628 0.982 . S
H653 C628 0.979 . S
H654 C628 0.977 . S
H655 C629 0.979 . S
H656 C629 0.980 . S
H657 C629 0.983 . S
H658 C602 0.947 . S
C659 C602 1.392 . S
C659 C603 1.419 . S
C659 H641 0.948 . S
C660 C661 1.391 . S
C660 C664 1.391 . S
C660 H702 0.948 . S
C661 C660 1.391 . S
C661 C662 1.391 . S
C662 C661 1.391 . S
C662 H718 0.947 . S
C662 C719 1.392 . S
C663 C664 1.391 . S
C663 C667 1.397 . S
C663 C719 1.419 . S
C664 C660 1.391 . S
C664 C663 1.391 . S
C664 C665 1.399 . S
C665 C664 1.399 . S
C665 C668 1.396 . S
C665 C677 1.453 . S
C665 C678 1.684 . S
H666 C690 0.948 . S
C667 C663 1.397 . S
C667 C668 1.394 . S
C667 C686 1.723 . S
C668 C665 1.396 . S
C668 C667 1.394 . S
C668 C698 1.723 . S
H669 C692 0.947 . S
H670 C693 0.948 . S
H671 C699 0.982 . S
H672 C700 0.979 . S
H673 C700 0.980 . S
H674 C700 0.983 . S
H675 C699 0.979 . S
H676 C699 0.977 . S
C677 C665 1.453 . S
C677 H706 0.982 . S
C677 H707 0.979 . S
C677 H708 0.977 . S
C678 C665 1.684 . S
C678 H703 0.979 . S
C678 H704 0.980 . S
C678 H705 0.983 . S
C679 C680 1.391 . S
C679 C684 1.391 . S
C679 H709 0.948 . S
C680 C679 1.391 . S
C680 C681 1.391 . S
C681 C680 1.391 . S
C681 C682 1.392 . S
C681 H710 0.947 . S
C682 C681 1.392 . S
C682 C683 1.419 . S
C682 H711 0.948 . S
C683 C682 1.419 . S
C683 C684 1.391 . S
C683 C687 1.397 . S
C684 C679 1.391 . S
C684 C683 1.391 . S
C684 C685 1.399 . S
C685 C684 1.399 . S
C685 C686 1.396 . S
C685 C688 1.453 . S
C685 C689 1.684 . S
C686 C667 1.723 . S
C686 C685 1.396 . S
C686 C687 1.394 . S
C687 C683 1.397 . S
C687 C686 1.394 . S
C687 C697 1.723 . S
C688 C685 1.453 . S
C688 H712 0.982 . S
C688 H713 0.979 . S
C688 H714 0.977 . S
C689 C685 1.684 . S
C689 H715 0.979 . S
C689 H716 0.980 . S
C689 H717 0.983 . S
C690 H666 0.948 . S
C690 C691 1.391 . S
C690 C695 1.391 . S
C691 C690 1.391 . S
C691 C692 1.391 . S
C692 H669 0.947 . S
C692 C691 1.391 . S
C692 C693 1.392 . S
C693 H670 0.948 . S
C693 C692 1.392 . S
C693 C694 1.419 . S
C694 C693 1.419 . S
C694 C695 1.391 . S
C694 C698 1.397 . S
C695 C690 1.391 . S
C695 C694 1.391 . S
C695 C696 1.399 . S
C696 C695 1.399 . S
C696 C697 1.396 . S
C696 C699 1.453 . S
C696 C700 1.684 . S
C697 C687 1.723 . S
C697 C696 1.396 . S
C697 C698 1.394 . S
C698 C668 1.723 . S
C698 C694 1.397 . S
C698 C697 1.394 . S
C699 H671 0.982 . S
C699 H675 0.979 . S
C699 H676 0.977 . S
C699 C696 1.453 . S
C700 H672 0.979 . S
C700 H673 0.980 . S
C700 H674 0.983 . S
C700 C696 1.684 . S
H701 C719 0.948 . S
H702 C660 0.948 . S
H703 C678 0.979 . S
H704 C678 0.980 . S
H705 C678 0.983 . S
H706 C677 0.982 . S
H707 C677 0.979 . S
H708 C677 0.977 . S
H709 C679 0.948 . S
H710 C681 0.947 . S
H711 C682 0.948 . S
H712 C688 0.982 . S
H713 C688 0.979 . S
H714 C688 0.977 . S
H715 C689 0.979 . S
H716 C689 0.980 . S
H717 C689 0.983 . S
H718 C662 0.947 . S
C719 C662 1.392 . S
C719 C663 1.419 . S
C719 H701 0.948 . S
C720 C721 1.391 . S
C720 C724 1.391 . S
C720 H762 0.948 . S
C721 C720 1.391 . S
C721 C722 1.391 . S
C722 C721 1.391 . S
C722 H778 0.947 . S
C722 C779 1.392 . S
C723 C724 1.391 . S
C723 C727 1.397 . S
C723 C779 1.419 . S
C724 C720 1.391 . S
C724 C723 1.391 . S
C724 C725 1.399 . S
C725 C724 1.399 . S
C725 C728 1.396 . S
C725 C737 1.453 . S
C725 C738 1.684 . S
H726 C750 0.948 . S
C727 C723 1.397 . S
C727 C728 1.394 . S
C727 C746 1.723 . S
C728 C725 1.396 . S
C728 C727 1.394 . S
C728 C758 1.723 . S
H729 C752 0.947 . S
H730 C753 0.948 . S
H731 C759 0.982 . S
H732 C760 0.979 . S
H733 C760 0.980 . S
H734 C760 0.983 . S
H735 C759 0.979 . S
H736 C759 0.977 . S
C737 C725 1.453 . S
C737 H766 0.982 . S
C737 H767 0.979 . S
C737 H768 0.977 . S
C738 C725 1.684 . S
C738 H763 0.979 . S
C738 H764 0.980 . S
C738 H765 0.983 . S
C739 C740 1.391 . S
C739 C744 1.391 . S
C739 H769 0.948 . S
C740 C739 1.391 . S
C740 C741 1.391 . S
C741 C740 1.391 . S
C741 C742 1.392 . S
C741 H770 0.947 . S
C742 C741 1.392 . S
C742 C743 1.419 . S
C742 H771 0.948 . S
C743 C742 1.419 . S
C743 C744 1.391 . S
C743 C747 1.397 . S
C744 C739 1.391 . S
C744 C743 1.391 . S
C744 C745 1.399 . S
C745 C744 1.399 . S
C745 C746 1.396 . S
C745 C748 1.453 . S
C745 C749 1.684 . S
C746 C727 1.723 . S
C746 C745 1.396 . S
C746 C747 1.394 . S
C747 C743 1.397 . S
C747 C746 1.394 . S
C747 C757 1.723 . S
C748 C745 1.453 . S
C748 H772 0.982 . S
C748 H773 0.979 . S
C748 H774 0.977 . S
C749 C745 1.684 . S
C749 H775 0.979 . S
C749 H776 0.980 . S
C749 H777 0.983 . S
C750 H726 0.948 . S
C750 C751 1.391 . S
C750 C755 1.391 . S
C751 C750 1.391 . S
C751 C752 1.391 . S
C752 H729 0.947 . S
C752 C751 1.391 . S
C752 C753 1.392 . S
C753 H730 0.948 . S
C753 C752 1.392 . S
C753 C754 1.419 . S
C754 C753 1.419 . S
C754 C755 1.391 . S
C754 C758 1.397 . S
C755 C750 1.391 . S
C755 C754 1.391 . S
C755 C756 1.399 . S
C756 C755 1.399 . S
C756 C757 1.396 . S
C756 C759 1.453 . S
C756 C760 1.684 . S
C757 C747 1.723 . S
C757 C756 1.396 . S
C757 C758 1.394 . S
C758 C728 1.723 . S
C758 C754 1.397 . S
C758 C757 1.394 . S
C759 H731 0.982 . S
C759 H735 0.979 . S
C759 H736 0.977 . S
C759 C756 1.453 . S
C760 H732 0.979 . S
C760 H733 0.980 . S
C760 H734 0.983 . S
C760 C756 1.684 . S
H761 C779 0.948 . S
H762 C720 0.948 . S
H763 C738 0.979 . S
H764 C738 0.980 . S
H765 C738 0.983 . S
H766 C737 0.982 . S
H767 C737 0.979 . S
H768 C737 0.977 . S
H769 C739 0.948 . S
H770 C741 0.947 . S
H771 C742 0.948 . S
H772 C748 0.982 . S
H773 C748 0.979 . S
H774 C748 0.977 . S
H775 C749 0.979 . S
H776 C749 0.980 . S
H777 C749 0.983 . S
H778 C722 0.947 . S
C779 C722 1.392 . S
C779 C723 1.419 . S
C779 H761 0.948 . S
C780 C781 1.391 . S
C780 C784 1.391 . S
C780 H822 0.948 . S
C781 C780 1.391 . S
C781 C782 1.391 . S
C782 C781 1.391 . S
C782 H838 0.947 . S
C782 C839 1.392 . S
C783 C784 1.391 . S
C783 C787 1.397 . S
C783 C839 1.419 . S
C784 C780 1.391 . S
C784 C783 1.391 . S
C784 C785 1.399 . S
C785 C784 1.399 . S
C785 C788 1.396 . S
C785 C797 1.453 . S
C785 C798 1.684 . S
H786 C810 0.948 . S
C787 C783 1.397 . S
C787 C788 1.394 . S
C787 C806 1.723 . S
C788 C785 1.396 . S
C788 C787 1.394 . S
C788 C818 1.723 . S
H789 C812 0.947 . S
H790 C813 0.948 . S
H791 C819 0.982 . S
H792 C820 0.979 . S
H793 C820 0.980 . S
H794 C820 0.983 . S
H795 C819 0.979 . S
H796 C819 0.977 . S
C797 C785 1.453 . S
C797 H826 0.982 . S
C797 H827 0.979 . S
C797 H828 0.977 . S
C798 C785 1.684 . S
C798 H823 0.979 . S
C798 H824 0.980 . S
C798 H825 0.983 . S
C799 C800 1.391 . S
C799 C804 1.391 . S
C799 H829 0.948 . S
C800 C799 1.391 . S
C800 C801 1.391 . S
C801 C800 1.391 . S
C801 C802 1.392 . S
C801 H830 0.947 . S
C802 C801 1.392 . S
C802 C803 1.419 . S
C802 H831 0.948 . S
C803 C802 1.419 . S
C803 C804 1.391 . S
C803 C807 1.397 . S
C804 C799 1.391 . S
C804 C803 1.391 . S
C804 C805 1.399 . S
C805 C804 1.399 . S
C805 C806 1.396 . S
C805 C808 1.453 . S
C805 C809 1.684 . S
C806 C787 1.723 . S
C806 C805 1.396 . S
C806 C807 1.394 . S
C807 C803 1.397 . S
C807 C806 1.394 . S
C807 C817 1.723 . S
C808 C805 1.453 . S
C808 H832 0.982 . S
C808 H833 0.979 . S
C808 H834 0.977 . S
C809 C805 1.684 . S
C809 H835 0.979 . S
C809 H836 0.980 . S
C809 H837 0.983 . S
C810 H786 0.948 . S
C810 C811 1.391 . S
C810 C815 1.391 . S
C811 C810 1.391 . S
C811 C812 1.391 . S
C812 H789 0.947 . S
C812 C811 1.391 . S
C812 C813 1.392 . S
C813 H790 0.948 . S
C813 C812 1.392 . S
C813 C814 1.419 . S
C814 C813 1.419 . S
C814 C815 1.391 . S
C814 C818 1.397 . S
C815 C810 1.391 . S
C815 C814 1.391 . S
C815 C816 1.399 . S
C816 C815 1.399 . S
C816 C817 1.396 . S
C816 C819 1.453 . S
C816 C820 1.684 . S
C817 C807 1.723 . S
C817 C816 1.396 . S
C817 C818 1.394 . S
C818 C788 1.723 . S
C818 C814 1.397 . S
C818 C817 1.394 . S
C819 H791 0.982 . S
C819 H795 0.979 . S
C819 H796 0.977 . S
C819 C816 1.453 . S
C820 H792 0.979 . S
C820 H793 0.980 . S
C820 H794 0.983 . S
C820 C816 1.684 . S
H821 C839 0.948 . S
H822 C780 0.948 . S
H823 C798 0.979 . S
H824 C798 0.980 . S
H825 C798 0.983 . S
H826 C797 0.982 . S
H827 C797 0.979 . S
H828 C797 0.977 . S
H829 C799 0.948 . S
H830 C801 0.947 . S
H831 C802 0.948 . S
H832 C808 0.982 . S
H833 C808 0.979 . S
H834 C808 0.977 . S
H835 C809 0.979 . S
H836 C809 0.980 . S
H837 C809 0.983 . S
H838 C782 0.947 . S
C839 C782 1.392 . S
C839 C783 1.419 . S
C839 H821 0.948 . S
C840 C841 1.391 . S
C840 C844 1.391 . S
C840 H882 0.948 . S
C841 C840 1.391 . S
C841 C842 1.391 . S
C842 C841 1.391 . S
C842 H898 0.947 . S
C842 C899 1.392 . S
C843 C844 1.391 . S
C843 C847 1.397 . S
C843 C899 1.419 . S
C844 C840 1.391 . S
C844 C843 1.391 . S
C844 C845 1.399 . S
C845 C844 1.399 . S
C845 C848 1.396 . S
C845 C857 1.453 . S
C845 C858 1.684 . S
H846 C870 0.948 . S
C847 C843 1.397 . S
C847 C848 1.394 . S
C847 C866 1.723 . S
C848 C845 1.396 . S
C848 C847 1.394 . S
C848 C878 1.723 . S
H849 C872 0.947 . S
H850 C873 0.948 . S
H851 C879 0.982 . S
H852 C880 0.979 . S
H853 C880 0.980 . S
H854 C880 0.983 . S
H855 C879 0.979 . S
H856 C879 0.977 . S
C857 C845 1.453 . S
C857 H886 0.982 . S
C857 H887 0.979 . S
C857 H888 0.977 . S
C858 C845 1.684 . S
C858 H883 0.979 . S
C858 H884 0.980 . S
C858 H885 0.983 . S
C859 C860 1.391 . S
C859 C864 1.391 . S
C859 H889 0.948 . S
C860 C859 1.391 . S
C860 C861 1.391 . S
C861 C860 1.391 . S
C861 C862 1.392 . S
C861 H890 0.947 . S
C862 C861 1.392 . S
C862 C863 1.419 . S
C862 H891 0.948 . S
C863 C862 1.419 . S
C863 C864 1.391 . S
C863 C867 1.397 . S
C864 C859 1.391 . S
C864 C863 1.391 . S
C864 C865 1.399 . S
C865 C864 1.399 . S
C865 C866 1.396 . S
C865 C868 1.453 . S
C865 C869 1.684 . S
C866 C847 1.723 . S
C866 C865 1.396 . S
C866 C867 1.394 . S
C867 C863 1.397 . S
C867 C866 1.394 . S
C867 C877 1.723 . S
C868 C865 1.453 . S
C868 H892 0.982 . S
C868 H893 0.979 . S
C868 H894 0.977 . S
C869 C865 1.684 . S
C869 H895 0.979 . S
C869 H896 0.980 . S
C869 H897 0.983 . S
C870 H846 0.948 . S
C870 C871 1.391 . S
C870 C875 1.391 . S
C871 C870 1.391 . S
C871 C872 1.391 . S
C872 H849 0.947 . S
C872 C871 1.391 . S
C872 C873 1.392 . S
C873 H850 0.948 . S
C873 C872 1.392 . S
C873 C874 1.419 . S
C874 C873 1.419 . S
C874 C875 1.391 . S
C874 C878 1.397 . S
C875 C870 1.391 . S
C875 C874 1.391 . S
C875 C876 1.399 . S
C876 C875 1.399 . S
C876 C877 1.396 . S
C876 C879 1.453 . S
C876 C880 1.684 . S
C877 C867 1.723 . S
C877 C876 1.396 . S
C877 C878 1.394 . S
C878 C848 1.723 . S
C878 C874 1.397 . S
C878 C877 1.394 . S
C879 H851 0.982 . S
C879 H855 0.979 . S
C879 H856 0.977 . S
C879 C876 1.453 . S
C880 H852 0.979 . S
C880 H853 0.980 . S
C880 H854 0.983 . S
C880 C876 1.684 . S
H881 C899 0.948 . S
H882 C840 0.948 . S
H883 C858 0.979 . S
H884 C858 0.980 . S
H885 C858 0.983 . S
H886 C857 0.982 . S
H887 C857 0.979 . S
H888 C857 0.977 . S
H889 C859 0.948 . S
H890 C861 0.947 . S
H891 C862 0.948 . S
H892 C868 0.982 . S
H893 C868 0.979 . S
H894 C868 0.977 . S
H895 C869 0.979 . S
H896 C869 0.980 . S
H897 C869 0.983 . S
H898 C842 0.947 . S
C899 C842 1.392 . S
C899 C843 1.419 . S
C899 H881 0.948 . S
C900 C901 1.391 . S
C900 C904 1.391 . S
C900 H942 0.948 . S
C901 C900 1.391 . S
C901 C902 1.391 . S
C902 C901 1.391 . S
C902 H958 0.947 . S
C902 C959 1.392 . S
C903 C904 1.391 . S
C903 C907 1.397 . S
C903 C959 1.419 . S
C904 C900 1.391 . S
C904 C903 1.391 . S
C904 C905 1.399 . S
C905 C904 1.399 . S
C905 C908 1.396 . S
C905 C917 1.453 . S
C905 C918 1.684 . S
H906 C930 0.948 . S
C907 C903 1.397 . S
C907 C908 1.394 . S
C907 C926 1.723 . S
C908 C905 1.396 . S
C908 C907 1.394 . S
C908 C938 1.723 . S
H909 C932 0.947 . S
H910 C933 0.948 . S
H911 C939 0.982 . S
H912 C940 0.979 . S
H913 C940 0.980 . S
H914 C940 0.983 . S
H915 C939 0.979 . S
H916 C939 0.977 . S
C917 C905 1.453 . S
C917 H946 0.982 . S
C917 H947 0.979 . S
C917 H948 0.977 . S
C918 C905 1.684 . S
C918 H943 0.979 . S
C918 H944 0.980 . S
C918 H945 0.983 . S
C919 C920 1.391 . S
C919 C924 1.391 . S
C919 H949 0.948 . S
C920 C919 1.391 . S
C920 C921 1.391 . S
C921 C920 1.391 . S
C921 C922 1.392 . S
C921 H950 0.947 . S
C922 C921 1.392 . S
C922 C923 1.419 . S
C922 H951 0.948 . S
C923 C922 1.419 . S
C923 C924 1.391 . S
C923 C927 1.397 . S
C924 C919 1.391 . S
C924 C923 1.391 . S
C924 C925 1.399 . S
C925 C924 1.399 . S
C925 C926 1.396 . S
C925 C928 1.453 . S
C925 C929 1.684 . S
C926 C907 1.723 . S
C926 C925 1.396 . S
C926 C927 1.394 . S
C927 C923 1.397 . S
C927 C926 1.394 . S
C927 C937 1.723 . S
C928 C925 1.453 . S
C928 H952 0.982 . S
C928 H953 0.979 . S
C928 H954 0.977 . S
C929 C925 1.684 . S
C929 H955 0.979 . S
C929 H956 0.980 . S
C929 H957 0.983 . S
C930 H906 0.948 . S
C930 C931 1.391 . S
C930 C935 1.391 . S
C931 C930 1.391 . S
C931 C932 1.391 . S
C932 H909 0.947 . S
C932 C931 1.391 . S
C932 C933 1.392 . S
C933 H910 0.948 . S
C933 C932 1.392 . S
C933 C934 1.419 . S
C934 C933 1.419 . S
C934 C935 1.391 . S
C934 C938 1.397 . S
C935 C930 1.391 . S
C935 C934 1.391 . S
C935 C936 1.399 . S
C936 C935 1.399 . S
C936 C937 1.396 . S
C936 C939 1.453 . S
C936 C940 1.684 . S
C937 C927 1.723 . S
C937 C936 1.396 . S
C937 C938 1.394 . S
C938 C908 1.723 . S
C938 C934 1.397 . S
C938 C937 1.394 . S
C939 H911 0.982 . S
C939 H915 0.979 . S
C939 H916 0.977 . S
C939 C936 1.453 . S
C940 H912 0.979 . S
C940 H913 0.980 . S
C940 H914 0.983 . S
C940 C936 1.684 . S
H941 C959 0.948 . S
H942 C900 0.948 . S
H943 C918 0.979 . S
H944 C918 0.980 . S
H945 C918 0.983 . S
H946 C917 0.982 . S
H947 C917 0.979 . S
H948 C917 0.977 . S
H949 C919 0.948 . S
H950 C921 0.947 . S
H951 C922 0.948 . S
H952 C928 0.982 . S
H953 C928 0.979 . S
H954 C928 0.977 . S
H955 C929 0.979 . S
H956 C929 0.980 . S
H957 C929 0.983 . S
H958 C902 0.947 . S
C959 C902 1.392 . S
C959 C903 1.419 . S
C959 H941 0.948 . S
C960 C961 1.391 . S
C960 C964 1.391 . S
C960 H1002 0.948 . S
C961 C960 1.391 . S
C961 C962 1.391 . S
C962 C961 1.391 . S
C962 H1018 0.947 . S
C962 C1019 1.392 . S
C963 C964 1.391 . S
C963 C967 1.397 . S
C963 C1019 1.419 . S
C964 C960 1.391 . S
C964 C963 1.391 . S
C964 C965 1.399 . S
C965 C964 1.399 . S
C965 C968 1.396 . S
C965 C977 1.453 . S
C965 C978 1.684 . S
H966 C990 0.948 . S
C967 C963 1.397 . S
C967 C968 1.394 . S
C967 C986 1.723 . S
C968 C965 1.396 . S
C968 C967 1.394 . S
C968 C998 1.723 . S
H969 C992 0.947 . S
H970 C993 0.948 . S
H971 C999 0.982 . S
H972 C1000 0.979 . S
H973 C1000 0.980 . S
H974 C1000 0.983 . S
H975 C999 0.979 . S
H976 C999 0.977 . S
C977 C965 1.453 . S
C977 H1006 0.982 . S
C977 H1007 0.979 . S
C977 H1008 0.977 . S
C978 C965 1.684 . S
C978 H1003 0.979 . S
C978 H1004 0.980 . S
C978 H1005 0.983 . S
C979 C980 1.391 . S
C979 C984 1.391 . S
C979 H1009 0.948 . S
C980 C979 1.391 . S
C980 C981 1.391 . S
C981 C980 1.391 . S
C981 C982 1.392 . S
C981 H1010 0.947 . S
C982 C981 1.392 . S
C982 C983 1.419 . S
C982 H1011 0.948 . S
C983 C982 1.419 . S
C983 C984 1.391 . S
C983 C987 1.397 . S
C984 C979 1.391 . S
C984 C983 1.391 . S
C984 C985 1.399 . S
C985 C984 1.399 . S
C985 C986 1.396 . S
C985 C988 1.453 . S
C985 C989 1.684 . S
C986 C967 1.723 . S
C986 C985 1.396 . S
C986 C987 1.394 . S
C987 C983 1.397 . S
C987 C986 1.394 . S
C987 C997 1.723 . S
C988 C985 1.453 . S
C988 H1012 0.982 . S
C988 H1013 0.979 . S
C988 H1014 0.977 . S
C989 C985 1.684 . S
C989 H1015 0.979 . S
C989 H1016 0.980 . S
C989 H1017 0.983 . S
C990 H966 0.948 . S
C990 C991 1.391 . S
C990 C995 1.391 . S
C991 C990 1.391 . S
C991 C992 1.391 . S
C992 H969 0.947 . S
C992 C991 1.391 . S
C992 C993 1.392 . S
C993 H970 0.948 . S
C993 C992 1.392 . S
C993 C994 1.419 . S
C994 C993 1.419 . S
C994 C995 1.391 . S
C994 C998 1.397 . S
C995 C990 1.391 . S
C995 C994 1.391 . S
C995 C996 1.399 . S
C996 C995 1.399 . S
C996 C997 1.396 . S
C996 C999 1.453 . S
C996 C1000 1.684 . S
C997 C987 1.723 . S
C997 C996 1.396 . S
C997 C998 1.394 . S
C998 C968 1.723 . S
C998 C994 1.397 . S
C998 C997 1.394 . S
C999 H971 0.982 . S
C999 H975 0.979 . S
C999 H976 0.977 . S
C999 C996 1.453 . S
C1000 H972 0.979 . S
C1000 H973 0.980 . S
C1000 H974 0.983 . S
C1000 C996 1.684 . S
H1001 C1019 0.948 . S
H1002 C960 0.948 . S
H1003 C978 0.979 . S
H1004 C978 0.980 . S
H1005 C978 0.983 . S
H1006 C977 0.982 . S
H1007 C977 0.979 . S
H1008 C977 0.977 . S
H1009 C979 0.948 . S
H1010 C981 0.947 . S
H1011 C982 0.948 . S
H1012 C988 0.982 . S
H1013 C988 0.979 . S
H1014 C988 0.977 . S
H1015 C989 0.979 . S
H1016 C989 0.980 . S
H1017 C989 0.983 . S
H1018 C962 0.947 . S
C1019 C962 1.392 . S
C1019 C963 1.419 . S
C1019 H1001 0.948 . S
C1020 C1021 1.391 . S
C1020 C1024 1.391 . S
C1020 H1062 0.948 . S
C1021 C1020 1.391 . S
C1021 C1022 1.391 . S
C1022 C1021 1.391 . S
C1022 H1078 0.947 . S
C1022 C1079 1.392 . S
C1023 C1024 1.391 . S
C1023 C1027 1.397 . S
C1023 C1079 1.419 . S
C1024 C1020 1.391 . S
C1024 C1023 1.391 . S
C1024 C1025 1.399 . S
C1025 C1024 1.399 . S
C1025 C1028 1.396 . S
C1025 C1037 1.453 . S
C1025 C1038 1.684 . S
H1026 C1050 0.948 . S
C1027 C1023 1.397 . S
C1027 C1028 1.394 . S
C1027 C1046 1.723 . S
C1028 C1025 1.396 . S
C1028 C1027 1.394 . S
C1028 C1058 1.723 . S
H1029 C1052 0.947 . S
H1030 C1053 0.948 . S
H1031 C1059 0.982 . S
H1032 C1060 0.979 . S
H1033 C1060 0.980 . S
H1034 C1060 0.983 . S
H1035 C1059 0.979 . S
H1036 C1059 0.977 . S
C1037 C1025 1.453 . S
C1037 H1066 0.982 . S
C1037 H1067 0.979 . S
C1037 H1068 0.977 . S
C1038 C1025 1.684 . S
C1038 H1063 0.979 . S
C1038 H1064 0.980 . S
C1038 H1065 0.983 . S
C1039 C1040 1.391 . S
C1039 C1044 1.391 . S
C1039 H1069 0.948 . S
C1040 C1039 1.391 . S
C1040 C1041 1.391 . S
C1041 C1040 1.391 . S
C1041 C1042 1.392 . S
C1041 H1070 0.947 . S
C1042 C1041 1.392 . S
C1042 C1043 1.419 . S
C1042 H1071 0.948 . S
C1043 C1042 1.419 . S
C1043 C1044 1.391 . S
C1043 C1047 1.397 . S
C1044 C1039 1.391 . S
C1044 C1043 1.391 . S
C1044 C1045 1.399 . S
C1045 C1044 1.399 . S
C1045 C1046 1.396 . S
C1045 C1048 1.453 . S
C1045 C1049 1.684 . S
C1046 C1027 1.723 . S
C1046 C1045 1.396 . S
C1046 C1047 1.394 . S
C1047 C1043 1.397 . S
C1047 C1046 1.394 . S
C1047 C1057 1.723 . S
C1048 C1045 1.453 . S
C1048 H1072 0.982 . S
C1048 H1073 0.979 . S
C1048 H1074 0.977 . S
C1049 C1045 1.684 . S
C1049 H1075 0.979 . S
C1049 H1076 0.980 . S
C1049 H1077 0.983 . S
C1050 H1026 0.948 . S
C1050 C1051 1.391 . S
C1050 C1055 1.391 . S
C1051 C1050 1.391 . S
C1051 C1052 1.391 . S
C1052 H1029 0.947 . S
C1052 C1051 1.391 . S
C1052 C1053 1.392 . S
C1053 H1030 0.948 . S
C1053 C1052 1.392 . S
C1053 C1054 1.419 . S
C1054 C1053 1.419 . S
C1054 C1055 1.391 . S
C1054 C1058 1.397 . S
C1055 C1050 1.391 . S
C1055 C1054 1.391 . S
C1055 C1056 1.399 . S
C1056 C1055 1.399 . S
C1056 C1057 1.396 . S
C1056 C1059 1.453 . S
C1056 C1060 1.684 . S
C1057 C1047 1.723 . S
C1057 C1056 1.396 . S
C1057 C1058 1.394 . S
C1058 C1028 1.723 . S
C1058 C1054 1.397 . S
C1058 C1057 1.394 . S
C1059 H1031 0.982 . S
C1059 H1035 0.979 . S
C1059 H1036 0.977 . S
C1059 C1056 1.453 . S
C1060 H1032 0.979 . S
C1060 H1033 0.980 . S
C1060 H1034 0.983 . S
C1060 C1056 1.684 . S
H1061 C1079 0.948 . S
H1062 C1020 0.948 . S
H1063 C1038 0.979 . S
H1064 C1038 0.980 . S
H1065 C1038 0.983 . S
H1066 C1037 0.982 . S
H1067 C1037 0.979 . S
H1068 C1037 0.977 . S
H1069 C1039 0.948 . S
H1070 C1041 0.947 . S
H1071 C1042 0.948 . S
H1072 C1048 0.982 . S
H1073 C1048 0.979 . S
H1074 C1048 0.977 . S
H1075 C1049 0.979 . S
H1076 C1049 0.980 . S
H1077 C1049 0.983 . S
H1078 C1022 0.947 . S
C1079 C1022 1.392 . S
C1079 C1023 1.419 . S
C1079 H1061 0.948 . S
C1080 C1081 1.391 . S
C1080 C1084 1.391 . S
C1080 H1122 0.948 . S
C1081 C1080 1.391 . S
C1081 C1082 1.391 . S
C1082 C1081 1.391 . S
C1082 H1138 0.947 . S
C1082 C1139 1.392 . S
C1083 C1084 1.391 . S
C1083 C1087 1.397 . S
C1083 C1139 1.419 . S
C1084 C1080 1.391 . S
C1084 C1083 1.391 . S
C1084 C1085 1.399 . S
C1085 C1084 1.399 . S
C1085 C1088 1.396 . S
C1085 C1097 1.453 . S
C1085 C1098 1.684 . S
H1086 C1110 0.948 . S
C1087 C1083 1.397 . S
C1087 C1088 1.394 . S
C1087 C1106 1.723 . S
C1088 C1085 1.396 . S
C1088 C1087 1.394 . S
C1088 C1118 1.723 . S
H1089 C1112 0.947 . S
H1090 C1113 0.948 . S
H1091 C1119 0.982 . S
H1092 C1120 0.979 . S
H1093 C1120 0.980 . S
H1094 C1120 0.983 . S
H1095 C1119 0.979 . S
H1096 C1119 0.977 . S
C1097 C1085 1.453 . S
C1097 H1126 0.982 . S
C1097 H1127 0.979 . S
C1097 H1128 0.977 . S
C1098 C1085 1.684 . S
C1098 H1123 0.979 . S
C1098 H1124 0.980 . S
C1098 H1125 0.983 . S
C1099 C1100 1.391 . S
C1099 C1104 1.391 . S
C1099 H1129 0.948 . S
C1100 C1099 1.391 . S
C1100 C1101 1.391 . S
C1101 C1100 1.391 . S
C1101 C1102 1.392 . S
C1101 H1130 0.947 . S
C1102 C1101 1.392 . S
C1102 C1103 1.419 . S
C1102 H1131 0.948 . S
C1103 C1102 1.419 . S
C1103 C1104 1.391 . S
C1103 C1107 1.397 . S
C1104 C1099 1.391 . S
C1104 C1103 1.391 . S
C1104 C1105 1.399 . S
C1105 C1104 1.399 . S
C1105 C1106 1.396 . S
C1105 C1108 1.453 . S
C1105 C1109 1.684 . S
C1106 C1087 1.723 . S
C1106 C1105 1.396 . S
C1106 C1107 1.394 . S
C1107 C1103 1.397 . S
C1107 C1106 1.394 . S
C1107 C1117 1.723 . S
C1108 C1105 1.453 . S
C1108 H1132 0.982 . S
C1108 H1133 0.979 . S
C1108 H1134 0.977 . S
C1109 C1105 1.684 . S
C1109 H1135 0.979 . S
C1109 H1136 0.980 . S
C1109 H1137 0.983 . S
C1110 H1086 0.948 . S
C1110 C1111 1.391 . S
C1110 C1115 1.391 . S
C1111 C1110 1.391 . S
C1111 C1112 1.391 . S
C1112 H1089 0.947 . S
C1112 C1111 1.391 . S
C1112 C1113 1.392 . S
C1113 H1090 0.948 . S
C1113 C1112 1.392 . S
C1113 C1114 1.419 . S
C1114 C1113 1.419 . S
C1114 C1115 1.391 . S
C1114 C1118 1.397 . S
C1115 C1110 1.391 . S
C1115 C1114 1.391 . S
C1115 C1116 1.399 . S
C1116 C1115 1.399 . S
C1116 C1117 1.396 . S
C1116 C1119 1.453 . S
C1116 C1120 1.684 . S
C1117 C1107 1.723 . S
C1117 C1116 1.396 . S
C1117 C1118 1.394 . S
C1118 C1088 1.723 . S
C1118 C1114 1.397 . S
C1118 C1117 1.394 . S
C1119 H1091 0.982 . S
C1119 H1095 0.979 . S
C1119 H1096 0.977 . S
C1119 C1116 1.453 . S
C1120 H1092 0.979 . S
C1120 H1093 0.980 . S
C1120 H1094 0.983 . S
C1120 C1116 1.684 . S
H1121 C1139 0.948 . S
H1122 C1080 0.948 . S
H1123 C1098 0.979 . S
H1124 C1098 0.980 . S
H1125 C1098 0.983 . S
H1126 C1097 0.982 . S
H1127 C1097 0.979 . S
H1128 C1097 0.977 . S
H1129 C1099 0.948 . S
H1130 C1101 0.947 . S
H1131 C1102 0.948 . S
H1132 C1108 0.982 . S
H1133 C1108 0.979 . S
H1134 C1108 0.977 . S
H1135 C1109 0.979 . S
H1136 C1109 0.980 . S
H1137 C1109 0.983 . S
H1138 C1082 0.947 . S
C1139 C1082 1.392 . S
C1139 C1083 1.419 . S
C1139 H1121 0.948 . S
C1140 C1141 1.391 . S
C1140 C1144 1.391 . S
C1140 H1182 0.948 . S
C1141 C1140 1.391 . S
C1141 C1142 1.391 . S
C1142 C1141 1.391 . S
C1142 H1198 0.947 . S
C1142 C1199 1.392 . S
C1143 C1144 1.391 . S
C1143 C1147 1.397 . S
C1143 C1199 1.419 . S
C1144 C1140 1.391 . S
C1144 C1143 1.391 . S
C1144 C1145 1.399 . S
C1145 C1144 1.399 . S
C1145 C1148 1.396 . S
C1145 C1157 1.453 . S
C1145 C1158 1.684 . S
H1146 C1170 0.948 . S
C1147 C1143 1.397 . S
C1147 C1148 1.394 . S
C1147 C1166 1.723 . S
C1148 C1145 1.396 . S
C1148 C1147 1.394 . S
C1148 C1178 1.723 . S
H1149 C1172 0.947 . S
H1150 C1173 0.948 . S
H1151 C1179 0.982 . S
H1152 C1180 0.979 . S
H1153 C1180 0.980 . S
H1154 C1180 0.983 . S
H1155 C1179 0.979 . S
H1156 C1179 0.977 . S
C1157 C1145 1.453 . S
C1157 H1186 0.982 . S
C1157 H1187 0.979 . S
C1157 H1188 0.977 . S
C1158 C1145 1.684 . S
C1158 H1183 0.979 . S
C1158 H1184 0.980 . S
C1158 H1185 0.983 . S
C1159 C1160 1.391 . S
C1159 C1164 1.391 . S
C1159 H1189 0.948 . S
C1160 C1159 1.391 . S
C1160 C1161 1.391 . S
C1161 C1160 1.391 . S
C1161 C1162 1.392 . S
C1161 H1190 0.947 . S
C1162 C1161 1.392 . S
C1162 C1163 1.419 . S
C1162 H1191 0.948 . S
C1163 C1162 1.419 . S
C1163 C1164 1.391 . S
C1163 C1167 1.397 . S
C1164 C1159 1.391 . S
C1164 C1163 1.391 . S
C1164 C1165 1.399 . S
C1165 C1164 1.399 . S
C1165 C1166 1.396 . S
C1165 C1168 1.453 . S
C1165 C1169 1.684 . S
C1166 C1147 1.723 . S
C1166 C1165 1.396 . S
C1166 C1167 1.394 . S
C1167 C1163 1.397 . S
C1167 C1166 1.394 . S
C1167 C1177 1.723 . S
C1168 C1165 1.453 . S
C1168 H1192 0.982 . S
C1168 H1193 0.979 . S
C1168 H1194 0.977 . S
C1169 C1165 1.684 . S
C1169 H1195 0.979 . S
C1169 H1196 0.980 . S
C1169 H1197 0.983 . S
C1170 H1146 0.948 . S
C1170 C1171 1.391 . S
C1170 C1175 1.391 . S
C1171 C1170 1.391 . S
C1171 C1172 1.391 . S
C1172 H1149 0.947 . S
C1172 C1171 1.391 . S
C1172 C1173 1.392 . S
C1173 H1150 0.948 . S
C1173 C1172 1.392 . S
C1173 C1174 1.419 . S
C1174 C1173 1.419 . S
C1174 C1175 1.391 . S
C1174 C1178 1.397 . S
C1175 C1170 1.391 . S
C1175 C1174 1.391 . S
C1175 C1176 1.399 . S
C1176 C1175 1.399 . S
C1176 C1177 1.396 . S
C1176 C1179 1.453 . S
C1176 C1180 1.684 . S
C1177 C1167 1.723 . S
C1177 C1176 1.396 . S
C1177 C1178 1.394 . S
C1178 C1148 1.723 . S
C1178 C1174 1.397 . S
C1178 C1177 1.394 . S
C1179 H1151 0.982 . S
C1179 H1155 0.979 . S
C1179 H1156 0.977 . S
C1179 C1176 1.453 . S
C1180 H1152 0.979 . S
C1180 H1153 0.980 . S
C1180 H1154 0.983 . S
C1180 C1176 1.684 . S
H1181 C1199 0.948 . S
H1182 C1140 0.948 . S
H1183 C1158 0.979 . S
H1184 C1158 0.980 . S
H1185 C1158 0.983 . S
H1186 C1157 0.982 . S
H1187 C1157 0.979 . S
H1188 C1157 0.977 . S
H1189 C1159 0.948 . S
H1190 C1161 0.947 . S
H1191 C1162 0.948 . S
H1192 C1168 0.982 . S
H1193 C1168 0.979 . S
H1194 C1168 0.977 . S
H1195 C1169 0.979 . S
H1196 C1169 0.980 . S
H1197 C1169 0.983 . S
H1198 C1142 0.947 . S
C1199 C1142 1.392 . S
C1199 C1143 1.419 . S
C1199 H1181 0.948 . S
C1200 C1201 1.391 . S
C1200 C1204 1.391 . S
C1200 H1242 0.948 . S
C1201 C1200 1.391 . S
C1201 C1202 1.391 . S
C1202 C1201 1.391 . S
C1202 H1258 0.947 . S
C1202 C1259 1.392 . S
C1203 C1204 1.391 . S
C1203 C1207 1.397 . S
C1203 C1259 1.419 . S
C1204 C1200 1.391 . S
C1204 C1203 1.391 . S
C1204 C1205 1.399 . S
C1205 C1204 1.399 . S
C1205 C1208 1.396 . S
C1205 C1217 1.453 . S
C1205 C1218 1.684 . S
H1206 C1230 0.948 . S
C1207 C1203 1.397 . S
C1207 C1208 1.394 . S
C1207 C1226 1.723 . S
C1208 C1205 1.396 . S
C1208 C1207 1.394 . S
C1208 C1238 1.723 . S
H1209 C1232 0.947 . S
H1210 C1233 0.948 . S
H1211 C1239 0.982 . S
H1212 C1240 0.979 . S
H1213 C1240 0.980 . S
H1214 C1240 0.983 . S
H1215 C1239 0.979 . S
H1216 C1239 0.977 . S
C1217 C1205 1.453 . S
C1217 H1246 0.982 . S
C1217 H1247 0.979 . S
C1217 H1248 0.977 . S
C1218 C1205 1.684 . S
C1218 H1243 0.979 . S
C1218 H1244 0.980 . S
C1218 H1245 0.983 . S
C1219 C1220 1.391 . S
C1219 C1224 1.391 . S
C1219 H1249 0.948 . S
C1220 C1219 1.391 . S
C1220 C1221 1.391 . S
C1221 C1220 1.391 . S
C1221 C1222 1.392 . S
C1221 H1250 0.947 . S
C1222 C1221 1.392 . S
C1222 C1223 1.419 . S
C1222 H1251 0.948 . S
C1223 C1222 1.419 . S
C1223 C1224 1.391 . S
C1223 C1227 1.397 . S
C1224 C1219 1.391 . S
C1224 C1223 1.391 . S
C1224 C1225 1.399 . S
C1225 C1224 1.399 . S
C1225 C1226 1.396 . S
C1225 C1228 1.453 . S
C1225 C1229 1.684 . S
C1226 C1207 1.723 . S
C1226 C1225 1.396 . S
C1226 C1227 1.394 . S
C1227 C1223 1.397 . S
C1227 C1226 1.394 . S
C1227 C1237 1.723 . S
C1228 C1225 1.453 . S
C1228 H1252 0.982 . S
C1228 H1253 0.979 . S
C1228 H1254 0.977 . S
C1229 C1225 1.684 . S
C1229 H1255 0.979 . S
C1229 H1256 0.980 . S
C1229 H1257 0.983 . S
C1230 H1206 0.948 . S
C1230 C1231 1.391 . S
C1230 C1235 1.391 . S
C1231 C1230 1.391 . S
C1231 C1232 1.391 . S
C1232 H1209 0.947 . S
C1232 C1231 1.391 . S
C1232 C1233 1.392 . S
C1233 H1210 0.948 . S
C1233 C1232 1.392 . S
C1233 C1234 1.419 . S
C1234 C1233 1.419 . S
C1234 C1235 1.391 . S
C1234 C1238 1.397 . S
C1235 C1230 1.391 . S
C1235 C1234 1.391 . S
C1235 C1236 1.399 . S
C1236 C1235 1.399 . S
C1236 C1237 1.396 . S
C1236 C1239 1.453 . S
C1236 C1240 1.684 . S
C1237 C1227 1.723 . S
C1237 C1236 1.396 . S
C1237 C1238 1.394 . S
C1238 C1208 1.723 . S
C1238 C1234 1.397 . S
C1238 C1237 1.394 . S
C1239 H1211 0.982 . S
C1239 H1215 0.979 . S
C1239 H1216 0.977 . S
C1239 C1236 1.453 . S
C1240 H1212 0.979 . S
C1240 H1213 0.980 . S
C1240 H1214 0.983 . S
C1240 C1236 1.684 . S
H1241 C1259 0.948 . S
H1242 C1200 0.948 . S
H1243 C1218 0.979 . S
H1244 C1218 0.980 . S
H1245 C1218 0.983 . S
H1246 C1217 0.982 . S
H1247 C1217 0.979 . S
H1248 C1217 0.977 . S
H1249 C1219 0.948 . S
H1250 C1221 0.947 . S
H1251 C1222 0.948 . S
H1252 C1228 0.982 . S
H1253 C1228 0.979 . S
H1254 C1228 0.977 . S
H1255 C1229 0.979 . S
H1256 C1229 0.980 . S
H1257 C1229 0.983 . S
H1258 C1202 0.947 . S
C1259 C1202 1.392 . S
C1259 C1203 1.419 . S
C1259 H1241 0.948 . S
C1260 C1261 1.391 . S
C1260 C1264 1.391 . S
C1260 H1302 0.948 . S
C1261 C1260 1.391 . S
C1261 C1262 1.391 . S
C1262 C1261 1.391 . S
C1262 H1318 0.947 . S
C1262 C1319 1.392 . S
C1263 C1264 1.391 . S
C1263 C1267 1.397 . S
C1263 C1319 1.419 . S
C1264 C1260 1.391 . S
C1264 C1263 1.391 . S
C1264 C1265 1.399 . S
C1265 C1264 1.399 . S
C1265 C1268 1.396 . S
C1265 C1277 1.453 . S
C1265 C1278 1.684 . S
H1266 C1290 0.948 . S
C1267 C1263 1.397 . S
C1267 C1268 1.394 . S
C1267 C1286 1.723 . S
C1268 C1265 1.396 . S
C1268 C1267 1.394 . S
C1268 C1298 1.723 . S
H1269 C1292 0.947 . S
H1270 C1293 0.948 . S
H1271 C1299 0.982 . S
H1272 C1300 0.979 . S
H1273 C1300 0.980 . S
H1274 C1300 0.983 . S
H1275 C1299 0.979 . S
H1276 C1299 0.977 . S
C1277 C1265 1.453 . S
C1277 H1306 0.982 . S
C1277 H1307 0.979 . S
C1277 H1308 0.977 . S
C1278 C1265 1.684 . S
C1278 H1303 0.979 . S
C1278 H1304 0.980 . S
C1278 H1305 0.983 . S
C1279 C1280 1.391 . S
C1279 C1284 1.391 . S
C1279 H1309 0.948 . S
C1280 C1279 1.391 . S
C1280 C1281 1.391 . S
C1281 C1280 1.391 . S
C1281 C1282 1.392 . S
C1281 H1310 0.947 . S
C1282 C1281 1.392 . S
C1282 C1283 1.419 . S
C1282 H1311 0.948 . S
C1283 C1282 1.419 . S
C1283 C1284 1.391 . S
C1283 C1287 1.397 . S
C1284 C1279 1.391 . S
C1284 C1283 1.391 . S
C1284 C1285 1.399 . S
C1285 C1284 1.399 . S
C1285 C1286 1.396 . S
C1285 C1288 1.453 . S
C1285 C1289 1.684 . S
C1286 C1267 1.723 . S
C1286 C1285 1.396 . S
C1286 C1287 1.394 . S
C1287 C1283 1.397 . S
C1287 C1286 1.394 . S
C1287 C1297 1.723 . S
C1288 C1285 1.453 . S
C1288 H1312 0.982 . S
C1288 H1313 0.979 . S
C1288 H1314 0.977 . S
C1289 C1285 1.684 . S
C1289 H1315 0.979 . S
C1289 H1316 0.980 . S
C1289 H1317 0.983 . S
C1290 H1266 0.948 . S
C1290 C1291 1.391 . S
C1290 C1295 1.391 . S
C1291 C1290 1.391 . S
C1291 C1292 1.391 . S
C1292 H1269 0.947 . S
C1292 C1291 1.391 . S
C1292 C1293 1.392 . S
C1293 H1270 0.948 . S
C1293 C1292 1.392 . S
C1293 C1294 1.419 . S
C1294 C1293 1.419 . S
C1294 C1295 1.391 . S
C1294 C1298 1.397 . S
C1295 C1290 1.391 . S
C1295 C1294 1.391 . S
C1295 C1296 1.399 . S
C1296 C1295 1.399 . S
C1296 C1297 1.396 . S
C1296 C1299 1.453 . S
C1296 C1300 1.684 . S
C1297 C1287 1.723 . S
C1297 C1296 1.396 . S
C1297 C1298 1.394 . S
C1298 C1268 1.723 . S
C1298 C1294 1.397 . S
C1298 C1297 1.394 . S
C1299 H1271 0.982 . S
C1299 H1275 0.979 . S
C1299 H1276 0.977 . S
C1299 C1296 1.453 . S
C1300 H1272 0.979 . S
C1300 H1273 0.980 . S
C1300 H1274 0.983 . S
C1300 C1296 1.684 . S
H1301 C1319 0.948 . S
H1302 C1260 0.948 . S
H1303 C1278 0.979 . S
H1304 C1278 0.980 . S
H1305 C1278 0.983 . S
H1306 C1277 0.982 . S
H1307 C1277 0.979 . S
H1308 C1277 0.977 . S
H1309 C1279 0.948 . S
H1310 C1281 0.947 . S
H1311 C1282 0.948 . S
H1312 C1288 0.982 . S
H1313 C1288 0.979 . S
H1314 C1288 0.977 . S
H1315 C1289 0.979 . S
H1316 C1289 0.980 . S
H1317 C1289 0.983 . S
H1318 C1262 0.947 . S
C1319 C1262 1.392 . S
C1319 C1263 1.419 . S
C1319 H1301 0.948 . S
C1320 C1321 1.391 . S
C1320 C1324 1.391 . S
C1320 H1362 0.948 . S
C1321 C1320 1.391 . S
C1321 C1322 1.391 . S
C1322 C1321 1.391 . S
C1322 H1378 0.947 . S
C1322 C1379 1.392 . S
C1323 C1324 1.391 . S
C1323 C1327 1.397 . S
C1323 C1379 1.419 . S
C1324 C1320 1.391 . S
C1324 C1323 1.391 . S
C1324 C1325 1.399 . S
C1325 C1324 1.399 . S
C1325 C1328 1.396 . S
C1325 C1337 1.453 . S
C1325 C1338 1.684 . S
H1326 C1350 0.948 . S
C1327 C1323 1.397 . S
C1327 C1328 1.394 . S
C1327 C1346 1.723 . S
C1328 C1325 1.396 . S
C1328 C1327 1.394 . S
C1328 C1358 1.723 . S
H1329 C1352 0.947 . S
H1330 C1353 0.948 . S
H1331 C1359 0.982 . S
H1332 C1360 0.979 . S
H1333 C1360 0.980 . S
H1334 C1360 0.983 . S
H1335 C1359 0.979 . S
H1336 C1359 0.977 . S
C1337 C1325 1.453 . S
C1337 H1366 0.982 . S
C1337 H1367 0.979 . S
C1337 H1368 0.977 . S
C1338 C1325 1.684 . S
C1338 H1363 0.979 . S
C1338 H1364 0.980 . S
C1338 H1365 0.983 . S
C1339 C1340 1.391 . S
C1339 C1344 1.391 . S
C1339 H1369 0.948 . S
C1340 C1339 1.391 . S
C1340 C1341 1.391 . S
C1341 C1340 1.391 . S
C1341 C1342 1.392 . S
C1341 H1370 0.947 . S
C1342 C1341 1.392 . S
C1342 C1343 1.419 . S
C1342 H1371 0.948 . S
C1343 C1342 1.419 . S
C1343 C1344 1.391 . S
C1343 C1347 1.397 . S
C1344 C1339 1.391 . S
C1344 C1343 1.391 . S
C1344 C1345 1.399 . S
C1345 C1344 1.399 . S
C1345 C1346 1.396 . S
C1345 C1348 1.453 . S
C1345 C1349 1.684 . S
C1346 C1327 1.723 . S
C1346 C1345 1.396 . S
C1346 C1347 1.394 . S
C1347 C1343 1.397 . S
C1347 C1346 1.394 . S
C1347 C1357 1.723 . S
C1348 C1345 1.453 . S
C1348 H1372 0.982 . S
C1348 H1373 0.979 . S
C1348 H1374 0.977 . S
C1349 C1345 1.684 . S
C1349 H1375 0.979 . S
C1349 H1376 0.980 . S
C1349 H1377 0.983 . S
C1350 H1326 0.948 . S
C1350 C1351 1.391 . S
C1350 C1355 1.391 . S
C1351 C1350 1.391 . S
C1351 C1352 1.391 . S
C1352 H1329 0.947 . S
C1352 C1351 1.391 . S
C1352 C1353 1.392 . S
C1353 H1330 0.948 . S
C1353 C1352 1.392 . S
C1353 C1354 1.419 . S
C1354 C1353 1.419 . S
C1354 C1355 1.391 . S
C1354 C1358 1.397 . S
C1355 C1350 1.391 . S
C1355 C1354 1.391 . S
C1355 C1356 1.399 . S
C1356 C1355 1.399 . S
C1356 C1357 1.396 . S
C1356 C1359 1.453 . S
C1356 C1360 1.684 . S
C1357 C1347 1.723 . S
C1357 C1356 1.396 . S
C1357 C1358 1.394 . S
C1358 C1328 1.723 . S
C1358 C1354 1.397 . S
C1358 C1357 1.394 . S
C1359 H1331 0.982 . S
C1359 H1335 0.979 . S
C1359 H1336 0.977 . S
C1359 C1356 1.453 . S
C1360 H1332 0.979 . S
C1360 H1333 0.980 . S
C1360 H1334 0.983 . S
C1360 C1356 1.684 . S
H1361 C1379 0.948 . S
H1362 C1320 0.948 . S
H1363 C1338 0.979 . S
H1364 C1338 0.980 . S
H1365 C1338 0.983 . S
H1366 C1337 0.982 . S
H1367 C1337 0.979 . S
H1368 C1337 0.977 . S
H1369 C1339 0.948 . S
H1370 C1341 0.947 . S
H1371 C1342 0.948 . S
H1372 C1348 0.982 . S
H1373 C1348 0.979 . S
H1374 C1348 0.977 . S
H1375 C1349 0.979 . S
H1376 C1349 0.980 . S
H1377 C1349 0.983 . S
H1378 C1322 0.947 . S
C1379 C1322 1.392 . S
C1379 C1323 1.419 . S
C1379 H1361 0.948 . S
C1380 C1381 1.391 . S
C1380 C1384 1.391 . S
C1380 H1422 0.948 . S
C1381 C1380 1.391 . S
C1381 C1382 1.391 . S
C1382 C1381 1.391 . S
C1382 H1438 0.947 . S
C1382 C1439 1.392 . S
C1383 C1384 1.391 . S
C1383 C1387 1.397 . S
C1383 C1439 1.419 . S
C1384 C1380 1.391 . S
C1384 C1383 1.391 . S
C1384 C1385 1.399 . S
C1385 C1384 1.399 . S
C1385 C1388 1.396 . S
C1385 C1397 1.453 . S
C1385 C1398 1.684 . S
H1386 C1410 0.948 . S
C1387 C1383 1.397 . S
C1387 C1388 1.394 . S
C1387 C1406 1.723 . S
C1388 C1385 1.396 . S
C1388 C1387 1.394 . S
C1388 C1418 1.723 . S
H1389 C1412 0.947 . S
H1390 C1413 0.948 . S
H1391 C1419 0.982 . S
H1392 C1420 0.979 . S
H1393 C1420 0.980 . S
H1394 C1420 0.983 . S
H1395 C1419 0.979 . S
H1396 C1419 0.977 . S
C1397 C1385 1.453 . S
C1397 H1426 0.982 . S
C1397 H1427 0.979 . S
C1397 H1428 0.977 . S
C1398 C1385 1.684 . S
C1398 H1423 0.979 . S
C1398 H1424 0.980 . S
C1398 H1425 0.983 . S
C1399 C1400 1.391 . S
C1399 C1404 1.391 . S
C1399 H1429 0.948 . S
C1400 C1399 1.391 . S
C1400 C1401 1.391 . S
C1401 C1400 1.391 . S
C1401 C1402 1.392 . S
C1401 H1430 0.947 . S
C1402 C1401 1.392 . S
C1402 C1403 1.419 . S
C1402 H1431 0.948 . S
C1403 C1402 1.419 . S
C1403 C1404 1.391 . S
C1403 C1407 1.397 . S
C1404 C1399 1.391 . S
C1404 C1403 1.391 . S
C1404 C1405 1.399 . S
C1405 C1404 1.399 . S
C1405 C1406 1.396 . S
C1405 C1408 1.453 . S
C1405 C1409 1.684 . S
C1406 C1387 1.723 . S
C1406 C1405 1.396 . S
C1406 C1407 1.394 . S
C1407 C1403 1.397 . S
C1407 C1406 1.394 . S
C1407 C1417 1.723 . S
C1408 C1405 1.453 . S
C1408 H1432 0.982 . S
C1408 H1433 0.979 . S
C1408 H1434 0.977 . S
C1409 C1405 1.684 . S
C1409 H1435 0.979 . S
C1409 H1436 0.980 . S
C1409 H1437 0.983 . S
C1410 H1386 0.948 . S
C1410 C1411 1.391 . S
C1410 C1415 1.391 . S
C1411 C1410 1.391 . S
C1411 C1412 1.391 . S
C1412 H1389 0.947 . S
C1412 C1411 1.391 . S
C1412 C1413 1.392 . S
C1413 H1390 0.948 . S
C1413 C1412 1.392 . S
C1413 C1414 1.419 . S
C1414 C1413 1.419 . S
C1414 C1415 1.391 . S
C1414 C1418 1.397 . S
C1415 C1410 1.391 . S
C1415 C1414 1.391 . S
C1415 C1416 1.399 . S
C1416 C1415 1.399 . S
C1416 C1417 1.396 . S
C1416 C1419 1.453 . S
C1416 C1420 1.684 . S
C1417 C1407 1.723 . S
C1417 C1416 1.396 . S
C1417 C1418 1.394 . S
C1418 C1388 1.723 . S
C1418 C1414 1.397 . S
C1418 C1417 1.394 . S
C1419 H1391 0.982 . S
C1419 H1395 0.979 . S
C1419 H1396 0.977 . S
C1419 C1416 1.453 . S
C1420 H1392 0.979 . S
C1420 H1393 0.980 . S
C1420 H1394 0.983 . S
C1420 C1416 1.684 . S
H1421 C1439 0.948 . S
H1422 C1380 0.948 . S
H1423 C1398 0.979 . S
H1424 C1398 0.980 . S
H1425 C1398 0.983 . S
H1426 C1397 0.982 . S
H1427 C1397 0.979 . S
H1428 C1397 0.977 . S
H1429 C1399 0.948 . S
H1430 C1401 0.947 . S
H1431 C1402 0.948 . S
H1432 C1408 0.982 . S
H1433 C1408 0.979 . S
H1434 C1408 0.977 . S
H1435 C1409 0.979 . S
H1436 C1409 0.980 . S
H1437 C1409 0.983 . S
H1438 C1382 0.947 . S
C1439 C1382 1.392 . S
C1439 C1383 1.419 . S
C1439 H1421 0.948 . S
C1440 C1441 1.391 . S
C1440 C1444 1.391 . S
C1440 H1482 0.948 . S
C1441 C1440 1.391 . S
C1441 C1442 1.391 . S
C1442 C1441 1.391 . S
C1442 H1498 0.947 . S
C1442 C1499 1.392 . S
C1443 C1444 1.391 . S
C1443 C1447 1.397 . S
C1443 C1499 1.419 . S
C1444 C1440 1.391 . S
C1444 C1443 1.391 . S
C1444 C1445 1.399 . S
C1445 C1444 1.399 . S
C1445 C1448 1.396 . S
C1445 C1457 1.453 . S
C1445 C1458 1.684 . S
H1446 C1470 0.948 . S
C1447 C1443 1.397 . S
C1447 C1448 1.394 . S
C1447 C1466 1.723 . S
C1448 C1445 1.396 . S
C1448 C1447 1.394 . S
C1448 C1478 1.723 . S
H1449 C1472 0.947 . S
H1450 C1473 0.948 . S
H1451 C1479 0.982 . S
H1452 C1480 0.979 . S
H1453 C1480 0.980 . S
H1454 C1480 0.983 . S
H1455 C1479 0.979 . S
H1456 C1479 0.977 . S
C1457 C1445 1.453 . S
C1457 H1486 0.982 . S
C1457 H1487 0.979 . S
C1457 H1488 0.977 . S
C1458 C1445 1.684 . S
C1458 H1483 0.979 . S
C1458 H1484 0.980 . S
C1458 H1485 0.983 . S
C1459 C1460 1.391 . S
C1459 C1464 1.391 . S
C1459 H1489 0.948 . S
C1460 C1459 1.391 . S
C1460 C1461 1.391 . S
C1461 C1460 1.391 . S
C1461 C1462 1.392 . S
C1461 H1490 0.947 . S
C1462 C1461 1.392 . S
C1462 C1463 1.419 . S
C1462 H1491 0.948 . S
C1463 C1462 1.419 . S
C1463 C1464 1.391 . S
C1463 C1467 1.397 . S
C1464 C1459 1.391 . S
C1464 C1463 1.391 . S
C1464 C1465 1.399 . S
C1465 C1464 1.399 . S
C1465 C1466 1.396 . S
C1465 C1468 1.453 . S
C1465 C1469 1.684 . S
C1466 C1447 1.723 . S
C1466 C1465 1.396 . S
C1466 C1467 1.394 . S
C1467 C1463 1.397 . S
C1467 C1466 1.394 . S
C1467 C1477 1.723 . S
C1468 C1465 1.453 . S
C1468 H1492 0.982 . S
C1468 H1493 0.979 . S
C1468 H1494 0.977 . S
C1469 C1465 1.684 . S
C1469 H1495 0.979 . S
C1469 H1496 0.980 . S
C1469 H1497 0.983 . S
C1470 H1446 0.948 . S
C1470 C1471 1.391 . S
C1470 C1475 1.391 . S
C1471 C1470 1.391 . S
C1471 C1472 1.391 . S
C1472 H1449 0.947 . S
C1472 C1471 1.391 . S
C1472 C1473 1.392 . S
C1473 H1450 0.948 . S
C1473 C1472 1.392 . S
C1473 C1474 1.419 . S
C1474 C1473 1.419 . S
C1474 C1475 1.391 . S
C1474 C1478 1.397 . S
C1475 C1470 1.391 . S
C1475 C1474 1.391 . S
C1475 C1476 1.399 . S
C1476 C1475 1.399 . S
C1476 C1477 1.396 . S
C1476 C1479 1.453 . S
C1476 C1480 1.684 . S
C1477 C1467 1.723 . S
C1477 C1476 1.396 . S
C1477 C1478 1.394 . S
C1478 C1448 1.723 . S
C1478 C1474 1.397 . S
C1478 C1477 1.394 . S
C1479 H1451 0.982 . S
C1479 H1455 0.979 . S
C1479 H1456 0.977 . S
C1479 C1476 1.453 . S
C1480 H1452 0.979 . S
C1480 H1453 0.980 . S
C1480 H1454 0.983 . S
C1480 C1476 1.684 . S
H1481 C1499 0.948 . S
H1482 C1440 0.948 . S
H1483 C1458 0.979 . S
H1484 C1458 0.980 . S
H1485 C1458 0.983 . S
H1486 C1457 0.982 . S
H1487 C1457 0.979 . S
H1488 C1457 0.977 . S
H1489 C1459 0.948 . S
H1490 C1461 0.947 . S
H1491 C1462 0.948 . S
H1492 C1468 0.982 . S
H1493 C1468 0.979 . S
H1494 C1468 0.977 . S
H1495 C1469 0.979 . S
H1496 C1469 0.980 . S
H1497 C1469 0.983 . S
H1498 C1442 0.947 . S
C1499 C1442 1.392 . S
C1499 C1443 1.419 . S
C1499 H1481 0.948 . S
C1500 C1501 1.391 . S
C1500 C1504 1.391 . S
C1500 H1542 0.948 . S
C1501 C1500 1.391 . S
C1501 C1502 1.391 . S
C1502 C1501 1.391 . S
C1502 H1558 0.947 . S
C1502 C1559 1.392 . S
C1503 C1504 1.391 . S
C1503 C1507 1.397 . S
C1503 C1559 1.419 . S
C1504 C1500 1.391 . S
C1504 C1503 1.391 . S
C1504 C1505 1.399 . S
C1505 C1504 1.399 . S
C1505 C1508 1.396 . S
C1505 C1517 1.453 . S
C1505 C1518 1.684 . S
H1506 C1530 0.948 . S
C1507 C1503 1.397 . S
C1507 C1508 1.394 . S
C1507 C1526 1.723 . S
C1508 C1505 1.396 . S
C1508 C1507 1.394 . S
C1508 C1538 1.723 . S
H1509 C1532 0.947 . S
H1510 C1533 0.948 . S
H1511 C1539 0.982 . S
H1512 C1540 0.979 . S
H1513 C1540 0.980 . S
H1514 C1540 0.983 . S
H1515 C1539 0.979 . S
H1516 C1539 0.977 . S
C1517 C1505 1.453 . S
C1517 H1546 0.982 . S
C1517 H1547 0.979 . S
C1517 H1548 0.977 . S
C1518 C1505 1.684 . S
C1518 H1543 0.979 . S
C1518 H1544 0.980 . S
C1518 H1545 0.983 . S
C1519 C1520 1.391 . S
C1519 C1524 1.391 . S
C1519 H1549 0.948 . S
C1520 C1519 1.391 . S
C1520 C1521 1.391 . S
C1521 C1520 1.391 . S
C1521 C1522 1.392 . S
C1521 H1550 0.947 . S
C1522 C1521 1.392 . S
C1522 C1523 1.419 . S
C1522 H1551 0.948 . S
C1523 C1522 1.419 . S
C1523 C1524 1.391 . S
C1523 C1527 1.397 . S
C1524 C1519 1.391 . S
C1524 C1523 1.391 . S
C1524 C1525 1.399 . S
C1525 C1524 1.399 . S
C1525 C1526 1.396 . S
C1525 C1528 1.453 . S
C1525 C1529 1.684 . S
C1526 C1507 1.723 . S
C1526 C1525 1.396 . S
C1526 C1527 1.394 . S
C1527 C1523 1.397 . S
C1527 C1526 1.394 . S
C1527 C1537 1.723 . S
C1528 C1525 1.453 . S
C1528 H1552 0.982 . S
C1528 H1553 0.979 . S
C1528 H1554 0.977 . S
C1529 C1525 1.684 . S
C1529 H1555 0.979 . S
C1529 H1556 0.980 . S
C1529 H1557 0.983 . S
C1530 H1506 0.948 . S
C1530 C1531 1.391 . S
C1530 C1535 1.391 . S
C1531 C1530 1.391 . S
C1531 C1532 1.391 . S
C1532 H1509 0.947 . S
C1532 C1531 1.391 . S
C1532 C1533 1.392 . S
C1533 H1510 0.948 . S
C1533 C1532 1.392 . S
C1533 C1534 1.419 . S
C1534 C1533 1.419 . S
C1534 C1535 1.391 . S
C1534 C1538 1.397 . S
C1535 C1530 1.391 . S
C1535 C1534 1.391 . S
C1535 C1536 1.399 . S
C1536 C1535 1.399 . S
C1536 C1537 1.396 . S
C1536 C1539 1.453 . S
C1536 C1540 1.684 . S
C1537 C1527 1.723 . S
C1537 C1536 1.396 . S
C1537 C1538 1.394 . S
C1538 C1508 1.723 . S
C1538 C1534 1.397 . S
C1538 C1537 1.394 . S
C1539 H1511 0.982 . S
C1539 H1515 0.979 . S
C1539 H1516 0.977 . S
C1539 C1536 1.453 . S
C1540 H1512 0.979 . S
C1540 H1513 0.980 . S
C1540 H1514 0.983 . S
C1540 C1536 1.684 . S
H1541 C1559 0.948 . S
H1542 C1500 0.948 . S
H1543 C1518 0.979 . S
H1544 C1518 0.980 . S
H1545 C1518 0.983 . S
H1546 C1517 0.982 . S
H1547 C1517 0.979 . S
H1548 C1517 0.977 . S
H1549 C1519 0.948 . S
H1550 C1521 0.947 . S
H1551 C1522 0.948 . S
H1552 C1528 0.982 . S
H1553 C1528 0.979 . S
H1554 C1528 0.977 . S
H1555 C1529 0.979 . S
H1556 C1529 0.980 . S
H1557 C1529 0.983 . S
H1558 C1502 0.947 . S
C1559 C1502 1.392 . S
C1559 C1503 1.419 . S
C1559 H1541 0.948 . S
C1560 C1561 1.391 . S
C1560 C1564 1.391 . S
C1560 H1602 0.948 . S
C1561 C1560 1.391 . S
C1561 C1562 1.391 . S
C1562 C1561 1.391 . S
C1562 H1618 0.947 . S
C1562 C1619 1.392 . S
C1563 C1564 1.391 . S
C1563 C1567 1.397 . S
C1563 C1619 1.419 . S
C1564 C1560 1.391 . S
C1564 C1563 1.391 . S
C1564 C1565 1.399 . S
C1565 C1564 1.399 . S
C1565 C1568 1.396 . S
C1565 C1577 1.453 . S
C1565 C1578 1.684 . S
H1566 C1590 0.948 . S
C1567 C1563 1.397 . S
C1567 C1568 1.394 . S
C1567 C1586 1.723 . S
C1568 C1565 1.396 . S
C1568 C1567 1.394 . S
C1568 C1598 1.723 . S
H1569 C1592 0.947 . S
H1570 C1593 0.948 . S
H1571 C1599 0.982 . S
H1572 C1600 0.979 . S
H1573 C1600 0.980 . S
H1574 C1600 0.983 . S
H1575 C1599 0.979 . S
H1576 C1599 0.977 . S
C1577 C1565 1.453 . S
C1577 H1606 0.982 . S
C1577 H1607 0.979 . S
C1577 H1608 0.977 . S
C1578 C1565 1.684 . S
C1578 H1603 0.979 . S
C1578 H1604 0.980 . S
C1578 H1605 0.983 . S
C1579 C1580 1.391 . S
C1579 C1584 1.391 . S
C1579 H1609 0.948 . S
C1580 C1579 1.391 . S
C1580 C1581 1.391 . S
C1581 C1580 1.391 . S
C1581 C1582 1.392 . S
C1581 H1610 0.947 . S
C1582 C1581 1.392 . S
C1582 C1583 1.419 . S
C1582 H1611 0.948 . S
C1583 C1582 1.419 . S
C1583 C1584 1.391 . S
C1583 C1587 1.397 . S
C1584 C1579 1.391 . S
C1584 C1583 1.391 . S
C1584 C1585 1.399 . S
C1585 C1584 1.399 . S
C1585 C1586 1.396 . S
C1585 C1588 1.453 . S
C1585 C1589 1.684 . S
C1586 C1567 1.723 . S
C1586 C1585 1.396 . S
C1586 C1587 1.394 . S
C1587 C1583 1.397 . S
C1587 C1586 1.394 . S
C1587 C1597 1.723 . S
C1588 C1585 1.453 . S
C1588 H1612 0.982 . S
C1588 H1613 0.979 . S
C1588 H1614 0.977 . S
C1589 C1585 1.684 . S
C1589 H1615 0.979 . S
C1589 H1616 0.980 . S
C1589 H1617 0.983 . S
C1590 H1566 0.948 . S
C1590 C1591 1.391 . S
C1590 C1595 1.391 . S
C1591 C1590 1.391 . S
C1591 C1592 1.391 . S
C1592 H1569 0.947 . S
C1592 C1591 1.391 . S
C1592 C1593 1.392 . S
C1593 H1570 0.948 . S
C1593 C1592 1.392 . S
C1593 C1594 1.419 . S
C1594 C1593 1.419 . S
C1594 C1595 1.391 . S
C1594 C1598 1.397 . S
C1595 C1590 1.391 . S
C1595 C1594 1.391 . S
C1595 C1596 1.399 . S
C1596 C1595 1.399 . S
C1596 C1597 1.396 . S
C1596 C1599 1.453 . S
C1596 C1600 1.684 . S
C1597 C1587 1.723 . S
C1597 C1596 1.396 . S
C1597 C1598 1.394 . S
C1598 C1568 1.723 . S
C1598 C1594 1.397 . S
C1598 C1597 1.394 . S
C1599 H1571 0.982 . S
C1599 H1575 0.979 . S
C1599 H1576 0.977 . S
C1599 C1596 1.453 . S
C1600 H1572 0.979 . S
C1600 H1573 0.980 . S
C1600 H1574 0.983 . S
C1600 C1596 1.684 . S
H1601 C1619 0.948 . S
H1602 C1560 0.948 . S
H1603 C1578 0.979 . S
H1604 C1578 0.980 . S
H1605 C1578 0.983 . S
H1606 C1577 0.982 . S
H1607 C1577 0.979 . S
H1608 C1577 0.977 . S
H1609 C1579 0.948 . S
H1610 C1581 0.947 . S
H1611 C1582 0.948 . S
H1612 C1588 0.982 . S
H1613 C1588 0.979 . S
H1614 C1588 0.977 . S
H1615 C1589 0.979 . S
H1616 C1589 0.980 . S
H1617 C1589 0.983 . S
H1618 C1562 0.947 . S
C1619 C1562 1.392 . S
C1619 C1563 1.419 . S
C1619 H1601 0.948 . S
C1620 C1621 1.391 . S
C1620 C1624 1.391 . S
C1620 H1662 0.948 . S
C1621 C1620 1.391 . S
C1621 C1622 1.391 . S
C1622 C1621 1.391 . S
C1622 H1678 0.947 . S
C1622 C1679 1.392 . S
C1623 C1624 1.391 . S
C1623 C1627 1.397 . S
C1623 C1679 1.419 . S
C1624 C1620 1.391 . S
C1624 C1623 1.391 . S
C1624 C1625 1.399 . S
C1625 C1624 1.399 . S
C1625 C1628 1.396 . S
C1625 C1637 1.453 . S
C1625 C1638 1.684 . S
H1626 C1650 0.948 . S
C1627 C1623 1.397 . S
C1627 C1628 1.394 . S
C1627 C1646 1.723 . S
C1628 C1625 1.396 . S
C1628 C1627 1.394 . S
C1628 C1658 1.723 . S
H1629 C1652 0.947 . S
H1630 C1653 0.948 . S
H1631 C1659 0.982 . S
H1632 C1660 0.979 . S
H1633 C1660 0.980 . S
H1634 C1660 0.983 . S
H1635 C1659 0.979 . S
H1636 C1659 0.977 . S
C1637 C1625 1.453 . S
C1637 H1666 0.982 . S
C1637 H1667 0.979 . S
C1637 H1668 0.977 . S
C1638 C1625 1.684 . S
C1638 H1663 0.979 . S
C1638 H1664 0.980 . S
C1638 H1665 0.983 . S
C1639 C1640 1.391 . S
C1639 C1644 1.391 . S
C1639 H1669 0.948 . S
C1640 C1639 1.391 . S
C1640 C1641 1.391 . S
C1641 C1640 1.391 . S
C1641 C1642 1.392 . S
C1641 H1670 0.947 . S
C1642 C1641 1.392 . S
C1642 C1643 1.419 . S
C1642 H1671 0.948 . S
C1643 C1642 1.419 . S
C1643 C1644 1.391 . S
C1643 C1647 1.397 . S
C1644 C1639 1.391 . S
C1644 C1643 1.391 . S
C1644 C1645 1.399 . S
C1645 C1644 1.399 . S
C1645 C1646 1.396 . S
C1645 C1648 1.453 . S
C1645 C1649 1.684 . S
C1646 C1627 1.723 . S
C1646 C1645 1.396 . S
C1646 C1647 1.394 . S
C1647 C1643 1.397 . S
C1647 C1646 1.394 . S
C1647 C1657 1.723 . S
C1648 C1645 1.453 . S
C1648 H1672 0.982 . S
C1648 H1673 0.979 . S
C1648 H1674 0.977 . S
C1649 C1645 1.684 . S
C1649 H1675 0.979 . S
C1649 H1676 0.980 . S
C1649 H1677 0.983 . S
C1650 H1626 0.948 . S
C1650 C1651 1.391 . S
C1650 C1655 1.391 . S
C1651 C1650 1.391 . S
C1651 C1652 1.391 . S
C1652 H1629 0.947 . S
C1652 C1651 1.391 . S
C1652 C1653 1.392 . S
C1653 H1630 0.948 . S
C1653 C1652 1.392 . S
C1653 C1654 1.419 . S
C1654 C1653 1.419 . S
C1654 C1655 1.391 . S
C1654 C1658 1.397 . S
C1655 C1650 1.391 . S
C1655 C1654 1.391 . S
C1655 C1656 1.399 . S
C1656 C1655 1.399 . S
C1656 C1657 1.396 . S
C1656 C1659 1.453 . S
C1656 C1660 1.684 . S
C1657 C1647 1.723 . S
C1657 C1656 1.396 . S
C1657 C1658 1.394 . S
C1658 C1628 1.723 . S
C1658 C1654 1.397 . S
C1658 C1657 1.394 . S
C1659 H1631 0.982 . S
C1659 H1635 0.979 . S
C1659 H1636 0.977 . S
C1659 C1656 1.453 . S
C1660 H1632 0.979 . S
C1660 H1633 0.980 . S
C1660 H1634 0.983 . S
C1660 C1656 1.684 . S
H1661 C1679 0.948 . S
H1662 C1620 0.948 . S
H1663 C1638 0.979 . S
H1664 C1638 0.980 . S
H1665 C1638 0.983 . S
H1666 C1637 0.982 . S
H1667 C1637 0.979 . S
H1668 C1637 0.977 . S
H1669 C1639 0.948 . S
H1670 C1641 0.947 . S
H1671 C1642 0.948 . S
H1672 C1648 0.982 . S
H1673 C1648 0.979 . S
H1674 C1648 0.977 . S
H1675 C1649 0.979 . S
H1676 C1649 0.980 . S
H1677 C1649 0.983 . S
H1678 C1622 0.947 . S
C1679 C1622 1.392 . S
C1679 C1623 1.419 . S
C1679 H1661 0.948 . S
C1680 C1681 1.391 . S
C1680 C1684 1.391 . S
C1680 H1722 0.948 . S
C1681 C1680 1.391 . S
C1681 C1682 1.391 . S
C1682 C1681 1.391 . S
C1682 H1738 0.947 . S
C1682 C1739 1.392 . S
C1683 C1684 1.391 . S
C1683 C1687 1.397 . S
C1683 C1739 1.419 . S
C1684 C1680 1.391 . S
C1684 C1683 1.391 . S
C1684 C1685 1.399 . S
C1685 C1684 1.399 . S
C1685 C1688 1.396 . S
C1685 C1697 1.453 . S
C1685 C1698 1.684 . S
H1686 C1710 0.948 . S
C1687 C1683 1.397 . S
C1687 C1688 1.394 . S
C1687 C1706 1.723 . S
C1688 C1685 1.396 . S
C1688 C1687 1.394 . S
C1688 C1718 1.723 . S
H1689 C1712 0.947 . S
H1690 C1713 0.948 . S
H1691 C1719 0.982 . S
H1692 C1720 0.979 . S
H1693 C1720 0.980 . S
H1694 C1720 0.983 . S
H1695 C1719 0.979 . S
H1696 C1719 0.977 . S
C1697 C1685 1.453 . S
C1697 H1726 0.982 . S
C1697 H1727 0.979 . S
C1697 H1728 0.977 . S
C1698 C1685 1.684 . S
C1698 H1723 0.979 . S
C1698 H1724 0.980 . S
C1698 H1725 0.983 . S
C1699 C1700 1.391 . S
C1699 C1704 1.391 . S
C1699 H1729 0.948 . S
C1700 C1699 1.391 . S
C1700 C1701 1.391 . S
C1701 C1700 1.391 . S
C1701 C1702 1.392 . S
C1701 H1730 0.947 . S
C1702 C1701 1.392 . S
C1702 C1703 1.419 . S
C1702 H1731 0.948 . S
C1703 C1702 1.419 . S
C1703 C1704 1.391 . S
C1703 C1707 1.397 . S
C1704 C1699 1.391 . S
C1704 C1703 1.391 . S
C1704 C1705 1.399 . S
C1705 C1704 1.399 . S
C1705 C1706 1.396 . S
C1705 C1708 1.453 . S
C1705 C1709 1.684 . S
C1706 C1687 1.723 . S
C1706 C1705 1.396 . S
C1706 C1707 1.394 . S
C1707 C1703 1.397 . S
C1707 C1706 1.394 . S
C1707 C1717 1.723 . S
C1708 C1705 1.453 . S
C1708 H1732 0.982 . S
C1708 H1733 0.979 . S
C1708 H1734 0.977 . S
C1709 C1705 1.684 . S
C1709 H1735 0.979 . S
C1709 H1736 0.980 . S
C1709 H1737 0.983 . S
C1710 H1686 0.948 . S
C1710 C1711 1.391 . S
C1710 C1715 1.391 . S
C1711 C1710 1.391 . S
C1711 C1712 1.391 . S
C1712 H1689 0.947 . S
C1712 C1711 1.391 . S
C1712 C1713 1.392 . S
C1713 H1690 0.948 . S
C1713 C1712 1.392 . S
C1713 C1714 1.419 . S
C1714 C1713 1.419 . S
C1714 C1715 1.391 . S
C1714 C1718 1.397 . S
C1715 C1710 1.391 . S
C1715 C1714 1.391 . S
C1715 C1716 1.399 . S
C1716 C1715 1.399 . S
C1716 C1717 1.396 . S
C1716 C1719 1.453 . S
C1716 C1720 1.684 . S
C1717 C1707 1.723 . S
C1717 C1716 1.396 . S
C1717 C1718 1.394 . S
C1718 C1688 1.723 . S
C1718 C1714 1.397 . S
C1718 C1717 1.394 . S
C1719 H1691 0.982 . S
C1719 H1695 0.979 . S
C1719 H1696 0.977 . S
C1719 C1716 1.453 . S
C1720 H1692 0.979 . S
C1720 H1693 0.980 . S
C1720 H1694 0.983 . S
C1720 C1716 1.684 . S
H1721 C1739 0.948 . S
H1722 C1680 0.948 . S
H1723 C1698 0.979 . S
H1724 C1698 0.980 . S
H1725 C1698 0.983 . S
H1726 C1697 0.982 . S
H1727 C1697 0.979 . S
H1728 C1697 0.977 . S
H1729 C1699 0.948 . S
H1730 C1701 0.947 . S
H1731 C1702 0.948 . S
H1732 C1708 0.982 . S
H1733 C1708 0.979 . S
H1734 C1708 0.977 . S
H1735 C1709 0.979 . S
H1736 C1709 0.980 . S
H1737 C1709 0.983 . S
H1738 C1682 0.947 . S
C1739 C1682 1.392 . S
C1739 C1683 1.419 . S
C1739 H1721 0.948 . S
C1740 C1741 1.391 . S
C1740 C1744 1.391 . S
C1740 H1782 0.948 . S
C1741 C1740 1.391 . S
C1741 C1742 1.391 . S
C1742 C1741 1.391 . S
C1742 H1798 0.947 . S
C1742 C1799 1.392 . S
C1743 C1744 1.391 . S
C1743 C1747 1.397 . S
C1743 C1799 1.419 . S
C1744 C1740 1.391 . S
C1744 C1743 1.391 . S
C1744 C1745 1.399 . S
C1745 C1744 1.399 . S
C1745 C1748 1.396 . S
C1745 C1757 1.453 . S
C1745 C1758 1.684 . S
H1746 C1770 0.948 . S
C1747 C1743 1.397 . S
C1747 C1748 1.394 . S
C1747 C1766 1.723 . S
C1748 C1745 1.396 . S
C1748 C1747 1.394 . S
C1748 C1778 1.723 . S
H1749 C1772 0.947 . S
H1750 C1773 0.948 . S
H1751 C1779 0.982 . S
H1752 C1780 0.979 . S
H1753 C1780 0.980 . S
H1754 C1780 0.983 . S
H1755 C1779 0.979 . S
H1756 C1779 0.977 . S
C1757 C1745 1.453 . S
C1757 H1786 0.982 . S
C1757 H1787 0.979 . S
C1757 H1788 0.977 . S
C1758 C1745 1.684 . S
C1758 H1783 0.979 . S
C1758 H1784 0.980 . S
C1758 H1785 0.983 . S
C1759 C1760 1.391 . S
C1759 C1764 1.391 . S
C1759 H1789 0.948 . S
C1760 C1759 1.391 . S
C1760 C1761 1.391 . S
C1761 C1760 1.391 . S
C1761 C1762 1.392 . S
C1761 H1790 0.947 . S
C1762 C1761 1.392 . S
C1762 C1763 1.419 . S
C1762 H1791 0.948 . S
C1763 C1762 1.419 . S
C1763 C1764 1.391 . S
C1763 C1767 1.397 . S
C1764 C1759 1.391 . S
C1764 C1763 1.391 . S
C1764 C1765 1.399 . S
C1765 C1764 1.399 . S
C1765 C1766 1.396 . S
C1765 C1768 1.453 . S
C1765 C1769 1.684 . S
C1766 C1747 1.723 . S
C1766 C1765 1.396 . S
C1766 C1767 1.394 . S
C1767 C1763 1.397 . S
C1767 C1766 1.394 . S
C1767 C1777 1.723 . S
C1768 C1765 1.453 . S
C1768 H1792 0.982 . S
C1768 H1793 0.979 . S
C1768 H1794 0.977 . S
C1769 C1765 1.684 . S
C1769 H1795 0.979 . S
C1769 H1796 0.980 . S
C1769 H1797 0.983 . S
C1770 H1746 0.948 . S
C1770 C1771 1.391 . S
C1770 C1775 1.391 . S
C1771 C1770 1.391 . S
C1771 C1772 1.391 . S
C1772 H1749 0.947 . S
C1772 C1771 1.391 . S
C1772 C1773 1.392 . S
C1773 H1750 0.948 . S
C1773 C1772 1.392 . S
C1773 C1774 1.419 . S
C1774 C1773 1.419 . S
C1774 C1775 1.391 . S
C1774 C1778 1.397 . S
C1775 C1770 1.391 . S
C1775 C1774 1.391 . S
C1775 C1776 1.399 . S
C1776 C1775 1.399 . S
C1776 C1777 1.396 . S
C1776 C1779 1.453 . S
C1776 C1780 1.684 . S
C1777 C1767 1.723 . S
C1777 C1776 1.396 . S
C1777 C1778 1.394 . S
C1778 C1748 1.723 . S
C1778 C1774 1.397 . S
C1778 C1777 1.394 . S
C1779 H1751 0.982 . S
C1779 H1755 0.979 . S
C1779 H1756 0.977 . S
C1779 C1776 1.453 . S
C1780 H1752 0.979 . S
C1780 H1753 0.980 . S
C1780 H1754 0.983 . S
C1780 C1776 1.684 . S
H1781 C1799 0.948 . S
H1782 C1740 0.948 . S
H1783 C1758 0.979 . S
H1784 C1758 0.980 . S
H1785 C1758 0.983 . S
H1786 C1757 0.982 . S
H1787 C1757 0.979 . S
H1788 C1757 0.977 . S
H1789 C1759 0.948 . S
H1790 C1761 0.947 . S
H1791 C1762 0.948 . S
H1792 C1768 0.982 . S
H1793 C1768 0.979 . S
H1794 C1768 0.977 . S
H1795 C1769 0.979 . S
H1796 C1769 0.980 . S
H1797 C1769 0.983 . S
H1798 C1742 0.947 . S
C1799 C1742 1.392 . S
C1799 C1743 1.419 . S
C1799 H1781 0.948 . S
C1800 C1801 1.391 . S
C1800 C1804 1.391 . S
C1800 H1842 0.948 . S
C1801 C1800 1.391 . S
C1801 C1802 1.391 . S
C1802 C1801 1.391 . S
C1802 H1858 0.947 . S
C1802 C1859 1.392 . S
C1803 C1804 1.391 . S
C1803 C1807 1.397 . S
C1803 C1859 1.419 . S
C1804 C1800 1.391 . S
C1804 C1803 1.391 . S
C1804 C1805 1.399 . S
C1805 C1804 1.399 . S
C1805 C1808 1.396 . S
C1805 C1817 1.453 . S
C1805 C1818 1.684 . S
H1806 C1830 0.948 . S
C1807 C1803 1.397 . S
C1807 C1808 1.394 . S
C1807 C1826 1.723 . S
C1808 C1805 1.396 . S
C1808 C1807 1.394 . S
C1808 C1838 1.723 . S
H1809 C1832 0.947 . S
H1810 C1833 0.948 . S
H1811 C1839 0.982 . S
H1812 C1840 0.979 . S
H1813 C1840 0.980 . S
H1814 C1840 0.983 . S
H1815 C1839 0.979 . S
H1816 C1839 0.977 . S
C1817 C1805 1.453 . S
C1817 H1846 0.982 . S
C1817 H1847 0.979 . S
C1817 H1848 0.977 . S
C1818 C1805 1.684 . S
C1818 H1843 0.979 . S
C1818 H1844 0.980 . S
C1818 H1845 0.983 . S
C1819 C1820 1.391 . S
C1819 C1824 1.391 . S
C1819 H1849 0.948 . S
C1820 C1819 1.391 . S
C1820 C1821 1.391 . S
C1821 C1820 1.391 . S
C1821 C1822 1.392 . S
C1821 H1850 0.947 . S
C1822 C1821 1.392 . S
C1822 C1823 1.419 . S
C1822 H1851 0.948 . S
C1823 C1822 1.419 . S
C1823 C1824 1.391 . S
C1823 C1827 1.397 . S
C1824 C1819 1.391 . S
C1824 C1823 1.391 . S
C1824 C1825 1.399 . S
C1825 C1824 1.399 . S
C1825 C1826 1.396 . S
C1825 C1828 1.453 . S
C1825 C1829 1.684 . S
C1826 C1807 1.723 . S
C1826 C1825 1.396 . S
C1826 C1827 1.394 . S
C1827 C1823 1.397 . S
C1827 C1826 1.394 . S
C1827 C1837 1.723 . S
C1828 C1825 1.453 . S
C1828 H1852 0.982 . S
C1828 H1853 0.979 . S
C1828 H1854 0.977 . S
C1829 C1825 1.684 . S
C1829 H1855 0.979 . S
C1829 H1856 0.980 . S
C1829 H1857 0.983 . S
C1830 H1806 0.948 . S
C1830 C1831 1.391 . S
C1830 C1835 1.391 . S
C1831 C1830 1.391 . S
C1831 C1832 1.391 . S
C1832 H1809 0.947 . S
C1832 C1831 1.391 . S
C1832 C1833 1.392 . S
C1833 H1810 0.948 . S
C1833 C1832 1.392 . S
C1833 C1834 1.419 . S
C1834 C1833 1.419 . S
C1834 C1835 1.391 . S
C1834 C1838 1.397 . S
C1835 C1830 1.391 . S
C1835 C1834 1.391 . S
C1835 C1836 1.399 . S
C1836 C1835 1.399 . S
C1836 C1837 1.396 . S
C1836 C1839 1.453 . S
C1836 C1840 1.684 . S
C1837 C1827 1.723 . S
C1837 C1836 1.396 . S
C1837 C1838 1.394 . S
C1838 C1808 1.723 . S
C1838 C1834 1.397 . S
C1838 C1837 1.394 . S
C1839 H1811 0.982 . S
C1839 H1815 0.979 . S
C1839 H1816 0.977 . S
C1839 C1836 1.453 . S
C1840 H1812 0.979 . S
C1840 H1813 0.980 . S
C1840 H1814 0.983 . S
C1840 C1836 1.684 . S
H1841 C1859 0.948 . S
H1842 C1800 0.948 . S
H1843 C1818 0.979 . S
H1844 C1818 0.980 . S
H1845 C1818 0.983 . S
H1846 C1817 0.982 . S
H1847 C1817 0.979 . S
H1848 C1817 0.977 . S
H1849 C1819 0.948 . S
H1850 C1821 0.947 . S
H1851 C1822 0.948 . S
H1852 C1828 0.982 . S
H1853 C1828 0.979 . S
H1854 C1828 0.977 . S
H1855 C1829 0.979 . S
H1856 C1829 0.980 . S
H1857 C1829 0.983 . S
H1858 C1802 0.947 . S
C1859 C1802 1.392 . S
C1859 C1803 1.419 . S
C1859 H1841 0.948 . S
C1860 C1861 1.391 . S
C1860 C1864 1.391 . S
C1860 H1902 0.948 . S
C1861 C1860 1.391 . S
C1861 C1862 1.391 . S
C1862 C1861 1.391 . S
C1862 H1918 0.947 . S
C1862 C1919 1.392 . S
C1863 C1864 1.391 . S
C1863 C1867 1.397 . S
C1863 C1919 1.419 . S
C1864 C1860 1.391 . S
C1864 C1863 1.391 . S
C1864 C1865 1.399 . S
C1865 C1864 1.399 . S
C1865 C1868 1.396 . S
C1865 C1877 1.453 . S
C1865 C1878 1.684 . S
H1866 C1890 0.948 . S
C1867 C1863 1.397 . S
C1867 C1868 1.394 . S
C1867 C1886 1.723 . S
C1868 C1865 1.396 . S
C1868 C1867 1.394 . S
C1868 C1898 1.723 . S
H1869 C1892 0.947 . S
H1870 C1893 0.948 . S
H1871 C1899 0.982 . S
H1872 C1900 0.979 . S
H1873 C1900 0.980 . S
H1874 C1900 0.983 . S
H1875 C1899 0.979 . S
H1876 C1899 0.977 . S
C1877 C1865 1.453 . S
C1877 H1906 0.982 . S
C1877 H1907 0.979 . S
C1877 H1908 0.977 . S
C1878 C1865 1.684 . S
C1878 H1903 0.979 . S
C1878 H1904 0.980 . S
C1878 H1905 0.983 . S
C1879 C1880 1.391 . S
C1879 C1884 1.391 . S
C1879 H1909 0.948 . S
C1880 C1879 1.391 . S
C1880 C1881 1.391 . S
C1881 C1880 1.391 . S
C1881 C1882 1.392 . S
C1881 H1910 0.947 . S
C1882 C1881 1.392 . S
C1882 C1883 1.419 . S
C1882 H1911 0.948 . S
C1883 C1882 1.419 . S
C1883 C1884 1.391 . S
C1883 C1887 1.397 . S
C1884 C1879 1.391 . S
C1884 C1883 1.391 . S
C1884 C1885 1.399 . S
C1885 C1884 1.399 . S
C1885 C1886 1.396 . S
C1885 C1888 1.453 . S
C1885 C1889 1.684 . S
C1886 C1867 1.723 . S
C1886 C1885 1.396 . S
C1886 C1887 1.394 . S
C1887 C1883 1.397 . S
C1887 C1886 1.394 . S
C1887 C1897 1.723 . S
C1888 C1885 1.453 . S
C1888 H1912 0.982 . S
C1888 H1913 0.979 . S
C1888 H1914 0.977 . S
C1889 C1885 1.684 . S
C1889 H1915 0.979 . S
C1889 H1916 0.980 . S
C1889 H1917 0.983 . S
C1890 H1866 0.948 . S
C1890 C1891 1.391 . S
C1890 C1895 1.391 . S
C1891 C1890 1.391 . S
C1891 C1892 1.391 . S
C1892 H1869 0.947 . S
C1892 C1891 1.391 . S
C1892 C1893 1.392 . S
C1893 H1870 0.948 . S
C1893 C1892 1.392 . S
C1893 C1894 1.419 . S
C1894 C1893 1.419 . S
C1894 C1895 1.391 . S
C1894 C1898 1.397 . S
C1895 C1890 1.391 . S
C1895 C1894 1.391 . S
C1895 C1896 1.399 . S
C1896 C1895 1.399 . S
C1896 C1897 1.396 . S
C1896 C1899 1.453 . S
C1896 C1900 1.684 . S
C1897 C1887 1.723 . S
C1897 C1896 1.396 . S
C1897 C1898 1.394 . S
C1898 C1868 1.723 . S
C1898 C1894 1.397 . S
C1898 C1897 1.394 . S
C1899 H1871 0.982 . S
C1899 H1875 0.979 . S
C1899 H1876 0.977 . S
C1899 C1896 1.453 . S
C1900 H1872 0.979 . S
C1900 H1873 0.980 . S
C1900 H1874 0.983 . S
C1900 C1896 1.684 . S
H1901 C1919 0.948 . S
H1902 C1860 0.948 . S
H1903 C1878 0.979 . S
H1904 C1878 0.980 . S
H1905 C1878 0.983 . S
H1906 C1877 0.982 . S
H1907 C1877 0.979 . S
H1908 C1877 0.977 . S
H1909 C1879 0.948 . S
H1910 C1881 0.947 . S
H1911 C1882 0.948 . S
H1912 C1888 0.982 . S
H1913 C1888 0.979 . S
H1914 C1888 0.977 . S
H1915 C1889 0.979 . S
H1916 C1889 0.980 . S
H1917 C1889 0.983 . S
H1918 C1862 0.947 . S
C1919 C1862 1.392 . S
C1919 C1863 1.419 . S
C1919 H1901 0.948 . S
Cu1920 N1921 1.999 . S
Cu1920 O1926 1.974 1_554 S
Cu1920 N1931 1.985 . S
Cu1920 O1940 1.959 . S
N1921 Cu1920 1.999 . S
N1921 C1923 1.263 1_554 S
N1921 C1925 1.389 . S
N1922 C1923 1.358 . S
N1922 C1924 1.400 . S
C1923 N1921 1.263 1_556 S
C1923 N1922 1.358 . S
C1923 H1929 0.930 . S
C1924 N1922 1.400 . S
C1924 C1925 1.351 1_556 S
C1924 H1941 0.930 . S
C1925 N1921 1.389 . S
C1925 C1924 1.351 1_554 S
C1925 H1930 0.930 . S
O1926 Cu1920 1.974 1_556 S
O1926 C1936 1.282 . S
C1927 O1928 1.261 . S
C1927 O1940 1.251 . S
O1928 C1927 1.261 . S
H1929 C1923 0.930 . S
H1930 C1925 0.930 . S
N1931 Cu1920 1.985 . S
N1931 C1933 1.335 . S
N1931 C1934 1.390 . S
N1932 C1933 1.345 . S
N1932 C1935 1.336 . S
C1933 N1931 1.335 . S
C1933 N1932 1.345 . S
C1933 H1938 0.930 . S
C1934 N1931 1.390 . S
C1934 C1935 1.346 . S
C1934 H1939 0.930 . S
C1935 N1932 1.336 . S
C1935 C1934 1.346 . S
C1935 H1942 0.929 . S
C1936 O1926 1.282 . S
C1936 O1937 1.216 . S
O1937 C1936 1.216 . S
H1938 C1933 0.930 . S
H1939 C1934 0.930 . S
O1940 Cu1920 1.959 . S
O1940 C1927 1.251 . S
H1941 C1924 0.930 . S
H1942 C1935 0.929 . S
Cu1943 N1944 1.999 . S
Cu1943 O1949 1.974 . S
Cu1943 N1954 1.985 1_554 S
Cu1943 O1963 1.959 1_554 S
N1944 Cu1943 1.999 . S
N1944 C1946 1.263 . S
N1944 C1948 1.389 . S
N1945 C1946 1.358 . S
N1945 C1947 1.400 . S
C1946 N1944 1.263 . S
C1946 N1945 1.358 . S
C1946 H1952 0.930 . S
C1947 N1945 1.400 . S
C1947 C1948 1.351 . S
C1947 H1964 0.930 . S
C1948 N1944 1.389 . S
C1948 C1947 1.351 . S
C1948 H1953 0.930 . S
O1949 Cu1943 1.974 . S
O1949 C1959 1.282 . S
C1950 O1951 1.261 . S
C1950 O1963 1.251 . S
O1951 C1950 1.261 . S
H1952 C1946 0.930 . S
H1953 C1948 0.930 . S
N1954 Cu1943 1.985 1_556 S
N1954 C1956 1.335 . S
N1954 C1957 1.390 . S
N1955 C1956 1.345 . S
N1955 C1958 1.336 . S
C1956 N1954 1.335 . S
C1956 N1955 1.345 . S
C1956 H1961 0.930 . S
C1957 N1954 1.390 . S
C1957 C1958 1.346 . S
C1957 H1962 0.930 1_556 S
C1958 N1955 1.336 . S
C1958 C1957 1.346 . S
C1958 H1965 0.929 . S
C1959 O1949 1.282 . S
C1959 O1960 1.216 . S
O1960 C1959 1.216 . S
H1961 C1956 0.930 . S
H1962 C1957 0.930 1_554 S
O1963 Cu1943 1.959 1_556 S
O1963 C1950 1.251 . S
H1964 C1947 0.930 . S
H1965 C1958 0.929 . S
Cu1966 N1967 1.958 1_554 S
Cu1966 O1972 1.923 1_554 S
Cu1966 N1977 2.026 . S
Cu1966 O1986 2.010 . S
N1967 Cu1966 1.958 1_556 S
N1967 C1969 1.263 . S
N1967 C1971 1.389 . S
N1968 C1969 1.358 . S
N1968 C1970 1.400 . S
C1969 N1967 1.263 . S
C1969 N1968 1.358 . S
C1969 H1975 0.930 . S
C1970 N1968 1.400 . S
C1970 C1971 1.351 . S
C1970 H1987 0.930 . S
C1971 N1967 1.389 . S
C1971 C1970 1.351 . S
C1971 H1976 0.930 . S
O1972 Cu1966 1.923 1_556 S
O1972 C1982 1.282 . S
C1973 O1974 1.261 . S
C1973 O1986 1.251 . S
O1974 C1973 1.261 . S
H1975 C1969 0.930 . S
H1976 C1971 0.930 . S
N1977 Cu1966 2.026 . S
N1977 C1979 1.335 . S
N1977 C1980 1.390 . S
N1978 C1979 1.345 . S
N1978 C1981 1.336 . S
C1979 N1977 1.335 . S
C1979 N1978 1.345 . S
C1979 H1984 0.930 . S
C1980 N1977 1.390 . S
C1980 C1981 1.346 . S
C1980 H1985 0.959 . S
C1981 N1978 1.336 . S
C1981 C1980 1.346 . S
C1981 H1988 0.929 . S
C1982 O1972 1.282 . S
C1982 O1983 1.216 . S
O1983 C1982 1.216 . S
H1984 C1979 0.930 . S
H1985 C1980 0.959 . S
O1986 Cu1966 2.010 . S
O1986 C1973 1.251 . S
H1987 C1970 0.930 . S
H1988 C1981 0.929 . S
Cu1989 N1990 2.036 . S
Cu1989 O1995 2.018 . S
Cu1989 N2000 1.950 1_554 S
Cu1989 O2009 1.916 1_554 S
N1990 Cu1989 2.036 . S
N1990 C1992 1.263 . S
N1990 C1994 1.389 . S
N1991 C1992 1.358 . S
N1991 C1993 1.400 . S
C1992 N1990 1.263 . S
C1992 N1991 1.358 . S
C1992 H1998 0.930 . S
C1993 N1991 1.400 . S
C1993 C1994 1.351 . S
C1993 H2010 0.930 . S
C1994 N1990 1.389 . S
C1994 C1993 1.351 . S
C1994 H1999 0.930 . S
O1995 Cu1989 2.018 . S
O1995 C2005 1.282 . S
C1996 O1997 1.261 . S
C1996 O2009 1.251 . S
O1997 C1996 1.261 . S
H1998 C1992 0.930 . S
H1999 C1994 0.930 . S
N2000 Cu1989 1.950 1_556 S
N2000 C2002 1.335 . S
N2000 C2003 1.390 . S
N2001 C2002 1.345 . S
N2001 C2004 1.336 . S
C2002 N2000 1.335 . S
C2002 N2001 1.345 . S
C2002 H2007 0.930 . S
C2003 N2000 1.390 . S
C2003 C2004 1.346 . S
C2003 H2008 0.930 1_556 S
C2004 N2001 1.336 . S
C2004 C2003 1.346 . S
C2004 H2011 0.929 . S
C2005 O1995 1.282 . S
C2005 O2006 1.216 . S
O2006 C2005 1.216 . S
H2007 C2002 0.930 . S
H2008 C2003 0.930 1_554 S
O2009 Cu1989 1.916 1_556 S
O2009 C1996 1.251 . S
H2010 C1993 0.930 . S
H2011 C2004 0.929 . S
Cu2012 N2013 1.999 . S
Cu2012 O2018 1.974 . S
Cu2012 N2023 1.985 1_455 S
Cu2012 O2032 1.959 1_455 S
N2013 Cu2012 1.999 . S
N2013 C2015 1.263 . S
N2013 C2017 1.389 . S
N2014 C2015 1.358 . S
N2014 C2016 1.400 . S
C2015 N2013 1.263 . S
C2015 N2014 1.358 . S
C2015 H2021 0.930 . S
C2016 N2014 1.400 . S
C2016 C2017 1.351 . S
C2016 H2033 0.930 . S
C2017 N2013 1.389 . S
C2017 C2016 1.351 . S
C2017 H2022 0.930 . S
O2018 Cu2012 1.974 . S
O2018 C2028 1.282 . S
C2019 O2020 1.261 . S
C2019 O2032 1.251 . S
O2020 C2019 1.261 . S
H2021 C2015 0.930 . S
H2022 C2017 0.930 . S
N2023 Cu2012 1.985 1_655 S
N2023 C2025 1.335 . S
N2023 C2026 1.387 1_655 S
N2024 C2025 1.345 . S
N2024 C2027 1.336 . S
C2025 N2023 1.335 . S
C2025 N2024 1.345 . S
C2025 H2030 0.930 . S
C2026 N2023 1.387 1_455 S
C2026 C2027 1.333 1_455 S
C2026 H2031 0.944 . S
C2027 N2024 1.336 . S
C2027 C2026 1.333 1_655 S
C2027 H2034 0.929 . S
C2028 O2018 1.282 . S
C2028 O2029 1.216 . S
O2029 C2028 1.216 . S
H2030 C2025 0.930 . S
H2031 C2026 0.944 . S
O2032 Cu2012 1.959 1_655 S
O2032 C2019 1.251 . S
H2033 C2016 0.930 . S
H2034 C2027 0.929 . S
Cu2035 N2036 1.999 . S
Cu2035 O2041 1.974 . S
Cu2035 N2046 1.985 1_545 S
Cu2035 O2055 1.959 1_545 S
N2036 Cu2035 1.999 . S
N2036 C2038 1.263 . S
N2036 C2040 1.389 . S
N2037 C2038 1.358 . S
N2037 C2039 1.400 . S
C2038 N2036 1.263 . S
C2038 N2037 1.358 . S
C2038 H2044 0.930 . S
C2039 N2037 1.400 . S
C2039 C2040 1.351 . S
C2039 H2056 0.930 . S
C2040 N2036 1.389 . S
C2040 C2039 1.351 . S
C2040 H2045 0.930 . S
O2041 Cu2035 1.974 . S
O2041 C2051 1.282 . S
C2042 O2043 1.261 . S
C2042 O2055 1.251 . S
O2043 C2042 1.261 . S
H2044 C2038 0.930 . S
H2045 C2040 0.930 . S
N2046 Cu2035 1.985 1_565 S
N2046 C2048 1.335 . S
N2046 C2049 1.390 . S
N2047 C2048 1.345 . S
N2047 C2050 1.336 . S
C2048 N2046 1.335 . S
C2048 N2047 1.345 . S
C2048 H2053 0.930 . S
C2049 N2046 1.390 . S
C2049 C2050 1.346 . S
C2049 H2054 0.930 1_565 S
C2050 N2047 1.336 . S
C2050 C2049 1.346 . S
C2050 H2057 0.929 . S
C2051 O2041 1.282 . S
C2051 O2052 1.216 . S
O2052 C2051 1.216 . S
H2053 C2048 0.930 . S
H2054 C2049 0.930 1_545 S
O2055 Cu2035 1.959 1_565 S
O2055 C2042 1.251 . S
H2056 C2039 0.930 . S
H2057 C2050 0.929 . S
Cu2058 N2059 2.004 1_455 S
Cu2058 O2064 1.980 1_455 S
Cu2058 N2069 1.980 . S
Cu2058 O2078 1.953 . S
N2059 Cu2058 2.004 1_655 S
N2059 C2061 1.263 . S
N2059 C2063 1.389 . S
N2060 C2061 1.358 . S
N2060 C2062 1.400 . S
C2061 N2059 1.263 . S
C2061 N2060 1.358 . S
C2061 H2067 0.930 . S
C2062 N2060 1.400 . S
C2062 C2063 1.351 . S
C2062 H2079 0.930 . S
C2063 N2059 1.389 . S
C2063 C2062 1.351 . S
C2063 H2068 0.930 . S
O2064 Cu2058 1.980 1_655 S
O2064 C2074 1.282 . S
C2065 O2066 1.261 . S
C2065 O2078 1.251 . S
O2066 C2065 1.261 . S
H2067 C2061 0.930 . S
H2068 C2063 0.930 . S
N2069 Cu2058 1.980 . S
N2069 C2071 1.335 . S
N2069 C2072 1.390 . S
N2070 C2071 1.345 . S
N2070 C2073 1.336 . S
C2071 N2069 1.335 . S
C2071 N2070 1.345 . S
C2071 H2076 0.930 . S
C2072 N2069 1.390 . S
C2072 C2073 1.346 . S
C2072 H2077 0.930 . S
C2073 N2070 1.336 . S
C2073 C2072 1.346 . S
C2073 H2080 0.929 . S
C2074 O2064 1.282 . S
C2074 O2075 1.216 . S
O2075 C2074 1.216 . S
H2076 C2071 0.930 . S
H2077 C2072 0.930 . S
O2078 Cu2058 1.953 . S
O2078 C2065 1.251 . S
H2079 C2062 0.930 . S
H2080 C2073 0.929 . S
Cu2081 N2082 1.985 1_565 S
Cu2081 O2087 1.956 1_565 S
Cu2081 N2092 1.999 . S
Cu2081 O2101 1.977 . S
N2082 Cu2081 1.985 1_545 S
N2082 C2084 1.263 . S
N2082 C2086 1.389 . S
N2083 C2084 1.358 . S
N2083 C2085 1.400 . S
C2084 N2082 1.263 . S
C2084 N2083 1.358 . S
C2084 H2090 0.930 . S
C2085 N2083 1.400 . S
C2085 C2086 1.351 . S
C2085 H2102 0.930 . S
C2086 N2082 1.389 . S
C2086 C2085 1.351 . S
C2086 H2091 0.930 . S
O2087 Cu2081 1.956 1_545 S
O2087 C2097 1.282 . S
C2088 O2089 1.261 . S
C2088 O2101 1.251 . S
O2089 C2088 1.261 . S
H2090 C2084 0.930 . S
H2091 C2086 0.930 . S
N2092 Cu2081 1.999 . S
N2092 C2094 1.335 . S
N2092 C2095 1.390 . S
N2093 C2094 1.345 . S
N2093 C2096 1.336 . S
C2094 N2092 1.335 . S
C2094 N2093 1.345 . S
C2094 H2099 0.930 . S
C2095 N2092 1.390 . S
C2095 C2096 1.346 . S
C2095 H2100 0.930 . S
C2096 N2093 1.336 . S
C2096 C2095 1.346 . S
C2096 H2103 0.929 . S
C2097 O2087 1.282 . S
C2097 O2098 1.216 . S
O2098 C2097 1.216 . S
H2099 C2094 0.930 . S
H2100 C2095 0.930 . S
O2101 Cu2081 1.977 . S
O2101 C2088 1.251 . S
H2102 C2085 0.930 . S
H2103 C2096 0.929 . S
Cu2104 N2105 1.999 . S
Cu2104 O2110 1.974 . S
Cu2104 N2115 1.985 1_455 S
Cu2104 O2124 1.959 1_455 S
N2105 Cu2104 1.999 . S
N2105 C2107 1.263 . S
N2105 C2109 1.389 . S
N2106 C2107 1.358 . S
N2106 C2108 1.400 . S
C2107 N2105 1.263 . S
C2107 N2106 1.358 . S
C2107 H2113 0.930 . S
C2108 N2106 1.400 . S
C2108 C2109 1.351 . S
C2108 H2125 0.930 . S
C2109 N2105 1.389 . S
C2109 C2108 1.351 . S
C2109 H2114 0.930 . S
O2110 Cu2104 1.974 . S
O2110 C2120 1.282 . S
C2111 O2112 1.261 . S
C2111 O2124 1.251 . S
O2112 C2111 1.261 . S
H2113 C2107 0.930 . S
H2114 C2109 0.930 . S
N2115 Cu2104 1.985 1_655 S
N2115 C2117 1.335 . S
N2115 C2118 1.396 . S
N2116 C2117 1.345 . S
N2116 C2119 1.336 . S
C2117 N2115 1.335 . S
C2117 N2116 1.345 . S
C2117 H2122 0.930 . S
C2118 N2115 1.396 . S
C2118 C2119 1.371 . S
C2118 H2123 0.905 1_655 S
C2119 N2116 1.336 . S
C2119 C2118 1.371 . S
C2119 H2126 0.929 . S
C2120 O2110 1.282 . S
C2120 O2121 1.216 . S
O2121 C2120 1.216 . S
H2122 C2117 0.930 . S
H2123 C2118 0.905 1_455 S
O2124 Cu2104 1.959 1_655 S
O2124 C2111 1.251 . S
H2125 C2108 0.930 . S
H2126 C2119 0.929 . S
Cu2127 N2128 1.999 . S
Cu2127 O2133 1.974 . S
Cu2127 N2138 1.985 1_545 S
Cu2127 O2147 1.959 1_545 S
N2128 Cu2127 1.999 . S
N2128 C2130 1.263 . S
N2128 C2132 1.389 . S
N2129 C2130 1.358 . S
N2129 C2131 1.400 . S
C2130 N2128 1.263 . S
C2130 N2129 1.358 . S
C2130 H2136 0.930 . S
C2131 N2129 1.400 . S
C2131 C2132 1.351 . S
C2131 H2148 0.930 . S
C2132 N2128 1.389 . S
C2132 C2131 1.351 . S
C2132 H2137 0.930 . S
O2133 Cu2127 1.974 . S
O2133 C2143 1.282 . S
C2134 O2135 1.261 . S
C2134 O2147 1.251 . S
O2135 C2134 1.261 . S
H2136 C2130 0.930 . S
H2137 C2132 0.930 . S
N2138 Cu2127 1.985 1_565 S
N2138 C2140 1.335 . S
N2138 C2141 1.390 1_565 S
N2139 C2140 1.345 . S
N2139 C2142 1.336 . S
C2140 N2138 1.335 . S
C2140 N2139 1.345 . S
C2140 H2145 0.930 . S
C2141 N2138 1.390 1_545 S
C2141 C2142 1.346 1_545 S
C2141 H2146 0.930 . S
C2142 N2139 1.336 . S
C2142 C2141 1.346 1_565 S
C2142 H2149 0.929 . S
C2143 O2133 1.282 . S
C2143 O2144 1.216 . S
O2144 C2143 1.216 . S
H2145 C2140 0.930 . S
H2146 C2141 0.930 . S
O2147 Cu2127 1.959 1_565 S
O2147 C2134 1.251 . S
H2148 C2131 0.930 . S
H2149 C2142 0.929 . S
Cu2150 N2151 1.999 . S
Cu2150 O2156 1.974 . S
Cu2150 N2161 1.985 . S
Cu2150 O2170 1.959 . S
N2151 Cu2150 1.999 . S
N2151 C2153 1.263 1_455 S
N2151 C2155 1.389 . S
N2152 C2153 1.358 . S
N2152 C2154 1.400 . S
C2153 N2151 1.263 1_655 S
C2153 N2152 1.358 . S
C2153 H2159 0.930 . S
C2154 N2152 1.400 . S
C2154 C2155 1.351 1_655 S
C2154 H2171 0.930 . S
C2155 N2151 1.389 . S
C2155 C2154 1.351 1_455 S
C2155 H2160 0.930 . S
O2156 Cu2150 1.974 . S
O2156 C2166 1.282 1_455 S
C2157 O2158 1.261 . S
C2157 O2170 1.251 . S
O2158 C2157 1.261 . S
H2159 C2153 0.930 . S
H2160 C2155 0.930 . S
N2161 Cu2150 1.985 . S
N2161 C2163 1.335 . S
N2161 C2164 1.390 . S
N2162 C2163 1.345 . S
N2162 C2165 1.336 . S
C2163 N2161 1.335 . S
C2163 N2162 1.345 . S
C2163 H2168 0.930 . S
C2164 N2161 1.390 . S
C2164 C2165 1.346 . S
C2164 H2169 0.930 . S
C2165 N2162 1.336 . S
C2165 C2164 1.346 . S
C2165 H2172 0.929 . S
C2166 O2156 1.282 1_655 S
C2166 O2167 1.216 1_655 S
O2167 C2166 1.216 1_455 S
H2168 C2163 0.930 . S
H2169 C2164 0.930 . S
O2170 Cu2150 1.959 . S
O2170 C2157 1.251 . S
H2171 C2154 0.930 . S
H2172 C2165 0.929 . S
Cu2173 N2174 1.999 . S
Cu2173 O2179 1.974 . S
Cu2173 N2184 2.030 . S
Cu2173 O2193 1.959 1_545 S
N2174 Cu2173 1.999 . S
N2174 C2176 1.263 . S
N2174 C2178 1.389 . S
N2175 C2176 1.358 . S
N2175 C2177 1.400 . S
C2176 N2174 1.263 . S
C2176 N2175 1.358 . S
C2176 H2182 0.930 . S
C2177 N2175 1.400 . S
C2177 C2178 1.351 . S
C2177 H2194 0.930 . S
C2178 N2174 1.389 . S
C2178 C2177 1.351 . S
C2178 H2183 0.930 . S
O2179 Cu2173 1.974 . S
O2179 C2189 1.282 . S
C2180 O2181 1.249 1_565 S
C2180 O2193 1.251 . S
O2181 C2180 1.249 1_545 S
H2182 C2176 0.930 . S
H2183 C2178 0.930 . S
N2184 Cu2173 2.030 . S
N2184 C2186 1.264 1_545 S
N2184 C2187 1.409 . S
N2185 C2186 1.345 . S
N2185 C2188 1.336 . S
C2186 N2184 1.264 1_565 S
C2186 N2185 1.345 . S
C2186 H2191 0.930 . S
C2187 N2184 1.409 . S
C2187 C2188 1.346 1_545 S
C2187 H2192 0.930 . S
C2188 N2185 1.336 . S
C2188 C2187 1.346 1_565 S
C2188 H2195 0.929 . S
C2189 O2179 1.282 . S
C2189 O2190 1.216 . S
O2190 C2189 1.216 . S
H2191 C2186 0.930 . S
H2192 C2187 0.930 . S
O2193 Cu2173 1.959 1_565 S
O2193 C2180 1.251 . S
H2194 C2177 0.930 . S
H2195 C2188 0.929 . S
Cu2196 N2197 1.999 . S
Cu2196 O2202 1.974 . S
Cu2196 N2207 1.985 . S
Cu2196 O2216 1.959 . S
N2197 Cu2196 1.999 . S
N2197 C2199 1.263 . S
N2197 C2201 1.389 . S
N2198 C2199 1.358 . S
N2198 C2200 1.400 . S
C2199 N2197 1.263 . S
C2199 N2198 1.358 . S
C2199 H2205 0.930 . S
C2200 N2198 1.400 . S
C2200 C2201 1.351 . S
C2200 H2217 0.930 . S
C2201 N2197 1.389 . S
C2201 C2200 1.351 . S
C2201 H2206 0.930 . S
O2202 Cu2196 1.974 . S
O2202 C2212 1.282 . S
C2203 O2204 1.261 . S
C2203 O2216 1.251 . S
O2204 C2203 1.261 . S
H2205 C2199 0.930 . S
H2206 C2201 0.930 . S
N2207 Cu2196 1.985 . S
N2207 C2209 1.335 . S
N2207 C2210 1.390 . S
N2208 C2209 1.345 . S
N2208 C2211 1.336 . S
C2209 N2207 1.335 . S
C2209 N2208 1.345 . S
C2209 H2214 0.930 . S
C2210 N2207 1.390 . S
C2210 C2211 1.346 . S
C2210 H2215 0.930 . S
C2211 N2208 1.336 . S
C2211 C2210 1.346 . S
C2211 H2218 0.929 . S
C2212 O2202 1.282 . S
C2212 O2213 1.216 . S
O2213 C2212 1.216 . S
H2214 C2209 0.930 . S
H2215 C2210 0.930 . S
O2216 Cu2196 1.959 . S
O2216 C2203 1.251 . S
H2217 C2200 0.930 . S
H2218 C2211 0.929 . S
Cu2219 N2220 1.999 . S
Cu2219 O2225 1.974 . S
Cu2219 N2230 1.985 . S
Cu2219 O2239 1.959 . S
N2220 Cu2219 1.999 . S
N2220 C2222 1.263 . S
N2220 C2224 1.389 . S
N2221 C2222 1.358 . S
N2221 C2223 1.400 . S
C2222 N2220 1.263 . S
C2222 N2221 1.358 . S
C2222 H2228 0.930 . S
C2223 N2221 1.400 . S
C2223 C2224 1.351 . S
C2223 H2240 0.930 . S
C2224 N2220 1.389 . S
C2224 C2223 1.351 . S
C2224 H2229 0.930 . S
O2225 Cu2219 1.974 . S
O2225 C2235 1.282 . S
C2226 O2227 1.261 . S
C2226 O2239 1.251 . S
O2227 C2226 1.261 . S
H2228 C2222 0.930 . S
H2229 C2224 0.930 . S
N2230 Cu2219 1.985 . S
N2230 C2232 1.335 . S
N2230 C2233 1.390 . S
N2231 C2232 1.345 . S
N2231 C2234 1.336 . S
C2232 N2230 1.335 . S
C2232 N2231 1.345 . S
C2232 H2237 0.930 . S
C2233 N2230 1.390 . S
C2233 C2234 1.346 . S
C2233 H2238 0.930 . S
C2234 N2231 1.336 . S
C2234 C2233 1.346 . S
C2234 H2241 0.929 . S
C2235 O2225 1.282 . S
C2235 O2236 1.216 . S
O2236 C2235 1.216 . S
H2237 C2232 0.930 . S
H2238 C2233 0.930 . S
O2239 Cu2219 1.959 . S
O2239 C2226 1.251 . S
H2240 C2223 0.930 . S
H2241 C2234 0.929 . S
Cu2242 N2243 1.999 . S
Cu2242 O2248 1.974 . S
Cu2242 N2253 1.985 . S
Cu2242 O2262 1.959 . S
N2243 Cu2242 1.999 . S
N2243 C2245 1.263 . S
N2243 C2247 1.389 . S
N2244 C2245 1.358 . S
N2244 C2246 1.400 . S
C2245 N2243 1.263 . S
C2245 N2244 1.358 . S
C2245 H2251 0.930 . S
C2246 N2244 1.400 . S
C2246 C2247 1.351 . S
C2246 H2263 0.930 . S
C2247 N2243 1.389 . S
C2247 C2246 1.351 . S
C2247 H2252 0.930 . S
O2248 Cu2242 1.974 . S
O2248 C2258 1.282 . S
C2249 O2250 1.261 . S
C2249 O2262 1.251 . S
O2250 C2249 1.261 . S
H2251 C2245 0.930 . S
H2252 C2247 0.930 . S
N2253 Cu2242 1.985 . S
N2253 C2255 1.335 . S
N2253 C2256 1.390 . S
N2254 C2255 1.345 . S
N2254 C2257 1.336 . S
C2255 N2253 1.335 . S
C2255 N2254 1.345 . S
C2255 H2260 0.930 . S
C2256 N2253 1.390 . S
C2256 C2257 1.346 . S
C2256 H2261 0.930 . S
C2257 N2254 1.336 . S
C2257 C2256 1.346 . S
C2257 H2264 0.929 . S
C2258 O2248 1.282 . S
C2258 O2259 1.216 . S
O2259 C2258 1.216 . S
H2260 C2255 0.930 . S
H2261 C2256 0.930 . S
O2262 Cu2242 1.959 . S
O2262 C2249 1.251 . S
H2263 C2246 0.930 . S
H2264 C2257 0.929 . S
Cu2265 N2266 1.999 . S
Cu2265 O2271 1.974 . S
Cu2265 N2276 1.985 . S
Cu2265 O2285 1.959 . S
N2266 Cu2265 1.999 . S
N2266 C2268 1.263 . S
N2266 C2270 1.389 . S
N2267 C2268 1.358 . S
N2267 C2269 1.400 . S
C2268 N2266 1.263 . S
C2268 N2267 1.358 . S
C2268 H2274 0.930 . S
C2269 N2267 1.400 . S
C2269 C2270 1.351 . S
C2269 H2286 0.930 . S
C2270 N2266 1.389 . S
C2270 C2269 1.351 . S
C2270 H2275 0.930 . S
O2271 Cu2265 1.974 . S
O2271 C2281 1.282 . S
C2272 O2273 1.261 . S
C2272 O2285 1.251 . S
O2273 C2272 1.261 . S
H2274 C2268 0.930 . S
H2275 C2270 0.930 . S
N2276 Cu2265 1.985 . S
N2276 C2278 1.335 . S
N2276 C2279 1.390 . S
N2277 C2278 1.345 . S
N2277 C2280 1.336 . S
C2278 N2276 1.335 . S
C2278 N2277 1.345 . S
C2278 H2283 0.930 . S
C2279 N2276 1.390 . S
C2279 C2280 1.346 . S
C2279 H2284 0.930 . S
C2280 N2277 1.336 . S
C2280 C2279 1.346 . S
C2280 H2287 0.929 . S
C2281 O2271 1.282 . S
C2281 O2282 1.216 . S
O2282 C2281 1.216 . S
H2283 C2278 0.930 . S
H2284 C2279 0.930 . S
O2285 Cu2265 1.959 . S
O2285 C2272 1.251 . S
H2286 C2269 0.930 . S
H2287 C2280 0.929 . S
Cu2288 N2289 1.999 . S
Cu2288 O2294 1.974 . S
Cu2288 N2299 1.985 . S
Cu2288 O2308 1.959 . S
N2289 Cu2288 1.999 . S
N2289 C2291 1.263 . S
N2289 C2293 1.389 . S
N2290 C2291 1.358 . S
N2290 C2292 1.400 . S
C2291 N2289 1.263 . S
C2291 N2290 1.358 . S
C2291 H2297 0.930 . S
C2292 N2290 1.400 . S
C2292 C2293 1.351 . S
C2292 H2309 0.930 . S
C2293 N2289 1.389 . S
C2293 C2292 1.351 . S
C2293 H2298 0.930 . S
O2294 Cu2288 1.974 . S
O2294 C2304 1.282 . S
C2295 O2296 1.261 . S
C2295 O2308 1.251 . S
O2296 C2295 1.261 . S
H2297 C2291 0.930 . S
H2298 C2293 0.930 . S
N2299 Cu2288 1.985 . S
N2299 C2301 1.335 . S
N2299 C2302 1.390 . S
N2300 C2301 1.345 . S
N2300 C2303 1.336 . S
C2301 N2299 1.335 . S
C2301 N2300 1.345 . S
C2301 H2306 0.930 . S
C2302 N2299 1.390 . S
C2302 C2303 1.346 . S
C2302 H2307 0.930 . S
C2303 N2300 1.336 . S
C2303 C2302 1.346 . S
C2303 H2310 0.929 . S
C2304 O2294 1.282 . S
C2304 O2305 1.216 . S
O2305 C2304 1.216 . S
H2306 C2301 0.930 . S
H2307 C2302 0.930 . S
O2308 Cu2288 1.959 . S
O2308 C2295 1.251 . S
H2309 C2292 0.930 . S
H2310 C2303 0.929 . S
Cu2311 N2312 1.999 . S
Cu2311 O2317 1.974 . S
Cu2311 N2322 1.985 . S
Cu2311 O2331 1.959 . S
N2312 Cu2311 1.999 . S
N2312 C2314 1.263 . S
N2312 C2316 1.389 . S
N2313 C2314 1.358 . S
N2313 C2315 1.400 . S
C2314 N2312 1.263 . S
C2314 N2313 1.358 . S
C2314 H2320 0.930 . S
C2315 N2313 1.400 . S
C2315 C2316 1.351 . S
C2315 H2332 0.930 . S
C2316 N2312 1.389 . S
C2316 C2315 1.351 . S
C2316 H2321 0.930 . S
O2317 Cu2311 1.974 . S
O2317 C2327 1.282 . S
C2318 O2319 1.261 . S
C2318 O2331 1.251 . S
O2319 C2318 1.261 . S
H2320 C2314 0.930 . S
H2321 C2316 0.930 . S
N2322 Cu2311 1.985 . S
N2322 C2324 1.335 . S
N2322 C2325 1.390 . S
N2323 C2324 1.345 . S
N2323 C2326 1.336 . S
C2324 N2322 1.335 . S
C2324 N2323 1.345 . S
C2324 H2329 0.930 . S
C2325 N2322 1.390 . S
C2325 C2326 1.346 . S
C2325 H2330 0.930 . S
C2326 N2323 1.336 . S
C2326 C2325 1.346 . S
C2326 H2333 0.929 . S
C2327 O2317 1.282 . S
C2327 O2328 1.216 . S
O2328 C2327 1.216 . S
H2329 C2324 0.930 . S
H2330 C2325 0.930 . S
O2331 Cu2311 1.959 . S
O2331 C2318 1.251 . S
H2332 C2315 0.930 . S
H2333 C2326 0.929 . S
Cu2334 N2335 1.999 . S
Cu2334 O2340 1.974 . S
Cu2334 N2345 1.985 . S
Cu2334 O2354 1.959 . S
N2335 Cu2334 1.999 . S
N2335 C2337 1.263 . S
N2335 C2339 1.389 . S
N2336 C2337 1.358 . S
N2336 C2338 1.400 . S
C2337 N2335 1.263 . S
C2337 N2336 1.358 . S
C2337 H2343 0.930 . S
C2338 N2336 1.400 . S
C2338 C2339 1.351 . S
C2338 H2355 0.930 . S
C2339 N2335 1.389 . S
C2339 C2338 1.351 . S
C2339 H2344 0.930 . S
O2340 Cu2334 1.974 . S
O2340 C2350 1.282 . S
C2341 O2342 1.261 . S
C2341 O2354 1.251 . S
O2342 C2341 1.261 . S
H2343 C2337 0.930 . S
H2344 C2339 0.930 . S
N2345 Cu2334 1.985 . S
N2345 C2347 1.335 . S
N2345 C2348 1.390 . S
N2346 C2347 1.345 . S
N2346 C2349 1.336 . S
C2347 N2345 1.335 . S
C2347 N2346 1.345 . S
C2347 H2352 0.930 . S
C2348 N2345 1.390 . S
C2348 C2349 1.346 . S
C2348 H2353 0.930 . S
C2349 N2346 1.336 . S
C2349 C2348 1.346 . S
C2349 H2356 0.929 . S
C2350 O2340 1.282 . S
C2350 O2351 1.216 . S
O2351 C2350 1.216 . S
H2352 C2347 0.930 . S
H2353 C2348 0.930 . S
O2354 Cu2334 1.959 . S
O2354 C2341 1.251 . S
H2355 C2338 0.930 . S
H2356 C2349 0.929 . S
Cu2357 N2358 1.999 . S
Cu2357 O2363 1.974 . S
Cu2357 N2368 1.985 . S
Cu2357 O2377 1.959 . S
N2358 Cu2357 1.999 . S
N2358 C2360 1.263 . S
N2358 C2362 1.389 . S
N2359 C2360 1.358 . S
N2359 C2361 1.400 . S
C2360 N2358 1.263 . S
C2360 N2359 1.358 . S
C2360 H2366 0.930 . S
C2361 N2359 1.400 . S
C2361 C2362 1.351 . S
C2361 H2378 0.930 . S
C2362 N2358 1.389 . S
C2362 C2361 1.351 . S
C2362 H2367 0.930 . S
O2363 Cu2357 1.974 . S
O2363 C2373 1.282 . S
C2364 O2365 1.261 . S
C2364 O2377 1.251 . S
O2365 C2364 1.261 . S
H2366 C2360 0.930 . S
H2367 C2362 0.930 . S
N2368 Cu2357 1.985 . S
N2368 C2370 1.335 . S
N2368 C2371 1.390 . S
N2369 C2370 1.345 . S
N2369 C2372 1.336 . S
C2370 N2368 1.335 . S
C2370 N2369 1.345 . S
C2370 H2375 0.930 . S
C2371 N2368 1.390 . S
C2371 C2372 1.346 . S
C2371 H2376 0.930 . S
C2372 N2369 1.336 . S
C2372 C2371 1.346 . S
C2372 H2379 0.929 . S
C2373 O2363 1.282 . S
C2373 O2374 1.216 . S
O2374 C2373 1.216 . S
H2375 C2370 0.930 . S
H2376 C2371 0.930 . S
O2377 Cu2357 1.959 . S
O2377 C2364 1.251 . S
H2378 C2361 0.930 . S
H2379 C2372 0.929 . S
Cu2380 N2381 1.999 . S
Cu2380 O2386 1.974 . S
Cu2380 N2391 1.985 . S
Cu2380 O2400 1.959 . S
N2381 Cu2380 1.999 . S
N2381 C2383 1.263 . S
N2381 C2385 1.389 . S
N2382 C2383 1.358 . S
N2382 C2384 1.400 . S
C2383 N2381 1.263 . S
C2383 N2382 1.358 . S
C2383 H2389 0.930 . S
C2384 N2382 1.400 . S
C2384 C2385 1.351 . S
C2384 H2401 0.930 . S
C2385 N2381 1.389 . S
C2385 C2384 1.351 . S
C2385 H2390 0.930 . S
O2386 Cu2380 1.974 . S
O2386 C2396 1.282 . S
C2387 O2388 1.261 . S
C2387 O2400 1.251 . S
O2388 C2387 1.261 . S
H2389 C2383 0.930 . S
H2390 C2385 0.930 . S
N2391 Cu2380 1.985 . S
N2391 C2393 1.335 . S
N2391 C2394 1.390 . S
N2392 C2393 1.345 . S
N2392 C2395 1.336 . S
C2393 N2391 1.335 . S
C2393 N2392 1.345 . S
C2393 H2398 0.930 . S
C2394 N2391 1.390 . S
C2394 C2395 1.346 . S
C2394 H2399 0.930 . S
C2395 N2392 1.336 . S
C2395 C2394 1.346 . S
C2395 H2402 0.929 . S
C2396 O2386 1.282 . S
C2396 O2397 1.216 . S
O2397 C2396 1.216 . S
H2398 C2393 0.930 . S
H2399 C2394 0.930 . S
O2400 Cu2380 1.959 . S
O2400 C2387 1.251 . S
H2401 C2384 0.930 . S
H2402 C2395 0.929 . S
Cu2403 N2404 1.999 . S
Cu2403 O2409 1.974 . S
Cu2403 N2414 1.985 . S
Cu2403 O2423 1.959 . S
N2404 Cu2403 1.999 . S
N2404 C2406 1.263 . S
N2404 C2408 1.389 . S
N2405 C2406 1.358 . S
N2405 C2407 1.400 . S
C2406 N2404 1.263 . S
C2406 N2405 1.358 . S
C2406 H2412 0.930 . S
C2407 N2405 1.400 . S
C2407 C2408 1.351 . S
C2407 H2424 0.930 . S
C2408 N2404 1.389 . S
C2408 C2407 1.351 . S
C2408 H2413 0.930 . S
O2409 Cu2403 1.974 . S
O2409 C2419 1.282 . S
C2410 O2411 1.261 . S
C2410 O2423 1.251 . S
O2411 C2410 1.261 . S
H2412 C2406 0.930 . S
H2413 C2408 0.930 . S
N2414 Cu2403 1.985 . S
N2414 C2416 1.335 . S
N2414 C2417 1.390 . S
N2415 C2416 1.345 . S
N2415 C2418 1.336 . S
C2416 N2414 1.335 . S
C2416 N2415 1.345 . S
C2416 H2421 0.930 . S
C2417 N2414 1.390 . S
C2417 C2418 1.346 . S
C2417 H2422 0.930 . S
C2418 N2415 1.336 . S
C2418 C2417 1.346 . S
C2418 H2425 0.929 . S
C2419 O2409 1.282 . S
C2419 O2420 1.216 . S
O2420 C2419 1.216 . S
H2421 C2416 0.930 . S
H2422 C2417 0.930 . S
O2423 Cu2403 1.959 . S
O2423 C2410 1.251 . S
H2424 C2407 0.930 . S
H2425 C2418 0.929 . S
Cu2426 N2427 1.999 . S
Cu2426 O2432 1.974 . S
Cu2426 N2437 1.985 . S
Cu2426 O2446 1.959 . S
N2427 Cu2426 1.999 . S
N2427 C2429 1.263 . S
N2427 C2431 1.389 . S
N2428 C2429 1.358 . S
N2428 C2430 1.400 . S
C2429 N2427 1.263 . S
C2429 N2428 1.358 . S
C2429 H2435 0.930 . S
C2430 N2428 1.400 . S
C2430 C2431 1.351 . S
C2430 H2447 0.930 . S
C2431 N2427 1.389 . S
C2431 C2430 1.351 . S
C2431 H2436 0.930 . S
O2432 Cu2426 1.974 . S
O2432 C2442 1.282 . S
C2433 O2434 1.261 . S
C2433 O2446 1.251 . S
O2434 C2433 1.261 . S
H2435 C2429 0.930 . S
H2436 C2431 0.930 . S
N2437 Cu2426 1.985 . S
N2437 C2439 1.335 . S
N2437 C2440 1.390 . S
N2438 C2439 1.345 . S
N2438 C2441 1.336 . S
C2439 N2437 1.335 . S
C2439 N2438 1.345 . S
C2439 H2444 0.930 . S
C2440 N2437 1.390 . S
C2440 C2441 1.346 . S
C2440 H2445 0.930 . S
C2441 N2438 1.336 . S
C2441 C2440 1.346 . S
C2441 H2448 0.929 . S
C2442 O2432 1.282 . S
C2442 O2443 1.216 . S
O2443 C2442 1.216 . S
H2444 C2439 0.930 . S
H2445 C2440 0.930 . S
O2446 Cu2426 1.959 . S
O2446 C2433 1.251 . S
H2447 C2430 0.930 . S
H2448 C2441 0.929 . S
Cu2449 N2450 1.999 . S
Cu2449 O2455 1.974 . S
Cu2449 N2460 1.985 . S
Cu2449 O2469 1.959 . S
N2450 Cu2449 1.999 . S
N2450 C2452 1.263 . S
N2450 C2454 1.389 . S
N2451 C2452 1.358 . S
N2451 C2453 1.400 . S
C2452 N2450 1.263 . S
C2452 N2451 1.358 . S
C2452 H2458 0.930 . S
C2453 N2451 1.400 . S
C2453 C2454 1.351 . S
C2453 H2470 0.930 . S
C2454 N2450 1.389 . S
C2454 C2453 1.351 . S
C2454 H2459 0.930 . S
O2455 Cu2449 1.974 . S
O2455 C2465 1.282 . S
C2456 O2457 1.261 . S
C2456 O2469 1.251 . S
O2457 C2456 1.261 . S
H2458 C2452 0.930 . S
H2459 C2454 0.930 . S
N2460 Cu2449 1.985 . S
N2460 C2462 1.335 . S
N2460 C2463 1.390 . S
N2461 C2462 1.345 . S
N2461 C2464 1.336 . S
C2462 N2460 1.335 . S
C2462 N2461 1.345 . S
C2462 H2467 0.930 . S
C2463 N2460 1.390 . S
C2463 C2464 1.346 . S
C2463 H2468 0.930 . S
C2464 N2461 1.336 . S
C2464 C2463 1.346 . S
C2464 H2471 0.929 . S
C2465 O2455 1.282 . S
C2465 O2466 1.216 . S
O2466 C2465 1.216 . S
H2467 C2462 0.930 . S
H2468 C2463 0.930 . S
O2469 Cu2449 1.959 . S
O2469 C2456 1.251 . S
H2470 C2453 0.930 . S
H2471 C2464 0.929 . S
H2472 C2478 0.930 . S
H2473 C2481 0.930 . S
H2474 C2482 0.930 . S
H2475 C2483 0.930 . S
H2476 C2486 0.930 . S
H2477 C2487 0.930 . S
C2478 H2472 0.930 . S
C2478 C2479 1.355 . S
C2478 C2480 1.415 . S
C2479 C2478 1.355 . S
C2479 C2481 1.419 . S
C2480 C2478 1.415 . S
C2480 C2485 1.425 . S
C2480 C2487 1.409 . S
C2481 H2473 0.930 . S
C2481 C2479 1.419 . S
C2481 C2482 1.362 . S
C2482 H2474 0.930 . S
C2482 C2481 1.362 . S
C2482 C2485 1.409 . S
C2483 H2475 0.930 . S
C2483 C2484 1.355 . S
C2483 C2485 1.415 . S
C2484 C2483 1.355 . S
C2484 C2486 1.419 . S
C2485 C2480 1.425 . S
C2485 C2482 1.409 . S
C2485 C2483 1.415 . S
C2486 H2476 0.930 . S
C2486 C2484 1.419 . S
C2486 C2487 1.362 . S
C2487 H2477 0.930 . S
C2487 C2480 1.409 . S
C2487 C2486 1.362 . S
H2488 C2494 0.930 . S
H2489 C2497 0.930 . S
H2490 C2498 0.930 . S
H2491 C2499 0.930 . S
H2492 C2502 0.930 . S
H2493 C2503 0.930 . S
C2494 H2488 0.930 . S
C2494 C2495 1.355 . S
C2494 C2496 1.415 . S
C2495 C2494 1.355 . S
C2495 C2497 1.419 . S
C2496 C2494 1.415 . S
C2496 C2501 1.425 . S
C2496 C2503 1.409 . S
C2497 H2489 0.930 . S
C2497 C2495 1.419 . S
C2497 C2498 1.362 . S
C2498 H2490 0.930 . S
C2498 C2497 1.362 . S
C2498 C2501 1.409 . S
C2499 H2491 0.930 . S
C2499 C2500 1.355 . S
C2499 C2501 1.415 . S
C2500 C2499 1.355 . S
C2500 C2502 1.419 . S
C2501 C2496 1.425 . S
C2501 C2498 1.409 . S
C2501 C2499 1.415 . S
C2502 H2492 0.930 . S
C2502 C2500 1.419 . S
C2502 C2503 1.362 . S
C2503 H2493 0.930 . S
C2503 C2496 1.409 . S
C2503 C2502 1.362 . S
H2504 C2510 0.930 . S
H2505 C2513 0.930 . S
H2506 C2514 0.930 . S
H2507 C2515 0.930 . S
H2508 C2518 0.930 . S
H2509 C2519 0.930 . S
C2510 H2504 0.930 . S
C2510 C2511 1.355 . S
C2510 C2512 1.415 . S
C2511 C2510 1.355 . S
C2511 C2513 1.419 . S
C2512 C2510 1.415 . S
C2512 C2517 1.425 . S
C2512 C2519 1.409 . S
C2513 H2505 0.930 . S
C2513 C2511 1.419 . S
C2513 C2514 1.362 . S
C2514 H2506 0.930 . S
C2514 C2513 1.362 . S
C2514 C2517 1.409 . S
C2515 H2507 0.930 . S
C2515 C2516 1.355 . S
C2515 C2517 1.415 . S
C2516 C2515 1.355 . S
C2516 C2518 1.419 . S
C2517 C2512 1.425 . S
C2517 C2514 1.409 . S
C2517 C2515 1.415 . S
C2518 H2508 0.930 . S
C2518 C2516 1.419 . S
C2518 C2519 1.362 . S
C2519 H2509 0.930 . S
C2519 C2512 1.409 . S
C2519 C2518 1.362 . S
H2520 C2526 0.930 . S
H2521 C2529 0.930 . S
H2522 C2530 0.930 . S
H2523 C2531 0.930 . S
H2524 C2534 0.930 . S
H2525 C2535 0.930 . S
C2526 H2520 0.930 . S
C2526 C2527 1.355 . S
C2526 C2528 1.415 . S
C2527 C2526 1.355 . S
C2527 C2529 1.419 . S
C2528 C2526 1.415 . S
C2528 C2533 1.425 . S
C2528 C2535 1.409 . S
C2529 H2521 0.930 . S
C2529 C2527 1.419 . S
C2529 C2530 1.362 . S
C2530 H2522 0.930 . S
C2530 C2529 1.362 . S
C2530 C2533 1.409 . S
C2531 H2523 0.930 . S
C2531 C2532 1.355 . S
C2531 C2533 1.415 . S
C2532 C2531 1.355 . S
C2532 C2534 1.419 . S
C2533 C2528 1.425 . S
C2533 C2530 1.409 . S
C2533 C2531 1.415 . S
C2534 H2524 0.930 . S
C2534 C2532 1.419 . S
C2534 C2535 1.362 . S
C2535 H2525 0.930 . S
C2535 C2528 1.409 . S
C2535 C2534 1.362 . S
H2536 C2542 0.930 . S
H2537 C2545 0.930 . S
H2538 C2546 0.930 . S
H2539 C2547 0.930 . S
H2540 C2550 0.930 . S
H2541 C2551 0.930 . S
C2542 H2536 0.930 . S
C2542 C2543 1.355 . S
C2542 C2544 1.415 . S
C2543 C2542 1.355 . S
C2543 C2545 1.419 . S
C2544 C2542 1.415 . S
C2544 C2549 1.425 . S
C2544 C2551 1.409 . S
C2545 H2537 0.930 . S
C2545 C2543 1.419 . S
C2545 C2546 1.362 . S
C2546 H2538 0.930 . S
C2546 C2545 1.362 . S
C2546 C2549 1.409 . S
C2547 H2539 0.930 . S
C2547 C2548 1.355 . S
C2547 C2549 1.415 . S
C2548 C2547 1.355 . S
C2548 C2550 1.419 . S
C2549 C2544 1.425 . S
C2549 C2546 1.409 . S
C2549 C2547 1.415 . S
C2550 H2540 0.930 . S
C2550 C2548 1.419 . S
C2550 C2551 1.362 . S
C2551 H2541 0.930 . S
C2551 C2544 1.409 . S
C2551 C2550 1.362 . S
H2552 C2558 0.930 . S
H2553 C2561 0.930 . S
H2554 C2562 0.930 . S
H2555 C2563 0.930 . S
H2556 C2566 0.930 . S
H2557 C2567 0.930 . S
C2558 H2552 0.930 . S
C2558 C2559 1.355 . S
C2558 C2560 1.415 . S
C2559 C2558 1.355 . S
C2559 C2561 1.419 . S
C2560 C2558 1.415 . S
C2560 C2565 1.425 . S
C2560 C2567 1.409 . S
C2561 H2553 0.930 . S
C2561 C2559 1.419 . S
C2561 C2562 1.362 . S
C2562 H2554 0.930 . S
C2562 C2561 1.362 . S
C2562 C2565 1.409 . S
C2563 H2555 0.930 . S
C2563 C2564 1.355 . S
C2563 C2565 1.415 . S
C2564 C2563 1.355 . S
C2564 C2566 1.419 . S
C2565 C2560 1.425 . S
C2565 C2562 1.409 . S
C2565 C2563 1.415 . S
C2566 H2556 0.930 . S
C2566 C2564 1.419 . S
C2566 C2567 1.362 . S
C2567 H2557 0.930 . S
C2567 C2560 1.409 . S
C2567 C2566 1.362 . S
H2568 C2574 0.930 . S
H2569 C2577 0.930 . S
H2570 C2578 0.930 . S
H2571 C2579 0.930 . S
H2572 C2582 0.930 . S
H2573 C2583 0.930 . S
C2574 H2568 0.930 . S
C2574 C2575 1.355 . S
C2574 C2576 1.415 . S
C2575 C2574 1.355 . S
C2575 C2577 1.419 . S
C2576 C2574 1.415 . S
C2576 C2581 1.425 . S
C2576 C2583 1.409 . S
C2577 H2569 0.930 . S
C2577 C2575 1.419 . S
C2577 C2578 1.362 . S
C2578 H2570 0.930 . S
C2578 C2577 1.362 . S
C2578 C2581 1.409 . S
C2579 H2571 0.930 . S
C2579 C2580 1.355 . S
C2579 C2581 1.415 . S
C2580 C2579 1.355 . S
C2580 C2582 1.419 . S
C2581 C2576 1.425 . S
C2581 C2578 1.409 . S
C2581 C2579 1.415 . S
C2582 H2572 0.930 . S
C2582 C2580 1.419 . S
C2582 C2583 1.362 . S
C2583 H2573 0.930 . S
C2583 C2576 1.409 . S
C2583 C2582 1.362 . S
H2584 C2590 0.930 . S
H2585 C2593 0.930 . S
H2586 C2594 0.930 . S
H2587 C2595 0.930 . S
H2588 C2598 0.930 . S
H2589 C2599 0.930 . S
C2590 H2584 0.930 . S
C2590 C2591 1.355 . S
C2590 C2592 1.415 . S
C2591 C2590 1.355 . S
C2591 C2593 1.419 . S
C2592 C2590 1.415 . S
C2592 C2597 1.425 . S
C2592 C2599 1.409 . S
C2593 H2585 0.930 . S
C2593 C2591 1.419 . S
C2593 C2594 1.362 . S
C2594 H2586 0.930 . S
C2594 C2593 1.362 . S
C2594 C2597 1.409 . S
C2595 H2587 0.930 . S
C2595 C2596 1.355 . S
C2595 C2597 1.415 . S
C2596 C2595 1.355 . S
C2596 C2598 1.419 . S
C2597 C2592 1.425 . S
C2597 C2594 1.409 . S
C2597 C2595 1.415 . S
C2598 H2588 0.930 . S
C2598 C2596 1.419 . S
C2598 C2599 1.362 . S
C2599 H2589 0.930 . S
C2599 C2592 1.409 . S
C2599 C2598 1.362 . S
H2600 C2606 0.930 . S
H2601 C2609 0.930 . S
H2602 C2610 0.930 . S
H2603 C2611 0.930 . S
H2604 C2614 0.930 . S
H2605 C2615 0.930 . S
C2606 H2600 0.930 . S
C2606 C2607 1.355 . S
C2606 C2608 1.415 . S
C2607 C2606 1.355 . S
C2607 C2609 1.419 . S
C2608 C2606 1.415 . S
C2608 C2613 1.425 . S
C2608 C2615 1.409 . S
C2609 H2601 0.930 . S
C2609 C2607 1.419 . S
C2609 C2610 1.362 . S
C2610 H2602 0.930 . S
C2610 C2609 1.362 . S
C2610 C2613 1.409 . S
C2611 H2603 0.930 . S
C2611 C2612 1.355 . S
C2611 C2613 1.415 . S
C2612 C2611 1.355 . S
C2612 C2614 1.419 . S
C2613 C2608 1.425 . S
C2613 C2610 1.409 . S
C2613 C2611 1.415 . S
C2614 H2604 0.930 . S
C2614 C2612 1.419 . S
C2614 C2615 1.362 . S
C2615 H2605 0.930 . S
C2615 C2608 1.409 . S
C2615 C2614 1.362 . S
H2616 C2622 0.930 . S
H2617 C2625 0.930 . S
H2618 C2626 0.930 . S
H2619 C2627 0.930 . S
H2620 C2630 0.930 . S
H2621 C2631 0.930 . S
C2622 H2616 0.930 . S
C2622 C2623 1.355 . S
C2622 C2624 1.415 . S
C2623 C2622 1.355 . S
C2623 C2625 1.419 . S
C2624 C2622 1.415 . S
C2624 C2629 1.425 . S
C2624 C2631 1.409 . S
C2625 H2617 0.930 . S
C2625 C2623 1.419 . S
C2625 C2626 1.362 . S
C2626 H2618 0.930 . S
C2626 C2625 1.362 . S
C2626 C2629 1.409 . S
C2627 H2619 0.930 . S
C2627 C2628 1.355 . S
C2627 C2629 1.415 . S
C2628 C2627 1.355 . S
C2628 C2630 1.419 . S
C2629 C2624 1.425 . S
C2629 C2626 1.409 . S
C2629 C2627 1.415 . S
C2630 H2620 0.930 . S
C2630 C2628 1.419 . S
C2630 C2631 1.362 . S
C2631 H2621 0.930 . S
C2631 C2624 1.409 . S
C2631 C2630 1.362 . S
H2632 C2638 0.930 . S
H2633 C2641 0.930 . S
H2634 C2642 0.930 . S
H2635 C2643 0.930 . S
H2636 C2646 0.930 . S
H2637 C2647 0.930 . S
C2638 H2632 0.930 . S
C2638 C2639 1.355 . S
C2638 C2640 1.415 . S
C2639 C2638 1.355 . S
C2639 C2641 1.419 . S
C2640 C2638 1.415 . S
C2640 C2645 1.425 . S
C2640 C2647 1.409 . S
C2641 H2633 0.930 . S
C2641 C2639 1.419 . S
C2641 C2642 1.362 . S
C2642 H2634 0.930 . S
C2642 C2641 1.362 . S
C2642 C2645 1.409 . S
C2643 H2635 0.930 . S
C2643 C2644 1.355 . S
C2643 C2645 1.415 . S
C2644 C2643 1.355 . S
C2644 C2646 1.419 . S
C2645 C2640 1.425 . S
C2645 C2642 1.409 . S
C2645 C2643 1.415 . S
C2646 H2636 0.930 . S
C2646 C2644 1.419 . S
C2646 C2647 1.362 . S
C2647 H2637 0.930 . S
C2647 C2640 1.409 . S
C2647 C2646 1.362 . S
H2648 C2654 0.930 . S
H2649 C2657 0.930 . S
H2650 C2658 0.930 . S
H2651 C2659 0.930 . S
H2652 C2662 0.930 . S
H2653 C2663 0.930 . S
C2654 H2648 0.930 . S
C2654 C2655 1.355 . S
C2654 C2656 1.415 . S
C2655 C2654 1.355 . S
C2655 C2657 1.419 . S
C2656 C2654 1.415 . S
C2656 C2661 1.425 . S
C2656 C2663 1.409 . S
C2657 H2649 0.930 . S
C2657 C2655 1.419 . S
C2657 C2658 1.362 . S
C2658 H2650 0.930 . S
C2658 C2657 1.362 . S
C2658 C2661 1.409 . S
C2659 H2651 0.930 . S
C2659 C2660 1.355 . S
C2659 C2661 1.415 . S
C2660 C2659 1.355 . S
C2660 C2662 1.419 . S
C2661 C2656 1.425 . S
C2661 C2658 1.409 . S
C2661 C2659 1.415 . S
C2662 H2652 0.930 . S
C2662 C2660 1.419 . S
C2662 C2663 1.362 . S
C2663 H2653 0.930 . S
C2663 C2656 1.409 . S
C2663 C2662 1.362 . S
H2664 C2670 0.930 . S
H2665 C2673 0.930 . S
H2666 C2674 0.930 . S
H2667 C2675 0.930 . S
H2668 C2678 0.930 . S
H2669 C2679 0.930 . S
C2670 H2664 0.930 . S
C2670 C2671 1.355 . S
C2670 C2672 1.415 . S
C2671 C2670 1.355 . S
C2671 C2673 1.419 . S
C2672 C2670 1.415 . S
C2672 C2677 1.425 . S
C2672 C2679 1.409 . S
C2673 H2665 0.930 . S
C2673 C2671 1.419 . S
C2673 C2674 1.362 . S
C2674 H2666 0.930 . S
C2674 C2673 1.362 . S
C2674 C2677 1.409 . S
C2675 H2667 0.930 . S
C2675 C2676 1.355 . S
C2675 C2677 1.415 . S
C2676 C2675 1.355 . S
C2676 C2678 1.419 . S
C2677 C2672 1.425 . S
C2677 C2674 1.409 . S
C2677 C2675 1.415 . S
C2678 H2668 0.930 . S
C2678 C2676 1.419 . S
C2678 C2679 1.362 . S
C2679 H2669 0.930 . S
C2679 C2672 1.409 . S
C2679 C2678 1.362 . S
H2680 C2686 0.930 . S
H2681 C2689 0.930 . S
H2682 C2690 0.930 . S
H2683 C2691 0.930 . S
H2684 C2694 0.930 . S
H2685 C2695 0.930 . S
C2686 H2680 0.930 . S
C2686 C2687 1.355 . S
C2686 C2688 1.415 . S
C2687 C2686 1.355 . S
C2687 C2689 1.419 . S
C2688 C2686 1.415 . S
C2688 C2693 1.425 . S
C2688 C2695 1.409 . S
C2689 H2681 0.930 . S
C2689 C2687 1.419 . S
C2689 C2690 1.362 . S
C2690 H2682 0.930 . S
C2690 C2689 1.362 . S
C2690 C2693 1.409 . S
C2691 H2683 0.930 . S
C2691 C2692 1.355 . S
C2691 C2693 1.415 . S
C2692 C2691 1.355 . S
C2692 C2694 1.419 . S
C2693 C2688 1.425 . S
C2693 C2690 1.409 . S
C2693 C2691 1.415 . S
C2694 H2684 0.930 . S
C2694 C2692 1.419 . S
C2694 C2695 1.362 . S
C2695 H2685 0.930 . S
C2695 C2688 1.409 . S
C2695 C2694 1.362 . S
H2696 C2702 0.930 . S
H2697 C2705 0.930 . S
H2698 C2706 0.930 . S
H2699 C2707 0.930 . S
H2700 C2710 0.930 . S
H2701 C2711 0.930 . S
C2702 H2696 0.930 . S
C2702 C2703 1.355 . S
C2702 C2704 1.415 . S
C2703 C2702 1.355 . S
C2703 C2705 1.419 . S
C2704 C2702 1.415 . S
C2704 C2709 1.425 . S
C2704 C2711 1.409 . S
C2705 H2697 0.930 . S
C2705 C2703 1.419 . S
C2705 C2706 1.362 . S
C2706 H2698 0.930 . S
C2706 C2705 1.362 . S
C2706 C2709 1.409 . S
C2707 H2699 0.930 . S
C2707 C2708 1.355 . S
C2707 C2709 1.415 . S
C2708 C2707 1.355 . S
C2708 C2710 1.419 . S
C2709 C2704 1.425 . S
C2709 C2706 1.409 . S
C2709 C2707 1.415 . S
C2710 H2700 0.930 . S
C2710 C2708 1.419 . S
C2710 C2711 1.362 . S
C2711 H2701 0.930 . S
C2711 C2704 1.409 . S
C2711 C2710 1.362 . S
H2712 C2718 0.930 . S
H2713 C2721 0.930 . S
H2714 C2722 0.930 . S
H2715 C2723 0.930 . S
H2716 C2726 0.930 . S
H2717 C2727 0.930 . S
C2718 H2712 0.930 . S
C2718 C2719 1.355 . S
C2718 C2720 1.415 . S
C2719 C2718 1.355 . S
C2719 C2721 1.419 . S
C2720 C2718 1.415 . S
C2720 C2725 1.425 . S
C2720 C2727 1.409 . S
C2721 H2713 0.930 . S
C2721 C2719 1.419 . S
C2721 C2722 1.362 . S
C2722 H2714 0.930 . S
C2722 C2721 1.362 . S
C2722 C2725 1.409 . S
C2723 H2715 0.930 . S
C2723 C2724 1.355 . S
C2723 C2725 1.415 . S
C2724 C2723 1.355 . S
C2724 C2726 1.419 . S
C2725 C2720 1.425 . S
C2725 C2722 1.409 . S
C2725 C2723 1.415 . S
C2726 H2716 0.930 . S
C2726 C2724 1.419 . S
C2726 C2727 1.362 . S
C2727 H2717 0.930 . S
C2727 C2720 1.409 . S
C2727 C2726 1.362 . S
H2728 C2734 0.930 . S
H2729 C2737 0.930 . S
H2730 C2738 0.930 . S
H2731 C2739 0.930 . S
H2732 C2742 0.930 . S
H2733 C2743 0.930 . S
C2734 H2728 0.930 . S
C2734 C2735 1.355 . S
C2734 C2736 1.415 . S
C2735 C2734 1.355 . S
C2735 C2737 1.419 . S
C2736 C2734 1.415 . S
C2736 C2741 1.425 . S
C2736 C2743 1.409 . S
C2737 H2729 0.930 . S
C2737 C2735 1.419 . S
C2737 C2738 1.362 . S
C2738 H2730 0.930 . S
C2738 C2737 1.362 . S
C2738 C2741 1.409 . S
C2739 H2731 0.930 . S
C2739 C2740 1.355 . S
C2739 C2741 1.415 . S
C2740 C2739 1.355 . S
C2740 C2742 1.419 . S
C2741 C2736 1.425 . S
C2741 C2738 1.409 . S
C2741 C2739 1.415 . S
C2742 H2732 0.930 . S
C2742 C2740 1.419 . S
C2742 C2743 1.362 . S
C2743 H2733 0.930 . S
C2743 C2736 1.409 . S
C2743 C2742 1.362 . S
H2744 C2750 0.930 . S
H2745 C2753 0.930 . S
H2746 C2754 0.930 . S
H2747 C2755 0.930 . S
H2748 C2758 0.930 . S
H2749 C2759 0.930 . S
C2750 H2744 0.930 . S
C2750 C2751 1.355 . S
C2750 C2752 1.415 . S
C2751 C2750 1.355 . S
C2751 C2753 1.419 . S
C2752 C2750 1.415 . S
C2752 C2757 1.425 . S
C2752 C2759 1.409 . S
C2753 H2745 0.930 . S
C2753 C2751 1.419 . S
C2753 C2754 1.362 . S
C2754 H2746 0.930 . S
C2754 C2753 1.362 . S
C2754 C2757 1.409 . S
C2755 H2747 0.930 . S
C2755 C2756 1.355 . S
C2755 C2757 1.415 . S
C2756 C2755 1.355 . S
C2756 C2758 1.419 . S
C2757 C2752 1.425 . S
C2757 C2754 1.409 . S
C2757 C2755 1.415 . S
C2758 H2748 0.930 . S
C2758 C2756 1.419 . S
C2758 C2759 1.362 . S
C2759 H2749 0.930 . S
C2759 C2752 1.409 . S
C2759 C2758 1.362 . S
H2760 C2766 0.930 . S
H2761 C2769 0.930 . S
H2762 C2770 0.930 . S
H2763 C2771 0.930 . S
H2764 C2774 0.930 . S
H2765 C2775 0.930 . S
C2766 H2760 0.930 . S
C2766 C2767 1.355 . S
C2766 C2768 1.415 . S
C2767 C2766 1.355 . S
C2767 C2769 1.419 . S
C2768 C2766 1.415 . S
C2768 C2773 1.425 . S
C2768 C2775 1.409 . S
C2769 H2761 0.930 . S
C2769 C2767 1.419 . S
C2769 C2770 1.362 . S
C2770 H2762 0.930 . S
C2770 C2769 1.362 . S
C2770 C2773 1.409 . S
C2771 H2763 0.930 . S
C2771 C2772 1.355 . S
C2771 C2773 1.415 . S
C2772 C2771 1.355 . S
C2772 C2774 1.419 . S
C2773 C2768 1.425 . S
C2773 C2770 1.409 . S
C2773 C2771 1.415 . S
C2774 H2764 0.930 . S
C2774 C2772 1.419 . S
C2774 C2775 1.362 . S
C2775 H2765 0.930 . S
C2775 C2768 1.409 . S
C2775 C2774 1.362 . S
H2776 C2782 0.930 . S
H2777 C2785 0.930 . S
H2778 C2786 0.930 . S
H2779 C2787 0.930 . S
H2780 C2790 0.930 . S
H2781 C2791 0.930 . S
C2782 H2776 0.930 . S
C2782 C2783 1.355 . S
C2782 C2784 1.415 . S
C2783 C2782 1.355 . S
C2783 C2785 1.419 . S
C2784 C2782 1.415 . S
C2784 C2789 1.425 . S
C2784 C2791 1.409 . S
C2785 H2777 0.930 . S
C2785 C2783 1.419 . S
C2785 C2786 1.362 . S
C2786 H2778 0.930 . S
C2786 C2785 1.362 . S
C2786 C2789 1.409 . S
C2787 H2779 0.930 . S
C2787 C2788 1.355 . S
C2787 C2789 1.415 . S
C2788 C2787 1.355 . S
C2788 C2790 1.419 . S
C2789 C2784 1.425 . S
C2789 C2786 1.409 . S
C2789 C2787 1.415 . S
C2790 H2780 0.930 . S
C2790 C2788 1.419 . S
C2790 C2791 1.362 . S
C2791 H2781 0.930 . S
C2791 C2784 1.409 . S
C2791 C2790 1.362 . S
H2792 C2798 0.930 . S
H2793 C2801 0.930 . S
H2794 C2802 0.930 . S
H2795 C2803 0.930 . S
H2796 C2806 0.930 . S
H2797 C2807 0.930 . S
C2798 H2792 0.930 . S
C2798 C2799 1.355 . S
C2798 C2800 1.415 . S
C2799 C2798 1.355 . S
C2799 C2801 1.419 . S
C2800 C2798 1.415 . S
C2800 C2805 1.425 . S
C2800 C2807 1.409 . S
C2801 H2793 0.930 . S
C2801 C2799 1.419 . S
C2801 C2802 1.362 . S
C2802 H2794 0.930 . S
C2802 C2801 1.362 . S
C2802 C2805 1.409 . S
C2803 H2795 0.930 . S
C2803 C2804 1.355 . S
C2803 C2805 1.415 . S
C2804 C2803 1.355 . S
C2804 C2806 1.419 . S
C2805 C2800 1.425 . S
C2805 C2802 1.409 . S
C2805 C2803 1.415 . S
C2806 H2796 0.930 . S
C2806 C2804 1.419 . S
C2806 C2807 1.362 . S
C2807 H2797 0.930 . S
C2807 C2800 1.409 . S
C2807 C2806 1.362 . S
H2808 C2814 0.930 . S
H2809 C2817 0.930 . S
H2810 C2818 0.930 . S
H2811 C2819 0.930 . S
H2812 C2822 0.930 . S
H2813 C2823 0.930 . S
C2814 H2808 0.930 . S
C2814 C2815 1.355 . S
C2814 C2816 1.415 . S
C2815 C2814 1.355 . S
C2815 C2817 1.419 . S
C2816 C2814 1.415 . S
C2816 C2821 1.425 . S
C2816 C2823 1.409 . S
C2817 H2809 0.930 . S
C2817 C2815 1.419 . S
C2817 C2818 1.362 . S
C2818 H2810 0.930 . S
C2818 C2817 1.362 . S
C2818 C2821 1.409 . S
C2819 H2811 0.930 . S
C2819 C2820 1.355 . S
C2819 C2821 1.415 . S
C2820 C2819 1.355 . S
C2820 C2822 1.419 . S
C2821 C2816 1.425 . S
C2821 C2818 1.409 . S
C2821 C2819 1.415 . S
C2822 H2812 0.930 . S
C2822 C2820 1.419 . S
C2822 C2823 1.362 . S
C2823 H2813 0.930 . S
C2823 C2816 1.409 . S
C2823 C2822 1.362 . S
H2824 C2830 0.930 . S
H2825 C2833 0.930 . S
H2826 C2834 0.930 . S
H2827 C2835 0.930 . S
H2828 C2838 0.930 . S
H2829 C2839 0.930 . S
C2830 H2824 0.930 . S
C2830 C2831 1.355 . S
C2830 C2832 1.415 . S
C2831 C2830 1.355 . S
C2831 C2833 1.419 . S
C2832 C2830 1.415 . S
C2832 C2837 1.425 . S
C2832 C2839 1.409 . S
C2833 H2825 0.930 . S
C2833 C2831 1.419 . S
C2833 C2834 1.362 . S
C2834 H2826 0.930 . S
C2834 C2833 1.362 . S
C2834 C2837 1.409 . S
C2835 H2827 0.930 . S
C2835 C2836 1.355 . S
C2835 C2837 1.415 . S
C2836 C2835 1.355 . S
C2836 C2838 1.419 . S
C2837 C2832 1.425 . S
C2837 C2834 1.409 . S
C2837 C2835 1.415 . S
C2838 H2828 0.930 . S
C2838 C2836 1.419 . S
C2838 C2839 1.362 . S
C2839 H2829 0.930 . S
C2839 C2832 1.409 . S
C2839 C2838 1.362 . S
H2840 C2846 0.930 . S
H2841 C2849 0.930 . S
H2842 C2850 0.930 . S
H2843 C2851 0.930 . S
H2844 C2854 0.930 . S
H2845 C2855 0.930 . S
C2846 H2840 0.930 . S
C2846 C2847 1.355 . S
C2846 C2848 1.415 . S
C2847 C2846 1.355 . S
C2847 C2849 1.419 . S
C2848 C2846 1.415 . S
C2848 C2853 1.425 . S
C2848 C2855 1.409 . S
C2849 H2841 0.930 . S
C2849 C2847 1.419 . S
C2849 C2850 1.362 . S
C2850 H2842 0.930 . S
C2850 C2849 1.362 . S
C2850 C2853 1.409 . S
C2851 H2843 0.930 . S
C2851 C2852 1.355 . S
C2851 C2853 1.415 . S
C2852 C2851 1.355 . S
C2852 C2854 1.419 . S
C2853 C2848 1.425 . S
C2853 C2850 1.409 . S
C2853 C2851 1.415 . S
C2854 H2844 0.930 . S
C2854 C2852 1.419 . S
C2854 C2855 1.362 . S
C2855 H2845 0.930 . S
C2855 C2848 1.409 . S
C2855 C2854 1.362 . S
H2856 C2862 0.930 . S
H2857 C2865 0.930 . S
H2858 C2866 0.930 . S
H2859 C2867 0.930 . S
H2860 C2870 0.930 . S
H2861 C2871 0.930 . S
C2862 H2856 0.930 . S
C2862 C2863 1.355 . S
C2862 C2864 1.415 . S
C2863 C2862 1.355 . S
C2863 C2865 1.419 . S
C2864 C2862 1.415 . S
C2864 C2869 1.425 . S
C2864 C2871 1.409 . S
C2865 H2857 0.930 . S
C2865 C2863 1.419 . S
C2865 C2866 1.362 . S
C2866 H2858 0.930 . S
C2866 C2865 1.362 . S
C2866 C2869 1.409 . S
C2867 H2859 0.930 . S
C2867 C2868 1.355 . S
C2867 C2869 1.415 . S
C2868 C2867 1.355 . S
C2868 C2870 1.419 . S
C2869 C2864 1.425 . S
C2869 C2866 1.409 . S
C2869 C2867 1.415 . S
C2870 H2860 0.930 . S
C2870 C2868 1.419 . S
C2870 C2871 1.362 . S
C2871 H2861 0.930 . S
C2871 C2864 1.409 . S
C2871 C2870 1.362 . S
H2872 C2878 0.930 . S
H2873 C2881 0.930 . S
H2874 C2882 0.930 . S
H2875 C2883 0.930 . S
H2876 C2886 0.930 . S
H2877 C2887 0.930 . S
C2878 H2872 0.930 . S
C2878 C2879 1.355 . S
C2878 C2880 1.415 . S
C2879 C2878 1.355 . S
C2879 C2881 1.419 . S
C2880 C2878 1.415 . S
C2880 C2885 1.425 . S
C2880 C2887 1.409 . S
C2881 H2873 0.930 . S
C2881 C2879 1.419 . S
C2881 C2882 1.362 . S
C2882 H2874 0.930 . S
C2882 C2881 1.362 . S
C2882 C2885 1.409 . S
C2883 H2875 0.930 . S
C2883 C2884 1.355 . S
C2883 C2885 1.415 . S
C2884 C2883 1.355 . S
C2884 C2886 1.419 . S
C2885 C2880 1.425 . S
C2885 C2882 1.409 . S
C2885 C2883 1.415 . S
C2886 H2876 0.930 . S
C2886 C2884 1.419 . S
C2886 C2887 1.362 . S
C2887 H2877 0.930 . S
C2887 C2880 1.409 . S
C2887 C2886 1.362 . S
H2888 C2894 0.930 . S
H2889 C2897 0.930 . S
H2890 C2898 0.930 . S
H2891 C2899 0.930 . S
H2892 C2902 0.930 . S
H2893 C2903 0.930 . S
C2894 H2888 0.930 . S
C2894 C2895 1.355 . S
C2894 C2896 1.415 . S
C2895 C2894 1.355 . S
C2895 C2897 1.419 . S
C2896 C2894 1.415 . S
C2896 C2901 1.425 . S
C2896 C2903 1.409 . S
C2897 H2889 0.930 . S
C2897 C2895 1.419 . S
C2897 C2898 1.362 . S
C2898 H2890 0.930 . S
C2898 C2897 1.362 . S
C2898 C2901 1.409 . S
C2899 H2891 0.930 . S
C2899 C2900 1.355 . S
C2899 C2901 1.415 . S
C2900 C2899 1.355 . S
C2900 C2902 1.419 . S
C2901 C2896 1.425 . S
C2901 C2898 1.409 . S
C2901 C2899 1.415 . S
C2902 H2892 0.930 . S
C2902 C2900 1.419 . S
C2902 C2903 1.362 . S
C2903 H2893 0.930 . S
C2903 C2896 1.409 . S
C2903 C2902 1.362 . S
H2904 C2910 0.930 . S
H2905 C2913 0.930 . S
H2906 C2914 0.930 . S
H2907 C2915 0.930 . S
H2908 C2918 0.930 . S
H2909 C2919 0.930 . S
C2910 H2904 0.930 . S
C2910 C2911 1.355 . S
C2910 C2912 1.415 . S
C2911 C2910 1.355 . S
C2911 C2913 1.419 . S
C2912 C2910 1.415 . S
C2912 C2917 1.425 . S
C2912 C2919 1.409 . S
C2913 H2905 0.930 . S
C2913 C2911 1.419 . S
C2913 C2914 1.362 . S
C2914 H2906 0.930 . S
C2914 C2913 1.362 . S
C2914 C2917 1.409 . S
C2915 H2907 0.930 . S
C2915 C2916 1.355 . S
C2915 C2917 1.415 . S
C2916 C2915 1.355 . S
C2916 C2918 1.419 . S
C2917 C2912 1.425 . S
C2917 C2914 1.409 . S
C2917 C2915 1.415 . S
C2918 H2908 0.930 . S
C2918 C2916 1.419 . S
C2918 C2919 1.362 . S
C2919 H2909 0.930 . S
C2919 C2912 1.409 . S
C2919 C2918 1.362 . S
H2920 C2926 0.930 . S
H2921 C2929 0.930 . S
H2922 C2930 0.930 . S
H2923 C2931 0.930 . S
H2924 C2934 0.930 . S
H2925 C2935 0.930 . S
C2926 H2920 0.930 . S
C2926 C2927 1.355 . S
C2926 C2928 1.415 . S
C2927 C2926 1.355 . S
C2927 C2929 1.419 . S
C2928 C2926 1.415 . S
C2928 C2933 1.425 . S
C2928 C2935 1.409 . S
C2929 H2921 0.930 . S
C2929 C2927 1.419 . S
C2929 C2930 1.362 . S
C2930 H2922 0.930 . S
C2930 C2929 1.362 . S
C2930 C2933 1.409 . S
C2931 H2923 0.930 . S
C2931 C2932 1.355 . S
C2931 C2933 1.415 . S
C2932 C2931 1.355 . S
C2932 C2934 1.419 . S
C2933 C2928 1.425 . S
C2933 C2930 1.409 . S
C2933 C2931 1.415 . S
C2934 H2924 0.930 . S
C2934 C2932 1.419 . S
C2934 C2935 1.362 . S
C2935 H2925 0.930 . S
C2935 C2928 1.409 . S
C2935 C2934 1.362 . S
H2936 C2942 0.930 . S
H2937 C2945 0.930 . S
H2938 C2946 0.930 . S
H2939 C2947 0.930 . S
H2940 C2950 0.930 . S
H2941 C2951 0.930 . S
C2942 H2936 0.930 . S
C2942 C2943 1.355 . S
C2942 C2944 1.415 . S
C2943 C2942 1.355 . S
C2943 C2945 1.419 . S
C2944 C2942 1.415 . S
C2944 C2949 1.425 . S
C2944 C2951 1.409 . S
C2945 H2937 0.930 . S
C2945 C2943 1.419 . S
C2945 C2946 1.362 . S
C2946 H2938 0.930 . S
C2946 C2945 1.362 . S
C2946 C2949 1.409 . S
C2947 H2939 0.930 . S
C2947 C2948 1.355 . S
C2947 C2949 1.415 . S
C2948 C2947 1.355 . S
C2948 C2950 1.419 . S
C2949 C2944 1.425 . S
C2949 C2946 1.409 . S
C2949 C2947 1.415 . S
C2950 H2940 0.930 . S
C2950 C2948 1.419 . S
C2950 C2951 1.362 . S
C2951 H2941 0.930 . S
C2951 C2944 1.409 . S
C2951 C2950 1.362 . S
H2952 C2958 0.930 . S
H2953 C2961 0.930 . S
H2954 C2962 0.930 . S
H2955 C2963 0.930 . S
H2956 C2966 0.930 . S
H2957 C2967 0.930 . S
C2958 H2952 0.930 . S
C2958 C2959 1.355 . S
C2958 C2960 1.415 . S
C2959 C2958 1.355 . S
C2959 C2961 1.419 . S
C2960 C2958 1.415 . S
C2960 C2965 1.425 . S
C2960 C2967 1.409 . S
C2961 H2953 0.930 . S
C2961 C2959 1.419 . S
C2961 C2962 1.362 . S
C2962 H2954 0.930 . S
C2962 C2961 1.362 . S
C2962 C2965 1.409 . S
C2963 H2955 0.930 . S
C2963 C2964 1.355 . S
C2963 C2965 1.415 . S
C2964 C2963 1.355 . S
C2964 C2966 1.419 . S
C2965 C2960 1.425 . S
C2965 C2962 1.409 . S
C2965 C2963 1.415 . S
C2966 H2956 0.930 . S
C2966 C2964 1.419 . S
C2966 C2967 1.362 . S
C2967 H2957 0.930 . S
C2967 C2960 1.409 . S
C2967 C2966 1.362 . S
H2968 C2974 0.930 . S
H2969 C2977 0.930 . S
H2970 C2978 0.930 . S
H2971 C2979 0.930 . S
H2972 C2982 0.930 . S
H2973 C2983 0.930 . S
C2974 H2968 0.930 . S
C2974 C2975 1.355 . S
C2974 C2976 1.415 . S
C2975 C2974 1.355 . S
C2975 C2977 1.419 . S
C2976 C2974 1.415 . S
C2976 C2981 1.425 . S
C2976 C2983 1.409 . S
C2977 H2969 0.930 . S
C2977 C2975 1.419 . S
C2977 C2978 1.362 . S
C2978 H2970 0.930 . S
C2978 C2977 1.362 . S
C2978 C2981 1.409 . S
C2979 H2971 0.930 . S
C2979 C2980 1.355 . S
C2979 C2981 1.415 . S
C2980 C2979 1.355 . S
C2980 C2982 1.419 . S
C2981 C2976 1.425 . S
C2981 C2978 1.409 . S
C2981 C2979 1.415 . S
C2982 H2972 0.930 . S
C2982 C2980 1.419 . S
C2982 C2983 1.362 . S
C2983 H2973 0.930 . S
C2983 C2976 1.409 . S
C2983 C2982 1.362 . S
H2984 C2990 0.930 . S
H2985 C2993 0.930 . S
H2986 C2994 0.930 . S
H2987 C2995 0.930 . S
H2988 C2998 0.930 . S
H2989 C2999 0.930 . S
C2990 H2984 0.930 . S
C2990 C2991 1.355 . S
C2990 C2992 1.415 . S
C2991 C2990 1.355 . S
C2991 C2993 1.419 . S
C2992 C2990 1.415 . S
C2992 C2997 1.425 . S
C2992 C2999 1.409 . S
C2993 H2985 0.930 . S
C2993 C2991 1.419 . S
C2993 C2994 1.362 . S
C2994 H2986 0.930 . S
C2994 C2993 1.362 . S
C2994 C2997 1.409 . S
C2995 H2987 0.930 . S
C2995 C2996 1.355 . S
C2995 C2997 1.415 . S
C2996 C2995 1.355 . S
C2996 C2998 1.419 . S
C2997 C2992 1.425 . S
C2997 C2994 1.409 . S
C2997 C2995 1.415 . S
C2998 H2988 0.930 . S
C2998 C2996 1.419 . S
C2998 C2999 1.362 . S
C2999 H2989 0.930 . S
C2999 C2992 1.409 . S
C2999 C2998 1.362 . S
H3000 C3006 0.930 . S
H3001 C3009 0.930 . S
H3002 C3010 0.930 . S
H3003 C3011 0.930 . S
H3004 C3014 0.930 . S
H3005 C3015 0.930 . S
C3006 H3000 0.930 . S
C3006 C3007 1.355 . S
C3006 C3008 1.415 . S
C3007 C3006 1.355 . S
C3007 C3009 1.419 . S
C3008 C3006 1.415 . S
C3008 C3013 1.425 . S
C3008 C3015 1.409 . S
C3009 H3001 0.930 . S
C3009 C3007 1.419 . S
C3009 C3010 1.362 . S
C3010 H3002 0.930 . S
C3010 C3009 1.362 . S
C3010 C3013 1.409 . S
C3011 H3003 0.930 . S
C3011 C3012 1.355 . S
C3011 C3013 1.415 . S
C3012 C3011 1.355 . S
C3012 C3014 1.419 . S
C3013 C3008 1.425 . S
C3013 C3010 1.409 . S
C3013 C3011 1.415 . S
C3014 H3004 0.930 . S
C3014 C3012 1.419 . S
C3014 C3015 1.362 . S
C3015 H3005 0.930 . S
C3015 C3008 1.409 . S
C3015 C3014 1.362 . S
H3016 C3022 0.930 . S
H3017 C3025 0.930 . S
H3018 C3026 0.930 . S
H3019 C3027 0.930 . S
H3020 C3030 0.930 . S
H3021 C3031 0.930 . S
C3022 H3016 0.930 . S
C3022 C3023 1.355 . S
C3022 C3024 1.415 . S
C3023 C3022 1.355 . S
C3023 C3025 1.419 . S
C3024 C3022 1.415 . S
C3024 C3029 1.425 . S
C3024 C3031 1.409 . S
C3025 H3017 0.930 . S
C3025 C3023 1.419 . S
C3025 C3026 1.362 . S
C3026 H3018 0.930 . S
C3026 C3025 1.362 . S
C3026 C3029 1.409 . S
C3027 H3019 0.930 . S
C3027 C3028 1.355 . S
C3027 C3029 1.415 . S
C3028 C3027 1.355 . S
C3028 C3030 1.419 . S
C3029 C3024 1.425 . S
C3029 C3026 1.409 . S
C3029 C3027 1.415 . S
C3030 H3020 0.930 . S
C3030 C3028 1.419 . S
C3030 C3031 1.362 . S
C3031 H3021 0.930 . S
C3031 C3024 1.409 . S
C3031 C3030 1.362 . S
H3032 C3038 0.930 . S
H3033 C3041 0.930 . S
H3034 C3042 0.930 . S
H3035 C3043 0.930 . S
H3036 C3046 0.930 . S
H3037 C3047 0.930 . S
C3038 H3032 0.930 . S
C3038 C3039 1.355 . S
C3038 C3040 1.415 . S
C3039 C3038 1.355 . S
C3039 C3041 1.419 . S
C3040 C3038 1.415 . S
C3040 C3045 1.425 . S
C3040 C3047 1.409 . S
C3041 H3033 0.930 . S
C3041 C3039 1.419 . S
C3041 C3042 1.362 . S
C3042 H3034 0.930 . S
C3042 C3041 1.362 . S
C3042 C3045 1.409 . S
C3043 H3035 0.930 . S
C3043 C3044 1.355 . S
C3043 C3045 1.415 . S
C3044 C3043 1.355 . S
C3044 C3046 1.419 . S
C3045 C3040 1.425 . S
C3045 C3042 1.409 . S
C3045 C3043 1.415 . S
C3046 H3036 0.930 . S
C3046 C3044 1.419 . S
C3046 C3047 1.362 . S
C3047 H3037 0.930 . S
C3047 C3040 1.409 . S
C3047 C3046 1.362 . S
H3048 C3054 0.930 . S
H3049 C3057 0.930 . S
H3050 C3058 0.930 . S
H3051 C3059 0.930 . S
H3052 C3062 0.930 . S
H3053 C3063 0.930 . S
C3054 H3048 0.930 . S
C3054 C3055 1.355 . S
C3054 C3056 1.415 . S
C3055 C3054 1.355 . S
C3055 C3057 1.419 . S
C3056 C3054 1.415 . S
C3056 C3061 1.425 . S
C3056 C3063 1.409 . S
C3057 H3049 0.930 . S
C3057 C3055 1.419 . S
C3057 C3058 1.362 . S
C3058 H3050 0.930 . S
C3058 C3057 1.362 . S
C3058 C3061 1.409 . S
C3059 H3051 0.930 . S
C3059 C3060 1.355 . S
C3059 C3061 1.415 . S
C3060 C3059 1.355 . S
C3060 C3062 1.419 . S
C3061 C3056 1.425 . S
C3061 C3058 1.409 . S
C3061 C3059 1.415 . S
C3062 H3052 0.930 . S
C3062 C3060 1.419 . S
C3062 C3063 1.362 . S
C3063 H3053 0.930 . S
C3063 C3056 1.409 . S
C3063 C3062 1.362 . S
H3064 C3070 0.930 . S
H3065 C3073 0.930 . S
H3066 C3074 0.930 . S
H3067 C3075 0.930 . S
H3068 C3078 0.930 . S
H3069 C3079 0.930 . S
C3070 H3064 0.930 . S
C3070 C3071 1.355 . S
C3070 C3072 1.415 . S
C3071 C3070 1.355 . S
C3071 C3073 1.419 . S
C3072 C3070 1.415 . S
C3072 C3077 1.425 . S
C3072 C3079 1.409 . S
C3073 H3065 0.930 . S
C3073 C3071 1.419 . S
C3073 C3074 1.362 . S
C3074 H3066 0.930 . S
C3074 C3073 1.362 . S
C3074 C3077 1.409 . S
C3075 H3067 0.930 . S
C3075 C3076 1.355 . S
C3075 C3077 1.415 . S
C3076 C3075 1.355 . S
C3076 C3078 1.419 . S
C3077 C3072 1.425 . S
C3077 C3074 1.409 . S
C3077 C3075 1.415 . S
C3078 H3068 0.930 . S
C3078 C3076 1.419 . S
C3078 C3079 1.362 . S
C3079 H3069 0.930 . S
C3079 C3072 1.409 . S
C3079 C3078 1.362 . S
H3080 C3086 0.930 . S
H3081 C3089 0.930 . S
H3082 C3090 0.930 . S
H3083 C3091 0.930 . S
H3084 C3094 0.930 . S
H3085 C3095 0.930 . S
C3086 H3080 0.930 . S
C3086 C3087 1.355 . S
C3086 C3088 1.415 . S
C3087 C3086 1.355 . S
C3087 C3089 1.419 . S
C3088 C3086 1.415 . S
C3088 C3093 1.425 . S
C3088 C3095 1.409 . S
C3089 H3081 0.930 . S
C3089 C3087 1.419 . S
C3089 C3090 1.362 . S
C3090 H3082 0.930 . S
C3090 C3089 1.362 . S
C3090 C3093 1.409 . S
C3091 H3083 0.930 . S
C3091 C3092 1.355 . S
C3091 C3093 1.415 . S
C3092 C3091 1.355 . S
C3092 C3094 1.419 . S
C3093 C3088 1.425 . S
C3093 C3090 1.409 . S
C3093 C3091 1.415 . S
C3094 H3084 0.930 . S
C3094 C3092 1.419 . S
C3094 C3095 1.362 . S
C3095 H3085 0.930 . S
C3095 C3088 1.409 . S
C3095 C3094 1.362 . S
H3096 C3102 0.930 . S
H3097 C3105 0.930 . S
H3098 C3106 0.930 . S
H3099 C3107 0.930 . S
H3100 C3110 0.930 . S
H3101 C3111 0.930 . S
C3102 H3096 0.930 . S
C3102 C3103 1.355 . S
C3102 C3104 1.415 . S
C3103 C3102 1.355 . S
C3103 C3105 1.419 . S
C3104 C3102 1.415 . S
C3104 C3109 1.425 . S
C3104 C3111 1.409 . S
C3105 H3097 0.930 . S
C3105 C3103 1.419 . S
C3105 C3106 1.362 . S
C3106 H3098 0.930 . S
C3106 C3105 1.362 . S
C3106 C3109 1.409 . S
C3107 H3099 0.930 . S
C3107 C3108 1.355 . S
C3107 C3109 1.415 . S
C3108 C3107 1.355 . S
C3108 C3110 1.419 . S
C3109 C3104 1.425 . S
C3109 C3106 1.409 . S
C3109 C3107 1.415 . S
C3110 H3100 0.930 . S
C3110 C3108 1.419 . S
C3110 C3111 1.362 . S
C3111 H3101 0.930 . S
C3111 C3104 1.409 . S
C3111 C3110 1.362 . S
H3112 C3118 0.930 . S
H3113 C3121 0.930 . S
H3114 C3122 0.930 . S
H3115 C3123 0.930 . S
H3116 C3126 0.930 . S
H3117 C3127 0.930 . S
C3118 H3112 0.930 . S
C3118 C3119 1.355 . S
C3118 C3120 1.415 . S
C3119 C3118 1.355 . S
C3119 C3121 1.419 . S
C3120 C3118 1.415 . S
C3120 C3125 1.425 . S
C3120 C3127 1.409 . S
C3121 H3113 0.930 . S
C3121 C3119 1.419 . S
C3121 C3122 1.362 . S
C3122 H3114 0.930 . S
C3122 C3121 1.362 . S
C3122 C3125 1.409 . S
C3123 H3115 0.930 . S
C3123 C3124 1.355 . S
C3123 C3125 1.415 . S
C3124 C3123 1.355 . S
C3124 C3126 1.419 . S
C3125 C3120 1.425 . S
C3125 C3122 1.409 . S
C3125 C3123 1.415 . S
C3126 H3116 0.930 . S
C3126 C3124 1.419 . S
C3126 C3127 1.362 . S
C3127 H3117 0.930 . S
C3127 C3120 1.409 . S
C3127 C3126 1.362 . S
H3128 C3134 0.930 . S
H3129 C3137 0.930 . S
H3130 C3138 0.930 . S
H3131 C3139 0.930 . S
H3132 C3142 0.930 . S
H3133 C3143 0.930 . S
C3134 H3128 0.930 . S
C3134 C3135 1.355 . S
C3134 C3136 1.415 . S
C3135 C3134 1.355 . S
C3135 C3137 1.419 . S
C3136 C3134 1.415 . S
C3136 C3141 1.425 . S
C3136 C3143 1.409 . S
C3137 H3129 0.930 . S
C3137 C3135 1.419 . S
C3137 C3138 1.362 . S
C3138 H3130 0.930 . S
C3138 C3137 1.362 . S
C3138 C3141 1.409 . S
C3139 H3131 0.930 . S
C3139 C3140 1.355 . S
C3139 C3141 1.415 . S
C3140 C3139 1.355 . S
C3140 C3142 1.419 . S
C3141 C3136 1.425 . S
C3141 C3138 1.409 . S
C3141 C3139 1.415 . S
C3142 H3132 0.930 . S
C3142 C3140 1.419 . S
C3142 C3143 1.362 . S
C3143 H3133 0.930 . S
C3143 C3136 1.409 . S
C3143 C3142 1.362 . S
H3144 C3150 0.930 . S
H3145 C3153 0.930 . S
H3146 C3154 0.930 . S
H3147 C3155 0.930 . S
H3148 C3158 0.930 . S
H3149 C3159 0.930 . S
C3150 H3144 0.930 . S
C3150 C3151 1.355 . S
C3150 C3152 1.415 . S
C3151 C3150 1.355 . S
C3151 C3153 1.419 . S
C3152 C3150 1.415 . S
C3152 C3157 1.425 . S
C3152 C3159 1.409 . S
C3153 H3145 0.930 . S
C3153 C3151 1.419 . S
C3153 C3154 1.362 . S
C3154 H3146 0.930 . S
C3154 C3153 1.362 . S
C3154 C3157 1.409 . S
C3155 H3147 0.930 . S
C3155 C3156 1.355 . S
C3155 C3157 1.415 . S
C3156 C3155 1.355 . S
C3156 C3158 1.419 . S
C3157 C3152 1.425 . S
C3157 C3154 1.409 . S
C3157 C3155 1.415 . S
C3158 H3148 0.930 . S
C3158 C3156 1.419 . S
C3158 C3159 1.362 . S
C3159 H3149 0.930 . S
C3159 C3152 1.409 . S
C3159 C3158 1.362 . S
H3160 C3166 0.930 . S
H3161 C3169 0.930 . S
H3162 C3170 0.930 . S
H3163 C3171 0.930 . S
H3164 C3174 0.930 . S
H3165 C3175 0.930 . S
C3166 H3160 0.930 . S
C3166 C3167 1.355 . S
C3166 C3168 1.415 . S
C3167 C3166 1.355 . S
C3167 C3169 1.419 . S
C3168 C3166 1.415 . S
C3168 C3173 1.425 . S
C3168 C3175 1.409 . S
C3169 H3161 0.930 . S
C3169 C3167 1.419 . S
C3169 C3170 1.362 . S
C3170 H3162 0.930 . S
C3170 C3169 1.362 . S
C3170 C3173 1.409 . S
C3171 H3163 0.930 . S
C3171 C3172 1.355 . S
C3171 C3173 1.415 . S
C3172 C3171 1.355 . S
C3172 C3174 1.419 . S
C3173 C3168 1.425 . S
C3173 C3170 1.409 . S
C3173 C3171 1.415 . S
C3174 H3164 0.930 . S
C3174 C3172 1.419 . S
C3174 C3175 1.362 . S
C3175 H3165 0.930 . S
C3175 C3168 1.409 . S
C3175 C3174 1.362 . S
H3176 C3182 0.930 . S
H3177 C3185 0.930 . S
H3178 C3186 0.930 . S
H3179 C3187 0.930 . S
H3180 C3190 0.930 . S
H3181 C3191 0.930 . S
C3182 H3176 0.930 . S
C3182 C3183 1.355 . S
C3182 C3184 1.415 . S
C3183 C3182 1.355 . S
C3183 C3185 1.419 . S
C3184 C3182 1.415 . S
C3184 C3189 1.425 . S
C3184 C3191 1.409 . S
C3185 H3177 0.930 . S
C3185 C3183 1.419 . S
C3185 C3186 1.362 . S
C3186 H3178 0.930 . S
C3186 C3185 1.362 . S
C3186 C3189 1.409 . S
C3187 H3179 0.930 . S
C3187 C3188 1.355 . S
C3187 C3189 1.415 . S
C3188 C3187 1.355 . S
C3188 C3190 1.419 . S
C3189 C3184 1.425 . S
C3189 C3186 1.409 . S
C3189 C3187 1.415 . S
C3190 H3180 0.930 . S
C3190 C3188 1.419 . S
C3190 C3191 1.362 . S
C3191 H3181 0.930 . S
C3191 C3184 1.409 . S
C3191 C3190 1.362 . S
H3192 C3198 0.930 . S
H3193 C3201 0.930 . S
H3194 C3202 0.930 . S
H3195 C3203 0.930 . S
H3196 C3206 0.930 . S
H3197 C3207 0.930 . S
C3198 H3192 0.930 . S
C3198 C3199 1.355 . S
C3198 C3200 1.415 . S
C3199 C3198 1.355 . S
C3199 C3201 1.419 . S
C3200 C3198 1.415 . S
C3200 C3205 1.425 . S
C3200 C3207 1.409 . S
C3201 H3193 0.930 . S
C3201 C3199 1.419 . S
C3201 C3202 1.362 . S
C3202 H3194 0.930 . S
C3202 C3201 1.362 . S
C3202 C3205 1.409 . S
C3203 H3195 0.930 . S
C3203 C3204 1.355 . S
C3203 C3205 1.415 . S
C3204 C3203 1.355 . S
C3204 C3206 1.419 . S
C3205 C3200 1.425 . S
C3205 C3202 1.409 . S
C3205 C3203 1.415 . S
C3206 H3196 0.930 . S
C3206 C3204 1.419 . S
C3206 C3207 1.362 . S
C3207 H3197 0.930 . S
C3207 C3200 1.409 . S
C3207 C3206 1.362 . S
H3208 C3214 0.930 . S
H3209 C3217 0.930 . S
H3210 C3218 0.930 . S
H3211 C3219 0.930 . S
H3212 C3222 0.930 . S
H3213 C3223 0.930 . S
C3214 H3208 0.930 . S
C3214 C3215 1.355 . S
C3214 C3216 1.415 . S
C3215 C3214 1.355 . S
C3215 C3217 1.419 . S
C3216 C3214 1.415 . S
C3216 C3221 1.425 . S
C3216 C3223 1.409 . S
C3217 H3209 0.930 . S
C3217 C3215 1.419 . S
C3217 C3218 1.362 . S
C3218 H3210 0.930 . S
C3218 C3217 1.362 . S
C3218 C3221 1.409 . S
C3219 H3211 0.930 . S
C3219 C3220 1.355 . S
C3219 C3221 1.415 . S
C3220 C3219 1.355 . S
C3220 C3222 1.419 . S
C3221 C3216 1.425 . S
C3221 C3218 1.409 . S
C3221 C3219 1.415 . S
C3222 H3212 0.930 . S
C3222 C3220 1.419 . S
C3222 C3223 1.362 . S
C3223 H3213 0.930 . S
C3223 C3216 1.409 . S
C3223 C3222 1.362 . S
H3224 C3230 0.930 . S
H3225 C3233 0.930 . S
H3226 C3234 0.930 . S
H3227 C3235 0.930 . S
H3228 C3238 0.930 . S
H3229 C3239 0.930 . S
C3230 H3224 0.930 . S
C3230 C3231 1.355 . S
C3230 C3232 1.415 . S
C3231 C3230 1.355 . S
C3231 C3233 1.419 . S
C3232 C3230 1.415 . S
C3232 C3237 1.425 . S
C3232 C3239 1.409 . S
C3233 H3225 0.930 . S
C3233 C3231 1.419 . S
C3233 C3234 1.362 . S
C3234 H3226 0.930 . S
C3234 C3233 1.362 . S
C3234 C3237 1.409 . S
C3235 H3227 0.930 . S
C3235 C3236 1.355 . S
C3235 C3237 1.415 . S
C3236 C3235 1.355 . S
C3236 C3238 1.419 . S
C3237 C3232 1.425 . S
C3237 C3234 1.409 . S
C3237 C3235 1.415 . S
C3238 H3228 0.930 . S
C3238 C3236 1.419 . S
C3238 C3239 1.362 . S
C3239 H3229 0.930 . S
C3239 C3232 1.409 . S
C3239 C3238 1.362 . S
H3240 C3246 0.930 . S
H3241 C3249 0.930 . S
H3242 C3250 0.930 . S
H3243 C3251 0.930 . S
H3244 C3254 0.930 . S
H3245 C3255 0.930 . S
C3246 H3240 0.930 . S
C3246 C3247 1.355 . S
C3246 C3248 1.415 . S
C3247 C3246 1.355 . S
C3247 C3249 1.419 . S
C3248 C3246 1.415 . S
C3248 C3253 1.425 . S
C3248 C3255 1.409 . S
C3249 H3241 0.930 . S
C3249 C3247 1.419 . S
C3249 C3250 1.362 . S
C3250 H3242 0.930 . S
C3250 C3249 1.362 . S
C3250 C3253 1.409 . S
C3251 H3243 0.930 . S
C3251 C3252 1.355 . S
C3251 C3253 1.415 . S
C3252 C3251 1.355 . S
C3252 C3254 1.419 . S
C3253 C3248 1.425 . S
C3253 C3250 1.409 . S
C3253 C3251 1.415 . S
C3254 H3244 0.930 . S
C3254 C3252 1.419 . S
C3254 C3255 1.362 . S
C3255 H3245 0.930 . S
C3255 C3248 1.409 . S
C3255 C3254 1.362 . S
H3256 C3262 0.930 . S
H3257 C3265 0.930 . S
H3258 C3266 0.930 . S
H3259 C3267 0.930 . S
H3260 C3270 0.930 . S
H3261 C3271 0.930 . S
C3262 H3256 0.930 . S
C3262 C3263 1.355 . S
C3262 C3264 1.415 . S
C3263 C3262 1.355 . S
C3263 C3265 1.419 . S
C3264 C3262 1.415 . S
C3264 C3269 1.425 . S
C3264 C3271 1.409 . S
C3265 H3257 0.930 . S
C3265 C3263 1.419 . S
C3265 C3266 1.362 . S
C3266 H3258 0.930 . S
C3266 C3265 1.362 . S
C3266 C3269 1.409 . S
C3267 H3259 0.930 . S
C3267 C3268 1.355 . S
C3267 C3269 1.415 . S
C3268 C3267 1.355 . S
C3268 C3270 1.419 . S
C3269 C3264 1.425 . S
C3269 C3266 1.409 . S
C3269 C3267 1.415 . S
C3270 H3260 0.930 . S
C3270 C3268 1.419 . S
C3270 C3271 1.362 . S
C3271 H3261 0.930 . S
C3271 C3264 1.409 . S
C3271 C3270 1.362 . S
H3272 C3278 0.930 . S
H3273 C3281 0.930 . S
H3274 C3282 0.930 . S
H3275 C3283 0.930 . S
H3276 C3286 0.930 . S
H3277 C3287 0.930 . S
C3278 H3272 0.930 . S
C3278 C3279 1.355 . S
C3278 C3280 1.415 . S
C3279 C3278 1.355 . S
C3279 C3281 1.419 . S
C3280 C3278 1.415 . S
C3280 C3285 1.425 . S
C3280 C3287 1.409 . S
C3281 H3273 0.930 . S
C3281 C3279 1.419 . S
C3281 C3282 1.362 . S
C3282 H3274 0.930 . S
C3282 C3281 1.362 . S
C3282 C3285 1.409 . S
C3283 H3275 0.930 . S
C3283 C3284 1.355 . S
C3283 C3285 1.415 . S
C3284 C3283 1.355 . S
C3284 C3286 1.419 . S
C3285 C3280 1.425 . S
C3285 C3282 1.409 . S
C3285 C3283 1.415 . S
C3286 H3276 0.930 . S
C3286 C3284 1.419 . S
C3286 C3287 1.362 . S
C3287 H3277 0.930 . S
C3287 C3280 1.409 . S
C3287 C3286 1.362 . S
H3288 C3294 0.930 . S
H3289 C3297 0.930 . S
H3290 C3298 0.930 . S
H3291 C3299 0.930 . S
H3292 C3302 0.930 . S
H3293 C3303 0.930 . S
C3294 H3288 0.930 . S
C3294 C3295 1.355 . S
C3294 C3296 1.415 . S
C3295 C3294 1.355 . S
C3295 C3297 1.419 . S
C3296 C3294 1.415 . S
C3296 C3301 1.425 . S
C3296 C3303 1.409 . S
C3297 H3289 0.930 . S
C3297 C3295 1.419 . S
C3297 C3298 1.362 . S
C3298 H3290 0.930 . S
C3298 C3297 1.362 . S
C3298 C3301 1.409 . S
C3299 H3291 0.930 . S
C3299 C3300 1.355 . S
C3299 C3301 1.415 . S
C3300 C3299 1.355 . S
C3300 C3302 1.419 . S
C3301 C3296 1.425 . S
C3301 C3298 1.409 . S
C3301 C3299 1.415 . S
C3302 H3292 0.930 . S
C3302 C3300 1.419 . S
C3302 C3303 1.362 . S
C3303 H3293 0.930 . S
C3303 C3296 1.409 . S
C3303 C3302 1.362 . S
H3304 C3310 0.930 . S
H3305 C3313 0.930 . S
H3306 C3314 0.930 . S
H3307 C3315 0.930 . S
H3308 C3318 0.930 . S
H3309 C3319 0.930 . S
C3310 H3304 0.930 . S
C3310 C3311 1.355 . S
C3310 C3312 1.415 . S
C3311 C3310 1.355 . S
C3311 C3313 1.419 . S
C3312 C3310 1.415 . S
C3312 C3317 1.425 . S
C3312 C3319 1.409 . S
C3313 H3305 0.930 . S
C3313 C3311 1.419 . S
C3313 C3314 1.362 . S
C3314 H3306 0.930 . S
C3314 C3313 1.362 . S
C3314 C3317 1.409 . S
C3315 H3307 0.930 . S
C3315 C3316 1.355 . S
C3315 C3317 1.415 . S
C3316 C3315 1.355 . S
C3316 C3318 1.419 . S
C3317 C3312 1.425 . S
C3317 C3314 1.409 . S
C3317 C3315 1.415 . S
C3318 H3308 0.930 . S
C3318 C3316 1.419 . S
C3318 C3319 1.362 . S
C3319 H3309 0.930 . S
C3319 C3312 1.409 . S
C3319 C3318 1.362 . S
H3320 C3326 0.930 . S
H3321 C3329 0.930 . S
H3322 C3330 0.930 . S
H3323 C3331 0.930 . S
H3324 C3334 0.930 . S
H3325 C3335 0.930 . S
C3326 H3320 0.930 . S
C3326 C3327 1.355 . S
C3326 C3328 1.415 . S
C3327 C3326 1.355 . S
C3327 C3329 1.419 . S
C3328 C3326 1.415 . S
C3328 C3333 1.425 . S
C3328 C3335 1.409 . S
C3329 H3321 0.930 . S
C3329 C3327 1.419 . S
C3329 C3330 1.362 . S
C3330 H3322 0.930 . S
C3330 C3329 1.362 . S
C3330 C3333 1.409 . S
C3331 H3323 0.930 . S
C3331 C3332 1.355 . S
C3331 C3333 1.415 . S
C3332 C3331 1.355 . S
C3332 C3334 1.419 . S
C3333 C3328 1.425 . S
C3333 C3330 1.409 . S
C3333 C3331 1.415 . S
C3334 H3324 0.930 . S
C3334 C3332 1.419 . S
C3334 C3335 1.362 . S
C3335 H3325 0.930 . S
C3335 C3328 1.409 . S
C3335 C3334 1.362 . S
H3336 C3342 0.930 . S
H3337 C3345 0.930 . S
H3338 C3346 0.930 . S
H3339 C3347 0.930 . S
H3340 C3350 0.930 . S
H3341 C3351 0.930 . S
C3342 H3336 0.930 . S
C3342 C3343 1.355 . S
C3342 C3344 1.415 . S
C3343 C3342 1.355 . S
C3343 C3345 1.419 . S
C3344 C3342 1.415 . S
C3344 C3349 1.425 . S
C3344 C3351 1.409 . S
C3345 H3337 0.930 . S
C3345 C3343 1.419 . S
C3345 C3346 1.362 . S
C3346 H3338 0.930 . S
C3346 C3345 1.362 . S
C3346 C3349 1.409 . S
C3347 H3339 0.930 . S
C3347 C3348 1.355 . S
C3347 C3349 1.415 . S
C3348 C3347 1.355 . S
C3348 C3350 1.419 . S
C3349 C3344 1.425 . S
C3349 C3346 1.409 . S
C3349 C3347 1.415 . S
C3350 H3340 0.930 . S
C3350 C3348 1.419 . S
C3350 C3351 1.362 . S
C3351 H3341 0.930 . S
C3351 C3344 1.409 . S
C3351 C3350 1.362 . S
H3352 C3358 0.930 . S
H3353 C3361 0.930 . S
H3354 C3362 0.930 . S
H3355 C3363 0.930 . S
H3356 C3366 0.930 . S
H3357 C3367 0.930 . S
C3358 H3352 0.930 . S
C3358 C3359 1.355 . S
C3358 C3360 1.415 . S
C3359 C3358 1.355 . S
C3359 C3361 1.419 . S
C3360 C3358 1.415 . S
C3360 C3365 1.425 . S
C3360 C3367 1.409 . S
C3361 H3353 0.930 . S
C3361 C3359 1.419 . S
C3361 C3362 1.362 . S
C3362 H3354 0.930 . S
C3362 C3361 1.362 . S
C3362 C3365 1.409 . S
C3363 H3355 0.930 . S
C3363 C3364 1.355 . S
C3363 C3365 1.415 . S
C3364 C3363 1.355 . S
C3364 C3366 1.419 . S
C3365 C3360 1.425 . S
C3365 C3362 1.409 . S
C3365 C3363 1.415 . S
C3366 H3356 0.930 . S
C3366 C3364 1.419 . S
C3366 C3367 1.362 . S
C3367 H3357 0.930 . S
C3367 C3360 1.409 . S
C3367 C3366 1.362 . S
H3368 C3374 0.930 . S
H3369 C3377 0.930 . S
H3370 C3378 0.930 . S
H3371 C3379 0.930 . S
H3372 C3382 0.930 . S
H3373 C3383 0.930 . S
C3374 H3368 0.930 . S
C3374 C3375 1.355 . S
C3374 C3376 1.415 . S
C3375 C3374 1.355 . S
C3375 C3377 1.419 . S
C3376 C3374 1.415 . S
C3376 C3381 1.425 . S
C3376 C3383 1.409 . S
C3377 H3369 0.930 . S
C3377 C3375 1.419 . S
C3377 C3378 1.362 . S
C3378 H3370 0.930 . S
C3378 C3377 1.362 . S
C3378 C3381 1.409 . S
C3379 H3371 0.930 . S
C3379 C3380 1.355 . S
C3379 C3381 1.415 . S
C3380 C3379 1.355 . S
C3380 C3382 1.419 . S
C3381 C3376 1.425 . S
C3381 C3378 1.409 . S
C3381 C3379 1.415 . S
C3382 H3372 0.930 . S
C3382 C3380 1.419 . S
C3382 C3383 1.362 . S
C3383 H3373 0.930 . S
C3383 C3376 1.409 . S
C3383 C3382 1.362 . S
H3384 C3390 0.930 . S
H3385 C3393 0.930 . S
H3386 C3394 0.930 . S
H3387 C3395 0.930 . S
H3388 C3398 0.930 . S
H3389 C3399 0.930 . S
C3390 H3384 0.930 . S
C3390 C3391 1.355 . S
C3390 C3392 1.415 . S
C3391 C3390 1.355 . S
C3391 C3393 1.419 . S
C3392 C3390 1.415 . S
C3392 C3397 1.425 . S
C3392 C3399 1.409 . S
C3393 H3385 0.930 . S
C3393 C3391 1.419 . S
C3393 C3394 1.362 . S
C3394 H3386 0.930 . S
C3394 C3393 1.362 . S
C3394 C3397 1.409 . S
C3395 H3387 0.930 . S
C3395 C3396 1.355 . S
C3395 C3397 1.415 . S
C3396 C3395 1.355 . S
C3396 C3398 1.419 . S
C3397 C3392 1.425 . S
C3397 C3394 1.409 . S
C3397 C3395 1.415 . S
C3398 H3388 0.930 . S
C3398 C3396 1.419 . S
C3398 C3399 1.362 . S
C3399 H3389 0.930 . S
C3399 C3392 1.409 . S
C3399 C3398 1.362 . S
H3400 C3406 0.930 . S
H3401 C3409 0.930 . S
H3402 C3410 0.930 . S
H3403 C3411 0.930 . S
H3404 C3414 0.930 . S
H3405 C3415 0.930 . S
C3406 H3400 0.930 . S
C3406 C3407 1.355 . S
C3406 C3408 1.415 . S
C3407 C3406 1.355 . S
C3407 C3409 1.419 . S
C3408 C3406 1.415 . S
C3408 C3413 1.425 . S
C3408 C3415 1.409 . S
C3409 H3401 0.930 . S
C3409 C3407 1.419 . S
C3409 C3410 1.362 . S
C3410 H3402 0.930 . S
C3410 C3409 1.362 . S
C3410 C3413 1.409 . S
C3411 H3403 0.930 . S
C3411 C3412 1.355 . S
C3411 C3413 1.415 . S
C3412 C3411 1.355 . S
C3412 C3414 1.419 . S
C3413 C3408 1.425 . S
C3413 C3410 1.409 . S
C3413 C3411 1.415 . S
C3414 H3404 0.930 . S
C3414 C3412 1.419 . S
C3414 C3415 1.362 . S
C3415 H3405 0.930 . S
C3415 C3408 1.409 . S
C3415 C3414 1.362 . S
H3416 C3422 0.930 . S
H3417 C3425 0.930 . S
H3418 C3426 0.930 . S
H3419 C3427 0.930 . S
H3420 C3430 0.930 . S
H3421 C3431 0.930 . S
C3422 H3416 0.930 . S
C3422 C3423 1.355 . S
C3422 C3424 1.415 . S
C3423 C3422 1.355 . S
C3423 C3425 1.419 . S
C3424 C3422 1.415 . S
C3424 C3429 1.425 . S
C3424 C3431 1.409 . S
C3425 H3417 0.930 . S
C3425 C3423 1.419 . S
C3425 C3426 1.362 . S
C3426 H3418 0.930 . S
C3426 C3425 1.362 . S
C3426 C3429 1.409 . S
C3427 H3419 0.930 . S
C3427 C3428 1.355 . S
C3427 C3429 1.415 . S
C3428 C3427 1.355 . S
C3428 C3430 1.419 . S
C3429 C3424 1.425 . S
C3429 C3426 1.409 . S
C3429 C3427 1.415 . S
C3430 H3420 0.930 . S
C3430 C3428 1.419 . S
C3430 C3431 1.362 . S
C3431 H3421 0.930 . S
C3431 C3424 1.409 . S
C3431 C3430 1.362 . S
H3432 C3438 0.930 . S
H3433 C3441 0.930 . S
H3434 C3442 0.930 . S
H3435 C3443 0.930 . S
H3436 C3446 0.930 . S
H3437 C3447 0.930 . S
C3438 H3432 0.930 . S
C3438 C3439 1.355 . S
C3438 C3440 1.415 . S
C3439 C3438 1.355 . S
C3439 C3441 1.419 . S
C3440 C3438 1.415 . S
C3440 C3445 1.425 . S
C3440 C3447 1.409 . S
C3441 H3433 0.930 . S
C3441 C3439 1.419 . S
C3441 C3442 1.362 . S
C3442 H3434 0.930 . S
C3442 C3441 1.362 . S
C3442 C3445 1.409 . S
C3443 H3435 0.930 . S
C3443 C3444 1.355 . S
C3443 C3445 1.415 . S
C3444 C3443 1.355 . S
C3444 C3446 1.419 . S
C3445 C3440 1.425 . S
C3445 C3442 1.409 . S
C3445 C3443 1.415 . S
C3446 H3436 0.930 . S
C3446 C3444 1.419 . S
C3446 C3447 1.362 . S
C3447 H3437 0.930 . S
C3447 C3440 1.409 . S
C3447 C3446 1.362 . S
H3448 C3454 0.930 . S
H3449 C3457 0.930 . S
H3450 C3458 0.930 . S
H3451 C3459 0.930 . S
H3452 C3462 0.930 . S
H3453 C3463 0.930 . S
C3454 H3448 0.930 . S
C3454 C3455 1.355 . S
C3454 C3456 1.415 . S
C3455 C3454 1.355 . S
C3455 C3457 1.419 . S
C3456 C3454 1.415 . S
C3456 C3461 1.425 . S
C3456 C3463 1.409 . S
C3457 H3449 0.930 . S
C3457 C3455 1.419 . S
C3457 C3458 1.362 . S
C3458 H3450 0.930 . S
C3458 C3457 1.362 . S
C3458 C3461 1.409 . S
C3459 H3451 0.930 . S
C3459 C3460 1.355 . S
C3459 C3461 1.415 . S
C3460 C3459 1.355 . S
C3460 C3462 1.419 . S
C3461 C3456 1.425 . S
C3461 C3458 1.409 . S
C3461 C3459 1.415 . S
C3462 H3452 0.930 . S
C3462 C3460 1.419 . S
C3462 C3463 1.362 . S
C3463 H3453 0.930 . S
C3463 C3456 1.409 . S
C3463 C3462 1.362 . S
H3464 C3470 0.930 . S
H3465 C3473 0.930 . S
H3466 C3474 0.930 . S
H3467 C3475 0.930 . S
H3468 C3478 0.930 . S
H3469 C3479 0.930 . S
C3470 H3464 0.930 . S
C3470 C3471 1.355 . S
C3470 C3472 1.415 . S
C3471 C3470 1.355 . S
C3471 C3473 1.419 . S
C3472 C3470 1.415 . S
C3472 C3477 1.425 . S
C3472 C3479 1.409 . S
C3473 H3465 0.930 . S
C3473 C3471 1.419 . S
C3473 C3474 1.362 . S
C3474 H3466 0.930 . S
C3474 C3473 1.362 . S
C3474 C3477 1.409 . S
C3475 H3467 0.930 . S
C3475 C3476 1.355 . S
C3475 C3477 1.415 . S
C3476 C3475 1.355 . S
C3476 C3478 1.419 . S
C3477 C3472 1.425 . S
C3477 C3474 1.409 . S
C3477 C3475 1.415 . S
C3478 H3468 0.930 . S
C3478 C3476 1.419 . S
C3478 C3479 1.362 . S
C3479 H3469 0.930 . S
C3479 C3472 1.409 . S
C3479 C3478 1.362 . S
H3480 C3486 0.930 . S
H3481 C3489 0.930 . S
H3482 C3490 0.930 . S
H3483 C3491 0.930 . S
H3484 C3494 0.930 . S
H3485 C3495 0.930 . S
C3486 H3480 0.930 . S
C3486 C3487 1.355 . S
C3486 C3488 1.415 . S
C3487 C3486 1.355 . S
C3487 C3489 1.419 . S
C3488 C3486 1.415 . S
C3488 C3493 1.425 . S
C3488 C3495 1.409 . S
C3489 H3481 0.930 . S
C3489 C3487 1.419 . S
C3489 C3490 1.362 . S
C3490 H3482 0.930 . S
C3490 C3489 1.362 . S
C3490 C3493 1.409 . S
C3491 H3483 0.930 . S
C3491 C3492 1.355 . S
C3491 C3493 1.415 . S
C3492 C3491 1.355 . S
C3492 C3494 1.419 . S
C3493 C3488 1.425 . S
C3493 C3490 1.409 . S
C3493 C3491 1.415 . S
C3494 H3484 0.930 . S
C3494 C3492 1.419 . S
C3494 C3495 1.362 . S
C3495 H3485 0.930 . S
C3495 C3488 1.409 . S
C3495 C3494 1.362 . S
H3496 C3502 0.930 . S
H3497 C3505 0.930 . S
H3498 C3506 0.930 . S
H3499 C3507 0.930 . S
H3500 C3510 0.930 . S
H3501 C3511 0.930 . S
C3502 H3496 0.930 . S
C3502 C3503 1.355 . S
C3502 C3504 1.415 . S
C3503 C3502 1.355 . S
C3503 C3505 1.419 . S
C3504 C3502 1.415 . S
C3504 C3509 1.425 . S
C3504 C3511 1.409 . S
C3505 H3497 0.930 . S
C3505 C3503 1.419 . S
C3505 C3506 1.362 . S
C3506 H3498 0.930 . S
C3506 C3505 1.362 . S
C3506 C3509 1.409 . S
C3507 H3499 0.930 . S
C3507 C3508 1.355 . S
C3507 C3509 1.415 . S
C3508 C3507 1.355 . S
C3508 C3510 1.419 . S
C3509 C3504 1.425 . S
C3509 C3506 1.409 . S
C3509 C3507 1.415 . S
C3510 H3500 0.930 . S
C3510 C3508 1.419 . S
C3510 C3511 1.362 . S
C3511 H3501 0.930 . S
C3511 C3504 1.409 . S
C3511 C3510 1.362 . S
H3512 C3518 0.930 . S
H3513 C3521 0.930 . S
H3514 C3522 0.930 . S
H3515 C3523 0.930 . S
H3516 C3526 0.930 . S
H3517 C3527 0.930 . S
C3518 H3512 0.930 . S
C3518 C3519 1.355 . S
C3518 C3520 1.415 . S
C3519 C3518 1.355 . S
C3519 C3521 1.419 . S
C3520 C3518 1.415 . S
C3520 C3525 1.425 . S
C3520 C3527 1.409 . S
C3521 H3513 0.930 . S
C3521 C3519 1.419 . S
C3521 C3522 1.362 . S
C3522 H3514 0.930 . S
C3522 C3521 1.362 . S
C3522 C3525 1.409 . S
C3523 H3515 0.930 . S
C3523 C3524 1.355 . S
C3523 C3525 1.415 . S
C3524 C3523 1.355 . S
C3524 C3526 1.419 . S
C3525 C3520 1.425 . S
C3525 C3522 1.409 . S
C3525 C3523 1.415 . S
C3526 H3516 0.930 . S
C3526 C3524 1.419 . S
C3526 C3527 1.362 . S
C3527 H3517 0.930 . S
C3527 C3520 1.409 . S
C3527 C3526 1.362 . S
H3528 C3534 0.930 . S
H3529 C3537 0.930 . S
H3530 C3538 0.930 . S
H3531 C3539 0.930 . S
H3532 C3542 0.930 . S
H3533 C3543 0.930 . S
C3534 H3528 0.930 . S
C3534 C3535 1.355 . S
C3534 C3536 1.415 . S
C3535 C3534 1.355 . S
C3535 C3537 1.419 . S
C3536 C3534 1.415 . S
C3536 C3541 1.425 . S
C3536 C3543 1.409 . S
C3537 H3529 0.930 . S
C3537 C3535 1.419 . S
C3537 C3538 1.362 . S
C3538 H3530 0.930 . S
C3538 C3537 1.362 . S
C3538 C3541 1.409 . S
C3539 H3531 0.930 . S
C3539 C3540 1.355 . S
C3539 C3541 1.415 . S
C3540 C3539 1.355 . S
C3540 C3542 1.419 . S
C3541 C3536 1.425 . S
C3541 C3538 1.409 . S
C3541 C3539 1.415 . S
C3542 H3532 0.930 . S
C3542 C3540 1.419 . S
C3542 C3543 1.362 . S
C3543 H3533 0.930 . S
C3543 C3536 1.409 . S
C3543 C3542 1.362 . S
H3544 C3550 0.930 . S
H3545 C3553 0.930 . S
H3546 C3554 0.930 . S
H3547 C3555 0.930 . S
H3548 C3558 0.930 . S
H3549 C3559 0.930 . S
C3550 H3544 0.930 . S
C3550 C3551 1.355 . S
C3550 C3552 1.415 . S
C3551 C3550 1.355 . S
C3551 C3553 1.419 . S
C3552 C3550 1.415 . S
C3552 C3557 1.425 . S
C3552 C3559 1.409 . S
C3553 H3545 0.930 . S
C3553 C3551 1.419 . S
C3553 C3554 1.362 . S
C3554 H3546 0.930 . S
C3554 C3553 1.362 . S
C3554 C3557 1.409 . S
C3555 H3547 0.930 . S
C3555 C3556 1.355 . S
C3555 C3557 1.415 . S
C3556 C3555 1.355 . S
C3556 C3558 1.419 . S
C3557 C3552 1.425 . S
C3557 C3554 1.409 . S
C3557 C3555 1.415 . S
C3558 H3548 0.930 . S
C3558 C3556 1.419 . S
C3558 C3559 1.362 . S
C3559 H3549 0.930 . S
C3559 C3552 1.409 . S
C3559 C3558 1.362 . S
H3560 C3566 0.930 . S
H3561 C3569 0.930 . S
H3562 C3570 0.930 . S
H3563 C3571 0.930 . S
H3564 C3574 0.930 . S
H3565 C3575 0.930 . S
C3566 H3560 0.930 . S
C3566 C3567 1.355 . S
C3566 C3568 1.415 . S
C3567 C3566 1.355 . S
C3567 C3569 1.419 . S
C3568 C3566 1.415 . S
C3568 C3573 1.425 . S
C3568 C3575 1.409 . S
C3569 H3561 0.930 . S
C3569 C3567 1.419 . S
C3569 C3570 1.362 . S
C3570 H3562 0.930 . S
C3570 C3569 1.362 . S
C3570 C3573 1.409 . S
C3571 H3563 0.930 . S
C3571 C3572 1.355 . S
C3571 C3573 1.415 . S
C3572 C3571 1.355 . S
C3572 C3574 1.419 . S
C3573 C3568 1.425 . S
C3573 C3570 1.409 . S
C3573 C3571 1.415 . S
C3574 H3564 0.930 . S
C3574 C3572 1.419 . S
C3574 C3575 1.362 . S
C3575 H3565 0.930 . S
C3575 C3568 1.409 . S
C3575 C3574 1.362 . S
H3576 C3582 0.930 . S
H3577 C3585 0.930 . S
H3578 C3586 0.930 . S
H3579 C3587 0.930 . S
H3580 C3590 0.930 . S
H3581 C3591 0.930 . S
C3582 H3576 0.930 . S
C3582 C3583 1.355 . S
C3582 C3584 1.415 . S
C3583 C3582 1.355 . S
C3583 C3585 1.419 . S
C3584 C3582 1.415 . S
C3584 C3589 1.425 . S
C3584 C3591 1.409 . S
C3585 H3577 0.930 . S
C3585 C3583 1.419 . S
C3585 C3586 1.362 . S
C3586 H3578 0.930 . S
C3586 C3585 1.362 . S
C3586 C3589 1.409 . S
C3587 H3579 0.930 . S
C3587 C3588 1.355 . S
C3587 C3589 1.415 . S
C3588 C3587 1.355 . S
C3588 C3590 1.419 . S
C3589 C3584 1.425 . S
C3589 C3586 1.409 . S
C3589 C3587 1.415 . S
C3590 H3580 0.930 . S
C3590 C3588 1.419 . S
C3590 C3591 1.362 . S
C3591 H3581 0.930 . S
C3591 C3584 1.409 . S
C3591 C3590 1.362 . S
H3592 C3598 0.930 . S
H3593 C3601 0.930 . S
H3594 C3602 0.930 . S
H3595 C3603 0.930 . S
H3596 C3606 0.930 . S
H3597 C3607 0.930 . S
C3598 H3592 0.930 . S
C3598 C3599 1.355 . S
C3598 C3600 1.415 . S
C3599 C3598 1.355 . S
C3599 C3601 1.419 . S
C3600 C3598 1.415 . S
C3600 C3605 1.425 . S
C3600 C3607 1.409 . S
C3601 H3593 0.930 . S
C3601 C3599 1.419 . S
C3601 C3602 1.362 . S
C3602 H3594 0.930 . S
C3602 C3601 1.362 . S
C3602 C3605 1.409 . S
C3603 H3595 0.930 . S
C3603 C3604 1.355 . S
C3603 C3605 1.415 . S
C3604 C3603 1.355 . S
C3604 C3606 1.419 . S
C3605 C3600 1.425 . S
C3605 C3602 1.409 . S
C3605 C3603 1.415 . S
C3606 H3596 0.930 . S
C3606 C3604 1.419 . S
C3606 C3607 1.362 . S
C3607 H3597 0.930 . S
C3607 C3600 1.409 . S
C3607 C3606 1.362 . S
H3608 C3614 0.930 . S
H3609 C3617 0.930 . S
H3610 C3618 0.930 . S
H3611 C3619 0.930 . S
H3612 C3622 0.930 . S
H3613 C3623 0.930 . S
C3614 H3608 0.930 . S
C3614 C3615 1.355 . S
C3614 C3616 1.415 . S
C3615 C3614 1.355 . S
C3615 C3617 1.419 . S
C3616 C3614 1.415 . S
C3616 C3621 1.425 . S
C3616 C3623 1.409 . S
C3617 H3609 0.930 . S
C3617 C3615 1.419 . S
C3617 C3618 1.362 . S
C3618 H3610 0.930 . S
C3618 C3617 1.362 . S
C3618 C3621 1.409 . S
C3619 H3611 0.930 . S
C3619 C3620 1.355 . S
C3619 C3621 1.415 . S
C3620 C3619 1.355 . S
C3620 C3622 1.419 . S
C3621 C3616 1.425 . S
C3621 C3618 1.409 . S
C3621 C3619 1.415 . S
C3622 H3612 0.930 . S
C3622 C3620 1.419 . S
C3622 C3623 1.362 . S
C3623 H3613 0.930 . S
C3623 C3616 1.409 . S
C3623 C3622 1.362 . S
H3624 C3630 0.930 . S
H3625 C3633 0.930 . S
H3626 C3634 0.930 . S
H3627 C3635 0.930 . S
H3628 C3638 0.930 . S
H3629 C3639 0.930 . S
C3630 H3624 0.930 . S
C3630 C3631 1.355 . S
C3630 C3632 1.415 . S
C3631 C3630 1.355 . S
C3631 C3633 1.419 . S
C3632 C3630 1.415 . S
C3632 C3637 1.425 . S
C3632 C3639 1.409 . S
C3633 H3625 0.930 . S
C3633 C3631 1.419 . S
C3633 C3634 1.362 . S
C3634 H3626 0.930 . S
C3634 C3633 1.362 . S
C3634 C3637 1.409 . S
C3635 H3627 0.930 . S
C3635 C3636 1.355 . S
C3635 C3637 1.415 . S
C3636 C3635 1.355 . S
C3636 C3638 1.419 . S
C3637 C3632 1.425 . S
C3637 C3634 1.409 . S
C3637 C3635 1.415 . S
C3638 H3628 0.930 . S
C3638 C3636 1.419 . S
C3638 C3639 1.362 . S
C3639 H3629 0.930 . S
C3639 C3632 1.409 . S
C3639 C3638 1.362 . S
H3640 C3646 0.930 . S
H3641 C3649 0.930 . S
H3642 C3650 0.930 . S
H3643 C3651 0.930 . S
H3644 C3654 0.930 . S
H3645 C3655 0.930 . S
C3646 H3640 0.930 . S
C3646 C3647 1.355 . S
C3646 C3648 1.415 . S
C3647 C3646 1.355 . S
C3647 C3649 1.419 . S
C3648 C3646 1.415 . S
C3648 C3653 1.425 . S
C3648 C3655 1.409 . S
C3649 H3641 0.930 . S
C3649 C3647 1.419 . S
C3649 C3650 1.362 . S
C3650 H3642 0.930 . S
C3650 C3649 1.362 . S
C3650 C3653 1.409 . S
C3651 H3643 0.930 . S
C3651 C3652 1.355 . S
C3651 C3653 1.415 . S
C3652 C3651 1.355 . S
C3652 C3654 1.419 . S
C3653 C3648 1.425 . S
C3653 C3650 1.409 . S
C3653 C3651 1.415 . S
C3654 H3644 0.930 . S
C3654 C3652 1.419 . S
C3654 C3655 1.362 . S
C3655 H3645 0.930 . S
C3655 C3648 1.409 . S
C3655 C3654 1.362 . S
H3656 C3662 0.930 . S
H3657 C3665 0.930 . S
H3658 C3666 0.930 . S
H3659 C3667 0.930 . S
H3660 C3670 0.930 . S
H3661 C3671 0.930 . S
C3662 H3656 0.930 . S
C3662 C3663 1.355 . S
C3662 C3664 1.415 . S
C3663 C3662 1.355 . S
C3663 C3665 1.419 . S
C3664 C3662 1.415 . S
C3664 C3669 1.425 . S
C3664 C3671 1.409 . S
C3665 H3657 0.930 . S
C3665 C3663 1.419 . S
C3665 C3666 1.362 . S
C3666 H3658 0.930 . S
C3666 C3665 1.362 . S
C3666 C3669 1.409 . S
C3667 H3659 0.930 . S
C3667 C3668 1.355 . S
C3667 C3669 1.415 . S
C3668 C3667 1.355 . S
C3668 C3670 1.419 . S
C3669 C3664 1.425 . S
C3669 C3666 1.409 . S
C3669 C3667 1.415 . S
C3670 H3660 0.930 . S
C3670 C3668 1.419 . S
C3670 C3671 1.362 . S
C3671 H3661 0.930 . S
C3671 C3664 1.409 . S
C3671 C3670 1.362 . S
H3672 C3678 0.930 . S
H3673 C3681 0.930 . S
H3674 C3682 0.930 . S
H3675 C3683 0.930 . S
H3676 C3686 0.930 . S
H3677 C3687 0.930 . S
C3678 H3672 0.930 . S
C3678 C3679 1.355 . S
C3678 C3680 1.415 . S
C3679 C3678 1.355 . S
C3679 C3681 1.419 . S
C3680 C3678 1.415 . S
C3680 C3685 1.425 . S
C3680 C3687 1.409 . S
C3681 H3673 0.930 . S
C3681 C3679 1.419 . S
C3681 C3682 1.362 . S
C3682 H3674 0.930 . S
C3682 C3681 1.362 . S
C3682 C3685 1.409 . S
C3683 H3675 0.930 . S
C3683 C3684 1.355 . S
C3683 C3685 1.415 . S
C3684 C3683 1.355 . S
C3684 C3686 1.419 . S
C3685 C3680 1.425 . S
C3685 C3682 1.409 . S
C3685 C3683 1.415 . S
C3686 H3676 0.930 . S
C3686 C3684 1.419 . S
C3686 C3687 1.362 . S
C3687 H3677 0.930 . S
C3687 C3680 1.409 . S
C3687 C3686 1.362 . S
H3688 C3694 0.930 . S
H3689 C3697 0.930 . S
H3690 C3698 0.930 . S
H3691 C3699 0.930 . S
H3692 C3702 0.930 . S
H3693 C3703 0.930 . S
C3694 H3688 0.930 . S
C3694 C3695 1.355 . S
C3694 C3696 1.415 . S
C3695 C3694 1.355 . S
C3695 C3697 1.419 . S
C3696 C3694 1.415 . S
C3696 C3701 1.425 . S
C3696 C3703 1.409 . S
C3697 H3689 0.930 . S
C3697 C3695 1.419 . S
C3697 C3698 1.362 . S
C3698 H3690 0.930 . S
C3698 C3697 1.362 . S
C3698 C3701 1.409 . S
C3699 H3691 0.930 . S
C3699 C3700 1.355 . S
C3699 C3701 1.415 . S
C3700 C3699 1.355 . S
C3700 C3702 1.419 . S
C3701 C3696 1.425 . S
C3701 C3698 1.409 . S
C3701 C3699 1.415 . S
C3702 H3692 0.930 . S
C3702 C3700 1.419 . S
C3702 C3703 1.362 . S
C3703 H3693 0.930 . S
C3703 C3696 1.409 . S
C3703 C3702 1.362 . S
H3704 C3710 0.930 . S
H3705 C3713 0.930 . S
H3706 C3714 0.930 . S
H3707 C3715 0.930 . S
H3708 C3718 0.930 . S
H3709 C3719 0.930 . S
C3710 H3704 0.930 . S
C3710 C3711 1.355 . S
C3710 C3712 1.415 . S
C3711 C3710 1.355 . S
C3711 C3713 1.419 . S
C3712 C3710 1.415 . S
C3712 C3717 1.425 . S
C3712 C3719 1.409 . S
C3713 H3705 0.930 . S
C3713 C3711 1.419 . S
C3713 C3714 1.362 . S
C3714 H3706 0.930 . S
C3714 C3713 1.362 . S
C3714 C3717 1.409 . S
C3715 H3707 0.930 . S
C3715 C3716 1.355 . S
C3715 C3717 1.415 . S
C3716 C3715 1.355 . S
C3716 C3718 1.419 . S
C3717 C3712 1.425 . S
C3717 C3714 1.409 . S
C3717 C3715 1.415 . S
C3718 H3708 0.930 . S
C3718 C3716 1.419 . S
C3718 C3719 1.362 . S
C3719 H3709 0.930 . S
C3719 C3712 1.409 . S
C3719 C3718 1.362 . S
H3720 C3726 0.930 . S
H3721 C3729 0.930 . S
H3722 C3730 0.930 . S
H3723 C3731 0.930 . S
H3724 C3734 0.930 . S
H3725 C3735 0.930 . S
C3726 H3720 0.930 . S
C3726 C3727 1.355 . S
C3726 C3728 1.415 . S
C3727 C3726 1.355 . S
C3727 C3729 1.419 . S
C3728 C3726 1.415 . S
C3728 C3733 1.425 . S
C3728 C3735 1.409 . S
C3729 H3721 0.930 . S
C3729 C3727 1.419 . S
C3729 C3730 1.362 . S
C3730 H3722 0.930 . S
C3730 C3729 1.362 . S
C3730 C3733 1.409 . S
C3731 H3723 0.930 . S
C3731 C3732 1.355 . S
C3731 C3733 1.415 . S
C3732 C3731 1.355 . S
C3732 C3734 1.419 . S
C3733 C3728 1.425 . S
C3733 C3730 1.409 . S
C3733 C3731 1.415 . S
C3734 H3724 0.930 . S
C3734 C3732 1.419 . S
C3734 C3735 1.362 . S
C3735 H3725 0.930 . S
C3735 C3728 1.409 . S
C3735 C3734 1.362 . S
H3736 C3742 0.930 . S
H3737 C3745 0.930 . S
H3738 C3746 0.930 . S
H3739 C3747 0.930 . S
H3740 C3750 0.930 . S
H3741 C3751 0.930 . S
C3742 H3736 0.930 . S
C3742 C3743 1.355 . S
C3742 C3744 1.415 . S
C3743 C3742 1.355 . S
C3743 C3745 1.419 . S
C3744 C3742 1.415 . S
C3744 C3749 1.425 . S
C3744 C3751 1.409 . S
C3745 H3737 0.930 . S
C3745 C3743 1.419 . S
C3745 C3746 1.362 . S
C3746 H3738 0.930 . S
C3746 C3745 1.362 . S
C3746 C3749 1.409 . S
C3747 H3739 0.930 . S
C3747 C3748 1.355 . S
C3747 C3749 1.415 . S
C3748 C3747 1.355 . S
C3748 C3750 1.419 . S
C3749 C3744 1.425 . S
C3749 C3746 1.409 . S
C3749 C3747 1.415 . S
C3750 H3740 0.930 . S
C3750 C3748 1.419 . S
C3750 C3751 1.362 . S
C3751 H3741 0.930 . S
C3751 C3744 1.409 . S
C3751 C3750 1.362 . S
H3752 C3758 0.930 . S
H3753 C3761 0.930 . S
H3754 C3762 0.930 . S
H3755 C3763 0.930 . S
H3756 C3766 0.930 . S
H3757 C3767 0.930 . S
C3758 H3752 0.930 . S
C3758 C3759 1.355 . S
C3758 C3760 1.415 . S
C3759 C3758 1.355 . S
C3759 C3761 1.419 . S
C3760 C3758 1.415 . S
C3760 C3765 1.425 . S
C3760 C3767 1.409 . S
C3761 H3753 0.930 . S
C3761 C3759 1.419 . S
C3761 C3762 1.362 . S
C3762 H3754 0.930 . S
C3762 C3761 1.362 . S
C3762 C3765 1.409 . S
C3763 H3755 0.930 . S
C3763 C3764 1.355 . S
C3763 C3765 1.415 . S
C3764 C3763 1.355 . S
C3764 C3766 1.419 . S
C3765 C3760 1.425 . S
C3765 C3762 1.409 . S
C3765 C3763 1.415 . S
C3766 H3756 0.930 . S
C3766 C3764 1.419 . S
C3766 C3767 1.362 . S
C3767 H3757 0.930 . S
C3767 C3760 1.409 . S
C3767 C3766 1.362 . S
H3768 C3774 0.930 . S
H3769 C3777 0.930 . S
H3770 C3778 0.930 . S
H3771 C3779 0.930 . S
H3772 C3782 0.930 . S
H3773 C3783 0.930 . S
C3774 H3768 0.930 . S
C3774 C3775 1.355 . S
C3774 C3776 1.415 . S
C3775 C3774 1.355 . S
C3775 C3777 1.419 . S
C3776 C3774 1.415 . S
C3776 C3781 1.425 . S
C3776 C3783 1.409 . S
C3777 H3769 0.930 . S
C3777 C3775 1.419 . S
C3777 C3778 1.362 . S
C3778 H3770 0.930 . S
C3778 C3777 1.362 . S
C3778 C3781 1.409 . S
C3779 H3771 0.930 . S
C3779 C3780 1.355 . S
C3779 C3781 1.415 . S
C3780 C3779 1.355 . S
C3780 C3782 1.419 . S
C3781 C3776 1.425 . S
C3781 C3778 1.409 . S
C3781 C3779 1.415 . S
C3782 H3772 0.930 . S
C3782 C3780 1.419 . S
C3782 C3783 1.362 . S
C3783 H3773 0.930 . S
C3783 C3776 1.409 . S
C3783 C3782 1.362 . S
H3784 C3790 0.930 . S
H3785 C3793 0.930 . S
H3786 C3794 0.930 . S
H3787 C3795 0.930 . S
H3788 C3798 0.930 . S
H3789 C3799 0.930 . S
C3790 H3784 0.930 . S
C3790 C3791 1.355 . S
C3790 C3792 1.415 . S
C3791 C3790 1.355 . S
C3791 C3793 1.419 . S
C3792 C3790 1.415 . S
C3792 C3797 1.425 . S
C3792 C3799 1.409 . S
C3793 H3785 0.930 . S
C3793 C3791 1.419 . S
C3793 C3794 1.362 . S
C3794 H3786 0.930 . S
C3794 C3793 1.362 . S
C3794 C3797 1.409 . S
C3795 H3787 0.930 . S
C3795 C3796 1.355 . S
C3795 C3797 1.415 . S
C3796 C3795 1.355 . S
C3796 C3798 1.419 . S
C3797 C3792 1.425 . S
C3797 C3794 1.409 . S
C3797 C3795 1.415 . S
C3798 H3788 0.930 . S
C3798 C3796 1.419 . S
C3798 C3799 1.362 . S
C3799 H3789 0.930 . S
C3799 C3792 1.409 . S
C3799 C3798 1.362 . S
H3800 C3806 0.930 . S
H3801 C3809 0.930 . S
H3802 C3810 0.930 . S
H3803 C3811 0.930 . S
H3804 C3814 0.930 . S
H3805 C3815 0.930 . S
C3806 H3800 0.930 . S
C3806 C3807 1.355 . S
C3806 C3808 1.415 . S
C3807 C3806 1.355 . S
C3807 C3809 1.419 . S
C3808 C3806 1.415 . S
C3808 C3813 1.425 . S
C3808 C3815 1.409 . S
C3809 H3801 0.930 . S
C3809 C3807 1.419 . S
C3809 C3810 1.362 . S
C3810 H3802 0.930 . S
C3810 C3809 1.362 . S
C3810 C3813 1.409 . S
C3811 H3803 0.930 . S
C3811 C3812 1.355 . S
C3811 C3813 1.415 . S
C3812 C3811 1.355 . S
C3812 C3814 1.419 . S
C3813 C3808 1.425 . S
C3813 C3810 1.409 . S
C3813 C3811 1.415 . S
C3814 H3804 0.930 . S
C3814 C3812 1.419 . S
C3814 C3815 1.362 . S
C3815 H3805 0.930 . S
C3815 C3808 1.409 . S
C3815 C3814 1.362 . S
H3816 C3822 0.930 . S
H3817 C3825 0.930 . S
H3818 C3826 0.930 . S
H3819 C3827 0.930 . S
H3820 C3830 0.930 . S
H3821 C3831 0.930 . S
C3822 H3816 0.930 . S
C3822 C3823 1.355 . S
C3822 C3824 1.415 . S
C3823 C3822 1.355 . S
C3823 C3825 1.419 . S
C3824 C3822 1.415 . S
C3824 C3829 1.425 . S
C3824 C3831 1.409 . S
C3825 H3817 0.930 . S
C3825 C3823 1.419 . S
C3825 C3826 1.362 . S
C3826 H3818 0.930 . S
C3826 C3825 1.362 . S
C3826 C3829 1.409 . S
C3827 H3819 0.930 . S
C3827 C3828 1.355 . S
C3827 C3829 1.415 . S
C3828 C3827 1.355 . S
C3828 C3830 1.419 . S
C3829 C3824 1.425 . S
C3829 C3826 1.409 . S
C3829 C3827 1.415 . S
C3830 H3820 0.930 . S
C3830 C3828 1.419 . S
C3830 C3831 1.362 . S
C3831 H3821 0.930 . S
C3831 C3824 1.409 . S
C3831 C3830 1.362 . S
H3832 C3838 0.930 . S
H3833 C3841 0.930 . S
H3834 C3842 0.930 . S
H3835 C3843 0.930 . S
H3836 C3846 0.930 . S
H3837 C3847 0.930 . S
C3838 H3832 0.930 . S
C3838 C3839 1.355 . S
C3838 C3840 1.415 . S
C3839 C3838 1.355 . S
C3839 C3841 1.419 . S
C3840 C3838 1.415 . S
C3840 C3845 1.425 . S
C3840 C3847 1.409 . S
C3841 H3833 0.930 . S
C3841 C3839 1.419 . S
C3841 C3842 1.362 . S
C3842 H3834 0.930 . S
C3842 C3841 1.362 . S
C3842 C3845 1.409 . S
C3843 H3835 0.930 . S
C3843 C3844 1.355 . S
C3843 C3845 1.415 . S
C3844 C3843 1.355 . S
C3844 C3846 1.419 . S
C3845 C3840 1.425 . S
C3845 C3842 1.409 . S
C3845 C3843 1.415 . S
C3846 H3836 0.930 . S
C3846 C3844 1.419 . S
C3846 C3847 1.362 . S
C3847 H3837 0.930 . S
C3847 C3840 1.409 . S
C3847 C3846 1.362 . S
H3848 C3854 0.930 . S
H3849 C3857 0.930 . S
H3850 C3858 0.930 . S
H3851 C3859 0.930 . S
H3852 C3862 0.930 . S
H3853 C3863 0.930 . S
C3854 H3848 0.930 . S
C3854 C3855 1.355 . S
C3854 C3856 1.415 . S
C3855 C3854 1.355 . S
C3855 C3857 1.419 . S
C3856 C3854 1.415 . S
C3856 C3861 1.425 . S
C3856 C3863 1.409 . S
C3857 H3849 0.930 . S
C3857 C3855 1.419 . S
C3857 C3858 1.362 . S
C3858 H3850 0.930 . S
C3858 C3857 1.362 . S
C3858 C3861 1.409 . S
C3859 H3851 0.930 . S
C3859 C3860 1.355 . S
C3859 C3861 1.415 . S
C3860 C3859 1.355 . S
C3860 C3862 1.419 . S
C3861 C3856 1.425 . S
C3861 C3858 1.409 . S
C3861 C3859 1.415 . S
C3862 H3852 0.930 . S
C3862 C3860 1.419 . S
C3862 C3863 1.362 . S
C3863 H3853 0.930 . S
C3863 C3856 1.409 . S
C3863 C3862 1.362 . S
H3864 C3870 0.930 . S
H3865 C3873 0.930 . S
H3866 C3874 0.930 . S
H3867 C3875 0.930 . S
H3868 C3878 0.930 . S
H3869 C3879 0.930 . S
C3870 H3864 0.930 . S
C3870 C3871 1.355 . S
C3870 C3872 1.415 . S
C3871 C3870 1.355 . S
C3871 C3873 1.419 . S
C3872 C3870 1.415 . S
C3872 C3877 1.425 . S
C3872 C3879 1.409 . S
C3873 H3865 0.930 . S
C3873 C3871 1.419 . S
C3873 C3874 1.362 . S
C3874 H3866 0.930 . S
C3874 C3873 1.362 . S
C3874 C3877 1.409 . S
C3875 H3867 0.930 . S
C3875 C3876 1.355 . S
C3875 C3877 1.415 . S
C3876 C3875 1.355 . S
C3876 C3878 1.419 . S
C3877 C3872 1.425 . S
C3877 C3874 1.409 . S
C3877 C3875 1.415 . S
C3878 H3868 0.930 . S
C3878 C3876 1.419 . S
C3878 C3879 1.362 . S
C3879 H3869 0.930 . S
C3879 C3872 1.409 . S
C3879 C3878 1.362 . S
H3880 C3886 0.930 . S
H3881 C3889 0.930 . S
H3882 C3890 0.930 . S
H3883 C3891 0.930 . S
H3884 C3894 0.930 . S
H3885 C3895 0.930 . S
C3886 H3880 0.930 . S
C3886 C3887 1.355 . S
C3886 C3888 1.415 . S
C3887 C3886 1.355 . S
C3887 C3889 1.419 . S
C3888 C3886 1.415 . S
C3888 C3893 1.425 . S
C3888 C3895 1.409 . S
C3889 H3881 0.930 . S
C3889 C3887 1.419 . S
C3889 C3890 1.362 . S
C3890 H3882 0.930 . S
C3890 C3889 1.362 . S
C3890 C3893 1.409 . S
C3891 H3883 0.930 . S
C3891 C3892 1.355 . S
C3891 C3893 1.415 . S
C3892 C3891 1.355 . S
C3892 C3894 1.419 . S
C3893 C3888 1.425 . S
C3893 C3890 1.409 . S
C3893 C3891 1.415 . S
C3894 H3884 0.930 . S
C3894 C3892 1.419 . S
C3894 C3895 1.362 . S
C3895 H3885 0.930 . S
C3895 C3888 1.409 . S
C3895 C3894 1.362 . S
H3896 C3902 0.930 . S
H3897 C3905 0.930 . S
H3898 C3906 0.930 . S
H3899 C3907 0.930 . S
H3900 C3910 0.930 . S
H3901 C3911 0.930 . S
C3902 H3896 0.930 . S
C3902 C3903 1.355 . S
C3902 C3904 1.415 . S
C3903 C3902 1.355 . S
C3903 C3905 1.419 . S
C3904 C3902 1.415 . S
C3904 C3909 1.425 . S
C3904 C3911 1.409 . S
C3905 H3897 0.930 . S
C3905 C3903 1.419 . S
C3905 C3906 1.362 . S
C3906 H3898 0.930 . S
C3906 C3905 1.362 . S
C3906 C3909 1.409 . S
C3907 H3899 0.930 . S
C3907 C3908 1.355 . S
C3907 C3909 1.415 . S
C3908 C3907 1.355 . S
C3908 C3910 1.419 . S
C3909 C3904 1.425 . S
C3909 C3906 1.409 . S
C3909 C3907 1.415 . S
C3910 H3900 0.930 . S
C3910 C3908 1.419 . S
C3910 C3911 1.362 . S
C3911 H3901 0.930 . S
C3911 C3904 1.409 . S
C3911 C3910 1.362 . S
H3912 C3918 0.930 . S
H3913 C3921 0.930 . S
H3914 C3922 0.930 . S
H3915 C3923 0.930 . S
H3916 C3926 0.930 . S
H3917 C3927 0.930 . S
C3918 H3912 0.930 . S
C3918 C3919 1.355 . S
C3918 C3920 1.415 . S
C3919 C3918 1.355 . S
C3919 C3921 1.419 . S
C3920 C3918 1.415 . S
C3920 C3925 1.425 . S
C3920 C3927 1.409 . S
C3921 H3913 0.930 . S
C3921 C3919 1.419 . S
C3921 C3922 1.362 . S
C3922 H3914 0.930 . S
C3922 C3921 1.362 . S
C3922 C3925 1.409 . S
C3923 H3915 0.930 . S
C3923 C3924 1.355 . S
C3923 C3925 1.415 . S
C3924 C3923 1.355 . S
C3924 C3926 1.419 . S
C3925 C3920 1.425 . S
C3925 C3922 1.409 . S
C3925 C3923 1.415 . S
C3926 H3916 0.930 . S
C3926 C3924 1.419 . S
C3926 C3927 1.362 . S
C3927 H3917 0.930 . S
C3927 C3920 1.409 . S
C3927 C3926 1.362 . S
H3928 C3934 0.930 . S
H3929 C3937 0.930 . S
H3930 C3938 0.930 . S
H3931 C3939 0.930 . S
H3932 C3942 0.930 . S
H3933 C3943 0.930 . S
C3934 H3928 0.930 . S
C3934 C3935 1.355 . S
C3934 C3936 1.415 . S
C3935 C3934 1.355 . S
C3935 C3937 1.419 . S
C3936 C3934 1.415 . S
C3936 C3941 1.425 . S
C3936 C3943 1.409 . S
C3937 H3929 0.930 . S
C3937 C3935 1.419 . S
C3937 C3938 1.362 . S
C3938 H3930 0.930 . S
C3938 C3937 1.362 . S
C3938 C3941 1.409 . S
C3939 H3931 0.930 . S
C3939 C3940 1.355 . S
C3939 C3941 1.415 . S
C3940 C3939 1.355 . S
C3940 C3942 1.419 . S
C3941 C3936 1.425 . S
C3941 C3938 1.409 . S
C3941 C3939 1.415 . S
C3942 H3932 0.930 . S
C3942 C3940 1.419 . S
C3942 C3943 1.362 . S
C3943 H3933 0.930 . S
C3943 C3936 1.409 . S
C3943 C3942 1.362 . S
H3944 C3950 0.930 . S
H3945 C3953 0.930 . S
H3946 C3954 0.930 . S
H3947 C3955 0.930 . S
H3948 C3958 0.930 . S
H3949 C3959 0.930 . S
C3950 H3944 0.930 . S
C3950 C3951 1.355 . S
C3950 C3952 1.415 . S
C3951 C3950 1.355 . S
C3951 C3953 1.419 . S
C3952 C3950 1.415 . S
C3952 C3957 1.425 . S
C3952 C3959 1.409 . S
C3953 H3945 0.930 . S
C3953 C3951 1.419 . S
C3953 C3954 1.362 . S
C3954 H3946 0.930 . S
C3954 C3953 1.362 . S
C3954 C3957 1.409 . S
C3955 H3947 0.930 . S
C3955 C3956 1.355 . S
C3955 C3957 1.415 . S
C3956 C3955 1.355 . S
C3956 C3958 1.419 . S
C3957 C3952 1.425 . S
C3957 C3954 1.409 . S
C3957 C3955 1.415 . S
C3958 H3948 0.930 . S
C3958 C3956 1.419 . S
C3958 C3959 1.362 . S
C3959 H3949 0.930 . S
C3959 C3952 1.409 . S
C3959 C3958 1.362 . S
H3960 C3966 0.930 . S
H3961 C3969 0.930 . S
H3962 C3970 0.930 . S
H3963 C3971 0.930 . S
H3964 C3974 0.930 . S
H3965 C3975 0.930 . S
C3966 H3960 0.930 . S
C3966 C3967 1.355 . S
C3966 C3968 1.415 . S
C3967 C3966 1.355 . S
C3967 C3969 1.419 . S
C3968 C3966 1.415 . S
C3968 C3973 1.425 . S
C3968 C3975 1.409 . S
C3969 H3961 0.930 . S
C3969 C3967 1.419 . S
C3969 C3970 1.362 . S
C3970 H3962 0.930 . S
C3970 C3969 1.362 . S
C3970 C3973 1.409 . S
C3971 H3963 0.930 . S
C3971 C3972 1.355 . S
C3971 C3973 1.415 . S
C3972 C3971 1.355 . S
C3972 C3974 1.419 . S
C3973 C3968 1.425 . S
C3973 C3970 1.409 . S
C3973 C3971 1.415 . S
C3974 H3964 0.930 . S
C3974 C3972 1.419 . S
C3974 C3975 1.362 . S
C3975 H3965 0.930 . S
C3975 C3968 1.409 . S
C3975 C3974 1.362 . S
H3976 C3982 0.930 . S
H3977 C3985 0.930 . S
H3978 C3986 0.930 . S
H3979 C3987 0.930 . S
H3980 C3990 0.930 . S
H3981 C3991 0.930 . S
C3982 H3976 0.930 . S
C3982 C3983 1.355 . S
C3982 C3984 1.415 . S
C3983 C3982 1.355 . S
C3983 C3985 1.419 . S
C3984 C3982 1.415 . S
C3984 C3989 1.425 . S
C3984 C3991 1.409 . S
C3985 H3977 0.930 . S
C3985 C3983 1.419 . S
C3985 C3986 1.362 . S
C3986 H3978 0.930 . S
C3986 C3985 1.362 . S
C3986 C3989 1.409 . S
C3987 H3979 0.930 . S
C3987 C3988 1.355 . S
C3987 C3989 1.415 . S
C3988 C3987 1.355 . S
C3988 C3990 1.419 . S
C3989 C3984 1.425 . S
C3989 C3986 1.409 . S
C3989 C3987 1.415 . S
C3990 H3980 0.930 . S
C3990 C3988 1.419 . S
C3990 C3991 1.362 . S
C3991 H3981 0.930 . S
C3991 C3984 1.409 . S
C3991 C3990 1.362 . S
H3992 C3998 0.930 . S
H3993 C4001 0.930 . S
H3994 C4002 0.930 . S
H3995 C4003 0.930 . S
H3996 C4006 0.930 . S
H3997 C4007 0.930 . S
C3998 H3992 0.930 . S
C3998 C3999 1.355 . S
C3998 C4000 1.415 . S
C3999 C3998 1.355 . S
C3999 C4001 1.419 . S
C4000 C3998 1.415 . S
C4000 C4005 1.425 . S
C4000 C4007 1.409 . S
C4001 H3993 0.930 . S
C4001 C3999 1.419 . S
C4001 C4002 1.362 . S
C4002 H3994 0.930 . S
C4002 C4001 1.362 . S
C4002 C4005 1.409 . S
C4003 H3995 0.930 . S
C4003 C4004 1.355 . S
C4003 C4005 1.415 . S
C4004 C4003 1.355 . S
C4004 C4006 1.419 . S
C4005 C4000 1.425 . S
C4005 C4002 1.409 . S
C4005 C4003 1.415 . S
C4006 H3996 0.930 . S
C4006 C4004 1.419 . S
C4006 C4007 1.362 . S
C4007 H3997 0.930 . S
C4007 C4000 1.409 . S
C4007 C4006 1.362 . S
C2484 N1932 1.414 . S
C2479 C1 1.426 . S
C2500 C1959 1.599 . S
C2495 C80 1.558 . S
C2511 C140 1.510 . S
C2516 C1973 1.503 . S
C2532 N1991 1.413 . S
C2527 C211 1.460 . S
C2543 C241 1.563 . S
C2548 C1996 1.569 . S
C2559 C320 1.505 . S
C2564 C1936 1.508 . S
C2575 C391 1.431 . S
C2580 N1955 1.395 . S
C2596 N1968 1.433 . S
C2591 C421 1.452 . S
C2612 N2014 1.367 . S
C2607 C31 1.399 . S
C2623 C61 1.481 . S
C2628 N2037 1.520 . S
C2639 C121 1.501 . S
C2644 N2060 1.571 . S
C2660 N2093 1.443 . S
C2655 C181 1.439 . S
C2671 C260 1.533 . S
C2676 C2120 1.545 . S
C2692 C2143 1.565 . S
C2687 C331 1.536 . S
C2703 C380 1.481 . S
C2708 C2166 1.505 . S
C2724 C2180 1.427 . S
C2719 C440 1.374 . S
C2735 C20 1.429 . S
C2740 C2097 1.435 . S
C2751 C271 1.456 . S
C2756 N2139 1.423 . S
C2772 N2162 1.465 . S
C2767 C301 1.435 . S
C2783 C361 1.479 . S
C2788 N2175 1.410 . S
C2804 N2116 1.374 . S
C2799 C451 1.429 . S
C2820 C2042 1.650 . S
C2815 C151 1.648 . S
C2831 C200 1.495 . S
C2836 C2065 1.508 . S
C2852 C2019 1.605 . S
C2847 C91 1.585 . S
C2868 C2212 1.450 . S
C2863 C500 1.433 . S
C2879 C560 1.583 . S
C2884 C2226 1.609 . S
C2895 C620 1.503 . S
C2900 N2254 1.439 . S
C2916 N2267 1.448 . S
C2911 C691 1.474 . S
C2927 C721 1.567 . S
C2932 C2272 1.595 . S
C2943 C811 1.463 . S
C2948 N2208 1.421 . S
C2959 C871 1.456 . S
C2964 N2221 1.511 . S
C2975 C901 1.398 . S
C2980 C2258 1.422 . S
C2996 N2106 1.396 . S
C2991 C511 1.407 . S
C3007 C541 1.482 . S
C3012 N2290 1.475 . S
C3028 N2152 1.428 . S
C3023 C601 1.444 . S
C3039 C661 1.500 . S
C3044 C2327 1.510 . S
C3055 C740 1.532 . S
C3060 C2028 1.566 . S
C3076 C2341 1.592 . S
C3071 C781 1.585 . S
C3087 C860 1.528 . S
C3092 C2074 1.543 . S
C3108 N2359 1.364 . S
C3103 C920 1.381 . S
C3119 C481 1.464 . S
C3124 N2323 1.433 . S
C3140 N2336 1.465 . S
C3135 C751 1.485 . S
C3151 C800 1.453 . S
C3156 N2070 1.458 . S
C3172 C2364 1.433 . S
C3167 C841 1.397 . S
C3183 C931 1.426 . S
C3188 N2024 1.421 . S
C3199 C631 1.518 . S
C3204 C2295 1.551 . S
C3215 C680 1.548 . S
C3220 C2157 1.546 . S
C3231 C571 1.588 . S
C3236 C2111 1.595 . S
C3247 C961 1.453 . S
C3252 C2249 1.505 . S
C3268 C2281 1.535 . S
C3263 C1040 1.529 . S
C3279 C1100 1.439 . S
C3284 N2198 1.460 . S
C3295 C1171 1.449 . S
C3300 N2231 1.428 . S
C3311 C1201 1.583 . S
C3316 C2235 1.592 . S
C3327 C1291 1.521 . S
C3332 N2244 1.506 . S
C3348 N2277 1.393 . S
C3343 C1351 1.376 . S
C3359 C1381 1.477 . S
C3364 C2203 1.495 . S
C3380 N2392 1.391 . S
C3375 C991 1.413 . S
C3391 C1021 1.461 . S
C3396 N2129 1.432 . S
C3412 N2415 1.410 . S
C3407 C1081 1.424 . S
C3423 C1141 1.475 . S
C3428 N2185 1.475 . S
C3439 C1220 1.531 . S
C3444 C2433 1.548 . S
C3455 C1261 1.649 . S
C3460 C2051 1.658 . S
C3476 N2451 1.373 . S
C3471 C1340 1.399 . S
C3487 C1400 1.457 . S
C3492 C2088 1.469 . S
C3508 C2189 1.479 . S
C3503 C980 1.476 . S
C3524 N2047 1.494 . S
C3519 C1231 1.541 . S
C3535 C1280 1.534 . S
C3540 C2456 1.558 . S
C3551 C1321 1.396 . S
C3556 N2083 1.360 . S
C3572 N2428 1.459 . S
C3567 C1411 1.470 . S
C3588 C2134 1.569 . S
C3583 C1111 1.521 . S
C3604 C2419 1.560 . S
C3599 C1160 1.534 . S
C3620 C2396 1.564 . S
C3615 C1051 1.540 . S
C3631 C1460 1.399 . S
C3636 N1978 1.393 . S
C3647 C1520 1.565 . S
C3652 C2005 1.544 . S
C3668 C1927 1.537 . S
C3663 C1580 1.497 . S
C3684 N1945 1.350 . S
C3679 C1651 1.401 . S
C3700 C1950 1.582 . S
C3695 C1681 1.594 . S
C3716 C1982 1.509 . S
C3711 C1760 1.527 . S
C3732 N2001 1.469 . S
C3727 C1831 1.462 . S
C3743 C1861 1.457 . S
C3748 N1922 1.447 . S
C3759 C1471 1.365 . S
C3764 N2438 1.376 . S
C3780 N2346 1.490 . S
C3775 C1501 1.470 . S
C3796 C2465 1.579 . S
C3791 C1561 1.538 . S
C3812 C2373 1.371 . S
C3807 C1621 1.381 . S
C3823 C1700 1.553 . S
C3828 C2387 1.584 . S
C3844 C2304 1.567 . S
C3839 C1771 1.542 . S
C3860 C2410 1.641 . S
C3855 C1820 1.609 . S
C3871 C1880 1.458 . S
C3876 N2313 1.448 . S
C3892 N2369 1.382 . S
C3887 C1441 1.374 . S
C3908 N2300 1.486 . S
C3903 C1711 1.484 . S
C3924 N2405 1.389 . S
C3919 C1741 1.424 . S
C3935 C1801 1.475 . S
C3940 C2318 1.509 . S
C3951 C1891 1.432 . S
C3956 N2382 1.425 . S
C3967 C1591 1.621 . S
C3972 C2350 1.661 . S
C3983 C1640 1.440 . S
C3988 N2461 1.367 . S
C4004 C2442 1.530 . S
C3999 C1531 1.516 . S
