# Generated by pormake.
# Topology apo, (3,6)-cn, num edge types: 1
# Building blocks:
#     Node 0, Type 0, BuildingBlock: BELTOD_clean_linker_0, # of connection points: 3
#     Node 1, Type 0, BuildingBlock: BELTOD_clean_linker_0, # of connection points: 3
#     Node 2, Type 0, BuildingBlock: BELTOD_clean_linker_0, # of connection points: 3
#     Node 3, Type 0, BuildingBlock: BELTOD_clean_linker_0, # of connection points: 3
#     Node 4, Type 0, BuildingBlock: BELTOD_clean_linker_0, # of connection points: 3
#     Node 5, Type 0, BuildingBlock: BELTOD_clean_linker_0, # of connection points: 3
#     Node 6, Type 0, BuildingBlock: BELTOD_clean_linker_0, # of connection points: 3
#     Node 7, Type 0, BuildingBlock: BELTOD_clean_linker_0, # of connection points: 3
#     Node 8, Type 1, BuildingBlock: MIDCAF_clean_sbu_0, # of connection points: 6
#     Node 9, Type 1, BuildingBlock: MIDCAF_clean_sbu_0, # of connection points: 6
#     Node 10, Type 1, BuildingBlock: MIDCAF_clean_sbu_0, # of connection points: 6
#     Node 11, Type 1, BuildingBlock: MIDCAF_clean_sbu_0, # of connection points: 6
#     Edge 12, Type (0, 1), BuildingBlock: ZUJKAS_clean_linker_0, # of connection points: 2
#     Edge 13, Type (0, 1), BuildingBlock: ZUJKAS_clean_linker_0, # of connection points: 2
#     Edge 14, Type (0, 1), BuildingBlock: ZUJKAS_clean_linker_0, # of connection points: 2
#     Edge 15, Type (0, 1), BuildingBlock: ZUJKAS_clean_linker_0, # of connection points: 2
#     Edge 16, Type (0, 1), BuildingBlock: ZUJKAS_clean_linker_0, # of connection points: 2
#     Edge 17, Type (0, 1), BuildingBlock: ZUJKAS_clean_linker_0, # of connection points: 2
#     Edge 18, Type (0, 1), BuildingBlock: ZUJKAS_clean_linker_0, # of connection points: 2
#     Edge 19, Type (0, 1), BuildingBlock: ZUJKAS_clean_linker_0, # of connection points: 2
#     Edge 20, Type (0, 1), BuildingBlock: ZUJKAS_clean_linker_0, # of connection points: 2
#     Edge 21, Type (0, 1), BuildingBlock: ZUJKAS_clean_linker_0, # of connection points: 2
#     Edge 22, Type (0, 1), BuildingBlock: ZUJKAS_clean_linker_0, # of connection points: 2
#     Edge 23, Type (0, 1), BuildingBlock: ZUJKAS_clean_linker_0, # of connection points: 2
#     Edge 24, Type (0, 1), BuildingBlock: ZUJKAS_clean_linker_0, # of connection points: 2
#     Edge 25, Type (0, 1), BuildingBlock: ZUJKAS_clean_linker_0, # of connection points: 2
#     Edge 26, Type (0, 1), BuildingBlock: ZUJKAS_clean_linker_0, # of connection points: 2
#     Edge 27, Type (0, 1), BuildingBlock: ZUJKAS_clean_linker_0, # of connection points: 2
#     Edge 28, Type (0, 1), BuildingBlock: ZUJKAS_clean_linker_0, # of connection points: 2
#     Edge 29, Type (0, 1), BuildingBlock: ZUJKAS_clean_linker_0, # of connection points: 2
#     Edge 30, Type (0, 1), BuildingBlock: ZUJKAS_clean_linker_0, # of connection points: 2
#     Edge 31, Type (0, 1), BuildingBlock: ZUJKAS_clean_linker_0, # of connection points: 2
#     Edge 32, Type (0, 1), BuildingBlock: ZUJKAS_clean_linker_0, # of connection points: 2
#     Edge 33, Type (0, 1), BuildingBlock: ZUJKAS_clean_linker_0, # of connection points: 2
#     Edge 34, Type (0, 1), BuildingBlock: ZUJKAS_clean_linker_0, # of connection points: 2
#     Edge 35, Type (0, 1), BuildingBlock: ZUJKAS_clean_linker_0, # of connection points: 2
# Relax obj value: 0.078
# Max RMSD: 0.096
# Mean RMSD: 0.083
data_MOF--net-apo--node1-MIDCAF_clean_sbu_0--node2-BELTOD_clean_linker_0--edge1-ZUJKAS_clean_linker_0
_symmetry_space_group_name_H-M    P1
_symmetry_Int_Tables_number       1
_symmetry_cell_setting            triclinic
loop_
_symmetry_equiv_pos_as_xyz
'x, y, z'
_cell_length_a     50.083971
_cell_length_b     59.482446
_cell_length_c     52.997689
_cell_angle_alpha  89.683249
_cell_angle_beta   89.960236
_cell_angle_gamma 90.273224
loop_
_atom_site_label
_atom_site_type_symbol
_atom_site_fract_x
_atom_site_fract_y
_atom_site_fract_z
_atom_type_partial_charge
P0 P 0.3586 0.304 0.37753 0.0
H1 H 0.37378 0.27199 0.41694 0.0
H2 H 0.37485 0.2743 0.46273 0.0
H3 H 0.33626 0.33913 0.45891 0.0
H4 H 0.33629 0.33696 0.41275 0.0
H5 H 0.34899 0.29023 0.326 0.0
H6 H 0.30921 0.27753 0.30342 0.0
H7 H 0.26203 0.28726 0.37075 0.0
H8 H 0.30196 0.30025 0.39313 0.0
H9 H 0.41009 0.32612 0.38231 0.0
H10 H 0.33365 0.34118 0.34903 0.0
O11 O 0.38182 0.28508 0.37019 0.0
H12 H 0.428 0.36173 0.36626 0.0
H13 H 0.35134 0.37696 0.3331 0.0
C14 C 0.35537 0.30447 0.41143 0.0
C15 C 0.36535 0.28664 0.42593 0.0
C16 C 0.36571 0.28791 0.45225 0.0
C17 C 0.3558 0.30699 0.46471 0.0
C18 C 0.34454 0.32437 0.45003 0.0
C19 C 0.34437 0.32311 0.42363 0.0
C20 C 0.3285 0.29583 0.36131 0.0
C21 C 0.33005 0.28967 0.33588 0.0
C22 C 0.30731 0.28236 0.32301 0.0
C23 C 0.28246 0.28118 0.33532 0.0
C24 C 0.28082 0.2881 0.36066 0.0
C25 C 0.30368 0.29538 0.37355 0.0
C26 C 0.37072 0.33087 0.36653 0.0
C27 C 0.39715 0.33715 0.3716 0.0
C28 C 0.40731 0.35757 0.36252 0.0
C29 C 0.39115 0.37214 0.34825 0.0
C30 C 0.36444 0.36594 0.34365 0.0
C31 C 0.35426 0.34552 0.35284 0.0
P32 P 0.21427 0.1309 0.90761 0.0
H33 H 0.21684 0.10008 0.86552 0.0
H34 H 0.18299 0.07938 0.8419 0.0
H35 H 0.12117 0.11005 0.88683 0.0
H36 H 0.15531 0.13065 0.91056 0.0
H37 H 0.25992 0.15991 0.91693 0.0
H38 H 0.28476 0.18625 0.89012 0.0
H39 H 0.22686 0.17672 0.83066 0.0
H40 H 0.20177 0.15094 0.85779 0.0
H41 H 0.20826 0.10793 0.95576 0.0
H42 H 0.19262 0.17399 0.92557 0.0
O43 O 0.2384 0.11226 0.91315 0.0
H44 H 0.19104 0.11943 0.99673 0.0
H45 H 0.17558 0.18585 0.96683 0.0
C46 C 0.18862 0.11657 0.89004 0.0
C47 C 0.19599 0.10237 0.87026 0.0
C48 C 0.17659 0.09071 0.85661 0.0
C49 C 0.14936 0.09305 0.86248 0.0
C50 C 0.142 0.10771 0.88204 0.0
C51 C 0.16149 0.1195 0.89561 0.0
C52 C 0.22918 0.1533 0.88933 0.0
C53 C 0.25234 0.16382 0.89828 0.0
C54 C 0.26664 0.17871 0.88283 0.0
C55 C 0.25806 0.18331 0.85805 0.0
C56 C 0.23401 0.17361 0.84963 0.0
C57 C 0.21969 0.15873 0.86515 0.0
C58 C 0.20217 0.14023 0.9378 0.0
C59 C 0.20143 0.12505 0.95808 0.0
C60 C 0.1917 0.1317 0.98156 0.0
C61 C 0.18223 0.15367 0.98521 0.0
C62 C 0.1827 0.16881 0.96467 0.0
C63 C 0.19255 0.16211 0.94112 0.0
P64 P 0.85972 0.19221 0.62553 0.0
H65 H 0.86752 0.22575 0.58583 0.0
H66 H 0.86829 0.22337 0.53995 0.0
H67 H 0.8435 0.15374 0.54473 0.0
H68 H 0.84362 0.15617 0.59085 0.0
H69 H 0.85032 0.21222 0.67449 0.0
H70 H 0.81009 0.22431 0.69645 0.0
H71 H 0.76205 0.20095 0.63403 0.0
H72 H 0.80265 0.18934 0.61193 0.0
H73 H 0.91117 0.1704 0.6209 0.0
H74 H 0.83532 0.15581 0.65603 0.0
O75 O 0.88284 0.21166 0.63194 0.0
H76 H 0.92933 0.13542 0.63797 0.0
H77 H 0.8532 0.12062 0.67292 0.0
C78 C 0.85612 0.19101 0.59172 0.0
C79 C 0.86204 0.21002 0.577 0.0
C80 C 0.86222 0.20867 0.55068 0.0
C81 C 0.8562 0.18828 0.5385 0.0
C82 C 0.84877 0.16958 0.55342 0.0
C83 C 0.8487 0.17095 0.5798 0.0
C84 C 0.82949 0.20036 0.64138 0.0
C85 C 0.83112 0.20977 0.66551 0.0
C86 C 0.80804 0.21646 0.67816 0.0
C87 C 0.78277 0.21369 0.667 0.0
C88 C 0.7812 0.20368 0.643 0.0
C89 C 0.80439 0.19698 0.63035 0.0
C90 C 0.87206 0.16584 0.63748 0.0
C91 C 0.89841 0.15961 0.63225 0.0
C92 C 0.90871 0.13954 0.6419 0.0
C93 C 0.89276 0.12526 0.65694 0.0
C94 C 0.86615 0.13142 0.66178 0.0
C95 C 0.85585 0.15151 0.65203 0.0
P96 P 0.71275 0.36402 0.10144 0.0
H97 H 0.71754 0.39845 0.13996 0.0
H98 H 0.68475 0.4188 0.16511 0.0
H99 H 0.62142 0.3792 0.132 0.0
H100 H 0.65445 0.35883 0.10691 0.0
H101 H 0.76524 0.34386 0.09646 0.0
H102 H 0.79007 0.31721 0.12248 0.0
H103 H 0.72136 0.30911 0.17114 0.0
H104 H 0.69673 0.33606 0.14509 0.0
H105 H 0.67788 0.38623 0.0657 0.0
H106 H 0.71639 0.32179 0.07223 0.0
O107 O 0.73572 0.38328 0.09372 0.0
H108 H 0.65981 0.37559 0.02475 0.0
H109 H 0.69826 0.31094 0.03103 0.0
C110 C 0.68834 0.37764 0.12105 0.0
C111 C 0.69661 0.3941 0.13818 0.0
C112 C 0.67786 0.40558 0.15271 0.0
C113 C 0.65046 0.40071 0.1504 0.0
C114 C 0.64235 0.38354 0.1339 0.0
C115 C 0.66119 0.37193 0.11952 0.0
C116 C 0.72932 0.34217 0.11903 0.0
C117 C 0.75545 0.33621 0.11261 0.0
C118 C 0.76958 0.32087 0.12747 0.0
C119 C 0.75777 0.31112 0.14903 0.0
C120 C 0.73118 0.31659 0.15491 0.0
C121 C 0.71702 0.33191 0.13994 0.0
C122 C 0.69799 0.35466 0.07228 0.0
C123 C 0.68209 0.36962 0.05848 0.0
C124 C 0.67174 0.36349 0.03505 0.0
C125 C 0.67739 0.34232 0.0247 0.0
C126 C 0.69359 0.32738 0.03847 0.0
C127 C 0.70381 0.3335 0.06211 0.0
P128 P 0.70746 0.63985 0.59158 0.0
H129 H 0.72887 0.66382 0.54779 0.0
H130 H 0.70844 0.67598 0.50796 0.0
H131 H 0.63082 0.65709 0.53687 0.0
H132 H 0.65121 0.64505 0.57641 0.0
H133 H 0.75469 0.63559 0.62284 0.0
H134 H 0.77677 0.66063 0.65248 0.0
H135 H 0.71709 0.71134 0.63776 0.0
H136 H 0.69558 0.6862 0.60727 0.0
H137 H 0.68513 0.59556 0.58206 0.0
H138 H 0.67699 0.64698 0.63856 0.0
O139 O 0.73066 0.6227 0.57999 0.0
H140 H 0.6532 0.57187 0.60489 0.0
H141 H 0.64477 0.62345 0.66142 0.0
C142 C 0.69166 0.65325 0.56493 0.0
C143 C 0.70739 0.66274 0.5457 0.0
C144 C 0.6957 0.66969 0.52296 0.0
C145 C 0.66808 0.66712 0.51913 0.0
C146 C 0.65223 0.65885 0.53908 0.0
C147 C 0.6639 0.65204 0.56179 0.0
C148 C 0.7239 0.65926 0.61245 0.0
C149 C 0.74652 0.6522 0.62576 0.0
C150 C 0.75893 0.66646 0.64302 0.0
C151 C 0.7487 0.68804 0.64767 0.0
C152 C 0.72574 0.69497 0.63442 0.0
C153 C 0.71341 0.68065 0.61699 0.0
C154 C 0.68387 0.62279 0.60888 0.0
C155 C 0.67649 0.60172 0.59943 0.0
C156 C 0.65803 0.5883 0.61238 0.0
C157 C 0.64645 0.59577 0.63501 0.0
C158 C 0.65359 0.6171 0.64422 0.0
C159 C 0.67202 0.63057 0.63116 0.0
P160 P 0.84561 0.81146 0.1219 0.0
H161 H 0.8691 0.81934 0.17135 0.0
H162 H 0.88638 0.85296 0.19212 0.0
H163 H 0.86609 0.8925 0.12617 0.0
H164 H 0.84756 0.85907 0.10629 0.0
H165 H 0.81479 0.77003 0.11834 0.0
H166 H 0.77406 0.75678 0.13925 0.0
H167 H 0.76526 0.82156 0.17467 0.0
H168 H 0.80591 0.83476 0.15359 0.0
H169 H 0.8873 0.82669 0.08802 0.0
H170 H 0.80639 0.80241 0.08103 0.0
O171 O 0.86685 0.79087 0.12908 0.0
H172 H 0.89094 0.82931 0.04221 0.0
H173 H 0.81004 0.80474 0.0349 0.0
C174 C 0.85769 0.83661 0.13705 0.0
C175 C 0.86838 0.8353 0.16143 0.0
C176 C 0.87841 0.85454 0.17321 0.0
C177 C 0.87801 0.87552 0.16077 0.0
C178 C 0.86659 0.87677 0.1365 0.0
C179 C 0.85625 0.85755 0.12491 0.0
C180 C 0.81347 0.80331 0.13445 0.0
C181 C 0.80385 0.78149 0.13029 0.0
C182 C 0.78055 0.77396 0.14224 0.0
C183 C 0.76653 0.78808 0.15876 0.0
C184 C 0.77582 0.81019 0.16231 0.0
C185 C 0.79901 0.81778 0.15014 0.0
C186 C 0.8465 0.81466 0.08801 0.0
C187 C 0.87018 0.82218 0.07661 0.0
C188 C 0.8722 0.82372 0.05039 0.0
C189 C 0.85069 0.8174 0.03491 0.0
C190 C 0.82695 0.80971 0.04634 0.0
C191 C 0.82483 0.80844 0.07273 0.0
P192 P 0.2062 0.8567 0.40464 0.0
H193 H 0.23361 0.8386 0.44868 0.0
H194 H 0.21794 0.82607 0.49021 0.0
H195 H 0.13635 0.83585 0.46611 0.0
H196 H 0.15216 0.84767 0.42456 0.0
H197 H 0.233 0.86274 0.35668 0.0
H198 H 0.25535 0.83699 0.3279 0.0
H199 H 0.23542 0.78138 0.37741 0.0
H200 H 0.21243 0.80724 0.40573 0.0
H201 H 0.18344 0.90081 0.41343 0.0
H202 H 0.17117 0.84617 0.36152 0.0
O203 O 0.23 0.87514 0.41237 0.0
H204 H 0.14982 0.92295 0.39123 0.0
H205 H 0.13729 0.8682 0.33921 0.0
C206 C 0.1941 0.84432 0.43365 0.0
C207 C 0.21234 0.83771 0.45228 0.0
C208 C 0.20334 0.83071 0.47607 0.0
C209 C 0.17587 0.83019 0.48168 0.0
C210 C 0.15763 0.83585 0.46247 0.0
C211 C 0.16667 0.84279 0.43867 0.0
C212 C 0.2212 0.83692 0.38336 0.0
C213 C 0.23331 0.84496 0.36123 0.0
C214 C 0.24621 0.83023 0.34486 0.0
C215 C 0.24736 0.8071 0.35038 0.0
C216 C 0.23468 0.79904 0.37241 0.0
C217 C 0.22168 0.81384 0.38876 0.0
C218 C 0.18021 0.8721 0.38878 0.0
C219 C 0.17342 0.89356 0.39727 0.0
C220 C 0.15403 0.90612 0.38467 0.0
C221 C 0.14094 0.89737 0.36336 0.0
C222 C 0.14728 0.87553 0.35533 0.0
C223 C 0.16663 0.86292 0.36808 0.0
P224 P 0.33769 0.67842 0.88005 0.0
H225 H 0.37588 0.67087 0.83918 0.0
H226 H 0.39354 0.63682 0.81989 0.0
H227 H 0.34288 0.59637 0.86834 0.0
H228 H 0.32497 0.63062 0.88723 0.0
H229 H 0.31044 0.7215 0.88042 0.0
H230 H 0.27083 0.73565 0.8587 0.0
H231 H 0.25753 0.67005 0.82639 0.0
H232 H 0.29701 0.65591 0.84836 0.0
H233 H 0.37033 0.65227 0.91471 0.0
H234 H 0.30302 0.69697 0.92011 0.0
O235 O 0.36024 0.6987 0.87501 0.0
H236 H 0.37273 0.65009 0.9605 0.0
H237 H 0.3056 0.69507 0.96624 0.0
C238 C 0.34953 0.65323 0.86498 0.0
C239 C 0.36856 0.65468 0.84564 0.0
C240 C 0.37872 0.63518 0.83469 0.0
C241 C 0.36985 0.61384 0.84275 0.0
C242 C 0.35005 0.61252 0.86159 0.0
C243 C 0.33993 0.63206 0.87254 0.0
C244 C 0.30675 0.68767 0.86606 0.0
C245 C 0.29879 0.71007 0.86896 0.0
C246 C 0.27613 0.71813 0.85655 0.0
C247 C 0.26111 0.70397 0.84075 0.0
C248 C 0.26886 0.6814 0.83823 0.0
C249 C 0.29139 0.67328 0.85092 0.0
C250 C 0.33606 0.6743 0.91382 0.0
C251 C 0.35556 0.66115 0.9257 0.0
C252 C 0.35695 0.65993 0.95198 0.0
C253 C 0.33921 0.67226 0.96705 0.0
C254 C 0.31953 0.68536 0.95514 0.0
C255 C 0.31796 0.68635 0.92873 0.0
Zn256 Zn 0.01947 0.13377 0.29796 0.0
Zn257 Zn 0.97576 0.13499 0.20822 0.0
Zn258 Zn 0.99804 0.13584 0.2529 0.0
C259 C 0.02436 0.15764 0.20246 0.0
C260 C 0.98007 0.09064 0.22188 0.0
O261 O 0.97106 0.15357 0.27971 0.0
O262 O 0.99338 0.1528 0.31575 0.0
C263 C 0.05664 0.15525 0.26643 0.0
O264 O 0.02631 0.15235 0.22602 0.0
O265 O 0.00347 0.15276 0.19032 0.0
O266 O 0.97383 0.10213 0.20271 0.0
O267 O 0.9892 0.10045 0.24178 0.0
O268 O 0.05413 0.14729 0.28843 0.0
O269 O 0.03751 0.15321 0.25031 0.0
O270 O 0.00453 0.10015 0.26415 0.0
O271 O 0.01871 0.10088 0.30367 0.0
C272 C 0.01244 0.08985 0.28428 0.0
O273 O 0.95995 0.15502 0.25546 0.0
O274 O 0.94235 0.15022 0.2176 0.0
C275 C 0.97316 0.15872 0.30324 0.0
C276 C 0.94082 0.1582 0.23957 0.0
Zn277 Zn 0.52411 0.35866 0.70578 0.0
Zn278 Zn 0.47986 0.35707 0.791 0.0
Zn279 Zn 0.50164 0.35696 0.75014 0.0
C280 C 0.47061 0.39871 0.77399 0.0
C281 C 0.45505 0.32348 0.76596 0.0
O282 O 0.54101 0.33976 0.75346 0.0
O283 O 0.55832 0.34457 0.71535 0.0
C284 C 0.51607 0.40286 0.71906 0.0
O285 O 0.49035 0.392 0.76036 0.0
O286 O 0.45807 0.38477 0.7876 0.0
O287 O 0.46154 0.32763 0.78845 0.0
O288 O 0.46556 0.33501 0.7478 0.0
O289 O 0.52378 0.3916 0.70034 0.0
O290 O 0.50728 0.39283 0.73907 0.0
O291 O 0.47464 0.33911 0.72307 0.0
O292 O 0.49773 0.3402 0.68744 0.0
C293 C 0.47706 0.33432 0.69945 0.0
O294 O 0.53096 0.34356 0.778 0.0
O295 O 0.51277 0.35877 0.8117 0.0
C296 C 0.56021 0.33697 0.73755 0.0
C297 C 0.53224 0.34897 0.8015 0.0
Zn298 Zn 0.01562 0.85785 0.79414 0.0
Zn299 Zn 0.97279 0.86139 0.70428 0.0
Zn300 Zn 0.99387 0.85873 0.74926 0.0
C301 C 0.97969 0.90528 0.71905 0.0
C302 C 0.93573 0.83865 0.73451 0.0
O303 O 0.03183 0.83938 0.74658 0.0
O304 O 0.0492 0.84284 0.78476 0.0
C305 C 0.01128 0.90275 0.7822 0.0
O306 O 0.98792 0.89479 0.73894 0.0
O307 O 0.97278 0.89439 0.69974 0.0
O308 O 0.93849 0.84675 0.7126 0.0
O309 O 0.95446 0.84111 0.75098 0.0
O310 O 0.01726 0.89048 0.80083 0.0
O311 O 0.00251 0.89379 0.76166 0.0
O312 O 0.9652 0.84169 0.7755 0.0
O313 O 0.98785 0.83971 0.8113 0.0
C314 C 0.96697 0.83557 0.79883 0.0
O315 O 0.02149 0.84202 0.72205 0.0
O316 O -0.0003 0.84375 0.68582 0.0
C317 C 0.05076 0.83551 0.76252 0.0
C318 C 0.01999 0.83778 0.69822 0.0
Zn319 Zn 0.51692 0.63616 0.20473 0.0
Zn320 Zn 0.47105 0.63735 0.29409 0.0
Zn321 Zn 0.49385 0.63754 0.24913 0.0
C322 C 0.51788 0.66232 0.29875 0.0
C323 C 0.47903 0.59273 0.28239 0.0
O324 O 0.4665 0.65371 0.2213 0.0
O325 O 0.49038 0.65441 0.18617 0.0
C326 C 0.55196 0.6591 0.23629 0.0
O327 O 0.52045 0.65579 0.27572 0.0
O328 O 0.49701 0.65756 0.31107 0.0
O329 O 0.47235 0.60457 0.30103 0.0
O330 O 0.48712 0.60221 0.26178 0.0
O331 O 0.55093 0.6507 0.2145 0.0
O332 O 0.53224 0.65649 0.25171 0.0
O333 O 0.50221 0.60198 0.2392 0.0
O334 O 0.51722 0.60314 0.19995 0.0
C335 C 0.51092 0.59191 0.21935 0.0
O336 O 0.45475 0.65479 0.24528 0.0
O337 O 0.43647 0.64991 0.28298 0.0
C338 C 0.4692 0.65917 0.19786 0.0
C339 C 0.43498 0.65717 0.26061 0.0
H340 H 0.13613 0.90219 0.31209 0.0
H341 H 0.10749 0.92856 0.28908 0.0
H342 H 0.07403 0.95118 0.35943 0.0
H343 H 0.10201 0.92452 0.3825 0.0
H344 H 0.03585 0.94628 0.31863 0.0
H345 H 0.12595 0.99643 0.2918 0.0
H346 H 0.12555 0.96722 0.28329 0.0
H347 H 0.12699 0.97496 0.31594 0.0
C348 C 0.12226 0.91244 0.32262 0.0
C349 C 0.12157 0.91146 0.34916 0.0
C350 C 0.10606 0.9276 0.30945 0.0
C351 C 0.08894 0.94201 0.32259 0.0
C352 C 0.08719 0.94024 0.34894 0.0
H353 H 0.0047 0.06131 0.32367 0.0
H354 H 0.01898 0.02223 0.32694 0.0
C355 C 0.10336 0.92514 0.36211 0.0
C356 C 0.07441 0.96027 0.30942 0.0
H357 H 0.0843 0.01189 0.28251 0.0
C358 C 0.04639 0.96047 0.31033 0.0
C359 C 0.08821 0.97868 0.29841 0.0
C360 C 0.11833 0.97954 0.29734 0.0
C361 C 0.03187 0.97908 0.30153 0.0
C362 C 0.04579 -0.00191 0.29211 0.0
C363 C 0.07367 -0.00272 0.28973 0.0
C364 C 0.03255 0.02008 0.28823 0.0
C365 C 0.0018 0.97849 0.30295 0.0
C366 C 0.03528 0.03187 0.26533 0.0
C367 C 0.02724 0.05433 0.26349 0.0
C368 C 0.01647 0.0653 0.28457 0.0
C369 C 0.01276 0.05318 0.30711 0.0
C370 C 0.02068 0.03078 0.30891 0.0
H371 H 0.99411 0.96097 0.30192 0.0
H372 H 0.99531 0.98562 0.32125 0.0
H373 H 0.99269 0.98855 0.2875 0.0
H374 H 0.04468 0.024 0.24924 0.0
H375 H 0.03072 0.06343 0.24603 0.0
H376 H 0.34421 0.57488 0.8292 0.0
H377 H 0.36428 0.54021 0.8134 0.0
H378 H 0.44217 0.57127 0.81573 0.0
H379 H 0.42243 0.60578 0.83211 0.0
H380 H 0.39699 0.53329 0.76909 0.0
H381 H 0.45021 0.51324 0.85849 0.0
H382 H 0.42343 0.53341 0.85695 0.0
H383 H 0.45613 0.54085 0.84566 0.0
C384 C 0.36563 0.57429 0.8265 0.0
C385 C 0.38172 0.59307 0.83206 0.0
C386 C 0.37703 0.55454 0.81729 0.0
C387 C 0.40472 0.55312 0.81366 0.0
C388 C 0.42079 0.57194 0.81869 0.0
H389 H 0.50243 0.43553 0.77975 0.0
H390 H 0.48831 0.47469 0.78502 0.0
C391 C 0.40942 0.59172 0.82783 0.0
C392 C 0.4168 0.53177 0.80509 0.0
H393 H 0.45705 0.48881 0.82432 0.0
C394 C 0.4102 0.52358 0.7811 0.0
C395 C 0.43415 0.51924 0.82076 0.0
C396 C 0.44132 0.52696 0.84699 0.0
C397 C 0.4204 0.50306 0.77239 0.0
C398 C 0.43718 0.49023 0.78833 0.0
C399 C 0.44426 0.49871 0.81209 0.0
C400 C 0.4461 0.46727 0.78161 0.0
C401 C 0.41322 0.49536 0.74618 0.0
C402 C 0.42716 0.45017 0.77775 0.0
C403 C 0.43531 0.42797 0.77427 0.0
C404 C 0.46253 0.42248 0.77452 0.0
C405 C 0.4815 0.43958 0.77811 0.0
C406 C 0.47337 0.46184 0.78158 0.0
H407 H 0.40756 0.50974 0.73387 0.0
H408 H 0.43007 0.48628 0.73726 0.0
H409 H 0.39585 0.48374 0.7473 0.0
H410 H 0.40601 0.45382 0.77842 0.0
H411 H 0.42028 0.41498 0.77199 0.0
H412 H 0.64427 0.58812 0.68602 0.0
H413 H 0.61593 0.561 0.7086 0.0
H414 H 0.57824 0.54251 0.63856 0.0
H415 H 0.60595 0.56996 0.61594 0.0
H416 H 0.54231 0.54609 0.68157 0.0
H417 H 0.6316 0.49303 0.7004 0.0
H418 H 0.63324 0.52175 0.71068 0.0
H419 H 0.63205 0.51564 0.67757 0.0
C420 C 0.62958 0.57861 0.67549 0.0
C421 C 0.62757 0.58099 0.64913 0.0
C422 C 0.61353 0.56303 0.68841 0.0
C423 C 0.59527 0.54958 0.67518 0.0
C424 C 0.5923 0.5527 0.64909 0.0
H425 H 0.5031 0.4313 0.68094 0.0
H426 H 0.51868 0.47002 0.67533 0.0
C427 C 0.60832 0.56822 0.63617 0.0
C428 C 0.58073 0.53099 0.68794 0.0
H429 H 0.5901 0.47861 0.71279 0.0
C430 C 0.55271 0.53143 0.68872 0.0
C431 C 0.5944 0.51196 0.69734 0.0
C432 C 0.62446 0.51034 0.69639 0.0
C433 C 0.53796 0.51302 0.69806 0.0
C434 C 0.55161 0.49356 0.7063 0.0
C435 C 0.57965 0.49357 0.70655 0.0
C436 C 0.53762 0.47208 0.71199 0.0
C437 C 0.50791 0.51449 0.69876 0.0
C438 C 0.54292 0.46033 0.73449 0.0
C439 C 0.53422 0.4381 0.73756 0.0
C440 C 0.51991 0.42738 0.71829 0.0
C441 C 0.51362 0.43943 0.69627 0.0
C442 C 0.52236 0.4616 0.69315 0.0
H443 H 0.50126 0.5322 0.70063 0.0
H444 H 0.49968 0.50789 0.68082 0.0
H445 H 0.49944 0.50446 0.71461 0.0
H446 H 0.55503 0.46794 0.74909 0.0
H447 H 0.54025 0.42883 0.75424 0.0
H448 H 0.92266 0.8783 0.19081 0.0
H449 H 0.94241 0.91182 0.20968 0.0
H450 H 0.88138 0.95266 0.17527 0.0
H451 H 0.86043 0.91917 0.15785 0.0
H452 H 0.96447 0.94661 0.18835 0.0
H453 H 0.87986 0.97746 0.24471 0.0
H454 H 0.87992 0.94977 0.23099 0.0
H455 H 0.86971 0.97384 0.21259 0.0
C456 C 0.91297 0.89432 0.18777 0.0
C457 C 0.88979 0.8959 0.17283 0.0
C458 C 0.92448 0.91353 0.19843 0.0
C459 C 0.91315 0.93478 0.19434 0.0
C460 C 0.89011 0.93643 0.17935 0.0
H461 H 0.9832 0.06322 0.1813 0.0
H462 H 0.97032 0.02372 0.1788 0.0
C463 C 0.87841 0.91723 0.16897 0.0
C464 C 0.92628 0.95541 0.20424 0.0
H465 H 0.91305 0.00543 0.23281 0.0
C466 C 0.95331 0.95929 0.19847 0.0
C467 C 0.9121 0.97177 0.21812 0.0
C468 C 0.8839 0.96786 0.22721 0.0
C469 C 0.96594 0.97964 0.20468 0.0
C470 C 0.95093 0.99687 0.2162 0.0
C471 C 0.92448 0.99241 0.22353 0.0
C472 C 0.96133 0.02019 0.21862 0.0
C473 C 0.99519 0.98256 0.19856 0.0
C474 C 0.9601 0.03159 0.24174 0.0
C475 C 0.96698 0.0544 0.24308 0.0
C476 C 0.97547 0.06609 0.22138 0.0
C477 C 0.97708 0.05455 0.19839 0.0
C478 C 0.96999 0.03188 0.19701 0.0
H479 H 0.0057 0.96615 0.19903 0.0
H480 H 0.99727 0.98955 0.1792 0.0
H481 H 0.00516 0.99416 0.21197 0.0
H482 H 0.95315 0.023 0.2586 0.0
H483 H 0.96476 0.06306 0.26086 0.0
H484 H 0.88558 0.10755 0.70438 0.0
H485 H 0.90415 0.07266 0.7216 0.0
H486 H 0.94354 0.06019 0.65071 0.0
H487 H 0.92506 0.0949 0.63337 0.0
H488 H 0.89677 0.02957 0.70504 0.0
H489 H 0.00411 0.05159 0.70076 0.0
H490 H 0.97813 0.07238 0.69769 0.0
H491 H 0.98772 0.05564 0.67101 0.0
C492 C 0.89816 0.09734 0.69244 0.0
C493 C 0.90394 0.10407 0.66752 0.0
C494 C 0.90889 0.0775 0.70237 0.0
C495 C 0.92571 0.06407 0.68763 0.0
C496 C 0.93128 0.07062 0.66269 0.0
H497 H 0.98763 0.93317 0.67917 0.0
H498 H 0.97651 0.97306 0.67607 0.0
C499 C 0.92062 0.09045 0.65277 0.0
C500 C 0.93623 0.04252 0.6977 0.0
H501 H 0.99356 0.01218 0.70451 0.0
C502 C 0.91795 0.02588 0.7054 0.0
C503 C 0.9639 0.03779 0.69828 0.0
C504 C 0.98461 0.05539 0.69174 0.0
C505 C 0.92649 0.00422 0.71219 0.0
C506 C 0.95406 -0.0008 0.71157 0.0
C507 C 0.97243 0.0161 0.70494 0.0
C508 C 0.9638 0.97589 0.71494 0.0
C509 C 0.90585 0.98653 0.71865 0.0
C510 C 0.96107 0.96444 0.73806 0.0
C511 C 0.96741 0.94157 0.73986 0.0
C512 C 0.97674 0.92996 0.71861 0.0
C513 C 0.98051 0.94174 0.69584 0.0
C514 C 0.97425 0.96452 0.69407 0.0
H515 H 0.8852 0.99228 0.71465 0.0
H516 H 0.9096 0.97092 0.70783 0.0
H517 H 0.90723 0.98231 0.73903 0.0
H518 H 0.95326 0.97301 0.75444 0.0
H519 H 0.96398 0.93279 0.75753 0.0
H520 H 0.65168 0.4145 0.19965 0.0
H521 H 0.62151 0.441 0.22024 0.0
H522 H 0.57473 0.44531 0.15208 0.0
H523 H 0.60452 0.41868 0.1316 0.0
H524 H 0.61514 0.48326 0.20583 0.0
H525 H 0.51623 0.44201 0.20376 0.0
H526 H 0.54678 0.42678 0.19826 0.0
H527 H 0.53119 0.44233 0.17303 0.0
C528 C 0.6347 0.42084 0.18922 0.0
C529 C 0.63048 0.41452 0.16399 0.0
C530 C 0.61741 0.43589 0.20103 0.0
C531 C 0.59557 0.44492 0.18787 0.0
C532 C 0.59091 0.4381 0.16292 0.0
H533 H 0.50656 0.56317 0.17999 0.0
H534 H 0.52404 0.52492 0.17756 0.0
C535 C 0.60806 0.42293 0.15117 0.0
C536 C 0.57976 0.46352 0.19891 0.0
H537 H 0.51609 0.48277 0.20657 0.0
C538 C 0.59349 0.48294 0.20658 0.0
C539 C 0.5515 0.46313 0.19991 0.0
C540 C 0.53561 0.44232 0.19354 0.0
C541 C 0.57979 0.50243 0.21364 0.0
C542 C 0.55155 0.50242 0.2133 0.0
C543 C 0.53775 0.48271 0.20679 0.0
C544 C 0.53643 0.52352 0.21662 0.0
C545 C 0.59563 0.52331 0.21995 0.0
C546 C 0.53669 0.53504 0.23967 0.0
C547 C 0.52677 0.55697 0.24108 0.0
C548 C 0.51627 0.56753 0.2195 0.0
C549 C 0.51451 0.55539 0.19691 0.0
C550 C 0.52438 0.53353 0.19552 0.0
H551 H 0.61727 0.52135 0.21594 0.0
H552 H 0.5881 0.53796 0.20904 0.0
H553 H 0.59328 0.52711 0.2403 0.0
H554 H 0.54579 0.52752 0.2562 0.0
H555 H 0.52874 0.56608 0.25862 0.0
H556 H 0.3835 0.39068 0.30135 0.0
H557 H 0.40211 0.42592 0.28469 0.0
H558 H 0.44222 0.43738 0.35548 0.0
H559 H 0.42377 0.40225 0.37222 0.0
H560 H 0.39517 0.46855 0.30177 0.0
H561 H 0.50247 0.44706 0.30539 0.0
H562 H 0.47643 0.42613 0.30849 0.0
H563 H 0.48616 0.44285 0.3352 0.0
C564 C 0.39624 0.40074 0.31339 0.0
C565 C 0.40225 0.3936 0.33809 0.0
C566 C 0.40699 0.42079 0.30378 0.0
C567 C 0.42403 0.43405 0.31864 0.0
C568 C 0.42979 0.4271 0.34339 0.0
H569 H 0.48609 0.56658 0.32393 0.0
H570 H 0.47467 0.52677 0.32899 0.0
C571 C 0.41913 0.40704 0.35298 0.0
C572 C 0.43461 0.45577 0.30885 0.0
H573 H 0.49206 0.48635 0.30141 0.0
C574 C 0.41637 0.47233 0.30128 0.0
C575 C 0.46231 0.46063 0.3081 0.0
C576 C 0.48298 0.44314 0.31448 0.0
C577 C 0.42498 0.49397 0.29424 0.0
C578 C 0.45258 0.49909 0.29453 0.0
C579 C 0.47091 0.48234 0.30125 0.0
C580 C 0.46244 0.5223 0.2902 0.0
C581 C 0.40443 0.51153 0.28769 0.0
C582 C 0.46004 0.53278 0.26651 0.0
C583 C 0.46657 0.55556 0.26357 0.0
C584 C 0.47575 0.56809 0.28426 0.0
C585 C 0.47911 0.55729 0.30767 0.0
C586 C 0.47267 0.53456 0.31057 0.0
H587 H 0.38377 0.50577 0.29192 0.0
H588 H 0.40838 0.52728 0.29825 0.0
H589 H 0.40571 0.51554 0.26724 0.0
H590 H 0.45234 0.52352 0.25052 0.0
H591 H 0.46341 0.56358 0.24543 0.0
H592 H 0.14634 0.0843 0.81184 0.0
H593 H 0.11613 0.05804 0.79063 0.0
H594 H 0.07676 0.04415 0.86146 0.0
H595 H 0.1068 0.07035 0.88273 0.0
H596 H 0.11391 0.01374 0.80105 0.0
H597 H 0.01346 0.04979 0.81449 0.0
H598 H 0.04365 0.06601 0.81899 0.0
H599 H 0.03142 0.04774 0.84367 0.0
C600 C 0.13102 0.07585 0.82283 0.0
C601 C 0.12903 0.07935 0.849 0.0
C602 C 0.11367 0.06096 0.81065 0.0
C603 C 0.09392 0.04935 0.82436 0.0
C604 C 0.09134 0.05336 0.85033 0.0
H605 H 0.00715 0.92885 0.82376 0.0
H606 H 0.02421 0.96707 0.82914 0.0
C607 C 0.10861 0.06831 0.86251 0.0
C608 C 0.07824 0.03109 0.81229 0.0
H609 H 0.01509 0.00988 0.80608 0.0
C610 C 0.09226 0.01311 0.80161 0.0
C611 C 0.05001 0.0303 0.81305 0.0
C612 C 0.03376 0.04962 0.82294 0.0
C613 C 0.07898 0.99375 0.79316 0.0
C614 C 0.05082 0.9925 0.79505 0.0
C615 C 0.03667 0.0109 0.80463 0.0
C616 C 0.03631 0.97118 0.79018 0.0
C617 C 0.09534 0.97425 0.78376 0.0
C618 C 0.03651 0.96115 0.76625 0.0
C619 C 0.02692 0.93918 0.76317 0.0
C620 C 0.01666 0.92712 0.78392 0.0
C621 C 0.01494 0.93778 0.80745 0.0
C622 C 0.02457 0.95964 0.81052 0.0
H623 H 0.11701 0.97657 0.78747 0.0
H624 H 0.08872 0.9583 0.79285 0.0
H625 H 0.09255 0.97255 0.7631 0.0
H626 H 0.04522 0.9699 0.75024 0.0
H627 H 0.02885 0.93124 0.74493 0.0
H628 H 0.13728 0.17837 0.99445 0.0
H629 H 0.11633 0.18579 0.03524 0.0
H630 H 0.17988 0.15046 0.07305 0.0
H631 H 0.20137 0.1435 0.03239 0.0
H632 H 0.0991 0.15106 0.06662 0.0
H633 H 0.17045 0.20634 0.11748 0.0
H634 H 0.17137 0.20275 0.08365 0.0
H635 H 0.18477 0.18144 0.10412 0.0
C636 C 0.1472 0.17269 0.01147 0.0
C637 C 0.17096 0.16025 0.01011 0.0
C638 C 0.13514 0.17687 0.03478 0.0
C639 C 0.14666 0.16888 0.05724 0.0
C640 C 0.17086 0.15714 0.05605 0.0
H641 H 0.07709 0.14605 0.20572 0.0
H642 H 0.11043 0.15184 0.17218 0.0
C643 C 0.18292 0.15292 0.03274 0.0
C644 C 0.13178 0.17055 0.0814 0.0
H645 H 0.13429 0.19121 0.14153 0.0
C646 C 0.10675 0.15997 0.08292 0.0
C647 C 0.14197 0.18191 0.10278 0.0
C648 C 0.16853 0.19393 0.10199 0.0
C649 C 0.09165 0.16034 0.10516 0.0
C650 C 0.10155 0.17201 0.12643 0.0
C651 C 0.12673 0.18239 0.12514 0.0
C652 C 0.08528 0.17363 0.14973 0.0
C653 C 0.06523 0.14799 0.10581 0.0
C654 C 0.06092 0.18512 0.14893 0.0
C655 C 0.04191 0.18168 0.16782 0.0
C656 C 0.04711 0.16698 0.18804 0.0
C657 C 0.07268 0.15758 0.19041 0.0
C658 C 0.09168 0.16081 0.17122 0.0
H659 H 0.06343 0.13569 0.09019 0.0
H660 H 0.06255 0.13892 0.12401 0.0
H661 H 0.04877 0.1603 0.10386 0.0
H662 H 0.05575 0.19527 0.13263 0.0
H663 H 0.02237 0.18918 0.16562 0.0
H664 H 0.35185 0.27418 0.50149 0.0
H665 H 0.36428 0.27718 0.54588 0.0
H666 H 0.37894 0.34817 0.53596 0.0
H667 H 0.36806 0.34511 0.49131 0.0
H668 H 0.42044 0.32825 0.55658 0.0
H669 H 0.33018 0.30114 0.60906 0.0
H670 H 0.3404 0.28101 0.58594 0.0
H671 H 0.32941 0.30841 0.57594 0.0
C672 C 0.35757 0.29048 0.50874 0.0
C673 C 0.35915 0.30936 0.4926 0.0
C674 C 0.36426 0.29224 0.53431 0.0
C675 C 0.37228 0.31296 0.54444 0.0
C676 C 0.37267 0.33201 0.52866 0.0
H677 H 0.42581 0.34897 0.69542 0.0
H678 H 0.39616 0.3414 0.65948 0.0
C679 C 0.36621 0.33025 0.50307 0.0
C680 C 0.38343 0.31432 0.57044 0.0
H681 H 0.37121 0.30205 0.63262 0.0
C682 C 0.4095 0.3227 0.57317 0.0
C683 C 0.36919 0.30719 0.59221 0.0
C684 C 0.34064 0.29914 0.59072 0.0
C685 C 0.4219 0.32377 0.59683 0.0
C686 C 0.40817 0.31572 0.61843 0.0
C687 C 0.38184 0.30785 0.61596 0.0
C688 C 0.42134 0.31567 0.64352 0.0
C689 C 0.44969 0.33363 0.59848 0.0
C690 C 0.44432 0.30268 0.64729 0.0
C691 C 0.46124 0.30707 0.66762 0.0
C692 C 0.45517 0.32419 0.6848 0.0
C693 C 0.43065 0.3354 0.68268 0.0
C694 C 0.41381 0.3312 0.66207 0.0
H695 H 0.45477 0.34388 0.58153 0.0
H696 H 0.45181 0.34436 0.61545 0.0
H697 H 0.4644 0.31979 0.59992 0.0
H698 H 0.45034 0.29047 0.63333 0.0
H699 H 0.48015 0.29835 0.66875 0.0
H700 H 0.7035 0.32173 0.98553 0.0
H701 H 0.68657 0.31499 0.94273 0.0
H702 H 0.61064 0.34312 0.96384 0.0
H703 H 0.62712 0.34943 0.00658 0.0
H704 H 0.60696 0.30319 0.9344 0.0
H705 H 0.67517 0.36728 0.89185 0.0
H706 H 0.68996 0.34509 0.91024 0.0
H707 H 0.66939 0.3656 0.92543 0.0
C708 C 0.68306 0.32614 0.98113 0.0
C709 C 0.66673 0.33633 0.99938 0.0
C710 C 0.67351 0.32245 0.95662 0.0
C711 C 0.64747 0.32884 0.95002 0.0
C712 C 0.63084 0.33815 0.96849 0.0
H713 H 0.55471 0.37722 0.83481 0.0
H714 H 0.58801 0.36849 0.86687 0.0
C715 C 0.64035 0.3419 0.99287 0.0
C716 C 0.63749 0.32694 0.92373 0.0
H717 H 0.64176 0.35235 0.86589 0.0
C718 C 0.61489 0.31352 0.9192 0.0
C719 C 0.64789 0.34052 0.904 0.0
C720 C 0.67185 0.35557 0.90797 0.0
C721 C 0.60147 0.31429 0.89593 0.0
C722 C 0.61109 0.32874 0.87662 0.0
C723 C 0.6346 0.34115 0.88066 0.0
C724 C 0.59438 0.33437 0.85435 0.0
C725 C 0.57602 0.30091 0.89281 0.0
C726 C 0.58757 0.31832 0.83601 0.0
C727 C 0.56847 0.32339 0.81745 0.0
C728 C 0.55601 0.34449 0.81714 0.0
C729 C 0.56402 0.36081 0.83465 0.0
C730 C 0.58309 0.35586 0.85294 0.0
H731 H 0.56986 0.29231 0.91056 0.0
H732 H 0.55955 0.31206 0.88656 0.0
H733 H 0.57893 0.28796 0.87809 0.0
H734 H 0.5962 0.30167 0.83667 0.0
H735 H 0.56222 0.31041 0.80449 0.0
H736 H 0.87662 0.15259 0.51245 0.0
H737 H 0.88816 0.15094 0.4678 0.0
H738 H 0.8573 0.21777 0.45668 0.0
H739 H 0.84458 0.21928 0.50128 0.0
H740 H 0.84676 0.18744 0.41533 0.0
H741 H 0.95314 0.18847 0.44448 0.0
H742 H 0.93401 0.1661 0.45859 0.0
H743 H 0.92633 0.19483 0.46599 0.0
C744 C 0.87155 0.16674 0.50048 0.0
C745 C 0.8599 0.18619 0.51066 0.0
C746 C 0.87841 0.16583 0.47494 0.0
C747 C 0.87404 0.18439 0.45903 0.0
C748 C 0.86101 0.20332 0.46867 0.0
H749 H 0.97561 0.19792 0.32854 0.0
H750 H 0.94644 0.20872 0.36337 0.0
C751 C 0.854 0.20422 0.49424 0.0
C752 C 0.88528 0.18471 0.43309 0.0
H753 H 0.94436 0.18112 0.40146 0.0
C754 C 0.86811 0.18622 0.4122 0.0
C755 C 0.91315 0.18361 0.42907 0.0
C756 C 0.93278 0.18338 0.45069 0.0
C757 C 0.87811 0.1859 0.38732 0.0
C758 C 0.90594 0.18374 0.38335 0.0
C759 C 0.92302 0.18281 0.40436 0.0
C760 C 0.91827 0.18145 0.3579 0.0
C761 C 0.85883 0.18806 0.36563 0.0
C762 C 0.9112 0.16347 0.34207 0.0
C763 C 0.92754 0.15772 0.32161 0.0
C764 C 0.95137 0.16958 0.31712 0.0
C765 C 0.95715 0.1887 0.33152 0.0
C766 C 0.94058 0.19474 0.35154 0.0
H767 H 0.84038 0.19697 0.37141 0.0
H768 H 0.86799 0.19721 0.34946 0.0
H769 H 0.85294 0.17102 0.35921 0.0
H770 H 0.89446 0.15265 0.34676 0.0
H771 H 0.92301 0.14264 0.31103 0.0
H772 H 0.83663 0.78515 1.00047 0.0
H773 H 0.84801 0.78437 0.95539 0.0
H774 H 0.88317 0.85041 0.96135 0.0
H775 H 0.872 0.85128 0.00626 0.0
H776 H 0.8388 0.81454 0.91178 0.0
H777 H 0.94511 0.80817 0.94028 0.0
H778 H 0.91797 0.80362 0.96216 0.0
H779 H 0.92799 0.83173 0.95367 0.0
C780 C 0.84627 0.79969 0.99203 0.0
C781 C 0.85379 0.81815 0.00699 0.0
C782 C 0.85276 0.79921 0.96629 0.0
C783 C 0.86679 0.81719 0.95514 0.0
C784 C 0.8727 0.83622 0.96968 0.0
H785 H 0.91823 0.85425 0.80625 0.0
H786 H 0.88889 0.84584 0.84212 0.0
C787 C 0.86638 0.83666 0.99534 0.0
C788 C 0.87764 0.81534 0.92916 0.0
H789 H 0.93659 0.81509 0.89704 0.0
C790 C 0.86017 0.81445 0.90845 0.0
C791 C 0.90549 0.81479 0.92492 0.0
C792 C 0.92527 0.81441 0.94641 0.0
C793 C 0.86995 0.81384 0.8835 0.0
C794 C 0.89787 0.8144 0.87927 0.0
C795 C 0.91518 0.81462 0.90013 0.0
C796 C 0.91015 0.81585 0.85368 0.0
C797 C 0.85033 0.8125 0.862 0.0
C798 C 0.93122 0.80137 0.84748 0.0
C799 C 0.94826 0.80647 0.82737 0.0
C800 C 0.9442 0.82587 0.81273 0.0
C801 C 0.92143 0.83897 0.81703 0.0
C802 C 0.90464 0.83413 0.83757 0.0
H803 H 0.83119 0.80468 0.86815 0.0
H804 H 0.84591 0.82975 0.85516 0.0
H805 H 0.85852 0.8027 0.84601 0.0
H806 H 0.93586 0.78713 0.85952 0.0
H807 H 0.96587 0.79627 0.82452 0.0
H808 H 0.67629 0.70316 0.48716 0.0
H809 H 0.65513 0.70997 0.44595 0.0
H810 H 0.61254 0.64705 0.45283 0.0
H811 H 0.63313 0.64037 0.49385 0.0
H812 H 0.65425 0.68611 0.40093 0.0
H813 H 0.55268 0.6914 0.4411 0.0
H814 H 0.58223 0.69216 0.46052 0.0
H815 H 0.56868 0.66568 0.4501 0.0
C816 C 0.6624 0.69082 0.47981 0.0
C817 C 0.65596 0.67145 0.49396 0.0
C818 C 0.65037 0.69471 0.45629 0.0
C819 C 0.63181 0.67925 0.44656 0.0
C820 C 0.6262 0.65953 0.46027 0.0
H821 H 0.56905 0.64772 0.30202 0.0
H822 H 0.60039 0.65711 0.33575 0.0
C823 C 0.63796 0.65575 0.48375 0.0
C824 C 0.61776 0.68358 0.42233 0.0
H825 H 0.5554 0.68397 0.3968 0.0
C826 C 0.63262 0.68602 0.39997 0.0
C827 C 0.58957 0.68406 0.42112 0.0
C828 C 0.57238 0.68344 0.44454 0.0
C829 C 0.61996 0.68765 0.37629 0.0
C830 C 0.59174 0.68621 0.37497 0.0
C831 C 0.57701 0.68494 0.39754 0.0
C832 C 0.57672 0.6844 0.35075 0.0
C833 C 0.63699 0.69086 0.35306 0.0
C834 C 0.55325 0.69693 0.34727 0.0
C835 C 0.53496 0.69102 0.32854 0.0
C836 C 0.54015 0.67292 0.31244 0.0
C837 C 0.56484 0.66196 0.31402 0.0
C838 C 0.58284 0.66743 0.33329 0.0
H839 H 0.65556 0.7003 0.35757 0.0
H840 H 0.64298 0.67416 0.3458 0.0
H841 H 0.62612 0.69999 0.33794 0.0
H842 H 0.54807 0.71019 0.3603 0.0
H843 H 0.51597 0.69964 0.32769 0.0
H844 H 0.33867 0.70866 0.99853 0.0
H845 H 0.3523 0.70972 0.04294 0.0
H846 H 0.36193 0.63776 0.04288 0.0
H847 H 0.34837 0.63654 0.99854 0.0
H848 H 0.33625 0.68587 0.09038 0.0
H849 H 0.43775 0.6651 0.05527 0.0
H850 H 0.41139 0.67441 0.03458 0.0
H851 H 0.41189 0.64587 0.04588 0.0
C852 C 0.34299 0.693 0.00816 0.0
C853 C 0.3428 0.67254 0.99493 0.0
C854 C 0.35079 0.69364 0.03354 0.0
C855 C 0.35844 0.67386 0.04607 0.0
C856 C 0.35639 0.65325 0.03344 0.0
H857 H 0.41691 0.64585 0.19697 0.0
H858 H 0.38575 0.65292 0.1621 0.0
C859 C 0.34875 0.65259 0.0081 0.0
C860 C 0.37171 0.67498 0.07106 0.0
H861 H 0.43192 0.66623 0.0993 0.0
C862 C 0.35718 0.68166 0.09243 0.0
C863 C 0.3991 0.6698 0.07356 0.0
C864 C 0.41608 0.66358 0.05111 0.0
C865 C 0.36935 0.68287 0.11639 0.0
C866 C 0.39661 0.67713 0.11891 0.0
C867 C 0.41103 0.67069 0.09741 0.0
C868 C 0.41115 0.67743 0.14337 0.0
C869 C 0.35312 0.69054 0.13868 0.0
C870 C 0.43522 0.68952 0.14506 0.0
C871 C 0.45312 0.68518 0.16462 0.0
C872 C 0.44712 0.66894 0.1831 0.0
C873 C 0.42182 0.65865 0.18307 0.0
C874 C 0.40401 0.6627 0.16314 0.0
H875 H 0.33504 0.69988 0.13264 0.0
H876 H 0.34654 0.67562 0.14974 0.0
H877 H 0.3652 0.70145 0.15127 0.0
H878 H 0.44113 0.70102 0.13012 0.0
H879 H 0.47253 0.69332 0.16425 0.0
H880 H 0.19806 0.84367 0.52642 0.0
H881 H 0.18033 0.83832 0.56899 0.0
H882 H 0.11348 0.80135 0.53875 0.0
H883 H 0.13161 0.80583 0.49621 0.0
H884 H 0.13347 0.85462 0.5852 0.0
H885 H 0.13298 0.76243 0.59869 0.0
H886 H 0.15191 0.7761 0.57392 0.0
H887 H 0.11678 0.77059 0.56992 0.0
C888 C 0.17999 0.83383 0.52884 0.0
C889 C 0.1663 0.82516 0.50779 0.0
C890 C 0.16979 0.83091 0.55323 0.0
C891 C 0.14576 0.81916 0.55718 0.0
C892 C 0.13237 0.81003 0.5363 0.0
H893 H 0.01713 0.8114 0.65686 0.0
H894 H 0.05277 0.80412 0.62668 0.0
C895 C 0.14257 0.8129 0.5119 0.0
C896 C 0.13322 0.81852 0.58264 0.0
H897 H 0.10332 0.78348 0.62559 0.0
C898 C 0.12739 0.83904 0.59433 0.0
C899 C 0.12533 0.7982 0.59456 0.0
C900 C 0.13232 0.77558 0.58374 0.0
C901 C 0.11242 0.83989 0.61671 0.0
C902 C 0.10342 0.8196 0.62803 0.0
C903 C 0.11031 0.79901 0.61698 0.0
C904 C 0.08378 0.81971 0.64905 0.0
C905 C 0.10491 0.86258 0.62714 0.0
C906 C 0.08962 0.82979 0.67237 0.0
C907 C 0.06912 0.83405 0.68975 0.0
C908 C 0.04261 0.82813 0.68403 0.0
C909 C 0.03737 0.81624 0.66172 0.0
C910 C 0.05774 0.81202 0.64445 0.0
H911 H 0.10976 0.87651 0.61383 0.0
H912 H 0.08323 0.86316 0.63147 0.0
H913 H 0.11602 0.86556 0.64492 0.0
H914 H 0.10969 0.83554 0.67648 0.0
H915 H 0.07371 0.84347 0.70663 0.0
H916 H 0.23086 0.29662 0.33615 0.0
H917 H 0.19147 0.27945 0.31654 0.0
H918 H 0.24088 0.22742 0.28518 0.0
H919 H 0.28025 0.24446 0.30458 0.0
H920 H 0.20114 0.24271 0.25137 0.0
H921 H 0.15964 0.22159 0.34606 0.0
H922 H 0.16643 0.25089 0.34063 0.0
H923 H 0.19354 0.23122 0.34173 0.0
C924 C 0.23332 0.28155 0.32504 0.0
C925 C 0.25868 0.27182 0.32211 0.0
C926 C 0.21082 0.2718 0.31378 0.0
C927 C 0.2132 0.252 0.29964 0.0
C928 C 0.23859 0.24273 0.29593 0.0
H929 H 0.10657 0.14392 0.28009 0.0
H930 H 0.14506 0.16903 0.28283 0.0
C931 C 0.26109 0.25251 0.30705 0.0
C932 C 0.18918 0.23987 0.29032 0.0
H933 H 0.13461 0.21044 0.31087 0.0
C934 C 0.18641 0.23583 0.26431 0.0
C935 C 0.17013 0.23073 0.30729 0.0
C936 C 0.17257 0.23361 0.3355 0.0
C937 C 0.16529 0.22257 0.25493 0.0
C938 C 0.14661 0.21322 0.27199 0.0
C939 C 0.149 0.21775 0.29785 0.0
C940 C 0.12571 0.19696 0.26418 0.0
C941 C 0.16358 0.21787 0.22706 0.0
C942 C 0.10249 0.20398 0.25153 0.0
C943 C 0.0804 0.18943 0.24966 0.0
C944 C 0.08132 0.16793 0.26076 0.0
C945 C 0.10535 0.16044 0.27143 0.0
C946 C 0.12733 0.17478 0.27307 0.0
H947 H 0.18082 0.22501 0.21648 0.0
H948 H 0.1627 0.19944 0.22384 0.0
H949 H 0.14492 0.22521 0.21938 0.0
H950 H 0.10079 0.22111 0.24473 0.0
H951 H 0.06199 0.19564 0.24155 0.0
H952 H 0.24224 0.21539 0.8236 0.0
H953 H 0.27069 0.23754 0.79497 0.0
H954 H 0.3404 0.2047 0.82511 0.0
H955 H 0.31226 0.18213 0.85299 0.0
H956 H 0.30996 0.26726 0.80758 0.0
H957 H 0.35367 0.19977 0.75006 0.0
H958 H 0.3244 0.19538 0.76945 0.0
H959 H 0.35732 0.19375 0.78306 0.0
C960 C 0.26361 0.21268 0.82384 0.0
C961 C 0.27498 0.19703 0.84067 0.0
C962 C 0.27982 0.22537 0.80751 0.0
C963 C 0.30763 0.22244 0.8075 0.0
C964 C 0.31896 0.20686 0.82428 0.0
H965 H 0.45204 0.28308 0.78885 0.0
H966 H 0.41336 0.25806 0.7907 0.0
C967 C 0.30284 0.19423 0.84057 0.0
C968 C 0.32529 0.23677 0.79155 0.0
H969 H 0.38022 0.23408 0.75348 0.0
C970 C 0.32485 0.26012 0.79514 0.0
C971 C 0.34454 0.22745 0.77512 0.0
C972 C 0.34483 0.20272 0.76898 0.0
C973 C 0.34463 0.27413 0.78461 0.0
C974 C 0.36519 0.26451 0.76993 0.0
C975 C 0.36446 0.24141 0.76477 0.0
C976 C 0.38991 0.27729 0.76407 0.0
C977 C 0.34463 0.29885 0.79091 0.0
C978 C 0.39001 0.29585 0.7475 0.0
C979 C 0.41238 0.31012 0.74621 0.0
C980 C 0.43463 0.30602 0.76166 0.0
C981 C 0.43509 0.28658 0.77677 0.0
C982 C 0.41302 0.27227 0.77782 0.0
H983 H 0.32834 0.30332 0.80417 0.0
H984 H 0.36402 0.30374 0.79948 0.0
H985 H 0.34211 0.30885 0.77335 0.0
H986 H 0.37237 0.29991 0.73662 0.0
H987 H 0.41146 0.3252 0.73471 0.0
H988 H 0.77041 0.21107 0.71748 0.0
H989 H 0.73183 0.22728 0.73907 0.0
H990 H 0.70158 0.25141 0.6678 0.0
H991 H 0.7401 0.23554 0.64614 0.0
H992 H 0.71739 0.27193 0.74055 0.0
H993 H 0.63601 0.22125 0.69884 0.0
H994 H 0.67064 0.21303 0.69702 0.0
H995 H 0.65734 0.23333 0.67512 0.0
C996 C 0.7555 0.21978 0.70638 0.0
C997 C 0.75837 0.22197 0.68003 0.0
C998 C 0.7334 0.22893 0.71875 0.0
C999 C 0.71361 0.24026 0.70502 0.0
C1000 C 0.71625 0.24224 0.67872 0.0
H1001 H 0.61123 0.34763 0.72619 0.0
H1002 H 0.64928 0.32223 0.7258 0.0
C1003 C 0.73832 0.23314 0.66635 0.0
C1004 C 0.69107 0.25137 0.71814 0.0
H1005 H 0.62334 0.25702 0.71636 0.0
C1006 C 0.69678 0.26838 0.73564 0.0
C1007 C 0.66415 0.24644 0.71222 0.0
C1008 C 0.65663 0.22734 0.69497 0.0
C1009 C 0.6764 0.28167 0.74589 0.0
C1010 C 0.64969 0.27805 0.73817 0.0
C1011 C 0.64383 0.25996 0.72215 0.0
C1012 C 0.6282 0.29447 0.74352 0.0
C1013 C 0.68374 0.29987 0.76437 0.0
C1014 C 0.60369 0.28751 0.75401 0.0
C1015 C 0.58182 0.30215 0.75428 0.0
C1016 C 0.58417 0.32381 0.74386 0.0
C1017 C 0.60905 0.3311 0.73467 0.0
C1018 C 0.63085 0.31661 0.73454 0.0
H1019 H 0.70199 0.29535 0.77514 0.0
H1020 H 0.68804 0.31567 0.75386 0.0
H1021 H 0.66726 0.30307 0.77789 0.0
H1022 H 0.60111 0.27042 0.76077 0.0
H1023 H 0.56264 0.29596 0.76082 0.0
H1024 H 0.79219 0.278 0.13469 0.0
H1025 H 0.82034 0.25462 0.16166 0.0
H1026 H 0.78743 0.2861 0.22776 0.0
H1027 H 0.75925 0.3098 0.20082 0.0
H1028 H 0.85883 0.27091 0.19682 0.0
H1029 H 0.78084 0.2176 0.24277 0.0
H1030 H 0.77449 0.23326 0.21412 0.0
H1031 H 0.7766 0.24762 0.24372 0.0
C1032 C 0.79091 0.27999 0.15496 0.0
C1033 C 0.7735 0.29582 0.16558 0.0
C1034 C 0.80695 0.26656 0.17035 0.0
C1035 C 0.80588 0.26855 0.19671 0.0
C1036 C 0.78828 0.28407 0.20748 0.0
H1037 H 0.93931 0.19617 0.26893 0.0
H1038 H 0.90449 0.22518 0.26731 0.0
C1039 C 0.77216 0.29756 0.19205 0.0
C1040 C 0.82404 0.25477 0.21251 0.0
H1041 H 0.8256 0.20904 0.25172 0.0
C1042 C 0.85164 0.25762 0.20922 0.0
C1043 C 0.8145 0.23753 0.22867 0.0
C1044 C 0.78501 0.2336 0.23256 0.0
C1045 C 0.86998 0.24288 0.22045 0.0
C1046 C 0.86044 0.22499 0.23579 0.0
C1047 C 0.83286 0.22291 0.24022 0.0
C1048 C 0.87816 0.20607 0.24302 0.0
C1049 C 0.89926 0.24563 0.21426 0.0
C1050 C 0.87395 0.18517 0.23158 0.0
C1051 C 0.89356 0.16867 0.23266 0.0
C1052 C 0.91774 0.17268 0.2453 0.0
C1053 C 0.92082 0.19263 0.25909 0.0
C1054 C 0.90108 0.20929 0.25795 0.0
H1055 H 0.90282 0.25853 0.19938 0.0
H1056 H 0.91024 0.25085 0.23145 0.0
H1057 H 0.90776 0.22945 0.20777 0.0
H1058 H 0.8564 0.18223 0.22009 0.0
H1059 H 0.89056 0.15334 0.22205 0.0
H1060 H 0.77218 0.67702 0.69291 0.0
H1061 H 0.79898 0.70129 0.72017 0.0
H1062 H 0.78298 0.75776 0.67125 0.0
H1063 H 0.7568 0.73357 0.64348 0.0
H1064 H 0.84488 0.72483 0.70257 0.0
H1065 H 0.77054 0.78302 0.74312 0.0
H1066 H 0.76149 0.75606 0.72995 0.0
H1067 H 0.76768 0.77978 0.70955 0.0
C1068 C 0.77427 0.69462 0.68793 0.0
C1069 C 0.76246 0.70327 0.66581 0.0
C1070 C 0.78941 0.70849 0.7037 0.0
C1071 C 0.79269 0.73136 0.69792 0.0
C1072 C 0.78021 0.74024 0.67637 0.0
H1073 H 0.88722 0.84378 0.71307 0.0
H1074 H 0.85107 0.81641 0.71203 0.0
C1075 C 0.76523 0.72636 0.66049 0.0
C1076 C 0.81146 0.74548 0.71266 0.0
H1077 H 0.81629 0.79547 0.74364 0.0
C1078 C 0.83866 0.74004 0.71209 0.0
C1079 C 0.80319 0.7652 0.7251 0.0
C1080 C 0.77409 0.7713 0.72723 0.0
C1081 C 0.85809 0.75472 0.72181 0.0
C1082 C 0.84995 0.77515 0.73306 0.0
C1083 C 0.82254 0.77982 0.73511 0.0
C1084 C 0.86945 0.7934 0.73853 0.0
C1085 C 0.88717 0.74901 0.71813 0.0
C1086 C 0.89124 0.79025 0.75491 0.0
C1087 C 0.91227 0.80594 0.75536 0.0
C1088 C 0.91153 0.82502 0.73962 0.0
C1089 C 0.8885 0.82909 0.7252 0.0
C1090 C 0.86772 0.81347 0.72466 0.0
H1091 H 0.88993 0.73443 0.70539 0.0
H1092 H 0.89827 0.76359 0.71012 0.0
H1093 H 0.89619 0.74469 0.73664 0.0
H1094 H 0.8927 0.77511 0.76624 0.0
H1095 H 0.92981 0.80229 0.76654 0.0
H1096 H 0.72513 0.76269 0.14077 0.0
H1097 H 0.68808 0.74616 0.16468 0.0
H1098 H 0.71749 0.77705 0.23268 0.0
H1099 H 0.75491 0.79347 0.20888 0.0
H1100 H 0.70581 0.73048 0.23765 0.0
H1101 H 0.62139 0.77653 0.19466 0.0
H1102 H 0.64343 0.76477 0.17155 0.0
H1103 H 0.65554 0.7863 0.19241 0.0
C1104 C 0.72365 0.76607 0.16079 0.0
C1105 C 0.74294 0.77941 0.17292 0.0
C1106 C 0.70233 0.75679 0.17439 0.0
C1107 C 0.69983 0.76063 0.2004 0.0
C1108 C 0.71892 0.77406 0.21258 0.0
H1109 H 0.55326 0.69907 0.26179 0.0
H1110 H 0.5904 0.72634 0.26148 0.0
C1111 C 0.74019 0.78351 0.19893 0.0
C1112 C 0.67814 0.74938 0.21487 0.0
H1113 H 0.61069 0.7411 0.21467 0.0
C1114 C 0.68495 0.73313 0.23305 0.0
C1115 C 0.65092 0.75314 0.20928 0.0
C1116 C 0.64232 0.77131 0.1911 0.0
C1117 C 0.66537 0.7193 0.24422 0.0
C1118 C 0.6384 0.72169 0.23684 0.0
C1119 C 0.63139 0.73916 0.22024 0.0
C1120 C 0.61802 0.70419 0.24255 0.0
C1121 C 0.67381 0.70167 0.26311 0.0
C1122 C 0.6215 0.68256 0.23272 0.0
C1123 C 0.60041 0.6672 0.23268 0.0
C1124 C 0.57542 0.67308 0.24261 0.0
C1125 C 0.57243 0.69407 0.25428 0.0
C1126 C 0.59356 0.70966 0.25399 0.0
H1127 H 0.69234 0.70681 0.2731 0.0
H1128 H 0.65787 0.69839 0.27726 0.0
H1129 H 0.67801 0.68575 0.25306 0.0
H1130 H 0.63996 0.67807 0.22339 0.0
H1131 H 0.60318 0.65114 0.2235 0.0
H1132 H 0.23402 0.76418 0.33607 0.0
H1133 H 0.26096 0.73797 0.31141 0.0
H1134 H 0.32189 0.78876 0.30215 0.0
H1135 H 0.2954 0.81495 0.32707 0.0
H1136 H 0.30933 0.76127 0.2566 0.0
H1137 H 0.33071 0.71192 0.34377 0.0
H1138 H 0.29609 0.71715 0.33711 0.0
H1139 H 0.31787 0.74019 0.34469 0.0
C1140 C 0.25314 0.76979 0.32879 0.0
C1141 C 0.26261 0.79163 0.33376 0.0
C1142 C 0.26841 0.75485 0.31455 0.0
C1143 C 0.29344 0.76143 0.30507 0.0
C1144 C 0.30253 0.78342 0.30916 0.0
H1145 H 0.43307 0.69999 0.24247 0.0
H1146 H 0.39508 0.72537 0.24758 0.0
C1147 C 0.28732 0.79837 0.32341 0.0
C1148 C 0.31119 0.74485 0.29287 0.0
H1149 H 0.34896 0.69877 0.306 0.0
C1150 C 0.3179 0.74747 0.26727 0.0
C1151 C 0.32239 0.72698 0.3069 0.0
C1152 C 0.31665 0.72387 0.33469 0.0
C1153 C 0.33546 0.73248 0.25527 0.0
C1154 C 0.34692 0.71475 0.26944 0.0
C1155 C 0.33996 0.71217 0.295 0.0
C1156 C 0.3673 0.69921 0.25908 0.0
C1157 C 0.34136 0.73566 0.22758 0.0
C1158 C 0.36415 0.67594 0.26276 0.0
C1159 C 0.38595 0.6616 0.26038 0.0
C1160 C 0.41115 0.67018 0.25377 0.0
C1161 C 0.41369 0.69298 0.2472 0.0
C1162 C 0.39193 0.70749 0.25012 0.0
H1163 H 0.32491 0.7447 0.21787 0.0
H1164 H 0.35979 0.74591 0.22542 0.0
H1165 H 0.34452 0.71929 0.21808 0.0
H1166 H 0.34537 0.66913 0.26958 0.0
H1167 H 0.38362 0.64408 0.26568 0.0
H1168 H 0.22125 0.73092 0.85826 0.0
H1169 H 0.18483 0.74789 0.83418 0.0
H1170 H 0.21223 0.71483 0.76683 0.0
H1171 H 0.24895 0.69783 0.79085 0.0
H1172 H 0.20271 0.76248 0.7616 0.0
H1173 H 0.11671 0.71773 0.80471 0.0
H1174 H 0.13958 0.72893 0.82756 0.0
H1175 H 0.15047 0.70722 0.80647 0.0
C1176 C 0.21945 0.72716 0.83836 0.0
C1177 C 0.23796 0.71303 0.82646 0.0
C1178 C 0.19851 0.73672 0.82466 0.0
C1179 C 0.19565 0.7324 0.79879 0.0
C1180 C 0.21397 0.7182 0.78683 0.0
H1181 H 0.05124 0.79572 0.73676 0.0
H1182 H 0.08767 0.76804 0.73725 0.0
C1183 C 0.23482 0.70844 0.8006 0.0
C1184 C 0.17438 0.7439 0.78423 0.0
H1185 H 0.10719 0.75303 0.78428 0.0
C1186 C 0.18176 0.76009 0.76612 0.0
C1187 C 0.14704 0.74049 0.78977 0.0
C1188 C 0.1379 0.72249 0.80801 0.0
C1189 C 0.16263 0.7742 0.75495 0.0
C1190 C 0.13556 0.77212 0.76222 0.0
C1191 C 0.12797 0.75471 0.77876 0.0
C1192 C 0.11569 0.78985 0.75645 0.0
C1193 C 0.17169 0.79182 0.7362 0.0
C1194 C 0.11964 0.81141 0.76639 0.0
C1195 C 0.09894 0.82698 0.76635 0.0
C1196 C 0.07391 0.82139 0.7562 0.0
C1197 C 0.07048 0.80047 0.74444 0.0
C1198 C 0.0912 0.78466 0.74483 0.0
H1199 H 0.19013 0.7865 0.72627 0.0
H1200 H 0.15593 0.79536 0.72201 0.0
H1201 H 0.17627 0.80763 0.74638 0.0
H1202 H 0.13813 0.81567 0.77587 0.0
H1203 H 0.10201 0.84297 0.77564 0.0
loop_
_geom_bond_atom_site_label_1
_geom_bond_atom_site_label_2
_geom_bond_distance
_geom_bond_site_symmetry_2
_ccdc_geom_bond_type
P0 O11 1.490 . S
P0 C14 1.812 . S
P0 C20 1.803 . S
P0 C26 1.819 . S
H1 C15 0.941 . S
H2 C16 0.939 . S
H3 C18 0.940 . S
H4 C19 0.940 . S
H5 C21 0.939 . S
H6 C22 0.942 . S
H7 C24 0.940 . S
H8 C25 0.939 . S
H9 C27 0.941 . S
H10 C31 0.939 . S
O11 P0 1.490 . S
H12 C28 0.939 . S
H13 C30 0.940 . S
C14 P0 1.812 . S
C14 C15 1.389 . S
C14 C19 1.391 . S
C15 H1 0.941 . S
C15 C14 1.389 . S
C15 C16 1.397 . S
C16 H2 0.939 . S
C16 C15 1.397 . S
C16 C17 1.378 . S
C17 C16 1.378 . S
C17 C18 1.378 . S
C18 H3 0.940 . S
C18 C17 1.378 . S
C18 C19 1.396 . S
C19 H4 0.940 . S
C19 C14 1.391 . S
C19 C18 1.396 . S
C20 P0 1.803 . S
C20 C21 1.378 . S
C20 C25 1.400 . S
C21 H5 0.939 . S
C21 C20 1.378 . S
C21 C22 1.361 . S
C22 H6 0.942 . S
C22 C21 1.361 . S
C22 C23 1.369 . S
C23 C22 1.369 . S
C23 C24 1.404 . S
C24 H7 0.940 . S
C24 C23 1.404 . S
C24 C25 1.389 . S
C25 H8 0.939 . S
C25 C20 1.400 . S
C25 C24 1.389 . S
C26 P0 1.819 . S
C26 C27 1.391 . S
C26 C31 1.391 . S
C27 H9 0.941 . S
C27 C26 1.391 . S
C27 C28 1.396 . S
C28 H12 0.939 . S
C28 C27 1.396 . S
C28 C29 1.397 . S
C29 C28 1.397 . S
C29 C30 1.385 . S
C30 H13 0.940 . S
C30 C29 1.385 . S
C30 C31 1.388 . S
C31 H10 0.939 . S
C31 C26 1.391 . S
C31 C30 1.388 . S
P32 O43 1.490 . S
P32 C46 1.812 . S
P32 C52 1.803 . S
P32 C58 1.819 . S
H33 C47 0.941 . S
H34 C48 0.939 . S
H35 C50 0.940 . S
H36 C51 0.940 . S
H37 C53 0.939 . S
H38 C54 0.942 . S
H39 C56 0.940 . S
H40 C57 0.939 . S
H41 C59 0.941 . S
H42 C63 0.939 . S
O43 P32 1.490 . S
H44 C60 0.939 . S
H45 C62 0.940 . S
C46 P32 1.812 . S
C46 C47 1.389 . S
C46 C51 1.391 . S
C47 H33 0.941 . S
C47 C46 1.389 . S
C47 C48 1.397 . S
C48 H34 0.939 . S
C48 C47 1.397 . S
C48 C49 1.378 . S
C49 C48 1.378 . S
C49 C50 1.378 . S
C50 H35 0.940 . S
C50 C49 1.378 . S
C50 C51 1.396 . S
C51 H36 0.940 . S
C51 C46 1.391 . S
C51 C50 1.396 . S
C52 P32 1.803 . S
C52 C53 1.378 . S
C52 C57 1.400 . S
C53 H37 0.939 . S
C53 C52 1.378 . S
C53 C54 1.361 . S
C54 H38 0.942 . S
C54 C53 1.361 . S
C54 C55 1.369 . S
C55 C54 1.369 . S
C55 C56 1.404 . S
C56 H39 0.940 . S
C56 C55 1.404 . S
C56 C57 1.389 . S
C57 H40 0.939 . S
C57 C52 1.400 . S
C57 C56 1.389 . S
C58 P32 1.819 . S
C58 C59 1.391 . S
C58 C63 1.391 . S
C59 H41 0.941 . S
C59 C58 1.391 . S
C59 C60 1.396 . S
C60 H44 0.939 . S
C60 C59 1.396 . S
C60 C61 1.397 . S
C61 C60 1.397 . S
C61 C62 1.385 . S
C62 H45 0.940 . S
C62 C61 1.385 . S
C62 C63 1.388 . S
C63 H42 0.939 . S
C63 C58 1.391 . S
C63 C62 1.388 . S
P64 O75 1.490 . S
P64 C78 1.812 . S
P64 C84 1.803 . S
P64 C90 1.819 . S
H65 C79 0.941 . S
H66 C80 0.939 . S
H67 C82 0.940 . S
H68 C83 0.940 . S
H69 C85 0.939 . S
H70 C86 0.942 . S
H71 C88 0.940 . S
H72 C89 0.939 . S
H73 C91 0.941 . S
H74 C95 0.939 . S
O75 P64 1.490 . S
H76 C92 0.939 . S
H77 C94 0.940 . S
C78 P64 1.812 . S
C78 C79 1.389 . S
C78 C83 1.391 . S
C79 H65 0.941 . S
C79 C78 1.389 . S
C79 C80 1.397 . S
C80 H66 0.939 . S
C80 C79 1.397 . S
C80 C81 1.378 . S
C81 C80 1.378 . S
C81 C82 1.378 . S
C82 H67 0.940 . S
C82 C81 1.378 . S
C82 C83 1.396 . S
C83 H68 0.940 . S
C83 C78 1.391 . S
C83 C82 1.396 . S
C84 P64 1.803 . S
C84 C85 1.378 . S
C84 C89 1.400 . S
C85 H69 0.939 . S
C85 C84 1.378 . S
C85 C86 1.361 . S
C86 H70 0.942 . S
C86 C85 1.361 . S
C86 C87 1.369 . S
C87 C86 1.369 . S
C87 C88 1.404 . S
C88 H71 0.940 . S
C88 C87 1.404 . S
C88 C89 1.389 . S
C89 H72 0.939 . S
C89 C84 1.400 . S
C89 C88 1.389 . S
C90 P64 1.819 . S
C90 C91 1.391 . S
C90 C95 1.391 . S
C91 H73 0.941 . S
C91 C90 1.391 . S
C91 C92 1.396 . S
C92 H76 0.939 . S
C92 C91 1.396 . S
C92 C93 1.397 . S
C93 C92 1.397 . S
C93 C94 1.385 . S
C94 H77 0.940 . S
C94 C93 1.385 . S
C94 C95 1.388 . S
C95 H74 0.939 . S
C95 C90 1.391 . S
C95 C94 1.388 . S
P96 O107 1.490 . S
P96 C110 1.812 . S
P96 C116 1.803 . S
P96 C122 1.819 . S
H97 C111 0.941 . S
H98 C112 0.939 . S
H99 C114 0.940 . S
H100 C115 0.940 . S
H101 C117 0.939 . S
H102 C118 0.942 . S
H103 C120 0.940 . S
H104 C121 0.939 . S
H105 C123 0.941 . S
H106 C127 0.939 . S
O107 P96 1.490 . S
H108 C124 0.939 . S
H109 C126 0.940 . S
C110 P96 1.812 . S
C110 C111 1.389 . S
C110 C115 1.391 . S
C111 H97 0.941 . S
C111 C110 1.389 . S
C111 C112 1.397 . S
C112 H98 0.939 . S
C112 C111 1.397 . S
C112 C113 1.378 . S
C113 C112 1.378 . S
C113 C114 1.378 . S
C114 H99 0.940 . S
C114 C113 1.378 . S
C114 C115 1.396 . S
C115 H100 0.940 . S
C115 C110 1.391 . S
C115 C114 1.396 . S
C116 P96 1.803 . S
C116 C117 1.378 . S
C116 C121 1.400 . S
C117 H101 0.939 . S
C117 C116 1.378 . S
C117 C118 1.361 . S
C118 H102 0.942 . S
C118 C117 1.361 . S
C118 C119 1.369 . S
C119 C118 1.369 . S
C119 C120 1.404 . S
C120 H103 0.940 . S
C120 C119 1.404 . S
C120 C121 1.389 . S
C121 H104 0.939 . S
C121 C116 1.400 . S
C121 C120 1.389 . S
C122 P96 1.819 . S
C122 C123 1.391 . S
C122 C127 1.391 . S
C123 H105 0.941 . S
C123 C122 1.391 . S
C123 C124 1.396 . S
C124 H108 0.939 . S
C124 C123 1.396 . S
C124 C125 1.397 . S
C125 C124 1.397 . S
C125 C126 1.385 . S
C126 H109 0.940 . S
C126 C125 1.385 . S
C126 C127 1.388 . S
C127 H106 0.939 . S
C127 C122 1.391 . S
C127 C126 1.388 . S
P128 O139 1.490 . S
P128 C142 1.812 . S
P128 C148 1.803 . S
P128 C154 1.819 . S
H129 C143 0.941 . S
H130 C144 0.939 . S
H131 C146 0.940 . S
H132 C147 0.940 . S
H133 C149 0.939 . S
H134 C150 0.942 . S
H135 C152 0.940 . S
H136 C153 0.939 . S
H137 C155 0.941 . S
H138 C159 0.939 . S
O139 P128 1.490 . S
H140 C156 0.939 . S
H141 C158 0.940 . S
C142 P128 1.812 . S
C142 C143 1.389 . S
C142 C147 1.391 . S
C143 H129 0.941 . S
C143 C142 1.389 . S
C143 C144 1.397 . S
C144 H130 0.939 . S
C144 C143 1.397 . S
C144 C145 1.378 . S
C145 C144 1.378 . S
C145 C146 1.378 . S
C146 H131 0.940 . S
C146 C145 1.378 . S
C146 C147 1.396 . S
C147 H132 0.940 . S
C147 C142 1.391 . S
C147 C146 1.396 . S
C148 P128 1.803 . S
C148 C149 1.378 . S
C148 C153 1.400 . S
C149 H133 0.939 . S
C149 C148 1.378 . S
C149 C150 1.361 . S
C150 H134 0.942 . S
C150 C149 1.361 . S
C150 C151 1.369 . S
C151 C150 1.369 . S
C151 C152 1.404 . S
C152 H135 0.940 . S
C152 C151 1.404 . S
C152 C153 1.389 . S
C153 H136 0.939 . S
C153 C148 1.400 . S
C153 C152 1.389 . S
C154 P128 1.819 . S
C154 C155 1.391 . S
C154 C159 1.391 . S
C155 H137 0.941 . S
C155 C154 1.391 . S
C155 C156 1.396 . S
C156 H140 0.939 . S
C156 C155 1.396 . S
C156 C157 1.397 . S
C157 C156 1.397 . S
C157 C158 1.385 . S
C158 H141 0.940 . S
C158 C157 1.385 . S
C158 C159 1.388 . S
C159 H138 0.939 . S
C159 C154 1.391 . S
C159 C158 1.388 . S
P160 O171 1.490 . S
P160 C174 1.812 . S
P160 C180 1.803 . S
P160 C186 1.819 . S
H161 C175 0.941 . S
H162 C176 0.939 . S
H163 C178 0.940 . S
H164 C179 0.940 . S
H165 C181 0.939 . S
H166 C182 0.942 . S
H167 C184 0.940 . S
H168 C185 0.939 . S
H169 C187 0.941 . S
H170 C191 0.939 . S
O171 P160 1.490 . S
H172 C188 0.939 . S
H173 C190 0.940 . S
C174 P160 1.812 . S
C174 C175 1.389 . S
C174 C179 1.391 . S
C175 H161 0.941 . S
C175 C174 1.389 . S
C175 C176 1.397 . S
C176 H162 0.939 . S
C176 C175 1.397 . S
C176 C177 1.378 . S
C177 C176 1.378 . S
C177 C178 1.378 . S
C178 H163 0.940 . S
C178 C177 1.378 . S
C178 C179 1.396 . S
C179 H164 0.940 . S
C179 C174 1.391 . S
C179 C178 1.396 . S
C180 P160 1.803 . S
C180 C181 1.378 . S
C180 C185 1.400 . S
C181 H165 0.939 . S
C181 C180 1.378 . S
C181 C182 1.361 . S
C182 H166 0.942 . S
C182 C181 1.361 . S
C182 C183 1.369 . S
C183 C182 1.369 . S
C183 C184 1.404 . S
C184 H167 0.940 . S
C184 C183 1.404 . S
C184 C185 1.389 . S
C185 H168 0.939 . S
C185 C180 1.400 . S
C185 C184 1.389 . S
C186 P160 1.819 . S
C186 C187 1.391 . S
C186 C191 1.391 . S
C187 H169 0.941 . S
C187 C186 1.391 . S
C187 C188 1.396 . S
C188 H172 0.939 . S
C188 C187 1.396 . S
C188 C189 1.397 . S
C189 C188 1.397 . S
C189 C190 1.385 . S
C190 H173 0.940 . S
C190 C189 1.385 . S
C190 C191 1.388 . S
C191 H170 0.939 . S
C191 C186 1.391 . S
C191 C190 1.388 . S
P192 O203 1.490 . S
P192 C206 1.812 . S
P192 C212 1.803 . S
P192 C218 1.819 . S
H193 C207 0.941 . S
H194 C208 0.939 . S
H195 C210 0.940 . S
H196 C211 0.940 . S
H197 C213 0.939 . S
H198 C214 0.942 . S
H199 C216 0.940 . S
H200 C217 0.939 . S
H201 C219 0.941 . S
H202 C223 0.939 . S
O203 P192 1.490 . S
H204 C220 0.939 . S
H205 C222 0.940 . S
C206 P192 1.812 . S
C206 C207 1.389 . S
C206 C211 1.391 . S
C207 H193 0.941 . S
C207 C206 1.389 . S
C207 C208 1.397 . S
C208 H194 0.939 . S
C208 C207 1.397 . S
C208 C209 1.378 . S
C209 C208 1.378 . S
C209 C210 1.378 . S
C210 H195 0.940 . S
C210 C209 1.378 . S
C210 C211 1.396 . S
C211 H196 0.940 . S
C211 C206 1.391 . S
C211 C210 1.396 . S
C212 P192 1.803 . S
C212 C213 1.378 . S
C212 C217 1.400 . S
C213 H197 0.939 . S
C213 C212 1.378 . S
C213 C214 1.361 . S
C214 H198 0.942 . S
C214 C213 1.361 . S
C214 C215 1.369 . S
C215 C214 1.369 . S
C215 C216 1.404 . S
C216 H199 0.940 . S
C216 C215 1.404 . S
C216 C217 1.389 . S
C217 H200 0.939 . S
C217 C212 1.400 . S
C217 C216 1.389 . S
C218 P192 1.819 . S
C218 C219 1.391 . S
C218 C223 1.391 . S
C219 H201 0.941 . S
C219 C218 1.391 . S
C219 C220 1.396 . S
C220 H204 0.939 . S
C220 C219 1.396 . S
C220 C221 1.397 . S
C221 C220 1.397 . S
C221 C222 1.385 . S
C222 H205 0.940 . S
C222 C221 1.385 . S
C222 C223 1.388 . S
C223 H202 0.939 . S
C223 C218 1.391 . S
C223 C222 1.388 . S
P224 O235 1.490 . S
P224 C238 1.812 . S
P224 C244 1.803 . S
P224 C250 1.819 . S
H225 C239 0.941 . S
H226 C240 0.939 . S
H227 C242 0.940 . S
H228 C243 0.940 . S
H229 C245 0.939 . S
H230 C246 0.942 . S
H231 C248 0.940 . S
H232 C249 0.939 . S
H233 C251 0.941 . S
H234 C255 0.939 . S
O235 P224 1.490 . S
H236 C252 0.939 . S
H237 C254 0.940 . S
C238 P224 1.812 . S
C238 C239 1.389 . S
C238 C243 1.391 . S
C239 H225 0.941 . S
C239 C238 1.389 . S
C239 C240 1.397 . S
C240 H226 0.939 . S
C240 C239 1.397 . S
C240 C241 1.378 . S
C241 C240 1.378 . S
C241 C242 1.378 . S
C242 H227 0.940 . S
C242 C241 1.378 . S
C242 C243 1.396 . S
C243 H228 0.940 . S
C243 C238 1.391 . S
C243 C242 1.396 . S
C244 P224 1.803 . S
C244 C245 1.378 . S
C244 C249 1.400 . S
C245 H229 0.939 . S
C245 C244 1.378 . S
C245 C246 1.361 . S
C246 H230 0.942 . S
C246 C245 1.361 . S
C246 C247 1.369 . S
C247 C246 1.369 . S
C247 C248 1.404 . S
C248 H231 0.940 . S
C248 C247 1.404 . S
C248 C249 1.389 . S
C249 H232 0.939 . S
C249 C244 1.400 . S
C249 C248 1.389 . S
C250 P224 1.819 . S
C250 C251 1.391 . S
C250 C255 1.391 . S
C251 H233 0.941 . S
C251 C250 1.391 . S
C251 C252 1.396 . S
C252 H236 0.939 . S
C252 C251 1.396 . S
C252 C253 1.397 . S
C253 C252 1.397 . S
C253 C254 1.385 . S
C254 H237 0.940 . S
C254 C253 1.385 . S
C254 C255 1.388 . S
C255 H234 0.939 . S
C255 C250 1.391 . S
C255 C254 1.388 . S
Zn256 O262 1.920 . S
Zn256 O268 1.898 . S
Zn256 O271 1.905 . S
Zn257 O265 1.905 1_655 S
Zn257 O266 1.898 . S
Zn257 O274 1.920 . S
Zn258 O261 2.080 1_455 S
Zn258 O264 2.114 . S
Zn258 O267 2.120 1_455 S
Zn258 O269 2.120 . S
Zn258 O270 2.114 . S
Zn258 O273 2.080 1_455 S
C259 O264 1.166 . S
C259 O265 1.182 . S
C260 O266 1.167 . S
C260 O267 1.299 . S
O261 Zn258 2.080 1_655 S
O261 C275 1.305 . S
O262 Zn256 1.920 . S
O262 C275 1.234 1_455 S
C263 O268 1.167 . S
C263 O269 1.299 . S
O264 Zn258 2.114 . S
O264 C259 1.166 . S
O265 Zn257 1.905 1_455 S
O265 C259 1.182 . S
O266 Zn257 1.898 . S
O266 C260 1.167 . S
O267 Zn258 2.120 1_655 S
O267 C260 1.299 . S
O268 Zn256 1.898 . S
O268 C263 1.167 . S
O269 Zn258 2.120 . S
O269 C263 1.299 . S
O270 Zn258 2.114 . S
O270 C272 1.166 . S
O271 Zn256 1.905 . S
O271 C272 1.182 . S
C272 O270 1.166 . S
C272 O271 1.182 . S
O273 Zn258 2.080 1_655 S
O273 C276 1.305 . S
O274 Zn257 1.920 . S
O274 C276 1.234 . S
C275 O261 1.305 . S
C275 O262 1.234 1_655 S
C276 O273 1.305 . S
C276 O274 1.234 . S
Zn277 O283 1.920 . S
Zn277 O289 1.898 . S
Zn277 O292 1.905 . S
Zn278 O286 1.905 . S
Zn278 O287 1.898 . S
Zn278 O295 1.920 . S
Zn279 O282 2.080 . S
Zn279 O285 2.114 . S
Zn279 O288 2.120 . S
Zn279 O290 2.120 . S
Zn279 O291 2.114 . S
Zn279 O294 2.080 . S
C280 O285 1.166 . S
C280 O286 1.182 . S
C281 O287 1.167 . S
C281 O288 1.299 . S
O282 Zn279 2.080 . S
O282 C296 1.305 . S
O283 Zn277 1.920 . S
O283 C296 1.234 . S
C284 O289 1.167 . S
C284 O290 1.299 . S
O285 Zn279 2.114 . S
O285 C280 1.166 . S
O286 Zn278 1.905 . S
O286 C280 1.182 . S
O287 Zn278 1.898 . S
O287 C281 1.167 . S
O288 Zn279 2.120 . S
O288 C281 1.299 . S
O289 Zn277 1.898 . S
O289 C284 1.167 . S
O290 Zn279 2.120 . S
O290 C284 1.299 . S
O291 Zn279 2.114 . S
O291 C293 1.166 . S
O292 Zn277 1.905 . S
O292 C293 1.182 . S
C293 O291 1.166 . S
C293 O292 1.182 . S
O294 Zn279 2.080 . S
O294 C297 1.305 . S
O295 Zn278 1.920 . S
O295 C297 1.234 . S
C296 O282 1.305 . S
C296 O283 1.234 . S
C297 O294 1.305 . S
C297 O295 1.234 . S
Zn298 O304 1.920 . S
Zn298 O310 1.898 . S
Zn298 O313 1.905 1_455 S
Zn299 O307 1.905 . S
Zn299 O308 1.898 . S
Zn299 O316 1.920 1_655 S
Zn300 O303 2.093 . S
Zn300 O306 2.100 1_455 S
Zn300 O309 2.107 1_455 S
Zn300 O311 2.135 . S
Zn300 O312 2.103 1_455 S
Zn300 O315 2.091 . S
C301 O306 1.166 . S
C301 O307 1.182 . S
C302 O308 1.167 . S
C302 O309 1.299 . S
O303 Zn300 2.093 . S
O303 C317 1.305 . S
O304 Zn298 1.920 . S
O304 C317 1.234 . S
C305 O310 1.167 . S
C305 O311 1.299 . S
O306 Zn300 2.100 1_655 S
O306 C301 1.166 . S
O307 Zn299 1.905 . S
O307 C301 1.182 . S
O308 Zn299 1.898 . S
O308 C302 1.167 . S
O309 Zn300 2.107 1_655 S
O309 C302 1.299 . S
O310 Zn298 1.898 . S
O310 C305 1.167 . S
O311 Zn300 2.135 . S
O311 C305 1.299 . S
O312 Zn300 2.103 1_655 S
O312 C314 1.166 . S
O313 Zn298 1.905 1_655 S
O313 C314 1.182 . S
C314 O312 1.166 . S
C314 O313 1.182 . S
O315 Zn300 2.091 . S
O315 C318 1.305 . S
O316 Zn299 1.920 1_455 S
O316 C318 1.234 . S
C317 O303 1.305 . S
C317 O304 1.234 . S
C318 O315 1.305 . S
C318 O316 1.234 . S
Zn319 O325 1.920 . S
Zn319 O331 1.898 . S
Zn319 O334 1.905 . S
Zn320 O328 1.905 . S
Zn320 O329 1.898 . S
Zn320 O337 1.920 . S
Zn321 O324 2.080 . S
Zn321 O327 2.114 . S
Zn321 O330 2.120 . S
Zn321 O332 2.120 . S
Zn321 O333 2.114 . S
Zn321 O336 2.080 . S
C322 O327 1.166 . S
C322 O328 1.182 . S
C323 O329 1.167 . S
C323 O330 1.299 . S
O324 Zn321 2.080 . S
O324 C338 1.305 . S
O325 Zn319 1.920 . S
O325 C338 1.234 . S
C326 O331 1.167 . S
C326 O332 1.299 . S
O327 Zn321 2.114 . S
O327 C322 1.166 . S
O328 Zn320 1.905 . S
O328 C322 1.182 . S
O329 Zn320 1.898 . S
O329 C323 1.167 . S
O330 Zn321 2.120 . S
O330 C323 1.299 . S
O331 Zn319 1.898 . S
O331 C326 1.167 . S
O332 Zn321 2.120 . S
O332 C326 1.299 . S
O333 Zn321 2.114 . S
O333 C335 1.166 . S
O334 Zn319 1.905 . S
O334 C335 1.182 . S
C335 O333 1.166 . S
C335 O334 1.182 . S
O336 Zn321 2.080 . S
O336 C339 1.305 . S
O337 Zn320 1.920 . S
O337 C339 1.234 . S
C338 O324 1.305 . S
C338 O325 1.234 . S
C339 O336 1.305 . S
C339 O337 1.234 . S
H340 C348 0.929 . S
H341 C350 0.930 . S
H342 C352 0.930 . S
H343 C355 0.929 . S
H344 C358 0.930 . S
H345 C360 0.960 . S
H346 C360 0.960 1_565 S
H347 C360 0.960 1_565 S
C348 H340 0.929 . S
C348 C349 1.377 . S
C348 C350 1.384 . S
C349 C348 1.377 . S
C349 C355 1.390 . S
C350 H341 0.930 . S
C350 C348 1.384 . S
C350 C351 1.372 . S
C351 C350 1.372 . S
C351 C352 1.400 . S
C351 C356 1.490 . S
C352 H342 0.930 . S
C352 C351 1.400 . S
C352 C355 1.386 . S
H353 C369 0.930 . S
H354 C370 0.931 . S
C355 H343 0.929 . S
C355 C349 1.390 . S
C355 C352 1.386 . S
C356 C351 1.490 . S
C356 C358 1.395 . S
C356 C359 1.361 1_565 S
H357 C363 0.930 . S
C358 H344 0.930 . S
C358 C356 1.395 . S
C358 C361 1.440 . S
C359 C356 1.361 1_545 S
C359 C360 1.528 . S
C359 C363 1.440 . S
C360 H345 0.960 . S
C360 H346 0.960 1_545 S
C360 H347 0.960 1_545 S
C360 C359 1.528 . S
C361 C358 1.440 . S
C361 C362 1.354 1_565 S
C361 C365 1.499 . S
C362 C361 1.354 1_545 S
C362 C363 1.385 . S
C362 C364 1.478 . S
C363 H357 0.930 . S
C363 C359 1.440 . S
C363 C362 1.385 . S
C364 C362 1.478 . S
C364 C366 1.381 . S
C364 C370 1.383 . S
C365 C361 1.499 . S
C365 H371 0.959 . S
C365 H372 0.961 1_565 S
C365 H373 0.960 1_565 S
C366 C364 1.381 . S
C366 C367 1.394 . S
C366 H374 0.930 . S
C367 C366 1.394 . S
C367 C368 1.383 . S
C367 H375 0.929 . S
C368 C367 1.383 . S
C368 C369 1.377 . S
C369 H353 0.930 . S
C369 C368 1.377 . S
C369 C370 1.379 . S
C370 H354 0.931 . S
C370 C364 1.383 . S
C370 C369 1.379 . S
H371 C365 0.959 . S
H372 C365 0.961 1_545 S
H373 C365 0.960 1_545 S
H374 C366 0.930 . S
H375 C367 0.929 . S
H376 C384 0.929 . S
H377 C386 0.930 . S
H378 C388 0.930 . S
H379 C391 0.929 . S
H380 C394 0.930 . S
H381 C396 0.960 . S
H382 C396 0.960 . S
H383 C396 0.960 . S
C384 H376 0.929 . S
C384 C385 1.377 . S
C384 C386 1.384 . S
C385 C384 1.377 . S
C385 C391 1.390 . S
C386 H377 0.930 . S
C386 C384 1.384 . S
C386 C387 1.372 . S
C387 C386 1.372 . S
C387 C388 1.400 . S
C387 C392 1.490 . S
C388 H378 0.930 . S
C388 C387 1.400 . S
C388 C391 1.386 . S
H389 C405 0.930 . S
H390 C406 0.931 . S
C391 H379 0.929 . S
C391 C385 1.390 . S
C391 C388 1.386 . S
C392 C387 1.490 . S
C392 C394 1.395 . S
C392 C395 1.403 . S
H393 C399 0.930 . S
C394 H380 0.930 . S
C394 C392 1.395 . S
C394 C397 1.403 . S
C395 C392 1.403 . S
C395 C396 1.524 . S
C395 C399 1.400 . S
C396 H381 0.960 . S
C396 H382 0.960 . S
C396 H383 0.960 . S
C396 C395 1.524 . S
C397 C394 1.403 . S
C397 C398 1.392 . S
C397 C401 1.495 . S
C398 C397 1.392 . S
C398 C399 1.385 . S
C398 C400 1.478 . S
C399 H393 0.930 . S
C399 C395 1.400 . S
C399 C398 1.385 . S
C400 C398 1.478 . S
C400 C402 1.381 . S
C400 C406 1.383 . S
C401 C397 1.495 . S
C401 H407 0.959 . S
C401 H408 0.961 . S
C401 H409 0.960 . S
C402 C400 1.381 . S
C402 C403 1.394 . S
C402 H410 0.930 . S
C403 C402 1.394 . S
C403 C404 1.383 . S
C403 H411 0.929 . S
C404 C403 1.383 . S
C404 C405 1.377 . S
C405 H389 0.930 . S
C405 C404 1.377 . S
C405 C406 1.379 . S
C406 H390 0.931 . S
C406 C400 1.383 . S
C406 C405 1.379 . S
H407 C401 0.959 . S
H408 C401 0.961 . S
H409 C401 0.960 . S
H410 C402 0.930 . S
H411 C403 0.929 . S
H412 C420 0.929 . S
H413 C422 0.930 . S
H414 C424 0.930 . S
H415 C427 0.929 . S
H416 C430 0.930 . S
H417 C432 0.960 . S
H418 C432 0.960 . S
H419 C432 0.960 . S
C420 H412 0.929 . S
C420 C421 1.377 . S
C420 C422 1.384 . S
C421 C420 1.377 . S
C421 C427 1.390 . S
C422 H413 0.930 . S
C422 C420 1.384 . S
C422 C423 1.372 . S
C423 C422 1.372 . S
C423 C424 1.400 . S
C423 C428 1.490 . S
C424 H414 0.930 . S
C424 C423 1.400 . S
C424 C427 1.386 . S
H425 C441 0.930 . S
H426 C442 0.931 . S
C427 H415 0.929 . S
C427 C421 1.390 . S
C427 C424 1.386 . S
C428 C423 1.490 . S
C428 C430 1.395 . S
C428 C431 1.403 . S
H429 C435 0.930 . S
C430 H416 0.930 . S
C430 C428 1.395 . S
C430 C433 1.403 . S
C431 C428 1.403 . S
C431 C432 1.524 . S
C431 C435 1.400 . S
C432 H417 0.960 . S
C432 H418 0.960 . S
C432 H419 0.960 . S
C432 C431 1.524 . S
C433 C430 1.403 . S
C433 C434 1.392 . S
C433 C437 1.495 . S
C434 C433 1.392 . S
C434 C435 1.385 . S
C434 C436 1.478 . S
C435 H429 0.930 . S
C435 C431 1.400 . S
C435 C434 1.385 . S
C436 C434 1.478 . S
C436 C438 1.381 . S
C436 C442 1.383 . S
C437 C433 1.495 . S
C437 H443 0.959 . S
C437 H444 0.961 . S
C437 H445 0.960 . S
C438 C436 1.381 . S
C438 C439 1.394 . S
C438 H446 0.930 . S
C439 C438 1.394 . S
C439 C440 1.383 . S
C439 H447 0.929 . S
C440 C439 1.383 . S
C440 C441 1.377 . S
C441 H425 0.930 . S
C441 C440 1.377 . S
C441 C442 1.379 . S
C442 H426 0.931 . S
C442 C436 1.383 . S
C442 C441 1.379 . S
H443 C437 0.959 . S
H444 C437 0.961 . S
H445 C437 0.960 . S
H446 C438 0.930 . S
H447 C439 0.929 . S
H448 C456 0.929 . S
H449 C458 0.930 . S
H450 C460 0.930 . S
H451 C463 0.929 . S
H452 C466 0.930 . S
H453 C468 0.960 . S
H454 C468 0.960 1_565 S
H455 C468 0.960 1_565 S
C456 H448 0.929 . S
C456 C457 1.377 . S
C456 C458 1.384 . S
C457 C456 1.377 . S
C457 C463 1.390 . S
C458 H449 0.930 . S
C458 C456 1.384 . S
C458 C459 1.372 . S
C459 C458 1.372 . S
C459 C460 1.400 . S
C459 C464 1.490 . S
C460 H450 0.930 . S
C460 C459 1.400 . S
C460 C463 1.386 . S
H461 C477 0.930 . S
H462 C478 0.931 . S
C463 H451 0.929 . S
C463 C457 1.390 . S
C463 C460 1.386 . S
C464 C459 1.490 . S
C464 C466 1.395 . S
C464 C467 1.403 1_565 S
H465 C471 0.930 . S
C466 H452 0.930 . S
C466 C464 1.395 . S
C466 C469 1.403 1_565 S
C467 C464 1.403 1_545 S
C467 C468 1.524 . S
C467 C471 1.400 . S
C468 H453 0.960 . S
C468 H454 0.960 1_545 S
C468 H455 0.960 1_545 S
C468 C467 1.524 . S
C469 C466 1.403 1_545 S
C469 C470 1.392 . S
C469 C473 1.495 . S
C470 C469 1.392 . S
C470 C471 1.385 . S
C470 C472 1.478 . S
C471 H465 0.930 . S
C471 C467 1.400 . S
C471 C470 1.385 . S
C472 C470 1.478 . S
C472 C474 1.381 . S
C472 C478 1.383 . S
C473 C469 1.495 . S
C473 H479 0.959 1_545 S
C473 H480 0.961 . S
C473 H481 0.960 . S
C474 C472 1.381 . S
C474 C475 1.394 . S
C474 H482 0.930 . S
C475 C474 1.394 . S
C475 C476 1.383 . S
C475 H483 0.929 . S
C476 C475 1.383 . S
C476 C477 1.377 . S
C477 H461 0.930 . S
C477 C476 1.377 . S
C477 C478 1.379 . S
C478 H462 0.931 . S
C478 C472 1.383 . S
C478 C477 1.379 . S
H479 C473 0.959 1_565 S
H480 C473 0.961 . S
H481 C473 0.960 . S
H482 C474 0.930 . S
H483 C475 0.929 . S
H484 C492 0.929 . S
H485 C494 0.930 . S
H486 C496 0.930 . S
H487 C499 0.929 . S
H488 C502 0.930 . S
H489 C504 0.960 . S
H490 C504 0.960 . S
H491 C504 0.960 . S
C492 H484 0.929 . S
C492 C493 1.377 . S
C492 C494 1.384 . S
C493 C492 1.377 . S
C493 C499 1.390 . S
C494 H485 0.930 . S
C494 C492 1.384 . S
C494 C495 1.372 . S
C495 C494 1.372 . S
C495 C496 1.400 . S
C495 C500 1.490 . S
C496 H486 0.930 . S
C496 C495 1.400 . S
C496 C499 1.386 . S
H497 C513 0.930 . S
H498 C514 0.931 . S
C499 H487 0.929 . S
C499 C493 1.390 . S
C499 C496 1.386 . S
C500 C495 1.490 . S
C500 C502 1.395 . S
C500 C503 1.403 . S
H501 C507 0.930 . S
C502 H488 0.930 . S
C502 C500 1.395 . S
C502 C505 1.403 1_545 S
C503 C500 1.403 . S
C503 C504 1.524 . S
C503 C507 1.400 1_545 S
C504 H489 0.960 . S
C504 H490 0.960 . S
C504 H491 0.960 . S
C504 C503 1.524 . S
C505 C502 1.403 1_565 S
C505 C506 1.392 . S
C505 C509 1.495 . S
C506 C505 1.392 . S
C506 C507 1.385 . S
C506 C508 1.478 . S
C507 H501 0.930 . S
C507 C503 1.400 1_565 S
C507 C506 1.385 . S
C508 C506 1.478 . S
C508 C510 1.381 . S
C508 C514 1.383 . S
C509 C505 1.495 . S
C509 H515 0.959 . S
C509 H516 0.961 . S
C509 H517 0.960 . S
C510 C508 1.381 . S
C510 C511 1.394 . S
C510 H518 0.930 . S
C511 C510 1.394 . S
C511 C512 1.383 . S
C511 H519 0.929 . S
C512 C511 1.383 . S
C512 C513 1.377 . S
C513 H497 0.930 . S
C513 C512 1.377 . S
C513 C514 1.379 . S
C514 H498 0.931 . S
C514 C508 1.383 . S
C514 C513 1.379 . S
H515 C509 0.959 . S
H516 C509 0.961 . S
H517 C509 0.960 . S
H518 C510 0.930 . S
H519 C511 0.929 . S
H520 C528 0.929 . S
H521 C530 0.930 . S
H522 C532 0.930 . S
H523 C535 0.929 . S
H524 C538 0.930 . S
H525 C540 0.960 . S
H526 C540 0.960 . S
H527 C540 0.960 . S
C528 H520 0.929 . S
C528 C529 1.377 . S
C528 C530 1.384 . S
C529 C528 1.377 . S
C529 C535 1.390 . S
C530 H521 0.930 . S
C530 C528 1.384 . S
C530 C531 1.372 . S
C531 C530 1.372 . S
C531 C532 1.400 . S
C531 C536 1.490 . S
C532 H522 0.930 . S
C532 C531 1.400 . S
C532 C535 1.386 . S
H533 C549 0.930 . S
H534 C550 0.931 . S
C535 H523 0.929 . S
C535 C529 1.390 . S
C535 C532 1.386 . S
C536 C531 1.490 . S
C536 C538 1.395 . S
C536 C539 1.403 . S
H537 C543 0.930 . S
C538 H524 0.930 . S
C538 C536 1.395 . S
C538 C541 1.403 . S
C539 C536 1.403 . S
C539 C540 1.524 . S
C539 C543 1.400 . S
C540 H525 0.960 . S
C540 H526 0.960 . S
C540 H527 0.960 . S
C540 C539 1.524 . S
C541 C538 1.403 . S
C541 C542 1.392 . S
C541 C545 1.495 . S
C542 C541 1.392 . S
C542 C543 1.385 . S
C542 C544 1.478 . S
C543 H537 0.930 . S
C543 C539 1.400 . S
C543 C542 1.385 . S
C544 C542 1.478 . S
C544 C546 1.381 . S
C544 C550 1.383 . S
C545 C541 1.495 . S
C545 H551 0.959 . S
C545 H552 0.961 . S
C545 H553 0.960 . S
C546 C544 1.381 . S
C546 C547 1.394 . S
C546 H554 0.930 . S
C547 C546 1.394 . S
C547 C548 1.383 . S
C547 H555 0.929 . S
C548 C547 1.383 . S
C548 C549 1.377 . S
C549 H533 0.930 . S
C549 C548 1.377 . S
C549 C550 1.379 . S
C550 H534 0.931 . S
C550 C544 1.383 . S
C550 C549 1.379 . S
H551 C545 0.959 . S
H552 C545 0.961 . S
H553 C545 0.960 . S
H554 C546 0.930 . S
H555 C547 0.929 . S
H556 C564 0.929 . S
H557 C566 0.930 . S
H558 C568 0.930 . S
H559 C571 0.929 . S
H560 C574 0.930 . S
H561 C576 0.960 . S
H562 C576 0.960 . S
H563 C576 0.960 . S
C564 H556 0.929 . S
C564 C565 1.377 . S
C564 C566 1.384 . S
C565 C564 1.377 . S
C565 C571 1.390 . S
C566 H557 0.930 . S
C566 C564 1.384 . S
C566 C567 1.372 . S
C567 C566 1.372 . S
C567 C568 1.400 . S
C567 C572 1.490 . S
C568 H558 0.930 . S
C568 C567 1.400 . S
C568 C571 1.386 . S
H569 C585 0.930 . S
H570 C586 0.931 . S
C571 H559 0.929 . S
C571 C565 1.390 . S
C571 C568 1.386 . S
C572 C567 1.490 . S
C572 C574 1.395 . S
C572 C575 1.403 . S
H573 C579 0.930 . S
C574 H560 0.930 . S
C574 C572 1.395 . S
C574 C577 1.403 . S
C575 C572 1.403 . S
C575 C576 1.524 . S
C575 C579 1.400 . S
C576 H561 0.960 . S
C576 H562 0.960 . S
C576 H563 0.960 . S
C576 C575 1.524 . S
C577 C574 1.403 . S
C577 C578 1.392 . S
C577 C581 1.495 . S
C578 C577 1.392 . S
C578 C579 1.385 . S
C578 C580 1.478 . S
C579 H573 0.930 . S
C579 C575 1.400 . S
C579 C578 1.385 . S
C580 C578 1.478 . S
C580 C582 1.381 . S
C580 C586 1.383 . S
C581 C577 1.495 . S
C581 H587 0.959 . S
C581 H588 0.961 . S
C581 H589 0.960 . S
C582 C580 1.381 . S
C582 C583 1.394 . S
C582 H590 0.930 . S
C583 C582 1.394 . S
C583 C584 1.383 . S
C583 H591 0.929 . S
C584 C583 1.383 . S
C584 C585 1.377 . S
C585 H569 0.930 . S
C585 C584 1.377 . S
C585 C586 1.379 . S
C586 H570 0.931 . S
C586 C580 1.383 . S
C586 C585 1.379 . S
H587 C581 0.959 . S
H588 C581 0.961 . S
H589 C581 0.960 . S
H590 C582 0.930 . S
H591 C583 0.929 . S
H592 C600 0.929 . S
H593 C602 0.930 . S
H594 C604 0.930 . S
H595 C607 0.929 . S
H596 C610 0.930 . S
H597 C612 0.960 . S
H598 C612 0.960 . S
H599 C612 0.960 . S
C600 H592 0.929 . S
C600 C601 1.377 . S
C600 C602 1.384 . S
C601 C600 1.377 . S
C601 C607 1.390 . S
C602 H593 0.930 . S
C602 C600 1.384 . S
C602 C603 1.372 . S
C603 C602 1.372 . S
C603 C604 1.400 . S
C603 C608 1.490 . S
C604 H594 0.930 . S
C604 C603 1.400 . S
C604 C607 1.386 . S
H605 C621 0.930 . S
H606 C622 0.931 . S
C607 H595 0.929 . S
C607 C601 1.390 . S
C607 C604 1.386 . S
C608 C603 1.490 . S
C608 C610 1.395 1_545 S
C608 C611 1.403 . S
H609 C615 0.930 . S
C610 H596 0.930 . S
C610 C608 1.395 1_565 S
C610 C613 1.403 . S
C611 C608 1.403 . S
C611 C612 1.524 . S
C611 C615 1.400 1_545 S
C612 H597 0.960 . S
C612 H598 0.960 . S
C612 H599 0.960 . S
C612 C611 1.524 . S
C613 C610 1.403 . S
C613 C614 1.392 . S
C613 C617 1.495 . S
C614 C613 1.392 . S
C614 C615 1.385 . S
C614 C616 1.478 . S
C615 H609 0.930 . S
C615 C611 1.400 1_565 S
C615 C614 1.385 . S
C616 C614 1.478 . S
C616 C618 1.381 . S
C616 C622 1.383 . S
C617 C613 1.495 . S
C617 H623 0.959 . S
C617 H624 0.961 . S
C617 H625 0.960 . S
C618 C616 1.381 . S
C618 C619 1.394 . S
C618 H626 0.930 . S
C619 C618 1.394 . S
C619 C620 1.383 . S
C619 H627 0.929 . S
C620 C619 1.383 . S
C620 C621 1.377 . S
C621 H605 0.930 . S
C621 C620 1.377 . S
C621 C622 1.379 . S
C622 H606 0.931 . S
C622 C616 1.383 . S
C622 C621 1.379 . S
H623 C617 0.959 . S
H624 C617 0.961 . S
H625 C617 0.960 . S
H626 C618 0.930 . S
H627 C619 0.929 . S
H628 C636 0.929 . S
H629 C638 0.930 . S
H630 C640 0.930 . S
H631 C643 0.929 . S
H632 C646 0.930 . S
H633 C648 0.960 . S
H634 C648 0.960 . S
H635 C648 0.960 . S
C636 H628 0.929 . S
C636 C637 1.377 . S
C636 C638 1.384 1_556 S
C637 C636 1.377 . S
C637 C643 1.390 1_556 S
C638 H629 0.930 . S
C638 C636 1.384 1_554 S
C638 C639 1.372 . S
C639 C638 1.372 . S
C639 C640 1.400 . S
C639 C644 1.490 . S
C640 H630 0.930 . S
C640 C639 1.400 . S
C640 C643 1.386 . S
H641 C657 0.930 . S
H642 C658 0.931 . S
C643 H631 0.929 . S
C643 C637 1.390 1_554 S
C643 C640 1.386 . S
C644 C639 1.490 . S
C644 C646 1.395 . S
C644 C647 1.403 . S
H645 C651 0.930 . S
C646 H632 0.930 . S
C646 C644 1.395 . S
C646 C649 1.403 . S
C647 C644 1.403 . S
C647 C648 1.524 . S
C647 C651 1.400 . S
C648 H633 0.960 . S
C648 H634 0.960 . S
C648 H635 0.960 . S
C648 C647 1.524 . S
C649 C646 1.403 . S
C649 C650 1.392 . S
C649 C653 1.495 . S
C650 C649 1.392 . S
C650 C651 1.385 . S
C650 C652 1.478 . S
C651 H645 0.930 . S
C651 C647 1.400 . S
C651 C650 1.385 . S
C652 C650 1.478 . S
C652 C654 1.381 . S
C652 C658 1.383 . S
C653 C649 1.495 . S
C653 H659 0.959 . S
C653 H660 0.961 . S
C653 H661 0.960 . S
C654 C652 1.381 . S
C654 C655 1.394 . S
C654 H662 0.930 . S
C655 C654 1.394 . S
C655 C656 1.383 . S
C655 H663 0.929 . S
C656 C655 1.383 . S
C656 C657 1.377 . S
C657 H641 0.930 . S
C657 C656 1.377 . S
C657 C658 1.379 . S
C658 H642 0.931 . S
C658 C652 1.383 . S
C658 C657 1.379 . S
H659 C653 0.959 . S
H660 C653 0.961 . S
H661 C653 0.960 . S
H662 C654 0.930 . S
H663 C655 0.929 . S
H664 C672 0.929 . S
H665 C674 0.930 . S
H666 C676 0.930 . S
H667 C679 0.929 . S
H668 C682 0.930 . S
H669 C684 0.960 . S
H670 C684 0.960 . S
H671 C684 0.960 . S
C672 H664 0.929 . S
C672 C673 1.377 . S
C672 C674 1.384 . S
C673 C672 1.377 . S
C673 C679 1.390 . S
C674 H665 0.930 . S
C674 C672 1.384 . S
C674 C675 1.372 . S
C675 C674 1.372 . S
C675 C676 1.400 . S
C675 C680 1.490 . S
C676 H666 0.930 . S
C676 C675 1.400 . S
C676 C679 1.386 . S
H677 C693 0.930 . S
H678 C694 0.931 . S
C679 H667 0.929 . S
C679 C673 1.390 . S
C679 C676 1.386 . S
C680 C675 1.490 . S
C680 C682 1.395 . S
C680 C683 1.403 . S
H681 C687 0.930 . S
C682 H668 0.930 . S
C682 C680 1.395 . S
C682 C685 1.403 . S
C683 C680 1.403 . S
C683 C684 1.524 . S
C683 C687 1.400 . S
C684 H669 0.960 . S
C684 H670 0.960 . S
C684 H671 0.960 . S
C684 C683 1.524 . S
C685 C682 1.403 . S
C685 C686 1.392 . S
C685 C689 1.495 . S
C686 C685 1.392 . S
C686 C687 1.385 . S
C686 C688 1.478 . S
C687 H681 0.930 . S
C687 C683 1.400 . S
C687 C686 1.385 . S
C688 C686 1.478 . S
C688 C690 1.381 . S
C688 C694 1.383 . S
C689 C685 1.495 . S
C689 H695 0.959 . S
C689 H696 0.961 . S
C689 H697 0.960 . S
C690 C688 1.381 . S
C690 C691 1.394 . S
C690 H698 0.930 . S
C691 C690 1.394 . S
C691 C692 1.383 . S
C691 H699 0.929 . S
C692 C691 1.383 . S
C692 C693 1.377 . S
C693 H677 0.930 . S
C693 C692 1.377 . S
C693 C694 1.379 . S
C694 H678 0.931 . S
C694 C688 1.383 . S
C694 C693 1.379 . S
H695 C689 0.959 . S
H696 C689 0.961 . S
H697 C689 0.960 . S
H698 C690 0.930 . S
H699 C691 0.929 . S
H700 C708 0.929 . S
H701 C710 0.930 . S
H702 C712 0.930 . S
H703 C715 0.929 . S
H704 C718 0.930 . S
H705 C720 0.960 . S
H706 C720 0.960 . S
H707 C720 0.960 . S
C708 H700 0.929 . S
C708 C709 1.377 1_556 S
C708 C710 1.384 . S
C709 C708 1.377 1_554 S
C709 C715 1.390 . S
C710 H701 0.930 . S
C710 C708 1.384 . S
C710 C711 1.372 . S
C711 C710 1.372 . S
C711 C712 1.400 . S
C711 C716 1.490 . S
C712 H702 0.930 . S
C712 C711 1.400 . S
C712 C715 1.386 1_556 S
H713 C729 0.930 . S
H714 C730 0.931 . S
C715 H703 0.929 . S
C715 C709 1.390 . S
C715 C712 1.386 1_554 S
C716 C711 1.490 . S
C716 C718 1.395 . S
C716 C719 1.403 . S
H717 C723 0.930 . S
C718 H704 0.930 . S
C718 C716 1.395 . S
C718 C721 1.403 . S
C719 C716 1.403 . S
C719 C720 1.524 . S
C719 C723 1.400 . S
C720 H705 0.960 . S
C720 H706 0.960 . S
C720 H707 0.960 . S
C720 C719 1.524 . S
C721 C718 1.403 . S
C721 C722 1.392 . S
C721 C725 1.495 . S
C722 C721 1.392 . S
C722 C723 1.385 . S
C722 C724 1.478 . S
C723 H717 0.930 . S
C723 C719 1.400 . S
C723 C722 1.385 . S
C724 C722 1.478 . S
C724 C726 1.381 . S
C724 C730 1.383 . S
C725 C721 1.495 . S
C725 H731 0.959 . S
C725 H732 0.961 . S
C725 H733 0.960 . S
C726 C724 1.381 . S
C726 C727 1.394 . S
C726 H734 0.930 . S
C727 C726 1.394 . S
C727 C728 1.383 . S
C727 H735 0.929 . S
C728 C727 1.383 . S
C728 C729 1.377 . S
C729 H713 0.930 . S
C729 C728 1.377 . S
C729 C730 1.379 . S
C730 H714 0.931 . S
C730 C724 1.383 . S
C730 C729 1.379 . S
H731 C725 0.959 . S
H732 C725 0.961 . S
H733 C725 0.960 . S
H734 C726 0.930 . S
H735 C727 0.929 . S
H736 C744 0.929 . S
H737 C746 0.930 . S
H738 C748 0.930 . S
H739 C751 0.929 . S
H740 C754 0.930 . S
H741 C756 0.960 . S
H742 C756 0.960 . S
H743 C756 0.960 . S
C744 H736 0.929 . S
C744 C745 1.377 . S
C744 C746 1.384 . S
C745 C744 1.377 . S
C745 C751 1.390 . S
C746 H737 0.930 . S
C746 C744 1.384 . S
C746 C747 1.372 . S
C747 C746 1.372 . S
C747 C748 1.400 . S
C747 C752 1.490 . S
C748 H738 0.930 . S
C748 C747 1.400 . S
C748 C751 1.386 . S
H749 C765 0.930 . S
H750 C766 0.931 . S
C751 H739 0.929 . S
C751 C745 1.390 . S
C751 C748 1.386 . S
C752 C747 1.490 . S
C752 C754 1.395 . S
C752 C755 1.403 . S
H753 C759 0.930 . S
C754 H740 0.930 . S
C754 C752 1.395 . S
C754 C757 1.403 . S
C755 C752 1.403 . S
C755 C756 1.524 . S
C755 C759 1.400 . S
C756 H741 0.960 . S
C756 H742 0.960 . S
C756 H743 0.960 . S
C756 C755 1.524 . S
C757 C754 1.403 . S
C757 C758 1.392 . S
C757 C761 1.495 . S
C758 C757 1.392 . S
C758 C759 1.385 . S
C758 C760 1.478 . S
C759 H753 0.930 . S
C759 C755 1.400 . S
C759 C758 1.385 . S
C760 C758 1.478 . S
C760 C762 1.381 . S
C760 C766 1.383 . S
C761 C757 1.495 . S
C761 H767 0.959 . S
C761 H768 0.961 . S
C761 H769 0.960 . S
C762 C760 1.381 . S
C762 C763 1.394 . S
C762 H770 0.930 . S
C763 C762 1.394 . S
C763 C764 1.383 . S
C763 H771 0.929 . S
C764 C763 1.383 . S
C764 C765 1.377 . S
C765 H749 0.930 . S
C765 C764 1.377 . S
C765 C766 1.379 . S
C766 H750 0.931 . S
C766 C760 1.383 . S
C766 C765 1.379 . S
H767 C761 0.959 . S
H768 C761 0.961 . S
H769 C761 0.960 . S
H770 C762 0.930 . S
H771 C763 0.929 . S
H772 C780 0.929 . S
H773 C782 0.930 . S
H774 C784 0.930 . S
H775 C787 0.929 . S
H776 C790 0.930 . S
H777 C792 0.960 . S
H778 C792 0.960 . S
H779 C792 0.960 . S
C780 H772 0.929 . S
C780 C781 1.377 1_556 S
C780 C782 1.384 . S
C781 C780 1.377 1_554 S
C781 C787 1.390 . S
C782 H773 0.930 . S
C782 C780 1.384 . S
C782 C783 1.372 . S
C783 C782 1.372 . S
C783 C784 1.400 . S
C783 C788 1.490 . S
C784 H774 0.930 . S
C784 C783 1.400 . S
C784 C787 1.386 1_556 S
H785 C801 0.930 . S
H786 C802 0.931 . S
C787 H775 0.929 . S
C787 C781 1.390 . S
C787 C784 1.386 1_554 S
C788 C783 1.490 . S
C788 C790 1.395 . S
C788 C791 1.403 . S
H789 C795 0.930 . S
C790 H776 0.930 . S
C790 C788 1.395 . S
C790 C793 1.403 . S
C791 C788 1.403 . S
C791 C792 1.524 . S
C791 C795 1.400 . S
C792 H777 0.960 . S
C792 H778 0.960 . S
C792 H779 0.960 . S
C792 C791 1.524 . S
C793 C790 1.403 . S
C793 C794 1.392 . S
C793 C797 1.495 . S
C794 C793 1.392 . S
C794 C795 1.385 . S
C794 C796 1.478 . S
C795 H789 0.930 . S
C795 C791 1.400 . S
C795 C794 1.385 . S
C796 C794 1.478 . S
C796 C798 1.381 . S
C796 C802 1.383 . S
C797 C793 1.495 . S
C797 H803 0.959 . S
C797 H804 0.961 . S
C797 H805 0.960 . S
C798 C796 1.381 . S
C798 C799 1.394 . S
C798 H806 0.930 . S
C799 C798 1.394 . S
C799 C800 1.383 . S
C799 H807 0.929 . S
C800 C799 1.383 . S
C800 C801 1.377 . S
C801 H785 0.930 . S
C801 C800 1.377 . S
C801 C802 1.379 . S
C802 H786 0.931 . S
C802 C796 1.383 . S
C802 C801 1.379 . S
H803 C797 0.959 . S
H804 C797 0.961 . S
H805 C797 0.960 . S
H806 C798 0.930 . S
H807 C799 0.929 . S
H808 C816 0.929 . S
H809 C818 0.930 . S
H810 C820 0.930 . S
H811 C823 0.929 . S
H812 C826 0.930 . S
H813 C828 0.960 . S
H814 C828 0.960 . S
H815 C828 0.960 . S
C816 H808 0.929 . S
C816 C817 1.377 . S
C816 C818 1.384 . S
C817 C816 1.377 . S
C817 C823 1.390 . S
C818 H809 0.930 . S
C818 C816 1.384 . S
C818 C819 1.372 . S
C819 C818 1.372 . S
C819 C820 1.400 . S
C819 C824 1.490 . S
C820 H810 0.930 . S
C820 C819 1.400 . S
C820 C823 1.386 . S
H821 C837 0.930 . S
H822 C838 0.931 . S
C823 H811 0.929 . S
C823 C817 1.390 . S
C823 C820 1.386 . S
C824 C819 1.490 . S
C824 C826 1.395 . S
C824 C827 1.403 . S
H825 C831 0.930 . S
C826 H812 0.930 . S
C826 C824 1.395 . S
C826 C829 1.403 . S
C827 C824 1.403 . S
C827 C828 1.524 . S
C827 C831 1.400 . S
C828 H813 0.960 . S
C828 H814 0.960 . S
C828 H815 0.960 . S
C828 C827 1.524 . S
C829 C826 1.403 . S
C829 C830 1.392 . S
C829 C833 1.495 . S
C830 C829 1.392 . S
C830 C831 1.385 . S
C830 C832 1.478 . S
C831 H825 0.930 . S
C831 C827 1.400 . S
C831 C830 1.385 . S
C832 C830 1.478 . S
C832 C834 1.381 . S
C832 C838 1.383 . S
C833 C829 1.495 . S
C833 H839 0.959 . S
C833 H840 0.961 . S
C833 H841 0.960 . S
C834 C832 1.381 . S
C834 C835 1.394 . S
C834 H842 0.930 . S
C835 C834 1.394 . S
C835 C836 1.383 . S
C835 H843 0.929 . S
C836 C835 1.383 . S
C836 C837 1.377 . S
C837 H821 0.930 . S
C837 C836 1.377 . S
C837 C838 1.379 . S
C838 H822 0.931 . S
C838 C832 1.383 . S
C838 C837 1.379 . S
H839 C833 0.959 . S
H840 C833 0.961 . S
H841 C833 0.960 . S
H842 C834 0.930 . S
H843 C835 0.929 . S
H844 C852 0.929 1_556 S
H845 C854 0.930 . S
H846 C856 0.930 . S
H847 C859 0.929 . S
H848 C862 0.930 . S
H849 C864 0.960 . S
H850 C864 0.960 . S
H851 C864 0.960 . S
C852 H844 0.929 1_554 S
C852 C853 1.377 1_554 S
C852 C854 1.384 . S
C853 C852 1.377 1_556 S
C853 C859 1.390 . S
C854 H845 0.930 . S
C854 C852 1.384 . S
C854 C855 1.372 . S
C855 C854 1.372 . S
C855 C856 1.400 . S
C855 C860 1.490 . S
C856 H846 0.930 . S
C856 C855 1.400 . S
C856 C859 1.386 1_554 S
H857 C873 0.930 . S
H858 C874 0.931 . S
C859 H847 0.929 . S
C859 C853 1.390 . S
C859 C856 1.386 1_556 S
C860 C855 1.490 . S
C860 C862 1.395 . S
C860 C863 1.403 . S
H861 C867 0.930 . S
C862 H848 0.930 . S
C862 C860 1.395 . S
C862 C865 1.403 . S
C863 C860 1.403 . S
C863 C864 1.524 . S
C863 C867 1.400 . S
C864 H849 0.960 . S
C864 H850 0.960 . S
C864 H851 0.960 . S
C864 C863 1.524 . S
C865 C862 1.403 . S
C865 C866 1.392 . S
C865 C869 1.495 . S
C866 C865 1.392 . S
C866 C867 1.385 . S
C866 C868 1.478 . S
C867 H861 0.930 . S
C867 C863 1.400 . S
C867 C866 1.385 . S
C868 C866 1.478 . S
C868 C870 1.381 . S
C868 C874 1.383 . S
C869 C865 1.495 . S
C869 H875 0.959 . S
C869 H876 0.961 . S
C869 H877 0.960 . S
C870 C868 1.381 . S
C870 C871 1.394 . S
C870 H878 0.930 . S
C871 C870 1.394 . S
C871 C872 1.383 . S
C871 H879 0.929 . S
C872 C871 1.383 . S
C872 C873 1.377 . S
C873 H857 0.930 . S
C873 C872 1.377 . S
C873 C874 1.379 . S
C874 H858 0.931 . S
C874 C868 1.383 . S
C874 C873 1.379 . S
H875 C869 0.959 . S
H876 C869 0.961 . S
H877 C869 0.960 . S
H878 C870 0.930 . S
H879 C871 0.929 . S
H880 C888 0.929 . S
H881 C890 0.930 . S
H882 C892 0.930 . S
H883 C895 0.929 . S
H884 C898 0.930 . S
H885 C900 0.960 . S
H886 C900 0.960 . S
H887 C900 0.960 . S
C888 H880 0.929 . S
C888 C889 1.377 . S
C888 C890 1.384 . S
C889 C888 1.377 . S
C889 C895 1.390 . S
C890 H881 0.930 . S
C890 C888 1.384 . S
C890 C891 1.372 . S
C891 C890 1.372 . S
C891 C892 1.400 . S
C891 C896 1.490 . S
C892 H882 0.930 . S
C892 C891 1.400 . S
C892 C895 1.386 . S
H893 C909 0.930 . S
H894 C910 0.931 . S
C895 H883 0.929 . S
C895 C889 1.390 . S
C895 C892 1.386 . S
C896 C891 1.490 . S
C896 C898 1.395 . S
C896 C899 1.403 . S
H897 C903 0.930 . S
C898 H884 0.930 . S
C898 C896 1.395 . S
C898 C901 1.403 . S
C899 C896 1.403 . S
C899 C900 1.524 . S
C899 C903 1.400 . S
C900 H885 0.960 . S
C900 H886 0.960 . S
C900 H887 0.960 . S
C900 C899 1.524 . S
C901 C898 1.403 . S
C901 C902 1.392 . S
C901 C905 1.495 . S
C902 C901 1.392 . S
C902 C903 1.385 . S
C902 C904 1.478 . S
C903 H897 0.930 . S
C903 C899 1.400 . S
C903 C902 1.385 . S
C904 C902 1.478 . S
C904 C906 1.381 . S
C904 C910 1.383 . S
C905 C901 1.495 . S
C905 H911 0.959 . S
C905 H912 0.961 . S
C905 H913 0.960 . S
C906 C904 1.381 . S
C906 C907 1.394 . S
C906 H914 0.930 . S
C907 C906 1.394 . S
C907 C908 1.383 . S
C907 H915 0.929 . S
C908 C907 1.383 . S
C908 C909 1.377 . S
C909 H893 0.930 . S
C909 C908 1.377 . S
C909 C910 1.379 . S
C910 H894 0.931 . S
C910 C904 1.383 . S
C910 C909 1.379 . S
H911 C905 0.959 . S
H912 C905 0.961 . S
H913 C905 0.960 . S
H914 C906 0.930 . S
H915 C907 0.929 . S
H916 C924 0.929 . S
H917 C926 0.930 . S
H918 C928 0.930 . S
H919 C931 0.929 . S
H920 C934 0.930 . S
H921 C936 0.960 . S
H922 C936 0.960 . S
H923 C936 0.960 . S
C924 H916 0.929 . S
C924 C925 1.377 . S
C924 C926 1.384 . S
C925 C924 1.377 . S
C925 C931 1.390 . S
C926 H917 0.930 . S
C926 C924 1.384 . S
C926 C927 1.372 . S
C927 C926 1.372 . S
C927 C928 1.400 . S
C927 C932 1.490 . S
C928 H918 0.930 . S
C928 C927 1.400 . S
C928 C931 1.386 . S
H929 C945 0.930 . S
H930 C946 0.931 . S
C931 H919 0.929 . S
C931 C925 1.390 . S
C931 C928 1.386 . S
C932 C927 1.490 . S
C932 C934 1.395 . S
C932 C935 1.403 . S
H933 C939 0.930 . S
C934 H920 0.930 . S
C934 C932 1.395 . S
C934 C937 1.403 . S
C935 C932 1.403 . S
C935 C936 1.524 . S
C935 C939 1.400 . S
C936 H921 0.960 . S
C936 H922 0.960 . S
C936 H923 0.960 . S
C936 C935 1.524 . S
C937 C934 1.403 . S
C937 C938 1.392 . S
C937 C941 1.495 . S
C938 C937 1.392 . S
C938 C939 1.385 . S
C938 C940 1.478 . S
C939 H933 0.930 . S
C939 C935 1.400 . S
C939 C938 1.385 . S
C940 C938 1.478 . S
C940 C942 1.381 . S
C940 C946 1.383 . S
C941 C937 1.495 . S
C941 H947 0.959 . S
C941 H948 0.961 . S
C941 H949 0.960 . S
C942 C940 1.381 . S
C942 C943 1.394 . S
C942 H950 0.930 . S
C943 C942 1.394 . S
C943 C944 1.383 . S
C943 H951 0.929 . S
C944 C943 1.383 . S
C944 C945 1.377 . S
C945 H929 0.930 . S
C945 C944 1.377 . S
C945 C946 1.379 . S
C946 H930 0.931 . S
C946 C940 1.383 . S
C946 C945 1.379 . S
H947 C941 0.959 . S
H948 C941 0.961 . S
H949 C941 0.960 . S
H950 C942 0.930 . S
H951 C943 0.929 . S
H952 C960 0.929 . S
H953 C962 0.930 . S
H954 C964 0.930 . S
H955 C967 0.929 . S
H956 C970 0.930 . S
H957 C972 0.960 . S
H958 C972 0.960 . S
H959 C972 0.960 . S
C960 H952 0.929 . S
C960 C961 1.377 . S
C960 C962 1.384 . S
C961 C960 1.377 . S
C961 C967 1.390 . S
C962 H953 0.930 . S
C962 C960 1.384 . S
C962 C963 1.372 . S
C963 C962 1.372 . S
C963 C964 1.400 . S
C963 C968 1.490 . S
C964 H954 0.930 . S
C964 C963 1.400 . S
C964 C967 1.386 . S
H965 C981 0.930 . S
H966 C982 0.931 . S
C967 H955 0.929 . S
C967 C961 1.390 . S
C967 C964 1.386 . S
C968 C963 1.490 . S
C968 C970 1.395 . S
C968 C971 1.403 . S
H969 C975 0.930 . S
C970 H956 0.930 . S
C970 C968 1.395 . S
C970 C973 1.403 . S
C971 C968 1.403 . S
C971 C972 1.524 . S
C971 C975 1.400 . S
C972 H957 0.960 . S
C972 H958 0.960 . S
C972 H959 0.960 . S
C972 C971 1.524 . S
C973 C970 1.403 . S
C973 C974 1.392 . S
C973 C977 1.495 . S
C974 C973 1.392 . S
C974 C975 1.385 . S
C974 C976 1.478 . S
C975 H969 0.930 . S
C975 C971 1.400 . S
C975 C974 1.385 . S
C976 C974 1.478 . S
C976 C978 1.381 . S
C976 C982 1.383 . S
C977 C973 1.495 . S
C977 H983 0.959 . S
C977 H984 0.961 . S
C977 H985 0.960 . S
C978 C976 1.381 . S
C978 C979 1.394 . S
C978 H986 0.930 . S
C979 C978 1.394 . S
C979 C980 1.383 . S
C979 H987 0.929 . S
C980 C979 1.383 . S
C980 C981 1.377 . S
C981 H965 0.930 . S
C981 C980 1.377 . S
C981 C982 1.379 . S
C982 H966 0.931 . S
C982 C976 1.383 . S
C982 C981 1.379 . S
H983 C977 0.959 . S
H984 C977 0.961 . S
H985 C977 0.960 . S
H986 C978 0.930 . S
H987 C979 0.929 . S
H988 C996 0.929 . S
H989 C998 0.930 . S
H990 C1000 0.930 . S
H991 C1003 0.929 . S
H992 C1006 0.930 . S
H993 C1008 0.960 . S
H994 C1008 0.960 . S
H995 C1008 0.960 . S
C996 H988 0.929 . S
C996 C997 1.377 . S
C996 C998 1.384 . S
C997 C996 1.377 . S
C997 C1003 1.390 . S
C998 H989 0.930 . S
C998 C996 1.384 . S
C998 C999 1.372 . S
C999 C998 1.372 . S
C999 C1000 1.400 . S
C999 C1004 1.490 . S
C1000 H990 0.930 . S
C1000 C999 1.400 . S
C1000 C1003 1.386 . S
H1001 C1017 0.930 . S
H1002 C1018 0.931 . S
C1003 H991 0.929 . S
C1003 C997 1.390 . S
C1003 C1000 1.386 . S
C1004 C999 1.490 . S
C1004 C1006 1.395 . S
C1004 C1007 1.403 . S
H1005 C1011 0.930 . S
C1006 H992 0.930 . S
C1006 C1004 1.395 . S
C1006 C1009 1.403 . S
C1007 C1004 1.403 . S
C1007 C1008 1.524 . S
C1007 C1011 1.400 . S
C1008 H993 0.960 . S
C1008 H994 0.960 . S
C1008 H995 0.960 . S
C1008 C1007 1.524 . S
C1009 C1006 1.403 . S
C1009 C1010 1.392 . S
C1009 C1013 1.495 . S
C1010 C1009 1.392 . S
C1010 C1011 1.385 . S
C1010 C1012 1.478 . S
C1011 H1005 0.930 . S
C1011 C1007 1.400 . S
C1011 C1010 1.385 . S
C1012 C1010 1.478 . S
C1012 C1014 1.381 . S
C1012 C1018 1.383 . S
C1013 C1009 1.495 . S
C1013 H1019 0.959 . S
C1013 H1020 0.961 . S
C1013 H1021 0.960 . S
C1014 C1012 1.381 . S
C1014 C1015 1.394 . S
C1014 H1022 0.930 . S
C1015 C1014 1.394 . S
C1015 C1016 1.383 . S
C1015 H1023 0.929 . S
C1016 C1015 1.383 . S
C1016 C1017 1.377 . S
C1017 H1001 0.930 . S
C1017 C1016 1.377 . S
C1017 C1018 1.379 . S
C1018 H1002 0.931 . S
C1018 C1012 1.383 . S
C1018 C1017 1.379 . S
H1019 C1013 0.959 . S
H1020 C1013 0.961 . S
H1021 C1013 0.960 . S
H1022 C1014 0.930 . S
H1023 C1015 0.929 . S
H1024 C1032 0.929 . S
H1025 C1034 0.930 . S
H1026 C1036 0.930 . S
H1027 C1039 0.929 . S
H1028 C1042 0.930 . S
H1029 C1044 0.960 . S
H1030 C1044 0.960 . S
H1031 C1044 0.960 . S
C1032 H1024 0.929 . S
C1032 C1033 1.377 . S
C1032 C1034 1.384 . S
C1033 C1032 1.377 . S
C1033 C1039 1.390 . S
C1034 H1025 0.930 . S
C1034 C1032 1.384 . S
C1034 C1035 1.372 . S
C1035 C1034 1.372 . S
C1035 C1036 1.400 . S
C1035 C1040 1.490 . S
C1036 H1026 0.930 . S
C1036 C1035 1.400 . S
C1036 C1039 1.386 . S
H1037 C1053 0.930 . S
H1038 C1054 0.931 . S
C1039 H1027 0.929 . S
C1039 C1033 1.390 . S
C1039 C1036 1.386 . S
C1040 C1035 1.490 . S
C1040 C1042 1.395 . S
C1040 C1043 1.403 . S
H1041 C1047 0.930 . S
C1042 H1028 0.930 . S
C1042 C1040 1.395 . S
C1042 C1045 1.403 . S
C1043 C1040 1.403 . S
C1043 C1044 1.524 . S
C1043 C1047 1.400 . S
C1044 H1029 0.960 . S
C1044 H1030 0.960 . S
C1044 H1031 0.960 . S
C1044 C1043 1.524 . S
C1045 C1042 1.403 . S
C1045 C1046 1.392 . S
C1045 C1049 1.495 . S
C1046 C1045 1.392 . S
C1046 C1047 1.385 . S
C1046 C1048 1.478 . S
C1047 H1041 0.930 . S
C1047 C1043 1.400 . S
C1047 C1046 1.385 . S
C1048 C1046 1.478 . S
C1048 C1050 1.381 . S
C1048 C1054 1.383 . S
C1049 C1045 1.495 . S
C1049 H1055 0.959 . S
C1049 H1056 0.961 . S
C1049 H1057 0.960 . S
C1050 C1048 1.381 . S
C1050 C1051 1.394 . S
C1050 H1058 0.930 . S
C1051 C1050 1.394 . S
C1051 C1052 1.383 . S
C1051 H1059 0.929 . S
C1052 C1051 1.383 . S
C1052 C1053 1.377 . S
C1053 H1037 0.930 . S
C1053 C1052 1.377 . S
C1053 C1054 1.379 . S
C1054 H1038 0.931 . S
C1054 C1048 1.383 . S
C1054 C1053 1.379 . S
H1055 C1049 0.959 . S
H1056 C1049 0.961 . S
H1057 C1049 0.960 . S
H1058 C1050 0.930 . S
H1059 C1051 0.929 . S
H1060 C1068 0.929 . S
H1061 C1070 0.930 . S
H1062 C1072 0.930 . S
H1063 C1075 0.929 . S
H1064 C1078 0.930 . S
H1065 C1080 0.960 . S
H1066 C1080 0.960 . S
H1067 C1080 0.960 . S
C1068 H1060 0.929 . S
C1068 C1069 1.377 . S
C1068 C1070 1.384 . S
C1069 C1068 1.377 . S
C1069 C1075 1.390 . S
C1070 H1061 0.930 . S
C1070 C1068 1.384 . S
C1070 C1071 1.372 . S
C1071 C1070 1.372 . S
C1071 C1072 1.400 . S
C1071 C1076 1.490 . S
C1072 H1062 0.930 . S
C1072 C1071 1.400 . S
C1072 C1075 1.386 . S
H1073 C1089 0.930 . S
H1074 C1090 0.931 . S
C1075 H1063 0.929 . S
C1075 C1069 1.390 . S
C1075 C1072 1.386 . S
C1076 C1071 1.490 . S
C1076 C1078 1.395 . S
C1076 C1079 1.403 . S
H1077 C1083 0.930 . S
C1078 H1064 0.930 . S
C1078 C1076 1.395 . S
C1078 C1081 1.403 . S
C1079 C1076 1.403 . S
C1079 C1080 1.524 . S
C1079 C1083 1.400 . S
C1080 H1065 0.960 . S
C1080 H1066 0.960 . S
C1080 H1067 0.960 . S
C1080 C1079 1.524 . S
C1081 C1078 1.403 . S
C1081 C1082 1.392 . S
C1081 C1085 1.495 . S
C1082 C1081 1.392 . S
C1082 C1083 1.385 . S
C1082 C1084 1.478 . S
C1083 H1077 0.930 . S
C1083 C1079 1.400 . S
C1083 C1082 1.385 . S
C1084 C1082 1.478 . S
C1084 C1086 1.381 . S
C1084 C1090 1.383 . S
C1085 C1081 1.495 . S
C1085 H1091 0.959 . S
C1085 H1092 0.961 . S
C1085 H1093 0.960 . S
C1086 C1084 1.381 . S
C1086 C1087 1.394 . S
C1086 H1094 0.930 . S
C1087 C1086 1.394 . S
C1087 C1088 1.383 . S
C1087 H1095 0.929 . S
C1088 C1087 1.383 . S
C1088 C1089 1.377 . S
C1089 H1073 0.930 . S
C1089 C1088 1.377 . S
C1089 C1090 1.379 . S
C1090 H1074 0.931 . S
C1090 C1084 1.383 . S
C1090 C1089 1.379 . S
H1091 C1085 0.959 . S
H1092 C1085 0.961 . S
H1093 C1085 0.960 . S
H1094 C1086 0.930 . S
H1095 C1087 0.929 . S
H1096 C1104 0.929 . S
H1097 C1106 0.930 . S
H1098 C1108 0.930 . S
H1099 C1111 0.929 . S
H1100 C1114 0.930 . S
H1101 C1116 0.960 . S
H1102 C1116 0.960 . S
H1103 C1116 0.960 . S
C1104 H1096 0.929 . S
C1104 C1105 1.377 . S
C1104 C1106 1.384 . S
C1105 C1104 1.377 . S
C1105 C1111 1.390 . S
C1106 H1097 0.930 . S
C1106 C1104 1.384 . S
C1106 C1107 1.372 . S
C1107 C1106 1.372 . S
C1107 C1108 1.400 . S
C1107 C1112 1.490 . S
C1108 H1098 0.930 . S
C1108 C1107 1.400 . S
C1108 C1111 1.386 . S
H1109 C1125 0.930 . S
H1110 C1126 0.931 . S
C1111 H1099 0.929 . S
C1111 C1105 1.390 . S
C1111 C1108 1.386 . S
C1112 C1107 1.490 . S
C1112 C1114 1.395 . S
C1112 C1115 1.403 . S
H1113 C1119 0.930 . S
C1114 H1100 0.930 . S
C1114 C1112 1.395 . S
C1114 C1117 1.403 . S
C1115 C1112 1.403 . S
C1115 C1116 1.524 . S
C1115 C1119 1.400 . S
C1116 H1101 0.960 . S
C1116 H1102 0.960 . S
C1116 H1103 0.960 . S
C1116 C1115 1.524 . S
C1117 C1114 1.403 . S
C1117 C1118 1.392 . S
C1117 C1121 1.495 . S
C1118 C1117 1.392 . S
C1118 C1119 1.385 . S
C1118 C1120 1.478 . S
C1119 H1113 0.930 . S
C1119 C1115 1.400 . S
C1119 C1118 1.385 . S
C1120 C1118 1.478 . S
C1120 C1122 1.381 . S
C1120 C1126 1.383 . S
C1121 C1117 1.495 . S
C1121 H1127 0.959 . S
C1121 H1128 0.961 . S
C1121 H1129 0.960 . S
C1122 C1120 1.381 . S
C1122 C1123 1.394 . S
C1122 H1130 0.930 . S
C1123 C1122 1.394 . S
C1123 C1124 1.383 . S
C1123 H1131 0.929 . S
C1124 C1123 1.383 . S
C1124 C1125 1.377 . S
C1125 H1109 0.930 . S
C1125 C1124 1.377 . S
C1125 C1126 1.379 . S
C1126 H1110 0.931 . S
C1126 C1120 1.383 . S
C1126 C1125 1.379 . S
H1127 C1121 0.959 . S
H1128 C1121 0.961 . S
H1129 C1121 0.960 . S
H1130 C1122 0.930 . S
H1131 C1123 0.929 . S
H1132 C1140 0.929 . S
H1133 C1142 0.930 . S
H1134 C1144 0.930 . S
H1135 C1147 0.929 . S
H1136 C1150 0.930 . S
H1137 C1152 0.960 . S
H1138 C1152 0.960 . S
H1139 C1152 0.960 . S
C1140 H1132 0.929 . S
C1140 C1141 1.377 . S
C1140 C1142 1.384 . S
C1141 C1140 1.377 . S
C1141 C1147 1.390 . S
C1142 H1133 0.930 . S
C1142 C1140 1.384 . S
C1142 C1143 1.372 . S
C1143 C1142 1.372 . S
C1143 C1144 1.400 . S
C1143 C1148 1.490 . S
C1144 H1134 0.930 . S
C1144 C1143 1.400 . S
C1144 C1147 1.386 . S
H1145 C1161 0.930 . S
H1146 C1162 0.931 . S
C1147 H1135 0.929 . S
C1147 C1141 1.390 . S
C1147 C1144 1.386 . S
C1148 C1143 1.490 . S
C1148 C1150 1.395 . S
C1148 C1151 1.403 . S
H1149 C1155 0.930 . S
C1150 H1136 0.930 . S
C1150 C1148 1.395 . S
C1150 C1153 1.403 . S
C1151 C1148 1.403 . S
C1151 C1152 1.524 . S
C1151 C1155 1.400 . S
C1152 H1137 0.960 . S
C1152 H1138 0.960 . S
C1152 H1139 0.960 . S
C1152 C1151 1.524 . S
C1153 C1150 1.403 . S
C1153 C1154 1.392 . S
C1153 C1157 1.495 . S
C1154 C1153 1.392 . S
C1154 C1155 1.385 . S
C1154 C1156 1.478 . S
C1155 H1149 0.930 . S
C1155 C1151 1.400 . S
C1155 C1154 1.385 . S
C1156 C1154 1.478 . S
C1156 C1158 1.381 . S
C1156 C1162 1.383 . S
C1157 C1153 1.495 . S
C1157 H1163 0.959 . S
C1157 H1164 0.961 . S
C1157 H1165 0.960 . S
C1158 C1156 1.381 . S
C1158 C1159 1.394 . S
C1158 H1166 0.930 . S
C1159 C1158 1.394 . S
C1159 C1160 1.383 . S
C1159 H1167 0.929 . S
C1160 C1159 1.383 . S
C1160 C1161 1.377 . S
C1161 H1145 0.930 . S
C1161 C1160 1.377 . S
C1161 C1162 1.379 . S
C1162 H1146 0.931 . S
C1162 C1156 1.383 . S
C1162 C1161 1.379 . S
H1163 C1157 0.959 . S
H1164 C1157 0.961 . S
H1165 C1157 0.960 . S
H1166 C1158 0.930 . S
H1167 C1159 0.929 . S
H1168 C1176 0.929 . S
H1169 C1178 0.930 . S
H1170 C1180 0.930 . S
H1171 C1183 0.929 . S
H1172 C1186 0.930 . S
H1173 C1188 0.960 . S
H1174 C1188 0.960 . S
H1175 C1188 0.960 . S
C1176 H1168 0.929 . S
C1176 C1177 1.377 . S
C1176 C1178 1.384 . S
C1177 C1176 1.377 . S
C1177 C1183 1.390 . S
C1178 H1169 0.930 . S
C1178 C1176 1.384 . S
C1178 C1179 1.372 . S
C1179 C1178 1.372 . S
C1179 C1180 1.400 . S
C1179 C1184 1.490 . S
C1180 H1170 0.930 . S
C1180 C1179 1.400 . S
C1180 C1183 1.386 . S
H1181 C1197 0.930 . S
H1182 C1198 0.931 . S
C1183 H1171 0.929 . S
C1183 C1177 1.390 . S
C1183 C1180 1.386 . S
C1184 C1179 1.490 . S
C1184 C1186 1.395 . S
C1184 C1187 1.403 . S
H1185 C1191 0.930 . S
C1186 H1172 0.930 . S
C1186 C1184 1.395 . S
C1186 C1189 1.403 . S
C1187 C1184 1.403 . S
C1187 C1188 1.524 . S
C1187 C1191 1.400 . S
C1188 H1173 0.960 . S
C1188 H1174 0.960 . S
C1188 H1175 0.960 . S
C1188 C1187 1.524 . S
C1189 C1186 1.403 . S
C1189 C1190 1.392 . S
C1189 C1193 1.495 . S
C1190 C1189 1.392 . S
C1190 C1191 1.385 . S
C1190 C1192 1.478 . S
C1191 H1185 0.930 . S
C1191 C1187 1.400 . S
C1191 C1190 1.385 . S
C1192 C1190 1.478 . S
C1192 C1194 1.381 . S
C1192 C1198 1.383 . S
C1193 C1189 1.495 . S
C1193 H1199 0.959 . S
C1193 H1200 0.961 . S
C1193 H1201 0.960 . S
C1194 C1192 1.381 . S
C1194 C1195 1.394 . S
C1194 H1202 0.930 . S
C1195 C1194 1.394 . S
C1195 C1196 1.383 . S
C1195 H1203 0.929 . S
C1196 C1195 1.383 . S
C1196 C1197 1.377 . S
C1197 H1181 0.930 . S
C1197 C1196 1.377 . S
C1197 C1198 1.379 . S
C1198 H1182 0.931 . S
C1198 C1192 1.383 . S
C1198 C1197 1.379 . S
H1199 C1193 0.959 . S
H1200 C1193 0.961 . S
H1201 C1193 0.960 . S
H1202 C1194 0.930 . S
H1203 C1195 0.929 . S
C349 C221 1.342 . S
C368 C272 1.338 . S
C404 C280 1.269 . S
C385 C241 1.324 . S
C440 C284 1.321 . S
C421 C157 1.333 . S
C457 C177 1.315 . S
C476 C260 1.251 . S
C512 C301 1.299 . S
C493 C93 1.374 . S
C548 C335 1.218 . S
C529 C113 1.307 . S
C565 C29 1.370 . S
C584 C323 1.271 . S
C601 C49 1.298 . S
C620 C305 1.219 . S
C656 C259 1.224 . S
C637 C61 1.380 . S
C692 C293 1.208 . S
C673 C17 1.405 . S
C728 C297 1.273 . S
C709 C125 1.378 . S
C764 C275 1.262 . S
C745 C81 1.403 . S
C800 C314 1.299 . S
C781 C189 1.392 . S
C817 C145 1.379 . S
C836 C322 1.273 . S
C872 C338 1.309 . S
C853 C253 1.395 . S
C889 C209 1.379 . S
C908 C318 1.223 . S
C944 C263 1.364 . S
C925 C23 1.491 . S
C980 C281 1.268 . S
C961 C55 1.466 . S
C997 C87 1.474 . S
C1016 C296 1.317 . S
C1052 C276 1.314 . S
C1033 C119 1.455 . S
C1088 C302 1.319 . S
C1069 C151 1.463 . S
C1105 C183 1.485 . S
C1124 C326 1.308 . S
C1141 C215 1.450 . S
C1160 C339 1.358 . S
C1177 C247 1.471 . S
C1196 C317 1.310 . S
