# Generated by pormake.
# Topology pyr, (3,6)-cn, num edge types: 1
# Building blocks:
#     Node 0, Type 0, BuildingBlock: MIDCAF_clean_linker_0, # of connection points: 3
#     Node 1, Type 0, BuildingBlock: MIDCAF_clean_linker_0, # of connection points: 3
#     Node 2, Type 0, BuildingBlock: MIDCAF_clean_linker_0, # of connection points: 3
#     Node 3, Type 0, BuildingBlock: MIDCAF_clean_linker_0, # of connection points: 3
#     Node 4, Type 0, BuildingBlock: MIDCAF_clean_linker_0, # of connection points: 3
#     Node 5, Type 0, BuildingBlock: MIDCAF_clean_linker_0, # of connection points: 3
#     Node 6, Type 0, BuildingBlock: MIDCAF_clean_linker_0, # of connection points: 3
#     Node 7, Type 0, BuildingBlock: MIDCAF_clean_linker_0, # of connection points: 3
#     Node 8, Type 1, BuildingBlock: BETDIP_clean_sbu_0, # of connection points: 6
#     Node 9, Type 1, BuildingBlock: BETDIP_clean_sbu_0, # of connection points: 6
#     Node 10, Type 1, BuildingBlock: BETDIP_clean_sbu_0, # of connection points: 6
#     Node 11, Type 1, BuildingBlock: BETDIP_clean_sbu_0, # of connection points: 6
#     Edge 12, Type (0, 1), BuildingBlock: UVAHIK_clean_linker_0, # of connection points: 2
#     Edge 13, Type (0, 1), BuildingBlock: UVAHIK_clean_linker_0, # of connection points: 2
#     Edge 14, Type (0, 1), BuildingBlock: UVAHIK_clean_linker_0, # of connection points: 2
#     Edge 15, Type (0, 1), BuildingBlock: UVAHIK_clean_linker_0, # of connection points: 2
#     Edge 16, Type (0, 1), BuildingBlock: UVAHIK_clean_linker_0, # of connection points: 2
#     Edge 17, Type (0, 1), BuildingBlock: UVAHIK_clean_linker_0, # of connection points: 2
#     Edge 18, Type (0, 1), BuildingBlock: UVAHIK_clean_linker_0, # of connection points: 2
#     Edge 19, Type (0, 1), BuildingBlock: UVAHIK_clean_linker_0, # of connection points: 2
#     Edge 20, Type (0, 1), BuildingBlock: UVAHIK_clean_linker_0, # of connection points: 2
#     Edge 21, Type (0, 1), BuildingBlock: UVAHIK_clean_linker_0, # of connection points: 2
#     Edge 22, Type (0, 1), BuildingBlock: UVAHIK_clean_linker_0, # of connection points: 2
#     Edge 23, Type (0, 1), BuildingBlock: UVAHIK_clean_linker_0, # of connection points: 2
#     Edge 24, Type (0, 1), BuildingBlock: UVAHIK_clean_linker_0, # of connection points: 2
#     Edge 25, Type (0, 1), BuildingBlock: UVAHIK_clean_linker_0, # of connection points: 2
#     Edge 26, Type (0, 1), BuildingBlock: UVAHIK_clean_linker_0, # of connection points: 2
#     Edge 27, Type (0, 1), BuildingBlock: UVAHIK_clean_linker_0, # of connection points: 2
#     Edge 28, Type (0, 1), BuildingBlock: UVAHIK_clean_linker_0, # of connection points: 2
#     Edge 29, Type (0, 1), BuildingBlock: UVAHIK_clean_linker_0, # of connection points: 2
#     Edge 30, Type (0, 1), BuildingBlock: UVAHIK_clean_linker_0, # of connection points: 2
#     Edge 31, Type (0, 1), BuildingBlock: UVAHIK_clean_linker_0, # of connection points: 2
#     Edge 32, Type (0, 1), BuildingBlock: UVAHIK_clean_linker_0, # of connection points: 2
#     Edge 33, Type (0, 1), BuildingBlock: UVAHIK_clean_linker_0, # of connection points: 2
#     Edge 34, Type (0, 1), BuildingBlock: UVAHIK_clean_linker_0, # of connection points: 2
#     Edge 35, Type (0, 1), BuildingBlock: UVAHIK_clean_linker_0, # of connection points: 2
# Relax obj value: 0.099
# Max RMSD: 0.183
# Mean RMSD: 0.083
data_MOF--net-pyr--node1-BETDIP_clean_sbu_0--node2-MIDCAF_clean_linker_0--edge1-UVAHIK_clean_linker_0
_symmetry_space_group_name_H-M    P1
_symmetry_Int_Tables_number       1
_symmetry_cell_setting            triclinic
loop_
_symmetry_equiv_pos_as_xyz
'x, y, z'
_cell_length_a     54.211345
_cell_length_b     58.930575
_cell_length_c     57.844453
_cell_angle_alpha  88.954162
_cell_angle_beta   92.656461
_cell_angle_gamma 102.44954
loop_
_atom_site_label
_atom_site_type_symbol
_atom_site_fract_x
_atom_site_fract_y
_atom_site_fract_z
_atom_type_partial_charge
C0 C 0.25599 0.25538 0.27647 0.0
C1 C 0.26159 0.23783 0.29124 0.0
C2 C 0.28276 0.22854 0.2871 0.0
C3 C 0.29751 0.23609 0.26809 0.0
H4 H 0.34951 0.21678 0.22774 0.0
H5 H 0.37786 0.19319 0.21477 0.0
H6 H 0.39167 0.23607 0.15341 0.0
H7 H 0.36355 0.25993 0.1664 0.0
H8 H 0.31699 0.28635 0.15008 0.0
H9 H 0.29847 0.31128 0.12322 0.0
H10 H 0.26772 0.34018 0.18061 0.0
H11 H 0.28611 0.31546 0.20737 0.0
H12 H 0.26558 0.27631 0.24636 0.0
H13 H 0.24 0.26309 0.27941 0.0
H14 H 0.28744 0.21487 0.29811 0.0
H15 H 0.31332 0.22816 0.26509 0.0
N16 N 0.3236 0.2485 0.22544 0.0
N17 N 0.32894 0.27016 0.19088 0.0
N18 N 0.29966 0.27655 0.21725 0.0
C19 C 0.33542 0.25359 0.20516 0.0
C20 C 0.31117 0.28181 0.19691 0.0
C21 C 0.30571 0.25993 0.23163 0.0
C22 C 0.35403 0.2402 0.19805 0.0
C23 C 0.35871 0.22136 0.21156 0.0
C24 C 0.37488 0.20774 0.2041 0.0
C25 C 0.38686 0.21268 0.18301 0.0
C26 C 0.38287 0.23194 0.16984 0.0
C27 C 0.3666 0.24553 0.17725 0.0
C28 C 0.30283 0.29878 0.18085 0.0
C29 C 0.30665 0.29831 0.15699 0.0
C30 C 0.29596 0.31248 0.1416 0.0
C31 C 0.28163 0.32762 0.14983 0.0
C32 C 0.27889 0.32887 0.17377 0.0
C33 C 0.28927 0.31455 0.18909 0.0
C34 C 0.29148 0.2532 0.25289 0.0
C35 C 0.27079 0.26303 0.25757 0.0
C36 C 0.14799 0.83018 0.69272 0.0
C37 C 0.13786 0.82478 0.67026 0.0
C38 C 0.14059 0.80399 0.66015 0.0
C39 C 0.15399 0.78925 0.67212 0.0
H40 H 0.20579 0.74597 0.66062 0.0
H41 H 0.2287 0.72129 0.64065 0.0
H42 H 0.2502 0.6936 0.70633 0.0
H43 H 0.22737 0.71815 0.72635 0.0
H44 H 0.24261 0.76076 0.76603 0.0
H45 H 0.26318 0.77817 0.80184 0.0
H46 H 0.20734 0.82024 0.80506 0.0
H47 H 0.18696 0.80321 0.76927 0.0
H48 H 0.16882 0.82042 0.72194 0.0
H49 H 0.14587 0.84595 0.70102 0.0
H50 H 0.13293 0.79948 0.64281 0.0
H51 H 0.15625 0.77358 0.66375 0.0
N52 N 0.18841 0.76342 0.69605 0.0
N53 N 0.21149 0.75649 0.72989 0.0
N54 N 0.18757 0.78511 0.72943 0.0
C55 C 0.20404 0.7513 0.70747 0.0
C56 C 0.20323 0.77334 0.74101 0.0
C57 C 0.17998 0.78031 0.70705 0.0
C58 C 0.21496 0.73423 0.69512 0.0
C59 C 0.21503 0.73434 0.67081 0.0
C60 C 0.22825 0.72031 0.65935 0.0
C61 C 0.24135 0.70565 0.67195 0.0
C62 C 0.24014 0.70461 0.69616 0.0
C63 C 0.22719 0.71882 0.70762 0.0
C64 C 0.21336 0.78086 0.76453 0.0
C65 C 0.23445 0.77344 0.77456 0.0
C66 C 0.24622 0.78336 0.79513 0.0
C67 C 0.2371 0.80085 0.80603 0.0
C68 C 0.21512 0.80717 0.79676 0.0
C69 C 0.20339 0.79731 0.77627 0.0
C70 C 0.16454 0.79491 0.6945 0.0
C71 C 0.16104 0.81541 0.70474 0.0
C72 C 0.62603 0.26714 0.88489 0.0
C73 C 0.60025 0.25679 0.8813 0.0
C74 C 0.58538 0.2681 0.86631 0.0
C75 C 0.5959 0.28953 0.85586 0.0
H76 H 0.60102 0.33257 0.78958 0.0
H77 H 0.58643 0.34988 0.75418 0.0
H78 H 0.62862 0.41745 0.77607 0.0
H79 H 0.64381 0.40015 0.81069 0.0
H80 H 0.70309 0.39126 0.83865 0.0
H81 H 0.74089 0.41198 0.8599 0.0
H82 H 0.71249 0.37786 0.92318 0.0
H83 H 0.67576 0.35619 0.90158 0.0
H84 H 0.65624 0.29599 0.87831 0.0
H85 H 0.63836 0.25874 0.89566 0.0
H86 H 0.56543 0.26078 0.86318 0.0
H87 H 0.58385 0.29807 0.84491 0.0
N88 N 0.62297 0.33285 0.83194 0.0
N89 N 0.65461 0.36703 0.83596 0.0
N90 N 0.65313 0.33677 0.86293 0.0
C91 C 0.63394 0.35455 0.82414 0.0
C92 C 0.66422 0.3583 0.8554 0.0
C93 C 0.63265 0.32384 0.85137 0.0
C94 C 0.6238 0.36487 0.80298 0.0
C95 C 0.60714 0.35113 0.78681 0.0
C96 C 0.59867 0.36111 0.76652 0.0
C97 C 0.60649 0.38513 0.76198 0.0
C98 C 0.62266 0.39884 0.7785 0.0
C99 C 0.63128 0.38887 0.79856 0.0
C100 C 0.68656 0.37196 0.8684 0.0
C101 C 0.70501 0.38825 0.85711 0.0
C102 C 0.72665 0.40025 0.8694 0.0
C103 C 0.7301 0.39662 0.89339 0.0
C104 C 0.71111 0.38075 0.90468 0.0
C105 C 0.68983 0.3684 0.89231 0.0
C106 C 0.62144 0.30021 0.86037 0.0
C107 C 0.63638 0.28854 0.87475 0.0
C108 C 0.78274 0.6543 0.39117 0.0
C109 C 0.768 0.63329 0.38258 0.0
C110 C 0.77538 0.62425 0.36224 0.0
C111 C 0.7967 0.63613 0.35067 0.0
H112 H 0.8389 0.63682 0.29147 0.0
H113 H 0.8537 0.61992 0.25827 0.0
H114 H 0.92439 0.67051 0.2639 0.0
H115 H 0.90902 0.68807 0.29673 0.0
H116 H 0.9123 0.73322 0.33489 0.0
H117 H 0.93101 0.77148 0.35149 0.0
H118 H 0.86502 0.76732 0.39166 0.0
H119 H 0.84642 0.72973 0.37522 0.0
H120 H 0.81454 0.68228 0.38698 0.0
H121 H 0.77811 0.66161 0.40703 0.0
H122 H 0.76444 0.60819 0.35499 0.0
H123 H 0.80167 0.62878 0.33496 0.0
N124 N 0.84259 0.66176 0.32834 0.0
N125 N 0.87505 0.69545 0.32582 0.0
N126 N 0.84546 0.69192 0.35473 0.0
C127 C 0.86331 0.674 0.31759 0.0
C128 C 0.86602 0.70458 0.3444 0.0
C129 C 0.83363 0.67057 0.34702 0.0
C130 C 0.87272 0.66387 0.29701 0.0
C131 C 0.85763 0.64443 0.2857 0.0
C132 C 0.86626 0.63456 0.2666 0.0
C133 C 0.89046 0.64356 0.25822 0.0
C134 C 0.90554 0.66313 0.26947 0.0
C135 C 0.89676 0.67319 0.28849 0.0
C136 C 0.87781 0.7282 0.35364 0.0
C137 C 0.90176 0.74055 0.34716 0.0
C138 C 0.91255 0.76244 0.35679 0.0
C139 C 0.89949 0.77262 0.37287 0.0
C140 C 0.87552 0.7603 0.3791 0.0
C141 C 0.86491 0.7385 0.36972 0.0
C142 C 0.81116 0.65735 0.35916 0.0
C143 C 0.80387 0.66614 0.37965 0.0
C144 C 0.62102 0.82319 0.85879 0.0
C145 C 0.618 0.82012 0.8827 0.0
C146 C 0.62905 0.8036 0.89462 0.0
C147 C 0.6437 0.79101 0.88305 0.0
H148 H 0.6881 0.74346 0.89402 0.0
H149 H 0.70909 0.71603 0.9149 0.0
H150 H 0.74189 0.70149 0.85169 0.0
H151 H 0.72098 0.72879 0.83074 0.0
H152 H 0.7297 0.76982 0.79272 0.0
H153 H 0.75243 0.79016 0.7605 0.0
H154 H 0.70692 0.8419 0.76147 0.0
H155 H 0.68433 0.82182 0.7939 0.0
H156 H 0.63855 0.8141 0.82895 0.0
H157 H 0.6128 0.83591 0.84922 0.0
H158 H 0.6268 0.80077 0.91304 0.0
H159 H 0.65252 0.77888 0.89293 0.0
N160 N 0.6746 0.76604 0.85833 0.0
N161 N 0.70163 0.76548 0.82796 0.0
N162 N 0.67537 0.7923 0.8273 0.0
C163 C 0.69233 0.7567 0.84844 0.0
C164 C 0.69327 0.7833 0.81726 0.0
C165 C 0.66584 0.7837 0.84775 0.0
C166 C 0.70299 0.73846 0.86071 0.0
C167 C 0.69951 0.7342 0.88448 0.0
C168 C 0.71161 0.71858 0.89649 0.0
C169 C 0.72715 0.70669 0.88493 0.0
C170 C 0.72983 0.71025 0.86102 0.0
C171 C 0.71798 0.72603 0.84906 0.0
C172 C 0.70527 0.79424 0.7961 0.0
C173 C 0.72432 0.78541 0.78598 0.0
C174 C 0.73731 0.79701 0.76741 0.0
C175 C 0.73161 0.81773 0.75856 0.0
C176 C 0.71202 0.82616 0.76815 0.0
C177 C 0.69896 0.81453 0.78667 0.0
C178 C 0.64785 0.79492 0.85935 0.0
C179 C 0.63591 0.81079 0.84725 0.0
C180 C 0.7893 0.25404 0.25107 0.0
C181 C 0.77179 0.26673 0.24208 0.0
C182 C 0.76831 0.28608 0.25434 0.0
C183 C 0.78097 0.29183 0.27571 0.0
H184 H 0.7853 0.33589 0.33155 0.0
H185 H 0.76335 0.3586 0.35488 0.0
H186 H 0.7819 0.32188 0.41629 0.0
H187 H 0.80394 0.29901 0.39297 0.0
H188 H 0.83735 0.26125 0.38798 0.0
H189 H 0.86065 0.23364 0.40524 0.0
H190 H 0.88199 0.21759 0.33747 0.0
H191 H 0.85861 0.24513 0.32004 0.0
H192 H 0.81453 0.24902 0.27928 0.0
H193 H 0.79228 0.23892 0.24214 0.0
H194 H 0.75528 0.29645 0.24767 0.0
H195 H 0.77716 0.30642 0.28497 0.0
N196 N 0.79976 0.29772 0.32294 0.0
N197 N 0.82198 0.28626 0.35523 0.0
N198 N 0.82308 0.26894 0.31916 0.0
C199 C 0.80683 0.29988 0.34575 0.0
C200 C 0.83042 0.27092 0.34197 0.0
C201 C 0.80772 0.2823 0.30951 0.0
C202 C 0.7962 0.31548 0.36036 0.0
C203 C 0.78499 0.33281 0.35006 0.0
C204 C 0.77256 0.34595 0.36344 0.0
C205 C 0.77083 0.34192 0.38737 0.0
C206 C 0.78279 0.3252 0.39783 0.0
C207 C 0.79551 0.31221 0.38448 0.0
C208 C 0.84599 0.25534 0.35259 0.0
C209 C 0.84717 0.25202 0.37673 0.0
C210 C 0.86039 0.23612 0.38663 0.0
C211 C 0.87302 0.22344 0.37268 0.0
C212 C 0.87254 0.22725 0.34864 0.0
C213 C 0.85902 0.24292 0.33868 0.0
C214 C 0.79738 0.27833 0.28537 0.0
C215 C 0.80198 0.25978 0.27246 0.0
C216 C 0.28578 0.62426 0.18431 0.0
C217 C 0.27579 0.63445 0.16485 0.0
C218 C 0.28757 0.65718 0.15839 0.0
C219 C 0.30874 0.66941 0.17101 0.0
H220 H 0.35342 0.73361 0.17743 0.0
H221 H 0.37307 0.77153 0.16225 0.0
H222 H 0.43947 0.77202 0.20658 0.0
H223 H 0.41978 0.73366 0.22186 0.0
H224 H 0.40373 0.69626 0.27042 0.0
H225 H 0.41765 0.6784 0.3057 0.0
H226 H 0.37545 0.61126 0.28262 0.0
H227 H 0.36085 0.62916 0.24803 0.0
H228 H 0.31417 0.62805 0.21181 0.0
H229 H 0.27736 0.60669 0.18965 0.0
H230 H 0.28019 0.66574 0.14373 0.0
H231 H 0.31715 0.68691 0.16548 0.0
N232 N 0.35253 0.69426 0.19719 0.0
N233 N 0.38239 0.69694 0.22829 0.0
N234 N 0.35079 0.66296 0.22296 0.0
C235 C 0.37306 0.70666 0.20913 0.0
C236 C 0.37128 0.67503 0.23532 0.0
C237 C 0.34126 0.67245 0.20389 0.0
C238 C 0.385 0.73042 0.20089 0.0
C239 C 0.37219 0.74172 0.18409 0.0
C240 C 0.3834 0.76362 0.17545 0.0
C241 C 0.40784 0.77488 0.1832 0.0
C242 C 0.42068 0.76374 0.20012 0.0
C243 C 0.40932 0.74181 0.20898 0.0
C244 C 0.38099 0.66423 0.25638 0.0
C245 C 0.39747 0.67768 0.27287 0.0
C246 C 0.40556 0.66737 0.29311 0.0
C247 C 0.39757 0.64332 0.29727 0.0
C248 C 0.38155 0.62988 0.28045 0.0
C249 C 0.37328 0.64018 0.26042 0.0
C250 C 0.31877 0.65926 0.19049 0.0
C251 C 0.307 0.6365 0.19697 0.0
C252 C 0.12462 0.2642 0.68123 0.0
C253 C 0.09843 0.25514 0.68123 0.0
C254 C 0.08323 0.26794 0.69225 0.0
C255 C 0.09402 0.28935 0.70285 0.0
H256 H 0.09342 0.33481 0.76412 0.0
H257 H 0.07891 0.35214 0.79762 0.0
H258 H 0.13553 0.4149 0.7874 0.0
H259 H 0.15031 0.39755 0.75444 0.0
H260 H 0.18405 0.40327 0.7075 0.0
H261 H 0.22049 0.42401 0.68675 0.0
H262 H 0.23435 0.3584 0.66449 0.0
H263 H 0.19741 0.33796 0.68418 0.0
H264 H 0.1555 0.29216 0.69058 0.0
H265 H 0.13689 0.25496 0.67278 0.0
H266 H 0.06299 0.2614 0.69268 0.0
H267 H 0.08181 0.29892 0.7109 0.0
N268 N 0.12185 0.33214 0.72874 0.0
N269 N 0.15434 0.36573 0.72618 0.0
N270 N 0.15322 0.33439 0.70158 0.0
C271 C 0.13316 0.35389 0.73648 0.0
C272 C 0.1645 0.35609 0.70874 0.0
C273 C 0.1319 0.32229 0.71122 0.0
C274 C 0.12319 0.36462 0.75643 0.0
C275 C 0.10276 0.35233 0.76895 0.0
C276 C 0.09434 0.36235 0.78819 0.0
C277 C 0.1061 0.38496 0.79551 0.0
C278 C 0.12625 0.39731 0.78273 0.0
C279 C 0.13465 0.38733 0.76358 0.0
C280 C 0.1876 0.36893 0.69738 0.0
C281 C 0.19494 0.39331 0.6982 0.0
C282 C 0.21599 0.40521 0.68634 0.0
C283 C 0.23048 0.39303 0.67361 0.0
C284 C 0.22343 0.36858 0.67345 0.0
C285 C 0.20224 0.35676 0.68496 0.0
C286 C 0.12017 0.29865 0.7022 0.0
C287 C 0.13528 0.28566 0.69138 0.0
Tb288 Tb 0.97271 1.00847 0.52609 0.0
Tb289 Tb 0.02818 0.02875 0.51136 0.0
C290 C 0.92983 0.98234 0.52892 0.0
C291 C 0.91454 0.97029 0.54751 0.0
C292 C 0.89279 0.95338 0.54187 0.0
C293 C 0.87833 0.94129 0.55935 0.0
C294 C 0.8854 0.94594 0.58278 0.0
C295 C 0.90722 0.96305 0.58834 0.0
C296 C 0.92173 0.97508 0.57082 0.0
C297 C 0.99587 0.04402 0.55295 0.0
C298 C 0.01918 0.99189 0.5514 0.0
C299 C 0.07112 0.05173 0.50171 0.0
C300 C 0.08381 0.07379 0.49134 0.0
C301 C 0.07024 0.08983 0.4821 0.0
C302 C 0.08264 0.10917 0.46954 0.0
C303 C 0.10876 0.11265 0.46606 0.0
C304 C 0.12228 0.09688 0.47622 0.0
C305 C 0.10991 0.07768 0.48873 0.0
C306 C 0.00499 0.98816 0.49366 0.0
C307 C 0.98241 0.04872 0.48889 0.0
O308 O 0.95031 0.97478 0.52505 0.0
O309 O 0.93372 1.00511 0.52882 0.0
O310 O 0.00361 0.03507 0.53601 0.0
O311 O 0.9733 0.03181 0.55611 0.0
O312 O 0.99468 0.98697 0.54553 0.0
O313 O 0.03525 1.00982 0.54265 0.0
O314 O 0.06134 0.05252 0.52193 0.0
O315 O 0.05651 0.0371 0.4875 0.0
O316 O 0.99507 1.00521 0.49728 0.0
O317 O 0.02898 0.99409 0.4989 0.0
O318 O 0.00713 0.05215 0.49351 0.0
O319 O 0.96599 0.03092 0.49741 0.0
H320 H 0.88703 0.94948 0.52394 0.0
H321 H 0.86147 0.92842 0.55452 0.0
H322 H 0.91329 0.96684 0.60622 0.0
H323 H 0.93864 0.98799 0.57543 0.0
H324 H 0.05004 0.08705 0.48404 0.0
H325 H 0.07172 0.12111 0.46217 0.0
H326 H 0.14227 0.09871 0.4736 0.0
H327 H 0.1206 0.06532 0.49562 0.0
Tb328 Tb 0.54042 0.02824 0.04536 0.0
Tb329 Tb 0.48252 1.00795 0.03337 0.0
C330 C 0.58423 0.05201 0.05283 0.0
C331 C 0.59698 0.07562 0.05957 0.0
C332 C 0.58382 0.09361 0.06055 0.0
C333 C 0.59616 0.11543 0.069 0.0
C334 C 0.62177 0.11948 0.07667 0.0
C335 C 0.63488 0.10143 0.07503 0.0
C336 C 0.62258 0.07976 0.06653 0.0
C337 C 0.51915 0.98906 0.06611 0.0
C338 C 0.4981 0.04972 0.0677 0.0
C339 C 0.43975 0.98131 0.03331 0.0
C340 C 0.42244 0.96768 1.016 0.0
C341 C 0.40352 0.94916 1.02327 0.0
C342 C 0.38773 0.93514 1.007 0.0
C343 C 0.39063 0.93947 0.98319 0.0
C344 C 0.40953 0.95822 0.97598 0.0
C345 C 0.42542 0.97216 0.99228 0.0
C346 C 0.50215 0.04269 1.00492 0.0
C347 C 0.52521 0.99015 1.00711 0.0
O348 O 0.57291 0.0495 0.03218 0.0
O349 O 0.57087 0.03963 0.06881 0.0
O350 O 0.5091 1.00603 0.06138 0.0
O351 O 0.54256 0.9943 0.06047 0.0
O352 O 0.52172 0.05323 0.06101 0.0
O353 O 0.48056 0.0312 0.06158 0.0
O354 O 0.46092 0.97432 0.03755 0.0
O355 O 0.44317 1.00402 0.03142 0.0
O356 O 0.51223 0.03356 1.02144 0.0
O357 O 0.47883 0.03121 1.00314 0.0
O358 O 0.50132 0.98622 1.01316 0.0
O359 O 0.54305 1.00746 1.01543 0.0
H360 H 0.56399 0.09066 0.05525 0.0
H361 H 0.58556 0.12899 0.06983 0.0
H362 H 0.65442 0.10369 0.08119 0.0
H363 H 0.63294 0.06597 0.06603 0.0
H364 H 0.40113 0.94542 0.04154 0.0
H365 H 0.37318 0.92096 1.01305 0.0
H366 H 0.41238 0.9618 0.95775 0.0
H367 H 0.44021 0.98623 0.9864 0.0
Tb368 Tb 0.50196 0.53799 0.5398 0.0
Tb369 Tb 0.499 0.49057 0.52088 0.0
C370 C 0.49202 0.57658 0.54848 0.0
C371 C 0.47126 0.58495 0.55866 0.0
C372 C 0.46156 0.6024 0.54704 0.0
C373 C 0.44182 0.61073 0.55609 0.0
C374 C 0.43149 0.60193 0.57715 0.0
C375 C 0.44112 0.58421 0.58867 0.0
C376 C 0.46075 0.57572 0.57946 0.0
C377 C 0.52419 0.51073 0.5662 0.0
C378 C 0.45334 0.49687 0.54895 0.0
C379 C 0.50965 0.45238 0.51187 0.0
C380 C 0.53151 0.44557 0.50201 0.0
C381 C 0.54136 0.42768 0.51265 0.0
C382 C 0.56289 0.42169 0.50437 0.0
C383 C 0.57483 0.43342 0.48518 0.0
C384 C 0.56484 0.45126 0.47442 0.0
C385 C 0.54344 0.45739 0.48286 0.0
C386 C 0.47682 0.51789 0.4945 0.0
C387 C 0.54742 0.53179 0.5114 0.0
O388 O 0.48645 0.56613 0.52856 0.0
O389 O 0.50593 0.56613 0.56234 0.0
O390 O 0.50361 0.50492 0.5546 0.0
O391 O 0.53245 0.53305 0.56432 0.0
O392 O 0.46363 0.51948 0.54894 0.0
O393 O 0.46502 0.48155 0.54047 0.0
O394 O 0.51405 0.46217 0.53221 0.0
O395 O 0.49584 0.46286 0.49794 0.0
O396 O 0.49739 0.52359 0.50611 0.0
O397 O 0.46858 0.49557 0.49627 0.0
O398 O 0.53754 0.50912 0.5121 0.0
O399 O 0.53535 0.54701 0.51946 0.0
H400 H 0.46922 0.60957 0.53084 0.0
H401 H 0.43455 0.62398 0.54645 0.0
H402 H 0.4338 0.57715 0.605 0.0
H403 H 0.46776 0.56206 0.58866 0.0
H404 H 0.53252 0.41847 0.52753 0.0
H405 H 0.57007 0.40775 0.51285 0.0
H406 H 0.57385 0.46074 0.45976 0.0
H407 H 0.53644 0.47153 0.47455 0.0
Tb408 Tb 0.00112 0.53652 1.01295 0.0
Tb409 Tb 0.00584 0.49609 0.0433 0.0
C410 C 0.9868 0.56823 0.98982 0.0
C411 C 0.96479 0.57908 0.98812 0.0
C412 C 0.9403 0.56618 0.99186 0.0
C413 C 0.91936 0.57617 0.98742 0.0
C414 C 0.92261 0.59925 0.97931 0.0
C415 C 0.94731 0.61241 0.97685 0.0
C416 C 0.96818 0.60236 0.98111 0.0
C417 C 0.04667 0.53877 0.03257 0.0
C418 C 0.98171 0.5338 0.06451 0.0
C419 C 0.02226 0.46531 0.06599 0.0
C420 C 0.04469 0.4552 0.06479 0.0
C421 C 0.06789 0.46876 0.058 0.0
C422 C 0.08936 0.45922 0.0581 0.0
C423 C 0.0879 0.4359 0.06466 0.0
C424 C 0.06446 0.42221 0.07072 0.0
C425 C 0.04305 0.43183 0.07086 0.0
C426 C 0.96013 0.49353 1.02412 0.0
C427 C 0.02421 0.49832 0.99132 0.0
O428 O 0.98284 0.54661 0.98318 0.0
O429 O 0.00117 0.57207 1.00874 0.0
O430 O 0.02578 0.53119 0.04147 0.0
O431 O 0.04251 0.54717 1.01229 0.0
O432 O 0.97863 0.54097 0.04287 0.0
O433 O 0.99452 0.51746 0.06935 0.0
O434 O 0.02659 0.48713 0.07209 0.0
O435 O 0.00559 0.46067 0.04871 0.0
O436 O 0.98087 0.50138 1.0149 0.0
O437 O 0.96468 0.48494 0.04426 0.0
O438 O 0.02723 0.49099 1.01289 0.0
O439 O 0.01185 0.51501 0.98669 0.0
H440 H 0.9373 0.5482 0.99748 0.0
H441 H 0.90063 0.56549 0.98939 0.0
H442 H 0.95052 0.63037 0.97115 0.0
H443 H 0.98696 0.61262 0.97832 0.0
H444 H 0.0695 0.4868 0.05295 0.0
H445 H 0.10713 0.47009 0.05313 0.0
H446 H 0.06285 0.40425 0.07606 0.0
H447 H 0.02529 0.4211 0.07606 0.0
C448 C 0.25472 0.2241 0.33231 0.0
C449 C 0.2447 0.22854 0.31026 0.0
C450 C 0.23868 0.21462 0.3499 0.0
C451 C 0.1757 0.17867 0.35848 0.0
H452 H 0.18667 0.20085 0.42161 0.0
C453 C 0.10978 0.13613 0.42929 0.0
C454 C 0.12168 0.13131 0.45038 0.0
C455 C 0.1232 0.15108 0.41297 0.0
C456 C 0.18345 0.19434 0.4041 0.0
H457 H 0.21005 0.22649 0.28935 0.0
H458 H 0.18208 0.20998 0.32006 0.0
H459 H 0.21376 0.22059 0.39151 0.0
H460 H 0.1565 0.13982 0.47148 0.0
H461 H 0.1801 0.16521 0.44279 0.0
H462 H 0.14604 0.15199 0.37099 0.0
C463 C 0.20232 0.21384 0.32374 0.0
C464 C 0.19896 0.20567 0.38688 0.0
C465 C 0.21832 0.22348 0.30623 0.0
C466 C 0.14688 0.14282 0.45525 0.0
C467 C 0.16035 0.15763 0.43887 0.0
C468 C 0.16034 0.16724 0.37569 0.0
C469 C 0.21232 0.20918 0.34572 0.0
C470 C 0.19533 0.19785 0.36392 0.0
C471 C 0.14887 0.16147 0.41727 0.0
C472 C 0.16411 0.17481 0.39877 0.0
H473 H 0.27497 0.22796 0.33594 0.0
H474 H 0.24693 0.21102 0.36662 0.0
H475 H 0.17268 0.17204 0.341 0.0
H476 H 0.09045 0.12749 0.42487 0.0
H477 H 0.1136 0.154 0.39671 0.0
C478 C 0.25531 0.83811 0.82643 0.0
C479 C 0.25144 0.81377 0.82591 0.0
C480 C 0.2694 0.85064 0.84459 0.0
C481 C 0.31772 0.84683 0.89064 0.0
H482 H 0.29745 0.90112 0.91382 0.0
C483 C 0.36892 0.90004 0.96871 0.0
C484 C 0.37412 0.92433 0.96594 0.0
C485 C 0.35339 0.88576 0.95245 0.0
C486 C 0.30343 0.8861 0.90741 0.0
H487 H 0.25919 0.78343 0.84412 0.0
H488 H 0.28371 0.80537 0.87614 0.0
H489 H 0.27084 0.8772 0.88446 0.0
H490 H 0.367 0.95272 0.94412 0.0
H491 H 0.33993 0.92777 0.91564 0.0
H492 H 0.35033 0.85581 0.91371 0.0
C493 C 0.27605 0.81477 0.86229 0.0
C494 C 0.28822 0.87239 0.89058 0.0
C495 C 0.26199 0.8022 0.84401 0.0
C496 C 0.36345 0.93406 0.94661 0.0
C497 C 0.34778 0.91979 0.93044 0.0
C498 C 0.33288 0.86049 0.9076 0.0
C499 C 0.27995 0.83915 0.86275 0.0
C500 C 0.29534 0.85277 0.88176 0.0
C501 C 0.3426 0.8955 0.93319 0.0
C502 C 0.32603 0.88041 0.91594 0.0
H503 H 0.24792 0.84759 0.81248 0.0
H504 H 0.27249 0.86942 0.8441 0.0
H505 H 0.32393 0.83202 0.88402 0.0
H506 H 0.37708 0.89206 0.98333 0.0
H507 H 0.3496 0.86711 0.95507 0.0
C508 C 0.6145 0.41457 0.7294 0.0
C509 C 0.59809 0.396 0.74018 0.0
C510 C 0.60653 0.42547 0.70959 0.0
C511 C 0.54825 0.43308 0.67611 0.0
H512 H 0.59623 0.45899 0.62985 0.0
C513 C 0.51845 0.47418 0.59013 0.0
C514 C 0.5334 0.49589 0.58414 0.0
C515 C 0.52638 0.46083 0.60816 0.0
C516 C 0.58263 0.45195 0.64268 0.0
H517 H 0.56031 0.37423 0.73795 0.0
H518 H 0.54677 0.39257 0.70294 0.0
H519 H 0.60967 0.43738 0.66268 0.0
H520 H 0.56863 0.52037 0.59191 0.0
H521 H 0.58269 0.49692 0.62317 0.0
H522 H 0.52115 0.44746 0.65578 0.0
C523 C 0.56569 0.39912 0.71017 0.0
C524 C 0.59035 0.43961 0.66162 0.0
C525 C 0.57361 0.38833 0.73015 0.0
C526 C 0.55673 0.50371 0.59615 0.0
C527 C 0.56481 0.49023 0.61399 0.0
C528 C 0.54048 0.4452 0.65702 0.0
C529 C 0.58197 0.41801 0.69967 0.0
C530 C 0.57336 0.43019 0.6788 0.0
C531 C 0.54959 0.46876 0.62041 0.0
C532 C 0.55763 0.45499 0.64019 0.0
H533 H 0.63366 0.42077 0.73623 0.0
H534 H 0.61961 0.44009 0.70234 0.0
H535 H 0.53466 0.4265 0.68907 0.0
H536 H 0.50036 0.46769 0.5812 0.0
H537 H 0.51433 0.44428 0.61251 0.0
C538 C 0.91587 0.64574 0.222 0.0
C539 C 0.89981 0.63243 0.23804 0.0
C540 C 0.92439 0.63525 0.20315 0.0
C541 C 0.93068 0.57705 0.18148 0.0
H542 H 0.94219 0.61022 0.12318 0.0
C543 C 0.9783 0.54041 0.10706 0.0
C544 C 0.97124 0.5447 0.08394 0.0
C545 C 0.96938 0.55114 0.12543 0.0
C546 C 0.93883 0.6005 0.13921 0.0
H547 H 0.88066 0.59718 0.24653 0.0
H548 H 0.89442 0.57923 0.21349 0.0
H549 H 0.92678 0.62847 0.15535 0.0
H550 H 0.94886 0.5637 0.06222 0.0
H551 H 0.93266 0.58186 0.0942 0.0
H552 H 0.94175 0.54875 0.16515 0.0
C553 C 0.90093 0.5978 0.21561 0.0
C554 C 0.93031 0.61119 0.15792 0.0
C555 C 0.89262 0.60825 0.23452 0.0
C556 C 0.95478 0.55997 0.07976 0.0
C557 C 0.94563 0.57057 0.0982 0.0
C558 C 0.93897 0.5663 0.16274 0.0
C559 C 0.91704 0.61107 0.19958 0.0
C560 C 0.92614 0.59968 0.17943 0.0
C561 C 0.95283 0.5664 0.12139 0.0
C562 C 0.94334 0.57784 0.14128 0.0
H563 H 0.92171 0.66441 0.22377 0.0
H564 H 0.937 0.64616 0.19152 0.0
H565 H 0.92814 0.56757 0.1977 0.0
H566 H 0.99115 0.52899 0.11105 0.0
H567 H 0.97593 0.54773 0.14285 0.0
C568 C 0.42541 0.20617 0.16378 0.0
C569 C 0.40241 0.19709 0.17421 0.0
C570 C 0.43936 0.1913 0.15464 0.0
C571 C 0.44543 0.12954 0.15519 0.0
H572 H 0.47411 0.14521 0.09528 0.0
C573 C 0.46815 0.06166 0.09422 0.0
C574 C 0.49084 0.0672 0.0825 0.0
C575 C 0.46064 0.07832 0.10748 0.0
C576 C 0.46654 0.14076 0.11218 0.0
H577 H 0.37591 0.16535 0.18307 0.0
H578 H 0.39992 0.13951 0.16692 0.0
H579 H 0.45487 0.17303 0.11471 0.0
H580 H 0.52358 0.09456 0.07571 0.0
H581 H 0.51019 0.1238 0.09875 0.0
H582 H 0.45628 0.0969 0.15217 0.0
C583 C 0.40761 0.15805 0.16628 0.0
C584 C 0.45555 0.15671 0.12335 0.0
C585 C 0.39378 0.17287 0.17551 0.0
C586 C 0.50602 0.08972 0.08457 0.0
C587 C 0.49832 0.1065 0.09765 0.0
C588 C 0.45623 0.11355 0.14393 0.0
C589 C 0.43051 0.16705 0.15562 0.0
C590 C 0.44442 0.1511 0.14479 0.0
C591 C 0.4755 0.10096 0.10916 0.0
C592 C 0.46648 0.11883 0.12214 0.0
H593 H 0.43266 0.22476 0.16275 0.0
H594 H 0.45708 0.19882 0.14682 0.0
H595 H 0.43756 0.12485 0.17192 0.0
H596 H 0.45606 0.04447 0.09306 0.0
H597 H 0.44282 0.07362 0.11595 0.0
C598 C 0.13652 0.86499 0.65682 0.0
C599 C 0.12503 0.84125 0.65747 0.0
C600 C 0.12407 0.88094 0.64598 0.0
C601 C 0.07106 0.88565 0.60453 0.0
H602 H 0.07913 0.94635 0.6324 0.0
C603 C 0.01468 0.95316 0.57116 0.0
C604 C 0.02934 0.97548 0.56684 0.0
C605 C 0.02513 0.93669 0.58354 0.0
C606 C 0.07679 0.9295 0.6244 0.0
H607 H 0.09169 0.81546 0.64709 0.0
H608 H 0.06952 0.84341 0.6285 0.0
H609 H 0.09961 0.91736 0.65094 0.0
H610 H 0.06614 0.99827 0.57301 0.0
H611 H 0.08424 0.96955 0.59492 0.0
H612 H 0.04795 0.89786 0.57814 0.0
C613 C 0.08837 0.84969 0.63601 0.0
C614 C 0.08861 0.9129 0.63492 0.0
C615 C 0.10101 0.83367 0.64667 0.0
C616 C 0.05436 0.98124 0.57598 0.0
C617 C 0.06471 0.96483 0.5886 0.0
C618 C 0.05902 0.90219 0.59414 0.0
C619 C 0.09968 0.87358 0.63573 0.0
C620 C 0.08617 0.89085 0.62497 0.0
C621 C 0.05034 0.94226 0.59212 0.0
C622 C 0.06199 0.92435 0.60386 0.0
H623 H 0.15522 0.87123 0.66471 0.0
H624 H 0.13366 0.89906 0.64558 0.0
H625 H 0.06901 0.869 0.5962 0.0
H626 H 0.99536 0.94811 0.56434 0.0
H627 H 0.01357 0.91949 0.58623 0.0
C628 C 0.76612 0.43155 0.90022 0.0
C629 C 0.75343 0.40897 0.90659 0.0
C630 C 0.78801 0.44288 0.91259 0.0
C631 C 0.81991 0.4467 0.96924 0.0
H632 H 0.88291 0.46631 0.93818 0.0
C633 C 0.91524 0.47162 1.02078 0.0
C634 C 0.93543 0.48741 1.01122 0.0
C635 C 0.89249 0.46422 1.00798 0.0
C636 C 0.86545 0.46148 0.94717 0.0
H637 H 0.75472 0.38064 0.93096 0.0
H638 H 0.79195 0.40095 0.95305 0.0
H639 H 0.84419 0.4498 0.91575 0.0
H640 H 0.94739 0.50844 0.98105 0.0
H641 H 0.90728 0.49671 0.95915 0.0
H642 H 0.8406 0.45883 1.00053 0.0
C643 C 0.78484 0.40973 0.9384 0.0
C644 C 0.84329 0.45186 0.93425 0.0
C645 C 0.76333 0.39819 0.92577 0.0
C646 C 0.93214 0.49627 0.98887 0.0
C647 C 0.90917 0.48926 0.97621 0.0
C648 C 0.84191 0.45677 0.98211 0.0
C649 C 0.79742 0.43213 0.9319 0.0
C650 C 0.82044 0.44401 0.94524 0.0
C651 C 0.8891 0.4728 0.98542 0.0
C652 C 0.86517 0.46389 0.97136 0.0
H653 H 0.75901 0.44069 0.88588 0.0
H654 H 0.79736 0.46022 0.90733 0.0
H655 H 0.80242 0.44099 0.97807 0.0
H656 H 0.91726 0.46437 0.03793 0.0
H657 H 0.87787 0.45121 1.01565 0.0
C658 C 0.72955 0.63413 0.40519 0.0
C659 C 0.74507 0.62117 0.39493 0.0
C660 C 0.7089 0.62317 0.41789 0.0
C661 C 0.66458 0.56692 0.42785 0.0
H662 H 0.65396 0.59597 0.48508 0.0
C663 C 0.58456 0.5253 0.48946 0.0
C664 C 0.57151 0.54058 0.49953 0.0
C665 C 0.60652 0.53391 0.47728 0.0
C666 C 0.65641 0.5877 0.46903 0.0
H667 H 0.75038 0.58621 0.38973 0.0
H668 H 0.71407 0.56703 0.41173 0.0
H669 H 0.69002 0.61311 0.4623 0.0
H670 H 0.57163 0.57699 0.50467 0.0
H671 H 0.60937 0.59184 0.48342 0.0
H672 H 0.63069 0.54166 0.43447 0.0
C673 C 0.71799 0.58577 0.40987 0.0
C674 C 0.67718 0.59756 0.45595 0.0
C675 C 0.7388 0.59679 0.3972 0.0
C676 C 0.58116 0.56463 0.49731 0.0
C677 C 0.60301 0.5732 0.48517 0.0
C678 C 0.64368 0.55707 0.44093 0.0
C679 C 0.70297 0.59887 0.42066 0.0
C680 C 0.6814 0.5875 0.43502 0.0
C681 C 0.61601 0.55801 0.4749 0.0
C682 C 0.63911 0.56751 0.46158 0.0
H683 H 0.73329 0.65287 0.40338 0.0
H684 H 0.69745 0.6338 0.42546 0.0
H685 H 0.66714 0.55877 0.41176 0.0
H686 H 0.57774 0.50667 0.4908 0.0
H687 H 0.61612 0.52164 0.46985 0.0
C688 C 0.26685 0.36381 0.13809 0.0
C689 C 0.26765 0.34063 0.13364 0.0
C690 C 0.2506 0.37492 0.12494 0.0
C691 C 0.18966 0.3604 0.09386 0.0
H692 H 0.20451 0.42538 0.07559 0.0
C693 C 0.11063 0.40398 0.05777 0.0
C694 C 0.11094 0.42616 0.0664 0.0
C695 C 0.13174 0.39406 0.06118 0.0
C696 C 0.20001 0.40724 0.0807 0.0
H697 H 0.25296 0.31124 0.11126 0.0
H698 H 0.22455 0.33068 0.08824 0.0
H699 H 0.23876 0.40725 0.09007 0.0
H700 H 0.13367 0.45556 0.08494 0.0
H701 H 0.17024 0.43812 0.09142 0.0
H702 H 0.15089 0.36048 0.08569 0.0
C703 C 0.23645 0.34021 0.10196 0.0
C704 C 0.21966 0.39686 0.08889 0.0
C705 C 0.25286 0.32917 0.11499 0.0
C706 C 0.13301 0.43852 0.07788 0.0
C707 C 0.15402 0.42853 0.0815 0.0
C708 C 0.17002 0.3708 0.08589 0.0
C709 C 0.23468 0.36298 0.1072 0.0
C710 C 0.2146 0.37343 0.0959 0.0
C711 C 0.15351 0.406 0.07353 0.0
C712 C 0.17486 0.39446 0.07959 0.0
H713 H 0.27819 0.3731 0.15225 0.0
H714 H 0.24953 0.39242 0.12948 0.0
H715 H 0.18511 0.3424 0.09948 0.0
H716 H 0.09396 0.39421 0.04858 0.0
H717 H 0.13085 0.37689 0.05439 0.0
C718 C 0.59777 0.23051 0.91641 0.0
C719 C 0.58914 0.23464 0.8937 0.0
C720 C 0.58822 0.20963 0.92795 0.0
C721 C 0.55294 0.14863 0.91786 0.0
H722 H 0.54652 0.14885 0.98434 0.0
C723 C 0.50169 0.06847 0.9702 0.0
C724 C 0.51337 0.0636 0.99134 0.0
C725 C 0.51127 0.08887 0.95782 0.0
C726 C 0.54843 0.14845 0.96581 0.0
H727 H 0.56317 0.21976 0.86558 0.0
H728 H 0.54579 0.1837 0.88604 0.0
H729 H 0.56123 0.18534 0.96381 0.0
H730 H 0.54385 0.07641 1.01634 0.0
H731 H 0.56071 0.11211 0.99478 0.0
H732 H 0.53951 0.11167 0.91997 0.0
C733 C 0.56048 0.19647 0.89474 0.0
C734 C 0.55694 0.16941 0.95397 0.0
C735 C 0.57022 0.21735 0.88307 0.0
C736 C 0.53482 0.07951 0.99988 0.0
C737 C 0.54425 0.10008 0.98765 0.0
C738 C 0.54416 0.12768 0.92969 0.0
C739 C 0.56944 0.19224 0.91733 0.0
C740 C 0.55951 0.16985 0.92982 0.0
C741 C 0.53251 0.10506 0.9665 0.0
C742 C 0.54194 0.12731 0.95384 0.0
H743 H 0.61193 0.24349 0.92544 0.0
H744 H 0.59594 0.20706 0.94516 0.0
H745 H 0.55501 0.14809 0.89936 0.0
H746 H 0.485 0.05656 0.9633 0.0
H747 H 0.50162 0.09227 0.94172 0.0
C748 C 0.89545 0.81187 0.38714 0.0
C749 C 0.91066 0.79575 0.3836 0.0
C750 C 0.90527 0.83284 0.39864 0.0
C751 C 0.95704 0.86029 0.43997 0.0
H752 H 0.93816 0.91768 0.42021 0.0
C753 C 0.00668 0.94886 0.47921 0.0
C754 C 0.99261 0.96593 0.48226 0.0
C755 C 0.99601 0.9282 0.4676 0.0
C756 C 0.94337 0.90177 0.42622 0.0
H757 H 0.94844 0.78948 0.38918 0.0
H758 H 0.96567 0.82615 0.40904 0.0
H759 H 0.92162 0.88207 0.39855 0.0
H760 H 0.95607 0.97455 0.47565 0.0
H761 H 0.93711 0.93817 0.45564 0.0
H762 H 0.97861 0.87983 0.46771 0.0
C763 C 0.94598 0.82243 0.4031 0.0
C764 C 0.93392 0.8813 0.41371 0.0
C765 C 0.93618 0.80148 0.39145 0.0
C766 C 0.96739 0.96171 0.47362 0.0
C767 C 0.95662 0.94091 0.46197 0.0
C768 C 0.9664 0.88071 0.45252 0.0
C769 C 0.9306 0.83833 0.40706 0.0
C770 C 0.94073 0.86026 0.42032 0.0
C771 C 0.97084 0.92387 0.45869 0.0
C772 C 0.95987 0.90184 0.44578 0.0
H773 H 0.87579 0.80822 0.38112 0.0
H774 H 0.89277 0.84449 0.40145 0.0
H775 H 0.96232 0.8444 0.44592 0.0
H776 H 0.0262 0.95158 0.48558 0.0
H777 H 0.00779 0.91582 0.46516 0.0
C778 C 0.27515 0.70478 0.64423 0.0
C779 C 0.25803 0.69303 0.6602 0.0
C780 C 0.29281 0.69385 0.63491 0.0
C781 C 0.30765 0.63756 0.6232 0.0
H782 H 0.37719 0.67215 0.62681 0.0
C783 C 0.3912 0.59704 0.5986 0.0
C784 C 0.41107 0.61152 0.5871 0.0
C785 C 0.37206 0.60623 0.60784 0.0
C786 C 0.35785 0.66234 0.62532 0.0
H787 H 0.24527 0.66033 0.67824 0.0
H788 H 0.27607 0.64105 0.66162 0.0
H789 H 0.34399 0.68939 0.64115 0.0
H790 H 0.42646 0.64715 0.57668 0.0
H791 H 0.39273 0.66288 0.59176 0.0
H792 H 0.32139 0.61069 0.60687 0.0
C793 C 0.27583 0.65877 0.65646 0.0
C794 C 0.33885 0.67222 0.63363 0.0
C795 C 0.25833 0.66982 0.66603 0.0
C796 C 0.4113 0.63537 0.58509 0.0
C797 C 0.3921 0.6445 0.5941 0.0
C798 C 0.32666 0.62774 0.61461 0.0
C799 C 0.29356 0.67086 0.64118 0.0
C800 C 0.31356 0.66001 0.63254 0.0
C801 C 0.37227 0.6301 0.60569 0.0
C802 C 0.352 0.64008 0.61544 0.0
H803 H 0.27554 0.72274 0.63959 0.0
H804 H 0.30612 0.70348 0.62299 0.0
H805 H 0.28826 0.62782 0.62208 0.0
H806 H 0.39024 0.57855 0.60027 0.0
H807 H 0.35726 0.59465 0.61686 0.0
C808 C 0.75481 0.85528 0.74151 0.0
C809 C 0.74672 0.83101 0.74005 0.0
C810 C 0.76979 0.86778 0.72458 0.0
C811 C 0.8127 0.86062 0.6787 0.0
H812 H 0.80137 0.92049 0.65743 0.0
C813 C 0.8609 0.90874 0.59947 0.0
C814 C 0.87011 0.93286 0.60128 0.0
C815 C 0.8462 0.89642 0.61668 0.0
C816 C 0.80494 0.90391 0.66338 0.0
H817 H 0.74759 0.80088 0.71942 0.0
H818 H 0.77355 0.82271 0.6897 0.0
H819 H 0.77455 0.89867 0.68656 0.0
H820 H 0.8711 0.96298 0.62256 0.0
H821 H 0.84556 0.9414 0.65276 0.0
H822 H 0.84298 0.86582 0.65537 0.0
C823 C 0.7687 0.83204 0.70418 0.0
C824 C 0.78958 0.8914 0.68007 0.0
C825 C 0.75378 0.81953 0.72117 0.0
C826 C 0.86442 0.94438 0.62076 0.0
C827 C 0.8496 0.93207 0.63793 0.0
C828 C 0.828 0.8731 0.66195 0.0
C829 C 0.77699 0.85631 0.70574 0.0
C830 C 0.79326 0.86959 0.68792 0.0
C831 C 0.84029 0.90796 0.63605 0.0
C832 C 0.82427 0.89487 0.65409 0.0
H833 H 0.75006 0.86459 0.75606 0.0
H834 H 0.77617 0.88639 0.72652 0.0
H835 H 0.81636 0.84408 0.68465 0.0
H836 H 0.86519 0.89934 0.58479 0.0
H837 H 0.83913 0.87789 0.61463 0.0
C838 C 0.76563 0.24982 0.20206 0.0
C839 C 0.75561 0.25855 0.22116 0.0
C840 C 0.74973 0.2398 0.18355 0.0
C841 C 0.68459 0.20869 0.17227 0.0
H842 H 0.70164 0.21504 0.10777 0.0
C843 C 0.6216 0.15229 0.10374 0.0
C844 C 0.63448 0.14164 0.08802 0.0
C845 C 0.63459 0.17093 0.11718 0.0
C846 C 0.69665 0.21301 0.12572 0.0
H847 H 0.72113 0.26419 0.23545 0.0
H848 H 0.69352 0.24696 0.20309 0.0
H849 H 0.72841 0.2396 0.13681 0.0
H850 H 0.67067 0.14358 0.07271 0.0
H851 H 0.69347 0.17535 0.09672 0.0
H852 H 0.6536 0.1815 0.16162 0.0
C853 C 0.71363 0.24776 0.20249 0.0
C854 C 0.71197 0.2271 0.14231 0.0
C855 C 0.72951 0.25784 0.22092 0.0
C856 C 0.66028 0.15105 0.08501 0.0
C857 C 0.6733 0.16953 0.09859 0.0
C858 C 0.66942 0.19452 0.15576 0.0
C859 C 0.72349 0.23819 0.18384 0.0
C860 C 0.70626 0.22486 0.1658 0.0
C861 C 0.66079 0.17923 0.11536 0.0
C862 C 0.67544 0.19623 0.13231 0.0
H863 H 0.78569 0.2503 0.20165 0.0
H864 H 0.75785 0.23243 0.16949 0.0
H865 H 0.67991 0.20627 0.19028 0.0
H866 H 0.60176 0.1455 0.10659 0.0
H867 H 0.62423 0.17831 0.12958 0.0
C868 C 0.38904 0.61356 0.32953 0.0
C869 C 0.40563 0.63218 0.31902 0.0
C870 C 0.39666 0.6026 0.34944 0.0
C871 C 0.45435 0.59498 0.38383 0.0
H872 H 0.40563 0.56947 0.42961 0.0
C873 C 0.48287 0.5544 0.47049 0.0
C874 C 0.46782 0.53273 0.47644 0.0
C875 C 0.47519 0.56767 0.45229 0.0
C876 C 0.41943 0.57639 0.41692 0.0
H877 H 0.44344 0.65389 0.32177 0.0
H878 H 0.45636 0.63545 0.35695 0.0
H879 H 0.3927 0.59087 0.39638 0.0
H880 H 0.43264 0.50825 0.46844 0.0
H881 H 0.41901 0.53157 0.43686 0.0
H882 H 0.48113 0.58069 0.40469 0.0
C883 C 0.43755 0.62892 0.34945 0.0
C884 C 0.41201 0.58862 0.39776 0.0
C885 C 0.42998 0.63977 0.32937 0.0
C886 C 0.44462 0.52489 0.46424 0.0
C887 C 0.43679 0.53829 0.44622 0.0
C888 C 0.46182 0.58298 0.40314 0.0
C889 C 0.42106 0.61004 0.35972 0.0
C890 C 0.42929 0.5979 0.38076 0.0
C891 C 0.45213 0.55971 0.43982 0.0
C892 C 0.4444 0.57335 0.41981 0.0
H893 H 0.36998 0.6074 0.32243 0.0
H894 H 0.38345 0.58797 0.35653 0.0
H895 H 0.46815 0.60145 0.37103 0.0
H896 H 0.50087 0.5609 0.47958 0.0
H897 H 0.48732 0.58419 0.44796 0.0
C898 C 0.11536 0.40998 0.8314 0.0
C899 C 0.09765 0.39569 0.81637 0.0
C900 C 0.10758 0.42047 0.85058 0.0
C901 C 0.05117 0.43729 0.87428 0.0
H902 H 0.09243 0.44513 0.93132 0.0
C903 C 0.03084 0.49446 0.94878 0.0
C904 C 0.03407 0.48703 0.97178 0.0
C905 C 0.03883 0.4832 0.93025 0.0
C906 C 0.08051 0.44296 0.91563 0.0
H907 H 0.05761 0.38134 0.8102 0.0
H908 H 0.04413 0.39919 0.8438 0.0
H909 H 0.10518 0.42511 0.89888 0.0
H910 H 0.04864 0.46182 0.99311 0.0
H911 H 0.06237 0.44209 0.96087 0.0
H912 H 0.02624 0.45472 0.89115 0.0
C913 C 0.06411 0.40256 0.84057 0.0
C914 C 0.08802 0.43167 0.89682 0.0
C915 C 0.07189 0.39204 0.82136 0.0
C916 C 0.04588 0.46815 0.97569 0.0
C917 C 0.05388 0.45685 0.95712 0.0
C918 C 0.04368 0.44859 0.89307 0.0
C919 C 0.08182 0.41704 0.85546 0.0
C920 C 0.07352 0.42871 0.87579 0.0
C921 C 0.0503 0.46408 0.93405 0.0
C922 C 0.05826 0.4517 0.91405 0.0
H923 H 0.13538 0.41302 0.82846 0.0
H924 H 0.12186 0.43164 0.86138 0.0
H925 H 0.03957 0.43564 0.85841 0.0
H926 H 0.02193 0.50896 0.94498 0.0
H927 H 0.03613 0.48965 0.91288 0.0
C928 C 0.58174 0.83973 0.88742 0.0
C929 C 0.60515 0.83544 0.89549 0.0
C930 C 0.57042 0.85511 0.89915 0.0
C931 C 0.57444 0.88623 0.95531 0.0
H932 H 0.54028 0.92786 0.91997 0.0
C933 C 0.55802 0.97116 0.99196 0.0
C934 C 0.53271 0.97335 0.99168 0.0
C935 C 0.56487 0.95369 0.97938 0.0
C936 C 0.5496 0.91618 0.92999 0.0
H937 H 0.63533 0.84412 0.9218 0.0
H938 H 0.61618 0.87134 0.94181 0.0
H939 H 0.5558 0.89783 0.89997 0.0
H940 H 0.4949 0.9596 0.97719 0.0
H941 H 0.50719 0.92934 0.95454 0.0
H942 H 0.56924 0.9054 0.98514 0.0
C943 C 0.60595 0.86232 0.92697 0.0
C944 C 0.55837 0.89889 0.91862 0.0
C945 C 0.61703 0.84676 0.91546 0.0
C946 C 0.51455 0.95828 0.97779 0.0
C947 C 0.52153 0.94104 0.96481 0.0
C948 C 0.56609 0.90373 0.96655 0.0
C949 C 0.58249 0.86674 0.91901 0.0
C950 C 0.57126 0.88391 0.93112 0.0
C951 C 0.54665 0.93834 0.96594 0.0
C952 C 0.55391 0.91901 0.95396 0.0
H953 H 0.57216 0.83111 0.87209 0.0
H954 H 0.55221 0.85781 0.89268 0.0
H955 H 0.58361 0.87465 0.96562 0.0
H956 H 0.57245 0.98239 1.00257 0.0
H957 H 0.5844 0.95199 0.98034 0.0
C958 C 0.87308 0.18917 0.39881 0.0
C959 C 0.88574 0.20558 0.38309 0.0
C960 C 0.88463 0.17189 0.40823 0.0
C961 C 0.94581 0.15793 0.42267 0.0
H962 H 0.90763 0.09422 0.42321 0.0
C963 C 0.9886 0.08269 0.46119 0.0
C964 C 0.97243 0.06576 0.47408 0.0
C965 C 0.97901 0.09928 0.44804 0.0
C966 C 0.91849 0.11194 0.42345 0.0
H967 H 0.92052 0.21703 0.36514 0.0
H968 H 0.94097 0.18689 0.382 0.0
H969 H 0.88903 0.1244 0.40468 0.0
H970 H 0.93346 0.05307 0.48327 0.0
H971 H 0.91695 0.08213 0.46099 0.0
H972 H 0.97494 0.14571 0.44217 0.0
C973 C 0.92204 0.1874 0.38686 0.0
C974 C 0.90784 0.1292 0.41275 0.0
C975 C 0.91032 0.20451 0.37715 0.0
C976 C 0.94647 0.06569 0.47338 0.0
C977 C 0.93694 0.08234 0.46044 0.0
C978 C 0.95639 0.14069 0.43366 0.0
C979 C 0.9092 0.17082 0.40236 0.0
C980 C 0.92126 0.1524 0.41249 0.0
C981 C 0.95305 0.0994 0.44762 0.0
C982 C 0.94271 0.11751 0.43446 0.0
H983 H 0.85405 0.18947 0.40353 0.0
H984 H 0.8744 0.15946 0.4203 0.0
H985 H 0.95649 0.17573 0.42283 0.0
H986 H 0.00868 0.08315 0.46123 0.0
H987 H 0.99193 0.11195 0.43814 0.0
C988 C 0.25148 0.62329 0.12712 0.0
C989 C 0.25306 0.62161 0.15141 0.0
C990 C 0.22979 0.61197 0.11453 0.0
C991 C 0.16164 0.58758 0.12092 0.0
H992 H 0.16618 0.55965 0.06151 0.0
C993 C 0.07251 0.53938 0.06963 0.0
C994 C 0.07118 0.54434 0.04582 0.0
C995 C 0.09519 0.54646 0.08263 0.0
C996 C 0.16458 0.56751 0.078 0.0
H997 H 0.23297 0.60643 0.18145 0.0
H998 H 0.19535 0.58634 0.15948 0.0
H999 H 0.20477 0.5764 0.08408 0.0
H1000 H 0.09269 0.55992 1.01678 0.0
H1001 H 0.13229 0.57253 0.03947 0.0
H1002 H 0.12151 0.57895 0.11477 0.0
C1003 C 0.21081 0.59666 0.15016 0.0
C1004 C 0.18672 0.57714 0.09095 0.0
C1005 C 0.23252 0.60797 0.16276 0.0
C1006 C 0.09317 0.55587 0.03511 0.0
C1007 C 0.11589 0.56298 0.04811 0.0
C1008 C 0.13953 0.57795 0.108 0.0
C1009 C 0.20908 0.59865 0.12589 0.0
C1010 C 0.18554 0.58746 0.11251 0.0
C1011 C 0.11709 0.55871 0.07212 0.0
C1012 C 0.1407 0.56793 0.0863 0.0
H1013 H 0.26705 0.63338 0.11776 0.0
H1014 H 0.22907 0.6141 0.09589 0.0
H1015 H 0.15998 0.59571 0.13725 0.0
H1016 H 0.05585 0.53053 0.07837 0.0
H1017 H 0.09551 0.54255 0.10099 0.0
C1018 C 0.26814 0.42649 0.66836 0.0
C1019 C 0.25258 0.40556 0.66031 0.0
C1020 C 0.28891 0.43793 0.65591 0.0
C1021 C 0.31723 0.43928 0.59762 0.0
H1022 H 0.37803 0.47171 0.63078 0.0
C1023 C 0.41478 0.4657 0.55615 0.0
C1024 C 0.42899 0.4883 0.56037 0.0
C1025 C 0.39249 0.4571 0.56771 0.0
C1026 C 0.3611 0.4629 0.62126 0.0
H1027 H 0.2468 0.38077 0.6322 0.0
H1028 H 0.28342 0.39977 0.61144 0.0
H1029 H 0.34106 0.45372 0.65225 0.0
H1030 H 0.43074 0.51962 0.58008 0.0
H1031 H 0.39204 0.50437 0.60062 0.0
H1032 H 0.33781 0.44777 0.56671 0.0
C1033 C 0.27936 0.40778 0.6271 0.0
C1034 C 0.33977 0.45263 0.63357 0.0
C1035 C 0.25845 0.39655 0.63935 0.0
C1036 C 0.42023 0.50216 0.57634 0.0
C1037 C 0.39814 0.49339 0.58822 0.0
C1038 C 0.33867 0.44923 0.58539 0.0
C1039 C 0.29496 0.42869 0.63512 0.0
C1040 C 0.31751 0.4405 0.62196 0.0
C1041 C 0.38405 0.47073 0.58408 0.0
C1042 C 0.36091 0.46106 0.59706 0.0
H1043 H 0.26454 0.43397 0.68448 0.0
H1044 H 0.30012 0.45412 0.6626 0.0
H1045 H 0.30039 0.43069 0.58787 0.0
H1046 H 0.42093 0.45455 0.54396 0.0
H1047 H 0.38216 0.43953 0.56425 0.0
C1048 C 0.75583 0.69989 0.91831 0.0
C1049 C 0.74194 0.6918 0.89788 0.0
C1050 C 0.77222 0.6872 0.92905 0.0
C1051 C 0.80925 0.64435 0.91445 0.0
H1052 H 0.8244 0.64424 0.98063 0.0
C1053 C 0.90116 0.62277 0.95169 0.0
C1054 C 0.90041 0.60907 0.97189 0.0
C1055 C 0.88013 0.63126 0.94391 0.0
C1056 C 0.8202 0.64387 0.96214 0.0
H1057 H 0.73303 0.66343 0.8735 0.0
H1058 H 0.76124 0.64099 0.89248 0.0
H1059 H 0.78909 0.6605 0.96538 0.0
H1060 H 0.87696 0.59389 0.99999 0.0
H1061 H 0.83991 0.60839 0.98607 0.0
H1062 H 0.84008 0.62754 0.91115 0.0
C1063 C 0.76002 0.65744 0.89989 0.0
C1064 C 0.80013 0.65341 0.95337 0.0
C1065 C 0.74381 0.67023 0.88905 0.0
C1066 C 0.8781 0.60423 0.98426 0.0
C1067 C 0.85696 0.61272 0.97641 0.0
C1068 C 0.82918 0.63476 0.9232 0.0
C1069 C 0.77494 0.66606 0.91967 0.0
C1070 C 0.79466 0.65407 0.92938 0.0
C1071 C 0.85769 0.62615 0.95601 0.0
C1072 C 0.83522 0.6348 0.94709 0.0
H1073 H 0.75496 0.71658 0.92538 0.0
H1074 H 0.78362 0.69453 0.94408 0.0
H1075 H 0.80584 0.64478 0.89587 0.0
H1076 H 0.91786 0.62657 0.94152 0.0
H1077 H 0.88151 0.64189 0.92835 0.0
C1078 C 0.40579 0.81512 0.16903 0.0
C1079 C 0.41987 0.79789 0.17314 0.0
C1080 C 0.41652 0.83618 0.15828 0.0
C1081 C 0.47824 0.8738 0.14287 0.0
H1082 H 0.4365 0.90054 0.0985 0.0
C1083 C 0.52027 0.94935 0.08141 0.0
C1084 C 0.50712 0.96733 0.07809 0.0
C1085 C 0.50948 0.92898 0.09327 0.0
C1086 C 0.44835 0.89345 0.11102 0.0
H1087 H 0.45643 0.78946 0.16925 0.0
H1088 H 0.4751 0.82605 0.15028 0.0
H1089 H 0.41833 0.86469 0.11888 0.0
H1090 H 0.47241 0.97817 0.08471 0.0
H1091 H 0.45335 0.94244 0.10526 0.0
H1092 H 0.50835 0.90244 0.1347 0.0
C1093 C 0.45585 0.82349 0.15572 0.0
C1094 C 0.43792 0.87288 0.12278 0.0
C1095 C 0.44514 0.80245 0.1666 0.0
C1096 C 0.48287 0.96448 0.08678 0.0
C1097 C 0.47196 0.94401 0.09853 0.0
C1098 C 0.4887 0.8943 0.13101 0.0
C1099 C 0.44162 0.84059 0.15121 0.0
C1100 C 0.45271 0.86272 0.13887 0.0
C1101 C 0.48521 0.92605 0.10205 0.0
C1102 C 0.47391 0.90438 0.1149 0.0
H1103 H 0.3864 0.81233 0.17416 0.0
H1104 H 0.4051 0.84906 0.1556 0.0
H1105 H 0.49015 0.8668 0.15539 0.0
H1106 H 0.53899 0.95104 0.07488 0.0
H1107 H 0.52008 0.91541 0.09538 0.0
C1108 C 0.06595 0.23067 0.65396 0.0
C1109 C 0.08728 0.23271 0.66923 0.0
C1110 C 0.0567 0.21014 0.64145 0.0
C1111 C 0.056 0.14719 0.64147 0.0
H1112 H 0.03867 0.15083 0.57589 0.0
C1113 C 0.00055 0.06813 0.58862 0.0
C1114 C 0.0088 0.06469 0.56653 0.0
C1115 C 0.01121 0.08824 0.60119 0.0
C1116 C 0.04357 0.1495 0.59416 0.0
H1117 H 0.11508 0.21438 0.68376 0.0
H1118 H 0.09871 0.17853 0.66231 0.0
H1119 H 0.05434 0.18657 0.59789 0.0
H1120 H 0.03437 0.07994 0.54007 0.0
H1121 H 0.053 0.1153 0.56198 0.0
H1122 H 0.04499 0.11017 0.63782 0.0
C1123 C 0.08924 0.19286 0.65985 0.0
C1124 C 0.05231 0.17 0.60683 0.0
C1125 C 0.09871 0.21348 0.67207 0.0
C1126 C 0.028 0.08188 0.55724 0.0
C1127 C 0.03842 0.10225 0.56969 0.0
C1128 C 0.04691 0.12673 0.62888 0.0
C1129 C 0.06826 0.19096 0.64417 0.0
C1130 C 0.05867 0.16913 0.63066 0.0
C1131 C 0.03012 0.10571 0.59184 0.0
C1132 C 0.04057 0.12757 0.60505 0.0
H1133 H 0.05681 0.24519 0.65121 0.0
H1134 H 0.04038 0.20923 0.6297 0.0
H1135 H 0.06058 0.14584 0.65979 0.0
H1136 H 0.98564 0.05528 0.59617 0.0
H1137 H 0.00414 0.09038 0.61804 0.0
C1138 C 0.73713 0.3411 0.41566 0.0
C1139 C 0.75498 0.35392 0.40092 0.0
C1140 C 0.72026 0.3518 0.42657 0.0
C1141 C 0.69125 0.40308 0.42063 0.0
H1142 H 0.66572 0.38218 0.48061 0.0
C1143 C 0.59939 0.42347 0.45262 0.0
C1144 C 0.59758 0.42694 0.47637 0.0
C1145 C 0.62039 0.41647 0.4444 0.0
C1146 C 0.67286 0.38851 0.46399 0.0
H1147 H 0.76999 0.38818 0.38688 0.0
H1148 H 0.74096 0.40709 0.40643 0.0
H1149 H 0.70022 0.36721 0.46572 0.0
H1150 H 0.61667 0.42663 0.51008 0.0
H1151 H 0.65366 0.41498 0.49575 0.0
H1152 H 0.66431 0.4248 0.41914 0.0
C1153 C 0.73951 0.38862 0.40908 0.0
C1154 C 0.69245 0.37965 0.45529 0.0
C1155 C 0.75623 0.37785 0.39797 0.0
C1156 C 0.61743 0.42375 0.49171 0.0
C1157 C 0.63858 0.41701 0.48348 0.0
C1158 C 0.67183 0.4121 0.42943 0.0
C1159 C 0.72098 0.37564 0.42318 0.0
C1160 C 0.70163 0.38653 0.43333 0.0
C1161 C 0.64022 0.41304 0.45974 0.0
C1162 C 0.66209 0.40466 0.45106 0.0
H1163 H 0.73549 0.32256 0.41798 0.0
H1164 H 0.70601 0.34113 0.43696 0.0
H1165 H 0.6976 0.40862 0.40355 0.0
H1166 H 0.58423 0.42557 0.44045 0.0
H1167 H 0.62073 0.41319 0.42608 0.0
loop_
_geom_bond_atom_site_label_1
_geom_bond_atom_site_label_2
_geom_bond_distance
_geom_bond_site_symmetry_2
_ccdc_geom_bond_type
C0 C1 1.384 . S
C0 H13 0.947 . S
C0 C35 1.382 . S
C1 C0 1.384 . S
C1 C2 1.378 . S
C2 C1 1.378 . S
C2 C3 1.378 . S
C2 H14 0.952 . S
C3 C2 1.378 . S
C3 H15 0.950 . S
C3 C34 1.383 . S
H4 C23 0.947 . S
H5 C24 0.946 . S
H6 C26 0.953 . S
H7 C27 0.945 . S
H8 C29 0.952 . S
H9 C30 0.949 . S
H10 C32 0.950 . S
H11 C33 0.948 . S
H12 C35 0.951 . S
H13 C0 0.947 . S
H14 C2 0.952 . S
H15 C3 0.950 . S
N16 C19 1.382 . S
N16 C21 1.363 . S
N17 C19 1.371 . S
N17 C20 1.372 . S
N18 C20 1.361 . S
N18 C21 1.377 . S
C19 N16 1.382 . S
C19 N17 1.371 . S
C19 C22 1.480 . S
C20 N17 1.372 . S
C20 N18 1.361 . S
C20 C28 1.457 . S
C21 N16 1.363 . S
C21 N18 1.377 . S
C21 C34 1.479 . S
C22 C19 1.480 . S
C22 C23 1.383 . S
C22 C27 1.385 . S
C23 H4 0.947 . S
C23 C22 1.383 . S
C23 C24 1.388 . S
C24 H5 0.946 . S
C24 C23 1.388 . S
C24 C25 1.384 . S
C25 C24 1.384 . S
C25 C26 1.377 . S
C26 H6 0.953 . S
C26 C25 1.377 . S
C26 C27 1.369 . S
C27 H7 0.945 . S
C27 C22 1.385 . S
C27 C26 1.369 . S
C28 C20 1.457 . S
C28 C29 1.372 . S
C28 C33 1.364 . S
C29 H8 0.952 . S
C29 C28 1.372 . S
C29 C30 1.389 . S
C30 H9 0.949 . S
C30 C29 1.389 . S
C30 C31 1.387 . S
C31 C30 1.387 . S
C31 C32 1.372 . S
C32 H10 0.950 . S
C32 C31 1.372 . S
C32 C33 1.379 . S
C33 H11 0.948 . S
C33 C28 1.364 . S
C33 C32 1.379 . S
C34 C3 1.383 . S
C34 C21 1.479 . S
C34 C35 1.398 . S
C35 C0 1.382 . S
C35 H12 0.951 . S
C35 C34 1.398 . S
C36 C37 1.384 . S
C36 H49 0.947 . S
C36 C71 1.382 . S
C37 C36 1.384 . S
C37 C38 1.378 . S
C38 C37 1.378 . S
C38 C39 1.378 . S
C38 H50 0.952 . S
C39 C38 1.378 . S
C39 H51 0.950 . S
C39 C70 1.383 . S
H40 C59 0.947 . S
H41 C60 0.946 . S
H42 C62 0.953 . S
H43 C63 0.945 . S
H44 C65 0.952 . S
H45 C66 0.949 . S
H46 C68 0.950 . S
H47 C69 0.948 . S
H48 C71 0.951 . S
H49 C36 0.947 . S
H50 C38 0.952 . S
H51 C39 0.950 . S
N52 C55 1.382 . S
N52 C57 1.363 . S
N53 C55 1.371 . S
N53 C56 1.372 . S
N54 C56 1.361 . S
N54 C57 1.377 . S
C55 N52 1.382 . S
C55 N53 1.371 . S
C55 C58 1.480 . S
C56 N53 1.372 . S
C56 N54 1.361 . S
C56 C64 1.457 . S
C57 N52 1.363 . S
C57 N54 1.377 . S
C57 C70 1.479 . S
C58 C55 1.480 . S
C58 C59 1.383 . S
C58 C63 1.385 . S
C59 H40 0.947 . S
C59 C58 1.383 . S
C59 C60 1.388 . S
C60 H41 0.946 . S
C60 C59 1.388 . S
C60 C61 1.384 . S
C61 C60 1.384 . S
C61 C62 1.377 . S
C62 H42 0.953 . S
C62 C61 1.377 . S
C62 C63 1.369 . S
C63 H43 0.945 . S
C63 C58 1.385 . S
C63 C62 1.369 . S
C64 C56 1.457 . S
C64 C65 1.372 . S
C64 C69 1.364 . S
C65 H44 0.952 . S
C65 C64 1.372 . S
C65 C66 1.389 . S
C66 H45 0.949 . S
C66 C65 1.389 . S
C66 C67 1.387 . S
C67 C66 1.387 . S
C67 C68 1.372 . S
C68 H46 0.950 . S
C68 C67 1.372 . S
C68 C69 1.379 . S
C69 H47 0.948 . S
C69 C64 1.364 . S
C69 C68 1.379 . S
C70 C39 1.383 . S
C70 C57 1.479 . S
C70 C71 1.398 . S
C71 C36 1.382 . S
C71 H48 0.951 . S
C71 C70 1.398 . S
C72 C73 1.384 . S
C72 H85 0.947 . S
C72 C107 1.382 . S
C73 C72 1.384 . S
C73 C74 1.378 . S
C74 C73 1.378 . S
C74 C75 1.378 . S
C74 H86 0.952 . S
C75 C74 1.378 . S
C75 H87 0.950 . S
C75 C106 1.383 . S
H76 C95 0.947 . S
H77 C96 0.946 . S
H78 C98 0.953 . S
H79 C99 0.945 . S
H80 C101 0.952 . S
H81 C102 0.949 . S
H82 C104 0.950 . S
H83 C105 0.948 . S
H84 C107 0.951 . S
H85 C72 0.947 . S
H86 C74 0.952 . S
H87 C75 0.950 . S
N88 C91 1.382 . S
N88 C93 1.363 . S
N89 C91 1.371 . S
N89 C92 1.372 . S
N90 C92 1.361 . S
N90 C93 1.377 . S
C91 N88 1.382 . S
C91 N89 1.371 . S
C91 C94 1.480 . S
C92 N89 1.372 . S
C92 N90 1.361 . S
C92 C100 1.457 . S
C93 N88 1.363 . S
C93 N90 1.377 . S
C93 C106 1.479 . S
C94 C91 1.480 . S
C94 C95 1.383 . S
C94 C99 1.385 . S
C95 H76 0.947 . S
C95 C94 1.383 . S
C95 C96 1.388 . S
C96 H77 0.946 . S
C96 C95 1.388 . S
C96 C97 1.384 . S
C97 C96 1.384 . S
C97 C98 1.377 . S
C98 H78 0.953 . S
C98 C97 1.377 . S
C98 C99 1.369 . S
C99 H79 0.945 . S
C99 C94 1.385 . S
C99 C98 1.369 . S
C100 C92 1.457 . S
C100 C101 1.372 . S
C100 C105 1.364 . S
C101 H80 0.952 . S
C101 C100 1.372 . S
C101 C102 1.389 . S
C102 H81 0.949 . S
C102 C101 1.389 . S
C102 C103 1.387 . S
C103 C102 1.387 . S
C103 C104 1.372 . S
C104 H82 0.950 . S
C104 C103 1.372 . S
C104 C105 1.379 . S
C105 H83 0.948 . S
C105 C100 1.364 . S
C105 C104 1.379 . S
C106 C75 1.383 . S
C106 C93 1.479 . S
C106 C107 1.398 . S
C107 C72 1.382 . S
C107 H84 0.951 . S
C107 C106 1.398 . S
C108 C109 1.384 . S
C108 H121 0.947 . S
C108 C143 1.382 . S
C109 C108 1.384 . S
C109 C110 1.378 . S
C110 C109 1.378 . S
C110 C111 1.378 . S
C110 H122 0.952 . S
C111 C110 1.378 . S
C111 H123 0.950 . S
C111 C142 1.383 . S
H112 C131 0.947 . S
H113 C132 0.946 . S
H114 C134 0.953 . S
H115 C135 0.945 . S
H116 C137 0.952 . S
H117 C138 0.949 . S
H118 C140 0.950 . S
H119 C141 0.948 . S
H120 C143 0.951 . S
H121 C108 0.947 . S
H122 C110 0.952 . S
H123 C111 0.950 . S
N124 C127 1.382 . S
N124 C129 1.363 . S
N125 C127 1.371 . S
N125 C128 1.372 . S
N126 C128 1.361 . S
N126 C129 1.377 . S
C127 N124 1.382 . S
C127 N125 1.371 . S
C127 C130 1.480 . S
C128 N125 1.372 . S
C128 N126 1.361 . S
C128 C136 1.457 . S
C129 N124 1.363 . S
C129 N126 1.377 . S
C129 C142 1.479 . S
C130 C127 1.480 . S
C130 C131 1.383 . S
C130 C135 1.385 . S
C131 H112 0.947 . S
C131 C130 1.383 . S
C131 C132 1.388 . S
C132 H113 0.946 . S
C132 C131 1.388 . S
C132 C133 1.384 . S
C133 C132 1.384 . S
C133 C134 1.377 . S
C134 H114 0.953 . S
C134 C133 1.377 . S
C134 C135 1.369 . S
C135 H115 0.945 . S
C135 C130 1.385 . S
C135 C134 1.369 . S
C136 C128 1.457 . S
C136 C137 1.372 . S
C136 C141 1.364 . S
C137 H116 0.952 . S
C137 C136 1.372 . S
C137 C138 1.389 . S
C138 H117 0.949 . S
C138 C137 1.389 . S
C138 C139 1.387 . S
C139 C138 1.387 . S
C139 C140 1.372 . S
C140 H118 0.950 . S
C140 C139 1.372 . S
C140 C141 1.379 . S
C141 H119 0.948 . S
C141 C136 1.364 . S
C141 C140 1.379 . S
C142 C111 1.383 . S
C142 C129 1.479 . S
C142 C143 1.398 . S
C143 C108 1.382 . S
C143 H120 0.951 . S
C143 C142 1.398 . S
C144 C145 1.384 . S
C144 H157 0.947 . S
C144 C179 1.382 . S
C145 C144 1.384 . S
C145 C146 1.378 . S
C146 C145 1.378 . S
C146 C147 1.378 . S
C146 H158 0.952 . S
C147 C146 1.378 . S
C147 H159 0.950 . S
C147 C178 1.383 . S
H148 C167 0.947 . S
H149 C168 0.946 . S
H150 C170 0.953 . S
H151 C171 0.945 . S
H152 C173 0.952 . S
H153 C174 0.949 . S
H154 C176 0.950 . S
H155 C177 0.948 . S
H156 C179 0.951 . S
H157 C144 0.947 . S
H158 C146 0.952 . S
H159 C147 0.950 . S
N160 C163 1.382 . S
N160 C165 1.363 . S
N161 C163 1.371 . S
N161 C164 1.372 . S
N162 C164 1.361 . S
N162 C165 1.377 . S
C163 N160 1.382 . S
C163 N161 1.371 . S
C163 C166 1.480 . S
C164 N161 1.372 . S
C164 N162 1.361 . S
C164 C172 1.457 . S
C165 N160 1.363 . S
C165 N162 1.377 . S
C165 C178 1.479 . S
C166 C163 1.480 . S
C166 C167 1.383 . S
C166 C171 1.385 . S
C167 H148 0.947 . S
C167 C166 1.383 . S
C167 C168 1.388 . S
C168 H149 0.946 . S
C168 C167 1.388 . S
C168 C169 1.384 . S
C169 C168 1.384 . S
C169 C170 1.377 . S
C170 H150 0.953 . S
C170 C169 1.377 . S
C170 C171 1.369 . S
C171 H151 0.945 . S
C171 C166 1.385 . S
C171 C170 1.369 . S
C172 C164 1.457 . S
C172 C173 1.372 . S
C172 C177 1.364 . S
C173 H152 0.952 . S
C173 C172 1.372 . S
C173 C174 1.389 . S
C174 H153 0.949 . S
C174 C173 1.389 . S
C174 C175 1.387 . S
C175 C174 1.387 . S
C175 C176 1.372 . S
C176 H154 0.950 . S
C176 C175 1.372 . S
C176 C177 1.379 . S
C177 H155 0.948 . S
C177 C172 1.364 . S
C177 C176 1.379 . S
C178 C147 1.383 . S
C178 C165 1.479 . S
C178 C179 1.398 . S
C179 C144 1.382 . S
C179 H156 0.951 . S
C179 C178 1.398 . S
C180 C181 1.384 . S
C180 H193 0.947 . S
C180 C215 1.382 . S
C181 C180 1.384 . S
C181 C182 1.378 . S
C182 C181 1.378 . S
C182 C183 1.378 . S
C182 H194 0.952 . S
C183 C182 1.378 . S
C183 H195 0.950 . S
C183 C214 1.383 . S
H184 C203 0.947 . S
H185 C204 0.946 . S
H186 C206 0.953 . S
H187 C207 0.945 . S
H188 C209 0.952 . S
H189 C210 0.949 . S
H190 C212 0.950 . S
H191 C213 0.948 . S
H192 C215 0.951 . S
H193 C180 0.947 . S
H194 C182 0.952 . S
H195 C183 0.950 . S
N196 C199 1.382 . S
N196 C201 1.363 . S
N197 C199 1.371 . S
N197 C200 1.372 . S
N198 C200 1.361 . S
N198 C201 1.377 . S
C199 N196 1.382 . S
C199 N197 1.371 . S
C199 C202 1.480 . S
C200 N197 1.372 . S
C200 N198 1.361 . S
C200 C208 1.457 . S
C201 N196 1.363 . S
C201 N198 1.377 . S
C201 C214 1.479 . S
C202 C199 1.480 . S
C202 C203 1.383 . S
C202 C207 1.385 . S
C203 H184 0.947 . S
C203 C202 1.383 . S
C203 C204 1.388 . S
C204 H185 0.946 . S
C204 C203 1.388 . S
C204 C205 1.384 . S
C205 C204 1.384 . S
C205 C206 1.377 . S
C206 H186 0.953 . S
C206 C205 1.377 . S
C206 C207 1.369 . S
C207 H187 0.945 . S
C207 C202 1.385 . S
C207 C206 1.369 . S
C208 C200 1.457 . S
C208 C209 1.372 . S
C208 C213 1.364 . S
C209 H188 0.952 . S
C209 C208 1.372 . S
C209 C210 1.389 . S
C210 H189 0.949 . S
C210 C209 1.389 . S
C210 C211 1.387 . S
C211 C210 1.387 . S
C211 C212 1.372 . S
C212 H190 0.950 . S
C212 C211 1.372 . S
C212 C213 1.379 . S
C213 H191 0.948 . S
C213 C208 1.364 . S
C213 C212 1.379 . S
C214 C183 1.383 . S
C214 C201 1.479 . S
C214 C215 1.398 . S
C215 C180 1.382 . S
C215 H192 0.951 . S
C215 C214 1.398 . S
C216 C217 1.384 . S
C216 H229 0.947 . S
C216 C251 1.382 . S
C217 C216 1.384 . S
C217 C218 1.378 . S
C218 C217 1.378 . S
C218 C219 1.378 . S
C218 H230 0.952 . S
C219 C218 1.378 . S
C219 H231 0.950 . S
C219 C250 1.383 . S
H220 C239 0.947 . S
H221 C240 0.946 . S
H222 C242 0.953 . S
H223 C243 0.945 . S
H224 C245 0.952 . S
H225 C246 0.949 . S
H226 C248 0.950 . S
H227 C249 0.948 . S
H228 C251 0.951 . S
H229 C216 0.947 . S
H230 C218 0.952 . S
H231 C219 0.950 . S
N232 C235 1.382 . S
N232 C237 1.363 . S
N233 C235 1.371 . S
N233 C236 1.372 . S
N234 C236 1.361 . S
N234 C237 1.377 . S
C235 N232 1.382 . S
C235 N233 1.371 . S
C235 C238 1.480 . S
C236 N233 1.372 . S
C236 N234 1.361 . S
C236 C244 1.457 . S
C237 N232 1.363 . S
C237 N234 1.377 . S
C237 C250 1.479 . S
C238 C235 1.480 . S
C238 C239 1.383 . S
C238 C243 1.385 . S
C239 H220 0.947 . S
C239 C238 1.383 . S
C239 C240 1.388 . S
C240 H221 0.946 . S
C240 C239 1.388 . S
C240 C241 1.384 . S
C241 C240 1.384 . S
C241 C242 1.377 . S
C242 H222 0.953 . S
C242 C241 1.377 . S
C242 C243 1.369 . S
C243 H223 0.945 . S
C243 C238 1.385 . S
C243 C242 1.369 . S
C244 C236 1.457 . S
C244 C245 1.372 . S
C244 C249 1.364 . S
C245 H224 0.952 . S
C245 C244 1.372 . S
C245 C246 1.389 . S
C246 H225 0.949 . S
C246 C245 1.389 . S
C246 C247 1.387 . S
C247 C246 1.387 . S
C247 C248 1.372 . S
C248 H226 0.950 . S
C248 C247 1.372 . S
C248 C249 1.379 . S
C249 H227 0.948 . S
C249 C244 1.364 . S
C249 C248 1.379 . S
C250 C219 1.383 . S
C250 C237 1.479 . S
C250 C251 1.398 . S
C251 C216 1.382 . S
C251 H228 0.951 . S
C251 C250 1.398 . S
C252 C253 1.384 . S
C252 H265 0.947 . S
C252 C287 1.382 . S
C253 C252 1.384 . S
C253 C254 1.378 . S
C254 C253 1.378 . S
C254 C255 1.378 . S
C254 H266 0.952 . S
C255 C254 1.378 . S
C255 H267 0.950 . S
C255 C286 1.383 . S
H256 C275 0.947 . S
H257 C276 0.946 . S
H258 C278 0.953 . S
H259 C279 0.945 . S
H260 C281 0.952 . S
H261 C282 0.949 . S
H262 C284 0.950 . S
H263 C285 0.948 . S
H264 C287 0.951 . S
H265 C252 0.947 . S
H266 C254 0.952 . S
H267 C255 0.950 . S
N268 C271 1.382 . S
N268 C273 1.363 . S
N269 C271 1.371 . S
N269 C272 1.372 . S
N270 C272 1.361 . S
N270 C273 1.377 . S
C271 N268 1.382 . S
C271 N269 1.371 . S
C271 C274 1.480 . S
C272 N269 1.372 . S
C272 N270 1.361 . S
C272 C280 1.457 . S
C273 N268 1.363 . S
C273 N270 1.377 . S
C273 C286 1.479 . S
C274 C271 1.480 . S
C274 C275 1.383 . S
C274 C279 1.385 . S
C275 H256 0.947 . S
C275 C274 1.383 . S
C275 C276 1.388 . S
C276 H257 0.946 . S
C276 C275 1.388 . S
C276 C277 1.384 . S
C277 C276 1.384 . S
C277 C278 1.377 . S
C278 H258 0.953 . S
C278 C277 1.377 . S
C278 C279 1.369 . S
C279 H259 0.945 . S
C279 C274 1.385 . S
C279 C278 1.369 . S
C280 C272 1.457 . S
C280 C281 1.372 . S
C280 C285 1.364 . S
C281 H260 0.952 . S
C281 C280 1.372 . S
C281 C282 1.389 . S
C282 H261 0.949 . S
C282 C281 1.389 . S
C282 C283 1.387 . S
C283 C282 1.387 . S
C283 C284 1.372 . S
C284 H262 0.950 . S
C284 C283 1.372 . S
C284 C285 1.379 . S
C285 H263 0.948 . S
C285 C280 1.364 . S
C285 C284 1.379 . S
C286 C255 1.383 . S
C286 C273 1.479 . S
C286 C287 1.398 . S
C287 C252 1.382 . S
C287 H264 0.951 . S
C287 C286 1.398 . S
Tb288 C290 2.826 . S
Tb288 O308 2.511 . S
Tb288 O309 2.445 . S
Tb288 O310 2.647 1_665 S
Tb288 O311 2.388 1_565 S
Tb288 O312 2.395 1_655 S
Tb288 O316 2.344 . S
Tb288 O319 2.323 1_565 S
Tb289 C299 2.809 . S
Tb289 O310 2.325 . S
Tb289 O313 2.341 1_545 S
Tb289 O314 2.484 . S
Tb289 O315 2.440 . S
Tb289 O316 2.658 1_445 S
Tb289 O317 2.409 1_545 S
Tb289 O318 2.378 1_455 S
C290 Tb288 2.826 . S
C290 C291 1.514 . S
C290 O308 1.248 . S
C290 O309 1.266 . S
C291 C290 1.514 . S
C291 C292 1.359 . S
C291 C296 1.348 . S
C292 C291 1.359 . S
C292 C293 1.380 . S
C292 H320 0.929 . S
C293 C292 1.380 . S
C293 C294 1.347 . S
C293 H321 0.931 . S
C294 C293 1.347 . S
C294 C295 1.369 . S
C295 C294 1.369 . S
C295 C296 1.408 . S
C295 H322 0.930 . S
C296 C291 1.348 . S
C296 C295 1.408 . S
C296 H323 0.930 . S
C297 O310 1.281 . S
C297 O311 1.254 1_455 S
C298 O312 1.236 . S
C298 O313 1.266 . S
C299 Tb289 2.809 . S
C299 C300 1.514 . S
C299 O314 1.248 . S
C299 O315 1.266 . S
C300 C299 1.514 . S
C300 C301 1.359 . S
C300 C305 1.348 . S
C301 C300 1.359 . S
C301 C302 1.380 . S
C301 H324 0.929 . S
C302 C301 1.380 . S
C302 C303 1.347 . S
C302 H325 0.931 . S
C303 C302 1.347 . S
C303 C304 1.369 . S
C304 C303 1.369 . S
C304 C305 1.408 . S
C304 H326 0.930 . S
C305 C300 1.348 . S
C305 C304 1.408 . S
C305 H327 0.930 . S
C306 O316 1.281 . S
C306 O317 1.254 1_655 S
C307 O318 1.236 . S
C307 O319 1.266 . S
O308 Tb288 2.511 . S
O308 C290 1.248 . S
O309 Tb288 2.445 . S
O309 C290 1.266 . S
O310 Tb288 2.647 1_445 S
O310 Tb289 2.325 . S
O310 C297 1.281 . S
O311 Tb288 2.388 1_545 S
O311 C297 1.254 1_655 S
O312 Tb288 2.395 1_455 S
O312 C298 1.236 . S
O313 Tb289 2.341 1_565 S
O313 C298 1.266 . S
O314 Tb289 2.484 . S
O314 C299 1.248 . S
O315 Tb289 2.440 . S
O315 C299 1.266 . S
O316 Tb288 2.344 . S
O316 Tb289 2.658 1_665 S
O316 C306 1.281 . S
O317 Tb289 2.409 1_565 S
O317 C306 1.254 1_455 S
O318 Tb289 2.378 1_655 S
O318 C307 1.236 . S
O319 Tb288 2.323 1_545 S
O319 C307 1.266 . S
H320 C292 0.929 . S
H321 C293 0.931 . S
H322 C295 0.930 . S
H323 C296 0.930 . S
H324 C301 0.929 . S
H325 C302 0.931 . S
H326 C304 0.930 . S
H327 C305 0.930 . S
Tb328 C330 2.809 . S
Tb328 O348 2.484 . S
Tb328 O349 2.440 . S
Tb328 O350 2.658 1_545 S
Tb328 O351 2.409 1_545 S
Tb328 O352 2.378 . S
Tb328 O356 2.325 1_554 S
Tb328 O359 2.341 1_544 S
Tb329 C339 2.809 . S
Tb329 O350 2.325 1_556 S
Tb329 O353 2.341 1_566 S
Tb329 O354 2.484 . S
Tb329 O355 2.440 . S
Tb329 O356 2.658 1_565 S
Tb329 O357 2.409 1_565 S
Tb329 O358 2.378 . S
C330 Tb328 2.809 . S
C330 C331 1.514 . S
C330 O348 1.248 . S
C330 O349 1.266 . S
C331 C330 1.514 . S
C331 C332 1.359 . S
C331 C336 1.348 . S
C332 C331 1.359 . S
C332 C333 1.380 . S
C332 H360 0.929 . S
C333 C332 1.380 . S
C333 C334 1.347 . S
C333 H361 0.931 . S
C334 C333 1.347 . S
C334 C335 1.369 . S
C335 C334 1.369 . S
C335 C336 1.408 . S
C335 H362 0.930 . S
C336 C331 1.348 . S
C336 C335 1.408 . S
C336 H363 0.930 . S
C337 O350 1.281 . S
C337 O351 1.254 . S
C338 O352 1.236 . S
C338 O353 1.266 . S
C339 Tb329 2.809 . S
C339 C340 1.514 . S
C339 O354 1.248 . S
C339 O355 1.266 . S
C340 C339 1.514 . S
C340 C341 1.359 . S
C340 C345 1.348 . S
C341 C340 1.359 . S
C341 C342 1.380 . S
C341 H364 0.929 . S
C342 C341 1.380 . S
C342 C343 1.347 . S
C342 H365 0.931 . S
C343 C342 1.347 . S
C343 C344 1.369 . S
C344 C343 1.369 . S
C344 C345 1.408 . S
C344 H366 0.930 . S
C345 C340 1.348 . S
C345 C344 1.408 . S
C345 H367 0.930 . S
C346 O356 1.281 . S
C346 O357 1.254 . S
C347 O358 1.236 . S
C347 O359 1.266 . S
O348 Tb328 2.484 . S
O348 C330 1.248 . S
O349 Tb328 2.440 . S
O349 C330 1.266 . S
O350 Tb328 2.658 1_565 S
O350 Tb329 2.325 1_554 S
O350 C337 1.281 . S
O351 Tb328 2.409 1_565 S
O351 C337 1.254 . S
O352 Tb328 2.378 . S
O352 C338 1.236 . S
O353 Tb329 2.341 1_544 S
O353 C338 1.266 . S
O354 Tb329 2.484 . S
O354 C339 1.248 . S
O355 Tb329 2.440 . S
O355 C339 1.266 . S
O356 Tb328 2.325 1_556 S
O356 Tb329 2.658 1_545 S
O356 C346 1.281 . S
O357 Tb329 2.409 1_545 S
O357 C346 1.254 . S
O358 Tb329 2.378 . S
O358 C347 1.236 . S
O359 Tb328 2.341 1_566 S
O359 C347 1.266 . S
H360 C332 0.929 . S
H361 C333 0.931 . S
H362 C335 0.930 . S
H363 C336 0.930 . S
H364 C341 0.929 . S
H365 C342 0.931 . S
H366 C344 0.930 . S
H367 C345 0.930 . S
Tb368 C370 2.809 . S
Tb368 O388 2.484 . S
Tb368 O389 2.440 . S
Tb368 O390 2.658 . S
Tb368 O391 2.409 . S
Tb368 O392 2.378 . S
Tb368 O396 2.325 . S
Tb368 O399 2.341 . S
Tb369 C379 2.809 . S
Tb369 O390 2.325 . S
Tb369 O393 2.341 . S
Tb369 O394 2.484 . S
Tb369 O395 2.440 . S
Tb369 O396 2.658 . S
Tb369 O397 2.409 . S
Tb369 O398 2.378 . S
C370 Tb368 2.809 . S
C370 C371 1.514 . S
C370 O388 1.248 . S
C370 O389 1.266 . S
C371 C370 1.514 . S
C371 C372 1.359 . S
C371 C376 1.348 . S
C372 C371 1.359 . S
C372 C373 1.380 . S
C372 H400 0.929 . S
C373 C372 1.380 . S
C373 C374 1.347 . S
C373 H401 0.931 . S
C374 C373 1.347 . S
C374 C375 1.369 . S
C375 C374 1.369 . S
C375 C376 1.408 . S
C375 H402 0.930 . S
C376 C371 1.348 . S
C376 C375 1.408 . S
C376 H403 0.930 . S
C377 O390 1.281 . S
C377 O391 1.254 . S
C378 O392 1.236 . S
C378 O393 1.266 . S
C379 Tb369 2.809 . S
C379 C380 1.514 . S
C379 O394 1.248 . S
C379 O395 1.266 . S
C380 C379 1.514 . S
C380 C381 1.359 . S
C380 C385 1.348 . S
C381 C380 1.359 . S
C381 C382 1.380 . S
C381 H404 0.929 . S
C382 C381 1.380 . S
C382 C383 1.347 . S
C382 H405 0.931 . S
C383 C382 1.347 . S
C383 C384 1.369 . S
C384 C383 1.369 . S
C384 C385 1.408 . S
C384 H406 0.930 . S
C385 C380 1.348 . S
C385 C384 1.408 . S
C385 H407 0.930 . S
C386 O396 1.281 . S
C386 O397 1.254 . S
C387 O398 1.236 . S
C387 O399 1.266 . S
O388 Tb368 2.484 . S
O388 C370 1.248 . S
O389 Tb368 2.440 . S
O389 C370 1.266 . S
O390 Tb368 2.658 . S
O390 Tb369 2.325 . S
O390 C377 1.281 . S
O391 Tb368 2.409 . S
O391 C377 1.254 . S
O392 Tb368 2.378 . S
O392 C378 1.236 . S
O393 Tb369 2.341 . S
O393 C378 1.266 . S
O394 Tb369 2.484 . S
O394 C379 1.248 . S
O395 Tb369 2.440 . S
O395 C379 1.266 . S
O396 Tb368 2.325 . S
O396 Tb369 2.658 . S
O396 C386 1.281 . S
O397 Tb369 2.409 . S
O397 C386 1.254 . S
O398 Tb369 2.378 . S
O398 C387 1.236 . S
O399 Tb368 2.341 . S
O399 C387 1.266 . S
H400 C372 0.929 . S
H401 C373 0.931 . S
H402 C375 0.930 . S
H403 C376 0.930 . S
H404 C381 0.929 . S
H405 C382 0.931 . S
H406 C384 0.930 . S
H407 C385 0.930 . S
Tb408 C410 2.784 1_455 S
Tb408 O428 2.452 1_455 S
Tb408 O429 2.429 1_455 S
Tb408 O430 2.678 1_556 S
Tb408 O431 2.432 1_556 S
Tb408 O432 2.364 1_456 S
Tb408 O436 2.310 1_455 S
Tb408 O439 2.364 . S
Tb409 C419 2.809 . S
Tb409 O430 2.325 . S
Tb409 O433 2.341 1_455 S
Tb409 O434 2.484 . S
Tb409 O435 2.440 . S
Tb409 O436 2.658 1_454 S
Tb409 O437 2.409 1_455 S
Tb409 O438 2.378 1_554 S
C410 Tb408 2.784 1_655 S
C410 C411 1.514 . S
C410 O428 1.248 . S
C410 O429 1.266 . S
C411 C410 1.514 . S
C411 C412 1.359 . S
C411 C416 1.348 . S
C412 C411 1.359 . S
C412 C413 1.380 . S
C412 H440 0.929 . S
C413 C412 1.380 . S
C413 C414 1.347 . S
C413 H441 0.931 . S
C414 C413 1.347 . S
C414 C415 1.369 . S
C415 C414 1.369 . S
C415 C416 1.408 . S
C415 H442 0.930 . S
C416 C411 1.348 . S
C416 C415 1.408 . S
C416 H443 0.930 . S
C417 O430 1.281 . S
C417 O431 1.254 . S
C418 O432 1.236 . S
C418 O433 1.266 . S
C419 Tb409 2.809 . S
C419 C420 1.514 . S
C419 O434 1.248 . S
C419 O435 1.266 . S
C420 C419 1.514 . S
C420 C421 1.359 . S
C420 C425 1.348 . S
C421 C420 1.359 . S
C421 C422 1.380 . S
C421 H444 0.929 . S
C422 C421 1.380 . S
C422 C423 1.347 . S
C422 H445 0.931 . S
C423 C422 1.347 . S
C423 C424 1.369 . S
C424 C423 1.369 . S
C424 C425 1.408 . S
C424 H446 0.930 . S
C425 C420 1.348 . S
C425 C424 1.408 . S
C425 H447 0.930 . S
C426 O436 1.281 . S
C426 O437 1.254 1_556 S
C427 O438 1.236 . S
C427 O439 1.266 . S
O428 Tb408 2.452 1_655 S
O428 C410 1.248 . S
O429 Tb408 2.429 1_655 S
O429 C410 1.266 . S
O430 Tb408 2.678 1_554 S
O430 Tb409 2.325 . S
O430 C417 1.281 . S
O431 Tb408 2.432 1_554 S
O431 C417 1.254 . S
O432 Tb408 2.364 1_654 S
O432 C418 1.236 . S
O433 Tb409 2.341 1_655 S
O433 C418 1.266 . S
O434 Tb409 2.484 . S
O434 C419 1.248 . S
O435 Tb409 2.440 . S
O435 C419 1.266 . S
O436 Tb408 2.310 1_655 S
O436 Tb409 2.658 1_656 S
O436 C426 1.281 . S
O437 Tb409 2.409 1_655 S
O437 C426 1.254 1_554 S
O438 Tb409 2.378 1_556 S
O438 C427 1.236 . S
O439 Tb408 2.364 . S
O439 C427 1.266 . S
H440 C412 0.929 . S
H441 C413 0.931 . S
H442 C415 0.930 . S
H443 C416 0.930 . S
H444 C421 0.929 . S
H445 C422 0.931 . S
H446 C424 0.930 . S
H447 C425 0.930 . S
C448 C449 1.349 . S
C448 C450 1.327 . S
C448 H473 0.950 . S
C449 C448 1.349 . S
C449 C465 1.349 . S
C450 C448 1.327 . S
C450 C469 1.429 . S
C450 H474 0.950 . S
C451 C468 1.574 . S
C451 C470 1.368 . S
C451 H475 0.949 . S
H452 C456 0.949 . S
C453 C454 1.349 . S
C453 C455 1.327 . S
C453 H476 0.950 . S
C454 C453 1.349 . S
C454 C466 1.349 . S
C455 C453 1.327 . S
C455 C471 1.429 . S
C455 H477 0.950 . S
C456 H452 0.949 . S
C456 C464 1.574 . S
C456 C472 1.368 . S
H457 C465 0.950 . S
H458 C463 0.950 . S
H459 C464 0.949 . S
H460 C466 0.950 . S
H461 C467 0.950 . S
H462 C468 0.949 . S
C463 H458 0.950 . S
C463 C465 1.327 . S
C463 C469 1.429 . S
C464 C456 1.574 . S
C464 H459 0.949 . S
C464 C470 1.368 . S
C465 C449 1.349 . S
C465 H457 0.950 . S
C465 C463 1.327 . S
C466 C454 1.349 . S
C466 H460 0.950 . S
C466 C467 1.327 . S
C467 H461 0.950 . S
C467 C466 1.327 . S
C467 C471 1.429 . S
C468 C451 1.574 . S
C468 H462 0.949 . S
C468 C472 1.368 . S
C469 C450 1.429 . S
C469 C463 1.429 . S
C469 C470 1.523 . S
C470 C451 1.368 . S
C470 C464 1.368 . S
C470 C469 1.523 . S
C471 C455 1.429 . S
C471 C467 1.429 . S
C471 C472 1.523 . S
C472 C456 1.368 . S
C472 C468 1.368 . S
C472 C471 1.523 . S
H473 C448 0.950 . S
H474 C450 0.950 . S
H475 C451 0.949 . S
H476 C453 0.950 . S
H477 C455 0.950 . S
C478 C479 1.349 . S
C478 C480 1.327 . S
C478 H503 0.950 . S
C479 C478 1.349 . S
C479 C495 1.349 . S
C480 C478 1.327 . S
C480 C499 1.429 . S
C480 H504 0.950 . S
C481 C498 1.574 . S
C481 C500 1.368 . S
C481 H505 0.949 . S
H482 C486 0.949 . S
C483 C484 1.349 . S
C483 C485 1.327 . S
C483 H506 0.950 . S
C484 C483 1.349 . S
C484 C496 1.349 . S
C485 C483 1.327 . S
C485 C501 1.429 . S
C485 H507 0.950 . S
C486 H482 0.949 . S
C486 C494 1.574 . S
C486 C502 1.368 . S
H487 C495 0.950 . S
H488 C493 0.950 . S
H489 C494 0.949 . S
H490 C496 0.950 . S
H491 C497 0.950 . S
H492 C498 0.949 . S
C493 H488 0.950 . S
C493 C495 1.327 . S
C493 C499 1.429 . S
C494 C486 1.574 . S
C494 H489 0.949 . S
C494 C500 1.368 . S
C495 C479 1.349 . S
C495 H487 0.950 . S
C495 C493 1.327 . S
C496 C484 1.349 . S
C496 H490 0.950 . S
C496 C497 1.327 . S
C497 H491 0.950 . S
C497 C496 1.327 . S
C497 C501 1.429 . S
C498 C481 1.574 . S
C498 H492 0.949 . S
C498 C502 1.368 . S
C499 C480 1.429 . S
C499 C493 1.429 . S
C499 C500 1.523 . S
C500 C481 1.368 . S
C500 C494 1.368 . S
C500 C499 1.523 . S
C501 C485 1.429 . S
C501 C497 1.429 . S
C501 C502 1.523 . S
C502 C486 1.368 . S
C502 C498 1.368 . S
C502 C501 1.523 . S
H503 C478 0.950 . S
H504 C480 0.950 . S
H505 C481 0.949 . S
H506 C483 0.950 . S
H507 C485 0.950 . S
C508 C509 1.349 . S
C508 C510 1.327 . S
C508 H533 0.950 . S
C509 C508 1.349 . S
C509 C525 1.349 . S
C510 C508 1.327 . S
C510 C529 1.429 . S
C510 H534 0.950 . S
C511 C528 1.574 . S
C511 C530 1.368 . S
C511 H535 0.949 . S
H512 C516 0.949 . S
C513 C514 1.349 . S
C513 C515 1.327 . S
C513 H536 0.950 . S
C514 C513 1.349 . S
C514 C526 1.349 . S
C515 C513 1.327 . S
C515 C531 1.429 . S
C515 H537 0.950 . S
C516 H512 0.949 . S
C516 C524 1.574 . S
C516 C532 1.368 . S
H517 C525 0.950 . S
H518 C523 0.950 . S
H519 C524 0.949 . S
H520 C526 0.950 . S
H521 C527 0.950 . S
H522 C528 0.949 . S
C523 H518 0.950 . S
C523 C525 1.327 . S
C523 C529 1.429 . S
C524 C516 1.574 . S
C524 H519 0.949 . S
C524 C530 1.368 . S
C525 C509 1.349 . S
C525 H517 0.950 . S
C525 C523 1.327 . S
C526 C514 1.349 . S
C526 H520 0.950 . S
C526 C527 1.327 . S
C527 H521 0.950 . S
C527 C526 1.327 . S
C527 C531 1.429 . S
C528 C511 1.574 . S
C528 H522 0.949 . S
C528 C532 1.368 . S
C529 C510 1.429 . S
C529 C523 1.429 . S
C529 C530 1.523 . S
C530 C511 1.368 . S
C530 C524 1.368 . S
C530 C529 1.523 . S
C531 C515 1.429 . S
C531 C527 1.429 . S
C531 C532 1.523 . S
C532 C516 1.368 . S
C532 C528 1.368 . S
C532 C531 1.523 . S
H533 C508 0.950 . S
H534 C510 0.950 . S
H535 C511 0.949 . S
H536 C513 0.950 . S
H537 C515 0.950 . S
C538 C539 1.349 . S
C538 C540 1.327 . S
C538 H563 0.950 . S
C539 C538 1.349 . S
C539 C555 1.349 . S
C540 C538 1.327 . S
C540 C559 1.429 . S
C540 H564 0.950 . S
C541 C558 1.574 . S
C541 C560 1.368 . S
C541 H565 0.949 . S
H542 C546 0.949 . S
C543 C544 1.349 . S
C543 C545 1.327 . S
C543 H566 0.950 . S
C544 C543 1.349 . S
C544 C556 1.349 . S
C545 C543 1.327 . S
C545 C561 1.429 . S
C545 H567 0.950 . S
C546 H542 0.949 . S
C546 C554 1.574 . S
C546 C562 1.368 . S
H547 C555 0.950 . S
H548 C553 0.950 . S
H549 C554 0.949 . S
H550 C556 0.950 . S
H551 C557 0.950 . S
H552 C558 0.949 . S
C553 H548 0.950 . S
C553 C555 1.327 . S
C553 C559 1.429 . S
C554 C546 1.574 . S
C554 H549 0.949 . S
C554 C560 1.368 . S
C555 C539 1.349 . S
C555 H547 0.950 . S
C555 C553 1.327 . S
C556 C544 1.349 . S
C556 H550 0.950 . S
C556 C557 1.327 . S
C557 H551 0.950 . S
C557 C556 1.327 . S
C557 C561 1.429 . S
C558 C541 1.574 . S
C558 H552 0.949 . S
C558 C562 1.368 . S
C559 C540 1.429 . S
C559 C553 1.429 . S
C559 C560 1.523 . S
C560 C541 1.368 . S
C560 C554 1.368 . S
C560 C559 1.523 . S
C561 C545 1.429 . S
C561 C557 1.429 . S
C561 C562 1.523 . S
C562 C546 1.368 . S
C562 C558 1.368 . S
C562 C561 1.523 . S
H563 C538 0.950 . S
H564 C540 0.950 . S
H565 C541 0.949 . S
H566 C543 0.950 . S
H567 C545 0.950 . S
C568 C569 1.349 . S
C568 C570 1.327 . S
C568 H593 0.950 . S
C569 C568 1.349 . S
C569 C585 1.349 . S
C570 C568 1.327 . S
C570 C589 1.429 . S
C570 H594 0.950 . S
C571 C588 1.574 . S
C571 C590 1.368 . S
C571 H595 0.949 . S
H572 C576 0.949 . S
C573 C574 1.349 . S
C573 C575 1.327 . S
C573 H596 0.950 . S
C574 C573 1.349 . S
C574 C586 1.349 . S
C575 C573 1.327 . S
C575 C591 1.429 . S
C575 H597 0.950 . S
C576 H572 0.949 . S
C576 C584 1.574 . S
C576 C592 1.368 . S
H577 C585 0.950 . S
H578 C583 0.950 . S
H579 C584 0.949 . S
H580 C586 0.950 . S
H581 C587 0.950 . S
H582 C588 0.949 . S
C583 H578 0.950 . S
C583 C585 1.327 . S
C583 C589 1.429 . S
C584 C576 1.574 . S
C584 H579 0.949 . S
C584 C590 1.368 . S
C585 C569 1.349 . S
C585 H577 0.950 . S
C585 C583 1.327 . S
C586 C574 1.349 . S
C586 H580 0.950 . S
C586 C587 1.327 . S
C587 H581 0.950 . S
C587 C586 1.327 . S
C587 C591 1.429 . S
C588 C571 1.574 . S
C588 H582 0.949 . S
C588 C592 1.368 . S
C589 C570 1.429 . S
C589 C583 1.429 . S
C589 C590 1.523 . S
C590 C571 1.368 . S
C590 C584 1.368 . S
C590 C589 1.523 . S
C591 C575 1.429 . S
C591 C587 1.429 . S
C591 C592 1.523 . S
C592 C576 1.368 . S
C592 C588 1.368 . S
C592 C591 1.523 . S
H593 C568 0.950 . S
H594 C570 0.950 . S
H595 C571 0.949 . S
H596 C573 0.950 . S
H597 C575 0.950 . S
C598 C599 1.349 . S
C598 C600 1.327 . S
C598 H623 0.950 . S
C599 C598 1.349 . S
C599 C615 1.349 . S
C600 C598 1.327 . S
C600 C619 1.429 . S
C600 H624 0.950 . S
C601 C618 1.574 . S
C601 C620 1.368 . S
C601 H625 0.949 . S
H602 C606 0.949 . S
C603 C604 1.349 . S
C603 C605 1.327 . S
C603 H626 0.950 . S
C604 C603 1.349 . S
C604 C616 1.349 . S
C605 C603 1.327 . S
C605 C621 1.429 . S
C605 H627 0.950 . S
C606 H602 0.949 . S
C606 C614 1.574 . S
C606 C622 1.368 . S
H607 C615 0.950 . S
H608 C613 0.950 . S
H609 C614 0.949 . S
H610 C616 0.950 . S
H611 C617 0.950 . S
H612 C618 0.949 . S
C613 H608 0.950 . S
C613 C615 1.327 . S
C613 C619 1.429 . S
C614 C606 1.574 . S
C614 H609 0.949 . S
C614 C620 1.368 . S
C615 C599 1.349 . S
C615 H607 0.950 . S
C615 C613 1.327 . S
C616 C604 1.349 . S
C616 H610 0.950 . S
C616 C617 1.327 . S
C617 H611 0.950 . S
C617 C616 1.327 . S
C617 C621 1.429 . S
C618 C601 1.574 . S
C618 H612 0.949 . S
C618 C622 1.368 . S
C619 C600 1.429 . S
C619 C613 1.429 . S
C619 C620 1.523 . S
C620 C601 1.368 . S
C620 C614 1.368 . S
C620 C619 1.523 . S
C621 C605 1.429 . S
C621 C617 1.429 . S
C621 C622 1.523 . S
C622 C606 1.368 . S
C622 C618 1.368 . S
C622 C621 1.523 . S
H623 C598 0.950 . S
H624 C600 0.950 . S
H625 C601 0.949 . S
H626 C603 0.950 . S
H627 C605 0.950 . S
C628 C629 1.349 . S
C628 C630 1.327 . S
C628 H653 0.950 . S
C629 C628 1.349 . S
C629 C645 1.349 . S
C630 C628 1.327 . S
C630 C649 1.429 . S
C630 H654 0.950 . S
C631 C648 1.574 . S
C631 C650 1.368 . S
C631 H655 0.949 . S
H632 C636 0.949 . S
C633 C634 1.349 . S
C633 C635 1.327 . S
C633 H656 0.950 . S
C634 C633 1.349 . S
C634 C646 1.349 . S
C635 C633 1.327 . S
C635 C651 1.429 . S
C635 H657 0.950 . S
C636 H632 0.949 . S
C636 C644 1.574 . S
C636 C652 1.368 . S
H637 C645 0.950 . S
H638 C643 0.950 . S
H639 C644 0.949 . S
H640 C646 0.950 . S
H641 C647 0.950 . S
H642 C648 0.949 . S
C643 H638 0.950 . S
C643 C645 1.327 . S
C643 C649 1.429 . S
C644 C636 1.574 . S
C644 H639 0.949 . S
C644 C650 1.368 . S
C645 C629 1.349 . S
C645 H637 0.950 . S
C645 C643 1.327 . S
C646 C634 1.349 . S
C646 H640 0.950 . S
C646 C647 1.327 . S
C647 H641 0.950 . S
C647 C646 1.327 . S
C647 C651 1.429 . S
C648 C631 1.574 . S
C648 H642 0.949 . S
C648 C652 1.368 . S
C649 C630 1.429 . S
C649 C643 1.429 . S
C649 C650 1.523 . S
C650 C631 1.368 . S
C650 C644 1.368 . S
C650 C649 1.523 . S
C651 C635 1.429 . S
C651 C647 1.429 . S
C651 C652 1.523 . S
C652 C636 1.368 . S
C652 C648 1.368 . S
C652 C651 1.523 . S
H653 C628 0.950 . S
H654 C630 0.950 . S
H655 C631 0.949 . S
H656 C633 0.950 . S
H657 C635 0.950 . S
C658 C659 1.349 . S
C658 C660 1.327 . S
C658 H683 0.950 . S
C659 C658 1.349 . S
C659 C675 1.349 . S
C660 C658 1.327 . S
C660 C679 1.429 . S
C660 H684 0.950 . S
C661 C678 1.574 . S
C661 C680 1.368 . S
C661 H685 0.949 . S
H662 C666 0.949 . S
C663 C664 1.349 . S
C663 C665 1.327 . S
C663 H686 0.950 . S
C664 C663 1.349 . S
C664 C676 1.349 . S
C665 C663 1.327 . S
C665 C681 1.429 . S
C665 H687 0.950 . S
C666 H662 0.949 . S
C666 C674 1.574 . S
C666 C682 1.368 . S
H667 C675 0.950 . S
H668 C673 0.950 . S
H669 C674 0.949 . S
H670 C676 0.950 . S
H671 C677 0.950 . S
H672 C678 0.949 . S
C673 H668 0.950 . S
C673 C675 1.327 . S
C673 C679 1.429 . S
C674 C666 1.574 . S
C674 H669 0.949 . S
C674 C680 1.368 . S
C675 C659 1.349 . S
C675 H667 0.950 . S
C675 C673 1.327 . S
C676 C664 1.349 . S
C676 H670 0.950 . S
C676 C677 1.327 . S
C677 H671 0.950 . S
C677 C676 1.327 . S
C677 C681 1.429 . S
C678 C661 1.574 . S
C678 H672 0.949 . S
C678 C682 1.368 . S
C679 C660 1.429 . S
C679 C673 1.429 . S
C679 C680 1.523 . S
C680 C661 1.368 . S
C680 C674 1.368 . S
C680 C679 1.523 . S
C681 C665 1.429 . S
C681 C677 1.429 . S
C681 C682 1.523 . S
C682 C666 1.368 . S
C682 C678 1.368 . S
C682 C681 1.523 . S
H683 C658 0.950 . S
H684 C660 0.950 . S
H685 C661 0.949 . S
H686 C663 0.950 . S
H687 C665 0.950 . S
C688 C689 1.349 . S
C688 C690 1.327 . S
C688 H713 0.950 . S
C689 C688 1.349 . S
C689 C705 1.349 . S
C690 C688 1.327 . S
C690 C709 1.429 . S
C690 H714 0.950 . S
C691 C708 1.574 . S
C691 C710 1.368 . S
C691 H715 0.949 . S
H692 C696 0.949 . S
C693 C694 1.349 . S
C693 C695 1.327 . S
C693 H716 0.950 . S
C694 C693 1.349 . S
C694 C706 1.349 . S
C695 C693 1.327 . S
C695 C711 1.429 . S
C695 H717 0.950 . S
C696 H692 0.949 . S
C696 C704 1.574 . S
C696 C712 1.368 . S
H697 C705 0.950 . S
H698 C703 0.950 . S
H699 C704 0.949 . S
H700 C706 0.950 . S
H701 C707 0.950 . S
H702 C708 0.949 . S
C703 H698 0.950 . S
C703 C705 1.327 . S
C703 C709 1.429 . S
C704 C696 1.574 . S
C704 H699 0.949 . S
C704 C710 1.368 . S
C705 C689 1.349 . S
C705 H697 0.950 . S
C705 C703 1.327 . S
C706 C694 1.349 . S
C706 H700 0.950 . S
C706 C707 1.327 . S
C707 H701 0.950 . S
C707 C706 1.327 . S
C707 C711 1.429 . S
C708 C691 1.574 . S
C708 H702 0.949 . S
C708 C712 1.368 . S
C709 C690 1.429 . S
C709 C703 1.429 . S
C709 C710 1.523 . S
C710 C691 1.368 . S
C710 C704 1.368 . S
C710 C709 1.523 . S
C711 C695 1.429 . S
C711 C707 1.429 . S
C711 C712 1.523 . S
C712 C696 1.368 . S
C712 C708 1.368 . S
C712 C711 1.523 . S
H713 C688 0.950 . S
H714 C690 0.950 . S
H715 C691 0.949 . S
H716 C693 0.950 . S
H717 C695 0.950 . S
C718 C719 1.349 . S
C718 C720 1.327 . S
C718 H743 0.950 . S
C719 C718 1.349 . S
C719 C735 1.349 . S
C720 C718 1.327 . S
C720 C739 1.429 . S
C720 H744 0.950 . S
C721 C738 1.574 . S
C721 C740 1.368 . S
C721 H745 0.949 . S
H722 C726 0.949 . S
C723 C724 1.349 . S
C723 C725 1.327 . S
C723 H746 0.950 . S
C724 C723 1.349 . S
C724 C736 1.349 . S
C725 C723 1.327 . S
C725 C741 1.429 . S
C725 H747 0.950 . S
C726 H722 0.949 . S
C726 C734 1.574 . S
C726 C742 1.368 . S
H727 C735 0.950 . S
H728 C733 0.950 . S
H729 C734 0.949 . S
H730 C736 0.950 . S
H731 C737 0.950 . S
H732 C738 0.949 . S
C733 H728 0.950 . S
C733 C735 1.327 . S
C733 C739 1.429 . S
C734 C726 1.574 . S
C734 H729 0.949 . S
C734 C740 1.368 . S
C735 C719 1.349 . S
C735 H727 0.950 . S
C735 C733 1.327 . S
C736 C724 1.349 . S
C736 H730 0.950 . S
C736 C737 1.327 . S
C737 H731 0.950 . S
C737 C736 1.327 . S
C737 C741 1.429 . S
C738 C721 1.574 . S
C738 H732 0.949 . S
C738 C742 1.368 . S
C739 C720 1.429 . S
C739 C733 1.429 . S
C739 C740 1.523 . S
C740 C721 1.368 . S
C740 C734 1.368 . S
C740 C739 1.523 . S
C741 C725 1.429 . S
C741 C737 1.429 . S
C741 C742 1.523 . S
C742 C726 1.368 . S
C742 C738 1.368 . S
C742 C741 1.523 . S
H743 C718 0.950 . S
H744 C720 0.950 . S
H745 C721 0.949 . S
H746 C723 0.950 . S
H747 C725 0.950 . S
C748 C749 1.349 . S
C748 C750 1.327 . S
C748 H773 0.950 . S
C749 C748 1.349 . S
C749 C765 1.349 . S
C750 C748 1.327 . S
C750 C769 1.429 . S
C750 H774 0.950 . S
C751 C768 1.574 . S
C751 C770 1.368 . S
C751 H775 0.949 . S
H752 C756 0.949 . S
C753 C754 1.349 . S
C753 C755 1.327 . S
C753 H776 0.950 . S
C754 C753 1.349 . S
C754 C766 1.349 . S
C755 C753 1.327 . S
C755 C771 1.429 . S
C755 H777 0.950 . S
C756 H752 0.949 . S
C756 C764 1.574 . S
C756 C772 1.368 . S
H757 C765 0.950 . S
H758 C763 0.950 . S
H759 C764 0.949 . S
H760 C766 0.950 . S
H761 C767 0.950 . S
H762 C768 0.949 . S
C763 H758 0.950 . S
C763 C765 1.327 . S
C763 C769 1.429 . S
C764 C756 1.574 . S
C764 H759 0.949 . S
C764 C770 1.368 . S
C765 C749 1.349 . S
C765 H757 0.950 . S
C765 C763 1.327 . S
C766 C754 1.349 . S
C766 H760 0.950 . S
C766 C767 1.327 . S
C767 H761 0.950 . S
C767 C766 1.327 . S
C767 C771 1.429 . S
C768 C751 1.574 . S
C768 H762 0.949 . S
C768 C772 1.368 . S
C769 C750 1.429 . S
C769 C763 1.429 . S
C769 C770 1.523 . S
C770 C751 1.368 . S
C770 C764 1.368 . S
C770 C769 1.523 . S
C771 C755 1.429 . S
C771 C767 1.429 . S
C771 C772 1.523 . S
C772 C756 1.368 . S
C772 C768 1.368 . S
C772 C771 1.523 . S
H773 C748 0.950 . S
H774 C750 0.950 . S
H775 C751 0.949 . S
H776 C753 0.950 . S
H777 C755 0.950 . S
C778 C779 1.349 . S
C778 C780 1.327 . S
C778 H803 0.950 . S
C779 C778 1.349 . S
C779 C795 1.349 . S
C780 C778 1.327 . S
C780 C799 1.429 . S
C780 H804 0.950 . S
C781 C798 1.574 . S
C781 C800 1.368 . S
C781 H805 0.949 . S
H782 C786 0.949 . S
C783 C784 1.349 . S
C783 C785 1.327 . S
C783 H806 0.950 . S
C784 C783 1.349 . S
C784 C796 1.349 . S
C785 C783 1.327 . S
C785 C801 1.429 . S
C785 H807 0.950 . S
C786 H782 0.949 . S
C786 C794 1.574 . S
C786 C802 1.368 . S
H787 C795 0.950 . S
H788 C793 0.950 . S
H789 C794 0.949 . S
H790 C796 0.950 . S
H791 C797 0.950 . S
H792 C798 0.949 . S
C793 H788 0.950 . S
C793 C795 1.327 . S
C793 C799 1.429 . S
C794 C786 1.574 . S
C794 H789 0.949 . S
C794 C800 1.368 . S
C795 C779 1.349 . S
C795 H787 0.950 . S
C795 C793 1.327 . S
C796 C784 1.349 . S
C796 H790 0.950 . S
C796 C797 1.327 . S
C797 H791 0.950 . S
C797 C796 1.327 . S
C797 C801 1.429 . S
C798 C781 1.574 . S
C798 H792 0.949 . S
C798 C802 1.368 . S
C799 C780 1.429 . S
C799 C793 1.429 . S
C799 C800 1.523 . S
C800 C781 1.368 . S
C800 C794 1.368 . S
C800 C799 1.523 . S
C801 C785 1.429 . S
C801 C797 1.429 . S
C801 C802 1.523 . S
C802 C786 1.368 . S
C802 C798 1.368 . S
C802 C801 1.523 . S
H803 C778 0.950 . S
H804 C780 0.950 . S
H805 C781 0.949 . S
H806 C783 0.950 . S
H807 C785 0.950 . S
C808 C809 1.349 . S
C808 C810 1.327 . S
C808 H833 0.950 . S
C809 C808 1.349 . S
C809 C825 1.349 . S
C810 C808 1.327 . S
C810 C829 1.429 . S
C810 H834 0.950 . S
C811 C828 1.574 . S
C811 C830 1.368 . S
C811 H835 0.949 . S
H812 C816 0.949 . S
C813 C814 1.349 . S
C813 C815 1.327 . S
C813 H836 0.950 . S
C814 C813 1.349 . S
C814 C826 1.349 . S
C815 C813 1.327 . S
C815 C831 1.429 . S
C815 H837 0.950 . S
C816 H812 0.949 . S
C816 C824 1.574 . S
C816 C832 1.368 . S
H817 C825 0.950 . S
H818 C823 0.950 . S
H819 C824 0.949 . S
H820 C826 0.950 . S
H821 C827 0.950 . S
H822 C828 0.949 . S
C823 H818 0.950 . S
C823 C825 1.327 . S
C823 C829 1.429 . S
C824 C816 1.574 . S
C824 H819 0.949 . S
C824 C830 1.368 . S
C825 C809 1.349 . S
C825 H817 0.950 . S
C825 C823 1.327 . S
C826 C814 1.349 . S
C826 H820 0.950 . S
C826 C827 1.327 . S
C827 H821 0.950 . S
C827 C826 1.327 . S
C827 C831 1.429 . S
C828 C811 1.574 . S
C828 H822 0.949 . S
C828 C832 1.368 . S
C829 C810 1.429 . S
C829 C823 1.429 . S
C829 C830 1.523 . S
C830 C811 1.368 . S
C830 C824 1.368 . S
C830 C829 1.523 . S
C831 C815 1.429 . S
C831 C827 1.429 . S
C831 C832 1.523 . S
C832 C816 1.368 . S
C832 C828 1.368 . S
C832 C831 1.523 . S
H833 C808 0.950 . S
H834 C810 0.950 . S
H835 C811 0.949 . S
H836 C813 0.950 . S
H837 C815 0.950 . S
C838 C839 1.349 . S
C838 C840 1.327 . S
C838 H863 0.950 . S
C839 C838 1.349 . S
C839 C855 1.349 . S
C840 C838 1.327 . S
C840 C859 1.429 . S
C840 H864 0.950 . S
C841 C858 1.574 . S
C841 C860 1.368 . S
C841 H865 0.949 . S
H842 C846 0.949 . S
C843 C844 1.349 . S
C843 C845 1.327 . S
C843 H866 0.950 . S
C844 C843 1.349 . S
C844 C856 1.349 . S
C845 C843 1.327 . S
C845 C861 1.429 . S
C845 H867 0.950 . S
C846 H842 0.949 . S
C846 C854 1.574 . S
C846 C862 1.368 . S
H847 C855 0.950 . S
H848 C853 0.950 . S
H849 C854 0.949 . S
H850 C856 0.950 . S
H851 C857 0.950 . S
H852 C858 0.949 . S
C853 H848 0.950 . S
C853 C855 1.327 . S
C853 C859 1.429 . S
C854 C846 1.574 . S
C854 H849 0.949 . S
C854 C860 1.368 . S
C855 C839 1.349 . S
C855 H847 0.950 . S
C855 C853 1.327 . S
C856 C844 1.349 . S
C856 H850 0.950 . S
C856 C857 1.327 . S
C857 H851 0.950 . S
C857 C856 1.327 . S
C857 C861 1.429 . S
C858 C841 1.574 . S
C858 H852 0.949 . S
C858 C862 1.368 . S
C859 C840 1.429 . S
C859 C853 1.429 . S
C859 C860 1.523 . S
C860 C841 1.368 . S
C860 C854 1.368 . S
C860 C859 1.523 . S
C861 C845 1.429 . S
C861 C857 1.429 . S
C861 C862 1.523 . S
C862 C846 1.368 . S
C862 C858 1.368 . S
C862 C861 1.523 . S
H863 C838 0.950 . S
H864 C840 0.950 . S
H865 C841 0.949 . S
H866 C843 0.950 . S
H867 C845 0.950 . S
C868 C869 1.349 . S
C868 C870 1.327 . S
C868 H893 0.950 . S
C869 C868 1.349 . S
C869 C885 1.349 . S
C870 C868 1.327 . S
C870 C889 1.429 . S
C870 H894 0.950 . S
C871 C888 1.574 . S
C871 C890 1.368 . S
C871 H895 0.949 . S
H872 C876 0.949 . S
C873 C874 1.349 . S
C873 C875 1.327 . S
C873 H896 0.950 . S
C874 C873 1.349 . S
C874 C886 1.349 . S
C875 C873 1.327 . S
C875 C891 1.429 . S
C875 H897 0.950 . S
C876 H872 0.949 . S
C876 C884 1.574 . S
C876 C892 1.368 . S
H877 C885 0.950 . S
H878 C883 0.950 . S
H879 C884 0.949 . S
H880 C886 0.950 . S
H881 C887 0.950 . S
H882 C888 0.949 . S
C883 H878 0.950 . S
C883 C885 1.327 . S
C883 C889 1.429 . S
C884 C876 1.574 . S
C884 H879 0.949 . S
C884 C890 1.368 . S
C885 C869 1.349 . S
C885 H877 0.950 . S
C885 C883 1.327 . S
C886 C874 1.349 . S
C886 H880 0.950 . S
C886 C887 1.327 . S
C887 H881 0.950 . S
C887 C886 1.327 . S
C887 C891 1.429 . S
C888 C871 1.574 . S
C888 H882 0.949 . S
C888 C892 1.368 . S
C889 C870 1.429 . S
C889 C883 1.429 . S
C889 C890 1.523 . S
C890 C871 1.368 . S
C890 C884 1.368 . S
C890 C889 1.523 . S
C891 C875 1.429 . S
C891 C887 1.429 . S
C891 C892 1.523 . S
C892 C876 1.368 . S
C892 C888 1.368 . S
C892 C891 1.523 . S
H893 C868 0.950 . S
H894 C870 0.950 . S
H895 C871 0.949 . S
H896 C873 0.950 . S
H897 C875 0.950 . S
C898 C899 1.349 . S
C898 C900 1.327 . S
C898 H923 0.950 . S
C899 C898 1.349 . S
C899 C915 1.349 . S
C900 C898 1.327 . S
C900 C919 1.429 . S
C900 H924 0.950 . S
C901 C918 1.574 . S
C901 C920 1.368 . S
C901 H925 0.949 . S
H902 C906 0.949 . S
C903 C904 1.349 . S
C903 C905 1.327 . S
C903 H926 0.950 . S
C904 C903 1.349 . S
C904 C916 1.349 . S
C905 C903 1.327 . S
C905 C921 1.429 . S
C905 H927 0.950 . S
C906 H902 0.949 . S
C906 C914 1.574 . S
C906 C922 1.368 . S
H907 C915 0.950 . S
H908 C913 0.950 . S
H909 C914 0.949 . S
H910 C916 0.950 . S
H911 C917 0.950 . S
H912 C918 0.949 . S
C913 H908 0.950 . S
C913 C915 1.327 . S
C913 C919 1.429 . S
C914 C906 1.574 . S
C914 H909 0.949 . S
C914 C920 1.368 . S
C915 C899 1.349 . S
C915 H907 0.950 . S
C915 C913 1.327 . S
C916 C904 1.349 . S
C916 H910 0.950 . S
C916 C917 1.327 . S
C917 H911 0.950 . S
C917 C916 1.327 . S
C917 C921 1.429 . S
C918 C901 1.574 . S
C918 H912 0.949 . S
C918 C922 1.368 . S
C919 C900 1.429 . S
C919 C913 1.429 . S
C919 C920 1.523 . S
C920 C901 1.368 . S
C920 C914 1.368 . S
C920 C919 1.523 . S
C921 C905 1.429 . S
C921 C917 1.429 . S
C921 C922 1.523 . S
C922 C906 1.368 . S
C922 C918 1.368 . S
C922 C921 1.523 . S
H923 C898 0.950 . S
H924 C900 0.950 . S
H925 C901 0.949 . S
H926 C903 0.950 . S
H927 C905 0.950 . S
C928 C929 1.349 . S
C928 C930 1.327 . S
C928 H953 0.950 . S
C929 C928 1.349 . S
C929 C945 1.349 . S
C930 C928 1.327 . S
C930 C949 1.429 . S
C930 H954 0.950 . S
C931 C948 1.574 . S
C931 C950 1.368 . S
C931 H955 0.949 . S
H932 C936 0.949 . S
C933 C934 1.349 . S
C933 C935 1.327 . S
C933 H956 0.950 . S
C934 C933 1.349 . S
C934 C946 1.349 . S
C935 C933 1.327 . S
C935 C951 1.429 . S
C935 H957 0.950 . S
C936 H932 0.949 . S
C936 C944 1.574 . S
C936 C952 1.368 . S
H937 C945 0.950 . S
H938 C943 0.950 . S
H939 C944 0.949 . S
H940 C946 0.950 . S
H941 C947 0.950 . S
H942 C948 0.949 . S
C943 H938 0.950 . S
C943 C945 1.327 . S
C943 C949 1.429 . S
C944 C936 1.574 . S
C944 H939 0.949 . S
C944 C950 1.368 . S
C945 C929 1.349 . S
C945 H937 0.950 . S
C945 C943 1.327 . S
C946 C934 1.349 . S
C946 H940 0.950 . S
C946 C947 1.327 . S
C947 H941 0.950 . S
C947 C946 1.327 . S
C947 C951 1.429 . S
C948 C931 1.574 . S
C948 H942 0.949 . S
C948 C952 1.368 . S
C949 C930 1.429 . S
C949 C943 1.429 . S
C949 C950 1.523 . S
C950 C931 1.368 . S
C950 C944 1.368 . S
C950 C949 1.523 . S
C951 C935 1.429 . S
C951 C947 1.429 . S
C951 C952 1.523 . S
C952 C936 1.368 . S
C952 C948 1.368 . S
C952 C951 1.523 . S
H953 C928 0.950 . S
H954 C930 0.950 . S
H955 C931 0.949 . S
H956 C933 0.950 . S
H957 C935 0.950 . S
C958 C959 1.349 . S
C958 C960 1.327 . S
C958 H983 0.950 . S
C959 C958 1.349 . S
C959 C975 1.349 . S
C960 C958 1.327 . S
C960 C979 1.429 . S
C960 H984 0.950 . S
C961 C978 1.574 . S
C961 C980 1.368 . S
C961 H985 0.949 . S
H962 C966 0.949 . S
C963 C964 1.349 . S
C963 C965 1.327 . S
C963 H986 0.950 1_655 S
C964 C963 1.349 . S
C964 C976 1.349 . S
C965 C963 1.327 . S
C965 C981 1.429 . S
C965 H987 0.950 . S
C966 H962 0.949 . S
C966 C974 1.574 . S
C966 C982 1.368 . S
H967 C975 0.950 . S
H968 C973 0.950 . S
H969 C974 0.949 . S
H970 C976 0.950 . S
H971 C977 0.950 . S
H972 C978 0.949 . S
C973 H968 0.950 . S
C973 C975 1.327 . S
C973 C979 1.429 . S
C974 C966 1.574 . S
C974 H969 0.949 . S
C974 C980 1.368 . S
C975 C959 1.349 . S
C975 H967 0.950 . S
C975 C973 1.327 . S
C976 C964 1.349 . S
C976 H970 0.950 . S
C976 C977 1.327 . S
C977 H971 0.950 . S
C977 C976 1.327 . S
C977 C981 1.429 . S
C978 C961 1.574 . S
C978 H972 0.949 . S
C978 C982 1.368 . S
C979 C960 1.429 . S
C979 C973 1.429 . S
C979 C980 1.523 . S
C980 C961 1.368 . S
C980 C974 1.368 . S
C980 C979 1.523 . S
C981 C965 1.429 . S
C981 C977 1.429 . S
C981 C982 1.523 . S
C982 C966 1.368 . S
C982 C978 1.368 . S
C982 C981 1.523 . S
H983 C958 0.950 . S
H984 C960 0.950 . S
H985 C961 0.949 . S
H986 C963 0.950 1_455 S
H987 C965 0.950 . S
C988 C989 1.349 . S
C988 C990 1.327 . S
C988 H1013 0.950 . S
C989 C988 1.349 . S
C989 C1005 1.349 . S
C990 C988 1.327 . S
C990 C1009 1.429 . S
C990 H1014 0.950 . S
C991 C1008 1.574 . S
C991 C1010 1.368 . S
C991 H1015 0.949 . S
H992 C996 0.949 . S
C993 C994 1.349 . S
C993 C995 1.327 . S
C993 H1016 0.950 . S
C994 C993 1.349 . S
C994 C1006 1.349 . S
C995 C993 1.327 . S
C995 C1011 1.429 . S
C995 H1017 0.950 . S
C996 H992 0.949 . S
C996 C1004 1.574 . S
C996 C1012 1.368 . S
H997 C1005 0.950 . S
H998 C1003 0.950 . S
H999 C1004 0.949 . S
H1000 C1006 0.950 . S
H1001 C1007 0.950 . S
H1002 C1008 0.949 . S
C1003 H998 0.950 . S
C1003 C1005 1.327 . S
C1003 C1009 1.429 . S
C1004 C996 1.574 . S
C1004 H999 0.949 . S
C1004 C1010 1.368 . S
C1005 C989 1.349 . S
C1005 H997 0.950 . S
C1005 C1003 1.327 . S
C1006 C994 1.349 . S
C1006 H1000 0.950 . S
C1006 C1007 1.327 . S
C1007 H1001 0.950 . S
C1007 C1006 1.327 . S
C1007 C1011 1.429 . S
C1008 C991 1.574 . S
C1008 H1002 0.949 . S
C1008 C1012 1.368 . S
C1009 C990 1.429 . S
C1009 C1003 1.429 . S
C1009 C1010 1.523 . S
C1010 C991 1.368 . S
C1010 C1004 1.368 . S
C1010 C1009 1.523 . S
C1011 C995 1.429 . S
C1011 C1007 1.429 . S
C1011 C1012 1.523 . S
C1012 C996 1.368 . S
C1012 C1008 1.368 . S
C1012 C1011 1.523 . S
H1013 C988 0.950 . S
H1014 C990 0.950 . S
H1015 C991 0.949 . S
H1016 C993 0.950 . S
H1017 C995 0.950 . S
C1018 C1019 1.349 . S
C1018 C1020 1.327 . S
C1018 H1043 0.950 . S
C1019 C1018 1.349 . S
C1019 C1035 1.349 . S
C1020 C1018 1.327 . S
C1020 C1039 1.429 . S
C1020 H1044 0.950 . S
C1021 C1038 1.574 . S
C1021 C1040 1.368 . S
C1021 H1045 0.949 . S
H1022 C1026 0.949 . S
C1023 C1024 1.349 . S
C1023 C1025 1.327 . S
C1023 H1046 0.950 . S
C1024 C1023 1.349 . S
C1024 C1036 1.349 . S
C1025 C1023 1.327 . S
C1025 C1041 1.429 . S
C1025 H1047 0.950 . S
C1026 H1022 0.949 . S
C1026 C1034 1.574 . S
C1026 C1042 1.368 . S
H1027 C1035 0.950 . S
H1028 C1033 0.950 . S
H1029 C1034 0.949 . S
H1030 C1036 0.950 . S
H1031 C1037 0.950 . S
H1032 C1038 0.949 . S
C1033 H1028 0.950 . S
C1033 C1035 1.327 . S
C1033 C1039 1.429 . S
C1034 C1026 1.574 . S
C1034 H1029 0.949 . S
C1034 C1040 1.368 . S
C1035 C1019 1.349 . S
C1035 H1027 0.950 . S
C1035 C1033 1.327 . S
C1036 C1024 1.349 . S
C1036 H1030 0.950 . S
C1036 C1037 1.327 . S
C1037 H1031 0.950 . S
C1037 C1036 1.327 . S
C1037 C1041 1.429 . S
C1038 C1021 1.574 . S
C1038 H1032 0.949 . S
C1038 C1042 1.368 . S
C1039 C1020 1.429 . S
C1039 C1033 1.429 . S
C1039 C1040 1.523 . S
C1040 C1021 1.368 . S
C1040 C1034 1.368 . S
C1040 C1039 1.523 . S
C1041 C1025 1.429 . S
C1041 C1037 1.429 . S
C1041 C1042 1.523 . S
C1042 C1026 1.368 . S
C1042 C1038 1.368 . S
C1042 C1041 1.523 . S
H1043 C1018 0.950 . S
H1044 C1020 0.950 . S
H1045 C1021 0.949 . S
H1046 C1023 0.950 . S
H1047 C1025 0.950 . S
C1048 C1049 1.349 . S
C1048 C1050 1.327 . S
C1048 H1073 0.950 . S
C1049 C1048 1.349 . S
C1049 C1065 1.349 . S
C1050 C1048 1.327 . S
C1050 C1069 1.429 . S
C1050 H1074 0.950 . S
C1051 C1068 1.574 . S
C1051 C1070 1.368 . S
C1051 H1075 0.949 . S
H1052 C1056 0.949 . S
C1053 C1054 1.349 . S
C1053 C1055 1.327 . S
C1053 H1076 0.950 . S
C1054 C1053 1.349 . S
C1054 C1066 1.349 . S
C1055 C1053 1.327 . S
C1055 C1071 1.429 . S
C1055 H1077 0.950 . S
C1056 H1052 0.949 . S
C1056 C1064 1.574 . S
C1056 C1072 1.368 . S
H1057 C1065 0.950 . S
H1058 C1063 0.950 . S
H1059 C1064 0.949 . S
H1060 C1066 0.950 . S
H1061 C1067 0.950 . S
H1062 C1068 0.949 . S
C1063 H1058 0.950 . S
C1063 C1065 1.327 . S
C1063 C1069 1.429 . S
C1064 C1056 1.574 . S
C1064 H1059 0.949 . S
C1064 C1070 1.368 . S
C1065 C1049 1.349 . S
C1065 H1057 0.950 . S
C1065 C1063 1.327 . S
C1066 C1054 1.349 . S
C1066 H1060 0.950 . S
C1066 C1067 1.327 . S
C1067 H1061 0.950 . S
C1067 C1066 1.327 . S
C1067 C1071 1.429 . S
C1068 C1051 1.574 . S
C1068 H1062 0.949 . S
C1068 C1072 1.368 . S
C1069 C1050 1.429 . S
C1069 C1063 1.429 . S
C1069 C1070 1.523 . S
C1070 C1051 1.368 . S
C1070 C1064 1.368 . S
C1070 C1069 1.523 . S
C1071 C1055 1.429 . S
C1071 C1067 1.429 . S
C1071 C1072 1.523 . S
C1072 C1056 1.368 . S
C1072 C1068 1.368 . S
C1072 C1071 1.523 . S
H1073 C1048 0.950 . S
H1074 C1050 0.950 . S
H1075 C1051 0.949 . S
H1076 C1053 0.950 . S
H1077 C1055 0.950 . S
C1078 C1079 1.349 . S
C1078 C1080 1.327 . S
C1078 H1103 0.950 . S
C1079 C1078 1.349 . S
C1079 C1095 1.349 . S
C1080 C1078 1.327 . S
C1080 C1099 1.429 . S
C1080 H1104 0.950 . S
C1081 C1098 1.574 . S
C1081 C1100 1.368 . S
C1081 H1105 0.949 . S
H1082 C1086 0.949 . S
C1083 C1084 1.349 . S
C1083 C1085 1.327 . S
C1083 H1106 0.950 . S
C1084 C1083 1.349 . S
C1084 C1096 1.349 . S
C1085 C1083 1.327 . S
C1085 C1101 1.429 . S
C1085 H1107 0.950 . S
C1086 H1082 0.949 . S
C1086 C1094 1.574 . S
C1086 C1102 1.368 . S
H1087 C1095 0.950 . S
H1088 C1093 0.950 . S
H1089 C1094 0.949 . S
H1090 C1096 0.950 . S
H1091 C1097 0.950 . S
H1092 C1098 0.949 . S
C1093 H1088 0.950 . S
C1093 C1095 1.327 . S
C1093 C1099 1.429 . S
C1094 C1086 1.574 . S
C1094 H1089 0.949 . S
C1094 C1100 1.368 . S
C1095 C1079 1.349 . S
C1095 H1087 0.950 . S
C1095 C1093 1.327 . S
C1096 C1084 1.349 . S
C1096 H1090 0.950 . S
C1096 C1097 1.327 . S
C1097 H1091 0.950 . S
C1097 C1096 1.327 . S
C1097 C1101 1.429 . S
C1098 C1081 1.574 . S
C1098 H1092 0.949 . S
C1098 C1102 1.368 . S
C1099 C1080 1.429 . S
C1099 C1093 1.429 . S
C1099 C1100 1.523 . S
C1100 C1081 1.368 . S
C1100 C1094 1.368 . S
C1100 C1099 1.523 . S
C1101 C1085 1.429 . S
C1101 C1097 1.429 . S
C1101 C1102 1.523 . S
C1102 C1086 1.368 . S
C1102 C1098 1.368 . S
C1102 C1101 1.523 . S
H1103 C1078 0.950 . S
H1104 C1080 0.950 . S
H1105 C1081 0.949 . S
H1106 C1083 0.950 . S
H1107 C1085 0.950 . S
C1108 C1109 1.349 . S
C1108 C1110 1.327 . S
C1108 H1133 0.950 . S
C1109 C1108 1.349 . S
C1109 C1125 1.349 . S
C1110 C1108 1.327 . S
C1110 C1129 1.429 . S
C1110 H1134 0.950 . S
C1111 C1128 1.574 . S
C1111 C1130 1.368 . S
C1111 H1135 0.949 . S
H1112 C1116 0.949 . S
C1113 C1114 1.349 . S
C1113 C1115 1.327 . S
C1113 H1136 0.950 . S
C1114 C1113 1.349 . S
C1114 C1126 1.349 . S
C1115 C1113 1.327 . S
C1115 C1131 1.429 . S
C1115 H1137 0.950 . S
C1116 H1112 0.949 . S
C1116 C1124 1.574 . S
C1116 C1132 1.368 . S
H1117 C1125 0.950 . S
H1118 C1123 0.950 . S
H1119 C1124 0.949 . S
H1120 C1126 0.950 . S
H1121 C1127 0.950 . S
H1122 C1128 0.949 . S
C1123 H1118 0.950 . S
C1123 C1125 1.327 . S
C1123 C1129 1.429 . S
C1124 C1116 1.574 . S
C1124 H1119 0.949 . S
C1124 C1130 1.368 . S
C1125 C1109 1.349 . S
C1125 H1117 0.950 . S
C1125 C1123 1.327 . S
C1126 C1114 1.349 . S
C1126 H1120 0.950 . S
C1126 C1127 1.327 . S
C1127 H1121 0.950 . S
C1127 C1126 1.327 . S
C1127 C1131 1.429 . S
C1128 C1111 1.574 . S
C1128 H1122 0.949 . S
C1128 C1132 1.368 . S
C1129 C1110 1.429 . S
C1129 C1123 1.429 . S
C1129 C1130 1.523 . S
C1130 C1111 1.368 . S
C1130 C1124 1.368 . S
C1130 C1129 1.523 . S
C1131 C1115 1.429 . S
C1131 C1127 1.429 . S
C1131 C1132 1.523 . S
C1132 C1116 1.368 . S
C1132 C1128 1.368 . S
C1132 C1131 1.523 . S
H1133 C1108 0.950 . S
H1134 C1110 0.950 . S
H1135 C1111 0.949 . S
H1136 C1113 0.950 . S
H1137 C1115 0.950 . S
C1138 C1139 1.349 . S
C1138 C1140 1.327 . S
C1138 H1163 0.950 . S
C1139 C1138 1.349 . S
C1139 C1155 1.349 . S
C1140 C1138 1.327 . S
C1140 C1159 1.429 . S
C1140 H1164 0.950 . S
C1141 C1158 1.574 . S
C1141 C1160 1.368 . S
C1141 H1165 0.949 . S
H1142 C1146 0.949 . S
C1143 C1144 1.349 . S
C1143 C1145 1.327 . S
C1143 H1166 0.950 . S
C1144 C1143 1.349 . S
C1144 C1156 1.349 . S
C1145 C1143 1.327 . S
C1145 C1161 1.429 . S
C1145 H1167 0.950 . S
C1146 H1142 0.949 . S
C1146 C1154 1.574 . S
C1146 C1162 1.368 . S
H1147 C1155 0.950 . S
H1148 C1153 0.950 . S
H1149 C1154 0.949 . S
H1150 C1156 0.950 . S
H1151 C1157 0.950 . S
H1152 C1158 0.949 . S
C1153 H1148 0.950 . S
C1153 C1155 1.327 . S
C1153 C1159 1.429 . S
C1154 C1146 1.574 . S
C1154 H1149 0.949 . S
C1154 C1160 1.368 . S
C1155 C1139 1.349 . S
C1155 H1147 0.950 . S
C1155 C1153 1.327 . S
C1156 C1144 1.349 . S
C1156 H1150 0.950 . S
C1156 C1157 1.327 . S
C1157 H1151 0.950 . S
C1157 C1156 1.327 . S
C1157 C1161 1.429 . S
C1158 C1141 1.574 . S
C1158 H1152 0.949 . S
C1158 C1162 1.368 . S
C1159 C1140 1.429 . S
C1159 C1153 1.429 . S
C1159 C1160 1.523 . S
C1160 C1141 1.368 . S
C1160 C1154 1.368 . S
C1160 C1159 1.523 . S
C1161 C1145 1.429 . S
C1161 C1157 1.429 . S
C1161 C1162 1.523 . S
C1162 C1146 1.368 . S
C1162 C1158 1.368 . S
C1162 C1161 1.523 . S
H1163 C1138 0.950 . S
H1164 C1140 0.950 . S
H1165 C1141 0.949 . S
H1166 C1143 0.950 . S
H1167 C1145 0.950 . S
C449 C1 1.322 . S
C454 C303 1.313 . S
C479 C67 1.260 . S
C484 C343 1.260 . S
C514 C377 2.142 . S
C509 C97 2.165 . S
C539 C133 2.646 . S
C544 C418 2.610 . S
C574 C338 1.421 . S
C569 C25 1.417 . S
C604 C298 2.178 . S
C599 C37 2.132 . S
C634 C426 1.452 . S
C629 C103 1.466 . S
C664 C387 1.763 . S
C659 C109 1.803 . S
C689 C31 1.208 . S
C694 C423 1.206 . S
C724 C346 1.909 . S
C719 C73 1.962 . S
C749 C139 2.473 . S
C754 C306 2.423 . S
C779 C61 1.553 . S
C784 C374 1.578 . S
C814 C294 1.316 . S
C809 C175 1.296 . S
C839 C181 1.233 . S
C844 C334 1.240 . S
C869 C247 2.174 . S
C874 C386 2.164 . S
C899 C277 2.631 . S
C904 C427 2.601 . S
C929 C145 1.374 . S
C934 C347 1.407 . S
C964 C307 2.185 . S
C959 C211 2.135 . S
C994 C417 1.439 . S
C989 C217 1.437 . S
C1024 C378 1.787 . S
C1019 C283 1.813 . S
C1049 C169 1.164 . S
C1054 C414 1.200 . S
C1084 C337 1.921 . S
C1079 C241 1.959 . S
C1114 C297 2.406 . S
C1109 C253 2.473 . S
C1139 C205 1.570 . S
C1144 C383 1.584 . S
