# Generated by pormake.
# Topology eea, (3,6)-cn, num edge types: 1
# Building blocks:
#     Node 0, Type 0, BuildingBlock: BELTOD_clean_linker_0, # of connection points: 3
#     Node 1, Type 0, BuildingBlock: BELTOD_clean_linker_0, # of connection points: 3
#     Node 2, Type 0, BuildingBlock: BELTOD_clean_linker_0, # of connection points: 3
#     Node 3, Type 0, BuildingBlock: BELTOD_clean_linker_0, # of connection points: 3
#     Node 4, Type 0, BuildingBlock: BELTOD_clean_linker_0, # of connection points: 3
#     Node 5, Type 0, BuildingBlock: BELTOD_clean_linker_0, # of connection points: 3
#     Node 6, Type 0, BuildingBlock: BELTOD_clean_linker_0, # of connection points: 3
#     Node 7, Type 0, BuildingBlock: BELTOD_clean_linker_0, # of connection points: 3
#     Node 8, Type 0, BuildingBlock: BELTOD_clean_linker_0, # of connection points: 3
#     Node 9, Type 0, BuildingBlock: BELTOD_clean_linker_0, # of connection points: 3
#     Node 10, Type 0, BuildingBlock: BELTOD_clean_linker_0, # of connection points: 3
#     Node 11, Type 0, BuildingBlock: BELTOD_clean_linker_0, # of connection points: 3
#     Node 12, Type 0, BuildingBlock: BELTOD_clean_linker_0, # of connection points: 3
#     Node 13, Type 0, BuildingBlock: BELTOD_clean_linker_0, # of connection points: 3
#     Node 14, Type 0, BuildingBlock: BELTOD_clean_linker_0, # of connection points: 3
#     Node 15, Type 0, BuildingBlock: BELTOD_clean_linker_0, # of connection points: 3
#     Node 16, Type 0, BuildingBlock: BELTOD_clean_linker_0, # of connection points: 3
#     Node 17, Type 0, BuildingBlock: BELTOD_clean_linker_0, # of connection points: 3
#     Node 18, Type 1, BuildingBlock: HISSIN_clean_sbu_0, # of connection points: 6
#     Node 19, Type 1, BuildingBlock: HISSIN_clean_sbu_0, # of connection points: 6
#     Node 20, Type 1, BuildingBlock: HISSIN_clean_sbu_0, # of connection points: 6
#     Node 21, Type 1, BuildingBlock: HISSIN_clean_sbu_0, # of connection points: 6
#     Node 22, Type 1, BuildingBlock: HISSIN_clean_sbu_0, # of connection points: 6
#     Node 23, Type 1, BuildingBlock: HISSIN_clean_sbu_0, # of connection points: 6
#     Node 24, Type 1, BuildingBlock: HISSIN_clean_sbu_0, # of connection points: 6
#     Node 25, Type 1, BuildingBlock: HISSIN_clean_sbu_0, # of connection points: 6
#     Node 26, Type 1, BuildingBlock: HISSIN_clean_sbu_0, # of connection points: 6
#     Edge 27, Type (0, 1), BuildingBlock: OJICUG_clean_linker_0, # of connection points: 2
#     Edge 28, Type (0, 1), BuildingBlock: OJICUG_clean_linker_0, # of connection points: 2
#     Edge 29, Type (0, 1), BuildingBlock: OJICUG_clean_linker_0, # of connection points: 2
#     Edge 30, Type (0, 1), BuildingBlock: OJICUG_clean_linker_0, # of connection points: 2
#     Edge 31, Type (0, 1), BuildingBlock: OJICUG_clean_linker_0, # of connection points: 2
#     Edge 32, Type (0, 1), BuildingBlock: OJICUG_clean_linker_0, # of connection points: 2
#     Edge 33, Type (0, 1), BuildingBlock: OJICUG_clean_linker_0, # of connection points: 2
#     Edge 34, Type (0, 1), BuildingBlock: OJICUG_clean_linker_0, # of connection points: 2
#     Edge 35, Type (0, 1), BuildingBlock: OJICUG_clean_linker_0, # of connection points: 2
#     Edge 36, Type (0, 1), BuildingBlock: OJICUG_clean_linker_0, # of connection points: 2
#     Edge 37, Type (0, 1), BuildingBlock: OJICUG_clean_linker_0, # of connection points: 2
#     Edge 38, Type (0, 1), BuildingBlock: OJICUG_clean_linker_0, # of connection points: 2
#     Edge 39, Type (0, 1), BuildingBlock: OJICUG_clean_linker_0, # of connection points: 2
#     Edge 40, Type (0, 1), BuildingBlock: OJICUG_clean_linker_0, # of connection points: 2
#     Edge 41, Type (0, 1), BuildingBlock: OJICUG_clean_linker_0, # of connection points: 2
#     Edge 42, Type (0, 1), BuildingBlock: OJICUG_clean_linker_0, # of connection points: 2
#     Edge 43, Type (0, 1), BuildingBlock: OJICUG_clean_linker_0, # of connection points: 2
#     Edge 44, Type (0, 1), BuildingBlock: OJICUG_clean_linker_0, # of connection points: 2
#     Edge 45, Type (0, 1), BuildingBlock: OJICUG_clean_linker_0, # of connection points: 2
#     Edge 46, Type (0, 1), BuildingBlock: OJICUG_clean_linker_0, # of connection points: 2
#     Edge 47, Type (0, 1), BuildingBlock: OJICUG_clean_linker_0, # of connection points: 2
#     Edge 48, Type (0, 1), BuildingBlock: OJICUG_clean_linker_0, # of connection points: 2
#     Edge 49, Type (0, 1), BuildingBlock: OJICUG_clean_linker_0, # of connection points: 2
#     Edge 50, Type (0, 1), BuildingBlock: OJICUG_clean_linker_0, # of connection points: 2
#     Edge 51, Type (0, 1), BuildingBlock: OJICUG_clean_linker_0, # of connection points: 2
#     Edge 52, Type (0, 1), BuildingBlock: OJICUG_clean_linker_0, # of connection points: 2
#     Edge 53, Type (0, 1), BuildingBlock: OJICUG_clean_linker_0, # of connection points: 2
#     Edge 54, Type (0, 1), BuildingBlock: OJICUG_clean_linker_0, # of connection points: 2
#     Edge 55, Type (0, 1), BuildingBlock: OJICUG_clean_linker_0, # of connection points: 2
#     Edge 56, Type (0, 1), BuildingBlock: OJICUG_clean_linker_0, # of connection points: 2
#     Edge 57, Type (0, 1), BuildingBlock: OJICUG_clean_linker_0, # of connection points: 2
#     Edge 58, Type (0, 1), BuildingBlock: OJICUG_clean_linker_0, # of connection points: 2
#     Edge 59, Type (0, 1), BuildingBlock: OJICUG_clean_linker_0, # of connection points: 2
#     Edge 60, Type (0, 1), BuildingBlock: OJICUG_clean_linker_0, # of connection points: 2
#     Edge 61, Type (0, 1), BuildingBlock: OJICUG_clean_linker_0, # of connection points: 2
#     Edge 62, Type (0, 1), BuildingBlock: OJICUG_clean_linker_0, # of connection points: 2
#     Edge 63, Type (0, 1), BuildingBlock: OJICUG_clean_linker_0, # of connection points: 2
#     Edge 64, Type (0, 1), BuildingBlock: OJICUG_clean_linker_0, # of connection points: 2
#     Edge 65, Type (0, 1), BuildingBlock: OJICUG_clean_linker_0, # of connection points: 2
#     Edge 66, Type (0, 1), BuildingBlock: OJICUG_clean_linker_0, # of connection points: 2
#     Edge 67, Type (0, 1), BuildingBlock: OJICUG_clean_linker_0, # of connection points: 2
#     Edge 68, Type (0, 1), BuildingBlock: OJICUG_clean_linker_0, # of connection points: 2
#     Edge 69, Type (0, 1), BuildingBlock: OJICUG_clean_linker_0, # of connection points: 2
#     Edge 70, Type (0, 1), BuildingBlock: OJICUG_clean_linker_0, # of connection points: 2
#     Edge 71, Type (0, 1), BuildingBlock: OJICUG_clean_linker_0, # of connection points: 2
#     Edge 72, Type (0, 1), BuildingBlock: OJICUG_clean_linker_0, # of connection points: 2
#     Edge 73, Type (0, 1), BuildingBlock: OJICUG_clean_linker_0, # of connection points: 2
#     Edge 74, Type (0, 1), BuildingBlock: OJICUG_clean_linker_0, # of connection points: 2
#     Edge 75, Type (0, 1), BuildingBlock: OJICUG_clean_linker_0, # of connection points: 2
#     Edge 76, Type (0, 1), BuildingBlock: OJICUG_clean_linker_0, # of connection points: 2
#     Edge 77, Type (0, 1), BuildingBlock: OJICUG_clean_linker_0, # of connection points: 2
#     Edge 78, Type (0, 1), BuildingBlock: OJICUG_clean_linker_0, # of connection points: 2
#     Edge 79, Type (0, 1), BuildingBlock: OJICUG_clean_linker_0, # of connection points: 2
#     Edge 80, Type (0, 1), BuildingBlock: OJICUG_clean_linker_0, # of connection points: 2
# Relax obj value: 0.032
# Max RMSD: 0.127
# Mean RMSD: 0.096
data_MOF--net-eea--node1-HISSIN_clean_sbu_0--node2-BELTOD_clean_linker_0--edge1-OJICUG_clean_linker_0
_symmetry_space_group_name_H-M    P1
_symmetry_Int_Tables_number       1
_symmetry_cell_setting            triclinic
loop_
_symmetry_equiv_pos_as_xyz
'x, y, z'
_cell_length_a     44.244107
_cell_length_b     44.2089
_cell_length_c     67.982542
_cell_angle_alpha  93.825787
_cell_angle_beta   93.268729
_cell_angle_gamma 119.8665
loop_
_atom_site_label
_atom_site_type_symbol
_atom_site_fract_x
_atom_site_fract_y
_atom_site_fract_z
_atom_type_partial_charge
P0 P 0.33109 0.16648 0.40296 0.0
H1 H 0.33878 0.12038 0.37322 0.0
H2 H 0.30211 0.05783 0.36185 0.0
H3 H 0.22888 0.04887 0.4037 0.0
H4 H 0.26568 0.11137 0.41502 0.0
H5 H 0.33173 0.23093 0.41705 0.0
H6 H 0.2998 0.25885 0.40489 0.0
H7 H 0.25133 0.17848 0.35496 0.0
H8 H 0.282 0.14984 0.3678 0.0
H9 H 0.3856 0.16874 0.43016 0.0
H10 H 0.29077 0.17287 0.43421 0.0
O11 O 0.36964 0.18339 0.39366 0.0
H12 H 0.39358 0.17151 0.46629 0.0
H13 H 0.29867 0.17583 0.4703 0.0
C14 C 0.30523 0.12028 0.3952 0.0
C15 C 0.315 0.1049 0.38005 0.0
C16 C 0.29388 0.06925 0.37346 0.0
C17 C 0.26266 0.04852 0.38192 0.0
C18 C 0.25301 0.06411 0.3971 0.0
C19 C 0.27404 0.09979 0.40359 0.0
C20 C 0.30827 0.18764 0.39374 0.0
C21 C 0.31381 0.21905 0.40365 0.0
C22 C 0.29582 0.23523 0.39651 0.0
C23 C 0.27268 0.22078 0.37898 0.0
C24 C 0.26817 0.18986 0.36876 0.0
C25 C 0.28587 0.17351 0.37606 0.0
C26 C 0.33823 0.17173 0.42957 0.0
C27 C 0.3668 0.17079 0.43884 0.0
C28 C 0.37114 0.17202 0.45945 0.0
C29 C 0.34683 0.17408 0.47109 0.0
C30 C 0.31812 0.17485 0.46172 0.0
C31 C 0.31367 0.17331 0.4411 0.0
P32 P 0.91851 0.11378 0.43918 0.0
H33 H 0.90836 0.07444 0.40103 0.0
H34 H 0.85639 0.02654 0.38137 0.0
H35 H 0.79122 0.03356 0.42431 0.0
H36 H 0.84306 0.08121 0.4439 0.0
H37 H 0.9938 0.1595 0.44502 0.0
H38 H 0.03603 0.19985 0.42452 0.0
H39 H 0.9513 0.18294 0.3819 0.0
H40 H 0.90895 0.14204 0.4026 0.0
H41 H 0.90794 0.09365 0.47903 0.0
H42 H 0.90174 0.17019 0.44554 0.0
O43 O 0.93858 0.09276 0.44725 0.0
H44 H 0.88469 0.11045 0.5066 0.0
H45 H 0.87793 0.18714 0.47332 0.0
C46 C 0.87963 0.08169 0.42379 0.0
C47 C 0.88281 0.06606 0.40602 0.0
C48 C 0.85311 0.03879 0.39478 0.0
C49 C 0.81977 0.02637 0.40132 0.0
C50 C 0.81663 0.04247 0.419 0.0
C51 C 0.84633 0.0699 0.43016 0.0
C52 C 0.94837 0.1474 0.42518 0.0
C53 C 0.98426 0.16473 0.43138 0.0
C54 C 0.00837 0.18791 0.41964 0.0
C55 C 0.99704 0.19449 0.40148 0.0
C56 C 0.96085 0.178 0.39564 0.0
C57 C 0.93666 0.1548 0.40751 0.0
C58 C 0.90716 0.13113 0.46039 0.0
C59 C 0.9022 0.1146 0.47775 0.0
C60 C 0.88849 0.12395 0.49344 0.0
C61 C 0.87913 0.14986 0.49204 0.0
C62 C 0.88508 0.16721 0.47483 0.0
C63 C 0.89874 0.15765 0.45901 0.0
P64 P 0.85843 0.7219 0.41316 0.0
H65 H 0.83893 0.7297 0.37312 0.0
H66 H 0.80578 0.75571 0.35961 0.0
H67 H 0.79815 0.79059 0.41903 0.0
H68 H 0.83171 0.76485 0.43245 0.0
H69 H 0.90694 0.69576 0.41056 0.0
H70 H 0.9641 0.71886 0.39803 0.0
H71 H 0.96608 0.81596 0.38996 0.0
H72 H 0.90848 0.79231 0.40228 0.0
H73 H 0.79658 0.69187 0.43436 0.0
H74 H 0.90759 0.73527 0.44864 0.0
O75 O 0.83748 0.68189 0.40069 0.0
H76 H 0.78647 0.67638 0.46807 0.0
H77 H 0.89764 0.71872 0.48236 0.0
C78 C 0.83718 0.74468 0.40378 0.0
C79 C 0.83038 0.74322 0.38324 0.0
C80 C 0.81158 0.75825 0.37553 0.0
C81 C 0.79904 0.77493 0.38826 0.0
C82 C 0.80698 0.77743 0.40886 0.0
C83 C 0.82618 0.7627 0.41655 0.0
C84 C 0.90327 0.74213 0.40723 0.0
C85 C 0.91989 0.7222 0.40635 0.0
C86 C 0.9527 0.73555 0.3992 0.0
C87 C 0.96973 0.76926 0.39279 0.0
C88 C 0.9535 0.78969 0.39441 0.0
C89 C 0.92063 0.77628 0.40163 0.0
C90 C 0.85285 0.71511 0.43898 0.0
C91 C 0.81888 0.6984 0.44484 0.0
C92 C 0.81309 0.68916 0.46412 0.0
C93 C 0.84116 0.69591 0.478 0.0
C94 C 0.87539 0.71338 0.47218 0.0
C95 C 0.88115 0.7228 0.45283 0.0
P96 P 0.12797 0.27569 0.59691 0.0
H97 H 0.10823 0.27234 0.63698 0.0
H98 H 0.05216 0.24965 0.65082 0.0
H99 H 0.99814 0.21461 0.59167 0.0
H100 H 0.0547 0.23764 0.57789 0.0
H101 H 0.19663 0.2872 0.58905 0.0
H102 H 0.23135 0.26151 0.60063 0.0
H103 H 0.14403 0.18738 0.62956 0.0
H104 H 0.10939 0.2129 0.61783 0.0
H105 H 0.12674 0.3304 0.57588 0.0
H106 H 0.12701 0.23439 0.56057 0.0
O107 O 0.15239 0.31565 0.60919 0.0
H108 H 0.13382 0.34393 0.54171 0.0
H109 H 0.13314 0.24717 0.52602 0.0
C110 C 0.08567 0.2569 0.60641 0.0
C111 C 0.0843 0.25963 0.62697 0.0
C112 C 0.05216 0.24639 0.63489 0.0
C113 C 0.02056 0.23027 0.62239 0.0
C114 C 0.022 0.22718 0.60172 0.0
C115 C 0.0543 0.24023 0.59381 0.0
C116 C 0.15045 0.25214 0.60259 0.0
C117 C 0.18473 0.26497 0.59756 0.0
C118 C 0.20454 0.25023 0.60417 0.0
C119 C 0.19055 0.22259 0.61616 0.0
C120 C 0.15572 0.20898 0.62058 0.0
C121 C 0.13582 0.22354 0.6138 0.0
C122 C 0.12694 0.28171 0.57086 0.0
C123 C 0.12775 0.3119 0.56505 0.0
C124 C 0.13163 0.31951 0.54539 0.0
C125 C 0.13444 0.29686 0.53099 0.0
C126 C 0.13183 0.26563 0.53673 0.0
C127 C 0.12803 0.25811 0.55648 0.0
P128 P 0.81589 0.90114 0.57762 0.0
H129 H 0.86203 0.95649 0.60863 0.0
H130 H 0.85682 0.00236 0.62776 0.0
H131 H 0.75445 0.96419 0.59667 0.0
H132 H 0.75941 0.91806 0.57788 0.0
H133 H 0.8159 0.83625 0.56817 0.0
H134 H 0.81101 0.79025 0.58811 0.0
H135 H 0.79648 0.84361 0.6391 0.0
H136 H 0.80123 0.88936 0.61914 0.0
H137 H 0.81901 0.92998 0.5403 0.0
H138 H 0.74609 0.83871 0.5668 0.0
O139 O 0.85663 0.91924 0.57114 0.0
H140 H 0.77689 0.91213 0.511 0.0
H141 H 0.7037 0.8206 0.53742 0.0
C142 C 0.81148 0.9344 0.59159 0.0
C143 C 0.83848 0.95803 0.60596 0.0
C144 C 0.83536 0.98396 0.61696 0.0
C145 C 0.80527 0.98675 0.61358 0.0
C146 C 0.77802 0.9627 0.59938 0.0
C147 C 0.78093 0.93644 0.58861 0.0
C148 C 0.80901 0.86619 0.59214 0.0
C149 C 0.81128 0.83781 0.58359 0.0
C150 C 0.80834 0.81152 0.59497 0.0
C151 C 0.8034 0.81344 0.61516 0.0
C152 C 0.8006 0.84169 0.62362 0.0
C153 C 0.80325 0.86782 0.61217 0.0
C154 C 0.78597 0.88525 0.55545 0.0
C155 C 0.7941 0.90582 0.53966 0.0
C156 C 0.76987 0.89579 0.52304 0.0
C157 C 0.73698 0.86504 0.52199 0.0
C158 C 0.72899 0.84424 0.53779 0.0
C159 C 0.75322 0.85449 0.55451 0.0
P160 P 0.1355 0.82596 0.6059 0.0
H161 H 0.17464 0.86715 0.64322 0.0
H162 H 0.20852 0.93041 0.6535 0.0
H163 H 0.18674 0.95046 0.59459 0.0
H164 H 0.15225 0.88729 0.58447 0.0
H165 H 0.07009 0.76039 0.59332 0.0
H166 H 0.01218 0.73374 0.60544 0.0
H167 H 0.04706 0.82635 0.64659 0.0
H168 H 0.10461 0.85274 0.63449 0.0
H169 H 0.18675 0.81862 0.58454 0.0
H170 H 0.09057 0.81852 0.57003 0.0
O171 O 0.15336 0.80638 0.61827 0.0
H172 H 0.19508 0.81584 0.54944 0.0
H173 H 0.09892 0.81613 0.53473 0.0
C174 C 0.1614 0.87252 0.61302 0.0
C175 C 0.17731 0.88515 0.63249 0.0
C176 C 0.19646 0.92121 0.63837 0.0
C177 C 0.20028 0.94517 0.62478 0.0
C178 C 0.18445 0.93247 0.60526 0.0
C179 C 0.16477 0.89637 0.59949 0.0
C180 C 0.09154 0.80883 0.61266 0.0
C181 C 0.06503 0.77523 0.60465 0.0
C182 C 0.03197 0.76002 0.61162 0.0
C183 C 0.02507 0.77796 0.627 0.0
C184 C 0.05164 0.81176 0.63485 0.0
C185 C 0.08456 0.82701 0.62778 0.0
C186 C 0.13766 0.81795 0.57984 0.0
C187 C 0.16704 0.81729 0.57374 0.0
C188 C 0.17199 0.81613 0.55368 0.0
C189 C 0.14777 0.81596 0.5393 0.0
C190 C 0.11784 0.81582 0.54543 0.0
C191 C 0.11297 0.81707 0.56558 0.0
P192 P 0.98812 0.5044 0.73941 0.0
H193 H 0.98453 0.46361 0.70296 0.0
H194 H 0.95041 0.40072 0.69156 0.0
H195 H 0.90736 0.38052 0.74781 0.0
H196 H 0.9409 0.44331 0.75901 0.0
H197 H 0.99349 0.57248 0.74832 0.0
H198 H 0.95909 0.59797 0.73574 0.0
H199 H 0.89143 0.50166 0.69797 0.0
H200 H 0.92548 0.47633 0.71055 0.0
H201 H 0.04321 0.50604 0.76568 0.0
H202 H 0.95193 0.51602 0.77151 0.0
O203 O 0.02591 0.52372 0.72931 0.0
H204 H 0.05371 0.51079 0.80179 0.0
H205 H 0.96236 0.52096 0.8076 0.0
C206 C 0.96583 0.45799 0.73196 0.0
C207 C 0.96807 0.44558 0.71291 0.0
C208 C 0.94835 0.40979 0.70635 0.0
C209 C 0.92635 0.38593 0.71885 0.0
C210 C 0.9244 0.39842 0.73799 0.0
C211 C 0.94368 0.43426 0.74441 0.0
C212 C 0.96184 0.52236 0.73065 0.0
C213 C 0.97105 0.55678 0.73747 0.0
C214 C 0.95137 0.57125 0.73031 0.0
C215 C 0.92253 0.55169 0.71593 0.0
C216 C 0.91363 0.51737 0.70896 0.0
C217 C 0.93309 0.50282 0.71627 0.0
C218 C 0.99742 0.51168 0.76596 0.0
C219 C 0.02578 0.50984 0.77475 0.0
C220 C 0.03154 0.51221 0.79536 0.0
C221 C 0.00891 0.51637 0.80751 0.0
C222 C 0.98054 0.51834 0.79862 0.0
C223 C 0.97465 0.51565 0.778 0.0
P224 P 0.58436 0.44429 0.77017 0.0
H225 H 0.57782 0.38988 0.74088 0.0
H226 H 0.52742 0.33969 0.72138 0.0
H227 H 0.45796 0.36797 0.74878 0.0
H228 H 0.50839 0.41842 0.768 0.0
H229 H 0.64719 0.51279 0.77905 0.0
H230 H 0.68665 0.55481 0.75789 0.0
H231 H 0.61544 0.49227 0.70624 0.0
H232 H 0.57616 0.45053 0.7274 0.0
H233 H 0.57299 0.42101 0.80929 0.0
H234 H 0.56412 0.49806 0.7777 0.0
O235 O 0.61098 0.43015 0.77826 0.0
H236 H 0.54955 0.43568 0.83757 0.0
H237 H 0.53972 0.51256 0.80602 0.0
C238 C 0.54684 0.40758 0.75606 0.0
C239 C 0.55173 0.38526 0.74268 0.0
C240 C 0.52301 0.3568 0.73147 0.0
C241 C 0.48886 0.35001 0.73363 0.0
C242 C 0.48402 0.37251 0.74698 0.0
C243 C 0.51285 0.40132 0.75798 0.0
C244 C 0.60875 0.47852 0.75488 0.0
C245 C 0.6397 0.50857 0.76322 0.0
C246 C 0.66223 0.53254 0.75109 0.0
C247 C 0.65428 0.52668 0.73035 0.0
C248 C 0.62252 0.49722 0.72212 0.0
C249 C 0.59992 0.4734 0.73429 0.0
C250 C 0.57091 0.45891 0.79157 0.0
C251 C 0.56637 0.44146 0.80855 0.0
C252 C 0.55253 0.44959 0.82464 0.0
C253 C 0.54242 0.47508 0.82401 0.0
C254 C 0.5475 0.493 0.80704 0.0
C255 C 0.56147 0.48479 0.79087 0.0
P256 P 0.52332 0.04127 0.74633 0.0
H257 H 0.49118 0.03727 0.70714 0.0
H258 H 0.45825 0.0636 0.69383 0.0
H259 H 0.47332 0.11972 0.75133 0.0
H260 H 0.50722 0.09393 0.76449 0.0
H261 H 0.55052 0.02353 0.71217 0.0
H262 H 0.60711 0.0518 0.69903 0.0
H263 H 0.64756 0.13461 0.74755 0.0
H264 H 0.59038 0.10549 0.76087 0.0
H265 H 0.4701 0.02976 0.7731 0.0
H266 H 0.57273 0.04076 0.7771 0.0
O267 O 0.50133 -0.00013 0.73574 0.0
H268 H 0.46413 0.01546 0.80719 0.0
H269 H 0.56681 0.02611 0.81135 0.0
C270 C 0.50073 0.06277 0.73694 0.0
C271 C 0.48751 0.05531 0.7169 0.0
C272 C 0.46884 0.07051 0.70927 0.0
C273 C 0.4629 0.09344 0.72158 0.0
C274 C 0.47705 0.1017 0.74158 0.0
C275 C 0.49632 0.08691 0.74912 0.0
C276 C 0.56642 0.06192 0.73779 0.0
C277 C 0.5716 0.04754 0.72017 0.0
C278 C 0.60398 0.06404 0.7125 0.0
C279 C 0.63201 0.09561 0.72216 0.0
C280 C 0.62671 0.11012 0.73984 0.0
C281 C 0.59407 0.09354 0.74749 0.0
C282 C 0.52252 0.03792 0.77272 0.0
C283 C 0.49194 0.03036 0.78153 0.0
C284 C 0.48842 0.0219 0.80105 0.0
C285 C 0.51506 0.01981 0.8121 0.0
C286 C 0.54577 0.02745 0.80327 0.0
C287 C 0.54939 0.0363 0.78375 0.0
P288 P 0.79342 0.61211 0.93188 0.0
H289 H 0.74602 0.63879 0.93782 0.0
H290 H 0.6898 0.61526 0.95143 0.0
H291 H 0.68836 0.51784 0.95737 0.0
H292 H 0.74518 0.54195 0.94392 0.0
H293 H 0.83857 0.62839 0.96854 0.0
H294 H 0.87339 0.60417 0.98168 0.0
H295 H 0.83456 0.52648 0.93054 0.0
H296 H 0.80011 0.55155 0.91725 0.0
H297 H 0.74376 0.60966 0.90007 0.0
H298 H 0.84628 0.62036 0.90555 0.0
O299 O 0.81465 0.65405 0.94157 0.0
H300 H 0.74972 0.62133 0.86539 0.0
H301 H 0.85235 0.63187 0.87099 0.0
C302 C 0.74998 0.59229 0.93996 0.0
C303 C 0.73352 0.61226 0.94191 0.0
C304 C 0.70122 0.59866 0.94964 0.0
C305 C 0.68444 0.5646 0.95558 0.0
C306 C 0.70071 0.54432 0.95322 0.0
C307 C 0.73312 0.55799 0.94538 0.0
C308 C 0.81736 0.59226 0.94172 0.0
C309 C 0.83755 0.60618 0.96011 0.0
C310 C 0.85727 0.59207 0.9677 0.0
C311 C 0.85696 0.56341 0.95715 0.0
C312 C 0.83589 0.5489 0.9389 0.0
C313 C 0.81608 0.56309 0.93132 0.0
C314 C 0.79415 0.61313 0.90535 0.0
C315 C 0.76719 0.61363 0.89373 0.0
C316 C 0.77078 0.62067 0.87392 0.0
C317 C 0.80151 0.62751 0.86536 0.0
C318 C 0.82808 0.62613 0.87695 0.0
C319 C 0.82457 0.61939 0.89676 0.0
P320 P 0.47728 0.22833 0.91185 0.0
H321 H 0.51791 0.27647 0.94676 0.0
H322 H 0.51214 0.32162 0.96627 0.0
H323 H 0.41686 0.29289 0.92954 0.0
H324 H 0.42256 0.24785 0.91022 0.0
H325 H 0.49773 0.17607 0.90516 0.0
H326 H 0.4914 0.12785 0.92336 0.0
H327 H 0.43613 0.15291 0.96599 0.0
H328 H 0.44275 0.20138 0.94769 0.0
H329 H 0.48025 0.25825 0.8749 0.0
H330 H 0.40839 0.16521 0.90046 0.0
O331 O 0.51826 0.24872 0.90569 0.0
H332 H 0.43837 0.24045 0.84551 0.0
H333 H 0.36616 0.14723 0.87104 0.0
C334 C 0.47114 0.2594 0.92684 0.0
C335 C 0.49568 0.27979 0.94303 0.0
C336 C 0.4922 0.30531 0.95423 0.0
C337 C 0.46416 0.31079 0.94929 0.0
C338 C 0.43893 0.28942 0.93348 0.0
C339 C 0.44226 0.26372 0.92241 0.0
C340 C 0.47135 0.19259 0.9253 0.0
C341 C 0.48427 0.17117 0.91842 0.0
C342 C 0.48035 0.14347 0.92874 0.0
C343 C 0.46324 0.13664 0.9461 0.0
C344 C 0.44974 0.15785 0.95278 0.0
C345 C 0.45354 0.18552 0.94234 0.0
C346 C 0.4477 0.21266 0.88958 0.0
C347 C 0.45562 0.23374 0.87404 0.0
C348 C 0.43151 0.22374 0.85738 0.0
C349 C 0.39895 0.19253 0.85606 0.0
C350 C 0.39118 0.17125 0.87162 0.0
C351 C 0.41532 0.18144 0.88838 0.0
P352 P 0.80145 0.16581 0.93621 0.0
H353 H 0.86748 0.20974 0.96137 0.0
H354 H 0.90229 0.27301 0.971 0.0
H355 H 0.82591 0.28738 0.93687 0.0
H356 H 0.79135 0.22387 0.92692 0.0
H357 H 0.74091 0.09553 0.92784 0.0
H358 H 0.68291 0.06718 0.93954 0.0
H359 H 0.70685 0.16596 0.97121 0.0
H360 H 0.7652 0.19345 0.96036 0.0
H361 H 0.86023 0.1786 0.91467 0.0
H362 H 0.75085 0.14403 0.90037 0.0
O363 O 0.81992 0.14592 0.94767 0.0
H364 H 0.8679 0.1764 0.87939 0.0
H365 H 0.75827 0.14118 0.8649 0.0
C366 C 0.82653 0.21217 0.94377 0.0
C367 C 0.85813 0.22642 0.95598 0.0
C368 C 0.87813 0.26257 0.96135 0.0
C369 C 0.86666 0.28492 0.95468 0.0
C370 C 0.8351 0.27059 0.94232 0.0
C371 C 0.81541 0.23446 0.93668 0.0
C372 C 0.75718 0.14677 0.94276 0.0
C373 C 0.73343 0.11114 0.93707 0.0
C374 C 0.70017 0.09503 0.94373 0.0
C375 C 0.68997 0.11429 0.95628 0.0
C376 C 0.71381 0.15018 0.96174 0.0
C377 C 0.74719 0.16614 0.95523 0.0
C378 C 0.80488 0.16082 0.91011 0.0
C379 C 0.83776 0.1701 0.9039 0.0
C380 C 0.84218 0.16912 0.88377 0.0
C381 C 0.81369 0.15865 0.86944 0.0
C382 C 0.78059 0.14904 0.87567 0.0
C383 C 0.7763 0.15053 0.89591 0.0
P384 P 0.65845 0.83215 0.06982 0.0
H385 H 0.65441 0.78858 0.03447 0.0
H386 H 0.61713 0.72576 0.0235 0.0
H387 H 0.56836 0.71107 0.078 0.0
H388 H 0.60496 0.77377 0.08871 0.0
H389 H 0.66158 0.8983 0.08244 0.0
H390 H 0.62937 0.92597 0.07038 0.0
H391 H 0.5748 0.84108 0.02312 0.0
H392 H 0.60554 0.8127 0.03597 0.0
H393 H 0.71399 0.83597 0.09696 0.0
H394 H 0.6199 0.84144 0.10118 0.0
O395 O 0.69651 0.84867 0.06001 0.0
H396 H 0.72377 0.84192 0.13318 0.0
H397 H 0.62964 0.84765 0.13732 0.0
C398 C 0.63301 0.78569 0.06257 0.0
C399 C 0.6359 0.77177 0.04411 0.0
C400 C 0.61441 0.73606 0.03779 0.0
C401 C 0.58999 0.71377 0.04996 0.0
C402 C 0.58721 0.72776 0.06845 0.0
C403 C 0.60826 0.76356 0.0746 0.0
C404 C 0.63515 0.85285 0.06056 0.0
C405 C 0.64227 0.88539 0.06968 0.0
C406 C 0.62409 0.90141 0.06258 0.0
C407 C 0.59919 0.88566 0.04581 0.0
C408 C 0.59303 0.85354 0.03636 0.0
C409 C 0.61085 0.83732 0.04367 0.0
C410 C 0.66689 0.83943 0.09642 0.0
C411 C 0.69575 0.839 0.10568 0.0
C412 C 0.70113 0.84207 0.12635 0.0
C413 C 0.67758 0.8455 0.13805 0.0
C414 C 0.64856 0.84572 0.12868 0.0
C415 C 0.64307 0.84234 0.10803 0.0
P416 P 0.25648 0.77367 0.10524 0.0
H417 H 0.2324 0.69874 0.09843 0.0
H418 H 0.17916 0.64897 0.08106 0.0
H419 H 0.141 0.71836 0.06622 0.0
H420 H 0.19443 0.7683 0.08391 0.0
H421 H 0.31868 0.84252 0.11353 0.0
H422 H 0.35767 0.88384 0.09217 0.0
H423 H 0.28559 0.82037 0.04085 0.0
H424 H 0.24819 0.77811 0.06222 0.0
H425 H 0.24711 0.75121 0.14455 0.0
H426 H 0.23355 0.82532 0.11257 0.0
O427 O 0.28347 0.75977 0.11303 0.0
H428 H 0.22189 0.76394 0.17262 0.0
H429 H 0.20756 0.83797 0.14073 0.0
C430 C 0.21753 0.73723 0.09216 0.0
C431 C 0.21268 0.70335 0.09144 0.0
C432 C 0.18215 0.67488 0.08163 0.0
C433 C 0.15606 0.67991 0.07231 0.0
C434 C 0.16088 0.71389 0.07316 0.0
C435 C 0.19127 0.74232 0.08324 0.0
C436 C 0.28021 0.80752 0.08961 0.0
C437 C 0.31098 0.83791 0.09771 0.0
C438 C 0.33322 0.86164 0.08539 0.0
C439 C 0.32495 0.85563 0.06463 0.0
C440 C 0.29324 0.82572 0.05667 0.0
C441 C 0.27136 0.8017 0.069 0.0
C442 C 0.24291 0.78791 0.12668 0.0
C443 C 0.23923 0.77073 0.14371 0.0
C444 C 0.22436 0.7777 0.15967 0.0
C445 C 0.21241 0.80175 0.15886 0.0
C446 C 0.21675 0.81951 0.14187 0.0
C447 C 0.23165 0.81239 0.12581 0.0
P448 P 0.18745 0.37441 0.08072 0.0
H449 H 0.15937 0.37401 0.04107 0.0
H450 H 0.1273 0.4011 0.02755 0.0
H451 H 0.13652 0.45206 0.08581 0.0
H452 H 0.16959 0.42562 0.09919 0.0
H453 H 0.21424 0.35404 0.04726 0.0
H454 H 0.27068 0.381 0.03393 0.0
H455 H 0.31193 0.46647 0.08093 0.0
H456 H 0.25488 0.43872 0.09444 0.0
H457 H 0.1337 0.36157 0.10732 0.0
H458 H 0.23741 0.37525 0.11174 0.0
O459 O 0.16444 0.33305 0.07012 0.0
H460 H 0.12781 0.34728 0.14143 0.0
H461 H 0.23166 0.36077 0.146 0.0
C462 C 0.16596 0.39692 0.07124 0.0
C463 C 0.15467 0.39116 0.05094 0.0
C464 C 0.1365 0.4068 0.0432 0.0
C465 C 0.12907 0.42842 0.05565 0.0
C466 C 0.14141 0.43509 0.07592 0.0
C467 C 0.1602 0.41988 0.08359 0.0
C468 C 0.23051 0.39393 0.07214 0.0
C469 C 0.23546 0.37835 0.0549 0.0
C470 C 0.26776 0.39408 0.04711 0.0
C471 C 0.29595 0.42604 0.05627 0.0
C472 C 0.29093 0.44167 0.0736 0.0
C473 C 0.25837 0.42588 0.08136 0.0
C474 C 0.1866 0.37103 0.10713 0.0
C475 C 0.15575 0.36274 0.11584 0.0
C476 C 0.15231 0.35431 0.13538 0.0
C477 C 0.17932 0.35303 0.14657 0.0
C478 C 0.2103 0.36143 0.13783 0.0
C479 C 0.21382 0.3702 0.11829 0.0
P480 P 0.46284 0.95607 0.26318 0.0
H481 H 0.43849 0.97716 0.29743 0.0
H482 H 0.38275 0.95148 0.31152 0.0
H483 H 0.33852 0.8652 0.26486 0.0
H484 H 0.39476 0.89186 0.2505 0.0
H485 H 0.51419 0.97669 0.29754 0.0
H486 H 0.548 0.95135 0.31066 0.0
H487 H 0.49635 0.86484 0.26423 0.0
H488 H 0.4626 0.89076 0.25101 0.0
H489 H 0.41478 0.95829 0.23239 0.0
H490 H 0.51084 0.95534 0.23563 0.0
O491 O 0.48501 -0.0014 0.2717 0.0
H492 H 0.41982 0.96809 0.19737 0.0
H493 H 0.51619 0.9653 0.20092 0.0
C494 C 0.42056 0.93687 0.27264 0.0
C495 C 0.41674 0.95291 0.29006 0.0
C496 C 0.38485 0.93791 0.29828 0.0
C497 C 0.35599 0.90615 0.28941 0.0
C498 C 0.36 0.8899 0.27196 0.0
C499 C 0.39211 0.90504 0.26373 0.0
C500 C 0.48643 0.93598 0.27306 0.0
C501 C 0.51012 0.9523 0.29013 0.0
C502 C 0.52929 0.93762 0.29772 0.0
C503 C 0.52501 0.90611 0.28845 0.0
C504 C 0.50063 0.88939 0.27154 0.0
C505 C 0.48125 0.90406 0.26402 0.0
C506 C 0.46177 0.95487 0.23652 0.0
C507 C 0.43639 0.95869 0.22544 0.0
C508 C 0.43956 0.96475 0.20547 0.0
C509 C 0.46842 0.96747 0.19626 0.0
C510 C 0.49328 0.9627 0.20734 0.0
C511 C 0.49015 0.95683 0.22727 0.0
P512 P 0.14638 0.56004 0.24564 0.0
H513 H 0.20004 0.62265 0.2702 0.0
H514 H 0.19801 0.66922 0.29043 0.0
H515 H 0.08581 0.61671 0.27543 0.0
H516 H 0.08825 0.57056 0.25488 0.0
H517 H 0.15837 0.50204 0.23762 0.0
H518 H 0.15255 0.45499 0.25673 0.0
H519 H 0.11318 0.49257 0.30346 0.0
H520 H 0.1196 0.53997 0.28433 0.0
H521 H 0.14472 0.59233 0.21032 0.0
H522 H 0.07741 0.49621 0.2348 0.0
O523 O 0.18599 0.577 0.23762 0.0
H524 H 0.10163 0.5743 0.18152 0.0
H525 H 0.03387 0.47801 0.206 0.0
C526 C 0.14446 0.59377 0.2607 0.0
C527 C 0.17506 0.62129 0.27121 0.0
C528 C 0.17378 0.64767 0.28293 0.0
C529 C 0.14174 0.64669 0.28447 0.0
C530 C 0.11095 0.61847 0.27427 0.0
C531 C 0.1123 0.59211 0.26254 0.0
C532 C 0.1399 0.52468 0.25965 0.0
C533 C 0.14839 0.50006 0.25195 0.0
C534 C 0.14476 0.47304 0.26284 0.0
C535 C 0.13233 0.47005 0.28162 0.0
C536 C 0.12315 0.49443 0.28914 0.0
C537 C 0.12675 0.52149 0.27817 0.0
C538 C 0.11452 0.54532 0.22442 0.0
C539 C 0.12067 0.56725 0.20942 0.0
C540 C 0.09586 0.55706 0.19309 0.0
C541 C 0.0643 0.52476 0.19154 0.0
C542 C 0.05809 0.50288 0.20672 0.0
C543 C 0.08296 0.51323 0.22315 0.0
P544 P 0.47082 0.50507 0.27021 0.0
H545 H 0.53623 0.5499 0.29572 0.0
H546 H 0.57002 0.61322 0.30532 0.0
H547 H 0.49298 0.62588 0.27065 0.0
H548 H 0.45945 0.5623 0.26072 0.0
H549 H 0.4116 0.43388 0.26249 0.0
H550 H 0.35378 0.40448 0.27443 0.0
H551 H 0.37534 0.50296 0.30535 0.0
H552 H 0.43346 0.53162 0.29417 0.0
H553 H 0.53016 0.52158 0.24837 0.0
H554 H 0.41911 0.4792 0.23454 0.0
O555 O 0.49022 0.48594 0.28157 0.0
H556 H 0.53715 0.51804 0.21305 0.0
H557 H 0.4259 0.47501 0.19906 0.0
C558 C 0.49508 0.55146 0.2778 0.0
C559 C 0.52651 0.5662 0.29021 0.0
C560 C 0.54591 0.60238 0.29559 0.0
C561 C 0.53399 0.62427 0.28874 0.0
C562 C 0.50251 0.60944 0.27624 0.0
C563 C 0.48342 0.57328 0.27059 0.0
C564 C 0.42662 0.4851 0.27697 0.0
C565 C 0.40362 0.4492 0.27159 0.0
C566 C 0.37048 0.43247 0.2784 0.0
C567 C 0.35971 0.45137 0.2908 0.0
C568 C 0.3828 0.4875 0.29598 0.0
C569 C 0.41602 0.5041 0.28929 0.0
C570 C 0.47408 0.50009 0.24408 0.0
C571 C 0.50722 0.5112 0.23771 0.0
C572 C 0.51123 0.50943 0.21754 0.0
C573 C 0.48207 0.49627 0.20333 0.0
C574 C 0.44876 0.48497 0.20973 0.0
C575 C 0.44485 0.48725 0.22999 0.0
Eu576 Eu 0.48144 0.96371 0.98194 0.0
Eu577 Eu 0.50985 0.01714 0.02475 0.0
C578 C 0.47444 0.03295 0.98718 0.0
C579 C 0.47233 0.94272 0.92696 0.0
C580 C 0.48722 0.97877 0.92529 0.0
C581 C 0.47401 0.93266 0.8915 0.0
C582 C 0.49506 0.99162 0.90687 0.0
C583 C 0.46593 0.91977 0.90996 0.0
C584 C 0.48847 0.96875 0.8897 0.0
C585 C 0.46395 0.92949 0.94649 0.0
O586 O 0.46446 0.96592 0.03053 0.0
O587 O 0.43449 0.94297 0.99954 0.0
C588 C 0.43562 0.94502 0.01898 0.0
O589 O 0.49776 0.93699 0.0037 0.0
O590 O 0.49957 0.04586 0.04825 0.0
O591 O 0.54667 0.0426 0.05153 0.0
O592 O 0.53845 0.98706 0.02322 0.0
C593 C 0.52557 0.9539 0.01671 0.0
O594 O 0.53824 0.00391 0.98072 0.0
O595 O 0.54917 0.04935 0.00426 0.0
O596 O 0.47839 0.03475 0.00658 0.0
O597 O 0.49047 0.93393 0.95832 0.0
O598 O 0.44357 0.93777 0.95575 0.0
O599 O 0.48061 0.01218 0.97565 0.0
C600 C 0.51721 0.03872 0.08047 0.0
C601 C 0.53897 0.03047 0.09202 0.0
C602 C 0.47793 0.02276 0.10655 0.0
C603 C 0.53015 0.01821 0.11052 0.0
C604 C 0.48675 0.03501 0.08808 0.0
C605 C 0.49942 0.01404 0.118 0.0
C606 C 0.52566 0.05037 0.06045 0.0
C607 C 0.55749 0.03666 0.98874 0.0
H608 H 0.4928 0.99704 0.93826 0.0
H609 H 0.46834 0.91428 0.87856 0.0
H610 H 0.50663 0.01957 0.90612 0.0
H611 H 0.45458 0.8919 0.91093 0.0
H612 H 0.56279 0.0333 0.08674 0.0
H613 H 0.45392 0.0196 0.11172 0.0
H614 H 0.54767 0.01237 0.11906 0.0
H615 H 0.46941 0.04124 0.07966 0.0
Eu616 Eu 0.01619 0.50862 0.98671 0.0
Eu617 Eu 0.96947 0.48306 0.02474 0.0
C618 C 0.94965 0.43071 0.98553 0.0
C619 C 0.04418 0.52699 0.93426 0.0
C620 C 0.0223 0.49437 0.92307 0.0
C621 C 0.05328 0.55547 0.90404 0.0
C622 C 0.01622 0.49234 0.90248 0.0
C623 C 0.05959 0.55745 0.92458 0.0
C624 C 0.03159 0.5229 0.89277 0.0
C625 C 0.05116 0.53012 0.95596 0.0
O626 O 0.00688 0.46235 0.02721 0.0
O627 O 0.04985 0.4991 0.00878 0.0
C628 C 0.03878 0.47611 0.02181 0.0
O629 O 0.03525 0.55655 0.00873 0.0
O630 O 0.94316 0.44535 0.04594 0.0
O631 O 0.94131 0.49345 0.04696 0.0
O632 O 0.02092 0.52969 0.03707 0.0
C633 C 0.03934 0.55753 0.02807 0.0
O634 O 0.9646 0.50505 0.97758 0.0
O635 O 0.95335 0.51661 0.00866 0.0
O636 O 0.93702 0.44225 0.99925 0.0
O637 O 0.04021 0.54809 0.96621 0.0
O638 O 0.04595 0.5021 0.96396 0.0
O639 O 0.98182 0.44985 0.98094 0.0
C640 C 0.94971 0.47485 0.07734 0.0
C641 C 0.98022 0.50689 0.08393 0.0
C642 C 0.94864 0.45703 0.11047 0.0
C643 C 0.99475 0.51399 0.10355 0.0
C644 C 0.93388 0.45001 0.09075 0.0
C645 C 0.9793 0.4891 0.11702 0.0
C646 C 0.93615 0.46664 0.05625 0.0
C647 C 0.94821 0.51536 0.98935 0.0
H648 H 0.00984 0.47048 0.9302 0.0
H649 H 0.06577 0.5794 0.89694 0.0
H650 H 0.99911 0.46693 0.89417 0.0
H651 H 0.07657 0.58285 0.93294 0.0
H652 H 0.99332 0.52628 0.07381 0.0
H653 H 0.93621 0.4374 0.12056 0.0
H654 H 0.01879 0.5386 0.10802 0.0
H655 H 0.91052 0.425 0.08588 0.0
Eu656 Eu 0.5053 0.49006 0.02693 0.0
Eu657 Eu 0.47599 0.50785 0.98563 0.0
C658 C 0.51393 0.56644 0.02266 0.0
C659 C 0.51946 0.48002 0.08131 0.0
C660 C 0.51853 0.50975 0.08911 0.0
C661 C 0.50662 0.45653 0.11301 0.0
C662 C 0.51195 0.51294 0.1088 0.0
C663 C 0.51354 0.45353 0.0934 0.0
C664 C 0.50569 0.48623 0.12091 0.0
C665 C 0.52426 0.47508 0.06033 0.0
O666 O 0.53409 0.5305 0.9849 0.0
O667 O 0.54528 0.49731 0.0055 0.0
C668 C 0.55405 0.51829 0.99137 0.0
O669 O 0.47311 0.43888 0.00767 0.0
O670 O 0.48221 0.54307 0.9631 0.0
O671 O 0.43748 0.49041 0.95974 0.0
O672 O 0.48078 0.46054 0.97768 0.0
C673 C 0.47293 0.43464 0.98842 0.0
O674 O 0.4576 0.49289 0.03409 0.0
O675 O 0.42901 0.47949 0.00279 0.0
O676 O 0.48863 0.55326 0.00804 0.0
O677 O 0.49579 0.45338 0.04891 0.0
O678 O 0.54444 0.50314 0.05201 0.0
O679 O 0.52744 0.54838 0.02983 0.0
C680 C 0.46592 0.51189 0.93134 0.0
C681 C 0.47787 0.48802 0.92855 0.0
C682 C 0.47572 0.52515 0.89731 0.0
C683 C 0.48823 0.48242 0.91033 0.0
C684 C 0.46501 0.53055 0.91563 0.0
C685 C 0.48725 0.50083 0.89447 0.0
C686 C 0.45648 0.51835 0.951 0.0
C687 C 0.42878 0.48159 0.02218 0.0
H688 H 0.52246 0.53028 0.07993 0.0
H689 H 0.50226 0.43573 0.12206 0.0
H690 H 0.51108 0.53596 0.11445 0.0
H691 H 0.51389 0.43029 0.08759 0.0
H692 H 0.47954 0.47388 0.94056 0.0
H693 H 0.47468 0.5397 0.88534 0.0
H694 H 0.49766 0.46407 0.90879 0.0
H695 H 0.45628 0.54941 0.91757 0.0
Eu696 Eu 0.1517 0.29863 0.31727 0.0
Eu697 Eu 0.18152 0.35114 0.36033 0.0
C698 C 0.14553 0.36801 0.32332 0.0
C699 C 0.13962 0.27735 0.26207 0.0
C700 C 0.15259 0.31306 0.26008 0.0
C701 C 0.14165 0.2671 0.22664 0.0
C702 C 0.15969 0.32563 0.24154 0.0
C703 C 0.13433 0.25449 0.24522 0.0
C704 C 0.15428 0.30284 0.22454 0.0
C705 C 0.13238 0.26439 0.28176 0.0
O706 O 0.13896 0.2979 0.36542 0.0
O707 O 0.10554 0.27956 0.33561 0.0
C708 C 0.10847 0.27977 0.35497 0.0
O709 O 0.1703 0.27226 0.33811 0.0
O710 O 0.16847 0.37574 0.38474 0.0
O711 O 0.21831 0.37755 0.38701 0.0
O712 O 0.21104 0.32208 0.35789 0.0
C713 C 0.19854 0.28918 0.35086 0.0
O714 O 0.20797 0.33978 0.31519 0.0
O715 O 0.22076 0.38408 0.34006 0.0
O716 O 0.14994 0.36944 0.34269 0.0
O717 O 0.15943 0.26879 0.29305 0.0
O718 O 0.1126 0.27276 0.29158 0.0
O719 O 0.15135 0.34741 0.31142 0.0
C720 C 0.18904 0.37 0.41609 0.0
C721 C 0.18184 0.33598 0.41907 0.0
C722 C 0.17745 0.37809 0.45003 0.0
C723 C 0.17264 0.32317 0.43743 0.0
C724 C 0.18685 0.39094 0.43172 0.0
C725 C 0.17006 0.34398 0.45311 0.0
C726 C 0.19612 0.38282 0.3964 0.0
C727 C 0.22803 0.37205 0.32383 0.0
H728 H 0.15733 0.33132 0.27291 0.0
H729 H 0.13689 0.24875 0.21386 0.0
H730 H 0.16986 0.35334 0.24058 0.0
H731 H 0.1245 0.22689 0.24643 0.0
H732 H 0.18277 0.31911 0.40709 0.0
H733 H 0.17611 0.39497 0.46183 0.0
H734 H 0.16676 0.29667 0.4392 0.0
H735 H 0.19198 0.41712 0.42969 0.0
Eu736 Eu 0.682 0.84868 0.31794 0.0
Eu737 Eu 0.63638 0.82493 0.35645 0.0
C738 C 0.61601 0.77099 0.31798 0.0
C739 C 0.71017 0.86376 0.26521 0.0
C740 C 0.68938 0.83047 0.25451 0.0
C741 C 0.71937 0.8903 0.23435 0.0
C742 C 0.68388 0.82716 0.23383 0.0
C743 C 0.72511 0.89357 0.25498 0.0
C744 C 0.69877 0.85707 0.22356 0.0
C745 C 0.71674 0.86829 0.28697 0.0
O746 O 0.6741 0.80467 0.35901 0.0
O747 O 0.71674 0.84191 0.34069 0.0
C748 C 0.70613 0.81909 0.35379 0.0
O749 O 0.70103 0.8977 0.3389 0.0
O750 O 0.61061 0.78756 0.37787 0.0
O751 O 0.6088 0.83566 0.37893 0.0
O752 O 0.68738 0.87315 0.36801 0.0
C753 C 0.70532 0.90023 0.3583 0.0
O754 O 0.63028 0.84504 0.30887 0.0
O755 O 0.61935 0.85731 0.33994 0.0
O756 O 0.60345 0.78328 0.33135 0.0
O757 O 0.70518 0.88643 0.29646 0.0
O758 O 0.71196 0.84107 0.29573 0.0
O759 O 0.64813 0.78984 0.31327 0.0
C760 C 0.61809 0.81737 0.40926 0.0
C761 C 0.64917 0.84909 0.41544 0.0
C762 C 0.61824 0.79986 0.44237 0.0
C763 C 0.66471 0.85612 0.43483 0.0
C764 C 0.60255 0.79286 0.42286 0.0
C765 C 0.64963 0.83152 0.44849 0.0
C766 C 0.60387 0.80896 0.38828 0.0
C767 C 0.61409 0.8557 0.32061 0.0
H768 H 0.67735 0.80705 0.26208 0.0
H769 H 0.73147 0.91375 0.22682 0.0
H770 H 0.66761 0.80126 0.22587 0.0
H771 H 0.74128 0.91946 0.26297 0.0
H772 H 0.66195 0.86819 0.40514 0.0
H773 H 0.60599 0.78047 0.45261 0.0
H774 H 0.68925 0.88041 0.43891 0.0
H775 H 0.57874 0.76809 0.41829 0.0
Eu776 Eu 0.17894 0.82905 0.3621 0.0
Eu777 Eu 0.14489 0.83715 0.31953 0.0
C778 C 0.18364 0.90085 0.35423 0.0
C779 C 0.19277 0.82123 0.41733 0.0
C780 C 0.20655 0.85269 0.42994 0.0
C781 C 0.1625 0.78892 0.44436 0.0
C782 C 0.19838 0.85224 0.44953 0.0
C783 C 0.17076 0.78935 0.4248 0.0
C784 C 0.17632 0.82034 0.45698 0.0
C785 C 0.20178 0.82133 0.39664 0.0
O786 O 0.19492 0.83858 0.31288 0.0
O787 O 0.22478 0.85704 0.34405 0.0
C788 C 0.22435 0.85281 0.32463 0.0
O789 O 0.17418 0.78612 0.34036 0.0
O790 O 0.14921 0.86868 0.29532 0.0
O791 O 0.10425 0.81661 0.29447 0.0
O792 O 0.12874 0.78014 0.31942 0.0
C793 C 0.14851 0.76804 0.32626 0.0
O794 O 0.12057 0.8033 0.36334 0.0
O795 O 0.107 0.83328 0.34159 0.0
O796 O 0.17985 0.89135 0.33517 0.0
O797 O 0.17898 0.7952 0.38396 0.0
O798 O 0.21553 0.85117 0.38902 0.0
O799 O 0.17539 0.87785 0.36709 0.0
C800 C 0.1298 0.83422 0.26469 0.0
C801 C 0.14064 0.80943 0.2621 0.0
C802 C 0.1405 0.84724 0.23074 0.0
C803 C 0.15132 0.80359 0.24401 0.0
C804 C 0.12962 0.85297 0.24888 0.0
C805 C 0.15168 0.82261 0.22815 0.0
C806 C 0.12234 0.84297 0.28443 0.0
C807 C 0.09953 0.81401 0.35648 0.0
H808 H 0.22375 0.87771 0.42472 0.0
H809 H 0.14589 0.76387 0.44973 0.0
H810 H 0.20923 0.87693 0.45883 0.0
H811 H 0.16006 0.7646 0.41556 0.0
H812 H 0.14173 0.79521 0.27425 0.0
H813 H 0.14032 0.86217 0.21878 0.0
H814 H 0.16038 0.78492 0.24267 0.0
H815 H 0.1218 0.87255 0.2507 0.0
Eu816 Eu 0.81354 0.63902 0.64983 0.0
Eu817 Eu 0.84126 0.68543 0.69436 0.0
C818 C 0.81224 0.71053 0.65894 0.0
C819 C 0.80053 0.62113 0.59378 0.0
C820 C 0.81379 0.65689 0.59184 0.0
C821 C 0.80074 0.61043 0.55824 0.0
C822 C 0.82042 0.66932 0.57321 0.0
C823 C 0.79409 0.59805 0.57686 0.0
C824 C 0.81402 0.64626 0.55612 0.0
C825 C 0.79495 0.60808 0.61345 0.0
O826 O 0.78257 0.65156 0.6917 0.0
O827 O 0.77484 0.60542 0.6704 0.0
C828 C 0.76448 0.61822 0.68486 0.0
O829 O 0.84714 0.62155 0.66603 0.0
O830 O 0.83305 0.71378 0.71916 0.0
O831 O 0.87723 0.70534 0.72147 0.0
O832 O 0.83791 0.63375 0.69759 0.0
C833 C 0.84873 0.61831 0.68506 0.0
O834 O 0.8628 0.68898 0.64617 0.0
O835 O 0.88961 0.70357 0.67804 0.0
O836 O 0.83667 0.72114 0.67388 0.0
O837 O 0.82306 0.61377 0.62414 0.0
O838 O 0.77459 0.61457 0.62392 0.0
O839 O 0.79425 0.6775 0.65139 0.0
C840 C 0.84853 0.70155 0.75022 0.0
C841 C 0.83372 0.66552 0.75193 0.0
C842 C 0.84471 0.71152 0.78538 0.0
C843 C 0.82481 0.65264 0.77028 0.0
C844 C 0.85381 0.7244 0.76704 0.0
C845 C 0.83025 0.67548 0.78726 0.0
C846 C 0.8582 0.71523 0.73093 0.0
C847 C 0.89106 0.70556 0.65883 0.0
H848 H 0.81917 0.67522 0.60477 0.0
H849 H 0.79602 0.59194 0.54554 0.0
H850 H 0.83023 0.69696 0.57219 0.0
H851 H 0.78425 0.57044 0.57807 0.0
H852 H 0.82908 0.64733 0.73907 0.0
H853 H 0.84958 0.7299 0.79817 0.0
H854 H 0.81334 0.62472 0.77112 0.0
H855 H 0.86512 0.75226 0.76601 0.0
Eu856 Eu 0.34976 0.16995 0.65066 0.0
Eu857 Eu 0.30417 0.14987 0.6896 0.0
C858 C 0.2827 0.09286 0.65218 0.0
C859 C 0.37791 0.18428 0.59789 0.0
C860 C 0.35713 0.15143 0.58672 0.0
C861 C 0.38687 0.21247 0.5676 0.0
C862 C 0.35147 0.14917 0.56608 0.0
C863 C 0.39277 0.2147 0.58815 0.0
C864 C 0.3662 0.17971 0.55635 0.0
C865 C 0.38458 0.18781 0.61962 0.0
O866 O 0.34177 0.12964 0.69386 0.0
O867 O 0.3834 0.16199 0.67344 0.0
C868 C 0.37296 0.14141 0.68768 0.0
O869 O 0.37098 0.22007 0.67108 0.0
O870 O 0.27697 0.11397 0.71141 0.0
O871 O 0.2773 0.16311 0.71144 0.0
O872 O 0.35537 0.19798 0.70074 0.0
C873 C 0.3746 0.2238 0.69053 0.0
O874 O 0.29889 0.16727 0.6409 0.0
O875 O 0.28645 0.18021 0.67146 0.0
O876 O 0.27119 0.10604 0.6657 0.0
O877 O 0.37527 0.20761 0.6295 0.0
O878 O 0.3776 0.15968 0.62806 0.0
O879 O 0.31407 0.1112 0.64632 0.0
C880 C 0.28405 0.14498 0.74232 0.0
C881 C 0.31497 0.17667 0.74881 0.0
C882 C 0.28232 0.1275 0.77556 0.0
C883 C 0.32948 0.18372 0.76843 0.0
C884 C 0.26763 0.12052 0.75583 0.0
C885 C 0.31355 0.15911 0.78198 0.0
C886 C 0.27086 0.13643 0.7212 0.0
C887 C 0.28203 0.17795 0.65205 0.0
H888 H 0.34519 0.12754 0.59388 0.0
H889 H 0.39889 0.23639 0.56046 0.0
H890 H 0.3352 0.1236 0.55777 0.0
H891 H 0.40899 0.24027 0.59649 0.0
H892 H 0.32845 0.19571 0.7386 0.0
H893 H 0.26948 0.10812 0.78572 0.0
H894 H 0.35393 0.20797 0.7728 0.0
H895 H 0.24393 0.09578 0.75103 0.0
Eu896 Eu 0.84174 0.16184 0.69342 0.0
Eu897 Eu 0.81325 0.18134 0.65249 0.0
C898 C 0.85242 0.23899 0.6899 0.0
C899 C 0.85401 0.14905 0.74757 0.0
C900 C 0.85462 0.17919 0.75612 0.0
C901 C 0.83849 0.1231 0.77846 0.0
C902 C 0.84748 0.18135 0.77579 0.0
C903 C 0.84598 0.12111 0.75888 0.0
C904 C 0.83912 0.15321 0.7871 0.0
C905 C 0.85948 0.14525 0.7266 0.0
O906 O 0.87091 0.20162 0.65086 0.0
O907 O 0.88187 0.1691 0.67219 0.0
C908 C 0.89063 0.18938 0.65773 0.0
O909 O 0.8106 0.11132 0.67342 0.0
O910 O 0.82035 0.2177 0.63052 0.0
O911 O 0.77417 0.16597 0.62712 0.0
O912 O 0.81676 0.13357 0.64355 0.0
C913 C 0.81 0.10763 0.6541 0.0
O914 O 0.79425 0.16504 0.70059 0.0
O915 O 0.76598 0.15184 0.66927 0.0
O916 O 0.82671 0.22621 0.67554 0.0
O917 O 0.83132 0.12404 0.71481 0.0
O918 O 0.88004 0.17378 0.71877 0.0
O919 O 0.86565 0.22041 0.69661 0.0
C920 C 0.80218 0.18725 0.59857 0.0
C921 C 0.81087 0.16104 0.59493 0.0
C922 C 0.81423 0.20283 0.56509 0.0
C923 C 0.82085 0.15555 0.57659 0.0
C924 C 0.80397 0.2082 0.58356 0.0
C925 C 0.82266 0.17631 0.56142 0.0
C926 C 0.79379 0.19387 0.6185 0.0
C927 C 0.76549 0.15365 0.68864 0.0
H928 H 0.8602 0.20088 0.74755 0.0
H929 H 0.83251 0.10119 0.78689 0.0
H930 H 0.84786 0.20474 0.78203 0.0
H931 H 0.84514 0.09755 0.75249 0.0
H932 H 0.81042 0.14503 0.60639 0.0
H933 H 0.81541 0.21924 0.55367 0.0
H934 H 0.82792 0.13544 0.57443 0.0
H935 H 0.79781 0.22888 0.58618 0.0
C936 C 0.37232 0.91526 0.05779 0.0
C937 C 0.35036 0.87933 0.05144 0.0
H938 H 0.41644 0.96391 0.05246 0.0
C939 C 0.35459 0.86597 0.03299 0.0
H940 H 0.36935 0.92689 0.07154 0.0
C941 C 0.38108 0.88769 0.02168 0.0
C942 C 0.40422 0.92293 0.02882 0.0
H943 H 0.33856 0.83841 0.02764 0.0
H944 H 0.38464 0.8765 0.00796 0.0
C945 C 0.39915 0.93663 0.04675 0.0
C946 C 0.07845 0.43899 0.05706 0.0
C947 C 0.1073 0.44265 0.04756 0.0
H948 H 0.03405 0.44628 0.05629 0.0
C949 C 0.11407 0.45838 0.02979 0.0
H950 H 0.0724 0.42671 0.07067 0.0
C951 C 0.09229 0.46992 0.02162 0.0
C952 C 0.06287 0.46537 0.03084 0.0
H953 H 0.13622 0.4617 0.02219 0.0
H954 H 0.09809 0.48171 0.00784 0.0
C955 C 0.05633 0.44995 0.04872 0.0
C956 C 0.56696 0.65137 0.05599 0.0
C957 C 0.56801 0.67585 0.04353 0.0
H958 H 0.54885 0.59731 0.05909 0.0
C959 C 0.54896 0.66395 0.0247 0.0
H960 H 0.58154 0.65999 0.07056 0.0
C961 C 0.52979 0.62808 0.01824 0.0
C962 C 0.52998 0.60368 0.03038 0.0
H963 H 0.54922 0.68243 0.01492 0.0
H964 H 0.51604 0.61961 0.00346 0.0
C965 C 0.54835 0.6156 0.04941 0.0
C966 C 0.92356 0.34165 0.95951 0.0
C967 C 0.88737 0.323 0.96103 0.0
H968 H 0.97158 0.3906 0.96575 0.0
C969 C 0.87137 0.34055 0.96953 0.0
H970 H 0.9364 0.32869 0.95286 0.0
C971 C 0.89149 0.37586 0.9771 0.0
C972 C 0.92787 0.39435 0.97602 0.0
H973 H 0.8435 0.32663 0.97093 0.0
H974 H 0.87863 0.38852 0.98406 0.0
C975 C 0.9436 0.37709 0.96678 0.0
C976 C 0.62486 0.55822 0.95662 0.0
C977 C 0.65034 0.55082 0.96431 0.0
H978 H 0.575 0.55386 0.95895 0.0
C979 C 0.64337 0.53137 0.98075 0.0
H980 H 0.62891 0.57246 0.94374 0.0
C981 C 0.61205 0.52041 0.98953 0.0
C982 C 0.58705 0.52869 0.98207 0.0
H983 H 0.6625 0.52539 0.98716 0.0
H984 H 0.60771 0.50595 0.00232 0.0
C985 C 0.59377 0.5474 0.96536 0.0
C986 C 0.45265 0.07588 0.94715 0.0
C987 C 0.4607 0.10808 0.95734 0.0
H988 H 0.45018 0.02671 0.9487 0.0
C989 C 0.46912 0.11368 0.97801 0.0
H990 H 0.44531 0.07055 0.93129 0.0
C991 C 0.47171 0.08836 0.9881 0.0
C992 C 0.46602 0.0572 0.97761 0.0
H993 H 0.47553 0.13834 0.98622 0.0
H994 H 0.47996 0.09401 0.00387 0.0
C995 C 0.45534 0.05075 0.95716 0.0
C996 C 0.62569 0.06945 0.95245 0.0
C997 C 0.65519 0.0966 0.9642 0.0
H998 H 0.57181 0.0295 0.95097 0.0
C999 C 0.65143 0.10563 0.98383 0.0
H1000 H 0.62726 0.06232 0.93715 0.0
C1001 C 0.61928 0.08718 0.99166 0.0
C1002 C 0.59041 0.05902 0.98012 0.0
H1003 H 0.67362 0.12612 0.99343 0.0
H1004 H 0.61746 0.09401 0.00698 0.0
C1005 C 0.5938 0.05076 0.96034 0.0
C1006 C 0.88263 0.54683 0.98557 0.0
C1007 C 0.87898 0.54929 0.96514 0.0
H1008 H 0.90708 0.53427 0.00916 0.0
C1009 C 0.89755 0.53938 0.95261 0.0
H1010 H 0.8683 0.55364 0.99563 0.0
C1011 C 0.91975 0.52801 0.96038 0.0
C1012 C 0.92391 0.5263 0.98087 0.0
H1013 H 0.89566 0.54128 0.93683 0.0
H1014 H 0.93403 0.52108 0.95034 0.0
C1015 C 0.90482 0.53555 0.99333 0.0
C1016 C 0.46867 0.34716 0.98038 0.0
C1017 C 0.46275 0.34044 0.95963 0.0
H1018 H 0.47596 0.38214 0.00588 0.0
C1019 C 0.45764 0.36354 0.94859 0.0
H1020 H 0.47243 0.32955 0.9892 0.0
C1021 C 0.45984 0.39361 0.95805 0.0
C1022 C 0.46688 0.401 0.97875 0.0
H1023 H 0.45333 0.3591 0.93255 0.0
H1024 H 0.45673 0.41143 0.94908 0.0
C1025 C 0.47047 0.3771 0.98989 0.0
C1026 C 0.10582 0.61849 0.07033 0.0
C1027 C 0.12425 0.64965 0.06151 0.0
H1028 H 0.06422 0.56513 0.0668 0.0
C1029 C 0.11317 0.6511 0.042 0.0
H1030 H 0.11367 0.61686 0.08543 0.0
C1031 C 0.08497 0.62139 0.03122 0.0
C1032 C 0.06714 0.58988 0.03986 0.0
H1033 H 0.12709 0.67482 0.03486 0.0
H1034 H 0.0776 0.62296 0.01602 0.0
C1035 C 0.07741 0.58896 0.05967 0.0
C1036 C 0.36209 0.45769 0.0599 0.0
C1037 C 0.33025 0.44257 0.04765 0.0
H1038 H 0.41796 0.48174 0.06156 0.0
C1039 C 0.33135 0.44212 0.02698 0.0
H1040 H 0.36227 0.45828 0.07585 0.0
C1041 C 0.36329 0.45548 0.01874 0.0
C1042 C 0.39505 0.46967 0.03095 0.0
H1043 H 0.30742 0.43125 0.01709 0.0
H1044 H 0.36295 0.45415 0.00276 0.0
C1045 C 0.39406 0.471 0.05165 0.0
C1046 C 0.54485 0.8829 0.02995 0.0
C1047 C 0.58012 0.9029 0.03808 0.0
H1048 H 0.49991 0.8833 0.01667 0.0
C1049 C 0.59713 0.93964 0.03878 0.0
H1050 H 0.53072 0.85458 0.02942 0.0
C1051 C 0.57926 0.956 0.03187 0.0
C1052 C 0.54408 0.93603 0.02378 0.0
H1053 H 0.62446 0.9559 0.04447 0.0
H1054 H 0.59323 0.98437 0.03266 0.0
C1055 C 0.52708 0.89931 0.02272 0.0
C1056 C 0.0199 0.20919 0.36812 0.0
C1057 C 0.02332 0.21801 0.38876 0.0
H1058 H 0.04426 0.22184 0.341 0.0
C1059 C 0.05346 0.24858 0.39755 0.0
H1060 H 0.997 0.1857 0.36092 0.0
C1061 C 0.08036 0.26875 0.3863 0.0
C1062 C 0.07785 0.25918 0.36587 0.0
H1063 H 0.05659 0.25665 0.41329 0.0
H1064 H 0.10348 0.29177 0.39378 0.0
C1065 C 0.04696 0.22973 0.35672 0.0
C1066 C 0.74535 0.78065 0.38835 0.0
C1067 C 0.77637 0.78809 0.38002 0.0
H1068 H 0.69885 0.78432 0.38657 0.0
C1069 C 0.78463 0.80672 0.36329 0.0
H1070 H 0.73804 0.76603 0.40111 0.0
C1071 C 0.76219 0.81735 0.35496 0.0
C1072 C 0.73075 0.80917 0.36301 0.0
H1073 H 0.80847 0.81307 0.35663 0.0
H1074 H 0.76921 0.83144 0.34199 0.0
C1075 C 0.72274 0.79089 0.37989 0.0
C1076 C 0.22646 0.98573 0.38843 0.0
C1077 C 0.24028 0.01075 0.37487 0.0
H1078 H 0.19755 0.93126 0.39258 0.0
C1079 C 0.23327 -0.00056 0.35449 0.0
H1080 H 0.23161 0.99375 0.40424 0.0
C1081 C 0.21371 0.96375 0.34779 0.0
C1082 C 0.20089 0.93859 0.36135 0.0
H1083 H 0.24312 0.0182 0.3437 0.0
H1084 H 0.2094 0.95594 0.33198 0.0
C1085 C 0.20702 0.94996 0.38174 0.0
C1086 C 0.59048 0.68132 0.29313 0.0
C1087 C 0.55436 0.66245 0.29484 0.0
H1088 H 0.63819 0.73061 0.29881 0.0
C1089 C 0.53817 0.67994 0.30316 0.0
H1090 H 0.60346 0.6684 0.28661 0.0
C1091 C 0.55806 0.71549 0.31036 0.0
C1092 C 0.59437 0.73422 0.30904 0.0
H1093 H 0.51035 0.66585 0.30469 0.0
H1094 H 0.54508 0.72814 0.31716 0.0
C1095 C 0.61026 0.71694 0.30002 0.0
C1096 C 0.3215 0.89204 0.31911 0.0
C1097 C 0.32201 0.8905 0.29837 0.0
H1098 H 0.29064 0.88141 0.34363 0.0
C1099 C 0.28988 0.87507 0.28638 0.0
H1100 H 0.34563 0.90312 0.32884 0.0
C1101 C 0.25822 0.86235 0.29489 0.0
C1102 C 0.25784 0.8647 0.31564 0.0
H1103 H 0.28921 0.87371 0.27038 0.0
H1104 H 0.23409 0.85122 0.28515 0.0
C1105 C 0.28987 0.87938 0.32762 0.0
C1106 C 0.11885 0.40853 0.28402 0.0
C1107 C 0.13038 0.44224 0.29343 0.0
H1108 H 0.11423 0.35853 0.28625 0.0
C1109 C 0.14271 0.44984 0.31371 0.0
H1110 H 0.10841 0.4016 0.26855 0.0
C1111 C 0.14567 0.42488 0.324 0.0
C1112 C 0.13654 0.39213 0.31408 0.0
H1113 H 0.15188 0.47566 0.32135 0.0
H1114 H 0.15698 0.43195 0.33931 0.0
C1115 C 0.12204 0.38382 0.2942 0.0
C1116 C 0.29577 0.40561 0.28723 0.0
C1117 C 0.32514 0.4331 0.29889 0.0
H1118 H 0.24216 0.36509 0.28592 0.0
C1119 C 0.32149 0.44199 0.31856 0.0
H1120 H 0.29731 0.39855 0.27191 0.0
C1121 C 0.28955 0.42309 0.32653 0.0
C1122 C 0.26076 0.39467 0.31507 0.0
H1123 H 0.34362 0.46275 0.32806 0.0
H1124 H 0.28785 0.42988 0.34187 0.0
C1125 C 0.26405 0.38653 0.29525 0.0
C1126 C 0.56193 0.87791 0.28376 0.0
C1127 C 0.54624 0.89121 0.29646 0.0
H1128 H 0.59583 0.85645 0.28136 0.0
C1129 C 0.55208 0.89148 0.31702 0.0
H1130 H 0.55817 0.87759 0.26785 0.0
C1131 C 0.57366 0.8795 0.32475 0.0
C1132 C 0.59007 0.86698 0.31213 0.0
H1133 H 0.53998 0.90103 0.32721 0.0
H1134 H 0.57772 0.88045 0.3407 0.0
C1135 C 0.58369 0.86599 0.29152 0.0
C1136 C 0.12061 0.6896 0.28862 0.0
C1137 C 0.14082 0.67569 0.29613 0.0
H1138 H 0.10706 0.72964 0.29229 0.0
C1139 C 0.16151 0.69085 0.31437 0.0
H1140 H 0.10468 0.67871 0.27451 0.0
C1141 C 0.16308 0.72017 0.3245 0.0
C1142 C 0.14388 0.73486 0.31664 0.0
H1143 H 0.17688 0.68032 0.3207 0.0
H1144 H 0.1799 0.73171 0.33831 0.0
C1145 C 0.12208 0.71887 0.29879 0.0
C1146 C 0.76514 0.96801 0.40055 0.0
C1147 C 0.78875 0.99538 0.39033 0.0
H1148 H 0.72037 0.91649 0.39848 0.0
C1149 C 0.78349 0.99207 0.36955 0.0
H1150 H 0.76876 0.96967 0.41656 0.0
C1151 C 0.75569 0.9616 0.35916 0.0
C1152 C 0.73274 0.93371 0.36935 0.0
H1153 H 0.80111 0.01293 0.36132 0.0
H1154 H 0.75275 0.95963 0.34312 0.0
C1155 C 0.73749 0.93745 0.39017 0.0
C1156 C 0.01044 0.80118 0.36725 0.0
C1157 C 0.00369 0.78236 0.38394 0.0
H1158 H 0.04569 0.82579 0.34542 0.0
C1159 C 0.02916 0.77495 0.39169 0.0
H1160 H 0.99129 0.80703 0.36073 0.0
C1161 C 0.06013 0.7854 0.38281 0.0
C1162 C 0.06666 0.80368 0.36593 0.0
H1163 H 0.02523 0.76107 0.4047 0.0
H1164 H 0.07895 0.77902 0.38925 0.0
C1165 C 0.04156 0.81173 0.35836 0.0
C1166 C 0.21891 0.21811 0.36233 0.0
C1167 C 0.25364 0.23809 0.37133 0.0
H1168 H 0.17422 0.21853 0.3487 0.0
C1169 C 0.27006 0.27488 0.37307 0.0
H1170 H 0.20526 0.18971 0.36098 0.0
C1171 C 0.25207 0.29127 0.36637 0.0
C1172 C 0.21736 0.27133 0.3575 0.0
H1173 H 0.29699 0.29115 0.37948 0.0
H1174 H 0.26558 0.31969 0.36801 0.0
C1175 C 0.20102 0.23458 0.35538 0.0
C1176 C 0.69822 0.58673 0.72246 0.0
C1177 C 0.67997 0.55025 0.7174 0.0
H1178 H 0.73865 0.63667 0.71605 0.0
C1179 C 0.68792 0.53635 0.70054 0.0
H1180 H 0.69241 0.59826 0.7352 0.0
C1181 C 0.71455 0.55842 0.68945 0.0
C1182 C 0.73363 0.59483 0.69496 0.0
H1183 H 0.67451 0.50829 0.69636 0.0
H1184 H 0.72084 0.54684 0.67695 0.0
C1185 C 0.72464 0.60874 0.71137 0.0
C1186 C 0.41345 0.1058 0.72356 0.0
C1187 C 0.44123 0.10781 0.71356 0.0
H1188 H 0.36985 0.11445 0.72316 0.0
C1189 C 0.44709 0.12205 0.69534 0.0
H1190 H 0.40815 0.09471 0.73755 0.0
C1191 C 0.4254 0.13364 0.68717 0.0
C1192 C 0.39697 0.13073 0.69687 0.0
H1193 H 0.46844 0.12411 0.68736 0.0
H1194 H 0.43049 0.14417 0.67302 0.0
C1195 C 0.39138 0.11687 0.71523 0.0
C1196 C 0.88518 0.33631 0.69352 0.0
C1197 C 0.90561 0.34806 0.71194 0.0
H1198 H 0.85163 0.2923 0.67223 0.0
C1199 C 0.90674 0.32351 0.72357 0.0
H1200 H 0.88369 0.35479 0.68438 0.0
C1201 C 0.8887 0.28789 0.71658 0.0
C1202 C 0.86876 0.27614 0.69799 0.0
H1203 H 0.9224 0.332 0.7378 0.0
H1204 H 0.89072 0.2696 0.72566 0.0
C1205 C 0.86664 0.30059 0.68666 0.0
C1206 C 0.21327 0.99692 0.64833 0.0
C1207 C 0.22037 0.9833 0.63111 0.0
H1208 H 0.22702 0.04229 0.66828 0.0
C1209 C 0.24711 0.00617 0.62026 0.0
H1210 H 0.19256 0.97982 0.65683 0.0
C1211 C 0.26716 0.04198 0.6269 0.0
C1212 C 0.26033 0.05555 0.64429 0.0
H1213 H 0.25308 0.99619 0.60695 0.0
H1214 H 0.28812 0.05895 0.6185 0.0
C1215 C 0.23286 0.03271 0.65477 0.0
C1216 C 0.97971 0.20097 0.64831 0.0
C1217 C 0.98652 0.21807 0.63096 0.0
H1218 H 0.94423 0.17832 0.67031 0.0
C1219 C 0.96114 0.22481 0.62233 0.0
H1220 H 0.99853 0.19504 0.65524 0.0
C1221 C 0.93013 0.21536 0.63101 0.0
C1222 C 0.92349 0.1987 0.6485 0.0
H1223 H 0.96562 0.23824 0.60912 0.0
H1224 H 0.91141 0.22132 0.62397 0.0
C1225 C 0.94851 0.19126 0.65692 0.0
C1226 C 0.78348 0.75105 0.62026 0.0
C1227 C 0.80272 0.78677 0.62745 0.0
H1228 H 0.77097 0.69892 0.62469 0.0
C1229 C 0.82294 0.79701 0.64593 0.0
H1230 H 0.76736 0.74242 0.60617 0.0
C1231 C 0.82509 0.77209 0.6566 0.0
C1232 C 0.80686 0.73647 0.64904 0.0
H1233 H 0.83822 0.82444 0.65175 0.0
H1234 H 0.84181 0.78088 0.67047 0.0
C1235 C 0.78542 0.72614 0.63096 0.0
C1236 C 0.98888 0.76261 0.65585 0.0
C1237 C 0.99068 0.76099 0.63523 0.0
H1238 H 0.95611 0.74637 0.67954 0.0
C1239 C 0.95943 0.74229 0.62254 0.0
H1240 H 0.01257 0.77658 0.66601 0.0
C1241 C 0.92715 0.72511 0.63026 0.0
C1242 C 0.92532 0.72598 0.65088 0.0
H1243 H 0.95993 0.74091 0.6066 0.0
H1244 H 0.90366 0.71063 0.61997 0.0
C1245 C 0.95655 0.74519 0.6636 0.0
C1246 C 0.21281 0.20427 0.64517 0.0
C1247 C 0.21287 0.20952 0.625 0.0
H1248 H 0.2346 0.19048 0.66951 0.0
C1249 C 0.23538 0.20356 0.61365 0.0
H1250 H 0.19611 0.20905 0.65438 0.0
C1251 C 0.25746 0.1928 0.62232 0.0
C1252 C 0.25783 0.18817 0.6426 0.0
H1253 H 0.23588 0.20718 0.59805 0.0
H1254 H 0.2746 0.18862 0.61319 0.0
C1255 C 0.23511 0.19388 0.65388 0.0
C1256 C 0.79485 0.03725 0.6137 0.0
C1257 C 0.8031 0.01566 0.62428 0.0
H1258 H 0.79052 0.08339 0.61491 0.0
C1259 C 0.81103 0.02299 0.64493 0.0
H1260 H 0.78881 0.03219 0.59774 0.0
C1261 C 0.81165 0.05205 0.6548 0.0
C1262 C 0.80493 0.07457 0.64411 0.0
H1263 H 0.81722 0.00651 0.65339 0.0
H1264 H 0.81874 0.05761 0.67068 0.0
C1265 C 0.796 0.0666 0.62351 0.0
C1266 C 0.45812 0.31171 0.70185 0.0
C1267 C 0.45842 0.31897 0.72231 0.0
H1268 H 0.43108 0.27617 0.67567 0.0
C1269 C 0.43009 0.29568 0.73205 0.0
H1270 H 0.47957 0.32943 0.69398 0.0
C1271 C 0.40249 0.26506 0.72165 0.0
C1272 C 0.40245 0.25741 0.70124 0.0
H1273 H 0.42981 0.3006 0.74785 0.0
H1274 H 0.38141 0.24722 0.72967 0.0
C1275 C 0.43027 0.28135 0.69138 0.0
C1276 C 0.69817 0.12759 0.72607 0.0
C1277 C 0.66648 0.11288 0.71372 0.0
H1278 H 0.75407 0.15187 0.72794 0.0
C1279 C 0.66789 0.11349 0.6931 0.0
H1280 H 0.69812 0.12736 0.74198 0.0
C1281 C 0.69998 0.12743 0.685 0.0
C1282 C 0.73159 0.14118 0.69729 0.0
H1283 H 0.64409 0.10299 0.68314 0.0
H1284 H 0.6999 0.1269 0.66904 0.0
C1285 C 0.73029 0.1415 0.71796 0.0
C1286 C 0.89325 0.56416 0.6875 0.0
C1287 C 0.90206 0.56721 0.70802 0.0
H1288 H 0.86944 0.5779 0.6641 0.0
C1289 C 0.89164 0.58562 0.72092 0.0
H1290 H 0.90115 0.55026 0.67721 0.0
C1291 C 0.87329 0.6012 0.71346 0.0
C1292 C 0.86527 0.599 0.6929 0.0
H1293 H 0.89772 0.58801 0.73681 0.0
H1294 H 0.86612 0.61565 0.72383 0.0
C1295 C 0.87517 0.58004 0.68 0.0
C1296 C 0.48763 0.96259 0.16253 0.0
C1297 C 0.47411 0.97763 0.1757 0.0
H1298 H 0.50567 0.96176 0.13403 0.0
C1299 C 0.46797 0.004 0.16947 0.0
H1300 H 0.49224 0.9419 0.16672 0.0
C1301 C 0.47582 0.01551 0.15075 0.0
C1302 C 0.48999 0.00095 0.13772 0.0
H1303 H 0.45817 0.01663 0.17932 0.0
H1304 H 0.47168 0.03655 0.14671 0.0
C1305 C 0.49545 0.97407 0.1438 0.0
C1306 C 0.02284 0.47981 0.16399 0.0
C1307 C 0.03857 0.51395 0.17384 0.0
H1308 H 0.9917 0.44516 0.13815 0.0
C1309 C 0.03142 0.53853 0.16589 0.0
H1310 H 0.02803 0.46038 0.16971 0.0
C1311 C 0.01067 0.52983 0.14791 0.0
C1312 C 0.99659 0.49635 0.13747 0.0
H1313 H 0.04255 0.56481 0.17338 0.0
H1314 H 0.00637 0.54963 0.1419 0.0
C1315 C 1.00201 0.47108 0.14594 0.0
C1316 C 0.51379 0.52305 0.17416 0.0
C1317 C 0.4867 0.4943 0.18194 0.0
H1318 H 0.5409 0.54305 0.14874 0.0
C1319 C 0.46505 0.4633 0.16934 0.0
H1320 H 0.53069 0.54736 0.18352 0.0
C1321 C 0.47102 0.46076 0.14947 0.0
C1322 C 0.49846 0.48935 0.14177 0.0
H1323 H 0.4441 0.4407 0.17498 0.0
H1324 H 0.45419 0.43641 0.14012 0.0
C1325 C 0.51948 0.52067 0.15425 0.0
C1326 C 0.01211 0.54316 0.84182 0.0
C1327 C 0.01447 0.51792 0.82936 0.0
H1328 H 0.01564 0.56447 0.87166 0.0
C1329 C 0.02209 0.49407 0.83789 0.0
H1330 H 0.00647 0.56199 0.83565 0.0
C1331 C 0.02728 0.49544 0.85848 0.0
C1332 C 0.02527 0.5209 0.87094 0.0
H1333 H 0.02372 0.4741 0.82865 0.0
H1334 H 0.03338 0.4769 0.86464 0.0
C1335 C 0.01762 0.54474 0.8624 0.0
C1336 C 0.53526 0.51644 0.84819 0.0
C1337 C 0.526 0.48203 0.84095 0.0
H1338 H 0.53034 0.54946 0.87089 0.0
C1339 C 0.50173 0.45397 0.85054 0.0
H1340 H 0.55397 0.53863 0.84119 0.0
C1341 C 0.48835 0.46016 0.86746 0.0
C1342 C 0.49874 0.49456 0.87524 0.0
H1343 H 0.49329 0.42709 0.84506 0.0
H1344 H 0.47013 0.43792 0.87464 0.0
C1345 C 0.52172 0.52265 0.86518 0.0
C1346 C 0.49445 0.02024 0.84588 0.0
C1347 C 0.50983 0.00796 0.83234 0.0
H1348 H 0.47559 0.01753 0.87442 0.0
C1349 C 0.51876 0.9831 0.83798 0.0
H1350 H 0.48744 0.03953 0.84209 0.0
C1351 C 0.5119 0.97042 0.85653 0.0
C1352 C 0.49626 0.98252 0.87001 0.0
H1353 H 0.5303 0.9728 0.82785 0.0
H1354 H 0.519 0.95122 0.86036 0.0
C1355 C 0.48789 0.00781 0.86449 0.0
C1356 C 0.12705 0.32484 0.50123 0.0
C1357 C 0.14169 0.30676 0.51041 0.0
H1358 H 0.12421 0.35039 0.47607 0.0
C1359 C 0.16472 0.29982 0.50012 0.0
H1360 H 0.10868 0.33008 0.50842 0.0
C1361 C 0.17344 0.3113 0.48144 0.0
C1362 C 0.15956 0.33024 0.47258 0.0
H1363 H 0.17698 0.28647 0.50676 0.0
H1364 H 0.19191 0.30625 0.4742 0.0
C1365 C 0.13596 0.33651 0.48263 0.0
C1366 C 0.69347 0.8207 0.49489 0.0
C1367 C 0.71126 0.85514 0.50442 0.0
H1368 H 0.66007 0.7862 0.46956 0.0
C1369 C 0.70575 0.88072 0.49648 0.0
H1370 H 0.69735 0.80051 0.50069 0.0
C1371 C 0.68428 0.87252 0.47883 0.0
C1372 C 0.668 0.8386 0.46866 0.0
H1373 H 0.71854 0.90729 0.50376 0.0
H1374 H 0.68108 0.893 0.47288 0.0
C1375 C 0.67205 0.8125 0.47712 0.0
C1376 C 0.12766 0.79643 0.50296 0.0
C1377 C 0.15462 0.81737 0.51813 0.0
H1378 H 0.11331 0.78103 0.47174 0.0
C1379 C 0.18849 0.8398 0.51297 0.0
H1380 H 0.10134 0.77879 0.50646 0.0
C1381 C 0.19537 0.84098 0.49316 0.0
C1382 C 0.16857 0.81972 0.47799 0.0
H1383 H 0.20974 0.85665 0.52428 0.0
H1384 H 0.22188 0.85815 0.48976 0.0
C1385 C 0.13459 0.79749 0.48311 0.0
C1386 C 0.67924 0.8735 0.17165 0.0
C1387 C 0.68296 0.84837 0.15995 0.0
H1388 H 0.68125 0.89585 0.20096 0.0
C1389 C 0.69161 0.82588 0.1693 0.0
H1390 H 0.6728 0.89131 0.16483 0.0
C1391 C 0.69638 0.82844 0.18997 0.0
C1392 C 0.69294 0.85376 0.20166 0.0
H1393 H 0.69431 0.80605 0.16064 0.0
H1394 H 0.70326 0.81093 0.1968 0.0
C1395 C 0.68433 0.87627 0.1923 0.0
C1396 C 0.20262 0.84115 0.18295 0.0
C1397 C 0.19479 0.80728 0.17558 0.0
H1398 H 0.19539 0.87264 0.20548 0.0
C1399 C 0.17076 0.77846 0.18478 0.0
H1400 H 0.22115 0.86388 0.17625 0.0
C1401 C 0.15601 0.78343 0.20142 0.0
C1402 C 0.16486 0.81735 0.20931 0.0
H1403 H 0.16351 0.75195 0.17918 0.0
H1404 H 0.13786 0.76064 0.20824 0.0
C1405 C 0.18782 0.84614 0.19967 0.0
C1406 C 0.15797 0.35273 0.18024 0.0
C1407 C 0.1743 0.34132 0.16687 0.0
H1408 H 0.13874 0.34956 0.2087 0.0
C1409 C 0.18452 0.31752 0.17278 0.0
H1410 H 0.14995 0.3712 0.17626 0.0
C1411 C 0.17808 0.30506 0.19142 0.0
C1412 C 0.16152 0.31631 0.20473 0.0
H1413 H 0.19683 0.30786 0.16281 0.0
H1414 H 0.18626 0.28674 0.19545 0.0
C1415 C 0.15178 0.34051 0.19892 0.0
C1416 C 0.79783 0.66242 0.83845 0.0
C1417 C 0.8069 0.6381 0.84487 0.0
H1418 H 0.79794 0.69317 0.81534 0.0
C1419 C 0.82271 0.62536 0.83191 0.0
H1420 H 0.78596 0.67307 0.84811 0.0
C1421 C 0.82972 0.637 0.81314 0.0
C1422 C 0.82136 0.66192 0.8069 0.0
H1423 H 0.82982 0.60644 0.83632 0.0
H1424 H 0.84248 0.6271 0.8037 0.0
C1425 C 0.80508 0.67427 0.81975 0.0
C1426 C 0.36761 0.20795 0.83046 0.0
C1427 C 0.37342 0.18254 0.8384 0.0
H1428 H 0.34328 0.22014 0.80664 0.0
C1429 C 0.35622 0.14821 0.82873 0.0
H1430 H 0.37993 0.23442 0.83785 0.0
C1431 C 0.33521 0.14002 0.81081 0.0
C1432 C 0.33103 0.16602 0.80234 0.0
H1433 H 0.36034 0.12815 0.83451 0.0
H1434 H 0.32375 0.11385 0.80312 0.0
C1435 C 0.3466 0.19977 0.81264 0.0
C1436 C 0.79626 0.12832 0.83476 0.0
C1437 C 0.81884 0.15798 0.84809 0.0
H1438 H 0.78508 0.10353 0.80498 0.0
C1439 C 0.84731 0.18657 0.84106 0.0
H1440 H 0.77423 0.10587 0.83982 0.0
C1441 C 0.85342 0.18533 0.82117 0.0
C1442 C 0.83144 0.15528 0.80795 0.0
H1443 H 0.86495 0.20988 0.851 0.0
H1444 H 0.87589 0.20752 0.81624 0.0
C1445 C 0.80264 0.12689 0.8149 0.0
C1446 C 0.347 0.19924 0.50523 0.0
C1447 C 0.35123 0.17509 0.49293 0.0
H1448 H 0.34833 0.21954 0.53495 0.0
C1449 C 0.35975 0.15196 0.50162 0.0
H1450 H 0.34062 0.2175 0.49892 0.0
C1451 C 0.36408 0.15307 0.52222 0.0
C1452 C 0.36033 0.17757 0.53451 0.0
H1453 H 0.36282 0.13284 0.49247 0.0
H1454 H 0.371 0.1352 0.52854 0.0
C1455 C 0.35166 0.20058 0.52582 0.0
C1456 C 0.83555 0.12944 0.51694 0.0
C1457 C 0.86208 0.15737 0.50836 0.0
H1458 H 0.80179 0.1136 0.54006 0.0
C1459 C 0.87313 0.19197 0.51616 0.0
H1460 H 0.82588 0.10251 0.51097 0.0
C1461 C 0.85927 0.19837 0.53294 0.0
C1462 C 0.83409 0.17026 0.54214 0.0
H1463 H 0.89353 0.21399 0.50982 0.0
H1464 H 0.8694 0.22522 0.53924 0.0
C1465 C 0.82172 0.1358 0.53359 0.0
C1466 C 0.85714 0.70388 0.51511 0.0
C1467 C 0.8344 0.68355 0.49812 0.0
H1468 H 0.86885 0.70815 0.54656 0.0
C1469 C 0.80496 0.65096 0.50047 0.0
H1470 H 0.87992 0.7292 0.51396 0.0
C1471 C 0.79835 0.6391 0.51919 0.0
C1472 C 0.82105 0.65934 0.53618 0.0
H1473 H 0.78708 0.63426 0.48776 0.0
H1474 H 0.77517 0.61406 0.52032 0.0
C1475 C 0.85054 0.69196 0.53388 0.0
loop_
_geom_bond_atom_site_label_1
_geom_bond_atom_site_label_2
_geom_bond_distance
_geom_bond_site_symmetry_2
_ccdc_geom_bond_type
P0 O11 1.490 . S
P0 C14 1.812 . S
P0 C20 1.803 . S
P0 C26 1.819 . S
H1 C15 0.941 . S
H2 C16 0.939 . S
H3 C18 0.940 . S
H4 C19 0.940 . S
H5 C21 0.939 . S
H6 C22 0.942 . S
H7 C24 0.940 . S
H8 C25 0.939 . S
H9 C27 0.941 . S
H10 C31 0.939 . S
O11 P0 1.490 . S
H12 C28 0.939 . S
H13 C30 0.940 . S
C14 P0 1.812 . S
C14 C15 1.389 . S
C14 C19 1.391 . S
C15 H1 0.941 . S
C15 C14 1.389 . S
C15 C16 1.397 . S
C16 H2 0.939 . S
C16 C15 1.397 . S
C16 C17 1.378 . S
C17 C16 1.378 . S
C17 C18 1.378 . S
C18 H3 0.940 . S
C18 C17 1.378 . S
C18 C19 1.396 . S
C19 H4 0.940 . S
C19 C14 1.391 . S
C19 C18 1.396 . S
C20 P0 1.803 . S
C20 C21 1.378 . S
C20 C25 1.400 . S
C21 H5 0.939 . S
C21 C20 1.378 . S
C21 C22 1.361 . S
C22 H6 0.942 . S
C22 C21 1.361 . S
C22 C23 1.369 . S
C23 C22 1.369 . S
C23 C24 1.404 . S
C24 H7 0.940 . S
C24 C23 1.404 . S
C24 C25 1.389 . S
C25 H8 0.939 . S
C25 C20 1.400 . S
C25 C24 1.389 . S
C26 P0 1.819 . S
C26 C27 1.391 . S
C26 C31 1.391 . S
C27 H9 0.941 . S
C27 C26 1.391 . S
C27 C28 1.396 . S
C28 H12 0.939 . S
C28 C27 1.396 . S
C28 C29 1.397 . S
C29 C28 1.397 . S
C29 C30 1.385 . S
C30 H13 0.940 . S
C30 C29 1.385 . S
C30 C31 1.388 . S
C31 H10 0.939 . S
C31 C26 1.391 . S
C31 C30 1.388 . S
P32 O43 1.490 . S
P32 C46 1.812 . S
P32 C52 1.803 . S
P32 C58 1.819 . S
H33 C47 0.941 . S
H34 C48 0.939 . S
H35 C50 0.940 . S
H36 C51 0.940 . S
H37 C53 0.939 . S
H38 C54 0.942 1_455 S
H39 C56 0.940 . S
H40 C57 0.939 . S
H41 C59 0.941 . S
H42 C63 0.939 . S
O43 P32 1.490 . S
H44 C60 0.939 . S
H45 C62 0.940 . S
C46 P32 1.812 . S
C46 C47 1.389 . S
C46 C51 1.391 . S
C47 H33 0.941 . S
C47 C46 1.389 . S
C47 C48 1.397 . S
C48 H34 0.939 . S
C48 C47 1.397 . S
C48 C49 1.378 . S
C49 C48 1.378 . S
C49 C50 1.378 . S
C50 H35 0.940 . S
C50 C49 1.378 . S
C50 C51 1.396 . S
C51 H36 0.940 . S
C51 C46 1.391 . S
C51 C50 1.396 . S
C52 P32 1.803 . S
C52 C53 1.378 . S
C52 C57 1.400 . S
C53 H37 0.939 . S
C53 C52 1.378 . S
C53 C54 1.361 . S
C54 H38 0.942 1_655 S
C54 C53 1.361 . S
C54 C55 1.369 . S
C55 C54 1.369 . S
C55 C56 1.404 . S
C56 H39 0.940 . S
C56 C55 1.404 . S
C56 C57 1.389 . S
C57 H40 0.939 . S
C57 C52 1.400 . S
C57 C56 1.389 . S
C58 P32 1.819 . S
C58 C59 1.391 . S
C58 C63 1.391 . S
C59 H41 0.941 . S
C59 C58 1.391 . S
C59 C60 1.396 . S
C60 H44 0.939 . S
C60 C59 1.396 . S
C60 C61 1.397 . S
C61 C60 1.397 . S
C61 C62 1.385 . S
C62 H45 0.940 . S
C62 C61 1.385 . S
C62 C63 1.388 . S
C63 H42 0.939 . S
C63 C58 1.391 . S
C63 C62 1.388 . S
P64 O75 1.490 . S
P64 C78 1.812 . S
P64 C84 1.803 . S
P64 C90 1.819 . S
H65 C79 0.941 . S
H66 C80 0.939 . S
H67 C82 0.940 . S
H68 C83 0.940 . S
H69 C85 0.939 . S
H70 C86 0.942 . S
H71 C88 0.940 . S
H72 C89 0.939 . S
H73 C91 0.941 . S
H74 C95 0.939 . S
O75 P64 1.490 . S
H76 C92 0.939 . S
H77 C94 0.940 . S
C78 P64 1.812 . S
C78 C79 1.389 . S
C78 C83 1.391 . S
C79 H65 0.941 . S
C79 C78 1.389 . S
C79 C80 1.397 . S
C80 H66 0.939 . S
C80 C79 1.397 . S
C80 C81 1.378 . S
C81 C80 1.378 . S
C81 C82 1.378 . S
C82 H67 0.940 . S
C82 C81 1.378 . S
C82 C83 1.396 . S
C83 H68 0.940 . S
C83 C78 1.391 . S
C83 C82 1.396 . S
C84 P64 1.803 . S
C84 C85 1.378 . S
C84 C89 1.400 . S
C85 H69 0.939 . S
C85 C84 1.378 . S
C85 C86 1.361 . S
C86 H70 0.942 . S
C86 C85 1.361 . S
C86 C87 1.369 . S
C87 C86 1.369 . S
C87 C88 1.404 . S
C88 H71 0.940 . S
C88 C87 1.404 . S
C88 C89 1.389 . S
C89 H72 0.939 . S
C89 C84 1.400 . S
C89 C88 1.389 . S
C90 P64 1.819 . S
C90 C91 1.391 . S
C90 C95 1.391 . S
C91 H73 0.941 . S
C91 C90 1.391 . S
C91 C92 1.396 . S
C92 H76 0.939 . S
C92 C91 1.396 . S
C92 C93 1.397 . S
C93 C92 1.397 . S
C93 C94 1.385 . S
C94 H77 0.940 . S
C94 C93 1.385 . S
C94 C95 1.388 . S
C95 H74 0.939 . S
C95 C90 1.391 . S
C95 C94 1.388 . S
P96 O107 1.490 . S
P96 C110 1.812 . S
P96 C116 1.803 . S
P96 C122 1.819 . S
H97 C111 0.941 . S
H98 C112 0.939 . S
H99 C114 0.940 . S
H100 C115 0.940 . S
H101 C117 0.939 . S
H102 C118 0.942 . S
H103 C120 0.940 . S
H104 C121 0.939 . S
H105 C123 0.941 . S
H106 C127 0.939 . S
O107 P96 1.490 . S
H108 C124 0.939 . S
H109 C126 0.940 . S
C110 P96 1.812 . S
C110 C111 1.389 . S
C110 C115 1.391 . S
C111 H97 0.941 . S
C111 C110 1.389 . S
C111 C112 1.397 . S
C112 H98 0.939 . S
C112 C111 1.397 . S
C112 C113 1.378 . S
C113 C112 1.378 . S
C113 C114 1.378 . S
C114 H99 0.940 . S
C114 C113 1.378 . S
C114 C115 1.396 . S
C115 H100 0.940 . S
C115 C110 1.391 . S
C115 C114 1.396 . S
C116 P96 1.803 . S
C116 C117 1.378 . S
C116 C121 1.400 . S
C117 H101 0.939 . S
C117 C116 1.378 . S
C117 C118 1.361 . S
C118 H102 0.942 . S
C118 C117 1.361 . S
C118 C119 1.369 . S
C119 C118 1.369 . S
C119 C120 1.404 . S
C120 H103 0.940 . S
C120 C119 1.404 . S
C120 C121 1.389 . S
C121 H104 0.939 . S
C121 C116 1.400 . S
C121 C120 1.389 . S
C122 P96 1.819 . S
C122 C123 1.391 . S
C122 C127 1.391 . S
C123 H105 0.941 . S
C123 C122 1.391 . S
C123 C124 1.396 . S
C124 H108 0.939 . S
C124 C123 1.396 . S
C124 C125 1.397 . S
C125 C124 1.397 . S
C125 C126 1.385 . S
C126 H109 0.940 . S
C126 C125 1.385 . S
C126 C127 1.388 . S
C127 H106 0.939 . S
C127 C122 1.391 . S
C127 C126 1.388 . S
P128 O139 1.490 . S
P128 C142 1.812 . S
P128 C148 1.803 . S
P128 C154 1.819 . S
H129 C143 0.941 . S
H130 C144 0.939 . S
H131 C146 0.940 . S
H132 C147 0.940 . S
H133 C149 0.939 . S
H134 C150 0.942 . S
H135 C152 0.940 . S
H136 C153 0.939 . S
H137 C155 0.941 . S
H138 C159 0.939 . S
O139 P128 1.490 . S
H140 C156 0.939 . S
H141 C158 0.940 . S
C142 P128 1.812 . S
C142 C143 1.389 . S
C142 C147 1.391 . S
C143 H129 0.941 . S
C143 C142 1.389 . S
C143 C144 1.397 . S
C144 H130 0.939 . S
C144 C143 1.397 . S
C144 C145 1.378 . S
C145 C144 1.378 . S
C145 C146 1.378 . S
C146 H131 0.940 . S
C146 C145 1.378 . S
C146 C147 1.396 . S
C147 H132 0.940 . S
C147 C142 1.391 . S
C147 C146 1.396 . S
C148 P128 1.803 . S
C148 C149 1.378 . S
C148 C153 1.400 . S
C149 H133 0.939 . S
C149 C148 1.378 . S
C149 C150 1.361 . S
C150 H134 0.942 . S
C150 C149 1.361 . S
C150 C151 1.369 . S
C151 C150 1.369 . S
C151 C152 1.404 . S
C152 H135 0.940 . S
C152 C151 1.404 . S
C152 C153 1.389 . S
C153 H136 0.939 . S
C153 C148 1.400 . S
C153 C152 1.389 . S
C154 P128 1.819 . S
C154 C155 1.391 . S
C154 C159 1.391 . S
C155 H137 0.941 . S
C155 C154 1.391 . S
C155 C156 1.396 . S
C156 H140 0.939 . S
C156 C155 1.396 . S
C156 C157 1.397 . S
C157 C156 1.397 . S
C157 C158 1.385 . S
C158 H141 0.940 . S
C158 C157 1.385 . S
C158 C159 1.388 . S
C159 H138 0.939 . S
C159 C154 1.391 . S
C159 C158 1.388 . S
P160 O171 1.490 . S
P160 C174 1.812 . S
P160 C180 1.803 . S
P160 C186 1.819 . S
H161 C175 0.941 . S
H162 C176 0.939 . S
H163 C178 0.940 . S
H164 C179 0.940 . S
H165 C181 0.939 . S
H166 C182 0.942 . S
H167 C184 0.940 . S
H168 C185 0.939 . S
H169 C187 0.941 . S
H170 C191 0.939 . S
O171 P160 1.490 . S
H172 C188 0.939 . S
H173 C190 0.940 . S
C174 P160 1.812 . S
C174 C175 1.389 . S
C174 C179 1.391 . S
C175 H161 0.941 . S
C175 C174 1.389 . S
C175 C176 1.397 . S
C176 H162 0.939 . S
C176 C175 1.397 . S
C176 C177 1.378 . S
C177 C176 1.378 . S
C177 C178 1.378 . S
C178 H163 0.940 . S
C178 C177 1.378 . S
C178 C179 1.396 . S
C179 H164 0.940 . S
C179 C174 1.391 . S
C179 C178 1.396 . S
C180 P160 1.803 . S
C180 C181 1.378 . S
C180 C185 1.400 . S
C181 H165 0.939 . S
C181 C180 1.378 . S
C181 C182 1.361 . S
C182 H166 0.942 . S
C182 C181 1.361 . S
C182 C183 1.369 . S
C183 C182 1.369 . S
C183 C184 1.404 . S
C184 H167 0.940 . S
C184 C183 1.404 . S
C184 C185 1.389 . S
C185 H168 0.939 . S
C185 C180 1.400 . S
C185 C184 1.389 . S
C186 P160 1.819 . S
C186 C187 1.391 . S
C186 C191 1.391 . S
C187 H169 0.941 . S
C187 C186 1.391 . S
C187 C188 1.396 . S
C188 H172 0.939 . S
C188 C187 1.396 . S
C188 C189 1.397 . S
C189 C188 1.397 . S
C189 C190 1.385 . S
C190 H173 0.940 . S
C190 C189 1.385 . S
C190 C191 1.388 . S
C191 H170 0.939 . S
C191 C186 1.391 . S
C191 C190 1.388 . S
P192 O203 1.490 . S
P192 C206 1.812 1_455 S
P192 C212 1.803 1_455 S
P192 C218 1.819 . S
H193 C207 0.941 1_455 S
H194 C208 0.939 . S
H195 C210 0.940 . S
H196 C211 0.940 . S
H197 C213 0.920 1_455 S
H198 C214 0.942 . S
H199 C216 0.940 . S
H200 C217 0.939 . S
H201 C219 0.941 . S
H202 C223 0.939 . S
O203 P192 1.490 . S
H204 C220 0.939 . S
H205 C222 0.940 . S
C206 P192 1.812 1_655 S
C206 C207 1.389 . S
C206 C211 1.391 . S
C207 H193 0.941 1_655 S
C207 C206 1.389 . S
C207 C208 1.397 . S
C208 H194 0.939 . S
C208 C207 1.397 . S
C208 C209 1.378 . S
C209 C208 1.378 . S
C209 C210 1.378 . S
C210 H195 0.940 . S
C210 C209 1.378 . S
C210 C211 1.396 . S
C211 H196 0.940 . S
C211 C206 1.391 . S
C211 C210 1.396 . S
C212 P192 1.803 1_655 S
C212 C213 1.379 . S
C212 C217 1.400 . S
C213 H197 0.920 1_655 S
C213 C212 1.379 . S
C213 C214 1.379 . S
C214 H198 0.942 . S
C214 C213 1.379 . S
C214 C215 1.369 . S
C215 C214 1.369 . S
C215 C216 1.404 . S
C216 H199 0.940 . S
C216 C215 1.404 . S
C216 C217 1.389 . S
C217 H200 0.939 . S
C217 C212 1.400 . S
C217 C216 1.389 . S
C218 P192 1.819 . S
C218 C219 1.394 . S
C218 C223 1.388 1_455 S
C219 H201 0.941 . S
C219 C218 1.394 . S
C219 C220 1.396 . S
C220 H204 0.939 . S
C220 C219 1.396 . S
C220 C221 1.397 1_455 S
C221 C220 1.397 1_655 S
C221 C222 1.385 . S
C222 H205 0.940 . S
C222 C221 1.385 . S
C222 C223 1.388 . S
C223 H202 0.939 . S
C223 C218 1.388 1_655 S
C223 C222 1.388 . S
P224 O235 1.490 . S
P224 C238 1.812 . S
P224 C244 1.803 . S
P224 C250 1.819 . S
H225 C239 0.941 . S
H226 C240 0.939 . S
H227 C242 0.940 . S
H228 C243 0.940 . S
H229 C245 0.939 . S
H230 C246 0.942 . S
H231 C248 0.940 . S
H232 C249 0.939 . S
H233 C251 0.941 . S
H234 C255 0.939 . S
O235 P224 1.490 . S
H236 C252 0.939 . S
H237 C254 0.940 . S
C238 P224 1.812 . S
C238 C239 1.389 . S
C238 C243 1.391 . S
C239 H225 0.941 . S
C239 C238 1.389 . S
C239 C240 1.397 . S
C240 H226 0.939 . S
C240 C239 1.397 . S
C240 C241 1.378 . S
C241 C240 1.378 . S
C241 C242 1.378 . S
C242 H227 0.940 . S
C242 C241 1.378 . S
C242 C243 1.396 . S
C243 H228 0.940 . S
C243 C238 1.391 . S
C243 C242 1.396 . S
C244 P224 1.803 . S
C244 C245 1.378 . S
C244 C249 1.400 . S
C245 H229 0.939 . S
C245 C244 1.378 . S
C245 C246 1.361 . S
C246 H230 0.942 . S
C246 C245 1.361 . S
C246 C247 1.369 . S
C247 C246 1.369 . S
C247 C248 1.404 . S
C248 H231 0.940 . S
C248 C247 1.404 . S
C248 C249 1.389 . S
C249 H232 0.939 . S
C249 C244 1.400 . S
C249 C248 1.389 . S
C250 P224 1.819 . S
C250 C251 1.391 . S
C250 C255 1.391 . S
C251 H233 0.941 . S
C251 C250 1.391 . S
C251 C252 1.396 . S
C252 H236 0.939 . S
C252 C251 1.396 . S
C252 C253 1.397 . S
C253 C252 1.397 . S
C253 C254 1.385 . S
C254 H237 0.940 . S
C254 C253 1.385 . S
C254 C255 1.388 . S
C255 H234 0.939 . S
C255 C250 1.391 . S
C255 C254 1.388 . S
P256 O267 1.490 1_545 S
P256 C270 1.812 . S
P256 C276 1.803 . S
P256 C282 1.819 . S
H257 C271 0.941 . S
H258 C272 0.939 . S
H259 C274 0.940 . S
H260 C275 0.940 . S
H261 C277 0.939 . S
H262 C278 0.942 . S
H263 C280 0.940 . S
H264 C281 0.939 . S
H265 C283 0.941 1_565 S
H266 C287 0.939 . S
O267 P256 1.490 1_565 S
H268 C284 0.939 . S
H269 C286 0.940 . S
C270 P256 1.812 . S
C270 C271 1.389 . S
C270 C275 1.391 . S
C271 H257 0.941 . S
C271 C270 1.389 . S
C271 C272 1.397 . S
C272 H258 0.939 . S
C272 C271 1.397 . S
C272 C273 1.378 . S
C273 C272 1.378 . S
C273 C274 1.378 . S
C274 H259 0.940 . S
C274 C273 1.378 . S
C274 C275 1.396 . S
C275 H260 0.940 . S
C275 C270 1.391 . S
C275 C274 1.396 . S
C276 P256 1.803 . S
C276 C277 1.378 . S
C276 C281 1.400 . S
C277 H261 0.939 . S
C277 C276 1.378 . S
C277 C278 1.361 . S
C278 H262 0.942 . S
C278 C277 1.361 . S
C278 C279 1.369 . S
C279 C278 1.369 . S
C279 C280 1.404 . S
C280 H263 0.940 . S
C280 C279 1.404 . S
C280 C281 1.389 . S
C281 H264 0.939 . S
C281 C276 1.400 . S
C281 C280 1.389 . S
C282 P256 1.819 . S
C282 C283 1.391 . S
C282 C287 1.391 . S
C283 H265 0.941 1_545 S
C283 C282 1.391 . S
C283 C284 1.396 . S
C284 H268 0.939 . S
C284 C283 1.396 . S
C284 C285 1.397 . S
C285 C284 1.397 . S
C285 C286 1.385 . S
C286 H269 0.940 . S
C286 C285 1.385 . S
C286 C287 1.388 . S
C287 H266 0.939 . S
C287 C282 1.391 . S
C287 C286 1.388 . S
P288 O299 1.490 . S
P288 C302 1.812 . S
P288 C308 1.803 . S
P288 C314 1.819 . S
H289 C303 0.941 . S
H290 C304 0.939 . S
H291 C306 0.940 . S
H292 C307 0.940 . S
H293 C309 0.939 . S
H294 C310 0.942 . S
H295 C312 0.940 . S
H296 C313 0.939 . S
H297 C315 0.941 . S
H298 C319 0.939 . S
O299 P288 1.490 . S
H300 C316 0.939 . S
H301 C318 0.940 . S
C302 P288 1.812 . S
C302 C303 1.389 . S
C302 C307 1.391 . S
C303 H289 0.941 . S
C303 C302 1.389 . S
C303 C304 1.397 . S
C304 H290 0.939 . S
C304 C303 1.397 . S
C304 C305 1.378 . S
C305 C304 1.378 . S
C305 C306 1.378 . S
C306 H291 0.940 . S
C306 C305 1.378 . S
C306 C307 1.396 . S
C307 H292 0.940 . S
C307 C302 1.391 . S
C307 C306 1.396 . S
C308 P288 1.803 . S
C308 C309 1.378 . S
C308 C313 1.400 . S
C309 H293 0.939 . S
C309 C308 1.378 . S
C309 C310 1.361 . S
C310 H294 0.942 . S
C310 C309 1.361 . S
C310 C311 1.369 . S
C311 C310 1.369 . S
C311 C312 1.404 . S
C312 H295 0.940 . S
C312 C311 1.404 . S
C312 C313 1.389 . S
C313 H296 0.939 . S
C313 C308 1.400 . S
C313 C312 1.389 . S
C314 P288 1.819 . S
C314 C315 1.391 . S
C314 C319 1.391 . S
C315 H297 0.941 . S
C315 C314 1.391 . S
C315 C316 1.396 . S
C316 H300 0.939 . S
C316 C315 1.396 . S
C316 C317 1.397 . S
C317 C316 1.397 . S
C317 C318 1.385 . S
C318 H301 0.940 . S
C318 C317 1.385 . S
C318 C319 1.388 . S
C319 H298 0.939 . S
C319 C314 1.391 . S
C319 C318 1.388 . S
P320 O331 1.490 . S
P320 C334 1.812 . S
P320 C340 1.803 . S
P320 C346 1.819 . S
H321 C335 0.941 . S
H322 C336 0.939 . S
H323 C338 0.940 . S
H324 C339 0.940 . S
H325 C341 0.939 . S
H326 C342 0.942 . S
H327 C344 0.940 . S
H328 C345 0.939 . S
H329 C347 0.941 . S
H330 C351 0.939 . S
O331 P320 1.490 . S
H332 C348 0.939 . S
H333 C350 0.940 . S
C334 P320 1.812 . S
C334 C335 1.389 . S
C334 C339 1.391 . S
C335 H321 0.941 . S
C335 C334 1.389 . S
C335 C336 1.397 . S
C336 H322 0.939 . S
C336 C335 1.397 . S
C336 C337 1.378 . S
C337 C336 1.378 . S
C337 C338 1.378 . S
C338 H323 0.940 . S
C338 C337 1.378 . S
C338 C339 1.396 . S
C339 H324 0.940 . S
C339 C334 1.391 . S
C339 C338 1.396 . S
C340 P320 1.803 . S
C340 C341 1.378 . S
C340 C345 1.400 . S
C341 H325 0.939 . S
C341 C340 1.378 . S
C341 C342 1.361 . S
C342 H326 0.942 . S
C342 C341 1.361 . S
C342 C343 1.369 . S
C343 C342 1.369 . S
C343 C344 1.404 . S
C344 H327 0.940 . S
C344 C343 1.404 . S
C344 C345 1.389 . S
C345 H328 0.939 . S
C345 C340 1.400 . S
C345 C344 1.389 . S
C346 P320 1.819 . S
C346 C347 1.391 . S
C346 C351 1.391 . S
C347 H329 0.941 . S
C347 C346 1.391 . S
C347 C348 1.396 . S
C348 H332 0.939 . S
C348 C347 1.396 . S
C348 C349 1.397 . S
C349 C348 1.397 . S
C349 C350 1.385 . S
C350 H333 0.940 . S
C350 C349 1.385 . S
C350 C351 1.388 . S
C351 H330 0.939 . S
C351 C346 1.391 . S
C351 C350 1.388 . S
P352 O363 1.490 . S
P352 C366 1.812 . S
P352 C372 1.803 . S
P352 C378 1.819 . S
H353 C367 0.941 . S
H354 C368 0.939 . S
H355 C370 0.940 . S
H356 C371 0.940 . S
H357 C373 0.939 . S
H358 C374 0.942 . S
H359 C376 0.940 . S
H360 C377 0.939 . S
H361 C379 0.941 . S
H362 C383 0.939 . S
O363 P352 1.490 . S
H364 C380 0.939 . S
H365 C382 0.940 . S
C366 P352 1.812 . S
C366 C367 1.389 . S
C366 C371 1.391 . S
C367 H353 0.941 . S
C367 C366 1.389 . S
C367 C368 1.397 . S
C368 H354 0.939 . S
C368 C367 1.397 . S
C368 C369 1.378 . S
C369 C368 1.378 . S
C369 C370 1.378 . S
C370 H355 0.940 . S
C370 C369 1.378 . S
C370 C371 1.396 . S
C371 H356 0.940 . S
C371 C366 1.391 . S
C371 C370 1.396 . S
C372 P352 1.803 . S
C372 C373 1.378 . S
C372 C377 1.400 . S
C373 H357 0.939 . S
C373 C372 1.378 . S
C373 C374 1.361 . S
C374 H358 0.942 . S
C374 C373 1.361 . S
C374 C375 1.369 . S
C375 C374 1.369 . S
C375 C376 1.404 . S
C376 H359 0.940 . S
C376 C375 1.404 . S
C376 C377 1.389 . S
C377 H360 0.939 . S
C377 C372 1.400 . S
C377 C376 1.389 . S
C378 P352 1.819 . S
C378 C379 1.391 . S
C378 C383 1.391 . S
C379 H361 0.941 . S
C379 C378 1.391 . S
C379 C380 1.396 . S
C380 H364 0.939 . S
C380 C379 1.396 . S
C380 C381 1.397 . S
C381 C380 1.397 . S
C381 C382 1.385 . S
C382 H365 0.940 . S
C382 C381 1.385 . S
C382 C383 1.388 . S
C383 H362 0.939 . S
C383 C378 1.391 . S
C383 C382 1.388 . S
P384 O395 1.490 . S
P384 C398 1.812 . S
P384 C404 1.803 . S
P384 C410 1.819 . S
H385 C399 0.941 . S
H386 C400 0.939 . S
H387 C402 0.940 . S
H388 C403 0.940 . S
H389 C405 0.939 . S
H390 C406 0.942 . S
H391 C408 0.940 . S
H392 C409 0.939 . S
H393 C411 0.941 . S
H394 C415 0.939 . S
O395 P384 1.490 . S
H396 C412 0.939 . S
H397 C414 0.940 . S
C398 P384 1.812 . S
C398 C399 1.389 . S
C398 C403 1.391 . S
C399 H385 0.941 . S
C399 C398 1.389 . S
C399 C400 1.397 . S
C400 H386 0.939 . S
C400 C399 1.397 . S
C400 C401 1.378 . S
C401 C400 1.378 . S
C401 C402 1.378 . S
C402 H387 0.940 . S
C402 C401 1.378 . S
C402 C403 1.396 . S
C403 H388 0.940 . S
C403 C398 1.391 . S
C403 C402 1.396 . S
C404 P384 1.803 . S
C404 C405 1.378 . S
C404 C409 1.400 . S
C405 H389 0.939 . S
C405 C404 1.378 . S
C405 C406 1.361 . S
C406 H390 0.942 . S
C406 C405 1.361 . S
C406 C407 1.369 . S
C407 C406 1.369 . S
C407 C408 1.404 . S
C408 H391 0.940 . S
C408 C407 1.404 . S
C408 C409 1.389 . S
C409 H392 0.939 . S
C409 C404 1.400 . S
C409 C408 1.389 . S
C410 P384 1.819 . S
C410 C411 1.391 . S
C410 C415 1.391 . S
C411 H393 0.941 . S
C411 C410 1.391 . S
C411 C412 1.396 . S
C412 H396 0.939 . S
C412 C411 1.396 . S
C412 C413 1.397 . S
C413 C412 1.397 . S
C413 C414 1.385 . S
C414 H397 0.940 . S
C414 C413 1.385 . S
C414 C415 1.388 . S
C415 H394 0.939 . S
C415 C410 1.391 . S
C415 C414 1.388 . S
P416 O427 1.490 . S
P416 C430 1.812 . S
P416 C436 1.803 . S
P416 C442 1.819 . S
H417 C431 0.941 . S
H418 C432 0.939 . S
H419 C434 0.940 . S
H420 C435 0.940 . S
H421 C437 0.939 . S
H422 C438 0.942 . S
H423 C440 0.940 . S
H424 C441 0.939 . S
H425 C443 0.941 . S
H426 C447 0.939 . S
O427 P416 1.490 . S
H428 C444 0.939 . S
H429 C446 0.940 . S
C430 P416 1.812 . S
C430 C431 1.389 . S
C430 C435 1.391 . S
C431 H417 0.941 . S
C431 C430 1.389 . S
C431 C432 1.397 . S
C432 H418 0.939 . S
C432 C431 1.397 . S
C432 C433 1.378 . S
C433 C432 1.378 . S
C433 C434 1.378 . S
C434 H419 0.940 . S
C434 C433 1.378 . S
C434 C435 1.396 . S
C435 H420 0.940 . S
C435 C430 1.391 . S
C435 C434 1.396 . S
C436 P416 1.803 . S
C436 C437 1.378 . S
C436 C441 1.400 . S
C437 H421 0.939 . S
C437 C436 1.378 . S
C437 C438 1.361 . S
C438 H422 0.942 . S
C438 C437 1.361 . S
C438 C439 1.369 . S
C439 C438 1.369 . S
C439 C440 1.404 . S
C440 H423 0.940 . S
C440 C439 1.404 . S
C440 C441 1.389 . S
C441 H424 0.939 . S
C441 C436 1.400 . S
C441 C440 1.389 . S
C442 P416 1.819 . S
C442 C443 1.391 . S
C442 C447 1.391 . S
C443 H425 0.941 . S
C443 C442 1.391 . S
C443 C444 1.396 . S
C444 H428 0.939 . S
C444 C443 1.396 . S
C444 C445 1.397 . S
C445 C444 1.397 . S
C445 C446 1.385 . S
C446 H429 0.940 . S
C446 C445 1.385 . S
C446 C447 1.388 . S
C447 H426 0.939 . S
C447 C442 1.391 . S
C447 C446 1.388 . S
P448 O459 1.490 . S
P448 C462 1.812 . S
P448 C468 1.803 . S
P448 C474 1.819 . S
H449 C463 0.941 . S
H450 C464 0.939 . S
H451 C466 0.940 . S
H452 C467 0.940 . S
H453 C469 0.939 . S
H454 C470 0.942 . S
H455 C472 0.940 . S
H456 C473 0.939 . S
H457 C475 0.941 . S
H458 C479 0.939 . S
O459 P448 1.490 . S
H460 C476 0.939 . S
H461 C478 0.940 . S
C462 P448 1.812 . S
C462 C463 1.389 . S
C462 C467 1.391 . S
C463 H449 0.941 . S
C463 C462 1.389 . S
C463 C464 1.397 . S
C464 H450 0.939 . S
C464 C463 1.397 . S
C464 C465 1.378 . S
C465 C464 1.378 . S
C465 C466 1.378 . S
C466 H451 0.940 . S
C466 C465 1.378 . S
C466 C467 1.396 . S
C467 H452 0.940 . S
C467 C462 1.391 . S
C467 C466 1.396 . S
C468 P448 1.803 . S
C468 C469 1.378 . S
C468 C473 1.400 . S
C469 H453 0.939 . S
C469 C468 1.378 . S
C469 C470 1.361 . S
C470 H454 0.942 . S
C470 C469 1.361 . S
C470 C471 1.369 . S
C471 C470 1.369 . S
C471 C472 1.404 . S
C472 H455 0.940 . S
C472 C471 1.404 . S
C472 C473 1.389 . S
C473 H456 0.939 . S
C473 C468 1.400 . S
C473 C472 1.389 . S
C474 P448 1.819 . S
C474 C475 1.391 . S
C474 C479 1.391 . S
C475 H457 0.941 . S
C475 C474 1.391 . S
C475 C476 1.396 . S
C476 H460 0.939 . S
C476 C475 1.396 . S
C476 C477 1.397 . S
C477 C476 1.397 . S
C477 C478 1.385 . S
C478 H461 0.940 . S
C478 C477 1.385 . S
C478 C479 1.388 . S
C479 H458 0.939 . S
C479 C474 1.391 . S
C479 C478 1.388 . S
P480 O491 1.490 1_565 S
P480 C494 1.812 . S
P480 C500 1.803 . S
P480 C506 1.819 . S
H481 C495 0.941 . S
H482 C496 0.939 . S
H483 C498 0.940 . S
H484 C499 0.940 . S
H485 C501 0.939 . S
H486 C502 0.942 . S
H487 C504 0.940 . S
H488 C505 0.939 . S
H489 C507 0.941 1_545 S
H490 C511 0.939 . S
O491 P480 1.490 1_545 S
H492 C508 0.939 . S
H493 C510 0.940 . S
C494 P480 1.812 . S
C494 C495 1.389 . S
C494 C499 1.391 . S
C495 H481 0.941 . S
C495 C494 1.389 . S
C495 C496 1.397 . S
C496 H482 0.939 . S
C496 C495 1.397 . S
C496 C497 1.378 . S
C497 C496 1.378 . S
C497 C498 1.378 . S
C498 H483 0.940 . S
C498 C497 1.378 . S
C498 C499 1.396 . S
C499 H484 0.940 . S
C499 C494 1.391 . S
C499 C498 1.396 . S
C500 P480 1.803 . S
C500 C501 1.378 . S
C500 C505 1.400 . S
C501 H485 0.939 . S
C501 C500 1.378 . S
C501 C502 1.361 . S
C502 H486 0.942 . S
C502 C501 1.361 . S
C502 C503 1.369 . S
C503 C502 1.369 . S
C503 C504 1.404 . S
C504 H487 0.940 . S
C504 C503 1.404 . S
C504 C505 1.389 . S
C505 H488 0.939 . S
C505 C500 1.400 . S
C505 C504 1.389 . S
C506 P480 1.819 . S
C506 C507 1.391 . S
C506 C511 1.391 . S
C507 H489 0.941 1_565 S
C507 C506 1.391 . S
C507 C508 1.396 . S
C508 H492 0.939 . S
C508 C507 1.396 . S
C508 C509 1.397 . S
C509 C508 1.397 . S
C509 C510 1.385 . S
C510 H493 0.940 . S
C510 C509 1.385 . S
C510 C511 1.388 . S
C511 H490 0.939 . S
C511 C506 1.391 . S
C511 C510 1.388 . S
P512 O523 1.490 . S
P512 C526 1.812 . S
P512 C532 1.803 . S
P512 C538 1.819 . S
H513 C527 0.941 . S
H514 C528 0.939 . S
H515 C530 0.940 . S
H516 C531 0.940 . S
H517 C533 0.939 . S
H518 C534 0.942 . S
H519 C536 0.940 . S
H520 C537 0.939 . S
H521 C539 0.941 . S
H522 C543 0.939 . S
O523 P512 1.490 . S
H524 C540 0.939 . S
H525 C542 0.940 1_655 S
C526 P512 1.812 . S
C526 C527 1.389 . S
C526 C531 1.391 . S
C527 H513 0.941 . S
C527 C526 1.389 . S
C527 C528 1.397 . S
C528 H514 0.939 . S
C528 C527 1.397 . S
C528 C529 1.378 . S
C529 C528 1.378 . S
C529 C530 1.378 . S
C530 H515 0.940 . S
C530 C529 1.378 . S
C530 C531 1.396 . S
C531 H516 0.940 . S
C531 C526 1.391 . S
C531 C530 1.396 . S
C532 P512 1.803 . S
C532 C533 1.378 . S
C532 C537 1.400 . S
C533 H517 0.939 . S
C533 C532 1.378 . S
C533 C534 1.361 . S
C534 H518 0.942 . S
C534 C533 1.361 . S
C534 C535 1.369 . S
C535 C534 1.369 . S
C535 C536 1.404 . S
C536 H519 0.940 . S
C536 C535 1.404 . S
C536 C537 1.389 . S
C537 H520 0.939 . S
C537 C532 1.400 . S
C537 C536 1.389 . S
C538 P512 1.819 . S
C538 C539 1.391 . S
C538 C543 1.391 . S
C539 H521 0.941 . S
C539 C538 1.391 . S
C539 C540 1.396 . S
C540 H524 0.939 . S
C540 C539 1.396 . S
C540 C541 1.397 . S
C541 C540 1.397 . S
C541 C542 1.385 . S
C542 H525 0.940 1_455 S
C542 C541 1.385 . S
C542 C543 1.388 . S
C543 H522 0.939 . S
C543 C538 1.391 . S
C543 C542 1.388 . S
P544 O555 1.490 . S
P544 C558 1.812 . S
P544 C564 1.803 . S
P544 C570 1.819 . S
H545 C559 0.941 . S
H546 C560 0.939 . S
H547 C562 0.940 . S
H548 C563 0.940 . S
H549 C565 0.939 . S
H550 C566 0.942 . S
H551 C568 0.940 . S
H552 C569 0.939 . S
H553 C571 0.941 . S
H554 C575 0.939 . S
O555 P544 1.490 . S
H556 C572 0.939 . S
H557 C574 0.940 . S
C558 P544 1.812 . S
C558 C559 1.389 . S
C558 C563 1.391 . S
C559 H545 0.941 . S
C559 C558 1.389 . S
C559 C560 1.397 . S
C560 H546 0.939 . S
C560 C559 1.397 . S
C560 C561 1.378 . S
C561 C560 1.378 . S
C561 C562 1.378 . S
C562 H547 0.940 . S
C562 C561 1.378 . S
C562 C563 1.396 . S
C563 H548 0.940 . S
C563 C558 1.391 . S
C563 C562 1.396 . S
C564 P544 1.803 . S
C564 C565 1.378 . S
C564 C569 1.400 . S
C565 H549 0.939 . S
C565 C564 1.378 . S
C565 C566 1.361 . S
C566 H550 0.942 . S
C566 C565 1.361 . S
C566 C567 1.369 . S
C567 C566 1.369 . S
C567 C568 1.404 . S
C568 H551 0.940 . S
C568 C567 1.404 . S
C568 C569 1.389 . S
C569 H552 0.939 . S
C569 C564 1.400 . S
C569 C568 1.389 . S
C570 P544 1.819 . S
C570 C571 1.391 . S
C570 C575 1.391 . S
C571 H553 0.941 . S
C571 C570 1.391 . S
C571 C572 1.396 . S
C572 H556 0.939 . S
C572 C571 1.396 . S
C572 C573 1.397 . S
C573 C572 1.397 . S
C573 C574 1.385 . S
C574 H557 0.940 . S
C574 C573 1.385 . S
C574 C575 1.388 . S
C575 H554 0.939 . S
C575 C570 1.391 . S
C575 C574 1.388 . S
Eu576 C585 2.828 . S
Eu576 O587 2.399 . S
Eu576 O589 2.418 . S
Eu576 O594 2.373 1_565 S
Eu576 O597 2.488 . S
Eu576 O598 2.471 1_565 S
Eu576 O599 2.349 1_565 S
Eu577 O586 2.373 1_545 S
Eu577 O590 2.488 . S
Eu577 O591 2.462 1_545 S
Eu577 O592 2.349 1_545 S
Eu577 O595 2.392 . S
Eu577 O596 2.418 . S
Eu577 C606 2.828 . S
C578 O596 1.222 1_556 S
C578 O599 1.274 . S
C579 C580 1.379 1_565 S
C579 C583 1.373 . S
C579 C585 1.505 . S
C580 C579 1.379 1_545 S
C580 C582 1.369 . S
C580 H608 0.930 . S
C581 C583 1.383 . S
C581 C584 1.382 1_565 S
C581 H609 0.930 . S
C582 C580 1.369 . S
C582 C584 1.392 . S
C582 H610 0.930 . S
C583 C579 1.373 . S
C583 C581 1.383 . S
C583 H611 0.931 . S
C584 C581 1.382 1_545 S
C584 C582 1.392 . S
C585 Eu576 2.828 . S
C585 C579 1.505 . S
C585 O597 1.249 . S
C585 O598 1.244 1_565 S
O586 Eu577 2.373 1_565 S
O586 C588 1.258 . S
O587 Eu576 2.399 . S
O587 C588 1.234 1_556 S
C588 O586 1.258 . S
C588 O587 1.234 1_554 S
O589 Eu576 2.418 . S
O589 C593 1.244 1_556 S
O590 Eu577 2.488 . S
O590 C606 1.249 . S
O591 Eu577 2.462 1_565 S
O591 C606 1.230 1_565 S
O592 Eu577 2.349 1_565 S
O592 C593 1.265 . S
C593 O589 1.244 1_554 S
C593 O592 1.265 . S
O594 Eu576 2.373 1_545 S
O594 C607 1.258 . S
O595 Eu577 2.392 . S
O595 C607 1.242 1_554 S
O596 Eu577 2.418 . S
O596 C578 1.222 1_554 S
O597 Eu576 2.488 . S
O597 C585 1.249 . S
O598 Eu576 2.471 1_545 S
O598 C585 1.244 1_545 S
O599 Eu576 2.349 1_545 S
O599 C578 1.274 . S
C600 C601 1.379 1_545 S
C600 C604 1.373 . S
C600 C606 1.505 . S
C601 C600 1.379 1_565 S
C601 C603 1.369 . S
C601 H612 0.930 . S
C602 C604 1.383 . S
C602 C605 1.382 1_545 S
C602 H613 0.930 . S
C603 C601 1.369 . S
C603 C605 1.392 . S
C603 H614 0.930 . S
C604 C600 1.373 . S
C604 C602 1.383 . S
C604 H615 0.931 . S
C605 C602 1.382 1_565 S
C605 C603 1.392 . S
C606 Eu577 2.828 . S
C606 O590 1.249 . S
C606 O591 1.230 1_545 S
C606 C600 1.505 . S
C607 O594 1.258 . S
C607 O595 1.242 1_556 S
H608 C580 0.930 . S
H609 C581 0.930 . S
H610 C582 0.930 . S
H611 C583 0.931 . S
H612 C601 0.930 . S
H613 C602 0.930 . S
H614 C603 0.930 . S
H615 C604 0.931 . S
Eu616 C625 2.828 . S
Eu616 O627 2.392 1_556 S
Eu616 O629 2.418 . S
Eu616 O634 2.373 1_455 S
Eu616 O637 2.488 . S
Eu616 O638 2.471 1_455 S
Eu616 O639 2.349 1_455 S
Eu617 O626 2.373 1_655 S
Eu617 O630 2.488 . S
Eu617 O631 2.471 1_655 S
Eu617 O632 2.349 1_655 S
Eu617 O635 2.427 . S
Eu617 O636 2.418 . S
Eu617 C646 2.828 . S
C618 O636 1.244 1_556 S
C618 O639 1.265 . S
C619 C620 1.379 1_455 S
C619 C623 1.373 . S
C619 C625 1.505 . S
C620 C619 1.379 1_655 S
C620 C622 1.369 . S
C620 H648 0.930 . S
C621 C623 1.383 . S
C621 C624 1.382 1_455 S
C621 H649 0.930 . S
C622 C620 1.369 . S
C622 C624 1.392 . S
C622 H650 0.930 . S
C623 C619 1.373 . S
C623 C621 1.383 . S
C623 H651 0.931 . S
C624 C621 1.382 1_655 S
C624 C622 1.392 . S
C625 Eu616 2.828 . S
C625 C619 1.505 . S
C625 O637 1.249 . S
C625 O638 1.244 1_455 S
O626 Eu617 2.373 1_455 S
O626 C628 1.258 . S
O627 Eu616 2.392 1_554 S
O627 C628 1.242 . S
C628 O626 1.258 . S
C628 O627 1.242 . S
O629 Eu616 2.418 . S
O629 C633 1.244 1_556 S
O630 Eu617 2.488 . S
O630 C646 1.249 . S
O631 Eu617 2.471 1_455 S
O631 C646 1.244 1_455 S
O632 Eu617 2.349 1_455 S
O632 C633 1.265 . S
C633 O629 1.244 1_554 S
C633 O632 1.265 . S
O634 Eu616 2.373 1_655 S
O634 C647 1.258 . S
O635 Eu617 2.427 . S
O635 C647 1.200 1_554 S
O636 Eu617 2.418 . S
O636 C618 1.244 1_554 S
O637 Eu616 2.488 . S
O637 C625 1.249 . S
O638 Eu616 2.471 1_655 S
O638 C625 1.244 1_655 S
O639 Eu616 2.349 1_655 S
O639 C618 1.265 . S
C640 C641 1.378 . S
C640 C644 1.373 1_455 S
C640 C646 1.505 1_455 S
C641 C640 1.378 . S
C641 C643 1.369 . S
C641 H652 0.930 . S
C642 C644 1.383 . S
C642 C645 1.382 1_655 S
C642 H653 0.930 . S
C643 C641 1.369 . S
C643 C645 1.392 . S
C643 H654 0.930 . S
C644 C640 1.373 1_655 S
C644 C642 1.383 . S
C644 H655 0.931 . S
C645 C642 1.382 1_455 S
C645 C643 1.392 . S
C646 Eu617 2.828 . S
C646 O630 1.249 . S
C646 O631 1.244 1_655 S
C646 C640 1.505 1_655 S
C647 O634 1.258 . S
C647 O635 1.200 1_556 S
H648 C620 0.930 . S
H649 C621 0.930 . S
H650 C622 0.930 . S
H651 C623 0.931 . S
H652 C641 0.930 . S
H653 C642 0.930 . S
H654 C643 0.930 . S
H655 C644 0.931 . S
Eu656 C665 2.828 . S
Eu656 O667 2.392 . S
Eu656 O669 2.418 . S
Eu656 O674 2.373 . S
Eu656 O677 2.488 . S
Eu656 O678 2.471 . S
Eu656 O679 2.349 . S
Eu657 O666 2.373 . S
Eu657 O670 2.488 . S
Eu657 O671 2.471 . S
Eu657 O672 2.349 . S
Eu657 O675 2.392 1_556 S
Eu657 O676 2.418 . S
Eu657 C686 2.828 . S
C658 O676 1.244 1_554 S
C658 O679 1.265 . S
C659 C660 1.379 . S
C659 C663 1.373 . S
C659 C665 1.505 . S
C660 C659 1.379 . S
C660 C662 1.369 . S
C660 H688 0.930 . S
C661 C663 1.383 . S
C661 C664 1.382 . S
C661 H689 0.930 . S
C662 C660 1.369 . S
C662 C664 1.392 . S
C662 H690 0.930 . S
C663 C659 1.373 . S
C663 C661 1.383 . S
C663 H691 0.931 . S
C664 C661 1.382 . S
C664 C662 1.392 . S
C665 Eu656 2.828 . S
C665 C659 1.505 . S
C665 O677 1.249 . S
C665 O678 1.244 . S
O666 Eu657 2.373 . S
O666 C668 1.258 . S
O667 Eu656 2.392 . S
O667 C668 1.242 1_554 S
C668 O666 1.258 . S
C668 O667 1.242 1_556 S
O669 Eu656 2.418 . S
O669 C673 1.244 1_554 S
O670 Eu657 2.488 . S
O670 C686 1.249 . S
O671 Eu657 2.471 . S
O671 C686 1.244 . S
O672 Eu657 2.349 . S
O672 C673 1.265 . S
C673 O669 1.244 1_556 S
C673 O672 1.265 . S
O674 Eu656 2.373 . S
O674 C687 1.258 . S
O675 Eu657 2.392 1_554 S
O675 C687 1.242 . S
O676 Eu657 2.418 . S
O676 C658 1.244 1_556 S
O677 Eu656 2.488 . S
O677 C665 1.249 . S
O678 Eu656 2.471 . S
O678 C665 1.244 . S
O679 Eu656 2.349 . S
O679 C658 1.265 . S
C680 C681 1.379 . S
C680 C684 1.373 . S
C680 C686 1.505 . S
C681 C680 1.379 . S
C681 C683 1.369 . S
C681 H692 0.930 . S
C682 C684 1.383 . S
C682 C685 1.382 . S
C682 H693 0.930 . S
C683 C681 1.369 . S
C683 C685 1.392 . S
C683 H694 0.930 . S
C684 C680 1.373 . S
C684 C682 1.383 . S
C684 H695 0.931 . S
C685 C682 1.382 . S
C685 C683 1.392 . S
C686 Eu657 2.828 . S
C686 O670 1.249 . S
C686 O671 1.244 . S
C686 C680 1.505 . S
C687 O674 1.258 . S
C687 O675 1.242 . S
H688 C660 0.930 . S
H689 C661 0.930 . S
H690 C662 0.930 . S
H691 C663 0.931 . S
H692 C681 0.930 . S
H693 C682 0.930 . S
H694 C683 0.930 . S
H695 C684 0.931 . S
Eu696 C705 2.828 . S
Eu696 O707 2.392 . S
Eu696 O709 2.418 . S
Eu696 O714 2.373 . S
Eu696 O717 2.488 . S
Eu696 O718 2.471 . S
Eu696 O719 2.349 . S
Eu697 O706 2.373 . S
Eu697 O710 2.488 . S
Eu697 O711 2.471 . S
Eu697 O712 2.349 . S
Eu697 O715 2.392 . S
Eu697 O716 2.418 . S
Eu697 C726 2.828 . S
C698 O716 1.244 . S
C698 O719 1.265 . S
C699 C700 1.379 . S
C699 C703 1.373 . S
C699 C705 1.505 . S
C700 C699 1.379 . S
C700 C702 1.369 . S
C700 H728 0.930 . S
C701 C703 1.383 . S
C701 C704 1.382 . S
C701 H729 0.930 . S
C702 C700 1.369 . S
C702 C704 1.392 . S
C702 H730 0.930 . S
C703 C699 1.373 . S
C703 C701 1.383 . S
C703 H731 0.931 . S
C704 C701 1.382 . S
C704 C702 1.392 . S
C705 Eu696 2.828 . S
C705 C699 1.505 . S
C705 O717 1.249 . S
C705 O718 1.244 . S
O706 Eu697 2.373 . S
O706 C708 1.258 . S
O707 Eu696 2.392 . S
O707 C708 1.242 . S
C708 O706 1.258 . S
C708 O707 1.242 . S
O709 Eu696 2.418 . S
O709 C713 1.244 . S
O710 Eu697 2.488 . S
O710 C726 1.249 . S
O711 Eu697 2.471 . S
O711 C726 1.244 . S
O712 Eu697 2.349 . S
O712 C713 1.265 . S
C713 O709 1.244 . S
C713 O712 1.265 . S
O714 Eu696 2.373 . S
O714 C727 1.258 . S
O715 Eu697 2.392 . S
O715 C727 1.242 . S
O716 Eu697 2.418 . S
O716 C698 1.244 . S
O717 Eu696 2.488 . S
O717 C705 1.249 . S
O718 Eu696 2.471 . S
O718 C705 1.244 . S
O719 Eu696 2.349 . S
O719 C698 1.265 . S
C720 C721 1.379 . S
C720 C724 1.373 . S
C720 C726 1.505 . S
C721 C720 1.379 . S
C721 C723 1.369 . S
C721 H732 0.930 . S
C722 C724 1.383 . S
C722 C725 1.382 . S
C722 H733 0.930 . S
C723 C721 1.369 . S
C723 C725 1.392 . S
C723 H734 0.930 . S
C724 C720 1.373 . S
C724 C722 1.383 . S
C724 H735 0.931 . S
C725 C722 1.382 . S
C725 C723 1.392 . S
C726 Eu697 2.828 . S
C726 O710 1.249 . S
C726 O711 1.244 . S
C726 C720 1.505 . S
C727 O714 1.258 . S
C727 O715 1.242 . S
H728 C700 0.930 . S
H729 C701 0.930 . S
H730 C702 0.930 . S
H731 C703 0.931 . S
H732 C721 0.930 . S
H733 C722 0.930 . S
H734 C723 0.930 . S
H735 C724 0.931 . S
Eu736 C745 2.828 . S
Eu736 O747 2.392 . S
Eu736 O749 2.418 . S
Eu736 O754 2.373 . S
Eu736 O757 2.488 . S
Eu736 O758 2.471 . S
Eu736 O759 2.349 . S
Eu737 O746 2.373 . S
Eu737 O750 2.488 . S
Eu737 O751 2.471 . S
Eu737 O752 2.349 . S
Eu737 O755 2.392 . S
Eu737 O756 2.418 . S
Eu737 C766 2.828 . S
C738 O756 1.244 . S
C738 O759 1.265 . S
C739 C740 1.379 . S
C739 C743 1.373 . S
C739 C745 1.505 . S
C740 C739 1.379 . S
C740 C742 1.369 . S
C740 H768 0.930 . S
C741 C743 1.383 . S
C741 C744 1.382 . S
C741 H769 0.930 . S
C742 C740 1.369 . S
C742 C744 1.392 . S
C742 H770 0.930 . S
C743 C739 1.373 . S
C743 C741 1.383 . S
C743 H771 0.931 . S
C744 C741 1.382 . S
C744 C742 1.392 . S
C745 Eu736 2.828 . S
C745 C739 1.505 . S
C745 O757 1.249 . S
C745 O758 1.244 . S
O746 Eu737 2.373 . S
O746 C748 1.258 . S
O747 Eu736 2.392 . S
O747 C748 1.242 . S
C748 O746 1.258 . S
C748 O747 1.242 . S
O749 Eu736 2.418 . S
O749 C753 1.244 . S
O750 Eu737 2.488 . S
O750 C766 1.249 . S
O751 Eu737 2.471 . S
O751 C766 1.244 . S
O752 Eu737 2.349 . S
O752 C753 1.265 . S
C753 O749 1.244 . S
C753 O752 1.265 . S
O754 Eu736 2.373 . S
O754 C767 1.258 . S
O755 Eu737 2.392 . S
O755 C767 1.242 . S
O756 Eu737 2.418 . S
O756 C738 1.244 . S
O757 Eu736 2.488 . S
O757 C745 1.249 . S
O758 Eu736 2.471 . S
O758 C745 1.244 . S
O759 Eu736 2.349 . S
O759 C738 1.265 . S
C760 C761 1.379 . S
C760 C764 1.373 . S
C760 C766 1.505 . S
C761 C760 1.379 . S
C761 C763 1.369 . S
C761 H772 0.930 . S
C762 C764 1.383 . S
C762 C765 1.382 . S
C762 H773 0.930 . S
C763 C761 1.369 . S
C763 C765 1.392 . S
C763 H774 0.930 . S
C764 C760 1.373 . S
C764 C762 1.383 . S
C764 H775 0.931 . S
C765 C762 1.382 . S
C765 C763 1.392 . S
C766 Eu737 2.828 . S
C766 O750 1.249 . S
C766 O751 1.244 . S
C766 C760 1.505 . S
C767 O754 1.258 . S
C767 O755 1.242 . S
H768 C740 0.930 . S
H769 C741 0.930 . S
H770 C742 0.930 . S
H771 C743 0.931 . S
H772 C761 0.930 . S
H773 C762 0.930 . S
H774 C763 0.930 . S
H775 C764 0.931 . S
Eu776 C785 2.828 . S
Eu776 O787 2.392 . S
Eu776 O789 2.418 . S
Eu776 O794 2.373 . S
Eu776 O797 2.488 . S
Eu776 O798 2.471 . S
Eu776 O799 2.349 . S
Eu777 O786 2.373 . S
Eu777 O790 2.488 . S
Eu777 O791 2.471 . S
Eu777 O792 2.349 . S
Eu777 O795 2.392 . S
Eu777 O796 2.418 . S
Eu777 C806 2.828 . S
C778 O796 1.244 . S
C778 O799 1.265 . S
C779 C780 1.379 . S
C779 C783 1.373 . S
C779 C785 1.505 . S
C780 C779 1.379 . S
C780 C782 1.369 . S
C780 H808 0.930 . S
C781 C783 1.383 . S
C781 C784 1.382 . S
C781 H809 0.930 . S
C782 C780 1.369 . S
C782 C784 1.392 . S
C782 H810 0.930 . S
C783 C779 1.373 . S
C783 C781 1.383 . S
C783 H811 0.931 . S
C784 C781 1.382 . S
C784 C782 1.392 . S
C785 Eu776 2.828 . S
C785 C779 1.505 . S
C785 O797 1.249 . S
C785 O798 1.244 . S
O786 Eu777 2.373 . S
O786 C788 1.258 . S
O787 Eu776 2.392 . S
O787 C788 1.242 . S
C788 O786 1.258 . S
C788 O787 1.242 . S
O789 Eu776 2.418 . S
O789 C793 1.244 . S
O790 Eu777 2.488 . S
O790 C806 1.249 . S
O791 Eu777 2.471 . S
O791 C806 1.244 . S
O792 Eu777 2.349 . S
O792 C793 1.265 . S
C793 O789 1.244 . S
C793 O792 1.265 . S
O794 Eu776 2.373 . S
O794 C807 1.258 . S
O795 Eu777 2.392 . S
O795 C807 1.242 . S
O796 Eu777 2.418 . S
O796 C778 1.244 . S
O797 Eu776 2.488 . S
O797 C785 1.249 . S
O798 Eu776 2.471 . S
O798 C785 1.244 . S
O799 Eu776 2.349 . S
O799 C778 1.265 . S
C800 C801 1.379 . S
C800 C804 1.373 . S
C800 C806 1.505 . S
C801 C800 1.379 . S
C801 C803 1.369 . S
C801 H812 0.930 . S
C802 C804 1.383 . S
C802 C805 1.382 . S
C802 H813 0.930 . S
C803 C801 1.369 . S
C803 C805 1.392 . S
C803 H814 0.930 . S
C804 C800 1.373 . S
C804 C802 1.383 . S
C804 H815 0.931 . S
C805 C802 1.382 . S
C805 C803 1.392 . S
C806 Eu777 2.828 . S
C806 O790 1.249 . S
C806 O791 1.244 . S
C806 C800 1.505 . S
C807 O794 1.258 . S
C807 O795 1.242 . S
H808 C780 0.930 . S
H809 C781 0.930 . S
H810 C782 0.930 . S
H811 C783 0.931 . S
H812 C801 0.930 . S
H813 C802 0.930 . S
H814 C803 0.930 . S
H815 C804 0.931 . S
Eu816 C825 2.828 . S
Eu816 O827 2.392 . S
Eu816 O829 2.418 . S
Eu816 O834 2.373 . S
Eu816 O837 2.488 . S
Eu816 O838 2.471 . S
Eu816 O839 2.349 . S
Eu817 O826 2.373 . S
Eu817 O830 2.488 . S
Eu817 O831 2.471 . S
Eu817 O832 2.349 . S
Eu817 O835 2.392 . S
Eu817 O836 2.418 . S
Eu817 C846 2.828 . S
C818 O836 1.244 . S
C818 O839 1.265 . S
C819 C820 1.379 . S
C819 C823 1.373 . S
C819 C825 1.505 . S
C820 C819 1.379 . S
C820 C822 1.369 . S
C820 H848 0.930 . S
C821 C823 1.383 . S
C821 C824 1.382 . S
C821 H849 0.930 . S
C822 C820 1.369 . S
C822 C824 1.392 . S
C822 H850 0.930 . S
C823 C819 1.373 . S
C823 C821 1.383 . S
C823 H851 0.931 . S
C824 C821 1.382 . S
C824 C822 1.392 . S
C825 Eu816 2.828 . S
C825 C819 1.505 . S
C825 O837 1.249 . S
C825 O838 1.244 . S
O826 Eu817 2.373 . S
O826 C828 1.258 . S
O827 Eu816 2.392 . S
O827 C828 1.242 . S
C828 O826 1.258 . S
C828 O827 1.242 . S
O829 Eu816 2.418 . S
O829 C833 1.244 . S
O830 Eu817 2.488 . S
O830 C846 1.249 . S
O831 Eu817 2.471 . S
O831 C846 1.244 . S
O832 Eu817 2.349 . S
O832 C833 1.265 . S
C833 O829 1.244 . S
C833 O832 1.265 . S
O834 Eu816 2.373 . S
O834 C847 1.258 . S
O835 Eu817 2.392 . S
O835 C847 1.242 . S
O836 Eu817 2.418 . S
O836 C818 1.244 . S
O837 Eu816 2.488 . S
O837 C825 1.249 . S
O838 Eu816 2.471 . S
O838 C825 1.244 . S
O839 Eu816 2.349 . S
O839 C818 1.265 . S
C840 C841 1.379 . S
C840 C844 1.373 . S
C840 C846 1.505 . S
C841 C840 1.379 . S
C841 C843 1.369 . S
C841 H852 0.930 . S
C842 C844 1.383 . S
C842 C845 1.382 . S
C842 H853 0.930 . S
C843 C841 1.369 . S
C843 C845 1.392 . S
C843 H854 0.930 . S
C844 C840 1.373 . S
C844 C842 1.383 . S
C844 H855 0.931 . S
C845 C842 1.382 . S
C845 C843 1.392 . S
C846 Eu817 2.828 . S
C846 O830 1.249 . S
C846 O831 1.244 . S
C846 C840 1.505 . S
C847 O834 1.258 . S
C847 O835 1.242 . S
H848 C820 0.930 . S
H849 C821 0.930 . S
H850 C822 0.930 . S
H851 C823 0.931 . S
H852 C841 0.930 . S
H853 C842 0.930 . S
H854 C843 0.930 . S
H855 C844 0.931 . S
Eu856 C865 2.828 . S
Eu856 O867 2.392 . S
Eu856 O869 2.418 . S
Eu856 O874 2.373 . S
Eu856 O877 2.488 . S
Eu856 O878 2.471 . S
Eu856 O879 2.349 . S
Eu857 O866 2.373 . S
Eu857 O870 2.488 . S
Eu857 O871 2.471 . S
Eu857 O872 2.349 . S
Eu857 O875 2.392 . S
Eu857 O876 2.418 . S
Eu857 C886 2.828 . S
C858 O876 1.244 . S
C858 O879 1.265 . S
C859 C860 1.379 . S
C859 C863 1.373 . S
C859 C865 1.505 . S
C860 C859 1.379 . S
C860 C862 1.369 . S
C860 H888 0.930 . S
C861 C863 1.383 . S
C861 C864 1.382 . S
C861 H889 0.930 . S
C862 C860 1.369 . S
C862 C864 1.392 . S
C862 H890 0.930 . S
C863 C859 1.373 . S
C863 C861 1.383 . S
C863 H891 0.931 . S
C864 C861 1.382 . S
C864 C862 1.392 . S
C865 Eu856 2.828 . S
C865 C859 1.505 . S
C865 O877 1.249 . S
C865 O878 1.244 . S
O866 Eu857 2.373 . S
O866 C868 1.258 . S
O867 Eu856 2.392 . S
O867 C868 1.242 . S
C868 O866 1.258 . S
C868 O867 1.242 . S
O869 Eu856 2.418 . S
O869 C873 1.244 . S
O870 Eu857 2.488 . S
O870 C886 1.249 . S
O871 Eu857 2.471 . S
O871 C886 1.244 . S
O872 Eu857 2.349 . S
O872 C873 1.265 . S
C873 O869 1.244 . S
C873 O872 1.265 . S
O874 Eu856 2.373 . S
O874 C887 1.258 . S
O875 Eu857 2.392 . S
O875 C887 1.242 . S
O876 Eu857 2.418 . S
O876 C858 1.244 . S
O877 Eu856 2.488 . S
O877 C865 1.249 . S
O878 Eu856 2.471 . S
O878 C865 1.244 . S
O879 Eu856 2.349 . S
O879 C858 1.265 . S
C880 C881 1.379 . S
C880 C884 1.373 . S
C880 C886 1.505 . S
C881 C880 1.379 . S
C881 C883 1.369 . S
C881 H892 0.930 . S
C882 C884 1.383 . S
C882 C885 1.382 . S
C882 H893 0.930 . S
C883 C881 1.369 . S
C883 C885 1.392 . S
C883 H894 0.930 . S
C884 C880 1.373 . S
C884 C882 1.383 . S
C884 H895 0.931 . S
C885 C882 1.382 . S
C885 C883 1.392 . S
C886 Eu857 2.828 . S
C886 O870 1.249 . S
C886 O871 1.244 . S
C886 C880 1.505 . S
C887 O874 1.258 . S
C887 O875 1.242 . S
H888 C860 0.930 . S
H889 C861 0.930 . S
H890 C862 0.930 . S
H891 C863 0.931 . S
H892 C881 0.930 . S
H893 C882 0.930 . S
H894 C883 0.930 . S
H895 C884 0.931 . S
Eu896 C905 2.828 . S
Eu896 O907 2.392 . S
Eu896 O909 2.418 . S
Eu896 O914 2.373 . S
Eu896 O917 2.488 . S
Eu896 O918 2.471 . S
Eu896 O919 2.349 . S
Eu897 O906 2.373 . S
Eu897 O910 2.488 . S
Eu897 O911 2.471 . S
Eu897 O912 2.349 . S
Eu897 O915 2.392 . S
Eu897 O916 2.418 . S
Eu897 C926 2.828 . S
C898 O916 1.244 . S
C898 O919 1.265 . S
C899 C900 1.379 . S
C899 C903 1.373 . S
C899 C905 1.505 . S
C900 C899 1.379 . S
C900 C902 1.369 . S
C900 H928 0.930 . S
C901 C903 1.383 . S
C901 C904 1.382 . S
C901 H929 0.930 . S
C902 C900 1.369 . S
C902 C904 1.392 . S
C902 H930 0.930 . S
C903 C899 1.373 . S
C903 C901 1.383 . S
C903 H931 0.931 . S
C904 C901 1.382 . S
C904 C902 1.392 . S
C905 Eu896 2.828 . S
C905 C899 1.505 . S
C905 O917 1.249 . S
C905 O918 1.244 . S
O906 Eu897 2.373 . S
O906 C908 1.258 . S
O907 Eu896 2.392 . S
O907 C908 1.242 . S
C908 O906 1.258 . S
C908 O907 1.242 . S
O909 Eu896 2.418 . S
O909 C913 1.244 . S
O910 Eu897 2.488 . S
O910 C926 1.249 . S
O911 Eu897 2.471 . S
O911 C926 1.244 . S
O912 Eu897 2.349 . S
O912 C913 1.265 . S
C913 O909 1.244 . S
C913 O912 1.265 . S
O914 Eu896 2.373 . S
O914 C927 1.258 . S
O915 Eu897 2.392 . S
O915 C927 1.242 . S
O916 Eu897 2.418 . S
O916 C898 1.244 . S
O917 Eu896 2.488 . S
O917 C905 1.249 . S
O918 Eu896 2.471 . S
O918 C905 1.244 . S
O919 Eu896 2.349 . S
O919 C898 1.265 . S
C920 C921 1.379 . S
C920 C924 1.373 . S
C920 C926 1.505 . S
C921 C920 1.379 . S
C921 C923 1.369 . S
C921 H932 0.930 . S
C922 C924 1.383 . S
C922 C925 1.382 . S
C922 H933 0.930 . S
C923 C921 1.369 . S
C923 C925 1.392 . S
C923 H934 0.930 . S
C924 C920 1.373 . S
C924 C922 1.383 . S
C924 H935 0.931 . S
C925 C922 1.382 . S
C925 C923 1.392 . S
C926 Eu897 2.828 . S
C926 O910 1.249 . S
C926 O911 1.244 . S
C926 C920 1.505 . S
C927 O914 1.258 . S
C927 O915 1.242 . S
H928 C900 0.930 . S
H929 C901 0.930 . S
H930 C902 0.930 . S
H931 C903 0.931 . S
H932 C921 0.930 . S
H933 C922 0.930 . S
H934 C923 0.930 . S
H935 C924 0.931 . S
C936 C937 1.387 . S
C936 H940 0.950 . S
C936 C945 1.390 . S
C937 C936 1.387 . S
C937 C939 1.387 . S
H938 C945 0.950 . S
C939 C937 1.387 . S
C939 C941 1.390 . S
C939 H943 0.950 . S
H940 C936 0.950 . S
C941 C939 1.390 . S
C941 C942 1.387 . S
C941 H944 0.979 . S
C942 C941 1.387 . S
C942 C945 1.387 . S
H943 C939 0.950 . S
H944 C941 0.979 . S
C945 C936 1.390 . S
C945 H938 0.950 . S
C945 C942 1.387 . S
C946 C947 1.387 . S
C946 H950 0.950 . S
C946 C955 1.390 . S
C947 C946 1.387 . S
C947 C949 1.387 . S
H948 C955 0.950 . S
C949 C947 1.387 . S
C949 C951 1.390 . S
C949 H953 0.950 . S
H950 C946 0.950 . S
C951 C949 1.390 . S
C951 C952 1.387 . S
C951 H954 0.950 . S
C952 C951 1.387 . S
C952 C955 1.387 . S
H953 C949 0.950 . S
H954 C951 0.950 . S
C955 C946 1.390 . S
C955 H948 0.950 . S
C955 C952 1.387 . S
C956 C957 1.387 . S
C956 H960 0.950 . S
C956 C965 1.390 . S
C957 C956 1.387 . S
C957 C959 1.387 . S
H958 C965 0.950 . S
C959 C957 1.387 . S
C959 C961 1.390 . S
C959 H963 0.950 1_554 S
H960 C956 0.950 . S
C961 C959 1.390 . S
C961 C962 1.414 . S
C961 H964 0.924 1_554 S
C962 C961 1.414 . S
C962 C965 1.387 . S
H963 C959 0.950 1_556 S
H964 C961 0.924 1_556 S
C965 C956 1.390 . S
C965 H958 0.950 . S
C965 C962 1.387 . S
C966 C967 1.387 . S
C966 H970 0.950 . S
C966 C975 1.390 . S
C967 C966 1.387 . S
C967 C969 1.387 . S
H968 C975 0.950 . S
C969 C967 1.387 . S
C969 C971 1.390 . S
C969 H973 0.950 . S
H970 C966 0.950 . S
C971 C969 1.390 . S
C971 C972 1.387 . S
C971 H974 0.950 . S
C972 C971 1.387 . S
C972 C975 1.387 . S
H973 C969 0.950 . S
H974 C971 0.950 . S
C975 C966 1.390 . S
C975 H968 0.950 . S
C975 C972 1.387 . S
C976 C977 1.387 . S
C976 H980 0.950 . S
C976 C985 1.390 . S
C977 C976 1.387 . S
C977 C979 1.387 . S
H978 C985 0.950 . S
C979 C977 1.387 . S
C979 C981 1.390 . S
C979 H983 0.950 . S
H980 C976 0.950 . S
C981 C979 1.390 . S
C981 C982 1.387 . S
C981 H984 0.950 . S
C982 C981 1.387 . S
C982 C985 1.387 . S
H983 C979 0.950 . S
H984 C981 0.950 . S
C985 C976 1.390 . S
C985 H978 0.950 . S
C985 C982 1.387 . S
C986 C987 1.387 . S
C986 H990 0.950 . S
C986 C995 1.390 . S
C987 C986 1.387 . S
C987 C989 1.387 1_556 S
H988 C995 0.950 . S
C989 C987 1.387 1_554 S
C989 C991 1.390 . S
C989 H993 0.950 . S
H990 C986 0.950 . S
C991 C989 1.390 . S
C991 C992 1.387 1_554 S
C991 H994 0.950 . S
C992 C991 1.387 1_556 S
C992 C995 1.387 . S
H993 C989 0.950 . S
H994 C991 0.950 . S
C995 C986 1.390 . S
C995 H988 0.950 . S
C995 C992 1.387 . S
C996 C997 1.387 . S
C996 H1000 0.950 . S
C996 C1005 1.390 . S
C997 C996 1.387 . S
C997 C999 1.387 . S
H998 C1005 0.950 . S
C999 C997 1.387 . S
C999 C1001 1.390 . S
C999 H1003 0.950 . S
H1000 C996 0.950 . S
C1001 C999 1.390 . S
C1001 C1002 1.387 . S
C1001 H1004 0.950 1_556 S
C1002 C1001 1.387 . S
C1002 C1005 1.387 . S
H1003 C999 0.950 . S
H1004 C1001 0.950 1_554 S
C1005 C996 1.390 . S
C1005 H998 0.950 . S
C1005 C1002 1.387 . S
C1006 C1007 1.387 . S
C1006 H1010 0.950 . S
C1006 C1015 1.390 . S
C1007 C1006 1.387 . S
C1007 C1009 1.387 . S
H1008 C1015 0.950 . S
C1009 C1007 1.387 . S
C1009 C1011 1.390 . S
C1009 H1013 0.950 . S
H1010 C1006 0.950 . S
C1011 C1009 1.390 . S
C1011 C1012 1.387 . S
C1011 H1014 0.950 . S
C1012 C1011 1.387 . S
C1012 C1015 1.387 . S
H1013 C1009 0.950 . S
H1014 C1011 0.950 . S
C1015 C1006 1.390 . S
C1015 H1008 0.950 . S
C1015 C1012 1.387 . S
C1016 C1017 1.387 1_554 S
C1016 H1020 0.950 . S
C1016 C1025 1.390 . S
C1017 C1016 1.387 1_556 S
C1017 C1019 1.387 . S
H1018 C1025 0.950 . S
C1019 C1017 1.387 . S
C1019 C1021 1.390 . S
C1019 H1023 0.950 . S
H1020 C1016 0.950 . S
C1021 C1019 1.390 . S
C1021 C1022 1.387 . S
C1021 H1024 0.950 . S
C1022 C1021 1.387 . S
C1022 C1025 1.387 1_556 S
H1023 C1019 0.950 . S
H1024 C1021 0.950 . S
C1025 C1016 1.390 . S
C1025 H1018 0.950 . S
C1025 C1022 1.387 1_554 S
C1026 C1027 1.387 . S
C1026 H1030 0.950 . S
C1026 C1035 1.390 . S
C1027 C1026 1.387 . S
C1027 C1029 1.387 . S
H1028 C1035 0.950 . S
C1029 C1027 1.387 . S
C1029 C1031 1.390 . S
C1029 H1033 0.950 . S
H1030 C1026 0.950 . S
C1031 C1029 1.390 . S
C1031 C1032 1.387 . S
C1031 H1034 0.950 . S
C1032 C1031 1.387 . S
C1032 C1035 1.387 . S
H1033 C1029 0.950 . S
H1034 C1031 0.950 . S
C1035 C1026 1.390 . S
C1035 H1028 0.950 . S
C1035 C1032 1.387 . S
C1036 C1037 1.387 . S
C1036 H1040 0.950 . S
C1036 C1045 1.390 . S
C1037 C1036 1.387 . S
C1037 C1039 1.387 . S
H1038 C1045 0.950 . S
C1039 C1037 1.387 . S
C1039 C1041 1.390 . S
C1039 H1043 0.950 . S
H1040 C1036 0.950 . S
C1041 C1039 1.390 . S
C1041 C1042 1.387 . S
C1041 H1044 0.950 . S
C1042 C1041 1.387 . S
C1042 C1045 1.387 . S
H1043 C1039 0.950 . S
H1044 C1041 0.950 . S
C1045 C1036 1.390 . S
C1045 H1038 0.950 . S
C1045 C1042 1.387 . S
C1046 C1047 1.387 . S
C1046 H1050 0.950 . S
C1046 C1055 1.390 . S
C1047 C1046 1.387 . S
C1047 C1049 1.387 . S
H1048 C1055 0.950 . S
C1049 C1047 1.387 . S
C1049 C1051 1.390 . S
C1049 H1053 0.950 . S
H1050 C1046 0.950 . S
C1051 C1049 1.390 . S
C1051 C1052 1.387 . S
C1051 H1054 0.950 . S
C1052 C1051 1.387 . S
C1052 C1055 1.387 . S
H1053 C1049 0.950 . S
H1054 C1051 0.950 . S
C1055 C1046 1.390 . S
C1055 H1048 0.950 . S
C1055 C1052 1.387 . S
C1056 C1057 1.387 1_455 S
C1056 H1060 0.950 1_455 S
C1056 C1065 1.390 . S
C1057 C1056 1.387 1_655 S
C1057 C1059 1.387 1_655 S
H1058 C1065 0.950 . S
C1059 C1057 1.387 1_455 S
C1059 C1061 1.390 . S
C1059 H1063 0.950 . S
H1060 C1056 0.950 1_655 S
C1061 C1059 1.390 . S
C1061 C1062 1.387 . S
C1061 H1064 0.950 . S
C1062 C1061 1.387 . S
C1062 C1065 1.387 . S
H1063 C1059 0.950 . S
H1064 C1061 0.950 . S
C1065 C1056 1.390 . S
C1065 H1058 0.950 . S
C1065 C1062 1.387 . S
C1066 C1067 1.387 . S
C1066 H1070 0.950 . S
C1066 C1075 1.390 . S
C1067 C1066 1.387 . S
C1067 C1069 1.387 . S
H1068 C1075 0.950 . S
C1069 C1067 1.387 . S
C1069 C1071 1.390 . S
C1069 H1073 0.950 . S
H1070 C1066 0.950 . S
C1071 C1069 1.390 . S
C1071 C1072 1.387 . S
C1071 H1074 0.950 . S
C1072 C1071 1.387 . S
C1072 C1075 1.387 . S
H1073 C1069 0.950 . S
H1074 C1071 0.950 . S
C1075 C1066 1.390 . S
C1075 H1068 0.950 . S
C1075 C1072 1.387 . S
C1076 C1077 1.387 . S
C1076 H1080 0.950 . S
C1076 C1085 1.390 1_545 S
C1077 C1076 1.387 . S
C1077 C1079 1.383 1_545 S
H1078 C1085 0.950 . S
C1079 C1077 1.383 1_565 S
C1079 C1081 1.397 . S
C1079 H1083 0.947 1_565 S
H1080 C1076 0.950 . S
C1081 C1079 1.397 . S
C1081 C1082 1.387 . S
C1081 H1084 0.950 . S
C1082 C1081 1.387 . S
C1082 C1085 1.387 . S
H1083 C1079 0.947 1_545 S
H1084 C1081 0.950 . S
C1085 C1076 1.390 1_565 S
C1085 H1078 0.950 . S
C1085 C1082 1.387 . S
C1086 C1087 1.387 . S
C1086 H1090 0.950 . S
C1086 C1095 1.390 . S
C1087 C1086 1.387 . S
C1087 C1089 1.387 . S
H1088 C1095 0.950 . S
C1089 C1087 1.387 . S
C1089 C1091 1.390 . S
C1089 H1093 0.950 . S
H1090 C1086 0.950 . S
C1091 C1089 1.390 . S
C1091 C1092 1.387 . S
C1091 H1094 0.950 . S
C1092 C1091 1.387 . S
C1092 C1095 1.387 . S
H1093 C1089 0.950 . S
H1094 C1091 0.950 . S
C1095 C1086 1.390 . S
C1095 H1088 0.950 . S
C1095 C1092 1.387 . S
C1096 C1097 1.387 . S
C1096 H1100 0.950 . S
C1096 C1105 1.390 . S
C1097 C1096 1.387 . S
C1097 C1099 1.387 . S
H1098 C1105 0.950 . S
C1099 C1097 1.387 . S
C1099 C1101 1.390 . S
C1099 H1103 0.950 . S
H1100 C1096 0.950 . S
C1101 C1099 1.390 . S
C1101 C1102 1.387 . S
C1101 H1104 0.950 . S
C1102 C1101 1.387 . S
C1102 C1105 1.387 . S
H1103 C1099 0.950 . S
H1104 C1101 0.950 . S
C1105 C1096 1.390 . S
C1105 H1098 0.950 . S
C1105 C1102 1.387 . S
C1106 C1107 1.387 . S
C1106 H1110 0.950 . S
C1106 C1115 1.390 . S
C1107 C1106 1.387 . S
C1107 C1109 1.387 . S
H1108 C1115 0.950 . S
C1109 C1107 1.387 . S
C1109 C1111 1.390 . S
C1109 H1113 0.950 . S
H1110 C1106 0.950 . S
C1111 C1109 1.390 . S
C1111 C1112 1.387 . S
C1111 H1114 0.950 . S
C1112 C1111 1.387 . S
C1112 C1115 1.387 . S
H1113 C1109 0.950 . S
H1114 C1111 0.950 . S
C1115 C1106 1.390 . S
C1115 H1108 0.950 . S
C1115 C1112 1.387 . S
C1116 C1117 1.387 . S
C1116 H1120 0.950 . S
C1116 C1125 1.390 . S
C1117 C1116 1.387 . S
C1117 C1119 1.387 . S
H1118 C1125 0.950 . S
C1119 C1117 1.387 . S
C1119 C1121 1.390 . S
C1119 H1123 0.950 . S
H1120 C1116 0.950 . S
C1121 C1119 1.390 . S
C1121 C1122 1.387 . S
C1121 H1124 0.950 . S
C1122 C1121 1.387 . S
C1122 C1125 1.387 . S
H1123 C1119 0.950 . S
H1124 C1121 0.950 . S
C1125 C1116 1.390 . S
C1125 H1118 0.950 . S
C1125 C1122 1.387 . S
C1126 C1127 1.387 . S
C1126 H1130 0.950 . S
C1126 C1135 1.390 . S
C1127 C1126 1.387 . S
C1127 C1129 1.387 . S
H1128 C1135 0.950 . S
C1129 C1127 1.387 . S
C1129 C1131 1.390 . S
C1129 H1133 0.950 . S
H1130 C1126 0.950 . S
C1131 C1129 1.390 . S
C1131 C1132 1.387 . S
C1131 H1134 0.950 . S
C1132 C1131 1.387 . S
C1132 C1135 1.387 . S
H1133 C1129 0.950 . S
H1134 C1131 0.950 . S
C1135 C1126 1.390 . S
C1135 H1128 0.950 . S
C1135 C1132 1.387 . S
C1136 C1137 1.387 . S
C1136 H1140 0.950 . S
C1136 C1145 1.390 . S
C1137 C1136 1.387 . S
C1137 C1139 1.387 . S
H1138 C1145 0.950 . S
C1139 C1137 1.387 . S
C1139 C1141 1.390 . S
C1139 H1143 0.950 . S
H1140 C1136 0.950 . S
C1141 C1139 1.390 . S
C1141 C1142 1.387 . S
C1141 H1144 0.950 . S
C1142 C1141 1.387 . S
C1142 C1145 1.387 . S
H1143 C1139 0.950 . S
H1144 C1141 0.950 . S
C1145 C1136 1.390 . S
C1145 H1138 0.950 . S
C1145 C1142 1.387 . S
C1146 C1147 1.387 1_565 S
C1146 H1150 0.950 1_565 S
C1146 C1155 1.390 . S
C1147 C1146 1.387 1_545 S
C1147 C1149 1.387 1_545 S
H1148 C1155 0.950 . S
C1149 C1147 1.387 1_565 S
C1149 C1151 1.390 . S
C1149 H1153 0.950 1_565 S
H1150 C1146 0.950 1_545 S
C1151 C1149 1.390 . S
C1151 C1152 1.387 . S
C1151 H1154 0.950 . S
C1152 C1151 1.387 . S
C1152 C1155 1.387 . S
H1153 C1149 0.950 1_545 S
H1154 C1151 0.950 . S
C1155 C1146 1.390 . S
C1155 H1148 0.950 . S
C1155 C1152 1.387 . S
C1156 C1157 1.387 . S
C1156 H1160 0.950 1_455 S
C1156 C1165 1.390 . S
C1157 C1156 1.387 . S
C1157 C1159 1.387 . S
H1158 C1165 0.950 . S
C1159 C1157 1.387 . S
C1159 C1161 1.390 . S
C1159 H1163 0.950 . S
H1160 C1156 0.950 1_655 S
C1161 C1159 1.390 . S
C1161 C1162 1.387 . S
C1161 H1164 0.950 . S
C1162 C1161 1.387 . S
C1162 C1165 1.387 . S
H1163 C1159 0.950 . S
H1164 C1161 0.950 . S
C1165 C1156 1.390 . S
C1165 H1158 0.950 . S
C1165 C1162 1.387 . S
C1166 C1167 1.387 . S
C1166 H1170 0.950 . S
C1166 C1175 1.390 . S
C1167 C1166 1.387 . S
C1167 C1169 1.387 . S
H1168 C1175 0.950 . S
C1169 C1167 1.387 . S
C1169 C1171 1.390 . S
C1169 H1173 0.950 . S
H1170 C1166 0.950 . S
C1171 C1169 1.390 . S
C1171 C1172 1.387 . S
C1171 H1174 0.950 . S
C1172 C1171 1.387 . S
C1172 C1175 1.387 . S
H1173 C1169 0.950 . S
H1174 C1171 0.950 . S
C1175 C1166 1.390 . S
C1175 H1168 0.950 . S
C1175 C1172 1.387 . S
C1176 C1177 1.387 . S
C1176 H1180 0.950 . S
C1176 C1185 1.390 . S
C1177 C1176 1.387 . S
C1177 C1179 1.387 . S
H1178 C1185 0.950 . S
C1179 C1177 1.387 . S
C1179 C1181 1.390 . S
C1179 H1183 0.950 . S
H1180 C1176 0.950 . S
C1181 C1179 1.390 . S
C1181 C1182 1.387 . S
C1181 H1184 0.950 . S
C1182 C1181 1.387 . S
C1182 C1185 1.387 . S
H1183 C1179 0.950 . S
H1184 C1181 0.950 . S
C1185 C1176 1.390 . S
C1185 H1178 0.950 . S
C1185 C1182 1.387 . S
C1186 C1187 1.387 . S
C1186 H1190 0.950 . S
C1186 C1195 1.390 . S
C1187 C1186 1.387 . S
C1187 C1189 1.387 . S
H1188 C1195 0.950 . S
C1189 C1187 1.387 . S
C1189 C1191 1.390 . S
C1189 H1193 0.950 . S
H1190 C1186 0.950 . S
C1191 C1189 1.390 . S
C1191 C1192 1.387 . S
C1191 H1194 0.950 . S
C1192 C1191 1.387 . S
C1192 C1195 1.387 . S
H1193 C1189 0.950 . S
H1194 C1191 0.950 . S
C1195 C1186 1.390 . S
C1195 H1188 0.950 . S
C1195 C1192 1.387 . S
C1196 C1197 1.387 . S
C1196 H1200 0.950 . S
C1196 C1205 1.390 . S
C1197 C1196 1.387 . S
C1197 C1199 1.387 . S
H1198 C1205 0.950 . S
C1199 C1197 1.387 . S
C1199 C1201 1.390 . S
C1199 H1203 0.950 . S
H1200 C1196 0.950 . S
C1201 C1199 1.390 . S
C1201 C1202 1.387 . S
C1201 H1204 0.950 . S
C1202 C1201 1.387 . S
C1202 C1205 1.387 . S
H1203 C1199 0.950 . S
H1204 C1201 0.950 . S
C1205 C1196 1.390 . S
C1205 H1198 0.950 . S
C1205 C1202 1.387 . S
C1206 C1207 1.387 1_545 S
C1206 H1210 0.950 1_545 S
C1206 C1215 1.390 . S
C1207 C1206 1.387 1_565 S
C1207 C1209 1.387 1_565 S
H1208 C1215 0.950 . S
C1209 C1207 1.387 1_545 S
C1209 C1211 1.390 . S
C1209 H1213 0.950 1_545 S
H1210 C1206 0.950 1_565 S
C1211 C1209 1.390 . S
C1211 C1212 1.387 . S
C1211 H1214 0.950 . S
C1212 C1211 1.387 . S
C1212 C1215 1.387 . S
H1213 C1209 0.950 1_565 S
H1214 C1211 0.950 . S
C1215 C1206 1.390 . S
C1215 H1208 0.950 . S
C1215 C1212 1.387 . S
C1216 C1217 1.387 . S
C1216 H1220 0.950 1_655 S
C1216 C1225 1.390 . S
C1217 C1216 1.387 . S
C1217 C1219 1.387 . S
H1218 C1225 0.950 . S
C1219 C1217 1.387 . S
C1219 C1221 1.390 . S
C1219 H1223 0.950 . S
H1220 C1216 0.950 1_455 S
C1221 C1219 1.390 . S
C1221 C1222 1.387 . S
C1221 H1224 0.950 . S
C1222 C1221 1.387 . S
C1222 C1225 1.387 . S
H1223 C1219 0.950 . S
H1224 C1221 0.950 . S
C1225 C1216 1.390 . S
C1225 H1218 0.950 . S
C1225 C1222 1.387 . S
C1226 C1227 1.387 . S
C1226 H1230 0.950 . S
C1226 C1235 1.390 . S
C1227 C1226 1.387 . S
C1227 C1229 1.387 . S
H1228 C1235 0.950 . S
C1229 C1227 1.387 . S
C1229 C1231 1.390 . S
C1229 H1233 0.950 . S
H1230 C1226 0.950 . S
C1231 C1229 1.390 . S
C1231 C1232 1.387 . S
C1231 H1234 0.950 . S
C1232 C1231 1.387 . S
C1232 C1235 1.387 . S
H1233 C1229 0.950 . S
H1234 C1231 0.950 . S
C1235 C1226 1.390 . S
C1235 H1228 0.950 . S
C1235 C1232 1.387 . S
C1236 C1237 1.387 1_655 S
C1236 H1240 0.950 1_655 S
C1236 C1245 1.390 . S
C1237 C1236 1.387 1_455 S
C1237 C1239 1.387 1_455 S
H1238 C1245 0.950 . S
C1239 C1237 1.387 1_655 S
C1239 C1241 1.390 . S
C1239 H1243 0.950 . S
H1240 C1236 0.950 1_455 S
C1241 C1239 1.390 . S
C1241 C1242 1.387 . S
C1241 H1244 0.950 . S
C1242 C1241 1.387 . S
C1242 C1245 1.387 . S
H1243 C1239 0.950 . S
H1244 C1241 0.950 . S
C1245 C1236 1.390 . S
C1245 H1238 0.950 . S
C1245 C1242 1.387 . S
C1246 C1247 1.387 . S
C1246 H1250 0.950 . S
C1246 C1255 1.390 . S
C1247 C1246 1.387 . S
C1247 C1249 1.387 . S
H1248 C1255 0.950 . S
C1249 C1247 1.387 . S
C1249 C1251 1.390 . S
C1249 H1253 0.950 . S
H1250 C1246 0.950 . S
C1251 C1249 1.390 . S
C1251 C1252 1.387 . S
C1251 H1254 0.950 . S
C1252 C1251 1.387 . S
C1252 C1255 1.387 . S
H1253 C1249 0.950 . S
H1254 C1251 0.950 . S
C1255 C1246 1.390 . S
C1255 H1248 0.950 . S
C1255 C1252 1.387 . S
C1256 C1257 1.377 1_545 S
C1256 H1260 0.942 1_545 S
C1256 C1265 1.409 . S
C1257 C1256 1.377 1_565 S
C1257 C1259 1.387 1_565 S
H1258 C1265 0.950 . S
C1259 C1257 1.387 1_545 S
C1259 C1261 1.390 . S
C1259 H1263 0.950 1_545 S
H1260 C1256 0.942 1_565 S
C1261 C1259 1.390 . S
C1261 C1262 1.387 . S
C1261 H1264 0.950 . S
C1262 C1261 1.387 . S
C1262 C1265 1.387 . S
H1263 C1259 0.950 1_565 S
H1264 C1261 0.950 . S
C1265 C1256 1.409 . S
C1265 H1258 0.950 . S
C1265 C1262 1.387 . S
C1266 C1267 1.387 . S
C1266 H1270 0.950 . S
C1266 C1275 1.390 . S
C1267 C1266 1.387 . S
C1267 C1269 1.387 . S
H1268 C1275 0.950 . S
C1269 C1267 1.387 . S
C1269 C1271 1.390 . S
C1269 H1273 0.950 . S
H1270 C1266 0.950 . S
C1271 C1269 1.390 . S
C1271 C1272 1.387 . S
C1271 H1274 0.950 . S
C1272 C1271 1.387 . S
C1272 C1275 1.387 . S
H1273 C1269 0.950 . S
H1274 C1271 0.950 . S
C1275 C1266 1.390 . S
C1275 H1268 0.950 . S
C1275 C1272 1.387 . S
C1276 C1277 1.387 . S
C1276 H1280 0.950 . S
C1276 C1285 1.390 . S
C1277 C1276 1.387 . S
C1277 C1279 1.387 . S
H1278 C1285 0.950 . S
C1279 C1277 1.387 . S
C1279 C1281 1.390 . S
C1279 H1283 0.950 . S
H1280 C1276 0.950 . S
C1281 C1279 1.390 . S
C1281 C1282 1.387 . S
C1281 H1284 0.950 . S
C1282 C1281 1.387 . S
C1282 C1285 1.387 . S
H1283 C1279 0.950 . S
H1284 C1281 0.950 . S
C1285 C1276 1.390 . S
C1285 H1278 0.950 . S
C1285 C1282 1.387 . S
C1286 C1287 1.387 . S
C1286 H1290 0.950 . S
C1286 C1295 1.390 . S
C1287 C1286 1.387 . S
C1287 C1289 1.387 . S
H1288 C1295 0.950 . S
C1289 C1287 1.387 . S
C1289 C1291 1.390 . S
C1289 H1293 0.950 . S
H1290 C1286 0.950 . S
C1291 C1289 1.390 . S
C1291 C1292 1.387 . S
C1291 H1294 0.950 . S
C1292 C1291 1.387 . S
C1292 C1295 1.387 . S
H1293 C1289 0.950 . S
H1294 C1291 0.950 . S
C1295 C1286 1.390 . S
C1295 H1288 0.950 . S
C1295 C1292 1.387 . S
C1296 C1297 1.387 . S
C1296 H1300 0.950 . S
C1296 C1305 1.390 . S
C1297 C1296 1.387 . S
C1297 C1299 1.387 . S
H1298 C1305 0.950 . S
C1299 C1297 1.387 . S
C1299 C1301 1.390 1_565 S
C1299 H1303 0.950 1_565 S
H1300 C1296 0.950 . S
C1301 C1299 1.390 1_545 S
C1301 C1302 1.387 1_545 S
C1301 H1304 0.950 . S
C1302 C1301 1.387 1_565 S
C1302 C1305 1.387 . S
H1303 C1299 0.950 1_545 S
H1304 C1301 0.950 . S
C1305 C1296 1.390 . S
C1305 H1298 0.950 . S
C1305 C1302 1.387 . S
C1306 C1307 1.389 1_655 S
C1306 H1310 0.951 . S
C1306 C1315 1.387 1_655 S
C1307 C1306 1.389 1_455 S
C1307 C1309 1.387 . S
H1308 C1315 0.950 1_655 S
C1309 C1307 1.387 . S
C1309 C1311 1.390 . S
C1309 H1313 0.950 . S
H1310 C1306 0.951 . S
C1311 C1309 1.390 . S
C1311 C1312 1.387 . S
C1311 H1314 0.950 . S
C1312 C1311 1.387 . S
C1312 C1315 1.387 . S
H1313 C1309 0.950 . S
H1314 C1311 0.950 . S
C1315 C1306 1.387 1_455 S
C1315 H1308 0.950 1_455 S
C1315 C1312 1.387 . S
C1316 C1317 1.387 . S
C1316 H1320 0.950 . S
C1316 C1325 1.390 . S
C1317 C1316 1.387 . S
C1317 C1319 1.387 . S
H1318 C1325 0.950 . S
C1319 C1317 1.387 . S
C1319 C1321 1.390 . S
C1319 H1323 0.950 . S
H1320 C1316 0.950 . S
C1321 C1319 1.390 . S
C1321 C1322 1.387 . S
C1321 H1324 0.950 . S
C1322 C1321 1.387 . S
C1322 C1325 1.387 . S
H1323 C1319 0.950 . S
H1324 C1321 0.950 . S
C1325 C1316 1.390 . S
C1325 H1318 0.950 . S
C1325 C1322 1.387 . S
C1326 C1327 1.387 1_455 S
C1326 H1330 0.950 . S
C1326 C1335 1.390 1_455 S
C1327 C1326 1.387 1_655 S
C1327 C1329 1.387 . S
H1328 C1335 0.950 1_455 S
C1329 C1327 1.387 . S
C1329 C1331 1.390 . S
C1329 H1333 0.950 . S
H1330 C1326 0.950 . S
C1331 C1329 1.390 . S
C1331 C1332 1.387 . S
C1331 H1334 0.950 . S
C1332 C1331 1.387 . S
C1332 C1335 1.387 . S
H1333 C1329 0.950 . S
H1334 C1331 0.950 . S
C1335 C1326 1.390 1_655 S
C1335 H1328 0.950 1_655 S
C1335 C1332 1.387 . S
C1336 C1337 1.387 . S
C1336 H1340 0.950 . S
C1336 C1345 1.390 . S
C1337 C1336 1.387 . S
C1337 C1339 1.387 . S
H1338 C1345 0.950 . S
C1339 C1337 1.387 . S
C1339 C1341 1.390 . S
C1339 H1343 0.950 . S
H1340 C1336 0.950 . S
C1341 C1339 1.390 . S
C1341 C1342 1.387 . S
C1341 H1344 0.950 . S
C1342 C1341 1.387 . S
C1342 C1345 1.387 . S
H1343 C1339 0.950 . S
H1344 C1341 0.950 . S
C1345 C1336 1.390 . S
C1345 H1338 0.950 . S
C1345 C1342 1.387 . S
C1346 C1347 1.387 . S
C1346 H1350 0.950 . S
C1346 C1355 1.390 . S
C1347 C1346 1.387 . S
C1347 C1349 1.387 . S
H1348 C1355 0.950 . S
C1349 C1347 1.387 . S
C1349 C1351 1.390 . S
C1349 H1353 0.950 . S
H1350 C1346 0.950 . S
C1351 C1349 1.390 . S
C1351 C1352 1.387 . S
C1351 H1354 0.950 . S
C1352 C1351 1.387 . S
C1352 C1355 1.387 . S
H1353 C1349 0.950 . S
H1354 C1351 0.950 . S
C1355 C1346 1.390 . S
C1355 H1348 0.950 . S
C1355 C1352 1.387 . S
C1356 C1357 1.387 . S
C1356 H1360 0.950 . S
C1356 C1365 1.390 . S
C1357 C1356 1.387 . S
C1357 C1359 1.387 . S
H1358 C1365 0.950 . S
C1359 C1357 1.387 . S
C1359 C1361 1.390 . S
C1359 H1363 0.950 . S
H1360 C1356 0.950 . S
C1361 C1359 1.390 . S
C1361 C1362 1.387 . S
C1361 H1364 0.950 . S
C1362 C1361 1.387 . S
C1362 C1365 1.387 . S
H1363 C1359 0.950 . S
H1364 C1361 0.950 . S
C1365 C1356 1.390 . S
C1365 H1358 0.950 . S
C1365 C1362 1.387 . S
C1366 C1367 1.387 . S
C1366 H1370 0.950 . S
C1366 C1375 1.390 . S
C1367 C1366 1.387 . S
C1367 C1369 1.387 . S
H1368 C1375 0.950 . S
C1369 C1367 1.387 . S
C1369 C1371 1.390 . S
C1369 H1373 0.950 . S
H1370 C1366 0.950 . S
C1371 C1369 1.390 . S
C1371 C1372 1.387 . S
C1371 H1374 0.950 . S
C1372 C1371 1.387 . S
C1372 C1375 1.387 . S
H1373 C1369 0.950 . S
H1374 C1371 0.950 . S
C1375 C1366 1.390 . S
C1375 H1368 0.950 . S
C1375 C1372 1.387 . S
C1376 C1377 1.387 . S
C1376 H1380 0.950 . S
C1376 C1385 1.390 . S
C1377 C1376 1.387 . S
C1377 C1379 1.387 . S
H1378 C1385 0.950 . S
C1379 C1377 1.387 . S
C1379 C1381 1.390 . S
C1379 H1383 0.950 . S
H1380 C1376 0.950 . S
C1381 C1379 1.390 . S
C1381 C1382 1.387 . S
C1381 H1384 0.950 . S
C1382 C1381 1.387 . S
C1382 C1385 1.387 . S
H1383 C1379 0.950 . S
H1384 C1381 0.950 . S
C1385 C1376 1.390 . S
C1385 H1378 0.950 . S
C1385 C1382 1.387 . S
C1386 C1387 1.387 . S
C1386 H1390 0.950 . S
C1386 C1395 1.390 . S
C1387 C1386 1.387 . S
C1387 C1389 1.387 . S
H1388 C1395 0.950 . S
C1389 C1387 1.387 . S
C1389 C1391 1.390 . S
C1389 H1393 0.950 . S
H1390 C1386 0.950 . S
C1391 C1389 1.390 . S
C1391 C1392 1.387 . S
C1391 H1394 0.950 . S
C1392 C1391 1.387 . S
C1392 C1395 1.387 . S
H1393 C1389 0.950 . S
H1394 C1391 0.950 . S
C1395 C1386 1.390 . S
C1395 H1388 0.950 . S
C1395 C1392 1.387 . S
C1396 C1397 1.387 . S
C1396 H1400 0.950 . S
C1396 C1405 1.390 . S
C1397 C1396 1.387 . S
C1397 C1399 1.387 . S
H1398 C1405 0.950 . S
C1399 C1397 1.387 . S
C1399 C1401 1.390 . S
C1399 H1403 0.950 . S
H1400 C1396 0.950 . S
C1401 C1399 1.390 . S
C1401 C1402 1.387 . S
C1401 H1404 0.950 . S
C1402 C1401 1.387 . S
C1402 C1405 1.387 . S
H1403 C1399 0.950 . S
H1404 C1401 0.950 . S
C1405 C1396 1.390 . S
C1405 H1398 0.950 . S
C1405 C1402 1.387 . S
C1406 C1407 1.387 . S
C1406 H1410 0.950 . S
C1406 C1415 1.390 . S
C1407 C1406 1.387 . S
C1407 C1409 1.387 . S
H1408 C1415 0.950 . S
C1409 C1407 1.387 . S
C1409 C1411 1.390 . S
C1409 H1413 0.950 . S
H1410 C1406 0.950 . S
C1411 C1409 1.390 . S
C1411 C1412 1.387 . S
C1411 H1414 0.950 . S
C1412 C1411 1.387 . S
C1412 C1415 1.387 . S
H1413 C1409 0.950 . S
H1414 C1411 0.950 . S
C1415 C1406 1.390 . S
C1415 H1408 0.950 . S
C1415 C1412 1.387 . S
C1416 C1417 1.387 . S
C1416 H1420 0.950 . S
C1416 C1425 1.390 . S
C1417 C1416 1.387 . S
C1417 C1419 1.387 . S
H1418 C1425 0.950 . S
C1419 C1417 1.387 . S
C1419 C1421 1.390 . S
C1419 H1423 0.950 . S
H1420 C1416 0.950 . S
C1421 C1419 1.390 . S
C1421 C1422 1.387 . S
C1421 H1424 0.950 . S
C1422 C1421 1.387 . S
C1422 C1425 1.387 . S
H1423 C1419 0.950 . S
H1424 C1421 0.950 . S
C1425 C1416 1.390 . S
C1425 H1418 0.950 . S
C1425 C1422 1.387 . S
C1426 C1427 1.387 . S
C1426 H1430 0.950 . S
C1426 C1435 1.390 . S
C1427 C1426 1.387 . S
C1427 C1429 1.387 . S
H1428 C1435 0.950 . S
C1429 C1427 1.387 . S
C1429 C1431 1.390 . S
C1429 H1433 0.950 . S
H1430 C1426 0.950 . S
C1431 C1429 1.390 . S
C1431 C1432 1.387 . S
C1431 H1434 0.950 . S
C1432 C1431 1.387 . S
C1432 C1435 1.387 . S
H1433 C1429 0.950 . S
H1434 C1431 0.950 . S
C1435 C1426 1.390 . S
C1435 H1428 0.950 . S
C1435 C1432 1.387 . S
C1436 C1437 1.387 . S
C1436 H1440 0.950 . S
C1436 C1445 1.390 . S
C1437 C1436 1.387 . S
C1437 C1439 1.387 . S
H1438 C1445 0.950 . S
C1439 C1437 1.387 . S
C1439 C1441 1.390 . S
C1439 H1443 0.950 . S
H1440 C1436 0.950 . S
C1441 C1439 1.390 . S
C1441 C1442 1.387 . S
C1441 H1444 0.950 . S
C1442 C1441 1.387 . S
C1442 C1445 1.387 . S
H1443 C1439 0.950 . S
H1444 C1441 0.950 . S
C1445 C1436 1.390 . S
C1445 H1438 0.950 . S
C1445 C1442 1.387 . S
C1446 C1447 1.387 . S
C1446 H1450 0.950 . S
C1446 C1455 1.390 . S
C1447 C1446 1.387 . S
C1447 C1449 1.387 . S
H1448 C1455 0.950 . S
C1449 C1447 1.387 . S
C1449 C1451 1.390 . S
C1449 H1453 0.950 . S
H1450 C1446 0.950 . S
C1451 C1449 1.390 . S
C1451 C1452 1.387 . S
C1451 H1454 0.950 . S
C1452 C1451 1.387 . S
C1452 C1455 1.387 . S
H1453 C1449 0.950 . S
H1454 C1451 0.950 . S
C1455 C1446 1.390 . S
C1455 H1448 0.950 . S
C1455 C1452 1.387 . S
C1456 C1457 1.387 . S
C1456 H1460 0.950 . S
C1456 C1465 1.390 . S
C1457 C1456 1.387 . S
C1457 C1459 1.387 . S
H1458 C1465 0.950 . S
C1459 C1457 1.387 . S
C1459 C1461 1.390 . S
C1459 H1463 0.950 . S
H1460 C1456 0.950 . S
C1461 C1459 1.390 . S
C1461 C1462 1.387 . S
C1461 H1464 0.950 . S
C1462 C1461 1.387 . S
C1462 C1465 1.387 . S
H1463 C1459 0.950 . S
H1464 C1461 0.950 . S
C1465 C1456 1.390 . S
C1465 H1458 0.950 . S
C1465 C1462 1.387 . S
C1466 C1467 1.387 . S
C1466 H1470 0.950 . S
C1466 C1475 1.390 . S
C1467 C1466 1.387 . S
C1467 C1469 1.387 . S
H1468 C1475 0.950 . S
C1469 C1467 1.387 . S
C1469 C1471 1.390 . S
C1469 H1473 0.950 . S
H1470 C1466 0.950 . S
C1471 C1469 1.390 . S
C1471 C1472 1.387 . S
C1471 H1474 0.950 . S
C1472 C1471 1.387 . S
C1472 C1475 1.387 . S
H1473 C1469 0.950 . S
H1474 C1471 0.950 . S
C1475 C1466 1.390 . S
C1475 H1468 0.950 . S
C1475 C1472 1.387 . S
C937 C439 1.527 . S
C942 C588 1.670 . S
C947 C465 1.794 . S
C952 C628 1.777 . S
C957 C401 1.770 . S
C962 C658 1.724 . S
C967 C369 1.616 . S
C972 C618 1.575 . S
C982 C668 1.549 . S
C977 C305 1.550 . S
C987 C343 1.332 . S
C992 C578 1.497 . S
C1002 C607 1.699 . S
C997 C375 1.727 . S
C1012 C647 1.746 . S
C1007 C311 1.764 . S
C1017 C337 1.600 . S
C1022 C673 1.726 . S
C1027 C433 1.479 . S
C1032 C633 1.575 . S
C1037 C471 1.522 . S
C1042 C687 1.516 . S
C1052 C593 1.522 . S
C1047 C407 1.545 . S
C1062 C708 1.668 . S
C1057 C55 1.523 . S
C1067 C81 1.794 . S
C1072 C748 1.777 . S
C1077 C17 1.770 . S
C1082 C778 1.723 . S
C1087 C561 1.616 . S
C1092 C738 1.574 . S
C1097 C497 1.550 . S
C1102 C788 1.548 . S
C1107 C535 1.332 . S
C1112 C698 1.488 . S
C1117 C567 1.727 . S
C1122 C727 1.699 . S
C1127 C503 1.764 . S
C1132 C767 1.746 . S
C1142 C793 1.726 . S
C1137 C529 1.596 . S
C1147 C49 1.476 . S
C1152 C753 1.574 . S
C1162 C807 1.517 . S
C1157 C87 1.523 1_455 S
C1167 C23 1.546 . S
C1172 C713 1.522 . S
C1182 C828 1.670 . S
C1177 C247 1.528 . S
C1187 C273 1.794 . S
C1192 C868 1.777 . S
C1202 C898 1.724 . S
C1197 C209 1.770 . S
C1212 C858 1.574 . S
C1207 C177 1.616 . S
C1222 C908 1.549 . S
C1217 C113 1.550 1_655 S
C1227 C151 1.329 . S
C1232 C818 1.487 . S
C1237 C183 1.728 . S
C1242 C847 1.701 . S
C1247 C119 1.764 . S
C1252 C887 1.747 . S
C1262 C913 1.726 . S
C1257 C145 1.596 . S
C1267 C241 1.479 . S
C1272 C873 1.573 . S
C1277 C279 1.522 . S
C1282 C927 1.516 . S
C1287 C215 1.547 . S
C1292 C833 1.522 . S
C1297 C509 1.414 . S
C1302 C605 1.424 . S
C1312 C645 1.749 . S
C1307 C541 1.657 . S
C1317 C573 1.560 . S
C1322 C664 1.553 . S
C1327 C221 1.815 . S
C1332 C624 1.768 . S
C1337 C253 1.462 . S
C1342 C685 1.531 . S
C1352 C584 1.420 . S
C1347 C285 1.404 . S
C1357 C125 1.414 . S
C1362 C725 1.423 . S
C1367 C157 1.657 . S
C1372 C765 1.749 . S
C1377 C189 1.559 . S
C1382 C784 1.554 . S
C1387 C413 1.815 . S
C1392 C744 1.768 . S
C1402 C805 1.531 . S
C1397 C445 1.462 . S
C1407 C477 1.404 . S
C1412 C704 1.420 . S
C1417 C317 1.414 . S
C1422 C845 1.422 . S
C1427 C349 1.660 . S
C1432 C885 1.752 . S
C1442 C904 1.554 . S
C1437 C381 1.559 . S
C1447 C29 1.815 . S
C1452 C864 1.768 . S
C1457 C61 1.465 . S
C1462 C925 1.533 . S
C1467 C93 1.402 . S
C1472 C824 1.418 . S
