# Generated by pormake.
# Topology dag, (6,3)-cn, num edge types: 1
# Building blocks:
#     Node 0, Type 0, BuildingBlock: OJICUG_clean_sbu_0, # of connection points: 6
#     Node 1, Type 0, BuildingBlock: OJICUG_clean_sbu_0, # of connection points: 6
#     Node 2, Type 0, BuildingBlock: OJICUG_clean_sbu_0, # of connection points: 6
#     Node 3, Type 0, BuildingBlock: OJICUG_clean_sbu_0, # of connection points: 6
#     Node 4, Type 1, BuildingBlock: CUQRIR_clean_linker_1, # of connection points: 3
#     Node 5, Type 1, BuildingBlock: CUQRIR_clean_linker_1, # of connection points: 3
#     Node 6, Type 1, BuildingBlock: CUQRIR_clean_linker_1, # of connection points: 3
#     Node 7, Type 1, BuildingBlock: CUQRIR_clean_linker_1, # of connection points: 3
#     Node 8, Type 1, BuildingBlock: CUQRIR_clean_linker_1, # of connection points: 3
#     Node 9, Type 1, BuildingBlock: CUQRIR_clean_linker_1, # of connection points: 3
#     Node 10, Type 1, BuildingBlock: CUQRIR_clean_linker_1, # of connection points: 3
#     Node 11, Type 1, BuildingBlock: CUQRIR_clean_linker_1, # of connection points: 3
#     Edge 12, Type (0, 1), BuildingBlock: MIFKUJ_clean_linker_0, # of connection points: 2
#     Edge 13, Type (0, 1), BuildingBlock: MIFKUJ_clean_linker_0, # of connection points: 2
#     Edge 14, Type (0, 1), BuildingBlock: MIFKUJ_clean_linker_0, # of connection points: 2
#     Edge 15, Type (0, 1), BuildingBlock: MIFKUJ_clean_linker_0, # of connection points: 2
#     Edge 16, Type (0, 1), BuildingBlock: MIFKUJ_clean_linker_0, # of connection points: 2
#     Edge 17, Type (0, 1), BuildingBlock: MIFKUJ_clean_linker_0, # of connection points: 2
#     Edge 18, Type (0, 1), BuildingBlock: MIFKUJ_clean_linker_0, # of connection points: 2
#     Edge 19, Type (0, 1), BuildingBlock: MIFKUJ_clean_linker_0, # of connection points: 2
#     Edge 20, Type (0, 1), BuildingBlock: MIFKUJ_clean_linker_0, # of connection points: 2
#     Edge 21, Type (0, 1), BuildingBlock: MIFKUJ_clean_linker_0, # of connection points: 2
#     Edge 22, Type (0, 1), BuildingBlock: MIFKUJ_clean_linker_0, # of connection points: 2
#     Edge 23, Type (0, 1), BuildingBlock: MIFKUJ_clean_linker_0, # of connection points: 2
#     Edge 24, Type (0, 1), BuildingBlock: MIFKUJ_clean_linker_0, # of connection points: 2
#     Edge 25, Type (0, 1), BuildingBlock: MIFKUJ_clean_linker_0, # of connection points: 2
#     Edge 26, Type (0, 1), BuildingBlock: MIFKUJ_clean_linker_0, # of connection points: 2
#     Edge 27, Type (0, 1), BuildingBlock: MIFKUJ_clean_linker_0, # of connection points: 2
#     Edge 28, Type (0, 1), BuildingBlock: MIFKUJ_clean_linker_0, # of connection points: 2
#     Edge 29, Type (0, 1), BuildingBlock: MIFKUJ_clean_linker_0, # of connection points: 2
#     Edge 30, Type (0, 1), BuildingBlock: MIFKUJ_clean_linker_0, # of connection points: 2
#     Edge 31, Type (0, 1), BuildingBlock: MIFKUJ_clean_linker_0, # of connection points: 2
#     Edge 32, Type (0, 1), BuildingBlock: MIFKUJ_clean_linker_0, # of connection points: 2
#     Edge 33, Type (0, 1), BuildingBlock: MIFKUJ_clean_linker_0, # of connection points: 2
#     Edge 34, Type (0, 1), BuildingBlock: MIFKUJ_clean_linker_0, # of connection points: 2
#     Edge 35, Type (0, 1), BuildingBlock: MIFKUJ_clean_linker_0, # of connection points: 2
# Relax obj value: 0.085
# Max RMSD: 0.083
# Mean RMSD: 0.074
data_MOF--net-dag--node1-OJICUG_clean_sbu_0--node2-CUQRIR_clean_linker_1--edge1-MIFKUJ_clean_linker_0
_symmetry_space_group_name_H-M    P1
_symmetry_Int_Tables_number       1
_symmetry_cell_setting            triclinic
loop_
_symmetry_equiv_pos_as_xyz
'x, y, z'
_cell_length_a     46.310334
_cell_length_b     46.923725
_cell_length_c     48.279224
_cell_angle_alpha  92.439097
_cell_angle_beta   90.042361
_cell_angle_gamma 90.062667
loop_
_atom_site_label
_atom_site_type_symbol
_atom_site_fract_x
_atom_site_fract_y
_atom_site_fract_z
_atom_type_partial_charge
Sc0 Sc 0.09241 0.90117 0.01587 0.0
Sc1 Sc 0.10875 0.82781 0.01799 0.0
Sc2 Sc 0.16025 0.87917 0.04023 0.0
O3 O 0.12046 0.8694 0.02468 0.0
C4 C 0.15261 0.92514 0.99412 0.0
C5 C 0.08121 0.85627 0.96529 0.0
C6 C 0.17451 0.82609 -0.00129 0.0
C7 C 0.05085 0.85579 0.04322 0.0
C8 C 0.12192 0.92715 0.07112 0.0
C9 C 0.14185 0.8268 0.07599 0.0
O10 O 0.12512 0.92397 0.99382 0.0
O11 O 0.09143 0.83492 0.97733 0.0
O12 O 0.18184 0.84808 0.01335 0.0
O13 O 0.05696 0.88126 0.03711 0.0
O14 O 0.14411 0.91133 0.06923 0.0
O15 O 0.12472 0.81571 0.05795 0.0
O16 O 0.10153 0.92591 0.05349 0.0
O17 O 0.06732 0.83474 0.03725 0.0
O18 O 0.15589 0.84959 0.07241 0.0
O19 O 0.07986 0.88102 0.97691 0.0
O20 O 0.16809 0.9103 0.00979 0.0
O21 O 0.14884 0.81651 0.99793 0.0
Sc22 Sc 0.66376 0.61734 0.47885 0.0
Sc23 Sc 0.61171 0.66926 0.49889 0.0
Sc24 Sc 0.59568 0.59603 0.50266 0.0
O25 O 0.62373 0.62758 0.49353 0.0
C26 C 0.62432 0.57029 0.44728 0.0
C27 C 0.64635 0.66895 0.44153 0.0
C28 C 0.55398 0.64102 0.47467 0.0
C29 C 0.67705 0.67159 0.51946 0.0
C30 C 0.65573 0.57183 0.52504 0.0
C31 C 0.58431 0.64145 0.55232 0.0
O32 O 0.64785 0.58402 0.45055 0.0
O33 O 0.62911 0.68049 0.45919 0.0
O34 O 0.55989 0.61615 0.48252 0.0
O35 O 0.6847 0.64936 0.50534 0.0
O36 O 0.62827 0.57218 0.52386 0.0
O37 O 0.59254 0.66288 0.53906 0.0
O38 O 0.67154 0.58744 0.51043 0.0
O39 O 0.65131 0.68095 0.51966 0.0
O40 O 0.58495 0.61605 0.54211 0.0
O41 O 0.65986 0.64596 0.44562 0.0
O42 O 0.60325 0.57292 0.46399 0.0
O43 O 0.57079 0.6622 0.47875 0.0
Sc44 Sc 0.88375 0.17075 0.00433 0.0
Sc45 Sc 0.83101 0.12048 0.98181 0.0
Sc46 Sc 0.89887 0.09732 0.00443 0.0
O47 O 0.87115 0.12954 0.99694 0.0
C48 C 0.94057 0.14233 0.9777 0.0
C49 C 0.84918 0.17467 0.94778 0.0
C50 C 0.86841 0.07435 0.94823 0.0
C51 C 0.81793 0.17185 0.02494 0.0
C52 C 0.91153 0.14114 0.05583 0.0
C53 C 0.8399 0.07199 0.02585 0.0
O54 O 0.92574 0.16384 0.98596 0.0
O55 O 0.83319 0.15333 0.95224 0.0
O56 O 0.88764 0.07316 0.96694 0.0
O57 O 0.84318 0.18244 0.02362 0.0
O58 O 0.91341 0.11687 0.04321 0.0
O59 O 0.82423 0.08603 0.00959 0.0
O60 O 0.90024 0.16265 0.04494 0.0
O61 O 0.8105 0.14896 0.01178 0.0
O62 O 0.86714 0.07495 0.02736 0.0
O63 O 0.86911 0.18316 0.96425 0.0
O64 O 0.93306 0.11678 0.98175 0.0
O65 O 0.84724 0.0915 0.94972 0.0
Sc66 Sc 0.41 0.40015 0.52097 0.0
Sc67 Sc 0.34077 0.3795 0.54193 0.0
Sc68 Sc 0.39228 0.32699 0.52202 0.0
O69 O 0.38103 0.36884 0.52829 0.0
C70 C 0.42259 0.3557 0.47069 0.0
C71 C 0.35167 0.4264 0.4975 0.0
C72 C 0.32767 0.32683 0.49929 0.0
C73 C 0.3796 0.42559 0.57569 0.0
C74 C 0.44951 0.35348 0.5491 0.0
C75 C 0.35521 0.32607 0.57783 0.0
O76 O 0.42206 0.38085 0.4815 0.0
O77 O 0.33487 0.41072 0.51106 0.0
O78 O 0.35322 0.31693 0.49938 0.0
O79 O 0.40116 0.42323 0.55951 0.0
O80 O 0.43269 0.33251 0.5438 0.0
O81 O 0.34269 0.34971 0.57431 0.0
O82 O 0.44417 0.37868 0.54188 0.0
O83 O 0.35637 0.41154 0.57165 0.0
O84 O 0.3728 0.31472 0.5604 0.0
O85 O 0.37901 0.42515 0.49943 0.0
O86 O 0.41328 0.33409 0.48299 0.0
O87 O 0.32013 0.3487 0.51399 0.0
C88 C 0.09912 0.18099 0.31354 0.0
N89 N 0.09171 0.16222 0.29268 0.0
N90 N 0.12583 0.17513 0.3232 0.0
C91 C 0.08004 0.20449 0.32513 0.0
C92 C 0.13451 0.1522 0.30738 0.0
N93 N 0.11373 0.14427 0.28888 0.0
C94 C 0.16439 0.13962 0.30799 0.0
H95 H 0.08425 0.22419 0.31387 0.0
H96 H 0.08476 0.209 0.34743 0.0
H97 H 0.05692 0.19875 0.32252 0.0
H98 H 0.16463 0.12215 0.32277 0.0
H99 H 0.18054 0.15585 0.31498 0.0
H100 H 0.17075 0.13066 0.28725 0.0
C101 C 0.37346 0.64502 0.81752 0.0
N102 N 0.39338 0.63734 0.79824 0.0
N103 N 0.37909 0.67147 0.82855 0.0
C104 C 0.34764 0.62723 0.82444 0.0
C105 C 0.40311 0.67973 0.81499 0.0
N106 N 0.41176 0.65894 0.79653 0.0
C107 C 0.41628 0.70901 0.81784 0.0
H108 H 0.32995 0.63154 0.80969 0.0
H109 H 0.33998 0.63252 0.84582 0.0
H110 H 0.353 0.60419 0.82229 0.0
H111 H 0.41762 0.71621 0.83996 0.0
H112 H 0.40228 0.72424 0.80713 0.0
H113 H 0.43823 0.70943 0.80867 0.0
C114 C 0.73312 0.81634 0.17837 0.0
N115 N 0.75601 0.82207 0.16212 0.0
N116 N 0.73814 0.79266 0.19276 0.0
C117 C 0.7071 0.83527 0.18208 0.0
C118 C 0.76501 0.78433 0.18482 0.0
N119 N 0.77586 0.80226 0.16624 0.0
C120 C 0.78149 0.76026 0.19709 0.0
H121 H 0.7135 0.85509 0.1939 0.0
H122 H 0.68956 0.82457 0.19333 0.0
H123 H 0.69878 0.84145 0.16168 0.0
H124 H 0.7677 0.74105 0.19817 0.0
H125 H 0.78802 0.76674 0.21857 0.0
H126 H 0.80102 0.75457 0.1848 0.0
C127 C 0.76658 0.33082 0.69733 0.0
N128 N 0.74575 0.34055 0.68051 0.0
N129 N 0.76097 0.30349 0.70383 0.0
C130 C 0.79033 0.34903 0.71 0.0
C131 C 0.73591 0.29717 0.69037 0.0
N132 N 0.72663 0.3197 0.67634 0.0
C133 C 0.72098 0.26867 0.68996 0.0
H134 H 0.81043 0.34528 0.69791 0.0
H135 H 0.79446 0.34336 0.73173 0.0
H136 H 0.78492 0.37203 0.70969 0.0
H137 H 0.70408 0.26897 0.70623 0.0
H138 H 0.73652 0.25132 0.69393 0.0
H139 H 0.71026 0.26427 0.66965 0.0
C140 C 0.59207 0.32794 0.20012 0.0
N141 N 0.58294 0.34811 0.21896 0.0
N142 N 0.61407 0.33805 0.18485 0.0
C143 C 0.58196 0.29742 0.19872 0.0
C144 C 0.61807 0.365 0.19533 0.0
N145 N 0.59916 0.37115 0.21602 0.0
C146 C 0.64122 0.385 0.18615 0.0
H147 H 0.60019 0.28328 0.20394 0.0
H148 H 0.57497 0.2914 0.1773 0.0
H149 H 0.56369 0.29388 0.21301 0.0
H150 H 0.6473 0.38004 0.16424 0.0
H151 H 0.66063 0.38267 0.19934 0.0
H152 H 0.63376 0.40744 0.18855 0.0
C153 C 0.22254 0.20483 0.8292 0.0
N154 N 0.21366 0.18514 0.84705 0.0
N155 N 0.24991 0.19933 0.82073 0.0
C156 C 0.20404 0.22834 0.81857 0.0
C157 C 0.25741 0.17568 0.83411 0.0
N158 N 0.23549 0.16722 0.85029 0.0
C159 C 0.28484 0.15911 0.82908 0.0
H160 H 0.19456 0.22116 0.79834 0.0
H161 H 0.21715 0.24765 0.8152 0.0
H162 H 0.18634 0.23399 0.83326 0.0
H163 H 0.29411 0.15262 0.84902 0.0
H164 H 0.30112 0.1718 0.8181 0.0
H165 H 0.27984 0.13942 0.81644 0.0
C166 C 0.23774 0.67126 0.32977 0.0
N167 N 0.26055 0.66277 0.34483 0.0
N168 N 0.24488 0.69421 0.31514 0.0
C169 C 0.20815 0.65807 0.33029 0.0
C170 C 0.27289 0.69935 0.32178 0.0
N171 N 0.28238 0.68028 0.3399 0.0
C172 C 0.29169 0.72109 0.30847 0.0
H173 H 0.20679 0.64075 0.31397 0.0
H174 H 0.19132 0.67414 0.32608 0.0
H175 H 0.2039 0.64876 0.35064 0.0
H176 H 0.28476 0.72428 0.28682 0.0
H177 H 0.3147 0.71454 0.30846 0.0
H178 H 0.28972 0.74174 0.32037 0.0
C179 C 0.86915 0.85632 0.70519 0.0
N180 N 0.88862 0.86275 0.72547 0.0
N181 N 0.8769 0.83219 0.69069 0.0
C182 C 0.84166 0.87248 0.70049 0.0
C183 C 0.90187 0.82426 0.70275 0.0
N184 N 0.90911 0.84293 0.7237 0.0
C185 C 0.91748 0.79674 0.69603 0.0
H186 H 0.82365 0.86178 0.7111 0.0
H187 H 0.83643 0.87252 0.67809 0.0
H188 H 0.84336 0.89485 0.70872 0.0
H189 H 0.91059 0.78714 0.67568 0.0
H190 H 0.91287 0.78153 0.71245 0.0
H191 H 0.94112 0.80038 0.69567 0.0
H192 H 0.14709 0.92508 0.12216 0.0
H193 H 0.14617 0.96195 0.15969 0.0
H194 H 0.09377 0.01529 0.10933 0.0
H195 H 0.09397 0.9783 0.07194 0.0
H196 H 0.14627 0.04163 0.13688 0.0
H197 H 0.06113 0.98538 0.15395 0.0
H198 H 0.03652 0.93983 0.16104 0.0
H199 H 0.08639 0.92842 0.23475 0.0
H200 H 0.11232 0.97343 0.22738 0.0
H201 H 0.1065 0.15059 0.23396 0.0
H202 H 0.10746 0.113 0.19738 0.0
H203 H 0.12998 0.05148 0.25786 0.0
H204 H 0.12629 0.08889 0.29477 0.0
H205 H 0.09399 0.028 0.22503 0.0
H206 H 0.18024 0.08065 0.20999 0.0
H207 H 0.21034 0.12309 0.20288 0.0
H208 H 0.16429 0.13872 0.12781 0.0
H209 H 0.13363 0.09658 0.13467 0.0
C210 C 0.13527 0.94461 0.11915 0.0
C211 C 0.12048 0.94879 0.09419 0.0
C212 C 0.1348 0.9656 0.14055 0.0
C213 C 0.11996 0.99125 0.13715 0.0
C214 C 0.10537 0.9956 0.11223 0.0
C215 C 0.10532 0.97439 0.09103 0.0
C216 C 0.11945 0.01351 0.15972 0.0
C217 C 0.13461 0.03891 0.15608 0.0
C218 C 0.10507 0.00929 0.18501 0.0
C219 C 0.08893 0.98263 0.18991 0.0
C220 C 0.0671 0.97303 0.17151 0.0
C221 C 0.05285 0.9473 0.17561 0.0
C222 C 0.05977 0.93124 0.1984 0.0
C223 C 0.08104 0.94087 0.2171 0.0
C224 C 0.0956 0.96646 0.21291 0.0
C225 C 0.11126 0.12894 0.23938 0.0
C226 C 0.11602 0.12243 0.2671 0.0
C227 C 0.11227 0.10753 0.21845 0.0
C228 C 0.11934 0.07938 0.22469 0.0
C229 C 0.1245 0.07298 0.25245 0.0
C230 C 0.12268 0.09431 0.27348 0.0
C231 C 0.12081 0.05657 0.20237 0.0
C232 C 0.10582 0.03092 0.20597 0.0
C233 C 0.13598 0.06029 0.17726 0.0
C234 C 0.15447 0.08559 0.17298 0.0
C235 C 0.1764 0.09324 0.19206 0.0
C236 C 0.19358 0.11723 0.18806 0.0
C237 C 0.18919 0.13362 0.16494 0.0
C238 C 0.16765 0.12602 0.14573 0.0
C239 C 0.15038 0.10206 0.14965 0.0
H240 H 0.20251 0.15219 0.16188 0.0
H241 H 0.04866 0.91134 0.20156 0.0
H242 H 0.58395 0.60452 0.59439 0.0
H243 H 0.55868 0.60999 0.63868 0.0
H244 H 0.52981 0.69364 0.61714 0.0
H245 H 0.5562 0.68876 0.57331 0.0
H246 H 0.54097 0.69465 0.66954 0.0
H247 H 0.48908 0.63131 0.60751 0.0
H248 H 0.48104 0.58925 0.57615 0.0
H249 H 0.4953 0.53398 0.64342 0.0
H250 H 0.50468 0.57566 0.67497 0.0
H251 H 0.41324 0.69662 0.75595 0.0
H252 H 0.44711 0.69647 0.71668 0.0
H253 H 0.49127 0.62425 0.74931 0.0
H254 H 0.45815 0.6253 0.78907 0.0
H255 H 0.47229 0.61783 0.69218 0.0
H256 H 0.52485 0.68293 0.75358 0.0
H257 H 0.53037 0.72596 0.78424 0.0
H258 H 0.50939 0.77882 0.71665 0.0
H259 H 0.50331 0.73605 0.68565 0.0
C260 C 0.5725 0.62422 0.59926 0.0
C261 C 0.57178 0.64611 0.58029 0.0
C262 C 0.55794 0.62727 0.62452 0.0
C263 C 0.54165 0.6519 0.63095 0.0
C264 C 0.54206 0.67435 0.61259 0.0
C265 C 0.55715 0.67156 0.58754 0.0
C266 C 0.52328 0.65379 0.65619 0.0
C267 C 0.52577 0.67794 0.67428 0.0
C268 C 0.50354 0.63186 0.66262 0.0
C269 C 0.49803 0.60669 0.64356 0.0
C270 C 0.49095 0.6102 0.61556 0.0
C271 C 0.48623 0.5864 0.59772 0.0
C272 C 0.48774 0.55896 0.60776 0.0
C273 C 0.49421 0.55525 0.63564 0.0
C274 C 0.49939 0.57896 0.65348 0.0
C275 C 0.43067 0.68126 0.75494 0.0
C276 C 0.43331 0.66095 0.77529 0.0
C277 C 0.44983 0.68106 0.73256 0.0
C278 C 0.47161 0.66031 0.73017 0.0
C279 C 0.47454 0.64036 0.75081 0.0
C280 C 0.45569 0.64089 0.77336 0.0
C281 C 0.49033 0.6584 0.70538 0.0
C282 C 0.48769 0.63435 0.68735 0.0
C283 C 0.50952 0.68053 0.6988 0.0
C284 C 0.51333 0.70626 0.71737 0.0
C285 C 0.52115 0.70371 0.74531 0.0
C286 C 0.52444 0.72806 0.76274 0.0
C287 C 0.52016 0.7551 0.75242 0.0
C288 C 0.51266 0.75786 0.72462 0.0
C289 C 0.50932 0.73357 0.70711 0.0
H290 H 0.52272 0.77393 0.76595 0.0
H291 H 0.48378 0.54058 0.59397 0.0
H292 H 0.78528 0.0494 0.02081 0.0
H293 H 0.7662 0.00792 0.04392 0.0
H294 H 0.845 0.0026 0.09111 0.0
H295 H 0.8643 0.04366 0.06811 0.0
H296 H 0.83179 0.95274 0.06437 0.0
H297 H 0.78207 0.02381 0.1216 0.0
H298 H 0.74983 0.06497 0.13046 0.0
H299 H 0.67937 0.01839 0.09239 0.0
H300 H 0.71131 0.97706 0.08295 0.0
H301 H 0.7976 0.8609 0.1728 0.0
H302 H 0.80826 0.90322 0.14652 0.0
H303 H 0.7353 0.88429 0.09326 0.0
H304 H 0.72571 0.84079 0.11868 0.0
H305 H 0.74138 0.94448 0.11848 0.0
H306 H 0.78937 0.87334 0.06278 0.0
H307 H 0.8215 0.83349 0.04872 0.0
H308 H 0.8947 0.88045 0.08063 0.0
H309 H 0.86295 0.92042 0.09552 0.0
C310 C 0.79834 0.03971 0.03647 0.0
C311 C 0.82645 0.04967 0.04238 0.0
C312 C 0.78737 0.01603 0.04967 0.0
C313 C 0.80426 0.00215 0.06913 0.0
C314 C 0.83172 0.0129 0.076 0.0
C315 C 0.8427 0.03641 0.06281 0.0
C316 C 0.79457 0.97509 0.08082 0.0
C317 C 0.81221 0.95103 0.07654 0.0
C318 C 0.76838 0.97265 0.09558 0.0
C319 C 0.74916 0.99746 0.10128 0.0
C320 C 0.75977 0.02244 0.11488 0.0
C321 C 0.74153 0.04578 0.12006 0.0
C322 C 0.71259 0.04433 0.11192 0.0
C323 C 0.7018 0.0195 0.09864 0.0
C324 C 0.71996 0.9961 0.09339 0.0
C325 C 0.78409 0.8657 0.15531 0.0
C326 C 0.76091 0.84778 0.14761 0.0
C327 C 0.79009 0.8898 0.14041 0.0
C328 C 0.77261 0.89668 0.11795 0.0
C329 C 0.74898 0.87922 0.11058 0.0
C330 C 0.74339 0.85465 0.12514 0.0
C331 C 0.77911 0.92249 0.10268 0.0
C332 C 0.76089 0.94624 0.10624 0.0
C333 C 0.80478 0.9247 0.08714 0.0
C334 C 0.82366 0.89976 0.08061 0.0
C335 C 0.81222 0.87496 0.06738 0.0
C336 C 0.83041 0.85243 0.05909 0.0
C337 C 0.8601 0.85441 0.06392 0.0
C338 C 0.87166 0.87888 0.07716 0.0
C339 C 0.85358 0.90148 0.08552 0.0
H340 H 0.87416 0.83702 0.05732 0.0
H341 H 0.6985 0.06242 0.11595 0.0
H342 H 0.48009 0.30371 0.55085 0.0
H343 H 0.52734 0.29673 0.57223 0.0
H344 H 0.52747 0.38468 0.60244 0.0
H345 H 0.48098 0.39202 0.58016 0.0
H346 H 0.57634 0.37412 0.58248 0.0
H347 H 0.51708 0.3277 0.64653 0.0
H348 H 0.48006 0.29473 0.66272 0.0
H349 H 0.52904 0.22328 0.63 0.0
H350 H 0.56647 0.25604 0.6135 0.0
H351 H 0.67473 0.31566 0.70014 0.0
H352 H 0.6276 0.32213 0.67841 0.0
H353 H 0.66969 0.33641 0.60035 0.0
H354 H 0.71699 0.33084 0.62279 0.0
H355 H 0.59989 0.29448 0.64276 0.0
H356 H 0.63058 0.3755 0.55969 0.0
H357 H 0.655 0.42169 0.55402 0.0
H358 H 0.65254 0.43872 0.642 0.0
H359 H 0.62871 0.39236 0.6483 0.0
C360 C 0.49014 0.32146 0.56225 0.0
C361 C 0.47693 0.34845 0.56374 0.0
C362 C 0.5171 0.31743 0.57454 0.0
C363 C 0.53098 0.34014 0.58906 0.0
C364 C 0.51737 0.36688 0.59113 0.0
C365 C 0.49074 0.37105 0.57846 0.0
C366 C 0.56013 0.33655 0.6013 0.0
C367 C 0.58153 0.35661 0.59559 0.0
C368 C 0.56677 0.31416 0.61893 0.0
C369 C 0.54435 0.29431 0.62848 0.0
C370 C 0.51983 0.30497 0.64257 0.0
C371 C 0.49879 0.2863 0.65186 0.0
C372 C 0.50205 0.25688 0.64727 0.0
C373 C 0.52649 0.24608 0.63347 0.0
C374 C 0.54766 0.26469 0.62419 0.0
C375 C 0.6737 0.31998 0.67831 0.0
C376 C 0.69912 0.3224 0.6629 0.0
C377 C 0.64688 0.32377 0.66588 0.0
C378 C 0.64494 0.32982 0.63767 0.0
C379 C 0.67053 0.33222 0.62222 0.0
C380 C 0.69745 0.32876 0.63484 0.0
C381 C 0.61609 0.33254 0.62449 0.0
C382 C 0.59486 0.31193 0.62955 0.0
C383 C 0.60905 0.35544 0.60758 0.0
C384 C 0.62816 0.38039 0.60446 0.0
C385 C 0.63588 0.38883 0.57787 0.0
C386 C 0.64948 0.41505 0.57455 0.0
C387 C 0.65516 0.43308 0.59766 0.0
C388 C 0.64827 0.42455 0.6242 0.0
C389 C 0.63496 0.3982 0.62768 0.0
H390 H 0.66456 0.4538 0.59497 0.0
H391 H 0.48571 0.24246 0.65448 0.0
H392 H 0.5747 0.55598 0.41968 0.0
H393 H 0.56932 0.52424 0.37858 0.0
H394 H 0.66104 0.50771 0.37906 0.0
H395 H 0.66667 0.54072 0.41928 0.0
H396 H 0.64571 0.51368 0.3293 0.0
H397 H 0.60646 0.45933 0.40277 0.0
H398 H 0.57445 0.44977 0.44213 0.0
H399 H 0.50011 0.45827 0.38995 0.0
H400 H 0.53165 0.46829 0.35037 0.0
H401 H 0.64378 0.38078 0.25056 0.0
H402 H 0.64712 0.41774 0.28804 0.0
H403 H 0.56298 0.44899 0.26596 0.0
H404 H 0.56039 0.41281 0.22758 0.0
H405 H 0.57233 0.4365 0.32478 0.0
H406 H 0.61367 0.4884 0.25073 0.0
H407 H 0.64706 0.49538 0.21185 0.0
H408 H 0.71955 0.48781 0.26654 0.0
H409 H 0.68658 0.48031 0.30569 0.0
C410 C 0.59369 0.54548 0.41104 0.0
C411 C 0.62109 0.55066 0.42274 0.0
C412 C 0.59058 0.52721 0.38762 0.0
C413 C 0.61468 0.51304 0.37597 0.0
C414 C 0.64209 0.51833 0.38764 0.0
C415 C 0.6453 0.53714 0.41066 0.0
C416 C 0.61151 0.49313 0.35134 0.0
C417 C 0.62987 0.49661 0.32856 0.0
C418 C 0.5904 0.47117 0.34993 0.0
C419 C 0.57143 0.46498 0.37371 0.0
C420 C 0.58329 0.45941 0.39975 0.0
C421 C 0.56522 0.4539 0.4221 0.0
C422 C 0.53527 0.45369 0.41859 0.0
C423 C 0.52331 0.45865 0.39267 0.0
C424 C 0.54127 0.46423 0.37028 0.0
C425 C 0.62635 0.39598 0.25349 0.0
C426 C 0.6018 0.39414 0.23649 0.0
C427 C 0.62816 0.41687 0.27486 0.0
C428 C 0.60526 0.43596 0.27969 0.0
C429 C 0.58078 0.43431 0.26255 0.0
C430 C 0.57924 0.4137 0.24082 0.0
C431 C 0.60667 0.45705 0.30324 0.0
C432 C 0.58802 0.45372 0.32571 0.0
C433 C 0.62776 0.47881 0.30456 0.0
C434 C 0.64764 0.48352 0.28109 0.0
C435 C 0.63673 0.48796 0.25443 0.0
C436 C 0.65558 0.49206 0.23235 0.0
C437 C 0.68541 0.49197 0.23671 0.0
C438 C 0.69644 0.48784 0.26318 0.0
C439 C 0.67768 0.48369 0.28533 0.0
H440 H 0.69997 0.49515 0.21959 0.0
H441 H 0.5213 0.44953 0.43593 0.0
H442 H 0.97405 0.19041 0.97919 0.0
H443 H 0.0192 0.19801 0.95439 0.0
H444 H 0.01254 0.11349 0.91593 0.0
H445 H 0.96811 0.10537 0.94155 0.0
H446 H 0.06396 0.12084 0.9316 0.0
H447 H 0.99848 0.17625 0.88052 0.0
H448 H 0.96093 0.21238 0.87319 0.0
H449 H 0.01778 0.27825 0.90517 0.0
H450 H 0.05554 0.24244 0.91311 0.0
H451 H 0.16298 0.18277 0.81918 0.0
H452 H 0.11477 0.17552 0.83882 0.0
H453 H 0.15243 0.17056 0.92023 0.0
H454 H 0.2005 0.17883 0.90065 0.0
H455 H 0.08418 0.20709 0.87886 0.0
H456 H 0.12082 0.11925 0.95156 0.0
H457 H 0.15035 0.07554 0.95131 0.0
H458 H 0.14214 0.06622 0.86281 0.0
H459 H 0.11327 0.11037 0.86248 0.0
C460 C 0.9822 0.17349 0.96538 0.0
C461 C 0.9676 0.14726 0.96238 0.0
C462 C 0.00792 0.17793 0.95108 0.0
C463 C 0.01914 0.15647 0.93299 0.0
C464 C 0.0044 0.13035 0.92982 0.0
C465 C 0.97899 0.12572 0.94448 0.0
C466 C 0.04682 0.16068 0.9182 0.0
C467 C 0.06827 0.13978 0.92014 0.0
C468 C 0.05233 0.18497 0.90253 0.0
C469 C 0.02975 0.20661 0.89765 0.0
C470 C 0.00291 0.19842 0.88618 0.0
C471 C 0.98159 0.21884 0.88189 0.0
C472 C 0.98694 0.24759 0.88877 0.0
C473 C 0.01365 0.25597 0.89989 0.0
C474 C 0.03503 0.23562 0.90427 0.0
C475 C 0.16077 0.18077 0.84132 0.0
C476 C 0.18522 0.18189 0.85858 0.0
C477 C 0.13336 0.1764 0.85247 0.0
C478 C 0.13009 0.17246 0.88093 0.0
C479 C 0.15454 0.17339 0.89816 0.0
C480 C 0.18188 0.17815 0.88707 0.0
C481 C 0.10116 0.16746 0.8928 0.0
C482 C 0.07966 0.18828 0.89043 0.0
C483 C 0.09504 0.14259 0.90714 0.0
C484 C 0.11512 0.11811 0.90701 0.0
C485 C 0.12571 0.10806 0.93204 0.0
C486 C 0.14232 0.08322 0.93198 0.0
C487 C 0.14801 0.06803 0.90707 0.0
C488 C 0.13778 0.07807 0.88207 0.0
C489 C 0.12157 0.10315 0.88196 0.0
H490 H 0.16012 0.04838 0.90712 0.0
H491 H 0.97042 0.26337 0.88544 0.0
H492 H 0.38023 0.4647 0.46633 0.0
H493 H 0.35948 0.50255 0.4397 0.0
H494 H 0.27375 0.47483 0.46088 0.0
H495 H 0.29429 0.43702 0.48807 0.0
H496 H 0.32478 0.50319 0.39584 0.0
H497 H 0.23122 0.53507 0.46959 0.0
H498 H 0.21844 0.53284 0.51907 0.0
H499 H 0.30832 0.53336 0.54094 0.0
H500 H 0.32162 0.5361 0.49168 0.0
H501 H 0.24671 0.60879 0.32891 0.0
H502 H 0.25548 0.56593 0.35485 0.0
H503 H 0.28966 0.61819 0.42297 0.0
H504 H 0.27893 0.66116 0.3977 0.0
H505 H 0.26152 0.57566 0.44263 0.0
H506 H 0.33408 0.58549 0.37128 0.0
H507 H 0.35169 0.58966 0.32329 0.0
H508 H 0.31148 0.50991 0.29945 0.0
H509 H 0.29354 0.5053 0.34718 0.0
C510 C 0.35694 0.46646 0.46527 0.0
C511 C 0.33895 0.44793 0.47959 0.0
C512 C 0.34513 0.48808 0.44993 0.0
C513 C 0.31511 0.49166 0.44858 0.0
C514 C 0.297 0.47265 0.462 0.0
C515 C 0.3088 0.45101 0.47746 0.0
C516 C 0.30306 0.51593 0.43379 0.0
C517 C 0.31077 0.51893 0.406 0.0
C518 C 0.28508 0.53662 0.44718 0.0
C519 C 0.27738 0.53542 0.47692 0.0
C520 C 0.24824 0.53481 0.48498 0.0
C521 C 0.24091 0.53347 0.51299 0.0
C522 C 0.26256 0.53287 0.53313 0.0
C523 C 0.29158 0.53375 0.52532 0.0
C524 C 0.29902 0.53517 0.49736 0.0
C525 C 0.25518 0.61105 0.34979 0.0
C526 C 0.26222 0.63808 0.36141 0.0
C527 C 0.26059 0.58661 0.36442 0.0
C528 C 0.27383 0.58884 0.3906 0.0
C529 C 0.27952 0.61598 0.40277 0.0
C530 C 0.27357 0.64044 0.38835 0.0
C531 C 0.28339 0.56304 0.40468 0.0
C532 C 0.27518 0.55971 0.43233 0.0
C533 C 0.30151 0.54238 0.39136 0.0
C534 C 0.31224 0.54521 0.36269 0.0
C535 C 0.32886 0.56896 0.35573 0.0
C536 C 0.33892 0.57138 0.32863 0.0
C537 C 0.33259 0.55015 0.30836 0.0
C538 C 0.31631 0.52637 0.31516 0.0
C539 C 0.30623 0.52381 0.34223 0.0
H540 H 0.34039 0.55209 0.28739 0.0
H541 H 0.25685 0.53178 0.5548 0.0
H542 H 0.0501 0.89427 0.93609 0.0
H543 H 0.02836 0.88688 0.89047 0.0
H544 H 0.06479 0.80228 0.8835 0.0
H545 H 0.08612 0.80921 0.92971 0.0
H546 H 0.04675 0.87687 0.83977 0.0
H547 H 0.01695 0.75875 0.84907 0.0
H548 H 0.00749 0.72422 0.88519 0.0
H549 H 0.97927 0.79225 0.94102 0.0
H550 H 0.98826 0.82709 0.90512 0.0
H551 H 0.96682 0.84306 0.71647 0.0
H552 H 0.00375 0.83845 0.75268 0.0
H553 H 0.9363 0.82957 0.81346 0.0
H554 H 0.89988 0.83305 0.77714 0.0
H555 H 0.97727 0.79702 0.8259 0.0
H556 H 0.97155 0.89409 0.79621 0.0
H557 H 0.97629 0.93337 0.76424 0.0
H558 H 0.06651 0.91508 0.75407 0.0
H559 H 0.06238 0.87551 0.78587 0.0
C560 C 0.05371 0.87411 0.92487 0.0
C561 C 0.06963 0.85221 0.93675 0.0
C562 C 0.04137 0.86999 0.89865 0.0
C563 C 0.04476 0.84397 0.88362 0.0
C564 C 0.06158 0.82241 0.89489 0.0
C565 C 0.07374 0.82641 0.92131 0.0
C566 C 0.02902 0.8391 0.85706 0.0
C567 C 0.03183 0.8592 0.8365 0.0
C568 C 0.00931 0.81625 0.85296 0.0
C569 C 0.00367 0.79549 0.87458 0.0
C570 C 0.0087 0.76629 0.86906 0.0
C571 C 0.00342 0.74668 0.88948 0.0
C572 C 0.99291 0.75605 0.91543 0.0
C573 C 0.98754 0.78504 0.92097 0.0
C574 C 0.99275 0.80472 0.90061 0.0
C575 C 0.96019 0.83969 0.73758 0.0
C576 C 0.93079 0.83865 0.74437 0.0
C577 C 0.98114 0.83726 0.75823 0.0
C578 C 0.97282 0.83438 0.78597 0.0
C579 C 0.94333 0.83216 0.79235 0.0
C580 C 0.92252 0.83427 0.77173 0.0
C581 C 0.99429 0.8353 0.80885 0.0
C582 C 0.99272 0.81431 0.82868 0.0
C583 C 0.01438 0.85796 0.81268 0.0
C584 C 0.01662 0.88163 0.79331 0.0
C585 C 0.9924 0.89833 0.78714 0.0
C586 C 0.99496 0.92066 0.76903 0.0
C587 C 0.02163 0.92667 0.75711 0.0
C588 C 0.04584 0.91038 0.76329 0.0
C589 C 0.04341 0.888 0.78136 0.0
H590 H 0.02355 0.94398 0.7431 0.0
H591 H 0.98885 0.74084 0.93121 0.0
H592 H 0.86163 0.08451 0.89327 0.0
H593 H 0.86566 0.04979 0.85401 0.0
H594 H 0.88029 0.98283 0.91119 0.0
H595 H 0.87868 0.01786 0.94991 0.0
H596 H 0.91347 0.97338 0.87323 0.0
H597 H 0.81294 0.99711 0.87413 0.0
H598 H 0.77004 0.02808 0.8725 0.0
H599 H 0.79384 0.05297 0.79106 0.0
H600 H 0.83725 0.02264 0.79244 0.0
H601 H 0.84322 0.87278 0.75959 0.0
H602 H 0.83971 0.90932 0.79725 0.0
H603 H 0.92633 0.93711 0.77982 0.0
H604 H 0.92951 0.90099 0.74148 0.0
H605 H 0.84239 0.96644 0.79645 0.0
H606 H 0.95867 0.95563 0.84354 0.0
H607 H 0.99275 0.91869 0.85812 0.0
H608 H 0.92439 0.85682 0.85618 0.0
H609 H 0.89 0.8932 0.84142 0.0
C610 C 0.86582 0.06234 0.89725 0.0
C611 C 0.87002 0.05373 0.92446 0.0
C612 C 0.86788 0.04245 0.87487 0.0
C613 C 0.87294 0.01345 0.87948 0.0
C614 C 0.87666 0.00501 0.90687 0.0
C615 C 0.87565 0.02499 0.92905 0.0
C616 C 0.87508 0.99174 0.8561 0.0
C617 C 0.89793 0.97207 0.8564 0.0
C618 C 0.85453 0.98942 0.83432 0.0
C619 C 0.82855 0.00787 0.83354 0.0
C620 C 0.80918 0.0094 0.85598 0.0
C621 C 0.78476 0.02683 0.85509 0.0
C622 C 0.77926 0.04255 0.83173 0.0
C623 C 0.79813 0.04079 0.80915 0.0
C624 C 0.82269 0.02355 0.81001 0.0
C625 C 0.86124 0.88711 0.76347 0.0
C626 C 0.88637 0.88463 0.74729 0.0
C627 C 0.85935 0.90776 0.7851 0.0
C628 C 0.88279 0.92592 0.79131 0.0
C629 C 0.90811 0.92317 0.77545 0.0
C630 C 0.90987 0.90271 0.75357 0.0
C631 C 0.88051 0.94814 0.81401 0.0
C632 C 0.85793 0.96805 0.81327 0.0
C633 C 0.90041 0.94984 0.83622 0.0
C634 C 0.92184 0.9271 0.841 0.0
C635 C 0.95103 0.93403 0.84579 0.0
C636 C 0.97036 0.91322 0.85423 0.0
C637 C 0.9607 0.88546 0.85805 0.0
C638 C 0.93187 0.87827 0.85292 0.0
C639 C 0.9125 0.89893 0.84433 0.0
H640 H 0.97544 0.86956 0.86525 0.0
H641 H 0.76036 0.05605 0.83108 0.0
H642 H 0.45182 0.30896 0.45017 0.0
H643 H 0.47745 0.30384 0.40575 0.0
H644 H 0.44833 0.3873 0.38429 0.0
H645 H 0.42342 0.39299 0.42897 0.0
H646 H 0.44425 0.33389 0.34109 0.0
H647 H 0.50672 0.39132 0.4042 0.0
H648 H 0.53314 0.39867 0.44833 0.0
H649 H 0.58147 0.32199 0.43105 0.0
H650 H 0.55465 0.31363 0.38727 0.0
H651 H 0.53054 0.3711 0.22765 0.0
H652 H 0.50133 0.36873 0.26979 0.0
H653 H 0.5639 0.31165 0.30395 0.0
H654 H 0.59397 0.31599 0.26243 0.0
H655 H 0.55048 0.34791 0.34166 0.0
H656 H 0.49424 0.28963 0.27966 0.0
H657 H 0.46769 0.27579 0.2369 0.0
H658 H 0.40847 0.34505 0.25205 0.0
H659 H 0.43493 0.35957 0.29472 0.0
C660 C 0.45063 0.32607 0.43584 0.0
C661 C 0.43575 0.35142 0.443 0.0
C662 C 0.46529 0.32313 0.41058 0.0
C663 C 0.46472 0.34523 0.39195 0.0
C664 C 0.44891 0.37005 0.39851 0.0
C665 C 0.43484 0.37329 0.42401 0.0
C666 C 0.48177 0.34309 0.36616 0.0
C667 C 0.46745 0.33718 0.34101 0.0
C668 C 0.51208 0.34631 0.36648 0.0
C669 C 0.52837 0.35163 0.39266 0.0
C670 C 0.5227 0.37582 0.40997 0.0
C671 C 0.5378 0.38022 0.43488 0.0
C672 C 0.55896 0.36084 0.44247 0.0
C673 C 0.56505 0.33698 0.42517 0.0
C674 C 0.54986 0.33236 0.40035 0.0
C675 C 0.53786 0.35814 0.24429 0.0
C676 C 0.56432 0.34387 0.2422 0.0
C677 C 0.52109 0.35645 0.26818 0.0
C678 C 0.53015 0.33967 0.29001 0.0
C679 C 0.5564 0.32474 0.28747 0.0
C680 C 0.57343 0.32698 0.26379 0.0
C681 C 0.51305 0.33895 0.31603 0.0
C682 C 0.52733 0.34437 0.34141 0.0
C683 C 0.48276 0.33448 0.31594 0.0
C684 C 0.46674 0.32584 0.29028 0.0
C685 C 0.47569 0.30205 0.27377 0.0
C686 C 0.46063 0.29406 0.24956 0.0
C687 C 0.43645 0.30957 0.24173 0.0
C688 C 0.42723 0.33307 0.25813 0.0
C689 C 0.44223 0.34117 0.28235 0.0
H690 H 0.42481 0.30334 0.22298 0.0
H691 H 0.57066 0.36433 0.46173 0.0
H692 H 0.2079 0.94514 -0.00096 0.0
H693 H 0.23059 0.9825 0.97274 0.0
H694 H 0.15359 0.989 0.92317 0.0
H695 H 0.13049 0.95184 0.9495 0.0
H696 H 0.20844 0.99054 0.893 0.0
H697 H 0.16028 0.03059 0.97546 0.0
H698 H 0.1522 0.03636 0.0258 0.0
H699 H 0.24011 0.06343 0.03757 0.0
H700 H 0.24886 0.05738 0.98725 0.0
H701 H 0.19944 0.12436 0.83629 0.0
H702 H 0.19432 0.07928 0.85924 0.0
H703 H 0.26268 0.10433 0.91617 0.0
H704 H 0.26687 0.15011 0.89349 0.0
H705 H 0.22202 0.08365 0.944 0.0
H706 H 0.27042 0.04916 0.8628 0.0
H707 H 0.2807 0.04339 0.81277 0.0
H708 H 0.19736 0.00516 0.79899 0.0
H709 H 0.18639 0.01108 0.84888 0.0
C710 C 0.19588 0.95421 0.9823 0.0
C711 C 0.16726 0.94571 0.97651 0.0
C712 C 0.20893 0.97552 0.96733 0.0
C713 C 0.19368 0.98845 0.94618 0.0
C714 C 0.16567 0.97912 0.93942 0.0
C715 C 0.15246 0.95806 0.95461 0.0
C716 C 0.20583 0.01329 0.93252 0.0
C717 C 0.21148 0.01095 0.90402 0.0
C718 C 0.21075 0.0395 0.94732 0.0
C719 C 0.20534 0.04318 0.97758 0.0
C720 C 0.17799 0.03749 0.98877 0.0
C721 C 0.17326 0.04088 0.01731 0.0
C722 C 0.19565 0.05017 0.03489 0.0
C723 C 0.2228 0.05617 0.02393 0.0
C724 C 0.22765 0.05278 0.9954 0.0
C725 C 0.21328 0.12006 0.85371 0.0
C726 C 0.23351 0.14035 0.86328 0.0
C727 C 0.21059 0.09426 0.86669 0.0
C728 C 0.22835 0.08812 0.88929 0.0
C729 C 0.24881 0.10847 0.89871 0.0
C730 C 0.25134 0.13444 0.88577 0.0
C731 C 0.22407 0.06131 0.90404 0.0
C732 C 0.21988 0.06318 0.93288 0.0
C733 C 0.22098 0.03454 0.88961 0.0
C734 C 0.22758 0.03062 0.8596 0.0
C735 C 0.25423 0.03963 0.84909 0.0
C736 C 0.26018 0.03633 0.82075 0.0
C737 C 0.23969 0.02392 0.80271 0.0
C738 C 0.21322 0.01473 0.81299 0.0
C739 C 0.20715 0.018 0.84131 0.0
H740 H 0.24433 0.0214 0.78078 0.0
H741 H 0.19195 0.05279 0.05698 0.0
H742 H 0.51962 0.60095 0.44815 0.0
H743 H 0.47422 0.6089 0.4236 0.0
H744 H 0.48036 0.69908 0.4439 0.0
H745 H 0.52588 0.69146 0.46822 0.0
H746 H 0.42496 0.67383 0.45426 0.0
H747 H 0.4965 0.67895 0.38196 0.0
H748 H 0.53785 0.66097 0.35425 0.0
H749 H 0.4888 0.58708 0.32762 0.0
H750 H 0.44728 0.60438 0.35557 0.0
H751 H 0.31222 0.72058 0.36898 0.0
H752 H 0.36005 0.71538 0.39016 0.0
H753 H 0.3646 0.62873 0.3568 0.0
H754 H 0.31734 0.63453 0.33459 0.0
H755 H 0.41527 0.65257 0.35309 0.0
H756 H 0.34461 0.64492 0.42483 0.0
H757 H 0.30305 0.66003 0.45383 0.0
H758 H 0.34941 0.73476 0.48275 0.0
H759 H 0.39115 0.72034 0.45369 0.0
C760 C 0.51128 0.62247 0.44745 0.0
C761 C 0.52636 0.64558 0.4601 0.0
C762 C 0.48543 0.62697 0.43334 0.0
C763 C 0.4741 0.65458 0.4319 0.0
C764 C 0.48884 0.67763 0.44481 0.0
C765 C 0.51487 0.67322 0.45858 0.0
C766 C 0.44681 0.65944 0.41692 0.0
C767 C 0.42287 0.66958 0.43208 0.0
C768 C 0.44405 0.65308 0.38816 0.0
C769 C 0.46888 0.64283 0.37108 0.0
C770 C 0.4946 0.65876 0.37038 0.0
C771 C 0.51806 0.64871 0.3546 0.0
C772 C 0.51597 0.62288 0.33923 0.0
C773 C 0.49039 0.60707 0.33956 0.0
C774 C 0.46689 0.617 0.35536 0.0
C775 C 0.32377 0.70065 0.36593 0.0
C776 C 0.31125 0.67782 0.35057 0.0
C777 C 0.35087 0.69756 0.37817 0.0
C778 C 0.36561 0.67141 0.37554 0.0
C779 C 0.35351 0.64897 0.35923 0.0
C780 C 0.32657 0.65219 0.34674 0.0
C781 C 0.39322 0.6671 0.39039 0.0
C782 C 0.41726 0.65696 0.37526 0.0
C783 C 0.39596 0.67305 0.41929 0.0
C784 C 0.37091 0.68168 0.43688 0.0
C785 C 0.34588 0.66468 0.43723 0.0
C786 C 0.3223 0.6731 0.45368 0.0
C787 C 0.32357 0.69836 0.47003 0.0
C788 C 0.34845 0.71522 0.47003 0.0
C789 C 0.37208 0.70693 0.4536 0.0
H790 H 0.30529 0.70483 0.48275 0.0
H791 H 0.53416 0.61513 0.32703 0.0
H792 H 0.33998 0.43423 0.61732 0.0
H793 H 0.34179 0.46954 0.65589 0.0
H794 H 0.4247 0.49868 0.62778 0.0
H795 H 0.42304 0.46358 0.58895 0.0
H796 H 0.37756 0.47804 0.69857 0.0
H797 H 0.42639 0.57405 0.64019 0.0
H798 H 0.42581 0.59334 0.59342 0.0
H799 H 0.34825 0.5467 0.57382 0.0
H800 H 0.34746 0.52816 0.62075 0.0
H801 H 0.42224 0.58755 0.79585 0.0
H802 H 0.41978 0.55044 0.75841 0.0
H803 H 0.35429 0.59899 0.71757 0.0
H804 H 0.35805 0.63653 0.75444 0.0
H805 H 0.39071 0.58066 0.68114 0.0
H806 H 0.33859 0.53787 0.75374 0.0
H807 H 0.33022 0.52101 0.80074 0.0
H808 H 0.40135 0.46283 0.79098 0.0
H809 H 0.41042 0.47965 0.74403 0.0
C810 C 0.35867 0.44807 0.61932 0.0
C811 C 0.38129 0.44612 0.59988 0.0
C812 C 0.35971 0.46817 0.64147 0.0
C813 C 0.38325 0.48689 0.64457 0.0
C814 C 0.40615 0.48466 0.62558 0.0
C815 C 0.40519 0.46449 0.60345 0.0
C816 C 0.38356 0.50903 0.66742 0.0
C817 C 0.38054 0.50047 0.69478 0.0
C818 C 0.38672 0.53838 0.66239 0.0
C819 C 0.38723 0.5492 0.6339 0.0
C820 C 0.4092 0.56788 0.62591 0.0
C821 C 0.40908 0.57874 0.59938 0.0
C822 C 0.38726 0.57093 0.58056 0.0
C823 C 0.36528 0.55252 0.58833 0.0
C824 C 0.36507 0.54187 0.61492 0.0
C825 C 0.40742 0.59004 0.77877 0.0
C826 C 0.39039 0.61459 0.77763 0.0
C827 C 0.40583 0.56889 0.75755 0.0
C828 C 0.38666 0.57178 0.73523 0.0
C829 C 0.3693 0.59629 0.73448 0.0
C830 C 0.37123 0.61755 0.7555 0.0
C831 C 0.38506 0.54966 0.71234 0.0
C832 C 0.38794 0.5582 0.68496 0.0
C833 C 0.38078 0.52043 0.71727 0.0
C834 C 0.37536 0.51022 0.74547 0.0
C835 C 0.35259 0.52164 0.76169 0.0
C836 C 0.3477 0.51207 0.78831 0.0
C837 C 0.36529 0.49091 0.79887 0.0
C838 C 0.38777 0.47924 0.78279 0.0
C839 C 0.39279 0.48877 0.75617 0.0
H840 H 0.36145 0.48352 0.81948 0.0
H841 H 0.38727 0.57933 0.56002 0.0
H842 H 0.00463 0.89182 0.05239 0.0
H843 H 0.9588 0.88098 0.07497 0.0
H844 H 0.98932 0.7962 0.09006 0.0
H845 H 0.03468 0.80654 0.06711 0.0
H846 H 0.93717 0.79296 0.07097 0.0
H847 H 0.985 0.84975 0.14186 0.0
H848 H 0.00934 0.8915 0.16405 0.0
H849 H 0.93482 0.94315 0.14946 0.0
H850 H 0.9101 0.90177 0.12703 0.0
H851 H 0.82584 0.80654 0.19465 0.0
H852 H 0.87431 0.81229 0.17511 0.0
H853 H 0.83822 0.80549 0.09262 0.0
H854 H 0.78996 0.79976 0.11233 0.0
H855 H 0.8944 0.85316 0.14718 0.0
H856 H 0.88704 0.78297 0.04572 0.0
H857 H 0.86383 0.73831 0.0285 0.0
H858 H 0.86155 0.70825 0.11124 0.0
H859 H 0.88506 0.75258 0.12891 0.0
C860 C 0.00163 0.87091 0.06063 0.0
C861 C 0.02336 0.85004 0.05781 0.0
C862 C 0.97545 0.86478 0.07364 0.0
C863 C 0.97065 0.83781 0.08439 0.0
C864 C 0.99243 0.81711 0.08184 0.0
C865 C 0.01843 0.82311 0.06871 0.0
C866 C 0.94271 0.83064 0.09757 0.0
C867 C 0.92786 0.80613 0.08768 0.0
C868 C 0.93067 0.84754 0.11964 0.0
C869 C 0.94586 0.87271 0.13236 0.0
C870 C 0.97394 0.87009 0.14305 0.0
C871 C 0.98777 0.89369 0.15578 0.0
C872 C 0.97366 0.92 0.15809 0.0
C873 C 0.94574 0.92278 0.14761 0.0
C874 C 0.93181 0.89925 0.13488 0.0
C875 C 0.82858 0.80568 0.17236 0.0
C876 C 0.80453 0.80234 0.15484 0.0
C877 C 0.8561 0.80926 0.1612 0.0
C878 C 0.86 0.80947 0.13234 0.0
C879 C 0.8359 0.80543 0.11489 0.0
C880 C 0.80839 0.80202 0.12607 0.0
C881 C 0.88892 0.81549 0.12061 0.0
C882 C 0.90383 0.8399 0.13061 0.0
C883 C 0.90136 0.79813 0.09911 0.0
C884 C 0.88759 0.77121 0.08865 0.0
C885 C 0.8817 0.76678 0.06022 0.0
C886 C 0.86846 0.74154 0.05038 0.0
C887 C 0.86115 0.72049 0.06877 0.0
C888 C 0.86714 0.72461 0.09703 0.0
C889 C 0.88039 0.74981 0.10697 0.0
H890 H 0.85088 0.70097 0.06112 0.0
H891 H 0.98425 0.93822 0.16814 0.0
H892 H 0.63092 0.54183 0.56625 0.0
H893 H 0.65434 0.50832 0.59637 0.0
H894 H 0.73611 0.52356 0.55693 0.0
H895 H 0.71293 0.55721 0.52666 0.0
H896 H 0.72252 0.46603 0.56026 0.0
H897 H 0.72646 0.54908 0.62152 0.0
H898 H 0.70636 0.59163 0.64625 0.0
H899 H 0.64635 0.53897 0.68863 0.0
H900 H 0.66581 0.49613 0.66385 0.0
H901 H 0.784 0.36672 0.64835 0.0
H902 H 0.7771 0.41225 0.62591 0.0
H903 H 0.69448 0.42229 0.66659 0.0
H904 H 0.70212 0.37756 0.68965 0.0
H905 H 0.71675 0.47162 0.66295 0.0
H906 H 0.70378 0.39146 0.59941 0.0
H907 H 0.71634 0.34767 0.57213 0.0
H908 H 0.78513 0.39188 0.53261 0.0
H909 H 0.77295 0.43606 0.55961 0.0
C910 C 0.65391 0.53821 0.56403 0.0
C911 C 0.67001 0.55218 0.54397 0.0
C912 C 0.66731 0.51918 0.5814 0.0
C913 C 0.69702 0.51371 0.57904 0.0
C914 C 0.7132 0.52765 0.55916 0.0
C915 C 0.69987 0.54688 0.54192 0.0
C916 C 0.71065 0.49206 0.59622 0.0
C917 C 0.72208 0.46753 0.58275 0.0
C918 C 0.709 0.49372 0.62548 0.0
C919 C 0.69755 0.5194 0.64074 0.0
C920 C 0.70888 0.54658 0.63601 0.0
C921 C 0.69761 0.57076 0.65005 0.0
C922 C 0.67508 0.568 0.66899 0.0
C923 C 0.66382 0.54106 0.67397 0.0
C924 C 0.675 0.51682 0.65997 0.0
C925 C 0.76469 0.37909 0.65271 0.0
C926 C 0.74327 0.36866 0.67009 0.0
C927 C 0.76062 0.40489 0.63981 0.0
C928 C 0.73481 0.42027 0.64381 0.0
C929 C 0.71431 0.41063 0.66271 0.0
C930 C 0.71854 0.38505 0.67577 0.0
C931 C 0.72806 0.44519 0.62699 0.0
C932 C 0.71797 0.47034 0.6405 0.0
C933 C 0.73002 0.44375 0.59766 0.0
C934 C 0.73762 0.41705 0.58173 0.0
C935 C 0.72166 0.39187 0.585 0.0
C936 C 0.72869 0.36697 0.56957 0.0
C937 C 0.75159 0.36696 0.55076 0.0
C938 C 0.76744 0.3919 0.54724 0.0
C939 C 0.76045 0.4169 0.56256 0.0
H940 H 0.75701 0.34765 0.53885 0.0
H941 H 0.66636 0.58675 0.67981 0.0
H942 H 0.92499 0.19096 0.08454 0.0
H943 H 0.94975 0.19647 0.12921 0.0
H944 H 0.9513 0.10513 0.13563 0.0
H945 H 0.9267 0.0993 0.09088 0.0
H946 H 0.93774 0.13654 0.18668 0.0
H947 H 0.00858 0.13342 0.11315 0.0
H948 H 0.03004 0.14855 0.06941 0.0
H949 H 0.04028 0.23367 0.1043 0.0
H950 H 0.01846 0.21912 0.14814 0.0
H951 H 0.05517 0.11874 0.28027 0.0
H952 H 0.01818 0.11745 0.24391 0.0
H953 H 0.03404 0.20644 0.23012 0.0
H954 H 0.07217 0.20703 0.26524 0.0
H955 H 0.03622 0.17803 0.18362 0.0
H956 H 0.96902 0.18089 0.25879 0.0
H957 H 0.94718 0.1662 0.30251 0.0
H958 H 0.92941 0.08313 0.26567 0.0
H959 H 0.95151 0.09718 0.22182 0.0
C960 C 0.93025 0.17203 0.09558 0.0
C961 C 0.92412 0.14467 0.08399 0.0
C962 C 0.9444 0.17524 0.12108 0.0
C963 C 0.95246 0.15119 0.13556 0.0
C964 C 0.9452 0.12393 0.12474 0.0
C965 C 0.93133 0.12066 0.09909 0.0
C966 C 0.97039 0.1544 0.16088 0.0
C967 C 0.95936 0.14543 0.18612 0.0
C968 C 0.99831 0.16653 0.16007 0.0
C969 C 0.01158 0.17526 0.13379 0.0
C970 C 0.01517 0.15542 0.11141 0.0
C971 C 0.02744 0.16388 0.08661 0.0
C972 C 0.03643 0.19207 0.08404 0.0
C973 C 0.03325 0.21185 0.1063 0.0
C974 C 0.02094 0.20351 0.13113 0.0
C975 C 0.05024 0.13806 0.26974 0.0
C976 C 0.06634 0.16298 0.27545 0.0
C977 C 0.02902 0.13742 0.24912 0.0
C978 C 0.02313 0.16193 0.23434 0.0
C979 C 0.03816 0.18727 0.24123 0.0
C980 C 0.05966 0.18775 0.26151 0.0
C981 C 0.00361 0.16043 0.20987 0.0
C982 C 0.01446 0.16952 0.18455 0.0
C983 C 0.9755 0.14855 0.21074 0.0
C984 C 0.96215 0.14003 0.23708 0.0
C985 C 0.96066 0.15941 0.26007 0.0
C986 C 0.94819 0.15121 0.28487 0.0
C987 C 0.93697 0.12373 0.28689 0.0
C988 C 0.93813 0.1044 0.26408 0.0
C989 C 0.95059 0.11249 0.23924 0.0
H990 H 0.92733 0.11742 0.3061 0.0
H991 H 0.04594 0.19858 0.06483 0.0
H992 H 0.15698 0.85227 0.12535 0.0
H993 H 0.16804 0.82946 0.16848 0.0
H994 H 0.14776 0.74721 0.1299 0.0
H995 H 0.13566 0.77017 0.08664 0.0
H996 H 0.12994 0.75056 0.18326 0.0
H997 H 0.21734 0.76994 0.1343 0.0
H998 H 0.25212 0.79953 0.10963 0.0
H999 H 0.26228 0.85438 0.18248 0.0
H1000 H 0.22723 0.82532 0.20748 0.0
H1001 H 0.21886 0.66806 0.27122 0.0
H1002 H 0.19423 0.69105 0.23317 0.0
H1003 H 0.20962 0.77345 0.27367 0.0
H1004 H 0.23392 0.75024 0.31195 0.0
H1005 H 0.22849 0.7699 0.21998 0.0
H1006 H 0.14232 0.74743 0.26965 0.0
H1007 H 0.10856 0.7161 0.29353 0.0
H1008 H 0.09756 0.66465 0.21856 0.0
H1009 H 0.13162 0.69544 0.19432 0.0
C1010 C 0.15467 0.82933 0.12607 0.0
C1011 C 0.14596 0.81289 0.10252 0.0
C1012 C 0.16098 0.81635 0.15073 0.0
C1013 C 0.15939 0.7866 0.15216 0.0
C1014 C 0.14928 0.7702 0.12913 0.0
C1015 C 0.14247 0.7833 0.10446 0.0
C1016 C 0.17005 0.77271 0.17713 0.0
C1017 C 0.15158 0.7545 0.19116 0.0
C1018 C 0.19817 0.77822 0.18759 0.0
C1019 C 0.21946 0.7956 0.17268 0.0
C1020 C 0.22684 0.78842 0.145 0.0
C1021 C 0.24662 0.80508 0.13096 0.0
C1022 C 0.25935 0.82886 0.14446 0.0
C1023 C 0.25238 0.83597 0.17204 0.0
C1024 C 0.23257 0.8194 0.18617 0.0
C1025 C 0.21623 0.691 0.27223 0.0
C1026 C 0.22806 0.70752 0.29434 0.0
C1027 C 0.20226 0.7041 0.25057 0.0
C1028 C 0.19997 0.73392 0.25075 0.0
C1029 C 0.21114 0.7504 0.27323 0.0
C1030 C 0.22499 0.73725 0.29495 0.0
C1031 C 0.18832 0.74797 0.22632 0.0
C1032 C 0.20675 0.76609 0.21224 0.0
C1033 C 0.16035 0.74207 0.21574 0.0
C1034 C 0.13974 0.72361 0.23023 0.0
C1035 C 0.1329 0.7293 0.25831 0.0
C1036 C 0.11367 0.71166 0.2719 0.0
C1037 C 0.10097 0.68836 0.25759 0.0
C1038 C 0.10743 0.68269 0.22963 0.0
C1039 C 0.12668 0.70025 0.21595 0.0
H1040 H 0.08609 0.67473 0.26815 0.0
H1041 H 0.27465 0.84174 0.13355 0.0
H1042 H 0.73313 0.65609 0.52938 0.0
H1043 H 0.76873 0.6817 0.55842 0.0
H1044 H 0.7067 0.74841 0.57654 0.0
H1045 H 0.67084 0.72283 0.54806 0.0
H1046 H 0.79365 0.7327 0.55593 0.0
H1047 H 0.71508 0.77383 0.64229 0.0
H1048 H 0.66969 0.75898 0.66423 0.0
H1049 H 0.68844 0.67133 0.64218 0.0
H1050 H 0.7341 0.68561 0.62045 0.0
H1051 H 0.85952 0.84367 0.63909 0.0
H1052 H 0.82684 0.81458 0.60926 0.0
H1053 H 0.82149 0.75229 0.67239 0.0
H1054 H 0.85329 0.78197 0.70234 0.0
H1055 H 0.77005 0.76211 0.65323 0.0
H1056 H 0.86206 0.7404 0.61328 0.0
H1057 H 0.90954 0.75066 0.59288 0.0
H1058 H 0.86813 0.7909 0.52522 0.0
H1059 H 0.82037 0.78124 0.54543 0.0
C1060 C 0.72703 0.67622 0.53952 0.0
C1061 C 0.69901 0.68728 0.5365 0.0
C1062 C 0.74746 0.69086 0.55605 0.0
C1063 C 0.74027 0.71678 0.56989 0.0
C1064 C 0.71256 0.72818 0.56644 0.0
C1065 C 0.69209 0.71352 0.55007 0.0
C1066 C 0.76158 0.73185 0.58819 0.0
C1067 C 0.78852 0.73914 0.57721 0.0
C1068 C 0.75511 0.73969 0.61613 0.0
C1069 C 0.72788 0.73085 0.62951 0.0
C1070 C 0.70957 0.75138 0.64223 0.0
C1071 C 0.68379 0.74306 0.65461 0.0
C1072 C 0.67614 0.71424 0.65452 0.0
C1073 C 0.69433 0.69366 0.64214 0.0
C1074 C 0.72015 0.70186 0.62977 0.0
C1075 C 0.85121 0.82376 0.64639 0.0
C1076 C 0.8587 0.81484 0.67277 0.0
C1077 C 0.8328 0.80708 0.62939 0.0
C1078 C 0.82193 0.78109 0.6385 0.0
C1079 C 0.82959 0.77222 0.66493 0.0
C1080 C 0.84781 0.78899 0.68191 0.0
C1081 C 0.80199 0.76344 0.62086 0.0
C1082 C 0.77524 0.75569 0.63196 0.0
C1083 C 0.80897 0.75454 0.59328 0.0
C1084 C 0.83764 0.76032 0.58101 0.0
C1085 C 0.86308 0.75163 0.59416 0.0
C1086 C 0.89004 0.75731 0.58261 0.0
C1087 C 0.89185 0.77149 0.5578 0.0
C1088 C 0.86669 0.77995 0.54445 0.0
C1089 C 0.83967 0.77436 0.55593 0.0
H1090 H 0.91275 0.77586 0.54889 0.0
H1091 H 0.65616 0.70785 0.66408 0.0
H1092 H 0.7592 0.16759 0.02081 0.0
H1093 H 0.72298 0.19478 0.04767 0.0
H1094 H 0.79057 0.23789 0.0945 0.0
H1095 H 0.82703 0.21112 0.06751 0.0
H1096 H 0.74284 0.21621 0.1268 0.0
H1097 H 0.76187 0.27269 0.04705 0.0
H1098 H 0.76575 0.28021 0.99696 0.0
H1099 H 0.67654 0.25735 0.98597 0.0
H1100 H 0.67226 0.24927 0.03598 0.0
H1101 H 0.67081 0.33066 0.19351 0.0
H1102 H 0.70406 0.30139 0.16519 0.0
H1103 H 0.63405 0.27713 0.10992 0.0
H1104 H 0.60114 0.30802 0.13757 0.0
H1105 H 0.68071 0.28638 0.081 0.0
H1106 H 0.65936 0.23205 0.15935 0.0
H1107 H 0.65375 0.22255 0.20889 0.0
H1108 H 0.74427 0.23771 0.22213 0.0
H1109 H 0.75036 0.24775 0.17273 0.0
C1110 C 0.76638 0.18273 0.03693 0.0
C1111 C 0.79599 0.18728 0.04199 0.0
C1112 C 0.74566 0.19828 0.05216 0.0
C1113 C 0.7542 0.21837 0.0729 0.0
C1114 C 0.78365 0.22246 0.07852 0.0
C1115 C 0.8044 0.20725 0.06302 0.0
C1116 C 0.73241 0.23554 0.08845 0.0
C1117 C 0.72942 0.23178 0.11693 0.0
C1118 C 0.71432 0.25504 0.07522 0.0
C1119 C 0.71684 0.26006 0.04519 0.0
C1120 C 0.74316 0.26901 0.03391 0.0
C1121 C 0.74542 0.27343 0.00554 0.0
C1122 C 0.72143 0.26918 0.98827 0.0
C1123 C 0.69512 0.26059 -0.00064 0.0
C1124 C 0.69276 0.2561 0.02772 0.0
C1125 C 0.66274 0.31947 0.17502 0.0
C1126 C 0.63358 0.32152 0.16755 0.0
C1127 C 0.68159 0.30244 0.15908 0.0
C1128 C 0.67143 0.28658 0.13574 0.0
C1129 C 0.64232 0.28903 0.12795 0.0
C1130 C 0.62353 0.30643 0.14376 0.0
C1131 C 0.6913 0.26745 0.11963 0.0
C1132 C 0.69393 0.27073 0.09098 0.0
C1133 C 0.70877 0.24714 0.13265 0.0
C1134 C 0.70527 0.24088 0.16236 0.0
C1135 C 0.67804 0.23355 0.17286 0.0
C1136 C 0.67478 0.22805 0.20091 0.0
C1137 C 0.69863 0.22958 0.21865 0.0
C1138 C 0.72581 0.23655 0.20836 0.0
C1139 C 0.72919 0.24213 0.18033 0.0
H1140 H 0.69606 0.22531 0.24037 0.0
H1141 H 0.72322 0.27262 0.96632 0.0
H1142 H 0.34032 0.34992 0.62805 0.0
H1143 H 0.32661 0.32532 0.66975 0.0
H1144 H 0.3402 0.24408 0.62666 0.0
H1145 H 0.35474 0.26858 0.5849 0.0
H1146 H 0.28267 0.25543 0.65623 0.0
H1147 H 0.38527 0.25346 0.66971 0.0
H1148 H 0.43413 0.27399 0.67168 0.0
H1149 H 0.40756 0.33364 0.73667 0.0
H1150 H 0.3583 0.31342 0.73493 0.0
H1151 H 0.25969 0.17163 0.77203 0.0
H1152 H 0.28161 0.19122 0.73068 0.0
H1153 H 0.29261 0.27239 0.775 0.0
H1154 H 0.27146 0.25224 0.81666 0.0
H1155 H 0.33929 0.25918 0.74369 0.0
H1156 H 0.23672 0.26128 0.73079 0.0
H1157 H 0.18751 0.24123 0.72879 0.0
H1158 H 0.21284 0.18303 0.66218 0.0
H1159 H 0.26238 0.20243 0.6641 0.0
C1160 C 0.34059 0.32682 0.62751 0.0
C1161 C 0.34852 0.31111 0.60327 0.0
C1162 C 0.33284 0.31285 0.65132 0.0
C1163 C 0.33243 0.283 0.65111 0.0
C1164 C 0.34047 0.26718 0.62706 0.0
C1165 C 0.34885 0.28116 0.60336 0.0
C1166 C 0.32251 0.26855 0.6759 0.0
C1167 C 0.2952 0.25571 0.67525 0.0
C1168 C 0.3386 0.26985 0.70075 0.0
C1169 C 0.36807 0.28214 0.70197 0.0
C1170 C 0.38978 0.27113 0.68425 0.0
C1171 C 0.41758 0.28268 0.68537 0.0
C1172 C 0.42398 0.30524 0.70421 0.0
C1173 C 0.40257 0.3162 0.72205 0.0
C1174 C 0.37472 0.30465 0.72105 0.0
C1175 C 0.26717 0.19352 0.77284 0.0
C1176 C 0.26396 0.21063 0.79714 0.0
C1177 C 0.27946 0.20474 0.74931 0.0
C1178 C 0.28831 0.23338 0.74968 0.0
C1179 C 0.28583 0.25027 0.77429 0.0
C1180 C 0.27368 0.23893 0.79791 0.0
C1181 C 0.29934 0.24587 0.72414 0.0
C1182 C 0.32677 0.2586 0.72466 0.0
C1183 C 0.28321 0.24463 0.69917 0.0
C1184 C 0.25335 0.23311 0.69778 0.0
C1185 C 0.23186 0.24406 0.71585 0.0
C1186 C 0.2039 0.23283 0.71472 0.0
C1187 C 0.19707 0.21082 0.69542 0.0
C1188 C 0.21818 0.20005 0.67715 0.0
C1189 C 0.2462 0.21116 0.67825 0.0
H1190 H 0.1754 0.20216 0.69457 0.0
H1191 H 0.44554 0.31417 0.70504 0.0
H1192 H 0.63948 0.72523 0.42992 0.0
H1193 H 0.65012 0.74763 0.3862 0.0
H1194 H 0.67324 0.6655 0.34903 0.0
H1195 H 0.66382 0.64331 0.39284 0.0
H1196 H 0.71182 0.70131 0.33656 0.0
H1197 H 0.60862 0.70181 0.33361 0.0
H1198 H 0.55929 0.71164 0.35066 0.0
H1199 H 0.57706 0.80154 0.354 0.0
H1200 H 0.62665 0.79224 0.33732 0.0
H1201 H 0.71563 0.74015 0.19676 0.0
H1202 H 0.69404 0.72044 0.23834 0.0
H1203 H 0.70183 0.80257 0.28132 0.0
H1204 H 0.72447 0.8219 0.24005 0.0
H1205 H 0.6464 0.76793 0.2899 0.0
H1206 H 0.75152 0.7644 0.29397 0.0
H1207 H 0.79902 0.75241 0.27361 0.0
H1208 H 0.77447 0.66419 0.26527 0.0
H1209 H 0.72659 0.67578 0.28515 0.0
C1210 C 0.64665 0.71198 0.41234 0.0
C1211 C 0.651 0.68256 0.41485 0.0
C1212 C 0.65258 0.72476 0.38731 0.0
C1213 C 0.66227 0.70823 0.36418 0.0
C1214 C 0.66595 0.67875 0.36658 0.0
C1215 C 0.66054 0.66608 0.39165 0.0
C1216 C 0.67001 0.72164 0.33787 0.0
C1217 C 0.69725 0.71555 0.32628 0.0
C1218 C 0.65129 0.74063 0.32451 0.0
C1219 C 0.62146 0.7463 0.33448 0.0
C1220 C 0.60209 0.72366 0.33819 0.0
C1221 C 0.57407 0.72914 0.34775 0.0
C1222 C 0.56508 0.75718 0.35348 0.0
C1223 C 0.58407 0.77982 0.34959 0.0
C1224 C 0.61213 0.77447 0.34005 0.0
C1225 C 0.71245 0.7539 0.21508 0.0
C1226 C 0.72187 0.78231 0.21556 0.0
C1227 C 0.69997 0.74279 0.23862 0.0
C1228 C 0.69643 0.76012 0.26278 0.0
C1229 C 0.70422 0.789 0.26275 0.0
C1230 C 0.71712 0.79997 0.23932 0.0
C1231 C 0.68784 0.74727 0.28891 0.0
C1232 C 0.66069 0.75358 0.30038 0.0
C1233 C 0.70635 0.7281 0.302 0.0
C1234 C 0.7354 0.721 0.29078 0.0
C1235 C 0.75618 0.74248 0.28761 0.0
C1236 C 0.78318 0.73576 0.27618 0.0
C1237 C 0.78973 0.70757 0.26807 0.0
C1238 C 0.76935 0.68602 0.27151 0.0
C1239 C 0.74229 0.69265 0.28288 0.0
H1240 H 0.81063 0.7024 0.25919 0.0
H1241 H 0.54338 0.76137 0.36088 0.0
H1242 H 0.80182 0.17251 0.9144 0.0
H1243 H 0.79598 0.19325 0.86943 0.0
H1244 H 0.8813 0.22998 0.87611 0.0
H1245 H 0.88713 0.20969 0.92177 0.0
H1246 H 0.84447 0.2668 0.85448 0.0
H1247 H 0.87135 0.17209 0.83432 0.0
H1248 H 0.87171 0.12009 0.83955 0.0
H1249 H 0.7838 0.1147 0.81157 0.0
H1250 H 0.78267 0.16684 0.80666 0.0
H1251 H 0.8183 0.29338 0.70822 0.0
H1252 H 0.84267 0.26925 0.74608 0.0
H1253 H 0.75997 0.25164 0.78258 0.0
H1254 H 0.73589 0.27737 0.74619 0.0
H1255 H 0.80867 0.20324 0.77695 0.0
H1256 H 0.78373 0.30241 0.81025 0.0
H1257 H 0.78704 0.3543 0.80449 0.0
H1258 H 0.87962 0.34908 0.80461 0.0
H1259 H 0.87677 0.29702 0.80988 0.0
C1260 C 0.81935 0.18508 0.90642 0.0
C1261 C 0.84504 0.18925 0.92155 0.0
C1262 C 0.81603 0.19681 0.88063 0.0
C1263 C 0.83849 0.21254 0.86913 0.0
C1264 C 0.86381 0.21769 0.88454 0.0
C1265 C 0.86707 0.20613 0.91061 0.0
C1266 C 0.83504 0.22336 0.84096 0.0
C1267 C 0.83734 0.25278 0.83736 0.0
C1268 C 0.8262 0.20504 0.81843 0.0
C1269 C 0.82689 0.17348 0.82025 0.0
C1270 C 0.85204 0.15987 0.82936 0.0
C1271 C 0.85238 0.13037 0.83229 0.0
C1272 C 0.82779 0.11414 0.82596 0.0
C1273 C 0.80283 0.12734 0.81648 0.0
C1274 C 0.80234 0.15689 0.81357 0.0
C1275 C 0.80547 0.28428 0.72436 0.0
C1276 C 0.77525 0.28707 0.72429 0.0
C1277 C 0.81931 0.27035 0.74571 0.0
C1278 C 0.80298 0.25852 0.7668 0.0
C1279 C 0.77281 0.26031 0.76617 0.0
C1280 C 0.75909 0.27484 0.74533 0.0
C1281 C 0.81698 0.24658 0.79112 0.0
C1282 C 0.81665 0.21698 0.79391 0.0
C1283 C 0.8284 0.26459 0.81261 0.0
C1284 C 0.83004 0.29587 0.81012 0.0
C1285 C 0.80477 0.31231 0.80881 0.0
C1286 C 0.80656 0.34174 0.80567 0.0
C1287 C 0.83353 0.35497 0.8041 0.0
C1288 C 0.85875 0.3388 0.80577 0.0
C1289 C 0.85706 0.30934 0.80883 0.0
H1290 H 0.83488 0.37776 0.80167 0.0
H1291 H 0.82812 0.09135 0.82843 0.0
H1292 H 0.33515 0.28067 0.46324 0.0
H1293 H 0.29871 0.25651 0.43415 0.0
H1294 H 0.23393 0.31533 0.46567 0.0
H1295 H 0.2701 0.33953 0.49506 0.0
H1296 H 0.2142 0.26084 0.46391 0.0
H1297 H 0.26192 0.32332 0.40244 0.0
H1298 H 0.30378 0.34436 0.37923 0.0
H1299 H 0.32579 0.26226 0.34261 0.0
H1300 H 0.28428 0.24065 0.36593 0.0
H1301 H 0.13906 0.23071 0.32035 0.0
H1302 H 0.17089 0.25875 0.35174 0.0
H1303 H 0.18397 0.18481 0.40044 0.0
H1304 H 0.1517 0.15697 0.36914 0.0
H1305 H 0.22741 0.25007 0.36201 0.0
H1306 H 0.19401 0.20804 0.46845 0.0
H1307 H 0.15059 0.18971 0.49136 0.0
H1308 H 0.09649 0.23641 0.43709 0.0
H1309 H 0.13956 0.25534 0.41413 0.0
C1310 C 0.31318 0.28853 0.46404 0.0
C1311 C 0.30564 0.31215 0.48148 0.0
C1312 C 0.29238 0.27471 0.44732 0.0
C1313 C 0.26368 0.28428 0.4476 0.0
C1314 C 0.25598 0.3076 0.46517 0.0
C1315 C 0.27675 0.32148 0.48187 0.0
C1316 C 0.24172 0.27004 0.42944 0.0
C1317 C 0.21707 0.25847 0.44163 0.0
C1318 C 0.24527 0.26736 0.40034 0.0
C1319 C 0.27013 0.28033 0.38613 0.0
C1320 C 0.27581 0.30972 0.3896 0.0
C1321 C 0.29945 0.32175 0.3764 0.0
C1322 C 0.31747 0.30465 0.35951 0.0
C1323 C 0.31184 0.27548 0.35573 0.0
C1324 C 0.28823 0.26333 0.36891 0.0
C1325 C 0.14837 0.22074 0.33809 0.0
C1326 C 0.14291 0.19192 0.34266 0.0
C1327 C 0.16668 0.23661 0.35582 0.0
C1328 C 0.17967 0.2239 0.37849 0.0
C1329 C 0.17391 0.19512 0.38326 0.0
C1330 C 0.15564 0.17924 0.36544 0.0
C1331 C 0.20009 0.24048 0.3965 0.0
C1332 C 0.22451 0.25244 0.38429 0.0
C1333 C 0.1961 0.24386 0.42551 0.0
C1334 C 0.17003 0.23287 0.4394 0.0
C1335 C 0.17285 0.21448 0.46148 0.0
C1336 C 0.1483 0.20397 0.47447 0.0
C1337 C 0.1208 0.21181 0.46563 0.0
C1338 C 0.11779 0.23026 0.44384 0.0
C1339 C 0.14227 0.24085 0.43081 0.0
H1340 H 0.10182 0.20364 0.4757 0.0
H1341 H 0.33577 0.314 0.34931 0.0
H1342 H 0.23308 0.82705 0.00623 0.0
H1343 H 0.26963 0.80141 0.97854 0.0
H1344 H 0.20295 0.76624 0.92466 0.0
H1345 H 0.16627 0.79084 0.95295 0.0
H1346 H 0.23896 0.72665 0.93437 0.0
H1347 H 0.24908 0.82308 0.90675 0.0
H1348 H 0.25628 0.875 0.91343 0.0
H1349 H 0.33932 0.8609 0.95 0.0
H1350 H 0.33244 0.80886 0.94387 0.0
H1351 H 0.32424 0.68569 0.81765 0.0
H1352 H 0.29118 0.71304 0.84824 0.0
H1353 H 0.35909 0.72441 0.90893 0.0
H1354 H 0.39193 0.69612 0.87853 0.0
H1355 H 0.32489 0.77556 0.8974 0.0
H1356 H 0.31354 0.6775 0.92159 0.0
H1357 H 0.30532 0.62628 0.91092 0.0
H1358 H 0.22234 0.64494 0.87639 0.0
H1359 H 0.23029 0.69635 0.88639 0.0
C1360 C 0.22623 0.8139 0.98844 0.0
C1361 C 0.19679 0.811 0.98175 0.0
C1362 C 0.24717 0.79935 0.97253 0.0
C1363 C 0.23914 0.78219 0.94921 0.0
C1364 C 0.20973 0.77929 0.94256 0.0
C1365 C 0.18876 0.79341 0.95872 0.0
C1366 C 0.26124 0.76686 0.93195 0.0
C1367 C 0.25754 0.7375 0.92608 0.0
C1368 C 0.28587 0.78079 0.92148 0.0
C1369 C 0.29011 0.81207 0.92512 0.0
C1370 C 0.26878 0.83105 0.9164 0.0
C1371 C 0.27282 0.8605 0.92006 0.0
C1372 C 0.29821 0.87124 0.9322 0.0
C1373 C 0.31965 0.85255 0.94064 0.0
C1374 C 0.3157 0.82308 0.93706 0.0
C1375 C 0.33195 0.694 0.83757 0.0
C1376 C 0.36041 0.68885 0.84595 0.0
C1377 C 0.31321 0.70966 0.85491 0.0
C1378 C 0.32273 0.72059 0.88083 0.0
C1379 C 0.35145 0.7162 0.88893 0.0
C1380 C 0.37013 0.70019 0.87165 0.0
C1381 C 0.30224 0.7357 0.89976 0.0
C1382 C 0.3063 0.76488 0.9059 0.0
C1383 C 0.27767 0.72177 0.91009 0.0
C1384 C 0.27263 0.69081 0.90453 0.0
C1385 C 0.29363 0.67071 0.91153 0.0
C1386 C 0.28901 0.64164 0.90562 0.0
C1387 C 0.26335 0.63237 0.89293 0.0
C1388 C 0.24222 0.65215 0.88619 0.0
C1389 C 0.24676 0.68126 0.892 0.0
H1390 H 0.25981 0.60985 0.88837 0.0
H1391 H 0.30129 0.89405 0.93501 0.0
loop_
_geom_bond_atom_site_label_1
_geom_bond_atom_site_label_2
_geom_bond_distance
_geom_bond_site_symmetry_2
_ccdc_geom_bond_type
Sc0 O3 2.025 . S
Sc0 O10 2.105 1_554 S
Sc0 O13 2.105 . S
Sc0 O16 2.105 . S
Sc0 O19 2.105 1_554 S
Sc1 O3 2.025 . S
Sc1 O11 2.105 1_554 S
Sc1 O15 2.105 . S
Sc1 O17 2.105 . S
Sc1 O21 2.105 1_554 S
Sc2 O3 2.025 . S
Sc2 O12 2.076 1_554 S
Sc2 O14 2.105 . S
Sc2 O18 2.105 . S
Sc2 O20 2.102 1_554 S
O3 Sc0 2.025 . S
O3 Sc1 2.025 . S
O3 Sc2 2.025 . S
C4 O10 1.268 . S
C4 O20 1.270 . S
C5 O11 1.268 . S
C5 O19 1.268 . S
C6 O12 1.289 . S
C6 O21 1.268 . S
C7 O13 1.268 . S
C7 O17 1.268 . S
C8 O14 1.268 . S
C8 O16 1.268 . S
C9 O15 1.268 . S
C9 O18 1.268 . S
O10 Sc0 2.105 1_556 S
O10 C4 1.268 . S
O11 Sc1 2.105 1_556 S
O11 C5 1.268 . S
O12 Sc2 2.076 1_556 S
O12 C6 1.289 . S
O13 Sc0 2.105 . S
O13 C7 1.268 . S
O14 Sc2 2.105 . S
O14 C8 1.268 . S
O15 Sc1 2.105 . S
O15 C9 1.268 . S
O16 Sc0 2.105 . S
O16 C8 1.268 . S
O17 Sc1 2.105 . S
O17 C7 1.268 . S
O18 Sc2 2.105 . S
O18 C9 1.268 . S
O19 Sc0 2.105 1_556 S
O19 C5 1.268 . S
O20 Sc2 2.102 1_556 S
O20 C4 1.270 . S
O21 Sc1 2.105 1_556 S
O21 C6 1.268 . S
Sc22 O25 2.025 . S
Sc22 O32 2.105 . S
Sc22 O35 2.105 . S
Sc22 O38 2.105 . S
Sc22 O41 2.105 . S
Sc23 O25 2.025 . S
Sc23 O33 2.105 . S
Sc23 O37 2.105 . S
Sc23 O39 2.105 . S
Sc23 O43 2.105 . S
Sc24 O25 2.025 . S
Sc24 O34 2.105 . S
Sc24 O36 2.105 . S
Sc24 O40 2.105 . S
Sc24 O42 2.105 . S
O25 Sc22 2.025 . S
O25 Sc23 2.025 . S
O25 Sc24 2.025 . S
C26 O32 1.268 . S
C26 O42 1.268 . S
C27 O33 1.268 . S
C27 O41 1.268 . S
C28 O34 1.268 . S
C28 O43 1.268 . S
C29 O35 1.268 . S
C29 O39 1.268 . S
C30 O36 1.268 . S
C30 O38 1.268 . S
C31 O37 1.268 . S
C31 O40 1.268 . S
O32 Sc22 2.105 . S
O32 C26 1.268 . S
O33 Sc23 2.105 . S
O33 C27 1.268 . S
O34 Sc24 2.105 . S
O34 C28 1.268 . S
O35 Sc22 2.105 . S
O35 C29 1.268 . S
O36 Sc24 2.105 . S
O36 C30 1.268 . S
O37 Sc23 2.105 . S
O37 C31 1.268 . S
O38 Sc22 2.105 . S
O38 C30 1.268 . S
O39 Sc23 2.105 . S
O39 C29 1.268 . S
O40 Sc24 2.105 . S
O40 C31 1.268 . S
O41 Sc22 2.105 . S
O41 C27 1.268 . S
O42 Sc24 2.105 . S
O42 C26 1.268 . S
O43 Sc23 2.105 . S
O43 C28 1.268 . S
Sc44 O47 2.025 . S
Sc44 O54 2.105 1_554 S
Sc44 O57 2.105 . S
Sc44 O60 2.105 . S
Sc44 O63 2.105 1_554 S
Sc45 O47 2.025 1_556 S
Sc45 O55 2.105 . S
Sc45 O59 2.105 1_556 S
Sc45 O61 2.105 1_556 S
Sc45 O65 2.105 . S
Sc46 O47 2.025 . S
Sc46 O56 2.105 1_554 S
Sc46 O58 2.105 . S
Sc46 O62 2.105 . S
Sc46 O64 2.105 1_554 S
O47 Sc44 2.025 . S
O47 Sc45 2.025 1_554 S
O47 Sc46 2.025 . S
C48 O54 1.268 . S
C48 O64 1.268 . S
C49 O55 1.268 . S
C49 O63 1.268 . S
C50 O56 1.268 . S
C50 O65 1.268 . S
C51 O57 1.268 . S
C51 O61 1.268 . S
C52 O58 1.268 . S
C52 O60 1.268 . S
C53 O59 1.268 . S
C53 O62 1.268 . S
O54 Sc44 2.105 1_556 S
O54 C48 1.268 . S
O55 Sc45 2.105 . S
O55 C49 1.268 . S
O56 Sc46 2.105 1_556 S
O56 C50 1.268 . S
O57 Sc44 2.105 . S
O57 C51 1.268 . S
O58 Sc46 2.105 . S
O58 C52 1.268 . S
O59 Sc45 2.105 1_554 S
O59 C53 1.268 . S
O60 Sc44 2.105 . S
O60 C52 1.268 . S
O61 Sc45 2.105 1_554 S
O61 C51 1.268 . S
O62 Sc46 2.105 . S
O62 C53 1.268 . S
O63 Sc44 2.105 1_556 S
O63 C49 1.268 . S
O64 Sc46 2.105 1_556 S
O64 C48 1.268 . S
O65 Sc45 2.105 . S
O65 C50 1.268 . S
Sc66 O69 2.025 . S
Sc66 O76 2.105 . S
Sc66 O79 2.105 . S
Sc66 O82 2.105 . S
Sc66 O85 2.105 . S
Sc67 O69 2.025 . S
Sc67 O77 2.105 . S
Sc67 O81 2.105 . S
Sc67 O83 2.105 . S
Sc67 O87 2.105 . S
Sc68 O69 2.025 . S
Sc68 O78 2.105 . S
Sc68 O80 2.105 . S
Sc68 O84 2.105 . S
Sc68 O86 2.105 . S
O69 Sc66 2.025 . S
O69 Sc67 2.025 . S
O69 Sc68 2.025 . S
C70 O76 1.268 . S
C70 O86 1.268 . S
C71 O77 1.268 . S
C71 O85 1.268 . S
C72 O78 1.268 . S
C72 O87 1.268 . S
C73 O79 1.268 . S
C73 O83 1.268 . S
C74 O80 1.268 . S
C74 O82 1.268 . S
C75 O81 1.268 . S
C75 O84 1.268 . S
O76 Sc66 2.105 . S
O76 C70 1.268 . S
O77 Sc67 2.105 . S
O77 C71 1.268 . S
O78 Sc68 2.105 . S
O78 C72 1.268 . S
O79 Sc66 2.105 . S
O79 C73 1.268 . S
O80 Sc68 2.105 . S
O80 C74 1.268 . S
O81 Sc67 2.105 . S
O81 C75 1.268 . S
O82 Sc66 2.105 . S
O82 C74 1.268 . S
O83 Sc67 2.105 . S
O83 C73 1.268 . S
O84 Sc68 2.105 . S
O84 C75 1.268 . S
O85 Sc66 2.105 . S
O85 C71 1.268 . S
O86 Sc68 2.105 . S
O86 C70 1.268 . S
O87 Sc67 2.105 . S
O87 C72 1.268 . S
C88 N89 1.317 . S
C88 N90 1.348 . S
C88 C91 1.485 . S
N89 C88 1.317 . S
N89 N93 1.370 . S
N90 C88 1.348 . S
N90 C92 1.346 . S
C91 C88 1.485 . S
C91 H95 0.960 . S
C91 H96 0.961 . S
C91 H97 0.960 . S
C92 N90 1.346 . S
C92 N93 1.307 . S
C92 C94 1.486 . S
N93 N89 1.370 . S
N93 C92 1.307 . S
C94 C92 1.486 . S
C94 H98 0.960 . S
C94 H99 0.960 . S
C94 H100 0.959 . S
H95 C91 0.960 . S
H96 C91 0.961 . S
H97 C91 0.960 . S
H98 C94 0.960 . S
H99 C94 0.960 . S
H100 C94 0.959 . S
C101 N102 1.317 . S
C101 N103 1.348 . S
C101 C104 1.485 . S
N102 C101 1.317 . S
N102 N106 1.370 . S
N103 C101 1.348 . S
N103 C105 1.346 . S
C104 C101 1.485 . S
C104 H108 0.960 . S
C104 H109 0.961 . S
C104 H110 0.960 . S
C105 N103 1.346 . S
C105 N106 1.307 . S
C105 C107 1.486 . S
N106 N102 1.370 . S
N106 C105 1.307 . S
C107 C105 1.486 . S
C107 H111 0.960 . S
C107 H112 0.960 . S
C107 H113 0.959 . S
H108 C104 0.960 . S
H109 C104 0.961 . S
H110 C104 0.960 . S
H111 C107 0.960 . S
H112 C107 0.960 . S
H113 C107 0.959 . S
C114 N115 1.317 . S
C114 N116 1.348 . S
C114 C117 1.485 . S
N115 C114 1.317 . S
N115 N119 1.370 . S
N116 C114 1.348 . S
N116 C118 1.346 . S
C117 C114 1.485 . S
C117 H121 0.960 . S
C117 H122 0.961 . S
C117 H123 0.960 . S
C118 N116 1.346 . S
C118 N119 1.307 . S
C118 C120 1.486 . S
N119 N115 1.370 . S
N119 C118 1.307 . S
C120 C118 1.486 . S
C120 H124 0.960 . S
C120 H125 0.960 . S
C120 H126 0.959 . S
H121 C117 0.960 . S
H122 C117 0.961 . S
H123 C117 0.960 . S
H124 C120 0.960 . S
H125 C120 0.960 . S
H126 C120 0.959 . S
C127 N128 1.317 . S
C127 N129 1.348 . S
C127 C130 1.485 . S
N128 C127 1.317 . S
N128 N132 1.370 . S
N129 C127 1.348 . S
N129 C131 1.346 . S
C130 C127 1.485 . S
C130 H134 0.960 . S
C130 H135 0.961 . S
C130 H136 0.960 . S
C131 N129 1.346 . S
C131 N132 1.307 . S
C131 C133 1.486 . S
N132 N128 1.370 . S
N132 C131 1.307 . S
C133 C131 1.486 . S
C133 H137 0.960 . S
C133 H138 0.960 . S
C133 H139 0.959 . S
H134 C130 0.960 . S
H135 C130 0.961 . S
H136 C130 0.960 . S
H137 C133 0.960 . S
H138 C133 0.960 . S
H139 C133 0.959 . S
C140 N141 1.317 . S
C140 N142 1.348 . S
C140 C143 1.485 . S
N141 C140 1.317 . S
N141 N145 1.370 . S
N142 C140 1.348 . S
N142 C144 1.346 . S
C143 C140 1.485 . S
C143 H147 0.960 . S
C143 H148 0.961 . S
C143 H149 0.960 . S
C144 N142 1.346 . S
C144 N145 1.307 . S
C144 C146 1.486 . S
N145 N141 1.370 . S
N145 C144 1.307 . S
C146 C144 1.486 . S
C146 H150 0.960 . S
C146 H151 0.960 . S
C146 H152 0.959 . S
H147 C143 0.960 . S
H148 C143 0.961 . S
H149 C143 0.960 . S
H150 C146 0.960 . S
H151 C146 0.960 . S
H152 C146 0.959 . S
C153 N154 1.317 . S
C153 N155 1.348 . S
C153 C156 1.485 . S
N154 C153 1.317 . S
N154 N158 1.370 . S
N155 C153 1.348 . S
N155 C157 1.346 . S
C156 C153 1.485 . S
C156 H160 0.960 . S
C156 H161 0.961 . S
C156 H162 0.960 . S
C157 N155 1.346 . S
C157 N158 1.307 . S
C157 C159 1.486 . S
N158 N154 1.370 . S
N158 C157 1.307 . S
C159 C157 1.486 . S
C159 H163 0.960 . S
C159 H164 0.960 . S
C159 H165 0.959 . S
H160 C156 0.960 . S
H161 C156 0.961 . S
H162 C156 0.960 . S
H163 C159 0.960 . S
H164 C159 0.960 . S
H165 C159 0.959 . S
C166 N167 1.317 . S
C166 N168 1.348 . S
C166 C169 1.485 . S
N167 C166 1.317 . S
N167 N171 1.370 . S
N168 C166 1.348 . S
N168 C170 1.346 . S
C169 C166 1.485 . S
C169 H173 0.960 . S
C169 H174 0.961 . S
C169 H175 0.960 . S
C170 N168 1.346 . S
C170 N171 1.307 . S
C170 C172 1.486 . S
N171 N167 1.370 . S
N171 C170 1.307 . S
C172 C170 1.486 . S
C172 H176 0.960 . S
C172 H177 0.960 . S
C172 H178 0.959 . S
H173 C169 0.960 . S
H174 C169 0.961 . S
H175 C169 0.960 . S
H176 C172 0.960 . S
H177 C172 0.960 . S
H178 C172 0.959 . S
C179 N180 1.317 . S
C179 N181 1.348 . S
C179 C182 1.485 . S
N180 C179 1.317 . S
N180 N184 1.370 . S
N181 C179 1.348 . S
N181 C183 1.346 . S
C182 C179 1.485 . S
C182 H186 0.960 . S
C182 H187 0.961 . S
C182 H188 0.960 . S
C183 N181 1.346 . S
C183 N184 1.307 . S
C183 C185 1.486 . S
N184 N180 1.370 . S
N184 C183 1.307 . S
C185 C183 1.486 . S
C185 H189 0.960 . S
C185 H190 0.960 . S
C185 H191 0.959 . S
H186 C182 0.960 . S
H187 C182 0.961 . S
H188 C182 0.960 . S
H189 C185 0.960 . S
H190 C185 0.960 . S
H191 C185 0.959 . S
H192 C210 0.951 . S
H193 C212 0.951 . S
H194 C214 0.950 . S
H195 C215 0.950 . S
H196 C217 0.950 . S
H197 C220 0.950 . S
H198 C221 0.950 . S
H199 C223 0.950 . S
H200 C224 0.950 . S
H201 C225 0.951 . S
H202 C227 0.951 . S
H203 C229 0.950 . S
H204 C230 0.950 . S
H205 C232 0.950 . S
H206 C235 0.950 . S
H207 C236 0.950 . S
H208 C238 0.950 . S
H209 C239 0.950 . S
C210 H192 0.951 . S
C210 C211 1.366 . S
C210 C212 1.388 . S
C211 C210 1.366 . S
C211 C215 1.385 . S
C212 H193 0.951 . S
C212 C210 1.388 . S
C212 C213 1.366 . S
C213 C212 1.366 . S
C213 C214 1.414 . S
C213 C216 1.502 . S
C214 H194 0.950 . S
C214 C213 1.414 . S
C214 C215 1.374 . S
C215 H195 0.950 . S
C215 C211 1.385 . S
C215 C214 1.374 . S
C216 C213 1.502 . S
C216 C217 1.369 1_565 S
C216 C218 1.390 . S
C217 H196 0.950 . S
C217 C216 1.369 1_545 S
C217 C233 1.377 . S
C218 C216 1.390 . S
C218 C219 1.524 . S
C218 C232 1.377 1_565 S
C219 C218 1.524 . S
C219 C220 1.397 . S
C219 C224 1.363 . S
C220 H197 0.950 . S
C220 C219 1.397 . S
C220 C221 1.334 . S
C221 H198 0.950 . S
C221 C220 1.334 . S
C221 C222 1.287 . S
C222 C221 1.287 . S
C222 C223 1.524 . S
C222 H241 0.913 . S
C223 H199 0.950 . S
C223 C222 1.524 . S
C223 C224 1.415 . S
C224 H200 0.950 . S
C224 C219 1.363 . S
C224 C223 1.415 . S
C225 H201 0.951 . S
C225 C226 1.366 . S
C225 C227 1.388 . S
C226 C225 1.366 . S
C226 C230 1.385 . S
C227 H202 0.951 . S
C227 C225 1.388 . S
C227 C228 1.366 . S
C228 C227 1.366 . S
C228 C229 1.414 . S
C228 C231 1.499 . S
C229 H203 0.950 . S
C229 C228 1.414 . S
C229 C230 1.374 . S
C230 H204 0.950 . S
C230 C226 1.385 . S
C230 C229 1.374 . S
C231 C228 1.499 . S
C231 C232 1.373 . S
C231 C233 1.389 . S
C232 H205 0.950 . S
C232 C218 1.377 1_545 S
C232 C231 1.373 . S
C233 C217 1.377 . S
C233 C231 1.389 . S
C233 C234 1.524 . S
C234 C233 1.524 . S
C234 C235 1.397 . S
C234 C239 1.363 . S
C235 H206 0.950 . S
C235 C234 1.397 . S
C235 C236 1.334 . S
C236 H207 0.950 . S
C236 C235 1.334 . S
C236 C237 1.287 . S
C237 C236 1.287 . S
C237 C238 1.524 . S
C237 H240 0.999 . S
C238 H208 0.950 . S
C238 C237 1.524 . S
C238 C239 1.415 . S
C239 H209 0.950 . S
C239 C234 1.363 . S
C239 C238 1.415 . S
H240 C237 0.999 . S
H241 C222 0.913 . S
H242 C260 0.951 . S
H243 C262 0.951 . S
H244 C264 0.950 . S
H245 C265 0.950 . S
H246 C267 0.950 . S
H247 C270 0.950 . S
H248 C271 0.950 . S
H249 C273 0.950 . S
H250 C274 0.950 . S
H251 C275 0.951 . S
H252 C277 0.951 . S
H253 C279 0.950 . S
H254 C280 0.950 . S
H255 C282 0.950 . S
H256 C285 0.950 . S
H257 C286 0.950 . S
H258 C288 0.950 . S
H259 C289 0.950 . S
C260 H242 0.951 . S
C260 C261 1.366 . S
C260 C262 1.388 . S
C261 C260 1.366 . S
C261 C265 1.385 . S
C262 H243 0.951 . S
C262 C260 1.388 . S
C262 C263 1.366 . S
C263 C262 1.366 . S
C263 C264 1.414 . S
C263 C266 1.499 . S
C264 H244 0.950 . S
C264 C263 1.414 . S
C264 C265 1.374 . S
C265 H245 0.950 . S
C265 C261 1.385 . S
C265 C264 1.374 . S
C266 C263 1.499 . S
C266 C267 1.373 . S
C266 C268 1.389 . S
C267 H246 0.950 . S
C267 C266 1.373 . S
C267 C283 1.377 . S
C268 C266 1.389 . S
C268 C269 1.524 . S
C268 C282 1.377 . S
C269 C268 1.524 . S
C269 C270 1.397 . S
C269 C274 1.363 . S
C270 H247 0.950 . S
C270 C269 1.397 . S
C270 C271 1.334 . S
C271 H248 0.950 . S
C271 C270 1.334 . S
C271 C272 1.287 . S
C272 C271 1.287 . S
C272 C273 1.524 . S
C272 H291 0.913 . S
C273 H249 0.950 . S
C273 C272 1.524 . S
C273 C274 1.415 . S
C274 H250 0.950 . S
C274 C269 1.363 . S
C274 C273 1.415 . S
C275 H251 0.951 . S
C275 C276 1.366 . S
C275 C277 1.388 . S
C276 C275 1.366 . S
C276 C280 1.385 . S
C277 H252 0.951 . S
C277 C275 1.388 . S
C277 C278 1.366 . S
C278 C277 1.366 . S
C278 C279 1.414 . S
C278 C281 1.499 . S
C279 H253 0.950 . S
C279 C278 1.414 . S
C279 C280 1.374 . S
C280 H254 0.950 . S
C280 C276 1.385 . S
C280 C279 1.374 . S
C281 C278 1.499 . S
C281 C282 1.373 . S
C281 C283 1.389 . S
C282 H255 0.950 . S
C282 C268 1.377 . S
C282 C281 1.373 . S
C283 C267 1.377 . S
C283 C281 1.389 . S
C283 C284 1.524 . S
C284 C283 1.524 . S
C284 C285 1.397 . S
C284 C289 1.363 . S
C285 H256 0.950 . S
C285 C284 1.397 . S
C285 C286 1.334 . S
C286 H257 0.950 . S
C286 C285 1.334 . S
C286 C287 1.287 . S
C287 C286 1.287 . S
C287 C288 1.524 . S
C287 H290 0.999 . S
C288 H258 0.950 . S
C288 C287 1.524 . S
C288 C289 1.415 . S
C289 H259 0.950 . S
C289 C284 1.363 . S
C289 C288 1.415 . S
H290 C287 0.999 . S
H291 C272 0.913 . S
H292 C310 0.951 . S
H293 C312 0.951 . S
H294 C314 0.950 . S
H295 C315 0.950 . S
H296 C317 0.950 . S
H297 C320 0.950 . S
H298 C321 0.950 . S
H299 C323 0.950 . S
H300 C324 0.950 1_565 S
H301 C325 0.951 . S
H302 C327 0.951 . S
H303 C329 0.950 . S
H304 C330 0.950 . S
H305 C332 0.950 . S
H306 C335 0.950 . S
H307 C336 0.950 . S
H308 C338 0.950 . S
H309 C339 0.950 . S
C310 H292 0.951 . S
C310 C311 1.366 . S
C310 C312 1.388 . S
C311 C310 1.366 . S
C311 C315 1.385 . S
C312 H293 0.951 . S
C312 C310 1.388 . S
C312 C313 1.366 . S
C313 C312 1.366 . S
C313 C314 1.414 . S
C313 C316 1.499 1_545 S
C314 H294 0.950 . S
C314 C313 1.414 . S
C314 C315 1.374 . S
C315 H295 0.950 . S
C315 C311 1.385 . S
C315 C314 1.374 . S
C316 C313 1.499 1_565 S
C316 C317 1.373 . S
C316 C318 1.389 . S
C317 H296 0.950 . S
C317 C316 1.373 . S
C317 C333 1.377 . S
C318 C316 1.389 . S
C318 C319 1.524 1_565 S
C318 C332 1.377 . S
C319 C318 1.524 1_545 S
C319 C320 1.397 . S
C319 C324 1.363 . S
C320 H297 0.950 . S
C320 C319 1.397 . S
C320 C321 1.334 . S
C321 H298 0.950 . S
C321 C320 1.334 . S
C321 C322 1.287 . S
C322 C321 1.287 . S
C322 C323 1.524 . S
C322 H341 0.913 . S
C323 H299 0.950 . S
C323 C322 1.524 . S
C323 C324 1.415 . S
C324 H300 0.950 1_545 S
C324 C319 1.363 . S
C324 C323 1.415 . S
C325 H301 0.951 . S
C325 C326 1.366 . S
C325 C327 1.388 . S
C326 C325 1.366 . S
C326 C330 1.385 . S
C327 H302 0.951 . S
C327 C325 1.388 . S
C327 C328 1.366 . S
C328 C327 1.366 . S
C328 C329 1.414 . S
C328 C331 1.499 . S
C329 H303 0.950 . S
C329 C328 1.414 . S
C329 C330 1.374 . S
C330 H304 0.950 . S
C330 C326 1.385 . S
C330 C329 1.374 . S
C331 C328 1.499 . S
C331 C332 1.373 . S
C331 C333 1.389 . S
C332 H305 0.950 . S
C332 C318 1.377 . S
C332 C331 1.373 . S
C333 C317 1.377 . S
C333 C331 1.389 . S
C333 C334 1.524 . S
C334 C333 1.524 . S
C334 C335 1.397 . S
C334 C339 1.363 . S
C335 H306 0.950 . S
C335 C334 1.397 . S
C335 C336 1.334 . S
C336 H307 0.950 . S
C336 C335 1.334 . S
C336 C337 1.287 . S
C337 C336 1.287 . S
C337 C338 1.524 . S
C337 H340 0.999 . S
C338 H308 0.950 . S
C338 C337 1.524 . S
C338 C339 1.415 . S
C339 H309 0.950 . S
C339 C334 1.363 . S
C339 C338 1.415 . S
H340 C337 0.999 . S
H341 C322 0.913 . S
H342 C360 0.951 . S
H343 C362 0.951 . S
H344 C364 0.950 . S
H345 C365 0.950 . S
H346 C367 0.950 . S
H347 C370 0.950 . S
H348 C371 0.950 . S
H349 C373 0.950 . S
H350 C374 0.950 . S
H351 C375 0.951 . S
H352 C377 0.951 . S
H353 C379 0.950 . S
H354 C380 0.950 . S
H355 C382 0.950 . S
H356 C385 0.950 . S
H357 C386 0.950 . S
H358 C388 0.950 . S
H359 C389 0.950 . S
C360 H342 0.951 . S
C360 C361 1.366 . S
C360 C362 1.388 . S
C361 C360 1.366 . S
C361 C365 1.385 . S
C362 H343 0.951 . S
C362 C360 1.388 . S
C362 C363 1.366 . S
C363 C362 1.366 . S
C363 C364 1.414 . S
C363 C366 1.499 . S
C364 H344 0.950 . S
C364 C363 1.414 . S
C364 C365 1.374 . S
C365 H345 0.950 . S
C365 C361 1.385 . S
C365 C364 1.374 . S
C366 C363 1.499 . S
C366 C367 1.373 . S
C366 C368 1.389 . S
C367 H346 0.950 . S
C367 C366 1.373 . S
C367 C383 1.377 . S
C368 C366 1.389 . S
C368 C369 1.524 . S
C368 C382 1.377 . S
C369 C368 1.524 . S
C369 C370 1.397 . S
C369 C374 1.363 . S
C370 H347 0.950 . S
C370 C369 1.397 . S
C370 C371 1.334 . S
C371 H348 0.950 . S
C371 C370 1.334 . S
C371 C372 1.287 . S
C372 C371 1.287 . S
C372 C373 1.524 . S
C372 H391 0.913 . S
C373 H349 0.950 . S
C373 C372 1.524 . S
C373 C374 1.415 . S
C374 H350 0.950 . S
C374 C369 1.363 . S
C374 C373 1.415 . S
C375 H351 0.951 . S
C375 C376 1.366 . S
C375 C377 1.388 . S
C376 C375 1.366 . S
C376 C380 1.385 . S
C377 H352 0.951 . S
C377 C375 1.388 . S
C377 C378 1.366 . S
C378 C377 1.366 . S
C378 C379 1.414 . S
C378 C381 1.499 . S
C379 H353 0.950 . S
C379 C378 1.414 . S
C379 C380 1.374 . S
C380 H354 0.950 . S
C380 C376 1.385 . S
C380 C379 1.374 . S
C381 C378 1.499 . S
C381 C382 1.373 . S
C381 C383 1.389 . S
C382 H355 0.950 . S
C382 C368 1.377 . S
C382 C381 1.373 . S
C383 C367 1.377 . S
C383 C381 1.389 . S
C383 C384 1.524 . S
C384 C383 1.524 . S
C384 C385 1.397 . S
C384 C389 1.363 . S
C385 H356 0.950 . S
C385 C384 1.397 . S
C385 C386 1.334 . S
C386 H357 0.950 . S
C386 C385 1.334 . S
C386 C387 1.287 . S
C387 C386 1.287 . S
C387 C388 1.524 . S
C387 H390 0.999 . S
C388 H358 0.950 . S
C388 C387 1.524 . S
C388 C389 1.415 . S
C389 H359 0.950 . S
C389 C384 1.363 . S
C389 C388 1.415 . S
H390 C387 0.999 . S
H391 C372 0.913 . S
H392 C410 0.951 . S
H393 C412 0.951 . S
H394 C414 0.950 . S
H395 C415 0.950 . S
H396 C417 0.950 . S
H397 C420 0.950 . S
H398 C421 0.950 . S
H399 C423 0.950 . S
H400 C424 0.950 . S
H401 C425 0.951 . S
H402 C427 0.951 . S
H403 C429 0.950 . S
H404 C430 0.950 . S
H405 C432 0.950 . S
H406 C435 0.950 . S
H407 C436 0.950 . S
H408 C438 0.950 . S
H409 C439 0.950 . S
C410 H392 0.951 . S
C410 C411 1.366 . S
C410 C412 1.388 . S
C411 C410 1.366 . S
C411 C415 1.385 . S
C412 H393 0.951 . S
C412 C410 1.388 . S
C412 C413 1.366 . S
C413 C412 1.366 . S
C413 C414 1.414 . S
C413 C416 1.499 . S
C414 H394 0.950 . S
C414 C413 1.414 . S
C414 C415 1.374 . S
C415 H395 0.950 . S
C415 C411 1.385 . S
C415 C414 1.374 . S
C416 C413 1.499 . S
C416 C417 1.373 . S
C416 C418 1.389 . S
C417 H396 0.950 . S
C417 C416 1.373 . S
C417 C433 1.377 . S
C418 C416 1.389 . S
C418 C419 1.524 . S
C418 C432 1.377 . S
C419 C418 1.524 . S
C419 C420 1.397 . S
C419 C424 1.363 . S
C420 H397 0.950 . S
C420 C419 1.397 . S
C420 C421 1.334 . S
C421 H398 0.950 . S
C421 C420 1.334 . S
C421 C422 1.287 . S
C422 C421 1.287 . S
C422 C423 1.524 . S
C422 H441 0.913 . S
C423 H399 0.950 . S
C423 C422 1.524 . S
C423 C424 1.415 . S
C424 H400 0.950 . S
C424 C419 1.363 . S
C424 C423 1.415 . S
C425 H401 0.951 . S
C425 C426 1.366 . S
C425 C427 1.388 . S
C426 C425 1.366 . S
C426 C430 1.385 . S
C427 H402 0.951 . S
C427 C425 1.388 . S
C427 C428 1.366 . S
C428 C427 1.366 . S
C428 C429 1.414 . S
C428 C431 1.499 . S
C429 H403 0.950 . S
C429 C428 1.414 . S
C429 C430 1.374 . S
C430 H404 0.950 . S
C430 C426 1.385 . S
C430 C429 1.374 . S
C431 C428 1.499 . S
C431 C432 1.373 . S
C431 C433 1.389 . S
C432 H405 0.950 . S
C432 C418 1.377 . S
C432 C431 1.373 . S
C433 C417 1.377 . S
C433 C431 1.389 . S
C433 C434 1.524 . S
C434 C433 1.524 . S
C434 C435 1.397 . S
C434 C439 1.363 . S
C435 H406 0.950 . S
C435 C434 1.397 . S
C435 C436 1.334 . S
C436 H407 0.950 . S
C436 C435 1.334 . S
C436 C437 1.287 . S
C437 C436 1.287 . S
C437 C438 1.524 . S
C437 H440 0.999 . S
C438 H408 0.950 . S
C438 C437 1.524 . S
C438 C439 1.415 . S
C439 H409 0.950 . S
C439 C434 1.363 . S
C439 C438 1.415 . S
H440 C437 0.999 . S
H441 C422 0.913 . S
H442 C460 0.951 . S
H443 C462 0.951 1_455 S
H444 C464 0.950 . S
H445 C465 0.950 . S
H446 C467 0.950 . S
H447 C470 0.952 . S
H448 C471 0.950 . S
H449 C473 0.950 . S
H450 C474 0.950 . S
H451 C475 0.951 . S
H452 C477 0.951 . S
H453 C479 0.950 . S
H454 C480 0.950 . S
H455 C482 0.950 . S
H456 C485 0.950 . S
H457 C486 0.950 . S
H458 C488 0.950 . S
H459 C489 0.950 . S
C460 H442 0.951 . S
C460 C461 1.366 . S
C460 C462 1.388 . S
C461 C460 1.366 . S
C461 C465 1.385 . S
C462 H443 0.951 1_655 S
C462 C460 1.388 . S
C462 C463 1.366 . S
C463 C462 1.366 . S
C463 C464 1.414 . S
C463 C466 1.499 1_655 S
C464 H444 0.950 . S
C464 C463 1.414 . S
C464 C465 1.374 . S
C465 H445 0.950 . S
C465 C461 1.385 . S
C465 C464 1.374 . S
C466 C463 1.499 1_455 S
C466 C467 1.373 . S
C466 C468 1.389 . S
C467 H446 0.950 . S
C467 C466 1.373 . S
C467 C483 1.377 . S
C468 C466 1.389 . S
C468 C469 1.524 . S
C468 C482 1.377 . S
C469 C468 1.524 . S
C469 C470 1.391 1_455 S
C469 C474 1.363 . S
C470 H447 0.952 . S
C470 C469 1.391 1_655 S
C470 C471 1.337 . S
C471 H448 0.950 . S
C471 C470 1.337 . S
C471 C472 1.287 . S
C472 C471 1.287 . S
C472 C473 1.524 1_655 S
C472 H491 0.913 . S
C473 H449 0.950 . S
C473 C472 1.524 1_455 S
C473 C474 1.415 . S
C474 H450 0.950 . S
C474 C469 1.363 . S
C474 C473 1.415 . S
C475 H451 0.951 . S
C475 C476 1.366 . S
C475 C477 1.388 . S
C476 C475 1.366 . S
C476 C480 1.385 . S
C477 H452 0.951 . S
C477 C475 1.388 . S
C477 C478 1.366 . S
C478 C477 1.366 . S
C478 C479 1.414 . S
C478 C481 1.499 . S
C479 H453 0.950 . S
C479 C478 1.414 . S
C479 C480 1.374 . S
C480 H454 0.950 . S
C480 C476 1.385 . S
C480 C479 1.374 . S
C481 C478 1.499 . S
C481 C482 1.373 . S
C481 C483 1.389 . S
C482 H455 0.950 . S
C482 C468 1.377 . S
C482 C481 1.373 . S
C483 C467 1.377 . S
C483 C481 1.389 . S
C483 C484 1.524 . S
C484 C483 1.524 . S
C484 C485 1.397 . S
C484 C489 1.363 . S
C485 H456 0.950 . S
C485 C484 1.397 . S
C485 C486 1.334 . S
C486 H457 0.950 . S
C486 C485 1.334 . S
C486 C487 1.287 . S
C487 C486 1.287 . S
C487 C488 1.524 . S
C487 H490 0.999 . S
C488 H458 0.950 . S
C488 C487 1.524 . S
C488 C489 1.415 . S
C489 H459 0.950 . S
C489 C484 1.363 . S
C489 C488 1.415 . S
H490 C487 0.999 . S
H491 C472 0.913 . S
H492 C510 0.951 . S
H493 C512 0.951 . S
H494 C514 0.950 . S
H495 C515 0.950 . S
H496 C517 0.950 . S
H497 C520 0.950 . S
H498 C521 0.950 . S
H499 C523 0.950 . S
H500 C524 0.950 . S
H501 C525 0.951 . S
H502 C527 0.951 . S
H503 C529 0.950 . S
H504 C530 0.950 . S
H505 C532 0.950 . S
H506 C535 0.950 . S
H507 C536 0.950 . S
H508 C538 0.950 . S
H509 C539 0.950 . S
C510 H492 0.951 . S
C510 C511 1.366 . S
C510 C512 1.388 . S
C511 C510 1.366 . S
C511 C515 1.385 . S
C512 H493 0.951 . S
C512 C510 1.388 . S
C512 C513 1.366 . S
C513 C512 1.366 . S
C513 C514 1.414 . S
C513 C516 1.499 . S
C514 H494 0.950 . S
C514 C513 1.414 . S
C514 C515 1.374 . S
C515 H495 0.950 . S
C515 C511 1.385 . S
C515 C514 1.374 . S
C516 C513 1.499 . S
C516 C517 1.373 . S
C516 C518 1.389 . S
C517 H496 0.950 . S
C517 C516 1.373 . S
C517 C533 1.377 . S
C518 C516 1.389 . S
C518 C519 1.524 . S
C518 C532 1.377 . S
C519 C518 1.524 . S
C519 C520 1.397 . S
C519 C524 1.363 . S
C520 H497 0.950 . S
C520 C519 1.397 . S
C520 C521 1.334 . S
C521 H498 0.950 . S
C521 C520 1.334 . S
C521 C522 1.287 . S
C522 C521 1.287 . S
C522 C523 1.524 . S
C522 H541 0.913 . S
C523 H499 0.950 . S
C523 C522 1.524 . S
C523 C524 1.415 . S
C524 H500 0.950 . S
C524 C519 1.363 . S
C524 C523 1.415 . S
C525 H501 0.951 . S
C525 C526 1.366 . S
C525 C527 1.388 . S
C526 C525 1.366 . S
C526 C530 1.385 . S
C527 H502 0.951 . S
C527 C525 1.388 . S
C527 C528 1.366 . S
C528 C527 1.366 . S
C528 C529 1.414 . S
C528 C531 1.499 . S
C529 H503 0.950 . S
C529 C528 1.414 . S
C529 C530 1.374 . S
C530 H504 0.950 . S
C530 C526 1.385 . S
C530 C529 1.374 . S
C531 C528 1.499 . S
C531 C532 1.373 . S
C531 C533 1.389 . S
C532 H505 0.950 . S
C532 C518 1.377 . S
C532 C531 1.373 . S
C533 C517 1.377 . S
C533 C531 1.389 . S
C533 C534 1.524 . S
C534 C533 1.524 . S
C534 C535 1.397 . S
C534 C539 1.363 . S
C535 H506 0.950 . S
C535 C534 1.397 . S
C535 C536 1.334 . S
C536 H507 0.950 . S
C536 C535 1.334 . S
C536 C537 1.287 . S
C537 C536 1.287 . S
C537 C538 1.524 . S
C537 H540 0.999 . S
C538 H508 0.950 . S
C538 C537 1.524 . S
C538 C539 1.415 . S
C539 H509 0.950 . S
C539 C534 1.363 . S
C539 C538 1.415 . S
H540 C537 0.999 . S
H541 C522 0.913 . S
H542 C560 0.951 . S
H543 C562 0.951 . S
H544 C564 0.950 . S
H545 C565 0.950 . S
H546 C567 0.950 . S
H547 C570 0.938 1_455 S
H548 C571 0.950 1_455 S
H549 C573 0.950 . S
H550 C574 0.950 . S
H551 C575 0.951 . S
H552 C577 0.951 . S
H553 C579 0.950 . S
H554 C580 0.950 . S
H555 C582 0.950 . S
H556 C585 0.950 . S
H557 C586 0.950 1_655 S
H558 C588 0.950 . S
H559 C589 0.950 . S
C560 H542 0.951 . S
C560 C561 1.366 . S
C560 C562 1.388 . S
C561 C560 1.366 . S
C561 C565 1.385 . S
C562 H543 0.951 . S
C562 C560 1.388 . S
C562 C563 1.366 . S
C563 C562 1.366 . S
C563 C564 1.414 . S
C563 C566 1.499 . S
C564 H544 0.950 . S
C564 C563 1.414 . S
C564 C565 1.374 . S
C565 H545 0.950 . S
C565 C561 1.385 . S
C565 C564 1.374 . S
C566 C563 1.499 . S
C566 C567 1.373 . S
C566 C568 1.389 1_455 S
C567 H546 0.950 . S
C567 C566 1.373 . S
C567 C583 1.377 . S
C568 C566 1.389 1_655 S
C568 C569 1.524 . S
C568 C582 1.377 . S
C569 C568 1.524 . S
C569 C570 1.405 . S
C569 C574 1.363 . S
C570 H547 0.938 1_655 S
C570 C569 1.405 . S
C570 C571 1.337 . S
C571 H548 0.950 1_655 S
C571 C570 1.337 . S
C571 C572 1.287 . S
C572 C571 1.287 . S
C572 C573 1.524 . S
C572 H591 0.913 . S
C573 H549 0.950 . S
C573 C572 1.524 . S
C573 C574 1.415 . S
C574 H550 0.950 . S
C574 C569 1.363 . S
C574 C573 1.415 . S
C575 H551 0.951 . S
C575 C576 1.366 . S
C575 C577 1.388 . S
C576 C575 1.366 . S
C576 C580 1.385 . S
C577 H552 0.951 . S
C577 C575 1.388 . S
C577 C578 1.366 . S
C578 C577 1.366 . S
C578 C579 1.414 . S
C578 C581 1.499 . S
C579 H553 0.950 . S
C579 C578 1.414 . S
C579 C580 1.374 . S
C580 H554 0.950 . S
C580 C576 1.385 . S
C580 C579 1.374 . S
C581 C578 1.499 . S
C581 C582 1.373 . S
C581 C583 1.389 1_655 S
C582 H555 0.950 . S
C582 C568 1.377 . S
C582 C581 1.373 . S
C583 C567 1.377 . S
C583 C581 1.389 1_455 S
C583 C584 1.524 . S
C584 C583 1.524 . S
C584 C585 1.397 1_455 S
C584 C589 1.363 . S
C585 H556 0.950 . S
C585 C584 1.397 1_655 S
C585 C586 1.334 1_655 S
C586 H557 0.950 1_455 S
C586 C585 1.334 1_455 S
C586 C587 1.287 . S
C587 C586 1.287 . S
C587 C588 1.524 . S
C587 H590 0.999 . S
C588 H558 0.950 . S
C588 C587 1.524 . S
C588 C589 1.415 . S
C589 H559 0.950 . S
C589 C584 1.363 . S
C589 C588 1.415 . S
H590 C587 0.999 . S
H591 C572 0.913 . S
H592 C610 0.951 . S
H593 C612 0.951 . S
H594 C614 0.950 . S
H595 C615 0.950 . S
H596 C617 0.950 . S
H597 C620 0.950 1_565 S
H598 C621 0.950 . S
H599 C623 0.950 . S
H600 C624 0.950 . S
H601 C625 0.951 . S
H602 C627 0.951 . S
H603 C629 0.950 . S
H604 C630 0.950 . S
H605 C632 0.950 . S
H606 C635 0.950 . S
H607 C636 0.950 . S
H608 C638 0.950 . S
H609 C639 0.950 . S
C610 H592 0.951 . S
C610 C611 1.366 . S
C610 C612 1.388 . S
C611 C610 1.366 . S
C611 C615 1.385 . S
C612 H593 0.951 . S
C612 C610 1.388 . S
C612 C613 1.366 . S
C613 C612 1.366 . S
C613 C614 1.414 . S
C613 C616 1.477 1_545 S
C614 H594 0.950 . S
C614 C613 1.414 . S
C614 C615 1.374 . S
C615 H595 0.950 . S
C615 C611 1.385 . S
C615 C614 1.374 . S
C616 C613 1.477 1_565 S
C616 C617 1.387 . S
C616 C618 1.397 . S
C617 H596 0.950 . S
C617 C616 1.387 . S
C617 C633 1.377 . S
C618 C616 1.397 . S
C618 C619 1.524 1_565 S
C618 C632 1.377 . S
C619 C618 1.524 1_545 S
C619 C620 1.397 . S
C619 C624 1.363 . S
C620 H597 0.950 1_545 S
C620 C619 1.397 . S
C620 C621 1.334 . S
C621 H598 0.950 . S
C621 C620 1.334 . S
C621 C622 1.287 . S
C622 C621 1.287 . S
C622 C623 1.524 . S
C622 H641 0.913 . S
C623 H599 0.950 . S
C623 C622 1.524 . S
C623 C624 1.415 . S
C624 H600 0.950 . S
C624 C619 1.363 . S
C624 C623 1.415 . S
C625 H601 0.951 . S
C625 C626 1.366 . S
C625 C627 1.388 . S
C626 C625 1.366 . S
C626 C630 1.385 . S
C627 H602 0.951 . S
C627 C625 1.388 . S
C627 C628 1.366 . S
C628 C627 1.366 . S
C628 C629 1.414 . S
C628 C631 1.499 . S
C629 H603 0.950 . S
C629 C628 1.414 . S
C629 C630 1.374 . S
C630 H604 0.950 . S
C630 C626 1.385 . S
C630 C629 1.374 . S
C631 C628 1.499 . S
C631 C632 1.373 . S
C631 C633 1.389 . S
C632 H605 0.950 . S
C632 C618 1.377 . S
C632 C631 1.373 . S
C633 C617 1.377 . S
C633 C631 1.389 . S
C633 C634 1.524 . S
C634 C633 1.524 . S
C634 C635 1.397 . S
C634 C639 1.363 . S
C635 H606 0.950 . S
C635 C634 1.397 . S
C635 C636 1.334 . S
C636 H607 0.950 . S
C636 C635 1.334 . S
C636 C637 1.287 . S
C637 C636 1.287 . S
C637 C638 1.524 . S
C637 H640 0.999 . S
C638 H608 0.950 . S
C638 C637 1.524 . S
C638 C639 1.415 . S
C639 H609 0.950 . S
C639 C634 1.363 . S
C639 C638 1.415 . S
H640 C637 0.999 . S
H641 C622 0.913 . S
H642 C660 0.951 . S
H643 C662 0.951 . S
H644 C664 0.950 . S
H645 C665 0.950 . S
H646 C667 0.950 . S
H647 C670 0.950 . S
H648 C671 0.950 . S
H649 C673 0.950 . S
H650 C674 0.950 . S
H651 C675 0.951 . S
H652 C677 0.951 . S
H653 C679 0.950 . S
H654 C680 0.950 . S
H655 C682 0.950 . S
H656 C685 0.950 . S
H657 C686 0.950 . S
H658 C688 0.950 . S
H659 C689 0.950 . S
C660 H642 0.951 . S
C660 C661 1.366 . S
C660 C662 1.388 . S
C661 C660 1.366 . S
C661 C665 1.385 . S
C662 H643 0.951 . S
C662 C660 1.388 . S
C662 C663 1.366 . S
C663 C662 1.366 . S
C663 C664 1.414 . S
C663 C666 1.499 . S
C664 H644 0.950 . S
C664 C663 1.414 . S
C664 C665 1.374 . S
C665 H645 0.950 . S
C665 C661 1.385 . S
C665 C664 1.374 . S
C666 C663 1.499 . S
C666 C667 1.373 . S
C666 C668 1.389 . S
C667 H646 0.950 . S
C667 C666 1.373 . S
C667 C683 1.377 . S
C668 C666 1.389 . S
C668 C669 1.524 . S
C668 C682 1.377 . S
C669 C668 1.524 . S
C669 C670 1.397 . S
C669 C674 1.363 . S
C670 H647 0.950 . S
C670 C669 1.397 . S
C670 C671 1.334 . S
C671 H648 0.950 . S
C671 C670 1.334 . S
C671 C672 1.287 . S
C672 C671 1.287 . S
C672 C673 1.524 . S
C672 H691 0.913 . S
C673 H649 0.950 . S
C673 C672 1.524 . S
C673 C674 1.415 . S
C674 H650 0.950 . S
C674 C669 1.363 . S
C674 C673 1.415 . S
C675 H651 0.951 . S
C675 C676 1.366 . S
C675 C677 1.388 . S
C676 C675 1.366 . S
C676 C680 1.385 . S
C677 H652 0.951 . S
C677 C675 1.388 . S
C677 C678 1.366 . S
C678 C677 1.366 . S
C678 C679 1.414 . S
C678 C681 1.499 . S
C679 H653 0.950 . S
C679 C678 1.414 . S
C679 C680 1.374 . S
C680 H654 0.950 . S
C680 C676 1.385 . S
C680 C679 1.374 . S
C681 C678 1.499 . S
C681 C682 1.373 . S
C681 C683 1.389 . S
C682 H655 0.950 . S
C682 C668 1.377 . S
C682 C681 1.373 . S
C683 C667 1.377 . S
C683 C681 1.389 . S
C683 C684 1.524 . S
C684 C683 1.524 . S
C684 C685 1.397 . S
C684 C689 1.363 . S
C685 H656 0.950 . S
C685 C684 1.397 . S
C685 C686 1.334 . S
C686 H657 0.950 . S
C686 C685 1.334 . S
C686 C687 1.287 . S
C687 C686 1.287 . S
C687 C688 1.524 . S
C687 H690 0.999 . S
C688 H658 0.950 . S
C688 C687 1.524 . S
C688 C689 1.415 . S
C689 H659 0.950 . S
C689 C684 1.363 . S
C689 C688 1.415 . S
H690 C687 0.999 . S
H691 C672 0.913 . S
H692 C710 0.951 . S
H693 C712 0.951 . S
H694 C714 0.950 . S
H695 C715 0.950 . S
H696 C717 0.950 . S
H697 C720 0.950 . S
H698 C721 0.950 . S
H699 C723 0.950 . S
H700 C724 0.950 . S
H701 C725 0.951 . S
H702 C727 0.951 . S
H703 C729 0.950 . S
H704 C730 0.950 . S
H705 C732 0.950 . S
H706 C735 0.950 . S
H707 C736 0.950 . S
H708 C738 0.950 . S
H709 C739 0.950 . S
C710 H692 0.951 . S
C710 C711 1.366 . S
C710 C712 1.388 . S
C711 C710 1.366 . S
C711 C715 1.385 . S
C712 H693 0.951 . S
C712 C710 1.388 . S
C712 C713 1.366 . S
C713 C712 1.366 . S
C713 C714 1.414 . S
C713 C716 1.499 1_565 S
C714 H694 0.950 . S
C714 C713 1.414 . S
C714 C715 1.374 . S
C715 H695 0.950 . S
C715 C711 1.385 . S
C715 C714 1.374 . S
C716 C713 1.499 1_545 S
C716 C717 1.373 . S
C716 C718 1.389 . S
C717 H696 0.950 . S
C717 C716 1.373 . S
C717 C733 1.377 . S
C718 C716 1.389 . S
C718 C719 1.524 . S
C718 C732 1.377 . S
C719 C718 1.524 . S
C719 C720 1.397 . S
C719 C724 1.363 . S
C720 H697 0.950 . S
C720 C719 1.397 . S
C720 C721 1.334 1_556 S
C721 H698 0.950 . S
C721 C720 1.334 1_554 S
C721 C722 1.287 1_554 S
C722 C721 1.287 1_556 S
C722 C723 1.524 . S
C722 H741 0.913 1_556 S
C723 H699 0.950 . S
C723 C722 1.524 . S
C723 C724 1.415 . S
C724 H700 0.950 . S
C724 C719 1.363 . S
C724 C723 1.415 . S
C725 H701 0.951 . S
C725 C726 1.366 . S
C725 C727 1.388 . S
C726 C725 1.366 . S
C726 C730 1.385 . S
C727 H702 0.951 . S
C727 C725 1.388 . S
C727 C728 1.366 . S
C728 C727 1.366 . S
C728 C729 1.414 . S
C728 C731 1.499 . S
C729 H703 0.950 . S
C729 C728 1.414 . S
C729 C730 1.374 . S
C730 H704 0.950 . S
C730 C726 1.385 . S
C730 C729 1.374 . S
C731 C728 1.499 . S
C731 C732 1.373 . S
C731 C733 1.389 . S
C732 H705 0.950 . S
C732 C718 1.377 . S
C732 C731 1.373 . S
C733 C717 1.377 . S
C733 C731 1.389 . S
C733 C734 1.524 . S
C734 C733 1.524 . S
C734 C735 1.397 . S
C734 C739 1.363 . S
C735 H706 0.950 . S
C735 C734 1.397 . S
C735 C736 1.334 . S
C736 H707 0.950 . S
C736 C735 1.334 . S
C736 C737 1.287 . S
C737 C736 1.287 . S
C737 C738 1.524 . S
C737 H740 0.999 . S
C738 H708 0.950 . S
C738 C737 1.524 . S
C738 C739 1.415 . S
C739 H709 0.950 . S
C739 C734 1.363 . S
C739 C738 1.415 . S
H740 C737 0.999 . S
H741 C722 0.913 1_554 S
H742 C760 0.951 . S
H743 C762 0.951 . S
H744 C764 0.950 . S
H745 C765 0.950 . S
H746 C767 0.950 . S
H747 C770 0.950 . S
H748 C771 0.950 . S
H749 C773 0.950 . S
H750 C774 0.950 . S
H751 C775 0.951 . S
H752 C777 0.951 . S
H753 C779 0.950 . S
H754 C780 0.950 . S
H755 C782 0.950 . S
H756 C785 0.950 . S
H757 C786 0.950 . S
H758 C788 0.950 . S
H759 C789 0.950 . S
C760 H742 0.951 . S
C760 C761 1.366 . S
C760 C762 1.388 . S
C761 C760 1.366 . S
C761 C765 1.385 . S
C762 H743 0.951 . S
C762 C760 1.388 . S
C762 C763 1.366 . S
C763 C762 1.366 . S
C763 C764 1.414 . S
C763 C766 1.499 . S
C764 H744 0.950 . S
C764 C763 1.414 . S
C764 C765 1.374 . S
C765 H745 0.950 . S
C765 C761 1.385 . S
C765 C764 1.374 . S
C766 C763 1.499 . S
C766 C767 1.373 . S
C766 C768 1.389 . S
C767 H746 0.950 . S
C767 C766 1.373 . S
C767 C783 1.377 . S
C768 C766 1.389 . S
C768 C769 1.524 . S
C768 C782 1.377 . S
C769 C768 1.524 . S
C769 C770 1.397 . S
C769 C774 1.363 . S
C770 H747 0.950 . S
C770 C769 1.397 . S
C770 C771 1.334 . S
C771 H748 0.950 . S
C771 C770 1.334 . S
C771 C772 1.287 . S
C772 C771 1.287 . S
C772 C773 1.524 . S
C772 H791 0.913 . S
C773 H749 0.950 . S
C773 C772 1.524 . S
C773 C774 1.415 . S
C774 H750 0.950 . S
C774 C769 1.363 . S
C774 C773 1.415 . S
C775 H751 0.951 . S
C775 C776 1.366 . S
C775 C777 1.388 . S
C776 C775 1.366 . S
C776 C780 1.385 . S
C777 H752 0.951 . S
C777 C775 1.388 . S
C777 C778 1.366 . S
C778 C777 1.366 . S
C778 C779 1.414 . S
C778 C781 1.499 . S
C779 H753 0.950 . S
C779 C778 1.414 . S
C779 C780 1.374 . S
C780 H754 0.950 . S
C780 C776 1.385 . S
C780 C779 1.374 . S
C781 C778 1.499 . S
C781 C782 1.373 . S
C781 C783 1.389 . S
C782 H755 0.950 . S
C782 C768 1.377 . S
C782 C781 1.373 . S
C783 C767 1.377 . S
C783 C781 1.389 . S
C783 C784 1.524 . S
C784 C783 1.524 . S
C784 C785 1.397 . S
C784 C789 1.363 . S
C785 H756 0.950 . S
C785 C784 1.397 . S
C785 C786 1.334 . S
C786 H757 0.950 . S
C786 C785 1.334 . S
C786 C787 1.287 . S
C787 C786 1.287 . S
C787 C788 1.524 . S
C787 H790 0.999 . S
C788 H758 0.950 . S
C788 C787 1.524 . S
C788 C789 1.415 . S
C789 H759 0.950 . S
C789 C784 1.363 . S
C789 C788 1.415 . S
H790 C787 0.999 . S
H791 C772 0.913 . S
H792 C810 0.951 . S
H793 C812 0.951 . S
H794 C814 0.950 . S
H795 C815 0.950 . S
H796 C817 0.950 . S
H797 C820 0.950 . S
H798 C821 0.950 . S
H799 C823 0.950 . S
H800 C824 0.950 . S
H801 C825 0.951 . S
H802 C827 0.951 . S
H803 C829 0.950 . S
H804 C830 0.950 . S
H805 C832 0.950 . S
H806 C835 0.950 . S
H807 C836 0.950 . S
H808 C838 0.950 . S
H809 C839 0.950 . S
C810 H792 0.951 . S
C810 C811 1.366 . S
C810 C812 1.388 . S
C811 C810 1.366 . S
C811 C815 1.385 . S
C812 H793 0.951 . S
C812 C810 1.388 . S
C812 C813 1.366 . S
C813 C812 1.366 . S
C813 C814 1.414 . S
C813 C816 1.499 . S
C814 H794 0.950 . S
C814 C813 1.414 . S
C814 C815 1.374 . S
C815 H795 0.950 . S
C815 C811 1.385 . S
C815 C814 1.374 . S
C816 C813 1.499 . S
C816 C817 1.373 . S
C816 C818 1.389 . S
C817 H796 0.950 . S
C817 C816 1.373 . S
C817 C833 1.377 . S
C818 C816 1.389 . S
C818 C819 1.524 . S
C818 C832 1.377 . S
C819 C818 1.524 . S
C819 C820 1.397 . S
C819 C824 1.363 . S
C820 H797 0.950 . S
C820 C819 1.397 . S
C820 C821 1.334 . S
C821 H798 0.950 . S
C821 C820 1.334 . S
C821 C822 1.287 . S
C822 C821 1.287 . S
C822 C823 1.524 . S
C822 H841 0.913 . S
C823 H799 0.950 . S
C823 C822 1.524 . S
C823 C824 1.415 . S
C824 H800 0.950 . S
C824 C819 1.363 . S
C824 C823 1.415 . S
C825 H801 0.951 . S
C825 C826 1.366 . S
C825 C827 1.388 . S
C826 C825 1.366 . S
C826 C830 1.385 . S
C827 H802 0.951 . S
C827 C825 1.388 . S
C827 C828 1.366 . S
C828 C827 1.366 . S
C828 C829 1.414 . S
C828 C831 1.499 . S
C829 H803 0.950 . S
C829 C828 1.414 . S
C829 C830 1.374 . S
C830 H804 0.950 . S
C830 C826 1.385 . S
C830 C829 1.374 . S
C831 C828 1.499 . S
C831 C832 1.373 . S
C831 C833 1.389 . S
C832 H805 0.950 . S
C832 C818 1.377 . S
C832 C831 1.373 . S
C833 C817 1.377 . S
C833 C831 1.389 . S
C833 C834 1.524 . S
C834 C833 1.524 . S
C834 C835 1.397 . S
C834 C839 1.363 . S
C835 H806 0.950 . S
C835 C834 1.397 . S
C835 C836 1.334 . S
C836 H807 0.950 . S
C836 C835 1.334 . S
C836 C837 1.287 . S
C837 C836 1.287 . S
C837 C838 1.524 . S
C837 H840 0.999 . S
C838 H808 0.950 . S
C838 C837 1.524 . S
C838 C839 1.415 . S
C839 H809 0.950 . S
C839 C834 1.363 . S
C839 C838 1.415 . S
H840 C837 0.999 . S
H841 C822 0.913 . S
H842 C860 0.951 . S
H843 C862 0.951 1_655 S
H844 C864 0.950 . S
H845 C865 0.950 . S
H846 C867 0.950 . S
H847 C870 0.950 . S
H848 C871 0.950 1_455 S
H849 C873 0.950 . S
H850 C874 0.950 . S
H851 C875 0.951 . S
H852 C877 0.951 . S
H853 C879 0.950 . S
H854 C880 0.950 . S
H855 C882 0.950 . S
H856 C885 0.950 . S
H857 C886 0.950 . S
H858 C888 0.950 . S
H859 C889 0.950 . S
C860 H842 0.951 . S
C860 C861 1.366 . S
C860 C862 1.388 . S
C861 C860 1.366 . S
C861 C865 1.385 . S
C862 H843 0.951 1_455 S
C862 C860 1.388 . S
C862 C863 1.367 . S
C863 C862 1.367 . S
C863 C864 1.435 . S
C863 C866 1.477 1_455 S
C864 H844 0.950 . S
C864 C863 1.435 . S
C864 C865 1.374 . S
C865 H845 0.950 . S
C865 C861 1.385 . S
C865 C864 1.374 . S
C866 C863 1.477 1_655 S
C866 C867 1.373 . S
C866 C868 1.389 . S
C867 H846 0.950 . S
C867 C866 1.373 . S
C867 C883 1.377 . S
C868 C866 1.389 . S
C868 C869 1.524 . S
C868 C882 1.377 . S
C869 C868 1.524 . S
C869 C870 1.397 . S
C869 C874 1.363 . S
C870 H847 0.950 . S
C870 C869 1.397 . S
C870 C871 1.334 . S
C871 H848 0.950 1_655 S
C871 C870 1.334 . S
C871 C872 1.287 . S
C872 C871 1.287 . S
C872 C873 1.524 . S
C872 H891 0.913 . S
C873 H849 0.950 . S
C873 C872 1.524 . S
C873 C874 1.415 . S
C874 H850 0.950 . S
C874 C869 1.363 . S
C874 C873 1.415 . S
C875 H851 0.951 . S
C875 C876 1.366 . S
C875 C877 1.388 . S
C876 C875 1.366 . S
C876 C880 1.385 . S
C877 H852 0.951 . S
C877 C875 1.388 . S
C877 C878 1.366 . S
C878 C877 1.366 . S
C878 C879 1.414 . S
C878 C881 1.499 . S
C879 H853 0.950 . S
C879 C878 1.414 . S
C879 C880 1.374 . S
C880 H854 0.950 . S
C880 C876 1.385 . S
C880 C879 1.374 . S
C881 C878 1.499 . S
C881 C882 1.373 . S
C881 C883 1.389 . S
C882 H855 0.950 . S
C882 C868 1.377 . S
C882 C881 1.373 . S
C883 C867 1.377 . S
C883 C881 1.389 . S
C883 C884 1.524 . S
C884 C883 1.524 . S
C884 C885 1.397 . S
C884 C889 1.363 . S
C885 H856 0.950 . S
C885 C884 1.397 . S
C885 C886 1.334 . S
C886 H857 0.950 . S
C886 C885 1.334 . S
C886 C887 1.287 . S
C887 C886 1.287 . S
C887 C888 1.524 . S
C887 H890 0.999 . S
C888 H858 0.950 . S
C888 C887 1.524 . S
C888 C889 1.415 . S
C889 H859 0.950 . S
C889 C884 1.363 . S
C889 C888 1.415 . S
H890 C887 0.999 . S
H891 C872 0.913 . S
H892 C910 0.951 . S
H893 C912 0.951 . S
H894 C914 0.950 . S
H895 C915 0.950 . S
H896 C917 0.950 . S
H897 C920 0.950 . S
H898 C921 0.950 . S
H899 C923 0.950 . S
H900 C924 0.950 . S
H901 C925 0.951 . S
H902 C927 0.951 . S
H903 C929 0.950 . S
H904 C930 0.950 . S
H905 C932 0.950 . S
H906 C935 0.950 . S
H907 C936 0.950 . S
H908 C938 0.950 . S
H909 C939 0.950 . S
C910 H892 0.951 . S
C910 C911 1.366 . S
C910 C912 1.388 . S
C911 C910 1.366 . S
C911 C915 1.385 . S
C912 H893 0.951 . S
C912 C910 1.388 . S
C912 C913 1.366 . S
C913 C912 1.366 . S
C913 C914 1.414 . S
C913 C916 1.499 . S
C914 H894 0.950 . S
C914 C913 1.414 . S
C914 C915 1.374 . S
C915 H895 0.950 . S
C915 C911 1.385 . S
C915 C914 1.374 . S
C916 C913 1.499 . S
C916 C917 1.373 . S
C916 C918 1.389 . S
C917 H896 0.950 . S
C917 C916 1.373 . S
C917 C933 1.377 . S
C918 C916 1.389 . S
C918 C919 1.524 . S
C918 C932 1.377 . S
C919 C918 1.524 . S
C919 C920 1.397 . S
C919 C924 1.363 . S
C920 H897 0.950 . S
C920 C919 1.397 . S
C920 C921 1.334 . S
C921 H898 0.950 . S
C921 C920 1.334 . S
C921 C922 1.287 . S
C922 C921 1.287 . S
C922 C923 1.524 . S
C922 H941 0.913 . S
C923 H899 0.950 . S
C923 C922 1.524 . S
C923 C924 1.415 . S
C924 H900 0.950 . S
C924 C919 1.363 . S
C924 C923 1.415 . S
C925 H901 0.951 . S
C925 C926 1.366 . S
C925 C927 1.388 . S
C926 C925 1.366 . S
C926 C930 1.385 . S
C927 H902 0.951 . S
C927 C925 1.388 . S
C927 C928 1.366 . S
C928 C927 1.366 . S
C928 C929 1.414 . S
C928 C931 1.499 . S
C929 H903 0.950 . S
C929 C928 1.414 . S
C929 C930 1.374 . S
C930 H904 0.950 . S
C930 C926 1.385 . S
C930 C929 1.374 . S
C931 C928 1.499 . S
C931 C932 1.373 . S
C931 C933 1.389 . S
C932 H905 0.950 . S
C932 C918 1.377 . S
C932 C931 1.373 . S
C933 C917 1.377 . S
C933 C931 1.389 . S
C933 C934 1.524 . S
C934 C933 1.524 . S
C934 C935 1.397 . S
C934 C939 1.363 . S
C935 H906 0.950 . S
C935 C934 1.397 . S
C935 C936 1.334 . S
C936 H907 0.950 . S
C936 C935 1.334 . S
C936 C937 1.287 . S
C937 C936 1.287 . S
C937 C938 1.524 . S
C937 H940 0.999 . S
C938 H908 0.950 . S
C938 C937 1.524 . S
C938 C939 1.415 . S
C939 H909 0.950 . S
C939 C934 1.363 . S
C939 C938 1.415 . S
H940 C937 0.999 . S
H941 C922 0.913 . S
H942 C960 0.951 . S
H943 C962 0.951 . S
H944 C964 0.950 . S
H945 C965 0.950 . S
H946 C967 0.950 . S
H947 C970 0.959 . S
H948 C971 0.950 . S
H949 C973 0.950 . S
H950 C974 0.950 . S
H951 C975 0.951 . S
H952 C977 0.951 . S
H953 C979 0.950 . S
H954 C980 0.950 . S
H955 C982 0.950 . S
H956 C985 0.950 1_455 S
H957 C986 0.950 . S
H958 C988 0.950 . S
H959 C989 0.950 . S
C960 H942 0.951 . S
C960 C961 1.366 . S
C960 C962 1.388 . S
C961 C960 1.366 . S
C961 C965 1.385 . S
C962 H943 0.951 . S
C962 C960 1.388 . S
C962 C963 1.366 . S
C963 C962 1.366 . S
C963 C964 1.414 . S
C963 C966 1.499 . S
C964 H944 0.950 . S
C964 C963 1.414 . S
C964 C965 1.374 . S
C965 H945 0.950 . S
C965 C961 1.385 . S
C965 C964 1.374 . S
C966 C963 1.499 . S
C966 C967 1.373 . S
C966 C968 1.389 1_655 S
C967 H946 0.950 . S
C967 C966 1.373 . S
C967 C983 1.377 . S
C968 C966 1.389 1_455 S
C968 C969 1.524 . S
C968 C982 1.377 . S
C969 C968 1.524 . S
C969 C970 1.397 . S
C969 C974 1.363 . S
C970 H947 0.959 . S
C970 C969 1.397 . S
C970 C971 1.334 . S
C971 H948 0.950 . S
C971 C970 1.334 . S
C971 C972 1.287 . S
C972 C971 1.287 . S
C972 C973 1.524 . S
C972 H991 0.913 . S
C973 H949 0.950 . S
C973 C972 1.524 . S
C973 C974 1.415 . S
C974 H950 0.950 . S
C974 C969 1.363 . S
C974 C973 1.415 . S
C975 H951 0.951 . S
C975 C976 1.366 . S
C975 C977 1.388 . S
C976 C975 1.366 . S
C976 C980 1.385 . S
C977 H952 0.951 . S
C977 C975 1.388 . S
C977 C978 1.366 . S
C978 C977 1.366 . S
C978 C979 1.414 . S
C978 C981 1.499 . S
C979 H953 0.950 . S
C979 C978 1.414 . S
C979 C980 1.374 . S
C980 H954 0.950 . S
C980 C976 1.385 . S
C980 C979 1.374 . S
C981 C978 1.499 . S
C981 C982 1.373 . S
C981 C983 1.389 1_455 S
C982 H955 0.950 . S
C982 C968 1.377 . S
C982 C981 1.373 . S
C983 C967 1.377 . S
C983 C981 1.389 1_655 S
C983 C984 1.524 . S
C984 C983 1.524 . S
C984 C985 1.397 . S
C984 C989 1.363 . S
C985 H956 0.950 1_655 S
C985 C984 1.397 . S
C985 C986 1.334 . S
C986 H957 0.950 . S
C986 C985 1.334 . S
C986 C987 1.287 . S
C987 C986 1.287 . S
C987 C988 1.524 . S
C987 H990 0.999 . S
C988 H958 0.950 . S
C988 C987 1.524 . S
C988 C989 1.415 . S
C989 H959 0.950 . S
C989 C984 1.363 . S
C989 C988 1.415 . S
H990 C987 0.999 . S
H991 C972 0.913 . S
H992 C1010 0.951 . S
H993 C1012 0.951 . S
H994 C1014 0.950 . S
H995 C1015 0.950 . S
H996 C1017 0.950 . S
H997 C1020 0.950 . S
H998 C1021 0.950 . S
H999 C1023 0.950 . S
H1000 C1024 0.950 . S
H1001 C1025 0.951 . S
H1002 C1027 0.951 . S
H1003 C1029 0.950 . S
H1004 C1030 0.950 . S
H1005 C1032 0.950 . S
H1006 C1035 0.950 . S
H1007 C1036 0.950 . S
H1008 C1038 0.950 . S
H1009 C1039 0.950 . S
C1010 H992 0.951 . S
C1010 C1011 1.366 . S
C1010 C1012 1.388 . S
C1011 C1010 1.366 . S
C1011 C1015 1.385 . S
C1012 H993 0.951 . S
C1012 C1010 1.388 . S
C1012 C1013 1.366 . S
C1013 C1012 1.366 . S
C1013 C1014 1.414 . S
C1013 C1016 1.499 . S
C1014 H994 0.950 . S
C1014 C1013 1.414 . S
C1014 C1015 1.374 . S
C1015 H995 0.950 . S
C1015 C1011 1.385 . S
C1015 C1014 1.374 . S
C1016 C1013 1.499 . S
C1016 C1017 1.373 . S
C1016 C1018 1.389 . S
C1017 H996 0.950 . S
C1017 C1016 1.373 . S
C1017 C1033 1.377 . S
C1018 C1016 1.389 . S
C1018 C1019 1.524 . S
C1018 C1032 1.377 . S
C1019 C1018 1.524 . S
C1019 C1020 1.397 . S
C1019 C1024 1.363 . S
C1020 H997 0.950 . S
C1020 C1019 1.397 . S
C1020 C1021 1.334 . S
C1021 H998 0.950 . S
C1021 C1020 1.334 . S
C1021 C1022 1.287 . S
C1022 C1021 1.287 . S
C1022 C1023 1.524 . S
C1022 H1041 0.913 . S
C1023 H999 0.950 . S
C1023 C1022 1.524 . S
C1023 C1024 1.415 . S
C1024 H1000 0.950 . S
C1024 C1019 1.363 . S
C1024 C1023 1.415 . S
C1025 H1001 0.951 . S
C1025 C1026 1.366 . S
C1025 C1027 1.388 . S
C1026 C1025 1.366 . S
C1026 C1030 1.385 . S
C1027 H1002 0.951 . S
C1027 C1025 1.388 . S
C1027 C1028 1.366 . S
C1028 C1027 1.366 . S
C1028 C1029 1.414 . S
C1028 C1031 1.499 . S
C1029 H1003 0.950 . S
C1029 C1028 1.414 . S
C1029 C1030 1.374 . S
C1030 H1004 0.950 . S
C1030 C1026 1.385 . S
C1030 C1029 1.374 . S
C1031 C1028 1.499 . S
C1031 C1032 1.373 . S
C1031 C1033 1.389 . S
C1032 H1005 0.950 . S
C1032 C1018 1.377 . S
C1032 C1031 1.373 . S
C1033 C1017 1.377 . S
C1033 C1031 1.389 . S
C1033 C1034 1.524 . S
C1034 C1033 1.524 . S
C1034 C1035 1.397 . S
C1034 C1039 1.363 . S
C1035 H1006 0.950 . S
C1035 C1034 1.397 . S
C1035 C1036 1.334 . S
C1036 H1007 0.950 . S
C1036 C1035 1.334 . S
C1036 C1037 1.287 . S
C1037 C1036 1.287 . S
C1037 C1038 1.524 . S
C1037 H1040 0.999 . S
C1038 H1008 0.950 . S
C1038 C1037 1.524 . S
C1038 C1039 1.415 . S
C1039 H1009 0.950 . S
C1039 C1034 1.363 . S
C1039 C1038 1.415 . S
H1040 C1037 0.999 . S
H1041 C1022 0.913 . S
H1042 C1060 0.951 . S
H1043 C1062 0.951 . S
H1044 C1064 0.950 . S
H1045 C1065 0.950 . S
H1046 C1067 0.950 . S
H1047 C1070 0.950 . S
H1048 C1071 0.950 . S
H1049 C1073 0.950 . S
H1050 C1074 0.950 . S
H1051 C1075 0.951 . S
H1052 C1077 0.951 . S
H1053 C1079 0.950 . S
H1054 C1080 0.950 . S
H1055 C1082 0.950 . S
H1056 C1085 0.950 . S
H1057 C1086 0.950 . S
H1058 C1088 0.950 . S
H1059 C1089 0.950 . S
C1060 H1042 0.951 . S
C1060 C1061 1.366 . S
C1060 C1062 1.388 . S
C1061 C1060 1.366 . S
C1061 C1065 1.385 . S
C1062 H1043 0.951 . S
C1062 C1060 1.388 . S
C1062 C1063 1.366 . S
C1063 C1062 1.366 . S
C1063 C1064 1.414 . S
C1063 C1066 1.499 . S
C1064 H1044 0.950 . S
C1064 C1063 1.414 . S
C1064 C1065 1.374 . S
C1065 H1045 0.950 . S
C1065 C1061 1.385 . S
C1065 C1064 1.374 . S
C1066 C1063 1.499 . S
C1066 C1067 1.373 . S
C1066 C1068 1.389 . S
C1067 H1046 0.950 . S
C1067 C1066 1.373 . S
C1067 C1083 1.377 . S
C1068 C1066 1.389 . S
C1068 C1069 1.524 . S
C1068 C1082 1.377 . S
C1069 C1068 1.524 . S
C1069 C1070 1.397 . S
C1069 C1074 1.363 . S
C1070 H1047 0.950 . S
C1070 C1069 1.397 . S
C1070 C1071 1.334 . S
C1071 H1048 0.950 . S
C1071 C1070 1.334 . S
C1071 C1072 1.287 . S
C1072 C1071 1.287 . S
C1072 C1073 1.524 . S
C1072 H1091 0.913 . S
C1073 H1049 0.950 . S
C1073 C1072 1.524 . S
C1073 C1074 1.415 . S
C1074 H1050 0.950 . S
C1074 C1069 1.363 . S
C1074 C1073 1.415 . S
C1075 H1051 0.951 . S
C1075 C1076 1.366 . S
C1075 C1077 1.388 . S
C1076 C1075 1.366 . S
C1076 C1080 1.385 . S
C1077 H1052 0.951 . S
C1077 C1075 1.388 . S
C1077 C1078 1.366 . S
C1078 C1077 1.366 . S
C1078 C1079 1.414 . S
C1078 C1081 1.499 . S
C1079 H1053 0.950 . S
C1079 C1078 1.414 . S
C1079 C1080 1.374 . S
C1080 H1054 0.950 . S
C1080 C1076 1.385 . S
C1080 C1079 1.374 . S
C1081 C1078 1.499 . S
C1081 C1082 1.373 . S
C1081 C1083 1.389 . S
C1082 H1055 0.950 . S
C1082 C1068 1.377 . S
C1082 C1081 1.373 . S
C1083 C1067 1.377 . S
C1083 C1081 1.389 . S
C1083 C1084 1.524 . S
C1084 C1083 1.524 . S
C1084 C1085 1.397 . S
C1084 C1089 1.363 . S
C1085 H1056 0.950 . S
C1085 C1084 1.397 . S
C1085 C1086 1.334 . S
C1086 H1057 0.950 . S
C1086 C1085 1.334 . S
C1086 C1087 1.287 . S
C1087 C1086 1.287 . S
C1087 C1088 1.524 . S
C1087 H1090 0.999 . S
C1088 H1058 0.950 . S
C1088 C1087 1.524 . S
C1088 C1089 1.415 . S
C1089 H1059 0.950 . S
C1089 C1084 1.363 . S
C1089 C1088 1.415 . S
H1090 C1087 0.999 . S
H1091 C1072 0.913 . S
H1092 C1110 0.951 . S
H1093 C1112 0.951 . S
H1094 C1114 0.950 . S
H1095 C1115 0.950 . S
H1096 C1117 0.950 . S
H1097 C1120 0.950 . S
H1098 C1121 0.950 . S
H1099 C1123 0.950 . S
H1100 C1124 0.950 . S
H1101 C1125 0.951 . S
H1102 C1127 0.951 . S
H1103 C1129 0.950 . S
H1104 C1130 0.950 . S
H1105 C1132 0.950 . S
H1106 C1135 0.950 . S
H1107 C1136 0.950 . S
H1108 C1138 0.950 . S
H1109 C1139 0.950 . S
C1110 H1092 0.951 . S
C1110 C1111 1.366 . S
C1110 C1112 1.388 . S
C1111 C1110 1.366 . S
C1111 C1115 1.385 . S
C1112 H1093 0.951 . S
C1112 C1110 1.388 . S
C1112 C1113 1.366 . S
C1113 C1112 1.366 . S
C1113 C1114 1.414 . S
C1113 C1116 1.499 . S
C1114 H1094 0.950 . S
C1114 C1113 1.414 . S
C1114 C1115 1.374 . S
C1115 H1095 0.950 . S
C1115 C1111 1.385 . S
C1115 C1114 1.374 . S
C1116 C1113 1.499 . S
C1116 C1117 1.373 . S
C1116 C1118 1.389 . S
C1117 H1096 0.950 . S
C1117 C1116 1.373 . S
C1117 C1133 1.377 . S
C1118 C1116 1.389 . S
C1118 C1119 1.524 . S
C1118 C1132 1.377 . S
C1119 C1118 1.524 . S
C1119 C1120 1.397 . S
C1119 C1124 1.363 . S
C1120 H1097 0.950 . S
C1120 C1119 1.397 . S
C1120 C1121 1.334 . S
C1121 H1098 0.950 . S
C1121 C1120 1.334 . S
C1121 C1122 1.287 . S
C1122 C1121 1.287 . S
C1122 C1123 1.524 . S
C1122 H1141 0.913 . S
C1123 H1099 0.950 . S
C1123 C1122 1.524 . S
C1123 C1124 1.415 . S
C1124 H1100 0.950 . S
C1124 C1119 1.363 . S
C1124 C1123 1.415 . S
C1125 H1101 0.951 . S
C1125 C1126 1.366 . S
C1125 C1127 1.388 . S
C1126 C1125 1.366 . S
C1126 C1130 1.385 . S
C1127 H1102 0.951 . S
C1127 C1125 1.388 . S
C1127 C1128 1.366 . S
C1128 C1127 1.366 . S
C1128 C1129 1.414 . S
C1128 C1131 1.499 . S
C1129 H1103 0.950 . S
C1129 C1128 1.414 . S
C1129 C1130 1.374 . S
C1130 H1104 0.950 . S
C1130 C1126 1.385 . S
C1130 C1129 1.374 . S
C1131 C1128 1.499 . S
C1131 C1132 1.373 . S
C1131 C1133 1.389 . S
C1132 H1105 0.950 . S
C1132 C1118 1.377 . S
C1132 C1131 1.373 . S
C1133 C1117 1.377 . S
C1133 C1131 1.389 . S
C1133 C1134 1.524 . S
C1134 C1133 1.524 . S
C1134 C1135 1.397 . S
C1134 C1139 1.363 . S
C1135 H1106 0.950 . S
C1135 C1134 1.397 . S
C1135 C1136 1.334 . S
C1136 H1107 0.950 . S
C1136 C1135 1.334 . S
C1136 C1137 1.287 . S
C1137 C1136 1.287 . S
C1137 C1138 1.524 . S
C1137 H1140 0.999 . S
C1138 H1108 0.950 . S
C1138 C1137 1.524 . S
C1138 C1139 1.415 . S
C1139 H1109 0.950 . S
C1139 C1134 1.363 . S
C1139 C1138 1.415 . S
H1140 C1137 0.999 . S
H1141 C1122 0.913 . S
H1142 C1160 0.951 . S
H1143 C1162 0.951 . S
H1144 C1164 0.950 . S
H1145 C1165 0.950 . S
H1146 C1167 0.950 . S
H1147 C1170 0.950 . S
H1148 C1171 0.950 . S
H1149 C1173 0.950 . S
H1150 C1174 0.950 . S
H1151 C1175 0.951 . S
H1152 C1177 0.951 . S
H1153 C1179 0.950 . S
H1154 C1180 0.950 . S
H1155 C1182 0.950 . S
H1156 C1185 0.950 . S
H1157 C1186 0.950 . S
H1158 C1188 0.950 . S
H1159 C1189 0.950 . S
C1160 H1142 0.951 . S
C1160 C1161 1.366 . S
C1160 C1162 1.388 . S
C1161 C1160 1.366 . S
C1161 C1165 1.385 . S
C1162 H1143 0.951 . S
C1162 C1160 1.388 . S
C1162 C1163 1.366 . S
C1163 C1162 1.366 . S
C1163 C1164 1.414 . S
C1163 C1166 1.499 . S
C1164 H1144 0.950 . S
C1164 C1163 1.414 . S
C1164 C1165 1.374 . S
C1165 H1145 0.950 . S
C1165 C1161 1.385 . S
C1165 C1164 1.374 . S
C1166 C1163 1.499 . S
C1166 C1167 1.373 . S
C1166 C1168 1.389 . S
C1167 H1146 0.950 . S
C1167 C1166 1.373 . S
C1167 C1183 1.377 . S
C1168 C1166 1.389 . S
C1168 C1169 1.524 . S
C1168 C1182 1.377 . S
C1169 C1168 1.524 . S
C1169 C1170 1.397 . S
C1169 C1174 1.363 . S
C1170 H1147 0.950 . S
C1170 C1169 1.397 . S
C1170 C1171 1.334 . S
C1171 H1148 0.950 . S
C1171 C1170 1.334 . S
C1171 C1172 1.287 . S
C1172 C1171 1.287 . S
C1172 C1173 1.524 . S
C1172 H1191 0.913 . S
C1173 H1149 0.950 . S
C1173 C1172 1.524 . S
C1173 C1174 1.415 . S
C1174 H1150 0.950 . S
C1174 C1169 1.363 . S
C1174 C1173 1.415 . S
C1175 H1151 0.951 . S
C1175 C1176 1.366 . S
C1175 C1177 1.388 . S
C1176 C1175 1.366 . S
C1176 C1180 1.385 . S
C1177 H1152 0.951 . S
C1177 C1175 1.388 . S
C1177 C1178 1.366 . S
C1178 C1177 1.366 . S
C1178 C1179 1.414 . S
C1178 C1181 1.499 . S
C1179 H1153 0.950 . S
C1179 C1178 1.414 . S
C1179 C1180 1.374 . S
C1180 H1154 0.950 . S
C1180 C1176 1.385 . S
C1180 C1179 1.374 . S
C1181 C1178 1.499 . S
C1181 C1182 1.373 . S
C1181 C1183 1.389 . S
C1182 H1155 0.950 . S
C1182 C1168 1.377 . S
C1182 C1181 1.373 . S
C1183 C1167 1.377 . S
C1183 C1181 1.389 . S
C1183 C1184 1.524 . S
C1184 C1183 1.524 . S
C1184 C1185 1.397 . S
C1184 C1189 1.363 . S
C1185 H1156 0.950 . S
C1185 C1184 1.397 . S
C1185 C1186 1.334 . S
C1186 H1157 0.950 . S
C1186 C1185 1.334 . S
C1186 C1187 1.287 . S
C1187 C1186 1.287 . S
C1187 C1188 1.524 . S
C1187 H1190 0.999 . S
C1188 H1158 0.950 . S
C1188 C1187 1.524 . S
C1188 C1189 1.415 . S
C1189 H1159 0.950 . S
C1189 C1184 1.363 . S
C1189 C1188 1.415 . S
H1190 C1187 0.999 . S
H1191 C1172 0.913 . S
H1192 C1210 0.951 . S
H1193 C1212 0.951 . S
H1194 C1214 0.950 . S
H1195 C1215 0.950 . S
H1196 C1217 0.950 . S
H1197 C1220 0.950 . S
H1198 C1221 0.950 . S
H1199 C1223 0.950 . S
H1200 C1224 0.950 . S
H1201 C1225 0.951 . S
H1202 C1227 0.951 . S
H1203 C1229 0.950 . S
H1204 C1230 0.950 . S
H1205 C1232 0.950 . S
H1206 C1235 0.950 . S
H1207 C1236 0.950 . S
H1208 C1238 0.950 . S
H1209 C1239 0.950 . S
C1210 H1192 0.951 . S
C1210 C1211 1.366 . S
C1210 C1212 1.388 . S
C1211 C1210 1.366 . S
C1211 C1215 1.385 . S
C1212 H1193 0.951 . S
C1212 C1210 1.388 . S
C1212 C1213 1.366 . S
C1213 C1212 1.366 . S
C1213 C1214 1.414 . S
C1213 C1216 1.499 . S
C1214 H1194 0.950 . S
C1214 C1213 1.414 . S
C1214 C1215 1.374 . S
C1215 H1195 0.950 . S
C1215 C1211 1.385 . S
C1215 C1214 1.374 . S
C1216 C1213 1.499 . S
C1216 C1217 1.373 . S
C1216 C1218 1.389 . S
C1217 H1196 0.950 . S
C1217 C1216 1.373 . S
C1217 C1233 1.377 . S
C1218 C1216 1.389 . S
C1218 C1219 1.524 . S
C1218 C1232 1.377 . S
C1219 C1218 1.524 . S
C1219 C1220 1.397 . S
C1219 C1224 1.363 . S
C1220 H1197 0.950 . S
C1220 C1219 1.397 . S
C1220 C1221 1.334 . S
C1221 H1198 0.950 . S
C1221 C1220 1.334 . S
C1221 C1222 1.287 . S
C1222 C1221 1.287 . S
C1222 C1223 1.524 . S
C1222 H1241 0.913 . S
C1223 H1199 0.950 . S
C1223 C1222 1.524 . S
C1223 C1224 1.415 . S
C1224 H1200 0.950 . S
C1224 C1219 1.363 . S
C1224 C1223 1.415 . S
C1225 H1201 0.951 . S
C1225 C1226 1.366 . S
C1225 C1227 1.388 . S
C1226 C1225 1.366 . S
C1226 C1230 1.385 . S
C1227 H1202 0.951 . S
C1227 C1225 1.388 . S
C1227 C1228 1.366 . S
C1228 C1227 1.366 . S
C1228 C1229 1.414 . S
C1228 C1231 1.499 . S
C1229 H1203 0.950 . S
C1229 C1228 1.414 . S
C1229 C1230 1.374 . S
C1230 H1204 0.950 . S
C1230 C1226 1.385 . S
C1230 C1229 1.374 . S
C1231 C1228 1.499 . S
C1231 C1232 1.373 . S
C1231 C1233 1.389 . S
C1232 H1205 0.950 . S
C1232 C1218 1.377 . S
C1232 C1231 1.373 . S
C1233 C1217 1.377 . S
C1233 C1231 1.389 . S
C1233 C1234 1.524 . S
C1234 C1233 1.524 . S
C1234 C1235 1.397 . S
C1234 C1239 1.363 . S
C1235 H1206 0.950 . S
C1235 C1234 1.397 . S
C1235 C1236 1.334 . S
C1236 H1207 0.950 . S
C1236 C1235 1.334 . S
C1236 C1237 1.287 . S
C1237 C1236 1.287 . S
C1237 C1238 1.524 . S
C1237 H1240 0.999 . S
C1238 H1208 0.950 . S
C1238 C1237 1.524 . S
C1238 C1239 1.415 . S
C1239 H1209 0.950 . S
C1239 C1234 1.363 . S
C1239 C1238 1.415 . S
H1240 C1237 0.999 . S
H1241 C1222 0.913 . S
H1242 C1260 0.951 . S
H1243 C1262 0.951 . S
H1244 C1264 0.950 . S
H1245 C1265 0.950 . S
H1246 C1267 0.950 . S
H1247 C1270 0.950 . S
H1248 C1271 0.950 . S
H1249 C1273 0.950 . S
H1250 C1274 0.950 . S
H1251 C1275 0.951 . S
H1252 C1277 0.951 . S
H1253 C1279 0.950 . S
H1254 C1280 0.950 . S
H1255 C1282 0.950 . S
H1256 C1285 0.950 . S
H1257 C1286 0.950 . S
H1258 C1288 0.950 . S
H1259 C1289 0.950 . S
C1260 H1242 0.951 . S
C1260 C1261 1.366 . S
C1260 C1262 1.388 . S
C1261 C1260 1.366 . S
C1261 C1265 1.385 . S
C1262 H1243 0.951 . S
C1262 C1260 1.388 . S
C1262 C1263 1.366 . S
C1263 C1262 1.366 . S
C1263 C1264 1.414 . S
C1263 C1266 1.499 . S
C1264 H1244 0.950 . S
C1264 C1263 1.414 . S
C1264 C1265 1.374 . S
C1265 H1245 0.950 . S
C1265 C1261 1.385 . S
C1265 C1264 1.374 . S
C1266 C1263 1.499 . S
C1266 C1267 1.373 . S
C1266 C1268 1.389 . S
C1267 H1246 0.950 . S
C1267 C1266 1.373 . S
C1267 C1283 1.377 . S
C1268 C1266 1.389 . S
C1268 C1269 1.524 . S
C1268 C1282 1.377 . S
C1269 C1268 1.524 . S
C1269 C1270 1.397 . S
C1269 C1274 1.363 . S
C1270 H1247 0.950 . S
C1270 C1269 1.397 . S
C1270 C1271 1.334 . S
C1271 H1248 0.950 . S
C1271 C1270 1.334 . S
C1271 C1272 1.287 . S
C1272 C1271 1.287 . S
C1272 C1273 1.524 . S
C1272 H1291 0.913 . S
C1273 H1249 0.950 . S
C1273 C1272 1.524 . S
C1273 C1274 1.415 . S
C1274 H1250 0.950 . S
C1274 C1269 1.363 . S
C1274 C1273 1.415 . S
C1275 H1251 0.951 . S
C1275 C1276 1.366 . S
C1275 C1277 1.388 . S
C1276 C1275 1.366 . S
C1276 C1280 1.385 . S
C1277 H1252 0.951 . S
C1277 C1275 1.388 . S
C1277 C1278 1.366 . S
C1278 C1277 1.366 . S
C1278 C1279 1.414 . S
C1278 C1281 1.499 . S
C1279 H1253 0.950 . S
C1279 C1278 1.414 . S
C1279 C1280 1.374 . S
C1280 H1254 0.950 . S
C1280 C1276 1.385 . S
C1280 C1279 1.374 . S
C1281 C1278 1.499 . S
C1281 C1282 1.373 . S
C1281 C1283 1.389 . S
C1282 H1255 0.950 . S
C1282 C1268 1.377 . S
C1282 C1281 1.373 . S
C1283 C1267 1.377 . S
C1283 C1281 1.389 . S
C1283 C1284 1.524 . S
C1284 C1283 1.524 . S
C1284 C1285 1.397 . S
C1284 C1289 1.363 . S
C1285 H1256 0.950 . S
C1285 C1284 1.397 . S
C1285 C1286 1.334 . S
C1286 H1257 0.950 . S
C1286 C1285 1.334 . S
C1286 C1287 1.287 . S
C1287 C1286 1.287 . S
C1287 C1288 1.524 . S
C1287 H1290 0.999 . S
C1288 H1258 0.950 . S
C1288 C1287 1.524 . S
C1288 C1289 1.415 . S
C1289 H1259 0.950 . S
C1289 C1284 1.363 . S
C1289 C1288 1.415 . S
H1290 C1287 0.999 . S
H1291 C1272 0.913 . S
H1292 C1310 0.951 . S
H1293 C1312 0.951 . S
H1294 C1314 0.950 . S
H1295 C1315 0.950 . S
H1296 C1317 0.950 . S
H1297 C1320 0.950 . S
H1298 C1321 0.950 . S
H1299 C1323 0.950 . S
H1300 C1324 0.950 . S
H1301 C1325 0.951 . S
H1302 C1327 0.951 . S
H1303 C1329 0.950 . S
H1304 C1330 0.950 . S
H1305 C1332 0.950 . S
H1306 C1335 0.950 . S
H1307 C1336 0.950 . S
H1308 C1338 0.950 . S
H1309 C1339 0.950 . S
C1310 H1292 0.951 . S
C1310 C1311 1.366 . S
C1310 C1312 1.388 . S
C1311 C1310 1.366 . S
C1311 C1315 1.385 . S
C1312 H1293 0.951 . S
C1312 C1310 1.388 . S
C1312 C1313 1.366 . S
C1313 C1312 1.366 . S
C1313 C1314 1.414 . S
C1313 C1316 1.499 . S
C1314 H1294 0.950 . S
C1314 C1313 1.414 . S
C1314 C1315 1.374 . S
C1315 H1295 0.950 . S
C1315 C1311 1.385 . S
C1315 C1314 1.374 . S
C1316 C1313 1.499 . S
C1316 C1317 1.373 . S
C1316 C1318 1.389 . S
C1317 H1296 0.950 . S
C1317 C1316 1.373 . S
C1317 C1333 1.377 . S
C1318 C1316 1.389 . S
C1318 C1319 1.524 . S
C1318 C1332 1.377 . S
C1319 C1318 1.524 . S
C1319 C1320 1.397 . S
C1319 C1324 1.363 . S
C1320 H1297 0.950 . S
C1320 C1319 1.397 . S
C1320 C1321 1.334 . S
C1321 H1298 0.950 . S
C1321 C1320 1.334 . S
C1321 C1322 1.287 . S
C1322 C1321 1.287 . S
C1322 C1323 1.524 . S
C1322 H1341 0.913 . S
C1323 H1299 0.950 . S
C1323 C1322 1.524 . S
C1323 C1324 1.415 . S
C1324 H1300 0.950 . S
C1324 C1319 1.363 . S
C1324 C1323 1.415 . S
C1325 H1301 0.951 . S
C1325 C1326 1.366 . S
C1325 C1327 1.388 . S
C1326 C1325 1.366 . S
C1326 C1330 1.385 . S
C1327 H1302 0.951 . S
C1327 C1325 1.388 . S
C1327 C1328 1.366 . S
C1328 C1327 1.366 . S
C1328 C1329 1.414 . S
C1328 C1331 1.499 . S
C1329 H1303 0.950 . S
C1329 C1328 1.414 . S
C1329 C1330 1.374 . S
C1330 H1304 0.950 . S
C1330 C1326 1.385 . S
C1330 C1329 1.374 . S
C1331 C1328 1.499 . S
C1331 C1332 1.373 . S
C1331 C1333 1.389 . S
C1332 H1305 0.950 . S
C1332 C1318 1.377 . S
C1332 C1331 1.373 . S
C1333 C1317 1.377 . S
C1333 C1331 1.389 . S
C1333 C1334 1.524 . S
C1334 C1333 1.524 . S
C1334 C1335 1.397 . S
C1334 C1339 1.363 . S
C1335 H1306 0.950 . S
C1335 C1334 1.397 . S
C1335 C1336 1.334 . S
C1336 H1307 0.950 . S
C1336 C1335 1.334 . S
C1336 C1337 1.287 . S
C1337 C1336 1.287 . S
C1337 C1338 1.524 . S
C1337 H1340 0.999 . S
C1338 H1308 0.950 . S
C1338 C1337 1.524 . S
C1338 C1339 1.415 . S
C1339 H1309 0.950 . S
C1339 C1334 1.363 . S
C1339 C1338 1.415 . S
H1340 C1337 0.999 . S
H1341 C1322 0.913 . S
H1342 C1360 0.951 . S
H1343 C1362 0.951 . S
H1344 C1364 0.950 . S
H1345 C1365 0.950 . S
H1346 C1367 0.950 . S
H1347 C1370 0.950 . S
H1348 C1371 0.950 . S
H1349 C1373 0.950 . S
H1350 C1374 0.950 . S
H1351 C1375 0.951 . S
H1352 C1377 0.951 . S
H1353 C1379 0.950 . S
H1354 C1380 0.950 . S
H1355 C1382 0.950 . S
H1356 C1385 0.950 . S
H1357 C1386 0.950 . S
H1358 C1388 0.950 . S
H1359 C1389 0.950 . S
C1360 H1342 0.951 . S
C1360 C1361 1.366 . S
C1360 C1362 1.388 . S
C1361 C1360 1.366 . S
C1361 C1365 1.385 . S
C1362 H1343 0.951 . S
C1362 C1360 1.388 . S
C1362 C1363 1.366 . S
C1363 C1362 1.366 . S
C1363 C1364 1.414 . S
C1363 C1366 1.499 . S
C1364 H1344 0.950 . S
C1364 C1363 1.414 . S
C1364 C1365 1.374 . S
C1365 H1345 0.950 . S
C1365 C1361 1.385 . S
C1365 C1364 1.374 . S
C1366 C1363 1.499 . S
C1366 C1367 1.373 . S
C1366 C1368 1.389 . S
C1367 H1346 0.950 . S
C1367 C1366 1.373 . S
C1367 C1383 1.377 . S
C1368 C1366 1.389 . S
C1368 C1369 1.524 . S
C1368 C1382 1.377 . S
C1369 C1368 1.524 . S
C1369 C1370 1.397 . S
C1369 C1374 1.363 . S
C1370 H1347 0.950 . S
C1370 C1369 1.397 . S
C1370 C1371 1.334 . S
C1371 H1348 0.950 . S
C1371 C1370 1.334 . S
C1371 C1372 1.287 . S
C1372 C1371 1.287 . S
C1372 C1373 1.524 . S
C1372 H1391 0.913 . S
C1373 H1349 0.950 . S
C1373 C1372 1.524 . S
C1373 C1374 1.415 . S
C1374 H1350 0.950 . S
C1374 C1369 1.363 . S
C1374 C1373 1.415 . S
C1375 H1351 0.951 . S
C1375 C1376 1.366 . S
C1375 C1377 1.388 . S
C1376 C1375 1.366 . S
C1376 C1380 1.385 . S
C1377 H1352 0.951 . S
C1377 C1375 1.388 . S
C1377 C1378 1.366 . S
C1378 C1377 1.366 . S
C1378 C1379 1.414 . S
C1378 C1381 1.499 . S
C1379 H1353 0.950 . S
C1379 C1378 1.414 . S
C1379 C1380 1.374 . S
C1380 H1354 0.950 . S
C1380 C1376 1.385 . S
C1380 C1379 1.374 . S
C1381 C1378 1.499 . S
C1381 C1382 1.373 . S
C1381 C1383 1.389 . S
C1382 H1355 0.950 . S
C1382 C1368 1.377 . S
C1382 C1381 1.373 . S
C1383 C1367 1.377 . S
C1383 C1381 1.389 . S
C1383 C1384 1.524 . S
C1384 C1383 1.524 . S
C1384 C1385 1.397 . S
C1384 C1389 1.363 . S
C1385 H1356 0.950 . S
C1385 C1384 1.397 . S
C1385 C1386 1.334 . S
C1386 H1357 0.950 . S
C1386 C1385 1.334 . S
C1386 C1387 1.287 . S
C1387 C1386 1.287 . S
C1387 C1388 1.524 . S
C1387 H1390 0.999 . S
C1388 H1358 0.950 . S
C1388 C1387 1.524 . S
C1388 C1389 1.415 . S
C1389 H1359 0.950 . S
C1389 C1384 1.363 . S
C1389 C1388 1.415 . S
H1390 C1387 0.999 . S
H1391 C1372 0.913 . S
C211 C8 1.291 . S
C226 N93 1.310 . S
C261 C31 1.201 . S
C276 N106 1.218 . S
C311 C53 1.239 . S
C326 N115 1.262 . S
C376 N132 1.315 . S
C361 C74 1.290 . S
C426 N145 1.310 . S
C411 C26 1.292 . S
C461 C48 1.289 . S
C476 N154 1.320 . S
C511 C71 1.239 . S
C526 N167 1.262 . S
C561 C5 1.205 . S
C576 N184 1.221 . S
C611 C50 1.289 . S
C626 N180 1.313 . S
C676 N141 1.215 . S
C661 C70 1.196 . S
C726 N158 1.265 . S
C711 C4 1.243 . S
C761 C28 1.290 . S
C776 N171 1.317 . S
C826 N102 1.311 . S
C811 C73 1.289 . S
C861 C7 1.294 . S
C876 N119 1.320 . S
C926 N128 1.253 . S
C911 C30 1.236 . S
C976 N89 1.220 . S
C961 C52 1.197 . S
C1026 N168 1.323 . S
C1011 C9 1.317 . S
C1076 N181 1.325 . S
C1061 C29 1.314 . S
C1111 C51 1.310 . S
C1126 N142 1.318 . S
C1176 N155 1.324 . S
C1161 C75 1.320 . S
C1226 N116 1.327 . S
C1211 C27 1.321 . S
C1261 C49 1.315 . S
C1276 N129 1.319 . S
C1326 N90 1.325 . S
C1311 C72 1.313 . S
C1376 N103 1.323 . S
C1361 C6 1.312 . S
