# Generated by pormake.
# Topology pyr, (3,6)-cn, num edge types: 1
# Building blocks:
#     Node 0, Type 0, BuildingBlock: QEWDON_clean_linker_0, # of connection points: 3
#     Node 1, Type 0, BuildingBlock: QEWDON_clean_linker_0, # of connection points: 3
#     Node 2, Type 0, BuildingBlock: QEWDON_clean_linker_0, # of connection points: 3
#     Node 3, Type 0, BuildingBlock: QEWDON_clean_linker_0, # of connection points: 3
#     Node 4, Type 0, BuildingBlock: QEWDON_clean_linker_0, # of connection points: 3
#     Node 5, Type 0, BuildingBlock: QEWDON_clean_linker_0, # of connection points: 3
#     Node 6, Type 0, BuildingBlock: QEWDON_clean_linker_0, # of connection points: 3
#     Node 7, Type 0, BuildingBlock: QEWDON_clean_linker_0, # of connection points: 3
#     Node 8, Type 1, BuildingBlock: GEDQOX_clean_sbu_0, # of connection points: 6
#     Node 9, Type 1, BuildingBlock: GEDQOX_clean_sbu_0, # of connection points: 6
#     Node 10, Type 1, BuildingBlock: GEDQOX_clean_sbu_0, # of connection points: 6
#     Node 11, Type 1, BuildingBlock: GEDQOX_clean_sbu_0, # of connection points: 6
#     Edge 12, Type (0, 1), BuildingBlock: AJUNOK_clean_linker_0, # of connection points: 2
#     Edge 13, Type (0, 1), BuildingBlock: AJUNOK_clean_linker_0, # of connection points: 2
#     Edge 14, Type (0, 1), BuildingBlock: AJUNOK_clean_linker_0, # of connection points: 2
#     Edge 15, Type (0, 1), BuildingBlock: AJUNOK_clean_linker_0, # of connection points: 2
#     Edge 16, Type (0, 1), BuildingBlock: AJUNOK_clean_linker_0, # of connection points: 2
#     Edge 17, Type (0, 1), BuildingBlock: AJUNOK_clean_linker_0, # of connection points: 2
#     Edge 18, Type (0, 1), BuildingBlock: AJUNOK_clean_linker_0, # of connection points: 2
#     Edge 19, Type (0, 1), BuildingBlock: AJUNOK_clean_linker_0, # of connection points: 2
#     Edge 20, Type (0, 1), BuildingBlock: AJUNOK_clean_linker_0, # of connection points: 2
#     Edge 21, Type (0, 1), BuildingBlock: AJUNOK_clean_linker_0, # of connection points: 2
#     Edge 22, Type (0, 1), BuildingBlock: AJUNOK_clean_linker_0, # of connection points: 2
#     Edge 23, Type (0, 1), BuildingBlock: AJUNOK_clean_linker_0, # of connection points: 2
#     Edge 24, Type (0, 1), BuildingBlock: AJUNOK_clean_linker_0, # of connection points: 2
#     Edge 25, Type (0, 1), BuildingBlock: AJUNOK_clean_linker_0, # of connection points: 2
#     Edge 26, Type (0, 1), BuildingBlock: AJUNOK_clean_linker_0, # of connection points: 2
#     Edge 27, Type (0, 1), BuildingBlock: AJUNOK_clean_linker_0, # of connection points: 2
#     Edge 28, Type (0, 1), BuildingBlock: AJUNOK_clean_linker_0, # of connection points: 2
#     Edge 29, Type (0, 1), BuildingBlock: AJUNOK_clean_linker_0, # of connection points: 2
#     Edge 30, Type (0, 1), BuildingBlock: AJUNOK_clean_linker_0, # of connection points: 2
#     Edge 31, Type (0, 1), BuildingBlock: AJUNOK_clean_linker_0, # of connection points: 2
#     Edge 32, Type (0, 1), BuildingBlock: AJUNOK_clean_linker_0, # of connection points: 2
#     Edge 33, Type (0, 1), BuildingBlock: AJUNOK_clean_linker_0, # of connection points: 2
#     Edge 34, Type (0, 1), BuildingBlock: AJUNOK_clean_linker_0, # of connection points: 2
#     Edge 35, Type (0, 1), BuildingBlock: AJUNOK_clean_linker_0, # of connection points: 2
# Relax obj value: 0.293
# Max RMSD: 0.288
# Mean RMSD: 0.207
data_MOF--net-pyr--node1-GEDQOX_clean_sbu_0--node2-QEWDON_clean_linker_0--edge1-AJUNOK_clean_linker_0
_symmetry_space_group_name_H-M    P1
_symmetry_Int_Tables_number       1
_symmetry_cell_setting            triclinic
loop_
_symmetry_equiv_pos_as_xyz
'x, y, z'
_cell_length_a     30.084212
_cell_length_b     29.827471
_cell_length_c     29.580434
_cell_angle_alpha  91.211675
_cell_angle_beta   95.18581
_cell_angle_gamma 99.606374
loop_
_atom_site_label
_atom_site_type_symbol
_atom_site_fract_x
_atom_site_fract_y
_atom_site_fract_z
_atom_type_partial_charge
H0 H 0.30407 0.22741 0.16876 0.0
C1 C 0.28763 0.20923 0.19562 0.0
C2 C 0.30612 0.16848 0.21252 0.0
C3 C 0.25013 0.22848 0.21417 0.0
H4 H 0.29534 0.1186 0.26593 0.0
C5 C 0.28313 0.14784 0.25197 0.0
C6 C 0.24502 0.16332 0.27374 0.0
C7 C 0.23045 0.20268 0.25179 0.0
C8 C 0.23518 0.27949 0.20504 0.0
H9 H 0.20251 0.21509 0.26543 0.0
C10 C 0.21958 0.30664 0.16441 0.0
C11 C 0.20321 0.35285 0.16877 0.0
C12 C 0.23495 0.30307 0.24671 0.0
H13 H 0.24753 0.28945 0.27809 0.0
C14 C 0.21767 0.34324 0.25117 0.0
H15 H 0.22005 0.2923 0.13061 0.0
C16 C 0.20132 0.36602 0.21435 0.0
H17 H 0.18725 0.39599 0.22257 0.0
H18 H 0.21677 0.35742 0.28503 0.0
H19 H 0.41041 0.85392 0.88399 0.0
C20 C 0.42873 0.83542 0.8621 0.0
C21 C 0.4761 0.84544 0.86508 0.0
C22 C 0.40437 0.8026 0.83098 0.0
H23 H 0.53628 0.8263 0.83932 0.0
C24 C 0.49964 0.81989 0.83648 0.0
C25 C 0.47491 0.78568 0.80456 0.0
C26 C 0.42727 0.77894 0.80201 0.0
C27 C 0.35442 0.7933 0.82824 0.0
H28 H 0.40733 0.75445 0.77739 0.0
C29 C 0.32895 0.79729 0.78687 0.0
C30 C 0.28143 0.78987 0.78407 0.0
C31 C 0.33206 0.78129 0.86699 0.0
H32 H 0.35118 0.77796 0.89922 0.0
C33 C 0.28479 0.77322 0.86426 0.0
H34 H 0.34625 0.80802 0.75731 0.0
C35 C 0.25951 0.7777 0.8231 0.0
H36 H 0.22289 0.77195 0.82177 0.0
H37 H 0.2677 0.76387 0.8942 0.0
H38 H 0.8279 0.55384 0.94416 0.0
C39 C 0.80823 0.51976 0.94194 0.0
C40 C 0.82869 0.48282 0.95585 0.0
C41 C 0.76325 0.51292 0.92336 0.0
H42 H 0.81968 0.41022 0.96274 0.0
C43 C 0.80394 0.43855 0.95103 0.0
C44 C 0.75851 0.43125 0.93268 0.0
C45 C 0.73851 0.4686 0.91879 0.0
C46 C 0.74274 0.55171 0.9065 0.0
H47 H 0.70346 0.46316 0.90449 0.0
C48 C 0.7188 0.54789 0.86347 0.0
C49 C 0.69747 0.58327 0.84692 0.0
C50 C 0.74709 0.59243 0.93253 0.0
H51 H 0.76563 0.59619 0.96591 0.0
C52 C 0.72687 0.62841 0.91571 0.0
H53 H 0.71716 0.51726 0.84253 0.0
C54 C 0.70198 0.6239 0.87312 0.0
H55 H 0.68582 0.65177 0.86094 0.0
H56 H 0.73011 0.65966 0.93592 0.0
H57 H 0.89078 0.96399 0.2945 0.0
C58 C 0.86098 0.94627 0.30857 0.0
C59 C 0.86062 0.94245 0.3558 0.0
C60 C 0.82359 0.92513 0.27928 0.0
H61 H 0.82296 0.91256 0.40933 0.0
C62 C 0.82251 0.9177 0.3731 0.0
C63 C 0.78561 0.89578 0.34411 0.0
C64 C 0.78592 0.90008 0.29718 0.0
C65 C 0.82816 0.9189 0.23073 0.0
H66 H 0.75841 0.88128 0.27454 0.0
C67 C 0.84979 0.88355 0.21747 0.0
C68 C 0.85009 0.87162 0.1715 0.0
C69 C 0.80736 0.94364 0.19775 0.0
H70 H 0.78976 0.9706 0.20765 0.0
C71 C 0.80869 0.93291 0.15161 0.0
H72 H 0.86547 0.8644 0.24336 0.0
C73 C 0.82973 0.89685 0.13841 0.0
H74 H 0.82922 0.88812 0.10262 0.0
H75 H 0.79258 0.95193 0.12606 0.0
H76 H 0.91503 0.85926 0.92311 0.0
C77 C 0.92994 0.87483 0.89411 0.0
C78 C 0.9681 0.85527 0.87673 0.0
C79 C 0.90912 0.91251 0.87384 0.0
H80 H 1.01315 0.86551 0.8215 0.0
C81 C 0.98498 0.87719 0.83527 0.0
C82 C 0.96831 0.91501 0.81125 0.0
C83 C 0.93114 0.93089 0.8332 0.0
C84 C 0.86057 0.92978 0.88659 0.0
H85 H 0.91754 0.9584 0.81704 0.0
C86 C 0.83748 0.94107 0.92947 0.0
C87 C 0.7918 0.95922 0.9289 0.0
C88 C 0.83346 0.93609 0.84665 0.0
H89 H 0.8432 0.92687 0.81384 0.0
C90 C 0.79335 0.95393 0.84566 0.0
H91 H 0.8545 0.93588 0.96224 0.0
C92 C 0.77413 0.96568 0.88444 0.0
H93 H 0.7432 0.97975 0.87883 0.0
H94 H 0.77598 0.95866 0.81285 0.0
H95 H 0.73792 0.30674 0.42989 0.0
C96 C 0.72262 0.28473 0.40108 0.0
C97 C 0.74076 0.24526 0.39059 0.0
C98 C 0.68632 0.29716 0.37313 0.0
H99 H 0.73649 0.18878 0.34292 0.0
C100 C 0.72132 0.21778 0.35204 0.0
C101 C 0.68434 0.22838 0.32388 0.0
C102 C 0.66735 0.26829 0.33491 0.0
C103 C 0.67299 0.34354 0.37854 0.0
H104 H 0.63953 0.27744 0.31319 0.0
C105 C 0.6622 0.36254 0.42026 0.0
C106 C 0.65096 0.40727 0.42205 0.0
C107 C 0.6724 0.37012 0.33984 0.0
H108 H 0.68107 0.3574 0.30777 0.0
C109 C 0.66164 0.41367 0.34173 0.0
H110 H 0.66243 0.3429 0.45062 0.0
C111 C 0.65111 0.43203 0.38222 0.0
H112 H 0.64264 0.46596 0.38236 0.0
H113 H 0.66157 0.43346 0.31147 0.0
H114 H 0.4301 0.62792 0.26282 0.0
C115 C 0.4012 0.63499 0.24142 0.0
C116 C 0.40819 0.66419 0.20517 0.0
C117 C 0.35721 0.61631 0.25143 0.0
H118 H 0.37483 0.69134 0.14626 0.0
C119 C 0.37078 0.66904 0.17458 0.0
C120 C 0.32733 0.64657 0.18085 0.0
C121 C 0.3203 0.62141 0.21995 0.0
C122 C 0.35021 0.59436 0.29595 0.0
H123 H 0.28597 0.60719 0.22614 0.0
C124 C 0.38021 0.60894 0.33521 0.0
C125 C 0.3738 0.58882 0.37732 0.0
C126 C 0.31332 0.55935 0.29999 0.0
H127 H 0.29005 0.54642 0.27085 0.0
C128 C 0.30625 0.53991 0.34179 0.0
H129 H 0.409 0.63561 0.33311 0.0
C130 C 0.33611 0.55444 0.38013 0.0
H131 H 0.32988 0.53847 0.41203 0.0
H132 H 0.27764 0.51308 0.34439 0.0
H133 H 0.28982 0.26336 0.84598 0.0
C134 C 0.28054 0.23532 0.82112 0.0
C135 C 0.29501 0.24043 0.77768 0.0
C136 C 0.24893 0.19716 0.83058 0.0
H137 H 0.29207 0.20972 0.71089 0.0
C138 C 0.28112 0.20538 0.74474 0.0
C139 C 0.24924 0.16743 0.75332 0.0
C140 C 0.23382 0.16296 0.79673 0.0
C141 C 0.22276 0.19992 0.87008 0.0
H142 H 0.20665 0.13559 0.80269 0.0
C143 C 0.20168 0.23787 0.87468 0.0
C144 C 0.17509 0.24231 0.91028 0.0
C145 C 0.21655 0.16535 0.90146 0.0
H146 H 0.23203 0.13532 0.89807 0.0
C147 C 0.19061 0.16998 0.93788 0.0
H148 H 0.2058 0.26433 0.85 0.0
C149 C 0.17015 0.20858 0.94259 0.0
H150 H 0.15022 0.21185 0.97083 0.0
H151 H 0.18631 0.14359 0.96245 0.0
Nd152 Nd 0.10993 1.0002 0.52944 0.0
Nd153 Nd 0.06956 0.07506 0.53711 0.0
C154 C 0.13929 0.92355 0.51386 0.0
C155 C 0.15439 0.89042 0.54562 0.0
C156 C 0.12651 0.87131 0.57838 0.0
C157 C 0.14404 0.84733 0.61384 0.0
C158 C 0.18979 0.84226 0.61747 0.0
C159 C 0.217 0.85927 0.58337 0.0
C160 C 0.19934 0.88291 0.54762 0.0
C161 C 0.15263 0.05501 0.60148 0.0
C162 C 0.04825 0.99863 0.62393 0.0
C163 C 1.03211 0.15041 0.53265 0.0
C164 C 0.98629 0.16168 0.51895 0.0
C165 C 0.97419 0.20219 0.53509 0.0
C166 C 0.9335 0.21591 0.51802 0.0
C167 C 0.90395 0.18973 0.48388 0.0
C168 C 0.91549 0.14827 0.46905 0.0
C169 C 0.95601 0.13447 0.48629 0.0
C170 C 1.01008 1.00391 0.49307 0.0
C171 C 0.14314 0.07917 0.44948 0.0
O172 O 0.0961 0.92654 0.51082 0.0
O173 O 0.16561 0.96334 0.5157 0.0
O174 O 0.1428 1.01133 0.60179 0.0
O175 O 0.1408 0.06992 0.56333 0.0
O176 O 0.06444 0.97303 0.59289 0.0
O177 O 0.05107 0.04277 0.61201 0.0
O178 O 1.03843 0.12933 0.57036 0.0
O179 O 0.05217 0.13453 0.5002 0.0
O180 O 1.00214 0.02601 0.52839 0.0
O181 O 0.05042 1.01653 0.48486 0.0
O182 O 0.11558 0.10098 0.47278 0.0
O183 O 0.14692 0.03798 0.46584 0.0
H184 H 0.09176 0.87669 0.57803 0.0
H185 H 0.12226 0.83437 0.63952 0.0
H186 H 0.25262 0.85673 0.58571 0.0
H187 H 0.22157 0.89765 0.523 0.0
H188 H 0.99675 0.22386 0.56023 0.0
H189 H 0.9254 0.24731 0.53144 0.0
H190 H 0.89389 0.12705 0.44289 0.0
H191 H 0.96433 0.10309 0.473 0.0
Nd192 Nd 0.54953 0.03454 0.10977 0.0
Nd193 Nd 0.56026 0.07963 0.05896 0.0
C194 C 0.52629 0.96457 0.161 0.0
C195 C 0.53155 0.91837 0.17242 0.0
C196 C 0.55265 0.89096 0.145 0.0
C197 C 0.55092 0.8448 0.15404 0.0
C198 C 0.52802 0.82592 0.19049 0.0
C199 C 0.50906 0.85465 0.21886 0.0
C200 C 0.51116 0.9004 0.21007 0.0
C201 C 0.47806 0.09084 0.12956 0.0
C202 C 0.52129 0.98629 1.01239 0.0
C203 C 0.56761 0.15458 1.01158 0.0
C204 C 0.59587 0.18148 0.98073 0.0
C205 C 0.57575 0.20976 0.95098 0.0
C206 C 0.60261 0.24512 0.93099 0.0
C207 C 0.64989 0.25269 0.94085 0.0
C208 C 0.67016 0.22125 0.96672 0.0
C209 C 0.64324 0.18566 0.98647 0.0
C210 C 0.63469 0.0307 0.0358 0.0
C211 C 0.6112 0.11245 0.15935 0.0
O212 O 0.56034 0.99701 0.17259 0.0
O213 O 0.50478 0.97005 0.12172 0.0
O214 O 0.51103 0.08023 0.1565 0.0
O215 O 0.48797 0.07572 0.08988 0.0
O216 O 0.54214 0.9795 0.05149 0.0
O217 O 0.5138 0.02793 1.00782 0.0
O218 O 0.58563 0.15261 0.053 0.0
O219 O 0.54308 0.11627 0.99632 0.0
O220 O 0.60613 0.04802 1.00891 0.0
O221 O 0.62185 0.03831 0.07666 0.0
O222 O 0.58987 0.12754 0.12363 0.0
O223 O 0.60793 0.0687 0.15934 0.0
H224 H 0.56871 0.90475 0.11581 0.0
H225 H 0.56549 0.82349 0.13139 0.0
H226 H 0.4895 0.84135 0.24606 0.0
H227 H 0.49453 0.92123 0.23132 0.0
H228 H 0.53922 0.20686 0.94612 0.0
H229 H 0.5863 0.26879 0.91087 0.0
H230 H 0.70648 0.22657 0.97521 0.0
H231 H 0.65937 0.1639 1.00923 0.0
Nd232 Nd 0.51562 0.56393 0.6141 0.0
Nd233 Nd 0.59031 0.63213 0.5908 0.0
C234 C 0.43601 0.51636 0.62806 0.0
C235 C 0.41879 0.48307 0.66071 0.0
C236 C 0.37618 0.48386 0.6759 0.0
C237 C 0.35707 0.44934 0.70284 0.0
C238 C 0.38005 0.41315 0.71414 0.0
C239 C 0.42418 0.41435 0.70175 0.0
C240 C 0.44353 0.44921 0.67534 0.0
C241 C 0.59144 0.56256 0.67244 0.0
C242 C 0.53119 0.66624 0.66518 0.0
C243 C 0.66526 0.68473 0.57143 0.0
C244 C 0.67917 0.71025 0.53205 0.0
C245 C 0.65601 0.69942 0.48878 0.0
C246 C 0.66629 0.72745 0.45255 0.0
C247 C 0.69929 0.76675 0.45962 0.0
C248 C 0.72282 0.77691 0.5028 0.0
C249 C 0.71283 0.7488 0.53876 0.0
C250 C 0.51175 0.62708 0.53178 0.0
C251 C 0.58668 0.52651 0.5532 0.0
O252 O 0.44963 0.558 0.64371 0.0
O253 O 0.4627 0.50321 0.59999 0.0
O254 O 0.56199 0.52677 0.6594 0.0
O255 O 0.57877 0.59775 0.65687 0.0
O256 O 0.50056 0.63172 0.64712 0.0
O257 O 0.57288 0.67046 0.6536 0.0
O258 O 0.65892 0.64037 0.56699 0.0
O259 O 0.6336 0.69968 0.59171 0.0
O260 O 0.53788 0.66499 0.54464 0.0
O261 O 0.5288 0.59495 0.54805 0.0
O262 O 0.61342 0.56512 0.56726 0.0
O263 O 0.54379 0.51995 0.56183 0.0
H264 H 0.35705 0.51028 0.66563 0.0
H265 H 0.32349 0.44982 0.71312 0.0
H266 H 0.44268 0.38698 0.71018 0.0
H267 H 0.47697 0.44856 0.66475 0.0
H268 H 0.62933 0.67003 0.48335 0.0
H269 H 0.6478 0.71916 0.41947 0.0
H270 H 0.7488 0.80684 0.50874 0.0
H271 H 0.7306 0.75776 0.57209 0.0
Nd272 Nd 0.07961 0.61807 0.0604 0.0
Nd273 Nd 0.10206 0.58867 0.97833 0.0
C274 C 0.04239 0.63312 0.1355 0.0
C275 C 1.00591 0.65936 0.14044 0.0
C276 C 0.98236 0.67251 0.10118 0.0
C277 C 0.95279 0.70341 0.10399 0.0
C278 C 0.9467 0.72228 0.14622 0.0
C279 C 0.96874 0.70776 0.18591 0.0
C280 C 0.99846 0.67656 0.183 0.0
C281 C 0.16981 0.65024 0.05355 0.0
C282 C 0.05357 0.68816 0.97347 0.0
C283 C 0.13218 0.56517 0.90255 0.0
C284 C 0.1367 0.51778 0.89084 0.0
C285 C 0.17838 0.50307 0.9007 0.0
C286 C 0.18016 0.45668 0.90321 0.0
C287 C 0.14037 0.42422 0.89573 0.0
C288 C 0.09927 0.43874 0.88268 0.0
C289 C 0.09751 0.48497 0.87975 0.0
C290 C 1.01885 0.54458 0.99614 0.0
C291 C 0.12578 0.51622 0.06256 0.0
O292 O 1.03128 0.59516 0.11111 0.0
O293 O 0.07978 0.65752 0.12466 0.0
O294 O 0.14098 0.67571 0.06392 0.0
O295 O 0.14897 0.61107 0.04126 0.0
O296 O 0.04758 0.67675 1.01657 0.0
O297 O 0.07834 0.66115 0.95279 0.0
O298 O 0.15953 0.58499 0.93684 0.0
O299 O 0.09072 0.57228 0.90447 0.0
O300 O 0.04959 0.52431 0.98102 0.0
O301 O 1.03235 0.58696 1.00128 0.0
O302 O 0.12763 0.52478 1.01819 0.0
O303 O 0.10772 0.54746 0.08594 0.0
H304 H 0.98774 0.65986 0.06805 0.0
H305 H 0.93559 0.71345 0.07302 0.0
H306 H 0.96451 0.72205 0.21891 0.0
H307 H 1.01686 0.66731 0.21361 0.0
H308 H 0.20912 0.52742 0.90935 0.0
H309 H 0.21248 0.44622 0.91244 0.0
H310 H 0.06802 0.41454 0.87699 0.0
H311 H 0.06471 0.49488 0.87196 0.0
C312 C 0.18903 0.16187 0.34461 0.0
C313 C 0.21981 0.14068 0.31909 0.0
C314 C 0.16594 0.14326 0.38426 0.0
C315 C 0.1698 0.10032 0.40488 0.0
H316 H 0.18223 0.19476 0.33426 0.0
H317 H 0.14414 0.16376 0.3991 0.0
S318 S 0.24461 0.02659 0.35573 0.0
N319 N 0.25074 0.07039 0.32227 0.0
N320 N 0.2096 0.03738 0.39287 0.0
C321 C 0.20036 0.07851 0.3801 0.0
C322 C 0.22406 0.09755 0.33961 0.0
C323 C 0.48909 0.92745 0.89361 0.0
C324 C 0.49778 0.88265 0.89945 0.0
C325 C 0.49687 0.96057 0.92976 0.0
C326 C 0.51311 0.95049 0.97398 0.0
H327 H 0.47416 0.93641 0.86105 0.0
H328 H 0.48914 0.99413 0.9231 0.0
S329 S 0.54183 0.83838 1.00766 0.0
N330 N 0.52413 0.83046 0.95311 0.0
N331 N 0.53882 0.89183 1.02073 0.0
C332 C 0.52287 0.90601 0.98001 0.0
C333 C 0.51522 0.87247 0.94302 0.0
C334 C 0.67689 0.61065 0.76984 0.0
C335 C 0.67049 0.57705 0.80229 0.0
C336 C 0.65232 0.60472 0.72705 0.0
C337 C 0.6208 0.56491 0.71524 0.0
H338 H 0.70116 0.64162 0.7775 0.0
H339 H 0.65758 0.63179 0.70323 0.0
S340 S 0.59045 0.46746 0.78891 0.0
N341 N 0.62922 0.50334 0.8205 0.0
N342 N 0.58416 0.49153 0.73955 0.0
C343 C 0.61448 0.53078 0.74719 0.0
C344 C 0.63899 0.53709 0.79092 0.0
C345 C 0.861 0.79149 0.18304 0.0
C346 C 0.87098 0.83198 0.1595 0.0
C347 C 0.88502 0.75572 0.1779 0.0
C348 C 0.91945 0.75894 0.14859 0.0
H349 H 0.83519 0.78793 0.20663 0.0
H350 H 0.87702 0.72558 0.19741 0.0
S351 S 0.95757 0.8567 0.07785 0.0
N352 N 0.91679 0.87265 0.10491 0.0
N353 N 0.96161 0.80495 0.09459 0.0
C354 C 0.92857 0.79839 0.1234 0.0
C355 C 0.9043 0.835 0.1289 0.0
C356 C 0.36086 0.15057 0.14327 0.0
C357 C 0.34974 0.14841 0.19036 0.0
C358 C 0.39892 0.13235 0.12373 0.0
C359 C 0.43263 0.11 0.14849 0.0
H360 H 0.3391 0.16659 0.11994 0.0
H361 H 0.40204 0.13682 0.08788 0.0
S362 S 0.42529 0.09495 0.27371 0.0
N363 N 0.3814 0.12035 0.26042 0.0
N364 N 0.44917 0.08937 0.22628 0.0
C365 C 0.42227 0.10834 0.19558 0.0
C366 C 0.38315 0.12598 0.2152 0.0
C367 C 0.22359 0.82832 0.74223 0.0
C368 C 0.25513 0.79856 0.74135 0.0
C369 C 0.20164 0.84103 0.70201 0.0
C370 C 0.21023 0.82429 0.65936 0.0
H371 H 0.21714 0.84334 0.77416 0.0
H372 H 0.17904 0.86556 0.70431 0.0
S373 S 0.28614 0.7414 0.63908 0.0
N374 N 0.29144 0.74993 0.69481 0.0
N375 N 0.24975 0.77355 0.61896 0.0
C376 C 0.24039 0.79309 0.65812 0.0
C377 C 0.2629 0.78027 0.69916 0.0
C378 C 0.90829 0.47159 0.95116 0.0
C379 C 0.87673 0.49144 0.97343 0.0
C380 C 0.9548 0.48731 0.96067 0.0
C381 C 0.9708 0.52362 0.99231 0.0
H382 H 0.89693 0.44581 0.92432 0.0
H383 H 0.97806 0.47278 0.94121 0.0
S384 S 0.90163 0.58022 0.06568 0.0
N385 N 0.86438 0.54378 0.03308 0.0
N386 N 0.95174 0.57416 0.05018 0.0
C387 C 0.93959 0.5411 1.01711 0.0
C388 C 0.89246 0.52472 1.00791 0.0
C389 C 0.72977 0.87624 0.40032 0.0
C390 C 0.75153 0.8624 0.3637 0.0
C391 C 0.70937 0.84437 0.42932 0.0
C392 C 0.71013 0.79774 0.42256 0.0
H393 H 0.73163 0.91212 0.40857 0.0
H394 H 0.69552 0.85648 0.45894 0.0
S395 S 0.75842 0.74387 0.32876 0.0
N396 N 0.76912 0.79892 0.31973 0.0
N397 N 0.7304 0.73881 0.37442 0.0
C398 C 0.72819 0.78313 0.38384 0.0
C399 C 0.74902 0.81561 0.35426 0.0
C400 C 0.15218 0.38713 0.09692 0.0
C401 C 0.18763 0.39243 0.13417 0.0
C402 C 0.13371 0.42509 0.07403 0.0
C403 C 0.14665 0.47323 0.08659 0.0
H404 H 0.13714 0.35278 0.08556 0.0
H405 H 0.10734 0.41592 0.04644 0.0
S406 S 0.23995 0.51059 0.17845 0.0
N407 N 0.23664 0.45481 0.17767 0.0
N408 N 0.20071 0.52129 0.13945 0.0
C409 C 0.18214 0.47885 0.123 0.0
C410 C 0.2022 0.44081 0.14489 0.0
C411 C 0.68797 0.37972 0.94771 0.0
C412 C 0.73064 0.38531 0.9308 0.0
C413 C 0.66141 0.33679 0.9487 0.0
C414 C 0.67648 0.29766 0.93296 0.0
H415 H 0.67554 0.40862 0.96167 0.0
H416 H 0.62958 0.33406 0.96375 0.0
S417 S 0.78383 0.29419 0.88172 0.0
N418 N 0.78556 0.34857 0.89504 0.0
N419 N 0.73549 0.26724 0.89759 0.0
C420 C 0.71851 0.30272 0.91483 0.0
C421 C 0.74563 0.34669 0.9136 0.0
C422 C 0.89413 0.98399 0.42795 0.0
C423 C 0.9006 0.96058 0.38799 0.0
C424 C 0.92951 0.99667 0.46203 0.0
C425 C 0.97313 0.98705 0.45737 0.0
H426 H 0.86113 0.9921 0.4332 0.0
H427 H 0.92253 1.01467 0.49208 0.0
S428 S 1.008 0.92597 0.35966 0.0
N429 N 0.95376 0.9273 0.34601 0.0
N430 N 1.02105 0.95281 0.40975 0.0
C431 C 0.98042 0.96422 0.41738 0.0
C432 C 0.94404 0.95073 0.3827 0.0
C433 C 0.47528 0.70899 0.76569 0.0
C434 C 0.49558 0.75533 0.77316 0.0
C435 C 0.48655 0.68117 0.73077 0.0
C436 C 0.51987 0.6974 0.70191 0.0
H437 H 0.44922 0.69411 0.78644 0.0
H438 H 0.46896 0.64631 0.72657 0.0
S439 S 0.58665 0.81451 0.70827 0.0
N440 N 0.55248 0.81525 0.7489 0.0
N441 N 0.57537 0.76248 0.68506 0.0
C442 C 0.54241 0.74283 0.71032 0.0
C443 C 0.53009 0.77168 0.74544 0.0
C444 C 1.01196 0.91398 0.73126 0.0
C445 C 0.98903 0.93725 0.7635 0.0
C446 C 1.02962 0.93264 0.68874 0.0
C447 C 1.0278 0.97781 0.67198 0.0
H448 H 1.0162 0.87947 0.7385 0.0
H449 H 0.04555 0.91039 0.66845 0.0
S450 S 0.97456 0.05806 0.74074 0.0
N451 N 0.96846 1.01234 0.77162 0.0
N452 N 1.00022 0.04532 0.69633 0.0
C453 C 1.00565 1.00181 0.70401 0.0
C454 C 0.9872 0.98269 0.74713 0.0
C455 C 0.65419 0.21746 0.23989 0.0
C456 C 0.66496 0.19852 0.28213 0.0
C457 C 0.63751 0.18984 0.20036 0.0
C458 C 0.63103 0.14188 0.20096 0.0
H459 H 0.65924 0.25406 0.23711 0.0
H460 H 0.62973 0.20629 0.16903 0.0
S461 S 0.65028 0.07477 0.30344 0.0
N462 N 0.66465 0.12819 0.32214 0.0
N463 N 0.63499 0.07689 0.24865 0.0
C464 C 0.64122 0.12257 0.2431 0.0
C465 C 0.65768 0.1506 0.28328 0.0
C466 C 0.42215 0.56578 0.4432 0.0
C467 C 0.40789 0.60088 0.41758 0.0
C468 C 0.45492 0.5751 0.48036 0.0
C469 C 0.47536 0.61997 0.49361 0.0
H470 H 0.40855 0.53052 0.43395 0.0
H471 H 0.46478 0.54654 0.49847 0.0
S472 S 0.44891 0.72465 0.43957 0.0
N473 N 0.41552 0.68282 0.4095 0.0
N474 N 0.47812 0.70017 0.47901 0.0
C475 C 0.4612 0.65563 0.46887 0.0
C476 C 0.42741 0.64613 0.4309 0.0
C477 C 0.17205 0.31715 0.94715 0.0
C478 C 0.15495 0.28394 0.91286 0.0
C479 C 0.1655 0.36229 0.94221 0.0
C480 C 0.1418 0.37548 0.90278 0.0
H481 H 0.19339 0.30896 0.97626 0.0
H482 H 0.18062 0.3874 0.9686 0.0
S483 S 0.08633 0.29957 0.8057 0.0
N484 N 0.10965 0.26577 0.84064 0.0
N485 N 0.09818 0.35075 0.83069 0.0
C486 C 0.1218 0.34175 0.86986 0.0
C487 C 0.12814 0.29588 0.87512 0.0
C488 C 0.7626 1.00929 0.99997 0.0
C489 C 0.75593 0.97188 0.96624 0.0
C490 C 0.72627 0.02609 0.02384 0.0
C491 C 0.6778 1.0087 1.01662 0.0
H492 H 0.79674 0.02777 1.00719 0.0
H493 H 0.73678 0.05511 0.04719 0.0
S494 S 0.63687 0.91216 0.93187 0.0
N495 N 0.69215 0.91916 0.92921 0.0
N496 N 0.62822 0.95048 0.96966 0.0
C497 C 0.67097 0.97187 0.98298 0.0
C498 C 0.70764 0.95416 0.95975 0.0
C499 C 0.78188 0.18812 0.43147 0.0
C500 C 0.78161 0.23315 0.4179 0.0
C501 C 0.82092 0.17476 0.45348 0.0
C502 C 0.86185 0.20568 0.46289 0.0
H503 H 0.7516 0.16273 0.42465 0.0
H504 H 0.81899 0.13968 0.46301 0.0
S505 S 0.88006 0.32723 0.4323 0.0
N506 N 0.8264 0.30845 0.41466 0.0
N507 N 0.89958 0.28353 0.45528 0.0
C508 C 0.86193 0.25096 0.44974 0.0
C509 C 0.82203 0.26459 0.42751 0.0
C510 C 0.27375 0.61449 0.11445 0.0
C511 C 0.28933 0.65028 0.14645 0.0
C512 C 0.23731 0.61659 0.08193 0.0
C513 C 0.21473 0.65447 0.08041 0.0
H514 H 0.28944 0.58434 0.11504 0.0
H515 H 0.22545 0.58723 0.05916 0.0
S516 S 0.24685 0.75953 0.15382 0.0
N517 N 0.28302 0.72645 0.1723 0.0
N518 N 0.21398 0.73053 0.11161 0.0
C519 C 0.23192 0.69167 0.11075 0.0
C520 C 0.26928 0.68949 0.14373 0.0
C521 C 0.35718 0.30835 0.78482 0.0
C522 C 0.31566 0.28571 0.76354 0.0
C523 C 0.3774 0.35054 0.76973 0.0
C524 C 0.35628 0.3715 0.73343 0.0
H525 H 0.37456 0.29282 0.81242 0.0
H526 H 0.41003 0.36658 0.78607 0.0
S527 S 0.24548 0.32703 0.66889 0.0
N528 N 0.25256 0.2884 0.70677 0.0
N529 N 0.29093 0.36676 0.67757 0.0
C530 C 0.31397 0.3497 0.71305 0.0
C531 C 0.29355 0.30702 0.72835 0.0
C532 C 0.98578 0.79795 0.94745 0.0
C533 C 0.99004 0.81203 0.90109 0.0
C534 C 1.00538 0.76035 0.9695 0.0
C535 C 1.03212 0.7309 0.94852 0.0
H536 H 0.96685 0.81679 0.96815 0.0
H537 H 0.99906 0.75437 1.0045 0.0
S538 S 0.05411 0.74659 0.82663 0.0
N539 N 1.02413 0.787 0.83539 0.0
N540 N 0.05931 0.7207 0.8751 0.0
C541 C 1.03632 0.74401 0.90218 0.0
C542 C 1.01637 0.78227 0.87963 0.0
C543 C 0.46519 0.70914 0.15947 0.0
C544 C 0.45249 0.6947 0.20225 0.0
C545 C 0.49553 0.74956 0.1555 0.0
C546 C 0.51536 0.77598 0.19431 0.0
H547 H 0.44823 0.69168 0.12859 0.0
H548 H 0.49928 0.76245 0.12185 0.0
S549 S 0.50785 0.74428 0.31409 0.0
N550 N 0.47118 0.7048 0.28444 0.0
N551 N 0.53178 0.77777 0.27626 0.0
C552 C 0.51027 0.75705 0.23699 0.0
C553 C 0.47786 0.71707 0.24126 0.0
C554 C 0.2097 0.15734 0.67495 0.0
C555 C 0.22613 0.13763 0.71464 0.0
C556 C 0.18642 0.13038 0.63822 0.0
C557 C 0.17848 0.08282 0.63992 0.0
H558 H 0.21413 0.19391 0.67255 0.0
H559 H 0.17402 0.14704 0.60851 0.0
S560 S 0.21509 1.01453 0.73575 0.0
N561 N 0.23359 0.06788 0.75317 0.0
N562 N 0.18915 1.01688 0.68444 0.0
C563 C 0.19476 0.0626 0.67938 0.0
C564 C 0.21866 0.09013 0.7167 0.0
C565 C 0.66495 0.47173 0.4809 0.0
C566 C 0.63825 0.43041 0.46367 0.0
C567 C 0.6488 0.5013 0.51107 0.0
C568 C 0.6047 0.49154 0.52519 0.0
H569 H 0.69799 0.48245 0.46908 0.0
H570 H 0.67061 0.53308 0.52182 0.0
S571 S 0.52166 0.38645 0.49168 0.0
N572 N 0.56609 0.38046 0.46456 0.0
N573 N 0.53553 0.43537 0.52093 0.0
C574 C 0.5783 0.44929 0.50965 0.0
C575 C 0.59503 0.41903 0.47909 0.0
loop_
_geom_bond_atom_site_label_1
_geom_bond_atom_site_label_2
_geom_bond_distance
_geom_bond_site_symmetry_2
_ccdc_geom_bond_type
H0 C1 0.949 . S
C1 H0 0.949 . S
C1 C2 1.395 . S
C1 C3 1.391 . S
C2 C1 1.395 . S
C2 C5 1.390 . S
C3 C1 1.391 . S
C3 C7 1.387 . S
C3 C8 1.491 . S
H4 C5 0.950 . S
C5 C2 1.390 . S
C5 H4 0.950 . S
C5 C6 1.378 . S
C6 C5 1.378 . S
C6 C7 1.409 . S
C7 C3 1.387 . S
C7 C6 1.409 . S
C7 H9 0.951 . S
C8 C3 1.491 . S
C8 C10 1.382 . S
C8 C12 1.404 . S
H9 C7 0.951 . S
C10 C8 1.382 . S
C10 C11 1.390 . S
C10 H15 0.949 . S
C11 C10 1.390 . S
C11 C16 1.399 . S
C12 C8 1.404 . S
C12 H13 0.950 . S
C12 C14 1.375 . S
H13 C12 0.950 . S
C14 C12 1.375 . S
C14 C16 1.382 . S
C14 H18 0.950 . S
H15 C10 0.949 . S
C16 C11 1.399 . S
C16 C14 1.382 . S
C16 H17 0.952 . S
H17 C16 0.952 . S
H18 C14 0.950 . S
H19 C20 0.949 . S
C20 H19 0.949 . S
C20 C21 1.395 . S
C20 C22 1.391 . S
C21 C20 1.395 . S
C21 C24 1.390 . S
C22 C20 1.391 . S
C22 C26 1.387 . S
C22 C27 1.491 . S
H23 C24 0.950 . S
C24 C21 1.390 . S
C24 H23 0.950 . S
C24 C25 1.378 . S
C25 C24 1.378 . S
C25 C26 1.409 . S
C26 C22 1.387 . S
C26 C25 1.409 . S
C26 H28 0.951 . S
C27 C22 1.491 . S
C27 C29 1.382 . S
C27 C31 1.404 . S
H28 C26 0.951 . S
C29 C27 1.382 . S
C29 C30 1.390 . S
C29 H34 0.949 . S
C30 C29 1.390 . S
C30 C35 1.399 . S
C31 C27 1.404 . S
C31 H32 0.950 . S
C31 C33 1.375 . S
H32 C31 0.950 . S
C33 C31 1.375 . S
C33 C35 1.382 . S
C33 H37 0.950 . S
H34 C29 0.949 . S
C35 C30 1.399 . S
C35 C33 1.382 . S
C35 H36 0.952 . S
H36 C35 0.952 . S
H37 C33 0.950 . S
H38 C39 0.949 . S
C39 H38 0.949 . S
C39 C40 1.395 . S
C39 C41 1.391 . S
C40 C39 1.395 . S
C40 C43 1.390 . S
C41 C39 1.391 . S
C41 C45 1.387 . S
C41 C46 1.491 . S
H42 C43 0.950 . S
C43 C40 1.390 . S
C43 H42 0.950 . S
C43 C44 1.378 . S
C44 C43 1.378 . S
C44 C45 1.409 . S
C45 C41 1.387 . S
C45 C44 1.409 . S
C45 H47 0.951 . S
C46 C41 1.491 . S
C46 C48 1.382 . S
C46 C50 1.404 . S
H47 C45 0.951 . S
C48 C46 1.382 . S
C48 C49 1.390 . S
C48 H53 0.949 . S
C49 C48 1.390 . S
C49 C54 1.399 . S
C50 C46 1.404 . S
C50 H51 0.950 . S
C50 C52 1.375 . S
H51 C50 0.950 . S
C52 C50 1.375 . S
C52 C54 1.382 . S
C52 H56 0.950 . S
H53 C48 0.949 . S
C54 C49 1.399 . S
C54 C52 1.382 . S
C54 H55 0.952 . S
H55 C54 0.952 . S
H56 C52 0.950 . S
H57 C58 0.949 . S
C58 H57 0.949 . S
C58 C59 1.395 . S
C58 C60 1.391 . S
C59 C58 1.395 . S
C59 C62 1.390 . S
C60 C58 1.391 . S
C60 C64 1.387 . S
C60 C65 1.491 . S
H61 C62 0.950 . S
C62 C59 1.390 . S
C62 H61 0.950 . S
C62 C63 1.378 . S
C63 C62 1.378 . S
C63 C64 1.409 . S
C64 C60 1.387 . S
C64 C63 1.409 . S
C64 H66 0.951 . S
C65 C60 1.491 . S
C65 C67 1.382 . S
C65 C69 1.404 . S
H66 C64 0.951 . S
C67 C65 1.382 . S
C67 C68 1.390 . S
C67 H72 0.949 . S
C68 C67 1.390 . S
C68 C73 1.399 . S
C69 C65 1.404 . S
C69 H70 0.950 . S
C69 C71 1.375 . S
H70 C69 0.950 . S
C71 C69 1.375 . S
C71 C73 1.382 . S
C71 H75 0.950 . S
H72 C67 0.949 . S
C73 C68 1.399 . S
C73 C71 1.382 . S
C73 H74 0.952 . S
H74 C73 0.952 . S
H75 C71 0.950 . S
H76 C77 0.949 . S
C77 H76 0.949 . S
C77 C78 1.395 . S
C77 C79 1.391 . S
C78 C77 1.395 . S
C78 C81 1.390 . S
C79 C77 1.391 . S
C79 C83 1.387 . S
C79 C84 1.491 . S
H80 C81 0.950 . S
C81 C78 1.390 . S
C81 H80 0.950 . S
C81 C82 1.378 . S
C82 C81 1.378 . S
C82 C83 1.409 . S
C83 C79 1.387 . S
C83 C82 1.409 . S
C83 H85 0.951 . S
C84 C79 1.491 . S
C84 C86 1.382 . S
C84 C88 1.404 . S
H85 C83 0.951 . S
C86 C84 1.382 . S
C86 C87 1.390 . S
C86 H91 0.949 . S
C87 C86 1.390 . S
C87 C92 1.399 . S
C88 C84 1.404 . S
C88 H89 0.950 . S
C88 C90 1.375 . S
H89 C88 0.950 . S
C90 C88 1.375 . S
C90 C92 1.382 . S
C90 H94 0.950 . S
H91 C86 0.949 . S
C92 C87 1.399 . S
C92 C90 1.382 . S
C92 H93 0.952 . S
H93 C92 0.952 . S
H94 C90 0.950 . S
H95 C96 0.949 . S
C96 H95 0.949 . S
C96 C97 1.395 . S
C96 C98 1.391 . S
C97 C96 1.395 . S
C97 C100 1.390 . S
C98 C96 1.391 . S
C98 C102 1.387 . S
C98 C103 1.491 . S
H99 C100 0.950 . S
C100 C97 1.390 . S
C100 H99 0.950 . S
C100 C101 1.378 . S
C101 C100 1.378 . S
C101 C102 1.409 . S
C102 C98 1.387 . S
C102 C101 1.409 . S
C102 H104 0.951 . S
C103 C98 1.491 . S
C103 C105 1.382 . S
C103 C107 1.404 . S
H104 C102 0.951 . S
C105 C103 1.382 . S
C105 C106 1.390 . S
C105 H110 0.949 . S
C106 C105 1.390 . S
C106 C111 1.399 . S
C107 C103 1.404 . S
C107 H108 0.950 . S
C107 C109 1.375 . S
H108 C107 0.950 . S
C109 C107 1.375 . S
C109 C111 1.382 . S
C109 H113 0.950 . S
H110 C105 0.949 . S
C111 C106 1.399 . S
C111 C109 1.382 . S
C111 H112 0.952 . S
H112 C111 0.952 . S
H113 C109 0.950 . S
H114 C115 0.949 . S
C115 H114 0.949 . S
C115 C116 1.395 . S
C115 C117 1.391 . S
C116 C115 1.395 . S
C116 C119 1.390 . S
C117 C115 1.391 . S
C117 C121 1.387 . S
C117 C122 1.491 . S
H118 C119 0.950 . S
C119 C116 1.390 . S
C119 H118 0.950 . S
C119 C120 1.378 . S
C120 C119 1.378 . S
C120 C121 1.409 . S
C121 C117 1.387 . S
C121 C120 1.409 . S
C121 H123 0.951 . S
C122 C117 1.491 . S
C122 C124 1.382 . S
C122 C126 1.404 . S
H123 C121 0.951 . S
C124 C122 1.382 . S
C124 C125 1.390 . S
C124 H129 0.949 . S
C125 C124 1.390 . S
C125 C130 1.399 . S
C126 C122 1.404 . S
C126 H127 0.950 . S
C126 C128 1.375 . S
H127 C126 0.950 . S
C128 C126 1.375 . S
C128 C130 1.382 . S
C128 H132 0.950 . S
H129 C124 0.949 . S
C130 C125 1.399 . S
C130 C128 1.382 . S
C130 H131 0.952 . S
H131 C130 0.952 . S
H132 C128 0.950 . S
H133 C134 0.949 . S
C134 H133 0.949 . S
C134 C135 1.395 . S
C134 C136 1.391 . S
C135 C134 1.395 . S
C135 C138 1.390 . S
C136 C134 1.391 . S
C136 C140 1.387 . S
C136 C141 1.491 . S
H137 C138 0.950 . S
C138 C135 1.390 . S
C138 H137 0.950 . S
C138 C139 1.378 . S
C139 C138 1.378 . S
C139 C140 1.409 . S
C140 C136 1.387 . S
C140 C139 1.409 . S
C140 H142 0.951 . S
C141 C136 1.491 . S
C141 C143 1.382 . S
C141 C145 1.404 . S
H142 C140 0.951 . S
C143 C141 1.382 . S
C143 C144 1.390 . S
C143 H148 0.949 . S
C144 C143 1.390 . S
C144 C149 1.399 . S
C145 C141 1.404 . S
C145 H146 0.950 . S
C145 C147 1.375 . S
H146 C145 0.950 . S
C147 C145 1.375 . S
C147 C149 1.382 . S
C147 H151 0.950 . S
H148 C143 0.949 . S
C149 C144 1.399 . S
C149 C147 1.382 . S
C149 H150 0.952 . S
H150 C149 0.952 . S
H151 C147 0.950 . S
Nd152 C154 2.836 . S
Nd152 O172 2.500 . S
Nd152 O173 2.492 . S
Nd152 O174 2.487 1_565 S
Nd152 O175 2.682 1_565 S
Nd152 O176 2.410 . S
Nd152 O181 2.414 1_455 S
Nd152 O183 2.424 1_565 S
Nd153 C163 2.836 . S
Nd153 O175 2.414 1_655 S
Nd153 O177 2.424 1_545 S
Nd153 O178 2.500 . S
Nd153 O179 2.492 . S
Nd153 O180 2.487 1_545 S
Nd153 O181 2.682 1_545 S
Nd153 O182 2.410 . S
C154 Nd152 2.836 . S
C154 C155 1.498 . S
C154 O172 1.258 . S
C154 O173 1.239 . S
C155 C154 1.498 . S
C155 C156 1.366 . S
C155 C160 1.407 . S
C156 C155 1.366 . S
C156 C157 1.392 . S
C156 H184 0.930 . S
C157 C156 1.392 . S
C157 C158 1.398 . S
C157 H185 0.929 . S
C158 C157 1.398 . S
C158 C159 1.352 . S
C159 C158 1.352 . S
C159 C160 1.384 . S
C159 H186 0.930 . S
C160 C155 1.407 . S
C160 C159 1.384 . S
C160 H187 0.929 . S
C161 O174 1.241 . S
C161 O175 1.273 . S
C162 O176 1.251 1_655 S
C162 O177 1.268 . S
C163 Nd153 2.836 . S
C163 C164 1.498 . S
C163 O178 1.258 . S
C163 O179 1.239 . S
C164 C163 1.498 . S
C164 C165 1.366 . S
C164 C169 1.407 . S
C165 C164 1.366 . S
C165 C166 1.392 . S
C165 H188 0.930 . S
C166 C165 1.392 . S
C166 C167 1.398 . S
C166 H189 0.929 . S
C167 C166 1.398 . S
C167 C168 1.352 . S
C168 C167 1.352 . S
C168 C169 1.384 . S
C168 H190 0.930 . S
C169 C164 1.407 . S
C169 C168 1.384 . S
C169 H191 0.929 . S
C170 O180 1.241 . S
C170 O181 1.273 . S
C171 O182 1.251 1_455 S
C171 O183 1.268 . S
O172 Nd152 2.500 . S
O172 C154 1.258 . S
O173 Nd152 2.492 . S
O173 C154 1.239 . S
O174 Nd152 2.487 1_545 S
O174 C161 1.241 . S
O175 Nd152 2.682 1_545 S
O175 Nd153 2.414 1_455 S
O175 C161 1.273 . S
O176 Nd152 2.410 . S
O176 C162 1.251 1_455 S
O177 Nd153 2.424 1_565 S
O177 C162 1.268 . S
O178 Nd153 2.500 . S
O178 C163 1.258 . S
O179 Nd153 2.492 . S
O179 C163 1.239 . S
O180 Nd153 2.487 1_565 S
O180 C170 1.241 . S
O181 Nd152 2.414 1_655 S
O181 Nd153 2.682 1_565 S
O181 C170 1.273 . S
O182 Nd153 2.410 . S
O182 C171 1.251 1_655 S
O183 Nd152 2.424 1_545 S
O183 C171 1.268 . S
H184 C156 0.930 . S
H185 C157 0.929 . S
H186 C159 0.930 . S
H187 C160 0.929 . S
H188 C165 0.930 . S
H189 C166 0.929 . S
H190 C168 0.930 . S
H191 C169 0.929 . S
Nd192 C194 2.836 . S
Nd192 O212 2.500 . S
Nd192 O213 2.492 . S
Nd192 O214 2.487 1_565 S
Nd192 O215 2.682 1_565 S
Nd192 O216 2.410 . S
Nd192 O221 2.414 1_565 S
Nd192 O223 2.424 1_565 S
Nd193 C203 2.836 . S
Nd193 O215 2.414 . S
Nd193 O217 2.424 1_544 S
Nd193 O218 2.500 . S
Nd193 O219 2.492 1_554 S
Nd193 O220 2.487 . S
Nd193 O221 2.682 . S
Nd193 O222 2.410 . S
C194 Nd192 2.836 . S
C194 C195 1.498 . S
C194 O212 1.258 . S
C194 O213 1.239 . S
C195 C194 1.498 . S
C195 C196 1.366 . S
C195 C200 1.407 . S
C196 C195 1.366 . S
C196 C197 1.392 . S
C196 H224 0.930 . S
C197 C196 1.392 . S
C197 C198 1.398 . S
C197 H225 0.929 . S
C198 C197 1.398 . S
C198 C199 1.352 . S
C199 C198 1.352 . S
C199 C200 1.384 . S
C199 H226 0.930 . S
C200 C195 1.407 . S
C200 C199 1.384 . S
C200 H227 0.929 . S
C201 O214 1.241 . S
C201 O215 1.273 . S
C202 O216 1.251 . S
C202 O217 1.268 1_554 S
C203 Nd193 2.836 . S
C203 C204 1.498 1_554 S
C203 O218 1.258 . S
C203 O219 1.239 1_554 S
C204 C203 1.498 1_556 S
C204 C205 1.367 1_556 S
C204 C209 1.406 . S
C205 C204 1.367 1_554 S
C205 C206 1.392 . S
C205 H228 0.930 . S
C206 C205 1.392 . S
C206 C207 1.398 1_554 S
C206 H229 0.929 . S
C207 C206 1.398 1_556 S
C207 C208 1.352 . S
C208 C207 1.352 . S
C208 C209 1.384 . S
C208 H230 0.930 . S
C209 C204 1.406 . S
C209 C208 1.384 . S
C209 H231 0.929 . S
C210 O220 1.241 . S
C210 O221 1.273 . S
C211 O222 1.251 . S
C211 O223 1.268 . S
O212 Nd192 2.500 . S
O212 C194 1.258 . S
O213 Nd192 2.492 . S
O213 C194 1.239 . S
O214 Nd192 2.487 1_545 S
O214 C201 1.241 . S
O215 Nd192 2.682 1_545 S
O215 Nd193 2.414 . S
O215 C201 1.273 . S
O216 Nd192 2.410 . S
O216 C202 1.251 . S
O217 Nd193 2.424 1_566 S
O217 C202 1.268 1_556 S
O218 Nd193 2.500 . S
O218 C203 1.258 . S
O219 Nd193 2.492 1_556 S
O219 C203 1.239 1_556 S
O220 Nd193 2.487 . S
O220 C210 1.241 . S
O221 Nd192 2.414 1_545 S
O221 Nd193 2.682 . S
O221 C210 1.273 . S
O222 Nd193 2.410 . S
O222 C211 1.251 . S
O223 Nd192 2.424 1_545 S
O223 C211 1.268 . S
H224 C196 0.930 . S
H225 C197 0.929 . S
H226 C199 0.930 . S
H227 C200 0.929 . S
H228 C205 0.930 . S
H229 C206 0.929 . S
H230 C208 0.930 . S
H231 C209 0.929 . S
Nd232 C234 2.836 . S
Nd232 O252 2.500 . S
Nd232 O253 2.492 . S
Nd232 O254 2.487 . S
Nd232 O255 2.682 . S
Nd232 O256 2.410 . S
Nd232 O261 2.414 . S
Nd232 O263 2.424 . S
Nd233 C243 2.836 . S
Nd233 O255 2.414 . S
Nd233 O257 2.424 . S
Nd233 O258 2.500 . S
Nd233 O259 2.492 . S
Nd233 O260 2.487 . S
Nd233 O261 2.682 . S
Nd233 O262 2.410 . S
C234 Nd232 2.836 . S
C234 C235 1.498 . S
C234 O252 1.258 . S
C234 O253 1.239 . S
C235 C234 1.498 . S
C235 C236 1.366 . S
C235 C240 1.407 . S
C236 C235 1.366 . S
C236 C237 1.392 . S
C236 H264 0.930 . S
C237 C236 1.392 . S
C237 C238 1.398 . S
C237 H265 0.929 . S
C238 C237 1.398 . S
C238 C239 1.352 . S
C239 C238 1.352 . S
C239 C240 1.384 . S
C239 H266 0.930 . S
C240 C235 1.407 . S
C240 C239 1.384 . S
C240 H267 0.929 . S
C241 O254 1.241 . S
C241 O255 1.273 . S
C242 O256 1.251 . S
C242 O257 1.268 . S
C243 Nd233 2.836 . S
C243 C244 1.498 . S
C243 O258 1.258 . S
C243 O259 1.239 . S
C244 C243 1.498 . S
C244 C245 1.366 . S
C244 C249 1.407 . S
C245 C244 1.366 . S
C245 C246 1.392 . S
C245 H268 0.930 . S
C246 C245 1.392 . S
C246 C247 1.398 . S
C246 H269 0.929 . S
C247 C246 1.398 . S
C247 C248 1.352 . S
C248 C247 1.352 . S
C248 C249 1.384 . S
C248 H270 0.930 . S
C249 C244 1.407 . S
C249 C248 1.384 . S
C249 H271 0.929 . S
C250 O260 1.241 . S
C250 O261 1.273 . S
C251 O262 1.251 . S
C251 O263 1.268 . S
O252 Nd232 2.500 . S
O252 C234 1.258 . S
O253 Nd232 2.492 . S
O253 C234 1.239 . S
O254 Nd232 2.487 . S
O254 C241 1.241 . S
O255 Nd232 2.682 . S
O255 Nd233 2.414 . S
O255 C241 1.273 . S
O256 Nd232 2.410 . S
O256 C242 1.251 . S
O257 Nd233 2.424 . S
O257 C242 1.268 . S
O258 Nd233 2.500 . S
O258 C243 1.258 . S
O259 Nd233 2.492 . S
O259 C243 1.239 . S
O260 Nd233 2.487 . S
O260 C250 1.241 . S
O261 Nd232 2.414 . S
O261 Nd233 2.682 . S
O261 C250 1.273 . S
O262 Nd233 2.410 . S
O262 C251 1.251 . S
O263 Nd232 2.424 . S
O263 C251 1.268 . S
H264 C236 0.930 . S
H265 C237 0.929 . S
H266 C239 0.930 . S
H267 C240 0.929 . S
H268 C245 0.930 . S
H269 C246 0.929 . S
H270 C248 0.930 . S
H271 C249 0.929 . S
Nd272 C274 2.836 1_455 S
Nd272 O292 2.500 1_455 S
Nd272 O293 2.492 . S
Nd272 O294 2.487 . S
Nd272 O295 2.682 . S
Nd272 O296 2.410 . S
Nd272 O301 2.414 1_454 S
Nd272 O303 2.424 . S
Nd273 C283 2.836 . S
Nd273 O295 2.414 1_556 S
Nd273 O297 2.424 . S
Nd273 O298 2.500 . S
Nd273 O299 2.492 . S
Nd273 O300 2.487 1_455 S
Nd273 O301 2.682 1_455 S
Nd273 O302 2.410 . S
C274 Nd272 2.836 1_655 S
C274 C275 1.498 . S
C274 O292 1.258 . S
C274 O293 1.239 1_655 S
C275 C274 1.498 . S
C275 C276 1.366 . S
C275 C280 1.411 . S
C276 C275 1.366 . S
C276 C277 1.392 . S
C276 H304 0.930 . S
C277 C276 1.392 . S
C277 C278 1.398 . S
C277 H305 0.929 . S
C278 C277 1.398 . S
C278 C279 1.352 . S
C279 C278 1.352 . S
C279 C280 1.395 . S
C279 H306 0.930 . S
C280 C275 1.411 . S
C280 C279 1.395 . S
C280 H307 0.914 1_655 S
C281 O294 1.241 . S
C281 O295 1.273 . S
C282 O296 1.251 . S
C282 O297 1.268 1_554 S
C283 Nd273 2.836 . S
C283 C284 1.498 . S
C283 O298 1.258 . S
C283 O299 1.239 . S
C284 C283 1.498 . S
C284 C285 1.366 . S
C284 C289 1.407 . S
C285 C284 1.366 . S
C285 C286 1.392 . S
C285 H308 0.930 . S
C286 C285 1.392 . S
C286 C287 1.398 . S
C286 H309 0.929 . S
C287 C286 1.398 . S
C287 C288 1.352 . S
C288 C287 1.352 . S
C288 C289 1.384 . S
C288 H310 0.930 . S
C289 C284 1.407 . S
C289 C288 1.384 . S
C289 H311 0.929 . S
C290 O300 1.241 . S
C290 O301 1.273 . S
C291 O302 1.251 1_554 S
C291 O303 1.268 . S
O292 Nd272 2.500 1_655 S
O292 C274 1.258 . S
O293 Nd272 2.492 . S
O293 C274 1.239 1_455 S
O294 Nd272 2.487 . S
O294 C281 1.241 . S
O295 Nd272 2.682 . S
O295 Nd273 2.414 1_554 S
O295 C281 1.273 . S
O296 Nd272 2.410 . S
O296 C282 1.251 . S
O297 Nd273 2.424 . S
O297 C282 1.268 1_556 S
O298 Nd273 2.500 . S
O298 C283 1.258 . S
O299 Nd273 2.492 . S
O299 C283 1.239 . S
O300 Nd273 2.487 1_655 S
O300 C290 1.241 . S
O301 Nd272 2.414 1_656 S
O301 Nd273 2.682 1_655 S
O301 C290 1.273 . S
O302 Nd273 2.410 . S
O302 C291 1.251 1_556 S
O303 Nd272 2.424 . S
O303 C291 1.268 . S
H304 C276 0.930 . S
H305 C277 0.929 . S
H306 C279 0.930 . S
H307 C280 0.914 1_455 S
H308 C285 0.930 . S
H309 C286 0.929 . S
H310 C288 0.930 . S
H311 C289 0.929 . S
C312 C313 1.369 . S
C312 C314 1.419 . S
C312 H316 0.930 . S
C313 C312 1.369 . S
C313 C322 1.429 . S
C314 C312 1.419 . S
C314 C315 1.363 . S
C314 H317 0.929 . S
C315 C314 1.363 . S
C315 C321 1.428 . S
H316 C312 0.930 . S
H317 C314 0.929 . S
S318 N319 1.613 1_565 S
S318 N320 1.610 1_565 S
N319 S318 1.613 1_545 S
N319 C322 1.350 . S
N320 S318 1.610 1_545 S
N320 C321 1.351 . S
C321 C315 1.428 . S
C321 N320 1.351 . S
C321 C322 1.434 . S
C322 C313 1.429 . S
C322 N319 1.350 . S
C322 C321 1.434 . S
C323 C324 1.369 . S
C323 C325 1.419 . S
C323 H327 0.930 . S
C324 C323 1.369 . S
C324 C333 1.429 . S
C325 C323 1.419 . S
C325 C326 1.363 . S
C325 H328 0.929 . S
C326 C325 1.363 . S
C326 C332 1.428 . S
H327 C323 0.930 . S
H328 C325 0.929 . S
S329 N330 1.613 1_554 S
S329 N331 1.610 . S
N330 S329 1.613 1_556 S
N330 C333 1.350 . S
N331 S329 1.610 . S
N331 C332 1.351 1_554 S
C332 C326 1.428 . S
C332 N331 1.351 1_556 S
C332 C333 1.434 . S
C333 C324 1.429 . S
C333 N330 1.350 . S
C333 C332 1.434 . S
C334 C335 1.369 . S
C334 C336 1.419 . S
C334 H338 0.930 . S
C335 C334 1.369 . S
C335 C344 1.429 . S
C336 C334 1.419 . S
C336 C337 1.363 . S
C336 H339 0.929 . S
C337 C336 1.363 . S
C337 C343 1.428 . S
H338 C334 0.930 . S
H339 C336 0.929 . S
S340 N341 1.613 . S
S340 N342 1.610 . S
N341 S340 1.613 . S
N341 C344 1.350 . S
N342 S340 1.610 . S
N342 C343 1.351 . S
C343 C337 1.428 . S
C343 N342 1.351 . S
C343 C344 1.434 . S
C344 C335 1.429 . S
C344 N341 1.350 . S
C344 C343 1.434 . S
C345 C346 1.369 . S
C345 C347 1.419 . S
C345 H349 0.930 1_655 S
C346 C345 1.369 . S
C346 C355 1.429 . S
C347 C345 1.419 . S
C347 C348 1.363 . S
C347 H350 0.943 . S
C348 C347 1.363 . S
C348 C354 1.428 . S
H349 C345 0.930 1_455 S
H350 C347 0.943 . S
S351 N352 1.613 . S
S351 N353 1.610 . S
N352 S351 1.613 . S
N352 C355 1.350 . S
N353 S351 1.610 . S
N353 C354 1.351 . S
C354 C348 1.428 . S
C354 N353 1.351 . S
C354 C355 1.434 . S
C355 C346 1.429 . S
C355 N352 1.350 . S
C355 C354 1.434 . S
C356 C357 1.369 . S
C356 C358 1.419 . S
C356 H360 0.930 . S
C357 C356 1.369 . S
C357 C366 1.429 . S
C358 C356 1.419 . S
C358 C359 1.363 . S
C358 H361 0.929 . S
C359 C358 1.363 . S
C359 C365 1.428 . S
H360 C356 0.930 . S
H361 C358 0.929 . S
S362 N363 1.613 . S
S362 N364 1.610 . S
N363 S362 1.613 . S
N363 C366 1.350 . S
N364 S362 1.610 . S
N364 C365 1.351 . S
C365 C359 1.428 . S
C365 N364 1.351 . S
C365 C366 1.434 . S
C366 C357 1.429 . S
C366 N363 1.350 . S
C366 C365 1.434 . S
C367 C368 1.369 . S
C367 C369 1.419 . S
C367 H371 0.930 . S
C368 C367 1.369 . S
C368 C377 1.429 . S
C369 C367 1.419 . S
C369 C370 1.363 . S
C369 H372 0.929 . S
C370 C369 1.363 . S
C370 C376 1.428 . S
H371 C367 0.930 . S
H372 C369 0.929 . S
S373 N374 1.613 . S
S373 N375 1.610 . S
N374 S373 1.613 . S
N374 C377 1.350 . S
N375 S373 1.610 . S
N375 C376 1.351 . S
C376 C370 1.428 . S
C376 N375 1.351 . S
C376 C377 1.434 . S
C377 C368 1.429 . S
C377 N374 1.350 . S
C377 C376 1.434 . S
C378 C379 1.369 . S
C378 C380 1.419 . S
C378 H382 0.930 . S
C379 C378 1.369 . S
C379 C388 1.429 . S
C380 C378 1.419 . S
C380 C381 1.363 . S
C380 H383 0.929 . S
C381 C380 1.363 . S
C381 C387 1.428 . S
H382 C378 0.930 . S
H383 C380 0.929 . S
S384 N385 1.600 1_554 S
S384 N386 1.610 . S
N385 S384 1.600 1_556 S
N385 C388 1.364 . S
N386 S384 1.610 . S
N386 C387 1.351 1_554 S
C387 C381 1.428 . S
C387 N386 1.351 1_556 S
C387 C388 1.434 . S
C388 C379 1.429 . S
C388 N385 1.364 . S
C388 C387 1.434 . S
C389 C390 1.369 . S
C389 C391 1.419 . S
C389 H393 0.930 . S
C390 C389 1.369 . S
C390 C399 1.429 . S
C391 C389 1.419 . S
C391 C392 1.363 . S
C391 H394 0.929 . S
C392 C391 1.363 . S
C392 C398 1.428 . S
H393 C389 0.930 . S
H394 C391 0.929 . S
S395 N396 1.613 . S
S395 N397 1.610 . S
N396 S395 1.613 . S
N396 C399 1.350 . S
N397 S395 1.610 . S
N397 C398 1.351 . S
C398 C392 1.428 . S
C398 N397 1.351 . S
C398 C399 1.434 . S
C399 C390 1.429 . S
C399 N396 1.350 . S
C399 C398 1.434 . S
C400 C401 1.369 . S
C400 C402 1.419 . S
C400 H404 0.930 . S
C401 C400 1.369 . S
C401 C410 1.429 . S
C402 C400 1.419 . S
C402 C403 1.363 . S
C402 H405 0.929 1_554 S
C403 C402 1.363 . S
C403 C409 1.428 . S
H404 C400 0.930 . S
H405 C402 0.929 1_556 S
S406 N407 1.613 . S
S406 N408 1.610 . S
N407 S406 1.613 . S
N407 C410 1.350 . S
N408 S406 1.610 . S
N408 C409 1.351 . S
C409 C403 1.428 . S
C409 N408 1.351 . S
C409 C410 1.434 . S
C410 C401 1.429 . S
C410 N407 1.350 . S
C410 C409 1.434 . S
C411 C412 1.369 . S
C411 C413 1.419 . S
C411 H415 0.930 . S
C412 C411 1.369 . S
C412 C421 1.429 . S
C413 C411 1.419 . S
C413 C414 1.363 . S
C413 H416 0.929 1_556 S
C414 C413 1.363 . S
C414 C420 1.428 . S
H415 C411 0.930 . S
H416 C413 0.929 1_554 S
S417 N418 1.613 . S
S417 N419 1.610 . S
N418 S417 1.613 . S
N418 C421 1.350 . S
N419 S417 1.610 . S
N419 C420 1.351 . S
C420 C414 1.428 . S
C420 N419 1.351 . S
C420 C421 1.434 . S
C421 C412 1.429 . S
C421 N418 1.350 . S
C421 C420 1.434 . S
C422 C423 1.369 . S
C422 C424 1.419 . S
C422 H426 0.930 . S
C423 C422 1.369 . S
C423 C432 1.429 . S
C424 C422 1.419 . S
C424 C425 1.363 . S
C424 H427 0.929 . S
C425 C424 1.363 . S
C425 C431 1.428 . S
H426 C422 0.930 . S
H427 C424 0.929 . S
S428 N429 1.613 1_455 S
S428 N430 1.610 1_545 S
N429 S428 1.613 1_655 S
N429 C432 1.350 1_545 S
N430 S428 1.610 1_565 S
N430 C431 1.351 1_455 S
C431 C425 1.428 . S
C431 N430 1.351 1_655 S
C431 C432 1.434 . S
C432 C423 1.429 . S
C432 N429 1.350 1_565 S
C432 C431 1.434 . S
C433 C434 1.369 . S
C433 C435 1.419 . S
C433 H437 0.930 . S
C434 C433 1.369 . S
C434 C443 1.429 . S
C435 C433 1.419 . S
C435 C436 1.363 . S
C435 H438 0.929 . S
C436 C435 1.363 . S
C436 C442 1.428 . S
H437 C433 0.930 . S
H438 C435 0.929 . S
S439 N440 1.613 . S
S439 N441 1.610 . S
N440 S439 1.613 . S
N440 C443 1.350 . S
N441 S439 1.610 . S
N441 C442 1.351 . S
C442 C436 1.428 . S
C442 N441 1.351 . S
C442 C443 1.434 . S
C443 C434 1.429 . S
C443 N440 1.350 . S
C443 C442 1.434 . S
C444 C445 1.369 . S
C444 C446 1.419 . S
C444 H448 0.930 . S
C445 C444 1.369 . S
C445 C454 1.429 . S
C446 C444 1.419 . S
C446 C447 1.363 . S
C446 H449 0.929 . S
C447 C446 1.363 . S
C447 C453 1.428 . S
H448 C444 0.930 . S
H449 C446 0.929 . S
S450 N451 1.613 1_545 S
S450 N452 1.610 . S
N451 S450 1.613 1_565 S
N451 C454 1.350 . S
N452 S450 1.610 . S
N452 C453 1.351 1_545 S
C453 C447 1.428 . S
C453 N452 1.351 1_565 S
C453 C454 1.434 . S
C454 C445 1.429 . S
C454 N451 1.350 . S
C454 C453 1.434 . S
C455 C456 1.369 . S
C455 C457 1.419 . S
C455 H459 0.930 . S
C456 C455 1.369 . S
C456 C465 1.429 . S
C457 C455 1.419 . S
C457 C458 1.363 . S
C457 H460 0.929 . S
C458 C457 1.363 . S
C458 C464 1.428 . S
H459 C455 0.930 . S
H460 C457 0.929 . S
S461 N462 1.613 . S
S461 N463 1.610 . S
N462 S461 1.613 . S
N462 C465 1.350 . S
N463 S461 1.610 . S
N463 C464 1.351 . S
C464 C458 1.428 . S
C464 N463 1.351 . S
C464 C465 1.434 . S
C465 C456 1.429 . S
C465 N462 1.350 . S
C465 C464 1.434 . S
C466 C467 1.369 . S
C466 C468 1.419 . S
C466 H470 0.930 . S
C467 C466 1.369 . S
C467 C476 1.429 . S
C468 C466 1.419 . S
C468 C469 1.363 . S
C468 H471 0.929 . S
C469 C468 1.363 . S
C469 C475 1.428 . S
H470 C466 0.930 . S
H471 C468 0.929 . S
S472 N473 1.613 . S
S472 N474 1.610 . S
N473 S472 1.613 . S
N473 C476 1.350 . S
N474 S472 1.610 . S
N474 C475 1.351 . S
C475 C469 1.428 . S
C475 N474 1.351 . S
C475 C476 1.434 . S
C476 C467 1.429 . S
C476 N473 1.350 . S
C476 C475 1.434 . S
C477 C478 1.369 . S
C477 C479 1.419 . S
C477 H481 0.930 . S
C478 C477 1.369 . S
C478 C487 1.429 . S
C479 C477 1.419 . S
C479 C480 1.363 . S
C479 H482 0.929 . S
C480 C479 1.363 . S
C480 C486 1.428 . S
H481 C477 0.930 . S
H482 C479 0.929 . S
S483 N484 1.613 . S
S483 N485 1.610 . S
N484 S483 1.613 . S
N484 C487 1.350 . S
N485 S483 1.610 . S
N485 C486 1.351 . S
C486 C480 1.428 . S
C486 N485 1.351 . S
C486 C487 1.434 . S
C487 C478 1.429 . S
C487 N484 1.350 . S
C487 C486 1.434 . S
C488 C489 1.369 1_554 S
C488 C490 1.419 . S
C488 H492 0.930 . S
C489 C488 1.369 1_556 S
C489 C498 1.429 . S
C490 C488 1.419 . S
C490 C491 1.363 . S
C490 H493 0.929 . S
C491 C490 1.363 . S
C491 C497 1.428 1_554 S
H492 C488 0.930 . S
H493 C490 0.929 . S
S494 N495 1.613 . S
S494 N496 1.610 . S
N495 S494 1.613 . S
N495 C498 1.350 . S
N496 S494 1.610 . S
N496 C497 1.351 . S
C497 C491 1.428 1_556 S
C497 N496 1.351 . S
C497 C498 1.434 . S
C498 C489 1.429 . S
C498 N495 1.350 . S
C498 C497 1.434 . S
C499 C500 1.369 . S
C499 C501 1.419 . S
C499 H503 0.930 . S
C500 C499 1.369 . S
C500 C509 1.429 . S
C501 C499 1.419 . S
C501 C502 1.363 . S
C501 H504 0.929 . S
C502 C501 1.363 . S
C502 C508 1.428 . S
H503 C499 0.930 . S
H504 C501 0.929 . S
S505 N506 1.613 . S
S505 N507 1.610 . S
N506 S505 1.613 . S
N506 C509 1.350 . S
N507 S505 1.610 . S
N507 C508 1.351 . S
C508 C502 1.428 . S
C508 N507 1.351 . S
C508 C509 1.434 . S
C509 C500 1.429 . S
C509 N506 1.350 . S
C509 C508 1.434 . S
C510 C511 1.369 . S
C510 C512 1.419 . S
C510 H514 0.930 . S
C511 C510 1.369 . S
C511 C520 1.429 . S
C512 C510 1.419 . S
C512 C513 1.363 . S
C512 H515 0.929 . S
C513 C512 1.363 . S
C513 C519 1.428 . S
H514 C510 0.930 . S
H515 C512 0.929 . S
S516 N517 1.613 . S
S516 N518 1.610 . S
N517 S516 1.613 . S
N517 C520 1.350 . S
N518 S516 1.610 . S
N518 C519 1.351 . S
C519 C513 1.428 . S
C519 N518 1.351 . S
C519 C520 1.434 . S
C520 C511 1.429 . S
C520 N517 1.350 . S
C520 C519 1.434 . S
C521 C522 1.369 . S
C521 C523 1.419 . S
C521 H525 0.930 . S
C522 C521 1.369 . S
C522 C531 1.429 . S
C523 C521 1.419 . S
C523 C524 1.363 . S
C523 H526 0.929 . S
C524 C523 1.363 . S
C524 C530 1.428 . S
H525 C521 0.930 . S
H526 C523 0.929 . S
S527 N528 1.613 . S
S527 N529 1.610 . S
N528 S527 1.613 . S
N528 C531 1.350 . S
N529 S527 1.610 . S
N529 C530 1.351 . S
C530 C524 1.428 . S
C530 N529 1.351 . S
C530 C531 1.434 . S
C531 C522 1.429 . S
C531 N528 1.350 . S
C531 C530 1.434 . S
C532 C533 1.369 . S
C532 C534 1.419 . S
C532 H536 0.930 . S
C533 C532 1.369 . S
C533 C542 1.429 . S
C534 C532 1.419 . S
C534 C535 1.363 . S
C534 H537 0.929 1_556 S
C535 C534 1.363 . S
C535 C541 1.432 . S
H536 C532 0.930 . S
H537 C534 0.929 1_554 S
S538 N539 1.613 1_455 S
S538 N540 1.610 . S
N539 S538 1.613 1_655 S
N539 C542 1.350 . S
N540 S538 1.610 . S
N540 C541 1.334 1_455 S
C541 C535 1.432 . S
C541 N540 1.334 1_655 S
C541 C542 1.450 . S
C542 C533 1.429 . S
C542 N539 1.350 . S
C542 C541 1.450 . S
C543 C544 1.369 . S
C543 C545 1.419 . S
C543 H547 0.930 . S
C544 C543 1.369 . S
C544 C553 1.429 . S
C545 C543 1.419 . S
C545 C546 1.363 . S
C545 H548 0.929 . S
C546 C545 1.363 . S
C546 C552 1.428 . S
H547 C543 0.930 . S
H548 C545 0.929 . S
S549 N550 1.613 . S
S549 N551 1.610 . S
N550 S549 1.613 . S
N550 C553 1.350 . S
N551 S549 1.610 . S
N551 C552 1.351 . S
C552 C546 1.428 . S
C552 N551 1.351 . S
C552 C553 1.434 . S
C553 C544 1.429 . S
C553 N550 1.350 . S
C553 C552 1.434 . S
C554 C555 1.369 . S
C554 C556 1.419 . S
C554 H558 0.930 . S
C555 C554 1.369 . S
C555 C564 1.429 . S
C556 C554 1.419 . S
C556 C557 1.363 . S
C556 H559 0.929 . S
C557 C556 1.363 . S
C557 C563 1.428 . S
H558 C554 0.930 . S
H559 C556 0.929 . S
S560 N561 1.613 . S
S560 N562 1.610 . S
N561 S560 1.613 . S
N561 C564 1.350 . S
N562 S560 1.610 . S
N562 C563 1.351 . S
C563 C557 1.428 . S
C563 N562 1.351 . S
C563 C564 1.434 . S
C564 C555 1.429 . S
C564 N561 1.350 . S
C564 C563 1.434 . S
C565 C566 1.369 . S
C565 C567 1.419 . S
C565 H569 0.930 . S
C566 C565 1.369 . S
C566 C575 1.429 . S
C567 C565 1.419 . S
C567 C568 1.363 . S
C567 H570 0.929 . S
C568 C567 1.363 . S
C568 C574 1.428 . S
H569 C565 0.930 . S
H570 C567 0.929 . S
S571 N572 1.613 . S
S571 N573 1.610 . S
N572 S571 1.613 . S
N572 C575 1.350 . S
N573 S571 1.610 . S
N573 C574 1.351 . S
C574 C568 1.428 . S
C574 N573 1.351 . S
C574 C575 1.434 . S
C575 C566 1.429 . S
C575 N572 1.350 . S
C575 C574 1.434 . S
C313 C6 3.200 . S
C315 C171 3.153 . S
C324 C21 2.559 . S
C326 C202 2.626 1_556 S
C337 C241 0.987 . S
C335 C49 0.902 . S
C346 C68 0.740 . S
C348 C278 0.779 . S
C359 C201 3.445 . S
C357 C2 3.516 . S
C370 C158 1.144 . S
C368 C30 1.095 . S
C381 C290 1.240 . S
C379 C40 1.222 . S
C392 C247 1.239 . S
C390 C63 1.237 . S
C401 C11 2.240 . S
C403 C291 2.509 . S
C414 C207 1.533 . S
C412 C44 1.537 . S
C423 C59 1.358 . S
C425 C170 1.509 . S
C434 C25 2.538 . S
C436 C242 2.588 . S
C447 C162 3.141 . S
C445 C82 3.192 . S
C456 C101 2.179 . S
C458 C211 2.290 . S
C467 C125 1.397 . S
C469 C250 1.375 . S
C478 C144 0.867 . S
C480 C287 0.828 . S
C489 C87 2.493 . S
C491 C210 2.558 1_565 S
C502 C167 1.714 . S
C500 C97 1.667 . S
C513 C281 1.261 . S
C511 C120 1.379 . S
C524 C238 1.326 . S
C522 C135 1.387 . S
C533 C78 2.718 . S
C535 C282 2.712 1_656 S
C546 C198 1.358 . S
C544 C116 1.391 . S
C557 C161 0.654 . S
C555 C139 0.596 . S
C566 C106 1.967 . S
C568 C251 2.293 . S
