# Generated by pormake.
# Topology eea, (3,6)-cn, num edge types: 1
# Building blocks:
#     Node 0, Type 0, BuildingBlock: QEWDON_clean_linker_0, # of connection points: 3
#     Node 1, Type 0, BuildingBlock: QEWDON_clean_linker_0, # of connection points: 3
#     Node 2, Type 0, BuildingBlock: QEWDON_clean_linker_0, # of connection points: 3
#     Node 3, Type 0, BuildingBlock: QEWDON_clean_linker_0, # of connection points: 3
#     Node 4, Type 0, BuildingBlock: QEWDON_clean_linker_0, # of connection points: 3
#     Node 5, Type 0, BuildingBlock: QEWDON_clean_linker_0, # of connection points: 3
#     Node 6, Type 0, BuildingBlock: QEWDON_clean_linker_0, # of connection points: 3
#     Node 7, Type 0, BuildingBlock: QEWDON_clean_linker_0, # of connection points: 3
#     Node 8, Type 0, BuildingBlock: QEWDON_clean_linker_0, # of connection points: 3
#     Node 9, Type 0, BuildingBlock: QEWDON_clean_linker_0, # of connection points: 3
#     Node 10, Type 0, BuildingBlock: QEWDON_clean_linker_0, # of connection points: 3
#     Node 11, Type 0, BuildingBlock: QEWDON_clean_linker_0, # of connection points: 3
#     Node 12, Type 0, BuildingBlock: QEWDON_clean_linker_0, # of connection points: 3
#     Node 13, Type 0, BuildingBlock: QEWDON_clean_linker_0, # of connection points: 3
#     Node 14, Type 0, BuildingBlock: QEWDON_clean_linker_0, # of connection points: 3
#     Node 15, Type 0, BuildingBlock: QEWDON_clean_linker_0, # of connection points: 3
#     Node 16, Type 0, BuildingBlock: QEWDON_clean_linker_0, # of connection points: 3
#     Node 17, Type 0, BuildingBlock: QEWDON_clean_linker_0, # of connection points: 3
#     Node 18, Type 1, BuildingBlock: CUKXOW_clean_sbu_0, # of connection points: 6
#     Node 19, Type 1, BuildingBlock: CUKXOW_clean_sbu_0, # of connection points: 6
#     Node 20, Type 1, BuildingBlock: CUKXOW_clean_sbu_0, # of connection points: 6
#     Node 21, Type 1, BuildingBlock: CUKXOW_clean_sbu_0, # of connection points: 6
#     Node 22, Type 1, BuildingBlock: CUKXOW_clean_sbu_0, # of connection points: 6
#     Node 23, Type 1, BuildingBlock: CUKXOW_clean_sbu_0, # of connection points: 6
#     Node 24, Type 1, BuildingBlock: CUKXOW_clean_sbu_0, # of connection points: 6
#     Node 25, Type 1, BuildingBlock: CUKXOW_clean_sbu_0, # of connection points: 6
#     Node 26, Type 1, BuildingBlock: CUKXOW_clean_sbu_0, # of connection points: 6
#     Edge 27, Type (0, 1), BuildingBlock: OJICUG_clean_linker_0, # of connection points: 2
#     Edge 28, Type (0, 1), BuildingBlock: OJICUG_clean_linker_0, # of connection points: 2
#     Edge 29, Type (0, 1), BuildingBlock: OJICUG_clean_linker_0, # of connection points: 2
#     Edge 30, Type (0, 1), BuildingBlock: OJICUG_clean_linker_0, # of connection points: 2
#     Edge 31, Type (0, 1), BuildingBlock: OJICUG_clean_linker_0, # of connection points: 2
#     Edge 32, Type (0, 1), BuildingBlock: OJICUG_clean_linker_0, # of connection points: 2
#     Edge 33, Type (0, 1), BuildingBlock: OJICUG_clean_linker_0, # of connection points: 2
#     Edge 34, Type (0, 1), BuildingBlock: OJICUG_clean_linker_0, # of connection points: 2
#     Edge 35, Type (0, 1), BuildingBlock: OJICUG_clean_linker_0, # of connection points: 2
#     Edge 36, Type (0, 1), BuildingBlock: OJICUG_clean_linker_0, # of connection points: 2
#     Edge 37, Type (0, 1), BuildingBlock: OJICUG_clean_linker_0, # of connection points: 2
#     Edge 38, Type (0, 1), BuildingBlock: OJICUG_clean_linker_0, # of connection points: 2
#     Edge 39, Type (0, 1), BuildingBlock: OJICUG_clean_linker_0, # of connection points: 2
#     Edge 40, Type (0, 1), BuildingBlock: OJICUG_clean_linker_0, # of connection points: 2
#     Edge 41, Type (0, 1), BuildingBlock: OJICUG_clean_linker_0, # of connection points: 2
#     Edge 42, Type (0, 1), BuildingBlock: OJICUG_clean_linker_0, # of connection points: 2
#     Edge 43, Type (0, 1), BuildingBlock: OJICUG_clean_linker_0, # of connection points: 2
#     Edge 44, Type (0, 1), BuildingBlock: OJICUG_clean_linker_0, # of connection points: 2
#     Edge 45, Type (0, 1), BuildingBlock: OJICUG_clean_linker_0, # of connection points: 2
#     Edge 46, Type (0, 1), BuildingBlock: OJICUG_clean_linker_0, # of connection points: 2
#     Edge 47, Type (0, 1), BuildingBlock: OJICUG_clean_linker_0, # of connection points: 2
#     Edge 48, Type (0, 1), BuildingBlock: OJICUG_clean_linker_0, # of connection points: 2
#     Edge 49, Type (0, 1), BuildingBlock: OJICUG_clean_linker_0, # of connection points: 2
#     Edge 50, Type (0, 1), BuildingBlock: OJICUG_clean_linker_0, # of connection points: 2
#     Edge 51, Type (0, 1), BuildingBlock: OJICUG_clean_linker_0, # of connection points: 2
#     Edge 52, Type (0, 1), BuildingBlock: OJICUG_clean_linker_0, # of connection points: 2
#     Edge 53, Type (0, 1), BuildingBlock: OJICUG_clean_linker_0, # of connection points: 2
#     Edge 54, Type (0, 1), BuildingBlock: OJICUG_clean_linker_0, # of connection points: 2
#     Edge 55, Type (0, 1), BuildingBlock: OJICUG_clean_linker_0, # of connection points: 2
#     Edge 56, Type (0, 1), BuildingBlock: OJICUG_clean_linker_0, # of connection points: 2
#     Edge 57, Type (0, 1), BuildingBlock: OJICUG_clean_linker_0, # of connection points: 2
#     Edge 58, Type (0, 1), BuildingBlock: OJICUG_clean_linker_0, # of connection points: 2
#     Edge 59, Type (0, 1), BuildingBlock: OJICUG_clean_linker_0, # of connection points: 2
#     Edge 60, Type (0, 1), BuildingBlock: OJICUG_clean_linker_0, # of connection points: 2
#     Edge 61, Type (0, 1), BuildingBlock: OJICUG_clean_linker_0, # of connection points: 2
#     Edge 62, Type (0, 1), BuildingBlock: OJICUG_clean_linker_0, # of connection points: 2
#     Edge 63, Type (0, 1), BuildingBlock: OJICUG_clean_linker_0, # of connection points: 2
#     Edge 64, Type (0, 1), BuildingBlock: OJICUG_clean_linker_0, # of connection points: 2
#     Edge 65, Type (0, 1), BuildingBlock: OJICUG_clean_linker_0, # of connection points: 2
#     Edge 66, Type (0, 1), BuildingBlock: OJICUG_clean_linker_0, # of connection points: 2
#     Edge 67, Type (0, 1), BuildingBlock: OJICUG_clean_linker_0, # of connection points: 2
#     Edge 68, Type (0, 1), BuildingBlock: OJICUG_clean_linker_0, # of connection points: 2
#     Edge 69, Type (0, 1), BuildingBlock: OJICUG_clean_linker_0, # of connection points: 2
#     Edge 70, Type (0, 1), BuildingBlock: OJICUG_clean_linker_0, # of connection points: 2
#     Edge 71, Type (0, 1), BuildingBlock: OJICUG_clean_linker_0, # of connection points: 2
#     Edge 72, Type (0, 1), BuildingBlock: OJICUG_clean_linker_0, # of connection points: 2
#     Edge 73, Type (0, 1), BuildingBlock: OJICUG_clean_linker_0, # of connection points: 2
#     Edge 74, Type (0, 1), BuildingBlock: OJICUG_clean_linker_0, # of connection points: 2
#     Edge 75, Type (0, 1), BuildingBlock: OJICUG_clean_linker_0, # of connection points: 2
#     Edge 76, Type (0, 1), BuildingBlock: OJICUG_clean_linker_0, # of connection points: 2
#     Edge 77, Type (0, 1), BuildingBlock: OJICUG_clean_linker_0, # of connection points: 2
#     Edge 78, Type (0, 1), BuildingBlock: OJICUG_clean_linker_0, # of connection points: 2
#     Edge 79, Type (0, 1), BuildingBlock: OJICUG_clean_linker_0, # of connection points: 2
#     Edge 80, Type (0, 1), BuildingBlock: OJICUG_clean_linker_0, # of connection points: 2
# Relax obj value: 0.053
# Max RMSD: 0.212
# Mean RMSD: 0.117
data_MOF--net-eea--node1-CUKXOW_clean_sbu_0--node2-QEWDON_clean_linker_0--edge1-OJICUG_clean_linker_0
_symmetry_space_group_name_H-M    P1
_symmetry_Int_Tables_number       1
_symmetry_cell_setting            triclinic
loop_
_symmetry_equiv_pos_as_xyz
'x, y, z'
_cell_length_a     48.267297
_cell_length_b     44.378388
_cell_length_c     33.091196
_cell_angle_alpha  93.498885
_cell_angle_beta   93.769186
_cell_angle_gamma 120.15353
loop_
_atom_site_label
_atom_site_type_symbol
_atom_site_fract_x
_atom_site_fract_y
_atom_site_fract_z
_atom_type_partial_charge
H0 H 0.24036 0.14012 0.47714 0.0
C1 C 0.23821 0.11888 0.45662 0.0
C2 C 0.25566 0.1023 0.46708 0.0
C3 C 0.21555 0.1058 0.42166 0.0
H4 H 0.26503 0.06111 0.44827 0.0
C5 C 0.25153 0.07388 0.44069 0.0
C6 C 0.22844 0.05983 0.40644 0.0
C7 C 0.21043 0.07591 0.39717 0.0
C8 C 0.19243 0.11827 0.41539 0.0
H9 H 0.19171 0.06456 0.37161 0.0
C10 C 0.20107 0.1509 0.4009 0.0
C11 C 0.17739 0.1604 0.39336 0.0
C12 C 0.16057 0.09608 0.4234 0.0
H13 H 0.15355 0.07106 0.43465 0.0
C14 C 0.13751 0.10583 0.41712 0.0
H15 H 0.22555 0.16805 0.39429 0.0
C16 C 0.14575 0.13759 0.40215 0.0
H17 H 0.12722 0.1444 0.39746 0.0
H18 H 0.11305 0.08858 0.42362 0.0
H19 H 0.87033 0.10495 0.46088 0.0
C20 C 0.89008 0.1244 0.44617 0.0
C21 C 0.90318 0.16016 0.45896 0.0
C22 C 0.90446 0.11364 0.41756 0.0
H23 H 0.94061 0.21282 0.45294 0.0
C24 C 0.93029 0.18536 0.44216 0.0
C25 C 0.94474 0.17517 0.41284 0.0
C26 C 0.93136 0.13919 0.40056 0.0
C27 C 0.89525 0.0762 0.41076 0.0
H28 H 0.94304 0.13079 0.37948 0.0
C29 C 0.86297 0.04902 0.39969 0.0
C30 C 0.85528 0.01367 0.39402 0.0
C31 C 0.91946 0.06765 0.41689 0.0
H32 H 0.9443 0.08792 0.4261 0.0
C33 C 0.9119 0.03291 0.41233 0.0
H34 H 0.84424 0.05547 0.39461 0.0
C35 C 0.88019 1.00616 0.40118 0.0
H36 H 0.87517 0.9794 0.3986 0.0
H37 H 0.93072 0.02664 0.4177 0.0
H38 H 0.91588 0.75511 0.47669 0.0
C39 C 0.89563 0.75496 0.4602 0.0
C40 C 0.86424 0.73323 0.47038 0.0
C41 C 0.90112 0.77824 0.43078 0.0
H42 H 0.81502 0.72067 0.46186 0.0
C43 C 0.8385 0.73533 0.45119 0.0
C44 C 0.8435 0.75852 0.42159 0.0
C45 C 0.87489 0.77877 0.41057 0.0
C46 C 0.93428 0.80585 0.42511 0.0
H47 H 0.87951 0.79633 0.38728 0.0
C48 C 0.95767 0.79773 0.41405 0.0
C49 C 0.98819 0.82474 0.40636 0.0
C50 C 0.94223 0.84111 0.42998 0.0
H51 H 0.92476 0.848 0.43899 0.0
C52 C 0.97269 0.86781 0.42329 0.0
H53 H 0.95179 0.77066 0.40991 0.0
C54 C 0.99548 0.8597 0.4112 0.0
H55 H 0.0189 0.88077 0.40552 0.0
H56 H 0.97853 0.89484 0.42706 0.0
H57 H 0.14989 0.25149 0.56086 0.0
C58 C 0.13165 0.25316 0.5767 0.0
C59 C 0.11982 0.27458 0.56381 0.0
C60 C 0.11869 0.23239 0.60832 0.0
H61 H 0.08394 0.28917 0.56976 0.0
C62 C 0.09432 0.27455 0.58212 0.0
C63 C 0.0809 0.25371 0.61397 0.0
C64 C 0.09462 0.23423 0.62795 0.0
C65 C 0.12678 0.20525 0.61768 0.0
H66 H 0.0858 0.21908 0.65341 0.0
C67 C 0.15894 0.21314 0.62545 0.0
C68 C 0.16539 0.1869 0.63634 0.0
C69 C 0.1015 0.17069 0.61926 0.0
H70 H 0.07658 0.16377 0.61266 0.0
C71 C 0.10798 0.14464 0.62919 0.0
H72 H 0.17867 0.23966 0.62457 0.0
C73 C 0.1397 0.1527 0.63801 0.0
H74 H 0.14427 0.13218 0.64618 0.0
H75 H 0.08833 0.11818 0.63036 0.0
H76 H 0.78348 0.91256 0.58927 0.0
C77 C 0.78484 0.89064 0.59939 0.0
C78 C 0.76781 0.85762 0.57555 0.0
C79 C 0.80418 0.89581 0.63593 0.0
H80 H 0.76035 0.80492 0.57016 0.0
C81 C 0.77111 0.82978 0.58893 0.0
C82 C 0.78966 0.83434 0.62578 0.0
C83 C 0.80459 0.86671 0.64968 0.0
C84 C 0.82628 0.93163 0.6582 0.0
H85 H 0.81748 0.86925 0.6789 0.0
C86 C 0.81982 0.95938 0.65659 0.0
C87 C 0.84251 0.99321 0.67539 0.0
C88 C 0.85568 0.93886 0.67965 0.0
H89 H 0.86283 0.91936 0.68021 0.0
C90 C 0.87725 0.97191 0.69976 0.0
H91 H 0.7979 0.95526 0.64002 0.0
C92 C 0.87082 0.99897 0.69756 0.0
H93 H 0.8885 0.02484 0.71221 0.0
H94 H 0.89956 0.97684 0.7161 0.0
H95 H 0.11518 0.87746 0.54407 0.0
C96 C 0.13452 0.89757 0.56564 0.0
C97 C 0.1668 0.91151 0.55774 0.0
C98 C 0.12704 0.91191 0.59942 0.0
H99 H 0.21637 0.94948 0.5795 0.0
C100 C 0.19146 0.93859 0.58538 0.0
C101 C 0.18443 0.95376 0.61861 0.0
C102 C 0.15206 0.9402 0.62543 0.0
C103 C 0.09328 0.9022 0.60347 0.0
H104 H 0.14618 0.95235 0.65026 0.0
C105 C 0.07121 0.87061 0.61835 0.0
C106 C 0.04005 0.8639 0.62466 0.0
C107 C 0.08362 0.92617 0.59388 0.0
H108 H 0.10024 0.95053 0.58242 0.0
C109 C 0.05262 0.91914 0.59922 0.0
H110 H 0.07858 0.85214 0.62629 0.0
C111 C 0.03104 0.88837 0.61477 0.0
H112 H 1.00719 0.88365 0.61923 0.0
H113 H 0.04541 0.93781 0.59176 0.0
H114 H 0.91428 0.48527 0.79729 0.0
C115 C 0.91339 0.46362 0.77901 0.0
C116 C 0.93371 0.45086 0.79145 0.0
C117 C 0.89074 0.4472 0.74428 0.0
H118 H 0.94508 0.41012 0.78 0.0
C119 C 0.93096 0.42133 0.76895 0.0
C120 C 0.90807 0.40431 0.73462 0.0
C121 C 0.88905 0.41832 0.72175 0.0
C122 C 0.86556 0.45636 0.73432 0.0
H123 H 0.87163 0.4056 0.69496 0.0
C124 C 0.87297 0.49138 0.73298 0.0
C125 C 0.84807 0.4986 0.72374 0.0
C126 C 0.83317 0.42907 0.72644 0.0
H127 H 0.82663 0.40201 0.72806 0.0
C128 C 0.80873 0.43622 0.7169 0.0
H129 H 0.89772 0.51272 0.73926 0.0
C130 C 0.81606 0.47067 0.7155 0.0
H131 H 0.79657 0.47555 0.70795 0.0
H132 H 0.78396 0.41498 0.71077 0.0
H133 H 0.54119 0.43075 0.79574 0.0
C134 C 0.56034 0.45161 0.78177 0.0
C135 C 0.57053 0.4869 0.79432 0.0
C136 C 0.57629 0.44291 0.75352 0.0
H137 H 0.60422 0.54069 0.78574 0.0
C138 C 0.59669 0.51353 0.77706 0.0
C139 C 0.6132 0.50533 0.74875 0.0
C140 C 0.60261 0.46982 0.7373 0.0
C141 C 0.5679 0.40591 0.7444 0.0
H142 H 0.61555 0.46287 0.71669 0.0
C143 C 0.53589 0.37878 0.73174 0.0
C144 C 0.52857 0.34374 0.72355 0.0
C145 C 0.59237 0.39767 0.74926 0.0
H146 H 0.61704 0.41793 0.75944 0.0
C147 C 0.58524 0.36316 0.74205 0.0
H148 H 0.51705 0.38515 0.72742 0.0
C149 C 0.5537 0.33642 0.72952 0.0
H150 H 0.54902 0.30983 0.72506 0.0
H151 H 0.60423 0.35706 0.74647 0.0
H152 H 0.58513 0.08559 0.81129 0.0
C153 C 0.56436 0.08467 0.79523 0.0
C154 C 0.53321 0.06155 0.80543 0.0
C155 C 0.56889 0.1085 0.76669 0.0
H156 H 0.4828 0.04507 0.79479 0.0
C157 C 0.50665 0.06198 0.78601 0.0
C158 C 0.51087 0.08611 0.75809 0.0
C159 C 0.542 0.10878 0.74803 0.0
C160 C 0.6017 0.13681 0.76065 0.0
H161 H 0.54568 0.12827 0.72748 0.0
C162 C 0.62494 0.12956 0.74661 0.0
C163 C 0.6549 0.15724 0.73817 0.0
C164 C 0.60931 0.17185 0.76778 0.0
H165 H 0.59198 0.17806 0.77902 0.0
C166 C 0.63923 0.19919 0.7604 0.0
H167 H 0.61928 0.10266 0.74073 0.0
C168 C 0.66179 0.19198 0.74536 0.0
H169 H 0.68478 0.21361 0.73933 0.0
H170 H 0.64481 0.22605 0.76595 0.0
H171 H 0.82071 0.59168 0.89435 0.0
C172 C 0.80131 0.59163 0.90912 0.0
C173 C 0.78971 0.61379 0.89793 0.0
C174 C 0.78633 0.56739 0.93713 0.0
H175 H 0.75337 0.62759 0.90633 0.0
C176 C 0.7629 0.6113 0.9155 0.0
C177 C 0.74747 0.58694 0.94339 0.0
C178 C 0.7602 0.56601 0.95491 0.0
C179 C 0.79523 0.54063 0.94491 0.0
H180 H 0.74931 0.54774 0.97719 0.0
C181 C 0.8273 0.54996 0.95719 0.0
C182 C 0.83436 0.52401 0.96733 0.0
C183 C 0.7708 0.50511 0.94121 0.0
H184 H 0.74603 0.49723 0.93124 0.0
C185 C 0.77797 0.4794 0.95039 0.0
H186 H 0.84634 0.57724 0.9604 0.0
C187 C 0.8095 0.48877 0.96373 0.0
H188 H 0.81457 0.46846 0.97119 0.0
H189 H 0.75898 0.45217 0.94753 0.0
H190 H 0.46013 0.2502 0.91275 0.0
C191 C 0.46151 0.22873 0.9244 0.0
C192 C 0.4434 0.19471 0.90312 0.0
C193 C 0.48216 0.2356 0.96013 0.0
H194 H 0.43417 0.14146 0.90207 0.0
C195 C 0.44629 0.16735 0.91877 0.0
C196 C 0.46619 0.17361 0.95505 0.0
C197 C 0.48302 0.2074 0.97594 0.0
C198 C 0.50522 0.27233 0.97893 0.0
H199 H 0.49753 0.21177 1.00448 0.0
C200 C 0.49788 0.29943 0.97751 0.0
C201 C 0.52133 0.33423 0.99235 0.0
C202 C 0.53613 0.28096 0.99645 0.0
H203 H 0.54343 0.26156 0.99689 0.0
C204 C 0.55877 0.31512 0.01251 0.0
H205 H 0.47451 0.29388 0.96408 0.0
C206 C 0.55155 0.34162 0.01033 0.0
H207 H 0.56983 0.36818 0.02217 0.0
H208 H 0.58234 0.32122 0.02584 0.0
H209 H 0.7832 0.2026 0.88988 0.0
C210 C 0.80342 0.22422 0.90896 0.0
C211 C 0.8351 0.23594 0.89983 0.0
C212 C 0.79768 0.24182 0.94103 0.0
H213 H 0.88521 0.27535 0.91522 0.0
C214 C 0.861 0.26512 0.92368 0.0
C215 C 0.85557 0.28326 0.95561 0.0
C216 C 0.82379 0.27092 0.96443 0.0
C217 C 0.76457 0.23379 0.94635 0.0
H218 H 0.81909 0.28478 0.98864 0.0
C219 C 0.74158 0.2018 0.95934 0.0
C220 C 0.71119 0.19648 0.96726 0.0
C221 C 0.7565 0.25958 0.93991 0.0
H222 H 0.77384 0.28427 0.92976 0.0
C223 C 0.72614 0.25388 0.94669 0.0
H224 H 0.74773 0.18193 0.96486 0.0
C225 C 0.70369 0.22267 0.96059 0.0
H226 H 0.68038 0.21896 0.96634 0.0
H227 H 0.72014 0.27391 0.94167 0.0
H228 H 0.57019 0.80879 0.1444 0.0
C229 C 0.57 0.78888 0.12353 0.0
C230 C 0.58843 0.77354 0.13474 0.0
C231 C 0.54886 0.77597 0.08712 0.0
H232 H 0.6005 0.73433 0.11652 0.0
C233 C 0.58665 0.74651 0.10804 0.0
C234 C 0.56527 0.73296 0.07224 0.0
C235 C 0.54689 0.74822 0.06167 0.0
C236 C 0.52464 0.78667 0.0786 0.0
H237 H 0.52989 0.73744 0.03432 0.0
C238 C 0.53338 0.82202 0.07649 0.0
C239 C 0.50929 0.83059 0.06778 0.0
C240 C 0.49188 0.7604 0.07208 0.0
H241 H 0.48454 0.73313 0.07395 0.0
C242 C 0.4682 0.76886 0.06333 0.0
H243 H 0.55852 0.84252 0.08157 0.0
C244 C 0.47677 0.80362 0.06112 0.0
H245 H 0.45786 0.80947 0.05395 0.0
H246 H 0.44308 0.74838 0.05823 0.0
H247 H 0.20454 0.76741 0.11554 0.0
C248 C 0.22526 0.78989 0.10628 0.0
C249 C 0.23877 0.82288 0.12954 0.0
C250 C 0.23873 0.78536 0.07162 0.0
H251 H 0.27784 0.87694 0.13501 0.0
C252 C 0.26632 0.85166 0.11703 0.0
C253 C 0.27953 0.848 0.0816 0.0
C254 C 0.26502 0.81495 0.05892 0.0
C255 C 0.22747 0.74962 0.05047 0.0
H256 H 0.27517 0.81196 0.03185 0.0
C257 C 0.19515 0.72181 0.0489 0.0
C258 C 0.18615 0.68791 0.03164 0.0
C259 C 0.25001 0.74258 0.03351 0.0
H260 H 0.27529 0.76235 0.03551 0.0
C261 C 0.24066 0.70945 0.01478 0.0
H262 H 0.17721 0.72599 0.06197 0.0
C263 C 0.20902 0.68225 0.01395 0.0
H264 H 0.20252 0.6564 1.00033 0.0
H265 H 0.25827 0.7046 1.00186 0.0
H266 H 0.25036 0.42744 0.14519 0.0
C267 C 0.23031 0.42605 0.1266 0.0
C268 C 0.19852 0.40332 0.13467 0.0
C269 C 0.23632 0.44858 0.09626 0.0
H270 H 0.14885 0.38819 0.12129 0.0
C271 C 0.17286 0.40372 0.11242 0.0
C272 C 0.17846 0.42622 0.08181 0.0
C273 C 0.2104 0.44748 0.07304 0.0
C274 C 0.26936 0.47734 0.09282 0.0
H275 H 0.21568 0.46463 0.0492 0.0
C276 C 0.29334 0.47081 0.08035 0.0
C277 C 0.32366 0.49903 0.07417 0.0
C278 C 0.27639 0.51211 0.10061 0.0
H279 H 0.25826 0.51763 0.11046 0.0
C280 C 0.3067 0.54001 0.09555 0.0
H281 H 0.288 0.44407 0.07381 0.0
C282 C 0.33016 0.53356 0.08206 0.0
H283 H 0.35343 0.55557 0.07759 0.0
H284 H 0.31189 0.5667 0.10156 0.0
H285 H 0.4836 0.92174 0.22348 0.0
C286 C 0.46455 0.92215 0.23863 0.0
C287 C 0.45579 0.94742 0.23119 0.0
C288 C 0.44717 0.89554 0.26325 0.0
H289 H 0.42305 0.96553 0.24526 0.0
C290 C 0.42983 0.94602 0.24981 0.0
C291 C 0.41181 0.91909 0.2736 0.0
C292 C 0.42094 0.89432 0.28068 0.0
C293 C 0.4544 0.86713 0.26829 0.0
H294 H 0.40686 0.8732 0.29866 0.0
C295 C 0.48586 0.87466 0.28112 0.0
C296 C 0.49155 0.84729 0.28891 0.0
C297 C 0.42916 0.83198 0.26169 0.0
H298 H 0.40485 0.82548 0.25125 0.0
C299 C 0.43497 0.80487 0.26854 0.0
H300 H 0.50548 0.90164 0.28668 0.0
C301 C 0.4659 0.81244 0.28245 0.0
H302 H 0.46988 0.79103 0.28813 0.0
H303 H 0.41537 0.77792 0.26347 0.0
H304 H 0.11846 0.57273 0.2416 0.0
C305 C 0.1197 0.55234 0.25666 0.0
C306 C 0.0977 0.51705 0.24284 0.0
C307 C 0.14498 0.56142 0.28722 0.0
H308 H 0.08273 0.46354 0.24978 0.0
C309 C 0.10021 0.49054 0.26082 0.0
C310 C 0.1256 0.49874 0.29134 0.0
C311 C 0.14773 0.53451 0.30429 0.0
C312 C 0.17139 0.59866 0.29665 0.0
H313 H 0.16822 0.54182 0.32637 0.0
C314 C 0.16533 0.62624 0.30624 0.0
C315 C 0.19117 0.6614 0.31414 0.0
C316 C 0.20331 0.6067 0.29436 0.0
H317 H 0.20864 0.58625 0.28633 0.0
C318 C 0.22867 0.64121 0.30113 0.0
H319 H 0.1408 0.6202 0.30838 0.0
C320 C 0.22274 0.66828 0.3107 0.0
H321 H 0.24311 0.69483 0.31489 0.0
H322 H 0.25309 0.64706 0.29862 0.0
H323 H 0.44764 0.54368 0.2063 0.0
C324 C 0.46677 0.5638 0.22807 0.0
C325 C 0.49917 0.57874 0.2201 0.0
C326 C 0.45882 0.57702 0.26241 0.0
H327 H 0.54846 0.61735 0.24251 0.0
C328 C 0.52346 0.60578 0.24818 0.0
C329 C 0.51593 0.61998 0.28184 0.0
C330 C 0.48347 0.60536 0.28876 0.0
C331 C 0.42481 0.56616 0.26691 0.0
H332 H 0.47721 0.61669 0.314 0.0
C333 C 0.40351 0.53433 0.28203 0.0
C334 C 0.37215 0.52667 0.28893 0.0
C335 C 0.41419 0.58944 0.25778 0.0
H336 H 0.43021 0.61399 0.24621 0.0
C337 C 0.38304 0.58151 0.26381 0.0
H338 H 0.41158 0.51636 0.28961 0.0
C339 C 0.36223 0.5505 0.27953 0.0
H340 H 0.33823 0.54505 0.28446 0.0
H341 H 0.37512 0.59967 0.25671 0.0
Tb342 Tb 0.53903 0.03938 0.03173 0.0
C343 C 0.51298 0.95793 0.03643 0.0
Tb344 Tb 0.46494 0.98606 0.01847 0.0
O345 O 0.53714 0.05478 0.09548 0.0
O346 O 0.50271 1.00672 0.06641 0.0
O347 O 0.53823 0.98902 0.03126 0.0
C348 C 0.40366 0.94893 0.03472 0.0
O349 O 0.48315 0.95228 0.03645 0.0
C350 C 0.49565 0.99854 0.95288 0.0
C351 C 0.48991 0.06675 0.0127 0.0
O352 O 0.4141 0.94552 1.00044 0.0
O353 O 0.42759 0.97333 0.05917 0.0
O354 O 0.46854 0.96975 0.95556 0.0
O355 O 0.5014 0.01914 0.98408 0.0
O356 O 0.46517 0.0356 0.01819 0.0
O357 O 0.51987 0.0726 0.01245 0.0
C358 C 0.60103 0.08087 0.021 0.0
O359 O 0.58625 0.08606 0.0496 0.0
O360 O 0.58098 0.05161 0.99879 0.0
C361 C 0.5092 0.02728 0.09793 0.0
Tb362 Tb 0.99205 0.50387 0.02648 0.0
C363 C 0.06649 0.55747 0.02622 0.0
Tb364 Tb 0.03691 0.47536 0.01261 0.0
O365 O 0.99039 0.49296 0.09072 0.0
O366 O 0.02989 0.50275 0.06118 0.0
O367 O 0.03706 0.55299 0.02005 0.0
C368 C 0.07645 0.45005 0.02207 0.0
O369 O 0.07105 0.53071 0.03101 0.0
C370 C 0.01178 0.48613 0.94554 0.0
C371 C 0.96264 0.42136 0.01444 0.0
O372 O 0.07964 0.47359 0.99846 0.0
O373 O 0.05063 0.44026 0.04014 0.0
O374 O 0.03862 0.48587 0.94858 0.0
O375 O 0.99894 0.47614 0.97765 0.0
O376 O 0.99232 0.42643 0.01884 0.0
O377 O 0.95724 0.44783 0.01175 0.0
C378 C 0.95227 0.52897 0.01627 0.0
O379 O 0.95527 0.51412 0.0475 0.0
O380 O 0.97231 0.53043 0.99107 0.0
C381 C 0.01727 0.49278 0.09335 0.0
Tb382 Tb 0.49184 0.51317 1.00198 0.0
C383 C 0.51754 0.46169 0.99294 0.0
Tb384 Tb 0.565 0.54437 1.00435 0.0
O385 O 0.48355 0.49035 0.93865 0.0
O386 O 0.52702 0.53558 0.96061 0.0
O387 O 0.49378 0.46533 0.00588 0.0
C388 C 0.62462 0.56094 0.99046 0.0
O389 O 0.54506 0.4888 0.98485 0.0
C390 C 0.54448 0.54545 0.07572 0.0
C391 C 0.53965 0.59621 0.01014 0.0
O392 O 0.60526 0.53476 0.00915 0.0
O393 O 0.61053 0.57798 0.97962 0.0
O394 O 0.57362 0.56663 0.0678 0.0
O395 O 0.52995 0.52238 0.04576 0.0
O396 O 0.56321 0.59177 0.99835 0.0
O397 O 0.51135 0.56955 0.01706 0.0
C398 C 0.43295 0.49698 0.01911 0.0
O399 O 0.44612 0.51118 0.9872 0.0
O400 O 0.45286 0.49152 0.04133 0.0
C401 C 0.51249 0.5125 0.93055 0.0
Tb402 Tb 0.20252 0.36646 0.35838 0.0
C403 C 0.17955 0.28417 0.34974 0.0
Tb404 Tb 0.12905 0.31023 0.3415 0.0
O405 O 0.19795 0.37499 0.42355 0.0
O406 O 0.16677 0.32793 0.38873 0.0
O407 O 0.20421 0.31726 0.35244 0.0
C408 C 0.06874 0.27103 0.36009 0.0
O409 O 0.14887 0.27599 0.3483 0.0
C410 C 0.15955 0.33066 0.27677 0.0
C411 C 0.15115 0.39166 0.34559 0.0
O412 O 0.07884 0.26749 0.32555 0.0
O413 O 0.09249 0.29677 0.38364 0.0
O414 O 0.13266 0.30087 0.27655 0.0
O415 O 0.16495 0.34818 0.31061 0.0
O416 O 0.127 0.35876 0.34517 0.0
O417 O 0.18193 0.40007 0.34694 0.0
C418 C 0.26396 0.40979 0.34556 0.0
O419 O 0.25022 0.41294 0.37677 0.0
O420 O 0.24325 0.38157 0.32215 0.0
C421 C 0.17153 0.34478 0.42271 0.0
Tb422 Tb 0.6561 0.83844 0.35851 0.0
C423 C 0.73022 0.88824 0.36201 0.0
Tb424 Tb 0.69793 0.80475 0.35607 0.0
O425 O 0.67814 0.86368 0.42022 0.0
O426 O 0.67361 0.81565 0.40027 0.0
O427 O 0.70184 0.88568 0.35296 0.0
C428 C 0.7418 0.78612 0.37183 0.0
O429 O 0.73334 0.86082 0.36887 0.0
C430 C 0.66919 0.80264 0.28528 0.0
C431 C 0.62361 0.75459 0.34976 0.0
O432 O 0.74306 0.80691 0.34523 0.0
O433 O 0.71588 0.77579 0.38979 0.0
O434 O 0.67809 0.78039 0.29393 0.0
O435 O 0.68004 0.82694 0.31415 0.0
O436 O 0.65201 0.7576 0.36001 0.0
O437 O 0.62044 0.78224 0.34458 0.0
C438 C 0.61058 0.85491 0.34297 0.0
O439 O 0.61462 0.84179 0.37531 0.0
O440 O 0.63264 0.85939 0.31955 0.0
C441 C 0.68532 0.8401 0.42901 0.0
Tb442 Tb 0.15752 0.8382 0.3415 0.0
C443 C 0.18583 0.78834 0.34119 0.0
Tb444 Tb 0.23083 0.87193 0.34338 0.0
O445 O 0.1512 0.81251 0.28005 0.0
O446 O 0.19217 0.86097 0.30002 0.0
O447 O 0.16014 0.79092 0.34753 0.0
C448 C 0.28965 0.89128 0.32346 0.0
O449 O 0.21429 0.81577 0.33621 0.0
C450 C 0.21074 0.87609 0.41371 0.0
C451 C 0.20321 0.92215 0.34701 0.0
O452 O 0.26632 0.88933 0.29943 0.0
O453 O 0.27989 0.88235 0.35877 0.0
O454 O 0.2392 0.89831 0.40423 0.0
O455 O 0.19644 0.85081 0.3858 0.0
O456 O 0.22783 0.91871 0.3373 0.0
O457 O 0.17492 0.89477 0.35296 0.0
C458 C 0.09801 0.82083 0.3572 0.0
O459 O 0.1105 0.83242 0.32391 0.0
O460 O 0.11899 0.81865 0.38161 0.0
C461 C 0.17917 0.83659 0.27131 0.0
Tb462 Tb 0.86958 0.70463 0.69402 0.0
C463 C 0.84649 0.62403 0.69822 0.0
Tb464 Tb 0.79568 0.64861 0.6804 0.0
O465 O 0.8676 0.71822 0.75844 0.0
O466 O 0.83363 0.67035 0.72836 0.0
O467 O 0.8708 0.6554 0.69203 0.0
C468 C 0.73419 0.60782 0.69453 0.0
O469 O 0.81649 0.61749 0.69989 0.0
C470 C 0.8262 0.66428 0.61451 0.0
C471 C 0.81777 0.7288 0.67653 0.0
O472 O 0.74768 0.60138 0.66506 0.0
O473 O 0.75514 0.63744 0.71512 0.0
O474 O 0.79921 0.63513 0.61619 0.0
O475 O 0.83158 0.68349 0.64678 0.0
O476 O 0.79374 0.69694 0.68124 0.0
O477 O 0.8482 0.73615 0.6761 0.0
C478 C 0.93106 0.74832 0.68182 0.0
O479 O 0.9159 0.75322 0.71016 0.0
O480 O 0.91174 0.71816 0.66081 0.0
C481 C 0.83986 0.69024 0.76045 0.0
Tb482 Tb 0.32873 0.17175 0.68796 0.0
C483 C 0.40301 0.21945 0.68733 0.0
Tb484 Tb 0.36881 0.13584 0.68655 0.0
O485 O 0.35258 0.19828 0.74856 0.0
O486 O 0.34552 0.14881 0.73021 0.0
O487 O 0.37481 0.21782 0.68058 0.0
C488 C 0.41077 0.11536 0.70687 0.0
O489 O 0.40573 0.19159 0.69298 0.0
C490 C 0.33904 0.13239 0.61605 0.0
C491 C 0.29432 0.08776 0.68296 0.0
O492 O 0.39191 0.1184 0.7309 0.0
O493 O 0.40593 0.12375 0.67127 0.0
O494 O 0.34665 0.10931 0.62588 0.0
O495 O 0.35129 0.15788 0.64373 0.0
O496 O 0.32247 0.09004 0.69286 0.0
O497 O 0.29186 0.11572 0.67675 0.0
C498 C 0.28443 0.19033 0.67478 0.0
O499 O 0.2904 0.17956 0.70802 0.0
O500 O 0.30374 0.19102 0.64877 0.0
C501 C 0.35841 0.17393 0.75818 0.0
Tb502 Tb 0.82697 0.18165 0.67003 0.0
C503 C 0.84964 0.12595 0.67263 0.0
Tb504 Tb 0.89995 0.20768 0.68297 0.0
O505 O 0.82868 0.18871 0.60442 0.0
O506 O 0.86187 0.18034 0.63613 0.0
O507 O 0.82572 0.13203 0.67829 0.0
C508 C 0.9612 0.23092 0.67031 0.0
O509 O 0.87899 0.15148 0.66712 0.0
C510 C 0.8716 0.20009 0.75017 0.0
C511 C 0.87773 0.26374 0.67974 0.0
O512 O 0.94516 0.20802 0.69484 0.0
O513 O 0.94289 0.24127 0.65322 0.0
O514 O 0.89836 0.2 0.74806 0.0
O515 O 0.86519 0.2091 0.71726 0.0
O516 O 0.90148 0.25721 0.67543 0.0
O517 O 0.8477 0.23838 0.68315 0.0
C518 C 0.76568 0.15878 0.683 0.0
O519 O 0.77959 0.17518 0.6525 0.0
O520 O 0.78618 0.15464 0.70585 0.0
C521 C 0.85557 0.18881 0.60289 0.0
C522 C 0.33571 0.90028 0.09909 0.0
C523 C 0.31001 0.87746 0.06949 0.0
H524 H 0.38532 0.94096 0.11112 0.0
C525 C 0.31488 0.88081 0.02802 0.0
H526 H 0.33321 0.89836 0.13126 0.0
C527 C 0.34511 0.90453 0.01657 0.0
C528 C 0.37094 0.92615 0.04625 0.0
H529 H 0.29551 0.86443 1.00424 0.0
H530 H 0.34839 0.90558 0.98451 0.0
C531 C 0.36574 0.92455 0.08756 0.0
C532 C 0.15876 0.46321 0.04971 0.0
C533 C 0.15188 0.43066 0.06263 0.0
H534 H 0.14034 0.49413 0.02569 0.0
C535 C 0.11927 0.40358 0.05952 0.0
H536 H 0.18307 0.4854 0.05268 0.0
C537 C 0.09448 0.40951 0.04586 0.0
C538 C 0.10184 0.44208 0.03339 0.0
H539 H 0.11267 0.37788 0.06813 0.0
H540 H 0.06961 0.38869 0.04506 0.0
C541 C 0.13412 0.46854 0.03454 0.0
C542 C 0.52684 0.6714 0.04147 0.0
C543 C 0.5587 0.69959 0.0498 0.0
H544 H 0.4958 0.61667 0.02235 0.0
C545 C 0.58409 0.69422 0.04101 0.0
H546 H 0.50678 0.6746 0.04843 0.0
C547 C 0.57781 0.66098 0.0259 0.0
C548 C 0.54602 0.63233 0.01979 0.0
H549 H 0.60888 0.7155 0.04707 0.0
H550 H 0.598 0.65744 0.0209 0.0
C551 C 0.52057 0.63812 0.02682 0.0
C552 C 0.91355 0.32285 0.98547 0.0
C553 C 0.88245 0.3175 0.97592 0.0
H554 H 0.96326 0.35966 0.00575 0.0
C555 C 0.87766 0.34605 0.98301 0.0
H556 H 0.91802 0.30135 0.98081 0.0
C557 C 0.90344 0.37932 0.99757 0.0
C558 C 0.93481 0.38507 0.00526 0.0
H559 H 0.85421 0.34317 0.97548 0.0
H560 H 0.89888 0.40081 1.00122 0.0
C561 C 0.93945 0.35625 1.00003 0.0
C562 C 0.71 0.60858 0.9626 0.0
C563 C 0.71657 0.58107 0.95773 0.0
H564 H 0.67539 0.62359 0.97613 0.0
C565 C 0.69255 0.54718 0.96484 0.0
H566 H 0.72789 0.63513 0.95819 0.0
C567 C 0.6631 0.54104 0.97666 0.0
C568 C 0.65647 0.56831 0.98036 0.0
H569 H 0.69594 0.52495 0.96025 0.0
H570 H 0.64507 0.51463 0.98156 0.0
C571 C 0.68003 0.60211 0.9732 0.0
C572 C 0.50325 0.15371 0.98257 0.0
C573 C 0.47168 0.14589 0.97017 0.0
H574 H 0.53369 0.13524 0.006 0.0
C575 C 0.44591 0.11197 0.973 0.0
H576 H 0.52369 0.1795 0.98033 0.0
C577 C 0.45165 0.0865 0.98809 0.0
C578 C 0.48332 0.09433 1.00016 0.0
H579 H 0.42134 0.10525 0.96389 0.0
H580 H 0.43129 0.06051 0.98953 0.0
C581 C 0.509 0.12829 0.99727 0.0
C582 C 0.67686 0.16828 0.0219 0.0
C583 C 0.68726 0.1647 0.98425 0.0
H584 H 0.64173 0.14413 0.06341 0.0
C585 C 0.67156 0.13181 0.96099 0.0
H586 H 0.68864 0.19345 0.04029 0.0
C587 C 0.64439 0.1035 0.97404 0.0
C588 C 0.63285 0.1078 0.01062 0.0
H589 H 0.67907 0.12862 0.93167 0.0
H590 H 0.63148 0.07891 0.95455 0.0
C591 C 0.65003 0.14007 0.03507 0.0
C592 C 0.89189 0.54481 0.95718 0.0
C593 C 0.86723 0.53282 0.98279 0.0
H594 H 0.93874 0.55308 0.9479 0.0
C595 C 0.87266 0.52429 0.02151 0.0
H596 H 0.88802 0.55122 0.92705 0.0
C597 C 0.90154 0.52565 0.03356 0.0
C598 C 0.92532 0.53509 0.00685 0.0
H599 H 0.85387 0.51494 0.04166 0.0
H600 H 0.90442 0.5173 0.06285 0.0
C601 C 0.92077 0.5458 0.96908 0.0
C602 C 0.49184 0.36672 0.00532 0.0
C603 C 0.51602 0.36389 0.98702 0.0
H604 H 0.47322 0.40025 0.02174 0.0
C605 C 0.53798 0.39171 0.96698 0.0
H606 H 0.4747 0.34554 0.02103 0.0
C607 C 0.53719 0.42264 0.96728 0.0
C608 C 0.51449 0.42668 0.98788 0.0
H609 H 0.55662 0.38997 0.95228 0.0
H610 H 0.55522 0.44386 0.95247 0.0
C611 C 0.49109 0.39799 0.00578 0.0
C612 C 0.15293 0.62904 0.05384 0.0
C613 C 0.15415 0.65713 0.03519 0.0
H614 H 0.12439 0.5761 0.06612 0.0
C615 C 0.12543 0.65377 0.01703 0.0
H616 H 0.17468 0.63118 0.06852 0.0
C617 C 0.09617 0.62177 0.01541 0.0
C618 C 0.09553 0.59296 0.03191 0.0
H619 H 0.12591 0.6752 1.00244 0.0
H620 H 0.07451 0.61909 0.99973 0.0
C621 C 0.12406 0.59743 0.05225 0.0
C622 C 0.35943 0.50583 0.02056 0.0
C623 C 0.34846 0.49326 0.05762 0.0
H624 H 0.39452 0.51619 0.97901 0.0
C625 C 0.36363 0.47884 0.08037 0.0
H626 H 0.34801 0.51707 1.00261 0.0
C627 C 0.39059 0.47875 0.06715 0.0
C628 C 0.40234 0.49269 0.03083 0.0
H629 H 0.35562 0.46927 0.10921 0.0
H630 H 0.40285 0.4689 0.08597 0.0
C631 C 0.38599 0.50533 0.00714 0.0
C632 C 0.49941 0.879 0.08738 0.0
C633 C 0.51676 0.86719 0.06562 0.0
H634 H 0.48501 0.91705 0.09515 0.0
C635 C 0.53686 0.88831 0.03769 0.0
H636 H 0.48406 0.86349 0.10942 0.0
C637 C 0.53752 0.91942 0.02949 0.0
C638 C 0.51784 0.92935 0.04892 0.0
H639 H 0.55036 0.87964 0.02041 0.0
H640 H 0.5517 0.93437 0.00629 0.0
C641 C 0.49984 0.90957 0.07901 0.0
C642 C 1.00006 0.2292 0.42527 0.0
C643 C 0.9756 0.20146 0.39813 0.0
H644 H 0.04849 0.2728 0.43443 0.0
C645 C 0.98174 0.19785 0.35759 0.0
H646 H 0.99658 0.2325 0.45687 0.0
C647 C 0.01177 0.22082 0.34487 0.0
C648 C 0.03627 0.24798 0.37234 0.0
H649 H 0.96339 0.17705 0.33573 0.0
H650 H 0.01595 0.21703 0.3137 0.0
C651 C 0.02998 0.2522 0.41249 0.0
C652 C 0.78427 0.73809 0.40423 0.0
C653 C 0.817 0.76449 0.4058 0.0
H654 H 0.73477 0.7246 0.39333 0.0
C655 C 0.82415 0.79761 0.39453 0.0
H656 H 0.77743 0.71199 0.41157 0.0
C657 C 0.79958 0.80404 0.38214 0.0
C658 C 0.76726 0.7781 0.3823 0.0
H659 H 0.84869 0.81925 0.39642 0.0
H660 H 0.80591 0.82986 0.37402 0.0
C661 C 0.75969 0.74509 0.39343 0.0
C662 C 0.18937 0.99699 0.37925 0.0
C663 C 0.22098 0.02594 0.3841 0.0
H664 H 0.15887 0.94148 0.36384 0.0
C665 C 0.24603 0.02097 0.37252 0.0
H666 H 0.16962 0.99989 0.38837 0.0
C667 C 0.23992 0.98759 0.35832 0.0
C668 C 0.20862 0.95817 0.35577 0.0
H669 H 0.27062 0.04279 0.37587 0.0
H670 H 0.26009 0.9847 0.35115 0.0
C671 C 0.18328 0.96345 0.36544 0.0
C672 C 0.5721 0.65662 0.31815 0.0
C673 C 0.5419 0.65277 0.30607 0.0
H674 H 0.62139 0.69148 0.34198 0.0
C675 C 0.53799 0.68194 0.3128 0.0
H676 H 0.57582 0.63458 0.31356 0.0
C677 C 0.56416 0.71466 0.32893 0.0
C678 C 0.59483 0.71896 0.33899 0.0
H679 H 0.51516 0.67998 0.30344 0.0
H680 H 0.56059 0.73688 0.33196 0.0
C681 C 0.59821 0.68926 0.33456 0.0
C682 C 0.35913 0.91688 0.26066 0.0
C683 C 0.38163 0.91475 0.28776 0.0
H684 H 0.31223 0.91088 0.25076 0.0
C685 C 0.37407 0.90618 0.32731 0.0
H686 H 0.36407 0.92289 0.22977 0.0
C687 C 0.34436 0.89926 0.33927 0.0
C688 C 0.32167 0.90058 0.31179 0.0
H689 H 0.39103 0.90452 0.34885 0.0
H690 H 0.33895 0.89228 0.36976 0.0
C691 C 0.32939 0.90978 0.27255 0.0
C692 C 0.12019 0.4387 0.28223 0.0
C693 C 0.13061 0.47037 0.30697 0.0
H694 H 0.11792 0.3891 0.27571 0.0
C695 C 0.14708 0.47503 0.34591 0.0
H696 H 0.10846 0.43398 0.25164 0.0
C697 C 0.1537 0.4495 0.3589 0.0
C698 C 0.14298 0.41814 0.33399 0.0
H699 H 0.15505 0.49844 0.36652 0.0
H700 H 0.16706 0.45418 0.38847 0.0
C701 C 0.12586 0.41284 0.29583 0.0
C702 C 0.33313 0.46187 0.28355 0.0
C703 C 0.34928 0.49472 0.30692 0.0
H704 H 0.29321 0.40891 0.27757 0.0
C705 C 0.33939 0.49813 0.34508 0.0
H706 H 0.33999 0.45879 0.25374 0.0
C707 C 0.31286 0.46973 0.3588 0.0
C708 C 0.29537 0.43744 0.33438 0.0
H709 H 0.35127 0.52332 0.36341 0.0
H710 H 0.30502 0.47366 0.38757 0.0
C711 C 0.30631 0.43345 0.29713 0.0
C712 C 0.52746 0.84262 0.34245 0.0
C713 C 0.52376 0.85441 0.3052 0.0
H714 H 0.55825 0.83434 0.38398 0.0
C715 C 0.54997 0.86965 0.28214 0.0
H716 H 0.50752 0.83083 0.36071 0.0
C717 C 0.57895 0.87123 0.29516 0.0
C718 C 0.58214 0.85806 0.33167 0.0
H719 H 0.54749 0.8787 0.25319 0.0
H720 H 0.59841 0.88161 0.27604 0.0
C721 C 0.55646 0.84469 0.35573 0.0
C722 C 0.16012 0.69362 0.30731 0.0
C723 C 0.18625 0.69151 0.32556 0.0
H724 H 0.13919 0.72603 0.29839 0.0
C725 C 0.20964 0.72014 0.35281 0.0
H726 H 0.14169 0.67225 0.28611 0.0
C727 C 0.20859 0.75093 0.35891 0.0
C728 C 0.18352 0.75371 0.33912 0.0
H729 H 0.22954 0.71926 0.36865 0.0
H730 H 0.22787 0.77299 0.37855 0.0
C731 C 0.15868 0.72441 0.31427 0.0
C732 C 0.79474 0.98263 0.3968 0.0
C733 C 0.82174 0.98406 0.38096 0.0
H734 H 0.74402 0.95093 0.40274 0.0
C735 C 0.81692 0.95523 0.35476 0.0
H736 H 0.79752 1.00427 0.41713 0.0
C737 C 0.78675 0.92478 0.34742 0.0
C738 C 0.76026 0.92261 0.36497 0.0
H739 H 0.83681 0.95567 0.34087 0.0
H740 H 0.78429 0.90246 0.32872 0.0
C741 C 0.76414 0.95214 0.38863 0.0
C742 C 0.02223 0.82577 0.35279 0.0
C743 C 0.01255 0.81731 0.39157 0.0
H744 H 0.05666 0.83284 0.31128 0.0
C745 C 0.02925 0.80656 0.41768 0.0
H746 H 0.00973 0.83432 0.33234 0.0
C747 C 0.05644 0.80615 0.40589 0.0
C748 C 0.06699 0.81621 0.36773 0.0
H749 H 0.02232 0.80034 0.44792 0.0
H750 H 0.06991 0.79934 0.42718 0.0
C751 C 0.04908 0.82499 0.34085 0.0
C752 C 0.2083 0.22654 0.39445 0.0
C753 C 0.18417 0.19331 0.37577 0.0
H754 H 0.2262 0.28212 0.40036 0.0
C755 C 0.16274 0.19153 0.34353 0.0
H756 H 0.22504 0.22872 0.41949 0.0
C757 C 0.16323 0.22174 0.3329 0.0
C758 C 0.18546 0.25469 0.35379 0.0
H759 H 0.14414 0.16638 0.32817 0.0
H760 H 0.14492 0.21906 0.3098 0.0
C761 C 0.20899 0.25709 0.38345 0.0
C762 C 0.66498 0.56408 0.75864 0.0
C763 C 0.64278 0.53346 0.73315 0.0
H764 H 0.71098 0.61158 0.76619 0.0
C765 C 0.65023 0.52897 0.69351 0.0
H766 H 0.66057 0.56839 0.78952 0.0
C767 C 0.67958 0.55348 0.68051 0.0
C768 C 0.70194 0.58341 0.70649 0.0
H769 H 0.63357 0.50621 0.67258 0.0
H770 H 0.68496 0.54877 0.6503 0.0
C771 C 0.69408 0.58882 0.74536 0.0
C772 C 0.47936 0.09727 0.70331 0.0
C773 C 0.48362 0.09091 0.74372 0.0
H774 H 0.45272 0.10979 0.65984 0.0
C775 C 0.46289 0.0915 0.77134 0.0
H776 H 0.49487 0.09688 0.68131 0.0
C777 C 0.43884 0.09881 0.75906 0.0
C778 C 0.43501 0.10574 0.71893 0.0
H779 H 0.4659 0.08747 0.8029 0.0
H780 H 0.42367 0.09973 0.78125 0.0
C781 C 0.45523 0.10456 0.69101 0.0
C782 C 0.92554 0.36218 0.70954 0.0
C783 C 0.90082 0.36942 0.71568 0.0
H784 H 0.93774 0.32327 0.69258 0.0
C785 C 0.86858 0.34217 0.7063 0.0
H786 H 0.9506 0.38264 0.71618 0.0
C787 C 0.86119 0.3083 0.69267 0.0
C788 C 0.88583 0.30067 0.6881 0.0
H789 H 0.84887 0.34657 0.71124 0.0
H790 H 0.83607 0.28783 0.68712 0.0
C791 C 0.91812 0.32818 0.69574 0.0
C792 C 0.20786 0.01634 0.64811 0.0
C793 C 0.21089 0.98652 0.64229 0.0
H794 H 0.2317 0.07163 0.66565 0.0
C795 C 0.24074 0.98962 0.65458 0.0
H796 H 0.18531 0.01495 0.63857 0.0
C797 C 0.26741 0.02214 0.67016 0.0
C798 C 0.26494 0.05244 0.67352 0.0
H799 H 0.24378 0.96706 0.65071 0.0
H800 H 0.29033 0.02373 0.67766 0.0
C801 C 0.23458 0.04893 0.66341 0.0
C802 C 0.04279 0.27571 0.62993 0.0
C803 C 0.05085 0.24923 0.63007 0.0
H804 H 1.00772 0.29054 0.64205 0.0
C805 C 0.02904 0.21729 0.64445 0.0
H806 H 0.05884 0.30079 0.6196 0.0
C807 C 1.00076 0.21228 0.65899 0.0
C808 C 0.99261 0.23836 0.65804 0.0
H809 H 0.03308 0.19541 0.64358 0.0
H810 H 0.98455 0.18727 0.66948 0.0
C811 C 0.01367 0.27007 0.64316 0.0
C812 C 0.7712 0.77197 0.63916 0.0
C813 C 0.79618 0.80671 0.6385 0.0
H814 H 0.75826 0.72012 0.65262 0.0
C815 C 0.82802 0.81563 0.65121 0.0
H816 H 0.74646 0.76443 0.62971 0.0
C817 C 0.83482 0.79051 0.66431 0.0
C818 C 0.80994 0.75576 0.66526 0.0
H819 H 0.84785 0.84214 0.65064 0.0
H820 H 0.85969 0.79837 0.67348 0.0
C821 C 0.77799 0.74676 0.65269 0.0
C822 C 1.00167 0.79894 0.62127 0.0
C823 C 0.01664 0.83247 0.64297 0.0
H824 H 0.96248 0.74557 0.61664 0.0
C825 C 1.00552 0.83689 0.67977 0.0
H826 H 0.00958 0.79504 0.59254 0.0
C827 C 0.97888 0.80881 0.6936 0.0
C828 C 0.96254 0.77575 0.6707 0.0
H829 H 0.01659 0.86256 0.6969 0.0
H830 H 0.97012 0.81349 0.72123 0.0
C831 C 0.97471 0.77076 0.63499 0.0
C832 C 0.20673 0.18874 0.6868 0.0
C833 C 0.19854 0.1945 0.64774 0.0
H834 H 0.24072 0.18357 0.72606 0.0
C835 C 0.22047 0.20272 0.61861 0.0
H836 H 0.19008 0.18228 0.70964 0.0
C837 C 0.24942 0.20305 0.62782 0.0
C838 C 0.25676 0.19544 0.66634 0.0
H839 H 0.21441 0.20691 0.58817 0.0
H840 H 0.26533 0.20774 0.60435 0.0
C841 C 0.23565 0.18941 0.69609 0.0
C842 C 0.86291 0.05046 0.64855 0.0
C843 C 0.83945 0.02405 0.66869 0.0
H844 H 0.88415 0.10296 0.63364 0.0
C845 C 0.81669 0.02979 0.68667 0.0
H846 H 0.88061 0.0465 0.63436 0.0
C847 C 0.81873 0.06253 0.6865 0.0
C848 C 0.8437 0.08973 0.66858 0.0
H849 H 0.79853 0.00972 0.70261 0.0
H850 H 0.80191 0.06708 0.70208 0.0
C851 C 0.86502 0.08287 0.64847 0.0
C852 C 0.46791 0.31284 0.7248 0.0
C853 C 0.49509 0.31435 0.70941 0.0
H854 H 0.41699 0.2815 0.7292 0.0
C855 C 0.49034 0.28599 0.68234 0.0
H856 H 0.47055 0.33402 0.74583 0.0
C857 C 0.45998 0.25586 0.67371 0.0
C858 C 0.43329 0.25364 0.69078 0.0
H859 H 0.51034 0.28652 0.66868 0.0
H860 H 0.45752 0.23382 0.65444 0.0
C861 C 0.43721 0.28279 0.7153 0.0
C862 C 0.69509 0.13718 0.74339 0.0
C863 C 0.67923 0.15093 0.72072 0.0
H864 H 0.73535 0.12896 0.74912 0.0
C865 C 0.68982 0.16339 0.68344 0.0
H866 H 0.68749 0.12777 0.77242 0.0
C867 C 0.71684 0.16384 0.67 0.0
C868 C 0.73405 0.15225 0.69384 0.0
H869 H 0.67796 0.17418 0.66553 0.0
H870 H 0.72518 0.17493 0.64192 0.0
C871 C 0.72246 0.13799 0.73012 0.0
C872 C 0.83575 0.54462 0.74562 0.0
C873 C 0.85414 0.53478 0.72319 0.0
H874 H 0.81934 0.58074 0.75535 0.0
C875 C 0.874 0.5574 0.69617 0.0
H876 H 0.82054 0.52786 0.76696 0.0
C877 C 0.87338 0.58809 0.68945 0.0
C878 C 0.8527 0.59608 0.70949 0.0
H879 H 0.88829 0.55023 0.67841 0.0
H880 H 0.88738 0.60421 0.66686 0.0
C881 C 0.83495 0.57479 0.73876 0.0
C882 C 0.45321 0.98271 0.17575 0.0
C883 C 0.47145 0.97291 0.20094 0.0
H884 H 0.45196 0.01006 0.12519 0.0
C885 C 0.50399 0.98588 0.19492 0.0
H886 H 0.42803 0.97315 0.17877 0.0
C887 C 0.51712 1.00589 0.16281 0.0
C888 C 0.49815 0.0138 0.13667 0.0
H889 H 0.51908 0.9797 0.21416 0.0
H890 H 0.54158 0.01369 0.15719 0.0
C891 C 0.46663 1.00333 0.14436 0.0
C892 C 0.04464 0.50328 0.2063 0.0
C893 C 0.07562 0.50813 0.20518 0.0
H894 H 1.00137 0.49398 0.17142 0.0
C895 C 0.08636 0.50568 0.16742 0.0
H896 H 0.03597 0.50508 0.23521 0.0
C897 C 0.06682 0.49945 0.13119 0.0
C898 C 0.03607 0.49546 0.13199 0.0
H899 H 0.1102 0.50932 0.16598 0.0
H900 H 0.07612 0.49858 0.10251 0.0
C901 C 0.02491 0.49684 0.1699 0.0
C902 C 0.53255 0.59581 0.16161 0.0
C903 C 0.50812 0.56924 0.1809 0.0
H904 H 0.56301 0.60885 0.11385 0.0
C905 C 0.49346 0.53432 0.16285 0.0
H906 H 0.54354 0.62314 0.17338 0.0
C907 C 0.50428 0.5262 0.12757 0.0
C908 C 0.53006 0.55285 0.1102 0.0
H909 H 0.47444 0.51324 0.17668 0.0
H910 H 0.49339 0.49911 0.11485 0.0
C911 C 0.54361 0.58768 0.12717 0.0
C912 C 0.94289 0.46782 0.86698 0.0
C913 C 0.95524 0.46531 0.83042 0.0
H914 H 0.95102 0.47597 0.93223 0.0
C915 C 0.98733 0.47301 0.83196 0.0
H916 H 0.91811 0.46163 0.86672 0.0
C917 C 1.00631 0.48172 0.86938 0.0
C918 C 0.99339 0.48229 0.90606 0.0
H919 H 0.99744 0.47131 0.80422 0.0
H920 H 0.03065 0.48651 0.86962 0.0
C921 C 0.96171 0.47598 0.90447 0.0
C922 C 0.57365 0.52431 0.85725 0.0
C923 C 0.55512 0.49559 0.82737 0.0
H924 H 0.5745 0.55269 0.91259 0.0
C925 C 0.522 0.47398 0.83076 0.0
H926 H 0.59926 0.54138 0.85613 0.0
C927 C 0.50817 0.47998 0.86389 0.0
C928 C 0.52694 0.50802 0.89419 0.0
H929 H 0.50671 0.45208 0.80803 0.0
H930 H 0.48279 0.46232 0.86601 0.0
C931 C 0.55962 0.53059 0.89006 0.0
C932 C 0.50294 1.00711 0.84044 0.0
C933 C 0.52842 0.04197 0.84158 0.0
H934 H 0.47288 0.96547 0.87507 0.0
C935 C 0.54558 0.06031 0.87927 0.0
H936 H 0.48922 0.99248 0.81172 0.0
C937 C 0.53585 0.04521 0.91529 0.0
C938 C 0.5092 0.01116 0.91446 0.0
H939 H 0.56487 0.08739 0.88122 0.0
H940 H 0.54798 0.06119 0.94387 0.0
C941 C 0.49357 0.9917 0.87663 0.0
C942 C 0.12488 0.27406 0.48967 0.0
C943 C 0.13145 0.29337 0.52768 0.0
H944 H 0.132 0.27529 0.42673 0.0
C945 C 0.15002 0.33014 0.53098 0.0
H946 H 0.1105 0.24568 0.48651 0.0
C947 C 0.1628 0.34728 0.49671 0.0
C948 C 0.15664 0.32781 0.45874 0.0
H949 H 0.15532 0.34544 0.56019 0.0
H950 H 0.17775 0.37559 0.49997 0.0
C951 C 0.13714 0.29109 0.45551 0.0
C952 C 0.72057 0.81937 0.52159 0.0
C953 C 0.74739 0.85255 0.53644 0.0
H954 H 0.68049 0.78927 0.4754 0.0
C955 C 0.75403 0.88096 0.5138 0.0
H956 H 0.71398 0.79676 0.53797 0.0
C957 C 0.73375 0.87677 0.47907 0.0
C958 C 0.70707 0.84381 0.46488 0.0
H959 H 0.77495 0.90666 0.52253 0.0
H960 H 0.7392 0.89931 0.46293 0.0
C961 C 0.70104 0.81497 0.48582 0.0
C962 C 0.19896 0.92755 0.49834 0.0
C963 C 0.17527 0.90129 0.5187 0.0
H964 H 0.22847 0.93992 0.44968 0.0
C965 C 0.16092 0.86608 0.50188 0.0
H966 H 0.20969 0.95502 0.50935 0.0
C967 C 0.17144 0.8574 0.46668 0.0
C968 C 0.19651 0.88383 0.44814 0.0
H969 H 0.14241 0.84528 0.51664 0.0
H970 H 0.16088 0.83013 0.45492 0.0
C971 C 0.20963 0.91892 0.46389 0.0
C972 C 0.62681 0.81696 0.19389 0.0
C973 C 0.60676 0.78217 0.17591 0.0
H974 H 0.66254 0.85105 0.24343 0.0
C975 C 0.60515 0.75479 0.19689 0.0
H976 H 0.62834 0.83859 0.17869 0.0
C977 C 0.62488 0.76189 0.23295 0.0
C978 C 0.64622 0.79653 0.24973 0.0
H979 H 0.58906 0.72763 0.18493 0.0
H980 H 0.62373 0.74011 0.24748 0.0
C981 C 0.64636 0.82409 0.23079 0.0
C982 C 0.20744 0.79835 0.18982 0.0
C983 C 0.22441 0.82692 0.1671 0.0
H984 H 0.1792 0.77887 0.23963 0.0
C985 C 0.22695 0.85916 0.18041 0.0
H986 H 0.20579 0.77341 0.18223 0.0
C987 C 0.21296 0.86255 0.21492 0.0
C988 C 0.19506 0.83354 0.23603 0.0
H989 H 0.23916 0.88177 0.16386 0.0
H990 H 0.21529 0.8876 0.22437 0.0
C991 C 0.1924 0.80145 0.22324 0.0
C992 C 0.16754 0.34733 0.16629 0.0
C993 C 0.19201 0.3828 0.17008 0.0
H994 H 0.13854 0.30255 0.1973 0.0
C995 C 0.20778 0.39974 0.20883 0.0
H996 H 0.155 0.33375 0.13666 0.0
C997 C 0.19805 0.38218 0.24337 0.0
C998 C 0.17278 0.34712 0.23983 0.0
H999 H 0.22635 0.42722 0.21268 0.0
H1000 H 0.20931 0.39667 0.27297 0.0
C1001 C 0.15818 0.32952 0.20089 0.0
C1002 C 0.83678 0.6537 0.86096 0.0
C1003 C 0.80361 0.63716 0.86525 0.0
H1004 H 0.87437 0.68389 0.82419 0.0
C1005 C 0.78345 0.64192 0.83682 0.0
H1006 H 0.85317 0.65123 0.88259 0.0
C1007 C 0.7959 0.66156 0.80439 0.0
C1008 C 0.82847 0.67614 0.79893 0.0
H1009 H 0.75775 0.62944 0.83853 0.0
H1010 H 0.7799 0.66486 0.78323 0.0
C1011 C 0.84906 0.67288 0.82795 0.0
C1012 C 0.39433 0.1554 0.85202 0.0
C1013 C 0.42237 0.18829 0.86418 0.0
H1014 H 0.35251 0.12483 0.80829 0.0
C1015 C 0.42973 0.21538 0.83908 0.0
H1016 H 0.38735 0.13384 0.87032 0.0
C1017 C 0.4089 0.21048 0.80471 0.0
C1018 C 0.38087 0.17796 0.79332 0.0
H1019 H 0.4516 0.24063 0.84572 0.0
H1020 H 0.41489 0.23215 0.78675 0.0
C1021 C 0.37411 0.15017 0.81658 0.0
C1022 C 0.82441 0.21866 0.82454 0.0
C1023 C 0.84122 0.22131 0.86215 0.0
H1024 H 0.82125 0.21044 0.75962 0.0
C1025 C 0.86621 0.21371 0.86276 0.0
H1026 H 0.80537 0.22488 0.82306 0.0
C1027 C 0.87502 0.20492 0.82636 0.0
C1028 C 0.85933 0.20414 0.78868 0.0
H1029 H 0.87953 0.21554 0.89137 0.0
H1030 H 0.89499 0.2002 0.82766 0.0
C1031 C 0.83354 0.21042 0.78817 0.0
C1032 C 0.29624 0.14626 0.52453 0.0
C1033 C 0.27543 0.11133 0.50737 0.0
H1034 H 0.33292 0.18065 0.57308 0.0
C1035 C 0.27391 0.08414 0.52868 0.0
H1036 H 0.29778 0.1678 0.50912 0.0
C1037 C 0.29414 0.09147 0.56435 0.0
C1038 C 0.316 0.12617 0.58045 0.0
H1039 H 0.25727 0.05691 0.5175 0.0
H1040 H 0.29281 0.06975 0.57922 0.0
C1041 C 0.31633 0.15363 0.56102 0.0
C1042 C 0.90859 0.17584 0.53343 0.0
C1043 C 0.89208 0.17063 0.49486 0.0
H1044 H 0.90972 0.18539 0.59773 0.0
C1045 C 0.86441 0.17357 0.49144 0.0
H1046 H 0.92988 0.17347 0.53665 0.0
C1047 C 0.85311 0.1811 0.52648 0.0
C1048 C 0.8691 0.18518 0.56529 0.0
H1049 H 0.85131 0.16947 0.46185 0.0
H1050 H 0.83133 0.18253 0.52331 0.0
C1051 C 0.8971 0.18281 0.5683 0.0
C1052 C 0.87555 0.7298 0.54387 0.0
C1053 C 0.85856 0.71271 0.50571 0.0
H1054 H 0.87791 0.72811 0.6081 0.0
C1055 C 0.83307 0.67775 0.50303 0.0
H1056 H 0.89486 0.75694 0.54691 0.0
C1057 C 0.82379 0.66077 0.53826 0.0
C1058 C 0.83947 0.6788 0.57668 0.0
H1059 H 0.8195 0.66412 0.47386 0.0
H1060 H 0.80323 0.63436 0.53561 0.0
C1061 C 0.86586 0.71317 0.57898 0.0
loop_
_geom_bond_atom_site_label_1
_geom_bond_atom_site_label_2
_geom_bond_distance
_geom_bond_site_symmetry_2
_ccdc_geom_bond_type
H0 C1 0.949 . S
C1 H0 0.949 . S
C1 C2 1.395 . S
C1 C3 1.391 . S
C2 C1 1.395 . S
C2 C5 1.390 . S
C3 C1 1.391 . S
C3 C7 1.387 . S
C3 C8 1.491 . S
H4 C5 0.950 . S
C5 C2 1.390 . S
C5 H4 0.950 . S
C5 C6 1.378 . S
C6 C5 1.378 . S
C6 C7 1.409 . S
C7 C3 1.387 . S
C7 C6 1.409 . S
C7 H9 0.951 . S
C8 C3 1.491 . S
C8 C10 1.382 . S
C8 C12 1.404 . S
H9 C7 0.951 . S
C10 C8 1.382 . S
C10 C11 1.390 . S
C10 H15 0.949 . S
C11 C10 1.390 . S
C11 C16 1.399 . S
C12 C8 1.404 . S
C12 H13 0.950 . S
C12 C14 1.375 . S
H13 C12 0.950 . S
C14 C12 1.375 . S
C14 C16 1.382 . S
C14 H18 0.950 . S
H15 C10 0.949 . S
C16 C11 1.399 . S
C16 C14 1.382 . S
C16 H17 0.952 . S
H17 C16 0.952 . S
H18 C14 0.950 . S
H19 C20 0.949 . S
C20 H19 0.949 . S
C20 C21 1.395 . S
C20 C22 1.391 . S
C21 C20 1.395 . S
C21 C24 1.390 . S
C22 C20 1.391 . S
C22 C26 1.387 . S
C22 C27 1.491 . S
H23 C24 0.950 . S
C24 C21 1.390 . S
C24 H23 0.950 . S
C24 C25 1.378 . S
C25 C24 1.378 . S
C25 C26 1.409 . S
C26 C22 1.387 . S
C26 C25 1.409 . S
C26 H28 0.951 . S
C27 C22 1.491 . S
C27 C29 1.382 . S
C27 C31 1.404 . S
H28 C26 0.951 . S
C29 C27 1.382 . S
C29 C30 1.390 . S
C29 H34 0.949 . S
C30 C29 1.390 . S
C30 C35 1.399 1_545 S
C31 C27 1.404 . S
C31 H32 0.950 . S
C31 C33 1.375 . S
H32 C31 0.950 . S
C33 C31 1.375 . S
C33 C35 1.382 1_545 S
C33 H37 0.973 . S
H34 C29 0.949 . S
C35 C30 1.399 1_565 S
C35 C33 1.382 1_565 S
C35 H36 0.952 . S
H36 C35 0.952 . S
H37 C33 0.973 . S
H38 C39 0.949 . S
C39 H38 0.949 . S
C39 C40 1.395 . S
C39 C41 1.391 . S
C40 C39 1.395 . S
C40 C43 1.390 . S
C41 C39 1.391 . S
C41 C45 1.387 . S
C41 C46 1.491 . S
H42 C43 0.950 . S
C43 C40 1.390 . S
C43 H42 0.950 . S
C43 C44 1.378 . S
C44 C43 1.378 . S
C44 C45 1.409 . S
C45 C41 1.387 . S
C45 C44 1.409 . S
C45 H47 0.951 . S
C46 C41 1.491 . S
C46 C48 1.382 . S
C46 C50 1.404 . S
H47 C45 0.951 . S
C48 C46 1.382 . S
C48 C49 1.390 . S
C48 H53 0.949 . S
C49 C48 1.390 . S
C49 C54 1.399 . S
C50 C46 1.404 . S
C50 H51 0.950 . S
C50 C52 1.375 . S
H51 C50 0.950 . S
C52 C50 1.375 . S
C52 C54 1.382 . S
C52 H56 0.950 . S
H53 C48 0.949 . S
C54 C49 1.399 . S
C54 C52 1.382 . S
C54 H55 0.952 1_655 S
H55 C54 0.952 1_455 S
H56 C52 0.950 . S
H57 C58 0.949 . S
C58 H57 0.949 . S
C58 C59 1.395 . S
C58 C60 1.391 . S
C59 C58 1.395 . S
C59 C62 1.390 . S
C60 C58 1.391 . S
C60 C64 1.387 . S
C60 C65 1.491 . S
H61 C62 0.950 . S
C62 C59 1.390 . S
C62 H61 0.950 . S
C62 C63 1.378 . S
C63 C62 1.378 . S
C63 C64 1.409 . S
C64 C60 1.387 . S
C64 C63 1.409 . S
C64 H66 0.951 . S
C65 C60 1.491 . S
C65 C67 1.382 . S
C65 C69 1.404 . S
H66 C64 0.951 . S
C67 C65 1.382 . S
C67 C68 1.390 . S
C67 H72 0.949 . S
C68 C67 1.390 . S
C68 C73 1.399 . S
C69 C65 1.404 . S
C69 H70 0.950 . S
C69 C71 1.375 . S
H70 C69 0.950 . S
C71 C69 1.375 . S
C71 C73 1.382 . S
C71 H75 0.950 . S
H72 C67 0.949 . S
C73 C68 1.399 . S
C73 C71 1.382 . S
C73 H74 0.952 . S
H74 C73 0.952 . S
H75 C71 0.950 . S
H76 C77 0.949 . S
C77 H76 0.949 . S
C77 C78 1.395 . S
C77 C79 1.391 . S
C78 C77 1.395 . S
C78 C81 1.390 . S
C79 C77 1.391 . S
C79 C83 1.387 . S
C79 C84 1.491 . S
H80 C81 0.950 . S
C81 C78 1.390 . S
C81 H80 0.950 . S
C81 C82 1.378 . S
C82 C81 1.378 . S
C82 C83 1.409 . S
C83 C79 1.387 . S
C83 C82 1.409 . S
C83 H85 0.951 . S
C84 C79 1.491 . S
C84 C86 1.382 . S
C84 C88 1.404 . S
H85 C83 0.951 . S
C86 C84 1.382 . S
C86 C87 1.390 . S
C86 H91 0.949 . S
C87 C86 1.390 . S
C87 C92 1.399 1_565 S
C88 C84 1.404 . S
C88 H89 0.950 . S
C88 C90 1.375 . S
H89 C88 0.950 . S
C90 C88 1.375 . S
C90 C92 1.382 1_565 S
C90 H94 0.950 . S
H91 C86 0.949 . S
C92 C87 1.399 1_545 S
C92 C90 1.382 1_545 S
C92 H93 0.952 . S
H93 C92 0.952 . S
H94 C90 0.950 . S
H95 C96 0.949 . S
C96 H95 0.949 . S
C96 C97 1.395 . S
C96 C98 1.391 . S
C97 C96 1.395 . S
C97 C100 1.390 . S
C98 C96 1.391 . S
C98 C102 1.387 . S
C98 C103 1.491 . S
H99 C100 0.950 . S
C100 C97 1.390 . S
C100 H99 0.950 . S
C100 C101 1.378 . S
C101 C100 1.378 . S
C101 C102 1.409 . S
C102 C98 1.387 . S
C102 C101 1.409 . S
C102 H104 0.951 . S
C103 C98 1.491 . S
C103 C105 1.382 . S
C103 C107 1.404 . S
H104 C102 0.951 . S
C105 C103 1.382 . S
C105 C106 1.390 . S
C105 H110 0.949 . S
C106 C105 1.390 . S
C106 C111 1.399 . S
C107 C103 1.404 . S
C107 H108 0.950 . S
C107 C109 1.375 . S
H108 C107 0.950 . S
C109 C107 1.375 . S
C109 C111 1.382 . S
C109 H113 0.950 . S
H110 C105 0.949 . S
C111 C106 1.399 . S
C111 C109 1.382 . S
C111 H112 0.952 . S
H112 C111 0.952 . S
H113 C109 0.950 . S
H114 C115 0.949 . S
C115 H114 0.949 . S
C115 C116 1.395 . S
C115 C117 1.391 . S
C116 C115 1.395 . S
C116 C119 1.390 . S
C117 C115 1.391 . S
C117 C121 1.387 . S
C117 C122 1.491 . S
H118 C119 0.950 . S
C119 C116 1.390 . S
C119 H118 0.950 . S
C119 C120 1.378 . S
C120 C119 1.378 . S
C120 C121 1.409 . S
C121 C117 1.387 . S
C121 C120 1.409 . S
C121 H123 0.951 . S
C122 C117 1.491 . S
C122 C124 1.382 . S
C122 C126 1.404 . S
H123 C121 0.951 . S
C124 C122 1.382 . S
C124 C125 1.390 . S
C124 H129 0.949 . S
C125 C124 1.390 . S
C125 C130 1.399 . S
C126 C122 1.404 . S
C126 H127 0.950 . S
C126 C128 1.375 . S
H127 C126 0.950 . S
C128 C126 1.375 . S
C128 C130 1.382 . S
C128 H132 0.950 . S
H129 C124 0.949 . S
C130 C125 1.399 . S
C130 C128 1.382 . S
C130 H131 0.952 . S
H131 C130 0.952 . S
H132 C128 0.950 . S
H133 C134 0.949 . S
C134 H133 0.949 . S
C134 C135 1.395 . S
C134 C136 1.391 . S
C135 C134 1.395 . S
C135 C138 1.390 . S
C136 C134 1.391 . S
C136 C140 1.387 . S
C136 C141 1.491 . S
H137 C138 0.950 . S
C138 C135 1.390 . S
C138 H137 0.950 . S
C138 C139 1.378 . S
C139 C138 1.378 . S
C139 C140 1.409 . S
C140 C136 1.387 . S
C140 C139 1.409 . S
C140 H142 0.951 . S
C141 C136 1.491 . S
C141 C143 1.382 . S
C141 C145 1.404 . S
H142 C140 0.951 . S
C143 C141 1.382 . S
C143 C144 1.390 . S
C143 H148 0.949 . S
C144 C143 1.390 . S
C144 C149 1.399 . S
C145 C141 1.404 . S
C145 H146 0.950 . S
C145 C147 1.375 . S
H146 C145 0.950 . S
C147 C145 1.375 . S
C147 C149 1.382 . S
C147 H151 0.950 . S
H148 C143 0.949 . S
C149 C144 1.399 . S
C149 C147 1.382 . S
C149 H150 0.952 . S
H150 C149 0.952 . S
H151 C147 0.950 . S
H152 C153 0.949 . S
C153 H152 0.949 . S
C153 C154 1.395 . S
C153 C155 1.391 . S
C154 C153 1.395 . S
C154 C157 1.390 . S
C155 C153 1.391 . S
C155 C159 1.387 . S
C155 C160 1.491 . S
H156 C157 0.950 . S
C157 C154 1.390 . S
C157 H156 0.950 . S
C157 C158 1.378 . S
C158 C157 1.378 . S
C158 C159 1.409 . S
C159 C155 1.387 . S
C159 C158 1.409 . S
C159 H161 0.951 . S
C160 C155 1.491 . S
C160 C162 1.382 . S
C160 C164 1.404 . S
H161 C159 0.951 . S
C162 C160 1.382 . S
C162 C163 1.390 . S
C162 H167 0.949 . S
C163 C162 1.390 . S
C163 C168 1.399 . S
C164 C160 1.404 . S
C164 H165 0.950 . S
C164 C166 1.375 . S
H165 C164 0.950 . S
C166 C164 1.375 . S
C166 C168 1.382 . S
C166 H170 0.950 . S
H167 C162 0.949 . S
C168 C163 1.399 . S
C168 C166 1.382 . S
C168 H169 0.952 . S
H169 C168 0.952 . S
H170 C166 0.950 . S
H171 C172 0.949 . S
C172 H171 0.949 . S
C172 C173 1.395 . S
C172 C174 1.391 . S
C173 C172 1.395 . S
C173 C176 1.390 . S
C174 C172 1.391 . S
C174 C178 1.387 . S
C174 C179 1.491 . S
H175 C176 0.950 . S
C176 C173 1.390 . S
C176 H175 0.950 . S
C176 C177 1.378 . S
C177 C176 1.378 . S
C177 C178 1.409 . S
C178 C174 1.387 . S
C178 C177 1.409 . S
C178 H180 0.951 . S
C179 C174 1.491 . S
C179 C181 1.382 . S
C179 C183 1.404 . S
H180 C178 0.951 . S
C181 C179 1.382 . S
C181 C182 1.390 . S
C181 H186 0.949 . S
C182 C181 1.390 . S
C182 C187 1.399 . S
C183 C179 1.404 . S
C183 H184 0.950 . S
C183 C185 1.375 . S
H184 C183 0.950 . S
C185 C183 1.375 . S
C185 C187 1.382 . S
C185 H189 0.950 . S
H186 C181 0.949 . S
C187 C182 1.399 . S
C187 C185 1.382 . S
C187 H188 0.952 . S
H188 C187 0.952 . S
H189 C185 0.950 . S
H190 C191 0.949 . S
C191 H190 0.949 . S
C191 C192 1.395 . S
C191 C193 1.391 . S
C192 C191 1.395 . S
C192 C195 1.390 . S
C193 C191 1.391 . S
C193 C197 1.387 . S
C193 C198 1.491 . S
H194 C195 0.950 . S
C195 C192 1.390 . S
C195 H194 0.950 . S
C195 C196 1.378 . S
C196 C195 1.378 . S
C196 C197 1.409 . S
C197 C193 1.387 . S
C197 C196 1.409 . S
C197 H199 0.951 1_556 S
C198 C193 1.491 . S
C198 C200 1.382 . S
C198 C202 1.404 1_556 S
H199 C197 0.951 1_554 S
C200 C198 1.382 . S
C200 C201 1.390 1_556 S
C200 H205 0.949 . S
C201 C200 1.390 1_554 S
C201 C206 1.399 . S
C202 C198 1.404 1_554 S
C202 H203 0.950 . S
C202 C204 1.375 . S
H203 C202 0.950 . S
C204 C202 1.375 . S
C204 C206 1.382 . S
C204 H208 0.950 . S
H205 C200 0.949 . S
C206 C201 1.399 . S
C206 C204 1.382 . S
C206 H207 0.952 . S
H207 C206 0.952 . S
H208 C204 0.950 . S
H209 C210 0.949 . S
C210 H209 0.949 . S
C210 C211 1.395 . S
C210 C212 1.391 . S
C211 C210 1.395 . S
C211 C214 1.390 . S
C212 C210 1.391 . S
C212 C216 1.387 . S
C212 C217 1.491 . S
H213 C214 0.950 . S
C214 C211 1.390 . S
C214 H213 0.950 . S
C214 C215 1.378 . S
C215 C214 1.378 . S
C215 C216 1.409 . S
C216 C212 1.387 . S
C216 C215 1.409 . S
C216 H218 0.951 1_556 S
C217 C212 1.491 . S
C217 C219 1.382 . S
C217 C221 1.404 . S
H218 C216 0.951 1_554 S
C219 C217 1.382 . S
C219 C220 1.390 . S
C219 H224 0.949 . S
C220 C219 1.390 . S
C220 C225 1.393 1_556 S
C221 C217 1.404 . S
C221 H222 0.950 . S
C221 C223 1.375 1_556 S
H222 C221 0.950 . S
C223 C221 1.375 1_554 S
C223 C225 1.380 . S
C223 H227 0.950 . S
H224 C219 0.949 . S
C225 C220 1.393 1_554 S
C225 C223 1.380 . S
C225 H226 0.961 . S
H226 C225 0.961 . S
H227 C223 0.950 . S
H228 C229 0.949 . S
C229 H228 0.949 . S
C229 C230 1.395 . S
C229 C231 1.391 . S
C230 C229 1.395 . S
C230 C233 1.390 . S
C231 C229 1.391 . S
C231 C235 1.387 . S
C231 C236 1.491 . S
H232 C233 0.950 . S
C233 C230 1.390 . S
C233 H232 0.950 . S
C233 C234 1.378 . S
C234 C233 1.378 . S
C234 C235 1.409 . S
C235 C231 1.387 . S
C235 C234 1.409 . S
C235 H237 0.951 . S
C236 C231 1.491 . S
C236 C238 1.382 . S
C236 C240 1.404 . S
H237 C235 0.951 . S
C238 C236 1.382 . S
C238 C239 1.390 . S
C238 H243 0.949 . S
C239 C238 1.390 . S
C239 C244 1.399 . S
C240 C236 1.404 . S
C240 H241 0.950 . S
C240 C242 1.375 1_554 S
H241 C240 0.950 . S
C242 C240 1.375 1_556 S
C242 C244 1.382 1_556 S
C242 H246 0.950 . S
H243 C238 0.949 . S
C244 C239 1.399 . S
C244 C242 1.382 1_554 S
C244 H245 0.952 1_554 S
H245 C244 0.952 1_556 S
H246 C242 0.950 . S
H247 C248 0.949 . S
C248 H247 0.949 . S
C248 C249 1.395 . S
C248 C250 1.391 . S
C249 C248 1.395 . S
C249 C252 1.390 . S
C250 C248 1.391 . S
C250 C254 1.387 . S
C250 C255 1.491 . S
H251 C252 0.950 . S
C252 C249 1.390 . S
C252 H251 0.950 . S
C252 C253 1.378 . S
C253 C252 1.378 . S
C253 C254 1.409 . S
C254 C250 1.387 . S
C254 C253 1.409 . S
C254 H256 0.951 . S
C255 C250 1.491 . S
C255 C257 1.382 . S
C255 C259 1.404 . S
H256 C254 0.951 . S
C257 C255 1.382 . S
C257 C258 1.390 . S
C257 H262 0.949 . S
C258 C257 1.390 . S
C258 C263 1.399 . S
C259 C255 1.404 . S
C259 H260 0.950 . S
C259 C261 1.375 . S
H260 C259 0.950 . S
C261 C259 1.375 . S
C261 C263 1.382 . S
C261 H265 0.950 . S
H262 C257 0.949 . S
C263 C258 1.399 . S
C263 C261 1.382 . S
C263 H264 0.952 1_554 S
H264 C263 0.952 1_556 S
H265 C261 0.950 . S
H266 C267 0.949 . S
C267 H266 0.949 . S
C267 C268 1.395 . S
C267 C269 1.391 . S
C268 C267 1.395 . S
C268 C271 1.390 . S
C269 C267 1.391 . S
C269 C273 1.387 . S
C269 C274 1.491 . S
H270 C271 0.950 . S
C271 C268 1.390 . S
C271 H270 0.950 . S
C271 C272 1.378 . S
C272 C271 1.378 . S
C272 C273 1.409 . S
C273 C269 1.387 . S
C273 C272 1.409 . S
C273 H275 0.951 . S
C274 C269 1.491 . S
C274 C276 1.382 . S
C274 C278 1.404 . S
H275 C273 0.951 . S
C276 C274 1.382 . S
C276 C277 1.390 . S
C276 H281 0.949 . S
C277 C276 1.390 . S
C277 C282 1.399 . S
C278 C274 1.404 . S
C278 H279 0.950 . S
C278 C280 1.375 . S
H279 C278 0.950 . S
C280 C278 1.375 . S
C280 C282 1.382 . S
C280 H284 0.950 . S
H281 C276 0.949 . S
C282 C277 1.399 . S
C282 C280 1.382 . S
C282 H283 0.952 . S
H283 C282 0.952 . S
H284 C280 0.950 . S
H285 C286 0.949 . S
C286 H285 0.949 . S
C286 C287 1.395 . S
C286 C288 1.391 . S
C287 C286 1.395 . S
C287 C290 1.390 . S
C288 C286 1.391 . S
C288 C292 1.387 . S
C288 C293 1.491 . S
H289 C290 0.950 . S
C290 C287 1.390 . S
C290 H289 0.950 . S
C290 C291 1.378 . S
C291 C290 1.378 . S
C291 C292 1.409 . S
C292 C288 1.387 . S
C292 C291 1.409 . S
C292 H294 0.951 . S
C293 C288 1.491 . S
C293 C295 1.382 . S
C293 C297 1.404 . S
H294 C292 0.951 . S
C295 C293 1.382 . S
C295 C296 1.390 . S
C295 H300 0.949 . S
C296 C295 1.390 . S
C296 C301 1.399 . S
C297 C293 1.404 . S
C297 H298 0.950 . S
C297 C299 1.375 . S
H298 C297 0.950 . S
C299 C297 1.375 . S
C299 C301 1.382 . S
C299 H303 0.950 . S
H300 C295 0.949 . S
C301 C296 1.399 . S
C301 C299 1.382 . S
C301 H302 0.952 . S
H302 C301 0.952 . S
H303 C299 0.950 . S
H304 C305 0.949 . S
C305 H304 0.949 . S
C305 C306 1.395 . S
C305 C307 1.391 . S
C306 C305 1.395 . S
C306 C309 1.390 . S
C307 C305 1.391 . S
C307 C311 1.387 . S
C307 C312 1.491 . S
H308 C309 0.950 . S
C309 C306 1.390 . S
C309 H308 0.950 . S
C309 C310 1.378 . S
C310 C309 1.378 . S
C310 C311 1.409 . S
C311 C307 1.387 . S
C311 C310 1.409 . S
C311 H313 0.951 . S
C312 C307 1.491 . S
C312 C314 1.382 . S
C312 C316 1.404 . S
H313 C311 0.951 . S
C314 C312 1.382 . S
C314 C315 1.390 . S
C314 H319 0.949 . S
C315 C314 1.390 . S
C315 C320 1.399 . S
C316 C312 1.404 . S
C316 H317 0.950 . S
C316 C318 1.375 . S
H317 C316 0.950 . S
C318 C316 1.375 . S
C318 C320 1.382 . S
C318 H322 0.950 . S
H319 C314 0.949 . S
C320 C315 1.399 . S
C320 C318 1.382 . S
C320 H321 0.952 . S
H321 C320 0.952 . S
H322 C318 0.950 . S
H323 C324 0.949 . S
C324 H323 0.949 . S
C324 C325 1.395 . S
C324 C326 1.391 . S
C325 C324 1.395 . S
C325 C328 1.390 . S
C326 C324 1.391 . S
C326 C330 1.387 . S
C326 C331 1.491 . S
H327 C328 0.950 . S
C328 C325 1.390 . S
C328 H327 0.950 . S
C328 C329 1.378 . S
C329 C328 1.378 . S
C329 C330 1.409 . S
C330 C326 1.387 . S
C330 C329 1.409 . S
C330 H332 0.951 . S
C331 C326 1.491 . S
C331 C333 1.382 . S
C331 C335 1.404 . S
H332 C330 0.951 . S
C333 C331 1.382 . S
C333 C334 1.390 . S
C333 H338 0.949 . S
C334 C333 1.390 . S
C334 C339 1.399 . S
C335 C331 1.404 . S
C335 H336 0.950 . S
C335 C337 1.375 . S
H336 C335 0.950 . S
C337 C335 1.375 . S
C337 C339 1.382 . S
C337 H341 0.950 . S
H338 C333 0.949 . S
C339 C334 1.399 . S
C339 C337 1.382 . S
C339 H340 0.952 . S
H340 C339 0.952 . S
H341 C337 0.950 . S
Tb342 O345 2.453 . S
Tb342 O346 2.596 1_545 S
Tb342 O347 2.374 1_545 S
Tb342 O355 2.343 1_554 S
Tb342 O357 2.353 . S
Tb342 O359 2.427 . S
Tb342 O360 2.513 . S
C343 O347 1.251 . S
C343 O349 1.263 1_554 S
Tb344 O346 2.343 1_556 S
Tb344 O349 2.353 . S
Tb344 O352 2.427 1_556 S
Tb344 O353 2.513 1_556 S
Tb344 O354 2.453 . S
Tb344 O355 2.596 1_565 S
Tb344 O356 2.374 1_565 S
O345 Tb342 2.453 . S
O345 C361 1.245 1_545 S
O346 Tb342 2.596 1_565 S
O346 Tb344 2.343 1_554 S
O346 C361 1.259 . S
O347 Tb342 2.374 1_565 S
O347 C343 1.251 . S
C348 O352 1.275 . S
C348 O353 1.246 . S
O349 C343 1.263 1_556 S
O349 Tb344 2.353 . S
C350 O354 1.245 1_545 S
C350 O355 1.259 . S
C351 O356 1.250 1_554 S
C351 O357 1.263 . S
O352 Tb344 2.427 1_554 S
O352 C348 1.275 . S
O353 Tb344 2.513 1_554 S
O353 C348 1.246 . S
O354 Tb344 2.453 . S
O354 C350 1.245 1_565 S
O355 Tb342 2.343 1_556 S
O355 Tb344 2.596 1_545 S
O355 C350 1.259 . S
O356 Tb344 2.374 1_545 S
O356 C351 1.250 1_556 S
O357 Tb342 2.353 . S
O357 C351 1.263 . S
C358 O359 1.268 1_556 S
C358 O360 1.244 1_556 S
O359 Tb342 2.427 . S
O359 C358 1.268 1_554 S
O360 Tb342 2.513 . S
O360 C358 1.244 1_554 S
C361 O345 1.245 1_565 S
C361 O346 1.259 . S
Tb362 O365 2.472 . S
Tb362 O366 2.596 1_655 S
Tb362 O367 2.374 1_655 S
Tb362 O375 2.343 1_554 S
Tb362 O377 2.353 . S
Tb362 O379 2.422 1_554 S
Tb362 O380 2.513 1_554 S
C363 O367 1.251 . S
C363 O369 1.263 1_554 S
Tb364 O366 2.343 1_556 S
Tb364 O369 2.353 . S
Tb364 O372 2.427 1_556 S
Tb364 O373 2.513 1_556 S
Tb364 O374 2.453 . S
Tb364 O375 2.596 1_455 S
Tb364 O376 2.374 1_455 S
O365 Tb362 2.472 . S
O365 C381 1.208 1_655 S
O366 Tb362 2.596 1_455 S
O366 Tb364 2.343 1_554 S
O366 C381 1.259 . S
O367 Tb362 2.374 1_455 S
O367 C363 1.251 . S
C368 O372 1.275 . S
C368 O373 1.246 . S
O369 C363 1.263 1_556 S
O369 Tb364 2.353 . S
C370 O374 1.245 1_655 S
C370 O375 1.259 . S
C371 O376 1.250 1_554 S
C371 O377 1.263 . S
O372 Tb364 2.427 1_554 S
O372 C368 1.275 . S
O373 Tb364 2.513 1_554 S
O373 C368 1.246 . S
O374 Tb364 2.453 . S
O374 C370 1.245 1_455 S
O375 Tb362 2.343 1_556 S
O375 Tb364 2.596 1_655 S
O375 C370 1.259 . S
O376 Tb364 2.374 1_655 S
O376 C371 1.250 1_556 S
O377 Tb362 2.353 . S
O377 C371 1.263 . S
C378 O379 1.281 . S
C378 O380 1.246 . S
O379 Tb362 2.422 1_556 S
O379 C378 1.281 . S
O380 Tb362 2.513 1_556 S
O380 C378 1.246 . S
C381 O365 1.208 1_455 S
C381 O366 1.259 . S
Tb382 O385 2.453 . S
Tb382 O386 2.596 . S
Tb382 O387 2.374 1_556 S
Tb382 O395 2.343 1_556 S
Tb382 O397 2.353 . S
Tb382 O399 2.427 1_556 S
Tb382 O400 2.513 1_556 S
C383 O387 1.251 . S
C383 O389 1.263 . S
Tb384 O386 2.343 1_554 S
Tb384 O389 2.353 . S
Tb384 O392 2.427 . S
Tb384 O393 2.513 1_554 S
Tb384 O394 2.453 . S
Tb384 O395 2.596 . S
Tb384 O396 2.374 . S
O385 Tb382 2.453 . S
O385 C401 1.245 . S
O386 Tb382 2.596 . S
O386 Tb384 2.343 1_556 S
O386 C401 1.259 . S
O387 Tb382 2.374 1_554 S
O387 C383 1.251 . S
C388 O392 1.275 1_556 S
C388 O393 1.246 . S
O389 C383 1.263 . S
O389 Tb384 2.353 . S
C390 O394 1.245 . S
C390 O395 1.259 . S
C391 O396 1.250 . S
C391 O397 1.263 1_554 S
O392 Tb384 2.427 . S
O392 C388 1.275 1_554 S
O393 Tb384 2.513 1_556 S
O393 C388 1.246 . S
O394 Tb384 2.453 . S
O394 C390 1.245 . S
O395 Tb382 2.343 1_554 S
O395 Tb384 2.596 . S
O395 C390 1.259 . S
O396 Tb384 2.374 . S
O396 C391 1.250 . S
O397 Tb382 2.353 . S
O397 C391 1.263 1_556 S
C398 O399 1.275 . S
C398 O400 1.246 . S
O399 Tb382 2.427 1_554 S
O399 C398 1.275 . S
O400 Tb382 2.513 1_554 S
O400 C398 1.246 . S
C401 O385 1.245 . S
C401 O386 1.259 . S
Tb402 O405 2.453 . S
Tb402 O406 2.596 . S
Tb402 O407 2.374 . S
Tb402 O415 2.343 . S
Tb402 O417 2.353 . S
Tb402 O419 2.427 . S
Tb402 O420 2.513 . S
C403 O407 1.251 . S
C403 O409 1.263 . S
Tb404 O406 2.343 . S
Tb404 O409 2.353 . S
Tb404 O412 2.427 . S
Tb404 O413 2.513 . S
Tb404 O414 2.453 . S
Tb404 O415 2.596 . S
Tb404 O416 2.374 . S
O405 Tb402 2.453 . S
O405 C421 1.245 . S
O406 Tb402 2.596 . S
O406 Tb404 2.343 . S
O406 C421 1.259 . S
O407 Tb402 2.374 . S
O407 C403 1.251 . S
C408 O412 1.275 . S
C408 O413 1.246 . S
O409 C403 1.263 . S
O409 Tb404 2.353 . S
C410 O414 1.245 . S
C410 O415 1.259 . S
C411 O416 1.250 . S
C411 O417 1.263 . S
O412 Tb404 2.427 . S
O412 C408 1.275 . S
O413 Tb404 2.513 . S
O413 C408 1.246 . S
O414 Tb404 2.453 . S
O414 C410 1.245 . S
O415 Tb402 2.343 . S
O415 Tb404 2.596 . S
O415 C410 1.259 . S
O416 Tb404 2.374 . S
O416 C411 1.250 . S
O417 Tb402 2.353 . S
O417 C411 1.263 . S
C418 O419 1.275 . S
C418 O420 1.246 . S
O419 Tb402 2.427 . S
O419 C418 1.275 . S
O420 Tb402 2.513 . S
O420 C418 1.246 . S
C421 O405 1.245 . S
C421 O406 1.259 . S
Tb422 O425 2.453 . S
Tb422 O426 2.596 . S
Tb422 O427 2.374 . S
Tb422 O435 2.343 . S
Tb422 O437 2.353 . S
Tb422 O439 2.427 . S
Tb422 O440 2.513 . S
C423 O427 1.251 . S
C423 O429 1.263 . S
Tb424 O426 2.343 . S
Tb424 O429 2.353 . S
Tb424 O432 2.427 . S
Tb424 O433 2.513 . S
Tb424 O434 2.453 . S
Tb424 O435 2.596 . S
Tb424 O436 2.374 . S
O425 Tb422 2.453 . S
O425 C441 1.245 . S
O426 Tb422 2.596 . S
O426 Tb424 2.343 . S
O426 C441 1.259 . S
O427 Tb422 2.374 . S
O427 C423 1.251 . S
C428 O432 1.275 . S
C428 O433 1.246 . S
O429 C423 1.263 . S
O429 Tb424 2.353 . S
C430 O434 1.245 . S
C430 O435 1.259 . S
C431 O436 1.250 . S
C431 O437 1.263 . S
O432 Tb424 2.427 . S
O432 C428 1.275 . S
O433 Tb424 2.513 . S
O433 C428 1.246 . S
O434 Tb424 2.453 . S
O434 C430 1.245 . S
O435 Tb422 2.343 . S
O435 Tb424 2.596 . S
O435 C430 1.259 . S
O436 Tb424 2.374 . S
O436 C431 1.250 . S
O437 Tb422 2.353 . S
O437 C431 1.263 . S
C438 O439 1.275 . S
C438 O440 1.246 . S
O439 Tb422 2.427 . S
O439 C438 1.275 . S
O440 Tb422 2.513 . S
O440 C438 1.246 . S
C441 O425 1.245 . S
C441 O426 1.259 . S
Tb442 O445 2.453 . S
Tb442 O446 2.596 . S
Tb442 O447 2.374 . S
Tb442 O455 2.343 . S
Tb442 O457 2.353 . S
Tb442 O459 2.427 . S
Tb442 O460 2.513 . S
C443 O447 1.251 . S
C443 O449 1.263 . S
Tb444 O446 2.343 . S
Tb444 O449 2.353 . S
Tb444 O452 2.427 . S
Tb444 O453 2.513 . S
Tb444 O454 2.453 . S
Tb444 O455 2.596 . S
Tb444 O456 2.374 . S
O445 Tb442 2.453 . S
O445 C461 1.245 . S
O446 Tb442 2.596 . S
O446 Tb444 2.343 . S
O446 C461 1.259 . S
O447 Tb442 2.374 . S
O447 C443 1.251 . S
C448 O452 1.275 . S
C448 O453 1.246 . S
O449 C443 1.263 . S
O449 Tb444 2.353 . S
C450 O454 1.245 . S
C450 O455 1.259 . S
C451 O456 1.250 . S
C451 O457 1.263 . S
O452 Tb444 2.427 . S
O452 C448 1.275 . S
O453 Tb444 2.513 . S
O453 C448 1.246 . S
O454 Tb444 2.453 . S
O454 C450 1.245 . S
O455 Tb442 2.343 . S
O455 Tb444 2.596 . S
O455 C450 1.259 . S
O456 Tb444 2.374 . S
O456 C451 1.250 . S
O457 Tb442 2.353 . S
O457 C451 1.263 . S
C458 O459 1.275 . S
C458 O460 1.246 . S
O459 Tb442 2.427 . S
O459 C458 1.275 . S
O460 Tb442 2.513 . S
O460 C458 1.246 . S
C461 O445 1.245 . S
C461 O446 1.259 . S
Tb462 O465 2.453 . S
Tb462 O466 2.596 . S
Tb462 O467 2.374 . S
Tb462 O475 2.343 . S
Tb462 O477 2.353 . S
Tb462 O479 2.427 . S
Tb462 O480 2.513 . S
C463 O467 1.251 . S
C463 O469 1.263 . S
Tb464 O466 2.343 . S
Tb464 O469 2.353 . S
Tb464 O472 2.427 . S
Tb464 O473 2.513 . S
Tb464 O474 2.453 . S
Tb464 O475 2.596 . S
Tb464 O476 2.374 . S
O465 Tb462 2.453 . S
O465 C481 1.245 . S
O466 Tb462 2.596 . S
O466 Tb464 2.343 . S
O466 C481 1.259 . S
O467 Tb462 2.374 . S
O467 C463 1.251 . S
C468 O472 1.275 . S
C468 O473 1.246 . S
O469 C463 1.263 . S
O469 Tb464 2.353 . S
C470 O474 1.245 . S
C470 O475 1.259 . S
C471 O476 1.250 . S
C471 O477 1.263 . S
O472 Tb464 2.427 . S
O472 C468 1.275 . S
O473 Tb464 2.513 . S
O473 C468 1.246 . S
O474 Tb464 2.453 . S
O474 C470 1.245 . S
O475 Tb462 2.343 . S
O475 Tb464 2.596 . S
O475 C470 1.259 . S
O476 Tb464 2.374 . S
O476 C471 1.250 . S
O477 Tb462 2.353 . S
O477 C471 1.263 . S
C478 O479 1.275 . S
C478 O480 1.246 . S
O479 Tb462 2.427 . S
O479 C478 1.275 . S
O480 Tb462 2.513 . S
O480 C478 1.246 . S
C481 O465 1.245 . S
C481 O466 1.259 . S
Tb482 O485 2.453 . S
Tb482 O486 2.596 . S
Tb482 O487 2.374 . S
Tb482 O495 2.343 . S
Tb482 O497 2.353 . S
Tb482 O499 2.427 . S
Tb482 O500 2.513 . S
C483 O487 1.251 . S
C483 O489 1.263 . S
Tb484 O486 2.343 . S
Tb484 O489 2.353 . S
Tb484 O492 2.427 . S
Tb484 O493 2.513 . S
Tb484 O494 2.453 . S
Tb484 O495 2.596 . S
Tb484 O496 2.374 . S
O485 Tb482 2.453 . S
O485 C501 1.245 . S
O486 Tb482 2.596 . S
O486 Tb484 2.343 . S
O486 C501 1.259 . S
O487 Tb482 2.374 . S
O487 C483 1.251 . S
C488 O492 1.275 . S
C488 O493 1.246 . S
O489 C483 1.263 . S
O489 Tb484 2.353 . S
C490 O494 1.245 . S
C490 O495 1.259 . S
C491 O496 1.250 . S
C491 O497 1.263 . S
O492 Tb484 2.427 . S
O492 C488 1.275 . S
O493 Tb484 2.513 . S
O493 C488 1.246 . S
O494 Tb484 2.453 . S
O494 C490 1.245 . S
O495 Tb482 2.343 . S
O495 Tb484 2.596 . S
O495 C490 1.259 . S
O496 Tb484 2.374 . S
O496 C491 1.250 . S
O497 Tb482 2.353 . S
O497 C491 1.263 . S
C498 O499 1.275 . S
C498 O500 1.246 . S
O499 Tb482 2.427 . S
O499 C498 1.275 . S
O500 Tb482 2.513 . S
O500 C498 1.246 . S
C501 O485 1.245 . S
C501 O486 1.259 . S
Tb502 O505 2.453 . S
Tb502 O506 2.596 . S
Tb502 O507 2.374 . S
Tb502 O515 2.343 . S
Tb502 O517 2.353 . S
Tb502 O519 2.427 . S
Tb502 O520 2.513 . S
C503 O507 1.251 . S
C503 O509 1.263 . S
Tb504 O506 2.343 . S
Tb504 O509 2.353 . S
Tb504 O512 2.427 . S
Tb504 O513 2.513 . S
Tb504 O514 2.453 . S
Tb504 O515 2.596 . S
Tb504 O516 2.374 . S
O505 Tb502 2.453 . S
O505 C521 1.245 . S
O506 Tb502 2.596 . S
O506 Tb504 2.343 . S
O506 C521 1.259 . S
O507 Tb502 2.374 . S
O507 C503 1.251 . S
C508 O512 1.275 . S
C508 O513 1.246 . S
O509 C503 1.263 . S
O509 Tb504 2.353 . S
C510 O514 1.245 . S
C510 O515 1.259 . S
C511 O516 1.250 . S
C511 O517 1.263 . S
O512 Tb504 2.427 . S
O512 C508 1.275 . S
O513 Tb504 2.513 . S
O513 C508 1.246 . S
O514 Tb504 2.453 . S
O514 C510 1.245 . S
O515 Tb502 2.343 . S
O515 Tb504 2.596 . S
O515 C510 1.259 . S
O516 Tb504 2.374 . S
O516 C511 1.250 . S
O517 Tb502 2.353 . S
O517 C511 1.263 . S
C518 O519 1.275 . S
C518 O520 1.246 . S
O519 Tb502 2.427 . S
O519 C518 1.275 . S
O520 Tb502 2.513 . S
O520 C518 1.246 . S
C521 O505 1.245 . S
C521 O506 1.259 . S
C522 C523 1.387 . S
C522 H526 0.950 . S
C522 C531 1.390 . S
C523 C522 1.387 . S
C523 C525 1.387 . S
H524 C531 0.950 . S
C525 C523 1.387 . S
C525 C527 1.390 . S
C525 H529 0.950 1_554 S
H526 C522 0.950 . S
C527 C525 1.390 . S
C527 C528 1.387 . S
C527 H530 0.950 1_554 S
C528 C527 1.387 . S
C528 C531 1.387 . S
H529 C525 0.950 1_556 S
H530 C527 0.950 1_556 S
C531 C522 1.390 . S
C531 H524 0.950 . S
C531 C528 1.387 . S
C532 C533 1.387 . S
C532 H536 0.950 . S
C532 C541 1.390 . S
C533 C532 1.387 . S
C533 C535 1.387 . S
H534 C541 0.950 . S
C535 C533 1.387 . S
C535 C537 1.390 . S
C535 H539 0.950 . S
H536 C532 0.950 . S
C537 C535 1.390 . S
C537 C538 1.387 . S
C537 H540 0.950 . S
C538 C537 1.387 . S
C538 C541 1.387 . S
H539 C535 0.950 . S
H540 C537 0.950 . S
C541 C532 1.390 . S
C541 H534 0.950 . S
C541 C538 1.387 . S
C542 C543 1.387 . S
C542 H546 0.950 . S
C542 C551 1.390 . S
C543 C542 1.387 . S
C543 C545 1.387 1_554 S
H544 C551 0.950 . S
C545 C543 1.387 1_556 S
C545 C547 1.390 . S
C545 H549 0.950 . S
H546 C542 0.950 . S
C547 C545 1.390 . S
C547 C548 1.387 1_556 S
C547 H550 0.950 . S
C548 C547 1.387 1_554 S
C548 C551 1.387 . S
H549 C545 0.950 . S
H550 C547 0.950 . S
C551 C542 1.390 . S
C551 H544 0.950 . S
C551 C548 1.387 . S
C552 C553 1.387 1_554 S
C552 H556 0.950 . S
C552 C561 1.390 . S
C553 C552 1.387 1_556 S
C553 C555 1.387 . S
H554 C561 0.950 . S
C555 C553 1.387 . S
C555 C557 1.390 . S
C555 H559 0.950 . S
H556 C552 0.950 . S
C557 C555 1.390 . S
C557 C558 1.387 . S
C557 H560 0.950 . S
C558 C557 1.387 . S
C558 C561 1.387 1_556 S
H559 C555 0.950 . S
H560 C557 0.950 . S
C561 C552 1.390 . S
C561 H554 0.950 . S
C561 C558 1.387 1_554 S
C562 C563 1.387 . S
C562 H566 0.950 . S
C562 C571 1.390 . S
C563 C562 1.387 . S
C563 C565 1.387 . S
H564 C571 0.950 . S
C565 C563 1.387 . S
C565 C567 1.390 . S
C565 H569 0.950 . S
H566 C562 0.950 . S
C567 C565 1.390 . S
C567 C568 1.387 . S
C567 H570 0.950 . S
C568 C567 1.387 . S
C568 C571 1.387 . S
H569 C565 0.950 . S
H570 C567 0.950 . S
C571 C562 1.390 . S
C571 H564 0.950 . S
C571 C568 1.387 . S
C572 C573 1.387 . S
C572 H576 0.950 . S
C572 C581 1.390 . S
C573 C572 1.387 . S
C573 C575 1.387 1_556 S
H574 C581 0.950 . S
C575 C573 1.387 1_554 S
C575 C577 1.390 . S
C575 H579 0.950 . S
H576 C572 0.950 . S
C577 C575 1.390 . S
C577 C578 1.387 . S
C577 H580 0.950 . S
C578 C577 1.387 . S
C578 C581 1.387 1_554 S
H579 C575 0.950 . S
H580 C577 0.950 . S
C581 C572 1.390 . S
C581 H574 0.950 . S
C581 C578 1.387 1_556 S
C582 C583 1.387 1_554 S
C582 H586 0.950 . S
C582 C591 1.390 . S
C583 C582 1.387 1_556 S
C583 C585 1.387 . S
H584 C591 0.950 . S
C585 C583 1.387 . S
C585 C587 1.390 . S
C585 H589 0.950 . S
H586 C582 0.950 . S
C587 C585 1.390 . S
C587 C588 1.387 . S
C587 H590 0.950 . S
C588 C587 1.387 . S
C588 C591 1.387 1_556 S
H589 C585 0.950 . S
H590 C587 0.950 . S
C591 C582 1.390 . S
C591 H584 0.950 . S
C591 C588 1.387 1_554 S
C592 C593 1.387 . S
C592 H596 0.950 . S
C592 C601 1.390 . S
C593 C592 1.387 . S
C593 C595 1.387 1_556 S
H594 C601 0.950 . S
C595 C593 1.387 1_554 S
C595 C597 1.390 . S
C595 H599 0.950 . S
H596 C592 0.950 . S
C597 C595 1.390 . S
C597 C598 1.387 1_554 S
C597 H600 0.950 . S
C598 C597 1.387 1_556 S
C598 C601 1.387 . S
H599 C595 0.950 . S
H600 C597 0.950 . S
C601 C592 1.390 . S
C601 H594 0.950 . S
C601 C598 1.387 . S
C602 C603 1.387 . S
C602 H606 0.950 . S
C602 C611 1.390 . S
C603 C602 1.387 . S
C603 C605 1.387 1_554 S
H604 C611 0.950 . S
C605 C603 1.387 1_556 S
C605 C607 1.390 . S
C605 H609 0.950 . S
H606 C602 0.950 . S
C607 C605 1.390 . S
C607 C608 1.387 1_556 S
C607 H610 0.950 . S
C608 C607 1.387 1_554 S
C608 C611 1.387 . S
H609 C605 0.950 . S
H610 C607 0.950 . S
C611 C602 1.390 . S
C611 H604 0.950 . S
C611 C608 1.387 . S
C612 C613 1.387 . S
C612 H616 0.950 . S
C612 C621 1.390 . S
C613 C612 1.387 . S
C613 C615 1.387 1_554 S
H614 C621 0.950 . S
C615 C613 1.387 1_556 S
C615 C617 1.390 . S
C615 H619 0.950 . S
H616 C612 0.950 . S
C617 C615 1.390 . S
C617 C618 1.387 1_556 S
C617 H620 0.950 . S
C618 C617 1.387 1_554 S
C618 C621 1.387 . S
H619 C615 0.950 . S
H620 C617 0.950 . S
C621 C612 1.390 . S
C621 H614 0.950 . S
C621 C618 1.387 . S
C622 C623 1.387 . S
C622 H626 0.950 . S
C622 C631 1.390 . S
C623 C622 1.387 . S
C623 C625 1.387 . S
H624 C631 0.950 . S
C625 C623 1.387 . S
C625 C627 1.390 . S
C625 H629 0.950 . S
H626 C622 0.950 . S
C627 C625 1.390 . S
C627 C628 1.387 . S
C627 H630 0.950 . S
C628 C627 1.387 . S
C628 C631 1.387 . S
H629 C625 0.950 . S
H630 C627 0.950 . S
C631 C622 1.390 . S
C631 H624 0.950 . S
C631 C628 1.387 . S
C632 C633 1.387 . S
C632 H636 0.950 . S
C632 C641 1.390 . S
C633 C632 1.387 . S
C633 C635 1.387 1_554 S
H634 C641 0.950 . S
C635 C633 1.387 1_556 S
C635 C637 1.390 . S
C635 H639 0.950 . S
H636 C632 0.950 . S
C637 C635 1.390 . S
C637 C638 1.387 1_556 S
C637 H640 0.950 . S
C638 C637 1.387 1_554 S
C638 C641 1.387 . S
H639 C635 0.950 . S
H640 C637 0.950 . S
C641 C632 1.390 . S
C641 H634 0.950 . S
C641 C638 1.387 . S
C642 C643 1.387 . S
C642 H646 0.950 . S
C642 C651 1.390 1_655 S
C643 C642 1.387 . S
C643 C645 1.387 . S
H644 C651 0.950 . S
C645 C643 1.387 . S
C645 C647 1.390 . S
C645 H649 0.950 . S
H646 C642 0.950 . S
C647 C645 1.390 . S
C647 C648 1.387 1_655 S
C647 H650 0.950 1_655 S
C648 C647 1.387 1_455 S
C648 C651 1.387 . S
H649 C645 0.950 . S
H650 C647 0.950 1_455 S
C651 C642 1.390 1_455 S
C651 H644 0.950 . S
C651 C648 1.387 . S
C652 C653 1.387 . S
C652 H656 0.950 . S
C652 C661 1.390 . S
C653 C652 1.387 . S
C653 C655 1.387 . S
H654 C661 0.950 . S
C655 C653 1.387 . S
C655 C657 1.390 . S
C655 H659 0.950 . S
H656 C652 0.950 . S
C657 C655 1.390 . S
C657 C658 1.387 . S
C657 H660 0.950 . S
C658 C657 1.387 . S
C658 C661 1.387 . S
H659 C655 0.950 . S
H660 C657 0.950 . S
C661 C652 1.390 . S
C661 H654 0.950 . S
C661 C658 1.387 . S
C662 C663 1.387 . S
C662 H666 0.950 . S
C662 C671 1.390 1_545 S
C663 C662 1.387 . S
C663 C665 1.387 . S
H664 C671 0.950 . S
C665 C663 1.387 . S
C665 C667 1.390 1_545 S
C665 H669 0.950 . S
H666 C662 0.950 . S
C667 C665 1.390 1_565 S
C667 C668 1.387 . S
C667 H670 0.950 . S
C668 C667 1.387 . S
C668 C671 1.387 . S
H669 C665 0.950 . S
H670 C667 0.950 . S
C671 C662 1.390 1_565 S
C671 H664 0.950 . S
C671 C668 1.387 . S
C672 C673 1.387 . S
C672 H676 0.950 . S
C672 C681 1.390 . S
C673 C672 1.387 . S
C673 C675 1.387 . S
H674 C681 0.950 . S
C675 C673 1.387 . S
C675 C677 1.390 . S
C675 H679 0.950 . S
H676 C672 0.950 . S
C677 C675 1.390 . S
C677 C678 1.387 . S
C677 H680 0.950 . S
C678 C677 1.387 . S
C678 C681 1.387 . S
H679 C675 0.950 . S
H680 C677 0.950 . S
C681 C672 1.390 . S
C681 H674 0.950 . S
C681 C678 1.387 . S
C682 C683 1.387 . S
C682 H686 0.950 . S
C682 C691 1.390 . S
C683 C682 1.387 . S
C683 C685 1.387 . S
H684 C691 0.950 . S
C685 C683 1.387 . S
C685 C687 1.390 . S
C685 H689 0.950 . S
H686 C682 0.950 . S
C687 C685 1.390 . S
C687 C688 1.387 . S
C687 H690 0.950 . S
C688 C687 1.387 . S
C688 C691 1.387 . S
H689 C685 0.950 . S
H690 C687 0.950 . S
C691 C682 1.390 . S
C691 H684 0.950 . S
C691 C688 1.387 . S
C692 C693 1.387 . S
C692 H696 0.950 . S
C692 C701 1.390 . S
C693 C692 1.387 . S
C693 C695 1.387 . S
H694 C701 0.950 . S
C695 C693 1.387 . S
C695 C697 1.390 . S
C695 H699 0.950 . S
H696 C692 0.950 . S
C697 C695 1.390 . S
C697 C698 1.387 . S
C697 H700 0.950 . S
C698 C697 1.387 . S
C698 C701 1.387 . S
H699 C695 0.950 . S
H700 C697 0.950 . S
C701 C692 1.390 . S
C701 H694 0.950 . S
C701 C698 1.387 . S
C702 C703 1.387 . S
C702 H706 0.950 . S
C702 C711 1.390 . S
C703 C702 1.387 . S
C703 C705 1.387 . S
H704 C711 0.950 . S
C705 C703 1.387 . S
C705 C707 1.390 . S
C705 H709 0.950 . S
H706 C702 0.950 . S
C707 C705 1.390 . S
C707 C708 1.387 . S
C707 H710 0.950 . S
C708 C707 1.387 . S
C708 C711 1.387 . S
H709 C705 0.950 . S
H710 C707 0.950 . S
C711 C702 1.390 . S
C711 H704 0.950 . S
C711 C708 1.387 . S
C712 C713 1.387 . S
C712 H716 0.950 . S
C712 C721 1.390 . S
C713 C712 1.387 . S
C713 C715 1.387 . S
H714 C721 0.950 . S
C715 C713 1.387 . S
C715 C717 1.390 . S
C715 H719 0.950 . S
H716 C712 0.950 . S
C717 C715 1.390 . S
C717 C718 1.387 . S
C717 H720 0.950 . S
C718 C717 1.387 . S
C718 C721 1.387 . S
H719 C715 0.950 . S
H720 C717 0.950 . S
C721 C712 1.390 . S
C721 H714 0.950 . S
C721 C718 1.387 . S
C722 C723 1.387 . S
C722 H726 0.950 . S
C722 C731 1.390 . S
C723 C722 1.387 . S
C723 C725 1.387 . S
H724 C731 0.950 . S
C725 C723 1.387 . S
C725 C727 1.390 . S
C725 H729 0.950 . S
H726 C722 0.950 . S
C727 C725 1.390 . S
C727 C728 1.387 . S
C727 H730 0.950 . S
C728 C727 1.387 . S
C728 C731 1.387 . S
H729 C725 0.950 . S
H730 C727 0.950 . S
C731 C722 1.390 . S
C731 H724 0.950 . S
C731 C728 1.387 . S
C732 C733 1.387 . S
C732 H736 0.950 . S
C732 C741 1.390 . S
C733 C732 1.387 . S
C733 C735 1.387 . S
H734 C741 0.950 . S
C735 C733 1.387 . S
C735 C737 1.390 . S
C735 H739 0.950 . S
H736 C732 0.950 . S
C737 C735 1.390 . S
C737 C738 1.387 . S
C737 H740 0.950 . S
C738 C737 1.387 . S
C738 C741 1.387 . S
H739 C735 0.950 . S
H740 C737 0.950 . S
C741 C732 1.390 . S
C741 H734 0.950 . S
C741 C738 1.387 . S
C742 C743 1.387 . S
C742 H746 0.950 . S
C742 C751 1.390 . S
C743 C742 1.387 . S
C743 C745 1.387 . S
H744 C751 0.950 . S
C745 C743 1.387 . S
C745 C747 1.390 . S
C745 H749 0.950 . S
H746 C742 0.950 . S
C747 C745 1.390 . S
C747 C748 1.387 . S
C747 H750 0.950 . S
C748 C747 1.387 . S
C748 C751 1.387 . S
H749 C745 0.950 . S
H750 C747 0.950 . S
C751 C742 1.390 . S
C751 H744 0.950 . S
C751 C748 1.387 . S
C752 C753 1.387 . S
C752 H756 0.950 . S
C752 C761 1.390 . S
C753 C752 1.387 . S
C753 C755 1.387 . S
H754 C761 0.950 . S
C755 C753 1.387 . S
C755 C757 1.390 . S
C755 H759 0.950 . S
H756 C752 0.950 . S
C757 C755 1.390 . S
C757 C758 1.387 . S
C757 H760 0.950 . S
C758 C757 1.387 . S
C758 C761 1.387 . S
H759 C755 0.950 . S
H760 C757 0.950 . S
C761 C752 1.390 . S
C761 H754 0.950 . S
C761 C758 1.387 . S
C762 C763 1.387 . S
C762 H766 0.950 . S
C762 C771 1.390 . S
C763 C762 1.387 . S
C763 C765 1.387 . S
H764 C771 0.950 . S
C765 C763 1.387 . S
C765 C767 1.390 . S
C765 H769 0.950 . S
H766 C762 0.950 . S
C767 C765 1.390 . S
C767 C768 1.387 . S
C767 H770 0.950 . S
C768 C767 1.387 . S
C768 C771 1.387 . S
H769 C765 0.950 . S
H770 C767 0.950 . S
C771 C762 1.390 . S
C771 H764 0.950 . S
C771 C768 1.387 . S
C772 C773 1.387 . S
C772 H776 0.950 . S
C772 C781 1.390 . S
C773 C772 1.387 . S
C773 C775 1.387 . S
H774 C781 0.950 . S
C775 C773 1.387 . S
C775 C777 1.390 . S
C775 H779 0.950 . S
H776 C772 0.950 . S
C777 C775 1.390 . S
C777 C778 1.387 . S
C777 H780 0.950 . S
C778 C777 1.387 . S
C778 C781 1.387 . S
H779 C775 0.950 . S
H780 C777 0.950 . S
C781 C772 1.390 . S
C781 H774 0.950 . S
C781 C778 1.387 . S
C782 C783 1.387 . S
C782 H786 0.950 . S
C782 C791 1.390 . S
C783 C782 1.387 . S
C783 C785 1.387 . S
H784 C791 0.950 . S
C785 C783 1.387 . S
C785 C787 1.390 . S
C785 H789 0.950 . S
H786 C782 0.950 . S
C787 C785 1.390 . S
C787 C788 1.387 . S
C787 H790 0.950 . S
C788 C787 1.387 . S
C788 C791 1.387 . S
H789 C785 0.950 . S
H790 C787 0.950 . S
C791 C782 1.390 . S
C791 H784 0.950 . S
C791 C788 1.387 . S
C792 C793 1.387 . S
C792 H796 0.950 . S
C792 C801 1.390 1_565 S
C793 C792 1.387 . S
C793 C795 1.387 . S
H794 C801 0.950 . S
C795 C793 1.387 . S
C795 C797 1.390 1_565 S
C795 H799 0.950 . S
H796 C792 0.950 . S
C797 C795 1.390 1_545 S
C797 C798 1.387 . S
C797 H800 0.950 . S
C798 C797 1.387 . S
C798 C801 1.387 . S
H799 C795 0.950 . S
H800 C797 0.950 . S
C801 C792 1.390 1_545 S
C801 H794 0.950 . S
C801 C798 1.387 . S
C802 C803 1.387 . S
C802 H806 0.950 . S
C802 C811 1.390 . S
C803 C802 1.387 . S
C803 C805 1.387 . S
H804 C811 0.950 . S
C805 C803 1.387 . S
C805 C807 1.390 1_455 S
C805 H809 0.950 . S
H806 C802 0.950 . S
C807 C805 1.390 1_655 S
C807 C808 1.387 . S
C807 H810 0.950 . S
C808 C807 1.387 . S
C808 C811 1.387 1_655 S
H809 C805 0.950 . S
H810 C807 0.950 . S
C811 C802 1.390 . S
C811 H804 0.950 . S
C811 C808 1.387 1_455 S
C812 C813 1.387 . S
C812 H816 0.950 . S
C812 C821 1.390 . S
C813 C812 1.387 . S
C813 C815 1.387 . S
H814 C821 0.950 . S
C815 C813 1.387 . S
C815 C817 1.390 . S
C815 H819 0.950 . S
H816 C812 0.950 . S
C817 C815 1.390 . S
C817 C818 1.387 . S
C817 H820 0.950 . S
C818 C817 1.387 . S
C818 C821 1.387 . S
H819 C815 0.950 . S
H820 C817 0.950 . S
C821 C812 1.390 . S
C821 H814 0.950 . S
C821 C818 1.387 . S
C822 C823 1.387 1_655 S
C822 H826 0.950 . S
C822 C831 1.390 . S
C823 C822 1.387 1_455 S
C823 C825 1.387 1_455 S
H824 C831 0.950 . S
C825 C823 1.387 1_655 S
C825 C827 1.390 . S
C825 H829 0.950 1_655 S
H826 C822 0.950 . S
C827 C825 1.390 . S
C827 C828 1.387 . S
C827 H830 0.950 . S
C828 C827 1.387 . S
C828 C831 1.387 . S
H829 C825 0.950 1_455 S
H830 C827 0.950 . S
C831 C822 1.390 . S
C831 H824 0.950 . S
C831 C828 1.387 . S
C832 C833 1.387 . S
C832 H836 0.950 . S
C832 C841 1.390 . S
C833 C832 1.387 . S
C833 C835 1.387 . S
H834 C841 0.950 . S
C835 C833 1.387 . S
C835 C837 1.390 . S
C835 H839 0.950 . S
H836 C832 0.950 . S
C837 C835 1.390 . S
C837 C838 1.387 . S
C837 H840 0.950 . S
C838 C837 1.387 . S
C838 C841 1.387 . S
H839 C835 0.950 . S
H840 C837 0.950 . S
C841 C832 1.390 . S
C841 H834 0.950 . S
C841 C838 1.387 . S
C842 C843 1.387 . S
C842 H846 0.950 . S
C842 C851 1.390 . S
C843 C842 1.387 . S
C843 C845 1.387 . S
H844 C851 0.950 . S
C845 C843 1.387 . S
C845 C847 1.390 . S
C845 H849 0.950 . S
H846 C842 0.950 . S
C847 C845 1.390 . S
C847 C848 1.387 . S
C847 H850 0.950 . S
C848 C847 1.387 . S
C848 C851 1.387 . S
H849 C845 0.950 . S
H850 C847 0.950 . S
C851 C842 1.390 . S
C851 H844 0.950 . S
C851 C848 1.387 . S
C852 C853 1.387 . S
C852 H856 0.950 . S
C852 C861 1.390 . S
C853 C852 1.387 . S
C853 C855 1.387 . S
H854 C861 0.950 . S
C855 C853 1.387 . S
C855 C857 1.390 . S
C855 H859 0.950 . S
H856 C852 0.950 . S
C857 C855 1.390 . S
C857 C858 1.387 . S
C857 H860 0.950 . S
C858 C857 1.387 . S
C858 C861 1.387 . S
H859 C855 0.950 . S
H860 C857 0.950 . S
C861 C852 1.390 . S
C861 H854 0.950 . S
C861 C858 1.387 . S
C862 C863 1.387 . S
C862 H866 0.950 . S
C862 C871 1.390 . S
C863 C862 1.387 . S
C863 C865 1.387 . S
H864 C871 0.950 . S
C865 C863 1.387 . S
C865 C867 1.390 . S
C865 H869 0.950 . S
H866 C862 0.950 . S
C867 C865 1.390 . S
C867 C868 1.387 . S
C867 H870 0.950 . S
C868 C867 1.387 . S
C868 C871 1.387 . S
H869 C865 0.950 . S
H870 C867 0.950 . S
C871 C862 1.390 . S
C871 H864 0.950 . S
C871 C868 1.387 . S
C872 C873 1.387 . S
C872 H876 0.950 . S
C872 C881 1.390 . S
C873 C872 1.387 . S
C873 C875 1.387 . S
H874 C881 0.950 . S
C875 C873 1.387 . S
C875 C877 1.390 . S
C875 H879 0.950 . S
H876 C872 0.950 . S
C877 C875 1.390 . S
C877 C878 1.387 . S
C877 H880 0.950 . S
C878 C877 1.387 . S
C878 C881 1.387 . S
H879 C875 0.950 . S
H880 C877 0.950 . S
C881 C872 1.390 . S
C881 H874 0.950 . S
C881 C878 1.387 . S
C882 C883 1.387 . S
C882 H886 0.950 . S
C882 C891 1.390 . S
C883 C882 1.387 . S
C883 C885 1.387 . S
H884 C891 0.950 . S
C885 C883 1.387 . S
C885 C887 1.390 . S
C885 H889 0.950 . S
H886 C882 0.950 . S
C887 C885 1.390 . S
C887 C888 1.387 . S
C887 H890 0.950 . S
C888 C887 1.387 . S
C888 C891 1.387 . S
H889 C885 0.950 . S
H890 C887 0.950 . S
C891 C882 1.390 . S
C891 H884 0.950 . S
C891 C888 1.387 . S
C892 C893 1.387 . S
C892 H896 0.950 . S
C892 C901 1.390 . S
C893 C892 1.387 . S
C893 C895 1.387 . S
H894 C901 0.950 . S
C895 C893 1.387 . S
C895 C897 1.390 . S
C895 H899 0.950 . S
H896 C892 0.950 . S
C897 C895 1.390 . S
C897 C898 1.387 . S
C897 H900 0.950 . S
C898 C897 1.387 . S
C898 C901 1.387 . S
H899 C895 0.950 . S
H900 C897 0.950 . S
C901 C892 1.390 . S
C901 H894 0.950 . S
C901 C898 1.387 . S
C902 C903 1.387 . S
C902 H906 0.950 . S
C902 C911 1.390 . S
C903 C902 1.387 . S
C903 C905 1.387 . S
H904 C911 0.950 . S
C905 C903 1.387 . S
C905 C907 1.390 . S
C905 H909 0.950 . S
H906 C902 0.950 . S
C907 C905 1.390 . S
C907 C908 1.387 . S
C907 H910 0.950 . S
C908 C907 1.387 . S
C908 C911 1.387 . S
H909 C905 0.950 . S
H910 C907 0.950 . S
C911 C902 1.390 . S
C911 H904 0.950 . S
C911 C908 1.387 . S
C912 C913 1.387 . S
C912 H916 0.950 . S
C912 C921 1.390 . S
C913 C912 1.387 . S
C913 C915 1.387 . S
H914 C921 0.950 . S
C915 C913 1.387 . S
C915 C917 1.390 . S
C915 H919 0.950 . S
H916 C912 0.950 . S
C917 C915 1.390 . S
C917 C918 1.387 . S
C917 H920 0.950 . S
C918 C917 1.387 . S
C918 C921 1.387 . S
H919 C915 0.950 . S
H920 C917 0.950 . S
C921 C912 1.390 . S
C921 H914 0.950 . S
C921 C918 1.387 . S
C922 C923 1.387 . S
C922 H926 0.950 . S
C922 C931 1.390 . S
C923 C922 1.387 . S
C923 C925 1.387 . S
H924 C931 0.950 . S
C925 C923 1.387 . S
C925 C927 1.390 . S
C925 H929 0.950 . S
H926 C922 0.950 . S
C927 C925 1.390 . S
C927 C928 1.387 . S
C927 H930 0.950 . S
C928 C927 1.387 . S
C928 C931 1.387 . S
H929 C925 0.950 . S
H930 C927 0.950 . S
C931 C922 1.390 . S
C931 H924 0.950 . S
C931 C928 1.387 . S
C932 C933 1.387 . S
C932 H936 0.950 . S
C932 C941 1.390 . S
C933 C932 1.387 . S
C933 C935 1.387 . S
H934 C941 0.950 . S
C935 C933 1.387 . S
C935 C937 1.390 . S
C935 H939 0.950 . S
H936 C932 0.950 . S
C937 C935 1.390 . S
C937 C938 1.387 . S
C937 H940 0.950 . S
C938 C937 1.387 . S
C938 C941 1.387 . S
H939 C935 0.950 . S
H940 C937 0.950 . S
C941 C932 1.390 . S
C941 H934 0.950 . S
C941 C938 1.387 . S
C942 C943 1.387 . S
C942 H946 0.950 . S
C942 C951 1.390 . S
C943 C942 1.387 . S
C943 C945 1.387 . S
H944 C951 0.950 . S
C945 C943 1.387 . S
C945 C947 1.390 . S
C945 H949 0.950 . S
H946 C942 0.950 . S
C947 C945 1.390 . S
C947 C948 1.387 . S
C947 H950 0.950 . S
C948 C947 1.387 . S
C948 C951 1.387 . S
H949 C945 0.950 . S
H950 C947 0.950 . S
C951 C942 1.390 . S
C951 H944 0.950 . S
C951 C948 1.387 . S
C952 C953 1.387 . S
C952 H956 0.950 . S
C952 C961 1.390 . S
C953 C952 1.387 . S
C953 C955 1.387 . S
H954 C961 0.950 . S
C955 C953 1.387 . S
C955 C957 1.390 . S
C955 H959 0.950 . S
H956 C952 0.950 . S
C957 C955 1.390 . S
C957 C958 1.387 . S
C957 H960 0.950 . S
C958 C957 1.387 . S
C958 C961 1.387 . S
H959 C955 0.950 . S
H960 C957 0.950 . S
C961 C952 1.390 . S
C961 H954 0.950 . S
C961 C958 1.387 . S
C962 C963 1.387 . S
C962 H966 0.950 . S
C962 C971 1.390 . S
C963 C962 1.387 . S
C963 C965 1.387 . S
H964 C971 0.950 . S
C965 C963 1.387 . S
C965 C967 1.390 . S
C965 H969 0.950 . S
H966 C962 0.950 . S
C967 C965 1.390 . S
C967 C968 1.387 . S
C967 H970 0.950 . S
C968 C967 1.387 . S
C968 C971 1.387 . S
H969 C965 0.950 . S
H970 C967 0.950 . S
C971 C962 1.390 . S
C971 H964 0.950 . S
C971 C968 1.387 . S
C972 C973 1.387 . S
C972 H976 0.950 . S
C972 C981 1.390 . S
C973 C972 1.387 . S
C973 C975 1.387 . S
H974 C981 0.950 . S
C975 C973 1.387 . S
C975 C977 1.390 . S
C975 H979 0.950 . S
H976 C972 0.950 . S
C977 C975 1.390 . S
C977 C978 1.387 . S
C977 H980 0.950 . S
C978 C977 1.387 . S
C978 C981 1.387 . S
H979 C975 0.950 . S
H980 C977 0.950 . S
C981 C972 1.390 . S
C981 H974 0.950 . S
C981 C978 1.387 . S
C982 C983 1.387 . S
C982 H986 0.950 . S
C982 C991 1.390 . S
C983 C982 1.387 . S
C983 C985 1.387 . S
H984 C991 0.950 . S
C985 C983 1.387 . S
C985 C987 1.390 . S
C985 H989 0.950 . S
H986 C982 0.950 . S
C987 C985 1.390 . S
C987 C988 1.387 . S
C987 H990 0.950 . S
C988 C987 1.387 . S
C988 C991 1.387 . S
H989 C985 0.950 . S
H990 C987 0.950 . S
C991 C982 1.390 . S
C991 H984 0.950 . S
C991 C988 1.387 . S
C992 C993 1.387 . S
C992 H996 0.950 . S
C992 C1001 1.390 . S
C993 C992 1.387 . S
C993 C995 1.387 . S
H994 C1001 0.950 . S
C995 C993 1.387 . S
C995 C997 1.390 . S
C995 H999 0.950 . S
H996 C992 0.950 . S
C997 C995 1.390 . S
C997 C998 1.387 . S
C997 H1000 0.950 . S
C998 C997 1.387 . S
C998 C1001 1.387 . S
H999 C995 0.950 . S
H1000 C997 0.950 . S
C1001 C992 1.390 . S
C1001 H994 0.950 . S
C1001 C998 1.387 . S
C1002 C1003 1.387 . S
C1002 H1006 0.950 . S
C1002 C1011 1.390 . S
C1003 C1002 1.387 . S
C1003 C1005 1.387 . S
H1004 C1011 0.950 . S
C1005 C1003 1.387 . S
C1005 C1007 1.390 . S
C1005 H1009 0.950 . S
H1006 C1002 0.950 . S
C1007 C1005 1.390 . S
C1007 C1008 1.387 . S
C1007 H1010 0.950 . S
C1008 C1007 1.387 . S
C1008 C1011 1.387 . S
H1009 C1005 0.950 . S
H1010 C1007 0.950 . S
C1011 C1002 1.390 . S
C1011 H1004 0.950 . S
C1011 C1008 1.387 . S
C1012 C1013 1.387 . S
C1012 H1016 0.950 . S
C1012 C1021 1.390 . S
C1013 C1012 1.387 . S
C1013 C1015 1.387 . S
H1014 C1021 0.950 . S
C1015 C1013 1.387 . S
C1015 C1017 1.390 . S
C1015 H1019 0.950 . S
H1016 C1012 0.950 . S
C1017 C1015 1.390 . S
C1017 C1018 1.387 . S
C1017 H1020 0.950 . S
C1018 C1017 1.387 . S
C1018 C1021 1.387 . S
H1019 C1015 0.950 . S
H1020 C1017 0.950 . S
C1021 C1012 1.390 . S
C1021 H1014 0.950 . S
C1021 C1018 1.387 . S
C1022 C1023 1.387 . S
C1022 H1026 0.950 . S
C1022 C1031 1.390 . S
C1023 C1022 1.387 . S
C1023 C1025 1.387 . S
H1024 C1031 0.950 . S
C1025 C1023 1.387 . S
C1025 C1027 1.390 . S
C1025 H1029 0.950 . S
H1026 C1022 0.950 . S
C1027 C1025 1.390 . S
C1027 C1028 1.387 . S
C1027 H1030 0.950 . S
C1028 C1027 1.387 . S
C1028 C1031 1.387 . S
H1029 C1025 0.950 . S
H1030 C1027 0.950 . S
C1031 C1022 1.390 . S
C1031 H1024 0.950 . S
C1031 C1028 1.387 . S
C1032 C1033 1.387 . S
C1032 H1036 0.950 . S
C1032 C1041 1.390 . S
C1033 C1032 1.387 . S
C1033 C1035 1.387 . S
H1034 C1041 0.950 . S
C1035 C1033 1.387 . S
C1035 C1037 1.390 . S
C1035 H1039 0.950 . S
H1036 C1032 0.950 . S
C1037 C1035 1.390 . S
C1037 C1038 1.387 . S
C1037 H1040 0.950 . S
C1038 C1037 1.387 . S
C1038 C1041 1.387 . S
H1039 C1035 0.950 . S
H1040 C1037 0.950 . S
C1041 C1032 1.390 . S
C1041 H1034 0.950 . S
C1041 C1038 1.387 . S
C1042 C1043 1.387 . S
C1042 H1046 0.950 . S
C1042 C1051 1.390 . S
C1043 C1042 1.387 . S
C1043 C1045 1.387 . S
H1044 C1051 0.950 . S
C1045 C1043 1.387 . S
C1045 C1047 1.390 . S
C1045 H1049 0.950 . S
H1046 C1042 0.950 . S
C1047 C1045 1.390 . S
C1047 C1048 1.387 . S
C1047 H1050 0.950 . S
C1048 C1047 1.387 . S
C1048 C1051 1.387 . S
H1049 C1045 0.950 . S
H1050 C1047 0.950 . S
C1051 C1042 1.390 . S
C1051 H1044 0.950 . S
C1051 C1048 1.387 . S
C1052 C1053 1.387 . S
C1052 H1056 0.950 . S
C1052 C1061 1.390 . S
C1053 C1052 1.387 . S
C1053 C1055 1.387 . S
H1054 C1061 0.950 . S
C1055 C1053 1.387 . S
C1055 C1057 1.390 . S
C1055 H1059 0.950 . S
H1056 C1052 0.950 . S
C1057 C1055 1.390 . S
C1057 C1058 1.387 . S
C1057 H1060 0.950 . S
C1058 C1057 1.387 . S
C1058 C1061 1.387 . S
H1059 C1055 0.950 . S
H1060 C1057 0.950 . S
C1061 C1052 1.390 . S
C1061 H1054 0.950 . S
C1061 C1058 1.387 . S
C523 C253 1.573 . S
C528 C348 1.558 . S
C533 C272 1.510 . S
C538 C368 1.490 . S
C543 C234 1.515 . S
C548 C391 1.531 . S
C553 C215 1.438 . S
C558 C371 1.448 1_556 S
C568 C388 1.470 . S
C563 C177 1.483 . S
C573 C196 1.516 . S
C578 C351 1.523 . S
C588 C358 1.567 . S
C583 C220 1.462 . S
C598 C378 1.425 . S
C593 C182 1.382 . S
C603 C201 1.530 . S
C608 C383 1.605 . S
C613 C258 1.437 . S
C618 C363 1.516 . S
C623 C277 1.359 . S
C628 C398 1.447 . S
C638 C343 1.604 . S
C633 C239 1.499 . S
C648 C408 1.558 . S
C643 C25 1.572 . S
C653 C44 1.511 . S
C658 C428 1.492 . S
C663 C6 1.514 . S
C668 C451 1.531 . S
C673 C329 1.437 . S
C678 C431 1.447 . S
C683 C291 1.483 . S
C688 C448 1.470 . S
C693 C310 1.516 . S
C698 C411 1.523 . S
C703 C334 1.457 . S
C708 C418 1.559 . S
C713 C296 1.387 . S
C718 C438 1.426 . S
C728 C443 1.605 . S
C723 C315 1.527 . S
C733 C30 1.436 1_565 S
C738 C423 1.516 . S
C748 C458 1.445 . S
C743 C49 1.359 1_455 S
C753 C11 1.499 . S
C758 C403 1.604 . S
C768 C468 1.559 . S
C763 C139 1.573 . S
C773 C158 1.511 . S
C778 C488 1.492 . S
C788 C511 1.532 . S
C783 C120 1.516 . S
C798 C491 1.447 . S
C793 C101 1.437 . S
C808 C508 1.470 . S
C803 C63 1.483 . S
C813 C82 1.515 . S
C818 C471 1.522 . S
C823 C106 1.457 . S
C828 C478 1.559 . S
C833 C68 1.387 . S
C838 C498 1.426 . S
C848 C503 1.604 . S
C843 C87 1.526 1_545 S
C853 C144 1.436 . S
C858 C483 1.516 . S
C863 C163 1.355 . S
C868 C518 1.445 . S
C873 C125 1.499 . S
C878 C463 1.604 . S
C883 C287 1.439 . S
C888 C361 1.379 . S
C898 C381 1.649 . S
C893 C306 1.739 . S
C903 C325 1.540 . S
C908 C390 1.515 . S
C913 C116 1.673 . S
C918 C370 1.634 . S
C923 C135 1.644 . S
C928 C401 1.566 . S
C938 C350 1.373 . S
C933 C154 1.384 . S
C943 C59 1.439 . S
C948 C421 1.382 . S
C953 C78 1.739 . S
C958 C441 1.647 . S
C963 C97 1.540 . S
C968 C450 1.515 . S
C973 C230 1.673 . S
C978 C430 1.636 . S
C988 C461 1.570 . S
C983 C249 1.646 . S
C993 C268 1.384 . S
C998 C410 1.374 . S
C1003 C173 1.438 . S
C1008 C481 1.380 . S
C1013 C192 1.739 . S
C1018 C501 1.647 . S
C1028 C510 1.516 . S
C1023 C211 1.540 . S
C1033 C2 1.673 . S
C1038 C490 1.636 . S
C1043 C21 1.644 . S
C1048 C521 1.566 . S
C1053 C40 1.386 . S
C1058 C470 1.373 . S
