# Generated by pormake.
# Topology csq, (4,8)-cn, num edge types: 1
# Building blocks:
#     Node 0, Type 0, BuildingBlock: KUFVIS_clean_linker_0, # of connection points: 4
#     Node 1, Type 0, BuildingBlock: KUFVIS_clean_linker_0, # of connection points: 4
#     Node 2, Type 0, BuildingBlock: KUFVIS_clean_linker_0, # of connection points: 4
#     Node 3, Type 0, BuildingBlock: KUFVIS_clean_linker_0, # of connection points: 4
#     Node 4, Type 0, BuildingBlock: KUFVIS_clean_linker_0, # of connection points: 4
#     Node 5, Type 0, BuildingBlock: KUFVIS_clean_linker_0, # of connection points: 4
#     Node 6, Type 1, BuildingBlock: TAGTUT_clean_sbu_1, # of connection points: 8
#     Node 7, Type 1, BuildingBlock: TAGTUT_clean_sbu_1, # of connection points: 8
#     Node 8, Type 1, BuildingBlock: TAGTUT_clean_sbu_1, # of connection points: 8
#     Edge 9, Type (0, 1), BuildingBlock: AJUNOK_clean_linker_0, # of connection points: 2
#     Edge 10, Type (0, 1), BuildingBlock: AJUNOK_clean_linker_0, # of connection points: 2
#     Edge 11, Type (0, 1), BuildingBlock: AJUNOK_clean_linker_0, # of connection points: 2
#     Edge 12, Type (0, 1), BuildingBlock: AJUNOK_clean_linker_0, # of connection points: 2
#     Edge 13, Type (0, 1), BuildingBlock: AJUNOK_clean_linker_0, # of connection points: 2
#     Edge 14, Type (0, 1), BuildingBlock: AJUNOK_clean_linker_0, # of connection points: 2
#     Edge 15, Type (0, 1), BuildingBlock: AJUNOK_clean_linker_0, # of connection points: 2
#     Edge 16, Type (0, 1), BuildingBlock: AJUNOK_clean_linker_0, # of connection points: 2
#     Edge 17, Type (0, 1), BuildingBlock: AJUNOK_clean_linker_0, # of connection points: 2
#     Edge 18, Type (0, 1), BuildingBlock: AJUNOK_clean_linker_0, # of connection points: 2
#     Edge 19, Type (0, 1), BuildingBlock: AJUNOK_clean_linker_0, # of connection points: 2
#     Edge 20, Type (0, 1), BuildingBlock: AJUNOK_clean_linker_0, # of connection points: 2
#     Edge 21, Type (0, 1), BuildingBlock: AJUNOK_clean_linker_0, # of connection points: 2
#     Edge 22, Type (0, 1), BuildingBlock: AJUNOK_clean_linker_0, # of connection points: 2
#     Edge 23, Type (0, 1), BuildingBlock: AJUNOK_clean_linker_0, # of connection points: 2
#     Edge 24, Type (0, 1), BuildingBlock: AJUNOK_clean_linker_0, # of connection points: 2
#     Edge 25, Type (0, 1), BuildingBlock: AJUNOK_clean_linker_0, # of connection points: 2
#     Edge 26, Type (0, 1), BuildingBlock: AJUNOK_clean_linker_0, # of connection points: 2
#     Edge 27, Type (0, 1), BuildingBlock: AJUNOK_clean_linker_0, # of connection points: 2
#     Edge 28, Type (0, 1), BuildingBlock: AJUNOK_clean_linker_0, # of connection points: 2
#     Edge 29, Type (0, 1), BuildingBlock: AJUNOK_clean_linker_0, # of connection points: 2
#     Edge 30, Type (0, 1), BuildingBlock: AJUNOK_clean_linker_0, # of connection points: 2
#     Edge 31, Type (0, 1), BuildingBlock: AJUNOK_clean_linker_0, # of connection points: 2
#     Edge 32, Type (0, 1), BuildingBlock: AJUNOK_clean_linker_0, # of connection points: 2
# Relax obj value: 0.046
# Max RMSD: 0.128
# Mean RMSD: 0.099
data_MOF--net-csq--node1-TAGTUT_clean_sbu_1--node2-KUFVIS_clean_linker_0--edge1-AJUNOK_clean_linker_0
_symmetry_space_group_name_H-M    P1
_symmetry_Int_Tables_number       1
_symmetry_cell_setting            triclinic
loop_
_symmetry_equiv_pos_as_xyz
'x, y, z'
_cell_length_a     39.996388
_cell_length_b     39.873864
_cell_length_c     14.671747
_cell_angle_alpha  93.564336
_cell_angle_beta   91.997319
_cell_angle_gamma 119.65563
loop_
_atom_site_label
_atom_site_type_symbol
_atom_site_fract_x
_atom_site_fract_y
_atom_site_fract_z
_atom_type_partial_charge
H0 H 0.38409 0.49176 0.19529 0.0
H1 H 0.28579 0.4805 0.32593 0.0
H2 H 0.29323 0.49103 0.03292 0.0
H3 H 0.23327 0.46744 0.0249 0.0
H4 H 0.14369 0.47738 0.14935 0.0
H5 H 0.24143 0.49567 0.31901 0.0
C6 C 0.35612 0.48999 0.19006 0.0
C7 C 0.33971 0.49 0.10427 0.0
C8 C 0.33675 0.48733 0.26934 0.0
C9 C 0.30028 0.48409 0.26353 0.0
C10 C 0.28302 0.48499 0.17868 0.0
C11 C 0.30381 0.48852 0.09931 0.0
C12 C 0.24371 0.48198 0.17293 0.0
C13 C 0.22278 0.47339 0.0871 0.0
C14 C 0.18782 0.47307 0.0786 0.0
C15 C 0.17103 0.47789 0.15668 0.0
C16 C 0.18979 0.48465 0.24384 0.0
C17 C 0.22662 0.48802 0.25159 0.0
H18 H 0.68353 0.13688 0.15192 0.0
H19 H 0.78039 0.23901 0.28042 0.0
H20 H 0.75114 0.22963 -0.01145 0.0
H21 H 0.81098 0.27345 -0.01704 0.0
H22 H 0.89516 0.38303 0.1165 0.0
H23 H 0.81384 0.29929 0.27673 0.0
C24 C 0.70792 0.16545 0.14577 0.0
C25 C 0.71553 0.18016 0.05965 0.0
C26 C 0.73091 0.1875 0.22466 0.0
C27 C 0.76248 0.22418 0.21823 0.0
C28 C 0.77079 0.24072 0.13382 0.0
C29 C 0.74637 0.2182 0.05462 0.0
C30 C 0.80491 0.28085 0.12915 0.0
C31 C 0.82123 0.2929 0.04491 0.0
C32 C 0.85273 0.3301 0.0407 0.0
C33 C 0.86906 0.35531 0.1197 0.0
C34 C 0.85629 0.34333 0.20436 0.0
C35 C 0.82349 0.30685 0.20944 0.0
H36 H 0.59355 0.91188 0.02133 0.0
H37 H 0.59409 0.82455 0.17454 0.0
H38 H 0.54266 0.79588 0.8949 0.0
H39 H 0.56871 0.75513 0.89738 0.0
H40 H 0.53986 0.65821 0.05162 0.0
H41 H 0.55251 0.76223 0.18771 0.0
C42 C 0.58723 0.88213 0.0241 0.0
C43 C 0.56752 0.85535 0.94937 0.0
C44 C 0.59591 0.87085 0.10495 0.0
C45 C 0.58679 0.83239 0.11061 0.0
C46 C 0.56829 0.80465 0.03456 0.0
C47 C 0.55825 0.81654 0.95346 0.0
C48 C 0.55949 0.7637 0.04031 0.0
C49 C 0.56066 0.74217 0.96151 0.0
C50 C 0.55288 0.70406 0.96623 0.0
C51 C 0.54409 0.68722 0.04831 0.0
C52 C 0.54498 0.70821 0.12823 0.0
C53 C 0.55228 0.74642 0.12483 0.0
H54 H 0.92161 0.56427 0.07815 0.0
H55 H 0.82687 0.56368 0.20211 0.0
H56 H 0.82033 0.53617 0.9083 0.0
H57 H 0.77368 0.54814 0.90106 0.0
H58 H 0.67361 0.532 0.03159 0.0
H59 H 0.7668 0.53746 0.19417 0.0
C60 C 0.89295 0.56078 0.07057 0.0
C61 C 0.87358 0.55184 -0.0167 0.0
C62 C 0.87496 0.56332 0.14863 0.0
C63 C 0.83825 0.55909 0.13995 0.0
C64 C 0.81713 0.54916 0.05414 0.0
C65 C 0.83529 0.54487 -0.02436 0.0
C66 C 0.77675 0.54355 0.04817 0.0
C67 C 0.75897 0.54363 0.96332 0.0
C68 C 0.72177 0.53863 0.95744 0.0
C69 C 0.70208 0.53491 0.03664 0.0
C70 C 0.71904 0.53577 0.12235 0.0
C71 C 0.75571 0.53906 0.12752 0.0
H72 H 0.39169 0.89309 0.07028 0.0
H73 H 0.31777 0.80513 0.23839 0.0
H74 H 0.29016 0.7942 0.94559 0.0
H75 H 0.25804 0.73286 0.95573 0.0
H76 H 0.16448 0.66074 0.11027 0.0
H77 H 0.2549 0.76771 0.24086 0.0
C78 C 0.36596 0.86562 0.07754 0.0
C79 C 0.34223 0.84389 -0.00082 0.0
C80 C 0.35688 0.85232 0.16481 0.0
C81 C 0.32404 0.81572 0.17151 0.0
C82 C 0.29926 0.79357 0.09265 0.0
C83 C 0.30877 0.80884 0.00714 0.0
C84 C 0.2629 0.75549 0.09863 0.0
C85 C 0.24507 0.72808 0.02048 0.0
C86 C 0.20916 0.69431 0.02418 0.0
C87 C 0.19258 0.68634 0.1071 0.0
C88 C 0.20938 0.71244 0.18443 0.0
C89 C 0.24395 0.74719 0.1807 0.0
H90 H 0.51754 0.36883 0.17902 0.0
H91 H 0.49757 0.27359 0.33152 0.0
H92 H 0.51437 0.26965 0.04081 0.0
H93 H 0.47784 0.20697 0.05094 0.0
H94 H 0.48256 0.12121 0.20151 0.0
H95 H 0.52549 0.23524 0.33419 0.0
C96 C 0.51579 0.34081 0.18157 0.0
C97 C 0.51663 0.32106 0.10129 0.0
C98 C 0.50858 0.32359 0.26326 0.0
C99 C 0.50452 0.28683 0.26752 0.0
C100 C 0.5075 0.26677 0.18824 0.0
C101 C 0.51316 0.28428 0.10411 0.0
C102 C 0.50159 0.2267 0.19266 0.0
C103 C 0.4854 0.19946 0.115 0.0
C104 C 0.47881 0.16182 0.11924 0.0
C105 C 0.48741 0.15052 0.20001 0.0
C106 C 0.50479 0.17678 0.27666 0.0
C107 C 0.51173 0.21496 0.27408 0.0
C108 C 0.97897 0.41585 0.83679 0.0
C109 C 0.09852 0.47422 0.77414 0.0
C110 C 0.08372 0.60001 0.75021 0.0
Mg111 Mg 1.02172 0.43672 0.66198 0.0
O112 O 1.01453 0.47919 0.69342 0.0
Mg113 Mg 0.03899 0.51052 0.81229 0.0
Mg114 Mg 0.0326 0.52057 0.61145 0.0
O115 O 0.05067 0.56221 0.53028 0.0
Mg116 Mg 0.04279 0.60404 0.56452 0.0
Mg117 Mg 0.02602 0.53138 0.41146 0.0
C118 C 0.98329 0.44142 0.47176 0.0
C119 C 0.09104 0.50994 0.47349 0.0
O120 O 0.99707 0.45188 0.8679 0.0
O121 O 0.98468 0.40324 0.7601 0.0
O122 O 0.08633 0.49513 0.813 0.0
O123 O 0.07944 0.44965 0.70592 0.0
O124 O 0.99483 0.42357 0.52313 0.0
O125 O 0.99182 0.47676 0.49341 0.0
C126 C 0.97457 0.53237 0.74925 0.0
O127 O 0.98368 0.53256 0.66592 0.0
O128 O 0.99192 0.52543 0.81317 0.0
O129 O 0.06686 0.59078 0.35668 0.0
O130 O 0.07849 0.6386 0.46612 0.0
O131 O 0.97778 0.54583 0.41298 0.0
C132 C 0.08404 0.62673 0.38834 0.0
O133 O 0.98493 0.59066 0.52259 0.0
O134 O 0.07088 0.61767 0.70207 0.0
C135 C 0.96563 0.56632 0.45425 0.0
O136 O 0.07392 0.56432 0.72887 0.0
O137 O 0.0812 0.50848 0.55639 0.0
O138 O 0.07413 0.51767 0.40996 0.0
C139 C 0.464 0.04166 0.8658 0.0
C140 C 0.4211 0.93154 0.7193 0.0
C141 C 0.56813 0.96447 0.71513 0.0
Mg142 Mg 0.45647 1.01296 0.66321 0.0
O143 O 0.50693 0.02526 0.70383 0.0
Mg144 Mg 0.51272 0.99622 0.80313 0.0
Mg145 Mg 0.53646 0.016 0.61206 0.0
O146 O 0.56597 1.00664 0.52063 0.0
Mg147 Mg 0.61618 0.01848 0.56217 0.0
Mg148 Mg 0.56065 0.03578 0.42117 0.0
C149 C 0.50461 0.06729 0.50964 0.0
C150 C 0.47503 0.9629 0.43569 0.0
O151 O 0.48634 0.02799 0.88539 0.0
O152 O 0.44872 0.03838 0.78547 0.0
O153 O 0.4527 0.94535 0.76836 0.0
O154 O 0.41561 0.95154 0.66224 0.0
O155 O 0.47306 0.0497 0.54982 0.0
O156 O 0.53269 0.06059 0.52439 0.0
C157 C 0.59802 0.06941 0.78812 0.0
O158 O 0.59231 0.06496 0.70025 0.0
O159 O 0.57244 0.04692 0.8384 0.0
O160 O 0.58721 1.00369 0.33909 0.0
O161 O 0.62392 0.99285 0.44078 0.0
O162 O 0.62096 0.08643 0.45613 0.0
C163 C 0.60935 0.98989 0.35988 0.0
O164 O 0.65751 0.07961 0.56266 0.0
O165 O 0.59978 0.98179 0.67537 0.0
C166 C 0.65247 0.09981 0.50538 0.0
O167 O 0.54036 0.97153 0.69973 0.0
O168 O 0.48057 0.96714 0.5236 0.0
O169 O 0.50085 0.98537 0.38581 0.0
C170 C 0.56233 0.60825 0.35957 0.0
C171 C 0.62411 0.54407 0.40321 0.0
C172 C 0.48651 0.42974 0.49501 0.0
Mg173 Mg 0.5987 0.59133 0.52754 0.0
O174 O 0.54701 0.55074 0.51861 0.0
Mg175 Mg 0.52806 0.51465 0.40561 0.0
Mg176 Mg 0.52973 0.51341 0.61276 0.0
O177 O 0.51237 0.47604 0.70688 0.0
Mg178 Mg 0.46064 0.43553 0.69747 0.0
Mg179 Mg 0.53118 0.5122 0.81983 0.0
C180 C 0.57358 0.59699 0.73101 0.0
C181 C 0.60673 0.5242 0.72163 0.0
O182 O 0.54122 0.57147 0.33655 0.0
O183 O 0.58704 0.62211 0.42896 0.0
O184 O 0.58822 0.52368 0.37782 0.0
O185 O 0.63618 0.5716 0.46733 0.0
O186 O 0.5982 0.61125 0.6701 0.0
O187 O 0.54531 0.56191 0.72218 0.0
C188 C 0.45237 0.50209 0.5039 0.0
O189 O 0.46801 0.5043 0.58336 0.0
O190 O 0.46985 0.50529 0.43142 0.0
O191 O 0.51785 0.45565 0.88948 0.0
O192 O 0.4718 0.40485 0.79768 0.0
O193 O 0.47096 0.50323 0.84754 0.0
C194 C 0.49646 0.41887 0.8672 0.0
O195 O 0.4233 0.45568 0.75667 0.0
O196 O 0.46145 0.41538 0.55497 0.0
C197 C 0.43508 0.48281 0.82173 0.0
O198 O 0.51437 0.46499 0.50352 0.0
O199 O 0.59132 0.52238 0.64217 0.0
O200 O 0.58923 0.52112 0.79406 0.0
C201 C 0.18083 0.52738 0.36185 0.0
C202 C 0.17067 0.48988 0.32475 0.0
C203 C 0.15681 0.5335 0.42054 0.0
C204 C 0.1221 0.50235 0.4454 0.0
H205 H 0.20584 0.5523 0.33964 0.0
H206 H 0.16388 0.56302 0.44068 0.0
S207 S 0.08409 0.39853 0.37214 0.0
N208 N 0.1248 0.42109 0.32143 0.0
N209 N 0.08013 0.43266 0.43236 0.0
C210 C 0.11312 0.46466 0.4138 0.0
C211 C 0.13728 0.45842 0.35332 0.0
C212 C 0.69871 0.18363 0.36877 0.0
C213 C 0.72069 0.17263 0.31513 0.0
C214 C 0.68128 0.16368 0.44445 0.0
C215 C 0.68555 0.13233 0.46879 0.0
H216 H 0.69234 0.20555 0.34763 0.0
H217 H 0.66089 0.16989 0.47753 0.0
S218 S 0.74573 0.09702 0.35826 0.0
N219 N 0.75005 0.13229 0.29748 0.0
N220 N 0.71776 0.09498 0.4405 0.0
C221 C 0.71129 0.12435 0.42195 0.0
C222 C 0.72849 0.14424 0.34411 0.0
C223 C 0.58151 0.70049 0.25562 0.0
C224 C 0.54531 0.69044 0.21331 0.0
C225 C 0.58665 0.67386 0.30382 0.0
C226 C 0.55584 0.63611 0.31048 0.0
H227 H 0.60673 0.72767 0.24395 0.0
H228 H 0.61539 0.68225 0.33199 0.0
S229 S 0.45382 0.59876 0.22828 0.0
N230 N 0.47718 0.64258 0.19278 0.0
N231 N 0.48664 0.5925 0.28394 0.0
C232 C 0.51884 0.62703 0.27568 0.0
C233 C 0.5136 0.65432 0.22759 0.0
C234 C 0.92572 0.6012 0.27593 0.0
C235 C 0.89294 0.56656 0.24056 0.0
C236 C 0.94634 0.60256 0.3567 0.0
C237 C 0.93519 0.56908 0.40277 0.0
H238 H 0.93655 0.62669 0.23843 0.0
H239 H 0.97337 0.6288 0.37757 0.0
S240 S 0.84886 0.47276 0.34293 0.0
N241 N 0.84767 0.49944 0.26248 0.0
N242 N 0.88752 0.50161 0.41215 0.0
C243 C 0.90086 0.5352 0.3716 0.0
C244 C 0.87948 0.534 0.29064 0.0
C245 C 0.39228 0.91755 0.25428 0.0
C246 C 0.38156 0.87803 0.24741 0.0
C247 C 0.42014 0.94418 0.32165 0.0
C248 C 0.43826 0.93257 0.3863 0.0
H249 H 0.38023 0.92838 0.20445 0.0
H250 H 0.42912 0.97462 0.32006 0.0
S251 S 0.4189 0.83232 0.40371 0.0
N252 N 0.3899 0.8283 0.31546 0.0
N253 N 0.44203 0.87858 0.44293 0.0
C254 C 0.42617 0.89288 0.38449 0.0
C255 C 0.39783 0.86556 0.31503 0.0
C256 C 0.46504 0.34156 0.33896 0.0
C257 C 0.50133 0.34397 0.33922 0.0
C258 C 0.46026 0.36981 0.38873 0.0
C259 C 0.49192 0.40166 0.43783 0.0
H260 H 0.44079 0.3189 0.29595 0.0
H261 H 0.43201 0.36733 0.38687 0.0
S262 S 0.5916 0.41793 0.4694 0.0
N263 N 0.56829 0.37814 0.39859 0.0
N264 N 0.5597 0.4315 0.49269 0.0
C265 C 0.52792 0.40323 0.44206 0.0
C266 C 0.53252 0.37423 0.39255 0.0
C267 C 0.58367 0.88512 0.80347 0.0
C268 C 0.55723 0.87058 0.87055 0.0
C269 C 0.58613 0.9148 0.75275 0.0
C270 C 0.56231 0.93128 0.76723 0.0
H271 H 0.60484 0.87591 0.79571 0.0
H272 H 0.60798 0.92577 0.70393 0.0
S273 S 0.48556 0.90008 0.92981 0.0
N274 N 0.50462 0.87215 0.9444 0.0
N275 N 0.50897 0.9278 0.8488 0.0
C276 C 0.53375 0.91481 0.8295 0.0
C277 C 0.53122 0.88444 0.88097 0.0
C278 C 0.67744 0.50176 0.82025 0.0
C279 C 0.70277 0.53768 0.86873 0.0
C280 C 0.64941 0.49833 0.75436 0.0
C281 C 0.64591 0.53071 0.73607 0.0
H282 H 0.67676 0.47568 0.83984 0.0
H283 H 0.62723 0.46954 0.72711 0.0
S284 S 0.70988 0.63196 0.83335 0.0
N285 N 0.72649 0.60687 0.88489 0.0
N286 N 0.67365 0.60038 0.76109 0.0
C287 C 0.67433 0.56737 0.7755 0.0
C288 C 0.7027 0.57086 0.84272 0.0
C289 C 0.16409 0.62998 0.93832 0.0
C290 C 0.18402 0.67079 0.9416 0.0
C291 C 0.13157 0.60721 0.87698 0.0
C292 C 0.1174 0.6244 0.81733 0.0
H293 H 0.17263 0.61568 -0.01318 0.0
H294 H 0.11696 0.57601 0.87798 0.0
S295 S 0.16151 0.73035 0.7947 0.0
N296 N 0.18882 0.72732 0.87687 0.0
N297 N 0.12824 0.68526 0.76135 0.0
C298 C 0.1383 0.66528 0.8175 0.0
C299 C 0.17154 0.68824 0.87926 0.0
C300 C 0.50341 0.13825 -0.00303 0.0
C301 C 0.47108 0.13562 0.03756 0.0
C302 C 0.50069 0.1067 0.94399 0.0
C303 C 0.46543 0.07193 0.9288 0.0
H304 H 0.53156 0.16386 0.01194 0.0
H305 H 0.5264 0.10946 0.91488 0.0
S306 S 0.37177 0.05172 0.0129 0.0
N307 N 0.40256 0.09641 0.05664 0.0
N308 N 0.39691 0.03742 0.95073 0.0
C309 C 0.43234 0.06963 0.96387 0.0
C310 C 0.43531 0.10152 0.02002 0.0
C311 C 0.39899 0.5207 0.01686 0.0
C312 C 0.36058 0.49121 0.02072 0.0
C313 C 0.42173 0.51918 0.94772 0.0
C314 C 0.40728 0.48775 0.87942 0.0
H315 H 0.41203 0.54454 0.06975 0.0
H316 H 0.45159 0.54208 0.95083 0.0
S317 S 0.30679 0.4049 0.85344 0.0
N318 N 0.30778 0.43132 0.9459 0.0
N319 N 0.3504 0.428 0.8161 0.0
C320 C 0.36796 0.45929 0.87893 0.0
C321 C 0.3447 0.4611 0.94948 0.0
C322 C 0.8817 0.37746 0.92848 0.0
C323 C 0.87485 0.34223 0.95999 0.0
C324 C 0.91594 0.40117 0.8893 0.0
C325 C 0.94373 0.3898 0.87814 0.0
H326 H 0.86244 0.3886 0.9433 0.0
H327 H 0.92116 0.42904 0.86977 0.0
S328 S 0.9362 0.29724 0.93371 0.0
N329 N 0.89629 0.29504 0.96803 0.0
N330 N 0.96004 0.339 0.88846 0.0
C331 C 0.93537 0.35286 0.89964 0.0
C332 C 0.9008 0.329 0.94152 0.0
C333 C 0.9299 0.58033 0.88574 0.0
C334 C 0.8939 0.54871 0.9022 0.0
C335 C 0.95419 0.57603 0.82472 0.0
C336 C 0.94351 0.53994 0.77755 0.0
H337 H 0.94045 0.60807 0.92494 0.0
H338 H 0.98294 0.60032 0.82055 0.0
S339 S 0.85161 0.44853 0.79239 0.0
N340 N 0.84792 0.48058 0.86195 0.0
N341 N 0.89375 0.47246 0.74829 0.0
C342 C 0.90661 0.50873 0.78885 0.0
C343 C 0.88174 0.51312 0.85077 0.0
C344 C 0.37752 0.84895 0.85984 0.0
C345 C 0.3529 0.85795 0.90819 0.0
C346 C 0.39494 0.86861 0.78386 0.0
C347 C 0.38848 0.89806 0.75468 0.0
H348 H 0.3857 0.82887 0.88519 0.0
H349 H 0.41708 0.86405 0.75479 0.0
S350 S 0.32099 0.92715 0.84991 0.0
N351 N 0.31845 0.89369 0.91487 0.0
N352 N 0.35131 0.93095 0.7722 0.0
C353 C 0.36023 0.90374 0.79596 0.0
C354 C 0.34268 0.88387 0.87361 0.0
C355 C 0.47646 0.32939 -0.01548 0.0
C356 C 0.51356 0.33761 0.01638 0.0
C357 C 0.47115 0.35565 0.93529 0.0
C358 C 0.50277 0.39126 0.91741 0.0
H359 H 0.45121 0.30412 0.00478 0.0
H360 H 0.44202 0.34889 0.91503 0.0
S361 S 0.60599 0.42199 0.96629 0.0
N362 N 0.5825 0.38065 0.0135 0.0
N363 N 0.57263 0.43006 0.92027 0.0
C364 C 0.54011 0.39822 0.94171 0.0
C365 C 0.54548 0.37129 -0.0089 0.0
C366 C 0.17907 0.5073 0.95298 0.0
C367 C 0.17095 0.47218 -0.0129 0.0
C368 C 0.15895 0.50773 0.87361 0.0
C369 C 0.12996 0.473 0.82614 0.0
H370 H 0.19942 0.5346 -0.00901 0.0
H371 H 0.16357 0.53541 0.85409 0.0
S372 S 0.10217 0.37348 0.88186 0.0
N373 N 0.13581 0.40202 0.96313 0.0
N374 N 0.09741 0.40255 0.81361 0.0
C375 C 0.12435 0.43768 0.85493 0.0
C376 C 0.14485 0.43732 0.93614 0.0
C377 C 0.68253 0.11598 0.96488 0.0
C378 C 0.69096 0.15482 -0.02353 0.0
C379 C 0.65481 0.08934 0.89717 0.0
C380 C 0.6346 0.10034 0.83686 0.0
H381 H 0.69628 0.10559 0.01137 0.0
H382 H 0.64757 0.05926 0.89525 0.0
S383 S 0.64694 0.19865 0.83364 0.0
N384 N 0.67777 0.20322 0.91811 0.0
N385 N 0.626 0.15301 0.79005 0.0
C386 C 0.64423 0.13946 0.84361 0.0
C387 C 0.67238 0.16674 0.91337 0.0
C388 C 0.52686 0.64506 0.86076 0.0
C389 C 0.55817 0.68163 0.89108 0.0
C390 C 0.53255 0.61719 0.81319 0.0
C391 C 0.5698 0.62504 0.79332 0.0
H392 H 0.49795 0.63731 0.8783 0.0
H393 H 0.50736 0.58946 0.79088 0.0
S394 S 0.66126 0.71677 0.85797 0.0
N395 N 0.62753 0.72454 0.89925 0.0
N396 N 0.6384 0.67234 0.80637 0.0
C397 C 0.60131 0.66194 0.82133 0.0
C398 C 0.59544 0.69027 0.87067 0.0
C399 C 0.48698 0.14528 0.42014 0.0
C400 C 0.51461 0.1615 0.3562 0.0
C401 C 0.4847 0.11547 0.47006 0.0
C402 C 0.50993 0.10048 0.45799 0.0
H403 H 0.46484 0.15329 0.4258 0.0
H404 H 0.46192 0.10322 0.51628 0.0
S405 S 0.59013 0.13644 0.30456 0.0
N406 N 0.56976 0.16311 0.28819 0.0
N407 N 0.56582 0.10726 0.38245 0.0
C408 C 0.53957 0.11862 0.39904 0.0
C409 C 0.54189 0.14912 0.34836 0.0
C410 C 0.35735 0.45559 0.3811 0.0
C411 C 0.35578 0.48847 0.35826 0.0
C412 C 0.38544 0.45897 0.44664 0.0
C413 C 0.41308 0.4954 0.48964 0.0
H414 H 0.33934 0.42792 0.34181 0.0
H415 H 0.38886 0.43393 0.45413 0.0
S416 S 0.41644 0.58877 0.465 0.0
N417 N 0.37989 0.55723 0.39339 0.0
N418 N 0.43337 0.56367 0.51524 0.0
C419 C 0.40855 0.52744 0.47568 0.0
C420 C 0.37982 0.524 0.40948 0.0
C421 C 0.89333 0.40405 0.30916 0.0
C422 C 0.88398 0.36562 0.28383 0.0
C423 C 0.92641 0.42914 0.36699 0.0
C424 C 0.95186 0.41692 0.39972 0.0
H425 H 0.8755 0.41502 0.28178 0.0
H426 H 0.93184 0.45814 0.38656 0.0
S427 S 0.94226 0.32014 0.34293 0.0
N428 N 0.90369 0.31727 0.29017 0.0
N429 N 0.96632 0.36419 0.39605 0.0
C430 C 0.94313 0.3787 0.3723 0.0
C431 C 0.9091 0.35312 0.31535 0.0
C432 C 0.57581 0.89177 0.2418 0.0
C433 C 0.60581 0.89809 0.18613 0.0
C434 C 0.57722 0.9224 0.29626 0.0
C435 C 0.60883 0.96 0.29727 0.0
H436 H 0.54975 0.8637 0.23763 0.0
H437 H 0.55312 0.91679 0.33681 0.0
S438 S 0.69666 0.99063 0.17283 0.0
N439 N 0.66919 0.94392 0.14002 0.0
N440 N 0.67248 1.00153 0.24684 0.0
C441 C 0.64025 0.96632 0.2474 0.0
C442 C 0.6386 0.93521 0.19068 0.0
C443 C 0.71185 0.568 0.26773 0.0
C444 C 0.69842 0.53465 0.20607 0.0
C445 C 0.68899 0.56997 0.33676 0.0
C446 C 0.65176 0.53869 0.34633 0.0
H447 H 0.73926 0.5935 0.25923 0.0
H448 H 0.69958 0.59706 0.37882 0.0
S449 S 0.60639 0.44259 0.2117 0.0
N450 N 0.64799 0.46818 0.16659 0.0
N451 N 0.60493 0.47167 0.29454 0.0
C452 C 0.63945 0.50426 0.28908 0.0
C453 C 0.66272 0.50232 0.21936 0.0
C454 C 0.18338 0.67048 0.30722 0.0
C455 C 0.18698 0.70255 0.26476 0.0
C456 C 0.14954 0.64611 0.34698 0.0
C457 C 0.1188 0.65366 0.34709 0.0
H458 H 0.20507 0.66187 0.3008 0.0
H459 H 0.14688 0.62048 0.37526 0.0
S460 S 0.11671 0.73746 0.25886 0.0
N461 N 0.15903 0.74302 0.23366 0.0
N462 N 0.09578 0.69794 0.31381 0.0
C463 C 0.12357 0.68778 0.31394 0.0
C464 C 0.15783 0.71228 0.27177 0.0
loop_
_geom_bond_atom_site_label_1
_geom_bond_atom_site_label_2
_geom_bond_distance
_geom_bond_site_symmetry_2
_ccdc_geom_bond_type
H0 C6 0.930 . S
H1 C9 0.931 . S
H2 C11 0.931 . S
H3 C13 0.930 . S
H4 C15 0.930 . S
H5 C17 0.931 . S
C6 H0 0.930 . S
C6 C7 1.380 . S
C6 C8 1.394 . S
C7 C6 1.380 . S
C7 C11 1.382 . S
C8 C6 1.394 . S
C8 C9 1.400 . S
C9 H1 0.931 . S
C9 C8 1.400 . S
C9 C10 1.375 . S
C10 C9 1.375 . S
C10 C11 1.415 . S
C10 C12 1.501 . S
C11 H2 0.931 . S
C11 C7 1.382 . S
C11 C10 1.415 . S
C12 C10 1.501 . S
C12 C13 1.384 . S
C12 C17 1.408 . S
C13 H3 0.930 . S
C13 C12 1.384 . S
C13 C14 1.389 . S
C14 C13 1.389 . S
C14 C15 1.405 . S
C15 H4 0.930 . S
C15 C14 1.405 . S
C15 C16 1.364 . S
C16 C15 1.364 . S
C16 C17 1.400 . S
C17 H5 0.931 . S
C17 C12 1.408 . S
C17 C16 1.400 . S
H18 C24 0.930 . S
H19 C27 0.931 . S
H20 C29 0.931 . S
H21 C31 0.930 . S
H22 C33 0.930 . S
H23 C35 0.931 . S
C24 H18 0.930 . S
C24 C25 1.380 . S
C24 C26 1.394 . S
C25 C24 1.380 . S
C25 C29 1.382 . S
C26 C24 1.394 . S
C26 C27 1.400 . S
C27 H19 0.931 . S
C27 C26 1.400 . S
C27 C28 1.375 . S
C28 C27 1.375 . S
C28 C29 1.415 . S
C28 C30 1.501 . S
C29 H20 0.931 . S
C29 C25 1.382 . S
C29 C28 1.415 . S
C30 C28 1.501 . S
C30 C31 1.384 . S
C30 C35 1.408 . S
C31 H21 0.930 . S
C31 C30 1.384 . S
C31 C32 1.389 . S
C32 C31 1.389 . S
C32 C33 1.405 . S
C33 H22 0.930 . S
C33 C32 1.405 . S
C33 C34 1.364 . S
C34 C33 1.364 . S
C34 C35 1.400 . S
C35 H23 0.931 . S
C35 C30 1.408 . S
C35 C34 1.400 . S
H36 C42 0.930 . S
H37 C45 0.931 . S
H38 C47 0.931 . S
H39 C49 0.930 . S
H40 C51 0.930 . S
H41 C53 0.931 . S
C42 H36 0.930 . S
C42 C43 1.380 1_554 S
C42 C44 1.394 . S
C43 C42 1.380 1_556 S
C43 C47 1.382 . S
C44 C42 1.394 . S
C44 C45 1.400 . S
C45 H37 0.931 . S
C45 C44 1.400 . S
C45 C46 1.375 . S
C46 C45 1.375 . S
C46 C47 1.415 1_554 S
C46 C48 1.501 . S
C47 H38 0.931 . S
C47 C43 1.382 . S
C47 C46 1.415 1_556 S
C48 C46 1.501 . S
C48 C49 1.384 1_554 S
C48 C53 1.408 . S
C49 H39 0.930 . S
C49 C48 1.384 1_556 S
C49 C50 1.389 . S
C50 C49 1.389 . S
C50 C51 1.405 1_556 S
C51 H40 0.930 . S
C51 C50 1.405 1_554 S
C51 C52 1.364 . S
C52 C51 1.364 . S
C52 C53 1.400 . S
C53 H41 0.931 . S
C53 C48 1.408 . S
C53 C52 1.400 . S
H54 C60 0.930 . S
H55 C63 0.931 . S
H56 C65 0.931 . S
H57 C67 0.930 . S
H58 C69 0.930 . S
H59 C71 0.931 . S
C60 H54 0.930 . S
C60 C61 1.380 1_554 S
C60 C62 1.394 . S
C61 C60 1.380 1_556 S
C61 C65 1.382 . S
C62 C60 1.394 . S
C62 C63 1.400 . S
C63 H55 0.931 . S
C63 C62 1.400 . S
C63 C64 1.375 . S
C64 C63 1.375 . S
C64 C65 1.415 1_554 S
C64 C66 1.501 . S
C65 H56 0.931 . S
C65 C61 1.382 . S
C65 C64 1.415 1_556 S
C66 C64 1.501 . S
C66 C67 1.384 1_554 S
C66 C71 1.408 . S
C67 H57 0.930 . S
C67 C66 1.384 1_556 S
C67 C68 1.389 . S
C68 C67 1.389 . S
C68 C69 1.405 1_556 S
C69 H58 0.930 . S
C69 C68 1.405 1_554 S
C69 C70 1.364 . S
C70 C69 1.364 . S
C70 C71 1.400 . S
C71 H59 0.931 . S
C71 C66 1.408 . S
C71 C70 1.400 . S
H72 C78 0.930 . S
H73 C81 0.931 . S
H74 C83 0.931 1_556 S
H75 C85 0.930 1_556 S
H76 C87 0.930 . S
H77 C89 0.931 . S
C78 H72 0.930 . S
C78 C79 1.380 . S
C78 C80 1.394 . S
C79 C78 1.380 . S
C79 C83 1.382 . S
C80 C78 1.394 . S
C80 C81 1.400 . S
C81 H73 0.931 . S
C81 C80 1.400 . S
C81 C82 1.375 . S
C82 C81 1.375 . S
C82 C83 1.415 . S
C82 C84 1.501 . S
C83 H74 0.931 1_554 S
C83 C79 1.382 . S
C83 C82 1.415 . S
C84 C82 1.501 . S
C84 C85 1.384 . S
C84 C89 1.408 . S
C85 H75 0.930 1_554 S
C85 C84 1.384 . S
C85 C86 1.389 . S
C86 C85 1.389 . S
C86 C87 1.405 . S
C87 H76 0.930 . S
C87 C86 1.405 . S
C87 C88 1.364 . S
C88 C87 1.364 . S
C88 C89 1.400 . S
C89 H77 0.931 . S
C89 C84 1.408 . S
C89 C88 1.400 . S
H90 C96 0.930 . S
H91 C99 0.931 . S
H92 C101 0.931 . S
H93 C103 0.930 . S
H94 C105 0.930 . S
H95 C107 0.931 . S
C96 H90 0.930 . S
C96 C97 1.380 . S
C96 C98 1.394 . S
C97 C96 1.380 . S
C97 C101 1.382 . S
C98 C96 1.394 . S
C98 C99 1.400 . S
C99 H91 0.931 . S
C99 C98 1.400 . S
C99 C100 1.375 . S
C100 C99 1.375 . S
C100 C101 1.415 . S
C100 C102 1.501 . S
C101 H92 0.931 . S
C101 C97 1.382 . S
C101 C100 1.415 . S
C102 C100 1.501 . S
C102 C103 1.384 . S
C102 C107 1.408 . S
C103 H93 0.930 . S
C103 C102 1.384 . S
C103 C104 1.389 . S
C104 C103 1.389 . S
C104 C105 1.405 . S
C105 H94 0.930 . S
C105 C104 1.405 . S
C105 C106 1.364 . S
C106 C105 1.364 . S
C106 C107 1.400 . S
C107 H95 0.931 . S
C107 C102 1.408 . S
C107 C106 1.400 . S
C108 O120 1.241 . S
C108 O121 1.280 . S
C109 O122 1.277 . S
C109 O123 1.245 . S
C110 O134 1.247 . S
C110 O136 1.289 . S
Mg111 O112 1.926 . S
Mg111 O121 1.984 . S
Mg111 O123 1.988 1_655 S
Mg111 O124 2.061 . S
O112 Mg111 1.926 . S
O112 Mg113 1.986 1_655 S
O112 Mg114 1.917 1_655 S
Mg113 O112 1.986 1_455 S
Mg113 O120 2.042 1_455 S
Mg113 O122 2.041 . S
Mg113 O128 2.038 1_455 S
Mg113 O136 2.238 . S
Mg114 O112 1.917 1_455 S
Mg114 O115 1.917 . S
Mg114 O125 2.106 1_455 S
Mg114 O127 2.079 1_455 S
Mg114 O136 2.106 . S
Mg114 O137 2.079 . S
O115 Mg114 1.917 . S
O115 Mg116 1.926 . S
O115 Mg117 1.986 . S
Mg116 O115 1.926 . S
Mg116 O130 1.984 . S
Mg116 O133 1.988 1_455 S
Mg116 O134 2.061 . S
Mg117 O115 1.986 . S
Mg117 O125 2.238 1_455 S
Mg117 O129 2.042 . S
Mg117 O131 2.041 1_455 S
Mg117 O138 2.038 . S
C118 O124 1.247 . S
C118 O125 1.289 . S
C119 O137 1.245 . S
C119 O138 1.274 . S
O120 C108 1.241 . S
O120 Mg113 2.042 1_655 S
O121 C108 1.280 . S
O121 Mg111 1.984 . S
O122 C109 1.277 . S
O122 Mg113 2.041 . S
O123 C109 1.245 . S
O123 Mg111 1.988 1_455 S
O124 Mg111 2.061 . S
O124 C118 1.247 . S
O125 Mg114 2.106 1_655 S
O125 Mg117 2.238 1_655 S
O125 C118 1.289 . S
C126 O127 1.245 . S
C126 O128 1.274 . S
O127 Mg114 2.079 1_655 S
O127 C126 1.245 . S
O128 Mg113 2.038 1_655 S
O128 C126 1.274 . S
O129 Mg117 2.042 . S
O129 C132 1.241 . S
O130 Mg116 1.984 . S
O130 C132 1.280 . S
O131 Mg117 2.041 1_655 S
O131 C135 1.277 . S
C132 O129 1.241 . S
C132 O130 1.280 . S
O133 Mg116 1.988 1_655 S
O133 C135 1.245 . S
O134 C110 1.247 . S
O134 Mg116 2.061 . S
C135 O131 1.277 . S
C135 O133 1.245 . S
O136 C110 1.289 . S
O136 Mg113 2.238 . S
O136 Mg114 2.106 . S
O137 Mg114 2.079 . S
O137 C119 1.245 . S
O138 Mg117 2.038 . S
O138 C119 1.274 . S
C139 O151 1.241 . S
C139 O152 1.280 . S
C140 O153 1.277 . S
C140 O154 1.245 . S
C141 O165 1.247 . S
C141 O167 1.289 . S
Mg142 O143 1.926 . S
Mg142 O152 1.984 . S
Mg142 O154 1.988 1_545 S
Mg142 O155 2.061 . S
O143 Mg142 1.926 . S
O143 Mg144 1.986 . S
O143 Mg145 1.917 . S
Mg144 O143 1.986 . S
Mg144 O151 2.042 . S
Mg144 O153 2.041 1_545 S
Mg144 O159 2.038 . S
Mg144 O167 2.238 1_545 S
Mg145 O143 1.917 . S
Mg145 O146 1.917 1_545 S
Mg145 O156 2.106 . S
Mg145 O158 2.079 . S
Mg145 O167 2.106 1_545 S
Mg145 O168 2.079 1_545 S
O146 Mg145 1.917 1_565 S
O146 Mg147 1.926 . S
O146 Mg148 1.971 1_565 S
Mg147 O146 1.926 . S
Mg147 O161 1.984 . S
Mg147 O164 1.988 1_565 S
Mg147 O165 2.061 . S
Mg148 O146 1.971 1_545 S
Mg148 O156 2.259 . S
Mg148 O160 2.017 1_545 S
Mg148 O162 2.051 . S
Mg148 O169 2.029 1_545 S
C149 O155 1.247 . S
C149 O156 1.289 . S
C150 O168 1.245 . S
C150 O169 1.274 . S
O151 C139 1.241 . S
O151 Mg144 2.042 . S
O152 C139 1.280 . S
O152 Mg142 1.984 . S
O153 C140 1.277 . S
O153 Mg144 2.041 1_565 S
O154 C140 1.245 . S
O154 Mg142 1.988 1_565 S
O155 Mg142 2.061 . S
O155 C149 1.247 . S
O156 Mg145 2.106 . S
O156 Mg148 2.259 . S
O156 C149 1.289 . S
C157 O158 1.245 . S
C157 O159 1.274 . S
O158 Mg145 2.079 . S
O158 C157 1.245 . S
O159 Mg144 2.038 . S
O159 C157 1.274 . S
O160 Mg148 2.017 1_565 S
O160 C163 1.241 . S
O161 Mg147 1.984 . S
O161 C163 1.280 . S
O162 Mg148 2.051 . S
O162 C166 1.277 . S
C163 O160 1.241 . S
C163 O161 1.280 . S
O164 Mg147 1.988 1_545 S
O164 C166 1.245 . S
O165 C141 1.247 . S
O165 Mg147 2.061 . S
C166 O162 1.277 . S
C166 O164 1.245 . S
O167 C141 1.289 . S
O167 Mg144 2.238 1_565 S
O167 Mg145 2.106 1_565 S
O168 Mg145 2.079 1_565 S
O168 C150 1.245 . S
O169 Mg148 2.029 1_565 S
O169 C150 1.274 . S
C170 O182 1.241 . S
C170 O183 1.280 . S
C171 O184 1.277 . S
C171 O185 1.245 . S
C172 O196 1.247 . S
C172 O198 1.289 . S
Mg173 O174 1.926 . S
Mg173 O183 1.984 . S
Mg173 O185 1.988 . S
Mg173 O186 2.061 . S
O174 Mg173 1.926 . S
O174 Mg175 1.986 . S
O174 Mg176 1.917 . S
Mg175 O174 1.986 . S
Mg175 O182 2.042 . S
Mg175 O184 2.041 . S
Mg175 O190 2.038 . S
Mg175 O198 2.238 . S
Mg176 O174 1.917 . S
Mg176 O177 1.917 . S
Mg176 O187 2.106 . S
Mg176 O189 2.079 . S
Mg176 O198 2.106 . S
Mg176 O199 2.079 . S
O177 Mg176 1.917 . S
O177 Mg178 1.926 . S
O177 Mg179 1.986 . S
Mg178 O177 1.926 . S
Mg178 O192 1.984 . S
Mg178 O195 1.988 . S
Mg178 O196 2.061 . S
Mg179 O177 1.986 . S
Mg179 O187 2.238 . S
Mg179 O191 2.042 . S
Mg179 O193 2.041 . S
Mg179 O200 2.038 . S
C180 O186 1.247 . S
C180 O187 1.289 . S
C181 O199 1.245 . S
C181 O200 1.274 . S
O182 C170 1.241 . S
O182 Mg175 2.042 . S
O183 C170 1.280 . S
O183 Mg173 1.984 . S
O184 C171 1.277 . S
O184 Mg175 2.041 . S
O185 C171 1.245 . S
O185 Mg173 1.988 . S
O186 Mg173 2.061 . S
O186 C180 1.247 . S
O187 Mg176 2.106 . S
O187 Mg179 2.238 . S
O187 C180 1.289 . S
C188 O189 1.245 . S
C188 O190 1.274 . S
O189 Mg176 2.079 . S
O189 C188 1.245 . S
O190 Mg175 2.038 . S
O190 C188 1.274 . S
O191 Mg179 2.042 . S
O191 C194 1.241 . S
O192 Mg178 1.984 . S
O192 C194 1.280 . S
O193 Mg179 2.041 . S
O193 C197 1.277 . S
C194 O191 1.241 . S
C194 O192 1.280 . S
O195 Mg178 1.988 . S
O195 C197 1.245 . S
O196 C172 1.247 . S
O196 Mg178 2.061 . S
C197 O193 1.277 . S
C197 O195 1.245 . S
O198 C172 1.289 . S
O198 Mg175 2.238 . S
O198 Mg176 2.106 . S
O199 Mg176 2.079 . S
O199 C181 1.245 . S
O200 Mg179 2.038 . S
O200 C181 1.274 . S
C201 C202 1.369 . S
C201 C203 1.419 . S
C201 H205 0.930 . S
C202 C201 1.369 . S
C202 C211 1.429 . S
C203 C201 1.419 . S
C203 C204 1.363 . S
C203 H206 0.929 . S
C204 C203 1.363 . S
C204 C210 1.428 . S
H205 C201 0.930 . S
H206 C203 0.929 . S
S207 N208 1.613 . S
S207 N209 1.610 . S
N208 S207 1.613 . S
N208 C211 1.350 . S
N209 S207 1.610 . S
N209 C210 1.351 . S
C210 C204 1.428 . S
C210 N209 1.351 . S
C210 C211 1.434 . S
C211 C202 1.429 . S
C211 N208 1.350 . S
C211 C210 1.434 . S
C212 C213 1.369 . S
C212 C214 1.419 . S
C212 H216 0.930 . S
C213 C212 1.369 . S
C213 C222 1.429 . S
C214 C212 1.419 . S
C214 C215 1.363 . S
C214 H217 0.929 . S
C215 C214 1.363 . S
C215 C221 1.428 . S
H216 C212 0.930 . S
H217 C214 0.929 . S
S218 N219 1.613 . S
S218 N220 1.610 . S
N219 S218 1.613 . S
N219 C222 1.350 . S
N220 S218 1.610 . S
N220 C221 1.351 . S
C221 C215 1.428 . S
C221 N220 1.351 . S
C221 C222 1.434 . S
C222 C213 1.429 . S
C222 N219 1.350 . S
C222 C221 1.434 . S
C223 C224 1.369 . S
C223 C225 1.419 . S
C223 H227 0.930 . S
C224 C223 1.369 . S
C224 C233 1.429 . S
C225 C223 1.419 . S
C225 C226 1.363 . S
C225 H228 0.929 . S
C226 C225 1.363 . S
C226 C232 1.428 . S
H227 C223 0.930 . S
H228 C225 0.929 . S
S229 N230 1.613 . S
S229 N231 1.610 . S
N230 S229 1.613 . S
N230 C233 1.350 . S
N231 S229 1.610 . S
N231 C232 1.351 . S
C232 C226 1.428 . S
C232 N231 1.351 . S
C232 C233 1.434 . S
C233 C224 1.429 . S
C233 N230 1.350 . S
C233 C232 1.434 . S
C234 C235 1.369 . S
C234 C236 1.419 . S
C234 H238 0.930 . S
C235 C234 1.369 . S
C235 C244 1.429 . S
C236 C234 1.419 . S
C236 C237 1.363 . S
C236 H239 0.929 . S
C237 C236 1.363 . S
C237 C243 1.428 . S
H238 C234 0.930 . S
H239 C236 0.929 . S
S240 N241 1.613 . S
S240 N242 1.610 . S
N241 S240 1.613 . S
N241 C244 1.350 . S
N242 S240 1.610 . S
N242 C243 1.351 . S
C243 C237 1.428 . S
C243 N242 1.351 . S
C243 C244 1.434 . S
C244 C235 1.429 . S
C244 N241 1.350 . S
C244 C243 1.434 . S
C245 C246 1.369 . S
C245 C247 1.419 . S
C245 H249 0.930 . S
C246 C245 1.369 . S
C246 C255 1.429 . S
C247 C245 1.419 . S
C247 C248 1.363 . S
C247 H250 0.929 . S
C248 C247 1.363 . S
C248 C254 1.428 . S
H249 C245 0.930 . S
H250 C247 0.929 . S
S251 N252 1.613 . S
S251 N253 1.610 . S
N252 S251 1.613 . S
N252 C255 1.350 . S
N253 S251 1.610 . S
N253 C254 1.351 . S
C254 C248 1.428 . S
C254 N253 1.351 . S
C254 C255 1.434 . S
C255 C246 1.429 . S
C255 N252 1.350 . S
C255 C254 1.434 . S
C256 C257 1.369 . S
C256 C258 1.419 . S
C256 H260 0.930 . S
C257 C256 1.369 . S
C257 C266 1.429 . S
C258 C256 1.419 . S
C258 C259 1.363 . S
C258 H261 0.929 . S
C259 C258 1.363 . S
C259 C265 1.428 . S
H260 C256 0.930 . S
H261 C258 0.929 . S
S262 N263 1.613 . S
S262 N264 1.610 . S
N263 S262 1.613 . S
N263 C266 1.350 . S
N264 S262 1.610 . S
N264 C265 1.351 . S
C265 C259 1.428 . S
C265 N264 1.351 . S
C265 C266 1.434 . S
C266 C257 1.429 . S
C266 N263 1.350 . S
C266 C265 1.434 . S
C267 C268 1.369 . S
C267 C269 1.419 . S
C267 H271 0.930 . S
C268 C267 1.369 . S
C268 C277 1.429 . S
C269 C267 1.419 . S
C269 C270 1.363 . S
C269 H272 0.929 . S
C270 C269 1.363 . S
C270 C276 1.428 . S
H271 C267 0.930 . S
H272 C269 0.929 . S
S273 N274 1.613 . S
S273 N275 1.610 . S
N274 S273 1.613 . S
N274 C277 1.350 . S
N275 S273 1.610 . S
N275 C276 1.351 . S
C276 C270 1.428 . S
C276 N275 1.351 . S
C276 C277 1.434 . S
C277 C268 1.429 . S
C277 N274 1.350 . S
C277 C276 1.434 . S
C278 C279 1.369 . S
C278 C280 1.419 . S
C278 H282 0.930 . S
C279 C278 1.369 . S
C279 C288 1.429 . S
C280 C278 1.419 . S
C280 C281 1.363 . S
C280 H283 0.929 . S
C281 C280 1.363 . S
C281 C287 1.428 . S
H282 C278 0.930 . S
H283 C280 0.929 . S
S284 N285 1.613 . S
S284 N286 1.610 . S
N285 S284 1.613 . S
N285 C288 1.350 . S
N286 S284 1.610 . S
N286 C287 1.351 . S
C287 C281 1.428 . S
C287 N286 1.351 . S
C287 C288 1.434 . S
C288 C279 1.429 . S
C288 N285 1.350 . S
C288 C287 1.434 . S
C289 C290 1.369 . S
C289 C291 1.419 . S
C289 H293 0.930 1_556 S
C290 C289 1.369 . S
C290 C299 1.429 . S
C291 C289 1.419 . S
C291 C292 1.363 . S
C291 H294 0.929 . S
C292 C291 1.363 . S
C292 C298 1.428 . S
H293 C289 0.930 1_554 S
H294 C291 0.929 . S
S295 N296 1.613 . S
S295 N297 1.610 . S
N296 S295 1.613 . S
N296 C299 1.350 . S
N297 S295 1.610 . S
N297 C298 1.351 . S
C298 C292 1.428 . S
C298 N297 1.351 . S
C298 C299 1.434 . S
C299 C290 1.429 . S
C299 N296 1.350 . S
C299 C298 1.434 . S
C300 C301 1.369 . S
C300 C302 1.419 . S
C300 H304 0.930 . S
C301 C300 1.369 . S
C301 C310 1.429 . S
C302 C300 1.419 . S
C302 C303 1.363 1_554 S
C302 H305 0.929 . S
C303 C302 1.363 1_556 S
C303 C309 1.428 . S
H304 C300 0.930 . S
H305 C302 0.929 . S
S306 N307 1.613 . S
S306 N308 1.610 . S
N307 S306 1.613 . S
N307 C310 1.350 1_556 S
N308 S306 1.610 . S
N308 C309 1.351 . S
C309 C303 1.428 . S
C309 N308 1.351 . S
C309 C310 1.434 1_556 S
C310 C301 1.429 . S
C310 N307 1.350 1_554 S
C310 C309 1.434 1_554 S
C311 C312 1.369 . S
C311 C313 1.419 1_554 S
C311 H315 0.930 . S
C312 C311 1.369 . S
C312 C321 1.429 1_554 S
C313 C311 1.419 1_556 S
C313 C314 1.363 . S
C313 H316 0.929 1_556 S
C314 C313 1.363 . S
C314 C320 1.428 . S
H315 C311 0.930 . S
H316 C313 0.929 1_554 S
S317 N318 1.613 . S
S317 N319 1.610 . S
N318 S317 1.613 . S
N318 C321 1.350 . S
N319 S317 1.610 . S
N319 C320 1.351 . S
C320 C314 1.428 . S
C320 N319 1.351 . S
C320 C321 1.434 . S
C321 C312 1.429 1_556 S
C321 N318 1.350 . S
C321 C320 1.434 . S
C322 C323 1.369 1_556 S
C322 C324 1.419 . S
C322 H326 0.930 . S
C323 C322 1.369 1_554 S
C323 C332 1.429 1_554 S
C324 C322 1.419 . S
C324 C325 1.363 . S
C324 H327 0.929 . S
C325 C324 1.363 . S
C325 C331 1.428 . S
H326 C322 0.930 . S
H327 C324 0.929 . S
S328 N329 1.613 1_556 S
S328 N330 1.610 . S
N329 S328 1.613 1_554 S
N329 C332 1.350 1_554 S
N330 S328 1.610 . S
N330 C331 1.351 . S
C331 C325 1.428 . S
C331 N330 1.351 . S
C331 C332 1.434 . S
C332 C323 1.429 1_556 S
C332 N329 1.350 1_556 S
C332 C331 1.434 . S
C333 C334 1.369 . S
C333 C335 1.419 . S
C333 H337 0.930 . S
C334 C333 1.369 . S
C334 C343 1.429 . S
C335 C333 1.419 . S
C335 C336 1.363 . S
C335 H338 0.929 . S
C336 C335 1.363 . S
C336 C342 1.428 . S
H337 C333 0.930 . S
H338 C335 0.929 . S
S339 N340 1.613 . S
S339 N341 1.610 . S
N340 S339 1.613 . S
N340 C343 1.350 . S
N341 S339 1.610 . S
N341 C342 1.351 . S
C342 C336 1.428 . S
C342 N341 1.351 . S
C342 C343 1.434 . S
C343 C334 1.429 . S
C343 N340 1.350 . S
C343 C342 1.434 . S
C344 C345 1.369 . S
C344 C346 1.419 . S
C344 H348 0.930 . S
C345 C344 1.369 . S
C345 C354 1.429 . S
C346 C344 1.419 . S
C346 C347 1.363 . S
C346 H349 0.929 . S
C347 C346 1.363 . S
C347 C353 1.428 . S
H348 C344 0.930 . S
H349 C346 0.929 . S
S350 N351 1.613 . S
S350 N352 1.610 . S
N351 S350 1.613 . S
N351 C354 1.350 . S
N352 S350 1.610 . S
N352 C353 1.351 . S
C353 C347 1.428 . S
C353 N352 1.351 . S
C353 C354 1.434 . S
C354 C345 1.429 . S
C354 N351 1.350 . S
C354 C353 1.434 . S
C355 C356 1.369 1_556 S
C355 C357 1.419 . S
C355 H359 0.930 . S
C356 C355 1.369 1_554 S
C356 C365 1.429 . S
C357 C355 1.419 . S
C357 C358 1.363 . S
C357 H360 0.929 . S
C358 C357 1.363 . S
C358 C364 1.428 1_556 S
H359 C355 0.930 . S
H360 C357 0.929 . S
S361 N362 1.613 . S
S361 N363 1.610 . S
N362 S361 1.613 . S
N362 C365 1.350 . S
N363 S361 1.610 . S
N363 C364 1.351 . S
C364 C358 1.428 1_554 S
C364 N363 1.351 . S
C364 C365 1.434 . S
C365 C356 1.429 . S
C365 N362 1.350 . S
C365 C364 1.434 . S
C366 C367 1.369 1_556 S
C366 C368 1.419 . S
C366 H370 0.930 . S
C367 C366 1.369 1_554 S
C367 C376 1.429 . S
C368 C366 1.419 . S
C368 C369 1.363 . S
C368 H371 0.929 . S
C369 C368 1.363 . S
C369 C375 1.428 . S
H370 C366 0.930 . S
H371 C368 0.929 . S
S372 N373 1.613 . S
S372 N374 1.610 . S
N373 S372 1.613 . S
N373 C376 1.350 . S
N374 S372 1.610 . S
N374 C375 1.351 1_554 S
C375 C369 1.428 . S
C375 N374 1.351 1_556 S
C375 C376 1.434 1_556 S
C376 C367 1.429 . S
C376 N373 1.350 . S
C376 C375 1.434 1_554 S
C377 C378 1.369 . S
C377 C379 1.419 . S
C377 H381 0.930 . S
C378 C377 1.369 . S
C378 C387 1.429 1_556 S
C379 C377 1.419 . S
C379 C380 1.363 . S
C379 H382 0.929 . S
C380 C379 1.363 . S
C380 C386 1.428 . S
H381 C377 0.930 . S
H382 C379 0.929 . S
S383 N384 1.613 . S
S383 N385 1.610 1_554 S
N384 S383 1.613 . S
N384 C387 1.350 . S
N385 S383 1.610 1_556 S
N385 C386 1.351 . S
C386 C380 1.428 . S
C386 N385 1.351 . S
C386 C387 1.434 1_556 S
C387 C378 1.429 1_554 S
C387 N384 1.350 . S
C387 C386 1.434 1_554 S
C388 C389 1.369 . S
C388 C390 1.419 . S
C388 H392 0.930 . S
C389 C388 1.369 . S
C389 C398 1.429 . S
C390 C388 1.419 . S
C390 C391 1.363 . S
C390 H393 0.929 . S
C391 C390 1.363 . S
C391 C397 1.428 . S
H392 C388 0.930 . S
H393 C390 0.929 . S
S394 N395 1.613 . S
S394 N396 1.610 . S
N395 S394 1.613 . S
N395 C398 1.350 . S
N396 S394 1.610 . S
N396 C397 1.351 . S
C397 C391 1.428 . S
C397 N396 1.351 . S
C397 C398 1.434 . S
C398 C389 1.429 . S
C398 N395 1.350 . S
C398 C397 1.434 . S
C399 C400 1.369 . S
C399 C401 1.419 . S
C399 H403 0.930 . S
C400 C399 1.369 . S
C400 C409 1.429 . S
C401 C399 1.419 . S
C401 C402 1.363 . S
C401 H404 0.929 . S
C402 C401 1.363 . S
C402 C408 1.428 . S
H403 C399 0.930 . S
H404 C401 0.929 . S
S405 N406 1.613 . S
S405 N407 1.610 . S
N406 S405 1.613 . S
N406 C409 1.350 . S
N407 S405 1.610 . S
N407 C408 1.351 . S
C408 C402 1.428 . S
C408 N407 1.351 . S
C408 C409 1.434 . S
C409 C400 1.429 . S
C409 N406 1.350 . S
C409 C408 1.434 . S
C410 C411 1.369 . S
C410 C412 1.419 . S
C410 H414 0.930 . S
C411 C410 1.369 . S
C411 C420 1.429 . S
C412 C410 1.419 . S
C412 C413 1.363 . S
C412 H415 0.929 . S
C413 C412 1.363 . S
C413 C419 1.428 . S
H414 C410 0.930 . S
H415 C412 0.929 . S
S416 N417 1.613 . S
S416 N418 1.610 . S
N417 S416 1.613 . S
N417 C420 1.350 . S
N418 S416 1.610 . S
N418 C419 1.351 . S
C419 C413 1.428 . S
C419 N418 1.351 . S
C419 C420 1.434 . S
C420 C411 1.429 . S
C420 N417 1.350 . S
C420 C419 1.434 . S
C421 C422 1.369 . S
C421 C423 1.419 . S
C421 H425 0.930 . S
C422 C421 1.369 . S
C422 C431 1.429 . S
C423 C421 1.419 . S
C423 C424 1.363 . S
C423 H426 0.929 . S
C424 C423 1.363 . S
C424 C430 1.428 . S
H425 C421 0.930 . S
H426 C423 0.929 . S
S427 N428 1.613 . S
S427 N429 1.610 . S
N428 S427 1.613 . S
N428 C431 1.350 . S
N429 S427 1.610 . S
N429 C430 1.351 . S
C430 C424 1.428 . S
C430 N429 1.351 . S
C430 C431 1.434 . S
C431 C422 1.429 . S
C431 N428 1.350 . S
C431 C430 1.434 . S
C432 C433 1.369 . S
C432 C434 1.419 . S
C432 H436 0.930 . S
C433 C432 1.369 . S
C433 C442 1.429 . S
C434 C432 1.419 . S
C434 C435 1.363 . S
C434 H437 0.929 . S
C435 C434 1.363 . S
C435 C441 1.428 . S
H436 C432 0.930 . S
H437 C434 0.929 . S
S438 N439 1.613 . S
S438 N440 1.610 . S
N439 S438 1.613 . S
N439 C442 1.350 . S
N440 S438 1.610 . S
N440 C441 1.351 . S
C441 C435 1.428 . S
C441 N440 1.351 . S
C441 C442 1.434 . S
C442 C433 1.429 . S
C442 N439 1.350 . S
C442 C441 1.434 . S
C443 C444 1.369 . S
C443 C445 1.419 . S
C443 H447 0.930 . S
C444 C443 1.369 . S
C444 C453 1.429 . S
C445 C443 1.419 . S
C445 C446 1.363 . S
C445 H448 0.929 . S
C446 C445 1.363 . S
C446 C452 1.428 . S
H447 C443 0.930 . S
H448 C445 0.929 . S
S449 N450 1.613 . S
S449 N451 1.610 . S
N450 S449 1.613 . S
N450 C453 1.350 . S
N451 S449 1.610 . S
N451 C452 1.351 . S
C452 C446 1.428 . S
C452 N451 1.351 . S
C452 C453 1.434 . S
C453 C444 1.429 . S
C453 N450 1.350 . S
C453 C452 1.434 . S
C454 C455 1.369 . S
C454 C456 1.419 . S
C454 H458 0.930 . S
C455 C454 1.369 . S
C455 C464 1.429 . S
C456 C454 1.419 . S
C456 C457 1.363 . S
C456 H459 0.929 . S
C457 C456 1.363 . S
C457 C463 1.428 . S
H458 C454 0.930 . S
H459 C456 0.929 . S
S460 N461 1.613 . S
S460 N462 1.610 . S
N461 S460 1.613 . S
N461 C464 1.350 . S
N462 S460 1.610 . S
N462 C463 1.351 . S
C463 C457 1.428 . S
C463 N462 1.351 . S
C463 C464 1.434 . S
C464 C455 1.429 . S
C464 N461 1.350 . S
C464 C463 1.434 . S
C202 C16 1.828 . S
C204 C119 1.845 . S
C213 C26 1.555 . S
C215 C166 1.568 . S
C226 C170 1.713 . S
C224 C52 1.727 . S
C237 C135 1.478 . S
C235 C62 1.501 . S
C246 C80 1.810 . S
C248 C150 1.760 . S
C259 C172 1.250 . S
C257 C98 1.239 . S
C270 C141 1.605 . S
C268 C43 1.578 . S
C279 C68 1.491 . S
C281 C181 1.500 . S
C292 C110 1.484 . S
C290 C86 1.531 1_556 S
C301 C104 1.439 . S
C303 C139 1.408 . S
C312 C7 1.825 . S
C314 C197 1.797 . S
C325 C108 1.502 . S
C323 C32 1.497 . S
C336 C126 1.806 . S
C334 C61 1.822 . S
C347 C140 1.560 . S
C345 C79 1.544 1_556 S
C358 C194 1.693 . S
C356 C97 1.724 . S
C369 C109 1.461 . S
C367 C14 1.485 . S
C380 C157 1.705 . S
C378 C25 1.773 1_556 S
C389 C50 1.211 . S
C391 C180 1.224 . S
C402 C149 1.572 . S
C400 C106 1.567 . S
C413 C188 1.438 . S
C411 C8 1.434 . S
C424 C118 1.437 . S
C422 C34 1.489 . S
C435 C163 1.381 . S
C433 C44 1.405 . S
C444 C70 1.815 . S
C446 C171 1.777 . S
C455 C88 1.471 . S
C457 C132 1.471 . S
