# Generated by pormake.
# Topology pth, (4,4)-cn, num edge types: 1
# Building blocks:
#     Node 0, Type 0, BuildingBlock: NAHDIM_clean_sbu_0, # of connection points: 4
#     Node 1, Type 0, BuildingBlock: NAHDIM_clean_sbu_0, # of connection points: 4
#     Node 2, Type 0, BuildingBlock: NAHDIM_clean_sbu_0, # of connection points: 4
#     Node 3, Type 1, BuildingBlock: NAHDIM_clean_linker_0, # of connection points: 4
#     Node 4, Type 1, BuildingBlock: NAHDIM_clean_linker_0, # of connection points: 4
#     Node 5, Type 1, BuildingBlock: NAHDIM_clean_linker_0, # of connection points: 4
#     Edge 6, Type (0, 1), BuildingBlock: FUNLAD_clean_linker_1, # of connection points: 2
#     Edge 7, Type (0, 1), BuildingBlock: FUNLAD_clean_linker_1, # of connection points: 2
#     Edge 8, Type (0, 1), BuildingBlock: FUNLAD_clean_linker_1, # of connection points: 2
#     Edge 9, Type (0, 1), BuildingBlock: FUNLAD_clean_linker_1, # of connection points: 2
#     Edge 10, Type (0, 1), BuildingBlock: FUNLAD_clean_linker_1, # of connection points: 2
#     Edge 11, Type (0, 1), BuildingBlock: FUNLAD_clean_linker_1, # of connection points: 2
#     Edge 12, Type (0, 1), BuildingBlock: FUNLAD_clean_linker_1, # of connection points: 2
#     Edge 13, Type (0, 1), BuildingBlock: FUNLAD_clean_linker_1, # of connection points: 2
#     Edge 14, Type (0, 1), BuildingBlock: FUNLAD_clean_linker_1, # of connection points: 2
#     Edge 15, Type (0, 1), BuildingBlock: FUNLAD_clean_linker_1, # of connection points: 2
#     Edge 16, Type (0, 1), BuildingBlock: FUNLAD_clean_linker_1, # of connection points: 2
#     Edge 17, Type (0, 1), BuildingBlock: FUNLAD_clean_linker_1, # of connection points: 2
# Relax obj value: 0.059
# Max RMSD: 0.179
# Mean RMSD: 0.115
data_MOF--net-pth--node1-NAHDIM_clean_sbu_0--node2-NAHDIM_clean_linker_0--edge1-FUNLAD_clean_linker_1
_symmetry_space_group_name_H-M    P1
_symmetry_Int_Tables_number       1
_symmetry_cell_setting            triclinic
loop_
_symmetry_equiv_pos_as_xyz
'x, y, z'
_cell_length_a     32.649581
_cell_length_b     32.80944
_cell_length_c     81.796799
_cell_angle_alpha  91.675999
_cell_angle_beta   90.469573
_cell_angle_gamma 120.57548
loop_
_atom_site_label
_atom_site_type_symbol
_atom_site_fract_x
_atom_site_fract_y
_atom_site_fract_z
_atom_type_partial_charge
C0 C 0.0235 0.99012 0.05176 0.0
O1 O 0.98804 0.99801 0.05048 0.0
O2 O 0.05724 0.11054 0.04608 0.0
Zn3 Zn 0.05515 0.06181 0.02996 0.0
O4 O 0.9928 0.02587 0.01724 0.0
C5 C 0.12123 0.13696 0.01087 0.0
O6 O 0.10214 0.15815 0.01891 0.0
O7 O 0.06044 0.01414 0.04342 0.0
C8 C 0.98294 0.04 0.00431 0.0
O9 O 0.0134 0.0819 0.99893 0.0
C10 C 0.02358 0.11768 0.04963 0.0
O11 O 0.98158 0.0919 0.04238 0.0
O12 O 0.10805 0.09424 0.01385 0.0
C13 C 0.11874 0.19641 0.33671 0.0
O14 O 0.0732 0.16439 0.33552 0.0
O15 O 0.10141 0.07328 0.34573 0.0
Zn16 Zn 0.11556 0.13122 0.35937 0.0
O17 O 0.05589 0.1245 0.36893 0.0
C18 C 0.18916 0.12455 0.37682 0.0
O19 O 0.19525 0.10981 0.36243 0.0
O20 O 0.14576 0.18962 0.34607 0.0
C21 C 0.03575 0.09693 0.38055 0.0
O22 O 0.0528 0.07088 0.38582 0.0
C23 C 0.06146 0.04452 0.33888 0.0
O24 O 0.02599 0.05248 0.34003 0.0
O25 O 0.15857 0.13733 0.37827 0.0
C26 C 0.07882 0.99083 0.67042 0.0
O27 O 0.03315 0.95952 0.66913 0.0
O28 O 0.00454 0.04504 0.68355 0.0
Zn29 Zn 0.05163 0.035 0.69618 0.0
O30 O 0.09352 0.09278 0.71059 0.0
C31 C 0.98325 0.9766 0.71898 0.0
O32 O 0.9766 0.01288 0.71972 0.0
O33 O 0.09383 0.02507 0.68091 0.0
C34 C 0.08157 0.12279 0.71476 0.0
O35 O 0.0398 0.11575 0.71008 0.0
C36 C 0.01598 0.07294 0.67181 0.0
O37 O 0.06033 0.09603 0.66714 0.0
O38 O 0.01501 0.97794 0.70978 0.0
C39 C 0.93624 0.67652 0.30232 0.0
C40 C 0.96946 0.71223 0.29014 0.0
C41 C 0.97143 0.67664 0.26397 0.0
C42 C 0.02046 0.70027 0.26124 0.0
C43 C 0.03993 0.67952 0.2511 0.0
C44 C 0.00966 0.63412 0.24368 0.0
C45 C 0.95993 0.61104 0.24599 0.0
C46 C 0.9414 0.63311 0.25591 0.0
C47 C 0.09287 0.70577 0.24852 0.0
C48 C 0.92648 0.56244 0.2384 0.0
C49 C 0.20823 0.54772 0.30542 0.0
C50 C 0.16369 0.51181 0.29554 0.0
C51 C 0.14647 0.52405 0.26777 0.0
C52 C 0.09658 0.49879 0.26788 0.0
C53 C 0.07002 0.50874 0.2568 0.0
C54 C 0.09401 0.54525 0.24562 0.0
C55 C 0.1444 0.56964 0.24519 0.0
C56 C 0.16986 0.55784 0.25606 0.0
C57 C 0.01641 0.48096 0.25731 0.0
C58 C 0.17163 0.60952 0.23373 0.0
C59 C 0.07071 0.42717 0.14428 0.0
C60 C 0.02518 0.41498 0.14951 0.0
C61 C 0.01652 0.44956 0.15631 0.0
C62 C 0.05413 0.49725 0.15779 0.0
C63 C 0.09937 0.51 0.1517 0.0
C64 C 0.10694 0.4747 0.14486 0.0
C65 C 0.96744 0.43502 0.16222 0.0
C66 C 0.13999 0.56064 0.15288 0.0
C67 C 0.96632 0.77075 0.15 0.0
C68 C 0.00662 0.76918 0.14114 0.0
C69 C 0.99945 0.69179 0.14009 0.0
C70 C 0.96222 0.64521 0.14159 0.0
C71 C 0.96991 0.61167 0.14914 0.0
C72 C 0.01616 0.62521 0.155 0.0
C73 C 0.05457 0.67138 0.1524 0.0
C74 C 0.04579 0.70421 0.14494 0.0
C75 C 0.92841 0.56254 0.15152 0.0
C76 C 0.10463 0.68654 0.15802 0.0
C77 C 0.03002 0.60931 0.23438 0.0
C78 C 0.05049 0.58819 0.24329 0.0
C79 C 0.06711 0.5611 0.23548 0.0
C80 C 0.06089 0.55271 0.21835 0.0
C81 C 0.07267 0.52183 0.21024 0.0
C82 C 0.0673 0.51468 0.1933 0.0
C83 C 0.05113 0.5391 0.18382 0.0
C84 C 0.04661 0.53303 0.16657 0.0
C85 C 0.03401 0.5606 0.15744 0.0
C86 C 0.02402 0.59301 0.16519 0.0
C87 C 0.02459 0.59674 0.18247 0.0
C88 C 0.01134 0.62645 0.19066 0.0
C89 C 0.01242 0.63016 0.20767 0.0
C90 C 0.02812 0.60537 0.21711 0.0
C91 C 0.04262 0.57607 0.20909 0.0
C92 C 0.03928 0.5705 0.19178 0.0
C93 C 0.10587 0.34919 0.15354 0.0
C94 C 0.06444 0.34991 0.14497 0.0
O95 O 0.95226 0.69493 0.27439 0.0
O96 O 0.9897 0.7242 0.13417 0.0
O97 O 0.08073 0.39407 0.13853 0.0
O98 O 0.17297 0.51723 0.279 0.0
H99 H 0.00542 0.7169 0.29219 0.0
H100 H 0.93488 0.64224 0.30022 0.0
H101 H 0.89961 0.67036 0.30084 0.0
H102 H 0.94943 0.68964 0.31506 0.0
H103 H 0.04346 0.73487 0.26705 0.0
H104 H 0.90351 0.61558 0.25796 0.0
H105 H 0.10903 0.68799 0.25506 0.0
H106 H 0.1104 0.74324 0.25313 0.0
H107 H 0.1002 0.70501 0.23531 0.0
H108 H 0.8894 0.54775 0.24252 0.0
H109 H 0.93876 0.53761 0.24155 0.0
H110 H 0.92645 0.56435 0.22488 0.0
H111 H 0.135 0.51929 0.29877 0.0
H112 H 0.20141 0.54403 0.31874 0.0
H113 H 0.23866 0.54259 0.30273 0.0
H114 H 0.21812 0.58423 0.30223 0.0
H115 H 0.07846 0.47152 0.27667 0.0
H116 H 0.20841 0.57666 0.256 0.0
H117 H 0.00059 0.47108 0.24473 0.0
H118 H 0.00383 0.5033 0.26327 0.0
H119 H 0.00321 0.44825 0.26431 0.0
H120 H 0.21053 0.62896 0.23651 0.0
H121 H 0.15887 0.63508 0.23447 0.0
H122 H 0.16562 0.59498 0.22096 0.0
H123 H 0.03712 0.34195 0.15433 0.0
H124 H 0.99637 0.37852 0.1483 0.0
H125 H 0.1417 0.48382 0.14046 0.0
H126 H 0.96887 0.44044 0.17572 0.0
H127 H 0.94114 0.3973 0.15901 0.0
H128 H 0.95492 0.45761 0.15685 0.0
H129 H 0.17295 0.56484 0.14746 0.0
H130 H 0.14762 0.57313 0.16592 0.0
H131 H 0.1298 0.5837 0.1465 0.0
H132 H 0.03542 0.77856 0.15045 0.0
H133 H 0.97927 0.80661 0.15564 0.0
H134 H 0.95326 0.74482 0.15987 0.0
H135 H 0.93607 0.76164 0.1414 0.0
H136 H 0.92672 0.6358 0.13749 0.0
H137 H 0.07499 0.73974 0.14307 0.0
H138 H 0.92277 0.55647 0.16481 0.0
H139 H 0.93637 0.53577 0.14631 0.0
H140 H 0.89499 0.55695 0.14569 0.0
H141 H 0.13119 0.72182 0.15355 0.0
H142 H 0.11417 0.66011 0.15368 0.0
H143 H 0.10676 0.68822 0.1716 0.0
H144 H 0.05394 0.59327 0.25651 0.0
H145 H 0.08581 0.50263 0.21693 0.0
H146 H 0.07681 0.4904 0.18772 0.0
H147 H 0.03237 0.55709 0.14419 0.0
H148 H 0.99945 0.64679 0.18402 0.0
H149 H 0.00159 0.65331 0.21333 0.0
H150 H 0.0935 0.314 0.15876 0.0
H151 H 0.12058 0.37645 0.1637 0.0
H152 H 0.13475 0.35694 0.14487 0.0
C153 C 0.4121 0.02382 0.63565 0.0
C154 C 0.39846 0.05 0.62358 0.0
C155 C 0.42738 0.04204 0.59718 0.0
C156 C 0.45688 0.08932 0.59303 0.0
C157 C 0.4941 0.10182 0.58214 0.0
C158 C 0.50199 0.06624 0.5754 0.0
C159 C 0.47149 0.01834 0.57932 0.0
C160 C 0.43396 0.0068 0.58997 0.0
C161 C 0.52517 0.15302 0.57792 0.0
C162 C 0.47912 0.97947 0.57256 0.0
C163 C 0.80934 0.22445 0.62899 0.0
C164 C 0.79923 0.18142 0.61815 0.0
C165 C 0.75834 0.17038 0.59199 0.0
C166 C 0.72775 0.12108 0.59136 0.0
C167 C 0.68594 0.09993 0.58158 0.0
C168 C 0.67448 0.12881 0.57236 0.0
C169 C 0.70617 0.17845 0.57259 0.0
C170 C 0.74821 0.19847 0.58221 0.0
C171 C 0.65364 0.04682 0.58129 0.0
C172 C 0.69495 0.2105 0.5631 0.0
C173 C 0.72518 0.08044 0.46841 0.0
C174 C 0.69433 0.03897 0.47646 0.0
C175 C 0.65489 0.03479 0.48466 0.0
C176 C 0.64633 0.07298 0.48486 0.0
C177 C 0.67621 0.114 0.47616 0.0
C178 C 0.71507 0.11695 0.46787 0.0
C179 C 0.62276 0.98982 0.49333 0.0
C180 C 0.66778 0.15513 0.47601 0.0
C181 C 0.26819 0.97132 0.47731 0.0
C182 C 0.31544 0.00651 0.4698 0.0
C183 C 0.38733 0.00167 0.47332 0.0
C184 C 0.40078 0.96902 0.4774 0.0
C185 C 0.4459 0.98403 0.48436 0.0
C186 C 0.47851 0.03305 0.48702 0.0
C187 C 0.46611 0.0664 0.48202 0.0
C188 C 0.42061 0.05037 0.47517 0.0
C189 C 0.45823 0.94755 0.48934 0.0
C190 C 0.50059 0.11894 0.48427 0.0
C191 C 0.54324 0.07921 0.5648 0.0
C192 C 0.58791 0.09719 0.57241 0.0
C193 C 0.628 0.10765 0.56336 0.0
C194 C 0.62336 0.09878 0.54623 0.0
C195 C 0.66232 0.10634 0.53684 0.0
C196 C 0.65725 0.09728 0.51999 0.0
C197 C 0.61308 0.08063 0.51186 0.0
C198 C 0.60735 0.07055 0.49478 0.0
C199 C 0.56338 0.0556 0.48701 0.0
C200 C 0.52436 0.04932 0.49593 0.0
C201 C 0.52891 0.05747 0.5131 0.0
C202 C 0.4899 0.04977 0.52253 0.0
C203 C 0.49451 0.05701 0.53945 0.0
C204 C 0.53838 0.0726 0.54759 0.0
C205 C 0.57845 0.08172 0.5383 0.0
C206 C 0.57352 0.07344 0.52107 0.0
C207 C 0.8313 0.11705 0.47981 0.0
C208 C 0.79736 0.07617 0.46807 0.0
O209 O 0.39211 0.02948 0.60802 0.0
O210 O 0.34212 0.98485 0.46764 0.0
O211 O 0.76476 0.08613 0.46104 0.0
O212 O 0.79774 0.1918 0.60193 0.0
H213 H 0.42738 0.0878 0.62394 0.0
H214 H 0.44618 0.02664 0.63209 0.0
H215 H 0.38418 0.9857 0.6357 0.0
H216 H 0.41687 0.0397 0.64821 0.0
H217 H 0.45059 0.11637 0.59819 0.0
H218 H 0.4105 0.97034 0.59315 0.0
H219 H 0.56146 0.16702 0.58327 0.0
H220 H 0.51106 0.17545 0.58265 0.0
H221 H 0.52839 0.15603 0.56445 0.0
H222 H 0.45505 0.94483 0.57801 0.0
H223 H 0.51654 0.98886 0.57488 0.0
H224 H 0.47261 0.97546 0.55911 0.0
H225 H 0.76439 0.15115 0.62179 0.0
H226 H 0.81001 0.21687 0.64211 0.0
H227 H 0.78089 0.23302 0.627 0.0
H228 H 0.84409 0.25579 0.62601 0.0
H229 H 0.73658 0.09919 0.59852 0.0
H230 H 0.77249 0.23645 0.58265 0.0
H231 H 0.62047 0.03787 0.58774 0.0
H232 H 0.67056 0.02895 0.58733 0.0
H233 H 0.64351 0.03263 0.56848 0.0
H234 H 0.72161 0.24858 0.56553 0.0
H235 H 0.65924 0.20421 0.56628 0.0
H236 H 0.69407 0.2023 0.5498 0.0
H237 H 0.77922 0.04333 0.47508 0.0
H238 H 0.70068 0.00965 0.47626 0.0
H239 H 0.73871 0.14849 0.46138 0.0
H240 H 0.62641 0.99745 0.50675 0.0
H241 H 0.63135 0.96166 0.49063 0.0
H242 H 0.58501 0.97629 0.4897 0.0
H243 H 0.69472 0.18485 0.46887 0.0
H244 H 0.66868 0.16831 0.48874 0.0
H245 H 0.6319 0.14316 0.47065 0.0
H246 H 0.33355 0.03772 0.47851 0.0
H247 H 0.24633 0.98802 0.4795 0.0
H248 H 0.27497 0.96015 0.48923 0.0
H249 H 0.24785 0.93935 0.46908 0.0
H250 H 0.37513 0.93153 0.47562 0.0
H251 H 0.41118 0.07591 0.47131 0.0
H252 H 0.46583 0.95117 0.50273 0.0
H253 H 0.49093 0.95375 0.48313 0.0
H254 H 0.42912 0.91078 0.48626 0.0
H255 H 0.48694 0.14031 0.47866 0.0
H256 H 0.53512 0.12821 0.47877 0.0
H257 H 0.50748 0.1287 0.49754 0.0
H258 H 0.59152 0.10305 0.5856 0.0
H259 H 0.69709 0.11899 0.54245 0.0
H260 H 0.68847 0.10363 0.51341 0.0
H261 H 0.55931 0.04812 0.47389 0.0
H262 H 0.4552 0.03765 0.51696 0.0
H263 H 0.46324 0.05031 0.54608 0.0
H264 H 0.85806 0.10972 0.48528 0.0
H265 H 0.81098 0.12125 0.48988 0.0
H266 H 0.85006 0.15081 0.4733 0.0
C267 C 0.68161 0.65055 0.75692 0.0
C268 C 0.68597 0.69263 0.76702 0.0
C269 C 0.65853 0.67145 0.79458 0.0
C270 C 0.62908 0.69073 0.79648 0.0
C271 C 0.59118 0.67125 0.80729 0.0
C272 C 0.58254 0.63147 0.81625 0.0
C273 C 0.61363 0.61338 0.81487 0.0
C274 C 0.65182 0.63423 0.80421 0.0
C275 C 0.55974 0.69243 0.80885 0.0
C276 C 0.60543 0.57088 0.82416 0.0
C277 C 0.28935 0.49536 0.75493 0.0
C278 C 0.29643 0.46227 0.76583 0.0
C279 C 0.33023 0.48905 0.79331 0.0
C280 C 0.35744 0.46714 0.79452 0.0
C281 C 0.39642 0.48511 0.80557 0.0
C282 C 0.4086 0.52612 0.81543 0.0
C283 C 0.38 0.54717 0.81459 0.0
C284 C 0.34051 0.5276 0.80376 0.0
C285 C 0.42515 0.46092 0.80646 0.0
C286 C 0.39211 0.5915 0.82461 0.0
C287 C 0.32751 0.45679 0.91733 0.0
C288 C 0.36479 0.44789 0.91482 0.0
C289 C 0.40764 0.48227 0.90816 0.0
C290 C 0.41334 0.52645 0.90407 0.0
C291 C 0.37705 0.5366 0.90762 0.0
C292 C 0.33462 0.50161 0.91433 0.0
C293 C 0.44626 0.47087 0.90498 0.0
C294 C 0.3823 0.58361 0.90364 0.0
C295 C 0.72363 0.85302 0.90427 0.0
C296 C 0.70235 0.84155 0.92133 0.0
C297 C 0.64927 0.75516 0.91821 0.0
C298 C 0.64638 0.71162 0.92031 0.0
C299 C 0.60906 0.6695 0.91302 0.0
C300 C 0.57335 0.67105 0.90364 0.0
C301 C 0.57485 0.71465 0.90208 0.0
C302 C 0.61293 0.75623 0.90922 0.0
C303 C 0.60843 0.62362 0.91496 0.0
C304 C 0.53663 0.71757 0.89256 0.0
C305 C 0.53876 0.60618 0.82588 0.0
C306 C 0.496 0.57655 0.81727 0.0
C307 C 0.4535 0.54985 0.82543 0.0
C308 C 0.45405 0.55035 0.84271 0.0
C309 C 0.41309 0.52032 0.85133 0.0
C310 C 0.41363 0.52244 0.86835 0.0
C311 C 0.45474 0.55579 0.87736 0.0
C312 C 0.45507 0.55988 0.89463 0.0
C313 C 0.49499 0.59644 0.90306 0.0
C314 C 0.53558 0.62801 0.89467 0.0
C315 C 0.5375 0.62143 0.87758 0.0
C316 C 0.57914 0.64994 0.86896 0.0
C317 C 0.58004 0.64435 0.85205 0.0
C318 C 0.53895 0.61106 0.8431 0.0
C319 C 0.49658 0.58226 0.85155 0.0
C320 C 0.4964 0.58621 0.86886 0.0
C321 C 0.21509 0.36042 0.90933 0.0
C322 C 0.26162 0.37503 0.91863 0.0
O323 O 0.69322 0.68775 0.7834 0.0
O324 O 0.68773 0.795 0.92483 0.0
O325 O 0.28437 0.42315 0.9226 0.0
O326 O 0.2943 0.47424 0.78204 0.0
H327 H 0.65243 0.69305 0.76501 0.0
H328 H 0.65061 0.61716 0.76099 0.0
H329 H 0.71415 0.64813 0.75848 0.0
H330 H 0.67606 0.65416 0.74374 0.0
H331 H 0.63554 0.72077 0.78941 0.0
H332 H 0.67533 0.62017 0.80278 0.0
H333 H 0.52478 0.66821 0.8027 0.0
H334 H 0.57554 0.72748 0.80319 0.0
H335 H 0.5532 0.69655 0.82194 0.0
H336 H 0.63145 0.55972 0.82108 0.0
H337 H 0.56894 0.54066 0.82142 0.0
H338 H 0.60831 0.57931 0.83751 0.0
H339 H 0.33198 0.467 0.76311 0.0
H340 H 0.29134 0.48679 0.74182 0.0
H341 H 0.31775 0.53263 0.75773 0.0
H342 H 0.25424 0.49213 0.75706 0.0
H343 H 0.34832 0.43617 0.78676 0.0
H344 H 0.31876 0.54374 0.80283 0.0
H345 H 0.4595 0.48265 0.80035 0.0
H346 H 0.40632 0.42511 0.80034 0.0
H347 H 0.43325 0.45765 0.81941 0.0
H348 H 0.37001 0.60674 0.82092 0.0
H349 H 0.43019 0.61881 0.82335 0.0
H350 H 0.38617 0.58312 0.83772 0.0
H351 H 0.28334 0.36622 0.91045 0.0
H352 H 0.36046 0.4141 0.91795 0.0
H353 H 0.306 0.50846 0.91667 0.0
H354 H 0.45034 0.46852 0.89158 0.0
H355 H 0.43829 0.43685 0.91025 0.0
H356 H 0.4808 0.49971 0.91022 0.0
H357 H 0.35161 0.58671 0.90774 0.0
H358 H 0.38551 0.58812 0.89022 0.0
H359 H 0.41539 0.61291 0.90955 0.0
H360 H 0.67193 0.84768 0.92198 0.0
H361 H 0.73627 0.8906 0.90167 0.0
H362 H 0.69643 0.83033 0.89475 0.0
H363 H 0.75401 0.84682 0.9034 0.0
H364 H 0.67429 0.71094 0.92735 0.0
H365 H 0.61395 0.78928 0.90758 0.0
H366 H 0.60831 0.60796 0.90272 0.0
H367 H 0.57532 0.59791 0.92104 0.0
H368 H 0.63951 0.62852 0.92229 0.0
H369 H 0.53892 0.75231 0.89459 0.0
H370 H 0.50077 0.68906 0.89603 0.0
H371 H 0.54032 0.71252 0.87929 0.0
H372 H 0.49562 0.57508 0.80399 0.0
H373 H 0.38028 0.49472 0.84497 0.0
H374 H 0.38102 0.4984 0.87433 0.0
H375 H 0.49398 0.60108 0.91621 0.0
H376 H 0.61157 0.67667 0.87522 0.0
H377 H 0.61301 0.66717 0.84602 0.0
H378 H 0.19612 0.32196 0.90591 0.0
H379 H 0.22278 0.38041 0.89793 0.0
H380 H 0.19154 0.3681 0.91692 0.0
H381 H 0.06814 0.17378 0.06791 0.0
C382 C 0.03255 0.15407 0.06238 0.0
H383 H 0.96346 0.14471 0.06215 0.0
H384 H 0.07436 0.2518 0.13364 0.0
H385 H 0.06608 0.17623 0.13969 0.0
H386 H 0.03017 0.10946 0.11933 0.0
H387 H 0.00329 0.11842 0.09266 0.0
C388 C 0.99897 0.16291 0.06773 0.0
C389 C 0.01076 0.19936 0.08108 0.0
C390 C 0.02368 0.19268 0.09695 0.0
C391 C 0.04199 0.23036 0.10898 0.0
C392 C 0.05809 0.22382 0.12428 0.0
C393 C 0.05389 0.18064 0.12789 0.0
C394 C 0.03386 0.14312 0.11641 0.0
C395 C 0.01889 0.14886 0.10111 0.0
H396 H 0.00859 0.27991 0.134 0.0
C397 C 0.04231 0.31165 0.13164 0.0
H398 H 0.09838 0.34553 0.11521 0.0
H399 H 0.98555 0.2223 0.05231 0.0
H400 H 0.98942 0.29642 0.04669 0.0
H401 H 0.01797 0.36066 0.06792 0.0
H402 H 0.04315 0.35135 0.09487 0.0
C403 C 0.06488 0.31381 0.11775 0.0
C404 C 0.04477 0.27377 0.10539 0.0
C405 C 0.02954 0.27952 0.0898 0.0
C406 C 0.01255 0.24228 0.07761 0.0
C407 C 0.99846 0.24933 0.06203 0.0
C408 C 0.00048 0.29169 0.05865 0.0
C409 C 0.01658 0.32787 0.0706 0.0
C410 C 0.031 0.32209 0.08601 0.0
H411 H 0.98572 0.12242 0.38472 0.0
C412 C 0.99691 0.09846 0.38904 0.0
H413 H 0.98788 0.04955 0.40696 0.0
H414 H 0.91779 0.17624 0.44875 0.0
H415 H 0.0012 0.23718 0.4494 0.0
H416 H 0.05909 0.2271 0.43322 0.0
H417 H 0.03389 0.15611 0.41628 0.0
C418 C 0.97772 0.07416 0.40254 0.0
C419 C 0.94278 0.08077 0.41204 0.0
C420 C 0.95824 0.1226 0.42191 0.0
C421 C 0.92495 0.12822 0.43137 0.0
C422 C 0.94143 0.17011 0.44126 0.0
C423 C 0.98929 0.2054 0.44178 0.0
C424 C 0.02186 0.19974 0.43267 0.0
C425 C 0.0068 0.15885 0.4229 0.0
H426 H 0.8338 0.04065 0.45688 0.0
C427 C 0.825 0.06804 0.45502 0.0
H428 H 0.83685 0.12549 0.4408 0.0
H429 H 0.90166 0.99686 0.39425 0.0
H430 H 0.81785 0.93631 0.39322 0.0
H431 H 0.75977 0.9468 0.40914 0.0
H432 H 0.78513 0.01769 0.42626 0.0
C433 C 0.84293 0.09614 0.44222 0.0
C434 C 0.87647 0.0917 0.43113 0.0
C435 C 0.86083 0.05042 0.42094 0.0
C436 C 0.89416 0.04475 0.41153 0.0
C437 C 0.87778 0.00296 0.40162 0.0
C438 C 0.82978 0.968 0.40089 0.0
C439 C 0.79709 0.97387 0.40987 0.0
C440 C 0.81218 0.01459 0.41975 0.0
H441 H 0.95704 0.90301 0.72593 0.0
C442 C 0.95148 0.93288 0.72744 0.0
H443 H 0.90867 0.95769 0.73779 0.0
H444 H 0.76169 0.72493 0.73296 0.0
H445 H 0.76674 0.73311 0.70357 0.0
H446 H 0.82175 0.81004 0.69178 0.0
H447 H 0.87269 0.87881 0.70928 0.0
C448 C 0.91421 0.92794 0.73588 0.0
C449 C 0.87934 0.88201 0.74287 0.0
C450 C 0.84838 0.84268 0.7324 0.0
C451 C 0.81485 0.79902 0.73918 0.0
C452 C 0.78627 0.75952 0.72847 0.0
C453 C 0.78905 0.76361 0.71157 0.0
C454 C 0.82016 0.80686 0.70493 0.0
C455 C 0.84949 0.84604 0.71515 0.0
H456 H 0.71707 0.7603 0.7539 0.0
C457 C 0.72612 0.73859 0.76115 0.0
H458 H 0.7817 0.73055 0.77083 0.0
H459 H 0.93417 0.95005 0.7663 0.0
H460 H 0.92735 0.94231 0.79573 0.0
H461 H 0.86685 0.86749 0.80748 0.0
H462 H 0.81295 0.79983 0.78988 0.0
C463 C 0.77204 0.75162 0.76349 0.0
C464 C 0.81048 0.79556 0.7564 0.0
C465 C 0.84167 0.83466 0.76686 0.0
C466 C 0.87618 0.87795 0.76008 0.0
C467 C 0.907 0.91647 0.7708 0.0
C468 C 0.90351 0.91249 0.78771 0.0
C469 C 0.86947 0.87035 0.79433 0.0
C470 C 0.83877 0.83178 0.78409 0.0
H471 H 0.98667 0.93616 0.06987 0.0
C472 C 0.01983 0.95517 0.06339 0.0
H473 H 0.08857 0.96488 0.06043 0.0
H474 H 0.99935 0.86815 0.13253 0.0
H475 H 0.0122 0.94555 0.14036 0.0
H476 H 0.04444 0.00998 0.12084 0.0
H477 H 0.06289 0.99673 0.09321 0.0
C478 C 0.05536 0.94727 0.06691 0.0
C479 C 0.04872 0.91311 0.07968 0.0
C480 C 0.04123 0.92232 0.0961 0.0
C481 C 0.02533 0.88602 0.10761 0.0
C482 C 0.01394 0.895 0.12349 0.0
C483 C 0.02075 0.93927 0.12813 0.0
C484 C 0.03869 0.97547 0.11713 0.0
C485 C 0.04881 0.96728 0.10128 0.0
H486 H 0.0614 0.83737 0.13074 0.0
C487 C 0.02685 0.8058 0.12825 0.0
H488 H 0.9675 0.77097 0.11199 0.0
H489 H 0.06504 0.88596 0.04968 0.0
H490 H 0.05769 0.81027 0.04222 0.0
H491 H 0.03385 0.74843 0.06251 0.0
H492 H 0.01683 0.7617 0.09036 0.0
C493 C 0.00181 0.80263 0.11468 0.0
C494 C 0.02002 0.84151 0.10293 0.0
C495 C 0.03065 0.83348 0.0868 0.0
C496 C 0.04494 0.86932 0.07515 0.0
C497 C 0.05427 0.85999 0.05902 0.0
C498 C 0.05024 0.81675 0.05459 0.0
C499 C 0.03679 0.78192 0.06601 0.0
C500 C 0.02705 0.78996 0.08195 0.0
H501 H 0.2032 0.12953 0.40342 0.0
C502 C 0.21241 0.1204 0.39167 0.0
H503 H 0.2505 0.0923 0.37973 0.0
H504 H 0.37769 0.13293 0.44531 0.0
H505 H 0.43266 0.20187 0.43036 0.0
H506 H 0.40751 0.22038 0.40445 0.0
H507 H 0.32718 0.16996 0.39328 0.0
C508 C 0.24066 0.10171 0.39128 0.0
C509 C 0.2563 0.0901 0.40669 0.0
C510 C 0.30324 0.11982 0.41301 0.0
C511 C 0.31763 0.10927 0.428 0.0
C512 C 0.36481 0.13949 0.43403 0.0
C513 C 0.39673 0.17912 0.42557 0.0
C514 C 0.38257 0.18953 0.41097 0.0
C515 C 0.33641 0.16035 0.4047 0.0
H516 H 0.30015 0.99805 0.44278 0.0
C517 C 0.30631 0.02105 0.4535 0.0
H518 H 0.30586 0.08137 0.46295 0.0
H519 H 0.16486 0.02355 0.39718 0.0
H520 H 0.1093 0.95578 0.41238 0.0
H521 H 0.13286 0.93979 0.43908 0.0
H522 H 0.21222 0.99105 0.4506 0.0
C523 C 0.30009 0.05829 0.45231 0.0
C524 C 0.28505 0.06894 0.43657 0.0
C525 C 0.23795 0.03925 0.43025 0.0
C526 C 0.22384 0.04939 0.41514 0.0
C527 C 0.17713 0.01825 0.40882 0.0
C528 C 0.14489 0.97908 0.41738 0.0
C529 C 0.15819 0.97001 0.43239 0.0
C530 C 0.20405 0.99963 0.43882 0.0
H531 H 0.15097 0.17161 0.72687 0.0
C532 C 0.11639 0.1669 0.72366 0.0
H533 H 0.07434 0.19895 0.72314 0.0
H534 H 0.25169 0.33538 0.77652 0.0
H535 H 0.2143 0.26887 0.79434 0.0
H536 H 0.14469 0.19298 0.78467 0.0
H537 H 0.11247 0.183 0.75703 0.0
C538 C 0.10794 0.20226 0.7269 0.0
C539 C 0.14659 0.24911 0.73343 0.0
C540 C 0.16401 0.25475 0.74978 0.0
C541 C 0.20306 0.29902 0.75553 0.0
C542 C 0.22113 0.30307 0.77168 0.0
C543 C 0.20017 0.26506 0.78201 0.0
C544 C 0.16107 0.22229 0.77655 0.0
C545 C 0.14306 0.21697 0.76063 0.0
H546 H 0.22337 0.39877 0.76751 0.0
C547 C 0.25795 0.41177 0.76209 0.0
H548 H 0.29754 0.3987 0.7447 0.0
H549 H 0.12121 0.25025 0.7015 0.0
H550 H 0.15686 0.31743 0.68395 0.0
H551 H 0.22298 0.39491 0.69418 0.0
H552 H 0.25401 0.40559 0.72197 0.0
C553 C 0.26395 0.38461 0.75091 0.0
C554 C 0.22355 0.3379 0.74507 0.0
C555 C 0.20554 0.33244 0.72882 0.0
C556 C 0.16702 0.28798 0.723 0.0
C557 C 0.15012 0.28335 0.70663 0.0
C558 C 0.17028 0.32162 0.69641 0.0
C559 C 0.20753 0.36522 0.70216 0.0
C560 C 0.22507 0.37081 0.71815 0.0
H561 H 0.94451 0.06375 0.66973 0.0
C562 C 0.97983 0.08173 0.66462 0.0
H563 H 0.02398 0.13022 0.64715 0.0
H564 H 0.83648 0.09234 0.60743 0.0
H565 H 0.86215 0.04936 0.58977 0.0
H566 H 0.92961 0.03986 0.598 0.0
H567 H 0.97168 0.07313 0.62402 0.0
C568 C 0.98934 0.11245 0.65273 0.0
C569 C 0.95233 0.12277 0.64699 0.0
C570 C 0.92904 0.10432 0.63157 0.0
C571 C 0.89063 0.11048 0.62672 0.0
C572 C 0.86662 0.08981 0.61157 0.0
C573 C 0.88082 0.06479 0.60134 0.0
C574 C 0.91877 0.05938 0.60599 0.0
C575 C 0.94261 0.07866 0.62094 0.0
H576 H 0.87015 0.18823 0.61377 0.0
C577 C 0.83787 0.16982 0.62073 0.0
H578 H 0.80427 0.12549 0.64033 0.0
H579 H 0.99352 0.16784 0.67643 0.0
H580 H 0.96906 0.21219 0.69391 0.0
H581 H 0.90199 0.22229 0.68567 0.0
H582 H 0.85914 0.18827 0.65988 0.0
C583 C 0.83521 0.14135 0.63264 0.0
C584 C 0.87631 0.13591 0.63721 0.0
C585 C 0.90062 0.15561 0.65242 0.0
C586 C 0.93893 0.14938 0.65726 0.0
C587 C 0.96342 0.1705 0.67232 0.0
C588 C 0.94996 0.19634 0.68244 0.0
C589 C 0.91223 0.20206 0.67779 0.0
C590 C 0.88783 0.18218 0.66296 0.0
H591 H 0.91808 0.97107 0.99902 0.0
C592 C 0.93961 0.00682 0.99471 0.0
H593 H 0.94963 0.05326 0.97584 0.0
H594 H 0.84405 0.8939 0.92069 0.0
H595 H 0.92496 0.93581 0.91124 0.0
H596 H 0.98994 0.99846 0.92859 0.0
H597 H 0.97433 0.01989 0.95541 0.0
C598 C 0.92753 0.01815 0.98055 0.0
C599 C 0.88765 0.98137 0.96998 0.0
C600 C 0.89755 0.96886 0.95437 0.0
C601 C 0.86025 0.93204 0.94451 0.0
C602 C 0.87105 0.92099 0.92884 0.0
C603 C 0.91739 0.94485 0.92322 0.0
C604 C 0.95395 0.98016 0.93298 0.0
C605 C 0.94441 0.99216 0.94837 0.0
H606 H 0.73765 0.90687 0.93754 0.0
C607 C 0.73863 0.8752 0.93396 0.0
H608 H 0.77729 0.83988 0.93534 0.0
H609 H 0.85491 0.0011 0.99812 0.0
H610 H 0.77478 0.95661 0.00822 0.0
H611 H 0.71188 0.88741 0.9924 0.0
H612 H 0.72849 0.86311 0.96622 0.0
C613 C 0.77426 0.86986 0.93966 0.0
C614 C 0.8132 0.90734 0.95034 0.0
C615 C 0.80342 0.91939 0.96605 0.0
C616 C 0.84035 0.95746 0.97564 0.0
C617 C 0.82882 0.97097 0.99072 0.0
C618 C 0.78285 0.94597 0.99661 0.0
C619 C 0.7474 0.90716 0.98767 0.0
C620 C 0.75735 0.89384 0.97258 0.0
H621 H 0.0847 0.99463 0.33146 0.0
C622 C 0.05481 0.00054 0.33103 0.0
H623 H 0.98272 0.97166 0.32353 0.0
H624 H 0.01594 0.83415 0.27398 0.0
H625 H 0.02129 0.8916 0.25484 0.0
H626 H 0.01984 0.96282 0.26447 0.0
H627 H 0.01337 0.97715 0.29339 0.0
C628 C 0.01315 0.96674 0.32431 0.0
C629 C 0.00765 0.921 0.3183 0.0
C630 C 0.00991 0.9124 0.30136 0.0
C631 C 0.00973 0.87081 0.29579 0.0
C632 C 0.01447 0.86434 0.27887 0.0
C633 C 0.0179 0.89724 0.26774 0.0
C634 C 0.01717 0.93739 0.27317 0.0
C635 C 0.01344 0.94518 0.28978 0.0
H636 H 0.94132 0.76179 0.28916 0.0
C637 C 0.97158 0.75881 0.29306 0.0
H638 H 0.03644 0.79047 0.30652 0.0
H639 H 0.99785 0.9247 0.35143 0.0
H640 H 0.99046 0.86647 0.37062 0.0
H641 H 0.98962 0.79405 0.36103 0.0
H642 H 0.9962 0.77945 0.33222 0.0
C643 C 0.00761 0.79458 0.30177 0.0
C644 C 0.00614 0.83744 0.30721 0.0
C645 C 0.00227 0.84538 0.32411 0.0
C646 C 0.00285 0.88712 0.32966 0.0
C647 C 0.99836 0.89392 0.34659 0.0
C648 C 0.99383 0.86066 0.35773 0.0
C649 C 0.99335 0.8199 0.35233 0.0
C650 C 0.99735 0.81207 0.33574 0.0
H651 H 0.09901 0.95446 0.65178 0.0
C652 C 0.11263 0.98528 0.6601 0.0
H653 H 0.1735 0.04843 0.66898 0.0
H654 H 0.28575 0.94046 0.64506 0.0
H655 H 0.24645 0.88788 0.66721 0.0
H656 H 0.18314 0.89129 0.68233 0.0
H657 H 0.1587 0.9472 0.67537 0.0
C658 C 0.15957 0.01677 0.66106 0.0
C659 C 0.19412 0.01108 0.65099 0.0
C660 C 0.20763 0.97781 0.65516 0.0
C661 C 0.24438 0.97608 0.64651 0.0
C662 C 0.25791 0.9432 0.65114 0.0
C663 C 0.2357 0.91284 0.66386 0.0
C664 C 0.20005 0.91474 0.67237 0.0
C665 C 0.18621 0.94692 0.66819 0.0
H666 H 0.35754 0.07904 0.63592 0.0
C667 C 0.3537 0.04869 0.62882 0.0
H668 H 0.3063 0.97861 0.62015 0.0
H669 H 0.17439 0.0767 0.63932 0.0
H670 H 0.21182 0.1275 0.61652 0.0
H671 H 0.27403 0.12298 0.60104 0.0
H672 H 0.29951 0.06797 0.60836 0.0
C673 C 0.31025 0.01016 0.62639 0.0
C674 C 0.26782 0.00798 0.63387 0.0
C675 C 0.2525 0.03945 0.62914 0.0
C676 C 0.21601 0.04139 0.63785 0.0
C677 C 0.202 0.0738 0.6331 0.0
C678 C 0.22306 0.10304 0.62001 0.0
C679 C 0.25813 0.10054 0.61131 0.0
C680 C 0.2727 0.06907 0.61573 0.0
H681 H 0.16448 0.14045 0.98965 0.0
C682 C 0.15232 0.16014 0.99703 0.0
H683 H 0.15062 0.22347 1e-05 0.0
H684 H 0.31965 0.35046 0.95489 0.0
H685 H 0.36116 0.37642 0.9813 0.0
H686 H 0.32345 0.33323 0.00615 0.0
H687 H 0.24411 0.26358 0.00472 0.0
C688 C 0.16195 0.20318 0.99257 0.0
C689 C 0.18698 0.22481 0.97732 0.0
C690 C 0.23319 0.26546 0.97837 0.0
C691 C 0.25464 0.29074 0.9641 0.0
C692 C 0.30123 0.3307 0.96544 0.0
C693 C 0.32556 0.34577 0.9805 0.0
C694 C 0.30435 0.32142 0.99449 0.0
C695 C 0.25875 0.28164 0.99351 0.0
H696 H 0.2414 0.36126 0.9448 0.0
C697 C 0.25121 0.34802 0.93408 0.0
H698 H 0.25516 0.2909 0.92339 0.0
H699 H 0.09798 0.14744 0.97087 0.0
H700 H 0.05771 0.12047 0.94442 0.0
H701 H 0.09546 0.16384 0.91961 0.0
H702 H 0.17367 0.23459 0.92118 0.0
C703 C 0.24829 0.3057 0.93437 0.0
C704 C 0.22941 0.27575 0.94886 0.0
C705 C 0.18434 0.2335 0.94762 0.0
C706 C 0.16283 0.20819 0.9619 0.0
C707 C 0.11662 0.16754 0.96043 0.0
C708 C 0.0929 0.15174 0.9453 0.0
C709 C 0.11412 0.17617 0.93134 0.0
C710 C 0.15914 0.21672 0.93242 0.0
H711 H 0.17547 0.2678 0.33022 0.0
C712 C 0.13767 0.24206 0.32875 0.0
H713 H 0.07127 0.22844 0.31925 0.0
H714 H 0.19876 0.46361 0.32686 0.0
H715 H 0.1991 0.45258 0.35601 0.0
H716 H 0.16426 0.37246 0.36676 0.0
H717 H 0.13007 0.3032 0.34841 0.0
C718 C 0.10899 0.25401 0.32104 0.0
C719 C 0.12734 0.30224 0.31477 0.0
C720 C 0.14505 0.34217 0.32581 0.0
C721 C 0.16249 0.3881 0.3197 0.0
C722 C 0.18288 0.4277 0.33088 0.0
C723 C 0.18365 0.42192 0.34765 0.0
C724 C 0.16425 0.37685 0.35369 0.0
C725 C 0.14506 0.33734 0.34298 0.0
H726 H 0.11741 0.44422 0.30795 0.0
C727 C 0.14814 0.46204 0.30023 0.0
H728 H 0.20367 0.45816 0.28861 0.0
H729 H 0.09642 0.23345 0.29034 0.0
H730 H 0.09308 0.24439 0.26124 0.0
H731 H 0.11966 0.32361 0.2508 0.0
H732 H 0.15007 0.39249 0.26937 0.0
C733 C 0.17312 0.44097 0.29643 0.0
C734 C 0.15933 0.39367 0.30268 0.0
C735 C 0.14164 0.35386 0.29167 0.0
C736 C 0.12573 0.30809 0.29772 0.0
C737 C 0.10848 0.26894 0.28643 0.0
C738 C 0.10644 0.27473 0.26969 0.0
C739 C 0.12144 0.31934 0.26381 0.0
C740 C 0.13884 0.35858 0.2746 0.0
loop_
_geom_bond_atom_site_label_1
_geom_bond_atom_site_label_2
_geom_bond_distance
_geom_bond_site_symmetry_2
_ccdc_geom_bond_type
C0 O1 1.160 . S
C0 O7 1.185 . S
O1 C0 1.160 . S
O2 Zn3 1.899 . S
O2 C10 1.284 . S
Zn3 O2 1.899 . S
Zn3 O4 2.032 1_455 S
Zn3 O7 2.086 . S
Zn3 O12 1.977 . S
O4 Zn3 2.032 1_655 S
O4 C8 1.278 . S
C5 O6 1.203 . S
C5 O12 1.267 . S
O6 C5 1.203 . S
O7 C0 1.185 . S
O7 Zn3 2.086 . S
C8 O4 1.278 . S
C8 O9 1.227 . S
O9 C8 1.227 . S
C10 O2 1.284 . S
C10 O11 1.273 1_455 S
O11 C10 1.273 1_655 S
O12 Zn3 1.977 . S
O12 C5 1.267 . S
C13 O14 1.160 . S
C13 O20 1.185 . S
O14 C13 1.160 . S
O15 Zn16 1.899 . S
O15 C23 1.284 . S
Zn16 O15 1.899 . S
Zn16 O17 2.032 . S
Zn16 O20 2.086 . S
Zn16 O25 1.977 . S
O17 Zn16 2.032 . S
O17 C21 1.278 . S
C18 O19 1.203 . S
C18 O25 1.267 . S
O19 C18 1.203 . S
O20 C13 1.185 . S
O20 Zn16 2.086 . S
C21 O17 1.278 . S
C21 O22 1.211 . S
O22 C21 1.211 . S
C23 O15 1.284 . S
C23 O24 1.273 . S
O24 C23 1.273 . S
O25 Zn16 1.977 . S
O25 C18 1.267 . S
C26 O27 1.160 . S
C26 O33 1.185 . S
O27 C26 1.160 . S
O28 Zn29 1.914 . S
O28 C36 1.271 1_455 S
Zn29 O28 1.914 . S
Zn29 O30 2.032 . S
Zn29 O33 2.086 . S
Zn29 O38 1.977 1_545 S
O30 Zn29 2.032 . S
O30 C34 1.278 . S
C31 O32 1.203 1_565 S
C31 O38 1.267 1_655 S
O32 C31 1.203 1_545 S
O33 C26 1.185 . S
O33 Zn29 2.086 . S
C34 O30 1.278 . S
C34 O35 1.211 . S
O35 C34 1.211 . S
C36 O28 1.271 1_655 S
C36 O37 1.273 1_655 S
O37 C36 1.273 1_455 S
O38 Zn29 1.977 1_565 S
O38 C31 1.267 1_455 S
C39 C40 1.560 1_655 S
C39 H100 0.959 . S
C39 H101 0.959 . S
C39 H102 0.960 . S
C40 C39 1.560 1_455 S
C40 O95 1.426 1_455 S
C40 H99 0.980 . S
C41 C42 1.407 . S
C41 C46 1.418 1_455 S
C41 O95 1.334 1_455 S
C42 C41 1.407 . S
C42 C43 1.360 . S
C42 H103 0.929 . S
C43 C42 1.360 . S
C43 C44 1.401 . S
C43 C47 1.527 . S
C44 C43 1.401 . S
C44 C45 1.405 1_455 S
C44 C77 1.587 . S
C45 C44 1.405 1_655 S
C45 C46 1.332 . S
C45 C48 1.496 . S
C46 C41 1.418 1_655 S
C46 C45 1.332 . S
C46 H104 0.929 . S
C47 C43 1.527 . S
C47 H105 0.959 . S
C47 H106 0.961 . S
C47 H107 0.961 . S
C48 C45 1.496 . S
C48 H108 0.960 . S
C48 H109 0.960 . S
C48 H110 0.961 . S
C49 C50 1.517 . S
C49 H112 0.961 . S
C49 H113 0.960 . S
C49 H114 0.959 . S
C50 C49 1.517 . S
C50 O98 1.468 . S
C50 H111 0.980 . S
C51 C52 1.349 . S
C51 C56 1.367 . S
C51 O98 1.408 . S
C52 C51 1.349 . S
C52 C53 1.407 . S
C52 H115 0.930 . S
C53 C52 1.407 . S
C53 C54 1.449 . S
C53 C57 1.535 1_455 S
C54 C53 1.449 . S
C54 C55 1.384 . S
C54 C79 1.553 . S
C55 C54 1.384 . S
C55 C56 1.364 . S
C55 C58 1.450 . S
C56 C51 1.367 . S
C56 C55 1.364 . S
C56 H116 0.931 . S
C57 C53 1.535 1_655 S
C57 H117 0.959 . S
C57 H118 0.961 . S
C57 H119 0.959 . S
C58 C55 1.450 . S
C58 H120 0.960 . S
C58 H121 0.960 . S
C58 H122 0.960 . S
C59 C60 1.309 . S
C59 C64 1.304 . S
C59 O97 1.435 . S
C60 C59 1.309 . S
C60 C61 1.476 . S
C60 H124 0.930 . S
C61 C60 1.476 . S
C61 C62 1.400 . S
C61 C65 1.567 1_455 S
C62 C61 1.400 . S
C62 C63 1.373 . S
C62 C84 1.432 . S
C63 C62 1.373 . S
C63 C64 1.339 . S
C63 C66 1.530 . S
C64 C59 1.304 . S
C64 C63 1.339 . S
C64 H125 0.930 . S
C65 C61 1.567 1_655 S
C65 H126 0.961 . S
C65 H127 0.960 . S
C65 H128 0.958 . S
C66 C63 1.530 . S
C66 H129 0.961 . S
C66 H130 0.960 . S
C66 H131 0.960 . S
C67 C68 1.530 1_655 S
C67 H133 0.961 1_655 S
C67 H134 0.961 . S
C67 H135 0.959 . S
C68 C67 1.530 1_455 S
C68 O96 1.412 1_455 S
C68 H132 0.980 . S
C69 C70 1.288 . S
C69 C74 1.376 1_655 S
C69 O96 1.394 . S
C70 C69 1.288 . S
C70 C71 1.369 . S
C70 H136 0.932 . S
C71 C70 1.369 . S
C71 C72 1.398 1_655 S
C71 C75 1.527 . S
C72 C71 1.398 1_455 S
C72 C73 1.380 . S
C72 C86 1.497 . S
C73 C72 1.380 . S
C73 C74 1.383 . S
C73 C76 1.603 . S
C74 C69 1.376 1_455 S
C74 C73 1.383 . S
C74 H137 0.929 . S
C75 C71 1.527 . S
C75 H138 0.961 . S
C75 H139 0.959 . S
C75 H140 0.959 . S
C76 C73 1.603 . S
C76 H141 0.960 . S
C76 H142 0.962 . S
C76 H143 0.961 . S
C77 C44 1.587 . S
C77 C78 1.360 . S
C77 C90 1.412 . S
C78 C77 1.360 . S
C78 C79 1.365 . S
C78 H144 0.929 . S
C79 C54 1.553 . S
C79 C78 1.365 . S
C79 C80 1.404 . S
C80 C79 1.404 . S
C80 C81 1.395 . S
C80 C91 1.451 . S
C81 C80 1.395 . S
C81 C82 1.322 . S
C81 H145 0.930 . S
C82 C81 1.322 . S
C82 C83 1.459 . S
C82 H146 0.929 . S
C83 C82 1.459 . S
C83 C84 1.445 . S
C83 C92 1.395 . S
C84 C62 1.432 . S
C84 C83 1.445 . S
C84 C85 1.370 . S
C85 C84 1.370 . S
C85 C86 1.438 . S
C85 H147 0.930 . S
C86 C72 1.497 . S
C86 C85 1.438 . S
C86 C87 1.360 . S
C87 C86 1.360 . S
C87 C88 1.401 . S
C87 C92 1.446 . S
C88 C87 1.401 . S
C88 C89 1.347 . S
C88 H148 0.929 . S
C89 C88 1.347 . S
C89 C90 1.455 . S
C89 H149 0.930 . S
C90 C77 1.412 . S
C90 C89 1.455 . S
C90 C91 1.331 . S
C91 C80 1.451 . S
C91 C90 1.331 . S
C91 C92 1.497 . S
C92 C83 1.395 . S
C92 C87 1.446 . S
C92 C91 1.497 . S
C93 C94 1.582 . S
C93 H150 0.962 . S
C93 H151 0.959 . S
C93 H152 0.958 . S
C94 C93 1.582 . S
C94 O97 1.458 . S
C94 H123 0.980 . S
O95 C40 1.426 1_655 S
O95 C41 1.334 1_655 S
O96 C68 1.412 1_655 S
O96 C69 1.394 . S
O97 C59 1.435 . S
O97 C94 1.458 . S
O98 C50 1.468 . S
O98 C51 1.408 . S
H99 C40 0.980 . S
H100 C39 0.959 . S
H101 C39 0.959 . S
H102 C39 0.960 . S
H103 C42 0.929 . S
H104 C46 0.929 . S
H105 C47 0.959 . S
H106 C47 0.961 . S
H107 C47 0.961 . S
H108 C48 0.960 . S
H109 C48 0.960 . S
H110 C48 0.961 . S
H111 C50 0.980 . S
H112 C49 0.961 . S
H113 C49 0.960 . S
H114 C49 0.959 . S
H115 C52 0.930 . S
H116 C56 0.931 . S
H117 C57 0.959 . S
H118 C57 0.961 . S
H119 C57 0.959 . S
H120 C58 0.960 . S
H121 C58 0.960 . S
H122 C58 0.960 . S
H123 C94 0.980 . S
H124 C60 0.930 . S
H125 C64 0.930 . S
H126 C65 0.961 . S
H127 C65 0.960 . S
H128 C65 0.958 . S
H129 C66 0.961 . S
H130 C66 0.960 . S
H131 C66 0.960 . S
H132 C68 0.980 . S
H133 C67 0.961 1_455 S
H134 C67 0.961 . S
H135 C67 0.959 . S
H136 C70 0.932 . S
H137 C74 0.929 . S
H138 C75 0.961 . S
H139 C75 0.959 . S
H140 C75 0.959 . S
H141 C76 0.960 . S
H142 C76 0.962 . S
H143 C76 0.961 . S
H144 C78 0.929 . S
H145 C81 0.930 . S
H146 C82 0.929 . S
H147 C85 0.930 . S
H148 C88 0.929 . S
H149 C89 0.930 . S
H150 C93 0.962 . S
H151 C93 0.959 . S
H152 C93 0.958 . S
C153 C154 1.560 1_565 S
C153 H214 0.959 . S
C153 H215 0.959 . S
C153 H216 0.960 1_565 S
C154 C153 1.560 1_545 S
C154 O209 1.426 . S
C154 H213 0.980 . S
C155 C156 1.407 . S
C155 C160 1.418 . S
C155 O209 1.334 . S
C156 C155 1.407 . S
C156 C157 1.360 . S
C156 H217 0.929 . S
C157 C156 1.360 . S
C157 C158 1.401 . S
C157 C161 1.527 . S
C158 C157 1.401 . S
C158 C159 1.405 . S
C158 C191 1.587 . S
C159 C158 1.405 . S
C159 C160 1.332 . S
C159 C162 1.496 1_545 S
C160 C155 1.418 . S
C160 C159 1.332 . S
C160 H218 0.929 1_545 S
C161 C157 1.527 . S
C161 H219 0.959 . S
C161 H220 0.961 . S
C161 H221 0.961 . S
C162 C159 1.496 1_565 S
C162 H222 0.960 . S
C162 H223 0.960 . S
C162 H224 0.961 . S
C163 C164 1.517 . S
C163 H226 0.961 . S
C163 H227 0.960 . S
C163 H228 0.959 . S
C164 C163 1.517 . S
C164 O212 1.468 . S
C164 H225 0.980 . S
C165 C166 1.349 . S
C165 C170 1.367 . S
C165 O212 1.408 . S
C166 C165 1.349 . S
C166 C167 1.407 . S
C166 H229 0.930 . S
C167 C166 1.407 . S
C167 C168 1.449 . S
C167 C171 1.535 . S
C168 C167 1.449 . S
C168 C169 1.384 . S
C168 C193 1.553 . S
C169 C168 1.384 . S
C169 C170 1.364 . S
C169 C172 1.450 . S
C170 C165 1.367 . S
C170 C169 1.364 . S
C170 H230 0.931 . S
C171 C167 1.535 . S
C171 H231 0.959 . S
C171 H232 0.961 . S
C171 H233 0.959 . S
C172 C169 1.450 . S
C172 H234 0.960 . S
C172 H235 0.960 . S
C172 H236 0.960 . S
C173 C174 1.309 . S
C173 C178 1.304 . S
C173 O211 1.435 . S
C174 C173 1.309 . S
C174 C175 1.476 . S
C174 H238 0.930 . S
C175 C174 1.476 . S
C175 C176 1.400 . S
C175 C179 1.567 . S
C176 C175 1.400 . S
C176 C177 1.373 . S
C176 C198 1.432 . S
C177 C176 1.373 . S
C177 C178 1.339 . S
C177 C180 1.530 . S
C178 C173 1.304 . S
C178 C177 1.339 . S
C178 H239 0.930 . S
C179 C175 1.567 . S
C179 H240 0.961 . S
C179 H241 0.960 . S
C179 H242 0.958 . S
C180 C177 1.530 . S
C180 H243 0.961 . S
C180 H244 0.960 . S
C180 H245 0.960 . S
C181 C182 1.530 . S
C181 H247 0.961 . S
C181 H248 0.961 . S
C181 H249 0.959 . S
C182 C181 1.530 . S
C182 O210 1.412 . S
C182 H246 0.980 . S
C183 C184 1.288 . S
C183 C188 1.377 . S
C183 O210 1.393 . S
C184 C183 1.288 . S
C184 C185 1.369 . S
C184 H250 0.932 1_545 S
C185 C184 1.369 . S
C185 C186 1.398 . S
C185 C189 1.527 1_545 S
C186 C185 1.398 . S
C186 C187 1.380 . S
C186 C200 1.497 . S
C187 C186 1.380 . S
C187 C188 1.383 . S
C187 C190 1.603 . S
C188 C183 1.377 . S
C188 C187 1.383 . S
C188 H251 0.929 . S
C189 C185 1.527 1_565 S
C189 H252 0.961 . S
C189 H253 0.959 . S
C189 H254 0.959 . S
C190 C187 1.603 . S
C190 H255 0.960 . S
C190 H256 0.962 . S
C190 H257 0.961 . S
C191 C158 1.587 . S
C191 C192 1.360 . S
C191 C204 1.412 . S
C192 C191 1.360 . S
C192 C193 1.365 . S
C192 H258 0.929 . S
C193 C168 1.553 . S
C193 C192 1.365 . S
C193 C194 1.404 . S
C194 C193 1.404 . S
C194 C195 1.395 . S
C194 C205 1.451 . S
C195 C194 1.395 . S
C195 C196 1.322 . S
C195 H259 0.930 . S
C196 C195 1.322 . S
C196 C197 1.459 . S
C196 H260 0.929 . S
C197 C196 1.459 . S
C197 C198 1.445 . S
C197 C206 1.395 . S
C198 C176 1.432 . S
C198 C197 1.445 . S
C198 C199 1.370 . S
C199 C198 1.370 . S
C199 C200 1.438 . S
C199 H261 0.930 . S
C200 C186 1.497 . S
C200 C199 1.438 . S
C200 C201 1.360 . S
C201 C200 1.360 . S
C201 C202 1.401 . S
C201 C206 1.446 . S
C202 C201 1.401 . S
C202 C203 1.347 . S
C202 H262 0.929 . S
C203 C202 1.347 . S
C203 C204 1.455 . S
C203 H263 0.930 . S
C204 C191 1.412 . S
C204 C203 1.455 . S
C204 C205 1.331 . S
C205 C194 1.451 . S
C205 C204 1.331 . S
C205 C206 1.497 . S
C206 C197 1.395 . S
C206 C201 1.446 . S
C206 C205 1.497 . S
C207 C208 1.582 . S
C207 H264 0.962 . S
C207 H265 0.959 . S
C207 H266 0.958 . S
C208 C207 1.582 . S
C208 O211 1.458 . S
C208 H237 0.980 . S
O209 C154 1.426 . S
O209 C155 1.334 . S
O210 C182 1.412 . S
O210 C183 1.393 . S
O211 C173 1.435 . S
O211 C208 1.458 . S
O212 C164 1.468 . S
O212 C165 1.408 . S
H213 C154 0.980 . S
H214 C153 0.959 . S
H215 C153 0.959 . S
H216 C153 0.960 1_545 S
H217 C156 0.929 . S
H218 C160 0.929 1_565 S
H219 C161 0.959 . S
H220 C161 0.961 . S
H221 C161 0.961 . S
H222 C162 0.960 . S
H223 C162 0.960 . S
H224 C162 0.961 . S
H225 C164 0.980 . S
H226 C163 0.961 . S
H227 C163 0.960 . S
H228 C163 0.959 . S
H229 C166 0.930 . S
H230 C170 0.931 . S
H231 C171 0.959 . S
H232 C171 0.961 . S
H233 C171 0.959 . S
H234 C172 0.960 . S
H235 C172 0.960 . S
H236 C172 0.960 . S
H237 C208 0.980 . S
H238 C174 0.930 . S
H239 C178 0.930 . S
H240 C179 0.961 . S
H241 C179 0.960 . S
H242 C179 0.958 . S
H243 C180 0.961 . S
H244 C180 0.960 . S
H245 C180 0.960 . S
H246 C182 0.980 . S
H247 C181 0.961 . S
H248 C181 0.961 . S
H249 C181 0.959 . S
H250 C184 0.932 1_565 S
H251 C188 0.929 . S
H252 C189 0.961 . S
H253 C189 0.959 . S
H254 C189 0.959 . S
H255 C190 0.960 . S
H256 C190 0.962 . S
H257 C190 0.961 . S
H258 C192 0.929 . S
H259 C195 0.930 . S
H260 C196 0.929 . S
H261 C199 0.930 . S
H262 C202 0.929 . S
H263 C203 0.930 . S
H264 C207 0.962 . S
H265 C207 0.959 . S
H266 C207 0.958 . S
C267 C268 1.560 . S
C267 H328 0.959 . S
C267 H329 0.959 . S
C267 H330 0.960 . S
C268 C267 1.560 . S
C268 O323 1.426 . S
C268 H327 0.980 . S
C269 C270 1.407 . S
C269 C274 1.418 . S
C269 O323 1.334 . S
C270 C269 1.407 . S
C270 C271 1.360 . S
C270 H331 0.929 . S
C271 C270 1.360 . S
C271 C272 1.401 . S
C271 C275 1.527 . S
C272 C271 1.401 . S
C272 C273 1.405 . S
C272 C305 1.587 . S
C273 C272 1.405 . S
C273 C274 1.332 . S
C273 C276 1.496 . S
C274 C269 1.418 . S
C274 C273 1.332 . S
C274 H332 0.929 . S
C275 C271 1.527 . S
C275 H333 0.959 . S
C275 H334 0.961 . S
C275 H335 0.961 . S
C276 C273 1.496 . S
C276 H336 0.960 . S
C276 H337 0.960 . S
C276 H338 0.961 . S
C277 C278 1.517 . S
C277 H340 0.961 . S
C277 H341 0.960 . S
C277 H342 0.959 . S
C278 C277 1.517 . S
C278 O326 1.468 . S
C278 H339 0.980 . S
C279 C280 1.349 . S
C279 C284 1.367 . S
C279 O326 1.408 . S
C280 C279 1.349 . S
C280 C281 1.407 . S
C280 H343 0.930 . S
C281 C280 1.407 . S
C281 C282 1.449 . S
C281 C285 1.535 . S
C282 C281 1.449 . S
C282 C283 1.384 . S
C282 C307 1.553 . S
C283 C282 1.384 . S
C283 C284 1.364 . S
C283 C286 1.450 . S
C284 C279 1.367 . S
C284 C283 1.364 . S
C284 H344 0.931 . S
C285 C281 1.535 . S
C285 H345 0.959 . S
C285 H346 0.961 . S
C285 H347 0.959 . S
C286 C283 1.450 . S
C286 H348 0.960 . S
C286 H349 0.960 . S
C286 H350 0.960 . S
C287 C288 1.309 . S
C287 C292 1.304 . S
C287 O325 1.435 . S
C288 C287 1.309 . S
C288 C289 1.476 . S
C288 H352 0.930 . S
C289 C288 1.476 . S
C289 C290 1.400 . S
C289 C293 1.567 . S
C290 C289 1.400 . S
C290 C291 1.373 . S
C290 C312 1.432 . S
C291 C290 1.373 . S
C291 C292 1.339 . S
C291 C294 1.530 . S
C292 C287 1.304 . S
C292 C291 1.339 . S
C292 H353 0.930 . S
C293 C289 1.567 . S
C293 H354 0.961 . S
C293 H355 0.960 . S
C293 H356 0.958 . S
C294 C291 1.530 . S
C294 H357 0.961 . S
C294 H358 0.960 . S
C294 H359 0.960 . S
C295 C296 1.530 . S
C295 H361 0.961 . S
C295 H362 0.961 . S
C295 H363 0.959 . S
C296 C295 1.530 . S
C296 O324 1.412 . S
C296 H360 0.980 . S
C297 C298 1.288 . S
C297 C302 1.377 . S
C297 O324 1.393 . S
C298 C297 1.288 . S
C298 C299 1.369 . S
C298 H364 0.932 . S
C299 C298 1.369 . S
C299 C300 1.398 . S
C299 C303 1.527 . S
C300 C299 1.398 . S
C300 C301 1.380 . S
C300 C314 1.497 . S
C301 C300 1.380 . S
C301 C302 1.383 . S
C301 C304 1.603 . S
C302 C297 1.377 . S
C302 C301 1.383 . S
C302 H365 0.929 . S
C303 C299 1.527 . S
C303 H366 0.961 . S
C303 H367 0.959 . S
C303 H368 0.959 . S
C304 C301 1.603 . S
C304 H369 0.960 . S
C304 H370 0.962 . S
C304 H371 0.961 . S
C305 C272 1.587 . S
C305 C306 1.360 . S
C305 C318 1.412 . S
C306 C305 1.360 . S
C306 C307 1.365 . S
C306 H372 0.929 . S
C307 C282 1.553 . S
C307 C306 1.365 . S
C307 C308 1.404 . S
C308 C307 1.404 . S
C308 C309 1.395 . S
C308 C319 1.451 . S
C309 C308 1.395 . S
C309 C310 1.322 . S
C309 H373 0.930 . S
C310 C309 1.322 . S
C310 C311 1.459 . S
C310 H374 0.929 . S
C311 C310 1.459 . S
C311 C312 1.445 . S
C311 C320 1.395 . S
C312 C290 1.432 . S
C312 C311 1.445 . S
C312 C313 1.370 . S
C313 C312 1.370 . S
C313 C314 1.438 . S
C313 H375 0.930 . S
C314 C300 1.497 . S
C314 C313 1.438 . S
C314 C315 1.360 . S
C315 C314 1.360 . S
C315 C316 1.401 . S
C315 C320 1.446 . S
C316 C315 1.401 . S
C316 C317 1.347 . S
C316 H376 0.929 . S
C317 C316 1.347 . S
C317 C318 1.455 . S
C317 H377 0.930 . S
C318 C305 1.412 . S
C318 C317 1.455 . S
C318 C319 1.331 . S
C319 C308 1.451 . S
C319 C318 1.331 . S
C319 C320 1.497 . S
C320 C311 1.395 . S
C320 C315 1.446 . S
C320 C319 1.497 . S
C321 C322 1.582 . S
C321 H378 0.962 . S
C321 H379 0.959 . S
C321 H380 0.958 . S
C322 C321 1.582 . S
C322 O325 1.458 . S
C322 H351 0.980 . S
O323 C268 1.426 . S
O323 C269 1.334 . S
O324 C296 1.412 . S
O324 C297 1.393 . S
O325 C287 1.435 . S
O325 C322 1.458 . S
O326 C278 1.468 . S
O326 C279 1.408 . S
H327 C268 0.980 . S
H328 C267 0.959 . S
H329 C267 0.959 . S
H330 C267 0.960 . S
H331 C270 0.929 . S
H332 C274 0.929 . S
H333 C275 0.959 . S
H334 C275 0.961 . S
H335 C275 0.961 . S
H336 C276 0.960 . S
H337 C276 0.960 . S
H338 C276 0.961 . S
H339 C278 0.980 . S
H340 C277 0.961 . S
H341 C277 0.960 . S
H342 C277 0.959 . S
H343 C280 0.930 . S
H344 C284 0.931 . S
H345 C285 0.959 . S
H346 C285 0.961 . S
H347 C285 0.959 . S
H348 C286 0.960 . S
H349 C286 0.960 . S
H350 C286 0.960 . S
H351 C322 0.980 . S
H352 C288 0.930 . S
H353 C292 0.930 . S
H354 C293 0.961 . S
H355 C293 0.960 . S
H356 C293 0.958 . S
H357 C294 0.961 . S
H358 C294 0.960 . S
H359 C294 0.960 . S
H360 C296 0.980 . S
H361 C295 0.961 . S
H362 C295 0.961 . S
H363 C295 0.959 . S
H364 C298 0.932 . S
H365 C302 0.929 . S
H366 C303 0.961 . S
H367 C303 0.959 . S
H368 C303 0.959 . S
H369 C304 0.960 . S
H370 C304 0.962 . S
H371 C304 0.961 . S
H372 C306 0.929 . S
H373 C309 0.930 . S
H374 C310 0.929 . S
H375 C313 0.930 . S
H376 C316 0.929 . S
H377 C317 0.930 . S
H378 C321 0.962 . S
H379 C321 0.959 . S
H380 C321 0.958 . S
H381 C382 0.951 . S
C382 H381 0.951 . S
C382 C388 1.265 . S
H383 C388 0.950 1_655 S
H384 C392 0.949 . S
H385 C393 0.950 . S
H386 C394 0.951 . S
H387 C395 0.951 . S
C388 C382 1.265 . S
C388 H383 0.950 1_455 S
C388 C389 1.478 . S
C389 C388 1.478 . S
C389 C390 1.397 . S
C389 C406 1.394 . S
C390 C389 1.397 . S
C390 C391 1.438 . S
C390 C395 1.429 . S
C391 C390 1.438 . S
C391 C392 1.428 . S
C391 C404 1.394 . S
C392 H384 0.949 . S
C392 C391 1.428 . S
C392 C393 1.345 . S
C393 H385 0.950 . S
C393 C392 1.345 . S
C393 C394 1.424 . S
C394 H386 0.951 . S
C394 C393 1.424 . S
C394 C395 1.347 . S
C395 H387 0.951 . S
C395 C390 1.429 . S
C395 C394 1.347 . S
H396 C397 0.951 1_655 S
C397 H396 0.951 1_455 S
C397 C403 1.265 . S
H398 C403 0.950 . S
H399 C407 0.949 . S
H400 C408 0.950 . S
H401 C409 0.951 . S
H402 C410 0.951 . S
C403 C397 1.265 . S
C403 H398 0.950 . S
C403 C404 1.478 . S
C404 C391 1.394 . S
C404 C403 1.478 . S
C404 C405 1.397 . S
C405 C404 1.397 . S
C405 C406 1.438 . S
C405 C410 1.429 . S
C406 C389 1.394 . S
C406 C405 1.438 . S
C406 C407 1.428 . S
C407 H399 0.949 . S
C407 C406 1.428 . S
C407 C408 1.345 . S
C408 H400 0.950 . S
C408 C407 1.345 . S
C408 C409 1.424 . S
C409 H401 0.951 . S
C409 C408 1.424 . S
C409 C410 1.347 . S
C410 H402 0.951 . S
C410 C405 1.429 . S
C410 C409 1.347 . S
H411 C412 0.951 . S
C412 H411 0.951 . S
C412 C418 1.265 . S
H413 C418 0.950 . S
H414 C422 0.949 . S
H415 C423 0.950 . S
H416 C424 0.951 1_455 S
H417 C425 0.951 . S
C418 C412 1.265 . S
C418 H413 0.950 . S
C418 C419 1.478 . S
C419 C418 1.478 . S
C419 C420 1.397 . S
C419 C436 1.394 . S
C420 C419 1.397 . S
C420 C421 1.438 . S
C420 C425 1.429 . S
C421 C420 1.438 . S
C421 C422 1.428 . S
C421 C434 1.394 . S
C422 H414 0.949 . S
C422 C421 1.428 . S
C422 C423 1.345 . S
C423 H415 0.950 . S
C423 C422 1.345 . S
C423 C424 1.424 . S
C424 H416 0.951 1_655 S
C424 C423 1.424 . S
C424 C425 1.347 . S
C425 H417 0.951 . S
C425 C420 1.429 . S
C425 C424 1.347 . S
H426 C427 0.951 . S
C427 H426 0.951 . S
C427 C433 1.265 . S
H428 C433 0.950 . S
H429 C437 0.949 . S
H430 C438 0.950 . S
H431 C439 0.951 . S
H432 C440 0.951 . S
C433 C427 1.265 . S
C433 H428 0.950 . S
C433 C434 1.478 . S
C434 C421 1.394 . S
C434 C433 1.478 . S
C434 C435 1.397 . S
C435 C434 1.397 . S
C435 C436 1.438 . S
C435 C440 1.429 1_545 S
C436 C419 1.394 . S
C436 C435 1.438 . S
C436 C437 1.428 . S
C437 H429 0.949 . S
C437 C436 1.428 . S
C437 C438 1.345 1_545 S
C438 H430 0.950 . S
C438 C437 1.345 1_565 S
C438 C439 1.424 . S
C439 H431 0.951 . S
C439 C438 1.424 . S
C439 C440 1.347 . S
C440 H432 0.951 . S
C440 C435 1.429 1_565 S
C440 C439 1.347 . S
H441 C442 0.951 . S
C442 H441 0.951 . S
C442 C448 1.265 . S
H443 C448 0.950 . S
H444 C452 0.949 . S
H445 C453 0.950 . S
H446 C454 0.951 . S
H447 C455 0.951 . S
C448 C442 1.265 . S
C448 H443 0.950 . S
C448 C449 1.478 . S
C449 C448 1.478 . S
C449 C450 1.397 . S
C449 C466 1.394 . S
C450 C449 1.397 . S
C450 C451 1.438 . S
C450 C455 1.429 . S
C451 C450 1.438 . S
C451 C452 1.428 . S
C451 C464 1.394 . S
C452 H444 0.949 . S
C452 C451 1.428 . S
C452 C453 1.345 . S
C453 H445 0.950 . S
C453 C452 1.345 . S
C453 C454 1.424 . S
C454 H446 0.951 . S
C454 C453 1.424 . S
C454 C455 1.347 . S
C455 H447 0.951 . S
C455 C450 1.429 . S
C455 C454 1.347 . S
H456 C457 0.951 . S
C457 H456 0.951 . S
C457 C463 1.265 . S
H458 C463 0.950 . S
H459 C467 0.949 . S
H460 C468 0.950 . S
H461 C469 0.951 . S
H462 C470 0.951 . S
C463 C457 1.265 . S
C463 H458 0.950 . S
C463 C464 1.478 . S
C464 C451 1.394 . S
C464 C463 1.478 . S
C464 C465 1.397 . S
C465 C464 1.397 . S
C465 C466 1.438 . S
C465 C470 1.429 . S
C466 C449 1.394 . S
C466 C465 1.438 . S
C466 C467 1.428 . S
C467 H459 0.949 . S
C467 C466 1.428 . S
C467 C468 1.345 . S
C468 H460 0.950 . S
C468 C467 1.345 . S
C468 C469 1.424 . S
C469 H461 0.951 . S
C469 C468 1.424 . S
C469 C470 1.347 . S
C470 H462 0.951 . S
C470 C465 1.429 . S
C470 C469 1.347 . S
H471 C472 0.951 . S
C472 H471 0.951 . S
C472 C478 1.265 . S
H473 C478 0.950 . S
H474 C482 0.949 . S
H475 C483 0.950 . S
H476 C484 0.951 1_545 S
H477 C485 0.951 . S
C478 C472 1.265 . S
C478 H473 0.950 . S
C478 C479 1.478 . S
C479 C478 1.478 . S
C479 C480 1.397 . S
C479 C496 1.394 . S
C480 C479 1.397 . S
C480 C481 1.438 . S
C480 C485 1.429 . S
C481 C480 1.438 . S
C481 C482 1.428 . S
C481 C494 1.394 . S
C482 H474 0.949 . S
C482 C481 1.428 . S
C482 C483 1.345 . S
C483 H475 0.950 . S
C483 C482 1.345 . S
C483 C484 1.424 . S
C484 H476 0.951 1_565 S
C484 C483 1.424 . S
C484 C485 1.347 . S
C485 H477 0.951 . S
C485 C480 1.429 . S
C485 C484 1.347 . S
H486 C487 0.951 . S
C487 H486 0.951 . S
C487 C493 1.265 . S
H488 C493 0.950 1_655 S
H489 C497 0.949 . S
H490 C498 0.950 . S
H491 C499 0.951 1_655 S
H492 C500 0.951 1_655 S
C493 C487 1.265 . S
C493 H488 0.950 1_455 S
C493 C494 1.478 . S
C494 C481 1.394 . S
C494 C493 1.478 . S
C494 C495 1.397 . S
C495 C494 1.397 . S
C495 C496 1.438 . S
C495 C500 1.429 . S
C496 C479 1.394 . S
C496 C495 1.438 . S
C496 C497 1.428 . S
C497 H489 0.949 . S
C497 C496 1.428 . S
C497 C498 1.345 . S
C498 H490 0.950 . S
C498 C497 1.345 . S
C498 C499 1.422 . S
C499 H491 0.951 1_455 S
C499 C498 1.422 . S
C499 C500 1.349 . S
C500 H492 0.951 1_455 S
C500 C495 1.429 . S
C500 C499 1.349 . S
H501 C502 0.951 . S
C502 H501 0.951 . S
C502 C508 1.265 . S
H503 C508 0.950 . S
H504 C512 0.949 . S
H505 C513 0.950 . S
H506 C514 0.951 . S
H507 C515 0.951 . S
C508 C502 1.265 . S
C508 H503 0.950 . S
C508 C509 1.478 . S
C509 C508 1.478 . S
C509 C510 1.397 . S
C509 C526 1.394 . S
C510 C509 1.397 . S
C510 C511 1.438 . S
C510 C515 1.429 . S
C511 C510 1.438 . S
C511 C512 1.428 . S
C511 C524 1.394 . S
C512 H504 0.949 . S
C512 C511 1.428 . S
C512 C513 1.345 . S
C513 H505 0.950 . S
C513 C512 1.345 . S
C513 C514 1.424 . S
C514 H506 0.951 . S
C514 C513 1.424 . S
C514 C515 1.347 . S
C515 H507 0.951 . S
C515 C510 1.429 . S
C515 C514 1.347 . S
H516 C517 0.951 . S
C517 H516 0.951 . S
C517 C523 1.265 . S
H518 C523 0.950 . S
H519 C527 0.949 . S
H520 C528 0.950 . S
H521 C529 0.951 . S
H522 C530 0.951 . S
C523 C517 1.265 . S
C523 H518 0.950 . S
C523 C524 1.478 . S
C524 C511 1.394 . S
C524 C523 1.478 . S
C524 C525 1.397 . S
C525 C524 1.397 . S
C525 C526 1.438 . S
C525 C530 1.429 . S
C526 C509 1.394 . S
C526 C525 1.438 . S
C526 C527 1.428 . S
C527 H519 0.949 . S
C527 C526 1.428 . S
C527 C528 1.345 1_545 S
C528 H520 0.950 . S
C528 C527 1.345 1_565 S
C528 C529 1.424 . S
C529 H521 0.951 . S
C529 C528 1.424 . S
C529 C530 1.347 1_565 S
C530 H522 0.951 . S
C530 C525 1.429 . S
C530 C529 1.347 1_545 S
H531 C532 0.951 . S
C532 H531 0.951 . S
C532 C538 1.265 . S
H533 C538 0.950 . S
H534 C542 0.949 . S
H535 C543 0.950 . S
H536 C544 0.951 . S
H537 C545 0.951 . S
C538 C532 1.265 . S
C538 H533 0.950 . S
C538 C539 1.478 . S
C539 C538 1.478 . S
C539 C540 1.397 . S
C539 C556 1.394 . S
C540 C539 1.397 . S
C540 C541 1.438 . S
C540 C545 1.429 . S
C541 C540 1.438 . S
C541 C542 1.428 . S
C541 C554 1.394 . S
C542 H534 0.949 . S
C542 C541 1.428 . S
C542 C543 1.345 . S
C543 H535 0.950 . S
C543 C542 1.345 . S
C543 C544 1.424 . S
C544 H536 0.951 . S
C544 C543 1.424 . S
C544 C545 1.347 . S
C545 H537 0.951 . S
C545 C540 1.429 . S
C545 C544 1.347 . S
H546 C547 0.951 . S
C547 H546 0.951 . S
C547 C553 1.265 . S
H548 C553 0.950 . S
H549 C557 0.949 . S
H550 C558 0.950 . S
H551 C559 0.951 . S
H552 C560 0.951 . S
C553 C547 1.265 . S
C553 H548 0.950 . S
C553 C554 1.478 . S
C554 C541 1.394 . S
C554 C553 1.478 . S
C554 C555 1.397 . S
C555 C554 1.397 . S
C555 C556 1.438 . S
C555 C560 1.429 . S
C556 C539 1.394 . S
C556 C555 1.438 . S
C556 C557 1.428 . S
C557 H549 0.949 . S
C557 C556 1.428 . S
C557 C558 1.345 . S
C558 H550 0.950 . S
C558 C557 1.345 . S
C558 C559 1.424 . S
C559 H551 0.951 . S
C559 C558 1.424 . S
C559 C560 1.347 . S
C560 H552 0.951 . S
C560 C555 1.429 . S
C560 C559 1.347 . S
H561 C562 0.951 . S
C562 H561 0.951 . S
C562 C568 1.265 . S
H563 C568 0.950 . S
H564 C572 0.949 . S
H565 C573 0.950 1_565 S
H566 C574 0.951 1_565 S
H567 C575 0.951 . S
C568 C562 1.265 . S
C568 H563 0.950 . S
C568 C569 1.478 . S
C569 C568 1.478 . S
C569 C570 1.397 . S
C569 C586 1.394 . S
C570 C569 1.397 . S
C570 C571 1.438 . S
C570 C575 1.429 . S
C571 C570 1.438 . S
C571 C572 1.428 . S
C571 C584 1.394 . S
C572 H564 0.949 . S
C572 C571 1.428 . S
C572 C573 1.345 . S
C573 H565 0.950 1_545 S
C573 C572 1.345 . S
C573 C574 1.424 . S
C574 H566 0.951 1_545 S
C574 C573 1.424 . S
C574 C575 1.347 . S
C575 H567 0.951 . S
C575 C570 1.429 . S
C575 C574 1.347 . S
H576 C577 0.951 . S
C577 H576 0.951 . S
C577 C583 1.265 . S
H578 C583 0.950 . S
H579 C587 0.949 . S
H580 C588 0.950 . S
H581 C589 0.951 . S
H582 C590 0.951 . S
C583 C577 1.265 . S
C583 H578 0.950 . S
C583 C584 1.478 . S
C584 C571 1.394 . S
C584 C583 1.478 . S
C584 C585 1.397 . S
C585 C584 1.397 . S
C585 C586 1.438 . S
C585 C590 1.429 . S
C586 C569 1.394 . S
C586 C585 1.438 . S
C586 C587 1.428 . S
C587 H579 0.949 . S
C587 C586 1.428 . S
C587 C588 1.345 . S
C588 H580 0.950 . S
C588 C587 1.345 . S
C588 C589 1.424 . S
C589 H581 0.951 . S
C589 C588 1.424 . S
C589 C590 1.347 . S
C590 H582 0.951 . S
C590 C585 1.429 . S
C590 C589 1.347 . S
H591 C592 0.951 . S
C592 H591 0.951 . S
C592 C598 1.265 1_554 S
H593 C598 0.950 1_545 S
H594 C602 0.949 . S
H595 C603 0.950 . S
H596 C604 0.951 . S
H597 C605 0.951 . S
C598 C592 1.265 1_556 S
C598 H593 0.950 1_565 S
C598 C599 1.478 . S
C599 C598 1.478 . S
C599 C600 1.397 . S
C599 C616 1.394 . S
C600 C599 1.397 . S
C600 C601 1.438 . S
C600 C605 1.429 . S
C601 C600 1.438 . S
C601 C602 1.428 . S
C601 C614 1.394 . S
C602 H594 0.949 . S
C602 C601 1.428 . S
C602 C603 1.345 . S
C603 H595 0.950 . S
C603 C602 1.345 . S
C603 C604 1.424 . S
C604 H596 0.951 . S
C604 C603 1.424 . S
C604 C605 1.347 . S
C605 H597 0.951 . S
C605 C600 1.429 . S
C605 C604 1.347 . S
H606 C607 0.951 . S
C607 H606 0.951 . S
C607 C613 1.265 . S
H608 C613 0.950 . S
H609 C617 0.949 . S
H610 C618 0.950 . S
H611 C619 0.951 . S
H612 C620 0.951 . S
C613 C607 1.265 . S
C613 H608 0.950 . S
C613 C614 1.478 . S
C614 C601 1.394 . S
C614 C613 1.478 . S
C614 C615 1.397 . S
C615 C614 1.397 . S
C615 C616 1.438 . S
C615 C620 1.429 . S
C616 C599 1.394 . S
C616 C615 1.438 . S
C616 C617 1.428 1_556 S
C617 H609 0.949 . S
C617 C616 1.428 1_554 S
C617 C618 1.345 . S
C618 H610 0.950 . S
C618 C617 1.345 . S
C618 C619 1.424 . S
C619 H611 0.951 . S
C619 C618 1.424 . S
C619 C620 1.347 1_554 S
C620 H612 0.951 . S
C620 C615 1.429 . S
C620 C619 1.347 1_556 S
H621 C622 0.951 . S
C622 H621 0.951 . S
C622 C628 1.265 1_545 S
H623 C628 0.950 1_655 S
H624 C632 0.949 . S
H625 C633 0.950 . S
H626 C634 0.951 . S
H627 C635 0.951 . S
C628 C622 1.265 1_565 S
C628 H623 0.950 1_455 S
C628 C629 1.478 . S
C629 C628 1.478 . S
C629 C630 1.397 . S
C629 C646 1.394 . S
C630 C629 1.397 . S
C630 C631 1.438 . S
C630 C635 1.429 . S
C631 C630 1.438 . S
C631 C632 1.428 . S
C631 C644 1.394 . S
C632 H624 0.949 . S
C632 C631 1.428 . S
C632 C633 1.345 . S
C633 H625 0.950 . S
C633 C632 1.345 . S
C633 C634 1.424 . S
C634 H626 0.951 . S
C634 C633 1.424 . S
C634 C635 1.347 . S
C635 H627 0.951 . S
C635 C630 1.429 . S
C635 C634 1.347 . S
H636 C637 0.951 1_655 S
C637 H636 0.951 1_455 S
C637 C643 1.265 . S
H638 C643 0.950 . S
H639 C647 0.949 . S
H640 C648 0.950 . S
H641 C649 0.951 . S
H642 C650 0.951 . S
C643 C637 1.265 . S
C643 H638 0.950 . S
C643 C644 1.478 . S
C644 C631 1.394 . S
C644 C643 1.478 . S
C644 C645 1.397 . S
C645 C644 1.397 . S
C645 C646 1.438 . S
C645 C650 1.429 . S
C646 C629 1.394 . S
C646 C645 1.438 . S
C646 C647 1.428 . S
C647 H639 0.949 . S
C647 C646 1.428 . S
C647 C648 1.345 . S
C648 H640 0.950 . S
C648 C647 1.345 . S
C648 C649 1.424 . S
C649 H641 0.951 . S
C649 C648 1.424 . S
C649 C650 1.347 . S
C650 H642 0.951 . S
C650 C645 1.429 . S
C650 C649 1.347 . S
H651 C652 0.951 . S
C652 H651 0.951 . S
C652 C658 1.265 . S
H653 C658 0.950 . S
H654 C662 0.949 . S
H655 C663 0.950 . S
H656 C664 0.951 . S
H657 C665 0.951 . S
C658 C652 1.265 . S
C658 H653 0.950 . S
C658 C659 1.478 . S
C659 C658 1.478 . S
C659 C660 1.397 . S
C659 C676 1.394 . S
C660 C659 1.397 . S
C660 C661 1.438 . S
C660 C665 1.429 1_545 S
C661 C660 1.438 . S
C661 C662 1.428 1_545 S
C661 C674 1.394 . S
C662 H654 0.949 . S
C662 C661 1.428 1_565 S
C662 C663 1.345 . S
C663 H655 0.950 . S
C663 C662 1.345 . S
C663 C664 1.424 . S
C664 H656 0.951 . S
C664 C663 1.424 . S
C664 C665 1.347 . S
C665 H657 0.951 . S
C665 C660 1.429 1_565 S
C665 C664 1.347 . S
H666 C667 0.951 . S
C667 H666 0.951 . S
C667 C673 1.265 . S
H668 C673 0.950 . S
H669 C677 0.949 . S
H670 C678 0.950 . S
H671 C679 0.951 . S
H672 C680 0.951 . S
C673 C667 1.265 . S
C673 H668 0.950 . S
C673 C674 1.478 . S
C674 C661 1.394 . S
C674 C673 1.478 . S
C674 C675 1.397 . S
C675 C674 1.397 . S
C675 C676 1.438 . S
C675 C680 1.429 . S
C676 C659 1.394 . S
C676 C675 1.438 . S
C676 C677 1.428 . S
C677 H669 0.949 . S
C677 C676 1.428 . S
C677 C678 1.345 . S
C678 H670 0.950 . S
C678 C677 1.345 . S
C678 C679 1.424 . S
C679 H671 0.951 . S
C679 C678 1.424 . S
C679 C680 1.347 . S
C680 H672 0.951 . S
C680 C675 1.429 . S
C680 C679 1.347 . S
H681 C682 0.951 . S
C682 H681 0.951 . S
C682 C688 1.265 . S
H683 C688 0.950 . S
H684 C692 0.949 . S
H685 C693 0.950 . S
H686 C694 0.951 . S
H687 C695 0.951 . S
C688 C682 1.265 . S
C688 H683 0.950 . S
C688 C689 1.478 . S
C689 C688 1.478 . S
C689 C690 1.397 . S
C689 C706 1.394 . S
C690 C689 1.397 . S
C690 C691 1.438 . S
C690 C695 1.429 1_556 S
C691 C690 1.438 . S
C691 C692 1.428 . S
C691 C704 1.394 . S
C692 H684 0.949 . S
C692 C691 1.428 . S
C692 C693 1.345 . S
C693 H685 0.950 . S
C693 C692 1.345 . S
C693 C694 1.424 1_556 S
C694 H686 0.951 . S
C694 C693 1.424 1_554 S
C694 C695 1.347 . S
C695 H687 0.951 . S
C695 C690 1.429 1_554 S
C695 C694 1.347 . S
H696 C697 0.951 . S
C697 H696 0.951 . S
C697 C703 1.265 . S
H698 C703 0.950 . S
H699 C707 0.949 . S
H700 C708 0.950 . S
H701 C709 0.951 . S
H702 C710 0.951 . S
C703 C697 1.265 . S
C703 H698 0.950 . S
C703 C704 1.478 . S
C704 C691 1.394 . S
C704 C703 1.478 . S
C704 C705 1.397 . S
C705 C704 1.397 . S
C705 C706 1.438 . S
C705 C710 1.429 . S
C706 C689 1.394 . S
C706 C705 1.438 . S
C706 C707 1.428 . S
C707 H699 0.949 . S
C707 C706 1.428 . S
C707 C708 1.345 . S
C708 H700 0.950 . S
C708 C707 1.345 . S
C708 C709 1.424 . S
C709 H701 0.951 . S
C709 C708 1.424 . S
C709 C710 1.347 . S
C710 H702 0.951 . S
C710 C705 1.429 . S
C710 C709 1.347 . S
H711 C712 0.951 . S
C712 H711 0.951 . S
C712 C718 1.265 . S
H713 C718 0.950 . S
H714 C722 0.949 . S
H715 C723 0.950 . S
H716 C724 0.951 . S
H717 C725 0.951 . S
C718 C712 1.265 . S
C718 H713 0.950 . S
C718 C719 1.478 . S
C719 C718 1.478 . S
C719 C720 1.397 . S
C719 C736 1.394 . S
C720 C719 1.397 . S
C720 C721 1.438 . S
C720 C725 1.429 . S
C721 C720 1.438 . S
C721 C722 1.428 . S
C721 C734 1.394 . S
C722 H714 0.949 . S
C722 C721 1.428 . S
C722 C723 1.345 . S
C723 H715 0.950 . S
C723 C722 1.345 . S
C723 C724 1.424 . S
C724 H716 0.951 . S
C724 C723 1.424 . S
C724 C725 1.347 . S
C725 H717 0.951 . S
C725 C720 1.429 . S
C725 C724 1.347 . S
H726 C727 0.951 . S
C727 H726 0.951 . S
C727 C733 1.265 . S
H728 C733 0.950 . S
H729 C737 0.949 . S
H730 C738 0.950 1_655 S
H731 C739 0.951 1_655 S
H732 C740 0.951 . S
C733 C727 1.265 . S
C733 H728 0.950 . S
C733 C734 1.478 . S
C734 C721 1.394 . S
C734 C733 1.478 . S
C734 C735 1.397 . S
C735 C734 1.397 . S
C735 C736 1.438 . S
C735 C740 1.429 . S
C736 C719 1.394 . S
C736 C735 1.438 . S
C736 C737 1.428 . S
C737 H729 0.949 . S
C737 C736 1.428 . S
C737 C738 1.345 . S
C738 H730 0.950 1_455 S
C738 C737 1.345 . S
C738 C739 1.424 . S
C739 H731 0.951 1_455 S
C739 C738 1.424 . S
C739 C740 1.347 . S
C740 H732 0.951 . S
C740 C735 1.429 . S
C740 C739 1.347 . S
C397 C94 1.136 . S
C382 C10 1.476 . S
C412 C21 1.531 1_655 S
C427 C208 1.052 . S
C442 C31 1.271 . S
C457 C268 1.066 . S
C472 C0 1.258 1_565 S
C487 C68 1.159 . S
C517 C182 1.183 . S
C502 C18 1.280 . S
C532 C34 1.386 . S
C547 C278 0.878 . S
C577 C164 0.888 . S
C562 C36 1.377 . S
C592 C8 1.340 1_565 S
C607 C296 1.056 . S
C637 C40 0.971 . S
C622 C23 1.249 . S
C667 C154 0.848 . S
C652 C26 1.093 . S
C697 C322 1.089 . S
C682 C5 1.479 1_556 S
C712 C13 1.307 . S
C727 C50 0.775 . S
