# Generated by pormake.
# Topology pyr, (3,6)-cn, num edge types: 1
# Building blocks:
#     Node 0, Type 0, BuildingBlock: ESEHIV_clean_linker_0, # of connection points: 3
#     Node 1, Type 0, BuildingBlock: ESEHIV_clean_linker_0, # of connection points: 3
#     Node 2, Type 0, BuildingBlock: ESEHIV_clean_linker_0, # of connection points: 3
#     Node 3, Type 0, BuildingBlock: ESEHIV_clean_linker_0, # of connection points: 3
#     Node 4, Type 0, BuildingBlock: ESEHIV_clean_linker_0, # of connection points: 3
#     Node 5, Type 0, BuildingBlock: ESEHIV_clean_linker_0, # of connection points: 3
#     Node 6, Type 0, BuildingBlock: ESEHIV_clean_linker_0, # of connection points: 3
#     Node 7, Type 0, BuildingBlock: ESEHIV_clean_linker_0, # of connection points: 3
#     Node 8, Type 1, BuildingBlock: FUNLAD_clean_sbu_0, # of connection points: 6
#     Node 9, Type 1, BuildingBlock: FUNLAD_clean_sbu_0, # of connection points: 6
#     Node 10, Type 1, BuildingBlock: FUNLAD_clean_sbu_0, # of connection points: 6
#     Node 11, Type 1, BuildingBlock: FUNLAD_clean_sbu_0, # of connection points: 6
#     Edge 12, Type (0, 1), BuildingBlock: XIVTED_clean_linker_0, # of connection points: 2
#     Edge 13, Type (0, 1), BuildingBlock: XIVTED_clean_linker_0, # of connection points: 2
#     Edge 14, Type (0, 1), BuildingBlock: XIVTED_clean_linker_0, # of connection points: 2
#     Edge 15, Type (0, 1), BuildingBlock: XIVTED_clean_linker_0, # of connection points: 2
#     Edge 16, Type (0, 1), BuildingBlock: XIVTED_clean_linker_0, # of connection points: 2
#     Edge 17, Type (0, 1), BuildingBlock: XIVTED_clean_linker_0, # of connection points: 2
#     Edge 18, Type (0, 1), BuildingBlock: XIVTED_clean_linker_0, # of connection points: 2
#     Edge 19, Type (0, 1), BuildingBlock: XIVTED_clean_linker_0, # of connection points: 2
#     Edge 20, Type (0, 1), BuildingBlock: XIVTED_clean_linker_0, # of connection points: 2
#     Edge 21, Type (0, 1), BuildingBlock: XIVTED_clean_linker_0, # of connection points: 2
#     Edge 22, Type (0, 1), BuildingBlock: XIVTED_clean_linker_0, # of connection points: 2
#     Edge 23, Type (0, 1), BuildingBlock: XIVTED_clean_linker_0, # of connection points: 2
#     Edge 24, Type (0, 1), BuildingBlock: XIVTED_clean_linker_0, # of connection points: 2
#     Edge 25, Type (0, 1), BuildingBlock: XIVTED_clean_linker_0, # of connection points: 2
#     Edge 26, Type (0, 1), BuildingBlock: XIVTED_clean_linker_0, # of connection points: 2
#     Edge 27, Type (0, 1), BuildingBlock: XIVTED_clean_linker_0, # of connection points: 2
#     Edge 28, Type (0, 1), BuildingBlock: XIVTED_clean_linker_0, # of connection points: 2
#     Edge 29, Type (0, 1), BuildingBlock: XIVTED_clean_linker_0, # of connection points: 2
#     Edge 30, Type (0, 1), BuildingBlock: XIVTED_clean_linker_0, # of connection points: 2
#     Edge 31, Type (0, 1), BuildingBlock: XIVTED_clean_linker_0, # of connection points: 2
#     Edge 32, Type (0, 1), BuildingBlock: XIVTED_clean_linker_0, # of connection points: 2
#     Edge 33, Type (0, 1), BuildingBlock: XIVTED_clean_linker_0, # of connection points: 2
#     Edge 34, Type (0, 1), BuildingBlock: XIVTED_clean_linker_0, # of connection points: 2
#     Edge 35, Type (0, 1), BuildingBlock: XIVTED_clean_linker_0, # of connection points: 2
# Relax obj value: 0.088
# Max RMSD: 0.072
# Mean RMSD: 0.036
data_MOF--net-pry--node1-FUNLAD_clean_sbu_0--node2-ESEHIV_clean_linker_0--edge1-XIVTED_clean_linker_0
_symmetry_space_group_name_H-M    P1
_symmetry_Int_Tables_number       1
_symmetry_cell_setting            triclinic
loop_
_symmetry_equiv_pos_as_xyz
'x, y, z'
_cell_length_a     33.827662
_cell_length_b     36.384858
_cell_length_c     36.491003
_cell_angle_alpha  90.338728
_cell_angle_beta   90.053571
_cell_angle_gamma 84.189537
loop_
_atom_site_label
_atom_site_type_symbol
_atom_site_fract_x
_atom_site_fract_y
_atom_site_fract_z
_atom_type_partial_charge
H0 H 0.08619 0.1991 0.21543 0.0
H1 H 0.18708 0.11693 0.2199 0.0
H2 H 0.17595 0.19482 0.1314 0.0
C3 C 0.1138 0.18661 0.20374 0.0
C4 C 0.1286 0.20111 0.1711 0.0
C5 C 0.13476 0.15605 0.22149 0.0
C6 C 0.17077 0.14007 0.20617 0.0
C7 C 0.18587 0.15366 0.17348 0.0
C8 C 0.16445 0.18409 0.1564 0.0
H9 H 0.34169 0.92133 0.71224 0.0
H10 H 0.43519 0.83167 0.71761 0.0
H11 H 0.3475 0.8338 0.63224 0.0
C12 C 0.35614 0.8957 0.70131 0.0
C13 C 0.34069 0.88017 0.6695 0.0
C14 C 0.38994 0.87836 0.7194 0.0
C15 C 0.40873 0.84493 0.70461 0.0
C16 C 0.3943 0.82935 0.67226 0.0
C17 C 0.35991 0.84687 0.65573 0.0
H18 H 0.63736 0.42112 0.01886 0.0
H19 H 0.63745 0.4999 0.93232 0.0
H20 H 0.52811 0.46014 0.96576 0.0
C21 C 0.62118 0.43932 0.99954 0.0
C22 C 0.58088 0.43534 0.9924 0.0
C23 C 0.64127 0.46496 0.97975 0.0
C24 C 0.6208 0.48472 0.95127 0.0
C25 C 0.58023 0.48197 0.94484 0.0
C26 C 0.55985 0.46077 0.96894 0.0
H27 H 0.87706 0.60608 0.51802 0.0
H28 H 0.97324 0.59246 0.44129 0.0
H29 H 0.89025 0.51091 0.44736 0.0
C30 C 0.89461 0.58878 0.49851 0.0
C31 C 0.88001 0.55664 0.48485 0.0
C32 C 0.92927 0.60107 0.48368 0.0
C33 C 0.94934 0.58068 0.45535 0.0
C34 C 0.93461 0.5489 0.44102 0.0
C35 C 0.90188 0.53549 0.45814 0.0
H36 H 0.84189 0.91852 0.82702 0.0
H37 H 0.93256 0.8265 0.82212 0.0
H38 H 0.84189 0.83059 0.90507 0.0
C39 C 0.85503 0.89241 0.83773 0.0
C40 C 0.83789 0.87722 0.86866 0.0
C41 C 0.88884 0.8743 0.8202 0.0
C42 C 0.90608 0.84029 0.83472 0.0
C43 C 0.8901 0.82486 0.86637 0.0
C44 C 0.8556 0.84332 0.88225 0.0
H45 H 0.59015 0.20027 0.32566 0.0
H46 H 0.68629 0.11298 0.32797 0.0
H47 H 0.67736 0.19661 0.41191 0.0
C48 C 0.61689 0.18722 0.33836 0.0
C49 C 0.63136 0.20258 0.37086 0.0
C50 C 0.63603 0.15422 0.32303 0.0
C51 C 0.6706 0.13744 0.34021 0.0
C52 C 0.686 0.15263 0.37212 0.0
C53 C 0.66589 0.18493 0.38719 0.0
H54 H 0.37251 0.6097 1.00603 0.0
H55 H 0.37153 0.54547 0.10434 0.0
H56 H 0.4676 0.61085 0.08441 0.0
C57 C 0.38736 0.59936 0.03079 0.0
C58 C 0.4233 0.61248 0.04165 0.0
C59 C 0.36907 0.57461 0.05301 0.0
C60 C 0.38704 0.56252 0.08606 0.0
C61 C 0.42239 0.576 0.09756 0.0
C62 C 0.44099 0.5997 0.07463 0.0
H63 H 0.0459 0.45109 0.59755 0.0
H64 H 0.14261 0.41352 0.52622 0.0
H65 H 0.14437 0.51573 0.58511 0.0
C66 C 0.07315 0.45623 0.58382 0.0
C67 C 0.093 0.48657 0.59454 0.0
C68 C 0.09098 0.42929 0.55975 0.0
C69 C 0.12742 0.43493 0.54335 0.0
C70 C 0.14632 0.46656 0.55178 0.0
C71 C 0.12841 0.49274 0.57662 0.0
C72 C 0.04508 0.03735 0.45401 0.0
N73 N 0.02369 0.09169 0.55444 0.0
C74 C 0.05962 0.10373 0.54719 0.0
C75 C 0.06481 0.141 0.55034 0.0
C76 C 0.03273 0.16614 0.56105 0.0
C77 C 0.99686 0.15273 0.57124 0.0
C78 C 0.99288 0.11501 0.56754 0.0
Zn79 Zn 0.01532 0.0408 0.53468 0.0
C80 C 0.93826 0.04201 0.49435 0.0
N81 N 1.00189 0.93684 0.48624 0.0
C82 C 0.03186 0.91308 0.47229 0.0
C83 C 0.96542 0.92572 0.49296 0.0
C84 C 0.95827 0.88926 0.48702 0.0
C85 C 0.98898 0.86363 0.47427 0.0
C86 C 0.02603 0.87599 0.46614 0.0
Zn87 Zn 0.01058 0.98783 0.50599 0.0
O88 O 0.04183 0.0565 0.48338 0.0
C89 C 0.0876 0.98742 0.54679 0.0
O90 O 0.03397 1.00491 0.45433 0.0
H91 H 0.94229 0.9446 0.50504 0.0
H92 H 0.08359 0.08486 0.53642 0.0
H93 H 0.06075 0.92245 0.46751 0.0
O94 O 0.0716 0.01936 0.55545 0.0
O95 O 0.06942 0.96767 0.52477 0.0
H96 H 0.9645 0.10483 0.57282 0.0
O97 O 0.98715 0.97114 0.55795 0.0
O98 O 0.98901 0.02448 0.58555 0.0
O99 O 0.95224 1.00897 0.48734 0.0
O100 O 0.95857 0.06199 0.51408 0.0
C101 C 0.98117 0.99095 0.58667 0.0
H102 H 0.09314 0.1503 0.5429 0.0
H103 H 0.97148 0.17141 0.57965 0.0
H104 H 0.92953 0.88087 0.49443 0.0
H105 H 0.05042 0.85705 0.4561 0.0
C106 C 0.58759 0.99256 0.99218 0.0
N107 N 0.52172 0.09689 0.99056 0.0
C108 C 0.55726 0.10977 0.99796 0.0
C109 C 0.56074 0.14756 0.99796 0.0
C110 C 0.52725 0.1724 0.99061 0.0
C111 C 0.49164 0.15824 0.98041 0.0
C112 C 0.48954 0.12011 0.98051 0.0
Zn113 Zn 0.51513 0.04462 1.00709 0.0
C114 C 0.47983 0.99686 0.95402 0.0
N115 N 0.50395 0.93831 0.05051 0.0
C116 C 0.5361 0.91322 0.05583 0.0
C117 C 0.467 0.92728 0.04602 0.0
C118 C 0.46176 0.88996 0.04366 0.0
C119 C 0.49495 0.86352 0.04476 0.0
C120 C 0.5323 0.8754 0.05276 0.0
Zn121 Zn 0.51079 0.99098 0.03434 0.0
O122 O 0.57232 0.02505 0.98482 0.0
C123 C 0.54601 0.03871 0.08731 0.0
O124 O 0.56869 0.97258 1.01299 0.0
H125 H 0.4418 0.94727 0.04101 0.0
H126 H 0.58233 0.09095 1.00644 0.0
H127 H 0.56527 0.92239 0.05942 0.0
O128 O 0.54111 0.05866 0.0588 0.0
O129 O 0.5364 1.00574 0.08592 0.0
H130 H 0.46148 0.1093 0.97506 0.0
O131 O 0.45308 1.01075 0.0559 0.0
O132 O 0.45793 0.06372 0.0292 0.0
O133 O 0.48538 0.9766 0.98227 0.0
O134 O 0.48878 0.03003 0.9558 0.0
C135 C 0.43848 0.04365 0.0494 0.0
H136 H 0.58903 0.15723 1.00505 0.0
H137 H 0.46504 0.17639 0.97457 0.0
H138 H 0.43215 0.8821 0.03887 0.0
H139 H 0.55875 0.85604 0.0541 0.0
C140 C 0.53288 0.44425 0.49501 0.0
N141 N 0.52834 0.49258 0.6016 0.0
C142 C 0.51315 0.46515 0.62053 0.0
C143 C 0.51768 0.46319 0.65869 0.0
C144 C 0.53774 0.4899 0.67719 0.0
C145 C 0.55386 0.51709 0.65657 0.0
C146 C 0.54902 0.51779 0.6189 0.0
Zn147 Zn 0.51668 0.50451 0.54797 0.0
C148 C 0.58979 0.53059 0.51313 0.0
N149 N 0.49506 0.54171 0.43956 0.0
C150 C 0.47265 0.51884 0.4209 0.0
C151 C 0.51156 0.56951 0.42237 0.0
C152 C 0.50656 0.5744 0.38459 0.0
C153 C 0.48445 0.55038 0.36461 0.0
C154 C 0.46676 0.52284 0.38342 0.0
Zn155 Zn 0.50662 0.52844 0.49276 0.0
O156 O 0.53385 0.4488 0.52967 0.0
C157 C 0.4335 0.50235 0.52732 0.0
O158 O 0.52243 0.47208 0.47498 0.0
H159 H 0.52952 0.58715 0.43773 0.0
H160 H 0.49644 0.44563 0.60628 0.0
H161 H 0.46014 0.49663 0.43489 0.0
O162 O 0.45697 0.49221 0.55341 0.0
O163 O 0.44674 0.51824 0.49972 0.0
H164 H 0.56022 0.53994 0.60375 0.0
O165 O 0.49122 0.5846 0.51108 0.0
O166 O 0.49897 0.56036 0.56561 0.0
O167 O 0.56649 0.5388 0.48647 0.0
O168 O 0.57642 0.5164 0.54164 0.0
C169 C 0.49032 0.58862 0.54578 0.0
H170 H 0.50508 0.44148 0.67351 0.0
H171 H 0.56862 0.53886 0.66942 0.0
H172 H 0.52086 0.59592 0.37106 0.0
H173 H 0.44877 0.50424 0.36929 0.0
C174 C 0.98598 0.58275 0.99036 0.0
N175 N 0.98638 0.5346 0.096 0.0
C176 C 1.00116 0.56258 0.11484 0.0
C177 C 0.99558 0.5658 0.15277 0.0
C178 C 0.97436 0.54013 0.17101 0.0
C179 C 0.95857 0.51235 0.1506 0.0
C180 C 0.96507 0.50999 0.11312 0.0
Zn181 Zn 1.00088 0.52219 0.04302 0.0
C182 C 0.93126 0.49381 1.0036 0.0
N183 N 0.03099 0.48754 0.93489 0.0
C184 C 0.05572 0.51113 0.92078 0.0
C185 C 0.01413 0.46297 0.91304 0.0
C186 C 0.02127 0.46239 0.87518 0.0
C187 C 0.04618 0.48711 0.86019 0.0
C188 C 0.06393 0.51118 0.88362 0.0
Zn189 Zn 0.01501 0.49888 0.98798 0.0
O190 O 0.98191 0.57764 0.02462 0.0
C191 C 0.08487 0.52631 0.02786 0.0
O192 O 0.99966 0.55546 0.97061 0.0
H193 H 0.99393 0.44497 0.92466 0.0
H194 H 0.0184 0.58157 0.10072 0.0
H195 H 0.06753 0.53167 0.93793 0.0
O196 O 0.05908 0.53723 0.0518 0.0
O197 O 0.07434 0.50912 0.99977 0.0
H198 H 0.95451 0.4873 0.09802 0.0
O199 O 0.02992 0.44239 1.0061 0.0
O200 O 0.02013 0.46676 0.06078 0.0
O201 O 0.95566 0.48815 0.97726 0.0
O202 O 0.94268 0.50698 0.03364 0.0
C203 C 0.02995 0.43849 0.04085 0.0
H204 H 0.00804 0.58772 0.1677 0.0
H205 H 0.9427 0.49159 0.1637 0.0
H206 H 1.00703 0.44341 0.8578 0.0
H207 H 0.08249 0.5313 0.87312 0.0
H208 H 0.06446 0.12575 0.23301 0.0
H209 H 0.0941 0.09266 0.44787 0.0
H210 H 0.17132 0.14968 0.2886 0.0
H211 H 0.02905 0.0207 0.38186 0.0
H212 H 0.1154 0.12195 0.39176 0.0
H213 H 0.04309 0.09576 0.2891 0.0
C214 C 0.08317 0.12509 0.25715 0.0
C215 C 0.11968 0.14038 0.25613 0.0
C216 C 0.09658 0.09966 0.38954 0.0
C217 C 0.09529 0.10635 0.32052 0.0
C218 C 0.08437 0.08289 0.42158 0.0
C219 C 0.05993 0.05386 0.41973 0.0
C220 C 0.08346 0.08821 0.35514 0.0
C221 C 0.0482 0.04264 0.38471 0.0
C222 C 0.07113 0.10772 0.28903 0.0
C223 C 0.14295 0.13832 0.28816 0.0
N224 N 0.05967 0.06004 0.35393 0.0
N225 N 0.13028 0.12196 0.31901 0.0
H226 H 0.41744 0.844 0.78315 0.0
H227 H 0.46176 0.03122 0.88769 0.0
H228 H 0.39698 0.95193 0.73438 0.0
H229 H 0.46525 0.92514 0.94044 0.0
H230 H 0.44088 1.00268 0.83059 0.0
H231 H 0.43889 0.87286 0.83971 0.0
C232 C 0.41773 0.87372 0.78413 0.0
C233 C 0.40511 0.89541 0.75371 0.0
C234 C 0.44612 0.98567 0.8547 0.0
C235 C 0.42956 0.92894 0.81895 0.0
C236 C 0.45801 1.00201 0.8874 0.0
C237 C 0.46527 0.98073 0.9192 0.0
C238 C 0.44169 0.9476 0.85346 0.0
C239 C 0.45996 0.94286 0.91684 0.0
C240 C 0.42973 0.89027 0.81663 0.0
C241 C 0.40583 0.93396 0.7571 0.0
N242 N 0.44871 0.92761 0.88472 0.0
N243 N 0.4178 0.94937 0.78892 0.0
H244 H 0.52301 0.44901 0.90605 0.0
H245 H 0.59959 0.50953 0.71925 0.0
H246 H 0.5962 0.53973 0.89938 0.0
H247 H 0.48188 0.47395 0.72793 0.0
H248 H 0.6011 0.5173 0.7855 0.0
H249 H 0.50682 0.45675 0.84214 0.0
C250 C 0.53499 0.47135 0.89185 0.0
C251 C 0.56209 0.49318 0.90871 0.0
C252 C 0.57481 0.50817 0.7728 0.0
C253 C 0.54457 0.5007 0.83413 0.0
C254 C 0.57389 0.50356 0.73497 0.0
C255 C 0.54038 0.49129 0.71777 0.0
C256 C 0.54245 0.49957 0.79383 0.0
C257 C 0.50855 0.48297 0.7399 0.0
C258 C 0.52583 0.47539 0.85488 0.0
C259 C 0.57655 0.52116 0.88761 0.0
N260 N 0.51051 0.48698 0.77689 0.0
N261 N 0.56848 0.52346 0.85115 0.0
H262 H 0.00818 0.54403 0.40692 0.0
H263 H 0.90732 0.53159 0.20971 0.0
H264 H 0.88485 0.5287 0.3872 0.0
H265 H 0.03067 0.54929 0.22365 0.0
H266 H 0.90088 0.52618 0.27568 0.0
H267 H 0.01996 0.53991 0.34062 0.0
C268 C 0.98381 0.53905 0.3889 0.0
C269 C 0.94541 0.53697 0.40296 0.0
C270 C 0.92945 0.53126 0.26449 0.0
C271 C 0.95863 0.53248 0.32735 0.0
C272 C 0.93307 0.53442 0.22678 0.0
C273 C 0.96958 0.54081 0.21126 0.0
C274 C 0.96253 0.53466 0.28708 0.0
C275 C 1.00188 0.54474 0.23466 0.0
C276 C 0.99054 0.53683 0.35109 0.0
C277 C 0.91512 0.53002 0.37822 0.0
N278 N 0.99763 0.54154 0.27154 0.0
N279 N 0.92235 0.52844 0.34179 0.0
H280 H 0.2142 0.0797 0.16922 0.0
H281 H 0.40364 0.11496 0.04686 0.0
H282 H 0.24488 0.1879 0.13947 0.0
H283 H 0.38656 1.00827 0.09178 0.0
H284 H 0.34306 0.14111 0.07762 0.0
H285 H 0.27516 0.05229 0.13933 0.0
C286 C 0.23377 0.09779 0.15671 0.0
C287 C 0.22391 0.13631 0.15681 0.0
C288 C 0.35246 0.11196 0.08077 0.0
C289 C 0.29372 0.10486 0.12184 0.0
C290 C 0.38707 0.09691 0.06303 0.0
C291 C 0.4004 0.05926 0.06664 0.0
C292 C 0.33058 0.08929 0.10228 0.0
C293 C 0.37752 0.03742 0.08817 0.0
C294 C 0.26852 0.08204 0.1394 0.0
C295 C 0.25049 0.15809 0.13958 0.0
N296 N 0.34379 0.05272 0.10511 0.0
N297 N 0.28387 0.14211 0.12278 0.0
H298 H 0.32342 0.88148 0.59542 0.0
H299 H 0.12081 1.01195 0.60944 0.0
H300 H 0.2744 0.92035 0.69962 0.0
H301 H 0.14141 0.92989 0.5239 0.0
H302 H 0.1826 0.987 0.63916 0.0
H303 H 0.26237 0.90705 0.56541 0.0
C304 C 0.29991 0.89512 0.61221 0.0
C305 C 0.30434 0.8981 0.6505 0.0
C306 C 0.17361 0.97452 0.61386 0.0
C307 C 0.23449 0.92874 0.61557 0.0
C308 C 0.13846 0.98884 0.59672 0.0
C309 C 0.12585 0.97301 0.56404 0.0
C310 C 0.19693 0.94457 0.59791 0.0
C311 C 0.14991 0.94291 0.54906 0.0
C312 C 0.26508 0.90992 0.59484 0.0
C313 C 0.27294 0.91749 0.67014 0.0
N314 N 0.18443 0.92984 0.56596 0.0
N315 N 0.2395 0.93211 0.65247 0.0
H316 H 0.68106 0.52643 0.96999 0.0
H317 H 0.88587 0.46277 0.05393 0.0
H318 H 0.70124 0.41178 1.00223 0.0
H319 H 0.88237 0.5078 0.94479 0.0
H320 H 0.81502 0.45343 0.04847 0.0
H321 H 0.75248 0.53066 0.97366 0.0
C322 C 0.70021 0.50207 0.97775 0.0
C323 C 0.68456 0.46849 0.98531 0.0
C324 C 0.83001 0.4651 0.02575 0.0
C325 C 0.76624 0.47406 0.99108 0.0
C326 C 0.87014 0.47051 0.02881 0.0
C327 C 0.8897 0.48592 0.99966 0.0
C328 C 0.80926 0.47648 0.9939 0.0
C329 C 0.86824 0.49558 0.96769 0.0
C330 C 0.74093 0.50471 0.97997 0.0
C331 C 0.71128 0.43843 0.9966 0.0
N332 N 0.82881 0.49132 0.96586 0.0
N333 N 0.75082 0.44203 0.99941 0.0
H334 H 0.82556 0.5451 0.43268 0.0
H335 H 0.64495 0.52545 0.56833 0.0
H336 H 0.83796 0.55651 0.54981 0.0
H337 H 0.63151 0.54818 0.45272 0.0
H338 H 0.71617 0.53159 0.56305 0.0
H339 H 0.75524 0.5395 0.44053 0.0
C340 C 0.81357 0.54574 0.46022 0.0
C341 C 0.83784 0.55056 0.49076 0.0
C342 C 0.69753 0.53541 0.53895 0.0
C343 C 0.75667 0.54515 0.49983 0.0
C344 C 0.65694 0.53185 0.54186 0.0
C345 C 0.63231 0.53617 0.51083 0.0
C346 C 0.71357 0.54287 0.5047 0.0
C347 C 0.64936 0.54461 0.47733 0.0
C348 C 0.77323 0.54305 0.46461 0.0
C349 C 0.82029 0.55251 0.52563 0.0
N350 N 0.68898 0.54742 0.47512 0.0
N351 N 0.78064 0.54962 0.52929 0.0
H352 H 0.09291 0.26579 0.20193 0.0
H353 H 0.05627 0.37097 1.00901 0.0
H354 H 0.11785 0.21342 0.09699 0.0
H355 H 0.03036 0.42249 0.11423 0.0
H356 H 0.07655 0.31246 0.04037 0.0
H357 H 0.06654 0.32233 0.17019 0.0
C358 C 0.09241 0.26591 0.17226 0.0
C359 C 0.10809 0.2346 0.15232 0.0
C360 C 0.06631 0.33656 0.05658 0.0
C361 C 0.07829 0.29986 0.11549 0.0
C362 C 0.0547 0.37005 0.03863 0.0
C363 C 0.04161 0.402 0.05883 0.0
C364 C 0.06489 0.33476 0.09514 0.0
C365 C 0.0403 0.39882 0.0973 0.0
C366 C 0.07762 0.29841 0.15407 0.0
C367 C 0.10687 0.2369 0.11374 0.0
N368 N 0.05181 0.36606 0.11405 0.0
N369 N 0.09255 0.26881 0.09674 0.0
H370 H 0.59561 0.38773 0.05178 0.0
H371 H 0.49222 0.22849 0.94823 0.0
H372 H 0.52778 0.40054 0.95121 0.0
H373 H 0.56583 0.20824 0.0442 0.0
H374 H 0.49692 0.29439 0.95564 0.0
H375 H 0.57729 0.32437 0.05598 0.0
C376 C 0.57647 0.37779 0.03095 0.0
C377 C 0.56366 0.40009 1.00097 0.0
C378 C 0.51198 0.27559 0.97522 0.0
C379 C 0.54239 0.32774 1.00586 0.0
C380 C 0.50917 0.23791 0.97102 0.0
C381 C 0.52911 0.21271 0.99527 0.0
C382 C 0.53514 0.28834 1.00376 0.0
C383 C 0.55084 0.22662 0.02424 0.0
C384 C 0.56595 0.3416 0.03346 0.0
C385 C 0.53819 0.38547 0.97532 0.0
N386 N 0.55357 0.2635 0.02752 0.0
N387 N 0.52883 0.35038 0.97824 0.0
H388 H 1.00235 0.62498 0.49685 0.0
H389 H 0.92343 0.83289 0.44961 0.0
H390 H 0.87854 0.66401 0.48292 0.0
H391 H 0.03966 0.80415 0.49636 0.0
H392 H 0.90915 0.76899 0.45627 0.0
H393 H 0.01885 0.6891 0.49412 0.0
C394 C 0.97863 0.64713 0.49406 0.0
C395 C 0.93903 0.63927 0.49035 0.0
C396 C 0.93782 0.77661 0.46504 0.0
C397 C 0.95767 0.71212 0.48615 0.0
C398 C 0.94605 0.81305 0.4611 0.0
C399 C 0.98264 0.82395 0.47278 0.0
C400 C 0.96647 0.75066 0.48051 0.0
C401 C 0.01116 0.79689 0.48678 0.0
C402 C 0.98804 0.68358 0.49228 0.0
C403 C 0.90938 0.66883 0.48647 0.0
N404 N 1.00241 0.76142 0.49041 0.0
N405 N 0.91936 0.70389 0.48404 0.0
H406 H 0.42534 0.76427 0.70515 0.0
H407 H 0.4679 0.65617 0.51357 0.0
H408 H 0.40854 0.81546 0.59922 0.0
H409 H 0.48705 0.60485 0.61927 0.0
H410 H 0.44834 0.71526 0.54454 0.0
H411 H 0.45127 0.70644 0.67456 0.0
C412 C 0.42752 0.76355 0.67554 0.0
C413 C 0.41426 0.79484 0.65484 0.0
C414 C 0.45693 0.69108 0.56097 0.0
C415 C 0.44356 0.72844 0.61944 0.0
C416 C 0.4681 0.65727 0.54323 0.0
C417 C 0.47907 0.62527 0.56369 0.0
C418 C 0.45663 0.69311 0.59956 0.0
C419 C 0.47874 0.62862 0.6022 0.0
C420 C 0.44207 0.7304 0.65802 0.0
C421 C 0.41764 0.79197 0.61641 0.0
N422 N 0.46766 0.66173 0.61877 0.0
N423 N 0.43165 0.7595 0.60008 0.0
H424 H 0.8994 0.94748 0.80831 0.0
H425 H 0.96699 0.91888 0.59807 0.0
H426 H 0.91621 0.84078 0.75541 0.0
H427 H 0.96368 0.0237 0.65441 0.0
H428 H 0.94669 0.89044 0.65464 0.0
H429 H 0.92148 0.9759 0.75231 0.0
C430 C 0.90771 0.92991 0.78494 0.0
C431 C 0.90555 0.89149 0.78682 0.0
C432 C 0.95035 0.91966 0.65474 0.0
C433 C 0.93117 0.92428 0.72196 0.0
C434 C 0.96186 0.93609 0.62227 0.0
C435 C 0.96711 0.97398 0.62113 0.0
C436 C 0.94369 0.94109 0.68673 0.0
C437 C 0.96002 0.9945 0.65371 0.0
C438 C 0.9205 0.94626 0.75289 0.0
C439 C 0.91751 0.87038 0.75557 0.0
N440 N 0.94867 0.97787 0.68499 0.0
N441 N 0.92947 0.887 0.72453 0.0
H442 H 0.62953 0.08066 0.30906 0.0
H443 H 0.56148 0.11027 0.09966 0.0
H444 H 0.60752 0.18793 0.25919 0.0
H445 H 0.56296 1.00538 0.15445 0.0
H446 H 0.58176 0.13827 0.15675 0.0
H447 H 0.60826 0.05222 0.25235 0.0
C448 C 0.62025 0.09831 0.28619 0.0
C449 C 0.62058 0.1369 0.28909 0.0
C450 C 0.57771 0.10912 0.15638 0.0
C451 C 0.59604 0.10419 0.22357 0.0
C452 C 0.56626 0.09295 0.12363 0.0
C453 C 0.56045 0.05519 0.12196 0.0
C454 C 0.58382 0.08755 0.18807 0.0
C455 C 0.56706 0.03449 0.15423 0.0
C456 C 0.60794 0.08198 0.25378 0.0
C457 C 0.60758 0.15818 0.2585 0.0
N458 N 0.57843 0.05088 0.18581 0.0
N459 N 0.59616 0.14158 0.22709 0.0
H460 H 0.44258 0.62937 0.14441 0.0
H461 H 0.48656 0.49419 0.31416 0.0
H462 H 0.43176 0.5123 0.13833 0.0
H463 H 0.47237 0.6132 0.3232 0.0
H464 H 0.47443 0.49938 0.24837 0.0
H465 H 0.46199 0.62272 0.20837 0.0
C466 C 0.44491 0.60208 0.15643 0.0
C467 C 0.43603 0.57119 0.13593 0.0
C468 C 0.47406 0.52433 0.26476 0.0
C469 C 0.45743 0.56358 0.20955 0.0
C470 C 0.48079 0.52144 0.30233 0.0
C471 C 0.47996 0.55335 0.32433 0.0
C472 C 0.46672 0.55937 0.24897 0.0
C473 C 0.47347 0.58789 0.30733 0.0
C474 C 0.45564 0.5984 0.19308 0.0
C475 C 0.43841 0.53675 0.15323 0.0
N476 N 0.46692 0.58997 0.27066 0.0
N477 N 0.44894 0.53383 0.18916 0.0
H478 H 0.01924 0.50702 0.62531 0.0
H479 H 0.11597 0.49288 0.82472 0.0
H480 H 0.14498 0.50293 0.64803 0.0
H481 H 0.99059 0.48929 0.80522 0.0
H482 H 0.12536 0.50499 0.76001 0.0
H483 H 1.00612 0.51195 0.69123 0.0
C484 C 0.04401 0.5082 0.64397 0.0
C485 C 0.08333 0.5036 0.63098 0.0
C486 C 0.09573 0.5016 0.76974 0.0
C487 C 0.06855 0.50897 0.70618 0.0
C488 C 0.0904 0.49451 0.80668 0.0
C489 C 0.05247 0.48999 0.82027 0.0
C490 C 0.06292 0.50401 0.74598 0.0
C491 C 0.02042 0.49209 0.79568 0.0
C492 C 0.03649 0.51076 0.68158 0.0
C493 C 0.11415 0.50625 0.6564 0.0
N494 N 0.02637 0.49895 0.7596 0.0
N495 N 0.10611 0.50805 0.69274 0.0
H496 H 0.77452 0.92049 0.83733 0.0
H497 H 0.63846 0.93383 1.01534 0.0
H498 H 0.81741 0.87843 0.94212 0.0
H499 H 0.62392 0.0161 0.93046 0.0
H500 H 0.70004 0.90735 0.98583 0.0
H501 H 0.71544 0.95055 0.86789 0.0
C502 C 0.77195 0.91768 0.86671 0.0
C503 C 0.80151 0.89649 0.88689 0.0
C504 C 0.68347 0.93132 0.97378 0.0
C505 C 0.73276 0.93023 0.92192 0.0
C506 C 0.64827 0.94642 0.99057 0.0
C507 C 0.626 0.97737 0.97547 0.0
C508 C 0.69619 0.94667 0.94112 0.0
C509 C 0.64024 0.99242 0.94323 0.0
C510 C 0.73792 0.93476 0.88409 0.0
C511 C 0.7954 0.89353 0.92494 0.0
N512 N 0.67416 0.97672 0.92694 0.0
N513 N 0.76173 0.90985 0.94104 0.0
H514 H 0.71115 0.07841 0.38016 0.0
H515 H 0.9047 0.11375 0.49709 0.0
H516 H 0.74636 0.18673 0.40442 0.0
H517 H 0.8844 1.00648 0.45416 0.0
H518 H 0.84357 0.14006 0.46753 0.0
H519 H 0.77175 0.05087 0.41019 0.0
C520 C 0.73161 0.09647 0.39155 0.0
C521 C 0.72324 0.1351 0.38976 0.0
C522 C 0.85239 0.11075 0.46459 0.0
C523 C 0.79258 0.10354 0.42488 0.0
C524 C 0.88729 0.09563 0.48163 0.0
C525 C 0.89988 0.05778 0.47813 0.0
C526 C 0.82952 0.08793 0.44397 0.0
C527 C 0.87596 0.0358 0.4576 0.0
C528 C 0.76615 0.08066 0.40892 0.0
C529 C 0.75086 0.15689 0.40564 0.0
N530 N 0.84198 0.05117 0.44133 0.0
N531 N 0.78405 0.14086 0.42253 0.0
H532 H 0.34146 0.50731 0.04237 0.0
H533 H 0.11496 0.58184 0.06657 0.0
H534 H 0.30368 0.62393 0.04847 0.0
H535 H 0.1499 0.4866 0.99864 0.0
H536 H 0.18502 0.5938 0.07087 0.0
H537 H 0.27153 0.49504 0.03581 0.0
C538 C 0.31838 0.53023 0.04191 0.0
C539 C 0.328 0.56663 0.04543 0.0
C540 C 0.17717 0.57031 0.05507 0.0
C541 C 0.2487 0.55292 0.03931 0.0
C542 C 0.13739 0.56337 0.0528 0.0
C543 C 0.12677 0.53329 0.03214 0.0
C544 C 0.20641 0.54647 0.03729 0.0
C545 C 0.1569 0.51023 1.01466 0.0
C546 C 0.27871 0.52329 0.03826 0.0
C547 C 0.29726 0.59553 0.04524 0.0
N548 N 0.19547 0.51712 0.01786 0.0
N549 N 0.25884 0.58805 0.04264 0.0
H550 H 0.20858 0.41419 0.5618 0.0
H551 H 0.37305 0.53645 0.48668 0.0
H552 H 0.17935 0.52429 0.52019 0.0
H553 H 0.39757 0.45382 0.57032 0.0
H554 H 0.30287 0.52578 0.48842 0.0
H555 H 0.27923 0.42136 0.55363 0.0
C556 C 0.21707 0.43955 0.55012 0.0
C557 C 0.18824 0.46865 0.54137 0.0
C558 C 0.32366 0.51 0.50633 0.0
C559 C 0.26871 0.47715 0.53249 0.0
C560 C 0.36368 0.51598 0.50536 0.0
C561 C 0.39112 0.49607 0.52855 0.0
C562 C 0.31109 0.48347 0.53018 0.0
C563 C 0.37733 0.46994 0.5522 0.0
C564 C 0.25731 0.44376 0.54591 0.0
C565 C 0.20078 0.50124 0.52713 0.0
N566 N 0.33822 0.46424 0.55229 0.0
N567 N 0.24018 0.50463 0.52309 0.0
H568 H 0.92393 0.76025 0.83314 0.0
H569 H 0.95596 0.64859 0.02293 0.0
H570 H 0.89901 0.80894 0.93975 0.0
H571 H 0.98886 0.60092 0.91742 0.0
H572 H 0.93554 0.70759 0.9928 0.0
H573 H 0.94917 0.70219 0.86308 0.0
C574 C 0.92403 0.75896 0.86277 0.0
C575 C 0.90874 0.78974 0.88373 0.0
C576 C 0.94733 0.68426 0.97621 0.0
C577 C 0.93737 0.72285 0.91842 0.0
C578 C 0.95902 0.65046 0.99347 0.0
C579 C 0.97421 0.61946 0.97285 0.0
C580 C 0.95062 0.68736 0.93787 0.0
C581 C 0.97736 0.62388 0.93463 0.0
C582 C 0.93825 0.72564 0.87991 0.0
C583 C 0.90958 0.78595 0.92219 0.0
N584 N 0.96562 0.65695 0.91848 0.0
N585 N 0.92333 0.75333 0.93811 0.0
H586 H 0.37983 0.67288 1.01201 0.0
H587 H 0.53498 0.80001 0.07286 0.0
H588 H 0.50089 0.62725 0.03169 0.0
H589 H 0.44578 0.83774 0.99298 0.0
H590 H 0.52376 0.73625 0.05799 0.0
H591 H 0.40328 0.73292 1.00187 0.0
C592 C 0.41151 0.67501 1.01299 0.0
C593 C 0.43828 0.64498 0.02378 0.0
C594 C 0.5071 0.7586 0.04343 0.0
C595 C 0.46493 0.71424 1.01378 0.0
C596 C 0.51338 0.79501 0.05198 0.0
C597 C 0.49057 0.82445 0.03491 0.0
C598 C 0.47743 0.75168 0.01809 0.0
C599 C 0.46295 0.81609 1.00801 0.0
C600 C 0.42483 0.70955 1.00754 0.0
C601 C 0.47899 0.64993 0.02478 0.0
N602 N 0.45663 0.78053 1.00094 0.0
N603 N 0.49099 0.68421 0.0211 0.0
H604 H 0.06079 0.39097 0.6157 0.0
H605 H 0.06289 0.20315 0.50464 0.0
H606 H 0.08775 0.38285 0.50003 0.0
H607 H 0.00972 0.22007 0.61162 0.0
H608 H 0.07158 0.26888 0.50185 0.0
H609 H 0.04051 0.32907 0.61396 0.0
C610 C 0.06159 0.37657 0.58962 0.0
C611 C 0.07556 0.39254 0.55775 0.0
C612 C 0.05777 0.25831 0.52583 0.0
C613 C 0.05366 0.32054 0.55609 0.0
C614 C 0.05311 0.22079 0.52759 0.0
C615 C 0.03614 0.20619 0.5587 0.0
C616 C 0.04569 0.28134 0.55554 0.0
C617 C 0.02308 0.23028 0.58724 0.0
C618 C 0.0503 0.34093 0.5888 0.0
C619 C 0.07735 0.37163 0.52525 0.0
N620 N 0.02852 0.26668 0.58515 0.0
N621 N 0.0668 0.33654 0.52531 0.0
H622 H 0.59921 0.26702 0.33766 0.0
H623 H 0.55787 0.37766 0.52791 0.0
H624 H 0.61798 0.21738 0.44413 0.0
H625 H 0.53445 0.42666 0.42171 0.0
H626 H 0.57824 0.31835 0.4977 0.0
H627 H 0.57277 0.32493 0.36766 0.0
C628 C 0.59739 0.26808 0.36728 0.0
C629 C 0.61134 0.23715 0.38825 0.0
C630 C 0.56852 0.34205 0.48099 0.0
C631 C 0.58144 0.3038 0.423 0.0
C632 C 0.55687 0.376 0.49829 0.0
C633 C 0.54444 0.40744 0.47747 0.0
C634 C 0.56789 0.3393 0.44247 0.0
C635 C 0.54384 0.40335 0.43905 0.0
C636 C 0.58254 0.3013 0.38446 0.0
C637 C 0.60841 0.24055 0.42668 0.0
N638 N 0.55546 0.37012 0.42289 0.0
N639 N 0.59409 0.27312 0.44269 0.0
loop_
_geom_bond_atom_site_label_1
_geom_bond_atom_site_label_2
_geom_bond_distance
_geom_bond_site_symmetry_2
_ccdc_geom_bond_type
H0 C3 0.931 . S
H1 C6 0.928 . S
H2 C8 0.930 . S
C3 H0 0.931 . S
C3 C4 1.413 . S
C3 C5 1.360 . S
C4 C3 1.413 . S
C4 C8 1.429 . S
C5 C3 1.360 . S
C5 C6 1.372 . S
C6 H1 0.928 . S
C6 C5 1.372 . S
C6 C7 1.404 . S
C7 C6 1.404 . S
C7 C8 1.391 . S
C8 H2 0.930 . S
C8 C4 1.429 . S
C8 C7 1.391 . S
H9 C12 0.931 . S
H10 C15 0.928 . S
H11 C17 0.930 . S
C12 H9 0.931 . S
C12 C13 1.413 . S
C12 C14 1.360 . S
C13 C12 1.413 . S
C13 C17 1.429 . S
C14 C12 1.360 . S
C14 C15 1.372 . S
C15 H10 0.928 . S
C15 C14 1.372 . S
C15 C16 1.404 . S
C16 C15 1.404 . S
C16 C17 1.391 . S
C17 H11 0.930 . S
C17 C13 1.429 . S
C17 C16 1.391 . S
H18 C21 0.931 . S
H19 C24 0.928 . S
H20 C26 0.930 . S
C21 H18 0.931 . S
C21 C22 1.413 . S
C21 C23 1.360 . S
C22 C21 1.413 . S
C22 C26 1.429 . S
C23 C21 1.360 . S
C23 C24 1.372 . S
C24 H19 0.928 . S
C24 C23 1.372 . S
C24 C25 1.404 . S
C25 C24 1.404 . S
C25 C26 1.391 . S
C26 H20 0.930 . S
C26 C22 1.429 . S
C26 C25 1.391 . S
H27 C30 0.931 . S
H28 C33 0.928 . S
H29 C35 0.930 . S
C30 H27 0.931 . S
C30 C31 1.413 . S
C30 C32 1.360 . S
C31 C30 1.413 . S
C31 C35 1.429 . S
C32 C30 1.360 . S
C32 C33 1.372 . S
C33 H28 0.928 . S
C33 C32 1.372 . S
C33 C34 1.404 . S
C34 C33 1.404 . S
C34 C35 1.391 . S
C35 H29 0.930 . S
C35 C31 1.429 . S
C35 C34 1.391 . S
H36 C39 0.931 . S
H37 C42 0.928 . S
H38 C44 0.930 . S
C39 H36 0.931 . S
C39 C40 1.413 . S
C39 C41 1.360 . S
C40 C39 1.413 . S
C40 C44 1.429 . S
C41 C39 1.360 . S
C41 C42 1.372 . S
C42 H37 0.928 . S
C42 C41 1.372 . S
C42 C43 1.404 . S
C43 C42 1.404 . S
C43 C44 1.391 . S
C44 H38 0.930 . S
C44 C40 1.429 . S
C44 C43 1.391 . S
H45 C48 0.931 . S
H46 C51 0.928 . S
H47 C53 0.930 . S
C48 H45 0.931 . S
C48 C49 1.413 . S
C48 C50 1.360 . S
C49 C48 1.413 . S
C49 C53 1.429 . S
C50 C48 1.360 . S
C50 C51 1.372 . S
C51 H46 0.928 . S
C51 C50 1.372 . S
C51 C52 1.404 . S
C52 C51 1.404 . S
C52 C53 1.391 . S
C53 H47 0.930 . S
C53 C49 1.429 . S
C53 C52 1.391 . S
H54 C57 0.931 . S
H55 C60 0.928 . S
H56 C62 0.930 . S
C57 H54 0.931 . S
C57 C58 1.413 . S
C57 C59 1.360 . S
C58 C57 1.413 . S
C58 C62 1.429 . S
C59 C57 1.360 . S
C59 C60 1.372 . S
C60 H55 0.928 . S
C60 C59 1.372 . S
C60 C61 1.404 . S
C61 C60 1.404 . S
C61 C62 1.391 . S
C62 H56 0.930 . S
C62 C58 1.429 . S
C62 C61 1.391 . S
H63 C66 0.931 . S
H64 C69 0.928 . S
H65 C71 0.930 . S
C66 H63 0.931 . S
C66 C67 1.413 . S
C66 C68 1.360 . S
C67 C66 1.413 . S
C67 C71 1.429 . S
C68 C66 1.360 . S
C68 C69 1.372 . S
C69 H64 0.928 . S
C69 C68 1.372 . S
C69 C70 1.404 . S
C70 C69 1.404 . S
C70 C71 1.391 . S
C71 H65 0.930 . S
C71 C67 1.429 . S
C71 C70 1.391 . S
C72 O88 1.251 . S
C72 O90 1.254 1_545 S
N73 C74 1.333 . S
N73 C78 1.307 . S
N73 Zn79 2.020 . S
C74 N73 1.333 . S
C74 C75 1.379 . S
C74 H92 0.952 . S
C75 C74 1.379 . S
C75 C76 1.390 . S
C75 H102 0.949 . S
C76 C75 1.390 . S
C76 C77 1.357 . S
C77 C76 1.357 . S
C77 C78 1.370 . S
C77 H103 0.950 . S
C78 N73 1.307 . S
C78 C77 1.370 . S
C78 H96 0.948 1_455 S
Zn79 N73 2.020 . S
Zn79 O88 2.039 . S
Zn79 O94 2.034 . S
Zn79 O98 2.025 1_455 S
Zn79 O100 2.024 1_455 S
C80 O99 1.246 1_545 S
C80 O100 1.249 . S
N81 C82 1.307 . S
N81 C83 1.333 . S
N81 Zn87 2.020 . S
C82 N81 1.307 . S
C82 C86 1.370 . S
C82 H93 0.948 1_655 S
C83 N81 1.333 . S
C83 C84 1.379 . S
C83 H91 0.952 . S
C84 C83 1.379 . S
C84 C85 1.390 . S
C84 H104 0.949 . S
C85 C84 1.390 . S
C85 C86 1.357 . S
C86 C82 1.370 . S
C86 C85 1.357 . S
C86 H105 0.939 1_655 S
Zn87 N81 2.020 . S
Zn87 O90 2.025 1_655 S
Zn87 O95 2.024 1_655 S
Zn87 O97 2.039 . S
Zn87 O99 2.034 . S
O88 C72 1.251 . S
O88 Zn79 2.039 . S
C89 O94 1.246 1_565 S
C89 O95 1.249 . S
O90 C72 1.254 1_565 S
O90 Zn87 2.025 1_455 S
H91 C83 0.952 . S
H92 C74 0.952 . S
H93 C82 0.948 1_455 S
O94 Zn79 2.034 . S
O94 C89 1.246 1_545 S
O95 Zn87 2.024 1_455 S
O95 C89 1.249 . S
H96 C78 0.948 1_655 S
O97 Zn87 2.039 . S
O97 C101 1.251 . S
O98 Zn79 2.025 1_655 S
O98 C101 1.254 1_545 S
O99 C80 1.246 1_565 S
O99 Zn87 2.034 . S
O100 Zn79 2.024 1_655 S
O100 C80 1.249 . S
C101 O97 1.251 . S
C101 O98 1.254 1_565 S
H102 C75 0.949 . S
H103 C77 0.950 . S
H104 C84 0.949 . S
H105 C86 0.939 1_455 S
C106 O122 1.251 1_565 S
C106 O124 1.254 . S
N107 C108 1.333 . S
N107 C112 1.307 . S
N107 Zn113 2.020 . S
C108 N107 1.333 . S
C108 C109 1.379 . S
C108 H126 0.952 . S
C109 C108 1.379 . S
C109 C110 1.390 . S
C109 H136 0.949 . S
C110 C109 1.390 . S
C110 C111 1.357 . S
C111 C110 1.357 . S
C111 C112 1.370 . S
C111 H137 0.950 . S
C112 N107 1.307 . S
C112 C111 1.370 . S
C112 H130 0.948 . S
Zn113 N107 2.020 . S
Zn113 O122 2.039 . S
Zn113 O128 2.034 1_556 S
Zn113 O132 2.025 1_556 S
Zn113 O134 2.024 . S
C114 O133 1.246 . S
C114 O134 1.249 1_565 S
N115 C116 1.307 . S
N115 C117 1.333 . S
N115 Zn121 2.020 . S
C116 N115 1.307 . S
C116 C120 1.370 . S
C116 H127 0.948 . S
C117 N115 1.333 . S
C117 C118 1.379 . S
C117 H125 0.952 . S
C118 C117 1.379 . S
C118 C119 1.390 . S
C118 H138 0.949 . S
C119 C118 1.390 . S
C119 C120 1.357 . S
C120 C116 1.370 . S
C120 C119 1.357 . S
C120 H139 0.950 . S
Zn121 N115 2.020 . S
Zn121 O124 2.025 1_554 S
Zn121 O129 2.024 . S
Zn121 O131 2.039 . S
Zn121 O133 2.034 1_554 S
O122 C106 1.251 1_545 S
O122 Zn113 2.039 . S
C123 O128 1.246 . S
C123 O129 1.249 1_545 S
O124 C106 1.254 . S
O124 Zn121 2.025 1_556 S
H125 C117 0.952 . S
H126 C108 0.952 . S
H127 C116 0.948 . S
O128 Zn113 2.034 1_554 S
O128 C123 1.246 . S
O129 Zn121 2.024 . S
O129 C123 1.249 1_565 S
H130 C112 0.948 . S
O131 Zn121 2.039 . S
O131 C135 1.251 1_565 S
O132 Zn113 2.025 1_554 S
O132 C135 1.254 . S
O133 C114 1.246 . S
O133 Zn121 2.034 1_556 S
O134 Zn113 2.024 . S
O134 C114 1.249 1_545 S
C135 O131 1.251 1_545 S
C135 O132 1.254 . S
H136 C109 0.949 . S
H137 C111 0.950 . S
H138 C118 0.949 . S
H139 C120 0.950 . S
C140 O156 1.251 . S
C140 O158 1.254 . S
N141 C142 1.333 . S
N141 C146 1.307 . S
N141 Zn147 2.020 . S
C142 N141 1.333 . S
C142 C143 1.379 . S
C142 H160 0.952 . S
C143 C142 1.379 . S
C143 C144 1.390 . S
C143 H170 0.949 . S
C144 C143 1.390 . S
C144 C145 1.357 . S
C145 C144 1.357 . S
C145 C146 1.370 . S
C145 H171 0.950 . S
C146 N141 1.307 . S
C146 C145 1.370 . S
C146 H164 0.948 . S
Zn147 N141 2.020 . S
Zn147 O156 2.039 . S
Zn147 O162 2.034 . S
Zn147 O166 2.025 . S
Zn147 O168 2.024 . S
C148 O167 1.246 . S
C148 O168 1.249 . S
N149 C150 1.307 . S
N149 C151 1.333 . S
N149 Zn155 2.020 . S
C150 N149 1.307 . S
C150 C154 1.370 . S
C150 H161 0.948 . S
C151 N149 1.333 . S
C151 C152 1.379 . S
C151 H159 0.952 . S
C152 C151 1.379 . S
C152 C153 1.390 . S
C152 H172 0.949 . S
C153 C152 1.390 . S
C153 C154 1.357 . S
C154 C150 1.370 . S
C154 C153 1.357 . S
C154 H173 0.950 . S
Zn155 N149 2.020 . S
Zn155 O158 2.025 . S
Zn155 O163 2.024 . S
Zn155 O165 2.039 . S
Zn155 O167 2.034 . S
O156 C140 1.251 . S
O156 Zn147 2.039 . S
C157 O162 1.246 . S
C157 O163 1.249 . S
O158 C140 1.254 . S
O158 Zn155 2.025 . S
H159 C151 0.952 . S
H160 C142 0.952 . S
H161 C150 0.948 . S
O162 Zn147 2.034 . S
O162 C157 1.246 . S
O163 Zn155 2.024 . S
O163 C157 1.249 . S
H164 C146 0.948 . S
O165 Zn155 2.039 . S
O165 C169 1.251 . S
O166 Zn147 2.025 . S
O166 C169 1.254 . S
O167 C148 1.246 . S
O167 Zn155 2.034 . S
O168 Zn147 2.024 . S
O168 C148 1.249 . S
C169 O165 1.251 . S
C169 O166 1.254 . S
H170 C143 0.949 . S
H171 C145 0.950 . S
H172 C152 0.949 . S
H173 C154 0.950 . S
C174 O190 1.251 1_556 S
C174 O192 1.254 . S
N175 C176 1.333 . S
N175 C180 1.307 . S
N175 Zn181 2.020 . S
C176 N175 1.333 . S
C176 C177 1.379 . S
C176 H194 0.952 . S
C177 C176 1.379 . S
C177 C178 1.390 . S
C177 H204 0.949 . S
C178 C177 1.390 . S
C178 C179 1.357 . S
C179 C178 1.357 . S
C179 C180 1.370 . S
C179 H205 0.950 . S
C180 N175 1.307 . S
C180 C179 1.370 . S
C180 H198 0.948 . S
Zn181 N175 2.020 . S
Zn181 O190 2.039 . S
Zn181 O196 2.034 1_655 S
Zn181 O200 2.025 1_655 S
Zn181 O202 2.024 . S
C182 O201 1.246 . S
C182 O202 1.249 1_556 S
N183 C184 1.307 . S
N183 C185 1.333 . S
N183 Zn189 2.020 . S
C184 N183 1.307 . S
C184 C188 1.370 . S
C184 H195 0.948 . S
C185 N183 1.333 . S
C185 C186 1.379 . S
C185 H193 0.952 . S
C186 C185 1.379 . S
C186 C187 1.390 . S
C186 H206 0.949 . S
C187 C186 1.390 . S
C187 C188 1.357 . S
C188 C184 1.370 . S
C188 C187 1.357 . S
C188 H207 0.950 . S
Zn189 N183 2.020 . S
Zn189 O192 2.025 1_455 S
Zn189 O197 2.024 . S
Zn189 O199 2.039 . S
Zn189 O201 2.034 1_455 S
O190 C174 1.251 1_554 S
O190 Zn181 2.039 . S
C191 O196 1.246 . S
C191 O197 1.249 1_554 S
O192 C174 1.254 . S
O192 Zn189 2.025 1_655 S
H193 C185 0.952 . S
H194 C176 0.952 . S
H195 C184 0.948 . S
O196 Zn181 2.034 1_455 S
O196 C191 1.246 . S
O197 Zn189 2.024 . S
O197 C191 1.249 1_556 S
H198 C180 0.948 . S
O199 Zn189 2.039 . S
O199 C203 1.251 1_556 S
O200 Zn181 2.025 1_455 S
O200 C203 1.254 . S
O201 C182 1.246 . S
O201 Zn189 2.034 1_655 S
O202 Zn181 2.024 . S
O202 C182 1.249 1_554 S
C203 O199 1.251 1_554 S
C203 O200 1.254 . S
H204 C177 0.949 . S
H205 C179 0.950 . S
H206 C186 0.949 . S
H207 C188 0.950 . S
H208 C214 0.930 . S
H209 C218 0.930 . S
H210 C223 0.929 . S
H211 C221 0.929 1_655 S
H212 C216 0.929 . S
H213 C222 0.929 . S
C214 H208 0.930 . S
C214 C215 1.367 . S
C214 C222 1.378 . S
C215 C214 1.367 . S
C215 C223 1.433 . S
C216 H212 0.929 . S
C216 C218 1.378 . S
C216 C220 1.350 . S
C217 C220 1.463 . S
C217 C222 1.350 . S
C217 N225 1.427 . S
C218 H209 0.930 . S
C218 C216 1.378 . S
C218 C219 1.367 . S
C219 C218 1.367 . S
C219 C221 1.433 . S
C220 C216 1.350 . S
C220 C217 1.463 . S
C220 N224 1.427 . S
C221 H211 0.929 1_455 S
C221 C219 1.433 . S
C221 N224 1.384 . S
C222 H213 0.929 . S
C222 C214 1.378 . S
C222 C217 1.350 . S
C223 H210 0.929 . S
C223 C215 1.433 . S
C223 N225 1.384 . S
N224 C220 1.427 . S
N224 C221 1.384 . S
N225 C217 1.427 . S
N225 C223 1.384 . S
H226 C232 0.930 . S
H227 C236 0.930 . S
H228 C241 0.929 . S
H229 C239 0.929 . S
H230 C234 0.929 . S
H231 C240 0.929 . S
C232 H226 0.930 . S
C232 C233 1.367 . S
C232 C240 1.378 . S
C233 C232 1.367 . S
C233 C241 1.433 . S
C234 H230 0.929 . S
C234 C236 1.378 . S
C234 C238 1.350 . S
C235 C238 1.463 . S
C235 C240 1.350 . S
C235 N243 1.427 . S
C236 H227 0.930 . S
C236 C234 1.378 . S
C236 C237 1.367 . S
C237 C236 1.367 . S
C237 C239 1.433 . S
C238 C234 1.350 . S
C238 C235 1.463 . S
C238 N242 1.427 . S
C239 H229 0.929 . S
C239 C237 1.433 . S
C239 N242 1.384 . S
C240 H231 0.929 . S
C240 C232 1.378 . S
C240 C235 1.350 . S
C241 H228 0.929 . S
C241 C233 1.433 . S
C241 N243 1.384 . S
N242 C238 1.427 . S
N242 C239 1.384 . S
N243 C235 1.427 . S
N243 C241 1.384 . S
H244 C250 0.930 . S
H245 C254 0.930 . S
H246 C259 0.929 . S
H247 C257 0.929 . S
H248 C252 0.929 . S
H249 C258 0.929 . S
C250 H244 0.930 . S
C250 C251 1.367 . S
C250 C258 1.378 . S
C251 C250 1.367 . S
C251 C259 1.433 . S
C252 H248 0.929 . S
C252 C254 1.378 . S
C252 C256 1.350 . S
C253 C256 1.463 . S
C253 C258 1.350 . S
C253 N261 1.427 . S
C254 H245 0.930 . S
C254 C252 1.378 . S
C254 C255 1.367 . S
C255 C254 1.367 . S
C255 C257 1.433 . S
C256 C252 1.350 . S
C256 C253 1.463 . S
C256 N260 1.427 . S
C257 H247 0.929 . S
C257 C255 1.433 . S
C257 N260 1.384 . S
C258 H249 0.929 . S
C258 C250 1.378 . S
C258 C253 1.350 . S
C259 H246 0.929 . S
C259 C251 1.433 . S
C259 N261 1.384 . S
N260 C256 1.427 . S
N260 C257 1.384 . S
N261 C253 1.427 . S
N261 C259 1.384 . S
H262 C268 0.930 . S
H263 C272 0.930 . S
H264 C277 0.929 . S
H265 C275 0.929 . S
H266 C270 0.929 . S
H267 C276 0.929 . S
C268 H262 0.930 . S
C268 C269 1.367 . S
C268 C276 1.378 . S
C269 C268 1.367 . S
C269 C277 1.433 . S
C270 H266 0.929 . S
C270 C272 1.378 . S
C270 C274 1.350 . S
C271 C274 1.463 . S
C271 C276 1.350 . S
C271 N279 1.427 . S
C272 H263 0.930 . S
C272 C270 1.378 . S
C272 C273 1.367 . S
C273 C272 1.367 . S
C273 C275 1.433 . S
C274 C270 1.350 . S
C274 C271 1.463 . S
C274 N278 1.427 . S
C275 H265 0.929 . S
C275 C273 1.433 . S
C275 N278 1.384 . S
C276 H267 0.929 . S
C276 C268 1.378 . S
C276 C271 1.350 . S
C277 H264 0.929 . S
C277 C269 1.433 . S
C277 N279 1.384 . S
N278 C274 1.427 . S
N278 C275 1.384 . S
N279 C271 1.427 . S
N279 C277 1.384 . S
H280 C286 0.930 . S
H281 C290 0.930 . S
H282 C295 0.929 . S
H283 C293 0.929 1_565 S
H284 C288 0.929 . S
H285 C294 0.929 . S
C286 H280 0.930 . S
C286 C287 1.367 . S
C286 C294 1.378 . S
C287 C286 1.367 . S
C287 C295 1.433 . S
C288 H284 0.929 . S
C288 C290 1.378 . S
C288 C292 1.350 . S
C289 C292 1.463 . S
C289 C294 1.350 . S
C289 N297 1.427 . S
C290 H281 0.930 . S
C290 C288 1.378 . S
C290 C291 1.367 . S
C291 C290 1.367 . S
C291 C293 1.433 . S
C292 C288 1.350 . S
C292 C289 1.463 . S
C292 N296 1.427 . S
C293 H283 0.929 1_545 S
C293 C291 1.433 . S
C293 N296 1.384 . S
C294 H285 0.929 . S
C294 C286 1.378 . S
C294 C289 1.350 . S
C295 H282 0.929 . S
C295 C287 1.433 . S
C295 N297 1.384 . S
N296 C292 1.427 . S
N296 C293 1.384 . S
N297 C289 1.427 . S
N297 C295 1.384 . S
H298 C304 0.930 . S
H299 C308 0.930 . S
H300 C313 0.929 . S
H301 C311 0.929 . S
H302 C306 0.929 . S
H303 C312 0.929 . S
C304 H298 0.930 . S
C304 C305 1.367 . S
C304 C312 1.378 . S
C305 C304 1.367 . S
C305 C313 1.433 . S
C306 H302 0.929 . S
C306 C308 1.378 . S
C306 C310 1.350 . S
C307 C310 1.463 . S
C307 C312 1.350 . S
C307 N315 1.427 . S
C308 H299 0.930 . S
C308 C306 1.378 . S
C308 C309 1.367 . S
C309 C308 1.367 . S
C309 C311 1.433 . S
C310 C306 1.350 . S
C310 C307 1.463 . S
C310 N314 1.427 . S
C311 H301 0.929 . S
C311 C309 1.433 . S
C311 N314 1.384 . S
C312 H303 0.929 . S
C312 C304 1.378 . S
C312 C307 1.350 . S
C313 H300 0.929 . S
C313 C305 1.433 . S
C313 N315 1.384 . S
N314 C310 1.427 . S
N314 C311 1.384 . S
N315 C307 1.427 . S
N315 C313 1.384 . S
H316 C322 0.930 . S
H317 C326 0.930 1_554 S
H318 C331 0.929 . S
H319 C329 0.929 . S
H320 C324 0.929 . S
H321 C330 0.929 . S
C322 H316 0.930 . S
C322 C323 1.367 . S
C322 C330 1.378 . S
C323 C322 1.367 . S
C323 C331 1.433 . S
C324 H320 0.929 . S
C324 C326 1.378 . S
C324 C328 1.350 . S
C325 C328 1.463 . S
C325 C330 1.350 . S
C325 N333 1.427 . S
C326 H317 0.930 1_556 S
C326 C324 1.378 . S
C326 C327 1.367 . S
C327 C326 1.367 . S
C327 C329 1.433 . S
C328 C324 1.350 . S
C328 C325 1.463 . S
C328 N332 1.427 . S
C329 H319 0.929 . S
C329 C327 1.433 . S
C329 N332 1.384 . S
C330 H321 0.929 . S
C330 C322 1.378 . S
C330 C325 1.350 . S
C331 H318 0.929 . S
C331 C323 1.433 . S
C331 N333 1.384 . S
N332 C328 1.427 . S
N332 C329 1.384 . S
N333 C325 1.427 . S
N333 C331 1.384 . S
H334 C340 0.930 . S
H335 C344 0.930 . S
H336 C349 0.929 . S
H337 C347 0.929 . S
H338 C342 0.929 . S
H339 C348 0.929 . S
C340 H334 0.930 . S
C340 C341 1.367 . S
C340 C348 1.378 . S
C341 C340 1.367 . S
C341 C349 1.433 . S
C342 H338 0.929 . S
C342 C344 1.378 . S
C342 C346 1.350 . S
C343 C346 1.463 . S
C343 C348 1.350 . S
C343 N351 1.427 . S
C344 H335 0.930 . S
C344 C342 1.378 . S
C344 C345 1.367 . S
C345 C344 1.367 . S
C345 C347 1.433 . S
C346 C342 1.350 . S
C346 C343 1.463 . S
C346 N350 1.427 . S
C347 H337 0.929 . S
C347 C345 1.433 . S
C347 N350 1.384 . S
C348 H339 0.929 . S
C348 C340 1.378 . S
C348 C343 1.350 . S
C349 H336 0.929 . S
C349 C341 1.433 . S
C349 N351 1.384 . S
N350 C346 1.427 . S
N350 C347 1.384 . S
N351 C343 1.427 . S
N351 C349 1.384 . S
H352 C358 0.930 . S
H353 C362 0.930 1_556 S
H354 C367 0.929 . S
H355 C365 0.929 . S
H356 C360 0.929 . S
H357 C366 0.929 . S
C358 H352 0.930 . S
C358 C359 1.367 . S
C358 C366 1.378 . S
C359 C358 1.367 . S
C359 C367 1.433 . S
C360 H356 0.929 . S
C360 C362 1.378 . S
C360 C364 1.350 . S
C361 C364 1.463 . S
C361 C366 1.350 . S
C361 N369 1.427 . S
C362 H353 0.930 1_554 S
C362 C360 1.378 . S
C362 C363 1.367 . S
C363 C362 1.367 . S
C363 C365 1.433 . S
C364 C360 1.350 . S
C364 C361 1.463 . S
C364 N368 1.427 . S
C365 H355 0.929 . S
C365 C363 1.433 . S
C365 N368 1.384 . S
C366 H357 0.929 . S
C366 C358 1.378 . S
C366 C361 1.350 . S
C367 H354 0.929 . S
C367 C359 1.433 . S
C367 N369 1.384 . S
N368 C364 1.427 . S
N368 C365 1.384 . S
N369 C361 1.427 . S
N369 C367 1.384 . S
H370 C376 0.930 . S
H371 C380 0.930 . S
H372 C385 0.929 . S
H373 C383 0.908 1_554 S
H374 C378 0.929 . S
H375 C384 0.929 . S
C376 H370 0.930 . S
C376 C377 1.367 . S
C376 C384 1.378 . S
C377 C376 1.367 . S
C377 C385 1.433 . S
C378 H374 0.929 . S
C378 C380 1.378 . S
C378 C382 1.350 . S
C379 C382 1.463 . S
C379 C384 1.350 . S
C379 N387 1.427 . S
C380 H371 0.930 . S
C380 C378 1.378 . S
C380 C381 1.367 . S
C381 C380 1.367 . S
C381 C383 1.433 . S
C382 C378 1.350 . S
C382 C379 1.463 . S
C382 N386 1.427 . S
C383 H373 0.908 1_556 S
C383 C381 1.433 . S
C383 N386 1.384 . S
C384 H375 0.929 . S
C384 C376 1.378 . S
C384 C379 1.350 . S
C385 H372 0.929 . S
C385 C377 1.433 . S
C385 N387 1.384 . S
N386 C382 1.427 . S
N386 C383 1.384 . S
N387 C379 1.427 . S
N387 C385 1.384 . S
H388 C394 0.930 . S
H389 C398 0.930 . S
H390 C403 0.929 . S
H391 C401 0.929 . S
H392 C396 0.929 . S
H393 C402 0.929 . S
C394 H388 0.930 . S
C394 C395 1.367 . S
C394 C402 1.378 . S
C395 C394 1.367 . S
C395 C403 1.433 . S
C396 H392 0.929 . S
C396 C398 1.378 . S
C396 C400 1.350 . S
C397 C400 1.463 . S
C397 C402 1.350 . S
C397 N405 1.427 . S
C398 H389 0.930 . S
C398 C396 1.378 . S
C398 C399 1.367 . S
C399 C398 1.367 . S
C399 C401 1.433 . S
C400 C396 1.350 . S
C400 C397 1.463 . S
C400 N404 1.427 . S
C401 H391 0.929 . S
C401 C399 1.433 . S
C401 N404 1.384 . S
C402 H393 0.929 . S
C402 C394 1.378 . S
C402 C397 1.350 . S
C403 H390 0.929 . S
C403 C395 1.433 . S
C403 N405 1.384 . S
N404 C400 1.427 . S
N404 C401 1.384 . S
N405 C397 1.427 . S
N405 C403 1.384 . S
H406 C412 0.930 . S
H407 C416 0.930 . S
H408 C421 0.929 . S
H409 C419 0.929 . S
H410 C414 0.929 . S
H411 C420 0.929 . S
C412 H406 0.930 . S
C412 C413 1.367 . S
C412 C420 1.378 . S
C413 C412 1.367 . S
C413 C421 1.433 . S
C414 H410 0.929 . S
C414 C416 1.378 . S
C414 C418 1.350 . S
C415 C418 1.463 . S
C415 C420 1.350 . S
C415 N423 1.427 . S
C416 H407 0.930 . S
C416 C414 1.378 . S
C416 C417 1.367 . S
C417 C416 1.367 . S
C417 C419 1.433 . S
C418 C414 1.350 . S
C418 C415 1.463 . S
C418 N422 1.427 . S
C419 H409 0.929 . S
C419 C417 1.433 . S
C419 N422 1.384 . S
C420 H411 0.929 . S
C420 C412 1.378 . S
C420 C415 1.350 . S
C421 H408 0.929 . S
C421 C413 1.433 . S
C421 N423 1.384 . S
N422 C418 1.427 . S
N422 C419 1.384 . S
N423 C415 1.427 . S
N423 C421 1.384 . S
H424 C430 0.930 . S
H425 C434 0.930 . S
H426 C439 0.929 . S
H427 C437 0.929 1_455 S
H428 C432 0.929 . S
H429 C438 0.929 . S
C430 H424 0.930 . S
C430 C431 1.367 . S
C430 C438 1.378 . S
C431 C430 1.367 . S
C431 C439 1.433 . S
C432 H428 0.929 . S
C432 C434 1.378 . S
C432 C436 1.350 . S
C433 C436 1.463 . S
C433 C438 1.350 . S
C433 N441 1.427 . S
C434 H425 0.930 . S
C434 C432 1.378 . S
C434 C435 1.367 . S
C435 C434 1.367 . S
C435 C437 1.433 . S
C436 C432 1.350 . S
C436 C433 1.463 . S
C436 N440 1.427 . S
C437 H427 0.929 1_655 S
C437 C435 1.433 . S
C437 N440 1.384 . S
C438 H429 0.929 . S
C438 C430 1.378 . S
C438 C433 1.350 . S
C439 H426 0.929 . S
C439 C431 1.433 . S
C439 N441 1.384 . S
N440 C436 1.427 . S
N440 C437 1.384 . S
N441 C433 1.427 . S
N441 C439 1.384 . S
H442 C448 0.930 . S
H443 C452 0.930 . S
H444 C457 0.929 . S
H445 C455 0.929 . S
H446 C450 0.929 . S
H447 C456 0.929 . S
C448 H442 0.930 . S
C448 C449 1.367 . S
C448 C456 1.378 . S
C449 C448 1.367 . S
C449 C457 1.433 . S
C450 H446 0.929 . S
C450 C452 1.378 . S
C450 C454 1.350 . S
C451 C454 1.463 . S
C451 C456 1.350 . S
C451 N459 1.427 . S
C452 H443 0.930 . S
C452 C450 1.378 . S
C452 C453 1.367 . S
C453 C452 1.367 . S
C453 C455 1.433 . S
C454 C450 1.350 . S
C454 C451 1.463 . S
C454 N458 1.427 . S
C455 H445 0.929 . S
C455 C453 1.433 . S
C455 N458 1.384 . S
C456 H447 0.929 . S
C456 C448 1.378 . S
C456 C451 1.350 . S
C457 H444 0.929 . S
C457 C449 1.433 . S
C457 N459 1.384 . S
N458 C454 1.427 . S
N458 C455 1.384 . S
N459 C451 1.427 . S
N459 C457 1.384 . S
H460 C466 0.930 . S
H461 C470 0.930 . S
H462 C475 0.929 . S
H463 C473 0.929 . S
H464 C468 0.929 . S
H465 C474 0.929 . S
C466 H460 0.930 . S
C466 C467 1.367 . S
C466 C474 1.378 . S
C467 C466 1.367 . S
C467 C475 1.433 . S
C468 H464 0.929 . S
C468 C470 1.378 . S
C468 C472 1.350 . S
C469 C472 1.463 . S
C469 C474 1.350 . S
C469 N477 1.427 . S
C470 H461 0.930 . S
C470 C468 1.378 . S
C470 C471 1.367 . S
C471 C470 1.367 . S
C471 C473 1.433 . S
C472 C468 1.350 . S
C472 C469 1.463 . S
C472 N476 1.427 . S
C473 H463 0.929 . S
C473 C471 1.433 . S
C473 N476 1.384 . S
C474 H465 0.929 . S
C474 C466 1.378 . S
C474 C469 1.350 . S
C475 H462 0.929 . S
C475 C467 1.433 . S
C475 N477 1.384 . S
N476 C472 1.427 . S
N476 C473 1.384 . S
N477 C469 1.427 . S
N477 C475 1.384 . S
H478 C484 0.930 . S
H479 C488 0.930 . S
H480 C493 0.929 . S
H481 C491 0.929 . S
H482 C486 0.929 . S
H483 C492 0.929 . S
C484 H478 0.930 . S
C484 C485 1.367 . S
C484 C492 1.378 . S
C485 C484 1.367 . S
C485 C493 1.433 . S
C486 H482 0.929 . S
C486 C488 1.378 . S
C486 C490 1.350 . S
C487 C490 1.463 . S
C487 C492 1.350 . S
C487 N495 1.427 . S
C488 H479 0.930 . S
C488 C486 1.378 . S
C488 C489 1.367 . S
C489 C488 1.367 . S
C489 C491 1.433 . S
C490 C486 1.350 . S
C490 C487 1.463 . S
C490 N494 1.427 . S
C491 H481 0.929 . S
C491 C489 1.433 . S
C491 N494 1.384 . S
C492 H483 0.929 . S
C492 C484 1.378 . S
C492 C487 1.350 . S
C493 H480 0.929 . S
C493 C485 1.433 . S
C493 N495 1.384 . S
N494 C490 1.427 . S
N494 C491 1.384 . S
N495 C487 1.427 . S
N495 C493 1.384 . S
H496 C502 0.930 . S
H497 C506 0.930 1_554 S
H498 C511 0.929 . S
H499 C509 0.929 1_545 S
H500 C504 0.929 . S
H501 C510 0.929 . S
C502 H496 0.930 . S
C502 C503 1.367 . S
C502 C510 1.378 . S
C503 C502 1.367 . S
C503 C511 1.433 . S
C504 H500 0.929 . S
C504 C506 1.378 . S
C504 C508 1.350 . S
C505 C508 1.463 . S
C505 C510 1.350 . S
C505 N513 1.427 . S
C506 H497 0.930 1_556 S
C506 C504 1.378 . S
C506 C507 1.367 . S
C507 C506 1.367 . S
C507 C509 1.433 . S
C508 C504 1.350 . S
C508 C505 1.463 . S
C508 N512 1.427 . S
C509 H499 0.929 1_565 S
C509 C507 1.433 . S
C509 N512 1.384 . S
C510 H501 0.929 . S
C510 C502 1.378 . S
C510 C505 1.350 . S
C511 H498 0.929 . S
C511 C503 1.433 . S
C511 N513 1.384 . S
N512 C508 1.427 . S
N512 C509 1.384 . S
N513 C505 1.427 . S
N513 C511 1.384 . S
H514 C520 0.930 . S
H515 C524 0.930 . S
H516 C529 0.929 . S
H517 C527 0.902 1_565 S
H518 C522 0.929 . S
H519 C528 0.929 . S
C520 H514 0.930 . S
C520 C521 1.367 . S
C520 C528 1.378 . S
C521 C520 1.367 . S
C521 C529 1.433 . S
C522 H518 0.929 . S
C522 C524 1.378 . S
C522 C526 1.350 . S
C523 C526 1.463 . S
C523 C528 1.350 . S
C523 N531 1.427 . S
C524 H515 0.930 . S
C524 C522 1.378 . S
C524 C525 1.367 . S
C525 C524 1.367 . S
C525 C527 1.433 . S
C526 C522 1.350 . S
C526 C523 1.463 . S
C526 N530 1.427 . S
C527 H517 0.902 1_545 S
C527 C525 1.433 . S
C527 N530 1.384 . S
C528 H519 0.929 . S
C528 C520 1.378 . S
C528 C523 1.350 . S
C529 H516 0.929 . S
C529 C521 1.433 . S
C529 N531 1.384 . S
N530 C526 1.427 . S
N530 C527 1.384 . S
N531 C523 1.427 . S
N531 C529 1.384 . S
H532 C538 0.930 . S
H533 C542 0.930 . S
H534 C547 0.929 . S
H535 C545 0.929 . S
H536 C540 0.929 . S
H537 C546 0.929 . S
C538 H532 0.930 . S
C538 C539 1.367 . S
C538 C546 1.378 . S
C539 C538 1.367 . S
C539 C547 1.433 . S
C540 H536 0.929 . S
C540 C542 1.378 . S
C540 C544 1.350 . S
C541 C544 1.463 . S
C541 C546 1.350 . S
C541 N549 1.427 . S
C542 H533 0.930 . S
C542 C540 1.378 . S
C542 C543 1.367 . S
C543 C542 1.367 . S
C543 C545 1.433 . S
C544 C540 1.350 . S
C544 C541 1.463 . S
C544 N548 1.427 . S
C545 H535 0.929 . S
C545 C543 1.433 . S
C545 N548 1.384 . S
C546 H537 0.929 . S
C546 C538 1.378 . S
C546 C541 1.350 . S
C547 H534 0.929 . S
C547 C539 1.433 . S
C547 N549 1.384 . S
N548 C544 1.427 . S
N548 C545 1.384 . S
N549 C541 1.427 . S
N549 C547 1.384 . S
H550 C556 0.930 . S
H551 C560 0.930 . S
H552 C565 0.929 . S
H553 C563 0.929 . S
H554 C558 0.929 . S
H555 C564 0.929 . S
C556 H550 0.930 . S
C556 C557 1.367 . S
C556 C564 1.378 . S
C557 C556 1.367 . S
C557 C565 1.433 . S
C558 H554 0.929 . S
C558 C560 1.378 . S
C558 C562 1.350 . S
C559 C562 1.463 . S
C559 C564 1.350 . S
C559 N567 1.427 . S
C560 H551 0.930 . S
C560 C558 1.378 . S
C560 C561 1.367 . S
C561 C560 1.367 . S
C561 C563 1.433 . S
C562 C558 1.350 . S
C562 C559 1.463 . S
C562 N566 1.427 . S
C563 H553 0.929 . S
C563 C561 1.433 . S
C563 N566 1.384 . S
C564 H555 0.929 . S
C564 C556 1.378 . S
C564 C559 1.350 . S
C565 H552 0.929 . S
C565 C557 1.433 . S
C565 N567 1.384 . S
N566 C562 1.427 . S
N566 C563 1.384 . S
N567 C559 1.427 . S
N567 C565 1.384 . S
H568 C574 0.930 . S
H569 C578 0.930 1_554 S
H570 C583 0.929 . S
H571 C581 0.929 . S
H572 C576 0.929 . S
H573 C582 0.929 . S
C574 H568 0.930 . S
C574 C575 1.367 . S
C574 C582 1.378 . S
C575 C574 1.367 . S
C575 C583 1.433 . S
C576 H572 0.929 . S
C576 C578 1.378 . S
C576 C580 1.350 . S
C577 C580 1.463 . S
C577 C582 1.350 . S
C577 N585 1.427 . S
C578 H569 0.930 1_556 S
C578 C576 1.378 . S
C578 C579 1.367 . S
C579 C578 1.367 . S
C579 C581 1.433 . S
C580 C576 1.350 . S
C580 C577 1.463 . S
C580 N584 1.427 . S
C581 H571 0.929 . S
C581 C579 1.433 . S
C581 N584 1.384 . S
C582 H573 0.929 . S
C582 C574 1.378 . S
C582 C577 1.350 . S
C583 H570 0.929 . S
C583 C575 1.433 . S
C583 N585 1.384 . S
N584 C580 1.427 . S
N584 C581 1.384 . S
N585 C577 1.427 . S
N585 C583 1.384 . S
H586 C592 0.930 . S
H587 C596 0.930 . S
H588 C601 0.929 . S
H589 C599 0.929 . S
H590 C594 0.929 . S
H591 C600 0.929 . S
C592 H586 0.930 . S
C592 C593 1.367 . S
C592 C600 1.378 . S
C593 C592 1.367 . S
C593 C601 1.433 . S
C594 H590 0.929 . S
C594 C596 1.378 . S
C594 C598 1.350 . S
C595 C598 1.463 . S
C595 C600 1.350 . S
C595 N603 1.427 . S
C596 H587 0.930 . S
C596 C594 1.378 . S
C596 C597 1.367 . S
C597 C596 1.367 . S
C597 C599 1.433 . S
C598 C594 1.350 . S
C598 C595 1.463 . S
C598 N602 1.427 . S
C599 H589 0.929 . S
C599 C597 1.433 . S
C599 N602 1.384 . S
C600 H591 0.929 . S
C600 C592 1.378 . S
C600 C595 1.350 . S
C601 H588 0.929 . S
C601 C593 1.433 . S
C601 N603 1.384 . S
N602 C598 1.427 . S
N602 C599 1.384 . S
N603 C595 1.427 . S
N603 C601 1.384 . S
H604 C610 0.930 . S
H605 C614 0.930 . S
H606 C619 0.929 . S
H607 C617 0.929 . S
H608 C612 0.929 . S
H609 C618 0.929 . S
C610 H604 0.930 . S
C610 C611 1.367 . S
C610 C618 1.378 . S
C611 C610 1.367 . S
C611 C619 1.433 . S
C612 H608 0.929 . S
C612 C614 1.378 . S
C612 C616 1.350 . S
C613 C616 1.463 . S
C613 C618 1.350 . S
C613 N621 1.427 . S
C614 H605 0.930 . S
C614 C612 1.378 . S
C614 C615 1.367 . S
C615 C614 1.367 . S
C615 C617 1.433 . S
C616 C612 1.350 . S
C616 C613 1.463 . S
C616 N620 1.427 . S
C617 H607 0.929 . S
C617 C615 1.433 . S
C617 N620 1.384 . S
C618 H609 0.929 . S
C618 C610 1.378 . S
C618 C613 1.350 . S
C619 H606 0.929 . S
C619 C611 1.433 . S
C619 N621 1.384 . S
N620 C616 1.427 . S
N620 C617 1.384 . S
N621 C613 1.427 . S
N621 C619 1.384 . S
H622 C628 0.930 . S
H623 C632 0.930 . S
H624 C637 0.929 . S
H625 C635 0.929 . S
H626 C630 0.929 . S
H627 C636 0.929 . S
C628 H622 0.930 . S
C628 C629 1.367 . S
C628 C636 1.378 . S
C629 C628 1.367 . S
C629 C637 1.433 . S
C630 H626 0.929 . S
C630 C632 1.378 . S
C630 C634 1.350 . S
C631 C634 1.463 . S
C631 C636 1.350 . S
C631 N639 1.427 . S
C632 H623 0.930 . S
C632 C630 1.378 . S
C632 C633 1.367 . S
C633 C632 1.367 . S
C633 C635 1.433 . S
C634 C630 1.350 . S
C634 C631 1.463 . S
C634 N638 1.427 . S
C635 H625 0.929 . S
C635 C633 1.433 . S
C635 N638 1.384 . S
C636 H627 0.929 . S
C636 C628 1.378 . S
C636 C631 1.350 . S
C637 H624 0.929 . S
C637 C629 1.433 . S
C637 N639 1.384 . S
N638 C634 1.427 . S
N638 C635 1.384 . S
N639 C631 1.427 . S
N639 C637 1.384 . S
C215 C5 2.293 . S
C219 C72 2.302 . S
C233 C14 2.252 . S
C237 C114 2.259 . S
C255 C144 0.934 . S
C251 C25 0.932 . S
C269 C34 0.970 . S
C273 C178 0.975 . S
C291 C135 1.803 . S
C287 C7 1.792 . S
C309 C89 1.820 . S
C305 C13 1.813 . S
C327 C182 1.266 . S
C323 C23 1.260 . S
C345 C148 1.306 . S
C341 C31 1.287 . S
C359 C4 2.164 . S
C363 C203 2.176 . S
C381 C110 1.086 . S
C377 C22 1.082 . S
C395 C32 1.077 . S
C399 C85 1.085 . S
C413 C16 2.134 . S
C417 C169 2.142 . S
C435 C101 2.289 . S
C431 C41 2.280 . S
C449 C50 2.257 . S
C453 C123 2.266 . S
C467 C61 0.923 . S
C471 C153 0.928 . S
C485 C67 0.989 . S
C489 C187 0.992 . S
C503 C40 1.806 . S
C507 C106 1.818 . S
C525 C80 1.803 . S
C521 C52 1.797 . S
C543 C191 1.275 . S
C539 C59 1.266 . S
C561 C157 1.304 . S
C557 C70 1.284 . S
C575 C43 2.164 . S
C579 C174 2.175 . S
C597 C119 1.089 . S
C593 C58 1.082 . S
C615 C76 1.078 . S
C611 C68 1.061 . S
C629 C49 2.141 . S
C633 C140 2.151 . S
