# Generated by pormake.
# Topology zzz, (3,6)-cn, num edge types: 1
# Building blocks:
#     Node 0, Type 0, BuildingBlock: KAKCAD_clean_linker_0, # of connection points: 3
#     Node 1, Type 0, BuildingBlock: KAKCAD_clean_linker_0, # of connection points: 3
#     Node 2, Type 0, BuildingBlock: KAKCAD_clean_linker_0, # of connection points: 3
#     Node 3, Type 0, BuildingBlock: KAKCAD_clean_linker_0, # of connection points: 3
#     Node 4, Type 0, BuildingBlock: KAKCAD_clean_linker_0, # of connection points: 3
#     Node 5, Type 0, BuildingBlock: KAKCAD_clean_linker_0, # of connection points: 3
#     Node 6, Type 0, BuildingBlock: KAKCAD_clean_linker_0, # of connection points: 3
#     Node 7, Type 0, BuildingBlock: KAKCAD_clean_linker_0, # of connection points: 3
#     Node 8, Type 1, BuildingBlock: JUFBIX_clean_sbu_0, # of connection points: 6
#     Node 9, Type 1, BuildingBlock: JUFBIX_clean_sbu_0, # of connection points: 6
#     Node 10, Type 1, BuildingBlock: JUFBIX_clean_sbu_0, # of connection points: 6
#     Node 11, Type 1, BuildingBlock: JUFBIX_clean_sbu_0, # of connection points: 6
#     Edge 12, Type (0, 1), BuildingBlock: CIFDUS_clean_linker_0, # of connection points: 2
#     Edge 13, Type (0, 1), BuildingBlock: CIFDUS_clean_linker_0, # of connection points: 2
#     Edge 14, Type (0, 1), BuildingBlock: CIFDUS_clean_linker_0, # of connection points: 2
#     Edge 15, Type (0, 1), BuildingBlock: CIFDUS_clean_linker_0, # of connection points: 2
#     Edge 16, Type (0, 1), BuildingBlock: CIFDUS_clean_linker_0, # of connection points: 2
#     Edge 17, Type (0, 1), BuildingBlock: CIFDUS_clean_linker_0, # of connection points: 2
#     Edge 18, Type (0, 1), BuildingBlock: CIFDUS_clean_linker_0, # of connection points: 2
#     Edge 19, Type (0, 1), BuildingBlock: CIFDUS_clean_linker_0, # of connection points: 2
#     Edge 20, Type (0, 1), BuildingBlock: CIFDUS_clean_linker_0, # of connection points: 2
#     Edge 21, Type (0, 1), BuildingBlock: CIFDUS_clean_linker_0, # of connection points: 2
#     Edge 22, Type (0, 1), BuildingBlock: CIFDUS_clean_linker_0, # of connection points: 2
#     Edge 23, Type (0, 1), BuildingBlock: CIFDUS_clean_linker_0, # of connection points: 2
#     Edge 24, Type (0, 1), BuildingBlock: CIFDUS_clean_linker_0, # of connection points: 2
#     Edge 25, Type (0, 1), BuildingBlock: CIFDUS_clean_linker_0, # of connection points: 2
#     Edge 26, Type (0, 1), BuildingBlock: CIFDUS_clean_linker_0, # of connection points: 2
#     Edge 27, Type (0, 1), BuildingBlock: CIFDUS_clean_linker_0, # of connection points: 2
#     Edge 28, Type (0, 1), BuildingBlock: CIFDUS_clean_linker_0, # of connection points: 2
#     Edge 29, Type (0, 1), BuildingBlock: CIFDUS_clean_linker_0, # of connection points: 2
#     Edge 30, Type (0, 1), BuildingBlock: CIFDUS_clean_linker_0, # of connection points: 2
#     Edge 31, Type (0, 1), BuildingBlock: CIFDUS_clean_linker_0, # of connection points: 2
#     Edge 32, Type (0, 1), BuildingBlock: CIFDUS_clean_linker_0, # of connection points: 2
#     Edge 33, Type (0, 1), BuildingBlock: CIFDUS_clean_linker_0, # of connection points: 2
#     Edge 34, Type (0, 1), BuildingBlock: CIFDUS_clean_linker_0, # of connection points: 2
#     Edge 35, Type (0, 1), BuildingBlock: CIFDUS_clean_linker_0, # of connection points: 2
# Relax obj value: 0.284
# Max RMSD: 0.226
# Mean RMSD: 0.187
data_MOF--net-zzz--node1-JUFBIX_clean_sbu_0--node2-KAKCAD_clean_linker_0--edge1-CIFDUS_clean_linker_0
_symmetry_space_group_name_H-M    P1
_symmetry_Int_Tables_number       1
_symmetry_cell_setting            triclinic
loop_
_symmetry_equiv_pos_as_xyz
'x, y, z'
_cell_length_a     52.293089
_cell_length_b     53.780246
_cell_length_c     20.675573
_cell_angle_alpha  82.054873
_cell_angle_beta   90.523477
_cell_angle_gamma 86.401057
loop_
_atom_site_label
_atom_site_type_symbol
_atom_site_fract_x
_atom_site_fract_y
_atom_site_fract_z
_atom_type_partial_charge
C0 C 0.84252 0.52562 0.11478 0.0
C1 C 0.86221 0.50659 0.12935 0.0
C2 C 0.82056 0.52572 0.15254 0.0
C3 C 0.81804 0.50691 0.20589 0.0
C4 C 0.83737 0.48744 0.21924 0.0
C5 C 0.85923 0.48719 0.18099 0.0
C6 C 0.79625 0.50867 0.25034 0.0
C7 C 0.77112 0.51356 0.22604 0.0
C8 C 0.75056 0.51588 0.26854 0.0
C9 C 0.75538 0.51375 0.33644 0.0
C10 C 0.78073 0.50916 0.36083 0.0
C11 C 0.80084 0.50645 0.31756 0.0
C12 C 0.78779 0.50794 0.43058 0.0
C13 C 0.78981 0.53029 0.45759 0.0
C14 C 0.79984 0.48555 0.46277 0.0
C15 C 0.81569 0.48586 0.51729 0.0
C16 C 0.81984 0.50862 0.54104 0.0
C17 C 0.72436 0.51974 0.23973 0.0
C18 C 0.71837 0.5404 0.19153 0.0
C19 C 0.70725 0.50059 0.25039 0.0
C20 C 0.68542 0.50119 0.21015 0.0
C21 C 0.68032 0.52104 0.15872 0.0
C22 C 0.6965 0.54115 0.15183 0.0
C23 C 0.80564 0.53063 0.51257 0.0
H24 H 0.84428 0.54061 0.07461 0.0
H25 H 0.806 0.541 0.14152 0.0
H26 H 0.83574 0.47264 0.25994 0.0
H27 H 0.87416 0.47234 0.19312 0.0
H28 H 0.76748 0.51505 0.17387 0.0
H29 H 0.8204 0.50337 0.3364 0.0
H30 H 0.7397 0.51573 0.36963 0.0
H31 H 0.78103 0.54787 0.43285 0.0
H32 H 0.79895 0.46819 0.44197 0.0
H33 H 0.82637 0.46854 0.537 0.0
H34 H 0.73137 0.55536 0.18235 0.0
H35 H 0.71171 0.48429 0.28664 0.0
H36 H 0.8079 0.5484 0.53028 0.0
H37 H 0.69285 0.55704 0.11393 0.0
H38 H 0.6735 0.48532 0.21678 0.0
C39 C 0.05242 0.83092 0.02017 0.0
C40 C 0.06907 0.84919 0.03353 0.0
C41 C 0.04667 0.81152 0.06862 0.0
C42 C 0.05738 0.80989 0.13172 0.0
C43 C 0.07544 0.82704 0.14396 0.0
C44 C 0.08129 0.84648 0.09523 0.0
C45 C 0.04711 0.79242 0.18569 0.0
C46 C 0.04114 0.76824 0.17575 0.0
C47 C 0.02682 0.75332 0.22131 0.0
C48 C 0.01871 0.76278 0.27872 0.0
C49 C 0.02584 0.78665 0.29102 0.0
C50 C 0.03993 0.8012 0.24396 0.0
C51 C 0.01736 0.7981 0.34953 0.0
C52 C 0.99142 0.7996 0.36652 0.0
C53 C 0.03471 0.81127 0.38208 0.0
C54 C 0.02612 0.82718 0.42642 0.0
C55 C 0.99989 0.83025 0.44007 0.0
C56 C 0.01895 0.72905 0.20342 0.0
C57 C 0.99293 0.72508 0.19496 0.0
C58 C 0.03748 0.71229 0.18115 0.0
C59 C 0.03024 0.69336 0.14611 0.0
C60 C 0.00423 0.69066 0.13246 0.0
C61 C 0.98563 0.70607 0.15977 0.0
C62 C 0.98278 0.81549 0.41138 0.0
H63 H 0.04229 0.83258 0.97371 0.0
H64 H 0.0324 0.79887 0.05776 0.0
H65 H 0.08426 0.82601 0.19194 0.0
H66 H 0.09451 0.86002 0.10675 0.0
H67 H 0.04659 0.76144 0.13049 0.0
H68 H 0.04382 0.82023 0.25084 0.0
H69 H 0.00718 0.75164 0.3135 0.0
H70 H 0.97757 0.78976 0.34217 0.0
H71 H 0.05487 0.81035 0.37038 0.0
H72 H 0.03996 0.83823 0.44679 0.0
H73 H 0.97826 0.73784 0.21114 0.0
H74 H 0.05769 0.715 0.18684 0.0
H75 H 0.96252 0.81689 0.4217 0.0
H76 H 0.96541 0.70422 0.15134 0.0
H77 H 0.04517 0.68208 0.12573 0.0
C78 C 0.70279 0.99751 0.0291 0.0
C79 C 0.67871 0.00854 0.04352 0.0
C80 C 0.72303 0.99475 0.07483 0.0
C81 C 0.71986 0.00346 0.13549 0.0
C82 C 0.69636 0.01594 0.14795 0.0
C83 C 0.67599 0.01799 0.10338 0.0
C84 C 0.74022 0.99857 0.18734 0.0
C85 C 0.76634 0.99879 0.17252 0.0
C86 C 0.78515 0.99461 0.22254 0.0
C87 C 0.77786 0.9906 0.28837 0.0
C88 C 0.75174 0.99043 0.30342 0.0
C89 C 0.73331 0.99375 0.25297 0.0
C90 C 0.74218 0.98789 0.37074 0.0
C91 C 0.74064 0.96396 0.40667 0.0
C92 C 0.72757 0.00834 0.38969 0.0
C93 C 0.70955 0.00454 0.43874 0.0
C94 C 0.70591 0.98017 0.47066 0.0
C95 C 0.81225 0.99505 0.204 0.0
C96 C 0.82457 0.97378 0.18292 0.0
C97 C 0.82427 0.01782 0.1962 0.0
C98 C 0.84778 0.01964 0.16468 0.0
C99 C 0.85957 0.9987 0.14013 0.0
C100 C 0.8481 0.97553 0.15165 0.0
C101 C 0.72281 0.96016 0.45676 0.0
H102 H 0.70598 0.99055 0.98297 0.0
H103 H 0.74083 0.98506 0.06332 0.0
H104 H 0.69336 0.0237 0.1931 0.0
H105 H 0.65785 0.02626 0.11749 0.0
H106 H 0.77219 1.00264 0.12216 0.0
H107 H 0.71329 0.99261 0.26558 0.0
H108 H 0.79226 0.98793 0.32716 0.0
H109 H 0.75152 0.94787 0.39226 0.0
H110 H 0.72818 0.02689 0.36178 0.0
H111 H 0.69695 0.0205 0.44693 0.0
H112 H 0.81539 0.95612 0.18789 0.0
H113 H 0.81476 0.03453 0.21118 0.0
H114 H 0.72116 0.94125 0.48146 0.0
H115 H 0.85686 0.95895 0.13436 0.0
H116 H 0.8559 0.03781 0.15612 0.0
C117 C 0.47142 0.68158 0.41762 0.0
C118 C 0.49336 0.67898 0.45868 0.0
C119 C 0.46917 0.7001 0.36318 0.0
C120 C 0.48892 0.71626 0.34747 0.0
C121 C 0.50969 0.71543 0.39128 0.0
C122 C 0.51181 0.69706 0.44669 0.0
C123 C 0.49132 0.72756 0.2785 0.0
C124 C 0.49217 0.7536 0.25795 0.0
C125 C 0.49515 0.7626 0.19098 0.0
C126 C 0.49713 0.74533 0.14554 0.0
C127 C 0.49674 0.7195 0.16634 0.0
C128 C 0.49376 0.71087 0.23238 0.0
C129 C 0.5001 0.70089 0.12054 0.0
C130 C 0.48268 0.70075 0.0686 0.0
C131 C 0.51935 0.68141 0.13346 0.0
C132 C 0.5207 0.66164 0.09654 0.0
C133 C 0.50275 0.66085 0.04606 0.0
C134 C 0.49655 0.78981 0.16686 0.0
C135 C 0.47718 0.80756 0.18034 0.0
C136 C 0.51622 0.79776 0.12459 0.0
C137 C 0.51601 0.82264 0.09423 0.0
C138 C 0.49595 0.84023 0.10473 0.0
C139 C 0.47682 0.83252 0.14938 0.0
C140 C 0.48389 0.68074 0.03178 0.0
H141 H 0.45683 0.6681 0.42395 0.0
H142 H 0.45311 0.70016 0.32961 0.0
H143 H 0.52532 0.7275 0.37982 0.0
H144 H 0.52863 0.69622 0.47802 0.0
H145 H 0.49073 0.76662 0.29351 0.0
H146 H 0.49352 0.69077 0.24822 0.0
H147 H 0.49933 0.75194 0.09405 0.0
H148 H 0.46756 0.71553 0.05831 0.0
H149 H 0.53294 0.68117 0.17348 0.0
H150 H 0.5353 0.64648 0.10905 0.0
H151 H 0.46168 0.80186 0.21236 0.0
H152 H 0.53158 0.78453 0.11397 0.0
H153 H 0.46997 0.68066 0.99269 0.0
H154 H 0.461 0.84547 0.15851 0.0
H155 H 0.53146 0.82798 0.06174 0.0
C156 C 0.15539 0.55246 0.41727 0.0
C157 C 0.13587 0.53586 0.43254 0.0
C158 C 0.17594 0.54585 0.37894 0.0
C159 C 0.17707 0.52273 0.35455 0.0
C160 C 0.1577 0.50616 0.36969 0.0
C161 C 0.13746 0.51253 0.40877 0.0
C162 C 0.19814 0.51585 0.31232 0.0
C163 C 0.22362 0.51573 0.333 0.0
C164 C 0.24372 0.50815 0.29391 0.0
C165 C 0.23798 0.5009 0.23245 0.0
C166 C 0.21222 0.50181 0.21079 0.0
C167 C 0.19259 0.50887 0.2515 0.0
C168 C 0.20431 0.49696 0.1451 0.0
C169 C 0.19327 0.51725 0.10189 0.0
C170 C 0.20022 0.47239 0.13379 0.0
C171 C 0.18356 0.46827 0.08323 0.0
C172 C 0.17025 0.48868 0.04402 0.0
C173 C 0.27023 0.50776 0.32037 0.0
C174 C 0.27825 0.52921 0.34462 0.0
C175 C 0.28538 0.48508 0.33381 0.0
C176 C 0.30702 0.48346 0.37531 0.0
C177 C 0.31367 0.50447 0.40408 0.0
C178 C 0.29967 0.52758 0.38605 0.0
C179 C 0.17635 0.51323 0.05235 0.0
H180 H 0.15469 0.57063 0.43435 0.0
H181 H 0.19069 0.55895 0.36734 0.0
H182 H 0.15842 0.48809 0.35197 0.0
H183 H 0.12329 0.49889 0.42113 0.0
H184 H 0.22779 0.52086 0.38075 0.0
H185 H 0.17276 0.50939 0.23508 0.0
H186 H 0.25328 0.49534 0.20142 0.0
H187 H 0.19569 0.53639 0.11062 0.0
H188 H 0.20818 0.45643 0.16725 0.0
H189 H 0.18002 0.44907 0.07752 0.0
H190 H 0.26692 0.54694 0.33482 0.0
H191 H 0.27943 0.46822 0.31632 0.0
H192 H 0.16649 0.52961 0.02457 0.0
H193 H 0.30463 0.5442 0.40641 0.0
H194 H 0.31749 0.4654 0.38833 0.0
C195 C 0.92421 0.19922 0.48167 0.0
C196 C 0.93606 0.17512 0.48084 0.0
C197 C 0.92881 0.21878 0.43193 0.0
C198 C 0.94573 0.21463 0.3813 0.0
C199 C 0.95705 0.19028 0.38024 0.0
C200 C 0.95211 0.17076 0.42906 0.0
C201 C 0.95319 0.2357 0.33218 0.0
C202 C 0.95691 0.25938 0.35028 0.0
C203 C 0.9669 0.27853 0.30637 0.0
C204 C 0.97405 0.27357 0.24338 0.0
C205 C 0.96973 0.24994 0.22431 0.0
C206 C 0.95887 0.23155 0.26838 0.0
C207 C 0.97748 0.24239 0.16079 0.0
C208 C 0.95841 0.23993 0.11429 0.0
C209 C 0.00161 0.22981 0.1565 0.0
C210 C 0.00589 0.21331 0.11024 0.0
C211 C 0.98604 0.20901 0.06738 0.0
C212 C 0.97006 0.30297 0.33025 0.0
C213 C 0.9486 0.3152 0.35544 0.0
C214 C 0.99456 0.31082 0.34263 0.0
C215 C 0.9976 0.32908 0.38424 0.0
C216 C 0.9762 0.33949 0.41422 0.0
C217 C 0.95164 0.33316 0.39712 0.0
C218 C 0.96268 0.22355 0.0678 0.0
H219 H 0.91178 0.20299 0.52128 0.0
H220 H 0.91947 0.23721 0.43382 0.0
H221 H 0.97071 0.1864 0.34331 0.0
H222 H 0.96199 0.1525 0.42806 0.0
H223 H 0.95301 0.26276 0.39984 0.0
H224 H 0.95558 0.2135 0.25309 0.0
H225 H 0.98254 0.28787 0.20974 0.0
H226 H 0.93946 0.24899 0.11755 0.0
H227 H 0.01637 0.23081 0.19302 0.0
H228 H 0.02405 0.20239 0.11194 0.0
H229 H 0.92953 0.30937 0.34697 0.0
H230 H 0.01141 0.3014 0.32468 0.0
H231 H 0.94713 0.22115 0.03476 0.0
H232 H 0.93483 0.34102 0.41924 0.0
H233 H 0.01675 0.33357 0.39693 0.0
C234 C 0.30436 0.03384 0.55957 0.0
C235 C 0.32826 0.04407 0.54978 0.0
C236 C 0.28453 0.04055 0.51346 0.0
C237 C 0.2882 0.05788 0.45724 0.0
C238 C 0.31177 0.06909 0.44968 0.0
C239 C 0.33166 0.06208 0.49519 0.0
C240 C 0.26843 0.0626 0.40413 0.0
C241 C 0.24225 0.06357 0.41812 0.0
C242 C 0.22372 0.06524 0.36794 0.0
C243 C 0.23135 0.06622 0.30256 0.0
C244 C 0.25756 0.06621 0.28787 0.0
C245 C 0.27581 0.06429 0.33876 0.0
C246 C 0.2672 0.06593 0.22097 0.0
C247 C 0.26572 0.04419 0.19106 0.0
C248 C 0.28375 0.08429 0.19548 0.0
C249 C 0.30054 0.07979 0.14561 0.0
C250 C 0.30122 0.05672 0.12072 0.0
C251 C 0.19664 0.06454 0.38665 0.0
C252 C 0.18579 0.04128 0.40083 0.0
C253 C 0.18367 0.08617 0.40408 0.0
C254 C 0.16075 0.08438 0.43824 0.0
C255 C 0.15062 0.06083 0.45652 0.0
C256 C 0.16297 0.03942 0.4354 0.0
C257 C 0.28263 0.0396 0.14127 0.0
H258 H 0.30138 0.01987 0.60138 0.0
H259 H 0.26676 0.03131 0.52051 0.0
H260 H 0.31507 0.08292 0.40781 0.0
H261 H 0.34985 0.07053 0.48734 0.0
H262 H 0.23617 0.06255 0.46837 0.0
H263 H 0.29598 0.06279 0.32718 0.0
H264 H 0.21712 0.06696 0.26379 0.0
H265 H 0.2533 0.02966 0.21039 0.0
H266 H 0.28535 0.10109 0.21834 0.0
H267 H 0.31464 0.09332 0.13129 0.0
H268 H 0.19587 0.0243 0.38905 0.0
H269 H 0.19201 0.10423 0.39443 0.0
H270 H 0.28247 0.0218 0.12237 0.0
H271 H 0.15596 0.02094 0.44917 0.0
H272 H 0.15153 0.10131 0.45265 0.0
C273 C 0.47905 0.33318 0.15823 0.0
C274 C 0.49907 0.34126 0.11698 0.0
C275 C 0.48401 0.31503 0.2131 0.0
C276 C 0.50899 0.30452 0.22761 0.0
C277 C 0.52858 0.31102 0.18377 0.0
C278 C 0.52365 0.32907 0.12876 0.0
C279 C 0.51584 0.29377 0.29569 0.0
C280 C 0.51431 0.26813 0.32033 0.0
C281 C 0.51989 0.2595 0.38717 0.0
C282 C 0.52617 0.27715 0.42833 0.0
C283 C 0.52795 0.30255 0.40366 0.0
C284 C 0.52303 0.31059 0.33736 0.0
C285 C 0.53285 0.32131 0.44748 0.0
C286 C 0.51804 0.32244 0.50336 0.0
C287 C 0.55046 0.33972 0.43029 0.0
C288 C 0.55231 0.35961 0.46663 0.0
C289 C 0.53634 0.36152 0.5201 0.0
C290 C 0.51877 0.23249 0.41594 0.0
C291 C 0.49968 0.2175 0.39682 0.0
C292 C 0.53605 0.22195 0.46658 0.0
C293 C 0.53342 0.19783 0.4997 0.0
C294 C 0.51388 0.18326 0.48208 0.0
C295 C 0.49739 0.19303 0.42931 0.0
C296 C 0.51968 0.34245 0.53917 0.0
H297 H 0.45995 0.34222 0.15113 0.0
H298 H 0.46875 0.31082 0.24724 0.0
H299 H 0.5481 0.30357 0.19476 0.0
H300 H 0.53942 0.33443 0.09736 0.0
H301 H 0.50901 0.25512 0.28769 0.0
H302 H 0.52368 0.33039 0.31838 0.0
H303 H 0.52937 0.27128 0.48019 0.0
H304 H 0.50421 0.30859 0.51736 0.0
H305 H 0.56219 0.33913 0.38753 0.0
H306 H 0.56524 0.37414 0.45097 0.0
H307 H 0.48595 0.22494 0.3584 0.0
H308 H 0.55152 0.23249 0.48149 0.0
H309 H 0.50732 0.34347 0.58063 0.0
H310 H 0.4822 0.18207 0.41469 0.0
H311 H 0.54671 0.19053 0.53931 0.0
Co312 Co 0.00697 0.02976 0.804 0.0
C313 C 0.96484 0.00807 0.86072 0.0
Co314 Co 0.99186 1.00145 0.74735 0.0
C315 C 0.00938 0.07539 0.86665 0.0
C316 C 0.0455 0.05442 0.86541 0.0
N317 N 0.0206 0.05408 0.84841 0.0
N318 N 0.02643 0.08905 0.89384 0.0
C319 C 0.04912 0.07571 0.89329 0.0
H320 H 0.98928 0.0811 0.85832 0.0
H321 H 0.06025 0.04027 0.85697 0.0
C322 C 0.03377 0.02309 0.68987 0.0
N323 N 0.97878 0.97711 0.70253 0.0
C324 C 0.99179 0.95776 0.67939 0.0
C325 C 0.95403 0.97467 0.68731 0.0
N326 N 0.97617 0.9433 0.65029 0.0
C327 C 0.95237 0.954 0.65519 0.0
C328 C 0.97031 0.04948 0.7099 0.0
O329 O 0.03288 0.03491 0.7392 0.0
O330 O 0.01731 0.00714 0.68381 0.0
O331 O 0.97004 0.02684 0.69869 0.0
O332 O 0.98522 0.05484 0.75416 0.0
O333 O 0.96636 0.99607 0.81181 0.0
H334 H 0.93817 0.98701 0.69935 0.0
H335 H 0.01241 0.95449 0.68347 0.0
O336 O 0.98101 0.02432 0.86744 0.0
O337 O 0.0285 0.00405 0.85373 0.0
O338 O 0.01388 0.97648 0.79608 0.0
C339 C 0.02852 0.98158 0.8411 0.0
H340 H 0.06717 0.08088 0.91181 0.0
H341 H 0.93488 0.94715 0.63799 0.0
Co342 Co 0.49119 0.02133 0.83566 0.0
C343 C 0.50089 0.96888 0.85823 0.0
Co344 Co 0.51361 0.00553 0.75893 0.0
C345 C 0.44633 0.04256 0.89639 0.0
C346 C 0.47631 0.02786 0.96501 0.0
N347 N 0.47087 0.03273 0.90038 0.0
N348 N 0.43627 0.04346 0.95597 0.0
C349 C 0.45507 0.03431 0.99919 0.0
H350 H 0.4354 0.0471 0.85113 0.0
H351 H 0.49397 0.01852 0.98614 0.0
C352 C 0.50385 0.05783 0.73578 0.0
N353 N 0.53438 0.99343 0.69637 0.0
C354 C 0.55815 1.0005 0.68118 0.0
C355 C 0.53065 0.97466 0.66109 0.0
N356 N 0.56972 0.98675 0.63853 0.0
C357 C 0.5523 0.97053 0.62544 0.0
C358 C 0.46219 0.00826 0.7324 0.0
O359 O 0.4918 0.05458 0.78931 0.0
O360 O 0.51516 0.03895 0.71476 0.0
O361 O 0.48378 1.00212 0.70942 0.0
O362 O 0.46138 0.01617 0.78754 0.0
O363 O 0.51171 0.9723 0.80317 0.0
H364 H 0.51359 0.96423 0.66251 0.0
H365 H 0.56711 0.01492 0.70319 0.0
O366 O 0.49087 0.98782 0.88151 0.0
O367 O 0.52134 0.02666 0.8824 0.0
O368 O 0.54326 0.0091 0.80917 0.0
C369 C 0.54272 0.01916 0.86107 0.0
H370 H 0.45313 0.0313 0.05174 0.0
H371 H 0.55494 0.95648 0.59295 0.0
Co372 Co 0.51635 0.51113 0.78812 0.0
C373 C 0.49797 0.47171 0.87542 0.0
Co374 Co 0.47441 0.50831 0.78408 0.0
C375 C 0.56373 0.51498 0.85635 0.0
C376 C 0.56962 0.51513 0.75404 0.0
N377 N 0.55128 0.5137 0.79945 0.0
N378 N 0.58914 0.51729 0.84854 0.0
C379 C 0.59287 0.51731 0.78397 0.0
H380 H 0.55409 0.51472 0.90249 0.0
H381 H 0.56628 0.51473 0.7025 0.0
C382 C 0.49268 0.54813 0.69815 0.0
N383 N 0.4395 0.50589 0.77213 0.0
C384 C 0.42722 0.5064 0.7141 0.0
C385 C 0.4209 0.50388 0.81688 0.0
N386 N 0.4017 0.5049 0.72059 0.0
C387 C 0.39762 0.50338 0.78531 0.0
C388 C 0.48804 0.54004 0.86859 0.0
O389 O 0.5147 0.53947 0.7205 0.0
O390 O 0.47307 0.5368 0.71846 0.0
O391 O 0.46842 0.53053 0.84775 0.0
O392 O 0.51003 0.53334 0.84928 0.0
O393 O 0.4761 0.47966 0.85061 0.0
H394 H 0.42405 0.50306 0.86894 0.0
H395 H 0.43681 0.50852 0.66766 0.0
O396 O 0.51763 0.48314 0.85571 0.0
O397 O 0.52239 0.48873 0.72602 0.0
O398 O 0.48074 0.4865 0.72078 0.0
C399 C 0.50295 0.47987 0.70252 0.0
H400 H 0.61108 0.51863 0.75976 0.0
H401 H 0.37914 0.50194 0.80823 0.0
Co402 Co 0.9964 0.53348 0.78229 0.0
C403 C 0.04127 0.50579 0.82993 0.0
Co404 Co 0.9982 0.49348 0.76559 0.0
C405 C 0.99963 0.57224 0.86447 0.0
C406 C 0.98603 0.58759 0.76845 0.0
N407 N 0.99431 0.56583 0.80506 0.0
N408 N 0.99491 0.5971 0.86673 0.0
C409 C 0.98635 0.60683 0.80619 0.0
H410 H 0.00626 0.55871 0.90583 0.0
H411 H 0.97991 0.58932 0.71782 0.0
C412 C 0.95345 0.52123 0.71749 0.0
N413 N 1.00002 0.46102 0.74301 0.0
C414 C 0.99766 0.45459 0.68231 0.0
C415 C 0.00348 0.43892 0.78264 0.0
N416 N 0.99942 0.42943 0.68245 0.0
C417 C 0.00298 0.41948 0.74563 0.0
C418 C 0.97491 0.49946 0.87951 0.0
O419 O 0.96373 0.53949 0.73843 0.0
O420 O 0.96542 0.49968 0.72414 0.0
O421 O 0.98189 0.48246 0.84516 0.0
O422 O 0.9799 0.52207 0.86042 0.0
O423 O 0.03127 0.48751 0.80829 0.0
H424 H 0.00611 0.43705 0.83508 0.0
H425 H 0.99417 0.46814 0.63881 0.0
O426 O 0.02895 0.52714 0.82453 0.0
O427 O 0.01299 0.54458 0.70417 0.0
O428 O 0.01419 0.50519 0.68602 0.0
C429 C 0.01913 0.52793 0.66821 0.0
H430 H 0.98089 0.62646 0.79005 0.0
H431 H 0.00534 0.39959 0.76371 0.0
H432 H 0.1109 0.03009 0.45544 0.0
H433 H 0.14167 0.08527 0.56247 0.0
H434 H 0.10802 0.07904 0.64267 0.0
H435 H 0.07091 0.05664 0.6855 0.0
H436 H 0.04097 1.00044 0.58054 0.0
H437 H 0.07347 0.00804 0.49754 0.0
C438 C 0.1103 0.04072 0.49636 0.0
C439 C 0.12883 0.05819 0.50246 0.0
C440 C 0.09116 0.03669 0.54328 0.0
C441 C 0.12746 0.07203 0.55553 0.0
C442 C 0.10834 0.06829 0.60198 0.0
C443 C 0.07147 0.04606 0.64446 0.0
C444 C 0.05355 0.02793 0.63955 0.0
C445 C 0.09025 0.05049 0.59675 0.0
C446 C 0.05454 0.01447 0.58581 0.0
C447 C 0.07312 0.01881 0.53816 0.0
H448 H 0.50759 0.17196 0.61261 0.0
H449 H 0.51333 0.13825 0.43556 0.0
H450 H 0.51113 0.09633 0.49857 0.0
H451 H 0.50867 0.06927 0.60456 0.0
H452 H 0.50003 0.10326 0.78088 0.0
H453 H 0.50227 0.14508 0.71786 0.0
C454 C 0.50827 0.15539 0.58799 0.0
C455 C 0.51079 0.15807 0.51969 0.0
C456 C 0.50658 0.13146 0.62445 0.0
C457 C 0.51133 0.13658 0.48806 0.0
C458 C 0.51018 0.11265 0.52411 0.0
C459 C 0.50731 0.08586 0.62915 0.0
C460 C 0.50447 0.08318 0.6974 0.0
C461 C 0.50801 0.10985 0.59238 0.0
C462 C 0.50227 0.10483 0.72846 0.0
C463 C 0.50358 0.12873 0.69245 0.0
H464 H 0.30888 0.52093 0.52141 0.0
H465 H 0.36239 0.48199 0.40685 0.0
H466 H 0.3946 0.47856 0.49528 0.0
H467 H 0.40753 0.48713 0.60517 0.0
H468 H 0.35317 0.52529 0.7194 0.0
H469 H 0.32126 0.52848 0.63122 0.0
C470 C 0.32769 0.51187 0.51556 0.0
C471 C 0.33338 0.50203 0.45732 0.0
C472 C 0.34589 0.50977 0.56668 0.0
C473 C 0.35758 0.48976 0.45114 0.0
C474 C 0.37599 0.48786 0.50162 0.0
C475 C 0.38873 0.49624 0.61052 0.0
C476 C 0.38277 0.50604 0.66881 0.0
C477 C 0.37038 0.49788 0.55956 0.0
C478 C 0.35818 0.5174 0.67545 0.0
C479 C 0.33997 0.51935 0.62487 0.0
H480 H 0.99993 0.38348 0.41748 0.0
H481 H 0.9593 0.3272 0.53658 0.0
H482 H 0.96337 0.34965 0.63063 0.0
H483 H 0.97793 0.38552 0.6792 0.0
H484 H 0.0166 0.44329 0.56041 0.0
H485 H 0.01374 0.42035 0.4663 0.0
C486 C 0.99206 0.37621 0.46414 0.0
C487 C 0.97929 0.35376 0.47014 0.0
C488 C 0.99404 0.38956 0.51804 0.0
C489 C 0.96903 0.34456 0.53072 0.0
C490 C 0.9714 0.35734 0.58456 0.0
C491 C 0.98587 0.39297 0.63281 0.0
C492 C 0.99757 0.41599 0.62691 0.0
C493 C 0.98379 0.37988 0.57882 0.0
C494 C 0.00736 0.42567 0.56609 0.0
C495 C 0.00582 0.4125 0.51235 0.0
H496 H 0.8684 0.97865 0.02829 0.0
H497 H 0.90159 0.02578 0.15513 0.0
H498 H 0.93714 0.03289 0.08009 0.0
H499 H 0.95826 0.02643 0.97684 0.0
H500 H 0.92485 0.97858 0.85199 0.0
H501 H 0.89016 0.97082 0.92843 0.0
C502 C 0.88364 0.9901 0.04035 0.0
C503 C 0.88231 1.00158 0.09751 0.0
C504 C 0.90397 0.99408 0.99711 0.0
C505 C 0.90198 0.01686 0.11126 0.0
C506 C 0.92236 0.02089 0.06843 0.0
C507 C 0.94342 0.01427 0.96644 0.0
C508 C 0.94418 1.00319 0.90855 0.0
C509 C 0.92343 0.00978 0.01086 0.0
C510 C 0.92481 0.98738 0.89606 0.0
C511 C 0.90491 0.98291 0.93977 0.0
H512 H 0.50784 0.85393 0.97715 0.0
H513 H 0.48093 0.88501 0.14769 0.0
H514 H 0.47911 0.92731 0.08604 0.0
H515 H 0.48623 0.95566 0.98423 0.0
H516 H 0.51481 0.92426 0.8156 0.0
H517 H 0.51526 0.88201 0.87642 0.0
C518 C 0.50188 0.86993 0.00131 0.0
C519 C 0.49469 0.86615 0.06733 0.0
C520 C 0.50122 0.89423 0.96586 0.0
C521 C 0.48637 0.88721 0.09692 0.0
C522 C 0.48546 0.91146 0.06174 0.0
C523 C 0.49247 0.93957 0.96069 0.0
C524 C 0.50047 0.94321 0.8953 0.0
C525 C 0.49294 0.91522 0.99623 0.0
C526 C 0.5086 0.9221 0.86579 0.0
C527 C 0.50887 0.89788 0.90056 0.0
H528 H 0.6824 0.53454 0.02717 0.0
H529 H 0.632 0.5041 0.17798 0.0
H530 H 0.59943 0.49994 0.09518 0.0
H531 H 0.58567 0.50426 0.97983 0.0
H532 H 0.63577 0.5365 0.83028 0.0
H533 H 0.66797 0.54059 0.913 0.0
C534 C 0.66413 0.52743 0.0423 0.0
C535 C 0.65971 0.51977 0.10903 0.0
C536 C 0.64545 0.5252 0.99454 0.0
C537 C 0.63609 0.50996 0.1271 0.0
C538 C 0.61739 0.50765 0.07973 0.0
C539 C 0.60345 0.51246 0.96508 0.0
C540 C 0.60811 0.51991 0.89826 0.0
C541 C 0.62192 0.5151 0.01322 0.0
C542 C 0.63161 0.53014 0.88077 0.0
C543 C 0.65007 0.53269 0.92825 0.0
H544 H 0.02563 0.64399 0.11662 0.0
H545 H 0.96679 0.70012 0.0373 0.0
H546 H 0.95804 0.67568 0.94974 0.0
H547 H 0.96879 0.63967 0.89133 0.0
H548 H 0.0287 0.58438 0.9679 0.0
H549 H 0.03539 0.60723 0.06013 0.0
C550 C 0.01085 0.6509 0.08028 0.0
C551 C 0.99695 0.67399 0.08396 0.0
C552 C 0.00624 0.63698 0.02893 0.0
C553 C 0.97758 0.6823 0.03675 0.0
C554 C 0.97273 0.66845 0.986 0.0
C555 C 0.98339 0.63267 0.92797 0.0
C556 C 0.9983 0.61037 0.92219 0.0
C557 C 0.98724 0.646 0.98089 0.0
C558 C 0.01679 0.60135 0.97111 0.0
C559 C 0.02072 0.61449 0.02385 0.0
H560 H 0.92567 0.12671 0.47671 0.0
H561 H 0.94365 0.17851 0.60955 0.0
H562 H 0.95236 0.14345 0.69715 0.0
H563 H 0.96205 0.09818 0.72939 0.0
H564 H 0.9456 0.04636 0.5948 0.0
H565 H 0.92887 0.0813 0.51463 0.0
C566 C 0.93091 0.13026 0.52534 0.0
C567 C 0.93439 0.15499 0.53668 0.0
C568 C 0.93657 0.11003 0.57473 0.0
C569 C 0.94082 0.15957 0.59986 0.0
C570 C 0.94607 0.13953 0.6497 0.0
C571 C 0.95439 0.09449 0.68295 0.0
C572 C 0.9556 0.06981 0.66742 0.0
C573 C 0.94515 0.11468 0.63673 0.0
C574 C 0.94516 0.06524 0.60764 0.0
C575 C 0.93566 0.08521 0.56166 0.0
H576 H 0.37485 0.02586 0.51738 0.0
H577 H 0.33017 0.04231 0.68219 0.0
H578 H 0.36744 0.03024 0.75514 0.0
H579 H 0.41338 0.01803 0.76993 0.0
H580 H 0.45792 1.00141 0.60447 0.0
H581 H 0.41986 0.01009 0.53385 0.0
C582 C 0.37335 0.0267 0.56935 0.0
C583 C 0.35009 0.03526 0.59459 0.0
C584 C 0.39472 0.01963 0.61066 0.0
C585 C 0.34802 0.03585 0.66198 0.0
C586 C 0.36929 0.02899 0.70349 0.0
C587 C 0.41471 0.01598 0.71859 0.0
C588 C 0.43852 0.00934 0.69237 0.0
C589 C 0.39283 0.02126 0.67813 0.0
C590 C 0.43986 0.00653 0.62589 0.0
C591 C 0.41814 0.01164 0.58536 0.0
H592 H 0.49415 0.39037 0.53984 0.0
H593 H 0.57605 0.38411 0.57036 0.0
H594 H 0.57332 0.4217 0.62581 0.0
H595 H 0.54706 0.45492 0.67037 0.0
H596 H 0.46501 0.4606 0.63802 0.0
H597 H 0.46843 0.42475 0.57789 0.0
C598 C 0.51137 0.39722 0.55896 0.0
C599 C 0.53519 0.38441 0.55227 0.0
C600 C 0.50962 0.41874 0.59008 0.0
C601 C 0.5575 0.3937 0.57552 0.0
C602 C 0.55592 0.41512 0.60713 0.0
C603 C 0.52999 0.4485 0.64943 0.0
C604 C 0.50581 0.46029 0.65917 0.0
C605 C 0.53202 0.42764 0.61526 0.0
C606 C 0.48386 0.45177 0.63167 0.0
C607 C 0.48575 0.43122 0.5974 0.0
H608 H 0.0861 0.52492 0.4215 0.0
H609 H 0.13712 0.56098 0.53939 0.0
H610 H 0.10302 0.56614 0.617 0.0
H611 H 0.06092 0.55473 0.6596 0.0
H612 H 0.01281 0.51283 0.54995 0.0
H613 H 0.04353 0.51539 0.46104 0.0
C614 C 0.08985 0.53386 0.46424 0.0
C615 C 0.11431 0.54214 0.475 0.0
C616 C 0.07063 0.53557 0.51034 0.0
C617 C 0.11848 0.55449 0.52952 0.0
C618 C 0.09904 0.55726 0.57434 0.0
C619 C 0.05695 0.54683 0.6153 0.0
C620 C 0.03473 0.53384 0.61043 0.0
C621 C 0.07533 0.54714 0.56631 0.0
C622 C 0.02984 0.52304 0.554 0.0
C623 C 0.04742 0.52438 0.50355 0.0
H624 H 0.06928 0.8971 0.06153 0.0
H625 H 0.07101 0.85409 0.89986 0.0
H626 H 0.0612 0.89251 0.82387 0.0
H627 H 0.0456 0.93697 0.80615 0.0
H628 H 0.04459 0.98004 0.96742 0.0
H629 H 0.06142 0.94292 0.04078 0.0
C630 C 0.06845 0.89614 0.00952 0.0
C631 C 0.0703 0.87264 0.98664 0.0
C632 C 0.06263 0.91827 0.96617 0.0
C633 C 0.06902 0.87187 0.91895 0.0
C634 C 0.06341 0.89382 0.87545 0.0
C635 C 0.04953 0.93831 0.85715 0.0
C636 C 0.04344 0.96097 0.88181 0.0
C637 C 0.05904 0.91692 0.89894 0.0
C638 C 0.04902 0.9627 0.94753 0.0
C639 C 0.05851 0.94146 0.98951 0.0
H640 H 0.63766 0.04332 0.02476 0.0
H641 H 0.66815 0.97419 0.96135 0.0
H642 H 0.62971 0.97282 0.89554 0.0
H643 H 0.58611 0.98926 0.86226 0.0
H644 H 0.55317 0.05465 0.93811 0.0
H645 H 0.59359 0.05879 0.99527 0.0
C646 C 0.63592 0.02765 0.99759 0.0
C647 C 0.65606 0.00885 0.99884 0.0
C648 C 0.61308 0.02606 0.96281 0.0
C649 C 0.65344 0.98929 0.96088 0.0
C650 C 0.63122 0.98824 0.92374 0.0
C651 C 0.58784 0.00446 0.89118 0.0
C652 C 0.56683 0.02166 0.89609 0.0
C653 C 0.61078 0.00626 0.92529 0.0
C654 C 0.56913 0.04112 0.9341 0.0
C655 C 0.59222 0.04353 0.96646 0.0
H656 H 0.46286 0.63396 0.01564 0.0
H657 H 0.54468 0.63824 0.99702 0.0
H658 H 0.54724 0.60008 0.94555 0.0
H659 H 0.52663 0.56602 0.90569 0.0
H660 H 0.44462 0.56163 0.91829 0.0
H661 H 0.44176 0.5993 0.97336 0.0
C662 C 0.48116 0.62666 0.99951 0.0
C663 C 0.50357 0.63884 0.01019 0.0
C664 C 0.4825 0.60464 0.96981 0.0
C665 C 0.52723 0.62905 0.98989 0.0
C666 C 0.52871 0.60726 0.9605 0.0
C667 C 0.50805 0.57308 0.9208 0.0
C668 C 0.48585 0.56096 0.90807 0.0
C669 C 0.50652 0.59488 0.9506 0.0
C670 C 0.46201 0.57053 0.92786 0.0
C671 C 0.46037 0.59214 0.95891 0.0
H672 H 0.88687 0.46899 0.07386 0.0
H673 H 0.89113 0.54663 0.10211 0.0
H674 H 0.92903 0.54995 0.03431 0.0
H675 H 0.95827 0.53214 0.95997 0.0
H676 H 0.95305 0.45534 0.92461 0.0
H677 H 0.91868 0.45003 0.0041 0.0
C678 C 0.89637 0.48648 0.06568 0.0
C679 C 0.88614 0.50764 0.09201 0.0
C680 C 0.91794 0.48836 0.02575 0.0
C681 C 0.89846 0.53026 0.08121 0.0
C682 C 0.92017 0.53213 0.04283 0.0
C683 C 0.94991 0.51407 0.97015 0.0
C684 C 0.958 0.49424 0.93589 0.0
C685 C 0.92968 0.51148 0.01375 0.0
C686 C 0.94711 0.47092 0.95026 0.0
C687 C 0.92734 0.46795 0.99529 0.0
H688 H 0.02809 0.19256 0.0028 0.0
H689 H 0.94985 0.17617 0.04638 0.0
H690 H 0.95482 0.13851 0.99317 0.0
H691 H 0.98232 0.10829 0.94099 0.0
H692 H 0.06072 0.12447 0.89934 0.0
H693 H 0.05484 0.16356 0.9459 0.0
C694 C 0.01208 0.18081 1.0006 0.0
C695 C 0.98862 0.18743 0.02869 0.0
C696 C 0.01518 0.15878 0.97089 0.0
C697 C 0.96804 0.17198 0.02437 0.0
C698 C 0.97093 0.15019 0.99444 0.0
C699 C 0.99801 0.1205 0.94134 0.0
C700 C 0.02204 0.11309 0.91737 0.0
C701 C 0.99452 0.14316 0.96836 0.0
C702 C 0.04218 0.12925 0.91868 0.0
C703 C 0.0388 0.15178 0.94499 0.0
H704 H 0.3257 0.08408 0.0203 0.0
H705 H 0.32871 0.01174 0.14133 0.0
H706 H 0.37028 1.00073 0.09774 0.0
H707 H 0.40784 0.01314 0.03407 0.0
H708 H 0.40564 0.08463 0.91116 0.0
H709 H 0.36181 0.09464 0.94649 0.0
C710 C 0.33532 0.06578 0.03631 0.0
C711 C 0.32402 0.04881 0.08413 0.0
C712 C 0.35954 0.05959 0.01145 0.0
C713 C 0.33666 0.02506 0.10397 0.0
C714 C 0.36064 0.01882 0.07964 0.0
C715 C 0.39759 0.03082 0.01487 0.0
C716 C 0.40985 0.04837 0.97119 0.0
C717 C 0.37254 0.03617 0.03484 0.0
C718 C 0.39643 0.071 0.9452 0.0
C719 C 0.37149 0.07668 0.96553 0.0
H720 H 0.53105 0.37908 0.08789 0.0
H721 H 0.45752 0.35515 0.03408 0.0
H722 H 0.45001 0.39385 0.95708 0.0
H723 H 0.46456 0.43461 0.90434 0.0
H724 H 0.53886 0.45722 0.95697 0.0
H725 H 0.54581 0.4189 0.03458 0.0
C726 C 0.51355 0.38202 0.05855 0.0
C727 C 0.49499 0.364 0.06665 0.0
C728 C 0.50939 0.40425 0.01429 0.0
C729 C 0.47212 0.36866 0.02926 0.0
C730 C 0.46782 0.39081 0.98508 0.0
C731 C 0.48218 0.43121 0.93316 0.0
C732 C 0.50111 0.44886 0.92487 0.0
C733 C 0.48629 0.40881 0.97733 0.0
C734 C 0.52396 0.444 0.96217 0.0
C735 C 0.528 0.42204 0.00659 0.0
H736 H 0.15299 0.51784 0.93041 0.0
H737 H 0.13632 0.45106 0.06071 0.0
H738 H 0.09652 0.4486 1.00085 0.0
H739 H 0.06357 0.46823 0.91923 0.0
H740 H 0.07799 0.53823 0.80088 0.0
H741 H 0.1209 0.53701 0.84934 0.0
C742 C 0.1407 0.50279 0.94641 0.0
C743 C 0.14793 0.48489 1.00098 0.0
C744 C 0.11698 0.50227 0.91425 0.0
C745 C 0.13182 0.46505 0.01866 0.0
C746 C 0.10869 0.46377 0.98489 0.0
C747 C 0.07631 0.48299 0.90376 0.0
C748 C 0.06771 0.50332 0.85682 0.0
C749 C 0.10069 0.48268 0.93378 0.0
C750 C 0.0842 0.52251 0.8374 0.0
C751 C 0.10873 0.52179 0.86496 0.0
H752 H 0.02274 0.84578 0.54662 0.0
H753 H 0.95583 0.86091 0.41987 0.0
H754 H 0.94218 0.89646 0.47529 0.0
H755 H 0.95049 0.92507 0.55479 0.0
H756 H 0.01803 0.91101 0.67911 0.0
H757 H 0.03053 0.8739 0.62801 0.0
C758 C 0.0052 0.85685 0.53083 0.0
C759 C 0.99042 0.85043 0.47882 0.0
C760 C 0.99773 0.87782 0.56182 0.0
C761 C 0.96747 0.8649 0.4603 0.0
C762 C 0.95975 0.88552 0.49153 0.0
C763 C 0.9678 0.91377 0.57133 0.0
C764 C 0.98331 0.92104 0.6207 0.0
C765 C 0.97489 0.89237 0.54173 0.0
C766 C 0.00589 0.90623 0.64061 0.0
C767 C 0.01298 0.88483 0.61168 0.0
H768 H 0.68095 0.01097 0.54854 0.0
H769 H 0.67709 0.93881 0.48054 0.0
H770 H 0.63542 0.93387 0.52998 0.0
H771 H 0.59835 0.95144 0.58417 0.0
H772 H 0.60031 0.02581 0.64015 0.0
H773 H 0.64397 0.02853 0.6024 0.0
C774 C 0.67105 0.99417 0.54406 0.0
C775 C 0.68242 0.97544 0.51013 0.0
C776 C 0.64638 0.99193 0.5697 0.0
C777 C 0.66933 0.95348 0.50703 0.0
C778 C 0.64517 0.95075 0.53452 0.0
C779 C 0.60812 0.96837 0.58777 0.0
C780 C 0.59569 0.98835 0.61525 0.0
C781 C 0.63322 0.97015 0.56445 0.0
C782 C 0.60917 0.0099 0.62023 0.0
C783 C 0.63426 0.01157 0.5983 0.0
H784 H 0.45798 0.65209 0.53094 0.0
H785 H 0.53941 0.65331 0.4982 0.0
H786 H 0.54657 0.61353 0.56991 0.0
H787 H 0.52953 0.57688 0.63777 0.0
H788 H 0.44767 0.57442 0.66057 0.0
H789 H 0.441 0.61546 0.59479 0.0
C790 C 0.47734 0.64367 0.53861 0.0
C791 C 0.49802 0.65601 0.50845 0.0
C792 C 0.48129 0.62012 0.57745 0.0
C793 C 0.52299 0.6448 0.52127 0.0
C794 C 0.52714 0.62172 0.56171 0.0
C795 C 0.51024 0.58527 0.628 0.0
C796 C 0.48918 0.57241 0.65405 0.0
C797 C 0.5064 0.60899 0.58929 0.0
C798 C 0.4643 0.58367 0.64094 0.0
C799 C 0.46041 0.60729 0.60355 0.0
H800 H 0.85287 0.54603 0.5448 0.0
H801 H 0.83551 0.47328 0.64506 0.0
H802 H 0.87523 0.47102 0.70871 0.0
H803 H 0.91659 0.48805 0.72959 0.0
H804 H 0.93267 0.562 0.63633 0.0
H805 H 0.89146 0.56565 0.57699 0.0
C806 C 0.85729 0.52996 0.58179 0.0
C807 C 0.84125 0.50963 0.5889 0.0
C808 C 0.8801 0.52888 0.61903 0.0
C809 C 0.84769 0.48893 0.63701 0.0
C810 C 0.87041 0.48762 0.67369 0.0
C811 C 0.91094 0.50502 0.69655 0.0
C812 C 0.92771 0.52457 0.68635 0.0
C813 C 0.88709 0.50715 0.66378 0.0
C814 C 0.92005 0.54668 0.6446 0.0
C815 C 0.89655 0.54873 0.61065 0.0
loop_
_geom_bond_atom_site_label_1
_geom_bond_atom_site_label_2
_geom_bond_distance
_geom_bond_site_symmetry_2
_ccdc_geom_bond_type
C0 C1 1.386 . S
C0 C2 1.397 . S
C0 H24 0.931 . S
C1 C0 1.386 . S
C1 C5 1.397 1_556 S
C2 C0 1.397 . S
C2 C3 1.384 1_556 S
C2 H25 0.930 . S
C3 C2 1.384 1_554 S
C3 C4 1.377 . S
C3 C6 1.481 . S
C4 C3 1.377 . S
C4 C5 1.389 . S
C4 H26 0.929 . S
C5 C1 1.397 1_554 S
C5 C4 1.389 . S
C5 H27 0.931 . S
C6 C3 1.481 . S
C6 C7 1.387 . S
C6 C11 1.390 . S
C7 C6 1.387 . S
C7 C8 1.401 . S
C7 H28 0.930 . S
C8 C7 1.401 . S
C8 C9 1.376 . S
C8 C17 1.511 . S
C9 C8 1.376 . S
C9 C10 1.392 . S
C9 H30 0.931 . S
C10 C9 1.392 . S
C10 C11 1.361 . S
C10 C12 1.500 . S
C11 C6 1.390 . S
C11 C10 1.361 . S
C11 H29 0.931 . S
C12 C10 1.500 . S
C12 C13 1.371 . S
C12 C14 1.365 . S
C13 C12 1.371 . S
C13 C23 1.386 . S
C13 H31 0.931 . S
C14 C12 1.365 . S
C14 C15 1.409 . S
C14 H32 0.929 . S
C15 C14 1.409 . S
C15 C16 1.380 . S
C15 H33 0.930 . S
C16 C15 1.380 . S
C16 C23 1.357 . S
C17 C8 1.511 . S
C17 C18 1.341 . S
C17 C19 1.371 . S
C18 C17 1.341 . S
C18 C22 1.394 . S
C18 H34 0.930 . S
C19 C17 1.371 . S
C19 C20 1.392 . S
C19 H35 0.931 . S
C20 C19 1.392 . S
C20 C21 1.331 . S
C20 H38 0.932 . S
C21 C20 1.331 . S
C21 C22 1.336 . S
C22 C18 1.394 . S
C22 C21 1.336 . S
C22 H37 0.929 1_554 S
C23 C13 1.386 . S
C23 C16 1.357 . S
C23 H36 0.928 . S
H24 C0 0.931 . S
H25 C2 0.930 . S
H26 C4 0.929 . S
H27 C5 0.931 . S
H28 C7 0.930 . S
H29 C11 0.931 . S
H30 C9 0.931 . S
H31 C13 0.931 . S
H32 C14 0.929 . S
H33 C15 0.930 . S
H34 C18 0.930 . S
H35 C19 0.931 . S
H36 C23 0.928 . S
H37 C22 0.929 1_556 S
H38 C20 0.932 . S
C39 C40 1.395 . S
C39 C41 1.397 . S
C39 H63 0.931 . S
C40 C39 1.395 . S
C40 C44 1.389 1_655 S
C41 C39 1.397 . S
C41 C42 1.389 1_556 S
C41 H64 0.930 . S
C42 C41 1.389 1_554 S
C42 C43 1.372 1_655 S
C42 C45 1.479 . S
C43 C42 1.372 1_455 S
C43 C44 1.389 1_554 S
C43 H65 0.929 . S
C44 C40 1.389 1_455 S
C44 C43 1.389 1_556 S
C44 H66 0.931 . S
C45 C42 1.479 . S
C45 C46 1.391 . S
C45 C50 1.390 . S
C46 C45 1.391 . S
C46 C47 1.401 . S
C46 H67 0.930 . S
C47 C46 1.401 . S
C47 C48 1.376 . S
C47 C56 1.515 . S
C48 C47 1.376 . S
C48 C49 1.393 . S
C48 H69 0.931 . S
C49 C48 1.393 . S
C49 C50 1.362 . S
C49 C51 1.499 1_655 S
C50 C45 1.390 . S
C50 C49 1.362 . S
C50 H68 0.930 . S
C51 C49 1.499 1_455 S
C51 C52 1.361 1_455 S
C51 C53 1.376 . S
C52 C51 1.361 1_655 S
C52 C62 1.386 . S
C52 H70 0.931 . S
C53 C51 1.376 . S
C53 C54 1.409 . S
C53 H71 0.929 . S
C54 C53 1.409 . S
C54 C55 1.380 . S
C54 H72 0.930 . S
C55 C54 1.380 . S
C55 C62 1.358 1_455 S
C56 C47 1.515 . S
C56 C57 1.341 . S
C56 C58 1.371 1_655 S
C57 C56 1.341 . S
C57 C61 1.394 . S
C57 H73 0.930 . S
C58 C56 1.371 1_455 S
C58 C59 1.392 . S
C58 H74 0.931 . S
C59 C58 1.392 . S
C59 C60 1.322 1_455 S
C59 H77 0.932 . S
C60 C59 1.322 1_655 S
C60 C61 1.344 . S
C61 C57 1.394 . S
C61 C60 1.344 . S
C61 H76 0.929 1_554 S
C62 C52 1.386 . S
C62 C55 1.358 1_655 S
C62 H75 0.928 . S
H63 C39 0.931 . S
H64 C41 0.930 . S
H65 C43 0.929 . S
H66 C44 0.931 . S
H67 C46 0.930 . S
H68 C50 0.930 . S
H69 C48 0.931 . S
H70 C52 0.931 . S
H71 C53 0.929 . S
H72 C54 0.930 . S
H73 C57 0.930 . S
H74 C58 0.931 . S
H75 C62 0.928 . S
H76 C61 0.929 1_556 S
H77 C59 0.932 . S
C78 C79 1.386 . S
C78 C80 1.397 . S
C78 H102 0.931 . S
C79 C78 1.386 . S
C79 C83 1.397 . S
C80 C78 1.397 . S
C80 C81 1.384 1_556 S
C80 H103 0.930 . S
C81 C80 1.384 1_554 S
C81 C82 1.377 . S
C81 C84 1.481 . S
C82 C81 1.377 . S
C82 C83 1.389 1_554 S
C82 H104 0.929 . S
C83 C79 1.397 . S
C83 C82 1.389 1_556 S
C83 H105 0.931 . S
C84 C81 1.481 . S
C84 C85 1.387 . S
C84 C89 1.390 . S
C85 C84 1.387 . S
C85 C86 1.401 . S
C85 H106 0.930 . S
C86 C85 1.401 . S
C86 C87 1.376 . S
C86 C95 1.511 . S
C87 C86 1.376 . S
C87 C88 1.392 . S
C87 H108 0.931 . S
C88 C87 1.392 . S
C88 C89 1.361 . S
C88 C90 1.500 . S
C89 C84 1.390 . S
C89 C88 1.361 . S
C89 H107 0.931 . S
C90 C88 1.500 . S
C90 C91 1.371 . S
C90 C92 1.365 . S
C91 C90 1.371 . S
C91 C101 1.386 . S
C91 H109 0.931 . S
C92 C90 1.365 . S
C92 C93 1.409 . S
C92 H110 0.929 . S
C93 C92 1.409 . S
C93 C94 1.380 . S
C93 H111 0.930 . S
C94 C93 1.380 . S
C94 C101 1.357 . S
C95 C86 1.511 . S
C95 C96 1.341 . S
C95 C97 1.371 . S
C96 C95 1.341 . S
C96 C100 1.394 . S
C96 H112 0.930 1_554 S
C97 C95 1.371 . S
C97 C98 1.392 . S
C97 H113 0.931 . S
C98 C97 1.392 . S
C98 C99 1.331 . S
C98 H116 0.932 . S
C99 C98 1.331 . S
C99 C100 1.336 . S
C100 C96 1.394 . S
C100 C99 1.336 . S
C100 H115 0.929 1_554 S
C101 C91 1.386 . S
C101 C94 1.357 . S
C101 H114 0.928 . S
H102 C78 0.931 . S
H103 C80 0.930 . S
H104 C82 0.929 . S
H105 C83 0.931 . S
H106 C85 0.930 . S
H107 C89 0.931 . S
H108 C87 0.931 . S
H109 C91 0.931 . S
H110 C92 0.929 . S
H111 C93 0.930 . S
H112 C96 0.930 1_556 S
H113 C97 0.931 . S
H114 C101 0.928 . S
H115 C100 0.929 1_556 S
H116 C98 0.932 . S
C117 C118 1.386 . S
C117 C119 1.397 . S
C117 H141 0.931 . S
C118 C117 1.386 . S
C118 C122 1.397 . S
C119 C117 1.397 . S
C119 C120 1.384 . S
C119 H142 0.930 . S
C120 C119 1.384 . S
C120 C121 1.377 . S
C120 C123 1.481 . S
C121 C120 1.377 . S
C121 C122 1.389 . S
C121 H143 0.929 . S
C122 C118 1.397 . S
C122 C121 1.389 . S
C122 H144 0.931 . S
C123 C120 1.481 . S
C123 C124 1.387 . S
C123 C128 1.390 . S
C124 C123 1.387 . S
C124 C125 1.401 . S
C124 H145 0.930 . S
C125 C124 1.401 . S
C125 C126 1.376 . S
C125 C134 1.511 . S
C126 C125 1.376 . S
C126 C127 1.392 . S
C126 H147 0.931 . S
C127 C126 1.392 . S
C127 C128 1.361 . S
C127 C129 1.500 . S
C128 C123 1.390 . S
C128 C127 1.361 . S
C128 H146 0.931 . S
C129 C127 1.500 . S
C129 C130 1.371 1_554 S
C129 C131 1.365 . S
C130 C129 1.371 1_556 S
C130 C140 1.386 . S
C130 H148 0.931 . S
C131 C129 1.365 . S
C131 C132 1.409 . S
C131 H149 0.929 . S
C132 C131 1.409 . S
C132 C133 1.380 1_554 S
C132 H150 0.930 . S
C133 C132 1.380 1_556 S
C133 C140 1.357 . S
C134 C125 1.511 . S
C134 C135 1.341 . S
C134 C136 1.371 . S
C135 C134 1.341 . S
C135 C139 1.394 . S
C135 H151 0.930 . S
C136 C134 1.371 . S
C136 C137 1.392 . S
C136 H152 0.941 . S
C137 C136 1.392 . S
C137 C138 1.331 . S
C137 H155 0.932 1_554 S
C138 C137 1.331 . S
C138 C139 1.336 . S
C139 C135 1.394 . S
C139 C138 1.336 . S
C139 H154 0.929 . S
C140 C130 1.386 . S
C140 C133 1.357 . S
C140 H153 0.928 . S
H141 C117 0.931 . S
H142 C119 0.930 . S
H143 C121 0.929 . S
H144 C122 0.931 . S
H145 C124 0.930 . S
H146 C128 0.931 . S
H147 C126 0.931 . S
H148 C130 0.931 . S
H149 C131 0.929 . S
H150 C132 0.930 . S
H151 C135 0.930 . S
H152 C136 0.941 . S
H153 C140 0.928 . S
H154 C139 0.929 . S
H155 C137 0.932 1_556 S
C156 C157 1.386 . S
C156 C158 1.397 . S
C156 H180 0.931 . S
C157 C156 1.386 . S
C157 C161 1.397 . S
C158 C156 1.397 . S
C158 C159 1.384 . S
C158 H181 0.930 . S
C159 C158 1.384 . S
C159 C160 1.377 . S
C159 C162 1.481 . S
C160 C159 1.377 . S
C160 C161 1.389 . S
C160 H182 0.929 . S
C161 C157 1.397 . S
C161 C160 1.389 . S
C161 H183 0.931 . S
C162 C159 1.481 . S
C162 C163 1.387 . S
C162 C167 1.390 . S
C163 C162 1.387 . S
C163 C164 1.401 . S
C163 H184 0.930 . S
C164 C163 1.401 . S
C164 C165 1.376 . S
C164 C173 1.511 . S
C165 C164 1.376 . S
C165 C166 1.392 . S
C165 H186 0.931 . S
C166 C165 1.392 . S
C166 C167 1.361 . S
C166 C168 1.500 . S
C167 C162 1.390 . S
C167 C166 1.361 . S
C167 H185 0.931 . S
C168 C166 1.500 . S
C168 C169 1.371 . S
C168 C170 1.365 . S
C169 C168 1.371 . S
C169 C179 1.386 . S
C169 H187 0.931 . S
C170 C168 1.365 . S
C170 C171 1.409 . S
C170 H188 0.929 . S
C171 C170 1.409 . S
C171 C172 1.380 . S
C171 H189 0.930 . S
C172 C171 1.380 . S
C172 C179 1.357 . S
C173 C164 1.511 . S
C173 C174 1.341 . S
C173 C175 1.371 . S
C174 C173 1.341 . S
C174 C178 1.394 . S
C174 H190 0.930 . S
C175 C173 1.371 . S
C175 C176 1.392 . S
C175 H191 0.931 . S
C176 C175 1.392 . S
C176 C177 1.331 . S
C176 H194 0.932 . S
C177 C176 1.331 . S
C177 C178 1.336 . S
C178 C174 1.394 . S
C178 C177 1.336 . S
C178 H193 0.929 . S
C179 C169 1.386 . S
C179 C172 1.357 . S
C179 H192 0.928 . S
H180 C156 0.931 . S
H181 C158 0.930 . S
H182 C160 0.929 . S
H183 C161 0.931 . S
H184 C163 0.930 . S
H185 C167 0.931 . S
H186 C165 0.931 . S
H187 C169 0.931 . S
H188 C170 0.929 . S
H189 C171 0.930 . S
H190 C174 0.930 . S
H191 C175 0.931 . S
H192 C179 0.928 . S
H193 C178 0.929 . S
H194 C176 0.932 . S
C195 C196 1.388 . S
C195 C197 1.397 . S
C195 H219 0.931 . S
C196 C195 1.388 . S
C196 C200 1.395 1_655 S
C197 C195 1.397 . S
C197 C198 1.382 . S
C197 H220 0.930 . S
C198 C197 1.382 . S
C198 C199 1.379 1_655 S
C198 C201 1.482 . S
C199 C198 1.379 1_455 S
C199 C200 1.389 . S
C199 H221 0.929 . S
C200 C196 1.395 1_455 S
C200 C199 1.389 . S
C200 H222 0.931 . S
C201 C198 1.482 . S
C201 C202 1.386 . S
C201 C206 1.390 . S
C202 C201 1.386 . S
C202 C203 1.403 . S
C202 H223 0.930 . S
C203 C202 1.403 . S
C203 C204 1.376 . S
C203 C212 1.511 . S
C204 C203 1.376 . S
C204 C205 1.394 1_655 S
C204 H225 0.932 . S
C205 C204 1.394 1_455 S
C205 C206 1.361 1_455 S
C205 C207 1.499 . S
C206 C201 1.390 . S
C206 C205 1.361 1_655 S
C206 H224 0.931 . S
C207 C205 1.499 . S
C207 C208 1.358 1_455 S
C207 C209 1.379 . S
C208 C207 1.358 1_655 S
C208 C218 1.386 . S
C208 H226 0.931 . S
C209 C207 1.379 . S
C209 C210 1.409 . S
C209 H227 0.929 . S
C210 C209 1.409 . S
C210 C211 1.384 . S
C210 H228 0.930 . S
C211 C210 1.384 . S
C211 C218 1.354 1_455 S
C212 C203 1.511 . S
C212 C213 1.341 . S
C212 C214 1.371 1_655 S
C213 C212 1.341 . S
C213 C217 1.394 . S
C213 H229 0.930 . S
C214 C212 1.371 1_455 S
C214 C215 1.392 . S
C214 H230 0.931 . S
C215 C214 1.392 . S
C215 C216 1.325 1_455 S
C215 H233 0.932 . S
C216 C215 1.325 1_655 S
C216 C217 1.343 . S
C217 C213 1.394 . S
C217 C216 1.343 . S
C217 H232 0.929 . S
C218 C208 1.386 . S
C218 C211 1.354 1_655 S
C218 H231 0.928 . S
H219 C195 0.931 . S
H220 C197 0.930 . S
H221 C199 0.929 . S
H222 C200 0.931 . S
H223 C202 0.930 . S
H224 C206 0.931 . S
H225 C204 0.932 . S
H226 C208 0.931 . S
H227 C209 0.929 . S
H228 C210 0.930 . S
H229 C213 0.930 . S
H230 C214 0.931 . S
H231 C218 0.928 . S
H232 C217 0.929 . S
H233 C215 0.932 . S
C234 C235 1.386 . S
C234 C236 1.397 . S
C234 H258 0.931 . S
C235 C234 1.386 . S
C235 C239 1.397 . S
C236 C234 1.397 . S
C236 C237 1.384 . S
C236 H259 0.930 . S
C237 C236 1.384 . S
C237 C238 1.377 . S
C237 C240 1.481 . S
C238 C237 1.377 . S
C238 C239 1.389 . S
C238 H260 0.929 . S
C239 C235 1.397 . S
C239 C238 1.389 . S
C239 H261 0.931 . S
C240 C237 1.481 . S
C240 C241 1.387 . S
C240 C245 1.390 . S
C241 C240 1.387 . S
C241 C242 1.401 . S
C241 H262 0.930 . S
C242 C241 1.401 . S
C242 C243 1.376 . S
C242 C251 1.511 . S
C243 C242 1.376 . S
C243 C244 1.392 . S
C243 H264 0.931 . S
C244 C243 1.392 . S
C244 C245 1.361 . S
C244 C246 1.500 . S
C245 C240 1.390 . S
C245 C244 1.361 . S
C245 H263 0.931 . S
C246 C244 1.500 . S
C246 C247 1.371 . S
C246 C248 1.365 . S
C247 C246 1.371 . S
C247 C257 1.386 . S
C247 H265 0.931 . S
C248 C246 1.365 . S
C248 C249 1.409 . S
C248 H266 0.929 . S
C249 C248 1.409 . S
C249 C250 1.380 . S
C249 H267 0.930 . S
C250 C249 1.380 . S
C250 C257 1.357 . S
C251 C242 1.511 . S
C251 C252 1.341 . S
C251 C253 1.371 . S
C252 C251 1.341 . S
C252 C256 1.394 . S
C252 H268 0.930 . S
C253 C251 1.371 . S
C253 C254 1.392 . S
C253 H269 0.931 . S
C254 C253 1.392 . S
C254 C255 1.331 . S
C254 H272 0.932 . S
C255 C254 1.331 . S
C255 C256 1.336 . S
C256 C252 1.394 . S
C256 C255 1.336 . S
C256 H271 0.929 . S
C257 C247 1.386 . S
C257 C250 1.357 . S
C257 H270 0.928 . S
H258 C234 0.931 . S
H259 C236 0.930 . S
H260 C238 0.929 . S
H261 C239 0.931 . S
H262 C241 0.930 . S
H263 C245 0.931 . S
H264 C243 0.931 . S
H265 C247 0.931 . S
H266 C248 0.929 . S
H267 C249 0.930 . S
H268 C252 0.930 . S
H269 C253 0.931 . S
H270 C257 0.928 . S
H271 C256 0.929 . S
H272 C254 0.932 . S
C273 C274 1.386 . S
C273 C275 1.397 . S
C273 H297 0.931 . S
C274 C273 1.386 . S
C274 C278 1.397 . S
C275 C273 1.397 . S
C275 C276 1.384 . S
C275 H298 0.930 . S
C276 C275 1.384 . S
C276 C277 1.377 . S
C276 C279 1.481 . S
C277 C276 1.377 . S
C277 C278 1.389 . S
C277 H299 0.929 . S
C278 C274 1.397 . S
C278 C277 1.389 . S
C278 H300 0.931 . S
C279 C276 1.481 . S
C279 C280 1.387 . S
C279 C284 1.390 . S
C280 C279 1.387 . S
C280 C281 1.401 . S
C280 H301 0.930 . S
C281 C280 1.401 . S
C281 C282 1.376 . S
C281 C290 1.511 . S
C282 C281 1.376 . S
C282 C283 1.392 . S
C282 H303 0.931 . S
C283 C282 1.392 . S
C283 C284 1.361 . S
C283 C285 1.500 . S
C284 C279 1.390 . S
C284 C283 1.361 . S
C284 H302 0.931 . S
C285 C283 1.500 . S
C285 C286 1.371 . S
C285 C287 1.365 . S
C286 C285 1.371 . S
C286 C296 1.386 . S
C286 H304 0.931 . S
C287 C285 1.365 . S
C287 C288 1.409 . S
C287 H305 0.929 . S
C288 C287 1.409 . S
C288 C289 1.380 . S
C288 H306 0.930 . S
C289 C288 1.380 . S
C289 C296 1.357 . S
C290 C281 1.511 . S
C290 C291 1.341 . S
C290 C292 1.371 . S
C291 C290 1.341 . S
C291 C295 1.394 . S
C291 H307 0.930 . S
C292 C290 1.371 . S
C292 C293 1.392 . S
C292 H308 0.931 . S
C293 C292 1.392 . S
C293 C294 1.331 . S
C293 H311 0.932 . S
C294 C293 1.331 . S
C294 C295 1.336 . S
C295 C291 1.394 . S
C295 C294 1.336 . S
C295 H310 0.929 . S
C296 C286 1.386 . S
C296 C289 1.357 . S
C296 H309 0.928 . S
H297 C273 0.931 . S
H298 C275 0.930 . S
H299 C277 0.929 . S
H300 C278 0.931 . S
H301 C280 0.930 . S
H302 C284 0.931 . S
H303 C282 0.931 . S
H304 C286 0.931 . S
H305 C287 0.929 . S
H306 C288 0.930 . S
H307 C291 0.930 . S
H308 C292 0.931 . S
H309 C296 0.928 . S
H310 C295 0.929 . S
H311 C293 0.932 . S
Co312 N317 2.057 . S
Co312 O329 2.021 . S
Co312 O332 2.062 1_455 S
Co312 O336 2.117 1_455 S
Co312 O337 2.020 1_545 S
C313 O333 1.259 1_545 S
C313 O336 1.258 . S
Co314 N323 2.079 . S
Co314 O330 2.108 1_665 S
Co314 O331 1.989 1_565 S
Co314 O333 2.025 . S
Co314 O338 2.086 1_655 S
C315 N317 1.316 . S
C315 N318 1.347 . S
C315 H320 0.931 . S
C316 N317 1.375 1_655 S
C316 C319 1.350 . S
C316 H321 0.930 . S
N317 Co312 2.057 . S
N317 C315 1.316 . S
N317 C316 1.375 1_455 S
N318 C315 1.347 . S
N318 C319 1.373 1_455 S
C319 C316 1.350 . S
C319 N318 1.373 1_655 S
C319 H340 0.931 1_556 S
H320 C315 0.931 . S
H321 C316 0.930 . S
C322 O329 1.259 . S
C322 O330 1.258 . S
N323 Co314 2.079 . S
N323 C324 1.316 . S
N323 C325 1.375 1_655 S
C324 N323 1.316 . S
C324 N326 1.347 . S
C324 H335 0.931 . S
C325 N323 1.375 1_455 S
C325 C327 1.350 . S
C325 H334 0.930 . S
N326 C324 1.347 . S
N326 C327 1.373 1_655 S
C327 C325 1.350 . S
C327 N326 1.373 1_455 S
C327 H341 0.931 . S
C328 O331 1.256 . S
C328 O332 1.255 . S
O329 Co312 2.021 . S
O329 C322 1.259 . S
O330 Co314 2.108 1_445 S
O330 C322 1.258 . S
O331 Co314 1.989 1_545 S
O331 C328 1.256 . S
O332 Co312 2.062 1_655 S
O332 C328 1.255 . S
O333 C313 1.259 1_565 S
O333 Co314 2.025 . S
H334 C325 0.930 . S
H335 C324 0.931 . S
O336 Co312 2.117 1_655 S
O336 C313 1.258 . S
O337 Co312 2.020 1_565 S
O337 C339 1.256 . S
O338 Co314 2.086 1_455 S
O338 C339 1.255 . S
C339 O337 1.256 . S
C339 O338 1.255 . S
H340 C319 0.931 1_554 S
H341 C327 0.931 . S
Co342 N347 2.057 . S
Co342 O359 2.021 . S
Co342 O362 2.062 . S
Co342 O366 2.117 1_545 S
Co342 O367 2.020 . S
C343 O363 1.259 . S
C343 O366 1.258 . S
Co344 N353 2.057 1_545 S
Co344 O360 2.117 . S
Co344 O361 2.020 . S
Co344 O363 2.021 1_545 S
Co344 O368 2.062 1_545 S
C345 N347 1.316 . S
C345 N348 1.347 . S
C345 H350 0.931 . S
C346 N347 1.375 . S
C346 C349 1.350 1_556 S
C346 H351 0.930 1_545 S
N347 Co342 2.057 . S
N347 C345 1.316 . S
N347 C346 1.375 . S
N348 C345 1.347 . S
N348 C349 1.373 1_556 S
C349 C346 1.350 1_554 S
C349 N348 1.373 1_554 S
C349 H370 0.931 . S
H350 C345 0.931 . S
H351 C346 0.930 1_565 S
C352 O359 1.259 . S
C352 O360 1.258 . S
N353 Co344 2.057 1_565 S
N353 C354 1.313 . S
N353 C355 1.377 1_565 S
C354 N353 1.313 . S
C354 N356 1.347 . S
C354 H365 0.931 . S
C355 N353 1.377 1_545 S
C355 C357 1.350 . S
C355 H364 0.930 . S
N356 C354 1.347 . S
N356 C357 1.373 1_565 S
C357 C355 1.350 . S
C357 N356 1.373 1_545 S
C357 H371 0.931 . S
C358 O361 1.256 . S
C358 O362 1.255 . S
O359 Co342 2.021 . S
O359 C352 1.259 . S
O360 Co344 2.117 . S
O360 C352 1.258 . S
O361 Co344 2.020 . S
O361 C358 1.256 . S
O362 Co342 2.062 . S
O362 C358 1.255 . S
O363 C343 1.259 . S
O363 Co344 2.021 1_565 S
H364 C355 0.930 . S
H365 C354 0.931 . S
O366 Co342 2.117 1_565 S
O366 C343 1.258 . S
O367 Co342 2.020 . S
O367 C369 1.256 . S
O368 Co344 2.062 1_565 S
O368 C369 1.255 1_565 S
C369 O367 1.256 . S
C369 O368 1.255 1_545 S
H370 C349 0.931 . S
H371 C357 0.931 . S
Co372 N377 2.057 . S
Co372 O389 2.021 . S
Co372 O392 2.062 . S
Co372 O396 2.117 . S
Co372 O397 2.020 . S
C373 O393 1.259 . S
C373 O396 1.258 . S
Co374 N383 2.057 . S
Co374 O390 2.117 . S
Co374 O391 2.020 . S
Co374 O393 2.021 . S
Co374 O398 2.062 . S
C375 N377 1.316 . S
C375 N378 1.347 . S
C375 H380 0.931 . S
C376 N377 1.375 . S
C376 C379 1.350 . S
C376 H381 0.930 . S
N377 Co372 2.057 . S
N377 C375 1.316 . S
N377 C376 1.375 . S
N378 C375 1.347 . S
N378 C379 1.373 . S
C379 C376 1.350 . S
C379 N378 1.373 . S
C379 H400 0.931 . S
H380 C375 0.931 . S
H381 C376 0.930 . S
C382 O389 1.259 . S
C382 O390 1.258 . S
N383 Co374 2.057 . S
N383 C384 1.316 . S
N383 C385 1.375 . S
C384 N383 1.316 . S
C384 N386 1.347 . S
C384 H395 0.931 . S
C385 N383 1.375 . S
C385 C387 1.350 . S
C385 H394 0.930 . S
N386 C384 1.347 . S
N386 C387 1.373 . S
C387 C385 1.350 . S
C387 N386 1.373 . S
C387 H401 0.931 . S
C388 O391 1.256 . S
C388 O392 1.255 . S
O389 Co372 2.021 . S
O389 C382 1.259 . S
O390 Co374 2.117 . S
O390 C382 1.258 . S
O391 Co374 2.020 . S
O391 C388 1.256 . S
O392 Co372 2.062 . S
O392 C388 1.255 . S
O393 C373 1.259 . S
O393 Co374 2.021 . S
H394 C385 0.930 . S
H395 C384 0.931 . S
O396 Co372 2.117 . S
O396 C373 1.258 . S
O397 Co372 2.020 . S
O397 C399 1.256 . S
O398 Co374 2.062 . S
O398 C399 1.255 . S
C399 O397 1.256 . S
C399 O398 1.255 . S
H400 C379 0.931 . S
H401 C387 0.931 . S
Co402 N407 2.057 . S
Co402 O419 2.021 1_455 S
Co402 O422 2.062 1_455 S
Co402 O426 2.117 . S
Co402 O427 2.020 . S
C403 O423 1.259 . S
C403 O426 1.258 . S
Co404 N413 2.057 . S
Co404 O420 2.117 . S
Co404 O421 2.020 . S
Co404 O423 2.021 1_655 S
Co404 O428 2.062 1_655 S
C405 N407 1.316 . S
C405 N408 1.347 . S
C405 H410 0.931 1_455 S
C406 N407 1.375 . S
C406 C409 1.350 . S
C406 H411 0.930 . S
N407 Co402 2.057 . S
N407 C405 1.316 . S
N407 C406 1.375 . S
N408 C405 1.347 . S
N408 C409 1.373 . S
C409 C406 1.350 . S
C409 N408 1.373 . S
C409 H430 0.931 . S
H410 C405 0.931 1_655 S
H411 C406 0.930 . S
C412 O419 1.259 . S
C412 O420 1.258 . S
N413 Co404 2.057 . S
N413 C414 1.316 . S
N413 C415 1.375 . S
C414 N413 1.316 . S
C414 N416 1.347 . S
C414 H425 0.931 1_655 S
C415 N413 1.375 . S
C415 C417 1.350 . S
C415 H424 0.930 . S
N416 C414 1.347 . S
N416 C417 1.373 . S
C417 C415 1.350 . S
C417 N416 1.373 . S
C417 H431 0.931 . S
C418 O421 1.256 . S
C418 O422 1.255 . S
O419 Co402 2.021 1_655 S
O419 C412 1.259 . S
O420 Co404 2.117 . S
O420 C412 1.258 . S
O421 Co404 2.020 . S
O421 C418 1.256 . S
O422 Co402 2.062 1_655 S
O422 C418 1.255 . S
O423 C403 1.259 . S
O423 Co404 2.021 1_455 S
H424 C415 0.930 . S
H425 C414 0.931 1_455 S
O426 Co402 2.117 . S
O426 C403 1.258 . S
O427 Co402 2.020 . S
O427 C429 1.256 . S
O428 Co404 2.062 1_455 S
O428 C429 1.255 . S
C429 O427 1.256 . S
C429 O428 1.255 . S
H430 C409 0.931 . S
H431 C417 0.931 . S
H432 C438 0.930 . S
H433 C441 0.930 . S
H434 C442 0.930 . S
H435 C443 0.930 . S
H436 C446 0.930 . S
H437 C447 0.930 . S
C438 H432 0.930 . S
C438 C439 1.355 . S
C438 C440 1.415 . S
C439 C438 1.355 . S
C439 C441 1.419 . S
C440 C438 1.415 . S
C440 C445 1.425 . S
C440 C447 1.409 . S
C441 H433 0.930 . S
C441 C439 1.419 . S
C441 C442 1.362 . S
C442 H434 0.930 . S
C442 C441 1.362 . S
C442 C445 1.409 . S
C443 H435 0.930 . S
C443 C444 1.355 . S
C443 C445 1.415 . S
C444 C443 1.355 . S
C444 C446 1.419 . S
C445 C440 1.425 . S
C445 C442 1.409 . S
C445 C443 1.415 . S
C446 H436 0.930 . S
C446 C444 1.419 . S
C446 C447 1.362 . S
C447 H437 0.930 . S
C447 C440 1.409 . S
C447 C446 1.362 . S
H448 C454 0.930 . S
H449 C457 0.930 . S
H450 C458 0.930 . S
H451 C459 0.930 . S
H452 C462 0.930 . S
H453 C463 0.930 . S
C454 H448 0.930 . S
C454 C455 1.355 . S
C454 C456 1.415 . S
C455 C454 1.355 . S
C455 C457 1.419 . S
C456 C454 1.415 . S
C456 C461 1.425 . S
C456 C463 1.409 . S
C457 H449 0.930 . S
C457 C455 1.419 . S
C457 C458 1.362 . S
C458 H450 0.930 . S
C458 C457 1.362 . S
C458 C461 1.409 . S
C459 H451 0.930 . S
C459 C460 1.355 . S
C459 C461 1.415 . S
C460 C459 1.355 . S
C460 C462 1.419 . S
C461 C456 1.425 . S
C461 C458 1.409 . S
C461 C459 1.415 . S
C462 H452 0.930 . S
C462 C460 1.419 . S
C462 C463 1.362 . S
C463 H453 0.930 . S
C463 C456 1.409 . S
C463 C462 1.362 . S
H464 C470 0.930 . S
H465 C473 0.930 . S
H466 C474 0.930 . S
H467 C475 0.930 . S
H468 C478 0.930 . S
H469 C479 0.930 . S
C470 H464 0.930 . S
C470 C471 1.355 . S
C470 C472 1.415 . S
C471 C470 1.355 . S
C471 C473 1.419 . S
C472 C470 1.415 . S
C472 C477 1.425 . S
C472 C479 1.409 . S
C473 H465 0.930 . S
C473 C471 1.419 . S
C473 C474 1.362 . S
C474 H466 0.930 . S
C474 C473 1.362 . S
C474 C477 1.409 . S
C475 H467 0.930 . S
C475 C476 1.355 . S
C475 C477 1.415 . S
C476 C475 1.355 . S
C476 C478 1.419 . S
C477 C472 1.425 . S
C477 C474 1.409 . S
C477 C475 1.415 . S
C478 H468 0.930 . S
C478 C476 1.419 . S
C478 C479 1.362 . S
C479 H469 0.930 . S
C479 C472 1.409 . S
C479 C478 1.362 . S
H480 C486 0.930 . S
H481 C489 0.931 . S
H482 C490 0.930 . S
H483 C491 0.930 . S
H484 C494 0.930 . S
H485 C495 0.930 . S
C486 H480 0.930 . S
C486 C487 1.356 . S
C486 C488 1.415 . S
C487 C486 1.356 . S
C487 C489 1.423 . S
C488 C486 1.415 . S
C488 C493 1.425 . S
C488 C495 1.409 . S
C489 H481 0.931 . S
C489 C487 1.423 . S
C489 C490 1.362 . S
C490 H482 0.930 . S
C490 C489 1.362 . S
C490 C493 1.409 . S
C491 H483 0.930 . S
C491 C492 1.355 . S
C491 C493 1.415 . S
C492 C491 1.355 . S
C492 C494 1.419 . S
C493 C488 1.425 . S
C493 C490 1.409 . S
C493 C491 1.415 . S
C494 H484 0.930 . S
C494 C492 1.419 . S
C494 C495 1.362 . S
C495 H485 0.930 . S
C495 C488 1.409 . S
C495 C494 1.362 . S
H496 C502 0.930 . S
H497 C505 0.930 . S
H498 C506 0.930 . S
H499 C507 0.930 . S
H500 C510 0.930 . S
H501 C511 0.930 1_545 S
C502 H496 0.930 . S
C502 C503 1.347 1_556 S
C502 C504 1.415 . S
C503 C502 1.347 1_554 S
C503 C505 1.422 . S
C504 C502 1.415 . S
C504 C509 1.425 . S
C504 C511 1.409 . S
C505 H497 0.930 . S
C505 C503 1.422 . S
C505 C506 1.362 1_554 S
C506 H498 0.930 . S
C506 C505 1.362 1_556 S
C506 C509 1.409 . S
C507 H499 0.930 . S
C507 C508 1.355 . S
C507 C509 1.415 . S
C508 C507 1.355 . S
C508 C510 1.419 1_565 S
C509 C504 1.425 . S
C509 C506 1.409 . S
C509 C507 1.415 . S
C510 H500 0.930 . S
C510 C508 1.419 1_545 S
C510 C511 1.362 1_545 S
C511 H501 0.930 1_565 S
C511 C504 1.409 . S
C511 C510 1.362 1_565 S
H512 C518 0.930 . S
H513 C521 0.930 . S
H514 C522 0.930 . S
H515 C523 0.930 . S
H516 C526 0.930 . S
H517 C527 0.930 . S
C518 H512 0.930 . S
C518 C519 1.355 1_556 S
C518 C520 1.415 . S
C519 C518 1.355 1_554 S
C519 C521 1.419 . S
C520 C518 1.415 . S
C520 C525 1.425 . S
C520 C527 1.409 . S
C521 H513 0.930 . S
C521 C519 1.419 . S
C521 C522 1.362 . S
C522 H514 0.930 . S
C522 C521 1.362 . S
C522 C525 1.409 1_554 S
C523 H515 0.930 . S
C523 C524 1.355 . S
C523 C525 1.415 . S
C524 C523 1.355 . S
C524 C526 1.419 . S
C525 C520 1.425 . S
C525 C522 1.409 1_556 S
C525 C523 1.415 . S
C526 H516 0.930 . S
C526 C524 1.419 . S
C526 C527 1.362 . S
C527 H517 0.930 . S
C527 C520 1.409 . S
C527 C526 1.362 . S
H528 C534 0.930 . S
H529 C537 0.930 . S
H530 C538 0.930 . S
H531 C539 0.930 . S
H532 C542 0.930 . S
H533 C543 0.930 . S
C534 H528 0.930 . S
C534 C535 1.355 1_556 S
C534 C536 1.415 . S
C535 C534 1.355 1_554 S
C535 C537 1.419 . S
C536 C534 1.415 . S
C536 C541 1.425 . S
C536 C543 1.409 . S
C537 H529 0.930 . S
C537 C535 1.419 . S
C537 C538 1.362 . S
C538 H530 0.930 . S
C538 C537 1.362 . S
C538 C541 1.409 1_554 S
C539 H531 0.930 . S
C539 C540 1.355 . S
C539 C541 1.415 . S
C540 C539 1.355 . S
C540 C542 1.419 . S
C541 C536 1.425 . S
C541 C538 1.409 1_556 S
C541 C539 1.415 . S
C542 H532 0.930 . S
C542 C540 1.419 . S
C542 C543 1.362 . S
C543 H533 0.930 . S
C543 C536 1.409 . S
C543 C542 1.362 . S
H544 C550 0.930 . S
H545 C553 0.930 . S
H546 C554 0.930 . S
H547 C555 0.930 . S
H548 C558 0.930 . S
H549 C559 0.930 1_554 S
C550 H544 0.930 . S
C550 C551 1.355 . S
C550 C552 1.415 1_554 S
C551 C550 1.355 . S
C551 C553 1.419 1_454 S
C552 C550 1.415 1_556 S
C552 C557 1.425 . S
C552 C559 1.409 . S
C553 H545 0.930 . S
C553 C551 1.419 1_656 S
C553 C554 1.362 . S
C554 H546 0.930 . S
C554 C553 1.362 . S
C554 C557 1.409 1_655 S
C555 H547 0.930 . S
C555 C556 1.355 . S
C555 C557 1.415 . S
C556 C555 1.355 . S
C556 C558 1.419 . S
C557 C552 1.425 . S
C557 C554 1.409 1_455 S
C557 C555 1.415 . S
C558 H548 0.930 . S
C558 C556 1.419 . S
C558 C559 1.362 . S
C559 H549 0.930 1_556 S
C559 C552 1.409 . S
C559 C558 1.362 . S
H560 C566 0.930 . S
H561 C569 0.930 . S
H562 C570 0.930 . S
H563 C571 0.930 1_455 S
H564 C574 0.930 . S
H565 C575 0.930 . S
C566 H560 0.930 . S
C566 C567 1.355 1_655 S
C566 C568 1.415 . S
C567 C566 1.355 1_455 S
C567 C569 1.419 . S
C568 C566 1.415 . S
C568 C573 1.425 1_655 S
C568 C575 1.409 . S
C569 H561 0.930 . S
C569 C567 1.419 . S
C569 C570 1.362 . S
C570 H562 0.930 . S
C570 C569 1.362 . S
C570 C573 1.409 . S
C571 H563 0.930 1_655 S
C571 C572 1.355 . S
C571 C573 1.415 1_655 S
C572 C571 1.355 . S
C572 C574 1.419 . S
C573 C568 1.425 1_455 S
C573 C570 1.409 . S
C573 C571 1.415 1_455 S
C574 H564 0.930 . S
C574 C572 1.419 . S
C574 C575 1.362 . S
C575 H565 0.930 . S
C575 C568 1.409 . S
C575 C574 1.362 . S
H576 C582 0.930 . S
H577 C585 0.930 . S
H578 C586 0.930 . S
H579 C587 0.930 . S
H580 C590 0.930 . S
H581 C591 0.930 . S
C582 H576 0.930 . S
C582 C583 1.355 . S
C582 C584 1.415 . S
C583 C582 1.355 . S
C583 C585 1.419 . S
C584 C582 1.415 . S
C584 C589 1.425 . S
C584 C591 1.409 . S
C585 H577 0.930 . S
C585 C583 1.419 . S
C585 C586 1.362 . S
C586 H578 0.930 . S
C586 C585 1.362 . S
C586 C589 1.409 . S
C587 H579 0.930 . S
C587 C588 1.355 . S
C587 C589 1.415 . S
C588 C587 1.355 . S
C588 C590 1.419 . S
C589 C584 1.425 . S
C589 C586 1.409 . S
C589 C587 1.415 . S
C590 H580 0.930 . S
C590 C588 1.419 . S
C590 C591 1.362 . S
C591 H581 0.930 . S
C591 C584 1.409 . S
C591 C590 1.362 . S
H592 C598 0.930 . S
H593 C601 0.930 . S
H594 C602 0.930 . S
H595 C603 0.930 . S
H596 C606 0.930 . S
H597 C607 0.930 . S
C598 H592 0.930 . S
C598 C599 1.355 . S
C598 C600 1.415 . S
C599 C598 1.355 . S
C599 C601 1.419 . S
C600 C598 1.415 . S
C600 C605 1.425 . S
C600 C607 1.409 . S
C601 H593 0.930 . S
C601 C599 1.419 . S
C601 C602 1.362 . S
C602 H594 0.930 . S
C602 C601 1.362 . S
C602 C605 1.409 . S
C603 H595 0.930 . S
C603 C604 1.355 . S
C603 C605 1.415 . S
C604 C603 1.355 . S
C604 C606 1.419 . S
C605 C600 1.425 . S
C605 C602 1.409 . S
C605 C603 1.415 . S
C606 H596 0.930 . S
C606 C604 1.419 . S
C606 C607 1.362 . S
C607 H597 0.930 . S
C607 C600 1.409 . S
C607 C606 1.362 . S
H608 C614 0.930 . S
H609 C617 0.930 . S
H610 C618 0.930 . S
H611 C619 0.930 . S
H612 C622 0.930 . S
H613 C623 0.930 . S
C614 H608 0.930 . S
C614 C615 1.355 . S
C614 C616 1.415 . S
C615 C614 1.355 . S
C615 C617 1.419 . S
C616 C614 1.415 . S
C616 C621 1.425 . S
C616 C623 1.409 . S
C617 H609 0.930 . S
C617 C615 1.419 . S
C617 C618 1.362 . S
C618 H610 0.930 . S
C618 C617 1.362 . S
C618 C621 1.409 . S
C619 H611 0.930 . S
C619 C620 1.355 . S
C619 C621 1.415 . S
C620 C619 1.355 . S
C620 C622 1.419 . S
C621 C616 1.425 . S
C621 C618 1.409 . S
C621 C619 1.415 . S
C622 H612 0.930 . S
C622 C620 1.419 . S
C622 C623 1.362 . S
C623 H613 0.930 . S
C623 C616 1.409 . S
C623 C622 1.362 . S
H624 C630 0.930 . S
H625 C633 0.930 . S
H626 C634 0.930 . S
H627 C635 0.930 . S
H628 C638 0.930 . S
H629 C639 0.930 . S
C630 H624 0.930 . S
C630 C631 1.372 . S
C630 C632 1.415 . S
C631 C630 1.372 . S
C631 C633 1.389 1_655 S
C632 C630 1.415 . S
C632 C637 1.425 1_655 S
C632 C639 1.409 . S
C633 H625 0.930 . S
C633 C631 1.389 1_455 S
C633 C634 1.362 . S
C634 H626 0.930 . S
C634 C633 1.362 . S
C634 C637 1.409 . S
C635 H627 0.930 . S
C635 C636 1.355 . S
C635 C637 1.415 . S
C636 C635 1.355 . S
C636 C638 1.419 1_455 S
C637 C632 1.425 1_455 S
C637 C634 1.409 . S
C637 C635 1.415 . S
C638 H628 0.930 . S
C638 C636 1.419 1_655 S
C638 C639 1.362 . S
C639 H629 0.930 . S
C639 C632 1.409 . S
C639 C638 1.362 . S
H640 C646 0.930 . S
H641 C649 0.930 . S
H642 C650 0.930 . S
H643 C651 0.930 . S
H644 C654 0.930 . S
H645 C655 0.930 . S
C646 H640 0.930 . S
C646 C647 1.355 . S
C646 C648 1.415 . S
C647 C646 1.355 . S
C647 C649 1.419 . S
C648 C646 1.415 . S
C648 C653 1.425 . S
C648 C655 1.409 1_565 S
C649 H641 0.930 . S
C649 C647 1.419 . S
C649 C650 1.362 . S
C650 H642 0.930 . S
C650 C649 1.362 . S
C650 C653 1.409 . S
C651 H643 0.930 . S
C651 C652 1.355 1_565 S
C651 C653 1.415 . S
C652 C651 1.355 1_545 S
C652 C654 1.419 . S
C653 C648 1.425 . S
C653 C650 1.409 . S
C653 C651 1.415 . S
C654 H644 0.930 . S
C654 C652 1.419 . S
C654 C655 1.362 . S
C655 H645 0.930 . S
C655 C648 1.409 1_545 S
C655 C654 1.362 . S
H656 C662 0.930 . S
H657 C665 0.930 . S
H658 C666 0.930 . S
H659 C667 0.930 . S
H660 C670 0.930 . S
H661 C671 0.930 . S
C662 H656 0.930 . S
C662 C663 1.355 . S
C662 C664 1.415 . S
C663 C662 1.355 . S
C663 C665 1.419 . S
C664 C662 1.415 . S
C664 C669 1.425 . S
C664 C671 1.409 . S
C665 H657 0.930 . S
C665 C663 1.419 . S
C665 C666 1.362 . S
C666 H658 0.930 . S
C666 C665 1.362 . S
C666 C669 1.409 . S
C667 H659 0.930 . S
C667 C668 1.355 . S
C667 C669 1.415 . S
C668 C667 1.355 . S
C668 C670 1.419 . S
C669 C664 1.425 . S
C669 C666 1.409 . S
C669 C667 1.415 . S
C670 H660 0.930 . S
C670 C668 1.419 . S
C670 C671 1.362 . S
C671 H661 0.930 . S
C671 C664 1.409 . S
C671 C670 1.362 . S
H672 C678 0.930 . S
H673 C681 0.930 . S
H674 C682 0.930 . S
H675 C683 0.930 . S
H676 C686 0.930 . S
H677 C687 0.930 . S
C678 H672 0.930 . S
C678 C679 1.355 . S
C678 C680 1.415 . S
C679 C678 1.355 . S
C679 C681 1.419 . S
C680 C678 1.415 . S
C680 C685 1.425 . S
C680 C687 1.409 . S
C681 H673 0.930 . S
C681 C679 1.419 . S
C681 C682 1.362 . S
C682 H674 0.930 . S
C682 C681 1.362 . S
C682 C685 1.409 . S
C683 H675 0.930 . S
C683 C684 1.355 . S
C683 C685 1.415 . S
C684 C683 1.355 . S
C684 C686 1.419 . S
C685 C680 1.425 . S
C685 C682 1.409 . S
C685 C683 1.415 . S
C686 H676 0.930 . S
C686 C684 1.419 . S
C686 C687 1.362 . S
C687 H677 0.930 . S
C687 C680 1.409 . S
C687 C686 1.362 . S
H688 C694 0.930 . S
H689 C697 0.930 . S
H690 C698 0.930 . S
H691 C699 0.930 . S
H692 C702 0.930 1_556 S
H693 C703 0.930 . S
C694 H688 0.930 . S
C694 C695 1.337 1_455 S
C694 C696 1.415 . S
C695 C694 1.337 1_655 S
C695 C697 1.440 . S
C696 C694 1.415 . S
C696 C701 1.425 1_455 S
C696 C703 1.409 . S
C697 H689 0.930 . S
C697 C695 1.440 . S
C697 C698 1.362 . S
C698 H690 0.930 . S
C698 C697 1.362 . S
C698 C701 1.409 . S
C699 H691 0.930 . S
C699 C700 1.355 1_655 S
C699 C701 1.415 . S
C700 C699 1.355 1_455 S
C700 C702 1.419 . S
C701 C696 1.425 1_655 S
C701 C698 1.409 . S
C701 C699 1.415 . S
C702 H692 0.930 1_554 S
C702 C700 1.419 . S
C702 C703 1.362 . S
C703 H693 0.930 . S
C703 C696 1.409 . S
C703 C702 1.362 . S
H704 C710 0.930 . S
H705 C713 0.930 . S
H706 C714 0.930 . S
H707 C715 0.930 . S
H708 C718 0.930 1_556 S
H709 C719 0.930 . S
C710 H704 0.930 . S
C710 C711 1.355 . S
C710 C712 1.415 . S
C711 C710 1.355 . S
C711 C713 1.419 . S
C712 C710 1.415 . S
C712 C717 1.425 . S
C712 C719 1.409 . S
C713 H705 0.930 . S
C713 C711 1.419 . S
C713 C714 1.362 . S
C714 H706 0.930 . S
C714 C713 1.362 . S
C714 C717 1.409 . S
C715 H707 0.930 . S
C715 C716 1.355 . S
C715 C717 1.415 . S
C716 C715 1.355 . S
C716 C718 1.419 . S
C717 C712 1.425 . S
C717 C714 1.409 . S
C717 C715 1.415 . S
C718 H708 0.930 1_554 S
C718 C716 1.419 . S
C718 C719 1.362 . S
C719 H709 0.930 . S
C719 C712 1.409 . S
C719 C718 1.362 . S
H720 C726 0.930 . S
H721 C729 0.930 . S
H722 C730 0.930 . S
H723 C731 0.930 . S
H724 C734 0.930 . S
H725 C735 0.930 . S
C726 H720 0.930 . S
C726 C727 1.355 . S
C726 C728 1.415 . S
C727 C726 1.355 . S
C727 C729 1.419 . S
C728 C726 1.415 . S
C728 C733 1.425 1_554 S
C728 C735 1.409 . S
C729 H721 0.930 . S
C729 C727 1.419 . S
C729 C730 1.362 1_554 S
C730 H722 0.930 . S
C730 C729 1.362 1_556 S
C730 C733 1.409 . S
C731 H723 0.930 . S
C731 C732 1.355 . S
C731 C733 1.415 . S
C732 C731 1.355 . S
C732 C734 1.419 1_556 S
C733 C728 1.425 1_556 S
C733 C730 1.409 . S
C733 C731 1.415 . S
C734 H724 0.930 . S
C734 C732 1.419 1_554 S
C734 C735 1.362 . S
C735 H725 0.930 . S
C735 C728 1.409 . S
C735 C734 1.362 . S
H736 C742 0.930 . S
H737 C745 0.930 . S
H738 C746 0.930 . S
H739 C747 0.930 . S
H740 C750 0.930 . S
H741 C751 0.930 . S
C742 H736 0.930 . S
C742 C743 1.355 . S
C742 C744 1.415 1_554 S
C743 C742 1.355 . S
C743 C745 1.419 . S
C744 C742 1.415 1_556 S
C744 C749 1.425 1_556 S
C744 C751 1.409 . S
C745 H737 0.930 . S
C745 C743 1.419 . S
C745 C746 1.362 . S
C746 H738 0.930 . S
C746 C745 1.362 . S
C746 C749 1.409 . S
C747 H739 0.930 . S
C747 C748 1.355 1_554 S
C747 C749 1.415 . S
C748 C747 1.355 1_556 S
C748 C750 1.419 . S
C749 C744 1.425 1_554 S
C749 C746 1.409 . S
C749 C747 1.415 . S
C750 H740 0.930 . S
C750 C748 1.419 . S
C750 C751 1.362 . S
C751 H741 0.930 . S
C751 C744 1.409 . S
C751 C750 1.362 . S
H752 C758 0.930 . S
H753 C761 0.930 . S
H754 C762 0.930 . S
H755 C763 0.930 . S
H756 C766 0.930 . S
H757 C767 0.930 . S
C758 H752 0.930 . S
C758 C759 1.355 1_455 S
C758 C760 1.415 . S
C759 C758 1.355 1_655 S
C759 C761 1.419 . S
C760 C758 1.415 . S
C760 C765 1.425 1_455 S
C760 C767 1.409 . S
C761 H753 0.930 . S
C761 C759 1.419 . S
C761 C762 1.362 . S
C762 H754 0.930 . S
C762 C761 1.362 . S
C762 C765 1.409 . S
C763 H755 0.930 . S
C763 C764 1.355 . S
C763 C765 1.415 . S
C764 C763 1.355 . S
C764 C766 1.419 1_655 S
C765 C760 1.425 1_655 S
C765 C762 1.409 . S
C765 C763 1.415 . S
C766 H756 0.930 . S
C766 C764 1.419 1_455 S
C766 C767 1.362 . S
C767 H757 0.930 . S
C767 C760 1.409 . S
C767 C766 1.362 . S
H768 C774 0.930 . S
H769 C777 0.930 . S
H770 C778 0.930 . S
H771 C779 0.930 . S
H772 C782 0.930 1_545 S
H773 C783 0.904 1_545 S
C774 H768 0.930 . S
C774 C775 1.355 . S
C774 C776 1.415 . S
C775 C774 1.355 . S
C775 C777 1.419 . S
C776 C774 1.415 . S
C776 C781 1.425 . S
C776 C783 1.409 . S
C777 H769 0.930 . S
C777 C775 1.419 . S
C777 C778 1.362 . S
C778 H770 0.930 . S
C778 C777 1.362 . S
C778 C781 1.409 . S
C779 H771 0.930 . S
C779 C780 1.355 . S
C779 C781 1.415 . S
C780 C779 1.355 . S
C780 C782 1.419 . S
C781 C776 1.425 . S
C781 C778 1.409 . S
C781 C779 1.415 . S
C782 H772 0.930 1_565 S
C782 C780 1.419 . S
C782 C783 1.362 . S
C783 H773 0.904 1_565 S
C783 C776 1.409 . S
C783 C782 1.362 . S
H784 C790 0.930 . S
H785 C793 0.930 . S
H786 C794 0.930 . S
H787 C795 0.930 . S
H788 C798 0.930 . S
H789 C799 0.930 . S
C790 H784 0.930 . S
C790 C791 1.355 . S
C790 C792 1.415 . S
C791 C790 1.355 . S
C791 C793 1.419 . S
C792 C790 1.415 . S
C792 C797 1.425 . S
C792 C799 1.409 . S
C793 H785 0.930 . S
C793 C791 1.419 . S
C793 C794 1.362 . S
C794 H786 0.930 . S
C794 C793 1.362 . S
C794 C797 1.409 . S
C795 H787 0.930 . S
C795 C796 1.355 . S
C795 C797 1.415 . S
C796 C795 1.355 . S
C796 C798 1.419 . S
C797 C792 1.425 . S
C797 C794 1.409 . S
C797 C795 1.415 . S
C798 H788 0.930 . S
C798 C796 1.419 . S
C798 C799 1.362 . S
C799 H789 0.930 . S
C799 C792 1.409 . S
C799 C798 1.362 . S
H800 C806 0.930 . S
H801 C809 0.930 . S
H802 C810 0.930 . S
H803 C811 0.930 . S
H804 C814 0.930 . S
H805 C815 0.930 . S
C806 H800 0.930 . S
C806 C807 1.355 . S
C806 C808 1.415 . S
C807 C806 1.355 . S
C807 C809 1.419 . S
C808 C806 1.415 . S
C808 C813 1.425 . S
C808 C815 1.409 . S
C809 H801 0.930 . S
C809 C807 1.419 . S
C809 C810 1.362 . S
C810 H802 0.930 . S
C810 C809 1.362 . S
C810 C813 1.409 . S
C811 H803 0.930 . S
C811 C812 1.355 . S
C811 C813 1.415 . S
C812 C811 1.355 . S
C812 C814 1.419 . S
C813 C808 1.425 . S
C813 C810 1.409 . S
C813 C811 1.415 . S
C814 H804 0.930 . S
C814 C812 1.419 . S
C814 C815 1.362 . S
C815 H805 0.930 . S
C815 C808 1.409 . S
C815 C814 1.362 . S
C439 C255 1.831 . S
C444 C322 1.877 . S
C460 C352 1.784 . S
C455 C294 1.753 . S
C476 N386 1.828 . S
C471 C177 1.798 . S
C492 N416 1.356 . S
C487 C216 1.432 . S
C508 C313 1.924 1_565 S
C503 C99 1.913 . S
C519 C138 1.754 . S
C524 C343 1.781 . S
C535 C21 1.817 . S
C540 N378 1.811 . S
C551 C60 1.429 1_455 S
C556 N408 1.361 . S
C572 C328 0.528 . S
C567 C196 0.533 1_455 S
C588 C358 0.812 . S
C583 C235 0.759 . S
C604 C399 0.712 . S
C599 C289 0.747 . S
C615 C157 0.769 . S
C620 C429 0.771 . S
C631 C40 0.558 . S
C636 C339 0.427 . S
C652 C369 0.927 . S
C647 C79 0.891 . S
C668 C388 0.729 . S
C663 C133 0.694 . S
C679 C1 0.847 . S
C684 C418 0.866 . S
C695 C211 1.654 1_655 S
C700 N318 1.765 1_554 S
C711 C250 1.774 . S
C716 N348 1.901 1_554 S
C732 C373 1.952 . S
C727 C274 1.879 . S
C748 C403 2.151 . S
C743 C172 2.003 . S
C759 C55 1.680 1_655 S
C764 N326 1.717 . S
C780 N356 1.857 . S
C775 C94 1.788 . S
C796 C382 1.924 . S
C791 C118 1.818 . S
C807 C16 2.011 . S
C812 C412 2.158 . S
