# Generated by pormake.
# Topology sqc, (4,8)-cn, num edge types: 1
# Building blocks:
#     Node 0, Type 0, BuildingBlock: NAHDIM_clean_linker_0, # of connection points: 4
#     Node 1, Type 0, BuildingBlock: NAHDIM_clean_linker_0, # of connection points: 4
#     Node 2, Type 0, BuildingBlock: NAHDIM_clean_linker_0, # of connection points: 4
#     Node 3, Type 0, BuildingBlock: NAHDIM_clean_linker_0, # of connection points: 4
#     Node 4, Type 0, BuildingBlock: NAHDIM_clean_linker_0, # of connection points: 4
#     Node 5, Type 0, BuildingBlock: NAHDIM_clean_linker_0, # of connection points: 4
#     Node 6, Type 0, BuildingBlock: NAHDIM_clean_linker_0, # of connection points: 4
#     Node 7, Type 0, BuildingBlock: NAHDIM_clean_linker_0, # of connection points: 4
#     Node 8, Type 1, BuildingBlock: VETTIZ_charged_sbu_0, # of connection points: 8
#     Node 9, Type 1, BuildingBlock: VETTIZ_charged_sbu_0, # of connection points: 8
#     Node 10, Type 1, BuildingBlock: VETTIZ_charged_sbu_0, # of connection points: 8
#     Node 11, Type 1, BuildingBlock: VETTIZ_charged_sbu_0, # of connection points: 8
#     Edge 12, Type (0, 1), BuildingBlock: KIFKEQ_clean_linker_1, # of connection points: 2
#     Edge 13, Type (0, 1), BuildingBlock: KIFKEQ_clean_linker_1, # of connection points: 2
#     Edge 14, Type (0, 1), BuildingBlock: KIFKEQ_clean_linker_1, # of connection points: 2
#     Edge 15, Type (0, 1), BuildingBlock: KIFKEQ_clean_linker_1, # of connection points: 2
#     Edge 16, Type (0, 1), BuildingBlock: KIFKEQ_clean_linker_1, # of connection points: 2
#     Edge 17, Type (0, 1), BuildingBlock: KIFKEQ_clean_linker_1, # of connection points: 2
#     Edge 18, Type (0, 1), BuildingBlock: KIFKEQ_clean_linker_1, # of connection points: 2
#     Edge 19, Type (0, 1), BuildingBlock: KIFKEQ_clean_linker_1, # of connection points: 2
#     Edge 20, Type (0, 1), BuildingBlock: KIFKEQ_clean_linker_1, # of connection points: 2
#     Edge 21, Type (0, 1), BuildingBlock: KIFKEQ_clean_linker_1, # of connection points: 2
#     Edge 22, Type (0, 1), BuildingBlock: KIFKEQ_clean_linker_1, # of connection points: 2
#     Edge 23, Type (0, 1), BuildingBlock: KIFKEQ_clean_linker_1, # of connection points: 2
#     Edge 24, Type (0, 1), BuildingBlock: KIFKEQ_clean_linker_1, # of connection points: 2
#     Edge 25, Type (0, 1), BuildingBlock: KIFKEQ_clean_linker_1, # of connection points: 2
#     Edge 26, Type (0, 1), BuildingBlock: KIFKEQ_clean_linker_1, # of connection points: 2
#     Edge 27, Type (0, 1), BuildingBlock: KIFKEQ_clean_linker_1, # of connection points: 2
#     Edge 28, Type (0, 1), BuildingBlock: KIFKEQ_clean_linker_1, # of connection points: 2
#     Edge 29, Type (0, 1), BuildingBlock: KIFKEQ_clean_linker_1, # of connection points: 2
#     Edge 30, Type (0, 1), BuildingBlock: KIFKEQ_clean_linker_1, # of connection points: 2
#     Edge 31, Type (0, 1), BuildingBlock: KIFKEQ_clean_linker_1, # of connection points: 2
#     Edge 32, Type (0, 1), BuildingBlock: KIFKEQ_clean_linker_1, # of connection points: 2
#     Edge 33, Type (0, 1), BuildingBlock: KIFKEQ_clean_linker_1, # of connection points: 2
#     Edge 34, Type (0, 1), BuildingBlock: KIFKEQ_clean_linker_1, # of connection points: 2
#     Edge 35, Type (0, 1), BuildingBlock: KIFKEQ_clean_linker_1, # of connection points: 2
#     Edge 36, Type (0, 1), BuildingBlock: KIFKEQ_clean_linker_1, # of connection points: 2
#     Edge 37, Type (0, 1), BuildingBlock: KIFKEQ_clean_linker_1, # of connection points: 2
#     Edge 38, Type (0, 1), BuildingBlock: KIFKEQ_clean_linker_1, # of connection points: 2
#     Edge 39, Type (0, 1), BuildingBlock: KIFKEQ_clean_linker_1, # of connection points: 2
#     Edge 40, Type (0, 1), BuildingBlock: KIFKEQ_clean_linker_1, # of connection points: 2
#     Edge 41, Type (0, 1), BuildingBlock: KIFKEQ_clean_linker_1, # of connection points: 2
#     Edge 42, Type (0, 1), BuildingBlock: KIFKEQ_clean_linker_1, # of connection points: 2
#     Edge 43, Type (0, 1), BuildingBlock: KIFKEQ_clean_linker_1, # of connection points: 2
# Relax obj value: 0.111
# Max RMSD: 0.262
# Mean RMSD: 0.120
data_MOF--net-sqc--node1-VETTIZ_charged_sbu_0--node2-NAHDIM_clean_linker_0--edge1-KIFKEQ_clean_linker_1
_symmetry_space_group_name_H-M    P1
_symmetry_Int_Tables_number       1
_symmetry_cell_setting            triclinic
loop_
_symmetry_equiv_pos_as_xyz
'x, y, z'
_cell_length_a     31.866875
_cell_length_b     31.862537
_cell_length_c     103.61505
_cell_angle_alpha  89.598485
_cell_angle_beta   89.515559
_cell_angle_gamma 89.988046
loop_
_atom_site_label
_atom_site_type_symbol
_atom_site_fract_x
_atom_site_fract_y
_atom_site_fract_z
_atom_type_partial_charge
C0 C 0.87408 0.81866 0.45271 0.0
C1 C 0.84711 0.85582 0.4572 0.0
C2 C 0.90018 0.91045 0.46135 0.0
C3 C 0.91781 0.89124 0.47229 0.0
C4 C 0.95279 0.90883 0.47834 0.0
C5 C 0.96983 0.94704 0.47359 0.0
C6 C 0.95144 0.96708 0.46282 0.0
C7 C 0.91695 0.94834 0.4568 0.0
C8 C 0.97193 0.88616 0.48971 0.0
C9 C 0.96836 0.00813 0.45763 0.0
C10 C 0.28352 0.94894 0.43319 0.0
C11 C 0.24702 0.9673 0.44021 0.0
C12 C 0.19579 0.94891 0.45707 0.0
C13 C 0.17689 0.98878 0.45753 0.0
C14 C 0.14103 0.99579 0.46518 0.0
C15 C 0.12387 0.96242 0.4726 0.0
C16 C 0.14349 0.9226 0.47245 0.0
C17 C 0.17928 0.91642 0.46469 0.0
C18 C 0.12095 0.0387 0.46515 0.0
C19 C 0.12623 0.88646 0.48033 0.0
C20 C 0.19277 0.03333 0.55137 0.0
C21 C 0.18132 0.0691 0.54422 0.0
C22 C 0.14248 0.07098 0.53791 0.0
C23 C 0.11477 0.03635 0.53875 0.0
C24 C 0.1253 0.00136 0.54657 0.0
C25 C 0.16405 1.00057 0.55291 0.0
C26 C 0.13157 0.10934 0.53002 0.0
C27 C 0.09626 0.96413 0.54786 0.0
C28 C 0.79185 0.06636 0.5306 0.0
C29 C 0.80299 0.06817 0.54493 0.0
C30 C 0.8792 0.07842 0.54326 0.0
C31 C 0.90748 0.10861 0.53865 0.0
C32 C 0.94774 0.09728 0.53427 0.0
C33 C 0.96039 0.05472 0.53487 0.0
C34 C 0.93294 0.02442 0.54036 0.0
C35 C 0.89247 0.03646 0.54436 0.0
C36 C 0.97625 0.13056 0.52861 0.0
C37 C 0.94597 0.97906 0.5417 0.0
C38 C 0.00771 0.96496 0.4797 0.0
C39 C 0.04661 0.95762 0.47381 0.0
C40 C 0.08399 0.96871 0.47987 0.0
C41 C 0.0827 0.98581 0.49243 0.0
C42 C 0.11957 0.99344 0.49936 0.0
C43 C 0.11776 0.00905 0.51187 0.0
C44 C 0.07906 0.01913 0.51775 0.0
C45 C 0.07684 0.03465 0.53051 0.0
C46 C 0.03797 0.04616 0.53583 0.0
C47 C 0.00083 0.04148 0.52884 0.0
C48 C 0.00233 0.02392 0.51632 0.0
C49 C 0.96553 0.01685 0.50923 0.0
C50 C 0.96716 0.99746 0.49725 0.0
C51 C 0.00576 0.98587 0.49167 0.0
C52 C 0.04337 0.99509 0.49825 0.0
C53 C 0.0416 0.01296 0.51076 0.0
C54 C 0.28662 0.00116 0.54444 0.0
C55 C 0.26915 0.0399 0.55136 0.0
O56 O 0.8676 0.89351 0.45477 0.0
O57 O 0.8397 0.09102 0.54655 0.0
O58 O 0.2309 0.0296 0.55704 0.0
O59 O 0.22948 0.94041 0.44937 0.0
H60 H 0.8404 0.85262 0.46772 0.0
H61 H 0.90385 0.81705 0.45815 0.0
H62 H 0.88194 0.82172 0.44227 0.0
H63 H 0.85697 0.78867 0.45434 0.0
H64 H 0.90496 0.86226 0.47608 0.0
H65 H 0.90302 0.96312 0.44841 0.0
H66 H 0.00631 0.8826 0.48825 0.0
H67 H 0.95799 0.85456 0.49129 0.0
H68 H 0.96694 0.90487 0.49859 0.0
H69 H 0.94783 0.02196 0.4501 0.0
H70 H 1.00002 0.00298 0.45337 0.0
H71 H 0.97173 0.03099 0.4656 0.0
H72 H 0.22318 0.98255 0.43389 0.0
H73 H 0.27316 0.94663 0.42285 0.0
H74 H 0.2825 0.91402 0.435 0.0
H75 H 0.33387 0.9865 0.4388 0.0
H76 H 0.18971 0.01446 0.45186 0.0
H77 H 0.1942 0.88587 0.46437 0.0
H78 H 0.12029 0.05132 0.47511 0.0
H79 H 0.08795 0.03627 0.46187 0.0
H80 H 0.13789 0.06132 0.45878 0.0
H81 H 0.14697 0.85845 0.47999 0.0
H82 H 0.09487 0.87761 0.47663 0.0
H83 H 0.12205 0.89606 0.49055 0.0
H84 H 0.26539 0.06458 0.54382 0.0
H85 H 0.20251 0.09558 0.54357 0.0
H86 H 0.17282 0.97355 0.5587 0.0
H87 H 0.13163 0.10112 0.51962 0.0
H88 H 0.15413 0.13542 0.53148 0.0
H89 H 0.0995 0.12036 0.53256 0.0
H90 H 0.10867 0.93973 0.55452 0.0
H91 H 0.09149 0.94984 0.53824 0.0
H92 H 0.06512 0.97458 0.55149 0.0
H93 H 0.80722 0.03561 0.54858 0.0
H94 H 0.76218 0.04864 0.52926 0.0
H95 H 0.8171 0.05009 0.52513 0.0
H96 H 0.7881 0.09853 0.52655 0.0
H97 H 0.89728 0.14101 0.53804 0.0
H98 H 0.87168 0.01293 0.54841 0.0
H99 H 0.98488 0.1223 0.51854 0.0
H100 H 0.00571 0.13197 0.53424 0.0
H101 H 0.96146 0.16214 0.52861 0.0
H102 H 0.92418 0.96097 0.54804 0.0
H103 H 0.97816 0.97681 0.54567 0.0
H104 H 0.9464 0.96423 0.53204 0.0
H105 H 0.04785 0.94257 0.46445 0.0
H106 H 0.15019 0.98652 0.49529 0.0
H107 H 0.14719 0.01341 0.51682 0.0
H108 H 0.03655 0.05835 0.54557 0.0
H109 H 0.93491 0.02539 0.51296 0.0
H110 H 0.93781 0.99194 0.49235 0.0
H111 H 0.29022 0.97448 0.55131 0.0
H112 H 0.3173 0.00845 0.53977 0.0
H113 H 0.26457 0.9914 0.53677 0.0
C114 C 0.12504 0.9843 0.78012 0.0
C115 C 0.13006 0.96315 0.79336 0.0
C116 C 0.17914 0.90438 0.78972 0.0
C117 C 0.21942 0.88962 0.79237 0.0
C118 C 0.23321 0.85052 0.78787 0.0
C119 C 0.20606 0.82568 0.78034 0.0
C120 C 0.16493 0.83998 0.77777 0.0
C121 C 0.15177 0.87912 0.78252 0.0
C122 C 0.27713 0.83611 0.79098 0.0
C123 C 0.13527 0.81432 0.76975 0.0
C124 C 0.13951 0.49113 0.80255 0.0
C125 C 0.14553 0.52947 0.79444 0.0
C126 C 0.189 0.59282 0.79321 0.0
C127 C 0.17169 0.60773 0.7816 0.0
C128 C 0.18452 0.64625 0.77622 0.0
C129 C 0.21574 0.67019 0.78244 0.0
C130 C 0.23335 0.65526 0.79409 0.0
C131 C 0.21967 0.61675 0.79932 0.0
C132 C 0.16478 0.6613 0.76383 0.0
C133 C 0.2669 0.6798 0.80091 0.0
C134 C 0.4217 0.60576 0.7257 0.0
C135 C 0.37979 0.60702 0.72173 0.0
C136 C 0.35483 0.64255 0.72409 0.0
C137 C 0.37196 0.67679 0.73094 0.0
C138 C 0.41464 0.6758 0.73466 0.0
C139 C 0.43918 0.6405 0.73176 0.0
C140 C 0.31017 0.6433 0.71937 0.0
C141 C 0.43421 0.71172 0.74188 0.0
C142 C 0.28354 0.97747 0.70471 0.0
C143 C 0.33137 0.97287 0.70395 0.0
C144 C 0.34 0.89783 0.70684 0.0
C145 C 0.31532 0.86434 0.70277 0.0
C146 C 0.31127 0.82788 0.71035 0.0
C147 C 0.33363 0.82453 0.72207 0.0
C148 C 0.36046 0.85759 0.72587 0.0
C149 C 0.36296 0.89418 0.71826 0.0
C150 C 0.28254 0.79326 0.70594 0.0
C151 C 0.38615 0.85441 0.738 0.0
C152 C 0.2219 0.78604 0.77457 0.0
C153 C 0.21274 0.74794 0.78079 0.0
C154 C 0.23043 0.71025 0.77649 0.0
C155 C 0.2598 0.71085 0.76617 0.0
C156 C 0.28169 0.67446 0.76249 0.0
C157 C 0.31049 0.67543 0.75231 0.0
C158 C 0.31713 0.71234 0.74504 0.0
C159 C 0.34539 0.71342 0.73442 0.0
C160 C 0.35009 0.75037 0.72719 0.0
C161 C 0.3281 0.78683 0.73043 0.0
C162 C 0.30097 0.78681 0.74131 0.0
C163 C 0.27937 0.82326 0.74512 0.0
C164 C 0.25382 0.82323 0.75607 0.0
C165 C 0.24757 0.78634 0.76337 0.0
C166 C 0.26749 0.74883 0.75937 0.0
C167 C 0.29518 0.74931 0.74855 0.0
C168 C 0.46599 0.51448 0.73718 0.0
C169 C 0.4347 0.53091 0.72725 0.0
O170 O 0.16859 0.94318 0.79415 0.0
O171 O 0.34151 0.93317 0.6995 0.0
O172 O 0.44598 0.57145 0.72374 0.0
O173 O 0.17705 0.55582 0.79878 0.0
H174 H 0.10436 0.93982 0.79467 0.0
H175 H 0.12507 0.96047 0.77236 0.0
H176 H 0.15113 0.00659 0.77813 0.0
H177 H 0.09476 0.00156 0.77972 0.0
H178 H 0.24029 0.90913 0.79796 0.0
H179 H 0.12041 0.88982 0.78036 0.0
H180 H 0.27659 0.80333 0.7947 0.0
H181 H 0.29236 0.85646 0.79823 0.0
H182 H 0.29658 0.83655 0.78204 0.0
H183 H 0.10465 0.83026 0.76829 0.0
H184 H 0.12954 0.78354 0.77454 0.0
H185 H 0.14972 0.808 0.76016 0.0
H186 H 0.11592 0.54651 0.7921 0.0
H187 H 0.10707 0.4943 0.80682 0.0
H188 H 0.15605 0.497 0.81193 0.0
H189 H 0.15614 0.44227 0.79017 0.0
H190 H 0.14825 0.58947 0.77665 0.0
H191 H 0.23297 0.60505 0.80824 0.0
H192 H 0.18875 0.6615 0.75599 0.0
H193 H 0.15319 0.69396 0.76494 0.0
H194 H 0.13823 0.64108 0.76083 0.0
H195 H 0.27869 0.66312 0.8096 0.0
H196 H 0.25414 0.71073 0.80388 0.0
H197 H 0.29364 0.68584 0.79421 0.0
H198 H 0.40312 0.53068 0.73199 0.0
H199 H 0.3668 0.58033 0.71672 0.0
H200 H 0.47181 0.63924 0.7346 0.0
H201 H 0.28836 0.63929 0.72769 0.0
H202 H 0.30402 0.61784 0.71236 0.0
H203 H 0.30304 0.67398 0.71473 0.0
H204 H 0.46642 0.70423 0.74522 0.0
H205 H 0.41452 0.71996 0.75039 0.0
H206 H 0.43586 0.7398 0.7355 0.0
H207 H 0.34439 0.97749 0.71378 0.0
H208 H 0.27478 0.00905 0.70834 0.0
H209 H 0.27022 0.95368 0.71148 0.0
H210 H 0.26944 0.9729 0.69505 0.0
H211 H 0.29819 0.86743 0.69382 0.0
H212 H 0.38315 0.91974 0.72115 0.0
H213 H 0.25953 0.78539 0.7137 0.0
H214 H 0.30124 0.76459 0.70396 0.0
H215 H 0.26516 0.80198 0.69707 0.0
H216 H 0.40966 0.88003 0.73865 0.0
H217 H 0.40271 0.82375 0.7384 0.0
H218 H 0.36507 0.85611 0.74656 0.0
H219 H 0.19159 0.7476 0.78905 0.0
H220 H 0.27735 0.645 0.7676 0.0
H221 H 0.327 0.64664 0.75011 0.0
H222 H 0.37139 0.75084 0.71896 0.0
H223 H 0.28244 0.85245 0.73979 0.0
H224 H 0.2385 0.85237 0.75864 0.0
H225 H 0.49819 0.51378 0.733 0.0
H226 H 0.4572 0.48232 0.74043 0.0
H227 H 0.46598 0.53528 0.74574 0.0
C228 C 0.66189 0.85746 0.05955 0.0
C229 C 0.68946 0.88622 0.05105 0.0
C230 C 0.63775 0.94134 0.04591 0.0
C231 C 0.61563 0.91866 0.03657 0.0
C232 C 0.57888 0.93491 0.0311 0.0
C233 C 0.56362 0.97451 0.0351 0.0
C234 C 0.58532 0.99713 0.04465 0.0
C235 C 0.6224 0.98039 0.04983 0.0
C236 C 0.55663 0.90995 0.02088 0.0
C237 C 0.56967 0.0392 0.04921 0.0
C238 C 0.22988 0.95158 0.06112 0.0
C239 C 0.26085 0.97542 0.05308 0.0
C240 C 0.32918 0.96126 0.04263 0.0
C241 C 0.3433 0.00301 0.04244 0.0
C242 C 0.38297 0.01331 0.0373 0.0
C243 C 0.40854 0.98139 0.03189 0.0
C244 C 0.39402 0.93942 0.0319 0.0
C245 C 0.35471 0.92993 0.0374 0.0
C246 C 0.39759 0.05834 0.03772 0.0
C247 C 0.41991 0.9045 0.02613 0.0
C248 C 0.36543 0.07468 0.95153 0.0
C249 C 0.36699 0.10512 0.96117 0.0
C250 C 0.40133 0.10707 0.96956 0.0
C251 C 0.434 0.07713 0.9684 0.0
C252 C 0.4328 0.04707 0.95839 0.0
C253 C 0.39866 0.04665 0.94995 0.0
C254 C 0.40232 0.14046 0.9798 0.0
C255 C 0.4671 0.01479 0.95681 0.0
C256 C 0.75274 0.16943 0.98911 0.0
C257 C 0.73604 0.15105 0.97656 0.0
C258 C 0.65976 0.1501 0.97497 0.0
C259 C 0.62661 0.17231 0.98056 0.0
C260 C 0.58758 0.1531 0.98281 0.0
C261 C 0.58145 0.11092 0.97906 0.0
C262 C 0.61411 0.08916 0.97261 0.0
C263 C 0.65308 0.10897 0.97067 0.0
C264 C 0.55328 0.17747 0.98954 0.0
C265 C 0.60811 0.04471 0.96807 0.0
C266 C 0.52633 0.99282 0.02865 0.0
C267 C 0.48635 0.98175 0.03321 0.0
C268 C 0.45032 0.99208 0.02622 0.0
C269 C 0.45447 0.01237 0.01407 0.0
C270 C 0.41979 0.01843 0.00597 0.0
C271 C 0.42437 0.03826 0.99403 0.0
C272 C 0.46345 0.05441 0.98996 0.0
C273 C 0.46836 0.07551 0.97797 0.0
C274 C 0.50712 0.09332 0.97462 0.0
C275 C 0.54187 0.08899 0.98267 0.0
C276 C 0.53831 0.06523 0.99422 0.0
C277 C 0.57334 0.05733 0.00204 0.0
C278 C 0.56969 0.03293 0.01318 0.0
C279 C 0.53045 0.0175 0.01732 0.0
C280 C 0.4945 0.02642 0.00985 0.0
C281 C 0.49872 0.04883 0.99802 0.0
C282 C 0.29392 0.00815 0.94684 0.0
C283 C 0.29344 0.05612 0.94767 0.0
O284 O 0.67375 0.92688 0.05138 0.0
O285 O 0.69763 0.16932 0.97377 0.0
O286 O 0.33189 0.07203 0.94367 0.0
O287 O 0.29166 0.94958 0.04786 0.0
H288 H 0.68986 0.87457 0.04096 0.0
H289 H 0.62896 0.85773 0.05616 0.0
H290 H 0.66225 0.86818 0.06973 0.0
H291 H 0.67317 0.82451 0.05916 0.0
H292 H 0.6269 0.88844 0.03338 0.0
H293 H 0.63954 0.99769 0.05705 0.0
H294 H 0.52389 0.90342 0.02404 0.0
H295 H 0.57246 0.87963 0.01883 0.0
H296 H 0.55513 0.92854 0.01179 0.0
H297 H 0.58843 0.0515 0.05735 0.0
H298 H 0.53634 0.03663 0.05233 0.0
H299 H 0.57109 0.06216 0.04111 0.0
H300 H 0.24729 0.99764 0.04588 0.0
H301 H 0.23894 0.9746 0.07979 0.0
H302 H 0.23373 0.91739 0.05865 0.0
H303 H 0.19924 0.95507 0.05588 0.0
H304 H 0.32374 0.02762 0.04639 0.0
H305 H 0.34356 0.89779 0.03759 0.0
H306 H 0.39734 0.07189 0.02783 0.0
H307 H 0.43028 0.06004 0.04131 0.0
H308 H 0.37718 0.07798 0.04398 0.0
H309 H 0.40147 0.87519 0.025 0.0
H310 H 0.44687 0.89767 0.03252 0.0
H311 H 0.43269 0.91408 0.01655 0.0
H312 H 0.28728 0.06506 0.9579 0.0
H313 H 0.34126 0.12715 0.96212 0.0
H314 H 0.39709 0.0236 0.94233 0.0
H315 H 0.39726 0.12576 0.98942 0.0
H316 H 0.37774 0.1647 0.9783 0.0
H317 H 0.43353 0.15598 0.97988 0.0
H318 H 0.4604 0.99229 0.94894 0.0
H319 H 0.47114 0.99695 0.96596 0.0
H320 H 0.49727 0.03082 0.9546 0.0
H321 H 0.7326 0.11666 0.97825 0.0
H322 H 0.78373 0.15545 0.99146 0.0
H323 H 0.7306 0.1622 0.99716 0.0
H324 H 0.7561 0.20407 0.98832 0.0
H325 H 0.63191 0.20434 0.9836 0.0
H326 H 0.67823 0.09238 0.96581 0.0
H327 H 0.54425 0.16123 0.99866 0.0
H328 H 0.52502 0.17872 0.98335 0.0
H329 H 0.56299 0.21006 0.9918 0.0
H330 H 0.63495 0.03363 0.96209 0.0
H331 H 0.5789 0.04236 0.96235 0.0
H332 H 0.60464 0.02348 0.97655 0.0
H333 H 0.48333 0.96416 0.04218 0.0
H334 H 0.38885 0.00722 0.00868 0.0
H335 H 0.39667 0.04134 0.98813 0.0
H336 H 0.51038 0.11043 0.96557 0.0
H337 H 0.60419 0.06912 -0.00049 0.0
H338 H 0.59791 0.02707 0.01864 0.0
H339 H 0.30087 0.99805 0.9368 0.0
H340 H 0.26309 0.99503 0.94992 0.0
H341 H 0.31834 0.9951 0.95331 0.0
C342 C 0.13069 0.0166 0.22017 0.0
C343 C 0.14726 0.03955 0.20806 0.0
C344 C 0.19492 0.09391 0.21615 0.0
C345 C 0.23665 0.10724 0.21648 0.0
C346 C 0.2478 0.14521 0.22233 0.0
C347 C 0.21633 0.17014 0.22821 0.0
C348 C 0.174 0.15686 0.22796 0.0
C349 C 0.16368 0.11912 0.22187 0.0
C350 C 0.29321 0.15864 0.22225 0.0
C351 C 0.13954 0.18254 0.23414 0.0
C352 C 0.10525 0.41257 0.19828 0.0
C353 C 0.12702 0.44411 0.20717 0.0
C354 C 0.18272 0.39777 0.21544 0.0
C355 C 0.15791 0.37562 0.22445 0.0
C356 C 0.17332 0.33955 0.23063 0.0
C357 C 0.21425 0.32504 0.22766 0.0
C358 C 0.23955 0.34753 0.21873 0.0
C359 C 0.22354 0.38392 0.21283 0.0
C360 C 0.14574 0.3168 0.24031 0.0
C361 C 0.28334 0.33298 0.21542 0.0
C362 C 0.34353 0.40986 0.29613 0.0
C363 C 0.3019 0.39708 0.2983 0.0
C364 C 0.28879 0.35648 0.29505 0.0
C365 C 0.31786 0.3283 0.28941 0.0
C366 C 0.36041 0.34027 0.28797 0.0
C367 C 0.37279 0.38087 0.2915 0.0
C368 C 0.24349 0.34424 0.29713 0.0
C369 C 0.39234 0.31085 0.28214 0.0
C370 C 0.22811 0.00192 0.30509 0.0
C371 C 0.27116 0.02235 0.30679 0.0
C372 C 0.27519 0.09868 0.30725 0.0
C373 C 0.24693 0.13165 0.30898 0.0
C374 C 0.25257 0.17006 0.30249 0.0
C375 C 0.2881 0.17584 0.29436 0.0
C376 C 0.31868 0.14372 0.29346 0.0
C377 C 0.31173 0.10525 0.29985 0.0
C378 C 0.21965 0.20382 0.3039 0.0
C379 C 0.35776 0.14942 0.28533 0.0
C380 C 0.22774 0.20983 0.23474 0.0
C381 C 0.22046 0.24773 0.22824 0.0
C382 C 0.22998 0.28617 0.23395 0.0
C383 C 0.24975 0.28693 0.2461 0.0
C384 C 0.26275 0.32483 0.25163 0.0
C385 C 0.28131 0.32532 0.26373 0.0
C386 C 0.28593 0.28812 0.27101 0.0
C387 C 0.30282 0.2886 0.28359 0.0
C388 C 0.30463 0.25141 0.29085 0.0
C389 C 0.29048 0.21338 0.28577 0.0
C390 C 0.27554 0.21203 0.27294 0.0
C391 C 0.26239 0.17415 0.26733 0.0
C392 C 0.24757 0.17319 0.25475 0.0
C393 C 0.24393 0.21025 0.24741 0.0
C394 C 0.25588 0.24889 0.25298 0.0
C395 C 0.2728 0.24962 0.26562 0.0
C396 C 0.34204 0.49381 0.28012 0.0
C397 C 0.33508 0.48579 0.29457 0.0
O398 O 0.18645 0.05668 0.21032 0.0
O399 O 0.26614 0.0609 0.31275 0.0
O400 O 0.35639 0.44979 0.29835 0.0
O401 O 0.16852 0.43224 0.20899 0.0
H402 H 0.12451 0.06487 0.20566 0.0
H403 H 0.12405 0.03924 0.228 0.0
H404 H 0.15403 0.99368 0.22384 0.0
H405 H 0.10099 0.9999 0.21798 0.0
H406 H 0.26059 0.08777 0.21205 0.0
H407 H 0.13114 0.10966 0.22175 0.0
H408 H 0.29605 0.19142 0.21863 0.0
H409 H 0.31316 0.13798 0.21616 0.0
H410 H 0.30539 0.15786 0.23225 0.0
H411 H 0.10945 0.16504 0.23483 0.0
H412 H 0.13431 0.21128 0.22825 0.0
H413 H 0.14873 0.19251 0.24397 0.0
H414 H 0.1103 0.44534 0.21661 0.0
H415 H 0.0719 0.42139 0.1968 0.0
H416 H 0.10565 0.38063 0.20261 0.0
H417 H 0.12148 0.41146 0.18876 0.0
H418 H 0.12651 0.38619 0.22675 0.0
H419 H 0.24258 0.40133 0.20593 0.0
H420 H 0.14001 0.28427 0.23702 0.0
H421 H 0.11498 0.33258 0.24176 0.0
H422 H 0.16187 0.31476 0.24975 0.0
H423 H 0.299 0.35383 0.20821 0.0
H424 H 0.28216 0.30064 0.21151 0.0
H425 H 0.30263 0.33191 0.22429 0.0
H426 H 0.30081 0.48202 0.29628 0.0
H427 H 0.27952 0.41869 0.3025 0.0
H428 H 0.40505 0.3908 0.29011 0.0
H429 H 0.22775 0.34179 0.28765 0.0
H430 H 0.22617 0.36748 0.30309 0.0
H431 H 0.2415 0.31301 0.30192 0.0
H432 H 0.42456 0.32414 0.28223 0.0
H433 H 0.38372 0.30402 0.27201 0.0
H434 H 0.39227 0.28061 0.28753 0.0
H435 H 0.2844 0.02635 0.29687 0.0
H436 H 0.23159 0.97048 0.30063 0.0
H437 H 0.2086 0.02175 0.29863 0.0
H438 H 0.21141 0.99853 0.31449 0.0
H439 H 0.21932 0.12648 0.31496 0.0
H440 H 0.33456 0.08022 0.29896 0.0
H441 H 0.20663 0.21196 0.29429 0.0
H442 H 0.23419 0.23262 0.30784 0.0
H443 H 0.19345 0.19407 0.31039 0.0
H444 H 0.38145 0.12464 0.28728 0.0
H445 H 0.37201 0.18062 0.28714 0.0
H446 H 0.34938 0.14821 0.27496 0.0
H447 H 0.20593 0.24735 0.21881 0.0
H448 H 0.25913 0.3545 0.24661 0.0
H449 H 0.29115 0.35544 0.26739 0.0
H450 H 0.31628 0.25225 0.30066 0.0
H451 H 0.26362 0.14467 0.27256 0.0
H452 H 0.23821 0.14309 0.25094 0.0
H453 H 0.3258 0.52307 0.27708 0.0
H454 H 0.32904 0.46736 0.27448 0.0
H455 H 0.37606 0.4967 0.27784 0.0
C456 C 0.64509 0.49516 0.28423 0.0
C457 C 0.64338 0.47325 0.29746 0.0
C458 C 0.68831 0.4108 0.29475 0.0
C459 C 0.72687 0.39297 0.298 0.0
C460 C 0.73913 0.35373 0.29318 0.0
C461 C 0.71209 0.33179 0.28483 0.0
C462 C 0.67252 0.34903 0.28173 0.0
C463 C 0.66097 0.38833 0.28671 0.0
C464 C 0.78147 0.33617 0.29678 0.0
C465 C 0.64298 0.32639 0.27285 0.0
C466 C 0.64195 0.99459 0.30327 0.0
C467 C 0.64698 0.03396 0.29563 0.0
C468 C 0.69032 0.09745 0.29501 0.0
C469 C 0.67171 0.11447 0.28389 0.0
C470 C 0.6844 0.15364 0.27897 0.0
C471 C 0.7168 0.17602 0.28516 0.0
C472 C 0.73555 0.15907 0.29636 0.0
C473 C 0.72196 0.11997 0.30115 0.0
C474 C 0.66347 0.17093 0.26704 0.0
C475 C 0.77035 0.18195 0.30313 0.0
C476 C 0.91644 0.11149 0.22606 0.0
C477 C 0.87444 0.11483 0.22233 0.0
C478 C 0.85081 0.1507 0.22541 0.0
C479 C 0.86943 0.18309 0.23272 0.0
C480 C 0.91213 0.17976 0.23633 0.0
C481 C 0.9353 0.14425 0.23271 0.0
C482 C 0.80605 0.15389 0.22087 0.0
C483 C 0.9333 0.21354 0.24408 0.0
C484 C 0.85403 0.50787 0.22521 0.0
C485 C 0.88047 0.48725 0.21457 0.0
C486 C 0.85587 0.41401 0.21558 0.0
C487 C 0.82782 0.38543 0.21021 0.0
C488 C 0.82037 0.34615 0.21601 0.0
C489 C 0.84218 0.33498 0.22736 0.0
C490 C 0.87202 0.36293 0.23254 0.0
C491 C 0.8782 0.40232 0.22671 0.0
C492 C 0.78842 0.31704 0.21022 0.0
C493 C 0.89664 0.35164 0.24446 0.0
C494 C 0.72673 0.29241 0.27863 0.0
C495 C 0.71625 0.25391 0.28438 0.0
C496 C 0.73214 0.2162 0.27949 0.0
C497 C 0.76068 0.21693 0.26896 0.0
C498 C 0.78038 0.18011 0.26458 0.0
C499 C 0.80843 0.1812 0.25422 0.0
C500 C 0.81664 0.21887 0.24749 0.0
C501 C 0.84452 0.22027 0.23678 0.0
C502 C 0.85133 0.25826 0.23023 0.0
C503 C 0.83196 0.29531 0.2343 0.0
C504 C 0.80481 0.29469 0.24517 0.0
C505 C 0.78562 0.33159 0.2497 0.0
C506 C 0.76032 0.331 0.2607 0.0
C507 C 0.75212 0.29327 0.26736 0.0
C508 C 0.76984 0.25549 0.26268 0.0
C509 C 0.79694 0.2563 0.25173 0.0
C510 C 0.96061 0.02494 0.23802 0.0
C511 C 0.93042 0.03689 0.2272 0.0
O512 O 0.67937 0.44971 0.29944 0.0
O513 O 0.85992 0.45234 0.20979 0.0
O514 O 0.93963 0.0773 0.22303 0.0
O515 O 0.67883 0.05964 0.30009 0.0
H516 H 0.61539 0.4524 0.2977 0.0
H517 H 0.6448 0.47164 0.27638 0.0
H518 H 0.6741 0.5142 0.28312 0.0
H519 H 0.61733 0.51588 0.283 0.0
H520 H 0.74773 0.41028 0.30423 0.0
H521 H 0.63089 0.40132 0.28408 0.0
H522 H 0.77804 0.30343 0.30039 0.0
H523 H 0.79716 0.35516 0.30429 0.0
H524 H 0.80202 0.33535 0.28808 0.0
H525 H 0.613 0.3436 0.2715 0.0
H526 H 0.63593 0.29467 0.27681 0.0
H527 H 0.65825 0.32214 0.26328 0.0
H528 H 0.6171 0.0512 0.29381 0.0
H529 H 0.60992 0.99702 0.30787 0.0
H530 H 0.65934 0.99921 0.31258 0.0
H531 H 0.65758 0.94751 0.29013 0.0
H532 H 0.64743 0.09732 0.27894 0.0
H533 H 0.73619 0.10663 0.30971 0.0
H534 H 0.68638 0.17148 0.25891 0.0
H535 H 0.65304 0.20373 0.2687 0.0
H536 H 0.63593 0.15191 0.26415 0.0
H537 H 0.78254 0.164 0.31154 0.0
H538 H 0.75871 0.21283 0.30654 0.0
H539 H 0.79662 0.18806 0.29626 0.0
H540 H 0.89783 0.03528 0.23118 0.0
H541 H 0.86044 0.08959 0.21689 0.0
H542 H 0.96801 0.14137 0.23536 0.0
H543 H 0.78438 0.14947 0.22921 0.0
H544 H 0.79865 0.1298 0.21354 0.0
H545 H 0.79995 0.18549 0.2167 0.0
H546 H 0.96477 0.2037 0.2475 0.0
H547 H 0.91364 0.22202 0.25257 0.0
H548 H 0.93709 0.24214 0.238 0.0
H549 H 0.91127 0.47777 0.21861 0.0
H550 H 0.87008 0.53637 0.22883 0.0
H551 H 0.84957 0.48586 0.23345 0.0
H552 H 0.82264 0.51685 0.2215 0.0
H553 H 0.81092 0.39449 0.2016 0.0
H554 H 0.90026 0.42365 0.23103 0.0
H555 H 0.76358 0.3097 0.21748 0.0
H556 H 0.80374 0.287 0.20755 0.0
H557 H 0.77349 0.33071 0.2015 0.0
H558 H 0.92289 0.37383 0.24614 0.0
H559 H 0.90961 0.31941 0.24364 0.0
H560 H 0.87548 0.35217 0.25302 0.0
H561 H 0.69548 0.25328 0.29273 0.0
H562 H 0.77486 0.1501 0.26927 0.0
H563 H 0.82322 0.15199 0.25146 0.0
H564 H 0.87284 0.25922 0.22206 0.0
H565 H 0.79033 0.36153 0.2449 0.0
H566 H 0.7469 0.36049 0.26382 0.0
H567 H 0.99359 0.02553 0.23444 0.0
H568 H 0.95329 0.99307 0.24184 0.0
H569 H 0.95747 0.04759 0.24607 0.0
C570 C 0.60093 0.52392 0.72593 0.0
C571 C 0.62196 0.54399 0.71403 0.0
C572 C 0.67564 0.59321 0.72165 0.0
C573 C 0.71847 0.60225 0.72112 0.0
C574 C 0.73421 0.6403 0.72578 0.0
C575 C 0.70637 0.66953 0.73151 0.0
C576 C 0.66295 0.66038 0.73226 0.0
C577 C 0.64795 0.62253 0.7272 0.0
C578 C 0.7806 0.64921 0.72451 0.0
C579 C 0.63232 0.69046 0.73845 0.0
C580 C 0.58477 0.91868 0.70785 0.0
C581 C 0.62135 0.94674 0.71199 0.0
C582 C 0.67689 0.89427 0.71575 0.0
C583 C 0.65997 0.87788 0.7273 0.0
C584 C 0.67795 0.84275 0.73329 0.0
C585 C 0.71379 0.82366 0.7277 0.0
C586 C 0.7315 0.8405 0.71624 0.0
C587 C 0.71282 0.87575 0.71043 0.0
C588 C 0.65813 0.82556 0.74553 0.0
C589 C 0.76983 0.82102 0.71011 0.0
C590 C 0.90408 0.9033 0.78449 0.0
C591 C 0.86149 0.90237 0.78797 0.0
C592 C 0.838 0.86528 0.78679 0.0
C593 C 0.85734 0.82892 0.78164 0.0
C594 C 0.90079 0.82953 0.77863 0.0
C595 C 0.92375 0.86662 0.78033 0.0
C596 C 0.79231 0.86531 0.79073 0.0
C597 C 0.92273 0.79139 0.77325 0.0
C598 C 0.73794 0.52487 0.80832 0.0
C599 C 0.7848 0.53536 0.80838 0.0
C600 C 0.7998 0.61011 0.80774 0.0
C601 C 0.77612 0.64593 0.81038 0.0
C602 C 0.7814 0.68273 0.80302 0.0
C603 C 0.81196 0.68383 0.79302 0.0
C604 C 0.83857 0.64878 0.7911 0.0
C605 C 0.83197 0.61207 0.79843 0.0
C606 C 0.7529 0.71969 0.80549 0.0
C607 C 0.87257 0.64943 0.78088 0.0
C608 C 0.72276 0.70969 0.73663 0.0
C609 C 0.7155 0.74647 0.72956 0.0
C610 C 0.73108 0.78504 0.7337 0.0
C611 C 0.75764 0.78661 0.74452 0.0
C612 C 0.77795 0.82389 0.74802 0.0
C613 C 0.80348 0.82517 0.75884 0.0
C614 C 0.80765 0.78989 0.76701 0.0
C615 C 0.83185 0.79137 0.7784 0.0
C616 C 0.83328 0.75629 0.78663 0.0
C617 C 0.8121 0.7192 0.78358 0.0
C618 C 0.78977 0.71648 0.77186 0.0
C619 C 0.76955 0.67914 0.76821 0.0
C620 C 0.74817 0.67659 0.7566 0.0
C621 C 0.74485 0.7117 0.74839 0.0
C622 C 0.76348 0.75005 0.75213 0.0
C623 C 0.7871 0.75211 0.76366 0.0
C624 C 0.94649 0.99091 0.7699 0.0
C625 C 0.91527 0.97794 0.78049 0.0
O626 O 0.66268 0.55587 0.7168 0.0
O627 O 0.79067 0.574 0.81419 0.0
O628 O 0.92715 0.93892 0.78525 0.0
O629 O 0.65944 0.92731 0.70935 0.0
H630 H 0.60325 0.57193 0.71109 0.0
H631 H 0.59761 0.54715 0.73379 0.0
H632 H 0.61976 0.49715 0.72962 0.0
H633 H 0.56911 0.5125 0.72343 0.0
H634 H 0.73959 0.57949 0.71684 0.0
H635 H 0.6147 0.61606 0.72778 0.0
H636 H 0.78587 0.68141 0.72066 0.0
H637 H 0.79671 0.62646 0.71807 0.0
H638 H 0.79529 0.64731 0.73416 0.0
H639 H 0.60103 0.67594 0.74012 0.0
H640 H 0.62827 0.71824 0.73205 0.0
H641 H 0.64457 0.70169 0.74781 0.0
H642 H 0.61872 0.95329 0.72249 0.0
H643 H 0.55434 0.93466 0.70973 0.0
H644 H 0.58476 0.8887 0.71336 0.0
H645 H 0.58724 0.91134 0.6974 0.0
H646 H 0.63249 0.89191 0.73167 0.0
H647 H 0.72586 0.88868 0.70156 0.0
H648 H 0.6494 0.79215 0.74419 0.0
H649 H 0.62961 0.84329 0.74845 0.0
H650 H 0.68109 0.82686 0.75351 0.0
H651 H 0.78119 0.83918 0.70158 0.0
H652 H 0.76238 0.78856 0.70703 0.0
H653 H 0.79546 0.81889 0.71728 0.0
H654 H 0.88361 0.97634 0.77603 0.0
H655 H 0.84675 0.93058 0.79163 0.0
H656 H 0.9569 0.86762 0.77793 0.0
H657 H 0.77255 0.8668 0.78197 0.0
H658 H 0.78436 0.89262 0.79689 0.0
H659 H 0.78423 0.83597 0.79604 0.0
H660 H 0.95614 0.79771 0.77078 0.0
H661 H 0.90644 0.78055 0.76444 0.0
H662 H 0.92142 0.76544 0.78044 0.0
H663 H 0.79508 0.53642 0.79808 0.0
H664 H 0.73274 0.49359 0.80393 0.0
H665 H 0.72087 0.54871 0.80251 0.0
H666 H 0.72465 0.52484 0.81827 0.0
H667 H 0.75197 0.64426 0.8178 0.0
H668 H 0.85145 0.58473 0.79677 0.0
H669 H 0.73386 0.72621 0.79677 0.0
H670 H 0.77198 0.7481 0.8074 0.0
H671 H 0.73135 0.7142 0.81381 0.0
H672 H 0.89486 0.62287 0.78203 0.0
H673 H 0.89029 0.67941 0.78122 0.0
H674 H 0.85806 0.64726 0.77121 0.0
H675 H 0.69628 0.74529 0.72097 0.0
H676 H 0.77493 0.85222 0.74227 0.0
H677 H 0.8191 0.85451 0.76086 0.0
H678 H 0.85104 0.75789 0.7955 0.0
H679 H 0.77033 0.65121 0.7742 0.0
H680 H 0.7336 0.64695 0.75424 0.0
H681 H 0.97859 0.99393 0.77391 0.0
H682 H 0.93719 0.0213 0.76545 0.0
H683 H 0.94712 0.96678 0.76221 0.0
C684 C 0.67915 0.55375 0.07953 0.0
C685 C 0.71385 0.54578 0.06945 0.0
C686 C 0.67031 0.55298 0.05004 0.0
C687 C 0.65049 0.51363 0.05091 0.0
C688 C 0.61541 0.50443 0.04334 0.0
C689 C 0.59979 0.53512 0.03469 0.0
C690 C 0.62028 0.57434 0.03352 0.0
C691 C 0.65557 0.58258 0.04114 0.0
C692 C 0.59456 0.46208 0.04472 0.0
C693 C 0.60448 0.60768 0.02437 0.0
C694 C 0.33597 0.66737 0.04699 0.0
C695 C 0.31153 0.62786 0.04316 0.0
C696 C 0.36891 0.57606 0.04176 0.0
C697 C 0.38791 0.59287 0.03058 0.0
C698 C 0.42598 0.57677 0.02587 0.0
C699 C 0.44489 0.54219 0.03222 0.0
C700 C 0.42545 0.52454 0.04331 0.0
C701 C 0.38776 0.54189 0.04796 0.0
C702 C 0.44603 0.59698 0.01411 0.0
C703 C 0.44439 0.4873 0.05019 0.0
C704 C 0.37688 0.37246 0.96779 0.0
C705 C 0.38204 0.4155 0.96543 0.0
C706 C 0.41937 0.43594 0.96883 0.0
C707 C 0.45156 0.41287 0.97503 0.0
C708 C 0.44681 0.36908 0.97699 0.0
C709 C 0.40968 0.34932 0.97314 0.0
C710 C 0.42405 0.48226 0.96605 0.0
C711 C 0.48055 0.34332 0.98342 0.0
C712 C 0.76817 0.50371 0.95966 0.0
C713 C 0.75366 0.4609 0.95477 0.0
C714 C 0.67739 0.45894 0.95561 0.0
C715 C 0.64579 0.48884 0.95412 0.0
C716 C 0.60802 0.4857 0.96111 0.0
C717 C 0.60154 0.45119 0.96958 0.0
C718 C 0.6324 0.4194 0.9705 0.0
C719 C 0.67013 0.42364 0.96351 0.0
C720 C 0.57552 0.51987 0.95974 0.0
C721 C 0.62584 0.38157 0.97912 0.0
C722 C 0.56117 0.52626 0.02725 0.0
C723 C 0.52243 0.53629 0.03289 0.0
C724 C 0.48479 0.5247 0.02706 0.0
C725 C 0.48575 0.50034 0.01572 0.0
C726 C 0.44884 0.48364 0.0105 0.0
C727 C 0.45001 0.4608 0.99911 0.0
C728 C 0.4878 0.45572 0.99216 0.0
C729 C 0.48906 0.4346 0.98019 0.0
C730 C 0.52667 0.43283 0.97314 0.0
C731 C 0.56366 0.45004 0.97801 0.0
C732 C 0.56367 0.46817 0.99043 0.0
C733 C 0.60089 0.4828 0.99609 0.0
C734 C 0.60041 0.5007 0.00832 0.0
C735 C 0.56243 0.50667 0.01505 0.0
C736 C 0.52455 0.4929 0.0094 0.0
C737 C 0.52537 0.47211 0.99734 0.0
C738 C 0.29198 0.33724 0.98159 0.0
C739 C 0.30146 0.36321 0.96943 0.0
O740 O 0.70305 0.56387 0.05769 0.0
O741 O 0.71436 0.46484 0.94926 0.0
O742 O 0.34087 0.3524 0.96474 0.0
O743 O 0.33292 0.59193 0.04696 0.0
H744 H 0.71843 0.51143 0.06823 0.0
H745 H 0.64913 0.53931 0.07654 0.0
H746 H 0.67409 0.58801 0.08077 0.0
H747 H 0.68771 0.53971 0.089 0.0
H748 H 0.66192 0.49001 0.05755 0.0
H749 H 0.67119 0.61274 0.04044 0.0
H750 H 0.56165 0.4662 0.04809 0.0
H751 H 0.61108 0.44121 0.05166 0.0
H752 H 0.59359 0.4464 0.03519 0.0
H753 H 0.62436 0.63631 0.0244 0.0
H754 H 0.57189 0.6165 0.02709 0.0
H755 H 0.60362 0.59512 0.01441 0.0
H756 H 0.30711 0.62758 0.03252 0.0
H757 H 0.31824 0.69602 0.04421 0.0
H758 H 0.36696 0.66871 0.04207 0.0
H759 H 0.34129 0.66773 0.05758 0.0
H760 H 0.37356 0.6188 0.02548 0.0
H761 H 0.37283 0.52889 0.05654 0.0
H762 H 0.47989 0.60284 0.0158 0.0
H763 H 0.43078 0.62718 0.01149 0.0
H764 H 0.44351 0.57546 0.00578 0.0
H765 H 0.42357 0.47495 0.05798 0.0
H766 H 0.47477 0.49656 0.05449 0.0
H767 H 0.4509 0.4618 0.0432 0.0
H768 H 0.3006 0.39703 0.97209 0.0
H769 H 0.35696 0.43297 0.96088 0.0
H770 H 0.40548 0.3159 0.97468 0.0
H771 H 0.4212 0.49998 0.9752 0.0
H772 H 0.39969 0.49393 0.95931 0.0
H773 H 0.45553 0.48899 0.96185 0.0
H774 H 0.47113 0.31 0.9848 0.0
H775 H 0.48805 0.35683 0.99298 0.0
H776 H 0.50964 0.34432 0.97746 0.0
H777 H 0.75249 0.43958 0.96332 0.0
H778 H 0.80021 0.50127 0.96375 0.0
H779 H 0.74651 0.5147 0.96739 0.0
H780 H 0.76834 0.52746 0.95176 0.0
H781 H 0.65145 0.51551 0.94779 0.0
H782 H 0.69383 0.3994 0.9642 0.0
H783 H 0.57018 0.5351 0.96922 0.0
H784 H 0.54522 0.50604 0.9567 0.0
H785 H 0.58505 0.54427 0.95258 0.0
H786 H 0.65133 0.35804 0.97802 0.0
H787 H 0.59537 0.36644 0.9769 0.0
H788 H 0.62451 0.39166 0.98935 0.0
H789 H 0.52158 0.55362 0.04187 0.0
H790 H 0.41874 0.48759 0.01526 0.0
H791 H 0.42068 0.44816 0.99567 0.0
H792 H 0.52714 0.41802 0.96374 0.0
H793 H 0.63092 0.48006 0.99121 0.0
H794 H 0.63002 0.51091 0.01227 0.0
H795 H 0.29217 0.30317 0.97935 0.0
H796 H 0.26085 0.34586 0.98569 0.0
H797 H 0.31614 0.3434 0.989 0.0
C798 C 0.84351 0.66262 0.44373 0.0
C799 C 0.82437 0.6185 0.44419 0.0
C800 C 0.85142 0.58851 0.46374 0.0
C801 C 0.86752 0.54913 0.46047 0.0
C802 C 0.90301 0.53306 0.46671 0.0
C803 C 0.92294 0.55731 0.47628 0.0
C804 C 0.90583 0.59661 0.47986 0.0
C805 C 0.86973 0.61147 0.47364 0.0
C806 C 0.92006 0.49082 0.46278 0.0
C807 C 0.92665 0.62361 0.48985 0.0
C808 C 0.15736 0.64722 0.43253 0.0
C809 C 0.18054 0.64234 0.44534 0.0
C810 C 0.14497 0.58604 0.45704 0.0
C811 C 0.13007 0.60764 0.4679 0.0
C812 C 0.09586 0.59227 0.47507 0.0
C813 C 0.07657 0.55423 0.47139 0.0
C814 C 0.09252 0.53157 0.46074 0.0
C815 C 0.12691 0.54767 0.45375 0.0
C816 C 0.08012 0.61682 0.48654 0.0
C817 C 0.07297 0.49065 0.45671 0.0
C818 C 0.17632 0.40176 0.53436 0.0
C819 C 0.16442 0.44226 0.53819 0.0
C820 C 0.12358 0.45706 0.53599 0.0
C821 C 0.09413 0.43076 0.52987 0.0
C822 C 0.10537 0.38908 0.52672 0.0
C823 C 0.14632 0.37498 0.52914 0.0
C824 C 0.11226 0.50126 0.53982 0.0
C825 C 0.07461 0.36003 0.52033 0.0
C826 C 0.79593 0.52842 0.559 0.0
C827 C 0.79975 0.48051 0.55914 0.0
C828 C 0.87337 0.46527 0.55581 0.0
C829 C 0.90708 0.49259 0.55737 0.0
C830 C 0.94223 0.49057 0.54917 0.0
C831 C 0.94406 0.45942 0.53949 0.0
C832 C 0.91099 0.42994 0.53845 0.0
C833 C 0.87558 0.43362 0.54653 0.0
C834 C 0.97694 0.52235 0.55069 0.0
C835 C 0.91263 0.39529 0.52861 0.0
C836 C 0.96362 0.54313 0.48164 0.0
C837 C 0.99982 0.55198 0.47443 0.0
C838 C 0.03926 0.53892 0.47863 0.0
C839 C 0.04281 0.51491 0.49007 0.0
C840 C 0.08174 0.49916 0.49412 0.0
C841 C 0.08508 0.47641 0.50556 0.0
C842 C 0.04983 0.46964 0.51359 0.0
C843 C 0.0533 0.44814 0.52552 0.0
C844 C 0.01806 0.44382 0.53356 0.0
C845 C 0.97902 0.46005 0.52991 0.0
C846 C 0.97457 0.47987 0.51773 0.0
C847 C 0.93552 0.49522 0.51351 0.0
C848 C 0.93156 0.51481 0.50154 0.0
C849 C 0.96683 0.52162 0.49358 0.0
C850 C 0.00657 0.507 0.49772 0.0
C851 C 0.01026 0.48518 0.50964 0.0
C852 C 0.26612 0.40017 0.5189 0.0
C853 C 0.25246 0.40966 0.53277 0.0
O854 O 0.81957 0.60561 0.45693 0.0
O855 O 0.83922 0.46942 0.56354 0.0
O856 O 0.21617 0.38736 0.53573 0.0
O857 O 0.17698 0.60119 0.44967 0.0
H858 H 0.84608 0.59679 0.43902 0.0
H859 H 0.87498 0.66232 0.44825 0.0
H860 H 0.82321 0.68521 0.44901 0.0
H861 H 0.8473 0.67348 0.43357 0.0
H862 H 0.85269 0.53145 0.45287 0.0
H863 H 0.85681 0.64192 0.47605 0.0
H864 H 0.95054 0.49517 0.45767 0.0
H865 H 0.89836 0.47386 0.45629 0.0
H866 H 0.9259 0.47109 0.47146 0.0
H867 H 0.90979 0.65372 0.49137 0.0
H868 H 0.95943 0.63058 0.48682 0.0
H869 H 0.92801 0.60643 0.49919 0.0
H870 H 0.16607 0.66448 0.45232 0.0
H871 H 0.16009 0.67998 0.42887 0.0
H872 H 0.12354 0.63996 0.43397 0.0
H873 H 0.1704 0.62545 0.42518 0.0
H874 H 0.14532 0.63628 0.47088 0.0
H875 H 0.13919 0.5309 0.44547 0.0
H876 H 0.04659 0.62512 0.4852 0.0
H877 H 0.09825 0.64614 0.48804 0.0
H878 H 0.0822 0.59716 0.49541 0.0
H879 H 0.08993 0.47611 0.44847 0.0
H880 H 0.03984 0.4961 0.45392 0.0
H881 H 0.07274 0.46827 0.46498 0.0
H882 H 0.24689 0.44404 0.53331 0.0
H883 H 0.18688 0.46237 0.5429 0.0
H884 H 0.15558 0.34344 0.5265 0.0
H885 H 0.10693 0.52051 0.53101 0.0
H886 H 0.13725 0.51635 0.54558 0.0
H887 H 0.08262 0.5012 0.54552 0.0
H888 H 0.08754 0.32794 0.51903 0.0
H889 H 0.06605 0.37296 0.51073 0.0
H890 H 0.04536 0.35794 0.52621 0.0
H891 H 0.79527 0.46891 0.54912 0.0
H892 H 0.76488 0.53825 0.55523 0.0
H893 H 0.82058 0.5422 0.55262 0.0
H894 H 0.79983 0.54107 0.56888 0.0
H895 H 0.9051 0.51643 0.56476 0.0
H896 H 0.84964 0.41187 0.54566 0.0
H897 H 0.9834 0.53837 0.54133 0.0
H898 H 0.00612 0.50603 0.55365 0.0
H899 H 0.96919 0.54645 0.55803 0.0
H900 H 0.8882 0.37106 0.53047 0.0
H901 H 0.94397 0.38003 0.52862 0.0
H902 H 0.90761 0.40872 0.51884 0.0
H903 H 0.99736 0.56996 0.46553 0.0
H904 H 0.11003 0.50401 0.48844 0.0
H905 H 0.11587 0.46486 0.50812 0.0
H906 H 0.02124 0.4285 0.54289 0.0
H907 H 0.90741 0.49203 0.51936 0.0
H908 H 0.90067 0.52545 0.49873 0.0
H909 H 0.29555 0.41727 0.51645 0.0
H910 H 0.24135 0.41059 0.51211 0.0
H911 H 0.2713 0.36598 0.51758 0.0
Fe912 Fe 0.01915 0.76312 0.14241 0.0
O913 O 0.04902 0.73838 0.12736 0.0
Fe914 Fe 0.92103 0.78707 0.13119 0.0
Fe915 Fe 0.1103 0.74028 0.12573 0.0
O916 O 0.98207 0.78898 0.12924 0.0
O917 O 0.98207 0.78975 0.12801 0.0
O918 O 0.04876 0.73865 0.12614 0.0
Fe919 Fe 0.01194 0.76493 0.11276 0.0
C920 C 0.09485 0.81687 0.14297 0.0
O921 O 0.06106 0.73132 0.15464 0.0
O922 O 0.10642 0.69789 0.14072 0.0
O923 O 0.97391 0.71252 0.11303 0.0
O924 O 0.91123 0.73998 0.11814 0.0
O925 O 0.92086 0.74194 0.1459 0.0
O926 O 0.98255 0.71101 0.14345 0.0
O927 O 0.10015 0.69957 0.11065 0.0
O928 O 0.04924 0.73424 0.09873 0.0
C929 C 0.94518 0.71065 0.14764 0.0
O930 O 0.96776 0.79596 0.10096 0.0
O931 O 0.92178 0.82722 0.11544 0.0
O932 O 0.05557 0.81517 0.14146 0.0
O933 O 0.11874 0.78645 0.13976 0.0
C934 C 0.08833 0.70218 0.15189 0.0
C935 C 0.07922 0.70651 0.10011 0.0
C936 C 0.08937 0.81597 0.10831 0.0
O937 O 0.11279 0.7856 0.1117 0.0
O938 O 0.05035 0.81748 0.11116 0.0
C939 C 0.93397 0.71092 0.11344 0.0
O940 O 0.93325 0.83014 0.14544 0.0
O941 O 0.98401 0.79419 0.15672 0.0
C942 C 0.93716 0.82169 0.10389 0.0
C943 C 0.95672 0.82439 0.15549 0.0
Fe944 Fe 0.51895 0.77334 0.39326 0.0
O945 O 0.48738 0.74076 0.38016 0.0
Fe946 Fe 0.55279 0.86155 0.3763 0.0
Fe947 Fe 0.48233 0.67927 0.38144 0.0
O948 O 0.54638 0.80067 0.37803 0.0
O949 O 0.5466 0.80021 0.37682 0.0
O950 O 0.4877 0.74021 0.37891 0.0
Fe951 Fe 0.51566 0.76722 0.36358 0.0
C952 C 0.56268 0.6919 0.39653 0.0
O953 O 0.48443 0.74105 0.40771 0.0
O954 O 0.44289 0.69492 0.39635 0.0
O955 O 0.46823 0.81155 0.36278 0.0
O956 O 0.5069 0.86999 0.36275 0.0
O957 O 0.50938 0.87576 0.39069 0.0
O958 O 0.4723 0.81726 0.39376 0.0
O959 O 0.44135 0.68642 0.36619 0.0
O960 O 0.47915 0.72803 0.35184 0.0
C961 C 0.47704 0.85656 0.395 0.0
O962 O 0.54957 0.80086 0.34932 0.0
O963 O 0.59107 0.84674 0.3608 0.0
O964 O 0.56598 0.73004 0.39321 0.0
O965 O 0.52829 0.67195 0.39547 0.0
C966 C 0.45205 0.71637 0.40653 0.0
C967 C 0.44948 0.70112 0.35468 0.0
C968 C 0.55837 0.68311 0.36292 0.0
O969 O 0.52619 0.66487 0.36765 0.0
O970 O 0.56308 0.72285 0.36314 0.0
C971 C 0.47348 0.85025 0.35998 0.0
O972 O 0.59489 0.85219 0.39104 0.0
O973 O 0.55732 0.80981 0.40515 0.0
C974 C 0.58039 0.82773 0.35024 0.0
C975 C 0.5888 0.83431 0.40222 0.0
Fe976 Fe 0.51649 0.26053 0.64397 0.0
O977 O 0.55293 0.23642 0.63023 0.0
Fe978 Fe 0.423 0.28323 0.62942 0.0
Fe979 Fe 0.6144 0.24256 0.63091 0.0
O980 O 0.48406 0.28504 0.62949 0.0
O981 O 0.48447 0.28565 0.62829 0.0
O982 O 0.55312 0.23661 0.62901 0.0
Fe983 Fe 0.51963 0.26011 0.61431 0.0
C984 C 0.58825 0.31695 0.64769 0.0
O985 O 0.55481 0.2303 0.65765 0.0
O986 O 0.60727 0.19941 0.64555 0.0
O987 O 0.48262 0.20669 0.61401 0.0
O988 O 0.41865 0.23521 0.61644 0.0
O989 O 0.41835 0.23902 0.64426 0.0
O990 O 0.4805 0.2075 0.64412 0.0
O991 O 0.61326 0.20206 0.61542 0.0
O992 O 0.5627 0.22981 0.60177 0.0
C993 C 0.44159 0.20747 0.64681 0.0
O994 O 0.47902 0.28855 0.60089 0.0
O995 O 0.4289 0.32223 0.61343 0.0
O996 O 0.55083 0.31395 0.64397 0.0
O997 O 0.61468 0.28781 0.64548 0.0
C998 C 0.58478 0.20294 0.65598 0.0
C999 C 0.59474 0.20544 0.6043 0.0
C1000 C 0.59507 0.3174 0.61301 0.0
O1001 O 0.61976 0.28961 0.61744 0.0
O1002 O 0.55533 0.31391 0.61332 0.0
C1003 C 0.44268 0.20525 0.61299 0.0
O1004 O 0.43006 0.32737 0.64383 0.0
O1005 O 0.47581 0.29096 0.65685 0.0
C1006 C 0.44794 0.31485 0.6025 0.0
C1007 C 0.44975 0.32158 0.65464 0.0
Fe1008 Fe 0.01218 0.25772 0.89122 0.0
O1009 O 0.98337 0.22544 0.87752 0.0
Fe1010 Fe 0.04621 0.34781 0.87566 0.0
Fe1011 Fe 0.97829 0.16425 0.87838 0.0
O1012 O 0.04143 0.28647 0.87657 0.0
O1013 O 0.04148 0.28631 0.87533 0.0
O1014 O 0.98331 0.22534 0.87631 0.0
Fe1015 Fe 0.01209 0.25442 0.8615 0.0
C1016 C 0.05634 0.17671 0.89488 0.0
O1017 O 0.97613 0.22429 0.905 0.0
O1018 O 0.93669 0.17834 0.89302 0.0
O1019 O 0.96391 0.29802 0.86075 0.0
O1020 O 0.00146 0.35709 0.86183 0.0
O1021 O 0.00113 0.35918 0.88997 0.0
O1022 O 0.96453 0.30005 0.89077 0.0
O1023 O 0.93916 0.17211 0.86269 0.0
O1024 O 0.97762 0.2156 0.84908 0.0
C1025 C 0.96807 0.3388 0.8931 0.0
O1026 O 0.0466 0.29052 0.8479 0.0
O1027 O 0.08593 0.33604 0.86022 0.0
O1028 O 0.05993 0.2152 0.89193 0.0
O1029 O 0.02258 0.15646 0.89283 0.0
C1030 C 0.9443 0.19906 0.90349 0.0
C1031 C 0.94906 0.18693 0.85131 0.0
C1032 C 0.05589 0.1708 0.86044 0.0
O1033 O 0.02398 0.15164 0.865 0.0
O1034 O 0.06008 0.21061 0.86095 0.0
C1035 C 0.96892 0.33705 0.85841 0.0
O1036 O 0.08743 0.33716 0.89055 0.0
O1037 O 0.04755 0.29464 0.90393 0.0
C1038 C 0.07641 0.31831 0.84934 0.0
C1039 C 0.07991 0.31858 0.90153 0.0
H1040 H 0.27391 0.04531 0.42575 0.0
H1041 H 0.3056 0.94307 0.46309 0.0
H1042 H 0.33637 0.00269 0.41034 0.0
H1043 H 0.36743 0.90283 0.44675 0.0
H1044 H 0.42674 0.82571 0.41408 0.0
H1045 H 0.37538 0.86319 0.42715 0.0
H1046 H 0.40692 0.97841 0.40711 0.0
H1047 H 0.45745 0.94029 0.39368 0.0
C1048 C 0.29273 0.02038 0.42985 0.0
C1049 C 0.27791 0.99378 0.44527 0.0
C1050 C 0.33038 0.99231 0.42014 0.0
C1051 C 0.35706 0.94657 0.4265 0.0
C1052 C 0.34955 0.92904 0.44304 0.0
C1053 C 0.31258 0.95507 0.45352 0.0
C1054 C 0.42202 0.85883 0.41228 0.0
C1055 C 0.44554 0.87986 0.4027 0.0
C1056 C 0.39313 0.88051 0.41993 0.0
C1057 C 0.3871 0.92377 0.41818 0.0
C1058 C 0.41041 0.94493 0.40857 0.0
C1059 C 0.43959 0.92321 0.40094 0.0
H1060 H 0.35481 0.96736 0.67807 0.0
H1061 H 0.3468 0.0547 0.7097 0.0
H1062 H 0.38135 0.02338 0.66398 0.0
H1063 H 0.37228 0.11095 0.69546 0.0
H1064 H 0.36884 0.20521 0.66099 0.0
H1065 H 0.3428 0.14779 0.67462 0.0
H1066 H 0.44892 0.07178 0.66341 0.0
H1067 H 0.47546 0.12926 0.64989 0.0
C1068 C 0.35913 0.99835 0.68206 0.0
C1069 C 0.34957 0.00644 0.69511 0.0
C1070 C 0.37418 0.03039 0.67398 0.0
C1071 C 0.37884 0.07135 0.67866 0.0
C1072 C 0.36879 0.07963 0.69161 0.0
C1073 C 0.3545 0.04747 0.69976 0.0
C1074 C 0.38647 0.17616 0.66134 0.0
C1075 C 0.42421 0.1718 0.65435 0.0
C1076 C 0.37169 0.14346 0.6692 0.0
C1077 C 0.39395 0.10552 0.67006 0.0
C1078 C 0.43109 0.10068 0.66285 0.0
C1079 C 0.44627 0.13362 0.65515 0.0
H1080 H 0.21148 0.06878 0.9545 0.0
H1081 H 0.2964 0.0804 0.92197 0.0
H1082 H 0.154 0.09514 0.94117 0.0
H1083 H 0.23913 0.10728 0.90872 0.0
H1084 H 0.13703 0.20434 0.89652 0.0
H1085 H 0.19418 0.17357 0.90886 0.0
H1086 H 0.11271 0.07257 0.92125 0.0
H1087 H 0.05518 0.10325 0.90884 0.0
C1088 C 0.21786 0.07735 0.94453 0.0
C1089 C 0.25863 0.0737 0.93939 0.0
C1090 C 0.18497 0.09202 0.93689 0.0
C1091 C 0.19224 0.10343 0.92395 0.0
C1092 C 0.23284 0.09921 0.91873 0.0
C1093 C 0.26561 0.08401 0.92632 0.0
C1094 C 0.13128 0.1754 0.9018 0.0
C1095 C 0.0915 0.15627 0.90172 0.0
C1096 C 0.16411 0.15772 0.90881 0.0
C1097 C 0.15781 0.12078 0.91601 0.0
C1098 C 0.11826 0.10128 0.91584 0.0
C1099 C 0.08546 0.11869 0.90868 0.0
H1100 H 0.11725 0.05276 0.18368 0.0
H1101 H 0.18568 0.96148 0.20619 0.0
H1102 H 0.11433 0.00382 0.16582 0.0
H1103 H 0.1802 0.91125 0.18866 0.0
H1104 H 0.17348 0.82901 0.15343 0.0
H1105 H 0.19514 0.88698 0.16732 0.0
H1106 H 0.07317 0.94434 0.1626 0.0
H1107 H 0.05263 0.88849 0.14853 0.0
C1108 C 0.13153 0.02212 0.18483 0.0
C1109 C 0.14992 0.01033 0.19658 0.0
C1110 C 0.12974 0.99394 0.17461 0.0
C1111 C 0.14584 0.953 0.17591 0.0
C1112 C 0.16726 0.94237 0.18729 0.0
C1113 C 0.16978 0.97096 0.19745 0.0
C1114 C 0.15181 0.85459 0.15516 0.0
C1115 C 0.11125 0.85384 0.14993 0.0
C1116 C 0.16404 0.88762 0.1632 0.0
C1117 C 0.13593 0.92044 0.16614 0.0
C1118 C 0.09612 0.92029 0.16042 0.0
C1119 C 0.08411 0.88773 0.1524 0.0
H1120 H 0.25673 0.11127 0.5646 0.0
H1121 H 0.34668 0.01005 0.56135 0.0
H1122 H 0.30065 0.1443 0.58076 0.0
H1123 H 0.39038 0.0434 0.57742 0.0
H1124 H 0.47459 0.1562 0.59351 0.0
H1125 H 0.43392 0.11035 0.57937 0.0
H1126 H 0.32403 0.12987 0.60326 0.0
H1127 H 0.36427 0.1755 0.61723 0.0
C1128 C 0.28572 0.09599 0.56736 0.0
C1129 C 0.29783 0.05813 0.56156 0.0
C1130 C 0.31078 0.11476 0.57666 0.0
C1131 C 0.34887 0.09626 0.5804 0.0
C1132 C 0.36127 0.05842 0.57467 0.0
C1133 C 0.33593 0.03931 0.56542 0.0
C1134 C 0.4421 0.1496 0.59593 0.0
C1135 C 0.4224 0.16987 0.60634 0.0
C1136 C 0.41879 0.12352 0.58782 0.0
C1137 C 0.37557 0.11738 0.59006 0.0
C1138 C 0.357 0.13486 0.60111 0.0
C1139 C 0.38012 0.1608 0.60915 0.0
H1140 H 0.18233 0.03028 0.79834 0.0
H1141 H 0.07026 0.96846 0.81248 0.0
H1142 H 0.17532 0.08303 0.8154 0.0
H1143 H 0.06384 0.02035 0.82955 0.0
H1144 H 0.0808 0.09131 0.86533 0.0
H1145 H 0.10651 0.04127 0.84944 0.0
H1146 H 0.11927 0.14127 0.82137 0.0
H1147 H 0.0933 0.19168 0.83737 0.0
C1148 C 0.1563 0.02796 0.8051 0.0
C1149 C 0.12672 0.99532 0.80404 0.0
C1150 C 0.15237 0.05805 0.81484 0.0
C1151 C 0.11932 0.0555 0.82385 0.0
C1152 C 0.09005 0.02268 0.82285 0.0
C1153 C 0.0936 0.99308 0.81304 0.0
C1154 C 0.09052 0.10288 0.85591 0.0
C1155 C 0.08475 0.14526 0.85253 0.0
C1156 C 0.10489 0.07419 0.84679 0.0
C1157 C 0.11391 0.08729 0.83412 0.0
C1158 C 0.11244 0.13039 0.83109 0.0
C1159 C 0.0979 0.15928 0.84026 0.0
H1160 H 0.2115 0.04884 0.06404 0.0
H1161 H 0.32019 0.93279 0.07281 0.0
H1162 H 0.14839 0.99647 0.07642 0.0
H1163 H 0.25452 0.88352 0.08482 0.0
H1164 H 0.14387 0.80055 0.08911 0.0
H1165 H 0.18857 0.85019 0.07769 0.0
H1166 H 0.12597 0.95297 0.09677 0.0
H1167 H 0.08031 0.90244 0.10838 0.0
C1168 C 0.21987 0.01925 0.06851 0.0
C1169 C 0.271 0.99287 0.06509 0.0
C1170 C 0.18044 0.98556 0.07567 0.0
C1171 C 0.19389 0.93342 0.08124 0.0
C1172 C 0.24728 0.91414 0.08087 0.0
C1173 C 0.28882 0.94528 0.07396 0.0
C1174 C 0.13912 0.83379 0.09076 0.0
C1175 C 0.10913 0.84769 0.09979 0.0
C1176 C 0.16492 0.86218 0.08427 0.0
C1177 C 0.16141 0.90523 0.08661 0.0
C1178 C 0.12927 0.91977 0.09484 0.0
C1179 C 0.10316 0.89101 0.10145 0.0
H1180 H 0.34544 0.98616 0.29935 0.0
H1181 H 0.26148 0.99639 0.33211 0.0
H1182 H 0.3922 0.94171 0.31206 0.0
H1183 H 0.30812 0.95123 0.34479 0.0
H1184 H 0.38887 0.8339 0.35763 0.0
H1185 H 0.33792 0.87376 0.34469 0.0
H1186 H 0.43677 0.95713 0.33185 0.0
H1187 H 0.48707 0.91817 0.34467 0.0
C1188 C 0.3369 0.9787 0.30925 0.0
C1189 C 0.29977 0.99462 0.31473 0.0
C1190 C 0.3636 0.95327 0.31651 0.0
C1191 C 0.3536 0.94292 0.32938 0.0
C1192 C 0.31622 0.9583 0.33484 0.0
C1193 C 0.28972 0.98424 0.32761 0.0
C1194 C 0.39955 0.86071 0.35202 0.0
C1195 C 0.44189 0.87301 0.35223 0.0
C1196 C 0.37047 0.88355 0.34469 0.0
C1197 C 0.38356 0.91837 0.33725 0.0
C1198 C 0.4259 0.93022 0.33739 0.0
C1199 C 0.45462 0.90801 0.34483 0.0
H1200 H 0.78494 0.1524 0.54842 0.0
H1201 H 0.73885 0.02843 0.55776 0.0
H1202 H 0.72763 0.18329 0.56104 0.0
H1203 H 0.68108 0.0591 0.57008 0.0
H1204 H 0.63072 0.12875 0.60611 0.0
H1205 H 0.67642 0.09506 0.59046 0.0
H1206 H 0.65103 0.19421 0.56295 0.0
H1207 H 0.60525 0.22851 0.57889 0.0
C1208 C 0.76254 0.1318 0.55318 0.0
C1209 C 0.76721 0.08796 0.55249 0.0
C1210 C 0.72938 0.14946 0.56025 0.0
C1211 C 0.69993 0.12366 0.56667 0.0
C1212 C 0.70363 0.07987 0.56547 0.0
C1213 C 0.73676 0.06228 0.55844 0.0
C1214 C 0.63415 0.14295 0.59663 0.0
C1215 C 0.61451 0.18131 0.59373 0.0
C1216 C 0.66027 0.12352 0.58761 0.0
C1217 C 0.6677 0.14205 0.57546 0.0
C1218 C 0.64632 0.1794 0.57229 0.0
C1219 C 0.6197 0.19875 0.58133 0.0
H1220 H 0.58384 0.99228 0.27858 0.0
H1221 H 0.73717 0.99595 0.29369 0.0
H1222 H 0.56859 0.92372 0.29625 0.0
H1223 H 0.7185 0.9269 0.31102 0.0
H1224 H 0.65388 0.87128 0.34801 0.0
H1225 H 0.67855 0.91097 0.32946 0.0
H1226 H 0.57912 0.85874 0.30647 0.0
H1227 H 0.55327 0.81995 0.32528 0.0
C1228 C 0.60932 0.97851 0.28399 0.0
C1229 C 0.66029 0.00609 0.28596 0.0
C1230 C 0.59983 0.93669 0.29543 0.0
C1231 C 0.64115 0.91859 0.30602 0.0
C1232 C 0.6941 0.93922 0.30487 0.0
C1233 C 0.70662 0.98114 0.29373 0.0
C1234 C 0.63765 0.86755 0.33895 0.0
C1235 C 0.60111 0.84294 0.33822 0.0
C1236 C 0.65208 0.89018 0.32822 0.0
C1237 C 0.63043 0.88864 0.3165 0.0
C1238 C 0.59591 0.86147 0.31546 0.0
C1239 C 0.5814 0.83873 0.32621 0.0
H1240 H 0.74466 0.82114 0.04931 0.0
H1241 H 0.73615 0.94802 0.06351 0.0
H1242 H 0.81239 0.813 0.0596 0.0
H1243 H 0.80536 0.94132 0.07283 0.0
H1244 H 0.93542 0.80178 0.07806 0.0
H1245 H 0.88344 0.82539 0.06241 0.0
H1246 H 0.83164 0.91003 0.09088 0.0
H1247 H 0.88464 0.88864 0.10596 0.0
C1248 C 0.75779 0.84765 0.05438 0.0
C1249 C 0.73447 0.88482 0.05578 0.0
C1250 C 0.79703 0.84323 0.06015 0.0
C1251 C 0.81452 0.8763 0.06727 0.0
C1252 C 0.79255 0.91465 0.06779 0.0
C1253 C 0.75279 0.91867 0.06232 0.0
C1254 C 0.91383 0.82652 0.08077 0.0
C1255 C 0.9137 0.84266 0.09336 0.0
C1256 C 0.88355 0.83967 0.07186 0.0
C1257 C 0.85237 0.86895 0.07541 0.0
C1258 C 0.85492 0.88766 0.08763 0.0
C1259 C 0.88532 0.87497 0.09641 0.0
H1260 H 0.95052 0.97476 0.805 0.0
H1261 H 0.87942 0.05573 0.77966 0.0
H1262 H 0.95039 0.02941 0.82136 0.0
H1263 H 0.88086 0.11116 0.796 0.0
H1264 H 0.96375 0.20122 0.82539 0.0
H1265 H 0.94996 0.15233 0.8078 0.0
H1266 H 0.88462 0.0699 0.8343 0.0
H1267 H 0.89703 0.11857 0.8518 0.0
C1268 C 0.93451 0.00398 0.80294 0.0
C1269 C 0.91428 0.01063 0.79108 0.0
C1270 C 0.93457 0.03528 0.8123 0.0
C1271 C 0.91538 0.07421 0.80991 0.0
C1272 C 0.89572 0.08129 0.79804 0.0
C1273 C 0.89483 0.04962 0.78876 0.0
C1274 C 0.94531 0.17336 0.82742 0.0
C1275 C 0.93208 0.16374 0.8401 0.0
C1276 C 0.93754 0.14539 0.81734 0.0
C1277 C 0.91685 0.10725 0.81982 0.0
C1278 C 0.90104 0.09899 0.83222 0.0
C1279 C 0.90811 0.12711 0.84223 0.0
H1280 H 0.83278 0.88014 0.4322 0.0
H1281 H 0.76946 0.82944 0.46583 0.0
H1282 H 0.76769 0.87685 0.42014 0.0
H1283 H 0.70363 0.82703 0.45385 0.0
H1284 H 0.61111 0.78187 0.42204 0.0
H1285 H 0.67154 0.78901 0.43622 0.0
H1286 H 0.70002 0.90941 0.41878 0.0
H1287 H 0.64059 0.90168 0.40441 0.0
C1288 C 0.80467 0.86892 0.43706 0.0
C1289 C 0.80599 0.85573 0.45001 0.0
C1290 C 0.7673 0.86719 0.43019 0.0
C1291 C 0.73028 0.85212 0.43607 0.0
C1292 C 0.73161 0.83867 0.44902 0.0
C1293 C 0.76916 0.84033 0.45591 0.0
C1294 C 0.62991 0.81016 0.42141 0.0
C1295 C 0.62138 0.84105 0.41205 0.0
C1296 C 0.66451 0.81428 0.42954 0.0
C1297 C 0.69096 0.84954 0.42851 0.0
C1298 C 0.68092 0.88139 0.41961 0.0
C1299 C 0.64671 0.87708 0.41142 0.0
H1300 H 0.97509 0.04417 0.20407 0.0
H1301 H 0.89606 0.95877 0.22587 0.0
H1302 H 0.98144 0.99235 0.18689 0.0
H1303 H 0.90352 0.9065 0.20878 0.0
H1304 H 0.97357 0.81227 0.18113 0.0
H1305 H 0.96755 0.8638 0.19851 0.0
H1306 H 0.92637 0.95727 0.17108 0.0
H1307 H 0.93155 0.90588 0.15376 0.0
C1308 C 0.95877 0.01454 0.20516 0.0
C1309 C 0.93417 0.0059 0.21621 0.0
C1310 C 0.96257 0.98487 0.19534 0.0
C1311 C 0.94284 0.94561 0.19653 0.0
C1312 C 0.9191 0.93654 0.20767 0.0
C1313 C 0.91463 0.96647 0.21738 0.0
C1314 C 0.96312 0.84378 0.17883 0.0
C1315 C 0.95272 0.85495 0.16611 0.0
C1316 C 0.95959 0.87314 0.18876 0.0
C1317 C 0.94654 0.91439 0.18608 0.0
C1318 C 0.93668 0.92569 0.17336 0.0
C1319 C 0.93935 0.89618 0.16349 0.0
H1320 H 0.78707 0.09406 0.96446 0.0
H1321 H 0.755 0.22568 0.96424 0.0
H1322 H 0.83838 0.10643 0.94724 0.0
H1323 H 0.8063 0.23817 0.94689 0.0
H1324 H 0.93399 0.24771 0.92513 0.0
H1325 H 0.88393 0.23686 0.94289 0.0
H1326 H 0.83726 0.12571 0.9242 0.0
H1327 H 0.88714 0.13605 0.90664 0.0
C1328 C 0.79083 0.12559 0.96065 0.0
C1329 C 0.76674 0.15882 0.96558 0.0
C1330 C 0.82014 0.1327 0.95078 0.0
C1331 C 0.82628 0.17326 0.94568 0.0
C1332 C 0.80252 0.20664 0.9507 0.0
C1333 C 0.77297 0.19947 0.96054 0.0
C1334 C 0.91322 0.22082 0.92486 0.0
C1335 C 0.91474 0.19269 0.91447 0.0
C1336 C 0.88434 0.21481 0.93498 0.0
C1337 C 0.85677 0.18032 0.93496 0.0
C1338 C 0.85844 0.15226 0.92459 0.0
C1339 C 0.88692 0.15841 0.91447 0.0
H1340 H 0.58619 0.02076 0.72008 0.0
H1341 H 0.64907 0.9649 0.68737 0.0
H1342 H 0.57916 0.08673 0.70802 0.0
H1343 H 0.64178 0.03034 0.67531 0.0
H1344 H 0.65755 0.16115 0.66059 0.0
H1345 H 0.66832 0.10229 0.67526 0.0
H1346 H 0.54062 0.11416 0.6891 0.0
H1347 H 0.52997 0.17382 0.6745 0.0
C1348 C 0.59894 0.02283 0.71037 0.0
C1349 C 0.61914 0.98809 0.70478 0.0
C1350 C 0.59464 0.0604 0.70345 0.0
C1351 C 0.61034 0.06388 0.69077 0.0
C1352 C 0.63024 0.02899 0.68516 0.0
C1353 C 0.63438 0.99148 0.69205 0.0
C1354 C 0.63191 0.1516 0.66689 0.0
C1355 C 0.5928 0.17189 0.66633 0.0
C1356 C 0.63804 0.11774 0.67524 0.0
C1357 C 0.60514 0.10316 0.68318 0.0
C1358 C 0.56665 0.12483 0.68314 0.0
C1359 C 0.56056 0.159 0.6748 0.0
H1360 H 0.7742 0.49252 0.93068 0.0
H1361 H 0.80214 0.39013 0.95674 0.0
H1362 H 0.8253 0.46487 0.91509 0.0
H1363 H 0.85265 0.36236 0.94117 0.0
H1364 H 0.90155 0.30017 0.90483 0.0
H1365 H 0.84923 0.33067 0.91906 0.0
H1366 H 0.90525 0.45292 0.9136 0.0
H1367 H 0.95842 0.4223 0.89922 0.0
C1368 C 0.79133 0.46419 0.93307 0.0
C1369 C 0.78436 0.44356 0.94495 0.0
C1370 C 0.82059 0.44849 0.92418 0.0
C1371 C 0.84289 0.41152 0.92693 0.0
C1372 C 0.83562 0.39075 0.93875 0.0
C1373 C 0.8068 0.40667 0.94767 0.0
C1374 C 0.90276 0.33366 0.90652 0.0
C1375 C 0.93446 0.35878 0.9009 0.0
C1376 C 0.8728 0.35103 0.91476 0.0
C1377 C 0.87339 0.39405 0.91752 0.0
C1378 C 0.90405 0.41963 0.91159 0.0
C1379 C 0.93452 0.40209 0.90341 0.0
H1380 H 0.95238 0.53158 0.20958 0.0
H1381 H 0.82635 0.51442 0.19559 0.0
H1382 H 0.9655 0.58383 0.19277 0.0
H1383 H 0.83964 0.56659 0.17855 0.0
H1384 H 0.8699 0.69871 0.16038 0.0
H1385 H 0.85267 0.64317 0.17599 0.0
H1386 H 0.97417 0.58673 0.1694 0.0
H1387 H 0.99158 0.64187 0.15406 0.0
C1388 C 0.92765 0.53866 0.20279 0.0
C1389 C 0.88862 0.51838 0.20374 0.0
C1390 C 0.93517 0.5685 0.19314 0.0
C1391 C 0.90371 0.57905 0.18425 0.0
C1392 C 0.86442 0.55921 0.18528 0.0
C1393 C 0.85693 0.52917 0.19495 0.0
C1394 C 0.89271 0.67419 0.16218 0.0
C1395 C 0.93221 0.67504 0.15604 0.0
C1396 C 0.88279 0.64232 0.17108 0.0
C1397 C 0.91227 0.61086 0.17403 0.0
C1398 C 0.95107 0.61092 0.16751 0.0
C1399 C 0.9609 0.64251 0.15864 0.0
H1400 H 0.74522 0.63624 0.454 0.0
H1401 H 0.81023 0.60373 0.41873 0.0
H1402 H 0.68011 0.6455 0.44193 0.0
H1403 H 0.74532 0.61348 0.40668 0.0
H1404 H 0.64428 0.70873 0.39142 0.0
H1405 H 0.70561 0.68282 0.40285 0.0
H1406 H 0.62592 0.60553 0.42711 0.0
H1407 H 0.56399 0.63123 0.41545 0.0
C1408 C 0.74532 0.63 0.44374 0.0
C1409 C 0.78266 0.61858 0.43733 0.0
C1410 C 0.70809 0.63524 0.43685 0.0
C1411 C 0.70777 0.63005 0.4234 0.0
C1412 C 0.74477 0.61761 0.41705 0.0
C1413 C 0.78179 0.6119 0.42394 0.0
C1414 C 0.63985 0.68573 0.39907 0.0
C1415 C 0.59944 0.67199 0.40258 0.0
C1416 C 0.67496 0.67076 0.40556 0.0
C1417 C 0.67043 0.64218 0.41584 0.0
C1418 C 0.63013 0.62762 0.41921 0.0
C1419 C 0.59486 0.64206 0.41251 0.0
H1420 H 0.58189 0.55018 0.69074 0.0
H1421 H 0.66456 0.46897 0.71228 0.0
H1422 H 0.58001 0.49928 0.67337 0.0
H1423 H 0.66088 0.4167 0.69521 0.0
H1424 H 0.66409 0.33788 0.65874 0.0
H1425 H 0.6774 0.396 0.67356 0.0
H1426 H 0.54765 0.4343 0.67043 0.0
H1427 H 0.53511 0.37861 0.65543 0.0
C1428 C 0.59966 0.52137 0.69175 0.0
C1429 C 0.62289 0.51329 0.70294 0.0
C1430 C 0.59841 0.49202 0.68183 0.0
C1431 C 0.6198 0.45349 0.68294 0.0
C1432 C 0.64431 0.44609 0.69395 0.0
C1433 C 0.64603 0.47579 0.70381 0.0
C1434 C 0.63874 0.35921 0.66109 0.0
C1435 C 0.59862 0.35343 0.65588 0.0
C1436 C 0.64622 0.39232 0.66965 0.0
C1437 C 0.61364 0.42004 0.67317 0.0
C1438 C 0.57385 0.41442 0.66775 0.0
C1439 C 0.56656 0.38193 0.65918 0.0
H1440 H 0.75246 0.62172 0.06309 0.0
H1441 H 0.76635 0.51179 0.08734 0.0
H1442 H 0.81375 0.65318 0.07317 0.0
H1443 H 0.82689 0.54427 0.09775 0.0
H1444 H 0.87121 0.6636 0.12354 0.0
H1445 H 0.82449 0.61661 0.1118 0.0
H1446 H 0.89786 0.63633 0.07709 0.0
H1447 H 0.94561 0.68236 0.089 0.0
C1448 C 0.76907 0.60382 0.07035 0.0
C1449 C 0.75482 0.56388 0.0743 0.0
C1450 C 0.80419 0.62188 0.07611 0.0
C1451 C 0.82505 0.60094 0.08615 0.0
C1452 C 0.81143 0.56083 0.08996 0.0
C1453 C 0.77692 0.54234 0.08401 0.0
C1454 C 0.87807 0.65671 0.11351 0.0
C1455 C 0.912 0.67615 0.10715 0.0
C1456 C 0.85144 0.62992 0.10681 0.0
C1457 C 0.85764 0.62308 0.09356 0.0
C1458 C 0.8926 0.64116 0.08731 0.0
C1459 C 0.91998 0.66711 0.09412 0.0
H1460 H 0.69604 0.53924 0.30371 0.0
H1461 H 0.58077 0.47855 0.31566 0.0
H1462 H 0.68594 0.59216 0.32057 0.0
H1463 H 0.57136 0.53047 0.33256 0.0
H1464 H 0.58012 0.60298 0.36831 0.0
H1465 H 0.60891 0.55214 0.35318 0.0
H1466 H 0.62921 0.651 0.32513 0.0
H1467 H 0.60018 0.70227 0.34037 0.0
C1468 C 0.66861 0.53721 0.30992 0.0
C1469 C 0.6388 0.50508 0.30821 0.0
C1470 C 0.66295 0.56738 0.31956 0.0
C1471 C 0.62801 0.56529 0.32789 0.0
C1472 C 0.59889 0.53259 0.32638 0.0
C1473 C 0.60414 0.50296 0.31665 0.0
C1474 C 0.59191 0.6141 0.35905 0.0
C1475 C 0.58746 0.65644 0.35544 0.0
C1476 C 0.60816 0.58496 0.35038 0.0
C1477 C 0.62038 0.59752 0.3379 0.0
C1478 C 0.61994 0.64052 0.3347 0.0
C1479 C 0.60355 0.66988 0.34343 0.0
H1480 H 0.80609 0.44656 0.58387 0.0
H1481 H 0.71635 0.47272 0.55386 0.0
H1482 H 0.75153 0.41435 0.59689 0.0
H1483 H 0.6605 0.44318 0.56736 0.0
H1484 H 0.58739 0.33526 0.58762 0.0
H1485 H 0.6341 0.3797 0.57475 0.0
H1486 H 0.69315 0.42273 0.60974 0.0
H1487 H 0.64826 0.37562 0.62236 0.0
C1488 C 0.77458 0.44572 0.58006 0.0
C1489 C 0.76576 0.46139 0.56766 0.0
C1490 C 0.74289 0.42782 0.58767 0.0
C1491 C 0.70122 0.42611 0.58327 0.0
C1492 C 0.69221 0.44312 0.57103 0.0
C1493 C 0.72414 0.46026 0.5633 0.0
C1494 C 0.60966 0.35522 0.5925 0.0
C1495 C 0.61442 0.35236 0.6059 0.0
C1496 C 0.63654 0.38075 0.58516 0.0
C1497 C 0.6682 0.40441 0.59114 0.0
C1498 C 0.67022 0.404 0.60472 0.0
C1499 C 0.6441 0.37763 0.612 0.0
H1500 H 0.84361 0.48125 0.79852 0.0
H1501 H 0.78118 0.51401 0.8342 0.0
H1502 H 0.88445 0.428 0.80994 0.0
H1503 H 0.82186 0.4603 0.84562 0.0
H1504 H 0.88257 0.33435 0.85906 0.0
H1505 H 0.83451 0.37908 0.84648 0.0
H1506 H 0.94077 0.43551 0.8269 0.0
H1507 H 0.98814 0.39171 0.83941 0.0
C1508 C 0.83847 0.47688 0.80879 0.0
C1509 C 0.80936 0.50188 0.81549 0.0
C1510 C 0.86174 0.44637 0.81531 0.0
C1511 C 0.85616 0.43996 0.82865 0.0
C1512 C 0.82634 0.46421 0.83531 0.0
C1513 C 0.80335 0.49509 0.82881 0.0
C1514 C 0.89533 0.35599 0.85194 0.0
C1515 C 0.93889 0.35989 0.85023 0.0
C1516 C 0.86802 0.38167 0.84483 0.0
C1517 C 0.88401 0.41071 0.83573 0.0
C1518 C 0.92753 0.41322 0.83375 0.0
C1519 C 0.95462 0.38834 0.84097 0.0
H1520 H 0.29071 0.6055 0.06805 0.0
H1521 H 0.23684 0.65522 0.03306 0.0
H1522 H 0.22469 0.61674 0.07937 0.0
H1523 H 0.16994 0.66588 0.04435 0.0
H1524 H 0.09533 0.74125 0.07654 0.0
H1525 H 0.14526 0.71417 0.06068 0.0
H1526 H 0.15247 0.59743 0.08206 0.0
H1527 H 0.10386 0.62538 0.09813 0.0
C1528 C 0.26426 0.61765 0.06268 0.0
C1529 C 0.26875 0.62885 0.04962 0.0
C1530 C 0.22625 0.62397 0.06915 0.0
C1531 C 0.19176 0.64194 0.06275 0.0
C1532 C 0.19587 0.65208 0.04957 0.0
C1533 C 0.23403 0.64573 0.04309 0.0
C1534 C 0.10629 0.7092 0.07753 0.0
C1535 C 0.09618 0.6855 0.08858 0.0
C1536 C 0.13504 0.69364 0.06846 0.0
C1537 C 0.1537 0.65397 0.07027 0.0
C1538 C 0.13959 0.62854 0.08057 0.0
C1539 C 0.11141 0.64431 0.0897 0.0
H1540 H 0.084 0.48584 0.77732 0.0
H1541 H 0.23567 0.49063 0.79391 0.0
H1542 H 0.06649 0.41954 0.79561 0.0
H1543 H 0.21468 0.42378 0.81184 0.0
H1544 H 0.14802 0.36539 0.84807 0.0
H1545 H 0.17269 0.40777 0.83004 0.0
H1546 H 0.07673 0.35467 0.8059 0.0
H1547 H 0.05089 0.31313 0.82415 0.0
C1548 C 0.10878 0.47271 0.78318 0.0
C1549 C 0.1597 0.50023 0.78529 0.0
C1550 C 0.0978 0.43246 0.79501 0.0
C1551 C 0.13784 0.41543 0.80621 0.0
C1552 C 0.19099 0.43566 0.80537 0.0
C1553 C 0.20501 0.47606 0.79385 0.0
C1554 C 0.13253 0.36212 0.83887 0.0
C1555 C 0.09708 0.33614 0.83764 0.0
C1556 C 0.14693 0.38636 0.82846 0.0
C1557 C 0.12632 0.38519 0.81656 0.0
C1558 C 0.09269 0.35715 0.81504 0.0
C1559 C 0.07824 0.33278 0.82547 0.0
H1560 H 0.27833 0.33061 0.53997 0.0
H1561 H 0.30436 0.46173 0.54637 0.0
H1562 H 0.33255 0.3113 0.55546 0.0
H1563 H 0.35886 0.44252 0.56178 0.0
H1564 H 0.40078 0.38617 0.60144 0.0
H1565 H 0.35852 0.41098 0.58351 0.0
H1566 H 0.4093 0.3129 0.55942 0.0
H1567 H 0.45147 0.28757 0.57749 0.0
C1568 C 0.29585 0.35524 0.54466 0.0
C1569 C 0.28671 0.39765 0.54213 0.0
C1570 C 0.32716 0.34424 0.55342 0.0
C1571 C 0.34999 0.37541 0.55985 0.0
C1572 C 0.34152 0.41781 0.55708 0.0
C1573 C 0.31034 0.42881 0.54827 0.0
C1574 C 0.40357 0.3703 0.59226 0.0
C1575 C 0.42922 0.33465 0.59093 0.0
C1576 C 0.37946 0.38469 0.58195 0.0
C1577 C 0.38022 0.36363 0.57009 0.0
C1578 C 0.40766 0.32941 0.56852 0.0
C1579 C 0.43213 0.31519 0.57882 0.0
H1580 H 0.41641 0.50822 0.30008 0.0
H1581 H 0.28817 0.54791 0.30588 0.0
H1582 H 0.44072 0.56744 0.31288 0.0
H1583 H 0.31237 0.60751 0.31852 0.0
H1584 H 0.37314 0.66258 0.35568 0.0
H1585 H 0.34394 0.61527 0.33979 0.0
H1586 H 0.44614 0.64469 0.31361 0.0
H1587 H 0.47585 0.69179 0.32965 0.0
C1588 C 0.39348 0.52972 0.30408 0.0
C1589 C 0.35036 0.52291 0.30226 0.0
C1590 C 0.40737 0.56391 0.31127 0.0
C1591 C 0.37843 0.59214 0.31675 0.0
C1592 C 0.33539 0.58603 0.31457 0.0
C1593 C 0.32153 0.55191 0.30736 0.0
C1594 C 0.38893 0.65972 0.34642 0.0
C1595 C 0.42699 0.68071 0.34397 0.0
C1596 C 0.37208 0.63267 0.33728 0.0
C1597 C 0.39301 0.62581 0.3255 0.0
C1598 C 0.42964 0.64888 0.32269 0.0
C1599 C 0.44637 0.67625 0.33182 0.0
H1600 H 0.22349 0.39835 0.96804 0.0
H1601 H 0.30335 0.30894 0.94854 0.0
H1602 H 0.16832 0.38583 0.95218 0.0
H1603 H 0.24874 0.29741 0.93257 0.0
H1604 H 0.16251 0.33792 0.89851 0.0
H1605 H 0.21504 0.34695 0.9152 0.0
H1606 H 0.12137 0.32173 0.94456 0.0
H1607 H 0.06841 0.31197 0.92778 0.0
C1608 C 0.22931 0.37632 0.96032 0.0
C1609 C 0.26815 0.35554 0.95936 0.0
C1610 C 0.19772 0.36894 0.95133 0.0
C1611 C 0.20451 0.34091 0.94114 0.0
C1612 C 0.24299 0.31957 0.94027 0.0
C1613 C 0.2743 0.32637 0.94938 0.0
C1614 C 0.15295 0.33439 0.90852 0.0
C1615 C 0.11122 0.32442 0.91183 0.0
C1616 C 0.18314 0.33927 0.91805 0.0
C1617 C 0.1722 0.33497 0.93113 0.0
C1618 C 0.13048 0.32535 0.93452 0.0
C1619 C 0.1003 0.31964 0.92493 0.0
H1620 H 0.38786 0.46033 0.72417 0.0
H1621 H 0.48192 0.5355 0.70463 0.0
H1622 H 0.3897 0.41005 0.70643 0.0
H1623 H 0.483 0.48556 0.68675 0.0
H1624 H 0.43142 0.40495 0.65214 0.0
H1625 H 0.42706 0.45726 0.66934 0.0
H1626 H 0.4506 0.36052 0.69772 0.0
H1627 H 0.45586 0.30838 0.68058 0.0
C1628 C 0.40834 0.46643 0.71597 0.0
C1629 C 0.43395 0.50232 0.71565 0.0
C1630 C 0.40956 0.43761 0.70589 0.0
C1631 C 0.43623 0.44422 0.69522 0.0
C1632 C 0.46169 0.4802 0.69479 0.0
C1633 C 0.46098 0.50875 0.705 0.0
C1634 C 0.43519 0.39482 0.66207 0.0
C1635 C 0.44364 0.35254 0.66504 0.0
C1636 C 0.43308 0.42477 0.67186 0.0
C1637 C 0.43844 0.41277 0.68481 0.0
C1638 C 0.4461 0.37044 0.6878 0.0
C1639 C 0.44913 0.34069 0.678 0.0
H1640 H 0.24498 0.59348 0.43589 0.0
H1641 H 0.21827 0.71781 0.45007 0.0
H1642 H 0.31634 0.61512 0.43043 0.0
H1643 H 0.28994 0.73953 0.44469 0.0
H1644 H 0.38553 0.7665 0.41034 0.0
H1645 H 0.32376 0.75051 0.42343 0.0
H1646 H 0.38535 0.6396 0.43828 0.0
H1647 H 0.44761 0.65637 0.42515 0.0
C1648 C 0.25478 0.62511 0.43816 0.0
C1649 C 0.22625 0.65384 0.44354 0.0
C1650 C 0.29571 0.63748 0.4351 0.0
C1651 C 0.30884 0.679 0.43721 0.0
C1652 C 0.2807 0.70736 0.44296 0.0
C1653 C 0.23979 0.69492 0.44607 0.0
C1654 C 0.38671 0.74018 0.41699 0.0
C1655 C 0.42154 0.71339 0.41711 0.0
C1656 C 0.35119 0.73069 0.4244 0.0
C1657 C 0.34963 0.69367 0.43186 0.0
C1658 C 0.38563 0.66821 0.43258 0.0
C1659 C 0.42133 0.67796 0.4252 0.0
H1660 H 0.19032 0.49163 0.19539 0.0
H1661 H 0.05832 0.49488 0.20523 0.0
H1662 H 0.18384 0.55868 0.18444 0.0
H1663 H 0.05102 0.56075 0.19336 0.0
H1664 H 0.05192 0.69087 0.17591 0.0
H1665 H 0.06424 0.63331 0.1911 0.0
H1666 H 0.15706 0.58171 0.16497 0.0
H1667 H 0.14641 0.63959 0.15029 0.0
C1668 C 0.15986 0.50667 0.19528 0.0
C1669 C 0.12472 0.48772 0.2012 0.0
C1670 C 0.15602 0.54509 0.18885 0.0
C1671 C 0.11675 0.56504 0.1878 0.0
C1672 C 0.08188 0.54675 0.19407 0.0
C1673 C 0.08594 0.50875 0.20077 0.0
C1674 C 0.07556 0.66766 0.17356 0.0
C1675 C 0.09812 0.67 0.16185 0.0
C1676 C 0.08234 0.63438 0.18222 0.0
C1677 C 0.11168 0.60266 0.17931 0.0
C1678 C 0.13485 0.6058 0.16775 0.0
C1679 C 0.12838 0.63904 0.1592 0.0
loop_
_geom_bond_atom_site_label_1
_geom_bond_atom_site_label_2
_geom_bond_distance
_geom_bond_site_symmetry_2
_ccdc_geom_bond_type
C0 C1 1.560 . S
C0 H61 0.959 . S
C0 H62 0.959 . S
C0 H63 0.960 . S
C1 C0 1.560 . S
C1 O56 1.426 . S
C1 H60 0.980 . S
C2 C3 1.407 . S
C2 C7 1.418 . S
C2 O56 1.334 . S
C3 C2 1.407 . S
C3 C4 1.360 . S
C3 H64 0.929 . S
C4 C3 1.360 . S
C4 C5 1.401 . S
C4 C8 1.527 . S
C5 C4 1.401 . S
C5 C6 1.405 . S
C5 C38 1.587 . S
C6 C5 1.405 . S
C6 C7 1.332 . S
C6 C9 1.496 1_565 S
C7 C2 1.418 . S
C7 C6 1.332 . S
C7 H65 0.929 1_565 S
C8 C4 1.527 . S
C8 H66 0.959 . S
C8 H67 0.961 . S
C8 H68 0.961 . S
C9 C6 1.496 1_545 S
C9 H69 0.960 . S
C9 H70 0.960 . S
C9 H71 0.961 . S
C10 C11 1.517 . S
C10 H73 0.961 . S
C10 H74 0.960 . S
C10 H75 0.959 . S
C11 C10 1.517 . S
C11 O59 1.468 . S
C11 H72 0.980 . S
C12 C13 1.349 . S
C12 C17 1.367 . S
C12 O59 1.408 . S
C13 C12 1.349 . S
C13 C14 1.407 . S
C13 H76 0.930 . S
C14 C13 1.407 . S
C14 C15 1.449 . S
C14 C18 1.535 . S
C15 C14 1.449 . S
C15 C16 1.384 . S
C15 C40 1.553 . S
C16 C15 1.384 . S
C16 C17 1.364 . S
C16 C19 1.450 . S
C17 C12 1.367 . S
C17 C16 1.364 . S
C17 H77 0.931 . S
C18 C14 1.535 . S
C18 H78 0.959 . S
C18 H79 0.961 . S
C18 H80 0.959 1_565 S
C19 C16 1.450 . S
C19 H81 0.960 . S
C19 H82 0.960 . S
C19 H83 0.960 . S
C20 C21 1.309 . S
C20 C25 1.304 . S
C20 O58 1.435 . S
C21 C20 1.309 . S
C21 C22 1.476 . S
C21 H85 0.930 . S
C22 C21 1.476 . S
C22 C23 1.400 . S
C22 C26 1.567 . S
C23 C22 1.400 . S
C23 C24 1.373 . S
C23 C45 1.432 . S
C24 C23 1.373 . S
C24 C25 1.339 . S
C24 C27 1.530 1_545 S
C25 C20 1.304 . S
C25 C24 1.339 . S
C25 H86 0.930 . S
C26 C22 1.567 . S
C26 H87 0.961 . S
C26 H88 0.960 . S
C26 H89 0.958 . S
C27 C24 1.530 1_565 S
C27 H90 0.961 . S
C27 H91 0.960 . S
C27 H92 0.960 . S
C28 C29 1.530 . S
C28 H94 0.961 . S
C28 H95 0.961 . S
C28 H96 0.959 . S
C29 C28 1.530 . S
C29 O57 1.412 . S
C29 H93 0.980 . S
C30 C31 1.288 . S
C30 C35 1.377 . S
C30 O57 1.393 . S
C31 C30 1.288 . S
C31 C32 1.369 . S
C31 H97 0.932 . S
C32 C31 1.369 . S
C32 C33 1.398 . S
C32 C36 1.527 . S
C33 C32 1.398 . S
C33 C34 1.380 . S
C33 C47 1.497 . S
C34 C33 1.380 . S
C34 C35 1.383 . S
C34 C37 1.603 . S
C35 C30 1.377 . S
C35 C34 1.383 . S
C35 H98 0.929 . S
C36 C32 1.527 . S
C36 H99 0.961 . S
C36 H100 0.959 . S
C36 H101 0.959 . S
C37 C34 1.603 . S
C37 H102 0.960 . S
C37 H103 0.961 . S
C37 H104 0.961 1_545 S
C38 C5 1.587 . S
C38 C39 1.360 1_655 S
C38 C51 1.412 . S
C39 C38 1.360 1_455 S
C39 C40 1.365 . S
C39 H105 0.929 . S
C40 C15 1.553 . S
C40 C39 1.365 . S
C40 C41 1.404 . S
C41 C40 1.404 . S
C41 C42 1.395 . S
C41 C52 1.451 . S
C42 C41 1.395 . S
C42 C43 1.322 . S
C42 H106 0.930 . S
C43 C42 1.322 . S
C43 C44 1.459 1_565 S
C43 H107 0.929 . S
C44 C43 1.459 1_545 S
C44 C45 1.445 . S
C44 C53 1.395 . S
C45 C23 1.432 . S
C45 C44 1.445 . S
C45 C46 1.370 . S
C46 C45 1.370 . S
C46 C47 1.438 1_455 S
C46 H108 0.930 . S
C47 C33 1.497 . S
C47 C46 1.438 1_655 S
C47 C48 1.360 . S
C48 C47 1.360 . S
C48 C49 1.401 . S
C48 C53 1.446 1_655 S
C49 C48 1.401 . S
C49 C50 1.347 1_545 S
C49 H109 0.929 . S
C50 C49 1.347 1_565 S
C50 C51 1.455 . S
C50 H110 0.930 . S
C51 C38 1.412 . S
C51 C50 1.455 . S
C51 C52 1.331 1_655 S
C52 C41 1.451 . S
C52 C51 1.331 1_455 S
C52 C53 1.497 1_565 S
C53 C44 1.395 . S
C53 C48 1.446 1_455 S
C53 C52 1.497 1_545 S
C54 C55 1.582 . S
C54 H111 0.962 . S
C54 H112 0.959 . S
C54 H113 0.958 . S
C55 C54 1.582 . S
C55 O58 1.458 . S
C55 H84 0.980 . S
O56 C1 1.426 . S
O56 C2 1.334 . S
O57 C29 1.412 . S
O57 C30 1.393 . S
O58 C20 1.435 . S
O58 C55 1.458 . S
O59 C11 1.468 . S
O59 C12 1.408 . S
H60 C1 0.980 . S
H61 C0 0.959 . S
H62 C0 0.959 . S
H63 C0 0.960 . S
H64 C3 0.929 . S
H65 C7 0.929 1_545 S
H66 C8 0.959 . S
H67 C8 0.961 . S
H68 C8 0.961 . S
H69 C9 0.960 . S
H70 C9 0.960 . S
H71 C9 0.961 . S
H72 C11 0.980 . S
H73 C10 0.961 . S
H74 C10 0.960 . S
H75 C10 0.959 . S
H76 C13 0.930 . S
H77 C17 0.931 . S
H78 C18 0.959 . S
H79 C18 0.961 . S
H80 C18 0.959 1_545 S
H81 C19 0.960 . S
H82 C19 0.960 . S
H83 C19 0.960 . S
H84 C55 0.980 . S
H85 C21 0.930 . S
H86 C25 0.930 . S
H87 C26 0.961 . S
H88 C26 0.960 . S
H89 C26 0.958 . S
H90 C27 0.961 . S
H91 C27 0.960 . S
H92 C27 0.960 . S
H93 C29 0.980 . S
H94 C28 0.961 . S
H95 C28 0.961 . S
H96 C28 0.959 . S
H97 C31 0.932 . S
H98 C35 0.929 . S
H99 C36 0.961 . S
H100 C36 0.959 . S
H101 C36 0.959 . S
H102 C37 0.960 . S
H103 C37 0.961 . S
H104 C37 0.961 1_565 S
H105 C39 0.929 . S
H106 C42 0.930 . S
H107 C43 0.929 . S
H108 C46 0.930 . S
H109 C49 0.929 . S
H110 C50 0.930 . S
H111 C54 0.962 . S
H112 C54 0.959 . S
H113 C54 0.958 . S
C114 C115 1.560 . S
C114 H175 0.959 . S
C114 H176 0.959 . S
C114 H177 0.960 . S
C115 C114 1.560 . S
C115 O170 1.426 . S
C115 H174 0.980 . S
C116 C117 1.407 . S
C116 C121 1.418 . S
C116 O170 1.334 . S
C117 C116 1.407 . S
C117 C118 1.360 . S
C117 H178 0.929 . S
C118 C117 1.360 . S
C118 C119 1.401 . S
C118 C122 1.527 . S
C119 C118 1.401 . S
C119 C120 1.405 . S
C119 C152 1.587 . S
C120 C119 1.405 . S
C120 C121 1.332 . S
C120 C123 1.496 . S
C121 C116 1.418 . S
C121 C120 1.332 . S
C121 H179 0.929 . S
C122 C118 1.527 . S
C122 H180 0.959 . S
C122 H181 0.961 . S
C122 H182 0.961 . S
C123 C120 1.496 . S
C123 H183 0.960 . S
C123 H184 0.960 . S
C123 H185 0.961 . S
C124 C125 1.517 . S
C124 H187 0.961 . S
C124 H188 0.960 . S
C124 H189 0.959 . S
C125 C124 1.517 . S
C125 O173 1.468 . S
C125 H186 0.980 . S
C126 C127 1.349 . S
C126 C131 1.367 . S
C126 O173 1.408 . S
C127 C126 1.349 . S
C127 C128 1.407 . S
C127 H190 0.930 . S
C128 C127 1.407 . S
C128 C129 1.449 . S
C128 C132 1.535 . S
C129 C128 1.449 . S
C129 C130 1.384 . S
C129 C154 1.553 . S
C130 C129 1.384 . S
C130 C131 1.364 . S
C130 C133 1.450 . S
C131 C126 1.367 . S
C131 C130 1.364 . S
C131 H191 0.931 . S
C132 C128 1.535 . S
C132 H192 0.959 . S
C132 H193 0.961 . S
C132 H194 0.959 . S
C133 C130 1.450 . S
C133 H195 0.960 . S
C133 H196 0.960 . S
C133 H197 0.960 . S
C134 C135 1.309 . S
C134 C139 1.304 . S
C134 O172 1.435 . S
C135 C134 1.309 . S
C135 C136 1.476 . S
C135 H199 0.930 . S
C136 C135 1.476 . S
C136 C137 1.400 . S
C136 C140 1.567 . S
C137 C136 1.400 . S
C137 C138 1.373 . S
C137 C159 1.432 . S
C138 C137 1.373 . S
C138 C139 1.339 . S
C138 C141 1.530 . S
C139 C134 1.304 . S
C139 C138 1.339 . S
C139 H200 0.930 . S
C140 C136 1.567 . S
C140 H201 0.961 . S
C140 H202 0.960 . S
C140 H203 0.958 . S
C141 C138 1.530 . S
C141 H204 0.961 . S
C141 H205 0.960 . S
C141 H206 0.960 . S
C142 C143 1.530 1_545 S
C142 H208 0.961 . S
C142 H209 0.961 . S
C142 H210 0.959 1_545 S
C143 C142 1.530 1_565 S
C143 O171 1.412 . S
C143 H207 0.980 . S
C144 C145 1.288 . S
C144 C149 1.377 . S
C144 O171 1.393 . S
C145 C144 1.288 . S
C145 C146 1.369 . S
C145 H211 0.932 . S
C146 C145 1.369 . S
C146 C147 1.398 . S
C146 C150 1.527 . S
C147 C146 1.398 . S
C147 C148 1.380 . S
C147 C161 1.497 . S
C148 C147 1.380 . S
C148 C149 1.383 . S
C148 C151 1.603 . S
C149 C144 1.377 . S
C149 C148 1.383 . S
C149 H212 0.929 . S
C150 C146 1.527 . S
C150 H213 0.961 . S
C150 H214 0.959 . S
C150 H215 0.959 . S
C151 C148 1.603 . S
C151 H216 0.960 . S
C151 H217 0.962 . S
C151 H218 0.961 . S
C152 C119 1.587 . S
C152 C153 1.360 . S
C152 C165 1.412 . S
C153 C152 1.360 . S
C153 C154 1.365 . S
C153 H219 0.929 . S
C154 C129 1.553 . S
C154 C153 1.365 . S
C154 C155 1.404 . S
C155 C154 1.404 . S
C155 C156 1.395 . S
C155 C166 1.451 . S
C156 C155 1.395 . S
C156 C157 1.322 . S
C156 H220 0.930 . S
C157 C156 1.322 . S
C157 C158 1.459 . S
C157 H221 0.929 . S
C158 C157 1.459 . S
C158 C159 1.445 . S
C158 C167 1.395 . S
C159 C137 1.432 . S
C159 C158 1.445 . S
C159 C160 1.370 . S
C160 C159 1.370 . S
C160 C161 1.438 . S
C160 H222 0.930 . S
C161 C147 1.497 . S
C161 C160 1.438 . S
C161 C162 1.360 . S
C162 C161 1.360 . S
C162 C163 1.401 . S
C162 C167 1.446 . S
C163 C162 1.401 . S
C163 C164 1.347 . S
C163 H223 0.929 . S
C164 C163 1.347 . S
C164 C165 1.455 . S
C164 H224 0.930 . S
C165 C152 1.412 . S
C165 C164 1.455 . S
C165 C166 1.331 . S
C166 C155 1.451 . S
C166 C165 1.331 . S
C166 C167 1.497 . S
C167 C158 1.395 . S
C167 C162 1.446 . S
C167 C166 1.497 . S
C168 C169 1.582 . S
C168 H225 0.962 . S
C168 H226 0.959 . S
C168 H227 0.958 . S
C169 C168 1.582 . S
C169 O172 1.458 . S
C169 H198 0.980 . S
O170 C115 1.426 . S
O170 C116 1.334 . S
O171 C143 1.412 . S
O171 C144 1.393 . S
O172 C134 1.435 . S
O172 C169 1.458 . S
O173 C125 1.468 . S
O173 C126 1.408 . S
H174 C115 0.980 . S
H175 C114 0.959 . S
H176 C114 0.959 . S
H177 C114 0.960 . S
H178 C117 0.929 . S
H179 C121 0.929 . S
H180 C122 0.959 . S
H181 C122 0.961 . S
H182 C122 0.961 . S
H183 C123 0.960 . S
H184 C123 0.960 . S
H185 C123 0.961 . S
H186 C125 0.980 . S
H187 C124 0.961 . S
H188 C124 0.960 . S
H189 C124 0.959 . S
H190 C127 0.930 . S
H191 C131 0.931 . S
H192 C132 0.959 . S
H193 C132 0.961 . S
H194 C132 0.959 . S
H195 C133 0.960 . S
H196 C133 0.960 . S
H197 C133 0.960 . S
H198 C169 0.980 . S
H199 C135 0.930 . S
H200 C139 0.930 . S
H201 C140 0.961 . S
H202 C140 0.960 . S
H203 C140 0.958 . S
H204 C141 0.961 . S
H205 C141 0.960 . S
H206 C141 0.960 . S
H207 C143 0.980 . S
H208 C142 0.961 . S
H209 C142 0.961 . S
H210 C142 0.959 1_565 S
H211 C145 0.932 . S
H212 C149 0.929 . S
H213 C150 0.961 . S
H214 C150 0.959 . S
H215 C150 0.959 . S
H216 C151 0.960 . S
H217 C151 0.962 . S
H218 C151 0.961 . S
H219 C153 0.929 . S
H220 C156 0.930 . S
H221 C157 0.929 . S
H222 C160 0.930 . S
H223 C163 0.929 . S
H224 C164 0.930 . S
H225 C168 0.962 . S
H226 C168 0.959 . S
H227 C168 0.958 . S
C228 C229 1.560 . S
C228 H289 0.959 . S
C228 H290 0.959 . S
C228 H291 0.960 . S
C229 C228 1.560 . S
C229 O284 1.426 . S
C229 H288 0.980 . S
C230 C231 1.407 . S
C230 C235 1.418 . S
C230 O284 1.334 . S
C231 C230 1.407 . S
C231 C232 1.360 . S
C231 H292 0.929 . S
C232 C231 1.360 . S
C232 C233 1.401 . S
C232 C236 1.527 . S
C233 C232 1.401 . S
C233 C234 1.405 . S
C233 C266 1.587 . S
C234 C233 1.405 . S
C234 C235 1.332 . S
C234 C237 1.496 1_565 S
C235 C230 1.418 . S
C235 C234 1.332 . S
C235 H293 0.929 . S
C236 C232 1.527 . S
C236 H294 0.959 . S
C236 H295 0.961 . S
C236 H296 0.961 . S
C237 C234 1.496 1_545 S
C237 H297 0.960 . S
C237 H298 0.960 1_545 S
C237 H299 0.961 . S
C238 C239 1.517 . S
C238 H301 0.961 . S
C238 H302 0.960 . S
C238 H303 0.959 . S
C239 C238 1.517 . S
C239 O287 1.468 . S
C239 H300 0.980 . S
C240 C241 1.349 . S
C240 C245 1.367 . S
C240 O287 1.408 . S
C241 C240 1.349 . S
C241 C242 1.407 . S
C241 H304 0.930 . S
C242 C241 1.407 . S
C242 C243 1.449 . S
C242 C246 1.535 . S
C243 C242 1.449 . S
C243 C244 1.384 . S
C243 C268 1.553 . S
C244 C243 1.384 . S
C244 C245 1.364 . S
C244 C247 1.450 . S
C245 C240 1.367 . S
C245 C244 1.364 . S
C245 H305 0.931 . S
C246 C242 1.535 . S
C246 H306 0.959 . S
C246 H307 0.961 . S
C246 H308 0.959 . S
C247 C244 1.450 . S
C247 H309 0.960 . S
C247 H310 0.960 . S
C247 H311 0.960 . S
C248 C249 1.309 . S
C248 C253 1.304 . S
C248 O286 1.435 . S
C249 C248 1.309 . S
C249 C250 1.476 . S
C249 H313 0.930 . S
C250 C249 1.476 . S
C250 C251 1.400 . S
C250 C254 1.567 . S
C251 C250 1.400 . S
C251 C252 1.373 . S
C251 C273 1.432 . S
C252 C251 1.373 . S
C252 C253 1.339 . S
C252 C255 1.530 1_545 S
C253 C248 1.304 . S
C253 C252 1.339 . S
C253 H314 0.914 1_545 S
C254 C250 1.567 . S
C254 H315 0.961 . S
C254 H316 0.960 . S
C254 H317 0.958 . S
C255 C252 1.530 1_565 S
C255 H318 0.961 . S
C255 H319 0.960 . S
C255 H320 0.960 . S
C256 C257 1.530 . S
C256 H322 0.961 . S
C256 H323 0.961 . S
C256 H324 0.959 . S
C257 C256 1.530 . S
C257 O285 1.412 . S
C257 H321 0.980 . S
C258 C259 1.288 . S
C258 C263 1.377 . S
C258 O285 1.393 . S
C259 C258 1.288 . S
C259 C260 1.369 . S
C259 H325 0.932 . S
C260 C259 1.369 . S
C260 C261 1.398 . S
C260 C264 1.527 . S
C261 C260 1.398 . S
C261 C262 1.380 . S
C261 C275 1.497 . S
C262 C261 1.380 . S
C262 C263 1.383 . S
C262 C265 1.603 1_545 S
C263 C258 1.377 . S
C263 C262 1.383 . S
C263 H326 0.929 . S
C264 C260 1.527 . S
C264 H327 0.961 . S
C264 H328 0.959 . S
C264 H329 0.959 . S
C265 C262 1.603 1_565 S
C265 H330 0.960 . S
C265 H331 0.962 . S
C265 H332 0.961 . S
C266 C233 1.587 . S
C266 C267 1.360 . S
C266 C279 1.412 . S
C267 C266 1.360 . S
C267 C268 1.365 . S
C267 H333 0.929 . S
C268 C243 1.553 . S
C268 C267 1.365 . S
C268 C269 1.404 . S
C269 C268 1.404 . S
C269 C270 1.395 . S
C269 C280 1.451 . S
C270 C269 1.395 . S
C270 C271 1.322 1_554 S
C270 H334 0.930 . S
C271 C270 1.322 1_556 S
C271 C272 1.459 . S
C271 H335 0.929 . S
C272 C271 1.459 . S
C272 C273 1.445 1_565 S
C272 C281 1.395 . S
C273 C251 1.432 . S
C273 C272 1.445 1_545 S
C273 C274 1.370 . S
C274 C273 1.370 . S
C274 C275 1.438 . S
C274 H336 0.930 . S
C275 C261 1.497 . S
C275 C274 1.438 . S
C275 C276 1.360 . S
C276 C275 1.360 . S
C276 C277 1.419 . S
C276 C281 1.446 1_545 S
C277 C276 1.419 . S
C277 C278 1.318 1_546 S
C277 H337 0.941 . S
C278 C277 1.318 1_564 S
C278 C279 1.455 . S
C278 H338 0.930 . S
C279 C266 1.412 . S
C279 C278 1.455 . S
C279 C280 1.331 . S
C280 C269 1.451 . S
C280 C279 1.331 . S
C280 C281 1.497 1_554 S
C281 C272 1.395 . S
C281 C276 1.446 1_565 S
C281 C280 1.497 1_556 S
C282 C283 1.582 . S
C282 H339 0.962 . S
C282 H340 0.959 . S
C282 H341 0.958 . S
C283 C282 1.582 . S
C283 O286 1.458 . S
C283 H312 0.980 . S
O284 C229 1.426 . S
O284 C230 1.334 . S
O285 C257 1.412 . S
O285 C258 1.393 . S
O286 C248 1.435 . S
O286 C283 1.458 . S
O287 C239 1.468 . S
O287 C240 1.408 . S
H288 C229 0.980 . S
H289 C228 0.959 . S
H290 C228 0.959 . S
H291 C228 0.960 . S
H292 C231 0.929 . S
H293 C235 0.929 . S
H294 C236 0.959 . S
H295 C236 0.961 . S
H296 C236 0.961 . S
H297 C237 0.960 . S
H298 C237 0.960 1_565 S
H299 C237 0.961 . S
H300 C239 0.980 . S
H301 C238 0.961 . S
H302 C238 0.960 . S
H303 C238 0.959 . S
H304 C241 0.930 . S
H305 C245 0.931 . S
H306 C246 0.959 . S
H307 C246 0.961 . S
H308 C246 0.959 . S
H309 C247 0.960 . S
H310 C247 0.960 . S
H311 C247 0.960 . S
H312 C283 0.980 . S
H313 C249 0.930 . S
H314 C253 0.914 1_565 S
H315 C254 0.961 . S
H316 C254 0.960 . S
H317 C254 0.958 . S
H318 C255 0.961 . S
H319 C255 0.960 . S
H320 C255 0.960 . S
H321 C257 0.980 . S
H322 C256 0.961 . S
H323 C256 0.961 . S
H324 C256 0.959 . S
H325 C259 0.932 . S
H326 C263 0.929 . S
H327 C264 0.961 . S
H328 C264 0.959 . S
H329 C264 0.959 . S
H330 C265 0.960 . S
H331 C265 0.962 . S
H332 C265 0.961 . S
H333 C267 0.929 . S
H334 C270 0.930 . S
H335 C271 0.929 . S
H336 C274 0.930 . S
H337 C277 0.941 . S
H338 C278 0.930 . S
H339 C282 0.962 . S
H340 C282 0.959 . S
H341 C282 0.958 . S
C342 C343 1.560 . S
C342 H403 0.959 . S
C342 H404 0.959 . S
C342 H405 0.960 . S
C343 C342 1.560 . S
C343 O398 1.426 . S
C343 H402 0.980 . S
C344 C345 1.407 . S
C344 C349 1.418 . S
C344 O398 1.334 . S
C345 C344 1.407 . S
C345 C346 1.360 . S
C345 H406 0.929 . S
C346 C345 1.360 . S
C346 C347 1.401 . S
C346 C350 1.527 . S
C347 C346 1.401 . S
C347 C348 1.405 . S
C347 C380 1.587 . S
C348 C347 1.405 . S
C348 C349 1.332 . S
C348 C351 1.496 . S
C349 C344 1.418 . S
C349 C348 1.332 . S
C349 H407 0.929 . S
C350 C346 1.527 . S
C350 H408 0.959 . S
C350 H409 0.961 . S
C350 H410 0.961 . S
C351 C348 1.496 . S
C351 H411 0.960 . S
C351 H412 0.960 . S
C351 H413 0.961 . S
C352 C353 1.517 . S
C352 H415 0.961 . S
C352 H416 0.960 . S
C352 H417 0.959 . S
C353 C352 1.517 . S
C353 O401 1.468 . S
C353 H414 0.980 . S
C354 C355 1.349 . S
C354 C359 1.367 . S
C354 O401 1.408 . S
C355 C354 1.349 . S
C355 C356 1.407 . S
C355 H418 0.930 . S
C356 C355 1.407 . S
C356 C357 1.449 . S
C356 C360 1.535 . S
C357 C356 1.449 . S
C357 C358 1.384 . S
C357 C382 1.553 . S
C358 C357 1.384 . S
C358 C359 1.364 . S
C358 C361 1.450 . S
C359 C354 1.367 . S
C359 C358 1.364 . S
C359 H419 0.931 . S
C360 C356 1.535 . S
C360 H420 0.959 . S
C360 H421 0.961 . S
C360 H422 0.959 . S
C361 C358 1.450 . S
C361 H423 0.960 . S
C361 H424 0.960 . S
C361 H425 0.960 . S
C362 C363 1.309 . S
C362 C367 1.304 . S
C362 O400 1.435 . S
C363 C362 1.309 . S
C363 C364 1.476 . S
C363 H427 0.930 . S
C364 C363 1.476 . S
C364 C365 1.400 . S
C364 C368 1.567 . S
C365 C364 1.400 . S
C365 C366 1.373 . S
C365 C387 1.432 . S
C366 C365 1.373 . S
C366 C367 1.339 . S
C366 C369 1.530 . S
C367 C362 1.304 . S
C367 C366 1.339 . S
C367 H428 0.930 . S
C368 C364 1.567 . S
C368 H429 0.961 . S
C368 H430 0.960 . S
C368 H431 0.958 . S
C369 C366 1.530 . S
C369 H432 0.961 . S
C369 H433 0.960 . S
C369 H434 0.960 . S
C370 C371 1.530 . S
C370 H436 0.961 1_545 S
C370 H437 0.961 . S
C370 H438 0.959 . S
C371 C370 1.530 . S
C371 O399 1.412 . S
C371 H435 0.980 . S
C372 C373 1.288 . S
C372 C377 1.377 . S
C372 O399 1.393 . S
C373 C372 1.288 . S
C373 C374 1.369 . S
C373 H439 0.932 . S
C374 C373 1.369 . S
C374 C375 1.398 . S
C374 C378 1.527 . S
C375 C374 1.398 . S
C375 C376 1.380 . S
C375 C389 1.497 . S
C376 C375 1.380 . S
C376 C377 1.383 . S
C376 C379 1.603 . S
C377 C372 1.377 . S
C377 C376 1.383 . S
C377 H440 0.929 . S
C378 C374 1.527 . S
C378 H441 0.961 . S
C378 H442 0.959 . S
C378 H443 0.959 . S
C379 C376 1.603 . S
C379 H444 0.960 . S
C379 H445 0.962 . S
C379 H446 0.961 . S
C380 C347 1.587 . S
C380 C381 1.360 . S
C380 C393 1.412 . S
C381 C380 1.360 . S
C381 C382 1.365 . S
C381 H447 0.929 . S
C382 C357 1.553 . S
C382 C381 1.365 . S
C382 C383 1.404 . S
C383 C382 1.404 . S
C383 C384 1.395 . S
C383 C394 1.451 . S
C384 C383 1.395 . S
C384 C385 1.322 . S
C384 H448 0.930 . S
C385 C384 1.322 . S
C385 C386 1.459 . S
C385 H449 0.929 . S
C386 C385 1.459 . S
C386 C387 1.445 . S
C386 C395 1.395 . S
C387 C365 1.432 . S
C387 C386 1.445 . S
C387 C388 1.370 . S
C388 C387 1.370 . S
C388 C389 1.438 . S
C388 H450 0.930 . S
C389 C375 1.497 . S
C389 C388 1.438 . S
C389 C390 1.360 . S
C390 C389 1.360 . S
C390 C391 1.401 . S
C390 C395 1.446 . S
C391 C390 1.401 . S
C391 C392 1.347 . S
C391 H451 0.929 . S
C392 C391 1.347 . S
C392 C393 1.455 . S
C392 H452 0.930 . S
C393 C380 1.412 . S
C393 C392 1.455 . S
C393 C394 1.331 . S
C394 C383 1.451 . S
C394 C393 1.331 . S
C394 C395 1.497 . S
C395 C386 1.395 . S
C395 C390 1.446 . S
C395 C394 1.497 . S
C396 C397 1.582 . S
C396 H453 0.962 . S
C396 H454 0.959 . S
C396 H455 0.958 . S
C397 C396 1.582 . S
C397 O400 1.458 . S
C397 H426 0.980 . S
O398 C343 1.426 . S
O398 C344 1.334 . S
O399 C371 1.412 . S
O399 C372 1.393 . S
O400 C362 1.435 . S
O400 C397 1.458 . S
O401 C353 1.468 . S
O401 C354 1.408 . S
H402 C343 0.980 . S
H403 C342 0.959 . S
H404 C342 0.959 . S
H405 C342 0.960 . S
H406 C345 0.929 . S
H407 C349 0.929 . S
H408 C350 0.959 . S
H409 C350 0.961 . S
H410 C350 0.961 . S
H411 C351 0.960 . S
H412 C351 0.960 . S
H413 C351 0.961 . S
H414 C353 0.980 . S
H415 C352 0.961 . S
H416 C352 0.960 . S
H417 C352 0.959 . S
H418 C355 0.930 . S
H419 C359 0.931 . S
H420 C360 0.959 . S
H421 C360 0.961 . S
H422 C360 0.959 . S
H423 C361 0.960 . S
H424 C361 0.960 . S
H425 C361 0.960 . S
H426 C397 0.980 . S
H427 C363 0.930 . S
H428 C367 0.930 . S
H429 C368 0.961 . S
H430 C368 0.960 . S
H431 C368 0.958 . S
H432 C369 0.961 . S
H433 C369 0.960 . S
H434 C369 0.960 . S
H435 C371 0.980 . S
H436 C370 0.961 1_565 S
H437 C370 0.961 . S
H438 C370 0.959 . S
H439 C373 0.932 . S
H440 C377 0.929 . S
H441 C378 0.961 . S
H442 C378 0.959 . S
H443 C378 0.959 . S
H444 C379 0.960 . S
H445 C379 0.962 . S
H446 C379 0.961 . S
H447 C381 0.929 . S
H448 C384 0.930 . S
H449 C385 0.929 . S
H450 C388 0.930 . S
H451 C391 0.929 . S
H452 C392 0.930 . S
H453 C396 0.962 . S
H454 C396 0.959 . S
H455 C396 0.958 . S
C456 C457 1.560 . S
C456 H517 0.959 . S
C456 H518 0.959 . S
C456 H519 0.960 . S
C457 C456 1.560 . S
C457 O512 1.426 . S
C457 H516 0.980 . S
C458 C459 1.407 . S
C458 C463 1.418 . S
C458 O512 1.334 . S
C459 C458 1.407 . S
C459 C460 1.360 . S
C459 H520 0.929 . S
C460 C459 1.360 . S
C460 C461 1.401 . S
C460 C464 1.527 . S
C461 C460 1.401 . S
C461 C462 1.405 . S
C461 C494 1.587 . S
C462 C461 1.405 . S
C462 C463 1.332 . S
C462 C465 1.496 . S
C463 C458 1.418 . S
C463 C462 1.332 . S
C463 H521 0.929 . S
C464 C460 1.527 . S
C464 H522 0.959 . S
C464 H523 0.961 . S
C464 H524 0.961 . S
C465 C462 1.496 . S
C465 H525 0.960 . S
C465 H526 0.960 . S
C465 H527 0.961 . S
C466 C467 1.517 . S
C466 H529 0.953 1_545 S
C466 H530 0.960 . S
C466 H531 0.959 1_545 S
C467 C466 1.517 . S
C467 O515 1.468 . S
C467 H528 0.980 . S
C468 C469 1.349 . S
C468 C473 1.367 . S
C468 O515 1.408 . S
C469 C468 1.349 . S
C469 C470 1.407 . S
C469 H532 0.930 . S
C470 C469 1.407 . S
C470 C471 1.449 . S
C470 C474 1.535 . S
C471 C470 1.449 . S
C471 C472 1.384 . S
C471 C496 1.553 . S
C472 C471 1.384 . S
C472 C473 1.364 . S
C472 C475 1.450 . S
C473 C468 1.367 . S
C473 C472 1.364 . S
C473 H533 0.931 . S
C474 C470 1.535 . S
C474 H534 0.959 . S
C474 H535 0.961 . S
C474 H536 0.959 . S
C475 C472 1.450 . S
C475 H537 0.960 . S
C475 H538 0.960 . S
C475 H539 0.960 . S
C476 C477 1.309 . S
C476 C481 1.304 . S
C476 O514 1.435 . S
C477 C476 1.309 . S
C477 C478 1.476 . S
C477 H541 0.930 . S
C478 C477 1.476 . S
C478 C479 1.400 . S
C478 C482 1.567 . S
C479 C478 1.400 . S
C479 C480 1.373 . S
C479 C501 1.432 . S
C480 C479 1.373 . S
C480 C481 1.339 . S
C480 C483 1.530 . S
C481 C476 1.304 . S
C481 C480 1.339 . S
C481 H542 0.930 . S
C482 C478 1.567 . S
C482 H543 0.961 . S
C482 H544 0.960 . S
C482 H545 0.958 . S
C483 C480 1.530 . S
C483 H546 0.961 . S
C483 H547 0.960 . S
C483 H548 0.960 . S
C484 C485 1.530 . S
C484 H550 0.961 . S
C484 H551 0.961 . S
C484 H552 0.959 . S
C485 C484 1.530 . S
C485 O513 1.412 . S
C485 H549 0.980 . S
C486 C487 1.288 . S
C486 C491 1.377 . S
C486 O513 1.393 . S
C487 C486 1.288 . S
C487 C488 1.369 . S
C487 H553 0.932 . S
C488 C487 1.369 . S
C488 C489 1.398 . S
C488 C492 1.527 . S
C489 C488 1.398 . S
C489 C490 1.380 . S
C489 C503 1.497 . S
C490 C489 1.380 . S
C490 C491 1.383 . S
C490 C493 1.603 . S
C491 C486 1.377 . S
C491 C490 1.383 . S
C491 H554 0.929 . S
C492 C488 1.527 . S
C492 H555 0.961 . S
C492 H556 0.959 . S
C492 H557 0.959 . S
C493 C490 1.603 . S
C493 H558 0.960 . S
C493 H559 0.962 . S
C493 H560 0.961 . S
C494 C461 1.587 . S
C494 C495 1.360 . S
C494 C507 1.412 . S
C495 C494 1.360 . S
C495 C496 1.365 . S
C495 H561 0.929 . S
C496 C471 1.553 . S
C496 C495 1.365 . S
C496 C497 1.404 . S
C497 C496 1.404 . S
C497 C498 1.395 . S
C497 C508 1.451 . S
C498 C497 1.395 . S
C498 C499 1.322 . S
C498 H562 0.930 . S
C499 C498 1.322 . S
C499 C500 1.459 . S
C499 H563 0.929 . S
C500 C499 1.459 . S
C500 C501 1.445 . S
C500 C509 1.395 . S
C501 C479 1.432 . S
C501 C500 1.445 . S
C501 C502 1.370 . S
C502 C501 1.370 . S
C502 C503 1.438 . S
C502 H564 0.930 . S
C503 C489 1.497 . S
C503 C502 1.438 . S
C503 C504 1.360 . S
C504 C503 1.360 . S
C504 C505 1.401 . S
C504 C509 1.446 . S
C505 C504 1.401 . S
C505 C506 1.347 . S
C505 H565 0.929 . S
C506 C505 1.347 . S
C506 C507 1.455 . S
C506 H566 0.930 . S
C507 C494 1.412 . S
C507 C506 1.455 . S
C507 C508 1.331 . S
C508 C497 1.451 . S
C508 C507 1.331 . S
C508 C509 1.497 . S
C509 C500 1.395 . S
C509 C504 1.446 . S
C509 C508 1.497 . S
C510 C511 1.587 . S
C510 H567 0.959 1_545 S
C510 H568 0.953 1_545 S
C510 H569 0.961 . S
C511 C510 1.587 . S
C511 O514 1.458 . S
C511 H540 0.980 . S
O512 C457 1.426 . S
O512 C458 1.334 . S
O513 C485 1.412 . S
O513 C486 1.393 . S
O514 C476 1.435 . S
O514 C511 1.458 . S
O515 C467 1.468 . S
O515 C468 1.408 . S
H516 C457 0.980 . S
H517 C456 0.959 . S
H518 C456 0.959 . S
H519 C456 0.960 . S
H520 C459 0.929 . S
H521 C463 0.929 . S
H522 C464 0.959 . S
H523 C464 0.961 . S
H524 C464 0.961 . S
H525 C465 0.960 . S
H526 C465 0.960 . S
H527 C465 0.961 . S
H528 C467 0.980 . S
H529 C466 0.953 1_565 S
H530 C466 0.960 . S
H531 C466 0.959 1_565 S
H532 C469 0.930 . S
H533 C473 0.931 . S
H534 C474 0.959 . S
H535 C474 0.961 . S
H536 C474 0.959 . S
H537 C475 0.960 . S
H538 C475 0.960 . S
H539 C475 0.960 . S
H540 C511 0.980 . S
H541 C477 0.930 . S
H542 C481 0.930 . S
H543 C482 0.961 . S
H544 C482 0.960 . S
H545 C482 0.958 . S
H546 C483 0.961 . S
H547 C483 0.960 . S
H548 C483 0.960 . S
H549 C485 0.980 . S
H550 C484 0.961 . S
H551 C484 0.961 . S
H552 C484 0.959 . S
H553 C487 0.932 . S
H554 C491 0.929 . S
H555 C492 0.961 . S
H556 C492 0.959 . S
H557 C492 0.959 . S
H558 C493 0.960 . S
H559 C493 0.962 . S
H560 C493 0.961 . S
H561 C495 0.929 . S
H562 C498 0.930 . S
H563 C499 0.929 . S
H564 C502 0.930 . S
H565 C505 0.929 . S
H566 C506 0.930 . S
H567 C510 0.959 1_565 S
H568 C510 0.953 1_565 S
H569 C510 0.961 . S
C570 C571 1.560 . S
C570 H631 0.959 . S
C570 H632 0.959 . S
C570 H633 0.960 . S
C571 C570 1.560 . S
C571 O626 1.426 . S
C571 H630 0.980 . S
C572 C573 1.407 . S
C572 C577 1.418 . S
C572 O626 1.334 . S
C573 C572 1.407 . S
C573 C574 1.360 . S
C573 H634 0.929 . S
C574 C573 1.360 . S
C574 C575 1.401 . S
C574 C578 1.527 . S
C575 C574 1.401 . S
C575 C576 1.405 . S
C575 C608 1.587 . S
C576 C575 1.405 . S
C576 C577 1.332 . S
C576 C579 1.496 . S
C577 C572 1.418 . S
C577 C576 1.332 . S
C577 H635 0.929 . S
C578 C574 1.527 . S
C578 H636 0.959 . S
C578 H637 0.961 . S
C578 H638 0.961 . S
C579 C576 1.496 . S
C579 H639 0.960 . S
C579 H640 0.960 . S
C579 H641 0.961 . S
C580 C581 1.517 1_545 S
C580 H643 0.961 . S
C580 H644 0.960 . S
C580 H645 0.959 . S
C581 C580 1.517 1_565 S
C581 O629 1.468 . S
C581 H642 0.980 . S
C582 C583 1.349 . S
C582 C587 1.367 . S
C582 O629 1.408 . S
C583 C582 1.349 . S
C583 C584 1.407 . S
C583 H646 0.930 . S
C584 C583 1.407 . S
C584 C585 1.449 . S
C584 C588 1.535 . S
C585 C584 1.449 . S
C585 C586 1.384 . S
C585 C610 1.553 . S
C586 C585 1.384 . S
C586 C587 1.364 . S
C586 C589 1.450 . S
C587 C582 1.367 . S
C587 C586 1.364 . S
C587 H647 0.931 . S
C588 C584 1.535 . S
C588 H648 0.959 . S
C588 H649 0.961 . S
C588 H650 0.959 . S
C589 C586 1.450 . S
C589 H651 0.960 . S
C589 H652 0.960 . S
C589 H653 0.960 . S
C590 C591 1.309 . S
C590 C595 1.304 . S
C590 O628 1.435 . S
C591 C590 1.309 . S
C591 C592 1.476 . S
C591 H655 0.930 . S
C592 C591 1.476 . S
C592 C593 1.400 . S
C592 C596 1.567 . S
C593 C592 1.400 . S
C593 C594 1.373 . S
C593 C615 1.432 . S
C594 C593 1.373 . S
C594 C595 1.339 . S
C594 C597 1.530 . S
C595 C590 1.304 . S
C595 C594 1.339 . S
C595 H656 0.930 . S
C596 C592 1.567 . S
C596 H657 0.961 . S
C596 H658 0.960 . S
C596 H659 0.958 . S
C597 C594 1.530 . S
C597 H660 0.961 . S
C597 H661 0.960 . S
C597 H662 0.960 . S
C598 C599 1.530 . S
C598 H664 0.961 . S
C598 H665 0.961 . S
C598 H666 0.959 . S
C599 C598 1.530 . S
C599 O627 1.412 . S
C599 H663 0.980 . S
C600 C601 1.288 . S
C600 C605 1.377 . S
C600 O627 1.393 . S
C601 C600 1.288 . S
C601 C602 1.369 . S
C601 H667 0.932 . S
C602 C601 1.369 . S
C602 C603 1.398 . S
C602 C606 1.527 . S
C603 C602 1.398 . S
C603 C604 1.380 . S
C603 C617 1.497 . S
C604 C603 1.380 . S
C604 C605 1.383 . S
C604 C607 1.603 . S
C605 C600 1.377 . S
C605 C604 1.383 . S
C605 H668 0.929 . S
C606 C602 1.527 . S
C606 H669 0.961 . S
C606 H670 0.959 . S
C606 H671 0.959 . S
C607 C604 1.603 . S
C607 H672 0.960 . S
C607 H673 0.962 . S
C607 H674 0.961 . S
C608 C575 1.587 . S
C608 C609 1.360 . S
C608 C621 1.412 . S
C609 C608 1.360 . S
C609 C610 1.365 . S
C609 H675 0.929 . S
C610 C585 1.553 . S
C610 C609 1.365 . S
C610 C611 1.404 . S
C611 C610 1.404 . S
C611 C612 1.395 . S
C611 C622 1.451 . S
C612 C611 1.395 . S
C612 C613 1.322 . S
C612 H676 0.930 . S
C613 C612 1.322 . S
C613 C614 1.459 . S
C613 H677 0.929 . S
C614 C613 1.459 . S
C614 C615 1.445 . S
C614 C623 1.395 . S
C615 C593 1.432 . S
C615 C614 1.445 . S
C615 C616 1.370 . S
C616 C615 1.370 . S
C616 C617 1.438 . S
C616 H678 0.930 . S
C617 C603 1.497 . S
C617 C616 1.438 . S
C617 C618 1.360 . S
C618 C617 1.360 . S
C618 C619 1.401 . S
C618 C623 1.446 . S
C619 C618 1.401 . S
C619 C620 1.347 . S
C619 H679 0.929 . S
C620 C619 1.347 . S
C620 C621 1.455 . S
C620 H680 0.930 . S
C621 C608 1.412 . S
C621 C620 1.455 . S
C621 C622 1.331 . S
C622 C611 1.451 . S
C622 C621 1.331 . S
C622 C623 1.497 . S
C623 C614 1.395 . S
C623 C618 1.446 . S
C623 C622 1.497 . S
C624 C625 1.582 1_545 S
C624 H681 0.962 . S
C624 H682 0.959 . S
C624 H683 0.958 . S
C625 C624 1.582 1_565 S
C625 O628 1.458 . S
C625 H654 0.980 . S
O626 C571 1.426 . S
O626 C572 1.334 . S
O627 C599 1.412 . S
O627 C600 1.393 . S
O628 C590 1.435 . S
O628 C625 1.458 . S
O629 C581 1.468 . S
O629 C582 1.408 . S
H630 C571 0.980 . S
H631 C570 0.959 . S
H632 C570 0.959 . S
H633 C570 0.960 . S
H634 C573 0.929 . S
H635 C577 0.929 . S
H636 C578 0.959 . S
H637 C578 0.961 . S
H638 C578 0.961 . S
H639 C579 0.960 . S
H640 C579 0.960 . S
H641 C579 0.961 . S
H642 C581 0.980 . S
H643 C580 0.961 . S
H644 C580 0.960 . S
H645 C580 0.959 . S
H646 C583 0.930 . S
H647 C587 0.931 . S
H648 C588 0.959 . S
H649 C588 0.961 . S
H650 C588 0.959 . S
H651 C589 0.960 . S
H652 C589 0.960 . S
H653 C589 0.960 . S
H654 C625 0.980 . S
H655 C591 0.930 . S
H656 C595 0.930 . S
H657 C596 0.961 . S
H658 C596 0.960 . S
H659 C596 0.958 . S
H660 C597 0.961 . S
H661 C597 0.960 . S
H662 C597 0.960 . S
H663 C599 0.980 . S
H664 C598 0.961 . S
H665 C598 0.961 . S
H666 C598 0.959 . S
H667 C601 0.932 . S
H668 C605 0.929 . S
H669 C606 0.961 . S
H670 C606 0.959 . S
H671 C606 0.959 . S
H672 C607 0.960 . S
H673 C607 0.962 . S
H674 C607 0.961 . S
H675 C609 0.929 . S
H676 C612 0.930 . S
H677 C613 0.929 . S
H678 C616 0.930 . S
H679 C619 0.929 . S
H680 C620 0.930 . S
H681 C624 0.962 . S
H682 C624 0.959 . S
H683 C624 0.958 . S
C684 C685 1.560 . S
C684 H745 0.959 . S
C684 H746 0.959 . S
C684 H747 0.960 . S
C685 C684 1.560 . S
C685 O740 1.426 . S
C685 H744 0.980 . S
C686 C687 1.407 . S
C686 C691 1.418 . S
C686 O740 1.334 . S
C687 C686 1.407 . S
C687 C688 1.360 . S
C687 H748 0.929 . S
C688 C687 1.360 . S
C688 C689 1.401 . S
C688 C692 1.527 . S
C689 C688 1.401 . S
C689 C690 1.405 . S
C689 C722 1.587 . S
C690 C689 1.405 . S
C690 C691 1.332 . S
C690 C693 1.496 . S
C691 C686 1.418 . S
C691 C690 1.332 . S
C691 H749 0.929 . S
C692 C688 1.527 . S
C692 H750 0.959 . S
C692 H751 0.961 . S
C692 H752 0.961 . S
C693 C690 1.496 . S
C693 H753 0.960 . S
C693 H754 0.960 . S
C693 H755 0.961 . S
C694 C695 1.517 . S
C694 H757 0.961 . S
C694 H758 0.960 . S
C694 H759 0.959 . S
C695 C694 1.517 . S
C695 O743 1.468 . S
C695 H756 0.980 . S
C696 C697 1.349 . S
C696 C701 1.367 . S
C696 O743 1.408 . S
C697 C696 1.349 . S
C697 C698 1.407 . S
C697 H760 0.930 . S
C698 C697 1.407 . S
C698 C699 1.449 . S
C698 C702 1.535 . S
C699 C698 1.449 . S
C699 C700 1.384 . S
C699 C724 1.553 . S
C700 C699 1.384 . S
C700 C701 1.364 . S
C700 C703 1.450 . S
C701 C696 1.367 . S
C701 C700 1.364 . S
C701 H761 0.931 . S
C702 C698 1.535 . S
C702 H762 0.959 . S
C702 H763 0.961 . S
C702 H764 0.959 . S
C703 C700 1.450 . S
C703 H765 0.960 . S
C703 H766 0.960 . S
C703 H767 0.960 . S
C704 C705 1.309 . S
C704 C709 1.304 . S
C704 O742 1.435 . S
C705 C704 1.309 . S
C705 C706 1.476 . S
C705 H769 0.930 . S
C706 C705 1.476 . S
C706 C707 1.400 . S
C706 C710 1.567 . S
C707 C706 1.400 . S
C707 C708 1.373 . S
C707 C729 1.432 . S
C708 C707 1.373 . S
C708 C709 1.339 . S
C708 C711 1.530 . S
C709 C704 1.304 . S
C709 C708 1.339 . S
C709 H770 0.930 . S
C710 C706 1.567 . S
C710 H771 0.961 . S
C710 H772 0.960 . S
C710 H773 0.958 . S
C711 C708 1.530 . S
C711 H774 0.961 . S
C711 H775 0.960 1_556 S
C711 H776 0.960 . S
C712 C713 1.530 . S
C712 H778 0.961 . S
C712 H779 0.961 . S
C712 H780 0.959 . S
C713 C712 1.530 . S
C713 O741 1.412 . S
C713 H777 0.980 . S
C714 C715 1.288 . S
C714 C719 1.377 . S
C714 O741 1.393 . S
C715 C714 1.288 . S
C715 C716 1.369 . S
C715 H781 0.932 . S
C716 C715 1.369 . S
C716 C717 1.398 . S
C716 C720 1.527 . S
C717 C716 1.398 . S
C717 C718 1.380 . S
C717 C731 1.497 . S
C718 C717 1.380 . S
C718 C719 1.383 . S
C718 C721 1.603 . S
C719 C714 1.377 . S
C719 C718 1.383 . S
C719 H782 0.929 . S
C720 C716 1.527 . S
C720 H783 0.961 . S
C720 H784 0.959 . S
C720 H785 0.959 . S
C721 C718 1.603 . S
C721 H786 0.960 . S
C721 H787 0.962 . S
C721 H788 0.961 . S
C722 C689 1.587 . S
C722 C723 1.360 . S
C722 C735 1.412 . S
C723 C722 1.360 . S
C723 C724 1.365 . S
C723 H789 0.929 . S
C724 C699 1.553 . S
C724 C723 1.365 . S
C724 C725 1.404 . S
C725 C724 1.404 . S
C725 C726 1.395 . S
C725 C736 1.451 . S
C726 C725 1.395 . S
C726 C727 1.322 . S
C726 H790 0.930 . S
C727 C726 1.322 . S
C727 C728 1.455 . S
C727 H791 0.929 . S
C728 C727 1.455 . S
C728 C729 1.452 1_554 S
C728 C737 1.393 . S
C729 C707 1.432 . S
C729 C728 1.452 1_556 S
C729 C730 1.370 . S
C730 C729 1.370 . S
C730 C731 1.438 . S
C730 H792 0.930 . S
C731 C717 1.497 . S
C731 C730 1.438 . S
C731 C732 1.360 . S
C732 C731 1.360 . S
C732 C733 1.401 1_556 S
C732 C737 1.446 1_556 S
C733 C732 1.401 1_554 S
C733 C734 1.347 . S
C733 H793 0.929 1_554 S
C734 C733 1.347 . S
C734 C735 1.455 . S
C734 H794 0.930 . S
C735 C722 1.412 . S
C735 C734 1.455 . S
C735 C736 1.331 . S
C736 C725 1.451 . S
C736 C735 1.331 . S
C736 C737 1.497 . S
C737 C728 1.393 . S
C737 C732 1.446 1_554 S
C737 C736 1.497 . S
C738 C739 1.582 . S
C738 H795 0.962 . S
C738 H796 0.959 . S
C738 H797 0.958 . S
C739 C738 1.582 . S
C739 O742 1.458 . S
C739 H768 0.980 . S
O740 C685 1.426 . S
O740 C686 1.334 . S
O741 C713 1.412 . S
O741 C714 1.393 . S
O742 C704 1.435 . S
O742 C739 1.458 . S
O743 C695 1.468 . S
O743 C696 1.408 . S
H744 C685 0.980 . S
H745 C684 0.959 . S
H746 C684 0.959 . S
H747 C684 0.960 . S
H748 C687 0.929 . S
H749 C691 0.929 . S
H750 C692 0.959 . S
H751 C692 0.961 . S
H752 C692 0.961 . S
H753 C693 0.960 . S
H754 C693 0.960 . S
H755 C693 0.961 . S
H756 C695 0.980 . S
H757 C694 0.961 . S
H758 C694 0.960 . S
H759 C694 0.959 . S
H760 C697 0.930 . S
H761 C701 0.931 . S
H762 C702 0.959 . S
H763 C702 0.961 . S
H764 C702 0.959 . S
H765 C703 0.960 . S
H766 C703 0.960 . S
H767 C703 0.960 . S
H768 C739 0.980 . S
H769 C705 0.930 . S
H770 C709 0.930 . S
H771 C710 0.961 . S
H772 C710 0.960 . S
H773 C710 0.958 . S
H774 C711 0.961 . S
H775 C711 0.960 1_554 S
H776 C711 0.960 . S
H777 C713 0.980 . S
H778 C712 0.961 . S
H779 C712 0.961 . S
H780 C712 0.959 . S
H781 C715 0.932 . S
H782 C719 0.929 . S
H783 C720 0.961 . S
H784 C720 0.959 . S
H785 C720 0.959 . S
H786 C721 0.960 . S
H787 C721 0.962 . S
H788 C721 0.961 . S
H789 C723 0.929 . S
H790 C726 0.930 . S
H791 C727 0.929 . S
H792 C730 0.930 . S
H793 C733 0.929 1_556 S
H794 C734 0.930 . S
H795 C738 0.962 . S
H796 C738 0.959 . S
H797 C738 0.958 . S
C798 C799 1.560 . S
C798 H859 0.959 . S
C798 H860 0.959 . S
C798 H861 0.960 . S
C799 C798 1.560 . S
C799 O854 1.426 . S
C799 H858 0.980 . S
C800 C801 1.407 . S
C800 C805 1.418 . S
C800 O854 1.334 . S
C801 C800 1.407 . S
C801 C802 1.360 . S
C801 H862 0.929 . S
C802 C801 1.360 . S
C802 C803 1.401 . S
C802 C806 1.527 . S
C803 C802 1.401 . S
C803 C804 1.405 . S
C803 C836 1.587 . S
C804 C803 1.405 . S
C804 C805 1.332 . S
C804 C807 1.496 . S
C805 C800 1.418 . S
C805 C804 1.332 . S
C805 H863 0.929 . S
C806 C802 1.527 . S
C806 H864 0.959 . S
C806 H865 0.961 . S
C806 H866 0.961 . S
C807 C804 1.496 . S
C807 H867 0.960 . S
C807 H868 0.960 . S
C807 H869 0.961 . S
C808 C809 1.517 . S
C808 H871 0.961 . S
C808 H872 0.960 . S
C808 H873 0.959 . S
C809 C808 1.517 . S
C809 O857 1.468 . S
C809 H870 0.980 . S
C810 C811 1.349 . S
C810 C815 1.367 . S
C810 O857 1.408 . S
C811 C810 1.349 . S
C811 C812 1.407 . S
C811 H874 0.930 . S
C812 C811 1.407 . S
C812 C813 1.449 . S
C812 C816 1.535 . S
C813 C812 1.449 . S
C813 C814 1.384 . S
C813 C838 1.553 . S
C814 C813 1.384 . S
C814 C815 1.364 . S
C814 C817 1.450 . S
C815 C810 1.367 . S
C815 C814 1.364 . S
C815 H875 0.931 . S
C816 C812 1.535 . S
C816 H876 0.959 . S
C816 H877 0.961 . S
C816 H878 0.959 . S
C817 C814 1.450 . S
C817 H879 0.960 . S
C817 H880 0.960 . S
C817 H881 0.960 . S
C818 C819 1.309 . S
C818 C823 1.304 . S
C818 O856 1.435 . S
C819 C818 1.309 . S
C819 C820 1.476 . S
C819 H883 0.930 . S
C820 C819 1.476 . S
C820 C821 1.400 . S
C820 C824 1.567 . S
C821 C820 1.400 . S
C821 C822 1.373 . S
C821 C843 1.432 . S
C822 C821 1.373 . S
C822 C823 1.339 . S
C822 C825 1.530 . S
C823 C818 1.304 . S
C823 C822 1.339 . S
C823 H884 0.930 . S
C824 C820 1.567 . S
C824 H885 0.961 . S
C824 H886 0.960 . S
C824 H887 0.958 . S
C825 C822 1.530 . S
C825 H888 0.961 . S
C825 H889 0.960 . S
C825 H890 0.960 . S
C826 C827 1.530 . S
C826 H892 0.961 . S
C826 H893 0.961 . S
C826 H894 0.959 . S
C827 C826 1.530 . S
C827 O855 1.412 . S
C827 H891 0.980 . S
C828 C829 1.288 . S
C828 C833 1.377 . S
C828 O855 1.393 . S
C829 C828 1.288 . S
C829 C830 1.369 . S
C829 H895 0.932 . S
C830 C829 1.369 . S
C830 C831 1.398 . S
C830 C834 1.527 . S
C831 C830 1.398 . S
C831 C832 1.380 . S
C831 C845 1.497 . S
C832 C831 1.380 . S
C832 C833 1.383 . S
C832 C835 1.603 . S
C833 C828 1.377 . S
C833 C832 1.383 . S
C833 H896 0.929 . S
C834 C830 1.527 . S
C834 H897 0.961 . S
C834 H898 0.959 . S
C834 H899 0.959 . S
C835 C832 1.603 . S
C835 H900 0.960 . S
C835 H901 0.962 . S
C835 H902 0.961 . S
C836 C803 1.587 . S
C836 C837 1.360 1_655 S
C836 C849 1.412 . S
C837 C836 1.360 1_455 S
C837 C838 1.365 . S
C837 H903 0.929 . S
C838 C813 1.553 . S
C838 C837 1.365 . S
C838 C839 1.404 . S
C839 C838 1.404 . S
C839 C840 1.395 . S
C839 C850 1.451 . S
C840 C839 1.395 . S
C840 C841 1.322 . S
C840 H904 0.930 . S
C841 C840 1.322 . S
C841 C842 1.459 . S
C841 H905 0.929 . S
C842 C841 1.459 . S
C842 C843 1.445 . S
C842 C851 1.395 . S
C843 C821 1.432 . S
C843 C842 1.445 . S
C843 C844 1.370 . S
C844 C843 1.370 . S
C844 C845 1.438 1_455 S
C844 H906 0.930 . S
C845 C831 1.497 . S
C845 C844 1.438 1_655 S
C845 C846 1.360 . S
C846 C845 1.360 . S
C846 C847 1.401 . S
C846 C851 1.446 1_655 S
C847 C846 1.401 . S
C847 C848 1.347 . S
C847 H907 0.929 . S
C848 C847 1.347 . S
C848 C849 1.455 . S
C848 H908 0.930 . S
C849 C836 1.412 . S
C849 C848 1.455 . S
C849 C850 1.331 1_655 S
C850 C839 1.451 . S
C850 C849 1.331 1_455 S
C850 C851 1.497 . S
C851 C842 1.395 . S
C851 C846 1.446 1_455 S
C851 C850 1.497 . S
C852 C853 1.582 . S
C852 H909 0.962 . S
C852 H910 0.959 . S
C852 H911 0.958 . S
C853 C852 1.582 . S
C853 O856 1.458 . S
C853 H882 0.980 . S
O854 C799 1.426 . S
O854 C800 1.334 . S
O855 C827 1.412 . S
O855 C828 1.393 . S
O856 C818 1.435 . S
O856 C853 1.458 . S
O857 C809 1.468 . S
O857 C810 1.408 . S
H858 C799 0.980 . S
H859 C798 0.959 . S
H860 C798 0.959 . S
H861 C798 0.960 . S
H862 C801 0.929 . S
H863 C805 0.929 . S
H864 C806 0.959 . S
H865 C806 0.961 . S
H866 C806 0.961 . S
H867 C807 0.960 . S
H868 C807 0.960 . S
H869 C807 0.961 . S
H870 C809 0.980 . S
H871 C808 0.961 . S
H872 C808 0.960 . S
H873 C808 0.959 . S
H874 C811 0.930 . S
H875 C815 0.931 . S
H876 C816 0.959 . S
H877 C816 0.961 . S
H878 C816 0.959 . S
H879 C817 0.960 . S
H880 C817 0.960 . S
H881 C817 0.960 . S
H882 C853 0.980 . S
H883 C819 0.930 . S
H884 C823 0.930 . S
H885 C824 0.961 . S
H886 C824 0.960 . S
H887 C824 0.958 . S
H888 C825 0.961 . S
H889 C825 0.960 . S
H890 C825 0.960 . S
H891 C827 0.980 . S
H892 C826 0.961 . S
H893 C826 0.961 . S
H894 C826 0.959 . S
H895 C829 0.932 . S
H896 C833 0.929 . S
H897 C834 0.961 . S
H898 C834 0.959 . S
H899 C834 0.959 . S
H900 C835 0.960 . S
H901 C835 0.962 . S
H902 C835 0.961 . S
H903 C837 0.929 . S
H904 C840 0.930 . S
H905 C841 0.929 . S
H906 C844 0.930 . S
H907 C847 0.929 . S
H908 C848 0.930 . S
H909 C852 0.962 . S
H910 C852 0.959 . S
H911 C852 0.958 . S
Fe912 O913 1.886 . S
Fe912 O916 1.715 1_455 S
Fe912 O921 2.077 . S
Fe912 O926 1.935 1_455 S
Fe912 O932 2.077 . S
Fe912 O941 1.935 1_455 S
O913 Fe912 1.886 . S
O913 Fe915 1.715 . S
Fe914 O916 1.886 . S
Fe914 O917 1.715 . S
Fe914 O924 1.935 . S
Fe914 O925 2.077 . S
Fe914 O931 1.935 . S
Fe914 O940 2.077 . S
Fe915 O913 1.715 . S
Fe915 O918 1.886 . S
Fe915 O922 1.935 . S
Fe915 O927 2.077 . S
Fe915 O933 1.935 . S
Fe915 O937 2.077 . S
O916 Fe912 1.715 1_655 S
O916 Fe914 1.886 . S
O917 Fe914 1.715 . S
O917 Fe919 1.886 1_655 S
O918 Fe915 1.886 . S
O918 Fe919 1.715 . S
Fe919 O917 1.886 1_455 S
Fe919 O918 1.715 . S
Fe919 O923 2.077 1_455 S
Fe919 O928 1.935 . S
Fe919 O930 2.077 1_455 S
Fe919 O938 1.935 . S
C920 O932 1.381 . S
C920 O933 1.421 . S
O921 Fe912 2.077 . S
O921 C934 1.381 . S
O922 Fe915 1.935 . S
O922 C934 1.421 . S
O923 Fe919 2.077 1_655 S
O923 C939 1.381 . S
O924 Fe914 1.935 . S
O924 C939 1.421 . S
O925 Fe914 2.077 . S
O925 C929 1.381 . S
O926 Fe912 1.935 1_655 S
O926 C929 1.421 . S
O927 Fe915 2.077 . S
O927 C935 1.381 . S
O928 Fe919 1.935 . S
O928 C935 1.421 . S
C929 O925 1.381 . S
C929 O926 1.421 . S
O930 Fe919 2.077 1_655 S
O930 C942 1.381 . S
O931 Fe914 1.935 . S
O931 C942 1.421 . S
O932 Fe912 2.077 . S
O932 C920 1.381 . S
O933 Fe915 1.935 . S
O933 C920 1.421 . S
C934 O921 1.381 . S
C934 O922 1.421 . S
C935 O927 1.381 . S
C935 O928 1.421 . S
C936 O937 1.381 . S
C936 O938 1.421 . S
O937 Fe915 2.077 . S
O937 C936 1.381 . S
O938 Fe919 1.935 . S
O938 C936 1.421 . S
C939 O923 1.381 . S
C939 O924 1.421 . S
O940 Fe914 2.077 . S
O940 C943 1.381 . S
O941 Fe912 1.935 1_655 S
O941 C943 1.421 . S
C942 O930 1.381 . S
C942 O931 1.421 . S
C943 O940 1.381 . S
C943 O941 1.421 . S
Fe944 O945 1.886 . S
Fe944 O948 1.715 . S
Fe944 O953 2.077 . S
Fe944 O958 1.935 . S
Fe944 O964 2.077 . S
Fe944 O973 1.935 . S
O945 Fe944 1.886 . S
O945 Fe947 1.715 . S
Fe946 O948 1.886 . S
Fe946 O949 1.715 . S
Fe946 O956 1.935 . S
Fe946 O957 2.077 . S
Fe946 O963 1.935 . S
Fe946 O972 2.077 . S
Fe947 O945 1.715 . S
Fe947 O950 1.886 . S
Fe947 O954 1.935 . S
Fe947 O959 2.077 . S
Fe947 O965 1.935 . S
Fe947 O969 2.077 . S
O948 Fe944 1.715 . S
O948 Fe946 1.886 . S
O949 Fe946 1.715 . S
O949 Fe951 1.886 . S
O950 Fe947 1.886 . S
O950 Fe951 1.715 . S
Fe951 O949 1.886 . S
Fe951 O950 1.715 . S
Fe951 O955 2.077 . S
Fe951 O960 1.935 . S
Fe951 O962 2.077 . S
Fe951 O970 1.935 . S
C952 O964 1.381 . S
C952 O965 1.421 . S
O953 Fe944 2.077 . S
O953 C966 1.381 . S
O954 Fe947 1.935 . S
O954 C966 1.421 . S
O955 Fe951 2.077 . S
O955 C971 1.381 . S
O956 Fe946 1.935 . S
O956 C971 1.421 . S
O957 Fe946 2.077 . S
O957 C961 1.381 . S
O958 Fe944 1.935 . S
O958 C961 1.421 . S
O959 Fe947 2.077 . S
O959 C967 1.381 . S
O960 Fe951 1.935 . S
O960 C967 1.421 . S
C961 O957 1.381 . S
C961 O958 1.421 . S
O962 Fe951 2.077 . S
O962 C974 1.381 . S
O963 Fe946 1.935 . S
O963 C974 1.421 . S
O964 Fe944 2.077 . S
O964 C952 1.381 . S
O965 Fe947 1.935 . S
O965 C952 1.421 . S
C966 O953 1.381 . S
C966 O954 1.421 . S
C967 O959 1.381 . S
C967 O960 1.421 . S
C968 O969 1.381 . S
C968 O970 1.421 . S
O969 Fe947 2.077 . S
O969 C968 1.381 . S
O970 Fe951 1.935 . S
O970 C968 1.421 . S
C971 O955 1.381 . S
C971 O956 1.421 . S
O972 Fe946 2.077 . S
O972 C975 1.381 . S
O973 Fe944 1.935 . S
O973 C975 1.421 . S
C974 O962 1.381 . S
C974 O963 1.421 . S
C975 O972 1.381 . S
C975 O973 1.421 . S
Fe976 O977 1.886 . S
Fe976 O980 1.715 . S
Fe976 O985 2.077 . S
Fe976 O990 1.935 . S
Fe976 O996 2.077 . S
Fe976 O1005 1.935 . S
O977 Fe976 1.886 . S
O977 Fe979 1.715 . S
Fe978 O980 1.886 . S
Fe978 O981 1.715 . S
Fe978 O988 1.935 . S
Fe978 O989 2.077 . S
Fe978 O995 1.935 . S
Fe978 O1004 2.077 . S
Fe979 O977 1.715 . S
Fe979 O982 1.886 . S
Fe979 O986 1.935 . S
Fe979 O991 2.077 . S
Fe979 O997 1.935 . S
Fe979 O1001 2.077 . S
O980 Fe976 1.715 . S
O980 Fe978 1.886 . S
O981 Fe978 1.715 . S
O981 Fe983 1.886 . S
O982 Fe979 1.886 . S
O982 Fe983 1.715 . S
Fe983 O981 1.886 . S
Fe983 O982 1.715 . S
Fe983 O987 2.077 . S
Fe983 O992 1.935 . S
Fe983 O994 2.077 . S
Fe983 O1002 1.935 . S
C984 O996 1.381 . S
C984 O997 1.421 . S
O985 Fe976 2.077 . S
O985 C998 1.381 . S
O986 Fe979 1.935 . S
O986 C998 1.421 . S
O987 Fe983 2.077 . S
O987 C1003 1.381 . S
O988 Fe978 1.935 . S
O988 C1003 1.421 . S
O989 Fe978 2.077 . S
O989 C993 1.381 . S
O990 Fe976 1.935 . S
O990 C993 1.421 . S
O991 Fe979 2.077 . S
O991 C999 1.381 . S
O992 Fe983 1.935 . S
O992 C999 1.421 . S
C993 O989 1.381 . S
C993 O990 1.421 . S
O994 Fe983 2.077 . S
O994 C1006 1.381 . S
O995 Fe978 1.935 . S
O995 C1006 1.421 . S
O996 Fe976 2.077 . S
O996 C984 1.381 . S
O997 Fe979 1.935 . S
O997 C984 1.421 . S
C998 O985 1.381 . S
C998 O986 1.421 . S
C999 O991 1.381 . S
C999 O992 1.421 . S
C1000 O1001 1.381 . S
C1000 O1002 1.421 . S
O1001 Fe979 2.077 . S
O1001 C1000 1.381 . S
O1002 Fe983 1.935 . S
O1002 C1000 1.421 . S
C1003 O987 1.381 . S
C1003 O988 1.421 . S
O1004 Fe978 2.077 . S
O1004 C1007 1.381 . S
O1005 Fe976 1.935 . S
O1005 C1007 1.421 . S
C1006 O994 1.381 . S
C1006 O995 1.421 . S
C1007 O1004 1.381 . S
C1007 O1005 1.421 . S
Fe1008 O1009 1.886 . S
Fe1008 O1012 1.715 . S
Fe1008 O1017 2.077 1_455 S
Fe1008 O1022 1.935 1_455 S
Fe1008 O1028 2.077 . S
Fe1008 O1037 1.935 . S
O1009 Fe1008 1.886 . S
O1009 Fe1011 1.715 . S
Fe1010 O1012 1.886 . S
Fe1010 O1013 1.715 . S
Fe1010 O1020 1.935 1_455 S
Fe1010 O1021 2.077 1_455 S
Fe1010 O1027 1.935 . S
Fe1010 O1036 2.077 . S
Fe1011 O1009 1.715 . S
Fe1011 O1014 1.886 . S
Fe1011 O1018 1.935 1_455 S
Fe1011 O1023 2.077 1_455 S
Fe1011 O1029 1.935 . S
Fe1011 O1033 2.077 . S
O1012 Fe1008 1.715 . S
O1012 Fe1010 1.886 . S
O1013 Fe1010 1.715 . S
O1013 Fe1015 1.886 . S
O1014 Fe1011 1.886 . S
O1014 Fe1015 1.715 . S
Fe1015 O1013 1.886 . S
Fe1015 O1014 1.715 . S
Fe1015 O1019 2.077 1_455 S
Fe1015 O1024 1.935 1_455 S
Fe1015 O1026 2.077 . S
Fe1015 O1034 1.935 . S
C1016 O1028 1.381 . S
C1016 O1029 1.421 . S
O1017 Fe1008 2.077 1_655 S
O1017 C1030 1.381 . S
O1018 Fe1011 1.935 1_655 S
O1018 C1030 1.421 . S
O1019 Fe1015 2.077 1_655 S
O1019 C1035 1.381 . S
O1020 Fe1010 1.935 1_655 S
O1020 C1035 1.421 . S
O1021 Fe1010 2.077 1_655 S
O1021 C1025 1.381 . S
O1022 Fe1008 1.935 1_655 S
O1022 C1025 1.421 . S
O1023 Fe1011 2.077 1_655 S
O1023 C1031 1.381 . S
O1024 Fe1015 1.935 1_655 S
O1024 C1031 1.421 . S
C1025 O1021 1.381 . S
C1025 O1022 1.421 . S
O1026 Fe1015 2.077 . S
O1026 C1038 1.381 . S
O1027 Fe1010 1.935 . S
O1027 C1038 1.421 . S
O1028 Fe1008 2.077 . S
O1028 C1016 1.381 . S
O1029 Fe1011 1.935 . S
O1029 C1016 1.421 . S
C1030 O1017 1.381 . S
C1030 O1018 1.421 . S
C1031 O1023 1.381 . S
C1031 O1024 1.421 . S
C1032 O1033 1.381 . S
C1032 O1034 1.421 . S
O1033 Fe1011 2.077 . S
O1033 C1032 1.381 . S
O1034 Fe1015 1.935 . S
O1034 C1032 1.421 . S
C1035 O1019 1.381 . S
C1035 O1020 1.421 . S
O1036 Fe1010 2.077 . S
O1036 C1039 1.381 . S
O1037 Fe1008 1.935 . S
O1037 C1039 1.421 . S
C1038 O1026 1.381 . S
C1038 O1027 1.421 . S
C1039 O1036 1.381 . S
C1039 O1037 1.421 . S
H1040 C1048 0.950 . S
H1041 C1053 0.950 . S
H1042 C1050 0.950 . S
H1043 C1052 0.950 . S
H1044 C1054 0.950 . S
H1045 C1056 0.950 . S
H1046 C1058 0.950 . S
H1047 C1059 0.950 . S
C1048 H1040 0.950 . S
C1048 C1049 1.386 . S
C1048 C1050 1.391 . S
C1049 C1048 1.386 . S
C1049 C1053 1.393 . S
C1050 H1042 0.950 . S
C1050 C1048 1.391 . S
C1050 C1051 1.400 . S
C1051 C1050 1.400 . S
C1051 C1052 1.398 . S
C1051 C1057 1.491 . S
C1052 H1043 0.950 . S
C1052 C1051 1.398 . S
C1052 C1053 1.391 . S
C1053 H1041 0.950 . S
C1053 C1049 1.393 . S
C1053 C1052 1.391 . S
C1054 H1044 0.950 . S
C1054 C1055 1.386 . S
C1054 C1056 1.391 . S
C1055 C1054 1.386 . S
C1055 C1059 1.393 . S
C1056 H1045 0.950 . S
C1056 C1054 1.391 . S
C1056 C1057 1.400 . S
C1057 C1051 1.491 . S
C1057 C1056 1.400 . S
C1057 C1058 1.398 . S
C1058 H1046 0.950 . S
C1058 C1057 1.398 . S
C1058 C1059 1.391 . S
C1059 H1047 0.950 . S
C1059 C1055 1.393 . S
C1059 C1058 1.391 . S
H1060 C1068 0.950 . S
H1061 C1073 0.950 . S
H1062 C1070 0.950 . S
H1063 C1072 0.950 . S
H1064 C1074 0.950 . S
H1065 C1076 0.950 . S
H1066 C1078 0.950 . S
H1067 C1079 0.950 . S
C1068 H1060 0.950 . S
C1068 C1069 1.386 . S
C1068 C1070 1.391 1_565 S
C1069 C1068 1.386 . S
C1069 C1073 1.393 1_565 S
C1070 H1062 0.950 . S
C1070 C1068 1.391 1_545 S
C1070 C1071 1.400 . S
C1071 C1070 1.400 . S
C1071 C1072 1.398 . S
C1071 C1077 1.491 . S
C1072 H1063 0.950 . S
C1072 C1071 1.398 . S
C1072 C1073 1.391 . S
C1073 H1061 0.950 . S
C1073 C1069 1.393 1_545 S
C1073 C1072 1.391 . S
C1074 H1064 0.950 . S
C1074 C1075 1.386 . S
C1074 C1076 1.391 . S
C1075 C1074 1.386 . S
C1075 C1079 1.393 . S
C1076 H1065 0.950 . S
C1076 C1074 1.391 . S
C1076 C1077 1.400 . S
C1077 C1071 1.491 . S
C1077 C1076 1.400 . S
C1077 C1078 1.398 . S
C1078 H1066 0.950 . S
C1078 C1077 1.398 . S
C1078 C1079 1.391 . S
C1079 H1067 0.950 . S
C1079 C1075 1.393 . S
C1079 C1078 1.391 . S
H1080 C1088 0.950 . S
H1081 C1093 0.950 . S
H1082 C1090 0.950 . S
H1083 C1092 0.950 . S
H1084 C1094 0.950 . S
H1085 C1096 0.950 . S
H1086 C1098 0.950 . S
H1087 C1099 0.950 . S
C1088 H1080 0.950 . S
C1088 C1089 1.386 . S
C1088 C1090 1.391 . S
C1089 C1088 1.386 . S
C1089 C1093 1.393 . S
C1090 H1082 0.950 . S
C1090 C1088 1.391 . S
C1090 C1091 1.400 . S
C1091 C1090 1.400 . S
C1091 C1092 1.398 . S
C1091 C1097 1.491 . S
C1092 H1083 0.950 . S
C1092 C1091 1.398 . S
C1092 C1093 1.391 . S
C1093 H1081 0.950 . S
C1093 C1089 1.393 . S
C1093 C1092 1.391 . S
C1094 H1084 0.950 . S
C1094 C1095 1.386 . S
C1094 C1096 1.391 . S
C1095 C1094 1.386 . S
C1095 C1099 1.393 . S
C1096 H1085 0.950 . S
C1096 C1094 1.391 . S
C1096 C1097 1.400 . S
C1097 C1091 1.491 . S
C1097 C1096 1.400 . S
C1097 C1098 1.398 . S
C1098 H1086 0.950 . S
C1098 C1097 1.398 . S
C1098 C1099 1.391 . S
C1099 H1087 0.950 . S
C1099 C1095 1.393 . S
C1099 C1098 1.391 . S
H1100 C1108 0.950 . S
H1101 C1113 0.950 . S
H1102 C1110 0.951 . S
H1103 C1112 0.950 . S
H1104 C1114 0.950 . S
H1105 C1116 0.950 . S
H1106 C1118 0.950 . S
H1107 C1119 0.950 . S
C1108 H1100 0.950 . S
C1108 C1109 1.386 . S
C1108 C1110 1.391 1_545 S
C1109 C1108 1.386 . S
C1109 C1113 1.393 1_545 S
C1110 H1102 0.951 . S
C1110 C1108 1.391 1_565 S
C1110 C1111 1.400 . S
C1111 C1110 1.400 . S
C1111 C1112 1.398 . S
C1111 C1117 1.491 . S
C1112 H1103 0.950 . S
C1112 C1111 1.398 . S
C1112 C1113 1.391 . S
C1113 H1101 0.950 . S
C1113 C1109 1.393 1_565 S
C1113 C1112 1.391 . S
C1114 H1104 0.950 . S
C1114 C1115 1.386 . S
C1114 C1116 1.391 . S
C1115 C1114 1.386 . S
C1115 C1119 1.393 . S
C1116 H1105 0.950 . S
C1116 C1114 1.391 . S
C1116 C1117 1.400 . S
C1117 C1111 1.491 . S
C1117 C1116 1.400 . S
C1117 C1118 1.398 . S
C1118 H1106 0.950 . S
C1118 C1117 1.398 . S
C1118 C1119 1.391 . S
C1119 H1107 0.950 . S
C1119 C1115 1.393 . S
C1119 C1118 1.391 . S
H1120 C1128 0.950 . S
H1121 C1133 0.950 . S
H1122 C1130 0.950 . S
H1123 C1132 0.950 . S
H1124 C1134 0.950 . S
H1125 C1136 0.950 . S
H1126 C1138 0.950 . S
H1127 C1139 0.950 . S
C1128 H1120 0.950 . S
C1128 C1129 1.386 . S
C1128 C1130 1.391 . S
C1129 C1128 1.386 . S
C1129 C1133 1.393 . S
C1130 H1122 0.950 . S
C1130 C1128 1.391 . S
C1130 C1131 1.400 . S
C1131 C1130 1.400 . S
C1131 C1132 1.398 . S
C1131 C1137 1.491 . S
C1132 H1123 0.950 . S
C1132 C1131 1.398 . S
C1132 C1133 1.391 . S
C1133 H1121 0.950 . S
C1133 C1129 1.393 . S
C1133 C1132 1.391 . S
C1134 H1124 0.950 . S
C1134 C1135 1.386 . S
C1134 C1136 1.391 . S
C1135 C1134 1.386 . S
C1135 C1139 1.393 . S
C1136 H1125 0.950 . S
C1136 C1134 1.391 . S
C1136 C1137 1.400 . S
C1137 C1131 1.491 . S
C1137 C1136 1.400 . S
C1137 C1138 1.398 . S
C1138 H1126 0.950 . S
C1138 C1137 1.398 . S
C1138 C1139 1.391 . S
C1139 H1127 0.950 . S
C1139 C1135 1.393 . S
C1139 C1138 1.391 . S
H1140 C1148 0.950 1_565 S
H1141 C1153 0.950 . S
H1142 C1150 0.950 . S
H1143 C1152 0.950 . S
H1144 C1154 0.950 . S
H1145 C1156 0.950 . S
H1146 C1158 0.950 . S
H1147 C1159 0.950 . S
C1148 H1140 0.950 1_545 S
C1148 C1149 1.386 1_545 S
C1148 C1150 1.391 . S
C1149 C1148 1.386 1_565 S
C1149 C1153 1.393 1_565 S
C1150 H1142 0.950 . S
C1150 C1148 1.391 . S
C1150 C1151 1.400 . S
C1151 C1150 1.400 . S
C1151 C1152 1.398 . S
C1151 C1157 1.491 . S
C1152 H1143 0.950 . S
C1152 C1151 1.398 . S
C1152 C1153 1.391 . S
C1153 H1141 0.950 . S
C1153 C1149 1.393 1_545 S
C1153 C1152 1.391 . S
C1154 H1144 0.950 . S
C1154 C1155 1.386 . S
C1154 C1156 1.391 . S
C1155 C1154 1.386 . S
C1155 C1159 1.393 . S
C1156 H1145 0.950 . S
C1156 C1154 1.391 . S
C1156 C1157 1.400 . S
C1157 C1151 1.491 . S
C1157 C1156 1.400 . S
C1157 C1158 1.398 . S
C1158 H1146 0.950 . S
C1158 C1157 1.398 . S
C1158 C1159 1.391 . S
C1159 H1147 0.950 . S
C1159 C1155 1.393 . S
C1159 C1158 1.391 . S
H1160 C1168 0.950 . S
H1161 C1173 0.950 . S
H1162 C1170 0.950 . S
H1163 C1172 0.950 . S
H1164 C1174 0.950 . S
H1165 C1176 0.950 . S
H1166 C1178 0.950 . S
H1167 C1179 0.950 . S
C1168 H1160 0.950 . S
C1168 C1169 1.386 . S
C1168 C1170 1.391 . S
C1169 C1168 1.386 . S
C1169 C1173 1.393 . S
C1170 H1162 0.950 . S
C1170 C1168 1.391 . S
C1170 C1171 1.400 . S
C1171 C1170 1.400 . S
C1171 C1172 1.398 . S
C1171 C1177 1.491 . S
C1172 H1163 0.950 . S
C1172 C1171 1.398 . S
C1172 C1173 1.391 . S
C1173 H1161 0.950 . S
C1173 C1169 1.393 . S
C1173 C1172 1.391 . S
C1174 H1164 0.950 . S
C1174 C1175 1.386 . S
C1174 C1176 1.391 . S
C1175 C1174 1.386 . S
C1175 C1179 1.393 . S
C1176 H1165 0.950 . S
C1176 C1174 1.391 . S
C1176 C1177 1.400 . S
C1177 C1171 1.491 . S
C1177 C1176 1.400 . S
C1177 C1178 1.398 . S
C1178 H1166 0.950 . S
C1178 C1177 1.398 . S
C1178 C1179 1.391 . S
C1179 H1167 0.950 . S
C1179 C1175 1.393 . S
C1179 C1178 1.391 . S
H1180 C1188 0.950 . S
H1181 C1193 0.950 . S
H1182 C1190 0.950 . S
H1183 C1192 0.950 . S
H1184 C1194 0.950 . S
H1185 C1196 0.950 . S
H1186 C1198 0.950 . S
H1187 C1199 0.950 . S
C1188 H1180 0.950 . S
C1188 C1189 1.386 . S
C1188 C1190 1.391 1_545 S
C1189 C1188 1.386 . S
C1189 C1193 1.393 . S
C1190 H1182 0.950 . S
C1190 C1188 1.391 1_565 S
C1190 C1191 1.400 . S
C1191 C1190 1.400 . S
C1191 C1192 1.398 . S
C1191 C1197 1.491 . S
C1192 H1183 0.950 . S
C1192 C1191 1.398 . S
C1192 C1193 1.391 1_565 S
C1193 H1181 0.950 . S
C1193 C1189 1.393 . S
C1193 C1192 1.391 1_545 S
C1194 H1184 0.950 . S
C1194 C1195 1.386 . S
C1194 C1196 1.391 . S
C1195 C1194 1.386 . S
C1195 C1199 1.393 . S
C1196 H1185 0.950 . S
C1196 C1194 1.391 . S
C1196 C1197 1.400 . S
C1197 C1191 1.491 . S
C1197 C1196 1.400 . S
C1197 C1198 1.398 . S
C1198 H1186 0.950 . S
C1198 C1197 1.398 . S
C1198 C1199 1.391 . S
C1199 H1187 0.950 . S
C1199 C1195 1.393 . S
C1199 C1198 1.391 . S
H1200 C1208 0.950 . S
H1201 C1213 0.950 . S
H1202 C1210 0.950 . S
H1203 C1212 0.950 . S
H1204 C1214 0.950 . S
H1205 C1216 0.950 . S
H1206 C1218 0.950 . S
H1207 C1219 0.950 . S
C1208 H1200 0.950 . S
C1208 C1209 1.386 . S
C1208 C1210 1.391 . S
C1209 C1208 1.386 . S
C1209 C1213 1.393 . S
C1210 H1202 0.950 . S
C1210 C1208 1.391 . S
C1210 C1211 1.400 . S
C1211 C1210 1.400 . S
C1211 C1212 1.398 . S
C1211 C1217 1.491 . S
C1212 H1203 0.950 . S
C1212 C1211 1.398 . S
C1212 C1213 1.391 . S
C1213 H1201 0.950 . S
C1213 C1209 1.393 . S
C1213 C1212 1.391 . S
C1214 H1204 0.950 . S
C1214 C1215 1.386 . S
C1214 C1216 1.391 . S
C1215 C1214 1.386 . S
C1215 C1219 1.393 . S
C1216 H1205 0.950 . S
C1216 C1214 1.391 . S
C1216 C1217 1.400 . S
C1217 C1211 1.491 . S
C1217 C1216 1.400 . S
C1217 C1218 1.398 . S
C1218 H1206 0.950 . S
C1218 C1217 1.398 . S
C1218 C1219 1.391 . S
C1219 H1207 0.950 . S
C1219 C1215 1.393 . S
C1219 C1218 1.391 . S
H1220 C1228 0.950 . S
H1221 C1233 0.950 1_545 S
H1222 C1230 0.950 . S
H1223 C1232 0.950 . S
H1224 C1234 0.950 . S
H1225 C1236 0.950 . S
H1226 C1238 0.950 . S
H1227 C1239 0.950 . S
C1228 H1220 0.950 . S
C1228 C1229 1.386 . S
C1228 C1230 1.391 1_545 S
C1229 C1228 1.386 . S
C1229 C1233 1.393 1_545 S
C1230 H1222 0.950 . S
C1230 C1228 1.391 1_565 S
C1230 C1231 1.400 . S
C1231 C1230 1.400 . S
C1231 C1232 1.398 . S
C1231 C1237 1.491 . S
C1232 H1223 0.950 . S
C1232 C1231 1.398 . S
C1232 C1233 1.391 . S
C1233 H1221 0.950 1_565 S
C1233 C1229 1.393 1_565 S
C1233 C1232 1.391 . S
C1234 H1224 0.950 . S
C1234 C1235 1.386 . S
C1234 C1236 1.391 . S
C1235 C1234 1.386 . S
C1235 C1239 1.393 . S
C1236 H1225 0.950 . S
C1236 C1234 1.391 . S
C1236 C1237 1.400 . S
C1237 C1231 1.491 . S
C1237 C1236 1.400 . S
C1237 C1238 1.398 . S
C1238 H1226 0.950 . S
C1238 C1237 1.398 . S
C1238 C1239 1.391 . S
C1239 H1227 0.950 . S
C1239 C1235 1.393 . S
C1239 C1238 1.391 . S
H1240 C1248 0.950 . S
H1241 C1253 0.950 . S
H1242 C1250 0.950 . S
H1243 C1252 0.950 . S
H1244 C1254 0.950 . S
H1245 C1256 0.950 . S
H1246 C1258 0.950 . S
H1247 C1259 0.950 . S
C1248 H1240 0.950 . S
C1248 C1249 1.386 . S
C1248 C1250 1.391 . S
C1249 C1248 1.386 . S
C1249 C1253 1.393 . S
C1250 H1242 0.950 . S
C1250 C1248 1.391 . S
C1250 C1251 1.400 . S
C1251 C1250 1.400 . S
C1251 C1252 1.398 . S
C1251 C1257 1.491 . S
C1252 H1243 0.950 . S
C1252 C1251 1.398 . S
C1252 C1253 1.391 . S
C1253 H1241 0.950 . S
C1253 C1249 1.393 . S
C1253 C1252 1.391 . S
C1254 H1244 0.950 . S
C1254 C1255 1.386 . S
C1254 C1256 1.391 . S
C1255 C1254 1.386 . S
C1255 C1259 1.393 . S
C1256 H1245 0.950 . S
C1256 C1254 1.391 . S
C1256 C1257 1.400 . S
C1257 C1251 1.491 . S
C1257 C1256 1.400 . S
C1257 C1258 1.398 . S
C1258 H1246 0.950 . S
C1258 C1257 1.398 . S
C1258 C1259 1.391 . S
C1259 H1247 0.950 . S
C1259 C1255 1.393 . S
C1259 C1258 1.391 . S
H1260 C1268 0.950 . S
H1261 C1273 0.950 . S
H1262 C1270 0.950 . S
H1263 C1272 0.950 . S
H1264 C1274 0.950 . S
H1265 C1276 0.950 . S
H1266 C1278 0.950 . S
H1267 C1279 0.950 . S
C1268 H1260 0.950 . S
C1268 C1269 1.386 . S
C1268 C1270 1.391 1_565 S
C1269 C1268 1.386 . S
C1269 C1273 1.393 1_565 S
C1270 H1262 0.950 . S
C1270 C1268 1.391 1_545 S
C1270 C1271 1.400 . S
C1271 C1270 1.400 . S
C1271 C1272 1.398 . S
C1271 C1277 1.491 . S
C1272 H1263 0.950 . S
C1272 C1271 1.398 . S
C1272 C1273 1.391 . S
C1273 H1261 0.950 . S
C1273 C1269 1.393 1_545 S
C1273 C1272 1.391 . S
C1274 H1264 0.950 . S
C1274 C1275 1.386 . S
C1274 C1276 1.391 . S
C1275 C1274 1.386 . S
C1275 C1279 1.393 . S
C1276 H1265 0.950 . S
C1276 C1274 1.391 . S
C1276 C1277 1.400 . S
C1277 C1271 1.491 . S
C1277 C1276 1.400 . S
C1277 C1278 1.398 . S
C1278 H1266 0.950 . S
C1278 C1277 1.398 . S
C1278 C1279 1.391 . S
C1279 H1267 0.950 . S
C1279 C1275 1.393 . S
C1279 C1278 1.391 . S
H1280 C1288 0.950 . S
H1281 C1293 0.950 . S
H1282 C1290 0.950 . S
H1283 C1292 0.950 . S
H1284 C1294 0.950 . S
H1285 C1296 0.950 . S
H1286 C1298 0.950 . S
H1287 C1299 0.950 . S
C1288 H1280 0.950 . S
C1288 C1289 1.386 . S
C1288 C1290 1.391 . S
C1289 C1288 1.386 . S
C1289 C1293 1.393 . S
C1290 H1282 0.950 . S
C1290 C1288 1.391 . S
C1290 C1291 1.400 . S
C1291 C1290 1.400 . S
C1291 C1292 1.398 . S
C1291 C1297 1.491 . S
C1292 H1283 0.950 . S
C1292 C1291 1.398 . S
C1292 C1293 1.391 . S
C1293 H1281 0.950 . S
C1293 C1289 1.393 . S
C1293 C1292 1.391 . S
C1294 H1284 0.950 . S
C1294 C1295 1.386 . S
C1294 C1296 1.391 . S
C1295 C1294 1.386 . S
C1295 C1299 1.393 . S
C1296 H1285 0.950 . S
C1296 C1294 1.391 . S
C1296 C1297 1.400 . S
C1297 C1291 1.491 . S
C1297 C1296 1.400 . S
C1297 C1298 1.398 . S
C1298 H1286 0.950 . S
C1298 C1297 1.398 . S
C1298 C1299 1.391 . S
C1299 H1287 0.950 . S
C1299 C1295 1.393 . S
C1299 C1298 1.391 . S
H1300 C1308 0.950 . S
H1301 C1313 0.950 . S
H1302 C1310 0.950 . S
H1303 C1312 0.950 . S
H1304 C1314 0.950 . S
H1305 C1316 0.950 . S
H1306 C1318 0.950 . S
H1307 C1319 0.950 . S
C1308 H1300 0.950 . S
C1308 C1309 1.386 . S
C1308 C1310 1.391 1_545 S
C1309 C1308 1.386 . S
C1309 C1313 1.393 1_545 S
C1310 H1302 0.950 . S
C1310 C1308 1.391 1_565 S
C1310 C1311 1.400 . S
C1311 C1310 1.400 . S
C1311 C1312 1.398 . S
C1311 C1317 1.491 . S
C1312 H1303 0.950 . S
C1312 C1311 1.398 . S
C1312 C1313 1.391 . S
C1313 H1301 0.950 . S
C1313 C1309 1.393 1_565 S
C1313 C1312 1.391 . S
C1314 H1304 0.950 . S
C1314 C1315 1.386 . S
C1314 C1316 1.391 . S
C1315 C1314 1.386 . S
C1315 C1319 1.393 . S
C1316 H1305 0.950 . S
C1316 C1314 1.391 . S
C1316 C1317 1.400 . S
C1317 C1311 1.491 . S
C1317 C1316 1.400 . S
C1317 C1318 1.398 . S
C1318 H1306 0.950 . S
C1318 C1317 1.398 . S
C1318 C1319 1.391 . S
C1319 H1307 0.950 . S
C1319 C1315 1.393 . S
C1319 C1318 1.391 . S
H1320 C1328 0.950 . S
H1321 C1333 0.950 . S
H1322 C1330 0.950 . S
H1323 C1332 0.950 . S
H1324 C1334 0.950 . S
H1325 C1336 0.950 . S
H1326 C1338 0.950 . S
H1327 C1339 0.950 . S
C1328 H1320 0.950 . S
C1328 C1329 1.386 . S
C1328 C1330 1.391 . S
C1329 C1328 1.386 . S
C1329 C1333 1.393 . S
C1330 H1322 0.950 . S
C1330 C1328 1.391 . S
C1330 C1331 1.400 . S
C1331 C1330 1.400 . S
C1331 C1332 1.398 . S
C1331 C1337 1.491 . S
C1332 H1323 0.950 . S
C1332 C1331 1.398 . S
C1332 C1333 1.391 . S
C1333 H1321 0.950 . S
C1333 C1329 1.393 . S
C1333 C1332 1.391 . S
C1334 H1324 0.950 . S
C1334 C1335 1.386 . S
C1334 C1336 1.391 . S
C1335 C1334 1.386 . S
C1335 C1339 1.393 . S
C1336 H1325 0.950 . S
C1336 C1334 1.391 . S
C1336 C1337 1.400 . S
C1337 C1331 1.491 . S
C1337 C1336 1.400 . S
C1337 C1338 1.398 . S
C1338 H1326 0.950 . S
C1338 C1337 1.398 . S
C1338 C1339 1.391 . S
C1339 H1327 0.950 . S
C1339 C1335 1.393 . S
C1339 C1338 1.391 . S
H1340 C1348 0.950 . S
H1341 C1353 0.950 . S
H1342 C1350 0.950 . S
H1343 C1352 0.950 . S
H1344 C1354 0.950 . S
H1345 C1356 0.950 . S
H1346 C1358 0.950 . S
H1347 C1359 0.950 . S
C1348 H1340 0.950 . S
C1348 C1349 1.386 . S
C1348 C1350 1.391 1_565 S
C1349 C1348 1.386 . S
C1349 C1353 1.393 1_565 S
C1350 H1342 0.950 . S
C1350 C1348 1.391 1_545 S
C1350 C1351 1.400 . S
C1351 C1350 1.400 . S
C1351 C1352 1.398 . S
C1351 C1357 1.491 . S
C1352 H1343 0.950 . S
C1352 C1351 1.398 . S
C1352 C1353 1.391 . S
C1353 H1341 0.950 . S
C1353 C1349 1.393 1_545 S
C1353 C1352 1.391 . S
C1354 H1344 0.950 . S
C1354 C1355 1.386 . S
C1354 C1356 1.391 . S
C1355 C1354 1.386 . S
C1355 C1359 1.393 . S
C1356 H1345 0.950 . S
C1356 C1354 1.391 . S
C1356 C1357 1.400 . S
C1357 C1351 1.491 . S
C1357 C1356 1.400 . S
C1357 C1358 1.398 . S
C1358 H1346 0.950 . S
C1358 C1357 1.398 . S
C1358 C1359 1.391 . S
C1359 H1347 0.950 . S
C1359 C1355 1.393 . S
C1359 C1358 1.391 . S
H1360 C1368 0.950 . S
H1361 C1373 0.950 . S
H1362 C1370 0.950 . S
H1363 C1372 0.950 . S
H1364 C1374 0.950 . S
H1365 C1376 0.950 . S
H1366 C1378 0.950 . S
H1367 C1379 0.950 . S
C1368 H1360 0.950 . S
C1368 C1369 1.386 . S
C1368 C1370 1.391 . S
C1369 C1368 1.386 . S
C1369 C1373 1.393 . S
C1370 H1362 0.950 . S
C1370 C1368 1.391 . S
C1370 C1371 1.400 . S
C1371 C1370 1.400 . S
C1371 C1372 1.398 . S
C1371 C1377 1.491 . S
C1372 H1363 0.950 . S
C1372 C1371 1.398 . S
C1372 C1373 1.391 . S
C1373 H1361 0.950 . S
C1373 C1369 1.393 . S
C1373 C1372 1.391 . S
C1374 H1364 0.950 . S
C1374 C1375 1.386 . S
C1374 C1376 1.391 . S
C1375 C1374 1.386 . S
C1375 C1379 1.393 . S
C1376 H1365 0.950 . S
C1376 C1374 1.391 . S
C1376 C1377 1.400 . S
C1377 C1371 1.491 . S
C1377 C1376 1.400 . S
C1377 C1378 1.398 . S
C1378 H1366 0.950 . S
C1378 C1377 1.398 . S
C1378 C1379 1.391 . S
C1379 H1367 0.950 . S
C1379 C1375 1.393 . S
C1379 C1378 1.391 . S
H1380 C1388 0.950 . S
H1381 C1393 0.950 . S
H1382 C1390 0.950 . S
H1383 C1392 0.950 . S
H1384 C1394 0.950 . S
H1385 C1396 0.950 . S
H1386 C1398 0.950 . S
H1387 C1399 0.950 . S
C1388 H1380 0.950 . S
C1388 C1389 1.386 . S
C1388 C1390 1.391 . S
C1389 C1388 1.386 . S
C1389 C1393 1.393 . S
C1390 H1382 0.950 . S
C1390 C1388 1.391 . S
C1390 C1391 1.400 . S
C1391 C1390 1.400 . S
C1391 C1392 1.398 . S
C1391 C1397 1.491 . S
C1392 H1383 0.950 . S
C1392 C1391 1.398 . S
C1392 C1393 1.391 . S
C1393 H1381 0.950 . S
C1393 C1389 1.393 . S
C1393 C1392 1.391 . S
C1394 H1384 0.950 . S
C1394 C1395 1.386 . S
C1394 C1396 1.391 . S
C1395 C1394 1.386 . S
C1395 C1399 1.393 . S
C1396 H1385 0.950 . S
C1396 C1394 1.391 . S
C1396 C1397 1.400 . S
C1397 C1391 1.491 . S
C1397 C1396 1.400 . S
C1397 C1398 1.398 . S
C1398 H1386 0.950 . S
C1398 C1397 1.398 . S
C1398 C1399 1.391 . S
C1399 H1387 0.950 . S
C1399 C1395 1.393 . S
C1399 C1398 1.391 . S
H1400 C1408 0.950 . S
H1401 C1413 0.950 . S
H1402 C1410 0.950 . S
H1403 C1412 0.950 . S
H1404 C1414 0.950 . S
H1405 C1416 0.950 . S
H1406 C1418 0.950 . S
H1407 C1419 0.950 . S
C1408 H1400 0.950 . S
C1408 C1409 1.386 . S
C1408 C1410 1.391 . S
C1409 C1408 1.386 . S
C1409 C1413 1.393 . S
C1410 H1402 0.950 . S
C1410 C1408 1.391 . S
C1410 C1411 1.400 . S
C1411 C1410 1.400 . S
C1411 C1412 1.398 . S
C1411 C1417 1.491 . S
C1412 H1403 0.950 . S
C1412 C1411 1.398 . S
C1412 C1413 1.391 . S
C1413 H1401 0.950 . S
C1413 C1409 1.393 . S
C1413 C1412 1.391 . S
C1414 H1404 0.950 . S
C1414 C1415 1.386 . S
C1414 C1416 1.391 . S
C1415 C1414 1.386 . S
C1415 C1419 1.393 . S
C1416 H1405 0.950 . S
C1416 C1414 1.391 . S
C1416 C1417 1.400 . S
C1417 C1411 1.491 . S
C1417 C1416 1.400 . S
C1417 C1418 1.398 . S
C1418 H1406 0.950 . S
C1418 C1417 1.398 . S
C1418 C1419 1.391 . S
C1419 H1407 0.950 . S
C1419 C1415 1.393 . S
C1419 C1418 1.391 . S
H1420 C1428 0.950 . S
H1421 C1433 0.950 . S
H1422 C1430 0.950 . S
H1423 C1432 0.950 . S
H1424 C1434 0.950 . S
H1425 C1436 0.950 . S
H1426 C1438 0.950 . S
H1427 C1439 0.950 . S
C1428 H1420 0.950 . S
C1428 C1429 1.386 . S
C1428 C1430 1.391 . S
C1429 C1428 1.386 . S
C1429 C1433 1.393 . S
C1430 H1422 0.950 . S
C1430 C1428 1.391 . S
C1430 C1431 1.400 . S
C1431 C1430 1.400 . S
C1431 C1432 1.398 . S
C1431 C1437 1.491 . S
C1432 H1423 0.950 . S
C1432 C1431 1.398 . S
C1432 C1433 1.391 . S
C1433 H1421 0.950 . S
C1433 C1429 1.393 . S
C1433 C1432 1.391 . S
C1434 H1424 0.950 . S
C1434 C1435 1.386 . S
C1434 C1436 1.391 . S
C1435 C1434 1.386 . S
C1435 C1439 1.393 . S
C1436 H1425 0.950 . S
C1436 C1434 1.391 . S
C1436 C1437 1.400 . S
C1437 C1431 1.491 . S
C1437 C1436 1.400 . S
C1437 C1438 1.398 . S
C1438 H1426 0.950 . S
C1438 C1437 1.398 . S
C1438 C1439 1.391 . S
C1439 H1427 0.950 . S
C1439 C1435 1.393 . S
C1439 C1438 1.391 . S
H1440 C1448 0.950 . S
H1441 C1453 0.950 . S
H1442 C1450 0.950 . S
H1443 C1452 0.950 . S
H1444 C1454 0.950 . S
H1445 C1456 0.950 . S
H1446 C1458 0.950 . S
H1447 C1459 0.950 . S
C1448 H1440 0.950 . S
C1448 C1449 1.386 . S
C1448 C1450 1.391 . S
C1449 C1448 1.386 . S
C1449 C1453 1.393 . S
C1450 H1442 0.950 . S
C1450 C1448 1.391 . S
C1450 C1451 1.400 . S
C1451 C1450 1.400 . S
C1451 C1452 1.398 . S
C1451 C1457 1.491 . S
C1452 H1443 0.950 . S
C1452 C1451 1.398 . S
C1452 C1453 1.391 . S
C1453 H1441 0.950 . S
C1453 C1449 1.393 . S
C1453 C1452 1.391 . S
C1454 H1444 0.950 . S
C1454 C1455 1.386 . S
C1454 C1456 1.391 . S
C1455 C1454 1.386 . S
C1455 C1459 1.393 . S
C1456 H1445 0.950 . S
C1456 C1454 1.391 . S
C1456 C1457 1.400 . S
C1457 C1451 1.491 . S
C1457 C1456 1.400 . S
C1457 C1458 1.398 . S
C1458 H1446 0.950 . S
C1458 C1457 1.398 . S
C1458 C1459 1.391 . S
C1459 H1447 0.950 . S
C1459 C1455 1.393 . S
C1459 C1458 1.391 . S
H1460 C1468 0.950 . S
H1461 C1473 0.950 . S
H1462 C1470 0.950 . S
H1463 C1472 0.950 . S
H1464 C1474 0.950 . S
H1465 C1476 0.950 . S
H1466 C1478 0.950 . S
H1467 C1479 0.950 . S
C1468 H1460 0.950 . S
C1468 C1469 1.386 . S
C1468 C1470 1.391 . S
C1469 C1468 1.386 . S
C1469 C1473 1.393 . S
C1470 H1462 0.950 . S
C1470 C1468 1.391 . S
C1470 C1471 1.400 . S
C1471 C1470 1.400 . S
C1471 C1472 1.398 . S
C1471 C1477 1.491 . S
C1472 H1463 0.950 . S
C1472 C1471 1.398 . S
C1472 C1473 1.391 . S
C1473 H1461 0.950 . S
C1473 C1469 1.393 . S
C1473 C1472 1.391 . S
C1474 H1464 0.950 . S
C1474 C1475 1.386 . S
C1474 C1476 1.391 . S
C1475 C1474 1.386 . S
C1475 C1479 1.393 . S
C1476 H1465 0.950 . S
C1476 C1474 1.391 . S
C1476 C1477 1.400 . S
C1477 C1471 1.491 . S
C1477 C1476 1.400 . S
C1477 C1478 1.398 . S
C1478 H1466 0.950 . S
C1478 C1477 1.398 . S
C1478 C1479 1.391 . S
C1479 H1467 0.950 . S
C1479 C1475 1.393 . S
C1479 C1478 1.391 . S
H1480 C1488 0.950 . S
H1481 C1493 0.950 . S
H1482 C1490 0.950 . S
H1483 C1492 0.950 . S
H1484 C1494 0.950 . S
H1485 C1496 0.950 . S
H1486 C1498 0.950 . S
H1487 C1499 0.950 . S
C1488 H1480 0.950 . S
C1488 C1489 1.386 . S
C1488 C1490 1.391 . S
C1489 C1488 1.386 . S
C1489 C1493 1.393 . S
C1490 H1482 0.950 . S
C1490 C1488 1.391 . S
C1490 C1491 1.400 . S
C1491 C1490 1.400 . S
C1491 C1492 1.398 . S
C1491 C1497 1.491 . S
C1492 H1483 0.950 . S
C1492 C1491 1.398 . S
C1492 C1493 1.391 . S
C1493 H1481 0.950 . S
C1493 C1489 1.393 . S
C1493 C1492 1.391 . S
C1494 H1484 0.950 . S
C1494 C1495 1.386 . S
C1494 C1496 1.391 . S
C1495 C1494 1.386 . S
C1495 C1499 1.393 . S
C1496 H1485 0.950 . S
C1496 C1494 1.391 . S
C1496 C1497 1.400 . S
C1497 C1491 1.491 . S
C1497 C1496 1.400 . S
C1497 C1498 1.398 . S
C1498 H1486 0.950 . S
C1498 C1497 1.398 . S
C1498 C1499 1.391 . S
C1499 H1487 0.950 . S
C1499 C1495 1.393 . S
C1499 C1498 1.391 . S
H1500 C1508 0.950 . S
H1501 C1513 0.950 . S
H1502 C1510 0.950 . S
H1503 C1512 0.950 . S
H1504 C1514 0.950 . S
H1505 C1516 0.950 . S
H1506 C1518 0.950 . S
H1507 C1519 0.950 . S
C1508 H1500 0.950 . S
C1508 C1509 1.386 . S
C1508 C1510 1.391 . S
C1509 C1508 1.386 . S
C1509 C1513 1.393 . S
C1510 H1502 0.950 . S
C1510 C1508 1.391 . S
C1510 C1511 1.400 . S
C1511 C1510 1.400 . S
C1511 C1512 1.398 . S
C1511 C1517 1.491 . S
C1512 H1503 0.950 . S
C1512 C1511 1.398 . S
C1512 C1513 1.391 . S
C1513 H1501 0.950 . S
C1513 C1509 1.393 . S
C1513 C1512 1.391 . S
C1514 H1504 0.950 . S
C1514 C1515 1.386 . S
C1514 C1516 1.391 . S
C1515 C1514 1.386 . S
C1515 C1519 1.393 . S
C1516 H1505 0.950 . S
C1516 C1514 1.391 . S
C1516 C1517 1.400 . S
C1517 C1511 1.491 . S
C1517 C1516 1.400 . S
C1517 C1518 1.398 . S
C1518 H1506 0.950 . S
C1518 C1517 1.398 . S
C1518 C1519 1.391 . S
C1519 H1507 0.950 . S
C1519 C1515 1.393 . S
C1519 C1518 1.391 . S
H1520 C1528 0.950 . S
H1521 C1533 0.950 . S
H1522 C1530 0.950 . S
H1523 C1532 0.950 . S
H1524 C1534 0.950 . S
H1525 C1536 0.950 . S
H1526 C1538 0.950 . S
H1527 C1539 0.950 . S
C1528 H1520 0.950 . S
C1528 C1529 1.386 . S
C1528 C1530 1.391 . S
C1529 C1528 1.386 . S
C1529 C1533 1.393 . S
C1530 H1522 0.950 . S
C1530 C1528 1.391 . S
C1530 C1531 1.400 . S
C1531 C1530 1.400 . S
C1531 C1532 1.398 . S
C1531 C1537 1.491 . S
C1532 H1523 0.950 . S
C1532 C1531 1.398 . S
C1532 C1533 1.391 . S
C1533 H1521 0.950 . S
C1533 C1529 1.393 . S
C1533 C1532 1.391 . S
C1534 H1524 0.950 . S
C1534 C1535 1.386 . S
C1534 C1536 1.391 . S
C1535 C1534 1.386 . S
C1535 C1539 1.393 . S
C1536 H1525 0.950 . S
C1536 C1534 1.391 . S
C1536 C1537 1.400 . S
C1537 C1531 1.491 . S
C1537 C1536 1.400 . S
C1537 C1538 1.398 . S
C1538 H1526 0.950 . S
C1538 C1537 1.398 . S
C1538 C1539 1.391 . S
C1539 H1527 0.950 . S
C1539 C1535 1.393 . S
C1539 C1538 1.391 . S
H1540 C1548 0.950 . S
H1541 C1553 0.950 . S
H1542 C1550 0.950 . S
H1543 C1552 0.950 . S
H1544 C1554 0.950 . S
H1545 C1556 0.950 . S
H1546 C1558 0.950 . S
H1547 C1559 0.950 . S
C1548 H1540 0.950 . S
C1548 C1549 1.386 . S
C1548 C1550 1.391 . S
C1549 C1548 1.386 . S
C1549 C1553 1.393 . S
C1550 H1542 0.950 . S
C1550 C1548 1.391 . S
C1550 C1551 1.400 . S
C1551 C1550 1.400 . S
C1551 C1552 1.398 . S
C1551 C1557 1.491 . S
C1552 H1543 0.950 . S
C1552 C1551 1.398 . S
C1552 C1553 1.391 . S
C1553 H1541 0.950 . S
C1553 C1549 1.393 . S
C1553 C1552 1.391 . S
C1554 H1544 0.950 . S
C1554 C1555 1.386 . S
C1554 C1556 1.391 . S
C1555 C1554 1.386 . S
C1555 C1559 1.393 . S
C1556 H1545 0.950 . S
C1556 C1554 1.391 . S
C1556 C1557 1.400 . S
C1557 C1551 1.491 . S
C1557 C1556 1.400 . S
C1557 C1558 1.398 . S
C1558 H1546 0.950 . S
C1558 C1557 1.398 . S
C1558 C1559 1.391 . S
C1559 H1547 0.950 . S
C1559 C1555 1.393 . S
C1559 C1558 1.391 . S
H1560 C1568 0.950 . S
H1561 C1573 0.950 . S
H1562 C1570 0.950 . S
H1563 C1572 0.950 . S
H1564 C1574 0.950 . S
H1565 C1576 0.950 . S
H1566 C1578 0.950 . S
H1567 C1579 0.950 . S
C1568 H1560 0.950 . S
C1568 C1569 1.386 . S
C1568 C1570 1.391 . S
C1569 C1568 1.386 . S
C1569 C1573 1.393 . S
C1570 H1562 0.950 . S
C1570 C1568 1.391 . S
C1570 C1571 1.400 . S
C1571 C1570 1.400 . S
C1571 C1572 1.398 . S
C1571 C1577 1.491 . S
C1572 H1563 0.950 . S
C1572 C1571 1.398 . S
C1572 C1573 1.391 . S
C1573 H1561 0.950 . S
C1573 C1569 1.393 . S
C1573 C1572 1.391 . S
C1574 H1564 0.950 . S
C1574 C1575 1.386 . S
C1574 C1576 1.391 . S
C1575 C1574 1.386 . S
C1575 C1579 1.393 . S
C1576 H1565 0.950 . S
C1576 C1574 1.391 . S
C1576 C1577 1.400 . S
C1577 C1571 1.491 . S
C1577 C1576 1.400 . S
C1577 C1578 1.398 . S
C1578 H1566 0.950 . S
C1578 C1577 1.398 . S
C1578 C1579 1.391 . S
C1579 H1567 0.950 . S
C1579 C1575 1.393 . S
C1579 C1578 1.391 . S
H1580 C1588 0.950 . S
H1581 C1593 0.950 . S
H1582 C1590 0.950 . S
H1583 C1592 0.950 . S
H1584 C1594 0.950 . S
H1585 C1596 0.950 . S
H1586 C1598 0.950 . S
H1587 C1599 0.950 . S
C1588 H1580 0.950 . S
C1588 C1589 1.386 . S
C1588 C1590 1.391 . S
C1589 C1588 1.386 . S
C1589 C1593 1.393 . S
C1590 H1582 0.950 . S
C1590 C1588 1.391 . S
C1590 C1591 1.400 . S
C1591 C1590 1.400 . S
C1591 C1592 1.398 . S
C1591 C1597 1.491 . S
C1592 H1583 0.950 . S
C1592 C1591 1.398 . S
C1592 C1593 1.391 . S
C1593 H1581 0.950 . S
C1593 C1589 1.393 . S
C1593 C1592 1.391 . S
C1594 H1584 0.950 . S
C1594 C1595 1.386 . S
C1594 C1596 1.391 . S
C1595 C1594 1.386 . S
C1595 C1599 1.393 . S
C1596 H1585 0.950 . S
C1596 C1594 1.391 . S
C1596 C1597 1.400 . S
C1597 C1591 1.491 . S
C1597 C1596 1.400 . S
C1597 C1598 1.398 . S
C1598 H1586 0.950 . S
C1598 C1597 1.398 . S
C1598 C1599 1.391 . S
C1599 H1587 0.950 . S
C1599 C1595 1.393 . S
C1599 C1598 1.391 . S
H1600 C1608 0.950 . S
H1601 C1613 0.950 . S
H1602 C1610 0.950 . S
H1603 C1612 0.950 . S
H1604 C1614 0.950 . S
H1605 C1616 0.950 . S
H1606 C1618 0.950 . S
H1607 C1619 0.950 . S
C1608 H1600 0.950 . S
C1608 C1609 1.386 . S
C1608 C1610 1.391 . S
C1609 C1608 1.386 . S
C1609 C1613 1.393 . S
C1610 H1602 0.950 . S
C1610 C1608 1.391 . S
C1610 C1611 1.400 . S
C1611 C1610 1.400 . S
C1611 C1612 1.398 . S
C1611 C1617 1.491 . S
C1612 H1603 0.950 . S
C1612 C1611 1.398 . S
C1612 C1613 1.391 . S
C1613 H1601 0.950 . S
C1613 C1609 1.393 . S
C1613 C1612 1.391 . S
C1614 H1604 0.950 . S
C1614 C1615 1.386 . S
C1614 C1616 1.391 . S
C1615 C1614 1.386 . S
C1615 C1619 1.393 . S
C1616 H1605 0.950 . S
C1616 C1614 1.391 . S
C1616 C1617 1.400 . S
C1617 C1611 1.491 . S
C1617 C1616 1.400 . S
C1617 C1618 1.398 . S
C1618 H1606 0.950 . S
C1618 C1617 1.398 . S
C1618 C1619 1.391 . S
C1619 H1607 0.950 . S
C1619 C1615 1.393 . S
C1619 C1618 1.391 . S
H1620 C1628 0.950 . S
H1621 C1633 0.950 . S
H1622 C1630 0.950 . S
H1623 C1632 0.950 . S
H1624 C1634 0.950 . S
H1625 C1636 0.950 . S
H1626 C1638 0.950 . S
H1627 C1639 0.950 . S
C1628 H1620 0.950 . S
C1628 C1629 1.386 . S
C1628 C1630 1.391 . S
C1629 C1628 1.386 . S
C1629 C1633 1.393 . S
C1630 H1622 0.950 . S
C1630 C1628 1.391 . S
C1630 C1631 1.400 . S
C1631 C1630 1.400 . S
C1631 C1632 1.398 . S
C1631 C1637 1.491 . S
C1632 H1623 0.950 . S
C1632 C1631 1.398 . S
C1632 C1633 1.391 . S
C1633 H1621 0.950 . S
C1633 C1629 1.393 . S
C1633 C1632 1.391 . S
C1634 H1624 0.950 . S
C1634 C1635 1.386 . S
C1634 C1636 1.391 . S
C1635 C1634 1.386 . S
C1635 C1639 1.393 . S
C1636 H1625 0.950 . S
C1636 C1634 1.391 . S
C1636 C1637 1.400 . S
C1637 C1631 1.491 . S
C1637 C1636 1.400 . S
C1637 C1638 1.398 . S
C1638 H1626 0.950 . S
C1638 C1637 1.398 . S
C1638 C1639 1.391 . S
C1639 H1627 0.950 . S
C1639 C1635 1.393 . S
C1639 C1638 1.391 . S
H1640 C1648 0.950 . S
H1641 C1653 0.950 . S
H1642 C1650 0.950 . S
H1643 C1652 0.950 . S
H1644 C1654 0.950 . S
H1645 C1656 0.950 . S
H1646 C1658 0.950 . S
H1647 C1659 0.950 . S
C1648 H1640 0.950 . S
C1648 C1649 1.386 . S
C1648 C1650 1.391 . S
C1649 C1648 1.386 . S
C1649 C1653 1.393 . S
C1650 H1642 0.950 . S
C1650 C1648 1.391 . S
C1650 C1651 1.400 . S
C1651 C1650 1.400 . S
C1651 C1652 1.398 . S
C1651 C1657 1.491 . S
C1652 H1643 0.950 . S
C1652 C1651 1.398 . S
C1652 C1653 1.391 . S
C1653 H1641 0.950 . S
C1653 C1649 1.393 . S
C1653 C1652 1.391 . S
C1654 H1644 0.950 . S
C1654 C1655 1.386 . S
C1654 C1656 1.391 . S
C1655 C1654 1.386 . S
C1655 C1659 1.393 . S
C1656 H1645 0.950 . S
C1656 C1654 1.391 . S
C1656 C1657 1.400 . S
C1657 C1651 1.491 . S
C1657 C1656 1.400 . S
C1657 C1658 1.398 . S
C1658 H1646 0.950 . S
C1658 C1657 1.398 . S
C1658 C1659 1.391 . S
C1659 H1647 0.950 . S
C1659 C1655 1.393 . S
C1659 C1658 1.391 . S
H1660 C1668 0.950 . S
H1661 C1673 0.950 . S
H1662 C1670 0.950 . S
H1663 C1672 0.950 . S
H1664 C1674 0.950 . S
H1665 C1676 0.950 . S
H1666 C1678 0.950 . S
H1667 C1679 0.950 . S
C1668 H1660 0.950 . S
C1668 C1669 1.386 . S
C1668 C1670 1.391 . S
C1669 C1668 1.386 . S
C1669 C1673 1.393 . S
C1670 H1662 0.950 . S
C1670 C1668 1.391 . S
C1670 C1671 1.400 . S
C1671 C1670 1.400 . S
C1671 C1672 1.398 . S
C1671 C1677 1.491 . S
C1672 H1663 0.950 . S
C1672 C1671 1.398 . S
C1672 C1673 1.391 . S
C1673 H1661 0.950 . S
C1673 C1669 1.393 . S
C1673 C1672 1.391 . S
C1674 H1664 0.950 . S
C1674 C1675 1.386 . S
C1674 C1676 1.391 . S
C1675 C1674 1.386 . S
C1675 C1679 1.393 . S
C1676 H1665 0.950 . S
C1676 C1674 1.391 . S
C1676 C1677 1.400 . S
C1677 C1671 1.491 . S
C1677 C1676 1.400 . S
C1677 C1678 1.398 . S
C1678 H1666 0.950 . S
C1678 C1677 1.398 . S
C1678 C1679 1.391 . S
C1679 H1667 0.950 . S
C1679 C1675 1.393 . S
C1679 C1678 1.391 . S
C1055 C961 1.524 . S
C1049 C11 0.991 . S
C1069 C143 1.137 . S
C1075 C993 1.445 . S
C1089 C283 1.131 . S
C1095 C1016 1.587 . S
C1115 C920 1.389 . S
C1109 C343 1.140 . S
C1135 C1003 1.398 . S
C1129 C55 1.067 . S
C1155 C1032 1.223 . S
C1149 C115 1.101 . S
C1175 C936 1.370 . S
C1169 C239 0.979 . S
C1195 C971 1.302 . S
C1189 C371 1.127 . S
C1209 C29 1.144 . S
C1215 C999 1.276 . S
C1229 C467 0.891 . S
C1235 C974 1.331 . S
C1249 C229 1.032 . S
C1255 C942 1.212 . S
C1275 C1031 1.415 . S
C1269 C625 1.145 . S
C1295 C975 1.340 . S
C1289 C1 1.064 . S
C1309 C511 1.164 . S
C1315 C943 1.532 . S
C1329 C257 1.182 . S
C1335 C1030 1.435 . S
C1355 C998 1.504 . S
C1349 C581 0.933 . S
C1369 C713 1.122 . S
C1375 C1025 1.459 . S
C1389 C485 1.166 . S
C1395 C929 1.438 . S
C1409 C799 1.081 . S
C1415 C952 1.367 . S
C1429 C571 1.146 . S
C1435 C984 1.374 . S
C1455 C939 1.244 . S
C1449 C685 1.089 . S
C1469 C457 1.078 . S
C1475 C968 1.224 . S
C1489 C827 1.073 . S
C1495 C1000 1.276 . S
C1515 C1035 1.308 . S
C1509 C599 1.139 . S
C1529 C695 0.823 . S
C1535 C935 1.351 . S
C1549 C125 0.876 . S
C1555 C1038 1.334 . S
C1569 C853 1.136 . S
C1575 C1006 1.397 . S
C1595 C967 1.412 . S
C1589 C397 1.161 . S
C1615 C1039 1.555 . S
C1609 C739 1.194 . S
C1635 C1007 1.548 . S
C1629 C169 1.186 . S
C1655 C966 1.493 . S
C1649 C809 0.861 . S
C1675 C934 1.516 . S
C1669 C353 0.871 . S
