# Generated by pormake.
# Topology ant, (3,6)-cn, num edge types: 1
# Building blocks:
#     Node 0, Type 0, BuildingBlock: PAMTOO_clean_linker_0, # of connection points: 3
#     Node 1, Type 0, BuildingBlock: PAMTOO_clean_linker_0, # of connection points: 3
#     Node 2, Type 0, BuildingBlock: PAMTOO_clean_linker_0, # of connection points: 3
#     Node 3, Type 0, BuildingBlock: PAMTOO_clean_linker_0, # of connection points: 3
#     Node 4, Type 0, BuildingBlock: PAMTOO_clean_linker_0, # of connection points: 3
#     Node 5, Type 0, BuildingBlock: PAMTOO_clean_linker_0, # of connection points: 3
#     Node 6, Type 0, BuildingBlock: PAMTOO_clean_linker_0, # of connection points: 3
#     Node 7, Type 0, BuildingBlock: PAMTOO_clean_linker_0, # of connection points: 3
#     Node 8, Type 1, BuildingBlock: MIDCAF_clean_sbu_0, # of connection points: 6
#     Node 9, Type 1, BuildingBlock: MIDCAF_clean_sbu_0, # of connection points: 6
#     Node 10, Type 1, BuildingBlock: MIDCAF_clean_sbu_0, # of connection points: 6
#     Node 11, Type 1, BuildingBlock: MIDCAF_clean_sbu_0, # of connection points: 6
#     Edge 12, Type (0, 1), BuildingBlock: OJICUG_clean_linker_0, # of connection points: 2
#     Edge 13, Type (0, 1), BuildingBlock: OJICUG_clean_linker_0, # of connection points: 2
#     Edge 14, Type (0, 1), BuildingBlock: OJICUG_clean_linker_0, # of connection points: 2
#     Edge 15, Type (0, 1), BuildingBlock: OJICUG_clean_linker_0, # of connection points: 2
#     Edge 16, Type (0, 1), BuildingBlock: OJICUG_clean_linker_0, # of connection points: 2
#     Edge 17, Type (0, 1), BuildingBlock: OJICUG_clean_linker_0, # of connection points: 2
#     Edge 18, Type (0, 1), BuildingBlock: OJICUG_clean_linker_0, # of connection points: 2
#     Edge 19, Type (0, 1), BuildingBlock: OJICUG_clean_linker_0, # of connection points: 2
#     Edge 20, Type (0, 1), BuildingBlock: OJICUG_clean_linker_0, # of connection points: 2
#     Edge 21, Type (0, 1), BuildingBlock: OJICUG_clean_linker_0, # of connection points: 2
#     Edge 22, Type (0, 1), BuildingBlock: OJICUG_clean_linker_0, # of connection points: 2
#     Edge 23, Type (0, 1), BuildingBlock: OJICUG_clean_linker_0, # of connection points: 2
#     Edge 24, Type (0, 1), BuildingBlock: OJICUG_clean_linker_0, # of connection points: 2
#     Edge 25, Type (0, 1), BuildingBlock: OJICUG_clean_linker_0, # of connection points: 2
#     Edge 26, Type (0, 1), BuildingBlock: OJICUG_clean_linker_0, # of connection points: 2
#     Edge 27, Type (0, 1), BuildingBlock: OJICUG_clean_linker_0, # of connection points: 2
#     Edge 28, Type (0, 1), BuildingBlock: OJICUG_clean_linker_0, # of connection points: 2
#     Edge 29, Type (0, 1), BuildingBlock: OJICUG_clean_linker_0, # of connection points: 2
#     Edge 30, Type (0, 1), BuildingBlock: OJICUG_clean_linker_0, # of connection points: 2
#     Edge 31, Type (0, 1), BuildingBlock: OJICUG_clean_linker_0, # of connection points: 2
#     Edge 32, Type (0, 1), BuildingBlock: OJICUG_clean_linker_0, # of connection points: 2
#     Edge 33, Type (0, 1), BuildingBlock: OJICUG_clean_linker_0, # of connection points: 2
#     Edge 34, Type (0, 1), BuildingBlock: OJICUG_clean_linker_0, # of connection points: 2
#     Edge 35, Type (0, 1), BuildingBlock: OJICUG_clean_linker_0, # of connection points: 2
# Relax obj value: 0.057
# Max RMSD: 0.148
# Mean RMSD: 0.089
data_MOF--net-ant--node1-MIDCAF_clean_sbu_0--node2-PAMTOO_clean_linker_0--edge1-OJICUG_clean_linker_0
_symmetry_space_group_name_H-M    P1
_symmetry_Int_Tables_number       1
_symmetry_cell_setting            triclinic
loop_
_symmetry_equiv_pos_as_xyz
'x, y, z'
_cell_length_a     20.625173
_cell_length_b     20.523489
_cell_length_c     52.007648
_cell_angle_alpha  86.258835
_cell_angle_beta   100.80262
_cell_angle_gamma 90.207229
loop_
_atom_site_label
_atom_site_type_symbol
_atom_site_fract_x
_atom_site_fract_y
_atom_site_fract_z
_atom_type_partial_charge
H0 H 0.27793 0.07494 0.02461 0.0
H1 H 0.20656 0.27251 0.01549 0.0
H2 H 0.33202 0.20451 0.0874 0.0
H3 H 0.29331 0.3651 0.03315 0.0
C4 C 0.29903 0.35843 0.05489 0.0
O5 O 0.26396 0.30446 0.06155 0.0
H6 H 0.35227 0.35109 0.06346 0.0
C7 C 0.27776 0.12268 0.03236 0.0
C8 C 0.31057 0.13283 0.05812 0.0
C9 C 0.2398 0.17238 0.01707 0.0
C10 C 0.23565 0.23346 0.02719 0.0
C11 C 0.27027 0.24552 0.05211 0.0
C12 C 0.30775 0.1954 0.06764 0.0
H13 H 0.20851 0.83495 0.26128 0.0
H14 H 0.99794 0.81787 0.25032 0.0
H15 H 0.10861 0.86675 0.32516 0.0
H16 H 0.9985 0.76939 0.32611 0.0
C17 C 0.96448 0.78822 0.30799 0.0
O18 O 0.98969 0.84499 0.29806 0.0
H19 H 0.96044 0.75063 0.29327 0.0
C20 C 0.16328 0.84035 0.26878 0.0
C21 C 0.16641 0.85524 0.29496 0.0
C22 C 0.10312 0.82637 0.25275 0.0
C23 C 0.04455 0.82979 0.26248 0.0
C24 C 0.04641 0.84495 0.28852 0.0
C25 C 0.10733 0.85714 0.30484 0.0
H26 H 0.74124 0.55363 0.53405 0.0
H27 H 0.70368 0.75672 0.51188 0.0
H28 H 0.753 0.69313 0.59353 0.0
H29 H 0.62893 0.79348 0.56785 0.0
C30 C 0.66127 0.82467 0.55736 0.0
O31 O 0.72225 0.79488 0.55947 0.0
H32 H 0.63696 0.83084 0.53635 0.0
C33 C 0.73975 0.60345 0.53971 0.0
C34 C 0.75217 0.61701 0.56636 0.0
C35 C 0.72111 0.65328 0.52024 0.0
C36 C 0.71734 0.7178 0.52705 0.0
C37 C 0.72849 0.73233 0.55338 0.0
C38 C 0.74537 0.68185 0.57313 0.0
H39 H 0.70773 0.34873 0.76711 0.0
H40 H 0.49725 0.32792 0.75437 0.0
H41 H 0.59963 0.41046 0.82458 0.0
H42 H 0.49433 0.31027 0.83062 0.0
C43 C 0.46039 0.32175 0.81157 0.0
O44 O 0.4836 0.37513 0.79855 0.0
H45 H 0.45908 0.27855 0.79959 0.0
C46 C 0.66113 0.35722 0.77323 0.0
C47 C 0.66088 0.38517 0.7971 0.0
C48 C 0.60284 0.33558 0.75797 0.0
C49 C 0.54261 0.34512 0.76591 0.0
C50 C 0.54138 0.37209 0.78993 0.0
C51 C 0.60058 0.39165 0.80567 0.0
H52 H 0.07988 0.89088 0.95039 0.0
H53 H 0.04937 0.68907 0.93369 0.0
H54 H 0.99757 0.83921 0.87204 0.0
H55 H 0.90776 0.70511 0.86183 0.0
C56 C 0.93813 0.68563 0.8807 0.0
O57 O 0.99999 0.71367 0.88376 0.0
H58 H 0.91186 0.69775 0.89668 0.0
C59 C 0.06416 0.85417 0.93651 0.0
C60 C 0.03915 0.87373 0.91014 0.0
C61 C 0.06731 0.78763 0.94528 0.0
C62 C 0.04701 0.74037 0.92723 0.0
C63 C 0.02064 0.75934 0.901 0.0
C64 C 0.01693 0.82559 0.89251 0.0
H65 H 0.58345 0.82634 0.19703 0.0
H66 H 0.79478 0.8112 0.21167 0.0
H67 H 0.68755 0.84461 0.13259 0.0
H68 H 0.79889 0.74901 0.14141 0.0
C69 C 0.83332 0.77288 0.15703 0.0
O70 O 0.80547 0.83026 0.1625 0.0
H71 H 0.84283 0.7393 0.17505 0.0
C72 C 0.62945 0.83063 0.18979 0.0
C73 C 0.62801 0.83967 0.16277 0.0
C74 C 0.68906 0.81938 0.20736 0.0
C75 C 0.74852 0.82105 0.19819 0.0
C76 C 0.748 0.83134 0.17127 0.0
C77 C 0.68778 0.83988 0.15348 0.0
H78 H 0.60617 0.34598 0.45087 0.0
H79 H 0.56654 0.14642 0.43239 0.0
H80 H 0.49922 0.30185 0.37465 0.0
H81 H 0.40863 0.1642 0.36581 0.0
C82 C 0.4433 0.14561 0.38377 0.0
O83 O 0.50379 0.1755 0.38442 0.0
H84 H 0.42116 0.1571 0.40094 0.0
C85 C 0.58598 0.3107 0.43696 0.0
C86 C 0.55278 0.33293 0.4118 0.0
C87 C 0.59065 0.24345 0.44473 0.0
C88 C 0.5624 0.19824 0.42688 0.0
C89 C 0.52879 0.21959 0.40182 0.0
C90 C 0.52404 0.28649 0.39435 0.0
H91 H 0.06417 0.3417 0.69418 0.0
H92 H 0.2732 0.31068 0.70403 0.0
H93 H 0.15263 0.3102 0.62726 0.0
H94 H 0.25239 0.20559 0.64134 0.0
C95 C 0.29179 0.23233 0.654 0.0
O96 O 0.27277 0.29658 0.65453 0.0
H97 H 0.29971 0.20823 0.67417 0.0
C98 C 0.10769 0.33745 0.68546 0.0
C99 C 0.10042 0.32943 0.65846 0.0
C100 C 0.16964 0.33031 0.70197 0.0
C101 C 0.22556 0.31886 0.69129 0.0
C102 C 0.21937 0.31277 0.66432 0.0
C103 C 0.1571 0.31825 0.6479 0.0
Zn104 Zn 0.27767 0.67174 0.14271 0.0
Zn105 Zn 0.1214 0.87762 0.06826 0.0
Zn106 Zn 0.21672 0.7469 0.10681 0.0
C107 C 0.15975 0.74234 0.05626 0.0
C108 C 0.26102 0.90075 0.09359 0.0
O109 O 0.16441 0.74773 0.1396 0.0
O110 O 0.23304 0.69438 0.17163 0.0
C111 C 0.23927 0.59319 0.10198 0.0
O112 O 0.19261 0.69558 0.06974 0.0
O113 O 0.1546 0.79134 0.06864 0.0
O114 O 0.20458 0.92284 0.08226 0.0
O115 O 0.27241 0.8397 0.10119 0.0
O116 O 0.25567 0.58858 0.12666 0.0
O117 O 0.22588 0.64988 0.08987 0.0
O118 O 0.31435 0.7909 0.11572 0.0
O119 O 0.3666 0.70807 0.14005 0.0
C120 C 0.36818 0.76313 0.12784 0.0
O121 O 0.11847 0.77716 0.11693 0.0
O122 O 0.0607 0.86093 0.09321 0.0
C123 C 0.18103 0.72788 0.1639 0.0
C124 C 0.06701 0.8157 0.11146 0.0
Zn125 Zn 0.50396 0.68612 0.3244 0.0
Zn126 Zn 0.66165 0.8227 0.38835 0.0
Zn127 Zn 0.57987 0.75302 0.35921 0.0
C128 C 0.54303 0.88745 0.38298 0.0
C129 C 0.72323 0.81552 0.34835 0.0
O130 O 0.56913 0.65093 0.37724 0.0
O131 O 0.50685 0.60215 0.34483 0.0
C132 C 0.42699 0.7893 0.33568 0.0
O133 O 0.52631 0.84179 0.36716 0.0
O134 O 0.60051 0.88835 0.39652 0.0
O135 O 0.72835 0.85079 0.36757 0.0
O136 O 0.67251 0.778 0.343 0.0
O137 O 0.42361 0.73976 0.32236 0.0
O138 O 0.4819 0.80443 0.35033 0.0
O139 O 0.62165 0.75453 0.32354 0.0
O140 O 0.55469 0.69657 0.29561 0.0
C141 C 0.60538 0.73142 0.30083 0.0
O142 O 0.61052 0.68974 0.395 0.0
O143 O 0.69057 0.75105 0.41486 0.0
C144 C 0.53866 0.59977 0.36809 0.0
C145 C 0.65849 0.69859 0.41413 0.0
Zn146 Zn 0.61844 0.29846 0.58789 0.0
Zn147 Zn 0.75349 0.15162 0.64462 0.0
Zn148 Zn 0.68595 0.22418 0.61231 0.0
C149 C 0.83964 0.23997 0.62778 0.0
C150 C 0.6968 0.07373 0.60537 0.0
O151 O 0.58991 0.23283 0.62627 0.0
O152 O 0.52887 0.26431 0.58821 0.0
C153 C 0.7086 0.37399 0.61129 0.0
O154 O 0.78418 0.27021 0.62022 0.0
O155 O 0.84033 0.18129 0.63676 0.0
O156 O 0.71767 0.07007 0.62985 0.0
O157 O 0.68764 0.13042 0.59295 0.0
O158 O 0.64664 0.37472 0.60892 0.0
O159 O 0.73762 0.31937 0.60937 0.0
O160 O 0.66501 0.18404 0.57347 0.0
O161 O 0.6585 0.28537 0.55666 0.0
C162 C 0.66501 0.22532 0.55377 0.0
O163 O 0.63981 0.22266 0.64707 0.0
O164 O 0.72387 0.18226 0.67626 0.0
C165 C 0.53237 0.24283 0.61169 0.0
C166 C 0.66812 0.21037 0.67115 0.0
Zn167 Zn 0.99452 0.22886 0.82248 0.0
Zn168 Zn 0.15386 0.35997 0.88971 0.0
Zn169 Zn 0.07232 0.29189 0.85808 0.0
C170 C 0.14448 0.23447 0.91388 0.0
C171 C 0.03645 0.42704 0.8822 0.0
O172 O 0.11502 0.2942 0.82239 0.0
O173 O 0.04674 0.23772 0.79427 0.0
C174 C 0.02736 0.13955 0.86526 0.0
O175 O 0.10083 0.22588 0.89326 0.0
O176 O 0.17529 0.28752 0.91649 0.0
O177 O 0.09338 0.42819 0.89617 0.0
O178 O 0.02035 0.3809 0.86656 0.0
O179 O 0.99428 0.14421 0.84221 0.0
O180 O 0.05981 0.18926 0.8748 0.0
O181 O 0.97546 0.34443 0.84987 0.0
O182 O 0.91591 0.2851 0.82014 0.0
C183 C 0.92054 0.33263 0.83456 0.0
O184 O 0.16449 0.31717 0.8423 0.0
O185 O 0.22296 0.38347 0.8693 0.0
C186 C 0.09836 0.27111 0.79969 0.0
C187 C 0.21648 0.35218 0.84891 0.0
C188 C 0.26372 0.41576 0.09135 0.0
C189 C 0.27456 0.41843 0.0655 0.0
H190 H 0.24127 0.46831 0.12262 0.0
C191 C 0.26743 0.47871 0.05064 0.0
H192 H 0.26958 0.3702 0.10334 0.0
C193 C 0.25148 0.53564 0.06176 0.0
C194 C 0.24302 0.53311 0.08798 0.0
H195 H 0.27624 0.48212 0.03072 0.0
H196 H 0.24922 0.58184 0.05032 0.0
C197 C 0.24753 0.47217 0.10235 0.0
C198 C 0.88528 0.85639 0.3271 0.0
C199 C 0.89755 0.80012 0.31474 0.0
H200 H 0.81946 0.90631 0.34657 0.0
C201 C 0.8494 0.7511 0.31166 0.0
H202 H 0.922 0.89435 0.33024 0.0
C203 C 0.7909 0.75748 0.3213 0.0
C204 C 0.77922 0.81314 0.33418 0.0
H205 H 0.85818 0.70659 0.30269 0.0
H206 H 0.75653 0.71732 0.31984 0.0
C207 C 0.82658 0.86305 0.33651 0.0
C208 C 0.72135 0.55471 0.60495 0.0
C209 C 0.76248 0.56115 0.58633 0.0
H210 H 0.67345 0.48832 0.62855 0.0
C211 C 0.80144 0.50726 0.58291 0.0
H212 H 0.69107 0.59531 0.60818 0.0
C213 C 0.79113 0.44564 0.59453 0.0
C214 C 0.74173 0.43751 0.60965 0.0
H215 H 0.83468 0.51134 0.56905 0.0
H216 H 0.81585 0.40366 0.58903 0.0
C217 C 0.71113 0.49323 0.61657 0.0
C218 C 0.74504 0.35806 0.83735 0.0
C219 C 0.72578 0.39688 0.81392 0.0
H220 H 0.82554 0.30829 0.86312 0.0
C221 C 0.77453 0.43071 0.80289 0.0
H222 H 0.70859 0.33096 0.8461 0.0
C223 C 0.84144 0.41766 0.81264 0.0
C224 C 0.86032 0.37129 0.8337 0.0
H225 H 0.76087 0.46084 0.78479 0.0
H226 H 0.87768 0.43753 0.80172 0.0
C227 C 0.81208 0.34515 0.84712 0.0
C228 C 0.9691 0.57737 0.90502 0.0
C229 C 0.94661 0.61284 0.88106 0.0
H230 H 0.01462 0.48906 0.92411 0.0
C231 C 0.94255 0.58158 0.85755 0.0
H232 H 0.97251 0.60043 0.92336 0.0
C233 C 0.96499 0.51712 0.85799 0.0
C234 C 0.99321 0.48398 0.88191 0.0
H235 H 0.92585 0.60824 0.83882 0.0
H236 H 0.96596 0.4956 0.83959 0.0
C237 C 0.99272 0.51365 0.90544 0.0
C238 C 0.94505 0.73663 0.14997 0.0
C239 C 0.89712 0.78627 0.1476 0.0
H240 H 0.0365 0.7065 0.14036 0.0
C241 C 0.90712 0.84611 0.13429 0.0
H242 H 0.93777 0.68959 0.15969 0.0
C243 C 0.96392 0.85626 0.12376 0.0
C244 C 0.01149 0.80635 0.12568 0.0
H245 H 0.87056 0.88492 0.13159 0.0
H246 H 0.96961 0.90293 0.11347 0.0
C247 C 1.00171 0.74648 0.13907 0.0
C248 C 0.48902 0.43003 0.38825 0.0
C249 C 0.54761 0.40425 0.4037 0.0
H250 H 0.44029 0.51221 0.36554 0.0
C251 C 0.60137 0.44666 0.41034 0.0
H252 H 0.44603 0.39961 0.38335 0.0
C253 C 0.59769 0.51222 0.40036 0.0
C254 C 0.54027 0.53628 0.38354 0.0
H255 H 0.64737 0.42847 0.42219 0.0
H256 H 0.64089 0.54266 0.40449 0.0
C257 C 0.48553 0.49491 0.37825 0.0
C258 C 0.02133 0.25975 0.63047 0.0
C259 C 0.03332 0.31789 0.64332 0.0
H260 H 0.94956 0.18968 0.61537 0.0
C261 C 0.97917 0.3567 0.64612 0.0
H262 H 0.06179 0.22841 0.62822 0.0
C263 C 0.91447 0.33455 0.63849 0.0
C264 C 0.90339 0.27296 0.62835 0.0
H265 H 0.98709 0.40181 0.65593 0.0
H266 H 0.87386 0.36273 0.64271 0.0
C267 C 0.95702 0.23728 0.62327 0.0
C268 C 0.35261 0.2543 0.61701 0.0
C269 C 0.35383 0.23039 0.64293 0.0
H270 H 0.40788 0.27693 0.58687 0.0
C271 C 0.4136 0.20705 0.65833 0.0
H272 H 0.30694 0.27234 0.60481 0.0
C273 C 0.4716 0.20884 0.64801 0.0
C274 C 0.47089 0.23509 0.62233 0.0
H275 H 0.41556 0.18803 0.67839 0.0
H276 H 0.51689 0.19032 0.66023 0.0
C277 C 0.41046 0.25674 0.60681 0.0
C278 C 0.51024 0.87468 0.14807 0.0
C279 C 0.56331 0.83461 0.14515 0.0
H280 H 0.40502 0.88361 0.1441 0.0
C281 C 0.55029 0.77828 0.13125 0.0
H282 H 0.51926 0.91795 0.15904 0.0
C283 C 0.48535 0.75799 0.12336 0.0
C284 C 0.43258 0.7946 0.12865 0.0
H285 H 0.59023 0.74613 0.1291 0.0
H286 H 0.47658 0.71112 0.11492 0.0
C287 C 0.44505 0.85502 0.13962 0.0
C288 C 0.38106 0.39101 0.82978 0.0
C289 C 0.39258 0.33527 0.817 0.0
H290 H 0.31519 0.44103 0.8492 0.0
C291 C 0.34256 0.28844 0.81227 0.0
H292 H 0.41915 0.42735 0.83395 0.0
C293 C 0.2832 0.2959 0.82115 0.0
C294 C 0.27264 0.3504 0.83488 0.0
H295 H 0.35056 0.24448 0.8028 0.0
H296 H 0.2476 0.25687 0.81876 0.0
C297 C 0.3216 0.39866 0.83852 0.0
C298 C 0.24857 0.8151 0.33451 0.0
C299 C 0.23269 0.85828 0.31212 0.0
H300 H 0.32543 0.76028 0.36031 0.0
C301 C 0.28418 0.8922 0.30288 0.0
H302 H 0.21018 0.78782 0.34195 0.0
C303 C 0.35021 0.87662 0.31353 0.0
C304 C 0.36573 0.82735 0.3337 0.0
H305 H 0.27336 0.92598 0.2857 0.0
H306 H 0.38859 0.89776 0.30404 0.0
C307 C 0.31466 0.79947 0.34511 0.0
C308 C 0.66493 0.94895 0.55328 0.0
C309 C 0.66933 0.89009 0.56908 0.0
H310 H 0.66949 0.05389 0.55222 0.0
C311 C 0.68206 0.89245 0.59636 0.0
H312 H 0.65556 0.94819 0.5321 0.0
C313 C 0.68975 0.95222 0.60776 0.0
C314 C 0.68533 1.01153 0.59218 0.0
H315 H 0.68601 0.84779 0.6089 0.0
H316 H 0.69951 0.95165 0.62898 0.0
C317 C 0.67261 1.00932 0.56475 0.0
C318 C 0.31375 0.06619 0.10011 0.0
C319 C 0.3349 0.0748 0.07595 0.0
H320 H 0.27696 0.99791 0.12653 0.0
C321 C 0.36037 0.02022 0.06591 0.0
H322 H 0.29493 0.10697 0.10879 0.0
C323 C 0.34949 0.95726 0.07616 0.0
C324 C 0.3138 0.94911 0.09654 0.0
H325 H 0.37952 0.02556 0.04787 0.0
H326 H 0.35852 0.91598 0.0653 0.0
C327 C 0.30383 1.0033 0.1105 0.0
C328 C 0.47846 0.03726 0.40745 0.0
C329 C 0.45316 0.07294 0.3838 0.0
H330 H 0.52579 0.94892 0.42567 0.0
C331 C 0.44687 0.04207 0.3601 0.0
H332 H 0.48376 0.05999 0.42594 0.0
C333 C 0.46948 0.97779 0.35998 0.0
C334 C 0.49999 0.94429 0.3835 0.0
H335 H 0.42806 0.06891 0.34159 0.0
H336 H 0.4686 0.95669 0.34137 0.0
C337 C 0.50203 0.97367 0.40729 0.0
C338 C 0.08721 0.9872 0.90864 0.0
C339 C 0.03465 0.94418 0.90104 0.0
H340 H 0.1267 0.08312 0.90312 0.0
C341 C 0.97792 0.96843 0.88389 0.0
H342 H 0.13176 0.96987 0.92178 0.0
C343 C 0.97489 0.03297 0.87356 0.0
C344 C 0.02845 0.07526 0.88007 0.0
H345 H 0.93599 0.93716 0.87812 0.0
H346 H 0.93092 0.04935 0.85982 0.0
C347 C 0.0842 0.05222 0.89817 0.0
C348 C 0.24458 0.14802 0.97133 0.0
C349 C 0.20659 0.16256 -0.01004 0.0
H350 H 0.25206 0.15816 0.93077 0.0
C351 C 0.13989 0.18023 0.98161 0.0
H352 H 0.2961 0.13418 0.9774 0.0
C353 C 0.11422 0.19206 0.95492 0.0
C354 C 0.15554 0.18755 0.93657 0.0
H355 H 0.10965 0.191 -0.00424 0.0
H356 H 0.06529 0.21345 0.94904 0.0
C357 C 0.21921 0.16098 0.94468 0.0
C358 C 0.10485 0.83975 0.20484 0.0
C359 C 0.10472 0.79873 0.22747 0.0
H360 H 0.12862 0.84865 0.16636 0.0
C361 C 0.12002 0.73226 0.22741 0.0
H362 H 0.0943 0.89144 0.20478 0.0
C363 C 0.14018 0.70797 0.20571 0.0
C364 C 0.14468 0.74971 0.18366 0.0
H365 H 0.12104 0.70018 0.24488 0.0
H366 H 0.15585 0.65738 0.20674 0.0
C367 C 0.12436 0.81523 0.18294 0.0
C368 C 0.75278 0.63522 0.47766 0.0
C369 C 0.70326 0.6388 0.49258 0.0
H370 H 0.7759 0.64883 0.43929 0.0
C371 C 0.63674 0.6414 0.48009 0.0
H372 H 0.80431 0.63311 0.4871 0.0
C373 C 0.62032 0.64876 0.45275 0.0
C374 C 0.67058 0.6553 0.438 0.0
H375 H 0.59802 0.64404 0.49149 0.0
H376 H 0.56933 0.65854 0.44359 0.0
C377 C 0.73645 0.64344 0.45039 0.0
C378 C 0.64789 0.24072 0.73974 0.0
C379 C 0.6077 0.29686 0.73548 0.0
H380 H 0.69733 0.16846 0.7226 0.0
C381 C 0.57968 0.31918 0.70976 0.0
H382 H 0.66956 0.22247 0.75949 0.0
C383 C 0.59592 0.28846 0.6885 0.0
C384 C 0.63988 0.23479 0.69282 0.0
H385 H 0.54873 0.36259 0.70613 0.0
H386 H 0.57722 0.30908 0.66882 0.0
C387 C 0.66375 0.20993 0.71863 0.0
C388 C 0.05798 0.80117 -0.00849 0.0
C389 C 0.08703 0.76865 0.97365 0.0
H390 H 0.05682 0.81619 0.03151 0.0
C391 C 0.13518 0.72003 0.9832 0.0
H392 H 0.01953 0.8375 -0.01529 0.0
C393 C 0.15695 0.70759 0.01036 0.0
C394 C 0.13036 0.74343 0.02809 0.0
H395 H 0.15791 0.6939 0.96972 0.0
H396 H 0.19661 0.67274 0.01738 0.0
C397 C 0.07919 0.7886 0.01834 0.0
C398 C 0.68412 0.83741 0.25374 0.0
C399 C 0.68602 0.7943 0.23411 0.0
H400 H 0.65714 0.85041 0.29091 0.0
C401 C 0.67021 0.72842 0.23821 0.0
H402 H 0.69501 0.88866 0.25058 0.0
C403 C 0.64775 0.70677 0.26089 0.0
C404 C 0.64162 0.75067 0.27985 0.0
H405 H 0.67055 0.69489 0.22298 0.0
H406 H 0.632 0.6566 0.263 0.0
C407 C 0.66235 0.81553 0.27665 0.0
C408 C 0.58841 0.17832 0.48721 0.0
C409 C 0.62154 0.22162 0.47205 0.0
H410 H 0.57838 0.14336 0.52611 0.0
C411 C 0.68002 0.25074 0.48418 0.0
H412 H 0.54324 0.15505 0.47834 0.0
C413 C 0.70033 0.24335 0.51134 0.0
C414 C 0.66263 0.20669 0.52683 0.0
H415 H 0.70733 0.28318 0.47292 0.0
H416 H 0.74172 0.27177 0.52047 0.0
C417 C 0.60889 0.17091 0.51452 0.0
C418 C 0.15611 0.3687 0.74519 0.0
C419 C 0.17166 0.31851 0.73027 0.0
H420 H 0.12292 0.39233 0.78023 0.0
C421 C 0.17446 0.25363 0.74075 0.0
H422 H 0.15284 0.41889 0.73717 0.0
C423 C 0.15536 0.23836 0.76472 0.0
C424 C 0.13522 0.28802 0.77879 0.0
H425 H 0.18545 0.21427 0.72928 0.0
H426 H 0.15235 0.18757 0.7715 0.0
C427 C 0.13901 0.35352 0.76965 0.0
loop_
_geom_bond_atom_site_label_1
_geom_bond_atom_site_label_2
_geom_bond_distance
_geom_bond_site_symmetry_2
_ccdc_geom_bond_type
H0 C7 0.929 . S
H1 C10 0.930 . S
H2 C12 0.929 . S
H3 C4 0.969 . S
C4 H3 0.969 . S
C4 O5 1.550 . S
C4 H6 0.973 . S
O5 C4 1.550 . S
O5 C11 1.412 . S
H6 C4 0.973 . S
C7 H0 0.929 . S
C7 C8 1.400 . S
C7 C9 1.364 . S
C8 C7 1.400 . S
C8 C12 1.377 . S
C9 C7 1.364 . S
C9 C10 1.374 . S
C10 H1 0.930 . S
C10 C9 1.374 . S
C10 C11 1.383 . S
C11 O5 1.412 . S
C11 C10 1.383 . S
C11 C12 1.394 . S
C12 H2 0.929 . S
C12 C8 1.377 . S
C12 C11 1.394 . S
H13 C20 0.929 . S
H14 C23 0.930 . S
H15 C25 0.929 . S
H16 C17 0.969 . S
C17 H16 0.969 . S
C17 O18 1.550 1_655 S
C17 H19 0.973 . S
O18 C17 1.550 1_455 S
O18 C24 1.412 . S
H19 C17 0.973 . S
C20 H13 0.929 . S
C20 C21 1.400 . S
C20 C22 1.364 . S
C21 C20 1.400 . S
C21 C25 1.377 . S
C22 C20 1.364 . S
C22 C23 1.374 . S
C23 H14 0.930 . S
C23 C22 1.374 . S
C23 C24 1.383 . S
C24 O18 1.412 . S
C24 C23 1.383 . S
C24 C25 1.394 . S
C25 H15 0.929 . S
C25 C21 1.377 . S
C25 C24 1.394 . S
H26 C33 0.929 . S
H27 C36 0.930 . S
H28 C38 0.929 . S
H29 C30 0.969 . S
C30 H29 0.969 . S
C30 O31 1.550 . S
C30 H32 0.973 . S
O31 C30 1.550 . S
O31 C37 1.412 . S
H32 C30 0.973 . S
C33 H26 0.929 . S
C33 C34 1.400 . S
C33 C35 1.364 . S
C34 C33 1.400 . S
C34 C38 1.377 . S
C35 C33 1.364 . S
C35 C36 1.374 . S
C36 H27 0.930 . S
C36 C35 1.374 . S
C36 C37 1.383 . S
C37 O31 1.412 . S
C37 C36 1.383 . S
C37 C38 1.394 . S
C38 H28 0.929 . S
C38 C34 1.377 . S
C38 C37 1.394 . S
H39 C46 0.929 . S
H40 C49 0.930 . S
H41 C51 0.929 . S
H42 C43 0.969 . S
C43 H42 0.969 . S
C43 O44 1.550 . S
C43 H45 0.973 . S
O44 C43 1.550 . S
O44 C50 1.412 . S
H45 C43 0.973 . S
C46 H39 0.929 . S
C46 C47 1.400 . S
C46 C48 1.364 . S
C47 C46 1.400 . S
C47 C51 1.377 . S
C48 C46 1.364 . S
C48 C49 1.374 . S
C49 H40 0.930 . S
C49 C48 1.374 . S
C49 C50 1.383 . S
C50 O44 1.412 . S
C50 C49 1.383 . S
C50 C51 1.394 . S
C51 H41 0.929 . S
C51 C47 1.377 . S
C51 C50 1.394 . S
H52 C59 0.929 . S
H53 C62 0.930 . S
H54 C64 0.929 . S
H55 C56 0.969 1_655 S
C56 H55 0.969 1_455 S
C56 O57 1.550 . S
C56 H58 0.973 . S
O57 C56 1.550 . S
O57 C63 1.412 . S
H58 C56 0.973 . S
C59 H52 0.929 . S
C59 C60 1.400 . S
C59 C61 1.364 . S
C60 C59 1.400 . S
C60 C64 1.377 . S
C61 C59 1.364 . S
C61 C62 1.374 . S
C62 H53 0.930 . S
C62 C61 1.374 . S
C62 C63 1.383 . S
C63 O57 1.412 . S
C63 C62 1.383 . S
C63 C64 1.394 . S
C64 H54 0.929 . S
C64 C60 1.377 . S
C64 C63 1.394 . S
H65 C72 0.929 . S
H66 C75 0.930 . S
H67 C77 0.929 . S
H68 C69 0.969 . S
C69 H68 0.969 . S
C69 O70 1.550 . S
C69 H71 0.973 . S
O70 C69 1.550 . S
O70 C76 1.412 . S
H71 C69 0.973 . S
C72 H65 0.929 . S
C72 C73 1.400 . S
C72 C74 1.364 . S
C73 C72 1.400 . S
C73 C77 1.377 . S
C74 C72 1.364 . S
C74 C75 1.374 . S
C75 H66 0.930 . S
C75 C74 1.374 . S
C75 C76 1.383 . S
C76 O70 1.412 . S
C76 C75 1.383 . S
C76 C77 1.394 . S
C77 H67 0.929 . S
C77 C73 1.377 . S
C77 C76 1.394 . S
H78 C85 0.929 . S
H79 C88 0.930 . S
H80 C90 0.929 . S
H81 C82 0.969 . S
C82 H81 0.969 . S
C82 O83 1.550 . S
C82 H84 0.973 . S
O83 C82 1.550 . S
O83 C89 1.412 . S
H84 C82 0.973 . S
C85 H78 0.929 . S
C85 C86 1.400 . S
C85 C87 1.364 . S
C86 C85 1.400 . S
C86 C90 1.377 . S
C87 C85 1.364 . S
C87 C88 1.374 . S
C88 H79 0.930 . S
C88 C87 1.374 . S
C88 C89 1.383 . S
C89 O83 1.412 . S
C89 C88 1.383 . S
C89 C90 1.394 . S
C90 H80 0.929 . S
C90 C86 1.377 . S
C90 C89 1.394 . S
H91 C98 0.929 . S
H92 C101 0.930 . S
H93 C103 0.929 . S
H94 C95 0.969 . S
C95 H94 0.969 . S
C95 O96 1.550 . S
C95 H97 0.973 . S
O96 C95 1.550 . S
O96 C102 1.412 . S
H97 C95 0.973 . S
C98 H91 0.929 . S
C98 C99 1.400 . S
C98 C100 1.364 . S
C99 C98 1.400 . S
C99 C103 1.377 . S
C100 C98 1.364 . S
C100 C101 1.374 . S
C101 H92 0.930 . S
C101 C100 1.374 . S
C101 C102 1.383 . S
C102 O96 1.412 . S
C102 C101 1.383 . S
C102 C103 1.394 . S
C103 H93 0.929 . S
C103 C99 1.377 . S
C103 C102 1.394 . S
Zn104 O110 1.920 . S
Zn104 O116 1.898 . S
Zn104 O119 1.905 . S
Zn105 O113 1.905 . S
Zn105 O114 1.898 . S
Zn105 O122 1.920 1_455 S
Zn106 O109 2.080 . S
Zn106 O112 2.114 . S
Zn106 O115 2.120 . S
Zn106 O117 2.120 . S
Zn106 O118 2.114 . S
Zn106 O121 2.080 . S
C107 O112 1.166 . S
C107 O113 1.182 . S
C108 O114 1.167 . S
C108 O115 1.299 . S
O109 Zn106 2.080 . S
O109 C123 1.305 . S
O110 Zn104 1.920 . S
O110 C123 1.234 . S
C111 O116 1.167 . S
C111 O117 1.299 . S
O112 Zn106 2.114 . S
O112 C107 1.166 . S
O113 Zn105 1.905 . S
O113 C107 1.182 . S
O114 Zn105 1.898 . S
O114 C108 1.167 . S
O115 Zn106 2.120 . S
O115 C108 1.299 . S
O116 Zn104 1.898 . S
O116 C111 1.167 . S
O117 Zn106 2.120 . S
O117 C111 1.299 . S
O118 Zn106 2.114 . S
O118 C120 1.166 . S
O119 Zn104 1.905 . S
O119 C120 1.182 . S
C120 O118 1.166 . S
C120 O119 1.182 . S
O121 Zn106 2.080 . S
O121 C124 1.305 . S
O122 Zn105 1.920 1_655 S
O122 C124 1.234 1_655 S
C123 O109 1.305 . S
C123 O110 1.234 . S
C124 O121 1.305 . S
C124 O122 1.234 1_455 S
Zn125 O131 1.920 . S
Zn125 O137 1.898 . S
Zn125 O140 1.905 . S
Zn126 O134 1.905 . S
Zn126 O135 1.898 . S
Zn126 O143 1.920 . S
Zn127 O130 2.080 . S
Zn127 O133 2.114 . S
Zn127 O136 2.120 . S
Zn127 O138 2.120 . S
Zn127 O139 2.114 . S
Zn127 O142 2.080 . S
C128 O133 1.166 . S
C128 O134 1.182 . S
C129 O135 1.167 . S
C129 O136 1.299 . S
O130 Zn127 2.080 . S
O130 C144 1.305 . S
O131 Zn125 1.920 . S
O131 C144 1.234 . S
C132 O137 1.167 . S
C132 O138 1.299 . S
O133 Zn127 2.114 . S
O133 C128 1.166 . S
O134 Zn126 1.905 . S
O134 C128 1.182 . S
O135 Zn126 1.898 . S
O135 C129 1.167 . S
O136 Zn127 2.120 . S
O136 C129 1.299 . S
O137 Zn125 1.898 . S
O137 C132 1.167 . S
O138 Zn127 2.120 . S
O138 C132 1.299 . S
O139 Zn127 2.114 . S
O139 C141 1.166 . S
O140 Zn125 1.905 . S
O140 C141 1.182 . S
C141 O139 1.166 . S
C141 O140 1.182 . S
O142 Zn127 2.080 . S
O142 C145 1.305 . S
O143 Zn126 1.920 . S
O143 C145 1.234 . S
C144 O130 1.305 . S
C144 O131 1.234 . S
C145 O142 1.305 . S
C145 O143 1.234 . S
Zn146 O152 1.920 . S
Zn146 O158 1.898 . S
Zn146 O161 1.905 . S
Zn147 O155 1.905 . S
Zn147 O156 1.898 . S
Zn147 O164 1.920 . S
Zn148 O151 2.080 . S
Zn148 O154 2.114 . S
Zn148 O157 2.120 . S
Zn148 O159 2.120 . S
Zn148 O160 2.114 . S
Zn148 O163 2.080 . S
C149 O154 1.166 . S
C149 O155 1.182 . S
C150 O156 1.167 . S
C150 O157 1.299 . S
O151 Zn148 2.080 . S
O151 C165 1.305 . S
O152 Zn146 1.920 . S
O152 C165 1.234 . S
C153 O158 1.167 . S
C153 O159 1.299 . S
O154 Zn148 2.114 . S
O154 C149 1.166 . S
O155 Zn147 1.905 . S
O155 C149 1.182 . S
O156 Zn147 1.898 . S
O156 C150 1.167 . S
O157 Zn148 2.120 . S
O157 C150 1.299 . S
O158 Zn146 1.898 . S
O158 C153 1.167 . S
O159 Zn148 2.120 . S
O159 C153 1.299 . S
O160 Zn148 2.114 . S
O160 C162 1.166 . S
O161 Zn146 1.905 . S
O161 C162 1.182 . S
C162 O160 1.166 . S
C162 O161 1.182 . S
O163 Zn148 2.080 . S
O163 C166 1.305 . S
O164 Zn147 1.920 . S
O164 C166 1.234 . S
C165 O151 1.305 . S
C165 O152 1.234 . S
C166 O163 1.305 . S
C166 O164 1.234 . S
Zn167 O173 1.920 1_655 S
Zn167 O179 1.898 1_655 S
Zn167 O182 1.905 . S
Zn168 O176 1.905 . S
Zn168 O177 1.898 . S
Zn168 O185 1.920 . S
Zn169 O172 2.080 . S
Zn169 O175 2.114 . S
Zn169 O178 2.120 . S
Zn169 O180 2.120 . S
Zn169 O181 2.114 . S
Zn169 O184 2.080 . S
C170 O175 1.166 . S
C170 O176 1.182 . S
C171 O177 1.167 . S
C171 O178 1.299 . S
O172 Zn169 2.080 . S
O172 C186 1.305 . S
O173 Zn167 1.920 1_455 S
O173 C186 1.234 . S
C174 O179 1.167 . S
C174 O180 1.299 . S
O175 Zn169 2.114 . S
O175 C170 1.166 . S
O176 Zn168 1.905 . S
O176 C170 1.182 . S
O177 Zn168 1.898 . S
O177 C171 1.167 . S
O178 Zn169 2.120 . S
O178 C171 1.299 . S
O179 Zn167 1.898 1_455 S
O179 C174 1.167 . S
O180 Zn169 2.120 . S
O180 C174 1.299 . S
O181 Zn169 2.114 . S
O181 C183 1.166 1_455 S
O182 Zn167 1.905 . S
O182 C183 1.182 . S
C183 O181 1.166 1_655 S
C183 O182 1.182 . S
O184 Zn169 2.080 . S
O184 C187 1.305 . S
O185 Zn168 1.920 . S
O185 C187 1.234 . S
C186 O172 1.305 . S
C186 O173 1.234 . S
C187 O184 1.305 . S
C187 O185 1.234 . S
C188 C189 1.387 . S
C188 H192 0.950 . S
C188 C197 1.390 . S
C189 C188 1.387 . S
C189 C191 1.387 . S
H190 C197 0.950 . S
C191 C189 1.387 . S
C191 C193 1.390 . S
C191 H195 0.950 . S
H192 C188 0.950 . S
C193 C191 1.390 . S
C193 C194 1.387 . S
C193 H196 0.950 . S
C194 C193 1.387 . S
C194 C197 1.387 . S
H195 C191 0.950 . S
H196 C193 0.950 . S
C197 C188 1.390 . S
C197 H190 0.950 . S
C197 C194 1.387 . S
C198 C199 1.387 . S
C198 H202 0.950 . S
C198 C207 1.390 . S
C199 C198 1.387 . S
C199 C201 1.387 . S
H200 C207 0.950 . S
C201 C199 1.387 . S
C201 C203 1.390 . S
C201 H205 0.950 . S
H202 C198 0.950 . S
C203 C201 1.390 . S
C203 C204 1.387 . S
C203 H206 0.950 . S
C204 C203 1.387 . S
C204 C207 1.387 . S
H205 C201 0.950 . S
H206 C203 0.950 . S
C207 C198 1.390 . S
C207 H200 0.950 . S
C207 C204 1.387 . S
C208 C209 1.387 . S
C208 H212 0.950 . S
C208 C217 1.390 . S
C209 C208 1.387 . S
C209 C211 1.387 . S
H210 C217 0.950 . S
C211 C209 1.387 . S
C211 C213 1.390 . S
C211 H215 0.950 . S
H212 C208 0.950 . S
C213 C211 1.390 . S
C213 C214 1.387 . S
C213 H216 0.950 . S
C214 C213 1.387 . S
C214 C217 1.387 . S
H215 C211 0.950 . S
H216 C213 0.950 . S
C217 C208 1.390 . S
C217 H210 0.950 . S
C217 C214 1.387 . S
C218 C219 1.387 . S
C218 H222 0.950 . S
C218 C227 1.390 . S
C219 C218 1.387 . S
C219 C221 1.387 . S
H220 C227 0.950 . S
C221 C219 1.387 . S
C221 C223 1.390 . S
C221 H225 0.950 . S
H222 C218 0.950 . S
C223 C221 1.390 . S
C223 C224 1.387 . S
C223 H226 0.950 . S
C224 C223 1.387 . S
C224 C227 1.387 . S
H225 C221 0.950 . S
H226 C223 0.950 . S
C227 C218 1.390 . S
C227 H220 0.950 . S
C227 C224 1.387 . S
C228 C229 1.387 . S
C228 H232 0.950 . S
C228 C237 1.390 . S
C229 C228 1.387 . S
C229 C231 1.387 . S
H230 C237 0.950 . S
C231 C229 1.387 . S
C231 C233 1.390 . S
C231 H235 0.950 . S
H232 C228 0.950 . S
C233 C231 1.390 . S
C233 C234 1.387 . S
C233 H236 0.950 . S
C234 C233 1.387 . S
C234 C237 1.387 . S
H235 C231 0.950 . S
H236 C233 0.950 . S
C237 C228 1.390 . S
C237 H230 0.950 . S
C237 C234 1.387 . S
C238 C239 1.387 . S
C238 H242 0.950 . S
C238 C247 1.390 . S
C239 C238 1.387 . S
C239 C241 1.387 . S
H240 C247 0.950 . S
C241 C239 1.387 . S
C241 C243 1.390 . S
C241 H245 0.950 . S
H242 C238 0.950 . S
C243 C241 1.390 . S
C243 C244 1.387 . S
C243 H246 0.950 . S
C244 C243 1.387 . S
C244 C247 1.387 . S
H245 C241 0.950 . S
H246 C243 0.950 . S
C247 C238 1.390 . S
C247 H240 0.950 . S
C247 C244 1.387 . S
C248 C249 1.387 . S
C248 H252 0.950 . S
C248 C257 1.390 . S
C249 C248 1.387 . S
C249 C251 1.387 . S
H250 C257 0.950 . S
C251 C249 1.387 . S
C251 C253 1.390 . S
C251 H255 0.950 . S
H252 C248 0.950 . S
C253 C251 1.390 . S
C253 C254 1.387 . S
C253 H256 0.950 . S
C254 C253 1.387 . S
C254 C257 1.387 . S
H255 C251 0.950 . S
H256 C253 0.950 . S
C257 C248 1.390 . S
C257 H250 0.950 . S
C257 C254 1.387 . S
C258 C259 1.387 . S
C258 H262 0.950 . S
C258 C267 1.390 . S
C259 C258 1.387 . S
C259 C261 1.387 . S
H260 C267 0.950 . S
C261 C259 1.387 . S
C261 C263 1.390 . S
C261 H265 0.950 . S
H262 C258 0.950 . S
C263 C261 1.390 . S
C263 C264 1.387 . S
C263 H266 0.950 . S
C264 C263 1.387 . S
C264 C267 1.387 . S
H265 C261 0.950 . S
H266 C263 0.950 . S
C267 C258 1.390 . S
C267 H260 0.950 . S
C267 C264 1.387 . S
C268 C269 1.387 . S
C268 H272 0.950 . S
C268 C277 1.390 . S
C269 C268 1.387 . S
C269 C271 1.387 . S
H270 C277 0.950 . S
C271 C269 1.387 . S
C271 C273 1.390 . S
C271 H275 0.950 . S
H272 C268 0.950 . S
C273 C271 1.390 . S
C273 C274 1.387 . S
C273 H276 0.950 . S
C274 C273 1.387 . S
C274 C277 1.387 . S
H275 C271 0.950 . S
H276 C273 0.950 . S
C277 C268 1.390 . S
C277 H270 0.950 . S
C277 C274 1.387 . S
C278 C279 1.387 . S
C278 H282 0.950 . S
C278 C287 1.390 . S
C279 C278 1.387 . S
C279 C281 1.387 . S
H280 C287 0.950 . S
C281 C279 1.387 . S
C281 C283 1.390 . S
C281 H285 0.950 . S
H282 C278 0.950 . S
C283 C281 1.390 . S
C283 C284 1.387 . S
C283 H286 0.950 . S
C284 C283 1.387 . S
C284 C287 1.387 . S
H285 C281 0.950 . S
H286 C283 0.950 . S
C287 C278 1.390 . S
C287 H280 0.950 . S
C287 C284 1.387 . S
C288 C289 1.387 . S
C288 H292 0.950 . S
C288 C297 1.390 . S
C289 C288 1.387 . S
C289 C291 1.387 . S
H290 C297 0.950 . S
C291 C289 1.387 . S
C291 C293 1.390 . S
C291 H295 0.950 . S
H292 C288 0.950 . S
C293 C291 1.390 . S
C293 C294 1.387 . S
C293 H296 0.950 . S
C294 C293 1.387 . S
C294 C297 1.387 . S
H295 C291 0.950 . S
H296 C293 0.950 . S
C297 C288 1.390 . S
C297 H290 0.950 . S
C297 C294 1.387 . S
C298 C299 1.387 . S
C298 H302 0.950 . S
C298 C307 1.390 . S
C299 C298 1.387 . S
C299 C301 1.387 . S
H300 C307 0.950 . S
C301 C299 1.387 . S
C301 C303 1.390 . S
C301 H305 0.950 . S
H302 C298 0.950 . S
C303 C301 1.390 . S
C303 C304 1.387 . S
C303 H306 0.950 . S
C304 C303 1.387 . S
C304 C307 1.387 . S
H305 C301 0.950 . S
H306 C303 0.950 . S
C307 C298 1.390 . S
C307 H300 0.950 . S
C307 C304 1.387 . S
C308 C309 1.387 . S
C308 H312 0.950 . S
C308 C317 1.390 1_565 S
C309 C308 1.387 . S
C309 C311 1.387 . S
H310 C317 0.950 . S
C311 C309 1.387 . S
C311 C313 1.390 1_565 S
C311 H315 0.950 . S
H312 C308 0.950 . S
C313 C311 1.390 1_545 S
C313 C314 1.387 . S
C313 H316 0.950 . S
C314 C313 1.387 . S
C314 C317 1.387 . S
H315 C311 0.950 . S
H316 C313 0.950 . S
C317 C308 1.390 1_545 S
C317 H310 0.950 . S
C317 C314 1.387 . S
C318 C319 1.387 . S
C318 H322 0.950 . S
C318 C327 1.390 . S
C319 C318 1.387 . S
C319 C321 1.387 . S
H320 C327 0.950 1_565 S
C321 C319 1.387 . S
C321 C323 1.390 1_545 S
C321 H325 0.950 . S
H322 C318 0.950 . S
C323 C321 1.390 1_565 S
C323 C324 1.387 . S
C323 H326 0.950 . S
C324 C323 1.387 . S
C324 C327 1.387 1_565 S
H325 C321 0.950 . S
H326 C323 0.950 . S
C327 C318 1.390 . S
C327 H320 0.950 1_545 S
C327 C324 1.387 1_545 S
C328 C329 1.387 1_565 S
C328 H332 0.950 . S
C328 C337 1.390 . S
C329 C328 1.387 1_545 S
C329 C331 1.387 . S
H330 C337 0.950 . S
C331 C329 1.387 . S
C331 C333 1.390 1_545 S
C331 H335 0.950 . S
H332 C328 0.950 . S
C333 C331 1.390 1_565 S
C333 C334 1.387 . S
C333 H336 0.950 . S
C334 C333 1.387 . S
C334 C337 1.387 . S
H335 C331 0.950 . S
H336 C333 0.950 . S
C337 C328 1.390 . S
C337 H330 0.950 . S
C337 C334 1.387 . S
C338 C339 1.387 . S
C338 H342 0.950 . S
C338 C347 1.390 . S
C339 C338 1.387 . S
C339 C341 1.387 . S
H340 C347 0.950 1_545 S
C341 C339 1.387 . S
C341 C343 1.390 . S
C341 H345 0.950 . S
H342 C338 0.950 . S
C343 C341 1.390 . S
C343 C344 1.387 1_565 S
C343 H346 0.950 . S
C344 C343 1.387 1_545 S
C344 C347 1.387 1_545 S
H345 C341 0.950 . S
H346 C343 0.950 . S
C347 C338 1.390 . S
C347 H340 0.950 1_565 S
C347 C344 1.387 1_565 S
C348 C349 1.387 1_556 S
C348 H352 0.950 . S
C348 C357 1.390 . S
C349 C348 1.387 1_554 S
C349 C351 1.387 . S
H350 C357 0.950 . S
C351 C349 1.387 . S
C351 C353 1.390 1_554 S
C351 H355 0.950 . S
H352 C348 0.950 . S
C353 C351 1.390 1_556 S
C353 C354 1.387 . S
C353 H356 0.950 . S
C354 C353 1.387 . S
C354 C357 1.387 . S
H355 C351 0.950 . S
H356 C353 0.950 . S
C357 C348 1.390 . S
C357 H350 0.950 . S
C357 C354 1.387 . S
C358 C359 1.387 . S
C358 H362 0.950 . S
C358 C367 1.390 . S
C359 C358 1.387 . S
C359 C361 1.387 . S
H360 C367 0.950 . S
C361 C359 1.387 . S
C361 C363 1.390 . S
C361 H365 0.950 . S
H362 C358 0.950 . S
C363 C361 1.390 . S
C363 C364 1.387 . S
C363 H366 0.950 . S
C364 C363 1.387 . S
C364 C367 1.387 . S
H365 C361 0.950 . S
H366 C363 0.950 . S
C367 C358 1.390 . S
C367 H360 0.950 . S
C367 C364 1.387 . S
C368 C369 1.387 . S
C368 H372 0.950 . S
C368 C377 1.390 . S
C369 C368 1.387 . S
C369 C371 1.387 . S
H370 C377 0.950 . S
C371 C369 1.387 . S
C371 C373 1.390 . S
C371 H375 0.950 . S
H372 C368 0.950 . S
C373 C371 1.390 . S
C373 C374 1.387 . S
C373 H376 0.950 . S
C374 C373 1.387 . S
C374 C377 1.387 . S
H375 C371 0.950 . S
H376 C373 0.950 . S
C377 C368 1.390 . S
C377 H370 0.950 . S
C377 C374 1.387 . S
C378 C379 1.387 . S
C378 H382 0.950 . S
C378 C387 1.390 . S
C379 C378 1.387 . S
C379 C381 1.387 . S
H380 C387 0.950 . S
C381 C379 1.387 . S
C381 C383 1.390 . S
C381 H385 0.950 . S
H382 C378 0.950 . S
C383 C381 1.390 . S
C383 C384 1.387 . S
C383 H386 0.950 . S
C384 C383 1.387 . S
C384 C387 1.387 . S
H385 C381 0.950 . S
H386 C383 0.950 . S
C387 C378 1.390 . S
C387 H380 0.950 . S
C387 C384 1.387 . S
C388 C389 1.387 . S
C388 H392 0.950 . S
C388 C397 1.390 1_556 S
C389 C388 1.387 . S
C389 C391 1.387 . S
H390 C397 0.950 . S
C391 C389 1.387 . S
C391 C393 1.390 1_556 S
C391 H395 0.950 . S
H392 C388 0.950 . S
C393 C391 1.390 1_554 S
C393 C394 1.387 . S
C393 H396 0.950 . S
C394 C393 1.387 . S
C394 C397 1.387 . S
H395 C391 0.950 . S
H396 C393 0.950 . S
C397 C388 1.390 1_554 S
C397 H390 0.950 . S
C397 C394 1.387 . S
C398 C399 1.387 . S
C398 H402 0.950 . S
C398 C407 1.390 . S
C399 C398 1.387 . S
C399 C401 1.387 . S
H400 C407 0.950 . S
C401 C399 1.387 . S
C401 C403 1.390 . S
C401 H405 0.950 . S
H402 C398 0.950 . S
C403 C401 1.390 . S
C403 C404 1.387 . S
C403 H406 0.950 . S
C404 C403 1.387 . S
C404 C407 1.387 . S
H405 C401 0.950 . S
H406 C403 0.950 . S
C407 C398 1.390 . S
C407 H400 0.950 . S
C407 C404 1.387 . S
C408 C409 1.387 . S
C408 H412 0.950 . S
C408 C417 1.390 . S
C409 C408 1.387 . S
C409 C411 1.387 . S
H410 C417 0.950 . S
C411 C409 1.387 . S
C411 C413 1.390 . S
C411 H415 0.950 . S
H412 C408 0.950 . S
C413 C411 1.390 . S
C413 C414 1.387 . S
C413 H416 0.950 . S
C414 C413 1.387 . S
C414 C417 1.387 . S
H415 C411 0.950 . S
H416 C413 0.950 . S
C417 C408 1.390 . S
C417 H410 0.950 . S
C417 C414 1.387 . S
C418 C419 1.387 . S
C418 H422 0.950 . S
C418 C427 1.390 . S
C419 C418 1.387 . S
C419 C421 1.387 . S
H420 C427 0.950 . S
C421 C419 1.387 . S
C421 C423 1.390 . S
C421 H425 0.950 . S
H422 C418 0.950 . S
C423 C421 1.390 . S
C423 C424 1.387 . S
C423 H426 0.950 . S
C424 C423 1.387 . S
C424 C427 1.387 . S
H425 C421 0.950 . S
H426 C423 0.950 . S
C427 C418 1.390 . S
C427 H420 0.950 . S
C427 C424 1.387 . S
C194 C111 1.462 . S
C189 C4 1.463 . S
C204 C129 1.380 . S
C199 C17 1.383 . S
C209 C34 1.382 . S
C214 C153 1.288 . S
C224 C183 1.311 . S
C219 C47 1.444 . S
C234 C171 1.344 . S
C229 C56 1.389 . S
C239 C69 1.406 . S
C244 C124 1.411 1_655 S
C249 C86 1.543 . S
C254 C144 1.414 . S
C259 C99 1.443 1_655 S
C264 C149 1.287 . S
C269 C95 1.401 . S
C274 C165 1.406 . S
C279 C73 1.447 . S
C284 C120 1.289 . S
C294 C187 1.398 . S
C289 C43 1.395 . S
C304 C132 1.302 . S
C299 C21 1.440 . S
C309 C30 1.457 . S
C314 C150 1.459 . S
C319 C8 1.388 . S
C324 C108 1.293 . S
C334 C128 1.353 . S
C329 C82 1.390 . S
C344 C174 1.405 . S
C339 C60 1.543 . S
C354 C170 1.327 . S
C349 C9 1.579 . S
C364 C123 1.430 . S
C359 C22 1.486 . S
C369 C35 1.569 . S
C374 C145 1.310 . S
C379 C48 1.501 . S
C384 C166 1.446 . S
C394 C107 1.368 . S
C389 C61 1.525 . S
C399 C74 1.576 . S
C404 C141 1.530 . S
C414 C162 1.385 . S
C409 C87 1.542 . S
C424 C186 1.509 . S
C419 C100 1.555 . S
