# Generated by pormake.
# Topology eea, (3,6)-cn, num edge types: 1
# Building blocks:
#     Node 0, Type 0, BuildingBlock: CUQRIR_clean_linker_1, # of connection points: 3
#     Node 1, Type 0, BuildingBlock: CUQRIR_clean_linker_1, # of connection points: 3
#     Node 2, Type 0, BuildingBlock: CUQRIR_clean_linker_1, # of connection points: 3
#     Node 3, Type 0, BuildingBlock: CUQRIR_clean_linker_1, # of connection points: 3
#     Node 4, Type 0, BuildingBlock: CUQRIR_clean_linker_1, # of connection points: 3
#     Node 5, Type 0, BuildingBlock: CUQRIR_clean_linker_1, # of connection points: 3
#     Node 6, Type 0, BuildingBlock: CUQRIR_clean_linker_1, # of connection points: 3
#     Node 7, Type 0, BuildingBlock: CUQRIR_clean_linker_1, # of connection points: 3
#     Node 8, Type 0, BuildingBlock: CUQRIR_clean_linker_1, # of connection points: 3
#     Node 9, Type 0, BuildingBlock: CUQRIR_clean_linker_1, # of connection points: 3
#     Node 10, Type 0, BuildingBlock: CUQRIR_clean_linker_1, # of connection points: 3
#     Node 11, Type 0, BuildingBlock: CUQRIR_clean_linker_1, # of connection points: 3
#     Node 12, Type 0, BuildingBlock: CUQRIR_clean_linker_1, # of connection points: 3
#     Node 13, Type 0, BuildingBlock: CUQRIR_clean_linker_1, # of connection points: 3
#     Node 14, Type 0, BuildingBlock: CUQRIR_clean_linker_1, # of connection points: 3
#     Node 15, Type 0, BuildingBlock: CUQRIR_clean_linker_1, # of connection points: 3
#     Node 16, Type 0, BuildingBlock: CUQRIR_clean_linker_1, # of connection points: 3
#     Node 17, Type 0, BuildingBlock: CUQRIR_clean_linker_1, # of connection points: 3
#     Node 18, Type 1, BuildingBlock: LEVNOQ01_clean_sbu_1, # of connection points: 6
#     Node 19, Type 1, BuildingBlock: LEVNOQ01_clean_sbu_1, # of connection points: 6
#     Node 20, Type 1, BuildingBlock: LEVNOQ01_clean_sbu_1, # of connection points: 6
#     Node 21, Type 1, BuildingBlock: LEVNOQ01_clean_sbu_1, # of connection points: 6
#     Node 22, Type 1, BuildingBlock: LEVNOQ01_clean_sbu_1, # of connection points: 6
#     Node 23, Type 1, BuildingBlock: LEVNOQ01_clean_sbu_1, # of connection points: 6
#     Node 24, Type 1, BuildingBlock: LEVNOQ01_clean_sbu_1, # of connection points: 6
#     Node 25, Type 1, BuildingBlock: LEVNOQ01_clean_sbu_1, # of connection points: 6
#     Node 26, Type 1, BuildingBlock: LEVNOQ01_clean_sbu_1, # of connection points: 6
#     Edge 27, Type (0, 1), BuildingBlock: XIVTED_clean_linker_0, # of connection points: 2
#     Edge 28, Type (0, 1), BuildingBlock: XIVTED_clean_linker_0, # of connection points: 2
#     Edge 29, Type (0, 1), BuildingBlock: XIVTED_clean_linker_0, # of connection points: 2
#     Edge 30, Type (0, 1), BuildingBlock: XIVTED_clean_linker_0, # of connection points: 2
#     Edge 31, Type (0, 1), BuildingBlock: XIVTED_clean_linker_0, # of connection points: 2
#     Edge 32, Type (0, 1), BuildingBlock: XIVTED_clean_linker_0, # of connection points: 2
#     Edge 33, Type (0, 1), BuildingBlock: XIVTED_clean_linker_0, # of connection points: 2
#     Edge 34, Type (0, 1), BuildingBlock: XIVTED_clean_linker_0, # of connection points: 2
#     Edge 35, Type (0, 1), BuildingBlock: XIVTED_clean_linker_0, # of connection points: 2
#     Edge 36, Type (0, 1), BuildingBlock: XIVTED_clean_linker_0, # of connection points: 2
#     Edge 37, Type (0, 1), BuildingBlock: XIVTED_clean_linker_0, # of connection points: 2
#     Edge 38, Type (0, 1), BuildingBlock: XIVTED_clean_linker_0, # of connection points: 2
#     Edge 39, Type (0, 1), BuildingBlock: XIVTED_clean_linker_0, # of connection points: 2
#     Edge 40, Type (0, 1), BuildingBlock: XIVTED_clean_linker_0, # of connection points: 2
#     Edge 41, Type (0, 1), BuildingBlock: XIVTED_clean_linker_0, # of connection points: 2
#     Edge 42, Type (0, 1), BuildingBlock: XIVTED_clean_linker_0, # of connection points: 2
#     Edge 43, Type (0, 1), BuildingBlock: XIVTED_clean_linker_0, # of connection points: 2
#     Edge 44, Type (0, 1), BuildingBlock: XIVTED_clean_linker_0, # of connection points: 2
#     Edge 45, Type (0, 1), BuildingBlock: XIVTED_clean_linker_0, # of connection points: 2
#     Edge 46, Type (0, 1), BuildingBlock: XIVTED_clean_linker_0, # of connection points: 2
#     Edge 47, Type (0, 1), BuildingBlock: XIVTED_clean_linker_0, # of connection points: 2
#     Edge 48, Type (0, 1), BuildingBlock: XIVTED_clean_linker_0, # of connection points: 2
#     Edge 49, Type (0, 1), BuildingBlock: XIVTED_clean_linker_0, # of connection points: 2
#     Edge 50, Type (0, 1), BuildingBlock: XIVTED_clean_linker_0, # of connection points: 2
#     Edge 51, Type (0, 1), BuildingBlock: XIVTED_clean_linker_0, # of connection points: 2
#     Edge 52, Type (0, 1), BuildingBlock: XIVTED_clean_linker_0, # of connection points: 2
#     Edge 53, Type (0, 1), BuildingBlock: XIVTED_clean_linker_0, # of connection points: 2
#     Edge 54, Type (0, 1), BuildingBlock: XIVTED_clean_linker_0, # of connection points: 2
#     Edge 55, Type (0, 1), BuildingBlock: XIVTED_clean_linker_0, # of connection points: 2
#     Edge 56, Type (0, 1), BuildingBlock: XIVTED_clean_linker_0, # of connection points: 2
#     Edge 57, Type (0, 1), BuildingBlock: XIVTED_clean_linker_0, # of connection points: 2
#     Edge 58, Type (0, 1), BuildingBlock: XIVTED_clean_linker_0, # of connection points: 2
#     Edge 59, Type (0, 1), BuildingBlock: XIVTED_clean_linker_0, # of connection points: 2
#     Edge 60, Type (0, 1), BuildingBlock: XIVTED_clean_linker_0, # of connection points: 2
#     Edge 61, Type (0, 1), BuildingBlock: XIVTED_clean_linker_0, # of connection points: 2
#     Edge 62, Type (0, 1), BuildingBlock: XIVTED_clean_linker_0, # of connection points: 2
#     Edge 63, Type (0, 1), BuildingBlock: XIVTED_clean_linker_0, # of connection points: 2
#     Edge 64, Type (0, 1), BuildingBlock: XIVTED_clean_linker_0, # of connection points: 2
#     Edge 65, Type (0, 1), BuildingBlock: XIVTED_clean_linker_0, # of connection points: 2
#     Edge 66, Type (0, 1), BuildingBlock: XIVTED_clean_linker_0, # of connection points: 2
#     Edge 67, Type (0, 1), BuildingBlock: XIVTED_clean_linker_0, # of connection points: 2
#     Edge 68, Type (0, 1), BuildingBlock: XIVTED_clean_linker_0, # of connection points: 2
#     Edge 69, Type (0, 1), BuildingBlock: XIVTED_clean_linker_0, # of connection points: 2
#     Edge 70, Type (0, 1), BuildingBlock: XIVTED_clean_linker_0, # of connection points: 2
#     Edge 71, Type (0, 1), BuildingBlock: XIVTED_clean_linker_0, # of connection points: 2
#     Edge 72, Type (0, 1), BuildingBlock: XIVTED_clean_linker_0, # of connection points: 2
#     Edge 73, Type (0, 1), BuildingBlock: XIVTED_clean_linker_0, # of connection points: 2
#     Edge 74, Type (0, 1), BuildingBlock: XIVTED_clean_linker_0, # of connection points: 2
#     Edge 75, Type (0, 1), BuildingBlock: XIVTED_clean_linker_0, # of connection points: 2
#     Edge 76, Type (0, 1), BuildingBlock: XIVTED_clean_linker_0, # of connection points: 2
#     Edge 77, Type (0, 1), BuildingBlock: XIVTED_clean_linker_0, # of connection points: 2
#     Edge 78, Type (0, 1), BuildingBlock: XIVTED_clean_linker_0, # of connection points: 2
#     Edge 79, Type (0, 1), BuildingBlock: XIVTED_clean_linker_0, # of connection points: 2
#     Edge 80, Type (0, 1), BuildingBlock: XIVTED_clean_linker_0, # of connection points: 2
# Relax obj value: 0.108
# Max RMSD: 0.165
# Mean RMSD: 0.139
data_MOF--net-eea--node1-LEVNOQ01_clean_sbu_1--node2-CUQRIR_clean_linker_1--edge1-XIVTED_clean_linker_0
_symmetry_space_group_name_H-M    P1
_symmetry_Int_Tables_number       1
_symmetry_cell_setting            triclinic
loop_
_symmetry_equiv_pos_as_xyz
'x, y, z'
_cell_length_a     53.035866
_cell_length_b     53.783058
_cell_length_c     43.450932
_cell_angle_alpha  82.225166
_cell_angle_beta   90.045982
_cell_angle_gamma 119.38056
loop_
_atom_site_label
_atom_site_type_symbol
_atom_site_fract_x
_atom_site_fract_y
_atom_site_fract_z
_atom_type_partial_charge
C0 C 0.17534 0.07616 0.3796 0.0
N1 N 0.18978 0.0978 0.39665 0.0
N2 N 0.18734 0.05893 0.38109 0.0
C3 C 0.15094 0.07272 0.35978 0.0
C4 C 0.2095 0.07064 0.3994 0.0
N5 N 0.21116 0.09432 0.40859 0.0
C6 C 0.22839 0.05788 0.40993 0.0
H7 H 0.13014 0.06055 0.37444 0.0
H8 H 0.14967 0.0604 0.34074 0.0
H9 H 0.15383 0.09409 0.34956 0.0
H10 H 0.24884 0.06909 0.39466 0.0
H11 H 0.21763 0.03449 0.40848 0.0
H12 H 0.23407 0.06106 0.43421 0.0
C13 C 0.88989 0.11414 0.38864 0.0
N14 N 0.89926 0.13009 0.41216 0.0
N15 N 0.86495 0.08922 0.39806 0.0
C16 C 0.90603 0.12158 0.3573 0.0
C17 C 0.85933 0.09038 0.42793 0.0
N18 N 0.88038 0.11493 0.43672 0.0
C19 C 0.83225 0.06835 0.44792 0.0
H20 H 0.89953 0.10195 0.3465 0.0
H21 H 0.9298 0.13264 0.3594 0.0
H22 H 0.90086 0.13631 0.34168 0.0
H23 H 0.81395 0.057 0.43347 0.0
H24 H 0.82565 0.07851 0.46444 0.0
H25 H 0.83668 0.05215 0.46167 0.0
C26 C 0.87389 0.77653 0.33596 0.0
N27 N 0.87766 0.76215 0.36201 0.0
N28 N 0.84764 0.77475 0.33811 0.0
C29 C 0.897 0.79488 0.30997 0.0
C30 C 0.83577 0.75922 0.36659 0.0
N31 N 0.85411 0.75179 0.3814 0.0
C32 C 0.80679 0.75281 0.3804 0.0
H33 H 0.91822 0.80757 0.31965 0.0
H34 H 0.89158 0.80972 0.29495 0.0
H35 H 0.89921 0.78064 0.29526 0.0
H36 H 0.79122 0.7487 0.36211 0.0
H37 H 0.80945 0.77188 0.39025 0.0
H38 H 0.7977 0.73377 0.39907 0.0
C39 C 0.09302 0.23112 0.68744 0.0
N40 N 0.11612 0.24258 0.66639 0.0
N41 N 0.07205 0.2363 0.67597 0.0
C42 C 0.08863 0.21024 0.71642 0.0
C43 C 0.08331 0.25132 0.64715 0.0
N44 N 0.11004 0.25507 0.64125 0.0
C45 C 0.06682 0.25955 0.62366 0.0
H46 H 0.0823 0.18881 0.70983 0.0
H47 H 0.07129 0.2079 0.73279 0.0
H48 H 0.10908 0.21756 0.72823 0.0
H49 H 0.05069 0.26324 0.63554 0.0
H50 H 0.055 0.24167 0.61003 0.0
H51 H 0.08187 0.27926 0.60733 0.0
C52 C 0.83456 0.92006 0.62107 0.0
N53 N 0.82019 0.90259 0.59998 0.0
N54 N 0.83292 0.94466 0.61599 0.0
C55 C 0.84885 0.91227 0.64764 0.0
C56 C 0.81682 0.94135 0.59104 0.0
N57 N 0.80916 0.91588 0.58132 0.0
C58 C 0.80548 0.9613 0.57872 0.0
H59 H 0.83191 0.8967 0.66608 0.0
H60 H 0.86439 0.93166 0.65757 0.0
H61 H 0.86044 0.90158 0.63964 0.0
H62 H 0.82316 0.98074 0.56422 0.0
H63 H 0.79848 0.96843 0.59822 0.0
H64 H 0.7869 0.95093 0.56431 0.0
C65 C 0.11244 0.91201 0.66893 0.0
N66 N 0.10156 0.88876 0.65382 0.0
N67 N 0.14086 0.93001 0.65977 0.0
C68 C 0.09601 0.9164 0.6938 0.0
C69 C 0.14695 0.91705 0.63872 0.0
N70 N 0.1232 0.89191 0.6353 0.0
C71 C 0.17571 0.92975 0.62024 0.0
H72 H 0.0831 0.92575 0.68257 0.0
H73 H 0.11103 0.93146 0.7089 0.0
H74 H 0.08083 0.89546 0.70828 0.0
H75 H 0.18814 0.91973 0.63122 0.0
H76 H 0.18869 0.95346 0.61966 0.0
H77 H 0.17251 0.92506 0.596 0.0
C78 C 0.83517 0.40364 0.71895 0.0
N79 N 0.8497 0.42789 0.73209 0.0
N80 N 0.84714 0.38648 0.7252 0.0
C81 C 0.81091 0.39793 0.69814 0.0
C82 C 0.8696 0.40124 0.74219 0.0
N83 N 0.87137 0.42651 0.74604 0.0
C84 C 0.88931 0.39056 0.75576 0.0
H85 H 0.79216 0.39589 0.71182 0.0
H86 H 0.80404 0.37795 0.68789 0.0
H87 H 0.81795 0.41656 0.67918 0.0
H88 H 0.90975 0.40091 0.74055 0.0
H89 H 0.8792 0.36679 0.75736 0.0
H90 H 0.89489 0.39658 0.77928 0.0
C91 C 0.56118 0.44117 0.72637 0.0
N92 N 0.57002 0.45722 0.74982 0.0
N93 N 0.53593 0.41637 0.73524 0.0
C94 C 0.57798 0.44864 0.69544 0.0
C95 C 0.52967 0.41771 0.76488 0.0
N96 N 0.55059 0.44225 0.77399 0.0
C97 C 0.50176 0.39622 0.78395 0.0
H98 H 0.57266 0.46287 0.67917 0.0
H99 H 0.5722 0.42889 0.68513 0.0
H100 H 0.60168 0.46022 0.69804 0.0
H101 H 0.50418 0.37796 0.79572 0.0
H102 H 0.48344 0.38751 0.76884 0.0
H103 H 0.49629 0.40584 0.80205 0.0
C104 C 0.53732 0.11313 0.67578 0.0
N105 N 0.5417 0.09802 0.70061 0.0
N106 N 0.51466 0.1168 0.68236 0.0
C107 C 0.55729 0.12732 0.64661 0.0
C108 C 0.50555 0.10367 0.71215 0.0
N109 N 0.52223 0.0925 0.72353 0.0
C110 C 0.48077 0.10269 0.73016 0.0
H111 H 0.576 0.148 0.65097 0.0
H112 H 0.54596 0.13195 0.62708 0.0
H113 H 0.56575 0.11338 0.64011 0.0
H114 H 0.46413 0.10208 0.7143 0.0
H115 H 0.48899 0.12253 0.74102 0.0
H116 H 0.47065 0.08356 0.74871 0.0
C117 C 0.76738 0.56958 0.02016 0.0
N118 N 0.79148 0.58228 0.00035 0.0
N119 N 0.74674 0.57495 0.00802 0.0
C120 C 0.76194 0.54745 0.04826 0.0
C121 C 0.75929 0.59149 0.98013 0.0
N122 N 0.78638 0.59582 0.97534 0.0
C123 C 0.74365 0.60022 0.95594 0.0
H124 H 0.75509 0.52634 0.04056 0.0
H125 H 0.74452 0.54502 0.06457 0.0
H126 H 0.78207 0.55363 0.06048 0.0
H127 H 0.72622 0.60245 0.96717 0.0
H128 H 0.73359 0.58331 0.94078 0.0
H129 H 0.75906 0.62087 0.94114 0.0
C130 C 0.45916 0.22728 0.96366 0.0
N131 N 0.45148 0.21219 0.93951 0.0
N132 N 0.46008 0.25293 0.95579 0.0
C133 C 0.46597 0.21705 0.99486 0.0
C134 C 0.45258 0.25288 0.92604 0.0
N135 N 0.44779 0.22829 0.91594 0.0
C136 C 0.44685 0.27542 0.90806 0.0
H137 H 0.44537 0.20263 0.0094 0.0
H138 H 0.4798 0.23549 0.00707 0.0
H139 H 0.47711 0.20449 0.99213 0.0
H140 H 0.46728 0.29258 0.89488 0.0
H141 H 0.43946 0.28545 0.92394 0.0
H142 H 0.43022 0.26617 0.8912 0.0
C143 C 0.78094 0.24048 0.00319 0.0
N144 N 0.76799 0.21801 0.98715 0.0
N145 N 0.80601 0.26166 0.98749 0.0
C146 C 0.76818 0.24225 0.03311 0.0
C147 C 0.80787 0.25121 0.9615 0.0
N148 N 0.78457 0.22485 0.96108 0.0
C149 C 0.83345 0.26597 0.93765 0.0
H150 H 0.74472 0.23483 0.03151 0.0
H151 H 0.77933 0.26451 0.03881 0.0
H152 H 0.77015 0.22754 0.05225 0.0
H153 H 0.8536 0.28015 0.94826 0.0
H154 H 0.82946 0.27951 0.91887 0.0
H155 H 0.83659 0.24991 0.92712 0.0
C156 C 0.5223 0.74636 0.04143 0.0
N157 N 0.53206 0.7685 0.05814 0.0
N158 N 0.53198 0.72799 0.05222 0.0
C159 C 0.50118 0.7411 0.01665 0.0
C160 C 0.54794 0.73961 0.0759 0.0
N161 N 0.54783 0.76403 0.07965 0.0
C162 C 0.56432 0.72753 0.09491 0.0
H163 H 0.48714 0.75048 0.0206 0.0
H164 H 0.4873 0.71765 0.01605 0.0
H165 H 0.51349 0.75142 0.99362 0.0
H166 H 0.56971 0.7143 0.08164 0.0
H167 H 0.55066 0.71369 0.11635 0.0
H168 H 0.58463 0.74519 0.10199 0.0
C169 C 0.22559 0.77974 0.05853 0.0
N170 N 0.23436 0.79501 0.08266 0.0
N171 N 0.19649 0.76243 0.06121 0.0
C172 C 0.24488 0.78307 0.0311 0.0
C173 C 0.18765 0.76761 0.08747 0.0
N174 N 0.21054 0.7876 0.1004 0.0
C175 C 0.1567 0.75234 0.1012 0.0
H176 H 0.23221 0.77582 0.01061 0.0
H177 H 0.25515 0.76959 0.03731 0.0
H178 H 0.26224 0.8059 0.02473 0.0
H179 H 0.14292 0.73249 0.09105 0.0
H180 H 0.14774 0.76716 0.09649 0.0
H181 H 0.15576 0.74656 0.12684 0.0
C182 C 0.21089 0.44893 0.00626 0.0
N183 N 0.21299 0.43286 0.03191 0.0
N184 N 0.18612 0.45005 0.00882 0.0
C185 C 0.23445 0.46618 0.98042 0.0
C186 C 0.17353 0.43471 0.03713 0.0
N187 N 0.18994 0.42445 0.05138 0.0
C188 C 0.14595 0.43129 0.05143 0.0
H189 H 0.25591 0.47706 0.99022 0.0
H190 H 0.2308 0.48255 0.96584 0.0
H191 H 0.2349 0.45135 0.96528 0.0
H192 H 0.13118 0.43089 0.03317 0.0
H193 H 0.15132 0.45 0.06351 0.0
H194 H 0.13465 0.41117 0.06858 0.0
C195 C 0.43121 0.90039 0.35766 0.0
N196 N 0.45592 0.91177 0.33906 0.0
N197 N 0.41212 0.90734 0.34396 0.0
C198 C 0.42356 0.878 0.38611 0.0
C199 C 0.42629 0.92352 0.31643 0.0
N200 N 0.45281 0.92609 0.31332 0.0
C201 C 0.41274 0.93367 0.29094 0.0
H202 H 0.41516 0.85652 0.37872 0.0
H203 H 0.40655 0.87724 0.40168 0.0
H204 H 0.44303 0.88261 0.39907 0.0
H205 H 0.39527 0.93663 0.30082 0.0
H206 H 0.40316 0.91724 0.27517 0.0
H207 H 0.42941 0.95425 0.27703 0.0
C208 C 0.1477 0.57739 0.28797 0.0
N209 N 0.14005 0.55908 0.26672 0.0
N210 N 0.15113 0.60327 0.27478 0.0
C211 C 0.14958 0.56929 0.32209 0.0
C212 C 0.14569 0.60008 0.24471 0.0
N213 N 0.13899 0.57328 0.23969 0.0
C214 C 0.14394 0.62222 0.2209 0.0
H215 H 0.12762 0.55911 0.33422 0.0
H216 H 0.16415 0.58846 0.33282 0.0
H217 H 0.15756 0.55359 0.32564 0.0
H218 H 0.15445 0.64383 0.2283 0.0
H219 H 0.12082 0.61525 0.2174 0.0
H220 H 0.15471 0.62395 0.19823 0.0
C221 C 0.43879 0.57316 0.33548 0.0
N222 N 0.4303 0.55134 0.31843 0.0
N223 N 0.46643 0.59398 0.32637 0.0
C224 C 0.42089 0.5737 0.36188 0.0
C225 C 0.47467 0.58411 0.30365 0.0
N226 N 0.45286 0.55821 0.29894 0.0
C227 C 0.50392 0.59989 0.28566 0.0
H228 H 0.4074 0.58304 0.35239 0.0
H229 H 0.43499 0.58735 0.37861 0.0
H230 H 0.40631 0.55154 0.37426 0.0
H231 H 0.51665 0.62266 0.28958 0.0
H232 H 0.50122 0.59931 0.26039 0.0
H233 H 0.51631 0.58872 0.29307 0.0
O234 O 0.53819 0.0105 0.9518 0.0
Mg235 Mg 0.54149 0.99366 0.99709 0.0
O236 O 0.49787 0.00841 0.96796 0.0
Mg237 Mg 0.5015 -5e-05 0.02199 0.0
O238 O 0.507 0.95791 0.02146 0.0
O239 O 0.54202 0.95775 0.99218 0.0
O240 O 0.50668 0.9881 0.07576 0.0
O241 O 0.45232 0.965 0.02894 0.0
Mg242 Mg 0.4854 0.01806 0.06218 0.0
O243 O 0.49075 0.03932 0.01806 0.0
O244 O 0.51957 0.02874 0.09204 0.0
O245 O 0.44611 0.97786 0.07302 0.0
O246 O 0.47351 0.04821 0.06002 0.0
C247 C 0.57525 0.04005 0.02276 0.0
C248 C 0.51616 0.01296 0.94586 0.0
C249 C 0.519 0.94423 0.01095 0.0
C250 C 0.5173 0.00409 0.09672 0.0
C251 C 0.43636 0.96056 0.05335 0.0
C252 C 0.4801 0.05334 0.03045 0.0
O253 O 0.57707 0.01781 0.02131 0.0
O254 O 0.55084 0.03893 0.01883 0.0
O255 O 0.01555 0.54738 0.90398 0.0
Mg256 Mg 0.00925 0.56959 0.93653 0.0
O257 O 0.98472 0.51406 0.94052 0.0
Mg258 Mg 0.00467 0.52965 0.98766 0.0
O259 O 0.03598 0.57909 0.9717 0.0
O260 O 0.03914 0.61213 0.93203 0.0
O261 O 0.02627 0.54665 0.03499 0.0
O262 O 0.04229 0.52334 0.97386 0.0
Mg263 Mg 0.00261 0.49685 0.03328 0.0
O264 O 0.97196 0.47836 0.00317 0.0
O265 O -0.00823 0.5141 0.06834 0.0
O266 O 0.04725 0.50997 0.02231 0.0
O267 O 0.98064 0.45391 0.04416 0.0
C268 C 0.95456 0.54616 0.97922 0.0
C269 C -0.00543 0.52223 0.91201 0.0
C270 C 0.04885 0.60558 0.9573 0.0
C271 C 0.01518 0.53769 0.06305 0.0
C272 C 0.05708 0.51831 0.99407 0.0
C273 C 0.96549 0.45411 0.02102 0.0
O274 O 0.9661 0.55755 0.95171 0.0
O275 O 0.96679 0.53694 -0.00073 0.0
O276 O 0.47431 0.453 0.12547 0.0
Mg277 Mg 0.44246 0.42423 0.10014 0.0
O278 O 0.47158 0.4837 0.08889 0.0
Mg279 Mg 0.47035 0.46564 0.04173 0.0
O280 O 0.45966 0.41905 0.06169 0.0
O281 O 0.43878 0.38447 0.10312 0.0
O282 O 0.47042 0.4464 0.99456 0.0
O283 O 0.51827 0.47947 0.04453 0.0
Mg284 Mg 0.49036 0.49666 0.98971 0.0
O285 O 0.4815 0.51446 0.02318 0.0
O286 O 0.4557 0.47109 0.9641 0.0
O287 O 0.52809 0.49179 0.99384 0.0
O288 O 0.50285 0.53809 0.97539 0.0
C289 C 0.40181 0.43973 0.0628 0.0
C290 C 0.47703 0.47754 0.11663 0.0
C291 C 0.45229 0.39328 0.07576 0.0
C292 C 0.46192 0.4512 0.96807 0.0
C293 C 0.53562 0.48683 0.02066 0.0
C294 C 0.49275 0.53784 0.00248 0.0
O295 O 0.406 0.42944 0.08916 0.0
O296 O 0.42164 0.45158 0.04041 0.0
O297 O 0.18039 0.31655 0.27081 0.0
Mg298 Mg 0.20111 0.31275 0.31033 0.0
O299 O 0.16266 0.33894 0.29482 0.0
Mg300 Mg 0.16724 0.33049 0.34911 0.0
O301 O 0.17439 0.29056 0.34979 0.0
O302 O 0.19751 0.27367 0.32305 0.0
O303 O 0.17248 0.31837 0.40301 0.0
O304 O 0.11781 0.29725 0.35595 0.0
Mg305 Mg 0.15235 0.34869 0.3899 0.0
O306 O 0.15841 0.37118 0.346 0.0
O307 O 0.18658 0.35911 0.41965 0.0
O308 O 0.11361 0.30793 0.40199 0.0
O309 O 0.14002 0.37849 0.38827 0.0
C310 C 0.24069 0.36797 0.33216 0.0
C311 C 0.16741 0.33098 0.27002 0.0
C312 C 0.18059 0.27038 0.34642 0.0
C313 C 0.18313 0.33396 0.42432 0.0
C314 C 0.10288 0.29171 0.38146 0.0
C315 C 0.14776 0.38498 0.3589 0.0
O316 O 0.24044 0.3487 0.31814 0.0
O317 O 0.21703 0.36512 0.34359 0.0
O318 O 0.67762 0.87642 0.2503 0.0
Mg319 Mg 0.66854 0.89578 0.28375 0.0
O320 O 0.64707 0.84099 0.2853 0.0
Mg321 Mg 0.66654 0.85625 0.33307 0.0
O322 O 0.69633 0.9061 0.31766 0.0
O323 O 0.69596 0.93875 0.27969 0.0
O324 O 0.68743 0.87291 0.38088 0.0
O325 O 0.70532 0.8521 0.31747 0.0
Mg326 Mg 0.66788 0.82256 0.37744 0.0
O327 O 0.63546 0.80502 0.34852 0.0
O328 O 0.6581 0.83687 0.41567 0.0
O329 O 0.71218 0.83674 0.36425 0.0
O330 O 0.64672 0.77943 0.38571 0.0
C331 C 0.61384 0.86899 0.32665 0.0
C332 C 0.65751 0.85067 0.25702 0.0
C333 C 0.70752 0.93262 0.30359 0.0
C334 C 0.67834 0.86256 0.40946 0.0
C335 C 0.72097 0.84639 0.33586 0.0
C336 C 0.63 0.78035 0.3646 0.0
O337 O 0.62472 0.88078 0.29906 0.0
O338 O 0.62741 0.86113 0.34624 0.0
O339 O 0.12498 0.77326 0.46412 0.0
Mg340 Mg 0.10088 0.74215 0.43567 0.0
O341 O 0.13362 0.8103 0.42747 0.0
Mg342 Mg 0.13455 0.79742 0.37781 0.0
O343 O 0.12694 0.75317 0.39698 0.0
O344 O 0.11186 0.71102 0.42623 0.0
O345 O 0.13601 0.77949 0.32969 0.0
O346 O 0.18301 0.81386 0.38095 0.0
Mg347 Mg 0.15178 0.82746 0.32966 0.0
O348 O 0.14251 0.84653 0.36135 0.0
O349 O 0.11893 0.80312 0.30135 0.0
O350 O 0.19128 0.82562 0.33035 0.0
O351 O 0.16451 0.86838 0.31342 0.0
C352 C 0.06277 0.76119 0.39508 0.0
C353 C 0.13239 0.79965 0.45604 0.0
C354 C 0.12618 0.72868 0.40143 0.0
C355 C 0.12677 0.78439 0.30376 0.0
C356 C 0.2 0.8217 0.35672 0.0
C357 C 0.1541 0.86931 0.33971 0.0
O358 O 0.0644 0.74499 0.41839 0.0
O359 O 0.08508 0.78001 0.37724 0.0
O360 O 0.87208 0.68135 0.61371 0.0
Mg361 Mg 0.87366 0.66376 0.65947 0.0
O362 O 0.82992 0.67575 0.62846 0.0
Mg363 Mg 0.83443 0.66831 0.68229 0.0
O364 O 0.84034 0.62572 0.68209 0.0
O365 O 0.87723 0.6299 0.65226 0.0
O366 O 0.8402 0.65795 0.73623 0.0
O367 O 0.78515 0.63295 0.68927 0.0
Mg368 Mg 0.81603 0.68595 0.72321 0.0
O369 O 0.82388 0.70748 0.67866 0.0
O370 O 0.85012 0.69781 0.75301 0.0
O371 O 0.7787 0.64412 0.73435 0.0
O372 O 0.80268 0.71528 0.7182 0.0
C373 C 0.90783 0.70982 0.68374 0.0
C374 C 0.84924 0.68193 0.60686 0.0
C375 C 0.85409 0.61409 0.67049 0.0
C376 C 0.84956 0.67391 0.75744 0.0
C377 C 0.76944 0.62717 0.71433 0.0
C378 C 0.81246 0.72156 0.68943 0.0
O379 O 0.9093 0.68719 0.68406 0.0
O380 O 0.88354 0.70861 0.6787 0.0
O381 O 0.34291 0.21927 0.56656 0.0
Mg382 Mg 0.33914 0.24431 0.59715 0.0
O383 O 0.32032 0.18317 0.60513 0.0
Mg384 Mg 0.33587 0.19963 0.65264 0.0
O385 O 0.36438 0.24785 0.63315 0.0
O386 O 0.37304 0.28534 0.59726 0.0
O387 O 0.35382 0.21841 0.70035 0.0
O388 O 0.37559 0.19543 0.64316 0.0
Mg389 Mg 0.33341 0.16851 0.70057 0.0
O390 O 0.30494 0.14823 0.6694 0.0
O391 O 0.31789 0.18545 0.73179 0.0
O392 O 0.3791 0.1842 0.69269 0.0
O393 O 0.31354 0.1256 0.71218 0.0
C394 C 0.28436 0.21629 0.64211 0.0
C395 C 0.32758 0.19252 0.57612 0.0
C396 C 0.38035 0.27501 0.62202 0.0
C397 C 0.34086 0.20947 0.72759 0.0
C398 C 0.39008 0.19205 0.66485 0.0
C399 C 0.29912 0.12457 0.68803 0.0
O400 O 0.29675 0.23128 0.61585 0.0
O401 O 0.29583 0.20466 0.66031 0.0
O402 O 0.76167 0.09072 0.79248 0.0
Mg403 Mg 0.75086 0.065 0.75672 0.0
O404 O 0.78905 0.1323 0.76131 0.0
Mg405 Mg 0.7956 0.12404 0.71128 0.0
O406 O 0.78738 0.07836 0.72889 0.0
O407 O 0.76382 0.03455 0.75669 0.0
O408 O 0.80107 0.11038 0.66144 0.0
O409 O 0.84326 0.139 0.71972 0.0
Mg410 Mg 0.81657 0.15749 0.66642 0.0
O411 O 0.80496 0.17398 0.69902 0.0
O412 O 0.78668 0.13698 0.6338 0.0
O413 O 0.85468 0.15331 0.66964 0.0
O414 O 0.83164 0.19963 0.65419 0.0
C415 C 0.72211 0.08706 0.7099 0.0
C416 C 0.77677 0.11808 0.78812 0.0
C417 C 0.78507 0.05322 0.73707 0.0
C418 C 0.79382 0.11776 0.63523 0.0
C419 C 0.86144 0.14735 0.69645 0.0
C420 C 0.81883 0.19838 0.67997 0.0
O421 O 0.71837 0.065 0.72852 0.0
O422 O 0.74726 0.10922 0.70314 0.0
H423 H 0.28308 0.7909 0.08107 0.0
H424 H 0.39158 0.95711 0.08773 0.0
H425 H 0.25202 0.85002 0.09107 0.0
H426 H 0.4128 0.9079 0.03276 0.0
H427 H 0.34234 0.91608 0.09911 0.0
H428 H 0.33307 0.83142 0.07464 0.0
C429 C 0.28692 0.81242 0.08239 0.0
C430 C 0.26351 0.81729 0.08614 0.0
C431 C 0.35778 0.91429 0.08457 0.0
C432 C 0.32042 0.86355 0.07922 0.0
C433 C 0.38589 0.93763 0.07807 0.0
C434 C 0.40633 0.93593 0.05918 0.0
C435 C 0.35014 0.88874 0.07271 0.0
C436 C 0.39768 0.91019 0.04723 0.0
C437 C 0.31534 0.83548 0.07856 0.0
C438 C 0.26953 0.84542 0.08834 0.0
N439 N 0.37027 0.88748 0.05442 0.0
N440 N 0.29745 0.8676 0.08469 0.0
H441 H 0.20704 0.50483 0.01711 0.0
H442 H 0.07157 0.50545 0.94053 0.0
H443 H 0.1491 0.44063 0.9638 0.0
H444 H 0.10484 0.53561 0.02674 0.0
H445 H 0.11379 0.49939 0.93106 0.0
H446 H 0.18413 0.53412 0.00102 0.0
C447 C 0.19027 0.49766 0.00089 0.0
C448 C 0.17951 0.4705 0.99181 0.0
C449 C 0.11217 0.50815 0.95153 0.0
C450 C 0.1531 0.50306 0.97394 0.0
C451 C 0.0882 0.51156 0.95696 0.0
C452 C 0.08461 0.52029 0.98482 0.0
C453 C 0.13266 0.51408 0.97389 0.0
C454 C 0.10664 0.52814 0.00536 0.0
C455 C 0.17717 0.51416 0.99185 0.0
C456 C 0.15766 0.46156 0.97115 0.0
N457 N 0.12965 0.52454 -0.00035 0.0
N458 N 0.14463 0.4776 0.9633 0.0
H459 H 0.53991 0.71671 0.99557 0.0
H460 H 0.47929 0.54872 0.05838 0.0
H461 H 0.50592 0.67698 0.09001 0.0
H462 H 0.51249 0.58876 0.96336 0.0
H463 H 0.48691 0.59506 0.07011 0.0
H464 H 0.52805 0.6693 0.98254 0.0
C465 C 0.52974 0.69782 0.01338 0.0
C466 C 0.52392 0.70036 0.0438 0.0
C467 C 0.49237 0.5936 0.04665 0.0
C468 C 0.51047 0.64651 0.02955 0.0
C469 C 0.48795 0.56715 0.03996 0.0
C470 C 0.4953 0.56489 0.0099 0.0
C471 C 0.50421 0.61784 0.0231 0.0
C472 C 0.50657 0.5895 0.98692 0.0
C473 C 0.52306 0.67088 0.00611 0.0
C474 C 0.51091 0.6756 0.06637 0.0
N475 N 0.51077 0.61495 0.99403 0.0
N476 N 0.50468 0.64964 0.05884 0.0
H477 H 0.83601 0.27361 0.03861 0.0
H478 H 0.92801 0.44347 0.97416 0.0
H479 H 0.82093 0.31288 0.95286 0.0
H480 H 0.9456 0.40147 0.05657 0.0
H481 H 0.88652 0.39669 0.96741 0.0
H482 H 0.87378 0.3215 0.0479 0.0
C483 C 0.8405 0.29252 0.02207 0.0
C484 C 0.82565 0.28967 0.99503 0.0
C485 C 0.89949 0.39783 0.98698 0.0
C486 C 0.86878 0.34417 0.0049 0.0
C487 C 0.92317 0.4245 0.9908 0.0
C488 C 0.94037 0.42642 0.01588 0.0
C489 C 0.89302 0.37305 0.00847 0.0
C490 C 0.93307 0.40112 0.03679 0.0
C491 C 0.86209 0.31976 0.02714 0.0
C492 C 0.83221 0.31452 0.97391 0.0
N493 N 0.91002 0.37557 0.03259 0.0
N494 N 0.85343 0.3408 0.97918 0.0
H495 H 0.71189 0.53105 0.97877 0.0
H496 H 0.5674 0.50132 0.07136 0.0
H497 H 0.71288 0.57706 0.0528 0.0
H498 H 0.57139 0.48481 0.9775 0.0
H499 H 0.61939 0.51761 0.07312 0.0
H500 H 0.65885 0.50235 0.98671 0.0
C501 C 0.70068 0.53477 0.99688 0.0
C502 C 0.71617 0.5565 0.01486 0.0
C503 C 0.60869 0.51001 0.05237 0.0
C504 C 0.65614 0.52407 0.02423 0.0
C505 C 0.5791 0.5006 0.05138 0.0
C506 C 0.56535 0.49216 0.02405 0.0
C507 C 0.62427 0.51047 0.02602 0.0
C508 C 0.58137 0.49159 -0.00118 0.0
C509 C 0.67063 0.51851 0.00144 0.0
C510 C 0.70126 0.56058 0.0384 0.0
N511 N 0.61007 0.50081 0.00035 0.0
N512 N 0.67182 0.54461 0.04231 0.0
H513 H 0.48854 0.19983 0.9119 0.0
H514 H 0.44105 0.06884 0.04618 0.0
H515 H 0.40944 0.16203 0.97046 0.0
H516 H 0.5019 0.08344 0.97066 0.0
H517 H 0.42892 0.10239 0.01642 0.0
H518 H 0.4927 0.1564 0.92858 0.0
C519 C 0.47141 0.18173 0.92718 0.0
C520 C 0.44857 0.18418 0.93983 0.0
C521 C 0.44477 0.09822 0.00606 0.0
C522 C 0.4536 0.13532 0.95988 0.0
C523 C 0.45199 0.07919 0.02324 0.0
C524 C 0.47289 0.07359 0.01112 0.0
C525 C 0.45885 0.11241 0.97651 0.0
C526 C 0.48584 0.08734 0.98098 0.0
C527 C 0.47391 0.15716 0.93698 0.0
C528 C 0.42721 0.16067 0.96013 0.0
N529 N 0.47894 0.10655 0.96482 0.0
N530 N 0.43051 0.13746 0.96999 0.0
H531 H 0.7186 0.21054 0.96301 0.0
H532 H 0.62596 0.04719 0.0451 0.0
H533 H 0.75348 0.16998 0.02813 0.0
H534 H 0.58628 0.09535 0.00249 0.0
H535 H 0.67274 0.09166 0.03921 0.0
H536 H 0.66989 0.16823 0.97614 0.0
C537 C 0.71576 0.19252 0.98004 0.0
C538 C 0.73963 0.19326 0.99446 0.0
C539 C 0.65378 0.09263 0.03151 0.0
C540 C 0.68461 0.14512 0.00961 0.0
C541 C 0.62704 0.06725 0.0349 0.0
C542 C 0.60222 0.06756 0.0241 0.0
C543 C 0.6559 0.11852 0.01675 0.0
C544 C 0.60486 0.09416 0.01117 0.0
C545 C 0.68813 0.16857 0.98769 0.0
C546 C 0.73533 0.16983 0.01658 0.0
N547 N 0.63134 0.11855 0.00743 0.0
N548 N 0.70832 0.14651 0.02333 0.0
H549 H 0.83743 0.60021 0.03522 0.0
H550 H 0.90936 0.5313 0.94347 0.0
H551 H 0.79355 0.54433 0.96797 0.0
H552 H 0.93739 0.55735 0.03262 0.0
H553 H 0.86652 0.53575 0.95243 0.0
H554 H 0.87481 0.58554 0.03522 0.0
C555 C 0.8359 0.58489 0.02049 0.0
C556 C 0.81323 0.57388 0.00096 0.0
C557 C 0.88174 0.54009 0.97032 0.0
C558 C 0.85496 0.55693 0.0009 0.0
C559 C 0.90615 0.53758 0.96517 0.0
C560 C 0.9268 0.5442 0.98728 0.0
C561 C 0.87835 0.54999 0.99743 0.0
C562 C 0.92177 0.55207 0.0151 0.0
C563 C 0.85688 0.57636 0.02063 0.0
C564 C 0.81138 0.55375 0.98258 0.0
N565 N 0.89819 0.55532 0.0192 0.0
N566 N 0.8322 0.5461 0.98272 0.0
H567 H 0.49688 0.3103 0.94511 0.0
H568 H 0.43181 0.33605 0.09574 0.0
H569 H 0.43023 0.24211 0.01066 0.0
H570 H 0.48376 0.40456 0.02049 0.0
H571 H 0.43715 0.30203 0.0686 0.0
H572 H 0.49832 0.34586 0.97615 0.0
C573 C 0.48287 0.30295 0.96632 0.0
C574 C 0.4635 0.27349 0.97559 0.0
C575 C 0.44748 0.32451 0.05803 0.0
C576 C 0.46487 0.31353 0.01098 0.0
C577 C 0.44451 0.34401 0.07354 0.0
C578 C 0.45714 0.37316 0.06016 0.0
C579 C 0.46328 0.3342 0.02896 0.0
C580 C 0.47339 0.3822 0.03141 0.0
C581 C 0.48361 0.3231 0.98393 0.0
C582 C 0.4457 0.26469 0.00312 0.0
N583 N 0.47592 0.36272 0.01665 0.0
N584 N 0.44672 0.28467 0.01984 0.0
H585 H 0.1594 0.76642 0.0216 0.0
H586 H 0.08099 0.60027 0.0047 0.0
H587 H 0.1929 0.71119 0.05893 0.0
H588 H 0.07197 0.66364 0.94049 0.0
H589 H 0.11989 0.63959 0.02772 0.0
H590 H 0.12485 0.72808 0.99373 0.0
C591 C 0.15961 0.74625 0.02335 0.0
C592 C 0.17884 0.74166 0.04202 0.0
C593 C 0.1095 0.64479 0.0084 0.0
C594 C 0.1394 0.69776 0.01133 0.0
C595 C 0.08726 0.6224 0.99538 0.0
C596 C 0.07322 0.62871 0.97069 0.0
C597 C 0.11735 0.67355 0.99691 0.0
C598 C 0.08224 0.65777 0.95944 0.0
C599 C 0.14001 0.72443 0.00766 0.0
C600 C 0.17838 0.71526 0.04431 0.0
N601 N 0.10355 0.67909 0.97281 0.0
N602 N 0.15868 0.69404 0.02936 0.0
H603 H 0.23717 0.41104 0.99743 0.0
H604 H 0.3649 0.43751 0.10778 0.0
H605 H 0.24565 0.44848 0.081 0.0
H606 H 0.37455 0.43863 0.00889 0.0
H607 H 0.3174 0.4337 0.10161 0.0
H608 H 0.28368 0.41232 0.00485 0.0
C609 C 0.24879 0.4192 0.01752 0.0
C610 C 0.23782 0.42964 0.03867 0.0
C611 C 0.32992 0.43477 0.08129 0.0
C612 C 0.29051 0.43109 0.04741 0.0
C613 C 0.35694 0.43685 0.08476 0.0
C614 C 0.37356 0.43825 0.05878 0.0
C615 C 0.3192 0.43355 0.05173 0.0
C616 C 0.3624 0.43764 0.02947 0.0
C617 C 0.27523 0.42005 0.02167 0.0
C618 C 0.2533 0.43982 0.06452 0.0
N619 N 0.33572 0.43509 0.02675 0.0
N620 N 0.27898 0.44033 0.0682 0.0
H621 H 0.51131 0.78726 0.10155 0.0
H622 H 0.50554 0.90494 0.97273 0.0
H623 H 0.53941 0.80336 0.0044 0.0
H624 H 0.50928 0.91402 0.06988 0.0
H625 H 0.50365 0.8585 0.9859 0.0
H626 H 0.49996 0.82681 0.09211 0.0
C627 C 0.51529 0.7993 0.07834 0.0
C628 C 0.52638 0.79226 0.05366 0.0
C629 C 0.50428 0.87029 0.00449 0.0
C630 C 0.51249 0.83635 0.04255 0.0
C631 C 0.50495 0.89657 0.99702 0.0
C632 C 0.50758 0.91315 0.02029 0.0
C633 C 0.50671 0.86072 0.03544 0.0
C634 C 0.50702 0.90162 0.05138 0.0
C635 C 0.50851 0.82154 0.07292 0.0
C636 C 0.53059 0.80798 0.02389 0.0
N637 N 0.50718 0.87618 0.05809 0.0
N638 N 0.52354 0.82918 0.01914 0.0
H639 H 0.91971 0.1784 0.36945 0.0
H640 H 0.074 0.26122 0.43745 0.0
H641 H 0.94061 0.14167 0.45307 0.0
H642 H 0.06308 0.26761 0.33883 0.0
H643 H 0.02296 0.22344 0.44735 0.0
H644 H 0.96988 0.21858 0.36221 0.0
C645 C 0.93484 0.17911 0.38651 0.0
C646 C 0.9263 0.1566 0.41162 0.0
C647 C 0.0318 0.23309 0.42357 0.0
C648 C 0.98334 0.20241 0.40378 0.0
C649 C 0.06085 0.25459 0.41787 0.0
C650 C 0.07276 0.26745 0.38724 0.0
C651 C 0.01434 0.22489 0.39852 0.0
C652 C 0.0548 0.25806 0.36275 0.0
C653 C 0.96339 0.20187 0.38231 0.0
C654 C 0.94641 0.15871 0.4335 0.0
N655 N 0.02636 0.23752 0.36894 0.0
N656 N 0.97414 0.18117 0.42901 0.0
H657 H 0.80614 0.76173 0.29768 0.0
H658 H 0.7327 0.83672 0.27884 0.0
H659 H 0.86888 0.8304 0.34292 0.0
H660 H 0.76958 0.85932 0.36617 0.0
H661 H 0.77249 0.82829 0.26489 0.0
H662 H 0.78201 0.79009 0.28331 0.0
C663 C 0.81548 0.78342 0.30323 0.0
C664 C 0.83921 0.79397 0.32144 0.0
C665 C 0.77208 0.83563 0.28681 0.0
C666 C 0.81194 0.82622 0.30585 0.0
C667 C 0.74959 0.8406 0.29468 0.0
C668 C 0.74764 0.8479 0.32404 0.0
C669 C 0.79263 0.83833 0.30843 0.0
C670 C 0.77004 0.85297 0.34366 0.0
C671 C 0.80189 0.79967 0.29501 0.0
C672 C 0.85054 0.82184 0.32878 0.0
N673 N 0.7915 0.84778 0.33562 0.0
N674 N 0.83628 0.83675 0.32174 0.0
H675 H 0.13906 0.00889 0.40203 0.0
H676 H 0.18563 0.92126 0.3031 0.0
H677 H 0.21378 0.04819 0.33635 0.0
H678 H 0.12761 0.88065 0.38656 0.0
H679 H 0.18978 0.96708 0.3096 0.0
H680 H 0.12768 0.96098 0.39053 0.0
C681 C 0.15248 0.00727 0.38452 0.0
C682 C 0.17711 0.03208 0.36977 0.0
C683 C 0.17605 0.9482 0.32649 0.0
C684 C 0.16489 0.97809 0.35703 0.0
C685 C 0.17359 0.92189 0.32283 0.0
C686 C 0.1562 0.89695 0.34439 0.0
C687 C 0.16097 0.94983 0.35186 0.0
C688 C 0.14132 0.89935 0.36949 0.0
C689 C 0.14628 0.98012 0.37827 0.0
C690 C 0.19443 0.02934 0.34779 0.0
N691 N 0.14404 0.92543 0.37256 0.0
N692 N 0.18807 0.00276 0.34214 0.0
H693 H 0.47253 0.64552 0.30287 0.0
H694 H 0.61375 0.72644 0.39487 0.0
H695 H 0.50124 0.60277 0.37316 0.0
H696 H 0.58675 0.77179 0.32486 0.0
H697 H 0.57049 0.68154 0.38955 0.0
H698 H 0.51103 0.69256 0.31388 0.0
C699 C 0.48651 0.64629 0.32132 0.0
C700 C 0.48382 0.62071 0.33757 0.0
C701 C 0.57386 0.70124 0.37536 0.0
C702 C 0.52811 0.67372 0.34961 0.0
C703 C 0.59872 0.72701 0.37827 0.0
C704 C 0.60399 0.75303 0.3602 0.0
C705 C 0.55397 0.70124 0.35411 0.0
C706 C 0.5836 0.75224 0.33918 0.0
C707 C 0.50859 0.67294 0.32737 0.0
C708 C 0.50263 0.62228 0.36065 0.0
N709 N 0.55946 0.72668 0.33664 0.0
N710 N 0.52419 0.64839 0.36585 0.0
H711 H 0.37621 0.866 0.31226 0.0
H712 H 0.2327 0.83657 0.40676 0.0
H713 H 0.37864 0.91021 0.3886 0.0
H714 H 0.23581 0.82174 0.312 0.0
H715 H 0.28485 0.85332 0.40749 0.0
H716 H 0.3231 0.8392 0.31921 0.0
C717 C 0.36529 0.86986 0.33054 0.0
C718 C 0.38125 0.89051 0.34953 0.0
C719 C 0.27395 0.84608 0.38672 0.0
C720 C 0.3211 0.86007 0.35791 0.0
C721 C 0.24428 0.83642 0.38632 0.0
C722 C 0.23018 0.82818 0.35912 0.0
C723 C 0.28928 0.847 0.35991 0.0
C724 C 0.24604 0.82834 0.33327 0.0
C725 C 0.33519 0.85464 0.33458 0.0
C726 C 0.36666 0.89461 0.37339 0.0
N727 N 0.27481 0.83773 0.33426 0.0
N728 N 0.33717 0.8796 0.37684 0.0
H729 H 0.16945 0.5381 0.23882 0.0
H730 H 0.1124 0.40467 0.37578 0.0
H731 H 0.1 0.51429 0.30757 0.0
H732 H 0.17207 0.41672 0.30026 0.0
H733 H 0.10587 0.44313 0.34832 0.0
H734 H 0.16835 0.49207 0.25689 0.0
C735 C 0.1535 0.52275 0.2572 0.0
C736 C 0.13506 0.52993 0.27211 0.0
C737 C 0.12029 0.4374 0.33748 0.0
C738 C 0.13393 0.47783 0.29326 0.0
C739 C 0.12421 0.41543 0.3533 0.0
C740 C 0.14317 0.40763 0.34055 0.0
C741 C 0.13569 0.45226 0.30863 0.0
C742 C 0.1574 0.42217 0.31106 0.0
C743 C 0.153 0.49667 0.26767 0.0
C744 C 0.11483 0.5096 0.29587 0.0
N745 N 0.15366 0.44409 0.29622 0.0
N746 N 0.11507 0.48469 0.30599 0.0
H747 H 0.37684 0.54608 0.31941 0.0
H748 H 0.29502 0.37547 0.32307 0.0
H749 H 0.42111 0.4968 0.32417 0.0
H750 H 0.2505 0.42083 0.34423 0.0
H751 H 0.34126 0.42002 0.32105 0.0
H752 H 0.33015 0.50095 0.32585 0.0
C753 C 0.37663 0.52569 0.32198 0.0
C754 C 0.40272 0.52503 0.32136 0.0
C755 C 0.32143 0.42024 0.32635 0.0
C756 C 0.34964 0.47346 0.3282 0.0
C757 C 0.29496 0.39479 0.32748 0.0
C758 C 0.26879 0.39442 0.33371 0.0
C759 C 0.32184 0.44572 0.3311 0.0
C760 C 0.27014 0.42011 0.3394 0.0
C761 C 0.35006 0.49998 0.32559 0.0
C762 C 0.40142 0.49816 0.32414 0.0
N763 N 0.29623 0.44481 0.33767 0.0
N764 N 0.37532 0.47343 0.32736 0.0
H765 H 0.50064 0.92836 0.37554 0.0
H766 H 0.56652 0.84854 0.29391 0.0
H767 H 0.45612 0.87136 0.30947 0.0
H768 H 0.59806 0.88317 0.37854 0.0
H769 H 0.52384 0.85352 0.30184 0.0
H770 H 0.53552 0.9105 0.37931 0.0
C771 C 0.49847 0.91212 0.36184 0.0
C772 C 0.47639 0.90172 0.34154 0.0
C773 C 0.53973 0.85954 0.31908 0.0
C774 C 0.51524 0.88103 0.34582 0.0
C775 C 0.564 0.85663 0.31456 0.0
C776 C 0.58568 0.86571 0.33551 0.0
C777 C 0.5376 0.87238 0.34428 0.0
C778 C 0.58163 0.87597 0.36195 0.0
C779 C 0.51801 0.90175 0.36415 0.0
C780 C 0.47359 0.88032 0.32461 0.0
N781 N 0.55824 0.87966 0.36529 0.0
N782 N 0.49303 0.87084 0.32686 0.0
H783 H 0.10854 0.61651 0.27649 0.0
H784 H 0.166 0.71103 0.40913 0.0
H785 H 0.19287 0.63916 0.30855 0.0
H786 H 0.11089 0.72215 0.34238 0.0
H787 H 0.17646 0.6842 0.37446 0.0
H788 H 0.10788 0.65372 0.30273 0.0
C789 C 0.12697 0.62955 0.28901 0.0
C790 C 0.15078 0.62495 0.29053 0.0
C791 C 0.16275 0.69323 0.36702 0.0
C792 C 0.15007 0.66706 0.32095 0.0
C793 C 0.15689 0.70857 0.38667 0.0
C794 C 0.13808 0.71917 0.37812 0.0
C795 C 0.14878 0.68769 0.33928 0.0
C796 C 0.12614 0.71493 0.34928 0.0
C797 C 0.12667 0.65078 0.30384 0.0
C798 C 0.17404 0.64201 0.30727 0.0
N799 N 0.13128 0.69903 0.33106 0.0
N800 N 0.173 0.66218 0.32223 0.0
H801 H 0.84893 0.033 0.41128 0.0
H802 H 0.73259 0.99056 0.28334 0.0
H803 H 0.84017 0.09526 0.34562 0.0
H804 H 0.7409 0.92797 0.34959 0.0
H805 H 0.77448 0.02915 0.30303 0.0
H806 H 0.81244 -0.00592 0.38574 0.0
C807 C 0.8395 0.0383 0.39108 0.0
C808 C 0.8472 0.06701 0.38037 0.0
C809 C 0.76723 0.00699 0.31321 0.0
C810 C 0.80549 0.02311 0.35137 0.0
C811 C 0.74327 0.98491 0.30202 0.0
C812 C 0.73311 0.956 0.31508 0.0
C813 C 0.78115 0.00013 0.33764 0.0
C814 C 0.74783 0.94998 0.33914 0.0
C815 C 0.8187 0.01625 0.3766 0.0
C816 C 0.83469 0.07323 0.35425 0.0
N817 N 0.77108 0.9719 0.34976 0.0
N818 N 0.81415 0.05137 0.34074 0.0
H819 H 0.91019 0.78012 0.41085 0.0
H820 H 0.01978 0.74567 0.43979 0.0
H821 H 0.90469 0.7429 0.32764 0.0
H822 H 0.04207 0.77449 0.34099 0.0
H823 H 0.97415 0.74597 0.43354 0.0
H824 H 0.95546 0.77939 0.42062 0.0
C825 C 0.91838 0.77142 0.39495 0.0
C826 C 0.90369 0.76111 0.36871 0.0
C827 C -0.01089 0.75233 0.41329 0.0
C828 C 0.95539 0.76092 0.3791 0.0
C829 C 0.01495 0.75185 0.41672 0.0
C830 C 0.03465 0.76 0.3908 0.0
C831 C 0.98271 0.76058 0.38367 0.0
C832 C 0.02745 0.76812 0.36153 0.0
C833 C 0.94414 0.77111 0.40041 0.0
C834 C 0.91559 0.75103 0.34808 0.0
N835 N 0.0018 0.76791 0.35866 0.0
N836 N 0.94096 0.75138 0.35356 0.0
H837 H 0.23078 0.15404 0.39145 0.0
H838 H 0.133 0.21735 0.3481 0.0
H839 H 0.1385 0.09658 0.40757 0.0
H840 H 0.2102 0.265 0.39469 0.0
H841 H 0.13155 0.17223 0.37071 0.0
H842 H 0.22303 0.19505 0.3925 0.0
C843 C 0.20891 0.15001 0.39577 0.0
C844 C 0.18525 0.12186 0.39922 0.0
C845 C 0.14809 0.19246 0.37706 0.0
C846 C 0.17609 0.16882 0.3993 0.0
C847 C 0.1487 0.21813 0.36448 0.0
C848 C 0.17156 0.24474 0.36994 0.0
C849 C 0.17108 0.19378 0.39417 0.0
C850 C 0.19203 0.24479 0.39033 0.0
C851 C 0.20448 0.17343 0.39629 0.0
C852 C 0.15726 0.118 0.40396 0.0
N853 N 0.19184 0.21976 0.40102 0.0
N854 N 0.15335 0.14129 0.40318 0.0
H855 H 0.58772 0.5047 0.70651 0.0
H856 H 0.74234 0.59608 0.77067 0.0
H857 H 0.61224 0.4719 0.79015 0.0
H858 H 0.72955 0.60029 0.67248 0.0
H859 H 0.69241 0.55609 0.78175 0.0
H860 H 0.63689 0.54656 0.69787 0.0
C861 C 0.60343 0.50662 0.72329 0.0
C862 C 0.5962 0.48469 0.74878 0.0
C863 C 0.70057 0.5657 0.7578 0.0
C864 C 0.65223 0.53248 0.7393 0.0
C865 C 0.72902 0.58848 0.75141 0.0
C866 C 0.74012 0.60144 0.72056 0.0
C867 C 0.68278 0.55622 0.73323 0.0
C868 C 0.72194 0.59074 0.69654 0.0
C869 C 0.63144 0.53034 0.71826 0.0
C870 C 0.61703 0.4884 0.77026 0.0
N871 N 0.69402 0.56894 0.7034 0.0
N872 N 0.64424 0.5118 0.76497 0.0
H873 H 0.47994 0.11028 0.63547 0.0
H874 H 0.43553 0.20784 0.70118 0.0
H875 H 0.53415 0.17024 0.69488 0.0
H876 H 0.40792 0.18072 0.6123 0.0
H877 H 0.47711 0.2009 0.69401 0.0
H878 H 0.45867 0.14117 0.61976 0.0
C879 C 0.48799 0.13058 0.64421 0.0
C880 C 0.50828 0.13789 0.66661 0.0
C881 C 0.46243 0.19716 0.67563 0.0
C882 C 0.48398 0.17264 0.64983 0.0
C883 C 0.43863 0.20095 0.67987 0.0
C884 C 0.41808 0.19411 0.65765 0.0
C885 C 0.46502 0.18551 0.64952 0.0
C886 C 0.42319 0.18579 0.63016 0.0
C887 C 0.47597 0.14819 0.63536 0.0
C888 C 0.51822 0.16411 0.6777 0.0
N889 N 0.44578 0.18086 0.62724 0.0
N890 N 0.50544 0.18031 0.66978 0.0
H891 H 0.8777 0.37811 0.68292 0.0
H892 H 0.78855 0.20591 0.72641 0.0
H893 H 0.80082 0.33434 0.74574 0.0
H894 H 0.85371 0.25261 0.64946 0.0
H895 H 0.79292 0.25198 0.73583 0.0
H896 H 0.86926 0.33145 0.67131 0.0
C897 C 0.85869 0.35847 0.69369 0.0
C898 C 0.83966 0.35969 0.71485 0.0
C899 C 0.80609 0.25195 0.71682 0.0
C900 C 0.8301 0.3063 0.70266 0.0
C901 C 0.8037 0.22574 0.71155 0.0
C902 C 0.82069 0.22535 0.68707 0.0
C903 C 0.82581 0.27779 0.69765 0.0
C904 C 0.83999 0.25169 0.66851 0.0
C905 C 0.8539 0.33188 0.68733 0.0
C906 C 0.8156 0.33392 0.72893 0.0
N907 N 0.84205 0.27671 0.67425 0.0
N908 N 0.81156 0.3081 0.72279 0.0
H909 H 0.18658 0.94157 0.69338 0.0
H910 H 0.25469 0.11253 0.64922 0.0
H911 H 0.14048 0.98003 0.64485 0.0
H912 H 0.28908 0.07176 0.71559 0.0
H913 H 0.21375 0.06458 0.64476 0.0
H914 H 0.22513 0.98964 0.70078 0.0
C915 C 0.18447 0.96031 0.68497 0.0
C916 C 0.16051 0.95724 0.66894 0.0
C917 C 0.23029 0.06626 0.66031 0.0
C918 C 0.20454 0.01214 0.67617 0.0
C919 C 0.25373 0.09355 0.66267 0.0
C920 C 0.27526 0.09615 0.68287 0.0
C921 C 0.22866 0.04154 0.67805 0.0
C922 C 0.27291 0.07086 0.69985 0.0
C923 C 0.20643 0.98768 0.6889 0.0
C924 C 0.15864 0.98188 0.65773 0.0
N925 N 0.2501 0.0447 0.69701 0.0
N926 N 0.18058 0.00848 0.66129 0.0
H927 H 0.0414 0.24277 0.72071 0.0
H928 H 0.89324 0.13667 0.65729 0.0
H929 H 0.03462 0.18986 0.6518 0.0
H930 H 0.89623 0.1692 0.74342 0.0
H931 H 0.9449 0.1528 0.6579 0.0
H932 H 0.98838 0.21401 0.73253 0.0
C933 C 0.02857 0.22487 0.7084 0.0
C934 C 0.04172 0.21868 0.68501 0.0
C935 C 0.93429 0.15605 0.677 0.0
C936 C 0.98197 0.18599 0.69807 0.0
C937 C 0.90484 0.14687 0.67659 0.0
C938 C 0.89081 0.15202 0.70013 0.0
C939 C 0.94994 0.1712 0.70068 0.0
C940 C 0.90651 0.16499 0.72483 0.0
C941 C -0.00146 0.20842 0.71515 0.0
C942 C 0.02477 0.19529 0.66966 0.0
N943 N 0.93554 0.17477 0.72415 0.0
N944 N -0.00434 0.17994 0.67619 0.0
H945 H 0.77312 0.85674 0.63068 0.0
H946 H 0.8432 0.75396 0.63349 0.0
H947 H 0.85244 0.88193 0.57743 0.0
H948 H 0.77603 0.74206 0.69957 0.0
H949 H 0.841 0.79539 0.60424 0.0
H950 H 0.76718 0.80859 0.64659 0.0
C951 C 0.78866 0.85159 0.62142 0.0
C952 C 0.81295 0.87287 0.60235 0.0
C953 C 0.8266 0.78345 0.62499 0.0
C954 C 0.80728 0.81846 0.62144 0.0
C955 C 0.82782 0.75983 0.64164 0.0
C956 C 0.81012 0.74483 0.6693 0.0
C957 C 0.80725 0.79173 0.63591 0.0
C958 C 0.79047 0.75326 0.6787 0.0
C959 C 0.78559 0.82433 0.63082 0.0
C960 C 0.8332 0.86573 0.59178 0.0
N961 N 0.78967 0.77611 0.66218 0.0
N962 N 0.83013 0.83917 0.60175 0.0
H963 H 0.08984 0.83387 0.66904 0.0
H964 H 0.91731 0.76552 0.66953 0.0
H965 H 0.0492 0.88621 0.65165 0.0
H966 H 0.96052 0.71709 0.69907 0.0
H967 H 0.96451 0.81025 0.6639 0.0
H968 H 0.0419 0.79073 0.67976 0.0
C969 C 0.07065 0.83611 0.66735 0.0
C970 C 0.07326 0.8634 0.65944 0.0
C971 C 0.96354 0.78981 0.67189 0.0
C972 C 0.01828 0.81435 0.67189 0.0
C973 C 0.9366 0.76431 0.67526 0.0
C974 C 0.93497 0.73748 0.68449 0.0
C975 C -0.01108 0.78835 0.67771 0.0
C976 C 0.96069 0.73721 0.69155 0.0
C977 C 0.04331 0.8116 0.67369 0.0
C978 C 0.0479 0.86542 0.65791 0.0
N979 N 0.98652 0.76214 0.68776 0.0
N980 N 0.02138 0.84118 0.66397 0.0
H981 H 0.11836 0.20589 0.63206 0.0
H982 H 0.26449 0.2199 0.69849 0.0
H983 H 0.16148 0.25862 0.70213 0.0
H984 H 0.24016 0.20421 0.60535 0.0
H985 H 0.21948 0.22114 0.70897 0.0
H986 H 0.15622 0.19236 0.6308 0.0
C987 C 0.13602 0.21462 0.64705 0.0
C988 C 0.13766 0.2339 0.66656 0.0
C989 C 0.22392 0.21699 0.68646 0.0
C990 C 0.18019 0.21814 0.66604 0.0
C991 C 0.24934 0.21611 0.68058 0.0
C992 C 0.25591 0.21236 0.65094 0.0
C993 C 0.20504 0.21345 0.66267 0.0
C994 C 0.23588 0.20759 0.62835 0.0
C995 C 0.15735 0.20678 0.64657 0.0
C996 C 0.16011 0.24403 0.68649 0.0
N997 N 0.21133 0.20838 0.63465 0.0
N998 N 0.18081 0.23617 0.68561 0.0
H999 H 0.86113 0.00306 0.60233 0.0
H1000 H 0.79522 0.01052 0.76283 0.0
H1001 H 0.81623 0.93224 0.67728 0.0
H1002 H 0.82054 0.07659 0.68258 0.0
H1003 H 0.81849 0.98886 0.737 0.0
H1004 H 0.86043 0.03613 0.63592 0.0
C1005 C 0.85186 -0.00531 0.62613 0.0
C1006 C 0.8386 0.96496 0.6371 0.0
C1007 C 0.81931 0.00831 0.72506 0.0
C1008 C 0.83789 0.00231 0.67549 0.0
C1009 C 0.80602 0.02072 0.73981 0.0
C1010 C 0.80501 0.04477 0.72424 0.0
C1011 C 0.83127 0.0197 0.69426 0.0
C1012 C 0.82013 0.05757 0.6949 0.0
C1013 C 0.85146 0.01347 0.64522 0.0
C1014 C 0.82699 0.95503 0.66807 0.0
N1015 N 0.83208 0.04445 0.68041 0.0
N1016 N 0.82664 0.9736 0.68605 0.0
H1017 H 0.51695 0.42787 0.6807 0.0
H1018 H 0.40497 0.26156 0.67283 0.0
H1019 H 0.51202 0.35831 0.74717 0.0
H1020 H 0.41358 0.33319 0.60645 0.0
H1021 H 0.44569 0.2957 0.69922 0.0
H1022 H 0.48117 0.39264 0.65115 0.0
C1023 C 0.5086 0.40507 0.68866 0.0
C1024 C 0.51731 0.3958 0.71616 0.0
C1025 C 0.43867 0.30385 0.67879 0.0
C1026 C 0.47591 0.35528 0.68318 0.0
C1027 C 0.41536 0.2844 0.66387 0.0
C1028 C 0.40563 0.29457 0.63769 0.0
C1029 C 0.45226 0.33357 0.6673 0.0
C1030 C 0.4202 0.32433 0.62665 0.0
C1031 C 0.48803 0.38494 0.67203 0.0
C1032 C 0.50556 0.36608 0.72604 0.0
N1033 N 0.44265 0.34273 0.64158 0.0
N1034 N 0.48524 0.34677 0.70966 0.0
H1035 H 0.59304 0.13683 0.71762 0.0
H1036 H 0.66835 0.04239 0.70324 0.0
H1037 H 0.54762 0.05357 0.68807 0.0
H1038 H 0.71669 0.13518 0.69694 0.0
H1039 H 0.62344 0.04463 0.69967 0.0
H1040 H 0.63838 0.13498 0.71485 0.0
C1041 C 0.59277 0.11796 0.71115 0.0
C1042 C 0.56697 0.09505 0.70366 0.0
C1043 C 0.64393 0.06452 0.69859 0.0
C1044 C 0.61814 0.09291 0.69961 0.0
C1045 C 0.66952 0.06327 0.70049 0.0
C1046 C 0.69618 0.08862 0.70055 0.0
C1047 C 0.64503 0.09123 0.69746 0.0
C1048 C 0.69658 0.11513 0.69689 0.0
C1049 C 0.61849 0.11702 0.70911 0.0
C1050 C 0.56728 0.07125 0.69458 0.0
N1051 N 0.67128 0.1157 0.69605 0.0
N1052 N 0.59256 0.07067 0.69291 0.0
H1053 H 0.80683 0.43654 0.7529 0.0
H1054 H 0.86455 0.58235 0.63486 0.0
H1055 H 0.88704 0.47693 0.69566 0.0
H1056 H 0.82413 0.57539 0.72416 0.0
H1057 H 0.86058 0.53544 0.65091 0.0
H1058 H 0.80266 0.4805 0.73819 0.0
C1059 C 0.82352 0.45479 0.73736 0.0
C1060 C 0.84736 0.45355 0.72541 0.0
C1061 C 0.85229 0.54399 0.66693 0.0
C1062 C 0.84244 0.50281 0.70803 0.0
C1063 C 0.85439 0.57072 0.65777 0.0
C1064 C 0.84512 0.58307 0.67843 0.0
C1065 C 0.84063 0.52912 0.69695 0.0
C1066 C 0.83164 0.56667 0.70759 0.0
C1067 C 0.82118 0.47967 0.72905 0.0
C1068 C 0.86849 0.47738 0.70533 0.0
N1069 N 0.83003 0.54049 0.71622 0.0
N1070 N 0.86541 0.50093 0.697 0.0
H1071 H 0.50319 0.97564 0.29645 0.0
H1072 H 0.49763 0.94721 0.11994 0.0
H1073 H 0.44118 0.89716 0.26471 0.0
H1074 H 0.54008 0.03223 0.14651 0.0
H1075 H 0.48907 0.9261 0.17495 0.0
H1076 H 0.52817 0.99394 0.24372 0.0
C1077 C 0.49537 0.96212 0.27842 0.0
C1078 C 0.47028 0.93507 0.28445 0.0
C1079 C 0.50076 0.94939 0.16869 0.0
C1080 C 0.49823 0.95545 0.22469 0.0
C1081 C 0.50584 0.96149 0.13726 0.0
C1082 C 0.51902 0.99155 0.12863 0.0
C1083 C 0.50908 0.96748 0.19162 0.0
C1084 C 0.52936 0.00893 0.15215 0.0
C1085 C 0.50944 0.97248 0.24846 0.0
C1086 C 0.46057 0.91816 0.26062 0.0
N1087 N 0.52377 -0.00336 0.18262 0.0
N1088 N 0.47443 0.9287 0.23168 0.0
H1089 H 0.15822 0.58128 0.17986 0.0
H1090 H -0.00244 0.52545 0.12486 0.0
H1091 H 0.08143 0.53849 0.24272 0.0
H1092 H 0.07451 0.56999 0.06144 0.0
H1093 H 0.02792 0.5298 0.16828 0.0
H1094 H 0.12778 0.57384 0.13561 0.0
C1095 C 0.13483 0.56929 0.18412 0.0
C1096 C 0.12214 0.56025 0.21468 0.0
C1097 C 0.03823 0.53889 0.14492 0.0
C1098 C 0.08725 0.55276 0.16473 0.0
C1099 C 0.02092 0.53675 0.12013 0.0
C1100 C 0.03348 0.54735 0.08942 0.0
C1101 C 0.0684 0.55163 0.13903 0.0
C1102 C 0.06387 0.56167 0.08471 0.0
C1103 C 0.11748 0.56553 0.15903 0.0
C1104 C 0.09183 0.54536 0.21935 0.0
N1105 N 0.08027 0.56312 0.10923 0.0
N1106 N 0.07538 0.54243 0.19466 0.0
H1107 H 0.48315 0.53069 0.29607 0.0
H1108 H 0.45697 0.51586 0.11635 0.0
H1109 H 0.42588 0.55376 0.24591 0.0
H1110 H 0.50007 0.47774 0.17255 0.0
H1111 H 0.45021 0.53518 0.16169 0.0
H1112 H 0.49236 0.51388 0.24987 0.0
C1113 C 0.47204 0.53148 0.27535 0.0
C1114 C 0.45345 0.54302 0.27455 0.0
C1115 C 0.4614 0.52282 0.16396 0.0
C1116 C 0.46449 0.52506 0.22146 0.0
C1117 C 0.46562 0.51215 0.138 0.0
C1118 C 0.47889 0.495 0.14083 0.0
C1119 C 0.47073 0.51642 0.19273 0.0
C1120 C 0.48949 0.49065 0.16947 0.0
C1121 C 0.47748 0.52226 0.24895 0.0
C1122 C 0.43993 0.54441 0.24724 0.0
N1123 N 0.48499 0.5011 0.19436 0.0
N1124 N 0.44586 0.53571 0.22157 0.0
H1125 H 0.92969 0.45864 0.73915 0.0
H1126 H 0.93825 0.47841 0.91773 0.0
H1127 H 0.85491 0.43581 0.79952 0.0
H1128 H 0.01186 0.52978 0.85056 0.0
H1129 H 0.90825 0.45756 0.87541 0.0
H1130 H 0.96127 0.48223 0.77984 0.0
C1131 C 0.92013 0.45933 0.76081 0.0
C1132 C 0.88994 0.44566 0.76627 0.0
C1133 C 0.93101 0.47332 0.86998 0.0
C1134 C 0.92532 0.47128 0.81296 0.0
C1135 C 0.94823 0.48495 0.89416 0.0
C1136 C 0.97757 0.50594 0.88762 0.0
C1137 C 0.9433 0.48248 0.83914 0.0
C1138 C -0.01072 0.51374 0.85658 0.0
C1139 C 0.93798 0.47247 0.78402 0.0
C1140 C 0.8782 0.44652 0.79462 0.0
N1141 N 0.97209 0.50202 0.83344 0.0
N1142 N 0.89591 0.45877 0.81718 0.0
H1143 H 0.56154 0.4246 0.83056 0.0
H1144 H 0.44937 0.4603 0.90808 0.0
H1145 H 0.53052 0.47816 0.78207 0.0
H1146 H 0.49827 0.42861 0.96346 0.0
H1147 H 0.47614 0.46266 0.86118 0.0
H1148 H 0.53898 0.42496 0.87974 0.0
C1149 C 0.55111 0.43758 0.83067 0.0
C1150 C 0.54828 0.45185 0.80256 0.0
C1151 C 0.48088 0.45497 0.88356 0.0
C1152 C 0.52094 0.45098 0.858 0.0
C1153 C 0.46526 0.45317 0.91038 0.0
C1154 C 0.4716 0.44436 0.93991 0.0
C1155 C 0.50292 0.44769 0.88609 0.0
C1156 C 0.4925 0.43542 0.94127 0.0
C1157 C 0.53774 0.43732 0.85852 0.0
C1158 C 0.53365 0.46749 0.80347 0.0
N1159 N 0.50756 0.43751 0.91476 0.0
N1160 N 0.52005 0.46622 0.83065 0.0
H1161 H 0.52419 0.11741 0.77414 0.0
H1162 H 0.53062 -0.00289 0.89517 0.0
H1163 H 0.52006 0.04194 0.74572 0.0
H1164 H 0.49496 0.04854 0.92204 0.0
H1165 H 0.53138 0.01576 0.84048 0.0
H1166 H 0.51901 0.09581 0.82879 0.0
C1167 C 0.52208 0.09621 0.77953 0.0
C1168 C 0.52206 0.08113 0.75557 0.0
C1169 C 0.52309 0.02273 0.85827 0.0
C1170 C 0.5168 0.05663 0.81779 0.0
C1171 C 0.52263 0.01213 0.88946 0.0
C1172 C 0.51267 0.02132 0.91306 0.0
C1173 C 0.51417 0.04323 0.8506 0.0
C1174 C 0.50258 0.04077 0.90447 0.0
C1175 C 0.51912 0.08392 0.81062 0.0
C1176 C 0.52024 0.05418 0.76361 0.0
N1177 N 0.50397 0.05145 0.87385 0.0
N1178 N 0.51772 0.04275 0.79412 0.0
H1179 H 0.1632 0.30138 0.62533 0.0
H1180 H 0.15777 0.27633 0.44738 0.0
H1181 H 0.09338 0.22997 0.58976 0.0
H1182 H 0.20589 0.36063 0.47508 0.0
H1183 H 0.14493 0.2548 0.50225 0.0
H1184 H 0.18875 0.31919 0.57282 0.0
C1185 C 0.15349 0.28946 0.60639 0.0
C1186 C 0.12608 0.26469 0.61131 0.0
C1187 C 0.15878 0.27796 0.49629 0.0
C1188 C 0.155 0.28418 0.55199 0.0
C1189 C 0.16635 0.29028 0.46497 0.0
C1190 C 0.18247 0.32043 0.45659 0.0
C1191 C 0.16763 0.29586 0.5194 0.0
C1192 C 0.19304 0.33734 0.48049 0.0
C1193 C 0.16796 0.29948 0.57662 0.0
C1194 C 0.11427 0.24954 0.58644 0.0
N1195 N 0.18511 0.32486 0.51084 0.0
N1196 N 0.12875 0.25956 0.55778 0.0
H1197 H 0.75275 0.87471 0.58699 0.0
H1198 H 0.73425 0.9078 0.40531 0.0
H1199 H 0.82338 0.93467 0.52027 0.0
H1200 H 0.66354 0.84657 0.47202 0.0
H1201 H 0.7666 0.9205 0.44762 0.0
H1202 H 0.71937 0.86419 0.54525 0.0
C1203 C 0.76126 0.88485 0.56327 0.0
C1204 C 0.79079 0.90484 0.55661 0.0
C1205 C 0.74392 0.90451 0.45305 0.0
C1206 C 0.75292 0.89425 0.50912 0.0
C1207 C 0.72534 0.89754 0.42891 0.0
C1208 C 0.69617 0.87592 0.43503 0.0
C1209 C 0.73326 0.88969 0.4835 0.0
C1210 C 0.68594 0.8632 0.46614 0.0
C1211 C 0.74224 0.87935 0.53956 0.0
C1212 C 0.80077 0.91858 0.52588 0.0
N1213 N 0.70451 0.87002 0.48912 0.0
N1214 N 0.78189 0.91312 0.50324 0.0
H1215 H 0.09214 0.88544 0.58522 0.0
H1216 H 0.15214 0.79419 0.51285 0.0
H1217 H 0.15055 0.86144 0.63131 0.0
H1218 H 0.11869 0.8425 0.45692 0.0
H1219 H 0.14862 0.81535 0.55784 0.0
H1220 H 0.09632 0.86451 0.53978 0.0
C1221 C 0.10524 0.87505 0.58588 0.0
C1222 C 0.12083 0.87475 0.61175 0.0
C1223 C 0.14235 0.82158 0.53567 0.0
C1224 C 0.12635 0.85158 0.56023 0.0
C1225 C 0.14449 0.80965 0.50997 0.0
C1226 C 0.13571 0.81666 0.48117 0.0
C1227 C 0.13082 0.84027 0.53274 0.0
C1228 C 0.1259 0.83673 0.47867 0.0
C1229 C 0.10801 0.86357 0.55995 0.0
C1230 C 0.13808 0.86172 0.61166 0.0
N1231 N 0.12334 0.84758 0.5043 0.0
N1232 N 0.14044 0.85064 0.58623 0.0
H1233 H 0.59685 0.81545 0.07492 0.0
H1234 H 0.60442 0.80154 0.2604 0.0
H1235 H 0.52907 0.74809 0.1398 0.0
H1236 H 0.67486 0.86579 0.19504 0.0
H1237 H 0.57591 0.78215 0.21663 0.0
H1238 H 0.62457 0.83673 0.11889 0.0
C1239 C 0.58758 0.80579 0.09856 0.0
C1240 C 0.56075 0.78043 0.10419 0.0
C1241 C 0.59768 0.8004 0.21189 0.0
C1242 C 0.59221 0.80354 0.15422 0.0
C1243 C 0.61406 0.81127 0.23688 0.0
C1244 C 0.64199 0.8354 0.23138 0.0
C1245 C 0.60932 0.81378 0.18125 0.0
C1246 C 0.65333 0.84725 0.20038 0.0
C1247 C 0.60342 0.81754 0.12358 0.0
C1248 C 0.54963 0.76795 0.13495 0.0
N1249 N 0.63689 0.83645 0.1765 0.0
N1250 N 0.56548 0.77952 0.1589 0.0
H1251 H 0.18972 0.82167 0.11319 0.0
H1252 H 0.16431 0.76362 0.2962 0.0
H1253 H 0.22346 0.76808 0.15507 0.0
H1254 H 0.11283 0.79447 0.24473 0.0
H1255 H 0.18998 0.7682 0.24699 0.0
H1256 H 0.16846 0.81908 0.16434 0.0
C1257 C 0.19369 0.81044 0.13358 0.0
C1258 C 0.20862 0.79545 0.13024 0.0
C1259 C 0.17281 0.77361 0.24654 0.0
C1260 C 0.18323 0.79098 0.18851 0.0
C1261 C 0.1578 0.77057 0.27457 0.0
C1262 C 0.13636 0.77875 0.27469 0.0
C1263 C 0.16653 0.78519 0.21857 0.0
C1264 C 0.12924 0.78802 0.24588 0.0
C1265 C 0.18103 0.80834 0.1626 0.0
C1266 C 0.21252 0.78036 0.15704 0.0
N1267 N 0.14453 0.79136 0.21913 0.0
N1268 N 0.19956 0.77816 0.18512 0.0
H1269 H 0.18443 0.37216 0.07097 0.0
H1270 H 0.16425 0.38032 0.25157 0.0
H1271 H 0.18445 0.44434 0.10326 0.0
H1272 H 0.15963 0.30655 0.21755 0.0
H1273 H 0.16735 0.40266 0.19754 0.0
H1274 H 0.17327 0.34685 0.12489 0.0
C1275 C 0.18214 0.38258 0.08959 0.0
C1276 C 0.18508 0.41007 0.08299 0.0
C1277 C 0.16522 0.38139 0.20196 0.0
C1278 C 0.17217 0.38158 0.14439 0.0
C1279 C 0.16312 0.36852 0.23281 0.0
C1280 C 0.16198 0.3417 0.239 0.0
C1281 C 0.1662 0.36728 0.17733 0.0
C1282 C 0.16085 0.32744 0.21379 0.0
C1283 C 0.17557 0.36819 0.12024 0.0
C1284 C 0.18192 0.42292 0.10764 0.0
N1285 N 0.16332 0.34053 0.18412 0.0
N1286 N 0.17565 0.40859 0.1373 0.0
H1287 H 0.83655 0.64553 0.95782 0.0
H1288 H 0.83018 0.61719 0.78106 0.0
H1289 H 0.77288 0.56795 0.92579 0.0
H1290 H 0.87191 0.70244 0.80704 0.0
H1291 H 0.8213 0.59639 0.8362 0.0
H1292 H 0.86079 0.66407 0.9047 0.0
C1293 C 0.8281 0.63233 0.93958 0.0
C1294 C 0.80275 0.60548 0.94565 0.0
C1295 C 0.83292 0.61966 0.82978 0.0
C1296 C 0.83004 0.62599 0.88559 0.0
C1297 C 0.83821 0.63158 0.79829 0.0
C1298 C 0.8513 0.66161 0.78944 0.0
C1299 C 0.84095 0.63789 0.85254 0.0
C1300 C 0.86131 0.67915 0.81286 0.0
C1301 C 0.84178 0.64279 0.90945 0.0
C1302 C 0.79235 0.5889 0.92162 0.0
N1303 N 0.85555 0.66703 0.84339 0.0
N1304 N 0.80594 0.59946 0.89256 0.0
H1305 H 0.47335 0.24857 0.85802 0.0
H1306 H 0.3192 0.19704 0.78796 0.0
H1307 H 0.39189 0.19064 0.9105 0.0
H1308 H 0.39986 0.2414 0.73043 0.0
H1309 H 0.34618 0.1986 0.83383 0.0
H1310 H 0.44756 0.24696 0.81074 0.0
C1311 C 0.45007 0.23452 0.85911 0.0
C1312 C 0.43462 0.21927 0.88775 0.0
C1313 C 0.35803 0.20829 0.81122 0.0
C1314 C 0.40483 0.21851 0.83462 0.0
C1315 C 0.34268 0.20783 0.78505 0.0
C1316 C 0.35725 0.21894 0.75523 0.0
C1317 C 0.38823 0.22005 0.80762 0.0
C1318 C 0.38769 0.23265 0.75291 0.0
C1319 C 0.4353 0.23404 0.8324 0.0
C1320 C 0.40444 0.20214 0.88856 0.0
N1321 N 0.40216 0.23251 0.77874 0.0
N1322 N 0.39042 0.20253 0.86245 0.0
H1323 H 0.78179 0.24084 0.90043 0.0
H1324 H 0.76273 0.0956 0.84992 0.0
H1325 H 0.77503 0.17021 0.96649 0.0
H1326 H 0.79385 0.17541 0.7862 0.0
H1327 H 0.76184 0.12037 0.89267 0.0
H1328 H 0.77961 0.21443 0.85785 0.0
C1329 C 0.77949 0.21954 0.90581 0.0
C1330 C 0.77873 0.20759 0.93671 0.0
C1331 C 0.76897 0.13246 0.86936 0.0
C1332 C 0.77633 0.17735 0.88853 0.0
C1333 C 0.76952 0.11838 0.84492 0.0
C1334 C 0.77841 0.13348 0.8144 0.0
C1335 C 0.77704 0.16179 0.86323 0.0
C1336 C 0.787 0.16296 0.80936 0.0
C1337 C 0.7784 0.20457 0.88164 0.0
C1338 C 0.77546 0.1799 0.94286 0.0
N1339 N 0.78593 0.17612 0.83352 0.0
N1340 N 0.77453 0.16568 0.91889 0.0
H1341 H 0.26934 0.12651 0.4035 0.0
H1342 H 0.27671 0.14111 0.58413 0.0
H1343 H 0.1937 0.09462 0.46637 0.0
H1344 H 0.34606 0.20078 0.51516 0.0
H1345 H 0.24875 0.1156 0.54269 0.0
H1346 H 0.30032 0.14752 0.44563 0.0
C1347 C 0.25945 0.12434 0.42622 0.0
C1348 C 0.22924 0.10939 0.43179 0.0
C1349 C 0.27024 0.13408 0.53676 0.0
C1350 C 0.26394 0.13214 0.47987 0.0
C1351 C 0.28633 0.14843 0.56038 0.0
C1352 C 0.31355 0.17328 0.55292 0.0
C1353 C 0.28169 0.14451 0.50567 0.0
C1354 C 0.32497 0.18189 0.52178 0.0
C1355 C 0.27694 0.13604 0.45016 0.0
C1356 C 0.21702 0.1065 0.46143 0.0
N1357 N 0.30888 0.16762 0.4992 0.0
N1358 N 0.23445 0.11766 0.48456 0.0
H1359 H 0.89162 0.09549 0.49212 0.0
H1360 H 0.78349 0.13261 0.57592 0.0
H1361 H 0.86214 0.15174 0.44717 0.0
H1362 H 0.82909 0.09457 0.62732 0.0
H1363 H 0.81021 0.13692 0.52805 0.0
H1364 H 0.87016 0.09521 0.54228 0.0
C1365 C 0.8818 0.10891 0.49326 0.0
C1366 C 0.87899 0.12407 0.46585 0.0
C1367 C 0.81426 0.12746 0.54977 0.0
C1368 C 0.85292 0.12257 0.52238 0.0
C1369 C 0.79868 0.12458 0.57711 0.0
C1370 C 0.80402 0.11323 0.60583 0.0
C1371 C 0.83529 0.11877 0.55098 0.0
C1372 C 0.82406 0.10327 0.60579 0.0
C1373 C 0.86905 0.1083 0.52165 0.0
C1374 C 0.86519 0.14032 0.46803 0.0
N1375 N 0.83908 0.10642 0.57882 0.0
N1376 N 0.85216 0.13873 0.49573 0.0
H1377 H 0.85987 0.7058 0.40509 0.0
H1378 H 0.81902 0.70838 0.58175 0.0
H1379 H 0.84215 0.77047 0.43117 0.0
H1380 H 0.87172 0.67241 0.55671 0.0
H1381 H 0.81786 0.72389 0.52599 0.0
H1382 H 0.85565 0.68612 0.46056 0.0
C1383 C 0.85489 0.71564 0.42256 0.0
C1384 C 0.851 0.73947 0.41373 0.0
C1385 C 0.82948 0.71241 0.53284 0.0
C1386 C 0.84572 0.7171 0.47678 0.0
C1387 C 0.82997 0.70343 0.56454 0.0
C1388 C 0.84562 0.68927 0.57376 0.0
C1389 C 0.84424 0.70662 0.51042 0.0
C1390 C 0.85962 0.68352 0.55058 0.0
C1391 C 0.85243 0.70447 0.45407 0.0
C1392 C 0.84461 0.75163 0.43711 0.0
N1393 N 0.85857 0.69216 0.52002 0.0
N1394 N 0.84205 0.74025 0.46758 0.0
loop_
_geom_bond_atom_site_label_1
_geom_bond_atom_site_label_2
_geom_bond_distance
_geom_bond_site_symmetry_2
_ccdc_geom_bond_type
C0 N1 1.317 . S
C0 N2 1.348 . S
C0 C3 1.485 . S
N1 C0 1.317 . S
N1 N5 1.370 . S
N2 C0 1.348 . S
N2 C4 1.346 . S
C3 C0 1.485 . S
C3 H7 0.960 . S
C3 H8 0.961 . S
C3 H9 0.960 . S
C4 N2 1.346 . S
C4 N5 1.307 . S
C4 C6 1.486 . S
N5 N1 1.370 . S
N5 C4 1.307 . S
C6 C4 1.486 . S
C6 H10 0.960 . S
C6 H11 0.960 . S
C6 H12 0.959 . S
H7 C3 0.960 . S
H8 C3 0.961 . S
H9 C3 0.960 . S
H10 C6 0.960 . S
H11 C6 0.960 . S
H12 C6 0.959 . S
C13 N14 1.317 . S
C13 N15 1.348 . S
C13 C16 1.485 . S
N14 C13 1.317 . S
N14 N18 1.370 . S
N15 C13 1.348 . S
N15 C17 1.346 . S
C16 C13 1.485 . S
C16 H20 0.960 . S
C16 H21 0.961 . S
C16 H22 0.960 . S
C17 N15 1.346 . S
C17 N18 1.307 . S
C17 C19 1.486 . S
N18 N14 1.370 . S
N18 C17 1.307 . S
C19 C17 1.486 . S
C19 H23 0.960 . S
C19 H24 0.960 . S
C19 H25 0.959 . S
H20 C16 0.960 . S
H21 C16 0.961 . S
H22 C16 0.960 . S
H23 C19 0.960 . S
H24 C19 0.960 . S
H25 C19 0.959 . S
C26 N27 1.317 . S
C26 N28 1.348 . S
C26 C29 1.485 . S
N27 C26 1.317 . S
N27 N31 1.370 . S
N28 C26 1.348 . S
N28 C30 1.346 . S
C29 C26 1.485 . S
C29 H33 0.960 . S
C29 H34 0.961 . S
C29 H35 0.960 . S
C30 N28 1.346 . S
C30 N31 1.307 . S
C30 C32 1.486 . S
N31 N27 1.370 . S
N31 C30 1.307 . S
C32 C30 1.486 . S
C32 H36 0.960 . S
C32 H37 0.960 . S
C32 H38 0.959 . S
H33 C29 0.960 . S
H34 C29 0.961 . S
H35 C29 0.960 . S
H36 C32 0.960 . S
H37 C32 0.960 . S
H38 C32 0.959 . S
C39 N40 1.317 . S
C39 N41 1.348 . S
C39 C42 1.485 . S
N40 C39 1.317 . S
N40 N44 1.370 . S
N41 C39 1.348 . S
N41 C43 1.346 . S
C42 C39 1.485 . S
C42 H46 0.960 . S
C42 H47 0.961 . S
C42 H48 0.960 . S
C43 N41 1.346 . S
C43 N44 1.307 . S
C43 C45 1.486 . S
N44 N40 1.370 . S
N44 C43 1.307 . S
C45 C43 1.486 . S
C45 H49 0.960 . S
C45 H50 0.960 . S
C45 H51 0.959 . S
H46 C42 0.960 . S
H47 C42 0.961 . S
H48 C42 0.960 . S
H49 C45 0.960 . S
H50 C45 0.960 . S
H51 C45 0.959 . S
C52 N53 1.317 . S
C52 N54 1.348 . S
C52 C55 1.485 . S
N53 C52 1.317 . S
N53 N57 1.370 . S
N54 C52 1.348 . S
N54 C56 1.346 . S
C55 C52 1.485 . S
C55 H59 0.960 . S
C55 H60 0.961 . S
C55 H61 0.960 . S
C56 N54 1.346 . S
C56 N57 1.307 . S
C56 C58 1.486 . S
N57 N53 1.370 . S
N57 C56 1.307 . S
C58 C56 1.486 . S
C58 H62 0.960 . S
C58 H63 0.960 . S
C58 H64 0.959 . S
H59 C55 0.960 . S
H60 C55 0.961 . S
H61 C55 0.960 . S
H62 C58 0.960 . S
H63 C58 0.960 . S
H64 C58 0.959 . S
C65 N66 1.317 . S
C65 N67 1.348 . S
C65 C68 1.485 . S
N66 C65 1.317 . S
N66 N70 1.370 . S
N67 C65 1.348 . S
N67 C69 1.346 . S
C68 C65 1.485 . S
C68 H72 0.960 . S
C68 H73 0.961 . S
C68 H74 0.960 . S
C69 N67 1.346 . S
C69 N70 1.307 . S
C69 C71 1.486 . S
N70 N66 1.370 . S
N70 C69 1.307 . S
C71 C69 1.486 . S
C71 H75 0.960 . S
C71 H76 0.960 . S
C71 H77 0.959 . S
H72 C68 0.960 . S
H73 C68 0.961 . S
H74 C68 0.960 . S
H75 C71 0.960 . S
H76 C71 0.960 . S
H77 C71 0.959 . S
C78 N79 1.317 . S
C78 N80 1.348 . S
C78 C81 1.485 . S
N79 C78 1.317 . S
N79 N83 1.370 . S
N80 C78 1.348 . S
N80 C82 1.346 . S
C81 C78 1.485 . S
C81 H85 0.960 . S
C81 H86 0.961 . S
C81 H87 0.960 . S
C82 N80 1.346 . S
C82 N83 1.307 . S
C82 C84 1.486 . S
N83 N79 1.370 . S
N83 C82 1.307 . S
C84 C82 1.486 . S
C84 H88 0.960 . S
C84 H89 0.960 . S
C84 H90 0.959 . S
H85 C81 0.960 . S
H86 C81 0.961 . S
H87 C81 0.960 . S
H88 C84 0.960 . S
H89 C84 0.960 . S
H90 C84 0.959 . S
C91 N92 1.317 . S
C91 N93 1.348 . S
C91 C94 1.485 . S
N92 C91 1.317 . S
N92 N96 1.370 . S
N93 C91 1.348 . S
N93 C95 1.346 . S
C94 C91 1.485 . S
C94 H98 0.960 . S
C94 H99 0.961 . S
C94 H100 0.960 . S
C95 N93 1.346 . S
C95 N96 1.307 . S
C95 C97 1.486 . S
N96 N92 1.370 . S
N96 C95 1.307 . S
C97 C95 1.486 . S
C97 H101 0.960 . S
C97 H102 0.960 . S
C97 H103 0.959 . S
H98 C94 0.960 . S
H99 C94 0.961 . S
H100 C94 0.960 . S
H101 C97 0.960 . S
H102 C97 0.960 . S
H103 C97 0.959 . S
C104 N105 1.317 . S
C104 N106 1.348 . S
C104 C107 1.485 . S
N105 C104 1.317 . S
N105 N109 1.370 . S
N106 C104 1.348 . S
N106 C108 1.346 . S
C107 C104 1.485 . S
C107 H111 0.960 . S
C107 H112 0.961 . S
C107 H113 0.960 . S
C108 N106 1.346 . S
C108 N109 1.307 . S
C108 C110 1.486 . S
N109 N105 1.370 . S
N109 C108 1.307 . S
C110 C108 1.486 . S
C110 H114 0.960 . S
C110 H115 0.960 . S
C110 H116 0.959 . S
H111 C107 0.960 . S
H112 C107 0.961 . S
H113 C107 0.960 . S
H114 C110 0.960 . S
H115 C110 0.960 . S
H116 C110 0.959 . S
C117 N118 1.317 1_554 S
C117 N119 1.362 . S
C117 C120 1.485 . S
N118 C117 1.317 1_556 S
N118 N122 1.370 . S
N119 C117 1.362 . S
N119 C121 1.312 1_554 S
C120 C117 1.485 . S
C120 H124 0.960 . S
C120 H125 0.961 . S
C120 H126 0.960 . S
C121 N119 1.312 1_556 S
C121 N122 1.307 . S
C121 C123 1.486 . S
N122 N118 1.370 . S
N122 C121 1.307 . S
C123 C121 1.486 . S
C123 H127 0.960 . S
C123 H128 0.960 . S
C123 H129 0.959 . S
H124 C120 0.960 . S
H125 C120 0.961 . S
H126 C120 0.960 . S
H127 C123 0.960 . S
H128 C123 0.960 . S
H129 C123 0.959 . S
C130 N131 1.317 1_554 S
C130 N132 1.348 . S
C130 C133 1.485 . S
N131 C130 1.317 1_556 S
N131 N135 1.370 . S
N132 C130 1.348 . S
N132 C134 1.346 1_554 S
C133 C130 1.485 . S
C133 H137 0.960 . S
C133 H138 0.961 . S
C133 H139 0.960 . S
C134 N132 1.346 1_556 S
C134 N135 1.307 . S
C134 C136 1.486 . S
N135 N131 1.370 . S
N135 C134 1.307 . S
C136 C134 1.486 . S
C136 H140 0.960 . S
C136 H141 0.960 . S
C136 H142 0.959 . S
H137 C133 0.960 . S
H138 C133 0.961 . S
H139 C133 0.960 . S
H140 C136 0.960 . S
H141 C136 0.960 . S
H142 C136 0.959 . S
C143 N144 1.317 1_554 S
C143 N145 1.348 . S
C143 C146 1.485 . S
N144 C143 1.317 1_556 S
N144 N148 1.370 . S
N145 C143 1.348 . S
N145 C147 1.346 1_554 S
C146 C143 1.485 . S
C146 H150 0.960 . S
C146 H151 0.961 . S
C146 H152 0.960 . S
C147 N145 1.346 1_556 S
C147 N148 1.307 . S
C147 C149 1.486 . S
N148 N144 1.370 . S
N148 C147 1.307 . S
C149 C147 1.486 . S
C149 H153 0.960 . S
C149 H154 0.960 . S
C149 H155 0.959 . S
H150 C146 0.960 . S
H151 C146 0.961 . S
H152 C146 0.960 . S
H153 C149 0.960 . S
H154 C149 0.960 . S
H155 C149 0.959 . S
C156 N157 1.317 . S
C156 N158 1.348 . S
C156 C159 1.485 1_554 S
N157 C156 1.317 . S
N157 N161 1.370 . S
N158 C156 1.348 . S
N158 C160 1.346 . S
C159 C156 1.485 1_556 S
C159 H163 0.960 . S
C159 H164 0.961 . S
C159 H165 0.960 . S
C160 N158 1.346 . S
C160 N161 1.307 . S
C160 C162 1.486 . S
N161 N157 1.370 . S
N161 C160 1.307 . S
C162 C160 1.486 . S
C162 H166 0.960 . S
C162 H167 0.960 . S
C162 H168 0.959 . S
H163 C159 0.960 . S
H164 C159 0.961 . S
H165 C159 0.960 . S
H166 C162 0.960 . S
H167 C162 0.960 . S
H168 C162 0.959 . S
C169 N170 1.317 . S
C169 N171 1.348 . S
C169 C172 1.485 1_554 S
N170 C169 1.317 . S
N170 N174 1.370 . S
N171 C169 1.348 . S
N171 C173 1.346 . S
C172 C169 1.485 1_556 S
C172 H176 0.960 . S
C172 H177 0.961 . S
C172 H178 0.960 . S
C173 N171 1.346 . S
C173 N174 1.307 . S
C173 C175 1.486 . S
N174 N170 1.370 . S
N174 C173 1.307 . S
C175 C173 1.486 . S
C175 H179 0.960 . S
C175 H180 0.960 . S
C175 H181 0.959 . S
H176 C172 0.960 . S
H177 C172 0.961 . S
H178 C172 0.960 . S
H179 C175 0.960 . S
H180 C175 0.960 . S
H181 C175 0.959 . S
C182 N183 1.317 . S
C182 N184 1.348 . S
C182 C185 1.485 1_554 S
N183 C182 1.317 . S
N183 N187 1.370 . S
N184 C182 1.348 . S
N184 C186 1.346 . S
C185 C182 1.485 1_556 S
C185 H189 0.960 . S
C185 H190 0.961 . S
C185 H191 0.960 . S
C186 N184 1.346 . S
C186 N187 1.307 . S
C186 C188 1.486 . S
N187 N183 1.370 . S
N187 C186 1.307 . S
C188 C186 1.486 . S
C188 H192 0.960 . S
C188 H193 0.960 . S
C188 H194 0.959 . S
H189 C185 0.960 . S
H190 C185 0.961 . S
H191 C185 0.960 . S
H192 C188 0.960 . S
H193 C188 0.960 . S
H194 C188 0.959 . S
C195 N196 1.317 . S
C195 N197 1.348 . S
C195 C198 1.485 . S
N196 C195 1.317 . S
N196 N200 1.370 . S
N197 C195 1.348 . S
N197 C199 1.346 . S
C198 C195 1.485 . S
C198 H202 0.960 . S
C198 H203 0.961 . S
C198 H204 0.960 . S
C199 N197 1.346 . S
C199 N200 1.307 . S
C199 C201 1.486 . S
N200 N196 1.370 . S
N200 C199 1.307 . S
C201 C199 1.486 . S
C201 H205 0.960 . S
C201 H206 0.960 . S
C201 H207 0.959 . S
H202 C198 0.960 . S
H203 C198 0.961 . S
H204 C198 0.960 . S
H205 C201 0.960 . S
H206 C201 0.960 . S
H207 C201 0.959 . S
C208 N209 1.317 . S
C208 N210 1.348 . S
C208 C211 1.485 . S
N209 C208 1.317 . S
N209 N213 1.370 . S
N210 C208 1.348 . S
N210 C212 1.346 . S
C211 C208 1.485 . S
C211 H215 0.960 . S
C211 H216 0.961 . S
C211 H217 0.960 . S
C212 N210 1.346 . S
C212 N213 1.307 . S
C212 C214 1.486 . S
N213 N209 1.370 . S
N213 C212 1.307 . S
C214 C212 1.486 . S
C214 H218 0.960 . S
C214 H219 0.960 . S
C214 H220 0.959 . S
H215 C211 0.960 . S
H216 C211 0.961 . S
H217 C211 0.960 . S
H218 C214 0.960 . S
H219 C214 0.960 . S
H220 C214 0.959 . S
C221 N222 1.317 . S
C221 N223 1.348 . S
C221 C224 1.485 . S
N222 C221 1.317 . S
N222 N226 1.370 . S
N223 C221 1.348 . S
N223 C225 1.346 . S
C224 C221 1.485 . S
C224 H228 0.960 . S
C224 H229 0.961 . S
C224 H230 0.960 . S
C225 N223 1.346 . S
C225 N226 1.307 . S
C225 C227 1.486 . S
N226 N222 1.370 . S
N226 C225 1.307 . S
C227 C225 1.486 . S
C227 H231 0.960 . S
C227 H232 0.960 . S
C227 H233 0.959 . S
H228 C224 0.960 . S
H229 C224 0.961 . S
H230 C224 0.960 . S
H231 C227 0.960 . S
H232 C227 0.960 . S
H233 C227 0.959 . S
O234 Mg235 1.990 . S
O234 C248 1.253 . S
Mg235 O234 1.990 . S
Mg235 O238 2.180 1_546 S
Mg235 O239 2.117 1_545 S
Mg235 O253 2.030 . S
O236 Mg237 2.072 1_556 S
O236 C248 1.260 . S
Mg237 O236 2.072 1_554 S
Mg237 O238 2.099 1_545 S
Mg237 O240 2.079 1_545 S
Mg237 O241 2.072 1_545 S
Mg237 O243 2.099 . S
Mg237 O254 2.079 . S
O238 Mg235 2.180 1_564 S
O238 Mg237 2.099 1_565 S
O238 C249 1.279 . S
O239 Mg235 2.117 1_565 S
O239 C249 1.250 1_556 S
O240 Mg237 2.079 1_565 S
O240 C250 1.264 . S
O241 Mg237 2.072 1_565 S
O241 C251 1.260 . S
Mg242 O243 2.180 . S
Mg242 O244 2.030 1_545 S
Mg242 O245 1.990 1_545 S
Mg242 O246 2.117 . S
O243 Mg237 2.099 . S
O243 Mg242 2.180 . S
O243 C252 1.279 . S
O244 Mg242 2.030 1_565 S
O244 C250 1.248 . S
O245 Mg242 1.990 1_565 S
O245 C251 1.253 . S
O246 Mg242 2.117 . S
O246 C252 1.250 . S
C247 O253 1.248 1_554 S
C247 O254 1.264 . S
C248 O234 1.253 . S
C248 O236 1.260 . S
C249 O238 1.279 . S
C249 O239 1.250 1_554 S
C250 O240 1.264 . S
C250 O244 1.248 . S
C251 O241 1.260 . S
C251 O245 1.253 . S
C252 O243 1.279 . S
C252 O246 1.250 . S
O253 Mg235 2.030 . S
O253 C247 1.248 1_556 S
O254 Mg237 2.079 . S
O254 C247 1.264 . S
O255 Mg256 1.990 . S
O255 C269 1.253 1_455 S
Mg256 O255 1.990 . S
Mg256 O259 2.180 . S
Mg256 O260 2.117 . S
Mg256 O274 2.030 1_455 S
O257 Mg258 2.072 1_656 S
O257 C269 1.260 . S
Mg258 O257 2.072 1_454 S
Mg258 O259 2.099 1_554 S
Mg258 O261 2.079 . S
Mg258 O262 2.072 . S
Mg258 O264 2.099 1_455 S
Mg258 O275 2.079 1_455 S
O259 Mg256 2.180 . S
O259 Mg258 2.099 1_556 S
O259 C270 1.279 . S
O260 Mg256 2.117 . S
O260 C270 1.250 . S
O261 Mg258 2.079 . S
O261 C271 1.264 . S
O262 Mg258 2.072 . S
O262 C272 1.260 . S
Mg263 O264 2.180 1_455 S
Mg263 O265 2.030 . S
Mg263 O266 1.990 . S
Mg263 O267 2.117 1_455 S
O264 Mg258 2.099 1_655 S
O264 Mg263 2.180 1_655 S
O264 C273 1.279 . S
O265 Mg263 2.030 . S
O265 C271 1.248 . S
O266 Mg263 1.990 . S
O266 C272 1.253 . S
O267 Mg263 2.117 1_655 S
O267 C273 1.250 . S
C268 O274 1.248 . S
C268 O275 1.264 1_556 S
C269 O255 1.253 1_655 S
C269 O257 1.260 . S
C270 O259 1.279 . S
C270 O260 1.250 . S
C271 O261 1.264 . S
C271 O265 1.248 . S
C272 O262 1.260 . S
C272 O266 1.253 . S
C273 O264 1.279 . S
C273 O267 1.250 . S
O274 Mg256 2.030 1_655 S
O274 C268 1.248 . S
O275 Mg258 2.079 1_655 S
O275 C268 1.264 1_554 S
O276 Mg277 1.990 . S
O276 C290 1.253 . S
Mg277 O276 1.990 . S
Mg277 O280 2.180 . S
Mg277 O281 2.117 . S
Mg277 O295 2.030 . S
O278 Mg279 2.072 . S
O278 C290 1.260 . S
Mg279 O278 2.072 . S
Mg279 O280 2.099 . S
Mg279 O282 2.079 1_554 S
Mg279 O283 2.072 . S
Mg279 O285 2.099 . S
Mg279 O296 2.079 . S
O280 Mg277 2.180 . S
O280 Mg279 2.099 . S
O280 C291 1.279 . S
O281 Mg277 2.117 . S
O281 C291 1.250 . S
O282 Mg279 2.079 1_556 S
O282 C292 1.264 . S
O283 Mg279 2.072 . S
O283 C293 1.260 . S
Mg284 O285 2.180 1_556 S
Mg284 O286 2.030 . S
Mg284 O287 1.990 1_556 S
Mg284 O288 2.117 1_556 S
O285 Mg279 2.099 . S
O285 Mg284 2.180 1_554 S
O285 C294 1.279 . S
O286 Mg284 2.030 . S
O286 C292 1.248 . S
O287 Mg284 1.990 1_554 S
O287 C293 1.253 . S
O288 Mg284 2.117 1_554 S
O288 C294 1.250 . S
C289 O295 1.248 . S
C289 O296 1.264 . S
C290 O276 1.253 . S
C290 O278 1.260 . S
C291 O280 1.279 . S
C291 O281 1.250 . S
C292 O282 1.264 . S
C292 O286 1.248 . S
C293 O283 1.260 . S
C293 O287 1.253 . S
C294 O285 1.279 . S
C294 O288 1.250 . S
O295 Mg277 2.030 . S
O295 C289 1.248 . S
O296 Mg279 2.079 . S
O296 C289 1.264 . S
O297 Mg298 1.990 . S
O297 C311 1.253 . S
Mg298 O297 1.990 . S
Mg298 O301 2.180 . S
Mg298 O302 2.117 . S
Mg298 O316 2.030 . S
O299 Mg300 2.072 . S
O299 C311 1.260 . S
Mg300 O299 2.072 . S
Mg300 O301 2.099 . S
Mg300 O303 2.079 . S
Mg300 O304 2.072 . S
Mg300 O306 2.099 . S
Mg300 O317 2.079 . S
O301 Mg298 2.180 . S
O301 Mg300 2.099 . S
O301 C312 1.279 . S
O302 Mg298 2.117 . S
O302 C312 1.250 . S
O303 Mg300 2.079 . S
O303 C313 1.264 . S
O304 Mg300 2.072 . S
O304 C314 1.260 . S
Mg305 O306 2.180 . S
Mg305 O307 2.030 . S
Mg305 O308 1.990 . S
Mg305 O309 2.117 . S
O306 Mg300 2.099 . S
O306 Mg305 2.180 . S
O306 C315 1.279 . S
O307 Mg305 2.030 . S
O307 C313 1.248 . S
O308 Mg305 1.990 . S
O308 C314 1.253 . S
O309 Mg305 2.117 . S
O309 C315 1.250 . S
C310 O316 1.248 . S
C310 O317 1.264 . S
C311 O297 1.253 . S
C311 O299 1.260 . S
C312 O301 1.279 . S
C312 O302 1.250 . S
C313 O303 1.264 . S
C313 O307 1.248 . S
C314 O304 1.260 . S
C314 O308 1.253 . S
C315 O306 1.279 . S
C315 O309 1.250 . S
O316 Mg298 2.030 . S
O316 C310 1.248 . S
O317 Mg300 2.079 . S
O317 C310 1.264 . S
O318 Mg319 1.990 . S
O318 C332 1.253 . S
Mg319 O318 1.990 . S
Mg319 O322 2.180 . S
Mg319 O323 2.117 . S
Mg319 O337 2.030 . S
O320 Mg321 2.072 . S
O320 C332 1.260 . S
Mg321 O320 2.072 . S
Mg321 O322 2.099 . S
Mg321 O324 2.079 . S
Mg321 O325 2.072 . S
Mg321 O327 2.099 . S
Mg321 O338 2.079 . S
O322 Mg319 2.180 . S
O322 Mg321 2.099 . S
O322 C333 1.279 . S
O323 Mg319 2.117 . S
O323 C333 1.250 . S
O324 Mg321 2.079 . S
O324 C334 1.264 . S
O325 Mg321 2.072 . S
O325 C335 1.260 . S
Mg326 O327 2.180 . S
Mg326 O328 2.030 . S
Mg326 O329 1.990 . S
Mg326 O330 2.117 . S
O327 Mg321 2.099 . S
O327 Mg326 2.180 . S
O327 C336 1.279 . S
O328 Mg326 2.030 . S
O328 C334 1.248 . S
O329 Mg326 1.990 . S
O329 C335 1.253 . S
O330 Mg326 2.117 . S
O330 C336 1.250 . S
C331 O337 1.248 . S
C331 O338 1.264 . S
C332 O318 1.253 . S
C332 O320 1.260 . S
C333 O322 1.279 . S
C333 O323 1.250 . S
C334 O324 1.264 . S
C334 O328 1.248 . S
C335 O325 1.260 . S
C335 O329 1.253 . S
C336 O327 1.279 . S
C336 O330 1.250 . S
O337 Mg319 2.030 . S
O337 C331 1.248 . S
O338 Mg321 2.079 . S
O338 C331 1.264 . S
O339 Mg340 1.990 . S
O339 C353 1.253 . S
Mg340 O339 1.990 . S
Mg340 O343 2.180 . S
Mg340 O344 2.117 . S
Mg340 O358 2.030 . S
O341 Mg342 2.072 . S
O341 C353 1.260 . S
Mg342 O341 2.072 . S
Mg342 O343 2.099 . S
Mg342 O345 2.079 . S
Mg342 O346 2.072 . S
Mg342 O348 2.099 . S
Mg342 O359 2.079 . S
O343 Mg340 2.180 . S
O343 Mg342 2.099 . S
O343 C354 1.279 . S
O344 Mg340 2.117 . S
O344 C354 1.250 . S
O345 Mg342 2.079 . S
O345 C355 1.264 . S
O346 Mg342 2.072 . S
O346 C356 1.260 . S
Mg347 O348 2.180 . S
Mg347 O349 2.030 . S
Mg347 O350 1.990 . S
Mg347 O351 2.117 . S
O348 Mg342 2.099 . S
O348 Mg347 2.180 . S
O348 C357 1.279 . S
O349 Mg347 2.030 . S
O349 C355 1.248 . S
O350 Mg347 1.990 . S
O350 C356 1.253 . S
O351 Mg347 2.117 . S
O351 C357 1.250 . S
C352 O358 1.248 . S
C352 O359 1.264 . S
C353 O339 1.253 . S
C353 O341 1.260 . S
C354 O343 1.279 . S
C354 O344 1.250 . S
C355 O345 1.264 . S
C355 O349 1.248 . S
C356 O346 1.260 . S
C356 O350 1.253 . S
C357 O348 1.279 . S
C357 O351 1.250 . S
O358 Mg340 2.030 . S
O358 C352 1.248 . S
O359 Mg342 2.079 . S
O359 C352 1.264 . S
O360 Mg361 1.990 . S
O360 C374 1.253 . S
Mg361 O360 1.990 . S
Mg361 O364 2.180 . S
Mg361 O365 2.117 . S
Mg361 O379 2.030 . S
O362 Mg363 2.072 . S
O362 C374 1.260 . S
Mg363 O362 2.072 . S
Mg363 O364 2.099 . S
Mg363 O366 2.079 . S
Mg363 O367 2.072 . S
Mg363 O369 2.099 . S
Mg363 O380 2.079 . S
O364 Mg361 2.180 . S
O364 Mg363 2.099 . S
O364 C375 1.279 . S
O365 Mg361 2.117 . S
O365 C375 1.250 . S
O366 Mg363 2.079 . S
O366 C376 1.264 . S
O367 Mg363 2.072 . S
O367 C377 1.260 . S
Mg368 O369 2.180 . S
Mg368 O370 2.030 . S
Mg368 O371 1.990 . S
Mg368 O372 2.117 . S
O369 Mg363 2.099 . S
O369 Mg368 2.180 . S
O369 C378 1.279 . S
O370 Mg368 2.030 . S
O370 C376 1.248 . S
O371 Mg368 1.990 . S
O371 C377 1.253 . S
O372 Mg368 2.117 . S
O372 C378 1.250 . S
C373 O379 1.248 . S
C373 O380 1.264 . S
C374 O360 1.253 . S
C374 O362 1.260 . S
C375 O364 1.279 . S
C375 O365 1.250 . S
C376 O366 1.264 . S
C376 O370 1.248 . S
C377 O367 1.260 . S
C377 O371 1.253 . S
C378 O369 1.279 . S
C378 O372 1.250 . S
O379 Mg361 2.030 . S
O379 C373 1.248 . S
O380 Mg363 2.079 . S
O380 C373 1.264 . S
O381 Mg382 1.990 . S
O381 C395 1.253 . S
Mg382 O381 1.990 . S
Mg382 O385 2.180 . S
Mg382 O386 2.117 . S
Mg382 O400 2.030 . S
O383 Mg384 2.072 . S
O383 C395 1.260 . S
Mg384 O383 2.072 . S
Mg384 O385 2.099 . S
Mg384 O387 2.079 . S
Mg384 O388 2.072 . S
Mg384 O390 2.099 . S
Mg384 O401 2.079 . S
O385 Mg382 2.180 . S
O385 Mg384 2.099 . S
O385 C396 1.279 . S
O386 Mg382 2.117 . S
O386 C396 1.250 . S
O387 Mg384 2.079 . S
O387 C397 1.264 . S
O388 Mg384 2.072 . S
O388 C398 1.260 . S
Mg389 O390 2.180 . S
Mg389 O391 2.030 . S
Mg389 O392 1.990 . S
Mg389 O393 2.117 . S
O390 Mg384 2.099 . S
O390 Mg389 2.180 . S
O390 C399 1.279 . S
O391 Mg389 2.030 . S
O391 C397 1.248 . S
O392 Mg389 1.990 . S
O392 C398 1.253 . S
O393 Mg389 2.117 . S
O393 C399 1.250 . S
C394 O400 1.248 . S
C394 O401 1.264 . S
C395 O381 1.253 . S
C395 O383 1.260 . S
C396 O385 1.279 . S
C396 O386 1.250 . S
C397 O387 1.264 . S
C397 O391 1.248 . S
C398 O388 1.260 . S
C398 O392 1.253 . S
C399 O390 1.279 . S
C399 O393 1.250 . S
O400 Mg382 2.030 . S
O400 C394 1.248 . S
O401 Mg384 2.079 . S
O401 C394 1.264 . S
O402 Mg403 1.990 . S
O402 C416 1.253 . S
Mg403 O402 1.990 . S
Mg403 O406 2.180 . S
Mg403 O407 2.117 . S
Mg403 O421 2.030 . S
O404 Mg405 2.072 . S
O404 C416 1.260 . S
Mg405 O404 2.072 . S
Mg405 O406 2.099 . S
Mg405 O408 2.079 . S
Mg405 O409 2.072 . S
Mg405 O411 2.099 . S
Mg405 O422 2.079 . S
O406 Mg403 2.180 . S
O406 Mg405 2.099 . S
O406 C417 1.279 . S
O407 Mg403 2.117 . S
O407 C417 1.250 . S
O408 Mg405 2.079 . S
O408 C418 1.264 . S
O409 Mg405 2.072 . S
O409 C419 1.260 . S
Mg410 O411 2.180 . S
Mg410 O412 2.030 . S
Mg410 O413 1.990 . S
Mg410 O414 2.117 . S
O411 Mg405 2.099 . S
O411 Mg410 2.180 . S
O411 C420 1.279 . S
O412 Mg410 2.030 . S
O412 C418 1.248 . S
O413 Mg410 1.990 . S
O413 C419 1.253 . S
O414 Mg410 2.117 . S
O414 C420 1.250 . S
C415 O421 1.248 . S
C415 O422 1.264 . S
C416 O402 1.253 . S
C416 O404 1.260 . S
C417 O406 1.279 . S
C417 O407 1.250 . S
C418 O408 1.264 . S
C418 O412 1.248 . S
C419 O409 1.260 . S
C419 O413 1.253 . S
C420 O411 1.279 . S
C420 O414 1.250 . S
O421 Mg403 2.030 . S
O421 C415 1.248 . S
O422 Mg405 2.079 . S
O422 C415 1.264 . S
H423 C429 0.930 . S
H424 C433 0.930 . S
H425 C438 0.929 . S
H426 C436 0.929 . S
H427 C431 0.929 . S
H428 C437 0.929 . S
C429 H423 0.930 . S
C429 C430 1.367 . S
C429 C437 1.378 . S
C430 C429 1.367 . S
C430 C438 1.433 . S
C431 H427 0.929 . S
C431 C433 1.378 . S
C431 C435 1.350 . S
C432 C435 1.463 . S
C432 C437 1.350 . S
C432 N440 1.427 . S
C433 H424 0.930 . S
C433 C431 1.378 . S
C433 C434 1.367 . S
C434 C433 1.367 . S
C434 C436 1.433 . S
C435 C431 1.350 . S
C435 C432 1.463 . S
C435 N439 1.427 . S
C436 H426 0.929 . S
C436 C434 1.433 . S
C436 N439 1.384 . S
C437 H428 0.929 . S
C437 C429 1.378 . S
C437 C432 1.350 . S
C438 H425 0.929 . S
C438 C430 1.433 . S
C438 N440 1.384 . S
N439 C435 1.427 . S
N439 C436 1.384 . S
N440 C432 1.427 . S
N440 C438 1.384 . S
H441 C447 0.930 . S
H442 C451 0.930 1_556 S
H443 C456 0.929 . S
H444 C454 0.929 . S
H445 C449 0.929 1_556 S
H446 C455 0.929 . S
C447 H441 0.930 . S
C447 C448 1.367 . S
C447 C455 1.378 . S
C448 C447 1.367 . S
C448 C456 1.433 . S
C449 H445 0.929 1_554 S
C449 C451 1.378 . S
C449 C453 1.350 . S
C450 C453 1.463 . S
C450 C455 1.350 . S
C450 N458 1.427 . S
C451 H442 0.930 1_554 S
C451 C449 1.378 . S
C451 C452 1.367 . S
C452 C451 1.367 . S
C452 C454 1.433 . S
C453 C449 1.350 . S
C453 C450 1.463 . S
C453 N457 1.427 . S
C454 H444 0.929 . S
C454 C452 1.433 . S
C454 N457 1.384 . S
C455 H446 0.929 . S
C455 C447 1.378 . S
C455 C450 1.350 . S
C456 H443 0.929 . S
C456 C448 1.433 . S
C456 N458 1.384 . S
N457 C453 1.427 . S
N457 C454 1.384 . S
N458 C450 1.427 . S
N458 C456 1.384 . S
H459 C465 0.930 1_556 S
H460 C469 0.930 . S
H461 C474 0.929 . S
H462 C472 0.929 1_556 S
H463 C467 0.929 . S
H464 C473 0.929 1_556 S
C465 H459 0.930 1_554 S
C465 C466 1.367 . S
C465 C473 1.378 . S
C466 C465 1.367 . S
C466 C474 1.433 . S
C467 H463 0.929 . S
C467 C469 1.378 . S
C467 C471 1.350 . S
C468 C471 1.463 . S
C468 C473 1.350 . S
C468 N476 1.427 . S
C469 H460 0.930 . S
C469 C467 1.378 . S
C469 C470 1.367 . S
C470 C469 1.367 . S
C470 C472 1.433 . S
C471 C467 1.350 . S
C471 C468 1.463 . S
C471 N475 1.427 . S
C472 H462 0.929 1_554 S
C472 C470 1.433 . S
C472 N475 1.384 . S
C473 H464 0.929 1_554 S
C473 C465 1.378 . S
C473 C468 1.350 . S
C474 H461 0.929 . S
C474 C466 1.433 . S
C474 N476 1.384 . S
N475 C471 1.427 . S
N475 C472 1.384 . S
N476 C468 1.427 . S
N476 C474 1.384 . S
H477 C483 0.930 . S
H478 C487 0.930 . S
H479 C492 0.929 . S
H480 C490 0.929 . S
H481 C485 0.929 . S
H482 C491 0.929 . S
C483 H477 0.930 . S
C483 C484 1.367 . S
C483 C491 1.378 . S
C484 C483 1.367 . S
C484 C492 1.433 1_554 S
C485 H481 0.929 . S
C485 C487 1.378 . S
C485 C489 1.350 1_556 S
C486 C489 1.463 . S
C486 C491 1.350 . S
C486 N494 1.427 1_554 S
C487 H478 0.930 . S
C487 C485 1.378 . S
C487 C488 1.367 1_556 S
C488 C487 1.367 1_554 S
C488 C490 1.433 . S
C489 C485 1.350 1_554 S
C489 C486 1.463 . S
C489 N493 1.427 . S
C490 H480 0.929 . S
C490 C488 1.433 . S
C490 N493 1.384 . S
C491 H482 0.929 . S
C491 C483 1.378 . S
C491 C486 1.350 . S
C492 H479 0.929 . S
C492 C484 1.433 1_556 S
C492 N494 1.384 . S
N493 C489 1.427 . S
N493 C490 1.384 . S
N494 C486 1.427 1_556 S
N494 C492 1.384 . S
H495 C501 0.930 . S
H496 C505 0.930 . S
H497 C510 0.929 . S
H498 C508 0.929 . S
H499 C503 0.929 . S
H500 C509 0.929 . S
C501 H495 0.930 . S
C501 C502 1.367 1_556 S
C501 C509 1.378 . S
C502 C501 1.367 1_554 S
C502 C510 1.433 . S
C503 H499 0.929 . S
C503 C505 1.378 . S
C503 C507 1.350 . S
C504 C507 1.463 . S
C504 C509 1.350 1_554 S
C504 N512 1.427 . S
C505 H496 0.930 . S
C505 C503 1.378 . S
C505 C506 1.367 . S
C506 C505 1.367 . S
C506 C508 1.433 1_554 S
C507 C503 1.350 . S
C507 C504 1.463 . S
C507 N511 1.427 1_554 S
C508 H498 0.929 . S
C508 C506 1.433 1_556 S
C508 N511 1.384 . S
C509 H500 0.929 . S
C509 C501 1.378 . S
C509 C504 1.350 1_556 S
C510 H497 0.929 . S
C510 C502 1.433 . S
C510 N512 1.384 . S
N511 C507 1.427 1_556 S
N511 C508 1.384 . S
N512 C504 1.427 . S
N512 C510 1.384 . S
H513 C519 0.930 . S
H514 C523 0.930 . S
H515 C528 0.929 . S
H516 C526 0.929 . S
H517 C521 0.929 . S
H518 C527 0.929 . S
C519 H513 0.930 . S
C519 C520 1.367 . S
C519 C527 1.378 . S
C520 C519 1.367 . S
C520 C528 1.433 1_556 S
C521 H517 0.929 . S
C521 C523 1.378 . S
C521 C525 1.350 . S
C522 C525 1.463 . S
C522 C527 1.350 1_554 S
C522 N530 1.427 . S
C523 H514 0.930 . S
C523 C521 1.378 . S
C523 C524 1.367 . S
C524 C523 1.367 . S
C524 C526 1.433 1_554 S
C525 C521 1.350 . S
C525 C522 1.463 . S
C525 N529 1.427 1_554 S
C526 H516 0.929 . S
C526 C524 1.433 1_556 S
C526 N529 1.384 . S
C527 H518 0.929 . S
C527 C519 1.378 . S
C527 C522 1.350 1_556 S
C528 H515 0.929 . S
C528 C520 1.433 1_554 S
C528 N530 1.384 . S
N529 C525 1.427 1_556 S
N529 C526 1.384 . S
N530 C522 1.427 . S
N530 C528 1.384 . S
H531 C537 0.930 . S
H532 C541 0.930 . S
H533 C546 0.929 . S
H534 C544 0.929 . S
H535 C539 0.929 . S
H536 C545 0.929 . S
C537 H531 0.930 . S
C537 C538 1.367 1_556 S
C537 C545 1.378 . S
C538 C537 1.367 1_554 S
C538 C546 1.433 . S
C539 H535 0.929 . S
C539 C541 1.378 . S
C539 C543 1.350 . S
C540 C543 1.463 . S
C540 C545 1.350 1_554 S
C540 N548 1.427 . S
C541 H532 0.930 . S
C541 C539 1.378 . S
C541 C542 1.367 . S
C542 C541 1.367 . S
C542 C544 1.433 1_554 S
C543 C539 1.350 . S
C543 C540 1.463 . S
C543 N547 1.427 1_554 S
C544 H534 0.929 . S
C544 C542 1.433 1_556 S
C544 N547 1.384 . S
C545 H536 0.929 . S
C545 C537 1.378 . S
C545 C540 1.350 1_556 S
C546 H533 0.929 . S
C546 C538 1.433 . S
C546 N548 1.384 . S
N547 C543 1.427 1_556 S
N547 C544 1.384 . S
N548 C540 1.427 . S
N548 C546 1.384 . S
H549 C555 0.930 . S
H550 C559 0.930 . S
H551 C564 0.929 . S
H552 C562 0.929 . S
H553 C557 0.929 . S
H554 C563 0.929 . S
C555 H549 0.930 . S
C555 C556 1.367 1_554 S
C555 C563 1.378 . S
C556 C555 1.367 1_556 S
C556 C564 1.433 . S
C557 H553 0.929 . S
C557 C559 1.378 . S
C557 C561 1.350 . S
C558 C561 1.463 . S
C558 C563 1.350 1_556 S
C558 N566 1.427 . S
C559 H550 0.930 . S
C559 C557 1.378 . S
C559 C560 1.367 . S
C560 C559 1.367 . S
C560 C562 1.433 1_556 S
C561 C557 1.350 . S
C561 C558 1.463 . S
C561 N565 1.427 1_556 S
C562 H552 0.929 . S
C562 C560 1.433 1_554 S
C562 N565 1.384 . S
C563 H554 0.929 . S
C563 C555 1.378 . S
C563 C558 1.350 1_554 S
C564 H551 0.929 . S
C564 C556 1.433 . S
C564 N566 1.384 . S
N565 C561 1.427 1_554 S
N565 C562 1.384 . S
N566 C558 1.427 . S
N566 C564 1.384 . S
H567 C573 0.930 . S
H568 C577 0.930 . S
H569 C582 0.929 . S
H570 C580 0.929 1_556 S
H571 C575 0.929 . S
H572 C581 0.929 . S
C573 H567 0.930 . S
C573 C574 1.367 1_556 S
C573 C581 1.378 . S
C574 C573 1.367 1_554 S
C574 C582 1.433 . S
C575 H571 0.929 . S
C575 C577 1.378 . S
C575 C579 1.350 . S
C576 C579 1.463 . S
C576 C581 1.350 1_554 S
C576 N584 1.427 . S
C577 H568 0.930 . S
C577 C575 1.378 . S
C577 C578 1.367 . S
C578 C577 1.367 . S
C578 C580 1.433 . S
C579 C575 1.350 . S
C579 C576 1.463 . S
C579 N583 1.437 . S
C580 H570 0.929 1_554 S
C580 C578 1.433 . S
C580 N583 1.387 . S
C581 H572 0.929 . S
C581 C573 1.378 . S
C581 C576 1.350 1_556 S
C582 H569 0.929 . S
C582 C574 1.433 . S
C582 N584 1.384 . S
N583 C579 1.437 . S
N583 C580 1.387 . S
N584 C576 1.427 . S
N584 C582 1.384 . S
H585 C591 0.930 . S
H586 C595 0.930 . S
H587 C600 0.929 . S
H588 C598 0.929 . S
H589 C593 0.929 . S
H590 C599 0.929 . S
C591 H585 0.930 . S
C591 C592 1.367 . S
C591 C599 1.378 . S
C592 C591 1.367 . S
C592 C600 1.433 . S
C593 H589 0.929 . S
C593 C595 1.378 . S
C593 C597 1.350 1_556 S
C594 C597 1.463 . S
C594 C599 1.350 . S
C594 N602 1.427 . S
C595 H586 0.930 . S
C595 C593 1.378 . S
C595 C596 1.367 . S
C596 C595 1.367 . S
C596 C598 1.432 1_556 S
C597 C593 1.350 1_554 S
C597 C594 1.463 . S
C597 N601 1.427 . S
C598 H588 0.929 . S
C598 C596 1.432 1_554 S
C598 N601 1.384 . S
C599 H590 0.929 . S
C599 C591 1.378 . S
C599 C594 1.350 . S
C600 H587 0.929 . S
C600 C592 1.433 . S
C600 N602 1.384 . S
N601 C597 1.427 . S
N601 C598 1.384 . S
N602 C594 1.427 . S
N602 C600 1.384 . S
H603 C609 0.930 . S
H604 C613 0.930 . S
H605 C618 0.929 . S
H606 C616 0.929 1_556 S
H607 C611 0.929 . S
H608 C617 0.939 . S
C609 H603 0.930 . S
C609 C610 1.367 . S
C609 C617 1.378 . S
C610 C609 1.367 . S
C610 C618 1.433 . S
C611 H607 0.929 . S
C611 C613 1.378 . S
C611 C615 1.350 . S
C612 C615 1.463 . S
C612 C617 1.350 . S
C612 N620 1.427 . S
C613 H604 0.930 . S
C613 C611 1.378 . S
C613 C614 1.367 . S
C614 C613 1.367 . S
C614 C616 1.433 . S
C615 C611 1.350 . S
C615 C612 1.463 . S
C615 N619 1.427 . S
C616 H606 0.929 1_554 S
C616 C614 1.433 . S
C616 N619 1.384 . S
C617 H608 0.939 . S
C617 C609 1.378 . S
C617 C612 1.350 . S
C618 H605 0.929 . S
C618 C610 1.433 . S
C618 N620 1.384 . S
N619 C615 1.427 . S
N619 C616 1.384 . S
N620 C612 1.427 . S
N620 C618 1.384 . S
H621 C627 0.930 . S
H622 C631 0.930 . S
H623 C636 0.929 1_556 S
H624 C634 0.929 . S
H625 C629 0.929 . S
H626 C635 0.929 . S
C627 H621 0.930 . S
C627 C628 1.367 . S
C627 C635 1.378 . S
C628 C627 1.367 . S
C628 C636 1.433 . S
C629 H625 0.929 . S
C629 C631 1.378 . S
C629 C633 1.350 1_556 S
C630 C633 1.463 . S
C630 C635 1.350 . S
C630 N638 1.404 1_554 S
C631 H622 0.930 . S
C631 C629 1.378 . S
C631 C632 1.367 1_556 S
C632 C631 1.367 1_554 S
C632 C634 1.433 . S
C633 C629 1.350 1_554 S
C633 C630 1.463 . S
C633 N637 1.427 . S
C634 H624 0.929 . S
C634 C632 1.433 . S
C634 N637 1.384 . S
C635 H626 0.929 . S
C635 C627 1.378 . S
C635 C630 1.350 . S
C636 H623 0.929 1_554 S
C636 C628 1.433 . S
C636 N638 1.385 1_554 S
N637 C633 1.427 . S
N637 C634 1.384 . S
N638 C630 1.404 1_556 S
N638 C636 1.385 1_556 S
H639 C645 0.930 . S
H640 C649 0.930 . S
H641 C654 0.929 . S
H642 C652 0.929 . S
H643 C647 0.929 . S
H644 C653 0.929 . S
C645 H639 0.930 . S
C645 C646 1.367 . S
C645 C653 1.378 . S
C646 C645 1.367 . S
C646 C654 1.433 . S
C647 H643 0.929 . S
C647 C649 1.378 . S
C647 C651 1.350 . S
C648 C651 1.463 1_655 S
C648 C653 1.350 . S
C648 N656 1.427 . S
C649 H640 0.930 . S
C649 C647 1.378 . S
C649 C650 1.367 . S
C650 C649 1.367 . S
C650 C652 1.433 . S
C651 C647 1.350 . S
C651 C648 1.463 1_455 S
C651 N655 1.427 . S
C652 H642 0.929 . S
C652 C650 1.433 . S
C652 N655 1.384 . S
C653 H644 0.929 . S
C653 C645 1.378 . S
C653 C648 1.350 . S
C654 H641 0.929 . S
C654 C646 1.433 . S
C654 N656 1.384 . S
N655 C651 1.427 . S
N655 C652 1.384 . S
N656 C648 1.427 . S
N656 C654 1.384 . S
H657 C663 0.930 . S
H658 C667 0.930 . S
H659 C672 0.929 . S
H660 C670 0.929 . S
H661 C665 0.929 . S
H662 C671 0.929 . S
C663 H657 0.930 . S
C663 C664 1.367 . S
C663 C671 1.378 . S
C664 C663 1.367 . S
C664 C672 1.433 . S
C665 H661 0.929 . S
C665 C667 1.378 . S
C665 C669 1.350 . S
C666 C669 1.463 . S
C666 C671 1.350 . S
C666 N674 1.427 . S
C667 H658 0.930 . S
C667 C665 1.378 . S
C667 C668 1.367 . S
C668 C667 1.367 . S
C668 C670 1.433 . S
C669 C665 1.350 . S
C669 C666 1.463 . S
C669 N673 1.427 . S
C670 H660 0.929 . S
C670 C668 1.433 . S
C670 N673 1.384 . S
C671 H662 0.929 . S
C671 C663 1.378 . S
C671 C666 1.350 . S
C672 H659 0.929 . S
C672 C664 1.433 . S
C672 N674 1.384 . S
N673 C669 1.427 . S
N673 C670 1.384 . S
N674 C666 1.427 . S
N674 C672 1.384 . S
H675 C681 0.930 . S
H676 C685 0.930 . S
H677 C690 0.929 . S
H678 C688 0.929 . S
H679 C683 0.929 . S
H680 C689 0.929 . S
C681 H675 0.930 . S
C681 C682 1.367 . S
C681 C689 1.378 . S
C682 C681 1.367 . S
C682 C690 1.433 . S
C683 H679 0.929 . S
C683 C685 1.378 . S
C683 C687 1.350 . S
C684 C687 1.463 1_545 S
C684 C689 1.350 . S
C684 N692 1.427 . S
C685 H676 0.930 . S
C685 C683 1.378 . S
C685 C686 1.367 . S
C686 C685 1.367 . S
C686 C688 1.433 . S
C687 C683 1.350 . S
C687 C684 1.463 1_565 S
C687 N691 1.427 . S
C688 H678 0.929 . S
C688 C686 1.433 . S
C688 N691 1.384 . S
C689 H680 0.929 . S
C689 C681 1.378 . S
C689 C684 1.350 . S
C690 H677 0.929 . S
C690 C682 1.433 . S
C690 N692 1.384 . S
N691 C687 1.427 . S
N691 C688 1.384 . S
N692 C684 1.427 . S
N692 C690 1.384 . S
H693 C699 0.930 . S
H694 C703 0.930 . S
H695 C708 0.929 . S
H696 C706 0.929 . S
H697 C701 0.929 . S
H698 C707 0.929 . S
C699 H693 0.930 . S
C699 C700 1.367 . S
C699 C707 1.378 . S
C700 C699 1.367 . S
C700 C708 1.433 . S
C701 H697 0.929 . S
C701 C703 1.378 . S
C701 C705 1.350 . S
C702 C705 1.463 . S
C702 C707 1.350 . S
C702 N710 1.427 . S
C703 H694 0.930 . S
C703 C701 1.378 . S
C703 C704 1.367 . S
C704 C703 1.367 . S
C704 C706 1.433 . S
C705 C701 1.350 . S
C705 C702 1.463 . S
C705 N709 1.427 . S
C706 H696 0.929 . S
C706 C704 1.433 . S
C706 N709 1.384 . S
C707 H698 0.929 . S
C707 C699 1.378 . S
C707 C702 1.350 . S
C708 H695 0.929 . S
C708 C700 1.433 . S
C708 N710 1.384 . S
N709 C705 1.427 . S
N709 C706 1.384 . S
N710 C702 1.427 . S
N710 C708 1.384 . S
H711 C717 0.930 . S
H712 C721 0.930 . S
H713 C726 0.929 . S
H714 C724 0.929 . S
H715 C719 0.929 . S
H716 C725 0.929 . S
C717 H711 0.930 . S
C717 C718 1.367 . S
C717 C725 1.378 . S
C718 C717 1.367 . S
C718 C726 1.433 . S
C719 H715 0.929 . S
C719 C721 1.378 . S
C719 C723 1.350 . S
C720 C723 1.463 . S
C720 C725 1.350 . S
C720 N728 1.427 . S
C721 H712 0.930 . S
C721 C719 1.378 . S
C721 C722 1.367 . S
C722 C721 1.367 . S
C722 C724 1.433 . S
C723 C719 1.350 . S
C723 C720 1.463 . S
C723 N727 1.427 . S
C724 H714 0.929 . S
C724 C722 1.433 . S
C724 N727 1.384 . S
C725 H716 0.929 . S
C725 C717 1.378 . S
C725 C720 1.350 . S
C726 H713 0.929 . S
C726 C718 1.433 . S
C726 N728 1.384 . S
N727 C723 1.427 . S
N727 C724 1.384 . S
N728 C720 1.427 . S
N728 C726 1.384 . S
H729 C735 0.930 . S
H730 C739 0.930 . S
H731 C744 0.929 . S
H732 C742 0.929 . S
H733 C737 0.929 . S
H734 C743 0.929 . S
C735 H729 0.930 . S
C735 C736 1.367 . S
C735 C743 1.378 . S
C736 C735 1.367 . S
C736 C744 1.433 . S
C737 H733 0.929 . S
C737 C739 1.378 . S
C737 C741 1.350 . S
C738 C741 1.463 . S
C738 C743 1.350 . S
C738 N746 1.427 . S
C739 H730 0.930 . S
C739 C737 1.378 . S
C739 C740 1.367 . S
C740 C739 1.367 . S
C740 C742 1.433 . S
C741 C737 1.350 . S
C741 C738 1.463 . S
C741 N745 1.427 . S
C742 H732 0.929 . S
C742 C740 1.433 . S
C742 N745 1.384 . S
C743 H734 0.929 . S
C743 C735 1.378 . S
C743 C738 1.350 . S
C744 H731 0.929 . S
C744 C736 1.433 . S
C744 N746 1.384 . S
N745 C741 1.427 . S
N745 C742 1.384 . S
N746 C738 1.427 . S
N746 C744 1.384 . S
H747 C753 0.930 . S
H748 C757 0.930 . S
H749 C762 0.929 . S
H750 C760 0.929 . S
H751 C755 0.929 . S
H752 C761 0.929 . S
C753 H747 0.930 . S
C753 C754 1.367 . S
C753 C761 1.378 . S
C754 C753 1.367 . S
C754 C762 1.433 . S
C755 H751 0.929 . S
C755 C757 1.378 . S
C755 C759 1.350 . S
C756 C759 1.463 . S
C756 C761 1.350 . S
C756 N764 1.427 . S
C757 H748 0.930 . S
C757 C755 1.378 . S
C757 C758 1.367 . S
C758 C757 1.367 . S
C758 C760 1.433 . S
C759 C755 1.350 . S
C759 C756 1.463 . S
C759 N763 1.427 . S
C760 H750 0.929 . S
C760 C758 1.433 . S
C760 N763 1.384 . S
C761 H752 0.929 . S
C761 C753 1.378 . S
C761 C756 1.350 . S
C762 H749 0.929 . S
C762 C754 1.433 . S
C762 N764 1.384 . S
N763 C759 1.427 . S
N763 C760 1.384 . S
N764 C756 1.427 . S
N764 C762 1.384 . S
H765 C771 0.930 . S
H766 C775 0.930 . S
H767 C780 0.929 . S
H768 C778 0.929 . S
H769 C773 0.929 . S
H770 C779 0.929 . S
C771 H765 0.930 . S
C771 C772 1.367 . S
C771 C779 1.378 . S
C772 C771 1.367 . S
C772 C780 1.433 . S
C773 H769 0.929 . S
C773 C775 1.378 . S
C773 C777 1.350 . S
C774 C777 1.463 . S
C774 C779 1.350 . S
C774 N782 1.427 . S
C775 H766 0.930 . S
C775 C773 1.378 . S
C775 C776 1.367 . S
C776 C775 1.367 . S
C776 C778 1.433 . S
C777 C773 1.350 . S
C777 C774 1.463 . S
C777 N781 1.427 . S
C778 H768 0.929 . S
C778 C776 1.433 . S
C778 N781 1.384 . S
C779 H770 0.929 . S
C779 C771 1.378 . S
C779 C774 1.350 . S
C780 H767 0.929 . S
C780 C772 1.433 . S
C780 N782 1.384 . S
N781 C777 1.427 . S
N781 C778 1.384 . S
N782 C774 1.427 . S
N782 C780 1.384 . S
H783 C789 0.930 . S
H784 C793 0.930 . S
H785 C798 0.929 . S
H786 C796 0.929 . S
H787 C791 0.929 . S
H788 C797 0.929 . S
C789 H783 0.930 . S
C789 C790 1.367 . S
C789 C797 1.378 . S
C790 C789 1.367 . S
C790 C798 1.433 . S
C791 H787 0.929 . S
C791 C793 1.378 . S
C791 C795 1.350 . S
C792 C795 1.463 . S
C792 C797 1.350 . S
C792 N800 1.427 . S
C793 H784 0.930 . S
C793 C791 1.378 . S
C793 C794 1.367 . S
C794 C793 1.367 . S
C794 C796 1.433 . S
C795 C791 1.350 . S
C795 C792 1.463 . S
C795 N799 1.427 . S
C796 H786 0.929 . S
C796 C794 1.433 . S
C796 N799 1.384 . S
C797 H788 0.929 . S
C797 C789 1.378 . S
C797 C792 1.350 . S
C798 H785 0.929 . S
C798 C790 1.433 . S
C798 N800 1.384 . S
N799 C795 1.427 . S
N799 C796 1.384 . S
N800 C792 1.427 . S
N800 C798 1.384 . S
H801 C807 0.930 . S
H802 C811 0.930 . S
H803 C816 0.929 . S
H804 C814 0.929 . S
H805 C809 0.929 . S
H806 C815 0.929 . S
C807 H801 0.930 . S
C807 C808 1.367 . S
C807 C815 1.378 . S
C808 C807 1.367 . S
C808 C816 1.433 . S
C809 H805 0.929 . S
C809 C811 1.378 . S
C809 C813 1.350 . S
C810 C813 1.463 1_545 S
C810 C815 1.350 . S
C810 N818 1.427 . S
C811 H802 0.930 . S
C811 C809 1.378 . S
C811 C812 1.367 . S
C812 C811 1.367 . S
C812 C814 1.433 . S
C813 C809 1.350 . S
C813 C810 1.463 1_565 S
C813 N817 1.427 . S
C814 H804 0.929 . S
C814 C812 1.433 . S
C814 N817 1.384 . S
C815 H806 0.929 . S
C815 C807 1.378 . S
C815 C810 1.350 . S
C816 H803 0.929 . S
C816 C808 1.433 . S
C816 N818 1.384 . S
N817 C813 1.427 . S
N817 C814 1.384 . S
N818 C810 1.427 . S
N818 C816 1.384 . S
H819 C825 0.930 . S
H820 C829 0.930 . S
H821 C834 0.929 . S
H822 C832 0.929 . S
H823 C827 0.929 . S
H824 C833 0.929 . S
C825 H819 0.930 . S
C825 C826 1.367 . S
C825 C833 1.378 . S
C826 C825 1.367 . S
C826 C834 1.433 . S
C827 H823 0.929 . S
C827 C829 1.378 . S
C827 C831 1.350 . S
C828 C831 1.463 1_655 S
C828 C833 1.350 . S
C828 N836 1.427 . S
C829 H820 0.930 . S
C829 C827 1.378 . S
C829 C830 1.367 . S
C830 C829 1.367 . S
C830 C832 1.433 . S
C831 C827 1.350 . S
C831 C828 1.463 1_455 S
C831 N835 1.427 . S
C832 H822 0.929 . S
C832 C830 1.433 . S
C832 N835 1.384 . S
C833 H824 0.929 . S
C833 C825 1.378 . S
C833 C828 1.350 . S
C834 H821 0.929 . S
C834 C826 1.433 . S
C834 N836 1.384 . S
N835 C831 1.427 . S
N835 C832 1.384 . S
N836 C828 1.427 . S
N836 C834 1.384 . S
H837 C843 0.930 . S
H838 C847 0.930 . S
H839 C852 0.929 . S
H840 C850 0.929 . S
H841 C845 0.929 . S
H842 C851 0.929 . S
C843 H837 0.930 . S
C843 C844 1.367 . S
C843 C851 1.378 . S
C844 C843 1.367 . S
C844 C852 1.433 . S
C845 H841 0.929 . S
C845 C847 1.378 . S
C845 C849 1.350 . S
C846 C849 1.463 . S
C846 C851 1.350 . S
C846 N854 1.427 . S
C847 H838 0.930 . S
C847 C845 1.378 . S
C847 C848 1.367 . S
C848 C847 1.367 . S
C848 C850 1.433 . S
C849 C845 1.350 . S
C849 C846 1.463 . S
C849 N853 1.427 . S
C850 H840 0.929 . S
C850 C848 1.433 . S
C850 N853 1.384 . S
C851 H842 0.929 . S
C851 C843 1.378 . S
C851 C846 1.350 . S
C852 H839 0.929 . S
C852 C844 1.433 . S
C852 N854 1.384 . S
N853 C849 1.427 . S
N853 C850 1.384 . S
N854 C846 1.427 . S
N854 C852 1.384 . S
H855 C861 0.930 . S
H856 C865 0.930 . S
H857 C870 0.929 . S
H858 C868 0.929 . S
H859 C863 0.929 . S
H860 C869 0.929 . S
C861 H855 0.930 . S
C861 C862 1.367 . S
C861 C869 1.378 . S
C862 C861 1.367 . S
C862 C870 1.433 . S
C863 H859 0.929 . S
C863 C865 1.378 . S
C863 C867 1.350 . S
C864 C867 1.463 . S
C864 C869 1.350 . S
C864 N872 1.427 . S
C865 H856 0.930 . S
C865 C863 1.378 . S
C865 C866 1.367 . S
C866 C865 1.367 . S
C866 C868 1.433 . S
C867 C863 1.350 . S
C867 C864 1.463 . S
C867 N871 1.427 . S
C868 H858 0.929 . S
C868 C866 1.433 . S
C868 N871 1.384 . S
C869 H860 0.929 . S
C869 C861 1.378 . S
C869 C864 1.350 . S
C870 H857 0.929 . S
C870 C862 1.433 . S
C870 N872 1.384 . S
N871 C867 1.427 . S
N871 C868 1.384 . S
N872 C864 1.427 . S
N872 C870 1.384 . S
H873 C879 0.930 . S
H874 C883 0.930 . S
H875 C888 0.929 . S
H876 C886 0.929 . S
H877 C881 0.929 . S
H878 C887 0.929 . S
C879 H873 0.930 . S
C879 C880 1.367 . S
C879 C887 1.378 . S
C880 C879 1.367 . S
C880 C888 1.433 . S
C881 H877 0.929 . S
C881 C883 1.378 . S
C881 C885 1.350 . S
C882 C885 1.463 . S
C882 C887 1.350 . S
C882 N890 1.427 . S
C883 H874 0.930 . S
C883 C881 1.378 . S
C883 C884 1.367 . S
C884 C883 1.367 . S
C884 C886 1.433 . S
C885 C881 1.350 . S
C885 C882 1.463 . S
C885 N889 1.427 . S
C886 H876 0.929 . S
C886 C884 1.433 . S
C886 N889 1.384 . S
C887 H878 0.929 . S
C887 C879 1.378 . S
C887 C882 1.350 . S
C888 H875 0.929 . S
C888 C880 1.433 . S
C888 N890 1.384 . S
N889 C885 1.427 . S
N889 C886 1.384 . S
N890 C882 1.427 . S
N890 C888 1.384 . S
H891 C897 0.930 . S
H892 C901 0.930 . S
H893 C906 0.929 . S
H894 C904 0.929 . S
H895 C899 0.929 . S
H896 C905 0.929 . S
C897 H891 0.930 . S
C897 C898 1.367 . S
C897 C905 1.378 . S
C898 C897 1.367 . S
C898 C906 1.433 . S
C899 H895 0.929 . S
C899 C901 1.378 . S
C899 C903 1.350 . S
C900 C903 1.463 . S
C900 C905 1.350 . S
C900 N908 1.427 . S
C901 H892 0.930 . S
C901 C899 1.378 . S
C901 C902 1.367 . S
C902 C901 1.367 . S
C902 C904 1.433 . S
C903 C899 1.350 . S
C903 C900 1.463 . S
C903 N907 1.427 . S
C904 H894 0.929 . S
C904 C902 1.433 . S
C904 N907 1.384 . S
C905 H896 0.929 . S
C905 C897 1.378 . S
C905 C900 1.350 . S
C906 H893 0.929 . S
C906 C898 1.433 . S
C906 N908 1.384 . S
N907 C903 1.427 . S
N907 C904 1.384 . S
N908 C900 1.427 . S
N908 C906 1.384 . S
H909 C915 0.930 . S
H910 C919 0.930 . S
H911 C924 0.929 . S
H912 C922 0.929 . S
H913 C917 0.929 . S
H914 C923 0.935 . S
C915 H909 0.930 . S
C915 C916 1.367 . S
C915 C923 1.378 . S
C916 C915 1.367 . S
C916 C924 1.433 . S
C917 H913 0.929 . S
C917 C919 1.378 . S
C917 C921 1.350 . S
C918 C921 1.463 . S
C918 C923 1.350 1_545 S
C918 N926 1.427 1_545 S
C919 H910 0.930 . S
C919 C917 1.378 . S
C919 C920 1.367 . S
C920 C919 1.367 . S
C920 C922 1.433 . S
C921 C917 1.350 . S
C921 C918 1.463 . S
C921 N925 1.427 . S
C922 H912 0.929 . S
C922 C920 1.433 . S
C922 N925 1.384 . S
C923 H914 0.935 . S
C923 C915 1.378 . S
C923 C918 1.350 1_565 S
C924 H911 0.929 . S
C924 C916 1.433 . S
C924 N926 1.384 . S
N925 C921 1.427 . S
N925 C922 1.384 . S
N926 C918 1.427 1_565 S
N926 C924 1.384 . S
H927 C933 0.930 . S
H928 C937 0.930 . S
H929 C942 0.929 . S
H930 C940 0.929 . S
H931 C935 0.929 . S
H932 C941 0.929 . S
C933 H927 0.930 . S
C933 C934 1.367 . S
C933 C941 1.378 . S
C934 C933 1.367 . S
C934 C942 1.433 . S
C935 H931 0.929 . S
C935 C937 1.378 . S
C935 C939 1.350 . S
C936 C939 1.463 . S
C936 C941 1.350 1_655 S
C936 N944 1.427 1_655 S
C937 H928 0.930 . S
C937 C935 1.378 . S
C937 C938 1.367 . S
C938 C937 1.367 . S
C938 C940 1.433 . S
C939 C935 1.350 . S
C939 C936 1.463 . S
C939 N943 1.427 . S
C940 H930 0.929 . S
C940 C938 1.433 . S
C940 N943 1.384 . S
C941 H932 0.929 . S
C941 C933 1.378 . S
C941 C936 1.350 1_455 S
C942 H929 0.929 . S
C942 C934 1.433 . S
C942 N944 1.384 . S
N943 C939 1.427 . S
N943 C940 1.384 . S
N944 C936 1.427 1_455 S
N944 C942 1.384 . S
H945 C951 0.930 . S
H946 C955 0.930 . S
H947 C960 0.929 . S
H948 C958 0.929 . S
H949 C953 0.929 . S
H950 C959 0.929 . S
C951 H945 0.930 . S
C951 C952 1.367 . S
C951 C959 1.378 . S
C952 C951 1.367 . S
C952 C960 1.433 . S
C953 H949 0.929 . S
C953 C955 1.378 . S
C953 C957 1.350 . S
C954 C957 1.463 . S
C954 C959 1.350 . S
C954 N962 1.427 . S
C955 H946 0.930 . S
C955 C953 1.378 . S
C955 C956 1.367 . S
C956 C955 1.367 . S
C956 C958 1.433 . S
C957 C953 1.350 . S
C957 C954 1.463 . S
C957 N961 1.427 . S
C958 H948 0.929 . S
C958 C956 1.433 . S
C958 N961 1.384 . S
C959 H950 0.929 . S
C959 C951 1.378 . S
C959 C954 1.350 . S
C960 H947 0.929 . S
C960 C952 1.433 . S
C960 N962 1.384 . S
N961 C957 1.427 . S
N961 C958 1.384 . S
N962 C954 1.427 . S
N962 C960 1.384 . S
H963 C969 0.930 . S
H964 C973 0.930 . S
H965 C978 0.929 . S
H966 C976 0.929 . S
H967 C971 0.929 . S
H968 C977 0.929 . S
C969 H963 0.930 . S
C969 C970 1.367 . S
C969 C977 1.378 . S
C970 C969 1.367 . S
C970 C978 1.433 . S
C971 H967 0.929 . S
C971 C973 1.378 . S
C971 C975 1.350 1_655 S
C972 C975 1.463 . S
C972 C977 1.350 . S
C972 N980 1.427 . S
C973 H964 0.930 . S
C973 C971 1.378 . S
C973 C974 1.367 . S
C974 C973 1.367 . S
C974 C976 1.433 . S
C975 C971 1.350 1_455 S
C975 C972 1.463 . S
C975 N979 1.427 1_455 S
C976 H966 0.929 . S
C976 C974 1.433 . S
C976 N979 1.384 . S
C977 H968 0.929 . S
C977 C969 1.378 . S
C977 C972 1.350 . S
C978 H965 0.929 . S
C978 C970 1.433 . S
C978 N980 1.384 . S
N979 C975 1.427 1_655 S
N979 C976 1.384 . S
N980 C972 1.427 . S
N980 C978 1.384 . S
H981 C987 0.930 . S
H982 C991 0.930 . S
H983 C996 0.929 . S
H984 C994 0.929 . S
H985 C989 0.929 . S
H986 C995 0.929 . S
C987 H981 0.930 . S
C987 C988 1.367 . S
C987 C995 1.378 . S
C988 C987 1.367 . S
C988 C996 1.433 . S
C989 H985 0.929 . S
C989 C991 1.378 . S
C989 C993 1.350 . S
C990 C993 1.463 . S
C990 C995 1.350 . S
C990 N998 1.427 . S
C991 H982 0.930 . S
C991 C989 1.378 . S
C991 C992 1.367 . S
C992 C991 1.367 . S
C992 C994 1.433 . S
C993 C989 1.350 . S
C993 C990 1.463 . S
C993 N997 1.427 . S
C994 H984 0.929 . S
C994 C992 1.433 . S
C994 N997 1.384 . S
C995 H986 0.929 . S
C995 C987 1.378 . S
C995 C990 1.350 . S
C996 H983 0.929 . S
C996 C988 1.433 . S
C996 N998 1.384 . S
N997 C993 1.427 . S
N997 C994 1.384 . S
N998 C990 1.427 . S
N998 C996 1.384 . S
H999 C1005 0.930 . S
H1000 C1009 0.930 . S
H1001 C1014 0.929 . S
H1002 C1012 0.929 . S
H1003 C1007 0.929 . S
H1004 C1013 0.929 . S
C1005 H999 0.930 . S
C1005 C1006 1.367 . S
C1005 C1013 1.378 . S
C1006 C1005 1.367 . S
C1006 C1014 1.433 . S
C1007 H1003 0.929 . S
C1007 C1009 1.378 . S
C1007 C1011 1.350 . S
C1008 C1011 1.463 1_565 S
C1008 C1013 1.350 . S
C1008 N1016 1.427 . S
C1009 H1000 0.930 . S
C1009 C1007 1.378 . S
C1009 C1010 1.367 . S
C1010 C1009 1.367 . S
C1010 C1012 1.433 . S
C1011 C1007 1.350 . S
C1011 C1008 1.463 1_545 S
C1011 N1015 1.427 . S
C1012 H1002 0.929 . S
C1012 C1010 1.433 . S
C1012 N1015 1.384 . S
C1013 H1004 0.929 . S
C1013 C1005 1.378 . S
C1013 C1008 1.350 . S
C1014 H1001 0.929 . S
C1014 C1006 1.433 . S
C1014 N1016 1.384 . S
N1015 C1011 1.427 . S
N1015 C1012 1.384 . S
N1016 C1008 1.427 . S
N1016 C1014 1.384 . S
H1017 C1023 0.930 . S
H1018 C1027 0.930 . S
H1019 C1032 0.929 . S
H1020 C1030 0.929 . S
H1021 C1025 0.929 . S
H1022 C1031 0.929 . S
C1023 H1017 0.930 . S
C1023 C1024 1.367 . S
C1023 C1031 1.378 . S
C1024 C1023 1.367 . S
C1024 C1032 1.433 . S
C1025 H1021 0.929 . S
C1025 C1027 1.378 . S
C1025 C1029 1.350 . S
C1026 C1029 1.463 . S
C1026 C1031 1.350 . S
C1026 N1034 1.427 . S
C1027 H1018 0.930 . S
C1027 C1025 1.378 . S
C1027 C1028 1.367 . S
C1028 C1027 1.367 . S
C1028 C1030 1.433 . S
C1029 C1025 1.350 . S
C1029 C1026 1.463 . S
C1029 N1033 1.427 . S
C1030 H1020 0.929 . S
C1030 C1028 1.433 . S
C1030 N1033 1.384 . S
C1031 H1022 0.929 . S
C1031 C1023 1.378 . S
C1031 C1026 1.350 . S
C1032 H1019 0.929 . S
C1032 C1024 1.433 . S
C1032 N1034 1.384 . S
N1033 C1029 1.427 . S
N1033 C1030 1.384 . S
N1034 C1026 1.427 . S
N1034 C1032 1.384 . S
H1035 C1041 0.930 . S
H1036 C1045 0.930 . S
H1037 C1050 0.929 . S
H1038 C1048 0.929 . S
H1039 C1043 0.929 . S
H1040 C1049 0.929 . S
C1041 H1035 0.930 . S
C1041 C1042 1.367 . S
C1041 C1049 1.378 . S
C1042 C1041 1.367 . S
C1042 C1050 1.433 . S
C1043 H1039 0.929 . S
C1043 C1045 1.378 . S
C1043 C1047 1.350 . S
C1044 C1047 1.463 . S
C1044 C1049 1.350 . S
C1044 N1052 1.427 . S
C1045 H1036 0.930 . S
C1045 C1043 1.378 . S
C1045 C1046 1.367 . S
C1046 C1045 1.367 . S
C1046 C1048 1.433 . S
C1047 C1043 1.350 . S
C1047 C1044 1.463 . S
C1047 N1051 1.427 . S
C1048 H1038 0.929 . S
C1048 C1046 1.433 . S
C1048 N1051 1.384 . S
C1049 H1040 0.929 . S
C1049 C1041 1.378 . S
C1049 C1044 1.350 . S
C1050 H1037 0.929 . S
C1050 C1042 1.433 . S
C1050 N1052 1.384 . S
N1051 C1047 1.427 . S
N1051 C1048 1.384 . S
N1052 C1044 1.427 . S
N1052 C1050 1.384 . S
H1053 C1059 0.930 . S
H1054 C1063 0.930 . S
H1055 C1068 0.929 . S
H1056 C1066 0.929 . S
H1057 C1061 0.929 . S
H1058 C1067 0.929 . S
C1059 H1053 0.930 . S
C1059 C1060 1.367 . S
C1059 C1067 1.378 . S
C1060 C1059 1.367 . S
C1060 C1068 1.433 . S
C1061 H1057 0.929 . S
C1061 C1063 1.378 . S
C1061 C1065 1.350 . S
C1062 C1065 1.463 . S
C1062 C1067 1.350 . S
C1062 N1070 1.427 . S
C1063 H1054 0.930 . S
C1063 C1061 1.378 . S
C1063 C1064 1.367 . S
C1064 C1063 1.367 . S
C1064 C1066 1.433 . S
C1065 C1061 1.350 . S
C1065 C1062 1.463 . S
C1065 N1069 1.427 . S
C1066 H1056 0.929 . S
C1066 C1064 1.433 . S
C1066 N1069 1.384 . S
C1067 H1058 0.929 . S
C1067 C1059 1.378 . S
C1067 C1062 1.350 . S
C1068 H1055 0.929 . S
C1068 C1060 1.433 . S
C1068 N1070 1.384 . S
N1069 C1065 1.427 . S
N1069 C1066 1.384 . S
N1070 C1062 1.427 . S
N1070 C1068 1.384 . S
H1071 C1077 0.930 . S
H1072 C1081 0.930 . S
H1073 C1086 0.929 . S
H1074 C1084 0.929 1_545 S
H1075 C1079 0.929 . S
H1076 C1085 0.929 . S
C1077 H1071 0.930 . S
C1077 C1078 1.367 . S
C1077 C1085 1.378 . S
C1078 C1077 1.367 . S
C1078 C1086 1.433 . S
C1079 H1075 0.929 . S
C1079 C1081 1.378 . S
C1079 C1083 1.350 . S
C1080 C1083 1.463 . S
C1080 C1085 1.350 . S
C1080 N1088 1.427 . S
C1081 H1072 0.930 . S
C1081 C1079 1.378 . S
C1081 C1082 1.367 . S
C1082 C1081 1.367 . S
C1082 C1084 1.433 . S
C1083 C1079 1.350 . S
C1083 C1080 1.463 . S
C1083 N1087 1.427 . S
C1084 H1074 0.929 1_565 S
C1084 C1082 1.433 . S
C1084 N1087 1.384 . S
C1085 H1076 0.929 . S
C1085 C1077 1.378 . S
C1085 C1080 1.350 . S
C1086 H1073 0.929 . S
C1086 C1078 1.433 . S
C1086 N1088 1.384 . S
N1087 C1083 1.427 . S
N1087 C1084 1.384 . S
N1088 C1080 1.427 . S
N1088 C1086 1.384 . S
H1089 C1095 0.930 . S
H1090 C1099 0.930 1_655 S
H1091 C1104 0.929 . S
H1092 C1102 0.929 . S
H1093 C1097 0.929 . S
H1094 C1103 0.929 . S
C1095 H1089 0.930 . S
C1095 C1096 1.367 . S
C1095 C1103 1.378 . S
C1096 C1095 1.367 . S
C1096 C1104 1.433 . S
C1097 H1093 0.929 . S
C1097 C1099 1.378 . S
C1097 C1101 1.350 . S
C1098 C1101 1.463 . S
C1098 C1103 1.350 . S
C1098 N1106 1.427 . S
C1099 H1090 0.930 1_455 S
C1099 C1097 1.378 . S
C1099 C1100 1.367 . S
C1100 C1099 1.367 . S
C1100 C1102 1.433 . S
C1101 C1097 1.350 . S
C1101 C1098 1.463 . S
C1101 N1105 1.427 . S
C1102 H1092 0.929 . S
C1102 C1100 1.433 . S
C1102 N1105 1.384 . S
C1103 H1094 0.929 . S
C1103 C1095 1.378 . S
C1103 C1098 1.350 . S
C1104 H1091 0.929 . S
C1104 C1096 1.433 . S
C1104 N1106 1.384 . S
N1105 C1101 1.427 . S
N1105 C1102 1.384 . S
N1106 C1098 1.427 . S
N1106 C1104 1.384 . S
H1107 C1113 0.930 . S
H1108 C1117 0.930 . S
H1109 C1122 0.929 . S
H1110 C1120 0.929 . S
H1111 C1115 0.929 . S
H1112 C1121 0.929 . S
C1113 H1107 0.930 . S
C1113 C1114 1.367 . S
C1113 C1121 1.378 . S
C1114 C1113 1.367 . S
C1114 C1122 1.433 . S
C1115 H1111 0.929 . S
C1115 C1117 1.378 . S
C1115 C1119 1.350 . S
C1116 C1119 1.463 . S
C1116 C1121 1.350 . S
C1116 N1124 1.427 . S
C1117 H1108 0.930 . S
C1117 C1115 1.378 . S
C1117 C1118 1.367 . S
C1118 C1117 1.367 . S
C1118 C1120 1.433 . S
C1119 C1115 1.350 . S
C1119 C1116 1.463 . S
C1119 N1123 1.427 . S
C1120 H1110 0.929 . S
C1120 C1118 1.433 . S
C1120 N1123 1.384 . S
C1121 H1112 0.929 . S
C1121 C1113 1.378 . S
C1121 C1116 1.350 . S
C1122 H1109 0.929 . S
C1122 C1114 1.433 . S
C1122 N1124 1.384 . S
N1123 C1119 1.427 . S
N1123 C1120 1.384 . S
N1124 C1116 1.427 . S
N1124 C1122 1.384 . S
H1125 C1131 0.930 . S
H1126 C1135 0.930 . S
H1127 C1140 0.929 . S
H1128 C1138 0.929 . S
H1129 C1133 0.929 . S
H1130 C1139 0.929 . S
C1131 H1125 0.930 . S
C1131 C1132 1.367 . S
C1131 C1139 1.378 . S
C1132 C1131 1.367 . S
C1132 C1140 1.433 . S
C1133 H1129 0.929 . S
C1133 C1135 1.378 . S
C1133 C1137 1.350 . S
C1134 C1137 1.463 . S
C1134 C1139 1.350 . S
C1134 N1142 1.427 . S
C1135 H1126 0.930 . S
C1135 C1133 1.378 . S
C1135 C1136 1.367 . S
C1136 C1135 1.367 . S
C1136 C1138 1.433 . S
C1137 C1133 1.350 . S
C1137 C1134 1.463 . S
C1137 N1141 1.427 . S
C1138 H1128 0.929 . S
C1138 C1136 1.433 . S
C1138 N1141 1.384 . S
C1139 H1130 0.929 . S
C1139 C1131 1.378 . S
C1139 C1134 1.350 . S
C1140 H1127 0.929 . S
C1140 C1132 1.433 . S
C1140 N1142 1.384 . S
N1141 C1137 1.427 . S
N1141 C1138 1.384 . S
N1142 C1134 1.427 . S
N1142 C1140 1.384 . S
H1143 C1149 0.930 . S
H1144 C1153 0.930 . S
H1145 C1158 0.929 . S
H1146 C1156 0.929 . S
H1147 C1151 0.929 . S
H1148 C1157 0.929 . S
C1149 H1143 0.930 . S
C1149 C1150 1.367 . S
C1149 C1157 1.378 . S
C1150 C1149 1.367 . S
C1150 C1158 1.433 . S
C1151 H1147 0.929 . S
C1151 C1153 1.378 . S
C1151 C1155 1.350 . S
C1152 C1155 1.463 . S
C1152 C1157 1.350 . S
C1152 N1160 1.427 . S
C1153 H1144 0.930 . S
C1153 C1151 1.378 . S
C1153 C1154 1.367 . S
C1154 C1153 1.367 . S
C1154 C1156 1.433 . S
C1155 C1151 1.350 . S
C1155 C1152 1.463 . S
C1155 N1159 1.427 . S
C1156 H1146 0.929 . S
C1156 C1154 1.433 . S
C1156 N1159 1.384 . S
C1157 H1148 0.929 . S
C1157 C1149 1.378 . S
C1157 C1152 1.350 . S
C1158 H1145 0.929 . S
C1158 C1150 1.433 . S
C1158 N1160 1.384 . S
N1159 C1155 1.427 . S
N1159 C1156 1.384 . S
N1160 C1152 1.427 . S
N1160 C1158 1.384 . S
H1161 C1167 0.930 . S
H1162 C1171 0.930 . S
H1163 C1176 0.929 . S
H1164 C1174 0.929 . S
H1165 C1169 0.929 . S
H1166 C1175 0.929 . S
C1167 H1161 0.930 . S
C1167 C1168 1.367 . S
C1167 C1175 1.378 . S
C1168 C1167 1.367 . S
C1168 C1176 1.433 . S
C1169 H1165 0.929 . S
C1169 C1171 1.378 . S
C1169 C1173 1.350 . S
C1170 C1173 1.463 . S
C1170 C1175 1.350 . S
C1170 N1178 1.427 . S
C1171 H1162 0.930 . S
C1171 C1169 1.378 . S
C1171 C1172 1.367 . S
C1172 C1171 1.367 . S
C1172 C1174 1.433 . S
C1173 C1169 1.350 . S
C1173 C1170 1.463 . S
C1173 N1177 1.427 . S
C1174 H1164 0.929 . S
C1174 C1172 1.433 . S
C1174 N1177 1.384 . S
C1175 H1166 0.929 . S
C1175 C1167 1.378 . S
C1175 C1170 1.350 . S
C1176 H1163 0.929 . S
C1176 C1168 1.433 . S
C1176 N1178 1.384 . S
N1177 C1173 1.427 . S
N1177 C1174 1.384 . S
N1178 C1170 1.427 . S
N1178 C1176 1.384 . S
H1179 C1185 0.930 . S
H1180 C1189 0.930 . S
H1181 C1194 0.929 . S
H1182 C1192 0.929 . S
H1183 C1187 0.929 . S
H1184 C1193 0.929 . S
C1185 H1179 0.930 . S
C1185 C1186 1.367 . S
C1185 C1193 1.378 . S
C1186 C1185 1.367 . S
C1186 C1194 1.433 . S
C1187 H1183 0.929 . S
C1187 C1189 1.378 . S
C1187 C1191 1.350 . S
C1188 C1191 1.463 . S
C1188 C1193 1.350 . S
C1188 N1196 1.427 . S
C1189 H1180 0.930 . S
C1189 C1187 1.378 . S
C1189 C1190 1.367 . S
C1190 C1189 1.367 . S
C1190 C1192 1.433 . S
C1191 C1187 1.350 . S
C1191 C1188 1.463 . S
C1191 N1195 1.427 . S
C1192 H1182 0.929 . S
C1192 C1190 1.433 . S
C1192 N1195 1.384 . S
C1193 H1184 0.929 . S
C1193 C1185 1.378 . S
C1193 C1188 1.350 . S
C1194 H1181 0.929 . S
C1194 C1186 1.433 . S
C1194 N1196 1.384 . S
N1195 C1191 1.427 . S
N1195 C1192 1.384 . S
N1196 C1188 1.427 . S
N1196 C1194 1.384 . S
H1197 C1203 0.930 . S
H1198 C1207 0.930 . S
H1199 C1212 0.929 . S
H1200 C1210 0.929 . S
H1201 C1205 0.929 . S
H1202 C1211 0.929 . S
C1203 H1197 0.930 . S
C1203 C1204 1.367 . S
C1203 C1211 1.378 . S
C1204 C1203 1.367 . S
C1204 C1212 1.433 . S
C1205 H1201 0.929 . S
C1205 C1207 1.378 . S
C1205 C1209 1.350 . S
C1206 C1209 1.463 . S
C1206 C1211 1.350 . S
C1206 N1214 1.427 . S
C1207 H1198 0.930 . S
C1207 C1205 1.378 . S
C1207 C1208 1.367 . S
C1208 C1207 1.367 . S
C1208 C1210 1.433 . S
C1209 C1205 1.350 . S
C1209 C1206 1.463 . S
C1209 N1213 1.427 . S
C1210 H1200 0.929 . S
C1210 C1208 1.433 . S
C1210 N1213 1.384 . S
C1211 H1202 0.929 . S
C1211 C1203 1.378 . S
C1211 C1206 1.350 . S
C1212 H1199 0.929 . S
C1212 C1204 1.433 . S
C1212 N1214 1.384 . S
N1213 C1209 1.427 . S
N1213 C1210 1.384 . S
N1214 C1206 1.427 . S
N1214 C1212 1.384 . S
H1215 C1221 0.930 . S
H1216 C1225 0.930 . S
H1217 C1230 0.929 . S
H1218 C1228 0.929 . S
H1219 C1223 0.929 . S
H1220 C1229 0.929 . S
C1221 H1215 0.930 . S
C1221 C1222 1.367 . S
C1221 C1229 1.378 . S
C1222 C1221 1.367 . S
C1222 C1230 1.433 . S
C1223 H1219 0.929 . S
C1223 C1225 1.378 . S
C1223 C1227 1.350 . S
C1224 C1227 1.463 . S
C1224 C1229 1.350 . S
C1224 N1232 1.427 . S
C1225 H1216 0.930 . S
C1225 C1223 1.378 . S
C1225 C1226 1.367 . S
C1226 C1225 1.367 . S
C1226 C1228 1.433 . S
C1227 C1223 1.350 . S
C1227 C1224 1.463 . S
C1227 N1231 1.427 . S
C1228 H1218 0.929 . S
C1228 C1226 1.433 . S
C1228 N1231 1.384 . S
C1229 H1220 0.929 . S
C1229 C1221 1.378 . S
C1229 C1224 1.350 . S
C1230 H1217 0.929 . S
C1230 C1222 1.433 . S
C1230 N1232 1.384 . S
N1231 C1227 1.427 . S
N1231 C1228 1.384 . S
N1232 C1224 1.427 . S
N1232 C1230 1.384 . S
H1233 C1239 0.930 . S
H1234 C1243 0.930 . S
H1235 C1248 0.929 . S
H1236 C1246 0.929 . S
H1237 C1241 0.929 . S
H1238 C1247 0.929 . S
C1239 H1233 0.930 . S
C1239 C1240 1.367 . S
C1239 C1247 1.378 . S
C1240 C1239 1.367 . S
C1240 C1248 1.433 . S
C1241 H1237 0.929 . S
C1241 C1243 1.378 . S
C1241 C1245 1.350 . S
C1242 C1245 1.463 . S
C1242 C1247 1.350 . S
C1242 N1250 1.427 . S
C1243 H1234 0.930 . S
C1243 C1241 1.378 . S
C1243 C1244 1.367 . S
C1244 C1243 1.367 . S
C1244 C1246 1.433 . S
C1245 C1241 1.350 . S
C1245 C1242 1.463 . S
C1245 N1249 1.427 . S
C1246 H1236 0.929 . S
C1246 C1244 1.433 . S
C1246 N1249 1.384 . S
C1247 H1238 0.929 . S
C1247 C1239 1.378 . S
C1247 C1242 1.350 . S
C1248 H1235 0.929 . S
C1248 C1240 1.433 . S
C1248 N1250 1.384 . S
N1249 C1245 1.427 . S
N1249 C1246 1.384 . S
N1250 C1242 1.427 . S
N1250 C1248 1.384 . S
H1251 C1257 0.930 . S
H1252 C1261 0.930 . S
H1253 C1266 0.929 . S
H1254 C1264 0.929 . S
H1255 C1259 0.929 . S
H1256 C1265 0.929 . S
C1257 H1251 0.930 . S
C1257 C1258 1.367 . S
C1257 C1265 1.378 . S
C1258 C1257 1.367 . S
C1258 C1266 1.433 . S
C1259 H1255 0.929 . S
C1259 C1261 1.378 . S
C1259 C1263 1.350 . S
C1260 C1263 1.463 . S
C1260 C1265 1.350 . S
C1260 N1268 1.427 . S
C1261 H1252 0.930 . S
C1261 C1259 1.378 . S
C1261 C1262 1.367 . S
C1262 C1261 1.367 . S
C1262 C1264 1.433 . S
C1263 C1259 1.350 . S
C1263 C1260 1.463 . S
C1263 N1267 1.427 . S
C1264 H1254 0.929 . S
C1264 C1262 1.433 . S
C1264 N1267 1.384 . S
C1265 H1256 0.929 . S
C1265 C1257 1.378 . S
C1265 C1260 1.350 . S
C1266 H1253 0.929 . S
C1266 C1258 1.433 . S
C1266 N1268 1.384 . S
N1267 C1263 1.427 . S
N1267 C1264 1.384 . S
N1268 C1260 1.427 . S
N1268 C1266 1.384 . S
H1269 C1275 0.930 . S
H1270 C1279 0.930 . S
H1271 C1284 0.929 . S
H1272 C1282 0.929 . S
H1273 C1277 0.929 . S
H1274 C1283 0.929 . S
C1275 H1269 0.930 . S
C1275 C1276 1.367 . S
C1275 C1283 1.378 . S
C1276 C1275 1.367 . S
C1276 C1284 1.433 . S
C1277 H1273 0.929 . S
C1277 C1279 1.378 . S
C1277 C1281 1.350 . S
C1278 C1281 1.463 . S
C1278 C1283 1.350 . S
C1278 N1286 1.427 . S
C1279 H1270 0.930 . S
C1279 C1277 1.378 . S
C1279 C1280 1.367 . S
C1280 C1279 1.367 . S
C1280 C1282 1.433 . S
C1281 C1277 1.350 . S
C1281 C1278 1.463 . S
C1281 N1285 1.427 . S
C1282 H1272 0.929 . S
C1282 C1280 1.433 . S
C1282 N1285 1.384 . S
C1283 H1274 0.929 . S
C1283 C1275 1.378 . S
C1283 C1278 1.350 . S
C1284 H1271 0.929 . S
C1284 C1276 1.433 . S
C1284 N1286 1.384 . S
N1285 C1281 1.427 . S
N1285 C1282 1.384 . S
N1286 C1278 1.427 . S
N1286 C1284 1.384 . S
H1287 C1293 0.930 . S
H1288 C1297 0.930 . S
H1289 C1302 0.929 . S
H1290 C1300 0.929 . S
H1291 C1295 0.929 . S
H1292 C1301 0.929 . S
C1293 H1287 0.930 . S
C1293 C1294 1.367 . S
C1293 C1301 1.378 . S
C1294 C1293 1.367 . S
C1294 C1302 1.433 . S
C1295 H1291 0.929 . S
C1295 C1297 1.378 . S
C1295 C1299 1.350 . S
C1296 C1299 1.463 . S
C1296 C1301 1.350 . S
C1296 N1304 1.427 . S
C1297 H1288 0.930 . S
C1297 C1295 1.378 . S
C1297 C1298 1.367 . S
C1298 C1297 1.367 . S
C1298 C1300 1.433 . S
C1299 C1295 1.350 . S
C1299 C1296 1.463 . S
C1299 N1303 1.427 . S
C1300 H1290 0.929 . S
C1300 C1298 1.433 . S
C1300 N1303 1.384 . S
C1301 H1292 0.929 . S
C1301 C1293 1.378 . S
C1301 C1296 1.350 . S
C1302 H1289 0.929 . S
C1302 C1294 1.433 . S
C1302 N1304 1.384 . S
N1303 C1299 1.427 . S
N1303 C1300 1.384 . S
N1304 C1296 1.427 . S
N1304 C1302 1.384 . S
H1305 C1311 0.930 . S
H1306 C1315 0.930 . S
H1307 C1320 0.929 . S
H1308 C1318 0.929 . S
H1309 C1313 0.929 . S
H1310 C1319 0.929 . S
C1311 H1305 0.930 . S
C1311 C1312 1.367 . S
C1311 C1319 1.378 . S
C1312 C1311 1.367 . S
C1312 C1320 1.433 . S
C1313 H1309 0.929 . S
C1313 C1315 1.378 . S
C1313 C1317 1.350 . S
C1314 C1317 1.463 . S
C1314 C1319 1.350 . S
C1314 N1322 1.427 . S
C1315 H1306 0.930 . S
C1315 C1313 1.378 . S
C1315 C1316 1.367 . S
C1316 C1315 1.367 . S
C1316 C1318 1.433 . S
C1317 C1313 1.350 . S
C1317 C1314 1.463 . S
C1317 N1321 1.427 . S
C1318 H1308 0.929 . S
C1318 C1316 1.433 . S
C1318 N1321 1.384 . S
C1319 H1310 0.929 . S
C1319 C1311 1.378 . S
C1319 C1314 1.350 . S
C1320 H1307 0.929 . S
C1320 C1312 1.433 . S
C1320 N1322 1.384 . S
N1321 C1317 1.427 . S
N1321 C1318 1.384 . S
N1322 C1314 1.427 . S
N1322 C1320 1.384 . S
H1323 C1329 0.930 . S
H1324 C1333 0.930 . S
H1325 C1338 0.929 . S
H1326 C1336 0.929 . S
H1327 C1331 0.929 . S
H1328 C1337 0.929 . S
C1329 H1323 0.930 . S
C1329 C1330 1.367 . S
C1329 C1337 1.378 . S
C1330 C1329 1.367 . S
C1330 C1338 1.433 . S
C1331 H1327 0.929 . S
C1331 C1333 1.378 . S
C1331 C1335 1.350 . S
C1332 C1335 1.463 . S
C1332 C1337 1.350 . S
C1332 N1340 1.427 . S
C1333 H1324 0.930 . S
C1333 C1331 1.378 . S
C1333 C1334 1.367 . S
C1334 C1333 1.367 . S
C1334 C1336 1.433 . S
C1335 C1331 1.350 . S
C1335 C1332 1.463 . S
C1335 N1339 1.427 . S
C1336 H1326 0.929 . S
C1336 C1334 1.433 . S
C1336 N1339 1.384 . S
C1337 H1328 0.929 . S
C1337 C1329 1.378 . S
C1337 C1332 1.350 . S
C1338 H1325 0.929 . S
C1338 C1330 1.433 . S
C1338 N1340 1.384 . S
N1339 C1335 1.427 . S
N1339 C1336 1.384 . S
N1340 C1332 1.427 . S
N1340 C1338 1.384 . S
H1341 C1347 0.930 . S
H1342 C1351 0.930 . S
H1343 C1356 0.929 . S
H1344 C1354 0.929 . S
H1345 C1349 0.929 . S
H1346 C1355 0.929 . S
C1347 H1341 0.930 . S
C1347 C1348 1.367 . S
C1347 C1355 1.378 . S
C1348 C1347 1.367 . S
C1348 C1356 1.433 . S
C1349 H1345 0.929 . S
C1349 C1351 1.378 . S
C1349 C1353 1.350 . S
C1350 C1353 1.463 . S
C1350 C1355 1.350 . S
C1350 N1358 1.427 . S
C1351 H1342 0.930 . S
C1351 C1349 1.378 . S
C1351 C1352 1.367 . S
C1352 C1351 1.367 . S
C1352 C1354 1.433 . S
C1353 C1349 1.350 . S
C1353 C1350 1.463 . S
C1353 N1357 1.427 . S
C1354 H1344 0.929 . S
C1354 C1352 1.433 . S
C1354 N1357 1.384 . S
C1355 H1346 0.929 . S
C1355 C1347 1.378 . S
C1355 C1350 1.350 . S
C1356 H1343 0.929 . S
C1356 C1348 1.433 . S
C1356 N1358 1.384 . S
N1357 C1353 1.427 . S
N1357 C1354 1.384 . S
N1358 C1350 1.427 . S
N1358 C1356 1.384 . S
H1359 C1365 0.930 . S
H1360 C1369 0.930 . S
H1361 C1374 0.929 . S
H1362 C1372 0.929 . S
H1363 C1367 0.929 . S
H1364 C1373 0.929 . S
C1365 H1359 0.930 . S
C1365 C1366 1.367 . S
C1365 C1373 1.378 . S
C1366 C1365 1.367 . S
C1366 C1374 1.433 . S
C1367 H1363 0.929 . S
C1367 C1369 1.378 . S
C1367 C1371 1.350 . S
C1368 C1371 1.463 . S
C1368 C1373 1.350 . S
C1368 N1376 1.427 . S
C1369 H1360 0.930 . S
C1369 C1367 1.378 . S
C1369 C1370 1.367 . S
C1370 C1369 1.367 . S
C1370 C1372 1.433 . S
C1371 C1367 1.350 . S
C1371 C1368 1.463 . S
C1371 N1375 1.427 . S
C1372 H1362 0.929 . S
C1372 C1370 1.433 . S
C1372 N1375 1.384 . S
C1373 H1364 0.929 . S
C1373 C1365 1.378 . S
C1373 C1368 1.350 . S
C1374 H1361 0.929 . S
C1374 C1366 1.433 . S
C1374 N1376 1.384 . S
N1375 C1371 1.427 . S
N1375 C1372 1.384 . S
N1376 C1368 1.427 . S
N1376 C1374 1.384 . S
H1377 C1383 0.930 . S
H1378 C1387 0.930 . S
H1379 C1392 0.929 . S
H1380 C1390 0.929 . S
H1381 C1385 0.929 . S
H1382 C1391 0.929 . S
C1383 H1377 0.930 . S
C1383 C1384 1.367 . S
C1383 C1391 1.378 . S
C1384 C1383 1.367 . S
C1384 C1392 1.433 . S
C1385 H1381 0.929 . S
C1385 C1387 1.378 . S
C1385 C1389 1.350 . S
C1386 C1389 1.463 . S
C1386 C1391 1.350 . S
C1386 N1394 1.427 . S
C1387 H1378 0.930 . S
C1387 C1385 1.378 . S
C1387 C1388 1.367 . S
C1388 C1387 1.367 . S
C1388 C1390 1.433 . S
C1389 C1385 1.350 . S
C1389 C1386 1.463 . S
C1389 N1393 1.427 . S
C1390 H1380 0.929 . S
C1390 C1388 1.433 . S
C1390 N1393 1.384 . S
C1391 H1382 0.929 . S
C1391 C1383 1.378 . S
C1391 C1386 1.350 . S
C1392 H1379 0.929 . S
C1392 C1384 1.433 . S
C1392 N1394 1.384 . S
N1393 C1389 1.427 . S
N1393 C1390 1.384 . S
N1394 C1386 1.427 . S
N1394 C1392 1.384 . S
C430 N170 1.802 . S
C434 C251 1.710 . S
C448 N184 1.053 . S
C452 C272 1.012 . S
C466 N158 1.493 . S
C470 C294 1.308 . S
C484 N145 1.490 . S
C488 C273 1.295 . S
C506 C293 1.024 . S
C502 N119 1.062 . S
C520 N131 1.757 . S
C524 C252 1.497 . S
C542 C247 1.416 . S
C538 N144 1.479 1_554 S
C560 C268 1.242 . S
C556 N118 1.283 . S
C574 N132 1.461 . S
C578 C291 1.305 . S
C592 N171 1.450 . S
C596 C270 1.313 . S
C610 N183 1.263 . S
C614 C289 1.217 . S
C632 C249 1.275 . S
C628 N157 1.497 . S
C650 C314 1.720 . S
C646 N14 1.809 . S
C664 N28 1.050 . S
C668 C335 1.029 . S
C682 N2 1.486 . S
C686 C357 1.280 . S
C700 N223 1.481 . S
C704 C336 1.269 . S
C718 N197 1.052 . S
C722 C356 1.015 . S
C736 N209 1.756 . S
C740 C315 1.496 . S
C754 N222 1.477 . S
C758 C310 1.404 . S
C772 N196 1.283 . S
C776 C331 1.240 . S
C794 C354 1.316 . S
C790 N210 1.464 . S
C808 N15 1.452 . S
C812 C333 1.304 . S
C830 C352 1.211 . S
C826 N27 1.263 . S
C844 N1 1.500 . S
C848 C312 1.293 . S
C866 C377 1.724 . S
C862 N92 1.811 . S
C880 N106 1.060 . S
C884 C398 1.026 . S
C902 C420 1.308 . S
C898 N80 1.494 . S
C920 C399 1.280 . S
C916 N67 1.482 . S
C938 C419 1.028 . S
C934 N41 1.062 . S
C952 N53 1.760 . S
C956 C378 1.515 . S
C970 N66 1.483 . S
C974 C373 1.417 . S
C988 N40 1.281 . S
C992 C394 1.233 . S
C1010 C417 1.302 . S
C1006 N54 1.460 . S
C1024 N93 1.453 . S
C1028 C396 1.307 . S
C1042 N105 1.263 . S
C1046 C415 1.218 . S
C1060 N79 1.497 . S
C1064 C375 1.273 . S
C1078 N200 1.231 . S
C1082 C250 1.195 . S
C1100 C271 1.709 . S
C1096 N213 1.726 . S
C1114 N226 1.490 . S
C1118 C290 1.488 . S
C1132 N83 1.534 . S
C1136 C269 1.529 . S
C1150 N96 1.754 . S
C1154 C292 1.732 . S
C1172 C248 1.303 . S
C1168 N109 1.313 . S
C1186 N44 1.232 . S
C1190 C313 1.192 . S
C1204 N57 1.735 . S
C1208 C334 1.714 . S
C1222 N70 1.480 . S
C1226 C353 1.478 . S
C1240 N161 1.541 . S
C1244 C332 1.539 . S
C1262 C355 1.737 . S
C1258 N174 1.762 . S
C1276 N187 1.318 . S
C1280 C311 1.312 . S
C1294 N122 1.233 . S
C1298 C376 1.192 . S
C1312 N135 1.727 . S
C1316 C397 1.710 . S
C1334 C416 1.479 . S
C1330 N148 1.481 . S
C1348 N5 1.534 . S
C1352 C395 1.529 . S
C1366 N18 1.762 . S
C1370 C418 1.742 . S
C1384 N31 1.320 . S
C1388 C374 1.313 . S
