# Generated by pormake.
# Topology csq, (4,8)-cn, num edge types: 1
# Building blocks:
#     Node 0, Type 0, BuildingBlock: AZAVOO_clean_linker_0, # of connection points: 4
#     Node 1, Type 0, BuildingBlock: AZAVOO_clean_linker_0, # of connection points: 4
#     Node 2, Type 0, BuildingBlock: AZAVOO_clean_linker_0, # of connection points: 4
#     Node 3, Type 0, BuildingBlock: AZAVOO_clean_linker_0, # of connection points: 4
#     Node 4, Type 0, BuildingBlock: AZAVOO_clean_linker_0, # of connection points: 4
#     Node 5, Type 0, BuildingBlock: AZAVOO_clean_linker_0, # of connection points: 4
#     Node 6, Type 1, BuildingBlock: TAGTUT_clean_sbu_3, # of connection points: 8
#     Node 7, Type 1, BuildingBlock: TAGTUT_clean_sbu_3, # of connection points: 8
#     Node 8, Type 1, BuildingBlock: TAGTUT_clean_sbu_3, # of connection points: 8
#     Edge 9, Type (0, 1), BuildingBlock: TEMPAE_clean_linker_10, # of connection points: 2
#     Edge 10, Type (0, 1), BuildingBlock: TEMPAE_clean_linker_10, # of connection points: 2
#     Edge 11, Type (0, 1), BuildingBlock: TEMPAE_clean_linker_10, # of connection points: 2
#     Edge 12, Type (0, 1), BuildingBlock: TEMPAE_clean_linker_10, # of connection points: 2
#     Edge 13, Type (0, 1), BuildingBlock: TEMPAE_clean_linker_10, # of connection points: 2
#     Edge 14, Type (0, 1), BuildingBlock: TEMPAE_clean_linker_10, # of connection points: 2
#     Edge 15, Type (0, 1), BuildingBlock: TEMPAE_clean_linker_10, # of connection points: 2
#     Edge 16, Type (0, 1), BuildingBlock: TEMPAE_clean_linker_10, # of connection points: 2
#     Edge 17, Type (0, 1), BuildingBlock: TEMPAE_clean_linker_10, # of connection points: 2
#     Edge 18, Type (0, 1), BuildingBlock: TEMPAE_clean_linker_10, # of connection points: 2
#     Edge 19, Type (0, 1), BuildingBlock: TEMPAE_clean_linker_10, # of connection points: 2
#     Edge 20, Type (0, 1), BuildingBlock: TEMPAE_clean_linker_10, # of connection points: 2
#     Edge 21, Type (0, 1), BuildingBlock: TEMPAE_clean_linker_10, # of connection points: 2
#     Edge 22, Type (0, 1), BuildingBlock: TEMPAE_clean_linker_10, # of connection points: 2
#     Edge 23, Type (0, 1), BuildingBlock: TEMPAE_clean_linker_10, # of connection points: 2
#     Edge 24, Type (0, 1), BuildingBlock: TEMPAE_clean_linker_10, # of connection points: 2
#     Edge 25, Type (0, 1), BuildingBlock: TEMPAE_clean_linker_10, # of connection points: 2
#     Edge 26, Type (0, 1), BuildingBlock: TEMPAE_clean_linker_10, # of connection points: 2
#     Edge 27, Type (0, 1), BuildingBlock: TEMPAE_clean_linker_10, # of connection points: 2
#     Edge 28, Type (0, 1), BuildingBlock: TEMPAE_clean_linker_10, # of connection points: 2
#     Edge 29, Type (0, 1), BuildingBlock: TEMPAE_clean_linker_10, # of connection points: 2
#     Edge 30, Type (0, 1), BuildingBlock: TEMPAE_clean_linker_10, # of connection points: 2
#     Edge 31, Type (0, 1), BuildingBlock: TEMPAE_clean_linker_10, # of connection points: 2
#     Edge 32, Type (0, 1), BuildingBlock: TEMPAE_clean_linker_10, # of connection points: 2
# Relax obj value: 0.136
# Max RMSD: 0.242
# Mean RMSD: 0.202
data_MOF--net-csq--node1-TAGTUT_clean_sbu_3--node2-AZAVOO_clean_linker_0--edge1-TEMPAE_clean_linker_10
_symmetry_space_group_name_H-M    P1
_symmetry_Int_Tables_number       1
_symmetry_cell_setting            triclinic
loop_
_symmetry_equiv_pos_as_xyz
'x, y, z'
_cell_length_a     57.890484
_cell_length_b     57.244704
_cell_length_c     23.371637
_cell_angle_alpha  92.311172
_cell_angle_beta   92.466092
_cell_angle_gamma 119.8766
loop_
_atom_site_label
_atom_site_type_symbol
_atom_site_fract_x
_atom_site_fract_y
_atom_site_fract_z
_atom_type_partial_charge
H0 H 0.18726 0.48579 0.50287 0.0
H1 H 0.40206 0.49763 0.08838 0.0
H2 H 0.17286 0.43033 0.20145 0.0
H3 H 0.13762 0.43276 0.25084 0.0
H4 H 0.16829 0.51463 0.2038 0.0
H5 H 0.2039 0.51221 0.15501 0.0
H6 H 0.20978 0.44399 0.29292 0.0
H7 H 0.19683 0.45368 0.3853 0.0
H8 H 0.23328 0.53801 0.35107 0.0
H9 H 0.24625 0.52801 0.25891 0.0
H10 H 0.25264 0.44385 0.28128 0.0
H11 H 0.28754 0.44382 0.34409 0.0
H12 H 0.34414 0.52341 0.29598 0.0
H13 H 0.30875 0.52401 0.23539 0.0
H14 H 0.2772 0.43608 0.16884 0.0
H15 H 0.31897 0.43604 0.15655 0.0
H16 H 0.35436 0.51694 0.0996 0.0
H17 H 0.31266 0.51692 0.11333 0.0
H18 H 0.24197 0.42328 0.05435 0.0
H19 H 0.27235 0.42032 0.98878 0.0
H20 H 0.30497 0.50465 0.95896 0.0
H21 H 0.27444 0.50731 0.02419 0.0
H22 H 0.17561 0.42096 0.09142 0.0
H23 H 0.14109 0.40786 0.01342 0.0
H24 H 0.19195 0.4819 0.93431 0.0
H25 H 0.22545 0.49561 0.01476 0.0
O26 O 0.19302 0.4825 0.46666 0.0
O27 O 0.20988 0.52513 0.4446 0.0
O28 O 0.36782 0.45749 0.13254 0.0
O29 O 0.38551 0.49734 0.09472 0.0
C30 C 0.21671 0.47271 0.16412 0.0
C31 C 0.2353 0.47921 0.21184 0.0
C32 C 0.25981 0.48045 0.20431 0.0
C33 C 0.26636 0.47623 0.14893 0.0
C34 C 0.24815 0.47034 0.1009 0.0
C35 C 0.22297 0.46791 0.1085 0.0
C36 C 0.19085 0.47105 0.17447 0.0
C37 C 0.17128 0.44836 0.19953 0.0
C38 C 0.15138 0.44988 0.22824 0.0
C39 C 0.15055 0.47399 0.23158 0.0
C40 C 0.16852 0.49581 0.20157 0.0
C41 C 0.18869 0.49438 0.17336 0.0
C42 C 0.22918 0.48536 0.26966 0.0
C43 C 0.2153 0.4646 0.3059 0.0
C44 C 0.2078 0.47017 0.35848 0.0
C45 C 0.21403 0.49663 0.37559 0.0
C46 C 0.22819 0.51742 0.33922 0.0
C47 C 0.23574 0.51181 0.28674 0.0
C48 C 0.27815 0.48401 0.25418 0.0
C49 C 0.27215 0.46189 0.28674 0.0
C50 C 0.29212 0.46174 0.32196 0.0
C51 C 0.31835 0.48349 0.32396 0.0
C52 C 0.32396 0.50644 0.29469 0.0
C53 C 0.3038 0.50687 0.26061 0.0
C54 C 0.29189 0.47642 0.14159 0.0
C55 C 0.29405 0.45379 0.15393 0.0
C56 C 0.31791 0.45383 0.14684 0.0
C57 C 0.33999 0.47648 0.12693 0.0
C58 C 0.33773 0.49915 0.11484 0.0
C59 C 0.31394 0.49918 0.12249 0.0
C60 C 0.25598 0.4655 0.04402 0.0
C61 C 0.25457 0.44067 0.03106 0.0
C62 C 0.27233 0.43918 0.99451 0.0
C63 C 0.29156 0.46247 0.9701 0.0
C64 C 0.29044 0.48638 0.97717 0.0
C65 C 0.27273 0.48787 0.01393 0.0
C66 C 0.2029 0.45938 0.05911 0.0
C67 C 0.17918 0.43439 0.05735 0.0
C68 C 0.15965 0.42676 0.01222 0.0
C69 C 0.16364 0.44383 0.96748 0.0
C70 C 0.18796 0.46844 0.96847 0.0
C71 C 0.20727 0.47623 0.01412 0.0
C72 C 0.20557 0.50239 0.43095 0.0
C73 C 0.36523 0.47645 0.11842 0.0
H74 H 0.82148 0.24757 0.4801 0.0
H75 H 0.64155 0.05876 0.94675 0.0
H76 H 0.78886 0.28737 0.15827 0.0
H77 H 0.81921 0.32487 0.22688 0.0
H78 H 0.87177 0.29165 0.2386 0.0
H79 H 0.84164 0.25463 0.16882 0.0
H80 H 0.77307 0.24733 0.25507 0.0
H81 H 0.79016 0.252 0.35494 0.0
H82 H 0.82274 0.20074 0.30996 0.0
H83 H 0.80587 0.19659 0.21001 0.0
H84 H 0.72202 0.19006 0.21812 0.0
H85 H 0.69363 0.14987 0.26765 0.0
H86 H 0.73171 0.109 0.19055 0.0
H87 H 0.75954 0.14932 0.13965 0.0
H88 H 0.69524 0.1781 0.09621 0.0
H89 H 0.65564 0.13635 0.05691 0.0
H90 H 0.70652 0.111 0.97789 0.0
H91 H 0.74595 0.15298 0.01716 0.0
H92 H 0.71647 0.22056 0.01659 0.0
H93 H 0.68589 0.19499 0.93374 0.0
H94 H 0.74525 0.17844 0.86757 0.0
H95 H 0.77544 0.20344 0.952 0.0
H96 H 0.76217 0.26848 0.01424 0.0
H97 H 0.78491 0.30342 0.94798 0.0
H98 H 0.85805 0.30245 0.98945 0.0
H99 H 0.83424 0.26535 0.04964 0.0
O100 O 0.81473 0.24529 0.44046 0.0
O101 O 0.83059 0.21836 0.41537 0.0
O102 O 0.63162 0.0911 0.99744 0.0
O103 O 0.65687 0.07557 0.9622 0.0
C104 C 0.79152 0.24249 0.13072 0.0
C105 C 0.779 0.2199 0.16427 0.0
C106 C 0.75713 0.19565 0.14017 0.0
C107 C 0.74729 0.19395 0.08327 0.0
C108 C 0.75952 0.2165 0.04975 0.0
C109 C 0.78202 0.24082 0.07291 0.0
C110 C 0.81305 0.26832 0.15889 0.0
C111 C 0.80739 0.28875 0.17414 0.0
C112 C 0.82449 0.30984 0.214 0.0
C113 C 0.84749 0.31077 0.23902 0.0
C114 C 0.85417 0.29142 0.2201 0.0
C115 C 0.83708 0.27036 0.18014 0.0
C116 C 0.78838 0.22176 0.22536 0.0
C117 C 0.78392 0.23716 0.26691 0.0
C118 C 0.79368 0.23976 0.32392 0.0
C119 C 0.80787 0.22679 0.34043 0.0
C120 C 0.81193 0.21103 0.29869 0.0
C121 C 0.80226 0.20855 0.24164 0.0
C122 C 0.74281 0.17252 0.17572 0.0
C123 C 0.72451 0.17257 0.21281 0.0
C124 C 0.70839 0.1496 0.24113 0.0
C125 C 0.71043 0.1262 0.23312 0.0
C126 C 0.72945 0.12657 0.19711 0.0
C127 C 0.7455 0.14959 0.16848 0.0
C128 C 0.72337 0.16851 0.0593 0.0
C129 C 0.69774 0.16349 0.07034 0.0
C130 C 0.6752 0.13967 0.0478 0.0
C131 C 0.67793 0.12034 0.01423 0.0
C132 C 0.70372 0.12544 0.0036 0.0
C133 C 0.72625 0.14937 0.02588 0.0
C134 C 0.74796 0.21349 0.99048 0.0
C135 C 0.72343 0.21272 0.98259 0.0
C136 C 0.7059 0.19796 0.93522 0.0
C137 C 0.71291 0.18403 0.89511 0.0
C138 C 0.73914 0.18845 0.8987 0.0
C139 C 0.75658 0.20306 0.94639 0.0
C140 C 0.79631 0.26386 0.03624 0.0
C141 C 0.78297 0.27544 0.008 0.0
C142 C 0.79623 0.29586 0.97075 0.0
C143 C 0.82344 0.30584 0.96229 0.0
C144 C 0.83694 0.29489 0.99283 0.0
C145 C 0.82345 0.2739 0.02843 0.0
C146 C 0.81844 0.22981 0.40092 0.0
C147 C 0.65403 0.09486 0.99078 0.0
H148 H 0.57338 0.85276 0.75957 0.0
H149 H 0.47946 0.57074 0.96786 0.0
H150 H 0.5733 0.81872 0.05473 0.0
H151 H 0.57253 0.85511 0.00594 0.0
H152 H 0.4868 0.81492 0.01343 0.0
H153 H 0.48774 0.77782 0.05918 0.0
H154 H 0.57716 0.79221 0.95241 0.0
H155 H 0.58368 0.81992 0.8708 0.0
H156 H 0.49839 0.78785 0.84849 0.0
H157 H 0.4923 0.76123 0.93169 0.0
H158 H 0.56908 0.72934 0.95081 0.0
H159 H 0.57125 0.71084 0.85691 0.0
H160 H 0.49316 0.69881 0.80454 0.0
H161 H 0.49039 0.71518 0.90074 0.0
H162 H 0.56109 0.70167 0.04394 0.0
H163 H 0.55442 0.65629 0.02427 0.0
H164 H 0.46978 0.62535 0.98911 0.0
H165 H 0.47681 0.67087 0.00895 0.0
H166 H 0.56082 0.72116 0.14933 0.0
H167 H 0.55497 0.68789 0.2172 0.0
H168 H 0.47083 0.66237 0.2166 0.0
H169 H 0.47674 0.69413 0.14411 0.0
H170 H 0.56732 0.7918 0.16871 0.0
H171 H 0.56646 0.81224 0.26228 0.0
H172 H 0.48098 0.7594 0.257 0.0
H173 H 0.48198 0.73935 0.16307 0.0
O174 O 0.57039 0.84135 0.7911 0.0
O175 O 0.52621 0.8213 0.77629 0.0
O176 O 0.52628 0.60573 0.99512 0.0
O177 O 0.48262 0.58881 0.97661 0.0
C178 C 0.52928 0.76882 0.05398 0.0
C179 C 0.5305 0.75873 0.99865 0.0
C180 C 0.52775 0.73302 0.99074 0.0
C181 C 0.52358 0.71707 0.03775 0.0
C182 C 0.52243 0.72703 0.09326 0.0
C183 C 0.52525 0.753 0.10145 0.0
C184 C 0.53051 0.79531 0.059 0.0
C185 C 0.55454 0.81854 0.04886 0.0
C186 C 0.554 0.83928 0.02033 0.0
C187 C 0.52943 0.83727 0.00332 0.0
C188 C 0.50595 0.81645 0.02376 0.0
C189 C 0.50648 0.7955 0.05126 0.0
C190 C 0.53431 0.77498 0.94817 0.0
C191 C 0.55996 0.79134 0.92994 0.0
C192 C 0.56361 0.80711 0.88335 0.0
C193 C 0.54157 0.80629 0.85347 0.0
C194 C 0.51581 0.78917 0.87092 0.0
C195 C 0.51226 0.77391 0.9183 0.0
C196 C 0.52937 0.72296 0.93271 0.0
C197 C 0.55243 0.72255 0.91901 0.0
C198 C 0.55384 0.71256 0.86474 0.0
C199 C 0.53236 0.70332 0.82278 0.0
C200 C 0.50989 0.70534 0.83593 0.0
C201 C 0.50825 0.71469 0.89077 0.0
C202 C 0.5194 0.68943 0.02808 0.0
C203 C 0.54113 0.68501 0.03233 0.0
C204 C 0.53725 0.6591 0.02094 0.0
C205 C 0.51155 0.63718 0.00503 0.0
C206 C 0.48982 0.64176 0.00123 0.0
C207 C 0.49374 0.66769 0.01263 0.0
C208 C 0.5193 0.7103 0.14235 0.0
C209 C 0.54121 0.7086 0.16455 0.0
C210 C 0.53776 0.68958 0.20382 0.0
C211 C 0.51235 0.67222 0.22306 0.0
C212 C 0.49061 0.6749 0.20231 0.0
C213 C 0.494 0.69346 0.16168 0.0
C214 C 0.52475 0.76399 0.15946 0.0
C215 C 0.54848 0.78449 0.1881 0.0
C216 C 0.54794 0.79608 0.24139 0.0
C217 C 0.52366 0.78728 0.26694 0.0
C218 C 0.50001 0.76624 0.23874 0.0
C219 C 0.50054 0.75482 0.18515 0.0
C220 C 0.54548 0.82335 0.80458 0.0
C221 C 0.50737 0.60968 0.99206 0.0
H222 H 0.80505 0.66469 0.43188 0.0
H223 H 0.96647 0.60865 0.95684 0.0
H224 H 0.75574 0.55493 0.13677 0.0
H225 H 0.71979 0.5506 0.19489 0.0
H226 H 0.74773 0.63558 0.18652 0.0
H227 H 0.78317 0.63977 0.12602 0.0
H228 H 0.79826 0.59364 0.23729 0.0
H229 H 0.79712 0.61644 0.32691 0.0
H230 H 0.84537 0.69377 0.25722 0.0
H231 H 0.84598 0.67065 0.16729 0.0
H232 H 0.85005 0.60099 0.2271 0.0
H233 H 0.89078 0.61502 0.28643 0.0
H234 H 0.93611 0.6742 0.16706 0.0
H235 H 0.8945 0.66054 0.10816 0.0
H236 H 0.86445 0.5736 0.12181 0.0
H237 H 0.90364 0.57076 0.09663 0.0
H238 H 0.91767 0.62654 0.96526 0.0
H239 H 0.87873 0.62957 0.99166 0.0
H240 H 0.81463 0.53766 0.04041 0.0
H241 H 0.83361 0.51896 0.97368 0.0
H242 H 0.84808 0.58188 0.86029 0.0
H243 H 0.82882 0.6003 0.92722 0.0
H244 H 0.76526 0.53261 0.02649 0.0
H245 H 0.72048 0.50956 0.9758 0.0
H246 H 0.72711 0.5869 0.95062 0.0
H247 H 0.77187 0.60975 -0.00073 0.0
O248 O 0.80603 0.65611 0.39624 0.0
O249 O 0.83187 0.69541 0.35952 0.0
O250 O 0.94433 0.58286 0.03939 0.0
O251 O 0.95112 0.60971 0.96821 0.0
C252 C 0.79741 0.60129 0.10534 0.0
C253 C 0.82154 0.61652 0.14008 0.0
C254 C 0.84508 0.61743 0.12352 0.0
C255 C 0.84449 0.60278 0.07294 0.0
C256 C 0.82038 0.58739 0.03823 0.0
C257 C 0.79694 0.58711 0.05373 0.0
C258 C 0.77216 0.59769 0.12731 0.0
C259 C 0.75346 0.57239 0.1452 0.0
C260 C 0.7331 0.56996 0.17869 0.0
C261 C 0.73133 0.59281 0.19504 0.0
C262 C 0.74883 0.61775 0.17404 0.0
C263 C 0.76894 0.62011 0.13957 0.0
C264 C 0.82195 0.63049 0.19556 0.0
C265 C 0.80849 0.6155 0.24139 0.0
C266 C 0.80793 0.62858 0.29259 0.0
C267 C 0.82105 0.65693 0.29915 0.0
C268 C 0.83498 0.67191 0.2535 0.0
C269 C 0.83543 0.65878 0.20217 0.0
C270 C 0.86929 0.62988 0.16365 0.0
C271 C 0.86852 0.61782 0.21495 0.0
C272 C 0.89188 0.62589 0.24881 0.0
C273 C 0.91657 0.64587 0.23149 0.0
C274 C 0.91727 0.65888 0.18138 0.0
C275 C 0.89363 0.6511 0.14787 0.0
C276 C 0.86878 0.60176 0.05848 0.0
C277 C 0.87615 0.58533 0.0879 0.0
C278 C 0.89848 0.5837 0.07332 0.0
C279 C 0.91377 0.5984 0.02883 0.0
C280 C 0.90634 0.61494 -0.00033 0.0
C281 C 0.88411 0.6167 0.0146 0.0
C282 C 0.82032 0.57033 0.98865 0.0
C283 C 0.82053 0.54651 -0.00032 0.0
C284 C 0.83182 0.53614 0.96199 0.0
C285 C 0.8429 0.54933 0.91244 0.0
C286 C 0.83968 0.57124 0.89808 0.0
C287 C 0.82844 0.58168 0.93602 0.0
C288 C 0.77188 0.57287 0.01616 0.0
C289 C 0.75733 0.54454 0.00855 0.0
C290 C 0.73174 0.53142 0.9803 0.0
C291 C 0.72035 0.54654 0.96049 0.0
C292 C 0.73535 0.57485 0.96651 0.0
C293 C 0.76094 0.58788 0.99372 0.0
C294 C 0.82007 0.67074 0.35335 0.0
C295 C 0.9373 0.59646 0.01267 0.0
H296 H 0.27587 0.87163 0.47117 0.0
H297 H 0.10932 0.61954 0.04192 0.0
H298 H 0.26151 0.87099 0.16502 0.0
H299 H 0.30546 0.90461 0.20934 0.0
H300 H 0.33867 0.85695 0.14278 0.0
H301 H 0.29509 0.82423 0.097 0.0
H302 H 0.21616 0.82514 0.24855 0.0
H303 H 0.23462 0.84524 0.34587 0.0
H304 H 0.30271 0.835 0.32064 0.0
H305 H 0.28394 0.81475 0.22375 0.0
H306 H 0.16445 0.75591 0.20064 0.0
H307 H 0.14793 0.72824 0.28092 0.0
H308 H 0.22799 0.74324 0.32585 0.0
H309 H 0.24246 0.766 0.23902 0.0
H310 H 0.15136 0.75132 0.07614 0.0
H311 H 0.11533 0.70505 0.05055 0.0
H312 H 0.1695 0.67566 0.09133 0.0
H313 H 0.20546 0.72212 0.11605 0.0
H314 H 0.17656 0.78525 0.98915 0.0
H315 H 0.14973 0.75247 0.90855 0.0
H316 H 0.20084 0.71764 0.92063 0.0
H317 H 0.22698 0.74986 0.00145 0.0
H318 H 0.24132 0.85777 0.0433 0.0
H319 H 0.26816 0.88849 0.97312 0.0
H320 H 0.28508 0.82774 0.90398 0.0
H321 H 0.26059 0.79848 0.97829 0.0
O322 O 0.26905 0.86386 0.43239 0.0
O323 O 0.30099 0.85363 0.4208 0.0
O324 O 0.09585 0.65407 0.03413 0.0
O325 O 0.123 0.63794 0.05342 0.0
C326 C 0.24848 0.82055 0.12156 0.0
C327 C 0.23713 0.80609 0.17017 0.0
C328 C 0.21486 0.77965 0.16297 0.0
C329 C 0.20347 0.7683 0.107 0.0
C330 C 0.21443 0.78329 0.05865 0.0
C331 C 0.23676 0.80955 0.06584 0.0
C332 C 0.27518 0.845 0.12923 0.0
C333 C 0.2786 0.86861 0.15771 0.0
C334 C 0.30364 0.88762 0.18326 0.0
C335 C 0.32523 0.88284 0.18123 0.0
C336 C 0.32245 0.86116 0.14541 0.0
C337 C 0.29751 0.84237 0.11928 0.0
C338 C 0.24877 0.81866 0.22895 0.0
C339 C 0.23508 0.82732 0.26412 0.0
C340 C 0.24569 0.83881 0.31963 0.0
C341 C 0.27012 0.84168 0.34106 0.0
C342 C 0.28382 0.83302 0.30555 0.0
C343 C 0.27324 0.82163 0.25002 0.0
C344 C 0.20479 0.76333 0.2138 0.0
C345 C 0.17821 0.75262 0.22724 0.0
C346 C 0.16897 0.73724 0.27475 0.0
C347 C 0.18644 0.73333 0.31223 0.0
C348 C 0.2133 0.74476 0.29872 0.0
C349 C 0.22202 0.75865 0.24927 0.0
C350 C 0.18098 0.74003 0.09788 0.0
C351 C 0.15532 0.73483 0.07994 0.0
C352 C 0.13481 0.70839 0.06527 0.0
C353 C 0.13957 0.68665 0.06859 0.0
C354 C 0.16517 0.69193 0.0881 0.0
C355 C 0.1857 0.71841 0.1026 0.0
C356 C 0.20367 0.76987 0.00071 0.0
C357 C 0.18254 0.77124 0.9727 0.0
C358 C 0.16722 0.75249 0.92712 0.0
C359 C 0.17328 0.7326 0.90872 0.0
C360 C 0.19599 0.733 0.93352 0.0
C361 C 0.21095 0.75138 0.97956 0.0
C362 C 0.24871 0.8257 0.01584 0.0
C363 C 0.25058 0.851 0.01246 0.0
C364 C 0.26582 0.8685 0.97182 0.0
C365 C 0.27914 0.86086 0.93275 0.0
C366 C 0.27573 0.83473 0.93404 0.0
C367 C 0.26112 0.81757 0.97579 0.0
C368 C 0.28108 0.85342 0.40039 0.0
C369 C 0.11809 0.65862 0.05107 0.0
H370 H 0.48334 0.27906 0.80606 0.0
H371 H 0.46239 0.05782 0.19857 0.0
H372 H 0.49659 0.27979 0.14977 0.0
H373 H 0.50313 0.31633 0.09015 0.0
H374 H 0.4183 0.27547 0.04427 0.0
H375 H 0.41189 0.23915 0.10495 0.0
H376 H 0.50032 0.25039 0.03556 0.0
H377 H 0.50145 0.26708 0.94025 0.0
H378 H 0.41509 0.22369 0.92315 0.0
H379 H 0.41428 0.20655 0.01776 0.0
H380 H 0.51233 0.20812 0.08906 0.0
H381 H 0.53025 0.19457 0.00949 0.0
H382 H 0.45132 0.15155 0.922 0.0
H383 H 0.43347 0.16456 0.00279 0.0
H384 H 0.50562 0.18985 0.20095 0.0
H385 H 0.51376 0.15301 0.22267 0.0
H386 H 0.43524 0.09525 0.14523 0.0
H387 H 0.4273 0.13237 0.12417 0.0
H388 H 0.49315 0.21884 0.28834 0.0
H389 H 0.49977 0.19296 0.36121 0.0
H390 H 0.42202 0.12451 0.30869 0.0
H391 H 0.41511 0.15104 0.23806 0.0
H392 H 0.49226 0.26256 0.25675 0.0
H393 H 0.49054 0.2859 0.34487 0.0
H394 H 0.40474 0.23454 0.33636 0.0
H395 H 0.40674 0.21094 0.24776 0.0
O396 O 0.48247 0.27195 0.84327 0.0
O397 O 0.43828 0.25303 0.84099 0.0
O398 O 0.50092 0.10343 0.22402 0.0
O399 O 0.45995 0.07278 0.18898 0.0
C400 C 0.4525 0.23053 0.13973 0.0
C401 C 0.45644 0.21745 0.09164 0.0
C402 C 0.46145 0.1961 0.09919 0.0
C403 C 0.46003 0.18597 0.15347 0.0
C404 C 0.45425 0.19774 0.20106 0.0
C405 C 0.45139 0.22063 0.1946 0.0
C406 C 0.45379 0.25669 0.13143 0.0
C407 C 0.47921 0.27953 0.12986 0.0
C408 C 0.48298 0.30013 0.09472 0.0
C409 C 0.46134 0.29826 0.06105 0.0
C410 C 0.43538 0.27738 0.06943 0.0
C411 C 0.43162 0.25674 0.10473 0.0
C412 C 0.45722 0.22739 0.03352 0.0
C413 C 0.48169 0.24439 0.01092 0.0
C414 C 0.48226 0.25389 0.95655 0.0
C415 C 0.45835 0.24683 0.92422 0.0
C416 C 0.43386 0.22963 0.94702 0.0
C417 C 0.43334 0.21982 0.001 0.0
C418 C 0.47159 0.18684 0.05179 0.0
C419 C 0.49893 0.19554 0.05286 0.0
C420 C 0.50917 0.18818 0.00713 0.0
C421 C 0.49217 0.1721 0.95964 0.0
C422 C 0.4648 0.16377 0.95841 0.0
C423 C 0.45456 0.17106 0.00433 0.0
C424 C 0.46583 0.16371 0.16131 0.0
C425 C 0.49029 0.16923 0.18837 0.0
C426 C 0.49486 0.14815 0.20077 0.0
C427 C 0.47507 0.12116 0.186 0.0
C428 C 0.45085 0.11579 0.15743 0.0
C429 C 0.4463 0.13693 0.14505 0.0
C430 C 0.45364 0.18684 0.25787 0.0
C431 C 0.4769 0.19885 0.29495 0.0
C432 C 0.48087 0.18379 0.33577 0.0
C433 C 0.46174 0.15641 0.33963 0.0
C434 C 0.43716 0.14552 0.30703 0.0
C435 C 0.43309 0.16071 0.26672 0.0
C436 C 0.44962 0.23532 0.24592 0.0
C437 C 0.47311 0.25636 0.27393 0.0
C438 C 0.4721 0.26934 0.32461 0.0
C439 C 0.44753 0.26164 0.34792 0.0
C440 C 0.42391 0.24065 0.31945 0.0
C441 C 0.425 0.22737 0.26889 0.0
C442 C 0.45899 0.25741 0.86702 0.0
C443 C 0.47954 0.09867 0.20081 0.0
C444 C 0.03464 0.48253 0.53061 0.0
C445 C 0.01955 0.43782 0.7286 0.0
C446 C 0.95123 0.44865 0.72781 0.0
Mg447 Mg 0.02103 0.52714 0.48971 0.0
Mg448 Mg 0.0192 0.56955 0.58494 0.0
O449 O 0.00328 0.53319 0.55637 0.0
Mg450 Mg 0.00799 0.50939 0.61037 0.0
O451 O 0.01345 0.48467 0.65942 0.0
Mg452 Mg 0.98812 0.44886 0.61695 0.0
Mg453 Mg 0.011 0.48736 0.73864 0.0
C454 C 0.98126 0.53897 0.68404 0.0
O455 O 0.04211 0.54507 0.66524 0.0
O456 O 0.00772 0.55336 0.44061 0.0
O457 O 0.038 0.5306 0.75476 0.0
O458 O 0.06106 0.5655 0.50973 0.0
O459 O 0.00902 0.58322 0.50898 0.0
O460 O 0.06238 0.59009 0.58676 0.0
O461 O 0.97345 0.47244 0.5609 0.0
O462 O 0.98109 0.48804 0.47319 0.0
C463 C 0.96735 0.4695 0.50659 0.0
C464 C 0.00573 0.57403 0.45653 0.0
O465 O 0.98129 0.51699 0.66993 0.0
O466 O 0.00785 0.43091 0.67763 0.0
O467 O 0.99597 0.56128 0.66084 0.0
O468 O 0.95499 0.43878 0.68123 0.0
O469 O 0.02277 0.45856 0.75876 0.0
O470 O 0.96998 0.46995 0.7548 0.0
O471 O 0.03393 0.5037 0.54748 0.0
O472 O 0.02042 0.45996 0.5527 0.0
C473 C 0.07389 0.58593 0.54555 0.0
C474 C 0.04842 0.54923 0.7196 0.0
C475 C 0.50314 0.0194 0.50086 0.0
C476 C 0.56828 0.98506 0.44171 0.0
C477 C 0.51807 0.91653 0.53588 0.0
Mg478 Mg 0.46902 0.00798 0.61106 0.0
Mg479 Mg 0.49001 0.99766 0.73226 0.0
O480 O 0.47926 0.98474 0.65553 0.0
Mg481 Mg 0.50658 0.98479 0.60566 0.0
O482 O 0.53201 0.98533 0.54978 0.0
Mg483 Mg 0.50631 0.96441 0.48189 0.0
Mg484 Mg 0.5574 0.9754 0.5706 0.0
C485 C 0.50783 0.95353 0.72088 0.0
O486 O 0.5434 0.01606 0.66225 0.0
O487 O 0.43499 0.99561 0.67333 0.0
O488 O 0.57487 0.00471 0.64439 0.0
O489 O 0.49672 0.04708 0.66667 0.0
O490 O 0.45174 0.99034 0.75738 0.0
O491 O 0.51847 0.03965 0.73749 0.0
O492 O 0.47258 0.95469 0.54229 0.0
O493 O 0.4442 0.97023 0.55193 0.0
C494 C 0.45104 0.95457 0.52662 0.0
C495 C 0.43273 0.98986 0.72617 0.0
O496 O 0.50839 0.95348 0.66559 0.0
O497 O 0.54364 0.97786 0.42982 0.0
O498 O 0.50346 0.96999 0.75099 0.0
O499 O 0.50702 0.92576 0.50216 0.0
O500 O 0.57765 0.9855 0.49266 0.0
O501 O 0.53719 0.9321 0.57264 0.0
O502 O 0.50355 0.01636 0.55474 0.0
O503 O 0.50527 0.00323 0.46478 0.0
C504 C 0.51485 0.05583 0.70785 0.0
C505 C 0.56693 0.01929 0.67083 0.0
C506 C 0.52303 0.54253 0.68653 0.0
C507 C 0.44382 0.46183 0.7776 0.0
C508 C 0.48642 0.42038 0.74487 0.0
Mg509 Mg 0.55763 0.5426 0.58444 0.0
Mg510 Mg 0.53479 0.49293 0.48528 0.0
O511 O 0.54287 0.50295 0.5639 0.0
Mg512 Mg 0.51335 0.48776 0.61772 0.0
O513 O 0.48563 0.47541 0.67433 0.0
Mg514 Mg 0.50848 0.48775 0.74817 0.0
Mg515 Mg 0.45695 0.43973 0.66625 0.0
C516 C 0.50521 0.43525 0.53755 0.0
O517 O 0.48014 0.4792 0.5505 0.0
O518 O 0.5916 0.55078 0.52343 0.0
O519 O 0.44469 0.44098 0.57653 0.0
O520 O 0.53432 0.54857 0.50959 0.0
O521 O 0.57508 0.51416 0.46085 0.0
O522 O 0.51453 0.51221 0.44785 0.0
O523 O 0.54422 0.4959 0.69129 0.0
O524 O 0.57774 0.53411 0.66158 0.0
C525 C 0.56841 0.51565 0.69758 0.0
C526 C 0.59404 0.53738 0.48083 0.0
O527 O 0.50504 0.44496 0.58816 0.0
O528 O 0.4689 0.47781 0.79191 0.0
O529 O 0.51379 0.44991 0.4946 0.0
O530 O 0.50004 0.44516 0.76338 0.0
O531 O 0.43548 0.44615 0.73153 0.0
O532 O 0.46942 0.41286 0.70159 0.0
O533 O 0.52239 0.53025 0.63934 0.0
O534 O 0.51709 0.53028 0.7328 0.0
C535 C 0.51918 0.53571 0.46466 0.0
C536 C 0.4559 0.4598 0.54176 0.0
C537 C 0.1152 0.48543 0.25465 0.0
C538 C 0.13345 0.4774 0.27246 0.0
C539 C 0.09869 0.48805 0.2938 0.0
C540 C 0.10101 0.48308 0.35213 0.0
C541 C 0.12005 0.47578 0.37041 0.0
C542 C 0.13589 0.47287 0.33028 0.0
C543 C 0.07829 0.49537 0.27254 0.0
C544 C 0.12356 0.47082 0.43233 0.0
C545 C 0.07333 0.5076 0.47042 0.0
C546 C 0.05065 0.48342 0.4822 0.0
C547 C 0.08958 0.50806 0.42693 0.0
C548 C 0.08261 0.48388 0.3938 0.0
C549 C 0.05901 0.45973 0.40379 0.0
C550 C 0.0435 0.45973 0.44823 0.0
C551 C 0.11474 0.53416 0.41807 0.0
C552 C 0.05057 0.43362 0.36874 0.0
H553 H 0.11345 0.48902 0.2099 0.0
H554 H 0.15041 0.46717 0.34418 0.0
H555 H 0.0579 0.47849 0.27811 0.0
H556 H 0.08078 0.51331 0.29821 0.0
H557 H 0.0798 0.49973 0.22653 0.0
H558 H 0.13912 0.46508 0.43934 0.0
H559 H 0.12918 0.48929 0.46018 0.0
H560 H 0.10446 0.45444 0.44629 0.0
H561 H 0.0789 0.52596 0.49654 0.0
H562 H 0.02575 0.44106 0.45653 0.0
H563 H 0.1154 0.5387 0.3723 0.0
H564 H 0.13243 0.53209 0.42934 0.0
H565 H 0.1164 0.55152 0.4447 0.0
H566 H 0.05051 0.43677 0.32221 0.0
H567 H 0.03039 0.41733 0.37805 0.0
H568 H 0.06508 0.42673 0.37813 0.0
C569 C 0.67984 0.07598 0.22939 0.0
C570 C 0.6918 0.10128 0.26031 0.0
C571 C 0.66011 0.05275 0.2528 0.0
C572 C 0.65187 0.05506 0.30781 0.0
C573 C 0.6646 0.08034 0.34002 0.0
C574 C 0.68459 0.10305 0.31611 0.0
C575 C 0.64741 0.02602 0.2178 0.0
C576 C 0.65639 0.08368 0.39896 0.0
C577 C 0.58241 0.01047 0.35392 0.0
C578 C 0.5875 0.99714 0.39741 0.0
C579 C 0.6029 0.02799 0.32093 0.0
C580 C 0.62887 0.03174 0.33104 0.0
C581 C 0.63334 0.01605 0.37045 0.0
C582 C 0.61263 -0.00089 0.40372 0.0
C583 C 0.59735 0.04447 0.27947 0.0
C584 C 0.66053 0.01882 0.381 0.0
H585 H 0.68516 0.07446 0.18606 0.0
H586 H 0.6942 0.1224 0.34073 0.0
H587 H 0.64592 0.00982 0.2446 0.0
H588 H 0.62682 0.02036 0.20199 0.0
H589 H 0.6588 0.0268 0.18016 0.0
H590 H 0.66861 0.10465 0.41862 0.0
H591 H 0.6351 0.07832 0.39604 0.0
H592 H 0.65831 0.0698 0.428 0.0
H593 H 0.56301 0.00901 0.34881 0.0
H594 H 0.61653 0.98848 0.43674 0.0
H595 H 0.6059 0.04446 0.23794 0.0
H596 H 0.60703 0.06574 0.29745 0.0
H597 H 0.57562 0.03681 0.27131 0.0
H598 H 0.66986 0.01994 0.33995 0.0
H599 H 0.65945 0.0017 0.4039 0.0
H600 H 0.67379 0.0378 0.40762 0.0
C601 C 0.48481 0.62554 0.25818 0.0
C602 C 0.50857 0.65074 0.2623 0.0
C603 C 0.48188 0.60468 0.2923 0.0
C604 C 0.50358 0.60864 0.32975 0.0
C605 C 0.52735 0.63408 0.33509 0.0
C606 C 0.52931 0.65491 0.30235 0.0
C607 C 0.45576 0.57824 0.2875 0.0
C608 C 0.55109 0.63913 0.37423 0.0
C609 C 0.50099 0.56669 0.45312 0.0
C610 C 0.50974 0.55009 0.42817 0.0
C611 C 0.49635 0.58409 0.42011 0.0
C612 C 0.50221 0.58606 0.36171 0.0
C613 C 0.50999 0.56846 0.33583 0.0
C614 C 0.51311 0.55025 0.36924 0.0
C615 C 0.48649 0.60126 0.44861 0.0
C616 C 0.51721 0.5704 0.2742 0.0
H617 H 0.46864 0.62173 0.22726 0.0
H618 H 0.54741 0.67443 0.30772 0.0
H619 H 0.45843 0.56228 0.26561 0.0
H620 H 0.44917 0.57171 0.33083 0.0
H621 H 0.43972 0.57966 0.26287 0.0
H622 H 0.56849 0.6597 0.3717 0.0
H623 H 0.54559 0.63663 0.41935 0.0
H624 H 0.55725 0.62411 0.36281 0.0
H625 H 0.49814 0.56634 0.49869 0.0
H626 H 0.52023 0.53763 0.35019 0.0
H627 H 0.47266 0.6039 0.41875 0.0
H628 H 0.50371 0.62156 0.46181 0.0
H629 H 0.47601 0.59223 0.48751 0.0
H630 H 0.501 0.56945 0.2454 0.0
H631 H 0.52111 0.55407 0.25948 0.0
H632 H 0.53542 0.59016 0.26975 0.0
C633 C 0.95933 0.64558 0.23012 0.0
C634 C 0.94116 0.64934 0.26138 0.0
C635 C 0.97695 0.63879 0.2577 0.0
C636 C 0.97577 0.63527 0.31726 0.0
C637 C 0.95998 0.64258 0.34982 0.0
C638 C 0.94305 0.64989 0.32137 0.0
C639 C 0.99463 0.63258 0.22215 0.0
C640 C 0.95837 0.63943 0.41362 0.0
C641 C 0.97738 0.57571 0.37628 0.0
C642 C 0.00048 0.58881 0.41317 0.0
C643 C 0.96986 0.59065 0.34192 0.0
C644 C 0.98642 0.61916 0.34363 0.0
C645 C 0.01107 0.63206 0.37696 0.0
C646 C 0.01755 0.61673 0.41245 0.0
C647 C 0.94326 0.57613 0.30724 0.0
C648 C 0.02986 0.66215 0.37797 0.0
H649 H 0.95803 0.64531 0.18364 0.0
H650 H 0.92932 0.65337 0.34548 0.0
H651 H 0.01404 0.63898 0.24621 0.0
H652 H 0.9847 0.61047 0.21155 0.0
H653 H 0.99841 0.6427 0.18123 0.0
H654 H 0.94727 0.64852 0.43328 0.0
H655 H 0.94803 0.61763 0.42142 0.0
H656 H 0.97864 0.64896 0.43569 0.0
H657 H 0.96435 0.55407 0.37719 0.0
H658 H 0.03569 0.62666 0.44073 0.0
H659 H 0.94586 0.58113 0.26177 0.0
H660 H 0.92973 0.58288 0.32407 0.0
H661 H 0.93341 0.55385 0.30869 0.0
H662 H 0.02947 0.6699 0.33539 0.0
H663 H 0.05069 0.66749 0.391 0.0
H664 H 0.02369 0.6726 0.40955 0.0
C665 C 0.34251 0.89886 0.28243 0.0
C666 C 0.34787 0.89618 0.22537 0.0
C667 C 0.36253 0.90795 0.32687 0.0
C668 C 0.38863 0.91437 0.31413 0.0
C669 C 0.3944 0.91207 0.25667 0.0
C670 C 0.37386 0.90293 0.21275 0.0
C671 C 0.3556 0.91044 0.38763 0.0
C672 C 0.42213 0.91905 0.24178 0.0
C673 C 0.4367 0.96213 0.43218 0.0
C674 C 0.43904 0.94432 0.46813 0.0
C675 C 0.42249 0.95299 0.37872 0.0
C676 C 0.40987 0.92519 0.36142 0.0
C677 C 0.41385 0.9074 0.39566 0.0
C678 C 0.42876 0.91732 0.44887 0.0
C679 C 0.41898 0.97266 0.34327 0.0
C680 C 0.4006 0.8776 0.37841 0.0
H681 H 0.32233 0.89293 0.29285 0.0
H682 H 0.37804 0.90078 0.1687 0.0
H683 H 0.35863 0.89641 0.41415 0.0
H684 H 0.36892 0.93121 0.40724 0.0
H685 H 0.33463 0.90584 0.38964 0.0
H686 H 0.42326 0.91593 0.19499 0.0
H687 H 0.43656 0.94044 0.25587 0.0
H688 H 0.42853 0.90646 0.26497 0.0
H689 H 0.44515 0.98317 0.447 0.0
H690 H 0.43096 0.90374 0.4767 0.0
H691 H 0.39785 0.9678 0.342 0.0
H692 H 0.42379 0.97097 0.29841 0.0
H693 H 0.43177 0.99389 0.36097 0.0
H694 H 0.37903 0.86788 0.3857 0.0
H695 H 0.40944 0.86757 0.4037 0.0
H696 H 0.40222 0.87414 0.33208 0.0
C697 C 0.46586 0.28503 0.44522 0.0
C698 C 0.44692 0.2776 0.3986 0.0
C699 C 0.4714 0.30669 0.48434 0.0
C700 C 0.45791 0.32129 0.47573 0.0
C701 C 0.436 0.31119 0.43412 0.0
C702 C 0.43075 0.28936 0.39575 0.0
C703 C 0.49414 0.31614 0.52971 0.0
C704 C 0.4206 0.32575 0.42465 0.0
C705 C 0.47686 0.38703 0.56211 0.0
C706 C 0.49475 0.40596 0.52651 0.0
C707 C 0.46497 0.35913 0.54741 0.0
C708 C 0.4714 0.35024 0.49623 0.0
C709 C 0.49028 0.36936 0.46152 0.0
C710 C 0.50169 0.39686 0.47717 0.0
C711 C 0.44553 0.33938 0.58636 0.0
C712 C 0.49794 0.3609 0.40661 0.0
H713 H 0.47787 0.27537 0.44832 0.0
H714 H 0.41587 0.28344 0.36012 0.0
H715 H 0.51248 0.33294 0.51401 0.0
H716 H 0.48977 0.32382 0.56974 0.0
H717 H 0.49823 0.29968 0.53971 0.0
H718 H 0.40113 0.31259 0.39993 0.0
H719 H 0.41694 0.33299 0.46617 0.0
H720 H 0.43249 0.34365 0.40009 0.0
H721 H 0.47149 0.39396 0.60031 0.0
H722 H 0.51583 0.41134 0.44988 0.0
H723 H 0.45544 0.3302 0.61089 0.0
H724 H 0.42784 0.32275 0.56124 0.0
H725 H 0.43865 0.34936 0.61757 0.0
H726 H 0.50597 0.34732 0.41573 0.0
H727 H 0.51323 0.3784 0.38516 0.0
H728 H 0.48005 0.34957 0.3761 0.0
C729 C 0.50732 0.84134 0.91294 0.0
C730 C 0.5278 0.85369 0.95716 0.0
C731 C 0.5059 0.8557 0.86713 0.0
C732 C 0.52507 0.88337 0.86591 0.0
C733 C 0.54625 0.89586 0.90939 0.0
C734 C 0.54743 0.88085 0.95441 0.0
C735 C 0.48312 0.84151 0.82145 0.0
C736 C 0.56696 0.92543 0.9098 0.0
C737 C 0.5261 0.92203 0.73541 0.0
C738 C 0.51098 0.93354 0.75354 0.0
C739 C 0.53092 0.90541 0.77126 0.0
C740 C 0.52012 0.90018 0.82579 0.0
C741 C 0.50415 0.91108 0.84305 0.0
C742 C 0.49971 0.9274 0.80676 0.0
C743 C 0.54754 0.89355 0.75095 0.0
C744 C 0.49204 0.90594 0.90054 0.0
H745 H 0.49235 0.82022 0.91374 0.0
H746 H 0.56335 0.89058 0.98821 0.0
H747 H 0.46842 0.84831 0.82745 0.0
H748 H 0.49043 0.84666 0.77808 0.0
H749 H 0.47266 0.81921 0.82317 0.0
H750 H 0.5838 0.93134 0.94245 0.0
H751 H 0.575 0.93033 0.86695 0.0
H752 H 0.55753 0.93781 0.91933 0.0
H753 H 0.53477 0.92663 0.6943 0.0
H754 H 0.48751 0.93573 0.82075 0.0
H755 H 0.53453 0.87145 0.74162 0.0
H756 H 0.56301 0.8967 0.7849 0.0
H757 H 0.55744 0.90242 0.7114 0.0
H758 H 0.47879 0.88395 0.90387 0.0
H759 H 0.4802 0.91611 0.90745 0.0
H760 H 0.50805 0.91326 0.93575 0.0
C761 C 0.68585 0.51613 0.88364 0.0
C762 C 0.69288 0.53335 0.93341 0.0
C763 C 0.66193 0.50828 0.85073 0.0
C764 C 0.64479 0.51778 0.8686 0.0
C765 C 0.65059 0.53281 0.92202 0.0
C766 C 0.67474 0.54063 0.95361 0.0
C767 C 0.65635 0.49209 0.79418 0.0
C768 C 0.6326 0.54284 0.94321 0.0
C769 C 0.61328 0.53814 0.75035 0.0
C770 C 0.58696 0.51643 0.74428 0.0
C771 C 0.63205 0.53867 0.79081 0.0
C772 C 0.62437 0.51703 0.82668 0.0
C773 C 0.59771 0.49525 0.82187 0.0
C774 C 0.57924 0.49523 0.7807 0.0
C775 C 0.6603 0.56234 0.79444 0.0
C776 C 0.58872 0.47205 0.86008 0.0
H777 H 0.69991 0.51046 0.86826 0.0
H778 H 0.68011 0.55362 0.99274 0.0
H779 H 0.63504 0.47606 0.78811 0.0
H780 H 0.6605 0.50559 0.75858 0.0
H781 H 0.66899 0.48259 0.791 0.0
H782 H 0.63722 0.54977 0.98951 0.0
H783 H 0.63524 0.56008 0.91856 0.0
H784 H 0.61132 0.5268 0.93641 0.0
H785 H 0.61948 0.5547 0.72274 0.0
H786 H 0.55891 0.47841 0.77647 0.0
H787 H 0.67451 0.5551 0.78627 0.0
H788 H 0.66572 0.57261 0.8382 0.0
H789 H 0.66301 0.57743 0.76308 0.0
H790 H 0.60308 0.46455 0.86154 0.0
H791 H 0.56858 0.45498 0.84553 0.0
H792 H 0.58805 0.47913 0.90454 0.0
C793 C 0.16235 0.69912 0.82564 0.0
C794 C 0.15387 0.70883 0.87135 0.0
C795 C 0.14506 0.67396 0.79654 0.0
C796 C 0.11894 0.65812 0.81448 0.0
C797 C 0.10996 0.66837 0.8591 0.0
C798 C 0.12755 0.6937 0.88691 0.0
C799 C 0.15521 0.66378 0.74872 0.0
C800 C 0.08229 0.65197 0.87961 0.0
C801 C 0.06608 0.59864 0.71958 0.0
C802 C 0.06707 0.57701 0.74304 0.0
C803 C 0.08341 0.62527 0.74125 0.0
C804 C 0.10148 0.63022 0.78895 0.0
C805 C 0.10225 0.60839 0.81365 0.0
C806 C 0.08499 0.58196 0.79026 0.0
C807 C 0.08212 0.64804 0.71364 0.0
C808 C 0.1211 0.61296 0.86507 0.0
H809 H 0.18278 0.71085 0.81391 0.0
H810 H 0.12119 0.70099 0.92309 0.0
H811 H 0.15906 0.6479 0.76433 0.0
H812 H 0.14006 0.65451 0.71176 0.0
H813 H 0.17404 0.68015 0.73356 0.0
H814 H 0.07777 0.6637 0.91174 0.0
H815 H 0.06702 0.64473 0.8429 0.0
H816 H 0.08044 0.63389 0.89949 0.0
H817 H 0.05114 0.59468 0.68538 0.0
H818 H 0.0855 0.56515 0.80884 0.0
H819 H 0.10218 0.66311 0.70105 0.0
H820 H 0.07589 0.65857 0.74488 0.0
H821 H 0.06789 0.6408 0.67491 0.0
H822 H 0.14202 0.62672 0.85503 0.0
H823 H 0.11943 0.59383 0.87865 0.0
H824 H 0.11687 0.62285 0.90172 0.0
C825 C 0.52701 0.17968 0.89095 0.0
C826 C 0.50258 0.16236 0.91353 0.0
C827 C 0.53749 0.16988 0.84943 0.0
C828 C 0.5233 0.14211 0.83109 0.0
C829 C 0.4984 0.1247 0.85327 0.0
C830 C 0.48842 0.13508 0.89414 0.0
C831 C 0.56398 0.18917 0.82691 0.0
C832 C 0.48241 0.09485 0.83493 0.0
C833 C 0.5204 0.10159 0.70187 0.0
C834 C 0.52801 0.08462 0.72817 0.0
C835 C 0.52349 0.12464 0.73226 0.0
C836 C 0.534 0.13022 0.79 0.0
C837 C 0.5468 0.11656 0.81187 0.0
C838 C 0.54363 0.09367 0.78045 0.0
C839 C 0.51126 0.14 0.70611 0.0
C840 C 0.55977 0.12321 0.87211 0.0
H841 H 0.53794 0.20088 0.90583 0.0
H842 H 0.46979 0.12159 0.9123 0.0
H843 H 0.58026 0.18956 0.85452 0.0
H844 H 0.56555 0.18304 0.78226 0.0
H845 H 0.56726 0.21004 0.82828 0.0
H846 H 0.46344 0.08431 0.85643 0.0
H847 H 0.47745 0.09189 0.78787 0.0
H848 H 0.49432 0.08504 0.84518 0.0
H849 H 0.50918 0.09528 0.66048 0.0
H850 H 0.55066 0.08129 0.79995 0.0
H851 H 0.52243 0.16161 0.72196 0.0
H852 H 0.49039 0.13129 0.71842 0.0
H853 H 0.51082 0.1385 0.65849 0.0
H854 H 0.5716 0.14539 0.88182 0.0
H855 H 0.57302 0.11456 0.87871 0.0
H856 H 0.54404 0.11474 0.90307 0.0
C857 C 0.32446 0.47601 0.89411 0.0
C858 C 0.3147 0.4628 0.94419 0.0
C859 C 0.34698 0.47718 0.87091 0.0
C860 C 0.36009 0.46495 0.89862 0.0
C861 C 0.35061 0.45205 0.94981 0.0
C862 C 0.32807 0.45114 0.97195 0.0
C863 C 0.35638 0.49098 0.81602 0.0
C864 C 0.36415 0.43899 0.98094 0.0
C865 C 0.39655 0.44107 0.8032 0.0
C866 C 0.42323 0.46188 0.81329 0.0
C867 C 0.37602 0.44167 0.83154 0.0
C868 C 0.38219 0.4636 0.8713 0.0
C869 C 0.40915 0.48425 0.88344 0.0
C870 C 0.42941 0.48315 0.85426 0.0
C871 C 0.3476 0.41906 0.81785 0.0
C872 C 0.41646 0.50787 0.92591 0.0
H873 H 0.31426 0.48512 0.87264 0.0
H874 H 0.32108 0.44156 0.01158 0.0
H875 H 0.37789 0.50644 0.82193 0.0
H876 H 0.35413 0.47596 0.78146 0.0
H877 H 0.345 0.50086 0.80164 0.0
H878 H 0.35376 0.42902 0.01923 0.0
H879 H 0.36491 0.42367 0.95169 0.0
H880 H 0.38506 0.45445 0.99495 0.0
H881 H 0.39152 0.42435 0.77217 0.0
H882 H 0.44993 0.49933 0.86227 0.0
H883 H 0.33537 0.42725 0.7992 0.0
H884 H 0.33863 0.40969 0.85775 0.0
H885 H 0.34626 0.40307 0.78704 0.0
H886 H 0.40791 0.52008 0.90946 0.0
H887 H 0.43842 0.52114 0.93378 0.0
H888 H 0.40781 0.50061 0.9674 0.0
C889 C 0.85882 0.3281 0.89249 0.0
C890 C 0.83779 0.32735 0.92178 0.0
C891 C 0.87401 0.3492 0.85799 0.0
C892 C 0.86732 0.36956 0.84996 0.0
C893 C 0.8451 0.36811 0.87615 0.0
C894 C 0.83097 0.3474 0.91271 0.0
C895 C 0.89786 0.35015 0.83174 0.0
C896 C 0.83664 0.3888 0.86693 0.0
C897 C 0.92705 0.43557 0.81701 0.0
C898 C 0.92646 0.43227 0.75702 0.0
C899 C 0.9069 0.41609 0.84782 0.0
C900 C 0.88509 0.39323 0.81779 0.0
C901 C 0.88281 0.39144 0.75696 0.0
C902 C 0.9038 0.41074 0.7272 0.0
C903 C 0.91043 0.41869 0.91261 0.0
C904 C 0.8591 0.36818 0.72334 0.0
H905 H 0.86376 0.31231 0.89689 0.0
H906 H 0.81498 0.34741 0.93507 0.0
H907 H 0.89546 0.34961 0.7843 0.0
H908 H 0.91627 0.36934 0.84645 0.0
H909 H 0.90071 0.33307 0.84323 0.0
H910 H 0.81585 0.38148 0.87867 0.0
H911 H 0.85004 0.40758 0.89399 0.0
H912 H 0.83808 0.39404 0.82152 0.0
H913 H 0.9444 0.4522 0.84053 0.0
H914 H 0.90298 0.40829 0.68078 0.0
H915 H 0.9145 0.40284 0.92764 0.0
H916 H 0.89194 0.41556 0.93141 0.0
H917 H 0.92721 0.43873 0.92942 0.0
H918 H 0.86119 0.34994 0.7235 0.0
H919 H 0.85747 0.37264 0.678 0.0
H920 H 0.8403 0.36335 0.74326 0.0
C921 C 0.88086 0.54016 0.91121 0.0
C922 C 0.86098 0.54288 0.88071 0.0
C923 C 0.90019 0.53722 0.88264 0.0
C924 C 0.89966 0.53695 0.82202 0.0
C925 C 0.87905 0.53865 0.79086 0.0
C926 C 0.86004 0.54175 0.8206 0.0
C927 C 0.92194 0.53575 0.91754 0.0
C928 C 0.87763 0.53815 0.72615 0.0
C929 C 0.96402 0.56235 0.74728 0.0
C930 C 0.962 0.53823 0.72494 0.0
C931 C 0.94429 0.56212 0.78047 0.0
C932 C 0.92181 0.53716 0.79138 0.0
C933 C 0.92014 0.51268 0.77099 0.0
C934 C 0.94029 0.51351 0.73814 0.0
C935 C 0.94708 0.58868 0.80223 0.0
C936 C 0.89662 0.48565 0.78212 0.0
H937 H 0.88202 0.54152 0.95775 0.0
H938 H 0.84467 0.54372 0.79687 0.0
H939 H 0.92437 0.51883 0.90025 0.0
H940 H 0.94123 0.55465 0.9147 0.0
H941 H 0.91778 0.53305 0.9635 0.0
H942 H 0.85924 0.53753 0.70815 0.0
H943 H 0.89522 0.55643 0.71228 0.0
H944 H 0.87823 0.52033 0.7076 0.0
H945 H 0.98081 0.58155 0.73782 0.0
H946 H 0.93845 0.49474 0.72098 0.0
H947 H 0.9446 0.58882 0.84901 0.0
H948 H 0.93114 0.59131 0.78076 0.0
H949 H 0.96675 0.6062 0.79415 0.0
H950 H 0.8941 0.48417 0.82886 0.0
H951 H 0.89887 0.46849 0.76546 0.0
H952 H 0.87805 0.48364 0.76141 0.0
C953 C 0.32179 0.88062 0.88282 0.0
C954 C 0.29827 0.8808 0.8945 0.0
C955 C 0.34098 0.90018 0.85044 0.0
C956 C 0.33714 0.92111 0.83047 0.0
C957 C 0.31338 0.92134 0.84117 0.0
C958 C 0.29409 0.90101 0.87244 0.0
C959 C 0.36584 0.89886 0.83913 0.0
C960 C 0.30876 0.94355 0.82133 0.0
C961 C 0.40429 0.98149 0.80844 0.0
C962 C 0.40623 0.97773 0.74964 0.0
C963 C 0.38068 0.96479 0.83446 0.0
C964 C 0.35887 0.94328 0.80112 0.0
C965 C 0.36002 0.94077 0.7409 0.0
C966 C 0.38364 0.95832 0.71572 0.0
C967 C 0.37998 0.96873 0.89848 0.0
C968 C 0.33744 0.91791 0.70385 0.0
H969 H 0.32577 0.86568 0.90052 0.0
H970 H 0.27587 0.9012 0.88016 0.0
H971 H 0.3691 0.90002 0.79265 0.0
H972 H 0.38352 0.91635 0.86228 0.0
H973 H 0.3647 0.88003 0.85322 0.0
H974 H 0.2885 0.93986 0.82963 0.0
H975 H 0.32378 0.96308 0.84403 0.0
H976 H 0.31141 0.94565 0.77475 0.0
H977 H 0.42172 0.99661 0.83466 0.0
H978 H 0.38518 0.95518 0.67029 0.0
H979 H 0.38215 0.95295 0.9201 0.0
H980 H 0.36057 0.96665 0.90908 0.0
H981 H 0.39633 0.98882 0.91622 0.0
H982 H 0.33755 0.8989 0.71089 0.0
H983 H 0.33937 0.92145 0.65747 0.0
H984 H 0.31783 0.9149 0.71554 0.0
C985 C 0.48596 0.31881 0.97478 0.0
C986 C 0.46623 0.31544 0.01188 0.0
C987 C 0.49016 0.33366 0.92618 0.0
C988 C 0.47466 0.34599 0.91496 0.0
C989 C 0.45469 0.34269 0.95223 0.0
C990 C 0.45051 0.32718 -0.0001 0.0
C991 C 0.5114 0.3364 0.88724 0.0
C992 C 0.43815 0.35605 0.94246 0.0
C993 C 0.5032 0.40933 0.83382 0.0
C994 C 0.48718 0.4002 0.78185 0.0
C995 C 0.49989 0.39173 0.87664 0.0
C996 C 0.4806 0.36404 0.86689 0.0
C997 C 0.46604 0.35417 0.81268 0.0
C998 C 0.46929 0.37243 0.77087 0.0
C999 C 0.51579 0.40323 0.93381 0.0
C1000 C 0.44611 0.32454 0.79989 0.0
H1001 H 0.49793 0.30946 0.98329 0.0
H1002 H 0.43525 0.32462 0.02841 0.0
H1003 H 0.50301 0.33094 0.84196 0.0
H1004 H 0.52786 0.35769 0.8897 0.0
H1005 H 0.51993 0.32347 0.89886 0.0
H1006 H 0.42318 0.35118 0.97484 0.0
H1007 H 0.45139 0.3783 0.94424 0.0
H1008 H 0.42753 0.34958 0.89912 0.0
H1009 H 0.51729 0.43068 0.84284 0.0
H1010 H 0.45697 0.3651 0.73079 0.0
H1011 H 0.52569 0.39173 0.94663 0.0
H1012 H 0.5021 0.40139 0.9674 0.0
H1013 H 0.53131 0.42485 0.93306 0.0
H1014 H 0.45503 0.31209 0.81245 0.0
H1015 H 0.43905 0.31962 0.7537 0.0
H1016 H 0.42857 0.31876 0.82547 0.0
C1017 C 0.13714 0.45726 0.90346 0.0
C1018 C 0.14182 0.43695 0.9224 0.0
C1019 C 0.11543 0.45115 0.86479 0.0
C1020 C 0.09755 0.42393 0.845 0.0
C1021 C 0.10257 0.40336 0.8622 0.0
C1022 C 0.1247 0.41012 0.90064 0.0
C1023 C 0.11099 0.47382 0.84721 0.0
C1024 C 0.08398 0.37413 0.84214 0.0
C1025 C 0.03131 0.41881 0.81031 0.0
C1026 C 0.03301 0.42394 0.75217 0.0
C1027 C 0.05069 0.41517 0.83994 0.0
C1028 C 0.07256 0.4174 0.81078 0.0
C1029 C 0.07258 0.41933 0.75052 0.0
C1030 C 0.05257 0.42244 0.72166 0.0
C1031 C 0.04947 0.41237 0.90386 0.0
C1032 C 0.09538 0.42151 0.71774 0.0
H1033 H 0.14986 0.47796 0.92063 0.0
H1034 H 0.12836 0.39431 0.9143 0.0
H1035 H 0.10828 0.47313 0.79977 0.0
H1036 H 0.09251 0.47144 0.8649 0.0
H1037 H 0.12787 0.49403 0.86275 0.0
H1038 H 0.09312 0.36142 0.85057 0.0
H1039 H 0.06544 0.36624 0.86515 0.0
H1040 H 0.07813 0.372 0.79557 0.0
H1041 H 0.01604 0.41989 0.83372 0.0
H1042 H 0.05395 0.4266 0.67668 0.0
H1043 H 0.06369 0.43214 0.92688 0.0
H1044 H 0.05535 0.39754 0.91687 0.0
H1045 H 0.02917 0.40595 0.91779 0.0
H1046 H 0.11251 0.44244 0.72442 0.0
H1047 H 0.0897 0.41683 0.67092 0.0
H1048 H 0.10218 0.40773 0.73334 0.0
C1049 C 0.69074 0.13622 0.85572 0.0
C1050 C 0.69168 0.1612 0.85778 0.0
C1051 C 0.66934 0.11328 0.82673 0.0
C1052 C 0.64844 0.11539 0.79851 0.0
C1053 C 0.64922 0.14053 0.8 0.0
C1054 C 0.67086 0.16319 0.82985 0.0
C1055 C 0.66913 0.08677 0.82638 0.0
C1056 C 0.62714 0.14337 0.77036 0.0
C1057 C 0.61041 0.06133 0.67879 0.0
C1058 C 0.58719 0.04364 0.70455 0.0
C1059 C 0.62991 0.08542 0.70814 0.0
C1060 C 0.62645 0.09142 0.76532 0.0
C1061 C 0.6029 0.07359 0.79155 0.0
C1062 C 0.5832 0.05 0.76026 0.0
C1063 C 0.65433 0.1043 0.67812 0.0
C1064 C 0.59908 0.07864 0.85335 0.0
H1065 H 0.70639 0.13433 0.8784 0.0
H1066 H 0.67144 0.18243 0.83164 0.0
H1067 H 0.64959 0.07045 0.83861 0.0
H1068 H 0.67192 0.08103 0.78241 0.0
H1069 H 0.68519 0.08784 0.85608 0.0
H1070 H 0.6307 0.1643 0.77572 0.0
H1071 H 0.62525 0.13751 0.72382 0.0
H1072 H 0.60779 0.1295 0.78781 0.0
H1073 H 0.61307 0.05651 0.63507 0.0
H1074 H 0.56511 0.03619 0.7798 0.0
H1075 H 0.67237 0.10548 0.6996 0.0
H1076 H 0.65718 0.12499 0.68093 0.0
H1077 H 0.6529 0.09765 0.63214 0.0
H1078 H 0.6111 0.0729 0.88148 0.0
H1079 H 0.57786 0.0665 0.86335 0.0
H1080 H 0.60615 0.1003 0.86407 0.0
C1081 C 0.55545 0.69324 0.74526 0.0
C1082 C 0.5317 0.68748 0.77025 0.0
C1083 C 0.55688 0.67323 0.7116 0.0
C1084 C 0.534 0.64728 0.70281 0.0
C1085 C 0.50898 0.64322 0.71833 0.0
C1086 C 0.50815 0.66335 0.7525 0.0
C1087 C 0.5836 0.67872 0.69272 0.0
C1088 C 0.48379 0.61615 0.70715 0.0
C1089 C 0.52883 0.58313 0.63816 0.0
C1090 C 0.53056 0.5712 0.68824 0.0
C1091 C 0.53222 0.6092 0.64108 0.0
C1092 C 0.53716 0.62327 0.69538 0.0
C1093 C 0.54111 0.61212 0.74544 0.0
C1094 C 0.53774 0.58621 0.74115 0.0
C1095 C 0.52856 0.62058 0.58656 0.0
C1096 C 0.54693 0.62664 0.80438 0.0
H1097 H 0.5735 0.7124 0.75643 0.0
H1098 H 0.48951 0.65868 0.77047 0.0
H1099 H 0.59331 0.67236 0.72572 0.0
H1100 H 0.58131 0.66714 0.65158 0.0
H1101 H 0.59702 0.70058 0.68771 0.0
H1102 H 0.4656 0.61774 0.71199 0.0
H1103 H 0.48267 0.60731 0.66333 0.0
H1104 H 0.48388 0.60205 0.7383 0.0
H1105 H 0.52343 0.57164 0.59705 0.0
H1106 H 0.5397 0.57728 0.77979 0.0
H1107 H 0.53506 0.61316 0.54937 0.0
H1108 H 0.53979 0.64298 0.58974 0.0
H1109 H 0.50707 0.61375 0.57789 0.0
H1110 H 0.56415 0.64744 0.80431 0.0
H1111 H 0.55147 0.61604 0.83798 0.0
H1112 H 0.52938 0.6282 0.81641 0.0
C1113 C 0.4499 0.11716 0.4003 0.0
C1114 C 0.46883 0.13835 0.37044 0.0
C1115 C 0.45566 0.09824 0.42374 0.0
C1116 C 0.48094 0.10064 0.41732 0.0
C1117 C 0.5004 0.12245 0.38889 0.0
C1118 C 0.49407 0.1409 0.36547 0.0
C1119 C 0.43457 0.07543 0.45455 0.0
C1120 C 0.52782 0.12607 0.38249 0.0
C1121 C 0.50269 0.06272 0.5158 0.0
C1122 C 0.49789 0.04043 0.47944 0.0
C1123 C 0.49772 0.08276 0.49602 0.0
C1124 C 0.48688 0.07997 0.43899 0.0
C1125 C 0.48195 0.05747 0.40212 0.0
C1126 C 0.48781 0.03816 0.42258 0.0
C1127 C 0.50388 0.10657 0.53691 0.0
C1128 C 0.47018 0.05363 0.3412 0.0
H1129 H 0.43046 0.11517 0.40474 0.0
H1130 H 0.50867 0.15683 0.34149 0.0
H1131 H 0.42987 0.05575 0.43309 0.0
H1132 H 0.44226 0.07617 0.4993 0.0
H1133 H 0.41584 0.07629 0.45564 0.0
H1134 H 0.54108 0.14476 0.36139 0.0
H1135 H 0.53735 0.12688 0.42534 0.0
H1136 H 0.52611 0.10852 0.35662 0.0
H1137 H 0.51073 0.06478 0.55963 0.0
H1138 H 0.484 0.02096 0.39423 0.0
H1139 H 0.48657 0.10104 0.56312 0.0
H1140 H 0.50787 0.12478 0.51451 0.0
H1141 H 0.52154 0.11188 0.56665 0.0
H1142 H 0.44986 0.05102 0.34159 0.0
H1143 H 0.46881 0.03579 0.31712 0.0
H1144 H 0.48246 0.07179 0.31779 0.0
C1145 C 0.35935 0.48035 0.31692 0.0
C1146 C 0.34019 0.48075 0.35091 0.0
C1147 C 0.37925 0.47581 0.34088 0.0
C1148 C 0.38014 0.47212 0.40024 0.0
C1149 C 0.3611 0.47314 0.43487 0.0
C1150 C 0.341 0.47699 0.40946 0.0
C1151 C 0.39935 0.4751 0.30289 0.0
C1152 C 0.36234 0.47081 0.49893 0.0
C1153 C 0.4152 0.43937 0.47334 0.0
C1154 C 0.43895 0.46207 0.49593 0.0
C1155 C 0.39667 0.44228 0.4381 0.0
C1156 C 0.40166 0.46851 0.4273 0.0
C1157 C 0.42625 0.4914 0.44756 0.0
C1158 C 0.44481 0.48782 0.48066 0.0
C1159 C 0.37122 0.41738 0.41465 0.0
C1160 C 0.4329 0.51989 0.43672 0.0
H1161 H 0.35836 0.48301 0.27136 0.0
H1162 H 0.32608 0.47738 0.43535 0.0
H1163 H 0.41935 0.4929 0.31488 0.0
H1164 H 0.40081 0.45675 0.30917 0.0
H1165 H 0.39414 0.47537 0.2567 0.0
H1166 H 0.34648 0.47283 0.51983 0.0
H1167 H 0.36022 0.45101 0.50816 0.0
H1168 H 0.38209 0.48674 0.51863 0.0
H1169 H 0.41076 0.41943 0.48458 0.0
H1170 H 0.46313 0.50551 0.49805 0.0
H1171 H 0.36721 0.41875 0.36839 0.0
H1172 H 0.35415 0.41584 0.43742 0.0
H1173 H 0.3721 0.39862 0.41989 0.0
H1174 H 0.44474 0.52626 0.39849 0.0
H1175 H 0.44524 0.53416 0.47371 0.0
H1176 H 0.41497 0.5219 0.42882 0.0
C1177 C 0.85095 0.33639 0.33112 0.0
C1178 C 0.86362 0.33103 0.2868 0.0
C1179 C 0.86579 0.3564 0.37526 0.0
C1180 C 0.89393 0.37136 0.37493 0.0
C1181 C 0.9069 0.36509 0.33194 0.0
C1182 C 0.89156 0.34499 0.28828 0.0
C1183 C 0.85129 0.36242 0.42058 0.0
C1184 C 0.93692 0.3806 0.3303 0.0
C1185 C 0.93207 0.44473 0.42856 0.0
C1186 C 0.94524 0.444 0.47955 0.0
C1187 C 0.91422 0.42102 0.39576 0.0
C1188 C 0.90957 0.39592 0.41425 0.0
C1189 C 0.92154 0.39485 0.46753 0.0
C1190 C 0.93926 0.41905 0.49992 0.0
C1191 C 0.90153 0.42302 0.33964 0.0
C1192 C 0.91694 0.3684 0.48859 0.0
H1193 H 0.82935 0.32509 0.33092 0.0
H1194 H 0.90141 0.34085 0.25416 0.0
H1195 H 0.86065 0.36393 0.46402 0.0
H1196 H 0.85277 0.38219 0.41398 0.0
H1197 H 0.82982 0.34674 0.41915 0.0
H1198 H 0.94403 0.37137 0.29787 0.0
H1199 H 0.94351 0.40164 0.31971 0.0
H1200 H 0.94666 0.38163 0.373 0.0
H1201 H 0.93645 0.46405 0.4132 0.0
H1202 H 0.9495 0.41849 0.5393 0.0
H1203 H 0.87959 0.40929 0.33734 0.0
H1204 H 0.90935 0.41664 0.30332 0.0
H1205 H 0.90562 0.44388 0.33381 0.0
H1206 H 0.8954 0.35295 0.48369 0.0
H1207 H 0.92426 0.37058 0.53431 0.0
H1208 H 0.92764 0.36078 0.46232 0.0
C1209 C 0.50809 0.78759 0.36562 0.0
C1210 C 0.52264 0.80173 0.31999 0.0
C1211 C 0.50553 0.80137 0.41395 0.0
C1212 C 0.51717 0.82981 0.41565 0.0
C1213 C 0.53247 0.84415 0.37025 0.0
C1214 C 0.53514 0.82994 0.32328 0.0
C1215 C 0.48959 0.78535 0.46188 0.0
C1216 C 0.5451 0.87448 0.36992 0.0
C1217 C 0.4908 0.87155 0.48287 0.0
C1218 C 0.51229 0.88855 0.52235 0.0
C1219 C 0.49041 0.84987 0.45196 0.0
C1220 C 0.51183 0.84489 0.46155 0.0
C1221 C 0.53119 0.85921 0.50778 0.0
C1222 C 0.53127 0.88104 0.53774 0.0
C1223 C 0.46898 0.83473 0.40395 0.0
C1224 C 0.55362 0.8536 0.52117 0.0
H1225 H 0.49856 0.76575 0.3633 0.0
H1226 H 0.54612 0.84088 0.28777 0.0
H1227 H 0.49838 0.79643 0.50437 0.0
H1228 H 0.46896 0.78183 0.45608 0.0
H1229 H 0.48838 0.76536 0.46197 0.0
H1230 H 0.55688 0.88256 0.33203 0.0
H1231 H 0.52934 0.88014 0.36965 0.0
H1232 H 0.5585 0.88443 0.40931 0.0
H1233 H 0.47559 0.87675 0.47191 0.0
H1234 H 0.54767 0.89369 0.5691 0.0
H1235 H 0.46167 0.81276 0.40327 0.0
H1236 H 0.47748 0.84177 0.3622 0.0
H1237 H 0.45173 0.83802 0.40784 0.0
H1238 H 0.54636 0.83161 0.51649 0.0
H1239 H 0.56295 0.86153 0.56536 0.0
H1240 H 0.56923 0.86358 0.49049 0.0
C1241 C 0.72348 0.59724 0.29716 0.0
C1242 C 0.71347 0.59096 0.23965 0.0
C1243 C 0.70627 0.59185 0.34144 0.0
C1244 C 0.67849 0.58015 0.32748 0.0
C1245 C 0.66856 0.57512 0.26907 0.0
C1246 C 0.68621 0.58032 0.22571 0.0
C1247 C 0.71762 0.59716 0.403 0.0
C1248 C 0.63913 0.56305 0.25241 0.0
C1249 C 0.62761 0.5332 0.42536 0.0
C1250 C 0.61862 0.54968 0.44992 0.0
C1251 C 0.64815 0.54337 0.38786 0.0
C1252 C 0.65947 0.57051 0.37337 0.0
C1253 C 0.65123 0.58758 0.39988 0.0
C1254 C 0.63104 0.577 0.43848 0.0
C1255 C 0.65686 0.52468 0.36174 0.0
C1256 C 0.66257 0.61649 0.38487 0.0
H1257 H 0.74466 0.60526 0.30747 0.0
H1258 H 0.67866 0.5754 0.18101 0.0
H1259 H 0.70988 0.60814 0.4287 0.0
H1260 H 0.71123 0.57763 0.42224 0.0
H1261 H 0.73981 0.60907 0.40658 0.0
H1262 H 0.63508 0.56319 0.20557 0.0
H1263 H 0.62816 0.54185 0.26449 0.0
H1264 H 0.63104 0.57431 0.27591 0.0
H1265 H 0.61805 0.51208 0.43443 0.0
H1266 H 0.62385 0.58966 0.45694 0.0
H1267 H 0.67893 0.53424 0.36662 0.0
H1268 H 0.65082 0.52073 0.31509 0.0
H1269 H 0.64793 0.50502 0.38168 0.0
H1270 H 0.68471 0.62711 0.38785 0.0
H1271 H 0.65603 0.62781 0.41326 0.0
H1272 H 0.65593 0.61684 0.33981 0.0
C1273 C 0.15222 0.71131 0.38563 0.0
C1274 C 0.17641 0.71653 0.36317 0.0
C1275 C 0.14027 0.69206 0.42609 0.0
C1276 C 0.15372 0.6791 0.44848 0.0
C1277 C 0.17966 0.68689 0.43227 0.0
C1278 C 0.19022 0.70458 0.38841 0.0
C1279 C 0.11247 0.68445 0.4421 0.0
C1280 C 0.19595 0.67563 0.45892 0.0
C1281 C 0.11379 0.63275 0.56218 0.0
C1282 C 0.09989 0.60799 0.5293 0.0
C1283 C 0.13365 0.65591 0.53845 0.0
C1284 C 0.13869 0.65436 0.47995 0.0
C1285 C 0.12636 0.62891 0.44851 0.0
C1286 C 0.10786 0.60598 0.47429 0.0
C1287 C 0.14777 0.68208 0.57541 0.0
C1288 C 0.13061 0.62608 0.38575 0.0
H1289 H 0.14188 0.72148 0.37048 0.0
H1290 H 0.20892 0.70796 0.37317 0.0
H1291 H 0.09873 0.66243 0.43272 0.0
H1292 H 0.11279 0.68901 0.48876 0.0
H1293 H 0.10421 0.69546 0.41857 0.0
H1294 H 0.21756 0.69096 0.4618 0.0
H1295 H 0.19004 0.66905 0.50258 0.0
H1296 H 0.19324 0.65806 0.43149 0.0
H1297 H 0.10826 0.63445 0.60524 0.0
H1298 H 0.09775 0.58685 0.44883 0.0
H1299 H 0.1341 0.69027 0.58022 0.0
H1300 H 0.16628 0.69747 0.55735 0.0
H1301 H 0.15299 0.67843 0.61912 0.0
H1302 H 0.12593 0.63951 0.36086 0.0
H1303 H 0.11799 0.60506 0.36662 0.0
H1304 H 0.15177 0.63221 0.38061 0.0
loop_
_geom_bond_atom_site_label_1
_geom_bond_atom_site_label_2
_geom_bond_distance
_geom_bond_site_symmetry_2
_ccdc_geom_bond_type
H0 O26 0.856 . S
H1 O29 0.854 . S
H2 C37 0.930 . S
H3 C38 0.930 . S
H4 C40 0.930 . S
H5 C41 0.930 . S
H6 C43 0.931 . S
H7 C44 0.930 . S
H8 C46 0.930 . S
H9 C47 0.929 . S
H10 C49 0.930 . S
H11 C50 0.931 . S
H12 C52 0.930 . S
H13 C53 0.929 . S
H14 C55 0.931 . S
H15 C56 0.930 . S
H16 C58 0.930 . S
H17 C59 0.932 . S
H18 C61 0.930 . S
H19 C62 0.929 1_556 S
H20 C64 0.931 . S
H21 C65 0.930 . S
H22 C67 0.929 . S
H23 C68 0.931 . S
H24 C70 0.930 . S
H25 C71 0.929 . S
O26 H0 0.856 . S
O26 C72 1.300 . S
O27 C72 1.209 . S
O28 C73 1.199 . S
O29 H1 0.854 . S
O29 C73 1.297 . S
C30 C31 1.404 . S
C30 C35 1.397 . S
C30 C36 1.492 . S
C31 C30 1.404 . S
C31 C32 1.396 . S
C31 C42 1.492 . S
C32 C31 1.396 . S
C32 C33 1.397 . S
C32 C48 1.509 . S
C33 C32 1.397 . S
C33 C34 1.412 . S
C33 C54 1.485 . S
C34 C33 1.412 . S
C34 C35 1.388 . S
C34 C60 1.490 . S
C35 C30 1.397 . S
C35 C34 1.388 . S
C35 C66 1.519 . S
C36 C30 1.492 . S
C36 C37 1.363 . S
C36 C41 1.390 . S
C37 H2 0.930 . S
C37 C36 1.363 . S
C37 C38 1.372 . S
C38 H3 0.930 . S
C38 C37 1.372 . S
C38 C39 1.383 . S
C39 C38 1.383 . S
C39 C40 1.395 . S
C40 H4 0.930 . S
C40 C39 1.395 . S
C40 C41 1.362 . S
C41 H5 0.930 . S
C41 C36 1.390 . S
C41 C40 1.362 . S
C42 C31 1.492 . S
C42 C43 1.377 . S
C42 C47 1.397 . S
C43 H6 0.931 . S
C43 C42 1.377 . S
C43 C44 1.376 . S
C44 H7 0.930 . S
C44 C43 1.376 . S
C44 C45 1.376 . S
C45 C44 1.376 . S
C45 C46 1.378 . S
C45 C72 1.486 . S
C46 H8 0.930 . S
C46 C45 1.378 . S
C46 C47 1.376 . S
C47 H9 0.929 . S
C47 C42 1.397 . S
C47 C46 1.376 . S
C48 C32 1.509 . S
C48 C49 1.391 . S
C48 C53 1.386 . S
C49 H10 0.930 . S
C49 C48 1.391 . S
C49 C50 1.375 . S
C50 H11 0.931 . S
C50 C49 1.375 . S
C50 C51 1.375 . S
C51 C50 1.375 . S
C51 C52 1.361 . S
C52 H12 0.930 . S
C52 C51 1.361 . S
C52 C53 1.399 . S
C53 H13 0.929 . S
C53 C48 1.386 . S
C53 C52 1.399 . S
C54 C33 1.485 . S
C54 C55 1.394 . S
C54 C59 1.360 . S
C55 H14 0.931 . S
C55 C54 1.394 . S
C55 C56 1.372 . S
C56 H15 0.930 . S
C56 C55 1.372 . S
C56 C57 1.397 . S
C57 C56 1.397 . S
C57 C58 1.390 . S
C57 C73 1.476 . S
C58 H16 0.930 . S
C58 C57 1.390 . S
C58 C59 1.366 . S
C59 H17 0.932 . S
C59 C54 1.360 . S
C59 C58 1.366 . S
C60 C34 1.490 . S
C60 C61 1.380 . S
C60 C65 1.386 . S
C61 H18 0.930 . S
C61 C60 1.380 . S
C61 C62 1.381 . S
C62 H19 0.929 1_554 S
C62 C61 1.381 . S
C62 C63 1.371 1_554 S
C63 C62 1.371 1_556 S
C63 C64 1.380 1_556 S
C64 H20 0.931 . S
C64 C63 1.380 1_554 S
C64 C65 1.387 . S
C65 H21 0.930 . S
C65 C60 1.386 . S
C65 C64 1.387 . S
C66 C35 1.519 . S
C66 C67 1.377 . S
C66 C71 1.361 . S
C67 H22 0.929 . S
C67 C66 1.377 . S
C67 C68 1.386 . S
C68 H23 0.931 . S
C68 C67 1.386 . S
C68 C69 1.363 . S
C69 C68 1.363 . S
C69 C70 1.385 . S
C70 H24 0.930 . S
C70 C69 1.385 . S
C70 C71 1.396 . S
C71 H25 0.929 . S
C71 C66 1.361 . S
C71 C70 1.396 . S
C72 O26 1.300 . S
C72 O27 1.209 . S
C72 C45 1.486 . S
C73 O28 1.199 . S
C73 O29 1.297 . S
C73 C57 1.476 . S
H74 O100 0.856 . S
H75 O103 0.854 . S
H76 C111 0.930 . S
H77 C112 0.930 . S
H78 C114 0.930 . S
H79 C115 0.930 . S
H80 C117 0.931 . S
H81 C118 0.930 . S
H82 C120 0.930 . S
H83 C121 0.929 . S
H84 C123 0.930 . S
H85 C124 0.931 . S
H86 C126 0.930 . S
H87 C127 0.929 . S
H88 C129 0.931 . S
H89 C130 0.930 . S
H90 C132 0.930 . S
H91 C133 0.932 . S
H92 C135 0.930 1_554 S
H93 C136 0.929 . S
H94 C138 0.931 . S
H95 C139 0.930 . S
H96 C141 0.929 . S
H97 C142 0.931 . S
H98 C144 0.930 . S
H99 C145 0.929 . S
O100 H74 0.856 . S
O100 C146 1.300 . S
O101 C146 1.209 . S
O102 C147 1.199 . S
O103 H75 0.854 . S
O103 C147 1.297 . S
C104 C105 1.404 . S
C104 C109 1.397 . S
C104 C110 1.492 . S
C105 C104 1.404 . S
C105 C106 1.396 . S
C105 C116 1.492 . S
C106 C105 1.396 . S
C106 C107 1.397 . S
C106 C122 1.509 . S
C107 C106 1.397 . S
C107 C108 1.412 . S
C107 C128 1.485 . S
C108 C107 1.412 . S
C108 C109 1.388 . S
C108 C134 1.490 . S
C109 C104 1.397 . S
C109 C108 1.388 . S
C109 C140 1.519 . S
C110 C104 1.492 . S
C110 C111 1.363 . S
C110 C115 1.390 . S
C111 H76 0.930 . S
C111 C110 1.363 . S
C111 C112 1.372 . S
C112 H77 0.930 . S
C112 C111 1.372 . S
C112 C113 1.383 . S
C113 C112 1.383 . S
C113 C114 1.395 . S
C114 H78 0.930 . S
C114 C113 1.395 . S
C114 C115 1.362 . S
C115 H79 0.930 . S
C115 C110 1.390 . S
C115 C114 1.362 . S
C116 C105 1.492 . S
C116 C117 1.377 . S
C116 C121 1.397 . S
C117 H80 0.931 . S
C117 C116 1.377 . S
C117 C118 1.376 . S
C118 H81 0.930 . S
C118 C117 1.376 . S
C118 C119 1.376 . S
C119 C118 1.376 . S
C119 C120 1.378 . S
C119 C146 1.486 . S
C120 H82 0.930 . S
C120 C119 1.378 . S
C120 C121 1.376 . S
C121 H83 0.929 . S
C121 C116 1.397 . S
C121 C120 1.376 . S
C122 C106 1.509 . S
C122 C123 1.391 . S
C122 C127 1.386 . S
C123 H84 0.930 . S
C123 C122 1.391 . S
C123 C124 1.375 . S
C124 H85 0.931 . S
C124 C123 1.375 . S
C124 C125 1.375 . S
C125 C124 1.375 . S
C125 C126 1.361 . S
C126 H86 0.930 . S
C126 C125 1.361 . S
C126 C127 1.399 . S
C127 H87 0.929 . S
C127 C122 1.386 . S
C127 C126 1.399 . S
C128 C107 1.485 . S
C128 C129 1.394 . S
C128 C133 1.360 . S
C129 H88 0.931 . S
C129 C128 1.394 . S
C129 C130 1.372 . S
C130 H89 0.930 . S
C130 C129 1.372 . S
C130 C131 1.397 . S
C131 C130 1.397 . S
C131 C132 1.390 . S
C131 C147 1.476 . S
C132 H90 0.930 . S
C132 C131 1.390 . S
C132 C133 1.366 . S
C133 H91 0.932 . S
C133 C128 1.360 . S
C133 C132 1.366 . S
C134 C108 1.490 . S
C134 C135 1.380 1_554 S
C134 C139 1.386 1_554 S
C135 H92 0.930 1_556 S
C135 C134 1.380 1_556 S
C135 C136 1.381 . S
C136 H93 0.929 . S
C136 C135 1.381 . S
C136 C137 1.371 . S
C137 C136 1.371 . S
C137 C138 1.380 . S
C138 H94 0.931 . S
C138 C137 1.380 . S
C138 C139 1.387 . S
C139 H95 0.930 . S
C139 C134 1.386 1_556 S
C139 C138 1.387 . S
C140 C109 1.519 . S
C140 C141 1.377 . S
C140 C145 1.361 . S
C141 H96 0.929 . S
C141 C140 1.377 . S
C141 C142 1.386 1_554 S
C142 H97 0.931 . S
C142 C141 1.386 1_556 S
C142 C143 1.363 . S
C143 C142 1.363 . S
C143 C144 1.385 . S
C144 H98 0.930 . S
C144 C143 1.385 . S
C144 C145 1.396 1_556 S
C145 H99 0.929 . S
C145 C140 1.361 . S
C145 C144 1.396 1_554 S
C146 O100 1.300 . S
C146 O101 1.209 . S
C146 C119 1.486 . S
C147 O102 1.199 . S
C147 O103 1.297 . S
C147 C131 1.476 . S
H148 O174 0.856 . S
H149 O177 0.854 . S
H150 C185 0.930 . S
H151 C186 0.930 . S
H152 C188 0.930 . S
H153 C189 0.930 . S
H154 C191 0.931 . S
H155 C192 0.930 . S
H156 C194 0.930 . S
H157 C195 0.929 . S
H158 C197 0.930 . S
H159 C198 0.931 . S
H160 C200 0.930 . S
H161 C201 0.929 . S
H162 C203 0.931 . S
H163 C204 0.930 . S
H164 C206 0.930 . S
H165 C207 0.932 1_556 S
H166 C209 0.930 . S
H167 C210 0.929 . S
H168 C212 0.931 . S
H169 C213 0.930 . S
H170 C215 0.929 . S
H171 C216 0.931 . S
H172 C218 0.930 . S
H173 C219 0.929 . S
O174 H148 0.856 . S
O174 C220 1.300 . S
O175 C220 1.209 . S
O176 C221 1.199 . S
O177 H149 0.854 . S
O177 C221 1.297 . S
C178 C179 1.404 . S
C178 C183 1.397 1_556 S
C178 C184 1.492 . S
C179 C178 1.404 . S
C179 C180 1.396 . S
C179 C190 1.492 . S
C180 C179 1.396 . S
C180 C181 1.397 1_556 S
C180 C196 1.509 . S
C181 C180 1.397 1_554 S
C181 C182 1.412 . S
C181 C202 1.485 . S
C182 C181 1.412 . S
C182 C183 1.388 . S
C182 C208 1.490 . S
C183 C178 1.397 1_554 S
C183 C182 1.388 . S
C183 C214 1.519 . S
C184 C178 1.492 . S
C184 C185 1.363 . S
C184 C189 1.390 . S
C185 H150 0.930 . S
C185 C184 1.363 . S
C185 C186 1.372 . S
C186 H151 0.930 . S
C186 C185 1.372 . S
C186 C187 1.383 . S
C187 C186 1.383 . S
C187 C188 1.395 . S
C188 H152 0.930 . S
C188 C187 1.395 . S
C188 C189 1.362 . S
C189 H153 0.930 . S
C189 C184 1.390 . S
C189 C188 1.362 . S
C190 C179 1.492 . S
C190 C191 1.377 . S
C190 C195 1.397 . S
C191 H154 0.931 . S
C191 C190 1.377 . S
C191 C192 1.376 . S
C192 H155 0.930 . S
C192 C191 1.376 . S
C192 C193 1.376 . S
C193 C192 1.376 . S
C193 C194 1.378 . S
C193 C220 1.486 . S
C194 H156 0.930 . S
C194 C193 1.378 . S
C194 C195 1.376 . S
C195 H157 0.929 . S
C195 C190 1.397 . S
C195 C194 1.376 . S
C196 C180 1.509 . S
C196 C197 1.391 . S
C196 C201 1.386 . S
C197 H158 0.930 . S
C197 C196 1.391 . S
C197 C198 1.375 . S
C198 H159 0.931 . S
C198 C197 1.375 . S
C198 C199 1.375 . S
C199 C198 1.375 . S
C199 C200 1.361 . S
C200 H160 0.930 . S
C200 C199 1.361 . S
C200 C201 1.399 . S
C201 H161 0.929 . S
C201 C196 1.386 . S
C201 C200 1.399 . S
C202 C181 1.485 . S
C202 C203 1.394 . S
C202 C207 1.360 . S
C203 H162 0.931 . S
C203 C202 1.394 . S
C203 C204 1.372 . S
C204 H163 0.930 . S
C204 C203 1.372 . S
C204 C205 1.397 . S
C205 C204 1.397 . S
C205 C206 1.390 . S
C205 C221 1.476 . S
C206 H164 0.930 . S
C206 C205 1.390 . S
C206 C207 1.366 . S
C207 H165 0.932 1_554 S
C207 C202 1.360 . S
C207 C206 1.366 . S
C208 C182 1.490 . S
C208 C209 1.380 . S
C208 C213 1.386 . S
C209 H166 0.930 . S
C209 C208 1.380 . S
C209 C210 1.381 . S
C210 H167 0.929 . S
C210 C209 1.381 . S
C210 C211 1.371 . S
C211 C210 1.371 . S
C211 C212 1.380 . S
C212 H168 0.931 . S
C212 C211 1.380 . S
C212 C213 1.387 . S
C213 H169 0.930 . S
C213 C208 1.386 . S
C213 C212 1.387 . S
C214 C183 1.519 . S
C214 C215 1.377 . S
C214 C219 1.361 . S
C215 H170 0.929 . S
C215 C214 1.377 . S
C215 C216 1.386 . S
C216 H171 0.931 . S
C216 C215 1.386 . S
C216 C217 1.363 . S
C217 C216 1.363 . S
C217 C218 1.385 . S
C218 H172 0.930 . S
C218 C217 1.385 . S
C218 C219 1.396 . S
C219 H173 0.929 . S
C219 C214 1.361 . S
C219 C218 1.396 . S
C220 O174 1.300 . S
C220 O175 1.209 . S
C220 C193 1.486 . S
C221 O176 1.199 . S
C221 O177 1.297 . S
C221 C205 1.476 . S
H222 O248 0.856 . S
H223 O251 0.854 . S
H224 C259 0.930 . S
H225 C260 0.930 . S
H226 C262 0.930 . S
H227 C263 0.930 . S
H228 C265 0.931 . S
H229 C266 0.930 . S
H230 C268 0.930 . S
H231 C269 0.929 . S
H232 C271 0.930 . S
H233 C272 0.931 . S
H234 C274 0.930 . S
H235 C275 0.929 . S
H236 C277 0.931 1_556 S
H237 C278 0.930 . S
H238 C280 0.930 . S
H239 C281 0.932 . S
H240 C283 0.930 . S
H241 C284 0.929 . S
H242 C286 0.931 . S
H243 C287 0.930 . S
H244 C289 0.929 . S
H245 C290 0.931 . S
H246 C292 0.930 . S
H247 C293 0.929 . S
O248 H222 0.856 . S
O248 C294 1.300 . S
O249 C294 1.209 . S
O250 C295 1.199 . S
O251 H223 0.854 . S
O251 C295 1.297 1_554 S
C252 C253 1.404 . S
C252 C257 1.397 . S
C252 C258 1.492 . S
C253 C252 1.404 . S
C253 C254 1.396 . S
C253 C264 1.492 . S
C254 C253 1.396 . S
C254 C255 1.397 . S
C254 C270 1.509 . S
C255 C254 1.397 . S
C255 C256 1.412 . S
C255 C276 1.485 . S
C256 C255 1.412 . S
C256 C257 1.388 . S
C256 C282 1.490 1_554 S
C257 C252 1.397 . S
C257 C256 1.388 . S
C257 C288 1.519 1_554 S
C258 C252 1.492 . S
C258 C259 1.363 . S
C258 C263 1.390 . S
C259 H224 0.930 . S
C259 C258 1.363 . S
C259 C260 1.372 . S
C260 H225 0.930 . S
C260 C259 1.372 . S
C260 C261 1.383 . S
C261 C260 1.383 . S
C261 C262 1.395 . S
C262 H226 0.930 . S
C262 C261 1.395 . S
C262 C263 1.362 . S
C263 H227 0.930 . S
C263 C258 1.390 . S
C263 C262 1.362 . S
C264 C253 1.492 . S
C264 C265 1.377 . S
C264 C269 1.397 . S
C265 H228 0.931 . S
C265 C264 1.377 . S
C265 C266 1.376 . S
C266 H229 0.930 . S
C266 C265 1.376 . S
C266 C267 1.376 . S
C267 C266 1.376 . S
C267 C268 1.378 . S
C267 C294 1.486 . S
C268 H230 0.930 . S
C268 C267 1.378 . S
C268 C269 1.376 . S
C269 H231 0.929 . S
C269 C264 1.397 . S
C269 C268 1.376 . S
C270 C254 1.509 . S
C270 C271 1.391 . S
C270 C275 1.386 . S
C271 H232 0.930 . S
C271 C270 1.391 . S
C271 C272 1.375 . S
C272 H233 0.931 . S
C272 C271 1.375 . S
C272 C273 1.375 . S
C273 C272 1.375 . S
C273 C274 1.361 . S
C274 H234 0.930 . S
C274 C273 1.361 . S
C274 C275 1.399 . S
C275 H235 0.929 . S
C275 C270 1.386 . S
C275 C274 1.399 . S
C276 C255 1.485 . S
C276 C277 1.394 . S
C276 C281 1.360 . S
C277 H236 0.931 1_554 S
C277 C276 1.394 . S
C277 C278 1.372 1_554 S
C278 H237 0.930 . S
C278 C277 1.372 1_556 S
C278 C279 1.397 1_556 S
C279 C278 1.397 1_554 S
C279 C280 1.390 . S
C279 C295 1.476 1_554 S
C280 H238 0.930 . S
C280 C279 1.390 . S
C280 C281 1.366 . S
C281 H239 0.932 . S
C281 C276 1.360 . S
C281 C280 1.366 . S
C282 C256 1.490 1_556 S
C282 C283 1.380 . S
C282 C287 1.386 . S
C283 H240 0.930 . S
C283 C282 1.380 . S
C283 C284 1.381 . S
C284 H241 0.929 . S
C284 C283 1.381 . S
C284 C285 1.371 . S
C285 C284 1.371 . S
C285 C286 1.380 . S
C286 H242 0.931 . S
C286 C285 1.380 . S
C286 C287 1.387 . S
C287 H243 0.930 . S
C287 C282 1.386 . S
C287 C286 1.387 . S
C288 C257 1.519 1_556 S
C288 C289 1.377 . S
C288 C293 1.361 . S
C289 H244 0.929 . S
C289 C288 1.377 . S
C289 C290 1.386 . S
C290 H245 0.931 . S
C290 C289 1.386 . S
C290 C291 1.363 . S
C291 C290 1.363 . S
C291 C292 1.385 . S
C292 H246 0.930 . S
C292 C291 1.385 . S
C292 C293 1.396 . S
C293 H247 0.929 . S
C293 C288 1.361 . S
C293 C292 1.396 . S
C294 O248 1.300 . S
C294 O249 1.209 . S
C294 C267 1.486 . S
C295 O250 1.199 . S
C295 O251 1.297 1_556 S
C295 C279 1.476 1_556 S
H296 O322 0.856 . S
H297 O325 0.854 . S
H298 C333 0.930 . S
H299 C334 0.930 . S
H300 C336 0.930 . S
H301 C337 0.930 . S
H302 C339 0.931 . S
H303 C340 0.930 . S
H304 C342 0.930 . S
H305 C343 0.929 . S
H306 C345 0.930 . S
H307 C346 0.931 . S
H308 C348 0.930 . S
H309 C349 0.929 . S
H310 C351 0.931 . S
H311 C352 0.930 . S
H312 C354 0.930 . S
H313 C355 0.932 . S
H314 C357 0.930 1_554 S
H315 C358 0.929 . S
H316 C360 0.931 . S
H317 C361 0.930 1_554 S
H318 C363 0.929 . S
H319 C364 0.931 . S
H320 C366 0.930 . S
H321 C367 0.929 . S
O322 H296 0.856 . S
O322 C368 1.300 . S
O323 C368 1.209 . S
O324 C369 1.199 . S
O325 H297 0.854 . S
O325 C369 1.297 . S
C326 C327 1.404 . S
C326 C331 1.397 . S
C326 C332 1.492 . S
C327 C326 1.404 . S
C327 C328 1.396 . S
C327 C338 1.492 . S
C328 C327 1.396 . S
C328 C329 1.397 . S
C328 C344 1.509 . S
C329 C328 1.397 . S
C329 C330 1.412 . S
C329 C350 1.485 . S
C330 C329 1.412 . S
C330 C331 1.388 . S
C330 C356 1.490 . S
C331 C326 1.397 . S
C331 C330 1.388 . S
C331 C362 1.519 . S
C332 C326 1.492 . S
C332 C333 1.363 . S
C332 C337 1.390 . S
C333 H298 0.930 . S
C333 C332 1.363 . S
C333 C334 1.372 . S
C334 H299 0.930 . S
C334 C333 1.372 . S
C334 C335 1.383 . S
C335 C334 1.383 . S
C335 C336 1.395 . S
C336 H300 0.930 . S
C336 C335 1.395 . S
C336 C337 1.362 . S
C337 H301 0.930 . S
C337 C332 1.390 . S
C337 C336 1.362 . S
C338 C327 1.492 . S
C338 C339 1.377 . S
C338 C343 1.397 . S
C339 H302 0.931 . S
C339 C338 1.377 . S
C339 C340 1.376 . S
C340 H303 0.930 . S
C340 C339 1.376 . S
C340 C341 1.376 . S
C341 C340 1.376 . S
C341 C342 1.378 . S
C341 C368 1.486 . S
C342 H304 0.930 . S
C342 C341 1.378 . S
C342 C343 1.376 . S
C343 H305 0.929 . S
C343 C338 1.397 . S
C343 C342 1.376 . S
C344 C328 1.509 . S
C344 C345 1.391 . S
C344 C349 1.386 . S
C345 H306 0.930 . S
C345 C344 1.391 . S
C345 C346 1.375 . S
C346 H307 0.931 . S
C346 C345 1.375 . S
C346 C347 1.375 . S
C347 C346 1.375 . S
C347 C348 1.361 . S
C348 H308 0.930 . S
C348 C347 1.361 . S
C348 C349 1.399 . S
C349 H309 0.929 . S
C349 C344 1.386 . S
C349 C348 1.399 . S
C350 C329 1.485 . S
C350 C351 1.394 . S
C350 C355 1.360 . S
C351 H310 0.931 . S
C351 C350 1.394 . S
C351 C352 1.372 . S
C352 H311 0.930 . S
C352 C351 1.372 . S
C352 C353 1.397 . S
C353 C352 1.397 . S
C353 C354 1.390 . S
C353 C369 1.476 . S
C354 H312 0.930 . S
C354 C353 1.390 . S
C354 C355 1.366 . S
C355 H313 0.932 . S
C355 C350 1.360 . S
C355 C354 1.366 . S
C356 C330 1.490 . S
C356 C357 1.380 1_554 S
C356 C361 1.386 1_554 S
C357 H314 0.930 1_556 S
C357 C356 1.380 1_556 S
C357 C358 1.381 . S
C358 H315 0.929 . S
C358 C357 1.381 . S
C358 C359 1.371 . S
C359 C358 1.371 . S
C359 C360 1.380 . S
C360 H316 0.931 . S
C360 C359 1.380 . S
C360 C361 1.387 . S
C361 H317 0.930 1_556 S
C361 C356 1.386 1_556 S
C361 C360 1.387 . S
C362 C331 1.519 . S
C362 C363 1.377 . S
C362 C367 1.361 . S
C363 H318 0.929 . S
C363 C362 1.377 . S
C363 C364 1.386 . S
C364 H319 0.931 . S
C364 C363 1.386 . S
C364 C365 1.363 1_554 S
C365 C364 1.363 1_556 S
C365 C366 1.385 . S
C366 H320 0.930 . S
C366 C365 1.385 . S
C366 C367 1.396 1_556 S
C367 H321 0.929 . S
C367 C362 1.361 . S
C367 C366 1.396 1_554 S
C368 O322 1.300 . S
C368 O323 1.209 . S
C368 C341 1.486 . S
C369 O324 1.199 . S
C369 O325 1.297 . S
C369 C353 1.476 . S
H370 O396 0.856 . S
H371 O399 0.854 . S
H372 C407 0.930 . S
H373 C408 0.930 . S
H374 C410 0.930 . S
H375 C411 0.930 . S
H376 C413 0.931 . S
H377 C414 0.930 . S
H378 C416 0.930 . S
H379 C417 0.929 1_554 S
H380 C419 0.930 . S
H381 C420 0.931 . S
H382 C422 0.930 . S
H383 C423 0.929 . S
H384 C425 0.931 . S
H385 C426 0.930 . S
H386 C428 0.930 . S
H387 C429 0.932 . S
H388 C431 0.930 . S
H389 C432 0.929 . S
H390 C434 0.931 . S
H391 C435 0.930 . S
H392 C437 0.929 . S
H393 C438 0.931 . S
H394 C440 0.930 . S
H395 C441 0.929 . S
O396 H370 0.856 . S
O396 C442 1.300 . S
O397 C442 1.209 . S
O398 C443 1.199 . S
O399 H371 0.854 . S
O399 C443 1.297 . S
C400 C401 1.404 . S
C400 C405 1.397 . S
C400 C406 1.492 . S
C401 C400 1.404 . S
C401 C402 1.396 . S
C401 C412 1.492 . S
C402 C401 1.396 . S
C402 C403 1.397 . S
C402 C418 1.509 . S
C403 C402 1.397 . S
C403 C404 1.412 . S
C403 C424 1.485 . S
C404 C403 1.412 . S
C404 C405 1.388 . S
C404 C430 1.490 . S
C405 C400 1.397 . S
C405 C404 1.388 . S
C405 C436 1.519 . S
C406 C400 1.492 . S
C406 C407 1.363 . S
C406 C411 1.390 . S
C407 H372 0.930 . S
C407 C406 1.363 . S
C407 C408 1.372 . S
C408 H373 0.930 . S
C408 C407 1.372 . S
C408 C409 1.383 . S
C409 C408 1.383 . S
C409 C410 1.395 . S
C410 H374 0.930 . S
C410 C409 1.395 . S
C410 C411 1.362 . S
C411 H375 0.930 . S
C411 C406 1.390 . S
C411 C410 1.362 . S
C412 C401 1.492 . S
C412 C413 1.377 1_554 S
C412 C417 1.397 1_554 S
C413 H376 0.931 . S
C413 C412 1.377 1_556 S
C413 C414 1.376 . S
C414 H377 0.930 . S
C414 C413 1.376 . S
C414 C415 1.376 . S
C415 C414 1.376 . S
C415 C416 1.378 . S
C415 C442 1.486 . S
C416 H378 0.930 . S
C416 C415 1.378 . S
C416 C417 1.376 . S
C417 H379 0.929 1_556 S
C417 C412 1.397 1_556 S
C417 C416 1.376 . S
C418 C402 1.509 . S
C418 C419 1.391 . S
C418 C423 1.386 . S
C419 H380 0.930 . S
C419 C418 1.391 . S
C419 C420 1.375 1_554 S
C420 H381 0.931 . S
C420 C419 1.375 1_556 S
C420 C421 1.375 . S
C421 C420 1.375 . S
C421 C422 1.361 . S
C422 H382 0.930 . S
C422 C421 1.361 . S
C422 C423 1.399 1_556 S
C423 H383 0.929 . S
C423 C418 1.386 . S
C423 C422 1.399 1_554 S
C424 C403 1.485 . S
C424 C425 1.394 . S
C424 C429 1.360 . S
C425 H384 0.931 . S
C425 C424 1.394 . S
C425 C426 1.372 . S
C426 H385 0.930 . S
C426 C425 1.372 . S
C426 C427 1.397 . S
C427 C426 1.397 . S
C427 C428 1.390 . S
C427 C443 1.476 . S
C428 H386 0.930 . S
C428 C427 1.390 . S
C428 C429 1.366 . S
C429 H387 0.932 . S
C429 C424 1.360 . S
C429 C428 1.366 . S
C430 C404 1.490 . S
C430 C431 1.380 . S
C430 C435 1.386 . S
C431 H388 0.930 . S
C431 C430 1.380 . S
C431 C432 1.381 . S
C432 H389 0.929 . S
C432 C431 1.381 . S
C432 C433 1.371 . S
C433 C432 1.371 . S
C433 C434 1.380 . S
C434 H390 0.931 . S
C434 C433 1.380 . S
C434 C435 1.387 . S
C435 H391 0.930 . S
C435 C430 1.386 . S
C435 C434 1.387 . S
C436 C405 1.519 . S
C436 C437 1.377 . S
C436 C441 1.361 . S
C437 H392 0.929 . S
C437 C436 1.377 . S
C437 C438 1.386 . S
C438 H393 0.931 . S
C438 C437 1.386 . S
C438 C439 1.363 . S
C439 C438 1.363 . S
C439 C440 1.385 . S
C440 H394 0.930 . S
C440 C439 1.385 . S
C440 C441 1.396 . S
C441 H395 0.929 . S
C441 C436 1.361 . S
C441 C440 1.396 . S
C442 O396 1.300 . S
C442 O397 1.209 . S
C442 C415 1.486 . S
C443 O398 1.199 . S
C443 O399 1.297 . S
C443 C427 1.476 . S
C444 O471 1.312 . S
C444 O472 1.208 . S
C445 O466 1.331 . S
C445 O469 1.244 . S
C446 O468 1.264 . S
C446 O470 1.273 . S
Mg447 O449 1.936 . S
Mg447 O456 2.081 1_455 S
Mg447 O458 2.023 . S
Mg447 O462 2.031 1_455 S
Mg447 O471 2.291 . S
Mg448 O449 1.963 . S
Mg448 O459 1.942 1_455 S
Mg448 O460 1.955 . S
Mg448 O467 1.986 1_455 S
O449 Mg447 1.936 . S
O449 Mg448 1.963 . S
O449 Mg450 1.915 . S
Mg450 O449 1.915 . S
Mg450 O451 1.915 . S
Mg450 O455 2.013 . S
Mg450 O461 2.114 1_455 S
Mg450 O465 2.013 1_455 S
Mg450 O471 2.114 . S
O451 Mg450 1.915 . S
O451 Mg452 1.936 . S
O451 Mg453 1.963 . S
Mg452 O451 1.936 . S
Mg452 O461 2.291 1_455 S
Mg452 O466 2.081 . S
Mg452 O468 2.023 1_455 S
Mg452 O472 2.031 . S
Mg453 O451 1.963 . S
Mg453 O457 1.986 . S
Mg453 O469 1.942 . S
Mg453 O470 1.955 1_455 S
C454 O465 1.191 . S
C454 O467 1.307 . S
O455 Mg450 2.013 . S
O455 C474 1.191 . S
O456 Mg447 2.081 1_655 S
O456 C464 1.331 . S
O457 Mg453 1.986 . S
O457 C474 1.307 . S
O458 Mg447 2.023 . S
O458 C473 1.264 . S
O459 Mg448 1.942 1_655 S
O459 C464 1.244 . S
O460 Mg448 1.955 . S
O460 C473 1.273 . S
O461 Mg450 2.114 1_655 S
O461 Mg452 2.291 1_655 S
O461 C463 1.312 . S
O462 Mg447 2.031 1_655 S
O462 C463 1.208 . S
C463 O461 1.312 . S
C463 O462 1.208 . S
C464 O456 1.331 . S
C464 O459 1.244 . S
O465 Mg450 2.013 1_655 S
O465 C454 1.191 . S
O466 C445 1.331 . S
O466 Mg452 2.081 . S
O467 Mg448 1.986 1_655 S
O467 C454 1.307 . S
O468 C446 1.264 . S
O468 Mg452 2.023 1_655 S
O469 C445 1.244 . S
O469 Mg453 1.942 . S
O470 C446 1.273 . S
O470 Mg453 1.955 1_655 S
O471 C444 1.312 . S
O471 Mg447 2.291 . S
O471 Mg450 2.114 . S
O472 C444 1.208 . S
O472 Mg452 2.031 . S
C473 O458 1.264 . S
C473 O460 1.273 . S
C474 O455 1.191 . S
C474 O457 1.307 . S
C475 O502 1.312 . S
C475 O503 1.208 . S
C476 O497 1.331 . S
C476 O500 1.244 . S
C477 O499 1.264 . S
C477 O501 1.273 . S
Mg478 O480 1.936 1_545 S
Mg478 O487 2.081 1_545 S
Mg478 O489 2.023 . S
Mg478 O493 2.031 1_545 S
Mg478 O502 2.291 . S
Mg479 O480 1.963 . S
Mg479 O490 1.942 . S
Mg479 O491 1.955 1_565 S
Mg479 O498 1.986 . S
O480 Mg478 1.936 1_565 S
O480 Mg479 1.963 . S
O480 Mg481 1.915 1_565 S
Mg481 O480 1.915 1_545 S
Mg481 O482 1.915 . S
Mg481 O486 2.013 . S
Mg481 O492 2.114 1_545 S
Mg481 O496 2.013 1_545 S
Mg481 O502 2.114 . S
O482 Mg481 1.915 . S
O482 Mg483 1.936 . S
O482 Mg484 1.963 . S
Mg483 O482 1.936 . S
Mg483 O492 2.291 1_545 S
Mg483 O497 2.081 . S
Mg483 O499 2.023 1_545 S
Mg483 O503 2.031 . S
Mg484 O482 1.963 . S
Mg484 O488 1.986 . S
Mg484 O500 1.942 . S
Mg484 O501 1.955 1_545 S
C485 O496 1.191 . S
C485 O498 1.307 . S
O486 Mg481 2.013 . S
O486 C505 1.191 . S
O487 Mg478 2.081 1_565 S
O487 C495 1.331 . S
O488 Mg484 1.986 . S
O488 C505 1.307 . S
O489 Mg478 2.023 . S
O489 C504 1.264 . S
O490 Mg479 1.942 . S
O490 C495 1.244 . S
O491 Mg479 1.955 1_545 S
O491 C504 1.273 . S
O492 Mg481 2.114 1_565 S
O492 Mg483 2.291 1_565 S
O492 C494 1.312 . S
O493 Mg478 2.031 1_565 S
O493 C494 1.208 . S
C494 O492 1.312 . S
C494 O493 1.208 . S
C495 O487 1.331 . S
C495 O490 1.244 . S
O496 Mg481 2.013 1_565 S
O496 C485 1.191 . S
O497 C476 1.331 . S
O497 Mg483 2.081 . S
O498 Mg479 1.986 . S
O498 C485 1.307 . S
O499 C477 1.264 . S
O499 Mg483 2.023 1_565 S
O500 C476 1.244 . S
O500 Mg484 1.942 . S
O501 C477 1.273 . S
O501 Mg484 1.955 1_565 S
O502 C475 1.312 . S
O502 Mg478 2.291 . S
O502 Mg481 2.114 . S
O503 C475 1.208 . S
O503 Mg483 2.031 . S
C504 O489 1.264 . S
C504 O491 1.273 . S
C505 O486 1.191 . S
C505 O488 1.307 . S
C506 O533 1.312 . S
C506 O534 1.208 . S
C507 O528 1.331 . S
C507 O531 1.244 . S
C508 O530 1.264 . S
C508 O532 1.273 . S
Mg509 O511 1.936 . S
Mg509 O518 2.081 . S
Mg509 O520 2.023 . S
Mg509 O524 2.031 . S
Mg509 O533 2.291 . S
Mg510 O511 1.963 . S
Mg510 O521 1.942 . S
Mg510 O522 1.955 . S
Mg510 O529 1.986 . S
O511 Mg509 1.936 . S
O511 Mg510 1.963 . S
O511 Mg512 1.915 . S
Mg512 O511 1.915 . S
Mg512 O513 1.915 . S
Mg512 O517 2.013 . S
Mg512 O523 2.114 . S
Mg512 O527 2.013 . S
Mg512 O533 2.114 . S
O513 Mg512 1.915 . S
O513 Mg514 1.936 . S
O513 Mg515 1.963 . S
Mg514 O513 1.936 . S
Mg514 O523 2.291 . S
Mg514 O528 2.081 . S
Mg514 O530 2.023 . S
Mg514 O534 2.031 . S
Mg515 O513 1.963 . S
Mg515 O519 1.986 . S
Mg515 O531 1.942 . S
Mg515 O532 1.955 . S
C516 O527 1.191 . S
C516 O529 1.307 . S
O517 Mg512 2.013 . S
O517 C536 1.191 . S
O518 Mg509 2.081 . S
O518 C526 1.331 . S
O519 Mg515 1.986 . S
O519 C536 1.307 . S
O520 Mg509 2.023 . S
O520 C535 1.264 . S
O521 Mg510 1.942 . S
O521 C526 1.244 . S
O522 Mg510 1.955 . S
O522 C535 1.273 . S
O523 Mg512 2.114 . S
O523 Mg514 2.291 . S
O523 C525 1.312 . S
O524 Mg509 2.031 . S
O524 C525 1.208 . S
C525 O523 1.312 . S
C525 O524 1.208 . S
C526 O518 1.331 . S
C526 O521 1.244 . S
O527 Mg512 2.013 . S
O527 C516 1.191 . S
O528 C507 1.331 . S
O528 Mg514 2.081 . S
O529 Mg510 1.986 . S
O529 C516 1.307 . S
O530 C508 1.264 . S
O530 Mg514 2.023 . S
O531 C507 1.244 . S
O531 Mg515 1.942 . S
O532 C508 1.273 . S
O532 Mg515 1.955 . S
O533 C506 1.312 . S
O533 Mg509 2.291 . S
O533 Mg512 2.114 . S
O534 C506 1.208 . S
O534 Mg514 2.031 . S
C535 O520 1.264 . S
C535 O522 1.273 . S
C536 O517 1.191 . S
C536 O519 1.307 . S
C537 C538 1.391 . S
C537 C539 1.394 . S
C537 H553 0.931 . S
C538 C537 1.391 . S
C538 C542 1.376 . S
C539 C537 1.394 . S
C539 C540 1.369 . S
C539 C543 1.531 . S
C540 C539 1.369 . S
C540 C541 1.410 . S
C540 C548 1.503 . S
C541 C540 1.410 . S
C541 C542 1.392 . S
C541 C544 1.511 . S
C542 C538 1.376 . S
C542 C541 1.392 . S
C542 H554 0.929 . S
C543 C539 1.531 . S
C543 H555 0.960 . S
C543 H556 0.962 . S
C543 H557 0.960 . S
C544 C541 1.511 . S
C544 H558 0.961 . S
C544 H559 0.961 . S
C544 H560 0.961 . S
C545 C546 1.370 . S
C545 C547 1.363 . S
C545 H561 0.931 . S
C546 C545 1.370 . S
C546 C550 1.408 . S
C547 C545 1.363 . S
C547 C548 1.370 . S
C547 C551 1.524 . S
C548 C540 1.503 . S
C548 C547 1.370 . S
C548 C549 1.403 . S
C549 C548 1.403 . S
C549 C550 1.404 . S
C549 C552 1.539 . S
C550 C546 1.408 . S
C550 C549 1.404 . S
C550 H562 0.930 . S
C551 C547 1.524 . S
C551 H563 0.956 . S
C551 H564 0.961 . S
C551 H565 0.961 . S
C552 C549 1.539 . S
C552 H566 0.958 . S
C552 H567 0.961 . S
C552 H568 0.960 . S
H553 C537 0.931 . S
H554 C542 0.929 . S
H555 C543 0.960 . S
H556 C543 0.962 . S
H557 C543 0.960 . S
H558 C544 0.961 . S
H559 C544 0.961 . S
H560 C544 0.961 . S
H561 C545 0.931 . S
H562 C550 0.930 . S
H563 C551 0.956 . S
H564 C551 0.961 . S
H565 C551 0.961 . S
H566 C552 0.958 . S
H567 C552 0.961 . S
H568 C552 0.960 . S
C569 C570 1.391 . S
C569 C571 1.394 . S
C569 H585 0.931 . S
C570 C569 1.391 . S
C570 C574 1.376 . S
C571 C569 1.394 . S
C571 C572 1.369 . S
C571 C575 1.531 . S
C572 C571 1.369 . S
C572 C573 1.410 . S
C572 C580 1.503 . S
C573 C572 1.410 . S
C573 C574 1.392 . S
C573 C576 1.511 . S
C574 C570 1.376 . S
C574 C573 1.392 . S
C574 H586 0.929 . S
C575 C571 1.531 . S
C575 H587 0.960 . S
C575 H588 0.962 . S
C575 H589 0.960 . S
C576 C573 1.511 . S
C576 H590 0.961 . S
C576 H591 0.961 . S
C576 H592 0.961 . S
C577 C578 1.370 . S
C577 C579 1.363 . S
C577 H593 0.931 . S
C578 C577 1.370 . S
C578 C582 1.408 . S
C579 C577 1.363 . S
C579 C580 1.370 . S
C579 C583 1.524 . S
C580 C572 1.503 . S
C580 C579 1.370 . S
C580 C581 1.403 . S
C581 C580 1.403 . S
C581 C582 1.404 . S
C581 C584 1.539 . S
C582 C578 1.408 . S
C582 C581 1.404 . S
C582 H594 0.930 . S
C583 C579 1.524 . S
C583 H595 0.956 . S
C583 H596 0.961 . S
C583 H597 0.961 . S
C584 C581 1.539 . S
C584 H598 0.958 . S
C584 H599 0.961 . S
C584 H600 0.960 . S
H585 C569 0.931 . S
H586 C574 0.929 . S
H587 C575 0.960 . S
H588 C575 0.962 . S
H589 C575 0.960 . S
H590 C576 0.961 . S
H591 C576 0.961 . S
H592 C576 0.961 . S
H593 C577 0.931 . S
H594 C582 0.930 . S
H595 C583 0.956 . S
H596 C583 0.961 . S
H597 C583 0.961 . S
H598 C584 0.958 . S
H599 C584 0.961 . S
H600 C584 0.960 . S
C601 C602 1.391 . S
C601 C603 1.394 . S
C601 H617 0.931 . S
C602 C601 1.391 . S
C602 C606 1.376 . S
C603 C601 1.394 . S
C603 C604 1.369 . S
C603 C607 1.531 . S
C604 C603 1.369 . S
C604 C605 1.410 . S
C604 C612 1.503 . S
C605 C604 1.410 . S
C605 C606 1.392 . S
C605 C608 1.511 . S
C606 C602 1.376 . S
C606 C605 1.392 . S
C606 H618 0.929 . S
C607 C603 1.531 . S
C607 H619 0.960 . S
C607 H620 0.962 . S
C607 H621 0.960 . S
C608 C605 1.511 . S
C608 H622 0.961 . S
C608 H623 0.961 . S
C608 H624 0.961 . S
C609 C610 1.370 . S
C609 C611 1.363 . S
C609 H625 0.931 . S
C610 C609 1.370 . S
C610 C614 1.408 . S
C611 C609 1.363 . S
C611 C612 1.370 . S
C611 C615 1.524 . S
C612 C604 1.503 . S
C612 C611 1.370 . S
C612 C613 1.403 . S
C613 C612 1.403 . S
C613 C614 1.404 . S
C613 C616 1.539 . S
C614 C610 1.408 . S
C614 C613 1.404 . S
C614 H626 0.930 . S
C615 C611 1.524 . S
C615 H627 0.956 . S
C615 H628 0.961 . S
C615 H629 0.961 . S
C616 C613 1.539 . S
C616 H630 0.958 . S
C616 H631 0.961 . S
C616 H632 0.960 . S
H617 C601 0.931 . S
H618 C606 0.929 . S
H619 C607 0.960 . S
H620 C607 0.962 . S
H621 C607 0.960 . S
H622 C608 0.961 . S
H623 C608 0.961 . S
H624 C608 0.961 . S
H625 C609 0.931 . S
H626 C614 0.930 . S
H627 C615 0.956 . S
H628 C615 0.961 . S
H629 C615 0.961 . S
H630 C616 0.958 . S
H631 C616 0.961 . S
H632 C616 0.960 . S
C633 C634 1.391 . S
C633 C635 1.394 . S
C633 H649 0.931 . S
C634 C633 1.391 . S
C634 C638 1.376 . S
C635 C633 1.394 . S
C635 C636 1.369 . S
C635 C639 1.531 . S
C636 C635 1.369 . S
C636 C637 1.410 . S
C636 C644 1.503 . S
C637 C636 1.410 . S
C637 C638 1.392 . S
C637 C640 1.511 . S
C638 C634 1.376 . S
C638 C637 1.392 . S
C638 H650 0.929 . S
C639 C635 1.531 . S
C639 H651 0.960 . S
C639 H652 0.962 . S
C639 H653 0.960 . S
C640 C637 1.511 . S
C640 H654 0.961 . S
C640 H655 0.961 . S
C640 H656 0.961 . S
C641 C642 1.370 . S
C641 C643 1.363 . S
C641 H657 0.931 . S
C642 C641 1.370 . S
C642 C646 1.408 . S
C643 C641 1.363 . S
C643 C644 1.370 . S
C643 C647 1.524 . S
C644 C636 1.503 . S
C644 C643 1.370 . S
C644 C645 1.403 . S
C645 C644 1.403 . S
C645 C646 1.404 . S
C645 C648 1.539 . S
C646 C642 1.408 . S
C646 C645 1.404 . S
C646 H658 0.930 . S
C647 C643 1.524 . S
C647 H659 0.956 . S
C647 H660 0.961 . S
C647 H661 0.961 . S
C648 C645 1.539 . S
C648 H662 0.958 . S
C648 H663 0.961 . S
C648 H664 0.960 . S
H649 C633 0.931 . S
H650 C638 0.929 . S
H651 C639 0.960 . S
H652 C639 0.962 . S
H653 C639 0.960 . S
H654 C640 0.961 . S
H655 C640 0.961 . S
H656 C640 0.961 . S
H657 C641 0.931 . S
H658 C646 0.930 . S
H659 C647 0.956 . S
H660 C647 0.961 . S
H661 C647 0.961 . S
H662 C648 0.958 . S
H663 C648 0.961 . S
H664 C648 0.960 . S
C665 C666 1.391 . S
C665 C667 1.394 . S
C665 H681 0.931 . S
C666 C665 1.391 . S
C666 C670 1.376 . S
C667 C665 1.394 . S
C667 C668 1.369 . S
C667 C671 1.531 . S
C668 C667 1.369 . S
C668 C669 1.410 . S
C668 C676 1.503 . S
C669 C668 1.410 . S
C669 C670 1.392 . S
C669 C672 1.511 . S
C670 C666 1.376 . S
C670 C669 1.392 . S
C670 H682 0.929 . S
C671 C667 1.531 . S
C671 H683 0.960 . S
C671 H684 0.962 . S
C671 H685 0.960 . S
C672 C669 1.511 . S
C672 H686 0.961 . S
C672 H687 0.961 . S
C672 H688 0.961 . S
C673 C674 1.370 . S
C673 C675 1.363 . S
C673 H689 0.931 . S
C674 C673 1.370 . S
C674 C678 1.408 . S
C675 C673 1.363 . S
C675 C676 1.370 . S
C675 C679 1.524 . S
C676 C668 1.503 . S
C676 C675 1.370 . S
C676 C677 1.403 . S
C677 C676 1.403 . S
C677 C678 1.404 . S
C677 C680 1.539 . S
C678 C674 1.408 . S
C678 C677 1.404 . S
C678 H690 0.930 . S
C679 C675 1.524 . S
C679 H691 0.956 . S
C679 H692 0.961 . S
C679 H693 0.961 . S
C680 C677 1.539 . S
C680 H694 0.958 . S
C680 H695 0.961 . S
C680 H696 0.960 . S
H681 C665 0.931 . S
H682 C670 0.929 . S
H683 C671 0.960 . S
H684 C671 0.962 . S
H685 C671 0.960 . S
H686 C672 0.961 . S
H687 C672 0.961 . S
H688 C672 0.961 . S
H689 C673 0.931 . S
H690 C678 0.930 . S
H691 C679 0.956 . S
H692 C679 0.961 . S
H693 C679 0.961 . S
H694 C680 0.958 . S
H695 C680 0.961 . S
H696 C680 0.960 . S
C697 C698 1.391 . S
C697 C699 1.394 . S
C697 H713 0.931 . S
C698 C697 1.391 . S
C698 C702 1.376 . S
C699 C697 1.394 . S
C699 C700 1.369 . S
C699 C703 1.531 . S
C700 C699 1.369 . S
C700 C701 1.410 . S
C700 C708 1.503 . S
C701 C700 1.410 . S
C701 C702 1.392 . S
C701 C704 1.511 . S
C702 C698 1.376 . S
C702 C701 1.392 . S
C702 H714 0.929 . S
C703 C699 1.531 . S
C703 H715 0.960 . S
C703 H716 0.962 . S
C703 H717 0.960 . S
C704 C701 1.511 . S
C704 H718 0.961 . S
C704 H719 0.961 . S
C704 H720 0.961 . S
C705 C706 1.370 . S
C705 C707 1.363 . S
C705 H721 0.931 . S
C706 C705 1.370 . S
C706 C710 1.408 . S
C707 C705 1.363 . S
C707 C708 1.370 . S
C707 C711 1.524 . S
C708 C700 1.503 . S
C708 C707 1.370 . S
C708 C709 1.403 . S
C709 C708 1.403 . S
C709 C710 1.404 . S
C709 C712 1.539 . S
C710 C706 1.408 . S
C710 C709 1.404 . S
C710 H722 0.930 . S
C711 C707 1.524 . S
C711 H723 0.956 . S
C711 H724 0.961 . S
C711 H725 0.961 . S
C712 C709 1.539 . S
C712 H726 0.958 . S
C712 H727 0.961 . S
C712 H728 0.960 . S
H713 C697 0.931 . S
H714 C702 0.929 . S
H715 C703 0.960 . S
H716 C703 0.962 . S
H717 C703 0.960 . S
H718 C704 0.961 . S
H719 C704 0.961 . S
H720 C704 0.961 . S
H721 C705 0.931 . S
H722 C710 0.930 . S
H723 C711 0.956 . S
H724 C711 0.961 . S
H725 C711 0.961 . S
H726 C712 0.958 . S
H727 C712 0.961 . S
H728 C712 0.960 . S
C729 C730 1.391 . S
C729 C731 1.394 . S
C729 H745 0.931 . S
C730 C729 1.391 . S
C730 C734 1.376 . S
C731 C729 1.394 . S
C731 C732 1.369 . S
C731 C735 1.531 . S
C732 C731 1.369 . S
C732 C733 1.410 . S
C732 C740 1.503 . S
C733 C732 1.410 . S
C733 C734 1.392 . S
C733 C736 1.511 . S
C734 C730 1.376 . S
C734 C733 1.392 . S
C734 H746 0.929 . S
C735 C731 1.531 . S
C735 H747 0.960 . S
C735 H748 0.962 . S
C735 H749 0.960 . S
C736 C733 1.511 . S
C736 H750 0.961 . S
C736 H751 0.961 . S
C736 H752 0.961 . S
C737 C738 1.370 . S
C737 C739 1.363 . S
C737 H753 0.931 . S
C738 C737 1.370 . S
C738 C742 1.408 . S
C739 C737 1.363 . S
C739 C740 1.370 . S
C739 C743 1.524 . S
C740 C732 1.503 . S
C740 C739 1.370 . S
C740 C741 1.403 . S
C741 C740 1.403 . S
C741 C742 1.404 . S
C741 C744 1.539 . S
C742 C738 1.408 . S
C742 C741 1.404 . S
C742 H754 0.930 . S
C743 C739 1.524 . S
C743 H755 0.956 . S
C743 H756 0.961 . S
C743 H757 0.961 . S
C744 C741 1.539 . S
C744 H758 0.958 . S
C744 H759 0.961 . S
C744 H760 0.960 . S
H745 C729 0.931 . S
H746 C734 0.929 . S
H747 C735 0.960 . S
H748 C735 0.962 . S
H749 C735 0.960 . S
H750 C736 0.961 . S
H751 C736 0.961 . S
H752 C736 0.961 . S
H753 C737 0.931 . S
H754 C742 0.930 . S
H755 C743 0.956 . S
H756 C743 0.961 . S
H757 C743 0.961 . S
H758 C744 0.958 . S
H759 C744 0.961 . S
H760 C744 0.960 . S
C761 C762 1.391 . S
C761 C763 1.394 . S
C761 H777 0.931 . S
C762 C761 1.391 . S
C762 C766 1.376 . S
C763 C761 1.394 . S
C763 C764 1.369 . S
C763 C767 1.531 . S
C764 C763 1.369 . S
C764 C765 1.410 . S
C764 C772 1.503 . S
C765 C764 1.410 . S
C765 C766 1.392 . S
C765 C768 1.511 . S
C766 C762 1.376 . S
C766 C765 1.392 . S
C766 H778 0.929 . S
C767 C763 1.531 . S
C767 H779 0.960 . S
C767 H780 0.962 . S
C767 H781 0.960 . S
C768 C765 1.511 . S
C768 H782 0.961 . S
C768 H783 0.961 . S
C768 H784 0.961 . S
C769 C770 1.370 . S
C769 C771 1.363 . S
C769 H785 0.931 . S
C770 C769 1.370 . S
C770 C774 1.408 . S
C771 C769 1.363 . S
C771 C772 1.370 . S
C771 C775 1.524 . S
C772 C764 1.503 . S
C772 C771 1.370 . S
C772 C773 1.403 . S
C773 C772 1.403 . S
C773 C774 1.404 . S
C773 C776 1.539 . S
C774 C770 1.408 . S
C774 C773 1.404 . S
C774 H786 0.930 . S
C775 C771 1.524 . S
C775 H787 0.956 . S
C775 H788 0.961 . S
C775 H789 0.961 . S
C776 C773 1.539 . S
C776 H790 0.958 . S
C776 H791 0.961 . S
C776 H792 0.960 . S
H777 C761 0.931 . S
H778 C766 0.929 . S
H779 C767 0.960 . S
H780 C767 0.962 . S
H781 C767 0.960 . S
H782 C768 0.961 . S
H783 C768 0.961 . S
H784 C768 0.961 . S
H785 C769 0.931 . S
H786 C774 0.930 . S
H787 C775 0.956 . S
H788 C775 0.961 . S
H789 C775 0.961 . S
H790 C776 0.958 . S
H791 C776 0.961 . S
H792 C776 0.960 . S
C793 C794 1.391 . S
C793 C795 1.394 . S
C793 H809 0.931 . S
C794 C793 1.391 . S
C794 C798 1.376 . S
C795 C793 1.394 . S
C795 C796 1.369 . S
C795 C799 1.531 . S
C796 C795 1.369 . S
C796 C797 1.410 . S
C796 C804 1.503 . S
C797 C796 1.410 . S
C797 C798 1.392 . S
C797 C800 1.511 . S
C798 C794 1.376 . S
C798 C797 1.392 . S
C798 H810 0.929 . S
C799 C795 1.531 . S
C799 H811 0.960 . S
C799 H812 0.962 . S
C799 H813 0.960 . S
C800 C797 1.511 . S
C800 H814 0.961 . S
C800 H815 0.961 . S
C800 H816 0.961 . S
C801 C802 1.370 . S
C801 C803 1.363 . S
C801 H817 0.931 . S
C802 C801 1.370 . S
C802 C806 1.408 . S
C803 C801 1.363 . S
C803 C804 1.370 . S
C803 C807 1.524 . S
C804 C796 1.503 . S
C804 C803 1.370 . S
C804 C805 1.403 . S
C805 C804 1.403 . S
C805 C806 1.404 . S
C805 C808 1.539 . S
C806 C802 1.408 . S
C806 C805 1.404 . S
C806 H818 0.930 . S
C807 C803 1.524 . S
C807 H819 0.956 . S
C807 H820 0.961 . S
C807 H821 0.961 . S
C808 C805 1.539 . S
C808 H822 0.958 . S
C808 H823 0.961 . S
C808 H824 0.960 . S
H809 C793 0.931 . S
H810 C798 0.929 . S
H811 C799 0.960 . S
H812 C799 0.962 . S
H813 C799 0.960 . S
H814 C800 0.961 . S
H815 C800 0.961 . S
H816 C800 0.961 . S
H817 C801 0.931 . S
H818 C806 0.930 . S
H819 C807 0.956 . S
H820 C807 0.961 . S
H821 C807 0.961 . S
H822 C808 0.958 . S
H823 C808 0.961 . S
H824 C808 0.960 . S
C825 C826 1.391 . S
C825 C827 1.394 . S
C825 H841 0.931 . S
C826 C825 1.391 . S
C826 C830 1.376 . S
C827 C825 1.394 . S
C827 C828 1.369 . S
C827 C831 1.531 . S
C828 C827 1.369 . S
C828 C829 1.410 . S
C828 C836 1.503 . S
C829 C828 1.410 . S
C829 C830 1.392 . S
C829 C832 1.511 . S
C830 C826 1.376 . S
C830 C829 1.392 . S
C830 H842 0.929 . S
C831 C827 1.531 . S
C831 H843 0.960 . S
C831 H844 0.962 . S
C831 H845 0.960 . S
C832 C829 1.511 . S
C832 H846 0.961 . S
C832 H847 0.961 . S
C832 H848 0.961 . S
C833 C834 1.370 . S
C833 C835 1.363 . S
C833 H849 0.931 . S
C834 C833 1.370 . S
C834 C838 1.408 . S
C835 C833 1.363 . S
C835 C836 1.370 . S
C835 C839 1.524 . S
C836 C828 1.503 . S
C836 C835 1.370 . S
C836 C837 1.403 . S
C837 C836 1.403 . S
C837 C838 1.404 . S
C837 C840 1.539 . S
C838 C834 1.408 . S
C838 C837 1.404 . S
C838 H850 0.930 . S
C839 C835 1.524 . S
C839 H851 0.956 . S
C839 H852 0.961 . S
C839 H853 0.961 . S
C840 C837 1.539 . S
C840 H854 0.958 . S
C840 H855 0.961 . S
C840 H856 0.960 . S
H841 C825 0.931 . S
H842 C830 0.929 . S
H843 C831 0.960 . S
H844 C831 0.962 . S
H845 C831 0.960 . S
H846 C832 0.961 . S
H847 C832 0.961 . S
H848 C832 0.961 . S
H849 C833 0.931 . S
H850 C838 0.930 . S
H851 C839 0.956 . S
H852 C839 0.961 . S
H853 C839 0.961 . S
H854 C840 0.958 . S
H855 C840 0.961 . S
H856 C840 0.960 . S
C857 C858 1.391 . S
C857 C859 1.394 . S
C857 H873 0.931 . S
C858 C857 1.391 . S
C858 C862 1.376 . S
C859 C857 1.394 . S
C859 C860 1.369 . S
C859 C863 1.531 . S
C860 C859 1.369 . S
C860 C861 1.410 . S
C860 C868 1.503 . S
C861 C860 1.410 . S
C861 C862 1.392 . S
C861 C864 1.511 . S
C862 C858 1.376 . S
C862 C861 1.392 . S
C862 H874 0.929 . S
C863 C859 1.531 . S
C863 H875 0.960 . S
C863 H876 0.962 . S
C863 H877 0.960 . S
C864 C861 1.511 . S
C864 H878 0.961 . S
C864 H879 0.961 . S
C864 H880 0.961 . S
C865 C866 1.370 . S
C865 C867 1.363 . S
C865 H881 0.931 . S
C866 C865 1.370 . S
C866 C870 1.408 . S
C867 C865 1.363 . S
C867 C868 1.370 . S
C867 C871 1.524 . S
C868 C860 1.503 . S
C868 C867 1.370 . S
C868 C869 1.403 . S
C869 C868 1.403 . S
C869 C870 1.404 . S
C869 C872 1.539 . S
C870 C866 1.408 . S
C870 C869 1.404 . S
C870 H882 0.930 . S
C871 C867 1.524 . S
C871 H883 0.956 . S
C871 H884 0.961 . S
C871 H885 0.961 . S
C872 C869 1.539 . S
C872 H886 0.958 . S
C872 H887 0.961 . S
C872 H888 0.960 . S
H873 C857 0.931 . S
H874 C862 0.929 . S
H875 C863 0.960 . S
H876 C863 0.962 . S
H877 C863 0.960 . S
H878 C864 0.961 . S
H879 C864 0.961 . S
H880 C864 0.961 . S
H881 C865 0.931 . S
H882 C870 0.930 . S
H883 C871 0.956 . S
H884 C871 0.961 . S
H885 C871 0.961 . S
H886 C872 0.958 . S
H887 C872 0.961 . S
H888 C872 0.960 . S
C889 C890 1.391 . S
C889 C891 1.394 . S
C889 H905 0.931 . S
C890 C889 1.391 . S
C890 C894 1.376 . S
C891 C889 1.394 . S
C891 C892 1.369 . S
C891 C895 1.531 . S
C892 C891 1.369 . S
C892 C893 1.410 . S
C892 C900 1.503 . S
C893 C892 1.410 . S
C893 C894 1.392 . S
C893 C896 1.511 . S
C894 C890 1.376 . S
C894 C893 1.392 . S
C894 H906 0.929 . S
C895 C891 1.531 . S
C895 H907 0.960 . S
C895 H908 0.962 . S
C895 H909 0.960 . S
C896 C893 1.511 . S
C896 H910 0.961 . S
C896 H911 0.961 . S
C896 H912 0.961 . S
C897 C898 1.370 . S
C897 C899 1.363 . S
C897 H913 0.931 . S
C898 C897 1.370 . S
C898 C902 1.408 . S
C899 C897 1.363 . S
C899 C900 1.370 . S
C899 C903 1.524 . S
C900 C892 1.503 . S
C900 C899 1.370 . S
C900 C901 1.403 . S
C901 C900 1.403 . S
C901 C902 1.404 . S
C901 C904 1.539 . S
C902 C898 1.408 . S
C902 C901 1.404 . S
C902 H914 0.930 . S
C903 C899 1.524 . S
C903 H915 0.956 . S
C903 H916 0.961 . S
C903 H917 0.961 . S
C904 C901 1.539 . S
C904 H918 0.958 . S
C904 H919 0.961 . S
C904 H920 0.960 . S
H905 C889 0.931 . S
H906 C894 0.929 . S
H907 C895 0.960 . S
H908 C895 0.962 . S
H909 C895 0.960 . S
H910 C896 0.961 . S
H911 C896 0.961 . S
H912 C896 0.961 . S
H913 C897 0.931 . S
H914 C902 0.930 . S
H915 C903 0.956 . S
H916 C903 0.961 . S
H917 C903 0.961 . S
H918 C904 0.958 . S
H919 C904 0.961 . S
H920 C904 0.960 . S
C921 C922 1.391 . S
C921 C923 1.394 . S
C921 H937 0.931 . S
C922 C921 1.391 . S
C922 C926 1.376 . S
C923 C921 1.394 . S
C923 C924 1.369 . S
C923 C927 1.531 . S
C924 C923 1.369 . S
C924 C925 1.410 . S
C924 C932 1.503 . S
C925 C924 1.410 . S
C925 C926 1.392 . S
C925 C928 1.511 . S
C926 C922 1.376 . S
C926 C925 1.392 . S
C926 H938 0.929 . S
C927 C923 1.531 . S
C927 H939 0.960 . S
C927 H940 0.962 . S
C927 H941 0.960 . S
C928 C925 1.511 . S
C928 H942 0.961 . S
C928 H943 0.961 . S
C928 H944 0.961 . S
C929 C930 1.370 . S
C929 C931 1.363 . S
C929 H945 0.931 . S
C930 C929 1.370 . S
C930 C934 1.408 . S
C931 C929 1.363 . S
C931 C932 1.370 . S
C931 C935 1.524 . S
C932 C924 1.503 . S
C932 C931 1.370 . S
C932 C933 1.403 . S
C933 C932 1.403 . S
C933 C934 1.404 . S
C933 C936 1.539 . S
C934 C930 1.408 . S
C934 C933 1.404 . S
C934 H946 0.930 . S
C935 C931 1.524 . S
C935 H947 0.956 . S
C935 H948 0.961 . S
C935 H949 0.961 . S
C936 C933 1.539 . S
C936 H950 0.958 . S
C936 H951 0.961 . S
C936 H952 0.960 . S
H937 C921 0.931 . S
H938 C926 0.929 . S
H939 C927 0.960 . S
H940 C927 0.962 . S
H941 C927 0.960 . S
H942 C928 0.961 . S
H943 C928 0.961 . S
H944 C928 0.961 . S
H945 C929 0.931 . S
H946 C934 0.930 . S
H947 C935 0.956 . S
H948 C935 0.961 . S
H949 C935 0.961 . S
H950 C936 0.958 . S
H951 C936 0.961 . S
H952 C936 0.960 . S
C953 C954 1.391 . S
C953 C955 1.394 . S
C953 H969 0.931 . S
C954 C953 1.391 . S
C954 C958 1.376 . S
C955 C953 1.394 . S
C955 C956 1.369 . S
C955 C959 1.531 . S
C956 C955 1.369 . S
C956 C957 1.410 . S
C956 C964 1.503 . S
C957 C956 1.410 . S
C957 C958 1.392 . S
C957 C960 1.511 . S
C958 C954 1.376 . S
C958 C957 1.392 . S
C958 H970 0.929 . S
C959 C955 1.531 . S
C959 H971 0.960 . S
C959 H972 0.962 . S
C959 H973 0.960 . S
C960 C957 1.511 . S
C960 H974 0.961 . S
C960 H975 0.961 . S
C960 H976 0.961 . S
C961 C962 1.370 . S
C961 C963 1.363 . S
C961 H977 0.931 . S
C962 C961 1.370 . S
C962 C966 1.408 . S
C963 C961 1.363 . S
C963 C964 1.370 . S
C963 C967 1.524 . S
C964 C956 1.503 . S
C964 C963 1.370 . S
C964 C965 1.403 . S
C965 C964 1.403 . S
C965 C966 1.404 . S
C965 C968 1.539 . S
C966 C962 1.408 . S
C966 C965 1.404 . S
C966 H978 0.930 . S
C967 C963 1.524 . S
C967 H979 0.956 . S
C967 H980 0.961 . S
C967 H981 0.961 . S
C968 C965 1.539 . S
C968 H982 0.958 . S
C968 H983 0.961 . S
C968 H984 0.960 . S
H969 C953 0.931 . S
H970 C958 0.929 . S
H971 C959 0.960 . S
H972 C959 0.962 . S
H973 C959 0.960 . S
H974 C960 0.961 . S
H975 C960 0.961 . S
H976 C960 0.961 . S
H977 C961 0.931 . S
H978 C966 0.930 . S
H979 C967 0.956 . S
H980 C967 0.961 . S
H981 C967 0.961 . S
H982 C968 0.958 . S
H983 C968 0.961 . S
H984 C968 0.960 . S
C985 C986 1.391 1_556 S
C985 C987 1.394 . S
C985 H1001 0.931 . S
C986 C985 1.391 1_554 S
C986 C990 1.376 . S
C987 C985 1.394 . S
C987 C988 1.369 . S
C987 C991 1.531 . S
C988 C987 1.369 . S
C988 C989 1.410 . S
C988 C996 1.503 . S
C989 C988 1.410 . S
C989 C990 1.392 1_556 S
C989 C992 1.511 . S
C990 C986 1.376 . S
C990 C989 1.392 1_554 S
C990 H1002 0.929 . S
C991 C987 1.531 . S
C991 H1003 0.960 . S
C991 H1004 0.962 . S
C991 H1005 0.960 . S
C992 C989 1.511 . S
C992 H1006 0.961 1_556 S
C992 H1007 0.961 . S
C992 H1008 0.961 . S
C993 C994 1.370 . S
C993 C995 1.363 . S
C993 H1009 0.931 . S
C994 C993 1.370 . S
C994 C998 1.408 . S
C995 C993 1.363 . S
C995 C996 1.370 . S
C995 C999 1.524 . S
C996 C988 1.503 . S
C996 C995 1.370 . S
C996 C997 1.403 . S
C997 C996 1.403 . S
C997 C998 1.404 . S
C997 C1000 1.539 . S
C998 C994 1.408 . S
C998 C997 1.404 . S
C998 H1010 0.930 . S
C999 C995 1.524 . S
C999 H1011 0.956 . S
C999 H1012 0.961 . S
C999 H1013 0.961 . S
C1000 C997 1.539 . S
C1000 H1014 0.958 . S
C1000 H1015 0.961 . S
C1000 H1016 0.960 . S
H1001 C985 0.931 . S
H1002 C990 0.929 . S
H1003 C991 0.960 . S
H1004 C991 0.962 . S
H1005 C991 0.960 . S
H1006 C992 0.961 1_554 S
H1007 C992 0.961 . S
H1008 C992 0.961 . S
H1009 C993 0.931 . S
H1010 C998 0.930 . S
H1011 C999 0.956 . S
H1012 C999 0.961 . S
H1013 C999 0.961 . S
H1014 C1000 0.958 . S
H1015 C1000 0.961 . S
H1016 C1000 0.960 . S
C1017 C1018 1.391 . S
C1017 C1019 1.394 . S
C1017 H1033 0.931 1_556 S
C1018 C1017 1.391 . S
C1018 C1022 1.376 . S
C1019 C1017 1.394 . S
C1019 C1020 1.369 . S
C1019 C1023 1.531 . S
C1020 C1019 1.369 . S
C1020 C1021 1.410 . S
C1020 C1028 1.503 . S
C1021 C1020 1.410 . S
C1021 C1022 1.392 . S
C1021 C1024 1.511 . S
C1022 C1018 1.376 . S
C1022 C1021 1.392 . S
C1022 H1034 0.929 . S
C1023 C1019 1.531 . S
C1023 H1035 0.960 . S
C1023 H1036 0.962 . S
C1023 H1037 0.960 . S
C1024 C1021 1.511 . S
C1024 H1038 0.961 . S
C1024 H1039 0.961 . S
C1024 H1040 0.961 . S
C1025 C1026 1.370 . S
C1025 C1027 1.363 . S
C1025 H1041 0.931 . S
C1026 C1025 1.370 . S
C1026 C1030 1.408 . S
C1027 C1025 1.363 . S
C1027 C1028 1.370 . S
C1027 C1031 1.524 . S
C1028 C1020 1.503 . S
C1028 C1027 1.370 . S
C1028 C1029 1.403 . S
C1029 C1028 1.403 . S
C1029 C1030 1.404 . S
C1029 C1032 1.539 . S
C1030 C1026 1.408 . S
C1030 C1029 1.404 . S
C1030 H1042 0.930 . S
C1031 C1027 1.524 . S
C1031 H1043 0.956 . S
C1031 H1044 0.961 . S
C1031 H1045 0.961 . S
C1032 C1029 1.539 . S
C1032 H1046 0.958 . S
C1032 H1047 0.961 . S
C1032 H1048 0.960 . S
H1033 C1017 0.931 1_554 S
H1034 C1022 0.929 . S
H1035 C1023 0.960 . S
H1036 C1023 0.962 . S
H1037 C1023 0.960 . S
H1038 C1024 0.961 . S
H1039 C1024 0.961 . S
H1040 C1024 0.961 . S
H1041 C1025 0.931 . S
H1042 C1030 0.930 . S
H1043 C1031 0.956 . S
H1044 C1031 0.961 . S
H1045 C1031 0.961 . S
H1046 C1032 0.958 . S
H1047 C1032 0.961 . S
H1048 C1032 0.960 . S
C1049 C1050 1.391 . S
C1049 C1051 1.394 . S
C1049 H1065 0.931 . S
C1050 C1049 1.391 . S
C1050 C1054 1.376 . S
C1051 C1049 1.394 . S
C1051 C1052 1.369 . S
C1051 C1055 1.531 . S
C1052 C1051 1.369 . S
C1052 C1053 1.410 . S
C1052 C1060 1.503 . S
C1053 C1052 1.410 . S
C1053 C1054 1.392 . S
C1053 C1056 1.511 . S
C1054 C1050 1.376 . S
C1054 C1053 1.392 . S
C1054 H1066 0.929 . S
C1055 C1051 1.531 . S
C1055 H1067 0.960 . S
C1055 H1068 0.962 . S
C1055 H1069 0.960 . S
C1056 C1053 1.511 . S
C1056 H1070 0.961 . S
C1056 H1071 0.961 . S
C1056 H1072 0.961 . S
C1057 C1058 1.370 . S
C1057 C1059 1.363 . S
C1057 H1073 0.931 . S
C1058 C1057 1.370 . S
C1058 C1062 1.408 . S
C1059 C1057 1.363 . S
C1059 C1060 1.370 . S
C1059 C1063 1.524 . S
C1060 C1052 1.503 . S
C1060 C1059 1.370 . S
C1060 C1061 1.403 . S
C1061 C1060 1.403 . S
C1061 C1062 1.404 . S
C1061 C1064 1.539 . S
C1062 C1058 1.408 . S
C1062 C1061 1.404 . S
C1062 H1074 0.930 . S
C1063 C1059 1.524 . S
C1063 H1075 0.956 . S
C1063 H1076 0.961 . S
C1063 H1077 0.961 . S
C1064 C1061 1.539 . S
C1064 H1078 0.958 . S
C1064 H1079 0.961 . S
C1064 H1080 0.960 . S
H1065 C1049 0.931 . S
H1066 C1054 0.929 . S
H1067 C1055 0.960 . S
H1068 C1055 0.962 . S
H1069 C1055 0.960 . S
H1070 C1056 0.961 . S
H1071 C1056 0.961 . S
H1072 C1056 0.961 . S
H1073 C1057 0.931 . S
H1074 C1062 0.930 . S
H1075 C1063 0.956 . S
H1076 C1063 0.961 . S
H1077 C1063 0.961 . S
H1078 C1064 0.958 . S
H1079 C1064 0.961 . S
H1080 C1064 0.960 . S
C1081 C1082 1.391 . S
C1081 C1083 1.394 . S
C1081 H1097 0.931 . S
C1082 C1081 1.391 . S
C1082 C1086 1.376 . S
C1083 C1081 1.394 . S
C1083 C1084 1.369 . S
C1083 C1087 1.531 . S
C1084 C1083 1.369 . S
C1084 C1085 1.410 . S
C1084 C1092 1.503 . S
C1085 C1084 1.410 . S
C1085 C1086 1.392 . S
C1085 C1088 1.511 . S
C1086 C1082 1.376 . S
C1086 C1085 1.392 . S
C1086 H1098 0.929 . S
C1087 C1083 1.531 . S
C1087 H1099 0.960 . S
C1087 H1100 0.962 . S
C1087 H1101 0.960 . S
C1088 C1085 1.511 . S
C1088 H1102 0.961 . S
C1088 H1103 0.961 . S
C1088 H1104 0.961 . S
C1089 C1090 1.370 . S
C1089 C1091 1.363 . S
C1089 H1105 0.931 . S
C1090 C1089 1.370 . S
C1090 C1094 1.408 . S
C1091 C1089 1.363 . S
C1091 C1092 1.370 . S
C1091 C1095 1.524 . S
C1092 C1084 1.503 . S
C1092 C1091 1.370 . S
C1092 C1093 1.403 . S
C1093 C1092 1.403 . S
C1093 C1094 1.404 . S
C1093 C1096 1.539 . S
C1094 C1090 1.408 . S
C1094 C1093 1.404 . S
C1094 H1106 0.930 . S
C1095 C1091 1.524 . S
C1095 H1107 0.956 . S
C1095 H1108 0.961 . S
C1095 H1109 0.961 . S
C1096 C1093 1.539 . S
C1096 H1110 0.958 . S
C1096 H1111 0.961 . S
C1096 H1112 0.960 . S
H1097 C1081 0.931 . S
H1098 C1086 0.929 . S
H1099 C1087 0.960 . S
H1100 C1087 0.962 . S
H1101 C1087 0.960 . S
H1102 C1088 0.961 . S
H1103 C1088 0.961 . S
H1104 C1088 0.961 . S
H1105 C1089 0.931 . S
H1106 C1094 0.930 . S
H1107 C1095 0.956 . S
H1108 C1095 0.961 . S
H1109 C1095 0.961 . S
H1110 C1096 0.958 . S
H1111 C1096 0.961 . S
H1112 C1096 0.960 . S
C1113 C1114 1.391 . S
C1113 C1115 1.394 . S
C1113 H1129 0.931 . S
C1114 C1113 1.391 . S
C1114 C1118 1.376 . S
C1115 C1113 1.394 . S
C1115 C1116 1.369 . S
C1115 C1119 1.531 . S
C1116 C1115 1.369 . S
C1116 C1117 1.410 . S
C1116 C1124 1.503 . S
C1117 C1116 1.410 . S
C1117 C1118 1.392 . S
C1117 C1120 1.511 . S
C1118 C1114 1.376 . S
C1118 C1117 1.392 . S
C1118 H1130 0.929 . S
C1119 C1115 1.531 . S
C1119 H1131 0.960 . S
C1119 H1132 0.962 . S
C1119 H1133 0.960 . S
C1120 C1117 1.511 . S
C1120 H1134 0.961 . S
C1120 H1135 0.961 . S
C1120 H1136 0.961 . S
C1121 C1122 1.370 . S
C1121 C1123 1.363 . S
C1121 H1137 0.931 . S
C1122 C1121 1.370 . S
C1122 C1126 1.408 . S
C1123 C1121 1.363 . S
C1123 C1124 1.370 . S
C1123 C1127 1.524 . S
C1124 C1116 1.503 . S
C1124 C1123 1.370 . S
C1124 C1125 1.403 . S
C1125 C1124 1.403 . S
C1125 C1126 1.404 . S
C1125 C1128 1.539 . S
C1126 C1122 1.408 . S
C1126 C1125 1.404 . S
C1126 H1138 0.930 . S
C1127 C1123 1.524 . S
C1127 H1139 0.956 . S
C1127 H1140 0.961 . S
C1127 H1141 0.961 . S
C1128 C1125 1.539 . S
C1128 H1142 0.958 . S
C1128 H1143 0.961 . S
C1128 H1144 0.960 . S
H1129 C1113 0.931 . S
H1130 C1118 0.929 . S
H1131 C1119 0.960 . S
H1132 C1119 0.962 . S
H1133 C1119 0.960 . S
H1134 C1120 0.961 . S
H1135 C1120 0.961 . S
H1136 C1120 0.961 . S
H1137 C1121 0.931 . S
H1138 C1126 0.930 . S
H1139 C1127 0.956 . S
H1140 C1127 0.961 . S
H1141 C1127 0.961 . S
H1142 C1128 0.958 . S
H1143 C1128 0.961 . S
H1144 C1128 0.960 . S
C1145 C1146 1.391 . S
C1145 C1147 1.394 . S
C1145 H1161 0.931 . S
C1146 C1145 1.391 . S
C1146 C1150 1.376 . S
C1147 C1145 1.394 . S
C1147 C1148 1.369 . S
C1147 C1151 1.531 . S
C1148 C1147 1.369 . S
C1148 C1149 1.410 . S
C1148 C1156 1.503 . S
C1149 C1148 1.410 . S
C1149 C1150 1.392 . S
C1149 C1152 1.511 . S
C1150 C1146 1.376 . S
C1150 C1149 1.392 . S
C1150 H1162 0.929 . S
C1151 C1147 1.531 . S
C1151 H1163 0.960 . S
C1151 H1164 0.962 . S
C1151 H1165 0.960 . S
C1152 C1149 1.511 . S
C1152 H1166 0.961 . S
C1152 H1167 0.961 . S
C1152 H1168 0.961 . S
C1153 C1154 1.370 . S
C1153 C1155 1.363 . S
C1153 H1169 0.931 . S
C1154 C1153 1.370 . S
C1154 C1158 1.408 . S
C1155 C1153 1.363 . S
C1155 C1156 1.370 . S
C1155 C1159 1.524 . S
C1156 C1148 1.503 . S
C1156 C1155 1.370 . S
C1156 C1157 1.403 . S
C1157 C1156 1.403 . S
C1157 C1158 1.404 . S
C1157 C1160 1.539 . S
C1158 C1154 1.408 . S
C1158 C1157 1.404 . S
C1158 H1170 0.930 . S
C1159 C1155 1.524 . S
C1159 H1171 0.956 . S
C1159 H1172 0.961 . S
C1159 H1173 0.961 . S
C1160 C1157 1.539 . S
C1160 H1174 0.958 . S
C1160 H1175 0.961 . S
C1160 H1176 0.960 . S
H1161 C1145 0.931 . S
H1162 C1150 0.929 . S
H1163 C1151 0.960 . S
H1164 C1151 0.962 . S
H1165 C1151 0.960 . S
H1166 C1152 0.961 . S
H1167 C1152 0.961 . S
H1168 C1152 0.961 . S
H1169 C1153 0.931 . S
H1170 C1158 0.930 . S
H1171 C1159 0.956 . S
H1172 C1159 0.961 . S
H1173 C1159 0.961 . S
H1174 C1160 0.958 . S
H1175 C1160 0.961 . S
H1176 C1160 0.960 . S
C1177 C1178 1.391 . S
C1177 C1179 1.394 . S
C1177 H1193 0.931 . S
C1178 C1177 1.391 . S
C1178 C1182 1.376 . S
C1179 C1177 1.394 . S
C1179 C1180 1.369 . S
C1179 C1183 1.531 . S
C1180 C1179 1.369 . S
C1180 C1181 1.410 . S
C1180 C1188 1.503 . S
C1181 C1180 1.410 . S
C1181 C1182 1.392 . S
C1181 C1184 1.511 . S
C1182 C1178 1.376 . S
C1182 C1181 1.392 . S
C1182 H1194 0.929 . S
C1183 C1179 1.531 . S
C1183 H1195 0.960 . S
C1183 H1196 0.962 . S
C1183 H1197 0.960 . S
C1184 C1181 1.511 . S
C1184 H1198 0.961 . S
C1184 H1199 0.961 . S
C1184 H1200 0.961 . S
C1185 C1186 1.370 . S
C1185 C1187 1.363 . S
C1185 H1201 0.931 . S
C1186 C1185 1.370 . S
C1186 C1190 1.408 . S
C1187 C1185 1.363 . S
C1187 C1188 1.370 . S
C1187 C1191 1.524 . S
C1188 C1180 1.503 . S
C1188 C1187 1.370 . S
C1188 C1189 1.403 . S
C1189 C1188 1.403 . S
C1189 C1190 1.404 . S
C1189 C1192 1.539 . S
C1190 C1186 1.408 . S
C1190 C1189 1.404 . S
C1190 H1202 0.930 . S
C1191 C1187 1.524 . S
C1191 H1203 0.956 . S
C1191 H1204 0.961 . S
C1191 H1205 0.961 . S
C1192 C1189 1.539 . S
C1192 H1206 0.958 . S
C1192 H1207 0.961 . S
C1192 H1208 0.960 . S
H1193 C1177 0.931 . S
H1194 C1182 0.929 . S
H1195 C1183 0.960 . S
H1196 C1183 0.962 . S
H1197 C1183 0.960 . S
H1198 C1184 0.961 . S
H1199 C1184 0.961 . S
H1200 C1184 0.961 . S
H1201 C1185 0.931 . S
H1202 C1190 0.930 . S
H1203 C1191 0.956 . S
H1204 C1191 0.961 . S
H1205 C1191 0.961 . S
H1206 C1192 0.958 . S
H1207 C1192 0.961 . S
H1208 C1192 0.960 . S
C1209 C1210 1.391 . S
C1209 C1211 1.394 . S
C1209 H1225 0.931 . S
C1210 C1209 1.391 . S
C1210 C1214 1.376 . S
C1211 C1209 1.394 . S
C1211 C1212 1.369 . S
C1211 C1215 1.531 . S
C1212 C1211 1.369 . S
C1212 C1213 1.410 . S
C1212 C1220 1.503 . S
C1213 C1212 1.410 . S
C1213 C1214 1.392 . S
C1213 C1216 1.511 . S
C1214 C1210 1.376 . S
C1214 C1213 1.392 . S
C1214 H1226 0.929 . S
C1215 C1211 1.531 . S
C1215 H1227 0.960 . S
C1215 H1228 0.962 . S
C1215 H1229 0.960 . S
C1216 C1213 1.511 . S
C1216 H1230 0.961 . S
C1216 H1231 0.961 . S
C1216 H1232 0.961 . S
C1217 C1218 1.370 . S
C1217 C1219 1.363 . S
C1217 H1233 0.931 . S
C1218 C1217 1.370 . S
C1218 C1222 1.408 . S
C1219 C1217 1.363 . S
C1219 C1220 1.370 . S
C1219 C1223 1.524 . S
C1220 C1212 1.503 . S
C1220 C1219 1.370 . S
C1220 C1221 1.403 . S
C1221 C1220 1.403 . S
C1221 C1222 1.404 . S
C1221 C1224 1.539 . S
C1222 C1218 1.408 . S
C1222 C1221 1.404 . S
C1222 H1234 0.930 . S
C1223 C1219 1.524 . S
C1223 H1235 0.956 . S
C1223 H1236 0.961 . S
C1223 H1237 0.961 . S
C1224 C1221 1.539 . S
C1224 H1238 0.958 . S
C1224 H1239 0.961 . S
C1224 H1240 0.960 . S
H1225 C1209 0.931 . S
H1226 C1214 0.929 . S
H1227 C1215 0.960 . S
H1228 C1215 0.962 . S
H1229 C1215 0.960 . S
H1230 C1216 0.961 . S
H1231 C1216 0.961 . S
H1232 C1216 0.961 . S
H1233 C1217 0.931 . S
H1234 C1222 0.930 . S
H1235 C1223 0.956 . S
H1236 C1223 0.961 . S
H1237 C1223 0.961 . S
H1238 C1224 0.958 . S
H1239 C1224 0.961 . S
H1240 C1224 0.960 . S
C1241 C1242 1.391 . S
C1241 C1243 1.394 . S
C1241 H1257 0.931 . S
C1242 C1241 1.391 . S
C1242 C1246 1.376 . S
C1243 C1241 1.394 . S
C1243 C1244 1.369 . S
C1243 C1247 1.531 . S
C1244 C1243 1.369 . S
C1244 C1245 1.410 . S
C1244 C1252 1.503 . S
C1245 C1244 1.410 . S
C1245 C1246 1.392 . S
C1245 C1248 1.511 . S
C1246 C1242 1.376 . S
C1246 C1245 1.392 . S
C1246 H1258 0.929 . S
C1247 C1243 1.531 . S
C1247 H1259 0.960 . S
C1247 H1260 0.962 . S
C1247 H1261 0.960 . S
C1248 C1245 1.511 . S
C1248 H1262 0.961 . S
C1248 H1263 0.961 . S
C1248 H1264 0.961 . S
C1249 C1250 1.370 . S
C1249 C1251 1.363 . S
C1249 H1265 0.931 . S
C1250 C1249 1.370 . S
C1250 C1254 1.408 . S
C1251 C1249 1.363 . S
C1251 C1252 1.370 . S
C1251 C1255 1.524 . S
C1252 C1244 1.503 . S
C1252 C1251 1.370 . S
C1252 C1253 1.403 . S
C1253 C1252 1.403 . S
C1253 C1254 1.404 . S
C1253 C1256 1.539 . S
C1254 C1250 1.408 . S
C1254 C1253 1.404 . S
C1254 H1266 0.930 . S
C1255 C1251 1.524 . S
C1255 H1267 0.956 . S
C1255 H1268 0.961 . S
C1255 H1269 0.961 . S
C1256 C1253 1.539 . S
C1256 H1270 0.958 . S
C1256 H1271 0.961 . S
C1256 H1272 0.960 . S
H1257 C1241 0.931 . S
H1258 C1246 0.929 . S
H1259 C1247 0.960 . S
H1260 C1247 0.962 . S
H1261 C1247 0.960 . S
H1262 C1248 0.961 . S
H1263 C1248 0.961 . S
H1264 C1248 0.961 . S
H1265 C1249 0.931 . S
H1266 C1254 0.930 . S
H1267 C1255 0.956 . S
H1268 C1255 0.961 . S
H1269 C1255 0.961 . S
H1270 C1256 0.958 . S
H1271 C1256 0.961 . S
H1272 C1256 0.960 . S
C1273 C1274 1.391 . S
C1273 C1275 1.394 . S
C1273 H1289 0.931 . S
C1274 C1273 1.391 . S
C1274 C1278 1.376 . S
C1275 C1273 1.394 . S
C1275 C1276 1.369 . S
C1275 C1279 1.531 . S
C1276 C1275 1.369 . S
C1276 C1277 1.410 . S
C1276 C1284 1.503 . S
C1277 C1276 1.410 . S
C1277 C1278 1.392 . S
C1277 C1280 1.511 . S
C1278 C1274 1.376 . S
C1278 C1277 1.392 . S
C1278 H1290 0.929 . S
C1279 C1275 1.531 . S
C1279 H1291 0.960 . S
C1279 H1292 0.962 . S
C1279 H1293 0.960 . S
C1280 C1277 1.511 . S
C1280 H1294 0.961 . S
C1280 H1295 0.961 . S
C1280 H1296 0.961 . S
C1281 C1282 1.370 . S
C1281 C1283 1.363 . S
C1281 H1297 0.931 . S
C1282 C1281 1.370 . S
C1282 C1286 1.408 . S
C1283 C1281 1.363 . S
C1283 C1284 1.370 . S
C1283 C1287 1.524 . S
C1284 C1276 1.503 . S
C1284 C1283 1.370 . S
C1284 C1285 1.403 . S
C1285 C1284 1.403 . S
C1285 C1286 1.404 . S
C1285 C1288 1.539 . S
C1286 C1282 1.408 . S
C1286 C1285 1.404 . S
C1286 H1298 0.930 . S
C1287 C1283 1.524 . S
C1287 H1299 0.956 . S
C1287 H1300 0.961 . S
C1287 H1301 0.961 . S
C1288 C1285 1.539 . S
C1288 H1302 0.958 . S
C1288 H1303 0.961 . S
C1288 H1304 0.960 . S
H1289 C1273 0.931 . S
H1290 C1278 0.929 . S
H1291 C1279 0.960 . S
H1292 C1279 0.962 . S
H1293 C1279 0.960 . S
H1294 C1280 0.961 . S
H1295 C1280 0.961 . S
H1296 C1280 0.961 . S
H1297 C1281 0.931 . S
H1298 C1286 0.930 . S
H1299 C1287 0.956 . S
H1300 C1287 0.961 . S
H1301 C1287 0.961 . S
H1302 C1288 0.958 . S
H1303 C1288 0.961 . S
H1304 C1288 0.960 . S
C538 C39 1.780 . S
C546 C444 1.705 . S
C570 C125 0.885 . S
C578 C476 0.886 . S
C610 C535 2.260 . S
C602 C211 2.128 . S
C642 C464 0.774 . S
C634 C273 0.844 . S
C666 C335 1.801 . S
C674 C494 1.844 . S
C706 C516 1.623 . S
C698 C439 1.625 . S
C738 C485 1.708 . S
C730 C187 1.746 . S
C762 C291 1.711 . S
C770 C525 1.673 . S
C802 C474 2.074 . S
C794 C359 1.856 . S
C826 C421 0.752 . S
C834 C504 0.822 . S
C858 C63 2.041 . S
C866 C507 2.195 . S
C898 C446 2.021 . S
C890 C143 2.019 . S
C930 C454 2.020 . S
C922 C285 1.857 . S
C962 C495 1.886 . S
C954 C365 1.920 . S
C994 C508 2.088 . S
C986 C409 2.069 . S
C1026 C445 1.846 . S
C1018 C69 1.882 1_556 S
C1058 C505 1.851 . S
C1050 C137 1.733 . S
C1082 C199 0.331 . S
C1090 C506 0.373 . S
C1122 C475 2.003 . S
C1114 C433 1.841 . S
C1154 C536 0.494 . S
C1146 C51 0.373 . S
C1186 C463 1.658 . S
C1178 C113 1.731 . S
C1218 C477 1.902 . S
C1210 C217 1.957 . S
C1242 C261 2.034 . S
C1250 C526 2.017 . S
C1274 C347 0.716 . S
C1282 C473 0.731 . S
