# Generated by pormake.
# Topology anh, (6,3)-cn, num edge types: 1
# Building blocks:
#     Node 0, Type 0, BuildingBlock: VOLQOD_clean_sbu_1, # of connection points: 6
#     Node 1, Type 0, BuildingBlock: VOLQOD_clean_sbu_1, # of connection points: 6
#     Node 2, Type 0, BuildingBlock: VOLQOD_clean_sbu_1, # of connection points: 6
#     Node 3, Type 1, BuildingBlock: BELTOD_clean_linker_0, # of connection points: 3
#     Node 4, Type 1, BuildingBlock: BELTOD_clean_linker_0, # of connection points: 3
#     Node 5, Type 1, BuildingBlock: BELTOD_clean_linker_0, # of connection points: 3
#     Node 6, Type 1, BuildingBlock: BELTOD_clean_linker_0, # of connection points: 3
#     Node 7, Type 1, BuildingBlock: BELTOD_clean_linker_0, # of connection points: 3
#     Node 8, Type 1, BuildingBlock: BELTOD_clean_linker_0, # of connection points: 3
#     Edge 9, Type (0, 1), BuildingBlock: FUNLAD_clean_linker_0, # of connection points: 2
#     Edge 10, Type (0, 1), BuildingBlock: FUNLAD_clean_linker_0, # of connection points: 2
#     Edge 11, Type (0, 1), BuildingBlock: FUNLAD_clean_linker_0, # of connection points: 2
#     Edge 12, Type (0, 1), BuildingBlock: FUNLAD_clean_linker_0, # of connection points: 2
#     Edge 13, Type (0, 1), BuildingBlock: FUNLAD_clean_linker_0, # of connection points: 2
#     Edge 14, Type (0, 1), BuildingBlock: FUNLAD_clean_linker_0, # of connection points: 2
#     Edge 15, Type (0, 1), BuildingBlock: FUNLAD_clean_linker_0, # of connection points: 2
#     Edge 16, Type (0, 1), BuildingBlock: FUNLAD_clean_linker_0, # of connection points: 2
#     Edge 17, Type (0, 1), BuildingBlock: FUNLAD_clean_linker_0, # of connection points: 2
#     Edge 18, Type (0, 1), BuildingBlock: FUNLAD_clean_linker_0, # of connection points: 2
#     Edge 19, Type (0, 1), BuildingBlock: FUNLAD_clean_linker_0, # of connection points: 2
#     Edge 20, Type (0, 1), BuildingBlock: FUNLAD_clean_linker_0, # of connection points: 2
#     Edge 21, Type (0, 1), BuildingBlock: FUNLAD_clean_linker_0, # of connection points: 2
#     Edge 22, Type (0, 1), BuildingBlock: FUNLAD_clean_linker_0, # of connection points: 2
#     Edge 23, Type (0, 1), BuildingBlock: FUNLAD_clean_linker_0, # of connection points: 2
#     Edge 24, Type (0, 1), BuildingBlock: FUNLAD_clean_linker_0, # of connection points: 2
#     Edge 25, Type (0, 1), BuildingBlock: FUNLAD_clean_linker_0, # of connection points: 2
#     Edge 26, Type (0, 1), BuildingBlock: FUNLAD_clean_linker_0, # of connection points: 2
# Relax obj value: 0.161
# Max RMSD: 0.227
# Mean RMSD: 0.107
data_MOF--net-anh--node1-VOLQOD_clean_sbu_1--node2-BELTOD_clean_linker_0--edge1-FUNLAD_clean_linker_0
_symmetry_space_group_name_H-M    P1
_symmetry_Int_Tables_number       1
_symmetry_cell_setting            triclinic
loop_
_symmetry_equiv_pos_as_xyz
'x, y, z'
_cell_length_a     36.715978
_cell_length_b     36.673528
_cell_length_c     77.793475
_cell_angle_alpha  90.173737
_cell_angle_beta   89.817223
_cell_angle_gamma 120.17853
loop_
_atom_site_label
_atom_site_type_symbol
_atom_site_fract_x
_atom_site_fract_y
_atom_site_fract_z
_atom_type_partial_charge
O0 O 0.00482 0.56261 0.19665 0.0
Zn1 Zn 0.00656 0.58232 0.17208 0.0
O2 O 0.01231 0.54492 0.15536 0.0
Zn3 Zn 0.96464 0.51997 0.13953 0.0
Zn4 Zn 0.01453 0.50005 0.16756 0.0
Zn5 Zn 0.06393 0.57619 0.14209 0.0
O6 O 0.98333 0.53004 0.11461 0.0
O7 O 0.05188 0.57521 0.11696 0.0
O8 O 0.95398 0.5857 0.16719 0.0
O9 O 0.92989 0.54716 0.14335 0.0
O10 O 0.92652 0.45727 0.14384 0.0
O11 O 0.96303 0.44437 0.16311 0.0
O12 O 0.0649 0.49559 0.16105 0.0
O13 O 0.05744 0.64136 0.17068 0.0
O14 O 0.10171 0.55134 0.14441 0.0
O15 O 0.09617 0.6362 0.14985 0.0
C16 C 0.01151 0.53424 0.20273 0.0
C17 C 0.01909 0.55446 0.10778 0.0
C18 C 0.93069 0.43184 0.15365 0.0
C19 C 0.92793 0.57111 0.15474 0.0
C20 C 0.09742 0.51877 0.15205 0.0
C21 C 0.0903 0.65778 0.16121 0.0
O22 O 0.01711 0.50972 0.19288 0.0
O23 O 0.45392 0.01471 0.45795 0.0
Zn24 Zn 0.43458 0.01515 0.48231 0.0
O25 O 0.47081 0.00886 0.49909 0.0
Zn26 Zn 0.49743 0.05812 0.5139 0.0
Zn27 Zn 0.51449 0.0036 0.48706 0.0
Zn28 Zn 0.43776 0.95918 0.51339 0.0
O29 O 0.4906 0.04199 0.53883 0.0
O30 O 0.44189 0.97409 0.53861 0.0
O31 O 0.43228 0.06859 0.48654 0.0
O32 O 0.47051 0.09303 0.51037 0.0
O33 O 0.55943 0.09484 0.50863 0.0
O34 O 0.5712 0.05446 0.49087 0.0
O35 O 0.51678 0.95266 0.49479 0.0
O36 O 0.37541 0.96582 0.48407 0.0
O37 O 0.46044 0.91952 0.51159 0.0
O38 O 0.37717 0.92781 0.5059 0.0
C39 C 0.48144 0.0068 0.4518 0.0
C40 C 0.46613 0.00794 0.54676 0.0
C41 C 0.58436 0.08847 0.49936 0.0
C42 C 0.44686 0.09494 0.49892 0.0
C43 C 0.49249 0.92155 0.50428 0.0
C44 C 0.35716 0.93391 0.49396 0.0
O45 O 0.50528 0.0002 0.46157 0.0
O46 O 0.4487 0.46237 0.80223 0.0
Zn47 Zn 0.43088 0.44226 0.82671 0.0
O48 O 0.47245 0.48129 0.84345 0.0
Zn49 Zn 0.44704 0.50442 0.85893 0.0
Zn50 Zn 0.51899 0.52733 0.83121 0.0
Zn51 Zn 0.49409 0.45205 0.85716 0.0
O52 O 0.45524 0.49546 0.88397 0.0
O53 O 0.4821 0.45324 0.88225 0.0
O54 O 0.37351 0.4359 0.83114 0.0
O55 O 0.38501 0.47485 0.85469 0.0
O56 O 0.4697 0.56675 0.85456 0.0
O57 O 0.5219 0.58205 0.83625 0.0
O58 O 0.57456 0.53312 0.83729 0.0
O59 O 0.42567 0.38475 0.82828 0.0
O60 O 0.55708 0.47938 0.85491 0.0
O61 O 0.46875 0.39191 0.84967 0.0
C62 C 0.48221 0.49316 0.79603 0.0
C63 C 0.46816 0.47283 0.89113 0.0
C64 C 0.50027 0.59322 0.8453 0.0
C65 C 0.36031 0.44984 0.84324 0.0
C66 C 0.58479 0.5115 0.84676 0.0
C67 C 0.44252 0.36957 0.83808 0.0
O68 O 0.51158 0.51935 0.80576 0.0
P69 P 0.55531 0.97042 0.23864 0.0
H70 H 0.5244 0.97294 0.20429 0.0
H71 H 0.45375 0.94728 0.19284 0.0
H72 H 0.40142 0.90356 0.24353 0.0
H73 H 0.47192 0.93084 0.25493 0.0
H74 H 0.6417 -0.00299 0.22864 0.0
H75 H 0.69688 0.06028 0.21456 0.0
H76 H 0.61274 0.11042 0.21188 0.0
H77 H 0.55744 0.04659 0.22573 0.0
H78 H 0.5396 0.91572 0.26819 0.0
H79 H 0.5723 0.04468 0.25919 0.0
O80 O 0.5644 0.93083 0.23497 0.0
H81 H 0.53539 0.92573 0.29908 0.0
H82 H 0.56834 0.05493 0.29006 0.0
C83 C 0.50362 0.9548 0.23054 0.0
C84 C 0.49776 0.95871 0.21299 0.0
C85 C 0.45726 0.94363 0.20644 0.0
C86 C 0.42177 0.92346 0.21726 0.0
C87 C 0.42795 0.91979 0.23487 0.0
C88 C 0.46845 0.93521 0.24141 0.0
C89 C 0.59531 0.01682 0.22792 0.0
C90 C 0.63502 0.02145 0.22488 0.0
C91 C 0.66662 0.05778 0.21693 0.0
C92 C 0.65914 0.09034 0.21203 0.0
C93 C 0.61926 0.08562 0.21521 0.0
C94 C 0.58769 0.04924 0.22318 0.0
C95 C 0.55708 0.97967 0.26143 0.0
C96 C 0.54656 0.94638 0.27288 0.0
C97 C 0.54378 0.95202 0.2905 0.0
C98 C 0.55156 0.99112 0.29695 0.0
C99 C 0.56268 0.02461 0.28545 0.0
C100 C 0.565 0.01879 0.2678 0.0
P101 P 0.58377 0.54415 0.58191 0.0
H102 H 0.58068 0.5258 0.54549 0.0
H103 H 0.53937 0.46171 0.52853 0.0
H104 H 0.48163 0.39255 0.57519 0.0
H105 H 0.5218 0.45683 0.5919 0.0
H106 H 0.63763 0.63338 0.57294 0.0
H107 H 0.62286 0.68397 0.5588 0.0
H108 H 0.49058 0.58928 0.55669 0.0
H109 H 0.50603 0.53863 0.57008 0.0
H110 H 0.61278 0.51453 0.61059 0.0
H111 H 0.5221 0.55473 0.60248 0.0
O112 O 0.63498 0.56046 0.57991 0.0
H113 H 0.59188 0.50069 0.64084 0.0
H114 H 0.50071 0.54042 0.63249 0.0
C115 C 0.55443 0.49605 0.56992 0.0
C116 C 0.55906 0.49676 0.55203 0.0
C117 C 0.53547 0.46012 0.54236 0.0
C118 C 0.50701 0.422 0.55048 0.0
C119 C 0.5026 0.42152 0.56847 0.0
C120 C 0.52602 0.45826 0.5781 0.0
C121 C 0.57296 0.58228 0.57242 0.0
C122 C 0.60551 0.62359 0.56938 0.0
C123 C 0.59694 0.65253 0.56138 0.0
C124 C 0.55553 0.64066 0.55649 0.0
C125 C 0.52295 0.5993 0.5599 0.0
C126 C 0.53165 0.57037 0.56771 0.0
C127 C 0.56969 0.53651 0.60435 0.0
C128 C 0.58864 0.52071 0.61534 0.0
C129 C 0.57635 0.5124 0.63257 0.0
C130 C 0.54473 0.51961 0.63908 0.0
C131 C 0.52564 0.53519 0.62795 0.0
C132 C 0.53786 0.54335 0.61073 0.0
P133 P 0.0887 0.64861 0.89363 0.0
H134 H 0.16916 0.66331 0.88012 0.0
H135 H 0.18929 0.61885 0.864 0.0
H136 H 0.05922 0.51843 0.86341 0.0
H137 H 0.03955 0.5628 0.87985 0.0
H138 H 0.01226 0.62416 0.91423 0.0
H139 H 0.93989 0.6011 0.90615 0.0
H140 H 0.97659 0.62203 0.85264 0.0
H141 H 0.04946 0.6456 0.86085 0.0
H142 H 0.12129 0.70393 0.9237 0.0
H143 H 0.05984 0.57058 0.91296 0.0
O144 O 0.12174 0.69942 0.88932 0.0
H145 H 0.11816 0.68941 0.9545 0.0
H146 H 0.05701 0.55584 0.94369 0.0
C147 C 0.10285 0.61661 0.88091 0.0
C148 C 0.14496 0.63191 0.87634 0.0
C149 C 0.15634 0.60653 0.86703 0.0
C150 C 0.12575 0.56522 0.86227 0.0
C151 C 0.08351 0.55003 0.86691 0.0
C152 C 0.07221 0.57548 0.87622 0.0
C153 C 0.03617 0.63603 0.88808 0.0
C154 C 0.005 0.624 0.90076 0.0
C155 C 0.96348 0.61061 0.89613 0.0
C156 C 0.95249 0.60925 0.87875 0.0
C157 C 0.98415 0.62291 0.86614 0.0
C158 C 0.02572 0.63626 0.8708 0.0
C159 C 0.09151 0.63839 0.91605 0.0
C160 C 0.10791 0.67159 0.92795 0.0
C161 C 0.1061 0.66325 0.94554 0.0
C162 C 0.08734 0.62147 0.95151 0.0
C163 C 0.07135 0.58832 0.93949 0.0
C164 C 0.07338 0.59674 0.92191 0.0
P165 P 0.04308 0.4745 0.41746 0.0
H166 H 0.10392 0.51485 0.4451 0.0
H167 H 0.12773 0.58024 0.46108 0.0
H168 H 0.04097 0.60399 0.43248 0.0
H169 H 0.01819 0.53896 0.41621 0.0
H170 H -0.00123 0.38439 0.41109 0.0
H171 H 0.9352 0.32534 0.42347 0.0
H172 H 0.91931 0.41234 0.45588 0.0
H173 H 0.98314 0.47093 0.44371 0.0
H174 H 0.09854 0.50045 0.38763 0.0
H175 H 0.97013 0.46645 0.39872 0.0
O176 O 0.08058 0.46155 0.41851 0.0
H177 H 0.08828 0.51112 0.35743 0.0
H178 H 0.95961 0.47712 0.36844 0.0
C179 C 0.06014 0.52268 0.42919 0.0
C180 C 0.09022 0.53426 0.4422 0.0
C181 C 0.10339 0.57143 0.45149 0.0
C182 C 0.08628 0.59743 0.44806 0.0
C183 C 0.05526 0.58505 0.43526 0.0
C184 C 0.04225 0.5479 0.42593 0.0
C185 C -0.00416 0.4319 0.42657 0.0
C186 C 0.98157 0.39065 0.42089 0.0
C187 C 0.94514 0.35701 0.4279 0.0
C188 C 0.92229 0.36418 0.4407 0.0
C189 C 0.93658 0.40573 0.44624 0.0
C190 C 0.97302 0.43934 0.4392 0.0
C191 C 0.03484 0.48184 0.39529 0.0
C192 C 0.06804 0.495 0.38353 0.0
C193 C 0.06213 0.50106 0.36628 0.0
C194 C 0.02304 0.49462 0.36056 0.0
C195 C 0.99009 0.48243 0.3725 0.0
C196 C -0.00404 0.47602 0.38975 0.0
P197 P 0.59298 0.05312 0.75815 0.0
H198 H 0.60397 0.08035 0.79375 0.0
H199 H 0.57197 0.11199 0.81148 0.0
H200 H 0.49526 0.10624 0.76834 0.0
H201 H 0.52629 0.07348 0.75096 0.0
H202 H 0.63993 0.00861 0.75734 0.0
H203 H 0.62757 0.94275 0.77035 0.0
H204 H 0.50936 0.92215 0.79112 0.0
H205 H 0.52219 0.98831 0.77818 0.0
H206 H 0.61988 0.11235 0.72979 0.0
H207 H 0.52722 0.98176 0.7385 0.0
O208 O 0.64486 0.08648 0.7588 0.0
H209 H 0.59508 0.10674 0.70027 0.0
H210 H 0.50189 0.97595 0.70897 0.0
C211 C 0.56794 0.0751 0.77102 0.0
C212 C 0.58011 0.08578 0.78817 0.0
C213 C 0.56188 0.10396 0.79826 0.0
C214 C 0.53122 0.1119 0.7913 0.0
C215 C 0.51842 0.10014 0.77417 0.0
C216 C 0.53654 0.08177 0.76413 0.0
C217 C 0.58244 0.00367 0.76712 0.0
C218 C 0.61139 0.9899 0.7647 0.0
C219 C 0.60414 0.95214 0.77206 0.0
C220 C 0.5676 0.9274 0.78187 0.0
C221 C 0.53813 0.94089 0.7839 0.0
C222 C 0.54538 0.97862 0.77647 0.0
C223 C 0.57602 0.04726 0.73617 0.0
C224 C 0.59444 0.08235 0.72527 0.0
C225 C 0.57992 0.07921 0.70847 0.0
C226 C 0.54649 0.04089 0.7023 0.0
C227 C 0.52804 0.00573 0.7133 0.0
C228 C 0.5425 0.009 0.73016 0.0
P229 P 0.45144 0.37102 0.10494 0.0
H230 H 0.51349 0.35557 0.12183 0.0
H231 H 0.57937 0.40184 0.13667 0.0
H232 H 0.56059 0.50768 0.12803 0.0
H233 H 0.49512 0.46114 0.11274 0.0
H234 H 0.37044 0.35156 0.09048 0.0
H235 H 0.31415 0.36306 0.1009 0.0
H236 H 0.38057 0.41047 0.14891 0.0
H237 H 0.43689 0.39925 0.13836 0.0
H238 H 0.47429 0.33781 0.07515 0.0
H239 H 0.44816 0.43789 0.08582 0.0
O240 O 0.43908 0.32079 0.10693 0.0
H241 H 0.48369 0.3568 0.04467 0.0
H242 H 0.45773 0.45722 0.0554 0.0
C243 C 0.4994 0.40494 0.11629 0.0
C244 C 0.52343 0.38867 0.12319 0.0
C245 C 0.56096 0.41517 0.13182 0.0
C246 C 0.57514 0.45848 0.13369 0.0
C247 C 0.55078 0.47459 0.12673 0.0
C248 C 0.51332 0.44804 0.11803 0.0
C249 C 0.40853 0.37604 0.11338 0.0
C250 C 0.37285 0.36442 0.10325 0.0
C251 C 0.34055 0.37066 0.10927 0.0
C252 C 0.34325 0.38821 0.12564 0.0
C253 C 0.3781 0.39778 0.1361 0.0
C254 C 0.41032 0.39141 0.13007 0.0
C255 C 0.45956 0.38581 0.08263 0.0
C256 C 0.47056 0.36385 0.07092 0.0
C257 C 0.47622 0.37494 0.05354 0.0
C258 C 0.47111 0.40831 0.04762 0.0
C259 C 0.46117 0.43093 0.05952 0.0
C260 C 0.4558 0.41997 0.07691 0.0
C261 C 0.12538 0.4703 0.15802 0.0
C262 C 0.1305 0.50722 0.1503 0.0
C263 C 0.15604 0.45875 0.15607 0.0
C264 C 0.19246 0.48381 0.14625 0.0
C265 C 0.19808 0.52119 0.13889 0.0
C266 C 0.16735 0.5327 0.1408 0.0
C267 C 0.22544 0.47228 0.14361 0.0
C268 C 0.21738 0.43217 0.14389 0.0
C269 C 0.25001 0.42074 0.14015 0.0
C270 C 0.23775 0.38118 0.13285 0.0
C271 C 0.26789 0.37019 0.1284 0.0
C272 C 0.31087 0.3984 0.13139 0.0
H273 H 0.30339 0.47859 0.14981 0.0
C274 C 0.32298 0.43735 0.1393 0.0
C275 C 0.2929 0.44839 0.14368 0.0
H276 H 0.35589 0.4598 0.14173 0.0
H277 H 0.09759 0.45015 0.16558 0.0
H278 H 0.15123 0.43046 0.16242 0.0
H279 H 0.22606 0.54127 0.13142 0.0
H280 H 0.17245 0.56149 0.13477 0.0
H281 H 0.25673 0.49753 0.14014 0.0
H282 H 0.18526 0.40648 0.14561 0.0
H283 H 0.20485 0.35909 0.13022 0.0
H284 H 0.25758 0.3397 0.12255 0.0
C285 C 0.65721 0.11404 0.48828 0.0
C286 C 0.62882 0.1222 0.4973 0.0
C287 C 0.69775 0.14666 0.48446 0.0
C288 C 0.71069 0.18834 0.48941 0.0
C289 C 0.68331 0.19612 0.49934 0.0
C290 C 0.64267 0.16339 0.50322 0.0
C291 C 0.75191 0.22434 0.48395 0.0
C292 C 0.77036 0.22405 0.46899 0.0
C293 C 0.80966 0.26053 0.46226 0.0
C294 C 0.81795 0.26217 0.44457 0.0
C295 C 0.85438 0.29578 0.43758 0.0
C296 C 0.88359 0.32846 0.44817 0.0
H297 H 0.83462 0.29228 0.4867 0.0
C298 C 0.87562 0.32666 0.46593 0.0
C299 C 0.83912 0.29298 0.47293 0.0
H300 H 0.89797 0.35095 0.47446 0.0
H301 H 0.64786 0.08253 0.48382 0.0
H302 H 0.71862 0.13912 0.47745 0.0
H303 H 0.69277 0.22786 0.50354 0.0
H304 H 0.62169 0.17069 0.51031 0.0
H305 H 0.76518 0.25282 0.4917 0.0
H306 H 0.75453 0.19677 0.46058 0.0
H307 H 0.79591 0.23753 0.43606 0.0
H308 H 0.85937 0.29643 0.42383 0.0
C309 C 0.54724 0.66786 0.83632 0.0
C310 C 0.50898 0.63704 0.8436 0.0
C311 C 0.55344 0.70746 0.83205 0.0
C312 C 0.52123 0.71698 0.83473 0.0
C313 C 0.48422 0.68738 0.84318 0.0
C314 C 0.47806 0.64764 0.84757 0.0
C315 C 0.52496 0.75678 0.82823 0.0
C316 C 0.54663 0.77545 0.81376 0.0
C317 C 0.55005 0.81398 0.80595 0.0
C318 C 0.56447 0.82373 0.78891 0.0
C319 C 0.56961 0.86016 0.78105 0.0
C320 C 0.56059 0.8879 0.79007 0.0
H321 H 0.53066 0.83605 0.82827 0.0
C322 C 0.54591 0.87817 0.80709 0.0
C323 C 0.54083 0.84169 0.815 0.0
H324 H 0.53936 0.89934 0.81446 0.0
H325 H 0.57208 0.661 0.83345 0.0
H326 H 0.58322 0.73021 0.82633 0.0
H327 H 0.45921 0.69424 0.84566 0.0
H328 H 0.44832 0.62463 0.85326 0.0
H329 H 0.5068 0.76865 0.8347 0.0
H330 H 0.56126 0.76061 0.80666 0.0
H331 H 0.57188 0.80306 0.78161 0.0
H332 H 0.58053 0.86652 0.76785 0.0
C333 C 0.87406 0.58505 0.16837 0.0
C334 C 0.89322 0.58024 0.15355 0.0
C335 C 0.83671 0.58641 0.16704 0.0
C336 C 0.81844 0.5835 0.15083 0.0
C337 C 0.83972 0.58233 0.13603 0.0
C338 C 0.87642 0.58022 0.13737 0.0
C339 C 0.77564 0.57749 0.14868 0.0
C340 C 0.74415 0.55509 0.1599 0.0
C341 C 0.69902 0.53515 0.15496 0.0
C342 C 0.67007 0.49697 0.16282 0.0
C343 C 0.62916 0.47297 0.15645 0.0
C344 C 0.61625 0.48677 0.14209 0.0
H345 H 0.70583 0.58083 0.13558 0.0
C346 C 0.64414 0.52664 0.13511 0.0
C347 C 0.68502 0.55074 0.14154 0.0
H348 H 0.63518 0.53841 0.12412 0.0
H349 H 0.88661 0.58542 0.181 0.0
H350 H 0.82164 0.58849 0.17869 0.0
H351 H 0.82658 0.58049 0.12338 0.0
H352 H 0.89093 0.57716 0.12571 0.0
H353 H 0.76836 0.5848 0.1361 0.0
H354 H 0.7512 0.54481 0.17189 0.0
H355 H 0.67973 0.48447 0.17335 0.0
H356 H 0.60805 0.44295 0.16244 0.0
C357 C 0.29285 0.8645 0.50055 0.0
C358 C 0.31303 0.90104 0.49038 0.0
C359 C 0.25404 0.83045 0.4956 0.0
C360 C 0.2344 0.83231 0.48037 0.0
C361 C 0.25341 0.86978 0.47078 0.0
C362 C 0.29219 0.90386 0.47575 0.0
C363 C 0.19792 0.7943 0.47279 0.0
C364 C 0.17203 0.75934 0.48182 0.0
C365 C 0.14394 0.71788 0.47354 0.0
C366 C 0.13347 0.6811 0.48281 0.0
C367 C 0.11303 0.64171 0.47476 0.0
C368 C 0.10244 0.63824 0.45725 0.0
H369 H 0.13618 0.74133 0.44894 0.0
C370 C 0.11008 0.67467 0.44831 0.0
C371 C 0.13037 0.71406 0.45638 0.0
H372 H 0.10215 0.67314 0.43483 0.0
H373 H 0.30795 0.86129 0.51192 0.0
H374 H 0.24117 0.802 0.50321 0.0
H375 H 0.23911 0.87205 0.45897 0.0
H376 H 0.3067 0.93159 0.46764 0.0
H377 H 0.19508 0.7943 0.45891 0.0
H378 H 0.17476 0.75966 0.49571 0.0
H379 H 0.14291 0.68297 0.49612 0.0
H380 H 0.10656 0.6141 0.48215 0.0
C381 C 0.44798 0.30718 0.84714 0.0
C382 C 0.43484 0.32646 0.83499 0.0
C383 C 0.44729 0.2697 0.84318 0.0
C384 C 0.43407 0.25107 0.82686 0.0
C385 C 0.41768 0.26844 0.81528 0.0
C386 C 0.41808 0.30583 0.81928 0.0
C387 C 0.43998 0.21577 0.82102 0.0
C388 C 0.4717 0.21073 0.82688 0.0
C389 C 0.4846 0.1823 0.81873 0.0
C390 C 0.52662 0.19223 0.82053 0.0
C391 C 0.54143 0.16879 0.81195 0.0
C392 C 0.51438 0.13446 0.8015 0.0
H393 H 0.42402 0.13736 0.80763 0.0
C394 C 0.47178 0.12329 0.8003 0.0
C395 C 0.45697 0.1469 0.80885 0.0
H396 H 0.44992 0.09642 0.79266 0.0
H397 H 0.46014 0.32176 0.85952 0.0
H398 H 0.45828 0.25618 0.85277 0.0
H399 H 0.40669 0.25436 0.80272 0.0
H400 H 0.40736 0.31967 0.8097 0.0
H401 H 0.42145 0.19737 0.81011 0.0
H402 H 0.49251 0.23189 0.83674 0.0
H403 H 0.54856 0.21919 0.82812 0.0
H404 H 0.57451 0.17857 0.81304 0.0
C405 C 0.47382 0.8508 0.51602 0.0
C406 C 0.50307 0.88836 0.50779 0.0
C407 C 0.48492 0.8209 0.5206 0.0
C408 C 0.52559 0.82803 0.51708 0.0
C409 C 0.55462 0.86527 0.50868 0.0
C410 C 0.54339 0.89499 0.50392 0.0
C411 C 0.53948 0.79875 0.52319 0.0
C412 C 0.51289 0.75711 0.52509 0.0
C413 C 0.52606 0.72847 0.53257 0.0
C414 C 0.5053 0.68607 0.52747 0.0
C415 C 0.51549 0.6578 0.53495 0.0
C416 C 0.54612 0.6712 0.54797 0.0
H417 H 0.57274 0.77436 0.55005 0.0
C418 C 0.56691 0.71377 0.55306 0.0
C419 C 0.55705 0.74214 0.54543 0.0
H420 H 0.59001 0.72501 0.56329 0.0
H421 H 0.44256 0.8448 0.51923 0.0
H422 H 0.46207 0.79306 0.52748 0.0
H423 H 0.58625 0.87161 0.50596 0.0
H424 H 0.56676 0.92373 0.49768 0.0
H425 H 0.57277 0.81191 0.52594 0.0
H426 H 0.48054 0.7432 0.52068 0.0
H427 H 0.48116 0.67478 0.51765 0.0
H428 H 0.49932 0.62541 0.53051 0.0
C429 C 0.64221 0.5025 0.85963 0.0
C430 C 0.62982 0.52459 0.84863 0.0
C431 C 0.68479 0.51575 0.86188 0.0
C432 C 0.71598 0.55127 0.85302 0.0
C433 C 0.70355 0.57328 0.84202 0.0
C434 C 0.66097 0.56004 0.83978 0.0
C435 C 0.76166 0.56766 0.85561 0.0
C436 C 0.77744 0.54378 0.8613 0.0
C437 C 0.82274 0.56097 0.8651 0.0
C438 C 0.83382 0.54018 0.8773 0.0
C439 C 0.87591 0.55587 0.88171 0.0
C440 C 0.90792 0.59253 0.87386 0.0
H441 H 0.84773 0.61333 0.84705 0.0
C442 C 0.89702 0.61278 0.86129 0.0
C443 C 0.85484 0.59716 0.85692 0.0
H444 H 0.92106 0.64103 0.85499 0.0
H445 H 0.61906 0.4753 0.86676 0.0
H446 H 0.69291 0.49869 0.87094 0.0
H447 H 0.7269 0.60094 0.83517 0.0
H448 H 0.65257 0.57789 0.83123 0.0
H449 H 0.78275 0.60083 0.85287 0.0
H450 H 0.75641 0.5106 0.86401 0.0
H451 H 0.80977 0.51198 0.88364 0.0
H452 H 0.88343 0.53909 0.89118 0.0
C453 C 0.12544 0.72317 0.17947 0.0
C454 C 0.12429 0.70175 0.16428 0.0
C455 C 0.16099 0.76199 0.18347 0.0
C456 C 0.19603 0.78005 0.17233 0.0
C457 C 0.19331 0.76017 0.15657 0.0
C458 C 0.15801 0.72139 0.15261 0.0
C459 C 0.23721 0.81728 0.17705 0.0
C460 C 0.24977 0.82884 0.1934 0.0
C461 C 0.29448 0.85775 0.19811 0.0
C462 C 0.30383 0.88003 0.21368 0.0
C463 C 0.34536 0.90301 0.21956 0.0
C464 C 0.37839 0.90354 0.21011 0.0
H465 H 0.32168 0.84151 0.1766 0.0
C466 C 0.36907 0.8821 0.1943 0.0
C467 C 0.32767 0.85947 0.18836 0.0
H468 H 0.39345 0.88094 0.18685 0.0
H469 H 0.09972 0.70913 0.18862 0.0
H470 H 0.16111 0.77702 0.19547 0.0
H471 H 0.21954 0.77355 0.14763 0.0
H472 H 0.1579 0.7061 0.14066 0.0
H473 H 0.25978 0.83269 0.16671 0.0
H474 H 0.22766 0.81455 0.20393 0.0
H475 H 0.27882 0.87893 0.2215 0.0
H476 H 0.35146 0.91963 0.23169 0.0
C477 C 0.43546 0.14494 0.5164 0.0
C478 C 0.43741 0.1294 0.50013 0.0
C479 C 0.43252 0.18117 0.51795 0.0
C480 C 0.43181 0.20299 0.50323 0.0
C481 C 0.43213 0.18655 0.48692 0.0
C482 C 0.43431 0.14962 0.48537 0.0
C483 C 0.43738 0.24581 0.50479 0.0
C484 C 0.42467 0.25799 0.51882 0.0
C485 C 0.44288 0.30266 0.52417 0.0
C486 C 0.42198 0.31258 0.53685 0.0
C487 C 0.44195 0.35209 0.54482 0.0
C488 C 0.48354 0.38238 0.54041 0.0
H489 H 0.50136 0.3272 0.50968 0.0
C490 C 0.50366 0.37323 0.52708 0.0
C491 C 0.48361 0.33383 0.51905 0.0
H492 H 0.53588 0.39557 0.52351 0.0
H493 H 0.4377 0.12985 0.52798 0.0
H494 H 0.43357 0.19337 0.53074 0.0
H495 H 0.43218 0.2031 0.4754 0.0
H496 H 0.43602 0.13832 0.47268 0.0
H497 H 0.45571 0.2686 0.4949 0.0
H498 H 0.40287 0.23416 0.52773 0.0
H499 H 0.39072 0.2891 0.54111 0.0
H500 H 0.42526 0.35844 0.55481 0.0
C501 C 0.29376 0.43499 0.82843 0.0
C502 C 0.31598 0.43937 0.84369 0.0
C503 C 0.25486 0.43339 0.829 0.0
C504 C 0.23754 0.43555 0.84488 0.0
C505 C 0.25804 0.43593 0.86012 0.0
C506 C 0.29712 0.43838 0.85953 0.0
C507 C 0.20111 0.44231 0.84621 0.0
C508 C 0.1958 0.46755 0.8352 0.0
C509 C 0.1717 0.48865 0.83999 0.0
C510 C 0.18577 0.52951 0.83379 0.0
C511 C 0.16951 0.5538 0.84046 0.0
C512 C 0.13853 0.53753 0.85338 0.0
H513 H 0.12562 0.4392 0.85655 0.0
C514 C 0.12201 0.49542 0.85859 0.0
C515 C 0.1383 0.47112 0.85191 0.0
H516 H 0.09797 0.48185 0.86846 0.0
H517 H 0.30759 0.43546 0.81605 0.0
H518 H 0.23921 0.43203 0.81705 0.0
H519 H 0.24517 0.43724 0.87251 0.0
H520 H 0.31339 0.44116 0.87149 0.0
H521 H 0.18397 0.43355 0.8583 0.0
H522 H 0.21584 0.47935 0.82389 0.0
H523 H 0.2111 0.54361 0.82445 0.0
H524 H 0.18214 0.5858 0.83588 0.0
C525 C 0.904 0.35795 0.16349 0.0
C526 C 0.89635 0.38747 0.15522 0.0
C527 C 0.87098 0.31748 0.1671 0.0
C528 C 0.82932 0.3057 0.16276 0.0
C529 C 0.82197 0.3342 0.15351 0.0
C530 C 0.85517 0.3748 0.14979 0.0
C531 C 0.79307 0.26444 0.16813 0.0
C532 C 0.79376 0.24515 0.18277 0.0
C533 C 0.75834 0.20479 0.18942 0.0
C534 C 0.76658 0.18535 0.20321 0.0
C535 C 0.73453 0.14819 0.21042 0.0
C536 C 0.69323 0.1295 0.20407 0.0
H537 H 0.70876 0.2001 0.17263 0.0
C538 C 0.68477 0.14881 0.19028 0.0
C539 C 0.71693 0.18607 0.18301 0.0
H540 H 0.65327 0.135 0.18504 0.0
H541 H 0.93549 0.36637 0.16752 0.0
H542 H 0.87826 0.29574 0.17349 0.0
H543 H 0.79025 0.32565 0.14975 0.0
H544 H 0.84829 0.39674 0.1433 0.0
H545 H 0.76497 0.25121 0.16025 0.0
H546 H 0.82192 0.26003 0.19067 0.0
H547 H 0.79802 0.1991 0.20852 0.0
H548 H 0.74201 0.13453 0.22121 0.0
C549 C 0.06176 0.58851 0.08138 0.0
C550 C 0.02303 0.55919 0.08884 0.0
C551 C 0.06594 0.59346 0.06357 0.0
C552 C 0.03151 0.5688 0.05272 0.0
C553 C 0.99267 0.53985 0.06018 0.0
C554 C 0.98844 0.53498 0.07804 0.0
C555 C 0.03444 0.57352 0.03368 0.0
C556 C 0.0711 0.59049 0.0249 0.0
C557 C 0.07434 0.5971 0.00599 0.0
C558 C 0.11254 0.62892 0.99907 0.0
C559 C 0.11687 0.63675 0.98141 0.0
C560 C 0.0832 0.61248 0.97023 0.0
H561 H 0.01131 0.54662 -0.0005 0.0
C562 C 0.04525 0.57997 0.97708 0.0
C563 C 0.04083 0.57228 0.99477 0.0
H564 H 0.01867 0.56082 0.96879 0.0
H565 H 0.08898 0.6081 0.08929 0.0
H566 H 0.09603 0.61732 0.05853 0.0
H567 H 0.96548 0.52076 0.05216 0.0
H568 H 0.95809 0.51223 0.08336 0.0
H569 H 0.00511 0.56265 0.02677 0.0
H570 H 0.10048 0.60133 0.03174 0.0
H571 H 0.13901 0.64821 0.0074 0.0
H572 H 0.14669 0.66164 0.97648 0.0
C573 C 0.52083 0.00393 0.42599 0.0
C574 C 0.48604 0.00514 0.43294 0.0
C575 C 0.52518 0.00182 0.40825 0.0
C576 C 0.49477 0.00081 0.39701 0.0
C577 C 0.45981 0.00161 0.40392 0.0
C578 C 0.45564 0.00415 0.4217 0.0
C579 C 0.49769 -0.0032 0.37813 0.0
C580 C 0.53471 0.01225 0.36976 0.0
C581 C 0.53777 0.00679 0.351 0.0
C582 C 0.57333 0.03705 0.34198 0.0
C583 C 0.5777 0.03223 0.3244 0.0
C584 C 0.54692 0.99657 0.31556 0.0
H585 H 0.47971 0.9465 0.34878 0.0
C586 C 0.51156 0.96602 0.32462 0.0
C587 C 0.50696 0.97106 0.34215 0.0
H588 H 0.48726 0.93829 0.31811 0.0
H589 H 0.54476 0.00447 0.43427 0.0
H590 H 0.5519 -3e-05 0.40343 0.0
H591 H 0.43572 0.00041 0.39553 0.0
H592 H 0.42833 0.00476 0.42662 0.0
H593 H 0.46845 0.98192 0.37089 0.0
H594 H 0.56399 0.03091 0.37673 0.0
H595 H 0.59774 0.06459 0.34855 0.0
H596 H 0.60548 0.05604 0.31776 0.0
C597 C 0.46017 0.46731 0.76575 0.0
C598 C 0.4876 0.49901 0.77717 0.0
C599 C 0.46633 0.47292 0.74796 0.0
C600 C 0.5 0.51046 0.74128 0.0
C601 C 0.5267 0.54238 0.7527 0.0
C602 C 0.52082 0.53666 0.77042 0.0
C603 C 0.50799 0.51804 0.72255 0.0
C604 C 0.49729 0.48701 0.71093 0.0
C605 C 0.50842 0.49557 0.69242 0.0
C606 C 0.51455 0.46666 0.68279 0.0
C607 C 0.52634 0.4744 0.66549 0.0
C608 C 0.53172 0.51102 0.65739 0.0
H609 H 0.50719 0.55416 0.69106 0.0
C610 C 0.52455 0.53943 0.66692 0.0
C611 C 0.51291 0.53178 0.68422 0.0
H612 H 0.52848 0.56796 0.66107 0.0
H613 H 0.43413 0.43804 0.77054 0.0
H614 H 0.44438 0.44808 0.73954 0.0
H615 H 0.55263 0.57174 0.7479 0.0
H616 H 0.54236 0.56191 0.77881 0.0
H617 H 0.52623 0.5507 0.71844 0.0
H618 H 0.48277 0.4545 0.71522 0.0
H619 H 0.51082 0.43829 0.68873 0.0
H620 H 0.53091 0.45153 0.65841 0.0
C621 C 0.4958 0.04393 0.5749 0.0
C622 C 0.46758 0.00735 0.5658 0.0
C623 C 0.49955 0.04296 0.59272 0.0
C624 C 0.47479 0.00538 0.60195 0.0
C625 C 0.44623 0.96896 0.59288 0.0
C626 C 0.44251 0.96991 0.57502 0.0
C627 C 0.48007 0.00236 0.62076 0.0
C628 C 0.49681 0.03607 0.63134 0.0
C629 C 0.50623 0.03451 0.64983 0.0
C630 C 0.51417 0.06887 0.66037 0.0
C631 C 0.52639 0.07053 0.67746 0.0
C632 C 0.53114 0.03786 0.68443 0.0
H633 H 0.50585 0.97492 0.64916 0.0
C634 C 0.5225 0.00305 0.67402 0.0
C635 C 0.5104 0.00144 0.65688 0.0
H636 H 0.52649 0.97769 0.67896 0.0
H637 H 0.51587 0.07326 0.56823 0.0
H638 H 0.52298 0.07144 0.59904 0.0
H639 H 0.42702 0.93949 0.59961 0.0
H640 H 0.42053 0.94109 0.56842 0.0
H641 H 0.46931 0.97114 0.62594 0.0
H642 H 0.50384 0.06655 0.62637 0.0
H643 H 0.5114 0.09486 0.65531 0.0
H644 H 0.53231 0.09754 0.68522 0.0
C645 C 0.47761 0.44103 0.91797 0.0
C646 C 0.46705 0.46895 0.91011 0.0
C647 C 0.4766 0.43699 0.93582 0.0
C648 C 0.46551 0.46123 0.94633 0.0
C649 C 0.45449 0.48878 0.93847 0.0
C650 C 0.45533 0.49271 0.92057 0.0
C651 C 0.46332 0.45722 0.9654 0.0
C652 C 0.48446 0.4424 0.97443 0.0
C653 C 0.48118 0.43596 0.9934 0.0
C654 C 0.51088 0.42855 0.00162 0.0
C655 C 0.50797 0.42009 0.01922 0.0
C656 C 0.47523 0.41886 0.02905 0.0
H657 H 0.42406 0.43908 0.99752 0.0
C658 C 0.44567 0.42661 0.02092 0.0
C659 C 0.44841 0.43483 0.00328 0.0
H660 H 0.41965 0.42513 0.02811 0.0
H661 H 0.48628 0.42182 0.91033 0.0
H662 H 0.48372 0.41414 0.94122 0.0
H663 H 0.44533 0.50747 0.94622 0.0
H664 H 0.44685 0.5144 0.91495 0.0
H665 H 0.44452 0.46803 0.97208 0.0
H666 H 0.50606 0.4352 0.96773 0.0
H667 H 0.53635 0.429 0.99437 0.0
H668 H 0.53143 0.41459 0.02515 0.0
C669 C 0.00131 0.5506 0.23327 0.0
C670 C 0.01421 0.53001 0.22154 0.0
C671 C 0.00463 0.54643 0.25102 0.0
C672 C 0.02124 0.52182 0.25731 0.0
C673 C 0.03442 0.50171 0.24557 0.0
C674 C 0.03065 0.50542 0.22794 0.0
C675 C 0.02692 0.51726 0.2759 0.0
C676 C 0.00257 0.51931 0.28842 0.0
C677 C 0.00751 0.51202 0.30688 0.0
C678 C 0.99216 0.52821 0.31957 0.0
C679 C -0.00327 0.5223 0.33703 0.0
C680 C 0.01675 0.5 0.34213 0.0
H681 H 0.03673 0.47357 0.30283 0.0
C682 C 0.03109 0.48285 0.32947 0.0
C683 C 0.02625 0.48844 0.31207 0.0
H684 H 0.04564 0.46457 0.33303 0.0
H685 H 0.98871 0.56993 0.22874 0.0
H686 H -0.00492 0.56322 0.2597 0.0
H687 H 0.04755 0.48279 0.25006 0.0
H688 H 0.04121 0.48934 0.21932 0.0
H689 H 0.05162 0.5105 0.27917 0.0
H690 H 0.97818 0.52658 0.28515 0.0
H691 H 0.97709 0.54599 0.31597 0.0
H692 H 0.98535 0.53587 0.34653 0.0
loop_
_geom_bond_atom_site_label_1
_geom_bond_atom_site_label_2
_geom_bond_distance
_geom_bond_site_symmetry_2
_ccdc_geom_bond_type
O0 Zn1 1.953 . S
O0 C16 1.225 . S
Zn1 O0 1.953 . S
Zn1 O2 1.949 . S
Zn1 O8 1.919 1_455 S
Zn1 O13 1.924 . S
O2 Zn1 1.949 . S
O2 Zn3 1.923 1_455 S
O2 Zn4 1.950 . S
O2 Zn5 1.945 . S
Zn3 O2 1.923 1_655 S
Zn3 O6 1.933 . S
Zn3 O9 1.941 . S
Zn3 O10 1.965 . S
Zn4 O2 1.950 . S
Zn4 O11 1.938 1_455 S
Zn4 O12 1.906 . S
Zn4 O22 1.953 . S
Zn5 O2 1.945 . S
Zn5 O7 1.932 . S
Zn5 O14 1.977 . S
Zn5 O15 1.910 . S
O6 Zn3 1.933 . S
O6 C17 1.226 1_655 S
O7 Zn5 1.932 . S
O7 C17 1.307 . S
O8 Zn1 1.919 1_655 S
O8 C19 1.253 . S
O9 Zn3 1.941 . S
O9 C19 1.283 . S
O10 Zn3 1.965 . S
O10 C18 1.303 . S
O11 Zn4 1.938 1_655 S
O11 C18 1.247 . S
O12 Zn4 1.906 . S
O12 C20 1.304 . S
O13 Zn1 1.924 . S
O13 C21 1.311 . S
O14 Zn5 1.977 . S
O14 C20 1.272 . S
O15 Zn5 1.910 . S
O15 C21 1.231 . S
C16 O0 1.225 . S
C16 O22 1.298 . S
C17 O6 1.226 1_455 S
C17 O7 1.307 . S
C18 O10 1.303 . S
C18 O11 1.247 . S
C19 O8 1.253 . S
C19 O9 1.283 . S
C20 O12 1.304 . S
C20 O14 1.272 . S
C21 O13 1.311 . S
C21 O15 1.231 . S
O22 Zn4 1.953 . S
O22 C16 1.298 . S
O23 Zn24 1.953 . S
O23 C39 1.225 . S
Zn24 O23 1.953 . S
Zn24 O25 1.949 . S
Zn24 O31 1.919 . S
Zn24 O36 1.924 1_545 S
O25 Zn24 1.949 . S
O25 Zn26 1.923 . S
O25 Zn27 1.950 . S
O25 Zn28 1.945 1_545 S
Zn26 O25 1.923 . S
Zn26 O29 1.933 . S
Zn26 O32 1.941 . S
Zn26 O33 1.965 . S
Zn27 O25 1.950 . S
Zn27 O34 1.938 . S
Zn27 O35 1.906 1_545 S
Zn27 O45 1.953 . S
Zn28 O25 1.945 1_565 S
Zn28 O30 1.932 . S
Zn28 O37 1.977 . S
Zn28 O38 1.910 . S
O29 Zn26 1.933 . S
O29 C40 1.226 . S
O30 Zn28 1.932 . S
O30 C40 1.307 1_565 S
O31 Zn24 1.919 . S
O31 C42 1.253 . S
O32 Zn26 1.941 . S
O32 C42 1.283 . S
O33 Zn26 1.965 . S
O33 C41 1.303 . S
O34 Zn27 1.938 . S
O34 C41 1.247 . S
O35 Zn27 1.906 1_565 S
O35 C43 1.304 . S
O36 Zn24 1.924 1_565 S
O36 C44 1.311 . S
O37 Zn28 1.977 . S
O37 C43 1.272 . S
O38 Zn28 1.910 . S
O38 C44 1.231 . S
C39 O23 1.225 . S
C39 O45 1.298 . S
C40 O29 1.226 . S
C40 O30 1.307 1_545 S
C41 O33 1.303 . S
C41 O34 1.247 . S
C42 O31 1.253 . S
C42 O32 1.283 . S
C43 O35 1.304 . S
C43 O37 1.272 . S
C44 O36 1.311 . S
C44 O38 1.231 . S
O45 Zn27 1.953 . S
O45 C39 1.298 . S
O46 Zn47 1.953 . S
O46 C62 1.225 . S
Zn47 O46 1.953 . S
Zn47 O48 1.949 . S
Zn47 O54 1.919 . S
Zn47 O59 1.924 . S
O48 Zn47 1.949 . S
O48 Zn49 1.923 . S
O48 Zn50 1.950 . S
O48 Zn51 1.945 . S
Zn49 O48 1.923 . S
Zn49 O52 1.933 . S
Zn49 O55 1.941 . S
Zn49 O56 1.965 . S
Zn50 O48 1.950 . S
Zn50 O57 1.938 . S
Zn50 O58 1.906 . S
Zn50 O68 1.953 . S
Zn51 O48 1.945 . S
Zn51 O53 1.932 . S
Zn51 O60 1.977 . S
Zn51 O61 1.910 . S
O52 Zn49 1.933 . S
O52 C63 1.226 . S
O53 Zn51 1.932 . S
O53 C63 1.307 . S
O54 Zn47 1.919 . S
O54 C65 1.253 . S
O55 Zn49 1.941 . S
O55 C65 1.283 . S
O56 Zn49 1.965 . S
O56 C64 1.303 . S
O57 Zn50 1.938 . S
O57 C64 1.247 . S
O58 Zn50 1.906 . S
O58 C66 1.304 . S
O59 Zn47 1.924 . S
O59 C67 1.311 . S
O60 Zn51 1.977 . S
O60 C66 1.272 . S
O61 Zn51 1.910 . S
O61 C67 1.231 . S
C62 O46 1.225 . S
C62 O68 1.298 . S
C63 O52 1.226 . S
C63 O53 1.307 . S
C64 O56 1.303 . S
C64 O57 1.247 . S
C65 O54 1.253 . S
C65 O55 1.283 . S
C66 O58 1.304 . S
C66 O60 1.272 . S
C67 O59 1.311 . S
C67 O61 1.231 . S
O68 Zn50 1.953 . S
O68 C62 1.298 . S
P69 O80 1.490 . S
P69 C83 1.812 . S
P69 C89 1.803 1_565 S
P69 C95 1.819 1_565 S
H70 C84 0.941 . S
H71 C85 0.939 . S
H72 C87 0.940 . S
H73 C88 0.940 . S
H74 C90 0.939 . S
H75 C91 0.942 . S
H76 C93 0.940 . S
H77 C94 0.939 . S
H78 C96 0.941 . S
H79 C100 0.939 . S
O80 P69 1.490 . S
H81 C97 0.939 . S
H82 C99 0.940 . S
C83 P69 1.812 . S
C83 C84 1.389 . S
C83 C88 1.391 . S
C84 H70 0.941 . S
C84 C83 1.389 . S
C84 C85 1.397 . S
C85 H71 0.939 . S
C85 C84 1.397 . S
C85 C86 1.378 . S
C86 C85 1.378 . S
C86 C87 1.378 . S
C87 H72 0.940 . S
C87 C86 1.378 . S
C87 C88 1.396 . S
C88 H73 0.940 . S
C88 C83 1.391 . S
C88 C87 1.396 . S
C89 P69 1.803 1_545 S
C89 C90 1.378 . S
C89 C94 1.400 . S
C90 H74 0.939 . S
C90 C89 1.378 . S
C90 C91 1.361 . S
C91 H75 0.942 . S
C91 C90 1.361 . S
C91 C92 1.369 . S
C92 C91 1.369 . S
C92 C93 1.404 . S
C93 H76 0.940 . S
C93 C92 1.404 . S
C93 C94 1.389 . S
C94 H77 0.939 . S
C94 C89 1.400 . S
C94 C93 1.389 . S
C95 P69 1.819 1_545 S
C95 C96 1.391 1_545 S
C95 C100 1.391 . S
C96 H78 0.941 . S
C96 C95 1.391 1_565 S
C96 C97 1.396 . S
C97 H81 0.939 . S
C97 C96 1.396 . S
C97 C98 1.397 1_565 S
C98 C97 1.397 1_545 S
C98 C99 1.385 . S
C99 H82 0.940 . S
C99 C98 1.385 . S
C99 C100 1.388 . S
C100 H79 0.939 . S
C100 C95 1.391 . S
C100 C99 1.388 . S
P101 O112 1.490 . S
P101 C115 1.812 . S
P101 C121 1.803 . S
P101 C127 1.819 . S
H102 C116 0.941 . S
H103 C117 0.939 . S
H104 C119 0.940 . S
H105 C120 0.940 . S
H106 C122 0.939 . S
H107 C123 0.942 . S
H108 C125 0.940 . S
H109 C126 0.939 . S
H110 C128 0.941 . S
H111 C132 0.939 . S
O112 P101 1.490 . S
H113 C129 0.939 . S
H114 C131 0.940 . S
C115 P101 1.812 . S
C115 C116 1.389 . S
C115 C120 1.391 . S
C116 H102 0.941 . S
C116 C115 1.389 . S
C116 C117 1.397 . S
C117 H103 0.939 . S
C117 C116 1.397 . S
C117 C118 1.378 . S
C118 C117 1.378 . S
C118 C119 1.378 . S
C119 H104 0.940 . S
C119 C118 1.378 . S
C119 C120 1.396 . S
C120 H105 0.940 . S
C120 C115 1.391 . S
C120 C119 1.396 . S
C121 P101 1.803 . S
C121 C122 1.378 . S
C121 C126 1.400 . S
C122 H106 0.939 . S
C122 C121 1.378 . S
C122 C123 1.361 . S
C123 H107 0.942 . S
C123 C122 1.361 . S
C123 C124 1.369 . S
C124 C123 1.369 . S
C124 C125 1.404 . S
C125 H108 0.940 . S
C125 C124 1.404 . S
C125 C126 1.389 . S
C126 H109 0.939 . S
C126 C121 1.400 . S
C126 C125 1.389 . S
C127 P101 1.819 . S
C127 C128 1.391 . S
C127 C132 1.391 . S
C128 H110 0.941 . S
C128 C127 1.391 . S
C128 C129 1.396 . S
C129 H113 0.939 . S
C129 C128 1.396 . S
C129 C130 1.397 . S
C130 C129 1.397 . S
C130 C131 1.385 . S
C131 H114 0.940 . S
C131 C130 1.385 . S
C131 C132 1.388 . S
C132 H111 0.939 . S
C132 C127 1.391 . S
C132 C131 1.388 . S
P133 O144 1.490 . S
P133 C147 1.812 . S
P133 C153 1.803 . S
P133 C159 1.819 . S
H134 C148 0.941 . S
H135 C149 0.939 . S
H136 C151 0.940 . S
H137 C152 0.940 . S
H138 C154 0.939 . S
H139 C155 0.942 . S
H140 C157 0.940 . S
H141 C158 0.939 . S
H142 C160 0.941 . S
H143 C164 0.939 1_655 S
O144 P133 1.490 . S
H145 C161 0.939 . S
H146 C163 0.940 . S
C147 P133 1.812 . S
C147 C148 1.389 . S
C147 C152 1.391 . S
C148 H134 0.941 . S
C148 C147 1.389 . S
C148 C149 1.397 . S
C149 H135 0.939 . S
C149 C148 1.397 . S
C149 C150 1.378 . S
C150 C149 1.378 . S
C150 C151 1.378 . S
C151 H136 0.940 . S
C151 C150 1.378 . S
C151 C152 1.396 . S
C152 H137 0.940 . S
C152 C147 1.391 . S
C152 C151 1.396 . S
C153 P133 1.803 . S
C153 C154 1.378 1_455 S
C153 C158 1.400 1_455 S
C154 H138 0.939 . S
C154 C153 1.378 1_655 S
C154 C155 1.361 . S
C155 H139 0.942 . S
C155 C154 1.361 . S
C155 C156 1.369 . S
C156 C155 1.369 . S
C156 C157 1.404 . S
C157 H140 0.940 . S
C157 C156 1.404 . S
C157 C158 1.389 . S
C158 H141 0.939 . S
C158 C153 1.400 1_655 S
C158 C157 1.389 . S
C159 P133 1.819 . S
C159 C160 1.391 . S
C159 C164 1.391 . S
C160 H142 0.941 . S
C160 C159 1.391 . S
C160 C161 1.396 . S
C161 H145 0.939 . S
C161 C160 1.396 . S
C161 C162 1.397 . S
C162 C161 1.397 . S
C162 C163 1.385 1_455 S
C163 H146 0.940 . S
C163 C162 1.385 1_655 S
C163 C164 1.388 1_655 S
C164 H143 0.939 1_455 S
C164 C159 1.391 . S
C164 C163 1.388 1_455 S
P165 O176 1.490 . S
P165 C179 1.812 . S
P165 C185 1.803 1_455 S
P165 C191 1.819 . S
H166 C180 0.941 . S
H167 C181 0.939 . S
H168 C183 0.940 . S
H169 C184 0.940 . S
H170 C186 0.939 . S
H171 C187 0.942 . S
H172 C189 0.940 . S
H173 C190 0.939 . S
H174 C192 0.941 . S
H175 C196 0.939 . S
O176 P165 1.490 . S
H177 C193 0.939 . S
H178 C195 0.940 . S
C179 P165 1.812 . S
C179 C180 1.389 . S
C179 C184 1.391 . S
C180 H166 0.941 . S
C180 C179 1.389 . S
C180 C181 1.397 . S
C181 H167 0.939 . S
C181 C180 1.397 . S
C181 C182 1.378 . S
C182 C181 1.378 . S
C182 C183 1.378 . S
C183 H168 0.940 . S
C183 C182 1.378 . S
C183 C184 1.396 . S
C184 H169 0.940 . S
C184 C179 1.391 . S
C184 C183 1.396 . S
C185 P165 1.803 1_655 S
C185 C186 1.378 . S
C185 C190 1.400 . S
C186 H170 0.939 . S
C186 C185 1.378 . S
C186 C187 1.361 . S
C187 H171 0.942 . S
C187 C186 1.361 . S
C187 C188 1.369 . S
C188 C187 1.369 . S
C188 C189 1.404 . S
C189 H172 0.940 . S
C189 C188 1.404 . S
C189 C190 1.389 . S
C190 H173 0.939 . S
C190 C185 1.400 . S
C190 C189 1.389 . S
C191 P165 1.819 . S
C191 C192 1.391 . S
C191 C196 1.391 1_455 S
C192 H174 0.941 . S
C192 C191 1.391 . S
C192 C193 1.396 . S
C193 H177 0.939 . S
C193 C192 1.396 . S
C193 C194 1.397 . S
C194 C193 1.397 . S
C194 C195 1.385 1_455 S
C195 H178 0.940 . S
C195 C194 1.385 1_655 S
C195 C196 1.388 . S
C196 H175 0.939 . S
C196 C191 1.391 1_655 S
C196 C195 1.388 . S
P197 O208 1.490 . S
P197 C211 1.812 . S
P197 C217 1.803 1_545 S
P197 C223 1.819 . S
H198 C212 0.941 . S
H199 C213 0.939 . S
H200 C215 0.940 . S
H201 C216 0.940 . S
H202 C218 0.939 . S
H203 C219 0.942 . S
H204 C221 0.940 . S
H205 C222 0.939 . S
H206 C224 0.941 . S
H207 C228 0.939 . S
O208 P197 1.490 . S
H209 C225 0.939 . S
H210 C227 0.940 . S
C211 P197 1.812 . S
C211 C212 1.389 . S
C211 C216 1.391 . S
C212 H198 0.941 . S
C212 C211 1.389 . S
C212 C213 1.397 . S
C213 H199 0.939 . S
C213 C212 1.397 . S
C213 C214 1.378 . S
C214 C213 1.378 . S
C214 C215 1.378 . S
C215 H200 0.940 . S
C215 C214 1.378 . S
C215 C216 1.396 . S
C216 H201 0.940 . S
C216 C211 1.391 . S
C216 C215 1.396 . S
C217 P197 1.803 1_565 S
C217 C218 1.378 . S
C217 C222 1.400 . S
C218 H202 0.939 . S
C218 C217 1.378 . S
C218 C219 1.361 . S
C219 H203 0.942 . S
C219 C218 1.361 . S
C219 C220 1.369 . S
C220 C219 1.369 . S
C220 C221 1.404 . S
C221 H204 0.940 . S
C221 C220 1.404 . S
C221 C222 1.389 . S
C222 H205 0.939 . S
C222 C217 1.400 . S
C222 C221 1.389 . S
C223 P197 1.819 . S
C223 C224 1.391 . S
C223 C228 1.391 1_545 S
C224 H206 0.941 . S
C224 C223 1.391 . S
C224 C225 1.396 . S
C225 H209 0.939 . S
C225 C224 1.396 . S
C225 C226 1.397 . S
C226 C225 1.397 . S
C226 C227 1.385 1_545 S
C227 H210 0.940 . S
C227 C226 1.385 1_565 S
C227 C228 1.388 . S
C228 H207 0.939 . S
C228 C223 1.391 1_565 S
C228 C227 1.388 . S
P229 O240 1.490 . S
P229 C243 1.812 . S
P229 C249 1.803 . S
P229 C255 1.819 . S
H230 C244 0.941 . S
H231 C245 0.939 . S
H232 C247 0.940 . S
H233 C248 0.940 . S
H234 C250 0.939 . S
H235 C251 0.942 . S
H236 C253 0.940 . S
H237 C254 0.939 . S
H238 C256 0.941 . S
H239 C260 0.939 . S
O240 P229 1.490 . S
H241 C257 0.939 . S
H242 C259 0.940 . S
C243 P229 1.812 . S
C243 C244 1.389 . S
C243 C248 1.391 . S
C244 H230 0.941 . S
C244 C243 1.389 . S
C244 C245 1.397 . S
C245 H231 0.939 . S
C245 C244 1.397 . S
C245 C246 1.378 . S
C246 C245 1.378 . S
C246 C247 1.378 . S
C247 H232 0.940 . S
C247 C246 1.378 . S
C247 C248 1.396 . S
C248 H233 0.940 . S
C248 C243 1.391 . S
C248 C247 1.396 . S
C249 P229 1.803 . S
C249 C250 1.378 . S
C249 C254 1.400 . S
C250 H234 0.939 . S
C250 C249 1.378 . S
C250 C251 1.361 . S
C251 H235 0.942 . S
C251 C250 1.361 . S
C251 C252 1.369 . S
C252 C251 1.369 . S
C252 C253 1.404 . S
C253 H236 0.940 . S
C253 C252 1.404 . S
C253 C254 1.389 . S
C254 H237 0.939 . S
C254 C249 1.400 . S
C254 C253 1.389 . S
C255 P229 1.819 . S
C255 C256 1.391 . S
C255 C260 1.391 . S
C256 H238 0.941 . S
C256 C255 1.391 . S
C256 C257 1.396 . S
C257 H241 0.939 . S
C257 C256 1.396 . S
C257 C258 1.397 . S
C258 C257 1.397 . S
C258 C259 1.385 . S
C259 H242 0.940 . S
C259 C258 1.385 . S
C259 C260 1.388 . S
C260 H239 0.939 . S
C260 C255 1.391 . S
C260 C259 1.388 . S
C261 C262 1.386 . S
C261 C263 1.383 . S
C261 H277 0.951 . S
C262 C261 1.386 . S
C262 C266 1.383 . S
C263 C261 1.383 . S
C263 C264 1.402 . S
C263 H278 0.951 . S
C264 C263 1.402 . S
C264 C265 1.375 . S
C264 C267 1.481 . S
C265 C264 1.375 . S
C265 C266 1.367 . S
C265 H279 0.951 . S
C266 C262 1.383 . S
C266 C265 1.367 . S
C266 H280 0.950 . S
C267 C264 1.481 . S
C267 C268 1.297 . S
C267 H281 0.950 . S
C268 C267 1.297 . S
C268 C269 1.479 . S
C268 H282 0.950 . S
C269 C268 1.479 . S
C269 C270 1.375 . S
C269 C275 1.404 . S
C270 C269 1.375 . S
C270 C271 1.369 . S
C270 H283 0.950 . S
C271 C270 1.369 . S
C271 C272 1.392 . S
C271 H284 0.951 . S
C272 C271 1.392 . S
C272 C274 1.384 . S
H273 C275 0.949 . S
C274 C272 1.384 . S
C274 C275 1.385 . S
C274 H276 0.950 . S
C275 C269 1.404 . S
C275 H273 0.949 . S
C275 C274 1.385 . S
H276 C274 0.950 . S
H277 C261 0.951 . S
H278 C263 0.951 . S
H279 C265 0.951 . S
H280 C266 0.950 . S
H281 C267 0.950 . S
H282 C268 0.950 . S
H283 C270 0.950 . S
H284 C271 0.951 . S
C285 C286 1.386 . S
C285 C287 1.383 . S
C285 H301 0.951 . S
C286 C285 1.386 . S
C286 C290 1.383 . S
C287 C285 1.383 . S
C287 C288 1.402 . S
C287 H302 0.951 . S
C288 C287 1.402 . S
C288 C289 1.375 . S
C288 C291 1.481 . S
C289 C288 1.375 . S
C289 C290 1.367 . S
C289 H303 0.951 . S
C290 C286 1.383 . S
C290 C289 1.367 . S
C290 H304 0.950 . S
C291 C288 1.481 . S
C291 C292 1.297 . S
C291 H305 0.950 . S
C292 C291 1.297 . S
C292 C293 1.479 . S
C292 H306 0.950 . S
C293 C292 1.479 . S
C293 C294 1.375 . S
C293 C299 1.404 . S
C294 C293 1.375 . S
C294 C295 1.369 . S
C294 H307 0.950 . S
C295 C294 1.369 . S
C295 C296 1.392 . S
C295 H308 0.951 . S
C296 C295 1.392 . S
C296 C298 1.384 . S
H297 C299 0.949 . S
C298 C296 1.384 . S
C298 C299 1.385 . S
C298 H300 0.950 . S
C299 C293 1.404 . S
C299 H297 0.949 . S
C299 C298 1.385 . S
H300 C298 0.950 . S
H301 C285 0.951 . S
H302 C287 0.951 . S
H303 C289 0.951 . S
H304 C290 0.950 . S
H305 C291 0.950 . S
H306 C292 0.950 . S
H307 C294 0.950 . S
H308 C295 0.951 . S
C309 C310 1.386 . S
C309 C311 1.383 . S
C309 H325 0.951 . S
C310 C309 1.386 . S
C310 C314 1.383 . S
C311 C309 1.383 . S
C311 C312 1.402 . S
C311 H326 0.951 . S
C312 C311 1.402 . S
C312 C313 1.375 . S
C312 C315 1.481 . S
C313 C312 1.375 . S
C313 C314 1.367 . S
C313 H327 0.951 . S
C314 C310 1.383 . S
C314 C313 1.367 . S
C314 H328 0.950 . S
C315 C312 1.481 . S
C315 C316 1.297 . S
C315 H329 0.950 . S
C316 C315 1.297 . S
C316 C317 1.479 . S
C316 H330 0.950 . S
C317 C316 1.479 . S
C317 C318 1.375 . S
C317 C323 1.404 . S
C318 C317 1.375 . S
C318 C319 1.369 . S
C318 H331 0.950 . S
C319 C318 1.369 . S
C319 C320 1.392 . S
C319 H332 0.951 . S
C320 C319 1.392 . S
C320 C322 1.384 . S
H321 C323 0.949 . S
C322 C320 1.384 . S
C322 C323 1.385 . S
C322 H324 0.950 . S
C323 C317 1.404 . S
C323 H321 0.949 . S
C323 C322 1.385 . S
H324 C322 0.950 . S
H325 C309 0.951 . S
H326 C311 0.951 . S
H327 C313 0.951 . S
H328 C314 0.950 . S
H329 C315 0.950 . S
H330 C316 0.950 . S
H331 C318 0.950 . S
H332 C319 0.951 . S
C333 C334 1.386 . S
C333 C335 1.383 . S
C333 H349 0.951 . S
C334 C333 1.386 . S
C334 C338 1.383 . S
C335 C333 1.383 . S
C335 C336 1.402 . S
C335 H350 0.951 . S
C336 C335 1.402 . S
C336 C337 1.375 . S
C336 C339 1.481 . S
C337 C336 1.375 . S
C337 C338 1.367 . S
C337 H351 0.951 . S
C338 C334 1.383 . S
C338 C337 1.367 . S
C338 H352 0.950 . S
C339 C336 1.481 . S
C339 C340 1.297 . S
C339 H353 0.950 . S
C340 C339 1.297 . S
C340 C341 1.479 . S
C340 H354 0.950 . S
C341 C340 1.479 . S
C341 C342 1.375 . S
C341 C347 1.404 . S
C342 C341 1.375 . S
C342 C343 1.369 . S
C342 H355 0.950 . S
C343 C342 1.369 . S
C343 C344 1.392 . S
C343 H356 0.951 . S
C344 C343 1.392 . S
C344 C346 1.384 . S
H345 C347 0.949 . S
C346 C344 1.384 . S
C346 C347 1.385 . S
C346 H348 0.950 . S
C347 C341 1.404 . S
C347 H345 0.949 . S
C347 C346 1.385 . S
H348 C346 0.950 . S
H349 C333 0.951 . S
H350 C335 0.951 . S
H351 C337 0.951 . S
H352 C338 0.950 . S
H353 C339 0.950 . S
H354 C340 0.950 . S
H355 C342 0.950 . S
H356 C343 0.951 . S
C357 C358 1.386 . S
C357 C359 1.383 . S
C357 H373 0.951 . S
C358 C357 1.386 . S
C358 C362 1.383 . S
C359 C357 1.383 . S
C359 C360 1.402 . S
C359 H374 0.951 . S
C360 C359 1.402 . S
C360 C361 1.375 . S
C360 C363 1.481 . S
C361 C360 1.375 . S
C361 C362 1.367 . S
C361 H375 0.951 . S
C362 C358 1.383 . S
C362 C361 1.367 . S
C362 H376 0.950 . S
C363 C360 1.481 . S
C363 C364 1.297 . S
C363 H377 0.950 . S
C364 C363 1.297 . S
C364 C365 1.479 . S
C364 H378 0.950 . S
C365 C364 1.479 . S
C365 C366 1.375 . S
C365 C371 1.404 . S
C366 C365 1.375 . S
C366 C367 1.369 . S
C366 H379 0.950 . S
C367 C366 1.369 . S
C367 C368 1.392 . S
C367 H380 0.951 . S
C368 C367 1.392 . S
C368 C370 1.384 . S
H369 C371 0.949 . S
C370 C368 1.384 . S
C370 C371 1.385 . S
C370 H372 0.950 . S
C371 C365 1.404 . S
C371 H369 0.949 . S
C371 C370 1.385 . S
H372 C370 0.950 . S
H373 C357 0.951 . S
H374 C359 0.951 . S
H375 C361 0.951 . S
H376 C362 0.950 . S
H377 C363 0.950 . S
H378 C364 0.950 . S
H379 C366 0.950 . S
H380 C367 0.951 . S
C381 C382 1.386 . S
C381 C383 1.383 . S
C381 H397 0.951 . S
C382 C381 1.386 . S
C382 C386 1.383 . S
C383 C381 1.383 . S
C383 C384 1.402 . S
C383 H398 0.951 . S
C384 C383 1.402 . S
C384 C385 1.375 . S
C384 C387 1.481 . S
C385 C384 1.375 . S
C385 C386 1.367 . S
C385 H399 0.951 . S
C386 C382 1.383 . S
C386 C385 1.367 . S
C386 H400 0.950 . S
C387 C384 1.481 . S
C387 C388 1.297 . S
C387 H401 0.950 . S
C388 C387 1.297 . S
C388 C389 1.479 . S
C388 H402 0.950 . S
C389 C388 1.479 . S
C389 C390 1.375 . S
C389 C395 1.404 . S
C390 C389 1.375 . S
C390 C391 1.369 . S
C390 H403 0.950 . S
C391 C390 1.369 . S
C391 C392 1.392 . S
C391 H404 0.951 . S
C392 C391 1.392 . S
C392 C394 1.384 . S
H393 C395 0.949 . S
C394 C392 1.384 . S
C394 C395 1.385 . S
C394 H396 0.950 . S
C395 C389 1.404 . S
C395 H393 0.949 . S
C395 C394 1.385 . S
H396 C394 0.950 . S
H397 C381 0.951 . S
H398 C383 0.951 . S
H399 C385 0.951 . S
H400 C386 0.950 . S
H401 C387 0.950 . S
H402 C388 0.950 . S
H403 C390 0.950 . S
H404 C391 0.951 . S
C405 C406 1.386 . S
C405 C407 1.383 . S
C405 H421 0.951 . S
C406 C405 1.386 . S
C406 C410 1.383 . S
C407 C405 1.383 . S
C407 C408 1.402 . S
C407 H422 0.951 . S
C408 C407 1.402 . S
C408 C409 1.375 . S
C408 C411 1.481 . S
C409 C408 1.375 . S
C409 C410 1.367 . S
C409 H423 0.951 . S
C410 C406 1.383 . S
C410 C409 1.367 . S
C410 H424 0.950 . S
C411 C408 1.481 . S
C411 C412 1.297 . S
C411 H425 0.950 . S
C412 C411 1.297 . S
C412 C413 1.479 . S
C412 H426 0.950 . S
C413 C412 1.479 . S
C413 C414 1.375 . S
C413 C419 1.404 . S
C414 C413 1.375 . S
C414 C415 1.369 . S
C414 H427 0.950 . S
C415 C414 1.369 . S
C415 C416 1.392 . S
C415 H428 0.951 . S
C416 C415 1.392 . S
C416 C418 1.384 . S
H417 C419 0.949 . S
C418 C416 1.384 . S
C418 C419 1.385 . S
C418 H420 0.950 . S
C419 C413 1.404 . S
C419 H417 0.949 . S
C419 C418 1.385 . S
H420 C418 0.950 . S
H421 C405 0.951 . S
H422 C407 0.951 . S
H423 C409 0.951 . S
H424 C410 0.950 . S
H425 C411 0.950 . S
H426 C412 0.950 . S
H427 C414 0.950 . S
H428 C415 0.951 . S
C429 C430 1.386 . S
C429 C431 1.383 . S
C429 H445 0.951 . S
C430 C429 1.386 . S
C430 C434 1.383 . S
C431 C429 1.383 . S
C431 C432 1.402 . S
C431 H446 0.951 . S
C432 C431 1.402 . S
C432 C433 1.375 . S
C432 C435 1.481 . S
C433 C432 1.375 . S
C433 C434 1.367 . S
C433 H447 0.951 . S
C434 C430 1.383 . S
C434 C433 1.367 . S
C434 H448 0.950 . S
C435 C432 1.481 . S
C435 C436 1.297 . S
C435 H449 0.950 . S
C436 C435 1.297 . S
C436 C437 1.479 . S
C436 H450 0.950 . S
C437 C436 1.479 . S
C437 C438 1.375 . S
C437 C443 1.404 . S
C438 C437 1.375 . S
C438 C439 1.369 . S
C438 H451 0.950 . S
C439 C438 1.369 . S
C439 C440 1.392 . S
C439 H452 0.951 . S
C440 C439 1.392 . S
C440 C442 1.384 . S
H441 C443 0.949 . S
C442 C440 1.384 . S
C442 C443 1.385 . S
C442 H444 0.950 . S
C443 C437 1.404 . S
C443 H441 0.949 . S
C443 C442 1.385 . S
H444 C442 0.950 . S
H445 C429 0.951 . S
H446 C431 0.951 . S
H447 C433 0.951 . S
H448 C434 0.950 . S
H449 C435 0.950 . S
H450 C436 0.950 . S
H451 C438 0.950 . S
H452 C439 0.951 . S
C453 C454 1.386 . S
C453 C455 1.383 . S
C453 H469 0.951 . S
C454 C453 1.386 . S
C454 C458 1.383 . S
C455 C453 1.383 . S
C455 C456 1.402 . S
C455 H470 0.951 . S
C456 C455 1.402 . S
C456 C457 1.375 . S
C456 C459 1.481 . S
C457 C456 1.375 . S
C457 C458 1.367 . S
C457 H471 0.951 . S
C458 C454 1.383 . S
C458 C457 1.367 . S
C458 H472 0.950 . S
C459 C456 1.481 . S
C459 C460 1.297 . S
C459 H473 0.950 . S
C460 C459 1.297 . S
C460 C461 1.479 . S
C460 H474 0.950 . S
C461 C460 1.479 . S
C461 C462 1.375 . S
C461 C467 1.404 . S
C462 C461 1.375 . S
C462 C463 1.369 . S
C462 H475 0.950 . S
C463 C462 1.369 . S
C463 C464 1.392 . S
C463 H476 0.951 . S
C464 C463 1.392 . S
C464 C466 1.384 . S
H465 C467 0.949 . S
C466 C464 1.384 . S
C466 C467 1.385 . S
C466 H468 0.950 . S
C467 C461 1.404 . S
C467 H465 0.949 . S
C467 C466 1.385 . S
H468 C466 0.950 . S
H469 C453 0.951 . S
H470 C455 0.951 . S
H471 C457 0.951 . S
H472 C458 0.950 . S
H473 C459 0.950 . S
H474 C460 0.950 . S
H475 C462 0.950 . S
H476 C463 0.951 . S
C477 C478 1.386 . S
C477 C479 1.383 . S
C477 H493 0.951 . S
C478 C477 1.386 . S
C478 C482 1.383 . S
C479 C477 1.383 . S
C479 C480 1.402 . S
C479 H494 0.951 . S
C480 C479 1.402 . S
C480 C481 1.375 . S
C480 C483 1.481 . S
C481 C480 1.375 . S
C481 C482 1.367 . S
C481 H495 0.951 . S
C482 C478 1.383 . S
C482 C481 1.367 . S
C482 H496 0.950 . S
C483 C480 1.481 . S
C483 C484 1.297 . S
C483 H497 0.950 . S
C484 C483 1.297 . S
C484 C485 1.479 . S
C484 H498 0.950 . S
C485 C484 1.479 . S
C485 C486 1.375 . S
C485 C491 1.404 . S
C486 C485 1.375 . S
C486 C487 1.369 . S
C486 H499 0.950 . S
C487 C486 1.369 . S
C487 C488 1.392 . S
C487 H500 0.951 . S
C488 C487 1.392 . S
C488 C490 1.384 . S
H489 C491 0.949 . S
C490 C488 1.384 . S
C490 C491 1.385 . S
C490 H492 0.950 . S
C491 C485 1.404 . S
C491 H489 0.949 . S
C491 C490 1.385 . S
H492 C490 0.950 . S
H493 C477 0.951 . S
H494 C479 0.951 . S
H495 C481 0.951 . S
H496 C482 0.950 . S
H497 C483 0.950 . S
H498 C484 0.950 . S
H499 C486 0.950 . S
H500 C487 0.951 . S
C501 C502 1.386 . S
C501 C503 1.383 . S
C501 H517 0.951 . S
C502 C501 1.386 . S
C502 C506 1.383 . S
C503 C501 1.383 . S
C503 C504 1.402 . S
C503 H518 0.951 . S
C504 C503 1.402 . S
C504 C505 1.375 . S
C504 C507 1.481 . S
C505 C504 1.375 . S
C505 C506 1.367 . S
C505 H519 0.951 . S
C506 C502 1.383 . S
C506 C505 1.367 . S
C506 H520 0.950 . S
C507 C504 1.481 . S
C507 C508 1.297 . S
C507 H521 0.950 . S
C508 C507 1.297 . S
C508 C509 1.479 . S
C508 H522 0.950 . S
C509 C508 1.479 . S
C509 C510 1.375 . S
C509 C515 1.404 . S
C510 C509 1.375 . S
C510 C511 1.369 . S
C510 H523 0.950 . S
C511 C510 1.369 . S
C511 C512 1.392 . S
C511 H524 0.951 . S
C512 C511 1.392 . S
C512 C514 1.384 . S
H513 C515 0.949 . S
C514 C512 1.384 . S
C514 C515 1.385 . S
C514 H516 0.950 . S
C515 C509 1.404 . S
C515 H513 0.949 . S
C515 C514 1.385 . S
H516 C514 0.950 . S
H517 C501 0.951 . S
H518 C503 0.951 . S
H519 C505 0.951 . S
H520 C506 0.950 . S
H521 C507 0.950 . S
H522 C508 0.950 . S
H523 C510 0.950 . S
H524 C511 0.951 . S
C525 C526 1.386 . S
C525 C527 1.383 . S
C525 H541 0.951 . S
C526 C525 1.386 . S
C526 C530 1.383 . S
C527 C525 1.383 . S
C527 C528 1.402 . S
C527 H542 0.951 . S
C528 C527 1.402 . S
C528 C529 1.375 . S
C528 C531 1.481 . S
C529 C528 1.375 . S
C529 C530 1.367 . S
C529 H543 0.951 . S
C530 C526 1.383 . S
C530 C529 1.367 . S
C530 H544 0.950 . S
C531 C528 1.481 . S
C531 C532 1.297 . S
C531 H545 0.950 . S
C532 C531 1.297 . S
C532 C533 1.479 . S
C532 H546 0.950 . S
C533 C532 1.479 . S
C533 C534 1.375 . S
C533 C539 1.404 . S
C534 C533 1.375 . S
C534 C535 1.369 . S
C534 H547 0.950 . S
C535 C534 1.369 . S
C535 C536 1.392 . S
C535 H548 0.951 . S
C536 C535 1.392 . S
C536 C538 1.384 . S
H537 C539 0.949 . S
C538 C536 1.384 . S
C538 C539 1.385 . S
C538 H540 0.950 . S
C539 C533 1.404 . S
C539 H537 0.949 . S
C539 C538 1.385 . S
H540 C538 0.950 . S
H541 C525 0.951 . S
H542 C527 0.951 . S
H543 C529 0.951 . S
H544 C530 0.950 . S
H545 C531 0.950 . S
H546 C532 0.950 . S
H547 C534 0.950 . S
H548 C535 0.951 . S
C549 C550 1.386 . S
C549 C551 1.383 . S
C549 H565 0.951 . S
C550 C549 1.386 . S
C550 C554 1.383 1_455 S
C551 C549 1.383 . S
C551 C552 1.402 . S
C551 H566 0.951 . S
C552 C551 1.402 . S
C552 C553 1.375 1_455 S
C552 C555 1.481 1_455 S
C553 C552 1.375 1_655 S
C553 C554 1.367 . S
C553 H567 0.951 . S
C554 C550 1.383 1_655 S
C554 C553 1.367 . S
C554 H568 0.950 . S
C555 C552 1.481 1_655 S
C555 C556 1.297 1_655 S
C555 H569 0.950 . S
C556 C555 1.297 1_455 S
C556 C557 1.479 . S
C556 H570 0.950 . S
C557 C556 1.479 . S
C557 C558 1.375 . S
C557 C563 1.404 1_455 S
C558 C557 1.375 . S
C558 C559 1.369 1_554 S
C558 H571 0.950 . S
C559 C558 1.369 1_556 S
C559 C560 1.392 . S
C559 H572 0.951 . S
C560 C559 1.392 . S
C560 C562 1.384 1_455 S
H561 C563 0.949 . S
C562 C560 1.384 1_655 S
C562 C563 1.385 1_556 S
C562 H564 0.950 . S
C563 C557 1.404 1_655 S
C563 H561 0.949 . S
C563 C562 1.385 1_554 S
H564 C562 0.950 . S
H565 C549 0.951 . S
H566 C551 0.951 . S
H567 C553 0.951 . S
H568 C554 0.950 . S
H569 C555 0.950 . S
H570 C556 0.950 . S
H571 C558 0.950 . S
H572 C559 0.951 . S
C573 C574 1.386 . S
C573 C575 1.383 . S
C573 H589 0.951 . S
C574 C573 1.386 . S
C574 C578 1.383 . S
C575 C573 1.383 . S
C575 C576 1.402 . S
C575 H590 0.951 . S
C576 C575 1.402 . S
C576 C577 1.375 . S
C576 C579 1.481 . S
C577 C576 1.375 . S
C577 C578 1.367 . S
C577 H591 0.951 . S
C578 C574 1.383 . S
C578 C577 1.367 . S
C578 H592 0.950 . S
C579 C576 1.481 . S
C579 C580 1.297 1_545 S
C579 H593 0.950 . S
C580 C579 1.297 1_565 S
C580 C581 1.479 . S
C580 H594 0.950 . S
C581 C580 1.479 . S
C581 C582 1.375 1_565 S
C581 C587 1.404 . S
C582 C581 1.375 1_545 S
C582 C583 1.369 . S
C582 H595 0.950 . S
C583 C582 1.369 . S
C583 C584 1.392 . S
C583 H596 0.951 . S
C584 C583 1.392 . S
C584 C586 1.384 . S
H585 C587 0.949 . S
C586 C584 1.384 . S
C586 C587 1.385 1_545 S
C586 H588 0.950 . S
C587 C581 1.404 . S
C587 H585 0.949 . S
C587 C586 1.385 1_565 S
H588 C586 0.950 . S
H589 C573 0.951 . S
H590 C575 0.951 . S
H591 C577 0.951 . S
H592 C578 0.950 . S
H593 C579 0.950 . S
H594 C580 0.950 . S
H595 C582 0.950 . S
H596 C583 0.951 . S
C597 C598 1.386 . S
C597 C599 1.383 . S
C597 H613 0.951 . S
C598 C597 1.386 . S
C598 C602 1.383 . S
C599 C597 1.383 . S
C599 C600 1.402 . S
C599 H614 0.951 . S
C600 C599 1.402 . S
C600 C601 1.375 . S
C600 C603 1.481 . S
C601 C600 1.375 . S
C601 C602 1.367 . S
C601 H615 0.951 . S
C602 C598 1.383 . S
C602 C601 1.367 . S
C602 H616 0.950 . S
C603 C600 1.481 . S
C603 C604 1.297 . S
C603 H617 0.950 . S
C604 C603 1.297 . S
C604 C605 1.479 . S
C604 H618 0.950 . S
C605 C604 1.479 . S
C605 C606 1.375 . S
C605 C611 1.404 . S
C606 C605 1.375 . S
C606 C607 1.369 . S
C606 H619 0.950 . S
C607 C606 1.369 . S
C607 C608 1.392 . S
C607 H620 0.951 . S
C608 C607 1.392 . S
C608 C610 1.384 . S
H609 C611 0.949 . S
C610 C608 1.384 . S
C610 C611 1.385 . S
C610 H612 0.950 . S
C611 C605 1.404 . S
C611 H609 0.949 . S
C611 C610 1.385 . S
H612 C610 0.950 . S
H613 C597 0.951 . S
H614 C599 0.951 . S
H615 C601 0.951 . S
H616 C602 0.950 . S
H617 C603 0.950 . S
H618 C604 0.950 . S
H619 C606 0.950 . S
H620 C607 0.951 . S
C621 C622 1.386 . S
C621 C623 1.383 . S
C621 H637 0.951 . S
C622 C621 1.386 . S
C622 C626 1.383 1_545 S
C623 C621 1.383 . S
C623 C624 1.402 1_545 S
C623 H638 0.951 . S
C624 C623 1.402 1_565 S
C624 C625 1.375 . S
C624 C627 1.481 . S
C625 C624 1.375 . S
C625 C626 1.367 . S
C625 H639 0.951 . S
C626 C622 1.383 1_565 S
C626 C625 1.367 . S
C626 H640 0.950 . S
C627 C624 1.481 . S
C627 C628 1.297 1_565 S
C627 H641 0.950 . S
C628 C627 1.297 1_545 S
C628 C629 1.479 . S
C628 H642 0.950 . S
C629 C628 1.479 . S
C629 C630 1.375 . S
C629 C635 1.404 1_545 S
C630 C629 1.375 . S
C630 C631 1.369 . S
C630 H643 0.950 . S
C631 C630 1.369 . S
C631 C632 1.392 . S
C631 H644 0.951 . S
C632 C631 1.392 . S
C632 C634 1.384 1_545 S
H633 C635 0.949 . S
C634 C632 1.384 1_565 S
C634 C635 1.385 . S
C634 H636 0.950 . S
C635 C629 1.404 1_565 S
C635 H633 0.949 . S
C635 C634 1.385 . S
H636 C634 0.950 . S
H637 C621 0.951 . S
H638 C623 0.951 . S
H639 C625 0.951 . S
H640 C626 0.950 . S
H641 C627 0.950 . S
H642 C628 0.950 . S
H643 C630 0.950 . S
H644 C631 0.951 . S
C645 C646 1.386 . S
C645 C647 1.383 . S
C645 H661 0.951 . S
C646 C645 1.386 . S
C646 C650 1.383 . S
C647 C645 1.383 . S
C647 C648 1.402 . S
C647 H662 0.951 . S
C648 C647 1.402 . S
C648 C649 1.375 . S
C648 C651 1.481 . S
C649 C648 1.375 . S
C649 C650 1.367 . S
C649 H663 0.951 . S
C650 C646 1.383 . S
C650 C649 1.367 . S
C650 H664 0.950 . S
C651 C648 1.481 . S
C651 C652 1.297 . S
C651 H665 0.950 . S
C652 C651 1.297 . S
C652 C653 1.479 . S
C652 H666 0.950 . S
C653 C652 1.479 . S
C653 C654 1.375 . S
C653 C659 1.404 . S
C654 C653 1.375 . S
C654 C655 1.369 1_556 S
C654 H667 0.950 . S
C655 C654 1.369 1_554 S
C655 C656 1.392 . S
C655 H668 0.951 . S
C656 C655 1.392 . S
C656 C658 1.384 . S
H657 C659 0.949 . S
C658 C656 1.384 . S
C658 C659 1.385 1_554 S
C658 H660 0.950 . S
C659 C653 1.404 . S
C659 H657 0.949 . S
C659 C658 1.385 1_556 S
H660 C658 0.950 . S
H661 C645 0.951 . S
H662 C647 0.951 . S
H663 C649 0.951 . S
H664 C650 0.950 . S
H665 C651 0.950 . S
H666 C652 0.950 . S
H667 C654 0.950 . S
H668 C655 0.951 . S
C669 C670 1.386 . S
C669 C671 1.383 . S
C669 H685 0.951 . S
C670 C669 1.386 . S
C670 C674 1.383 . S
C671 C669 1.383 . S
C671 C672 1.402 . S
C671 H686 0.951 1_455 S
C672 C671 1.402 . S
C672 C673 1.375 . S
C672 C675 1.481 1_455 S
C673 C672 1.375 . S
C673 C674 1.367 . S
C673 H687 0.951 . S
C674 C670 1.383 . S
C674 C673 1.367 . S
C674 H688 0.950 . S
C675 C672 1.481 1_655 S
C675 C676 1.296 . S
C675 H689 0.951 1_655 S
C676 C675 1.296 . S
C676 C677 1.479 . S
C676 H690 0.950 . S
C677 C676 1.479 . S
C677 C678 1.375 . S
C677 C683 1.404 . S
C678 C677 1.375 . S
C678 C679 1.369 . S
C678 H691 0.950 . S
C679 C678 1.369 . S
C679 C680 1.392 1_655 S
C679 H692 0.948 . S
C680 C679 1.392 1_455 S
C680 C682 1.384 . S
H681 C683 0.949 . S
C682 C680 1.384 . S
C682 C683 1.385 1_455 S
C682 H684 0.951 . S
C683 C677 1.404 . S
C683 H681 0.949 . S
C683 C682 1.385 1_655 S
H684 C682 0.951 . S
H685 C669 0.951 . S
H686 C671 0.951 1_655 S
H687 C673 0.951 . S
H688 C674 0.950 . S
H689 C675 0.951 1_455 S
H690 C676 0.950 . S
H691 C678 0.950 . S
H692 C679 0.948 . S
C262 C20 1.116 . S
C272 C252 1.050 . S
C286 C41 1.186 . S
C296 C188 1.204 . S
C310 C64 1.206 . S
C320 C220 1.215 . S
C334 C19 1.230 . S
C344 C246 1.250 . S
C368 C182 1.185 . S
C358 C44 1.184 . S
C392 C214 1.152 . S
C382 C67 1.160 . S
C406 C43 1.165 . S
C416 C124 1.120 . S
C430 C66 1.085 . S
C440 C156 1.159 . S
C454 C21 1.173 . S
C464 C86 1.164 . S
C488 C118 1.166 . S
C478 C42 1.130 . S
C512 C150 1.242 . S
C502 C65 1.213 . S
C526 C18 1.190 . S
C536 C92 1.185 . S
C560 C162 1.461 . S
C550 C17 1.457 . S
C574 C39 1.454 . S
C584 C98 1.399 . S
C598 C62 1.474 . S
C608 C130 1.453 . S
C632 C226 1.440 . S
C622 C40 1.440 . S
C656 C258 1.457 . S
C646 C63 1.456 . S
C670 C16 1.455 . S
C680 C194 1.428 . S
