# Generated by pormake.
# Topology eea, (3,6)-cn, num edge types: 1
# Building blocks:
#     Node 0, Type 0, BuildingBlock: MIDCAF_clean_linker_0, # of connection points: 3
#     Node 1, Type 0, BuildingBlock: MIDCAF_clean_linker_0, # of connection points: 3
#     Node 2, Type 0, BuildingBlock: MIDCAF_clean_linker_0, # of connection points: 3
#     Node 3, Type 0, BuildingBlock: MIDCAF_clean_linker_0, # of connection points: 3
#     Node 4, Type 0, BuildingBlock: MIDCAF_clean_linker_0, # of connection points: 3
#     Node 5, Type 0, BuildingBlock: MIDCAF_clean_linker_0, # of connection points: 3
#     Node 6, Type 0, BuildingBlock: MIDCAF_clean_linker_0, # of connection points: 3
#     Node 7, Type 0, BuildingBlock: MIDCAF_clean_linker_0, # of connection points: 3
#     Node 8, Type 0, BuildingBlock: MIDCAF_clean_linker_0, # of connection points: 3
#     Node 9, Type 0, BuildingBlock: MIDCAF_clean_linker_0, # of connection points: 3
#     Node 10, Type 0, BuildingBlock: MIDCAF_clean_linker_0, # of connection points: 3
#     Node 11, Type 0, BuildingBlock: MIDCAF_clean_linker_0, # of connection points: 3
#     Node 12, Type 0, BuildingBlock: MIDCAF_clean_linker_0, # of connection points: 3
#     Node 13, Type 0, BuildingBlock: MIDCAF_clean_linker_0, # of connection points: 3
#     Node 14, Type 0, BuildingBlock: MIDCAF_clean_linker_0, # of connection points: 3
#     Node 15, Type 0, BuildingBlock: MIDCAF_clean_linker_0, # of connection points: 3
#     Node 16, Type 0, BuildingBlock: MIDCAF_clean_linker_0, # of connection points: 3
#     Node 17, Type 0, BuildingBlock: MIDCAF_clean_linker_0, # of connection points: 3
#     Node 18, Type 1, BuildingBlock: NUHQIS_clean_sbu_0, # of connection points: 6
#     Node 19, Type 1, BuildingBlock: NUHQIS_clean_sbu_0, # of connection points: 6
#     Node 20, Type 1, BuildingBlock: NUHQIS_clean_sbu_0, # of connection points: 6
#     Node 21, Type 1, BuildingBlock: NUHQIS_clean_sbu_0, # of connection points: 6
#     Node 22, Type 1, BuildingBlock: NUHQIS_clean_sbu_0, # of connection points: 6
#     Node 23, Type 1, BuildingBlock: NUHQIS_clean_sbu_0, # of connection points: 6
#     Node 24, Type 1, BuildingBlock: NUHQIS_clean_sbu_0, # of connection points: 6
#     Node 25, Type 1, BuildingBlock: NUHQIS_clean_sbu_0, # of connection points: 6
#     Node 26, Type 1, BuildingBlock: NUHQIS_clean_sbu_0, # of connection points: 6
#     Edge 27, Type (0, 1), None
#     Edge 28, Type (0, 1), None
#     Edge 29, Type (0, 1), None
#     Edge 30, Type (0, 1), None
#     Edge 31, Type (0, 1), None
#     Edge 32, Type (0, 1), None
#     Edge 33, Type (0, 1), None
#     Edge 34, Type (0, 1), None
#     Edge 35, Type (0, 1), None
#     Edge 36, Type (0, 1), None
#     Edge 37, Type (0, 1), None
#     Edge 38, Type (0, 1), None
#     Edge 39, Type (0, 1), None
#     Edge 40, Type (0, 1), None
#     Edge 41, Type (0, 1), None
#     Edge 42, Type (0, 1), None
#     Edge 43, Type (0, 1), None
#     Edge 44, Type (0, 1), None
#     Edge 45, Type (0, 1), None
#     Edge 46, Type (0, 1), None
#     Edge 47, Type (0, 1), None
#     Edge 48, Type (0, 1), None
#     Edge 49, Type (0, 1), None
#     Edge 50, Type (0, 1), None
#     Edge 51, Type (0, 1), None
#     Edge 52, Type (0, 1), None
#     Edge 53, Type (0, 1), None
#     Edge 54, Type (0, 1), None
#     Edge 55, Type (0, 1), None
#     Edge 56, Type (0, 1), None
#     Edge 57, Type (0, 1), None
#     Edge 58, Type (0, 1), None
#     Edge 59, Type (0, 1), None
#     Edge 60, Type (0, 1), None
#     Edge 61, Type (0, 1), None
#     Edge 62, Type (0, 1), None
#     Edge 63, Type (0, 1), None
#     Edge 64, Type (0, 1), None
#     Edge 65, Type (0, 1), None
#     Edge 66, Type (0, 1), None
#     Edge 67, Type (0, 1), None
#     Edge 68, Type (0, 1), None
#     Edge 69, Type (0, 1), None
#     Edge 70, Type (0, 1), None
#     Edge 71, Type (0, 1), None
#     Edge 72, Type (0, 1), None
#     Edge 73, Type (0, 1), None
#     Edge 74, Type (0, 1), None
#     Edge 75, Type (0, 1), None
#     Edge 76, Type (0, 1), None
#     Edge 77, Type (0, 1), None
#     Edge 78, Type (0, 1), None
#     Edge 79, Type (0, 1), None
#     Edge 80, Type (0, 1), None
# Relax obj value: 0.034
# Max RMSD: 0.131
# Mean RMSD: 0.113
data_MOF--net-eea--node1-NUHQIS_clean_sbu_0--node2-MIDCAF_clean_linker_0--edge1-none
_symmetry_space_group_name_H-M    P1
_symmetry_Int_Tables_number       1
_symmetry_cell_setting            triclinic
loop_
_symmetry_equiv_pos_as_xyz
'x, y, z'
_cell_length_a     33.628486
_cell_length_b     33.843621
_cell_length_c     55.340496
_cell_angle_alpha  92.218816
_cell_angle_beta   92.000544
_cell_angle_gamma 119.98373
loop_
_atom_site_label
_atom_site_type_symbol
_atom_site_fract_x
_atom_site_fract_y
_atom_site_fract_z
_atom_type_partial_charge
C0 C 0.23665 0.97287 0.40111 0.0
C1 C 0.20625 0.9573 0.38038 0.0
C2 C 0.19284 0.98657 0.37024 0.0
C3 C 0.20925 0.0305 0.38074 0.0
H4 H 0.23115 0.15952 0.36662 0.0
H5 H 0.20359 0.20605 0.34781 0.0
H6 H 0.22382 0.27991 0.41682 0.0
H7 H 0.25134 0.2336 0.43563 0.0
H8 H 0.32107 0.22235 0.47718 0.0
H9 H 0.3516 0.23575 0.51936 0.0
H10 H 0.32956 0.0986 0.51813 0.0
H11 H 0.29918 0.08493 0.47638 0.0
H12 H 0.27581 0.02742 0.42785 0.0
H13 H 0.24759 0.95107 0.40936 0.0
H14 H 0.16967 0.97562 0.35416 0.0
H15 H 0.19789 0.05205 0.3726 0.0
N16 N 0.24494 0.12125 0.40293 0.0
N17 N 0.27707 0.17256 0.43722 0.0
N18 N 0.27508 0.10229 0.43629 0.0
C19 C 0.25634 0.16197 0.41444 0.0
C20 C 0.28676 0.14277 0.44819 0.0
C21 C 0.25422 0.09127 0.41372 0.0
C22 C 0.24321 0.19268 0.4027 0.0
C23 C 0.22988 0.18583 0.37778 0.0
C24 C 0.21412 0.21249 0.36695 0.0
C25 C 0.21087 0.24615 0.38088 0.0
C26 C 0.22518 0.25369 0.40565 0.0
C27 C 0.24138 0.22741 0.41642 0.0
C28 C 0.30741 0.15251 0.47335 0.0
C29 C 0.32293 0.19514 0.48587 0.0
C30 C 0.34061 0.20292 0.50996 0.0
C31 C 0.34263 0.16808 0.522 0.0
C32 C 0.32785 0.12585 0.50939 0.0
C33 C 0.31062 0.1182 0.48536 0.0
C34 C 0.23908 0.04586 0.40173 0.0
C35 C 0.2528 0.01666 0.41172 0.0
C36 C 0.03047 0.25633 0.40171 0.0
C37 C 0.04081 0.24007 0.38038 0.0
C38 C 0.01098 0.19484 0.37143 0.0
C39 C 0.97168 0.16657 0.38354 0.0
H40 H 0.84253 0.0521 0.37168 0.0
H41 H 0.78602 0.97805 0.35254 0.0
H42 H 0.7286 0.93387 0.42173 0.0
H43 H 0.78499 0.00808 0.4409 0.0
H44 H 0.8302 0.07761 0.48677 0.0
H45 H 0.81148 0.09525 0.52625 0.0
H46 H 0.88324 0.23891 0.5134 0.0
H47 H 0.90268 0.22125 0.47345 0.0
H48 H 0.98483 0.24173 0.4303 0.0
H49 H 0.05284 0.29095 0.40929 0.0
H50 H 0.01795 0.18125 0.35511 0.0
H51 H 0.94953 0.13179 0.37614 0.0
N52 N 0.88936 0.11043 0.40765 0.0
N53 N 0.84596 0.09406 0.44173 0.0
N54 N 0.91342 0.16514 0.44047 0.0
C55 C 0.85208 0.08123 0.41935 0.0
C56 C 0.87619 0.13583 0.45242 0.0
C57 C 0.92033 0.1523 0.41803 0.0
C58 C 0.81825 0.03601 0.4078 0.0
C59 C 0.81793 0.0266 0.38283 0.0
C60 C 0.78536 0.98421 0.37184 0.0
C61 C 0.75276 0.95021 0.38562 0.0
C62 C 0.75329 0.95941 0.41062 0.0
C63 C 0.78556 0.002 0.42159 0.0
C64 C 0.8679 0.14806 0.47696 0.0
C65 C 0.84225 0.11305 0.4923 0.0
C66 C 0.83164 0.12312 0.51498 0.0
C67 C 0.84587 0.1684 0.52284 0.0
C68 C 0.87168 0.20367 0.50765 0.0
C69 C 0.88308 0.19362 0.48495 0.0
C70 C 0.96155 0.18278 0.40499 0.0
C71 C 0.99145 0.22803 0.41389 0.0
C72 C 0.73805 0.76216 0.40462 0.0
C73 C 0.75033 0.78738 0.38382 0.0
C74 C 0.79381 0.80156 0.37504 0.0
C75 C 0.82427 0.7907 0.38672 0.0
H76 H 0.92859 0.76607 0.37198 0.0
H77 H -0.00155 0.78755 0.35129 0.0
H78 H 0.0669 0.78688 0.4187 0.0
H79 H -0.00348 0.76494 0.43949 0.0
H80 H 0.91196 0.68988 0.47856 0.0
H81 H 0.89414 0.65616 0.51784 0.0
H82 H 0.7824 0.68398 0.52173 0.0
H83 H 0.80009 0.71775 0.48278 0.0
H84 H 0.75817 0.73221 0.43243 0.0
H85 H 0.70488 0.75086 0.41196 0.0
H86 H 0.80437 0.821 0.35907 0.0
H87 H 0.85749 0.80228 0.37937 0.0
N88 N 0.88374 0.76277 0.4092 0.0
N89 N 0.90646 0.73543 0.44216 0.0
N90 N 0.83697 0.7364 0.4419 0.0
C91 C 0.91466 0.75345 0.42002 0.0
C92 C 0.86741 0.72667 0.45321 0.0
C93 C 0.84495 0.75452 0.41991 0.0
C94 C 0.9569 0.76388 0.40749 0.0
C95 C 0.95846 0.77036 0.38246 0.0
C96 C -0.00143 0.78264 0.37051 0.0
C97 C 0.03843 0.78931 0.3833 0.0
C98 C 0.03686 0.78235 0.40829 0.0
C99 C -0.00356 0.76948 0.42023 0.0
C100 C 0.85753 0.70663 0.47734 0.0
C101 C 0.88365 0.68893 0.48779 0.0
C102 C 0.87325 0.6693 0.51027 0.0
C103 C 0.83679 0.66731 0.52297 0.0
C104 C 0.81098 0.68532 0.5126 0.0
C105 C 0.82106 0.70451 0.49011 0.0
C106 C 0.81218 0.76567 0.4076 0.0
C107 C 0.7687 0.75158 0.41644 0.0
C108 C 0.96206 0.22097 0.6301 0.0
C109 C 0.95173 0.19605 0.65107 0.0
C110 C 0.98244 0.18257 0.65988 0.0
C111 C 0.02262 0.19394 0.64816 0.0
H112 H 0.15077 0.21242 0.66204 0.0
H113 H 0.20338 0.19276 0.68204 0.0
H114 H 0.26743 0.20083 0.61464 0.0
H115 H 0.2148 0.22105 0.59454 0.0
H116 H 0.18525 0.26175 0.55036 0.0
H117 H 0.20336 0.29705 0.5118 0.0
H118 H 0.10471 0.34167 0.52119 0.0
H119 H 0.08613 0.30596 0.56006 0.0
H120 H 0.00889 0.25123 0.60219 0.0
H121 H 0.93898 0.23166 0.62265 0.0
H122 H 0.97559 0.16335 0.67592 0.0
H123 H 0.0454 0.18288 0.65559 0.0
N124 N 0.10661 0.22045 0.62533 0.0
N125 N 0.15391 0.24869 0.59293 0.0
N126 N 0.08484 0.25037 0.59325 0.0
C127 C 0.14561 0.22943 0.6146 0.0
C128 C 0.1239 0.25951 0.58213 0.0
C129 C 0.0759 0.23045 0.61489 0.0
C130 C 0.17847 0.21824 0.62664 0.0
C131 C 0.17604 0.21005 0.65142 0.0
C132 C 0.20638 0.19893 0.66295 0.0
C133 C 0.23956 0.19515 0.64994 0.0
C134 C 0.24212 0.20333 0.62516 0.0
C135 C 0.21208 0.21508 0.61366 0.0
C136 C 0.13412 0.28088 0.55842 0.0
C137 C 0.16729 0.27906 0.54434 0.0
C138 C 0.1776 0.29914 0.52212 0.0
C139 C 0.15546 0.32213 0.51341 0.0
C140 C 0.12257 0.32445 0.52751 0.0
C141 C 0.11172 0.30371 0.54968 0.0
C142 C 0.03306 0.21886 0.62717 0.0
C143 C 0.00215 0.23213 0.61827 0.0
C144 C 0.75489 0.72618 0.63362 0.0
C145 C 0.78487 0.74328 0.65458 0.0
C146 C 0.79812 0.78713 0.66462 0.0
C147 C 0.78201 0.81347 0.65385 0.0
H148 H 0.76526 0.92652 0.66771 0.0
H149 H 0.79176 0.00326 0.68557 0.0
H150 H 0.77167 0.04545 0.6156 0.0
H151 H 0.74482 0.96885 0.59782 0.0
H152 H 0.68614 0.89555 0.55871 0.0
H153 H 0.65404 0.879 0.51728 0.0
H154 H 0.634 0.7428 0.51814 0.0
H155 H 0.66667 0.75917 0.5601 0.0
H156 H 0.71633 0.73864 0.60648 0.0
H157 H 0.74402 0.69248 0.6254 0.0
H158 H 0.82099 0.80121 0.6808 0.0
H159 H 0.79327 0.84728 0.66204 0.0
N160 N 0.74913 0.8673 0.63146 0.0
N161 N 0.71482 0.88232 0.59836 0.0
N162 N 0.71398 0.81269 0.59866 0.0
C163 C 0.73793 0.89567 0.62035 0.0
C164 C 0.70246 0.84093 0.5874 0.0
C165 C 0.73739 0.8258 0.62078 0.0
C166 C 0.75289 0.94165 0.63139 0.0
C167 C 0.76644 0.95218 0.65618 0.0
C168 C 0.7815 -0.00394 0.6664 0.0
C169 C 0.78387 0.0303 0.65194 0.0
C170 C 0.7704 0.01979 0.62717 0.0
C171 C 0.75475 0.9758 0.61702 0.0
C172 C 0.67947 0.8288 0.56276 0.0
C173 C 0.67471 0.86184 0.55033 0.0
C174 C 0.65641 0.85252 0.52651 0.0
C175 C 0.64202 0.80986 0.51455 0.0
C176 C 0.64487 0.77597 0.52709 0.0
C177 C 0.66374 0.78545 0.55101 0.0
C178 C 0.75253 0.7967 0.63268 0.0
C179 C 0.739 0.75267 0.62274 0.0
C180 C 0.25099 0.01361 0.62925 0.0
C181 C 0.2391 0.02849 0.65039 0.0
C182 C 0.19751 -0.00106 0.66055 0.0
C183 C 0.16816 0.95547 0.6497 0.0
H184 H 0.06649 0.82526 0.66456 0.0
H185 H -0.00383 0.78068 0.68518 0.0
H186 H 0.92493 0.71109 0.6167 0.0
H187 H 0.9954 0.75558 0.59605 0.0
H188 H 0.08629 0.76095 0.55547 0.0
H189 H 0.10444 0.74718 0.51445 0.0
H190 H 0.19692 0.89208 0.51075 0.0
H191 H 0.17898 0.90589 0.55107 0.0
H192 H 0.23122 0.95982 0.6018 0.0
H193 H 0.28284 0.03569 0.62102 0.0
H194 H 0.18753 0.00928 0.67695 0.0
H195 H 0.13622 0.93376 0.65795 0.0
N196 N 0.10954 0.86538 0.62735 0.0
N197 N 0.08494 0.81389 0.59303 0.0
N198 N 0.15354 0.88456 0.59352 0.0
C199 C 0.07833 0.82459 0.61603 0.0
C200 C 0.12289 0.84401 0.58173 0.0
C201 C 0.14717 0.8955 0.61625 0.0
C202 C 0.03652 0.7941 0.62858 0.0
C203 C 0.03587 0.80026 0.65387 0.0
C204 C 0.99556 0.77474 0.66576 0.0
C205 C 0.95482 0.74281 0.6526 0.0
C206 C 0.95567 0.73587 0.62738 0.0
C207 C -0.00385 0.76106 0.61552 0.0
C208 C 0.13124 0.83445 0.55662 0.0
C209 C 0.11022 0.78977 0.54578 0.0
C210 C 0.12085 0.78188 0.52242 0.0
C211 C 0.15209 0.8186 0.50942 0.0
C212 C 0.17241 0.86314 0.52018 0.0
C213 C 0.16226 0.87094 0.54343 0.0
C214 C 0.17954 0.94072 0.62832 0.0
C215 C 0.22136 0.97017 0.61824 0.0
C216 C 0.90332 0.3062 0.73444 0.0
C217 C 0.87292 0.29063 0.71371 0.0
C218 C 0.85951 0.3199 0.70357 0.0
C219 C 0.87592 0.36383 0.71408 0.0
H220 H 0.89782 0.49285 0.69996 0.0
H221 H 0.87025 0.53939 0.68115 0.0
H222 H 0.89049 0.61324 0.75015 0.0
H223 H 0.91801 0.56694 0.76896 0.0
H224 H 0.98774 0.55568 0.81051 0.0
H225 H 0.01827 0.56909 0.85269 0.0
H226 H -0.00377 0.43194 0.85147 0.0
H227 H 0.96586 0.41827 0.80971 0.0
H228 H 0.94249 0.36076 0.76118 0.0
H229 H 0.91426 0.2844 0.74269 0.0
H230 H 0.83634 0.30895 0.6875 0.0
H231 H 0.86456 0.38538 0.70594 0.0
N232 N 0.91161 0.45458 0.73626 0.0
N233 N 0.94374 0.50589 0.77055 0.0
N234 N 0.94176 0.43563 0.76962 0.0
C235 C 0.92301 0.4953 0.74778 0.0
C236 C 0.95343 0.47611 0.78152 0.0
C237 C 0.92089 0.4246 0.74705 0.0
C238 C 0.90988 0.52601 0.73604 0.0
C239 C 0.89655 0.51916 0.71112 0.0
C240 C 0.88079 0.54582 0.70029 0.0
C241 C 0.87754 0.57948 0.71421 0.0
C242 C 0.89185 0.58703 0.73898 0.0
C243 C 0.90805 0.56074 0.74976 0.0
C244 C 0.97408 0.48584 0.80669 0.0
C245 C 0.9896 0.52847 0.8192 0.0
C246 C 0.00728 0.53625 0.84329 0.0
C247 C 0.0093 0.50141 0.85534 0.0
C248 C 0.99452 0.45919 0.84272 0.0
C249 C 0.9773 0.45153 0.81869 0.0
C250 C 0.90575 0.37919 0.73506 0.0
C251 C 0.91947 0.34999 0.74505 0.0
C252 C 0.69714 0.58966 0.73505 0.0
C253 C 0.70748 0.5734 0.71372 0.0
C254 C 0.67765 0.52817 0.70477 0.0
C255 C 0.63835 0.4999 0.71688 0.0
H256 H 0.50919 0.38543 0.70501 0.0
H257 H 0.45268 0.31138 0.68587 0.0
H258 H 0.39527 0.2672 0.75506 0.0
H259 H 0.45166 0.34141 0.77423 0.0
H260 H 0.49685 0.41093 0.8201 0.0
H261 H 0.47813 0.42858 0.85958 0.0
H262 H 0.54992 0.57224 0.84673 0.0
H263 H 0.56936 0.55458 0.80678 0.0
H264 H 0.6515 0.57506 0.76363 0.0
H265 H 0.7195 0.62428 0.74262 0.0
H266 H 0.68462 0.51458 0.68844 0.0
H267 H 0.6162 0.46513 0.70947 0.0
N268 N 0.55603 0.44376 0.74098 0.0
N269 N 0.51262 0.42739 0.77507 0.0
N270 N 0.58008 0.49846 0.7738 0.0
C271 C 0.51875 0.41456 0.75268 0.0
C272 C 0.54285 0.46916 0.78575 0.0
C273 C 0.587 0.48562 0.75136 0.0
C274 C 0.48491 0.36934 0.74113 0.0
C275 C 0.4846 0.35993 0.71617 0.0
C276 C 0.45203 0.31754 0.70517 0.0
C277 C 0.41942 0.28354 0.71895 0.0
C278 C 0.41995 0.29274 0.74395 0.0
C279 C 0.45223 0.33532 0.75492 0.0
C280 C 0.53456 0.48139 0.81029 0.0
C281 C 0.50891 0.44638 0.82563 0.0
C282 C 0.4983 0.45645 0.84831 0.0
C283 C 0.51253 0.50173 0.85617 0.0
C284 C 0.53835 0.537 0.84098 0.0
C285 C 0.54975 0.52694 0.81828 0.0
C286 C 0.62821 0.51611 0.73833 0.0
C287 C 0.65811 0.56136 0.74723 0.0
C288 C 0.40472 0.09549 0.73795 0.0
C289 C 0.417 0.12071 0.71715 0.0
C290 C 0.46047 0.13489 0.70837 0.0
C291 C 0.49094 0.12403 0.72005 0.0
H292 H 0.59526 0.0994 0.70532 0.0
H293 H 0.66512 0.12088 0.68462 0.0
H294 H 0.73357 0.12022 0.75204 0.0
H295 H 0.66319 0.09827 0.77283 0.0
H296 H 0.57863 0.02322 0.81189 0.0
H297 H 0.56081 0.9895 0.85118 0.0
H298 H 0.44907 0.01732 0.85507 0.0
H299 H 0.46676 0.05109 0.81611 0.0
H300 H 0.42484 0.06555 0.76576 0.0
H301 H 0.37154 0.08419 0.74529 0.0
H302 H 0.47104 0.15433 0.6924 0.0
H303 H 0.52416 0.13562 0.71271 0.0
N304 N 0.55041 0.0961 0.74253 0.0
N305 N 0.57313 0.06877 0.7755 0.0
N306 N 0.50364 0.06973 0.77524 0.0
C307 C 0.58132 0.08678 0.75335 0.0
C308 C 0.53407 0.06 0.78655 0.0
C309 C 0.51162 0.08785 0.75324 0.0
C310 C 0.62357 0.09722 0.74083 0.0
C311 C 0.62512 0.10369 0.7158 0.0
C312 C 0.66524 0.11598 0.70385 0.0
C313 C 0.7051 0.12265 0.71664 0.0
C314 C 0.70353 0.11569 0.74163 0.0
C315 C 0.66311 0.10282 0.75356 0.0
C316 C 0.5242 0.03996 0.81068 0.0
C317 C 0.55032 0.02226 0.82113 0.0
C318 C 0.53991 0.00263 0.8436 0.0
C319 C 0.50346 0.00065 0.85631 0.0
C320 C 0.47765 0.01865 0.84594 0.0
C321 C 0.48773 0.03784 0.82344 0.0
C322 C 0.47885 0.099 0.74093 0.0
C323 C 0.43537 0.08491 0.74977 0.0
C324 C 0.62873 0.55431 0.96344 0.0
C325 C 0.6184 0.52939 0.9844 0.0
C326 C 0.64912 0.51591 0.99322 0.0
C327 C 0.6893 0.52728 0.98149 0.0
H328 H 0.81744 0.54576 0.99538 0.0
H329 H 0.87006 0.5261 1.01538 0.0
H330 H 0.93411 0.53416 0.94797 0.0
H331 H 0.88147 0.55439 0.92787 0.0
H332 H 0.85192 0.5951 0.8837 0.0
H333 H 0.87003 0.6304 0.84514 0.0
H334 H 0.77138 0.675 0.85453 0.0
H335 H 0.75281 0.6393 0.8934 0.0
H336 H 0.67557 0.58457 0.93553 0.0
H337 H 0.60565 0.565 0.95599 0.0
H338 H 0.64227 0.49669 1.00926 0.0
H339 H 0.71208 0.51622 0.98893 0.0
N340 N 0.77329 0.55379 0.95867 0.0
N341 N 0.82058 0.58203 0.92626 0.0
N342 N 0.75151 0.58371 0.92659 0.0
C343 C 0.81228 0.56277 0.94794 0.0
C344 C 0.79057 0.59286 0.91547 0.0
C345 C 0.74257 0.5638 0.94822 0.0
C346 C 0.84515 0.55158 0.95998 0.0
C347 C 0.84271 0.54339 0.98476 0.0
C348 C 0.87305 0.53227 0.99629 0.0
C349 C 0.90623 0.52849 0.98327 0.0
C350 C 0.90879 0.53667 0.95849 0.0
C351 C 0.87875 0.54842 0.94699 0.0
C352 C 0.80079 0.61422 0.89175 0.0
C353 C 0.83397 0.6124 0.87767 0.0
C354 C 0.84427 0.63248 0.85545 0.0
C355 C 0.82213 0.65546 0.84675 0.0
C356 C 0.78924 0.65779 0.86084 0.0
C357 C 0.7784 0.63705 0.88302 0.0
C358 C 0.69973 0.5522 0.96051 0.0
C359 C 0.66883 0.56547 0.95161 0.0
C360 C 0.42156 0.05952 0.96695 0.0
C361 C 0.45154 0.07661 0.98792 0.0
C362 C 0.46479 0.12046 0.99795 0.0
C363 C 0.44868 0.14681 0.98718 0.0
H364 H 0.43192 0.25986 1.00105 0.0
H365 H 0.45843 0.3366 0.0189 0.0
H366 H 0.43835 0.37879 0.94893 0.0
H367 H 0.4115 0.30219 0.93115 0.0
H368 H 0.35285 0.2289 0.89204 0.0
H369 H 0.32074 0.21235 0.85061 0.0
H370 H 0.30066 0.07614 0.85147 0.0
H371 H 0.33333 0.09251 0.89344 0.0
H372 H 0.383 0.07198 0.93982 0.0
H373 H 0.41069 0.02582 0.95873 0.0
H374 H 0.48766 0.13455 1.01414 0.0
H375 H 0.45994 0.18061 0.99538 0.0
N376 N 0.4158 0.20064 0.96479 0.0
N377 N 0.38149 0.21566 0.9317 0.0
N378 N 0.38066 0.14603 0.93199 0.0
C379 C 0.4046 0.22901 0.95368 0.0
C380 C 0.36913 0.17427 0.92073 0.0
C381 C 0.40406 0.15914 0.95412 0.0
C382 C 0.41956 0.27498 0.96472 0.0
C383 C 0.43311 0.28551 0.98951 0.0
C384 C 0.44817 0.3294 0.99974 0.0
C385 C 0.45054 0.36363 0.98528 0.0
C386 C 0.43707 0.35313 0.9605 0.0
C387 C 0.42143 0.30914 0.95035 0.0
C388 C 0.34615 0.16214 0.89609 0.0
C389 C 0.3414 0.19519 0.88366 0.0
C390 C 0.3231 0.18586 0.85984 0.0
C391 C 0.3087 0.1432 0.84788 0.0
C392 C 0.31154 0.10931 0.86043 0.0
C393 C 0.3304 0.11879 0.88435 0.0
C394 C 0.4192 0.13004 0.96601 0.0
C395 C 0.40567 0.086 0.95607 0.0
C396 C 0.91766 0.34694 0.96258 0.0
C397 C 0.90577 0.36183 0.98372 0.0
C398 C 0.86418 0.33227 0.99388 0.0
C399 C 0.83483 0.28881 0.98303 0.0
H400 H 0.73316 0.15859 0.99789 0.0
H401 H 0.66284 0.11401 0.01852 0.0
H402 H 0.5916 0.04442 0.95003 0.0
H403 H 0.66207 0.08892 0.92939 0.0
H404 H 0.75296 0.09428 0.88881 0.0
H405 H 0.77111 0.08052 0.84779 0.0
H406 H 0.86359 0.22541 0.84408 0.0
H407 H 0.84565 0.23922 0.8844 0.0
H408 H 0.89789 0.29315 0.93513 0.0
H409 H 0.94951 0.36902 0.95435 0.0
H410 H 0.8542 0.34262 1.01028 0.0
H411 H 0.80288 0.2671 0.99128 0.0
N412 N 0.77621 0.19872 0.96068 0.0
N413 N 0.75161 0.14722 0.92636 0.0
N414 N 0.8202 0.2179 0.92685 0.0
C415 C 0.74499 0.15792 0.94937 0.0
C416 C 0.78956 0.17735 0.91507 0.0
C417 C 0.81384 0.22884 0.94959 0.0
C418 C 0.70319 0.12744 0.96191 0.0
C419 C 0.70254 0.13359 0.98721 0.0
C420 C 0.66223 0.10808 0.9991 0.0
C421 C 0.62149 0.07615 0.98594 0.0
C422 C 0.62234 0.06921 0.96072 0.0
C423 C 0.66282 0.09439 0.94885 0.0
C424 C 0.79791 0.16778 0.88995 0.0
C425 C 0.77689 0.12311 0.87912 0.0
C426 C 0.78752 0.11521 0.85575 0.0
C427 C 0.81875 0.15194 0.84275 0.0
C428 C 0.83908 0.19647 0.85351 0.0
C429 C 0.82892 0.20428 0.87677 0.0
C430 C 0.84621 0.27406 0.96165 0.0
C431 C 0.88803 0.3035 0.95157 0.0
C432 C 0.56998 0.63953 0.06778 0.0
C433 C 0.53958 0.62396 0.04705 0.0
C434 C 0.52617 0.65323 0.03691 0.0
C435 C 0.54258 0.69716 0.04741 0.0
H436 H 0.56447 0.82618 0.03329 0.0
H437 H 0.53691 0.87272 1.01448 0.0
H438 H 0.55716 0.94658 0.08349 0.0
H439 H 0.58468 0.90027 0.1023 0.0
H440 H 0.65441 0.88902 0.14384 0.0
H441 H 0.68494 0.90242 0.18602 0.0
H442 H 0.66287 0.76526 0.18481 0.0
H443 H 0.63249 0.75159 0.14305 0.0
H444 H 0.60914 0.69409 0.09452 0.0
H445 H 0.58092 0.61774 0.07603 0.0
H446 H 0.50301 0.64228 0.02083 0.0
H447 H 0.53122 0.71871 0.03927 0.0
N448 N 0.57827 0.78791 0.0696 0.0
N449 N 0.6104 0.83922 0.10389 0.0
N450 N 0.60841 0.76895 0.10296 0.0
C451 C 0.58966 0.82863 0.08111 0.0
C452 C 0.62009 0.80943 0.11486 0.0
C453 C 0.58754 0.75793 0.08039 0.0
C454 C 0.57654 0.85934 0.06937 0.0
C455 C 0.56321 0.85249 0.04445 0.0
C456 C 0.54745 0.87915 0.03362 0.0
C457 C 0.5442 0.91282 0.04755 0.0
C458 C 0.55852 0.92036 0.07232 0.0
C459 C 0.57472 0.89408 0.08309 0.0
C460 C 0.64073 0.81917 0.14002 0.0
C461 C 0.65626 0.86181 0.15254 0.0
C462 C 0.67394 0.86958 0.17663 0.0
C463 C 0.67596 0.83474 0.18867 0.0
C464 C 0.66116 0.79251 0.17606 0.0
C465 C 0.64394 0.78486 0.15203 0.0
C466 C 0.57241 0.71252 0.0684 0.0
C467 C 0.58613 0.68332 0.07839 0.0
C468 C 0.36381 0.923 0.06838 0.0
C469 C 0.37415 0.90673 0.04705 0.0
C470 C 0.34432 0.86151 0.0381 0.0
C471 C 0.30502 0.83323 0.05021 0.0
H472 H 0.17587 0.71876 0.03834 0.0
H473 H 0.11936 0.64472 0.0192 0.0
H474 H 0.06194 0.60054 0.08839 0.0
H475 H 0.11833 0.67475 0.10756 0.0
H476 H 0.16351 0.74427 0.15343 0.0
H477 H 0.14479 0.76191 0.19292 0.0
H478 H 0.21658 0.90557 0.18006 0.0
H479 H 0.23602 0.88791 0.14012 0.0
H480 H 0.31816 0.9084 0.09697 0.0
H481 H 0.38617 0.95762 0.07595 0.0
H482 H 0.35129 0.84792 0.02178 0.0
H483 H 0.28287 0.79846 0.04281 0.0
N484 N 0.2227 0.77709 0.07431 0.0
N485 N 0.17929 0.76072 0.1084 0.0
N486 N 0.24675 0.8318 0.10713 0.0
C487 C 0.18542 0.74789 0.08601 0.0
C488 C 0.20952 0.8025 0.11909 0.0
C489 C 0.25367 0.81896 0.0847 0.0
C490 C 0.15159 0.70268 0.07447 0.0
C491 C 0.15127 0.69327 0.0495 0.0
C492 C 0.11871 0.65088 0.0385 0.0
C493 C 0.0861 0.61687 0.05228 0.0
C494 C 0.08662 0.62607 0.07729 0.0
C495 C 0.1189 0.66866 0.08825 0.0
C496 C 0.20123 0.81473 0.14362 0.0
C497 C 0.17557 0.77972 0.15896 0.0
C498 C 0.16496 0.78978 0.18165 0.0
C499 C 0.1792 0.83506 0.18951 0.0
C500 C 0.20501 0.87033 0.17431 0.0
C501 C 0.21641 0.86028 0.15161 0.0
C502 C 0.29488 0.84944 0.07166 0.0
C503 C 0.32478 0.8947 0.08056 0.0
C504 C 0.07139 0.42882 0.07128 0.0
C505 C 0.08366 0.45404 0.05048 0.0
C506 C 0.12714 0.46822 0.0417 0.0
C507 C 0.15761 0.45736 0.05338 0.0
H508 H 0.26193 0.43273 0.03865 0.0
H509 H 0.33179 0.45421 0.01796 0.0
H510 H 0.40024 0.45355 0.08537 0.0
H511 H 0.32986 0.4316 0.10616 0.0
H512 H 0.24529 0.35654 0.14522 0.0
H513 H 0.22747 0.32282 0.18451 0.0
H514 H 0.11573 0.35065 0.1884 0.0
H515 H 0.13342 0.38441 0.14944 0.0
H516 H 0.09151 0.39887 0.09909 0.0
H517 H 0.03821 0.41752 0.07862 0.0
H518 H 0.13771 0.48766 0.02573 0.0
H519 H 0.19083 0.46894 0.04604 0.0
N520 N 0.21707 0.42943 0.07586 0.0
N521 N 0.23979 0.40209 0.10883 0.0
N522 N 0.1703 0.40306 0.10857 0.0
C523 C 0.24799 0.42011 0.08668 0.0
C524 C 0.20074 0.39333 0.11988 0.0
C525 C 0.17829 0.42118 0.08657 0.0
C526 C 0.29024 0.43054 0.07416 0.0
C527 C 0.29179 0.43702 0.04913 0.0
C528 C 0.33191 0.4493 0.03718 0.0
C529 C 0.37177 0.45598 0.04997 0.0
C530 C 0.3702 0.44901 0.07496 0.0
C531 C 0.32978 0.43614 0.08689 0.0
C532 C 0.19087 0.37329 0.14401 0.0
C533 C 0.21699 0.35559 0.15446 0.0
C534 C 0.20658 0.33596 0.17693 0.0
C535 C 0.17012 0.33397 0.18964 0.0
C536 C 0.14431 0.35198 0.17927 0.0
C537 C 0.15439 0.37117 0.15677 0.0
C538 C 0.14552 0.43233 0.07426 0.0
C539 C 0.10204 0.41824 0.0831 0.0
C540 C 0.29539 0.88764 0.29677 0.0
C541 C 0.28506 0.86272 0.31773 0.0
C542 C 0.31578 0.84924 0.32655 0.0
C543 C 0.35596 0.86062 0.31482 0.0
H544 H 0.4841 0.8791 0.32871 0.0
H545 H 0.53672 0.85943 0.34871 0.0
H546 H 0.60077 0.8675 0.28131 0.0
H547 H 0.54814 0.88773 0.26121 0.0
H548 H 0.5186 0.92845 0.21704 0.0
H549 H 0.53671 0.96375 0.17848 0.0
H550 H 0.43804 0.00833 0.18786 0.0
H551 H 0.41946 0.97263 0.22673 0.0
H552 H 0.34223 0.91791 0.26886 0.0
H553 H 0.27231 0.89833 0.28932 0.0
H554 H 0.30893 0.83002 0.34259 0.0
H555 H 0.37874 0.84956 0.32226 0.0
N556 N 0.43995 0.88713 0.292 0.0
N557 N 0.48725 0.91537 0.2596 0.0
N558 N 0.41817 0.91705 0.25992 0.0
C559 C 0.47895 0.89611 0.28127 0.0
C560 C 0.45724 0.9262 0.2488 0.0
C561 C 0.40924 0.89713 0.28156 0.0
C562 C 0.51181 0.88492 0.29331 0.0
C563 C 0.50937 0.87673 0.31809 0.0
C564 C 0.53971 0.8656 0.32962 0.0
C565 C 0.57289 0.86182 0.31661 0.0
C566 C 0.57545 0.87 0.29183 0.0
C567 C 0.54542 0.88176 0.28033 0.0
C568 C 0.46746 0.94756 0.22509 0.0
C569 C 0.50064 0.94575 0.21101 0.0
C570 C 0.51095 0.96583 0.18879 0.0
C571 C 0.4888 0.98881 0.18008 0.0
C572 C 0.45591 0.99112 0.19417 0.0
C573 C 0.44506 0.97039 0.21635 0.0
C574 C 0.36639 0.88554 0.29384 0.0
C575 C 0.33549 0.8988 0.28494 0.0
C576 C 0.08823 0.39286 0.30029 0.0
C577 C 0.1182 0.40995 0.32125 0.0
C578 C 0.13146 0.4538 0.33128 0.0
C579 C 0.11535 0.48014 0.32051 0.0
H580 H 0.09859 0.59319 0.33438 0.0
H581 H 0.12509 0.66993 0.35223 0.0
H582 H 0.10501 0.71212 0.28226 0.0
H583 H 0.07815 0.63552 0.26448 0.0
H584 H 0.01947 0.56222 0.22538 0.0
H585 H 0.98737 0.54567 0.18395 0.0
H586 H 0.96735 0.40948 0.1848 0.0
H587 H 2e-05 0.42585 0.22677 0.0
H588 H 0.04967 0.40531 0.27315 0.0
H589 H 0.07736 0.35915 0.29206 0.0
H590 H 0.15433 0.46788 0.34747 0.0
H591 H 0.12661 0.51395 0.32871 0.0
N592 N 0.08247 0.53397 0.29812 0.0
N593 N 0.04816 0.54899 0.26503 0.0
N594 N 0.04732 0.47936 0.26533 0.0
C595 C 0.07126 0.56234 0.28702 0.0
C596 C 0.0358 0.5076 0.25406 0.0
C597 C 0.07072 0.49247 0.28745 0.0
C598 C 0.08623 0.60832 0.29806 0.0
C599 C 0.09977 0.61885 0.32284 0.0
C600 C 0.11483 0.66273 0.33307 0.0
C601 C 0.1172 0.69697 0.31861 0.0
C602 C 0.10373 0.68646 0.29383 0.0
C603 C 0.08809 0.64247 0.28369 0.0
C604 C 0.01281 0.49547 0.22942 0.0
C605 C 0.00804 0.52851 0.21699 0.0
C606 C 0.98974 0.51919 0.19318 0.0
C607 C 0.97536 0.47653 0.18122 0.0
C608 C 0.97821 0.44265 0.19376 0.0
C609 C -0.00292 0.45213 0.21768 0.0
C610 C 0.08587 0.46338 0.29934 0.0
C611 C 0.07233 0.41934 0.2894 0.0
C612 C 0.58432 0.68028 0.29592 0.0
C613 C 0.57243 0.69516 0.31706 0.0
C614 C 0.53084 0.66561 0.32721 0.0
C615 C 0.50149 0.62214 0.31637 0.0
H616 H 0.39982 0.49193 0.33122 0.0
H617 H 0.3295 0.44735 0.35185 0.0
H618 H 0.25827 0.37775 0.28336 0.0
H619 H 0.32874 0.42225 0.26272 0.0
H620 H 0.41963 0.42762 0.22214 0.0
H621 H 0.43778 0.41385 0.18112 0.0
H622 H 0.53026 0.55875 0.17742 0.0
H623 H 0.51232 0.57256 0.21773 0.0
H624 H 0.56455 0.62649 0.26846 0.0
H625 H 0.61617 0.70236 0.28769 0.0
H626 H 0.52086 0.67595 0.34362 0.0
H627 H 0.46955 0.60044 0.32461 0.0
N628 N 0.44288 0.53205 0.29401 0.0
N629 N 0.41828 0.48056 0.2597 0.0
N630 N 0.48687 0.55124 0.26019 0.0
C631 C 0.41166 0.49126 0.2827 0.0
C632 C 0.45622 0.51068 0.2484 0.0
C633 C 0.4805 0.56218 0.28292 0.0
C634 C 0.36986 0.46077 0.29525 0.0
C635 C 0.3692 0.46693 0.32054 0.0
C636 C 0.32889 0.44141 0.33243 0.0
C637 C 0.28815 0.40948 0.31927 0.0
C638 C 0.28901 0.40254 0.29405 0.0
C639 C 0.32949 0.42773 0.28219 0.0
C640 C 0.46458 0.50112 0.22328 0.0
C641 C 0.44356 0.45644 0.21245 0.0
C642 C 0.45419 0.44855 0.18909 0.0
C643 C 0.48543 0.48527 0.17609 0.0
C644 C 0.50575 0.52981 0.18685 0.0
C645 C 0.4956 0.53761 0.2101 0.0
C646 C 0.51287 0.6074 0.29499 0.0
C647 C 0.5547 0.63684 0.28491 0.0
Tb648 Tb 0.48127 0.9623 0.99187 0.0
Eu649 Eu 0.5157 0.02776 0.04365 0.0
C650 C 0.52583 0.93999 0.0366 0.0
C651 C 0.4165 0.93708 0.03488 0.0
C652 C 0.47055 0.94101 0.92579 0.0
C653 C 0.49171 0.93894 0.88428 0.0
C654 C 0.48087 0.9196 0.90679 0.0
C655 C 0.47132 0.98218 0.92193 0.0
C656 C 0.48175 0.00131 0.89941 0.0
C657 C 0.49226 0.98005 0.88029 0.0
C658 C 0.46282 0.9224 0.95005 0.0
O659 O 0.45069 0.00576 0.99119 0.0
O660 O 0.50185 0.06755 0.01649 0.0
O661 O 0.57842 0.05006 0.02196 0.0
O662 O 0.53976 0.02741 0.98464 0.0
C663 C 0.469 0.04885 0.99907 0.0
O664 O 0.50162 0.06345 0.07301 0.0
O665 O 0.56403 0.05984 0.07524 0.0
O666 O 0.51264 0.96207 0.05108 0.0
O667 O 0.52342 0.94187 1.01294 0.0
O668 O 0.43098 0.92072 0.0174 0.0
O669 O 0.43956 0.98022 0.04275 0.0
C670 C 0.57816 0.04985 0.99817 0.0
O671 O 0.50008 0.93343 0.9633 0.0
O672 O 0.43277 0.92642 0.96264 0.0
C673 C 0.52408 0.04878 0.11094 0.0
C674 C 0.49978 0.00941 0.15617 0.0
C675 C 0.50857 0.0542 0.15327 0.0
C676 C 0.52082 0.07378 0.13085 0.0
C677 C 0.51418 0.00374 0.1137 0.0
C678 C 0.50254 0.98442 0.13606 0.0
C679 C 0.53603 0.06854 0.08706 0.0
H680 H 0.49928 0.92149 0.86993 0.0
H681 H 0.48108 0.88816 0.90945 0.0
H682 H 0.46451 -4e-05 0.93646 0.0
H683 H 0.4825 0.03331 0.89711 0.0
H684 H 0.50684 0.07434 0.16845 0.0
H685 H 0.52778 0.10839 0.12907 0.0
H686 H 0.51538 0.98335 0.09851 0.0
H687 H 0.49528 0.94963 0.13756 0.0
Tb688 Tb 0.02476 0.5052 0.99395 0.0
Eu689 Eu 0.96156 0.47559 0.0417 0.0
C690 C 0.05217 0.57193 0.0406 0.0
C691 C 0.05157 0.46604 0.03826 0.0
C692 C 0.05554 0.52058 0.93044 0.0
C693 C 0.06597 0.54807 0.88996 0.0
C694 C 0.08096 0.5541 0.91441 0.0
C695 C 0.01495 0.4809 0.92178 0.0
C696 C 0.00021 0.47467 0.89733 0.0
C697 C 0.02547 0.50826 0.8812 0.0
C698 C 0.06951 0.52891 0.9564 0.0
O699 O 0.97901 0.4315 0.98912 0.0
O700 O 0.91976 0.42362 1.01171 0.0
O701 O 0.94036 0.5168 0.01929 0.0
O702 O 0.96073 0.50198 0.98239 0.0
C703 C 0.93626 0.40785 0.99528 0.0
O704 O 0.92256 0.42457 0.06734 0.0
O705 O 0.92651 0.49054 0.06985 0.0
O706 O 0.02816 0.53793 0.0541 0.0
O707 O 0.04706 0.56713 0.01686 0.0
O708 O 0.0666 0.49624 0.02168 0.0
O709 O 0.00917 0.44719 0.04493 0.0
C710 C 0.9376 0.51569 0.99553 0.0
O711 O 0.05643 0.55394 0.9683 0.0
O712 O 0.06266 0.49351 0.9681 0.0
C713 C 0.93004 0.4585 0.10623 0.0
C714 C 0.95995 0.46901 0.15531 0.0
C715 C 0.91795 0.43083 0.14669 0.0
C716 C 0.90296 0.42572 0.12224 0.0
C717 C 0.97254 0.49595 0.11476 0.0
C718 C 0.9872 0.5013 0.1391 0.0
C719 C 0.91519 0.45284 0.08047 0.0
H720 H 0.08616 0.57434 0.87787 0.0
H721 H 0.11206 0.58518 0.92089 0.0
H722 H 0.99429 0.45504 0.93396 0.0
H723 H 0.96852 0.44395 0.89114 0.0
H724 H 0.89642 0.40556 0.15891 0.0
H725 H 0.87034 0.39631 0.11585 0.0
H726 H 0.99446 0.52115 0.10261 0.0
H727 H 0.02004 0.53067 0.14528 0.0
Tb728 Tb 0.51303 0.48055 0.04059 0.0
Eu729 Eu 0.4751 0.5065 0.99098 0.0
C730 C 0.46685 0.41006 0.99595 0.0
C731 C 0.57555 0.51733 0.99666 0.0
C732 C 0.52472 0.46783 0.10506 0.0
C733 C 0.50868 0.44383 0.14614 0.0
C734 C 0.52231 0.43889 0.12311 0.0
C735 C 0.51282 0.50142 0.11017 0.0
C736 C 0.49948 0.50653 0.13313 0.0
C737 C 0.4974 0.47792 0.1514 0.0
C738 C 0.5353 0.46042 0.08031 0.0
O739 O 0.54183 0.55427 0.04295 0.0
O740 O 0.48814 0.56095 0.01939 0.0
O741 O 0.41378 0.469 1.01357 0.0
O742 O 0.45322 0.4845 0.05066 0.0
C743 C 0.52214 0.57749 0.03605 0.0
O744 O 0.48447 0.55632 0.96458 0.0
O745 O 0.4273 0.487 0.95922 0.0
O746 O 0.47842 0.44346 0.98164 0.0
O747 O 0.4688 0.41683 0.01951 0.0
O748 O 0.5621 0.48799 1.01375 0.0
O749 O 0.55133 0.53587 0.98956 0.0
C750 C 0.41475 0.47008 0.03742 0.0
O751 O 0.49956 0.43207 0.06631 0.0
O752 O 0.56249 0.49697 0.06933 0.0
C753 C 0.46881 0.52115 0.92544 0.0
C754 C 0.50002 0.51121 0.88025 0.0
C755 C 0.47802 0.53709 0.8829 0.0
C756 C 0.46233 0.54188 0.90539 0.0
C757 C 0.49218 0.4967 0.92295 0.0
C758 C 0.50738 0.49155 0.90057 0.0
C759 C 0.45276 0.52549 0.94925 0.0
H760 H 0.50767 0.42154 0.15992 0.0
H761 H 0.5306 0.41227 0.11933 0.0
H762 H 0.51338 0.52342 0.0963 0.0
H763 H 0.49039 0.53267 0.13654 0.0
H764 H 0.47178 0.55238 0.86746 0.0
H765 H 0.44486 0.56134 0.90708 0.0
H766 H 0.49837 0.48121 0.93831 0.0
H767 H 0.52466 0.47188 0.89909 0.0
Tb768 Tb 0.14793 0.29563 0.3252 0.0
Eu769 Eu 0.18237 0.36109 0.37698 0.0
C770 C 0.19249 0.27333 0.36993 0.0
C771 C 0.08317 0.27041 0.36821 0.0
C772 C 0.13721 0.27434 0.25912 0.0
C773 C 0.15837 0.27226 0.21761 0.0
C774 C 0.14753 0.25293 0.24012 0.0
C775 C 0.13799 0.31551 0.25527 0.0
C776 C 0.14842 0.33464 0.23274 0.0
C777 C 0.15893 0.31338 0.21362 0.0
C778 C 0.12948 0.25573 0.28338 0.0
O779 O 0.11736 0.33909 0.32452 0.0
O780 O 0.16851 0.40089 0.34982 0.0
O781 O 0.24508 0.38339 0.35529 0.0
O782 O 0.20643 0.36074 0.31797 0.0
C783 C 0.13567 0.38218 0.3324 0.0
O784 O 0.16828 0.39678 0.40634 0.0
O785 O 0.23069 0.39317 0.40857 0.0
O786 O 0.1793 0.2954 0.38441 0.0
O787 O 0.19008 0.2752 0.34627 0.0
O788 O 0.09765 0.25405 0.35073 0.0
O789 O 0.10622 0.31355 0.37608 0.0
C790 C 0.24482 0.38318 0.3315 0.0
O791 O 0.16674 0.26676 0.29663 0.0
O792 O 0.09944 0.25975 0.29597 0.0
C793 C 0.19074 0.38211 0.44427 0.0
C794 C 0.16644 0.34274 0.4895 0.0
C795 C 0.17524 0.38752 0.48661 0.0
C796 C 0.1875 0.40711 0.46418 0.0
C797 C 0.18083 0.33706 0.44703 0.0
C798 C 0.16919 0.31773 0.46938 0.0
C799 C 0.20269 0.40187 0.4204 0.0
H800 H 0.16595 0.25481 0.20326 0.0
H801 H 0.14775 0.22149 0.24278 0.0
H802 H 0.13117 0.33329 0.26979 0.0
H803 H 0.14916 0.36663 0.23044 0.0
H804 H 0.17352 0.40767 0.50179 0.0
H805 H 0.19446 0.44172 0.4624 0.0
H806 H 0.18202 0.31667 0.43184 0.0
H807 H 0.16191 0.28295 0.47088 0.0
Tb808 Tb 0.69142 0.83854 0.32729 0.0
Eu809 Eu 0.62822 0.80893 0.37504 0.0
C810 C 0.71883 0.90526 0.37394 0.0
C811 C 0.71824 0.79938 0.3716 0.0
C812 C 0.72219 0.85391 0.26378 0.0
C813 C 0.73263 0.8814 0.22329 0.0
C814 C 0.74762 0.88742 0.24775 0.0
C815 C 0.6816 0.81424 0.25512 0.0
C816 C 0.66686 0.80801 0.23067 0.0
C817 C 0.69212 0.84159 0.21454 0.0
C818 C 0.73617 0.86225 0.28974 0.0
O819 O 0.64567 0.76484 0.32246 0.0
O820 O 0.58642 0.75696 0.34505 0.0
O821 O 0.60702 0.85013 0.35262 0.0
O822 O 0.62739 0.83532 0.31573 0.0
C823 C 0.60292 0.74118 0.32862 0.0
O824 O 0.58922 0.7579 0.40068 0.0
O825 O 0.59317 0.82388 0.40319 0.0
O826 O 0.69482 0.87127 0.38744 0.0
O827 O 0.71371 0.90047 0.3502 0.0
O828 O 0.73327 0.82958 0.35502 0.0
O829 O 0.67583 0.78053 0.37827 0.0
C830 C 0.60426 0.84903 0.32886 0.0
O831 O 0.72309 0.88727 0.30164 0.0
O832 O 0.72932 0.82684 0.30144 0.0
C833 C 0.5967 0.79183 0.43957 0.0
C834 C 0.62661 0.80234 0.48864 0.0
C835 C 0.58461 0.76416 0.48002 0.0
C836 C 0.56962 0.75906 0.45558 0.0
C837 C 0.63921 0.82928 0.4481 0.0
C838 C 0.65386 0.83463 0.47244 0.0
C839 C 0.58185 0.78618 0.4138 0.0
H840 H 0.75282 0.90767 0.2112 0.0
H841 H 0.77872 0.91851 0.25423 0.0
H842 H 0.66094 0.78838 0.26731 0.0
H843 H 0.63516 0.7773 0.22448 0.0
H844 H 0.56308 0.7389 0.49225 0.0
H845 H 0.537 0.72965 0.44918 0.0
H846 H 0.66113 0.85448 0.43595 0.0
H847 H 0.6867 0.86399 0.47861 0.0
Tb848 Tb 0.17969 0.81388 0.37392 0.0
Eu849 Eu 0.14176 0.83983 0.32431 0.0
C850 C 0.1335 0.74339 0.32928 0.0
C851 C 0.24221 0.85066 0.32999 0.0
C852 C 0.19138 0.80117 0.43839 0.0
C853 C 0.17534 0.77717 0.47947 0.0
C854 C 0.18897 0.77222 0.45644 0.0
C855 C 0.17948 0.83475 0.4435 0.0
C856 C 0.16614 0.83985 0.46646 0.0
C857 C 0.16406 0.81125 0.48473 0.0
C858 C 0.20196 0.79375 0.41364 0.0
O859 O 0.2085 0.8876 0.37628 0.0
O860 O 0.1548 0.89429 0.35272 0.0
O861 O 0.08044 0.80233 0.3469 0.0
O862 O 0.11988 0.81783 0.38399 0.0
C863 C 0.18881 0.91083 0.36938 0.0
O864 O 0.15113 0.88966 0.29791 0.0
O865 O 0.09395 0.82033 0.29255 0.0
O866 O 0.14508 0.77679 0.31498 0.0
O867 O 0.13545 0.75017 0.35284 0.0
O868 O 0.22876 0.82132 0.34708 0.0
O869 O 0.21799 0.8692 0.32289 0.0
C870 C 0.08141 0.80342 0.37075 0.0
O871 O 0.16622 0.76541 0.39964 0.0
O872 O 0.22915 0.8303 0.40267 0.0
C873 C 0.13547 0.85448 0.25877 0.0
C874 C 0.16668 0.84455 0.21358 0.0
C875 C 0.14468 0.87042 0.21623 0.0
C876 C 0.12899 0.87521 0.23873 0.0
C877 C 0.15884 0.83004 0.25628 0.0
C878 C 0.17404 0.82489 0.2339 0.0
C879 C 0.11942 0.85883 0.28259 0.0
H880 H 0.17433 0.75487 0.49325 0.0
H881 H 0.19727 0.7456 0.45266 0.0
H882 H 0.18004 0.85675 0.42963 0.0
H883 H 0.15705 0.866 0.46987 0.0
H884 H 0.13843 0.88571 0.20079 0.0
H885 H 0.11151 0.89467 0.24041 0.0
H886 H 0.16503 0.81455 0.27165 0.0
H887 H 0.19133 0.80522 0.23242 0.0
Tb888 Tb 0.8146 0.62896 0.65853 0.0
Eu889 Eu 0.84904 0.69442 0.71032 0.0
C890 C 0.85916 0.60666 0.70326 0.0
C891 C 0.74983 0.60375 0.70154 0.0
C892 C 0.80388 0.60767 0.59246 0.0
C893 C 0.82504 0.6056 0.55095 0.0
C894 C 0.8142 0.58627 0.57345 0.0
C895 C 0.80465 0.64885 0.5886 0.0
C896 C 0.81508 0.66798 0.56607 0.0
C897 C 0.82559 0.64671 0.54696 0.0
C898 C 0.79615 0.58906 0.61671 0.0
O899 O 0.78402 0.67242 0.65786 0.0
O900 O 0.83518 0.73422 0.68315 0.0
O901 O 0.91175 0.71672 0.68862 0.0
O902 O 0.8731 0.69407 0.6513 0.0
C903 C 0.80234 0.71551 0.66574 0.0
O904 O 0.83495 0.73012 0.73967 0.0
O905 O 0.89736 0.7265 0.74191 0.0
O906 O 0.84597 0.62873 0.71774 0.0
O907 O 0.85675 0.60853 0.6796 0.0
O908 O 0.76432 0.58738 0.68406 0.0
O909 O 0.77289 0.64688 0.70942 0.0
C910 C 0.91149 0.71651 0.66484 0.0
O911 O 0.83341 0.60009 0.62997 0.0
O912 O 0.7661 0.59309 0.6293 0.0
C913 C 0.85741 0.71544 0.7776 0.0
C914 C 0.83311 0.67607 0.82283 0.0
C915 C 0.84191 0.72086 0.81994 0.0
C916 C 0.85416 0.74044 0.79752 0.0
C917 C 0.8475 0.67039 0.78036 0.0
C918 C 0.83586 0.65107 0.80272 0.0
C919 C 0.86936 0.73521 0.75373 0.0
H920 H 0.83261 0.58815 0.53659 0.0
H921 H 0.81441 0.55482 0.57611 0.0
H922 H 0.79784 0.66663 0.60312 0.0
H923 H 0.81583 0.69997 0.56378 0.0
H924 H 0.84019 0.74101 0.83512 0.0
H925 H 0.86113 0.77506 0.79573 0.0
H926 H 0.8487 0.65001 0.76518 0.0
H927 H 0.82859 0.61629 0.80422 0.0
Tb928 Tb 0.35809 0.17187 0.66062 0.0
Eu929 Eu 0.29488 0.14226 0.70837 0.0
C930 C 0.3855 0.23859 0.70727 0.0
C931 C 0.3849 0.13271 0.70493 0.0
C932 C 0.38886 0.18724 0.59711 0.0
C933 C 0.3993 0.21474 0.55662 0.0
C934 C 0.41429 0.22076 0.58108 0.0
C935 C 0.34828 0.14757 0.58844 0.0
C936 C 0.33354 0.14134 0.564 0.0
C937 C 0.35879 0.17492 0.54787 0.0
C938 C 0.40284 0.19558 0.62307 0.0
O939 O 0.31234 0.09817 0.65579 0.0
O940 O 0.25308 0.09029 0.67838 0.0
O941 O 0.27369 0.18346 0.68595 0.0
O942 O 0.29406 0.16865 0.64906 0.0
C943 C 0.26959 0.07451 0.66195 0.0
O944 O 0.25589 0.09123 0.73401 0.0
O945 O 0.25984 0.15721 0.73652 0.0
O946 O 0.36149 0.2046 0.72077 0.0
O947 O 0.38038 0.2338 0.68353 0.0
O948 O 0.39993 0.16291 0.68835 0.0
O949 O 0.3425 0.11386 0.7116 0.0
C950 C 0.27093 0.18235 0.66219 0.0
O951 O 0.38976 0.2206 0.63497 0.0
O952 O 0.39598 0.16017 0.63477 0.0
C953 C 0.26337 0.12516 0.7729 0.0
C954 C 0.29329 0.13567 0.82197 0.0
C955 C 0.25128 0.0975 0.81336 0.0
C956 C 0.23629 0.0924 0.78891 0.0
C957 C 0.30589 0.1626 0.78143 0.0
C958 C 0.32055 0.16796 0.80577 0.0
C959 C 0.24852 0.11951 0.74713 0.0
H960 H 0.41949 0.24101 0.54453 0.0
H961 H 0.44538 0.25185 0.58756 0.0
H962 H 0.32762 0.1217 0.60063 0.0
H963 H 0.30184 0.11062 0.5578 0.0
H964 H 0.22975 0.07224 0.82558 0.0
H965 H 0.20366 0.06299 0.78252 0.0
H966 H 0.32781 0.1878 0.76927 0.0
H967 H 0.35339 0.19732 0.81194 0.0
Tb968 Tb 0.84636 0.14722 0.70725 0.0
Eu969 Eu 0.80843 0.17316 0.65764 0.0
C970 C 0.80017 0.07672 0.66261 0.0
C971 C 0.90887 0.18399 0.66332 0.0
C972 C 0.85805 0.1345 0.77172 0.0
C973 C 0.84201 0.1105 0.8128 0.0
C974 C 0.85564 0.10555 0.78977 0.0
C975 C 0.84615 0.16808 0.77683 0.0
C976 C 0.83281 0.17319 0.79979 0.0
C977 C 0.83072 0.14458 0.81806 0.0
C978 C 0.86863 0.12709 0.74698 0.0
O979 O 0.87517 0.22093 0.70961 0.0
O980 O 0.82147 0.22762 0.68605 0.0
O981 O 0.74711 0.13567 0.68024 0.0
O982 O 0.78655 0.15116 0.71732 0.0
C983 C 0.85548 0.24416 0.70271 0.0
O984 O 0.8178 0.22299 0.63125 0.0
O985 O 0.76062 0.15366 0.62588 0.0
O986 O 0.81175 0.11012 0.64831 0.0
O987 O 0.80212 0.0835 0.68618 0.0
O988 O 0.89543 0.15465 0.68041 0.0
O989 O 0.88465 0.20253 0.65622 0.0
C990 C 0.74808 0.13675 0.70409 0.0
O991 O 0.83289 0.09874 0.73298 0.0
O992 O 0.89582 0.16363 0.736 0.0
C993 C 0.80214 0.18782 0.59211 0.0
C994 C 0.83335 0.17788 0.54692 0.0
C995 C 0.81135 0.20375 0.54957 0.0
C996 C 0.79565 0.20854 0.57206 0.0
C997 C 0.82552 0.16338 0.58961 0.0
C998 C 0.84072 0.15823 0.56724 0.0
C999 C 0.78609 0.19216 0.61592 0.0
H1000 H 0.841 0.0882 0.82659 0.0
H1001 H 0.86394 0.07893 0.78599 0.0
H1002 H 0.84671 0.19008 0.76297 0.0
H1003 H 0.82371 0.19933 0.8032 0.0
H1004 H 0.80509 0.21904 0.53412 0.0
H1005 H 0.77817 0.22799 0.57375 0.0
H1006 H 0.83172 0.14789 0.60498 0.0
H1007 H 0.85801 0.13856 0.56576 0.0
loop_
_geom_bond_atom_site_label_1
_geom_bond_atom_site_label_2
_geom_bond_distance
_geom_bond_site_symmetry_2
_ccdc_geom_bond_type
C0 C1 1.384 . S
C0 H13 0.947 1_545 S
C0 C35 1.382 . S
C1 C0 1.384 . S
C1 C2 1.378 . S
C2 C1 1.378 . S
C2 C3 1.378 . S
C2 H14 0.952 . S
C3 C2 1.378 . S
C3 H15 0.950 . S
C3 C34 1.383 . S
H4 C23 0.947 . S
H5 C24 0.946 . S
H6 C26 0.953 . S
H7 C27 0.945 . S
H8 C29 0.952 . S
H9 C30 0.949 . S
H10 C32 0.950 . S
H11 C33 0.948 . S
H12 C35 0.951 . S
H13 C0 0.947 1_565 S
H14 C2 0.952 . S
H15 C3 0.950 . S
N16 C19 1.382 . S
N16 C21 1.363 . S
N17 C19 1.371 . S
N17 C20 1.372 . S
N18 C20 1.361 . S
N18 C21 1.377 . S
C19 N16 1.382 . S
C19 N17 1.371 . S
C19 C22 1.480 . S
C20 N17 1.372 . S
C20 N18 1.361 . S
C20 C28 1.457 . S
C21 N16 1.363 . S
C21 N18 1.377 . S
C21 C34 1.479 . S
C22 C19 1.480 . S
C22 C23 1.383 . S
C22 C27 1.385 . S
C23 H4 0.947 . S
C23 C22 1.383 . S
C23 C24 1.388 . S
C24 H5 0.946 . S
C24 C23 1.388 . S
C24 C25 1.384 . S
C25 C24 1.384 . S
C25 C26 1.377 . S
C26 H6 0.953 . S
C26 C25 1.377 . S
C26 C27 1.369 . S
C27 H7 0.945 . S
C27 C22 1.385 . S
C27 C26 1.369 . S
C28 C20 1.457 . S
C28 C29 1.372 . S
C28 C33 1.364 . S
C29 H8 0.952 . S
C29 C28 1.372 . S
C29 C30 1.389 . S
C30 H9 0.949 . S
C30 C29 1.389 . S
C30 C31 1.387 . S
C31 C30 1.387 . S
C31 C32 1.372 . S
C32 H10 0.950 . S
C32 C31 1.372 . S
C32 C33 1.379 . S
C33 H11 0.948 . S
C33 C28 1.364 . S
C33 C32 1.379 . S
C34 C3 1.383 . S
C34 C21 1.479 . S
C34 C35 1.398 . S
C35 C0 1.382 . S
C35 H12 0.951 . S
C35 C34 1.398 . S
C36 C37 1.384 . S
C36 H49 0.947 . S
C36 C71 1.382 1_455 S
C37 C36 1.384 . S
C37 C38 1.378 1_455 S
C38 C37 1.378 1_655 S
C38 C39 1.378 . S
C38 H50 0.952 . S
C39 C38 1.378 . S
C39 H51 0.950 . S
C39 C70 1.383 . S
H40 C59 0.947 . S
H41 C60 0.946 . S
H42 C62 0.952 1_565 S
H43 C63 0.945 . S
H44 C65 0.952 . S
H45 C66 0.949 . S
H46 C68 0.950 . S
H47 C69 0.948 . S
H48 C71 0.951 . S
H49 C36 0.947 . S
H50 C38 0.952 . S
H51 C39 0.950 . S
N52 C55 1.382 . S
N52 C57 1.363 . S
N53 C55 1.371 . S
N53 C56 1.372 . S
N54 C56 1.361 . S
N54 C57 1.377 . S
C55 N52 1.382 . S
C55 N53 1.371 . S
C55 C58 1.480 . S
C56 N53 1.372 . S
C56 N54 1.361 . S
C56 C64 1.457 . S
C57 N52 1.363 . S
C57 N54 1.377 . S
C57 C70 1.479 . S
C58 C55 1.480 . S
C58 C59 1.383 . S
C58 C63 1.385 . S
C59 H40 0.947 . S
C59 C58 1.383 . S
C59 C60 1.388 . S
C60 H41 0.946 . S
C60 C59 1.388 . S
C60 C61 1.384 1_545 S
C61 C60 1.384 1_565 S
C61 C62 1.376 1_565 S
C62 H42 0.952 1_545 S
C62 C61 1.376 1_545 S
C62 C63 1.371 . S
C63 H43 0.945 . S
C63 C58 1.385 . S
C63 C62 1.371 . S
C64 C56 1.457 . S
C64 C65 1.372 . S
C64 C69 1.364 . S
C65 H44 0.952 . S
C65 C64 1.372 . S
C65 C66 1.389 . S
C66 H45 0.949 . S
C66 C65 1.389 . S
C66 C67 1.387 . S
C67 C66 1.387 . S
C67 C68 1.372 . S
C68 H46 0.950 . S
C68 C67 1.372 . S
C68 C69 1.379 . S
C69 H47 0.948 . S
C69 C64 1.364 . S
C69 C68 1.379 . S
C70 C39 1.383 . S
C70 C57 1.479 . S
C70 C71 1.398 . S
C71 C36 1.382 1_655 S
C71 H48 0.951 . S
C71 C70 1.398 . S
C72 C73 1.384 . S
C72 H85 0.947 . S
C72 C107 1.382 . S
C73 C72 1.384 . S
C73 C74 1.378 . S
C74 C73 1.378 . S
C74 C75 1.378 . S
C74 H86 0.952 . S
C75 C74 1.378 . S
C75 H87 0.950 . S
C75 C106 1.383 . S
H76 C95 0.947 . S
H77 C96 0.946 . S
H78 C98 0.953 . S
H79 C99 0.945 . S
H80 C101 0.952 . S
H81 C102 0.949 . S
H82 C104 0.950 . S
H83 C105 0.948 . S
H84 C107 0.951 . S
H85 C72 0.947 . S
H86 C74 0.952 . S
H87 C75 0.950 . S
N88 C91 1.382 . S
N88 C93 1.363 . S
N89 C91 1.371 . S
N89 C92 1.372 . S
N90 C92 1.361 . S
N90 C93 1.377 . S
C91 N88 1.382 . S
C91 N89 1.371 . S
C91 C94 1.480 . S
C92 N89 1.372 . S
C92 N90 1.361 . S
C92 C100 1.457 . S
C93 N88 1.363 . S
C93 N90 1.377 . S
C93 C106 1.479 . S
C94 C91 1.480 . S
C94 C95 1.383 . S
C94 C99 1.385 . S
C95 H76 0.947 . S
C95 C94 1.383 . S
C95 C96 1.388 1_655 S
C96 H77 0.946 . S
C96 C95 1.388 1_455 S
C96 C97 1.384 . S
C97 C96 1.384 . S
C97 C98 1.377 . S
C98 H78 0.953 . S
C98 C97 1.377 . S
C98 C99 1.369 1_455 S
C99 H79 0.945 . S
C99 C94 1.385 . S
C99 C98 1.369 1_655 S
C100 C92 1.457 . S
C100 C101 1.372 . S
C100 C105 1.364 . S
C101 H80 0.952 . S
C101 C100 1.372 . S
C101 C102 1.389 . S
C102 H81 0.949 . S
C102 C101 1.389 . S
C102 C103 1.387 . S
C103 C102 1.387 . S
C103 C104 1.372 . S
C104 H82 0.950 . S
C104 C103 1.372 . S
C104 C105 1.379 . S
C105 H83 0.948 . S
C105 C100 1.364 . S
C105 C104 1.379 . S
C106 C75 1.383 . S
C106 C93 1.479 . S
C106 C107 1.398 . S
C107 C72 1.382 . S
C107 H84 0.951 . S
C107 C106 1.398 . S
C108 C109 1.384 . S
C108 H121 0.947 . S
C108 C143 1.382 1_655 S
C109 C108 1.384 . S
C109 C110 1.369 1_655 S
C110 C109 1.369 1_455 S
C110 C111 1.388 . S
C110 H122 0.952 1_455 S
C111 C110 1.388 . S
C111 H123 0.950 . S
C111 C142 1.383 . S
H112 C131 0.947 . S
H113 C132 0.946 . S
H114 C134 0.953 . S
H115 C135 0.945 . S
H116 C137 0.952 . S
H117 C138 0.949 . S
H118 C140 0.950 . S
H119 C141 0.948 . S
H120 C143 0.951 . S
H121 C108 0.947 . S
H122 C110 0.952 1_655 S
H123 C111 0.950 . S
N124 C127 1.382 . S
N124 C129 1.363 . S
N125 C127 1.371 . S
N125 C128 1.372 . S
N126 C128 1.361 . S
N126 C129 1.377 . S
C127 N124 1.382 . S
C127 N125 1.371 . S
C127 C130 1.480 . S
C128 N125 1.372 . S
C128 N126 1.361 . S
C128 C136 1.457 . S
C129 N124 1.363 . S
C129 N126 1.377 . S
C129 C142 1.479 . S
C130 C127 1.480 . S
C130 C131 1.383 . S
C130 C135 1.385 . S
C131 H112 0.947 . S
C131 C130 1.383 . S
C131 C132 1.388 . S
C132 H113 0.946 . S
C132 C131 1.388 . S
C132 C133 1.384 . S
C133 C132 1.384 . S
C133 C134 1.377 . S
C134 H114 0.953 . S
C134 C133 1.377 . S
C134 C135 1.369 . S
C135 H115 0.945 . S
C135 C130 1.385 . S
C135 C134 1.369 . S
C136 C128 1.457 . S
C136 C137 1.372 . S
C136 C141 1.364 . S
C137 H116 0.952 . S
C137 C136 1.372 . S
C137 C138 1.389 . S
C138 H117 0.949 . S
C138 C137 1.389 . S
C138 C139 1.387 . S
C139 C138 1.387 . S
C139 C140 1.372 . S
C140 H118 0.950 . S
C140 C139 1.372 . S
C140 C141 1.379 . S
C141 H119 0.948 . S
C141 C136 1.364 . S
C141 C140 1.379 . S
C142 C111 1.383 . S
C142 C129 1.479 . S
C142 C143 1.398 . S
C143 C108 1.382 1_455 S
C143 H120 0.951 . S
C143 C142 1.398 . S
C144 C145 1.384 . S
C144 H157 0.947 . S
C144 C179 1.382 . S
C145 C144 1.384 . S
C145 C146 1.378 . S
C146 C145 1.378 . S
C146 C147 1.378 . S
C146 H158 0.952 . S
C147 C146 1.378 . S
C147 H159 0.950 . S
C147 C178 1.383 . S
H148 C167 0.947 . S
H149 C168 0.946 . S
H150 C170 0.953 1_545 S
H151 C171 0.945 . S
H152 C173 0.952 . S
H153 C174 0.949 . S
H154 C176 0.950 . S
H155 C177 0.948 . S
H156 C179 0.951 . S
H157 C144 0.947 . S
H158 C146 0.952 . S
H159 C147 0.950 . S
N160 C163 1.382 . S
N160 C165 1.363 . S
N161 C163 1.371 . S
N161 C164 1.372 . S
N162 C164 1.361 . S
N162 C165 1.377 . S
C163 N160 1.382 . S
C163 N161 1.371 . S
C163 C166 1.480 . S
C164 N161 1.372 . S
C164 N162 1.361 . S
C164 C172 1.457 . S
C165 N160 1.363 . S
C165 N162 1.377 . S
C165 C178 1.479 . S
C166 C163 1.480 . S
C166 C167 1.383 . S
C166 C171 1.385 . S
C167 H148 0.947 . S
C167 C166 1.383 . S
C167 C168 1.388 . S
C168 H149 0.946 . S
C168 C167 1.388 . S
C168 C169 1.365 1_565 S
C169 C168 1.365 1_545 S
C169 C170 1.378 1_545 S
C170 H150 0.953 1_565 S
C170 C169 1.378 1_565 S
C170 C171 1.369 . S
C171 H151 0.945 . S
C171 C166 1.385 . S
C171 C170 1.369 . S
C172 C164 1.457 . S
C172 C173 1.372 . S
C172 C177 1.364 . S
C173 H152 0.952 . S
C173 C172 1.372 . S
C173 C174 1.389 . S
C174 H153 0.949 . S
C174 C173 1.389 . S
C174 C175 1.387 . S
C175 C174 1.387 . S
C175 C176 1.372 . S
C176 H154 0.950 . S
C176 C175 1.372 . S
C176 C177 1.379 . S
C177 H155 0.948 . S
C177 C172 1.364 . S
C177 C176 1.379 . S
C178 C147 1.383 . S
C178 C165 1.479 . S
C178 C179 1.398 . S
C179 C144 1.382 . S
C179 H156 0.951 . S
C179 C178 1.398 . S
C180 C181 1.384 . S
C180 H193 0.947 . S
C180 C215 1.382 1_545 S
C181 C180 1.384 . S
C181 C182 1.378 1_545 S
C182 C181 1.378 1_565 S
C182 C183 1.378 . S
C182 H194 0.952 . S
C183 C182 1.378 . S
C183 H195 0.950 . S
C183 C214 1.383 . S
H184 C203 0.947 . S
H185 C204 0.946 . S
H186 C206 0.953 . S
H187 C207 0.945 . S
H188 C209 0.952 . S
H189 C210 0.949 . S
H190 C212 0.950 . S
H191 C213 0.948 . S
H192 C215 0.951 . S
H193 C180 0.947 . S
H194 C182 0.952 . S
H195 C183 0.950 . S
N196 C199 1.382 . S
N196 C201 1.363 . S
N197 C199 1.371 . S
N197 C200 1.372 . S
N198 C200 1.361 . S
N198 C201 1.377 . S
C199 N196 1.382 . S
C199 N197 1.371 . S
C199 C202 1.480 . S
C200 N197 1.372 . S
C200 N198 1.361 . S
C200 C208 1.457 . S
C201 N196 1.363 . S
C201 N198 1.377 . S
C201 C214 1.479 . S
C202 C199 1.480 . S
C202 C203 1.383 . S
C202 C207 1.385 . S
C203 H184 0.947 . S
C203 C202 1.383 . S
C203 C204 1.388 . S
C204 H185 0.946 . S
C204 C203 1.388 . S
C204 C205 1.384 1_455 S
C205 C204 1.384 1_655 S
C205 C206 1.377 . S
C206 H186 0.953 . S
C206 C205 1.377 . S
C206 C207 1.369 1_655 S
C207 H187 0.945 . S
C207 C202 1.385 . S
C207 C206 1.369 1_455 S
C208 C200 1.457 . S
C208 C209 1.372 . S
C208 C213 1.364 . S
C209 H188 0.952 . S
C209 C208 1.372 . S
C209 C210 1.389 . S
C210 H189 0.949 . S
C210 C209 1.389 . S
C210 C211 1.387 . S
C211 C210 1.387 . S
C211 C212 1.372 . S
C212 H190 0.950 . S
C212 C211 1.372 . S
C212 C213 1.379 . S
C213 H191 0.948 . S
C213 C208 1.364 . S
C213 C212 1.379 . S
C214 C183 1.383 . S
C214 C201 1.479 . S
C214 C215 1.398 . S
C215 C180 1.382 1_565 S
C215 H192 0.951 . S
C215 C214 1.398 . S
C216 C217 1.384 . S
C216 H229 0.947 . S
C216 C251 1.382 . S
C217 C216 1.384 . S
C217 C218 1.378 . S
C218 C217 1.378 . S
C218 C219 1.378 . S
C218 H230 0.952 . S
C219 C218 1.378 . S
C219 H231 0.950 . S
C219 C250 1.383 . S
H220 C239 0.947 . S
H221 C240 0.946 . S
H222 C242 0.953 . S
H223 C243 0.945 . S
H224 C245 0.952 . S
H225 C246 0.960 . S
H226 C248 0.950 . S
H227 C249 0.948 . S
H228 C251 0.951 . S
H229 C216 0.947 . S
H230 C218 0.952 . S
H231 C219 0.950 . S
N232 C235 1.382 . S
N232 C237 1.363 . S
N233 C235 1.371 . S
N233 C236 1.372 . S
N234 C236 1.361 . S
N234 C237 1.377 . S
C235 N232 1.382 . S
C235 N233 1.371 . S
C235 C238 1.480 . S
C236 N233 1.372 . S
C236 N234 1.361 . S
C236 C244 1.457 . S
C237 N232 1.363 . S
C237 N234 1.377 . S
C237 C250 1.479 . S
C238 C235 1.480 . S
C238 C239 1.383 . S
C238 C243 1.385 . S
C239 H220 0.947 . S
C239 C238 1.383 . S
C239 C240 1.388 . S
C240 H221 0.946 . S
C240 C239 1.388 . S
C240 C241 1.384 . S
C241 C240 1.384 . S
C241 C242 1.377 . S
C242 H222 0.953 . S
C242 C241 1.377 . S
C242 C243 1.369 . S
C243 H223 0.945 . S
C243 C238 1.385 . S
C243 C242 1.369 . S
C244 C236 1.457 . S
C244 C245 1.372 . S
C244 C249 1.364 1_655 S
C245 H224 0.952 . S
C245 C244 1.372 . S
C245 C246 1.389 1_655 S
C246 H225 0.960 . S
C246 C245 1.389 1_455 S
C246 C247 1.387 . S
C247 C246 1.387 . S
C247 C248 1.372 . S
C248 H226 0.950 . S
C248 C247 1.372 . S
C248 C249 1.379 . S
C249 H227 0.948 . S
C249 C244 1.364 1_455 S
C249 C248 1.379 . S
C250 C219 1.383 . S
C250 C237 1.479 . S
C250 C251 1.398 . S
C251 C216 1.382 . S
C251 H228 0.951 . S
C251 C250 1.398 . S
C252 C253 1.384 . S
C252 H265 0.947 . S
C252 C287 1.382 . S
C253 C252 1.384 . S
C253 C254 1.378 . S
C254 C253 1.378 . S
C254 C255 1.378 . S
C254 H266 0.952 . S
C255 C254 1.378 . S
C255 H267 0.950 . S
C255 C286 1.383 . S
H256 C275 0.947 . S
H257 C276 0.946 . S
H258 C278 0.953 . S
H259 C279 0.945 . S
H260 C281 0.952 . S
H261 C282 0.949 . S
H262 C284 0.950 . S
H263 C285 0.948 . S
H264 C287 0.951 . S
H265 C252 0.947 . S
H266 C254 0.952 . S
H267 C255 0.950 . S
N268 C271 1.382 . S
N268 C273 1.363 . S
N269 C271 1.371 . S
N269 C272 1.372 . S
N270 C272 1.361 . S
N270 C273 1.377 . S
C271 N268 1.382 . S
C271 N269 1.371 . S
C271 C274 1.480 . S
C272 N269 1.372 . S
C272 N270 1.361 . S
C272 C280 1.457 . S
C273 N268 1.363 . S
C273 N270 1.377 . S
C273 C286 1.479 . S
C274 C271 1.480 . S
C274 C275 1.383 . S
C274 C279 1.385 . S
C275 H256 0.947 . S
C275 C274 1.383 . S
C275 C276 1.388 . S
C276 H257 0.946 . S
C276 C275 1.388 . S
C276 C277 1.384 . S
C277 C276 1.384 . S
C277 C278 1.377 . S
C278 H258 0.953 . S
C278 C277 1.377 . S
C278 C279 1.369 . S
C279 H259 0.945 . S
C279 C274 1.385 . S
C279 C278 1.369 . S
C280 C272 1.457 . S
C280 C281 1.372 . S
C280 C285 1.364 . S
C281 H260 0.952 . S
C281 C280 1.372 . S
C281 C282 1.389 . S
C282 H261 0.949 . S
C282 C281 1.389 . S
C282 C283 1.387 . S
C283 C282 1.387 . S
C283 C284 1.372 . S
C284 H262 0.950 . S
C284 C283 1.372 . S
C284 C285 1.379 . S
C285 H263 0.948 . S
C285 C280 1.364 . S
C285 C284 1.379 . S
C286 C255 1.383 . S
C286 C273 1.479 . S
C286 C287 1.398 . S
C287 C252 1.382 . S
C287 H264 0.951 . S
C287 C286 1.398 . S
C288 C289 1.384 . S
C288 H301 0.947 . S
C288 C323 1.382 . S
C289 C288 1.384 . S
C289 C290 1.378 . S
C290 C289 1.378 . S
C290 C291 1.378 . S
C290 H302 0.952 . S
C291 C290 1.378 . S
C291 H303 0.950 . S
C291 C322 1.383 . S
H292 C311 0.947 . S
H293 C312 0.946 . S
H294 C314 0.953 . S
H295 C315 0.945 . S
H296 C317 0.952 . S
H297 C318 0.949 . S
H298 C320 0.950 . S
H299 C321 0.948 . S
H300 C323 0.951 . S
H301 C288 0.947 . S
H302 C290 0.952 . S
H303 C291 0.950 . S
N304 C307 1.382 . S
N304 C309 1.363 . S
N305 C307 1.371 . S
N305 C308 1.372 . S
N306 C308 1.361 . S
N306 C309 1.377 . S
C307 N304 1.382 . S
C307 N305 1.371 . S
C307 C310 1.480 . S
C308 N305 1.372 . S
C308 N306 1.361 . S
C308 C316 1.457 . S
C309 N304 1.363 . S
C309 N306 1.377 . S
C309 C322 1.479 . S
C310 C307 1.480 . S
C310 C311 1.383 . S
C310 C315 1.385 . S
C311 H292 0.947 . S
C311 C310 1.383 . S
C311 C312 1.388 . S
C312 H293 0.946 . S
C312 C311 1.388 . S
C312 C313 1.384 . S
C313 C312 1.384 . S
C313 C314 1.377 . S
C314 H294 0.953 . S
C314 C313 1.377 . S
C314 C315 1.369 . S
C315 H295 0.945 . S
C315 C310 1.385 . S
C315 C314 1.369 . S
C316 C308 1.457 . S
C316 C317 1.372 . S
C316 C321 1.364 . S
C317 H296 0.952 . S
C317 C316 1.372 . S
C317 C318 1.389 . S
C318 H297 0.949 . S
C318 C317 1.389 . S
C318 C319 1.387 . S
C319 C318 1.387 . S
C319 C320 1.372 . S
C320 H298 0.950 . S
C320 C319 1.372 . S
C320 C321 1.379 . S
C321 H299 0.948 . S
C321 C316 1.364 . S
C321 C320 1.379 . S
C322 C291 1.383 . S
C322 C309 1.479 . S
C322 C323 1.398 . S
C323 C288 1.382 . S
C323 H300 0.951 . S
C323 C322 1.398 . S
C324 C325 1.384 . S
C324 H337 0.947 . S
C324 C359 1.382 . S
C325 C324 1.384 . S
C325 C326 1.378 . S
C326 C325 1.378 . S
C326 C327 1.378 . S
C326 H338 0.952 1_556 S
C327 C326 1.378 . S
C327 H339 0.950 . S
C327 C358 1.383 . S
H328 C347 0.947 . S
H329 C348 0.907 1_554 S
H330 C350 0.953 . S
H331 C351 0.945 . S
H332 C353 0.952 . S
H333 C354 0.949 . S
H334 C356 0.950 . S
H335 C357 0.948 . S
H336 C359 0.951 . S
H337 C324 0.947 . S
H338 C326 0.952 1_554 S
H339 C327 0.950 . S
N340 C343 1.382 . S
N340 C345 1.363 . S
N341 C343 1.371 . S
N341 C344 1.372 . S
N342 C344 1.361 . S
N342 C345 1.377 . S
C343 N340 1.382 . S
C343 N341 1.371 . S
C343 C346 1.480 . S
C344 N341 1.372 . S
C344 N342 1.361 . S
C344 C352 1.457 . S
C345 N340 1.363 . S
C345 N342 1.377 . S
C345 C358 1.479 . S
C346 C343 1.480 . S
C346 C347 1.383 . S
C346 C351 1.385 . S
C347 H328 0.947 . S
C347 C346 1.383 . S
C347 C348 1.388 . S
C348 H329 0.907 1_556 S
C348 C347 1.388 . S
C348 C349 1.384 . S
C349 C348 1.384 . S
C349 C350 1.377 . S
C350 H330 0.953 . S
C350 C349 1.377 . S
C350 C351 1.369 . S
C351 H331 0.945 . S
C351 C346 1.385 . S
C351 C350 1.369 . S
C352 C344 1.457 . S
C352 C353 1.372 . S
C352 C357 1.364 . S
C353 H332 0.952 . S
C353 C352 1.372 . S
C353 C354 1.389 . S
C354 H333 0.949 . S
C354 C353 1.389 . S
C354 C355 1.387 . S
C355 C354 1.387 . S
C355 C356 1.372 . S
C356 H334 0.950 . S
C356 C355 1.372 . S
C356 C357 1.379 . S
C357 H335 0.948 . S
C357 C352 1.364 . S
C357 C356 1.379 . S
C358 C327 1.383 . S
C358 C345 1.479 . S
C358 C359 1.398 . S
C359 C324 1.382 . S
C359 H336 0.951 . S
C359 C358 1.398 . S
C360 C361 1.384 . S
C360 H373 0.947 . S
C360 C395 1.382 . S
C361 C360 1.384 . S
C361 C362 1.378 1_556 S
C362 C361 1.378 1_554 S
C362 C363 1.378 1_554 S
C362 H374 0.952 . S
C363 C362 1.378 1_556 S
C363 H375 0.950 1_556 S
C363 C394 1.383 . S
H364 C383 0.947 1_554 S
H365 C384 0.946 . S
H366 C386 0.953 . S
H367 C387 0.945 . S
H368 C389 0.952 . S
H369 C390 0.949 . S
H370 C392 0.950 . S
H371 C393 0.948 . S
H372 C395 0.951 . S
H373 C360 0.947 . S
H374 C362 0.952 . S
H375 C363 0.950 1_554 S
N376 C379 1.382 . S
N376 C381 1.363 . S
N377 C379 1.371 . S
N377 C380 1.372 . S
N378 C380 1.361 . S
N378 C381 1.377 . S
C379 N376 1.382 . S
C379 N377 1.371 . S
C379 C382 1.480 . S
C380 N377 1.372 . S
C380 N378 1.361 . S
C380 C388 1.457 . S
C381 N376 1.363 . S
C381 N378 1.377 . S
C381 C394 1.479 . S
C382 C379 1.480 . S
C382 C383 1.383 . S
C382 C387 1.385 . S
C383 H364 0.947 1_556 S
C383 C382 1.383 . S
C383 C384 1.388 1_556 S
C384 H365 0.946 . S
C384 C383 1.388 1_554 S
C384 C385 1.384 1_554 S
C385 C384 1.384 1_556 S
C385 C386 1.377 . S
C386 H366 0.953 . S
C386 C385 1.377 . S
C386 C387 1.369 . S
C387 H367 0.945 . S
C387 C382 1.385 . S
C387 C386 1.369 . S
C388 C380 1.457 . S
C388 C389 1.372 . S
C388 C393 1.364 . S
C389 H368 0.952 . S
C389 C388 1.372 . S
C389 C390 1.389 . S
C390 H369 0.949 . S
C390 C389 1.389 . S
C390 C391 1.387 . S
C391 C390 1.387 . S
C391 C392 1.372 . S
C392 H370 0.950 . S
C392 C391 1.372 . S
C392 C393 1.379 . S
C393 H371 0.948 . S
C393 C388 1.364 . S
C393 C392 1.379 . S
C394 C363 1.383 . S
C394 C381 1.479 . S
C394 C395 1.398 . S
C395 C360 1.382 . S
C395 H372 0.951 . S
C395 C394 1.398 . S
C396 C397 1.384 . S
C396 H409 0.947 . S
C396 C431 1.382 . S
C397 C396 1.384 . S
C397 C398 1.378 1_556 S
C398 C397 1.378 1_554 S
C398 C399 1.378 1_554 S
C398 H410 0.952 . S
C399 C398 1.378 1_556 S
C399 H411 0.950 . S
C399 C430 1.383 . S
H400 C419 0.947 . S
H401 C420 0.946 1_554 S
H402 C422 0.953 . S
H403 C423 0.945 . S
H404 C425 0.952 . S
H405 C426 0.949 . S
H406 C428 0.950 . S
H407 C429 0.948 . S
H408 C431 0.951 . S
H409 C396 0.947 . S
H410 C398 0.952 . S
H411 C399 0.950 . S
N412 C415 1.382 . S
N412 C417 1.363 . S
N413 C415 1.371 . S
N413 C416 1.372 . S
N414 C416 1.361 . S
N414 C417 1.377 . S
C415 N412 1.382 . S
C415 N413 1.371 . S
C415 C418 1.480 . S
C416 N413 1.372 . S
C416 N414 1.361 . S
C416 C424 1.457 . S
C417 N412 1.363 . S
C417 N414 1.377 . S
C417 C430 1.479 . S
C418 C415 1.480 . S
C418 C419 1.383 . S
C418 C423 1.385 . S
C419 H400 0.947 . S
C419 C418 1.383 . S
C419 C420 1.388 . S
C420 H401 0.946 1_556 S
C420 C419 1.388 . S
C420 C421 1.384 . S
C421 C420 1.384 . S
C421 C422 1.377 . S
C422 H402 0.953 . S
C422 C421 1.377 . S
C422 C423 1.369 . S
C423 H403 0.945 . S
C423 C418 1.385 . S
C423 C422 1.369 . S
C424 C416 1.457 . S
C424 C425 1.372 . S
C424 C429 1.364 . S
C425 H404 0.952 . S
C425 C424 1.372 . S
C425 C426 1.389 . S
C426 H405 0.949 . S
C426 C425 1.389 . S
C426 C427 1.387 . S
C427 C426 1.387 . S
C427 C428 1.372 . S
C428 H406 0.950 . S
C428 C427 1.372 . S
C428 C429 1.379 . S
C429 H407 0.948 . S
C429 C424 1.364 . S
C429 C428 1.379 . S
C430 C399 1.383 . S
C430 C417 1.479 . S
C430 C431 1.398 . S
C431 C396 1.382 . S
C431 H408 0.951 . S
C431 C430 1.398 . S
C432 C433 1.384 . S
C432 H445 0.947 . S
C432 C467 1.382 . S
C433 C432 1.384 . S
C433 C434 1.378 1_554 S
C434 C433 1.378 1_556 S
C434 C435 1.378 1_556 S
C434 H446 0.952 . S
C435 C434 1.378 1_554 S
C435 H447 0.950 1_554 S
C435 C466 1.383 . S
H436 C455 0.947 . S
H437 C456 0.942 1_556 S
H438 C458 0.934 1_545 S
H439 C459 0.945 . S
H440 C461 0.952 . S
H441 C462 0.949 . S
H442 C464 0.950 . S
H443 C465 0.948 . S
H444 C467 0.951 . S
H445 C432 0.947 . S
H446 C434 0.952 . S
H447 C435 0.950 1_556 S
N448 C451 1.382 . S
N448 C453 1.363 . S
N449 C451 1.371 . S
N449 C452 1.372 . S
N450 C452 1.361 . S
N450 C453 1.377 . S
C451 N448 1.382 . S
C451 N449 1.371 . S
C451 C454 1.480 . S
C452 N449 1.372 . S
C452 N450 1.361 . S
C452 C460 1.457 . S
C453 N448 1.363 . S
C453 N450 1.377 . S
C453 C466 1.479 . S
C454 C451 1.480 . S
C454 C455 1.383 . S
C454 C459 1.385 . S
C455 H436 0.947 . S
C455 C454 1.383 . S
C455 C456 1.390 . S
C456 H437 0.942 1_554 S
C456 C455 1.390 . S
C456 C457 1.386 . S
C457 C456 1.386 . S
C457 C458 1.377 . S
C458 H438 0.934 1_565 S
C458 C457 1.377 . S
C458 C459 1.369 . S
C459 H439 0.945 . S
C459 C454 1.385 . S
C459 C458 1.369 . S
C460 C452 1.457 . S
C460 C461 1.372 . S
C460 C465 1.364 . S
C461 H440 0.952 . S
C461 C460 1.372 . S
C461 C462 1.389 . S
C462 H441 0.949 . S
C462 C461 1.389 . S
C462 C463 1.387 . S
C463 C462 1.387 . S
C463 C464 1.372 . S
C464 H442 0.950 . S
C464 C463 1.372 . S
C464 C465 1.379 . S
C465 H443 0.948 . S
C465 C460 1.364 . S
C465 C464 1.379 . S
C466 C435 1.383 . S
C466 C453 1.479 . S
C466 C467 1.398 . S
C467 C432 1.382 . S
C467 H444 0.951 . S
C467 C466 1.398 . S
C468 C469 1.384 . S
C468 H481 0.947 . S
C468 C503 1.382 . S
C469 C468 1.384 . S
C469 C470 1.378 . S
C470 C469 1.378 . S
C470 C471 1.378 . S
C470 H482 0.952 1_554 S
C471 C470 1.378 . S
C471 H483 0.950 . S
C471 C502 1.383 . S
H472 C491 0.947 . S
H473 C492 0.946 1_556 S
H474 C494 0.953 . S
H475 C495 0.945 . S
H476 C497 0.952 . S
H477 C498 0.949 . S
H478 C500 0.950 . S
H479 C501 0.948 . S
H480 C503 0.951 . S
H481 C468 0.947 . S
H482 C470 0.952 1_556 S
H483 C471 0.950 . S
N484 C487 1.382 . S
N484 C489 1.363 . S
N485 C487 1.371 . S
N485 C488 1.372 . S
N486 C488 1.361 . S
N486 C489 1.377 . S
C487 N484 1.382 . S
C487 N485 1.371 . S
C487 C490 1.480 . S
C488 N485 1.372 . S
C488 N486 1.361 . S
C488 C496 1.457 . S
C489 N484 1.363 . S
C489 N486 1.377 . S
C489 C502 1.479 . S
C490 C487 1.480 . S
C490 C491 1.383 . S
C490 C495 1.385 . S
C491 H472 0.947 . S
C491 C490 1.383 . S
C491 C492 1.388 . S
C492 H473 0.946 1_554 S
C492 C491 1.388 . S
C492 C493 1.384 . S
C493 C492 1.384 . S
C493 C494 1.377 . S
C494 H474 0.953 . S
C494 C493 1.377 . S
C494 C495 1.369 . S
C495 H475 0.945 . S
C495 C490 1.385 . S
C495 C494 1.369 . S
C496 C488 1.457 . S
C496 C497 1.372 . S
C496 C501 1.364 . S
C497 H476 0.952 . S
C497 C496 1.372 . S
C497 C498 1.389 . S
C498 H477 0.949 . S
C498 C497 1.389 . S
C498 C499 1.387 . S
C499 C498 1.387 . S
C499 C500 1.372 . S
C500 H478 0.950 . S
C500 C499 1.372 . S
C500 C501 1.379 . S
C501 H479 0.948 . S
C501 C496 1.364 . S
C501 C500 1.379 . S
C502 C471 1.383 . S
C502 C489 1.479 . S
C502 C503 1.398 . S
C503 C468 1.382 . S
C503 H480 0.951 . S
C503 C502 1.398 . S
C504 C505 1.384 . S
C504 H517 0.947 . S
C504 C539 1.382 . S
C505 C504 1.384 . S
C505 C506 1.378 . S
C506 C505 1.378 . S
C506 C507 1.378 . S
C506 H518 0.952 1_554 S
C507 C506 1.378 . S
C507 H519 0.950 . S
C507 C538 1.383 . S
H508 C527 0.947 . S
H509 C528 0.946 . S
H510 C530 0.953 . S
H511 C531 0.945 . S
H512 C533 0.952 . S
H513 C534 0.949 . S
H514 C536 0.950 . S
H515 C537 0.948 . S
H516 C539 0.951 . S
H517 C504 0.947 . S
H518 C506 0.952 1_556 S
H519 C507 0.950 . S
N520 C523 1.382 . S
N520 C525 1.363 . S
N521 C523 1.371 . S
N521 C524 1.372 . S
N522 C524 1.361 . S
N522 C525 1.377 . S
C523 N520 1.382 . S
C523 N521 1.371 . S
C523 C526 1.480 . S
C524 N521 1.372 . S
C524 N522 1.361 . S
C524 C532 1.457 . S
C525 N520 1.363 . S
C525 N522 1.377 . S
C525 C538 1.479 . S
C526 C523 1.480 . S
C526 C527 1.383 . S
C526 C531 1.385 . S
C527 H508 0.947 . S
C527 C526 1.383 . S
C527 C528 1.388 . S
C528 H509 0.946 . S
C528 C527 1.388 . S
C528 C529 1.384 . S
C529 C528 1.384 . S
C529 C530 1.377 . S
C530 H510 0.953 . S
C530 C529 1.377 . S
C530 C531 1.369 . S
C531 H511 0.945 . S
C531 C526 1.385 . S
C531 C530 1.369 . S
C532 C524 1.457 . S
C532 C533 1.372 . S
C532 C537 1.364 . S
C533 H512 0.952 . S
C533 C532 1.372 . S
C533 C534 1.389 . S
C534 H513 0.949 . S
C534 C533 1.389 . S
C534 C535 1.387 . S
C535 C534 1.387 . S
C535 C536 1.372 . S
C536 H514 0.950 . S
C536 C535 1.372 . S
C536 C537 1.379 . S
C537 H515 0.948 . S
C537 C532 1.364 . S
C537 C536 1.379 . S
C538 C507 1.383 . S
C538 C525 1.479 . S
C538 C539 1.398 . S
C539 C504 1.382 . S
C539 H516 0.951 . S
C539 C538 1.398 . S
C540 C541 1.384 . S
C540 H553 0.947 . S
C540 C575 1.382 . S
C541 C540 1.384 . S
C541 C542 1.378 . S
C542 C541 1.378 . S
C542 C543 1.378 . S
C542 H554 0.952 . S
C543 C542 1.378 . S
C543 H555 0.950 . S
C543 C574 1.383 . S
H544 C563 0.947 . S
H545 C564 0.946 . S
H546 C566 0.953 . S
H547 C567 0.945 . S
H548 C569 0.952 . S
H549 C570 0.949 . S
H550 C572 0.950 . S
H551 C573 0.948 . S
H552 C575 0.951 . S
H553 C540 0.947 . S
H554 C542 0.952 . S
H555 C543 0.950 . S
N556 C559 1.382 . S
N556 C561 1.363 . S
N557 C559 1.371 . S
N557 C560 1.372 . S
N558 C560 1.361 . S
N558 C561 1.377 . S
C559 N556 1.382 . S
C559 N557 1.371 . S
C559 C562 1.480 . S
C560 N557 1.372 . S
C560 N558 1.361 . S
C560 C568 1.457 . S
C561 N556 1.363 . S
C561 N558 1.377 . S
C561 C574 1.479 . S
C562 C559 1.480 . S
C562 C563 1.383 . S
C562 C567 1.385 . S
C563 H544 0.947 . S
C563 C562 1.383 . S
C563 C564 1.388 . S
C564 H545 0.946 . S
C564 C563 1.388 . S
C564 C565 1.384 . S
C565 C564 1.384 . S
C565 C566 1.377 . S
C566 H546 0.953 . S
C566 C565 1.377 . S
C566 C567 1.369 . S
C567 H547 0.945 . S
C567 C562 1.385 . S
C567 C566 1.369 . S
C568 C560 1.457 . S
C568 C569 1.372 . S
C568 C573 1.364 . S
C569 H548 0.952 . S
C569 C568 1.372 . S
C569 C570 1.389 . S
C570 H549 0.949 . S
C570 C569 1.389 . S
C570 C571 1.387 . S
C571 C570 1.387 . S
C571 C572 1.372 . S
C572 H550 0.950 . S
C572 C571 1.372 . S
C572 C573 1.379 . S
C573 H551 0.948 . S
C573 C568 1.364 . S
C573 C572 1.379 . S
C574 C543 1.383 . S
C574 C561 1.479 . S
C574 C575 1.398 . S
C575 C540 1.382 . S
C575 H552 0.951 . S
C575 C574 1.398 . S
C576 C577 1.384 . S
C576 H589 0.947 . S
C576 C611 1.382 . S
C577 C576 1.384 . S
C577 C578 1.378 . S
C578 C577 1.378 . S
C578 C579 1.378 . S
C578 H590 0.952 . S
C579 C578 1.378 . S
C579 H591 0.950 . S
C579 C610 1.383 . S
H580 C599 0.947 . S
H581 C600 0.946 . S
H582 C602 0.953 . S
H583 C603 0.945 . S
H584 C605 0.952 . S
H585 C606 0.960 1_455 S
H586 C608 0.950 . S
H587 C609 0.948 . S
H588 C611 0.951 . S
H589 C576 0.947 . S
H590 C578 0.952 . S
H591 C579 0.950 . S
N592 C595 1.382 . S
N592 C597 1.363 . S
N593 C595 1.371 . S
N593 C596 1.372 . S
N594 C596 1.361 . S
N594 C597 1.377 . S
C595 N592 1.382 . S
C595 N593 1.371 . S
C595 C598 1.480 . S
C596 N593 1.372 . S
C596 N594 1.361 . S
C596 C604 1.457 . S
C597 N592 1.363 . S
C597 N594 1.377 . S
C597 C610 1.479 . S
C598 C595 1.480 . S
C598 C599 1.383 . S
C598 C603 1.385 . S
C599 H580 0.947 . S
C599 C598 1.383 . S
C599 C600 1.388 . S
C600 H581 0.946 . S
C600 C599 1.388 . S
C600 C601 1.384 . S
C601 C600 1.384 . S
C601 C602 1.377 . S
C602 H582 0.953 . S
C602 C601 1.377 . S
C602 C603 1.369 . S
C603 H583 0.945 . S
C603 C598 1.385 . S
C603 C602 1.369 . S
C604 C596 1.457 . S
C604 C605 1.372 . S
C604 C609 1.364 1_455 S
C605 H584 0.952 . S
C605 C604 1.372 . S
C605 C606 1.388 1_455 S
C606 H585 0.960 1_655 S
C606 C605 1.388 1_655 S
C606 C607 1.384 . S
C607 C606 1.384 . S
C607 C608 1.372 . S
C608 H586 0.950 . S
C608 C607 1.372 . S
C608 C609 1.379 . S
C609 H587 0.948 . S
C609 C604 1.364 1_655 S
C609 C608 1.379 . S
C610 C579 1.383 . S
C610 C597 1.479 . S
C610 C611 1.398 . S
C611 C576 1.382 . S
C611 H588 0.951 . S
C611 C610 1.398 . S
C612 C613 1.384 . S
C612 H625 0.947 . S
C612 C647 1.382 . S
C613 C612 1.384 . S
C613 C614 1.378 . S
C614 C613 1.378 . S
C614 C615 1.378 . S
C614 H626 0.952 . S
C615 C614 1.378 . S
C615 H627 0.950 . S
C615 C646 1.383 . S
H616 C635 0.947 . S
H617 C636 0.946 . S
H618 C638 0.953 . S
H619 C639 0.945 . S
H620 C641 0.952 . S
H621 C642 0.949 . S
H622 C644 0.950 . S
H623 C645 0.948 . S
H624 C647 0.951 . S
H625 C612 0.947 . S
H626 C614 0.952 . S
H627 C615 0.950 . S
N628 C631 1.382 . S
N628 C633 1.363 . S
N629 C631 1.371 . S
N629 C632 1.372 . S
N630 C632 1.361 . S
N630 C633 1.377 . S
C631 N628 1.382 . S
C631 N629 1.371 . S
C631 C634 1.480 . S
C632 N629 1.372 . S
C632 N630 1.361 . S
C632 C640 1.457 . S
C633 N628 1.363 . S
C633 N630 1.377 . S
C633 C646 1.479 . S
C634 C631 1.480 . S
C634 C635 1.383 . S
C634 C639 1.385 . S
C635 H616 0.947 . S
C635 C634 1.383 . S
C635 C636 1.388 . S
C636 H617 0.946 . S
C636 C635 1.388 . S
C636 C637 1.384 . S
C637 C636 1.384 . S
C637 C638 1.377 . S
C638 H618 0.953 . S
C638 C637 1.377 . S
C638 C639 1.369 . S
C639 H619 0.945 . S
C639 C634 1.385 . S
C639 C638 1.369 . S
C640 C632 1.457 . S
C640 C641 1.372 . S
C640 C645 1.364 . S
C641 H620 0.952 . S
C641 C640 1.372 . S
C641 C642 1.389 . S
C642 H621 0.949 . S
C642 C641 1.389 . S
C642 C643 1.387 . S
C643 C642 1.387 . S
C643 C644 1.372 . S
C644 H622 0.950 . S
C644 C643 1.372 . S
C644 C645 1.379 . S
C645 H623 0.948 . S
C645 C640 1.364 . S
C645 C644 1.379 . S
C646 C615 1.383 . S
C646 C633 1.479 . S
C646 C647 1.398 . S
C647 C612 1.382 . S
C647 H624 0.951 . S
C647 C646 1.398 . S
Tb648 C658 2.825 . S
Tb648 O659 2.347 1_565 S
Tb648 O662 2.366 1_565 S
Tb648 O667 2.418 . S
Tb648 O668 2.384 . S
Tb648 O671 2.479 . S
Tb648 O672 2.471 . S
Eu649 O660 2.418 . S
Eu649 O661 2.384 . S
Eu649 O664 2.479 . S
Eu649 O665 2.471 . S
Eu649 O666 2.347 1_545 S
Eu649 O669 2.366 1_545 S
Eu649 C679 2.825 . S
C650 O666 1.259 . S
C650 O667 1.265 1_554 S
C651 O668 1.255 1_554 S
C651 O669 1.265 . S
C652 C654 1.380 . S
C652 C655 1.374 1_565 S
C652 C658 1.507 . S
C653 C654 1.384 . S
C653 C657 1.366 1_565 S
C653 H680 0.930 . S
C654 C652 1.380 . S
C654 C653 1.384 . S
C654 H681 0.931 . S
C655 C652 1.374 1_545 S
C655 C656 1.390 . S
C655 H682 0.930 . S
C656 C655 1.390 . S
C656 C657 1.409 . S
C656 H683 0.930 . S
C657 C653 1.366 1_545 S
C657 C656 1.409 . S
C658 Tb648 2.825 . S
C658 C652 1.507 . S
C658 O671 1.238 . S
C658 O672 1.247 . S
O659 Tb648 2.347 1_545 S
O659 C663 1.259 . S
O660 Eu649 2.418 . S
O660 C663 1.265 1_554 S
O661 Eu649 2.384 . S
O661 C670 1.255 1_554 S
O662 Tb648 2.366 1_545 S
O662 C670 1.265 . S
C663 O659 1.259 . S
C663 O660 1.265 1_556 S
O664 Eu649 2.479 . S
O664 C679 1.238 . S
O665 Eu649 2.471 . S
O665 C679 1.247 . S
O666 Eu649 2.347 1_565 S
O666 C650 1.259 . S
O667 Tb648 2.418 . S
O667 C650 1.265 1_556 S
O668 Tb648 2.384 . S
O668 C651 1.255 1_556 S
O669 Eu649 2.366 1_565 S
O669 C651 1.265 . S
C670 O661 1.255 1_556 S
C670 O662 1.265 . S
O671 Tb648 2.479 . S
O671 C658 1.238 . S
O672 Tb648 2.471 . S
O672 C658 1.247 . S
C673 C676 1.380 . S
C673 C677 1.374 1_545 S
C673 C679 1.507 . S
C674 C675 1.375 1_565 S
C674 C678 1.401 . S
C675 C674 1.375 1_545 S
C675 C676 1.384 . S
C675 H684 0.930 . S
C676 C673 1.380 . S
C676 C675 1.384 . S
C676 H685 0.931 . S
C677 C673 1.374 1_565 S
C677 C678 1.390 . S
C677 H686 0.930 . S
C678 C674 1.401 . S
C678 C677 1.390 . S
C678 H687 0.930 . S
C679 Eu649 2.825 . S
C679 O664 1.238 . S
C679 O665 1.247 . S
C679 C673 1.507 . S
H680 C653 0.930 . S
H681 C654 0.931 . S
H682 C655 0.930 . S
H683 C656 0.930 . S
H684 C675 0.930 . S
H685 C676 0.931 . S
H686 C677 0.930 . S
H687 C678 0.930 . S
Tb688 C698 2.825 . S
Tb688 O699 2.347 1_455 S
Tb688 O702 2.366 1_455 S
Tb688 O707 2.418 . S
Tb688 O708 2.384 1_556 S
Tb688 O711 2.479 . S
Tb688 O712 2.471 1_455 S
Eu689 O700 2.418 . S
Eu689 O701 2.384 1_554 S
Eu689 O704 2.479 . S
Eu689 O705 2.471 1_655 S
Eu689 O706 2.347 1_655 S
Eu689 O709 2.366 1_655 S
Eu689 C719 2.825 . S
C690 O706 1.259 . S
C690 O707 1.265 1_554 S
C691 O708 1.255 . S
C691 O709 1.265 . S
C692 C694 1.380 . S
C692 C695 1.374 1_455 S
C692 C698 1.507 . S
C693 C694 1.384 . S
C693 C697 1.387 1_455 S
C693 H720 0.930 . S
C694 C692 1.380 . S
C694 C693 1.384 . S
C694 H721 0.931 . S
C695 C692 1.374 1_655 S
C695 C696 1.390 . S
C695 H722 0.930 . S
C696 C695 1.390 . S
C696 C697 1.391 . S
C696 H723 0.930 . S
C697 C693 1.387 1_655 S
C697 C696 1.391 . S
C698 Tb688 2.825 . S
C698 C692 1.507 . S
C698 O711 1.238 . S
C698 O712 1.247 1_455 S
O699 Tb688 2.347 1_655 S
O699 C703 1.259 . S
O700 Eu689 2.418 . S
O700 C703 1.265 1_554 S
O701 Eu689 2.384 1_556 S
O701 C710 1.255 . S
O702 Tb688 2.366 1_655 S
O702 C710 1.265 . S
C703 O699 1.259 . S
C703 O700 1.265 1_556 S
O704 Eu689 2.479 . S
O704 C719 1.238 . S
O705 Eu689 2.471 1_455 S
O705 C719 1.247 1_455 S
O706 Eu689 2.347 1_455 S
O706 C690 1.259 . S
O707 Tb688 2.418 . S
O707 C690 1.265 1_556 S
O708 Tb688 2.384 1_554 S
O708 C691 1.255 . S
O709 Eu689 2.366 1_455 S
O709 C691 1.265 . S
C710 O701 1.255 . S
C710 O702 1.265 . S
O711 Tb688 2.479 . S
O711 C698 1.238 . S
O712 Tb688 2.471 1_655 S
O712 C698 1.247 1_655 S
C713 C716 1.380 . S
C713 C717 1.374 1_655 S
C713 C719 1.507 . S
C714 C715 1.387 1_455 S
C714 C718 1.391 . S
C715 C714 1.387 1_655 S
C715 C716 1.384 . S
C715 H724 0.930 . S
C716 C713 1.380 . S
C716 C715 1.384 . S
C716 H725 0.931 . S
C717 C713 1.374 1_455 S
C717 C718 1.390 . S
C717 H726 0.930 . S
C718 C714 1.391 . S
C718 C717 1.390 . S
C718 H727 0.930 . S
C719 Eu689 2.825 . S
C719 O704 1.238 . S
C719 O705 1.247 1_655 S
C719 C713 1.507 . S
H720 C693 0.930 . S
H721 C694 0.931 . S
H722 C695 0.930 . S
H723 C696 0.930 . S
H724 C715 0.930 . S
H725 C716 0.931 . S
H726 C717 0.930 . S
H727 C718 0.930 . S
Tb728 C738 2.825 . S
Tb728 O739 2.347 . S
Tb728 O742 2.366 . S
Tb728 O747 2.418 . S
Tb728 O748 2.411 . S
Tb728 O751 2.479 . S
Tb728 O752 2.471 . S
Eu729 O740 2.418 . S
Eu729 O741 2.384 1_556 S
Eu729 O744 2.479 . S
Eu729 O745 2.471 . S
Eu729 O746 2.347 . S
Eu729 O749 2.366 . S
Eu729 C759 2.825 . S
C730 O746 1.259 . S
C730 O747 1.265 1_556 S
C731 O748 1.224 1_556 S
C731 O749 1.265 . S
C732 C734 1.380 . S
C732 C735 1.374 . S
C732 C738 1.507 . S
C733 C734 1.384 . S
C733 C737 1.387 . S
C733 H760 0.930 . S
C734 C732 1.380 . S
C734 C733 1.384 . S
C734 H761 0.931 . S
C735 C732 1.374 . S
C735 C736 1.390 . S
C735 H762 0.930 . S
C736 C735 1.390 . S
C736 C737 1.391 . S
C736 H763 0.930 . S
C737 C733 1.387 . S
C737 C736 1.391 . S
C738 Tb728 2.825 . S
C738 C732 1.507 . S
C738 O751 1.238 . S
C738 O752 1.247 . S
O739 Tb728 2.347 . S
O739 C743 1.259 . S
O740 Eu729 2.418 . S
O740 C743 1.265 1_556 S
O741 Eu729 2.384 1_554 S
O741 C750 1.255 . S
O742 Tb728 2.366 . S
O742 C750 1.265 . S
C743 O739 1.259 . S
C743 O740 1.265 1_554 S
O744 Eu729 2.479 . S
O744 C759 1.238 . S
O745 Eu729 2.471 . S
O745 C759 1.247 . S
O746 Eu729 2.347 . S
O746 C730 1.259 . S
O747 Tb728 2.418 . S
O747 C730 1.265 1_554 S
O748 Tb728 2.411 . S
O748 C731 1.224 1_554 S
O749 Eu729 2.366 . S
O749 C731 1.265 . S
C750 O741 1.255 . S
C750 O742 1.265 . S
O751 Tb728 2.479 . S
O751 C738 1.238 . S
O752 Tb728 2.471 . S
O752 C738 1.247 . S
C753 C756 1.380 . S
C753 C757 1.374 . S
C753 C759 1.507 . S
C754 C755 1.387 . S
C754 C758 1.391 . S
C755 C754 1.387 . S
C755 C756 1.384 . S
C755 H764 0.930 . S
C756 C753 1.380 . S
C756 C755 1.384 . S
C756 H765 0.931 . S
C757 C753 1.374 . S
C757 C758 1.390 . S
C757 H766 0.930 . S
C758 C754 1.391 . S
C758 C757 1.390 . S
C758 H767 0.930 . S
C759 Eu729 2.825 . S
C759 O744 1.238 . S
C759 O745 1.247 . S
C759 C753 1.507 . S
H760 C733 0.930 . S
H761 C734 0.931 . S
H762 C735 0.930 . S
H763 C736 0.930 . S
H764 C755 0.930 . S
H765 C756 0.931 . S
H766 C757 0.930 . S
H767 C758 0.930 . S
Tb768 C778 2.825 . S
Tb768 O779 2.347 . S
Tb768 O782 2.366 . S
Tb768 O787 2.418 . S
Tb768 O788 2.384 . S
Tb768 O791 2.479 . S
Tb768 O792 2.471 . S
Eu769 O780 2.418 . S
Eu769 O781 2.384 . S
Eu769 O784 2.479 . S
Eu769 O785 2.471 . S
Eu769 O786 2.347 . S
Eu769 O789 2.366 . S
Eu769 C799 2.825 . S
C770 O786 1.259 . S
C770 O787 1.265 . S
C771 O788 1.255 . S
C771 O789 1.265 . S
C772 C774 1.380 . S
C772 C775 1.374 . S
C772 C778 1.507 . S
C773 C774 1.384 . S
C773 C777 1.387 . S
C773 H800 0.930 . S
C774 C772 1.380 . S
C774 C773 1.384 . S
C774 H801 0.931 . S
C775 C772 1.374 . S
C775 C776 1.390 . S
C775 H802 0.930 . S
C776 C775 1.390 . S
C776 C777 1.391 . S
C776 H803 0.930 . S
C777 C773 1.387 . S
C777 C776 1.391 . S
C778 Tb768 2.825 . S
C778 C772 1.507 . S
C778 O791 1.238 . S
C778 O792 1.247 . S
O779 Tb768 2.347 . S
O779 C783 1.259 . S
O780 Eu769 2.418 . S
O780 C783 1.265 . S
O781 Eu769 2.384 . S
O781 C790 1.255 . S
O782 Tb768 2.366 . S
O782 C790 1.265 . S
C783 O779 1.259 . S
C783 O780 1.265 . S
O784 Eu769 2.479 . S
O784 C799 1.238 . S
O785 Eu769 2.471 . S
O785 C799 1.247 . S
O786 Eu769 2.347 . S
O786 C770 1.259 . S
O787 Tb768 2.418 . S
O787 C770 1.265 . S
O788 Tb768 2.384 . S
O788 C771 1.255 . S
O789 Eu769 2.366 . S
O789 C771 1.265 . S
C790 O781 1.255 . S
C790 O782 1.265 . S
O791 Tb768 2.479 . S
O791 C778 1.238 . S
O792 Tb768 2.471 . S
O792 C778 1.247 . S
C793 C796 1.380 . S
C793 C797 1.374 . S
C793 C799 1.507 . S
C794 C795 1.387 . S
C794 C798 1.391 . S
C795 C794 1.387 . S
C795 C796 1.384 . S
C795 H804 0.930 . S
C796 C793 1.380 . S
C796 C795 1.384 . S
C796 H805 0.931 . S
C797 C793 1.374 . S
C797 C798 1.390 . S
C797 H806 0.930 . S
C798 C794 1.391 . S
C798 C797 1.390 . S
C798 H807 0.930 . S
C799 Eu769 2.825 . S
C799 O784 1.238 . S
C799 O785 1.247 . S
C799 C793 1.507 . S
H800 C773 0.930 . S
H801 C774 0.931 . S
H802 C775 0.930 . S
H803 C776 0.930 . S
H804 C795 0.930 . S
H805 C796 0.931 . S
H806 C797 0.930 . S
H807 C798 0.930 . S
Tb808 C818 2.825 . S
Tb808 O819 2.347 . S
Tb808 O822 2.366 . S
Tb808 O827 2.418 . S
Tb808 O828 2.384 . S
Tb808 O831 2.479 . S
Tb808 O832 2.471 . S
Eu809 O820 2.418 . S
Eu809 O821 2.384 . S
Eu809 O824 2.479 . S
Eu809 O825 2.471 . S
Eu809 O826 2.347 . S
Eu809 O829 2.366 . S
Eu809 C839 2.825 . S
C810 O826 1.259 . S
C810 O827 1.265 . S
C811 O828 1.255 . S
C811 O829 1.265 . S
C812 C814 1.380 . S
C812 C815 1.374 . S
C812 C818 1.507 . S
C813 C814 1.384 . S
C813 C817 1.387 . S
C813 H840 0.930 . S
C814 C812 1.380 . S
C814 C813 1.384 . S
C814 H841 0.931 . S
C815 C812 1.374 . S
C815 C816 1.390 . S
C815 H842 0.930 . S
C816 C815 1.390 . S
C816 C817 1.391 . S
C816 H843 0.930 . S
C817 C813 1.387 . S
C817 C816 1.391 . S
C818 Tb808 2.825 . S
C818 C812 1.507 . S
C818 O831 1.238 . S
C818 O832 1.247 . S
O819 Tb808 2.347 . S
O819 C823 1.259 . S
O820 Eu809 2.418 . S
O820 C823 1.265 . S
O821 Eu809 2.384 . S
O821 C830 1.255 . S
O822 Tb808 2.366 . S
O822 C830 1.265 . S
C823 O819 1.259 . S
C823 O820 1.265 . S
O824 Eu809 2.479 . S
O824 C839 1.238 . S
O825 Eu809 2.471 . S
O825 C839 1.247 . S
O826 Eu809 2.347 . S
O826 C810 1.259 . S
O827 Tb808 2.418 . S
O827 C810 1.265 . S
O828 Tb808 2.384 . S
O828 C811 1.255 . S
O829 Eu809 2.366 . S
O829 C811 1.265 . S
C830 O821 1.255 . S
C830 O822 1.265 . S
O831 Tb808 2.479 . S
O831 C818 1.238 . S
O832 Tb808 2.471 . S
O832 C818 1.247 . S
C833 C836 1.380 . S
C833 C837 1.374 . S
C833 C839 1.507 . S
C834 C835 1.387 . S
C834 C838 1.391 . S
C835 C834 1.387 . S
C835 C836 1.384 . S
C835 H844 0.930 . S
C836 C833 1.380 . S
C836 C835 1.384 . S
C836 H845 0.931 . S
C837 C833 1.374 . S
C837 C838 1.390 . S
C837 H846 0.930 . S
C838 C834 1.391 . S
C838 C837 1.390 . S
C838 H847 0.930 . S
C839 Eu809 2.825 . S
C839 O824 1.238 . S
C839 O825 1.247 . S
C839 C833 1.507 . S
H840 C813 0.930 . S
H841 C814 0.931 . S
H842 C815 0.930 . S
H843 C816 0.930 . S
H844 C835 0.930 . S
H845 C836 0.931 . S
H846 C837 0.930 . S
H847 C838 0.930 . S
Tb848 C858 2.825 . S
Tb848 O859 2.347 . S
Tb848 O862 2.366 . S
Tb848 O867 2.418 . S
Tb848 O868 2.384 . S
Tb848 O871 2.479 . S
Tb848 O872 2.471 . S
Eu849 O860 2.418 . S
Eu849 O861 2.384 . S
Eu849 O864 2.479 . S
Eu849 O865 2.471 . S
Eu849 O866 2.347 . S
Eu849 O869 2.366 . S
Eu849 C879 2.825 . S
C850 O866 1.259 . S
C850 O867 1.265 . S
C851 O868 1.255 . S
C851 O869 1.265 . S
C852 C854 1.380 . S
C852 C855 1.374 . S
C852 C858 1.507 . S
C853 C854 1.384 . S
C853 C857 1.387 . S
C853 H880 0.930 . S
C854 C852 1.380 . S
C854 C853 1.384 . S
C854 H881 0.931 . S
C855 C852 1.374 . S
C855 C856 1.390 . S
C855 H882 0.930 . S
C856 C855 1.390 . S
C856 C857 1.391 . S
C856 H883 0.930 . S
C857 C853 1.387 . S
C857 C856 1.391 . S
C858 Tb848 2.825 . S
C858 C852 1.507 . S
C858 O871 1.238 . S
C858 O872 1.247 . S
O859 Tb848 2.347 . S
O859 C863 1.259 . S
O860 Eu849 2.418 . S
O860 C863 1.265 . S
O861 Eu849 2.384 . S
O861 C870 1.255 . S
O862 Tb848 2.366 . S
O862 C870 1.265 . S
C863 O859 1.259 . S
C863 O860 1.265 . S
O864 Eu849 2.479 . S
O864 C879 1.238 . S
O865 Eu849 2.471 . S
O865 C879 1.247 . S
O866 Eu849 2.347 . S
O866 C850 1.259 . S
O867 Tb848 2.418 . S
O867 C850 1.265 . S
O868 Tb848 2.384 . S
O868 C851 1.255 . S
O869 Eu849 2.366 . S
O869 C851 1.265 . S
C870 O861 1.255 . S
C870 O862 1.265 . S
O871 Tb848 2.479 . S
O871 C858 1.238 . S
O872 Tb848 2.471 . S
O872 C858 1.247 . S
C873 C876 1.380 . S
C873 C877 1.374 . S
C873 C879 1.507 . S
C874 C875 1.387 . S
C874 C878 1.391 . S
C875 C874 1.387 . S
C875 C876 1.384 . S
C875 H884 0.930 . S
C876 C873 1.380 . S
C876 C875 1.384 . S
C876 H885 0.931 . S
C877 C873 1.374 . S
C877 C878 1.390 . S
C877 H886 0.930 . S
C878 C874 1.391 . S
C878 C877 1.390 . S
C878 H887 0.930 . S
C879 Eu849 2.825 . S
C879 O864 1.238 . S
C879 O865 1.247 . S
C879 C873 1.507 . S
H880 C853 0.930 . S
H881 C854 0.931 . S
H882 C855 0.930 . S
H883 C856 0.930 . S
H884 C875 0.930 . S
H885 C876 0.931 . S
H886 C877 0.930 . S
H887 C878 0.930 . S
Tb888 C898 2.825 . S
Tb888 O899 2.347 . S
Tb888 O902 2.366 . S
Tb888 O907 2.418 . S
Tb888 O908 2.384 . S
Tb888 O911 2.479 . S
Tb888 O912 2.471 . S
Eu889 O900 2.418 . S
Eu889 O901 2.384 . S
Eu889 O904 2.479 . S
Eu889 O905 2.471 . S
Eu889 O906 2.347 . S
Eu889 O909 2.366 . S
Eu889 C919 2.825 . S
C890 O906 1.259 . S
C890 O907 1.265 . S
C891 O908 1.255 . S
C891 O909 1.265 . S
C892 C894 1.380 . S
C892 C895 1.374 . S
C892 C898 1.507 . S
C893 C894 1.384 . S
C893 C897 1.387 . S
C893 H920 0.930 . S
C894 C892 1.380 . S
C894 C893 1.384 . S
C894 H921 0.931 . S
C895 C892 1.374 . S
C895 C896 1.390 . S
C895 H922 0.930 . S
C896 C895 1.390 . S
C896 C897 1.391 . S
C896 H923 0.930 . S
C897 C893 1.387 . S
C897 C896 1.391 . S
C898 Tb888 2.825 . S
C898 C892 1.507 . S
C898 O911 1.238 . S
C898 O912 1.247 . S
O899 Tb888 2.347 . S
O899 C903 1.259 . S
O900 Eu889 2.418 . S
O900 C903 1.265 . S
O901 Eu889 2.384 . S
O901 C910 1.255 . S
O902 Tb888 2.366 . S
O902 C910 1.265 . S
C903 O899 1.259 . S
C903 O900 1.265 . S
O904 Eu889 2.479 . S
O904 C919 1.238 . S
O905 Eu889 2.471 . S
O905 C919 1.247 . S
O906 Eu889 2.347 . S
O906 C890 1.259 . S
O907 Tb888 2.418 . S
O907 C890 1.265 . S
O908 Tb888 2.384 . S
O908 C891 1.255 . S
O909 Eu889 2.366 . S
O909 C891 1.265 . S
C910 O901 1.255 . S
C910 O902 1.265 . S
O911 Tb888 2.479 . S
O911 C898 1.238 . S
O912 Tb888 2.471 . S
O912 C898 1.247 . S
C913 C916 1.380 . S
C913 C917 1.374 . S
C913 C919 1.507 . S
C914 C915 1.387 . S
C914 C918 1.391 . S
C915 C914 1.387 . S
C915 C916 1.384 . S
C915 H924 0.930 . S
C916 C913 1.380 . S
C916 C915 1.384 . S
C916 H925 0.931 . S
C917 C913 1.374 . S
C917 C918 1.390 . S
C917 H926 0.930 . S
C918 C914 1.391 . S
C918 C917 1.390 . S
C918 H927 0.930 . S
C919 Eu889 2.825 . S
C919 O904 1.238 . S
C919 O905 1.247 . S
C919 C913 1.507 . S
H920 C893 0.930 . S
H921 C894 0.931 . S
H922 C895 0.930 . S
H923 C896 0.930 . S
H924 C915 0.930 . S
H925 C916 0.931 . S
H926 C917 0.930 . S
H927 C918 0.930 . S
Tb928 C938 2.825 . S
Tb928 O939 2.347 . S
Tb928 O942 2.366 . S
Tb928 O947 2.418 . S
Tb928 O948 2.384 . S
Tb928 O951 2.479 . S
Tb928 O952 2.471 . S
Eu929 O940 2.418 . S
Eu929 O941 2.384 . S
Eu929 O944 2.479 . S
Eu929 O945 2.471 . S
Eu929 O946 2.347 . S
Eu929 O949 2.366 . S
Eu929 C959 2.825 . S
C930 O946 1.259 . S
C930 O947 1.265 . S
C931 O948 1.255 . S
C931 O949 1.265 . S
C932 C934 1.380 . S
C932 C935 1.374 . S
C932 C938 1.507 . S
C933 C934 1.384 . S
C933 C937 1.387 . S
C933 H960 0.930 . S
C934 C932 1.380 . S
C934 C933 1.384 . S
C934 H961 0.931 . S
C935 C932 1.374 . S
C935 C936 1.390 . S
C935 H962 0.930 . S
C936 C935 1.390 . S
C936 C937 1.391 . S
C936 H963 0.930 . S
C937 C933 1.387 . S
C937 C936 1.391 . S
C938 Tb928 2.825 . S
C938 C932 1.507 . S
C938 O951 1.238 . S
C938 O952 1.247 . S
O939 Tb928 2.347 . S
O939 C943 1.259 . S
O940 Eu929 2.418 . S
O940 C943 1.265 . S
O941 Eu929 2.384 . S
O941 C950 1.255 . S
O942 Tb928 2.366 . S
O942 C950 1.265 . S
C943 O939 1.259 . S
C943 O940 1.265 . S
O944 Eu929 2.479 . S
O944 C959 1.238 . S
O945 Eu929 2.471 . S
O945 C959 1.247 . S
O946 Eu929 2.347 . S
O946 C930 1.259 . S
O947 Tb928 2.418 . S
O947 C930 1.265 . S
O948 Tb928 2.384 . S
O948 C931 1.255 . S
O949 Eu929 2.366 . S
O949 C931 1.265 . S
C950 O941 1.255 . S
C950 O942 1.265 . S
O951 Tb928 2.479 . S
O951 C938 1.238 . S
O952 Tb928 2.471 . S
O952 C938 1.247 . S
C953 C956 1.380 . S
C953 C957 1.374 . S
C953 C959 1.507 . S
C954 C955 1.387 . S
C954 C958 1.391 . S
C955 C954 1.387 . S
C955 C956 1.384 . S
C955 H964 0.930 . S
C956 C953 1.380 . S
C956 C955 1.384 . S
C956 H965 0.931 . S
C957 C953 1.374 . S
C957 C958 1.390 . S
C957 H966 0.930 . S
C958 C954 1.391 . S
C958 C957 1.390 . S
C958 H967 0.930 . S
C959 Eu929 2.825 . S
C959 O944 1.238 . S
C959 O945 1.247 . S
C959 C953 1.507 . S
H960 C933 0.930 . S
H961 C934 0.931 . S
H962 C935 0.930 . S
H963 C936 0.930 . S
H964 C955 0.930 . S
H965 C956 0.931 . S
H966 C957 0.930 . S
H967 C958 0.930 . S
Tb968 C978 2.825 . S
Tb968 O979 2.347 . S
Tb968 O982 2.366 . S
Tb968 O987 2.418 . S
Tb968 O988 2.384 . S
Tb968 O991 2.479 . S
Tb968 O992 2.471 . S
Eu969 O980 2.418 . S
Eu969 O981 2.384 . S
Eu969 O984 2.479 . S
Eu969 O985 2.471 . S
Eu969 O986 2.347 . S
Eu969 O989 2.366 . S
Eu969 C999 2.825 . S
C970 O986 1.259 . S
C970 O987 1.265 . S
C971 O988 1.255 . S
C971 O989 1.265 . S
C972 C974 1.380 . S
C972 C975 1.374 . S
C972 C978 1.507 . S
C973 C974 1.384 . S
C973 C977 1.387 . S
C973 H1000 0.930 . S
C974 C972 1.380 . S
C974 C973 1.384 . S
C974 H1001 0.931 . S
C975 C972 1.374 . S
C975 C976 1.390 . S
C975 H1002 0.930 . S
C976 C975 1.390 . S
C976 C977 1.391 . S
C976 H1003 0.930 . S
C977 C973 1.387 . S
C977 C976 1.391 . S
C978 Tb968 2.825 . S
C978 C972 1.507 . S
C978 O991 1.238 . S
C978 O992 1.247 . S
O979 Tb968 2.347 . S
O979 C983 1.259 . S
O980 Eu969 2.418 . S
O980 C983 1.265 . S
O981 Eu969 2.384 . S
O981 C990 1.255 . S
O982 Tb968 2.366 . S
O982 C990 1.265 . S
C983 O979 1.259 . S
C983 O980 1.265 . S
O984 Eu969 2.479 . S
O984 C999 1.238 . S
O985 Eu969 2.471 . S
O985 C999 1.247 . S
O986 Eu969 2.347 . S
O986 C970 1.259 . S
O987 Tb968 2.418 . S
O987 C970 1.265 . S
O988 Tb968 2.384 . S
O988 C971 1.255 . S
O989 Eu969 2.366 . S
O989 C971 1.265 . S
C990 O981 1.255 . S
C990 O982 1.265 . S
O991 Tb968 2.479 . S
O991 C978 1.238 . S
O992 Tb968 2.471 . S
O992 C978 1.247 . S
C993 C996 1.380 . S
C993 C997 1.374 . S
C993 C999 1.507 . S
C994 C995 1.387 . S
C994 C998 1.391 . S
C995 C994 1.387 . S
C995 C996 1.384 . S
C995 H1004 0.930 . S
C996 C993 1.380 . S
C996 C995 1.384 . S
C996 H1005 0.931 . S
C997 C993 1.374 . S
C997 C998 1.390 . S
C997 H1006 0.930 . S
C998 C994 1.391 . S
C998 C997 1.390 . S
C998 H1007 0.930 . S
C999 Eu969 2.825 . S
C999 O984 1.238 . S
C999 O985 1.247 . S
C999 C993 1.507 . S
H1000 C973 0.930 . S
H1001 C974 0.931 . S
H1002 C975 0.930 . S
H1003 C976 0.930 . S
H1004 C995 0.930 . S
H1005 C996 0.931 . S
H1006 C997 0.930 . S
H1007 C998 0.930 . S
C469 C651 2.447 . S
C505 C691 2.214 . S
C433 C743 2.611 . S
C397 C703 2.214 . S
C731 C325 1.907 . S
C361 C663 2.348 . S
C670 C421 2.485 . S
C710 C349 2.214 . S
C385 C730 2.613 . S
C493 C690 2.226 . S
C529 C750 1.960 . S
C650 C457 2.390 . S
C771 C37 2.448 . S
C73 C811 2.214 . S
C1 C863 2.612 1_545 S
C613 C823 2.214 . S
C541 C851 1.906 . S
C577 C783 2.350 . S
C637 C790 2.485 . S
C565 C830 2.212 . S
C850 C601 2.614 . S
C61 C810 2.226 . S
C870 C97 1.959 . S
C25 C770 2.391 . S
C891 C253 2.447 . S
C289 C931 2.214 . S
C983 C217 2.612 . S
C943 C181 2.215 . S
C971 C109 1.906 . S
C145 C903 2.349 . S
C205 C910 2.486 . S
C133 C950 2.212 . S
C970 C169 2.624 . S
C277 C930 2.225 . S
C313 C990 1.959 . S
C241 C890 2.391 . S
C571 C674 1.521 . S
C714 C607 2.218 1_455 S
C643 C737 1.657 . S
C247 C697 2.228 1_455 S
C283 C754 1.665 . S
C657 C319 1.546 . S
C139 C794 1.514 . S
C175 C834 2.217 . S
C211 C857 1.657 . S
C463 C817 2.229 . S
C874 C499 1.665 . S
C535 C777 1.533 . S
C355 C914 1.514 . S
C391 C954 2.217 . S
C977 C427 1.657 . S
C31 C937 2.228 . S
C67 C994 1.665 . S
C103 C897 1.533 . S
