# Generated by pormake.
# Topology zzz, (3,6)-cn, num edge types: 1
# Building blocks:
#     Node 0, Type 0, BuildingBlock: BETDIP_clean_linker_0, # of connection points: 3
#     Node 1, Type 0, BuildingBlock: BETDIP_clean_linker_0, # of connection points: 3
#     Node 2, Type 0, BuildingBlock: BETDIP_clean_linker_0, # of connection points: 3
#     Node 3, Type 0, BuildingBlock: BETDIP_clean_linker_0, # of connection points: 3
#     Node 4, Type 0, BuildingBlock: BETDIP_clean_linker_0, # of connection points: 3
#     Node 5, Type 0, BuildingBlock: BETDIP_clean_linker_0, # of connection points: 3
#     Node 6, Type 0, BuildingBlock: BETDIP_clean_linker_0, # of connection points: 3
#     Node 7, Type 0, BuildingBlock: BETDIP_clean_linker_0, # of connection points: 3
#     Node 8, Type 1, BuildingBlock: BETFEN_clean_sbu_0, # of connection points: 6
#     Node 9, Type 1, BuildingBlock: BETFEN_clean_sbu_0, # of connection points: 6
#     Node 10, Type 1, BuildingBlock: BETFEN_clean_sbu_0, # of connection points: 6
#     Node 11, Type 1, BuildingBlock: BETFEN_clean_sbu_0, # of connection points: 6
#     Edge 12, Type (0, 1), BuildingBlock: UVAHIK_clean_linker_0, # of connection points: 2
#     Edge 13, Type (0, 1), BuildingBlock: UVAHIK_clean_linker_0, # of connection points: 2
#     Edge 14, Type (0, 1), BuildingBlock: UVAHIK_clean_linker_0, # of connection points: 2
#     Edge 15, Type (0, 1), BuildingBlock: UVAHIK_clean_linker_0, # of connection points: 2
#     Edge 16, Type (0, 1), BuildingBlock: UVAHIK_clean_linker_0, # of connection points: 2
#     Edge 17, Type (0, 1), BuildingBlock: UVAHIK_clean_linker_0, # of connection points: 2
#     Edge 18, Type (0, 1), BuildingBlock: UVAHIK_clean_linker_0, # of connection points: 2
#     Edge 19, Type (0, 1), BuildingBlock: UVAHIK_clean_linker_0, # of connection points: 2
#     Edge 20, Type (0, 1), BuildingBlock: UVAHIK_clean_linker_0, # of connection points: 2
#     Edge 21, Type (0, 1), BuildingBlock: UVAHIK_clean_linker_0, # of connection points: 2
#     Edge 22, Type (0, 1), BuildingBlock: UVAHIK_clean_linker_0, # of connection points: 2
#     Edge 23, Type (0, 1), BuildingBlock: UVAHIK_clean_linker_0, # of connection points: 2
#     Edge 24, Type (0, 1), BuildingBlock: UVAHIK_clean_linker_0, # of connection points: 2
#     Edge 25, Type (0, 1), BuildingBlock: UVAHIK_clean_linker_0, # of connection points: 2
#     Edge 26, Type (0, 1), BuildingBlock: UVAHIK_clean_linker_0, # of connection points: 2
#     Edge 27, Type (0, 1), BuildingBlock: UVAHIK_clean_linker_0, # of connection points: 2
#     Edge 28, Type (0, 1), BuildingBlock: UVAHIK_clean_linker_0, # of connection points: 2
#     Edge 29, Type (0, 1), BuildingBlock: UVAHIK_clean_linker_0, # of connection points: 2
#     Edge 30, Type (0, 1), BuildingBlock: UVAHIK_clean_linker_0, # of connection points: 2
#     Edge 31, Type (0, 1), BuildingBlock: UVAHIK_clean_linker_0, # of connection points: 2
#     Edge 32, Type (0, 1), BuildingBlock: UVAHIK_clean_linker_0, # of connection points: 2
#     Edge 33, Type (0, 1), BuildingBlock: UVAHIK_clean_linker_0, # of connection points: 2
#     Edge 34, Type (0, 1), BuildingBlock: UVAHIK_clean_linker_0, # of connection points: 2
#     Edge 35, Type (0, 1), BuildingBlock: UVAHIK_clean_linker_0, # of connection points: 2
# Relax obj value: 0.231
# Max RMSD: 0.175
# Mean RMSD: 0.158
data_MOF--net-zzz--node1-BETFEN_clean_sbu_0--node2-BETDIP_clean_linker_0--edge1-UVAHIK_clean_linker_0
_symmetry_space_group_name_H-M    P1
_symmetry_Int_Tables_number       1
_symmetry_cell_setting            triclinic
loop_
_symmetry_equiv_pos_as_xyz
'x, y, z'
_cell_length_a     68.290739
_cell_length_b     68.361611
_cell_length_c     17.050236
_cell_angle_alpha  89.904283
_cell_angle_beta   90.009993
_cell_angle_gamma 89.993992
loop_
_atom_site_label
_atom_site_type_symbol
_atom_site_fract_x
_atom_site_fract_y
_atom_site_fract_z
_atom_type_partial_charge
H0 H 0.75719 0.53195 0.40388 0.0
H1 H 0.73708 0.50816 0.18448 0.0
H2 H 0.79713 0.50081 0.25399 0.0
H3 H 0.72817 0.55506 0.2371 0.0
C4 C 0.7186 0.54305 0.25387 0.0
C5 C 0.76004 0.52358 0.35119 0.0
C6 C 0.7791 0.51659 0.33559 0.0
C7 C 0.74496 0.52076 0.29561 0.0
C8 C 0.74877 0.51034 0.22661 0.0
C9 C 0.76739 0.50266 0.21205 0.0
C10 C 0.78245 0.50599 0.26651 0.0
N11 N 0.726 0.52876 0.30691 0.0
H12 H 1.00276 0.75233 0.43774 0.0
H13 H 1.00755 0.73428 0.19639 0.0
H14 H 1.0044 0.7954 0.25356 0.0
H15 H 0.97495 0.71251 0.31761 0.0
C16 C 0.99016 0.70789 0.31468 0.0
C17 C 1.00352 0.75601 0.37599 0.0
C18 C 1.00293 0.77576 0.35193 0.0
C19 C 1.00454 0.74099 0.31931 0.0
C20 C 1.00601 0.74581 0.23956 0.0
C21 C 1.00607 0.76538 0.21563 0.0
C22 C 1.00412 0.78019 0.27187 0.0
N23 N 1.00488 0.72098 0.34158 0.0
H24 H 0.77168 1.00744 0.39762 0.0
H25 H 0.78425 0.9699 0.20044 0.0
H26 H 0.72814 0.96722 0.31194 0.0
H27 H 0.81428 0.9679 0.29864 0.0
C28 C 0.81617 0.98322 0.283 0.0
C29 C 0.76727 0.99601 0.35741 0.0
C30 C 0.74833 0.98777 0.36289 0.0
C31 C 0.78069 0.98889 0.30102 0.0
C32 C 0.77453 0.97458 0.24704 0.0
C33 C 0.75569 0.96674 0.25147 0.0
C34 C 0.74293 0.97303 0.31025 0.0
N35 N 0.80021 0.99621 0.29697 0.0
H36 H 0.51513 0.77262 0.40632 0.0
H37 H 0.54746 0.7916 0.20331 0.0
H38 H 0.55447 0.73299 0.29099 0.0
H39 H 0.54585 0.82177 0.33429 0.0
C40 C 0.53207 0.82066 0.30268 0.0
C41 C 0.52587 0.76968 0.36111 0.0
C42 C 0.53521 0.75128 0.3578 0.0
C43 C 0.53083 0.78446 0.30673 0.0
C44 C 0.54435 0.78046 0.24687 0.0
C45 C 0.55277 0.76185 0.23976 0.0
C46 C 0.5485 0.74762 0.29683 0.0
N47 N 0.52125 0.80292 0.30795 0.0
H48 H 0.26755 0.50366 0.07602 0.0
H49 H 0.28247 0.54621 0.25315 0.0
H50 H 0.22716 0.54972 0.13559 0.0
H51 H 0.31271 0.54213 0.15085 0.0
C52 C 0.3134 0.52764 0.17725 0.0
C53 C 0.26386 0.51653 0.10991 0.0
C54 C 0.24575 0.52607 0.09779 0.0
C55 C 0.27754 0.52426 0.16386 0.0
C56 C 0.27246 0.54073 0.20901 0.0
C57 C 0.25437 0.54988 0.19836 0.0
C58 C 0.24133 0.54272 0.14222 0.0
N59 N 0.29638 0.51562 0.17328 0.0
H60 H 0.02593 0.26814 0.05496 0.0
H61 H 0.97417 0.28202 0.18895 0.0
H62 H 0.98065 0.22527 0.08393 0.0
H63 H 0.98194 0.31304 0.11193 0.0
C64 C 0.99607 0.31341 0.1413 0.0
C65 C 0.01165 0.26407 0.0774 0.0
C66 C 1.00404 0.24533 0.06206 0.0
C67 C 1.0006 0.27764 0.12123 0.0
C68 C 0.98232 0.27197 0.15234 0.0
C69 C 0.97494 0.25309 0.13917 0.0
C70 C 0.98582 0.24011 0.09283 0.0
N71 N 1.00832 0.29657 0.13742 0.0
H72 H 0.25577 0.0234 0.04551 0.0
H73 H 0.24411 0.97216 0.18661 0.0
H74 H 0.29913 0.97809 0.0681 0.0
H75 H 0.21295 0.97784 0.11001 0.0
C76 C 0.21167 0.99224 0.13665 0.0
C77 C 0.2602 1.00924 0.06796 0.0
C78 C 0.27891 1.00174 0.04983 0.0
C79 C 0.24711 0.99814 0.1144 0.0
C80 C 0.25345 0.9802 0.14657 0.0
C81 C 0.2721 0.97292 0.12931 0.0
C82 C 0.28446 0.98351 0.07961 0.0
N83 N 0.22792 1.00525 0.13108 0.0
H84 H 0.51319 0.25863 0.03185 0.0
H85 H 0.47947 0.24659 0.23986 0.0
H86 H 0.47277 0.30146 0.11964 0.0
H87 H 0.51916 0.23973 0.26077 0.0
C88 C 0.51517 0.22764 0.2225 0.0
C89 C 0.50198 0.26289 0.07338 0.0
C90 C 0.49278 0.2813 0.06646 0.0
C91 C 0.49716 0.25035 0.13634 0.0
C92 C 0.48304 0.25624 0.19146 0.0
C93 C 0.47398 0.27458 0.18579 0.0
C94 C 0.47883 0.28682 0.12255 0.0
N95 N 0.50717 0.23229 0.14759 0.0
Pr96 Pr 0.02157 1.0043 0.79652 0.0
Pr97 Pr 1.00382 0.02027 0.62322 0.0
C98 C 0.02413 0.98486 0.93165 0.0
C99 C 0.0287 0.96382 0.94081 0.0
C100 C 0.04758 0.95777 0.96325 0.0
C101 C 0.05323 0.93819 0.95501 0.0
C102 C 0.04012 0.92445 0.92356 0.0
C103 C 0.02095 0.93026 0.90569 0.0
C104 C 0.01525 0.94967 0.91459 0.0
C105 C 0.05084 1.00626 0.68002 0.0
C106 C 1.00952 0.97238 0.65277 0.0
C107 C 0.99826 0.03775 0.48468 0.0
C108 C 0.98699 0.05548 0.46443 0.0
C109 C 0.97216 0.05471 0.40748 0.0
C110 C 0.96012 0.07096 0.39398 0.0
C111 C 0.9627 0.08826 0.43746 0.0
C112 C 0.9778 0.08904 0.49342 0.0
C113 C 0.98973 0.07285 0.50696 0.0
C114 C 0.9746 0.01687 0.73973 0.0
C115 C 0.01755 0.05221 0.76672 0.0
O116 O 1.00726 0.98893 0.89855 0.0
O117 O 0.0385 0.99589 0.90582 0.0
O118 O 0.03294 0.01034 0.67332 0.0
O119 O 0.05428 1.001 0.75205 0.0
O120 O 1.00806 0.98659 0.5998 0.0
O121 O 0.0123 0.97579 0.72858 0.0
O122 O 0.01415 0.04041 0.52685 0.0
O123 O 0.98782 0.02264 0.5073 0.0
O124 O 0.99271 0.01411 0.74524 0.0
O125 O 0.97071 0.02167 0.66766 0.0
O126 O 0.02038 0.03802 0.81884 0.0
O127 O 0.01271 0.04896 0.6922 0.0
H128 H 0.05825 0.96833 0.98364 0.0
H129 H 0.06804 0.93394 0.97026 0.0
H130 H 0.0104 0.9198 0.88347 0.0
H131 H 1.00053 0.95368 0.89716 0.0
H132 H 0.96964 0.04139 0.37459 0.0
H133 H 0.9486 0.06987 0.35058 0.0
H134 H 0.98054 0.10226 0.52662 0.0
H135 H 1.00094 0.07391 0.55166 0.0
Pr136 Pr 0.52105 0.02199 0.79685 0.0
Pr137 Pr 0.50577 1.00605 0.62071 0.0
C138 C 0.53833 0.02038 0.93729 0.0
C139 C 0.5527 1.0057 0.96245 0.0
C140 C 0.56527 1.00919 0.02564 0.0
C141 C 0.58075 0.99631 0.041 0.0
C142 C 0.58375 0.97964 0.99366 0.0
C143 C 0.57051 0.9759 0.93241 0.0
C144 C 0.55545 0.989 0.91607 0.0
C145 C 0.51637 0.05292 0.6892 0.0
C146 C 0.55321 0.01036 0.65569 0.0
C147 C 0.49087 1.00195 0.47646 0.0
C148 C 0.47513 0.98943 0.44643 0.0
C149 C 0.47378 0.98525 0.36628 0.0
C150 C 0.45865 0.97336 0.33827 0.0
C151 C 0.44463 0.9655 0.39015 0.0
C152 C 0.44638 0.96944 0.47078 0.0
C153 C 0.46153 0.98122 0.49864 0.0
C154 C 0.50904 0.97537 0.73149 0.0
C155 C 0.47301 0.01889 0.76217 0.0
O156 O 0.52048 0.01389 0.92563 0.0
O157 O 0.54457 0.03186 0.88103 0.0
O158 O 0.51396 0.0349 0.6777 0.0
O159 O 0.52099 0.05565 0.76255 0.0
O160 O 0.5394 0.01145 0.60116 0.0
O161 O 0.54907 0.01033 0.73161 0.0
O162 O 0.4853 0.01585 0.5246 0.0
O163 O 0.5067 0.99272 0.49953 0.0
O164 O 0.51278 0.99324 0.73978 0.0
O165 O 0.50346 0.97253 0.65957 0.0
O166 O 0.48702 0.02188 0.81502 0.0
O167 O 0.47657 0.01399 0.68796 0.0
H168 H 0.56363 0.02226 0.06091 0.0
H169 H 0.59084 0.99992 0.08777 0.0
H170 H 0.57207 0.96314 0.89541 0.0
H171 H 0.54641 0.98647 0.86502 0.0
H172 H 0.48433 0.99127 0.32539 0.0
H173 H 0.45787 0.9704 0.27597 0.0
H174 H 0.43572 0.96392 0.51227 0.0
H175 H 0.46249 0.98415 0.56098 0.0
Pr176 Pr 0.50733 0.52303 0.81287 0.0
Pr177 Pr 0.52155 0.50987 0.63013 0.0
C178 C 0.50768 0.5404 0.95288 0.0
C179 C 0.51667 0.55936 0.9732 0.0
C180 C 0.50448 0.57526 0.99096 0.0
C181 C 0.51184 0.59429 0.98967 0.0
C182 C 0.53164 0.59782 0.97165 0.0
C183 C 0.54413 0.58178 0.95932 0.0
C184 C 0.53671 0.56275 0.95988 0.0
C185 C 0.47543 0.51434 0.71421 0.0
C186 C 0.51632 0.55699 0.66977 0.0
C187 C 0.51919 0.49304 0.48954 0.0
C188 C 0.50916 0.47441 0.47079 0.0
C189 C 0.51738 0.45655 0.49521 0.0
C190 C 0.50619 0.43953 0.49586 0.0
C191 C 0.48653 0.43988 0.47188 0.0
C192 C 0.4787 0.45736 0.44164 0.0
C193 C 0.48997 0.47446 0.44075 0.0
C194 C 0.55344 0.51819 0.72959 0.0
C195 C 0.51304 0.47589 0.7734 0.0
O196 O 0.51954 0.5259 0.93596 0.0
O197 O 0.4928 0.54175 0.90463 0.0
O198 O 0.49343 0.51355 0.69897 0.0
O199 O 0.47329 0.51951 0.7871 0.0
O200 O 0.5174 0.54357 0.61375 0.0
O201 O 0.51467 0.55254 0.74552 0.0
O202 O 0.5078 0.50771 0.50947 0.0
O203 O 0.53481 0.49156 0.53397 0.0
O204 O 0.53542 0.51876 0.74456 0.0
O205 O 0.55572 0.51372 0.65585 0.0
O206 O 0.51157 0.48925 0.82967 0.0
O207 O 0.51491 0.48039 0.69781 0.0
H208 H 0.48895 0.57308 1.00071 0.0
H209 H 0.50173 0.60627 0.99886 0.0
H210 H 0.55954 0.58393 0.9472 0.0
H211 H 0.54652 0.55084 0.94605 0.0
H212 H 0.5322 0.45581 0.51774 0.0
H213 H 0.51285 0.42613 0.51696 0.0
H214 H 0.46364 0.45802 0.42195 0.0
H215 H 0.48329 0.48796 0.42087 0.0
Pr216 Pr 1.00726 0.49973 0.79011 0.0
Pr217 Pr 0.02031 0.52384 0.64386 0.0
C218 C 0.98748 0.48512 0.91219 0.0
C219 C 0.96608 0.48491 0.92278 0.0
C220 C 0.95617 0.46698 0.92855 0.0
C221 C 0.93583 0.46621 0.91961 0.0
C222 C 0.92508 0.48337 0.90488 0.0
C223 C 0.93494 0.50141 0.90354 0.0
C224 C 0.9552 0.50217 0.91218 0.0
C225 C 0.01865 0.47746 0.661 0.0
C226 C 0.97283 0.51669 0.66561 0.0
C227 C 0.03569 0.53519 0.5066 0.0
C228 C 0.05201 0.54832 0.48787 0.0
C229 C 0.05365 0.55671 0.41323 0.0
C230 C 0.06958 0.56877 0.39534 0.0
C231 C 0.08415 0.57254 0.45187 0.0
C232 C 0.08203 0.56454 0.52745 0.0
C233 C 0.06606 0.55262 0.54533 0.0
C234 C 0.01722 0.54992 0.77088 0.0
C235 C 0.05386 0.50852 0.77444 0.0
O236 O 0.99607 0.50225 0.91465 0.0
O237 O 0.9938 0.47416 0.85475 0.0
O238 O 1.00804 0.49264 0.65786 0.0
O239 O 0.02397 0.47357 0.73262 0.0
O240 O 0.98675 0.52208 0.61629 0.0
O241 O 0.977 0.50943 0.73559 0.0
O242 O 0.04056 0.51877 0.5415 0.0
O243 O 0.02026 0.5436 0.53733 0.0
O244 O 0.01394 0.53182 0.77228 0.0
O245 O 0.02258 0.5552 0.70118 0.0
O246 O 0.03973 0.50534 0.82583 0.0
O247 O 0.04999 0.51281 0.7002 0.0
H248 H 0.96426 0.45347 0.93603 0.0
H249 H 0.92859 0.45214 0.92278 0.0
H250 H 0.92716 0.51489 0.89157 0.0
H251 H 0.9624 0.51621 0.90606 0.0
H252 H 0.04275 0.55374 0.36861 0.0
H253 H 0.07063 0.57493 0.33692 0.0
H254 H 0.09306 0.56685 0.57208 0.0
H255 H 0.0649 0.54641 0.60369 0.0
C256 C 0.17922 0.98199 0.18793 0.0
C257 C 0.19373 0.99648 0.18298 0.0
C258 C 0.16279 0.98454 0.2356 0.0
C259 C 0.13232 0.02052 0.34134 0.0
H260 H 0.12019 0.97603 0.47418 0.0
C261 C 0.06234 0.01374 0.54182 0.0
C262 C 0.06614 1.00702 0.6183 0.0
C263 C 0.0773 0.01382 0.48498 0.0
C264 C 0.12335 0.9886 0.43751 0.0
H265 H 0.20206 0.02544 0.22225 0.0
H266 H 0.1731 0.03 0.30608 0.0
H267 H 0.14736 0.97405 0.3822 0.0
H268 H 0.08859 0.99535 0.69526 0.0
H269 H 0.11431 0.99527 0.59688 0.0
H270 H 0.10817 0.03504 0.39784 0.0
C271 C 0.17451 0.01662 0.27261 0.0
C272 C 0.13886 0.98742 0.38434 0.0
C273 C 0.19112 0.01399 0.22491 0.0
C274 C 0.08512 1.00056 0.63684 0.0
C275 C 0.0999 1.00045 0.58032 0.0
C276 C 0.11655 0.02162 0.39423 0.0
C277 C 0.16035 1.00172 0.27966 0.0
C278 C 0.14363 1.00336 0.33573 0.0
C279 C 0.09619 1.00692 0.50353 0.0
C280 C 0.11203 1.00571 0.44348 0.0
H281 H 0.18077 0.96838 0.15599 0.0
H282 H 0.15205 0.9729 0.23863 0.0
H283 H 0.13555 0.03301 0.30439 0.0
H284 H 0.04785 0.01876 0.52585 0.0
H285 H 0.07399 0.01882 0.42614 0.0
C286 C 0.51966 0.20565 0.33681 0.0
C287 C 0.51472 0.20771 0.25734 0.0
C288 C 0.51813 0.18757 0.37438 0.0
C289 C 0.51751 0.13456 0.34864 0.0
H290 H 0.49193 0.13562 0.55164 0.0
C291 C 0.5099 0.06548 0.55183 0.0
C292 C 0.51378 0.06899 0.63158 0.0
C293 C 0.50815 0.0812 0.49879 0.0
C294 C 0.49923 0.13502 0.49531 0.0
H295 H 0.50484 0.19221 0.15385 0.0
H296 H 0.50246 0.16018 0.21985 0.0
H297 H 0.49289 0.16511 0.47178 0.0
H298 H 0.51902 0.0916 0.718 0.0
H299 H 0.51618 0.11866 0.62673 0.0
H300 H 0.52444 0.10452 0.37384 0.0
C301 C 0.5074 0.17276 0.25293 0.0
C302 C 0.49972 0.15195 0.4494 0.0
C303 C 0.50873 0.19106 0.21525 0.0
C304 C 0.51586 0.08839 0.6571 0.0
C305 C 0.51409 0.10396 0.60463 0.0
C306 C 0.51714 0.11754 0.39512 0.0
C307 C 0.51174 0.17094 0.33339 0.0
C308 C 0.50929 0.1521 0.37647 0.0
C309 C 0.51014 0.10068 0.52477 0.0
C310 C 0.50846 0.11773 0.47009 0.0
H311 H 0.52439 0.21819 0.37069 0.0
H312 H 0.52189 0.18661 0.43601 0.0
H313 H 0.525 0.13424 0.29267 0.0
H314 H 0.50837 0.05066 0.53044 0.0
H315 H 0.50507 0.07812 0.43775 0.0
C316 C 0.33246 0.50543 0.26927 0.0
C317 C 0.33096 0.52273 0.22486 0.0
C318 C 0.34867 0.50235 0.31876 0.0
C319 C 0.38509 0.53069 0.4296 0.0
H320 H 0.41387 0.48205 0.45051 0.0
C321 C 0.44049 0.51968 0.67835 0.0
C322 C 0.45896 0.51216 0.65825 0.0
C323 C 0.42497 0.5191 0.62504 0.0
C324 C 0.406 0.49574 0.44503 0.0
H325 H 0.34547 0.5499 0.19517 0.0
H326 H 0.37351 0.54458 0.28081 0.0
H327 H 0.38671 0.4844 0.35619 0.0
H328 H 0.47522 0.49684 0.56904 0.0
H329 H 0.44801 0.49592 0.47425 0.0
H330 H 0.40417 0.54214 0.51765 0.0
C331 C 0.3622 0.53348 0.2784 0.0
C332 C 0.39036 0.49703 0.39157 0.0
C333 C 0.34618 0.53649 0.229 0.0
C334 C 0.46132 0.50321 0.58481 0.0
C335 C 0.44567 0.50248 0.53124 0.0
C336 C 0.40048 0.52935 0.48327 0.0
C337 C 0.36351 0.51657 0.3251 0.0
C338 C 0.37981 0.5146 0.38292 0.0
C339 C 0.42742 0.51083 0.55024 0.0
C340 C 0.41115 0.51189 0.49185 0.0
H341 H 0.32094 0.49456 0.26729 0.0
H342 H 0.34922 0.48919 0.35417 0.0
H343 H 0.37717 0.54438 0.42511 0.0
H344 H 0.43813 0.5265 0.73486 0.0
H345 H 0.41103 0.52531 0.64225 0.0
C346 C 0.01685 0.33146 0.24039 0.0
C347 C 1.00146 0.33128 0.18568 0.0
C348 C 0.02033 0.34812 0.28648 0.0
C349 C 0.99505 0.39335 0.35587 0.0
H350 H 0.04702 0.40851 0.42393 0.0
C351 C 1.00818 0.4646 0.52961 0.0
C352 C 0.0197 0.4627 0.59748 0.0
C353 C 1.00739 0.44945 0.47439 0.0
C354 C 0.0324 0.40441 0.40559 0.0
H355 H 0.97819 0.3485 0.13413 0.0
H356 H 0.98463 0.37765 0.21163 0.0
H357 H 0.04302 0.3804 0.33698 0.0
H358 H 0.04016 0.44387 0.65878 0.0
H359 H 0.03895 0.41755 0.56211 0.0
H360 H 0.98446 0.4174 0.42404 0.0
C361 C 0.99369 0.36487 0.22132 0.0
C362 C 0.03008 0.38822 0.35594 0.0
C363 C 0.99009 0.34821 0.17619 0.0
C364 C 0.03111 0.44575 0.60712 0.0
C365 C 0.03048 0.43069 0.55156 0.0
C366 C 0.99739 0.40959 0.40474 0.0
C367 C 1.0086 0.36499 0.27834 0.0
C368 C 0.01134 0.38242 0.33045 0.0
C369 C 0.01828 0.43216 0.48536 0.0
C370 C 0.01607 0.41532 0.43047 0.0
H371 H 0.02578 0.31856 0.24941 0.0
H372 H 0.03182 0.34751 0.33015 0.0
H373 H 0.98033 0.38914 0.3394 0.0
H374 H 0.99925 0.4775 0.52043 0.0
H375 H 0.99805 0.45116 0.42351 0.0
C376 C 0.84682 0.97359 0.21489 0.0
C377 C 0.83377 0.98854 0.23625 0.0
C378 C 0.86279 0.97745 0.16613 0.0
C379 C 0.89592 0.01543 0.09119 0.0
H380 H 0.90195 0.98005 0.91513 0.0
C381 C 0.96413 0.01406 0.88141 0.0
C382 C 0.95955 0.01367 0.80106 0.0
C383 C 0.94932 0.0117 0.93797 0.0
C384 C 0.90049 0.99007 0.96397 0.0
H385 H 0.82763 0.01952 0.22527 0.0
H386 H 0.85596 0.0264 0.14024 0.0
H387 H 0.87512 0.97522 0.00755 0.0
H388 H 0.93596 0.01065 0.71697 0.0
H389 H 0.91036 1.00611 0.81493 0.0
H390 H 0.92149 0.03019 0.04717 0.0
C391 C 0.85366 0.01162 0.16134 0.0
C392 C 0.88517 0.98724 0.01717 0.0
C393 C 0.83742 1.00769 0.20974 0.0
C394 C 0.93997 0.01089 0.77844 0.0
C395 C 0.9253 1.00824 0.83458 0.0
C396 C 0.9115 0.01809 0.03837 0.0
C397 C 0.86631 0.99643 0.13786 0.0
C398 C 0.88263 0.99989 0.08133 0.0
C399 C 0.92974 1.00862 0.91502 0.0
C400 C 0.91387 1.00549 0.97383 0.0
H401 H 0.84442 0.95871 0.23461 0.0
H402 H 0.87237 0.96547 0.15003 0.0
H403 H 0.89441 0.02535 0.14028 0.0
H404 H 0.97904 0.01655 0.90044 0.0
H405 H 0.95319 0.01204 0.99956 0.0
C406 C 0.51513 0.83381 0.18212 0.0
C407 C 0.52634 0.83699 0.24994 0.0
C408 C 0.51204 0.84903 0.12807 0.0
C409 C 0.53195 0.89863 0.07348 0.0
H410 H 0.48641 0.90002 0.93789 0.0
C411 C 0.51219 0.96459 0.87228 0.0
C412 C 0.50984 0.95991 0.79276 0.0
C413 C 0.51356 0.94983 0.92921 0.0
C414 C 0.49922 0.89977 0.97537 0.0
H415 H 0.54239 0.85862 0.3162 0.0
H416 H 0.53598 0.8854 0.22572 0.0
H417 H 0.4893 0.87434 0.03689 0.0
H418 H 0.50581 0.93601 0.71097 0.0
H419 H 0.50741 0.91022 0.81076 0.0
H420 H 0.54139 0.92456 0.01322 0.0
C421 C 0.53025 0.87109 0.21141 0.0
C422 C 0.50099 0.88495 0.03196 0.0
C423 C 0.53373 0.85578 0.26418 0.0
C424 C 0.50789 0.94012 0.77174 0.0
C425 C 0.50875 0.92535 0.8288 0.0
C426 C 0.52993 0.91367 0.01817 0.0
C427 C 0.51976 0.86791 0.14133 0.0
C428 C 0.51747 0.88404 0.08182 0.0
C429 C 0.51187 0.93004 0.90803 0.0
C430 C 0.51363 0.91433 0.96818 0.0
H431 H 0.5095 0.81937 0.16903 0.0
H432 H 0.50414 0.84572 0.0747 0.0
H433 H 0.54514 0.89834 0.10861 0.0
H434 H 0.51286 0.97965 0.89057 0.0
H435 H 0.51568 0.9539 0.99001 0.0
C436 C 0.6926 0.5563 0.16628 0.0
C437 C 0.69994 0.54054 0.21017 0.0
C438 C 0.67608 0.55405 0.11859 0.0
C439 C 0.6341 0.52052 0.07418 0.0
H440 H 0.63361 0.54963 0.87893 0.0
C441 C 0.56653 0.52011 0.86712 0.0
C442 C 0.56971 0.52125 0.78604 0.0
C443 C 0.58201 0.52259 0.92023 0.0
C444 C 0.63352 0.54117 0.93267 0.0
H445 H 0.6956 0.50999 0.2391 0.0
H446 H 0.66705 0.50579 0.15416 0.0
H447 H 0.66105 0.55308 0.96796 0.0
H448 H 0.59187 0.52502 0.69652 0.0
H449 H 0.61901 0.52872 0.78823 0.0
H450 H 0.60694 0.50794 0.03693 0.0
C451 C 0.67374 0.52012 0.15784 0.0
C452 C 0.6492 0.54343 0.98478 0.0
C453 C 0.69017 0.52248 0.20655 0.0
C454 C 0.58887 0.5244 0.75886 0.0
C455 C 0.60443 0.52667 0.81172 0.0
C456 C 0.61847 0.51811 0.02159 0.0
C457 C 0.66659 0.53582 0.11221 0.0
C458 C 0.64974 0.53322 0.05661 0.0
C459 C 0.60125 0.5259 0.8934 0.0
C460 C 0.61791 0.52843 0.94997 0.0
H461 H 0.69981 0.57041 0.16814 0.0
H462 H 0.67084 0.56666 0.08635 0.0
H463 H 0.63378 0.51252 0.12901 0.0
H464 H 0.55214 0.51692 0.88952 0.0
H465 H 0.57881 0.52202 0.98236 0.0
C466 C 0.98037 0.67476 0.26826 0.0
C467 C 0.99482 0.68925 0.27423 0.0
C468 C 0.98361 0.65785 0.22391 0.0
C469 C 0.02269 0.63006 0.11403 0.0
H470 H 0.97767 0.60783 0.00794 0.0
C471 C 0.02639 0.58115 0.83657 0.0
C472 C 0.01583 0.56351 0.83822 0.0
C473 C 0.02464 0.59472 0.89748 0.0
C474 C 0.99034 0.61373 0.03791 0.0
H475 H 0.0241 0.69746 0.23843 0.0
H476 H 0.02952 0.66854 0.15784 0.0
H477 H 0.97316 0.63509 0.09763 0.0
H478 H 0.99517 0.54618 0.90496 0.0
H479 H 0.99149 0.5704 0.01074 0.0
H480 H 0.03989 0.60928 0.04941 0.0
C481 C 0.01587 0.66968 0.18969 0.0
C482 C 0.9878 0.62937 0.08997 0.0
C483 C 0.01277 0.68639 0.23579 0.0
C484 C 1.00354 0.55962 0.90247 0.0
C485 C 1.00139 0.57348 0.96267 0.0
C486 C 0.02525 0.61471 0.06055 0.0
C487 C 1.00123 0.6552 0.18215 0.0
C488 C 1.00394 0.6379 0.12879 0.0
C489 C 0.01192 0.59118 0.96061 0.0
C490 C 1.00911 0.60644 0.02174 0.0
H491 H 0.96641 0.67659 0.29753 0.0
H492 H 0.97212 0.64696 0.22204 0.0
H493 H 0.0355 0.63576 0.14356 0.0
H494 H 0.03599 0.58452 0.78781 0.0
H495 H 0.03281 0.60828 0.89405 0.0
C496 C 0.94518 0.23182 0.14486 0.0
C497 C 0.95749 0.2455 0.18152 0.0
C498 C 0.93397 0.21893 0.18963 0.0
C499 C 0.94099 0.19676 0.38376 0.0
H500 H 0.90596 0.15837 0.29292 0.0
C501 C 0.94559 0.11161 0.34641 0.0
C502 C 0.95033 0.10581 0.42323 0.0
C503 C 0.93688 0.12979 0.33245 0.0
C504 C 0.91553 0.16908 0.31977 0.0
H505 H 0.96458 0.25909 0.29277 0.0
H506 H 0.94386 0.23763 0.37056 0.0
H507 H 0.90578 0.1919 0.24324 0.0
H508 H 0.94764 0.11362 0.54612 0.0
H509 H 0.93298 0.1456 0.52133 0.0
H510 H 0.95109 0.17385 0.45864 0.0
C511 C 0.94391 0.23585 0.30748 0.0
C512 C 0.91556 0.18828 0.29107 0.0
C513 C 0.95558 0.24843 0.26267 0.0
C514 C 0.94469 0.11789 0.48608 0.0
C515 C 0.93613 0.13612 0.47206 0.0
C516 C 0.94064 0.17775 0.4134 0.0
C517 C 0.93444 0.21979 0.27215 0.0
C518 C 0.92927 0.20203 0.31907 0.0
C519 C 0.93284 0.14255 0.39497 0.0
C520 C 0.92876 0.16345 0.37866 0.0
H521 H 0.94581 0.22969 0.08195 0.0
H522 H 0.92673 0.20709 0.1592 0.0
H523 H 0.9519 0.20662 0.40722 0.0
H524 H 0.94978 0.10272 0.29666 0.0
H525 H 0.93472 0.13445 0.27231 0.0
C526 C 0.28827 0.94035 0.12932 0.0
C527 C 0.28057 0.95614 0.17172 0.0
C528 C 0.30328 0.92897 0.16136 0.0
C529 C 0.33782 0.9268 0.33428 0.0
H530 H 0.37647 0.92938 0.16813 0.0
C531 C 0.41962 0.93855 0.40245 0.0
C532 C 0.42745 0.95445 0.36021 0.0
C533 C 0.402 0.92985 0.37912 0.0
C534 C 0.36588 0.9284 0.21527 0.0
H535 H 0.28051 0.97098 0.28348 0.0
H536 H 0.307 0.95184 0.33858 0.0
H537 H 0.34211 0.92837 0.13493 0.0
H538 H 0.42318 0.97317 0.25879 0.0
H539 H 0.39275 0.95811 0.21821 0.0
H540 H 0.36183 0.92892 0.41446 0.0
C541 C 0.30146 0.94769 0.28149 0.0
C542 C 0.34604 0.9275 0.19632 0.0
C543 C 0.28618 0.95877 0.25 0.0
C544 C 0.41779 0.96078 0.29203 0.0
C545 C 0.40029 0.95207 0.26865 0.0
C546 C 0.35772 0.92794 0.35324 0.0
C547 C 0.31122 0.93367 0.23521 0.0
C548 C 0.33167 0.9279 0.25558 0.0
C549 C 0.39194 0.9368 0.3128 0.0
C550 C 0.37185 0.92994 0.29378 0.0
H551 H 0.28407 0.93808 0.06873 0.0
H552 H 0.30994 0.91781 0.12509 0.0
H553 H 0.32722 0.92655 0.3815 0.0
H554 H 0.42688 0.9331 0.45455 0.0
H555 H 0.39604 0.918 0.41393 0.0
C556 C 0.46743 0.27957 0.3293 0.0
C557 C 0.4618 0.28249 0.25082 0.0
C558 C 0.46033 0.29186 0.38819 0.0
C559 C 0.46387 0.33088 0.46338 0.0
H560 H 0.42201 0.36835 0.4316 0.0
C561 C 0.46225 0.41594 0.41745 0.0
C562 C 0.47445 0.42195 0.47913 0.0
C563 C 0.45325 0.39759 0.41979 0.0
C564 C 0.43365 0.3579 0.44217 0.0
H565 H 0.44149 0.29802 0.17536 0.0
H566 H 0.43038 0.32031 0.27546 0.0
H567 H 0.41799 0.33475 0.38584 0.0
H568 H 0.48504 0.41448 0.59543 0.0
H569 H 0.46962 0.38229 0.59872 0.0
H570 H 0.47979 0.3541 0.51693 0.0
C571 C 0.44012 0.30861 0.293 0.0
C572 C 0.43143 0.33867 0.41561 0.0
C573 C 0.44678 0.29596 0.23472 0.0
C574 C 0.47615 0.40998 0.54599 0.0
C575 C 0.4672 0.39164 0.54826 0.0
C576 C 0.46592 0.34992 0.49103 0.0
C577 C 0.44799 0.3077 0.36927 0.0
C578 C 0.44708 0.32529 0.42094 0.0
C579 C 0.4563 0.38494 0.48383 0.0
C580 C 0.45135 0.36393 0.47637 0.0
H581 H 0.47871 0.2691 0.34451 0.0
H582 H 0.46599 0.29007 0.44707 0.0
H583 H 0.4764 0.32129 0.46875 0.0
H584 H 0.46065 0.42484 0.36525 0.0
H585 H 0.44513 0.39275 0.36882 0.0
C586 C 0.24318 0.58404 0.21974 0.0
C587 C 0.24751 0.56554 0.25072 0.0
C588 C 0.23004 0.59637 0.25846 0.0
C589 C 0.19476 0.59729 0.42913 0.0
H590 H 0.15812 0.61011 0.26321 0.0
C591 C 0.11192 0.59541 0.48479 0.0
C592 C 0.10239 0.58315 0.43055 0.0
C593 C 0.13062 0.60278 0.46886 0.0
C594 C 0.1682 0.60681 0.3105 0.0
H595 H 0.24342 0.54608 0.34929 0.0
H596 H 0.22001 0.56695 0.41544 0.0
H597 H 0.1924 0.60619 0.23233 0.0
H598 H 0.10476 0.56985 0.31549 0.0
H599 H 0.13701 0.58262 0.28775 0.0
H600 H 0.16994 0.5958 0.50538 0.0
C601 C 0.22691 0.57251 0.3628 0.0
C602 C 0.18804 0.60482 0.29311 0.0
C603 C 0.24036 0.56041 0.32487 0.0
C604 C 0.11146 0.57947 0.35817 0.0
C605 C 0.13004 0.58687 0.34219 0.0
C606 C 0.1748 0.599 0.44629 0.0
C607 C 0.22052 0.59003 0.32725 0.0
C608 C 0.20142 0.59875 0.35121 0.0
C609 C 0.1401 0.59814 0.39818 0.0
C610 C 0.16119 0.60253 0.38598 0.0
H611 H 0.24859 0.58822 0.16238 0.0
H612 H 0.22601 0.61004 0.23064 0.0
H613 H 0.2047 0.59324 0.47592 0.0
H614 H 0.10517 0.59883 0.54059 0.0
H615 H 0.1379 0.61159 0.51282 0.0
C616 C 0.99856 0.78513 0.09675 0.0
C617 C 1.0101 0.77086 0.13342 0.0
C618 C 1.00531 0.79462 0.02969 0.0
C619 C 0.05259 0.8111 0.96553 0.0
H620 H 0.0191 0.84264 0.83267 0.0
C621 C 0.05424 0.89292 0.97105 0.0
C622 C 0.04599 0.90393 0.91011 0.0
C623 C 0.05609 0.87268 0.96366 0.0
C624 C 0.02902 0.83381 0.86733 0.0
H625 H 0.03659 0.75359 0.12436 0.0
H626 H 0.04849 0.77022 0.00646 0.0
H627 H 1.00812 0.81058 0.87477 0.0
H628 H 0.0354 0.90302 0.79039 0.0
H629 H 0.03885 0.86761 0.77691 0.0
H630 H 0.0731 0.83471 0.96112 0.0
C631 C 0.03431 0.77421 0.0299 0.0
C632 C 0.0226 0.81542 0.89204 0.0
C633 C 0.02746 0.76462 0.09704 0.0
C634 C 0.04139 0.89469 0.83888 0.0
C635 C 0.0434 0.87446 0.83116 0.0
C636 C 0.05911 0.82939 0.9401 0.0
C637 C 0.02384 0.7901 0.99832 0.0
C638 C 0.0336 0.80464 0.94668 0.0
C639 C 0.04986 0.8631 0.89486 0.0
C640 C 0.0467 0.84159 0.89613 0.0
H641 H 0.98503 0.79004 0.12355 0.0
H642 H 0.99685 0.80684 0.00756 0.0
H643 H 0.0616 0.80313 0.00696 0.0
H644 H 0.05789 0.89973 0.02649 0.0
H645 H 0.06091 0.86446 0.01445 0.0
C646 C 0.74237 0.96346 0.11798 0.0
C647 C 0.74762 0.95443 0.18861 0.0
C648 C 0.72752 0.95551 0.07181 0.0
C649 C 0.68317 0.92746 0.11786 0.0
H650 H 0.66815 0.95044 0.91916 0.0
C651 C 0.60938 0.9639 0.07889 0.0
C652 C 0.60138 0.96707 0.00409 0.0
C653 C 0.62712 0.954 0.08757 0.0
C654 C 0.67194 0.94341 0.97402 0.0
H655 H 0.74405 0.92867 0.26086 0.0
H656 H 0.71914 0.91387 0.17722 0.0
H657 H 0.70246 0.94525 0.94773 0.0
H658 H 0.60552 0.96133 0.87973 0.0
H659 H 0.6357 0.94314 0.89545 0.0
H660 H 0.65266 0.92528 0.14353 0.0
C661 C 0.72557 0.92762 0.15915 0.0
C662 C 0.69178 0.9407 0.99096 0.0
C663 C 0.74007 0.93589 0.2065 0.0
C664 C 0.61103 0.95906 0.93856 0.0
C665 C 0.6286 0.94882 0.94739 0.0
C666 C 0.66336 0.92966 0.10003 0.0
C667 C 0.71787 0.93821 0.09519 0.0
C668 C 0.6977 0.93414 0.06556 0.0
C669 C 0.63721 0.94667 0.02175 0.0
C670 C 0.65754 0.93901 0.03043 0.0
H671 H 0.74795 0.97786 0.10351 0.0
H672 H 0.72225 0.96423 0.02323 0.0
H673 H 0.68686 0.92216 0.17583 0.0
H674 H 0.60221 0.96948 0.13086 0.0
H675 H 0.63332 0.95298 0.14586 0.0
C676 C 0.55529 0.76096 0.09328 0.0
C677 C 0.56312 0.75588 0.16687 0.0
C678 C 0.55966 0.74971 0.02721 0.0
C679 C 0.58295 0.70151 0.97188 0.0
H680 H 0.52886 0.68923 0.92372 0.0
C681 C 0.55252 0.62312 0.90376 0.0
C682 C 0.53896 0.61816 0.96296 0.0
C683 C 0.55888 0.64247 0.89466 0.0
C684 C 0.54412 0.6926 0.93483 0.0
H685 H 0.58483 0.73793 0.22532 0.0
H686 H 0.59149 0.71764 0.11251 0.0
H687 H 0.53743 0.7221 0.96193 0.0
H688 H 0.52183 0.62965 0.0597 0.0
H689 H 0.53245 0.66328 0.04225 0.0
H690 H 0.58889 0.67107 0.95208 0.0
C691 C 0.58197 0.73014 0.1045 0.0
C692 C 0.54918 0.71158 0.95618 0.0
C693 C 0.57794 0.74165 0.17004 0.0
C694 C 0.53194 0.63295 0.01256 0.0
C695 C 0.53802 0.65222 0.00262 0.0
C696 C 0.57781 0.68242 0.95055 0.0
C697 C 0.57145 0.73292 0.03431 0.0
C698 C 0.56838 0.71593 0.98104 0.0
C699 C 0.55147 0.65716 0.94356 0.0
C700 C 0.55811 0.67764 0.93743 0.0
H701 H 0.54409 0.7721 0.08803 0.0
H702 H 0.55197 0.7528 0.97304 0.0
H703 H 0.59797 0.70447 0.98837 0.0
H704 H 0.55799 0.61213 0.86366 0.0
H705 H 0.56933 0.646 0.84899 0.0
C706 C 0.78424 0.47614 0.13783 0.0
C707 C 0.77187 0.49251 0.1375 0.0
C708 C 0.79277 0.46963 0.06847 0.0
C709 C 0.81054 0.49466 0.89573 0.0
H710 H 0.84178 0.44737 0.89249 0.0
C711 C 0.89139 0.49705 0.92087 0.0
C712 C 0.9037 0.48258 0.88981 0.0
C713 C 0.87126 0.49619 0.90903 0.0
C714 C 0.83299 0.46054 0.89009 0.0
H715 H 0.75638 0.5131 0.06312 0.0
H716 H 0.77091 0.5014 0.94126 0.0
H717 H 0.80881 0.44643 0.94619 0.0
H718 H 0.90459 0.45633 0.81843 0.0
H719 H 0.86906 0.45449 0.79992 0.0
H720 H 0.83506 0.50893 0.84279 0.0
C721 C 0.77453 0.49395 0.99545 0.0
C722 C 0.81412 0.46006 0.92173 0.0
C723 C 0.76611 0.50059 0.06526 0.0
C724 C 0.89542 0.46748 0.84456 0.0
C725 C 0.87515 0.46653 0.83315 0.0
C726 C 0.82923 0.49506 0.86292 0.0
C727 C 0.78905 0.47933 0.99703 0.0
C728 C 0.80355 0.47754 0.93219 0.0
C729 C 0.86284 0.48077 0.86612 0.0
C730 C 0.84127 0.47845 0.8669 0.0
H731 H 0.7885 0.46929 0.19259 0.0
H732 H 0.8038 0.45831 0.07287 0.0
H733 H 0.80282 0.50842 0.90104 0.0
H734 H 0.89721 0.50872 0.95688 0.0
H735 H 0.86219 0.50711 0.93722 0.0
C736 C 0.02687 0.21698 0.05919 0.0
C737 C 0.0148 0.23008 0.01811 0.0
C738 C 0.03148 0.19868 0.02716 0.0
C739 C 0.02892 0.16796 0.84651 0.0
H740 H 0.01866 0.12605 0.99433 0.0
C741 C 0.01339 0.08848 0.74566 0.0
C742 C 0.01981 0.07287 0.79305 0.0
C743 C 0.01521 0.10789 0.77101 0.0
C744 C 0.02194 0.13748 0.95229 0.0
H745 H 0.99878 0.23478 0.91038 0.0
H746 H 1.00714 0.20308 0.85339 0.0
H747 H 0.01929 0.15971 0.03981 0.0
H748 H 0.0336 0.06566 0.90403 0.0
H749 H 0.03713 0.09938 0.9474 0.0
H750 H 0.03141 0.1457 0.75877 0.0
C751 C 0.01325 0.2069 0.90992 0.0
C752 C 0.02232 0.15686 0.97854 0.0
C753 C 1.00857 0.22514 0.94221 0.0
C754 C 0.02832 0.07724 0.86611 0.0
C755 C 0.03027 0.09665 0.89122 0.0
C756 C 0.02867 0.14853 0.82026 0.0
C757 C 0.02405 0.19309 0.95344 0.0
C758 C 0.0256 0.1724 0.92594 0.0
C759 C 0.02362 0.11229 0.84432 0.0
C760 C 0.02494 0.13299 0.87263 0.0
H761 H 0.03144 0.22027 0.11858 0.0
H762 H 0.04004 0.18851 0.06184 0.0
H763 H 0.03164 0.17955 0.80449 0.0
H764 H 1.00663 0.08574 0.68931 0.0
H765 H 1.00959 0.11942 0.73366 0.0
C766 C 0.3066 0.02538 0.04578 0.0
C767 C 0.29397 0.01273 0.0053 0.0
C768 C 0.32496 0.03023 0.01444 0.0
C769 C 0.3565 0.02767 0.83594 0.0
H770 H 0.39817 0.01898 0.98642 0.0
C771 C 0.43683 0.01426 0.73906 0.0
C772 C 0.45218 0.02089 0.78735 0.0
C773 C 0.41728 0.01565 0.76349 0.0
C774 C 0.38682 0.02184 0.94359 0.0
H775 H 0.29019 0.99593 0.89908 0.0
H776 H 0.32193 1.0048 0.84306 0.0
H777 H 0.36431 0.01891 0.03016 0.0
H778 H 0.45873 0.03463 0.89886 0.0
H779 H 0.42475 0.0375 0.9405 0.0
H780 H 0.37902 0.03053 0.74921 0.0
C781 C 0.31771 0.01113 0.89871 0.0
C782 C 0.36731 0.0218 0.96885 0.0
C783 C 0.29943 1.00616 0.93041 0.0
C784 C 0.44737 0.02921 0.86026 0.0
C785 C 0.4278 0.03076 0.8844 0.0
C786 C 0.37606 0.02789 0.81069 0.0
C787 C 0.33107 0.02252 0.94187 0.0
C788 C 0.35185 0.0245 0.91531 0.0
C789 C 0.41243 0.02387 0.8367 0.0
C790 C 0.39154 0.02473 0.86398 0.0
H791 H 0.30295 0.03022 0.10447 0.0
H792 H 0.33477 0.03924 0.04883 0.0
H793 H 0.34499 0.02995 0.79318 0.0
H794 H 0.43991 1.00765 0.6827 0.0
H795 H 0.406 0.00985 0.72546 0.0
C796 C 0.48398 0.30568 0.96294 0.0
C797 C 0.49857 0.29627 0.00733 0.0
C798 C 0.48778 0.32346 0.92511 0.0
C799 C 0.52 0.36644 0.94709 0.0
H800 H 0.49343 0.38406 0.75886 0.0
C801 C 0.51119 0.44877 0.874 0.0
C802 C 0.51251 0.45472 0.79515 0.0
C803 C 0.5109 0.42886 0.89398 0.0
C804 C 0.50115 0.3794 0.81113 0.0
H805 H 0.52894 0.29753 0.04281 0.0
H806 H 0.53585 0.32842 0.97502 0.0
H807 H 0.49175 0.34971 0.79679 0.0
H808 H 0.51451 0.44407 0.67545 0.0
H809 H 0.51417 0.40955 0.71028 0.0
H810 H 0.52949 0.39609 0.96129 0.0
C811 C 0.52132 0.32219 0.97044 0.0
C812 C 0.50003 0.35966 0.83332 0.0
C813 C 0.51749 0.30431 0.00819 0.0
C814 C 0.51346 0.44015 0.73686 0.0
C815 C 0.51315 0.42026 0.75684 0.0
C816 C 0.52112 0.38617 0.92492 0.0
C817 C 0.5063 0.33238 0.93086 0.0
C818 C 0.50922 0.35293 0.90224 0.0
C819 C 0.51191 0.41429 0.83572 0.0
C820 C 0.51148 0.39302 0.85722 0.0
H821 H 0.4692 0.29992 0.96203 0.0
H822 H 0.47578 0.33082 0.89591 0.0
H823 H 0.52707 0.36196 0.00103 0.0
H824 H 0.51037 0.45949 0.92057 0.0
H825 H 0.50959 0.4249 0.95527 0.0
C826 C 0.22219 0.5326 0.98904 0.0
C827 C 0.23063 0.51912 0.04136 0.0
C828 C 0.20472 0.5283 0.95006 0.0
C829 C 0.16065 0.49703 0.97229 0.0
H830 H 0.14643 0.52189 0.77597 0.0
C831 C 0.07956 0.50699 0.88027 0.0
C832 C 0.07467 0.50712 0.80017 0.0
C833 C 0.09918 0.50619 0.90437 0.0
C834 C 0.15009 0.51453 0.8303 0.0
H835 H 0.22804 0.48999 0.08991 0.0
H836 H 0.19774 0.48204 0.01944 0.0
H837 H 0.18014 0.52296 0.82043 0.0
H838 H 0.08669 0.50599 0.68258 0.0
H839 H 0.12071 0.50391 0.72425 0.0
H840 H 0.13067 0.48815 0.98108 0.0
C841 C 0.2044 0.49622 0.00999 0.0
C842 C 0.16951 0.5154 0.85653 0.0
C843 C 0.22196 0.5006 0.04941 0.0
C844 C 0.0899 0.50609 0.74481 0.0
C845 C 0.1095 0.50502 0.76887 0.0
C846 C 0.14125 0.49597 0.94559 0.0
C847 C 0.19517 0.51028 0.96176 0.0
C848 C 0.17504 0.50707 0.92883 0.0
C849 C 0.11451 0.50523 0.84908 0.0
C850 C 0.13554 0.50505 0.87492 0.0
H851 H 0.2285 0.54704 0.98198 0.0
H852 H 0.19815 0.53967 0.91448 0.0
H853 H 0.16415 0.49056 0.02855 0.0
H854 H 0.06825 0.5079 0.92461 0.0
H855 H 0.10229 0.50678 0.96657 0.0
C856 C 0.98462 0.80405 0.40774 0.0
C857 C 1.00154 0.79238 0.4076 0.0
C858 C 0.98467 0.82251 0.44326 0.0
C859 C 0.01335 0.85614 0.57324 0.0
H860 H 0.98628 0.89615 0.45358 0.0
C861 C 1.00708 0.93635 0.68262 0.0
C862 C 1.00817 0.95155 0.62692 0.0
C863 C 1.006 0.91674 0.65922 0.0
C864 C 0.99408 0.88525 0.48752 0.0
H865 H 0.03165 0.79064 0.44592 0.0
H866 H 0.0319 0.82293 0.50805 0.0
H867 H 0.98483 0.86229 0.41104 0.0
H868 H 1.00911 0.95777 0.50227 0.0
H869 H 1.00757 0.92361 0.46137 0.0
H870 H 0.02312 0.87932 0.64821 0.0
C871 C 0.0184 0.81773 0.48212 0.0
C872 C 0.99299 0.86567 0.46377 0.0
C873 C 0.01828 0.79916 0.44689 0.0
C874 C 1.00816 0.94653 0.54694 0.0
C875 C 1.00719 0.92688 0.52347 0.0
C876 C 0.01447 0.87578 0.59697 0.0
C877 C 1.00177 0.82995 0.47854 0.0
C878 C 1.00259 0.85078 0.50617 0.0
C879 C 1.00609 0.91166 0.57927 0.0
C880 C 1.00489 0.89065 0.55432 0.0
H881 H 0.97162 0.79927 0.37681 0.0
H882 H 0.97144 0.83121 0.44072 0.0
H883 H 0.02086 0.84516 0.60781 0.0
H884 H 1.00688 0.93957 0.74471 0.0
H885 H 1.00478 0.90556 0.70403 0.0
C886 C 0.72444 0.013 0.41088 0.0
C887 C 0.73311 0.99449 0.41919 0.0
C888 C 0.70632 0.01707 0.44645 0.0
C889 C 0.66934 0.99733 0.58999 0.0
H890 H 0.63222 0.02456 0.45698 0.0
C891 C 0.58915 0.01044 0.68872 0.0
C892 C 0.57423 1.00945 0.63183 0.0
C893 C 0.60894 0.0101 0.667 0.0
C894 C 0.64231 0.01677 0.49474 0.0
H895 H 0.73021 0.96614 0.47447 0.0
H896 H 0.69894 0.97309 0.53647 0.0
H897 H 0.66631 0.02197 0.41659 0.0
H898 H 0.56868 1.00715 0.507 0.0
H899 H 0.60311 1.00604 0.46923 0.0
H900 H 0.64522 0.9913 0.66629 0.0
C901 C 0.70598 0.98467 0.50353 0.0
C902 C 0.66204 0.01558 0.47215 0.0
C903 C 0.72401 0.98065 0.46811 0.0
C904 C 0.57971 1.008 0.55251 0.0
C905 C 0.59954 1.00753 0.53078 0.0
C906 C 0.64962 0.99842 0.61235 0.0
C907 C 0.69648 1.00269 0.49103 0.0
C908 C 0.67584 1.00565 0.51898 0.0
C909 C 0.61449 1.00862 0.58769 0.0
C910 C 0.63572 1.008 0.56475 0.0
H911 H 0.73096 0.02382 0.37244 0.0
H912 H 0.69968 0.03124 0.43654 0.0
H913 H 0.67948 0.98976 0.62829 0.0
H914 H 0.5856 0.01169 0.75043 0.0
H915 H 0.61988 0.0113 0.71268 0.0
C916 C 0.51167 0.72773 0.42207 0.0
C917 C 0.53079 0.73502 0.41352 0.0
C918 C 0.50833 0.70989 0.46112 0.0
C919 C 0.53185 0.67234 0.59133 0.0
H920 H 0.49741 0.63627 0.48331 0.0
C921 C 0.51787 0.59295 0.70386 0.0
C922 C 0.51702 0.57808 0.64678 0.0
C923 C 0.51833 0.61276 0.6819 0.0
C924 C 0.50715 0.6461 0.51416 0.0
H925 H 0.56121 0.72994 0.44295 0.0
H926 H 0.55547 0.69915 0.5112 0.0
H927 H 0.50009 0.66994 0.4375 0.0
H928 H 0.51607 0.57267 0.52148 0.0
H929 H 0.51699 0.60698 0.4835 0.0
H930 H 0.5394 0.6483 0.66643 0.0
C931 C 0.54298 0.70705 0.48823 0.0
C932 C 0.50848 0.66556 0.48849 0.0
C933 C 0.5463 0.72472 0.44886 0.0
C934 C 0.51668 0.58362 0.56725 0.0
C935 C 0.51704 0.60339 0.54537 0.0
C936 C 0.53047 0.65289 0.6172 0.0
C937 C 0.52403 0.69906 0.49305 0.0
C938 C 0.52108 0.67891 0.52587 0.0
C939 C 0.51783 0.61828 0.60227 0.0
C940 C 0.51835 0.63938 0.57815 0.0
H941 H 0.49946 0.73522 0.39481 0.0
H942 H 0.49351 0.70434 0.46453 0.0
H943 H 0.54156 0.68221 0.62219 0.0
H944 H 0.51819 0.58934 0.76574 0.0
H945 H 0.5188 0.62376 0.72751 0.0
C946 C 0.79794 0.51344 0.46263 0.0
C947 C 0.79626 0.52111 0.38642 0.0
C948 C 0.81579 0.51473 0.50366 0.0
C949 C 0.86451 0.54002 0.50252 0.0
H950 H 0.88311 0.49282 0.6044 0.0
C951 C 0.94659 0.52822 0.57205 0.0
C952 C 0.95187 0.51835 0.64134 0.0
C953 C 0.92692 0.52955 0.54889 0.0
C954 C 0.8781 0.50625 0.57724 0.0
H955 H 0.81161 0.53674 0.29471 0.0
H956 H 0.84244 0.53917 0.36563 0.0
H957 H 0.84975 0.49412 0.55326 0.0
H958 H 0.94037 0.50184 0.73968 0.0
H959 H 0.90613 0.50448 0.70044 0.0
H960 H 0.89289 0.55207 0.52531 0.0
C961 C 0.83013 0.53226 0.39457 0.0
C962 C 0.85888 0.50701 0.54796 0.0
C963 C 0.81244 0.53085 0.35366 0.0
C964 C 0.93689 0.5098 0.68664 0.0
C965 C 0.9172 0.51113 0.66353 0.0
C966 C 0.88369 0.53927 0.53172 0.0
C967 C 0.83226 0.52386 0.46951 0.0
C968 C 0.85192 0.52378 0.50879 0.0
C969 C 0.9119 0.52104 0.59421 0.0
C970 C 0.89093 0.52225 0.56821 0.0
H971 H 0.78577 0.50566 0.48888 0.0
H972 H 0.8168 0.50826 0.56153 0.0
H973 H 0.85961 0.55334 0.47423 0.0
H974 H 0.95767 0.53491 0.53534 0.0
H975 H 0.92355 0.53701 0.49445 0.0
loop_
_geom_bond_atom_site_label_1
_geom_bond_atom_site_label_2
_geom_bond_distance
_geom_bond_site_symmetry_2
_ccdc_geom_bond_type
H0 C5 0.930 . S
H1 C8 0.930 . S
H2 C10 0.930 . S
H3 C4 1.016 . S
C4 H3 1.016 . S
C4 N11 1.286 . S
C5 H0 0.930 . S
C5 C6 1.397 . S
C5 C7 1.361 . S
C6 C5 1.397 . S
C6 C10 1.390 . S
C7 C5 1.361 . S
C7 C8 1.393 . S
C7 N11 1.413 . S
C8 H1 0.930 . S
C8 C7 1.393 . S
C8 C9 1.399 . S
C9 C8 1.399 . S
C9 C10 1.381 . S
C10 H2 0.930 . S
C10 C6 1.390 . S
C10 C9 1.381 . S
N11 C4 1.286 . S
N11 C7 1.413 . S
H12 C17 0.930 . S
H13 C20 0.930 . S
H14 C22 0.930 . S
H15 C16 1.036 . S
C16 H15 1.036 . S
C16 N23 1.260 1_655 S
C17 H12 0.930 . S
C17 C18 1.402 . S
C17 C19 1.361 . S
C18 C17 1.402 . S
C18 C22 1.387 1_455 S
C19 C17 1.361 . S
C19 C20 1.393 . S
C19 N23 1.413 . S
C20 H13 0.930 . S
C20 C19 1.393 . S
C20 C21 1.398 . S
C21 C20 1.398 . S
C21 C22 1.381 1_455 S
C22 H14 0.930 . S
C22 C18 1.387 1_655 S
C22 C21 1.381 1_655 S
N23 C16 1.260 1_455 S
N23 C19 1.413 . S
H24 C29 0.930 . S
H25 C32 0.930 . S
H26 C34 0.930 . S
H27 C28 1.031 . S
C28 H27 1.031 . S
C28 N35 1.266 1_565 S
C29 H24 0.930 . S
C29 C30 1.406 . S
C29 C31 1.361 . S
C30 C29 1.406 . S
C30 C34 1.385 1_545 S
C31 C29 1.361 . S
C31 C32 1.393 . S
C31 N35 1.413 . S
C32 H25 0.930 . S
C32 C31 1.393 . S
C32 C33 1.401 . S
C33 C32 1.401 . S
C33 C34 1.380 1_545 S
C34 H26 0.930 . S
C34 C30 1.385 1_565 S
C34 C33 1.380 1_565 S
N35 C28 1.266 1_545 S
N35 C31 1.413 . S
H36 C41 0.930 . S
H37 C44 0.930 . S
H38 C46 0.930 . S
H39 C40 1.016 . S
C40 H39 1.016 . S
C40 N47 1.286 . S
C41 H36 0.930 . S
C41 C42 1.397 . S
C41 C43 1.361 . S
C42 C41 1.397 . S
C42 C46 1.390 . S
C43 C41 1.361 . S
C43 C44 1.393 . S
C43 N47 1.413 . S
C44 H37 0.930 . S
C44 C43 1.393 . S
C44 C45 1.399 . S
C45 C44 1.399 . S
C45 C46 1.381 . S
C46 H38 0.930 . S
C46 C42 1.390 . S
C46 C45 1.381 . S
N47 C40 1.286 . S
N47 C43 1.413 . S
H48 C53 0.930 . S
H49 C56 0.930 . S
H50 C58 0.930 . S
H51 C52 1.016 . S
C52 H51 1.016 . S
C52 N59 1.286 . S
C53 H48 0.930 . S
C53 C54 1.397 . S
C53 C55 1.361 1_556 S
C54 C53 1.397 . S
C54 C58 1.390 1_556 S
C55 C53 1.361 1_554 S
C55 C56 1.393 . S
C55 N59 1.413 . S
C56 H49 0.930 . S
C56 C55 1.393 . S
C56 C57 1.399 . S
C57 C56 1.399 . S
C57 C58 1.381 . S
C58 H50 0.930 . S
C58 C54 1.390 1_554 S
C58 C57 1.381 . S
N59 C52 1.286 . S
N59 C55 1.413 . S
H60 C65 0.930 . S
H61 C68 0.930 . S
H62 C70 0.930 . S
H63 C64 1.019 . S
C64 H63 1.019 . S
C64 N71 1.283 1_655 S
C65 H60 0.930 . S
C65 C66 1.397 . S
C65 C67 1.361 1_556 S
C66 C65 1.397 . S
C66 C70 1.390 1_456 S
C67 C65 1.361 1_554 S
C67 C68 1.393 . S
C67 N71 1.413 . S
C68 H61 0.930 . S
C68 C67 1.393 . S
C68 C69 1.408 . S
C69 C68 1.408 . S
C69 C70 1.377 1_455 S
C70 H62 0.930 . S
C70 C66 1.390 1_654 S
C70 C69 1.377 1_655 S
N71 C64 1.283 1_455 S
N71 C67 1.413 . S
H72 C77 0.930 . S
H73 C80 0.930 . S
H74 C82 0.944 . S
H75 C76 1.017 1_565 S
C76 H75 1.017 1_545 S
C76 N83 1.285 . S
C77 H72 0.930 . S
C77 C78 1.397 . S
C77 C79 1.361 1_556 S
C78 C77 1.397 . S
C78 C82 1.384 1_546 S
C79 C77 1.361 1_554 S
C79 C80 1.393 . S
C79 N83 1.413 . S
C80 H73 0.930 . S
C80 C79 1.393 . S
C80 C81 1.399 . S
C81 C80 1.399 . S
C81 C82 1.376 1_545 S
C82 H74 0.944 . S
C82 C78 1.384 1_564 S
C82 C81 1.376 1_565 S
N83 C76 1.285 . S
N83 C79 1.413 . S
H84 C89 0.930 . S
H85 C92 0.930 . S
H86 C94 0.930 . S
H87 C88 1.016 . S
C88 H87 1.016 . S
C88 N95 1.286 . S
C89 H84 0.930 . S
C89 C90 1.397 . S
C89 C91 1.361 1_556 S
C90 C89 1.397 . S
C90 C94 1.390 1_556 S
C91 C89 1.361 1_554 S
C91 C92 1.393 . S
C91 N95 1.413 . S
C92 H85 0.930 . S
C92 C91 1.393 . S
C92 C93 1.399 . S
C93 C92 1.399 . S
C93 C94 1.381 . S
C94 H86 0.930 . S
C94 C90 1.390 1_554 S
C94 C93 1.381 . S
N95 C88 1.286 . S
N95 C91 1.413 . S
Pr96 C98 2.880 . S
Pr96 O116 2.566 . S
Pr96 O117 2.490 . S
Pr96 O118 2.695 1_565 S
Pr96 O119 2.512 . S
Pr96 O121 2.437 . S
Pr96 O124 2.436 1_455 S
Pr96 O126 2.438 1_565 S
Pr97 C107 2.880 . S
Pr97 O118 2.436 1_655 S
Pr97 O120 2.438 1_545 S
Pr97 O122 2.561 . S
Pr97 O123 2.490 . S
Pr97 O124 2.695 1_545 S
Pr97 O125 2.512 . S
Pr97 O127 2.437 . S
C98 Pr96 2.880 . S
C98 C99 1.491 . S
C98 O116 1.262 . S
C98 O117 1.225 . S
C99 C98 1.491 . S
C99 C100 1.392 . S
C99 C104 1.356 . S
C100 C99 1.392 . S
C100 C101 1.368 . S
C100 H128 0.929 . S
C101 C100 1.368 . S
C101 C102 1.386 . S
C101 H129 0.929 . S
C102 C101 1.386 . S
C102 C103 1.373 . S
C103 C102 1.373 . S
C103 C104 1.409 . S
C103 H130 0.931 1_455 S
C104 C99 1.356 . S
C104 C103 1.409 . S
C104 H131 0.930 1_455 S
C105 O118 1.257 1_565 S
C105 O119 1.271 . S
C106 O120 1.267 . S
C106 O121 1.278 1_655 S
C107 Pr97 2.880 . S
C107 C108 1.491 . S
C107 O122 1.249 . S
C107 O123 1.225 . S
C108 C107 1.491 . S
C108 C109 1.392 . S
C108 C113 1.356 . S
C109 C108 1.392 . S
C109 C110 1.368 . S
C109 H132 0.929 . S
C110 C109 1.368 . S
C110 C111 1.386 . S
C110 H133 0.929 . S
C111 C110 1.386 . S
C111 C112 1.373 . S
C112 C111 1.373 . S
C112 C113 1.409 . S
C112 H134 0.931 1_655 S
C113 C108 1.356 . S
C113 C112 1.409 . S
C113 H135 0.930 1_655 S
C114 O124 1.270 1_545 S
C114 O125 1.248 . S
C115 O126 1.267 . S
C115 O127 1.278 1_455 S
O116 Pr96 2.566 . S
O116 C98 1.262 . S
O117 Pr96 2.490 . S
O117 C98 1.225 . S
O118 Pr96 2.695 1_545 S
O118 Pr97 2.436 1_455 S
O118 C105 1.257 1_545 S
O119 Pr96 2.512 . S
O119 C105 1.271 . S
O120 Pr97 2.438 1_565 S
O120 C106 1.267 . S
O121 Pr96 2.437 . S
O121 C106 1.278 1_455 S
O122 Pr97 2.561 . S
O122 C107 1.249 . S
O123 Pr97 2.490 . S
O123 C107 1.225 . S
O124 Pr96 2.436 1_655 S
O124 Pr97 2.695 1_565 S
O124 C114 1.270 1_565 S
O125 Pr97 2.512 . S
O125 C114 1.248 . S
O126 Pr96 2.438 1_545 S
O126 C115 1.267 . S
O127 Pr97 2.437 . S
O127 C115 1.278 1_655 S
H128 C100 0.929 . S
H129 C101 0.929 . S
H130 C103 0.931 1_655 S
H131 C104 0.930 1_655 S
H132 C109 0.929 . S
H133 C110 0.929 . S
H134 C112 0.931 1_455 S
H135 C113 0.930 1_455 S
Pr136 C138 2.880 . S
Pr136 O156 2.570 . S
Pr136 O157 2.490 . S
Pr136 O158 2.695 . S
Pr136 O159 2.512 . S
Pr136 O161 2.437 . S
Pr136 O164 2.436 1_545 S
Pr136 O166 2.438 . S
Pr137 C147 2.880 . S
Pr137 O158 2.436 1_565 S
Pr137 O160 2.438 . S
Pr137 O162 2.562 1_565 S
Pr137 O163 2.490 . S
Pr137 O164 2.695 . S
Pr137 O165 2.512 . S
Pr137 O167 2.437 . S
C138 Pr136 2.880 . S
C138 C139 1.491 . S
C138 O156 1.271 . S
C138 O157 1.225 . S
C139 C138 1.491 . S
C139 C140 1.392 . S
C139 C144 1.356 . S
C140 C139 1.392 . S
C140 C141 1.368 . S
C140 H168 0.929 . S
C141 C140 1.368 . S
C141 C142 1.386 . S
C141 H169 0.929 . S
C142 C141 1.386 . S
C142 C143 1.373 . S
C143 C142 1.373 . S
C143 C144 1.409 . S
C143 H170 0.931 1_545 S
C144 C139 1.356 . S
C144 C143 1.409 . S
C144 H171 0.930 1_545 S
C145 O158 1.270 . S
C145 O159 1.248 . S
C146 O160 1.267 . S
C146 O161 1.278 1_565 S
C147 Pr137 2.880 . S
C147 C148 1.491 . S
C147 O162 1.253 1_565 S
C147 O163 1.225 . S
C148 C147 1.491 . S
C148 C149 1.392 . S
C148 C153 1.356 . S
C149 C148 1.392 . S
C149 C150 1.368 . S
C149 H172 0.929 . S
C150 C149 1.368 . S
C150 C151 1.386 . S
C150 H173 0.929 . S
C151 C150 1.386 . S
C151 C152 1.373 . S
C152 C151 1.373 . S
C152 C153 1.409 . S
C152 H174 0.931 1_565 S
C153 C148 1.356 . S
C153 C152 1.409 . S
C153 H175 0.930 1_565 S
C154 O164 1.270 . S
C154 O165 1.248 . S
C155 O166 1.267 . S
C155 O167 1.278 1_545 S
O156 Pr136 2.570 . S
O156 C138 1.271 . S
O157 Pr136 2.490 . S
O157 C138 1.225 . S
O158 Pr136 2.695 . S
O158 Pr137 2.436 1_545 S
O158 C145 1.270 . S
O159 Pr136 2.512 . S
O159 C145 1.248 . S
O160 Pr137 2.438 . S
O160 C146 1.267 . S
O161 Pr136 2.437 . S
O161 C146 1.278 1_545 S
O162 Pr137 2.562 1_545 S
O162 C147 1.253 1_545 S
O163 Pr137 2.490 . S
O163 C147 1.225 . S
O164 Pr136 2.436 1_565 S
O164 Pr137 2.695 . S
O164 C154 1.270 . S
O165 Pr137 2.512 . S
O165 C154 1.248 . S
O166 Pr136 2.438 . S
O166 C155 1.267 . S
O167 Pr137 2.437 . S
O167 C155 1.278 1_565 S
H168 C140 0.929 . S
H169 C141 0.929 . S
H170 C143 0.931 1_565 S
H171 C144 0.930 1_565 S
H172 C149 0.929 . S
H173 C150 0.929 . S
H174 C152 0.931 1_545 S
H175 C153 0.930 1_545 S
Pr176 C178 2.880 . S
Pr176 O196 2.562 . S
Pr176 O197 2.490 . S
Pr176 O198 2.695 . S
Pr176 O199 2.512 . S
Pr176 O201 2.437 . S
Pr176 O204 2.436 . S
Pr176 O206 2.438 . S
Pr177 C187 2.880 . S
Pr177 O198 2.436 . S
Pr177 O200 2.438 . S
Pr177 O202 2.562 . S
Pr177 O203 2.490 . S
Pr177 O204 2.695 . S
Pr177 O205 2.512 . S
Pr177 O207 2.437 . S
C178 Pr176 2.880 . S
C178 C179 1.491 . S
C178 O196 1.254 . S
C178 O197 1.225 . S
C179 C178 1.491 . S
C179 C180 1.392 . S
C179 C184 1.356 . S
C180 C179 1.392 . S
C180 C181 1.368 . S
C180 H208 0.929 . S
C181 C180 1.368 . S
C181 C182 1.386 . S
C181 H209 0.929 . S
C182 C181 1.386 . S
C182 C183 1.373 . S
C183 C182 1.373 . S
C183 C184 1.409 . S
C183 H210 0.931 . S
C184 C179 1.356 . S
C184 C183 1.409 . S
C184 H211 0.930 . S
C185 O198 1.270 . S
C185 O199 1.248 . S
C186 O200 1.267 . S
C186 O201 1.278 . S
C187 Pr177 2.880 . S
C187 C188 1.491 . S
C187 O202 1.254 . S
C187 O203 1.225 . S
C188 C187 1.491 . S
C188 C189 1.392 . S
C188 C193 1.356 . S
C189 C188 1.392 . S
C189 C190 1.368 . S
C189 H212 0.929 . S
C190 C189 1.368 . S
C190 C191 1.386 . S
C190 H213 0.929 . S
C191 C190 1.386 . S
C191 C192 1.373 . S
C192 C191 1.373 . S
C192 C193 1.409 . S
C192 H214 0.931 . S
C193 C188 1.356 . S
C193 C192 1.409 . S
C193 H215 0.930 . S
C194 O204 1.270 . S
C194 O205 1.248 . S
C195 O206 1.267 . S
C195 O207 1.278 . S
O196 Pr176 2.562 . S
O196 C178 1.254 . S
O197 Pr176 2.490 . S
O197 C178 1.225 . S
O198 Pr176 2.695 . S
O198 Pr177 2.436 . S
O198 C185 1.270 . S
O199 Pr176 2.512 . S
O199 C185 1.248 . S
O200 Pr177 2.438 . S
O200 C186 1.267 . S
O201 Pr176 2.437 . S
O201 C186 1.278 . S
O202 Pr177 2.562 . S
O202 C187 1.254 . S
O203 Pr177 2.490 . S
O203 C187 1.225 . S
O204 Pr176 2.436 . S
O204 Pr177 2.695 . S
O204 C194 1.270 . S
O205 Pr177 2.512 . S
O205 C194 1.248 . S
O206 Pr176 2.438 . S
O206 C195 1.267 . S
O207 Pr177 2.437 . S
O207 C195 1.278 . S
H208 C180 0.929 . S
H209 C181 0.929 . S
H210 C183 0.931 . S
H211 C184 0.930 . S
H212 C189 0.929 . S
H213 C190 0.929 . S
H214 C192 0.931 . S
H215 C193 0.930 . S
Pr216 C218 2.880 . S
Pr216 O236 2.562 . S
Pr216 O237 2.490 . S
Pr216 O238 2.695 1_655 S
Pr216 O239 2.512 . S
Pr216 O241 2.437 . S
Pr216 O244 2.436 . S
Pr216 O246 2.438 1_655 S
Pr217 C227 2.880 . S
Pr217 O238 2.436 . S
Pr217 O240 2.438 1_455 S
Pr217 O242 2.562 . S
Pr217 O243 2.490 . S
Pr217 O244 2.695 1_455 S
Pr217 O245 2.512 . S
Pr217 O247 2.437 . S
C218 Pr216 2.880 . S
C218 C219 1.491 . S
C218 O236 1.254 . S
C218 O237 1.225 . S
C219 C218 1.491 . S
C219 C220 1.392 . S
C219 C224 1.356 . S
C220 C219 1.392 . S
C220 C221 1.368 . S
C220 H248 0.929 . S
C221 C220 1.368 . S
C221 C222 1.386 . S
C221 H249 0.929 . S
C222 C221 1.386 . S
C222 C223 1.373 . S
C223 C222 1.373 . S
C223 C224 1.409 . S
C223 H250 0.931 . S
C224 C219 1.356 . S
C224 C223 1.409 . S
C224 H251 0.930 . S
C225 O238 1.254 1_655 S
C225 O239 1.276 . S
C226 O240 1.267 . S
C226 O241 1.278 . S
C227 Pr217 2.880 . S
C227 C228 1.491 . S
C227 O242 1.254 . S
C227 O243 1.225 . S
C228 C227 1.491 . S
C228 C229 1.392 . S
C228 C233 1.356 . S
C229 C228 1.392 . S
C229 C230 1.368 . S
C229 H252 0.929 . S
C230 C229 1.368 . S
C230 C231 1.386 . S
C230 H253 0.929 . S
C231 C230 1.386 . S
C231 C232 1.373 . S
C232 C231 1.373 . S
C232 C233 1.409 . S
C232 H254 0.931 . S
C233 C228 1.356 . S
C233 C232 1.409 . S
C233 H255 0.930 . S
C234 O244 1.270 1_455 S
C234 O245 1.248 . S
C235 O246 1.267 . S
C235 O247 1.278 . S
O236 Pr216 2.562 . S
O236 C218 1.254 . S
O237 Pr216 2.490 . S
O237 C218 1.225 . S
O238 Pr216 2.695 1_455 S
O238 Pr217 2.436 . S
O238 C225 1.254 1_455 S
O239 Pr216 2.512 . S
O239 C225 1.276 . S
O240 Pr217 2.438 1_655 S
O240 C226 1.267 . S
O241 Pr216 2.437 . S
O241 C226 1.278 . S
O242 Pr217 2.562 . S
O242 C227 1.254 . S
O243 Pr217 2.490 . S
O243 C227 1.225 . S
O244 Pr216 2.436 . S
O244 Pr217 2.695 1_655 S
O244 C234 1.270 1_655 S
O245 Pr217 2.512 . S
O245 C234 1.248 . S
O246 Pr216 2.438 1_455 S
O246 C235 1.267 . S
O247 Pr217 2.437 . S
O247 C235 1.278 . S
H248 C220 0.929 . S
H249 C221 0.929 . S
H250 C223 0.931 . S
H251 C224 0.930 . S
H252 C229 0.929 . S
H253 C230 0.929 . S
H254 C232 0.931 . S
H255 C233 0.930 . S
C256 C257 1.320 1_565 S
C256 C258 1.327 . S
C256 H281 0.950 . S
C257 C256 1.320 1_545 S
C257 C273 1.379 . S
C258 C256 1.327 . S
C258 C277 1.393 1_565 S
C258 H282 0.950 . S
C259 C276 1.574 . S
C259 C278 1.413 . S
C259 H283 0.949 . S
H260 C264 0.949 . S
C261 C262 1.349 . S
C261 C263 1.327 . S
C261 H284 0.950 . S
C262 C261 1.349 . S
C262 C274 1.349 1_545 S
C263 C261 1.327 . S
C263 C279 1.429 . S
C263 H285 0.950 . S
C264 H260 0.949 . S
C264 C272 1.574 . S
C264 C280 1.368 1_565 S
H265 C273 0.950 . S
H266 C271 0.950 . S
H267 C272 0.949 . S
H268 C274 0.950 . S
H269 C275 0.950 . S
H270 C276 0.949 . S
C271 H266 0.950 . S
C271 C273 1.327 . S
C271 C277 1.465 . S
C272 C264 1.574 . S
C272 H267 0.949 . S
C272 C278 1.325 1_565 S
C273 C257 1.379 . S
C273 H265 0.950 . S
C273 C271 1.327 . S
C274 C262 1.349 1_565 S
C274 H268 0.950 . S
C274 C275 1.327 . S
C275 H269 0.950 . S
C275 C274 1.327 . S
C275 C279 1.429 1_565 S
C276 C259 1.574 . S
C276 H270 0.949 . S
C276 C280 1.368 . S
C277 C258 1.393 1_545 S
C277 C271 1.465 . S
C277 C278 1.523 . S
C278 C259 1.413 . S
C278 C272 1.325 1_545 S
C278 C277 1.523 . S
C279 C263 1.429 . S
C279 C275 1.429 1_545 S
C279 C280 1.523 . S
C280 C264 1.368 1_545 S
C280 C276 1.368 . S
C280 C279 1.523 . S
H281 C256 0.950 . S
H282 C258 0.950 . S
H283 C259 0.949 . S
H284 C261 0.950 . S
H285 C263 0.950 . S
C286 C287 1.349 . S
C286 C288 1.327 . S
C286 H311 0.950 . S
C287 C286 1.349 . S
C287 C303 1.349 . S
C288 C286 1.327 . S
C288 C307 1.429 . S
C288 H312 0.950 . S
C289 C306 1.574 . S
C289 C308 1.368 . S
C289 H313 0.949 . S
H290 C294 0.949 . S
C291 C292 1.349 . S
C291 C293 1.327 . S
C291 H314 0.950 . S
C292 C291 1.349 . S
C292 C304 1.349 . S
C293 C291 1.327 . S
C293 C309 1.429 . S
C293 H315 0.950 . S
C294 H290 0.949 . S
C294 C302 1.574 . S
C294 C310 1.368 . S
H295 C303 0.950 . S
H296 C301 0.950 . S
H297 C302 0.949 . S
H298 C304 0.950 . S
H299 C305 0.950 . S
H300 C306 0.949 . S
C301 H296 0.950 . S
C301 C303 1.327 . S
C301 C307 1.429 . S
C302 C294 1.574 . S
C302 H297 0.949 . S
C302 C308 1.368 . S
C303 C287 1.349 . S
C303 H295 0.950 . S
C303 C301 1.327 . S
C304 C292 1.349 . S
C304 H298 0.950 . S
C304 C305 1.327 . S
C305 H299 0.950 . S
C305 C304 1.327 . S
C305 C309 1.429 . S
C306 C289 1.574 . S
C306 H300 0.949 . S
C306 C310 1.368 . S
C307 C288 1.429 . S
C307 C301 1.429 . S
C307 C308 1.523 . S
C308 C289 1.368 . S
C308 C302 1.368 . S
C308 C307 1.523 . S
C309 C293 1.429 . S
C309 C305 1.429 . S
C309 C310 1.523 . S
C310 C294 1.368 . S
C310 C306 1.368 . S
C310 C309 1.523 . S
H311 C286 0.950 . S
H312 C288 0.950 . S
H313 C289 0.949 . S
H314 C291 0.950 . S
H315 C293 0.950 . S
C316 C317 1.349 . S
C316 C318 1.327 . S
C316 H341 0.950 . S
C317 C316 1.349 . S
C317 C333 1.349 . S
C318 C316 1.327 . S
C318 C337 1.429 . S
C318 H342 0.950 . S
C319 C336 1.574 . S
C319 C338 1.368 . S
C319 H343 0.949 . S
H320 C324 0.949 . S
C321 C322 1.349 . S
C321 C323 1.327 . S
C321 H344 0.950 . S
C322 C321 1.349 . S
C322 C334 1.349 . S
C323 C321 1.327 . S
C323 C339 1.429 . S
C323 H345 0.950 . S
C324 H320 0.949 . S
C324 C332 1.574 . S
C324 C340 1.368 . S
H325 C333 0.950 . S
H326 C331 0.950 . S
H327 C332 0.949 . S
H328 C334 0.950 . S
H329 C335 0.950 . S
H330 C336 0.949 . S
C331 H326 0.950 . S
C331 C333 1.327 . S
C331 C337 1.429 . S
C332 C324 1.574 . S
C332 H327 0.949 . S
C332 C338 1.368 . S
C333 C317 1.349 . S
C333 H325 0.950 . S
C333 C331 1.327 . S
C334 C322 1.349 . S
C334 H328 0.950 . S
C334 C335 1.327 . S
C335 H329 0.950 . S
C335 C334 1.327 . S
C335 C339 1.429 . S
C336 C319 1.574 . S
C336 H330 0.949 . S
C336 C340 1.368 . S
C337 C318 1.429 . S
C337 C331 1.429 . S
C337 C338 1.523 . S
C338 C319 1.368 . S
C338 C332 1.368 . S
C338 C337 1.523 . S
C339 C323 1.429 . S
C339 C335 1.429 . S
C339 C340 1.523 . S
C340 C324 1.368 . S
C340 C336 1.368 . S
C340 C339 1.523 . S
H341 C316 0.950 . S
H342 C318 0.950 . S
H343 C319 0.949 . S
H344 C321 0.950 . S
H345 C323 0.950 . S
C346 C347 1.366 . S
C346 C348 1.327 . S
C346 H371 0.950 . S
C347 C346 1.366 . S
C347 C363 1.333 1_455 S
C348 C346 1.327 . S
C348 C367 1.451 . S
C348 H372 0.950 . S
C349 C366 1.574 . S
C349 C368 1.341 1_655 S
C349 H373 0.949 . S
H350 C354 0.949 . S
C351 C352 1.349 1_655 S
C351 C353 1.327 . S
C351 H374 0.950 . S
C352 C351 1.349 1_455 S
C352 C364 1.349 . S
C353 C351 1.327 . S
C353 C369 1.429 1_655 S
C353 H375 0.950 . S
C354 H350 0.949 . S
C354 C362 1.574 . S
C354 C370 1.403 . S
H355 C363 0.950 . S
H356 C361 0.950 . S
H357 C362 0.949 . S
H358 C364 0.950 . S
H359 C365 0.950 . S
H360 C366 0.949 . S
C361 H356 0.950 . S
C361 C363 1.327 . S
C361 C367 1.407 1_655 S
C362 C354 1.574 . S
C362 H357 0.949 . S
C362 C368 1.397 . S
C363 C347 1.333 1_655 S
C363 H355 0.950 . S
C363 C361 1.327 . S
C364 C352 1.349 . S
C364 H358 0.950 . S
C364 C365 1.327 . S
C365 H359 0.950 . S
C365 C364 1.327 . S
C365 C369 1.429 . S
C366 C349 1.574 . S
C366 H360 0.949 . S
C366 C370 1.335 1_655 S
C367 C348 1.451 . S
C367 C361 1.407 1_455 S
C367 C368 1.523 . S
C368 C349 1.341 1_455 S
C368 C362 1.397 . S
C368 C367 1.523 . S
C369 C353 1.429 1_455 S
C369 C365 1.429 . S
C369 C370 1.524 . S
C370 C354 1.403 . S
C370 C366 1.335 1_455 S
C370 C369 1.524 . S
H371 C346 0.950 . S
H372 C348 0.950 . S
H373 C349 0.949 . S
H374 C351 0.950 . S
H375 C353 0.950 . S
C376 C377 1.355 . S
C376 C378 1.327 . S
C376 H401 0.950 . S
C377 C376 1.355 . S
C377 C393 1.343 1_565 S
C378 C376 1.327 . S
C378 C397 1.442 . S
C378 H402 0.950 . S
C379 C396 1.574 . S
C379 C398 1.349 1_545 S
C379 H403 0.949 . S
H380 C384 0.949 . S
C381 C382 1.311 1_545 S
C381 C383 1.327 . S
C381 H404 0.950 . S
C382 C381 1.311 1_565 S
C382 C394 1.388 . S
C383 C381 1.327 . S
C383 C399 1.399 1_545 S
C383 H405 0.950 . S
C384 H380 0.949 . S
C384 C392 1.574 1_556 S
C384 C400 1.396 1_556 S
H385 C393 0.950 . S
H386 C391 0.950 . S
H387 C392 0.949 . S
H388 C394 0.950 . S
H389 C395 0.950 . S
H390 C396 0.949 . S
C391 H386 0.950 . S
C391 C393 1.327 . S
C391 C397 1.415 1_545 S
C392 C384 1.574 1_554 S
C392 H387 0.949 . S
C392 C398 1.388 . S
C393 C377 1.343 1_545 S
C393 H385 0.950 . S
C393 C391 1.327 . S
C394 C382 1.388 . S
C394 H388 0.950 . S
C394 C395 1.327 . S
C395 H389 0.950 . S
C395 C394 1.327 . S
C395 C399 1.459 . S
C396 C379 1.574 . S
C396 H390 0.949 . S
C396 C400 1.341 1_545 S
C397 C378 1.442 . S
C397 C391 1.415 1_565 S
C397 C398 1.523 . S
C398 C379 1.349 1_565 S
C398 C392 1.388 . S
C398 C397 1.523 . S
C399 C383 1.399 1_565 S
C399 C395 1.459 . S
C399 C400 1.523 1_556 S
C400 C384 1.396 1_554 S
C400 C396 1.341 1_565 S
C400 C399 1.523 1_554 S
H401 C376 0.950 . S
H402 C378 0.950 . S
H403 C379 0.949 . S
H404 C381 0.950 . S
H405 C383 0.950 . S
C406 C407 1.349 . S
C406 C408 1.327 . S
C406 H431 0.950 . S
C407 C406 1.349 . S
C407 C423 1.349 . S
C408 C406 1.327 . S
C408 C427 1.429 . S
C408 H432 0.950 . S
C409 C426 1.574 . S
C409 C428 1.368 . S
C409 H433 0.949 . S
H410 C414 0.949 . S
C411 C412 1.349 . S
C411 C413 1.327 . S
C411 H434 0.950 . S
C412 C411 1.349 . S
C412 C424 1.349 . S
C413 C411 1.327 . S
C413 C429 1.429 . S
C413 H435 0.949 . S
C414 H410 0.949 . S
C414 C422 1.574 1_556 S
C414 C430 1.368 1_556 S
H415 C423 0.950 . S
H416 C421 0.950 . S
H417 C422 0.949 . S
H418 C424 0.950 . S
H419 C425 0.950 . S
H420 C426 0.949 . S
C421 H416 0.950 . S
C421 C423 1.327 . S
C421 C427 1.429 . S
C422 C414 1.574 1_554 S
C422 H417 0.949 . S
C422 C428 1.368 . S
C423 C407 1.349 . S
C423 H415 0.950 . S
C423 C421 1.327 . S
C424 C412 1.349 . S
C424 H418 0.950 . S
C424 C425 1.327 . S
C425 H419 0.950 . S
C425 C424 1.327 . S
C425 C429 1.429 . S
C426 C409 1.574 . S
C426 H420 0.949 . S
C426 C430 1.368 . S
C427 C408 1.429 . S
C427 C421 1.429 . S
C427 C428 1.523 . S
C428 C409 1.368 . S
C428 C422 1.368 . S
C428 C427 1.523 . S
C429 C413 1.429 . S
C429 C425 1.429 . S
C429 C430 1.523 1_556 S
C430 C414 1.368 1_554 S
C430 C426 1.368 . S
C430 C429 1.523 1_554 S
H431 C406 0.950 . S
H432 C408 0.950 . S
H433 C409 0.949 . S
H434 C411 0.950 . S
H435 C413 0.949 . S
C436 C437 1.349 . S
C436 C438 1.327 . S
C436 H461 0.950 . S
C437 C436 1.349 . S
C437 C453 1.349 . S
C438 C436 1.327 . S
C438 C457 1.429 . S
C438 H462 0.950 . S
C439 C456 1.574 . S
C439 C458 1.368 . S
C439 H463 0.949 . S
H440 C444 0.949 . S
C441 C442 1.349 . S
C441 C443 1.327 . S
C441 H464 0.950 . S
C442 C441 1.349 . S
C442 C454 1.349 . S
C443 C441 1.327 . S
C443 C459 1.429 . S
C443 H465 0.950 . S
C444 H440 0.949 . S
C444 C452 1.574 1_556 S
C444 C460 1.368 1_556 S
H445 C453 0.950 . S
H446 C451 0.950 . S
H447 C452 0.949 . S
H448 C454 0.950 . S
H449 C455 0.950 . S
H450 C456 0.949 . S
C451 H446 0.950 . S
C451 C453 1.327 . S
C451 C457 1.429 . S
C452 C444 1.574 1_554 S
C452 H447 0.949 . S
C452 C458 1.368 . S
C453 C437 1.349 . S
C453 H445 0.950 . S
C453 C451 1.327 . S
C454 C442 1.349 . S
C454 H448 0.950 . S
C454 C455 1.327 . S
C455 H449 0.950 . S
C455 C454 1.327 . S
C455 C459 1.429 . S
C456 C439 1.574 . S
C456 H450 0.949 . S
C456 C460 1.368 . S
C457 C438 1.429 . S
C457 C451 1.429 . S
C457 C458 1.523 . S
C458 C439 1.368 . S
C458 C452 1.368 . S
C458 C457 1.523 . S
C459 C443 1.429 . S
C459 C455 1.429 . S
C459 C460 1.523 1_556 S
C460 C444 1.368 1_554 S
C460 C456 1.368 . S
C460 C459 1.523 1_554 S
H461 C436 0.950 . S
H462 C438 0.950 . S
H463 C439 0.949 . S
H464 C441 0.950 . S
H465 C443 0.950 . S
C466 C467 1.370 . S
C466 C468 1.327 . S
C466 H491 0.950 . S
C467 C466 1.370 . S
C467 C483 1.328 1_655 S
C468 C466 1.327 . S
C468 C487 1.459 . S
C468 H492 0.950 . S
C469 C486 1.574 . S
C469 C488 1.330 1_455 S
C469 H493 0.949 . S
H470 C474 0.949 . S
C471 C472 1.349 1_455 S
C471 C473 1.327 . S
C471 H494 0.950 . S
C472 C471 1.349 1_655 S
C472 C484 1.349 . S
C473 C471 1.327 . S
C473 C489 1.380 1_455 S
C473 H495 0.950 . S
C474 H470 0.949 . S
C474 C482 1.574 . S
C474 C490 1.417 . S
H475 C483 0.950 . S
H476 C481 0.950 . S
H477 C482 0.949 . S
H478 C484 0.950 . S
H479 C485 0.950 . S
H480 C486 0.949 1_556 S
C481 H476 0.950 . S
C481 C483 1.327 . S
C481 C487 1.399 1_455 S
C482 C474 1.574 . S
C482 H477 0.949 . S
C482 C488 1.407 . S
C483 C467 1.328 1_455 S
C483 H475 0.950 . S
C483 C481 1.327 . S
C484 C472 1.349 . S
C484 H478 0.950 . S
C484 C485 1.327 . S
C485 H479 0.950 . S
C485 C484 1.327 . S
C485 C489 1.478 . S
C486 C469 1.574 . S
C486 H480 0.949 1_554 S
C486 C490 1.320 1_455 S
C487 C468 1.459 . S
C487 C481 1.399 1_655 S
C487 C488 1.523 . S
C488 C469 1.330 1_655 S
C488 C482 1.407 . S
C488 C487 1.523 . S
C489 C473 1.380 1_655 S
C489 C485 1.478 . S
C489 C490 1.523 1_556 S
C490 C474 1.417 . S
C490 C486 1.320 1_655 S
C490 C489 1.523 1_554 S
H491 C466 0.950 . S
H492 C468 0.950 . S
H493 C469 0.949 . S
H494 C471 0.950 . S
H495 C473 0.950 . S
C496 C497 1.349 1_655 S
C496 C498 1.327 . S
C496 H521 0.950 . S
C497 C496 1.349 1_455 S
C497 C513 1.349 . S
C498 C496 1.327 . S
C498 C517 1.429 . S
C498 H522 0.950 . S
C499 C516 1.574 1_455 S
C499 C518 1.368 1_455 S
C499 H523 0.949 . S
H500 C504 0.949 . S
C501 C502 1.349 . S
C501 C503 1.327 . S
C501 H524 0.950 . S
C502 C501 1.349 . S
C502 C514 1.349 . S
C503 C501 1.327 . S
C503 C519 1.429 . S
C503 H525 0.923 1_655 S
C504 H500 0.949 . S
C504 C512 1.574 . S
C504 C520 1.368 . S
H505 C513 0.950 . S
H506 C511 0.950 . S
H507 C512 0.949 . S
H508 C514 0.950 . S
H509 C515 0.950 . S
H510 C516 0.949 1_455 S
C511 H506 0.950 . S
C511 C513 1.327 . S
C511 C517 1.429 1_455 S
C512 C504 1.574 . S
C512 H507 0.949 . S
C512 C518 1.368 . S
C513 C497 1.349 . S
C513 H505 0.950 . S
C513 C511 1.327 . S
C514 C502 1.349 . S
C514 H508 0.950 . S
C514 C515 1.327 . S
C515 H509 0.950 . S
C515 C514 1.327 . S
C515 C519 1.429 . S
C516 C499 1.574 1_655 S
C516 H510 0.949 1_655 S
C516 C520 1.368 . S
C517 C498 1.429 . S
C517 C511 1.429 1_655 S
C517 C518 1.523 . S
C518 C499 1.368 1_655 S
C518 C512 1.368 . S
C518 C517 1.523 . S
C519 C503 1.429 . S
C519 C515 1.429 . S
C519 C520 1.523 . S
C520 C504 1.368 . S
C520 C516 1.368 . S
C520 C519 1.523 . S
H521 C496 0.950 . S
H522 C498 0.950 . S
H523 C499 0.949 . S
H524 C501 0.950 . S
H525 C503 0.923 1_455 S
C526 C527 1.349 1_565 S
C526 C528 1.327 . S
C526 H551 0.950 . S
C527 C526 1.349 1_545 S
C527 C543 1.349 . S
C528 C526 1.327 . S
C528 C547 1.429 . S
C528 H552 0.950 . S
C529 C546 1.574 1_545 S
C529 C548 1.368 1_545 S
C529 H553 0.949 . S
H530 C534 0.949 . S
C531 C532 1.349 . S
C531 C533 1.327 . S
C531 H554 0.950 . S
C532 C531 1.349 . S
C532 C544 1.349 . S
C533 C531 1.327 . S
C533 C549 1.429 . S
C533 H555 0.950 . S
C534 H530 0.949 . S
C534 C542 1.574 . S
C534 C550 1.368 . S
H535 C543 0.950 . S
H536 C541 0.950 . S
H537 C542 0.949 . S
H538 C544 0.950 . S
H539 C545 0.950 . S
H540 C546 0.949 1_545 S
C541 H536 0.950 . S
C541 C543 1.327 . S
C541 C547 1.429 1_545 S
C542 C534 1.574 . S
C542 H537 0.949 . S
C542 C548 1.368 . S
C543 C527 1.349 . S
C543 H535 0.950 . S
C543 C541 1.327 . S
C544 C532 1.349 . S
C544 H538 0.950 . S
C544 C545 1.327 . S
C545 H539 0.950 . S
C545 C544 1.327 . S
C545 C549 1.429 . S
C546 C529 1.574 1_565 S
C546 H540 0.949 1_565 S
C546 C550 1.368 . S
C547 C528 1.429 . S
C547 C541 1.429 1_565 S
C547 C548 1.523 . S
C548 C529 1.368 1_565 S
C548 C542 1.368 . S
C548 C547 1.523 . S
C549 C533 1.429 . S
C549 C545 1.429 . S
C549 C550 1.523 . S
C550 C534 1.368 . S
C550 C546 1.368 . S
C550 C549 1.523 . S
H551 C526 0.950 . S
H552 C528 0.950 . S
H553 C529 0.949 . S
H554 C531 0.950 . S
H555 C533 0.950 . S
C556 C557 1.349 . S
C556 C558 1.327 . S
C556 H581 0.950 . S
C557 C556 1.349 . S
C557 C573 1.349 . S
C558 C556 1.327 . S
C558 C577 1.429 . S
C558 H582 0.950 . S
C559 C576 1.574 . S
C559 C578 1.368 . S
C559 H583 0.949 . S
H560 C564 0.949 . S
C561 C562 1.349 . S
C561 C563 1.327 . S
C561 H584 0.950 . S
C562 C561 1.349 . S
C562 C574 1.349 . S
C563 C561 1.327 . S
C563 C579 1.429 . S
C563 H585 0.950 . S
C564 H560 0.949 . S
C564 C572 1.574 . S
C564 C580 1.368 . S
H565 C573 0.950 . S
H566 C571 0.950 . S
H567 C572 0.949 . S
H568 C574 0.950 . S
H569 C575 0.950 . S
H570 C576 0.949 . S
C571 H566 0.950 . S
C571 C573 1.327 . S
C571 C577 1.429 . S
C572 C564 1.574 . S
C572 H567 0.949 . S
C572 C578 1.368 . S
C573 C557 1.349 . S
C573 H565 0.950 . S
C573 C571 1.327 . S
C574 C562 1.349 . S
C574 H568 0.950 . S
C574 C575 1.327 . S
C575 H569 0.950 . S
C575 C574 1.327 . S
C575 C579 1.429 . S
C576 C559 1.574 . S
C576 H570 0.949 . S
C576 C580 1.368 . S
C577 C558 1.429 . S
C577 C571 1.429 . S
C577 C578 1.523 . S
C578 C559 1.368 . S
C578 C572 1.368 . S
C578 C577 1.523 . S
C579 C563 1.429 . S
C579 C575 1.429 . S
C579 C580 1.523 . S
C580 C564 1.368 . S
C580 C576 1.368 . S
C580 C579 1.523 . S
H581 C556 0.950 . S
H582 C558 0.950 . S
H583 C559 0.949 . S
H584 C561 0.950 . S
H585 C563 0.950 . S
C586 C587 1.349 . S
C586 C588 1.327 . S
C586 H611 0.950 . S
C587 C586 1.349 . S
C587 C603 1.349 . S
C588 C586 1.327 . S
C588 C607 1.429 . S
C588 H612 0.950 . S
C589 C606 1.574 . S
C589 C608 1.368 . S
C589 H613 0.949 . S
H590 C594 0.949 . S
C591 C592 1.349 . S
C591 C593 1.327 . S
C591 H614 0.950 . S
C592 C591 1.349 . S
C592 C604 1.349 . S
C593 C591 1.327 . S
C593 C609 1.429 . S
C593 H615 0.950 . S
C594 H590 0.949 . S
C594 C602 1.574 . S
C594 C610 1.368 . S
H595 C603 0.950 . S
H596 C601 0.950 . S
H597 C602 0.949 . S
H598 C604 0.950 . S
H599 C605 0.950 . S
H600 C606 0.949 . S
C601 H596 0.950 . S
C601 C603 1.327 . S
C601 C607 1.429 . S
C602 C594 1.574 . S
C602 H597 0.949 . S
C602 C608 1.368 . S
C603 C587 1.349 . S
C603 H595 0.950 . S
C603 C601 1.327 . S
C604 C592 1.349 . S
C604 H598 0.950 . S
C604 C605 1.327 . S
C605 H599 0.950 . S
C605 C604 1.327 . S
C605 C609 1.429 . S
C606 C589 1.574 . S
C606 H600 0.949 . S
C606 C610 1.368 . S
C607 C588 1.429 . S
C607 C601 1.429 . S
C607 C608 1.523 . S
C608 C589 1.368 . S
C608 C602 1.368 . S
C608 C607 1.523 . S
C609 C593 1.429 . S
C609 C605 1.429 . S
C609 C610 1.523 . S
C610 C594 1.368 . S
C610 C606 1.368 . S
C610 C609 1.523 . S
H611 C586 0.950 . S
H612 C588 0.950 . S
H613 C589 0.949 . S
H614 C591 0.950 . S
H615 C593 0.950 . S
C616 C617 1.349 . S
C616 C618 1.327 . S
C616 H641 0.950 . S
C617 C616 1.349 . S
C617 C633 1.349 1_655 S
C618 C616 1.327 . S
C618 C637 1.429 1_655 S
C618 H642 0.950 . S
C619 C636 1.574 . S
C619 C638 1.368 . S
C619 H643 0.949 . S
H620 C624 0.949 1_655 S
C621 C622 1.349 1_554 S
C621 C623 1.327 . S
C621 H644 0.950 . S
C622 C621 1.349 1_556 S
C622 C634 1.349 . S
C623 C621 1.327 . S
C623 C639 1.429 . S
C623 H645 0.950 . S
C624 H620 0.949 1_455 S
C624 C632 1.574 1_455 S
C624 C640 1.368 . S
H625 C633 0.950 . S
H626 C631 0.950 . S
H627 C632 0.949 . S
H628 C634 0.950 . S
H629 C635 0.961 . S
H630 C636 0.949 . S
C631 H626 0.950 . S
C631 C633 1.327 . S
C631 C637 1.429 . S
C632 C624 1.574 1_655 S
C632 H627 0.949 . S
C632 C638 1.368 1_655 S
C633 C617 1.349 1_455 S
C633 H625 0.950 . S
C633 C631 1.327 . S
C634 C622 1.349 . S
C634 H628 0.950 . S
C634 C635 1.327 . S
C635 H629 0.961 . S
C635 C634 1.327 . S
C635 C639 1.429 1_556 S
C636 C619 1.574 . S
C636 H630 0.949 . S
C636 C640 1.368 . S
C637 C618 1.429 1_455 S
C637 C631 1.429 . S
C637 C638 1.523 . S
C638 C619 1.368 . S
C638 C632 1.368 1_455 S
C638 C637 1.523 . S
C639 C623 1.429 . S
C639 C635 1.429 1_554 S
C639 C640 1.523 . S
C640 C624 1.368 . S
C640 C636 1.368 . S
C640 C639 1.523 . S
H641 C616 0.950 . S
H642 C618 0.950 . S
H643 C619 0.949 . S
H644 C621 0.950 . S
H645 C623 0.950 . S
C646 C647 1.349 1_545 S
C646 C648 1.327 . S
C646 H671 0.950 . S
C647 C646 1.349 1_565 S
C647 C663 1.349 . S
C648 C646 1.327 . S
C648 C667 1.429 . S
C648 H672 0.950 . S
C649 C666 1.580 . S
C649 C668 1.368 1_565 S
C649 H673 0.949 . S
H650 C654 0.949 . S
C651 C652 1.349 1_554 S
C651 C653 1.327 . S
C651 H674 0.950 . S
C652 C651 1.349 1_556 S
C652 C664 1.349 . S
C653 C651 1.327 . S
C653 C669 1.429 . S
C653 H675 0.950 1_545 S
C654 H650 0.949 . S
C654 C662 1.574 . S
C654 C670 1.368 . S
H655 C663 0.950 . S
H656 C661 0.950 . S
H657 C662 0.949 . S
H658 C664 0.950 . S
H659 C665 0.950 . S
H660 C666 0.971 . S
C661 H656 0.950 . S
C661 C663 1.327 . S
C661 C667 1.429 1_565 S
C662 C654 1.574 . S
C662 H657 0.949 . S
C662 C668 1.368 . S
C663 C647 1.349 . S
C663 H655 0.950 . S
C663 C661 1.327 . S
C664 C652 1.349 . S
C664 H658 0.950 . S
C664 C665 1.327 1_556 S
C665 H659 0.950 . S
C665 C664 1.327 1_554 S
C665 C669 1.429 . S
C666 C649 1.580 . S
C666 H660 0.971 . S
C666 C670 1.339 1_565 S
C667 C648 1.429 . S
C667 C661 1.429 1_545 S
C667 C668 1.523 . S
C668 C649 1.368 1_545 S
C668 C662 1.368 . S
C668 C667 1.523 . S
C669 C653 1.429 . S
C669 C665 1.429 . S
C669 C670 1.523 . S
C670 C654 1.368 . S
C670 C666 1.339 1_545 S
C670 C669 1.523 . S
H671 C646 0.950 . S
H672 C648 0.950 . S
H673 C649 0.949 . S
H674 C651 0.950 . S
H675 C653 0.950 1_565 S
C676 C677 1.349 . S
C676 C678 1.327 . S
C676 H701 0.950 . S
C677 C676 1.349 . S
C677 C693 1.349 . S
C678 C676 1.327 . S
C678 C697 1.429 . S
C678 H702 0.950 . S
C679 C696 1.574 . S
C679 C698 1.368 . S
C679 H703 0.949 . S
H680 C684 0.949 . S
C681 C682 1.349 . S
C681 C683 1.327 . S
C681 H704 0.950 . S
C682 C681 1.349 . S
C682 C694 1.349 1_556 S
C683 C681 1.327 . S
C683 C699 1.429 1_556 S
C683 H705 0.950 . S
C684 H680 0.949 . S
C684 C692 1.574 . S
C684 C700 1.368 . S
H685 C693 0.950 . S
H686 C691 0.950 . S
H687 C692 0.949 . S
H688 C694 0.950 . S
H689 C695 0.950 . S
H690 C696 0.949 . S
C691 H686 0.950 . S
C691 C693 1.327 . S
C691 C697 1.429 . S
C692 C684 1.574 . S
C692 H687 0.949 . S
C692 C698 1.368 . S
C693 C677 1.349 . S
C693 H685 0.950 . S
C693 C691 1.327 . S
C694 C682 1.349 1_554 S
C694 H688 0.950 . S
C694 C695 1.327 . S
C695 H689 0.950 . S
C695 C694 1.327 . S
C695 C699 1.429 . S
C696 C679 1.574 . S
C696 H690 0.949 . S
C696 C700 1.368 . S
C697 C678 1.429 . S
C697 C691 1.429 . S
C697 C698 1.523 . S
C698 C679 1.368 . S
C698 C692 1.368 . S
C698 C697 1.523 . S
C699 C683 1.429 1_554 S
C699 C695 1.429 . S
C699 C700 1.523 . S
C700 C684 1.368 . S
C700 C696 1.368 . S
C700 C699 1.523 . S
H701 C676 0.950 . S
H702 C678 0.950 . S
H703 C679 0.949 . S
H704 C681 0.950 . S
H705 C683 0.950 . S
C706 C707 1.349 . S
C706 C708 1.327 . S
C706 H731 0.950 . S
C707 C706 1.349 . S
C707 C723 1.349 . S
C708 C706 1.327 . S
C708 C727 1.429 . S
C708 H732 0.950 . S
C709 C726 1.574 . S
C709 C728 1.368 . S
C709 H733 0.949 . S
H710 C714 0.949 . S
C711 C712 1.349 1_554 S
C711 C713 1.327 . S
C711 H734 0.950 . S
C712 C711 1.349 1_556 S
C712 C724 1.349 . S
C713 C711 1.327 . S
C713 C729 1.429 . S
C713 H735 0.950 . S
C714 H710 0.949 . S
C714 C722 1.574 . S
C714 C730 1.368 . S
H715 C723 0.950 . S
H716 C721 0.950 . S
H717 C722 0.949 . S
H718 C724 0.950 . S
H719 C725 0.950 1_556 S
H720 C726 0.949 . S
C721 H716 0.950 . S
C721 C723 1.327 . S
C721 C727 1.429 . S
C722 C714 1.574 . S
C722 H717 0.949 . S
C722 C728 1.368 . S
C723 C707 1.349 . S
C723 H715 0.950 . S
C723 C721 1.327 . S
C724 C712 1.349 . S
C724 H718 0.950 . S
C724 C725 1.327 1_556 S
C725 H719 0.950 1_554 S
C725 C724 1.327 1_554 S
C725 C729 1.429 . S
C726 C709 1.574 . S
C726 H720 0.949 . S
C726 C730 1.368 . S
C727 C708 1.429 . S
C727 C721 1.429 . S
C727 C728 1.523 . S
C728 C709 1.368 . S
C728 C722 1.368 . S
C728 C727 1.523 . S
C729 C713 1.429 . S
C729 C725 1.429 . S
C729 C730 1.523 . S
C730 C714 1.368 . S
C730 C726 1.368 . S
C730 C729 1.523 . S
H731 C706 0.950 . S
H732 C708 0.950 . S
H733 C709 0.949 . S
H734 C711 0.950 . S
H735 C713 0.950 . S
C736 C737 1.349 1_655 S
C736 C738 1.329 . S
C736 H761 0.950 1_556 S
C737 C736 1.349 1_455 S
C737 C753 1.349 . S
C738 C736 1.329 . S
C738 C757 1.423 1_655 S
C738 H762 0.955 . S
C739 C756 1.574 . S
C739 C758 1.368 . S
C739 H763 0.949 . S
H740 C744 0.952 . S
C741 C742 1.349 . S
C741 C743 1.327 . S
C741 H764 0.950 . S
C742 C741 1.349 . S
C742 C754 1.349 . S
C743 C741 1.327 . S
C743 C759 1.429 . S
C743 H765 0.950 . S
C744 H740 0.952 . S
C744 C752 1.574 . S
C744 C760 1.368 . S
H745 C753 0.950 . S
H746 C751 0.950 . S
H747 C752 0.949 1_655 S
H748 C754 0.950 . S
H749 C755 0.950 . S
H750 C756 0.949 . S
C751 H746 0.950 . S
C751 C753 1.327 . S
C751 C757 1.429 . S
C752 C744 1.574 . S
C752 H747 0.949 1_455 S
C752 C758 1.368 . S
C753 C737 1.349 . S
C753 H745 0.950 . S
C753 C751 1.327 . S
C754 C742 1.349 . S
C754 H748 0.950 . S
C754 C755 1.327 . S
C755 H749 0.950 . S
C755 C754 1.327 . S
C755 C759 1.429 . S
C756 C739 1.574 . S
C756 H750 0.949 . S
C756 C760 1.368 . S
C757 C738 1.423 1_455 S
C757 C751 1.429 . S
C757 C758 1.523 . S
C758 C739 1.368 . S
C758 C752 1.368 . S
C758 C757 1.523 . S
C759 C743 1.429 . S
C759 C755 1.429 . S
C759 C760 1.523 . S
C760 C744 1.368 . S
C760 C756 1.368 . S
C760 C759 1.523 . S
H761 C736 0.950 1_554 S
H762 C738 0.955 . S
H763 C739 0.949 . S
H764 C741 0.950 . S
H765 C743 0.950 . S
C766 C767 1.349 . S
C766 C768 1.327 . S
C766 H791 0.950 . S
C767 C766 1.349 . S
C767 C783 1.349 1_545 S
C768 C766 1.327 . S
C768 C787 1.429 . S
C768 H792 0.950 . S
C769 C786 1.574 . S
C769 C788 1.368 1_565 S
C769 H793 0.949 . S
H770 C774 0.949 . S
C771 C772 1.329 1_565 S
C771 C773 1.330 . S
C771 H794 0.969 . S
C772 C771 1.329 1_545 S
C772 C784 1.349 . S
C773 C771 1.330 . S
C773 C789 1.429 1_565 S
C773 H795 0.950 . S
C774 H770 0.949 . S
C774 C782 1.574 . S
C774 C790 1.368 . S
H775 C783 0.950 . S
H776 C781 0.950 . S
H777 C782 0.949 . S
H778 C784 0.950 . S
H779 C785 0.950 . S
H780 C786 0.949 . S
C781 H776 0.950 . S
C781 C783 1.327 . S
C781 C787 1.429 1_565 S
C782 C774 1.574 . S
C782 H777 0.949 . S
C782 C788 1.368 . S
C783 C767 1.349 1_565 S
C783 H775 0.950 . S
C783 C781 1.327 . S
C784 C772 1.349 . S
C784 H778 0.950 . S
C784 C785 1.327 . S
C785 H779 0.950 . S
C785 C784 1.327 . S
C785 C789 1.429 . S
C786 C769 1.574 . S
C786 H780 0.949 . S
C786 C790 1.368 1_565 S
C787 C768 1.429 . S
C787 C781 1.429 1_545 S
C787 C788 1.523 . S
C788 C769 1.368 1_545 S
C788 C782 1.368 . S
C788 C787 1.523 . S
C789 C773 1.429 1_545 S
C789 C785 1.429 . S
C789 C790 1.523 . S
C790 C774 1.368 . S
C790 C786 1.368 1_545 S
C790 C789 1.523 . S
H791 C766 0.950 . S
H792 C768 0.950 . S
H793 C769 0.949 . S
H794 C771 0.969 . S
H795 C773 0.950 . S
C796 C797 1.349 . S
C796 C798 1.327 . S
C796 H821 0.950 . S
C797 C796 1.349 . S
C797 C813 1.349 . S
C798 C796 1.327 . S
C798 C817 1.429 . S
C798 H822 0.950 . S
C799 C816 1.574 . S
C799 C818 1.368 . S
C799 H823 0.949 . S
H800 C804 0.949 . S
C801 C802 1.349 . S
C801 C803 1.327 . S
C801 H824 0.950 . S
C802 C801 1.349 . S
C802 C814 1.349 . S
C803 C801 1.327 . S
C803 C819 1.429 . S
C803 H825 0.950 . S
C804 H800 0.949 . S
C804 C812 1.574 . S
C804 C820 1.368 . S
H805 C813 0.950 . S
H806 C811 0.950 . S
H807 C812 0.949 . S
H808 C814 0.950 . S
H809 C815 0.950 . S
H810 C816 0.949 . S
C811 H806 0.950 . S
C811 C813 1.327 . S
C811 C817 1.429 . S
C812 C804 1.574 . S
C812 H807 0.949 . S
C812 C818 1.368 . S
C813 C797 1.349 . S
C813 H805 0.950 . S
C813 C811 1.327 . S
C814 C802 1.349 . S
C814 H808 0.950 . S
C814 C815 1.327 . S
C815 H809 0.950 . S
C815 C814 1.327 . S
C815 C819 1.429 . S
C816 C799 1.574 . S
C816 H810 0.949 . S
C816 C820 1.368 . S
C817 C798 1.429 . S
C817 C811 1.429 . S
C817 C818 1.523 . S
C818 C799 1.368 . S
C818 C812 1.368 . S
C818 C817 1.523 . S
C819 C803 1.429 . S
C819 C815 1.429 . S
C819 C820 1.523 . S
C820 C804 1.368 . S
C820 C816 1.368 . S
C820 C819 1.523 . S
H821 C796 0.950 . S
H822 C798 0.950 . S
H823 C799 0.949 . S
H824 C801 0.950 . S
H825 C803 0.950 . S
C826 C827 1.349 . S
C826 C828 1.327 . S
C826 H851 0.950 . S
C827 C826 1.349 . S
C827 C843 1.349 . S
C828 C826 1.327 . S
C828 C847 1.429 . S
C828 H852 0.950 . S
C829 C846 1.574 . S
C829 C848 1.368 . S
C829 H853 0.949 . S
H830 C834 0.949 . S
C831 C832 1.349 . S
C831 C833 1.327 . S
C831 H854 0.950 . S
C832 C831 1.349 . S
C832 C844 1.349 . S
C833 C831 1.327 . S
C833 C849 1.429 . S
C833 H855 0.950 . S
C834 H830 0.949 . S
C834 C842 1.574 . S
C834 C850 1.368 . S
H835 C843 0.950 . S
H836 C841 0.950 . S
H837 C842 0.949 . S
H838 C844 0.950 . S
H839 C845 0.950 . S
H840 C846 0.949 . S
C841 H836 0.950 . S
C841 C843 1.327 . S
C841 C847 1.429 . S
C842 C834 1.574 . S
C842 H837 0.949 . S
C842 C848 1.368 . S
C843 C827 1.349 . S
C843 H835 0.950 . S
C843 C841 1.327 . S
C844 C832 1.349 . S
C844 H838 0.950 . S
C844 C845 1.327 . S
C845 H839 0.950 . S
C845 C844 1.327 . S
C845 C849 1.429 . S
C846 C829 1.574 . S
C846 H840 0.949 . S
C846 C850 1.368 . S
C847 C828 1.429 . S
C847 C841 1.429 . S
C847 C848 1.523 . S
C848 C829 1.368 . S
C848 C842 1.368 . S
C848 C847 1.523 . S
C849 C833 1.429 . S
C849 C845 1.429 . S
C849 C850 1.523 . S
C850 C834 1.368 . S
C850 C846 1.368 . S
C850 C849 1.523 . S
H851 C826 0.950 . S
H852 C828 0.950 . S
H853 C829 0.949 . S
H854 C831 0.950 . S
H855 C833 0.950 . S
C856 C857 1.349 . S
C856 C858 1.327 . S
C856 H881 0.950 . S
C857 C856 1.349 . S
C857 C873 1.349 1_655 S
C858 C856 1.327 . S
C858 C877 1.429 . S
C858 H882 0.950 . S
C859 C876 1.574 . S
C859 C878 1.368 1_455 S
C859 H883 0.949 . S
H860 C864 0.949 . S
C861 C862 1.335 1_455 S
C861 C863 1.329 . S
C861 H884 0.963 . S
C862 C861 1.335 1_655 S
C862 C874 1.349 . S
C863 C861 1.329 . S
C863 C879 1.429 1_455 S
C863 H885 0.950 . S
C864 H860 0.949 . S
C864 C872 1.574 . S
C864 C880 1.368 . S
H865 C873 0.950 . S
H866 C871 0.950 . S
H867 C872 0.949 . S
H868 C874 0.950 . S
H869 C875 0.950 . S
H870 C876 0.949 . S
C871 H866 0.950 . S
C871 C873 1.327 . S
C871 C877 1.429 1_455 S
C872 C864 1.574 . S
C872 H867 0.949 . S
C872 C878 1.368 . S
C873 C857 1.349 1_455 S
C873 H865 0.950 . S
C873 C871 1.327 . S
C874 C862 1.349 . S
C874 H868 0.950 . S
C874 C875 1.327 . S
C875 H869 0.950 . S
C875 C874 1.327 . S
C875 C879 1.429 . S
C876 C859 1.574 . S
C876 H870 0.949 . S
C876 C880 1.368 1_455 S
C877 C858 1.429 . S
C877 C871 1.429 1_655 S
C877 C878 1.523 . S
C878 C859 1.368 1_655 S
C878 C872 1.368 . S
C878 C877 1.523 . S
C879 C863 1.429 1_655 S
C879 C875 1.429 . S
C879 C880 1.523 . S
C880 C864 1.368 . S
C880 C876 1.368 1_655 S
C880 C879 1.523 . S
H881 C856 0.950 . S
H882 C858 0.950 . S
H883 C859 0.949 . S
H884 C861 0.963 . S
H885 C863 0.950 . S
C886 C887 1.349 1_545 S
C886 C888 1.327 . S
C886 H911 0.950 . S
C887 C886 1.349 1_565 S
C887 C903 1.349 . S
C888 C886 1.327 . S
C888 C907 1.429 1_545 S
C888 H912 0.950 . S
C889 C906 1.574 . S
C889 C908 1.368 . S
C889 H913 0.949 . S
H890 C894 0.949 . S
C891 C892 1.349 . S
C891 C893 1.327 . S
C891 H914 0.950 . S
C892 C891 1.349 . S
C892 C904 1.373 . S
C893 C891 1.327 . S
C893 C909 1.429 . S
C893 H915 0.950 . S
C894 H890 0.949 . S
C894 C902 1.574 . S
C894 C910 1.368 1_545 S
H895 C903 0.950 . S
H896 C901 0.950 . S
H897 C902 0.949 . S
H898 C904 0.932 1_545 S
H899 C905 0.949 . S
H900 C906 0.949 . S
C901 H896 0.950 . S
C901 C903 1.327 . S
C901 C907 1.429 . S
C902 C894 1.574 . S
C902 H897 0.949 . S
C902 C908 1.368 1_545 S
C903 C887 1.349 . S
C903 H895 0.950 . S
C903 C901 1.327 . S
C904 C892 1.373 . S
C904 H898 0.932 1_565 S
C904 C905 1.325 1_565 S
C905 H899 0.949 . S
C905 C904 1.325 1_545 S
C905 C909 1.429 1_545 S
C906 C889 1.574 . S
C906 H900 0.949 . S
C906 C910 1.368 . S
C907 C888 1.429 1_565 S
C907 C901 1.429 . S
C907 C908 1.523 . S
C908 C889 1.368 . S
C908 C902 1.368 1_565 S
C908 C907 1.523 . S
C909 C893 1.429 . S
C909 C905 1.429 1_565 S
C909 C910 1.523 . S
C910 C894 1.368 1_565 S
C910 C906 1.368 . S
C910 C909 1.523 . S
H911 C886 0.950 . S
H912 C888 0.950 . S
H913 C889 0.949 . S
H914 C891 0.950 . S
H915 C893 0.950 . S
C916 C917 1.349 . S
C916 C918 1.327 . S
C916 H941 0.950 . S
C917 C916 1.349 . S
C917 C933 1.349 . S
C918 C916 1.327 . S
C918 C937 1.429 . S
C918 H942 0.950 . S
C919 C936 1.574 . S
C919 C938 1.368 . S
C919 H943 0.949 . S
H920 C924 0.949 . S
C921 C922 1.349 . S
C921 C923 1.327 . S
C921 H944 0.950 . S
C922 C921 1.349 . S
C922 C934 1.349 . S
C923 C921 1.327 . S
C923 C939 1.429 . S
C923 H945 0.950 . S
C924 H920 0.949 . S
C924 C932 1.574 . S
C924 C940 1.368 . S
H925 C933 0.950 . S
H926 C931 0.950 . S
H927 C932 0.949 . S
H928 C934 0.950 . S
H929 C935 0.950 . S
H930 C936 0.949 . S
C931 H926 0.950 . S
C931 C933 1.327 . S
C931 C937 1.429 . S
C932 C924 1.574 . S
C932 H927 0.949 . S
C932 C938 1.368 . S
C933 C917 1.349 . S
C933 H925 0.950 . S
C933 C931 1.327 . S
C934 C922 1.349 . S
C934 H928 0.950 . S
C934 C935 1.327 . S
C935 H929 0.950 . S
C935 C934 1.327 . S
C935 C939 1.429 . S
C936 C919 1.574 . S
C936 H930 0.949 . S
C936 C940 1.368 . S
C937 C918 1.429 . S
C937 C931 1.429 . S
C937 C938 1.523 . S
C938 C919 1.368 . S
C938 C932 1.368 . S
C938 C937 1.523 . S
C939 C923 1.429 . S
C939 C935 1.429 . S
C939 C940 1.523 . S
C940 C924 1.368 . S
C940 C936 1.368 . S
C940 C939 1.523 . S
H941 C916 0.950 . S
H942 C918 0.950 . S
H943 C919 0.949 . S
H944 C921 0.950 . S
H945 C923 0.950 . S
C946 C947 1.349 . S
C946 C948 1.327 . S
C946 H971 0.950 . S
C947 C946 1.349 . S
C947 C963 1.349 . S
C948 C946 1.327 . S
C948 C967 1.429 . S
C948 H972 0.950 . S
C949 C966 1.574 . S
C949 C968 1.368 . S
C949 H973 0.949 . S
H950 C954 0.949 . S
C951 C952 1.349 . S
C951 C953 1.327 . S
C951 H974 0.950 . S
C952 C951 1.349 . S
C952 C964 1.349 . S
C953 C951 1.327 . S
C953 C969 1.429 . S
C953 H975 0.950 . S
C954 H950 0.949 . S
C954 C962 1.574 . S
C954 C970 1.368 . S
H955 C963 0.950 . S
H956 C961 0.950 . S
H957 C962 0.949 . S
H958 C964 0.950 . S
H959 C965 0.950 . S
H960 C966 0.949 . S
C961 H956 0.950 . S
C961 C963 1.327 . S
C961 C967 1.429 . S
C962 C954 1.574 . S
C962 H957 0.949 . S
C962 C968 1.368 . S
C963 C947 1.349 . S
C963 H955 0.950 . S
C963 C961 1.327 . S
C964 C952 1.349 . S
C964 H958 0.950 . S
C964 C965 1.327 . S
C965 H959 0.950 . S
C965 C964 1.327 . S
C965 C969 1.429 . S
C966 C949 1.574 . S
C966 H960 0.949 . S
C966 C970 1.368 . S
C967 C948 1.429 . S
C967 C961 1.429 . S
C967 C968 1.523 . S
C968 C949 1.368 . S
C968 C962 1.368 . S
C968 C967 1.523 . S
C969 C953 1.429 . S
C969 C965 1.429 . S
C969 C970 1.523 . S
C970 C954 1.368 . S
C970 C966 1.368 . S
C970 C969 1.523 . S
H971 C946 0.950 . S
H972 C948 0.950 . S
H973 C949 0.949 . S
H974 C951 0.950 . S
H975 C953 0.950 . S
C257 C76 1.728 . S
C262 C105 1.820 1_545 S
C292 C145 1.827 . S
C287 C88 1.729 . S
C322 C185 1.827 . S
C317 C52 1.729 . S
C352 C225 1.824 1_455 S
C347 C64 1.729 1_455 S
C382 C114 1.824 1_565 S
C377 C28 1.735 . S
C407 C40 1.729 . S
C412 C154 1.827 . S
C437 C4 1.729 . S
C442 C194 1.827 . S
C467 C16 1.728 . S
C472 C234 1.828 1_655 S
C502 C111 0.317 . S
C497 C69 0.384 . S
C532 C151 0.317 . S
C527 C81 0.372 . S
C562 C191 0.317 . S
C557 C93 0.372 . S
C587 C57 0.372 . S
C592 C231 0.313 . S
C617 C21 0.387 1_655 S
C622 C102 0.313 . S
C652 C142 0.317 . S
C647 C33 0.382 1_565 S
C682 C182 0.317 . S
C677 C45 0.387 . S
C707 C9 0.386 . S
C712 C222 0.322 . S
C737 C66 1.881 . S
C742 C115 2.069 . S
C767 C78 1.881 . S
C772 C155 2.069 . S
C802 C195 2.069 . S
C797 C90 1.881 . S
C832 C235 2.069 . S
C827 C54 1.875 . S
C857 C18 1.883 1_655 S
C862 C106 2.069 . S
C892 C146 2.069 . S
C887 C30 1.883 1_565 S
C922 C186 2.069 . S
C917 C42 1.885 . S
C947 C6 1.885 . S
C952 C226 2.076 . S
