# Generated by pormake.
# Topology wbl, (4,4)-cn, num edge types: 1
# Building blocks:
#     Node 0, Type 0, BuildingBlock: MIFKUJ_clean_linker_1, # of connection points: 4
#     Node 1, Type 0, BuildingBlock: MIFKUJ_clean_linker_1, # of connection points: 4
#     Node 2, Type 0, BuildingBlock: MIFKUJ_clean_linker_1, # of connection points: 4
#     Node 3, Type 0, BuildingBlock: MIFKUJ_clean_linker_1, # of connection points: 4
#     Node 4, Type 0, BuildingBlock: MIFKUJ_clean_linker_1, # of connection points: 4
#     Node 5, Type 0, BuildingBlock: MIFKUJ_clean_linker_1, # of connection points: 4
#     Node 6, Type 0, BuildingBlock: MIFKUJ_clean_linker_1, # of connection points: 4
#     Node 7, Type 0, BuildingBlock: MIFKUJ_clean_linker_1, # of connection points: 4
#     Node 8, Type 1, BuildingBlock: TATPOV_clean_sbu_0, # of connection points: 4
#     Node 9, Type 1, BuildingBlock: TATPOV_clean_sbu_0, # of connection points: 4
#     Node 10, Type 1, BuildingBlock: TATPOV_clean_sbu_0, # of connection points: 4
#     Node 11, Type 1, BuildingBlock: TATPOV_clean_sbu_0, # of connection points: 4
#     Node 12, Type 1, BuildingBlock: TATPOV_clean_sbu_0, # of connection points: 4
#     Node 13, Type 1, BuildingBlock: TATPOV_clean_sbu_0, # of connection points: 4
#     Node 14, Type 1, BuildingBlock: TATPOV_clean_sbu_0, # of connection points: 4
#     Node 15, Type 1, BuildingBlock: TATPOV_clean_sbu_0, # of connection points: 4
#     Edge 16, Type (0, 1), BuildingBlock: MIFKUJ_clean_linker_0, # of connection points: 2
#     Edge 17, Type (0, 1), BuildingBlock: MIFKUJ_clean_linker_0, # of connection points: 2
#     Edge 18, Type (0, 1), BuildingBlock: MIFKUJ_clean_linker_0, # of connection points: 2
#     Edge 19, Type (0, 1), BuildingBlock: MIFKUJ_clean_linker_0, # of connection points: 2
#     Edge 20, Type (0, 1), BuildingBlock: MIFKUJ_clean_linker_0, # of connection points: 2
#     Edge 21, Type (0, 1), BuildingBlock: MIFKUJ_clean_linker_0, # of connection points: 2
#     Edge 22, Type (0, 1), BuildingBlock: MIFKUJ_clean_linker_0, # of connection points: 2
#     Edge 23, Type (0, 1), BuildingBlock: MIFKUJ_clean_linker_0, # of connection points: 2
#     Edge 24, Type (0, 1), BuildingBlock: MIFKUJ_clean_linker_0, # of connection points: 2
#     Edge 25, Type (0, 1), BuildingBlock: MIFKUJ_clean_linker_0, # of connection points: 2
#     Edge 26, Type (0, 1), BuildingBlock: MIFKUJ_clean_linker_0, # of connection points: 2
#     Edge 27, Type (0, 1), BuildingBlock: MIFKUJ_clean_linker_0, # of connection points: 2
#     Edge 28, Type (0, 1), BuildingBlock: MIFKUJ_clean_linker_0, # of connection points: 2
#     Edge 29, Type (0, 1), BuildingBlock: MIFKUJ_clean_linker_0, # of connection points: 2
#     Edge 30, Type (0, 1), BuildingBlock: MIFKUJ_clean_linker_0, # of connection points: 2
#     Edge 31, Type (0, 1), BuildingBlock: MIFKUJ_clean_linker_0, # of connection points: 2
#     Edge 32, Type (0, 1), BuildingBlock: MIFKUJ_clean_linker_0, # of connection points: 2
#     Edge 33, Type (0, 1), BuildingBlock: MIFKUJ_clean_linker_0, # of connection points: 2
#     Edge 34, Type (0, 1), BuildingBlock: MIFKUJ_clean_linker_0, # of connection points: 2
#     Edge 35, Type (0, 1), BuildingBlock: MIFKUJ_clean_linker_0, # of connection points: 2
#     Edge 36, Type (0, 1), BuildingBlock: MIFKUJ_clean_linker_0, # of connection points: 2
#     Edge 37, Type (0, 1), BuildingBlock: MIFKUJ_clean_linker_0, # of connection points: 2
#     Edge 38, Type (0, 1), BuildingBlock: MIFKUJ_clean_linker_0, # of connection points: 2
#     Edge 39, Type (0, 1), BuildingBlock: MIFKUJ_clean_linker_0, # of connection points: 2
#     Edge 40, Type (0, 1), BuildingBlock: MIFKUJ_clean_linker_0, # of connection points: 2
#     Edge 41, Type (0, 1), BuildingBlock: MIFKUJ_clean_linker_0, # of connection points: 2
#     Edge 42, Type (0, 1), BuildingBlock: MIFKUJ_clean_linker_0, # of connection points: 2
#     Edge 43, Type (0, 1), BuildingBlock: MIFKUJ_clean_linker_0, # of connection points: 2
#     Edge 44, Type (0, 1), BuildingBlock: MIFKUJ_clean_linker_0, # of connection points: 2
#     Edge 45, Type (0, 1), BuildingBlock: MIFKUJ_clean_linker_0, # of connection points: 2
#     Edge 46, Type (0, 1), BuildingBlock: MIFKUJ_clean_linker_0, # of connection points: 2
#     Edge 47, Type (0, 1), BuildingBlock: MIFKUJ_clean_linker_0, # of connection points: 2
# Relax obj value: 0.161
# Max RMSD: 0.152
# Mean RMSD: 0.128
data_MOF--net-wbl--node1-TATPOV_clean_sbu_0--node2-MIFKUJ_clean_linker_1--edge1-MIFKUJ_clean_linker_0
_symmetry_space_group_name_H-M    P1
_symmetry_Int_Tables_number       1
_symmetry_cell_setting            triclinic
loop_
_symmetry_equiv_pos_as_xyz
'x, y, z'
_cell_length_a     57.19519
_cell_length_b     57.147114
_cell_length_c     91.469233
_cell_angle_alpha  91.459597
_cell_angle_beta   91.381359
_cell_angle_gamma 90.013895
loop_
_atom_site_label
_atom_site_type_symbol
_atom_site_fract_x
_atom_site_fract_y
_atom_site_fract_z
_atom_type_partial_charge
H0 H 0.05115 0.06792 0.37897 0.0
H1 H 0.02957 0.09375 0.39549 0.0
H2 H 0.96441 0.06553 0.37776 0.0
H3 H 0.98615 0.03897 0.36178 0.0
H4 H 0.05329 0.02176 0.37775 0.0
H5 H 0.02966 0.08107 0.34378 0.0
H6 H 0.00139 0.10659 0.33159 0.0
H7 H 0.96303 0.04571 0.31535 0.0
H8 H 0.99159 0.02037 0.32735 0.0
H9 H 0.04203 0.96657 0.3248 0.0
H10 H 0.06472 0.9399 0.30918 0.0
H11 H 0.12817 0.97598 0.32295 0.0
H12 H 0.10547 0.00246 0.33858 0.0
H13 H 0.03864 0.01558 0.32411 0.0
H14 H 0.06332 0.9563 0.35673 0.0
H15 H 0.08882 0.93034 0.37072 0.0
H16 H 0.12419 0.99048 0.39044 0.0
H17 H 0.09881 0.0164 0.3763 0.0
C18 C 0.0203 0.05164 0.36903 0.0
C19 C 0.03221 0.06729 0.37866 0.0
C20 C 0.01983 0.08221 0.388 0.0
C21 C 0.99523 0.08179 0.38794 0.0
C22 C 0.98333 0.06617 0.37822 0.0
C23 C 0.99574 0.05115 0.36893 0.0
C24 C 0.03361 0.0353 0.35948 0.0
C25 C 0.05039 0.02071 0.36599 0.0
C26 C 0.02932 0.03337 0.34419 0.0
C27 C 0.01256 0.04886 0.33656 0.0
C28 C 0.01513 0.07327 0.33759 0.0
C29 C -0.00106 0.08781 0.33065 0.0
C30 C 0.97993 0.07818 0.32252 0.0
C31 C 0.97766 0.05369 0.32134 0.0
C32 C 0.99389 0.03918 0.32824 0.0
C33 C 0.07213 0.98634 0.33289 0.0
C34 C 0.06082 0.96872 0.32441 0.0
C35 C 0.07376 0.9535 0.31555 0.0
C36 C 0.09814 0.95598 0.31484 0.0
C37 C 0.10936 0.97386 0.32319 0.0
C38 C 0.09647 0.98886 0.33218 0.0
C39 C 0.0585 0.00231 0.34239 0.0
C40 C 0.04166 0.01677 0.33587 0.0
C41 C 0.06281 0.00414 0.35766 0.0
C42 C 0.07927 0.98832 0.36537 0.0
C43 C 0.07688 0.96391 0.36382 0.0
C44 C 0.09144 0.94908 0.37184 0.0
C45 C 0.10845 0.9584 0.38169 0.0
C46 C 0.11105 0.98282 0.38305 0.0
C47 C 0.09661 0.99763 0.37496 0.0
H48 H 0.0008 0.50012 0.56147 0.0
H49 H 0.97812 0.47582 0.54413 0.0
H50 H 0.91429 0.50037 0.5638 0.0
H51 H 0.93703 0.52628 0.58015 0.0
H52 H 0.00623 0.54301 0.5662 0.0
H53 H 0.9777 0.48182 0.59619 0.0
H54 H 0.9504 0.45632 0.60848 0.0
H55 H 0.91746 0.51712 0.62806 0.0
H56 H 0.94441 0.54248 0.61547 0.0
H57 H -0.00071 0.5903 0.62255 0.0
H58 H 0.02409 0.61189 0.64043 0.0
H59 H 0.08468 0.57486 0.62459 0.0
H60 H 0.05982 0.55328 0.60683 0.0
H61 H 0.99127 0.54376 0.61939 0.0
H62 H 0.02374 0.60412 0.58945 0.0
H63 H 0.05636 0.62658 0.58009 0.0
H64 H 0.08571 0.56295 0.56179 0.0
H65 H 0.05329 0.54054 0.57142 0.0
C66 C 0.97069 0.51473 0.57236 0.0
C67 C 0.98189 0.50056 0.56189 0.0
C68 C 0.96886 0.48642 0.55206 0.0
C69 C 0.9443 0.48579 0.55262 0.0
C70 C 0.93311 0.50049 0.56287 0.0
C71 C 0.94616 0.51504 0.57248 0.0
C72 C 0.98479 0.52918 0.58305 0.0
C73 C 0.00302 0.54293 0.57784 0.0
C74 C 0.98049 0.52952 0.59825 0.0
C75 C 0.96298 0.51406 0.60484 0.0
C76 C 0.96434 0.48965 0.60293 0.0
C77 C 0.94886 0.4751 0.61006 0.0
C78 C 0.93178 0.48469 0.61927 0.0
C79 C 0.93019 0.50917 0.62091 0.0
C80 C 0.9457 0.52369 0.61381 0.0
C81 C 0.02774 0.57042 0.61323 0.0
C82 C 0.01791 0.58684 0.62295 0.0
C83 C 0.03208 0.59911 0.63317 0.0
C84 C 0.05634 0.59513 0.63386 0.0
C85 C 0.06611 0.57859 0.62415 0.0
C86 C 0.05193 0.56625 0.614 0.0
C87 C 0.01264 0.55726 0.60251 0.0
C88 C 0.99423 0.54387 0.60772 0.0
C89 C 0.01705 0.55683 0.58736 0.0
C90 C 0.0362 0.57066 0.5812 0.0
C91 C 0.03723 0.59503 0.58344 0.0
C92 C 0.05579 0.60784 0.57802 0.0
C93 C 0.07363 0.59649 0.57026 0.0
C94 C 0.07239 0.57212 0.5679 0.0
C95 C 0.05378 0.55934 0.57326 0.0
H96 H 0.50797 0.52425 0.86699 0.0
H97 H 0.48533 0.55143 0.88216 0.0
H98 H 0.42126 0.52289 0.86317 0.0
H99 H 0.4439 0.49532 0.8483 0.0
H100 H 0.51083 0.47846 0.8655 0.0
H101 H 0.49177 0.53759 0.83147 0.0
H102 H 0.46306 0.56534 0.82206 0.0
H103 H 0.42033 0.50779 0.80536 0.0
H104 H 0.44908 0.48001 0.81511 0.0
H105 H 0.50377 0.4253 0.81092 0.0
H106 H 0.52812 0.40171 0.79448 0.0
H107 H 0.58965 0.43781 0.81164 0.0
H108 H 0.56526 0.46151 0.82781 0.0
H109 H 0.49853 0.47331 0.81162 0.0
H110 H 0.52456 0.41404 0.8465 0.0
H111 H 0.55013 0.39121 0.86265 0.0
H112 H 0.58396 0.45505 0.87822 0.0
H113 H 0.55816 0.47765 0.86233 0.0
C114 C 0.47765 0.50791 0.85639 0.0
C115 C 0.48904 0.52373 0.86616 0.0
C116 C 0.47612 0.53926 0.87479 0.0
C117 C 0.45157 0.53933 0.87374 0.0
C118 C 0.44017 0.52344 0.86401 0.0
C119 C 0.45309 0.5077 0.85552 0.0
C120 C 0.49149 0.49173 0.84705 0.0
C121 C 0.50832 0.47748 0.8537 0.0
C122 C 0.48811 0.49033 0.83169 0.0
C123 C 0.47237 0.50681 0.8241 0.0
C124 C 0.47636 0.53097 0.8256 0.0
C125 C 0.46 0.54679 0.82016 0.0
C126 C 0.43938 0.53872 0.81305 0.0
C127 C 0.43593 0.51448 0.81096 0.0
C128 C 0.4524 0.49862 0.81638 0.0
C129 C 0.53276 0.44494 0.82069 0.0
C130 C 0.52252 0.42804 0.81114 0.0
C131 C 0.53642 0.41457 0.8018 0.0
C132 C 0.56075 0.41802 0.80174 0.0
C133 C 0.57092 0.43497 0.81132 0.0
C134 C 0.55705 0.44832 0.82069 0.0
C135 C 0.518 0.45994 0.83011 0.0
C136 C 0.50097 0.47409 0.82343 0.0
C137 C 0.52179 0.46177 0.84543 0.0
C138 C 0.53939 0.44752 0.85332 0.0
C139 C 0.53781 0.42301 0.8532 0.0
C140 C 0.55243 0.41 0.86242 0.0
C141 C 0.5688 0.42138 0.87188 0.0
C142 C 0.57117 0.44582 0.87131 0.0
C143 C 0.55654 0.45875 0.86218 0.0
H144 H 0.51987 0.94463 0.07181 0.0
H145 H 0.49229 0.91603 0.06089 0.0
H146 H 0.4363 0.94787 0.08518 0.0
H147 H 0.46368 0.97701 0.09566 0.0
H148 H 0.52285 0.9906 0.07064 0.0
H149 H 0.51258 0.93586 0.11045 0.0
H150 H 0.48823 0.91361 0.12691 0.0
H151 H 0.45734 0.97809 0.14278 0.0
H152 H 0.48167 0.0002 0.12632 0.0
H153 H 0.53465 0.04735 0.12398 0.0
H154 H 0.56304 0.0736 0.13608 0.0
H155 H 0.61799 0.04266 0.11032 0.0
H156 H 0.58969 0.01548 0.09892 0.0
H157 H 0.53056 0.00212 0.1245 0.0
H158 H 0.53935 0.05717 0.08668 0.0
H159 H 0.56282 0.08192 0.07135 0.0
H160 H 0.59392 0.02025 0.05159 0.0
H161 H 0.57013 0.99552 0.06693 0.0
C162 C 0.49393 0.9627 0.08475 0.0
C163 C 0.50162 0.94559 0.07469 0.0
C164 C 0.4859 0.92928 0.06847 0.0
C165 C 0.46229 0.92972 0.07231 0.0
C166 C 0.45452 0.94701 0.08222 0.0
C167 C 0.47016 0.96356 0.08825 0.0
C168 C 0.51083 0.97963 0.09155 0.0
C169 C 0.52477 0.99287 0.08242 0.0
C170 C 0.51285 0.98317 0.1069 0.0
C171 C 0.49881 0.96964 0.11714 0.0
C172 C 0.50058 0.94516 0.1175 0.0
C173 C 0.48676 0.93251 0.12693 0.0
C174 C 0.47084 0.94415 0.13605 0.0
C175 C 0.46927 0.96867 0.13574 0.0
C176 C 0.48326 0.98131 0.12644 0.0
C177 C 0.55997 0.02955 0.11046 0.0
C178 C 0.55283 0.04619 0.12097 0.0
C179 C 0.56906 0.06141 0.12774 0.0
C180 C 0.59282 0.06039 0.12411 0.0
C181 C 0.5999 0.04381 0.11348 0.0
C182 C 0.58367 0.02842 0.10682 0.0
C183 C 0.54271 0.013 0.1036 0.0
C184 C 0.52872 -0.00019 0.11272 0.0
C185 C 0.5404 0.00975 0.08824 0.0
C186 C 0.55329 0.02455 0.0781 0.0
C187 C 0.55117 0.04899 0.07901 0.0
C188 C 0.56464 0.06309 0.07028 0.0
C189 C 0.58044 0.05303 0.0604 0.0
C190 C 0.58182 0.0285 0.05905 0.0
C191 C 0.5683 0.01437 0.06782 0.0
H192 H 0.98979 0.59184 0.90537 0.0
H193 H 0.01676 0.6183 0.89351 0.0
H194 H 0.07542 0.57971 0.91115 0.0
H195 H 0.04836 0.5533 0.92302 0.0
H196 H 0.98695 0.54335 0.9002 0.0
H197 H 0.00477 0.59743 0.93939 0.0
H198 H 0.03169 0.61954 0.95536 0.0
H199 H 0.05362 0.55533 0.97569 0.0
H200 H 0.02842 0.53315 0.95861 0.0
H201 H 0.9875 0.48135 0.94799 0.0
H202 H 0.96441 0.44886 0.95684 0.0
H203 H 0.90166 0.48028 0.93877 0.0
H204 H 0.92498 0.51243 0.9297 0.0
H205 H 0.98562 0.52876 0.95341 0.0
H206 H 0.97604 0.4751 0.91283 0.0
H207 H 0.95455 0.45018 0.89506 0.0
H208 H 0.91867 0.51096 0.87856 0.0
H209 H 0.94016 0.53585 0.89648 0.0
C210 C 0.0171 0.5707 0.9151 0.0
C211 C 0.00846 0.58924 0.90679 0.0
C212 C 0.02386 0.60441 0.90011 0.0
C213 C 0.04815 0.60104 0.90144 0.0
C214 C 0.05677 0.58262 0.90992 0.0
C215 C 0.04136 0.56762 0.91673 0.0
C216 C 0.00074 0.55387 0.92148 0.0
C217 C 0.98636 0.54047 0.91186 0.0
C218 C 0.00045 0.54974 0.93668 0.0
C219 C 0.01505 0.56353 0.94744 0.0
C220 C 0.01564 0.58806 0.94713 0.0
C221 C 0.03075 0.60077 0.95654 0.0
C222 C 0.04507 0.58928 0.96683 0.0
C223 C 0.04335 0.56479 0.9677 0.0
C224 C 0.02869 0.55206 0.95802 0.0
C225 C 0.95795 0.49917 0.93812 0.0
C226 C 0.96874 0.48127 0.94603 0.0
C227 C 0.95551 0.46275 0.95111 0.0
C228 C 0.93119 0.46189 0.94845 0.0
C229 C 0.9204 0.48015 0.94076 0.0
C230 C 0.93366 0.49861 0.93564 0.0
C231 C 0.97228 0.51807 0.93211 0.0
C232 C 0.98613 0.53189 0.94177 0.0
C233 C 0.97242 0.52236 0.91696 0.0
C234 C 0.95943 0.50729 0.90612 0.0
C235 C 0.96334 0.48304 0.90551 0.0
C236 C 0.95105 0.46881 0.89535 0.0
C237 C 0.93483 0.47861 0.88548 0.0
C238 C 0.93118 0.50295 0.88597 0.0
C239 C 0.94339 0.51716 0.89621 0.0
H240 H 0.50718 0.53639 0.1864 0.0
H241 H 0.48206 0.567 0.19669 0.0
H242 H 0.42091 0.52707 0.1829 0.0
H243 H 0.44616 0.49638 0.17275 0.0
H244 H 0.51132 0.48958 0.19283 0.0
H245 H 0.49527 0.53584 0.15083 0.0
H246 H 0.46984 0.55812 0.13441 0.0
H247 H 0.42943 0.49568 0.12424 0.0
H248 H 0.45504 0.47341 0.14076 0.0
H249 H 0.51536 0.4193 0.14697 0.0
H250 H 0.54348 0.39445 0.13389 0.0
H251 H 0.59837 0.44414 0.14491 0.0
H252 H 0.57035 0.46866 0.1582 0.0
H253 H 0.50605 0.46815 0.13991 0.0
H254 H 0.53033 0.42119 0.18036 0.0
H255 H 0.55849 0.40241 0.19677 0.0
H256 H 0.58581 0.47027 0.21033 0.0
H257 H 0.55796 0.48895 0.19356 0.0
C258 C 0.4785 0.51422 0.17877 0.0
C259 C 0.48837 0.5342 0.18567 0.0
C260 C 0.47402 0.55172 0.19143 0.0
C261 C 0.44956 0.54942 0.19052 0.0
C262 C 0.43971 0.52921 0.18381 0.0
C263 C 0.45408 0.51177 0.17795 0.0
C264 C 0.4938 0.49609 0.17225 0.0
C265 C 0.5103 0.48496 0.18125 0.0
C266 C 0.49218 0.4899 0.15721 0.0
C267 C 0.47693 0.50304 0.14703 0.0
C268 C 0.48093 0.52697 0.14506 0.0
C269 C 0.46648 0.53962 0.13564 0.0
C270 C 0.44768 0.52861 0.12807 0.0
C271 C 0.44369 0.50462 0.13004 0.0
C272 C 0.45835 0.49188 0.13937 0.0
C273 C 0.54083 0.44573 0.15355 0.0
C274 C 0.53351 0.42463 0.14672 0.0
C275 C 0.54956 0.41045 0.13934 0.0
C276 C 0.57302 0.41746 0.13843 0.0
C277 C 0.58036 0.43842 0.14546 0.0
C278 C 0.56442 0.45236 0.15305 0.0
C279 C 0.52369 0.46159 0.1605 0.0
C280 C 0.50685 0.47242 0.15154 0.0
C281 C 0.52531 0.46781 0.17556 0.0
C282 C 0.54225 0.45644 0.18561 0.0
C283 C 0.54248 0.43201 0.18679 0.0
C284 C 0.55837 0.42133 0.19632 0.0
C285 C 0.57428 0.43489 0.2049 0.0
C286 C 0.57387 0.45937 0.2038 0.0
C287 C 0.55792 0.47005 0.19428 0.0
H288 H 0.5365 0.95063 0.39394 0.0
H289 H 0.51083 0.92237 0.38108 0.0
H290 H 0.45224 0.94838 0.40561 0.0
H291 H 0.47805 0.9768 0.41842 0.0
H292 H 0.53498 0.99732 0.394 0.0
H293 H 0.52645 0.93714 0.429 0.0
H294 H 0.50347 0.91151 0.44388 0.0
H295 H 0.48053 0.97158 0.46948 0.0
H296 H 0.5018 0.99724 0.45362 0.0
H297 H 0.54537 0.04916 0.4493 0.0
H298 H 0.57237 0.07639 0.46189 0.0
H299 H 0.62791 0.05223 0.43401 0.0
H300 H 0.60123 0.02397 0.42222 0.0
H301 H 0.5449 0.00357 0.44796 0.0
H302 H 0.55101 0.06379 0.41224 0.0
H303 H 0.57147 0.08998 0.39608 0.0
H304 H 0.60049 0.03003 0.3732 0.0
H305 H 0.58004 0.00399 0.38938 0.0
C306 C 0.50921 0.96578 0.40715 0.0
C307 C 0.51813 0.95026 0.39654 0.0
C308 C 0.50346 0.93413 0.38922 0.0
C309 C 0.47954 0.93321 0.39233 0.0
C310 C 0.47066 0.94852 0.40312 0.0
C311 C 0.48535 0.96479 0.4104 0.0
C312 C 0.52494 0.98324 0.41455 0.0
C313 C 0.53732 0.99855 0.4058 0.0
C314 C 0.52756 0.98513 0.42997 0.0
C315 C 0.51533 0.96921 0.43988 0.0
C316 C 0.51619 0.94483 0.43768 0.0
C317 C 0.50333 0.93011 0.44642 0.0
C318 C 0.48989 0.93939 0.4579 0.0
C319 C 0.49012 0.96377 0.46055 0.0
C320 C 0.50255 0.9785 0.45157 0.0
C321 C 0.57119 0.0347 0.4347 0.0
C322 C 0.56341 0.04967 0.44597 0.0
C323 C 0.57882 0.06542 0.45305 0.0
C324 C 0.60233 0.06661 0.44894 0.0
C325 C 0.61003 0.05161 0.43761 0.0
C326 C 0.59469 0.03564 0.43069 0.0
C327 C 0.55484 0.01771 0.42742 0.0
C328 C 0.54242 0.00244 0.43617 0.0
C329 C 0.5521 0.01588 0.41201 0.0
C330 C 0.56414 0.03192 0.4021 0.0
C331 C 0.56189 0.05631 0.4038 0.0
C332 C 0.57362 0.07125 0.39457 0.0
C333 C 0.58763 0.06208 0.38337 0.0
C334 C 0.58962 0.03765 0.3816 0.0
C335 C 0.57797 0.02274 0.39086 0.0
H336 H 0.05504 0.08615 0.69636 0.0
H337 H 0.02609 0.11329 0.70661 0.0
H338 H 0.97045 0.07144 0.68667 0.0
H339 H -0.00058 0.04445 0.6765 0.0
H340 H 0.06008 0.03465 0.69833 0.0
H341 H 0.04586 0.09525 0.66316 0.0
H342 H 0.01984 0.12012 0.64872 0.0
H343 H 0.98985 0.0585 0.62722 0.0
H344 H 0.01601 0.03379 0.64166 0.0
H345 H 0.06634 0.98481 0.64299 0.0
H346 H 0.09289 0.9605 0.62864 0.0
H347 H 0.15177 0.98947 0.65346 0.0
H348 H 0.12506 0.01416 0.66762 0.0
H349 H 0.06397 0.03132 0.64415 0.0
H350 H 0.07523 0.97064 0.67793 0.0
H351 H 0.09558 0.94302 0.69363 0.0
H352 H 0.12698 0.0007 0.71851 0.0
H353 H 0.10638 0.02835 0.70272 0.0
C354 C 0.0293 0.06344 0.68565 0.0
C355 C 0.03659 0.0827 0.6944 0.0
C356 C 0.02009 0.09822 0.70013 0.0
C357 C 0.99607 0.09447 0.69736 0.0
C358 C 0.98883 0.07464 0.68906 0.0
C359 C 0.00532 0.05928 0.68322 0.0
C360 C 0.04665 0.04854 0.67818 0.0
C361 C 0.06134 0.03418 0.68651 0.0
C362 C 0.04766 0.04753 0.66276 0.0
C363 C 0.03273 0.06268 0.65354 0.0
C364 C 0.03363 0.08713 0.65535 0.0
C365 C 0.01871 0.10131 0.64713 0.0
C366 C 0.00273 0.09128 0.63686 0.0
C367 C 0.00215 0.06678 0.63492 0.0
C368 C 0.01706 0.05263 0.64316 0.0
C369 C 0.09371 0.00126 0.65639 0.0
C370 C 0.08496 0.98583 0.6454 0.0
C371 C 0.10014 0.97182 0.63728 0.0
C372 C 0.12443 0.97306 0.63993 0.0
C373 C 0.13316 0.98827 0.6511 0.0
C374 C 0.11792 0.00223 0.65927 0.0
C375 C 0.07753 0.01715 0.66427 0.0
C376 C 0.06305 0.03186 0.65599 0.0
C377 C 0.07654 0.01819 0.67973 0.0
C378 C 0.0896 0.00154 0.689 0.0
C379 C 0.08676 0.97735 0.68662 0.0
C380 C 0.09839 0.96158 0.69563 0.0
C381 C 0.113 0.96968 0.70727 0.0
C382 C 0.11569 0.99394 0.70971 0.0
C383 C 0.10405 0.00973 0.70066 0.0
Zn384 Zn 0.29275 0.72647 0.98141 0.0
Zn385 Zn 0.30829 0.69729 0.00296 0.0
O386 O 0.27297 0.69274 0.00325 0.0
O387 O 0.25974 0.7185 0.98751 0.0
O388 O 0.32191 0.67643 0.01844 0.0
O389 O 0.31058 0.75302 0.99176 0.0
O390 O 0.31973 0.72962 0.00981 0.0
C391 C 0.25597 0.70291 0.99679 0.0
C392 C 0.32185 0.68886 0.97088 0.0
O393 O 0.32324 0.68437 0.98443 0.0
O394 O 0.30927 0.70566 0.9665 0.0
C395 C 0.31075 0.66651 0.02842 0.0
O396 O 0.28802 0.66943 0.02916 0.0
C397 C 0.32007 0.74976 0.0042 0.0
Zn398 Zn 0.30022 0.76286 0.2814 0.0
Zn399 Zn 0.32116 0.79126 0.26155 0.0
O400 O 0.28743 0.80287 0.26139 0.0
O401 O 0.26967 0.77963 0.27645 0.0
O402 O 0.33797 0.81058 0.24692 0.0
O403 O 0.31074 0.73436 0.26939 0.0
O404 O 0.32675 0.75807 0.2539 0.0
C405 C 0.26901 0.79662 0.26779 0.0
C406 C 0.3369 0.793 0.29385 0.0
O407 O 0.33833 0.79943 0.28068 0.0
O408 O 0.32209 0.77759 0.29715 0.0
C409 C 0.3281 0.82199 0.23675 0.0
O410 O 0.30518 0.82199 0.23546 0.0
C411 C 0.32212 0.73744 0.25787 0.0
Zn412 Zn 0.26708 0.77197 0.48907 0.0
Zn413 Zn 0.25286 0.80194 0.51089 0.0
O414 O 0.288 0.80817 0.51029 0.0
O415 O 0.30043 0.78283 0.49366 0.0
O416 O 0.24136 0.82219 0.52755 0.0
O417 O 0.25292 0.74461 0.49951 0.0
O418 O 0.24218 0.76947 0.51683 0.0
C419 C 0.30457 0.79923 0.50296 0.0
C420 C 0.23499 0.8085 0.47955 0.0
O421 O 0.23559 0.81451 0.49305 0.0
O422 O 0.24672 0.79102 0.47505 0.0
C423 C 0.24862 0.8428 0.53061 0.0
O424 O 0.26485 0.852 0.5226 0.0
C425 C 0.24295 0.74867 0.51153 0.0
Zn426 Zn 0.24527 0.73824 0.75301 0.0
Zn427 Zn 0.21525 0.72494 0.77401 0.0
O428 O 0.21316 0.76082 0.77491 0.0
O429 O 0.23829 0.77192 0.75858 0.0
O430 O 0.19487 0.71341 0.79007 0.0
O431 O 0.27175 0.72095 0.76291 0.0
O432 O 0.24671 0.70977 0.77925 0.0
C433 C 0.22333 0.77702 0.76815 0.0
C434 C 0.20529 0.71099 0.74201 0.0
O435 O 0.19981 0.71111 0.75542 0.0
O436 O 0.22384 0.72107 0.73817 0.0
C437 C 0.18367 0.72603 0.79917 0.0
O438 O 0.18448 0.74892 0.79835 0.0
C439 C 0.26725 0.7095 0.77417 0.0
Zn440 Zn 0.80344 0.24646 0.53519 0.0
Zn441 Zn 0.8308 0.22777 0.5134 0.0
O442 O 0.83519 0.26295 0.51119 0.0
O443 O 0.81153 0.27845 0.5275 0.0
O444 O 0.84983 0.21261 0.4976 0.0
O445 O 0.77553 0.22872 0.52624 0.0
O446 O 0.79825 0.21469 0.50899 0.0
C447 C 0.82604 0.28081 0.51737 0.0
C448 C 0.84239 0.218 0.54545 0.0
O449 O 0.84586 0.21538 0.53183 0.0
O450 O 0.82571 0.23072 0.54992 0.0
C451 C 0.86978 0.21989 0.49392 0.0
O452 O 0.87865 0.23879 0.50039 0.0
C453 C 0.77829 0.21616 0.5148 0.0
Zn454 Zn 0.79776 0.28417 0.76694 0.0
Zn455 Zn 0.80992 0.31448 0.74582 0.0
O456 O 0.77402 0.31544 0.74494 0.0
O457 O 0.76388 0.28969 0.76117 0.0
O458 O 0.82067 0.33487 0.72958 0.0
O459 O 0.81599 0.25815 0.75715 0.0
O460 O 0.82588 0.28334 0.74058 0.0
C461 C 0.75826 0.30451 0.75163 0.0
C462 C 0.82361 0.32532 0.77774 0.0
O463 O 0.82338 0.33059 0.76429 0.0
O464 O 0.81407 0.30653 0.78167 0.0
C465 C 0.80871 0.35045 0.72312 0.0
O466 O 0.78714 0.35453 0.72708 0.0
C467 C 0.82698 0.26288 0.74575 0.0
Zn468 Zn 0.75447 0.26231 0.02581 0.0
Zn469 Zn 0.72422 0.27857 0.00467 0.0
O470 O 0.71908 0.24326 0.00373 0.0
O471 O 0.74486 0.22923 0.01947 0.0
O472 O 0.70319 0.29045 0.98849 0.0
O473 O 0.78104 0.27946 0.01613 0.0
O474 O 0.75615 0.29051 0.99893 0.0
C475 C 0.72847 0.22591 0.01006 0.0
C476 C 0.71729 0.29204 0.03688 0.0
O477 O 0.71182 0.29378 0.02338 0.0
O478 O 0.73439 0.27938 0.04085 0.0
C479 C 0.69533 0.31125 0.98898 0.0
O480 O 0.70064 0.32488 0.00036 0.0
C481 C 0.77682 0.29014 0.00438 0.0
Zn482 Zn 0.76535 0.23356 0.2377 0.0
Zn483 Zn 0.7358 0.21464 0.25744 0.0
O484 O 0.72688 0.2493 0.25817 0.0
O485 O 0.75073 0.26507 0.2426 0.0
O486 O 0.71508 0.19939 0.27193 0.0
O487 O 0.7931 0.22178 0.2496 0.0
O488 O 0.76863 0.20557 0.26459 0.0
C489 C 0.73426 0.26713 0.25158 0.0
C490 C 0.73278 0.19924 0.22514 0.0
O491 O 0.72583 0.19871 0.23823 0.0
O492 O 0.74972 0.21234 0.22194 0.0
C493 C 0.71568 0.20494 0.28548 0.0
O494 O 0.7298 0.22175 0.29024 0.0
C495 C 0.78943 0.20952 0.26066 0.0
H496 H 0.09618 0.90829 0.31389 0.0
H497 H 0.12216 0.88131 0.30086 0.0
H498 H 0.15695 0.93996 0.28198 0.0
H499 H 0.13143 0.96696 0.29532 0.0
H500 H 0.13328 0.87076 0.27335 0.0
H501 H 0.21491 0.92974 0.28105 0.0
H502 H 0.22986 0.96141 0.2976 0.0
H503 H 0.18809 0.93599 0.33221 0.0
H504 H 0.17317 0.90401 0.31595 0.0
H505 H 0.26379 0.83875 0.25457 0.0
H506 H 0.23101 0.86588 0.25688 0.0
H507 H 0.19322 0.81473 0.28091 0.0
H508 H 0.22588 0.78747 0.27868 0.0
H509 H 0.21809 0.88198 0.28392 0.0
H510 H 0.13415 0.82538 0.27649 0.0
H511 H 0.11959 0.79218 0.2611 0.0
H512 H 0.16683 0.8102 0.22738 0.0
H513 H 0.18144 0.84369 0.24247 0.0
C514 C 0.10918 0.91536 0.30679 0.0
C515 C 0.11205 0.93967 0.30573 0.0
C516 C 0.12396 0.89996 0.29933 0.0
C517 C 0.14175 0.90862 0.29064 0.0
C518 C 0.14367 0.93289 0.28887 0.0
C519 C 0.12912 0.94829 0.29649 0.0
C520 C 0.15937 0.89242 0.28439 0.0
C521 C 0.15182 0.87311 0.27571 0.0
C522 C 0.1836 0.89572 0.28727 0.0
C523 C 0.19272 0.91468 0.29722 0.0
C524 C 0.20898 0.93089 0.29221 0.0
C525 C 0.21745 0.94889 0.30154 0.0
C526 C 0.20986 0.95076 0.31593 0.0
C527 C 0.19388 0.93458 0.32105 0.0
C528 C 0.18541 0.91652 0.31178 0.0
C529 C 0.24829 0.83301 0.26003 0.0
C530 C 0.24758 0.81104 0.26661 0.0
C531 C 0.22958 0.84857 0.26135 0.0
C532 C 0.20973 0.84233 0.26908 0.0
C533 C 0.20829 0.81982 0.27478 0.0
C534 C 0.22705 0.8043 0.27355 0.0
C535 C 0.19204 0.86023 0.27293 0.0
C536 C 0.19959 0.87982 0.2813 0.0
C537 C 0.16787 0.85694 0.26992 0.0
C538 C 0.15903 0.83695 0.26069 0.0
C539 C 0.14136 0.82233 0.26577 0.0
C540 C 0.13311 0.80344 0.2571 0.0
C541 C 0.14232 0.79904 0.24329 0.0
C542 C 0.15977 0.81357 0.2381 0.0
C543 C 0.16808 0.83248 0.24672 0.0
H544 H 0.13592 0.78441 0.2366 0.0
H545 H 0.21641 0.96473 0.32312 0.0
H546 H 0.07182 0.63811 0.55625 0.0
H547 H 0.10446 0.66026 0.54671 0.0
H548 H 0.15271 0.6075 0.56168 0.0
H549 H 0.12014 0.58545 0.57151 0.0
H550 H 0.16875 0.65175 0.56804 0.0
H551 H 0.13867 0.60861 0.52638 0.0
H552 H 0.10834 0.59384 0.50889 0.0
H553 H 0.09255 0.66413 0.49643 0.0
H554 H 0.12257 0.67936 0.51401 0.0
H555 H 0.23842 0.70277 0.50251 0.0
H556 H 0.21428 0.67268 0.51325 0.0
H557 H 0.19468 0.7216 0.5475 0.0
H558 H 0.21896 0.75164 0.537 0.0
H559 H 0.16827 0.67363 0.51588 0.0
H560 H 0.18237 0.69278 0.57824 0.0
H561 H 0.2141 0.70541 0.5954 0.0
H562 H 0.26521 0.67868 0.56569 0.0
H563 H 0.23379 0.6656 0.54844 0.0
C564 C 0.0894 0.63133 0.55762 0.0
C565 C 0.09343 0.61002 0.56458 0.0
C566 C 0.10799 0.64389 0.55207 0.0
C567 C 0.13095 0.63537 0.55336 0.0
C568 C 0.1351 0.61431 0.56052 0.0
C569 C 0.11648 0.60167 0.56602 0.0
C570 C 0.15056 0.64854 0.5472 0.0
C571 C 0.16874 0.65649 0.55663 0.0
C572 C 0.15075 0.65422 0.53225 0.0
C573 C 0.13275 0.64513 0.5216 0.0
C574 C 0.12861 0.62093 0.51999 0.0
C575 C 0.11149 0.61247 0.51004 0.0
C576 C 0.0985 0.62804 0.50157 0.0
C577 C 0.10263 0.6521 0.50301 0.0
C578 C 0.11971 0.66065 0.51295 0.0
C579 C 0.22928 0.70703 0.51246 0.0
C580 C 0.23055 0.72966 0.51886 0.0
C581 C 0.21544 0.68982 0.51856 0.0
C582 C 0.20276 0.69486 0.5312 0.0
C583 C 0.20458 0.7172 0.53786 0.0
C584 C 0.2184 0.7344 0.53179 0.0
C585 C 0.18619 0.67745 0.5368 0.0
C586 C 0.16849 0.66873 0.52727 0.0
C587 C 0.18667 0.67079 0.55161 0.0
C588 C 0.2057 0.67837 0.56199 0.0
C589 C 0.20037 0.68949 0.57539 0.0
C590 C 0.21831 0.69676 0.58513 0.0
C591 C 0.24165 0.69291 0.58162 0.0
C592 C 0.24712 0.68173 0.56837 0.0
C593 C 0.22925 0.67442 0.5586 0.0
H594 H 0.25551 0.69856 0.58917 0.0
H595 H 0.08525 0.62146 0.49388 0.0
H596 H 0.4451 0.58036 0.79952 0.0
H597 H 0.4152 0.60974 0.79426 0.0
H598 H 0.36245 0.56481 0.81151 0.0
H599 H 0.3923 0.53536 0.81684 0.0
H600 H 0.3471 0.5848 0.78683 0.0
H601 H 0.38313 0.61018 0.83192 0.0
H602 H 0.41567 0.62054 0.84903 0.0
H603 H 0.43576 0.67639 0.82141 0.0
H604 H 0.40352 0.66615 0.80401 0.0
H605 H 0.26098 0.67374 0.79294 0.0
H606 H 0.29014 0.64521 0.80097 0.0
H607 H 0.34338 0.68177 0.77797 0.0
H608 H 0.31431 0.71027 0.76973 0.0
H609 H 0.35727 0.66582 0.80687 0.0
H610 H 0.3209 0.63781 0.76128 0.0
H611 H 0.28718 0.62702 0.74519 0.0
H612 H 0.26626 0.57539 0.77558 0.0
H613 H 0.29969 0.58614 0.79197 0.0
C614 C 0.42713 0.57675 0.80218 0.0
C615 C 0.42105 0.55562 0.80864 0.0
C616 C 0.41009 0.59354 0.79919 0.0
C617 C 0.38669 0.58958 0.80272 0.0
C618 C 0.38043 0.5682 0.80873 0.0
C619 C 0.39747 0.55136 0.81169 0.0
C620 C 0.36884 0.60791 0.80026 0.0
C621 C 0.34917 0.60241 0.79139 0.0
C622 C 0.37165 0.63095 0.80613 0.0
C623 C 0.39103 0.63725 0.81658 0.0
C624 C 0.3946 0.62455 0.82943 0.0
C625 C 0.41297 0.63042 0.83919 0.0
C626 C 0.42781 0.64908 0.83629 0.0
C627 C 0.42427 0.66193 0.82363 0.0
C628 C 0.40593 0.65611 0.81382 0.0
C629 C 0.27896 0.67595 0.78978 0.0
C630 C 0.28533 0.69415 0.78061 0.0
C631 C 0.29555 0.6596 0.79434 0.0
C632 C 0.31879 0.66134 0.78994 0.0
C633 C 0.32549 0.68018 0.78145 0.0
C634 C 0.30886 0.69637 0.77672 0.0
C635 C 0.33577 0.64269 0.79335 0.0
C636 C 0.35523 0.64816 0.8024 0.0
C637 C 0.33262 0.61955 0.78781 0.0
C638 C 0.31263 0.61296 0.77792 0.0
C639 C 0.30899 0.6243 0.76459 0.0
C640 C 0.28996 0.61817 0.75541 0.0
C641 C 0.27455 0.60058 0.75938 0.0
C642 C 0.27819 0.58904 0.77253 0.0
C643 C 0.29718 0.59514 0.78176 0.0
H644 H 0.25983 0.59586 0.75225 0.0
H645 H 0.44202 0.6536 0.84387 0.0
H646 H 0.4554 0.91737 0.0436 0.0
H647 H 0.42851 0.88756 0.03324 0.0
H648 H 0.4056 0.87226 0.07656 0.0
H649 H 0.43231 0.90228 0.08697 0.0
H650 H 0.41849 0.83212 0.05834 0.0
H651 H 0.36999 0.90083 0.05728 0.0
H652 H 0.36063 0.9417 0.05144 0.0
H653 H 0.36785 0.92563 0.00566 0.0
H654 H 0.37761 0.88471 0.01124 0.0
H655 H 0.32839 0.75498 0.03358 0.0
H656 H 0.34987 0.7866 0.04642 0.0
H657 H 0.36192 0.81923 0.0052 0.0
H658 H 0.33935 0.78835 0.99245 0.0
H659 H 0.35311 0.85128 0.02407 0.0
H660 H 0.40399 0.78415 0.02428 0.0
H661 H 0.41543 0.74345 0.02926 0.0
H662 H 0.40666 0.75637 0.07526 0.0
H663 H 0.39478 0.797 0.07052 0.0
C664 C 0.44459 0.90764 0.05088 0.0
C665 C 0.44583 0.91205 0.06605 0.0
C666 C 0.42922 0.89075 0.04497 0.0
C667 C 0.41508 0.87787 0.05417 0.0
C668 C 0.41638 0.88212 0.06933 0.0
C669 C 0.4315 0.89927 0.07523 0.0
C670 C 0.39924 0.85966 0.0479 0.0
C671 C 0.40393 0.83623 0.05102 0.0
C672 C 0.38074 0.86518 0.03809 0.0
C673 C 0.37474 0.88975 0.0347 0.0
C674 C 0.36979 0.90605 0.04598 0.0
C675 C 0.36436 0.92922 0.04271 0.0
C676 C 0.3637 0.93627 0.02819 0.0
C677 C 0.36839 0.92015 0.01691 0.0
C678 C 0.37385 0.89696 0.02011 0.0
C679 C 0.33554 0.76899 0.02729 0.0
C680 C 0.33233 0.76919 0.01203 0.0
C681 C 0.34793 0.78697 0.03462 0.0
C682 C 0.35798 0.80506 0.02675 0.0
C683 C 0.35437 0.80547 0.01152 0.0
C684 C 0.34151 0.7878 0.00423 0.0
C685 C 0.37246 0.82346 0.0343 0.0
C686 C 0.36755 0.84701 0.03143 0.0
C687 C 0.39104 0.81799 0.04417 0.0
C688 C 0.39823 0.79354 0.04702 0.0
C689 C 0.40432 0.77824 0.03544 0.0
C690 C 0.41089 0.75518 0.03822 0.0
C691 C 0.41167 0.74728 0.05256 0.0
C692 C 0.40596 0.76246 0.06415 0.0
C693 C 0.39931 0.78551 0.06142 0.0
H694 H 0.41678 0.72943 0.05469 0.0
H695 H 0.35949 0.95422 0.02569 0.0
H696 H 0.0421 0.63419 0.9784 0.0
H697 H 0.07401 0.65781 0.98924 0.0
H698 H 0.1199 0.59811 0.98715 0.0
H699 H 0.08888 0.57476 0.97547 0.0
H700 H 0.12372 0.63062 0.01427 0.0
H701 H 0.12324 0.6274 0.96035 0.0
H702 H 0.10325 0.63234 0.93643 0.0
H703 H 0.08886 0.70421 0.94774 0.0
H704 H 0.10844 0.69952 0.97185 0.0
H705 H 0.24149 0.6608 0.00652 0.0
H706 H 0.20151 0.64628 0.00714 0.0
H707 H 0.17567 0.7137 0.99387 0.0
H708 H 0.21586 0.72787 0.99244 0.0
H709 H 0.15651 0.68318 0.97757 0.0
H710 H 0.16531 0.68959 0.02907 0.0
H711 H 0.18397 0.68543 0.05344 0.0
H712 H 0.1811 0.61059 0.04832 0.0
H713 H 0.16273 0.61426 0.02383 0.0
C714 C 0.05894 0.626 0.98026 0.0
C715 C 0.06291 0.60259 0.97579 0.0
C716 C 0.07701 0.63947 0.98666 0.0
C717 C 0.09918 0.62961 0.98896 0.0
C718 C 0.10277 0.60588 0.98558 0.0
C719 C 0.0849 0.59254 0.97891 0.0
C720 C 0.11952 0.64458 0.99277 0.0
C721 C 0.13101 0.64221 0.00635 0.0
C722 C 0.1284 0.66012 0.98252 0.0
C723 C 0.11702 0.66304 0.96795 0.0
C724 C 0.11564 0.64419 0.95778 0.0
C725 C 0.10441 0.64695 0.94418 0.0
C726 C 0.09473 0.66856 0.94058 0.0
C727 C 0.09632 0.68747 0.95055 0.0
C728 C 0.10748 0.68477 0.96418 0.0
C729 C 0.22727 0.67265 0.00399 0.0
C730 C 0.23176 0.69538 0.99931 0.0
C731 C 0.20434 0.6644 0.00448 0.0
C732 C 0.18543 0.67895 0.00071 0.0
C733 C 0.18992 0.7021 0.99679 0.0
C734 C 0.21288 0.71019 0.99598 0.0
C735 C 0.16142 0.66912 0.99914 0.0
C736 C 0.14916 0.67227 0.98583 0.0
C737 C 0.15174 0.65458 0.00978 0.0
C738 C 0.16273 0.65222 0.02455 0.0
C739 C 0.16879 0.67223 0.03309 0.0
C740 C 0.1793 0.66996 0.04694 0.0
C741 C 0.18375 0.64776 0.05242 0.0
C742 C 0.17764 0.62778 0.04407 0.0
C743 C 0.16714 0.62995 0.03021 0.0
H744 H 0.19189 0.64604 0.06314 0.0
H745 H 0.08605 0.67067 0.93005 0.0
H746 H 0.41163 0.5446 0.20779 0.0
H747 H 0.3875 0.57574 0.2184 0.0
H748 H 0.42907 0.62748 0.19729 0.0
H749 H 0.45344 0.59643 0.18689 0.0
H750 H 0.42291 0.64011 0.22455 0.0
H751 H 0.37289 0.61248 0.18502 0.0
H752 H 0.35078 0.58314 0.17006 0.0
H753 H 0.30965 0.56666 0.20708 0.0
H754 H 0.33174 0.59568 0.22233 0.0
H755 H 0.35078 0.73829 0.23447 0.0
H756 H 0.36972 0.70517 0.22232 0.0
H757 H 0.33421 0.65757 0.25012 0.0
H758 H 0.31509 0.69071 0.26246 0.0
H759 H 0.3363 0.64227 0.22002 0.0
H760 H 0.38718 0.67068 0.25931 0.0
H761 H 0.40917 0.70092 0.27359 0.0
H762 H 0.44873 0.71682 0.23578 0.0
H763 H 0.42671 0.68689 0.22121 0.0
C764 C 0.41544 0.56262 0.20532 0.0
C765 C 0.43441 0.56814 0.19655 0.0
C766 C 0.40163 0.58039 0.21136 0.0
C767 C 0.40633 0.60395 0.20853 0.0
C768 C 0.42516 0.60944 0.19966 0.0
C769 C 0.43908 0.59171 0.19374 0.0
C770 C 0.39224 0.62299 0.21523 0.0
C771 C 0.404 0.6407 0.22337 0.0
C772 C 0.3675 0.6235 0.21401 0.0
C773 C 0.35413 0.60609 0.20485 0.0
C774 C 0.35925 0.60247 0.19 0.0
C775 C 0.3467 0.58592 0.18147 0.0
C776 C 0.32887 0.573 0.18763 0.0
C777 C 0.3235 0.57665 0.20233 0.0
C778 C 0.33601 0.59316 0.21092 0.0
C779 C 0.34673 0.72079 0.23793 0.0
C780 C 0.33157 0.71716 0.24954 0.0
C781 C 0.35762 0.70189 0.23097 0.0
C782 C 0.35354 0.67901 0.23546 0.0
C783 C 0.33758 0.67515 0.24655 0.0
C784 C 0.32675 0.6941 0.2536 0.0
C785 C 0.36707 0.65935 0.22912 0.0
C786 C 0.35521 0.64155 0.22114 0.0
C787 C 0.39175 0.65882 0.23037 0.0
C788 C 0.40514 0.6767 0.23914 0.0
C789 C 0.40044 0.68075 0.25401 0.0
C790 C 0.41293 0.69781 0.26216 0.0
C791 C 0.4303 0.71083 0.25559 0.0
C792 C 0.43525 0.70675 0.24086 0.0
C793 C 0.42279 0.68972 0.23265 0.0
H794 H 0.43995 0.72403 0.26192 0.0
H795 H 0.31917 0.5602 0.181 0.0
H796 H 0.49853 0.89406 0.46614 0.0
H797 H 0.47165 0.86744 0.47779 0.0
H798 H 0.42096 0.92285 0.48171 0.0
H799 H 0.44687 0.94923 0.46927 0.0
H800 H 0.42875 0.89131 0.50785 0.0
H801 H 0.41133 0.89189 0.45524 0.0
H802 H 0.42269 0.88796 0.42945 0.0
H803 H 0.4466 0.81789 0.43674 0.0
H804 H 0.43573 0.8216 0.46266 0.0
H805 H 0.31592 0.84334 0.51267 0.0
H806 H 0.3526 0.86385 0.50929 0.0
H807 H 0.38325 0.80028 0.49189 0.0
H808 H 0.34603 0.77995 0.49456 0.0
H809 H 0.39081 0.83241 0.47428 0.0
H810 H 0.40209 0.82854 0.52574 0.0
H811 H 0.39214 0.83192 0.55178 0.0
H812 H 0.3819 0.90594 0.5478 0.0
H813 H 0.39147 0.90297 0.52168 0.0
C814 C 0.48165 0.90065 0.46939 0.0
C815 C 0.47488 0.92384 0.46656 0.0
C816 C 0.46646 0.88545 0.47622 0.0
C817 C 0.44443 0.89328 0.4806 0.0
C818 C 0.43804 0.91663 0.47852 0.0
C819 C 0.45298 0.93171 0.47144 0.0
C820 C 0.42707 0.87664 0.48598 0.0
C821 C 0.42033 0.8784 0.50059 0.0
C822 C 0.41675 0.85946 0.47653 0.0
C823 C 0.42301 0.85713 0.46092 0.0
C824 C 0.41922 0.87574 0.45137 0.0
C825 C 0.42553 0.87354 0.43673 0.0
C826 C 0.43543 0.85272 0.43147 0.0
C827 C 0.43897 0.83403 0.44084 0.0
C828 C 0.43274 0.83617 0.4555 0.0
C829 C 0.33063 0.83355 0.50846 0.0
C830 C 0.32805 0.81006 0.50379 0.0
C831 C 0.35172 0.8453 0.5066 0.0
C832 C 0.37088 0.83363 0.50042 0.0
C833 C 0.36874 0.80973 0.49662 0.0
C834 C 0.34749 0.79809 0.4982 0.0
C835 C 0.39195 0.84701 0.49631 0.0
C836 C 0.39942 0.84481 0.48181 0.0
C837 C 0.40309 0.86358 0.50597 0.0
C838 C 0.39738 0.86549 0.5217 0.0
C839 C 0.39757 0.84552 0.53038 0.0
C840 C 0.39201 0.84737 0.54517 0.0
C841 C 0.38635 0.86912 0.55144 0.0
C842 C 0.38629 0.88909 0.54293 0.0
C843 C 0.39182 0.88734 0.52814 0.0
H844 H 0.38205 0.87051 0.56288 0.0
H845 H 0.44029 0.85105 0.42013 0.0
H846 H 0.11865 0.9717 0.73716 0.0
H847 H 0.13753 0.94265 0.75279 0.0
H848 H 0.15352 0.90043 0.71456 0.0
H849 H 0.13499 0.92936 0.69893 0.0
H850 H 0.13409 0.87471 0.7354 0.0
H851 H 0.19526 0.9329 0.73218 0.0
H852 H 0.21205 0.97254 0.73516 0.0
H853 H 0.20013 0.97173 0.78131 0.0
H854 H 0.18297 0.93218 0.77857 0.0
H855 H 0.24363 0.81604 0.75745 0.0
H856 H 0.2247 0.85363 0.75362 0.0
H857 H 0.1655 0.83126 0.77804 0.0
H858 H 0.18421 0.79336 0.7818 0.0
H859 H 0.20328 0.89096 0.76789 0.0
H860 H 0.11751 0.84206 0.75646 0.0
H861 H 0.10316 0.80177 0.75161 0.0
H862 H 0.16798 0.78358 0.7315 0.0
H863 H 0.18253 0.82382 0.73604 0.0
C864 C 0.12645 0.95635 0.73209 0.0
C865 C 0.12523 0.95275 0.71681 0.0
C866 C 0.13715 0.93976 0.74103 0.0
C867 C 0.14686 0.91939 0.73482 0.0
C868 C 0.14593 0.91594 0.71958 0.0
C869 C 0.13529 0.93246 0.71066 0.0
C870 C 0.15774 0.90126 0.74404 0.0
C871 C 0.14902 0.87836 0.74265 0.0
C872 C 0.17723 0.906 0.75349 0.0
C873 C 0.18758 0.92972 0.75514 0.0
C874 C 0.19603 0.94127 0.74294 0.0
C875 C 0.20565 0.9637 0.74459 0.0
C876 C 0.20708 0.97468 0.75841 0.0
C877 C 0.19896 0.96322 0.77061 0.0
C878 C 0.1893 0.9408 0.76902 0.0
C879 C 0.22689 0.81932 0.7624 0.0
C880 C 0.21515 0.8015 0.7696 0.0
C881 C 0.21616 0.84093 0.76028 0.0
C882 C 0.19352 0.84502 0.76529 0.0
C883 C 0.1829 0.82829 0.77395 0.0
C884 C 0.19364 0.80664 0.77609 0.0
C885 C 0.17974 0.86447 0.75908 0.0
C886 C 0.1879 0.88753 0.76099 0.0
C887 C 0.15994 0.85989 0.74986 0.0
C888 C 0.15118 0.83582 0.74676 0.0
C889 C 0.12864 0.82945 0.75096 0.0
C890 C 0.12048 0.80664 0.74827 0.0
C891 C 0.13468 0.7901 0.7413 0.0
C892 C 0.15702 0.79638 0.73694 0.0
C893 C 0.16523 0.81918 0.73957 0.0
H894 H 0.12835 0.77244 0.73926 0.0
H895 H 0.21454 0.99205 0.75966 0.0
H896 H 0.55907 0.37076 0.7964 0.0
H897 H 0.58658 0.34699 0.78228 0.0
H898 H 0.62378 0.40942 0.77102 0.0
H899 H 0.59613 0.43331 0.78491 0.0
H900 H 0.62119 0.37575 0.74793 0.0
H901 H 0.64171 0.38118 0.7998 0.0
H902 H 0.63373 0.37693 0.82598 0.0
H903 H 0.62106 0.30343 0.81874 0.0
H904 H 0.62864 0.30734 0.79245 0.0
H905 H 0.74065 0.34589 0.742 0.0
H906 H 0.7009 0.3603 0.74498 0.0
H907 H 0.67988 0.29282 0.7603 0.0
H908 H 0.71991 0.27863 0.7579 0.0
H909 H 0.66945 0.32418 0.77933 0.0
H910 H 0.65631 0.31752 0.72792 0.0
H911 H 0.66449 0.32203 0.7018 0.0
H912 H 0.66335 0.39681 0.70756 0.0
H913 H 0.6555 0.39278 0.73376 0.0
C914 C 0.57279 0.37944 0.79064 0.0
C915 C 0.57568 0.40384 0.7919 0.0
C916 C 0.5885 0.36585 0.78261 0.0
C917 C 0.60729 0.37647 0.77573 0.0
C918 C 0.60937 0.40092 0.77625 0.0
C919 C 0.59375 0.4145 0.78432 0.0
C920 C 0.62632 0.36213 0.76949 0.0
C921 C 0.63182 0.36444 0.75473 0.0
C922 C 0.63975 0.34701 0.77833 0.0
C923 C 0.63546 0.3446 0.79415 0.0
C924 C 0.63705 0.36415 0.80378 0.0
C925 C 0.63262 0.3618 0.81863 0.0
C926 C 0.62682 0.33994 0.82401 0.0
C927 C 0.62551 0.32036 0.81455 0.0
C928 C 0.62987 0.32263 0.79967 0.0
C929 C 0.72741 0.33391 0.74558 0.0
C930 C 0.73344 0.31123 0.7499 0.0
C931 C 0.70459 0.34214 0.74722 0.0
C932 C 0.68731 0.32766 0.75289 0.0
C933 C 0.69292 0.30437 0.75601 0.0
C934 C 0.7158 0.29626 0.75461 0.0
C935 C 0.66472 0.33778 0.75765 0.0
C936 C 0.65859 0.33489 0.77228 0.0
C937 C 0.65077 0.35228 0.74863 0.0
C938 C 0.65545 0.35483 0.73285 0.0
C939 C 0.65797 0.33493 0.72365 0.0
C940 C 0.66252 0.3374 0.70882 0.0
C941 C 0.66447 0.35969 0.70303 0.0
C942 C 0.66183 0.37956 0.71206 0.0
C943 C 0.65729 0.37719 0.7269 0.0
H944 H 0.668 0.36156 0.69155 0.0
H945 H 0.6234 0.33815 0.83551 0.0
H946 H 0.59236 0.04855 0.03152 0.0
H947 H 0.61826 0.07411 0.01805 0.0
H948 H 0.62979 0.11697 0.05707 0.0
H949 H 0.60421 0.09161 0.07053 0.0
H950 H 0.62038 0.14335 0.03405 0.0
H951 H 0.67047 0.07772 0.04546 0.0
H952 H 0.68179 0.03607 0.0451 0.0
H953 H 0.68171 0.03528 0.99814 0.0
H954 H 0.67008 0.07688 0.99823 0.0
H955 H 0.74106 0.18574 0.02388 0.0
H956 H 0.71658 0.15124 0.02648 0.0
H957 H 0.6666 0.1783 0.99519 0.0
H958 H 0.69081 0.21308 0.99261 0.0
H959 H 0.69318 0.11559 0.01077 0.0
H960 H 0.61379 0.1766 0.01149 0.0
H961 H 0.60475 0.21872 0.01426 0.0
H962 H 0.66677 0.229 0.04105 0.0
H963 H 0.67595 0.18692 0.03863 0.0
C964 C 0.60055 0.06336 0.03722 0.0
C965 C 0.59611 0.06819 0.05206 0.0
C966 C 0.6153 0.07793 0.02951 0.0
C967 C 0.62592 0.09743 0.03657 0.0
C968 C 0.62159 0.10215 0.05138 0.0
C969 C 0.60689 0.08768 0.05905 0.0
C970 C 0.6415 0.11325 0.02868 0.0
C971 C 0.63613 0.1372 0.0288 0.0
C972 C 0.66212 0.10527 0.0219 0.0
C973 C 0.66913 0.08031 0.02185 0.0
C974 C 0.67267 0.06861 0.03506 0.0
C975 C 0.67918 0.04502 0.0349 0.0
C976 C 0.68239 0.03302 0.0216 0.0
C977 C 0.67917 0.04459 0.00843 0.0
C978 C 0.67263 0.06817 0.00853 0.0
C979 C 0.72524 0.18407 0.01718 0.0
C980 C 0.71757 0.20247 0.00834 0.0
C981 C 0.71132 0.16422 0.01863 0.0
C982 C 0.68957 0.1625 0.01127 0.0
C983 C 0.68321 0.1795 0.00111 0.0
C984 C 0.69708 0.19938 0.99967 0.0
C985 C 0.67207 0.14559 0.01627 0.0
C986 C 0.67707 0.12156 0.01566 0.0
C987 C 0.6513 0.15348 0.02291 0.0
C988 C 0.64568 0.17871 0.02471 0.0
C989 C 0.62543 0.18786 0.01801 0.0
C990 C 0.62029 0.21172 0.01952 0.0
C991 C 0.63522 0.22655 0.02778 0.0
C992 C 0.65526 0.21752 0.03462 0.0
C993 C 0.66044 0.19368 0.03318 0.0
H994 H 0.63123 0.24501 0.02891 0.0
H995 H 0.68744 0.01476 0.0215 0.0
H996 H 0.9612 0.11858 0.33387 0.0
H997 H 0.93038 0.14266 0.3231 0.0
H998 H 0.92674 0.09617 0.2852 0.0
H999 H 0.95833 0.07256 0.2956 0.0
H1000 H 0.92189 0.13968 0.27696 0.0
H1001 H 0.88744 0.09131 0.3116 0.0
H1002 H 0.88301 0.07274 0.3354 0.0
H1003 H 0.87132 0.14004 0.35588 0.0
H1004 H 0.8761 0.15907 0.33222 0.0
H1005 H 0.78853 0.16978 0.27638 0.0
H1006 H 0.82182 0.14865 0.28671 0.0
H1007 H 0.86827 0.20317 0.27316 0.0
H1008 H 0.83507 0.22367 0.26204 0.0
H1009 H 0.85179 0.15454 0.30674 0.0
H1010 H 0.92109 0.18199 0.26488 0.0
H1011 H 0.9228 0.19314 0.23904 0.0
H1012 H 0.85905 0.15555 0.22933 0.0
H1013 H 0.85713 0.14393 0.25506 0.0
C1014 C 0.95418 0.11371 0.32311 0.0
C1015 C 0.96212 0.09355 0.31563 0.0
C1016 C 0.93641 0.12738 0.31703 0.0
C1017 C 0.92604 0.12101 0.30344 0.0
C1018 C 0.93445 0.10137 0.29572 0.0
C1019 C 0.95232 0.08775 0.30175 0.0
C1020 C 0.90573 0.13423 0.29761 0.0
C1021 C 0.90659 0.14304 0.28347 0.0
C1022 C 0.88545 0.1379 0.30592 0.0
C1023 C 0.88238 0.12663 0.32018 0.0
C1024 C 0.88411 0.10217 0.32121 0.0
C1025 C 0.88153 0.09156 0.33466 0.0
C1026 C 0.87699 0.1052 0.34715 0.0
C1027 C 0.87493 0.12949 0.34621 0.0
C1028 C 0.87756 0.14021 0.33277 0.0
C1029 C 0.80584 0.17732 0.27568 0.0
C1030 C 0.80927 0.19825 0.2683 0.0
C1031 C 0.82488 0.16524 0.28161 0.0
C1032 C 0.84768 0.17405 0.28049 0.0
C1033 C 0.85096 0.19563 0.27379 0.0
C1034 C 0.83197 0.20744 0.26754 0.0
C1035 C 0.86795 0.16035 0.28607 0.0
C1036 C 0.86711 0.15141 0.30021 0.0
C1037 C 0.88775 0.15558 0.27745 0.0
C1038 C 0.88885 0.16234 0.26193 0.0
C1039 C 0.90748 0.17606 0.25722 0.0
C1040 C 0.90848 0.18246 0.24259 0.0
C1041 C 0.891 0.17513 0.23256 0.0
C1042 C 0.87253 0.1613 0.23712 0.0
C1043 C 0.87147 0.15482 0.25173 0.0
H1044 H 0.8918 0.18012 0.22125 0.0
H1045 H 0.87499 0.09687 0.35754 0.0
H1046 H 0.95687 0.44144 0.54371 0.0
H1047 H 0.93295 0.41235 0.53051 0.0
H1048 H 0.87597 0.46148 0.52783 0.0
H1049 H 0.90025 0.49144 0.54029 0.0
H1050 H 0.86749 0.41735 0.54241 0.0
H1051 H 0.89553 0.44604 0.49749 0.0
H1052 H 0.92542 0.45896 0.48048 0.0
H1053 H 0.95708 0.39087 0.48101 0.0
H1054 H 0.9276 0.37762 0.49821 0.0
H1055 H 0.80107 0.32141 0.51807 0.0
H1056 H 0.81662 0.36119 0.51691 0.0
H1057 H 0.88546 0.33309 0.50923 0.0
H1058 H 0.86961 0.29344 0.50938 0.0
H1059 H 0.88253 0.37235 0.49649 0.0
H1060 H 0.86423 0.34677 0.54485 0.0
H1061 H 0.83882 0.33213 0.56403 0.0
H1062 H 0.79423 0.39211 0.55954 0.0
H1063 H 0.81928 0.40696 0.54021 0.0
C1064 C 0.93959 0.44651 0.53989 0.0
C1065 C 0.93052 0.46889 0.5432 0.0
C1066 C 0.9259 0.42974 0.53237 0.0
C1067 C 0.90279 0.43486 0.52817 0.0
C1068 C 0.89384 0.4573 0.53097 0.0
C1069 C 0.90768 0.47428 0.53826 0.0
C1070 C 0.88731 0.41573 0.52272 0.0
C1071 C 0.87026 0.40786 0.53217 0.0
C1072 C 0.89165 0.40301 0.50962 0.0
C1073 C 0.90939 0.41088 0.49922 0.0
C1074 C 0.90897 0.43387 0.49408 0.0
C1075 C 0.92583 0.44124 0.48438 0.0
C1076 C 0.94316 0.42576 0.47968 0.0
C1077 C 0.94364 0.40284 0.48466 0.0
C1078 C 0.92683 0.39538 0.49437 0.0
C1079 C 0.81939 0.32382 0.51575 0.0
C1080 C 0.83425 0.30445 0.51402 0.0
C1081 C 0.82829 0.34652 0.51515 0.0
C1082 C 0.85237 0.35016 0.51347 0.0
C1083 C 0.86685 0.33079 0.51063 0.0
C1084 C 0.8578 0.3081 0.51076 0.0
C1085 C 0.86299 0.3736 0.51636 0.0
C1086 C 0.87922 0.38219 0.50653 0.0
C1087 C 0.85849 0.38669 0.52937 0.0
C1088 C 0.84342 0.3778 0.54097 0.0
C1089 C 0.84891 0.35674 0.5479 0.0
C1090 C 0.8346 0.34842 0.5588 0.0
C1091 C 0.81488 0.36114 0.56297 0.0
C1092 C 0.80948 0.38225 0.55627 0.0
C1093 C 0.82372 0.39062 0.54535 0.0
H1094 H 0.80382 0.35468 0.57141 0.0
H1095 H 0.95619 0.4315 0.47217 0.0
H1096 H 0.64842 0.05925 0.45623 0.0
H1097 H 0.67572 0.08645 0.46836 0.0
H1098 H 0.62092 0.138 0.47211 0.0
H1099 H 0.59379 0.11141 0.45901 0.0
H1100 H 0.65879 0.15855 0.46454 0.0
H1101 H 0.64082 0.10605 0.502 0.0
H1102 H 0.63511 0.06807 0.51361 0.0
H1103 H 0.70766 0.05153 0.50814 0.0
H1104 H 0.71374 0.08928 0.49631 0.0
H1105 H 0.73145 0.22396 0.51799 0.0
H1106 H 0.69899 0.20021 0.50763 0.0
H1107 H 0.7483 0.15322 0.48741 0.0
H1108 H 0.78073 0.17705 0.49735 0.0
H1109 H 0.71007 0.13269 0.50558 0.0
H1110 H 0.72521 0.18562 0.46586 0.0
H1111 H 0.72934 0.22477 0.45548 0.0
H1112 H 0.65916 0.24184 0.46754 0.0
H1113 H 0.65475 0.20287 0.47819 0.0
C1114 C 0.64218 0.07648 0.45943 0.0
C1115 C 0.61886 0.08311 0.45661 0.0
C1116 C 0.65776 0.0919 0.46659 0.0
C1117 C 0.65026 0.11411 0.47142 0.0
C1118 C 0.62705 0.12089 0.46858 0.0
C1119 C 0.6115 0.10556 0.46122 0.0
C1120 C 0.66693 0.13038 0.47909 0.0
C1121 C 0.66967 0.15299 0.47369 0.0
C1122 C 0.68122 0.12318 0.49102 0.0
C1123 C 0.67769 0.10044 0.49816 0.0
C1124 C 0.65552 0.09424 0.50318 0.0
C1125 C 0.65223 0.07276 0.50981 0.0
C1126 C 0.671 0.05737 0.51158 0.0
C1127 C 0.69313 0.06346 0.50675 0.0
C1128 C 0.69651 0.08491 0.50009 0.0
C1129 C 0.73533 0.20861 0.51129 0.0
C1130 C 0.75859 0.20235 0.50844 0.0
C1131 C 0.71682 0.19514 0.50539 0.0
C1132 C 0.72139 0.17505 0.49682 0.0
C1133 C 0.74454 0.1687 0.49404 0.0
C1134 C 0.76299 0.18238 0.49966 0.0
C1135 C 0.70211 0.16039 0.49078 0.0
C1136 C 0.6989 0.13818 0.49654 0.0
C1137 C 0.68711 0.16809 0.47941 0.0
C1138 C 0.68976 0.19147 0.47299 0.0
C1139 C 0.71075 0.19782 0.46644 0.0
C1140 C 0.71312 0.21995 0.46047 0.0
C1141 C 0.69455 0.23582 0.4609 0.0
C1142 C 0.67355 0.22955 0.46725 0.0
C1143 C 0.6711 0.20745 0.47325 0.0
H1144 H 0.69641 0.25294 0.45627 0.0
H1145 H 0.66841 0.04075 0.51672 0.0
H1146 H 0.99733 0.14183 0.69493 0.0
H1147 H 0.96774 0.17022 0.7025 0.0
H1148 H 0.92586 0.11432 0.71901 0.0
H1149 H 0.95525 0.0858 0.71113 0.0
H1150 H 0.8991 0.14311 0.70438 0.0
H1151 H 0.95802 0.15201 0.74208 0.0
H1152 H 0.99774 0.15834 0.7525 0.0
H1153 H 0.00027 0.22597 0.73319 0.0
H1154 H 0.96066 0.21991 0.72248 0.0
H1155 H 0.82723 0.21573 0.7501 0.0
H1156 H 0.85496 0.18687 0.74056 0.0
H1157 H 0.88952 0.24085 0.71704 0.0
H1158 H 0.86172 0.26981 0.72636 0.0
H1159 H 0.91956 0.21331 0.73509 0.0
H1160 H 0.85916 0.20352 0.69792 0.0
H1161 H 0.81889 0.19645 0.68861 0.0
H1162 H 0.81865 0.12933 0.70867 0.0
H1163 H 0.85882 0.13615 0.71828 0.0
C1164 C 0.98192 0.13566 0.70033 0.0
C1165 C 0.97862 0.11168 0.70255 0.0
C1166 C 0.96503 0.15187 0.70464 0.0
C1167 C 0.94472 0.14444 0.71151 0.0
C1168 C 0.94139 0.12046 0.71373 0.0
C1169 C 0.95817 0.1042 0.70926 0.0
C1170 C 0.9268 0.16165 0.71616 0.0
C1171 C 0.90354 0.15828 0.71126 0.0
C1172 C 0.93263 0.18169 0.72492 0.0
C1173 C 0.95646 0.1854 0.73136 0.0
C1174 C 0.96711 0.16816 0.73996 0.0
C1175 C 0.9896 0.17171 0.74594 0.0
C1176 C 0.00155 0.19252 0.74348 0.0
C1177 C 0.99101 0.20985 0.73507 0.0
C1178 C 0.96853 0.20637 0.72905 0.0
C1179 C 0.84057 0.22141 0.74276 0.0
C1180 C 0.84233 0.24505 0.73901 0.0
C1181 C 0.85633 0.20491 0.73731 0.0
C1182 C 0.87422 0.2118 0.72811 0.0
C1183 C 0.8758 0.23526 0.72413 0.0
C1184 C 0.85985 0.25173 0.72942 0.0
C1185 C 0.89202 0.19473 0.72329 0.0
C1186 C 0.91521 0.19812 0.72819 0.0
C1187 C 0.88606 0.17459 0.71471 0.0
C1188 C 0.86191 0.17046 0.70895 0.0
C1189 C 0.85044 0.18735 0.70046 0.0
C1190 C 0.82765 0.18336 0.6951 0.0
C1191 C 0.8162 0.16248 0.69808 0.0
C1192 C 0.82753 0.14551 0.70639 0.0
C1193 C 0.85032 0.14942 0.71178 0.0
H1194 H 0.79855 0.15943 0.69392 0.0
H1195 H 0.01895 0.19524 0.74812 0.0
H1196 H 0.93562 0.43947 0.97453 0.0
H1197 H 0.91181 0.40727 0.98312 0.0
H1198 H 0.87094 0.40746 0.94288 0.0
H1199 H 0.89496 0.43926 0.93404 0.0
H1200 H 0.84405 0.40848 0.9674 0.0
H1201 H 0.9089 0.3644 0.94868 0.0
H1202 H 0.95052 0.35406 0.94639 0.0
H1203 H 0.95496 0.33902 0.99213 0.0
H1204 H 0.91342 0.3496 0.99474 0.0
H1205 H 0.77584 0.30873 0.97719 0.0
H1206 H 0.80441 0.33505 0.96695 0.0
H1207 H 0.84795 0.32952 0.00588 0.0
H1208 H 0.81971 0.3026 0.01607 0.0
H1209 H 0.87429 0.33105 0.98227 0.0
H1210 H 0.80975 0.37469 0.00119 0.0
H1211 H 0.76854 0.38624 0.00397 0.0
H1212 H 0.7642 0.40432 0.9587 0.0
H1213 H 0.80504 0.39209 0.95553 0.0
C1214 C 0.9218 0.43242 0.9674 0.0
C1215 C 0.91713 0.44201 0.95361 0.0
C1216 C 0.90821 0.41405 0.97234 0.0
C1217 C 0.88973 0.40494 0.96359 0.0
C1218 C 0.88512 0.41432 0.9498 0.0
C1219 C 0.89876 0.43258 0.94482 0.0
C1220 C 0.8744 0.38641 0.96909 0.0
C1221 C 0.85057 0.3914 0.97044 0.0
C1222 C 0.88315 0.36448 0.9735 0.0
C1223 C 0.90811 0.35802 0.97194 0.0
C1224 C 0.9188 0.35908 0.95828 0.0
C1225 C 0.94237 0.35314 0.95692 0.0
C1226 C 0.9554 0.34595 0.96912 0.0
C1227 C 0.94486 0.34462 0.9827 0.0
C1228 C 0.9213 0.35057 0.98412 0.0
C1229 C 0.79163 0.31287 0.98351 0.0
C1230 C 0.79539 0.30379 0.99752 0.0
C1231 C 0.80791 0.32798 0.97766 0.0
C1232 C 0.82804 0.33467 0.9858 0.0
C1233 C 0.83246 0.32469 0.99945 0.0
C1234 C 0.81629 0.30934 0.00526 0.0
C1235 C 0.84379 0.35299 0.98039 0.0
C1236 C 0.86772 0.34807 0.97916 0.0
C1237 C 0.83517 0.37513 0.97618 0.0
C1238 C 0.81041 0.38217 0.97808 0.0
C1239 C 0.7999 0.38081 0.99178 0.0
C1240 C 0.77657 0.38746 0.99343 0.0
C1241 C 0.76366 0.39584 0.9815 0.0
C1242 C 0.77408 0.39762 0.96792 0.0
C1243 C 0.79731 0.39078 0.96618 0.0
H1244 H 0.74562 0.40105 0.98281 0.0
H1245 H 0.97364 0.34135 0.96804 0.0
H1246 H 0.62075 0.44526 0.20819 0.0
H1247 H 0.65061 0.42308 0.22146 0.0
H1248 H 0.59766 0.37593 0.23609 0.0
H1249 H 0.56758 0.39834 0.22309 0.0
H1250 H 0.63435 0.38521 0.25739 0.0
H1251 H 0.62336 0.36055 0.20656 0.0
H1252 H 0.61986 0.36902 0.18029 0.0
H1253 H 0.68941 0.39743 0.18151 0.0
H1254 H 0.69321 0.38935 0.20786 0.0
H1255 H 0.69099 0.27508 0.26274 0.0
H1256 H 0.66698 0.30994 0.2597 0.0
H1257 H 0.72476 0.34506 0.24011 0.0
H1258 H 0.74867 0.30996 0.24271 0.0
H1259 H 0.68831 0.34624 0.22276 0.0
H1260 H 0.70136 0.3639 0.27355 0.0
H1261 H 0.70334 0.3563 0.29996 0.0
H1262 H 0.6298 0.34107 0.29932 0.0
H1263 H 0.62742 0.34826 0.27286 0.0
C1264 C 0.61537 0.43056 0.21456 0.0
C1265 C 0.59187 0.42334 0.21445 0.0
C1266 C 0.63245 0.4179 0.22211 0.0
C1267 C 0.62631 0.39779 0.22963 0.0
C1268 C 0.60271 0.39143 0.23036 0.0
C1269 C 0.58561 0.40406 0.22278 0.0
C1270 C 0.64465 0.38166 0.23498 0.0
C1271 C 0.64618 0.37658 0.24989 0.0
C1272 C 0.66022 0.37079 0.22515 0.0
C1273 C 0.65848 0.37457 0.20918 0.0
C1274 C 0.63789 0.36864 0.20122 0.0
C1275 C 0.63584 0.37337 0.18633 0.0
C1276 C 0.65435 0.38385 0.17926 0.0
C1277 C 0.67506 0.38936 0.18702 0.0
C1278 C 0.67719 0.38467 0.20193 0.0
C1279 C 0.69881 0.29043 0.25814 0.0
C1280 C 0.72164 0.28966 0.2528 0.0
C1281 C 0.68506 0.31043 0.25646 0.0
C1282 C 0.69404 0.33017 0.24967 0.0
C1283 C 0.71742 0.33001 0.24531 0.0
C1284 C 0.73108 0.30993 0.24683 0.0
C1285 C 0.67826 0.34955 0.24533 0.0
C1286 C 0.67698 0.35513 0.23046 0.0
C1287 C 0.66293 0.36074 0.25524 0.0
C1288 C 0.66426 0.35647 0.27118 0.0
C1289 C 0.68564 0.35876 0.27901 0.0
C1290 C 0.68682 0.35456 0.294 0.0
C1291 C 0.66671 0.34817 0.30131 0.0
C1292 C 0.64536 0.34602 0.29365 0.0
C1293 C 0.64408 0.3502 0.27865 0.0
H1294 H 0.66767 0.34492 0.31291 0.0
H1295 H 0.65262 0.38771 0.16776 0.0
H1296 H 0.13064 0.91778 0.37363 0.0
H1297 H 0.15296 0.89145 0.38942 0.0
H1298 H 0.14013 0.93716 0.42664 0.0
H1299 H 0.11811 0.9636 0.41092 0.0
H1300 H 0.18402 0.92321 0.42718 0.0
H1301 H 0.10906 0.88574 0.42014 0.0
H1302 H 0.07593 0.86869 0.40576 0.0
H1303 H 0.1218 0.81784 0.38636 0.0
H1304 H 0.15527 0.8348 0.40049 0.0
H1305 H 0.20951 0.84801 0.48528 0.0
H1306 H 0.18868 0.87241 0.46776 0.0
H1307 H 0.20874 0.8257 0.43247 0.0
H1308 H 0.22951 0.80097 0.44995 0.0
H1309 H 0.16283 0.83925 0.42991 0.0
H1310 H 0.23755 0.87618 0.43805 0.0
H1311 H 0.27012 0.89316 0.45296 0.0
H1312 H 0.22393 0.94515 0.47081 0.0
H1313 H 0.19099 0.92828 0.45615 0.0
C1314 C 0.13257 0.92215 0.38519 0.0
C1315 C 0.12264 0.94273 0.39105 0.0
C1316 C 0.14529 0.9071 0.3942 0.0
C1317 C 0.14797 0.91219 0.40925 0.0
C1318 C 0.13833 0.9329 0.41506 0.0
C1319 C 0.1258 0.94803 0.40606 0.0
C1320 C 0.16072 0.89599 0.41904 0.0
C1321 C 0.17921 0.90492 0.42788 0.0
C1322 C 0.15482 0.87197 0.41971 0.0
C1323 C 0.13471 0.8617 0.41125 0.0
C1324 C 0.11211 0.87104 0.41272 0.0
C1325 C 0.09327 0.86137 0.40463 0.0
C1326 C 0.09677 0.84224 0.39512 0.0
C1327 C 0.11912 0.83269 0.39371 0.0
C1328 C 0.13803 0.84231 0.40177 0.0
C1329 C 0.20942 0.84281 0.4738 0.0
C1330 C 0.22131 0.82259 0.46901 0.0
C1331 C 0.19758 0.85685 0.4638 0.0
C1332 C 0.19746 0.85103 0.4488 0.0
C1333 C 0.20871 0.83052 0.444 0.0
C1334 C 0.2206 0.81645 0.454 0.0
C1335 C 0.18587 0.86659 0.43814 0.0
C1336 C 0.16767 0.85753 0.42914 0.0
C1337 C 0.19194 0.89052 0.43736 0.0
C1338 C 0.21177 0.90084 0.44609 0.0
C1339 C 0.2343 0.89113 0.44523 0.0
C1340 C 0.25284 0.90076 0.45362 0.0
C1341 C 0.24909 0.92019 0.46285 0.0
C1342 C 0.22681 0.93009 0.46367 0.0
C1343 C 0.2082 0.92052 0.45531 0.0
H1344 H 0.26346 0.92761 0.46934 0.0
H1345 H 0.08216 0.83478 0.38887 0.0
H1346 H 0.04776 0.60375 0.66276 0.0
H1347 H 0.07291 0.62421 0.6809 0.0
H1348 H 0.12402 0.63578 0.64789 0.0
H1349 H 0.09897 0.6152 0.62971 0.0
H1350 H 0.14455 0.62099 0.67238 0.0
H1351 H 0.08857 0.68012 0.66014 0.0
H1352 H 0.04921 0.69684 0.65641 0.0
H1353 H 0.03442 0.68675 0.70162 0.0
H1354 H 0.0736 0.66965 0.70557 0.0
H1355 H 0.21272 0.70528 0.7127 0.0
H1356 H 0.18718 0.68599 0.69431 0.0
H1357 H 0.13755 0.67078 0.72754 0.0
H1358 H 0.16289 0.6902 0.74603 0.0
H1359 H 0.11638 0.6878 0.70285 0.0
H1360 H 0.17258 0.62836 0.71485 0.0
H1361 H 0.21215 0.61202 0.7184 0.0
H1362 H 0.22668 0.62329 0.67328 0.0
H1363 H 0.18729 0.64002 0.66952 0.0
C1364 C 0.06425 0.61088 0.65934 0.0
C1365 C 0.07138 0.60793 0.6448 0.0
C1366 C 0.0786 0.62255 0.66971 0.0
C1367 C 0.10023 0.63175 0.66571 0.0
C1368 C 0.10741 0.62879 0.65122 0.0
C1369 C 0.09312 0.61701 0.64085 0.0
C1370 C 0.11558 0.64403 0.67672 0.0
C1371 C 0.13849 0.63582 0.67889 0.0
C1372 C 0.1075 0.66304 0.68544 0.0
C1373 C 0.08395 0.6734 0.68311 0.0
C1374 C 0.07686 0.6813 0.66926 0.0
C1375 C 0.05459 0.69087 0.66711 0.0
C1376 C 0.0393 0.6928 0.67876 0.0
C1377 C 0.04627 0.68521 0.6926 0.0
C1378 C 0.06852 0.6756 0.6948 0.0
C1379 C 0.19639 0.69782 0.71612 0.0
C1380 C 0.1899 0.69921 0.73086 0.0
C1381 C 0.18185 0.68674 0.70559 0.0
C1382 C 0.16059 0.67677 0.7096 0.0
C1383 C 0.15391 0.67834 0.72424 0.0
C1384 C 0.16847 0.68937 0.73479 0.0
C1385 C 0.14529 0.66474 0.69848 0.0
C1386 C 0.1224 0.67299 0.69631 0.0
C1387 C 0.15341 0.64582 0.68972 0.0
C1388 C 0.17707 0.63566 0.69194 0.0
C1389 C 0.18428 0.62753 0.70572 0.0
C1390 C 0.20666 0.61816 0.70776 0.0
C1391 C 0.22194 0.61667 0.69609 0.0
C1392 C 0.21484 0.62448 0.68233 0.0
C1393 C 0.19248 0.6339 0.68023 0.0
H1394 H 0.23926 0.60941 0.69769 0.0
H1395 H 0.02206 0.70022 0.67708 0.0
H1396 H 0.45729 0.54819 0.90301 0.0
H1397 H 0.4341 0.57434 0.91851 0.0
H1398 H 0.39171 0.59321 0.88099 0.0
H1399 H 0.41499 0.5671 0.86536 0.0
H1400 H 0.40562 0.63172 0.8991 0.0
H1401 H 0.36975 0.55637 0.90339 0.0
H1402 H 0.36906 0.51401 0.90784 0.0
H1403 H 0.39607 0.52657 0.95154 0.0
H1404 H 0.39725 0.56901 0.94728 0.0
H1405 H 0.31731 0.6879 0.94099 0.0
H1406 H 0.3384 0.66304 0.92361 0.0
H1407 H 0.37726 0.63241 0.95934 0.0
H1408 H 0.35579 0.65665 0.97677 0.0
H1409 H 0.36335 0.59956 0.94087 0.0
H1410 H 0.40123 0.67412 0.9367 0.0
H1411 H 0.4034 0.71652 0.93254 0.0
H1412 H 0.37433 0.7058 0.88917 0.0
H1413 H 0.37169 0.66334 0.89315 0.0
C1414 C 0.44315 0.55805 0.89805 0.0
C1415 C 0.43786 0.55559 0.88301 0.0
C1416 C 0.42985 0.57285 0.90692 0.0
C1417 C 0.41109 0.58549 0.90089 0.0
C1418 C 0.40607 0.5835 0.88583 0.0
C1419 C 0.41925 0.56851 0.87696 0.0
C1420 C 0.39661 0.60057 0.91044 0.0
C1421 C 0.39606 0.62471 0.90811 0.0
C1422 C 0.3846 0.59137 0.92235 0.0
C1423 C 0.38378 0.56586 0.92497 0.0
C1424 C 0.37572 0.55009 0.91391 0.0
C1425 C 0.37521 0.52607 0.91641 0.0
C1426 C 0.38256 0.5176 0.92995 0.0
C1427 C 0.3904 0.53315 0.94105 0.0
C1428 C 0.39097 0.5572 0.93861 0.0
C1429 C 0.3304 0.67592 0.94514 0.0
C1430 C 0.33489 0.67427 0.96026 0.0
C1431 C 0.34251 0.66178 0.93518 0.0
C1432 C 0.35962 0.64604 0.94016 0.0
C1433 C 0.36412 0.6444 0.95525 0.0
C1434 C 0.35186 0.65832 0.9652 0.0
C1435 C 0.37258 0.63091 0.92972 0.0
C1436 C 0.37281 0.60667 0.93184 0.0
C1437 C 0.38444 0.64007 0.9177 0.0
C1438 C 0.38603 0.66559 0.91528 0.0
C1439 C 0.39512 0.68082 0.92632 0.0
C1440 C 0.39647 0.70486 0.92399 0.0
C1441 C 0.38894 0.71386 0.91062 0.0
C1442 C 0.38011 0.69881 0.89953 0.0
C1443 C 0.3787 0.67476 0.90182 0.0
H1444 H 0.39 0.73247 0.90883 0.0
H1445 H 0.38215 0.49899 0.93186 0.0
H1446 H 0.42389 0.9488 0.13971 0.0
H1447 H 0.39927 0.92758 0.1564 0.0
H1448 H 0.45943 0.88859 0.17146 0.0
H1449 H 0.484 0.90941 0.15448 0.0
H1450 H 0.42358 0.86047 0.16824 0.0
H1451 H 0.43633 0.93544 0.19164 0.0
H1452 H 0.43679 0.97855 0.19361 0.0
H1453 H 0.36246 0.98017 0.18588 0.0
H1454 H 0.36161 0.93705 0.18367 0.0
H1455 H 0.37559 0.82072 0.23415 0.0
H1456 H 0.39922 0.84112 0.21657 0.0
H1457 H 0.33695 0.87231 0.19804 0.0
H1458 H 0.3131 0.85195 0.21561 0.0
H1459 H 0.37337 0.90418 0.20298 0.0
H1460 H 0.36157 0.82807 0.18023 0.0
H1461 H 0.36227 0.78491 0.17918 0.0
H1462 H 0.43661 0.78564 0.18697 0.0
H1463 H 0.4363 0.82882 0.18827 0.0
C1464 C 0.43184 0.93573 0.14662 0.0
C1465 C 0.45586 0.93084 0.1459 0.0
C1466 C 0.41779 0.92365 0.15617 0.0
C1467 C 0.42757 0.90678 0.1654 0.0
C1468 C 0.4515 0.90156 0.16447 0.0
C1469 C 0.46551 0.91344 0.15478 0.0
C1470 C 0.41287 0.89464 0.17603 0.0
C1471 C 0.41285 0.87006 0.17596 0.0
C1472 C 0.39851 0.9071 0.18595 0.0
C1473 C 0.39895 0.93303 0.18735 0.0
C1474 C 0.42011 0.945 0.19026 0.0
C1475 C 0.42043 0.96943 0.19143 0.0
C1476 C 0.39967 0.98209 0.18983 0.0
C1477 C 0.37853 0.97034 0.1871 0.0
C1478 C 0.37812 0.9459 0.18589 0.0
C1479 C 0.36689 0.83194 0.22635 0.0
C1480 C 0.34244 0.83467 0.22625 0.0
C1481 C 0.38042 0.8435 0.21628 0.0
C1482 C 0.3698 0.85804 0.20593 0.0
C1483 C 0.34546 0.86111 0.20593 0.0
C1484 C 0.33186 0.84941 0.21595 0.0
C1485 C 0.38415 0.87012 0.19516 0.0
C1486 C 0.3841 0.89466 0.19523 0.0
C1487 C 0.39864 0.85764 0.18536 0.0
C1488 C 0.39887 0.83168 0.18448 0.0
C1489 C 0.37804 0.81903 0.18183 0.0
C1490 C 0.37837 0.79456 0.18117 0.0
C1491 C 0.39946 0.78254 0.18304 0.0
C1492 C 0.42028 0.79497 0.18554 0.0
C1493 C 0.42004 0.81944 0.18622 0.0
H1494 H 0.39968 0.7636 0.18253 0.0
H1495 H 0.39996 0.00101 0.19075 0.0
H1496 H 0.04875 0.64879 0.89998 0.0
H1497 H 0.07346 0.67272 0.88473 0.0
H1498 H 0.10798 0.6103 0.86874 0.0
H1499 H 0.08378 0.58649 0.88425 0.0
H1500 H 0.13878 0.64372 0.87276 0.0
H1501 H 0.06258 0.63763 0.84924 0.0
H1502 H 0.01966 0.64157 0.84764 0.0
H1503 H 0.02571 0.71568 0.8558 0.0
H1504 H 0.06868 0.71212 0.85764 0.0
H1505 H 0.18086 0.67943 0.80489 0.0
H1506 H 0.15923 0.66097 0.82417 0.0
H1507 H 0.1347 0.72859 0.83913 0.0
H1508 H 0.15622 0.74729 0.81975 0.0
H1509 H 0.09962 0.6959 0.83723 0.0
H1510 H 0.17705 0.70143 0.85828 0.0
H1511 H 0.21987 0.69634 0.85889 0.0
H1512 H 0.21138 0.62184 0.8543 0.0
H1513 H 0.16849 0.6265 0.85345 0.0
C1514 C 0.06174 0.64026 0.89327 0.0
C1515 C 0.06429 0.6158 0.89322 0.0
C1516 C 0.0758 0.65391 0.88454 0.0
C1517 C 0.09229 0.64328 0.87536 0.0
C1518 C 0.09538 0.61892 0.87571 0.0
C1519 C 0.08157 0.60532 0.88458 0.0
C1520 C 0.10575 0.65727 0.86497 0.0
C1521 C 0.13019 0.65499 0.86493 0.0
C1522 C 0.09462 0.67239 0.85492 0.0
C1523 C 0.06881 0.67457 0.85374 0.0
C1524 C 0.05474 0.65474 0.85079 0.0
C1525 C 0.03041 0.6569 0.84983 0.0
C1526 C 0.01996 0.67885 0.85166 0.0
C1527 C 0.03383 0.69869 0.85442 0.0
C1528 C 0.05817 0.69661 0.85541 0.0
C1529 C 0.17089 0.69043 0.81227 0.0
C1530 C 0.17032 0.71487 0.81079 0.0
C1531 C 0.15862 0.67984 0.82334 0.0
C1532 C 0.14561 0.69344 0.8332 0.0
C1533 C 0.14473 0.7178 0.83167 0.0
C1534 C 0.15707 0.72844 0.8206 0.0
C1535 C 0.13256 0.68206 0.84491 0.0
C1536 C 0.10821 0.68483 0.84518 0.0
C1537 C 0.14375 0.66721 0.85506 0.0
C1538 C 0.16955 0.66434 0.85569 0.0
C1539 C 0.18431 0.68397 0.8573 0.0
C1540 C 0.20859 0.68116 0.8577 0.0
C1541 C 0.21834 0.65878 0.85661 0.0
C1542 C 0.20381 0.63916 0.85514 0.0
C1543 C 0.17951 0.64188 0.85471 0.0
H1544 H 0.23714 0.65665 0.85692 0.0
H1545 H 0.00112 0.68049 0.85092 0.0
H1546 H 0.3999 0.52937 0.12656 0.0
H1547 H 0.37485 0.55275 0.11048 0.0
H1548 H 0.43609 0.58152 0.09088 0.0
H1549 H 0.46111 0.55862 0.10717 0.0
H1550 H 0.40622 0.61494 0.096 0.0
H1551 H 0.40122 0.53783 0.07366 0.0
H1552 H 0.39363 0.49532 0.07292 0.0
H1553 H 0.32236 0.50766 0.08466 0.0
H1554 H 0.32962 0.55025 0.08566 0.0
H1555 H 0.35787 0.65939 0.03081 0.0
H1556 H 0.37907 0.6359 0.04863 0.0
H1557 H 0.31405 0.61737 0.06828 0.0
H1558 H 0.29254 0.6408 0.05037 0.0
H1559 H 0.34335 0.57938 0.06438 0.0
H1560 H 0.34849 0.65711 0.08521 0.0
H1561 H 0.35657 0.6995 0.08513 0.0
H1562 H 0.42839 0.6857 0.07537 0.0
H1563 H 0.42068 0.6432 0.07521 0.0
C1564 C 0.40795 0.54057 0.11874 0.0
C1565 C 0.43242 0.54218 0.11808 0.0
C1566 C 0.39365 0.5539 0.10955 0.0
C1567 C 0.40357 0.56873 0.09934 0.0
C1568 C 0.42802 0.57028 0.09869 0.0
C1569 C 0.4423 0.55719 0.10798 0.0
C1570 C 0.3886 0.58287 0.08943 0.0
C1571 C 0.39265 0.60708 0.08898 0.0
C1572 C 0.37045 0.57279 0.08054 0.0
C1573 C 0.36603 0.5472 0.07988 0.0
C1574 C 0.38398 0.53146 0.07619 0.0
C1575 C 0.37972 0.50736 0.0757 0.0
C1576 C 0.35754 0.4988 0.07878 0.0
C1577 C 0.33954 0.51432 0.0823 0.0
C1578 C 0.34371 0.53844 0.08282 0.0
C1579 C 0.34801 0.65034 0.0389 0.0
C1580 C 0.32349 0.65205 0.03919 0.0
C1581 C 0.36019 0.63698 0.04912 0.0
C1582 C 0.34815 0.62512 0.05988 0.0
C1583 C 0.32366 0.62646 0.06009 0.0
C1584 C 0.31142 0.63991 0.04987 0.0
C1585 C 0.36127 0.61127 0.07083 0.0
C1586 C 0.35684 0.58718 0.07149 0.0
C1587 C 0.37919 0.62142 0.07984 0.0
C1588 C 0.38396 0.64697 0.08009 0.0
C1589 C 0.36597 0.66311 0.08295 0.0
C1590 C 0.37049 0.68715 0.08297 0.0
C1591 C 0.39297 0.69528 0.08023 0.0
C1592 C 0.41099 0.67937 0.07749 0.0
C1593 C 0.40656 0.6553 0.07746 0.0
H1594 H 0.39642 0.71389 0.08026 0.0
H1595 H 0.35429 0.48013 0.0784 0.0
H1596 H 0.47843 0.92549 0.36288 0.0
H1597 H 0.45219 0.89981 0.34848 0.0
H1598 H 0.41841 0.87926 0.38782 0.0
H1599 H 0.44504 0.90483 0.40244 0.0
H1600 H 0.4276 0.84143 0.36823 0.0
H1601 H 0.39088 0.91635 0.36738 0.0
H1602 H 0.3888 0.95907 0.36446 0.0
H1603 H 0.40826 0.95078 0.31958 0.0
H1604 H 0.41081 0.90802 0.32229 0.0
H1605 H 0.3346 0.789 0.32364 0.0
H1606 H 0.35726 0.81098 0.34245 0.0
H1607 H 0.39546 0.845 0.30886 0.0
H1608 H 0.37276 0.8235 0.29007 0.0
H1609 H 0.37967 0.87611 0.32837 0.0
H1610 H 0.42001 0.80182 0.32986 0.0
H1611 H 0.42301 0.75913 0.33275 0.0
H1612 H 0.39704 0.76617 0.3763 0.0
H1613 H 0.39359 0.8089 0.37359 0.0
C1614 C 0.4656 0.91533 0.3685 0.0
C1615 C 0.46377 0.91716 0.38378 0.0
C1616 C 0.45051 0.9008 0.36025 0.0
C1617 C 0.43323 0.88786 0.36708 0.0
C1618 C 0.4316 0.88921 0.38236 0.0
C1619 C 0.44667 0.90391 0.39066 0.0
C1620 C 0.41676 0.87333 0.35803 0.0
C1621 C 0.41675 0.84899 0.35969 0.0
C1622 C 0.40287 0.88325 0.3468 0.0
C1623 C 0.40119 0.90897 0.34508 0.0
C1624 C 0.39488 0.92364 0.35692 0.0
C1625 C 0.39359 0.94787 0.35529 0.0
C1626 C 0.39843 0.95764 0.34185 0.0
C1627 C 0.40452 0.94319 0.32999 0.0
C1628 C 0.40586 0.91895 0.33156 0.0
C1629 C 0.348 0.80099 0.32027 0.0
C1630 C 0.3518 0.80457 0.30535 0.0
C1631 C 0.36095 0.8135 0.33104 0.0
C1632 C 0.37806 0.82961 0.32705 0.0
C1633 C 0.38225 0.83275 0.31218 0.0
C1634 C 0.36928 0.82038 0.30145 0.0
C1635 C 0.39105 0.84407 0.33822 0.0
C1636 C 0.39029 0.86849 0.33701 0.0
C1637 C 0.40421 0.83417 0.34982 0.0
C1638 C 0.40627 0.80851 0.35145 0.0
C1639 C 0.41474 0.79424 0.34 0.0
C1640 C 0.41656 0.77004 0.34162 0.0
C1641 C 0.41014 0.75993 0.35468 0.0
C1642 C 0.40195 0.77402 0.36618 0.0
C1643 C 0.40007 0.79822 0.36461 0.0
H1644 H 0.41157 0.7412 0.35592 0.0
H1645 H 0.39742 0.9764 0.34061 0.0
H1646 H 0.12002 0.92734 0.63067 0.0
H1647 H 0.14471 0.90574 0.61356 0.0
H1648 H 0.18993 0.96584 0.61095 0.0
H1649 H 0.16497 0.98775 0.62782 0.0
H1650 H 0.17782 0.94806 0.58412 0.0
H1651 H 0.20814 0.9181 0.62909 0.0
H1652 H 0.20606 0.90027 0.65329 0.0
H1653 H 0.17509 0.83836 0.63353 0.0
H1654 H 0.17667 0.85596 0.60923 0.0
H1655 H 0.26075 0.88674 0.54086 0.0
H1656 H 0.24306 0.90923 0.56085 0.0
H1657 H 0.19558 0.85219 0.56798 0.0
H1658 H 0.2134 0.82947 0.54825 0.0
H1659 H 0.21196 0.86989 0.59344 0.0
H1660 H 0.17827 0.9006 0.54915 0.0
H1661 H 0.17895 0.91821 0.52482 0.0
H1662 H 0.21495 0.9784 0.54324 0.0
H1663 H 0.21475 0.96099 0.56765 0.0
C1664 C 0.13526 0.93593 0.62649 0.0
C1665 C 0.14053 0.95926 0.63058 0.0
C1666 C 0.14947 0.92351 0.61681 0.0
C1667 C 0.16927 0.93413 0.61107 0.0
C1668 C 0.17478 0.9573 0.6153 0.0
C1669 C 0.16061 0.96972 0.62502 0.0
C1670 C 0.18345 0.92143 0.60007 0.0
C1671 C 0.18569 0.93117 0.58625 0.0
C1672 C 0.1932 0.89914 0.60274 0.0
C1673 C 0.19235 0.88844 0.61734 0.0
C1674 C 0.20072 0.90076 0.62991 0.0
C1675 C 0.19966 0.89068 0.64365 0.0
C1676 C 0.19041 0.86822 0.64495 0.0
C1677 C 0.18224 0.85577 0.63251 0.0
C1678 C 0.18324 0.86577 0.61875 0.0
C1679 C 0.24659 0.87896 0.54671 0.0
C1680 C 0.23841 0.85636 0.5429 0.0
C1681 C 0.23645 0.89186 0.55811 0.0
C1682 C 0.21782 0.88249 0.56581 0.0
C1683 C 0.20994 0.85977 0.56221 0.0
C1684 C 0.2201 0.84684 0.55087 0.0
C1685 C 0.20613 0.89643 0.57744 0.0
C1686 C 0.20433 0.8869 0.59137 0.0
C1687 C 0.19664 0.91886 0.57485 0.0
C1688 C 0.19674 0.92937 0.56019 0.0
C1689 C 0.1865 0.91751 0.54799 0.0
C1690 C 0.18677 0.92746 0.53419 0.0
C1691 C 0.19705 0.94937 0.53248 0.0
C1692 C 0.20703 0.9614 0.54457 0.0
C1693 C 0.20684 0.95151 0.55839 0.0
H1694 H 0.19724 0.95706 0.52179 0.0
H1695 H 0.1896 0.86045 0.65559 0.0
H1696 H 0.59065 0.37868 0.86883 0.0
H1697 H 0.6125 0.35743 0.88773 0.0
H1698 H 0.59862 0.41308 0.91908 0.0
H1699 H 0.57682 0.4342 0.90042 0.0
H1700 H 0.64369 0.40054 0.9202 0.0
H1701 H 0.56869 0.36143 0.91909 0.0
H1702 H 0.53588 0.33948 0.90735 0.0
H1703 H 0.58257 0.28373 0.89542 0.0
H1704 H 0.61574 0.30552 0.90692 0.0
H1705 H 0.67126 0.35242 0.98806 0.0
H1706 H 0.64986 0.36859 0.96725 0.0
H1707 H 0.66675 0.30748 0.94091 0.0
H1708 H 0.68771 0.29085 0.96185 0.0
H1709 H 0.62267 0.32071 0.93549 0.0
H1710 H 0.69725 0.35878 0.93809 0.0
H1711 H 0.7299 0.3807 0.94993 0.0
H1712 H 0.68418 0.43869 0.95879 0.0
H1713 H 0.65111 0.4169 0.94722 0.0
C1714 C 0.59218 0.38628 0.87978 0.0
C1715 C 0.58219 0.40821 0.88309 0.0
C1716 C 0.60465 0.37414 0.89055 0.0
C1717 C 0.60712 0.38367 0.90482 0.0
C1718 C 0.59708 0.40549 0.90812 0.0
C1719 C 0.58471 0.41759 0.89741 0.0
C1720 C 0.62039 0.3713 0.91641 0.0
C1721 C 0.63896 0.38316 0.92362 0.0
C1722 C 0.61466 0.34835 0.92058 0.0
C1723 C 0.59473 0.33522 0.91372 0.0
C1724 C 0.57199 0.34458 0.91385 0.0
C1725 C 0.55333 0.33215 0.90726 0.0
C1726 C 0.55715 0.31025 0.9006 0.0
C1727 C 0.57965 0.30071 0.90056 0.0
C1728 C 0.59838 0.31308 0.90712 0.0
C1729 C 0.67035 0.34235 0.97787 0.0
C1730 C 0.68136 0.32044 0.97657 0.0
C1731 C 0.65817 0.35166 0.96595 0.0
C1732 C 0.6571 0.33946 0.95243 0.0
C1733 C 0.66744 0.31725 0.95122 0.0
C1734 C 0.67946 0.3078 0.96319 0.0
C1735 C 0.64563 0.3502 0.93951 0.0
C1736 C 0.6275 0.33802 0.932 0.0
C1737 C 0.65176 0.37289 0.93503 0.0
C1738 C 0.67167 0.38612 0.94188 0.0
C1739 C 0.69412 0.37614 0.94265 0.0
C1740 C 0.71271 0.38856 0.94931 0.0
C1741 C 0.70912 0.41109 0.95513 0.0
C1742 C 0.68693 0.42124 0.95428 0.0
C1743 C 0.66826 0.40886 0.94767 0.0
H1744 H 0.72352 0.42073 0.96027 0.0
H1745 H 0.54268 0.30066 0.8955 0.0
H1746 H 0.63742 0.04943 0.13326 0.0
H1747 H 0.66456 0.07378 0.14791 0.0
H1748 H 0.61437 0.13013 0.14806 0.0
H1749 H 0.58766 0.1064 0.13266 0.0
H1750 H 0.65682 0.14748 0.14656 0.0
H1751 H 0.61865 0.09164 0.17641 0.0
H1752 H 0.60646 0.05226 0.18363 0.0
H1753 H 0.6784 0.03179 0.18858 0.0
H1754 H 0.69101 0.07099 0.1812 0.0
H1755 H 0.69263 0.17417 0.22771 0.0
H1756 H 0.67162 0.15137 0.20878 0.0
H1757 H 0.72419 0.16836 0.17768 0.0
H1758 H 0.74512 0.19186 0.19656 0.0
H1759 H 0.68237 0.11398 0.19384 0.0
H1760 H 0.69816 0.17043 0.14344 0.0
H1761 H 0.70561 0.21166 0.13761 0.0
H1762 H 0.67062 0.23437 0.17648 0.0
H1763 H 0.6627 0.19331 0.18243 0.0
C1764 C 0.63234 0.0672 0.13607 0.0
C1765 C 0.61019 0.07585 0.13191 0.0
C1766 C 0.64782 0.08103 0.14459 0.0
C1767 C 0.64131 0.1036 0.14933 0.0
C1768 C 0.61972 0.11271 0.1446 0.0
C1769 C 0.60434 0.099 0.13595 0.0
C1770 C 0.65617 0.11711 0.16003 0.0
C1771 C 0.66256 0.14012 0.15686 0.0
C1772 C 0.66329 0.10767 0.17359 0.0
C1773 C 0.65576 0.08414 0.1781 0.0
C1774 C 0.63186 0.07868 0.17894 0.0
C1775 C 0.62488 0.05641 0.18308 0.0
C1776 C 0.64164 0.03951 0.18652 0.0
C1777 C 0.66543 0.04488 0.18588 0.0
C1778 C 0.67251 0.06712 0.18173 0.0
C1779 C 0.69979 0.17309 0.21685 0.0
C1780 C 0.72054 0.1849 0.21364 0.0
C1781 C 0.68776 0.15998 0.20604 0.0
C1782 C 0.69622 0.15828 0.19179 0.0
C1783 C 0.71714 0.16973 0.18856 0.0
C1784 C 0.72913 0.18306 0.19937 0.0
C1785 C 0.68297 0.14443 0.18043 0.0
C1786 C 0.67693 0.12129 0.18347 0.0
C1787 C 0.67558 0.15403 0.16697 0.0
C1788 C 0.68011 0.17879 0.16346 0.0
C1789 C 0.69202 0.18423 0.15072 0.0
C1790 C 0.69633 0.20757 0.1474 0.0
C1791 C 0.68868 0.22562 0.1567 0.0
C1792 C 0.67663 0.22037 0.16932 0.0
C1793 C 0.67226 0.19707 0.17268 0.0
H1794 H 0.69204 0.24367 0.15411 0.0
H1795 H 0.63621 0.02228 0.18973 0.0
H1796 H 0.95627 0.07091 0.40325 0.0
H1797 H 0.93516 0.09593 0.42048 0.0
H1798 H 0.98353 0.15224 0.41354 0.0
H1799 H 0.00453 0.12748 0.39605 0.0
H1800 H 0.97577 0.14559 0.44277 0.0
H1801 H 0.92934 0.15351 0.39839 0.0
H1802 H 0.90546 0.14028 0.37693 0.0
H1803 H 0.85705 0.10732 0.40509 0.0
H1804 H 0.88083 0.11999 0.42669 0.0
H1805 H 0.91025 0.23286 0.48086 0.0
H1806 H 0.93201 0.21069 0.46243 0.0
H1807 H 0.8815 0.15471 0.46368 0.0
H1808 H 0.85936 0.17698 0.48173 0.0
H1809 H 0.89113 0.16273 0.43671 0.0
H1810 H 0.93649 0.15148 0.48063 0.0
H1811 H 0.95876 0.16362 0.50297 0.0
H1812 H 0.00805 0.19991 0.47706 0.0
H1813 H 0.98586 0.18829 0.45457 0.0
C1814 C 0.96224 0.08872 0.40519 0.0
C1815 C 0.98208 0.09719 0.39821 0.0
C1816 C 0.95019 0.10298 0.4151 0.0
C1817 C 0.95768 0.12599 0.4182 0.0
C1818 C 0.97749 0.13451 0.41131 0.0
C1819 C 0.98952 0.12029 0.40136 0.0
C1820 C 0.94508 0.14101 0.42887 0.0
C1821 C 0.95733 0.14965 0.44135 0.0
C1822 C 0.92089 0.1457 0.42721 0.0
C1823 C 0.90698 0.13756 0.41416 0.0
C1824 C 0.91376 0.14321 0.4 0.0
C1825 C 0.9002 0.13586 0.38781 0.0
C1826 C 0.87975 0.12298 0.38966 0.0
C1827 C 0.87289 0.1173 0.40368 0.0
C1828 C 0.88639 0.12456 0.41589 0.0
C1829 C 0.90379 0.21583 0.4772 0.0
C1830 C 0.88308 0.20668 0.48276 0.0
C1831 C 0.91631 0.20312 0.46672 0.0
C1832 C 0.90855 0.1809 0.46179 0.0
C1833 C 0.88783 0.17182 0.4673 0.0
C1834 C 0.8752 0.18458 0.47765 0.0
C1835 C 0.9217 0.16714 0.45072 0.0
C1836 C 0.90958 0.15875 0.43814 0.0
C1837 C 0.94589 0.16233 0.45242 0.0
C1838 C 0.95936 0.16923 0.46592 0.0
C1839 C 0.95197 0.16221 0.4797 0.0
C1840 C 0.96459 0.16897 0.4924 0.0
C1841 C 0.98476 0.18259 0.49144 0.0
C1842 C 0.99239 0.1894 0.47779 0.0
C1843 C 0.97981 0.18272 0.46506 0.0
H1844 H 0.99451 0.18781 0.50128 0.0
H1845 H 0.86912 0.1175 0.38027 0.0
H1846 H 0.9443 0.44538 0.6339 0.0
H1847 H 0.92003 0.42169 0.64937 0.0
H1848 H 0.86061 0.46563 0.63967 0.0
H1849 H 0.8849 0.48951 0.62416 0.0
H1850 H 0.86465 0.459 0.66819 0.0
H1851 H 0.86399 0.40938 0.62549 0.0
H1852 H 0.8807 0.38693 0.60487 0.0
H1853 H 0.9192 0.34421 0.63496 0.0
H1854 H 0.90297 0.36661 0.65577 0.0
H1855 H 0.78819 0.38437 0.70645 0.0
H1856 H 0.80593 0.40636 0.68694 0.0
H1857 H 0.87062 0.36884 0.6935 0.0
H1858 H 0.853 0.34659 0.7128 0.0
H1859 H 0.86004 0.37234 0.66486 0.0
H1860 H 0.86326 0.42461 0.70729 0.0
H1861 H 0.8466 0.44727 0.72785 0.0
H1862 H 0.80288 0.48508 0.69783 0.0
H1863 H 0.81908 0.46242 0.6771 0.0
C1864 C 0.92596 0.44975 0.63482 0.0
C1865 C 0.91652 0.4693 0.62777 0.0
C1866 C 0.91209 0.43618 0.64369 0.0
C1867 C 0.88841 0.44172 0.64557 0.0
C1868 C 0.87883 0.46103 0.63838 0.0
C1869 C 0.89274 0.47468 0.62955 0.0
C1870 C 0.8741 0.42809 0.6557 0.0
C1871 C 0.86325 0.44008 0.66728 0.0
C1872 C 0.87262 0.40337 0.65468 0.0
C1873 C 0.88238 0.3898 0.64219 0.0
C1874 C 0.87615 0.39531 0.62771 0.0
C1875 C 0.88552 0.38257 0.61599 0.0
C1876 C 0.90104 0.36419 0.6186 0.0
C1877 C 0.90719 0.35847 0.63295 0.0
C1878 C 0.89788 0.37116 0.64471 0.0
C1879 C 0.80619 0.38078 0.70373 0.0
C1880 C 0.8192 0.36379 0.71124 0.0
C1881 C 0.81631 0.39341 0.6926 0.0
C1882 C 0.83967 0.38939 0.68885 0.0
C1883 C 0.85256 0.37222 0.69619 0.0
C1884 C 0.84247 0.35958 0.70728 0.0
C1885 C 0.85095 0.40323 0.67744 0.0
C1886 C 0.86122 0.39128 0.66563 0.0
C1887 C 0.85187 0.42798 0.67822 0.0
C1888 C 0.84219 0.44165 0.69067 0.0
C1889 C 0.84996 0.43763 0.70509 0.0
C1890 C 0.84063 0.45049 0.71677 0.0
C1891 C 0.82364 0.46755 0.71415 0.0
C1892 C 0.816 0.47183 0.69984 0.0
C1893 C 0.82527 0.459 0.68812 0.0
H1894 H 0.81644 0.47749 0.72321 0.0
H1895 H 0.90827 0.35435 0.60951 0.0
H1896 H 0.61167 0.1023 0.39077 0.0
H1897 H 0.63292 0.12776 0.37456 0.0
H1898 H 0.61327 0.083 0.3376 0.0
H1899 H 0.59202 0.05749 0.35373 0.0
H1900 H 0.65856 0.09383 0.33708 0.0
H1901 H 0.58682 0.1362 0.34364 0.0
H1902 H 0.55578 0.1555 0.35779 0.0
H1903 H 0.60609 0.20349 0.37715 0.0
H1904 H 0.6375 0.18425 0.36326 0.0
H1905 H 0.68729 0.16729 0.27936 0.0
H1906 H 0.66541 0.14433 0.29655 0.0
H1907 H 0.69012 0.18935 0.3322 0.0
H1908 H 0.71203 0.21259 0.31504 0.0
H1909 H 0.6433 0.17907 0.3341 0.0
H1910 H 0.71485 0.13715 0.32715 0.0
H1911 H 0.74584 0.11789 0.31295 0.0
H1912 H 0.69576 0.069 0.29431 0.0
H1913 H 0.66438 0.08819 0.30825 0.0
C1914 C 0.61167 0.09803 0.37916 0.0
C1915 C 0.60015 0.07788 0.37353 0.0
C1916 C 0.62384 0.11258 0.36992 0.0
C1917 C 0.62453 0.1074 0.35484 0.0
C1918 C 0.61303 0.08731 0.3492 0.0
C1919 C 0.60094 0.07272 0.35844 0.0
C1920 C 0.6376 0.12261 0.34494 0.0
C1921 C 0.655 0.11241 0.3363 0.0
C1922 C 0.63342 0.14698 0.34421 0.0
C1923 C 0.61455 0.15863 0.35253 0.0
C1924 C 0.5913 0.15075 0.351 0.0
C1925 C 0.57363 0.1617 0.35896 0.0
C1926 C 0.57897 0.18067 0.36839 0.0
C1927 C 0.60199 0.18877 0.36985 0.0
C1928 C 0.61972 0.17786 0.36194 0.0
C1929 C 0.68802 0.17241 0.29084 0.0
C1930 C 0.70153 0.19172 0.29583 0.0
C1931 C 0.67556 0.1592 0.30066 0.0
C1932 C 0.67639 0.16495 0.31567 0.0
C1933 C 0.68931 0.18458 0.32066 0.0
C1934 C 0.70186 0.19779 0.31084 0.0
C1935 C 0.66403 0.15021 0.32615 0.0
C1936 C 0.64684 0.1605 0.33492 0.0
C1937 C 0.66838 0.1259 0.327 0.0
C1938 C 0.68723 0.11426 0.31864 0.0
C1939 C 0.71041 0.12241 0.31993 0.0
C1940 C 0.72805 0.11149 0.31195 0.0
C1941 C 0.72276 0.09227 0.30271 0.0
C1942 C 0.69982 0.0839 0.30146 0.0
C1943 C 0.68211 0.09479 0.30941 0.0
H1944 H 0.73645 0.08383 0.29654 0.0
H1945 H 0.56527 0.18913 0.37454 0.0
H1946 H 0.97831 0.12979 0.64634 0.0
H1947 H 0.95164 0.15418 0.632 0.0
H1948 H 0.96367 0.11063 0.5937 0.0
H1949 H 0.99095 0.08671 0.60781 0.0
H1950 H 0.96471 0.15627 0.58738 0.0
H1951 H 0.91413 0.10503 0.61381 0.0
H1952 H 0.89879 0.08757 0.63602 0.0
H1953 H 0.87912 0.15571 0.65233 0.0
H1954 H 0.89462 0.17361 0.63027 0.0
H1955 H 0.87162 0.18157 0.53976 0.0
H1956 H 0.89878 0.1627 0.55662 0.0
H1957 H 0.87683 0.20909 0.59163 0.0
H1958 H 0.84881 0.22763 0.57483 0.0
H1959 H 0.88189 0.16625 0.60123 0.0
H1960 H 0.9295 0.2174 0.57406 0.0
H1961 H 0.94464 0.2351 0.55186 0.0
H1962 H 0.97023 0.16812 0.53718 0.0
H1963 H 0.95501 0.14995 0.55921 0.0
C1964 C 0.97547 0.12557 0.63482 0.0
C1965 C 0.98668 0.10626 0.62821 0.0
C1966 C 0.96006 0.13939 0.62669 0.0
C1967 C 0.95548 0.13406 0.61183 0.0
C1968 C 0.96691 0.11501 0.60516 0.0
C1969 C 0.98233 0.10123 0.61327 0.0
C1970 C 0.93874 0.14816 0.60313 0.0
C1971 C 0.94655 0.15831 0.59033 0.0
C1972 C 0.91525 0.15146 0.60728 0.0
C1973 C 0.90576 0.14068 0.62047 0.0
C1974 C 0.90669 0.11631 0.62218 0.0
C1975 C 0.89794 0.10633 0.63473 0.0
C1976 C 0.88805 0.12053 0.6456 0.0
C1977 C 0.88682 0.14474 0.64391 0.0
C1978 C 0.89557 0.15481 0.63139 0.0
C1979 C 0.87252 0.18778 0.55105 0.0
C1980 C 0.85821 0.20622 0.55595 0.0
C1981 C 0.88817 0.17705 0.56067 0.0
C1982 C 0.89027 0.18485 0.57531 0.0
C1983 C 0.87561 0.2029 0.58035 0.0
C1984 C 0.85964 0.21347 0.57074 0.0
C1985 C 0.90773 0.17395 0.58527 0.0
C1986 C 0.90009 0.16446 0.59834 0.0
C1987 C 0.93144 0.17135 0.58141 0.0
C1988 C 0.94098 0.18229 0.56825 0.0
C1989 C 0.93826 0.20642 0.56606 0.0
C1990 C 0.94687 0.21654 0.55352 0.0
C1991 C 0.95835 0.20273 0.54311 0.0
C1992 C 0.96133 0.17879 0.54525 0.0
C1993 C 0.95276 0.16858 0.55778 0.0
H1994 H 0.96497 0.21059 0.53339 0.0
H1995 H 0.88129 0.11278 0.65531 0.0
H1996 H 0.92686 0.48657 0.85644 0.0
H1997 H 0.90689 0.46095 0.83833 0.0
H1998 H 0.89408 0.41084 0.87173 0.0
H1999 H 0.91414 0.43635 0.88988 0.0
H2000 H 0.91012 0.38961 0.84783 0.0
H2001 H 0.85016 0.44574 0.85822 0.0
H2002 H 0.83308 0.48516 0.86105 0.0
H2003 H 0.84518 0.49815 0.81583 0.0
H2004 H 0.86264 0.45891 0.81277 0.0
H2005 H 0.8284 0.31905 0.80722 0.0
H2006 H 0.84667 0.34553 0.8255 0.0
H2007 H 0.86247 0.39412 0.79178 0.0
H2008 H 0.84403 0.36785 0.77341 0.0
H2009 H 0.84458 0.41614 0.81583 0.0
H2010 H 0.90487 0.35989 0.80569 0.0
H2011 H 0.92173 0.32035 0.80302 0.0
H2012 H 0.90851 0.3075 0.84813 0.0
H2013 H 0.89127 0.34687 0.85101 0.0
C2014 C 0.91953 0.47022 0.85995 0.0
C2015 C 0.92204 0.46347 0.87458 0.0
C2016 C 0.90813 0.4556 0.8496 0.0
C2017 C 0.89879 0.43407 0.8537 0.0
C2018 C 0.90119 0.42734 0.86831 0.0
C2019 C 0.91269 0.4419 0.87866 0.0
C2020 C 0.88712 0.41826 0.84269 0.0
C2021 C 0.89556 0.39532 0.84099 0.0
C2022 C 0.86849 0.42588 0.83352 0.0
C2023 C 0.85792 0.44946 0.83531 0.0
C2024 C 0.84935 0.45707 0.84891 0.0
C2025 C 0.83957 0.47937 0.85055 0.0
C2026 C 0.8381 0.49417 0.83864 0.0
C2027 C 0.84636 0.48668 0.82505 0.0
C2028 C 0.85618 0.4644 0.82335 0.0
C2029 C 0.83578 0.33535 0.80366 0.0
C2030 C 0.83483 0.34127 0.78883 0.0
C2031 C 0.84627 0.35043 0.81413 0.0
C2032 C 0.85612 0.37168 0.80997 0.0
C2033 C 0.85499 0.37778 0.79521 0.0
C2034 C 0.84452 0.3627 0.78472 0.0
C2035 C 0.86757 0.38753 0.82103 0.0
C2036 C 0.85911 0.41047 0.82271 0.0
C2037 C 0.88614 0.3799 0.83022 0.0
C2038 C 0.89657 0.35625 0.82853 0.0
C2039 C 0.90539 0.34857 0.81501 0.0
C2040 C 0.91504 0.32619 0.81346 0.0
C2041 C 0.91613 0.3114 0.82539 0.0
C2042 C 0.90762 0.31897 0.83889 0.0
C2043 C 0.89793 0.34132 0.84049 0.0
H2044 H 0.92362 0.29408 0.82417 0.0
H2045 H 0.83052 0.51143 0.83993 0.0
H2046 H 0.58355 0.37088 0.13988 0.0
H2047 H 0.60942 0.34816 0.12374 0.0
H2048 H 0.6242 0.41047 0.10001 0.0
H2049 H 0.59893 0.4333 0.11628 0.0
H2050 H 0.60648 0.36553 0.08341 0.0
H2051 H 0.66482 0.39699 0.11871 0.0
H2052 H 0.68271 0.40282 0.14335 0.0
H2053 H 0.68762 0.32841 0.14805 0.0
H2054 H 0.66946 0.32213 0.12352 0.0
H2055 H 0.6928 0.33256 0.03384 0.0
H2056 H 0.66909 0.3527 0.05209 0.0
H2057 H 0.68516 0.29866 0.08292 0.0
H2058 H 0.71009 0.27929 0.06495 0.0
H2059 H 0.68575 0.33692 0.097 0.0
H2060 H 0.63047 0.3029 0.0633 0.0
H2061 H 0.61205 0.29318 0.03926 0.0
H2062 H 0.59805 0.36598 0.03252 0.0
H2063 H 0.6167 0.37619 0.05644 0.0
C2064 C 0.59252 0.37968 0.13128 0.0
C2065 C 0.58938 0.40379 0.1293 0.0
C2066 C 0.60726 0.36676 0.12213 0.0
C2067 C 0.61865 0.37773 0.11075 0.0
C2068 C 0.61557 0.40179 0.10878 0.0
C2069 C 0.60125 0.41478 0.11809 0.0
C2070 C 0.63303 0.36402 0.10042 0.0
C2071 C 0.62392 0.35941 0.08628 0.0
C2072 C 0.65527 0.35526 0.10446 0.0
C2073 C 0.66554 0.3591 0.11936 0.0
C2074 C 0.66942 0.38187 0.12508 0.0
C2075 C 0.67971 0.38525 0.13899 0.0
C2076 C 0.68632 0.36599 0.14724 0.0
C2077 C 0.68252 0.34331 0.14164 0.0
C2078 C 0.67224 0.33983 0.12774 0.0
C2079 C 0.6913 0.32504 0.04453 0.0
C2080 C 0.70321 0.30435 0.04798 0.0
C2081 C 0.67759 0.33645 0.05494 0.0
C2082 C 0.67481 0.32695 0.06882 0.0
C2083 C 0.68694 0.30637 0.07231 0.0
C2084 C 0.70116 0.29528 0.06203 0.0
C2085 C 0.65948 0.33862 0.07972 0.0
C2086 C 0.66829 0.34281 0.09403 0.0
C2087 C 0.63661 0.34637 0.07597 0.0
C2088 C 0.62516 0.34032 0.06162 0.0
C2089 C 0.62359 0.31686 0.05666 0.0
C2090 C 0.61309 0.31126 0.04305 0.0
C2091 C 0.60392 0.32896 0.03436 0.0
C2092 C 0.60517 0.35229 0.03927 0.0
C2093 C 0.61569 0.35799 0.05285 0.0
H2094 H 0.59581 0.32459 0.02383 0.0
H2095 H 0.69443 0.36863 0.15797 0.0
loop_
_geom_bond_atom_site_label_1
_geom_bond_atom_site_label_2
_geom_bond_distance
_geom_bond_site_symmetry_2
_ccdc_geom_bond_type
H0 C19 0.949 . S
H1 C20 0.950 . S
H2 C22 0.950 . S
H3 C23 0.950 . S
H4 C25 0.950 . S
H5 C28 0.950 . S
H6 C29 0.950 . S
H7 C31 0.951 . S
H8 C32 0.945 1_455 S
H9 C34 0.949 . S
H10 C35 0.950 . S
H11 C37 0.950 . S
H12 C38 0.950 . S
H13 C40 0.957 . S
H14 C43 0.950 . S
H15 C44 0.950 . S
H16 C46 0.951 . S
H17 C47 0.949 1_545 S
C18 C19 1.376 . S
C18 C23 1.386 1_455 S
C18 C24 1.483 . S
C19 H0 0.949 . S
C19 C18 1.376 . S
C19 C20 1.397 . S
C20 H1 0.950 . S
C20 C19 1.397 . S
C20 C21 1.391 1_455 S
C21 C20 1.391 1_655 S
C21 C22 1.405 . S
C22 H2 0.950 . S
C22 C21 1.405 . S
C22 C23 1.367 . S
C23 H3 0.950 . S
C23 C18 1.386 1_655 S
C23 C22 1.367 . S
C24 C18 1.483 . S
C24 C25 1.382 . S
C24 C26 1.403 . S
C25 H4 0.950 . S
C25 C24 1.382 . S
C25 C41 1.411 1_545 S
C26 C24 1.403 . S
C26 C27 1.489 . S
C26 C40 1.411 . S
C27 C26 1.489 . S
C27 C28 1.383 . S
C27 C32 1.364 1_455 S
C28 H5 0.950 . S
C28 C27 1.383 . S
C28 C29 1.395 1_455 S
C29 H6 0.950 . S
C29 C28 1.395 1_655 S
C29 C30 1.288 . S
C30 C29 1.288 . S
C30 C31 1.392 . S
C31 H7 0.951 . S
C31 C30 1.392 . S
C31 C32 1.413 . S
C32 H8 0.945 1_655 S
C32 C27 1.364 1_655 S
C32 C31 1.413 . S
C33 C34 1.376 . S
C33 C38 1.386 . S
C33 C39 1.483 . S
C34 H9 0.949 . S
C34 C33 1.376 . S
C34 C35 1.397 . S
C35 H10 0.950 . S
C35 C34 1.397 . S
C35 C36 1.391 . S
C36 C35 1.391 . S
C36 C37 1.405 . S
C37 H11 0.950 . S
C37 C36 1.405 . S
C37 C38 1.367 . S
C38 H12 0.950 . S
C38 C33 1.386 . S
C38 C37 1.367 . S
C39 C33 1.483 . S
C39 C40 1.382 1_565 S
C39 C41 1.403 . S
C40 H13 0.957 . S
C40 C26 1.411 . S
C40 C39 1.382 1_545 S
C41 C25 1.411 1_565 S
C41 C39 1.403 . S
C41 C42 1.489 . S
C42 C41 1.489 . S
C42 C43 1.383 . S
C42 C47 1.382 . S
C43 H14 0.950 . S
C43 C42 1.383 . S
C43 C44 1.395 . S
C44 H15 0.950 . S
C44 C43 1.395 . S
C44 C45 1.288 . S
C45 C44 1.288 . S
C45 C46 1.392 . S
C46 H16 0.951 . S
C46 C45 1.392 . S
C46 C47 1.392 . S
C47 H17 0.949 1_565 S
C47 C42 1.382 . S
C47 C46 1.392 . S
H48 C67 0.949 1_455 S
H49 C68 0.950 . S
H50 C70 0.950 . S
H51 C71 0.950 . S
H52 C73 0.950 . S
H53 C76 0.950 . S
H54 C77 0.950 . S
H55 C79 0.951 . S
H56 C80 0.949 . S
H57 C82 0.949 . S
H58 C83 0.950 . S
H59 C85 0.950 . S
H60 C86 0.950 . S
H61 C88 0.950 . S
H62 C91 0.950 . S
H63 C92 0.950 . S
H64 C94 0.951 . S
H65 C95 0.949 . S
C66 C67 1.376 . S
C66 C71 1.386 . S
C66 C72 1.483 . S
C67 H48 0.949 1_655 S
C67 C66 1.376 . S
C67 C68 1.397 . S
C68 H49 0.950 . S
C68 C67 1.397 . S
C68 C69 1.391 . S
C69 C68 1.391 . S
C69 C70 1.405 . S
C70 H50 0.950 . S
C70 C69 1.405 . S
C70 C71 1.367 . S
C71 H51 0.950 . S
C71 C66 1.386 . S
C71 C70 1.367 . S
C72 C66 1.483 . S
C72 C73 1.382 1_655 S
C72 C74 1.403 . S
C73 H52 0.950 . S
C73 C72 1.382 1_455 S
C73 C89 1.411 . S
C74 C72 1.403 . S
C74 C75 1.489 . S
C74 C88 1.411 1_655 S
C75 C74 1.489 . S
C75 C76 1.383 . S
C75 C80 1.382 . S
C76 H53 0.950 . S
C76 C75 1.383 . S
C76 C77 1.395 . S
C77 H54 0.950 . S
C77 C76 1.395 . S
C77 C78 1.288 . S
C78 C77 1.288 . S
C78 C79 1.392 . S
C79 H55 0.951 . S
C79 C78 1.392 . S
C79 C80 1.392 . S
C80 H56 0.949 . S
C80 C75 1.382 . S
C80 C79 1.392 . S
C81 C82 1.376 . S
C81 C86 1.386 . S
C81 C87 1.483 . S
C82 H57 0.949 . S
C82 C81 1.376 . S
C82 C83 1.397 . S
C83 H58 0.950 . S
C83 C82 1.397 . S
C83 C84 1.391 . S
C84 C83 1.391 . S
C84 C85 1.405 . S
C85 H59 0.950 . S
C85 C84 1.405 . S
C85 C86 1.367 . S
C86 H60 0.950 . S
C86 C81 1.386 . S
C86 C85 1.367 . S
C87 C81 1.483 . S
C87 C88 1.382 . S
C87 C89 1.403 . S
C88 H61 0.950 . S
C88 C74 1.411 1_455 S
C88 C87 1.382 . S
C89 C73 1.411 . S
C89 C87 1.403 . S
C89 C90 1.489 . S
C90 C89 1.489 . S
C90 C91 1.383 . S
C90 C95 1.382 . S
C91 H62 0.950 . S
C91 C90 1.383 . S
C91 C92 1.395 . S
C92 H63 0.950 . S
C92 C91 1.395 . S
C92 C93 1.288 . S
C93 C92 1.288 . S
C93 C94 1.392 . S
C94 H64 0.951 . S
C94 C93 1.392 . S
C94 C95 1.392 . S
C95 H65 0.949 . S
C95 C90 1.382 . S
C95 C94 1.392 . S
H96 C115 0.949 . S
H97 C116 0.950 . S
H98 C118 0.950 . S
H99 C119 0.950 . S
H100 C121 0.950 . S
H101 C124 0.950 . S
H102 C125 0.950 . S
H103 C127 0.951 . S
H104 C128 0.949 . S
H105 C130 0.949 . S
H106 C131 0.950 . S
H107 C133 0.950 . S
H108 C134 0.950 . S
H109 C136 0.950 . S
H110 C139 0.950 . S
H111 C140 0.950 . S
H112 C142 0.951 . S
H113 C143 0.949 . S
C114 C115 1.376 . S
C114 C119 1.386 . S
C114 C120 1.483 . S
C115 H96 0.949 . S
C115 C114 1.376 . S
C115 C116 1.397 . S
C116 H97 0.950 . S
C116 C115 1.397 . S
C116 C117 1.391 . S
C117 C116 1.391 . S
C117 C118 1.405 . S
C118 H98 0.950 . S
C118 C117 1.405 . S
C118 C119 1.367 . S
C119 H99 0.950 . S
C119 C114 1.386 . S
C119 C118 1.367 . S
C120 C114 1.483 . S
C120 C121 1.382 . S
C120 C122 1.403 . S
C121 H100 0.950 . S
C121 C120 1.382 . S
C121 C137 1.411 . S
C122 C120 1.403 . S
C122 C123 1.489 . S
C122 C136 1.411 . S
C123 C122 1.489 . S
C123 C124 1.383 . S
C123 C128 1.382 . S
C124 H101 0.950 . S
C124 C123 1.383 . S
C124 C125 1.395 . S
C125 H102 0.950 . S
C125 C124 1.395 . S
C125 C126 1.288 . S
C126 C125 1.288 . S
C126 C127 1.392 . S
C127 H103 0.951 . S
C127 C126 1.392 . S
C127 C128 1.392 . S
C128 H104 0.949 . S
C128 C123 1.382 . S
C128 C127 1.392 . S
C129 C130 1.376 . S
C129 C134 1.386 . S
C129 C135 1.483 . S
C130 H105 0.949 . S
C130 C129 1.376 . S
C130 C131 1.397 . S
C131 H106 0.950 . S
C131 C130 1.397 . S
C131 C132 1.391 . S
C132 C131 1.391 . S
C132 C133 1.405 . S
C133 H107 0.950 . S
C133 C132 1.405 . S
C133 C134 1.367 . S
C134 H108 0.950 . S
C134 C129 1.386 . S
C134 C133 1.367 . S
C135 C129 1.483 . S
C135 C136 1.382 . S
C135 C137 1.403 . S
C136 H109 0.950 . S
C136 C122 1.411 . S
C136 C135 1.382 . S
C137 C121 1.411 . S
C137 C135 1.403 . S
C137 C138 1.489 . S
C138 C137 1.489 . S
C138 C139 1.383 . S
C138 C143 1.382 . S
C139 H110 0.950 . S
C139 C138 1.383 . S
C139 C140 1.395 . S
C140 H111 0.950 . S
C140 C139 1.395 . S
C140 C141 1.288 . S
C141 C140 1.288 . S
C141 C142 1.392 . S
C142 H112 0.951 . S
C142 C141 1.392 . S
C142 C143 1.392 . S
C143 H113 0.949 . S
C143 C138 1.382 . S
C143 C142 1.392 . S
H144 C163 0.949 . S
H145 C164 0.950 . S
H146 C166 0.950 . S
H147 C167 0.950 . S
H148 C169 0.950 . S
H149 C172 0.950 . S
H150 C173 0.950 . S
H151 C175 0.951 . S
H152 C176 0.949 . S
H153 C178 0.949 . S
H154 C179 0.950 . S
H155 C181 0.950 . S
H156 C182 0.950 . S
H157 C184 0.950 . S
H158 C187 0.950 . S
H159 C188 0.950 . S
H160 C190 0.951 . S
H161 C191 0.949 . S
C162 C163 1.376 . S
C162 C167 1.386 . S
C162 C168 1.483 . S
C163 H144 0.949 . S
C163 C162 1.376 . S
C163 C164 1.397 . S
C164 H145 0.950 . S
C164 C163 1.397 . S
C164 C165 1.391 . S
C165 C164 1.391 . S
C165 C166 1.405 . S
C166 H146 0.950 . S
C166 C165 1.405 . S
C166 C167 1.367 . S
C167 H147 0.950 . S
C167 C162 1.386 . S
C167 C166 1.367 . S
C168 C162 1.483 . S
C168 C169 1.382 . S
C168 C170 1.403 . S
C169 H148 0.950 . S
C169 C168 1.382 . S
C169 C185 1.411 1_565 S
C170 C168 1.403 . S
C170 C171 1.489 . S
C170 C184 1.411 1_565 S
C171 C170 1.489 . S
C171 C172 1.383 . S
C171 C176 1.382 . S
C172 H149 0.950 . S
C172 C171 1.383 . S
C172 C173 1.395 . S
C173 H150 0.950 . S
C173 C172 1.395 . S
C173 C174 1.288 . S
C174 C173 1.288 . S
C174 C175 1.392 . S
C175 H151 0.951 . S
C175 C174 1.392 . S
C175 C176 1.392 . S
C176 H152 0.949 . S
C176 C171 1.382 . S
C176 C175 1.392 . S
C177 C178 1.376 . S
C177 C182 1.386 . S
C177 C183 1.483 . S
C178 H153 0.949 . S
C178 C177 1.376 . S
C178 C179 1.397 . S
C179 H154 0.950 . S
C179 C178 1.397 . S
C179 C180 1.391 . S
C180 C179 1.391 . S
C180 C181 1.405 . S
C181 H155 0.950 . S
C181 C180 1.405 . S
C181 C182 1.367 . S
C182 H156 0.950 . S
C182 C177 1.386 . S
C182 C181 1.367 . S
C183 C177 1.483 . S
C183 C184 1.382 . S
C183 C185 1.403 . S
C184 H157 0.950 . S
C184 C170 1.411 1_545 S
C184 C183 1.382 . S
C185 C169 1.411 1_545 S
C185 C183 1.403 . S
C185 C186 1.489 . S
C186 C185 1.489 . S
C186 C187 1.383 . S
C186 C191 1.382 . S
C187 H158 0.950 . S
C187 C186 1.383 . S
C187 C188 1.395 . S
C188 H159 0.950 . S
C188 C187 1.395 . S
C188 C189 1.288 . S
C189 C188 1.288 . S
C189 C190 1.392 . S
C190 H160 0.951 . S
C190 C189 1.392 . S
C190 C191 1.392 . S
C191 H161 0.949 . S
C191 C186 1.382 . S
C191 C190 1.392 . S
H192 C211 0.949 . S
H193 C212 0.950 . S
H194 C214 0.950 . S
H195 C215 0.950 . S
H196 C217 0.950 . S
H197 C220 0.950 . S
H198 C221 0.950 . S
H199 C223 0.951 . S
H200 C224 0.949 . S
H201 C226 0.949 . S
H202 C227 0.950 . S
H203 C229 0.950 . S
H204 C230 0.950 . S
H205 C232 0.950 . S
H206 C235 0.950 . S
H207 C236 0.950 . S
H208 C238 0.951 . S
H209 C239 0.949 . S
C210 C211 1.376 . S
C210 C215 1.386 . S
C210 C216 1.483 . S
C211 H192 0.949 . S
C211 C210 1.376 . S
C211 C212 1.397 . S
C212 H193 0.950 . S
C212 C211 1.397 . S
C212 C213 1.391 . S
C213 C212 1.391 . S
C213 C214 1.405 . S
C214 H194 0.950 . S
C214 C213 1.405 . S
C214 C215 1.367 . S
C215 H195 0.950 . S
C215 C210 1.386 . S
C215 C214 1.367 . S
C216 C210 1.483 . S
C216 C217 1.382 1_455 S
C216 C218 1.403 . S
C217 H196 0.950 . S
C217 C216 1.382 1_655 S
C217 C233 1.411 . S
C218 C216 1.403 . S
C218 C219 1.489 . S
C218 C232 1.411 . S
C219 C218 1.489 . S
C219 C220 1.383 . S
C219 C224 1.382 . S
C220 H197 0.950 . S
C220 C219 1.383 . S
C220 C221 1.395 . S
C221 H198 0.950 . S
C221 C220 1.395 . S
C221 C222 1.288 . S
C222 C221 1.288 . S
C222 C223 1.392 . S
C223 H199 0.951 . S
C223 C222 1.392 . S
C223 C224 1.392 . S
C224 H200 0.949 . S
C224 C219 1.382 . S
C224 C223 1.392 . S
C225 C226 1.376 . S
C225 C230 1.386 . S
C225 C231 1.483 . S
C226 H201 0.949 . S
C226 C225 1.376 . S
C226 C227 1.397 . S
C227 H202 0.950 . S
C227 C226 1.397 . S
C227 C228 1.391 . S
C228 C227 1.391 . S
C228 C229 1.405 . S
C229 H203 0.950 . S
C229 C228 1.405 . S
C229 C230 1.367 . S
C230 H204 0.950 . S
C230 C225 1.386 . S
C230 C229 1.367 . S
C231 C225 1.483 . S
C231 C232 1.382 1_655 S
C231 C233 1.403 . S
C232 H205 0.950 . S
C232 C218 1.411 . S
C232 C231 1.382 1_455 S
C233 C217 1.411 . S
C233 C231 1.403 . S
C233 C234 1.489 . S
C234 C233 1.489 . S
C234 C235 1.383 . S
C234 C239 1.382 . S
C235 H206 0.950 . S
C235 C234 1.383 . S
C235 C236 1.395 . S
C236 H207 0.950 . S
C236 C235 1.395 . S
C236 C237 1.288 . S
C237 C236 1.288 . S
C237 C238 1.392 . S
C238 H208 0.951 . S
C238 C237 1.392 . S
C238 C239 1.392 . S
C239 H209 0.949 . S
C239 C234 1.382 . S
C239 C238 1.392 . S
H240 C259 0.949 . S
H241 C260 0.950 . S
H242 C262 0.950 . S
H243 C263 0.950 . S
H244 C265 0.950 . S
H245 C268 0.950 . S
H246 C269 0.950 . S
H247 C271 0.951 . S
H248 C272 0.949 . S
H249 C274 0.949 . S
H250 C275 0.950 . S
H251 C277 0.950 . S
H252 C278 0.950 . S
H253 C280 0.950 . S
H254 C283 0.950 . S
H255 C284 0.950 . S
H256 C286 0.951 . S
H257 C287 0.949 . S
C258 C259 1.376 . S
C258 C263 1.386 . S
C258 C264 1.483 . S
C259 H240 0.949 . S
C259 C258 1.376 . S
C259 C260 1.397 . S
C260 H241 0.950 . S
C260 C259 1.397 . S
C260 C261 1.391 . S
C261 C260 1.391 . S
C261 C262 1.405 . S
C262 H242 0.950 . S
C262 C261 1.405 . S
C262 C263 1.367 . S
C263 H243 0.950 . S
C263 C258 1.386 . S
C263 C262 1.367 . S
C264 C258 1.483 . S
C264 C265 1.382 . S
C264 C266 1.403 . S
C265 H244 0.950 . S
C265 C264 1.382 . S
C265 C281 1.411 . S
C266 C264 1.403 . S
C266 C267 1.489 . S
C266 C280 1.411 . S
C267 C266 1.489 . S
C267 C268 1.383 . S
C267 C272 1.382 . S
C268 H245 0.950 . S
C268 C267 1.383 . S
C268 C269 1.395 . S
C269 H246 0.950 . S
C269 C268 1.395 . S
C269 C270 1.288 . S
C270 C269 1.288 . S
C270 C271 1.392 . S
C271 H247 0.951 . S
C271 C270 1.392 . S
C271 C272 1.392 . S
C272 H248 0.949 . S
C272 C267 1.382 . S
C272 C271 1.392 . S
C273 C274 1.376 . S
C273 C278 1.386 . S
C273 C279 1.483 . S
C274 H249 0.949 . S
C274 C273 1.376 . S
C274 C275 1.397 . S
C275 H250 0.950 . S
C275 C274 1.397 . S
C275 C276 1.391 . S
C276 C275 1.391 . S
C276 C277 1.405 . S
C277 H251 0.950 . S
C277 C276 1.405 . S
C277 C278 1.367 . S
C278 H252 0.950 . S
C278 C273 1.386 . S
C278 C277 1.367 . S
C279 C273 1.483 . S
C279 C280 1.382 . S
C279 C281 1.403 . S
C280 H253 0.950 . S
C280 C266 1.411 . S
C280 C279 1.382 . S
C281 C265 1.411 . S
C281 C279 1.403 . S
C281 C282 1.489 . S
C282 C281 1.489 . S
C282 C283 1.383 . S
C282 C287 1.382 . S
C283 H254 0.950 . S
C283 C282 1.383 . S
C283 C284 1.395 . S
C284 H255 0.950 . S
C284 C283 1.395 . S
C284 C285 1.288 . S
C285 C284 1.288 . S
C285 C286 1.392 . S
C286 H256 0.951 . S
C286 C285 1.392 . S
C286 C287 1.392 . S
C287 H257 0.949 . S
C287 C282 1.382 . S
C287 C286 1.392 . S
H288 C307 0.949 . S
H289 C308 0.950 . S
H290 C310 0.950 . S
H291 C311 0.950 . S
H292 C313 0.950 . S
H293 C316 0.950 . S
H294 C317 0.950 . S
H295 C319 0.951 . S
H296 C320 0.949 1_545 S
H297 C322 0.949 . S
H298 C323 0.950 . S
H299 C325 0.950 . S
H300 C326 0.950 . S
H301 C328 0.950 . S
H302 C331 0.950 . S
H303 C332 0.950 . S
H304 C334 0.951 . S
H305 C335 0.949 1_565 S
C306 C307 1.376 . S
C306 C311 1.386 . S
C306 C312 1.483 . S
C307 H288 0.949 . S
C307 C306 1.376 . S
C307 C308 1.397 . S
C308 H289 0.950 . S
C308 C307 1.397 . S
C308 C309 1.391 . S
C309 C308 1.391 . S
C309 C310 1.405 . S
C310 H290 0.950 . S
C310 C309 1.405 . S
C310 C311 1.367 . S
C311 H291 0.950 . S
C311 C306 1.386 . S
C311 C310 1.367 . S
C312 C306 1.483 . S
C312 C313 1.382 . S
C312 C314 1.403 . S
C313 H292 0.950 . S
C313 C312 1.382 . S
C313 C329 1.411 1_565 S
C314 C312 1.403 . S
C314 C315 1.489 . S
C314 C328 1.411 1_565 S
C315 C314 1.489 . S
C315 C316 1.383 . S
C315 C320 1.382 . S
C316 H293 0.950 . S
C316 C315 1.383 . S
C316 C317 1.395 . S
C317 H294 0.950 . S
C317 C316 1.395 . S
C317 C318 1.288 . S
C318 C317 1.288 . S
C318 C319 1.392 . S
C319 H295 0.951 . S
C319 C318 1.392 . S
C319 C320 1.392 . S
C320 H296 0.949 1_565 S
C320 C315 1.382 . S
C320 C319 1.392 . S
C321 C322 1.376 . S
C321 C326 1.386 . S
C321 C327 1.483 . S
C322 H297 0.949 . S
C322 C321 1.376 . S
C322 C323 1.397 . S
C323 H298 0.950 . S
C323 C322 1.397 . S
C323 C324 1.391 . S
C324 C323 1.391 . S
C324 C325 1.405 . S
C325 H299 0.950 . S
C325 C324 1.405 . S
C325 C326 1.367 . S
C326 H300 0.950 . S
C326 C321 1.386 . S
C326 C325 1.367 . S
C327 C321 1.483 . S
C327 C328 1.382 . S
C327 C329 1.403 . S
C328 H301 0.950 . S
C328 C314 1.411 1_545 S
C328 C327 1.382 . S
C329 C313 1.411 1_545 S
C329 C327 1.403 . S
C329 C330 1.489 . S
C330 C329 1.489 . S
C330 C331 1.383 . S
C330 C335 1.382 . S
C331 H302 0.950 . S
C331 C330 1.383 . S
C331 C332 1.395 . S
C332 H303 0.950 . S
C332 C331 1.395 . S
C332 C333 1.288 . S
C333 C332 1.288 . S
C333 C334 1.392 . S
C334 H304 0.951 . S
C334 C333 1.392 . S
C334 C335 1.392 . S
C335 H305 0.949 1_545 S
C335 C330 1.382 . S
C335 C334 1.392 . S
H336 C355 0.949 . S
H337 C356 0.950 . S
H338 C358 0.950 . S
H339 C359 0.950 . S
H340 C361 0.950 . S
H341 C364 0.950 . S
H342 C365 0.947 1_455 S
H343 C367 0.951 . S
H344 C368 0.949 . S
H345 C370 0.949 . S
H346 C371 0.950 . S
H347 C373 0.950 . S
H348 C374 0.940 1_545 S
H349 C376 0.950 . S
H350 C379 0.950 . S
H351 C380 0.950 . S
H352 C382 0.951 1_545 S
H353 C383 0.949 . S
C354 C355 1.376 . S
C354 C359 1.386 1_455 S
C354 C360 1.483 . S
C355 H336 0.949 . S
C355 C354 1.376 . S
C355 C356 1.397 . S
C356 H337 0.950 . S
C356 C355 1.397 . S
C356 C357 1.391 1_455 S
C357 C356 1.391 1_655 S
C357 C358 1.405 . S
C358 H338 0.950 . S
C358 C357 1.405 . S
C358 C359 1.367 . S
C359 H339 0.950 . S
C359 C354 1.386 1_655 S
C359 C358 1.367 . S
C360 C354 1.483 . S
C360 C361 1.382 . S
C360 C362 1.403 . S
C361 H340 0.950 . S
C361 C360 1.382 . S
C361 C377 1.411 . S
C362 C360 1.403 . S
C362 C363 1.489 . S
C362 C376 1.411 . S
C363 C362 1.489 . S
C363 C364 1.383 . S
C363 C368 1.382 1_455 S
C364 H341 0.950 . S
C364 C363 1.383 . S
C364 C365 1.378 1_455 S
C365 H342 0.947 1_655 S
C365 C364 1.378 1_655 S
C365 C366 1.310 . S
C366 C365 1.310 . S
C366 C367 1.392 . S
C367 H343 0.951 . S
C367 C366 1.392 . S
C367 C368 1.392 . S
C368 H344 0.949 . S
C368 C363 1.382 1_655 S
C368 C367 1.392 . S
C369 C370 1.385 . S
C369 C374 1.386 . S
C369 C375 1.474 1_565 S
C370 H345 0.949 . S
C370 C369 1.385 . S
C370 C371 1.397 . S
C371 H346 0.950 . S
C371 C370 1.397 . S
C371 C372 1.391 . S
C372 C371 1.391 . S
C372 C373 1.405 . S
C373 H347 0.950 . S
C373 C372 1.405 . S
C373 C374 1.378 . S
C374 H348 0.940 1_565 S
C374 C369 1.386 . S
C374 C373 1.378 . S
C375 C369 1.474 1_545 S
C375 C376 1.382 . S
C375 C377 1.403 . S
C376 H349 0.950 . S
C376 C362 1.411 . S
C376 C375 1.382 . S
C377 C361 1.411 . S
C377 C375 1.403 . S
C377 C378 1.489 . S
C378 C377 1.489 . S
C378 C379 1.383 1_545 S
C378 C383 1.382 . S
C379 H350 0.950 . S
C379 C378 1.383 1_565 S
C379 C380 1.395 . S
C380 H351 0.950 . S
C380 C379 1.395 . S
C380 C381 1.288 . S
C381 C380 1.288 . S
C381 C382 1.392 . S
C382 H352 0.951 1_565 S
C382 C381 1.392 . S
C382 C383 1.392 1_565 S
C383 H353 0.949 . S
C383 C378 1.382 . S
C383 C382 1.392 1_545 S
Zn384 O387 2.031 . S
Zn384 O389 2.049 1_556 S
Zn384 O394 2.067 . S
Zn385 O386 1.962 . S
Zn385 O388 1.986 . S
Zn385 O390 1.996 . S
Zn385 O393 1.943 . S
O386 Zn385 1.962 . S
O386 C391 1.254 . S
O387 Zn384 2.031 . S
O387 C391 1.269 1_556 S
O388 Zn385 1.986 . S
O388 C395 1.262 . S
O389 Zn384 2.049 1_554 S
O389 C397 1.260 . S
O390 Zn385 1.996 . S
O390 C397 1.257 . S
C391 O386 1.254 . S
C391 O387 1.269 1_554 S
C392 O393 1.249 1_556 S
C392 O394 1.270 . S
O393 Zn385 1.943 . S
O393 C392 1.249 1_554 S
O394 Zn384 2.067 . S
O394 C392 1.270 . S
C395 O388 1.262 . S
C395 O396 1.232 . S
O396 C395 1.232 . S
C397 O389 1.260 . S
C397 O390 1.257 . S
Zn398 O401 2.031 . S
Zn398 O403 2.049 . S
Zn398 O408 2.067 . S
Zn399 O400 1.962 . S
Zn399 O402 1.986 . S
Zn399 O404 1.996 . S
Zn399 O407 1.943 . S
O400 Zn399 1.962 . S
O400 C405 1.254 . S
O401 Zn398 2.031 . S
O401 C405 1.269 . S
O402 Zn399 1.986 . S
O402 C409 1.262 . S
O403 Zn398 2.049 . S
O403 C411 1.260 . S
O404 Zn399 1.996 . S
O404 C411 1.257 . S
C405 O400 1.254 . S
C405 O401 1.269 . S
C406 O407 1.249 . S
C406 O408 1.270 . S
O407 Zn399 1.943 . S
O407 C406 1.249 . S
O408 Zn398 2.067 . S
O408 C406 1.270 . S
C409 O402 1.262 . S
C409 O410 1.232 . S
O410 C409 1.232 . S
C411 O403 1.260 . S
C411 O404 1.257 . S
Zn412 O415 2.031 . S
Zn412 O417 2.049 . S
Zn412 O422 2.067 . S
Zn413 O414 1.962 . S
Zn413 O416 1.986 . S
Zn413 O418 1.996 . S
Zn413 O421 1.943 . S
O414 Zn413 1.962 . S
O414 C419 1.254 . S
O415 Zn412 2.031 . S
O415 C419 1.269 . S
O416 Zn413 1.986 . S
O416 C423 1.262 . S
O417 Zn412 2.049 . S
O417 C425 1.260 . S
O418 Zn413 1.996 . S
O418 C425 1.257 . S
C419 O414 1.254 . S
C419 O415 1.269 . S
C420 O421 1.249 . S
C420 O422 1.270 . S
O421 Zn413 1.943 . S
O421 C420 1.249 . S
O422 Zn412 2.067 . S
O422 C420 1.270 . S
C423 O416 1.262 . S
C423 O424 1.232 . S
O424 C423 1.232 . S
C425 O417 1.260 . S
C425 O418 1.257 . S
Zn426 O429 2.031 . S
Zn426 O431 2.049 . S
Zn426 O436 2.067 . S
Zn427 O428 1.962 . S
Zn427 O430 1.986 . S
Zn427 O432 1.996 . S
Zn427 O435 1.943 . S
O428 Zn427 1.962 . S
O428 C433 1.254 . S
O429 Zn426 2.031 . S
O429 C433 1.269 . S
O430 Zn427 1.986 . S
O430 C437 1.262 . S
O431 Zn426 2.049 . S
O431 C439 1.260 . S
O432 Zn427 1.996 . S
O432 C439 1.257 . S
C433 O428 1.254 . S
C433 O429 1.269 . S
C434 O435 1.249 . S
C434 O436 1.270 . S
O435 Zn427 1.943 . S
O435 C434 1.249 . S
O436 Zn426 2.067 . S
O436 C434 1.270 . S
C437 O430 1.262 . S
C437 O438 1.232 . S
O438 C437 1.232 . S
C439 O431 1.260 . S
C439 O432 1.257 . S
Zn440 O443 2.031 . S
Zn440 O445 2.049 . S
Zn440 O450 2.067 . S
Zn441 O442 1.962 . S
Zn441 O444 1.986 . S
Zn441 O446 1.996 . S
Zn441 O449 1.943 . S
O442 Zn441 1.962 . S
O442 C447 1.254 . S
O443 Zn440 2.031 . S
O443 C447 1.269 . S
O444 Zn441 1.986 . S
O444 C451 1.262 . S
O445 Zn440 2.049 . S
O445 C453 1.260 . S
O446 Zn441 1.996 . S
O446 C453 1.257 . S
C447 O442 1.254 . S
C447 O443 1.269 . S
C448 O449 1.249 . S
C448 O450 1.270 . S
O449 Zn441 1.943 . S
O449 C448 1.249 . S
O450 Zn440 2.067 . S
O450 C448 1.270 . S
C451 O444 1.262 . S
C451 O452 1.232 . S
O452 C451 1.232 . S
C453 O445 1.260 . S
C453 O446 1.257 . S
Zn454 O457 2.031 . S
Zn454 O459 2.049 . S
Zn454 O464 2.067 . S
Zn455 O456 1.962 . S
Zn455 O458 1.986 . S
Zn455 O460 1.996 . S
Zn455 O463 1.943 . S
O456 Zn455 1.962 . S
O456 C461 1.254 . S
O457 Zn454 2.031 . S
O457 C461 1.269 . S
O458 Zn455 1.986 . S
O458 C465 1.262 . S
O459 Zn454 2.049 . S
O459 C467 1.260 . S
O460 Zn455 1.996 . S
O460 C467 1.257 . S
C461 O456 1.254 . S
C461 O457 1.269 . S
C462 O463 1.249 . S
C462 O464 1.270 . S
O463 Zn455 1.943 . S
O463 C462 1.249 . S
O464 Zn454 2.067 . S
O464 C462 1.270 . S
C465 O458 1.262 . S
C465 O466 1.232 . S
O466 C465 1.232 . S
C467 O459 1.260 . S
C467 O460 1.257 . S
Zn468 O471 2.031 . S
Zn468 O473 2.049 . S
Zn468 O478 2.067 . S
Zn469 O470 1.962 . S
Zn469 O472 1.986 . S
Zn469 O474 1.996 . S
Zn469 O477 1.943 1_556 S
O470 Zn469 1.962 . S
O470 C475 1.254 1_556 S
O471 Zn468 2.031 . S
O471 C475 1.269 . S
O472 Zn469 1.986 . S
O472 C479 1.262 . S
O473 Zn468 2.049 . S
O473 C481 1.260 . S
O474 Zn469 1.996 . S
O474 C481 1.257 1_556 S
C475 O470 1.254 1_554 S
C475 O471 1.269 . S
C476 O477 1.249 . S
C476 O478 1.270 . S
O477 Zn469 1.943 1_554 S
O477 C476 1.249 . S
O478 Zn468 2.067 . S
O478 C476 1.270 . S
C479 O472 1.262 . S
C479 O480 1.232 . S
O480 C479 1.232 . S
C481 O473 1.260 . S
C481 O474 1.257 1_554 S
Zn482 O485 2.031 . S
Zn482 O487 2.049 . S
Zn482 O492 2.067 . S
Zn483 O484 1.962 . S
Zn483 O486 1.986 . S
Zn483 O488 1.996 . S
Zn483 O491 1.943 . S
O484 Zn483 1.962 . S
O484 C489 1.254 . S
O485 Zn482 2.031 . S
O485 C489 1.269 . S
O486 Zn483 1.986 . S
O486 C493 1.262 . S
O487 Zn482 2.049 . S
O487 C495 1.260 . S
O488 Zn483 1.996 . S
O488 C495 1.257 . S
C489 O484 1.254 . S
C489 O485 1.269 . S
C490 O491 1.249 . S
C490 O492 1.270 . S
O491 Zn483 1.943 . S
O491 C490 1.249 . S
O492 Zn482 2.067 . S
O492 C490 1.270 . S
C493 O486 1.262 . S
C493 O494 1.232 . S
O494 C493 1.232 . S
C495 O487 1.260 . S
C495 O488 1.257 . S
H496 C514 0.951 . S
H497 C516 0.951 . S
H498 C518 0.950 . S
H499 C519 0.950 . S
H500 C521 0.950 . S
H501 C524 0.950 . S
H502 C525 0.950 . S
H503 C527 0.950 . S
H504 C528 0.950 . S
H505 C529 0.951 . S
H506 C531 0.951 . S
H507 C533 0.950 . S
H508 C534 0.950 . S
H509 C536 0.950 . S
H510 C539 0.950 . S
H511 C540 0.950 . S
H512 C542 0.950 . S
H513 C543 0.950 . S
C514 H496 0.951 . S
C514 C515 1.366 . S
C514 C516 1.388 . S
C515 C514 1.366 . S
C515 C519 1.385 . S
C516 H497 0.951 . S
C516 C514 1.388 . S
C516 C517 1.366 . S
C517 C516 1.366 . S
C517 C518 1.414 . S
C517 C520 1.499 . S
C518 H498 0.950 . S
C518 C517 1.414 . S
C518 C519 1.374 . S
C519 H499 0.950 . S
C519 C515 1.385 . S
C519 C518 1.374 . S
C520 C517 1.499 . S
C520 C521 1.373 . S
C520 C522 1.389 . S
C521 H500 0.950 . S
C521 C520 1.373 . S
C521 C537 1.377 . S
C522 C520 1.389 . S
C522 C523 1.524 . S
C522 C536 1.377 . S
C523 C522 1.524 . S
C523 C524 1.397 . S
C523 C528 1.363 . S
C524 H501 0.950 . S
C524 C523 1.397 . S
C524 C525 1.334 . S
C525 H502 0.950 . S
C525 C524 1.334 . S
C525 C526 1.287 . S
C526 C525 1.287 . S
C526 C527 1.524 . S
C526 H545 0.913 . S
C527 H503 0.950 . S
C527 C526 1.524 . S
C527 C528 1.415 . S
C528 H504 0.950 . S
C528 C523 1.363 . S
C528 C527 1.415 . S
C529 H505 0.951 . S
C529 C530 1.366 . S
C529 C531 1.388 . S
C530 C529 1.366 . S
C530 C534 1.385 . S
C531 H506 0.951 . S
C531 C529 1.388 . S
C531 C532 1.366 . S
C532 C531 1.366 . S
C532 C533 1.414 . S
C532 C535 1.499 . S
C533 H507 0.950 . S
C533 C532 1.414 . S
C533 C534 1.374 . S
C534 H508 0.950 . S
C534 C530 1.385 . S
C534 C533 1.374 . S
C535 C532 1.499 . S
C535 C536 1.373 . S
C535 C537 1.389 . S
C536 H509 0.950 . S
C536 C522 1.377 . S
C536 C535 1.373 . S
C537 C521 1.377 . S
C537 C535 1.389 . S
C537 C538 1.524 . S
C538 C537 1.524 . S
C538 C539 1.397 . S
C538 C543 1.363 . S
C539 H510 0.950 . S
C539 C538 1.397 . S
C539 C540 1.334 . S
C540 H511 0.950 . S
C540 C539 1.334 . S
C540 C541 1.287 . S
C541 C540 1.287 . S
C541 C542 1.524 . S
C541 H544 0.999 . S
C542 H512 0.950 . S
C542 C541 1.524 . S
C542 C543 1.415 . S
C543 H513 0.950 . S
C543 C538 1.363 . S
C543 C542 1.415 . S
H544 C541 0.999 . S
H545 C526 0.913 . S
H546 C564 0.951 . S
H547 C566 0.951 . S
H548 C568 0.950 . S
H549 C569 0.950 . S
H550 C571 0.950 . S
H551 C574 0.950 . S
H552 C575 0.950 . S
H553 C577 0.950 . S
H554 C578 0.950 . S
H555 C579 0.951 . S
H556 C581 0.951 . S
H557 C583 0.950 . S
H558 C584 0.950 . S
H559 C586 0.950 . S
H560 C589 0.950 . S
H561 C590 0.950 . S
H562 C592 0.950 . S
H563 C593 0.950 . S
C564 H546 0.951 . S
C564 C565 1.366 . S
C564 C566 1.388 . S
C565 C564 1.366 . S
C565 C569 1.385 . S
C566 H547 0.951 . S
C566 C564 1.388 . S
C566 C567 1.366 . S
C567 C566 1.366 . S
C567 C568 1.414 . S
C567 C570 1.499 . S
C568 H548 0.950 . S
C568 C567 1.414 . S
C568 C569 1.374 . S
C569 H549 0.950 . S
C569 C565 1.385 . S
C569 C568 1.374 . S
C570 C567 1.499 . S
C570 C571 1.373 . S
C570 C572 1.389 . S
C571 H550 0.950 . S
C571 C570 1.373 . S
C571 C587 1.377 . S
C572 C570 1.389 . S
C572 C573 1.524 . S
C572 C586 1.377 . S
C573 C572 1.524 . S
C573 C574 1.397 . S
C573 C578 1.363 . S
C574 H551 0.950 . S
C574 C573 1.397 . S
C574 C575 1.334 . S
C575 H552 0.950 . S
C575 C574 1.334 . S
C575 C576 1.287 . S
C576 C575 1.287 . S
C576 C577 1.524 . S
C576 H595 0.913 . S
C577 H553 0.950 . S
C577 C576 1.524 . S
C577 C578 1.415 . S
C578 H554 0.950 . S
C578 C573 1.363 . S
C578 C577 1.415 . S
C579 H555 0.951 . S
C579 C580 1.366 . S
C579 C581 1.388 . S
C580 C579 1.366 . S
C580 C584 1.385 . S
C581 H556 0.951 . S
C581 C579 1.388 . S
C581 C582 1.366 . S
C582 C581 1.366 . S
C582 C583 1.414 . S
C582 C585 1.499 . S
C583 H557 0.950 . S
C583 C582 1.414 . S
C583 C584 1.374 . S
C584 H558 0.950 . S
C584 C580 1.385 . S
C584 C583 1.374 . S
C585 C582 1.499 . S
C585 C586 1.373 . S
C585 C587 1.389 . S
C586 H559 0.950 . S
C586 C572 1.377 . S
C586 C585 1.373 . S
C587 C571 1.377 . S
C587 C585 1.389 . S
C587 C588 1.524 . S
C588 C587 1.524 . S
C588 C589 1.397 . S
C588 C593 1.363 . S
C589 H560 0.950 . S
C589 C588 1.397 . S
C589 C590 1.334 . S
C590 H561 0.950 . S
C590 C589 1.334 . S
C590 C591 1.287 . S
C591 C590 1.287 . S
C591 C592 1.524 . S
C591 H594 0.999 . S
C592 H562 0.950 . S
C592 C591 1.524 . S
C592 C593 1.415 . S
C593 H563 0.950 . S
C593 C588 1.363 . S
C593 C592 1.415 . S
H594 C591 0.999 . S
H595 C576 0.913 . S
H596 C614 0.951 . S
H597 C616 0.951 . S
H598 C618 0.950 . S
H599 C619 0.950 . S
H600 C621 0.950 . S
H601 C624 0.950 . S
H602 C625 0.950 . S
H603 C627 0.950 . S
H604 C628 0.950 . S
H605 C629 0.951 . S
H606 C631 0.951 . S
H607 C633 0.950 . S
H608 C634 0.950 . S
H609 C636 0.950 . S
H610 C639 0.950 . S
H611 C640 0.950 . S
H612 C642 0.950 . S
H613 C643 0.950 . S
C614 H596 0.951 . S
C614 C615 1.366 . S
C614 C616 1.388 . S
C615 C614 1.366 . S
C615 C619 1.385 . S
C616 H597 0.951 . S
C616 C614 1.388 . S
C616 C617 1.366 . S
C617 C616 1.366 . S
C617 C618 1.414 . S
C617 C620 1.499 . S
C618 H598 0.950 . S
C618 C617 1.414 . S
C618 C619 1.374 . S
C619 H599 0.950 . S
C619 C615 1.385 . S
C619 C618 1.374 . S
C620 C617 1.499 . S
C620 C621 1.373 . S
C620 C622 1.389 . S
C621 H600 0.950 . S
C621 C620 1.373 . S
C621 C637 1.377 . S
C622 C620 1.389 . S
C622 C623 1.524 . S
C622 C636 1.377 . S
C623 C622 1.524 . S
C623 C624 1.397 . S
C623 C628 1.363 . S
C624 H601 0.950 . S
C624 C623 1.397 . S
C624 C625 1.334 . S
C625 H602 0.950 . S
C625 C624 1.334 . S
C625 C626 1.287 . S
C626 C625 1.287 . S
C626 C627 1.524 . S
C626 H645 0.913 . S
C627 H603 0.950 . S
C627 C626 1.524 . S
C627 C628 1.415 . S
C628 H604 0.950 . S
C628 C623 1.363 . S
C628 C627 1.415 . S
C629 H605 0.951 . S
C629 C630 1.366 . S
C629 C631 1.388 . S
C630 C629 1.366 . S
C630 C634 1.385 . S
C631 H606 0.951 . S
C631 C629 1.388 . S
C631 C632 1.366 . S
C632 C631 1.366 . S
C632 C633 1.414 . S
C632 C635 1.499 . S
C633 H607 0.950 . S
C633 C632 1.414 . S
C633 C634 1.374 . S
C634 H608 0.950 . S
C634 C630 1.385 . S
C634 C633 1.374 . S
C635 C632 1.499 . S
C635 C636 1.373 . S
C635 C637 1.389 . S
C636 H609 0.950 . S
C636 C622 1.377 . S
C636 C635 1.373 . S
C637 C621 1.377 . S
C637 C635 1.389 . S
C637 C638 1.524 . S
C638 C637 1.524 . S
C638 C639 1.397 . S
C638 C643 1.363 . S
C639 H610 0.950 . S
C639 C638 1.397 . S
C639 C640 1.334 . S
C640 H611 0.950 . S
C640 C639 1.334 . S
C640 C641 1.287 . S
C641 C640 1.287 . S
C641 C642 1.524 . S
C641 H644 0.999 . S
C642 H612 0.950 . S
C642 C641 1.524 . S
C642 C643 1.415 . S
C643 H613 0.950 . S
C643 C638 1.363 . S
C643 C642 1.415 . S
H644 C641 0.999 . S
H645 C626 0.913 . S
H646 C664 0.951 . S
H647 C666 0.951 . S
H648 C668 0.950 . S
H649 C669 0.950 . S
H650 C671 0.950 . S
H651 C674 0.950 . S
H652 C675 0.950 . S
H653 C677 0.950 . S
H654 C678 0.950 . S
H655 C679 0.951 . S
H656 C681 0.951 . S
H657 C683 0.950 . S
H658 C684 0.966 . S
H659 C686 0.950 . S
H660 C689 0.950 . S
H661 C690 0.950 . S
H662 C692 0.950 . S
H663 C693 0.950 . S
C664 H646 0.951 . S
C664 C665 1.366 . S
C664 C666 1.388 . S
C665 C664 1.366 . S
C665 C669 1.385 . S
C666 H647 0.951 . S
C666 C664 1.388 . S
C666 C667 1.366 . S
C667 C666 1.366 . S
C667 C668 1.414 . S
C667 C670 1.499 . S
C668 H648 0.950 . S
C668 C667 1.414 . S
C668 C669 1.374 . S
C669 H649 0.950 . S
C669 C665 1.385 . S
C669 C668 1.374 . S
C670 C667 1.499 . S
C670 C671 1.373 . S
C670 C672 1.389 . S
C671 H650 0.950 . S
C671 C670 1.373 . S
C671 C687 1.377 . S
C672 C670 1.389 . S
C672 C673 1.524 . S
C672 C686 1.377 . S
C673 C672 1.524 . S
C673 C674 1.397 . S
C673 C678 1.363 1_554 S
C674 H651 0.950 . S
C674 C673 1.397 . S
C674 C675 1.334 . S
C675 H652 0.950 . S
C675 C674 1.334 . S
C675 C676 1.287 1_554 S
C676 C675 1.287 1_556 S
C676 C677 1.524 . S
C676 H695 0.913 . S
C677 H653 0.950 . S
C677 C676 1.524 . S
C677 C678 1.415 . S
C678 H654 0.950 . S
C678 C673 1.363 1_556 S
C678 C677 1.415 . S
C679 H655 0.951 . S
C679 C680 1.366 . S
C679 C681 1.388 . S
C680 C679 1.366 . S
C680 C684 1.385 . S
C681 H656 0.951 . S
C681 C679 1.388 . S
C681 C682 1.366 . S
C682 C681 1.366 . S
C682 C683 1.414 . S
C682 C685 1.499 . S
C683 H657 0.950 . S
C683 C682 1.414 . S
C683 C684 1.374 . S
C684 H658 0.966 . S
C684 C680 1.385 . S
C684 C683 1.374 . S
C685 C682 1.499 . S
C685 C686 1.373 . S
C685 C687 1.389 . S
C686 H659 0.950 . S
C686 C672 1.377 . S
C686 C685 1.373 . S
C687 C671 1.377 . S
C687 C685 1.389 . S
C687 C688 1.524 . S
C688 C687 1.524 . S
C688 C689 1.397 . S
C688 C693 1.363 . S
C689 H660 0.950 . S
C689 C688 1.397 . S
C689 C690 1.334 . S
C690 H661 0.950 . S
C690 C689 1.334 . S
C690 C691 1.287 . S
C691 C690 1.287 . S
C691 C692 1.524 . S
C691 H694 0.999 . S
C692 H662 0.950 . S
C692 C691 1.524 . S
C692 C693 1.415 . S
C693 H663 0.950 . S
C693 C688 1.363 . S
C693 C692 1.415 . S
H694 C691 0.999 . S
H695 C676 0.913 . S
H696 C714 0.951 . S
H697 C716 0.951 . S
H698 C718 0.950 . S
H699 C719 0.950 . S
H700 C721 0.950 . S
H701 C724 0.950 . S
H702 C725 0.950 . S
H703 C727 0.950 . S
H704 C728 0.950 . S
H705 C729 0.951 . S
H706 C731 0.951 . S
H707 C733 0.950 . S
H708 C734 0.950 . S
H709 C736 0.950 . S
H710 C739 0.950 . S
H711 C740 0.950 . S
H712 C742 0.950 . S
H713 C743 0.950 . S
C714 H696 0.951 . S
C714 C715 1.366 . S
C714 C716 1.388 . S
C715 C714 1.366 . S
C715 C719 1.385 . S
C716 H697 0.951 . S
C716 C714 1.388 . S
C716 C717 1.366 . S
C717 C716 1.366 . S
C717 C718 1.414 . S
C717 C720 1.499 . S
C718 H698 0.950 . S
C718 C717 1.414 . S
C718 C719 1.374 . S
C719 H699 0.950 . S
C719 C715 1.385 . S
C719 C718 1.374 . S
C720 C717 1.499 . S
C720 C721 1.373 . S
C720 C722 1.389 . S
C721 H700 0.950 . S
C721 C720 1.373 . S
C721 C737 1.377 . S
C722 C720 1.389 . S
C722 C723 1.524 . S
C722 C736 1.377 . S
C723 C722 1.524 . S
C723 C724 1.397 . S
C723 C728 1.363 . S
C724 H701 0.950 . S
C724 C723 1.397 . S
C724 C725 1.334 . S
C725 H702 0.950 . S
C725 C724 1.334 . S
C725 C726 1.287 . S
C726 C725 1.287 . S
C726 C727 1.524 . S
C726 H745 0.913 . S
C727 H703 0.950 . S
C727 C726 1.524 . S
C727 C728 1.415 . S
C728 H704 0.950 . S
C728 C723 1.363 . S
C728 C727 1.415 . S
C729 H705 0.951 . S
C729 C730 1.366 1_556 S
C729 C731 1.388 . S
C730 C729 1.366 1_554 S
C730 C734 1.385 . S
C731 H706 0.951 . S
C731 C729 1.388 . S
C731 C732 1.382 . S
C732 C731 1.382 . S
C732 C733 1.392 1_556 S
C732 C735 1.506 . S
C733 H707 0.950 . S
C733 C732 1.392 1_554 S
C733 C734 1.374 . S
C734 H708 0.950 . S
C734 C730 1.385 . S
C734 C733 1.374 . S
C735 C732 1.506 . S
C735 C736 1.373 . S
C735 C737 1.389 . S
C736 H709 0.950 . S
C736 C722 1.377 . S
C736 C735 1.373 . S
C737 C721 1.377 . S
C737 C735 1.389 . S
C737 C738 1.524 1_556 S
C738 C737 1.524 1_554 S
C738 C739 1.397 . S
C738 C743 1.363 1_554 S
C739 H710 0.950 . S
C739 C738 1.397 . S
C739 C740 1.334 . S
C740 H711 0.950 . S
C740 C739 1.334 . S
C740 C741 1.287 . S
C741 C740 1.287 . S
C741 C742 1.524 . S
C741 H744 0.999 . S
C742 H712 0.950 . S
C742 C741 1.524 . S
C742 C743 1.415 1_554 S
C743 H713 0.950 . S
C743 C738 1.363 1_556 S
C743 C742 1.415 1_556 S
H744 C741 0.999 . S
H745 C726 0.913 . S
H746 C764 0.951 . S
H747 C766 0.951 . S
H748 C768 0.950 . S
H749 C769 0.950 . S
H750 C771 0.950 . S
H751 C774 0.950 . S
H752 C775 0.950 . S
H753 C777 0.950 . S
H754 C778 0.950 . S
H755 C779 0.951 . S
H756 C781 0.951 . S
H757 C783 0.950 . S
H758 C784 0.950 . S
H759 C786 0.950 . S
H760 C789 0.950 . S
H761 C790 0.950 . S
H762 C792 0.950 . S
H763 C793 0.950 . S
C764 H746 0.951 . S
C764 C765 1.366 . S
C764 C766 1.388 . S
C765 C764 1.366 . S
C765 C769 1.385 . S
C766 H747 0.951 . S
C766 C764 1.388 . S
C766 C767 1.366 . S
C767 C766 1.366 . S
C767 C768 1.414 . S
C767 C770 1.499 . S
C768 H748 0.950 . S
C768 C767 1.414 . S
C768 C769 1.374 . S
C769 H749 0.950 . S
C769 C765 1.385 . S
C769 C768 1.374 . S
C770 C767 1.499 . S
C770 C771 1.373 . S
C770 C772 1.389 . S
C771 H750 0.950 . S
C771 C770 1.373 . S
C771 C787 1.377 . S
C772 C770 1.389 . S
C772 C773 1.524 . S
C772 C786 1.377 . S
C773 C772 1.524 . S
C773 C774 1.397 . S
C773 C778 1.363 . S
C774 H751 0.950 . S
C774 C773 1.397 . S
C774 C775 1.334 . S
C775 H752 0.950 . S
C775 C774 1.334 . S
C775 C776 1.287 . S
C776 C775 1.287 . S
C776 C777 1.524 . S
C776 H795 0.913 . S
C777 H753 0.950 . S
C777 C776 1.524 . S
C777 C778 1.415 . S
C778 H754 0.950 . S
C778 C773 1.363 . S
C778 C777 1.415 . S
C779 H755 0.951 . S
C779 C780 1.366 . S
C779 C781 1.388 . S
C780 C779 1.366 . S
C780 C784 1.385 . S
C781 H756 0.951 . S
C781 C779 1.388 . S
C781 C782 1.366 . S
C782 C781 1.366 . S
C782 C783 1.414 . S
C782 C785 1.499 . S
C783 H757 0.950 . S
C783 C782 1.414 . S
C783 C784 1.374 . S
C784 H758 0.950 . S
C784 C780 1.385 . S
C784 C783 1.374 . S
C785 C782 1.499 . S
C785 C786 1.373 . S
C785 C787 1.389 . S
C786 H759 0.950 . S
C786 C772 1.377 . S
C786 C785 1.373 . S
C787 C771 1.377 . S
C787 C785 1.389 . S
C787 C788 1.524 . S
C788 C787 1.524 . S
C788 C789 1.397 . S
C788 C793 1.363 . S
C789 H760 0.950 . S
C789 C788 1.397 . S
C789 C790 1.334 . S
C790 H761 0.950 . S
C790 C789 1.334 . S
C790 C791 1.287 . S
C791 C790 1.287 . S
C791 C792 1.524 . S
C791 H794 0.999 . S
C792 H762 0.950 . S
C792 C791 1.524 . S
C792 C793 1.415 . S
C793 H763 0.950 . S
C793 C788 1.363 . S
C793 C792 1.415 . S
H794 C791 0.999 . S
H795 C776 0.913 . S
H796 C814 0.951 . S
H797 C816 0.951 . S
H798 C818 0.950 . S
H799 C819 0.950 . S
H800 C821 0.950 . S
H801 C824 0.950 . S
H802 C825 0.950 . S
H803 C827 0.950 . S
H804 C828 0.950 . S
H805 C829 0.951 . S
H806 C831 0.951 . S
H807 C833 0.950 . S
H808 C834 0.950 . S
H809 C836 0.950 . S
H810 C839 0.950 . S
H811 C840 0.950 . S
H812 C842 0.950 . S
H813 C843 0.950 . S
C814 H796 0.951 . S
C814 C815 1.366 . S
C814 C816 1.388 . S
C815 C814 1.366 . S
C815 C819 1.385 . S
C816 H797 0.951 . S
C816 C814 1.388 . S
C816 C817 1.366 . S
C817 C816 1.366 . S
C817 C818 1.414 . S
C817 C820 1.499 . S
C818 H798 0.950 . S
C818 C817 1.414 . S
C818 C819 1.374 . S
C819 H799 0.950 . S
C819 C815 1.385 . S
C819 C818 1.374 . S
C820 C817 1.499 . S
C820 C821 1.373 . S
C820 C822 1.389 . S
C821 H800 0.950 . S
C821 C820 1.373 . S
C821 C837 1.377 . S
C822 C820 1.389 . S
C822 C823 1.524 . S
C822 C836 1.377 . S
C823 C822 1.524 . S
C823 C824 1.397 . S
C823 C828 1.363 . S
C824 H801 0.950 . S
C824 C823 1.397 . S
C824 C825 1.334 . S
C825 H802 0.950 . S
C825 C824 1.334 . S
C825 C826 1.287 . S
C826 C825 1.287 . S
C826 C827 1.524 . S
C826 H845 0.913 . S
C827 H803 0.950 . S
C827 C826 1.524 . S
C827 C828 1.415 . S
C828 H804 0.950 . S
C828 C823 1.363 . S
C828 C827 1.415 . S
C829 H805 0.951 . S
C829 C830 1.366 . S
C829 C831 1.388 . S
C830 C829 1.366 . S
C830 C834 1.385 . S
C831 H806 0.951 . S
C831 C829 1.388 . S
C831 C832 1.366 . S
C832 C831 1.366 . S
C832 C833 1.414 . S
C832 C835 1.499 . S
C833 H807 0.950 . S
C833 C832 1.414 . S
C833 C834 1.374 . S
C834 H808 0.950 . S
C834 C830 1.385 . S
C834 C833 1.374 . S
C835 C832 1.499 . S
C835 C836 1.373 . S
C835 C837 1.389 . S
C836 H809 0.950 . S
C836 C822 1.377 . S
C836 C835 1.373 . S
C837 C821 1.377 . S
C837 C835 1.389 . S
C837 C838 1.524 . S
C838 C837 1.524 . S
C838 C839 1.397 . S
C838 C843 1.363 . S
C839 H810 0.950 . S
C839 C838 1.397 . S
C839 C840 1.334 . S
C840 H811 0.950 . S
C840 C839 1.334 . S
C840 C841 1.287 . S
C841 C840 1.287 . S
C841 C842 1.524 . S
C841 H844 0.999 . S
C842 H812 0.950 . S
C842 C841 1.524 . S
C842 C843 1.415 . S
C843 H813 0.950 . S
C843 C838 1.363 . S
C843 C842 1.415 . S
H844 C841 0.999 . S
H845 C826 0.913 . S
H846 C864 0.951 . S
H847 C866 0.951 . S
H848 C868 0.950 . S
H849 C869 0.950 . S
H850 C871 0.950 . S
H851 C874 0.950 . S
H852 C875 0.950 . S
H853 C877 0.950 . S
H854 C878 0.950 . S
H855 C879 0.951 . S
H856 C881 0.951 . S
H857 C883 0.950 . S
H858 C884 0.950 . S
H859 C886 0.950 . S
H860 C889 0.950 . S
H861 C890 0.950 . S
H862 C892 0.950 . S
H863 C893 0.950 . S
C864 H846 0.951 . S
C864 C865 1.366 . S
C864 C866 1.388 . S
C865 C864 1.366 . S
C865 C869 1.385 . S
C866 H847 0.951 . S
C866 C864 1.388 . S
C866 C867 1.366 . S
C867 C866 1.366 . S
C867 C868 1.414 . S
C867 C870 1.499 . S
C868 H848 0.950 . S
C868 C867 1.414 . S
C868 C869 1.374 . S
C869 H849 0.950 . S
C869 C865 1.385 . S
C869 C868 1.374 . S
C870 C867 1.499 . S
C870 C871 1.373 . S
C870 C872 1.389 . S
C871 H850 0.950 . S
C871 C870 1.373 . S
C871 C887 1.377 . S
C872 C870 1.389 . S
C872 C873 1.524 . S
C872 C886 1.377 . S
C873 C872 1.524 . S
C873 C874 1.397 . S
C873 C878 1.363 . S
C874 H851 0.950 . S
C874 C873 1.397 . S
C874 C875 1.334 . S
C875 H852 0.950 . S
C875 C874 1.334 . S
C875 C876 1.287 . S
C876 C875 1.287 . S
C876 C877 1.524 . S
C876 H895 0.913 . S
C877 H853 0.950 . S
C877 C876 1.524 . S
C877 C878 1.415 . S
C878 H854 0.950 . S
C878 C873 1.363 . S
C878 C877 1.415 . S
C879 H855 0.951 . S
C879 C880 1.366 . S
C879 C881 1.388 . S
C880 C879 1.366 . S
C880 C884 1.385 . S
C881 H856 0.951 . S
C881 C879 1.388 . S
C881 C882 1.366 . S
C882 C881 1.366 . S
C882 C883 1.414 . S
C882 C885 1.499 . S
C883 H857 0.950 . S
C883 C882 1.414 . S
C883 C884 1.374 . S
C884 H858 0.950 . S
C884 C880 1.385 . S
C884 C883 1.374 . S
C885 C882 1.499 . S
C885 C886 1.373 . S
C885 C887 1.389 . S
C886 H859 0.950 . S
C886 C872 1.377 . S
C886 C885 1.373 . S
C887 C871 1.377 . S
C887 C885 1.389 . S
C887 C888 1.524 . S
C888 C887 1.524 . S
C888 C889 1.397 . S
C888 C893 1.363 . S
C889 H860 0.950 . S
C889 C888 1.397 . S
C889 C890 1.334 . S
C890 H861 0.950 . S
C890 C889 1.334 . S
C890 C891 1.287 . S
C891 C890 1.287 . S
C891 C892 1.524 . S
C891 H894 0.999 . S
C892 H862 0.950 . S
C892 C891 1.524 . S
C892 C893 1.415 . S
C893 H863 0.950 . S
C893 C888 1.363 . S
C893 C892 1.415 . S
H894 C891 0.999 . S
H895 C876 0.913 . S
H896 C914 0.951 . S
H897 C916 0.951 . S
H898 C918 0.950 . S
H899 C919 0.950 . S
H900 C921 0.950 . S
H901 C924 0.950 . S
H902 C925 0.950 . S
H903 C927 0.950 . S
H904 C928 0.950 . S
H905 C929 0.951 . S
H906 C931 0.951 . S
H907 C933 0.950 . S
H908 C934 0.950 . S
H909 C936 0.950 . S
H910 C939 0.950 . S
H911 C940 0.950 . S
H912 C942 0.950 . S
H913 C943 0.950 . S
C914 H896 0.951 . S
C914 C915 1.366 . S
C914 C916 1.388 . S
C915 C914 1.366 . S
C915 C919 1.385 . S
C916 H897 0.951 . S
C916 C914 1.388 . S
C916 C917 1.366 . S
C917 C916 1.366 . S
C917 C918 1.414 . S
C917 C920 1.499 . S
C918 H898 0.950 . S
C918 C917 1.414 . S
C918 C919 1.374 . S
C919 H899 0.950 . S
C919 C915 1.385 . S
C919 C918 1.374 . S
C920 C917 1.499 . S
C920 C921 1.373 . S
C920 C922 1.389 . S
C921 H900 0.950 . S
C921 C920 1.373 . S
C921 C937 1.377 . S
C922 C920 1.389 . S
C922 C923 1.524 . S
C922 C936 1.377 . S
C923 C922 1.524 . S
C923 C924 1.397 . S
C923 C928 1.363 . S
C924 H901 0.950 . S
C924 C923 1.397 . S
C924 C925 1.334 . S
C925 H902 0.950 . S
C925 C924 1.334 . S
C925 C926 1.287 . S
C926 C925 1.287 . S
C926 C927 1.524 . S
C926 H945 0.913 . S
C927 H903 0.950 . S
C927 C926 1.524 . S
C927 C928 1.415 . S
C928 H904 0.950 . S
C928 C923 1.363 . S
C928 C927 1.415 . S
C929 H905 0.951 . S
C929 C930 1.366 . S
C929 C931 1.388 . S
C930 C929 1.366 . S
C930 C934 1.385 . S
C931 H906 0.951 . S
C931 C929 1.388 . S
C931 C932 1.366 . S
C932 C931 1.366 . S
C932 C933 1.414 . S
C932 C935 1.499 . S
C933 H907 0.950 . S
C933 C932 1.414 . S
C933 C934 1.374 . S
C934 H908 0.950 . S
C934 C930 1.385 . S
C934 C933 1.374 . S
C935 C932 1.499 . S
C935 C936 1.373 . S
C935 C937 1.389 . S
C936 H909 0.950 . S
C936 C922 1.377 . S
C936 C935 1.373 . S
C937 C921 1.377 . S
C937 C935 1.389 . S
C937 C938 1.524 . S
C938 C937 1.524 . S
C938 C939 1.397 . S
C938 C943 1.363 . S
C939 H910 0.950 . S
C939 C938 1.397 . S
C939 C940 1.334 . S
C940 H911 0.950 . S
C940 C939 1.334 . S
C940 C941 1.287 . S
C941 C940 1.287 . S
C941 C942 1.524 . S
C941 H944 0.999 . S
C942 H912 0.950 . S
C942 C941 1.524 . S
C942 C943 1.415 . S
C943 H913 0.950 . S
C943 C938 1.363 . S
C943 C942 1.415 . S
H944 C941 0.999 . S
H945 C926 0.913 . S
H946 C964 0.951 . S
H947 C966 0.951 . S
H948 C968 0.950 . S
H949 C969 0.950 . S
H950 C971 0.950 . S
H951 C974 0.950 . S
H952 C975 0.950 . S
H953 C977 0.950 1_556 S
H954 C978 0.967 . S
H955 C979 0.951 . S
H956 C981 0.951 . S
H957 C983 0.950 1_556 S
H958 C984 0.956 1_556 S
H959 C986 0.950 . S
H960 C989 0.950 . S
H961 C990 0.950 . S
H962 C992 0.950 . S
H963 C993 0.950 . S
C964 H946 0.951 . S
C964 C965 1.366 . S
C964 C966 1.388 . S
C965 C964 1.366 . S
C965 C969 1.385 . S
C966 H947 0.951 . S
C966 C964 1.388 . S
C966 C967 1.366 . S
C967 C966 1.366 . S
C967 C968 1.414 . S
C967 C970 1.499 . S
C968 H948 0.950 . S
C968 C967 1.414 . S
C968 C969 1.374 . S
C969 H949 0.950 . S
C969 C965 1.385 . S
C969 C968 1.374 . S
C970 C967 1.499 . S
C970 C971 1.373 . S
C970 C972 1.389 . S
C971 H950 0.950 . S
C971 C970 1.373 . S
C971 C987 1.377 . S
C972 C970 1.389 . S
C972 C973 1.524 . S
C972 C986 1.377 . S
C973 C972 1.524 . S
C973 C974 1.397 . S
C973 C978 1.363 . S
C974 H951 0.950 . S
C974 C973 1.397 . S
C974 C975 1.334 . S
C975 H952 0.950 . S
C975 C974 1.334 . S
C975 C976 1.287 . S
C976 C975 1.287 . S
C976 C977 1.524 . S
C976 H995 0.913 . S
C977 H953 0.950 1_554 S
C977 C976 1.524 . S
C977 C978 1.415 . S
C978 H954 0.967 . S
C978 C973 1.363 . S
C978 C977 1.415 . S
C979 H955 0.951 . S
C979 C980 1.366 . S
C979 C981 1.388 . S
C980 C979 1.366 . S
C980 C984 1.380 . S
C981 H956 0.951 . S
C981 C979 1.388 . S
C981 C982 1.366 . S
C982 C981 1.366 . S
C982 C983 1.414 . S
C982 C985 1.499 . S
C983 H957 0.950 1_554 S
C983 C982 1.414 . S
C983 C984 1.372 . S
C984 H958 0.956 1_554 S
C984 C980 1.380 . S
C984 C983 1.372 . S
C985 C982 1.499 . S
C985 C986 1.373 . S
C985 C987 1.389 . S
C986 H959 0.950 . S
C986 C972 1.377 . S
C986 C985 1.373 . S
C987 C971 1.377 . S
C987 C985 1.389 . S
C987 C988 1.524 . S
C988 C987 1.524 . S
C988 C989 1.397 . S
C988 C993 1.363 . S
C989 H960 0.950 . S
C989 C988 1.397 . S
C989 C990 1.334 . S
C990 H961 0.950 . S
C990 C989 1.334 . S
C990 C991 1.287 . S
C991 C990 1.287 . S
C991 C992 1.524 . S
C991 H994 0.999 . S
C992 H962 0.950 . S
C992 C991 1.524 . S
C992 C993 1.415 . S
C993 H963 0.950 . S
C993 C988 1.363 . S
C993 C992 1.415 . S
H994 C991 0.999 . S
H995 C976 0.913 . S
H996 C1014 0.951 . S
H997 C1016 0.951 . S
H998 C1018 0.950 . S
H999 C1019 0.950 . S
H1000 C1021 0.950 . S
H1001 C1024 0.950 . S
H1002 C1025 0.950 . S
H1003 C1027 0.950 . S
H1004 C1028 0.950 . S
H1005 C1029 0.951 . S
H1006 C1031 0.951 . S
H1007 C1033 0.950 . S
H1008 C1034 0.950 . S
H1009 C1036 0.950 . S
H1010 C1039 0.950 . S
H1011 C1040 0.950 . S
H1012 C1042 0.950 . S
H1013 C1043 0.950 . S
C1014 H996 0.951 . S
C1014 C1015 1.366 . S
C1014 C1016 1.388 . S
C1015 C1014 1.366 . S
C1015 C1019 1.385 . S
C1016 H997 0.951 . S
C1016 C1014 1.388 . S
C1016 C1017 1.366 . S
C1017 C1016 1.366 . S
C1017 C1018 1.414 . S
C1017 C1020 1.499 . S
C1018 H998 0.950 . S
C1018 C1017 1.414 . S
C1018 C1019 1.374 . S
C1019 H999 0.950 . S
C1019 C1015 1.385 . S
C1019 C1018 1.374 . S
C1020 C1017 1.499 . S
C1020 C1021 1.373 . S
C1020 C1022 1.389 . S
C1021 H1000 0.950 . S
C1021 C1020 1.373 . S
C1021 C1037 1.377 . S
C1022 C1020 1.389 . S
C1022 C1023 1.524 . S
C1022 C1036 1.377 . S
C1023 C1022 1.524 . S
C1023 C1024 1.397 . S
C1023 C1028 1.363 . S
C1024 H1001 0.950 . S
C1024 C1023 1.397 . S
C1024 C1025 1.334 . S
C1025 H1002 0.950 . S
C1025 C1024 1.334 . S
C1025 C1026 1.287 . S
C1026 C1025 1.287 . S
C1026 C1027 1.524 . S
C1026 H1045 0.913 . S
C1027 H1003 0.950 . S
C1027 C1026 1.524 . S
C1027 C1028 1.415 . S
C1028 H1004 0.950 . S
C1028 C1023 1.363 . S
C1028 C1027 1.415 . S
C1029 H1005 0.951 . S
C1029 C1030 1.366 . S
C1029 C1031 1.388 . S
C1030 C1029 1.366 . S
C1030 C1034 1.385 . S
C1031 H1006 0.951 . S
C1031 C1029 1.388 . S
C1031 C1032 1.366 . S
C1032 C1031 1.366 . S
C1032 C1033 1.414 . S
C1032 C1035 1.499 . S
C1033 H1007 0.950 . S
C1033 C1032 1.414 . S
C1033 C1034 1.374 . S
C1034 H1008 0.950 . S
C1034 C1030 1.385 . S
C1034 C1033 1.374 . S
C1035 C1032 1.499 . S
C1035 C1036 1.373 . S
C1035 C1037 1.389 . S
C1036 H1009 0.950 . S
C1036 C1022 1.377 . S
C1036 C1035 1.373 . S
C1037 C1021 1.377 . S
C1037 C1035 1.389 . S
C1037 C1038 1.524 . S
C1038 C1037 1.524 . S
C1038 C1039 1.397 . S
C1038 C1043 1.363 . S
C1039 H1010 0.950 . S
C1039 C1038 1.397 . S
C1039 C1040 1.334 . S
C1040 H1011 0.950 . S
C1040 C1039 1.334 . S
C1040 C1041 1.287 . S
C1041 C1040 1.287 . S
C1041 C1042 1.524 . S
C1041 H1044 0.999 . S
C1042 H1012 0.950 . S
C1042 C1041 1.524 . S
C1042 C1043 1.415 . S
C1043 H1013 0.950 . S
C1043 C1038 1.363 . S
C1043 C1042 1.415 . S
H1044 C1041 0.999 . S
H1045 C1026 0.913 . S
H1046 C1064 0.951 . S
H1047 C1066 0.951 . S
H1048 C1068 0.950 . S
H1049 C1069 0.950 . S
H1050 C1071 0.950 . S
H1051 C1074 0.950 . S
H1052 C1075 0.950 . S
H1053 C1077 0.950 1_455 S
H1054 C1078 0.950 . S
H1055 C1079 0.951 . S
H1056 C1081 0.951 . S
H1057 C1083 0.950 . S
H1058 C1084 0.950 . S
H1059 C1086 0.950 . S
H1060 C1089 0.950 . S
H1061 C1090 0.950 . S
H1062 C1092 0.950 . S
H1063 C1093 0.950 . S
C1064 H1046 0.951 . S
C1064 C1065 1.366 . S
C1064 C1066 1.388 . S
C1065 C1064 1.366 . S
C1065 C1069 1.385 . S
C1066 H1047 0.951 . S
C1066 C1064 1.388 . S
C1066 C1067 1.366 . S
C1067 C1066 1.366 . S
C1067 C1068 1.414 . S
C1067 C1070 1.499 . S
C1068 H1048 0.950 . S
C1068 C1067 1.414 . S
C1068 C1069 1.374 . S
C1069 H1049 0.950 . S
C1069 C1065 1.385 . S
C1069 C1068 1.374 . S
C1070 C1067 1.499 . S
C1070 C1071 1.373 . S
C1070 C1072 1.389 . S
C1071 H1050 0.950 . S
C1071 C1070 1.373 . S
C1071 C1087 1.377 . S
C1072 C1070 1.389 . S
C1072 C1073 1.524 . S
C1072 C1086 1.377 . S
C1073 C1072 1.524 . S
C1073 C1074 1.397 . S
C1073 C1078 1.363 . S
C1074 H1051 0.950 . S
C1074 C1073 1.397 . S
C1074 C1075 1.334 . S
C1075 H1052 0.950 . S
C1075 C1074 1.334 . S
C1075 C1076 1.287 . S
C1076 C1075 1.287 . S
C1076 C1077 1.524 . S
C1076 H1095 0.913 1_655 S
C1077 H1053 0.950 1_655 S
C1077 C1076 1.524 . S
C1077 C1078 1.415 . S
C1078 H1054 0.950 . S
C1078 C1073 1.363 . S
C1078 C1077 1.415 . S
C1079 H1055 0.951 . S
C1079 C1080 1.366 . S
C1079 C1081 1.388 . S
C1080 C1079 1.366 . S
C1080 C1084 1.385 . S
C1081 H1056 0.951 . S
C1081 C1079 1.388 . S
C1081 C1082 1.366 . S
C1082 C1081 1.366 . S
C1082 C1083 1.414 . S
C1082 C1085 1.499 . S
C1083 H1057 0.950 . S
C1083 C1082 1.414 . S
C1083 C1084 1.374 . S
C1084 H1058 0.950 . S
C1084 C1080 1.385 . S
C1084 C1083 1.374 . S
C1085 C1082 1.499 . S
C1085 C1086 1.373 . S
C1085 C1087 1.389 . S
C1086 H1059 0.950 . S
C1086 C1072 1.377 . S
C1086 C1085 1.373 . S
C1087 C1071 1.377 . S
C1087 C1085 1.389 . S
C1087 C1088 1.524 . S
C1088 C1087 1.524 . S
C1088 C1089 1.397 . S
C1088 C1093 1.363 . S
C1089 H1060 0.950 . S
C1089 C1088 1.397 . S
C1089 C1090 1.334 . S
C1090 H1061 0.950 . S
C1090 C1089 1.334 . S
C1090 C1091 1.287 . S
C1091 C1090 1.287 . S
C1091 C1092 1.524 . S
C1091 H1094 0.999 . S
C1092 H1062 0.950 . S
C1092 C1091 1.524 . S
C1092 C1093 1.415 . S
C1093 H1063 0.950 . S
C1093 C1088 1.363 . S
C1093 C1092 1.415 . S
H1094 C1091 0.999 . S
H1095 C1076 0.913 1_455 S
H1096 C1114 0.951 . S
H1097 C1116 0.951 . S
H1098 C1118 0.950 . S
H1099 C1119 0.950 . S
H1100 C1121 0.950 . S
H1101 C1124 0.950 . S
H1102 C1125 0.950 . S
H1103 C1127 0.950 . S
H1104 C1128 0.950 . S
H1105 C1129 0.951 . S
H1106 C1131 0.951 . S
H1107 C1133 0.950 . S
H1108 C1134 0.950 . S
H1109 C1136 0.950 . S
H1110 C1139 0.950 . S
H1111 C1140 0.950 . S
H1112 C1142 0.950 . S
H1113 C1143 0.950 . S
C1114 H1096 0.951 . S
C1114 C1115 1.366 . S
C1114 C1116 1.388 . S
C1115 C1114 1.366 . S
C1115 C1119 1.385 . S
C1116 H1097 0.951 . S
C1116 C1114 1.388 . S
C1116 C1117 1.366 . S
C1117 C1116 1.366 . S
C1117 C1118 1.414 . S
C1117 C1120 1.499 . S
C1118 H1098 0.950 . S
C1118 C1117 1.414 . S
C1118 C1119 1.374 . S
C1119 H1099 0.950 . S
C1119 C1115 1.385 . S
C1119 C1118 1.374 . S
C1120 C1117 1.499 . S
C1120 C1121 1.373 . S
C1120 C1122 1.389 . S
C1121 H1100 0.950 . S
C1121 C1120 1.373 . S
C1121 C1137 1.377 . S
C1122 C1120 1.389 . S
C1122 C1123 1.524 . S
C1122 C1136 1.377 . S
C1123 C1122 1.524 . S
C1123 C1124 1.397 . S
C1123 C1128 1.363 . S
C1124 H1101 0.950 . S
C1124 C1123 1.397 . S
C1124 C1125 1.334 . S
C1125 H1102 0.950 . S
C1125 C1124 1.334 . S
C1125 C1126 1.287 . S
C1126 C1125 1.287 . S
C1126 C1127 1.524 . S
C1126 H1145 0.913 . S
C1127 H1103 0.950 . S
C1127 C1126 1.524 . S
C1127 C1128 1.415 . S
C1128 H1104 0.950 . S
C1128 C1123 1.363 . S
C1128 C1127 1.415 . S
C1129 H1105 0.951 . S
C1129 C1130 1.366 . S
C1129 C1131 1.388 . S
C1130 C1129 1.366 . S
C1130 C1134 1.385 . S
C1131 H1106 0.951 . S
C1131 C1129 1.388 . S
C1131 C1132 1.366 . S
C1132 C1131 1.366 . S
C1132 C1133 1.414 . S
C1132 C1135 1.499 . S
C1133 H1107 0.950 . S
C1133 C1132 1.414 . S
C1133 C1134 1.374 . S
C1134 H1108 0.950 . S
C1134 C1130 1.385 . S
C1134 C1133 1.374 . S
C1135 C1132 1.499 . S
C1135 C1136 1.373 . S
C1135 C1137 1.389 . S
C1136 H1109 0.950 . S
C1136 C1122 1.377 . S
C1136 C1135 1.373 . S
C1137 C1121 1.377 . S
C1137 C1135 1.389 . S
C1137 C1138 1.524 . S
C1138 C1137 1.524 . S
C1138 C1139 1.397 . S
C1138 C1143 1.363 . S
C1139 H1110 0.950 . S
C1139 C1138 1.397 . S
C1139 C1140 1.334 . S
C1140 H1111 0.950 . S
C1140 C1139 1.334 . S
C1140 C1141 1.287 . S
C1141 C1140 1.287 . S
C1141 C1142 1.524 . S
C1141 H1144 0.999 . S
C1142 H1112 0.950 . S
C1142 C1141 1.524 . S
C1142 C1143 1.415 . S
C1143 H1113 0.950 . S
C1143 C1138 1.363 . S
C1143 C1142 1.415 . S
H1144 C1141 0.999 . S
H1145 C1126 0.913 . S
H1146 C1164 0.951 . S
H1147 C1166 0.951 . S
H1148 C1168 0.950 . S
H1149 C1169 0.950 . S
H1150 C1171 0.950 . S
H1151 C1174 0.950 . S
H1152 C1175 0.950 . S
H1153 C1177 0.950 . S
H1154 C1178 0.950 . S
H1155 C1179 0.951 . S
H1156 C1181 0.951 . S
H1157 C1183 0.950 . S
H1158 C1184 0.950 . S
H1159 C1186 0.950 . S
H1160 C1189 0.950 . S
H1161 C1190 0.950 . S
H1162 C1192 0.950 . S
H1163 C1193 0.950 . S
C1164 H1146 0.951 . S
C1164 C1165 1.366 . S
C1164 C1166 1.388 . S
C1165 C1164 1.366 . S
C1165 C1169 1.385 . S
C1166 H1147 0.951 . S
C1166 C1164 1.388 . S
C1166 C1167 1.366 . S
C1167 C1166 1.366 . S
C1167 C1168 1.414 . S
C1167 C1170 1.499 . S
C1168 H1148 0.950 . S
C1168 C1167 1.414 . S
C1168 C1169 1.374 . S
C1169 H1149 0.950 . S
C1169 C1165 1.385 . S
C1169 C1168 1.374 . S
C1170 C1167 1.499 . S
C1170 C1171 1.373 . S
C1170 C1172 1.389 . S
C1171 H1150 0.950 . S
C1171 C1170 1.373 . S
C1171 C1187 1.377 . S
C1172 C1170 1.389 . S
C1172 C1173 1.524 . S
C1172 C1186 1.377 . S
C1173 C1172 1.524 . S
C1173 C1174 1.397 . S
C1173 C1178 1.363 . S
C1174 H1151 0.950 . S
C1174 C1173 1.397 . S
C1174 C1175 1.334 . S
C1175 H1152 0.950 . S
C1175 C1174 1.334 . S
C1175 C1176 1.287 . S
C1176 C1175 1.287 . S
C1176 C1177 1.524 . S
C1176 H1195 0.913 . S
C1177 H1153 0.950 . S
C1177 C1176 1.524 . S
C1177 C1178 1.415 . S
C1178 H1154 0.950 . S
C1178 C1173 1.363 . S
C1178 C1177 1.415 . S
C1179 H1155 0.951 . S
C1179 C1180 1.366 . S
C1179 C1181 1.388 . S
C1180 C1179 1.366 . S
C1180 C1184 1.385 . S
C1181 H1156 0.951 . S
C1181 C1179 1.388 . S
C1181 C1182 1.366 . S
C1182 C1181 1.366 . S
C1182 C1183 1.414 . S
C1182 C1185 1.499 . S
C1183 H1157 0.950 . S
C1183 C1182 1.414 . S
C1183 C1184 1.374 . S
C1184 H1158 0.950 . S
C1184 C1180 1.385 . S
C1184 C1183 1.374 . S
C1185 C1182 1.499 . S
C1185 C1186 1.373 . S
C1185 C1187 1.389 . S
C1186 H1159 0.950 . S
C1186 C1172 1.377 . S
C1186 C1185 1.373 . S
C1187 C1171 1.377 . S
C1187 C1185 1.389 . S
C1187 C1188 1.524 . S
C1188 C1187 1.524 . S
C1188 C1189 1.397 . S
C1188 C1193 1.363 . S
C1189 H1160 0.950 . S
C1189 C1188 1.397 . S
C1189 C1190 1.334 . S
C1190 H1161 0.950 . S
C1190 C1189 1.334 . S
C1190 C1191 1.287 . S
C1191 C1190 1.287 . S
C1191 C1192 1.524 . S
C1191 H1194 0.999 . S
C1192 H1162 0.950 . S
C1192 C1191 1.524 . S
C1192 C1193 1.415 . S
C1193 H1163 0.950 . S
C1193 C1188 1.363 . S
C1193 C1192 1.415 . S
H1194 C1191 0.999 . S
H1195 C1176 0.913 . S
H1196 C1214 0.951 . S
H1197 C1216 0.951 . S
H1198 C1218 0.950 . S
H1199 C1219 0.950 . S
H1200 C1221 0.950 . S
H1201 C1224 0.950 . S
H1202 C1225 0.950 . S
H1203 C1227 0.950 . S
H1204 C1228 0.950 . S
H1205 C1229 0.951 . S
H1206 C1231 0.951 . S
H1207 C1233 0.933 1_554 S
H1208 C1234 0.950 . S
H1209 C1236 0.950 . S
H1210 C1239 0.950 . S
H1211 C1240 0.950 . S
H1212 C1242 0.950 . S
H1213 C1243 0.950 . S
C1214 H1196 0.951 . S
C1214 C1215 1.366 . S
C1214 C1216 1.388 . S
C1215 C1214 1.366 . S
C1215 C1219 1.385 . S
C1216 H1197 0.951 . S
C1216 C1214 1.388 . S
C1216 C1217 1.366 . S
C1217 C1216 1.366 . S
C1217 C1218 1.414 . S
C1217 C1220 1.499 . S
C1218 H1198 0.950 . S
C1218 C1217 1.414 . S
C1218 C1219 1.374 . S
C1219 H1199 0.950 . S
C1219 C1215 1.385 . S
C1219 C1218 1.374 . S
C1220 C1217 1.499 . S
C1220 C1221 1.373 . S
C1220 C1222 1.389 . S
C1221 H1200 0.950 . S
C1221 C1220 1.373 . S
C1221 C1237 1.377 . S
C1222 C1220 1.389 . S
C1222 C1223 1.524 . S
C1222 C1236 1.377 . S
C1223 C1222 1.524 . S
C1223 C1224 1.397 . S
C1223 C1228 1.363 . S
C1224 H1201 0.950 . S
C1224 C1223 1.397 . S
C1224 C1225 1.334 . S
C1225 H1202 0.950 . S
C1225 C1224 1.334 . S
C1225 C1226 1.287 . S
C1226 C1225 1.287 . S
C1226 C1227 1.524 . S
C1226 H1245 0.913 . S
C1227 H1203 0.950 . S
C1227 C1226 1.524 . S
C1227 C1228 1.415 . S
C1228 H1204 0.950 . S
C1228 C1223 1.363 . S
C1228 C1227 1.415 . S
C1229 H1205 0.951 . S
C1229 C1230 1.366 . S
C1229 C1231 1.388 . S
C1230 C1229 1.366 . S
C1230 C1234 1.385 1_556 S
C1231 H1206 0.951 . S
C1231 C1229 1.388 . S
C1231 C1232 1.366 . S
C1232 C1231 1.366 . S
C1232 C1233 1.443 . S
C1232 C1235 1.499 . S
C1233 H1207 0.933 1_556 S
C1233 C1232 1.443 . S
C1233 C1234 1.365 1_556 S
C1234 H1208 0.950 . S
C1234 C1230 1.385 1_554 S
C1234 C1233 1.365 1_554 S
C1235 C1232 1.499 . S
C1235 C1236 1.373 . S
C1235 C1237 1.389 . S
C1236 H1209 0.950 . S
C1236 C1222 1.377 . S
C1236 C1235 1.373 . S
C1237 C1221 1.377 . S
C1237 C1235 1.389 . S
C1237 C1238 1.524 . S
C1238 C1237 1.524 . S
C1238 C1239 1.397 1_556 S
C1238 C1243 1.363 . S
C1239 H1210 0.950 . S
C1239 C1238 1.397 1_554 S
C1239 C1240 1.334 . S
C1240 H1211 0.950 . S
C1240 C1239 1.334 . S
C1240 C1241 1.287 . S
C1241 C1240 1.287 . S
C1241 C1242 1.524 1_554 S
C1241 H1244 0.999 . S
C1242 H1212 0.950 . S
C1242 C1241 1.524 1_556 S
C1242 C1243 1.415 . S
C1243 H1213 0.950 . S
C1243 C1238 1.363 . S
C1243 C1242 1.415 . S
H1244 C1241 0.999 . S
H1245 C1226 0.913 . S
H1246 C1264 0.951 . S
H1247 C1266 0.951 . S
H1248 C1268 0.950 . S
H1249 C1269 0.950 . S
H1250 C1271 0.950 . S
H1251 C1274 0.950 . S
H1252 C1275 0.950 . S
H1253 C1277 0.950 . S
H1254 C1278 0.950 . S
H1255 C1279 0.951 . S
H1256 C1281 0.951 . S
H1257 C1283 0.950 . S
H1258 C1284 0.950 . S
H1259 C1286 0.950 . S
H1260 C1289 0.950 . S
H1261 C1290 0.950 . S
H1262 C1292 0.950 . S
H1263 C1293 0.950 . S
C1264 H1246 0.951 . S
C1264 C1265 1.366 . S
C1264 C1266 1.388 . S
C1265 C1264 1.366 . S
C1265 C1269 1.385 . S
C1266 H1247 0.951 . S
C1266 C1264 1.388 . S
C1266 C1267 1.366 . S
C1267 C1266 1.366 . S
C1267 C1268 1.414 . S
C1267 C1270 1.499 . S
C1268 H1248 0.950 . S
C1268 C1267 1.414 . S
C1268 C1269 1.374 . S
C1269 H1249 0.950 . S
C1269 C1265 1.385 . S
C1269 C1268 1.374 . S
C1270 C1267 1.499 . S
C1270 C1271 1.373 . S
C1270 C1272 1.389 . S
C1271 H1250 0.950 . S
C1271 C1270 1.373 . S
C1271 C1287 1.377 . S
C1272 C1270 1.389 . S
C1272 C1273 1.524 . S
C1272 C1286 1.377 . S
C1273 C1272 1.524 . S
C1273 C1274 1.397 . S
C1273 C1278 1.363 . S
C1274 H1251 0.950 . S
C1274 C1273 1.397 . S
C1274 C1275 1.334 . S
C1275 H1252 0.950 . S
C1275 C1274 1.334 . S
C1275 C1276 1.287 . S
C1276 C1275 1.287 . S
C1276 C1277 1.524 . S
C1276 H1295 0.913 . S
C1277 H1253 0.950 . S
C1277 C1276 1.524 . S
C1277 C1278 1.415 . S
C1278 H1254 0.950 . S
C1278 C1273 1.363 . S
C1278 C1277 1.415 . S
C1279 H1255 0.951 . S
C1279 C1280 1.366 . S
C1279 C1281 1.388 . S
C1280 C1279 1.366 . S
C1280 C1284 1.385 . S
C1281 H1256 0.951 . S
C1281 C1279 1.388 . S
C1281 C1282 1.366 . S
C1282 C1281 1.366 . S
C1282 C1283 1.414 . S
C1282 C1285 1.499 . S
C1283 H1257 0.950 . S
C1283 C1282 1.414 . S
C1283 C1284 1.374 . S
C1284 H1258 0.950 . S
C1284 C1280 1.385 . S
C1284 C1283 1.374 . S
C1285 C1282 1.499 . S
C1285 C1286 1.373 . S
C1285 C1287 1.389 . S
C1286 H1259 0.950 . S
C1286 C1272 1.377 . S
C1286 C1285 1.373 . S
C1287 C1271 1.377 . S
C1287 C1285 1.389 . S
C1287 C1288 1.524 . S
C1288 C1287 1.524 . S
C1288 C1289 1.397 . S
C1288 C1293 1.363 . S
C1289 H1260 0.950 . S
C1289 C1288 1.397 . S
C1289 C1290 1.334 . S
C1290 H1261 0.950 . S
C1290 C1289 1.334 . S
C1290 C1291 1.287 . S
C1291 C1290 1.287 . S
C1291 C1292 1.524 . S
C1291 H1294 0.999 . S
C1292 H1262 0.950 . S
C1292 C1291 1.524 . S
C1292 C1293 1.415 . S
C1293 H1263 0.950 . S
C1293 C1288 1.363 . S
C1293 C1292 1.415 . S
H1294 C1291 0.999 . S
H1295 C1276 0.913 . S
H1296 C1314 0.951 . S
H1297 C1316 0.951 . S
H1298 C1318 0.950 . S
H1299 C1319 0.950 . S
H1300 C1321 0.950 . S
H1301 C1324 0.950 . S
H1302 C1325 0.950 . S
H1303 C1327 0.950 . S
H1304 C1328 0.950 . S
H1305 C1329 0.951 . S
H1306 C1331 0.951 . S
H1307 C1333 0.950 . S
H1308 C1334 0.950 . S
H1309 C1336 0.950 . S
H1310 C1339 0.950 . S
H1311 C1340 0.950 . S
H1312 C1342 0.950 . S
H1313 C1343 0.950 . S
C1314 H1296 0.951 . S
C1314 C1315 1.366 . S
C1314 C1316 1.388 . S
C1315 C1314 1.366 . S
C1315 C1319 1.385 . S
C1316 H1297 0.951 . S
C1316 C1314 1.388 . S
C1316 C1317 1.366 . S
C1317 C1316 1.366 . S
C1317 C1318 1.414 . S
C1317 C1320 1.499 . S
C1318 H1298 0.950 . S
C1318 C1317 1.414 . S
C1318 C1319 1.374 . S
C1319 H1299 0.950 . S
C1319 C1315 1.385 . S
C1319 C1318 1.374 . S
C1320 C1317 1.499 . S
C1320 C1321 1.373 . S
C1320 C1322 1.389 . S
C1321 H1300 0.950 . S
C1321 C1320 1.373 . S
C1321 C1337 1.377 . S
C1322 C1320 1.389 . S
C1322 C1323 1.524 . S
C1322 C1336 1.377 . S
C1323 C1322 1.524 . S
C1323 C1324 1.397 . S
C1323 C1328 1.363 . S
C1324 H1301 0.950 . S
C1324 C1323 1.397 . S
C1324 C1325 1.334 . S
C1325 H1302 0.950 . S
C1325 C1324 1.334 . S
C1325 C1326 1.287 . S
C1326 C1325 1.287 . S
C1326 C1327 1.524 . S
C1326 H1345 0.913 . S
C1327 H1303 0.950 . S
C1327 C1326 1.524 . S
C1327 C1328 1.415 . S
C1328 H1304 0.950 . S
C1328 C1323 1.363 . S
C1328 C1327 1.415 . S
C1329 H1305 0.951 . S
C1329 C1330 1.366 . S
C1329 C1331 1.388 . S
C1330 C1329 1.366 . S
C1330 C1334 1.385 . S
C1331 H1306 0.951 . S
C1331 C1329 1.388 . S
C1331 C1332 1.366 . S
C1332 C1331 1.366 . S
C1332 C1333 1.414 . S
C1332 C1335 1.499 . S
C1333 H1307 0.950 . S
C1333 C1332 1.414 . S
C1333 C1334 1.374 . S
C1334 H1308 0.950 . S
C1334 C1330 1.385 . S
C1334 C1333 1.374 . S
C1335 C1332 1.499 . S
C1335 C1336 1.373 . S
C1335 C1337 1.389 . S
C1336 H1309 0.950 . S
C1336 C1322 1.377 . S
C1336 C1335 1.373 . S
C1337 C1321 1.377 . S
C1337 C1335 1.389 . S
C1337 C1338 1.524 . S
C1338 C1337 1.524 . S
C1338 C1339 1.397 . S
C1338 C1343 1.363 . S
C1339 H1310 0.950 . S
C1339 C1338 1.397 . S
C1339 C1340 1.334 . S
C1340 H1311 0.950 . S
C1340 C1339 1.334 . S
C1340 C1341 1.287 . S
C1341 C1340 1.287 . S
C1341 C1342 1.524 . S
C1341 H1344 0.999 . S
C1342 H1312 0.950 . S
C1342 C1341 1.524 . S
C1342 C1343 1.415 . S
C1343 H1313 0.950 . S
C1343 C1338 1.363 . S
C1343 C1342 1.415 . S
H1344 C1341 0.999 . S
H1345 C1326 0.913 . S
H1346 C1364 0.951 . S
H1347 C1366 0.951 . S
H1348 C1368 0.950 . S
H1349 C1369 0.950 . S
H1350 C1371 0.950 . S
H1351 C1374 0.950 . S
H1352 C1375 0.950 . S
H1353 C1377 0.950 . S
H1354 C1378 0.950 . S
H1355 C1379 0.951 . S
H1356 C1381 0.951 . S
H1357 C1383 0.950 . S
H1358 C1384 0.950 . S
H1359 C1386 0.950 . S
H1360 C1389 0.950 . S
H1361 C1390 0.950 . S
H1362 C1392 0.950 . S
H1363 C1393 0.950 . S
C1364 H1346 0.951 . S
C1364 C1365 1.366 . S
C1364 C1366 1.388 . S
C1365 C1364 1.366 . S
C1365 C1369 1.385 . S
C1366 H1347 0.951 . S
C1366 C1364 1.388 . S
C1366 C1367 1.366 . S
C1367 C1366 1.366 . S
C1367 C1368 1.414 . S
C1367 C1370 1.499 . S
C1368 H1348 0.950 . S
C1368 C1367 1.414 . S
C1368 C1369 1.374 . S
C1369 H1349 0.950 . S
C1369 C1365 1.385 . S
C1369 C1368 1.374 . S
C1370 C1367 1.499 . S
C1370 C1371 1.373 . S
C1370 C1372 1.389 . S
C1371 H1350 0.950 . S
C1371 C1370 1.373 . S
C1371 C1387 1.377 . S
C1372 C1370 1.389 . S
C1372 C1373 1.524 . S
C1372 C1386 1.377 . S
C1373 C1372 1.524 . S
C1373 C1374 1.397 . S
C1373 C1378 1.363 . S
C1374 H1351 0.950 . S
C1374 C1373 1.397 . S
C1374 C1375 1.334 . S
C1375 H1352 0.950 . S
C1375 C1374 1.334 . S
C1375 C1376 1.287 . S
C1376 C1375 1.287 . S
C1376 C1377 1.524 . S
C1376 H1395 0.913 . S
C1377 H1353 0.950 . S
C1377 C1376 1.524 . S
C1377 C1378 1.415 . S
C1378 H1354 0.950 . S
C1378 C1373 1.363 . S
C1378 C1377 1.415 . S
C1379 H1355 0.951 . S
C1379 C1380 1.366 . S
C1379 C1381 1.388 . S
C1380 C1379 1.366 . S
C1380 C1384 1.385 . S
C1381 H1356 0.951 . S
C1381 C1379 1.388 . S
C1381 C1382 1.366 . S
C1382 C1381 1.366 . S
C1382 C1383 1.414 . S
C1382 C1385 1.499 . S
C1383 H1357 0.950 . S
C1383 C1382 1.414 . S
C1383 C1384 1.374 . S
C1384 H1358 0.950 . S
C1384 C1380 1.385 . S
C1384 C1383 1.374 . S
C1385 C1382 1.499 . S
C1385 C1386 1.373 . S
C1385 C1387 1.389 . S
C1386 H1359 0.950 . S
C1386 C1372 1.377 . S
C1386 C1385 1.373 . S
C1387 C1371 1.377 . S
C1387 C1385 1.389 . S
C1387 C1388 1.524 . S
C1388 C1387 1.524 . S
C1388 C1389 1.397 . S
C1388 C1393 1.363 . S
C1389 H1360 0.950 . S
C1389 C1388 1.397 . S
C1389 C1390 1.334 . S
C1390 H1361 0.950 . S
C1390 C1389 1.334 . S
C1390 C1391 1.287 . S
C1391 C1390 1.287 . S
C1391 C1392 1.524 . S
C1391 H1394 0.999 . S
C1392 H1362 0.950 . S
C1392 C1391 1.524 . S
C1392 C1393 1.415 . S
C1393 H1363 0.950 . S
C1393 C1388 1.363 . S
C1393 C1392 1.415 . S
H1394 C1391 0.999 . S
H1395 C1376 0.913 . S
H1396 C1414 0.951 . S
H1397 C1416 0.951 . S
H1398 C1418 0.950 . S
H1399 C1419 0.950 . S
H1400 C1421 0.950 . S
H1401 C1424 0.950 . S
H1402 C1425 0.950 . S
H1403 C1427 0.950 . S
H1404 C1428 0.950 . S
H1405 C1429 0.951 . S
H1406 C1431 0.951 . S
H1407 C1433 0.950 . S
H1408 C1434 0.950 . S
H1409 C1436 0.950 . S
H1410 C1439 0.950 . S
H1411 C1440 0.950 . S
H1412 C1442 0.950 . S
H1413 C1443 0.950 . S
C1414 H1396 0.951 . S
C1414 C1415 1.366 . S
C1414 C1416 1.388 . S
C1415 C1414 1.366 . S
C1415 C1419 1.385 . S
C1416 H1397 0.951 . S
C1416 C1414 1.388 . S
C1416 C1417 1.366 . S
C1417 C1416 1.366 . S
C1417 C1418 1.414 . S
C1417 C1420 1.499 . S
C1418 H1398 0.950 . S
C1418 C1417 1.414 . S
C1418 C1419 1.374 . S
C1419 H1399 0.950 . S
C1419 C1415 1.385 . S
C1419 C1418 1.374 . S
C1420 C1417 1.499 . S
C1420 C1421 1.373 . S
C1420 C1422 1.389 . S
C1421 H1400 0.950 . S
C1421 C1420 1.373 . S
C1421 C1437 1.377 . S
C1422 C1420 1.389 . S
C1422 C1423 1.524 . S
C1422 C1436 1.377 . S
C1423 C1422 1.524 . S
C1423 C1424 1.397 . S
C1423 C1428 1.363 . S
C1424 H1401 0.950 . S
C1424 C1423 1.397 . S
C1424 C1425 1.334 . S
C1425 H1402 0.950 . S
C1425 C1424 1.334 . S
C1425 C1426 1.287 . S
C1426 C1425 1.287 . S
C1426 C1427 1.524 . S
C1426 H1445 0.913 . S
C1427 H1403 0.950 . S
C1427 C1426 1.524 . S
C1427 C1428 1.415 . S
C1428 H1404 0.950 . S
C1428 C1423 1.363 . S
C1428 C1427 1.415 . S
C1429 H1405 0.951 . S
C1429 C1430 1.366 . S
C1429 C1431 1.388 . S
C1430 C1429 1.366 . S
C1430 C1434 1.385 . S
C1431 H1406 0.951 . S
C1431 C1429 1.388 . S
C1431 C1432 1.366 . S
C1432 C1431 1.366 . S
C1432 C1433 1.414 . S
C1432 C1435 1.499 . S
C1433 H1407 0.950 . S
C1433 C1432 1.414 . S
C1433 C1434 1.374 . S
C1434 H1408 0.950 . S
C1434 C1430 1.385 . S
C1434 C1433 1.374 . S
C1435 C1432 1.499 . S
C1435 C1436 1.373 . S
C1435 C1437 1.389 . S
C1436 H1409 0.950 . S
C1436 C1422 1.377 . S
C1436 C1435 1.373 . S
C1437 C1421 1.377 . S
C1437 C1435 1.389 . S
C1437 C1438 1.524 . S
C1438 C1437 1.524 . S
C1438 C1439 1.397 . S
C1438 C1443 1.363 . S
C1439 H1410 0.950 . S
C1439 C1438 1.397 . S
C1439 C1440 1.334 . S
C1440 H1411 0.950 . S
C1440 C1439 1.334 . S
C1440 C1441 1.287 . S
C1441 C1440 1.287 . S
C1441 C1442 1.524 . S
C1441 H1444 0.999 . S
C1442 H1412 0.950 . S
C1442 C1441 1.524 . S
C1442 C1443 1.415 . S
C1443 H1413 0.950 . S
C1443 C1438 1.363 . S
C1443 C1442 1.415 . S
H1444 C1441 0.999 . S
H1445 C1426 0.913 . S
H1446 C1464 0.951 . S
H1447 C1466 0.951 . S
H1448 C1468 0.950 . S
H1449 C1469 0.950 . S
H1450 C1471 0.950 . S
H1451 C1474 0.950 . S
H1452 C1475 0.950 . S
H1453 C1477 0.950 . S
H1454 C1478 0.950 . S
H1455 C1479 0.951 . S
H1456 C1481 0.951 . S
H1457 C1483 0.950 . S
H1458 C1484 0.950 . S
H1459 C1486 0.950 . S
H1460 C1489 0.950 . S
H1461 C1490 0.950 . S
H1462 C1492 0.950 . S
H1463 C1493 0.950 . S
C1464 H1446 0.951 . S
C1464 C1465 1.366 . S
C1464 C1466 1.388 . S
C1465 C1464 1.366 . S
C1465 C1469 1.385 . S
C1466 H1447 0.951 . S
C1466 C1464 1.388 . S
C1466 C1467 1.366 . S
C1467 C1466 1.366 . S
C1467 C1468 1.414 . S
C1467 C1470 1.499 . S
C1468 H1448 0.950 . S
C1468 C1467 1.414 . S
C1468 C1469 1.374 . S
C1469 H1449 0.950 . S
C1469 C1465 1.385 . S
C1469 C1468 1.374 . S
C1470 C1467 1.499 . S
C1470 C1471 1.373 . S
C1470 C1472 1.389 . S
C1471 H1450 0.950 . S
C1471 C1470 1.373 . S
C1471 C1487 1.377 . S
C1472 C1470 1.389 . S
C1472 C1473 1.524 . S
C1472 C1486 1.377 . S
C1473 C1472 1.524 . S
C1473 C1474 1.397 . S
C1473 C1478 1.363 . S
C1474 H1451 0.950 . S
C1474 C1473 1.397 . S
C1474 C1475 1.334 . S
C1475 H1452 0.950 . S
C1475 C1474 1.334 . S
C1475 C1476 1.287 . S
C1476 C1475 1.287 . S
C1476 C1477 1.524 . S
C1476 H1495 0.913 . S
C1477 H1453 0.950 . S
C1477 C1476 1.524 . S
C1477 C1478 1.415 . S
C1478 H1454 0.950 . S
C1478 C1473 1.363 . S
C1478 C1477 1.415 . S
C1479 H1455 0.951 . S
C1479 C1480 1.366 . S
C1479 C1481 1.388 . S
C1480 C1479 1.366 . S
C1480 C1484 1.385 . S
C1481 H1456 0.951 . S
C1481 C1479 1.388 . S
C1481 C1482 1.366 . S
C1482 C1481 1.366 . S
C1482 C1483 1.414 . S
C1482 C1485 1.499 . S
C1483 H1457 0.950 . S
C1483 C1482 1.414 . S
C1483 C1484 1.374 . S
C1484 H1458 0.950 . S
C1484 C1480 1.385 . S
C1484 C1483 1.374 . S
C1485 C1482 1.499 . S
C1485 C1486 1.373 . S
C1485 C1487 1.389 . S
C1486 H1459 0.950 . S
C1486 C1472 1.377 . S
C1486 C1485 1.373 . S
C1487 C1471 1.377 . S
C1487 C1485 1.389 . S
C1487 C1488 1.524 . S
C1488 C1487 1.524 . S
C1488 C1489 1.397 . S
C1488 C1493 1.363 . S
C1489 H1460 0.950 . S
C1489 C1488 1.397 . S
C1489 C1490 1.334 . S
C1490 H1461 0.950 . S
C1490 C1489 1.334 . S
C1490 C1491 1.287 . S
C1491 C1490 1.287 . S
C1491 C1492 1.524 . S
C1491 H1494 0.999 . S
C1492 H1462 0.950 . S
C1492 C1491 1.524 . S
C1492 C1493 1.415 . S
C1493 H1463 0.950 . S
C1493 C1488 1.363 . S
C1493 C1492 1.415 . S
H1494 C1491 0.999 . S
H1495 C1476 0.913 . S
H1496 C1514 0.951 . S
H1497 C1516 0.951 . S
H1498 C1518 0.950 . S
H1499 C1519 0.950 . S
H1500 C1521 0.950 . S
H1501 C1524 0.950 . S
H1502 C1525 0.950 . S
H1503 C1527 0.950 . S
H1504 C1528 0.950 . S
H1505 C1529 0.951 . S
H1506 C1531 0.951 . S
H1507 C1533 0.950 . S
H1508 C1534 0.950 . S
H1509 C1536 0.950 . S
H1510 C1539 0.950 . S
H1511 C1540 0.950 . S
H1512 C1542 0.950 . S
H1513 C1543 0.950 . S
C1514 H1496 0.951 . S
C1514 C1515 1.366 . S
C1514 C1516 1.388 . S
C1515 C1514 1.366 . S
C1515 C1519 1.385 . S
C1516 H1497 0.951 . S
C1516 C1514 1.388 . S
C1516 C1517 1.366 . S
C1517 C1516 1.366 . S
C1517 C1518 1.414 . S
C1517 C1520 1.499 . S
C1518 H1498 0.950 . S
C1518 C1517 1.414 . S
C1518 C1519 1.374 . S
C1519 H1499 0.950 . S
C1519 C1515 1.385 . S
C1519 C1518 1.374 . S
C1520 C1517 1.499 . S
C1520 C1521 1.373 . S
C1520 C1522 1.389 . S
C1521 H1500 0.950 . S
C1521 C1520 1.373 . S
C1521 C1537 1.377 . S
C1522 C1520 1.389 . S
C1522 C1523 1.524 . S
C1522 C1536 1.377 . S
C1523 C1522 1.524 . S
C1523 C1524 1.397 . S
C1523 C1528 1.363 . S
C1524 H1501 0.950 . S
C1524 C1523 1.397 . S
C1524 C1525 1.334 . S
C1525 H1502 0.950 . S
C1525 C1524 1.334 . S
C1525 C1526 1.287 . S
C1526 C1525 1.287 . S
C1526 C1527 1.524 . S
C1526 H1545 0.913 . S
C1527 H1503 0.950 . S
C1527 C1526 1.524 . S
C1527 C1528 1.415 . S
C1528 H1504 0.950 . S
C1528 C1523 1.363 . S
C1528 C1527 1.415 . S
C1529 H1505 0.951 . S
C1529 C1530 1.366 . S
C1529 C1531 1.388 . S
C1530 C1529 1.366 . S
C1530 C1534 1.385 . S
C1531 H1506 0.951 . S
C1531 C1529 1.388 . S
C1531 C1532 1.366 . S
C1532 C1531 1.366 . S
C1532 C1533 1.414 . S
C1532 C1535 1.499 . S
C1533 H1507 0.950 . S
C1533 C1532 1.414 . S
C1533 C1534 1.374 . S
C1534 H1508 0.950 . S
C1534 C1530 1.385 . S
C1534 C1533 1.374 . S
C1535 C1532 1.499 . S
C1535 C1536 1.373 . S
C1535 C1537 1.389 . S
C1536 H1509 0.950 . S
C1536 C1522 1.377 . S
C1536 C1535 1.373 . S
C1537 C1521 1.377 . S
C1537 C1535 1.389 . S
C1537 C1538 1.524 . S
C1538 C1537 1.524 . S
C1538 C1539 1.397 . S
C1538 C1543 1.363 . S
C1539 H1510 0.950 . S
C1539 C1538 1.397 . S
C1539 C1540 1.334 . S
C1540 H1511 0.950 . S
C1540 C1539 1.334 . S
C1540 C1541 1.287 . S
C1541 C1540 1.287 . S
C1541 C1542 1.524 . S
C1541 H1544 0.999 . S
C1542 H1512 0.950 . S
C1542 C1541 1.524 . S
C1542 C1543 1.415 . S
C1543 H1513 0.950 . S
C1543 C1538 1.363 . S
C1543 C1542 1.415 . S
H1544 C1541 0.999 . S
H1545 C1526 0.913 . S
H1546 C1564 0.951 . S
H1547 C1566 0.951 . S
H1548 C1568 0.950 . S
H1549 C1569 0.950 . S
H1550 C1571 0.950 . S
H1551 C1574 0.950 . S
H1552 C1575 0.950 . S
H1553 C1577 0.950 . S
H1554 C1578 0.950 . S
H1555 C1579 0.951 . S
H1556 C1581 0.951 . S
H1557 C1583 0.950 . S
H1558 C1584 0.950 . S
H1559 C1586 0.950 . S
H1560 C1589 0.950 . S
H1561 C1590 0.950 . S
H1562 C1592 0.950 . S
H1563 C1593 0.950 . S
C1564 H1546 0.951 . S
C1564 C1565 1.366 . S
C1564 C1566 1.388 . S
C1565 C1564 1.366 . S
C1565 C1569 1.385 . S
C1566 H1547 0.951 . S
C1566 C1564 1.388 . S
C1566 C1567 1.366 . S
C1567 C1566 1.366 . S
C1567 C1568 1.414 . S
C1567 C1570 1.499 . S
C1568 H1548 0.950 . S
C1568 C1567 1.414 . S
C1568 C1569 1.374 . S
C1569 H1549 0.950 . S
C1569 C1565 1.385 . S
C1569 C1568 1.374 . S
C1570 C1567 1.499 . S
C1570 C1571 1.373 . S
C1570 C1572 1.389 . S
C1571 H1550 0.950 . S
C1571 C1570 1.373 . S
C1571 C1587 1.377 . S
C1572 C1570 1.389 . S
C1572 C1573 1.524 . S
C1572 C1586 1.377 . S
C1573 C1572 1.524 . S
C1573 C1574 1.397 . S
C1573 C1578 1.363 . S
C1574 H1551 0.950 . S
C1574 C1573 1.397 . S
C1574 C1575 1.334 . S
C1575 H1552 0.950 . S
C1575 C1574 1.334 . S
C1575 C1576 1.287 . S
C1576 C1575 1.287 . S
C1576 C1577 1.524 . S
C1576 H1595 0.913 . S
C1577 H1553 0.950 . S
C1577 C1576 1.524 . S
C1577 C1578 1.415 . S
C1578 H1554 0.950 . S
C1578 C1573 1.363 . S
C1578 C1577 1.415 . S
C1579 H1555 0.951 . S
C1579 C1580 1.366 . S
C1579 C1581 1.388 . S
C1580 C1579 1.366 . S
C1580 C1584 1.385 . S
C1581 H1556 0.951 . S
C1581 C1579 1.388 . S
C1581 C1582 1.366 . S
C1582 C1581 1.366 . S
C1582 C1583 1.414 . S
C1582 C1585 1.499 . S
C1583 H1557 0.950 . S
C1583 C1582 1.414 . S
C1583 C1584 1.374 . S
C1584 H1558 0.950 . S
C1584 C1580 1.385 . S
C1584 C1583 1.374 . S
C1585 C1582 1.499 . S
C1585 C1586 1.373 . S
C1585 C1587 1.389 . S
C1586 H1559 0.950 . S
C1586 C1572 1.377 . S
C1586 C1585 1.373 . S
C1587 C1571 1.377 . S
C1587 C1585 1.389 . S
C1587 C1588 1.524 . S
C1588 C1587 1.524 . S
C1588 C1589 1.397 . S
C1588 C1593 1.363 . S
C1589 H1560 0.950 . S
C1589 C1588 1.397 . S
C1589 C1590 1.334 . S
C1590 H1561 0.950 . S
C1590 C1589 1.334 . S
C1590 C1591 1.287 . S
C1591 C1590 1.287 . S
C1591 C1592 1.524 . S
C1591 H1594 0.999 . S
C1592 H1562 0.950 . S
C1592 C1591 1.524 . S
C1592 C1593 1.415 . S
C1593 H1563 0.950 . S
C1593 C1588 1.363 . S
C1593 C1592 1.415 . S
H1594 C1591 0.999 . S
H1595 C1576 0.913 . S
H1596 C1614 0.951 . S
H1597 C1616 0.951 . S
H1598 C1618 0.950 . S
H1599 C1619 0.950 . S
H1600 C1621 0.950 . S
H1601 C1624 0.950 . S
H1602 C1625 0.950 . S
H1603 C1627 0.950 . S
H1604 C1628 0.950 . S
H1605 C1629 0.951 . S
H1606 C1631 0.951 . S
H1607 C1633 0.950 . S
H1608 C1634 0.950 . S
H1609 C1636 0.950 . S
H1610 C1639 0.950 . S
H1611 C1640 0.950 . S
H1612 C1642 0.950 . S
H1613 C1643 0.950 . S
C1614 H1596 0.951 . S
C1614 C1615 1.366 . S
C1614 C1616 1.388 . S
C1615 C1614 1.366 . S
C1615 C1619 1.385 . S
C1616 H1597 0.951 . S
C1616 C1614 1.388 . S
C1616 C1617 1.366 . S
C1617 C1616 1.366 . S
C1617 C1618 1.414 . S
C1617 C1620 1.499 . S
C1618 H1598 0.950 . S
C1618 C1617 1.414 . S
C1618 C1619 1.374 . S
C1619 H1599 0.950 . S
C1619 C1615 1.385 . S
C1619 C1618 1.374 . S
C1620 C1617 1.499 . S
C1620 C1621 1.373 . S
C1620 C1622 1.389 . S
C1621 H1600 0.950 . S
C1621 C1620 1.373 . S
C1621 C1637 1.377 . S
C1622 C1620 1.389 . S
C1622 C1623 1.524 . S
C1622 C1636 1.377 . S
C1623 C1622 1.524 . S
C1623 C1624 1.397 . S
C1623 C1628 1.363 . S
C1624 H1601 0.950 . S
C1624 C1623 1.397 . S
C1624 C1625 1.334 . S
C1625 H1602 0.950 . S
C1625 C1624 1.334 . S
C1625 C1626 1.287 . S
C1626 C1625 1.287 . S
C1626 C1627 1.524 . S
C1626 H1645 0.913 . S
C1627 H1603 0.950 . S
C1627 C1626 1.524 . S
C1627 C1628 1.415 . S
C1628 H1604 0.950 . S
C1628 C1623 1.363 . S
C1628 C1627 1.415 . S
C1629 H1605 0.951 . S
C1629 C1630 1.366 . S
C1629 C1631 1.388 . S
C1630 C1629 1.366 . S
C1630 C1634 1.385 . S
C1631 H1606 0.951 . S
C1631 C1629 1.388 . S
C1631 C1632 1.366 . S
C1632 C1631 1.366 . S
C1632 C1633 1.414 . S
C1632 C1635 1.499 . S
C1633 H1607 0.950 . S
C1633 C1632 1.414 . S
C1633 C1634 1.374 . S
C1634 H1608 0.950 . S
C1634 C1630 1.385 . S
C1634 C1633 1.374 . S
C1635 C1632 1.499 . S
C1635 C1636 1.373 . S
C1635 C1637 1.389 . S
C1636 H1609 0.950 . S
C1636 C1622 1.377 . S
C1636 C1635 1.373 . S
C1637 C1621 1.377 . S
C1637 C1635 1.389 . S
C1637 C1638 1.524 . S
C1638 C1637 1.524 . S
C1638 C1639 1.397 . S
C1638 C1643 1.363 . S
C1639 H1610 0.950 . S
C1639 C1638 1.397 . S
C1639 C1640 1.334 . S
C1640 H1611 0.950 . S
C1640 C1639 1.334 . S
C1640 C1641 1.287 . S
C1641 C1640 1.287 . S
C1641 C1642 1.524 . S
C1641 H1644 0.999 . S
C1642 H1612 0.950 . S
C1642 C1641 1.524 . S
C1642 C1643 1.415 . S
C1643 H1613 0.950 . S
C1643 C1638 1.363 . S
C1643 C1642 1.415 . S
H1644 C1641 0.999 . S
H1645 C1626 0.913 . S
H1646 C1664 0.951 . S
H1647 C1666 0.951 . S
H1648 C1668 0.950 . S
H1649 C1669 0.950 . S
H1650 C1671 0.950 . S
H1651 C1674 0.950 . S
H1652 C1675 0.950 . S
H1653 C1677 0.950 . S
H1654 C1678 0.950 . S
H1655 C1679 0.951 . S
H1656 C1681 0.951 . S
H1657 C1683 0.950 . S
H1658 C1684 0.950 . S
H1659 C1686 0.950 . S
H1660 C1689 0.950 . S
H1661 C1690 0.950 . S
H1662 C1692 0.950 . S
H1663 C1693 0.950 . S
C1664 H1646 0.951 . S
C1664 C1665 1.366 . S
C1664 C1666 1.388 . S
C1665 C1664 1.366 . S
C1665 C1669 1.385 . S
C1666 H1647 0.951 . S
C1666 C1664 1.388 . S
C1666 C1667 1.366 . S
C1667 C1666 1.366 . S
C1667 C1668 1.414 . S
C1667 C1670 1.499 . S
C1668 H1648 0.950 . S
C1668 C1667 1.414 . S
C1668 C1669 1.374 . S
C1669 H1649 0.950 . S
C1669 C1665 1.385 . S
C1669 C1668 1.374 . S
C1670 C1667 1.499 . S
C1670 C1671 1.373 . S
C1670 C1672 1.389 . S
C1671 H1650 0.950 . S
C1671 C1670 1.373 . S
C1671 C1687 1.377 . S
C1672 C1670 1.389 . S
C1672 C1673 1.524 . S
C1672 C1686 1.377 . S
C1673 C1672 1.524 . S
C1673 C1674 1.397 . S
C1673 C1678 1.363 . S
C1674 H1651 0.950 . S
C1674 C1673 1.397 . S
C1674 C1675 1.334 . S
C1675 H1652 0.950 . S
C1675 C1674 1.334 . S
C1675 C1676 1.287 . S
C1676 C1675 1.287 . S
C1676 C1677 1.524 . S
C1676 H1695 0.913 . S
C1677 H1653 0.950 . S
C1677 C1676 1.524 . S
C1677 C1678 1.415 . S
C1678 H1654 0.950 . S
C1678 C1673 1.363 . S
C1678 C1677 1.415 . S
C1679 H1655 0.951 . S
C1679 C1680 1.366 . S
C1679 C1681 1.388 . S
C1680 C1679 1.366 . S
C1680 C1684 1.385 . S
C1681 H1656 0.951 . S
C1681 C1679 1.388 . S
C1681 C1682 1.366 . S
C1682 C1681 1.366 . S
C1682 C1683 1.414 . S
C1682 C1685 1.499 . S
C1683 H1657 0.950 . S
C1683 C1682 1.414 . S
C1683 C1684 1.374 . S
C1684 H1658 0.950 . S
C1684 C1680 1.385 . S
C1684 C1683 1.374 . S
C1685 C1682 1.499 . S
C1685 C1686 1.373 . S
C1685 C1687 1.389 . S
C1686 H1659 0.950 . S
C1686 C1672 1.377 . S
C1686 C1685 1.373 . S
C1687 C1671 1.377 . S
C1687 C1685 1.389 . S
C1687 C1688 1.524 . S
C1688 C1687 1.524 . S
C1688 C1689 1.397 . S
C1688 C1693 1.363 . S
C1689 H1660 0.950 . S
C1689 C1688 1.397 . S
C1689 C1690 1.334 . S
C1690 H1661 0.950 . S
C1690 C1689 1.334 . S
C1690 C1691 1.287 . S
C1691 C1690 1.287 . S
C1691 C1692 1.524 . S
C1691 H1694 0.999 . S
C1692 H1662 0.950 . S
C1692 C1691 1.524 . S
C1692 C1693 1.415 . S
C1693 H1663 0.950 . S
C1693 C1688 1.363 . S
C1693 C1692 1.415 . S
H1694 C1691 0.999 . S
H1695 C1676 0.913 . S
H1696 C1714 0.951 . S
H1697 C1716 0.951 . S
H1698 C1718 0.950 . S
H1699 C1719 0.950 . S
H1700 C1721 0.950 . S
H1701 C1724 0.950 . S
H1702 C1725 0.950 . S
H1703 C1727 0.950 . S
H1704 C1728 0.950 . S
H1705 C1729 0.951 . S
H1706 C1731 0.951 . S
H1707 C1733 0.950 . S
H1708 C1734 0.950 . S
H1709 C1736 0.950 . S
H1710 C1739 0.950 . S
H1711 C1740 0.950 . S
H1712 C1742 0.950 . S
H1713 C1743 0.950 . S
C1714 H1696 0.951 . S
C1714 C1715 1.366 . S
C1714 C1716 1.388 . S
C1715 C1714 1.366 . S
C1715 C1719 1.385 . S
C1716 H1697 0.951 . S
C1716 C1714 1.388 . S
C1716 C1717 1.366 . S
C1717 C1716 1.366 . S
C1717 C1718 1.414 . S
C1717 C1720 1.499 . S
C1718 H1698 0.950 . S
C1718 C1717 1.414 . S
C1718 C1719 1.374 . S
C1719 H1699 0.950 . S
C1719 C1715 1.385 . S
C1719 C1718 1.374 . S
C1720 C1717 1.499 . S
C1720 C1721 1.373 . S
C1720 C1722 1.389 . S
C1721 H1700 0.950 . S
C1721 C1720 1.373 . S
C1721 C1737 1.377 . S
C1722 C1720 1.389 . S
C1722 C1723 1.524 . S
C1722 C1736 1.377 . S
C1723 C1722 1.524 . S
C1723 C1724 1.397 . S
C1723 C1728 1.363 . S
C1724 H1701 0.950 . S
C1724 C1723 1.397 . S
C1724 C1725 1.334 . S
C1725 H1702 0.950 . S
C1725 C1724 1.334 . S
C1725 C1726 1.287 . S
C1726 C1725 1.287 . S
C1726 C1727 1.524 . S
C1726 H1745 0.913 . S
C1727 H1703 0.950 . S
C1727 C1726 1.524 . S
C1727 C1728 1.415 . S
C1728 H1704 0.950 . S
C1728 C1723 1.363 . S
C1728 C1727 1.415 . S
C1729 H1705 0.951 . S
C1729 C1730 1.366 . S
C1729 C1731 1.388 . S
C1730 C1729 1.366 . S
C1730 C1734 1.385 . S
C1731 H1706 0.951 . S
C1731 C1729 1.388 . S
C1731 C1732 1.366 . S
C1732 C1731 1.366 . S
C1732 C1733 1.414 . S
C1732 C1735 1.499 . S
C1733 H1707 0.950 . S
C1733 C1732 1.414 . S
C1733 C1734 1.374 . S
C1734 H1708 0.950 . S
C1734 C1730 1.385 . S
C1734 C1733 1.374 . S
C1735 C1732 1.499 . S
C1735 C1736 1.373 . S
C1735 C1737 1.389 . S
C1736 H1709 0.950 . S
C1736 C1722 1.377 . S
C1736 C1735 1.373 . S
C1737 C1721 1.377 . S
C1737 C1735 1.389 . S
C1737 C1738 1.524 . S
C1738 C1737 1.524 . S
C1738 C1739 1.397 . S
C1738 C1743 1.363 . S
C1739 H1710 0.950 . S
C1739 C1738 1.397 . S
C1739 C1740 1.334 . S
C1740 H1711 0.950 . S
C1740 C1739 1.334 . S
C1740 C1741 1.287 . S
C1741 C1740 1.287 . S
C1741 C1742 1.524 . S
C1741 H1744 0.999 . S
C1742 H1712 0.950 . S
C1742 C1741 1.524 . S
C1742 C1743 1.415 . S
C1743 H1713 0.950 . S
C1743 C1738 1.363 . S
C1743 C1742 1.415 . S
H1744 C1741 0.999 . S
H1745 C1726 0.913 . S
H1746 C1764 0.951 . S
H1747 C1766 0.951 . S
H1748 C1768 0.950 . S
H1749 C1769 0.950 . S
H1750 C1771 0.950 . S
H1751 C1774 0.950 . S
H1752 C1775 0.950 . S
H1753 C1777 0.950 . S
H1754 C1778 0.950 . S
H1755 C1779 0.951 . S
H1756 C1781 0.951 . S
H1757 C1783 0.950 . S
H1758 C1784 0.950 . S
H1759 C1786 0.950 . S
H1760 C1789 0.950 . S
H1761 C1790 0.950 . S
H1762 C1792 0.950 . S
H1763 C1793 0.950 . S
C1764 H1746 0.951 . S
C1764 C1765 1.366 . S
C1764 C1766 1.388 . S
C1765 C1764 1.366 . S
C1765 C1769 1.385 . S
C1766 H1747 0.951 . S
C1766 C1764 1.388 . S
C1766 C1767 1.366 . S
C1767 C1766 1.366 . S
C1767 C1768 1.414 . S
C1767 C1770 1.499 . S
C1768 H1748 0.950 . S
C1768 C1767 1.414 . S
C1768 C1769 1.374 . S
C1769 H1749 0.950 . S
C1769 C1765 1.385 . S
C1769 C1768 1.374 . S
C1770 C1767 1.499 . S
C1770 C1771 1.373 . S
C1770 C1772 1.389 . S
C1771 H1750 0.950 . S
C1771 C1770 1.373 . S
C1771 C1787 1.377 . S
C1772 C1770 1.389 . S
C1772 C1773 1.524 . S
C1772 C1786 1.377 . S
C1773 C1772 1.524 . S
C1773 C1774 1.397 . S
C1773 C1778 1.363 . S
C1774 H1751 0.950 . S
C1774 C1773 1.397 . S
C1774 C1775 1.334 . S
C1775 H1752 0.950 . S
C1775 C1774 1.334 . S
C1775 C1776 1.287 . S
C1776 C1775 1.287 . S
C1776 C1777 1.524 . S
C1776 H1795 0.913 . S
C1777 H1753 0.950 . S
C1777 C1776 1.524 . S
C1777 C1778 1.415 . S
C1778 H1754 0.950 . S
C1778 C1773 1.363 . S
C1778 C1777 1.415 . S
C1779 H1755 0.951 . S
C1779 C1780 1.366 . S
C1779 C1781 1.388 . S
C1780 C1779 1.366 . S
C1780 C1784 1.385 . S
C1781 H1756 0.951 . S
C1781 C1779 1.388 . S
C1781 C1782 1.366 . S
C1782 C1781 1.366 . S
C1782 C1783 1.414 . S
C1782 C1785 1.499 . S
C1783 H1757 0.950 . S
C1783 C1782 1.414 . S
C1783 C1784 1.374 . S
C1784 H1758 0.950 . S
C1784 C1780 1.385 . S
C1784 C1783 1.374 . S
C1785 C1782 1.499 . S
C1785 C1786 1.373 . S
C1785 C1787 1.389 . S
C1786 H1759 0.950 . S
C1786 C1772 1.377 . S
C1786 C1785 1.373 . S
C1787 C1771 1.377 . S
C1787 C1785 1.389 . S
C1787 C1788 1.524 . S
C1788 C1787 1.524 . S
C1788 C1789 1.397 . S
C1788 C1793 1.363 . S
C1789 H1760 0.950 . S
C1789 C1788 1.397 . S
C1789 C1790 1.334 . S
C1790 H1761 0.950 . S
C1790 C1789 1.334 . S
C1790 C1791 1.287 . S
C1791 C1790 1.287 . S
C1791 C1792 1.524 . S
C1791 H1794 0.999 . S
C1792 H1762 0.950 . S
C1792 C1791 1.524 . S
C1792 C1793 1.415 . S
C1793 H1763 0.950 . S
C1793 C1788 1.363 . S
C1793 C1792 1.415 . S
H1794 C1791 0.999 . S
H1795 C1776 0.913 . S
H1796 C1814 0.951 . S
H1797 C1816 0.951 . S
H1798 C1818 0.950 . S
H1799 C1819 0.950 . S
H1800 C1821 0.950 . S
H1801 C1824 0.950 . S
H1802 C1825 0.950 . S
H1803 C1827 0.950 . S
H1804 C1828 0.950 . S
H1805 C1829 0.951 . S
H1806 C1831 0.951 . S
H1807 C1833 0.950 . S
H1808 C1834 0.950 . S
H1809 C1836 0.950 . S
H1810 C1839 0.950 . S
H1811 C1840 0.950 . S
H1812 C1842 0.950 1_455 S
H1813 C1843 0.950 . S
C1814 H1796 0.951 . S
C1814 C1815 1.366 . S
C1814 C1816 1.388 . S
C1815 C1814 1.366 . S
C1815 C1819 1.385 . S
C1816 H1797 0.951 . S
C1816 C1814 1.388 . S
C1816 C1817 1.366 . S
C1817 C1816 1.366 . S
C1817 C1818 1.414 . S
C1817 C1820 1.499 . S
C1818 H1798 0.950 . S
C1818 C1817 1.414 . S
C1818 C1819 1.374 . S
C1819 H1799 0.950 . S
C1819 C1815 1.385 . S
C1819 C1818 1.374 . S
C1820 C1817 1.499 . S
C1820 C1821 1.373 . S
C1820 C1822 1.389 . S
C1821 H1800 0.950 . S
C1821 C1820 1.373 . S
C1821 C1837 1.377 . S
C1822 C1820 1.389 . S
C1822 C1823 1.524 . S
C1822 C1836 1.377 . S
C1823 C1822 1.524 . S
C1823 C1824 1.397 . S
C1823 C1828 1.363 . S
C1824 H1801 0.950 . S
C1824 C1823 1.397 . S
C1824 C1825 1.334 . S
C1825 H1802 0.950 . S
C1825 C1824 1.334 . S
C1825 C1826 1.287 . S
C1826 C1825 1.287 . S
C1826 C1827 1.524 . S
C1826 H1845 0.913 . S
C1827 H1803 0.950 . S
C1827 C1826 1.524 . S
C1827 C1828 1.415 . S
C1828 H1804 0.950 . S
C1828 C1823 1.363 . S
C1828 C1827 1.415 . S
C1829 H1805 0.951 . S
C1829 C1830 1.366 . S
C1829 C1831 1.388 . S
C1830 C1829 1.366 . S
C1830 C1834 1.385 . S
C1831 H1806 0.951 . S
C1831 C1829 1.388 . S
C1831 C1832 1.366 . S
C1832 C1831 1.366 . S
C1832 C1833 1.414 . S
C1832 C1835 1.499 . S
C1833 H1807 0.950 . S
C1833 C1832 1.414 . S
C1833 C1834 1.374 . S
C1834 H1808 0.950 . S
C1834 C1830 1.385 . S
C1834 C1833 1.374 . S
C1835 C1832 1.499 . S
C1835 C1836 1.373 . S
C1835 C1837 1.389 . S
C1836 H1809 0.950 . S
C1836 C1822 1.377 . S
C1836 C1835 1.373 . S
C1837 C1821 1.377 . S
C1837 C1835 1.389 . S
C1837 C1838 1.524 . S
C1838 C1837 1.524 . S
C1838 C1839 1.397 . S
C1838 C1843 1.363 . S
C1839 H1810 0.950 . S
C1839 C1838 1.397 . S
C1839 C1840 1.334 . S
C1840 H1811 0.950 . S
C1840 C1839 1.334 . S
C1840 C1841 1.287 . S
C1841 C1840 1.287 . S
C1841 C1842 1.524 . S
C1841 H1844 0.999 . S
C1842 H1812 0.950 1_655 S
C1842 C1841 1.524 . S
C1842 C1843 1.415 . S
C1843 H1813 0.950 . S
C1843 C1838 1.363 . S
C1843 C1842 1.415 . S
H1844 C1841 0.999 . S
H1845 C1826 0.913 . S
H1846 C1864 0.951 . S
H1847 C1866 0.951 . S
H1848 C1868 0.950 . S
H1849 C1869 0.950 . S
H1850 C1871 0.950 . S
H1851 C1874 0.950 . S
H1852 C1875 0.950 . S
H1853 C1877 0.950 . S
H1854 C1878 0.950 . S
H1855 C1879 0.951 . S
H1856 C1881 0.951 . S
H1857 C1883 0.950 . S
H1858 C1884 0.950 . S
H1859 C1886 0.950 . S
H1860 C1889 0.950 . S
H1861 C1890 0.950 . S
H1862 C1892 0.950 . S
H1863 C1893 0.950 . S
C1864 H1846 0.951 . S
C1864 C1865 1.366 . S
C1864 C1866 1.388 . S
C1865 C1864 1.366 . S
C1865 C1869 1.385 . S
C1866 H1847 0.951 . S
C1866 C1864 1.388 . S
C1866 C1867 1.366 . S
C1867 C1866 1.366 . S
C1867 C1868 1.414 . S
C1867 C1870 1.499 . S
C1868 H1848 0.950 . S
C1868 C1867 1.414 . S
C1868 C1869 1.374 . S
C1869 H1849 0.950 . S
C1869 C1865 1.385 . S
C1869 C1868 1.374 . S
C1870 C1867 1.499 . S
C1870 C1871 1.373 . S
C1870 C1872 1.389 . S
C1871 H1850 0.950 . S
C1871 C1870 1.373 . S
C1871 C1887 1.377 . S
C1872 C1870 1.389 . S
C1872 C1873 1.524 . S
C1872 C1886 1.377 . S
C1873 C1872 1.524 . S
C1873 C1874 1.397 . S
C1873 C1878 1.363 . S
C1874 H1851 0.950 . S
C1874 C1873 1.397 . S
C1874 C1875 1.334 . S
C1875 H1852 0.950 . S
C1875 C1874 1.334 . S
C1875 C1876 1.287 . S
C1876 C1875 1.287 . S
C1876 C1877 1.524 . S
C1876 H1895 0.913 . S
C1877 H1853 0.950 . S
C1877 C1876 1.524 . S
C1877 C1878 1.415 . S
C1878 H1854 0.950 . S
C1878 C1873 1.363 . S
C1878 C1877 1.415 . S
C1879 H1855 0.951 . S
C1879 C1880 1.366 . S
C1879 C1881 1.388 . S
C1880 C1879 1.366 . S
C1880 C1884 1.385 . S
C1881 H1856 0.951 . S
C1881 C1879 1.388 . S
C1881 C1882 1.366 . S
C1882 C1881 1.366 . S
C1882 C1883 1.414 . S
C1882 C1885 1.499 . S
C1883 H1857 0.950 . S
C1883 C1882 1.414 . S
C1883 C1884 1.374 . S
C1884 H1858 0.950 . S
C1884 C1880 1.385 . S
C1884 C1883 1.374 . S
C1885 C1882 1.499 . S
C1885 C1886 1.373 . S
C1885 C1887 1.389 . S
C1886 H1859 0.950 . S
C1886 C1872 1.377 . S
C1886 C1885 1.373 . S
C1887 C1871 1.377 . S
C1887 C1885 1.389 . S
C1887 C1888 1.524 . S
C1888 C1887 1.524 . S
C1888 C1889 1.397 . S
C1888 C1893 1.363 . S
C1889 H1860 0.950 . S
C1889 C1888 1.397 . S
C1889 C1890 1.334 . S
C1890 H1861 0.950 . S
C1890 C1889 1.334 . S
C1890 C1891 1.287 . S
C1891 C1890 1.287 . S
C1891 C1892 1.524 . S
C1891 H1894 0.999 . S
C1892 H1862 0.950 . S
C1892 C1891 1.524 . S
C1892 C1893 1.415 . S
C1893 H1863 0.950 . S
C1893 C1888 1.363 . S
C1893 C1892 1.415 . S
H1894 C1891 0.999 . S
H1895 C1876 0.913 . S
H1896 C1914 0.951 . S
H1897 C1916 0.951 . S
H1898 C1918 0.950 . S
H1899 C1919 0.950 . S
H1900 C1921 0.950 . S
H1901 C1924 0.950 . S
H1902 C1925 0.950 . S
H1903 C1927 0.950 . S
H1904 C1928 0.950 . S
H1905 C1929 0.951 . S
H1906 C1931 0.951 . S
H1907 C1933 0.950 . S
H1908 C1934 0.950 . S
H1909 C1936 0.950 . S
H1910 C1939 0.950 . S
H1911 C1940 0.950 . S
H1912 C1942 0.950 . S
H1913 C1943 0.950 . S
C1914 H1896 0.951 . S
C1914 C1915 1.366 . S
C1914 C1916 1.388 . S
C1915 C1914 1.366 . S
C1915 C1919 1.385 . S
C1916 H1897 0.951 . S
C1916 C1914 1.388 . S
C1916 C1917 1.366 . S
C1917 C1916 1.366 . S
C1917 C1918 1.414 . S
C1917 C1920 1.499 . S
C1918 H1898 0.950 . S
C1918 C1917 1.414 . S
C1918 C1919 1.374 . S
C1919 H1899 0.950 . S
C1919 C1915 1.385 . S
C1919 C1918 1.374 . S
C1920 C1917 1.499 . S
C1920 C1921 1.373 . S
C1920 C1922 1.389 . S
C1921 H1900 0.950 . S
C1921 C1920 1.373 . S
C1921 C1937 1.377 . S
C1922 C1920 1.389 . S
C1922 C1923 1.524 . S
C1922 C1936 1.377 . S
C1923 C1922 1.524 . S
C1923 C1924 1.397 . S
C1923 C1928 1.363 . S
C1924 H1901 0.950 . S
C1924 C1923 1.397 . S
C1924 C1925 1.334 . S
C1925 H1902 0.950 . S
C1925 C1924 1.334 . S
C1925 C1926 1.287 . S
C1926 C1925 1.287 . S
C1926 C1927 1.524 . S
C1926 H1945 0.913 . S
C1927 H1903 0.950 . S
C1927 C1926 1.524 . S
C1927 C1928 1.415 . S
C1928 H1904 0.950 . S
C1928 C1923 1.363 . S
C1928 C1927 1.415 . S
C1929 H1905 0.951 . S
C1929 C1930 1.366 . S
C1929 C1931 1.388 . S
C1930 C1929 1.366 . S
C1930 C1934 1.385 . S
C1931 H1906 0.951 . S
C1931 C1929 1.388 . S
C1931 C1932 1.366 . S
C1932 C1931 1.366 . S
C1932 C1933 1.414 . S
C1932 C1935 1.499 . S
C1933 H1907 0.950 . S
C1933 C1932 1.414 . S
C1933 C1934 1.374 . S
C1934 H1908 0.950 . S
C1934 C1930 1.385 . S
C1934 C1933 1.374 . S
C1935 C1932 1.499 . S
C1935 C1936 1.373 . S
C1935 C1937 1.389 . S
C1936 H1909 0.950 . S
C1936 C1922 1.377 . S
C1936 C1935 1.373 . S
C1937 C1921 1.377 . S
C1937 C1935 1.389 . S
C1937 C1938 1.524 . S
C1938 C1937 1.524 . S
C1938 C1939 1.397 . S
C1938 C1943 1.363 . S
C1939 H1910 0.950 . S
C1939 C1938 1.397 . S
C1939 C1940 1.334 . S
C1940 H1911 0.950 . S
C1940 C1939 1.334 . S
C1940 C1941 1.287 . S
C1941 C1940 1.287 . S
C1941 C1942 1.524 . S
C1941 H1944 0.999 . S
C1942 H1912 0.950 . S
C1942 C1941 1.524 . S
C1942 C1943 1.415 . S
C1943 H1913 0.950 . S
C1943 C1938 1.363 . S
C1943 C1942 1.415 . S
H1944 C1941 0.999 . S
H1945 C1926 0.913 . S
H1946 C1964 0.951 . S
H1947 C1966 0.951 . S
H1948 C1968 0.950 . S
H1949 C1969 0.950 . S
H1950 C1971 0.950 . S
H1951 C1974 0.950 . S
H1952 C1975 0.950 . S
H1953 C1977 0.950 . S
H1954 C1978 0.950 . S
H1955 C1979 0.951 . S
H1956 C1981 0.951 . S
H1957 C1983 0.950 . S
H1958 C1984 0.950 . S
H1959 C1986 0.950 . S
H1960 C1989 0.950 . S
H1961 C1990 0.950 . S
H1962 C1992 0.950 . S
H1963 C1993 0.950 . S
C1964 H1946 0.951 . S
C1964 C1965 1.366 . S
C1964 C1966 1.388 . S
C1965 C1964 1.366 . S
C1965 C1969 1.385 . S
C1966 H1947 0.951 . S
C1966 C1964 1.388 . S
C1966 C1967 1.366 . S
C1967 C1966 1.366 . S
C1967 C1968 1.414 . S
C1967 C1970 1.499 . S
C1968 H1948 0.950 . S
C1968 C1967 1.414 . S
C1968 C1969 1.374 . S
C1969 H1949 0.950 . S
C1969 C1965 1.385 . S
C1969 C1968 1.374 . S
C1970 C1967 1.499 . S
C1970 C1971 1.373 . S
C1970 C1972 1.389 . S
C1971 H1950 0.950 . S
C1971 C1970 1.373 . S
C1971 C1987 1.377 . S
C1972 C1970 1.389 . S
C1972 C1973 1.524 . S
C1972 C1986 1.377 . S
C1973 C1972 1.524 . S
C1973 C1974 1.397 . S
C1973 C1978 1.363 . S
C1974 H1951 0.950 . S
C1974 C1973 1.397 . S
C1974 C1975 1.334 . S
C1975 H1952 0.950 . S
C1975 C1974 1.334 . S
C1975 C1976 1.287 . S
C1976 C1975 1.287 . S
C1976 C1977 1.524 . S
C1976 H1995 0.913 . S
C1977 H1953 0.950 . S
C1977 C1976 1.524 . S
C1977 C1978 1.415 . S
C1978 H1954 0.950 . S
C1978 C1973 1.363 . S
C1978 C1977 1.415 . S
C1979 H1955 0.951 . S
C1979 C1980 1.366 . S
C1979 C1981 1.388 . S
C1980 C1979 1.366 . S
C1980 C1984 1.385 . S
C1981 H1956 0.951 . S
C1981 C1979 1.388 . S
C1981 C1982 1.366 . S
C1982 C1981 1.366 . S
C1982 C1983 1.414 . S
C1982 C1985 1.499 . S
C1983 H1957 0.950 . S
C1983 C1982 1.414 . S
C1983 C1984 1.374 . S
C1984 H1958 0.950 . S
C1984 C1980 1.385 . S
C1984 C1983 1.374 . S
C1985 C1982 1.499 . S
C1985 C1986 1.373 . S
C1985 C1987 1.389 . S
C1986 H1959 0.950 . S
C1986 C1972 1.377 . S
C1986 C1985 1.373 . S
C1987 C1971 1.377 . S
C1987 C1985 1.389 . S
C1987 C1988 1.524 . S
C1988 C1987 1.524 . S
C1988 C1989 1.397 . S
C1988 C1993 1.363 . S
C1989 H1960 0.950 . S
C1989 C1988 1.397 . S
C1989 C1990 1.334 . S
C1990 H1961 0.950 . S
C1990 C1989 1.334 . S
C1990 C1991 1.287 . S
C1991 C1990 1.287 . S
C1991 C1992 1.524 . S
C1991 H1994 0.999 . S
C1992 H1962 0.950 . S
C1992 C1991 1.524 . S
C1992 C1993 1.415 . S
C1993 H1963 0.950 . S
C1993 C1988 1.363 . S
C1993 C1992 1.415 . S
H1994 C1991 0.999 . S
H1995 C1976 0.913 . S
H1996 C2014 0.951 . S
H1997 C2016 0.951 . S
H1998 C2018 0.950 . S
H1999 C2019 0.950 . S
H2000 C2021 0.950 . S
H2001 C2024 0.950 . S
H2002 C2025 0.950 . S
H2003 C2027 0.950 . S
H2004 C2028 0.950 . S
H2005 C2029 0.951 . S
H2006 C2031 0.951 . S
H2007 C2033 0.950 . S
H2008 C2034 0.950 . S
H2009 C2036 0.950 . S
H2010 C2039 0.950 . S
H2011 C2040 0.950 . S
H2012 C2042 0.950 . S
H2013 C2043 0.950 . S
C2014 H1996 0.951 . S
C2014 C2015 1.366 . S
C2014 C2016 1.388 . S
C2015 C2014 1.366 . S
C2015 C2019 1.385 . S
C2016 H1997 0.951 . S
C2016 C2014 1.388 . S
C2016 C2017 1.366 . S
C2017 C2016 1.366 . S
C2017 C2018 1.414 . S
C2017 C2020 1.499 . S
C2018 H1998 0.950 . S
C2018 C2017 1.414 . S
C2018 C2019 1.374 . S
C2019 H1999 0.950 . S
C2019 C2015 1.385 . S
C2019 C2018 1.374 . S
C2020 C2017 1.499 . S
C2020 C2021 1.373 . S
C2020 C2022 1.389 . S
C2021 H2000 0.950 . S
C2021 C2020 1.373 . S
C2021 C2037 1.377 . S
C2022 C2020 1.389 . S
C2022 C2023 1.524 . S
C2022 C2036 1.377 . S
C2023 C2022 1.524 . S
C2023 C2024 1.397 . S
C2023 C2028 1.363 . S
C2024 H2001 0.950 . S
C2024 C2023 1.397 . S
C2024 C2025 1.334 . S
C2025 H2002 0.950 . S
C2025 C2024 1.334 . S
C2025 C2026 1.287 . S
C2026 C2025 1.287 . S
C2026 C2027 1.524 . S
C2026 H2045 0.913 . S
C2027 H2003 0.950 . S
C2027 C2026 1.524 . S
C2027 C2028 1.415 . S
C2028 H2004 0.950 . S
C2028 C2023 1.363 . S
C2028 C2027 1.415 . S
C2029 H2005 0.951 . S
C2029 C2030 1.366 . S
C2029 C2031 1.388 . S
C2030 C2029 1.366 . S
C2030 C2034 1.385 . S
C2031 H2006 0.951 . S
C2031 C2029 1.388 . S
C2031 C2032 1.366 . S
C2032 C2031 1.366 . S
C2032 C2033 1.414 . S
C2032 C2035 1.499 . S
C2033 H2007 0.950 . S
C2033 C2032 1.414 . S
C2033 C2034 1.374 . S
C2034 H2008 0.950 . S
C2034 C2030 1.385 . S
C2034 C2033 1.374 . S
C2035 C2032 1.499 . S
C2035 C2036 1.373 . S
C2035 C2037 1.389 . S
C2036 H2009 0.950 . S
C2036 C2022 1.377 . S
C2036 C2035 1.373 . S
C2037 C2021 1.377 . S
C2037 C2035 1.389 . S
C2037 C2038 1.524 . S
C2038 C2037 1.524 . S
C2038 C2039 1.397 . S
C2038 C2043 1.363 . S
C2039 H2010 0.950 . S
C2039 C2038 1.397 . S
C2039 C2040 1.334 . S
C2040 H2011 0.950 . S
C2040 C2039 1.334 . S
C2040 C2041 1.287 . S
C2041 C2040 1.287 . S
C2041 C2042 1.524 . S
C2041 H2044 0.999 . S
C2042 H2012 0.950 . S
C2042 C2041 1.524 . S
C2042 C2043 1.415 . S
C2043 H2013 0.950 . S
C2043 C2038 1.363 . S
C2043 C2042 1.415 . S
H2044 C2041 0.999 . S
H2045 C2026 0.913 . S
H2046 C2064 0.951 . S
H2047 C2066 0.951 . S
H2048 C2068 0.950 . S
H2049 C2069 0.950 . S
H2050 C2071 0.950 . S
H2051 C2074 0.950 . S
H2052 C2075 0.950 . S
H2053 C2077 0.950 . S
H2054 C2078 0.950 . S
H2055 C2079 0.951 . S
H2056 C2081 0.951 . S
H2057 C2083 0.950 . S
H2058 C2084 0.950 . S
H2059 C2086 0.950 . S
H2060 C2089 0.950 . S
H2061 C2090 0.950 . S
H2062 C2092 0.950 . S
H2063 C2093 0.950 . S
C2064 H2046 0.951 . S
C2064 C2065 1.366 . S
C2064 C2066 1.388 . S
C2065 C2064 1.366 . S
C2065 C2069 1.385 . S
C2066 H2047 0.951 . S
C2066 C2064 1.388 . S
C2066 C2067 1.366 . S
C2067 C2066 1.366 . S
C2067 C2068 1.414 . S
C2067 C2070 1.499 . S
C2068 H2048 0.950 . S
C2068 C2067 1.414 . S
C2068 C2069 1.374 . S
C2069 H2049 0.950 . S
C2069 C2065 1.385 . S
C2069 C2068 1.374 . S
C2070 C2067 1.499 . S
C2070 C2071 1.373 . S
C2070 C2072 1.389 . S
C2071 H2050 0.950 . S
C2071 C2070 1.373 . S
C2071 C2087 1.377 . S
C2072 C2070 1.389 . S
C2072 C2073 1.524 . S
C2072 C2086 1.377 . S
C2073 C2072 1.524 . S
C2073 C2074 1.397 . S
C2073 C2078 1.363 . S
C2074 H2051 0.950 . S
C2074 C2073 1.397 . S
C2074 C2075 1.334 . S
C2075 H2052 0.950 . S
C2075 C2074 1.334 . S
C2075 C2076 1.287 . S
C2076 C2075 1.287 . S
C2076 C2077 1.524 . S
C2076 H2095 0.913 . S
C2077 H2053 0.950 . S
C2077 C2076 1.524 . S
C2077 C2078 1.415 . S
C2078 H2054 0.950 . S
C2078 C2073 1.363 . S
C2078 C2077 1.415 . S
C2079 H2055 0.951 . S
C2079 C2080 1.366 . S
C2079 C2081 1.388 . S
C2080 C2079 1.366 . S
C2080 C2084 1.385 . S
C2081 H2056 0.951 . S
C2081 C2079 1.388 . S
C2081 C2082 1.366 . S
C2082 C2081 1.366 . S
C2082 C2083 1.414 . S
C2082 C2085 1.499 . S
C2083 H2057 0.950 . S
C2083 C2082 1.414 . S
C2083 C2084 1.374 . S
C2084 H2058 0.950 . S
C2084 C2080 1.385 . S
C2084 C2083 1.374 . S
C2085 C2082 1.499 . S
C2085 C2086 1.373 . S
C2085 C2087 1.389 . S
C2086 H2059 0.950 . S
C2086 C2072 1.377 . S
C2086 C2085 1.373 . S
C2087 C2071 1.377 . S
C2087 C2085 1.389 . S
C2087 C2088 1.524 . S
C2088 C2087 1.524 . S
C2088 C2089 1.397 . S
C2088 C2093 1.363 . S
C2089 H2060 0.950 . S
C2089 C2088 1.397 . S
C2089 C2090 1.334 . S
C2090 H2061 0.950 . S
C2090 C2089 1.334 . S
C2090 C2091 1.287 . S
C2091 C2090 1.287 . S
C2091 C2092 1.524 . S
C2091 H2094 0.999 . S
C2092 H2062 0.950 . S
C2092 C2091 1.524 . S
C2092 C2093 1.415 . S
C2093 H2063 0.950 . S
C2093 C2088 1.363 . S
C2093 C2092 1.415 . S
H2094 C2091 0.999 . S
H2095 C2076 0.913 . S
C530 C405 1.234 . S
C515 C36 1.216 . S
C580 C425 1.257 . S
C565 C93 1.266 . S
C630 C439 1.281 . S
C615 C126 1.298 . S
C665 C165 1.313 . S
C680 C397 1.314 . S
C715 C222 1.347 . S
C730 C391 1.382 . S
C765 C261 1.325 . S
C780 C411 1.330 . S
C830 C419 1.258 . S
C815 C318 1.245 . S
C880 C433 1.339 . S
C865 C381 1.324 . S
C915 C132 1.309 . S
C930 C461 1.338 . S
C980 C475 1.260 . S
C965 C189 1.250 . S
C1015 C30 1.333 . S
C1030 C495 1.330 . S
C1080 C447 1.386 . S
C1065 C69 1.341 . S
C1115 C324 1.316 . S
C1130 C453 1.312 . S
C1165 C357 1.287 . S
C1180 C467 1.280 . S
C1230 C481 1.257 1_556 S
C1215 C228 1.264 . S
C1265 C285 1.224 . S
C1280 C489 1.234 . S
C1330 C420 1.732 . S
C1315 C45 1.717 . S
C1380 C434 1.730 . S
C1365 C84 1.724 . S
C1415 C117 1.638 . S
C1430 C392 1.654 . S
C1465 C174 1.449 . S
C1480 C409 1.482 . S
C1515 C213 1.388 . S
C1530 C437 1.392 . S
C1580 C395 1.366 . S
C1565 C270 1.343 . S
C1630 C406 1.614 . S
C1615 C309 1.602 . S
C1680 C423 1.463 . S
C1665 C372 1.457 . S
C1730 C479 1.463 . S
C1715 C141 1.447 . S
C1780 C490 1.613 . S
C1765 C180 1.605 . S
C1815 C21 1.359 . S
C1830 C451 1.367 . S
C1880 C465 1.394 . S
C1865 C78 1.371 . S
C1930 C493 1.479 . S
C1915 C333 1.469 . S
C1965 C366 1.613 . S
C1980 C448 1.653 . S
C2030 C462 1.729 . S
C2015 C237 1.720 . S
C2080 C476 1.732 . S
C2065 C276 1.726 . S
