# Generated by pormake.
# Topology llj, (12,3)-cn, num edge types: 1
# Building blocks:
#     Node 0, Type 0, BuildingBlock: QEWDON_clean_sbu_0, # of connection points: 12
#     Node 1, Type 0, BuildingBlock: QEWDON_clean_sbu_0, # of connection points: 12
#     Node 2, Type 1, BuildingBlock: CUQRIR_clean_linker_1, # of connection points: 3
#     Node 3, Type 1, BuildingBlock: CUQRIR_clean_linker_1, # of connection points: 3
#     Node 4, Type 1, BuildingBlock: CUQRIR_clean_linker_1, # of connection points: 3
#     Node 5, Type 1, BuildingBlock: CUQRIR_clean_linker_1, # of connection points: 3
#     Node 6, Type 1, BuildingBlock: CUQRIR_clean_linker_1, # of connection points: 3
#     Node 7, Type 1, BuildingBlock: CUQRIR_clean_linker_1, # of connection points: 3
#     Node 8, Type 1, BuildingBlock: CUQRIR_clean_linker_1, # of connection points: 3
#     Node 9, Type 1, BuildingBlock: CUQRIR_clean_linker_1, # of connection points: 3
#     Edge 10, Type (0, 1), BuildingBlock: ZUJKAS_clean_linker_0, # of connection points: 2
#     Edge 11, Type (0, 1), BuildingBlock: ZUJKAS_clean_linker_0, # of connection points: 2
#     Edge 12, Type (0, 1), BuildingBlock: ZUJKAS_clean_linker_0, # of connection points: 2
#     Edge 13, Type (0, 1), BuildingBlock: ZUJKAS_clean_linker_0, # of connection points: 2
#     Edge 14, Type (0, 1), BuildingBlock: ZUJKAS_clean_linker_0, # of connection points: 2
#     Edge 15, Type (0, 1), BuildingBlock: ZUJKAS_clean_linker_0, # of connection points: 2
#     Edge 16, Type (0, 1), BuildingBlock: ZUJKAS_clean_linker_0, # of connection points: 2
#     Edge 17, Type (0, 1), BuildingBlock: ZUJKAS_clean_linker_0, # of connection points: 2
#     Edge 18, Type (0, 1), BuildingBlock: ZUJKAS_clean_linker_0, # of connection points: 2
#     Edge 19, Type (0, 1), BuildingBlock: ZUJKAS_clean_linker_0, # of connection points: 2
#     Edge 20, Type (0, 1), BuildingBlock: ZUJKAS_clean_linker_0, # of connection points: 2
#     Edge 21, Type (0, 1), BuildingBlock: ZUJKAS_clean_linker_0, # of connection points: 2
#     Edge 22, Type (0, 1), BuildingBlock: ZUJKAS_clean_linker_0, # of connection points: 2
#     Edge 23, Type (0, 1), BuildingBlock: ZUJKAS_clean_linker_0, # of connection points: 2
#     Edge 24, Type (0, 1), BuildingBlock: ZUJKAS_clean_linker_0, # of connection points: 2
#     Edge 25, Type (0, 1), BuildingBlock: ZUJKAS_clean_linker_0, # of connection points: 2
#     Edge 26, Type (0, 1), BuildingBlock: ZUJKAS_clean_linker_0, # of connection points: 2
#     Edge 27, Type (0, 1), BuildingBlock: ZUJKAS_clean_linker_0, # of connection points: 2
#     Edge 28, Type (0, 1), BuildingBlock: ZUJKAS_clean_linker_0, # of connection points: 2
#     Edge 29, Type (0, 1), BuildingBlock: ZUJKAS_clean_linker_0, # of connection points: 2
#     Edge 30, Type (0, 1), BuildingBlock: ZUJKAS_clean_linker_0, # of connection points: 2
#     Edge 31, Type (0, 1), BuildingBlock: ZUJKAS_clean_linker_0, # of connection points: 2
#     Edge 32, Type (0, 1), BuildingBlock: ZUJKAS_clean_linker_0, # of connection points: 2
#     Edge 33, Type (0, 1), BuildingBlock: ZUJKAS_clean_linker_0, # of connection points: 2
# Relax obj value: 0.011
# Max RMSD: 0.121
# Mean RMSD: 0.104
data_MOF--net-llj--node1-QEWDON_clean_sbu_0--node2-CUQRIR_clean_linker_1--edge1-ZUJKAS_clean_linker_0
_symmetry_space_group_name_H-M    P1
_symmetry_Int_Tables_number       1
_symmetry_cell_setting            triclinic
loop_
_symmetry_equiv_pos_as_xyz
'x, y, z'
_cell_length_a     47.278997
_cell_length_b     47.275868
_cell_length_c     29.538451
_cell_angle_alpha  90.04024
_cell_angle_beta   90.019712
_cell_angle_gamma 89.907681
loop_
_atom_site_label
_atom_site_type_symbol
_atom_site_fract_x
_atom_site_fract_y
_atom_site_fract_z
_atom_type_partial_charge
Zn0 Zn 0.95333 0.05586 0.95543 0.0
Zn1 Zn 0.95358 0.0501 0.06296 0.0
O2 O 0.97846 0.0457 0.00863 0.0
H3 H 0.99436 0.03291 0.00629 0.0
C4 C 0.94079 0.9796 0.87217 0.0
O5 O 0.96713 0.98283 0.88533 0.0
Zn6 Zn 0.04867 0.95055 0.06744 0.0
Zn7 Zn 0.05071 0.94491 0.9596 0.0
O8 O 0.02458 0.95452 0.01201 0.0
H9 H 0.00859 0.96716 0.00939 0.0
Zn10 Zn 0.93778 0.94667 0.95612 0.0
O11 O 0.94744 0.97307 0.00779 0.0
Zn12 Zn 0.94607 0.94912 0.06367 0.0
H13 H 0.95899 0.98969 0.00362 0.0
Zn14 Zn 0.06357 0.05213 0.95734 0.0
O15 O 0.05673 0.02564 0.00989 0.0
H16 H 0.04611 0.00836 0.00623 0.0
Zn17 Zn 0.05677 0.05088 0.06438 0.0
C18 C 0.05557 0.01974 0.87362 0.0
O19 O 0.02992 0.01702 0.89013 0.0
O20 O 0.91891 0.08032 0.97284 0.0
O21 O 0.92007 0.07626 0.04788 0.0
O22 O 0.08554 0.92152 0.97858 0.0
O23 O 0.08268 0.92496 0.05359 0.0
O24 O 0.9178 0.91038 0.97694 0.0
O25 O 0.92226 0.91361 0.05179 0.0
C26 C 0.00322 0.06617 0.11376 0.0
O27 O 0.08398 0.08872 0.97609 0.0
O28 O 0.08049 0.0864 0.05116 0.0
O29 O 0.03274 0.93769 0.89637 0.0
C30 C 0.90892 0.08624 0.0118 0.0
O31 O 0.97268 0.06221 0.89325 0.0
C32 C 0.99866 0.93401 0.11669 0.0
O33 O 0.92406 0.96503 0.89637 0.0
C34 C 0.09481 0.91554 0.01797 0.0
O35 O 0.07383 0.03382 0.89569 0.0
C36 C 0.93235 0.99855 0.1153 0.0
O37 O 0.97635 0.06553 0.11543 0.0
O38 O 0.0155 0.0593 0.07703 0.0
C39 C 0.9131 0.90083 0.01656 0.0
O40 O 0.02548 0.93488 0.11924 0.0
O41 O 0.98687 0.94071 0.07945 0.0
C42 C 0.06962 0.00275 0.11959 0.0
O43 O 0.93027 0.97174 0.11597 0.0
O44 O 0.94161 0.01027 0.07948 0.0
C45 C 0.08921 0.09876 0.01527 0.0
O46 O 0.07189 0.02955 0.11888 0.0
O47 O 0.06026 0.99046 0.08429 0.0
C48 C 0.00776 0.92785 0.89501 0.0
O49 O 0.99452 0.92285 0.93328 0.0
C50 C 0.99658 0.07447 0.89301 0.0
O51 O 0.00768 0.08257 0.93168 0.0
Zn52 Zn 0.44986 0.55493 0.46669 0.0
Zn53 Zn 0.45106 0.55309 0.57364 0.0
O54 O 0.47629 0.55046 0.51972 0.0
H55 H 0.49298 0.53878 0.51735 0.0
C56 C 0.43035 0.49378 0.40126 0.0
O57 O 0.4225 0.50489 0.44006 0.0
Zn58 Zn 0.54995 0.4462 0.57076 0.0
Zn59 Zn 0.55112 0.44687 0.46401 0.0
O60 O 0.52446 0.44941 0.5171 0.0
H61 H 0.50748 0.46073 0.51563 0.0
Zn62 Zn 0.44852 0.45076 0.464 0.0
O63 O 0.4534 0.47684 0.5179 0.0
Zn64 Zn 0.4496 0.45134 0.57159 0.0
H65 H 0.46512 0.49352 0.51642 0.0
Zn66 Zn 0.55457 0.5475 0.46465 0.0
O67 O 0.54717 0.52248 0.51876 0.0
H68 H 0.53484 0.50626 0.51682 0.0
Zn69 Zn 0.55183 0.54751 0.57294 0.0
C70 C 0.57297 0.50424 0.40193 0.0
O71 O 0.5835 0.49459 0.4401 0.0
O72 O 0.41458 0.57867 0.48247 0.0
O73 O 0.41644 0.57757 0.55788 0.0
O74 O 0.58698 0.4238 0.47846 0.0
O75 O 0.58453 0.42227 0.55377 0.0
O76 O 0.42515 0.41538 0.47952 0.0
O77 O 0.42472 0.41744 0.55486 0.0
C78 C 0.5 0.5677 0.62612 0.0
O79 O 0.57869 0.58236 0.48072 0.0
O80 O 0.57721 0.5812 0.55614 0.0
O81 O 0.53204 0.44392 0.40096 0.0
C82 C 0.40468 0.58574 0.52107 0.0
O83 O 0.46929 0.5579 0.40381 0.0
C84 C 0.5016 0.43151 0.62382 0.0
O85 O 0.44245 0.46978 0.40134 0.0
C86 C 0.5967 0.41561 0.51656 0.0
O87 O 0.55947 0.5275 0.40236 0.0
C88 C 0.43402 0.5 0.62445 0.0
O89 O 0.47312 0.56896 0.62688 0.0
O90 O 0.51195 0.55898 0.59012 0.0
C91 C 0.41727 0.40566 0.51774 0.0
O92 O 0.52846 0.43012 0.62435 0.0
O93 O 0.48956 0.43997 0.58778 0.0
C94 C 0.56755 0.49804 0.62339 0.0
O95 O 0.43381 0.47311 0.62498 0.0
O96 O 0.4413 0.51247 0.58816 0.0
C97 C 0.58577 0.59243 0.51918 0.0
O98 O 0.56781 0.5249 0.62552 0.0
O99 O 0.56001 0.48644 0.58649 0.0
C100 C 0.50845 0.43114 0.39962 0.0
O101 O 0.49835 0.42015 0.43711 0.0
C102 C 0.49346 0.56963 0.40363 0.0
O103 O 0.5036 0.57962 0.44183 0.0
C104 C 0.30814 0.33065 0.98518 0.0
N105 N 0.33054 0.34712 0.99635 0.0
N106 N 0.29632 0.31927 0.0228 0.0
C107 C 0.29961 0.32335 0.93749 0.0
C108 C 0.31244 0.32926 0.05714 0.0
N109 N 0.33337 0.34599 0.04107 0.0
C110 C 0.30674 0.32389 0.1065 0.0
H111 H 0.28401 0.33921 0.92545 0.0
H112 H 0.2897 0.30213 0.93586 0.0
H113 H 0.31812 0.32377 0.91443 0.0
H114 H 0.31915 0.30521 0.11764 0.0
H115 H 0.28399 0.31948 0.11232 0.0
H116 H 0.31321 0.34232 0.12734 0.0
C117 C 0.67698 0.3074 0.98222 0.0
N118 N 0.66052 0.32962 0.99443 0.0
N119 N 0.68978 0.296 0.01896 0.0
C120 C 0.6814 0.2976 0.93426 0.0
C121 C 0.68081 0.31224 0.05388 0.0
N122 N 0.66322 0.33286 0.03892 0.0
C123 C 0.68976 0.30826 0.10234 0.0
H124 H 0.6623 0.28605 0.9228 0.0
H125 H 0.69983 0.28322 0.93112 0.0
H126 H 0.68433 0.31608 0.91159 0.0
H127 H 0.70876 0.32138 0.10891 0.0
H128 H 0.6953 0.2859 0.10932 0.0
H129 H 0.67273 0.31505 0.12582 0.0
C130 C 0.68563 0.67495 0.06192 0.0
N131 N 0.66487 0.65849 0.04471 0.0
N132 N 0.7023 0.68504 0.02838 0.0
C133 C 0.6905 0.68001 0.1116 0.0
C134 C 0.69092 0.67405 0.99009 0.0
N135 N 0.66828 0.65766 1.0001 0.0
C136 C 0.70013 0.68165 0.94288 0.0
H137 H 0.67767 0.69845 0.12256 0.0
H138 H 0.7131 0.68459 0.11853 0.0
H139 H 0.68385 0.66137 0.13176 0.0
H140 H 0.71573 0.66575 0.93098 0.0
H141 H 0.71025 0.7028 0.94209 0.0
H142 H 0.68191 0.68161 0.9192 0.0
C143 C 0.31865 0.68555 0.05472 0.0
N144 N 0.33479 0.66411 0.03853 0.0
N145 N 0.3064 0.69995 0.02028 0.0
C146 C 0.31264 0.69075 0.10408 0.0
C147 C 0.31547 0.68638 0.98258 0.0
N148 N 0.33257 0.66443 0.99367 0.0
C149 C 0.3091 0.69579 0.93501 0.0
H150 H 0.31347 0.67072 0.12361 0.0
H151 H 0.29155 0.70063 0.10882 0.0
H152 H 0.3289 0.7053 0.11784 0.0
H153 H 0.30482 0.71886 0.93384 0.0
H154 H 0.29003 0.68452 0.92267 0.0
H155 H 0.32698 0.69076 0.91203 0.0
C156 C 0.81419 0.81544 0.47824 0.0
N157 N 0.83689 0.83153 0.48918 0.0
N158 N 0.80304 0.80333 0.51575 0.0
C159 C 0.80454 0.80939 0.43065 0.0
C160 C 0.81985 0.81249 0.54984 0.0
N161 N 0.84062 0.82944 0.53368 0.0
C162 C 0.81461 0.80654 0.59917 0.0
H163 H 0.78865 0.82551 0.42063 0.0
H164 H 0.79461 0.78821 0.42824 0.0
H165 H 0.8225 0.81045 0.40654 0.0
H166 H 0.82674 0.78745 0.60926 0.0
H167 H 0.79184 0.80247 0.60549 0.0
H168 H 0.8216 0.82454 0.62051 0.0
C169 C 0.18103 0.8174 0.55312 0.0
N170 N 0.16448 0.83838 0.5365 0.0
N171 N 0.19109 0.801 0.51912 0.0
C172 C 0.18602 0.81187 0.60263 0.0
C173 C 0.18 0.81273 0.48119 0.0
N174 N 0.16363 0.83533 0.4918 0.0
C175 C 0.18734 0.80377 0.43372 0.0
H176 H 0.20468 0.82418 0.61397 0.0
H177 H 0.19029 0.7891 0.60878 0.0
H178 H 0.16748 0.81857 0.62305 0.0
H179 H 0.17142 0.78822 0.42186 0.0
H180 H 0.20851 0.79365 0.43244 0.0
H181 H 0.18707 0.82211 0.4103 0.0
C182 C 0.18577 0.18372 0.54472 0.0
N183 N 0.16514 0.16646 0.52911 0.0
N184 N 0.20215 0.19297 0.51022 0.0
C185 C 0.19106 0.19017 0.5939 0.0
C186 C 0.19083 0.1806 0.47302 0.0
N187 N 0.16845 0.16424 0.48457 0.0
C188 C 0.19989 0.18674 0.42519 0.0
H189 H 0.17851 0.20904 0.60374 0.0
H190 H 0.21375 0.19477 0.6 0.0
H191 H 0.18448 0.17219 0.61558 0.0
H192 H 0.21562 0.17062 0.41454 0.0
H193 H 0.20982 0.20792 0.42261 0.0
H194 H 0.18162 0.18575 0.40166 0.0
C195 C 0.81745 0.1832 0.54596 0.0
N196 N 0.83395 0.16193 0.53034 0.0
N197 N 0.81017 0.20091 0.51188 0.0
C198 C 0.8097 0.1876 0.59486 0.0
C199 C 0.82298 0.1897 0.47494 0.0
N200 N 0.83769 0.16612 0.48628 0.0
C201 C 0.81874 0.20011 0.42727 0.0
H202 H 0.79005 0.17571 0.6024 0.0
H203 H 0.80588 0.21033 0.60208 0.0
H204 H 0.82669 0.17964 0.61746 0.0
H205 H 0.83591 0.2152 0.41887 0.0
H206 H 0.79818 0.21121 0.42365 0.0
H207 H 0.81958 0.18236 0.40272 0.0
H208 H 0.10944 0.13148 0.94629 0.0
H209 H 0.1426 0.17082 0.95128 0.0
H210 H 0.14342 0.16354 0.09673 0.0
H211 H 0.10987 0.12413 0.09228 0.0
H212 H 0.14111 0.22078 0.06294 0.0
H213 H 0.2267 0.1574 0.9834 0.0
H214 H 0.19443 0.15862 0.95136 0.0
H215 H 0.19491 0.1416 0.00575 0.0
C216 C 0.11645 0.13828 0.97946 0.0
C217 C 0.10722 0.12436 0.01888 0.0
C218 C 0.1355 0.16075 0.98218 0.0
C219 C 0.14585 0.16971 0.02428 0.0
C220 C 0.13579 0.15678 0.06388 0.0
H221 H 0.29891 0.26812 0.0624 0.0
H222 H 0.26127 0.23254 0.06597 0.0
C223 C 0.11665 0.13425 0.06124 0.0
C224 C 0.16799 0.19184 0.02658 0.0
H225 H 0.2356 0.20633 0.99349 0.0
C226 C 0.16182 0.21765 0.04793 0.0
C227 C 0.19509 0.18751 0.00748 0.0
C228 C 0.20337 0.15971 0.98605 0.0
C229 C 0.18191 0.23953 0.0498 0.0
C230 C 0.20868 0.23551 0.02932 0.0
C231 C 0.21498 0.20947 0.00881 0.0
C232 C 0.23073 0.2578 0.02919 0.0
C233 C 0.17448 0.26658 0.07417 0.0
C234 C 0.22611 0.28373 0.00715 0.0
C235 C 0.24757 0.30407 0.00536 0.0
C236 C 0.27396 0.29871 0.02539 0.0
C237 C 0.27856 0.27279 0.04735 0.0
C238 C 0.25716 0.25249 0.04917 0.0
H239 H 0.1563 0.26368 0.09752 0.0
H240 H 0.19282 0.27459 0.09386 0.0
H241 H 0.16856 0.28293 0.04894 0.0
H242 H 0.20609 0.28804 0.99069 0.0
H243 H 0.24369 0.32394 0.98823 0.0
H244 H 0.88163 0.11344 0.94271 0.0
H245 H 0.84311 0.14764 0.94812 0.0
H246 H 0.84177 0.13768 0.0932 0.0
H247 H 0.88076 0.10365 0.08832 0.0
H248 H 0.78903 0.14237 0.98214 0.0
H249 H 0.84998 0.22319 0.07766 0.0
H250 H 0.86664 0.19329 0.05051 0.0
H251 H 0.84879 0.1889 0.10374 0.0
C252 C 0.87319 0.11843 0.97586 0.0
C253 C 0.88451 0.10591 0.01513 0.0
C254 C 0.85111 0.13799 0.97884 0.0
C255 C 0.83986 0.14554 0.02109 0.0
C256 C 0.85053 0.13259 0.06032 0.0
H257 H 0.68317 0.24342 0.0518 0.0
H258 H 0.71918 0.20575 0.05442 0.0
C259 C 0.87273 0.11302 0.05741 0.0
C260 C 0.81708 0.16711 0.02368 0.0
H261 H 0.80166 0.23302 0.06432 0.0
C262 C 0.79172 0.16215 0.00025 0.0
C263 C 0.82081 0.19306 0.04684 0.0
C264 C 0.84809 0.20015 0.07081 0.0
C265 C 0.77001 0.18246 0.99922 0.0
C266 C 0.77358 0.20822 0.02293 0.0
C267 C 0.7989 0.21316 0.04647 0.0
C268 C 0.75177 0.23083 0.02224 0.0
C269 C 0.74382 0.1765 0.97161 0.0
C270 C 0.75835 0.25755 0.00437 0.0
C271 C 0.73792 0.27894 0.00329 0.0
C272 C 0.71068 0.27395 0.02012 0.0
C273 C 0.70411 0.24743 0.03845 0.0
C274 C 0.72455 0.22601 0.03968 0.0
H275 H 0.7473 0.15912 0.94688 0.0
H276 H 0.72643 0.17005 0.9946 0.0
H277 H 0.73688 0.19567 0.95293 0.0
H278 H 0.77924 0.26177 0.99091 0.0
H279 H 0.74326 0.29942 0.98931 0.0
H280 H 0.89173 0.86746 0.94926 0.0
H281 H 0.85799 0.82878 0.95653 0.0
H282 H 0.85927 0.83784 0.10175 0.0
H283 H 0.89339 0.87661 0.09501 0.0
H284 H 0.85989 0.77993 0.06871 0.0
H285 H 0.77467 0.8452 0.99212 0.0
H286 H 0.8064 0.8431 0.95886 0.0
H287 H 0.80719 0.86025 0.01318 0.0
C288 C 0.88509 0.86116 0.98286 0.0
C289 C 0.89502 0.87543 0.02154 0.0
C290 C 0.86572 0.83907 0.98688 0.0
C291 C 0.85578 0.83086 0.02958 0.0
C292 C 0.8666 0.84405 0.06846 0.0
H293 H 0.70067 0.73579 0.06952 0.0
H294 H 0.73907 0.7705 0.0743 0.0
C295 C 0.88605 0.8662 0.06451 0.0
C296 C 0.83315 0.80939 0.03319 0.0
H297 H 0.76481 0.79646 0.00249 0.0
C298 C 0.83903 0.78352 0.05448 0.0
C299 C 0.80588 0.81437 0.01515 0.0
C300 C 0.79797 0.84232 0.99389 0.0
C301 C 0.81848 0.76213 0.05712 0.0
C302 C 0.79156 0.76674 0.03747 0.0
C303 C 0.78553 0.79289 0.0172 0.0
C304 C 0.7692 0.74482 0.03736 0.0
C305 C 0.82564 0.73495 0.08127 0.0
C306 C 0.77339 0.71893 0.01494 0.0
C307 C 0.75152 0.6991 0.01251 0.0
C308 C 0.72515 0.70495 0.03219 0.0
C309 C 0.721 0.73076 0.0547 0.0
C310 C 0.74283 0.75055 0.05723 0.0
H311 H 0.8439 0.73763 0.10457 0.0
H312 H 0.80727 0.72709 0.10097 0.0
H313 H 0.83138 0.7186 0.0559 0.0
H314 H 0.79335 0.71433 0.99851 0.0
H315 H 0.75504 0.67928 0.995 0.0
H316 H 0.11936 0.89547 0.09586 0.0
H317 H 0.15854 0.86176 0.10223 0.0
H318 H 0.16488 0.85809 0.95673 0.0
H319 H 0.12609 0.89186 0.94989 0.0
H320 H 0.1597 0.80693 0.06821 0.0
H321 H 0.24693 0.87046 0.99558 0.0
H322 H 0.21406 0.88605 0.01434 0.0
H323 H 0.21627 0.86924 0.95979 0.0
C324 C 0.12929 0.88774 0.06519 0.0
C325 C 0.11955 0.89641 0.02234 0.0
C326 C 0.15166 0.86847 0.06893 0.0
C327 C 0.16486 0.85774 0.02997 0.0
C328 C 0.1554 0.86657 0.98724 0.0
H329 H 0.25426 0.70223 0.98399 0.0
H330 H 0.22033 0.74143 0.98957 0.0
C331 C 0.13306 0.88576 0.98343 0.0
C332 C 0.18731 0.83595 0.03361 0.0
H333 H 0.25479 0.82046 0.00062 0.0
C334 C 0.1806 0.80999 0.05391 0.0
C335 C 0.21466 0.84011 0.01543 0.0
C336 C 0.22356 0.86807 0.99546 0.0
C337 C 0.20017 0.78764 0.05486 0.0
C338 C 0.22696 0.79128 0.03439 0.0
C339 C 0.23409 0.81762 0.01579 0.0
C340 C 0.24755 0.76774 0.03081 0.0
C341 C 0.19196 0.76031 0.07766 0.0
C342 C 0.27433 0.76989 0.05107 0.0
C343 C 0.29373 0.74764 0.04747 0.0
C344 C 0.2867 0.72308 0.02327 0.0
C345 C 0.26008 0.7211 0.00255 0.0
C346 C 0.24068 0.74329 0.00615 0.0
H347 H 0.17447 0.76351 0.10226 0.0
H348 H 0.18461 0.74505 0.05164 0.0
H349 H 0.21027 0.75078 0.09567 0.0
H350 H 0.2801 0.78867 0.06995 0.0
H351 H 0.31427 0.74955 0.0634 0.0
H352 H 0.60993 0.61729 0.59385 0.0
H353 H 0.64505 0.65527 0.59506 0.0
H354 H 0.64109 0.66094 0.44951 0.0
H355 H 0.60638 0.62285 0.44777 0.0
H356 H 0.69551 0.65685 0.4817 0.0
H357 H 0.63625 0.74037 0.57393 0.0
H358 H 0.63762 0.70688 0.60255 0.0
H359 H 0.61916 0.7098 0.54956 0.0
C360 C 0.61629 0.62682 0.56211 0.0
C361 C 0.60536 0.61691 0.5207 0.0
C362 C 0.63626 0.64864 0.56291 0.0
C363 C 0.64548 0.66112 0.5224 0.0
C364 C 0.63423 0.65165 0.48116 0.0
H365 H 0.75005 0.81062 0.484 0.0
H366 H 0.71126 0.776 0.48599 0.0
C367 C 0.61435 0.62984 0.48029 0.0
C368 C 0.6681 0.68285 0.5225 0.0
H369 H 0.68517 0.74881 0.56104 0.0
C370 C 0.69322 0.67698 0.49897 0.0
C371 C 0.66495 0.7092 0.54467 0.0
C372 C 0.63796 0.71715 0.56879 0.0
C373 C 0.71542 0.69661 0.49738 0.0
C374 C 0.71261 0.72264 0.52058 0.0
C375 C 0.68735 0.72871 0.54364 0.0
C376 C 0.73563 0.74389 0.52082 0.0
C377 C 0.74153 0.68949 0.47024 0.0
C378 C 0.76194 0.73743 0.54029 0.0
C379 C 0.78399 0.75707 0.53892 0.0
C380 C 0.78001 0.78352 0.51834 0.0
C381 C 0.75353 0.79022 0.49968 0.0
C382 C 0.73145 0.77057 0.50103 0.0
H383 H 0.73753 0.67218 0.44561 0.0
H384 H 0.7493 0.7083 0.45151 0.0
H385 H 0.75853 0.68242 0.49357 0.0
H386 H 0.76548 0.71712 0.55629 0.0
H387 H 0.80431 0.75147 0.55326 0.0
H388 H 0.37933 0.60895 0.59615 0.0
H389 H 0.34077 0.64356 0.59796 0.0
H390 H 0.33527 0.6407 0.45232 0.0
H391 H 0.3739 0.60646 0.45 0.0
H392 H 0.33885 0.6951 0.48634 0.0
H393 H 0.25564 0.63396 0.57561 0.0
H394 H 0.28912 0.63518 0.60433 0.0
H395 H 0.28639 0.61742 0.55071 0.0
C396 C 0.36972 0.61543 0.56451 0.0
C397 C 0.37983 0.60494 0.52291 0.0
C398 C 0.34756 0.63511 0.56564 0.0
C399 C 0.33498 0.64451 0.52529 0.0
C400 C 0.34465 0.63369 0.48386 0.0
H401 H 0.18486 0.74838 0.48538 0.0
H402 H 0.21982 0.70977 0.48769 0.0
C403 C 0.36675 0.61407 0.48265 0.0
C404 C 0.31297 0.66692 0.52578 0.0
H405 H 0.24653 0.68286 0.56363 0.0
C406 C 0.31864 0.6924 0.50318 0.0
C407 C 0.28653 0.66325 0.5474 0.0
C408 C 0.27884 0.6359 0.57057 0.0
C409 C 0.29873 0.71443 0.50198 0.0
C410 C 0.27259 0.71105 0.52456 0.0
C411 C 0.26671 0.68546 0.5467 0.0
C412 C 0.25101 0.73383 0.52499 0.0
C413 C 0.30567 0.74097 0.47591 0.0
C414 C 0.25682 0.7599 0.54578 0.0
C415 C 0.23698 0.78183 0.54429 0.0
C416 C 0.21098 0.778 0.52221 0.0
C417 C 0.2049 0.75174 0.50227 0.0
C418 C 0.22474 0.72976 0.50379 0.0
H419 H 0.32338 0.73757 0.45179 0.0
H420 H 0.28695 0.74863 0.45676 0.0
H421 H 0.31205 0.75781 0.5 0.0
H422 H 0.27681 0.76335 0.5628 0.0
H423 H 0.2421 0.80199 0.5596 0.0
H424 H 0.39802 0.37473 0.44583 0.0
H425 H 0.36298 0.33691 0.44654 0.0
H426 H 0.35698 0.34312 0.59184 0.0
H427 H 0.39236 0.38091 0.59171 0.0
H428 H 0.35865 0.28658 0.55795 0.0
H429 H 0.27841 0.3526 0.47004 0.0
H430 H 0.31176 0.35014 0.44119 0.0
H431 H 0.30985 0.36736 0.49538 0.0
C432 C 0.38943 0.36801 0.47806 0.0
C433 C 0.39781 0.38112 0.51871 0.0
C434 C 0.36931 0.34644 0.47832 0.0
C435 C 0.35704 0.33763 0.51913 0.0
C436 C 0.36611 0.3498 0.55996 0.0
H437 H 0.20001 0.24496 0.547 0.0
H438 H 0.23858 0.27954 0.55123 0.0
C439 C 0.3863 0.3714 0.55978 0.0
C440 C 0.33418 0.31627 0.51893 0.0
H441 H 0.26735 0.3041 0.47983 0.0
C442 C 0.33865 0.29037 0.54099 0.0
C443 C 0.308 0.3215 0.49727 0.0
C444 C 0.30151 0.34949 0.47496 0.0
C445 C 0.31773 0.2693 0.54126 0.0
C446 C 0.2919 0.27421 0.51837 0.0
C447 C 0.2873 0.3003 0.49697 0.0
C448 C 0.26903 0.25285 0.51691 0.0
C449 C 0.32326 0.24216 0.56663 0.0
C450 C 0.27333 0.22653 0.49588 0.0
C451 C 0.25136 0.20679 0.49373 0.0
C452 C 0.22481 0.21317 0.51237 0.0
C453 C 0.22048 0.23955 0.53301 0.0
C454 C 0.24239 0.25926 0.53522 0.0
H455 H 0.34082 0.24449 0.59137 0.0
H456 H 0.30402 0.2351 0.58496 0.0
H457 H 0.32925 0.22536 0.54218 0.0
H458 H 0.29355 0.22139 0.48074 0.0
H459 H 0.25502 0.18653 0.47766 0.0
H460 H 0.6293 0.39901 0.44479 0.0
H461 H 0.66815 0.36494 0.44491 0.0
H462 H 0.65983 0.35517 0.5894 0.0
H463 H 0.6211 0.3896 0.58989 0.0
H464 H 0.71666 0.35825 0.55876 0.0
H465 H 0.65369 0.27984 0.46159 0.0
H466 H 0.65652 0.31391 0.43513 0.0
H467 H 0.63796 0.31051 0.48794 0.0
C468 C 0.63579 0.3898 0.47672 0.0
C469 C 0.62181 0.3968 0.51728 0.0
C470 C 0.65795 0.37025 0.47665 0.0
C471 C 0.66646 0.35717 0.51701 0.0
C472 C 0.65342 0.36494 0.55785 0.0
H473 H 0.75708 0.19948 0.54416 0.0
H474 H 0.72317 0.23872 0.54706 0.0
C475 C 0.63126 0.38458 0.55802 0.0
C476 C 0.6882 0.33459 0.51634 0.0
H477 H 0.70177 0.26861 0.47464 0.0
C478 C 0.71347 0.33863 0.54041 0.0
C479 C 0.68375 0.30891 0.49281 0.0
C480 C 0.65643 0.30281 0.46822 0.0
C481 C 0.7346 0.3177 0.54118 0.0
C482 C 0.73039 0.2923 0.51676 0.0
C483 C 0.70502 0.28822 0.49301 0.0
C484 C 0.75153 0.26914 0.51656 0.0
C485 C 0.76094 0.32266 0.56889 0.0
C486 C 0.77864 0.27321 0.49824 0.0
C487 C 0.79803 0.25083 0.49693 0.0
C488 C 0.79051 0.22412 0.51369 0.0
C489 C 0.76339 0.22006 0.53173 0.0
C490 C 0.74405 0.24236 0.53314 0.0
H491 H 0.75798 0.33997 0.59392 0.0
H492 H 0.76728 0.30314 0.58719 0.0
H493 H 0.77853 0.32871 0.54601 0.0
H494 H 0.78465 0.29354 0.48444 0.0
H495 H 0.81888 0.25427 0.48282 0.0
H496 H 0.98982 0.05325 0.20102 0.0
H497 H 0.01597 0.06643 0.26972 0.0
H498 H 0.07902 0.10781 0.18774 0.0
H499 H 0.05244 0.09549 0.11949 0.0
H500 H 0.07428 0.05507 0.2954 0.0
H501 H 0.0506 0.16951 0.27662 0.0
H502 H 0.03139 0.14247 0.24633 0.0
H503 H 0.06575 0.1534 0.22713 0.0
C504 C 0.00932 0.06509 0.19778 0.0
C505 C 0.01949 0.07302 0.1549 0.0
C506 C 0.02426 0.07246 0.23693 0.0
C507 C 0.04931 0.0882 0.23372 0.0
C508 C 0.05965 0.09576 0.19091 0.0
H509 H 0.183 0.12543 0.42207 0.0
H510 H 0.15205 0.10435 0.36455 0.0
C511 C 0.04475 0.08836 0.15187 0.0
C512 C 0.06425 0.09764 0.27505 0.0
H513 H 0.08536 0.15702 0.33119 0.0
C514 C 0.07655 0.07733 0.30356 0.0
C515 C 0.06675 0.12666 0.28586 0.0
C516 C 0.05271 0.14931 0.25766 0.0
C517 C 0.09218 0.0854 0.34193 0.0
C518 C 0.09583 0.11451 0.3515 0.0
C519 C 0.0827 0.13472 0.32372 0.0
C520 C 0.11397 0.12477 0.38904 0.0
C521 C 0.10454 0.06269 0.37188 0.0
C522 C 0.10295 0.14346 0.4216 0.0
C523 C 0.12071 0.15578 0.45388 0.0
C524 C 0.14974 0.14964 0.45404 0.0
C525 C 0.16064 0.1304 0.42234 0.0
C526 C 0.14293 0.11816 0.38992 0.0
H527 H 0.09287 0.04242 0.36828 0.0
H528 H 0.12683 0.05882 0.3619 0.0
H529 H 0.1042 0.06918 0.40801 0.0
H530 H 0.08072 0.14905 0.4213 0.0
H531 H 0.112 0.17085 0.47771 0.0
H532 H 0.93458 0.98047 0.20286 0.0
H533 H 0.92173 0.00708 0.27116 0.0
H534 H 0.90232 0.08002 0.1892 0.0
H535 H 0.9146 0.05336 0.12111 0.0
H536 H 0.94347 0.06334 0.30348 0.0
H537 H 0.82859 0.06072 0.2632 0.0
H538 H 0.8537 0.03659 0.23794 0.0
H539 H 0.85135 0.07243 0.21821 0.0
C540 C 0.92763 0.00222 0.19945 0.0
C541 C 0.92572 0.015 0.15652 0.0
C542 C 0.92048 0.01739 0.23847 0.0
C543 C 0.91099 0.04542 0.23506 0.0
C544 C 0.90953 0.05836 0.19243 0.0
H545 H 0.87985 0.17843 0.42847 0.0
H546 H 0.90005 0.14697 0.37057 0.0
C547 C 0.9168 0.04323 0.15353 0.0
C548 C 0.90143 0.06091 0.27577 0.0
H549 H 0.8427 0.08982 0.32441 0.0
C550 C 0.92144 0.06902 0.30834 0.0
C551 C 0.87264 0.06794 0.28204 0.0
C552 C 0.85021 0.05882 0.24876 0.0
C553 C 0.91342 0.08476 0.34665 0.0
C554 C 0.88474 0.09263 0.3521 0.0
C555 C 0.86469 0.08382 0.32005 0.0
C556 C 0.87497 0.11067 0.39002 0.0
C557 C 0.93562 0.09276 0.38101 0.0
C558 C 0.85417 0.10072 0.41991 0.0
C559 C 0.84259 0.11871 0.45259 0.0
C560 C 0.85152 0.14692 0.45563 0.0
C561 C 0.8728 0.15669 0.42652 0.0
C562 C 0.88442 0.13871 0.39385 0.0
H563 H 0.95471 0.07913 0.37821 0.0
H564 H 0.94219 0.11498 0.37515 0.0
H565 H 0.92714 0.0912 0.41597 0.0
H566 H 0.84642 0.07923 0.41722 0.0
H567 H 0.82594 0.11095 0.47443 0.0
H568 H 0.01164 0.9461 0.20443 0.0
H569 H 0.98547 0.932 0.27252 0.0
H570 H 0.92225 0.8921 0.18889 0.0
H571 H 0.94889 0.90531 0.12119 0.0
H572 H 0.92846 0.94273 0.30036 0.0
H573 H 0.9499 0.82849 0.27346 0.0
H574 H 0.96893 0.85589 0.24384 0.0
H575 H 0.93405 0.84586 0.2257 0.0
C576 C 0.99209 0.9344 0.20067 0.0
C577 C 0.98197 0.92707 0.15744 0.0
C578 C 0.97714 0.92649 0.23951 0.0
C579 C 0.9521 0.91079 0.23572 0.0
C580 C 0.94167 0.90403 0.19256 0.0
H581 H 0.82137 0.87104 0.42861 0.0
H582 H 0.85124 0.89258 0.37015 0.0
C583 C 0.95659 0.91197 0.15381 0.0
C584 C 0.93737 0.90054 0.2768 0.0
H585 H 0.91641 0.8402 0.3304 0.0
C586 C 0.92594 0.92033 0.30718 0.0
C587 C 0.93457 0.87132 0.28594 0.0
C588 C 0.94773 0.84912 0.25579 0.0
C589 C 0.91096 0.9116 0.34582 0.0
C590 C 0.90707 0.88234 0.35383 0.0
C591 C 0.91926 0.86262 0.32411 0.0
C592 C 0.88963 0.87153 0.39181 0.0
C593 C 0.8996 0.93375 0.37781 0.0
C594 C 0.90119 0.85235 0.42313 0.0
C595 C 0.88404 0.83985 0.45608 0.0
C596 C 0.85509 0.84623 0.45804 0.0
C597 C 0.84367 0.86589 0.42749 0.0
C598 C 0.86077 0.87835 0.3945 0.0
H599 H 0.91132 0.954 0.37459 0.0
H600 H 0.87708 0.93796 0.36958 0.0
H601 H 0.90083 0.92649 0.4135 0.0
H602 H 0.92336 0.84661 0.42143 0.0
H603 H 0.89313 0.8245 0.47908 0.0
H604 H 0.08474 0.94722 0.12773 0.0
H605 H 0.09717 0.92143 0.19646 0.0
H606 H 0.08352 0.99694 0.2754 0.0
H607 H 0.07075 0.02286 0.20635 0.0
H608 H 0.14381 0.94255 0.26091 0.0
H609 H 0.03692 0.92754 0.33675 0.0
H610 H 0.04201 0.93092 0.27638 0.0
H611 H 0.04581 0.96129 0.31211 0.0
C612 C 0.08389 0.9582 0.15959 0.0
C613 C 0.07652 0.98693 0.16143 0.0
C614 C 0.09116 0.94351 0.19889 0.0
C615 C 0.09103 0.95726 0.24091 0.0
C616 C 0.08348 0.98593 0.24322 0.0
H617 H 0.17281 0.89138 0.48501 0.0
H618 H 0.15352 0.92346 0.42716 0.0
C619 C 0.07636 0.00069 0.20374 0.0
C620 C 0.10025 0.94178 0.28181 0.0
H621 H 0.0758 0.90838 0.37647 0.0
C622 C 0.12904 0.93527 0.28646 0.0
C623 C 0.08078 0.93218 0.31461 0.0
C624 C 0.04957 0.93815 0.31003 0.0
C625 C 0.13892 0.91911 0.32302 0.0
C626 C 0.11948 0.90945 0.35593 0.0
C627 C 0.09065 0.91608 0.35139 0.0
C628 C 0.12869 0.89113 0.39383 0.0
C629 C 0.16996 0.91172 0.32542 0.0
C630 C 0.1204 0.86265 0.395 0.0
C631 C 0.13131 0.84448 0.428 0.0
C632 C 0.1505 0.85457 0.46041 0.0
C633 C 0.15792 0.8833 0.46036 0.0
C634 C 0.14706 0.90148 0.4273 0.0
H635 H 0.18109 0.91628 0.29313 0.0
H636 H 0.18009 0.92435 0.35261 0.0
H637 H 0.17285 0.889 0.33375 0.0
H638 H 0.10622 0.85429 0.36949 0.0
H639 H 0.12527 0.8224 0.42782 0.0
H640 H 0.10866 0.00863 0.84212 0.0
H641 H 0.12161 0.98281 0.7735 0.0
H642 H 0.03344 0.97359 0.73922 0.0
H643 H 0.02032 0.9989 0.80854 0.0
H644 H 0.06429 0.92266 0.7393 0.0
H645 H 0.11942 0.00465 0.63879 0.0
H646 H 0.13058 0.00336 0.69687 0.0
H647 H 0.09473 0.01307 0.68351 0.0
C648 C 0.09202 0.00137 0.81976 0.0
C649 C 0.06342 0.00572 0.83073 0.0
C650 C 0.09946 0.98682 0.78037 0.0
C651 C 0.07849 0.9766 0.75101 0.0
C652 C 0.04994 0.98146 0.76132 0.0
H653 H 0.10887 0.85117 0.53442 0.0
H654 H 0.08433 0.88673 0.58105 0.0
C655 C 0.04247 0.99584 0.80094 0.0
C656 C 0.08652 0.95853 0.71214 0.0
H657 H 0.12946 0.95636 0.61937 0.0
C658 C 0.07808 0.93009 0.7125 0.0
C659 C 0.1044 0.96838 0.67724 0.0
C660 C 0.11262 0.99911 0.67367 0.0
C661 C 0.08855 0.91077 0.68051 0.0
C662 C 0.10766 0.92031 0.64698 0.0
C663 C 0.11497 0.94907 0.64532 0.0
C664 C 0.12219 0.90038 0.616 0.0
C665 C 0.08031 0.88003 0.68441 0.0
C666 C 0.15163 0.89701 0.61913 0.0
C667 C 0.16553 0.877 0.59241 0.0
C668 C 0.15025 0.86005 0.56211 0.0
C669 C 0.12095 0.86404 0.55777 0.0
C670 C 0.10699 0.88413 0.58451 0.0
H671 H 0.0696 0.87536 0.71703 0.0
H672 H 0.06554 0.87458 0.65655 0.0
H673 H 0.09921 0.86618 0.68134 0.0
H674 H 0.16377 0.90946 0.64303 0.0
H675 H 0.18821 0.87454 0.59558 0.0
H676 H 0.97973 0.06059 0.80725 0.0
H677 H 0.00563 0.0678 0.73644 0.0
H678 H 0.07344 0.10734 0.81086 0.0
H679 H 0.04827 0.0991 0.88163 0.0
H680 H 0.02145 0.11693 0.69811 0.0
H681 H 0.11733 0.05328 0.7327 0.0
H682 H 0.08483 0.04927 0.76414 0.0
H683 H 0.10927 0.07709 0.77813 0.0
C684 C 0.00036 0.07037 0.80852 0.0
C685 C 0.01202 0.07902 0.85006 0.0
C686 C 0.0151 0.07456 0.76805 0.0
C687 C 0.04175 0.08759 0.76841 0.0
C688 C 0.05331 0.09648 0.80983 0.0
H689 H 0.12837 0.19214 0.58486 0.0
H690 H 0.09514 0.16932 0.6367 0.0
C691 C 0.0387 0.09207 0.85027 0.0
C692 C 0.0568 0.0937 0.72546 0.0
H693 H 0.12165 0.08906 0.67536 0.0
C694 C 0.04321 0.11044 0.69276 0.0
C695 C 0.08496 0.08471 0.71787 0.0
C696 C 0.09989 0.06483 0.74985 0.0
C697 C 0.05767 0.11999 0.65421 0.0
C698 C 0.0866 0.11308 0.64879 0.0
C699 C 0.09959 0.09474 0.67985 0.0
C700 C 0.10451 0.12675 0.61392 0.0
C701 C 0.04192 0.13779 0.6201 0.0
C702 C 0.12108 0.11044 0.58421 0.0
C703 C 0.14038 0.12354 0.55509 0.0
C704 C 0.14351 0.15304 0.55567 0.0
C705 C 0.12636 0.16934 0.58431 0.0
C706 C 0.10717 0.15632 0.61341 0.0
H707 H 0.01901 0.13261 0.61994 0.0
H708 H 0.04403 0.16044 0.62938 0.0
H709 H 0.05045 0.13478 0.5854 0.0
H710 H 0.11953 0.08758 0.58432 0.0
H711 H 0.15357 0.11068 0.53327 0.0
H712 H 0.97176 0.0067 0.80749 0.0
H713 H 0.9541 0.03328 0.74219 0.0
H714 H 0.86861 0.01084 0.77782 0.0
H715 H 0.88608 0.98428 0.84312 0.0
H716 H 0.91784 0.01804 0.66647 0.0
H717 H 0.8705 0.09868 0.78077 0.0
H718 H 0.89631 0.07319 0.79993 0.0
H719 H 0.86007 0.06287 0.79217 0.0
C720 C 0.94925 0.0073 0.80127 0.0
C721 C 0.93033 0.9938 0.83087 0.0
C722 C 0.9392 0.02236 0.76386 0.0
C723 C 0.91006 0.02439 0.75576 0.0
C724 C 0.89118 0.00989 0.78403 0.0
H725 H 0.80441 0.12519 0.58087 0.0
H726 H 0.82369 0.08909 0.63195 0.0
C727 C 0.90121 0.99472 0.82128 0.0
C728 C 0.89927 0.04313 0.71961 0.0
H729 H 0.86063 0.10318 0.70274 0.0
C730 C 0.90537 0.0367 0.67424 0.0
C731 C 0.88324 0.06754 0.73008 0.0
C732 C 0.8773 0.07622 0.77836 0.0
C733 C 0.89517 0.0538 0.63885 0.0
C734 C 0.87882 0.07799 0.6494 0.0
C735 C 0.873 0.08447 0.6948 0.0
C736 C 0.86736 0.09711 0.61423 0.0
C737 C 0.90146 0.0456 0.59054 0.0
C738 C 0.88552 0.11326 0.58693 0.0
C739 C 0.87447 0.13393 0.55797 0.0
C740 C 0.84522 0.13881 0.55634 0.0
C741 C 0.82706 0.12192 0.58229 0.0
C742 C 0.83803 0.10131 0.61114 0.0
H743 H 0.90857 0.02326 0.58779 0.0
H744 H 0.88251 0.04863 0.56881 0.0
H745 H 0.91855 0.05934 0.57725 0.0
H746 H 0.90824 0.11069 0.58939 0.0
H747 H 0.88873 0.1469 0.53823 0.0
H748 H 0.02984 0.93295 0.80968 0.0
H749 H 0.00594 0.92399 0.7374 0.0
H750 H 0.93042 0.89975 0.80945 0.0
H751 H 0.95381 0.90939 0.88131 0.0
H752 H 0.98483 0.87584 0.70453 0.0
H753 H 0.89801 0.95349 0.71723 0.0
H754 H 0.92926 0.95505 0.7522 0.0
H755 H 0.90015 0.93249 0.76767 0.0
C756 C 0.00799 0.92618 0.80999 0.0
C757 C 0.99361 0.92229 0.85118 0.0
C758 C 0.9944 0.92099 0.76871 0.0
C759 C 0.96615 0.91185 0.76793 0.0
C760 C 0.95192 0.90762 0.80908 0.0
H761 H 0.87591 0.80415 0.59255 0.0
H762 H 0.90971 0.82716 0.64303 0.0
C763 C 0.96545 0.91285 0.85023 0.0
C764 C 0.9519 0.90482 0.72457 0.0
H765 H 0.88932 0.91319 0.66869 0.0
C766 C 0.96416 0.88436 0.69621 0.0
C767 C 0.92539 0.91659 0.71273 0.0
C768 C 0.91257 0.94086 0.73879 0.0
C769 C 0.94964 0.87385 0.6583 0.0
C770 C 0.92174 0.88334 0.64947 0.0
C771 C 0.91042 0.90535 0.67586 0.0
C772 C 0.90303 0.86923 0.61587 0.0
C773 C 0.96435 0.85249 0.62847 0.0
C774 C 0.88739 0.88517 0.58437 0.0
C775 C 0.86735 0.87204 0.55651 0.0
C776 C 0.86269 0.84279 0.55966 0.0
C777 C 0.87895 0.82678 0.59 0.0
C778 C 0.89863 0.83989 0.61825 0.0
H779 H 0.98756 0.85615 0.62808 0.0
H780 H 0.96077 0.83095 0.64221 0.0
H781 H 0.95637 0.85327 0.59313 0.0
H782 H 0.89021 0.90785 0.58208 0.0
H783 H 0.85487 0.88479 0.53351 0.0
H784 H 0.55458 0.58603 0.63172 0.0
H785 H 0.58143 0.59779 0.69993 0.0
H786 H 0.50898 0.57736 0.78216 0.0
H787 H 0.48207 0.56525 0.71383 0.0
H788 H 0.55982 0.64087 0.76968 0.0
H789 H 0.58124 0.53253 0.83598 0.0
H790 H 0.57824 0.53957 0.7761 0.0
H791 H 0.54727 0.5403 0.81101 0.0
C792 C 0.54456 0.58355 0.66424 0.0
C793 C 0.51641 0.57442 0.66734 0.0
C794 C 0.55983 0.59044 0.70318 0.0
C795 C 0.54723 0.58815 0.74596 0.0
C796 C 0.51913 0.57896 0.74938 0.0
H797 H 0.61209 0.6662 0.99339 0.0
H798 H 0.5805 0.64758 0.93446 0.0
C799 C 0.50378 0.57223 0.71034 0.0
C800 C 0.56316 0.59678 0.78673 0.0
H801 H 0.5989 0.5709 0.87824 0.0
C802 C 0.56821 0.62565 0.79367 0.0
C803 C 0.57422 0.57675 0.81747 0.0
C804 C 0.57015 0.54548 0.81009 0.0
C805 C 0.58429 0.6351 0.83062 0.0
C806 C 0.59525 0.61509 0.86166 0.0
C807 C 0.59015 0.58617 0.85468 0.0
C808 C 0.61331 0.62385 0.90015 0.0
C809 C 0.59015 0.66634 0.83535 0.0
C810 C 0.64187 0.61573 0.90135 0.0
C811 C 0.65974 0.6261 0.93516 0.0
C812 C 0.64928 0.64463 0.9683 0.0
C813 C 0.62047 0.65178 0.96825 0.0
C814 C 0.60256 0.64139 0.93447 0.0
H815 H 0.58544 0.67808 0.80364 0.0
H816 H 0.57665 0.6752 0.86264 0.0
H817 H 0.61259 0.67008 0.84467 0.0
H818 H 0.65053 0.60212 0.87526 0.0
H819 H 0.68189 0.62026 0.93496 0.0
H820 H 0.44436 0.48343 0.71116 0.0
H821 H 0.43316 0.50917 0.78091 0.0
H822 H 0.39799 0.57747 0.70188 0.0
H823 H 0.40969 0.55202 0.63231 0.0
H824 H 0.42981 0.59702 0.77114 0.0
H825 H 0.35509 0.51532 0.83423 0.0
H826 H 0.39042 0.50294 0.82413 0.0
H827 H 0.36905 0.51473 0.77744 0.0
C828 C 0.43427 0.50398 0.70877 0.0
C829 C 0.42793 0.51588 0.66633 0.0
C830 C 0.4278 0.5186 0.74862 0.0
C831 C 0.41429 0.54504 0.74666 0.0
C832 C 0.40844 0.55711 0.70423 0.0
H833 H 0.30699 0.63359 0.92914 0.0
H834 H 0.32981 0.60327 0.87258 0.0
C835 C 0.41521 0.54265 0.66445 0.0
C836 C 0.40557 0.56009 0.78849 0.0
H837 H 0.36181 0.55546 0.88015 0.0
C838 C 0.41509 0.5879 0.79518 0.0
C839 C 0.38626 0.54812 0.81969 0.0
C840 C 0.37438 0.51874 0.81349 0.0
C841 C 0.40516 0.60442 0.83137 0.0
C842 C 0.38569 0.59253 0.86236 0.0
C843 C 0.37686 0.56443 0.85648 0.0
C844 C 0.37218 0.60968 0.89848 0.0
C845 C 0.41456 0.63484 0.83478 0.0
C846 C 0.38833 0.62287 0.93239 0.0
C847 C 0.37528 0.64051 0.96426 0.0
C848 C 0.34593 0.64496 0.96285 0.0
C849 C 0.32972 0.63083 0.93017 0.0
C850 C 0.34272 0.61339 0.89821 0.0
H851 H 0.42454 0.64235 0.80293 0.0
H852 H 0.39642 0.64891 0.84284 0.0
H853 H 0.43037 0.63686 0.86236 0.0
H854 H 0.41101 0.61981 0.93385 0.0
H855 H 0.3881 0.65119 0.98936 0.0
H856 H 0.51913 0.4371 0.71138 0.0
H857 H 0.49223 0.4264 0.78035 0.0
H858 H 0.42076 0.40143 0.69898 0.0
H859 H 0.44763 0.41173 0.63022 0.0
H860 H 0.43154 0.44854 0.80514 0.0
H861 H 0.44487 0.33214 0.78571 0.0
H862 H 0.46882 0.35727 0.76025 0.0
H863 H 0.43449 0.35161 0.73603 0.0
C864 C 0.49765 0.42937 0.70825 0.0
C865 C 0.4853 0.42544 0.66535 0.0
C866 C 0.48231 0.42346 0.74761 0.0
C867 C 0.45456 0.4132 0.74458 0.0
C868 C 0.44215 0.40942 0.7019 0.0
H869 H 0.31786 0.38517 0.93171 0.0
H870 H 0.35003 0.40398 0.87381 0.0
C871 C 0.45742 0.41548 0.66264 0.0
C872 C 0.43881 0.40523 0.78581 0.0
H873 H 0.41343 0.34785 0.84257 0.0
C874 C 0.42771 0.42656 0.81369 0.0
C875 C 0.43414 0.37655 0.79683 0.0
C876 C 0.44631 0.35295 0.76843 0.0
C877 C 0.41134 0.41986 0.85193 0.0
C878 C 0.40582 0.39112 0.86207 0.0
C879 C 0.41763 0.36986 0.83474 0.0
C880 C 0.38706 0.38239 0.89978 0.0
C881 C 0.40018 0.44356 0.88112 0.0
C882 C 0.39713 0.3639 0.93337 0.0
C883 C 0.37872 0.35303 0.96601 0.0
C884 C 0.34996 0.36036 0.96543 0.0
C885 C 0.34002 0.37936 0.9326 0.0
C886 C 0.3584 0.39024 0.89992 0.0
H887 H 0.41303 0.46307 0.87722 0.0
H888 H 0.37819 0.4486 0.87069 0.0
H889 H 0.39994 0.43746 0.91741 0.0
H890 H 0.4191 0.35736 0.93363 0.0
H891 H 0.38668 0.33811 0.99074 0.0
H892 H 0.55612 0.51157 0.71108 0.0
H893 H 0.56815 0.48416 0.77908 0.0
H894 H 0.60491 0.41907 0.6953 0.0
H895 H 0.59341 0.44661 0.6276 0.0
H896 H 0.55385 0.427 0.80494 0.0
H897 H 0.6693 0.44319 0.78244 0.0
H898 H 0.64316 0.46414 0.75304 0.0
H899 H 0.65152 0.42907 0.73367 0.0
C900 C 0.5668 0.49141 0.7073 0.0
C901 C 0.57382 0.48108 0.6641 0.0
C902 C 0.57349 0.47576 0.74605 0.0
C903 C 0.5877 0.4498 0.74217 0.0
C904 C 0.59417 0.4392 0.69901 0.0
H905 H 0.62001 0.31611 0.93406 0.0
H906 H 0.59982 0.34719 0.87587 0.0
C907 C 0.58735 0.45476 0.66032 0.0
C908 C 0.59669 0.43423 0.78322 0.0
H909 H 0.65533 0.41026 0.83862 0.0
C910 C 0.57602 0.42343 0.81256 0.0
C911 C 0.62563 0.43006 0.79337 0.0
C912 C 0.64874 0.44242 0.76426 0.0
C913 C 0.58357 0.4078 0.85122 0.0
C914 C 0.61252 0.40262 0.8603 0.0
C915 C 0.63314 0.41413 0.83155 0.0
C916 C 0.62214 0.3846 0.89847 0.0
C917 C 0.56052 0.39715 0.88208 0.0
C918 C 0.64147 0.39521 0.93037 0.0
C919 C 0.65325 0.37736 0.96308 0.0
C920 C 0.64597 0.34862 0.96427 0.0
C921 C 0.62597 0.33821 0.93342 0.0
C922 C 0.61423 0.35601 0.90061 0.0
H923 H 0.54079 0.40974 0.87828 0.0
H924 H 0.55558 0.37489 0.87323 0.0
H925 H 0.56728 0.39784 0.91807 0.0
H926 H 0.64802 0.41715 0.92915 0.0
H927 H 0.66888 0.38568 0.98632 0.0
H928 H 0.55218 0.51672 0.31767 0.0
H929 H 0.55994 0.49053 0.24706 0.0
H930 H 0.60958 0.42886 0.31974 0.0
H931 H 0.60235 0.45507 0.38996 0.0
H932 H 0.6116 0.47771 0.20536 0.0
H933 H 0.55329 0.38012 0.24845 0.0
H934 H 0.54928 0.41254 0.28005 0.0
H935 H 0.57858 0.38931 0.29134 0.0
C936 C 0.56483 0.49766 0.3185 0.0
C937 C 0.57688 0.48817 0.35931 0.0
C938 C 0.56914 0.48265 0.2782 0.0
C939 C 0.58499 0.45753 0.27829 0.0
C940 C 0.5968 0.44789 0.31906 0.0
H941 H 0.68901 0.3707 0.09291 0.0
H942 H 0.66622 0.404 0.14503 0.0
C943 C 0.5928 0.46303 0.35915 0.0
C944 C 0.59067 0.44198 0.23565 0.0
H945 H 0.5882 0.37593 0.18918 0.0
C946 C 0.60607 0.45558 0.20141 0.0
C947 C 0.58296 0.41329 0.23008 0.0
C948 C 0.56485 0.39804 0.26425 0.0
C949 C 0.61563 0.44069 0.16317 0.0
C950 C 0.60995 0.4114 0.15953 0.0
C951 C 0.59288 0.39831 0.19224 0.0
C952 C 0.62353 0.39338 0.12456 0.0
C953 C 0.63215 0.45638 0.12748 0.0
C954 C 0.60716 0.37616 0.09597 0.0
C955 C 0.62025 0.35692 0.0666 0.0
C956 C 0.64981 0.35442 0.06588 0.0
C957 C 0.66616 0.37218 0.09342 0.0
C958 C 0.65315 0.39139 0.12269 0.0
H959 H 0.62641 0.47918 0.1269 0.0
H960 H 0.65506 0.45483 0.13531 0.0
H961 H 0.6285 0.4473 0.0933 0.0
H962 H 0.58428 0.3772 0.0971 0.0
H963 H 0.60736 0.34329 0.04559 0.0
H964 H 0.48232 0.54586 0.32067 0.0
H965 H 0.51007 0.55102 0.25095 0.0
H966 H 0.56921 0.60462 0.32147 0.0
H967 H 0.54229 0.599 0.39118 0.0
H968 H 0.52053 0.59966 0.20492 0.0
H969 H 0.62114 0.55034 0.25628 0.0
H970 H 0.59006 0.54854 0.29145 0.0
H971 H 0.61291 0.57887 0.29406 0.0
C972 C 0.50132 0.55863 0.32132 0.0
C973 C 0.51005 0.57215 0.36139 0.0
C974 C 0.5171 0.56155 0.28149 0.0
C975 C 0.54182 0.57797 0.28112 0.0
C976 C 0.55057 0.59133 0.32116 0.0
H977 H 0.62604 0.68272 0.09836 0.0
H978 H 0.59264 0.65845 0.14856 0.0
C979 C 0.53498 0.5883 0.36093 0.0
C980 C 0.5575 0.58303 0.23843 0.0
H981 H 0.6242 0.58472 0.19443 0.0
C982 C 0.5431 0.59586 0.20224 0.0
C983 C 0.58689 0.57775 0.23461 0.0
C984 C 0.6035 0.56284 0.27111 0.0
C985 C 0.55769 0.6054 0.1638 0.0
C986 C 0.58736 0.60208 0.16169 0.0
C987 C 0.60144 0.58744 0.1963 0.0
C988 C 0.60466 0.61636 0.12683 0.0
C989 C 0.5414 0.61976 0.12639 0.0
C990 C 0.62239 0.60073 0.09798 0.0
C991 C 0.64139 0.61465 0.06934 0.0
C992 C 0.64319 0.64425 0.06994 0.0
C993 C 0.6249 0.65985 0.09774 0.0
C994 C 0.60576 0.64602 0.12598 0.0
H995 H 0.51882 0.61325 0.12639 0.0
H996 H 0.5422 0.643 0.13152 0.0
H997 H 0.55073 0.6149 0.09277 0.0
H998 H 0.62202 0.57782 0.09853 0.0
H999 H 0.65551 0.60239 0.04812 0.0
H1000 H 0.44192 0.47628 0.31461 0.0
H1001 H 0.42975 0.50054 0.24381 0.0
H1002 H 0.39311 0.56918 0.32022 0.0
H1003 H 0.40494 0.54512 0.39078 0.0
H1004 H 0.35775 0.54427 0.24964 0.0
H1005 H 0.46512 0.575 0.18931 0.0
H1006 H 0.45985 0.53982 0.21124 0.0
H1007 H 0.45736 0.56966 0.24853 0.0
C1008 C 0.43147 0.49662 0.31627 0.0
C1009 C 0.42432 0.50872 0.3583 0.0
C1010 C 0.42465 0.5105 0.27583 0.0
C1011 C 0.4107 0.53671 0.27691 0.0
C1012 C 0.40391 0.54896 0.31876 0.0
H1013 H 0.37411 0.67389 0.10222 0.0
H1014 H 0.39426 0.63924 0.15498 0.0
C1015 C 0.41067 0.53515 0.35905 0.0
C1016 C 0.40174 0.55105 0.23475 0.0
H1017 H 0.42626 0.59018 0.14601 0.0
C1018 C 0.37268 0.55401 0.22654 0.0
C1019 C 0.42135 0.56384 0.2051 0.0
C1020 C 0.45272 0.56214 0.21372 0.0
C1021 C 0.3626 0.57025 0.19023 0.0
C1022 C 0.3822 0.58341 0.1608 0.0
C1023 C 0.41132 0.57978 0.1683 0.0
C1024 C 0.37279 0.60335 0.12513 0.0
C1025 C 0.33107 0.57439 0.18519 0.0
C1026 C 0.35479 0.59454 0.09001 0.0
C1027 C 0.34307 0.6144 0.06031 0.0
C1028 C 0.34946 0.64322 0.06509 0.0
C1029 C 0.36876 0.65176 0.09844 0.0
C1030 C 0.38033 0.63199 0.12827 0.0
H1031 H 0.31934 0.5677 0.21595 0.0
H1032 H 0.32597 0.59691 0.17823 0.0
H1033 H 0.32335 0.56155 0.15629 0.0
H1034 H 0.3491 0.57247 0.08651 0.0
H1035 H 0.32815 0.60746 0.03481 0.0
H1036 H 0.45989 0.40154 0.3851 0.0
H1037 H 0.43416 0.39585 0.31412 0.0
H1038 H 0.49468 0.44915 0.24614 0.0
H1039 H 0.52065 0.45497 0.31741 0.0
H1040 H 0.41015 0.43839 0.2567 0.0
H1041 H 0.49386 0.37478 0.17091 0.0
H1042 H 0.49366 0.38016 0.23142 0.0
H1043 H 0.50369 0.40848 0.19446 0.0
C1044 C 0.4678 0.41208 0.35512 0.0
C1045 C 0.49257 0.42841 0.3567 0.0
C1046 C 0.453 0.40886 0.31461 0.0
C1047 C 0.46271 0.4218 0.27483 0.0
C1048 C 0.48709 0.43864 0.27634 0.0
H1049 H 0.34661 0.40154 0.04174 0.0
H1050 H 0.38123 0.42496 0.09157 0.0
C1051 C 0.50187 0.44197 0.31705 0.0
C1052 C 0.44721 0.41692 0.23204 0.0
H1053 H 0.45011 0.37893 0.13387 0.0
C1054 C 0.41894 0.42582 0.22935 0.0
C1055 C 0.45892 0.40055 0.19661 0.0
C1056 C 0.48914 0.39024 0.19824 0.0
C1057 C 0.4015 0.4174 0.19336 0.0
C1058 C 0.41283 0.39995 0.15886 0.0
C1059 C 0.44155 0.39236 0.16033 0.0
C1060 C 0.39439 0.38626 0.1247 0.0
C1061 C 0.37066 0.42573 0.1941 0.0
C1062 C 0.39123 0.35675 0.12554 0.0
C1063 C 0.3718 0.34352 0.09704 0.0
C1064 C 0.35515 0.35954 0.06728 0.0
C1065 C 0.3592 0.3889 0.06475 0.0
C1066 C 0.37876 0.40222 0.09329 0.0
H1067 H 0.36438 0.4354 0.22689 0.0
H1068 H 0.36657 0.44139 0.16692 0.0
H1069 H 0.35703 0.40703 0.18776 0.0
H1070 H 0.40316 0.34402 0.14934 0.0
H1071 H 0.36931 0.32079 0.09877 0.0
loop_
_geom_bond_atom_site_label_1
_geom_bond_atom_site_label_2
_geom_bond_distance
_geom_bond_site_symmetry_2
_ccdc_geom_bond_type
Zn0 O2 1.933 1_556 S
Zn0 O20 1.985 . S
Zn0 O31 1.955 . S
Zn1 O2 1.911 . S
Zn1 O21 1.970 . S
Zn1 O37 1.945 . S
Zn1 O44 1.981 . S
O2 Zn0 1.933 1_554 S
O2 Zn1 1.911 . S
O2 H3 0.841 1_655 S
H3 O2 0.841 1_455 S
C4 O5 1.246 . S
C4 O33 1.276 1_545 S
O5 C4 1.246 . S
Zn6 O8 1.911 . S
Zn6 O23 1.970 . S
Zn6 O40 1.945 . S
Zn6 O47 1.981 . S
Zn7 O8 1.933 1_556 S
Zn7 O22 1.985 . S
Zn7 O29 1.955 . S
O8 Zn6 1.911 . S
O8 Zn7 1.933 1_554 S
O8 H9 0.841 1_455 S
H9 O8 0.841 1_655 S
Zn10 O11 1.933 1_556 S
Zn10 O24 1.985 . S
Zn10 O33 1.955 . S
O11 Zn10 1.933 1_554 S
O11 Zn12 1.911 . S
O11 H13 0.841 1_565 S
Zn12 O11 1.911 . S
Zn12 O25 1.970 . S
Zn12 O41 1.981 . S
Zn12 O43 1.945 . S
H13 O11 0.841 1_545 S
Zn14 O15 1.933 1_556 S
Zn14 O27 1.985 . S
Zn14 O35 1.955 . S
O15 Zn14 1.933 1_554 S
O15 H16 0.841 1_545 S
O15 Zn17 1.911 . S
H16 O15 0.841 1_565 S
Zn17 O15 1.911 . S
Zn17 O28 1.970 . S
Zn17 O38 1.981 . S
Zn17 O46 1.945 . S
C18 O19 1.246 . S
C18 O35 1.276 1_565 S
O19 C18 1.246 . S
O20 Zn0 1.985 . S
O20 C30 1.245 1_556 S
O21 Zn1 1.970 . S
O21 C30 1.263 . S
O22 Zn7 1.985 . S
O22 C34 1.245 1_556 S
O23 Zn6 1.970 . S
O23 C34 1.263 . S
O24 Zn10 1.985 . S
O24 C39 1.245 1_556 S
O25 Zn12 1.970 . S
O25 C39 1.263 . S
C26 O37 1.262 1_455 S
C26 O38 1.245 . S
O27 Zn14 1.985 . S
O27 C45 1.245 1_556 S
O28 Zn17 1.970 . S
O28 C45 1.263 . S
O29 Zn7 1.955 . S
O29 C48 1.276 1_455 S
C30 O20 1.245 1_554 S
C30 O21 1.263 . S
O31 Zn0 1.955 . S
O31 C50 1.276 1_655 S
C32 O40 1.262 1_655 S
C32 O41 1.245 . S
O33 C4 1.276 1_565 S
O33 Zn10 1.955 . S
C34 O22 1.245 1_554 S
C34 O23 1.263 . S
O35 Zn14 1.955 . S
O35 C18 1.276 1_545 S
C36 O43 1.262 1_545 S
C36 O44 1.245 . S
O37 Zn1 1.945 . S
O37 C26 1.262 1_655 S
O38 Zn17 1.981 . S
O38 C26 1.245 . S
C39 O24 1.245 1_554 S
C39 O25 1.263 . S
O40 Zn6 1.945 . S
O40 C32 1.262 1_455 S
O41 Zn12 1.981 . S
O41 C32 1.245 . S
C42 O46 1.262 1_565 S
C42 O47 1.245 . S
O43 Zn12 1.945 . S
O43 C36 1.262 1_565 S
O44 Zn1 1.981 . S
O44 C36 1.245 . S
C45 O27 1.245 1_554 S
C45 O28 1.263 . S
O46 Zn17 1.945 . S
O46 C42 1.262 1_545 S
O47 Zn6 1.981 . S
O47 C42 1.245 . S
C48 O29 1.276 1_655 S
C48 O49 1.246 . S
O49 C48 1.246 . S
C50 O31 1.276 1_455 S
C50 O51 1.246 . S
O51 C50 1.246 . S
Zn52 O54 1.933 . S
Zn52 O72 1.985 . S
Zn52 O83 1.955 . S
Zn53 O54 1.911 . S
Zn53 O73 1.970 . S
Zn53 O89 1.945 . S
Zn53 O96 1.981 . S
O54 Zn52 1.933 . S
O54 Zn53 1.911 . S
O54 H55 0.841 . S
H55 O54 0.841 . S
C56 O57 1.246 . S
C56 O85 1.276 . S
O57 C56 1.246 . S
Zn58 O60 1.911 . S
Zn58 O75 1.970 . S
Zn58 O92 1.945 . S
Zn58 O99 1.981 . S
Zn59 O60 1.933 . S
Zn59 O74 1.985 . S
Zn59 O81 1.955 . S
O60 Zn58 1.911 . S
O60 Zn59 1.933 . S
O60 H61 0.841 . S
H61 O60 0.841 . S
Zn62 O63 1.933 . S
Zn62 O76 1.985 . S
Zn62 O85 1.955 . S
O63 Zn62 1.933 . S
O63 Zn64 1.911 . S
O63 H65 0.841 . S
Zn64 O63 1.911 . S
Zn64 O77 1.970 . S
Zn64 O93 1.981 . S
Zn64 O95 1.945 . S
H65 O63 0.841 . S
Zn66 O67 1.933 . S
Zn66 O79 1.985 . S
Zn66 O87 1.955 . S
O67 Zn66 1.933 . S
O67 H68 0.841 . S
O67 Zn69 1.911 . S
H68 O67 0.841 . S
Zn69 O67 1.911 . S
Zn69 O80 1.970 . S
Zn69 O90 1.981 . S
Zn69 O98 1.945 . S
C70 O71 1.246 . S
C70 O87 1.276 . S
O71 C70 1.246 . S
O72 Zn52 1.985 . S
O72 C82 1.245 . S
O73 Zn53 1.970 . S
O73 C82 1.263 . S
O74 Zn59 1.985 . S
O74 C86 1.245 . S
O75 Zn58 1.970 . S
O75 C86 1.263 . S
O76 Zn62 1.985 . S
O76 C91 1.245 . S
O77 Zn64 1.970 . S
O77 C91 1.263 . S
C78 O89 1.262 . S
C78 O90 1.245 . S
O79 Zn66 1.985 . S
O79 C97 1.245 . S
O80 Zn69 1.970 . S
O80 C97 1.263 . S
O81 Zn59 1.955 . S
O81 C100 1.276 . S
C82 O72 1.245 . S
C82 O73 1.263 . S
O83 Zn52 1.955 . S
O83 C102 1.276 . S
C84 O92 1.262 . S
C84 O93 1.245 . S
O85 C56 1.276 . S
O85 Zn62 1.955 . S
C86 O74 1.245 . S
C86 O75 1.263 . S
O87 Zn66 1.955 . S
O87 C70 1.276 . S
C88 O95 1.262 . S
C88 O96 1.245 . S
O89 Zn53 1.945 . S
O89 C78 1.262 . S
O90 Zn69 1.981 . S
O90 C78 1.245 . S
C91 O76 1.245 . S
C91 O77 1.263 . S
O92 Zn58 1.945 . S
O92 C84 1.262 . S
O93 Zn64 1.981 . S
O93 C84 1.245 . S
C94 O98 1.262 . S
C94 O99 1.245 . S
O95 Zn64 1.945 . S
O95 C88 1.262 . S
O96 Zn53 1.981 . S
O96 C88 1.245 . S
C97 O79 1.245 . S
C97 O80 1.263 . S
O98 Zn69 1.945 . S
O98 C94 1.262 . S
O99 Zn58 1.981 . S
O99 C94 1.245 . S
C100 O81 1.276 . S
C100 O101 1.246 . S
O101 C100 1.246 . S
C102 O83 1.276 . S
C102 O103 1.246 . S
O103 C102 1.246 . S
C104 N105 1.317 . S
C104 N106 1.348 1_556 S
C104 C107 1.485 . S
N105 C104 1.317 . S
N105 N109 1.370 1_556 S
N106 C104 1.348 1_554 S
N106 C108 1.346 . S
C107 C104 1.485 . S
C107 H111 0.960 . S
C107 H112 0.961 . S
C107 H113 0.960 . S
C108 N106 1.346 . S
C108 N109 1.307 . S
C108 C110 1.486 . S
N109 N105 1.370 1_554 S
N109 C108 1.307 . S
C110 C108 1.486 . S
C110 H114 0.960 . S
C110 H115 0.960 . S
C110 H116 0.959 . S
H111 C107 0.960 . S
H112 C107 0.961 . S
H113 C107 0.960 . S
H114 C110 0.960 . S
H115 C110 0.960 . S
H116 C110 0.959 . S
C117 N118 1.317 . S
C117 N119 1.348 1_556 S
C117 C120 1.485 . S
N118 C117 1.317 . S
N118 N122 1.370 1_556 S
N119 C117 1.348 1_554 S
N119 C121 1.346 . S
C120 C117 1.485 . S
C120 H124 0.960 . S
C120 H125 0.961 . S
C120 H126 0.960 . S
C121 N119 1.346 . S
C121 N122 1.307 . S
C121 C123 1.486 . S
N122 N118 1.370 1_554 S
N122 C121 1.307 . S
C123 C121 1.486 . S
C123 H127 0.960 . S
C123 H128 0.960 . S
C123 H129 0.959 . S
H124 C120 0.960 . S
H125 C120 0.961 . S
H126 C120 0.960 . S
H127 C123 0.960 . S
H128 C123 0.960 . S
H129 C123 0.959 . S
C130 N131 1.317 . S
C130 N132 1.348 . S
C130 C133 1.485 . S
N131 C130 1.317 . S
N131 N135 1.370 1_554 S
N132 C130 1.348 . S
N132 C134 1.346 1_554 S
C133 C130 1.485 . S
C133 H137 0.960 . S
C133 H138 0.961 . S
C133 H139 0.960 . S
C134 N132 1.346 1_556 S
C134 N135 1.307 . S
C134 C136 1.486 . S
N135 N131 1.370 1_556 S
N135 C134 1.307 . S
C136 C134 1.486 . S
C136 H140 0.960 . S
C136 H141 0.960 . S
C136 H142 0.959 . S
H137 C133 0.960 . S
H138 C133 0.961 . S
H139 C133 0.960 . S
H140 C136 0.960 . S
H141 C136 0.960 . S
H142 C136 0.959 . S
C143 N144 1.317 . S
C143 N145 1.348 . S
C143 C146 1.485 . S
N144 C143 1.317 . S
N144 N148 1.370 1_554 S
N145 C143 1.348 . S
N145 C147 1.346 1_554 S
C146 C143 1.485 . S
C146 H150 0.960 . S
C146 H151 0.961 . S
C146 H152 0.960 . S
C147 N145 1.346 1_556 S
C147 N148 1.307 . S
C147 C149 1.486 . S
N148 N144 1.370 1_556 S
N148 C147 1.307 . S
C149 C147 1.486 . S
C149 H153 0.960 . S
C149 H154 0.960 . S
C149 H155 0.959 . S
H150 C146 0.960 . S
H151 C146 0.961 . S
H152 C146 0.960 . S
H153 C149 0.960 . S
H154 C149 0.960 . S
H155 C149 0.959 . S
C156 N157 1.317 . S
C156 N158 1.348 . S
C156 C159 1.485 . S
N157 C156 1.317 . S
N157 N161 1.370 . S
N158 C156 1.348 . S
N158 C160 1.346 . S
C159 C156 1.485 . S
C159 H163 0.960 . S
C159 H164 0.961 . S
C159 H165 0.960 . S
C160 N158 1.346 . S
C160 N161 1.307 . S
C160 C162 1.486 . S
N161 N157 1.370 . S
N161 C160 1.307 . S
C162 C160 1.486 . S
C162 H166 0.960 . S
C162 H167 0.960 . S
C162 H168 0.959 . S
H163 C159 0.960 . S
H164 C159 0.961 . S
H165 C159 0.960 . S
H166 C162 0.960 . S
H167 C162 0.960 . S
H168 C162 0.959 . S
C169 N170 1.317 . S
C169 N171 1.348 . S
C169 C172 1.485 . S
N170 C169 1.317 . S
N170 N174 1.370 . S
N171 C169 1.348 . S
N171 C173 1.346 . S
C172 C169 1.485 . S
C172 H176 0.960 . S
C172 H177 0.961 . S
C172 H178 0.960 . S
C173 N171 1.346 . S
C173 N174 1.307 . S
C173 C175 1.486 . S
N174 N170 1.370 . S
N174 C173 1.307 . S
C175 C173 1.486 . S
C175 H179 0.960 . S
C175 H180 0.960 . S
C175 H181 0.959 . S
H176 C172 0.960 . S
H177 C172 0.961 . S
H178 C172 0.960 . S
H179 C175 0.960 . S
H180 C175 0.960 . S
H181 C175 0.959 . S
C182 N183 1.317 . S
C182 N184 1.348 . S
C182 C185 1.485 . S
N183 C182 1.317 . S
N183 N187 1.370 . S
N184 C182 1.348 . S
N184 C186 1.346 . S
C185 C182 1.485 . S
C185 H189 0.960 . S
C185 H190 0.961 . S
C185 H191 0.960 . S
C186 N184 1.346 . S
C186 N187 1.307 . S
C186 C188 1.486 . S
N187 N183 1.370 . S
N187 C186 1.307 . S
C188 C186 1.486 . S
C188 H192 0.960 . S
C188 H193 0.960 . S
C188 H194 0.959 . S
H189 C185 0.960 . S
H190 C185 0.961 . S
H191 C185 0.960 . S
H192 C188 0.960 . S
H193 C188 0.960 . S
H194 C188 0.959 . S
C195 N196 1.317 . S
C195 N197 1.348 . S
C195 C198 1.485 . S
N196 C195 1.317 . S
N196 N200 1.370 . S
N197 C195 1.348 . S
N197 C199 1.346 . S
C198 C195 1.485 . S
C198 H202 0.960 . S
C198 H203 0.961 . S
C198 H204 0.960 . S
C199 N197 1.346 . S
C199 N200 1.307 . S
C199 C201 1.486 . S
N200 N196 1.370 . S
N200 C199 1.307 . S
C201 C199 1.486 . S
C201 H205 0.960 . S
C201 H206 0.960 . S
C201 H207 0.959 . S
H202 C198 0.960 . S
H203 C198 0.961 . S
H204 C198 0.960 . S
H205 C201 0.960 . S
H206 C201 0.960 . S
H207 C201 0.959 . S
H208 C216 0.929 . S
H209 C218 0.930 . S
H210 C220 0.930 . S
H211 C223 0.929 . S
H212 C226 0.930 . S
H213 C228 0.960 . S
H214 C228 0.960 1_556 S
H215 C228 0.960 . S
C216 H208 0.929 . S
C216 C217 1.377 1_556 S
C216 C218 1.384 . S
C217 C216 1.377 1_554 S
C217 C223 1.390 . S
C218 H209 0.930 . S
C218 C216 1.384 . S
C218 C219 1.372 1_556 S
C219 C218 1.372 1_554 S
C219 C220 1.400 . S
C219 C224 1.490 . S
C220 H210 0.930 . S
C220 C219 1.400 . S
C220 C223 1.386 . S
H221 C237 0.930 . S
H222 C238 0.931 . S
C223 H211 0.929 . S
C223 C217 1.390 . S
C223 C220 1.386 . S
C224 C219 1.490 . S
C224 C226 1.395 . S
C224 C227 1.403 . S
H225 C231 0.930 . S
C226 H212 0.930 . S
C226 C224 1.395 . S
C226 C229 1.403 . S
C227 C224 1.403 . S
C227 C228 1.524 . S
C227 C231 1.400 . S
C228 H213 0.960 . S
C228 H214 0.960 1_554 S
C228 H215 0.960 . S
C228 C227 1.524 . S
C229 C226 1.403 . S
C229 C230 1.392 . S
C229 C233 1.498 . S
C230 C229 1.392 . S
C230 C231 1.385 . S
C230 C232 1.478 . S
C231 H225 0.930 . S
C231 C227 1.400 . S
C231 C230 1.385 . S
C232 C230 1.478 . S
C232 C234 1.381 1_554 S
C232 C238 1.383 . S
C233 C229 1.498 . S
C233 H239 0.957 1_554 S
C233 H240 0.982 . S
C233 H241 0.939 1_554 S
C234 C232 1.381 1_556 S
C234 C235 1.394 . S
C234 H242 0.930 . S
C235 C234 1.394 . S
C235 C236 1.383 1_556 S
C235 H243 0.929 . S
C236 C235 1.383 1_554 S
C236 C237 1.377 . S
C237 H221 0.930 . S
C237 C236 1.377 . S
C237 C238 1.379 . S
C238 H222 0.931 . S
C238 C232 1.383 . S
C238 C237 1.379 . S
H239 C233 0.957 1_556 S
H240 C233 0.982 . S
H241 C233 0.939 1_556 S
H242 C234 0.930 . S
H243 C235 0.929 . S
H244 C252 0.929 . S
H245 C254 0.930 1_556 S
H246 C256 0.930 . S
H247 C259 0.929 . S
H248 C262 0.930 . S
H249 C264 0.960 . S
H250 C264 0.960 . S
H251 C264 0.960 . S
C252 H244 0.929 . S
C252 C253 1.377 . S
C252 C254 1.384 . S
C253 C252 1.377 . S
C253 C259 1.390 . S
C254 H245 0.930 1_554 S
C254 C252 1.384 . S
C254 C255 1.372 . S
C255 C254 1.372 . S
C255 C256 1.400 . S
C255 C260 1.490 . S
C256 H246 0.930 . S
C256 C255 1.400 . S
C256 C259 1.386 . S
H257 C273 0.930 . S
H258 C274 0.931 . S
C259 H247 0.929 . S
C259 C253 1.390 . S
C259 C256 1.386 . S
C260 C255 1.490 . S
C260 C262 1.395 1_554 S
C260 C263 1.403 . S
H261 C267 0.930 . S
C262 H248 0.930 . S
C262 C260 1.395 1_556 S
C262 C265 1.403 . S
C263 C260 1.403 . S
C263 C264 1.524 . S
C263 C267 1.400 . S
C264 H249 0.960 . S
C264 H250 0.960 . S
C264 H251 0.960 . S
C264 C263 1.524 . S
C265 C262 1.403 . S
C265 C266 1.392 1_556 S
C265 C269 1.495 . S
C266 C265 1.392 1_554 S
C266 C267 1.385 . S
C266 C268 1.478 . S
C267 H261 0.930 . S
C267 C263 1.400 . S
C267 C266 1.385 . S
C268 C266 1.478 . S
C268 C270 1.381 . S
C268 C274 1.383 . S
C269 C265 1.495 . S
C269 H275 0.959 . S
C269 H276 0.961 . S
C269 H277 0.960 . S
C270 C268 1.381 . S
C270 C271 1.394 . S
C270 H278 0.930 1_554 S
C271 C270 1.394 . S
C271 C272 1.383 . S
C271 H279 0.929 . S
C272 C271 1.383 . S
C272 C273 1.377 . S
C273 H257 0.930 . S
C273 C272 1.377 . S
C273 C274 1.379 . S
C274 H258 0.931 . S
C274 C268 1.383 . S
C274 C273 1.379 . S
H275 C269 0.959 . S
H276 C269 0.961 . S
H277 C269 0.960 . S
H278 C270 0.930 1_556 S
H279 C271 0.929 . S
H280 C288 0.929 . S
H281 C290 0.930 . S
H282 C292 0.930 . S
H283 C295 0.929 . S
H284 C298 0.930 . S
H285 C300 0.960 . S
H286 C300 0.960 . S
H287 C300 0.960 . S
C288 H280 0.929 . S
C288 C289 1.377 1_556 S
C288 C290 1.384 . S
C289 C288 1.377 1_554 S
C289 C295 1.390 . S
C290 H281 0.930 . S
C290 C288 1.384 . S
C290 C291 1.372 1_556 S
C291 C290 1.372 1_554 S
C291 C292 1.400 . S
C291 C296 1.490 . S
C292 H282 0.930 . S
C292 C291 1.400 . S
C292 C295 1.386 . S
H293 C309 0.930 . S
H294 C310 0.931 . S
C295 H283 0.929 . S
C295 C289 1.390 . S
C295 C292 1.386 . S
C296 C291 1.490 . S
C296 C298 1.395 . S
C296 C299 1.403 1_554 S
H297 C303 0.930 . S
C298 H284 0.930 . S
C298 C296 1.395 . S
C298 C301 1.403 . S
C299 C296 1.403 1_556 S
C299 C300 1.524 . S
C299 C303 1.400 . S
C300 H285 0.960 . S
C300 H286 0.960 . S
C300 H287 0.960 . S
C300 C299 1.524 . S
C301 C298 1.403 . S
C301 C302 1.392 . S
C301 C305 1.495 . S
C302 C301 1.392 . S
C302 C303 1.385 1_554 S
C302 C304 1.478 . S
C303 H297 0.930 . S
C303 C299 1.400 . S
C303 C302 1.385 1_556 S
C304 C302 1.478 . S
C304 C306 1.381 1_554 S
C304 C310 1.383 . S
C305 C301 1.495 . S
C305 H311 0.959 . S
C305 H312 0.961 . S
C305 H313 0.960 . S
C306 C304 1.381 1_556 S
C306 C307 1.394 . S
C306 H314 0.930 . S
C307 C306 1.394 . S
C307 C308 1.383 1_556 S
C307 H315 0.929 . S
C308 C307 1.383 1_554 S
C308 C309 1.377 . S
C309 H293 0.930 . S
C309 C308 1.377 . S
C309 C310 1.379 . S
C310 H294 0.931 . S
C310 C304 1.383 . S
C310 C309 1.379 . S
H311 C305 0.959 . S
H312 C305 0.961 . S
H313 C305 0.960 . S
H314 C306 0.930 . S
H315 C307 0.929 . S
H316 C324 0.929 . S
H317 C326 0.930 . S
H318 C328 0.930 . S
H319 C331 0.929 . S
H320 C334 0.930 . S
H321 C336 0.960 . S
H322 C336 0.960 . S
H323 C336 0.960 . S
C324 H316 0.929 . S
C324 C325 1.377 . S
C324 C326 1.384 . S
C325 C324 1.377 . S
C325 C331 1.390 1_554 S
C326 H317 0.930 . S
C326 C324 1.384 . S
C326 C327 1.372 . S
C327 C326 1.372 . S
C327 C328 1.400 1_554 S
C327 C332 1.490 . S
C328 H318 0.930 . S
C328 C327 1.400 1_556 S
C328 C331 1.386 . S
H329 C345 0.930 1_556 S
H330 C346 0.931 . S
C331 H319 0.929 . S
C331 C325 1.390 1_556 S
C331 C328 1.386 . S
C332 C327 1.490 . S
C332 C334 1.395 . S
C332 C335 1.403 1_554 S
H333 C339 0.930 . S
C334 H320 0.930 . S
C334 C332 1.395 . S
C334 C337 1.403 . S
C335 C332 1.403 1_556 S
C335 C336 1.524 . S
C335 C339 1.400 . S
C336 H321 0.960 . S
C336 H322 0.960 . S
C336 H323 0.960 . S
C336 C335 1.524 . S
C337 C334 1.403 . S
C337 C338 1.392 . S
C337 C341 1.495 . S
C338 C337 1.392 . S
C338 C339 1.385 1_554 S
C338 C340 1.478 . S
C339 H333 0.930 . S
C339 C335 1.400 . S
C339 C338 1.385 1_556 S
C340 C338 1.478 . S
C340 C342 1.381 . S
C340 C346 1.383 . S
C341 C337 1.495 . S
C341 H347 0.959 . S
C341 H348 0.961 . S
C341 H349 0.960 . S
C342 C340 1.381 . S
C342 C343 1.394 . S
C342 H350 0.930 . S
C343 C342 1.394 . S
C343 C344 1.383 . S
C343 H351 0.929 . S
C344 C343 1.383 . S
C344 C345 1.377 . S
C345 H329 0.930 1_554 S
C345 C344 1.377 . S
C345 C346 1.379 . S
C346 H330 0.931 . S
C346 C340 1.383 . S
C346 C345 1.379 . S
H347 C341 0.959 . S
H348 C341 0.961 . S
H349 C341 0.960 . S
H350 C342 0.930 . S
H351 C343 0.929 . S
H352 C360 0.929 . S
H353 C362 0.930 . S
H354 C364 0.930 . S
H355 C367 0.929 . S
H356 C370 0.930 . S
H357 C372 0.960 . S
H358 C372 0.960 . S
H359 C372 0.960 . S
C360 H352 0.929 . S
C360 C361 1.377 . S
C360 C362 1.384 . S
C361 C360 1.377 . S
C361 C367 1.390 . S
C362 H353 0.930 . S
C362 C360 1.384 . S
C362 C363 1.372 . S
C363 C362 1.372 . S
C363 C364 1.400 . S
C363 C368 1.490 . S
C364 H354 0.930 . S
C364 C363 1.400 . S
C364 C367 1.386 . S
H365 C381 0.930 . S
H366 C382 0.931 . S
C367 H355 0.929 . S
C367 C361 1.390 . S
C367 C364 1.386 . S
C368 C363 1.490 . S
C368 C370 1.395 . S
C368 C371 1.403 . S
H369 C375 0.930 . S
C370 H356 0.930 . S
C370 C368 1.395 . S
C370 C373 1.403 . S
C371 C368 1.403 . S
C371 C372 1.524 . S
C371 C375 1.400 . S
C372 H357 0.960 . S
C372 H358 0.960 . S
C372 H359 0.960 . S
C372 C371 1.524 . S
C373 C370 1.403 . S
C373 C374 1.392 . S
C373 C377 1.495 . S
C374 C373 1.392 . S
C374 C375 1.385 . S
C374 C376 1.478 . S
C375 H369 0.930 . S
C375 C371 1.400 . S
C375 C374 1.385 . S
C376 C374 1.478 . S
C376 C378 1.381 . S
C376 C382 1.383 . S
C377 C373 1.495 . S
C377 H383 0.959 . S
C377 H384 0.961 . S
C377 H385 0.960 . S
C378 C376 1.381 . S
C378 C379 1.394 . S
C378 H386 0.930 . S
C379 C378 1.394 . S
C379 C380 1.383 . S
C379 H387 0.929 . S
C380 C379 1.383 . S
C380 C381 1.377 . S
C381 H365 0.930 . S
C381 C380 1.377 . S
C381 C382 1.379 . S
C382 H366 0.931 . S
C382 C376 1.383 . S
C382 C381 1.379 . S
H383 C377 0.959 . S
H384 C377 0.961 . S
H385 C377 0.960 . S
H386 C378 0.930 . S
H387 C379 0.929 . S
H388 C396 0.929 . S
H389 C398 0.930 . S
H390 C400 0.930 . S
H391 C403 0.929 . S
H392 C406 0.930 . S
H393 C408 0.960 . S
H394 C408 0.960 . S
H395 C408 0.960 . S
C396 H388 0.929 . S
C396 C397 1.377 . S
C396 C398 1.384 . S
C397 C396 1.377 . S
C397 C403 1.390 . S
C398 H389 0.930 . S
C398 C396 1.384 . S
C398 C399 1.372 . S
C399 C398 1.372 . S
C399 C400 1.400 . S
C399 C404 1.490 . S
C400 H390 0.930 . S
C400 C399 1.400 . S
C400 C403 1.386 . S
H401 C417 0.930 . S
H402 C418 0.931 . S
C403 H391 0.929 . S
C403 C397 1.390 . S
C403 C400 1.386 . S
C404 C399 1.490 . S
C404 C406 1.395 . S
C404 C407 1.403 . S
H405 C411 0.930 . S
C406 H392 0.930 . S
C406 C404 1.395 . S
C406 C409 1.403 . S
C407 C404 1.403 . S
C407 C408 1.524 . S
C407 C411 1.400 . S
C408 H393 0.960 . S
C408 H394 0.960 . S
C408 H395 0.960 . S
C408 C407 1.524 . S
C409 C406 1.403 . S
C409 C410 1.392 . S
C409 C413 1.495 . S
C410 C409 1.392 . S
C410 C411 1.385 . S
C410 C412 1.478 . S
C411 H405 0.930 . S
C411 C407 1.400 . S
C411 C410 1.385 . S
C412 C410 1.478 . S
C412 C414 1.381 . S
C412 C418 1.383 . S
C413 C409 1.495 . S
C413 H419 0.959 . S
C413 H420 0.961 . S
C413 H421 0.960 . S
C414 C412 1.381 . S
C414 C415 1.394 . S
C414 H422 0.930 . S
C415 C414 1.394 . S
C415 C416 1.383 . S
C415 H423 0.929 . S
C416 C415 1.383 . S
C416 C417 1.377 . S
C417 H401 0.930 . S
C417 C416 1.377 . S
C417 C418 1.379 . S
C418 H402 0.931 . S
C418 C412 1.383 . S
C418 C417 1.379 . S
H419 C413 0.959 . S
H420 C413 0.961 . S
H421 C413 0.960 . S
H422 C414 0.930 . S
H423 C415 0.929 . S
H424 C432 0.929 . S
H425 C434 0.930 . S
H426 C436 0.930 . S
H427 C439 0.929 . S
H428 C442 0.930 . S
H429 C444 0.960 . S
H430 C444 0.960 . S
H431 C444 0.960 . S
C432 H424 0.929 . S
C432 C433 1.377 . S
C432 C434 1.384 . S
C433 C432 1.377 . S
C433 C439 1.390 . S
C434 H425 0.930 . S
C434 C432 1.384 . S
C434 C435 1.372 . S
C435 C434 1.372 . S
C435 C436 1.400 . S
C435 C440 1.490 . S
C436 H426 0.930 . S
C436 C435 1.400 . S
C436 C439 1.386 . S
H437 C453 0.930 . S
H438 C454 0.931 . S
C439 H427 0.929 . S
C439 C433 1.390 . S
C439 C436 1.386 . S
C440 C435 1.490 . S
C440 C442 1.395 . S
C440 C443 1.403 . S
H441 C447 0.930 . S
C442 H428 0.930 . S
C442 C440 1.395 . S
C442 C445 1.403 . S
C443 C440 1.403 . S
C443 C444 1.524 . S
C443 C447 1.400 . S
C444 H429 0.960 . S
C444 H430 0.960 . S
C444 H431 0.960 . S
C444 C443 1.524 . S
C445 C442 1.403 . S
C445 C446 1.392 . S
C445 C449 1.495 . S
C446 C445 1.392 . S
C446 C447 1.385 . S
C446 C448 1.478 . S
C447 H441 0.930 . S
C447 C443 1.400 . S
C447 C446 1.385 . S
C448 C446 1.478 . S
C448 C450 1.381 . S
C448 C454 1.383 . S
C449 C445 1.495 . S
C449 H455 0.959 . S
C449 H456 0.961 . S
C449 H457 0.960 . S
C450 C448 1.381 . S
C450 C451 1.394 . S
C450 H458 0.930 . S
C451 C450 1.394 . S
C451 C452 1.383 . S
C451 H459 0.929 . S
C452 C451 1.383 . S
C452 C453 1.377 . S
C453 H437 0.930 . S
C453 C452 1.377 . S
C453 C454 1.379 . S
C454 H438 0.931 . S
C454 C448 1.383 . S
C454 C453 1.379 . S
H455 C449 0.959 . S
H456 C449 0.961 . S
H457 C449 0.960 . S
H458 C450 0.930 . S
H459 C451 0.929 . S
H460 C468 0.929 . S
H461 C470 0.930 . S
H462 C472 0.930 . S
H463 C475 0.929 . S
H464 C478 0.930 . S
H465 C480 0.960 . S
H466 C480 0.960 . S
H467 C480 0.960 . S
C468 H460 0.929 . S
C468 C469 1.377 . S
C468 C470 1.384 . S
C469 C468 1.377 . S
C469 C475 1.390 . S
C470 H461 0.930 . S
C470 C468 1.384 . S
C470 C471 1.372 . S
C471 C470 1.372 . S
C471 C472 1.400 . S
C471 C476 1.490 . S
C472 H462 0.930 . S
C472 C471 1.400 . S
C472 C475 1.386 . S
H473 C489 0.930 . S
H474 C490 0.931 . S
C475 H463 0.929 . S
C475 C469 1.390 . S
C475 C472 1.386 . S
C476 C471 1.490 . S
C476 C478 1.395 . S
C476 C479 1.403 . S
H477 C483 0.930 . S
C478 H464 0.930 . S
C478 C476 1.395 . S
C478 C481 1.403 . S
C479 C476 1.403 . S
C479 C480 1.524 . S
C479 C483 1.400 . S
C480 H465 0.960 . S
C480 H466 0.960 . S
C480 H467 0.960 . S
C480 C479 1.524 . S
C481 C478 1.403 . S
C481 C482 1.392 . S
C481 C485 1.495 . S
C482 C481 1.392 . S
C482 C483 1.385 . S
C482 C484 1.478 . S
C483 H477 0.930 . S
C483 C479 1.400 . S
C483 C482 1.385 . S
C484 C482 1.478 . S
C484 C486 1.381 . S
C484 C490 1.383 . S
C485 C481 1.495 . S
C485 H491 0.959 . S
C485 H492 0.961 . S
C485 H493 0.960 . S
C486 C484 1.381 . S
C486 C487 1.394 . S
C486 H494 0.930 . S
C487 C486 1.394 . S
C487 C488 1.383 . S
C487 H495 0.929 . S
C488 C487 1.383 . S
C488 C489 1.377 . S
C489 H473 0.930 . S
C489 C488 1.377 . S
C489 C490 1.379 . S
C490 H474 0.931 . S
C490 C484 1.383 . S
C490 C489 1.379 . S
H491 C485 0.959 . S
H492 C485 0.961 . S
H493 C485 0.960 . S
H494 C486 0.930 . S
H495 C487 0.929 . S
H496 C504 0.929 . S
H497 C506 0.930 . S
H498 C508 0.930 . S
H499 C511 0.929 . S
H500 C514 0.930 . S
H501 C516 0.960 . S
H502 C516 0.960 . S
H503 C516 0.960 . S
C504 H496 0.929 . S
C504 C505 1.377 . S
C504 C506 1.384 . S
C505 C504 1.377 . S
C505 C511 1.390 . S
C506 H497 0.930 . S
C506 C504 1.384 . S
C506 C507 1.372 . S
C507 C506 1.372 . S
C507 C508 1.400 . S
C507 C512 1.490 . S
C508 H498 0.930 . S
C508 C507 1.400 . S
C508 C511 1.386 . S
H509 C525 0.930 . S
H510 C526 0.931 . S
C511 H499 0.929 . S
C511 C505 1.390 . S
C511 C508 1.386 . S
C512 C507 1.490 . S
C512 C514 1.395 . S
C512 C515 1.403 . S
H513 C519 0.930 . S
C514 H500 0.930 . S
C514 C512 1.395 . S
C514 C517 1.403 . S
C515 C512 1.403 . S
C515 C516 1.524 . S
C515 C519 1.400 . S
C516 H501 0.960 . S
C516 H502 0.960 . S
C516 H503 0.960 . S
C516 C515 1.524 . S
C517 C514 1.403 . S
C517 C518 1.392 . S
C517 C521 1.495 . S
C518 C517 1.392 . S
C518 C519 1.385 . S
C518 C520 1.478 . S
C519 H513 0.930 . S
C519 C515 1.400 . S
C519 C518 1.385 . S
C520 C518 1.478 . S
C520 C522 1.381 . S
C520 C526 1.383 . S
C521 C517 1.495 . S
C521 H527 0.959 . S
C521 H528 0.961 . S
C521 H529 0.960 . S
C522 C520 1.381 . S
C522 C523 1.394 . S
C522 H530 0.930 . S
C523 C522 1.394 . S
C523 C524 1.383 . S
C523 H531 0.929 . S
C524 C523 1.383 . S
C524 C525 1.377 . S
C525 H509 0.930 . S
C525 C524 1.377 . S
C525 C526 1.379 . S
C526 H510 0.931 . S
C526 C520 1.383 . S
C526 C525 1.379 . S
H527 C521 0.959 . S
H528 C521 0.961 . S
H529 C521 0.960 . S
H530 C522 0.930 . S
H531 C523 0.929 . S
H532 C540 0.929 . S
H533 C542 0.930 . S
H534 C544 0.930 . S
H535 C547 0.929 . S
H536 C550 0.930 . S
H537 C552 0.960 . S
H538 C552 0.960 . S
H539 C552 0.960 . S
C540 H532 0.929 . S
C540 C541 1.377 . S
C540 C542 1.384 . S
C541 C540 1.377 . S
C541 C547 1.390 . S
C542 H533 0.930 . S
C542 C540 1.384 . S
C542 C543 1.372 . S
C543 C542 1.372 . S
C543 C544 1.400 . S
C543 C548 1.490 . S
C544 H534 0.930 . S
C544 C543 1.400 . S
C544 C547 1.386 . S
H545 C561 0.930 . S
H546 C562 0.931 . S
C547 H535 0.929 . S
C547 C541 1.390 . S
C547 C544 1.386 . S
C548 C543 1.490 . S
C548 C550 1.395 . S
C548 C551 1.403 . S
H549 C555 0.930 . S
C550 H536 0.930 . S
C550 C548 1.395 . S
C550 C553 1.403 . S
C551 C548 1.403 . S
C551 C552 1.524 . S
C551 C555 1.400 . S
C552 H537 0.960 . S
C552 H538 0.960 . S
C552 H539 0.960 . S
C552 C551 1.524 . S
C553 C550 1.403 . S
C553 C554 1.392 . S
C553 C557 1.495 . S
C554 C553 1.392 . S
C554 C555 1.385 . S
C554 C556 1.478 . S
C555 H549 0.930 . S
C555 C551 1.400 . S
C555 C554 1.385 . S
C556 C554 1.478 . S
C556 C558 1.381 . S
C556 C562 1.383 . S
C557 C553 1.495 . S
C557 H563 0.959 . S
C557 H564 0.961 . S
C557 H565 0.960 . S
C558 C556 1.381 . S
C558 C559 1.394 . S
C558 H566 0.930 . S
C559 C558 1.394 . S
C559 C560 1.383 . S
C559 H567 0.929 . S
C560 C559 1.383 . S
C560 C561 1.377 . S
C561 H545 0.930 . S
C561 C560 1.377 . S
C561 C562 1.379 . S
C562 H546 0.931 . S
C562 C556 1.383 . S
C562 C561 1.379 . S
H563 C557 0.959 . S
H564 C557 0.961 . S
H565 C557 0.960 . S
H566 C558 0.930 . S
H567 C559 0.929 . S
H568 C576 0.929 1_455 S
H569 C578 0.930 . S
H570 C580 0.930 . S
H571 C583 0.929 . S
H572 C586 0.930 . S
H573 C588 0.960 . S
H574 C588 0.960 . S
H575 C588 0.960 . S
C576 H568 0.929 1_655 S
C576 C577 1.377 . S
C576 C578 1.384 . S
C577 C576 1.377 . S
C577 C583 1.390 . S
C578 H569 0.930 . S
C578 C576 1.384 . S
C578 C579 1.372 . S
C579 C578 1.372 . S
C579 C580 1.400 . S
C579 C584 1.490 . S
C580 H570 0.930 . S
C580 C579 1.400 . S
C580 C583 1.386 . S
H581 C597 0.930 . S
H582 C598 0.931 . S
C583 H571 0.929 . S
C583 C577 1.390 . S
C583 C580 1.386 . S
C584 C579 1.490 . S
C584 C586 1.395 . S
C584 C587 1.403 . S
H585 C591 0.930 . S
C586 H572 0.930 . S
C586 C584 1.395 . S
C586 C589 1.403 . S
C587 C584 1.403 . S
C587 C588 1.524 . S
C587 C591 1.400 . S
C588 H573 0.960 . S
C588 H574 0.960 . S
C588 H575 0.960 . S
C588 C587 1.524 . S
C589 C586 1.403 . S
C589 C590 1.392 . S
C589 C593 1.495 . S
C590 C589 1.392 . S
C590 C591 1.385 . S
C590 C592 1.478 . S
C591 H585 0.930 . S
C591 C587 1.400 . S
C591 C590 1.385 . S
C592 C590 1.478 . S
C592 C594 1.381 . S
C592 C598 1.383 . S
C593 C589 1.495 . S
C593 H599 0.959 . S
C593 H600 0.961 . S
C593 H601 0.960 . S
C594 C592 1.381 . S
C594 C595 1.394 . S
C594 H602 0.930 . S
C595 C594 1.394 . S
C595 C596 1.383 . S
C595 H603 0.929 . S
C596 C595 1.383 . S
C596 C597 1.377 . S
C597 H581 0.930 . S
C597 C596 1.377 . S
C597 C598 1.379 . S
C598 H582 0.931 . S
C598 C592 1.383 . S
C598 C597 1.379 . S
H599 C593 0.959 . S
H600 C593 0.961 . S
H601 C593 0.960 . S
H602 C594 0.930 . S
H603 C595 0.929 . S
H604 C612 0.929 . S
H605 C614 0.930 . S
H606 C616 0.930 . S
H607 C619 0.929 1_545 S
H608 C622 0.930 . S
H609 C624 0.960 . S
H610 C624 0.960 . S
H611 C624 0.960 . S
C612 H604 0.929 . S
C612 C613 1.377 . S
C612 C614 1.384 . S
C613 C612 1.377 . S
C613 C619 1.390 . S
C614 H605 0.930 . S
C614 C612 1.384 . S
C614 C615 1.372 . S
C615 C614 1.372 . S
C615 C616 1.400 . S
C615 C620 1.490 . S
C616 H606 0.930 . S
C616 C615 1.400 . S
C616 C619 1.386 . S
H617 C633 0.930 . S
H618 C634 0.931 . S
C619 H607 0.929 1_565 S
C619 C613 1.390 . S
C619 C616 1.386 . S
C620 C615 1.490 . S
C620 C622 1.395 . S
C620 C623 1.403 . S
H621 C627 0.930 . S
C622 H608 0.930 . S
C622 C620 1.395 . S
C622 C625 1.403 . S
C623 C620 1.403 . S
C623 C624 1.524 . S
C623 C627 1.400 . S
C624 H609 0.960 . S
C624 H610 0.960 . S
C624 H611 0.960 . S
C624 C623 1.524 . S
C625 C622 1.403 . S
C625 C626 1.392 . S
C625 C629 1.495 . S
C626 C625 1.392 . S
C626 C627 1.385 . S
C626 C628 1.478 . S
C627 H621 0.930 . S
C627 C623 1.400 . S
C627 C626 1.385 . S
C628 C626 1.478 . S
C628 C630 1.381 . S
C628 C634 1.383 . S
C629 C625 1.495 . S
C629 H635 0.959 . S
C629 H636 0.961 . S
C629 H637 0.960 . S
C630 C628 1.381 . S
C630 C631 1.394 . S
C630 H638 0.930 . S
C631 C630 1.394 . S
C631 C632 1.383 . S
C631 H639 0.929 . S
C632 C631 1.383 . S
C632 C633 1.377 . S
C633 H617 0.930 . S
C633 C632 1.377 . S
C633 C634 1.379 . S
C634 H618 0.931 . S
C634 C628 1.383 . S
C634 C633 1.379 . S
H635 C629 0.959 . S
H636 C629 0.961 . S
H637 C629 0.960 . S
H638 C630 0.930 . S
H639 C631 0.929 . S
H640 C648 0.929 . S
H641 C650 0.930 . S
H642 C652 0.930 . S
H643 C655 0.929 . S
H644 C658 0.930 . S
H645 C660 0.960 . S
H646 C660 0.960 . S
H647 C660 0.960 . S
C648 H640 0.929 . S
C648 C649 1.377 . S
C648 C650 1.384 . S
C649 C648 1.377 . S
C649 C655 1.390 . S
C650 H641 0.930 . S
C650 C648 1.384 . S
C650 C651 1.372 . S
C651 C650 1.372 . S
C651 C652 1.400 . S
C651 C656 1.490 . S
C652 H642 0.930 . S
C652 C651 1.400 . S
C652 C655 1.386 . S
H653 C669 0.930 . S
H654 C670 0.931 . S
C655 H643 0.929 . S
C655 C649 1.390 . S
C655 C652 1.386 . S
C656 C651 1.490 . S
C656 C658 1.395 . S
C656 C659 1.403 . S
H657 C663 0.930 . S
C658 H644 0.930 . S
C658 C656 1.395 . S
C658 C661 1.403 . S
C659 C656 1.403 . S
C659 C660 1.524 . S
C659 C663 1.400 . S
C660 H645 0.960 . S
C660 H646 0.960 . S
C660 H647 0.960 . S
C660 C659 1.524 . S
C661 C658 1.403 . S
C661 C662 1.392 . S
C661 C665 1.495 . S
C662 C661 1.392 . S
C662 C663 1.385 . S
C662 C664 1.478 . S
C663 H657 0.930 . S
C663 C659 1.400 . S
C663 C662 1.385 . S
C664 C662 1.478 . S
C664 C666 1.381 . S
C664 C670 1.383 . S
C665 C661 1.495 . S
C665 H671 0.959 . S
C665 H672 0.961 . S
C665 H673 0.960 . S
C666 C664 1.381 . S
C666 C667 1.394 . S
C666 H674 0.930 . S
C667 C666 1.394 . S
C667 C668 1.383 . S
C667 H675 0.929 . S
C668 C667 1.383 . S
C668 C669 1.377 . S
C669 H653 0.930 . S
C669 C668 1.377 . S
C669 C670 1.379 . S
C670 H654 0.931 . S
C670 C664 1.383 . S
C670 C669 1.379 . S
H671 C665 0.959 . S
H672 C665 0.961 . S
H673 C665 0.960 . S
H674 C666 0.930 . S
H675 C667 0.929 . S
H676 C684 0.929 . S
H677 C686 0.930 . S
H678 C688 0.930 . S
H679 C691 0.929 . S
H680 C694 0.930 . S
H681 C696 0.960 . S
H682 C696 0.960 . S
H683 C696 0.960 . S
C684 H676 0.929 . S
C684 C685 1.377 . S
C684 C686 1.384 . S
C685 C684 1.377 . S
C685 C691 1.390 . S
C686 H677 0.930 . S
C686 C684 1.384 . S
C686 C687 1.372 . S
C687 C686 1.372 . S
C687 C688 1.400 . S
C687 C692 1.490 . S
C688 H678 0.930 . S
C688 C687 1.400 . S
C688 C691 1.386 . S
H689 C705 0.930 . S
H690 C706 0.931 . S
C691 H679 0.929 . S
C691 C685 1.390 . S
C691 C688 1.386 . S
C692 C687 1.490 . S
C692 C694 1.395 . S
C692 C695 1.403 . S
H693 C699 0.930 . S
C694 H680 0.930 . S
C694 C692 1.395 . S
C694 C697 1.403 . S
C695 C692 1.403 . S
C695 C696 1.524 . S
C695 C699 1.400 . S
C696 H681 0.960 . S
C696 H682 0.960 . S
C696 H683 0.960 . S
C696 C695 1.524 . S
C697 C694 1.403 . S
C697 C698 1.392 . S
C697 C701 1.495 . S
C698 C697 1.392 . S
C698 C699 1.385 . S
C698 C700 1.478 . S
C699 H693 0.930 . S
C699 C695 1.400 . S
C699 C698 1.385 . S
C700 C698 1.478 . S
C700 C702 1.381 . S
C700 C706 1.383 . S
C701 C697 1.495 . S
C701 H707 0.959 . S
C701 H708 0.961 . S
C701 H709 0.960 . S
C702 C700 1.381 . S
C702 C703 1.394 . S
C702 H710 0.930 . S
C703 C702 1.394 . S
C703 C704 1.383 . S
C703 H711 0.929 . S
C704 C703 1.383 . S
C704 C705 1.377 . S
C705 H689 0.930 . S
C705 C704 1.377 . S
C705 C706 1.379 . S
C706 H690 0.931 . S
C706 C700 1.383 . S
C706 C705 1.379 . S
H707 C701 0.959 . S
H708 C701 0.961 . S
H709 C701 0.960 . S
H710 C702 0.930 . S
H711 C703 0.929 . S
H712 C720 0.929 . S
H713 C722 0.930 . S
H714 C724 0.930 . S
H715 C727 0.929 . S
H716 C730 0.930 . S
H717 C732 0.960 . S
H718 C732 0.960 . S
H719 C732 0.960 . S
C720 H712 0.929 . S
C720 C721 1.377 . S
C720 C722 1.384 . S
C721 C720 1.377 . S
C721 C727 1.390 . S
C722 H713 0.930 . S
C722 C720 1.384 . S
C722 C723 1.372 . S
C723 C722 1.372 . S
C723 C724 1.400 . S
C723 C728 1.490 . S
C724 H714 0.930 . S
C724 C723 1.400 . S
C724 C727 1.386 . S
H725 C741 0.930 . S
H726 C742 0.931 . S
C727 H715 0.929 . S
C727 C721 1.390 . S
C727 C724 1.386 . S
C728 C723 1.490 . S
C728 C730 1.395 . S
C728 C731 1.403 . S
H729 C735 0.930 . S
C730 H716 0.930 . S
C730 C728 1.395 . S
C730 C733 1.403 . S
C731 C728 1.403 . S
C731 C732 1.524 . S
C731 C735 1.400 . S
C732 H717 0.960 . S
C732 H718 0.960 . S
C732 H719 0.960 . S
C732 C731 1.524 . S
C733 C730 1.403 . S
C733 C734 1.392 . S
C733 C737 1.495 . S
C734 C733 1.392 . S
C734 C735 1.385 . S
C734 C736 1.478 . S
C735 H729 0.930 . S
C735 C731 1.400 . S
C735 C734 1.385 . S
C736 C734 1.478 . S
C736 C738 1.381 . S
C736 C742 1.383 . S
C737 C733 1.495 . S
C737 H743 0.959 . S
C737 H744 0.961 . S
C737 H745 0.960 . S
C738 C736 1.381 . S
C738 C739 1.394 . S
C738 H746 0.930 . S
C739 C738 1.394 . S
C739 C740 1.383 . S
C739 H747 0.929 . S
C740 C739 1.383 . S
C740 C741 1.377 . S
C741 H725 0.930 . S
C741 C740 1.377 . S
C741 C742 1.379 . S
C742 H726 0.931 . S
C742 C736 1.383 . S
C742 C741 1.379 . S
H743 C737 0.959 . S
H744 C737 0.961 . S
H745 C737 0.960 . S
H746 C738 0.930 . S
H747 C739 0.929 . S
H748 C756 0.929 . S
H749 C758 0.930 . S
H750 C760 0.930 . S
H751 C763 0.929 . S
H752 C766 0.930 . S
H753 C768 0.960 . S
H754 C768 0.960 . S
H755 C768 0.960 . S
C756 H748 0.929 . S
C756 C757 1.377 . S
C756 C758 1.384 . S
C757 C756 1.377 . S
C757 C763 1.390 . S
C758 H749 0.930 . S
C758 C756 1.384 . S
C758 C759 1.372 . S
C759 C758 1.372 . S
C759 C760 1.400 . S
C759 C764 1.490 . S
C760 H750 0.930 . S
C760 C759 1.400 . S
C760 C763 1.386 . S
H761 C777 0.930 . S
H762 C778 0.931 . S
C763 H751 0.929 . S
C763 C757 1.390 . S
C763 C760 1.386 . S
C764 C759 1.490 . S
C764 C766 1.395 . S
C764 C767 1.403 . S
H765 C771 0.930 . S
C766 H752 0.930 . S
C766 C764 1.395 . S
C766 C769 1.403 . S
C767 C764 1.403 . S
C767 C768 1.524 . S
C767 C771 1.400 . S
C768 H753 0.960 . S
C768 H754 0.960 . S
C768 H755 0.960 . S
C768 C767 1.524 . S
C769 C766 1.403 . S
C769 C770 1.392 . S
C769 C773 1.495 . S
C770 C769 1.392 . S
C770 C771 1.385 . S
C770 C772 1.478 . S
C771 H765 0.930 . S
C771 C767 1.400 . S
C771 C770 1.385 . S
C772 C770 1.478 . S
C772 C774 1.381 . S
C772 C778 1.383 . S
C773 C769 1.495 . S
C773 H779 0.959 . S
C773 H780 0.961 . S
C773 H781 0.960 . S
C774 C772 1.381 . S
C774 C775 1.394 . S
C774 H782 0.930 . S
C775 C774 1.394 . S
C775 C776 1.383 . S
C775 H783 0.929 . S
C776 C775 1.383 . S
C776 C777 1.377 . S
C777 H761 0.930 . S
C777 C776 1.377 . S
C777 C778 1.379 . S
C778 H762 0.931 . S
C778 C772 1.383 . S
C778 C777 1.379 . S
H779 C773 0.959 . S
H780 C773 0.961 . S
H781 C773 0.960 . S
H782 C774 0.930 . S
H783 C775 0.929 . S
H784 C792 0.929 . S
H785 C794 0.930 . S
H786 C796 0.930 . S
H787 C799 0.929 . S
H788 C802 0.930 . S
H789 C804 0.960 . S
H790 C804 0.960 . S
H791 C804 0.960 . S
C792 H784 0.929 . S
C792 C793 1.377 . S
C792 C794 1.384 . S
C793 C792 1.377 . S
C793 C799 1.390 . S
C794 H785 0.930 . S
C794 C792 1.384 . S
C794 C795 1.372 . S
C795 C794 1.372 . S
C795 C796 1.400 . S
C795 C800 1.490 . S
C796 H786 0.930 . S
C796 C795 1.400 . S
C796 C799 1.386 . S
H797 C813 0.930 . S
H798 C814 0.931 . S
C799 H787 0.929 . S
C799 C793 1.390 . S
C799 C796 1.386 . S
C800 C795 1.490 . S
C800 C802 1.395 . S
C800 C803 1.403 . S
H801 C807 0.930 . S
C802 H788 0.930 . S
C802 C800 1.395 . S
C802 C805 1.403 . S
C803 C800 1.403 . S
C803 C804 1.524 . S
C803 C807 1.400 . S
C804 H789 0.960 . S
C804 H790 0.960 . S
C804 H791 0.960 . S
C804 C803 1.524 . S
C805 C802 1.403 . S
C805 C806 1.392 . S
C805 C809 1.495 . S
C806 C805 1.392 . S
C806 C807 1.385 . S
C806 C808 1.478 . S
C807 H801 0.930 . S
C807 C803 1.400 . S
C807 C806 1.385 . S
C808 C806 1.478 . S
C808 C810 1.381 . S
C808 C814 1.383 . S
C809 C805 1.495 . S
C809 H815 0.959 . S
C809 H816 0.961 . S
C809 H817 0.960 . S
C810 C808 1.381 . S
C810 C811 1.394 . S
C810 H818 0.930 . S
C811 C810 1.394 . S
C811 C812 1.383 . S
C811 H819 0.929 . S
C812 C811 1.383 . S
C812 C813 1.377 . S
C813 H797 0.930 . S
C813 C812 1.377 . S
C813 C814 1.379 . S
C814 H798 0.931 . S
C814 C808 1.383 . S
C814 C813 1.379 . S
H815 C809 0.959 . S
H816 C809 0.961 . S
H817 C809 0.960 . S
H818 C810 0.930 . S
H819 C811 0.929 . S
H820 C828 0.929 . S
H821 C830 0.930 . S
H822 C832 0.930 . S
H823 C835 0.929 . S
H824 C838 0.930 . S
H825 C840 0.960 . S
H826 C840 0.960 . S
H827 C840 0.960 . S
C828 H820 0.929 . S
C828 C829 1.377 . S
C828 C830 1.384 . S
C829 C828 1.377 . S
C829 C835 1.390 . S
C830 H821 0.930 . S
C830 C828 1.384 . S
C830 C831 1.372 . S
C831 C830 1.372 . S
C831 C832 1.400 . S
C831 C836 1.490 . S
C832 H822 0.930 . S
C832 C831 1.400 . S
C832 C835 1.386 . S
H833 C849 0.930 . S
H834 C850 0.931 . S
C835 H823 0.929 . S
C835 C829 1.390 . S
C835 C832 1.386 . S
C836 C831 1.490 . S
C836 C838 1.395 . S
C836 C839 1.403 . S
H837 C843 0.930 . S
C838 H824 0.930 . S
C838 C836 1.395 . S
C838 C841 1.403 . S
C839 C836 1.403 . S
C839 C840 1.524 . S
C839 C843 1.400 . S
C840 H825 0.960 . S
C840 H826 0.960 . S
C840 H827 0.960 . S
C840 C839 1.524 . S
C841 C838 1.403 . S
C841 C842 1.392 . S
C841 C845 1.495 . S
C842 C841 1.392 . S
C842 C843 1.385 . S
C842 C844 1.478 . S
C843 H837 0.930 . S
C843 C839 1.400 . S
C843 C842 1.385 . S
C844 C842 1.478 . S
C844 C846 1.381 . S
C844 C850 1.383 . S
C845 C841 1.495 . S
C845 H851 0.959 . S
C845 H852 0.961 . S
C845 H853 0.960 . S
C846 C844 1.381 . S
C846 C847 1.394 . S
C846 H854 0.930 . S
C847 C846 1.394 . S
C847 C848 1.383 . S
C847 H855 0.929 . S
C848 C847 1.383 . S
C848 C849 1.377 . S
C849 H833 0.930 . S
C849 C848 1.377 . S
C849 C850 1.379 . S
C850 H834 0.931 . S
C850 C844 1.383 . S
C850 C849 1.379 . S
H851 C845 0.959 . S
H852 C845 0.961 . S
H853 C845 0.960 . S
H854 C846 0.930 . S
H855 C847 0.929 . S
H856 C864 0.929 . S
H857 C866 0.930 . S
H858 C868 0.930 . S
H859 C871 0.929 . S
H860 C874 0.930 . S
H861 C876 0.960 . S
H862 C876 0.960 . S
H863 C876 0.960 . S
C864 H856 0.929 . S
C864 C865 1.377 . S
C864 C866 1.384 . S
C865 C864 1.377 . S
C865 C871 1.390 . S
C866 H857 0.930 . S
C866 C864 1.384 . S
C866 C867 1.372 . S
C867 C866 1.372 . S
C867 C868 1.400 . S
C867 C872 1.490 . S
C868 H858 0.930 . S
C868 C867 1.400 . S
C868 C871 1.386 . S
H869 C885 0.930 . S
H870 C886 0.931 . S
C871 H859 0.929 . S
C871 C865 1.390 . S
C871 C868 1.386 . S
C872 C867 1.490 . S
C872 C874 1.395 . S
C872 C875 1.403 . S
H873 C879 0.930 . S
C874 H860 0.930 . S
C874 C872 1.395 . S
C874 C877 1.403 . S
C875 C872 1.403 . S
C875 C876 1.524 . S
C875 C879 1.400 . S
C876 H861 0.960 . S
C876 H862 0.960 . S
C876 H863 0.960 . S
C876 C875 1.524 . S
C877 C874 1.403 . S
C877 C878 1.392 . S
C877 C881 1.495 . S
C878 C877 1.392 . S
C878 C879 1.385 . S
C878 C880 1.478 . S
C879 H873 0.930 . S
C879 C875 1.400 . S
C879 C878 1.385 . S
C880 C878 1.478 . S
C880 C882 1.381 . S
C880 C886 1.383 . S
C881 C877 1.495 . S
C881 H887 0.959 . S
C881 H888 0.961 . S
C881 H889 0.960 . S
C882 C880 1.381 . S
C882 C883 1.394 . S
C882 H890 0.930 . S
C883 C882 1.394 . S
C883 C884 1.383 . S
C883 H891 0.929 . S
C884 C883 1.383 . S
C884 C885 1.377 . S
C885 H869 0.930 . S
C885 C884 1.377 . S
C885 C886 1.379 . S
C886 H870 0.931 . S
C886 C880 1.383 . S
C886 C885 1.379 . S
H887 C881 0.959 . S
H888 C881 0.961 . S
H889 C881 0.960 . S
H890 C882 0.930 . S
H891 C883 0.929 . S
H892 C900 0.929 . S
H893 C902 0.930 . S
H894 C904 0.930 . S
H895 C907 0.929 . S
H896 C910 0.930 . S
H897 C912 0.960 . S
H898 C912 0.960 . S
H899 C912 0.960 . S
C900 H892 0.929 . S
C900 C901 1.377 . S
C900 C902 1.384 . S
C901 C900 1.377 . S
C901 C907 1.390 . S
C902 H893 0.930 . S
C902 C900 1.384 . S
C902 C903 1.372 . S
C903 C902 1.372 . S
C903 C904 1.400 . S
C903 C908 1.490 . S
C904 H894 0.930 . S
C904 C903 1.400 . S
C904 C907 1.386 . S
H905 C921 0.930 . S
H906 C922 0.931 . S
C907 H895 0.929 . S
C907 C901 1.390 . S
C907 C904 1.386 . S
C908 C903 1.490 . S
C908 C910 1.395 . S
C908 C911 1.403 . S
H909 C915 0.930 . S
C910 H896 0.930 . S
C910 C908 1.395 . S
C910 C913 1.403 . S
C911 C908 1.403 . S
C911 C912 1.524 . S
C911 C915 1.400 . S
C912 H897 0.960 . S
C912 H898 0.960 . S
C912 H899 0.960 . S
C912 C911 1.524 . S
C913 C910 1.403 . S
C913 C914 1.392 . S
C913 C917 1.495 . S
C914 C913 1.392 . S
C914 C915 1.385 . S
C914 C916 1.478 . S
C915 H909 0.930 . S
C915 C911 1.400 . S
C915 C914 1.385 . S
C916 C914 1.478 . S
C916 C918 1.381 . S
C916 C922 1.383 . S
C917 C913 1.495 . S
C917 H923 0.959 . S
C917 H924 0.961 . S
C917 H925 0.960 . S
C918 C916 1.381 . S
C918 C919 1.394 . S
C918 H926 0.930 . S
C919 C918 1.394 . S
C919 C920 1.383 . S
C919 H927 0.929 . S
C920 C919 1.383 . S
C920 C921 1.377 . S
C921 H905 0.930 . S
C921 C920 1.377 . S
C921 C922 1.379 . S
C922 H906 0.931 . S
C922 C916 1.383 . S
C922 C921 1.379 . S
H923 C917 0.959 . S
H924 C917 0.961 . S
H925 C917 0.960 . S
H926 C918 0.930 . S
H927 C919 0.929 . S
H928 C936 0.929 . S
H929 C938 0.930 . S
H930 C940 0.930 . S
H931 C943 0.929 . S
H932 C946 0.930 . S
H933 C948 0.960 . S
H934 C948 0.960 . S
H935 C948 0.960 . S
C936 H928 0.929 . S
C936 C937 1.377 . S
C936 C938 1.384 . S
C937 C936 1.377 . S
C937 C943 1.390 . S
C938 H929 0.930 . S
C938 C936 1.384 . S
C938 C939 1.372 . S
C939 C938 1.372 . S
C939 C940 1.400 . S
C939 C944 1.490 . S
C940 H930 0.930 . S
C940 C939 1.400 . S
C940 C943 1.386 . S
H941 C957 0.930 . S
H942 C958 0.931 . S
C943 H931 0.929 . S
C943 C937 1.390 . S
C943 C940 1.386 . S
C944 C939 1.490 . S
C944 C946 1.395 . S
C944 C947 1.403 . S
H945 C951 0.930 . S
C946 H932 0.930 . S
C946 C944 1.395 . S
C946 C949 1.403 . S
C947 C944 1.403 . S
C947 C948 1.524 . S
C947 C951 1.400 . S
C948 H933 0.960 . S
C948 H934 0.960 . S
C948 H935 0.960 . S
C948 C947 1.524 . S
C949 C946 1.403 . S
C949 C950 1.392 . S
C949 C953 1.495 . S
C950 C949 1.392 . S
C950 C951 1.385 . S
C950 C952 1.478 . S
C951 H945 0.930 . S
C951 C947 1.400 . S
C951 C950 1.385 . S
C952 C950 1.478 . S
C952 C954 1.381 . S
C952 C958 1.383 . S
C953 C949 1.495 . S
C953 H959 0.959 . S
C953 H960 0.961 . S
C953 H961 0.960 . S
C954 C952 1.381 . S
C954 C955 1.394 . S
C954 H962 0.930 . S
C955 C954 1.394 . S
C955 C956 1.383 . S
C955 H963 0.929 . S
C956 C955 1.383 . S
C956 C957 1.377 . S
C957 H941 0.930 . S
C957 C956 1.377 . S
C957 C958 1.379 . S
C958 H942 0.931 . S
C958 C952 1.383 . S
C958 C957 1.379 . S
H959 C953 0.959 . S
H960 C953 0.961 . S
H961 C953 0.960 . S
H962 C954 0.930 . S
H963 C955 0.929 . S
H964 C972 0.929 . S
H965 C974 0.930 . S
H966 C976 0.930 . S
H967 C979 0.929 . S
H968 C982 0.930 . S
H969 C984 0.960 . S
H970 C984 0.960 . S
H971 C984 0.960 . S
C972 H964 0.929 . S
C972 C973 1.377 . S
C972 C974 1.384 . S
C973 C972 1.377 . S
C973 C979 1.390 . S
C974 H965 0.930 . S
C974 C972 1.384 . S
C974 C975 1.372 . S
C975 C974 1.372 . S
C975 C976 1.400 . S
C975 C980 1.490 . S
C976 H966 0.930 . S
C976 C975 1.400 . S
C976 C979 1.386 . S
H977 C993 0.930 . S
H978 C994 0.931 . S
C979 H967 0.929 . S
C979 C973 1.390 . S
C979 C976 1.386 . S
C980 C975 1.490 . S
C980 C982 1.395 . S
C980 C983 1.403 . S
H981 C987 0.930 . S
C982 H968 0.930 . S
C982 C980 1.395 . S
C982 C985 1.403 . S
C983 C980 1.403 . S
C983 C984 1.524 . S
C983 C987 1.400 . S
C984 H969 0.960 . S
C984 H970 0.960 . S
C984 H971 0.960 . S
C984 C983 1.524 . S
C985 C982 1.403 . S
C985 C986 1.392 . S
C985 C989 1.495 . S
C986 C985 1.392 . S
C986 C987 1.385 . S
C986 C988 1.478 . S
C987 H981 0.930 . S
C987 C983 1.400 . S
C987 C986 1.385 . S
C988 C986 1.478 . S
C988 C990 1.381 . S
C988 C994 1.383 . S
C989 C985 1.495 . S
C989 H995 0.959 . S
C989 H996 0.961 . S
C989 H997 0.960 . S
C990 C988 1.381 . S
C990 C991 1.394 . S
C990 H998 0.930 . S
C991 C990 1.394 . S
C991 C992 1.383 . S
C991 H999 0.929 . S
C992 C991 1.383 . S
C992 C993 1.377 . S
C993 H977 0.930 . S
C993 C992 1.377 . S
C993 C994 1.379 . S
C994 H978 0.931 . S
C994 C988 1.383 . S
C994 C993 1.379 . S
H995 C989 0.959 . S
H996 C989 0.961 . S
H997 C989 0.960 . S
H998 C990 0.930 . S
H999 C991 0.929 . S
H1000 C1008 0.929 . S
H1001 C1010 0.930 . S
H1002 C1012 0.930 . S
H1003 C1015 0.929 . S
H1004 C1018 0.930 . S
H1005 C1020 0.960 . S
H1006 C1020 0.960 . S
H1007 C1020 0.960 . S
C1008 H1000 0.929 . S
C1008 C1009 1.377 . S
C1008 C1010 1.384 . S
C1009 C1008 1.377 . S
C1009 C1015 1.390 . S
C1010 H1001 0.930 . S
C1010 C1008 1.384 . S
C1010 C1011 1.372 . S
C1011 C1010 1.372 . S
C1011 C1012 1.400 . S
C1011 C1016 1.490 . S
C1012 H1002 0.930 . S
C1012 C1011 1.400 . S
C1012 C1015 1.386 . S
H1013 C1029 0.930 . S
H1014 C1030 0.931 . S
C1015 H1003 0.929 . S
C1015 C1009 1.390 . S
C1015 C1012 1.386 . S
C1016 C1011 1.490 . S
C1016 C1018 1.395 . S
C1016 C1019 1.403 . S
H1017 C1023 0.930 . S
C1018 H1004 0.930 . S
C1018 C1016 1.395 . S
C1018 C1021 1.403 . S
C1019 C1016 1.403 . S
C1019 C1020 1.524 . S
C1019 C1023 1.400 . S
C1020 H1005 0.960 . S
C1020 H1006 0.960 . S
C1020 H1007 0.960 . S
C1020 C1019 1.524 . S
C1021 C1018 1.403 . S
C1021 C1022 1.392 . S
C1021 C1025 1.495 . S
C1022 C1021 1.392 . S
C1022 C1023 1.385 . S
C1022 C1024 1.478 . S
C1023 H1017 0.930 . S
C1023 C1019 1.400 . S
C1023 C1022 1.385 . S
C1024 C1022 1.478 . S
C1024 C1026 1.381 . S
C1024 C1030 1.383 . S
C1025 C1021 1.495 . S
C1025 H1031 0.959 . S
C1025 H1032 0.961 . S
C1025 H1033 0.960 . S
C1026 C1024 1.381 . S
C1026 C1027 1.394 . S
C1026 H1034 0.930 . S
C1027 C1026 1.394 . S
C1027 C1028 1.383 . S
C1027 H1035 0.929 . S
C1028 C1027 1.383 . S
C1028 C1029 1.377 . S
C1029 H1013 0.930 . S
C1029 C1028 1.377 . S
C1029 C1030 1.379 . S
C1030 H1014 0.931 . S
C1030 C1024 1.383 . S
C1030 C1029 1.379 . S
H1031 C1025 0.959 . S
H1032 C1025 0.961 . S
H1033 C1025 0.960 . S
H1034 C1026 0.930 . S
H1035 C1027 0.929 . S
H1036 C1044 0.929 . S
H1037 C1046 0.930 . S
H1038 C1048 0.930 . S
H1039 C1051 0.929 . S
H1040 C1054 0.930 . S
H1041 C1056 0.960 . S
H1042 C1056 0.960 . S
H1043 C1056 0.960 . S
C1044 H1036 0.929 . S
C1044 C1045 1.377 . S
C1044 C1046 1.384 . S
C1045 C1044 1.377 . S
C1045 C1051 1.390 . S
C1046 H1037 0.930 . S
C1046 C1044 1.384 . S
C1046 C1047 1.372 . S
C1047 C1046 1.372 . S
C1047 C1048 1.400 . S
C1047 C1052 1.490 . S
C1048 H1038 0.930 . S
C1048 C1047 1.400 . S
C1048 C1051 1.386 . S
H1049 C1065 0.930 . S
H1050 C1066 0.931 . S
C1051 H1039 0.929 . S
C1051 C1045 1.390 . S
C1051 C1048 1.386 . S
C1052 C1047 1.490 . S
C1052 C1054 1.395 . S
C1052 C1055 1.403 . S
H1053 C1059 0.930 . S
C1054 H1040 0.930 . S
C1054 C1052 1.395 . S
C1054 C1057 1.403 . S
C1055 C1052 1.403 . S
C1055 C1056 1.524 . S
C1055 C1059 1.400 . S
C1056 H1041 0.960 . S
C1056 H1042 0.960 . S
C1056 H1043 0.960 . S
C1056 C1055 1.524 . S
C1057 C1054 1.403 . S
C1057 C1058 1.392 . S
C1057 C1061 1.495 . S
C1058 C1057 1.392 . S
C1058 C1059 1.385 . S
C1058 C1060 1.478 . S
C1059 H1053 0.930 . S
C1059 C1055 1.400 . S
C1059 C1058 1.385 . S
C1060 C1058 1.478 . S
C1060 C1062 1.381 . S
C1060 C1066 1.383 . S
C1061 C1057 1.495 . S
C1061 H1067 0.959 . S
C1061 H1068 0.961 . S
C1061 H1069 0.960 . S
C1062 C1060 1.381 . S
C1062 C1063 1.394 . S
C1062 H1070 0.930 . S
C1063 C1062 1.394 . S
C1063 C1064 1.383 . S
C1063 H1071 0.929 . S
C1064 C1063 1.383 . S
C1064 C1065 1.377 . S
C1065 H1049 0.930 . S
C1065 C1064 1.377 . S
C1065 C1066 1.379 . S
C1066 H1050 0.931 . S
C1066 C1060 1.383 . S
C1066 C1065 1.379 . S
H1067 C1061 0.959 . S
H1068 C1061 0.961 . S
H1069 C1061 0.960 . S
H1070 C1062 0.930 . S
H1071 C1063 0.929 . S
C217 C45 1.558 . S
C236 N106 1.558 . S
C253 C30 1.557 . S
C272 N119 1.566 . S
C289 C39 1.560 . S
C308 N132 1.545 . S
C344 N145 1.555 . S
C325 C34 1.562 . S
C361 C97 1.560 . S
C380 N158 1.573 . S
C416 N171 1.569 . S
C397 C82 1.559 . S
C452 N184 1.544 . S
C433 C91 1.559 . S
C488 N197 1.544 . S
C469 C86 1.559 . S
C524 N187 1.526 . S
C505 C26 1.504 . S
C560 N200 1.534 . S
C541 C36 1.503 . S
C596 N157 1.550 . S
C577 C32 1.500 . S
C632 N174 1.528 . S
C613 C42 1.513 . S
C649 C18 1.575 . S
C668 N170 1.607 . S
C704 N183 1.631 . S
C685 C50 1.583 . S
C721 C4 1.580 . S
C740 N196 1.623 . S
C757 C48 1.582 . S
C776 N161 1.638 . S
C812 N135 1.538 . S
C793 C78 1.509 . S
C829 C88 1.507 . S
C848 N148 1.524 . S
C884 N105 1.556 . S
C865 C84 1.500 . S
C920 N118 1.544 . S
C901 C94 1.503 . S
C956 N122 1.640 . S
C937 C70 1.583 . S
C992 N131 1.631 . S
C973 C102 1.583 . S
C1009 C56 1.582 . S
C1028 N144 1.628 . S
C1045 C100 1.572 . S
C1064 N109 1.611 . S
