# Generated by pormake.
# Topology sit, (3,6)-cn, num edge types: 1
# Building blocks:
#     Node 0, Type 0, BuildingBlock: BETDAH_clean_linker_0, # of connection points: 3
#     Node 1, Type 0, BuildingBlock: BETDAH_clean_linker_0, # of connection points: 3
#     Node 2, Type 0, BuildingBlock: BETDAH_clean_linker_0, # of connection points: 3
#     Node 3, Type 0, BuildingBlock: BETDAH_clean_linker_0, # of connection points: 3
#     Node 4, Type 1, BuildingBlock: MIDCAF_clean_sbu_0, # of connection points: 6
#     Node 5, Type 1, BuildingBlock: MIDCAF_clean_sbu_0, # of connection points: 6
#     Edge 6, Type (0, 1), BuildingBlock: XUDNAN_clean_linker_2, # of connection points: 2
#     Edge 7, Type (0, 1), BuildingBlock: XUDNAN_clean_linker_2, # of connection points: 2
#     Edge 8, Type (0, 1), BuildingBlock: XUDNAN_clean_linker_2, # of connection points: 2
#     Edge 9, Type (0, 1), BuildingBlock: XUDNAN_clean_linker_2, # of connection points: 2
#     Edge 10, Type (0, 1), BuildingBlock: XUDNAN_clean_linker_2, # of connection points: 2
#     Edge 11, Type (0, 1), BuildingBlock: XUDNAN_clean_linker_2, # of connection points: 2
#     Edge 12, Type (0, 1), BuildingBlock: XUDNAN_clean_linker_2, # of connection points: 2
#     Edge 13, Type (0, 1), BuildingBlock: XUDNAN_clean_linker_2, # of connection points: 2
#     Edge 14, Type (0, 1), BuildingBlock: XUDNAN_clean_linker_2, # of connection points: 2
#     Edge 15, Type (0, 1), BuildingBlock: XUDNAN_clean_linker_2, # of connection points: 2
#     Edge 16, Type (0, 1), BuildingBlock: XUDNAN_clean_linker_2, # of connection points: 2
#     Edge 17, Type (0, 1), BuildingBlock: XUDNAN_clean_linker_2, # of connection points: 2
# Relax obj value: 0.072
# Max RMSD: 0.181
# Mean RMSD: 0.109
data_MOF--net-sit--node1-MIDCAF_clean_sbu_0--node2-BETDAH_clean_linker_0--edge1-XUDNAN_clean_linker_2
_symmetry_space_group_name_H-M    P1
_symmetry_Int_Tables_number       1
_symmetry_cell_setting            triclinic
loop_
_symmetry_equiv_pos_as_xyz
'x, y, z'
_cell_length_a     21.028546
_cell_length_b     33.367033
_cell_length_c     37.118464
_cell_angle_alpha  90.553866
_cell_angle_beta   86.619337
_cell_angle_gamma 83.787758
loop_
_atom_site_label
_atom_site_type_symbol
_atom_site_fract_x
_atom_site_fract_y
_atom_site_fract_z
_atom_type_partial_charge
H0 H 0.06412 0.39353 0.00432 0.0
H1 H 0.13088 0.28926 0.0634 0.0
H2 H 0.93463 0.34103 0.07967 0.0
C3 C 0.05475 0.37215 0.02524 0.0
C4 C -0.00745 0.37147 0.04087 0.0
C5 C 0.10486 0.3434 0.03377 0.0
C6 C 0.09268 0.31239 0.05777 0.0
C7 C 0.03077 0.31187 0.07445 0.0
C8 C 0.98184 0.34189 0.06654 0.0
N9 N 0.01468 0.28158 0.09888 0.0
C10 C 0.05059 0.24477 0.1038 0.0
H11 H 0.97785 0.66947 0.95356 0.0
H12 H 0.06872 0.76177 0.00586 0.0
H13 H 0.86359 0.76909 0.0086 0.0
C14 C 0.97394 0.69624 0.97068 0.0
C15 C 0.91325 0.71671 0.98046 0.0
C16 C 0.03013 0.71219 0.97978 0.0
C17 C 0.02559 0.7485 -2e-05 0.0
C18 C 0.96513 0.76885 0.01044 0.0
C19 C 0.90976 0.75281 0.00063 0.0
N20 N 0.95754 0.80731 0.0278 0.0
C21 C -7e-05 0.82171 0.05085 0.0
H22 H 0.60622 0.89489 0.51974 0.0
H23 H 0.74465 0.79863 0.54983 0.0
H24 H 0.54441 0.7815 0.55288 0.0
C25 C 0.61733 0.86476 0.53 0.0
C26 C 0.56802 0.84025 0.53635 0.0
C27 C 0.68114 0.85006 0.53446 0.0
C28 C 0.69529 0.8107 0.54689 0.0
C29 C 0.64632 0.78611 0.55451 0.0
C30 C 0.58234 0.80083 0.54882 0.0
N31 N 0.6637 0.74606 0.5657 0.0
C32 C 0.6239 0.72422 0.58716 0.0
H33 H 0.6208 0.13046 0.5157 0.0
H34 H 0.64924 0.25453 0.53282 0.0
H35 H 0.46481 0.22367 0.50586 0.0
C36 C 0.60114 0.16183 0.51808 0.0
C37 C 0.53763 0.17298 0.5098 0.0
C38 C 0.64214 0.19098 0.52508 0.0
C39 C 0.61735 0.23178 0.52833 0.0
C40 C 0.55219 0.24323 0.523 0.0
C41 C 0.51337 0.21396 0.51273 0.0
N42 N 0.5256 0.28421 0.52438 0.0
C43 C 0.54566 0.31336 0.54683 0.0
Zn44 Zn 0.1172 0.07603 0.34256 0.0
Zn45 Zn 0.12282 0.92249 0.34942 0.0
Zn46 Zn 0.11958 1.00023 0.34625 0.0
C47 C 0.10822 0.93929 0.27771 0.0
C48 C 0.01808 0.95603 0.39393 0.0
O49 O 0.20702 0.01593 0.37056 0.0
O50 O 0.18764 0.08237 0.37387 0.0
C51 C 0.13097 0.05007 0.27221 0.0
O52 O 0.11351 0.9752 0.2898 0.0
O53 O 0.10977 0.91008 0.29905 0.0
O54 O 0.04858 0.92255 0.38466 0.0
O55 O 0.03581 0.98915 0.3814 0.0
O56 O 0.13463 0.08143 0.29077 0.0
O57 O 0.12169 0.01652 0.28769 0.0
O58 O 0.03503 0.03133 0.37894 0.0
O59 O 0.03147 0.09529 0.36357 0.0
C60 C 0.00818 0.06802 0.38165 0.0
O61 O 0.20397 0.97394 0.37493 0.0
O62 O 0.20717 0.90773 0.36907 0.0
C63 C 0.22218 0.05045 0.3808 0.0
C64 C 0.23013 0.93812 0.38132 0.0
Zn65 Zn 0.47966 0.63861 0.84451 0.0
Zn66 Zn 0.56481 0.42878 0.8431 0.0
Zn67 Zn 0.53002 0.4996 0.84691 0.0
C68 C 0.57406 0.44947 0.77253 0.0
C69 C 0.43765 0.43733 0.87332 0.0
O70 O 0.59647 0.53285 0.87701 0.0
O71 O 0.53377 0.58405 0.85946 0.0
C72 C 0.51866 0.56239 0.79164 0.0
O73 O 0.548 0.48255 0.788 0.0
O74 O 0.59174 0.41979 0.79171 0.0
O75 O 0.4812 0.41182 0.85951 0.0
O76 O 0.44548 0.47508 0.87318 0.0
O77 O 0.50633 0.57985 0.82241 0.0
O78 O 0.53295 0.52415 0.79187 0.0
O79 O 0.43116 0.51955 0.87118 0.0
O80 O 0.46542 0.57675 0.85636 0.0
C81 C 0.41945 0.55799 0.86926 0.0
O82 O 0.61563 0.49064 0.87965 0.0
O83 O 0.63112 0.42405 0.87853 0.0
C84 C 0.58274 0.57125 0.87666 0.0
C85 C 0.6461 0.45737 0.88966 0.0
H86 H 0.98214 0.18901 0.13246 0.0
H87 H 0.17563 0.21301 0.10142 0.0
H88 H 0.21776 0.14909 0.12947 0.0
H89 H 0.0096 0.16018 0.21599 0.0
H90 H 0.95591 0.12154 0.21901 0.0
H91 H 0.94186 0.16205 0.18819 0.0
H92 H 0.94323 0.11018 0.13555 0.0
H93 H 0.95828 0.06937 0.1665 0.0
H94 H 0.01172 0.07318 0.1272 0.0
H95 H 0.23855 0.09244 0.17173 0.0
H96 H 0.23659 0.05327 0.22776 0.0
H97 H 0.0298 0.06466 0.23147 0.0
C98 C 0.03323 0.17973 0.13036 0.0
C99 C 0.07592 0.20504 0.11444 0.0
C100 C 0.14248 0.19331 0.11306 0.0
C101 C 0.16658 0.157 0.12873 0.0
C102 C 0.12324 0.1329 0.14531 0.0
C103 C 0.05776 0.14377 0.14601 0.0
C104 C 0.02176 0.11679 0.17055 0.0
C105 C 0.97993 0.14162 0.20018 0.0
C106 C 0.98136 0.09084 0.14863 0.0
C107 C 0.07724 0.09109 0.18592 0.0
C108 C 0.13538 0.09976 0.17001 0.0
C109 C 0.19346 0.08434 0.18347 0.0
C110 C 0.19204 0.06177 0.21515 0.0
C111 C 0.13306 0.05492 0.23297 0.0
C112 C 0.07531 0.06789 0.21716 0.0
H113 H 0.98445 0.80901 0.12173 0.0
H114 H 0.08044 0.88004 0.0429 0.0
H115 H 0.11925 0.92004 0.09244 0.0
H116 H 0.92943 0.88931 0.18197 0.0
H117 H 0.94029 0.8601 0.22216 0.0
H118 H 0.92464 0.8357 0.18064 0.0
H119 H 0.02833 0.78657 0.18442 0.0
H120 H 0.04366 0.81036 0.2263 0.0
H121 H 0.10364 0.80662 0.18932 0.0
H122 H 0.14369 0.95388 0.15247 0.0
H123 H 0.15608 0.97462 0.21595 0.0
H124 H 0.03937 0.88221 0.2532 0.0
C125 C 0.01492 0.83239 0.11503 0.0
C126 C 0.03078 0.84119 0.07887 0.0
C127 C 0.06909 0.87258 0.07072 0.0
C128 C 0.09085 0.89553 0.09863 0.0
C129 C 0.07332 0.88665 0.13432 0.0
C130 C 0.03657 0.85554 0.14242 0.0
C131 C 0.02238 0.85249 0.18259 0.0
C132 C 0.94989 0.85985 0.19239 0.0
C133 C 0.05125 0.81159 0.19646 0.0
C134 C 0.05678 0.88667 0.196 0.0
C135 C 0.08588 0.90628 0.168 0.0
C136 C 0.12071 0.93878 0.17451 0.0
C137 C 0.12675 0.95085 0.21058 0.0
C138 C 0.09781 0.93058 0.23943 0.0
C139 C 0.06205 0.89841 0.23172 0.0
H140 H 0.65831 0.64803 0.60806 0.0
H141 H 0.51348 0.75009 0.62481 0.0
H142 H 0.46173 0.71463 0.67503 0.0
H143 H 0.55074 0.5674 0.63337 0.0
H144 H 0.61386 0.538 0.6553 0.0
H145 H 0.63302 0.56833 0.61703 0.0
H146 H 0.70999 0.60434 0.65514 0.0
H147 H 0.69068 0.57436 0.69342 0.0
H148 H 0.6799 0.6286 0.6973 0.0
H149 H 0.43635 0.67349 0.72822 0.0
H150 H 0.43598 0.62821 0.78028 0.0
H151 H 0.59548 0.55104 0.72903 0.0
C152 C 0.61446 0.66214 0.62167 0.0
C153 C 0.58884 0.70131 0.61262 0.0
C154 C 0.5328 0.71976 0.63131 0.0
C155 C 0.50324 0.69983 0.65973 0.0
C156 C 0.53029 0.66144 0.66871 0.0
C157 C 0.58424 0.64248 0.65 0.0
C158 C 0.6069 0.60277 0.66721 0.0
C159 C 0.60075 0.56701 0.6417 0.0
C160 C 0.67594 0.60254 0.67897 0.0
C161 C 0.55916 0.60331 0.69948 0.0
C162 C 0.51495 0.6372 0.6995 0.0
C163 C 0.46972 0.64641 0.72809 0.0
C164 C 0.4701 0.62065 0.75762 0.0
C165 C 0.51513 0.58598 0.75833 0.0
C166 C 0.55946 0.57679 0.72861 0.0
H167 H 0.62344 0.30545 0.60219 0.0
H168 H 0.49083 0.39023 0.54905 0.0
H169 H 0.49767 0.4409 0.59759 0.0
H170 H 0.56 0.32502 0.68769 0.0
H171 H 0.63461 0.31998 0.70964 0.0
H172 H 0.62873 0.29398 0.66759 0.0
H173 H 0.72466 0.32809 0.63951 0.0
H174 H 0.73084 0.35427 0.68167 0.0
H175 H 0.72186 0.38228 0.64066 0.0
H176 H 0.50583 0.47777 0.65684 0.0
H177 H 0.5128 0.49616 0.72114 0.0
H178 H 0.6428 0.3879 0.73432 0.0
C179 C 0.59777 0.33524 0.6003 0.0
C180 C 0.5575 0.34455 0.57195 0.0
C181 C 0.52275 0.38311 0.57052 0.0
C182 C 0.52647 0.41201 0.59788 0.0
C183 C 0.56561 0.40177 0.6262 0.0
C184 C 0.60117 0.36437 0.62735 0.0
C185 C 0.63398 0.35907 0.66241 0.0
C186 C 0.61303 0.32237 0.68303 0.0
C187 C 0.70719 0.35574 0.65564 0.0
C188 C 0.60875 0.39833 0.68159 0.0
C189 C 0.57038 0.42301 0.66015 0.0
C190 C 0.53695 0.45907 0.67359 0.0
C191 C 0.5414 0.46944 0.71014 0.0
C192 C 0.57873 0.4437 0.73276 0.0
C193 C 0.61431 0.40849 0.71773 0.0
H194 H 0.18265 0.40339 0.03543 0.0
H195 H 0.16173 0.28884 0.98405 0.0
H196 H 0.24365 0.30213 0.93633 0.0
H197 H 0.19507 0.45932 0.95944 0.0
H198 H 0.25604 0.48921 0.9734 0.0
H199 H 0.20331 0.46896 0.00675 0.0
H200 H 0.30056 0.43344 0.03787 0.0
H201 H 0.35328 0.45514 0.00531 0.0
H202 H 0.36079 0.40136 0.01148 0.0
H203 H 0.3131 0.33236 0.89004 0.0
H204 H 0.38621 0.37055 0.85347 0.0
H205 H 0.3659 0.46574 0.93521 0.0
C206 C 0.19776 0.38036 0.01501 0.0
C207 C 0.16705 0.34476 0.01353 0.0
C208 C 0.18606 0.31573 0.98597 0.0
C209 C 0.23179 0.32334 0.95857 0.0
C210 C 0.25841 0.35984 0.95961 0.0
C211 C 0.24387 0.38731 0.98772 0.0
C212 C 0.27802 0.42474 0.98168 0.0
C213 C 0.23012 0.46279 0.98024 0.0
C214 C 0.32603 0.4289 0.01081 0.0
C215 C 0.3121 0.41474 0.94506 0.0
C216 C 0.29972 0.37717 0.93292 0.0
C217 C 0.3241 0.36144 0.89954 0.0
C218 C 0.36507 0.38361 0.87883 0.0
C219 C 0.38175 0.4211 0.89151 0.0
C220 C 0.35336 0.43746 0.92463 0.0
H221 H 0.88527 0.6383 0.97248 0.0
H222 H 0.80776 0.76251 0.95665 0.0
H223 H 0.71177 0.73899 0.93222 0.0
H224 H 0.8379 0.60599 0.89044 0.0
H225 H 0.81491 0.5576 0.90234 0.0
H226 H 0.87694 0.57821 0.92588 0.0
H227 H 0.82174 0.57614 0.98818 0.0
H228 H 0.75898 0.55092 0.96993 0.0
H229 H 0.73912 0.59661 0.99616 0.0
H230 H 0.6269 0.70178 0.90585 0.0
H231 H 0.56035 0.65387 0.87991 0.0
H232 H 0.69143 0.55434 0.91353 0.0
C233 C 0.84801 0.66066 0.96417 0.0
C234 C 0.85401 0.70234 0.96714 0.0
C235 C 0.8039 0.73043 0.95567 0.0
C236 C 0.7492 0.71738 0.94147 0.0
C237 C 0.74518 0.67612 0.93873 0.0
C238 C 0.79319 0.6482 0.94978 0.0
C239 C 0.77939 0.60565 0.94139 0.0
C240 C 0.83036 0.58562 0.91348 0.0
C241 C 0.77458 0.58085 0.97595 0.0
C242 C 0.71508 0.61388 0.92506 0.0
C243 C 0.69664 0.65474 0.92326 0.0
C244 C 0.64076 0.66968 0.90736 0.0
C245 C 0.60321 0.64208 0.89262 0.0
C246 C 0.6213 0.59994 0.89403 0.0
C247 C 0.67729 0.586 0.91122 0.0
H248 H 0.86788 0.35507 0.03397 0.0
H249 H -0.00608 0.44873 0.01464 0.0
H250 H 0.91517 0.48366 0.97609 0.0
H251 H 0.81161 0.34829 0.95212 0.0
H252 H 0.72913 0.34362 0.96587 0.0
H253 H 0.79122 0.3279 0.99558 0.0
H254 H 0.73585 0.37562 0.04623 0.0
H255 H 0.67238 0.39085 0.017 0.0
H256 H 0.71568 0.42827 0.03703 0.0
H257 H 0.83894 0.49576 0.92718 0.0
H258 H 0.74967 0.50027 0.88583 0.0
H259 H 0.66386 0.40753 0.94611 0.0
C260 C 0.87825 0.38378 0.02314 0.0
C261 C 0.93854 0.39819 0.02656 0.0
C262 C 0.94948 0.4359 0.0113 0.0
C263 C 0.90477 0.45628 0.98956 0.0
C264 C 0.84795 0.43965 0.98479 0.0
C265 C 0.83312 0.40537 0.00252 0.0
C266 C 0.76893 0.39354 0.99234 0.0
C267 C 0.7757 0.35082 0.97547 0.0
C268 C 0.72032 0.39731 0.0251 0.0
C269 C 0.75181 0.42531 0.9647 0.0
C270 C 0.7985 0.45122 0.96033 0.0
C271 C 0.79899 0.47832 0.93206 0.0
C272 C 0.74829 0.48079 0.90895 0.0
C273 C 0.69766 0.45667 0.91476 0.0
C274 C 0.70024 0.42802 0.94251 0.0
H275 H 0.09373 0.63591 0.98731 0.0
H276 H 0.10408 0.74885 0.93152 0.0
H277 H 0.19933 0.71866 0.89493 0.0
H278 H 0.26659 0.61264 0.99174 0.0
H279 H 0.26711 0.55917 0.98473 0.0
H280 H 0.19766 0.58795 0.00642 0.0
H281 H 0.12678 0.56169 0.95985 0.0
H282 H 0.19385 0.53369 0.93508 0.0
H283 H 0.14265 0.57072 0.91252 0.0
H284 H 0.28472 0.67593 0.86106 0.0
H285 H 0.3743 0.6274 0.83929 0.0
H286 H 0.32176 0.5424 0.92074 0.0
C287 C 0.11694 0.65426 0.96773 0.0
C288 C 0.09213 0.6948 0.96223 0.0
C289 C 0.12304 0.71799 0.93633 0.0
C290 C 0.17664 0.70097 0.91523 0.0
C291 C 0.19933 0.66085 0.92076 0.0
C292 C 0.1719 0.63797 0.94694 0.0
C293 C 0.20848 0.59604 0.94796 0.0
C294 C 0.2366 0.58849 0.9849 0.0
C295 C 0.16535 0.56361 0.93834 0.0
C296 C 0.26094 0.59919 0.91841 0.0
C297 C 0.25301 0.63666 0.90266 0.0
C298 C 0.29262 0.64694 0.87383 0.0
C299 C 0.34384 0.61911 0.86184 0.0
C300 C 0.35689 0.58169 0.87917 0.0
C301 C 0.31352 0.57092 0.90719 0.0
H302 H 0.69274 0.8904 0.47143 0.0
H303 H 0.78707 0.86376 0.57053 0.0
H304 H 0.87659 0.90129 0.54854 0.0
H305 H 0.82543 0.87327 0.41464 0.0
H306 H 0.80381 0.91276 0.38338 0.0
H307 H 0.74233 0.89097 0.40971 0.0
H308 H 0.69738 0.96193 0.43467 0.0
H309 H 0.75917 0.98396 0.40837 0.0
H310 H 0.74961 0.99274 0.45646 0.0
H311 H 0.96105 0.93255 0.51286 0.0
H312 H 0.03815 0.95046 0.46443 0.0
H313 H 0.88937 0.95711 0.38835 0.0
C314 C 0.73126 0.89364 0.489 0.0
C315 C 0.73284 0.87471 0.52286 0.0
C316 C 0.78509 0.87819 0.54455 0.0
C317 C 0.83564 0.89979 0.53244 0.0
C318 C 0.83289 0.91779 0.4987 0.0
C319 C 0.78202 0.9149 0.47725 0.0
C320 C 0.7943 0.93228 0.44026 0.0
C321 C 0.79133 0.90041 0.41026 0.0
C322 C 0.74731 0.96997 0.43462 0.0
C323 C 0.86168 0.94327 0.44344 0.0
C324 C 0.88227 0.93579 0.47776 0.0
C325 C 0.94499 0.93954 0.48625 0.0
C326 C 0.98834 0.94973 0.45869 0.0
C327 C 0.96864 0.95611 0.42327 0.0
C328 C 0.9044 0.95384 0.41567 0.0
H329 H 0.40722 0.16868 0.51733 0.0
H330 H 0.58242 0.10951 0.46393 0.0
H331 H 0.52033 0.06262 0.43367 0.0
H332 H 0.31529 0.07866 0.52335 0.0
H333 H 0.24221 0.1082 0.51249 0.0
H334 H 0.30107 0.1311 0.53677 0.0
H335 H 0.30498 0.18626 0.48813 0.0
H336 H 0.24628 0.16359 0.46388 0.0
H337 H 0.32225 0.17136 0.44145 0.0
H338 H 0.43894 0.02745 0.40273 0.0
H339 H 0.34413 0.01213 0.37038 0.0
H340 H 0.22322 0.09769 0.43979 0.0
C341 C 0.43278 0.14548 0.49979 0.0
C342 C 0.50006 0.14252 0.49391 0.0
C343 C 0.53125 0.11176 0.47027 0.0
C344 C 0.49631 0.0849 0.45266 0.0
C345 C 0.43004 0.08919 0.45856 0.0
C346 C 0.39853 0.11887 0.48142 0.0
C347 C 0.32675 0.12095 0.47914 0.0
C348 C 0.29444 0.10901 0.51508 0.0
C349 C 0.29846 0.16301 0.46743 0.0
C350 C 0.32315 0.08932 0.45011 0.0
C351 C 0.38297 0.07032 0.43935 0.0
C352 C 0.39171 0.04173 0.41123 0.0
C353 C 0.33793 0.03322 0.393 0.0
C354 C 0.2771 0.05391 0.40273 0.0
C355 C 0.26955 0.08148 0.43205 0.0
H356 H 0.50705 0.81049 0.48142 0.0
H357 H 0.49054 0.90608 0.56225 0.0
H358 H 0.40042 0.94192 0.53133 0.0
H359 H 0.48618 0.87247 0.40861 0.0
H360 H 0.44066 0.84048 0.38327 0.0
H361 H 0.49608 0.81865 0.41465 0.0
H362 H 0.40581 0.78447 0.44873 0.0
H363 H 0.35042 0.80511 0.41674 0.0
H364 H 0.33286 0.81459 0.46437 0.0
H365 H 0.3197 0.9702 0.48831 0.0
H366 H 0.24651 0.98566 0.43953 0.0
H367 H 0.32127 0.87365 0.38462 0.0
C368 C 0.48229 0.83799 0.49345 0.0
C369 C 0.50415 0.85517 0.52462 0.0
C370 C 0.47301 0.89216 0.53884 0.0
C371 C 0.42235 0.91281 0.52129 0.0
C372 C 0.4039 0.89605 0.48952 0.0
C373 C 0.4322 0.85917 0.47602 0.0
C374 C 0.40682 0.84924 0.44004 0.0
C375 C 0.46066 0.84497 0.40988 0.0
C376 C 0.37188 0.8111 0.44264 0.0
C377 C 0.36056 0.8865 0.43518 0.0
C378 C 0.35946 0.91311 0.46401 0.0
C379 C 0.32036 0.94964 0.46553 0.0
C380 C 0.27995 0.95862 0.4373 0.0
C381 C 0.27997 0.93161 0.40765 0.0
C382 C 0.32116 0.89523 0.40662 0.0
H383 H 0.71836 0.21452 0.4706 0.0
H384 H 0.71678 0.13525 0.56214 0.0
H385 H 0.81572 0.09576 0.53632 0.0
H386 H 0.75188 0.14108 0.40822 0.0
H387 H 0.80271 0.16685 0.37758 0.0
H388 H 0.7428 0.1954 0.40682 0.0
H389 H 0.82842 0.23503 0.43396 0.0
H390 H 0.88855 0.20793 0.40365 0.0
H391 H 0.89841 0.20788 0.45156 0.0
H392 H 0.90445 0.05897 0.49555 0.0
H393 H 0.98352 0.03302 0.44663 0.0
H394 H 0.9189 0.13328 0.37986 0.0
C395 C 0.74128 0.19045 0.48628 0.0
C396 C 0.71136 0.17851 0.51879 0.0
C397 C 0.7404 0.14543 0.53771 0.0
C398 C 0.79603 0.12261 0.523 0.0
C399 C 0.82164 0.13337 0.48941 0.0
C400 C 0.79592 0.16704 0.47163 0.0
C401 C 0.82725 0.1695 0.43408 0.0
C402 C 0.77822 0.16811 0.40499 0.0
C403 C 0.8628 0.20732 0.43062 0.0
C404 C 0.87347 0.1315 0.43312 0.0
C405 C 0.86999 0.11114 0.46529 0.0
C406 C 0.90752 0.07475 0.47028 0.0
C407 C 0.95111 0.05957 0.44202 0.0
C408 C 0.95572 0.08025 0.40904 0.0
C409 C 0.91589 0.1165 0.40463 0.0
loop_
_geom_bond_atom_site_label_1
_geom_bond_atom_site_label_2
_geom_bond_distance
_geom_bond_site_symmetry_2
_ccdc_geom_bond_type
H0 C3 0.929 . S
H1 C6 0.929 . S
H2 C8 0.930 . S
C3 H0 0.929 . S
C3 C4 1.398 . S
C3 C5 1.396 . S
C4 C3 1.398 . S
C4 C8 1.407 1_556 S
C5 C3 1.396 . S
C5 C6 1.394 1_556 S
C6 H1 0.929 . S
C6 C5 1.394 1_554 S
C6 C7 1.382 . S
C7 C6 1.382 . S
C7 C8 1.392 . S
C7 N9 1.420 . S
C8 H2 0.930 . S
C8 C4 1.407 1_554 S
C8 C7 1.392 . S
N9 C7 1.420 . S
N9 C10 1.244 . S
C10 N9 1.244 . S
H11 C14 0.929 . S
H12 C17 0.929 . S
H13 C19 0.930 . S
C14 H11 0.929 . S
C14 C15 1.398 1_455 S
C14 C16 1.396 . S
C15 C14 1.398 1_655 S
C15 C19 1.407 1_556 S
C16 C14 1.396 . S
C16 C17 1.394 1_556 S
C17 H12 0.929 . S
C17 C16 1.394 1_554 S
C17 C18 1.382 1_455 S
C18 C17 1.382 1_655 S
C18 C19 1.392 . S
C18 N20 1.420 . S
C19 H13 0.930 . S
C19 C15 1.407 1_554 S
C19 C18 1.392 . S
N20 C18 1.420 . S
N20 C21 1.244 1_655 S
C21 N20 1.244 1_455 S
H22 C25 0.929 . S
H23 C28 0.929 . S
H24 C30 0.930 . S
C25 H22 0.929 . S
C25 C26 1.398 . S
C25 C27 1.396 . S
C26 C25 1.398 . S
C26 C30 1.407 . S
C27 C25 1.396 . S
C27 C28 1.394 . S
C28 H23 0.929 . S
C28 C27 1.394 . S
C28 C29 1.382 . S
C29 C28 1.382 . S
C29 C30 1.392 . S
C29 N31 1.420 . S
C30 H24 0.930 . S
C30 C26 1.407 . S
C30 C29 1.392 . S
N31 C29 1.420 . S
N31 C32 1.244 . S
C32 N31 1.244 . S
H33 C36 0.929 . S
H34 C39 0.929 . S
H35 C41 0.930 . S
C36 H33 0.929 . S
C36 C37 1.398 . S
C36 C38 1.396 . S
C37 C36 1.398 . S
C37 C41 1.407 . S
C38 C36 1.396 . S
C38 C39 1.394 . S
C39 H34 0.929 . S
C39 C38 1.394 . S
C39 C40 1.382 . S
C40 C39 1.382 . S
C40 C41 1.392 . S
C40 N42 1.420 . S
C41 H35 0.930 . S
C41 C37 1.407 . S
C41 C40 1.392 . S
N42 C40 1.420 . S
N42 C43 1.244 . S
C43 N42 1.244 . S
Zn44 O50 1.920 . S
Zn44 O56 1.898 . S
Zn44 O59 1.905 1_455 S
Zn45 O53 1.905 . S
Zn45 O54 1.898 . S
Zn45 O62 1.920 . S
Zn46 O49 2.080 . S
Zn46 O52 2.114 1_545 S
Zn46 O55 2.120 1_545 S
Zn46 O57 2.120 . S
Zn46 O58 2.114 1_455 S
Zn46 O61 2.080 1_545 S
C47 O52 1.166 . S
C47 O53 1.182 . S
C48 O54 1.167 . S
C48 O55 1.299 . S
O49 Zn46 2.080 . S
O49 C63 1.305 . S
O50 Zn44 1.920 . S
O50 C63 1.234 . S
C51 O56 1.167 . S
C51 O57 1.299 . S
O52 Zn46 2.114 1_565 S
O52 C47 1.166 . S
O53 Zn45 1.905 . S
O53 C47 1.182 . S
O54 Zn45 1.898 . S
O54 C48 1.167 . S
O55 Zn46 2.120 1_565 S
O55 C48 1.299 . S
O56 Zn44 1.898 . S
O56 C51 1.167 . S
O57 Zn46 2.120 . S
O57 C51 1.299 . S
O58 Zn46 2.114 1_655 S
O58 C60 1.166 . S
O59 Zn44 1.905 1_655 S
O59 C60 1.182 . S
C60 O58 1.166 . S
C60 O59 1.182 . S
O61 Zn46 2.080 1_565 S
O61 C64 1.305 . S
O62 Zn45 1.920 . S
O62 C64 1.234 . S
C63 O49 1.305 . S
C63 O50 1.234 . S
C64 O61 1.305 . S
C64 O62 1.234 . S
Zn65 O71 1.920 . S
Zn65 O77 1.898 . S
Zn65 O80 1.905 . S
Zn66 O74 1.905 . S
Zn66 O75 1.898 . S
Zn66 O83 1.920 . S
Zn67 O70 2.080 . S
Zn67 O73 2.114 . S
Zn67 O76 2.120 . S
Zn67 O78 2.120 . S
Zn67 O79 2.114 . S
Zn67 O82 2.080 . S
C68 O73 1.166 . S
C68 O74 1.182 . S
C69 O75 1.167 . S
C69 O76 1.299 . S
O70 Zn67 2.080 . S
O70 C84 1.305 . S
O71 Zn65 1.920 . S
O71 C84 1.234 . S
C72 O77 1.167 . S
C72 O78 1.299 . S
O73 Zn67 2.114 . S
O73 C68 1.166 . S
O74 Zn66 1.905 . S
O74 C68 1.182 . S
O75 Zn66 1.898 . S
O75 C69 1.167 . S
O76 Zn67 2.120 . S
O76 C69 1.299 . S
O77 Zn65 1.898 . S
O77 C72 1.167 . S
O78 Zn67 2.120 . S
O78 C72 1.299 . S
O79 Zn67 2.114 . S
O79 C81 1.166 . S
O80 Zn65 1.905 . S
O80 C81 1.182 . S
C81 O79 1.166 . S
C81 O80 1.182 . S
O82 Zn67 2.080 . S
O82 C85 1.305 . S
O83 Zn66 1.920 . S
O83 C85 1.234 . S
C84 O70 1.305 . S
C84 O71 1.234 . S
C85 O82 1.305 . S
C85 O83 1.234 . S
H86 C98 0.930 . S
H87 C100 0.930 . S
H88 C101 0.930 . S
H89 C105 0.959 . S
H90 C105 0.959 . S
H91 C105 0.961 . S
H92 C106 0.960 . S
H93 C106 0.961 . S
H94 C106 0.959 . S
H95 C109 0.929 . S
H96 C110 0.931 . S
H97 C112 0.930 . S
C98 H86 0.930 . S
C98 C99 1.399 . S
C98 C103 1.399 . S
C99 C98 1.399 . S
C99 C100 1.376 . S
C100 H87 0.930 . S
C100 C99 1.376 . S
C100 C101 1.388 . S
C101 H88 0.930 . S
C101 C100 1.388 . S
C101 C102 1.390 . S
C102 C101 1.390 . S
C102 C103 1.394 . S
C102 C108 1.465 . S
C103 C98 1.399 . S
C103 C102 1.394 . S
C103 C104 1.516 . S
C104 C103 1.516 . S
C104 C105 1.502 . S
C104 C106 1.561 . S
C104 C107 1.526 . S
C105 H89 0.959 . S
C105 H90 0.959 . S
C105 H91 0.961 . S
C105 C104 1.502 . S
C106 H92 0.960 . S
C106 H93 0.961 . S
C106 H94 0.959 . S
C106 C104 1.561 . S
C107 C104 1.526 . S
C107 C108 1.396 . S
C107 C112 1.390 . S
C108 C102 1.465 . S
C108 C107 1.396 . S
C108 C109 1.399 . S
C109 H95 0.929 . S
C109 C108 1.399 . S
C109 C110 1.385 . S
C110 H96 0.931 . S
C110 C109 1.385 . S
C110 C111 1.389 . S
C111 C110 1.389 . S
C111 C112 1.387 . S
C112 H97 0.930 . S
C112 C107 1.390 . S
C112 C111 1.387 . S
H113 C125 0.930 . S
H114 C127 0.930 . S
H115 C128 0.930 . S
H116 C132 0.959 . S
H117 C132 0.959 . S
H118 C132 0.961 . S
H119 C133 0.960 . S
H120 C133 0.961 . S
H121 C133 0.959 . S
H122 C136 0.929 . S
H123 C137 0.931 . S
H124 C139 0.939 . S
C125 H113 0.930 . S
C125 C126 1.399 1_655 S
C125 C130 1.399 . S
C126 C125 1.399 1_455 S
C126 C127 1.376 . S
C127 H114 0.930 . S
C127 C126 1.376 . S
C127 C128 1.388 . S
C128 H115 0.930 . S
C128 C127 1.388 . S
C128 C129 1.390 . S
C129 C128 1.390 . S
C129 C130 1.394 1_455 S
C129 C135 1.465 . S
C130 C125 1.399 . S
C130 C129 1.394 1_655 S
C130 C131 1.516 . S
C131 C130 1.516 . S
C131 C132 1.502 . S
C131 C133 1.561 . S
C131 C134 1.526 1_655 S
C132 H116 0.959 . S
C132 H117 0.959 . S
C132 H118 0.961 . S
C132 C131 1.502 . S
C133 H119 0.960 . S
C133 H120 0.961 . S
C133 H121 0.959 . S
C133 C131 1.561 . S
C134 C131 1.526 1_455 S
C134 C135 1.396 . S
C134 C139 1.390 1_455 S
C135 C129 1.465 . S
C135 C134 1.396 . S
C135 C136 1.399 . S
C136 H122 0.929 . S
C136 C135 1.399 . S
C136 C137 1.385 . S
C137 H123 0.931 . S
C137 C136 1.385 . S
C137 C138 1.389 . S
C138 C137 1.389 . S
C138 C139 1.378 1_455 S
C139 H124 0.939 . S
C139 C134 1.390 1_655 S
C139 C138 1.378 1_655 S
H140 C152 0.930 . S
H141 C154 0.930 . S
H142 C155 0.930 . S
H143 C159 0.959 . S
H144 C159 0.959 . S
H145 C159 0.961 . S
H146 C160 0.960 . S
H147 C160 0.961 . S
H148 C160 0.959 . S
H149 C163 0.929 . S
H150 C164 0.931 . S
H151 C166 0.930 . S
C152 H140 0.930 . S
C152 C153 1.399 . S
C152 C157 1.399 . S
C153 C152 1.399 . S
C153 C154 1.376 . S
C154 H141 0.930 . S
C154 C153 1.376 . S
C154 C155 1.388 . S
C155 H142 0.930 . S
C155 C154 1.388 . S
C155 C156 1.390 . S
C156 C155 1.390 . S
C156 C157 1.394 . S
C156 C162 1.465 . S
C157 C152 1.399 . S
C157 C156 1.394 . S
C157 C158 1.516 . S
C158 C157 1.516 . S
C158 C159 1.502 . S
C158 C160 1.561 . S
C158 C161 1.526 . S
C159 H143 0.959 . S
C159 H144 0.959 . S
C159 H145 0.961 . S
C159 C158 1.502 . S
C160 H146 0.960 . S
C160 H147 0.961 . S
C160 H148 0.959 . S
C160 C158 1.561 . S
C161 C158 1.526 . S
C161 C162 1.396 . S
C161 C166 1.390 . S
C162 C156 1.465 . S
C162 C161 1.396 . S
C162 C163 1.399 . S
C163 H149 0.929 . S
C163 C162 1.399 . S
C163 C164 1.385 . S
C164 H150 0.931 . S
C164 C163 1.385 . S
C164 C165 1.389 . S
C165 C164 1.389 . S
C165 C166 1.387 . S
C166 H151 0.930 . S
C166 C161 1.390 . S
C166 C165 1.387 . S
H167 C179 0.930 . S
H168 C181 0.930 . S
H169 C182 0.930 . S
H170 C186 0.959 . S
H171 C186 0.959 . S
H172 C186 0.961 . S
H173 C187 0.960 . S
H174 C187 0.961 . S
H175 C187 0.959 . S
H176 C190 0.929 . S
H177 C191 0.931 . S
H178 C193 0.930 . S
C179 H167 0.930 . S
C179 C180 1.399 . S
C179 C184 1.399 . S
C180 C179 1.399 . S
C180 C181 1.376 . S
C181 H168 0.930 . S
C181 C180 1.376 . S
C181 C182 1.388 . S
C182 H169 0.930 . S
C182 C181 1.388 . S
C182 C183 1.390 . S
C183 C182 1.390 . S
C183 C184 1.394 . S
C183 C189 1.465 . S
C184 C179 1.399 . S
C184 C183 1.394 . S
C184 C185 1.516 . S
C185 C184 1.516 . S
C185 C186 1.502 . S
C185 C187 1.561 . S
C185 C188 1.526 . S
C186 H170 0.959 . S
C186 H171 0.959 . S
C186 H172 0.961 . S
C186 C185 1.502 . S
C187 H173 0.960 . S
C187 H174 0.961 . S
C187 H175 0.959 . S
C187 C185 1.561 . S
C188 C185 1.526 . S
C188 C189 1.396 . S
C188 C193 1.390 . S
C189 C183 1.465 . S
C189 C188 1.396 . S
C189 C190 1.399 . S
C190 H176 0.929 . S
C190 C189 1.399 . S
C190 C191 1.385 . S
C191 H177 0.931 . S
C191 C190 1.385 . S
C191 C192 1.389 . S
C192 C191 1.389 . S
C192 C193 1.387 . S
C193 H178 0.930 . S
C193 C188 1.390 . S
C193 C192 1.387 . S
H194 C206 0.930 1_554 S
H195 C208 0.930 . S
H196 C209 0.930 . S
H197 C213 0.959 . S
H198 C213 0.959 . S
H199 C213 0.961 . S
H200 C214 0.960 . S
H201 C214 0.961 . S
H202 C214 0.959 . S
H203 C217 0.929 . S
H204 C218 0.931 . S
H205 C220 0.930 . S
C206 H194 0.930 1_556 S
C206 C207 1.399 . S
C206 C211 1.399 . S
C207 C206 1.399 . S
C207 C208 1.376 . S
C208 H195 0.930 . S
C208 C207 1.376 . S
C208 C209 1.388 . S
C209 H196 0.930 . S
C209 C208 1.388 . S
C209 C210 1.390 . S
C210 C209 1.390 . S
C210 C211 1.394 . S
C210 C216 1.465 . S
C211 C206 1.399 . S
C211 C210 1.394 . S
C211 C212 1.516 . S
C212 C211 1.516 . S
C212 C213 1.502 . S
C212 C214 1.561 1_556 S
C212 C215 1.526 . S
C213 H197 0.959 . S
C213 H198 0.959 . S
C213 H199 0.961 . S
C213 C212 1.502 . S
C214 H200 0.960 . S
C214 H201 0.961 . S
C214 H202 0.959 . S
C214 C212 1.561 1_554 S
C215 C212 1.526 . S
C215 C216 1.396 . S
C215 C220 1.390 . S
C216 C210 1.465 . S
C216 C215 1.396 . S
C216 C217 1.399 . S
C217 H203 0.929 . S
C217 C216 1.399 . S
C217 C218 1.385 . S
C218 H204 0.931 . S
C218 C217 1.385 . S
C218 C219 1.389 . S
C219 C218 1.389 . S
C219 C220 1.387 . S
C220 H205 0.930 . S
C220 C215 1.390 . S
C220 C219 1.387 . S
H221 C233 0.930 . S
H222 C235 0.940 . S
H223 C236 0.930 . S
H224 C240 0.959 . S
H225 C240 0.959 . S
H226 C240 0.961 . S
H227 C241 0.960 . S
H228 C241 0.961 . S
H229 C241 0.959 1_554 S
H230 C244 0.929 . S
H231 C245 0.931 . S
H232 C247 0.930 . S
C233 H221 0.930 . S
C233 C234 1.399 . S
C233 C238 1.399 . S
C234 C233 1.399 . S
C234 C235 1.376 . S
C235 H222 0.940 . S
C235 C234 1.376 . S
C235 C236 1.388 . S
C236 H223 0.930 . S
C236 C235 1.388 . S
C236 C237 1.390 . S
C237 C236 1.390 . S
C237 C238 1.394 . S
C237 C243 1.465 . S
C238 C233 1.399 . S
C238 C237 1.394 . S
C238 C239 1.516 . S
C239 C238 1.516 . S
C239 C240 1.502 . S
C239 C241 1.561 . S
C239 C242 1.526 . S
C240 H224 0.959 . S
C240 H225 0.959 . S
C240 H226 0.961 . S
C240 C239 1.502 . S
C241 H227 0.960 . S
C241 H228 0.961 . S
C241 H229 0.959 1_556 S
C241 C239 1.561 . S
C242 C239 1.526 . S
C242 C243 1.396 . S
C242 C247 1.390 . S
C243 C237 1.465 . S
C243 C242 1.396 . S
C243 C244 1.399 . S
C244 H230 0.929 . S
C244 C243 1.399 . S
C244 C245 1.385 . S
C245 H231 0.931 . S
C245 C244 1.385 . S
C245 C246 1.389 . S
C246 C245 1.389 . S
C246 C247 1.387 . S
C247 H232 0.930 . S
C247 C242 1.390 . S
C247 C246 1.387 . S
H248 C260 0.930 . S
H249 C262 0.930 . S
H250 C263 0.930 . S
H251 C267 0.959 . S
H252 C267 0.959 . S
H253 C267 0.961 . S
H254 C268 0.960 1_554 S
H255 C268 0.961 . S
H256 C268 0.959 . S
H257 C271 0.929 . S
H258 C272 0.931 . S
H259 C274 0.930 . S
C260 H248 0.930 . S
C260 C261 1.399 1_655 S
C260 C265 1.399 . S
C261 C260 1.399 1_455 S
C261 C262 1.376 . S
C262 H249 0.930 . S
C262 C261 1.376 . S
C262 C263 1.388 . S
C263 H250 0.930 . S
C263 C262 1.388 . S
C263 C264 1.390 1_455 S
C264 C263 1.390 1_655 S
C264 C265 1.394 . S
C264 C270 1.465 . S
C265 C260 1.399 . S
C265 C264 1.394 . S
C265 C266 1.516 . S
C266 C265 1.516 . S
C266 C267 1.502 . S
C266 C268 1.561 . S
C266 C269 1.526 . S
C267 H251 0.959 . S
C267 H252 0.959 . S
C267 H253 0.961 . S
C267 C266 1.502 . S
C268 H254 0.960 1_556 S
C268 H255 0.961 . S
C268 H256 0.959 . S
C268 C266 1.561 . S
C269 C266 1.526 . S
C269 C270 1.396 . S
C269 C274 1.390 . S
C270 C264 1.465 . S
C270 C269 1.396 . S
C270 C271 1.399 . S
C271 H257 0.929 . S
C271 C270 1.399 . S
C271 C272 1.385 . S
C272 H258 0.931 . S
C272 C271 1.385 . S
C272 C273 1.389 . S
C273 C272 1.389 . S
C273 C274 1.387 . S
C274 H259 0.930 . S
C274 C269 1.390 . S
C274 C273 1.387 . S
H275 C287 0.930 . S
H276 C289 0.930 . S
H277 C290 0.930 . S
H278 C294 0.959 . S
H279 C294 0.959 . S
H280 C294 0.970 . S
H281 C295 0.960 . S
H282 C295 0.961 . S
H283 C295 0.959 . S
H284 C298 0.929 . S
H285 C299 0.931 . S
H286 C301 0.930 . S
C287 H275 0.930 . S
C287 C288 1.399 . S
C287 C292 1.399 . S
C288 C287 1.399 . S
C288 C289 1.376 . S
C289 H276 0.930 . S
C289 C288 1.376 . S
C289 C290 1.388 . S
C290 H277 0.930 . S
C290 C289 1.388 . S
C290 C291 1.390 . S
C291 C290 1.390 . S
C291 C292 1.394 . S
C291 C297 1.465 . S
C292 C287 1.399 . S
C292 C291 1.394 . S
C292 C293 1.516 . S
C293 C292 1.516 . S
C293 C294 1.502 . S
C293 C295 1.561 . S
C293 C296 1.526 . S
C294 H278 0.959 . S
C294 H279 0.959 . S
C294 H280 0.970 . S
C294 C293 1.502 . S
C295 H281 0.960 . S
C295 H282 0.961 . S
C295 H283 0.959 . S
C295 C293 1.561 . S
C296 C293 1.526 . S
C296 C297 1.396 . S
C296 C301 1.390 . S
C297 C291 1.465 . S
C297 C296 1.396 . S
C297 C298 1.399 . S
C298 H284 0.929 . S
C298 C297 1.399 . S
C298 C299 1.385 . S
C299 H285 0.931 . S
C299 C298 1.385 . S
C299 C300 1.389 . S
C300 C299 1.389 . S
C300 C301 1.387 . S
C301 H286 0.930 . S
C301 C296 1.390 . S
C301 C300 1.387 . S
H302 C314 0.930 . S
H303 C316 0.930 . S
H304 C317 0.930 . S
H305 C321 0.959 . S
H306 C321 0.959 . S
H307 C321 0.961 . S
H308 C322 0.960 . S
H309 C322 0.961 . S
H310 C322 0.959 . S
H311 C325 0.929 . S
H312 C326 0.926 1_455 S
H313 C328 0.930 . S
C314 H302 0.930 . S
C314 C315 1.399 . S
C314 C319 1.399 . S
C315 C314 1.399 . S
C315 C316 1.376 . S
C316 H303 0.930 . S
C316 C315 1.376 . S
C316 C317 1.388 . S
C317 H304 0.930 . S
C317 C316 1.388 . S
C317 C318 1.390 . S
C318 C317 1.390 . S
C318 C319 1.394 . S
C318 C324 1.465 . S
C319 C314 1.399 . S
C319 C318 1.394 . S
C319 C320 1.516 . S
C320 C319 1.516 . S
C320 C321 1.502 . S
C320 C322 1.561 . S
C320 C323 1.526 . S
C321 H305 0.959 . S
C321 H306 0.959 . S
C321 H307 0.961 . S
C321 C320 1.502 . S
C322 H308 0.960 . S
C322 H309 0.961 . S
C322 H310 0.959 . S
C322 C320 1.561 . S
C323 C320 1.526 . S
C323 C324 1.396 . S
C323 C328 1.390 . S
C324 C318 1.465 . S
C324 C323 1.396 . S
C324 C325 1.399 . S
C325 H311 0.929 . S
C325 C324 1.399 . S
C325 C326 1.385 . S
C326 H312 0.926 1_655 S
C326 C325 1.385 . S
C326 C327 1.389 . S
C327 C326 1.389 . S
C327 C328 1.387 . S
C328 H313 0.930 . S
C328 C323 1.390 . S
C328 C327 1.387 . S
H329 C341 0.930 . S
H330 C343 0.930 . S
H331 C344 0.930 . S
H332 C348 0.959 . S
H333 C348 0.959 . S
H334 C348 0.961 . S
H335 C349 0.960 . S
H336 C349 0.961 . S
H337 C349 0.959 . S
H338 C352 0.929 . S
H339 C353 0.931 . S
H340 C355 0.930 . S
C341 H329 0.930 . S
C341 C342 1.399 . S
C341 C346 1.399 . S
C342 C341 1.399 . S
C342 C343 1.376 . S
C343 H330 0.930 . S
C343 C342 1.376 . S
C343 C344 1.388 . S
C344 H331 0.930 . S
C344 C343 1.388 . S
C344 C345 1.390 . S
C345 C344 1.390 . S
C345 C346 1.394 . S
C345 C351 1.465 . S
C346 C341 1.399 . S
C346 C345 1.394 . S
C346 C347 1.516 . S
C347 C346 1.516 . S
C347 C348 1.502 . S
C347 C349 1.561 . S
C347 C350 1.526 . S
C348 H332 0.959 . S
C348 H333 0.959 . S
C348 H334 0.961 . S
C348 C347 1.502 . S
C349 H335 0.960 . S
C349 H336 0.961 . S
C349 H337 0.959 . S
C349 C347 1.561 . S
C350 C347 1.526 . S
C350 C351 1.396 . S
C350 C355 1.390 . S
C351 C345 1.465 . S
C351 C350 1.396 . S
C351 C352 1.399 . S
C352 H338 0.929 . S
C352 C351 1.399 . S
C352 C353 1.385 . S
C353 H339 0.931 . S
C353 C352 1.385 . S
C353 C354 1.389 . S
C354 C353 1.389 . S
C354 C355 1.387 . S
C355 H340 0.930 . S
C355 C350 1.390 . S
C355 C354 1.387 . S
H356 C368 0.930 . S
H357 C370 0.930 . S
H358 C371 0.930 . S
H359 C375 0.959 . S
H360 C375 0.959 . S
H361 C375 0.961 . S
H362 C376 0.960 . S
H363 C376 0.961 . S
H364 C376 0.959 . S
H365 C379 0.929 . S
H366 C380 0.931 . S
H367 C382 0.930 . S
C368 H356 0.930 . S
C368 C369 1.399 . S
C368 C373 1.399 . S
C369 C368 1.399 . S
C369 C370 1.376 . S
C370 H357 0.930 . S
C370 C369 1.376 . S
C370 C371 1.388 . S
C371 H358 0.930 . S
C371 C370 1.388 . S
C371 C372 1.390 . S
C372 C371 1.390 . S
C372 C373 1.394 . S
C372 C378 1.465 . S
C373 C368 1.399 . S
C373 C372 1.394 . S
C373 C374 1.516 . S
C374 C373 1.516 . S
C374 C375 1.502 . S
C374 C376 1.561 . S
C374 C377 1.526 . S
C375 H359 0.959 . S
C375 H360 0.959 . S
C375 H361 0.961 . S
C375 C374 1.502 . S
C376 H362 0.960 . S
C376 H363 0.961 . S
C376 H364 0.959 . S
C376 C374 1.561 . S
C377 C374 1.526 . S
C377 C378 1.396 . S
C377 C382 1.390 . S
C378 C372 1.465 . S
C378 C377 1.396 . S
C378 C379 1.399 . S
C379 H365 0.929 . S
C379 C378 1.399 . S
C379 C380 1.385 . S
C380 H366 0.931 . S
C380 C379 1.385 . S
C380 C381 1.389 . S
C381 C380 1.389 . S
C381 C382 1.387 . S
C382 H367 0.930 . S
C382 C377 1.390 . S
C382 C381 1.387 . S
H383 C395 0.930 . S
H384 C397 0.930 . S
H385 C398 0.930 . S
H386 C402 0.959 . S
H387 C402 0.959 . S
H388 C402 0.961 . S
H389 C403 0.960 . S
H390 C403 0.961 . S
H391 C403 0.959 . S
H392 C406 0.929 . S
H393 C407 0.931 . S
H394 C409 0.930 . S
C395 H383 0.930 . S
C395 C396 1.399 . S
C395 C400 1.399 . S
C396 C395 1.399 . S
C396 C397 1.376 . S
C397 H384 0.930 . S
C397 C396 1.376 . S
C397 C398 1.388 . S
C398 H385 0.930 . S
C398 C397 1.388 . S
C398 C399 1.390 . S
C399 C398 1.390 . S
C399 C400 1.394 . S
C399 C405 1.465 . S
C400 C395 1.399 . S
C400 C399 1.394 . S
C400 C401 1.516 . S
C401 C400 1.516 . S
C401 C402 1.502 . S
C401 C403 1.561 . S
C401 C404 1.526 . S
C402 H386 0.959 . S
C402 H387 0.959 . S
C402 H388 0.961 . S
C402 C401 1.502 . S
C403 H389 0.960 . S
C403 H390 0.961 . S
C403 H391 0.959 . S
C403 C401 1.561 . S
C404 C401 1.526 . S
C404 C405 1.396 . S
C404 C409 1.390 . S
C405 C399 1.465 . S
C405 C404 1.396 . S
C405 C406 1.399 . S
C406 H392 0.929 . S
C406 C405 1.399 . S
C406 C407 1.385 . S
C407 H393 0.931 . S
C407 C406 1.385 . S
C407 C408 1.389 . S
C408 C407 1.389 . S
C408 C409 1.387 . S
C409 H394 0.930 . S
C409 C404 1.390 . S
C409 C408 1.387 . S
C111 C51 1.359 . S
C99 C10 1.519 . S
C138 C47 1.395 . S
C126 C21 1.476 . S
C165 C72 1.349 . S
C153 C32 1.516 . S
C180 C43 1.519 . S
C192 C68 1.434 . S
C207 C5 1.289 . S
C219 C69 1.044 . S
C246 C84 1.084 . S
C234 C15 1.281 . S
C261 C4 1.703 . S
C273 C85 1.626 . S
C300 C81 1.568 . S
C288 C16 1.743 . S
C327 C48 1.173 1_655 S
C315 C27 1.238 . S
C342 C37 1.273 . S
C354 C63 1.083 . S
C381 C64 1.573 . S
C369 C26 1.718 . S
C408 C60 1.575 . S
C396 C38 1.758 . S
