# Generated by pormake.
# Topology ptr, (4,4)-cn, num edge types: 1
# Building blocks:
#     Node 0, Type 0, BuildingBlock: QUQFOY_clean_sbu_3, # of connection points: 4
#     Node 1, Type 0, BuildingBlock: QUQFOY_clean_sbu_3, # of connection points: 4
#     Node 2, Type 0, BuildingBlock: QUQFOY_clean_sbu_3, # of connection points: 4
#     Node 3, Type 0, BuildingBlock: QUQFOY_clean_sbu_3, # of connection points: 4
#     Node 4, Type 0, BuildingBlock: QUQFOY_clean_sbu_3, # of connection points: 4
#     Node 5, Type 0, BuildingBlock: QUQFOY_clean_sbu_3, # of connection points: 4
#     Node 6, Type 0, BuildingBlock: QUQFOY_clean_sbu_3, # of connection points: 4
#     Node 7, Type 0, BuildingBlock: QUQFOY_clean_sbu_3, # of connection points: 4
#     Node 8, Type 0, BuildingBlock: QUQFOY_clean_sbu_3, # of connection points: 4
#     Node 9, Type 0, BuildingBlock: QUQFOY_clean_sbu_3, # of connection points: 4
#     Node 10, Type 0, BuildingBlock: QUQFOY_clean_sbu_3, # of connection points: 4
#     Node 11, Type 0, BuildingBlock: QUQFOY_clean_sbu_3, # of connection points: 4
#     Node 12, Type 0, BuildingBlock: QUQFOY_clean_sbu_3, # of connection points: 4
#     Node 13, Type 0, BuildingBlock: QUQFOY_clean_sbu_3, # of connection points: 4
#     Node 14, Type 0, BuildingBlock: QUQFOY_clean_sbu_3, # of connection points: 4
#     Node 15, Type 0, BuildingBlock: QUQFOY_clean_sbu_3, # of connection points: 4
#     Node 16, Type 0, BuildingBlock: QUQFOY_clean_sbu_3, # of connection points: 4
#     Node 17, Type 0, BuildingBlock: QUQFOY_clean_sbu_3, # of connection points: 4
#     Node 18, Type 1, BuildingBlock: MUDLON_clean_linker_0, # of connection points: 4
#     Node 19, Type 1, BuildingBlock: MUDLON_clean_linker_0, # of connection points: 4
#     Node 20, Type 1, BuildingBlock: MUDLON_clean_linker_0, # of connection points: 4
#     Node 21, Type 1, BuildingBlock: MUDLON_clean_linker_0, # of connection points: 4
#     Node 22, Type 1, BuildingBlock: MUDLON_clean_linker_0, # of connection points: 4
#     Node 23, Type 1, BuildingBlock: MUDLON_clean_linker_0, # of connection points: 4
#     Node 24, Type 1, BuildingBlock: MUDLON_clean_linker_0, # of connection points: 4
#     Node 25, Type 1, BuildingBlock: MUDLON_clean_linker_0, # of connection points: 4
#     Node 26, Type 1, BuildingBlock: MUDLON_clean_linker_0, # of connection points: 4
#     Node 27, Type 1, BuildingBlock: MUDLON_clean_linker_0, # of connection points: 4
#     Node 28, Type 1, BuildingBlock: MUDLON_clean_linker_0, # of connection points: 4
#     Node 29, Type 1, BuildingBlock: MUDLON_clean_linker_0, # of connection points: 4
#     Node 30, Type 1, BuildingBlock: MUDLON_clean_linker_0, # of connection points: 4
#     Node 31, Type 1, BuildingBlock: MUDLON_clean_linker_0, # of connection points: 4
#     Node 32, Type 1, BuildingBlock: MUDLON_clean_linker_0, # of connection points: 4
#     Node 33, Type 1, BuildingBlock: MUDLON_clean_linker_0, # of connection points: 4
#     Node 34, Type 1, BuildingBlock: MUDLON_clean_linker_0, # of connection points: 4
#     Node 35, Type 1, BuildingBlock: MUDLON_clean_linker_0, # of connection points: 4
#     Edge 36, Type (0, 1), BuildingBlock: MIFKUJ_clean_linker_0, # of connection points: 2
#     Edge 37, Type (0, 1), BuildingBlock: MIFKUJ_clean_linker_0, # of connection points: 2
#     Edge 38, Type (0, 1), BuildingBlock: MIFKUJ_clean_linker_0, # of connection points: 2
#     Edge 39, Type (0, 1), BuildingBlock: MIFKUJ_clean_linker_0, # of connection points: 2
#     Edge 40, Type (0, 1), BuildingBlock: MIFKUJ_clean_linker_0, # of connection points: 2
#     Edge 41, Type (0, 1), BuildingBlock: MIFKUJ_clean_linker_0, # of connection points: 2
#     Edge 42, Type (0, 1), BuildingBlock: MIFKUJ_clean_linker_0, # of connection points: 2
#     Edge 43, Type (0, 1), BuildingBlock: MIFKUJ_clean_linker_0, # of connection points: 2
#     Edge 44, Type (0, 1), BuildingBlock: MIFKUJ_clean_linker_0, # of connection points: 2
#     Edge 45, Type (0, 1), BuildingBlock: MIFKUJ_clean_linker_0, # of connection points: 2
#     Edge 46, Type (0, 1), BuildingBlock: MIFKUJ_clean_linker_0, # of connection points: 2
#     Edge 47, Type (0, 1), BuildingBlock: MIFKUJ_clean_linker_0, # of connection points: 2
#     Edge 48, Type (0, 1), BuildingBlock: MIFKUJ_clean_linker_0, # of connection points: 2
#     Edge 49, Type (0, 1), BuildingBlock: MIFKUJ_clean_linker_0, # of connection points: 2
#     Edge 50, Type (0, 1), BuildingBlock: MIFKUJ_clean_linker_0, # of connection points: 2
#     Edge 51, Type (0, 1), BuildingBlock: MIFKUJ_clean_linker_0, # of connection points: 2
#     Edge 52, Type (0, 1), BuildingBlock: MIFKUJ_clean_linker_0, # of connection points: 2
#     Edge 53, Type (0, 1), BuildingBlock: MIFKUJ_clean_linker_0, # of connection points: 2
#     Edge 54, Type (0, 1), BuildingBlock: MIFKUJ_clean_linker_0, # of connection points: 2
#     Edge 55, Type (0, 1), BuildingBlock: MIFKUJ_clean_linker_0, # of connection points: 2
#     Edge 56, Type (0, 1), BuildingBlock: MIFKUJ_clean_linker_0, # of connection points: 2
#     Edge 57, Type (0, 1), BuildingBlock: MIFKUJ_clean_linker_0, # of connection points: 2
#     Edge 58, Type (0, 1), BuildingBlock: MIFKUJ_clean_linker_0, # of connection points: 2
#     Edge 59, Type (0, 1), BuildingBlock: MIFKUJ_clean_linker_0, # of connection points: 2
#     Edge 60, Type (0, 1), BuildingBlock: MIFKUJ_clean_linker_0, # of connection points: 2
#     Edge 61, Type (0, 1), BuildingBlock: MIFKUJ_clean_linker_0, # of connection points: 2
#     Edge 62, Type (0, 1), BuildingBlock: MIFKUJ_clean_linker_0, # of connection points: 2
#     Edge 63, Type (0, 1), BuildingBlock: MIFKUJ_clean_linker_0, # of connection points: 2
#     Edge 64, Type (0, 1), BuildingBlock: MIFKUJ_clean_linker_0, # of connection points: 2
#     Edge 65, Type (0, 1), BuildingBlock: MIFKUJ_clean_linker_0, # of connection points: 2
#     Edge 66, Type (0, 1), BuildingBlock: MIFKUJ_clean_linker_0, # of connection points: 2
#     Edge 67, Type (0, 1), BuildingBlock: MIFKUJ_clean_linker_0, # of connection points: 2
#     Edge 68, Type (0, 1), BuildingBlock: MIFKUJ_clean_linker_0, # of connection points: 2
#     Edge 69, Type (0, 1), BuildingBlock: MIFKUJ_clean_linker_0, # of connection points: 2
#     Edge 70, Type (0, 1), BuildingBlock: MIFKUJ_clean_linker_0, # of connection points: 2
#     Edge 71, Type (0, 1), BuildingBlock: MIFKUJ_clean_linker_0, # of connection points: 2
#     Edge 72, Type (0, 1), BuildingBlock: MIFKUJ_clean_linker_0, # of connection points: 2
#     Edge 73, Type (0, 1), BuildingBlock: MIFKUJ_clean_linker_0, # of connection points: 2
#     Edge 74, Type (0, 1), BuildingBlock: MIFKUJ_clean_linker_0, # of connection points: 2
#     Edge 75, Type (0, 1), BuildingBlock: MIFKUJ_clean_linker_0, # of connection points: 2
#     Edge 76, Type (0, 1), BuildingBlock: MIFKUJ_clean_linker_0, # of connection points: 2
#     Edge 77, Type (0, 1), BuildingBlock: MIFKUJ_clean_linker_0, # of connection points: 2
#     Edge 78, Type (0, 1), BuildingBlock: MIFKUJ_clean_linker_0, # of connection points: 2
#     Edge 79, Type (0, 1), BuildingBlock: MIFKUJ_clean_linker_0, # of connection points: 2
#     Edge 80, Type (0, 1), BuildingBlock: MIFKUJ_clean_linker_0, # of connection points: 2
#     Edge 81, Type (0, 1), BuildingBlock: MIFKUJ_clean_linker_0, # of connection points: 2
#     Edge 82, Type (0, 1), BuildingBlock: MIFKUJ_clean_linker_0, # of connection points: 2
#     Edge 83, Type (0, 1), BuildingBlock: MIFKUJ_clean_linker_0, # of connection points: 2
#     Edge 84, Type (0, 1), BuildingBlock: MIFKUJ_clean_linker_0, # of connection points: 2
#     Edge 85, Type (0, 1), BuildingBlock: MIFKUJ_clean_linker_0, # of connection points: 2
#     Edge 86, Type (0, 1), BuildingBlock: MIFKUJ_clean_linker_0, # of connection points: 2
#     Edge 87, Type (0, 1), BuildingBlock: MIFKUJ_clean_linker_0, # of connection points: 2
#     Edge 88, Type (0, 1), BuildingBlock: MIFKUJ_clean_linker_0, # of connection points: 2
#     Edge 89, Type (0, 1), BuildingBlock: MIFKUJ_clean_linker_0, # of connection points: 2
#     Edge 90, Type (0, 1), BuildingBlock: MIFKUJ_clean_linker_0, # of connection points: 2
#     Edge 91, Type (0, 1), BuildingBlock: MIFKUJ_clean_linker_0, # of connection points: 2
#     Edge 92, Type (0, 1), BuildingBlock: MIFKUJ_clean_linker_0, # of connection points: 2
#     Edge 93, Type (0, 1), BuildingBlock: MIFKUJ_clean_linker_0, # of connection points: 2
#     Edge 94, Type (0, 1), BuildingBlock: MIFKUJ_clean_linker_0, # of connection points: 2
#     Edge 95, Type (0, 1), BuildingBlock: MIFKUJ_clean_linker_0, # of connection points: 2
#     Edge 96, Type (0, 1), BuildingBlock: MIFKUJ_clean_linker_0, # of connection points: 2
#     Edge 97, Type (0, 1), BuildingBlock: MIFKUJ_clean_linker_0, # of connection points: 2
#     Edge 98, Type (0, 1), BuildingBlock: MIFKUJ_clean_linker_0, # of connection points: 2
#     Edge 99, Type (0, 1), BuildingBlock: MIFKUJ_clean_linker_0, # of connection points: 2
#     Edge 100, Type (0, 1), BuildingBlock: MIFKUJ_clean_linker_0, # of connection points: 2
#     Edge 101, Type (0, 1), BuildingBlock: MIFKUJ_clean_linker_0, # of connection points: 2
#     Edge 102, Type (0, 1), BuildingBlock: MIFKUJ_clean_linker_0, # of connection points: 2
#     Edge 103, Type (0, 1), BuildingBlock: MIFKUJ_clean_linker_0, # of connection points: 2
#     Edge 104, Type (0, 1), BuildingBlock: MIFKUJ_clean_linker_0, # of connection points: 2
#     Edge 105, Type (0, 1), BuildingBlock: MIFKUJ_clean_linker_0, # of connection points: 2
#     Edge 106, Type (0, 1), BuildingBlock: MIFKUJ_clean_linker_0, # of connection points: 2
#     Edge 107, Type (0, 1), BuildingBlock: MIFKUJ_clean_linker_0, # of connection points: 2
# Relax obj value: 0.031
# Max RMSD: 0.095
# Mean RMSD: 0.059
data_MOF--net-ptr--node1-QUQFOY_clean_sbu_3--node2-MUDLON_clean_linker_0--edge1-MIFKUJ_clean_linker_0
_symmetry_space_group_name_H-M    P1
_symmetry_Int_Tables_number       1
_symmetry_cell_setting            triclinic
loop_
_symmetry_equiv_pos_as_xyz
'x, y, z'
_cell_length_a     128.74249
_cell_length_b     129.40594
_cell_length_c     78.744417
_cell_angle_alpha  90.183409
_cell_angle_beta   89.680266
_cell_angle_gamma 120.44635
loop_
_atom_site_label
_atom_site_type_symbol
_atom_site_fract_x
_atom_site_fract_y
_atom_site_fract_z
_atom_type_partial_charge
C0 C 0.9683 0.33286 0.01414 0.0
O1 O 0.96341 0.3385 0.02013 0.0
Cd2 Cd 0.97458 0.35936 0.02749 0.0
O3 O 0.97973 0.33801 0.01281 0.0
Cd4 Cd 0.99788 0.35755 0.02019 0.0
C5 C 0.99078 0.37181 0.99058 0.0
O6 O 0.99054 0.36248 0.04608 0.0
O7 O 0.007 0.37669 0.03512 0.0
O8 O 0.00621 0.34635 0.0332 0.0
C9 C -0.00064 0.37313 0.04713 0.0
O10 O 0.98248 0.37035 0.00089 0.0
C11 C 0.01607 0.35131 0.02499 0.0
O12 O 0.99754 0.36751 0.99386 0.0
O13 O 0.01748 0.35914 0.01406 0.0
C14 C 0.6372 0.6665 0.01845 0.0
O15 O 0.62632 0.66096 0.01358 0.0
Cd16 Cd 0.61595 0.64019 0.00595 0.0
O17 O 0.64333 0.66125 0.01847 0.0
Cd18 Cd 0.64068 0.64148 0.00987 0.0
C19 C 0.6202 0.62681 0.04083 0.0
O20 O 0.62776 0.63709 0.98509 0.0
O21 O 0.62865 0.62214 0.99554 0.0
O22 O 0.6593 0.65034 0.99353 0.0
C23 C 0.62513 0.62626 0.98372 0.0
O24 O 0.61305 0.62863 0.03192 0.0
C25 C 0.66465 0.64651 0.00283 0.0
O26 O 0.6311 0.63097 0.03621 0.0
O27 O 0.65891 0.64037 0.01576 0.0
C28 C 0.33421 0.9754 0.01459 0.0
O29 O 0.33886 0.96991 0.00735 0.0
Cd30 Cd 0.35946 0.98016 0.99831 0.0
O31 O 0.34022 0.98677 0.01618 0.0
Cd32 Cd 0.35994 0.0044 0.00782 0.0
C33 C 0.37359 0.99534 0.03535 0.0
O34 O 0.36205 0.99637 0.98082 0.0
O35 O 0.37798 0.01218 0.98978 0.0
O36 O 0.34677 0.012 0.0007 0.0
C37 C 0.37289 0.00446 0.97814 0.0
O38 O 0.3712 0.98708 0.02455 0.0
C39 C 0.35366 0.02261 0.00592 0.0
O40 O 0.37009 0.00285 0.033 0.0
O41 O 0.36367 0.02492 0.01227 0.0
C42 C 0.9687 0.63587 0.00963 0.0
O43 O 0.9638 0.62539 0.01587 0.0
Cd44 Cd 0.97496 0.61655 0.02652 0.0
O45 O 0.98014 0.64249 0.00915 0.0
Cd46 Cd -0.00158 0.64193 0.01788 0.0
C47 C 0.99188 0.61895 0.99101 0.0
O48 O 0.99025 0.63113 0.04463 0.0
O49 O 0.00739 0.63358 0.03667 0.0
O50 O 0.00631 0.6629 0.02541 0.0
C51 C -0.00089 0.62974 0.04778 0.0
O52 O 0.98359 0.61242 0.00156 0.0
C53 C 0.01673 0.66669 0.01913 0.0
O54 O 0.9983 0.63025 0.9932 0.0
O55 O 0.01862 0.659 0.01194 0.0
C56 C 0.33569 0.36506 0.01745 0.0
O57 O 0.34119 0.37574 0.01188 0.0
Cd58 Cd 0.3615 0.38541 0.00124 0.0
O59 O 0.34057 0.35862 0.01682 0.0
Cd60 Cd 0.35922 0.35973 0.00577 0.0
C61 C 0.37669 0.38132 0.03405 0.0
O62 O 0.36173 0.37188 0.98087 0.0
O63 O 0.37672 0.36944 0.98652 0.0
O64 O 0.34679 0.33971 0.99405 0.0
C65 C 0.37205 0.3737 0.97669 0.0
O66 O 0.37504 0.3885 0.02499 0.0
C67 C 0.35224 0.33512 0.00141 0.0
O68 O 0.37136 0.37017 0.03059 0.0
O69 O 0.36096 0.34198 0.011 0.0
C70 C 0.66638 0.02388 0.00525 0.0
O71 O 0.66135 0.02961 0.0103 0.0
Cd72 Cd 0.64071 0.01984 0.01937 0.0
O73 O 0.66066 0.01246 0.00566 0.0
Cd74 Cd 0.64085 0.9955 0.01527 0.0
C75 C 0.62605 0.00151 0.98513 0.0
O76 O 0.63777 0.00513 0.04022 0.0
O77 O 0.62256 0.98834 0.03215 0.0
O78 O 0.65267 0.98759 0.02758 0.0
C79 C 0.627 0.99682 0.04285 0.0
O80 O 0.62848 0.01067 0.99411 0.0
C81 C 0.64652 0.97711 0.02147 0.0
O82 O 0.62991 0.99455 0.98932 0.0
O83 O 0.63762 0.97507 0.01222 0.0
C84 C 0.63564 0.66646 0.33896 0.0
O85 O 0.62988 0.67172 0.34276 0.0
Cd86 Cd 0.63952 0.69213 0.35196 0.0
O87 O 0.64707 0.67193 0.34043 0.0
Cd88 Cd 0.66365 0.69193 0.35009 0.0
C89 C 0.65905 0.70722 0.31911 0.0
O90 O 0.6534 0.69488 0.37418 0.0
O91 O 0.66963 0.71065 0.36549 0.0
O92 O 0.67357 0.68379 0.36717 0.0
C93 C 0.66132 0.70579 0.37654 0.0
O94 O 0.64949 0.70479 0.32723 0.0
C95 C 0.68296 0.68779 0.35802 0.0
O96 O 0.66572 0.7032 0.32412 0.0
O97 O 0.68347 0.69375 0.34496 0.0
C98 C 0.30013 0.00074 0.35627 0.0
O99 O 0.28892 0.99477 0.35315 0.0
Cd100 Cd 0.2789 0.97413 0.34451 0.0
O101 O 0.3066 0.99594 0.35439 0.0
Cd102 Cd 0.30452 0.97666 0.34486 0.0
C103 C 0.2856 0.96097 0.37716 0.0
O104 O 0.29022 0.97215 0.3216 0.0
O105 O 0.2936 0.95805 0.32881 0.0
O106 O 0.32347 0.98813 0.32939 0.0
C107 C 0.28854 0.96175 0.31876 0.0
O108 O 0.27774 0.9624 0.36945 0.0
C109 C 0.3288 0.98333 0.33651 0.0
O110 O 0.29633 0.9657 0.37149 0.0
O111 O 0.32286 0.97541 0.34769 0.0
C112 C 0.00277 0.30875 0.34811 0.0
O113 O 0.00741 0.30299 0.3417 0.0
Cd114 Cd 0.02801 0.31217 0.33295 0.0
O115 O 0.00889 0.32014 0.34932 0.0
Cd116 Cd 0.02921 0.33695 0.34097 0.0
C117 C 0.04244 0.3278 0.36938 0.0
O118 O 0.03142 0.3282 0.31449 0.0
O119 O 0.04736 0.3439 0.32364 0.0
O120 O 0.01812 0.34674 0.33231 0.0
C121 C 0.04238 0.33607 0.31211 0.0
O122 O 0.03996 0.31931 0.35895 0.0
C123 C 0.02574 0.35703 0.33796 0.0
O124 O 0.03903 0.33533 0.36655 0.0
O125 O 0.03491 0.35799 0.34542 0.0
C126 C 0.63726 0.96393 0.34324 0.0
O127 O 0.63313 0.95338 0.34893 0.0
Cd128 Cd 0.64547 0.94553 0.35818 0.0
O129 O 0.64859 0.97125 0.34268 0.0
Cd130 Cd 0.66748 0.9718 0.35122 0.0
C131 C 0.66327 0.9504 0.3228 0.0
O132 O 0.65963 0.96013 0.37739 0.0
O133 O 0.67706 0.96353 0.36918 0.0
O134 O 0.67411 0.99232 0.3601 0.0
C135 C 0.66879 0.95922 0.38033 0.0
O136 O 0.65526 0.94299 0.33301 0.0
C137 C 0.68468 0.99684 0.35402 0.0
O138 O 0.6686 0.96163 0.32565 0.0
O139 O 0.68723 0.98975 0.34636 0.0
C140 C 0.00154 0.70081 0.35315 0.0
O141 O 0.00707 0.71142 0.3473 0.0
Cd142 Cd 0.0273 0.7211 0.33664 0.0
O143 O 0.0065 0.69443 0.35303 0.0
Cd144 Cd 0.02562 0.69595 0.34295 0.0
C145 C 0.04204 0.71811 0.37102 0.0
O146 O 0.0279 0.70729 0.31706 0.0
O147 O 0.04335 0.70607 0.32429 0.0
O148 O 0.01305 0.67513 0.33384 0.0
C149 C 0.03844 0.70948 0.31353 0.0
O150 O 0.04051 0.72497 0.36108 0.0
C151 C 0.01998 0.67162 0.33942 0.0
O152 O 0.03691 0.70688 0.36814 0.0
O153 O 0.02946 0.67937 0.34699 0.0
C154 C 0.33218 0.3601 0.33991 0.0
O155 O 0.32677 0.36509 0.34636 0.0
Cd156 Cd 0.30666 0.35422 0.35736 0.0
O157 O 0.32723 0.3487 0.33984 0.0
Cd158 Cd 0.30844 0.33094 0.35086 0.0
C159 C 0.29135 0.33577 0.32343 0.0
O160 O 0.30615 0.33992 0.37688 0.0
O161 O 0.2905 0.32343 0.36909 0.0
O162 O 0.32129 0.32351 0.36099 0.0
C163 C 0.29549 0.33164 0.38013 0.0
O164 O 0.2931 0.34431 0.33335 0.0
C165 C 0.31493 0.31296 0.35521 0.0
O166 O 0.29661 0.32981 0.32596 0.0
O167 O 0.30552 0.3107 0.34706 0.0
C168 C 0.30345 0.00274 0.66962 0.0
O169 O 0.29811 0.00838 0.6737 0.0
Cd170 Cd 0.30826 0.02854 0.68416 0.0
O171 O 0.31483 0.00765 0.67136 0.0
Cd172 Cd 0.33222 0.0268 0.68203 0.0
C173 C 0.3285 0.04328 0.6517 0.0
O174 O 0.32155 0.02937 0.70597 0.0
O175 O 0.33939 0.04419 0.7009 0.0
O176 O 0.33937 0.01438 0.69461 0.0
C177 C 0.33008 0.03963 0.71026 0.0
O178 O 0.31909 0.04122 0.6599 0.0
C179 C 0.35003 0.02031 0.68881 0.0
O180 O 0.33476 0.03871 0.65643 0.0
O181 O 0.35248 0.02929 0.67955 0.0
C182 C 0.96784 0.33355 0.68333 0.0
O183 O 0.95683 0.32731 0.6792 0.0
Cd184 Cd 0.9477 0.30701 0.66926 0.0
O185 O 0.97476 0.32921 0.6822 0.0
Cd186 Cd 0.9739 0.31037 0.67329 0.0
C187 C 0.95316 0.29383 0.70335 0.0
O188 O 0.96089 0.30609 0.64857 0.0
O189 O 0.96435 0.29211 0.65616 0.0
O190 O 0.99335 0.32281 0.65979 0.0
C191 C 0.95957 0.29585 0.64566 0.0
O192 O 0.94573 0.295 0.6941 0.0
C193 C -0.00129 0.31813 0.66716 0.0
O194 O 0.96431 0.29908 0.69943 0.0
O195 O 0.99254 0.30982 0.67774 0.0
C196 C 0.674 0.6418 0.68917 0.0
O197 O 0.67984 0.63666 0.6851 0.0
Cd198 Cd 0.69962 0.64717 0.67283 0.0
O199 O 0.67865 0.65306 0.68707 0.0
Cd200 Cd 0.69763 0.67048 0.67625 0.0
C201 C 0.71507 0.66704 0.70497 0.0
O202 O 0.69898 0.65993 0.65139 0.0
O203 O 0.71465 0.67716 0.6563 0.0
O204 O 0.68372 0.67703 0.66772 0.0
C205 C 0.70928 0.66816 0.64658 0.0
O206 O 0.71361 0.65829 0.69577 0.0
C207 C 0.69066 0.68803 0.67114 0.0
O208 O 0.70947 0.67257 0.70169 0.0
O209 O 0.70095 0.69098 0.67707 0.0
C210 C 0.30548 0.30206 0.6696 0.0
O211 O 0.3006 0.29092 0.67265 0.0
Cd212 Cd 0.31121 0.28158 0.6837 0.0
O213 O 0.31671 0.30907 0.67207 0.0
Cd214 Cd 0.33435 0.30788 0.68204 0.0
C215 C 0.3319 0.2879 0.65191 0.0
O216 O 0.32406 0.29428 0.7058 0.0
O217 O 0.3421 0.29809 0.70035 0.0
O218 O 0.34146 0.32725 0.69558 0.0
C219 C 0.33284 0.29296 0.70981 0.0
O220 O 0.32291 0.28007 0.66042 0.0
C221 C 0.35184 0.33243 0.68876 0.0
O222 O 0.33722 0.29893 0.65613 0.0
O223 O 0.35414 0.32621 0.67858 0.0
C224 C 0.6679 0.034 0.68594 0.0
O225 O 0.67417 0.04485 0.68122 0.0
Cd226 Cd 0.69393 0.05364 0.66903 0.0
O227 O 0.67192 0.02685 0.6842 0.0
Cd228 Cd 0.69026 0.02728 0.67285 0.0
C229 C 0.70888 0.04856 0.70101 0.0
O230 O 0.69288 0.03971 0.64813 0.0
O231 O 0.70734 0.0363 0.65292 0.0
O232 O 0.67734 0.00713 0.66146 0.0
C233 C 0.70286 0.04091 0.64341 0.0
O234 O 0.70743 0.05599 0.69227 0.0
C235 C 0.68307 0.00259 0.66815 0.0
O236 O 0.70317 0.03742 0.69736 0.0
O237 O 0.69202 0.00949 0.67736 0.0
C238 C 0.99593 0.69431 0.66717 0.0
O239 O 0.99021 0.69963 0.67094 0.0
Cd240 Cd 0.97024 0.6901 0.68274 0.0
O241 O 0.99112 0.68304 0.6695 0.0
Cd242 Cd 0.97182 0.66615 0.6808 0.0
C243 C 0.95408 0.66937 0.65189 0.0
O244 O 0.97008 0.67731 0.7046 0.0
O245 O 0.9548 0.65963 0.70073 0.0
O246 O 0.98327 0.65786 0.69359 0.0
C247 C 0.95982 0.6691 0.70961 0.0
O248 O 0.956 0.6786 0.66026 0.0
C249 C 0.97719 0.64754 0.68694 0.0
O250 O 0.95941 0.66367 0.65577 0.0
O251 O 0.96867 0.64589 0.67715 0.0
H252 H 0.20082 0.32646 0.16169 0.0
N253 N 0.19343 0.30877 0.13753 0.0
H254 H 0.21067 0.3273 0.18832 0.0
H255 H 0.19489 0.29106 0.15209 0.0
H256 H 0.20432 0.29158 0.17922 0.0
H257 H 0.19297 0.2985 0.10788 0.0
H258 H 0.20976 0.30456 0.08764 0.0
H259 H 0.21594 0.32902 0.13928 0.0
H260 H 0.2326 0.33468 0.11964 0.0
H261 H 0.19854 0.3316 0.12954 0.0
H262 H 0.16966 0.2959 0.14116 0.0
H263 H 0.18409 0.3382 0.12586 0.0
H264 H 0.15508 0.3026 0.13844 0.0
H265 H 0.13451 0.35437 0.14767 0.0
H266 H 0.12315 0.35235 0.17371 0.0
H267 H 0.10854 0.31404 0.17272 0.0
H268 H 0.12001 0.31619 0.1467 0.0
H269 H 0.11371 0.3167 0.11838 0.0
H270 H 0.09965 0.31585 0.09722 0.0
H271 H 0.12308 0.35366 0.08722 0.0
H272 H 0.13746 0.35422 0.10785 0.0
H273 H 0.15669 0.34936 0.13947 0.0
H274 H 0.17129 0.34268 0.14133 0.0
H275 H 0.14531 0.3087 0.11908 0.0
N276 N 0.13409 0.33701 0.12923 0.0
H277 H 0.13065 0.31525 0.1181 0.0
C278 C 0.19716 0.30868 0.15478 0.0
C279 C 0.2013 0.3187 0.16554 0.0
C280 C 0.20694 0.31915 0.18087 0.0
C281 C 0.20845 0.30956 0.18588 0.0
C282 C 0.20357 0.29924 0.17561 0.0
C283 C 0.19805 0.29885 0.1602 0.0
C284 C 0.20317 0.3131 0.12528 0.0
C285 C 0.20156 0.30648 0.11038 0.0
C286 C 0.2111 0.30993 0.09889 0.0
C287 C 0.22242 0.31997 0.10231 0.0
C288 C 0.22396 0.32682 0.1169 0.0
C289 C 0.2144 0.32352 0.12818 0.0
C290 C 0.18517 0.31313 0.13543 0.0
C291 C 0.18909 0.32514 0.13131 0.0
C292 C 0.18077 0.32896 0.12938 0.0
C293 C 0.16836 0.32095 0.13182 0.0
C294 C 0.16451 0.30898 0.13611 0.0
C295 C 0.17283 0.30514 0.13782 0.0
C296 C 0.12807 0.33548 0.14527 0.0
C297 C 0.12898 0.34558 0.15324 0.0
C298 C 0.12252 0.34439 0.16811 0.0
C299 C 0.11495 0.33302 0.17524 0.0
C300 C 0.11422 0.32289 0.16741 0.0
C301 C 0.12078 0.32411 0.15258 0.0
C302 C 0.12679 0.33555 0.11459 0.0
C303 C 0.11611 0.3247 0.11119 0.0
C304 C 0.10793 0.32428 0.09921 0.0
C305 C 0.1101 0.33473 0.09064 0.0
C306 C 0.12113 0.34539 0.09338 0.0
C307 C 0.12937 0.34576 0.1052 0.0
C308 C 0.14262 0.33293 0.12851 0.0
C309 C 0.15422 0.34051 0.13486 0.0
C310 C 0.16256 0.33668 0.13583 0.0
C311 C 0.15953 0.32513 0.13031 0.0
C312 C 0.14793 0.31758 0.12369 0.0
C313 C 0.13952 0.32139 0.12292 0.0
H314 H 0.71134 0.8016 0.14807 0.0
N315 N 0.69813 0.80997 0.13492 0.0
H316 H 0.70752 0.7901 0.17419 0.0
H317 H 0.68132 0.8065 0.15921 0.0
H318 H 0.67773 0.79549 0.1858 0.0
H319 H 0.67432 0.79252 0.13317 0.0
H320 H 0.66566 0.77525 0.11417 0.0
H321 H 0.70868 0.80666 0.10796 0.0
H322 H 0.70003 0.7893 0.0888 0.0
H323 H 0.71418 0.83152 0.14635 0.0
H324 H 0.67971 0.81257 0.12137 0.0
H325 H 0.71329 0.84987 0.14571 0.0
H326 H 0.67913 0.83095 0.11961 0.0
H327 H 0.71234 0.90635 0.14675 0.0
H328 H 0.7104 0.91522 0.17325 0.0
H329 H 0.67436 0.88503 0.17996 0.0
H330 H 0.67652 0.87617 0.15392 0.0
H331 H 0.67209 0.87913 0.12592 0.0
H332 H 0.66475 0.88767 0.10493 0.0
H333 H 0.7009 0.90912 0.08496 0.0
H334 H 0.70822 0.9008 0.10654 0.0
H335 H 0.71472 0.88364 0.12857 0.0
H336 H 0.71517 0.86502 0.12825 0.0
H337 H 0.6764 0.84494 0.13435 0.0
N338 N 0.69576 0.88631 0.13191 0.0
H339 H 0.67606 0.86356 0.13327 0.0
C340 C 0.6967 0.80495 0.15171 0.0
C341 C 0.70413 0.80046 0.15644 0.0
C342 C 0.70194 0.79392 0.17143 0.0
C343 C 0.69227 0.79179 0.18214 0.0
C344 C 0.68512 0.79677 0.17773 0.0
C345 C 0.68725 0.8032 0.16262 0.0
C346 C 0.69222 0.80089 0.12202 0.0
C347 C 0.67996 0.79203 0.12335 0.0
C348 C 0.67502 0.78212 0.11253 0.0
C349 C 0.68221 0.78085 0.10015 0.0
C350 C 0.69426 0.79006 0.09816 0.0
C351 C 0.69921 0.79997 0.10907 0.0
C352 C 0.69714 0.82062 0.13385 0.0
C353 C 0.70649 0.83135 0.14054 0.0
C354 C 0.706 0.84187 0.13999 0.0
C355 C 0.69619 0.84202 0.13242 0.0
C356 C 0.68677 0.83122 0.12574 0.0
C357 C 0.68716 0.82062 0.1266 0.0
C358 C 0.69464 0.89061 0.14832 0.0
C359 C 0.70411 0.9016 0.15413 0.0
C360 C 0.70294 0.90669 0.16917 0.0
C361 C 0.6922 0.90087 0.1787 0.0
C362 C 0.68282 0.88969 0.17307 0.0
C363 C 0.68402 0.88461 0.15805 0.0
C364 C 0.69077 0.88945 0.11789 0.0
C365 C 0.67842 0.88551 0.11689 0.0
C366 C 0.67421 0.89038 0.10477 0.0
C367 C 0.68226 0.89922 0.09337 0.0
C368 C 0.69449 0.90253 0.09376 0.0
C369 C 0.69868 0.89771 0.10594 0.0
C370 C 0.69544 0.87504 0.13123 0.0
C371 C 0.70634 0.87518 0.1297 0.0
C372 C 0.70656 0.8645 0.12972 0.0
C373 C 0.69584 0.85338 0.13157 0.0
C374 C 0.68485 0.85327 0.13278 0.0
C375 C 0.68464 0.86398 0.13242 0.0
H376 H 0.11398 0.78587 0.13486 0.0
N377 N 0.11445 0.8066 0.12613 0.0
H378 H 0.10547 0.77421 0.1607 0.0
H379 H 0.10516 0.81207 0.15262 0.0
H380 H 0.09653 0.80035 0.17868 0.0
H381 H 0.09249 0.79757 0.11356 0.0
H382 H 0.08292 0.78216 0.09192 0.0
H383 H 0.12603 0.79841 0.10523 0.0
H384 H 0.11685 0.7837 0.08265 0.0
H385 H 0.13357 0.80522 0.13909 0.0
H386 H 0.12408 0.82833 0.11248 0.0
H387 H 0.15437 0.82117 0.14013 0.0
H388 H 0.14525 0.84424 0.11228 0.0
H389 H 0.21692 0.86918 0.15192 0.0
H390 H 0.22611 0.87938 0.17858 0.0
H391 H 0.20335 0.89502 0.17891 0.0
H392 H 0.19466 0.88523 0.15203 0.0
H393 H 0.2002 0.89109 0.12285 0.0
H394 H 0.21347 0.90582 0.10181 0.0
H395 H 0.23002 0.88448 0.092 0.0
H396 H 0.21658 0.86977 0.11285 0.0
H397 H 0.19287 0.8483 0.12881 0.0
H398 H 0.172 0.83231 0.12511 0.0
H399 H 0.16051 0.85839 0.12937 0.0
N400 N 0.20112 0.87144 0.13328 0.0
H401 H 0.18144 0.8743 0.1316 0.0
C402 C 0.11009 0.79984 0.14173 0.0
C403 C 0.11021 0.78913 0.14432 0.0
C404 C 0.1053 0.78244 0.15909 0.0
C405 C 0.10024 0.78631 0.17164 0.0
C406 C 0.10043 0.79718 0.16927 0.0
C407 C 0.1053 0.80385 0.15441 0.0
C408 C 0.10994 0.79921 0.11109 0.0
C409 C 0.09789 0.79471 0.10662 0.0
C410 C 0.09246 0.78592 0.09412 0.0
C411 C 0.09905 0.78154 0.08546 0.0
C412 C 0.11137 0.7866 0.08925 0.0
C413 C 0.11673 0.79521 0.10206 0.0
C414 C 0.12711 0.81564 0.126 0.0
C415 C 0.13592 0.81371 0.13335 0.0
C416 C 0.14797 0.82287 0.13371 0.0
C417 C 0.1516 0.8341 0.12633 0.0
C418 C 0.14281 0.83585 0.11846 0.0
C419 C 0.13071 0.82673 0.1184 0.0
C420 C 0.20506 0.87633 0.15001 0.0
C421 C 0.21381 0.87467 0.15794 0.0
C422 C 0.21901 0.88048 0.1732 0.0
C423 C 0.2155 0.88807 0.18091 0.0
C424 C 0.2064 0.88939 0.17321 0.0
C425 C 0.20129 0.88365 0.15786 0.0
C426 C 0.20745 0.87934 0.11938 0.0
C427 C 0.2065 0.88947 0.11591 0.0
C428 C 0.21415 0.89792 0.10396 0.0
C429 C 0.22285 0.89636 0.09527 0.0
C430 C 0.22333 0.8859 0.09825 0.0
C431 C 0.2157 0.8775 0.11019 0.0
C432 C 0.1887 0.86242 0.13087 0.0
C433 C 0.1858 0.85051 0.12884 0.0
C434 C 0.17384 0.84138 0.12688 0.0
C435 C 0.16444 0.84396 0.12722 0.0
C436 C 0.16744 0.85601 0.12891 0.0
C437 C 0.17946 0.86516 0.1305 0.0
H438 H 0.35375 0.22489 0.8767 0.0
N439 N 0.33709 0.20575 0.89318 0.0
H440 H 0.35133 0.23377 0.85079 0.0
H441 H 0.31658 0.19672 0.87416 0.0
H442 H 0.3141 0.2053 0.84786 0.0
H443 H 0.31629 0.20512 0.90264 0.0
H444 H 0.31432 0.2173 0.92479 0.0
H445 H 0.35348 0.21928 0.91605 0.0
H446 H 0.35174 0.23174 0.93798 0.0
H447 H 0.34506 0.19432 0.87397 0.0
H448 H 0.31933 0.18819 0.91375 0.0
H449 H 0.33854 0.17309 0.87388 0.0
H450 H 0.31341 0.16722 0.91454 0.0
H451 H 0.3319 0.11821 0.88605 0.0
H452 H 0.33449 0.10934 0.86016 0.0
H453 H 0.29862 0.09979 0.8443 0.0
H454 H 0.29606 0.10858 0.87049 0.0
H455 H 0.29779 0.09665 0.9085 0.0
H456 H 0.30286 0.08678 0.93052 0.0
H457 H 0.33629 0.11985 0.93957 0.0
H458 H 0.33151 0.1294 0.91705 0.0
H459 H 0.33406 0.13762 0.88901 0.0
H460 H 0.33986 0.1586 0.88901 0.0
H461 H 0.30311 0.14872 0.90092 0.0
N462 N 0.31158 0.11844 0.89589 0.0
H463 H 0.2976 0.12765 0.90203 0.0
C464 C 0.33541 0.21017 0.87726 0.0
C465 C 0.34511 0.22054 0.87034 0.0
C466 C 0.34371 0.22554 0.85549 0.0
C467 C 0.33253 0.22021 0.84716 0.0
C468 C 0.3228 0.2097 0.85403 0.0
C469 C 0.32421 0.20474 0.86899 0.0
C470 C 0.33508 0.21133 0.90773 0.0
C471 C 0.32399 0.21074 0.91052 0.0
C472 C 0.3229 0.21775 0.92314 0.0
C473 C 0.33289 0.22557 0.93309 0.0
C474 C 0.34381 0.2257 0.93074 0.0
C475 C 0.34485 0.21864 0.91819 0.0
C476 C 0.33276 0.19302 0.89373 0.0
C477 C 0.33806 0.18842 0.88275 0.0
C478 C 0.33439 0.17626 0.88287 0.0
C479 C 0.32549 0.16836 0.89433 0.0
C480 C 0.32015 0.17295 0.90535 0.0
C481 C 0.32365 0.18509 0.90498 0.0
C482 C 0.31373 0.11403 0.88019 0.0
C483 C 0.32464 0.11434 0.87694 0.0
C484 C 0.32613 0.10929 0.86208 0.0
C485 C 0.31674 0.10383 0.85019 0.0
C486 C 0.30596 0.10379 0.85331 0.0
C487 C 0.30449 0.10886 0.86817 0.0
C488 C 0.31416 0.11375 0.91092 0.0
C489 C 0.30612 0.10181 0.91545 0.0
C490 C 0.30902 0.0962 0.92814 0.0
C491 C 0.32005 0.10248 0.93683 0.0
C492 C 0.32784 0.11465 0.93293 0.0
C493 C 0.32501 0.1202 0.92003 0.0
C494 C 0.31537 0.13102 0.89577 0.0
C495 C 0.32725 0.13993 0.89179 0.0
C496 C 0.33054 0.152 0.8916 0.0
C497 C 0.32197 0.15546 0.89489 0.0
C498 C 0.31004 0.14648 0.89864 0.0
C499 C 0.30683 0.13442 0.89918 0.0
H500 H 0.78889 0.11422 0.87685 0.0
N501 N 0.80838 0.11312 0.88848 0.0
H502 H 0.77815 0.10591 0.85045 0.0
H503 H 0.8136 0.10208 0.86421 0.0
H504 H 0.8027 0.09357 0.83755 0.0
H505 H 0.80256 0.09251 0.90339 0.0
H506 H 0.78642 0.08145 0.92416 0.0
H507 H 0.79608 0.12208 0.90634 0.0
H508 H 0.78015 0.11118 0.92695 0.0
H509 H 0.8057 0.13258 0.88221 0.0
H510 H 0.83159 0.1222 0.89538 0.0
H511 H 0.82124 0.15344 0.88306 0.0
H512 H 0.84762 0.14327 0.89501 0.0
H513 H 0.87135 0.21785 0.87071 0.0
H514 H 0.88346 0.22801 0.84563 0.0
H515 H 0.89889 0.20512 0.84693 0.0
H516 H 0.88669 0.19505 0.87228 0.0
H517 H 0.89143 0.20172 0.902 0.0
H518 H 0.90359 0.21476 0.92524 0.0
H519 H 0.87784 0.22655 0.93203 0.0
H520 H 0.86563 0.2132 0.90914 0.0
H521 H 0.8523 0.18915 0.86865 0.0
H522 H 0.83744 0.16786 0.86803 0.0
H523 H 0.85628 0.16187 0.90865 0.0
N524 N 0.87136 0.20059 0.88858 0.0
H525 H 0.87157 0.18303 0.90828 0.0
C526 C 0.8022 0.10889 0.87248 0.0
C527 C 0.79216 0.10995 0.8683 0.0
C528 C 0.78598 0.10517 0.85315 0.0
C529 C 0.7896 0.09912 0.84191 0.0
C530 C 0.79967 0.09813 0.84603 0.0
C531 C 0.80593 0.10303 0.86115 0.0
C532 C 0.80059 0.1081 0.90313 0.0
C533 C 0.79791 0.09675 0.90885 0.0
C534 C 0.7887 0.09046 0.92071 0.0
C535 C 0.78193 0.09541 0.92702 0.0
C536 C 0.7851 0.10707 0.9221 0.0
C537 C 0.79433 0.11337 0.91031 0.0
C538 C 0.8174 0.12571 0.88902 0.0
C539 C 0.81473 0.13473 0.88532 0.0
C540 C 0.82377 0.14678 0.88554 0.0
C541 C 0.83581 0.15016 0.88895 0.0
C542 C 0.83846 0.1411 0.89258 0.0
C543 C 0.82933 0.12903 0.8927 0.0
C544 C 0.87812 0.20575 0.87324 0.0
C545 C 0.87726 0.21498 0.86545 0.0
C546 C 0.88415 0.22071 0.8511 0.0
C547 C 0.89208 0.21731 0.84421 0.0
C548 C 0.89291 0.20797 0.852 0.0
C549 C 0.88594 0.2022 0.86641 0.0
C550 C 0.87759 0.20649 0.90394 0.0
C551 C 0.88828 0.20689 0.9088 0.0
C552 C 0.89526 0.21444 0.922 0.0
C553 C 0.89176 0.22179 0.93046 0.0
C554 C 0.88075 0.2209 0.92603 0.0
C555 C 0.87376 0.21331 0.91292 0.0
C556 C 0.86305 0.18781 0.8885 0.0
C557 C 0.85329 0.18321 0.8773 0.0
C558 C 0.8447 0.17102 0.87713 0.0
C559 C 0.84547 0.16307 0.88851 0.0
C560 C 0.8554 0.16765 0.89958 0.0
C561 C 0.86416 0.17986 0.89948 0.0
H562 H 0.80261 0.71226 0.8856 0.0
N563 N 0.80866 0.69702 0.89821 0.0
H564 H 0.79247 0.7107 0.85871 0.0
H565 H 0.80328 0.68011 0.8736 0.0
H566 H 0.79265 0.67809 0.84711 0.0
H567 H 0.79126 0.67319 0.89908 0.0
H568 H 0.77399 0.66392 0.91831 0.0
H569 H 0.80542 0.70658 0.92628 0.0
H570 H 0.78814 0.69723 0.94587 0.0
H571 H 0.82991 0.71311 0.88562 0.0
H572 H 0.81181 0.67877 0.91083 0.0
H573 H 0.84836 0.71228 0.88438 0.0
H574 H 0.83038 0.6783 0.91081 0.0
H575 H 0.90719 0.71021 0.88177 0.0
H576 H 0.9163 0.70774 0.85582 0.0
H577 H 0.88302 0.67516 0.84448 0.0
H578 H 0.87402 0.67765 0.87032 0.0
H579 H 0.87889 0.6715 0.89813 0.0
H580 H 0.88736 0.66344 0.91819 0.0
H581 H 0.90788 0.69839 0.94148 0.0
H582 H 0.89953 0.70642 0.921 0.0
H583 H 0.88294 0.71393 0.89811 0.0
H584 H 0.86421 0.71427 0.90011 0.0
H585 H 0.844 0.67565 0.89487 0.0
N586 N 0.88565 0.69511 0.89459 0.0
H587 H 0.8628 0.67543 0.89436 0.0
C588 C 0.80364 0.69631 0.88162 0.0
C589 C 0.8006 0.7049 0.87708 0.0
C590 C 0.7947 0.7039 0.8618 0.0
C591 C 0.79161 0.69419 0.85078 0.0
C592 C 0.79499 0.68576 0.85516 0.0
C593 C 0.80099 0.68683 0.87039 0.0
C594 C 0.7996 0.69069 0.91112 0.0
C595 C 0.79078 0.6785 0.90934 0.0
C596 C 0.7809 0.67319 0.92035 0.0
C597 C 0.77969 0.6799 0.93345 0.0
C598 C 0.7889 0.69184 0.93592 0.0
C599 C 0.79874 0.69719 0.92477 0.0
C600 C 0.81941 0.69611 0.89833 0.0
C601 C 0.82996 0.70546 0.89109 0.0
C602 C 0.84056 0.70501 0.89056 0.0
C603 C 0.841 0.69527 0.89765 0.0
C604 C 0.83041 0.68587 0.90497 0.0
C605 C 0.81971 0.68621 0.90516 0.0
C606 C 0.88993 0.69422 0.87801 0.0
C607 C 0.90181 0.70268 0.87348 0.0
C608 C 0.90701 0.70119 0.85876 0.0
C609 C 0.90038 0.69121 0.8482 0.0
C610 C 0.8883 0.68299 0.85232 0.0
C611 C 0.88314 0.68443 0.86715 0.0
C612 C 0.88864 0.6896 0.90807 0.0
C613 C 0.88497 0.67736 0.90779 0.0
C614 C 0.88983 0.67276 0.91931 0.0
C615 C 0.89841 0.68031 0.93132 0.0
C616 C 0.90146 0.69238 0.9322 0.0
C617 C 0.89662 0.69696 0.92065 0.0
C618 C 0.8743 0.69474 0.89575 0.0
C619 C 0.87443 0.70556 0.89747 0.0
C620 C 0.86368 0.70571 0.89843 0.0
C621 C 0.85247 0.69499 0.89737 0.0
C622 C 0.85239 0.68409 0.89588 0.0
C623 C 0.86319 0.68395 0.8953 0.0
H624 H 0.75697 0.62414 0.47218 0.0
N625 N 0.77809 0.63909 0.45787 0.0
H626 H 0.74897 0.62674 0.49905 0.0
H627 H 0.79044 0.65695 0.48106 0.0
H628 H 0.78232 0.66012 0.5073 0.0
H629 H 0.78555 0.66307 0.45554 0.0
H630 H 0.77714 0.67185 0.43677 0.0
H631 H 0.76441 0.62888 0.43073 0.0
H632 H 0.7561 0.63779 0.41155 0.0
H633 H 0.78147 0.62135 0.46679 0.0
H634 H 0.80056 0.65778 0.44857 0.0
H635 H 0.80039 0.62145 0.46875 0.0
H636 H 0.81942 0.65775 0.44942 0.0
H637 H 0.85798 0.62115 0.47928 0.0
H638 H 0.86766 0.62127 0.50603 0.0
H639 H 0.87268 0.65617 0.51774 0.0
H640 H 0.86268 0.65575 0.49155 0.0
H641 H 0.87235 0.66275 0.46511 0.0
H642 H 0.89014 0.67221 0.4469 0.0
H643 H 0.87847 0.63829 0.42201 0.0
H644 H 0.86057 0.62885 0.44036 0.0
H645 H 0.83427 0.62073 0.45751 0.0
H646 H 0.81555 0.6209 0.45366 0.0
H647 H 0.83397 0.65842 0.46756 0.0
N648 N 0.85561 0.63875 0.46636 0.0
H649 H 0.8527 0.65831 0.47005 0.0
C650 C 0.77419 0.64038 0.47454 0.0
C651 C 0.76258 0.6319 0.47999 0.0
C652 C 0.758 0.63349 0.49525 0.0
C653 C 0.7649 0.64377 0.50528 0.0
C654 C 0.77674 0.65206 0.50005 0.0
C655 C 0.78138 0.65033 0.48492 0.0
C656 C 0.7755 0.64519 0.44468 0.0
C657 C 0.77933 0.65748 0.44582 0.0
C658 C 0.7745 0.66253 0.43508 0.0
C659 C 0.76588 0.65546 0.42286 0.0
C660 C 0.76277 0.64344 0.42083 0.0
C661 C 0.76751 0.63835 0.43173 0.0
C662 C 0.78948 0.63944 0.45741 0.0
C663 C 0.78974 0.62929 0.46288 0.0
C664 C 0.80059 0.62936 0.46388 0.0
C665 C 0.81152 0.63959 0.45914 0.0
C666 C 0.81124 0.64976 0.45342 0.0
C667 C 0.80037 0.64974 0.45273 0.0
C668 C 0.85957 0.63839 0.48332 0.0
C669 C 0.86092 0.62868 0.48787 0.0
C670 C 0.86657 0.62883 0.50305 0.0
C671 C 0.87109 0.6388 0.51398 0.0
C672 C 0.86922 0.64829 0.50976 0.0
C673 C 0.86351 0.64808 0.49462 0.0
C674 C 0.86512 0.64503 0.45412 0.0
C675 C 0.87343 0.65737 0.45556 0.0
C676 C 0.88367 0.66277 0.44519 0.0
C677 C 0.88575 0.65597 0.43315 0.0
C678 C 0.87707 0.64379 0.43109 0.0
C679 C 0.86687 0.63838 0.44154 0.0
C680 C 0.84483 0.63938 0.46439 0.0
C681 C 0.83422 0.62898 0.45967 0.0
C682 C 0.82351 0.6291 0.45761 0.0
C683 C 0.82312 0.63964 0.4605 0.0
C684 C 0.83387 0.65014 0.46505 0.0
C685 C 0.84463 0.65005 0.46679 0.0
H686 H 0.37977 0.13711 0.47941 0.0
N687 N 0.36666 0.14587 0.46717 0.0
H688 H 0.37614 0.12538 0.50523 0.0
H689 H 0.35001 0.14216 0.49187 0.0
H690 H 0.34668 0.13101 0.51825 0.0
H691 H 0.34308 0.12789 0.46528 0.0
H692 H 0.33475 0.11128 0.44523 0.0
H693 H 0.37732 0.14388 0.43933 0.0
H694 H 0.36892 0.12741 0.41871 0.0
H695 H 0.38337 0.16756 0.47723 0.0
H696 H 0.34765 0.14828 0.45599 0.0
H697 H 0.38265 0.18601 0.47677 0.0
H698 H 0.34717 0.16675 0.45433 0.0
H699 H 0.38263 0.24213 0.47905 0.0
H700 H 0.3815 0.25162 0.50545 0.0
H701 H 0.34454 0.22324 0.51219 0.0
H702 H 0.34588 0.21376 0.48631 0.0
H703 H 0.34142 0.21519 0.45808 0.0
H704 H 0.33405 0.22376 0.43718 0.0
H705 H 0.37027 0.24563 0.41763 0.0
H706 H 0.37761 0.23734 0.43919 0.0
H707 H 0.38367 0.21951 0.45916 0.0
H708 H 0.38382 0.20073 0.45901 0.0
H709 H 0.34546 0.18133 0.46915 0.0
N710 N 0.36511 0.22261 0.46432 0.0
H711 H 0.34534 0.20005 0.46788 0.0
C712 C 0.36526 0.14057 0.48375 0.0
C713 C 0.37266 0.13595 0.48801 0.0
C714 C 0.37059 0.12929 0.50285 0.0
C715 C 0.36109 0.12719 0.51391 0.0
C716 C 0.35395 0.13225 0.50993 0.0
C717 C 0.35594 0.13878 0.49493 0.0
C718 C 0.3609 0.13711 0.45385 0.0
C719 C 0.34874 0.12797 0.45501 0.0
C720 C 0.34395 0.11848 0.44343 0.0
C721 C 0.35119 0.11794 0.43042 0.0
C722 C 0.36316 0.12745 0.42875 0.0
C723 C 0.36794 0.13692 0.44038 0.0
C724 C 0.36571 0.15653 0.46648 0.0
C725 C 0.37543 0.16734 0.47227 0.0
C726 C 0.37502 0.17792 0.47183 0.0
C727 C 0.36491 0.178 0.46528 0.0
C728 C 0.35508 0.16709 0.45962 0.0
C729 C 0.3554 0.15645 0.46039 0.0
C730 C 0.36441 0.22724 0.48067 0.0
C731 C 0.37437 0.2379 0.48643 0.0
C732 C 0.37366 0.24334 0.50141 0.0
C733 C 0.36291 0.23822 0.51092 0.0
C734 C 0.35302 0.22736 0.50533 0.0
C735 C 0.35376 0.22192 0.49039 0.0
C736 C 0.36014 0.22577 0.45032 0.0
C737 C 0.34776 0.2217 0.44919 0.0
C738 C 0.34353 0.22657 0.4371 0.0
C739 C 0.35158 0.23553 0.42584 0.0
C740 C 0.36385 0.23896 0.42633 0.0
C741 C 0.36806 0.23416 0.43851 0.0
C742 C 0.36459 0.21124 0.46381 0.0
C743 C 0.3753 0.21116 0.46121 0.0
C744 C 0.37537 0.2004 0.46134 0.0
C745 C 0.36468 0.18943 0.46437 0.0
C746 C 0.35387 0.18953 0.46666 0.0
C747 C 0.3538 0.20031 0.46619 0.0
H748 H 0.78229 0.11845 0.4678 0.0
N749 N 0.78265 0.13901 0.45852 0.0
H750 H 0.77354 0.10691 0.49369 0.0
H751 H 0.77327 0.1447 0.4846 0.0
H752 H 0.76454 0.1332 0.51076 0.0
H753 H 0.76011 0.12957 0.4481 0.0
H754 H 0.74964 0.11379 0.4272 0.0
H755 H 0.7935 0.13105 0.43538 0.0
H756 H 0.7833 0.1159 0.41383 0.0
H757 H 0.80173 0.13556 0.46403 0.0
H758 H 0.79226 0.16236 0.4531 0.0
H759 H 0.82289 0.15089 0.46478 0.0
H760 H 0.81352 0.178 0.45469 0.0
H761 H 0.8891 0.20215 0.48046 0.0
H762 H 0.89859 0.21326 0.50642 0.0
H763 H 0.87161 0.22367 0.51031 0.0
H764 H 0.86234 0.21267 0.48406 0.0
H765 H 0.86979 0.22111 0.45571 0.0
H766 H 0.88273 0.23636 0.4351 0.0
H767 H 0.89872 0.21502 0.4216 0.0
H768 H 0.88539 0.19967 0.44179 0.0
H769 H 0.85833 0.1814 0.48279 0.0
H770 H 0.83694 0.16656 0.48169 0.0
H771 H 0.83249 0.18641 0.44112 0.0
N772 N 0.87063 0.20103 0.46408 0.0
H773 H 0.85363 0.20148 0.44286 0.0
C774 C 0.77843 0.13248 0.47429 0.0
C775 C 0.77862 0.12185 0.47721 0.0
C776 C 0.77363 0.11526 0.49205 0.0
C777 C 0.76832 0.11913 0.50426 0.0
C778 C 0.76844 0.12992 0.5015 0.0
C779 C 0.77347 0.13652 0.48666 0.0
C780 C 0.77756 0.13151 0.44365 0.0
C781 C 0.76526 0.12676 0.44044 0.0
C782 C 0.75929 0.11774 0.42837 0.0
C783 C 0.76556 0.11338 0.41887 0.0
C784 C 0.77808 0.11876 0.42121 0.0
C785 C 0.784 0.12761 0.43356 0.0
C786 C 0.79536 0.1478 0.45834 0.0
C787 C 0.80418 0.14476 0.46182 0.0
C788 C 0.81634 0.15361 0.46242 0.0
C789 C 0.81998 0.16575 0.45994 0.0
C790 C 0.81112 0.16875 0.45642 0.0
C791 C 0.79895 0.15985 0.45558 0.0
C792 C 0.87507 0.20658 0.48039 0.0
C793 C 0.88517 0.2067 0.48709 0.0
C794 C 0.89053 0.21302 0.50195 0.0
C795 C 0.88586 0.21937 0.51046 0.0
C796 C 0.87551 0.21899 0.50395 0.0
C797 C 0.87016 0.21266 0.48902 0.0
C798 C 0.87661 0.2092 0.45019 0.0
C799 C 0.87589 0.21961 0.44802 0.0
C800 C 0.88337 0.22837 0.43631 0.0
C801 C 0.89186 0.22699 0.42674 0.0
C802 C 0.89218 0.21633 0.42849 0.0
C803 C 0.8846 0.20754 0.44007 0.0
C804 C 0.85777 0.19272 0.46315 0.0
C805 C 0.85271 0.18264 0.4738 0.0
C806 C 0.84048 0.17407 0.473 0.0
C807 C 0.83294 0.1752 0.46121 0.0
C808 C 0.83796 0.18531 0.45054 0.0
C809 C 0.8502 0.194 0.45152 0.0
H810 H 0.00996 0.55552 0.2202 0.0
N811 N 0.98998 0.53466 0.23028 0.0
H812 H 0.01194 0.56692 0.19449 0.0
H813 H 0.97437 0.52816 0.2049 0.0
H814 H 0.97627 0.53954 0.17906 0.0
H815 H 0.9752 0.54218 0.23996 0.0
H816 H 0.97886 0.55754 0.2608 0.0
H817 H 0.00859 0.54428 0.25385 0.0
H818 H 0.01192 0.55898 0.27538 0.0
H819 H 0.01331 0.53968 0.22666 0.0
H820 H 0.97673 0.51109 0.23425 0.0
H821 H 0.02018 0.52535 0.22663 0.0
H822 H 0.98334 0.49643 0.23292 0.0
H823 H 0.03503 0.47374 0.20609 0.0
H824 H 0.03114 0.46141 0.18066 0.0
H825 H 0.99361 0.45131 0.18279 0.0
H826 H 0.99759 0.46359 0.20835 0.0
H827 H -3e-05 0.45418 0.23442 0.0
H828 H 1e-05 0.44096 0.25612 0.0
H829 H 0.03578 0.46848 0.27126 0.0
H830 H 0.0359 0.48141 0.24854 0.0
H831 H 0.02808 0.49684 0.20933 0.0
H832 H 0.02094 0.51101 0.21048 0.0
H833 H 0.9931 0.48784 0.24605 0.0
N834 N 0.01914 0.47594 0.22499 0.0
H835 H -0.00027 0.47335 0.24371 0.0
C836 C 0.99199 0.54093 0.21439 0.0
C837 C 0.00268 0.55182 0.2111 0.0
C838 C 0.0038 0.55834 0.1964 0.0
C839 C 0.99423 0.55415 0.1848 0.0
C840 C 0.98373 0.54307 0.18787 0.0
C841 C 0.98265 0.53652 0.20251 0.0
C842 C 0.99157 0.54204 0.24502 0.0
C843 C 0.98314 0.54569 0.24785 0.0
C844 C 0.98525 0.55447 0.2599 0.0
C845 C 0.99579 0.55969 0.26978 0.0
C846 C 0.00387 0.55545 0.26772 0.0
C847 C 0.00188 0.54685 0.25537 0.0
C848 C 0.99447 0.52647 0.2308 0.0
C849 C 0.00672 0.53029 0.22834 0.0
C850 C 0.01063 0.522 0.22808 0.0
C851 C 0.00235 0.50962 0.22967 0.0
C852 C 0.99007 0.50585 0.232 0.0
C853 C 0.98623 0.51421 0.23267 0.0
C854 C 0.01666 0.46959 0.20907 0.0
C855 C 0.02602 0.46899 0.20088 0.0
C856 C 0.02377 0.46199 0.18635 0.0
C857 C 0.01206 0.45537 0.17972 0.0
C858 C 0.0027 0.4562 0.1877 0.0
C859 C 0.00498 0.46327 0.20223 0.0
C860 C 0.01807 0.46875 0.23961 0.0
C861 C 0.00781 0.45742 0.24241 0.0
C862 C 0.0078 0.44988 0.25506 0.0
C863 C 0.01797 0.45354 0.26542 0.0
C864 C 0.0279 0.4652 0.26329 0.0
C865 C 0.02796 0.47268 0.25045 0.0
C866 C 0.01462 0.4841 0.22651 0.0
C867 C 0.02042 0.49484 0.21733 0.0
C868 C 0.01636 0.50299 0.21817 0.0
C869 C 0.00649 0.50073 0.22856 0.0
C870 C 0.00063 0.48989 0.23775 0.0
C871 C 0.00453 0.4816 0.23657 0.0
H872 H 0.57718 0.53217 0.21124 0.0
N873 N 0.5553 0.52281 0.22461 0.0
H874 H 0.58498 0.54454 0.18582 0.0
H875 H 0.54194 0.52699 0.20156 0.0
H876 H 0.54945 0.53879 0.17558 0.0
H877 H 0.54938 0.5402 0.22897 0.0
H878 H 0.55823 0.55649 0.24952 0.0
H879 H 0.56886 0.52464 0.25108 0.0
H880 H 0.57762 0.54085 0.2721 0.0
H881 H 0.5503 0.50145 0.21348 0.0
H882 H 0.53367 0.51979 0.23655 0.0
H883 H 0.53083 0.48293 0.21283 0.0
H884 H 0.51439 0.50123 0.23698 0.0
H885 H 0.47248 0.42629 0.20664 0.0
H886 H 0.46222 0.41747 0.1798 0.0
H887 H 0.4573 0.44776 0.17202 0.0
H888 H 0.46779 0.45659 0.19833 0.0
H889 H 0.45969 0.45415 0.22581 0.0
H890 H 0.44246 0.44568 0.24507 0.0
H891 H 0.45345 0.42171 0.26531 0.0
H892 H 0.47083 0.43038 0.24601 0.0
H893 H 0.49701 0.4488 0.22731 0.0
H894 H 0.51635 0.46745 0.2294 0.0
H895 H 0.49843 0.48755 0.22026 0.0
N896 N 0.47558 0.44612 0.2214 0.0
H897 H 0.47917 0.46896 0.21947 0.0
C898 C 0.55901 0.52858 0.20825 0.0
C899 C 0.57106 0.53345 0.20333 0.0
C900 C 0.57548 0.54048 0.18873 0.0
C901 C 0.56786 0.54272 0.17857 0.0
C902 C 0.55563 0.53745 0.18321 0.0
C903 C 0.55126 0.53054 0.19798 0.0
C904 C 0.5585 0.53118 0.23848 0.0
C905 C 0.55531 0.54011 0.23855 0.0
C906 C 0.56037 0.54942 0.25039 0.0
C907 C 0.56872 0.55004 0.26238 0.0
C908 C 0.57135 0.54073 0.26287 0.0
C909 C 0.56628 0.53141 0.25101 0.0
C910 C 0.54359 0.51202 0.22519 0.0
C911 C 0.54247 0.50143 0.21864 0.0
C912 C 0.53132 0.49082 0.21842 0.0
C913 C 0.52096 0.49048 0.225 0.0
C914 C 0.52209 0.50113 0.2316 0.0
C915 C 0.53324 0.5118 0.23154 0.0
C916 C 0.47095 0.44208 0.20456 0.0
C917 C 0.46939 0.43111 0.19892 0.0
C918 C 0.46343 0.42604 0.18368 0.0
C919 C 0.45884 0.43186 0.1738 0.0
C920 C 0.46083 0.44309 0.17918 0.0
C921 C 0.46682 0.44816 0.19438 0.0
C922 C 0.46659 0.44287 0.23446 0.0
C923 C 0.45862 0.4473 0.23462 0.0
C924 C 0.44868 0.44236 0.24557 0.0
C925 C 0.44653 0.43294 0.25659 0.0
C926 C 0.4549 0.42902 0.25708 0.0
C927 C 0.46481 0.43394 0.24607 0.0
C928 C 0.48667 0.45741 0.22299 0.0
C929 C 0.4973 0.45727 0.22589 0.0
C930 C 0.50836 0.46796 0.2269 0.0
C931 C 0.50906 0.47909 0.22477 0.0
C932 C 0.4983 0.4792 0.22213 0.0
C933 C 0.48721 0.46849 0.22142 0.0
H934 H 0.53504 0.96977 0.2085 0.0
N935 N 0.52945 0.9843 0.22452 0.0
H936 H 0.54882 0.97456 0.18439 0.0
H937 H 0.54007 0.00529 0.20663 0.0
H938 H 0.5538 0.01013 0.18219 0.0
H939 H 0.54805 0.00512 0.23712 0.0
H940 H 0.56142 0.00673 0.26026 0.0
H941 H 0.52595 0.96719 0.24615 0.0
H942 H 0.53936 0.96857 0.26894 0.0
H943 H 0.50807 0.9695 0.21147 0.0
H944 H 0.52808 0.00328 0.23755 0.0
H945 H 0.49017 0.97141 0.2118 0.0
H946 H 0.51003 0.00501 0.23885 0.0
H947 H 0.43667 0.97245 0.20857 0.0
H948 H 0.42754 0.97472 0.18278 0.0
H949 H 0.45408 0.01258 0.18195 0.0
H950 H 0.46278 0.01021 0.20812 0.0
H951 H 0.46044 0.01136 0.23915 0.0
H952 H 0.4491 0.01499 0.26123 0.0
H953 H 0.42634 0.97674 0.26823 0.0
H954 H 0.43776 0.97331 0.2463 0.0
H955 H 0.45692 0.9706 0.23072 0.0
H956 H 0.47548 0.96984 0.23097 0.0
H957 H 0.49613 0.00821 0.22321 0.0
N958 N 0.45467 0.98963 0.22623 0.0
H959 H 0.47744 0.00886 0.22401 0.0
C960 C 0.5365 0.98712 0.20922 0.0
C961 C 0.539 0.97855 0.20267 0.0
C962 C 0.54692 0.98132 0.18904 0.0
C963 C 0.55243 0.99274 0.18158 0.0
C964 C 0.54963 0.00126 0.18774 0.0
C965 C 0.5418 0.99851 0.20162 0.0
C966 C 0.53601 0.986 0.24 0.0
C967 C 0.54591 0.99719 0.24439 0.0
C968 C 0.55361 0.99807 0.2575 0.0
C969 C 0.55155 0.98776 0.26638 0.0
C970 C 0.54117 0.97673 0.26258 0.0
C971 C 0.53349 0.97589 0.24953 0.0
C972 C 0.5193 0.9861 0.22467 0.0
C973 C 0.50853 0.9773 0.21737 0.0
C974 C 0.4983 0.97837 0.21775 0.0
C975 C 0.49855 0.98826 0.22566 0.0
C976 C 0.50949 0.99729 0.23261 0.0
C977 C 0.51982 0.99627 0.23201 0.0
C978 C 0.45042 0.9911 0.21011 0.0
C979 C 0.44058 0.98118 0.20263 0.0
C980 C 0.43542 0.98252 0.18787 0.0
C981 C 0.44008 0.99385 0.18022 0.0
C982 C 0.45017 0.00376 0.18759 0.0
C983 C 0.45526 0.0024 0.20245 0.0
C984 C 0.44983 0.99206 0.24114 0.0
C985 C 0.45319 0.00382 0.24578 0.0
C986 C 0.44668 0.00585 0.25831 0.0
C987 C 0.43677 0.99615 0.26642 0.0
C988 C 0.434 0.98442 0.26243 0.0
C989 C 0.44047 0.98242 0.24989 0.0
C990 C 0.46583 0.98972 0.22711 0.0
C991 C 0.46548 0.97883 0.22921 0.0
C992 C 0.4761 0.97843 0.22917 0.0
C993 C 0.48734 0.98894 0.22677 0.0
C994 C 0.48767 -5e-05 0.22513 0.0
C995 C 0.47699 0.00034 0.22541 0.0
H996 H 0.42693 0.96306 0.81033 0.0
N997 N 0.44772 0.97733 0.7949 0.0
H998 H 0.41861 0.96753 0.83539 0.0
H999 H 0.4594 0.99746 0.81452 0.0
H1000 H 0.45099 0.0023 0.83922 0.0
H1001 H 0.45454 0.00038 0.78602 0.0
H1002 H 0.44481 0.00617 0.76472 0.0
H1003 H 0.4332 0.96349 0.77041 0.0
H1004 H 0.42361 0.96924 0.74859 0.0
H1005 H 0.45128 0.96082 0.8087 0.0
H1006 H 0.46993 0.99487 0.78298 0.0
H1007 H 0.4701 0.9608 0.81131 0.0
H1008 H 0.48869 0.9946 0.78445 0.0
H1009 H 0.53142 0.96065 0.81435 0.0
H1010 H 0.54264 0.9625 0.84017 0.0
H1011 H 0.53957 0.99298 0.85543 0.0
H1012 H 0.52891 0.99139 0.82929 0.0
H1013 H 0.54292 -0.00121 0.80231 0.0
H1014 H 0.55988 0.00723 0.7825 0.0
H1015 H 0.54329 0.97382 0.75467 0.0
H1016 H 0.52651 0.96534 0.77497 0.0
H1017 H 0.50231 0.95733 0.79911 0.0
H1018 H 0.48381 0.95798 0.79609 0.0
H1019 H 0.50423 0.99655 0.80187 0.0
N1020 N 0.52449 0.97549 0.80315 0.0
H1021 H 0.52274 0.99578 0.80362 0.0
C1022 C 0.44369 0.97992 0.81056 0.0
C1023 C 0.43226 0.97157 0.81677 0.0
C1024 C 0.42749 0.97421 0.83096 0.0
C1025 C 0.43405 0.98536 0.83917 0.0
C1026 C 0.44572 0.99361 0.83325 0.0
C1027 C 0.45052 0.9909 0.81908 0.0
C1028 C 0.44452 0.98143 0.7799 0.0
C1029 C 0.44805 0.99356 0.77763 0.0
C1030 C 0.44248 0.99688 0.76535 0.0
C1031 C 0.43329 0.98814 0.7551 0.0
C1032 C 0.4305 0.97616 0.75649 0.0
C1033 C 0.43605 0.97287 0.76881 0.0
C1034 C 0.45909 0.9777 0.79548 0.0
C1035 C 0.45944 0.96821 0.80338 0.0
C1036 C 0.47023 0.96819 0.80472 0.0
C1037 C 0.48099 0.97762 0.79788 0.0
C1038 C 0.48065 0.98723 0.79002 0.0
C1039 C 0.46984 0.98734 0.78898 0.0
C1040 C 0.52923 0.97578 0.81983 0.0
C1041 C 0.53299 0.96758 0.82345 0.0
C1042 C 0.53938 0.96865 0.83827 0.0
C1043 C 0.5421 0.97794 0.84991 0.0
C1044 C 0.53784 0.98584 0.84662 0.0
C1045 C 0.53157 0.98484 0.83169 0.0
C1046 C 0.5335 0.98138 0.79014 0.0
C1047 C 0.54281 0.99336 0.79177 0.0
C1048 C 0.55251 0.99819 0.78037 0.0
C1049 C 0.55302 0.99115 0.7671 0.0
C1050 C 0.54329 0.97941 0.76494 0.0
C1051 C 0.53365 0.97458 0.77639 0.0
C1052 C 0.51384 0.97642 0.80189 0.0
C1053 C 0.50274 0.9659 0.79972 0.0
C1054 C 0.49217 0.96632 0.79813 0.0
C1055 C 0.49241 0.97732 0.79897 0.0
C1056 C 0.50363 0.98791 0.80101 0.0
C1057 C 0.51426 0.98748 0.80227 0.0
H1058 H 0.97238 0.53438 0.82066 0.0
N1059 N 0.98853 0.53239 0.80213 0.0
H1060 H 0.97587 0.54644 0.84629 0.0
H1061 H 0.01013 0.54578 0.81818 0.0
H1062 H 0.01375 0.55789 0.8439 0.0
H1063 H 0.00897 0.55179 0.7895 0.0
H1064 H 0.00983 0.56512 0.76702 0.0
H1065 H 0.97087 0.52881 0.78132 0.0
H1066 H 0.97151 0.54231 0.75917 0.0
H1067 H 0.97974 0.51299 0.82139 0.0
H1068 H 0.00647 0.53221 0.7826 0.0
H1069 H 0.98619 0.49832 0.82299 0.0
H1070 H 0.01241 0.51718 0.78327 0.0
H1071 H 0.99359 0.45057 0.81533 0.0
H1072 H 0.99078 0.43853 0.84056 0.0
H1073 H 0.02697 0.46407 0.8566 0.0
H1074 H 0.0297 0.47616 0.83122 0.0
H1075 H 0.02887 0.4636 0.79426 0.0
H1076 H 0.02455 0.4484 0.7727 0.0
H1077 H 0.99087 0.44674 0.76167 0.0
H1078 H 0.99489 0.46129 0.78378 0.0
H1079 H 0.99161 0.46738 0.81129 0.0
H1080 H 0.98556 0.48227 0.80939 0.0
H1081 H 0.02245 0.50951 0.79845 0.0
N1082 N 0.01432 0.47097 0.80578 0.0
H1083 H 0.02823 0.4942 0.79925 0.0
C1084 C 0.99095 0.5392 0.81759 0.0
C1085 C 0.9814 0.53944 0.82577 0.0
C1086 C 0.98342 0.54629 0.84041 0.0
C1087 C 0.99509 0.55309 0.84713 0.0
C1088 C 0.00469 0.55282 0.83893 0.0
C1089 C 0.00263 0.5459 0.82429 0.0
C1090 C 0.98982 0.53923 0.78703 0.0
C1091 C 0.00082 0.54949 0.78265 0.0
C1092 C 0.00127 0.55718 0.76987 0.0
C1093 C 0.99072 0.55489 0.76139 0.0
C1094 C 0.97985 0.54431 0.76525 0.0
C1095 C 0.97944 0.53657 0.77793 0.0
C1096 C 0.99252 0.52375 0.80194 0.0
C1097 C 0.98691 0.51397 0.81306 0.0
C1098 C 0.99056 0.50551 0.81383 0.0
C1099 C -0.0002 0.50643 0.80317 0.0
C1100 C 0.0054 0.51622 0.7919 0.0
C1101 C 0.00189 0.52485 0.79139 0.0
C1102 C 0.01187 0.46438 0.82147 0.0
C1103 C 0.00082 0.45377 0.82445 0.0
C1104 C -0.00077 0.44685 0.83889 0.0
C1105 C 0.00867 0.45033 0.85054 0.0
C1106 C 0.01958 0.4611 0.84776 0.0
C1107 C 0.02113 0.46806 0.83338 0.0
C1108 C 0.01229 0.46367 0.79083 0.0
C1109 C 0.02065 0.46009 0.78697 0.0
C1110 C 0.01817 0.45142 0.77455 0.0
C1111 C 0.00728 0.4462 0.76549 0.0
C1112 C -0.00078 0.45032 0.76866 0.0
C1113 C 0.00161 0.45884 0.7813 0.0
C1114 C 0.01042 0.47965 0.80523 0.0
C1115 C -0.00159 0.47651 0.80839 0.0
C1116 C 0.99497 0.48514 0.80745 0.0
C1117 C 0.00349 0.4972 0.80381 0.0
C1118 C 0.01555 0.50032 0.80094 0.0
C1119 C 0.01892 0.49161 0.80154 0.0
H1120 H 0.45257 0.45736 0.80681 0.0
N1121 N 0.44915 0.47526 0.7947 0.0
H1122 H 0.44453 0.44626 0.83306 0.0
H1123 H 0.43785 0.47984 0.8194 0.0
H1124 H 0.43008 0.46898 0.84625 0.0
H1125 H 0.42842 0.46893 0.77969 0.0
H1126 H 0.41781 0.45291 0.75894 0.0
H1127 H 0.45871 0.46343 0.77786 0.0
H1128 H 0.44795 0.44694 0.75771 0.0
H1129 H 0.47012 0.47811 0.80847 0.0
H1130 H 0.45576 0.49489 0.77659 0.0
H1131 H 0.48966 0.49626 0.80809 0.0
H1132 H 0.47564 0.51288 0.7749 0.0
H1133 H 0.54469 0.54401 0.80912 0.0
H1134 H 0.55578 0.54916 0.83586 0.0
H1135 H 0.53719 0.56744 0.85236 0.0
H1136 H 0.52591 0.56191 0.82577 0.0
H1137 H 0.53909 0.57385 0.79063 0.0
H1138 H 0.55581 0.58489 0.7709 0.0
H1139 H 0.55407 0.55175 0.75658 0.0
H1140 H 0.53786 0.54097 0.77691 0.0
H1141 H 0.526 0.52847 0.79858 0.0
H1142 H 0.50722 0.50966 0.79448 0.0
H1143 H 0.48814 0.52915 0.79141 0.0
N1144 N 0.52884 0.551 0.79922 0.0
H1145 H 0.50719 0.54795 0.79413 0.0
C1146 C 0.44569 0.4694 0.81103 0.0
C1147 C 0.44773 0.46002 0.81531 0.0
C1148 C 0.44322 0.45374 0.83049 0.0
C1149 C 0.43661 0.45669 0.84176 0.0
C1150 C 0.43498 0.46636 0.83774 0.0
C1151 C 0.43947 0.47263 0.8225 0.0
C1152 C 0.44422 0.46725 0.78044 0.0
C1153 C 0.43282 0.46434 0.77459 0.0
C1154 C 0.42674 0.4551 0.76289 0.0
C1155 C 0.4319 0.44843 0.75695 0.0
C1156 C 0.4437 0.45188 0.762 0.0
C1157 C 0.44985 0.46126 0.7736 0.0
C1158 C 0.4613 0.48521 0.79289 0.0
C1159 C 0.47116 0.48562 0.80114 0.0
C1160 C 0.48248 0.49606 0.80073 0.0
C1161 C 0.4843 0.50622 0.79167 0.0
C1162 C 0.47457 0.50544 0.78248 0.0
C1163 C 0.46321 0.4951 0.78324 0.0
C1164 C 0.53443 0.55257 0.81554 0.0
C1165 C 0.54279 0.54886 0.81866 0.0
C1166 C 0.54922 0.55192 0.8339 0.0
C1167 C 0.54742 0.55876 0.84624 0.0
C1168 C 0.53868 0.56202 0.84328 0.0
C1169 C 0.53226 0.55893 0.82808 0.0
C1170 C 0.53715 0.55661 0.7853 0.0
C1171 C 0.54219 0.56897 0.78296 0.0
C1172 C 0.55172 0.57524 0.77161 0.0
C1173 C 0.55638 0.56924 0.76217 0.0
C1174 C 0.55089 0.55672 0.76387 0.0
C1175 C 0.54145 0.55048 0.77543 0.0
C1176 C 0.51801 0.53967 0.79633 0.0
C1177 C 0.51783 0.52872 0.79659 0.0
C1178 C 0.50699 0.5179 0.79449 0.0
C1179 C 0.49604 0.51776 0.79258 0.0
C1180 C 0.49634 0.5288 0.79238 0.0
C1181 C 0.50721 0.53959 0.79409 0.0
H1182 H 0.6906 0.88769 0.54529 0.0
N1183 N 0.67245 0.87133 0.56377 0.0
H1184 H 0.68944 0.89726 0.51919 0.0
H1185 H 0.65198 0.86479 0.54534 0.0
H1186 H 0.65074 0.87403 0.51917 0.0
H1187 H 0.65256 0.87233 0.57368 0.0
H1188 H 0.65246 0.88669 0.59373 0.0
H1189 H 0.68973 0.88491 0.58545 0.0
H1190 H 0.68964 0.8991 0.60599 0.0
H1191 H 0.68635 0.86176 0.56448 0.0
H1192 H 0.64928 0.85266 0.56792 0.0
H1193 H 0.68017 0.84058 0.56636 0.0
H1194 H 0.64285 0.83144 0.56832 0.0
H1195 H 0.66445 0.78137 0.55467 0.0
H1196 H 0.6661 0.77225 0.52841 0.0
H1197 H 0.6322 0.76767 0.51148 0.0
H1198 H 0.63031 0.77646 0.53827 0.0
H1199 H 0.63157 0.76209 0.57788 0.0
H1200 H 0.63728 0.75203 0.59875 0.0
H1201 H 0.67155 0.78469 0.60544 0.0
H1202 H 0.66603 0.79439 0.5838 0.0
H1203 H 0.6656 0.80231 0.54984 0.0
H1204 H 0.67173 0.82335 0.55041 0.0
H1205 H 0.64142 0.81533 0.58311 0.0
N1206 N 0.64528 0.78375 0.5647 0.0
H1207 H 0.63482 0.79401 0.58133 0.0
C1208 C 0.67145 0.87551 0.54727 0.0
C1209 C 0.68191 0.88455 0.53944 0.0
C1210 C 0.68121 0.88997 0.52452 0.0
C1211 C 0.66998 0.88645 0.51712 0.0
C1212 C 0.65952 0.87708 0.52467 0.0
C1213 C 0.66023 0.87168 0.53962 0.0
C1214 C 0.67124 0.87766 0.57797 0.0
C1215 C 0.6606 0.87792 0.58095 0.0
C1216 C 0.66055 0.88614 0.59249 0.0
C1217 C 0.67111 0.89419 0.60126 0.0
C1218 C 0.68143 0.8932 0.59918 0.0
C1219 C 0.68148 0.88504 0.5876 0.0
C1220 C 0.66832 0.85878 0.5657 0.0
C1221 C 0.67685 0.85514 0.56549 0.0
C1222 C 0.67326 0.843 0.56637 0.0
C1223 C 0.66095 0.83417 0.56716 0.0
C1224 C 0.6524 0.83791 0.56783 0.0
C1225 C 0.65605 0.8501 0.56732 0.0
C1226 C 0.64706 0.77937 0.54864 0.0
C1227 C 0.65731 0.77837 0.54544 0.0
C1228 C 0.65828 0.77319 0.5304 0.0
C1229 C 0.64923 0.7692 0.51807 0.0
C1230 C 0.63929 0.7707 0.52085 0.0
C1231 C 0.63819 0.77568 0.53609 0.0
C1232 C 0.64826 0.77897 0.57925 0.0
C1233 C 0.64021 0.76712 0.58412 0.0
C1234 C 0.64351 0.76141 0.59614 0.0
C1235 C 0.65494 0.7675 0.60381 0.0
C1236 C 0.66277 0.77962 0.5996 0.0
C1237 C 0.65954 0.78527 0.58734 0.0
C1238 C 0.64952 0.79646 0.56528 0.0
C1239 C 0.66014 0.80499 0.55696 0.0
C1240 C 0.66377 0.81715 0.55753 0.0
C1241 C 0.6571 0.82117 0.56681 0.0
C1242 C 0.64667 0.81262 0.57551 0.0
C1243 C 0.64291 0.80042 0.57464 0.0
H1244 H 0.24341 0.8654 0.54809 0.0
N1245 N 0.22127 0.85699 0.56005 0.0
H1246 H 0.25233 0.8775 0.52261 0.0
H1247 H 0.20894 0.86097 0.53483 0.0
H1248 H 0.21758 0.8725 0.50909 0.0
H1249 H 0.21533 0.87449 0.56207 0.0
H1250 H 0.22394 0.89139 0.58165 0.0
H1251 H 0.234 0.85932 0.58768 0.0
H1252 H 0.24242 0.87607 0.60779 0.0
H1253 H 0.21783 0.83504 0.56146 0.0
H1254 H 0.19869 0.85434 0.56121 0.0
H1255 H 0.19875 0.81608 0.56243 0.0
H1256 H 0.17955 0.83549 0.5609 0.0
H1257 H 0.13673 0.75874 0.54179 0.0
H1258 H 0.12514 0.75176 0.51552 0.0
H1259 H 0.12422 0.78467 0.51288 0.0
H1260 H 0.13637 0.79177 0.53866 0.0
H1261 H 0.12619 0.7855 0.56538 0.0
H1262 H 0.10938 0.77577 0.5851 0.0
H1263 H 0.12309 0.75345 0.6031 0.0
H1264 H 0.13981 0.76308 0.58273 0.0
H1265 H 0.16388 0.78415 0.54521 0.0
H1266 H 0.18272 0.80328 0.54558 0.0
H1267 H 0.16562 0.81854 0.57577 0.0
N1268 N 0.14287 0.77878 0.5587 0.0
H1269 H 0.14669 0.79966 0.57434 0.0
C1270 C 0.22553 0.8622 0.54345 0.0
C1271 C 0.2377 0.86674 0.53942 0.0
C1272 C 0.24276 0.87363 0.52481 0.0
C1273 C 0.2357 0.87608 0.51382 0.0
C1274 C 0.22335 0.871 0.51743 0.0
C1275 C 0.21832 0.86423 0.53214 0.0
C1276 C 0.2241 0.86566 0.57338 0.0
C1277 C 0.22098 0.87459 0.57225 0.0
C1278 C 0.22592 0.88428 0.58352 0.0
C1279 C 0.23402 0.88519 0.59618 0.0
C1280 C 0.23642 0.87578 0.59798 0.0
C1281 C 0.23152 0.86614 0.58665 0.0
C1282 C 0.20973 0.84608 0.56102 0.0
C1283 C 0.20947 0.83516 0.56146 0.0
C1284 C 0.19853 0.82432 0.56183 0.0
C1285 C 0.1875 0.82415 0.56146 0.0
C1286 C 0.1878 0.83519 0.56135 0.0
C1287 C 0.19879 0.84604 0.56132 0.0
C1288 C 0.1373 0.77567 0.54221 0.0
C1289 C 0.13419 0.7645 0.53532 0.0
C1290 C 0.12745 0.76049 0.52042 0.0
C1291 C 0.12355 0.76756 0.5122 0.0
C1292 C 0.12712 0.77901 0.51879 0.0
C1293 C 0.13399 0.78306 0.53361 0.0
C1294 C 0.13429 0.77498 0.57253 0.0
C1295 C 0.12576 0.77869 0.57375 0.0
C1296 C 0.11613 0.77313 0.58516 0.0
C1297 C 0.11481 0.76374 0.59562 0.0
C1298 C 0.12373 0.76052 0.59504 0.0
C1299 C 0.13336 0.76609 0.58357 0.0
C1300 C 0.15383 0.79031 0.55979 0.0
C1301 C 0.16422 0.79165 0.55188 0.0
C1302 C 0.17503 0.8026 0.55226 0.0
C1303 C 0.17583 0.81252 0.56089 0.0
C1304 C 0.16538 0.81119 0.56882 0.0
C1305 C 0.15447 0.80026 0.56814 0.0
H1306 H 0.21846 0.33731 0.55182 0.0
N1307 N 0.21786 0.35762 0.56035 0.0
H1308 H 0.22786 0.33449 0.52666 0.0
H1309 H 0.22671 0.37205 0.53338 0.0
H1310 H 0.23577 0.36894 0.50761 0.0
H1311 H 0.23977 0.37067 0.5733 0.0
H1312 H 0.24948 0.36422 0.59375 0.0
H1313 H 0.20623 0.3375 0.58058 0.0
H1314 H 0.21566 0.33128 0.6017 0.0
H1315 H 0.19865 0.33733 0.54659 0.0
H1316 H 0.20835 0.36938 0.57534 0.0
H1317 H 0.17777 0.33214 0.54681 0.0
H1318 H 0.18715 0.36377 0.57671 0.0
H1319 H 0.11298 0.31551 0.54354 0.0
H1320 H 0.10279 0.31565 0.51752 0.0
H1321 H 0.12771 0.3537 0.51232 0.0
H1322 H 0.13748 0.35351 0.53859 0.0
H1323 H 0.13155 0.35508 0.56768 0.0
H1324 H 0.11886 0.35738 0.58873 0.0
H1325 H 0.10379 0.3203 0.60334 0.0
H1326 H 0.11677 0.31822 0.58254 0.0
H1327 H 0.13947 0.3196 0.56163 0.0
H1328 H 0.16056 0.32498 0.56324 0.0
H1329 H 0.1713 0.36252 0.56095 0.0
N1330 N 0.1307 0.33411 0.55943 0.0
H1331 H 0.15021 0.35698 0.56069 0.0
C1332 C 0.22209 0.35507 0.54469 0.0
C1333 C 0.2222 0.34431 0.54234 0.0
C1334 C 0.22752 0.34265 0.52793 0.0
C1335 C 0.23255 0.35154 0.5154 0.0
C1336 C 0.23192 0.36199 0.51721 0.0
C1337 C 0.22677 0.36377 0.53184 0.0
C1338 C 0.22232 0.35464 0.57528 0.0
C1339 C 0.2344 0.36219 0.5798 0.0
C1340 C 0.23992 0.35848 0.59155 0.0
C1341 C 0.23341 0.34713 0.59925 0.0
C1342 C 0.22103 0.33995 0.59573 0.0
C1343 C 0.21556 0.3436 0.58377 0.0
C1344 C 0.20522 0.35396 0.56069 0.0
C1345 C 0.19633 0.34328 0.55302 0.0
C1346 C 0.18425 0.3402 0.55338 0.0
C1347 C 0.18066 0.34751 0.56178 0.0
C1348 C 0.18954 0.35803 0.5698 0.0
C1349 C 0.20167 0.36122 0.56916 0.0
C1350 C 0.12603 0.33442 0.54298 0.0
C1351 C 0.11633 0.32382 0.5366 0.0
C1352 C 0.11056 0.32394 0.5217 0.0
C1353 C 0.11442 0.3347 0.51279 0.0
C1354 C 0.12439 0.34528 0.51897 0.0
C1355 C 0.1301 0.34516 0.53396 0.0
C1356 C 0.12508 0.33643 0.57359 0.0
C1357 C 0.12579 0.34756 0.57575 0.0
C1358 C 0.11844 0.34883 0.5877 0.0
C1359 C 0.11021 0.33899 0.59762 0.0
C1360 C 0.1101 0.3281 0.59609 0.0
C1361 C 0.11747 0.32687 0.58418 0.0
C1362 C 0.14325 0.33782 0.56073 0.0
C1363 C 0.14642 0.32898 0.56159 0.0
C1364 C 0.1585 0.3321 0.56234 0.0
C1365 C 0.16774 0.34422 0.56196 0.0
C1366 C 0.1645 0.3531 0.56141 0.0
C1367 C 0.15237 0.34994 0.56099 0.0
H1368 H 0.98385 0.36837 0.07383 0.0
H1369 H 0.98526 0.3822 0.09621 0.0
H1370 H 0.01812 0.41028 0.07372 0.0
H1371 H 0.01687 0.39649 0.05151 0.0
H1372 H 0.02028 0.40971 0.10734 0.0
H1373 H 0.9913 0.40945 0.06877 0.0
H1374 H 0.97273 0.40016 0.0517 0.0
H1375 H 0.95144 0.38574 0.09695 0.0
H1376 H 0.96991 0.39481 0.11427 0.0
H1377 H 0.02544 0.45972 0.1507 0.0
H1378 H 0.02243 0.44558 0.12794 0.0
H1379 H 0.99018 0.41839 0.15283 0.0
H1380 H 0.99315 0.43249 0.17568 0.0
H1381 H 0.98725 0.41805 0.11858 0.0
H1382 H 0.01616 0.41843 0.15713 0.0
H1383 H 0.03471 0.42773 0.17425 0.0
H1384 H 0.05608 0.44181 0.12899 0.0
H1385 H 0.03763 0.43273 0.11162 0.0
C1386 C 0.99138 0.37748 0.07368 0.0
C1387 C 0.00023 0.38134 0.06089 0.0
C1388 C 0.99214 0.38539 0.08642 0.0
C1389 C 0.00173 0.39732 0.08652 0.0
C1390 C 0.01064 0.40113 0.07388 0.0
C1391 C 0.0099 0.39324 0.06117 0.0
C1392 C 0.00258 0.40583 0.09988 0.0
C1393 C 0.01311 0.41164 0.10964 0.0
C1394 C 0.99311 0.40813 0.10318 0.0
C1395 C 0.982 0.40271 0.0928 0.0
C1396 C 0.98267 0.40422 0.07507 0.0
C1397 C 0.97216 0.39901 0.06535 0.0
C1398 C 0.96092 0.39234 0.07323 0.0
C1399 C 0.96016 0.39089 0.09086 0.0
C1400 C 0.97064 0.39608 0.10063 0.0
C1401 C 0.01769 0.45074 0.15131 0.0
C1402 C 0.00959 0.4472 0.16507 0.0
C1403 C 0.01597 0.44268 0.13829 0.0
C1404 C 0.00618 0.43088 0.13885 0.0
C1405 C 0.9978 0.42745 0.15218 0.0
C1406 C -0.00051 0.43553 0.16519 0.0
C1407 C 0.00499 0.422 0.12588 0.0
C1408 C 0.9944 0.4161 0.11625 0.0
C1409 C 0.0144 0.4196 0.12269 0.0
C1410 C 0.02551 0.42499 0.13309 0.0
C1411 C 0.02481 0.42358 0.15084 0.0
C1412 C 0.03531 0.4288 0.16059 0.0
C1413 C 0.04656 0.43538 0.15272 0.0
C1414 C 0.04735 0.43672 0.13507 0.0
C1415 C 0.03688 0.43153 0.12527 0.0
H1416 H 0.05468 0.43942 0.16029 0.0
H1417 H 0.95279 0.38831 0.06568 0.0
H1418 H 0.63005 0.6153 0.05744 0.0
H1419 H 0.62138 0.60135 0.08132 0.0
H1420 H 0.59126 0.6072 0.08288 0.0
H1421 H 0.59976 0.62103 0.05884 0.0
H1422 H 0.60172 0.60718 0.11578 0.0
H1423 H 0.58656 0.5836 0.06435 0.0
H1424 H 0.58883 0.57657 0.03618 0.0
H1425 H 0.61013 0.5631 0.05803 0.0
H1426 H 0.60814 0.57022 0.08631 0.0
H1427 H 0.56159 0.5589 0.1674 0.0
H1428 H 0.57045 0.57313 0.1441 0.0
H1429 H 0.59493 0.56031 0.13365 0.0
H1430 H 0.58551 0.54542 0.15613 0.0
H1431 H 0.5879 0.56429 0.10529 0.0
H1432 H 0.60345 0.58704 0.15623 0.0
H1433 H 0.60258 0.59451 0.18475 0.0
H1434 H 0.58264 0.61011 0.16489 0.0
H1435 H 0.58324 0.6026 0.13628 0.0
C1436 C 0.62165 0.61373 0.06297 0.0
C1437 C 0.61555 0.61922 0.0562 0.0
C1438 C 0.6167 0.60573 0.07657 0.0
C1439 C 0.60566 0.60322 0.08375 0.0
C1440 C 0.59979 0.60904 0.07748 0.0
C1441 C 0.60464 0.61689 0.06372 0.0
C1442 C 0.59997 0.59412 0.0973 0.0
C1443 C 0.59856 0.59777 0.1135 0.0
C1444 C 0.5962 0.58194 0.09436 0.0
C1445 C 0.59731 0.57756 0.0774 0.0
C1446 C 0.59182 0.57923 0.06312 0.0
C1447 C 0.59303 0.57522 0.04714 0.0
C1448 C 0.59965 0.56942 0.04531 0.0
C1449 C 0.60503 0.56761 0.05947 0.0
C1450 C 0.60385 0.57163 0.07547 0.0
C1451 C 0.56868 0.5589 0.15995 0.0
C1452 C 0.57285 0.55101 0.16378 0.0
C1453 C 0.57389 0.56721 0.14677 0.0
C1454 C 0.58357 0.56802 0.13736 0.0
C1455 C 0.58754 0.55995 0.14082 0.0
C1456 C 0.58222 0.55151 0.15382 0.0
C1457 C 0.58958 0.57729 0.12395 0.0
C1458 C 0.59106 0.57368 0.10771 0.0
C1459 C 0.59362 0.58956 0.12696 0.0
C1460 C 0.59329 0.59416 0.14414 0.0
C1461 C 0.5988 0.592 0.15797 0.0
C1462 C 0.59837 0.59625 0.17415 0.0
C1463 C 0.59253 0.60275 0.17664 0.0
C1464 C 0.58714 0.60506 0.16294 0.0
C1465 C 0.58754 0.60081 0.14674 0.0
H1466 H 0.59221 0.60604 0.18918 0.0
H1467 H 0.60058 0.56632 0.03293 0.0
H1468 H 0.38357 0.01346 0.05895 0.0
H1469 H 0.3951 0.01452 0.08424 0.0
H1470 H 0.3906 0.97999 0.07193 0.0
H1471 H 0.37913 0.97884 0.04675 0.0
H1472 H 0.386 0.98183 0.10558 0.0
H1473 H 0.41669 0.00469 0.06374 0.0
H1474 H 0.42729 0.02079 0.04263 0.0
H1475 H 0.43457 0.04727 0.08096 0.0
H1476 H 0.42385 0.0313 0.10225 0.0
H1477 H 0.43028 0.97859 0.15315 0.0
H1478 H 0.41902 0.98021 0.12947 0.0
H1479 H 0.42532 0.01411 0.14881 0.0
H1480 H 0.4363 0.01242 0.17289 0.0
H1481 H 0.42859 0.01396 0.11327 0.0
H1482 H 0.3991 0.99126 0.15555 0.0
H1483 H 0.38865 0.97523 0.17678 0.0
H1484 H 0.37901 0.9486 0.13789 0.0
H1485 H 0.38957 0.96448 0.11645 0.0
C1486 C 0.38502 0.00609 0.06165 0.0
C1487 C 0.38045 0.99608 0.0508 0.0
C1488 C 0.39164 0.00673 0.07606 0.0
C1489 C 0.39375 0.99735 0.07988 0.0
C1490 C 0.38907 0.98731 0.0692 0.0
C1491 C 0.38255 0.9867 0.05477 0.0
C1492 C 0.40083 0.99791 0.09499 0.0
C1493 C 0.39533 0.9888 0.1072 0.0
C1494 C 0.4129 0.0072 0.09732 0.0
C1495 C 0.41934 0.0168 0.08453 0.0
C1496 C 0.42045 0.01394 0.06763 0.0
C1497 C 0.4265 0.02304 0.05564 0.0
C1498 C 0.43157 0.03504 0.06044 0.0
C1499 C 0.43062 0.03797 0.07725 0.0
C1500 C 0.42456 0.0289 0.08929 0.0
C1501 C 0.42922 0.98637 0.15247 0.0
C1502 C 0.43411 0.99532 0.16505 0.0
C1503 C 0.42284 0.9873 0.13887 0.0
C1504 C 0.42124 0.99722 0.13752 0.0
C1505 C 0.42647 0.00639 0.14965 0.0
C1506 C 0.43279 0.00543 0.16335 0.0
C1507 C 0.41381 0.99775 0.12365 0.0
C1508 C 0.41922 0.00706 0.11172 0.0
C1509 C 0.40163 0.98866 0.12158 0.0
C1510 C 0.39523 0.97907 0.13442 0.0
C1511 C 0.39484 0.98199 0.15154 0.0
C1512 C 0.38888 0.97293 0.16362 0.0
C1513 C 0.3832 0.9609 0.1587 0.0
C1514 C 0.38343 0.95792 0.14169 0.0
C1515 C 0.3894 0.96694 0.12956 0.0
H1516 H 0.37858 0.9539 0.16806 0.0
H1517 H 0.43625 0.04208 0.05114 0.0
H1518 H 0.39732 0.01594 0.97391 0.0
H1519 H 0.40848 0.01373 0.95034 0.0
H1520 H 0.37498 0.98976 0.92521 0.0
H1521 H 0.36378 0.99154 0.94909 0.0
H1522 H 0.38862 0.98067 0.92396 0.0
H1523 H 0.39491 0.01982 0.91207 0.0
H1524 H 0.40102 0.04084 0.91826 0.0
H1525 H 0.43719 0.04895 0.92782 0.0
H1526 H 0.43126 0.02793 0.9219 0.0
H1527 H 0.41077 0.98028 0.84206 0.0
H1528 H 0.40135 0.98452 0.86593 0.0
H1529 H 0.4353 0.00205 0.8923 0.0
H1530 H 0.44481 0.99757 0.86857 0.0
H1531 H 0.42246 0.01468 0.89351 0.0
H1532 H 0.41569 0.97516 0.90426 0.0
H1533 H 0.40919 0.95421 0.89696 0.0
H1534 H 0.3732 0.94696 0.88834 0.0
H1535 H 0.37953 0.96793 0.89535 0.0
C1536 C 0.39234 0.01028 0.96328 0.0
C1537 C 0.37968 0.0039 0.96333 0.0
C1538 C 0.39874 0.00907 0.94977 0.0
C1539 C 0.39259 0.00168 0.93587 0.0
C1540 C 0.37993 0.99549 0.93579 0.0
C1541 C 0.37354 0.99654 0.94942 0.0
C1542 C 0.39927 -9e-05 0.92177 0.0
C1543 C 0.39591 0.98813 0.91717 0.0
C1544 C 0.40901 0.00963 0.91318 0.0
C1545 C 0.41261 0.02227 0.91671 0.0
C1546 C 0.40414 0.02606 0.91562 0.0
C1547 C 0.40758 0.03798 0.91906 0.0
C1548 C 0.41948 0.04622 0.92348 0.0
C1549 C 0.42797 0.04256 0.92442 0.0
C1550 C 0.42458 0.03065 0.92101 0.0
C1551 C 0.41624 0.98492 0.85299 0.0
C1552 C 0.42852 0.98843 0.85349 0.0
C1553 C 0.41085 0.98741 0.86657 0.0
C1554 C 0.41761 0.99349 0.88092 0.0
C1555 C 0.42995 0.99735 0.88131 0.0
C1556 C 0.43535 0.9948 0.86773 0.0
C1557 C 0.41164 0.99549 0.89564 0.0
C1558 C 0.41517 0.00727 0.90037 0.0
C1559 C 0.40197 0.98579 0.90426 0.0
C1560 C 0.39811 0.97315 0.90019 0.0
C1561 C 0.40641 0.96913 0.90068 0.0
C1562 C 0.40276 0.95724 0.89662 0.0
C1563 C 0.3908 0.94926 0.89215 0.0
C1564 C 0.38246 0.95315 0.89179 0.0
C1565 C 0.38608 0.96503 0.89582 0.0
H1566 H 0.38799 0.94007 0.88901 0.0
H1567 H 0.42212 0.05544 0.92613 0.0
H1568 H 0.97631 0.37965 0.97783 0.0
H1569 H 0.97991 0.39228 0.95305 0.0
H1570 H 0.0132 0.39292 0.94306 0.0
H1571 H 0.0097 0.38024 0.96801 0.0
H1572 H 0.01577 0.41542 0.94181 0.0
H1573 H 0.9896 0.37669 0.918 0.0
H1574 H 0.97146 0.35659 0.91645 0.0
H1575 H 0.94914 0.37238 0.91374 0.0
H1576 H 0.96714 0.39258 0.91552 0.0
H1577 H 0.02478 0.444 0.8615 0.0
H1578 H 0.02222 0.43028 0.88455 0.0
H1579 H 0.98695 0.425 0.89532 0.0
H1580 H 0.98942 0.43862 0.87211 0.0
H1581 H 0.98612 0.40424 0.89528 0.0
H1582 H 0.01181 0.44273 0.92078 0.0
H1583 H 0.02971 0.46296 0.92296 0.0
H1584 H 0.05266 0.44781 0.92314 0.0
H1585 H 0.03489 0.42749 0.92074 0.0
C1586 C 0.98438 0.38239 0.97034 0.0
C1587 C 0.99272 0.37892 0.97493 0.0
C1588 C 0.98639 0.38958 0.95611 0.0
C1589 C 0.99677 0.39346 0.94614 0.0
C1590 C 0.00511 0.38999 0.95059 0.0
C1591 C 0.00307 0.38271 0.9648 0.0
C1592 C -0.00096 0.40148 0.93143 0.0
C1593 C 0.0094 0.41291 0.93146 0.0
C1594 C 0.99057 0.3983 0.91818 0.0
C1595 C 0.97972 0.38616 0.91704 0.0
C1596 C 0.98081 0.37588 0.91721 0.0
C1597 C 0.97056 0.36447 0.91626 0.0
C1598 C 0.95915 0.36321 0.91504 0.0
C1599 C 0.95798 0.37337 0.91471 0.0
C1600 C 0.96821 0.3848 0.91566 0.0
C1601 C 0.01655 0.44004 0.86893 0.0
C1602 C 0.00732 0.44244 0.86506 0.0
C1603 C 0.01509 0.43218 0.88209 0.0
C1604 C 0.00444 0.4267 0.89181 0.0
C1605 C 0.99523 0.42911 0.88798 0.0
C1606 C 0.99665 0.43689 0.87473 0.0
C1607 C 0.00279 0.41827 0.90574 0.0
C1608 C 0.99254 0.40674 0.90556 0.0
C1609 C 0.01133 0.42139 0.91891 0.0
C1610 C 0.02203 0.4336 0.9204 0.0
C1611 C 0.02068 0.44372 0.92115 0.0
C1612 C 0.0308 0.4552 0.92245 0.0
C1613 C 0.04232 0.45667 0.92314 0.0
C1614 C 0.04373 0.44666 0.92258 0.0
C1615 C 0.03364 0.43516 0.92126 0.0
H1616 H 0.05014 0.46557 0.92415 0.0
H1617 H 0.95122 0.35437 0.9143 0.0
H1618 H 0.61122 0.60185 0.98332 0.0
H1619 H 0.59798 0.58921 0.96058 0.0
H1620 H 0.60895 0.62064 0.92971 0.0
H1621 H 0.62167 0.63333 0.9528 0.0
H1622 H 0.58647 0.60732 0.92676 0.0
H1623 H 0.61935 0.59973 0.92354 0.0
H1624 H 0.63354 0.59389 0.93454 0.0
H1625 H 0.60399 0.559 0.94727 0.0
H1626 H 0.5896 0.56469 0.93653 0.0
H1627 H 0.57169 0.56746 0.84815 0.0
H1628 H 0.58492 0.57734 0.87231 0.0
H1629 H 0.55423 0.57071 0.90283 0.0
H1630 H 0.54088 0.56061 0.87882 0.0
H1631 H 0.58684 0.5714 0.90532 0.0
H1632 H 0.56218 0.59668 0.9244 0.0
H1633 H 0.54957 0.60376 0.91114 0.0
H1634 H 0.56589 0.60562 0.86267 0.0
H1635 H 0.57871 0.59875 0.87569 0.0
C1636 C 0.61082 0.60604 0.97165 0.0
C1637 C 0.61747 0.61856 0.96979 0.0
C1638 C 0.6033 0.5988 0.95861 0.0
C1639 C 0.60258 0.60393 0.94327 0.0
C1640 C 0.60932 0.61645 0.94141 0.0
C1641 C 0.61661 0.6237 0.95458 0.0
C1642 C 0.59458 0.59634 0.92931 0.0
C1643 C 0.58659 0.59947 0.92213 0.0
C1644 C 0.59476 0.58614 0.92305 0.0
C1645 C 0.6034 0.58267 0.92937 0.0
C1646 C 0.61587 0.59084 0.92877 0.0
C1647 C 0.62395 0.58755 0.93495 0.0
C1648 C 0.61967 0.57609 0.94164 0.0
C1649 C 0.60729 0.56788 0.94211 0.0
C1650 C 0.59918 0.57113 0.93596 0.0
C1651 C 0.5677 0.56781 0.86012 0.0
C1652 C 0.55522 0.56333 0.8615 0.0
C1653 C 0.57529 0.5735 0.8739 0.0
C1654 C 0.57057 0.57488 0.88927 0.0
C1655 C 0.55807 0.56987 0.89099 0.0
C1656 C 0.55046 0.56416 0.87724 0.0
C1657 C 0.57878 0.58239 0.90299 0.0
C1658 C 0.58676 0.57923 0.91009 0.0
C1659 C 0.57885 0.59276 0.90889 0.0
C1660 C 0.57129 0.59706 0.90099 0.0
C1661 C 0.5631 0.59864 0.91093 0.0
C1662 C 0.55592 0.60262 0.90345 0.0
C1663 C 0.5569 0.60509 0.88606 0.0
C1664 C 0.5651 0.60365 0.87612 0.0
C1665 C 0.57232 0.59971 0.88354 0.0
H1666 H 0.55132 0.60815 0.8803 0.0
H1667 H 0.62594 0.57357 0.94642 0.0
H1668 H 0.00972 0.62939 0.96678 0.0
H1669 H 0.01316 0.61957 0.94252 0.0
H1670 H 0.98227 0.58583 0.9573 0.0
H1671 H 0.97891 0.59545 0.9816 0.0
H1672 H 0.00069 0.58291 0.94913 0.0
H1673 H 0.9812 0.60303 0.92457 0.0
H1674 H 0.97921 0.62056 0.91791 0.0
H1675 H 0.01332 0.63716 0.89199 0.0
H1676 H 0.01559 0.61978 0.89868 0.0
H1677 H 0.98154 0.54682 0.87612 0.0
H1678 H 0.98405 0.55942 0.90067 0.0
H1679 H 0.01583 0.58871 0.87774 0.0
H1680 H 0.0132 0.57618 0.85284 0.0
H1681 H 0.00068 0.59584 0.88989 0.0
H1682 H 0.0187 0.57426 0.91126 0.0
H1683 H 0.02031 0.55647 0.91754 0.0
H1684 H 0.98885 0.54244 0.94934 0.0
H1685 H 0.98694 0.56007 0.94305 0.0
C1686 C 0.00366 0.61988 0.96484 0.0
C1687 C 0.99402 0.61322 0.97613 0.0
C1688 C 0.00563 0.61429 0.95096 0.0
C1689 C 0.99793 0.60198 0.94804 0.0
C1690 C 0.98836 0.59533 0.95933 0.0
C1691 C 0.98642 0.60087 0.9732 0.0
C1692 C -0.00033 0.59588 0.93323 0.0
C1693 C 0.00062 0.5857 0.93617 0.0
C1694 C -0.0 0.59975 0.91634 0.0
C1695 C -0.00137 0.61018 0.91231 0.0
C1696 C 0.98832 0.61047 0.91757 0.0
C1697 C 0.98713 0.62036 0.91376 0.0
C1698 C 0.99615 0.62998 0.90458 0.0
C1699 C 0.00636 0.62971 0.89913 0.0
C1700 C 0.0076 0.61984 0.90292 0.0
C1701 C 0.98908 0.55594 0.87629 0.0
C1702 C 0.99716 0.56052 0.86253 0.0
C1703 C 0.99056 0.5631 0.8904 0.0
C1704 C 0.0002 0.57497 0.89111 0.0
C1705 C 0.00837 0.57955 0.87747 0.0
C1706 C 0.0069 0.57236 0.86333 0.0
C1707 C 0.00132 0.58266 0.9058 0.0
C1708 C 0.00095 0.59316 0.90285 0.0
C1709 C 0.00149 0.57906 0.92269 0.0
C1710 C 0.00264 0.56846 0.92659 0.0
C1711 C 0.01207 0.56734 0.91949 0.0
C1712 C 0.01305 0.55729 0.92307 0.0
C1713 C 0.00467 0.54832 0.93381 0.0
C1714 C 0.99532 0.5494 0.94102 0.0
C1715 C 0.9943 0.55942 0.93747 0.0
H1716 H 0.00544 0.54055 0.93656 0.0
H1717 H 0.99521 0.63764 0.90164 0.0
H1718 H 0.39487 0.38039 0.96593 0.0
H1719 H 0.40643 0.39454 0.94321 0.0
H1720 H 0.37638 0.39953 0.93288 0.0
H1721 H 0.36473 0.3853 0.95535 0.0
H1722 H 0.3862 0.3972 0.90402 0.0
H1723 H 0.40057 0.4201 0.95581 0.0
H1724 H 0.40928 0.42441 0.98456 0.0
H1725 H 0.44123 0.42581 0.96531 0.0
H1726 H 0.43264 0.42133 0.93646 0.0
H1727 H 0.41416 0.44942 0.85463 0.0
H1728 H 0.40399 0.43572 0.87822 0.0
H1729 H 0.43545 0.43273 0.8866 0.0
H1730 H 0.44591 0.44688 0.86346 0.0
H1731 H 0.42553 0.43365 0.91624 0.0
H1732 H 0.41157 0.41124 0.86452 0.0
H1733 H 0.403 0.40681 0.83569 0.0
H1734 H 0.37043 0.40419 0.85471 0.0
H1735 H 0.37888 0.40878 0.88364 0.0
C1736 C 0.39071 0.38446 0.95875 0.0
C1737 C 0.3789 0.38177 0.96247 0.0
C1738 C 0.39735 0.39258 0.94584 0.0
C1739 C 0.39232 0.3982 0.93652 0.0
C1740 C 0.38044 0.39531 0.93995 0.0
C1741 C 0.3738 0.38719 0.95282 0.0
C1742 C 0.39941 0.40716 0.92324 0.0
C1743 C 0.39474 0.40524 0.90674 0.0
C1744 C 0.4107 0.41748 0.92669 0.0
C1745 C 0.41591 0.42026 0.94401 0.0
C1746 C 0.40942 0.42124 0.95773 0.0
C1747 C 0.41434 0.42372 0.97404 0.0
C1748 C 0.42579 0.42535 0.97677 0.0
C1749 C 0.43236 0.42453 0.96318 0.0
C1750 C 0.42747 0.42202 0.94684 0.0
C1751 C 0.41903 0.44607 0.8617 0.0
C1752 C 0.43084 0.4492 0.85706 0.0
C1753 C 0.41315 0.43812 0.87507 0.0
C1754 C 0.41887 0.43302 0.88393 0.0
C1755 C 0.43083 0.43649 0.87983 0.0
C1756 C 0.43675 0.4445 0.86651 0.0
C1757 C 0.41224 0.42376 0.89709 0.0
C1758 C 0.41701 0.4256 0.91353 0.0
C1759 C 0.40105 0.41332 0.89358 0.0
C1760 C 0.3959 0.41046 0.87622 0.0
C1761 C 0.40261 0.4098 0.86254 0.0
C1762 C 0.39778 0.40725 0.84618 0.0
C1763 C 0.38619 0.40525 0.84336 0.0
C1764 C 0.37941 0.40576 0.85691 0.0
C1765 C 0.38421 0.40832 0.87329 0.0
H1766 H 0.38246 0.40328 0.83069 0.0
H1767 H 0.42958 0.42727 0.98941 0.0
H1768 H 0.62184 0.01693 0.96709 0.0
H1769 H 0.60747 0.01216 0.94412 0.0
H1770 H 0.59747 0.97493 0.94694 0.0
H1771 H 0.61225 0.97978 0.96954 0.0
H1772 H 0.59786 0.98078 0.91524 0.0
H1773 H 0.57999 0.98574 0.96553 0.0
H1774 H 0.57882 0.99586 0.99145 0.0
H1775 H 0.58267 0.02529 0.96151 0.0
H1776 H 0.58403 0.01542 0.93542 0.0
H1777 H 0.54273 0.96091 0.87003 0.0
H1778 H 0.55679 0.96417 0.893 0.0
H1779 H 0.5732 0.00239 0.88679 0.0
H1780 H 0.55953 -0.00073 0.86345 0.0
H1781 H 0.56851 0.99473 0.92092 0.0
H1782 H 0.5869 0.98922 0.87058 0.0
H1783 H 0.58735 0.97826 0.84517 0.0
H1784 H 0.58128 0.94851 0.87631 0.0
H1785 H 0.58063 0.95923 0.9019 0.0
C1786 C 0.61666 0.00774 0.96273 0.0
C1787 C 0.61811 0.99871 0.97022 0.0
C1788 C 0.60838 0.005 0.94966 0.0
C1789 C 0.60113 0.99312 0.94409 0.0
C1790 C 0.60289 0.98415 0.95109 0.0
C1791 C 0.61134 0.98693 0.964 0.0
C1792 C 0.59161 0.9901 0.9312 0.0
C1793 C 0.59133 0.98367 0.91664 0.0
C1794 C 0.58312 0.99395 0.93288 0.0
C1795 C 0.58221 -0.00012 0.94854 0.0
C1796 C 0.58066 0.9944 0.96448 0.0
C1797 C 0.57996 9e-05 0.9792 0.0
C1798 C 0.58069 0.01122 0.97813 0.0
C1799 C 0.58211 0.01667 0.96232 0.0
C1800 C 0.58284 0.01103 0.94756 0.0
C1801 C 0.54937 0.97002 0.87346 0.0
C1802 C 0.54998 0.97982 0.8648 0.0
C1803 C 0.55736 0.97185 0.88664 0.0
C1804 C 0.56607 0.98352 0.8915 0.0
C1805 C 0.5665 0.99332 0.88325 0.0
C1806 C 0.55861 0.9915 0.86997 0.0
C1807 C 0.57491 0.98557 0.90498 0.0
C1808 C 0.57501 0.99179 0.91964 0.0
C1809 C 0.58312 0.98139 0.90349 0.0
C1810 C 0.58358 0.97497 0.88812 0.0
C1811 C 0.58556 0.9803 0.87199 0.0
C1812 C 0.58587 0.97414 0.85756 0.0
C1813 C 0.58431 0.96268 0.85912 0.0
C1814 C 0.58247 0.95738 0.87512 0.0
C1815 C 0.58213 0.96349 0.88959 0.0
H1816 H 0.58455 0.95793 0.84793 0.0
H1817 H 0.58014 0.01561 0.98954 0.0
H1818 H 0.60301 0.9818 0.04849 0.0
H1819 H 0.59066 0.98275 0.07134 0.0
H1820 H 0.62187 0.01381 0.09203 0.0
H1821 H 0.63426 0.01311 0.06885 0.0
H1822 H 0.59123 0.98012 0.10372 0.0
H1823 H 0.61316 0.03155 0.11255 0.0
H1824 H 0.6236 0.04998 0.09532 0.0
H1825 H 0.60572 0.02993 0.05055 0.0
H1826 H 0.59505 0.01142 0.06754 0.0
H1827 H 0.57189 0.98987 0.18166 0.0
H1828 H 0.58527 0.99245 0.15788 0.0
H1829 H 0.56613 0.00443 0.12627 0.0
H1830 H 0.55289 0.00215 0.15032 0.0
H1831 H 0.58978 0.01663 0.1189 0.0
H1832 H 0.55926 0.97541 0.12499 0.0
H1833 H 0.54699 0.95635 0.14031 0.0
H1834 H 0.57879 0.95473 0.15112 0.0
H1835 H 0.59127 0.97388 0.13607 0.0
C1836 C 0.60726 0.98887 0.05787 0.0
C1837 C 0.61962 0.99739 0.05687 0.0
C1838 C 0.60018 0.98938 0.07094 0.0
C1839 C 0.6053 0.9984 0.08334 0.0
C1840 C 0.61767 0.0069 0.08245 0.0
C1841 C 0.62476 0.00644 0.06926 0.0
C1842 C 0.59771 0.99862 0.09746 0.0
C1843 C 0.59094 0.98812 0.10701 0.0
C1844 C 0.59713 0.00897 0.10161 0.0
C1845 C 0.60341 0.02008 0.0913 0.0
C1846 C 0.61143 0.03109 0.09904 0.0
C1847 C 0.61739 0.04155 0.08931 0.0
C1848 C 0.61536 0.04112 0.07184 0.0
C1849 C 0.60733 0.03024 0.06407 0.0
C1850 C 0.60133 0.01976 0.07374 0.0
C1851 C 0.57063 0.99318 0.16968 0.0
C1852 C 0.56128 0.99566 0.1677 0.0
C1853 C 0.57826 0.99464 0.15611 0.0
C1854 C 0.57653 0.99837 0.14019 0.0
C1855 C 0.5676 0.00149 0.13843 0.0
C1856 C 0.56004 0.00017 0.15212 0.0
C1857 C 0.58349 0.9982 0.12523 0.0
C1858 C 0.59012 0.00867 0.11557 0.0
C1859 C 0.5837 0.98772 0.12064 0.0
C1860 C 0.57621 0.97613 0.12953 0.0
C1861 C 0.56364 0.97102 0.13073 0.0
C1862 C 0.55665 0.9602 0.13935 0.0
C1863 C 0.56211 0.95435 0.14671 0.0
C1864 C 0.57457 0.95928 0.14542 0.0
C1865 C 0.58161 0.97011 0.13684 0.0
H1866 H 0.55668 0.94597 0.15339 0.0
H1867 H 0.61999 0.04923 0.06433 0.0
H1868 H 0.01678 0.62515 0.05708 0.0
H1869 H 0.01636 0.61261 0.08051 0.0
H1870 H 0.98104 0.60569 0.09509 0.0
H1871 H 0.98147 0.61838 0.0718 0.0
H1872 H 0.99503 0.60989 0.12245 0.0
H1873 H 0.98443 0.58501 0.07286 0.0
H1874 H 0.98699 0.57969 0.04366 0.0
H1875 H 0.02023 0.5819 0.05779 0.0
H1876 H 0.01794 0.5874 0.08703 0.0
H1877 H 0.97693 0.55876 0.17381 0.0
H1878 H 0.97832 0.57185 0.15052 0.0
H1879 H 0.01452 0.57985 0.13962 0.0
H1880 H 0.01314 0.5666 0.16282 0.0
H1881 H 0.00061 0.57532 0.11054 0.0
H1882 H 0.01078 0.59979 0.16051 0.0
H1883 H 0.00785 0.60483 0.18969 0.0
H1884 H 0.97496 0.60306 0.17476 0.0
H1885 H 0.9776 0.59783 0.14553 0.0
C1886 C 0.00895 0.62101 0.06532 0.0
C1887 C -0.00087 0.6227 0.06253 0.0
C1888 C 0.0087 0.6138 0.07866 0.0
C1889 C -0.00141 0.60807 0.08939 0.0
C1890 C 0.98892 0.61 0.08693 0.0
C1891 C 0.98917 0.61724 0.0736 0.0
C1892 C 0.99805 0.59993 0.10304 0.0
C1893 C 0.99611 0.60225 0.11982 0.0
C1894 C -0.00029 0.5901 0.09964 0.0
C1895 C 0.00108 0.58674 0.08209 0.0
C1896 C 0.99233 0.58446 0.06971 0.0
C1897 C 0.99373 0.58139 0.05315 0.0
C1898 C 0.00378 0.58049 0.04886 0.0
C1899 C 0.01245 0.58262 0.06113 0.0
C1900 C 0.01111 0.5857 0.07769 0.0
C1901 C 0.98514 0.56318 0.16632 0.0
C1902 C 0.99493 0.56165 0.17013 0.0
C1903 C 0.98595 0.57074 0.15312 0.0
C1904 C 0.99657 0.57691 0.14348 0.0
C1905 C 0.00626 0.57519 0.14696 0.0
C1906 C 0.00549 0.56769 0.16026 0.0
C1907 C 0.99755 0.58527 0.12991 0.0
C1908 C -0.00043 0.58299 0.11316 0.0
C1909 C 0.99592 0.5951 0.13331 0.0
C1910 C 0.99433 0.5983 0.15086 0.0
C1911 C 0.00287 0.60038 0.16348 0.0
C1912 C 0.00127 0.60329 0.18002 0.0
C1913 C 0.99121 0.60424 0.18409 0.0
C1914 C 0.98274 0.60231 0.1716 0.0
C1915 C 0.98429 0.59938 0.15503 0.0
H1916 H 0.98998 0.6065 0.1969 0.0
H1917 H 0.00485 0.57811 0.03604 0.0
H1918 H 0.37926 0.36871 0.05994 0.0
H1919 H 0.39358 0.37667 0.08348 0.0
H1920 H 0.40777 0.41252 0.06419 0.0
H1921 H 0.39344 0.40469 0.04072 0.0
H1922 H 0.42566 0.40688 0.07304 0.0
H1923 H 0.38991 0.40462 0.09672 0.0
H1924 H 0.36834 0.39449 0.10428 0.0
H1925 H 0.37227 0.36946 0.1353 0.0
H1926 H 0.39384 0.37935 0.12772 0.0
H1927 H 0.4588 0.44219 0.14344 0.0
H1928 H 0.44523 0.43276 0.11949 0.0
H1929 H 0.42865 0.3987 0.14537 0.0
H1930 H 0.44181 0.40817 0.16971 0.0
H1931 H 0.41197 0.4024 0.13299 0.0
H1932 H 0.44758 0.40466 0.11085 0.0
H1933 H 0.46909 0.41412 0.10324 0.0
H1934 H 0.4656 0.43811 0.06935 0.0
H1935 H 0.44409 0.4289 0.07693 0.0
C1936 C 0.38541 0.37829 0.06072 0.0
C1937 C 0.38518 0.38607 0.04849 0.0
C1938 C 0.39357 0.38282 0.07418 0.0
C1939 C 0.4017 0.39518 0.07556 0.0
C1940 C 0.40157 0.40295 0.06331 0.0
C1941 C 0.39333 0.39846 0.04997 0.0
C1942 C 0.41033 0.40004 0.08981 0.0
C1943 C 0.42271 0.40603 0.08616 0.0
C1944 C 0.40641 0.39858 0.1069 0.0
C1945 C 0.39345 0.39264 0.1115 0.0
C1946 C 0.38615 0.39689 0.10503 0.0
C1947 C 0.37393 0.3912 0.10934 0.0
C1948 C 0.36893 0.38131 0.12022 0.0
C1949 C 0.37615 0.37711 0.12685 0.0
C1950 C 0.38838 0.38275 0.12255 0.0
C1951 C 0.45226 0.43269 0.14405 0.0
C1952 C 0.4514 0.42595 0.15853 0.0
C1953 C 0.44459 0.42728 0.13026 0.0
C1954 C 0.43599 0.41499 0.13054 0.0
C1955 C 0.43524 0.40819 0.14484 0.0
C1956 C 0.44286 0.4136 0.15868 0.0
C1957 C 0.42739 0.40936 0.11629 0.0
C1958 C 0.41499 0.40321 0.11992 0.0
C1959 C 0.4313 0.41058 0.09918 0.0
C1960 C 0.44424 0.41615 0.09458 0.0
C1961 C 0.45142 0.41202 0.10188 0.0
C1962 C 0.46361 0.41733 0.09755 0.0
C1963 C 0.46872 0.42673 0.08585 0.0
C1964 C 0.46163 0.43083 0.07843 0.0
C1965 C 0.44944 0.42556 0.08272 0.0
H1966 H 0.47816 0.43083 0.08252 0.0
H1967 H 0.35947 0.37693 0.12355 0.0
H1968 H 0.66847 0.72954 0.37674 0.0
H1969 H 0.66587 0.74086 0.39961 0.0
H1970 H 0.64964 0.70914 0.43108 0.0
H1971 H 0.65144 0.69765 0.40772 0.0
H1972 H 0.63786 0.71925 0.43594 0.0
H1973 H 0.68042 0.73437 0.43535 0.0
H1974 H 0.70083 0.74339 0.42301 0.0
H1975 H 0.69986 0.7751 0.41013 0.0
H1976 H 0.67938 0.76621 0.42222 0.0
H1977 H 0.65165 0.74958 0.5167 0.0
H1978 H 0.65313 0.73935 0.49132 0.0
H1979 H 0.65037 0.7649 0.45949 0.0
H1980 H 0.64854 0.775 0.48493 0.0
H1981 H 0.67137 0.75892 0.45423 0.0
H1982 H 0.62802 0.74242 0.45742 0.0
H1983 H 0.60851 0.73269 0.47253 0.0
H1984 H 0.6125 0.70244 0.48382 0.0
H1985 H 0.63214 0.71209 0.469 0.0
C1986 C 0.66437 0.72502 0.38858 0.0
C1987 C 0.6602 0.71275 0.39054 0.0
C1988 C 0.66295 0.73151 0.4017 0.0
C1989 C 0.65777 0.72596 0.41729 0.0
C1990 C 0.65365 0.71367 0.41922 0.0
C1991 C 0.65472 0.70711 0.40591 0.0
C1992 C 0.65644 0.73284 0.43151 0.0
C1993 C 0.64527 0.72787 0.43997 0.0
C1994 C 0.66599 0.7442 0.43677 0.0
C1995 C 0.67832 0.74957 0.42952 0.0
C1996 C 0.68453 0.74323 0.42978 0.0
C1997 C 0.69612 0.74833 0.42285 0.0
C1998 C 0.70163 0.75979 0.41575 0.0
C1999 C 0.69557 0.76621 0.41561 0.0
C2000 C 0.68398 0.76116 0.42251 0.0
C2001 C 0.65134 0.75298 0.50427 0.0
C2002 C 0.64999 0.76305 0.50268 0.0
C2003 C 0.65216 0.74714 0.48984 0.0
C2004 C 0.65186 0.7514 0.47362 0.0
C2005 C 0.65062 0.76152 0.47196 0.0
C2006 C 0.64953 0.76722 0.48642 0.0
C2007 C 0.65292 0.74524 0.45846 0.0
C2008 C 0.66402 0.75034 0.44996 0.0
C2009 C 0.64344 0.73388 0.45346 0.0
C2010 C 0.6316 0.72804 0.46225 0.0
C2011 C 0.62479 0.73375 0.46327 0.0
C2012 C 0.6137 0.72824 0.47175 0.0
C2013 C 0.60928 0.71697 0.47917 0.0
C2014 C 0.61594 0.71118 0.47809 0.0
C2015 C 0.62704 0.71666 0.46964 0.0
H2016 H 0.60069 0.71272 0.48573 0.0
H2017 H 0.7106 0.76372 0.41039 0.0
H2018 H 0.29668 0.94966 0.3909 0.0
H2019 H 0.2896 0.93556 0.41479 0.0
H2020 H 0.25933 0.94078 0.42176 0.0
H2021 H 0.26621 0.95471 0.39779 0.0
H2022 H 0.27165 0.9411 0.4526 0.0
H2023 H 0.25428 0.91734 0.40171 0.0
H2024 H 0.25531 0.91019 0.37303 0.0
H2025 H 0.27771 0.89701 0.39174 0.0
H2026 H 0.27696 0.90425 0.42051 0.0
H2027 H 0.23053 0.89296 0.50257 0.0
H2028 H 0.24028 0.90744 0.47979 0.0
H2029 H 0.26404 0.89365 0.4702 0.0
H2030 H 0.25383 0.8786 0.49242 0.0
H2031 H 0.25714 0.89816 0.44125 0.0
H2032 H 0.27365 0.92013 0.49218 0.0
H2033 H 0.27357 0.9275 0.52106 0.0
H2034 H 0.25449 0.94451 0.50306 0.0
H2035 H 0.25429 0.9371 0.4741 0.0
C2036 C 0.28858 0.9479 0.39764 0.0
C2037 C 0.28197 0.95325 0.39243 0.0
C2038 C 0.28454 0.93982 0.41122 0.0
C2039 C 0.27392 0.93711 0.41994 0.0
C2040 C 0.26755 0.94277 0.41517 0.0
C2041 C 0.27147 0.95069 0.40144 0.0
C2042 C 0.26914 0.92804 0.43364 0.0
C2043 C 0.26839 0.9317 0.45015 0.0
C2044 C 0.26528 0.91586 0.43046 0.0
C2045 C 0.26568 0.91146 0.4132 0.0
C2046 C 0.25952 0.91302 0.39967 0.0
C2047 C 0.26003 0.90893 0.38341 0.0
C2048 C 0.2666 0.90318 0.38055 0.0
C2049 C 0.27264 0.90148 0.39397 0.0
C2050 C 0.27217 0.90557 0.41025 0.0
C2051 C 0.23767 0.89281 0.49543 0.0
C2052 C 0.24137 0.88457 0.49938 0.0
C2053 C 0.24337 0.90125 0.48256 0.0
C2054 C 0.25308 0.90182 0.47351 0.0
C2055 C 0.25664 0.89345 0.47711 0.0
C2056 C 0.25085 0.88491 0.48991 0.0
C2057 C 0.25942 0.91115 0.46029 0.0
C2058 C 0.2605 0.90757 0.44384 0.0
C2059 C 0.26375 0.92345 0.46358 0.0
C2060 C 0.26387 0.92797 0.48098 0.0
C2061 C 0.26936 0.92537 0.4944 0.0
C2062 C 0.26937 0.92956 0.51078 0.0
C2063 C 0.26401 0.93645 0.5139 0.0
C2064 C 0.25863 0.93917 0.50063 0.0
C2065 C 0.25858 0.93498 0.48422 0.0
H2066 H 0.26403 0.93969 0.52659 0.0
H2067 H 0.26698 0.90002 0.36795 0.0
H2068 H 0.05237 0.34636 0.39229 0.0
H2069 H 0.06465 0.34835 0.41711 0.0
H2070 H 0.06087 0.31395 0.406 0.0
H2071 H 0.0486 0.31185 0.3813 0.0
H2072 H 0.0575 0.31644 0.43968 0.0
H2073 H 0.08638 0.33909 0.39587 0.0
H2074 H 0.09575 0.35465 0.37375 0.0
H2075 H 0.10303 0.38191 0.41076 0.0
H2076 H 0.09354 0.36649 0.43308 0.0
H2077 H 0.10442 0.31792 0.48744 0.0
H2078 H 0.09213 0.31763 0.46372 0.0
H2079 H 0.09708 0.35174 0.47967 0.0
H2080 H 0.10912 0.35198 0.50373 0.0
H2081 H 0.09955 0.35031 0.44463 0.0
H2082 H 0.0715 0.32777 0.4887 0.0
H2083 H 0.06226 0.31223 0.51087 0.0
H2084 H 0.05338 0.28481 0.47346 0.0
H2085 H 0.06274 0.3002 0.45109 0.0
C2086 C 0.05411 0.33919 0.39517 0.0
C2087 C 0.04953 0.32896 0.38476 0.0
C2088 C 0.06117 0.34037 0.40931 0.0
C2089 C 0.06375 0.33134 0.4133 0.0
C2090 C 0.059 0.32103 0.40314 0.0
C2091 C 0.05201 0.31987 0.38898 0.0
C2092 C 0.07147 0.33259 0.42798 0.0
C2093 C 0.06673 0.32378 0.44068 0.0
C2094 C 0.08341 0.34234 0.42949 0.0
C2095 C 0.08912 0.35163 0.4161 0.0
C2096 C 0.08988 0.34839 0.39926 0.0
C2097 C 0.09523 0.35719 0.38669 0.0
C2098 C 0.09995 0.36926 0.39083 0.0
C2099 C 0.09935 0.37256 0.40757 0.0
C2100 C 0.09399 0.3638 0.42018 0.0
C2101 C 0.10286 0.32534 0.48599 0.0
C2102 C 0.10771 0.33494 0.4976 0.0
C2103 C 0.09587 0.32518 0.47238 0.0
C2104 C 0.0936 0.3346 0.47006 0.0
C2105 C 0.09874 0.34438 0.48124 0.0
C2106 C 0.10567 0.34452 0.49494 0.0
C2107 C 0.08561 0.33406 0.45618 0.0
C2108 C 0.09029 0.34301 0.44367 0.0
C2109 C 0.0736 0.32444 0.45484 0.0
C2110 C 0.06792 0.31515 0.46824 0.0
C2111 C 0.06767 0.31843 0.48522 0.0
C2112 C 0.0624 0.30965 0.49782 0.0
C2113 C 0.05727 0.29755 0.49358 0.0
C2114 C 0.05737 0.2942 0.47672 0.0
C2115 C 0.06265 0.30294 0.46408 0.0
H2116 H 0.05319 0.29076 0.50336 0.0
H2117 H 0.10409 0.37605 0.38109 0.0
H2118 H 0.03425 0.32 0.28583 0.0
H2119 H 0.04613 0.31856 0.26253 0.0
H2120 H 0.07824 0.34887 0.28281 0.0
H2121 H 0.06641 0.35051 0.30588 0.0
H2122 H 0.07722 0.35085 0.24942 0.0
H2123 H 0.07206 0.31981 0.28821 0.0
H2124 H 0.0604 0.3017 0.30573 0.0
H2125 H 0.04232 0.28137 0.26124 0.0
H2126 H 0.05376 0.29941 0.24347 0.0
H2127 H 0.12192 0.34661 0.20408 0.0
H2128 H 0.10911 0.34601 0.22755 0.0
H2129 H 0.07828 0.31623 0.20388 0.0
H2130 H 0.09109 0.31674 0.18038 0.0
H2131 H 0.07787 0.31342 0.23812 0.0
H2132 H 0.08315 0.34423 0.19931 0.0
H2133 H 0.0948 0.36225 0.18162 0.0
H2134 H 0.11244 0.38294 0.22606 0.0
H2135 H 0.10102 0.36499 0.244 0.0
C2136 C 0.04384 0.32637 0.28529 0.0
C2137 C 0.0494 0.33535 0.29771 0.0
C2138 C 0.05062 0.3255 0.27203 0.0
C2139 C 0.0631 0.33351 0.27106 0.0
C2140 C 0.06862 0.34258 0.28332 0.0
C2141 C 0.06185 0.34349 0.29651 0.0
C2142 C 0.07045 0.33258 0.25723 0.0
C2143 C 0.07747 0.3427 0.2471 0.0
C2144 C 0.07052 0.32185 0.25388 0.0
C2145 C 0.06368 0.31099 0.26454 0.0
C2146 C 0.06553 0.3115 0.28218 0.0
C2147 C 0.05897 0.30124 0.29215 0.0
C2148 C 0.0506 0.2904 0.28461 0.0
C2149 C 0.04879 0.28978 0.26707 0.0
C2150 C 0.05532 0.30001 0.25704 0.0
C2151 C 0.11242 0.3399 0.20393 0.0
C2152 C 0.10748 0.3318 0.19033 0.0
C2153 C 0.10512 0.33956 0.21733 0.0
C2154 C 0.0927 0.33122 0.21728 0.0
C2155 C 0.08783 0.32276 0.20413 0.0
C2156 C 0.09516 0.32305 0.19075 0.0
C2157 C 0.08475 0.33174 0.23053 0.0
C2158 C 0.0776 0.32155 0.24047 0.0
C2159 C 0.08453 0.3424 0.23371 0.0
C2160 C 0.09131 0.35324 0.22298 0.0
C2161 C 0.08957 0.3526 0.2053 0.0
C2162 C 0.09613 0.36281 0.19523 0.0
C2163 C 0.10438 0.37373 0.20271 0.0
C2164 C 0.10606 0.37447 0.22028 0.0
C2165 C 0.09954 0.36429 0.23041 0.0
H2166 H 0.10945 0.38162 0.19489 0.0
H2167 H 0.04553 0.28247 0.29236 0.0
H2168 H 0.68135 0.71979 0.30425 0.0
H2169 H 0.68748 0.73416 0.2808 0.0
H2170 H 0.65108 0.72712 0.27673 0.0
H2171 H 0.64489 0.71289 0.30027 0.0
H2172 H 0.66245 0.72772 0.24493 0.0
H2173 H 0.66994 0.75103 0.29638 0.0
H2174 H 0.67883 0.75824 0.32468 0.0
H2175 H 0.71433 0.77267 0.30351 0.0
H2176 H 0.70563 0.76539 0.27511 0.0
H2177 H 0.66982 0.77539 0.1942 0.0
H2178 H 0.66477 0.76134 0.21757 0.0
H2179 H 0.70256 0.77519 0.22682 0.0
H2180 H 0.70773 0.78984 0.20413 0.0
H2181 H 0.69131 0.77081 0.25577 0.0
H2182 H 0.68485 0.74854 0.20467 0.0
H2183 H 0.67679 0.74103 0.17607 0.0
H2184 H 0.64068 0.72416 0.19575 0.0
H2185 H 0.64852 0.73172 0.22444 0.0
C2186 C 0.67463 0.72123 0.29827 0.0
C2187 C 0.66264 0.71524 0.30416 0.0
C2188 C 0.67816 0.72946 0.28493 0.0
C2189 C 0.66974 0.73173 0.27714 0.0
C2190 C 0.6577 0.72549 0.2826 0.0
C2191 C 0.6542 0.71739 0.29608 0.0
C2192 C 0.6735 0.74086 0.26358 0.0
C2193 C 0.66866 0.73717 0.2473 0.0
C2194 C 0.68189 0.75311 0.26661 0.0
C2195 C 0.68713 0.75755 0.28366 0.0
C2196 C 0.67964 0.75565 0.29779 0.0
C2197 C 0.68464 0.75976 0.31384 0.0
C2198 C 0.69714 0.76588 0.3159 0.0
C2199 C 0.70465 0.76792 0.3019 0.0
C2200 C 0.69969 0.7638 0.28582 0.0
C2201 C 0.67709 0.77567 0.20141 0.0
C2202 C 0.6892 0.78376 0.19716 0.0
C2203 C 0.67418 0.76747 0.21463 0.0
C2204 C 0.68328 0.76699 0.22371 0.0
C2205 C 0.69537 0.7753 0.21991 0.0
C2206 C 0.69831 0.78361 0.2068 0.0
C2207 C 0.68016 0.75773 0.23702 0.0
C2208 C 0.68513 0.76138 0.25329 0.0
C2209 C 0.67203 0.7454 0.2339 0.0
C2210 C 0.66727 0.74079 0.21668 0.0
C2211 C 0.67518 0.7433 0.20288 0.0
C2212 C 0.67066 0.73903 0.18666 0.0
C2213 C 0.65823 0.73215 0.18409 0.0
C2214 C 0.6503 0.72951 0.19776 0.0
C2215 C 0.65478 0.73377 0.214 0.0
H2216 H 0.65474 0.72885 0.17152 0.0
H2217 H 0.701 0.76906 0.32834 0.0
H2218 H 0.28189 0.93853 0.31193 0.0
H2219 H 0.26881 0.92578 0.28922 0.0
H2220 H 0.26434 0.9548 0.27148 0.0
H2221 H 0.27725 0.96757 0.29447 0.0
H2222 H 0.24331 0.93425 0.27143 0.0
H2223 H 0.28316 0.9473 0.25093 0.0
H2224 H 0.3038 0.95068 0.25201 0.0
H2225 H 0.28966 0.91281 0.25683 0.0
H2226 H 0.26892 0.90921 0.25601 0.0
H2227 H 0.22209 0.91129 0.18839 0.0
H2228 H 0.23343 0.92318 0.21288 0.0
H2229 H 0.23505 0.89297 0.23253 0.0
H2230 H 0.2234 0.88085 0.20827 0.0
H2231 H 0.25726 0.91386 0.23179 0.0
H2232 H 0.21719 0.90103 0.25141 0.0
H2233 H 0.19673 0.89803 0.24967 0.0
H2234 H 0.21155 0.93605 0.24559 0.0
H2235 H 0.23212 0.93927 0.24707 0.0
C2236 C 0.27814 0.94222 0.30319 0.0
C2237 C 0.28065 0.95408 0.30494 0.0
C2238 C 0.27069 0.93492 0.29017 0.0
C2239 C 0.26573 0.93938 0.2785 0.0
C2240 C 0.2681 0.95118 0.28033 0.0
C2241 C 0.2755 0.95848 0.29343 0.0
C2242 C 0.25807 0.93172 0.2644 0.0
C2243 C 0.24642 0.92992 0.26263 0.0
C2244 C 0.26203 0.92587 0.25312 0.0
C2245 C 0.27449 0.928 0.25358 0.0
C2246 C 0.28445 0.9397 0.25236 0.0
C2247 C 0.29617 0.94166 0.2529 0.0
C2248 C 0.29804 0.93197 0.25453 0.0
C2249 C 0.2882 0.92031 0.25559 0.0
C2250 C 0.27646 0.9183 0.25507 0.0
C2251 C 0.22461 0.90706 0.19808 0.0
C2252 C 0.22179 0.89508 0.19634 0.0
C2253 C 0.23115 0.9139 0.21204 0.0
C2254 C 0.23503 0.90894 0.22454 0.0
C2255 C 0.23216 0.89697 0.22298 0.0
C2256 C 0.22554 0.89008 0.20907 0.0
C2257 C 0.24252 0.9164 0.23886 0.0
C2258 C 0.25415 0.91817 0.24064 0.0
C2259 C 0.23857 0.92229 0.25005 0.0
C2260 C 0.2262 0.92038 0.24919 0.0
C2261 C 0.21609 0.90875 0.25 0.0
C2262 C 0.20447 0.90701 0.24908 0.0
C2263 C 0.20284 0.91684 0.24747 0.0
C2264 C 0.21283 0.92844 0.24681 0.0
C2265 C 0.22447 0.93023 0.24771 0.0
H2266 H 0.19383 0.91548 0.24677 0.0
H2267 H 0.30712 0.93351 0.25495 0.0
H2268 H 0.67776 0.96325 0.29602 0.0
H2269 H 0.68357 0.95557 0.27151 0.0
H2270 H 0.66233 0.9196 0.29099 0.0
H2271 H 0.65646 0.92715 0.31548 0.0
H2272 H 0.68521 0.9251 0.2805 0.0
H2273 H 0.65177 0.92806 0.2591 0.0
H2274 H 0.64062 0.93844 0.25273 0.0
H2275 H 0.66977 0.96353 0.22109 0.0
H2276 H 0.68117 0.95339 0.22747 0.0
H2277 H 0.68116 0.89024 0.20877 0.0
H2278 H 0.67732 0.89954 0.23317 0.0
H2279 H 0.6959 0.93388 0.20804 0.0
H2280 H 0.69932 0.92455 0.18327 0.0
H2281 H 0.67553 0.93035 0.2214 0.0
H2282 H 0.70876 0.92727 0.2414 0.0
H2283 H 0.72037 0.91738 0.24778 0.0
H2284 H 0.69258 0.89331 0.28204 0.0
H2285 H 0.6807 0.90295 0.27569 0.0
C2286 C 0.6743 0.9537 0.29508 0.0
C2287 C 0.66662 0.94582 0.3077 0.0
C2288 C 0.67761 0.94933 0.28105 0.0
C2289 C 0.67334 0.93701 0.27943 0.0
C2290 C 0.66573 0.92914 0.29203 0.0
C2291 C 0.66234 0.93348 0.30597 0.0
C2292 C 0.67681 0.93229 0.26465 0.0
C2293 C 0.68299 0.92613 0.26758 0.0
C2294 C 0.67423 0.93397 0.24779 0.0
C2295 C 0.66738 0.94005 0.24392 0.0
C2296 C 0.65585 0.93586 0.25091 0.0
C2297 C 0.64947 0.94168 0.24727 0.0
C2298 C 0.6545 0.95166 0.23655 0.0
C2299 C 0.6659 0.95581 0.22941 0.0
C2300 C 0.67232 0.95003 0.23302 0.0
C2301 C 0.6844 0.89977 0.2084 0.0
C2302 C 0.69056 0.90664 0.19405 0.0
C2303 C 0.68231 0.9051 0.22245 0.0
C2304 C 0.68644 0.91744 0.22253 0.0
C2305 C 0.69267 0.92435 0.20829 0.0
C2306 C 0.69472 0.91901 0.1942 0.0
C2307 C 0.68386 0.92303 0.23722 0.0
C2308 C 0.67784 0.92937 0.23429 0.0
C2309 C 0.68668 0.9216 0.25408 0.0
C2310 C 0.69379 0.91577 0.25795 0.0
C2311 C 0.70507 0.91981 0.25019 0.0
C2312 C 0.71171 0.91426 0.25382 0.0
C2313 C 0.7072 0.90471 0.26527 0.0
C2314 C 0.69605 0.9007 0.27315 0.0
C2315 C 0.68937 0.90622 0.26956 0.0
H2316 H 0.71236 0.90042 0.26807 0.0
H2317 H 0.64955 0.95615 0.23375 0.0
H2318 H 0.06241 0.71922 0.30644 0.0
H2319 H 0.0739 0.73297 0.28337 0.0
H2320 H 0.04136 0.73059 0.26444 0.0
H2321 H 0.02989 0.71712 0.28775 0.0
H2322 H 0.07351 0.73122 0.25041 0.0
H2323 H 0.04735 0.7569 0.24748 0.0
H2324 H 0.03611 0.76282 0.2668 0.0
H2325 H 0.05618 0.76142 0.30922 0.0
H2326 H 0.06765 0.75567 0.29014 0.0
H2327 H 0.08498 0.76213 0.17293 0.0
H2328 H 0.07559 0.7497 0.19797 0.0
H2329 H 0.09307 0.7811 0.2299 0.0
H2330 H 0.10242 0.79363 0.20478 0.0
H2331 H 0.07051 0.76737 0.23952 0.0
H2332 H 0.10331 0.76129 0.22787 0.0
H2333 H 0.11642 0.75663 0.21053 0.0
H2334 H 0.08665 0.72126 0.20101 0.0
H2335 H 0.0733 0.72576 0.21809 0.0
C2336 C 0.0577 0.72161 0.29734 0.0
C2337 C 0.04526 0.71716 0.29897 0.0
C2338 C 0.06428 0.72945 0.28415 0.0
C2339 C 0.05854 0.73297 0.27233 0.0
C2340 C 0.04604 0.72822 0.27363 0.0
C2341 C 0.03948 0.72047 0.2869 0.0
C2342 C 0.06561 0.74161 0.25866 0.0
C2343 C 0.07286 0.73913 0.24804 0.0
C2344 C 0.06502 0.75211 0.25583 0.0
C2345 C 0.05828 0.75574 0.26739 0.0
C2346 C 0.0494 0.75791 0.26092 0.0
C2347 C 0.04298 0.76122 0.27183 0.0
C2348 C 0.0454 0.76246 0.28923 0.0
C2349 C 0.05428 0.76042 0.29575 0.0
C2350 C 0.06074 0.75712 0.28489 0.0
C2351 C 0.08691 0.76638 0.1853 0.0
C2352 C 0.09451 0.77884 0.18691 0.0
C2353 C 0.08154 0.75927 0.1996 0.0
C2354 C 0.08377 0.76444 0.21584 0.0
C2355 C 0.09123 0.77691 0.21749 0.0
C2356 C 0.09655 0.78406 0.20315 0.0
C2357 C 0.07817 0.75681 0.23103 0.0
C2358 C 0.07119 0.75949 0.24193 0.0
C2359 C 0.07928 0.74667 0.2344 0.0
C2360 C 0.08728 0.7439 0.22415 0.0
C2361 C 0.09953 0.75254 0.22197 0.0
C2362 C 0.10701 0.74993 0.21221 0.0
C2363 C 0.10237 0.73866 0.20464 0.0
C2364 C 0.09023 0.72998 0.20686 0.0
C2365 C 0.08271 0.73256 0.2166 0.0
H2366 H 0.10817 0.73665 0.19708 0.0
H2367 H 0.04041 0.76501 0.29766 0.0
H2368 H 0.27573 0.3438 0.31765 0.0
H2369 H 0.26124 0.33817 0.2946 0.0
H2370 H 0.27305 0.31497 0.27372 0.0
H2371 H 0.2876 0.32051 0.29684 0.0
H2372 H 0.27077 0.32966 0.24941 0.0
H2373 H 0.24743 0.30259 0.2943 0.0
H2374 H 0.23941 0.29717 0.32345 0.0
H2375 H 0.22238 0.31821 0.3185 0.0
H2376 H 0.23045 0.3239 0.28938 0.0
H2377 H 0.22431 0.30149 0.18945 0.0
H2378 H 0.23761 0.30464 0.21323 0.0
H2379 H 0.22354 0.32414 0.23988 0.0
H2380 H 0.20966 0.32042 0.21651 0.0
H2381 H 0.22698 0.31066 0.26141 0.0
H2382 H 0.25062 0.33859 0.21774 0.0
H2383 H 0.25893 0.34498 0.18889 0.0
H2384 H 0.27576 0.32365 0.1918 0.0
H2385 H 0.2674 0.31699 0.2206 0.0
C2386 C 0.2753 0.33752 0.30815 0.0
C2387 C 0.28282 0.33259 0.30912 0.0
C2388 C 0.26696 0.33428 0.29503 0.0
C2389 C 0.266 0.32608 0.28257 0.0
C2390 C 0.27364 0.32129 0.28327 0.0
C2391 C 0.28192 0.32445 0.2965 0.0
C2392 C 0.25704 0.32257 0.26878 0.0
C2393 C 0.26118 0.32532 0.25198 0.0
C2394 C 0.24456 0.31723 0.27224 0.0
C2395 C 0.23964 0.31376 0.28971 0.0
C2396 C 0.24206 0.30614 0.29947 0.0
C2397 C 0.23749 0.30301 0.31598 0.0
C2398 C 0.23042 0.30737 0.32284 0.0
C2399 C 0.22787 0.31485 0.31318 0.0
C2400 C 0.23243 0.31802 0.29666 0.0
C2401 C 0.2238 0.30621 0.2005 0.0
C2402 C 0.2159 0.31073 0.20098 0.0
C2403 C 0.23156 0.30816 0.21402 0.0
C2404 C 0.23177 0.31486 0.2282 0.0
C2405 C 0.22361 0.31903 0.22902 0.0
C2406 C 0.21575 0.31698 0.21556 0.0
C2407 C 0.24069 0.31777 0.24196 0.0
C2408 C 0.23656 0.31493 0.25879 0.0
C2409 C 0.2532 0.32317 0.23855 0.0
C2410 C 0.25828 0.32719 0.22126 0.0
C2411 C 0.25602 0.33519 0.21218 0.0
C2412 C 0.26075 0.33887 0.19584 0.0
C2413 C 0.26785 0.3347 0.18849 0.0
C2414 C 0.27025 0.32686 0.19749 0.0
C2415 C 0.26552 0.32313 0.21383 0.0
H2416 H 0.2715 0.33756 0.17585 0.0
H2417 H 0.22689 0.30493 0.33563 0.0
H2418 H 0.30433 0.34459 0.40921 0.0
H2419 H 0.29288 0.34728 0.43208 0.0
H2420 H 0.25976 0.32439 0.40556 0.0
H2421 H 0.27108 0.32132 0.3829 0.0
H2422 H 0.268 0.35174 0.41937 0.0
H2423 H 0.25839 0.31081 0.43288 0.0
H2424 H 0.26422 0.2957 0.43848 0.0
H2425 H 0.2867 0.31705 0.47961 0.0
H2426 H 0.28113 0.33238 0.47406 0.0
H2427 H 0.22638 0.34871 0.48195 0.0
H2428 H 0.2366 0.34489 0.45845 0.0
H2429 H 0.26377 0.34773 0.49321 0.0
H2430 H 0.25315 0.35087 0.51672 0.0
H2431 H 0.25821 0.33 0.47426 0.0
H2432 H 0.2684 0.37038 0.4631 0.0
H2433 H 0.2648 0.38711 0.4581 0.0
H2434 H 0.24416 0.36938 0.41367 0.0
H2435 H 0.24751 0.35246 0.41853 0.0
C2436 C 0.2946 0.34004 0.40834 0.0
C2437 C 0.28858 0.33272 0.39433 0.0
C2438 C 0.2881 0.3416 0.42137 0.0
C2439 C 0.27553 0.33603 0.4204 0.0
C2440 C 0.26948 0.32872 0.40646 0.0
C2441 C 0.27594 0.32694 0.39361 0.0
C2442 C 0.26876 0.33808 0.43386 0.0
C2443 C 0.26566 0.34689 0.43131 0.0
C2444 C 0.26616 0.33203 0.44954 0.0
C2445 C 0.26947 0.3228 0.45291 0.0
C2446 C 0.26468 0.31235 0.44298 0.0
C2447 C 0.26791 0.30372 0.44618 0.0
C2448 C 0.27586 0.30543 0.45935 0.0
C2449 C 0.28057 0.31575 0.46939 0.0
C2450 C 0.27737 0.3244 0.46623 0.0
C2451 C 0.23457 0.34858 0.48443 0.0
C2452 C 0.23905 0.35009 0.50099 0.0
C2453 C 0.24045 0.34646 0.47104 0.0
C2454 C 0.25107 0.34616 0.47398 0.0
C2455 C 0.25559 0.34787 0.49059 0.0
C2456 C 0.24958 0.34971 0.50399 0.0
C2457 C 0.25732 0.34373 0.45993 0.0
C2458 C 0.26041 0.33486 0.46235 0.0
C2459 C 0.26014 0.34995 0.44425 0.0
C2460 C 0.2581 0.3601 0.44129 0.0
C2461 C 0.26301 0.37001 0.45234 0.0
C2462 C 0.26103 0.37953 0.44951 0.0
C2463 C 0.25423 0.37929 0.4356 0.0
C2464 C 0.24941 0.36954 0.42446 0.0
C2465 C 0.25136 0.35999 0.42723 0.0
H2466 H 0.2527 0.38667 0.43343 0.0
H2467 H 0.27835 0.29874 0.46182 0.0
H2468 H 0.65245 0.94919 0.4062 0.0
H2469 H 0.65253 0.93666 0.42935 0.0
H2470 H 0.68575 0.94051 0.41015 0.0
H2471 H 0.68575 0.95304 0.38695 0.0
H2472 H 0.66885 0.91705 0.41779 0.0
H2473 H 0.68627 0.95572 0.44458 0.0
H2474 H 0.68713 0.97446 0.45329 0.0
H2475 H 0.65429 0.9543 0.48171 0.0
H2476 H 0.65315 0.93542 0.47297 0.0
H2477 H 0.68482 0.89464 0.48919 0.0
H2478 H 0.68422 0.90668 0.46577 0.0
H2479 H 0.65258 0.90495 0.48769 0.0
H2480 H 0.65339 0.89331 0.51146 0.0
H2481 H 0.66838 0.92719 0.4785 0.0
H2482 H 0.65074 0.88861 0.45227 0.0
H2483 H 0.64931 0.86964 0.44339 0.0
H2484 H 0.68168 0.88915 0.4138 0.0
H2485 H 0.6834 0.90826 0.42269 0.0
C2486 C 0.65981 0.94742 0.40696 0.0
C2487 C 0.6691 0.95211 0.39476 0.0
C2488 C 0.65985 0.94028 0.4202 0.0
C2489 C 0.66918 0.93771 0.42149 0.0
C2490 C 0.67847 0.94239 0.40936 0.0
C2491 C 0.67848 0.94958 0.39616 0.0
C2492 C 0.66914 0.92998 0.43536 0.0
C2493 C 0.66891 0.91933 0.43108 0.0
C2494 C 0.66887 0.93281 0.45266 0.0
C2495 C 0.66956 0.94415 0.45798 0.0
C2496 C 0.67918 0.95528 0.45257 0.0
C2497 C 0.67973 0.96593 0.45753 0.0
C2498 C 0.67075 0.96557 0.46801 0.0
C2499 C 0.66123 0.95456 0.47358 0.0
C2500 C 0.66063 0.94388 0.46863 0.0
C2501 C 0.67774 0.89683 0.48903 0.0
C2502 C 0.66915 0.89299 0.5022 0.0
C2503 C 0.67734 0.90362 0.47556 0.0
C2504 C 0.66829 0.90663 0.47489 0.0
C2505 C 0.65963 0.90271 0.48791 0.0
C2506 C 0.66004 0.89595 0.50141 0.0
C2507 C 0.66811 0.91424 0.46096 0.0
C2508 C 0.6683 0.92488 0.46522 0.0
C2509 C 0.66826 0.91135 0.44364 0.0
C2510 C 0.66727 0.89987 0.43829 0.0
C2511 C 0.65761 0.88887 0.44398 0.0
C2512 C 0.65674 0.87809 0.43892 0.0
C2513 C 0.66541 0.87819 0.42807 0.0
C2514 C 0.67497 0.88908 0.42222 0.0
C2515 C 0.6759 0.89989 0.42726 0.0
H2516 H 0.66472 0.86984 0.42417 0.0
H2517 H 0.67119 0.97382 0.47184 0.0
H2518 H 0.05761 0.7418 0.37778 0.0
H2519 H 0.07134 0.75039 0.40181 0.0
H2520 H 0.05846 0.71496 0.42193 0.0
H2521 H 0.04471 0.70624 0.39786 0.0
H2522 H 0.06035 0.73192 0.44645 0.0
H2523 H 0.08434 0.72806 0.40236 0.0
H2524 H 0.09307 0.73107 0.37359 0.0
H2525 H 0.11092 0.76923 0.3803 0.0
H2526 H 0.10215 0.76644 0.40904 0.0
H2527 H 0.10506 0.74456 0.50717 0.0
H2528 H 0.09142 0.73661 0.48314 0.0
H2529 H 0.10903 0.77166 0.46 0.0
H2530 H 0.12325 0.77958 0.48361 0.0
H2531 H 0.10455 0.75538 0.43682 0.0
H2532 H 0.08134 0.75989 0.48056 0.0
H2533 H 0.07251 0.75753 0.50916 0.0
H2534 H 0.05298 0.71928 0.50308 0.0
H2535 H 0.06183 0.7214 0.47453 0.0
C2536 C 0.05765 0.73581 0.38733 0.0
C2537 C 0.05009 0.72332 0.38586 0.0
C2538 C 0.06553 0.74075 0.40102 0.0
C2539 C 0.06596 0.7333 0.41355 0.0
C2540 C 0.05826 0.72085 0.41236 0.0
C2541 C 0.05045 0.71589 0.39857 0.0
C2542 C 0.07457 0.7385 0.4278 0.0
C2543 C 0.07003 0.73693 0.4444 0.0
C2544 C 0.08716 0.74534 0.42501 0.0
C2545 C 0.09249 0.74704 0.40778 0.0
C2546 C 0.09005 0.73709 0.39764 0.0
C2547 C 0.09502 0.73876 0.38135 0.0
C2548 C 0.10252 0.75033 0.3751 0.0
C2549 C 0.10509 0.76027 0.38515 0.0
C2550 C 0.10013 0.75865 0.40144 0.0
C2551 C 0.10621 0.75058 0.49687 0.0
C2552 C 0.11531 0.76273 0.49736 0.0
C2553 C 0.09825 0.74603 0.48322 0.0
C2554 C 0.09904 0.75358 0.46989 0.0
C2555 C 0.1082 0.76568 0.47019 0.0
C2556 C 0.11626 0.77022 0.48379 0.0
C2557 C 0.09037 0.74877 0.45559 0.0
C2558 C 0.09489 0.75042 0.43894 0.0
C2559 C 0.07774 0.74211 0.45833 0.0
C2560 C 0.07234 0.7408 0.47546 0.0
C2561 C 0.07523 0.75097 0.48537 0.0
C2562 C 0.07021 0.74968 0.50156 0.0
C2563 C 0.06221 0.73826 0.50795 0.0
C2564 C 0.05919 0.72812 0.49813 0.0
C2565 C 0.06419 0.72936 0.48193 0.0
H2566 H 0.05834 0.73728 0.52049 0.0
H2567 H 0.10636 0.75161 0.36248 0.0
H2568 H 0.34681 0.06182 0.72191 0.0
H2569 H 0.34462 0.07303 0.74533 0.0
H2570 H 0.30851 0.04381 0.75463 0.0
H2571 H 0.31058 0.03258 0.73109 0.0
H2572 H 0.3095 0.06521 0.75488 0.0
H2573 H 0.3314 0.04835 0.78044 0.0
H2574 H 0.34791 0.04403 0.78294 0.0
H2575 H 0.37365 0.0817 0.78596 0.0
H2576 H 0.3573 0.08626 0.78325 0.0
H2577 H 0.3001 0.08221 0.83672 0.0
H2578 H 0.30251 0.07191 0.81232 0.0
H2579 H 0.33879 0.10132 0.80489 0.0
H2580 H 0.33643 0.11171 0.82931 0.0
H2581 H 0.33797 0.08026 0.80327 0.0
H2582 H 0.31609 0.09718 0.77835 0.0
H2583 H 0.29962 0.10155 0.77582 0.0
H2584 H 0.27391 0.06394 0.77149 0.0
H2585 H 0.29022 0.05932 0.77423 0.0
C2586 C 0.33841 0.05776 0.72897 0.0
C2587 C 0.32887 0.0463 0.72468 0.0
C2588 C 0.33719 0.06417 0.74238 0.0
C2589 C 0.32644 0.05921 0.75182 0.0
C2590 C 0.31688 0.0478 0.74751 0.0
C2591 C 0.3181 0.04138 0.7341 0.0
C2592 C 0.3251 0.06597 0.76607 0.0
C2593 C 0.31563 0.06838 0.76558 0.0
C2594 C 0.33329 0.07037 0.77979 0.0
C2595 C 0.34314 0.06765 0.78146 0.0
C2596 C 0.34059 0.05572 0.78149 0.0
C2597 C 0.34992 0.05322 0.78298 0.0
C2598 C 0.36183 0.06259 0.78456 0.0
C2599 C 0.36443 0.07446 0.78471 0.0
C2600 C 0.35513 0.077 0.78321 0.0
C2601 C 0.30853 0.08658 0.82974 0.0
C2602 C 0.31806 0.09781 0.83492 0.0
C2603 C 0.3099 0.08066 0.81581 0.0
C2604 C 0.32079 0.08589 0.80667 0.0
C2605 C 0.33031 0.09711 0.81177 0.0
C2606 C 0.32896 0.10303 0.82574 0.0
C2607 C 0.32234 0.07948 0.79212 0.0
C2608 C 0.33186 0.07714 0.79255 0.0
C2609 C 0.3142 0.07515 0.77834 0.0
C2610 C 0.30437 0.0779 0.77665 0.0
C2611 C 0.30692 0.08983 0.77699 0.0
C2612 C 0.29761 0.09236 0.7755 0.0
C2613 C 0.28572 0.08303 0.77354 0.0
C2614 C 0.28312 0.07116 0.77303 0.0
C2615 C 0.29239 0.06858 0.77453 0.0
H2616 H 0.27853 0.085 0.77238 0.0
H2617 H 0.36904 0.06064 0.78571 0.0
H2618 H 0.96552 0.28735 0.72523 0.0
H2619 H 0.95747 0.27438 0.75031 0.0
H2620 H 0.92246 0.26996 0.74098 0.0
H2621 H 0.93035 0.28288 0.71621 0.0
H2622 H 0.92867 0.27483 0.77388 0.0
H2623 H 0.92881 0.24825 0.73041 0.0
H2624 H 0.93833 0.24173 0.70895 0.0
H2625 H 0.96141 0.24057 0.74711 0.0
H2626 H 0.95212 0.24724 0.76877 0.0
H2627 H 0.88515 0.22417 0.81579 0.0
H2628 H 0.89797 0.23715 0.79297 0.0
H2629 H 0.92886 0.23811 0.81563 0.0
H2630 H 0.91606 0.2252 0.8388 0.0
H2631 H 0.92804 0.2363 0.77902 0.0
H2632 H 0.92613 0.26074 0.82309 0.0
H2633 H 0.91608 0.26673 0.84441 0.0
H2634 H 0.89624 0.2719 0.805 0.0
H2635 H 0.90603 0.26575 0.78345 0.0
C2636 C 0.95611 0.28364 0.72856 0.0
C2637 C 0.94858 0.28616 0.71869 0.0
C2638 C 0.95152 0.27619 0.74284 0.0
C2639 C 0.93935 0.27116 0.74745 0.0
C2640 C 0.93188 0.27376 0.73769 0.0
C2641 C 0.93642 0.28114 0.72347 0.0
C2642 C 0.9342 0.26323 0.76246 0.0
C2643 C 0.92851 0.2664 0.77496 0.0
C2644 C 0.93431 0.25239 0.76415 0.0
C2645 C 0.93988 0.24839 0.75115 0.0
C2646 C 0.93599 0.24671 0.73419 0.0
C2647 C 0.94132 0.24297 0.722 0.0
C2648 C 0.9505 0.24078 0.72665 0.0
C2649 C 0.95432 0.2423 0.74352 0.0
C2650 C 0.94903 0.24605 0.75575 0.0
C2651 C 0.89466 0.22709 0.81591 0.0
C2652 C 0.89962 0.22381 0.82924 0.0
C2653 C 0.90196 0.23447 0.80283 0.0
C2654 C 0.91438 0.23873 0.80279 0.0
C2655 C 0.91929 0.23493 0.81549 0.0
C2656 C 0.91197 0.22753 0.82867 0.0
C2657 C 0.92219 0.24776 0.79003 0.0
C2658 C 0.92839 0.24484 0.77805 0.0
C2659 C 0.92257 0.25885 0.78876 0.0
C2660 C 0.91676 0.26271 0.80166 0.0
C2661 C 0.91956 0.26307 0.81897 0.0
C2662 C 0.91392 0.26651 0.8311 0.0
C2663 C 0.90551 0.26968 0.82607 0.0
C2664 C 0.90275 0.26944 0.80888 0.0
C2665 C 0.90836 0.266 0.7967 0.0
H2666 H 0.90115 0.27233 0.83548 0.0
H2667 H 0.95461 0.23788 0.7172 0.0
H2668 H 0.71638 0.68086 0.73225 0.0
H2669 H 0.72976 0.6863 0.75676 0.0
H2670 H 0.74616 0.66733 0.73491 0.0
H2671 H 0.73253 0.66149 0.71079 0.0
H2672 H 0.74226 0.66207 0.76652 0.0
H2673 H 0.76021 0.69903 0.73544 0.0
H2674 H 0.76077 0.71612 0.72077 0.0
H2675 H 0.7503 0.72624 0.7669 0.0
H2676 H 0.74952 0.70911 0.7818 0.0
H2677 H 0.7938 0.68597 0.8195 0.0
H2678 H 0.78113 0.68215 0.79455 0.0
H2679 H 0.76081 0.69521 0.82145 0.0
H2680 H 0.77313 0.6987 0.84664 0.0
H2681 H 0.76681 0.70378 0.78771 0.0
H2682 H 0.74909 0.66642 0.8184 0.0
H2683 H 0.74929 0.64958 0.83262 0.0
H2684 H 0.76036 0.64055 0.78605 0.0
H2685 H 0.7604 0.65747 0.77161 0.0
C2686 C 0.72287 0.6779 0.73266 0.0
C2687 C 0.72338 0.67073 0.71959 0.0
C2688 C 0.73057 0.68106 0.74663 0.0
C2689 C 0.7391 0.67735 0.74762 0.0
C2690 C 0.73965 0.67028 0.73449 0.0
C2691 C 0.73186 0.66696 0.72068 0.0
C2692 C 0.74722 0.6805 0.76251 0.0
C2693 C 0.74775 0.67123 0.77095 0.0
C2694 C 0.75421 0.6924 0.7686 0.0
C2695 C 0.75469 0.70272 0.75969 0.0
C2696 C 0.75794 0.70485 0.74242 0.0
C2697 C 0.75831 0.71455 0.73407 0.0
C2698 C 0.75554 0.72224 0.74289 0.0
C2699 C 0.75242 0.72026 0.76008 0.0
C2700 C 0.75203 0.71057 0.76849 0.0
C2701 C 0.78659 0.68797 0.82018 0.0
C2702 C 0.78447 0.69259 0.83516 0.0
C2703 C 0.77941 0.68585 0.80587 0.0
C2704 C 0.77 0.68834 0.80622 0.0
C2705 C 0.76807 0.69328 0.82092 0.0
C2706 C 0.77517 0.69531 0.83528 0.0
C2707 C 0.76189 0.68538 0.79145 0.0
C2708 C 0.76133 0.69465 0.78314 0.0
C2709 C 0.75496 0.67351 0.78534 0.0
C2710 C 0.75486 0.66328 0.79397 0.0
C2711 C 0.75166 0.66091 0.81123 0.0
C2712 C 0.75172 0.65134 0.81932 0.0
C2713 C 0.75487 0.64402 0.81026 0.0
C2714 C 0.75794 0.64624 0.79306 0.0
C2715 C 0.75791 0.65581 0.78492 0.0
H2716 H 0.75491 0.63661 0.81654 0.0
H2717 H 0.75583 0.72974 0.7364 0.0
H2718 H 0.73343 0.67947 0.63992 0.0
H2719 H 0.74346 0.67557 0.61643 0.0
H2720 H 0.70883 0.64946 0.59603 0.0
H2721 H 0.69882 0.65291 0.62 0.0
H2722 H 0.7225 0.64067 0.59446 0.0
H2723 H 0.7277 0.6787 0.57842 0.0
H2724 H 0.73372 0.69996 0.58194 0.0
H2725 H 0.77049 0.70921 0.58912 0.0
H2726 H 0.76465 0.68797 0.58585 0.0
H2727 H 0.7416 0.63854 0.50999 0.0
H2728 H 0.7329 0.64267 0.53482 0.0
H2729 H 0.76733 0.6591 0.55984 0.0
H2730 H 0.77607 0.65446 0.53537 0.0
H2731 H 0.75473 0.6729 0.55946 0.0
H2732 H 0.74851 0.63396 0.57383 0.0
H2733 H 0.74161 0.61266 0.56847 0.0
H2734 H 0.70536 0.60526 0.56215 0.0
H2735 H 0.71208 0.62656 0.56723 0.0
C2736 C 0.72797 0.67297 0.63034 0.0
C2737 C 0.71535 0.6665 0.63175 0.0
C2738 C 0.73371 0.67078 0.61686 0.0
C2739 C 0.72692 0.66233 0.60428 0.0
C2740 C 0.71429 0.656 0.60558 0.0
C2741 C 0.70856 0.65801 0.61924 0.0
C2742 C 0.73293 0.65975 0.59007 0.0
C2743 C 0.72943 0.64774 0.5867 0.0
C2744 C 0.74218 0.66895 0.5801 0.0
C2745 C 0.74572 0.68173 0.58207 0.0
C2746 C 0.73705 0.68525 0.58088 0.0
C2747 C 0.74044 0.6973 0.5828 0.0
C2748 C 0.75247 0.70592 0.5858 0.0
C2749 C 0.76116 0.70251 0.58683 0.0
C2750 C 0.75783 0.69048 0.58492 0.0
C2751 C 0.74732 0.64279 0.52086 0.0
C2752 C 0.75956 0.64609 0.52063 0.0
C2753 C 0.74233 0.64524 0.53499 0.0
C2754 C 0.74949 0.65117 0.54911 0.0
C2755 C 0.7617 0.65456 0.54898 0.0
C2756 C 0.76667 0.65194 0.53494 0.0
C2757 C 0.74417 0.6539 0.5639 0.0
C2758 C 0.74781 0.6659 0.56733 0.0
C2759 C 0.7349 0.64471 0.57371 0.0
C2760 C 0.73083 0.63188 0.57075 0.0
C2761 C 0.73909 0.62781 0.57115 0.0
C2762 C 0.7352 0.61573 0.56819 0.0
C2763 C 0.72306 0.60761 0.56493 0.0
C2764 C 0.71477 0.61156 0.56466 0.0
C2765 C 0.71861 0.62363 0.56759 0.0
H2766 H 0.72007 0.59826 0.56265 0.0
H2767 H 0.75508 0.71524 0.58729 0.0
H2768 H 0.35069 0.05503 0.63623 0.0
H2769 H 0.357 0.06926 0.61253 0.0
H2770 H 0.32115 0.06387 0.60973 0.0
H2771 H 0.3148 0.04979 0.63342 0.0
H2772 H 0.33134 0.06349 0.57773 0.0
H2773 H 0.34155 0.08773 0.62878 0.0
H2774 H 0.35155 0.09505 0.65644 0.0
H2775 H 0.38605 0.1076 0.63284 0.0
H2776 H 0.37623 0.10019 0.60506 0.0
H2777 H 0.33882 0.11115 0.52704 0.0
H2778 H 0.33411 0.09723 0.55047 0.0
H2779 H 0.37199 0.11028 0.5575 0.0
H2780 H 0.37685 0.12489 0.53487 0.0
H2781 H 0.36185 0.10634 0.58691 0.0
H2782 H 0.35272 0.08332 0.53604 0.0
H2783 H 0.34349 0.07567 0.50802 0.0
H2784 H 0.30822 0.06023 0.53031 0.0
H2785 H 0.31723 0.06793 0.55844 0.0
C2786 C 0.34413 0.05681 0.63048 0.0
C2787 C 0.33226 0.05132 0.63675 0.0
C2788 C 0.34776 0.06497 0.617 0.0
C2789 C 0.33954 0.06765 0.60948 0.0
C2790 C 0.32762 0.06192 0.61538 0.0
C2791 C 0.32403 0.05391 0.62897 0.0
C2792 C 0.34337 0.07663 0.59569 0.0
C2793 C 0.33793 0.07289 0.57973 0.0
C2794 C 0.35224 0.08879 0.59822 0.0
C2795 C 0.35814 0.09329 0.61489 0.0
C2796 C 0.35126 0.09196 0.62952 0.0
C2797 C 0.35689 0.09614 0.64521 0.0
C2798 C 0.36942 0.10175 0.64641 0.0
C2799 C 0.37634 0.10323 0.6319 0.0
C2800 C 0.37075 0.09905 0.61618 0.0
C2801 C 0.3462 0.11129 0.53377 0.0
C2802 C 0.35824 0.11916 0.52891 0.0
C2803 C 0.34347 0.10315 0.54703 0.0
C2804 C 0.35267 0.10246 0.55549 0.0
C2805 C 0.36471 0.11054 0.55106 0.0
C2806 C 0.36747 0.11882 0.53797 0.0
C2807 C 0.34972 0.09327 0.56887 0.0
C2808 C 0.35532 0.09695 0.58478 0.0
C2809 C 0.34113 0.08099 0.5662 0.0
C2810 C 0.33566 0.0763 0.54932 0.0
C2811 C 0.343 0.07836 0.53495 0.0
C2812 C 0.3378 0.07401 0.51905 0.0
C2813 C 0.32528 0.06749 0.51738 0.0
C2814 C 0.31792 0.06529 0.53162 0.0
C2815 C 0.32307 0.06964 0.54755 0.0
H2816 H 0.32127 0.06413 0.50507 0.0
H2817 H 0.37377 0.10498 0.65857 0.0
H2818 H 0.95441 0.27321 0.6376 0.0
H2819 H 0.9415 0.26039 0.61478 0.0
H2820 H 0.93474 0.28834 0.59898 0.0
H2821 H 0.94752 0.30118 0.62199 0.0
H2822 H 0.91425 0.26692 0.59974 0.0
H2823 H 0.95385 0.28262 0.57655 0.0
H2824 H 0.97501 0.28747 0.57608 0.0
H2825 H 0.96346 0.25006 0.57959 0.0
H2826 H 0.94222 0.24498 0.58033 0.0
H2827 H 0.89008 0.24181 0.5183 0.0
H2828 H 0.9019 0.25465 0.54189 0.0
H2829 H 0.90813 0.22684 0.56 0.0
H2830 H 0.89615 0.21385 0.53662 0.0
H2831 H 0.92892 0.24852 0.55774 0.0
H2832 H 0.88918 0.23299 0.58101 0.0
H2833 H 0.8681 0.22837 0.5813 0.0
H2834 H 0.88007 0.26586 0.57713 0.0
H2835 H 0.90123 0.27068 0.57657 0.0
C2836 C 0.95021 0.27665 0.62924 0.0
C2837 C 0.95201 0.28822 0.63156 0.0
C2838 C 0.94286 0.26932 0.61617 0.0
C2839 C 0.93726 0.27345 0.60507 0.0
C2840 C 0.93899 0.28498 0.6074 0.0
C2841 C 0.94633 0.29232 0.6205 0.0
C2842 C 0.92949 0.26567 0.59116 0.0
C2843 C 0.9175 0.26303 0.5904 0.0
C2844 C 0.93368 0.26041 0.57919 0.0
C2845 C 0.94644 0.26343 0.57866 0.0
C2846 C 0.95582 0.27543 0.57735 0.0
C2847 C 0.96783 0.27822 0.57702 0.0
C2848 C 0.97058 0.26908 0.57785 0.0
C2849 C 0.96132 0.25713 0.57897 0.0
C2850 C 0.94929 0.25429 0.57933 0.0
C2851 C 0.89375 0.23832 0.52749 0.0
C2852 C 0.89218 0.2268 0.52555 0.0
C2853 C 0.90054 0.24569 0.54093 0.0
C2854 C 0.90587 0.24168 0.5527 0.0
C2855 C 0.90414 0.23012 0.55099 0.0
C2856 C 0.89732 0.22273 0.5376 0.0
C2857 C 0.91366 0.24971 0.56639 0.0
C2858 C 0.92567 0.25241 0.56708 0.0
C2859 C 0.9095 0.25506 0.57823 0.0
C2860 C 0.89678 0.25218 0.57858 0.0
C2861 C 0.88731 0.24024 0.58001 0.0
C2862 C 0.87535 0.23759 0.58025 0.0
C2863 C 0.87274 0.24681 0.57919 0.0
C2864 C 0.8821 0.25872 0.57793 0.0
C2865 C 0.89408 0.26142 0.57766 0.0
H2866 H 0.86347 0.24474 0.57938 0.0
H2867 H 0.97988 0.27127 0.57759 0.0
H2868 H 0.32542 0.26501 0.64318 0.0
H2869 H 0.3329 0.25838 0.61953 0.0
H2870 H 0.35585 0.29506 0.60372 0.0
H2871 H 0.34843 0.30185 0.62754 0.0
H2872 H 0.34271 0.27909 0.57696 0.0
H2873 H 0.36865 0.2821 0.62239 0.0
H2874 H 0.37341 0.27867 0.65137 0.0
H2875 H 0.35366 0.24066 0.6429 0.0
H2876 H 0.34863 0.24384 0.61393 0.0
H2877 H 0.37176 0.26228 0.51534 0.0
H2878 H 0.36873 0.27226 0.53964 0.0
H2879 H 0.34797 0.23817 0.56491 0.0
H2880 H 0.35141 0.22819 0.54099 0.0
H2881 H 0.3621 0.25488 0.58698 0.0
H2882 H 0.33441 0.2513 0.54339 0.0
H2883 H 0.3285 0.25398 0.51474 0.0
H2884 H 0.35032 0.29219 0.52001 0.0
H2885 H 0.35649 0.28973 0.54862 0.0
C2886 C 0.33205 0.2717 0.6347 0.0
C2887 C 0.33634 0.28398 0.63728 0.0
C2888 C 0.33635 0.26788 0.62122 0.0
C2889 C 0.34501 0.27624 0.61 0.0
C2890 C 0.34919 0.28849 0.61231 0.0
C2891 C 0.34497 0.29234 0.62593 0.0
C2892 C 0.34952 0.27204 0.59578 0.0
C2893 C 0.34717 0.274 0.5791 0.0
C2894 C 0.35507 0.26516 0.59866 0.0
C2895 C 0.35818 0.26321 0.61602 0.0
C2896 C 0.36525 0.273 0.62674 0.0
C2897 C 0.36801 0.27111 0.64317 0.0
C2898 C 0.36382 0.25945 0.64899 0.0
C2899 C 0.35689 0.24968 0.63838 0.0
C2900 C 0.3541 0.25152 0.62195 0.0
C2901 C 0.36674 0.25692 0.5262 0.0
C2902 C 0.36176 0.24441 0.52615 0.0
C2903 C 0.36491 0.26263 0.54001 0.0
C2904 C 0.35795 0.25594 0.55397 0.0
C2905 C 0.35332 0.24351 0.55423 0.0
C2906 C 0.3552 0.2378 0.54047 0.0
C2907 C 0.35514 0.26177 0.5681 0.0
C2908 C 0.35779 0.2601 0.58479 0.0
C2909 C 0.34975 0.26882 0.56523 0.0
C2910 C 0.34603 0.27032 0.54805 0.0
C2911 C 0.33803 0.26027 0.53838 0.0
C2912 C 0.33461 0.26175 0.52216 0.0
C2913 C 0.33906 0.27325 0.51553 0.0
C2914 C 0.3469 0.28329 0.52514 0.0
C2915 C 0.35036 0.28186 0.54136 0.0
H2916 H 0.3364 0.27438 0.50298 0.0
H2917 H 0.36596 0.258 0.66171 0.0
H2918 H 0.72493 0.04599 0.63141 0.0
H2919 H 0.73632 0.05919 0.60777 0.0
H2920 H 0.70745 0.06622 0.59867 0.0
H2921 H 0.69594 0.05293 0.62214 0.0
H2922 H 0.71589 0.0624 0.56939 0.0
H2923 H 0.73271 0.08649 0.61939 0.0
H2924 H 0.74205 0.09132 0.64774 0.0
H2925 H 0.77245 0.08984 0.62811 0.0
H2926 H 0.7632 0.08482 0.59967 0.0
H2927 H 0.74663 0.11388 0.51786 0.0
H2928 H 0.73595 0.10062 0.54173 0.0
H2929 H 0.76517 0.09377 0.54833 0.0
H2930 H 0.77606 0.10728 0.52468 0.0
H2931 H 0.75689 0.09724 0.57871 0.0
H2932 H 0.74017 0.07353 0.52852 0.0
H2933 H 0.73081 0.0688 0.50019 0.0
H2934 H 0.70016 0.06965 0.52021 0.0
H2935 H 0.70943 0.07457 0.54864 0.0
C2936 C 0.72098 0.05031 0.62434 0.0
C2937 C 0.70956 0.04847 0.62869 0.0
C2938 C 0.72753 0.05789 0.61088 0.0
C2939 C 0.72279 0.06381 0.60161 0.0
C2940 C 0.71128 0.06176 0.60569 0.0
C2941 C 0.70473 0.05418 0.61912 0.0
C2942 C 0.72987 0.0722 0.58773 0.0
C2943 C 0.72479 0.0701 0.57147 0.0
C2944 C 0.7416 0.08209 0.59038 0.0
C2945 C 0.7472 0.08516 0.60745 0.0
C2946 C 0.74134 0.0871 0.62115 0.0
C2947 C 0.74663 0.08989 0.63723 0.0
C2948 C 0.75782 0.09085 0.63974 0.0
C2949 C 0.76377 0.08907 0.62615 0.0
C2950 C 0.75852 0.08626 0.61005 0.0
C2951 C 0.75087 0.1097 0.52455 0.0
C2952 C 0.76218 0.11161 0.51936 0.0
C2953 C 0.74471 0.10204 0.53808 0.0
C2954 C 0.7497 0.09609 0.54664 0.0
C2955 C 0.76114 0.09823 0.54183 0.0
C2956 C 0.7673 0.10588 0.52826 0.0
C2957 C 0.74287 0.08747 0.56041 0.0
C2958 C 0.748 0.08953 0.57663 0.0
C2959 C 0.73117 0.07754 0.55774 0.0
C2960 C 0.72555 0.07453 0.54068 0.0
C2961 C 0.73148 0.0728 0.52686 0.0
C2962 C 0.72618 0.07007 0.51079 0.0
C2963 C 0.71491 0.06896 0.50839 0.0
C2964 C 0.7089 0.07054 0.52208 0.0
C2965 C 0.71417 0.07328 0.53818 0.0
H2966 H 0.71083 0.06684 0.49594 0.0
H2967 H 0.7619 0.09302 0.65219 0.0
H2968 H 0.95116 0.65358 0.62645 0.0
H2969 H 0.93653 0.64666 0.6032 0.0
H2970 H 0.92244 0.66839 0.62239 0.0
H2971 H 0.93707 0.67545 0.64547 0.0
H2972 H 0.90448 0.64443 0.61385 0.0
H2973 H 0.94019 0.67838 0.59007 0.0
H2974 H 0.96171 0.68989 0.58224 0.0
H2975 H 0.95739 0.66081 0.55078 0.0
H2976 H 0.93585 0.64906 0.55863 0.0
H2977 H 0.87125 0.64817 0.5454 0.0
H2978 H 0.88481 0.6515 0.569 0.0
H2979 H 0.90091 0.63456 0.54063 0.0
H2980 H 0.88782 0.63176 0.51664 0.0
H2981 H 0.91782 0.65436 0.55389 0.0
H2982 H 0.88209 0.62077 0.57543 0.0
H2983 H 0.8606 0.60866 0.58323 0.0
H2984 H 0.86474 0.63569 0.61883 0.0
H2985 H 0.88623 0.64805 0.61107 0.0
C2986 C 0.94494 0.65688 0.62571 0.0
C2987 C 0.94531 0.6651 0.63776 0.0
C2988 C 0.93661 0.65293 0.61243 0.0
C2989 C 0.92843 0.65704 0.6111 0.0
C2990 C 0.92867 0.6651 0.62323 0.0
C2991 C 0.93708 0.66918 0.63635 0.0
C2992 C 0.91971 0.65311 0.59694 0.0
C2993 C 0.90735 0.64666 0.60073 0.0
C2994 C 0.92352 0.65573 0.57984 0.0
C2995 C 0.93645 0.66279 0.5751 0.0
C2996 C 0.94385 0.6744 0.58162 0.0
C2997 C 0.95605 0.68097 0.57715 0.0
C2998 C 0.96092 0.67607 0.56607 0.0
C2999 C 0.9536 0.66459 0.55939 0.0
C3000 C 0.9414 0.65797 0.56384 0.0
C3001 C 0.87767 0.64515 0.54416 0.0
C3002 C 0.87843 0.6397 0.52908 0.0
C3003 C 0.88534 0.64693 0.55776 0.0
C3004 C 0.89382 0.64317 0.55669 0.0
C3005 C 0.89443 0.63751 0.54179 0.0
C3006 C 0.88683 0.6358 0.52814 0.0
C3007 C 0.90248 0.64573 0.57073 0.0
C3008 C 0.91486 0.65197 0.56695 0.0
C3009 C 0.89868 0.64279 0.58784 0.0
C3010 C 0.88575 0.63539 0.59256 0.0
C3011 C 0.8784 0.62418 0.58483 0.0
C3012 C 0.86622 0.61726 0.58926 0.0
C3013 C 0.86131 0.62142 0.60149 0.0
C3014 C 0.86856 0.63249 0.60934 0.0
C3015 C 0.88075 0.63945 0.60495 0.0
H3016 H 0.85188 0.61605 0.60491 0.0
H3017 H 0.97037 0.68117 0.56262 0.0
H3018 H 0.96737 0.6896 0.72793 0.0
H3019 H 0.95687 0.69296 0.7513 0.0
H3020 H 0.92757 0.65644 0.74715 0.0
H3021 H 0.93806 0.65298 0.72374 0.0
H3022 H 0.93493 0.6915 0.75202 0.0
H3023 H 0.91672 0.6468 0.78783 0.0
H3024 H 0.9218 0.631 0.7922 0.0
H3025 H 0.95922 0.65654 0.78356 0.0
H3026 H 0.95438 0.67252 0.77937 0.0
H3027 H 0.89183 0.68461 0.81581 0.0
H3028 H 0.90159 0.68052 0.79197 0.0
H3029 H 0.93188 0.6885 0.8239 0.0
H3030 H 0.92218 0.69254 0.84772 0.0
H3031 H 0.92387 0.66759 0.80511 0.0
H3032 H 0.93472 0.70876 0.79658 0.0
H3033 H 0.93066 0.7253 0.79286 0.0
H3034 H 0.90997 0.7083 0.74817 0.0
H3035 H 0.91377 0.69156 0.75176 0.0
C3036 C 0.95871 0.68226 0.73201 0.0
C3037 C 0.95356 0.67101 0.72401 0.0
C3038 C 0.9527 0.68422 0.74532 0.0
C3039 C 0.94147 0.67495 0.75099 0.0
C3040 C 0.93628 0.66369 0.74305 0.0
C3041 C 0.94228 0.66174 0.72967 0.0
C3042 C 0.93524 0.67711 0.76525 0.0
C3043 C 0.93246 0.68624 0.7636 0.0
C3044 C 0.93211 0.67031 0.78039 0.0
C3045 C 0.93516 0.66081 0.7831 0.0
C3046 C 0.92603 0.64905 0.78692 0.0
C3047 C 0.92887 0.64006 0.78936 0.0
C3048 C 0.94082 0.64275 0.7881 0.0
C3049 C 0.94996 0.65445 0.78446 0.0
C3050 C 0.94718 0.66347 0.78203 0.0
C3051 C 0.90056 0.68547 0.81771 0.0
C3052 C 0.90629 0.68898 0.83357 0.0
C3053 C 0.90613 0.68317 0.8041 0.0
C3054 C 0.91746 0.68424 0.80619 0.0
C3055 C 0.92313 0.68762 0.82205 0.0
C3056 C 0.91763 0.69003 0.83558 0.0
C3057 C 0.92351 0.68194 0.79185 0.0
C3058 C 0.92624 0.67278 0.79347 0.0
C3059 C 0.92669 0.68879 0.77675 0.0
C3060 C 0.92442 0.69885 0.77455 0.0
C3061 C 0.92922 0.7085 0.78604 0.0
C3062 C 0.92698 0.71792 0.78394 0.0
C3063 C 0.92003 0.71783 0.77032 0.0
C3064 C 0.91533 0.70834 0.75874 0.0
C3065 C 0.91753 0.69889 0.76079 0.0
H3066 H 0.91831 0.72514 0.76871 0.0
H3067 H 0.94299 0.63578 0.78998 0.0
H3068 H 0.34993 0.28781 0.72015 0.0
H3069 H 0.34821 0.27411 0.7427 0.0
H3070 H 0.31198 0.26611 0.75347 0.0
H3071 H 0.31368 0.27993 0.73102 0.0
H3072 H 0.32483 0.26986 0.78227 0.0
H3073 H 0.31666 0.2462 0.73188 0.0
H3074 H 0.32052 0.2418 0.7028 0.0
H3075 H 0.35356 0.2445 0.71919 0.0
H3076 H 0.34998 0.24908 0.74833 0.0
H3077 H 0.31317 0.22248 0.83836 0.0
H3078 H 0.31144 0.23312 0.81397 0.0
H3079 H 0.34694 0.24197 0.79707 0.0
H3080 H 0.34849 0.23083 0.82089 0.0
H3081 H 0.33257 0.23662 0.77075 0.0
H3082 H 0.34178 0.26193 0.82018 0.0
H3083 H 0.33849 0.26693 0.84922 0.0
H3084 H 0.30403 0.2616 0.83457 0.0
H3085 H 0.30705 0.25642 0.80549 0.0
C3086 C 0.34159 0.28315 0.72732 0.0
C3087 C 0.33192 0.28492 0.72377 0.0
C3088 C 0.3406 0.27527 0.74015 0.0
C3089 C 0.3299 0.26896 0.74959 0.0
C3090 C 0.3203 0.27086 0.74628 0.0
C3091 C 0.32128 0.27875 0.73344 0.0
C3092 C 0.32882 0.26048 0.76306 0.0
C3093 C 0.32631 0.26246 0.77972 0.0
C3094 C 0.33098 0.25097 0.75975 0.0
C3095 C 0.33309 0.24808 0.74227 0.0
C3096 C 0.32479 0.24594 0.72926 0.0
C3097 C 0.32692 0.2434 0.71277 0.0
C3098 C 0.33729 0.2429 0.70914 0.0
C3099 C 0.34553 0.2449 0.72201 0.0
C3100 C 0.34345 0.24745 0.73853 0.0
C3101 C 0.32052 0.22648 0.82928 0.0
C3102 C 0.33103 0.2259 0.8317 0.0
C3103 C 0.31956 0.23268 0.81543 0.0
C3104 C 0.32916 0.23855 0.80387 0.0
C3105 C 0.33945 0.23758 0.80588 0.0
C3106 C 0.34037 0.23131 0.81962 0.0
C3107 C 0.32874 0.24609 0.79003 0.0
C3108 C 0.33097 0.24394 0.77329 0.0
C3109 C 0.32638 0.25549 0.79327 0.0
C3110 C 0.32458 0.25866 0.81072 0.0
C3111 C 0.33346 0.26174 0.82319 0.0
C3112 C 0.33165 0.26462 0.83965 0.0
C3113 C 0.32104 0.26455 0.84375 0.0
C3114 C 0.31223 0.26163 0.83139 0.0
C3115 C 0.31399 0.25873 0.81491 0.0
H3116 H 0.31965 0.26678 0.8565 0.0
H3117 H 0.33893 0.24094 0.69636 0.0
H3118 H 0.71623 0.03598 0.72071 0.0
H3119 H 0.73081 0.04368 0.74392 0.0
H3120 H 0.73539 0.07883 0.73715 0.0
H3121 H 0.72107 0.0713 0.71379 0.0
H3122 H 0.75658 0.08047 0.74081 0.0
H3123 H 0.71829 0.06007 0.76992 0.0
H3124 H 0.69827 0.04286 0.77696 0.0
H3125 H 0.71465 0.02279 0.79323 0.0
H3126 H 0.73476 0.03984 0.78607 0.0
H3127 H 0.78122 0.10903 0.81918 0.0
H3128 H 0.76851 0.09946 0.79442 0.0
H3129 H 0.76942 0.06717 0.80443 0.0
H3130 H 0.78204 0.07667 0.82941 0.0
H3131 H 0.74644 0.06276 0.79857 0.0
H3132 H 0.78503 0.0842 0.77171 0.0
H3133 H 0.80491 0.10176 0.76514 0.0
H3134 H 0.78783 0.12023 0.74501 0.0
H3135 H 0.76785 0.10284 0.75168 0.0
C3136 C 0.72032 0.04534 0.72419 0.0
C3137 C 0.71745 0.05302 0.71539 0.0
C3138 C 0.72863 0.04972 0.7375 0.0
C3139 C 0.73413 0.06182 0.74237 0.0
C3140 C 0.73129 0.06947 0.73359 0.0
C3141 C 0.72305 0.06513 0.72026 0.0
C3142 C 0.7429 0.0666 0.75654 0.0
C3143 C 0.75432 0.07666 0.75348 0.0
C3144 C 0.74009 0.06142 0.77295 0.0
C3145 C 0.72801 0.05118 0.77727 0.0
C3146 C 0.71761 0.05195 0.77486 0.0
C3147 C 0.70625 0.04224 0.7789 0.0
C3148 C 0.70519 0.03172 0.78549 0.0
C3149 C 0.71548 0.03092 0.7881 0.0
C3150 C 0.72686 0.04061 0.78406 0.0
C3151 C 0.77874 0.0999 0.81608 0.0
C3152 C 0.78261 0.09359 0.82623 0.0
C3153 C 0.77155 0.09447 0.80187 0.0
C3154 C 0.7681 0.08263 0.79753 0.0
C3155 C 0.77202 0.07633 0.80755 0.0
C3156 C 0.7793 0.08179 0.82172 0.0
C3157 C 0.76001 0.07675 0.78289 0.0
C3158 C 0.74873 0.06649 0.78586 0.0
C3159 C 0.76293 0.08177 0.76641 0.0
C3160 C 0.77494 0.09224 0.76232 0.0
C3161 C 0.78551 0.09204 0.766 0.0
C3162 C 0.7968 0.10196 0.76224 0.0
C3163 C 0.79763 0.11211 0.75469 0.0
C3164 C 0.78717 0.11236 0.75086 0.0
C3165 C 0.77586 0.10247 0.75462 0.0
H3166 H 0.80638 0.11978 0.75179 0.0
H3167 H 0.69639 0.02421 0.78861 0.0
H3168 H 0.03859 0.36105 0.0106 0.0
H3169 H 0.05482 0.35743 0.01885 0.0
H3170 H 0.03135 0.33165 0.05609 0.0
H3171 H 0.01519 0.33524 0.04804 0.0
H3172 H 0.05273 0.34804 0.06958 0.0
H3173 H 0.03895 0.32269 0.02002 0.0
H3174 H 0.03385 0.3181 0.98975 0.0
H3175 H 0.07023 0.34398 0.97574 0.0
H3176 H 0.07551 0.34884 0.00594 0.0
H3177 H 0.0859 0.32274 0.09737 0.0
H3178 H 0.07031 0.32468 0.08303 0.0
H3179 H 0.09658 0.34953 0.04738 0.0
H3180 H 0.11227 0.34719 0.0612 0.0
H3181 H 0.07489 0.33484 0.03198 0.0
H3182 H 0.08887 0.36006 0.08108 0.0
H3183 H 0.09425 0.36488 0.11124 0.0
H3184 H 0.05775 0.33986 0.1259 0.0
H3185 H 0.05219 0.33476 0.09582 0.0
C3186 C 0.03686 0.35451 0.02041 0.0
C3187 C 0.02562 0.34847 0.02872 0.0
C3188 C 0.04612 0.35243 0.02507 0.0
C3189 C 0.04429 0.34426 0.03808 0.0
C3190 C 0.03298 0.33802 0.04606 0.0
C3191 C 0.02374 0.34007 0.0414 0.0
C3192 C 0.05428 0.34268 0.0442 0.0
C3193 C 0.05747 0.34501 0.06138 0.0
C3194 C 0.06075 0.33914 0.03339 0.0
C3195 C 0.05759 0.33623 0.01523 0.0
C3196 C 0.04583 0.32749 0.01048 0.0
C3197 C 0.04292 0.32481 0.99334 0.0
C3198 C 0.0517 0.33077 0.98082 0.0
C3199 C 0.06343 0.33939 0.98544 0.0
C3200 C 0.06639 0.3421 0.00257 0.0
C3201 C 0.08838 0.32836 0.08619 0.0
C3202 C 0.10042 0.33486 0.08053 0.0
C3203 C 0.07944 0.32956 0.07811 0.0
C3204 C 0.08233 0.33745 0.06436 0.0
C3205 C 0.09417 0.34347 0.05806 0.0
C3206 C 0.10315 0.3422 0.06608 0.0
C3207 C 0.07311 0.33993 0.05742 0.0
C3208 C 0.07015 0.33788 0.04013 0.0
C3209 C 0.06686 0.34381 0.06809 0.0
C3210 C 0.07014 0.34696 0.0862 0.0
C3211 C 0.08201 0.35553 0.09074 0.0
C3212 C 0.08509 0.35832 0.10782 0.0
C3213 C 0.07635 0.35266 0.12048 0.0
C3214 C 0.06451 0.34423 0.11608 0.0
C3215 C 0.06139 0.34139 0.09902 0.0
H3216 H 0.07876 0.35483 0.1337 0.0
H3217 H 0.04943 0.32869 0.96756 0.0
H3218 H 0.65788 0.67935 0.03686 0.0
H3219 H 0.66581 0.69933 0.04912 0.0
H3220 H 0.637 0.70203 0.02587 0.0
H3221 H 0.6288 0.68192 0.01408 0.0
H3222 H 0.67431 0.72114 0.0379 0.0
H3223 H 0.62807 0.71694 0.05141 0.0
H3224 H 0.60703 0.70122 0.05721 0.0
H3225 H 0.61917 0.67835 0.07726 0.0
H3226 H 0.64027 0.69399 0.07178 0.0
H3227 H 0.68452 0.77801 0.06602 0.0
H3228 H 0.67712 0.75912 0.05046 0.0
H3229 H 0.66213 0.73936 0.09692 0.0
H3230 H 0.66928 0.75811 0.11236 0.0
H3231 H 0.64681 0.72891 0.07287 0.0
H3232 H 0.68912 0.744 0.0794 0.0
H3233 H 0.71081 0.7588 0.07688 0.0
H3234 H 0.70774 0.75829 0.02257 0.0
H3235 H 0.68598 0.74359 0.02479 0.0
C3236 C 0.65327 0.68422 0.03428 0.0
C3237 C 0.64262 0.67898 0.02467 0.0
C3238 C 0.65784 0.69567 0.04126 0.0
C3239 C 0.65189 0.70211 0.03867 0.0
C3240 C 0.64159 0.69712 0.02838 0.0
C3241 C 0.63693 0.68563 0.02161 0.0
C3242 C 0.65617 0.71381 0.0473 0.0
C3243 C 0.66829 0.72285 0.04549 0.0
C3244 C 0.64839 0.71601 0.05748 0.0
C3245 C 0.63573 0.70659 0.061 0.0
C3246 C 0.62624 0.70857 0.0571 0.0
C3247 C 0.61431 0.69968 0.06033 0.0
C3248 C 0.61176 0.68878 0.06754 0.0
C3249 C 0.62115 0.68678 0.07161 0.0
C3250 C 0.6331 0.69565 0.06843 0.0
C3251 C 0.67963 0.76962 0.07286 0.0
C3252 C 0.67742 0.76953 0.09038 0.0
C3253 C 0.67543 0.75884 0.06398 0.0
C3254 C 0.66916 0.7478 0.07254 0.0
C3255 C 0.66688 0.74774 0.09001 0.0
C3256 C 0.67095 0.75847 0.09882 0.0
C3257 C 0.66496 0.73627 0.06347 0.0
C3258 C 0.65283 0.72725 0.06516 0.0
C3259 C 0.67283 0.73399 0.05364 0.0
C3260 C 0.6859 0.7428 0.05227 0.0
C3261 C 0.69305 0.74711 0.06693 0.0
C3262 C 0.70536 0.75547 0.06556 0.0
C3263 C 0.71064 0.75951 0.04958 0.0
C3264 C 0.70363 0.75517 0.03494 0.0
C3265 C 0.69131 0.74682 0.03625 0.0
H3266 H 0.72018 0.76598 0.04854 0.0
H3267 H 0.60252 0.6819 0.07002 0.0
H3268 H 0.32271 0.98338 0.03555 0.0
H3269 H 0.30239 0.97172 0.04752 0.0
H3270 H 0.29718 0.94034 0.02073 0.0
H3271 H 0.31748 0.95187 0.00876 0.0
H3272 H 0.27702 0.94361 0.01943 0.0
H3273 H 0.30465 0.94311 0.06057 0.0
H3274 H 0.32231 0.95247 0.07946 0.0
H3275 H 0.30717 0.97072 0.10636 0.0
H3276 H 0.28949 0.96158 0.08745 0.0
H3277 H 0.2319 0.89397 0.06489 0.0
H3278 H 0.24935 0.90943 0.04947 0.0
H3279 H 0.25214 0.93605 0.08522 0.0
H3280 H 0.23498 0.92053 0.10112 0.0
H3281 H 0.273 0.93743 0.08182 0.0
H3282 H 0.24416 0.93617 0.04338 0.0
H3283 H 0.22644 0.92713 0.02462 0.0
H3284 H 0.24335 0.91286 0.99273 0.0
H3285 H 0.26111 0.92167 0.01144 0.0
C3286 C 0.31722 0.97402 0.03211 0.0
C3287 C 0.32175 0.96853 0.02129 0.0
C3288 C 0.30562 0.96738 0.03897 0.0
C3289 C 0.29833 0.95517 0.03505 0.0
C3290 C 0.30267 0.94976 0.02387 0.0
C3291 C 0.3143 0.95635 0.01713 0.0
C3292 C 0.28641 0.94785 0.04326 0.0
C3293 C 0.27609 0.94218 0.03306 0.0
C3294 C 0.28523 0.94632 0.06108 0.0
C3295 C 0.29583 0.95178 0.07247 0.0
C3296 C 0.30514 0.9492 0.07041 0.0
C3297 C 0.31514 0.95445 0.08114 0.0
C3298 C 0.31588 0.96222 0.09407 0.0
C3299 C 0.3066 0.96472 0.09632 0.0
C3300 C 0.29659 0.95951 0.08561 0.0
C3301 C 0.23615 0.90313 0.06938 0.0
C3302 C 0.2321 0.90599 0.0843 0.0
C3303 C 0.24606 0.912 0.06044 0.0
C3304 C 0.25203 0.92393 0.06613 0.0
C3305 C 0.24766 0.92691 0.08058 0.0
C3306 C 0.23778 0.91804 0.08957 0.0
C3307 C 0.2635 0.93298 0.05799 0.0
C3308 C 0.27379 0.93898 0.06821 0.0
C3309 C 0.26461 0.93486 0.04021 0.0
C3310 C 0.25394 0.92952 0.0289 0.0
C3311 C 0.24407 0.93103 0.03245 0.0
C3312 C 0.23402 0.92596 0.0218 0.0
C3313 C 0.23376 0.91941 0.00751 0.0
C3314 C 0.24356 0.91793 0.00381 0.0
C3315 C 0.25363 0.92298 0.01442 0.0
H3316 H 0.22598 0.91549 -0.00071 0.0
H3317 H 0.32363 0.96627 0.10236 0.0
H3318 H 0.36853 0.04682 0.00254 0.0
H3319 H 0.36266 0.06153 0.99524 0.0
H3320 H 0.32516 0.03385 0.99804 0.0
H3321 H 0.33104 0.01908 0.00438 0.0
H3322 H 0.32826 0.045 0.97079 0.0
H3323 H 0.33981 0.05814 0.02787 0.0
H3324 H 0.35291 0.06491 0.05307 0.0
H3325 H 0.37943 0.09586 0.02575 0.0
H3326 H 0.36655 0.0892 0.00031 0.0
H3327 H 0.3059 0.0844 0.95924 0.0
H3328 H 0.31161 0.07198 0.97544 0.0
H3329 H 0.34835 0.09376 0.95834 0.0
H3330 H 0.34269 0.10589 0.94146 0.0
H3331 H 0.34493 0.08593 0.9945 0.0
H3332 H 0.33317 0.07096 0.93684 0.0
H3333 H 0.31921 0.06412 0.91257 0.0
H3334 H 0.29182 0.03602 0.9432 0.0
H3335 H 0.30557 0.04284 0.96775 0.0
C3336 C 0.35904 0.04395 0.00185 0.0
C3337 C 0.35024 0.03183 0.00391 0.0
C3338 C 0.35568 0.05237 0.99777 0.0
C3339 C 0.34344 0.04885 0.99618 0.0
C3340 C 0.33466 0.0368 -0.00093 0.0
C3341 C 0.33802 0.02837 0.00274 0.0
C3342 C 0.33976 0.05739 0.99003 0.0
C3343 C 0.33175 0.05384 0.97628 0.0
C3344 C 0.34447 0.06907 0.99686 0.0
C3345 C 0.35225 0.07311 0.01213 0.0
C3346 C 0.34847 0.06634 0.02719 0.0
C3347 C 0.35586 0.07017 0.04153 0.0
C3348 C 0.36701 0.08079 0.041 0.0
C3349 C 0.37079 0.08762 0.02614 0.0
C3350 C 0.36345 0.08384 0.01176 0.0
C3351 C 0.31521 0.0866 0.95893 0.0
C3352 C 0.32378 0.09609 0.94882 0.0
C3353 C 0.31847 0.07956 0.96835 0.0
C3354 C 0.33038 0.08196 0.96801 0.0
C3355 C 0.33912 0.09185 0.95885 0.0
C3356 C 0.33585 0.09879 0.94923 0.0
C3357 C 0.33344 0.07339 0.97555 0.0
C3358 C 0.34137 0.07699 0.98934 0.0
C3359 C 0.32855 0.06168 0.96898 0.0
C3360 C 0.32034 0.05749 0.95417 0.0
C3361 C 0.32413 0.06339 0.93844 0.0
C3362 C 0.31627 0.05951 0.92462 0.0
C3363 C 0.30462 0.04966 0.92635 0.0
C3364 C 0.30083 0.04366 0.94189 0.0
C3365 C 0.30866 0.04753 0.95575 0.0
H3366 H 0.29854 0.04667 0.91564 0.0
H3367 H 0.37271 0.08373 0.05211 0.0
H3368 H 0.94426 0.31783 0.02013 0.0
H3369 H 0.93145 0.29747 0.0095 0.0
H3370 H 0.96202 0.29932 0.98373 0.0
H3371 H 0.97497 0.31954 0.99478 0.0
H3372 H 0.92551 0.29006 0.97873 0.0
H3373 H 0.95845 0.27176 0.97849 0.0
H3374 H 0.97545 0.27366 0.9953 0.0
H3375 H 0.96233 0.28323 0.03933 0.0
H3376 H 0.94517 0.28124 0.02286 0.0
H3377 H 0.91632 0.23597 0.92845 0.0
H3378 H 0.92942 0.25321 0.94616 0.0
H3379 H 0.89901 0.2465 0.97736 0.0
H3380 H 0.88583 0.22902 0.95998 0.0
H3381 H 0.93487 0.25732 0.98136 0.0
H3382 H 0.90116 0.27399 0.98289 0.0
H3383 H 0.88388 0.27182 0.96649 0.0
H3384 H 0.89837 0.26538 0.92109 0.0
H3385 H 0.91581 0.26769 0.93717 0.0
C3386 C 0.94829 0.31387 0.01234 0.0
C3387 C 0.96064 0.32032 0.0083 0.0
C3388 C 0.94094 0.30222 0.00625 0.0
C3389 C 0.94576 0.29678 0.99593 0.0
C3390 C 0.95811 0.30319 0.99197 0.0
C3391 C 0.96551 0.3148 0.99822 0.0
C3392 C 0.93772 0.28473 0.98851 0.0
C3393 C 0.92747 0.28285 0.97963 0.0
C3394 C 0.94036 0.27535 0.9893 0.0
C3395 C 0.95059 0.27646 -0.00062 0.0
C3396 C 0.95917 0.27423 0.99178 0.0
C3397 C 0.96883 0.27533 0.00124 0.0
C3398 C 0.96999 0.2786 0.01836 0.0
C3399 C 0.96145 0.28074 0.02606 0.0
C3400 C 0.95176 0.27965 0.01665 0.0
C3401 C 0.91244 0.23791 0.93937 0.0
C3402 C 0.89997 0.23115 0.94268 0.0
C3403 C 0.91996 0.24781 0.94945 0.0
C3404 C 0.91515 0.2512 0.96291 0.0
C3405 C 0.90286 0.2441 0.96687 0.0
C3406 C 0.89534 0.23416 0.95687 0.0
C3407 C 0.92276 0.26275 0.97175 0.0
C3408 C 0.93291 0.26453 0.98073 0.0
C3409 C 0.92002 0.27204 0.97117 0.0
C3410 C 0.9097 0.27087 0.96129 0.0
C3411 C 0.90067 0.27215 0.9694 0.0
C3412 C 0.89085 0.2709 0.96016 0.0
C3413 C 0.89 0.26842 0.94277 0.0
C3414 C 0.89901 0.26725 0.93457 0.0
C3415 C 0.90885 0.26852 0.94374 0.0
H3416 H 0.88239 0.26743 0.93564 0.0
H3417 H 0.97748 0.27946 0.02566 0.0
H3418 H 0.67572 0.65296 0.97205 0.0
H3419 H 0.69581 0.65682 0.96443 0.0
H3420 H 0.70146 0.64976 0.01599 0.0
H3421 H 0.68111 0.64552 0.0237 0.0
H3422 H 0.72095 0.67323 0.99678 0.0
H3423 H 0.69835 0.62998 0.99519 0.0
H3424 H 0.68097 0.61039 0.98723 0.0
H3425 H 0.68839 0.61953 0.93444 0.0
H3426 H 0.7057 0.63926 0.94209 0.0
H3427 H 0.77679 0.68003 0.968 0.0
H3428 H 0.75781 0.67256 0.98377 0.0
H3429 H 0.73815 0.6616 0.9366 0.0
H3430 H 0.75695 0.66859 0.92103 0.0
H3431 H 0.72608 0.64551 0.95868 0.0
H3432 H 0.74585 0.68876 0.95853 0.0
H3433 H 0.76238 0.70933 0.96432 0.0
H3434 H 0.75964 0.70151 0.01767 0.0
H3435 H 0.74319 0.68083 0.01215 0.0
C3436 C 0.68122 0.65222 0.98179 0.0
C3437 C 0.67686 0.64894 -0.00153 0.0
C3438 C 0.69267 0.65441 0.9774 0.0
C3439 C 0.70005 0.65354 0.98965 0.0
C3440 C 0.69584 0.65044 0.00639 0.0
C3441 C 0.68424 0.648 0.01074 0.0
C3442 C 0.71216 0.65595 0.98467 0.0
C3443 C 0.72218 0.66708 0.98879 0.0
C3444 C 0.7136 0.64803 0.97388 0.0
C3445 C 0.70326 0.63614 0.96922 0.0
C3446 C 0.69621 0.62786 0.98189 0.0
C3447 C 0.68639 0.61672 0.97743 0.0
C3448 C 0.68356 0.61373 0.96034 0.0
C3449 C 0.69058 0.62186 0.94767 0.0
C3450 C 0.70041 0.63302 0.95206 0.0
C3451 C 0.76838 0.67592 0.96109 0.0
C3452 C 0.76831 0.67484 0.94332 0.0
C3453 C 0.75755 0.67171 0.97007 0.0
C3454 C 0.74652 0.66665 0.96138 0.0
C3455 C 0.74649 0.6654 0.94365 0.0
C3456 C 0.75725 0.66939 0.93474 0.0
C3457 C 0.73498 0.66298 0.97043 0.0
C3458 C 0.72501 0.6516 0.967 0.0
C3459 C 0.73354 0.6708 0.98158 0.0
C3460 C 0.74341 0.68322 0.98491 0.0
C3461 C 0.74884 0.6914 0.97148 0.0
C3462 C 0.75818 0.70308 0.97471 0.0
C3463 C 0.76209 0.70671 0.99135 0.0
C3464 C 0.75663 0.69868 0.00479 0.0
C3465 C 0.7473 0.68698 0.00162 0.0
H3466 H 0.76932 0.71576 0.99383 0.0
H3467 H 0.67595 0.6051 0.95692 0.0
H3468 H 0.97591 0.65804 0.99624 0.0
H3469 H 0.96321 0.66536 0.98484 0.0
H3470 H 0.93146 0.63141 0.99629 0.0
H3471 H 0.94408 0.62395 0.00756 0.0
H3472 H 0.93051 0.63897 0.96473 0.0
H3473 H 0.93898 0.65578 0.02079 0.0
H3474 H 0.95188 0.66717 0.04493 0.0
H3475 H 0.96943 0.69894 0.01423 0.0
H3476 H 0.95674 0.6877 0.98983 0.0
H3477 H 0.88918 0.65864 0.94763 0.0
H3478 H 0.90039 0.65091 0.96282 0.0
H3479 H 0.93353 0.68414 0.95365 0.0
H3480 H 0.92245 0.69189 0.93846 0.0
H3481 H 0.93293 0.67639 0.98538 0.0
H3482 H 0.92561 0.65965 0.92909 0.0
H3483 H 0.91313 0.6485 0.90449 0.0
H3484 H 0.89393 0.61686 0.93514 0.0
H3485 H 0.90619 0.62787 0.96 0.0
C3486 C 0.96623 0.65212 0.99638 0.0
C3487 C 0.96103 0.6404 0.00285 0.0
C3488 C 0.95898 0.65635 0.98992 0.0
C3489 C 0.94638 0.64897 0.98988 0.0
C3490 C 0.94116 0.63726 0.99623 0.0
C3491 C 0.9484 0.63303 0.00271 0.0
C3492 C 0.93867 0.65339 0.98287 0.0
C3493 C 0.93089 0.64704 0.96944 0.0
C3494 C 0.93936 0.66407 0.98876 0.0
C3495 C 0.94697 0.67087 0.00344 0.0
C3496 C 0.94565 0.66518 0.01915 0.0
C3497 C 0.95291 0.67161 0.03289 0.0
C3498 C 0.96149 0.68376 0.0311 0.0
C3499 C 0.96279 0.68952 0.01559 0.0
C3500 C 0.95555 0.68313 0.0018 0.0
C3501 C 0.89885 0.66431 0.94889 0.0
C3502 C 0.90492 0.67588 0.94181 0.0
C3503 C 0.90524 0.65989 0.95758 0.0
C3504 C 0.91781 0.66691 0.9592 0.0
C3505 C 0.92383 0.67858 0.95261 0.0
C3506 C 0.91746 0.68301 0.94397 0.0
C3507 C 0.92482 0.662 0.96719 0.0
C3508 C 0.93248 0.66826 0.98078 0.0
C3509 C 0.92407 0.65127 0.96139 0.0
C3510 C 0.91672 0.64462 0.94645 0.0
C3511 C 0.91866 0.65034 0.93062 0.0
C3512 C 0.91164 0.64404 0.91662 0.0
C3513 C 0.90272 0.63199 0.91826 0.0
C3514 C 0.90083 0.6262 0.93389 0.0
C3515 C 0.90781 0.63246 0.94794 0.0
H3516 H 0.89729 0.62713 0.90741 0.0
H3517 H 0.9671 0.68873 0.04175 0.0
H3518 H 0.33531 0.31926 0.97947 0.0
H3519 H 0.33046 0.29884 0.97316 0.0
H3520 H 0.35629 0.3018 0.01043 0.0
H3521 H 0.36143 0.32243 0.01652 0.0
H3522 H 0.35929 0.29298 0.98216 0.0
H3523 H 0.32539 0.2836 0.01704 0.0
H3524 H 0.30782 0.28464 0.02732 0.0
H3525 H 0.29034 0.27156 0.97927 0.0
H3526 H 0.30788 0.2706 0.96861 0.0
H3527 H 0.34306 0.23292 0.96466 0.0
H3528 H 0.34462 0.2496 0.98147 0.0
H3529 H 0.32314 0.25487 0.9445 0.0
H3530 H 0.32169 0.23841 0.92754 0.0
H3531 H 0.31774 0.2582 0.97743 0.0
H3532 H 0.35307 0.27081 0.94176 0.0
H3533 H 0.37064 0.26979 0.9314 0.0
H3534 H 0.38533 0.27683 0.98175 0.0
H3535 H 0.36774 0.27772 0.99245 0.0
C3536 C 0.33989 0.31554 0.98646 0.0
C3537 C 0.34878 0.32247 -0.00153 0.0
C3538 C 0.33703 0.30381 0.98292 0.0
C3539 C 0.34288 0.2987 0.99149 0.0
C3540 C 0.35163 0.30554 0.0037 0.0
C3541 C 0.35455 0.31732 0.00718 0.0
C3542 C 0.34046 0.28657 0.98672 0.0
C3543 C 0.35022 0.28532 0.98154 0.0
C3544 C 0.32861 0.27658 0.98562 0.0
C3545 C 0.318 0.2771 0.99199 0.0
C3546 C 0.31784 0.28102 0.00862 0.0
C3547 C 0.30788 0.28158 0.01452 0.0
C3548 C 0.29798 0.27818 0.00394 0.0
C3549 C 0.29802 0.27419 0.98745 0.0
C3550 C 0.30796 0.27362 0.98148 0.0
C3551 C 0.33858 0.23757 0.96019 0.0
C3552 C 0.33235 0.23439 0.94466 0.0
C3553 C 0.33943 0.24705 0.96984 0.0
C3554 C 0.33411 0.25354 0.96412 0.0
C3555 C 0.32728 0.24995 0.94918 0.0
C3556 C 0.32644 0.24049 0.93951 0.0
C3557 C 0.33654 0.26476 0.97268 0.0
C3558 C 0.32681 0.26584 0.97847 0.0
C3559 C 0.34841 0.27459 0.9744 0.0
C3560 C 0.35903 0.27419 0.96794 0.0
C3561 C 0.36001 0.27206 0.95064 0.0
C3562 C 0.36997 0.27151 0.9447 0.0
C3563 C 0.37908 0.27321 0.95592 0.0
C3564 C 0.37826 0.27549 0.97308 0.0
C3565 C 0.3683 0.27602 0.97909 0.0
H3566 H 0.38679 0.27278 0.9513 0.0
H3567 H 0.29028 0.27863 0.00854 0.0
H3568 H 0.6795 0.01466 0.99121 0.0
H3569 H 0.70015 0.02573 0.98025 0.0
H3570 H 0.70235 0.05911 0.99377 0.0
H3571 H 0.68178 0.04816 0.00482 0.0
H3572 H 0.70918 0.04165 0.95456 0.0
H3573 H 0.7312 0.07931 0.00529 0.0
H3574 H 0.72942 0.08202 0.03598 0.0
H3575 H 0.71511 0.0444 0.04423 0.0
H3576 H 0.71696 0.04148 0.01364 0.0
H3577 H 0.75991 0.09316 0.92289 0.0
H3578 H 0.74128 0.07998 0.93825 0.0
H3579 H 0.76012 0.06745 0.96936 0.0
H3580 H 0.77894 0.08075 0.95404 0.0
H3581 H 0.74392 0.07225 0.98778 0.0
H3582 H 0.74412 0.05 0.9394 0.0
H3583 H 0.74627 0.04668 0.90905 0.0
H3584 H 0.71669 0.0518 0.89703 0.0
H3585 H 0.71448 0.05533 0.9273 0.0
C3586 C 0.6844 0.02436 0.99194 0.0
C3587 C 0.67897 0.03052 -0.00112 0.0
C3588 C 0.69619 0.03066 0.98565 0.0
C3589 C 0.70283 0.04323 0.98634 0.0
C3590 C 0.69746 0.0494 0.99334 0.0
C3591 C 0.68566 0.04312 -0.00044 0.0
C3592 C 0.71517 0.04996 0.97908 0.0
C3593 C 0.71678 0.04829 0.96186 0.0
C3594 C 0.72514 0.05849 0.98867 0.0
C3595 C 0.72413 0.06017 0.00714 0.0
C3596 C 0.72772 0.07162 0.01366 0.0
C3597 C 0.7267 0.07319 0.03104 0.0
C3598 C 0.72213 0.06338 0.04204 0.0
C3599 C 0.71861 0.05198 0.03569 0.0
C3600 C 0.71963 0.05036 0.01832 0.0
C3601 C 0.76016 0.08776 0.93319 0.0
C3602 C 0.7709 0.08801 0.9373 0.0
C3603 C 0.74948 0.08016 0.94185 0.0
C3604 C 0.74932 0.07268 0.95482 0.0
C3605 C 0.76008 0.07315 0.95935 0.0
C3606 C 0.77078 0.08069 0.95056 0.0
C3607 C 0.73778 0.06416 0.9632 0.0
C3608 C 0.73633 0.06552 0.98057 0.0
C3609 C 0.72797 0.05524 0.95382 0.0
C3610 C 0.7292 0.05302 0.93561 0.0
C3611 C 0.73813 0.0505 0.93027 0.0
C3612 C 0.73935 0.04857 0.91308 0.0
C3613 C 0.73164 0.04905 0.90111 0.0
C3614 C 0.72267 0.05144 0.90632 0.0
C3615 C 0.72142 0.05339 0.92349 0.0
H3616 H 0.7326 0.04755 0.88781 0.0
H3617 H 0.72133 0.06462 0.05549 0.0
H3618 H 0.66718 0.98025 0.03555 0.0
H3619 H 0.67199 0.96489 0.04321 0.0
H3620 H 0.63757 0.93744 0.02412 0.0
H3621 H 0.63269 0.95285 0.01625 0.0
H3622 H 0.64289 0.93263 0.05672 0.0
H3623 H 0.66143 0.94311 0.00214 0.0
H3624 H 0.67407 0.95664 0.9792 0.0
H3625 H 0.7053 0.97018 0.01098 0.0
H3626 H 0.69281 0.95686 0.03421 0.0
H3627 H 0.66106 0.89004 0.07549 0.0
H3628 H 0.65381 0.90123 0.0592 0.0
H3629 H 0.68681 0.93418 0.06991 0.0
H3630 H 0.69404 0.92317 0.08627 0.0
H3631 H 0.68013 0.93362 0.03741 0.0
H3632 H 0.66139 0.92582 0.09294 0.0
H3633 H 0.64906 0.91299 0.11666 0.0
H3634 H 0.6185 0.89504 0.08366 0.0
H3635 H 0.63072 0.90767 0.05967 0.0
C3636 C 0.66065 0.97096 0.03286 0.0
C3637 C 0.64955 0.96776 0.0253 0.0
C3638 C 0.66344 0.9622 0.03717 0.0
C3639 C 0.65518 0.95004 0.03411 0.0
C3640 C 0.64408 0.94678 0.02653 0.0
C3641 C 0.64133 0.95559 0.022 0.0
C3642 C 0.65805 0.94082 0.03959 0.0
C3643 C 0.65087 0.93264 0.05221 0.0
C3644 C 0.66859 0.94101 0.03392 0.0
C3645 C 0.67616 0.94903 0.01997 0.0
C3646 C 0.67098 0.94904 0.00429 0.0
C3647 C 0.67812 0.95666 0.99122 0.0
C3648 C 0.69048 0.96428 0.99364 0.0
C3649 C 0.69572 0.96428 0.00912 0.0
C3650 C 0.68862 0.95667 0.02224 0.0
C3651 C 0.66678 0.89967 0.07434 0.0
C3652 C 0.67814 0.90569 0.08221 0.0
C3653 C 0.66263 0.90604 0.06499 0.0
C3654 C 0.66974 0.91856 0.06344 0.0
C3655 C 0.68121 0.92453 0.07084 0.0
C3656 C 0.68535 0.91819 0.08016 0.0
C3657 C 0.66513 0.92562 0.05484 0.0
C3658 C 0.67201 0.93342 0.04166 0.0
C3659 C 0.65435 0.92515 0.06007 0.0
C3660 C 0.647 0.91758 0.07448 0.0
C3661 C 0.65207 0.91907 0.09072 0.0
C3662 C 0.6451 0.91185 0.10421 0.0
C3663 C 0.63301 0.90318 0.10166 0.0
C3664 C 0.62787 0.90174 0.08561 0.0
C3665 C 0.63481 0.90893 0.07206 0.0
H3666 H 0.62763 0.8976 0.11213 0.0
H3667 H 0.69599 0.97018 0.98351 0.0
H3668 H 0.04104 0.67591 0.01733 0.0
H3669 H 0.0569 0.69645 0.02406 0.0
H3670 H 0.03004 0.70653 0.03184 0.0
H3671 H 0.01411 0.68597 0.02557 0.0
H3672 H 0.05313 0.72401 0.01255 0.0
H3673 H 0.03763 0.70042 0.06476 0.0
H3674 H 0.03251 0.68278 0.08251 0.0
H3675 H 0.06911 0.69062 0.07932 0.0
H3676 H 0.07439 0.70821 0.06132 0.0
H3677 H 0.0798 0.77566 0.06434 0.0
H3678 H 0.0677 0.75698 0.04908 0.0
H3679 H 0.09246 0.7453 0.06328 0.0
H3680 H 0.10391 0.76339 0.08002 0.0
H3681 H 0.07186 0.72832 0.06899 0.0
H3682 H 0.08876 0.7531 0.02046 0.0
H3683 H 0.09481 0.77044 0.00162 0.0
H3684 H 0.05776 0.76054 0.99576 0.0
H3685 H 0.05149 0.74323 0.01476 0.0
C3686 C 0.03853 0.68256 0.02021 0.0
C3687 C 0.02634 0.67934 0.02105 0.0
C3688 C 0.04759 0.69426 0.02403 0.0
C3689 C 0.0446 0.70295 0.02843 0.0
C3690 C 0.0325 0.69993 0.02838 0.0
C3691 C 0.02342 0.68819 0.0249 0.0
C3692 C 0.05395 0.71483 0.03475 0.0
C3693 C 0.05723 0.72504 0.02491 0.0
C3694 C 0.05952 0.71603 0.0506 0.0
C3695 C 0.05636 0.70553 0.06153 0.0
C3696 C 0.04455 0.69831 0.06771 0.0
C3697 C 0.04163 0.68834 0.07784 0.0
C3698 C 0.05047 0.68556 0.08199 0.0
C3699 C 0.06227 0.69277 0.07607 0.0
C3700 C 0.06523 0.70274 0.06591 0.0
C3701 C 0.08268 0.76912 0.06433 0.0
C3702 C 0.09281 0.77108 0.0737 0.0
C3703 C 0.07584 0.75849 0.05526 0.0
C3704 C 0.07918 0.7497 0.05483 0.0
C3705 C 0.08965 0.7519 0.0634 0.0
C3706 C 0.09632 0.7624 0.07283 0.0
C3707 C 0.07117 0.73779 0.04687 0.0
C3708 C 0.06803 0.72746 0.05647 0.0
C3709 C 0.06594 0.73652 0.03062 0.0
C3710 C 0.06966 0.74691 0.01915 0.0
C3711 C 0.08191 0.75467 0.01526 0.0
C3712 C 0.08537 0.76449 0.00453 0.0
C3713 C 0.07668 0.76661 0.99753 0.0
C3714 C 0.06449 0.75889 0.0012 0.0
C3715 C 0.06097 0.74907 0.01193 0.0
H3716 H 0.07938 0.77421 0.98923 0.0
H3717 H 0.04819 0.67784 0.08984 0.0
H3718 H 0.3184 0.37014 0.00819 0.0
H3719 H 0.29797 0.36143 0.01963 0.0
H3720 H 0.30521 0.3403 0.05476 0.0
H3721 H 0.32534 0.3484 0.04251 0.0
H3722 H 0.28411 0.32723 0.04442 0.0
H3723 H 0.30518 0.36762 0.06562 0.0
H3724 H 0.3173 0.38967 0.06386 0.0
H3725 H 0.28993 0.39013 0.0335 0.0
H3726 H 0.27771 0.36805 0.03492 0.0
H3727 H 0.24307 0.32067 0.11091 0.0
H3728 H 0.26108 0.32714 0.09326 0.0
H3729 H 0.24351 0.33338 0.05137 0.0
H3730 H 0.22527 0.32656 0.06894 0.0
H3731 H 0.26829 0.35344 0.06248 0.0
H3732 H 0.24646 0.31196 0.04529 0.0
H3733 H 0.23488 0.29016 0.05043 0.0
H3734 H 0.26476 0.29233 0.07757 0.0
H3735 H 0.27646 0.31418 0.07281 0.0
C3736 C 0.3156 0.36364 0.01836 0.0
C3737 C 0.32344 0.35999 0.02456 0.0
C3738 C 0.30394 0.3587 0.02496 0.0
C3739 C 0.30007 0.35037 0.03834 0.0
C3740 C 0.30793 0.34669 0.04445 0.0
C3741 C 0.31945 0.35136 0.03751 0.0
C3742 C 0.28787 0.34546 0.04602 0.0
C3743 C 0.28074 0.33301 0.04848 0.0
C3744 C 0.28328 0.35292 0.05108 0.0
C3745 C 0.2906 0.36619 0.05022 0.0
C3746 C 0.30179 0.37242 0.05847 0.0
C3747 C 0.30867 0.38492 0.05755 0.0
C3748 C 0.30441 0.39129 0.04853 0.0
C3749 C 0.29323 0.38518 0.04045 0.0
C3750 C 0.28632 0.37268 0.04132 0.0
C3751 C 0.24303 0.3233 0.09787 0.0
C3752 C 0.23287 0.32314 0.09119 0.0
C3753 C 0.25327 0.32696 0.08783 0.0
C3754 C 0.25356 0.3307 0.07106 0.0
C3755 C 0.24339 0.33048 0.0643 0.0
C3756 C 0.23302 0.32657 0.07426 0.0
C3757 C 0.26476 0.33535 0.06101 0.0
C3758 C 0.27168 0.34772 0.05818 0.0
C3759 C 0.26929 0.32788 0.05604 0.0
C3760 C 0.2623 0.31472 0.05881 0.0
C3761 C 0.25053 0.30781 0.05248 0.0
C3762 C 0.24395 0.29544 0.0553 0.0
C3763 C 0.24907 0.28987 0.06435 0.0
C3764 C 0.2608 0.29666 0.07057 0.0
C3765 C 0.26741 0.30903 0.0678 0.0
H3766 H 0.24396 0.28029 0.06652 0.0
H3767 H 0.30974 0.40097 0.04783 0.0
H3768 H 0.70039 0.68839 0.33719 0.0
H3769 H 0.71633 0.68414 0.34501 0.0
H3770 H 0.70383 0.67837 0.39692 0.0
H3771 H 0.68773 0.68223 0.38917 0.0
H3772 H 0.73075 0.69485 0.38986 0.0
H3773 H 0.69577 0.65523 0.37793 0.0
H3774 H 0.67967 0.64062 0.35924 0.0
H3775 H 0.70609 0.64454 0.3223 0.0
H3776 H 0.72235 0.65931 0.3407 0.0
H3777 H 0.75456 0.66627 0.43673 0.0
H3778 H 0.74242 0.67315 0.4225 0.0
H3779 H 0.74996 0.66247 0.37413 0.0
H3780 H 0.76172 0.655 0.38862 0.0
H3781 H 0.72778 0.6562 0.37468 0.0
H3782 H 0.76297 0.6931 0.38683 0.0
H3783 H 0.77989 0.70841 0.40371 0.0
H3784 H 0.75502 0.71128 0.43717 0.0
H3785 H 0.73794 0.69587 0.42064 0.0
C3786 C 0.70107 0.68623 0.35026 0.0
C3787 C 0.69281 0.68561 0.36257 0.0
C3788 C 0.71015 0.6838 0.35468 0.0
C3789 C 0.71122 0.68096 0.37152 0.0
C3790 C 0.70314 0.68057 0.38387 0.0
C3791 C 0.69393 0.68273 0.3794 0.0
C3792 C 0.72061 0.67819 0.37643 0.0
C3793 C 0.73013 0.6864 0.38663 0.0
C3794 C 0.72002 0.66739 0.37157 0.0
C3795 C 0.71025 0.65849 0.36058 0.0
C3796 C 0.69814 0.65307 0.36575 0.0
C3797 C 0.68898 0.64474 0.35523 0.0
C3798 C 0.69185 0.64169 0.33956 0.0
C3799 C 0.70388 0.64693 0.33442 0.0
C3800 C 0.71306 0.65528 0.34489 0.0
C3801 C 0.75376 0.66554 0.42303 0.0
C3802 C 0.75919 0.66025 0.41374 0.0
C3803 C 0.74686 0.66954 0.41487 0.0
C3804 C 0.74549 0.66865 0.39714 0.0
C3805 C 0.75093 0.66335 0.38779 0.0
C3806 C 0.75767 0.65911 0.39604 0.0
C3807 C 0.73787 0.67272 0.38867 0.0
C3808 C 0.72864 0.66478 0.37774 0.0
C3809 C 0.73891 0.68392 0.39257 0.0
C3810 C 0.74916 0.69327 0.40253 0.0
C3811 C 0.7611 0.69694 0.39784 0.0
C3812 C 0.77072 0.70564 0.40735 0.0
C3813 C 0.76853 0.7108 0.42152 0.0
C3814 C 0.75671 0.70728 0.42619 0.0
C3815 C 0.74705 0.69857 0.41674 0.0
H3816 H 0.776 0.71753 0.42886 0.0
H3817 H 0.68475 0.63523 0.33144 0.0
H3818 H 0.32388 0.01631 0.36345 0.0
H3819 H 0.33294 0.03686 0.37393 0.0
H3820 H 0.29817 0.0342 0.37328 0.0
H3821 H 0.28902 0.01368 0.36255 0.0
H3822 H 0.31561 0.05563 0.36101 0.0
H3823 H 0.30984 0.03131 0.41019 0.0
H3824 H 0.31176 0.01642 0.42725 0.0
H3825 H 0.35032 0.03843 0.4254 0.0
H3826 H 0.34863 0.05339 0.40812 0.0
H3827 H 0.32862 0.10432 0.41669 0.0
H3828 H 0.3205 0.08511 0.402 0.0
H3829 H 0.3552 0.08771 0.40485 0.0
H3830 H 0.36324 0.10663 0.42016 0.0
H3831 H 0.33809 0.06646 0.4153 0.0
H3832 H 0.34389 0.09123 0.36695 0.0
H3833 H 0.34193 0.10613 0.34997 0.0
H3834 H 0.30343 0.08347 0.35026 0.0
H3835 H 0.30514 0.0685 0.36745 0.0
C3836 C 0.31814 0.02009 0.36548 0.0
C3837 C 0.3057 0.01331 0.36225 0.0
C3838 C 0.32334 0.03183 0.37152 0.0
C3839 C 0.3162 0.03701 0.37458 0.0
C3840 C 0.30384 0.03037 0.37102 0.0
C3841 C 0.29862 0.01863 0.36495 0.0
C3842 C 0.32159 0.04924 0.38185 0.0
C3843 C 0.32041 0.05799 0.37297 0.0
C3844 C 0.32808 0.05237 0.39727 0.0
C3845 C 0.32911 0.04341 0.40772 0.0
C3846 C 0.31873 0.03293 0.41331 0.0
C3847 C 0.31978 0.02449 0.42304 0.0
C3848 C 0.33115 0.02646 0.42737 0.0
C3849 C 0.34151 0.0369 0.42202 0.0
C3850 C 0.34052 0.04537 0.41227 0.0
C3851 C 0.33454 0.10083 0.41414 0.0
C3852 C 0.34658 0.10703 0.41965 0.0
C3853 C 0.32991 0.08989 0.40558 0.0
C3854 C 0.33727 0.08499 0.40222 0.0
C3855 C 0.34937 0.09132 0.40728 0.0
C3856 C 0.35398 0.10222 0.41588 0.0
C3857 C 0.33217 0.07292 0.39444 0.0
C3858 C 0.33335 0.06417 0.40328 0.0
C3859 C 0.3257 0.06982 0.37899 0.0
C3860 C 0.32464 0.07879 0.36863 0.0
C3861 C 0.335 0.08946 0.36351 0.0
C3862 C 0.33393 0.09791 0.35382 0.0
C3863 C 0.32256 0.09576 0.34907 0.0
C3864 C 0.31223 0.08513 0.35396 0.0
C3865 C 0.31324 0.07666 0.36366 0.0
H3866 H 0.32176 0.10231 0.34157 0.0
H3867 H 0.33194 0.01991 0.4349 0.0
H3868 H 0.98568 0.28558 0.34121 0.0
H3869 H 0.96527 0.27417 0.35276 0.0
H3870 H 0.97094 0.30522 0.38098 0.0
H3871 H 0.99142 0.31679 0.36934 0.0
H3872 H 0.96213 0.28439 0.4006 0.0
H3873 H 0.95229 0.29667 0.34912 0.0
H3874 H 0.95251 0.29986 0.31824 0.0
H3875 H 0.93576 0.26196 0.30972 0.0
H3876 H 0.9356 0.25854 0.34054 0.0
H3877 H 0.90344 0.25109 0.43359 0.0
H3878 H 0.92037 0.26719 0.41825 0.0
H3879 H 0.91878 0.24173 0.38134 0.0
H3880 H 0.90134 0.22564 0.39603 0.0
H3881 H 0.92496 0.26231 0.36621 0.0
H3882 H 0.93768 0.25027 0.41628 0.0
H3883 H 0.93794 0.2465 0.44692 0.0
H3884 H 0.94987 0.2834 0.45771 0.0
H3885 H 0.94952 0.28735 0.42713 0.0
C3886 C 0.98257 0.29003 0.34976 0.0
C3887 C 0.99019 0.30208 0.35441 0.0
C3888 C 0.97088 0.28352 0.35626 0.0
C3889 C 0.96658 0.28889 0.36761 0.0
C3890 C 0.97409 0.30094 0.37216 0.0
C3891 C 0.98577 0.30753 0.36549 0.0
C3892 C 0.95455 0.28158 0.37554 0.0
C3893 C 0.95395 0.27978 0.39314 0.0
C3894 C 0.94396 0.27536 0.36572 0.0
C3895 C 0.94402 0.27736 0.34716 0.0
C3896 C 0.94874 0.28902 0.34066 0.0
C3897 C 0.94884 0.29087 0.32316 0.0
C3898 C 0.94417 0.28112 0.31203 0.0
C3899 C 0.93938 0.2695 0.31837 0.0
C3900 C 0.93927 0.2676 0.33585 0.0
C3901 C 0.90642 0.24892 0.42193 0.0
C3902 C 0.90109 0.237 0.41618 0.0
C3903 C 0.91622 0.25815 0.41327 0.0
C3904 C 0.92103 0.25563 0.39888 0.0
C3905 C 0.91528 0.24388 0.39251 0.0
C3906 C 0.90539 0.23466 0.40104 0.0
C3907 C 0.93257 0.26496 0.39124 0.0
C3908 C 0.9331 0.26711 0.37371 0.0
C3909 C 0.94315 0.27142 0.40109 0.0
C3910 C 0.94344 0.26907 0.41945 0.0
C3911 C 0.94028 0.25756 0.4252 0.0
C3912 C 0.94045 0.25539 0.44255 0.0
C3913 C 0.94388 0.26469 0.45426 0.0
C3914 C 0.94719 0.27619 0.44863 0.0
C3915 C 0.94701 0.27841 0.43129 0.0
H3916 H 0.94401 0.263 0.46768 0.0
H3917 H 0.94425 0.28257 0.29848 0.0
H3918 H 0.00485 0.35714 0.33319 0.0
H3919 H 0.00264 0.37419 0.32538 0.0
H3920 H 0.04128 0.39741 0.32686 0.0
H3921 H 0.04343 0.38049 0.33572 0.0
H3922 H 0.03193 0.40948 0.33736 0.0
H3923 H 0.02461 0.38433 0.2887 0.0
H3924 H 0.0149 0.36556 0.27214 0.0
H3925 H 0.98059 0.36323 0.27801 0.0
H3926 H 0.99008 0.38192 0.29478 0.0
H3927 H 0.03757 0.45144 0.27327 0.0
H3928 H 0.03802 0.43597 0.29028 0.0
H3929 H 5e-05 0.41997 0.30072 0.0
H3930 H -0.00043 0.43579 0.28446 0.0
H3931 H 0.00781 0.40436 0.28578 0.0
H3932 H 0.01723 0.43194 0.33216 0.0
H3933 H 0.02859 0.45154 0.34644 0.0
H3934 H 0.06115 0.45023 0.34185 0.0
H3935 H 0.05002 0.43069 0.32731 0.0
C3936 C 0.01285 0.36593 0.33207 0.0
C3937 C 0.02432 0.3675 0.33491 0.0
C3938 C 0.01159 0.37566 0.32749 0.0
C3939 C 0.02181 0.38706 0.32503 0.0
C3940 C 0.03325 0.38872 0.32859 0.0
C3941 C 0.03448 0.37904 0.33362 0.0
C3942 C 0.02065 0.3971 0.31799 0.0
C3943 C 0.02672 0.40836 0.326 0.0
C3944 C 0.01376 0.39568 0.30326 0.0
C3945 C 0.00803 0.38445 0.29315 0.0
C3946 C 0.01498 0.37977 0.28655 0.0
C3947 C 0.00952 0.36915 0.27712 0.0
C3948 C 0.99713 0.36319 0.27407 0.0
C3949 C 0.99018 0.36785 0.28041 0.0
C3950 C 0.9956 0.37846 0.28987 0.0
C3951 C 0.02937 0.44489 0.27958 0.0
C3952 C 0.01851 0.44489 0.27735 0.0
C3953 C 0.02964 0.43599 0.28923 0.0
C3954 C 0.01907 0.42685 0.29672 0.0
C3955 C 0.0083 0.42696 0.29498 0.0
C3956 C 0.00804 0.43597 0.28556 0.0
C3957 C 0.01911 0.41665 0.30511 0.0
C3958 C 0.01288 0.40539 0.29726 0.0
C3959 C 0.0261 0.41817 0.31969 0.0
C3960 C 0.0328 0.42989 0.32852 0.0
C3961 C 0.02683 0.43587 0.33407 0.0
C3962 C 0.03323 0.44697 0.34223 0.0
C3963 C 0.04559 0.45214 0.34502 0.0
C3964 C 0.05157 0.44621 0.33967 0.0
C3965 C 0.04522 0.43512 0.33149 0.0
H3966 H 0.05052 0.46073 0.35134 0.0
H3967 H 0.99292 0.35497 0.26676 0.0
H3968 H 0.61127 0.65193 0.33554 0.0
H3969 H 0.6003 0.63149 0.32457 0.0
H3970 H 0.6338 0.63205 0.31717 0.0
H3971 H 0.64491 0.65261 0.32801 0.0
H3972 H 0.61931 0.62331 0.28957 0.0
H3973 H 0.61517 0.61623 0.34962 0.0
H3974 H 0.61017 0.6187 0.37907 0.0
H3975 H 0.57343 0.60561 0.36476 0.0
H3976 H 0.57824 0.60322 0.33516 0.0
H3977 H 0.59272 0.56197 0.26995 0.0
H3978 H 0.6042 0.58091 0.28515 0.0
H3979 H 0.57165 0.58199 0.29372 0.0
H3980 H 0.56 0.56279 0.27898 0.0
H3981 H 0.58616 0.58961 0.32149 0.0
H3982 H 0.59023 0.59772 0.26163 0.0
H3983 H 0.59486 0.59546 0.23189 0.0
H3984 H 0.63137 0.60689 0.24556 0.0
H3985 H 0.62691 0.60906 0.27545 0.0
C3986 C 0.61634 0.64772 0.33165 0.0
C3987 C 0.62899 0.65393 0.33267 0.0
C3988 C 0.61003 0.636 0.32545 0.0
C3989 C 0.61622 0.6302 0.32022 0.0
C3990 C 0.62885 0.63635 0.32119 0.0
C3991 C 0.63518 0.64809 0.32742 0.0
C3992 C 0.60952 0.61786 0.31323 0.0
C3993 C 0.61221 0.61589 0.29667 0.0
C3994 C 0.60003 0.60826 0.32232 0.0
C3995 C 0.59709 0.60965 0.34013 0.0
C3996 C 0.60604 0.61397 0.35272 0.0
C3997 C 0.60324 0.61534 0.36945 0.0
C3998 C 0.5915 0.61234 0.37377 0.0
C3999 C 0.58253 0.60794 0.36139 0.0
C4000 C 0.58528 0.60656 0.34463 0.0
C4001 C 0.58794 0.56607 0.2754 0.0
C4002 C 0.57543 0.56087 0.27319 0.0
C4003 C 0.59455 0.57697 0.28393 0.0
C4004 C 0.58881 0.58295 0.29031 0.0
C4005 C 0.57626 0.57755 0.28881 0.0
C4006 C 0.56963 0.56663 0.28028 0.0
C4007 C 0.59597 0.59508 0.29786 0.0
C4008 C 0.59334 0.59701 0.31447 0.0
C4009 C 0.60547 0.60468 0.28878 0.0
C4010 C 0.6082 0.60343 0.27081 0.0
C4011 C 0.59922 0.59966 0.25832 0.0
C4012 C 0.60182 0.59841 0.24143 0.0
C4013 C 0.61339 0.601 0.23685 0.0
C4014 C 0.6224 0.60487 0.24914 0.0
C4015 C 0.61985 0.60612 0.26605 0.0
H4016 H 0.61539 0.60003 0.22376 0.0
H4017 H 0.58935 0.6134 0.38673 0.0
H4018 H 0.34246 0.97444 0.34928 0.0
H4019 H 0.36252 0.97907 0.33987 0.0
H4020 H 0.36325 0.0042 0.30332 0.0
H4021 H 0.34318 -0.00046 0.31253 0.0
H4022 H 0.36937 0.98928 0.289 0.0
H4023 H 0.38073 0.01395 0.3387 0.0
H4024 H 0.38023 0.01855 0.36899 0.0
H4025 H 0.39115 0.99338 0.38271 0.0
H4026 H 0.39155 0.98849 0.35249 0.0
H4027 H 0.42849 0.01156 0.26109 0.0
H4028 H 0.41201 0.01196 0.27593 0.0
H4029 H 0.40917 0.98498 0.31076 0.0
H4030 H 0.42591 0.98474 0.29621 0.0
H4031 H 0.4047 0.00182 0.3264 0.0
H4032 H 0.39199 0.97626 0.27709 0.0
H4033 H 0.39254 0.97156 0.24684 0.0
H4034 H 0.38393 0.99835 0.23261 0.0
H4035 H 0.38352 0.00335 0.2628 0.0
C4036 C 0.34693 0.98102 0.33934 0.0
C4037 C 0.34121 0.98659 0.33161 0.0
C4038 C 0.35843 0.98371 0.33404 0.0
C4039 C 0.36442 0.99205 0.32097 0.0
C4040 C 0.35879 0.99775 0.31343 0.0
C4041 C 0.34733 0.99508 0.31872 0.0
C4042 C 0.37622 0.99431 0.31444 0.0
C4043 C 0.37715 0.99223 0.29715 0.0
C4044 C 0.38629 0.99785 0.32514 0.0
C4045 C 0.38605 0.00077 0.34333 0.0
C4046 C 0.38292 0.00931 0.34818 0.0
C4047 C 0.38268 0.01199 0.36534 0.0
C4048 C 0.38563 0.00624 0.37777 0.0
C4049 C 0.38885 0.99781 0.37306 0.0
C4050 C 0.3891 0.99509 0.35592 0.0
C4051 C 0.42465 0.00599 0.27224 0.0
C4052 C 0.42844 0.99803 0.27738 0.0
C4053 C 0.41515 0.00616 0.28063 0.0
C4054 C 0.40924 0.99835 0.29424 0.0
C4055 C 0.41358 0.99104 0.30022 0.0
C4056 C 0.42308 0.99085 0.29182 0.0
C4057 C 0.3978 0.99687 0.30101 0.0
C4058 C 0.39693 -0.00101 0.3183 0.0
C4059 C 0.38774 0.99334 0.29034 0.0
C4060 C 0.38785 0.99027 0.27219 0.0
C4061 C 0.39031 0.98121 0.2675 0.0
C4062 C 0.39058 0.97849 0.25038 0.0
C4063 C 0.38831 0.98468 0.23781 0.0
C4064 C 0.38571 0.99358 0.24236 0.0
C4065 C 0.38545 0.99636 0.25947 0.0
H4066 H 0.38852 0.98255 0.22455 0.0
H4067 H 0.38544 0.00832 0.39105 0.0
H4068 H 0.61333 0.95361 0.35071 0.0
H4069 H 0.5992 0.95945 0.34051 0.0
H4070 H 0.62773 0.9884 0.31187 0.0
H4071 H 0.64207 0.98287 0.32263 0.0
H4072 H 0.6139 0.99572 0.32509 0.0
H4073 H 0.60677 0.96129 0.29299 0.0
H4074 H 0.60256 0.94066 0.28838 0.0
H4075 H 0.56891 0.92675 0.31506 0.0
H4076 H 0.573 0.94732 0.32002 0.0
H4077 H 0.57608 0.00051 0.26266 0.0
H4078 H 0.59094 0.9985 0.27916 0.0
H4079 H 0.56284 0.9734 0.31254 0.0
H4080 H 0.5479 0.97558 0.29637 0.0
H4081 H 0.57629 0.96451 0.29783 0.0
H4082 H 0.58357 2e-05 0.32756 0.0
H4083 H 0.58824 0.02095 0.33006 0.0
H4084 H 0.62221 0.03317 0.30498 0.0
H4085 H 0.61767 0.0123 0.30212 0.0
C4086 C 0.61662 0.96123 0.34226 0.0
C4087 C 0.6288 0.9677 0.33732 0.0
C4088 C 0.60851 0.96455 0.3364 0.0
C4089 C 0.61233 0.97422 0.32513 0.0
C4090 C 0.62456 0.98089 0.32051 0.0
C4091 C 0.63273 0.97769 0.32662 0.0
C4092 C 0.60349 0.97712 0.31782 0.0
C4093 C 0.60574 0.98892 0.31897 0.0
C4094 C 0.59274 0.96823 0.31001 0.0
C4095 C 0.59025 0.95585 0.30702 0.0
C4096 C 0.59851 0.95383 0.29798 0.0
C4097 C 0.59614 0.94215 0.29528 0.0
C4098 C 0.58549 0.9324 0.30146 0.0
C4099 C 0.57717 0.93431 0.3103 0.0
C4100 C 0.5795 0.94598 0.31305 0.0
C4101 C 0.57308 0.99487 0.27384 0.0
C4102 C 0.56076 0.98814 0.2781 0.0
C4103 C 0.5816 0.9937 0.28323 0.0
C4104 C 0.57798 0.98578 0.29704 0.0
C4105 C 0.5658 0.97952 0.30187 0.0
C4106 C 0.55728 0.98074 0.29257 0.0
C4107 C 0.58666 0.98306 0.30522 0.0
C4108 C 0.5844 0.97128 0.3041 0.0
C4109 C 0.59746 0.99201 0.31274 0.0
C4110 C 0.60023 0.00458 0.31449 0.0
C4111 C 0.59199 0.00716 0.32245 0.0
C4112 C 0.59463 0.01902 0.32396 0.0
C4113 C 0.6055 0.02838 0.31765 0.0
C4114 C 0.61378 0.02591 0.30985 0.0
C4115 C 0.61119 0.01407 0.3083 0.0
H4116 H 0.60752 0.03755 0.31883 0.0
H4117 H 0.58367 0.92337 0.29936 0.0
H4118 H 0.03581 0.66348 0.34072 0.0
H4119 H 0.03207 0.64358 0.33255 0.0
H4120 H 0.99478 0.63202 0.32314 0.0
H4121 H -0.0015 0.65196 0.33091 0.0
H4122 H 0.00015 0.61477 0.34162 0.0
H4123 H 0.01025 0.63971 0.29094 0.0
H4124 H 0.02323 0.65799 0.27437 0.0
H4125 H 0.05275 0.65162 0.27886 0.0
H4126 H 0.03997 0.63339 0.2957 0.0
H4127 H 0.9802 0.56416 0.28824 0.0
H4128 H 0.98486 0.58245 0.30325 0.0
H4129 H 0.02275 0.59684 0.29335 0.0
H4130 H 0.01808 0.57909 0.27692 0.0
H4131 H 0.01817 0.61295 0.28663 0.0
H4132 H 0.00873 0.58743 0.33463 0.0
H4133 H 0.99691 0.56948 0.35239 0.0
H4134 H 0.96799 0.57689 0.35505 0.0
H4135 H 0.97956 0.5948 0.33711 0.0
C4136 C 0.02678 0.65665 0.33714 0.0
C4137 C 0.01746 0.65928 0.33635 0.0
C4138 C 0.02467 0.64531 0.33249 0.0
C4139 C 0.01316 0.63638 0.32724 0.0
C4140 C 0.00371 0.6388 0.32722 0.0
C4141 C 0.00586 0.6502 0.33157 0.0
C4142 C 0.01121 0.62487 0.32043 0.0
C4143 C 0.00399 0.61428 0.32955 0.0
C4144 C 0.01656 0.62438 0.30497 0.0
C4145 C 0.0242 0.63528 0.29474 0.0
C4146 C 0.01954 0.64227 0.28853 0.0
C4147 C 0.02685 0.65261 0.27906 0.0
C4148 C 0.03882 0.65599 0.27561 0.0
C4149 C 0.04349 0.64901 0.28157 0.0
C4150 C 0.03621 0.63867 0.29107 0.0
C4151 C 0.98953 0.57122 0.28913 0.0
C4152 C -0.00128 0.57009 0.28114 0.0
C4153 C 0.99222 0.58164 0.29805 0.0
C4154 C 0.00419 0.59105 0.29966 0.0
C4155 C 0.01343 0.58974 0.29231 0.0
C4156 C 0.01073 0.57945 0.28308 0.0
C4157 C 0.00701 0.6026 0.30777 0.0
C4158 C 0.01439 0.61329 0.29883 0.0
C4159 C 0.00198 0.60316 0.32358 0.0
C4160 C 0.99498 0.59241 0.3344 0.0
C4161 C -0.00019 0.58518 0.3389 0.0
C4162 C 0.99316 0.57503 0.34902 0.0
C4163 C 0.9817 0.57203 0.35481 0.0
C4164 C 0.97687 0.57921 0.35054 0.0
C4165 C 0.98348 0.58938 0.34041 0.0
H4166 H 0.97656 0.56416 0.36265 0.0
H4167 H 0.04447 0.66399 0.26827 0.0
H4168 H 0.34816 0.38369 0.34625 0.0
H4169 H 0.36799 0.39629 0.33344 0.0
H4170 H 0.36331 0.36628 0.30336 0.0
H4171 H 0.34367 0.35349 0.31675 0.0
H4172 H 0.38525 0.37803 0.31336 0.0
H4173 H 0.35897 0.38932 0.28705 0.0
H4174 H 0.34416 0.39605 0.28611 0.0
H4175 H 0.36916 0.42879 0.31129 0.0
H4176 H 0.38406 0.42219 0.31256 0.0
H4177 H 0.42387 0.42583 0.24548 0.0
H4178 H 0.40485 0.41386 0.26061 0.0
H4179 H 0.4242 0.41343 0.30493 0.0
H4180 H 0.44332 0.42534 0.28971 0.0
H4181 H 0.39491 0.41685 0.28754 0.0
H4182 H 0.40779 0.38663 0.32529 0.0
H4183 H 0.42155 0.37866 0.32276 0.0
H4184 H 0.42151 0.38158 0.26846 0.0
H4185 H 0.40762 0.38941 0.27066 0.0
C4186 C 0.35137 0.37977 0.33693 0.0
C4187 C 0.34431 0.36762 0.3324 0.0
C4188 C 0.3627 0.38699 0.32956 0.0
C4189 C 0.36707 0.38232 0.31715 0.0
C4190 C 0.36014 0.37012 0.31287 0.0
C4191 C 0.34889 0.36281 0.3205 0.0
C4192 C 0.37878 0.39017 0.30846 0.0
C4193 C 0.38736 0.38653 0.30775 0.0
C4194 C 0.38151 0.40119 0.30086 0.0
C4195 C 0.37258 0.40521 0.30004 0.0
C4196 C 0.36127 0.39792 0.29248 0.0
C4197 C 0.35287 0.40172 0.29188 0.0
C4198 C 0.3557 0.41283 0.29868 0.0
C4199 C 0.36697 0.42018 0.30605 0.0
C4200 C 0.3754 0.41642 0.3067 0.0
C4201 C 0.4241 0.42335 0.25854 0.0
C4202 C 0.4351 0.42653 0.26641 0.0
C4203 C 0.41321 0.41647 0.26716 0.0
C4204 C 0.41307 0.41262 0.28385 0.0
C4205 C 0.42406 0.41611 0.29195 0.0
C4206 C 0.43498 0.42292 0.28327 0.0
C4207 C 0.40138 0.40473 0.29251 0.0
C4208 C 0.39282 0.40838 0.29325 0.0
C4209 C 0.39853 0.39356 0.29964 0.0
C4210 C 0.40678 0.38874 0.29817 0.0
C4211 C 0.41069 0.38554 0.31282 0.0
C4212 C 0.41851 0.38105 0.31144 0.0
C4213 C 0.42244 0.37966 0.29547 0.0
C4214 C 0.4185 0.38271 0.28083 0.0
C4215 C 0.41067 0.38718 0.28214 0.0
H4216 H 0.4285 0.37619 0.29443 0.0
H4217 H 0.34918 0.41575 0.2982 0.0
H4218 H 0.33615 0.31632 0.36754 0.0
H4219 H 0.34119 0.30105 0.37477 0.0
H4220 H 0.30617 0.27336 0.35788 0.0
H4221 H 0.30105 0.28867 0.35049 0.0
H4222 H 0.31211 0.26892 0.38979 0.0
H4223 H 0.32979 0.27875 0.33471 0.0
H4224 H 0.34208 0.29193 0.31126 0.0
H4225 H 0.37384 0.30569 0.34195 0.0
H4226 H 0.36172 0.29272 0.36569 0.0
H4227 H 0.33034 0.22629 0.40802 0.0
H4228 H 0.323 0.23742 0.39181 0.0
H4229 H 0.356 0.27043 0.40228 0.0
H4230 H 0.36329 0.25949 0.41865 0.0
H4231 H 0.34901 0.26957 0.36957 0.0
H4232 H 0.33101 0.26233 0.42559 0.0
H4233 H 0.31897 0.24971 0.44965 0.0
H4234 H 0.28799 0.23153 0.41743 0.0
H4235 H 0.29992 0.24395 0.39311 0.0
C4236 C 0.32955 0.30699 0.36519 0.0
C4237 C 0.3182 0.30369 0.35845 0.0
C4238 C 0.33246 0.29828 0.36927 0.0
C4239 C 0.32409 0.28608 0.36674 0.0
C4240 C 0.31277 0.28274 0.35986 0.0
C4241 C 0.30988 0.29148 0.35561 0.0
C4242 C 0.32703 0.2769 0.37223 0.0
C4243 C 0.32001 0.26885 0.38508 0.0
C4244 C 0.33746 0.27698 0.36629 0.0
C4245 C 0.34482 0.28481 0.35203 0.0
C4246 C 0.33938 0.28465 0.33652 0.0
C4247 C 0.34632 0.29208 0.32316 0.0
C4248 C 0.35873 0.29966 0.32512 0.0
C4249 C 0.36422 0.29982 0.34044 0.0
C4250 C 0.35732 0.29242 0.35385 0.0
C4251 C 0.33604 0.23591 0.40685 0.0
C4252 C 0.34742 0.24197 0.41468 0.0
C4253 C 0.33184 0.24225 0.39754 0.0
C4254 C 0.33892 0.25477 0.39593 0.0
C4255 C 0.35041 0.26077 0.40325 0.0
C4256 C 0.35459 0.25447 0.41257 0.0
C4257 C 0.33425 0.26179 0.38739 0.0
C4258 C 0.34096 0.26946 0.374 0.0
C4259 C 0.32357 0.2614 0.39289 0.0
C4260 C 0.31639 0.25395 0.4075 0.0
C4261 C 0.32166 0.25557 0.42361 0.0
C4262 C 0.31485 0.24847 0.4373 0.0
C4263 C 0.30273 0.23979 0.43506 0.0
C4264 C 0.29739 0.23823 0.41913 0.0
C4265 C 0.30417 0.2453 0.4054 0.0
H4266 H 0.29747 0.2343 0.44567 0.0
H4267 H 0.36409 0.3054 0.31476 0.0
H4268 H 0.70915 0.00738 0.35252 0.0
H4269 H 0.72411 0.02814 0.35979 0.0
H4270 H 0.69566 0.03592 0.36832 0.0
H4271 H 0.68062 0.01509 0.36152 0.0
H4272 H 0.71842 0.05437 0.34865 0.0
H4273 H 0.70393 0.03094 0.40094 0.0
H4274 H 0.6995 0.01359 0.41892 0.0
H4275 H 0.73654 0.02283 0.41579 0.0
H4276 H 0.74114 0.04014 0.39755 0.0
H4277 H 0.74529 0.10675 0.39962 0.0
H4278 H 0.73283 0.08773 0.38519 0.0
H4279 H 0.75853 0.07684 0.39742 0.0
H4280 H 0.77047 0.09533 0.41315 0.0
H4281 H 0.73796 0.05973 0.4047 0.0
H4282 H 0.75366 0.08407 0.35537 0.0
H4283 H 0.75897 0.10113 0.33629 0.0
H4284 H 0.7216 0.09038 0.3319 0.0
H4285 H 0.71607 0.07334 0.35115 0.0
C4286 C 0.7061 0.01356 0.35571 0.0
C4287 C 0.69373 0.00962 0.35656 0.0
C4288 C 0.71464 0.02539 0.35984 0.0
C4289 C 0.71095 0.0335 0.36456 0.0
C4290 C 0.69865 0.02977 0.36462 0.0
C4291 C 0.69009 0.01788 0.36083 0.0
C4292 C 0.71983 0.04556 0.37088 0.0
C4293 C 0.72267 0.05563 0.36094 0.0
C4294 C 0.72558 0.04707 0.38666 0.0
C4295 C 0.72284 0.03673 0.39771 0.0
C4296 C 0.7111 0.0292 0.40394 0.0
C4297 C 0.70857 0.01939 0.41421 0.0
C4298 C 0.71773 0.01709 0.41845 0.0
C4299 C 0.72945 0.02461 0.41247 0.0
C4300 C 0.73202 0.03442 0.40217 0.0
C4301 C 0.74831 0.10031 0.39932 0.0
C4302 C 0.75889 0.10263 0.40776 0.0
C4303 C 0.74124 0.08948 0.39077 0.0
C4304 C 0.74476 0.08083 0.39004 0.0
C4305 C 0.75559 0.08334 0.39778 0.0
C4306 C 0.76252 0.09405 0.40662 0.0
C4307 C 0.73669 0.0688 0.38251 0.0
C4308 C 0.73391 0.05863 0.39228 0.0
C4309 C 0.73118 0.06724 0.36642 0.0
C4310 C 0.73446 0.07748 0.35483 0.0
C4311 C 0.74658 0.08539 0.35045 0.0
C4312 C 0.74963 0.09505 0.33958 0.0
C4313 C 0.74063 0.09685 0.33292 0.0
C4314 C 0.72856 0.08898 0.33708 0.0
C4315 C 0.72546 0.07931 0.34796 0.0
H4316 H 0.74301 0.10434 0.32451 0.0
H4317 H 0.71575 0.00949 0.4264 0.0
H4318 H 0.9862 0.70934 0.34872 0.0
H4319 H 0.96615 0.70158 0.361 0.0
H4320 H 0.96916 0.67368 0.38629 0.0
H4321 H 0.98906 0.68114 0.37352 0.0
H4322 H 0.94742 0.66472 0.37492 0.0
H4323 H 0.97392 0.6996 0.40733 0.0
H4324 H 0.98929 0.72082 0.41194 0.0
H4325 H 0.96595 0.73174 0.38981 0.0
H4326 H 0.95049 0.71058 0.38487 0.0
H4327 H 0.90824 0.66994 0.44607 0.0
H4328 H 0.92752 0.67752 0.43149 0.0
H4329 H 0.90892 0.66162 0.38465 0.0
H4330 H 0.88953 0.6538 0.39934 0.0
H4331 H 0.93847 0.69241 0.40692 0.0
H4332 H 0.92514 0.65243 0.36133 0.0
H4333 H 0.91068 0.63068 0.36005 0.0
H4334 H 0.90928 0.62897 0.41453 0.0
H4335 H 0.92384 0.65067 0.41613 0.0
C4336 C 0.98258 0.70153 0.35687 0.0
C4337 C 0.98926 0.69591 0.36026 0.0
C4338 C 0.97113 0.69713 0.36392 0.0
C4339 C 0.96622 0.68717 0.37483 0.0
C4340 C 0.97276 0.68138 0.37794 0.0
C4341 C 0.98415 0.68568 0.37067 0.0
C4342 C 0.95437 0.68293 0.38323 0.0
C4343 C 0.94546 0.67078 0.38188 0.0
C4344 C 0.95185 0.69078 0.39258 0.0
C4345 C 0.9611 0.70352 0.39558 0.0
C4346 C 0.9721 0.70653 0.40334 0.0
C4347 C 0.98082 0.71855 0.40603 0.0
C4348 C 0.97861 0.72763 0.40113 0.0
C4349 C 0.96766 0.7247 0.39357 0.0
C4350 C 0.95891 0.7127 0.39084 0.0
C4351 C 0.90825 0.66819 0.43261 0.0
C4352 C 0.89738 0.66128 0.42383 0.0
C4353 C 0.91928 0.6725 0.42429 0.0
C4354 C 0.91969 0.67003 0.40701 0.0
C4355 C 0.90884 0.66344 0.39807 0.0
C4356 C 0.89777 0.65901 0.40644 0.0
C4357 C 0.9315 0.67421 0.39856 0.0
C4358 C 0.9404 0.68636 0.39986 0.0
C4359 C 0.93413 0.66628 0.38964 0.0
C4360 C 0.92547 0.6532 0.38883 0.0
C4361 C 0.92177 0.6474 0.37303 0.0
C4362 C 0.91355 0.63508 0.37225 0.0
C4363 C 0.90903 0.62846 0.3872 0.0
C4364 C 0.91275 0.63412 0.40296 0.0
C4365 C 0.92098 0.64643 0.40381 0.0
H4366 H 0.90267 0.61892 0.38657 0.0
H4367 H 0.98537 0.73692 0.40322 0.0
H4368 H 0.37421 0.03263 0.68135 0.0
H4369 H 0.3894 0.0277 0.69024 0.0
H4370 H 0.36171 0.99567 0.71477 0.0
H4371 H 0.34658 0.00066 0.70626 0.0
H4372 H 0.38013 0.00753 0.73529 0.0
H4373 H 0.37519 0.99495 0.67675 0.0
H4374 H 0.37492 0.9975 0.64576 0.0
H4375 H 0.41212 0.02535 0.64677 0.0
H4376 H 0.41256 0.02307 0.67781 0.0
H4377 H 0.40884 0.97537 0.7519 0.0
H4378 H 0.39595 0.98144 0.73792 0.0
H4379 H 0.42725 0.01426 0.72145 0.0
H4380 H 0.44034 0.00811 0.73517 0.0
H4381 H 0.40862 0.00377 0.69662 0.0
H4382 H 0.41365 0.01568 0.75506 0.0
H4383 H 0.41391 0.01273 0.78594 0.0
H4384 H 0.37633 0.98594 0.78494 0.0
H4385 H 0.37589 0.98858 0.75399 0.0
C4386 C 0.37136 0.0245 0.68853 0.0
C4387 C 0.35919 0.01705 0.69314 0.0
C4388 C 0.38004 0.02166 0.69355 0.0
C4389 C 0.37669 0.01127 0.70311 0.0
C4390 C 0.36452 0.00375 0.70745 0.0
C4391 C 0.35587 0.0066 0.70253 0.0
C4392 C 0.38584 0.00842 0.70929 0.0
C4393 C 0.38626 0.00658 0.72677 0.0
C4394 C 0.39412 0.00756 0.69828 0.0
C4395 C 0.39387 0.00894 0.67963 0.0
C4396 C 0.38328 0.00169 0.67038 0.0
C4397 C 0.3831 0.00307 0.6528 0.0
C4398 C 0.39349 0.01161 0.64431 0.0
C4399 C 0.40408 0.01876 0.65337 0.0
C4400 C 0.4043 0.01742 0.67095 0.0
C4401 C 0.41305 0.98374 0.74494 0.0
C4402 C 0.42565 0.99126 0.74468 0.0
C4403 C 0.40564 0.98724 0.73708 0.0
C4404 C 0.41064 0.99837 0.72886 0.0
C4405 C 0.42322 0.00566 0.72779 0.0
C4406 C 0.43067 0.00216 0.73572 0.0
C4407 C 0.40264 0.00262 0.72248 0.0
C4408 C 0.4025 0.00478 0.70506 0.0
C4409 C 0.39457 0.00378 0.73352 0.0
C4410 C 0.39477 0.00226 0.75218 0.0
C4411 C 0.40546 0.00909 0.7614 0.0
C4412 C 0.40564 0.00749 0.77893 0.0
C4413 C 0.39515 -0.00087 0.78739 0.0
C4414 C 0.38445 0.99239 0.77836 0.0
C4415 C 0.38423 0.99395 0.76083 0.0
H4416 H 0.3953 0.9979 0.80096 0.0
H4417 H 0.39333 0.01266 0.6307 0.0
H4418 H 0.99145 0.35129 0.68609 0.0
H4419 H -0.00068 0.3716 0.69702 0.0
H4420 H 0.96303 0.36395 0.7064 0.0
H4421 H 0.9551 0.34381 0.69488 0.0
H4422 H 0.97555 0.38537 0.69416 0.0
H4423 H 0.98189 0.36375 0.73856 0.0
H4424 H 0.98945 0.35141 0.75121 0.0
H4425 H 0.02579 0.37859 0.73923 0.0
H4426 H 0.01842 0.39103 0.72632 0.0
H4427 H 0.98491 0.42648 0.76056 0.0
H4428 H 0.97959 0.40894 0.74309 0.0
H4429 H 0.01664 0.42435 0.72738 0.0
H4430 H 0.02205 0.44231 0.74423 0.0
H4431 H 0.00557 0.40038 0.74065 0.0
H4432 H 0.99832 0.42286 0.699 0.0
H4433 H 0.98985 0.43489 0.68814 0.0
H4434 H 0.95401 0.40553 0.6971 0.0
H4435 H 0.96227 0.39338 0.70825 0.0
C4436 C 0.98514 0.35395 0.69045 0.0
C4437 C 0.97265 0.34592 0.68971 0.0
C4438 C 0.98966 0.36555 0.69676 0.0
C4439 C 0.98178 0.36926 0.7028 0.0
C4440 C 0.9693 0.36131 0.70181 0.0
C4441 C 0.96477 0.34978 0.69526 0.0
C4442 C 0.98647 0.38135 0.71039 0.0
C4443 C 0.98204 0.3886 0.70442 0.0
C4444 C 0.99515 0.38571 0.72354 0.0
C4445 C -0.0004 0.37825 0.7313 0.0
C4446 C 0.99149 0.36705 0.73851 0.0
C4447 C 0.99574 0.36005 0.74574 0.0
C4448 C 0.00809 0.3642 0.74597 0.0
C4449 C 0.01622 0.37537 0.73901 0.0
C4450 C 0.01202 0.38241 0.73174 0.0
C4451 C 0.99192 0.42637 0.75305 0.0
C4452 C 0.00394 0.4359 0.75383 0.0
C4453 C 0.98885 0.41626 0.74316 0.0
C4454 C 0.99772 0.41539 0.73394 0.0
C4455 C 0.00968 0.42488 0.73446 0.0
C4456 C 0.01275 0.43509 0.74418 0.0
C4457 C 0.9945 0.40424 0.72457 0.0
C4458 C -0.00081 0.39718 0.73024 0.0
C4459 C 0.98592 0.39998 0.71136 0.0
C4460 C 0.98092 0.40724 0.70459 0.0
C4461 C 0.98863 0.419 0.69879 0.0
C4462 C 0.98387 0.42583 0.69255 0.0
C4463 C 0.9714 0.42098 0.69196 0.0
C4464 C 0.96367 0.40928 0.69757 0.0
C4465 C 0.96838 0.40241 0.70383 0.0
H4466 H 0.96773 0.42629 0.68713 0.0
H4467 H 0.01136 0.35876 0.75158 0.0
H4468 H 0.66265 0.6186 0.70029 0.0
H4469 H 0.642 0.60654 0.71067 0.0
H4470 H 0.63641 0.63639 0.7032 0.0
H4471 H 0.65722 0.64866 0.69328 0.0
H4472 H 0.62685 0.62607 0.73202 0.0
H4473 H 0.62473 0.61208 0.67544 0.0
H4474 H 0.63046 0.60432 0.65067 0.0
H4475 H 0.62238 0.57265 0.67864 0.0
H4476 H 0.61676 0.5803 0.70367 0.0
H4477 H 0.56312 0.58937 0.74282 0.0
H4478 H 0.58244 0.60188 0.72847 0.0
H4479 H 0.594 0.57722 0.74306 0.0
H4480 H 0.575 0.56492 0.75801 0.0
H4481 H 0.59961 0.58545 0.7087 0.0
H4482 H 0.60304 0.60084 0.7659 0.0
H4483 H 0.59683 0.60883 0.78989 0.0
H4484 H 0.60185 0.63834 0.75905 0.0
H4485 H 0.60792 0.63042 0.73479 0.0
C4486 C 0.65704 0.62262 0.70086 0.0
C4487 C 0.66157 0.63458 0.69589 0.0
C4488 C 0.6452 0.61568 0.7067 0.0
C4489 C 0.63756 0.62048 0.7074 0.0
C4490 C 0.64212 0.63248 0.70271 0.0
C4491 C 0.65401 0.63948 0.69703 0.0
C4492 C 0.6249 0.613 0.71333 0.0
C4493 C 0.62084 0.61729 0.72669 0.0
C4494 C 0.61706 0.60147 0.70652 0.0
C4495 C 0.62042 0.59682 0.69148 0.0
C4496 C 0.62426 0.6035 0.67635 0.0
C4497 C 0.62747 0.59912 0.66226 0.0
C4498 C 0.62681 0.58801 0.66309 0.0
C4499 C 0.6229 0.58126 0.67801 0.0
C4500 C 0.61969 0.58561 0.69216 0.0
C4501 C 0.56976 0.5866 0.74302 0.0
C4502 C 0.56748 0.57614 0.7517 0.0
C4503 C 0.58077 0.59373 0.73472 0.0
C4504 C 0.58964 0.59049 0.73482 0.0
C4505 C 0.58722 0.57982 0.74279 0.0
C4506 C 0.5763 0.57276 0.75125 0.0
C4507 C 0.60171 0.5985 0.72743 0.0
C4508 C 0.60563 0.5943 0.71384 0.0
C4509 C 0.60936 0.61016 0.73387 0.0
C4510 C 0.6058 0.61497 0.74848 0.0
C4511 C 0.60272 0.60898 0.76419 0.0
C4512 C 0.59924 0.6135 0.77784 0.0
C4513 C 0.59891 0.62406 0.77598 0.0
C4514 C 0.60209 0.63014 0.76047 0.0
C4515 C 0.60555 0.62565 0.74676 0.0
H4516 H 0.59622 0.62755 0.78656 0.0
H4517 H 0.6293 0.58463 0.65216 0.0
H4518 H 0.70515 0.71209 0.66585 0.0
H4519 H 0.69895 0.7264 0.65787 0.0
H4520 H 0.66161 0.69843 0.6617 0.0
H4521 H 0.66783 0.684 0.66872 0.0
H4522 H 0.66397 0.70959 0.63472 0.0
H4523 H 0.67656 0.72286 0.69142 0.0
H4524 H 0.69008 0.72966 0.71618 0.0
H4525 H 0.71613 0.76058 0.68835 0.0
H4526 H 0.70283 0.75388 0.66333 0.0
H4527 H 0.64147 0.74943 0.62664 0.0
H4528 H 0.64752 0.73678 0.64153 0.0
H4529 H 0.68361 0.75817 0.62186 0.0
H4530 H 0.67758 0.77047 0.60617 0.0
H4531 H 0.68109 0.75058 0.65844 0.0
H4532 H 0.66789 0.73541 0.60112 0.0
H4533 H 0.65327 0.72844 0.57765 0.0
H4534 H 0.62678 0.70044 0.60938 0.0
H4535 H 0.64121 0.70738 0.63313 0.0
C4536 C 0.69563 0.70905 0.66514 0.0
C4537 C 0.68697 0.69694 0.66785 0.0
C4538 C 0.69207 0.71725 0.6607 0.0
C4539 C 0.67978 0.71358 0.65937 0.0
C4540 C 0.67114 0.70152 0.66257 0.0
C4541 C 0.6747 0.69327 0.66662 0.0
C4542 C 0.67591 0.72205 0.65357 0.0
C4543 C 0.66758 0.71845 0.64021 0.0
C4544 C 0.68071 0.73374 0.66043 0.0
C4545 C 0.68874 0.73781 0.67545 0.0
C4546 C 0.68521 0.73106 0.69054 0.0
C4547 C 0.69283 0.73491 0.70463 0.0
C4548 C 0.70397 0.74553 0.70382 0.0
C4549 C 0.7075 0.75235 0.68894 0.0
C4550 C 0.69992 0.74854 0.67481 0.0
C4551 C 0.6507 0.75148 0.62544 0.0
C4552 C 0.65897 0.76093 0.61498 0.0
C4553 C 0.65416 0.7443 0.63412 0.0
C4554 C 0.66599 0.74655 0.63272 0.0
C4555 C 0.67446 0.75637 0.62317 0.0
C4556 C 0.67097 0.76343 0.61426 0.0
C4557 C 0.66924 0.738 0.63981 0.0
C4558 C 0.67745 0.74163 0.65325 0.0
C4559 C 0.66419 0.72625 0.63328 0.0
C4560 C 0.65558 0.722 0.61894 0.0
C4561 C 0.65892 0.72784 0.60313 0.0
C4562 C 0.65067 0.72388 0.58977 0.0
C4563 C 0.63909 0.71403 0.59203 0.0
C4564 C 0.63574 0.70809 0.60765 0.0
C4565 C 0.64395 0.71202 0.62106 0.0
H4566 H 0.63271 0.71097 0.58167 0.0
H4567 H 0.70985 0.74849 0.71475 0.0
H4568 H 0.31154 0.98755 0.66055 0.0
H4569 H 0.29969 0.96711 0.64959 0.0
H4570 H 0.26747 0.96943 0.65251 0.0
H4571 H 0.27919 0.98978 0.66371 0.0
H4572 H 0.26336 0.94821 0.66428 0.0
H4573 H 0.28172 0.97241 0.61465 0.0
H4574 H 0.29857 0.9872 0.59697 0.0
H4575 H 0.31451 0.965 0.59735 0.0
H4576 H 0.29783 0.95015 0.61523 0.0
H4577 H 0.22567 0.8992 0.60996 0.0
H4578 H 0.23746 0.91865 0.62393 0.0
H4579 H 0.2694 0.91592 0.61949 0.0
H4580 H 0.25782 0.89675 0.60493 0.0
H4581 H 0.27385 0.93718 0.60909 0.0
H4582 H 0.25513 0.9126 0.658 0.0
H4583 H 0.23823 0.8978 0.67559 0.0
H4584 H 0.22293 0.92055 0.67656 0.0
H4585 H 0.23965 0.93543 0.65877 0.0
C4586 C 0.30194 0.98372 0.65886 0.0
C4587 C 0.29633 0.99034 0.66294 0.0
C4588 C 0.29518 0.97204 0.65255 0.0
C4589 C 0.28271 0.96678 0.65007 0.0
C4590 C 0.27708 0.97331 0.65433 0.0
C4591 C 0.28381 0.98497 0.66067 0.0
C4592 C 0.27553 0.95452 0.6429 0.0
C4593 C 0.26557 0.94582 0.65212 0.0
C4594 C 0.27857 0.95134 0.62722 0.0
C4595 C 0.28859 0.96023 0.61642 0.0
C4596 C 0.28887 0.97073 0.61107 0.0
C4597 C 0.29838 0.97911 0.601 0.0
C4598 C 0.30763 0.97705 0.59608 0.0
C4599 C 0.30736 0.96659 0.60119 0.0
C4600 C 0.29787 0.95819 0.61129 0.0
C4601 C 0.2352 0.90272 0.612 0.0
C4602 C 0.24078 0.89638 0.60633 0.0
C4603 C 0.24191 0.9138 0.62013 0.0
C4604 C 0.25431 0.91872 0.62288 0.0
C4605 C 0.25984 0.91229 0.61755 0.0
C4606 C 0.25316 0.90125 0.60938 0.0
C4607 C 0.26167 0.93083 0.63047 0.0
C4608 C 0.27166 0.93952 0.62129 0.0
C4609 C 0.25865 0.93399 0.64619 0.0
C4610 C 0.24859 0.92507 0.65691 0.0
C4611 C 0.24811 0.9144 0.66185 0.0
C4612 C 0.23857 0.90601 0.67188 0.0
C4613 C 0.2295 0.90822 0.67715 0.0
C4614 C 0.22996 0.91885 0.67245 0.0
C4615 C 0.23947 0.92727 0.6624 0.0
H4616 H 0.22212 0.90171 0.68492 0.0
H4617 H 0.31498 0.98355 0.58828 0.0
H4618 H 0.0132 0.33476 0.64379 0.0
H4619 H 0.0334 0.33977 0.63489 0.0
H4620 H 0.03311 0.31508 0.6718 0.0
H4621 H 0.01278 0.30997 0.68086 0.0
H4622 H 0.05565 0.3371 0.66926 0.0
H4623 H 0.02684 0.30563 0.63338 0.0
H4624 H 0.00922 0.29581 0.61448 0.0
H4625 H 0.02669 0.32497 0.57913 0.0
H4626 H 0.04435 0.33505 0.59796 0.0
H4627 H 0.10143 0.32913 0.62906 0.0
H4628 H 0.08375 0.32738 0.64359 0.0
H4629 H 0.08014 0.34844 0.60423 0.0
H4630 H 0.09746 0.34987 0.58936 0.0
H4631 H 0.05959 0.32802 0.60909 0.0
H4632 H 0.08869 0.35939 0.64459 0.0
H4633 H 0.10628 0.36931 0.66353 0.0
H4634 H 0.08856 0.34058 0.69947 0.0
H4635 H 0.07092 0.3304 0.68062 0.0
C4636 C 0.01745 0.33046 0.65016 0.0
C4637 C 0.01134 0.32187 0.66292 0.0
C4638 C 0.029 0.33335 0.64505 0.0
C4639 C 0.03468 0.3277 0.65257 0.0
C4640 C 0.02886 0.31952 0.66584 0.0
C4641 C 0.01724 0.31658 0.67094 0.0
C4642 C 0.04633 0.32981 0.64571 0.0
C4643 C 0.05653 0.33499 0.65617 0.0
C4644 C 0.04745 0.32723 0.62857 0.0
C4645 C 0.03687 0.32115 0.61716 0.0
C4646 C 0.02689 0.31 0.62164 0.0
C4647 C 0.0169 0.30437 0.61093 0.0
C4648 C 0.01682 0.30977 0.59563 0.0
C4649 C 0.02675 0.3208 0.59099 0.0
C4650 C 0.03676 0.32647 0.60168 0.0
C4651 C 0.09694 0.33349 0.6236 0.0
C4652 C 0.10084 0.33959 0.608 0.0
C4653 C 0.0869 0.33257 0.63199 0.0
C4654 C 0.08063 0.33779 0.625 0.0
C4655 C 0.08484 0.34434 0.60985 0.0
C4656 C 0.09484 0.34525 0.60145 0.0
C4657 C 0.06906 0.33552 0.63253 0.0
C4658 C 0.0588 0.3302 0.62218 0.0
C4659 C 0.06793 0.33798 0.64976 0.0
C4660 C 0.07853 0.34407 0.66111 0.0
C4661 C 0.08858 0.35513 0.65646 0.0
C4662 C 0.09855 0.36081 0.66719 0.0
C4663 C 0.09855 0.35556 0.68267 0.0
C4664 C 0.08856 0.34463 0.68746 0.0
C4665 C 0.07857 0.3389 0.67677 0.0
H4666 H 0.10627 0.35998 0.69097 0.0
H4667 H 0.00908 0.3054 0.58736 0.0
H4668 H 0.28277 0.28964 0.6564 0.0
H4669 H 0.2705 0.29772 0.64584 0.0
H4670 H 0.29884 0.33353 0.65811 0.0
H4671 H 0.31127 0.32554 0.66857 0.0
H4672 H 0.27509 0.32794 0.66862 0.0
H4673 H 0.29614 0.32617 0.61904 0.0
H4674 H 0.30308 0.31646 0.59859 0.0
H4675 H 0.2664 0.29056 0.58646 0.0
H4676 H 0.25923 0.30002 0.60703 0.0
H4677 H 0.25236 0.35925 0.62137 0.0
H4678 H 0.26438 0.3518 0.6347 0.0
H4679 H 0.2407 0.31663 0.61399 0.0
H4680 H 0.22915 0.32414 0.59975 0.0
H4681 H 0.2627 0.3224 0.60819 0.0
H4682 H 0.24128 0.3236 0.65744 0.0
H4683 H 0.23386 0.33266 0.67824 0.0
H4684 H 0.27025 0.35872 0.69153 0.0
H4685 H 0.2779 0.3499 0.67064 0.0
C4686 C 0.28641 0.29923 0.65688 0.0
C4687 C 0.29802 0.30695 0.66326 0.0
C4688 C 0.27939 0.30383 0.65082 0.0
C4689 C 0.2838 0.31621 0.65116 0.0
C4690 C 0.29529 0.32394 0.65777 0.0
C4691 C 0.30239 0.31936 0.66364 0.0
C4692 C 0.27645 0.32107 0.6443 0.0
C4693 C 0.27248 0.32689 0.65537 0.0
C4694 C 0.27286 0.31941 0.62711 0.0
C4695 C 0.27715 0.31373 0.6147 0.0
C4696 C 0.28955 0.31834 0.61212 0.0
C4697 C 0.29353 0.3129 0.60049 0.0
C4698 C 0.28519 0.30288 0.59127 0.0
C4699 C 0.27285 0.29831 0.59363 0.0
C4700 C 0.26883 0.30371 0.60527 0.0
C4701 C 0.2497 0.34992 0.61965 0.0
C4702 C 0.23977 0.34233 0.60941 0.0
C4703 C 0.25651 0.34563 0.62746 0.0
C4704 C 0.25342 0.33362 0.62546 0.0
C4705 C 0.24328 0.32593 0.61574 0.0
C4706 C 0.23656 0.33023 0.60776 0.0
C4707 C 0.26112 0.32918 0.63253 0.0
C4708 C 0.26523 0.32346 0.62147 0.0
C4709 C 0.26474 0.33084 0.64976 0.0
C4710 C 0.26016 0.33616 0.66235 0.0
C4711 C 0.24771 0.33132 0.6647 0.0
C4712 C 0.24346 0.3364 0.67652 0.0
C4713 C 0.25158 0.34628 0.68617 0.0
C4714 C 0.26397 0.35108 0.68404 0.0
C4715 C 0.26827 0.34603 0.67221 0.0
H4716 H 0.24827 0.3502 0.69532 0.0
H4717 H 0.28829 0.29868 0.58226 0.0
H4718 H 0.69447 0.99092 0.67936 0.0
H4719 H 0.69072 0.97118 0.67053 0.0
H4720 H 0.66085 0.96628 0.63997 0.0
H4721 H 0.66462 0.98605 0.64857 0.0
H4722 H 0.67185 0.94793 0.67187 0.0
H4723 H 0.66215 0.95381 0.60243 0.0
H4724 H 0.66638 0.97002 0.58218 0.0
H4725 H 0.69892 0.99382 0.6089 0.0
H4726 H 0.69496 0.97771 0.62916 0.0
H4727 H 0.65419 0.89414 0.6229 0.0
H4728 H 0.6549 0.91152 0.6367 0.0
H4729 H 0.69019 0.93456 0.61524 0.0
H4730 H 0.68943 0.91742 0.60116 0.0
H4731 H 0.67561 0.94336 0.60992 0.0
H4732 H 0.68682 0.92733 0.6569 0.0
H4733 H 0.68415 0.91173 0.67727 0.0
H4734 H 0.65148 0.90916 0.69574 0.0
H4735 H 0.65387 0.92465 0.6753 0.0
C4736 C 0.687 0.98558 0.67094 0.0
C4737 C 0.67993 0.99011 0.6645 0.0
C4738 C 0.68484 0.97428 0.66597 0.0
C4739 C 0.6756 0.96733 0.65443 0.0
C4740 C 0.66812 0.97156 0.64872 0.0
C4741 C 0.67028 0.98286 0.65366 0.0
C4742 C 0.67448 0.95619 0.6473 0.0
C4743 C 0.67259 0.94688 0.65833 0.0
C4744 C 0.67561 0.95489 0.62965 0.0
C4745 C 0.67818 0.9646 0.6174 0.0
C4746 C 0.67022 0.9625 0.60394 0.0
C4747 C 0.67257 0.97167 0.59247 0.0
C4748 C 0.68289 0.98295 0.59429 0.0
C4749 C 0.69091 0.98508 0.60754 0.0
C4750 C 0.68861 0.97594 0.61903 0.0
C4751 C 0.66211 0.90291 0.6212 0.0
C4752 C 0.67178 0.90437 0.611 0.0
C4753 C 0.66253 0.91281 0.62916 0.0
C4754 C 0.67262 0.92433 0.62702 0.0
C4755 C 0.68232 0.92576 0.61707 0.0
C4756 C 0.68192 0.91591 0.60917 0.0
C4757 C 0.67297 0.93505 0.63447 0.0
C4758 C 0.67471 0.94431 0.62347 0.0
C4759 C 0.67188 0.93634 0.65214 0.0
C4760 C 0.67045 0.92705 0.66445 0.0
C4761 C 0.67901 0.92337 0.6652 0.0
C4762 C 0.67756 0.91456 0.67678 0.0
C4763 C 0.66763 0.90943 0.68776 0.0
C4764 C 0.65915 0.91313 0.68721 0.0
C4765 C 0.66055 0.92192 0.67564 0.0
H4766 H 0.66653 0.90262 0.69672 0.0
H4767 H 0.68468 0.99004 0.58541 0.0
H4768 H 0.01044 0.68597 0.6554 0.0
H4769 H 0.03107 0.69774 0.64463 0.0
H4770 H 0.03038 0.73032 0.65328 0.0
H4771 H 0.0097 0.71864 0.66367 0.0
H4772 H 0.04004 0.73116 0.62348 0.0
H4773 H 0.04553 0.72116 0.68009 0.0
H4774 H 0.04243 0.7077 0.70413 0.0
H4775 H 0.05654 0.68968 0.67439 0.0
H4776 H 0.05958 0.70293 0.65008 0.0
H4777 H 0.10235 0.77207 0.61397 0.0
H4778 H 0.08263 0.76021 0.62762 0.0
H4779 H 0.08224 0.72768 0.61422 0.0
H4780 H 0.10182 0.73943 0.60027 0.0
H4781 H 0.07339 0.72684 0.64672 0.0
H4782 H 0.06748 0.73666 0.59005 0.0
H4783 H 0.07073 0.75025 0.56613 0.0
H4784 H 0.05742 0.76877 0.5964 0.0
H4785 H 0.05425 0.75539 0.62059 0.0
C4786 C 0.01467 0.69564 0.655 0.0
C4787 C 0.0084 0.70135 0.66042 0.0
C4788 C 0.0265 0.70236 0.64893 0.0
C4789 C 0.03235 0.71493 0.64836 0.0
C4790 C 0.02607 0.72064 0.65362 0.0
C4791 C 0.01423 0.71393 0.65958 0.0
C4792 C 0.04494 0.72217 0.64201 0.0
C4793 C 0.04734 0.73033 0.62875 0.0
C4794 C 0.05445 0.72091 0.6486 0.0
C4795 C 0.05267 0.71296 0.66321 0.0
C4796 C 0.04788 0.71427 0.67863 0.0
C4797 C 0.04615 0.70669 0.69232 0.0
C4798 C 0.04925 0.69782 0.69077 0.0
C4799 C 0.05413 0.69654 0.67556 0.0
C4800 C 0.05587 0.70409 0.66183 0.0
C4801 C 0.0981 0.7624 0.61398 0.0
C4802 C 0.10364 0.75671 0.6059 0.0
C4803 C 0.08685 0.75564 0.62182 0.0
C4804 C 0.08092 0.74307 0.62172 0.0
C4805 C 0.08668 0.73738 0.61444 0.0
C4806 C 0.0979 0.74412 0.60654 0.0
C4807 C 0.06844 0.73584 0.62834 0.0
C4808 C 0.06606 0.72768 0.64155 0.0
C4809 C 0.05893 0.7371 0.62175 0.0
C4810 C 0.06075 0.7451 0.60718 0.0
C4811 C 0.06534 0.74369 0.59165 0.0
C4812 C 0.06715 0.75135 0.57804 0.0
C4813 C 0.06431 0.76039 0.57976 0.0
C4814 C 0.05963 0.76177 0.59509 0.0
C4815 C 0.05781 0.75415 0.60875 0.0
H4816 H 0.06572 0.7663 0.56921 0.0
H4817 H 0.04791 0.69197 0.70138 0.0
H4818 H 0.96612 0.62476 0.67397 0.0
H4819 H 0.96932 0.60836 0.68221 0.0
H4820 H 0.9967 0.63182 0.71761 0.0
H4821 H 0.99374 0.64828 0.70918 0.0
H4822 H 0.00346 0.61795 0.70181 0.0
H4823 H 0.96752 0.61197 0.73045 0.0
H4824 H 0.94712 0.60921 0.73208 0.0
H4825 H 0.93341 0.57755 0.70127 0.0
H4826 H 0.95377 0.58022 0.69929 0.0
H4827 H 0.00327 0.57928 0.76501 0.0
H4828 H 0.00201 0.59414 0.74767 0.0
H4829 H 0.97667 0.56619 0.71456 0.0
H4830 H 0.97807 0.55118 0.73171 0.0
H4831 H 0.96864 0.58095 0.72517 0.0
H4832 H 0.00458 0.58569 0.70018 0.0
H4833 H 0.02501 0.58852 0.69971 0.0
H4834 H 0.03886 0.62254 0.7246 0.0
H4835 H 0.01848 0.61984 0.72545 0.0
C4836 C 0.97289 0.62644 0.6834 0.0
C4837 C 0.97961 0.6378 0.69102 0.0
C4838 C 0.97469 0.61705 0.68814 0.0
C4839 C 0.98313 0.61881 0.70071 0.0
C4840 C 0.99013 0.63024 0.7079 0.0
C4841 C 0.98839 0.63964 0.7031 0.0
C4842 C 0.98439 0.60867 0.70697 0.0
C4843 C 0.99586 0.60988 0.707 0.0
C4844 C 0.97442 0.598 0.71334 0.0
C4845 C 0.96218 0.59638 0.71455 0.0
C4846 C 0.96017 0.60448 0.72391 0.0
C4847 C 0.94861 0.60292 0.72492 0.0
C4848 C 0.93898 0.59323 0.71674 0.0
C4849 C 0.94088 0.58506 0.70757 0.0
C4850 C 0.95242 0.58659 0.70651 0.0
C4851 C 0.99767 0.57627 0.75379 0.0
C4852 C 0.9908 0.564 0.74976 0.0
C4853 C 0.99693 0.5848 0.7439 0.0
C4854 C 0.98931 0.58129 0.72974 0.0
C4855 C 0.98261 0.56909 0.72544 0.0
C4856 C 0.98339 0.56053 0.7353 0.0
C4857 C 0.98775 0.59031 0.72029 0.0
C4858 C 0.97621 0.58891 0.7197 0.0
C4859 C 0.99767 0.60083 0.71352 0.0
C4860 C 0.00997 0.60252 0.71298 0.0
C4861 C 0.01196 0.59373 0.70567 0.0
C4862 C 0.02354 0.59532 0.70531 0.0
C4863 C 0.03323 0.60569 0.71215 0.0
C4864 C 0.03135 0.61451 0.71932 0.0
C4865 C 0.01979 0.61296 0.71972 0.0
H4866 H 0.04218 0.60691 0.71186 0.0
H4867 H 0.93004 0.59203 0.71753 0.0
H4868 H 0.37484 0.346 0.6763 0.0
H4869 H 0.38976 0.36671 0.68382 0.0
H4870 H 0.3641 0.36792 0.71804 0.0
H4871 H 0.34916 0.34739 0.71041 0.0
H4872 H 0.37565 0.38809 0.69997 0.0
H4873 H 0.3867 0.36333 0.73228 0.0
H4874 H 0.39264 0.34809 0.73583 0.0
H4875 H 0.42406 0.36898 0.70493 0.0
H4876 H 0.41822 0.38428 0.70102 0.0
H4877 H 0.40817 0.43167 0.76127 0.0
H4878 H 0.39609 0.41329 0.74531 0.0
H4879 H 0.42687 0.42121 0.71407 0.0
H4880 H 0.4391 0.43991 0.7299 0.0
H4881 H 0.4147 0.39778 0.72561 0.0
H4882 H 0.40483 0.42406 0.69711 0.0
H4883 H 0.39886 0.43933 0.69474 0.0
H4884 H 0.3651 0.41562 0.71918 0.0
H4885 H 0.37094 0.40026 0.72194 0.0
C4886 C 0.37238 0.35071 0.68537 0.0
C4887 C 0.36083 0.34504 0.69281 0.0
C4888 C 0.38092 0.36253 0.68969 0.0
C4889 C 0.37808 0.36883 0.7016 0.0
C4890 C 0.36649 0.36324 0.70879 0.0
C4891 C 0.35796 0.35148 0.70446 0.0
C4892 C 0.38715 0.38119 0.70693 0.0
C4893 C 0.38417 0.3902 0.70563 0.0
C4894 C 0.39843 0.38404 0.71383 0.0
C4895 C 0.40195 0.37486 0.71618 0.0
C4896 C 0.39482 0.36462 0.72612 0.0
C4897 C 0.39818 0.35598 0.72823 0.0
C4898 C 0.4087 0.35755 0.72056 0.0
C4899 C 0.4159 0.36777 0.71082 0.0
C4900 C 0.41257 0.37642 0.70867 0.0
C4901 C 0.41236 0.42969 0.75079 0.0
C4902 C 0.42459 0.43739 0.74673 0.0
C4903 C 0.40543 0.41912 0.74171 0.0
C4904 C 0.41053 0.41597 0.72834 0.0
C4905 C 0.42275 0.42352 0.72431 0.0
C4906 C 0.42973 0.43417 0.73339 0.0
C4907 C 0.40302 0.40456 0.7191 0.0
C4908 C 0.40629 0.39574 0.71963 0.0
C4909 C 0.39197 0.40185 0.71157 0.0
C4910 C 0.38836 0.41103 0.70981 0.0
C4911 C 0.39617 0.42213 0.70208 0.0
C4912 C 0.3928 0.4308 0.70065 0.0
C4913 C 0.38161 0.42846 0.70683 0.0
C4914 C 0.37376 0.41743 0.71441 0.0
C4915 C 0.37709 0.40872 0.71588 0.0
H4916 H 0.37902 0.43518 0.70571 0.0
H4917 H 0.41129 0.35085 0.72221 0.0
H4918 H 0.65685 0.04694 0.69234 0.0
H4919 H 0.63695 0.03984 0.70473 0.0
H4920 H 0.63159 0.00424 0.70901 0.0
H4921 H 0.65148 0.01122 0.69644 0.0
H4922 H 0.6117 0.00391 0.69662 0.0
H4923 H 0.63877 0.02193 0.74351 0.0
H4924 H 0.65626 0.03801 0.75861 0.0
H4925 H 0.6413 0.06094 0.75432 0.0
H4926 H 0.62379 0.04505 0.73897 0.0
H4927 H 0.56397 0.97885 0.75662 0.0
H4928 H 0.58282 0.98648 0.74092 0.0
H4929 H 0.58631 0.02139 0.73836 0.0
H4930 H 0.56729 0.01376 0.75395 0.0
H4931 H 0.60693 0.02267 0.74888 0.0
H4932 H 0.57926 0.00414 0.70315 0.0
H4933 H 0.56174 0.9879 0.68833 0.0
H4934 H 0.57771 0.96577 0.69062 0.0
H4935 H 0.59526 0.98182 0.70569 0.0
C4936 C 0.65146 0.03759 0.6959 0.0
C4937 C 0.6558 0.02966 0.69345 0.0
C4938 C 0.64009 0.03356 0.70303 0.0
C4939 C 0.63285 0.02155 0.70794 0.0
C4940 C 0.63705 0.01356 0.70532 0.0
C4941 C 0.64844 0.01758 0.69819 0.0
C4942 C 0.62089 0.01733 0.71588 0.0
C4943 C 0.61065 0.00791 0.70816 0.0
C4944 C 0.61952 0.02278 0.73068 0.0
C4945 C 0.63003 0.03234 0.73993 0.0
C4946 C 0.63926 0.03044 0.74566 0.0
C4947 C 0.64917 0.03951 0.75428 0.0
C4948 C 0.64991 0.0505 0.75738 0.0
C4949 C 0.64072 0.05243 0.75189 0.0
C4950 C 0.6308 0.04339 0.74323 0.0
C4951 C 0.56858 0.98808 0.75241 0.0
C4952 C 0.56407 0.99568 0.75647 0.0
C4953 C 0.57939 0.99244 0.74347 0.0
C4954 C 0.58591 0.00447 0.73834 0.0
C4955 C 0.5814 0.01207 0.74221 0.0
C4956 C 0.57056 0.00771 0.75115 0.0
C4957 C 0.59772 0.0092 0.72967 0.0
C4958 C 0.60794 0.01871 0.73728 0.0
C4959 C 0.59907 0.00382 0.71479 0.0
C4960 C 0.58854 0.99416 0.70568 0.0
C4961 C 0.579 0.99578 0.70062 0.0
C4962 C 0.56906 0.98661 0.69215 0.0
C4963 C 0.5686 0.9758 0.68857 0.0
C4964 C 0.57808 0.97415 0.69342 0.0
C4965 C 0.58803 0.98328 0.70191 0.0
H4966 H 0.5609 0.96872 0.68201 0.0
H4967 H 0.65759 0.05752 0.76406 0.0
loop_
_geom_bond_atom_site_label_1
_geom_bond_atom_site_label_2
_geom_bond_distance
_geom_bond_site_symmetry_2
_ccdc_geom_bond_type
C0 O1 1.306 . S
C0 O3 1.168 . S
O1 C0 1.306 . S
O1 Cd2 2.228 . S
Cd2 O1 2.228 . S
Cd2 O6 2.273 . S
Cd2 O10 2.277 1_554 S
O3 C0 1.168 . S
O3 Cd4 2.234 1_655 S
Cd4 O3 2.234 1_455 S
Cd4 O6 2.411 1_455 S
Cd4 O7 2.333 . S
Cd4 O8 2.352 . S
Cd4 O12 2.277 1_554 S
Cd4 O13 2.356 . S
C5 O10 1.209 1_455 S
C5 O12 1.226 . S
O6 Cd2 2.273 . S
O6 Cd4 2.411 1_655 S
O6 C9 1.320 1_655 S
O7 Cd4 2.333 . S
O7 C9 1.214 . S
O8 Cd4 2.352 . S
O8 C11 1.258 . S
C9 O6 1.320 1_455 S
C9 O7 1.214 . S
O10 Cd2 2.277 1_556 S
O10 C5 1.209 1_655 S
C11 O8 1.258 . S
C11 O13 1.282 . S
O12 Cd4 2.277 1_556 S
O12 C5 1.226 . S
O13 Cd4 2.356 . S
O13 C11 1.282 . S
C14 O15 1.306 . S
C14 O17 1.160 . S
O15 C14 1.306 . S
O15 Cd16 2.228 . S
Cd16 O15 2.228 . S
Cd16 O20 2.273 1_554 S
Cd16 O24 2.277 . S
O17 C14 1.160 . S
O17 Cd18 2.203 . S
Cd18 O17 2.203 . S
Cd18 O20 2.411 1_554 S
Cd18 O21 2.333 1_554 S
Cd18 O22 2.352 1_554 S
Cd18 O26 2.277 . S
Cd18 O27 2.356 . S
C19 O24 1.209 . S
C19 O26 1.226 . S
O20 Cd16 2.273 1_556 S
O20 Cd18 2.411 1_556 S
O20 C23 1.320 . S
O21 Cd18 2.333 1_556 S
O21 C23 1.214 . S
O22 Cd18 2.352 1_556 S
O22 C25 1.243 1_556 S
C23 O20 1.320 . S
C23 O21 1.214 . S
O24 Cd16 2.277 . S
O24 C19 1.209 . S
C25 O22 1.243 1_554 S
C25 O27 1.317 . S
O26 Cd18 2.277 . S
O26 C19 1.226 . S
O27 Cd18 2.356 . S
O27 C25 1.317 . S
C28 O29 1.306 . S
C28 O31 1.160 . S
O29 C28 1.306 . S
O29 Cd30 2.228 . S
Cd30 O29 2.228 . S
Cd30 O34 2.273 1_554 S
Cd30 O38 2.277 . S
O31 C28 1.160 . S
O31 Cd32 2.203 1_565 S
Cd32 O31 2.203 1_545 S
Cd32 O34 2.411 1_544 S
Cd32 O35 2.333 1_554 S
Cd32 O36 2.352 1_554 S
Cd32 O40 2.277 . S
Cd32 O41 2.356 . S
C33 O38 1.209 1_545 S
C33 O40 1.226 . S
O34 Cd30 2.273 1_556 S
O34 Cd32 2.411 1_566 S
O34 C37 1.320 1_565 S
O35 Cd32 2.333 1_556 S
O35 C37 1.214 . S
O36 Cd32 2.352 1_556 S
O36 C39 1.258 1_556 S
C37 O34 1.320 1_545 S
C37 O35 1.214 . S
O38 Cd30 2.277 . S
O38 C33 1.209 1_565 S
C39 O36 1.258 1_554 S
C39 O41 1.282 . S
O40 Cd32 2.277 . S
O40 C33 1.226 . S
O41 Cd32 2.356 . S
O41 C39 1.282 . S
C42 O43 1.315 . S
C42 O45 1.158 1_554 S
O43 C42 1.315 . S
O43 Cd44 2.228 . S
Cd44 O43 2.228 . S
Cd44 O48 2.273 . S
Cd44 O52 2.277 1_554 S
O45 C42 1.158 1_556 S
O45 Cd46 2.203 1_656 S
Cd46 O45 2.203 1_454 S
Cd46 O48 2.411 1_455 S
Cd46 O49 2.333 . S
Cd46 O50 2.352 . S
Cd46 O54 2.277 1_554 S
Cd46 O55 2.356 . S
C47 O52 1.209 1_455 S
C47 O54 1.226 . S
O48 Cd44 2.273 . S
O48 Cd46 2.411 1_655 S
O48 C51 1.320 1_655 S
O49 Cd46 2.333 . S
O49 C51 1.214 . S
O50 Cd46 2.352 . S
O50 C53 1.258 . S
C51 O48 1.320 1_455 S
C51 O49 1.214 . S
O52 Cd44 2.277 1_556 S
O52 C47 1.209 1_655 S
C53 O50 1.258 . S
C53 O55 1.282 . S
O54 Cd46 2.277 1_556 S
O54 C47 1.226 . S
O55 Cd46 2.356 . S
O55 C53 1.282 . S
C56 O57 1.306 . S
C56 O59 1.160 . S
O57 C56 1.306 . S
O57 Cd58 2.228 . S
Cd58 O57 2.228 . S
Cd58 O62 2.273 1_554 S
Cd58 O66 2.277 . S
O59 C56 1.160 . S
O59 Cd60 2.203 . S
Cd60 O59 2.203 . S
Cd60 O62 2.411 1_554 S
Cd60 O63 2.333 1_554 S
Cd60 O64 2.352 1_554 S
Cd60 O68 2.277 . S
Cd60 O69 2.356 . S
C61 O66 1.209 . S
C61 O68 1.226 . S
O62 Cd58 2.273 1_556 S
O62 Cd60 2.411 1_556 S
O62 C65 1.320 . S
O63 Cd60 2.333 1_556 S
O63 C65 1.214 . S
O64 Cd60 2.352 1_556 S
O64 C67 1.280 . S
C65 O62 1.320 . S
C65 O63 1.214 . S
O66 Cd58 2.277 . S
O66 C61 1.209 . S
C67 O64 1.280 . S
C67 O69 1.241 1_556 S
O68 Cd60 2.277 . S
O68 C61 1.226 . S
O69 Cd60 2.356 . S
O69 C67 1.241 1_554 S
C70 O71 1.306 . S
C70 O73 1.160 . S
O71 C70 1.306 . S
O71 Cd72 2.228 . S
Cd72 O71 2.228 . S
Cd72 O76 2.273 . S
Cd72 O80 2.277 1_554 S
O73 C70 1.160 . S
O73 Cd74 2.206 1_545 S
Cd74 O73 2.206 1_565 S
Cd74 O76 2.411 1_565 S
Cd74 O77 2.333 . S
Cd74 O78 2.352 . S
Cd74 O82 2.277 1_554 S
Cd74 O83 2.356 . S
C75 O80 1.199 1_565 S
C75 O82 1.240 . S
O76 Cd72 2.273 . S
O76 Cd74 2.411 1_545 S
O76 C79 1.333 . S
O77 Cd74 2.333 . S
O77 C79 1.186 1_565 S
O78 Cd74 2.352 . S
O78 C81 1.258 . S
C79 O76 1.333 . S
C79 O77 1.186 1_545 S
O80 Cd72 2.277 1_556 S
O80 C75 1.199 1_545 S
C81 O78 1.258 . S
C81 O83 1.282 . S
O82 Cd74 2.277 1_556 S
O82 C75 1.240 . S
O83 Cd74 2.356 . S
O83 C81 1.282 . S
C84 O85 1.306 . S
C84 O87 1.160 . S
O85 C84 1.306 . S
O85 Cd86 2.228 . S
Cd86 O85 2.228 . S
Cd86 O90 2.273 . S
Cd86 O94 2.277 . S
O87 C84 1.160 . S
O87 Cd88 2.203 . S
Cd88 O87 2.203 . S
Cd88 O90 2.411 . S
Cd88 O91 2.333 . S
Cd88 O92 2.352 . S
Cd88 O96 2.277 . S
Cd88 O97 2.356 . S
C89 O94 1.209 . S
C89 O96 1.226 . S
O90 Cd86 2.273 . S
O90 Cd88 2.411 . S
O90 C93 1.320 . S
O91 Cd88 2.333 . S
O91 C93 1.214 . S
O92 Cd88 2.352 . S
O92 C95 1.258 . S
C93 O90 1.320 . S
C93 O91 1.214 . S
O94 Cd86 2.277 . S
O94 C89 1.209 . S
C95 O92 1.258 . S
C95 O97 1.282 . S
O96 Cd88 2.277 . S
O96 C89 1.226 . S
O97 Cd88 2.356 . S
O97 C95 1.282 . S
C98 O99 1.306 . S
C98 O101 1.160 . S
O99 C98 1.306 . S
O99 Cd100 2.228 . S
Cd100 O99 2.228 . S
Cd100 O104 2.273 . S
Cd100 O108 2.277 . S
O101 C98 1.160 . S
O101 Cd102 2.203 . S
Cd102 O101 2.203 . S
Cd102 O104 2.411 . S
Cd102 O105 2.333 . S
Cd102 O106 2.352 . S
Cd102 O110 2.277 . S
Cd102 O111 2.356 . S
C103 O108 1.209 . S
C103 O110 1.226 . S
O104 Cd100 2.273 . S
O104 Cd102 2.411 . S
O104 C107 1.320 . S
O105 Cd102 2.333 . S
O105 C107 1.214 . S
O106 Cd102 2.352 . S
O106 C109 1.258 . S
C107 O104 1.320 . S
C107 O105 1.214 . S
O108 Cd100 2.277 . S
O108 C103 1.209 . S
C109 O106 1.258 . S
C109 O111 1.282 . S
O110 Cd102 2.277 . S
O110 C103 1.226 . S
O111 Cd102 2.356 . S
O111 C109 1.282 . S
C112 O113 1.306 . S
C112 O115 1.160 . S
O113 C112 1.306 . S
O113 Cd114 2.228 . S
Cd114 O113 2.228 . S
Cd114 O118 2.273 . S
Cd114 O122 2.277 . S
O115 C112 1.160 . S
O115 Cd116 2.203 . S
Cd116 O115 2.203 . S
Cd116 O118 2.411 . S
Cd116 O119 2.333 . S
Cd116 O120 2.352 . S
Cd116 O124 2.277 . S
Cd116 O125 2.356 . S
C117 O122 1.209 . S
C117 O124 1.226 . S
O118 Cd114 2.273 . S
O118 Cd116 2.411 . S
O118 C121 1.320 . S
O119 Cd116 2.333 . S
O119 C121 1.214 . S
O120 Cd116 2.352 . S
O120 C123 1.258 . S
C121 O118 1.320 . S
C121 O119 1.214 . S
O122 Cd114 2.277 . S
O122 C117 1.209 . S
C123 O120 1.258 . S
C123 O125 1.282 . S
O124 Cd116 2.277 . S
O124 C117 1.226 . S
O125 Cd116 2.356 . S
O125 C123 1.282 . S
C126 O127 1.306 . S
C126 O129 1.160 . S
O127 C126 1.306 . S
O127 Cd128 2.228 . S
Cd128 O127 2.228 . S
Cd128 O132 2.273 . S
Cd128 O136 2.277 . S
O129 C126 1.160 . S
O129 Cd130 2.203 . S
Cd130 O129 2.203 . S
Cd130 O132 2.411 . S
Cd130 O133 2.333 . S
Cd130 O134 2.352 . S
Cd130 O138 2.277 . S
Cd130 O139 2.356 . S
C131 O136 1.209 . S
C131 O138 1.226 . S
O132 Cd128 2.273 . S
O132 Cd130 2.411 . S
O132 C135 1.320 . S
O133 Cd130 2.333 . S
O133 C135 1.214 . S
O134 Cd130 2.352 . S
O134 C137 1.258 1_565 S
C135 O132 1.320 . S
C135 O133 1.214 . S
O136 Cd128 2.277 . S
O136 C131 1.209 . S
C137 O134 1.258 1_545 S
C137 O139 1.259 1_545 S
O138 Cd130 2.277 . S
O138 C131 1.226 . S
O139 Cd130 2.356 . S
O139 C137 1.259 1_565 S
C140 O141 1.306 . S
C140 O143 1.160 . S
O141 C140 1.306 . S
O141 Cd142 2.228 . S
Cd142 O141 2.228 . S
Cd142 O146 2.273 . S
Cd142 O150 2.277 . S
O143 C140 1.160 . S
O143 Cd144 2.203 . S
Cd144 O143 2.203 . S
Cd144 O146 2.411 . S
Cd144 O147 2.333 . S
Cd144 O148 2.352 . S
Cd144 O152 2.277 . S
Cd144 O153 2.356 . S
C145 O150 1.209 . S
C145 O152 1.226 . S
O146 Cd142 2.273 . S
O146 Cd144 2.411 . S
O146 C149 1.320 . S
O147 Cd144 2.333 . S
O147 C149 1.214 . S
O148 Cd144 2.352 . S
O148 C151 1.258 . S
C149 O146 1.320 . S
C149 O147 1.214 . S
O150 Cd142 2.277 . S
O150 C145 1.209 . S
C151 O148 1.258 . S
C151 O153 1.282 . S
O152 Cd144 2.277 . S
O152 C145 1.226 . S
O153 Cd144 2.356 . S
O153 C151 1.282 . S
C154 O155 1.306 . S
C154 O157 1.160 . S
O155 C154 1.306 . S
O155 Cd156 2.228 . S
Cd156 O155 2.228 . S
Cd156 O160 2.273 . S
Cd156 O164 2.277 . S
O157 C154 1.160 . S
O157 Cd158 2.203 . S
Cd158 O157 2.203 . S
Cd158 O160 2.411 . S
Cd158 O161 2.333 . S
Cd158 O162 2.352 . S
Cd158 O166 2.277 . S
Cd158 O167 2.356 . S
C159 O164 1.209 . S
C159 O166 1.226 . S
O160 Cd156 2.273 . S
O160 Cd158 2.411 . S
O160 C163 1.320 . S
O161 Cd158 2.333 . S
O161 C163 1.214 . S
O162 Cd158 2.352 . S
O162 C165 1.258 . S
C163 O160 1.320 . S
C163 O161 1.214 . S
O164 Cd156 2.277 . S
O164 C159 1.209 . S
C165 O162 1.258 . S
C165 O167 1.282 . S
O166 Cd158 2.277 . S
O166 C159 1.226 . S
O167 Cd158 2.356 . S
O167 C165 1.282 . S
C168 O169 1.306 . S
C168 O171 1.160 . S
O169 C168 1.306 . S
O169 Cd170 2.228 . S
Cd170 O169 2.228 . S
Cd170 O174 2.273 . S
Cd170 O178 2.277 . S
O171 C168 1.160 . S
O171 Cd172 2.203 . S
Cd172 O171 2.203 . S
Cd172 O174 2.411 . S
Cd172 O175 2.333 . S
Cd172 O176 2.352 . S
Cd172 O180 2.277 . S
Cd172 O181 2.356 . S
C173 O178 1.209 . S
C173 O180 1.226 . S
O174 Cd170 2.273 . S
O174 Cd172 2.411 . S
O174 C177 1.320 . S
O175 Cd172 2.333 . S
O175 C177 1.214 . S
O176 Cd172 2.352 . S
O176 C179 1.258 . S
C177 O174 1.320 . S
C177 O175 1.214 . S
O178 Cd170 2.277 . S
O178 C173 1.209 . S
C179 O176 1.258 . S
C179 O181 1.282 . S
O180 Cd172 2.277 . S
O180 C173 1.226 . S
O181 Cd172 2.356 . S
O181 C179 1.282 . S
C182 O183 1.306 . S
C182 O185 1.160 . S
O183 C182 1.306 . S
O183 Cd184 2.228 . S
Cd184 O183 2.228 . S
Cd184 O188 2.273 . S
Cd184 O192 2.277 . S
O185 C182 1.160 . S
O185 Cd186 2.203 . S
Cd186 O185 2.203 . S
Cd186 O188 2.411 . S
Cd186 O189 2.333 . S
Cd186 O190 2.352 . S
Cd186 O194 2.277 . S
Cd186 O195 2.356 . S
C187 O192 1.209 . S
C187 O194 1.226 . S
O188 Cd184 2.273 . S
O188 Cd186 2.411 . S
O188 C191 1.320 . S
O189 Cd186 2.333 . S
O189 C191 1.214 . S
O190 Cd186 2.352 . S
O190 C193 1.258 1_655 S
C191 O188 1.320 . S
C191 O189 1.214 . S
O192 Cd184 2.277 . S
O192 C187 1.209 . S
C193 O190 1.258 1_455 S
C193 O195 1.282 1_455 S
O194 Cd186 2.277 . S
O194 C187 1.226 . S
O195 Cd186 2.356 . S
O195 C193 1.282 1_655 S
C196 O197 1.306 . S
C196 O199 1.160 . S
O197 C196 1.306 . S
O197 Cd198 2.228 . S
Cd198 O197 2.228 . S
Cd198 O202 2.273 . S
Cd198 O206 2.277 . S
O199 C196 1.160 . S
O199 Cd200 2.203 . S
Cd200 O199 2.203 . S
Cd200 O202 2.411 . S
Cd200 O203 2.333 . S
Cd200 O204 2.352 . S
Cd200 O208 2.277 . S
Cd200 O209 2.356 . S
C201 O206 1.209 . S
C201 O208 1.226 . S
O202 Cd198 2.273 . S
O202 Cd200 2.411 . S
O202 C205 1.320 . S
O203 Cd200 2.333 . S
O203 C205 1.214 . S
O204 Cd200 2.352 . S
O204 C207 1.258 . S
C205 O202 1.320 . S
C205 O203 1.214 . S
O206 Cd198 2.277 . S
O206 C201 1.209 . S
C207 O204 1.258 . S
C207 O209 1.282 . S
O208 Cd200 2.277 . S
O208 C201 1.226 . S
O209 Cd200 2.356 . S
O209 C207 1.282 . S
C210 O211 1.306 . S
C210 O213 1.160 . S
O211 C210 1.306 . S
O211 Cd212 2.228 . S
Cd212 O211 2.228 . S
Cd212 O216 2.273 . S
Cd212 O220 2.277 . S
O213 C210 1.160 . S
O213 Cd214 2.203 . S
Cd214 O213 2.203 . S
Cd214 O216 2.411 . S
Cd214 O217 2.333 . S
Cd214 O218 2.352 . S
Cd214 O222 2.277 . S
Cd214 O223 2.356 . S
C215 O220 1.209 . S
C215 O222 1.226 . S
O216 Cd212 2.273 . S
O216 Cd214 2.411 . S
O216 C219 1.320 . S
O217 Cd214 2.333 . S
O217 C219 1.214 . S
O218 Cd214 2.352 . S
O218 C221 1.258 . S
C219 O216 1.320 . S
C219 O217 1.214 . S
O220 Cd212 2.277 . S
O220 C215 1.209 . S
C221 O218 1.258 . S
C221 O223 1.282 . S
O222 Cd214 2.277 . S
O222 C215 1.226 . S
O223 Cd214 2.356 . S
O223 C221 1.282 . S
C224 O225 1.306 . S
C224 O227 1.160 . S
O225 C224 1.306 . S
O225 Cd226 2.228 . S
Cd226 O225 2.228 . S
Cd226 O230 2.273 . S
Cd226 O234 2.277 . S
O227 C224 1.160 . S
O227 Cd228 2.203 . S
Cd228 O227 2.203 . S
Cd228 O230 2.411 . S
Cd228 O231 2.333 . S
Cd228 O232 2.352 . S
Cd228 O236 2.277 . S
Cd228 O237 2.356 . S
C229 O234 1.209 . S
C229 O236 1.226 . S
O230 Cd226 2.273 . S
O230 Cd228 2.411 . S
O230 C233 1.320 . S
O231 Cd228 2.333 . S
O231 C233 1.214 . S
O232 Cd228 2.352 . S
O232 C235 1.258 . S
C233 O230 1.320 . S
C233 O231 1.214 . S
O234 Cd226 2.277 . S
O234 C229 1.209 . S
C235 O232 1.258 . S
C235 O237 1.282 . S
O236 Cd228 2.277 . S
O236 C229 1.226 . S
O237 Cd228 2.356 . S
O237 C235 1.282 . S
C238 O239 1.306 . S
C238 O241 1.160 . S
O239 C238 1.306 . S
O239 Cd240 2.228 . S
Cd240 O239 2.228 . S
Cd240 O244 2.273 . S
Cd240 O248 2.277 . S
O241 C238 1.160 . S
O241 Cd242 2.203 . S
Cd242 O241 2.203 . S
Cd242 O244 2.411 . S
Cd242 O245 2.333 . S
Cd242 O246 2.352 . S
Cd242 O250 2.277 . S
Cd242 O251 2.356 . S
C243 O248 1.209 . S
C243 O250 1.226 . S
O244 Cd240 2.273 . S
O244 Cd242 2.411 . S
O244 C247 1.320 . S
O245 Cd242 2.333 . S
O245 C247 1.214 . S
O246 Cd242 2.352 . S
O246 C249 1.258 . S
C247 O244 1.320 . S
C247 O245 1.214 . S
O248 Cd240 2.277 . S
O248 C243 1.209 . S
C249 O246 1.258 . S
C249 O251 1.282 . S
O250 Cd242 2.277 . S
O250 C243 1.226 . S
O251 Cd242 2.356 . S
O251 C249 1.282 . S
H252 C279 0.929 . S
N253 C278 1.433 . S
N253 C284 1.435 . S
N253 C290 1.423 . S
H254 C280 0.930 . S
H255 C283 0.931 . S
H256 C282 0.929 . S
H257 C285 0.930 . S
H258 C286 0.932 . S
H259 C289 0.929 . S
H260 C288 0.931 . S
H261 C291 0.929 . S
H262 C295 0.932 . S
H263 C292 0.931 . S
H264 C294 0.929 . S
H265 C297 0.929 . S
H266 C298 0.930 . S
H267 C300 0.929 . S
H268 C301 0.931 . S
H269 C303 0.930 . S
H270 C304 0.932 . S
H271 C306 0.931 . S
H272 C307 0.929 . S
H273 C309 0.929 . S
H274 C310 0.931 . S
H275 C312 0.929 . S
N276 C296 1.433 . S
N276 C302 1.435 . S
N276 C308 1.423 . S
H277 C313 0.932 . S
C278 N253 1.433 . S
C278 C279 1.363 . S
C278 C283 1.370 . S
C279 H252 0.929 . S
C279 C278 1.363 . S
C279 C280 1.385 . S
C280 H254 0.930 . S
C280 C279 1.385 . S
C280 C281 1.357 . S
C281 C280 1.357 . S
C281 C282 1.406 . S
C282 H256 0.929 . S
C282 C281 1.406 . S
C282 C283 1.391 . S
C283 H255 0.931 . S
C283 C278 1.370 . S
C283 C282 1.391 . S
C284 N253 1.435 . S
C284 C285 1.358 . S
C284 C289 1.371 . S
C285 H257 0.930 . S
C285 C284 1.358 . S
C285 C286 1.405 . S
C286 H258 0.932 . S
C286 C285 1.405 . S
C286 C287 1.383 . S
C287 C286 1.383 . S
C287 C288 1.393 . S
C288 H260 0.931 . S
C288 C287 1.393 . S
C288 C289 1.382 . S
C289 H259 0.929 . S
C289 C284 1.371 . S
C289 C288 1.382 . S
C290 N253 1.423 . S
C290 C291 1.362 . S
C290 C295 1.388 . S
C291 H261 0.929 . S
C291 C290 1.362 . S
C291 C292 1.376 . S
C292 H263 0.931 . S
C292 C291 1.376 . S
C292 C293 1.396 . S
C293 C292 1.396 . S
C293 C294 1.348 . S
C293 C311 1.472 . S
C294 H264 0.929 . S
C294 C293 1.348 . S
C294 C295 1.443 . S
C295 H262 0.932 . S
C295 C290 1.388 . S
C295 C294 1.443 . S
C296 N276 1.433 . S
C296 C297 1.363 . S
C296 C301 1.370 . S
C297 H265 0.929 . S
C297 C296 1.363 . S
C297 C298 1.385 . S
C298 H266 0.930 . S
C298 C297 1.385 . S
C298 C299 1.357 . S
C299 C298 1.357 . S
C299 C300 1.406 . S
C300 H267 0.929 . S
C300 C299 1.406 . S
C300 C301 1.391 . S
C301 H268 0.931 . S
C301 C296 1.370 . S
C301 C300 1.391 . S
C302 N276 1.435 . S
C302 C303 1.358 . S
C302 C307 1.371 . S
C303 H269 0.930 . S
C303 C302 1.358 . S
C303 C304 1.405 . S
C304 H270 0.932 . S
C304 C303 1.405 . S
C304 C305 1.383 . S
C305 C304 1.383 . S
C305 C306 1.393 . S
C306 H271 0.931 . S
C306 C305 1.393 . S
C306 C307 1.382 . S
C307 H272 0.929 . S
C307 C302 1.371 . S
C307 C306 1.382 . S
C308 N276 1.423 . S
C308 C309 1.362 . S
C308 C313 1.388 . S
C309 H273 0.929 . S
C309 C308 1.362 . S
C309 C310 1.376 . S
C310 H274 0.931 . S
C310 C309 1.376 . S
C310 C311 1.396 . S
C311 C293 1.472 . S
C311 C310 1.396 . S
C311 C312 1.348 . S
C312 H275 0.929 . S
C312 C311 1.348 . S
C312 C313 1.443 . S
C313 H277 0.932 . S
C313 C308 1.388 . S
C313 C312 1.443 . S
H314 C341 0.929 . S
N315 C340 1.433 . S
N315 C346 1.435 . S
N315 C352 1.423 . S
H316 C342 0.930 . S
H317 C345 0.931 . S
H318 C344 0.929 . S
H319 C347 0.930 . S
H320 C348 0.932 . S
H321 C351 0.929 . S
H322 C350 0.931 . S
H323 C353 0.929 . S
H324 C357 0.932 . S
H325 C354 0.931 . S
H326 C356 0.929 . S
H327 C359 0.929 . S
H328 C360 0.930 . S
H329 C362 0.929 . S
H330 C363 0.931 . S
H331 C365 0.930 . S
H332 C366 0.932 . S
H333 C368 0.931 . S
H334 C369 0.929 . S
H335 C371 0.929 . S
H336 C372 0.931 . S
H337 C374 0.929 . S
N338 C358 1.433 . S
N338 C364 1.435 . S
N338 C370 1.423 . S
H339 C375 0.932 . S
C340 N315 1.433 . S
C340 C341 1.363 . S
C340 C345 1.370 . S
C341 H314 0.929 . S
C341 C340 1.363 . S
C341 C342 1.385 . S
C342 H316 0.930 . S
C342 C341 1.385 . S
C342 C343 1.357 . S
C343 C342 1.357 . S
C343 C344 1.406 . S
C344 H318 0.929 . S
C344 C343 1.406 . S
C344 C345 1.391 . S
C345 H317 0.931 . S
C345 C340 1.370 . S
C345 C344 1.391 . S
C346 N315 1.435 . S
C346 C347 1.358 . S
C346 C351 1.371 . S
C347 H319 0.930 . S
C347 C346 1.358 . S
C347 C348 1.405 . S
C348 H320 0.932 . S
C348 C347 1.405 . S
C348 C349 1.383 . S
C349 C348 1.383 . S
C349 C350 1.393 . S
C350 H322 0.931 . S
C350 C349 1.393 . S
C350 C351 1.382 . S
C351 H321 0.929 . S
C351 C346 1.371 . S
C351 C350 1.382 . S
C352 N315 1.423 . S
C352 C353 1.362 . S
C352 C357 1.388 . S
C353 H323 0.929 . S
C353 C352 1.362 . S
C353 C354 1.376 . S
C354 H325 0.931 . S
C354 C353 1.376 . S
C354 C355 1.396 . S
C355 C354 1.396 . S
C355 C356 1.348 . S
C355 C373 1.472 . S
C356 H326 0.929 . S
C356 C355 1.348 . S
C356 C357 1.443 . S
C357 H324 0.932 . S
C357 C352 1.388 . S
C357 C356 1.443 . S
C358 N338 1.433 . S
C358 C359 1.363 . S
C358 C363 1.370 . S
C359 H327 0.929 . S
C359 C358 1.363 . S
C359 C360 1.385 . S
C360 H328 0.930 . S
C360 C359 1.385 . S
C360 C361 1.357 . S
C361 C360 1.357 . S
C361 C362 1.406 . S
C362 H329 0.929 . S
C362 C361 1.406 . S
C362 C363 1.391 . S
C363 H330 0.931 . S
C363 C358 1.370 . S
C363 C362 1.391 . S
C364 N338 1.435 . S
C364 C365 1.358 . S
C364 C369 1.371 . S
C365 H331 0.930 . S
C365 C364 1.358 . S
C365 C366 1.405 . S
C366 H332 0.932 . S
C366 C365 1.405 . S
C366 C367 1.383 . S
C367 C366 1.383 . S
C367 C368 1.393 . S
C368 H333 0.931 . S
C368 C367 1.393 . S
C368 C369 1.382 . S
C369 H334 0.929 . S
C369 C364 1.371 . S
C369 C368 1.382 . S
C370 N338 1.423 . S
C370 C371 1.362 . S
C370 C375 1.388 . S
C371 H335 0.929 . S
C371 C370 1.362 . S
C371 C372 1.376 . S
C372 H336 0.931 . S
C372 C371 1.376 . S
C372 C373 1.396 . S
C373 C355 1.472 . S
C373 C372 1.396 . S
C373 C374 1.348 . S
C374 H337 0.929 . S
C374 C373 1.348 . S
C374 C375 1.443 . S
C375 H339 0.932 . S
C375 C370 1.388 . S
C375 C374 1.443 . S
H376 C403 0.929 . S
N377 C402 1.433 . S
N377 C408 1.435 . S
N377 C414 1.423 . S
H378 C404 0.930 . S
H379 C407 0.931 . S
H380 C406 0.929 . S
H381 C409 0.930 . S
H382 C410 0.932 . S
H383 C413 0.929 . S
H384 C412 0.931 . S
H385 C415 0.929 . S
H386 C419 0.932 . S
H387 C416 0.931 . S
H388 C418 0.929 . S
H389 C421 0.929 . S
H390 C422 0.930 . S
H391 C424 0.929 . S
H392 C425 0.931 . S
H393 C427 0.930 . S
H394 C428 0.932 . S
H395 C430 0.931 . S
H396 C431 0.929 . S
H397 C433 0.929 . S
H398 C434 0.931 . S
H399 C436 0.929 . S
N400 C420 1.433 . S
N400 C426 1.435 . S
N400 C432 1.423 . S
H401 C437 0.932 . S
C402 N377 1.433 . S
C402 C403 1.363 . S
C402 C407 1.370 . S
C403 H376 0.929 . S
C403 C402 1.363 . S
C403 C404 1.385 . S
C404 H378 0.930 . S
C404 C403 1.385 . S
C404 C405 1.357 . S
C405 C404 1.357 . S
C405 C406 1.406 . S
C406 H380 0.929 . S
C406 C405 1.406 . S
C406 C407 1.391 . S
C407 H379 0.931 . S
C407 C402 1.370 . S
C407 C406 1.391 . S
C408 N377 1.435 . S
C408 C409 1.358 . S
C408 C413 1.371 . S
C409 H381 0.930 . S
C409 C408 1.358 . S
C409 C410 1.405 . S
C410 H382 0.932 . S
C410 C409 1.405 . S
C410 C411 1.383 . S
C411 C410 1.383 . S
C411 C412 1.393 . S
C412 H384 0.931 . S
C412 C411 1.393 . S
C412 C413 1.382 . S
C413 H383 0.929 . S
C413 C408 1.371 . S
C413 C412 1.382 . S
C414 N377 1.423 . S
C414 C415 1.362 . S
C414 C419 1.388 . S
C415 H385 0.929 . S
C415 C414 1.362 . S
C415 C416 1.376 . S
C416 H387 0.931 . S
C416 C415 1.376 . S
C416 C417 1.396 . S
C417 C416 1.396 . S
C417 C418 1.348 . S
C417 C435 1.472 . S
C418 H388 0.929 . S
C418 C417 1.348 . S
C418 C419 1.443 . S
C419 H386 0.932 . S
C419 C414 1.388 . S
C419 C418 1.443 . S
C420 N400 1.433 . S
C420 C421 1.363 . S
C420 C425 1.370 . S
C421 H389 0.929 . S
C421 C420 1.363 . S
C421 C422 1.385 . S
C422 H390 0.930 . S
C422 C421 1.385 . S
C422 C423 1.357 . S
C423 C422 1.357 . S
C423 C424 1.406 . S
C424 H391 0.929 . S
C424 C423 1.406 . S
C424 C425 1.391 . S
C425 H392 0.931 . S
C425 C420 1.370 . S
C425 C424 1.391 . S
C426 N400 1.435 . S
C426 C427 1.358 . S
C426 C431 1.371 . S
C427 H393 0.930 . S
C427 C426 1.358 . S
C427 C428 1.405 . S
C428 H394 0.932 . S
C428 C427 1.405 . S
C428 C429 1.383 . S
C429 C428 1.383 . S
C429 C430 1.393 . S
C430 H395 0.931 . S
C430 C429 1.393 . S
C430 C431 1.382 . S
C431 H396 0.929 . S
C431 C426 1.371 . S
C431 C430 1.382 . S
C432 N400 1.423 . S
C432 C433 1.362 . S
C432 C437 1.388 . S
C433 H397 0.929 . S
C433 C432 1.362 . S
C433 C434 1.376 . S
C434 H398 0.931 . S
C434 C433 1.376 . S
C434 C435 1.396 . S
C435 C417 1.472 . S
C435 C434 1.396 . S
C435 C436 1.348 . S
C436 H399 0.929 . S
C436 C435 1.348 . S
C436 C437 1.443 . S
C437 H401 0.932 . S
C437 C432 1.388 . S
C437 C436 1.443 . S
H438 C465 0.929 . S
N439 C464 1.433 . S
N439 C470 1.435 . S
N439 C476 1.423 . S
H440 C466 0.930 . S
H441 C469 0.931 . S
H442 C468 0.929 . S
H443 C471 0.930 . S
H444 C472 0.932 . S
H445 C475 0.929 . S
H446 C474 0.931 . S
H447 C477 0.929 . S
H448 C481 0.932 . S
H449 C478 0.931 . S
H450 C480 0.929 . S
H451 C483 0.929 . S
H452 C484 0.930 . S
H453 C486 0.929 . S
H454 C487 0.931 . S
H455 C489 0.930 . S
H456 C490 0.932 . S
H457 C492 0.931 . S
H458 C493 0.929 . S
H459 C495 0.929 . S
H460 C496 0.931 . S
H461 C498 0.929 . S
N462 C482 1.433 . S
N462 C488 1.435 . S
N462 C494 1.423 . S
H463 C499 0.932 . S
C464 N439 1.433 . S
C464 C465 1.363 . S
C464 C469 1.370 . S
C465 H438 0.929 . S
C465 C464 1.363 . S
C465 C466 1.385 . S
C466 H440 0.930 . S
C466 C465 1.385 . S
C466 C467 1.357 . S
C467 C466 1.357 . S
C467 C468 1.406 . S
C468 H442 0.929 . S
C468 C467 1.406 . S
C468 C469 1.391 . S
C469 H441 0.931 . S
C469 C464 1.370 . S
C469 C468 1.391 . S
C470 N439 1.435 . S
C470 C471 1.358 . S
C470 C475 1.371 . S
C471 H443 0.930 . S
C471 C470 1.358 . S
C471 C472 1.405 . S
C472 H444 0.932 . S
C472 C471 1.405 . S
C472 C473 1.383 . S
C473 C472 1.383 . S
C473 C474 1.393 . S
C474 H446 0.931 . S
C474 C473 1.393 . S
C474 C475 1.382 . S
C475 H445 0.929 . S
C475 C470 1.371 . S
C475 C474 1.382 . S
C476 N439 1.423 . S
C476 C477 1.362 . S
C476 C481 1.388 . S
C477 H447 0.929 . S
C477 C476 1.362 . S
C477 C478 1.376 . S
C478 H449 0.931 . S
C478 C477 1.376 . S
C478 C479 1.396 . S
C479 C478 1.396 . S
C479 C480 1.348 . S
C479 C497 1.472 . S
C480 H450 0.929 . S
C480 C479 1.348 . S
C480 C481 1.443 . S
C481 H448 0.932 . S
C481 C476 1.388 . S
C481 C480 1.443 . S
C482 N462 1.433 . S
C482 C483 1.363 . S
C482 C487 1.370 . S
C483 H451 0.929 . S
C483 C482 1.363 . S
C483 C484 1.385 . S
C484 H452 0.930 . S
C484 C483 1.385 . S
C484 C485 1.357 . S
C485 C484 1.357 . S
C485 C486 1.406 . S
C486 H453 0.929 . S
C486 C485 1.406 . S
C486 C487 1.391 . S
C487 H454 0.931 . S
C487 C482 1.370 . S
C487 C486 1.391 . S
C488 N462 1.435 . S
C488 C489 1.358 . S
C488 C493 1.371 . S
C489 H455 0.930 . S
C489 C488 1.358 . S
C489 C490 1.405 . S
C490 H456 0.932 . S
C490 C489 1.405 . S
C490 C491 1.383 . S
C491 C490 1.383 . S
C491 C492 1.393 . S
C492 H457 0.931 . S
C492 C491 1.393 . S
C492 C493 1.382 . S
C493 H458 0.929 . S
C493 C488 1.371 . S
C493 C492 1.382 . S
C494 N462 1.423 . S
C494 C495 1.362 . S
C494 C499 1.388 . S
C495 H459 0.929 . S
C495 C494 1.362 . S
C495 C496 1.376 . S
C496 H460 0.931 . S
C496 C495 1.376 . S
C496 C497 1.396 . S
C497 C479 1.472 . S
C497 C496 1.396 . S
C497 C498 1.348 . S
C498 H461 0.929 . S
C498 C497 1.348 . S
C498 C499 1.443 . S
C499 H463 0.932 . S
C499 C494 1.388 . S
C499 C498 1.443 . S
H500 C527 0.929 . S
N501 C526 1.433 . S
N501 C532 1.435 . S
N501 C538 1.423 . S
H502 C528 0.930 . S
H503 C531 0.931 . S
H504 C530 0.929 . S
H505 C533 0.930 . S
H506 C534 0.932 . S
H507 C537 0.929 . S
H508 C536 0.931 . S
H509 C539 0.929 . S
H510 C543 0.932 . S
H511 C540 0.931 . S
H512 C542 0.929 . S
H513 C545 0.929 . S
H514 C546 0.930 . S
H515 C548 0.929 . S
H516 C549 0.931 . S
H517 C551 0.930 . S
H518 C552 0.932 . S
H519 C554 0.931 . S
H520 C555 0.929 . S
H521 C557 0.929 . S
H522 C558 0.931 . S
H523 C560 0.929 . S
N524 C544 1.433 . S
N524 C550 1.435 . S
N524 C556 1.423 . S
H525 C561 0.932 . S
C526 N501 1.433 . S
C526 C527 1.363 . S
C526 C531 1.370 . S
C527 H500 0.929 . S
C527 C526 1.363 . S
C527 C528 1.385 . S
C528 H502 0.930 . S
C528 C527 1.385 . S
C528 C529 1.357 . S
C529 C528 1.357 . S
C529 C530 1.406 . S
C530 H504 0.929 . S
C530 C529 1.406 . S
C530 C531 1.391 . S
C531 H503 0.931 . S
C531 C526 1.370 . S
C531 C530 1.391 . S
C532 N501 1.435 . S
C532 C533 1.358 . S
C532 C537 1.371 . S
C533 H505 0.930 . S
C533 C532 1.358 . S
C533 C534 1.405 . S
C534 H506 0.932 . S
C534 C533 1.405 . S
C534 C535 1.383 . S
C535 C534 1.383 . S
C535 C536 1.393 . S
C536 H508 0.931 . S
C536 C535 1.393 . S
C536 C537 1.382 . S
C537 H507 0.929 . S
C537 C532 1.371 . S
C537 C536 1.382 . S
C538 N501 1.423 . S
C538 C539 1.362 . S
C538 C543 1.388 . S
C539 H509 0.929 . S
C539 C538 1.362 . S
C539 C540 1.376 . S
C540 H511 0.931 . S
C540 C539 1.376 . S
C540 C541 1.396 . S
C541 C540 1.396 . S
C541 C542 1.348 . S
C541 C559 1.472 . S
C542 H512 0.929 . S
C542 C541 1.348 . S
C542 C543 1.443 . S
C543 H510 0.932 . S
C543 C538 1.388 . S
C543 C542 1.443 . S
C544 N524 1.433 . S
C544 C545 1.363 . S
C544 C549 1.370 . S
C545 H513 0.929 . S
C545 C544 1.363 . S
C545 C546 1.385 . S
C546 H514 0.930 . S
C546 C545 1.385 . S
C546 C547 1.357 . S
C547 C546 1.357 . S
C547 C548 1.406 . S
C548 H515 0.929 . S
C548 C547 1.406 . S
C548 C549 1.391 . S
C549 H516 0.931 . S
C549 C544 1.370 . S
C549 C548 1.391 . S
C550 N524 1.435 . S
C550 C551 1.358 . S
C550 C555 1.371 . S
C551 H517 0.930 . S
C551 C550 1.358 . S
C551 C552 1.405 . S
C552 H518 0.932 . S
C552 C551 1.405 . S
C552 C553 1.383 . S
C553 C552 1.383 . S
C553 C554 1.393 . S
C554 H519 0.931 . S
C554 C553 1.393 . S
C554 C555 1.382 . S
C555 H520 0.929 . S
C555 C550 1.371 . S
C555 C554 1.382 . S
C556 N524 1.423 . S
C556 C557 1.362 . S
C556 C561 1.388 . S
C557 H521 0.929 . S
C557 C556 1.362 . S
C557 C558 1.376 . S
C558 H522 0.931 . S
C558 C557 1.376 . S
C558 C559 1.396 . S
C559 C541 1.472 . S
C559 C558 1.396 . S
C559 C560 1.348 . S
C560 H523 0.929 . S
C560 C559 1.348 . S
C560 C561 1.443 . S
C561 H525 0.932 . S
C561 C556 1.388 . S
C561 C560 1.443 . S
H562 C589 0.929 . S
N563 C588 1.433 . S
N563 C594 1.435 . S
N563 C600 1.423 . S
H564 C590 0.930 . S
H565 C593 0.931 . S
H566 C592 0.929 . S
H567 C595 0.930 . S
H568 C596 0.932 . S
H569 C599 0.929 . S
H570 C598 0.931 . S
H571 C601 0.929 . S
H572 C605 0.932 . S
H573 C602 0.931 . S
H574 C604 0.929 . S
H575 C607 0.929 . S
H576 C608 0.930 . S
H577 C610 0.929 . S
H578 C611 0.931 . S
H579 C613 0.930 . S
H580 C614 0.932 . S
H581 C616 0.931 . S
H582 C617 0.929 . S
H583 C619 0.929 . S
H584 C620 0.931 . S
H585 C622 0.929 . S
N586 C606 1.433 . S
N586 C612 1.435 . S
N586 C618 1.423 . S
H587 C623 0.932 . S
C588 N563 1.433 . S
C588 C589 1.363 . S
C588 C593 1.370 . S
C589 H562 0.929 . S
C589 C588 1.363 . S
C589 C590 1.385 . S
C590 H564 0.930 . S
C590 C589 1.385 . S
C590 C591 1.357 . S
C591 C590 1.357 . S
C591 C592 1.406 . S
C592 H566 0.929 . S
C592 C591 1.406 . S
C592 C593 1.391 . S
C593 H565 0.931 . S
C593 C588 1.370 . S
C593 C592 1.391 . S
C594 N563 1.435 . S
C594 C595 1.358 . S
C594 C599 1.371 . S
C595 H567 0.930 . S
C595 C594 1.358 . S
C595 C596 1.405 . S
C596 H568 0.932 . S
C596 C595 1.405 . S
C596 C597 1.383 . S
C597 C596 1.383 . S
C597 C598 1.393 . S
C598 H570 0.931 . S
C598 C597 1.393 . S
C598 C599 1.382 . S
C599 H569 0.929 . S
C599 C594 1.371 . S
C599 C598 1.382 . S
C600 N563 1.423 . S
C600 C601 1.362 . S
C600 C605 1.388 . S
C601 H571 0.929 . S
C601 C600 1.362 . S
C601 C602 1.376 . S
C602 H573 0.931 . S
C602 C601 1.376 . S
C602 C603 1.396 . S
C603 C602 1.396 . S
C603 C604 1.348 . S
C603 C621 1.472 . S
C604 H574 0.929 . S
C604 C603 1.348 . S
C604 C605 1.443 . S
C605 H572 0.932 . S
C605 C600 1.388 . S
C605 C604 1.443 . S
C606 N586 1.433 . S
C606 C607 1.363 . S
C606 C611 1.370 . S
C607 H575 0.929 . S
C607 C606 1.363 . S
C607 C608 1.385 . S
C608 H576 0.930 . S
C608 C607 1.385 . S
C608 C609 1.357 . S
C609 C608 1.357 . S
C609 C610 1.406 . S
C610 H577 0.929 . S
C610 C609 1.406 . S
C610 C611 1.391 . S
C611 H578 0.931 . S
C611 C606 1.370 . S
C611 C610 1.391 . S
C612 N586 1.435 . S
C612 C613 1.358 . S
C612 C617 1.371 . S
C613 H579 0.930 . S
C613 C612 1.358 . S
C613 C614 1.405 . S
C614 H580 0.932 . S
C614 C613 1.405 . S
C614 C615 1.383 . S
C615 C614 1.383 . S
C615 C616 1.393 . S
C616 H581 0.931 . S
C616 C615 1.393 . S
C616 C617 1.382 . S
C617 H582 0.929 . S
C617 C612 1.371 . S
C617 C616 1.382 . S
C618 N586 1.423 . S
C618 C619 1.362 . S
C618 C623 1.388 . S
C619 H583 0.929 . S
C619 C618 1.362 . S
C619 C620 1.376 . S
C620 H584 0.931 . S
C620 C619 1.376 . S
C620 C621 1.396 . S
C621 C603 1.472 . S
C621 C620 1.396 . S
C621 C622 1.348 . S
C622 H585 0.929 . S
C622 C621 1.348 . S
C622 C623 1.443 . S
C623 H587 0.932 . S
C623 C618 1.388 . S
C623 C622 1.443 . S
H624 C651 0.929 . S
N625 C650 1.433 . S
N625 C656 1.435 . S
N625 C662 1.423 . S
H626 C652 0.930 . S
H627 C655 0.931 . S
H628 C654 0.929 . S
H629 C657 0.930 . S
H630 C658 0.932 . S
H631 C661 0.929 . S
H632 C660 0.931 . S
H633 C663 0.929 . S
H634 C667 0.932 . S
H635 C664 0.931 . S
H636 C666 0.929 . S
H637 C669 0.929 . S
H638 C670 0.930 . S
H639 C672 0.929 . S
H640 C673 0.931 . S
H641 C675 0.930 . S
H642 C676 0.932 . S
H643 C678 0.931 . S
H644 C679 0.929 . S
H645 C681 0.929 . S
H646 C682 0.931 . S
H647 C684 0.929 . S
N648 C668 1.433 . S
N648 C674 1.435 . S
N648 C680 1.423 . S
H649 C685 0.932 . S
C650 N625 1.433 . S
C650 C651 1.363 . S
C650 C655 1.370 . S
C651 H624 0.929 . S
C651 C650 1.363 . S
C651 C652 1.385 . S
C652 H626 0.930 . S
C652 C651 1.385 . S
C652 C653 1.357 . S
C653 C652 1.357 . S
C653 C654 1.406 . S
C654 H628 0.929 . S
C654 C653 1.406 . S
C654 C655 1.391 . S
C655 H627 0.931 . S
C655 C650 1.370 . S
C655 C654 1.391 . S
C656 N625 1.435 . S
C656 C657 1.358 . S
C656 C661 1.371 . S
C657 H629 0.930 . S
C657 C656 1.358 . S
C657 C658 1.405 . S
C658 H630 0.932 . S
C658 C657 1.405 . S
C658 C659 1.383 . S
C659 C658 1.383 . S
C659 C660 1.393 . S
C660 H632 0.931 . S
C660 C659 1.393 . S
C660 C661 1.382 . S
C661 H631 0.929 . S
C661 C656 1.371 . S
C661 C660 1.382 . S
C662 N625 1.423 . S
C662 C663 1.362 . S
C662 C667 1.388 . S
C663 H633 0.929 . S
C663 C662 1.362 . S
C663 C664 1.376 . S
C664 H635 0.931 . S
C664 C663 1.376 . S
C664 C665 1.396 . S
C665 C664 1.396 . S
C665 C666 1.348 . S
C665 C683 1.472 . S
C666 H636 0.929 . S
C666 C665 1.348 . S
C666 C667 1.443 . S
C667 H634 0.932 . S
C667 C662 1.388 . S
C667 C666 1.443 . S
C668 N648 1.433 . S
C668 C669 1.363 . S
C668 C673 1.370 . S
C669 H637 0.929 . S
C669 C668 1.363 . S
C669 C670 1.385 . S
C670 H638 0.930 . S
C670 C669 1.385 . S
C670 C671 1.357 . S
C671 C670 1.357 . S
C671 C672 1.406 . S
C672 H639 0.929 . S
C672 C671 1.406 . S
C672 C673 1.391 . S
C673 H640 0.931 . S
C673 C668 1.370 . S
C673 C672 1.391 . S
C674 N648 1.435 . S
C674 C675 1.358 . S
C674 C679 1.371 . S
C675 H641 0.930 . S
C675 C674 1.358 . S
C675 C676 1.405 . S
C676 H642 0.932 . S
C676 C675 1.405 . S
C676 C677 1.383 . S
C677 C676 1.383 . S
C677 C678 1.393 . S
C678 H643 0.931 . S
C678 C677 1.393 . S
C678 C679 1.382 . S
C679 H644 0.929 . S
C679 C674 1.371 . S
C679 C678 1.382 . S
C680 N648 1.423 . S
C680 C681 1.362 . S
C680 C685 1.388 . S
C681 H645 0.929 . S
C681 C680 1.362 . S
C681 C682 1.376 . S
C682 H646 0.931 . S
C682 C681 1.376 . S
C682 C683 1.396 . S
C683 C665 1.472 . S
C683 C682 1.396 . S
C683 C684 1.348 . S
C684 H647 0.929 . S
C684 C683 1.348 . S
C684 C685 1.443 . S
C685 H649 0.932 . S
C685 C680 1.388 . S
C685 C684 1.443 . S
H686 C713 0.929 . S
N687 C712 1.433 . S
N687 C718 1.435 . S
N687 C724 1.423 . S
H688 C714 0.930 . S
H689 C717 0.931 . S
H690 C716 0.929 . S
H691 C719 0.930 . S
H692 C720 0.932 . S
H693 C723 0.929 . S
H694 C722 0.931 . S
H695 C725 0.929 . S
H696 C729 0.932 . S
H697 C726 0.931 . S
H698 C728 0.929 . S
H699 C731 0.929 . S
H700 C732 0.930 . S
H701 C734 0.929 . S
H702 C735 0.931 . S
H703 C737 0.930 . S
H704 C738 0.932 . S
H705 C740 0.931 . S
H706 C741 0.929 . S
H707 C743 0.929 . S
H708 C744 0.931 . S
H709 C746 0.929 . S
N710 C730 1.433 . S
N710 C736 1.435 . S
N710 C742 1.423 . S
H711 C747 0.932 . S
C712 N687 1.433 . S
C712 C713 1.363 . S
C712 C717 1.370 . S
C713 H686 0.929 . S
C713 C712 1.363 . S
C713 C714 1.385 . S
C714 H688 0.930 . S
C714 C713 1.385 . S
C714 C715 1.357 . S
C715 C714 1.357 . S
C715 C716 1.406 . S
C716 H690 0.929 . S
C716 C715 1.406 . S
C716 C717 1.391 . S
C717 H689 0.931 . S
C717 C712 1.370 . S
C717 C716 1.391 . S
C718 N687 1.435 . S
C718 C719 1.358 . S
C718 C723 1.371 . S
C719 H691 0.930 . S
C719 C718 1.358 . S
C719 C720 1.405 . S
C720 H692 0.932 . S
C720 C719 1.405 . S
C720 C721 1.383 . S
C721 C720 1.383 . S
C721 C722 1.393 . S
C722 H694 0.931 . S
C722 C721 1.393 . S
C722 C723 1.382 . S
C723 H693 0.929 . S
C723 C718 1.371 . S
C723 C722 1.382 . S
C724 N687 1.423 . S
C724 C725 1.362 . S
C724 C729 1.388 . S
C725 H695 0.929 . S
C725 C724 1.362 . S
C725 C726 1.376 . S
C726 H697 0.931 . S
C726 C725 1.376 . S
C726 C727 1.396 . S
C727 C726 1.396 . S
C727 C728 1.348 . S
C727 C745 1.472 . S
C728 H698 0.929 . S
C728 C727 1.348 . S
C728 C729 1.443 . S
C729 H696 0.932 . S
C729 C724 1.388 . S
C729 C728 1.443 . S
C730 N710 1.433 . S
C730 C731 1.363 . S
C730 C735 1.370 . S
C731 H699 0.929 . S
C731 C730 1.363 . S
C731 C732 1.385 . S
C732 H700 0.930 . S
C732 C731 1.385 . S
C732 C733 1.357 . S
C733 C732 1.357 . S
C733 C734 1.406 . S
C734 H701 0.929 . S
C734 C733 1.406 . S
C734 C735 1.391 . S
C735 H702 0.931 . S
C735 C730 1.370 . S
C735 C734 1.391 . S
C736 N710 1.435 . S
C736 C737 1.358 . S
C736 C741 1.371 . S
C737 H703 0.930 . S
C737 C736 1.358 . S
C737 C738 1.405 . S
C738 H704 0.932 . S
C738 C737 1.405 . S
C738 C739 1.383 . S
C739 C738 1.383 . S
C739 C740 1.393 . S
C740 H705 0.931 . S
C740 C739 1.393 . S
C740 C741 1.382 . S
C741 H706 0.929 . S
C741 C736 1.371 . S
C741 C740 1.382 . S
C742 N710 1.423 . S
C742 C743 1.362 . S
C742 C747 1.388 . S
C743 H707 0.929 . S
C743 C742 1.362 . S
C743 C744 1.376 . S
C744 H708 0.931 . S
C744 C743 1.376 . S
C744 C745 1.396 . S
C745 C727 1.472 . S
C745 C744 1.396 . S
C745 C746 1.348 . S
C746 H709 0.929 . S
C746 C745 1.348 . S
C746 C747 1.443 . S
C747 H711 0.932 . S
C747 C742 1.388 . S
C747 C746 1.443 . S
H748 C775 0.929 . S
N749 C774 1.433 . S
N749 C780 1.435 . S
N749 C786 1.423 . S
H750 C776 0.930 . S
H751 C779 0.931 . S
H752 C778 0.929 . S
H753 C781 0.930 . S
H754 C782 0.932 . S
H755 C785 0.929 . S
H756 C784 0.931 . S
H757 C787 0.929 . S
H758 C791 0.932 . S
H759 C788 0.931 . S
H760 C790 0.929 . S
H761 C793 0.929 . S
H762 C794 0.930 . S
H763 C796 0.929 . S
H764 C797 0.931 . S
H765 C799 0.930 . S
H766 C800 0.932 . S
H767 C802 0.931 . S
H768 C803 0.929 . S
H769 C805 0.929 . S
H770 C806 0.931 . S
H771 C808 0.929 . S
N772 C792 1.433 . S
N772 C798 1.435 . S
N772 C804 1.423 . S
H773 C809 0.932 . S
C774 N749 1.433 . S
C774 C775 1.363 . S
C774 C779 1.370 . S
C775 H748 0.929 . S
C775 C774 1.363 . S
C775 C776 1.385 . S
C776 H750 0.930 . S
C776 C775 1.385 . S
C776 C777 1.357 . S
C777 C776 1.357 . S
C777 C778 1.406 . S
C778 H752 0.929 . S
C778 C777 1.406 . S
C778 C779 1.391 . S
C779 H751 0.931 . S
C779 C774 1.370 . S
C779 C778 1.391 . S
C780 N749 1.435 . S
C780 C781 1.358 . S
C780 C785 1.371 . S
C781 H753 0.930 . S
C781 C780 1.358 . S
C781 C782 1.405 . S
C782 H754 0.932 . S
C782 C781 1.405 . S
C782 C783 1.383 . S
C783 C782 1.383 . S
C783 C784 1.393 . S
C784 H756 0.931 . S
C784 C783 1.393 . S
C784 C785 1.382 . S
C785 H755 0.929 . S
C785 C780 1.371 . S
C785 C784 1.382 . S
C786 N749 1.423 . S
C786 C787 1.362 . S
C786 C791 1.388 . S
C787 H757 0.929 . S
C787 C786 1.362 . S
C787 C788 1.376 . S
C788 H759 0.931 . S
C788 C787 1.376 . S
C788 C789 1.396 . S
C789 C788 1.396 . S
C789 C790 1.348 . S
C789 C807 1.472 . S
C790 H760 0.929 . S
C790 C789 1.348 . S
C790 C791 1.443 . S
C791 H758 0.932 . S
C791 C786 1.388 . S
C791 C790 1.443 . S
C792 N772 1.433 . S
C792 C793 1.363 . S
C792 C797 1.370 . S
C793 H761 0.929 . S
C793 C792 1.363 . S
C793 C794 1.385 . S
C794 H762 0.930 . S
C794 C793 1.385 . S
C794 C795 1.357 . S
C795 C794 1.357 . S
C795 C796 1.406 . S
C796 H763 0.929 . S
C796 C795 1.406 . S
C796 C797 1.391 . S
C797 H764 0.931 . S
C797 C792 1.370 . S
C797 C796 1.391 . S
C798 N772 1.435 . S
C798 C799 1.358 . S
C798 C803 1.371 . S
C799 H765 0.930 . S
C799 C798 1.358 . S
C799 C800 1.405 . S
C800 H766 0.932 . S
C800 C799 1.405 . S
C800 C801 1.383 . S
C801 C800 1.383 . S
C801 C802 1.393 . S
C802 H767 0.931 . S
C802 C801 1.393 . S
C802 C803 1.382 . S
C803 H768 0.929 . S
C803 C798 1.371 . S
C803 C802 1.382 . S
C804 N772 1.423 . S
C804 C805 1.362 . S
C804 C809 1.388 . S
C805 H769 0.929 . S
C805 C804 1.362 . S
C805 C806 1.376 . S
C806 H770 0.931 . S
C806 C805 1.376 . S
C806 C807 1.396 . S
C807 C789 1.472 . S
C807 C806 1.396 . S
C807 C808 1.348 . S
C808 H771 0.929 . S
C808 C807 1.348 . S
C808 C809 1.443 . S
C809 H773 0.932 . S
C809 C804 1.388 . S
C809 C808 1.443 . S
H810 C837 0.929 . S
N811 C836 1.433 . S
N811 C842 1.435 . S
N811 C848 1.423 . S
H812 C838 0.930 . S
H813 C841 0.931 . S
H814 C840 0.929 . S
H815 C843 0.930 . S
H816 C844 0.932 . S
H817 C847 0.929 . S
H818 C846 0.931 . S
H819 C849 0.929 . S
H820 C853 0.932 1_655 S
H821 C850 0.931 . S
H822 C852 0.936 . S
H823 C855 0.929 . S
H824 C856 0.930 . S
H825 C858 0.929 . S
H826 C859 0.931 . S
H827 C861 0.930 . S
H828 C862 0.932 . S
H829 C864 0.931 . S
H830 C865 0.929 . S
H831 C867 0.929 . S
H832 C868 0.931 . S
H833 C870 0.971 . S
N834 C854 1.433 . S
N834 C860 1.435 . S
N834 C866 1.423 . S
H835 C871 0.932 1_655 S
C836 N811 1.433 . S
C836 C837 1.363 . S
C836 C841 1.370 1_455 S
C837 H810 0.929 . S
C837 C836 1.363 . S
C837 C838 1.385 . S
C838 H812 0.930 . S
C838 C837 1.385 . S
C838 C839 1.357 1_455 S
C839 C838 1.357 1_655 S
C839 C840 1.406 . S
C840 H814 0.929 . S
C840 C839 1.406 . S
C840 C841 1.391 . S
C841 H813 0.931 . S
C841 C836 1.370 1_655 S
C841 C840 1.391 . S
C842 N811 1.435 . S
C842 C843 1.358 1_455 S
C842 C847 1.371 . S
C843 H815 0.930 . S
C843 C842 1.358 1_655 S
C843 C844 1.405 . S
C844 H816 0.932 . S
C844 C843 1.405 . S
C844 C845 1.383 1_655 S
C845 C844 1.383 1_455 S
C845 C846 1.393 . S
C846 H818 0.931 . S
C846 C845 1.393 . S
C846 C847 1.382 . S
C847 H817 0.929 . S
C847 C842 1.371 . S
C847 C846 1.382 . S
C848 N811 1.423 . S
C848 C849 1.362 . S
C848 C853 1.388 . S
C849 H819 0.929 . S
C849 C848 1.362 . S
C849 C850 1.376 . S
C850 H821 0.931 . S
C850 C849 1.376 . S
C850 C851 1.396 . S
C851 C850 1.396 . S
C851 C852 1.348 . S
C851 C869 1.472 . S
C852 H822 0.936 . S
C852 C851 1.348 . S
C852 C853 1.443 . S
C853 H820 0.932 1_455 S
C853 C848 1.388 . S
C853 C852 1.443 . S
C854 N834 1.433 . S
C854 C855 1.363 . S
C854 C859 1.370 1_455 S
C855 H823 0.929 . S
C855 C854 1.363 . S
C855 C856 1.385 . S
C856 H824 0.930 . S
C856 C855 1.385 . S
C856 C857 1.357 1_455 S
C857 C856 1.357 1_655 S
C857 C858 1.406 . S
C858 H825 0.929 . S
C858 C857 1.406 . S
C858 C859 1.391 . S
C859 H826 0.931 . S
C859 C854 1.370 1_655 S
C859 C858 1.391 . S
C860 N834 1.435 . S
C860 C861 1.358 1_455 S
C860 C865 1.371 . S
C861 H827 0.930 . S
C861 C860 1.358 1_655 S
C861 C862 1.405 . S
C862 H828 0.932 . S
C862 C861 1.405 . S
C862 C863 1.383 1_655 S
C863 C862 1.383 1_455 S
C863 C864 1.393 . S
C864 H829 0.931 . S
C864 C863 1.393 . S
C864 C865 1.382 . S
C865 H830 0.929 . S
C865 C860 1.371 . S
C865 C864 1.382 . S
C866 N834 1.423 . S
C866 C867 1.362 . S
C866 C871 1.388 . S
C867 H831 0.929 . S
C867 C866 1.362 . S
C867 C868 1.376 . S
C868 H832 0.931 . S
C868 C867 1.376 . S
C868 C869 1.396 . S
C869 C851 1.472 . S
C869 C868 1.396 . S
C869 C870 1.348 . S
C870 H833 0.971 . S
C870 C869 1.348 . S
C870 C871 1.443 . S
C871 H835 0.932 1_455 S
C871 C866 1.388 . S
C871 C870 1.443 . S
H872 C899 0.929 . S
N873 C898 1.433 . S
N873 C904 1.435 . S
N873 C910 1.423 . S
H874 C900 0.930 . S
H875 C903 0.931 . S
H876 C902 0.929 . S
H877 C905 0.930 . S
H878 C906 0.932 . S
H879 C909 0.929 . S
H880 C908 0.931 . S
H881 C911 0.929 . S
H882 C915 0.932 . S
H883 C912 0.931 . S
H884 C914 0.929 . S
H885 C917 0.929 . S
H886 C918 0.930 . S
H887 C920 0.929 . S
H888 C921 0.931 . S
H889 C923 0.930 . S
H890 C924 0.932 . S
H891 C926 0.931 . S
H892 C927 0.929 . S
H893 C929 0.929 . S
H894 C930 0.931 . S
H895 C932 0.929 . S
N896 C916 1.433 . S
N896 C922 1.435 . S
N896 C928 1.423 . S
H897 C933 0.932 . S
C898 N873 1.433 . S
C898 C899 1.363 . S
C898 C903 1.370 . S
C899 H872 0.929 . S
C899 C898 1.363 . S
C899 C900 1.385 . S
C900 H874 0.930 . S
C900 C899 1.385 . S
C900 C901 1.357 . S
C901 C900 1.357 . S
C901 C902 1.406 . S
C902 H876 0.929 . S
C902 C901 1.406 . S
C902 C903 1.391 . S
C903 H875 0.931 . S
C903 C898 1.370 . S
C903 C902 1.391 . S
C904 N873 1.435 . S
C904 C905 1.358 . S
C904 C909 1.371 . S
C905 H877 0.930 . S
C905 C904 1.358 . S
C905 C906 1.405 . S
C906 H878 0.932 . S
C906 C905 1.405 . S
C906 C907 1.383 . S
C907 C906 1.383 . S
C907 C908 1.393 . S
C908 H880 0.931 . S
C908 C907 1.393 . S
C908 C909 1.382 . S
C909 H879 0.929 . S
C909 C904 1.371 . S
C909 C908 1.382 . S
C910 N873 1.423 . S
C910 C911 1.362 . S
C910 C915 1.388 . S
C911 H881 0.929 . S
C911 C910 1.362 . S
C911 C912 1.376 . S
C912 H883 0.931 . S
C912 C911 1.376 . S
C912 C913 1.396 . S
C913 C912 1.396 . S
C913 C914 1.348 . S
C913 C931 1.472 . S
C914 H884 0.929 . S
C914 C913 1.348 . S
C914 C915 1.443 . S
C915 H882 0.932 . S
C915 C910 1.388 . S
C915 C914 1.443 . S
C916 N896 1.433 . S
C916 C917 1.363 . S
C916 C921 1.370 . S
C917 H885 0.929 . S
C917 C916 1.363 . S
C917 C918 1.385 . S
C918 H886 0.930 . S
C918 C917 1.385 . S
C918 C919 1.357 . S
C919 C918 1.357 . S
C919 C920 1.406 . S
C920 H887 0.929 . S
C920 C919 1.406 . S
C920 C921 1.391 . S
C921 H888 0.931 . S
C921 C916 1.370 . S
C921 C920 1.391 . S
C922 N896 1.435 . S
C922 C923 1.358 . S
C922 C927 1.371 . S
C923 H889 0.930 . S
C923 C922 1.358 . S
C923 C924 1.405 . S
C924 H890 0.932 . S
C924 C923 1.405 . S
C924 C925 1.383 . S
C925 C924 1.383 . S
C925 C926 1.393 . S
C926 H891 0.931 . S
C926 C925 1.393 . S
C926 C927 1.382 . S
C927 H892 0.929 . S
C927 C922 1.371 . S
C927 C926 1.382 . S
C928 N896 1.423 . S
C928 C929 1.362 . S
C928 C933 1.388 . S
C929 H893 0.929 . S
C929 C928 1.362 . S
C929 C930 1.376 . S
C930 H894 0.931 . S
C930 C929 1.376 . S
C930 C931 1.396 . S
C931 C913 1.472 . S
C931 C930 1.396 . S
C931 C932 1.348 . S
C932 H895 0.929 . S
C932 C931 1.348 . S
C932 C933 1.443 . S
C933 H897 0.932 . S
C933 C928 1.388 . S
C933 C932 1.443 . S
H934 C961 0.929 . S
N935 C960 1.433 . S
N935 C966 1.435 . S
N935 C972 1.423 . S
H936 C962 0.930 . S
H937 C965 0.931 . S
H938 C964 0.929 . S
H939 C967 0.930 . S
H940 C968 0.932 . S
H941 C971 0.929 . S
H942 C970 0.931 . S
H943 C973 0.929 . S
H944 C977 0.932 1_545 S
H945 C974 0.931 . S
H946 C976 0.975 . S
H947 C979 0.929 . S
H948 C980 0.930 . S
H949 C982 0.929 . S
H950 C983 0.931 . S
H951 C985 0.930 . S
H952 C986 0.932 . S
H953 C988 0.931 . S
H954 C989 0.929 . S
H955 C991 0.929 . S
H956 C992 0.931 . S
H957 C994 0.936 . S
N958 C978 1.433 . S
N958 C984 1.435 . S
N958 C990 1.423 . S
H959 C995 0.932 1_545 S
C960 N935 1.433 . S
C960 C961 1.363 . S
C960 C965 1.370 1_565 S
C961 H934 0.929 . S
C961 C960 1.363 . S
C961 C962 1.385 . S
C962 H936 0.930 . S
C962 C961 1.385 . S
C962 C963 1.357 1_565 S
C963 C962 1.357 1_545 S
C963 C964 1.406 . S
C964 H938 0.929 . S
C964 C963 1.406 . S
C964 C965 1.391 . S
C965 H937 0.931 . S
C965 C960 1.370 1_545 S
C965 C964 1.391 . S
C966 N935 1.435 . S
C966 C967 1.358 1_565 S
C966 C971 1.371 . S
C967 H939 0.930 . S
C967 C966 1.358 1_545 S
C967 C968 1.405 . S
C968 H940 0.932 . S
C968 C967 1.405 . S
C968 C969 1.383 1_545 S
C969 C968 1.383 1_565 S
C969 C970 1.393 . S
C970 H942 0.931 . S
C970 C969 1.393 . S
C970 C971 1.382 . S
C971 H941 0.929 . S
C971 C966 1.371 . S
C971 C970 1.382 . S
C972 N935 1.423 . S
C972 C973 1.362 . S
C972 C977 1.388 . S
C973 H943 0.929 . S
C973 C972 1.362 . S
C973 C974 1.376 . S
C974 H945 0.931 . S
C974 C973 1.376 . S
C974 C975 1.396 . S
C975 C974 1.396 . S
C975 C976 1.348 . S
C975 C993 1.472 . S
C976 H946 0.975 . S
C976 C975 1.348 . S
C976 C977 1.443 . S
C977 H944 0.932 1_565 S
C977 C972 1.388 . S
C977 C976 1.443 . S
C978 N958 1.433 . S
C978 C979 1.363 . S
C978 C983 1.370 1_565 S
C979 H947 0.929 . S
C979 C978 1.363 . S
C979 C980 1.385 . S
C980 H948 0.930 . S
C980 C979 1.385 . S
C980 C981 1.357 1_565 S
C981 C980 1.357 1_545 S
C981 C982 1.406 . S
C982 H949 0.929 . S
C982 C981 1.406 . S
C982 C983 1.391 . S
C983 H950 0.931 . S
C983 C978 1.370 1_545 S
C983 C982 1.391 . S
C984 N958 1.435 . S
C984 C985 1.358 1_565 S
C984 C989 1.371 . S
C985 H951 0.930 . S
C985 C984 1.358 1_545 S
C985 C986 1.405 . S
C986 H952 0.932 . S
C986 C985 1.405 . S
C986 C987 1.383 1_545 S
C987 C986 1.383 1_565 S
C987 C988 1.393 . S
C988 H953 0.931 . S
C988 C987 1.393 . S
C988 C989 1.382 . S
C989 H954 0.929 . S
C989 C984 1.371 . S
C989 C988 1.382 . S
C990 N958 1.423 . S
C990 C991 1.362 . S
C990 C995 1.388 . S
C991 H955 0.929 . S
C991 C990 1.362 . S
C991 C992 1.376 . S
C992 H956 0.931 . S
C992 C991 1.376 . S
C992 C993 1.396 . S
C993 C975 1.472 . S
C993 C992 1.396 . S
C993 C994 1.348 . S
C994 H957 0.936 . S
C994 C993 1.348 . S
C994 C995 1.443 . S
C995 H959 0.932 1_565 S
C995 C990 1.388 . S
C995 C994 1.443 . S
H996 C1023 0.929 . S
N997 C1022 1.433 . S
N997 C1028 1.435 . S
N997 C1034 1.423 . S
H998 C1024 0.930 . S
H999 C1027 0.931 . S
H1000 C1026 0.929 . S
H1001 C1029 0.930 . S
H1002 C1030 0.932 . S
H1003 C1033 0.929 . S
H1004 C1032 0.931 . S
H1005 C1035 0.929 . S
H1006 C1039 1.007 . S
H1007 C1036 0.931 . S
H1008 C1038 0.917 1_545 S
H1009 C1041 0.929 . S
H1010 C1042 0.930 . S
H1011 C1044 0.929 . S
H1012 C1045 0.999 . S
H1013 C1047 0.930 . S
H1014 C1048 0.932 . S
H1015 C1050 0.931 . S
H1016 C1051 0.929 . S
H1017 C1053 0.929 . S
H1018 C1054 0.931 . S
H1019 C1056 0.874 1_545 S
N1020 C1040 1.433 . S
N1020 C1046 1.435 . S
N1020 C1052 1.423 . S
H1021 C1057 0.953 . S
C1022 N997 1.433 . S
C1022 C1023 1.363 . S
C1022 C1027 1.370 1_565 S
C1023 H996 0.929 . S
C1023 C1022 1.363 . S
C1023 C1024 1.385 . S
C1024 H998 0.930 . S
C1024 C1023 1.385 . S
C1024 C1025 1.357 . S
C1025 C1024 1.357 . S
C1025 C1026 1.406 1_565 S
C1026 H1000 0.929 . S
C1026 C1025 1.406 1_545 S
C1026 C1027 1.391 . S
C1027 H999 0.931 . S
C1027 C1022 1.370 1_545 S
C1027 C1026 1.391 . S
C1028 N997 1.435 . S
C1028 C1029 1.358 1_565 S
C1028 C1033 1.371 . S
C1029 H1001 0.930 . S
C1029 C1028 1.358 1_545 S
C1029 C1030 1.405 . S
C1030 H1002 0.932 . S
C1030 C1029 1.405 . S
C1030 C1031 1.383 . S
C1031 C1030 1.383 . S
C1031 C1032 1.393 1_545 S
C1032 H1004 0.931 . S
C1032 C1031 1.393 1_565 S
C1032 C1033 1.382 . S
C1033 H1003 0.929 . S
C1033 C1028 1.371 . S
C1033 C1032 1.382 . S
C1034 N997 1.423 . S
C1034 C1035 1.362 . S
C1034 C1039 1.368 1_565 S
C1035 H1005 0.929 . S
C1035 C1034 1.362 . S
C1035 C1036 1.376 . S
C1036 H1007 0.931 . S
C1036 C1035 1.376 . S
C1036 C1037 1.396 . S
C1037 C1036 1.396 . S
C1037 C1038 1.400 . S
C1037 C1055 1.472 . S
C1038 H1008 0.917 1_565 S
C1038 C1037 1.400 . S
C1038 C1039 1.357 1_565 S
C1039 H1006 1.007 . S
C1039 C1034 1.368 1_545 S
C1039 C1038 1.357 1_545 S
C1040 N1020 1.433 . S
C1040 C1041 1.363 . S
C1040 C1045 1.317 1_565 S
C1041 H1009 0.929 . S
C1041 C1040 1.363 . S
C1041 C1042 1.385 . S
C1042 H1010 0.930 . S
C1042 C1041 1.385 . S
C1042 C1043 1.357 . S
C1043 C1042 1.357 . S
C1043 C1044 1.406 1_565 S
C1044 H1011 0.929 . S
C1044 C1043 1.406 1_545 S
C1044 C1045 1.381 . S
C1045 H1012 0.999 . S
C1045 C1040 1.317 1_545 S
C1045 C1044 1.381 . S
C1046 N1020 1.435 . S
C1046 C1047 1.358 1_565 S
C1046 C1051 1.371 . S
C1047 H1013 0.930 . S
C1047 C1046 1.358 1_545 S
C1047 C1048 1.405 . S
C1048 H1014 0.932 . S
C1048 C1047 1.405 . S
C1048 C1049 1.383 . S
C1049 C1048 1.383 . S
C1049 C1050 1.393 1_545 S
C1050 H1015 0.931 . S
C1050 C1049 1.393 1_565 S
C1050 C1051 1.382 . S
C1051 H1016 0.929 . S
C1051 C1046 1.371 . S
C1051 C1050 1.382 . S
C1052 N1020 1.423 . S
C1052 C1053 1.362 . S
C1052 C1057 1.344 1_565 S
C1053 H1017 0.929 . S
C1053 C1052 1.362 . S
C1053 C1054 1.376 . S
C1054 H1018 0.931 . S
C1054 C1053 1.376 . S
C1054 C1055 1.396 . S
C1055 C1037 1.472 . S
C1055 C1054 1.396 . S
C1055 C1056 1.371 . S
C1056 H1019 0.874 1_565 S
C1056 C1055 1.371 . S
C1056 C1057 1.506 1_565 S
C1057 H1021 0.953 . S
C1057 C1052 1.344 1_545 S
C1057 C1056 1.506 1_545 S
H1058 C1085 0.929 . S
N1059 C1084 1.433 . S
N1059 C1090 1.435 . S
N1059 C1096 1.423 . S
H1060 C1086 0.930 . S
H1061 C1089 0.931 . S
H1062 C1088 0.929 . S
H1063 C1091 0.930 . S
H1064 C1092 0.932 . S
H1065 C1095 0.929 . S
H1066 C1094 0.931 . S
H1067 C1097 0.929 . S
H1068 C1101 0.932 1_455 S
H1069 C1098 0.931 . S
H1070 C1100 0.970 . S
H1071 C1103 0.929 . S
H1072 C1104 0.930 . S
H1073 C1106 0.929 . S
H1074 C1107 0.931 . S
H1075 C1109 0.930 . S
H1076 C1110 0.932 . S
H1077 C1112 0.931 . S
H1078 C1113 0.929 . S
H1079 C1115 0.929 . S
H1080 C1116 0.931 . S
H1081 C1118 0.937 . S
N1082 C1102 1.433 . S
N1082 C1108 1.435 . S
N1082 C1114 1.423 . S
H1083 C1119 0.932 1_455 S
C1084 N1059 1.433 . S
C1084 C1085 1.363 . S
C1084 C1089 1.370 1_655 S
C1085 H1058 0.929 . S
C1085 C1084 1.363 . S
C1085 C1086 1.385 . S
C1086 H1060 0.930 . S
C1086 C1085 1.385 . S
C1086 C1087 1.357 1_655 S
C1087 C1086 1.357 1_455 S
C1087 C1088 1.406 . S
C1088 H1062 0.929 . S
C1088 C1087 1.406 . S
C1088 C1089 1.391 . S
C1089 H1061 0.931 . S
C1089 C1084 1.370 1_455 S
C1089 C1088 1.391 . S
C1090 N1059 1.435 . S
C1090 C1091 1.358 1_655 S
C1090 C1095 1.371 . S
C1091 H1063 0.930 . S
C1091 C1090 1.358 1_455 S
C1091 C1092 1.405 . S
C1092 H1064 0.932 . S
C1092 C1091 1.405 . S
C1092 C1093 1.383 1_455 S
C1093 C1092 1.383 1_655 S
C1093 C1094 1.393 . S
C1094 H1066 0.931 . S
C1094 C1093 1.393 . S
C1094 C1095 1.382 . S
C1095 H1065 0.929 . S
C1095 C1090 1.371 . S
C1095 C1094 1.382 . S
C1096 N1059 1.423 . S
C1096 C1097 1.362 . S
C1096 C1101 1.388 . S
C1097 H1067 0.929 . S
C1097 C1096 1.362 . S
C1097 C1098 1.376 . S
C1098 H1069 0.931 . S
C1098 C1097 1.376 . S
C1098 C1099 1.396 . S
C1099 C1098 1.396 . S
C1099 C1100 1.348 . S
C1099 C1117 1.472 . S
C1100 H1070 0.970 . S
C1100 C1099 1.348 . S
C1100 C1101 1.443 . S
C1101 H1068 0.932 1_655 S
C1101 C1096 1.388 . S
C1101 C1100 1.443 . S
C1102 N1082 1.433 . S
C1102 C1103 1.363 . S
C1102 C1107 1.370 1_655 S
C1103 H1071 0.929 . S
C1103 C1102 1.363 . S
C1103 C1104 1.385 . S
C1104 H1072 0.930 . S
C1104 C1103 1.385 . S
C1104 C1105 1.357 1_655 S
C1105 C1104 1.357 1_455 S
C1105 C1106 1.406 . S
C1106 H1073 0.929 . S
C1106 C1105 1.406 . S
C1106 C1107 1.391 . S
C1107 H1074 0.931 . S
C1107 C1102 1.370 1_455 S
C1107 C1106 1.391 . S
C1108 N1082 1.435 . S
C1108 C1109 1.358 1_655 S
C1108 C1113 1.371 . S
C1109 H1075 0.930 . S
C1109 C1108 1.358 1_455 S
C1109 C1110 1.405 . S
C1110 H1076 0.932 . S
C1110 C1109 1.405 . S
C1110 C1111 1.383 1_455 S
C1111 C1110 1.383 1_655 S
C1111 C1112 1.393 . S
C1112 H1077 0.931 . S
C1112 C1111 1.393 . S
C1112 C1113 1.382 . S
C1113 H1078 0.929 . S
C1113 C1108 1.371 . S
C1113 C1112 1.382 . S
C1114 N1082 1.423 . S
C1114 C1115 1.362 . S
C1114 C1119 1.388 . S
C1115 H1079 0.929 . S
C1115 C1114 1.362 . S
C1115 C1116 1.376 . S
C1116 H1080 0.931 . S
C1116 C1115 1.376 . S
C1116 C1117 1.396 . S
C1117 C1099 1.472 . S
C1117 C1116 1.396 . S
C1117 C1118 1.348 . S
C1118 H1081 0.937 . S
C1118 C1117 1.348 . S
C1118 C1119 1.443 . S
C1119 H1083 0.932 1_655 S
C1119 C1114 1.388 . S
C1119 C1118 1.443 . S
H1120 C1147 0.929 . S
N1121 C1146 1.433 . S
N1121 C1152 1.435 . S
N1121 C1158 1.423 . S
H1122 C1148 0.930 . S
H1123 C1151 0.931 . S
H1124 C1150 0.929 . S
H1125 C1153 0.930 . S
H1126 C1154 0.932 . S
H1127 C1157 0.929 . S
H1128 C1156 0.931 . S
H1129 C1159 0.929 . S
H1130 C1163 0.932 . S
H1131 C1160 0.931 . S
H1132 C1162 0.929 . S
H1133 C1165 0.929 . S
H1134 C1166 0.930 . S
H1135 C1168 0.929 . S
H1136 C1169 0.931 . S
H1137 C1171 0.930 . S
H1138 C1172 0.932 . S
H1139 C1174 0.931 . S
H1140 C1175 0.929 . S
H1141 C1177 0.929 . S
H1142 C1178 0.931 . S
H1143 C1180 0.929 . S
N1144 C1164 1.433 . S
N1144 C1170 1.435 . S
N1144 C1176 1.423 . S
H1145 C1181 0.932 . S
C1146 N1121 1.433 . S
C1146 C1147 1.363 . S
C1146 C1151 1.370 . S
C1147 H1120 0.929 . S
C1147 C1146 1.363 . S
C1147 C1148 1.385 . S
C1148 H1122 0.930 . S
C1148 C1147 1.385 . S
C1148 C1149 1.357 . S
C1149 C1148 1.357 . S
C1149 C1150 1.406 . S
C1150 H1124 0.929 . S
C1150 C1149 1.406 . S
C1150 C1151 1.391 . S
C1151 H1123 0.931 . S
C1151 C1146 1.370 . S
C1151 C1150 1.391 . S
C1152 N1121 1.435 . S
C1152 C1153 1.358 . S
C1152 C1157 1.371 . S
C1153 H1125 0.930 . S
C1153 C1152 1.358 . S
C1153 C1154 1.405 . S
C1154 H1126 0.932 . S
C1154 C1153 1.405 . S
C1154 C1155 1.383 . S
C1155 C1154 1.383 . S
C1155 C1156 1.393 . S
C1156 H1128 0.931 . S
C1156 C1155 1.393 . S
C1156 C1157 1.382 . S
C1157 H1127 0.929 . S
C1157 C1152 1.371 . S
C1157 C1156 1.382 . S
C1158 N1121 1.423 . S
C1158 C1159 1.362 . S
C1158 C1163 1.388 . S
C1159 H1129 0.929 . S
C1159 C1158 1.362 . S
C1159 C1160 1.376 . S
C1160 H1131 0.931 . S
C1160 C1159 1.376 . S
C1160 C1161 1.396 . S
C1161 C1160 1.396 . S
C1161 C1162 1.348 . S
C1161 C1179 1.472 . S
C1162 H1132 0.929 . S
C1162 C1161 1.348 . S
C1162 C1163 1.443 . S
C1163 H1130 0.932 . S
C1163 C1158 1.388 . S
C1163 C1162 1.443 . S
C1164 N1144 1.433 . S
C1164 C1165 1.363 . S
C1164 C1169 1.370 . S
C1165 H1133 0.929 . S
C1165 C1164 1.363 . S
C1165 C1166 1.385 . S
C1166 H1134 0.930 . S
C1166 C1165 1.385 . S
C1166 C1167 1.357 . S
C1167 C1166 1.357 . S
C1167 C1168 1.406 . S
C1168 H1135 0.929 . S
C1168 C1167 1.406 . S
C1168 C1169 1.391 . S
C1169 H1136 0.931 . S
C1169 C1164 1.370 . S
C1169 C1168 1.391 . S
C1170 N1144 1.435 . S
C1170 C1171 1.358 . S
C1170 C1175 1.371 . S
C1171 H1137 0.930 . S
C1171 C1170 1.358 . S
C1171 C1172 1.405 . S
C1172 H1138 0.932 . S
C1172 C1171 1.405 . S
C1172 C1173 1.383 . S
C1173 C1172 1.383 . S
C1173 C1174 1.393 . S
C1174 H1139 0.931 . S
C1174 C1173 1.393 . S
C1174 C1175 1.382 . S
C1175 H1140 0.929 . S
C1175 C1170 1.371 . S
C1175 C1174 1.382 . S
C1176 N1144 1.423 . S
C1176 C1177 1.362 . S
C1176 C1181 1.388 . S
C1177 H1141 0.929 . S
C1177 C1176 1.362 . S
C1177 C1178 1.376 . S
C1178 H1142 0.931 . S
C1178 C1177 1.376 . S
C1178 C1179 1.396 . S
C1179 C1161 1.472 . S
C1179 C1178 1.396 . S
C1179 C1180 1.348 . S
C1180 H1143 0.929 . S
C1180 C1179 1.348 . S
C1180 C1181 1.443 . S
C1181 H1145 0.932 . S
C1181 C1176 1.388 . S
C1181 C1180 1.443 . S
H1182 C1209 0.929 . S
N1183 C1208 1.433 . S
N1183 C1214 1.435 . S
N1183 C1220 1.423 . S
H1184 C1210 0.930 . S
H1185 C1213 0.931 . S
H1186 C1212 0.929 . S
H1187 C1215 0.930 . S
H1188 C1216 0.932 . S
H1189 C1219 0.929 . S
H1190 C1218 0.931 . S
H1191 C1221 0.929 . S
H1192 C1225 0.932 . S
H1193 C1222 0.931 . S
H1194 C1224 0.929 . S
H1195 C1227 0.929 . S
H1196 C1228 0.930 . S
H1197 C1230 0.929 . S
H1198 C1231 0.931 . S
H1199 C1233 0.930 . S
H1200 C1234 0.932 . S
H1201 C1236 0.931 . S
H1202 C1237 0.929 . S
H1203 C1239 0.929 . S
H1204 C1240 0.931 . S
H1205 C1242 0.929 . S
N1206 C1226 1.433 . S
N1206 C1232 1.435 . S
N1206 C1238 1.423 . S
H1207 C1243 0.932 . S
C1208 N1183 1.433 . S
C1208 C1209 1.363 . S
C1208 C1213 1.370 . S
C1209 H1182 0.929 . S
C1209 C1208 1.363 . S
C1209 C1210 1.385 . S
C1210 H1184 0.930 . S
C1210 C1209 1.385 . S
C1210 C1211 1.357 . S
C1211 C1210 1.357 . S
C1211 C1212 1.406 . S
C1212 H1186 0.929 . S
C1212 C1211 1.406 . S
C1212 C1213 1.391 . S
C1213 H1185 0.931 . S
C1213 C1208 1.370 . S
C1213 C1212 1.391 . S
C1214 N1183 1.435 . S
C1214 C1215 1.358 . S
C1214 C1219 1.371 . S
C1215 H1187 0.930 . S
C1215 C1214 1.358 . S
C1215 C1216 1.405 . S
C1216 H1188 0.932 . S
C1216 C1215 1.405 . S
C1216 C1217 1.383 . S
C1217 C1216 1.383 . S
C1217 C1218 1.393 . S
C1218 H1190 0.931 . S
C1218 C1217 1.393 . S
C1218 C1219 1.382 . S
C1219 H1189 0.929 . S
C1219 C1214 1.371 . S
C1219 C1218 1.382 . S
C1220 N1183 1.423 . S
C1220 C1221 1.362 . S
C1220 C1225 1.388 . S
C1221 H1191 0.929 . S
C1221 C1220 1.362 . S
C1221 C1222 1.376 . S
C1222 H1193 0.931 . S
C1222 C1221 1.376 . S
C1222 C1223 1.396 . S
C1223 C1222 1.396 . S
C1223 C1224 1.348 . S
C1223 C1241 1.472 . S
C1224 H1194 0.929 . S
C1224 C1223 1.348 . S
C1224 C1225 1.443 . S
C1225 H1192 0.932 . S
C1225 C1220 1.388 . S
C1225 C1224 1.443 . S
C1226 N1206 1.433 . S
C1226 C1227 1.363 . S
C1226 C1231 1.370 . S
C1227 H1195 0.929 . S
C1227 C1226 1.363 . S
C1227 C1228 1.385 . S
C1228 H1196 0.930 . S
C1228 C1227 1.385 . S
C1228 C1229 1.357 . S
C1229 C1228 1.357 . S
C1229 C1230 1.406 . S
C1230 H1197 0.929 . S
C1230 C1229 1.406 . S
C1230 C1231 1.391 . S
C1231 H1198 0.931 . S
C1231 C1226 1.370 . S
C1231 C1230 1.391 . S
C1232 N1206 1.435 . S
C1232 C1233 1.358 . S
C1232 C1237 1.371 . S
C1233 H1199 0.930 . S
C1233 C1232 1.358 . S
C1233 C1234 1.405 . S
C1234 H1200 0.932 . S
C1234 C1233 1.405 . S
C1234 C1235 1.383 . S
C1235 C1234 1.383 . S
C1235 C1236 1.393 . S
C1236 H1201 0.931 . S
C1236 C1235 1.393 . S
C1236 C1237 1.382 . S
C1237 H1202 0.929 . S
C1237 C1232 1.371 . S
C1237 C1236 1.382 . S
C1238 N1206 1.423 . S
C1238 C1239 1.362 . S
C1238 C1243 1.388 . S
C1239 H1203 0.929 . S
C1239 C1238 1.362 . S
C1239 C1240 1.376 . S
C1240 H1204 0.931 . S
C1240 C1239 1.376 . S
C1240 C1241 1.396 . S
C1241 C1223 1.472 . S
C1241 C1240 1.396 . S
C1241 C1242 1.348 . S
C1242 H1205 0.929 . S
C1242 C1241 1.348 . S
C1242 C1243 1.443 . S
C1243 H1207 0.932 . S
C1243 C1238 1.388 . S
C1243 C1242 1.443 . S
H1244 C1271 0.929 . S
N1245 C1270 1.433 . S
N1245 C1276 1.435 . S
N1245 C1282 1.423 . S
H1246 C1272 0.930 . S
H1247 C1275 0.931 . S
H1248 C1274 0.929 . S
H1249 C1277 0.930 . S
H1250 C1278 0.932 . S
H1251 C1281 0.929 . S
H1252 C1280 0.931 . S
H1253 C1283 0.929 . S
H1254 C1287 0.932 . S
H1255 C1284 0.931 . S
H1256 C1286 0.929 . S
H1257 C1289 0.929 . S
H1258 C1290 0.930 . S
H1259 C1292 0.929 . S
H1260 C1293 0.931 . S
H1261 C1295 0.930 . S
H1262 C1296 0.932 . S
H1263 C1298 0.931 . S
H1264 C1299 0.929 . S
H1265 C1301 0.929 . S
H1266 C1302 0.931 . S
H1267 C1304 0.929 . S
N1268 C1288 1.433 . S
N1268 C1294 1.435 . S
N1268 C1300 1.423 . S
H1269 C1305 0.932 . S
C1270 N1245 1.433 . S
C1270 C1271 1.363 . S
C1270 C1275 1.370 . S
C1271 H1244 0.929 . S
C1271 C1270 1.363 . S
C1271 C1272 1.385 . S
C1272 H1246 0.930 . S
C1272 C1271 1.385 . S
C1272 C1273 1.357 . S
C1273 C1272 1.357 . S
C1273 C1274 1.406 . S
C1274 H1248 0.929 . S
C1274 C1273 1.406 . S
C1274 C1275 1.391 . S
C1275 H1247 0.931 . S
C1275 C1270 1.370 . S
C1275 C1274 1.391 . S
C1276 N1245 1.435 . S
C1276 C1277 1.358 . S
C1276 C1281 1.371 . S
C1277 H1249 0.930 . S
C1277 C1276 1.358 . S
C1277 C1278 1.405 . S
C1278 H1250 0.932 . S
C1278 C1277 1.405 . S
C1278 C1279 1.383 . S
C1279 C1278 1.383 . S
C1279 C1280 1.393 . S
C1280 H1252 0.931 . S
C1280 C1279 1.393 . S
C1280 C1281 1.382 . S
C1281 H1251 0.929 . S
C1281 C1276 1.371 . S
C1281 C1280 1.382 . S
C1282 N1245 1.423 . S
C1282 C1283 1.362 . S
C1282 C1287 1.388 . S
C1283 H1253 0.929 . S
C1283 C1282 1.362 . S
C1283 C1284 1.376 . S
C1284 H1255 0.931 . S
C1284 C1283 1.376 . S
C1284 C1285 1.396 . S
C1285 C1284 1.396 . S
C1285 C1286 1.348 . S
C1285 C1303 1.472 . S
C1286 H1256 0.929 . S
C1286 C1285 1.348 . S
C1286 C1287 1.443 . S
C1287 H1254 0.932 . S
C1287 C1282 1.388 . S
C1287 C1286 1.443 . S
C1288 N1268 1.433 . S
C1288 C1289 1.363 . S
C1288 C1293 1.370 . S
C1289 H1257 0.929 . S
C1289 C1288 1.363 . S
C1289 C1290 1.385 . S
C1290 H1258 0.930 . S
C1290 C1289 1.385 . S
C1290 C1291 1.357 . S
C1291 C1290 1.357 . S
C1291 C1292 1.406 . S
C1292 H1259 0.929 . S
C1292 C1291 1.406 . S
C1292 C1293 1.391 . S
C1293 H1260 0.931 . S
C1293 C1288 1.370 . S
C1293 C1292 1.391 . S
C1294 N1268 1.435 . S
C1294 C1295 1.358 . S
C1294 C1299 1.371 . S
C1295 H1261 0.930 . S
C1295 C1294 1.358 . S
C1295 C1296 1.405 . S
C1296 H1262 0.932 . S
C1296 C1295 1.405 . S
C1296 C1297 1.383 . S
C1297 C1296 1.383 . S
C1297 C1298 1.393 . S
C1298 H1263 0.931 . S
C1298 C1297 1.393 . S
C1298 C1299 1.382 . S
C1299 H1264 0.929 . S
C1299 C1294 1.371 . S
C1299 C1298 1.382 . S
C1300 N1268 1.423 . S
C1300 C1301 1.362 . S
C1300 C1305 1.388 . S
C1301 H1265 0.929 . S
C1301 C1300 1.362 . S
C1301 C1302 1.376 . S
C1302 H1266 0.931 . S
C1302 C1301 1.376 . S
C1302 C1303 1.396 . S
C1303 C1285 1.472 . S
C1303 C1302 1.396 . S
C1303 C1304 1.348 . S
C1304 H1267 0.929 . S
C1304 C1303 1.348 . S
C1304 C1305 1.443 . S
C1305 H1269 0.932 . S
C1305 C1300 1.388 . S
C1305 C1304 1.443 . S
H1306 C1333 0.929 . S
N1307 C1332 1.433 . S
N1307 C1338 1.435 . S
N1307 C1344 1.423 . S
H1308 C1334 0.930 . S
H1309 C1337 0.931 . S
H1310 C1336 0.929 . S
H1311 C1339 0.930 . S
H1312 C1340 0.932 . S
H1313 C1343 0.929 . S
H1314 C1342 0.931 . S
H1315 C1345 0.929 . S
H1316 C1349 0.932 . S
H1317 C1346 0.931 . S
H1318 C1348 0.929 . S
H1319 C1351 0.929 . S
H1320 C1352 0.930 . S
H1321 C1354 0.929 . S
H1322 C1355 0.931 . S
H1323 C1357 0.930 . S
H1324 C1358 0.932 . S
H1325 C1360 0.931 . S
H1326 C1361 0.929 . S
H1327 C1363 0.929 . S
H1328 C1364 0.931 . S
H1329 C1366 0.929 . S
N1330 C1350 1.433 . S
N1330 C1356 1.435 . S
N1330 C1362 1.423 . S
H1331 C1367 0.932 . S
C1332 N1307 1.433 . S
C1332 C1333 1.363 . S
C1332 C1337 1.370 . S
C1333 H1306 0.929 . S
C1333 C1332 1.363 . S
C1333 C1334 1.385 . S
C1334 H1308 0.930 . S
C1334 C1333 1.385 . S
C1334 C1335 1.357 . S
C1335 C1334 1.357 . S
C1335 C1336 1.406 . S
C1336 H1310 0.929 . S
C1336 C1335 1.406 . S
C1336 C1337 1.391 . S
C1337 H1309 0.931 . S
C1337 C1332 1.370 . S
C1337 C1336 1.391 . S
C1338 N1307 1.435 . S
C1338 C1339 1.358 . S
C1338 C1343 1.371 . S
C1339 H1311 0.930 . S
C1339 C1338 1.358 . S
C1339 C1340 1.405 . S
C1340 H1312 0.932 . S
C1340 C1339 1.405 . S
C1340 C1341 1.383 . S
C1341 C1340 1.383 . S
C1341 C1342 1.393 . S
C1342 H1314 0.931 . S
C1342 C1341 1.393 . S
C1342 C1343 1.382 . S
C1343 H1313 0.929 . S
C1343 C1338 1.371 . S
C1343 C1342 1.382 . S
C1344 N1307 1.423 . S
C1344 C1345 1.362 . S
C1344 C1349 1.388 . S
C1345 H1315 0.929 . S
C1345 C1344 1.362 . S
C1345 C1346 1.376 . S
C1346 H1317 0.931 . S
C1346 C1345 1.376 . S
C1346 C1347 1.396 . S
C1347 C1346 1.396 . S
C1347 C1348 1.348 . S
C1347 C1365 1.472 . S
C1348 H1318 0.929 . S
C1348 C1347 1.348 . S
C1348 C1349 1.443 . S
C1349 H1316 0.932 . S
C1349 C1344 1.388 . S
C1349 C1348 1.443 . S
C1350 N1330 1.433 . S
C1350 C1351 1.363 . S
C1350 C1355 1.370 . S
C1351 H1319 0.929 . S
C1351 C1350 1.363 . S
C1351 C1352 1.385 . S
C1352 H1320 0.930 . S
C1352 C1351 1.385 . S
C1352 C1353 1.357 . S
C1353 C1352 1.357 . S
C1353 C1354 1.406 . S
C1354 H1321 0.929 . S
C1354 C1353 1.406 . S
C1354 C1355 1.391 . S
C1355 H1322 0.931 . S
C1355 C1350 1.370 . S
C1355 C1354 1.391 . S
C1356 N1330 1.435 . S
C1356 C1357 1.358 . S
C1356 C1361 1.371 . S
C1357 H1323 0.930 . S
C1357 C1356 1.358 . S
C1357 C1358 1.405 . S
C1358 H1324 0.932 . S
C1358 C1357 1.405 . S
C1358 C1359 1.383 . S
C1359 C1358 1.383 . S
C1359 C1360 1.393 . S
C1360 H1325 0.931 . S
C1360 C1359 1.393 . S
C1360 C1361 1.382 . S
C1361 H1326 0.929 . S
C1361 C1356 1.371 . S
C1361 C1360 1.382 . S
C1362 N1330 1.423 . S
C1362 C1363 1.362 . S
C1362 C1367 1.388 . S
C1363 H1327 0.929 . S
C1363 C1362 1.362 . S
C1363 C1364 1.376 . S
C1364 H1328 0.931 . S
C1364 C1363 1.376 . S
C1364 C1365 1.396 . S
C1365 C1347 1.472 . S
C1365 C1364 1.396 . S
C1365 C1366 1.348 . S
C1366 H1329 0.929 . S
C1366 C1365 1.348 . S
C1366 C1367 1.443 . S
C1367 H1331 0.932 . S
C1367 C1362 1.388 . S
C1367 C1366 1.443 . S
H1368 C1386 0.951 . S
H1369 C1388 0.951 . S
H1370 C1390 0.950 . S
H1371 C1391 0.950 . S
H1372 C1393 0.950 . S
H1373 C1396 0.950 . S
H1374 C1397 0.950 . S
H1375 C1399 0.950 . S
H1376 C1400 0.950 . S
H1377 C1401 0.951 . S
H1378 C1403 0.951 . S
H1379 C1405 0.950 . S
H1380 C1406 0.950 . S
H1381 C1408 0.950 . S
H1382 C1411 0.950 . S
H1383 C1412 0.950 . S
H1384 C1414 0.950 . S
H1385 C1415 0.950 . S
C1386 H1368 0.951 . S
C1386 C1387 1.362 1_655 S
C1386 C1388 1.388 . S
C1387 C1386 1.362 1_455 S
C1387 C1391 1.386 . S
C1388 H1369 0.951 . S
C1388 C1386 1.388 . S
C1388 C1389 1.366 . S
C1389 C1388 1.366 . S
C1389 C1390 1.414 1_655 S
C1389 C1392 1.499 . S
C1390 H1370 0.950 . S
C1390 C1389 1.414 1_455 S
C1390 C1391 1.374 . S
C1391 H1371 0.950 . S
C1391 C1387 1.386 . S
C1391 C1390 1.374 . S
C1392 C1389 1.499 . S
C1392 C1393 1.373 1_655 S
C1392 C1394 1.389 . S
C1393 H1372 0.950 . S
C1393 C1392 1.373 1_455 S
C1393 C1409 1.377 . S
C1394 C1392 1.389 . S
C1394 C1395 1.524 . S
C1394 C1408 1.377 . S
C1395 C1394 1.524 . S
C1395 C1396 1.397 . S
C1395 C1400 1.363 . S
C1396 H1373 0.950 . S
C1396 C1395 1.397 . S
C1396 C1397 1.334 . S
C1397 H1374 0.950 . S
C1397 C1396 1.334 . S
C1397 C1398 1.287 . S
C1398 C1397 1.287 . S
C1398 C1399 1.524 . S
C1398 H1417 0.913 . S
C1399 H1375 0.950 . S
C1399 C1398 1.524 . S
C1399 C1400 1.415 . S
C1400 H1376 0.950 . S
C1400 C1395 1.363 . S
C1400 C1399 1.415 . S
C1401 H1377 0.951 . S
C1401 C1402 1.366 1_455 S
C1401 C1403 1.388 . S
C1402 C1401 1.366 1_655 S
C1402 C1406 1.385 . S
C1403 H1378 0.951 . S
C1403 C1401 1.388 . S
C1403 C1404 1.366 1_455 S
C1404 C1403 1.366 1_655 S
C1404 C1405 1.414 . S
C1404 C1407 1.499 . S
C1405 H1379 0.950 . S
C1405 C1404 1.414 . S
C1405 C1406 1.374 . S
C1406 H1380 0.950 . S
C1406 C1402 1.385 . S
C1406 C1405 1.374 . S
C1407 C1404 1.499 . S
C1407 C1408 1.373 . S
C1407 C1409 1.389 1_655 S
C1408 H1381 0.950 . S
C1408 C1394 1.377 . S
C1408 C1407 1.373 . S
C1409 C1393 1.377 . S
C1409 C1407 1.389 1_455 S
C1409 C1410 1.524 . S
C1410 C1409 1.524 . S
C1410 C1411 1.397 . S
C1410 C1415 1.363 . S
C1411 H1382 0.950 . S
C1411 C1410 1.397 . S
C1411 C1412 1.334 . S
C1412 H1383 0.950 . S
C1412 C1411 1.334 . S
C1412 C1413 1.287 . S
C1413 C1412 1.287 . S
C1413 C1414 1.524 . S
C1413 H1416 0.999 . S
C1414 H1384 0.950 . S
C1414 C1413 1.524 . S
C1414 C1415 1.415 . S
C1415 H1385 0.950 . S
C1415 C1410 1.363 . S
C1415 C1414 1.415 . S
H1416 C1413 0.999 . S
H1417 C1398 0.913 . S
H1418 C1436 0.951 . S
H1419 C1438 0.951 . S
H1420 C1440 0.950 . S
H1421 C1441 0.950 . S
H1422 C1443 0.950 . S
H1423 C1446 0.950 . S
H1424 C1447 0.950 . S
H1425 C1449 0.950 . S
H1426 C1450 0.950 . S
H1427 C1451 0.951 . S
H1428 C1453 0.951 . S
H1429 C1455 0.950 . S
H1430 C1456 0.950 . S
H1431 C1458 0.950 . S
H1432 C1461 0.950 . S
H1433 C1462 0.950 . S
H1434 C1464 0.950 . S
H1435 C1465 0.950 . S
C1436 H1418 0.951 . S
C1436 C1437 1.366 . S
C1436 C1438 1.388 . S
C1437 C1436 1.366 . S
C1437 C1441 1.385 . S
C1438 H1419 0.951 . S
C1438 C1436 1.388 . S
C1438 C1439 1.366 . S
C1439 C1438 1.366 . S
C1439 C1440 1.414 . S
C1439 C1442 1.499 . S
C1440 H1420 0.950 . S
C1440 C1439 1.414 . S
C1440 C1441 1.374 . S
C1441 H1421 0.950 . S
C1441 C1437 1.385 . S
C1441 C1440 1.374 . S
C1442 C1439 1.499 . S
C1442 C1443 1.373 . S
C1442 C1444 1.389 . S
C1443 H1422 0.950 . S
C1443 C1442 1.373 . S
C1443 C1459 1.377 . S
C1444 C1442 1.389 . S
C1444 C1445 1.524 . S
C1444 C1458 1.377 . S
C1445 C1444 1.524 . S
C1445 C1446 1.397 . S
C1445 C1450 1.363 . S
C1446 H1423 0.950 . S
C1446 C1445 1.397 . S
C1446 C1447 1.334 . S
C1447 H1424 0.950 . S
C1447 C1446 1.334 . S
C1447 C1448 1.287 . S
C1448 C1447 1.287 . S
C1448 C1449 1.524 . S
C1448 H1467 0.913 . S
C1449 H1425 0.950 . S
C1449 C1448 1.524 . S
C1449 C1450 1.415 . S
C1450 H1426 0.950 . S
C1450 C1445 1.363 . S
C1450 C1449 1.415 . S
C1451 H1427 0.951 . S
C1451 C1452 1.366 . S
C1451 C1453 1.388 . S
C1452 C1451 1.366 . S
C1452 C1456 1.385 . S
C1453 H1428 0.951 . S
C1453 C1451 1.388 . S
C1453 C1454 1.366 . S
C1454 C1453 1.366 . S
C1454 C1455 1.414 . S
C1454 C1457 1.499 . S
C1455 H1429 0.950 . S
C1455 C1454 1.414 . S
C1455 C1456 1.374 . S
C1456 H1430 0.950 . S
C1456 C1452 1.385 . S
C1456 C1455 1.374 . S
C1457 C1454 1.499 . S
C1457 C1458 1.373 . S
C1457 C1459 1.389 . S
C1458 H1431 0.950 . S
C1458 C1444 1.377 . S
C1458 C1457 1.373 . S
C1459 C1443 1.377 . S
C1459 C1457 1.389 . S
C1459 C1460 1.524 . S
C1460 C1459 1.524 . S
C1460 C1461 1.397 . S
C1460 C1465 1.363 . S
C1461 H1432 0.950 . S
C1461 C1460 1.397 . S
C1461 C1462 1.334 . S
C1462 H1433 0.950 . S
C1462 C1461 1.334 . S
C1462 C1463 1.287 . S
C1463 C1462 1.287 . S
C1463 C1464 1.524 . S
C1463 H1466 0.999 . S
C1464 H1434 0.950 . S
C1464 C1463 1.524 . S
C1464 C1465 1.415 . S
C1465 H1435 0.950 . S
C1465 C1460 1.363 . S
C1465 C1464 1.415 . S
H1466 C1463 0.999 . S
H1467 C1448 0.913 . S
H1468 C1486 0.951 . S
H1469 C1488 0.951 . S
H1470 C1490 0.950 . S
H1471 C1491 0.950 . S
H1472 C1493 0.926 . S
H1473 C1496 0.950 . S
H1474 C1497 0.950 . S
H1475 C1499 0.950 . S
H1476 C1500 0.950 . S
H1477 C1501 0.951 . S
H1478 C1503 0.951 . S
H1479 C1505 0.950 . S
H1480 C1506 0.950 . S
H1481 C1508 0.950 . S
H1482 C1511 0.950 . S
H1483 C1512 0.950 . S
H1484 C1514 0.950 . S
H1485 C1515 0.950 . S
C1486 H1468 0.951 . S
C1486 C1487 1.366 . S
C1486 C1488 1.388 . S
C1487 C1486 1.366 . S
C1487 C1491 1.385 1_545 S
C1488 H1469 0.951 . S
C1488 C1486 1.388 . S
C1488 C1489 1.366 . S
C1489 C1488 1.366 . S
C1489 C1490 1.414 1_545 S
C1489 C1492 1.499 . S
C1490 H1470 0.950 . S
C1490 C1489 1.414 1_565 S
C1490 C1491 1.374 . S
C1491 H1471 0.950 . S
C1491 C1487 1.385 1_565 S
C1491 C1490 1.374 . S
C1492 C1489 1.499 . S
C1492 C1493 1.373 . S
C1492 C1494 1.389 . S
C1493 H1472 0.926 . S
C1493 C1492 1.373 . S
C1493 C1509 1.377 . S
C1494 C1492 1.389 . S
C1494 C1495 1.524 . S
C1494 C1508 1.377 . S
C1495 C1494 1.524 . S
C1495 C1496 1.397 1_545 S
C1495 C1500 1.363 . S
C1496 H1473 0.950 . S
C1496 C1495 1.397 1_565 S
C1496 C1497 1.334 . S
C1497 H1474 0.950 . S
C1497 C1496 1.334 . S
C1497 C1498 1.287 1_565 S
C1498 C1497 1.287 1_545 S
C1498 C1499 1.524 . S
C1498 H1517 0.913 . S
C1499 H1475 0.950 . S
C1499 C1498 1.524 . S
C1499 C1500 1.415 . S
C1500 H1476 0.950 . S
C1500 C1495 1.363 . S
C1500 C1499 1.415 . S
C1501 H1477 0.951 . S
C1501 C1502 1.366 1_565 S
C1501 C1503 1.388 . S
C1502 C1501 1.366 1_545 S
C1502 C1506 1.385 . S
C1503 H1478 0.951 . S
C1503 C1501 1.388 . S
C1503 C1504 1.366 1_565 S
C1504 C1503 1.366 1_545 S
C1504 C1505 1.414 . S
C1504 C1507 1.499 . S
C1505 H1479 0.950 . S
C1505 C1504 1.414 . S
C1505 C1506 1.374 . S
C1506 H1480 0.950 . S
C1506 C1502 1.385 . S
C1506 C1505 1.374 . S
C1507 C1504 1.499 . S
C1507 C1508 1.373 . S
C1507 C1509 1.389 . S
C1508 H1481 0.950 . S
C1508 C1494 1.377 . S
C1508 C1507 1.373 . S
C1509 C1493 1.377 . S
C1509 C1507 1.389 . S
C1509 C1510 1.524 . S
C1510 C1509 1.524 . S
C1510 C1511 1.397 . S
C1510 C1515 1.363 1_545 S
C1511 H1482 0.950 . S
C1511 C1510 1.397 . S
C1511 C1512 1.334 . S
C1512 H1483 0.950 . S
C1512 C1511 1.334 . S
C1512 C1513 1.287 . S
C1513 C1512 1.287 . S
C1513 C1514 1.524 1_545 S
C1513 H1516 0.999 . S
C1514 H1484 0.950 . S
C1514 C1513 1.524 1_565 S
C1514 C1515 1.415 . S
C1515 H1485 0.950 . S
C1515 C1510 1.363 1_565 S
C1515 C1514 1.415 . S
H1516 C1513 0.999 . S
H1517 C1498 0.913 . S
H1518 C1536 0.984 . S
H1519 C1538 0.951 . S
H1520 C1540 0.950 . S
H1521 C1541 0.950 . S
H1522 C1543 0.950 . S
H1523 C1546 0.950 . S
H1524 C1547 0.950 . S
H1525 C1549 0.950 . S
H1526 C1550 0.950 . S
H1527 C1551 0.950 1_545 S
H1528 C1553 0.854 1_545 S
H1529 C1555 0.950 . S
H1530 C1556 0.950 . S
H1531 C1558 0.950 . S
H1532 C1561 0.950 . S
H1533 C1562 0.950 . S
H1534 C1564 0.950 . S
H1535 C1565 0.950 . S
C1536 H1518 0.984 . S
C1536 C1537 1.299 1_565 S
C1536 C1538 1.435 . S
C1537 C1536 1.299 1_545 S
C1537 C1541 1.385 . S
C1538 H1519 0.951 . S
C1538 C1536 1.435 . S
C1538 C1539 1.350 1_565 S
C1539 C1538 1.350 1_545 S
C1539 C1540 1.463 . S
C1539 C1542 1.476 . S
C1540 H1520 0.950 . S
C1540 C1539 1.463 . S
C1540 C1541 1.374 . S
C1541 H1521 0.950 . S
C1541 C1537 1.385 . S
C1541 C1540 1.374 . S
C1542 C1539 1.476 . S
C1542 C1543 1.366 1_545 S
C1542 C1544 1.389 . S
C1543 H1522 0.950 . S
C1543 C1542 1.366 1_565 S
C1543 C1559 1.377 . S
C1544 C1542 1.389 . S
C1544 C1545 1.524 . S
C1544 C1558 1.377 . S
C1545 C1544 1.524 . S
C1545 C1546 1.397 . S
C1545 C1550 1.363 . S
C1546 H1523 0.950 . S
C1546 C1545 1.397 . S
C1546 C1547 1.334 . S
C1547 H1524 0.950 . S
C1547 C1546 1.334 . S
C1547 C1548 1.287 . S
C1548 C1547 1.287 . S
C1548 C1549 1.524 . S
C1548 H1567 0.913 . S
C1549 H1525 0.950 . S
C1549 C1548 1.524 . S
C1549 C1550 1.415 . S
C1550 H1526 0.950 . S
C1550 C1545 1.363 . S
C1550 C1549 1.415 . S
C1551 H1527 0.950 1_565 S
C1551 C1552 1.366 . S
C1551 C1553 1.433 . S
C1552 C1551 1.366 . S
C1552 C1556 1.385 . S
C1553 H1528 0.854 1_565 S
C1553 C1551 1.433 . S
C1553 C1554 1.395 . S
C1554 C1553 1.395 . S
C1554 C1555 1.414 . S
C1554 C1557 1.499 . S
C1555 H1529 0.950 . S
C1555 C1554 1.414 . S
C1555 C1556 1.374 . S
C1556 H1530 0.950 . S
C1556 C1552 1.385 . S
C1556 C1555 1.374 . S
C1557 C1554 1.499 . S
C1557 C1558 1.373 1_565 S
C1557 C1559 1.389 . S
C1558 H1531 0.950 . S
C1558 C1544 1.377 . S
C1558 C1557 1.373 1_545 S
C1559 C1543 1.377 . S
C1559 C1557 1.389 . S
C1559 C1560 1.524 . S
C1560 C1559 1.524 . S
C1560 C1561 1.397 . S
C1560 C1565 1.363 . S
C1561 H1532 0.950 . S
C1561 C1560 1.397 . S
C1561 C1562 1.334 . S
C1562 H1533 0.950 . S
C1562 C1561 1.334 . S
C1562 C1563 1.287 . S
C1563 C1562 1.287 . S
C1563 C1564 1.524 . S
C1563 H1566 0.999 . S
C1564 H1534 0.950 . S
C1564 C1563 1.524 . S
C1564 C1565 1.415 . S
C1565 H1535 0.950 . S
C1565 C1560 1.363 . S
C1565 C1564 1.415 . S
H1566 C1563 0.999 . S
H1567 C1548 0.913 . S
H1568 C1586 0.951 . S
H1569 C1588 0.951 . S
H1570 C1590 0.950 . S
H1571 C1591 0.950 . S
H1572 C1593 0.950 . S
H1573 C1596 0.950 . S
H1574 C1597 0.950 . S
H1575 C1599 0.950 . S
H1576 C1600 0.950 . S
H1577 C1601 0.951 . S
H1578 C1603 0.951 . S
H1579 C1605 0.950 . S
H1580 C1606 0.950 . S
H1581 C1608 0.950 . S
H1582 C1611 0.950 . S
H1583 C1612 0.950 . S
H1584 C1614 0.950 . S
H1585 C1615 0.950 . S
C1586 H1568 0.951 . S
C1586 C1587 1.366 1_655 S
C1586 C1588 1.388 . S
C1587 C1586 1.366 1_455 S
C1587 C1591 1.385 . S
C1588 H1569 0.951 . S
C1588 C1586 1.388 . S
C1588 C1589 1.366 1_655 S
C1589 C1588 1.366 1_455 S
C1589 C1590 1.414 . S
C1589 C1592 1.499 . S
C1590 H1570 0.950 . S
C1590 C1589 1.414 . S
C1590 C1591 1.374 . S
C1591 H1571 0.950 . S
C1591 C1587 1.385 . S
C1591 C1590 1.374 . S
C1592 C1589 1.499 . S
C1592 C1593 1.373 . S
C1592 C1594 1.389 1_455 S
C1593 H1572 0.950 . S
C1593 C1592 1.373 . S
C1593 C1609 1.377 . S
C1594 C1592 1.389 1_655 S
C1594 C1595 1.524 . S
C1594 C1608 1.377 . S
C1595 C1594 1.524 . S
C1595 C1596 1.397 . S
C1595 C1600 1.363 . S
C1596 H1573 0.950 . S
C1596 C1595 1.397 . S
C1596 C1597 1.334 . S
C1597 H1574 0.950 . S
C1597 C1596 1.334 . S
C1597 C1598 1.287 . S
C1598 C1597 1.287 . S
C1598 C1599 1.524 . S
C1598 H1617 0.913 . S
C1599 H1575 0.950 . S
C1599 C1598 1.524 . S
C1599 C1600 1.415 . S
C1600 H1576 0.950 . S
C1600 C1595 1.363 . S
C1600 C1599 1.415 . S
C1601 H1577 0.951 . S
C1601 C1602 1.366 . S
C1601 C1603 1.388 . S
C1602 C1601 1.366 . S
C1602 C1606 1.385 1_455 S
C1603 H1578 0.951 . S
C1603 C1601 1.388 . S
C1603 C1604 1.366 . S
C1604 C1603 1.366 . S
C1604 C1605 1.414 1_455 S
C1604 C1607 1.499 . S
C1605 H1579 0.950 . S
C1605 C1604 1.414 1_655 S
C1605 C1606 1.374 . S
C1606 H1580 0.950 . S
C1606 C1602 1.385 1_655 S
C1606 C1605 1.374 . S
C1607 C1604 1.499 . S
C1607 C1608 1.373 1_455 S
C1607 C1609 1.389 . S
C1608 H1581 0.950 . S
C1608 C1594 1.377 . S
C1608 C1607 1.373 1_655 S
C1609 C1593 1.377 . S
C1609 C1607 1.389 . S
C1609 C1610 1.524 . S
C1610 C1609 1.524 . S
C1610 C1611 1.397 . S
C1610 C1615 1.363 . S
C1611 H1582 0.950 . S
C1611 C1610 1.397 . S
C1611 C1612 1.334 . S
C1612 H1583 0.950 . S
C1612 C1611 1.334 . S
C1612 C1613 1.287 . S
C1613 C1612 1.287 . S
C1613 C1614 1.524 . S
C1613 H1616 0.999 . S
C1614 H1584 0.950 . S
C1614 C1613 1.524 . S
C1614 C1615 1.415 . S
C1615 H1585 0.950 . S
C1615 C1610 1.363 . S
C1615 C1614 1.415 . S
H1616 C1613 0.999 . S
H1617 C1598 0.913 . S
H1618 C1636 0.951 . S
H1619 C1638 0.951 . S
H1620 C1640 0.950 . S
H1621 C1641 0.950 . S
H1622 C1643 0.950 . S
H1623 C1646 0.950 . S
H1624 C1647 0.950 . S
H1625 C1649 0.950 . S
H1626 C1650 0.950 . S
H1627 C1651 0.951 . S
H1628 C1653 0.951 . S
H1629 C1655 0.950 . S
H1630 C1656 0.950 . S
H1631 C1658 0.950 . S
H1632 C1661 0.950 . S
H1633 C1662 0.950 . S
H1634 C1664 0.950 . S
H1635 C1665 0.950 . S
C1636 H1618 0.951 . S
C1636 C1637 1.366 . S
C1636 C1638 1.388 . S
C1637 C1636 1.366 . S
C1637 C1641 1.385 . S
C1638 H1619 0.951 . S
C1638 C1636 1.388 . S
C1638 C1639 1.366 . S
C1639 C1638 1.366 . S
C1639 C1640 1.414 . S
C1639 C1642 1.499 . S
C1640 H1620 0.950 . S
C1640 C1639 1.414 . S
C1640 C1641 1.374 . S
C1641 H1621 0.950 . S
C1641 C1637 1.385 . S
C1641 C1640 1.374 . S
C1642 C1639 1.499 . S
C1642 C1643 1.373 . S
C1642 C1644 1.389 . S
C1643 H1622 0.950 . S
C1643 C1642 1.373 . S
C1643 C1659 1.377 . S
C1644 C1642 1.389 . S
C1644 C1645 1.524 . S
C1644 C1658 1.377 . S
C1645 C1644 1.524 . S
C1645 C1646 1.397 . S
C1645 C1650 1.363 . S
C1646 H1623 0.950 . S
C1646 C1645 1.397 . S
C1646 C1647 1.334 . S
C1647 H1624 0.950 . S
C1647 C1646 1.334 . S
C1647 C1648 1.287 . S
C1648 C1647 1.287 . S
C1648 C1649 1.524 . S
C1648 H1667 0.913 . S
C1649 H1625 0.950 . S
C1649 C1648 1.524 . S
C1649 C1650 1.415 . S
C1650 H1626 0.950 . S
C1650 C1645 1.363 . S
C1650 C1649 1.415 . S
C1651 H1627 0.951 . S
C1651 C1652 1.366 . S
C1651 C1653 1.388 . S
C1652 C1651 1.366 . S
C1652 C1656 1.385 . S
C1653 H1628 0.951 . S
C1653 C1651 1.388 . S
C1653 C1654 1.366 . S
C1654 C1653 1.366 . S
C1654 C1655 1.414 . S
C1654 C1657 1.499 . S
C1655 H1629 0.950 . S
C1655 C1654 1.414 . S
C1655 C1656 1.374 . S
C1656 H1630 0.950 . S
C1656 C1652 1.385 . S
C1656 C1655 1.374 . S
C1657 C1654 1.499 . S
C1657 C1658 1.373 . S
C1657 C1659 1.389 . S
C1658 H1631 0.950 . S
C1658 C1644 1.377 . S
C1658 C1657 1.373 . S
C1659 C1643 1.377 . S
C1659 C1657 1.389 . S
C1659 C1660 1.524 . S
C1660 C1659 1.524 . S
C1660 C1661 1.397 . S
C1660 C1665 1.363 . S
C1661 H1632 0.950 . S
C1661 C1660 1.397 . S
C1661 C1662 1.334 . S
C1662 H1633 0.950 . S
C1662 C1661 1.334 . S
C1662 C1663 1.287 . S
C1663 C1662 1.287 . S
C1663 C1664 1.524 . S
C1663 H1666 0.999 . S
C1664 H1634 0.950 . S
C1664 C1663 1.524 . S
C1664 C1665 1.415 . S
C1665 H1635 0.950 . S
C1665 C1660 1.363 . S
C1665 C1664 1.415 . S
H1666 C1663 0.999 . S
H1667 C1648 0.913 . S
H1668 C1686 0.951 . S
H1669 C1688 0.951 . S
H1670 C1690 0.950 . S
H1671 C1691 0.950 . S
H1672 C1693 0.950 . S
H1673 C1696 0.950 . S
H1674 C1697 0.950 . S
H1675 C1699 0.950 . S
H1676 C1700 0.950 . S
H1677 C1701 0.951 . S
H1678 C1703 0.951 . S
H1679 C1705 0.950 . S
H1680 C1706 0.950 . S
H1681 C1708 0.950 . S
H1682 C1711 0.950 1_455 S
H1683 C1712 0.950 . S
H1684 C1714 0.950 . S
H1685 C1715 0.950 . S
C1686 H1668 0.951 . S
C1686 C1687 1.366 . S
C1686 C1688 1.388 . S
C1687 C1686 1.366 . S
C1687 C1691 1.385 1_455 S
C1688 H1669 0.951 . S
C1688 C1686 1.388 . S
C1688 C1689 1.366 . S
C1689 C1688 1.366 . S
C1689 C1690 1.414 1_455 S
C1689 C1692 1.499 . S
C1690 H1670 0.950 . S
C1690 C1689 1.414 1_655 S
C1690 C1691 1.374 . S
C1691 H1671 0.950 . S
C1691 C1687 1.385 1_655 S
C1691 C1690 1.374 . S
C1692 C1689 1.499 . S
C1692 C1693 1.373 1_455 S
C1692 C1694 1.389 . S
C1693 H1672 0.950 . S
C1693 C1692 1.373 1_655 S
C1693 C1709 1.377 . S
C1694 C1692 1.389 . S
C1694 C1695 1.524 . S
C1694 C1708 1.377 . S
C1695 C1694 1.524 . S
C1695 C1696 1.397 . S
C1695 C1700 1.363 . S
C1696 H1673 0.950 . S
C1696 C1695 1.397 . S
C1696 C1697 1.334 . S
C1697 H1674 0.950 . S
C1697 C1696 1.334 . S
C1697 C1698 1.287 . S
C1698 C1697 1.287 . S
C1698 C1699 1.524 . S
C1698 H1717 0.913 . S
C1699 H1675 0.950 . S
C1699 C1698 1.524 . S
C1699 C1700 1.415 . S
C1700 H1676 0.950 . S
C1700 C1695 1.363 . S
C1700 C1699 1.415 . S
C1701 H1677 0.951 . S
C1701 C1702 1.366 1_655 S
C1701 C1703 1.388 . S
C1702 C1701 1.366 1_455 S
C1702 C1706 1.385 . S
C1703 H1678 0.951 . S
C1703 C1701 1.388 . S
C1703 C1704 1.366 1_655 S
C1704 C1703 1.366 1_455 S
C1704 C1705 1.414 . S
C1704 C1707 1.499 . S
C1705 H1679 0.950 . S
C1705 C1704 1.414 . S
C1705 C1706 1.374 . S
C1706 H1680 0.950 . S
C1706 C1702 1.385 . S
C1706 C1705 1.374 . S
C1707 C1704 1.499 . S
C1707 C1708 1.373 . S
C1707 C1709 1.389 1_455 S
C1708 H1681 0.950 . S
C1708 C1694 1.377 . S
C1708 C1707 1.373 . S
C1709 C1693 1.377 . S
C1709 C1707 1.389 1_655 S
C1709 C1710 1.524 . S
C1710 C1709 1.524 . S
C1710 C1711 1.397 . S
C1710 C1715 1.363 . S
C1711 H1682 0.950 1_655 S
C1711 C1710 1.397 . S
C1711 C1712 1.334 . S
C1712 H1683 0.950 . S
C1712 C1711 1.334 . S
C1712 C1713 1.287 . S
C1713 C1712 1.287 . S
C1713 C1714 1.524 . S
C1713 H1716 0.999 . S
C1714 H1684 0.950 . S
C1714 C1713 1.524 . S
C1714 C1715 1.415 . S
C1715 H1685 0.950 . S
C1715 C1710 1.363 . S
C1715 C1714 1.415 . S
H1716 C1713 0.999 . S
H1717 C1698 0.913 . S
H1718 C1736 0.951 . S
H1719 C1738 0.951 . S
H1720 C1740 0.950 . S
H1721 C1741 0.950 . S
H1722 C1743 0.950 . S
H1723 C1746 0.950 . S
H1724 C1747 0.950 . S
H1725 C1749 0.950 . S
H1726 C1750 0.950 . S
H1727 C1751 0.951 . S
H1728 C1753 0.951 . S
H1729 C1755 0.950 . S
H1730 C1756 0.950 . S
H1731 C1758 0.950 . S
H1732 C1761 0.950 . S
H1733 C1762 0.950 . S
H1734 C1764 0.950 . S
H1735 C1765 0.950 . S
C1736 H1718 0.951 . S
C1736 C1737 1.366 . S
C1736 C1738 1.388 . S
C1737 C1736 1.366 . S
C1737 C1741 1.385 . S
C1738 H1719 0.951 . S
C1738 C1736 1.388 . S
C1738 C1739 1.366 . S
C1739 C1738 1.366 . S
C1739 C1740 1.414 . S
C1739 C1742 1.499 . S
C1740 H1720 0.950 . S
C1740 C1739 1.414 . S
C1740 C1741 1.374 . S
C1741 H1721 0.950 . S
C1741 C1737 1.385 . S
C1741 C1740 1.374 . S
C1742 C1739 1.499 . S
C1742 C1743 1.373 . S
C1742 C1744 1.389 . S
C1743 H1722 0.950 . S
C1743 C1742 1.373 . S
C1743 C1759 1.377 . S
C1744 C1742 1.389 . S
C1744 C1745 1.524 . S
C1744 C1758 1.377 . S
C1745 C1744 1.524 . S
C1745 C1746 1.397 . S
C1745 C1750 1.363 . S
C1746 H1723 0.950 . S
C1746 C1745 1.397 . S
C1746 C1747 1.334 . S
C1747 H1724 0.950 . S
C1747 C1746 1.334 . S
C1747 C1748 1.287 . S
C1748 C1747 1.287 . S
C1748 C1749 1.524 . S
C1748 H1767 0.913 . S
C1749 H1725 0.950 . S
C1749 C1748 1.524 . S
C1749 C1750 1.415 . S
C1750 H1726 0.950 . S
C1750 C1745 1.363 . S
C1750 C1749 1.415 . S
C1751 H1727 0.951 . S
C1751 C1752 1.366 . S
C1751 C1753 1.388 . S
C1752 C1751 1.366 . S
C1752 C1756 1.385 . S
C1753 H1728 0.951 . S
C1753 C1751 1.388 . S
C1753 C1754 1.366 . S
C1754 C1753 1.366 . S
C1754 C1755 1.414 . S
C1754 C1757 1.499 . S
C1755 H1729 0.950 . S
C1755 C1754 1.414 . S
C1755 C1756 1.374 . S
C1756 H1730 0.950 . S
C1756 C1752 1.385 . S
C1756 C1755 1.374 . S
C1757 C1754 1.499 . S
C1757 C1758 1.373 . S
C1757 C1759 1.389 . S
C1758 H1731 0.950 . S
C1758 C1744 1.377 . S
C1758 C1757 1.373 . S
C1759 C1743 1.377 . S
C1759 C1757 1.389 . S
C1759 C1760 1.524 . S
C1760 C1759 1.524 . S
C1760 C1761 1.397 . S
C1760 C1765 1.363 . S
C1761 H1732 0.950 . S
C1761 C1760 1.397 . S
C1761 C1762 1.334 . S
C1762 H1733 0.950 . S
C1762 C1761 1.334 . S
C1762 C1763 1.287 . S
C1763 C1762 1.287 . S
C1763 C1764 1.524 . S
C1763 H1766 0.999 . S
C1764 H1734 0.950 . S
C1764 C1763 1.524 . S
C1764 C1765 1.415 . S
C1765 H1735 0.950 . S
C1765 C1760 1.363 . S
C1765 C1764 1.415 . S
H1766 C1763 0.999 . S
H1767 C1748 0.913 . S
H1768 C1786 0.951 . S
H1769 C1788 0.951 . S
H1770 C1790 0.950 . S
H1771 C1791 0.950 . S
H1772 C1793 0.950 . S
H1773 C1796 0.950 . S
H1774 C1797 0.950 . S
H1775 C1799 0.950 . S
H1776 C1800 0.950 . S
H1777 C1801 0.951 . S
H1778 C1803 0.951 . S
H1779 C1805 0.950 . S
H1780 C1806 0.950 . S
H1781 C1808 0.950 . S
H1782 C1811 0.950 . S
H1783 C1812 0.950 . S
H1784 C1814 0.950 . S
H1785 C1815 0.950 . S
C1786 H1768 0.951 . S
C1786 C1787 1.315 1_545 S
C1786 C1788 1.388 . S
C1787 C1786 1.315 1_565 S
C1787 C1791 1.405 . S
C1788 H1769 0.951 . S
C1788 C1786 1.388 . S
C1788 C1789 1.366 1_545 S
C1789 C1788 1.366 1_565 S
C1789 C1790 1.414 . S
C1789 C1792 1.499 . S
C1790 H1770 0.950 . S
C1790 C1789 1.414 . S
C1790 C1791 1.374 . S
C1791 H1771 0.950 . S
C1791 C1787 1.405 . S
C1791 C1790 1.374 . S
C1792 C1789 1.499 . S
C1792 C1793 1.373 . S
C1792 C1794 1.389 1_565 S
C1793 H1772 0.950 . S
C1793 C1792 1.373 . S
C1793 C1809 1.377 . S
C1794 C1792 1.389 1_545 S
C1794 C1795 1.524 . S
C1794 C1808 1.377 . S
C1795 C1794 1.524 . S
C1795 C1796 1.397 . S
C1795 C1800 1.363 . S
C1796 H1773 0.950 . S
C1796 C1795 1.397 . S
C1796 C1797 1.334 . S
C1797 H1774 0.950 . S
C1797 C1796 1.334 . S
C1797 C1798 1.287 . S
C1798 C1797 1.287 . S
C1798 C1799 1.524 . S
C1798 H1817 0.913 . S
C1799 H1775 0.950 . S
C1799 C1798 1.524 . S
C1799 C1800 1.415 . S
C1800 H1776 0.950 . S
C1800 C1795 1.363 . S
C1800 C1799 1.415 . S
C1801 H1777 0.951 . S
C1801 C1802 1.366 . S
C1801 C1803 1.388 . S
C1802 C1801 1.366 . S
C1802 C1806 1.385 1_565 S
C1803 H1778 0.951 . S
C1803 C1801 1.388 . S
C1803 C1804 1.366 . S
C1804 C1803 1.366 . S
C1804 C1805 1.414 1_565 S
C1804 C1807 1.499 . S
C1805 H1779 0.950 . S
C1805 C1804 1.414 1_545 S
C1805 C1806 1.374 . S
C1806 H1780 0.950 . S
C1806 C1802 1.385 1_545 S
C1806 C1805 1.374 . S
C1807 C1804 1.499 . S
C1807 C1808 1.373 1_565 S
C1807 C1809 1.389 . S
C1808 H1781 0.950 . S
C1808 C1794 1.377 . S
C1808 C1807 1.373 1_545 S
C1809 C1793 1.377 . S
C1809 C1807 1.389 . S
C1809 C1810 1.524 . S
C1810 C1809 1.524 . S
C1810 C1811 1.397 . S
C1810 C1815 1.363 . S
C1811 H1782 0.950 . S
C1811 C1810 1.397 . S
C1811 C1812 1.334 . S
C1812 H1783 0.950 . S
C1812 C1811 1.334 . S
C1812 C1813 1.287 . S
C1813 C1812 1.287 . S
C1813 C1814 1.524 . S
C1813 H1816 0.999 . S
C1814 H1784 0.950 . S
C1814 C1813 1.524 . S
C1814 C1815 1.415 . S
C1815 H1785 0.950 . S
C1815 C1810 1.363 . S
C1815 C1814 1.415 . S
H1816 C1813 0.999 . S
H1817 C1798 0.913 . S
H1818 C1836 0.951 . S
H1819 C1838 0.951 . S
H1820 C1840 0.953 1_565 S
H1821 C1841 0.969 . S
H1822 C1843 0.950 . S
H1823 C1846 0.950 . S
H1824 C1847 0.950 . S
H1825 C1849 0.950 . S
H1826 C1850 0.950 . S
H1827 C1851 0.945 1_565 S
H1828 C1853 0.905 1_565 S
H1829 C1855 0.950 . S
H1830 C1856 0.950 . S
H1831 C1858 0.950 . S
H1832 C1861 0.950 . S
H1833 C1862 0.950 . S
H1834 C1864 0.950 . S
H1835 C1865 0.950 . S
C1836 H1818 0.951 . S
C1836 C1837 1.366 . S
C1836 C1838 1.388 . S
C1837 C1836 1.366 . S
C1837 C1841 1.377 1_545 S
C1838 H1819 0.951 . S
C1838 C1836 1.388 . S
C1838 C1839 1.366 . S
C1839 C1838 1.366 . S
C1839 C1840 1.409 . S
C1839 C1842 1.499 . S
C1840 H1820 0.953 1_545 S
C1840 C1839 1.409 . S
C1840 C1841 1.365 1_545 S
C1841 H1821 0.969 . S
C1841 C1837 1.377 1_565 S
C1841 C1840 1.365 1_565 S
C1842 C1839 1.499 . S
C1842 C1843 1.373 1_545 S
C1842 C1844 1.389 . S
C1843 H1822 0.950 . S
C1843 C1842 1.373 1_565 S
C1843 C1859 1.377 . S
C1844 C1842 1.389 . S
C1844 C1845 1.524 . S
C1844 C1858 1.377 . S
C1845 C1844 1.524 . S
C1845 C1846 1.397 . S
C1845 C1850 1.363 . S
C1846 H1823 0.950 . S
C1846 C1845 1.397 . S
C1846 C1847 1.334 . S
C1847 H1824 0.950 . S
C1847 C1846 1.334 . S
C1847 C1848 1.287 . S
C1848 C1847 1.287 . S
C1848 C1849 1.524 . S
C1848 H1867 0.913 . S
C1849 H1825 0.950 . S
C1849 C1848 1.524 . S
C1849 C1850 1.415 . S
C1850 H1826 0.950 . S
C1850 C1845 1.363 . S
C1850 C1849 1.415 . S
C1851 H1827 0.945 1_545 S
C1851 C1852 1.366 . S
C1851 C1853 1.418 . S
C1852 C1851 1.366 . S
C1852 C1856 1.385 . S
C1853 H1828 0.905 1_545 S
C1853 C1851 1.418 . S
C1853 C1854 1.385 . S
C1854 C1853 1.385 . S
C1854 C1855 1.414 . S
C1854 C1857 1.499 . S
C1855 H1829 0.950 . S
C1855 C1854 1.414 . S
C1855 C1856 1.374 . S
C1856 H1830 0.950 . S
C1856 C1852 1.385 . S
C1856 C1855 1.374 . S
C1857 C1854 1.499 . S
C1857 C1858 1.373 . S
C1857 C1859 1.389 1_545 S
C1858 H1831 0.950 . S
C1858 C1844 1.377 . S
C1858 C1857 1.373 . S
C1859 C1843 1.377 . S
C1859 C1857 1.389 1_565 S
C1859 C1860 1.524 . S
C1860 C1859 1.524 . S
C1860 C1861 1.397 . S
C1860 C1865 1.363 . S
C1861 H1832 0.950 . S
C1861 C1860 1.397 . S
C1861 C1862 1.334 . S
C1862 H1833 0.950 . S
C1862 C1861 1.334 . S
C1862 C1863 1.287 . S
C1863 C1862 1.287 . S
C1863 C1864 1.524 . S
C1863 H1866 0.999 . S
C1864 H1834 0.950 . S
C1864 C1863 1.524 . S
C1864 C1865 1.415 . S
C1865 H1835 0.950 . S
C1865 C1860 1.363 . S
C1865 C1864 1.415 . S
H1866 C1863 0.999 . S
H1867 C1848 0.913 . S
H1868 C1886 0.951 . S
H1869 C1888 0.951 . S
H1870 C1890 0.950 . S
H1871 C1891 0.950 . S
H1872 C1893 0.927 . S
H1873 C1896 0.950 . S
H1874 C1897 0.950 . S
H1875 C1899 0.950 . S
H1876 C1900 0.950 1_455 S
H1877 C1901 0.951 . S
H1878 C1903 0.951 . S
H1879 C1905 0.950 . S
H1880 C1906 0.950 . S
H1881 C1908 0.950 . S
H1882 C1911 0.950 . S
H1883 C1912 0.950 . S
H1884 C1914 0.950 . S
H1885 C1915 0.848 1_655 S
C1886 H1868 0.951 . S
C1886 C1887 1.358 . S
C1886 C1888 1.388 . S
C1887 C1886 1.358 . S
C1887 C1891 1.389 1_455 S
C1888 H1869 0.951 . S
C1888 C1886 1.388 . S
C1888 C1889 1.366 1_455 S
C1889 C1888 1.366 1_655 S
C1889 C1890 1.414 . S
C1889 C1892 1.499 . S
C1890 H1870 0.950 . S
C1890 C1889 1.414 . S
C1890 C1891 1.374 . S
C1891 H1871 0.950 . S
C1891 C1887 1.389 1_655 S
C1891 C1890 1.374 . S
C1892 C1889 1.499 . S
C1892 C1893 1.365 1_655 S
C1892 C1894 1.389 . S
C1893 H1872 0.927 . S
C1893 C1892 1.365 1_455 S
C1893 C1909 1.417 . S
C1894 C1892 1.389 . S
C1894 C1895 1.524 . S
C1894 C1908 1.377 . S
C1895 C1894 1.524 . S
C1895 C1896 1.397 . S
C1895 C1900 1.363 . S
C1896 H1873 0.950 . S
C1896 C1895 1.397 . S
C1896 C1897 1.334 . S
C1897 H1874 0.950 . S
C1897 C1896 1.334 . S
C1897 C1898 1.287 . S
C1898 C1897 1.287 . S
C1898 C1899 1.524 . S
C1898 H1917 0.913 . S
C1899 H1875 0.950 . S
C1899 C1898 1.524 . S
C1899 C1900 1.415 . S
C1900 H1876 0.950 1_655 S
C1900 C1895 1.363 . S
C1900 C1899 1.415 . S
C1901 H1877 0.951 . S
C1901 C1902 1.366 . S
C1901 C1903 1.388 . S
C1902 C1901 1.366 . S
C1902 C1906 1.385 1_655 S
C1903 H1878 0.951 . S
C1903 C1901 1.388 . S
C1903 C1904 1.366 . S
C1904 C1903 1.366 . S
C1904 C1905 1.414 1_655 S
C1904 C1907 1.499 . S
C1905 H1879 0.950 . S
C1905 C1904 1.414 1_455 S
C1905 C1906 1.374 . S
C1906 H1880 0.950 . S
C1906 C1902 1.385 1_455 S
C1906 C1905 1.374 . S
C1907 C1904 1.499 . S
C1907 C1908 1.373 . S
C1907 C1909 1.389 1_655 S
C1908 H1881 0.950 . S
C1908 C1894 1.377 . S
C1908 C1907 1.373 . S
C1909 C1893 1.417 . S
C1909 C1907 1.389 1_455 S
C1909 C1910 1.524 . S
C1910 C1909 1.524 . S
C1910 C1911 1.397 . S
C1910 C1915 1.448 . S
C1911 H1882 0.950 . S
C1911 C1910 1.397 . S
C1911 C1912 1.334 . S
C1912 H1883 0.950 . S
C1912 C1911 1.334 . S
C1912 C1913 1.287 . S
C1913 C1912 1.287 . S
C1913 C1914 1.524 . S
C1913 H1916 0.999 . S
C1914 H1884 0.950 . S
C1914 C1913 1.524 . S
C1914 C1915 1.438 . S
C1915 H1885 0.848 1_455 S
C1915 C1910 1.448 . S
C1915 C1914 1.438 . S
H1916 C1913 0.999 . S
H1917 C1898 0.913 . S
H1918 C1936 0.951 . S
H1919 C1938 0.951 . S
H1920 C1940 0.950 . S
H1921 C1941 0.950 . S
H1922 C1943 0.950 . S
H1923 C1946 0.950 . S
H1924 C1947 0.950 . S
H1925 C1949 0.950 . S
H1926 C1950 0.950 . S
H1927 C1951 0.951 . S
H1928 C1953 0.951 . S
H1929 C1955 0.950 . S
H1930 C1956 0.950 . S
H1931 C1958 0.950 . S
H1932 C1961 0.950 . S
H1933 C1962 0.950 . S
H1934 C1964 0.950 . S
H1935 C1965 0.950 . S
C1936 H1918 0.951 . S
C1936 C1937 1.366 . S
C1936 C1938 1.388 . S
C1937 C1936 1.366 . S
C1937 C1941 1.385 . S
C1938 H1919 0.951 . S
C1938 C1936 1.388 . S
C1938 C1939 1.366 . S
C1939 C1938 1.366 . S
C1939 C1940 1.414 . S
C1939 C1942 1.499 . S
C1940 H1920 0.950 . S
C1940 C1939 1.414 . S
C1940 C1941 1.374 . S
C1941 H1921 0.950 . S
C1941 C1937 1.385 . S
C1941 C1940 1.374 . S
C1942 C1939 1.499 . S
C1942 C1943 1.373 . S
C1942 C1944 1.389 . S
C1943 H1922 0.950 . S
C1943 C1942 1.373 . S
C1943 C1959 1.377 . S
C1944 C1942 1.389 . S
C1944 C1945 1.524 . S
C1944 C1958 1.377 . S
C1945 C1944 1.524 . S
C1945 C1946 1.397 . S
C1945 C1950 1.363 . S
C1946 H1923 0.950 . S
C1946 C1945 1.397 . S
C1946 C1947 1.334 . S
C1947 H1924 0.950 . S
C1947 C1946 1.334 . S
C1947 C1948 1.287 . S
C1948 C1947 1.287 . S
C1948 C1949 1.524 . S
C1948 H1967 0.913 . S
C1949 H1925 0.950 . S
C1949 C1948 1.524 . S
C1949 C1950 1.415 . S
C1950 H1926 0.950 . S
C1950 C1945 1.363 . S
C1950 C1949 1.415 . S
C1951 H1927 0.951 . S
C1951 C1952 1.366 . S
C1951 C1953 1.388 . S
C1952 C1951 1.366 . S
C1952 C1956 1.385 . S
C1953 H1928 0.951 . S
C1953 C1951 1.388 . S
C1953 C1954 1.366 . S
C1954 C1953 1.366 . S
C1954 C1955 1.414 . S
C1954 C1957 1.499 . S
C1955 H1929 0.950 . S
C1955 C1954 1.414 . S
C1955 C1956 1.374 . S
C1956 H1930 0.950 . S
C1956 C1952 1.385 . S
C1956 C1955 1.374 . S
C1957 C1954 1.499 . S
C1957 C1958 1.373 . S
C1957 C1959 1.389 . S
C1958 H1931 0.950 . S
C1958 C1944 1.377 . S
C1958 C1957 1.373 . S
C1959 C1943 1.377 . S
C1959 C1957 1.389 . S
C1959 C1960 1.524 . S
C1960 C1959 1.524 . S
C1960 C1961 1.397 . S
C1960 C1965 1.363 . S
C1961 H1932 0.950 . S
C1961 C1960 1.397 . S
C1961 C1962 1.334 . S
C1962 H1933 0.950 . S
C1962 C1961 1.334 . S
C1962 C1963 1.287 . S
C1963 C1962 1.287 . S
C1963 C1964 1.524 . S
C1963 H1966 0.999 . S
C1964 H1934 0.950 . S
C1964 C1963 1.524 . S
C1964 C1965 1.415 . S
C1965 H1935 0.950 . S
C1965 C1960 1.363 . S
C1965 C1964 1.415 . S
H1966 C1963 0.999 . S
H1967 C1948 0.913 . S
H1968 C1986 0.951 . S
H1969 C1988 0.951 . S
H1970 C1990 0.950 . S
H1971 C1991 0.950 . S
H1972 C1993 0.950 . S
H1973 C1996 0.950 . S
H1974 C1997 0.950 . S
H1975 C1999 0.950 . S
H1976 C2000 0.950 . S
H1977 C2001 0.951 . S
H1978 C2003 0.951 . S
H1979 C2005 0.950 . S
H1980 C2006 0.950 . S
H1981 C2008 0.950 . S
H1982 C2011 0.950 . S
H1983 C2012 0.950 . S
H1984 C2014 0.950 . S
H1985 C2015 0.950 . S
C1986 H1968 0.951 . S
C1986 C1987 1.366 . S
C1986 C1988 1.388 . S
C1987 C1986 1.366 . S
C1987 C1991 1.385 . S
C1988 H1969 0.951 . S
C1988 C1986 1.388 . S
C1988 C1989 1.366 . S
C1989 C1988 1.366 . S
C1989 C1990 1.414 . S
C1989 C1992 1.499 . S
C1990 H1970 0.950 . S
C1990 C1989 1.414 . S
C1990 C1991 1.374 . S
C1991 H1971 0.950 . S
C1991 C1987 1.385 . S
C1991 C1990 1.374 . S
C1992 C1989 1.499 . S
C1992 C1993 1.373 . S
C1992 C1994 1.389 . S
C1993 H1972 0.950 . S
C1993 C1992 1.373 . S
C1993 C2009 1.377 . S
C1994 C1992 1.389 . S
C1994 C1995 1.524 . S
C1994 C2008 1.377 . S
C1995 C1994 1.524 . S
C1995 C1996 1.397 . S
C1995 C2000 1.363 . S
C1996 H1973 0.950 . S
C1996 C1995 1.397 . S
C1996 C1997 1.334 . S
C1997 H1974 0.950 . S
C1997 C1996 1.334 . S
C1997 C1998 1.287 . S
C1998 C1997 1.287 . S
C1998 C1999 1.524 . S
C1998 H2017 0.913 . S
C1999 H1975 0.950 . S
C1999 C1998 1.524 . S
C1999 C2000 1.415 . S
C2000 H1976 0.950 . S
C2000 C1995 1.363 . S
C2000 C1999 1.415 . S
C2001 H1977 0.951 . S
C2001 C2002 1.366 . S
C2001 C2003 1.388 . S
C2002 C2001 1.366 . S
C2002 C2006 1.385 . S
C2003 H1978 0.951 . S
C2003 C2001 1.388 . S
C2003 C2004 1.366 . S
C2004 C2003 1.366 . S
C2004 C2005 1.414 . S
C2004 C2007 1.499 . S
C2005 H1979 0.950 . S
C2005 C2004 1.414 . S
C2005 C2006 1.374 . S
C2006 H1980 0.950 . S
C2006 C2002 1.385 . S
C2006 C2005 1.374 . S
C2007 C2004 1.499 . S
C2007 C2008 1.373 . S
C2007 C2009 1.389 . S
C2008 H1981 0.950 . S
C2008 C1994 1.377 . S
C2008 C2007 1.373 . S
C2009 C1993 1.377 . S
C2009 C2007 1.389 . S
C2009 C2010 1.524 . S
C2010 C2009 1.524 . S
C2010 C2011 1.397 . S
C2010 C2015 1.363 . S
C2011 H1982 0.950 . S
C2011 C2010 1.397 . S
C2011 C2012 1.334 . S
C2012 H1983 0.950 . S
C2012 C2011 1.334 . S
C2012 C2013 1.287 . S
C2013 C2012 1.287 . S
C2013 C2014 1.524 . S
C2013 H2016 0.999 . S
C2014 H1984 0.950 . S
C2014 C2013 1.524 . S
C2014 C2015 1.415 . S
C2015 H1985 0.950 . S
C2015 C2010 1.363 . S
C2015 C2014 1.415 . S
H2016 C2013 0.999 . S
H2017 C1998 0.913 . S
H2018 C2036 0.951 . S
H2019 C2038 0.951 . S
H2020 C2040 0.950 . S
H2021 C2041 0.950 . S
H2022 C2043 0.950 . S
H2023 C2046 0.950 . S
H2024 C2047 0.950 . S
H2025 C2049 0.950 . S
H2026 C2050 0.950 . S
H2027 C2051 0.951 . S
H2028 C2053 0.951 . S
H2029 C2055 0.950 . S
H2030 C2056 0.950 . S
H2031 C2058 0.950 . S
H2032 C2061 0.950 . S
H2033 C2062 0.950 . S
H2034 C2064 0.950 . S
H2035 C2065 0.950 . S
C2036 H2018 0.951 . S
C2036 C2037 1.366 . S
C2036 C2038 1.388 . S
C2037 C2036 1.366 . S
C2037 C2041 1.385 . S
C2038 H2019 0.951 . S
C2038 C2036 1.388 . S
C2038 C2039 1.366 . S
C2039 C2038 1.366 . S
C2039 C2040 1.414 . S
C2039 C2042 1.499 . S
C2040 H2020 0.950 . S
C2040 C2039 1.414 . S
C2040 C2041 1.374 . S
C2041 H2021 0.950 . S
C2041 C2037 1.385 . S
C2041 C2040 1.374 . S
C2042 C2039 1.499 . S
C2042 C2043 1.373 . S
C2042 C2044 1.389 . S
C2043 H2022 0.950 . S
C2043 C2042 1.373 . S
C2043 C2059 1.377 . S
C2044 C2042 1.389 . S
C2044 C2045 1.524 . S
C2044 C2058 1.377 . S
C2045 C2044 1.524 . S
C2045 C2046 1.397 . S
C2045 C2050 1.363 . S
C2046 H2023 0.950 . S
C2046 C2045 1.397 . S
C2046 C2047 1.334 . S
C2047 H2024 0.950 . S
C2047 C2046 1.334 . S
C2047 C2048 1.287 . S
C2048 C2047 1.287 . S
C2048 C2049 1.524 . S
C2048 H2067 0.913 . S
C2049 H2025 0.950 . S
C2049 C2048 1.524 . S
C2049 C2050 1.415 . S
C2050 H2026 0.950 . S
C2050 C2045 1.363 . S
C2050 C2049 1.415 . S
C2051 H2027 0.951 . S
C2051 C2052 1.366 . S
C2051 C2053 1.388 . S
C2052 C2051 1.366 . S
C2052 C2056 1.385 . S
C2053 H2028 0.951 . S
C2053 C2051 1.388 . S
C2053 C2054 1.366 . S
C2054 C2053 1.366 . S
C2054 C2055 1.414 . S
C2054 C2057 1.499 . S
C2055 H2029 0.950 . S
C2055 C2054 1.414 . S
C2055 C2056 1.374 . S
C2056 H2030 0.950 . S
C2056 C2052 1.385 . S
C2056 C2055 1.374 . S
C2057 C2054 1.499 . S
C2057 C2058 1.373 . S
C2057 C2059 1.389 . S
C2058 H2031 0.950 . S
C2058 C2044 1.377 . S
C2058 C2057 1.373 . S
C2059 C2043 1.377 . S
C2059 C2057 1.389 . S
C2059 C2060 1.524 . S
C2060 C2059 1.524 . S
C2060 C2061 1.397 . S
C2060 C2065 1.363 . S
C2061 H2032 0.950 . S
C2061 C2060 1.397 . S
C2061 C2062 1.334 . S
C2062 H2033 0.950 . S
C2062 C2061 1.334 . S
C2062 C2063 1.287 . S
C2063 C2062 1.287 . S
C2063 C2064 1.524 . S
C2063 H2066 0.999 . S
C2064 H2034 0.950 . S
C2064 C2063 1.524 . S
C2064 C2065 1.415 . S
C2065 H2035 0.950 . S
C2065 C2060 1.363 . S
C2065 C2064 1.415 . S
H2066 C2063 0.999 . S
H2067 C2048 0.913 . S
H2068 C2086 0.951 . S
H2069 C2088 0.951 . S
H2070 C2090 0.950 . S
H2071 C2091 0.950 . S
H2072 C2093 0.950 . S
H2073 C2096 0.950 . S
H2074 C2097 0.950 . S
H2075 C2099 0.950 . S
H2076 C2100 0.950 . S
H2077 C2101 0.951 . S
H2078 C2103 0.951 . S
H2079 C2105 0.950 . S
H2080 C2106 0.950 . S
H2081 C2108 0.950 . S
H2082 C2111 0.950 . S
H2083 C2112 0.950 . S
H2084 C2114 0.950 . S
H2085 C2115 0.950 . S
C2086 H2068 0.951 . S
C2086 C2087 1.366 . S
C2086 C2088 1.388 . S
C2087 C2086 1.366 . S
C2087 C2091 1.385 . S
C2088 H2069 0.951 . S
C2088 C2086 1.388 . S
C2088 C2089 1.366 . S
C2089 C2088 1.366 . S
C2089 C2090 1.414 . S
C2089 C2092 1.499 . S
C2090 H2070 0.950 . S
C2090 C2089 1.414 . S
C2090 C2091 1.374 . S
C2091 H2071 0.950 . S
C2091 C2087 1.385 . S
C2091 C2090 1.374 . S
C2092 C2089 1.499 . S
C2092 C2093 1.373 . S
C2092 C2094 1.389 . S
C2093 H2072 0.950 . S
C2093 C2092 1.373 . S
C2093 C2109 1.377 . S
C2094 C2092 1.389 . S
C2094 C2095 1.524 . S
C2094 C2108 1.377 . S
C2095 C2094 1.524 . S
C2095 C2096 1.397 . S
C2095 C2100 1.363 . S
C2096 H2073 0.950 . S
C2096 C2095 1.397 . S
C2096 C2097 1.334 . S
C2097 H2074 0.950 . S
C2097 C2096 1.334 . S
C2097 C2098 1.287 . S
C2098 C2097 1.287 . S
C2098 C2099 1.524 . S
C2098 H2117 0.913 . S
C2099 H2075 0.950 . S
C2099 C2098 1.524 . S
C2099 C2100 1.415 . S
C2100 H2076 0.950 . S
C2100 C2095 1.363 . S
C2100 C2099 1.415 . S
C2101 H2077 0.951 . S
C2101 C2102 1.366 . S
C2101 C2103 1.388 . S
C2102 C2101 1.366 . S
C2102 C2106 1.385 . S
C2103 H2078 0.951 . S
C2103 C2101 1.388 . S
C2103 C2104 1.366 . S
C2104 C2103 1.366 . S
C2104 C2105 1.414 . S
C2104 C2107 1.499 . S
C2105 H2079 0.950 . S
C2105 C2104 1.414 . S
C2105 C2106 1.374 . S
C2106 H2080 0.950 . S
C2106 C2102 1.385 . S
C2106 C2105 1.374 . S
C2107 C2104 1.499 . S
C2107 C2108 1.373 . S
C2107 C2109 1.389 . S
C2108 H2081 0.950 . S
C2108 C2094 1.377 . S
C2108 C2107 1.373 . S
C2109 C2093 1.377 . S
C2109 C2107 1.389 . S
C2109 C2110 1.524 . S
C2110 C2109 1.524 . S
C2110 C2111 1.397 . S
C2110 C2115 1.363 . S
C2111 H2082 0.950 . S
C2111 C2110 1.397 . S
C2111 C2112 1.334 . S
C2112 H2083 0.950 . S
C2112 C2111 1.334 . S
C2112 C2113 1.287 . S
C2113 C2112 1.287 . S
C2113 C2114 1.524 . S
C2113 H2116 0.999 . S
C2114 H2084 0.950 . S
C2114 C2113 1.524 . S
C2114 C2115 1.415 . S
C2115 H2085 0.950 . S
C2115 C2110 1.363 . S
C2115 C2114 1.415 . S
H2116 C2113 0.999 . S
H2117 C2098 0.913 . S
H2118 C2136 0.951 . S
H2119 C2138 0.951 . S
H2120 C2140 0.950 . S
H2121 C2141 0.950 . S
H2122 C2143 0.950 . S
H2123 C2146 0.950 . S
H2124 C2147 0.950 . S
H2125 C2149 0.950 . S
H2126 C2150 0.950 . S
H2127 C2151 0.951 . S
H2128 C2153 0.951 . S
H2129 C2155 0.950 . S
H2130 C2156 0.950 . S
H2131 C2158 0.950 . S
H2132 C2161 0.950 . S
H2133 C2162 0.950 . S
H2134 C2164 0.950 . S
H2135 C2165 0.950 . S
C2136 H2118 0.951 . S
C2136 C2137 1.366 . S
C2136 C2138 1.388 . S
C2137 C2136 1.366 . S
C2137 C2141 1.385 . S
C2138 H2119 0.951 . S
C2138 C2136 1.388 . S
C2138 C2139 1.366 . S
C2139 C2138 1.366 . S
C2139 C2140 1.414 . S
C2139 C2142 1.499 . S
C2140 H2120 0.950 . S
C2140 C2139 1.414 . S
C2140 C2141 1.374 . S
C2141 H2121 0.950 . S
C2141 C2137 1.385 . S
C2141 C2140 1.374 . S
C2142 C2139 1.499 . S
C2142 C2143 1.373 . S
C2142 C2144 1.389 . S
C2143 H2122 0.950 . S
C2143 C2142 1.373 . S
C2143 C2159 1.377 . S
C2144 C2142 1.389 . S
C2144 C2145 1.524 . S
C2144 C2158 1.377 . S
C2145 C2144 1.524 . S
C2145 C2146 1.397 . S
C2145 C2150 1.363 . S
C2146 H2123 0.950 . S
C2146 C2145 1.397 . S
C2146 C2147 1.334 . S
C2147 H2124 0.950 . S
C2147 C2146 1.334 . S
C2147 C2148 1.287 . S
C2148 C2147 1.287 . S
C2148 C2149 1.524 . S
C2148 H2167 0.913 . S
C2149 H2125 0.950 . S
C2149 C2148 1.524 . S
C2149 C2150 1.415 . S
C2150 H2126 0.950 . S
C2150 C2145 1.363 . S
C2150 C2149 1.415 . S
C2151 H2127 0.951 . S
C2151 C2152 1.366 . S
C2151 C2153 1.388 . S
C2152 C2151 1.366 . S
C2152 C2156 1.385 . S
C2153 H2128 0.951 . S
C2153 C2151 1.388 . S
C2153 C2154 1.366 . S
C2154 C2153 1.366 . S
C2154 C2155 1.414 . S
C2154 C2157 1.499 . S
C2155 H2129 0.950 . S
C2155 C2154 1.414 . S
C2155 C2156 1.374 . S
C2156 H2130 0.950 . S
C2156 C2152 1.385 . S
C2156 C2155 1.374 . S
C2157 C2154 1.499 . S
C2157 C2158 1.373 . S
C2157 C2159 1.389 . S
C2158 H2131 0.950 . S
C2158 C2144 1.377 . S
C2158 C2157 1.373 . S
C2159 C2143 1.377 . S
C2159 C2157 1.389 . S
C2159 C2160 1.524 . S
C2160 C2159 1.524 . S
C2160 C2161 1.397 . S
C2160 C2165 1.363 . S
C2161 H2132 0.950 . S
C2161 C2160 1.397 . S
C2161 C2162 1.334 . S
C2162 H2133 0.950 . S
C2162 C2161 1.334 . S
C2162 C2163 1.287 . S
C2163 C2162 1.287 . S
C2163 C2164 1.524 . S
C2163 H2166 0.999 . S
C2164 H2134 0.950 . S
C2164 C2163 1.524 . S
C2164 C2165 1.415 . S
C2165 H2135 0.950 . S
C2165 C2160 1.363 . S
C2165 C2164 1.415 . S
H2166 C2163 0.999 . S
H2167 C2148 0.913 . S
H2168 C2186 0.951 . S
H2169 C2188 0.951 . S
H2170 C2190 0.950 . S
H2171 C2191 0.950 . S
H2172 C2193 0.950 . S
H2173 C2196 0.950 . S
H2174 C2197 0.950 . S
H2175 C2199 0.950 . S
H2176 C2200 0.950 . S
H2177 C2201 0.951 . S
H2178 C2203 0.951 . S
H2179 C2205 0.950 . S
H2180 C2206 0.950 . S
H2181 C2208 0.950 . S
H2182 C2211 0.950 . S
H2183 C2212 0.950 . S
H2184 C2214 0.950 . S
H2185 C2215 0.950 . S
C2186 H2168 0.951 . S
C2186 C2187 1.366 . S
C2186 C2188 1.388 . S
C2187 C2186 1.366 . S
C2187 C2191 1.385 . S
C2188 H2169 0.951 . S
C2188 C2186 1.388 . S
C2188 C2189 1.366 . S
C2189 C2188 1.366 . S
C2189 C2190 1.414 . S
C2189 C2192 1.499 . S
C2190 H2170 0.950 . S
C2190 C2189 1.414 . S
C2190 C2191 1.374 . S
C2191 H2171 0.950 . S
C2191 C2187 1.385 . S
C2191 C2190 1.374 . S
C2192 C2189 1.499 . S
C2192 C2193 1.373 . S
C2192 C2194 1.389 . S
C2193 H2172 0.950 . S
C2193 C2192 1.373 . S
C2193 C2209 1.377 . S
C2194 C2192 1.389 . S
C2194 C2195 1.524 . S
C2194 C2208 1.377 . S
C2195 C2194 1.524 . S
C2195 C2196 1.397 . S
C2195 C2200 1.363 . S
C2196 H2173 0.950 . S
C2196 C2195 1.397 . S
C2196 C2197 1.334 . S
C2197 H2174 0.950 . S
C2197 C2196 1.334 . S
C2197 C2198 1.287 . S
C2198 C2197 1.287 . S
C2198 C2199 1.524 . S
C2198 H2217 0.913 . S
C2199 H2175 0.950 . S
C2199 C2198 1.524 . S
C2199 C2200 1.415 . S
C2200 H2176 0.950 . S
C2200 C2195 1.363 . S
C2200 C2199 1.415 . S
C2201 H2177 0.951 . S
C2201 C2202 1.366 . S
C2201 C2203 1.388 . S
C2202 C2201 1.366 . S
C2202 C2206 1.385 . S
C2203 H2178 0.951 . S
C2203 C2201 1.388 . S
C2203 C2204 1.366 . S
C2204 C2203 1.366 . S
C2204 C2205 1.414 . S
C2204 C2207 1.499 . S
C2205 H2179 0.950 . S
C2205 C2204 1.414 . S
C2205 C2206 1.374 . S
C2206 H2180 0.950 . S
C2206 C2202 1.385 . S
C2206 C2205 1.374 . S
C2207 C2204 1.499 . S
C2207 C2208 1.373 . S
C2207 C2209 1.389 . S
C2208 H2181 0.950 . S
C2208 C2194 1.377 . S
C2208 C2207 1.373 . S
C2209 C2193 1.377 . S
C2209 C2207 1.389 . S
C2209 C2210 1.524 . S
C2210 C2209 1.524 . S
C2210 C2211 1.397 . S
C2210 C2215 1.363 . S
C2211 H2182 0.950 . S
C2211 C2210 1.397 . S
C2211 C2212 1.334 . S
C2212 H2183 0.950 . S
C2212 C2211 1.334 . S
C2212 C2213 1.287 . S
C2213 C2212 1.287 . S
C2213 C2214 1.524 . S
C2213 H2216 0.999 . S
C2214 H2184 0.950 . S
C2214 C2213 1.524 . S
C2214 C2215 1.415 . S
C2215 H2185 0.950 . S
C2215 C2210 1.363 . S
C2215 C2214 1.415 . S
H2216 C2213 0.999 . S
H2217 C2198 0.913 . S
H2218 C2236 0.951 . S
H2219 C2238 0.951 . S
H2220 C2240 0.950 . S
H2221 C2241 0.950 . S
H2222 C2243 0.950 . S
H2223 C2246 0.950 . S
H2224 C2247 0.950 . S
H2225 C2249 0.950 . S
H2226 C2250 0.950 . S
H2227 C2251 0.951 . S
H2228 C2253 0.951 . S
H2229 C2255 0.950 . S
H2230 C2256 0.950 . S
H2231 C2258 0.950 . S
H2232 C2261 0.950 . S
H2233 C2262 0.950 . S
H2234 C2264 0.950 . S
H2235 C2265 0.950 . S
C2236 H2218 0.951 . S
C2236 C2237 1.366 . S
C2236 C2238 1.388 . S
C2237 C2236 1.366 . S
C2237 C2241 1.385 . S
C2238 H2219 0.951 . S
C2238 C2236 1.388 . S
C2238 C2239 1.366 . S
C2239 C2238 1.366 . S
C2239 C2240 1.414 . S
C2239 C2242 1.499 . S
C2240 H2220 0.950 . S
C2240 C2239 1.414 . S
C2240 C2241 1.374 . S
C2241 H2221 0.950 . S
C2241 C2237 1.385 . S
C2241 C2240 1.374 . S
C2242 C2239 1.499 . S
C2242 C2243 1.373 . S
C2242 C2244 1.389 . S
C2243 H2222 0.950 . S
C2243 C2242 1.373 . S
C2243 C2259 1.377 . S
C2244 C2242 1.389 . S
C2244 C2245 1.524 . S
C2244 C2258 1.377 . S
C2245 C2244 1.524 . S
C2245 C2246 1.397 . S
C2245 C2250 1.363 . S
C2246 H2223 0.950 . S
C2246 C2245 1.397 . S
C2246 C2247 1.334 . S
C2247 H2224 0.950 . S
C2247 C2246 1.334 . S
C2247 C2248 1.287 . S
C2248 C2247 1.287 . S
C2248 C2249 1.524 . S
C2248 H2267 0.913 . S
C2249 H2225 0.950 . S
C2249 C2248 1.524 . S
C2249 C2250 1.415 . S
C2250 H2226 0.950 . S
C2250 C2245 1.363 . S
C2250 C2249 1.415 . S
C2251 H2227 0.951 . S
C2251 C2252 1.366 . S
C2251 C2253 1.388 . S
C2252 C2251 1.366 . S
C2252 C2256 1.385 . S
C2253 H2228 0.951 . S
C2253 C2251 1.388 . S
C2253 C2254 1.366 . S
C2254 C2253 1.366 . S
C2254 C2255 1.414 . S
C2254 C2257 1.499 . S
C2255 H2229 0.950 . S
C2255 C2254 1.414 . S
C2255 C2256 1.374 . S
C2256 H2230 0.950 . S
C2256 C2252 1.385 . S
C2256 C2255 1.374 . S
C2257 C2254 1.499 . S
C2257 C2258 1.373 . S
C2257 C2259 1.389 . S
C2258 H2231 0.950 . S
C2258 C2244 1.377 . S
C2258 C2257 1.373 . S
C2259 C2243 1.377 . S
C2259 C2257 1.389 . S
C2259 C2260 1.524 . S
C2260 C2259 1.524 . S
C2260 C2261 1.397 . S
C2260 C2265 1.363 . S
C2261 H2232 0.950 . S
C2261 C2260 1.397 . S
C2261 C2262 1.334 . S
C2262 H2233 0.950 . S
C2262 C2261 1.334 . S
C2262 C2263 1.287 . S
C2263 C2262 1.287 . S
C2263 C2264 1.524 . S
C2263 H2266 0.999 . S
C2264 H2234 0.950 . S
C2264 C2263 1.524 . S
C2264 C2265 1.415 . S
C2265 H2235 0.950 . S
C2265 C2260 1.363 . S
C2265 C2264 1.415 . S
H2266 C2263 0.999 . S
H2267 C2248 0.913 . S
H2268 C2286 0.951 . S
H2269 C2288 0.951 . S
H2270 C2290 0.950 . S
H2271 C2291 0.950 . S
H2272 C2293 0.950 . S
H2273 C2296 0.950 . S
H2274 C2297 0.950 . S
H2275 C2299 0.950 . S
H2276 C2300 0.950 . S
H2277 C2301 0.951 . S
H2278 C2303 0.951 . S
H2279 C2305 0.950 . S
H2280 C2306 0.950 . S
H2281 C2308 0.950 . S
H2282 C2311 0.950 . S
H2283 C2312 0.950 . S
H2284 C2314 0.950 . S
H2285 C2315 0.950 . S
C2286 H2268 0.951 . S
C2286 C2287 1.366 . S
C2286 C2288 1.388 . S
C2287 C2286 1.366 . S
C2287 C2291 1.385 . S
C2288 H2269 0.951 . S
C2288 C2286 1.388 . S
C2288 C2289 1.366 . S
C2289 C2288 1.366 . S
C2289 C2290 1.414 . S
C2289 C2292 1.499 . S
C2290 H2270 0.950 . S
C2290 C2289 1.414 . S
C2290 C2291 1.374 . S
C2291 H2271 0.950 . S
C2291 C2287 1.385 . S
C2291 C2290 1.374 . S
C2292 C2289 1.499 . S
C2292 C2293 1.373 . S
C2292 C2294 1.389 . S
C2293 H2272 0.950 . S
C2293 C2292 1.373 . S
C2293 C2309 1.377 . S
C2294 C2292 1.389 . S
C2294 C2295 1.524 . S
C2294 C2308 1.377 . S
C2295 C2294 1.524 . S
C2295 C2296 1.397 . S
C2295 C2300 1.363 . S
C2296 H2273 0.950 . S
C2296 C2295 1.397 . S
C2296 C2297 1.334 . S
C2297 H2274 0.950 . S
C2297 C2296 1.334 . S
C2297 C2298 1.287 . S
C2298 C2297 1.287 . S
C2298 C2299 1.524 . S
C2298 H2317 0.913 . S
C2299 H2275 0.950 . S
C2299 C2298 1.524 . S
C2299 C2300 1.415 . S
C2300 H2276 0.950 . S
C2300 C2295 1.363 . S
C2300 C2299 1.415 . S
C2301 H2277 0.951 . S
C2301 C2302 1.366 . S
C2301 C2303 1.388 . S
C2302 C2301 1.366 . S
C2302 C2306 1.385 . S
C2303 H2278 0.951 . S
C2303 C2301 1.388 . S
C2303 C2304 1.366 . S
C2304 C2303 1.366 . S
C2304 C2305 1.414 . S
C2304 C2307 1.499 . S
C2305 H2279 0.950 . S
C2305 C2304 1.414 . S
C2305 C2306 1.374 . S
C2306 H2280 0.950 . S
C2306 C2302 1.385 . S
C2306 C2305 1.374 . S
C2307 C2304 1.499 . S
C2307 C2308 1.373 . S
C2307 C2309 1.389 . S
C2308 H2281 0.950 . S
C2308 C2294 1.377 . S
C2308 C2307 1.373 . S
C2309 C2293 1.377 . S
C2309 C2307 1.389 . S
C2309 C2310 1.524 . S
C2310 C2309 1.524 . S
C2310 C2311 1.397 . S
C2310 C2315 1.363 . S
C2311 H2282 0.950 . S
C2311 C2310 1.397 . S
C2311 C2312 1.334 . S
C2312 H2283 0.950 . S
C2312 C2311 1.334 . S
C2312 C2313 1.287 . S
C2313 C2312 1.287 . S
C2313 C2314 1.524 . S
C2313 H2316 0.999 . S
C2314 H2284 0.950 . S
C2314 C2313 1.524 . S
C2314 C2315 1.415 . S
C2315 H2285 0.950 . S
C2315 C2310 1.363 . S
C2315 C2314 1.415 . S
H2316 C2313 0.999 . S
H2317 C2298 0.913 . S
H2318 C2336 0.951 . S
H2319 C2338 0.951 . S
H2320 C2340 0.950 . S
H2321 C2341 0.950 . S
H2322 C2343 0.950 . S
H2323 C2346 0.950 . S
H2324 C2347 0.950 . S
H2325 C2349 0.950 . S
H2326 C2350 0.950 . S
H2327 C2351 0.951 . S
H2328 C2353 0.951 . S
H2329 C2355 0.950 . S
H2330 C2356 0.950 . S
H2331 C2358 0.950 . S
H2332 C2361 0.950 . S
H2333 C2362 0.950 . S
H2334 C2364 0.950 . S
H2335 C2365 0.950 . S
C2336 H2318 0.951 . S
C2336 C2337 1.366 . S
C2336 C2338 1.388 . S
C2337 C2336 1.366 . S
C2337 C2341 1.385 . S
C2338 H2319 0.951 . S
C2338 C2336 1.388 . S
C2338 C2339 1.366 . S
C2339 C2338 1.366 . S
C2339 C2340 1.414 . S
C2339 C2342 1.499 . S
C2340 H2320 0.950 . S
C2340 C2339 1.414 . S
C2340 C2341 1.374 . S
C2341 H2321 0.950 . S
C2341 C2337 1.385 . S
C2341 C2340 1.374 . S
C2342 C2339 1.499 . S
C2342 C2343 1.373 . S
C2342 C2344 1.389 . S
C2343 H2322 0.950 . S
C2343 C2342 1.373 . S
C2343 C2359 1.377 . S
C2344 C2342 1.389 . S
C2344 C2345 1.524 . S
C2344 C2358 1.377 . S
C2345 C2344 1.524 . S
C2345 C2346 1.397 . S
C2345 C2350 1.363 . S
C2346 H2323 0.950 . S
C2346 C2345 1.397 . S
C2346 C2347 1.334 . S
C2347 H2324 0.950 . S
C2347 C2346 1.334 . S
C2347 C2348 1.287 . S
C2348 C2347 1.287 . S
C2348 C2349 1.524 . S
C2348 H2367 0.913 . S
C2349 H2325 0.950 . S
C2349 C2348 1.524 . S
C2349 C2350 1.415 . S
C2350 H2326 0.950 . S
C2350 C2345 1.363 . S
C2350 C2349 1.415 . S
C2351 H2327 0.951 . S
C2351 C2352 1.366 . S
C2351 C2353 1.388 . S
C2352 C2351 1.366 . S
C2352 C2356 1.385 . S
C2353 H2328 0.951 . S
C2353 C2351 1.388 . S
C2353 C2354 1.366 . S
C2354 C2353 1.366 . S
C2354 C2355 1.414 . S
C2354 C2357 1.499 . S
C2355 H2329 0.950 . S
C2355 C2354 1.414 . S
C2355 C2356 1.374 . S
C2356 H2330 0.950 . S
C2356 C2352 1.385 . S
C2356 C2355 1.374 . S
C2357 C2354 1.499 . S
C2357 C2358 1.373 . S
C2357 C2359 1.389 . S
C2358 H2331 0.950 . S
C2358 C2344 1.377 . S
C2358 C2357 1.373 . S
C2359 C2343 1.377 . S
C2359 C2357 1.389 . S
C2359 C2360 1.524 . S
C2360 C2359 1.524 . S
C2360 C2361 1.397 . S
C2360 C2365 1.363 . S
C2361 H2332 0.950 . S
C2361 C2360 1.397 . S
C2361 C2362 1.334 . S
C2362 H2333 0.950 . S
C2362 C2361 1.334 . S
C2362 C2363 1.287 . S
C2363 C2362 1.287 . S
C2363 C2364 1.524 . S
C2363 H2366 0.999 . S
C2364 H2334 0.950 . S
C2364 C2363 1.524 . S
C2364 C2365 1.415 . S
C2365 H2335 0.950 . S
C2365 C2360 1.363 . S
C2365 C2364 1.415 . S
H2366 C2363 0.999 . S
H2367 C2348 0.913 . S
H2368 C2386 0.951 . S
H2369 C2388 0.951 . S
H2370 C2390 0.950 . S
H2371 C2391 0.950 . S
H2372 C2393 0.950 . S
H2373 C2396 0.950 . S
H2374 C2397 0.950 . S
H2375 C2399 0.950 . S
H2376 C2400 0.950 . S
H2377 C2401 0.951 . S
H2378 C2403 0.951 . S
H2379 C2405 0.950 . S
H2380 C2406 0.950 . S
H2381 C2408 0.950 . S
H2382 C2411 0.950 . S
H2383 C2412 0.950 . S
H2384 C2414 0.950 . S
H2385 C2415 0.950 . S
C2386 H2368 0.951 . S
C2386 C2387 1.366 . S
C2386 C2388 1.388 . S
C2387 C2386 1.366 . S
C2387 C2391 1.385 . S
C2388 H2369 0.951 . S
C2388 C2386 1.388 . S
C2388 C2389 1.366 . S
C2389 C2388 1.366 . S
C2389 C2390 1.414 . S
C2389 C2392 1.499 . S
C2390 H2370 0.950 . S
C2390 C2389 1.414 . S
C2390 C2391 1.374 . S
C2391 H2371 0.950 . S
C2391 C2387 1.385 . S
C2391 C2390 1.374 . S
C2392 C2389 1.499 . S
C2392 C2393 1.373 . S
C2392 C2394 1.389 . S
C2393 H2372 0.950 . S
C2393 C2392 1.373 . S
C2393 C2409 1.377 . S
C2394 C2392 1.389 . S
C2394 C2395 1.524 . S
C2394 C2408 1.377 . S
C2395 C2394 1.524 . S
C2395 C2396 1.397 . S
C2395 C2400 1.363 . S
C2396 H2373 0.950 . S
C2396 C2395 1.397 . S
C2396 C2397 1.334 . S
C2397 H2374 0.950 . S
C2397 C2396 1.334 . S
C2397 C2398 1.287 . S
C2398 C2397 1.287 . S
C2398 C2399 1.524 . S
C2398 H2417 0.913 . S
C2399 H2375 0.950 . S
C2399 C2398 1.524 . S
C2399 C2400 1.415 . S
C2400 H2376 0.950 . S
C2400 C2395 1.363 . S
C2400 C2399 1.415 . S
C2401 H2377 0.951 . S
C2401 C2402 1.366 . S
C2401 C2403 1.388 . S
C2402 C2401 1.366 . S
C2402 C2406 1.385 . S
C2403 H2378 0.951 . S
C2403 C2401 1.388 . S
C2403 C2404 1.366 . S
C2404 C2403 1.366 . S
C2404 C2405 1.414 . S
C2404 C2407 1.499 . S
C2405 H2379 0.950 . S
C2405 C2404 1.414 . S
C2405 C2406 1.374 . S
C2406 H2380 0.950 . S
C2406 C2402 1.385 . S
C2406 C2405 1.374 . S
C2407 C2404 1.499 . S
C2407 C2408 1.373 . S
C2407 C2409 1.389 . S
C2408 H2381 0.950 . S
C2408 C2394 1.377 . S
C2408 C2407 1.373 . S
C2409 C2393 1.377 . S
C2409 C2407 1.389 . S
C2409 C2410 1.524 . S
C2410 C2409 1.524 . S
C2410 C2411 1.397 . S
C2410 C2415 1.363 . S
C2411 H2382 0.950 . S
C2411 C2410 1.397 . S
C2411 C2412 1.334 . S
C2412 H2383 0.950 . S
C2412 C2411 1.334 . S
C2412 C2413 1.287 . S
C2413 C2412 1.287 . S
C2413 C2414 1.524 . S
C2413 H2416 0.999 . S
C2414 H2384 0.950 . S
C2414 C2413 1.524 . S
C2414 C2415 1.415 . S
C2415 H2385 0.950 . S
C2415 C2410 1.363 . S
C2415 C2414 1.415 . S
H2416 C2413 0.999 . S
H2417 C2398 0.913 . S
H2418 C2436 0.951 . S
H2419 C2438 0.951 . S
H2420 C2440 0.950 . S
H2421 C2441 0.950 . S
H2422 C2443 0.950 . S
H2423 C2446 0.950 . S
H2424 C2447 0.950 . S
H2425 C2449 0.950 . S
H2426 C2450 0.950 . S
H2427 C2451 0.951 . S
H2428 C2453 0.951 . S
H2429 C2455 0.950 . S
H2430 C2456 0.950 . S
H2431 C2458 0.950 . S
H2432 C2461 0.950 . S
H2433 C2462 0.950 . S
H2434 C2464 0.950 . S
H2435 C2465 0.950 . S
C2436 H2418 0.951 . S
C2436 C2437 1.366 . S
C2436 C2438 1.388 . S
C2437 C2436 1.366 . S
C2437 C2441 1.385 . S
C2438 H2419 0.951 . S
C2438 C2436 1.388 . S
C2438 C2439 1.366 . S
C2439 C2438 1.366 . S
C2439 C2440 1.414 . S
C2439 C2442 1.499 . S
C2440 H2420 0.950 . S
C2440 C2439 1.414 . S
C2440 C2441 1.374 . S
C2441 H2421 0.950 . S
C2441 C2437 1.385 . S
C2441 C2440 1.374 . S
C2442 C2439 1.499 . S
C2442 C2443 1.373 . S
C2442 C2444 1.389 . S
C2443 H2422 0.950 . S
C2443 C2442 1.373 . S
C2443 C2459 1.377 . S
C2444 C2442 1.389 . S
C2444 C2445 1.524 . S
C2444 C2458 1.377 . S
C2445 C2444 1.524 . S
C2445 C2446 1.397 . S
C2445 C2450 1.363 . S
C2446 H2423 0.950 . S
C2446 C2445 1.397 . S
C2446 C2447 1.334 . S
C2447 H2424 0.950 . S
C2447 C2446 1.334 . S
C2447 C2448 1.287 . S
C2448 C2447 1.287 . S
C2448 C2449 1.524 . S
C2448 H2467 0.913 . S
C2449 H2425 0.950 . S
C2449 C2448 1.524 . S
C2449 C2450 1.415 . S
C2450 H2426 0.950 . S
C2450 C2445 1.363 . S
C2450 C2449 1.415 . S
C2451 H2427 0.951 . S
C2451 C2452 1.366 . S
C2451 C2453 1.388 . S
C2452 C2451 1.366 . S
C2452 C2456 1.385 . S
C2453 H2428 0.951 . S
C2453 C2451 1.388 . S
C2453 C2454 1.366 . S
C2454 C2453 1.366 . S
C2454 C2455 1.414 . S
C2454 C2457 1.499 . S
C2455 H2429 0.950 . S
C2455 C2454 1.414 . S
C2455 C2456 1.374 . S
C2456 H2430 0.950 . S
C2456 C2452 1.385 . S
C2456 C2455 1.374 . S
C2457 C2454 1.499 . S
C2457 C2458 1.373 . S
C2457 C2459 1.389 . S
C2458 H2431 0.950 . S
C2458 C2444 1.377 . S
C2458 C2457 1.373 . S
C2459 C2443 1.377 . S
C2459 C2457 1.389 . S
C2459 C2460 1.524 . S
C2460 C2459 1.524 . S
C2460 C2461 1.397 . S
C2460 C2465 1.363 . S
C2461 H2432 0.950 . S
C2461 C2460 1.397 . S
C2461 C2462 1.334 . S
C2462 H2433 0.950 . S
C2462 C2461 1.334 . S
C2462 C2463 1.287 . S
C2463 C2462 1.287 . S
C2463 C2464 1.524 . S
C2463 H2466 0.999 . S
C2464 H2434 0.950 . S
C2464 C2463 1.524 . S
C2464 C2465 1.415 . S
C2465 H2435 0.950 . S
C2465 C2460 1.363 . S
C2465 C2464 1.415 . S
H2466 C2463 0.999 . S
H2467 C2448 0.913 . S
H2468 C2486 0.951 . S
H2469 C2488 0.951 . S
H2470 C2490 0.950 . S
H2471 C2491 0.950 . S
H2472 C2493 0.950 . S
H2473 C2496 0.950 . S
H2474 C2497 0.950 . S
H2475 C2499 0.950 . S
H2476 C2500 0.950 . S
H2477 C2501 0.951 . S
H2478 C2503 0.951 . S
H2479 C2505 0.950 . S
H2480 C2506 0.950 . S
H2481 C2508 0.950 . S
H2482 C2511 0.950 . S
H2483 C2512 0.950 . S
H2484 C2514 0.950 . S
H2485 C2515 0.950 . S
C2486 H2468 0.951 . S
C2486 C2487 1.366 . S
C2486 C2488 1.388 . S
C2487 C2486 1.366 . S
C2487 C2491 1.385 . S
C2488 H2469 0.951 . S
C2488 C2486 1.388 . S
C2488 C2489 1.366 . S
C2489 C2488 1.366 . S
C2489 C2490 1.414 . S
C2489 C2492 1.499 . S
C2490 H2470 0.950 . S
C2490 C2489 1.414 . S
C2490 C2491 1.374 . S
C2491 H2471 0.950 . S
C2491 C2487 1.385 . S
C2491 C2490 1.374 . S
C2492 C2489 1.499 . S
C2492 C2493 1.373 . S
C2492 C2494 1.389 . S
C2493 H2472 0.950 . S
C2493 C2492 1.373 . S
C2493 C2509 1.377 . S
C2494 C2492 1.389 . S
C2494 C2495 1.524 . S
C2494 C2508 1.377 . S
C2495 C2494 1.524 . S
C2495 C2496 1.397 . S
C2495 C2500 1.363 . S
C2496 H2473 0.950 . S
C2496 C2495 1.397 . S
C2496 C2497 1.334 . S
C2497 H2474 0.950 . S
C2497 C2496 1.334 . S
C2497 C2498 1.287 . S
C2498 C2497 1.287 . S
C2498 C2499 1.524 . S
C2498 H2517 0.913 . S
C2499 H2475 0.950 . S
C2499 C2498 1.524 . S
C2499 C2500 1.415 . S
C2500 H2476 0.950 . S
C2500 C2495 1.363 . S
C2500 C2499 1.415 . S
C2501 H2477 0.951 . S
C2501 C2502 1.366 . S
C2501 C2503 1.388 . S
C2502 C2501 1.366 . S
C2502 C2506 1.385 . S
C2503 H2478 0.951 . S
C2503 C2501 1.388 . S
C2503 C2504 1.366 . S
C2504 C2503 1.366 . S
C2504 C2505 1.414 . S
C2504 C2507 1.499 . S
C2505 H2479 0.950 . S
C2505 C2504 1.414 . S
C2505 C2506 1.374 . S
C2506 H2480 0.950 . S
C2506 C2502 1.385 . S
C2506 C2505 1.374 . S
C2507 C2504 1.499 . S
C2507 C2508 1.373 . S
C2507 C2509 1.389 . S
C2508 H2481 0.950 . S
C2508 C2494 1.377 . S
C2508 C2507 1.373 . S
C2509 C2493 1.377 . S
C2509 C2507 1.389 . S
C2509 C2510 1.524 . S
C2510 C2509 1.524 . S
C2510 C2511 1.397 . S
C2510 C2515 1.363 . S
C2511 H2482 0.950 . S
C2511 C2510 1.397 . S
C2511 C2512 1.334 . S
C2512 H2483 0.950 . S
C2512 C2511 1.334 . S
C2512 C2513 1.287 . S
C2513 C2512 1.287 . S
C2513 C2514 1.524 . S
C2513 H2516 0.999 . S
C2514 H2484 0.950 . S
C2514 C2513 1.524 . S
C2514 C2515 1.415 . S
C2515 H2485 0.950 . S
C2515 C2510 1.363 . S
C2515 C2514 1.415 . S
H2516 C2513 0.999 . S
H2517 C2498 0.913 . S
H2518 C2536 0.951 . S
H2519 C2538 0.951 . S
H2520 C2540 0.950 . S
H2521 C2541 0.950 . S
H2522 C2543 0.950 . S
H2523 C2546 0.950 . S
H2524 C2547 0.950 . S
H2525 C2549 0.950 . S
H2526 C2550 0.950 . S
H2527 C2551 0.951 . S
H2528 C2553 0.951 . S
H2529 C2555 0.950 . S
H2530 C2556 0.950 . S
H2531 C2558 0.950 . S
H2532 C2561 0.950 . S
H2533 C2562 0.950 . S
H2534 C2564 0.950 . S
H2535 C2565 0.950 . S
C2536 H2518 0.951 . S
C2536 C2537 1.366 . S
C2536 C2538 1.388 . S
C2537 C2536 1.366 . S
C2537 C2541 1.385 . S
C2538 H2519 0.951 . S
C2538 C2536 1.388 . S
C2538 C2539 1.366 . S
C2539 C2538 1.366 . S
C2539 C2540 1.414 . S
C2539 C2542 1.499 . S
C2540 H2520 0.950 . S
C2540 C2539 1.414 . S
C2540 C2541 1.374 . S
C2541 H2521 0.950 . S
C2541 C2537 1.385 . S
C2541 C2540 1.374 . S
C2542 C2539 1.499 . S
C2542 C2543 1.373 . S
C2542 C2544 1.389 . S
C2543 H2522 0.950 . S
C2543 C2542 1.373 . S
C2543 C2559 1.377 . S
C2544 C2542 1.389 . S
C2544 C2545 1.524 . S
C2544 C2558 1.377 . S
C2545 C2544 1.524 . S
C2545 C2546 1.397 . S
C2545 C2550 1.363 . S
C2546 H2523 0.950 . S
C2546 C2545 1.397 . S
C2546 C2547 1.334 . S
C2547 H2524 0.950 . S
C2547 C2546 1.334 . S
C2547 C2548 1.287 . S
C2548 C2547 1.287 . S
C2548 C2549 1.524 . S
C2548 H2567 0.913 . S
C2549 H2525 0.950 . S
C2549 C2548 1.524 . S
C2549 C2550 1.415 . S
C2550 H2526 0.950 . S
C2550 C2545 1.363 . S
C2550 C2549 1.415 . S
C2551 H2527 0.951 . S
C2551 C2552 1.366 . S
C2551 C2553 1.388 . S
C2552 C2551 1.366 . S
C2552 C2556 1.385 . S
C2553 H2528 0.951 . S
C2553 C2551 1.388 . S
C2553 C2554 1.366 . S
C2554 C2553 1.366 . S
C2554 C2555 1.414 . S
C2554 C2557 1.499 . S
C2555 H2529 0.950 . S
C2555 C2554 1.414 . S
C2555 C2556 1.374 . S
C2556 H2530 0.950 . S
C2556 C2552 1.385 . S
C2556 C2555 1.374 . S
C2557 C2554 1.499 . S
C2557 C2558 1.373 . S
C2557 C2559 1.389 . S
C2558 H2531 0.950 . S
C2558 C2544 1.377 . S
C2558 C2557 1.373 . S
C2559 C2543 1.377 . S
C2559 C2557 1.389 . S
C2559 C2560 1.524 . S
C2560 C2559 1.524 . S
C2560 C2561 1.397 . S
C2560 C2565 1.363 . S
C2561 H2532 0.950 . S
C2561 C2560 1.397 . S
C2561 C2562 1.334 . S
C2562 H2533 0.950 . S
C2562 C2561 1.334 . S
C2562 C2563 1.287 . S
C2563 C2562 1.287 . S
C2563 C2564 1.524 . S
C2563 H2566 0.999 . S
C2564 H2534 0.950 . S
C2564 C2563 1.524 . S
C2564 C2565 1.415 . S
C2565 H2535 0.950 . S
C2565 C2560 1.363 . S
C2565 C2564 1.415 . S
H2566 C2563 0.999 . S
H2567 C2548 0.913 . S
H2568 C2586 0.951 . S
H2569 C2588 0.951 . S
H2570 C2590 0.950 . S
H2571 C2591 0.950 . S
H2572 C2593 0.950 . S
H2573 C2596 0.950 . S
H2574 C2597 0.950 . S
H2575 C2599 0.950 . S
H2576 C2600 0.950 . S
H2577 C2601 0.951 . S
H2578 C2603 0.951 . S
H2579 C2605 0.950 . S
H2580 C2606 0.950 . S
H2581 C2608 0.950 . S
H2582 C2611 0.950 . S
H2583 C2612 0.950 . S
H2584 C2614 0.950 . S
H2585 C2615 0.950 . S
C2586 H2568 0.951 . S
C2586 C2587 1.366 . S
C2586 C2588 1.388 . S
C2587 C2586 1.366 . S
C2587 C2591 1.385 . S
C2588 H2569 0.951 . S
C2588 C2586 1.388 . S
C2588 C2589 1.366 . S
C2589 C2588 1.366 . S
C2589 C2590 1.414 . S
C2589 C2592 1.499 . S
C2590 H2570 0.950 . S
C2590 C2589 1.414 . S
C2590 C2591 1.374 . S
C2591 H2571 0.950 . S
C2591 C2587 1.385 . S
C2591 C2590 1.374 . S
C2592 C2589 1.499 . S
C2592 C2593 1.373 . S
C2592 C2594 1.389 . S
C2593 H2572 0.950 . S
C2593 C2592 1.373 . S
C2593 C2609 1.377 . S
C2594 C2592 1.389 . S
C2594 C2595 1.524 . S
C2594 C2608 1.377 . S
C2595 C2594 1.524 . S
C2595 C2596 1.397 . S
C2595 C2600 1.363 . S
C2596 H2573 0.950 . S
C2596 C2595 1.397 . S
C2596 C2597 1.334 . S
C2597 H2574 0.950 . S
C2597 C2596 1.334 . S
C2597 C2598 1.287 . S
C2598 C2597 1.287 . S
C2598 C2599 1.524 . S
C2598 H2617 0.913 . S
C2599 H2575 0.950 . S
C2599 C2598 1.524 . S
C2599 C2600 1.415 . S
C2600 H2576 0.950 . S
C2600 C2595 1.363 . S
C2600 C2599 1.415 . S
C2601 H2577 0.951 . S
C2601 C2602 1.366 . S
C2601 C2603 1.388 . S
C2602 C2601 1.366 . S
C2602 C2606 1.385 . S
C2603 H2578 0.951 . S
C2603 C2601 1.388 . S
C2603 C2604 1.366 . S
C2604 C2603 1.366 . S
C2604 C2605 1.414 . S
C2604 C2607 1.499 . S
C2605 H2579 0.950 . S
C2605 C2604 1.414 . S
C2605 C2606 1.374 . S
C2606 H2580 0.950 . S
C2606 C2602 1.385 . S
C2606 C2605 1.374 . S
C2607 C2604 1.499 . S
C2607 C2608 1.373 . S
C2607 C2609 1.389 . S
C2608 H2581 0.950 . S
C2608 C2594 1.377 . S
C2608 C2607 1.373 . S
C2609 C2593 1.377 . S
C2609 C2607 1.389 . S
C2609 C2610 1.524 . S
C2610 C2609 1.524 . S
C2610 C2611 1.397 . S
C2610 C2615 1.363 . S
C2611 H2582 0.950 . S
C2611 C2610 1.397 . S
C2611 C2612 1.334 . S
C2612 H2583 0.950 . S
C2612 C2611 1.334 . S
C2612 C2613 1.287 . S
C2613 C2612 1.287 . S
C2613 C2614 1.524 . S
C2613 H2616 0.999 . S
C2614 H2584 0.950 . S
C2614 C2613 1.524 . S
C2614 C2615 1.415 . S
C2615 H2585 0.950 . S
C2615 C2610 1.363 . S
C2615 C2614 1.415 . S
H2616 C2613 0.999 . S
H2617 C2598 0.913 . S
H2618 C2636 0.951 . S
H2619 C2638 0.951 . S
H2620 C2640 0.950 . S
H2621 C2641 0.950 . S
H2622 C2643 0.950 . S
H2623 C2646 0.950 . S
H2624 C2647 0.950 . S
H2625 C2649 0.950 . S
H2626 C2650 0.950 . S
H2627 C2651 0.951 . S
H2628 C2653 0.951 . S
H2629 C2655 0.950 . S
H2630 C2656 0.950 . S
H2631 C2658 0.950 . S
H2632 C2661 0.950 . S
H2633 C2662 0.950 . S
H2634 C2664 0.950 . S
H2635 C2665 0.950 . S
C2636 H2618 0.951 . S
C2636 C2637 1.366 . S
C2636 C2638 1.388 . S
C2637 C2636 1.366 . S
C2637 C2641 1.385 . S
C2638 H2619 0.951 . S
C2638 C2636 1.388 . S
C2638 C2639 1.366 . S
C2639 C2638 1.366 . S
C2639 C2640 1.414 . S
C2639 C2642 1.499 . S
C2640 H2620 0.950 . S
C2640 C2639 1.414 . S
C2640 C2641 1.374 . S
C2641 H2621 0.950 . S
C2641 C2637 1.385 . S
C2641 C2640 1.374 . S
C2642 C2639 1.499 . S
C2642 C2643 1.373 . S
C2642 C2644 1.389 . S
C2643 H2622 0.950 . S
C2643 C2642 1.373 . S
C2643 C2659 1.377 . S
C2644 C2642 1.389 . S
C2644 C2645 1.524 . S
C2644 C2658 1.377 . S
C2645 C2644 1.524 . S
C2645 C2646 1.397 . S
C2645 C2650 1.363 . S
C2646 H2623 0.950 . S
C2646 C2645 1.397 . S
C2646 C2647 1.334 . S
C2647 H2624 0.950 . S
C2647 C2646 1.334 . S
C2647 C2648 1.287 . S
C2648 C2647 1.287 . S
C2648 C2649 1.524 . S
C2648 H2667 0.913 . S
C2649 H2625 0.950 . S
C2649 C2648 1.524 . S
C2649 C2650 1.415 . S
C2650 H2626 0.950 . S
C2650 C2645 1.363 . S
C2650 C2649 1.415 . S
C2651 H2627 0.951 . S
C2651 C2652 1.366 . S
C2651 C2653 1.388 . S
C2652 C2651 1.366 . S
C2652 C2656 1.385 . S
C2653 H2628 0.951 . S
C2653 C2651 1.388 . S
C2653 C2654 1.366 . S
C2654 C2653 1.366 . S
C2654 C2655 1.414 . S
C2654 C2657 1.499 . S
C2655 H2629 0.950 . S
C2655 C2654 1.414 . S
C2655 C2656 1.374 . S
C2656 H2630 0.950 . S
C2656 C2652 1.385 . S
C2656 C2655 1.374 . S
C2657 C2654 1.499 . S
C2657 C2658 1.373 . S
C2657 C2659 1.389 . S
C2658 H2631 0.950 . S
C2658 C2644 1.377 . S
C2658 C2657 1.373 . S
C2659 C2643 1.377 . S
C2659 C2657 1.389 . S
C2659 C2660 1.524 . S
C2660 C2659 1.524 . S
C2660 C2661 1.397 . S
C2660 C2665 1.363 . S
C2661 H2632 0.950 . S
C2661 C2660 1.397 . S
C2661 C2662 1.334 . S
C2662 H2633 0.950 . S
C2662 C2661 1.334 . S
C2662 C2663 1.287 . S
C2663 C2662 1.287 . S
C2663 C2664 1.524 . S
C2663 H2666 0.999 . S
C2664 H2634 0.950 . S
C2664 C2663 1.524 . S
C2664 C2665 1.415 . S
C2665 H2635 0.950 . S
C2665 C2660 1.363 . S
C2665 C2664 1.415 . S
H2666 C2663 0.999 . S
H2667 C2648 0.913 . S
H2668 C2686 0.951 . S
H2669 C2688 0.951 . S
H2670 C2690 0.950 . S
H2671 C2691 0.950 . S
H2672 C2693 0.950 . S
H2673 C2696 0.950 . S
H2674 C2697 0.950 . S
H2675 C2699 0.950 . S
H2676 C2700 0.950 . S
H2677 C2701 0.951 . S
H2678 C2703 0.951 . S
H2679 C2705 0.950 . S
H2680 C2706 0.950 . S
H2681 C2708 0.950 . S
H2682 C2711 0.950 . S
H2683 C2712 0.950 . S
H2684 C2714 0.950 . S
H2685 C2715 0.950 . S
C2686 H2668 0.951 . S
C2686 C2687 1.366 . S
C2686 C2688 1.388 . S
C2687 C2686 1.366 . S
C2687 C2691 1.385 . S
C2688 H2669 0.951 . S
C2688 C2686 1.388 . S
C2688 C2689 1.366 . S
C2689 C2688 1.366 . S
C2689 C2690 1.414 . S
C2689 C2692 1.499 . S
C2690 H2670 0.950 . S
C2690 C2689 1.414 . S
C2690 C2691 1.374 . S
C2691 H2671 0.950 . S
C2691 C2687 1.385 . S
C2691 C2690 1.374 . S
C2692 C2689 1.499 . S
C2692 C2693 1.373 . S
C2692 C2694 1.389 . S
C2693 H2672 0.950 . S
C2693 C2692 1.373 . S
C2693 C2709 1.377 . S
C2694 C2692 1.389 . S
C2694 C2695 1.524 . S
C2694 C2708 1.377 . S
C2695 C2694 1.524 . S
C2695 C2696 1.397 . S
C2695 C2700 1.363 . S
C2696 H2673 0.950 . S
C2696 C2695 1.397 . S
C2696 C2697 1.334 . S
C2697 H2674 0.950 . S
C2697 C2696 1.334 . S
C2697 C2698 1.287 . S
C2698 C2697 1.287 . S
C2698 C2699 1.524 . S
C2698 H2717 0.913 . S
C2699 H2675 0.950 . S
C2699 C2698 1.524 . S
C2699 C2700 1.415 . S
C2700 H2676 0.950 . S
C2700 C2695 1.363 . S
C2700 C2699 1.415 . S
C2701 H2677 0.951 . S
C2701 C2702 1.366 . S
C2701 C2703 1.388 . S
C2702 C2701 1.366 . S
C2702 C2706 1.385 . S
C2703 H2678 0.951 . S
C2703 C2701 1.388 . S
C2703 C2704 1.366 . S
C2704 C2703 1.366 . S
C2704 C2705 1.414 . S
C2704 C2707 1.499 . S
C2705 H2679 0.950 . S
C2705 C2704 1.414 . S
C2705 C2706 1.374 . S
C2706 H2680 0.950 . S
C2706 C2702 1.385 . S
C2706 C2705 1.374 . S
C2707 C2704 1.499 . S
C2707 C2708 1.373 . S
C2707 C2709 1.389 . S
C2708 H2681 0.950 . S
C2708 C2694 1.377 . S
C2708 C2707 1.373 . S
C2709 C2693 1.377 . S
C2709 C2707 1.389 . S
C2709 C2710 1.524 . S
C2710 C2709 1.524 . S
C2710 C2711 1.397 . S
C2710 C2715 1.363 . S
C2711 H2682 0.950 . S
C2711 C2710 1.397 . S
C2711 C2712 1.334 . S
C2712 H2683 0.950 . S
C2712 C2711 1.334 . S
C2712 C2713 1.287 . S
C2713 C2712 1.287 . S
C2713 C2714 1.524 . S
C2713 H2716 0.999 . S
C2714 H2684 0.950 . S
C2714 C2713 1.524 . S
C2714 C2715 1.415 . S
C2715 H2685 0.950 . S
C2715 C2710 1.363 . S
C2715 C2714 1.415 . S
H2716 C2713 0.999 . S
H2717 C2698 0.913 . S
H2718 C2736 0.951 . S
H2719 C2738 0.951 . S
H2720 C2740 0.950 . S
H2721 C2741 0.950 . S
H2722 C2743 0.950 . S
H2723 C2746 0.950 . S
H2724 C2747 0.950 . S
H2725 C2749 0.950 . S
H2726 C2750 0.950 . S
H2727 C2751 0.951 . S
H2728 C2753 0.951 . S
H2729 C2755 0.950 . S
H2730 C2756 0.950 . S
H2731 C2758 0.950 . S
H2732 C2761 0.950 . S
H2733 C2762 0.950 . S
H2734 C2764 0.950 . S
H2735 C2765 0.950 . S
C2736 H2718 0.951 . S
C2736 C2737 1.366 . S
C2736 C2738 1.388 . S
C2737 C2736 1.366 . S
C2737 C2741 1.385 . S
C2738 H2719 0.951 . S
C2738 C2736 1.388 . S
C2738 C2739 1.366 . S
C2739 C2738 1.366 . S
C2739 C2740 1.414 . S
C2739 C2742 1.499 . S
C2740 H2720 0.950 . S
C2740 C2739 1.414 . S
C2740 C2741 1.374 . S
C2741 H2721 0.950 . S
C2741 C2737 1.385 . S
C2741 C2740 1.374 . S
C2742 C2739 1.499 . S
C2742 C2743 1.373 . S
C2742 C2744 1.389 . S
C2743 H2722 0.950 . S
C2743 C2742 1.373 . S
C2743 C2759 1.377 . S
C2744 C2742 1.389 . S
C2744 C2745 1.524 . S
C2744 C2758 1.377 . S
C2745 C2744 1.524 . S
C2745 C2746 1.397 . S
C2745 C2750 1.363 . S
C2746 H2723 0.950 . S
C2746 C2745 1.397 . S
C2746 C2747 1.334 . S
C2747 H2724 0.950 . S
C2747 C2746 1.334 . S
C2747 C2748 1.287 . S
C2748 C2747 1.287 . S
C2748 C2749 1.524 . S
C2748 H2767 0.913 . S
C2749 H2725 0.950 . S
C2749 C2748 1.524 . S
C2749 C2750 1.415 . S
C2750 H2726 0.950 . S
C2750 C2745 1.363 . S
C2750 C2749 1.415 . S
C2751 H2727 0.951 . S
C2751 C2752 1.366 . S
C2751 C2753 1.388 . S
C2752 C2751 1.366 . S
C2752 C2756 1.385 . S
C2753 H2728 0.951 . S
C2753 C2751 1.388 . S
C2753 C2754 1.366 . S
C2754 C2753 1.366 . S
C2754 C2755 1.414 . S
C2754 C2757 1.499 . S
C2755 H2729 0.950 . S
C2755 C2754 1.414 . S
C2755 C2756 1.374 . S
C2756 H2730 0.950 . S
C2756 C2752 1.385 . S
C2756 C2755 1.374 . S
C2757 C2754 1.499 . S
C2757 C2758 1.373 . S
C2757 C2759 1.389 . S
C2758 H2731 0.950 . S
C2758 C2744 1.377 . S
C2758 C2757 1.373 . S
C2759 C2743 1.377 . S
C2759 C2757 1.389 . S
C2759 C2760 1.524 . S
C2760 C2759 1.524 . S
C2760 C2761 1.397 . S
C2760 C2765 1.363 . S
C2761 H2732 0.950 . S
C2761 C2760 1.397 . S
C2761 C2762 1.334 . S
C2762 H2733 0.950 . S
C2762 C2761 1.334 . S
C2762 C2763 1.287 . S
C2763 C2762 1.287 . S
C2763 C2764 1.524 . S
C2763 H2766 0.999 . S
C2764 H2734 0.950 . S
C2764 C2763 1.524 . S
C2764 C2765 1.415 . S
C2765 H2735 0.950 . S
C2765 C2760 1.363 . S
C2765 C2764 1.415 . S
H2766 C2763 0.999 . S
H2767 C2748 0.913 . S
H2768 C2786 0.951 . S
H2769 C2788 0.951 . S
H2770 C2790 0.950 . S
H2771 C2791 0.950 . S
H2772 C2793 0.950 . S
H2773 C2796 0.950 . S
H2774 C2797 0.950 . S
H2775 C2799 0.950 . S
H2776 C2800 0.950 . S
H2777 C2801 0.951 . S
H2778 C2803 0.951 . S
H2779 C2805 0.950 . S
H2780 C2806 0.950 . S
H2781 C2808 0.950 . S
H2782 C2811 0.950 . S
H2783 C2812 0.950 . S
H2784 C2814 0.950 . S
H2785 C2815 0.950 . S
C2786 H2768 0.951 . S
C2786 C2787 1.366 . S
C2786 C2788 1.388 . S
C2787 C2786 1.366 . S
C2787 C2791 1.385 . S
C2788 H2769 0.951 . S
C2788 C2786 1.388 . S
C2788 C2789 1.366 . S
C2789 C2788 1.366 . S
C2789 C2790 1.414 . S
C2789 C2792 1.499 . S
C2790 H2770 0.950 . S
C2790 C2789 1.414 . S
C2790 C2791 1.374 . S
C2791 H2771 0.950 . S
C2791 C2787 1.385 . S
C2791 C2790 1.374 . S
C2792 C2789 1.499 . S
C2792 C2793 1.373 . S
C2792 C2794 1.389 . S
C2793 H2772 0.950 . S
C2793 C2792 1.373 . S
C2793 C2809 1.377 . S
C2794 C2792 1.389 . S
C2794 C2795 1.524 . S
C2794 C2808 1.377 . S
C2795 C2794 1.524 . S
C2795 C2796 1.397 . S
C2795 C2800 1.363 . S
C2796 H2773 0.950 . S
C2796 C2795 1.397 . S
C2796 C2797 1.334 . S
C2797 H2774 0.950 . S
C2797 C2796 1.334 . S
C2797 C2798 1.287 . S
C2798 C2797 1.287 . S
C2798 C2799 1.524 . S
C2798 H2817 0.913 . S
C2799 H2775 0.950 . S
C2799 C2798 1.524 . S
C2799 C2800 1.415 . S
C2800 H2776 0.950 . S
C2800 C2795 1.363 . S
C2800 C2799 1.415 . S
C2801 H2777 0.951 . S
C2801 C2802 1.366 . S
C2801 C2803 1.388 . S
C2802 C2801 1.366 . S
C2802 C2806 1.385 . S
C2803 H2778 0.951 . S
C2803 C2801 1.388 . S
C2803 C2804 1.366 . S
C2804 C2803 1.366 . S
C2804 C2805 1.414 . S
C2804 C2807 1.499 . S
C2805 H2779 0.950 . S
C2805 C2804 1.414 . S
C2805 C2806 1.374 . S
C2806 H2780 0.950 . S
C2806 C2802 1.385 . S
C2806 C2805 1.374 . S
C2807 C2804 1.499 . S
C2807 C2808 1.373 . S
C2807 C2809 1.389 . S
C2808 H2781 0.950 . S
C2808 C2794 1.377 . S
C2808 C2807 1.373 . S
C2809 C2793 1.377 . S
C2809 C2807 1.389 . S
C2809 C2810 1.524 . S
C2810 C2809 1.524 . S
C2810 C2811 1.397 . S
C2810 C2815 1.363 . S
C2811 H2782 0.950 . S
C2811 C2810 1.397 . S
C2811 C2812 1.334 . S
C2812 H2783 0.950 . S
C2812 C2811 1.334 . S
C2812 C2813 1.287 . S
C2813 C2812 1.287 . S
C2813 C2814 1.524 . S
C2813 H2816 0.999 . S
C2814 H2784 0.950 . S
C2814 C2813 1.524 . S
C2814 C2815 1.415 . S
C2815 H2785 0.950 . S
C2815 C2810 1.363 . S
C2815 C2814 1.415 . S
H2816 C2813 0.999 . S
H2817 C2798 0.913 . S
H2818 C2836 0.951 . S
H2819 C2838 0.951 . S
H2820 C2840 0.950 . S
H2821 C2841 0.950 . S
H2822 C2843 0.950 . S
H2823 C2846 0.950 . S
H2824 C2847 0.950 . S
H2825 C2849 0.950 . S
H2826 C2850 0.950 . S
H2827 C2851 0.951 . S
H2828 C2853 0.951 . S
H2829 C2855 0.950 . S
H2830 C2856 0.950 . S
H2831 C2858 0.950 . S
H2832 C2861 0.950 . S
H2833 C2862 0.950 . S
H2834 C2864 0.950 . S
H2835 C2865 0.950 . S
C2836 H2818 0.951 . S
C2836 C2837 1.366 . S
C2836 C2838 1.388 . S
C2837 C2836 1.366 . S
C2837 C2841 1.385 . S
C2838 H2819 0.951 . S
C2838 C2836 1.388 . S
C2838 C2839 1.366 . S
C2839 C2838 1.366 . S
C2839 C2840 1.414 . S
C2839 C2842 1.499 . S
C2840 H2820 0.950 . S
C2840 C2839 1.414 . S
C2840 C2841 1.374 . S
C2841 H2821 0.950 . S
C2841 C2837 1.385 . S
C2841 C2840 1.374 . S
C2842 C2839 1.499 . S
C2842 C2843 1.373 . S
C2842 C2844 1.389 . S
C2843 H2822 0.950 . S
C2843 C2842 1.373 . S
C2843 C2859 1.377 . S
C2844 C2842 1.389 . S
C2844 C2845 1.524 . S
C2844 C2858 1.377 . S
C2845 C2844 1.524 . S
C2845 C2846 1.397 . S
C2845 C2850 1.363 . S
C2846 H2823 0.950 . S
C2846 C2845 1.397 . S
C2846 C2847 1.334 . S
C2847 H2824 0.950 . S
C2847 C2846 1.334 . S
C2847 C2848 1.287 . S
C2848 C2847 1.287 . S
C2848 C2849 1.524 . S
C2848 H2867 0.913 . S
C2849 H2825 0.950 . S
C2849 C2848 1.524 . S
C2849 C2850 1.415 . S
C2850 H2826 0.950 . S
C2850 C2845 1.363 . S
C2850 C2849 1.415 . S
C2851 H2827 0.951 . S
C2851 C2852 1.366 . S
C2851 C2853 1.388 . S
C2852 C2851 1.366 . S
C2852 C2856 1.385 . S
C2853 H2828 0.951 . S
C2853 C2851 1.388 . S
C2853 C2854 1.366 . S
C2854 C2853 1.366 . S
C2854 C2855 1.414 . S
C2854 C2857 1.499 . S
C2855 H2829 0.950 . S
C2855 C2854 1.414 . S
C2855 C2856 1.374 . S
C2856 H2830 0.950 . S
C2856 C2852 1.385 . S
C2856 C2855 1.374 . S
C2857 C2854 1.499 . S
C2857 C2858 1.373 . S
C2857 C2859 1.389 . S
C2858 H2831 0.950 . S
C2858 C2844 1.377 . S
C2858 C2857 1.373 . S
C2859 C2843 1.377 . S
C2859 C2857 1.389 . S
C2859 C2860 1.524 . S
C2860 C2859 1.524 . S
C2860 C2861 1.397 . S
C2860 C2865 1.363 . S
C2861 H2832 0.950 . S
C2861 C2860 1.397 . S
C2861 C2862 1.334 . S
C2862 H2833 0.950 . S
C2862 C2861 1.334 . S
C2862 C2863 1.287 . S
C2863 C2862 1.287 . S
C2863 C2864 1.524 . S
C2863 H2866 0.999 . S
C2864 H2834 0.950 . S
C2864 C2863 1.524 . S
C2864 C2865 1.415 . S
C2865 H2835 0.950 . S
C2865 C2860 1.363 . S
C2865 C2864 1.415 . S
H2866 C2863 0.999 . S
H2867 C2848 0.913 . S
H2868 C2886 0.951 . S
H2869 C2888 0.951 . S
H2870 C2890 0.950 . S
H2871 C2891 0.950 . S
H2872 C2893 0.950 . S
H2873 C2896 0.950 . S
H2874 C2897 0.950 . S
H2875 C2899 0.950 . S
H2876 C2900 0.950 . S
H2877 C2901 0.951 . S
H2878 C2903 0.951 . S
H2879 C2905 0.950 . S
H2880 C2906 0.950 . S
H2881 C2908 0.950 . S
H2882 C2911 0.950 . S
H2883 C2912 0.950 . S
H2884 C2914 0.950 . S
H2885 C2915 0.950 . S
C2886 H2868 0.951 . S
C2886 C2887 1.366 . S
C2886 C2888 1.388 . S
C2887 C2886 1.366 . S
C2887 C2891 1.385 . S
C2888 H2869 0.951 . S
C2888 C2886 1.388 . S
C2888 C2889 1.366 . S
C2889 C2888 1.366 . S
C2889 C2890 1.414 . S
C2889 C2892 1.499 . S
C2890 H2870 0.950 . S
C2890 C2889 1.414 . S
C2890 C2891 1.374 . S
C2891 H2871 0.950 . S
C2891 C2887 1.385 . S
C2891 C2890 1.374 . S
C2892 C2889 1.499 . S
C2892 C2893 1.373 . S
C2892 C2894 1.389 . S
C2893 H2872 0.950 . S
C2893 C2892 1.373 . S
C2893 C2909 1.377 . S
C2894 C2892 1.389 . S
C2894 C2895 1.524 . S
C2894 C2908 1.377 . S
C2895 C2894 1.524 . S
C2895 C2896 1.397 . S
C2895 C2900 1.363 . S
C2896 H2873 0.950 . S
C2896 C2895 1.397 . S
C2896 C2897 1.334 . S
C2897 H2874 0.950 . S
C2897 C2896 1.334 . S
C2897 C2898 1.287 . S
C2898 C2897 1.287 . S
C2898 C2899 1.524 . S
C2898 H2917 0.913 . S
C2899 H2875 0.950 . S
C2899 C2898 1.524 . S
C2899 C2900 1.415 . S
C2900 H2876 0.950 . S
C2900 C2895 1.363 . S
C2900 C2899 1.415 . S
C2901 H2877 0.951 . S
C2901 C2902 1.366 . S
C2901 C2903 1.388 . S
C2902 C2901 1.366 . S
C2902 C2906 1.385 . S
C2903 H2878 0.951 . S
C2903 C2901 1.388 . S
C2903 C2904 1.366 . S
C2904 C2903 1.366 . S
C2904 C2905 1.414 . S
C2904 C2907 1.499 . S
C2905 H2879 0.950 . S
C2905 C2904 1.414 . S
C2905 C2906 1.374 . S
C2906 H2880 0.950 . S
C2906 C2902 1.385 . S
C2906 C2905 1.374 . S
C2907 C2904 1.499 . S
C2907 C2908 1.373 . S
C2907 C2909 1.389 . S
C2908 H2881 0.950 . S
C2908 C2894 1.377 . S
C2908 C2907 1.373 . S
C2909 C2893 1.377 . S
C2909 C2907 1.389 . S
C2909 C2910 1.524 . S
C2910 C2909 1.524 . S
C2910 C2911 1.397 . S
C2910 C2915 1.363 . S
C2911 H2882 0.950 . S
C2911 C2910 1.397 . S
C2911 C2912 1.334 . S
C2912 H2883 0.950 . S
C2912 C2911 1.334 . S
C2912 C2913 1.287 . S
C2913 C2912 1.287 . S
C2913 C2914 1.524 . S
C2913 H2916 0.999 . S
C2914 H2884 0.950 . S
C2914 C2913 1.524 . S
C2914 C2915 1.415 . S
C2915 H2885 0.950 . S
C2915 C2910 1.363 . S
C2915 C2914 1.415 . S
H2916 C2913 0.999 . S
H2917 C2898 0.913 . S
H2918 C2936 0.951 . S
H2919 C2938 0.951 . S
H2920 C2940 0.950 . S
H2921 C2941 0.950 . S
H2922 C2943 0.950 . S
H2923 C2946 0.950 . S
H2924 C2947 0.950 . S
H2925 C2949 0.950 . S
H2926 C2950 0.950 . S
H2927 C2951 0.951 . S
H2928 C2953 0.951 . S
H2929 C2955 0.950 . S
H2930 C2956 0.950 . S
H2931 C2958 0.950 . S
H2932 C2961 0.950 . S
H2933 C2962 0.950 . S
H2934 C2964 0.950 . S
H2935 C2965 0.950 . S
C2936 H2918 0.951 . S
C2936 C2937 1.366 . S
C2936 C2938 1.388 . S
C2937 C2936 1.366 . S
C2937 C2941 1.385 . S
C2938 H2919 0.951 . S
C2938 C2936 1.388 . S
C2938 C2939 1.366 . S
C2939 C2938 1.366 . S
C2939 C2940 1.414 . S
C2939 C2942 1.499 . S
C2940 H2920 0.950 . S
C2940 C2939 1.414 . S
C2940 C2941 1.374 . S
C2941 H2921 0.950 . S
C2941 C2937 1.385 . S
C2941 C2940 1.374 . S
C2942 C2939 1.499 . S
C2942 C2943 1.373 . S
C2942 C2944 1.389 . S
C2943 H2922 0.950 . S
C2943 C2942 1.373 . S
C2943 C2959 1.377 . S
C2944 C2942 1.389 . S
C2944 C2945 1.524 . S
C2944 C2958 1.377 . S
C2945 C2944 1.524 . S
C2945 C2946 1.397 . S
C2945 C2950 1.363 . S
C2946 H2923 0.950 . S
C2946 C2945 1.397 . S
C2946 C2947 1.334 . S
C2947 H2924 0.950 . S
C2947 C2946 1.334 . S
C2947 C2948 1.287 . S
C2948 C2947 1.287 . S
C2948 C2949 1.524 . S
C2948 H2967 0.913 . S
C2949 H2925 0.950 . S
C2949 C2948 1.524 . S
C2949 C2950 1.415 . S
C2950 H2926 0.950 . S
C2950 C2945 1.363 . S
C2950 C2949 1.415 . S
C2951 H2927 0.951 . S
C2951 C2952 1.366 . S
C2951 C2953 1.388 . S
C2952 C2951 1.366 . S
C2952 C2956 1.385 . S
C2953 H2928 0.951 . S
C2953 C2951 1.388 . S
C2953 C2954 1.366 . S
C2954 C2953 1.366 . S
C2954 C2955 1.414 . S
C2954 C2957 1.499 . S
C2955 H2929 0.950 . S
C2955 C2954 1.414 . S
C2955 C2956 1.374 . S
C2956 H2930 0.950 . S
C2956 C2952 1.385 . S
C2956 C2955 1.374 . S
C2957 C2954 1.499 . S
C2957 C2958 1.373 . S
C2957 C2959 1.389 . S
C2958 H2931 0.950 . S
C2958 C2944 1.377 . S
C2958 C2957 1.373 . S
C2959 C2943 1.377 . S
C2959 C2957 1.389 . S
C2959 C2960 1.524 . S
C2960 C2959 1.524 . S
C2960 C2961 1.397 . S
C2960 C2965 1.363 . S
C2961 H2932 0.950 . S
C2961 C2960 1.397 . S
C2961 C2962 1.334 . S
C2962 H2933 0.950 . S
C2962 C2961 1.334 . S
C2962 C2963 1.287 . S
C2963 C2962 1.287 . S
C2963 C2964 1.524 . S
C2963 H2966 0.999 . S
C2964 H2934 0.950 . S
C2964 C2963 1.524 . S
C2964 C2965 1.415 . S
C2965 H2935 0.950 . S
C2965 C2960 1.363 . S
C2965 C2964 1.415 . S
H2966 C2963 0.999 . S
H2967 C2948 0.913 . S
H2968 C2986 0.951 . S
H2969 C2988 0.951 . S
H2970 C2990 0.950 . S
H2971 C2991 0.950 . S
H2972 C2993 0.950 . S
H2973 C2996 0.950 . S
H2974 C2997 0.950 . S
H2975 C2999 0.950 . S
H2976 C3000 0.950 . S
H2977 C3001 0.951 . S
H2978 C3003 0.951 . S
H2979 C3005 0.950 . S
H2980 C3006 0.950 . S
H2981 C3008 0.950 . S
H2982 C3011 0.950 . S
H2983 C3012 0.950 . S
H2984 C3014 0.950 . S
H2985 C3015 0.950 . S
C2986 H2968 0.951 . S
C2986 C2987 1.366 . S
C2986 C2988 1.388 . S
C2987 C2986 1.366 . S
C2987 C2991 1.385 . S
C2988 H2969 0.951 . S
C2988 C2986 1.388 . S
C2988 C2989 1.366 . S
C2989 C2988 1.366 . S
C2989 C2990 1.414 . S
C2989 C2992 1.499 . S
C2990 H2970 0.950 . S
C2990 C2989 1.414 . S
C2990 C2991 1.374 . S
C2991 H2971 0.950 . S
C2991 C2987 1.385 . S
C2991 C2990 1.374 . S
C2992 C2989 1.499 . S
C2992 C2993 1.373 . S
C2992 C2994 1.389 . S
C2993 H2972 0.950 . S
C2993 C2992 1.373 . S
C2993 C3009 1.377 . S
C2994 C2992 1.389 . S
C2994 C2995 1.524 . S
C2994 C3008 1.377 . S
C2995 C2994 1.524 . S
C2995 C2996 1.397 . S
C2995 C3000 1.363 . S
C2996 H2973 0.950 . S
C2996 C2995 1.397 . S
C2996 C2997 1.334 . S
C2997 H2974 0.950 . S
C2997 C2996 1.334 . S
C2997 C2998 1.287 . S
C2998 C2997 1.287 . S
C2998 C2999 1.524 . S
C2998 H3017 0.913 . S
C2999 H2975 0.950 . S
C2999 C2998 1.524 . S
C2999 C3000 1.415 . S
C3000 H2976 0.950 . S
C3000 C2995 1.363 . S
C3000 C2999 1.415 . S
C3001 H2977 0.951 . S
C3001 C3002 1.366 . S
C3001 C3003 1.388 . S
C3002 C3001 1.366 . S
C3002 C3006 1.385 . S
C3003 H2978 0.951 . S
C3003 C3001 1.388 . S
C3003 C3004 1.366 . S
C3004 C3003 1.366 . S
C3004 C3005 1.414 . S
C3004 C3007 1.499 . S
C3005 H2979 0.950 . S
C3005 C3004 1.414 . S
C3005 C3006 1.374 . S
C3006 H2980 0.950 . S
C3006 C3002 1.385 . S
C3006 C3005 1.374 . S
C3007 C3004 1.499 . S
C3007 C3008 1.373 . S
C3007 C3009 1.389 . S
C3008 H2981 0.950 . S
C3008 C2994 1.377 . S
C3008 C3007 1.373 . S
C3009 C2993 1.377 . S
C3009 C3007 1.389 . S
C3009 C3010 1.524 . S
C3010 C3009 1.524 . S
C3010 C3011 1.397 . S
C3010 C3015 1.363 . S
C3011 H2982 0.950 . S
C3011 C3010 1.397 . S
C3011 C3012 1.334 . S
C3012 H2983 0.950 . S
C3012 C3011 1.334 . S
C3012 C3013 1.287 . S
C3013 C3012 1.287 . S
C3013 C3014 1.524 . S
C3013 H3016 0.999 . S
C3014 H2984 0.950 . S
C3014 C3013 1.524 . S
C3014 C3015 1.415 . S
C3015 H2985 0.950 . S
C3015 C3010 1.363 . S
C3015 C3014 1.415 . S
H3016 C3013 0.999 . S
H3017 C2998 0.913 . S
H3018 C3036 0.951 . S
H3019 C3038 0.951 . S
H3020 C3040 0.950 . S
H3021 C3041 0.950 . S
H3022 C3043 0.950 . S
H3023 C3046 0.950 . S
H3024 C3047 0.950 . S
H3025 C3049 0.950 . S
H3026 C3050 0.950 . S
H3027 C3051 0.951 . S
H3028 C3053 0.951 . S
H3029 C3055 0.950 . S
H3030 C3056 0.950 . S
H3031 C3058 0.950 . S
H3032 C3061 0.950 . S
H3033 C3062 0.950 . S
H3034 C3064 0.950 . S
H3035 C3065 0.950 . S
C3036 H3018 0.951 . S
C3036 C3037 1.366 . S
C3036 C3038 1.388 . S
C3037 C3036 1.366 . S
C3037 C3041 1.385 . S
C3038 H3019 0.951 . S
C3038 C3036 1.388 . S
C3038 C3039 1.366 . S
C3039 C3038 1.366 . S
C3039 C3040 1.414 . S
C3039 C3042 1.499 . S
C3040 H3020 0.950 . S
C3040 C3039 1.414 . S
C3040 C3041 1.374 . S
C3041 H3021 0.950 . S
C3041 C3037 1.385 . S
C3041 C3040 1.374 . S
C3042 C3039 1.499 . S
C3042 C3043 1.373 . S
C3042 C3044 1.389 . S
C3043 H3022 0.950 . S
C3043 C3042 1.373 . S
C3043 C3059 1.377 . S
C3044 C3042 1.389 . S
C3044 C3045 1.524 . S
C3044 C3058 1.377 . S
C3045 C3044 1.524 . S
C3045 C3046 1.397 . S
C3045 C3050 1.363 . S
C3046 H3023 0.950 . S
C3046 C3045 1.397 . S
C3046 C3047 1.334 . S
C3047 H3024 0.950 . S
C3047 C3046 1.334 . S
C3047 C3048 1.287 . S
C3048 C3047 1.287 . S
C3048 C3049 1.524 . S
C3048 H3067 0.913 . S
C3049 H3025 0.950 . S
C3049 C3048 1.524 . S
C3049 C3050 1.415 . S
C3050 H3026 0.950 . S
C3050 C3045 1.363 . S
C3050 C3049 1.415 . S
C3051 H3027 0.951 . S
C3051 C3052 1.366 . S
C3051 C3053 1.388 . S
C3052 C3051 1.366 . S
C3052 C3056 1.385 . S
C3053 H3028 0.951 . S
C3053 C3051 1.388 . S
C3053 C3054 1.366 . S
C3054 C3053 1.366 . S
C3054 C3055 1.414 . S
C3054 C3057 1.499 . S
C3055 H3029 0.950 . S
C3055 C3054 1.414 . S
C3055 C3056 1.374 . S
C3056 H3030 0.950 . S
C3056 C3052 1.385 . S
C3056 C3055 1.374 . S
C3057 C3054 1.499 . S
C3057 C3058 1.373 . S
C3057 C3059 1.389 . S
C3058 H3031 0.950 . S
C3058 C3044 1.377 . S
C3058 C3057 1.373 . S
C3059 C3043 1.377 . S
C3059 C3057 1.389 . S
C3059 C3060 1.524 . S
C3060 C3059 1.524 . S
C3060 C3061 1.397 . S
C3060 C3065 1.363 . S
C3061 H3032 0.950 . S
C3061 C3060 1.397 . S
C3061 C3062 1.334 . S
C3062 H3033 0.950 . S
C3062 C3061 1.334 . S
C3062 C3063 1.287 . S
C3063 C3062 1.287 . S
C3063 C3064 1.524 . S
C3063 H3066 0.999 . S
C3064 H3034 0.950 . S
C3064 C3063 1.524 . S
C3064 C3065 1.415 . S
C3065 H3035 0.950 . S
C3065 C3060 1.363 . S
C3065 C3064 1.415 . S
H3066 C3063 0.999 . S
H3067 C3048 0.913 . S
H3068 C3086 0.951 . S
H3069 C3088 0.951 . S
H3070 C3090 0.950 . S
H3071 C3091 0.950 . S
H3072 C3093 0.950 . S
H3073 C3096 0.950 . S
H3074 C3097 0.950 . S
H3075 C3099 0.950 . S
H3076 C3100 0.950 . S
H3077 C3101 0.951 . S
H3078 C3103 0.951 . S
H3079 C3105 0.950 . S
H3080 C3106 0.950 . S
H3081 C3108 0.950 . S
H3082 C3111 0.950 . S
H3083 C3112 0.950 . S
H3084 C3114 0.950 . S
H3085 C3115 0.950 . S
C3086 H3068 0.951 . S
C3086 C3087 1.366 . S
C3086 C3088 1.388 . S
C3087 C3086 1.366 . S
C3087 C3091 1.385 . S
C3088 H3069 0.951 . S
C3088 C3086 1.388 . S
C3088 C3089 1.366 . S
C3089 C3088 1.366 . S
C3089 C3090 1.414 . S
C3089 C3092 1.499 . S
C3090 H3070 0.950 . S
C3090 C3089 1.414 . S
C3090 C3091 1.374 . S
C3091 H3071 0.950 . S
C3091 C3087 1.385 . S
C3091 C3090 1.374 . S
C3092 C3089 1.499 . S
C3092 C3093 1.373 . S
C3092 C3094 1.389 . S
C3093 H3072 0.950 . S
C3093 C3092 1.373 . S
C3093 C3109 1.377 . S
C3094 C3092 1.389 . S
C3094 C3095 1.524 . S
C3094 C3108 1.377 . S
C3095 C3094 1.524 . S
C3095 C3096 1.397 . S
C3095 C3100 1.363 . S
C3096 H3073 0.950 . S
C3096 C3095 1.397 . S
C3096 C3097 1.334 . S
C3097 H3074 0.950 . S
C3097 C3096 1.334 . S
C3097 C3098 1.287 . S
C3098 C3097 1.287 . S
C3098 C3099 1.524 . S
C3098 H3117 0.913 . S
C3099 H3075 0.950 . S
C3099 C3098 1.524 . S
C3099 C3100 1.415 . S
C3100 H3076 0.950 . S
C3100 C3095 1.363 . S
C3100 C3099 1.415 . S
C3101 H3077 0.951 . S
C3101 C3102 1.366 . S
C3101 C3103 1.388 . S
C3102 C3101 1.366 . S
C3102 C3106 1.385 . S
C3103 H3078 0.951 . S
C3103 C3101 1.388 . S
C3103 C3104 1.366 . S
C3104 C3103 1.366 . S
C3104 C3105 1.414 . S
C3104 C3107 1.499 . S
C3105 H3079 0.950 . S
C3105 C3104 1.414 . S
C3105 C3106 1.374 . S
C3106 H3080 0.950 . S
C3106 C3102 1.385 . S
C3106 C3105 1.374 . S
C3107 C3104 1.499 . S
C3107 C3108 1.373 . S
C3107 C3109 1.389 . S
C3108 H3081 0.950 . S
C3108 C3094 1.377 . S
C3108 C3107 1.373 . S
C3109 C3093 1.377 . S
C3109 C3107 1.389 . S
C3109 C3110 1.524 . S
C3110 C3109 1.524 . S
C3110 C3111 1.397 . S
C3110 C3115 1.363 . S
C3111 H3082 0.950 . S
C3111 C3110 1.397 . S
C3111 C3112 1.334 . S
C3112 H3083 0.950 . S
C3112 C3111 1.334 . S
C3112 C3113 1.287 . S
C3113 C3112 1.287 . S
C3113 C3114 1.524 . S
C3113 H3116 0.999 . S
C3114 H3084 0.950 . S
C3114 C3113 1.524 . S
C3114 C3115 1.415 . S
C3115 H3085 0.950 . S
C3115 C3110 1.363 . S
C3115 C3114 1.415 . S
H3116 C3113 0.999 . S
H3117 C3098 0.913 . S
H3118 C3136 0.951 . S
H3119 C3138 0.951 . S
H3120 C3140 0.950 . S
H3121 C3141 0.950 . S
H3122 C3143 0.950 . S
H3123 C3146 0.950 . S
H3124 C3147 0.950 . S
H3125 C3149 0.950 . S
H3126 C3150 0.950 . S
H3127 C3151 0.951 . S
H3128 C3153 0.951 . S
H3129 C3155 0.950 . S
H3130 C3156 0.950 . S
H3131 C3158 0.950 . S
H3132 C3161 0.950 . S
H3133 C3162 0.950 . S
H3134 C3164 0.950 . S
H3135 C3165 0.950 . S
C3136 H3118 0.951 . S
C3136 C3137 1.366 . S
C3136 C3138 1.388 . S
C3137 C3136 1.366 . S
C3137 C3141 1.385 . S
C3138 H3119 0.951 . S
C3138 C3136 1.388 . S
C3138 C3139 1.366 . S
C3139 C3138 1.366 . S
C3139 C3140 1.414 . S
C3139 C3142 1.499 . S
C3140 H3120 0.950 . S
C3140 C3139 1.414 . S
C3140 C3141 1.374 . S
C3141 H3121 0.950 . S
C3141 C3137 1.385 . S
C3141 C3140 1.374 . S
C3142 C3139 1.499 . S
C3142 C3143 1.373 . S
C3142 C3144 1.389 . S
C3143 H3122 0.950 . S
C3143 C3142 1.373 . S
C3143 C3159 1.377 . S
C3144 C3142 1.389 . S
C3144 C3145 1.524 . S
C3144 C3158 1.377 . S
C3145 C3144 1.524 . S
C3145 C3146 1.397 . S
C3145 C3150 1.363 . S
C3146 H3123 0.950 . S
C3146 C3145 1.397 . S
C3146 C3147 1.334 . S
C3147 H3124 0.950 . S
C3147 C3146 1.334 . S
C3147 C3148 1.287 . S
C3148 C3147 1.287 . S
C3148 C3149 1.524 . S
C3148 H3167 0.913 . S
C3149 H3125 0.950 . S
C3149 C3148 1.524 . S
C3149 C3150 1.415 . S
C3150 H3126 0.950 . S
C3150 C3145 1.363 . S
C3150 C3149 1.415 . S
C3151 H3127 0.951 . S
C3151 C3152 1.366 . S
C3151 C3153 1.388 . S
C3152 C3151 1.366 . S
C3152 C3156 1.385 . S
C3153 H3128 0.951 . S
C3153 C3151 1.388 . S
C3153 C3154 1.366 . S
C3154 C3153 1.366 . S
C3154 C3155 1.414 . S
C3154 C3157 1.499 . S
C3155 H3129 0.950 . S
C3155 C3154 1.414 . S
C3155 C3156 1.374 . S
C3156 H3130 0.950 . S
C3156 C3152 1.385 . S
C3156 C3155 1.374 . S
C3157 C3154 1.499 . S
C3157 C3158 1.373 . S
C3157 C3159 1.389 . S
C3158 H3131 0.950 . S
C3158 C3144 1.377 . S
C3158 C3157 1.373 . S
C3159 C3143 1.377 . S
C3159 C3157 1.389 . S
C3159 C3160 1.524 . S
C3160 C3159 1.524 . S
C3160 C3161 1.397 . S
C3160 C3165 1.363 . S
C3161 H3132 0.950 . S
C3161 C3160 1.397 . S
C3161 C3162 1.334 . S
C3162 H3133 0.950 . S
C3162 C3161 1.334 . S
C3162 C3163 1.287 . S
C3163 C3162 1.287 . S
C3163 C3164 1.524 . S
C3163 H3166 0.999 . S
C3164 H3134 0.950 . S
C3164 C3163 1.524 . S
C3164 C3165 1.415 . S
C3165 H3135 0.950 . S
C3165 C3160 1.363 . S
C3165 C3164 1.415 . S
H3166 C3163 0.999 . S
H3167 C3148 0.913 . S
H3168 C3186 0.951 . S
H3169 C3188 0.951 . S
H3170 C3190 0.950 . S
H3171 C3191 0.950 . S
H3172 C3193 0.950 . S
H3173 C3196 0.950 . S
H3174 C3197 0.950 . S
H3175 C3199 0.892 1_556 S
H3176 C3200 0.950 . S
H3177 C3201 0.951 . S
H3178 C3203 0.951 . S
H3179 C3205 0.950 . S
H3180 C3206 0.950 . S
H3181 C3208 0.950 . S
H3182 C3211 0.950 . S
H3183 C3212 0.950 . S
H3184 C3214 0.950 . S
H3185 C3215 0.950 . S
C3186 H3168 0.951 . S
C3186 C3187 1.366 . S
C3186 C3188 1.388 . S
C3187 C3186 1.366 . S
C3187 C3191 1.385 . S
C3188 H3169 0.951 . S
C3188 C3186 1.388 . S
C3188 C3189 1.366 . S
C3189 C3188 1.366 . S
C3189 C3190 1.414 . S
C3189 C3192 1.499 . S
C3190 H3170 0.950 . S
C3190 C3189 1.414 . S
C3190 C3191 1.374 . S
C3191 H3171 0.950 . S
C3191 C3187 1.385 . S
C3191 C3190 1.374 . S
C3192 C3189 1.499 . S
C3192 C3193 1.373 . S
C3192 C3194 1.389 . S
C3193 H3172 0.950 . S
C3193 C3192 1.373 . S
C3193 C3209 1.377 . S
C3194 C3192 1.389 . S
C3194 C3195 1.524 . S
C3194 C3208 1.377 . S
C3195 C3194 1.524 . S
C3195 C3196 1.397 . S
C3195 C3200 1.363 . S
C3196 H3173 0.950 . S
C3196 C3195 1.397 . S
C3196 C3197 1.334 . S
C3197 H3174 0.950 . S
C3197 C3196 1.334 . S
C3197 C3198 1.287 . S
C3198 C3197 1.287 . S
C3198 C3199 1.533 . S
C3198 H3217 0.913 1_554 S
C3199 H3175 0.892 1_554 S
C3199 C3198 1.533 . S
C3199 C3200 1.474 . S
C3200 H3176 0.950 . S
C3200 C3195 1.363 . S
C3200 C3199 1.474 . S
C3201 H3177 0.951 . S
C3201 C3202 1.366 . S
C3201 C3203 1.388 . S
C3202 C3201 1.366 . S
C3202 C3206 1.385 . S
C3203 H3178 0.951 . S
C3203 C3201 1.388 . S
C3203 C3204 1.366 . S
C3204 C3203 1.366 . S
C3204 C3205 1.414 . S
C3204 C3207 1.499 . S
C3205 H3179 0.950 . S
C3205 C3204 1.414 . S
C3205 C3206 1.374 . S
C3206 H3180 0.950 . S
C3206 C3202 1.385 . S
C3206 C3205 1.374 . S
C3207 C3204 1.499 . S
C3207 C3208 1.373 . S
C3207 C3209 1.389 . S
C3208 H3181 0.950 . S
C3208 C3194 1.377 . S
C3208 C3207 1.373 . S
C3209 C3193 1.377 . S
C3209 C3207 1.389 . S
C3209 C3210 1.524 . S
C3210 C3209 1.524 . S
C3210 C3211 1.397 . S
C3210 C3215 1.363 . S
C3211 H3182 0.950 . S
C3211 C3210 1.397 . S
C3211 C3212 1.334 . S
C3212 H3183 0.950 . S
C3212 C3211 1.334 . S
C3212 C3213 1.287 . S
C3213 C3212 1.287 . S
C3213 C3214 1.524 . S
C3213 H3216 0.999 . S
C3214 H3184 0.950 . S
C3214 C3213 1.524 . S
C3214 C3215 1.415 . S
C3215 H3185 0.950 . S
C3215 C3210 1.363 . S
C3215 C3214 1.415 . S
H3216 C3213 0.999 . S
H3217 C3198 0.913 1_556 S
H3218 C3236 0.951 . S
H3219 C3238 0.951 . S
H3220 C3240 0.950 . S
H3221 C3241 0.950 . S
H3222 C3243 0.950 . S
H3223 C3246 0.950 . S
H3224 C3247 0.950 . S
H3225 C3249 0.950 . S
H3226 C3250 0.950 . S
H3227 C3251 0.951 . S
H3228 C3253 0.951 . S
H3229 C3255 0.950 . S
H3230 C3256 0.950 . S
H3231 C3258 0.950 . S
H3232 C3261 0.950 . S
H3233 C3262 0.950 . S
H3234 C3264 0.950 . S
H3235 C3265 0.950 . S
C3236 H3218 0.951 . S
C3236 C3237 1.366 . S
C3236 C3238 1.388 . S
C3237 C3236 1.366 . S
C3237 C3241 1.385 . S
C3238 H3219 0.951 . S
C3238 C3236 1.388 . S
C3238 C3239 1.366 . S
C3239 C3238 1.366 . S
C3239 C3240 1.414 . S
C3239 C3242 1.499 . S
C3240 H3220 0.950 . S
C3240 C3239 1.414 . S
C3240 C3241 1.374 . S
C3241 H3221 0.950 . S
C3241 C3237 1.385 . S
C3241 C3240 1.374 . S
C3242 C3239 1.499 . S
C3242 C3243 1.373 . S
C3242 C3244 1.389 . S
C3243 H3222 0.950 . S
C3243 C3242 1.373 . S
C3243 C3259 1.377 . S
C3244 C3242 1.389 . S
C3244 C3245 1.524 . S
C3244 C3258 1.377 . S
C3245 C3244 1.524 . S
C3245 C3246 1.397 . S
C3245 C3250 1.363 . S
C3246 H3223 0.950 . S
C3246 C3245 1.397 . S
C3246 C3247 1.334 . S
C3247 H3224 0.950 . S
C3247 C3246 1.334 . S
C3247 C3248 1.287 . S
C3248 C3247 1.287 . S
C3248 C3249 1.524 . S
C3248 H3267 0.913 . S
C3249 H3225 0.950 . S
C3249 C3248 1.524 . S
C3249 C3250 1.415 . S
C3250 H3226 0.950 . S
C3250 C3245 1.363 . S
C3250 C3249 1.415 . S
C3251 H3227 0.951 . S
C3251 C3252 1.366 . S
C3251 C3253 1.388 . S
C3252 C3251 1.366 . S
C3252 C3256 1.385 . S
C3253 H3228 0.951 . S
C3253 C3251 1.388 . S
C3253 C3254 1.366 . S
C3254 C3253 1.366 . S
C3254 C3255 1.414 . S
C3254 C3257 1.499 . S
C3255 H3229 0.950 . S
C3255 C3254 1.414 . S
C3255 C3256 1.374 . S
C3256 H3230 0.950 . S
C3256 C3252 1.385 . S
C3256 C3255 1.374 . S
C3257 C3254 1.499 . S
C3257 C3258 1.373 . S
C3257 C3259 1.389 . S
C3258 H3231 0.950 . S
C3258 C3244 1.377 . S
C3258 C3257 1.373 . S
C3259 C3243 1.377 . S
C3259 C3257 1.389 . S
C3259 C3260 1.524 . S
C3260 C3259 1.524 . S
C3260 C3261 1.397 . S
C3260 C3265 1.363 . S
C3261 H3232 0.950 . S
C3261 C3260 1.397 . S
C3261 C3262 1.334 . S
C3262 H3233 0.950 . S
C3262 C3261 1.334 . S
C3262 C3263 1.287 . S
C3263 C3262 1.287 . S
C3263 C3264 1.524 . S
C3263 H3266 0.999 . S
C3264 H3234 0.950 . S
C3264 C3263 1.524 . S
C3264 C3265 1.415 . S
C3265 H3235 0.950 . S
C3265 C3260 1.363 . S
C3265 C3264 1.415 . S
H3266 C3263 0.999 . S
H3267 C3248 0.913 . S
H3268 C3286 0.951 . S
H3269 C3288 0.951 . S
H3270 C3290 0.950 . S
H3271 C3291 0.950 . S
H3272 C3293 0.950 . S
H3273 C3296 0.950 . S
H3274 C3297 0.950 . S
H3275 C3299 0.950 . S
H3276 C3300 0.950 . S
H3277 C3301 0.951 . S
H3278 C3303 0.951 . S
H3279 C3305 0.950 . S
H3280 C3306 0.950 . S
H3281 C3308 0.950 . S
H3282 C3311 0.950 . S
H3283 C3312 0.950 . S
H3284 C3314 0.950 . S
H3285 C3315 0.950 . S
C3286 H3268 0.951 . S
C3286 C3287 1.366 . S
C3286 C3288 1.388 . S
C3287 C3286 1.366 . S
C3287 C3291 1.385 . S
C3288 H3269 0.951 . S
C3288 C3286 1.388 . S
C3288 C3289 1.366 . S
C3289 C3288 1.366 . S
C3289 C3290 1.414 . S
C3289 C3292 1.499 . S
C3290 H3270 0.950 . S
C3290 C3289 1.414 . S
C3290 C3291 1.374 . S
C3291 H3271 0.950 . S
C3291 C3287 1.385 . S
C3291 C3290 1.374 . S
C3292 C3289 1.499 . S
C3292 C3293 1.373 . S
C3292 C3294 1.389 . S
C3293 H3272 0.950 . S
C3293 C3292 1.373 . S
C3293 C3309 1.377 . S
C3294 C3292 1.389 . S
C3294 C3295 1.524 . S
C3294 C3308 1.377 . S
C3295 C3294 1.524 . S
C3295 C3296 1.397 . S
C3295 C3300 1.363 . S
C3296 H3273 0.950 . S
C3296 C3295 1.397 . S
C3296 C3297 1.334 . S
C3297 H3274 0.950 . S
C3297 C3296 1.334 . S
C3297 C3298 1.287 . S
C3298 C3297 1.287 . S
C3298 C3299 1.524 . S
C3298 H3317 0.913 . S
C3299 H3275 0.950 . S
C3299 C3298 1.524 . S
C3299 C3300 1.415 . S
C3300 H3276 0.950 . S
C3300 C3295 1.363 . S
C3300 C3299 1.415 . S
C3301 H3277 0.951 . S
C3301 C3302 1.366 . S
C3301 C3303 1.388 . S
C3302 C3301 1.366 . S
C3302 C3306 1.385 . S
C3303 H3278 0.951 . S
C3303 C3301 1.388 . S
C3303 C3304 1.366 . S
C3304 C3303 1.366 . S
C3304 C3305 1.414 . S
C3304 C3307 1.499 . S
C3305 H3279 0.950 . S
C3305 C3304 1.414 . S
C3305 C3306 1.374 . S
C3306 H3280 0.950 . S
C3306 C3302 1.385 . S
C3306 C3305 1.374 . S
C3307 C3304 1.499 . S
C3307 C3308 1.373 . S
C3307 C3309 1.389 . S
C3308 H3281 0.950 . S
C3308 C3294 1.377 . S
C3308 C3307 1.373 . S
C3309 C3293 1.377 . S
C3309 C3307 1.389 . S
C3309 C3310 1.524 . S
C3310 C3309 1.524 . S
C3310 C3311 1.397 . S
C3310 C3315 1.363 . S
C3311 H3282 0.950 . S
C3311 C3310 1.397 . S
C3311 C3312 1.334 . S
C3312 H3283 0.950 . S
C3312 C3311 1.334 . S
C3312 C3313 1.287 . S
C3313 C3312 1.287 . S
C3313 C3314 1.524 . S
C3313 H3316 0.999 . S
C3314 H3284 0.950 . S
C3314 C3313 1.524 . S
C3314 C3315 1.415 . S
C3315 H3285 0.950 . S
C3315 C3310 1.363 . S
C3315 C3314 1.415 . S
H3316 C3313 0.999 . S
H3317 C3298 0.913 . S
H3318 C3336 0.951 . S
H3319 C3338 0.951 . S
H3320 C3340 0.950 . S
H3321 C3341 0.950 1_554 S
H3322 C3343 0.950 . S
H3323 C3346 0.950 . S
H3324 C3347 0.950 . S
H3325 C3349 0.950 . S
H3326 C3350 0.950 . S
H3327 C3351 0.951 . S
H3328 C3353 0.951 . S
H3329 C3355 0.950 . S
H3330 C3356 0.950 . S
H3331 C3358 0.950 . S
H3332 C3361 0.950 . S
H3333 C3362 0.950 . S
H3334 C3364 0.950 . S
H3335 C3365 0.950 . S
C3336 H3318 0.951 . S
C3336 C3337 1.366 . S
C3336 C3338 1.388 . S
C3337 C3336 1.366 . S
C3337 C3341 1.385 . S
C3338 H3319 0.951 . S
C3338 C3336 1.388 . S
C3338 C3339 1.366 . S
C3339 C3338 1.366 . S
C3339 C3340 1.414 . S
C3339 C3342 1.499 . S
C3340 H3320 0.950 . S
C3340 C3339 1.414 . S
C3340 C3341 1.374 . S
C3341 H3321 0.950 1_556 S
C3341 C3337 1.385 . S
C3341 C3340 1.374 . S
C3342 C3339 1.499 . S
C3342 C3343 1.373 . S
C3342 C3344 1.389 . S
C3343 H3322 0.950 . S
C3343 C3342 1.373 . S
C3343 C3359 1.377 . S
C3344 C3342 1.389 . S
C3344 C3345 1.524 . S
C3344 C3358 1.377 . S
C3345 C3344 1.524 . S
C3345 C3346 1.397 1_556 S
C3345 C3350 1.363 . S
C3346 H3323 0.950 . S
C3346 C3345 1.397 1_554 S
C3346 C3347 1.334 . S
C3347 H3324 0.950 . S
C3347 C3346 1.334 . S
C3347 C3348 1.287 . S
C3348 C3347 1.287 . S
C3348 C3349 1.524 1_554 S
C3348 H3367 0.913 . S
C3349 H3325 0.950 . S
C3349 C3348 1.524 1_556 S
C3349 C3350 1.415 . S
C3350 H3326 0.950 . S
C3350 C3345 1.363 . S
C3350 C3349 1.415 . S
C3351 H3327 0.951 . S
C3351 C3352 1.366 . S
C3351 C3353 1.388 . S
C3352 C3351 1.366 . S
C3352 C3356 1.385 . S
C3353 H3328 0.951 . S
C3353 C3351 1.388 . S
C3353 C3354 1.366 . S
C3354 C3353 1.366 . S
C3354 C3355 1.414 . S
C3354 C3357 1.499 . S
C3355 H3329 0.950 . S
C3355 C3354 1.414 . S
C3355 C3356 1.374 . S
C3356 H3330 0.950 . S
C3356 C3352 1.385 . S
C3356 C3355 1.374 . S
C3357 C3354 1.499 . S
C3357 C3358 1.373 . S
C3357 C3359 1.389 . S
C3358 H3331 0.950 . S
C3358 C3344 1.377 . S
C3358 C3357 1.373 . S
C3359 C3343 1.377 . S
C3359 C3357 1.389 . S
C3359 C3360 1.524 . S
C3360 C3359 1.524 . S
C3360 C3361 1.397 . S
C3360 C3365 1.363 . S
C3361 H3332 0.950 . S
C3361 C3360 1.397 . S
C3361 C3362 1.334 . S
C3362 H3333 0.950 . S
C3362 C3361 1.334 . S
C3362 C3363 1.287 . S
C3363 C3362 1.287 . S
C3363 C3364 1.524 . S
C3363 H3366 0.999 . S
C3364 H3334 0.950 . S
C3364 C3363 1.524 . S
C3364 C3365 1.415 . S
C3365 H3335 0.950 . S
C3365 C3360 1.363 . S
C3365 C3364 1.415 . S
H3366 C3363 0.999 . S
H3367 C3348 0.913 . S
H3368 C3386 0.951 . S
H3369 C3388 0.943 1_554 S
H3370 C3390 0.950 . S
H3371 C3391 0.950 . S
H3372 C3393 0.950 . S
H3373 C3396 0.950 . S
H3374 C3397 0.950 . S
H3375 C3399 0.950 . S
H3376 C3400 0.950 . S
H3377 C3401 0.951 . S
H3378 C3403 0.951 . S
H3379 C3405 0.950 . S
H3380 C3406 0.950 . S
H3381 C3408 0.950 . S
H3382 C3411 0.950 . S
H3383 C3412 0.950 . S
H3384 C3414 0.950 . S
H3385 C3415 0.950 . S
C3386 H3368 0.951 . S
C3386 C3387 1.366 1_554 S
C3386 C3388 1.383 1_554 S
C3387 C3386 1.366 1_556 S
C3387 C3391 1.385 . S
C3388 H3369 0.943 1_556 S
C3388 C3386 1.383 1_556 S
C3388 C3389 1.379 . S
C3389 C3388 1.379 . S
C3389 C3390 1.414 . S
C3389 C3392 1.499 . S
C3390 H3370 0.950 . S
C3390 C3389 1.414 . S
C3390 C3391 1.374 . S
C3391 H3371 0.950 . S
C3391 C3387 1.385 . S
C3391 C3390 1.374 . S
C3392 C3389 1.499 . S
C3392 C3393 1.373 . S
C3392 C3394 1.389 . S
C3393 H3372 0.950 . S
C3393 C3392 1.373 . S
C3393 C3409 1.377 . S
C3394 C3392 1.389 . S
C3394 C3395 1.524 . S
C3394 C3408 1.377 . S
C3395 C3394 1.524 . S
C3395 C3396 1.397 . S
C3395 C3400 1.363 1_556 S
C3396 H3373 0.950 . S
C3396 C3395 1.397 . S
C3396 C3397 1.334 . S
C3397 H3374 0.950 . S
C3397 C3396 1.334 . S
C3397 C3398 1.287 1_556 S
C3398 C3397 1.287 1_554 S
C3398 C3399 1.524 . S
C3398 H3417 0.913 . S
C3399 H3375 0.950 . S
C3399 C3398 1.524 . S
C3399 C3400 1.415 . S
C3400 H3376 0.950 . S
C3400 C3395 1.363 1_554 S
C3400 C3399 1.415 . S
C3401 H3377 0.951 . S
C3401 C3402 1.366 . S
C3401 C3403 1.388 . S
C3402 C3401 1.366 . S
C3402 C3406 1.385 . S
C3403 H3378 0.951 . S
C3403 C3401 1.388 . S
C3403 C3404 1.366 . S
C3404 C3403 1.366 . S
C3404 C3405 1.414 . S
C3404 C3407 1.499 . S
C3405 H3379 0.950 . S
C3405 C3404 1.414 . S
C3405 C3406 1.374 . S
C3406 H3380 0.950 . S
C3406 C3402 1.385 . S
C3406 C3405 1.374 . S
C3407 C3404 1.499 . S
C3407 C3408 1.373 . S
C3407 C3409 1.389 . S
C3408 H3381 0.950 . S
C3408 C3394 1.377 . S
C3408 C3407 1.373 . S
C3409 C3393 1.377 . S
C3409 C3407 1.389 . S
C3409 C3410 1.524 . S
C3410 C3409 1.524 . S
C3410 C3411 1.397 . S
C3410 C3415 1.363 . S
C3411 H3382 0.950 . S
C3411 C3410 1.397 . S
C3411 C3412 1.334 . S
C3412 H3383 0.950 . S
C3412 C3411 1.334 . S
C3412 C3413 1.287 . S
C3413 C3412 1.287 . S
C3413 C3414 1.524 . S
C3413 H3416 0.999 . S
C3414 H3384 0.950 . S
C3414 C3413 1.524 . S
C3414 C3415 1.415 . S
C3415 H3385 0.950 . S
C3415 C3410 1.363 . S
C3415 C3414 1.415 . S
H3416 C3413 0.999 . S
H3417 C3398 0.913 . S
H3418 C3436 0.951 . S
H3419 C3438 0.951 . S
H3420 C3440 0.950 1_554 S
H3421 C3441 0.950 . S
H3422 C3443 0.950 . S
H3423 C3446 0.950 . S
H3424 C3447 0.950 . S
H3425 C3449 0.950 . S
H3426 C3450 0.950 . S
H3427 C3451 0.951 . S
H3428 C3453 0.951 . S
H3429 C3455 0.950 . S
H3430 C3456 0.950 . S
H3431 C3458 0.950 . S
H3432 C3461 0.950 . S
H3433 C3462 0.950 . S
H3434 C3464 0.950 . S
H3435 C3465 0.950 1_554 S
C3436 H3418 0.951 . S
C3436 C3437 1.366 . S
C3436 C3438 1.388 . S
C3437 C3436 1.366 . S
C3437 C3441 1.385 1_556 S
C3438 H3419 0.951 . S
C3438 C3436 1.388 . S
C3438 C3439 1.366 . S
C3439 C3438 1.366 . S
C3439 C3440 1.414 . S
C3439 C3442 1.499 . S
C3440 H3420 0.950 1_556 S
C3440 C3439 1.414 . S
C3440 C3441 1.374 1_556 S
C3441 H3421 0.950 . S
C3441 C3437 1.385 1_554 S
C3441 C3440 1.374 1_554 S
C3442 C3439 1.499 . S
C3442 C3443 1.373 . S
C3442 C3444 1.389 . S
C3443 H3422 0.950 . S
C3443 C3442 1.373 . S
C3443 C3459 1.377 . S
C3444 C3442 1.389 . S
C3444 C3445 1.524 . S
C3444 C3458 1.377 . S
C3445 C3444 1.524 . S
C3445 C3446 1.397 . S
C3445 C3450 1.363 . S
C3446 H3423 0.950 . S
C3446 C3445 1.397 . S
C3446 C3447 1.334 . S
C3447 H3424 0.950 . S
C3447 C3446 1.334 . S
C3447 C3448 1.287 . S
C3448 C3447 1.287 . S
C3448 C3449 1.524 . S
C3448 H3467 0.913 . S
C3449 H3425 0.950 . S
C3449 C3448 1.524 . S
C3449 C3450 1.415 . S
C3450 H3426 0.950 . S
C3450 C3445 1.363 . S
C3450 C3449 1.415 . S
C3451 H3427 0.951 . S
C3451 C3452 1.366 . S
C3451 C3453 1.388 . S
C3452 C3451 1.366 . S
C3452 C3456 1.385 . S
C3453 H3428 0.951 . S
C3453 C3451 1.388 . S
C3453 C3454 1.366 . S
C3454 C3453 1.366 . S
C3454 C3455 1.414 . S
C3454 C3457 1.499 . S
C3455 H3429 0.950 . S
C3455 C3454 1.414 . S
C3455 C3456 1.374 . S
C3456 H3430 0.950 . S
C3456 C3452 1.385 . S
C3456 C3455 1.374 . S
C3457 C3454 1.499 . S
C3457 C3458 1.373 . S
C3457 C3459 1.389 . S
C3458 H3431 0.950 . S
C3458 C3444 1.377 . S
C3458 C3457 1.373 . S
C3459 C3443 1.377 . S
C3459 C3457 1.389 . S
C3459 C3460 1.524 . S
C3460 C3459 1.524 . S
C3460 C3461 1.397 . S
C3460 C3465 1.363 . S
C3461 H3432 0.950 . S
C3461 C3460 1.397 . S
C3461 C3462 1.334 . S
C3462 H3433 0.950 . S
C3462 C3461 1.334 . S
C3462 C3463 1.287 . S
C3463 C3462 1.287 . S
C3463 C3464 1.524 1_556 S
C3463 H3466 0.999 . S
C3464 H3434 0.950 . S
C3464 C3463 1.524 1_554 S
C3464 C3465 1.415 1_554 S
C3465 H3435 0.950 1_556 S
C3465 C3460 1.363 . S
C3465 C3464 1.415 1_556 S
H3466 C3463 0.999 . S
H3467 C3448 0.913 . S
H3468 C3486 0.951 . S
H3469 C3488 0.951 . S
H3470 C3490 0.950 . S
H3471 C3491 0.950 . S
H3472 C3493 0.950 . S
H3473 C3496 0.950 . S
H3474 C3497 0.950 . S
H3475 C3499 0.950 . S
H3476 C3500 1.007 . S
H3477 C3501 0.951 . S
H3478 C3503 0.951 . S
H3479 C3505 0.950 . S
H3480 C3506 0.950 . S
H3481 C3508 0.950 . S
H3482 C3511 0.950 . S
H3483 C3512 0.950 . S
H3484 C3514 0.950 . S
H3485 C3515 0.950 . S
C3486 H3468 0.951 . S
C3486 C3487 1.366 . S
C3486 C3488 1.388 . S
C3487 C3486 1.366 . S
C3487 C3491 1.385 . S
C3488 H3469 0.951 . S
C3488 C3486 1.388 . S
C3488 C3489 1.366 . S
C3489 C3488 1.366 . S
C3489 C3490 1.414 . S
C3489 C3492 1.499 . S
C3490 H3470 0.950 . S
C3490 C3489 1.414 . S
C3490 C3491 1.374 . S
C3491 H3471 0.950 . S
C3491 C3487 1.385 . S
C3491 C3490 1.374 . S
C3492 C3489 1.499 . S
C3492 C3493 1.373 . S
C3492 C3494 1.389 . S
C3493 H3472 0.950 . S
C3493 C3492 1.373 . S
C3493 C3509 1.377 . S
C3494 C3492 1.389 . S
C3494 C3495 1.524 . S
C3494 C3508 1.377 . S
C3495 C3494 1.524 . S
C3495 C3496 1.397 1_556 S
C3495 C3500 1.369 . S
C3496 H3473 0.950 . S
C3496 C3495 1.397 1_554 S
C3496 C3497 1.334 . S
C3497 H3474 0.950 . S
C3497 C3496 1.334 . S
C3497 C3498 1.287 . S
C3498 C3497 1.287 . S
C3498 C3499 1.524 . S
C3498 H3517 0.913 . S
C3499 H3475 0.950 . S
C3499 C3498 1.524 . S
C3499 C3500 1.355 1_554 S
C3500 H3476 1.007 . S
C3500 C3495 1.369 . S
C3500 C3499 1.355 1_556 S
C3501 H3477 0.951 . S
C3501 C3502 1.366 . S
C3501 C3503 1.388 . S
C3502 C3501 1.366 . S
C3502 C3506 1.385 . S
C3503 H3478 0.951 . S
C3503 C3501 1.388 . S
C3503 C3504 1.366 . S
C3504 C3503 1.366 . S
C3504 C3505 1.414 . S
C3504 C3507 1.499 . S
C3505 H3479 0.950 . S
C3505 C3504 1.414 . S
C3505 C3506 1.374 . S
C3506 H3480 0.950 . S
C3506 C3502 1.385 . S
C3506 C3505 1.374 . S
C3507 C3504 1.499 . S
C3507 C3508 1.373 . S
C3507 C3509 1.389 . S
C3508 H3481 0.950 . S
C3508 C3494 1.377 . S
C3508 C3507 1.373 . S
C3509 C3493 1.377 . S
C3509 C3507 1.389 . S
C3509 C3510 1.524 . S
C3510 C3509 1.524 . S
C3510 C3511 1.397 . S
C3510 C3515 1.363 . S
C3511 H3482 0.950 . S
C3511 C3510 1.397 . S
C3511 C3512 1.334 . S
C3512 H3483 0.950 . S
C3512 C3511 1.334 . S
C3512 C3513 1.287 . S
C3513 C3512 1.287 . S
C3513 C3514 1.524 . S
C3513 H3516 0.999 . S
C3514 H3484 0.950 . S
C3514 C3513 1.524 . S
C3514 C3515 1.415 . S
C3515 H3485 0.950 . S
C3515 C3510 1.363 . S
C3515 C3514 1.415 . S
H3516 C3513 0.999 . S
H3517 C3498 0.913 . S
H3518 C3536 0.951 . S
H3519 C3538 0.951 . S
H3520 C3540 0.950 1_554 S
H3521 C3541 0.950 . S
H3522 C3543 0.950 . S
H3523 C3546 0.950 . S
H3524 C3547 0.950 . S
H3525 C3549 0.950 . S
H3526 C3550 0.950 . S
H3527 C3551 0.951 . S
H3528 C3553 0.951 . S
H3529 C3555 0.950 . S
H3530 C3556 0.950 . S
H3531 C3558 0.950 . S
H3532 C3561 0.950 . S
H3533 C3562 0.950 . S
H3534 C3564 0.950 . S
H3535 C3565 0.950 . S
C3536 H3518 0.951 . S
C3536 C3537 1.366 . S
C3536 C3538 1.388 . S
C3537 C3536 1.366 . S
C3537 C3541 1.385 1_556 S
C3538 H3519 0.951 . S
C3538 C3536 1.388 . S
C3538 C3539 1.366 . S
C3539 C3538 1.366 . S
C3539 C3540 1.414 . S
C3539 C3542 1.499 . S
C3540 H3520 0.950 1_556 S
C3540 C3539 1.414 . S
C3540 C3541 1.374 1_556 S
C3541 H3521 0.950 . S
C3541 C3537 1.385 1_554 S
C3541 C3540 1.374 1_554 S
C3542 C3539 1.499 . S
C3542 C3543 1.373 . S
C3542 C3544 1.389 . S
C3543 H3522 0.950 . S
C3543 C3542 1.373 . S
C3543 C3559 1.377 . S
C3544 C3542 1.389 . S
C3544 C3545 1.524 . S
C3544 C3558 1.377 . S
C3545 C3544 1.524 . S
C3545 C3546 1.397 . S
C3545 C3550 1.363 . S
C3546 H3523 0.950 . S
C3546 C3545 1.397 . S
C3546 C3547 1.334 . S
C3547 H3524 0.950 . S
C3547 C3546 1.334 . S
C3547 C3548 1.287 . S
C3548 C3547 1.287 . S
C3548 C3549 1.524 . S
C3548 H3567 0.913 . S
C3549 H3525 0.950 . S
C3549 C3548 1.524 . S
C3549 C3550 1.415 . S
C3550 H3526 0.950 . S
C3550 C3545 1.363 . S
C3550 C3549 1.415 . S
C3551 H3527 0.951 . S
C3551 C3552 1.366 . S
C3551 C3553 1.388 . S
C3552 C3551 1.366 . S
C3552 C3556 1.385 . S
C3553 H3528 0.951 . S
C3553 C3551 1.388 . S
C3553 C3554 1.366 . S
C3554 C3553 1.366 . S
C3554 C3555 1.414 . S
C3554 C3557 1.499 . S
C3555 H3529 0.950 . S
C3555 C3554 1.414 . S
C3555 C3556 1.374 . S
C3556 H3530 0.950 . S
C3556 C3552 1.385 . S
C3556 C3555 1.374 . S
C3557 C3554 1.499 . S
C3557 C3558 1.373 . S
C3557 C3559 1.389 . S
C3558 H3531 0.950 . S
C3558 C3544 1.377 . S
C3558 C3557 1.373 . S
C3559 C3543 1.377 . S
C3559 C3557 1.389 . S
C3559 C3560 1.524 . S
C3560 C3559 1.524 . S
C3560 C3561 1.397 . S
C3560 C3565 1.363 . S
C3561 H3532 0.950 . S
C3561 C3560 1.397 . S
C3561 C3562 1.334 . S
C3562 H3533 0.950 . S
C3562 C3561 1.334 . S
C3562 C3563 1.287 . S
C3563 C3562 1.287 . S
C3563 C3564 1.524 . S
C3563 H3566 0.999 . S
C3564 H3534 0.950 . S
C3564 C3563 1.524 . S
C3564 C3565 1.415 . S
C3565 H3535 0.950 . S
C3565 C3560 1.363 . S
C3565 C3564 1.415 . S
H3566 C3563 0.999 . S
H3567 C3548 0.913 . S
H3568 C3586 0.951 . S
H3569 C3588 0.951 1_554 S
H3570 C3590 0.950 . S
H3571 C3591 0.950 . S
H3572 C3593 0.950 . S
H3573 C3596 0.950 1_556 S
H3574 C3597 0.950 . S
H3575 C3599 0.950 . S
H3576 C3600 0.950 . S
H3577 C3601 0.951 . S
H3578 C3603 0.951 . S
H3579 C3605 0.950 . S
H3580 C3606 0.950 . S
H3581 C3608 0.950 . S
H3582 C3611 0.950 . S
H3583 C3612 0.950 . S
H3584 C3614 0.950 . S
H3585 C3615 0.950 . S
C3586 H3568 0.951 . S
C3586 C3587 1.366 1_554 S
C3586 C3588 1.388 1_554 S
C3587 C3586 1.366 1_556 S
C3587 C3591 1.385 . S
C3588 H3569 0.951 1_556 S
C3588 C3586 1.388 1_556 S
C3588 C3589 1.366 . S
C3589 C3588 1.366 . S
C3589 C3590 1.414 . S
C3589 C3592 1.499 . S
C3590 H3570 0.950 . S
C3590 C3589 1.414 . S
C3590 C3591 1.374 . S
C3591 H3571 0.950 . S
C3591 C3587 1.385 . S
C3591 C3590 1.374 . S
C3592 C3589 1.499 . S
C3592 C3593 1.373 . S
C3592 C3594 1.389 . S
C3593 H3572 0.950 . S
C3593 C3592 1.373 . S
C3593 C3609 1.377 . S
C3594 C3592 1.389 . S
C3594 C3595 1.524 1_556 S
C3594 C3608 1.377 . S
C3595 C3594 1.524 1_554 S
C3595 C3596 1.397 . S
C3595 C3600 1.363 . S
C3596 H3573 0.950 1_554 S
C3596 C3595 1.397 . S
C3596 C3597 1.334 . S
C3597 H3574 0.950 . S
C3597 C3596 1.334 . S
C3597 C3598 1.287 . S
C3598 C3597 1.287 . S
C3598 C3599 1.524 . S
C3598 H3617 0.913 . S
C3599 H3575 0.950 . S
C3599 C3598 1.524 . S
C3599 C3600 1.415 . S
C3600 H3576 0.950 . S
C3600 C3595 1.363 . S
C3600 C3599 1.415 . S
C3601 H3577 0.951 . S
C3601 C3602 1.366 . S
C3601 C3603 1.388 . S
C3602 C3601 1.366 . S
C3602 C3606 1.385 . S
C3603 H3578 0.951 . S
C3603 C3601 1.388 . S
C3603 C3604 1.366 . S
C3604 C3603 1.366 . S
C3604 C3605 1.414 . S
C3604 C3607 1.499 . S
C3605 H3579 0.950 . S
C3605 C3604 1.414 . S
C3605 C3606 1.374 . S
C3606 H3580 0.950 . S
C3606 C3602 1.385 . S
C3606 C3605 1.374 . S
C3607 C3604 1.499 . S
C3607 C3608 1.373 . S
C3607 C3609 1.389 . S
C3608 H3581 0.950 . S
C3608 C3594 1.377 . S
C3608 C3607 1.373 . S
C3609 C3593 1.377 . S
C3609 C3607 1.389 . S
C3609 C3610 1.524 . S
C3610 C3609 1.524 . S
C3610 C3611 1.397 . S
C3610 C3615 1.363 . S
C3611 H3582 0.950 . S
C3611 C3610 1.397 . S
C3611 C3612 1.334 . S
C3612 H3583 0.950 . S
C3612 C3611 1.334 . S
C3612 C3613 1.287 . S
C3613 C3612 1.287 . S
C3613 C3614 1.524 . S
C3613 H3616 0.999 . S
C3614 H3584 0.950 . S
C3614 C3613 1.524 . S
C3614 C3615 1.415 . S
C3615 H3585 0.950 . S
C3615 C3610 1.363 . S
C3615 C3614 1.415 . S
H3616 C3613 0.999 . S
H3617 C3598 0.913 . S
H3618 C3636 0.951 . S
H3619 C3638 0.951 . S
H3620 C3640 0.950 . S
H3621 C3641 0.950 . S
H3622 C3643 0.950 . S
H3623 C3646 0.950 . S
H3624 C3647 0.930 1_556 S
H3625 C3649 0.950 . S
H3626 C3650 0.950 . S
H3627 C3651 0.951 . S
H3628 C3653 0.951 . S
H3629 C3655 0.950 . S
H3630 C3656 0.950 . S
H3631 C3658 0.950 . S
H3632 C3661 0.950 . S
H3633 C3662 0.950 . S
H3634 C3664 0.950 . S
H3635 C3665 0.950 . S
C3636 H3618 0.951 . S
C3636 C3637 1.366 . S
C3636 C3638 1.388 . S
C3637 C3636 1.366 . S
C3637 C3641 1.385 . S
C3638 H3619 0.951 . S
C3638 C3636 1.388 . S
C3638 C3639 1.366 . S
C3639 C3638 1.366 . S
C3639 C3640 1.414 . S
C3639 C3642 1.499 . S
C3640 H3620 0.950 . S
C3640 C3639 1.414 . S
C3640 C3641 1.374 . S
C3641 H3621 0.950 . S
C3641 C3637 1.385 . S
C3641 C3640 1.374 . S
C3642 C3639 1.499 . S
C3642 C3643 1.373 . S
C3642 C3644 1.389 . S
C3643 H3622 0.950 . S
C3643 C3642 1.373 . S
C3643 C3659 1.377 . S
C3644 C3642 1.389 . S
C3644 C3645 1.524 . S
C3644 C3658 1.377 . S
C3645 C3644 1.524 . S
C3645 C3646 1.397 . S
C3645 C3650 1.363 . S
C3646 H3623 0.950 . S
C3646 C3645 1.397 . S
C3646 C3647 1.395 . S
C3647 H3624 0.930 1_554 S
C3647 C3646 1.395 . S
C3647 C3648 1.250 1_554 S
C3648 C3647 1.250 1_556 S
C3648 C3649 1.524 . S
C3648 H3667 0.913 . S
C3649 H3625 0.950 . S
C3649 C3648 1.524 . S
C3649 C3650 1.415 1_556 S
C3650 H3626 0.950 . S
C3650 C3645 1.363 . S
C3650 C3649 1.415 1_554 S
C3651 H3627 0.951 . S
C3651 C3652 1.366 . S
C3651 C3653 1.388 . S
C3652 C3651 1.366 . S
C3652 C3656 1.385 . S
C3653 H3628 0.951 . S
C3653 C3651 1.388 . S
C3653 C3654 1.366 . S
C3654 C3653 1.366 . S
C3654 C3655 1.414 . S
C3654 C3657 1.499 . S
C3655 H3629 0.950 . S
C3655 C3654 1.414 . S
C3655 C3656 1.374 . S
C3656 H3630 0.950 . S
C3656 C3652 1.385 . S
C3656 C3655 1.374 . S
C3657 C3654 1.499 . S
C3657 C3658 1.373 . S
C3657 C3659 1.389 . S
C3658 H3631 0.950 . S
C3658 C3644 1.377 . S
C3658 C3657 1.373 . S
C3659 C3643 1.377 . S
C3659 C3657 1.389 . S
C3659 C3660 1.524 . S
C3660 C3659 1.524 . S
C3660 C3661 1.397 . S
C3660 C3665 1.363 . S
C3661 H3632 0.950 . S
C3661 C3660 1.397 . S
C3661 C3662 1.334 . S
C3662 H3633 0.950 . S
C3662 C3661 1.334 . S
C3662 C3663 1.287 . S
C3663 C3662 1.287 . S
C3663 C3664 1.524 . S
C3663 H3666 0.999 . S
C3664 H3634 0.950 . S
C3664 C3663 1.524 . S
C3664 C3665 1.415 . S
C3665 H3635 0.950 . S
C3665 C3660 1.363 . S
C3665 C3664 1.415 . S
H3666 C3663 0.999 . S
H3667 C3648 0.913 . S
H3668 C3686 0.951 . S
H3669 C3688 0.951 . S
H3670 C3690 0.950 . S
H3671 C3691 0.950 . S
H3672 C3693 0.950 . S
H3673 C3696 0.950 . S
H3674 C3697 0.950 . S
H3675 C3699 0.950 . S
H3676 C3700 0.950 . S
H3677 C3701 0.951 . S
H3678 C3703 0.951 . S
H3679 C3705 0.950 . S
H3680 C3706 0.950 . S
H3681 C3708 0.950 . S
H3682 C3711 0.950 . S
H3683 C3712 0.950 . S
H3684 C3714 0.950 . S
H3685 C3715 0.950 . S
C3686 H3668 0.951 . S
C3686 C3687 1.366 . S
C3686 C3688 1.388 . S
C3687 C3686 1.366 . S
C3687 C3691 1.385 . S
C3688 H3669 0.951 . S
C3688 C3686 1.388 . S
C3688 C3689 1.366 . S
C3689 C3688 1.366 . S
C3689 C3690 1.414 . S
C3689 C3692 1.499 . S
C3690 H3670 0.950 . S
C3690 C3689 1.414 . S
C3690 C3691 1.374 . S
C3691 H3671 0.950 . S
C3691 C3687 1.385 . S
C3691 C3690 1.374 . S
C3692 C3689 1.499 . S
C3692 C3693 1.373 . S
C3692 C3694 1.389 . S
C3693 H3672 0.950 . S
C3693 C3692 1.373 . S
C3693 C3709 1.377 . S
C3694 C3692 1.389 . S
C3694 C3695 1.524 . S
C3694 C3708 1.377 . S
C3695 C3694 1.524 . S
C3695 C3696 1.397 . S
C3695 C3700 1.363 . S
C3696 H3673 0.950 . S
C3696 C3695 1.397 . S
C3696 C3697 1.334 . S
C3697 H3674 0.950 . S
C3697 C3696 1.334 . S
C3697 C3698 1.287 . S
C3698 C3697 1.287 . S
C3698 C3699 1.524 . S
C3698 H3717 0.913 . S
C3699 H3675 0.950 . S
C3699 C3698 1.524 . S
C3699 C3700 1.415 . S
C3700 H3676 0.950 . S
C3700 C3695 1.363 . S
C3700 C3699 1.415 . S
C3701 H3677 0.951 . S
C3701 C3702 1.366 . S
C3701 C3703 1.388 . S
C3702 C3701 1.366 . S
C3702 C3706 1.385 . S
C3703 H3678 0.951 . S
C3703 C3701 1.388 . S
C3703 C3704 1.366 . S
C3704 C3703 1.366 . S
C3704 C3705 1.414 . S
C3704 C3707 1.499 . S
C3705 H3679 0.950 . S
C3705 C3704 1.414 . S
C3705 C3706 1.374 . S
C3706 H3680 0.950 . S
C3706 C3702 1.385 . S
C3706 C3705 1.374 . S
C3707 C3704 1.499 . S
C3707 C3708 1.373 . S
C3707 C3709 1.389 . S
C3708 H3681 0.950 . S
C3708 C3694 1.377 . S
C3708 C3707 1.373 . S
C3709 C3693 1.377 . S
C3709 C3707 1.389 . S
C3709 C3710 1.524 . S
C3710 C3709 1.524 . S
C3710 C3711 1.397 . S
C3710 C3715 1.363 . S
C3711 H3682 0.950 . S
C3711 C3710 1.397 . S
C3711 C3712 1.334 . S
C3712 H3683 0.950 . S
C3712 C3711 1.334 . S
C3712 C3713 1.287 . S
C3713 C3712 1.287 . S
C3713 C3714 1.524 . S
C3713 H3716 0.999 . S
C3714 H3684 0.950 . S
C3714 C3713 1.524 . S
C3714 C3715 1.415 . S
C3715 H3685 0.950 . S
C3715 C3710 1.363 . S
C3715 C3714 1.415 . S
H3716 C3713 0.999 . S
H3717 C3698 0.913 . S
H3718 C3736 0.951 . S
H3719 C3738 0.951 . S
H3720 C3740 0.950 . S
H3721 C3741 0.950 . S
H3722 C3743 0.950 . S
H3723 C3746 0.950 . S
H3724 C3747 0.950 . S
H3725 C3749 0.901 1_556 S
H3726 C3750 0.950 . S
H3727 C3751 0.951 . S
H3728 C3753 0.951 . S
H3729 C3755 0.950 . S
H3730 C3756 0.950 . S
H3731 C3758 0.950 . S
H3732 C3761 0.950 . S
H3733 C3762 0.950 . S
H3734 C3764 0.950 . S
H3735 C3765 0.950 . S
C3736 H3718 0.951 . S
C3736 C3737 1.366 . S
C3736 C3738 1.388 . S
C3737 C3736 1.366 . S
C3737 C3741 1.385 . S
C3738 H3719 0.951 . S
C3738 C3736 1.388 . S
C3738 C3739 1.366 . S
C3739 C3738 1.366 . S
C3739 C3740 1.414 . S
C3739 C3742 1.499 . S
C3740 H3720 0.950 . S
C3740 C3739 1.414 . S
C3740 C3741 1.374 . S
C3741 H3721 0.950 . S
C3741 C3737 1.385 . S
C3741 C3740 1.374 . S
C3742 C3739 1.499 . S
C3742 C3743 1.373 . S
C3742 C3744 1.389 . S
C3743 H3722 0.950 . S
C3743 C3742 1.373 . S
C3743 C3759 1.377 . S
C3744 C3742 1.389 . S
C3744 C3745 1.524 . S
C3744 C3758 1.377 . S
C3745 C3744 1.524 . S
C3745 C3746 1.397 . S
C3745 C3750 1.363 . S
C3746 H3723 0.950 . S
C3746 C3745 1.397 . S
C3746 C3747 1.334 . S
C3747 H3724 0.950 . S
C3747 C3746 1.334 . S
C3747 C3748 1.287 . S
C3748 C3747 1.287 . S
C3748 C3749 1.524 . S
C3748 H3767 0.913 . S
C3749 H3725 0.901 1_554 S
C3749 C3748 1.524 . S
C3749 C3750 1.415 . S
C3750 H3726 0.950 . S
C3750 C3745 1.363 . S
C3750 C3749 1.415 . S
C3751 H3727 0.951 . S
C3751 C3752 1.366 . S
C3751 C3753 1.388 . S
C3752 C3751 1.366 . S
C3752 C3756 1.385 . S
C3753 H3728 0.951 . S
C3753 C3751 1.388 . S
C3753 C3754 1.366 . S
C3754 C3753 1.366 . S
C3754 C3755 1.414 . S
C3754 C3757 1.499 . S
C3755 H3729 0.950 . S
C3755 C3754 1.414 . S
C3755 C3756 1.374 . S
C3756 H3730 0.950 . S
C3756 C3752 1.385 . S
C3756 C3755 1.374 . S
C3757 C3754 1.499 . S
C3757 C3758 1.373 . S
C3757 C3759 1.389 . S
C3758 H3731 0.950 . S
C3758 C3744 1.377 . S
C3758 C3757 1.373 . S
C3759 C3743 1.377 . S
C3759 C3757 1.389 . S
C3759 C3760 1.524 . S
C3760 C3759 1.524 . S
C3760 C3761 1.397 . S
C3760 C3765 1.363 . S
C3761 H3732 0.950 . S
C3761 C3760 1.397 . S
C3761 C3762 1.334 . S
C3762 H3733 0.950 . S
C3762 C3761 1.334 . S
C3762 C3763 1.287 . S
C3763 C3762 1.287 . S
C3763 C3764 1.524 . S
C3763 H3766 0.999 . S
C3764 H3734 0.950 . S
C3764 C3763 1.524 . S
C3764 C3765 1.415 . S
C3765 H3735 0.950 . S
C3765 C3760 1.363 . S
C3765 C3764 1.415 . S
H3766 C3763 0.999 . S
H3767 C3748 0.913 . S
H3768 C3786 0.951 . S
H3769 C3788 0.951 . S
H3770 C3790 0.950 . S
H3771 C3791 0.950 . S
H3772 C3793 0.950 . S
H3773 C3796 0.950 . S
H3774 C3797 0.950 . S
H3775 C3799 0.950 . S
H3776 C3800 0.950 . S
H3777 C3801 0.951 . S
H3778 C3803 0.951 . S
H3779 C3805 0.950 . S
H3780 C3806 0.950 . S
H3781 C3808 0.950 . S
H3782 C3811 0.950 . S
H3783 C3812 0.950 . S
H3784 C3814 0.950 . S
H3785 C3815 0.950 . S
C3786 H3768 0.951 . S
C3786 C3787 1.366 . S
C3786 C3788 1.388 . S
C3787 C3786 1.366 . S
C3787 C3791 1.385 . S
C3788 H3769 0.951 . S
C3788 C3786 1.388 . S
C3788 C3789 1.366 . S
C3789 C3788 1.366 . S
C3789 C3790 1.414 . S
C3789 C3792 1.499 . S
C3790 H3770 0.950 . S
C3790 C3789 1.414 . S
C3790 C3791 1.374 . S
C3791 H3771 0.950 . S
C3791 C3787 1.385 . S
C3791 C3790 1.374 . S
C3792 C3789 1.499 . S
C3792 C3793 1.373 . S
C3792 C3794 1.389 . S
C3793 H3772 0.950 . S
C3793 C3792 1.373 . S
C3793 C3809 1.377 . S
C3794 C3792 1.389 . S
C3794 C3795 1.524 . S
C3794 C3808 1.377 . S
C3795 C3794 1.524 . S
C3795 C3796 1.397 . S
C3795 C3800 1.363 . S
C3796 H3773 0.950 . S
C3796 C3795 1.397 . S
C3796 C3797 1.334 . S
C3797 H3774 0.950 . S
C3797 C3796 1.334 . S
C3797 C3798 1.287 . S
C3798 C3797 1.287 . S
C3798 C3799 1.524 . S
C3798 H3817 0.913 . S
C3799 H3775 0.950 . S
C3799 C3798 1.524 . S
C3799 C3800 1.415 . S
C3800 H3776 0.950 . S
C3800 C3795 1.363 . S
C3800 C3799 1.415 . S
C3801 H3777 0.951 . S
C3801 C3802 1.366 . S
C3801 C3803 1.388 . S
C3802 C3801 1.366 . S
C3802 C3806 1.385 . S
C3803 H3778 0.951 . S
C3803 C3801 1.388 . S
C3803 C3804 1.366 . S
C3804 C3803 1.366 . S
C3804 C3805 1.414 . S
C3804 C3807 1.499 . S
C3805 H3779 0.950 . S
C3805 C3804 1.414 . S
C3805 C3806 1.374 . S
C3806 H3780 0.950 . S
C3806 C3802 1.385 . S
C3806 C3805 1.374 . S
C3807 C3804 1.499 . S
C3807 C3808 1.373 . S
C3807 C3809 1.389 . S
C3808 H3781 0.950 . S
C3808 C3794 1.377 . S
C3808 C3807 1.373 . S
C3809 C3793 1.377 . S
C3809 C3807 1.389 . S
C3809 C3810 1.524 . S
C3810 C3809 1.524 . S
C3810 C3811 1.397 . S
C3810 C3815 1.363 . S
C3811 H3782 0.950 . S
C3811 C3810 1.397 . S
C3811 C3812 1.334 . S
C3812 H3783 0.950 . S
C3812 C3811 1.334 . S
C3812 C3813 1.287 . S
C3813 C3812 1.287 . S
C3813 C3814 1.524 . S
C3813 H3816 0.999 . S
C3814 H3784 0.950 . S
C3814 C3813 1.524 . S
C3814 C3815 1.415 . S
C3815 H3785 0.950 . S
C3815 C3810 1.363 . S
C3815 C3814 1.415 . S
H3816 C3813 0.999 . S
H3817 C3798 0.913 . S
H3818 C3836 0.951 . S
H3819 C3838 0.951 . S
H3820 C3840 0.950 . S
H3821 C3841 0.950 . S
H3822 C3843 0.950 . S
H3823 C3846 0.950 . S
H3824 C3847 0.950 . S
H3825 C3849 0.950 . S
H3826 C3850 0.950 . S
H3827 C3851 0.951 . S
H3828 C3853 0.951 . S
H3829 C3855 0.950 . S
H3830 C3856 0.950 . S
H3831 C3858 0.950 . S
H3832 C3861 0.950 . S
H3833 C3862 0.950 . S
H3834 C3864 0.950 . S
H3835 C3865 0.950 . S
C3836 H3818 0.951 . S
C3836 C3837 1.366 . S
C3836 C3838 1.388 . S
C3837 C3836 1.366 . S
C3837 C3841 1.385 . S
C3838 H3819 0.951 . S
C3838 C3836 1.388 . S
C3838 C3839 1.366 . S
C3839 C3838 1.366 . S
C3839 C3840 1.414 . S
C3839 C3842 1.499 . S
C3840 H3820 0.950 . S
C3840 C3839 1.414 . S
C3840 C3841 1.374 . S
C3841 H3821 0.950 . S
C3841 C3837 1.385 . S
C3841 C3840 1.374 . S
C3842 C3839 1.499 . S
C3842 C3843 1.373 . S
C3842 C3844 1.389 . S
C3843 H3822 0.950 . S
C3843 C3842 1.373 . S
C3843 C3859 1.377 . S
C3844 C3842 1.389 . S
C3844 C3845 1.524 . S
C3844 C3858 1.377 . S
C3845 C3844 1.524 . S
C3845 C3846 1.397 . S
C3845 C3850 1.363 . S
C3846 H3823 0.950 . S
C3846 C3845 1.397 . S
C3846 C3847 1.334 . S
C3847 H3824 0.950 . S
C3847 C3846 1.334 . S
C3847 C3848 1.287 . S
C3848 C3847 1.287 . S
C3848 C3849 1.524 . S
C3848 H3867 0.913 . S
C3849 H3825 0.950 . S
C3849 C3848 1.524 . S
C3849 C3850 1.415 . S
C3850 H3826 0.950 . S
C3850 C3845 1.363 . S
C3850 C3849 1.415 . S
C3851 H3827 0.951 . S
C3851 C3852 1.366 . S
C3851 C3853 1.388 . S
C3852 C3851 1.366 . S
C3852 C3856 1.385 . S
C3853 H3828 0.951 . S
C3853 C3851 1.388 . S
C3853 C3854 1.366 . S
C3854 C3853 1.366 . S
C3854 C3855 1.414 . S
C3854 C3857 1.499 . S
C3855 H3829 0.950 . S
C3855 C3854 1.414 . S
C3855 C3856 1.374 . S
C3856 H3830 0.950 . S
C3856 C3852 1.385 . S
C3856 C3855 1.374 . S
C3857 C3854 1.499 . S
C3857 C3858 1.373 . S
C3857 C3859 1.389 . S
C3858 H3831 0.950 . S
C3858 C3844 1.377 . S
C3858 C3857 1.373 . S
C3859 C3843 1.377 . S
C3859 C3857 1.389 . S
C3859 C3860 1.524 . S
C3860 C3859 1.524 . S
C3860 C3861 1.397 . S
C3860 C3865 1.363 . S
C3861 H3832 0.950 . S
C3861 C3860 1.397 . S
C3861 C3862 1.334 . S
C3862 H3833 0.950 . S
C3862 C3861 1.334 . S
C3862 C3863 1.287 . S
C3863 C3862 1.287 . S
C3863 C3864 1.524 . S
C3863 H3866 0.999 . S
C3864 H3834 0.950 . S
C3864 C3863 1.524 . S
C3864 C3865 1.415 . S
C3865 H3835 0.950 . S
C3865 C3860 1.363 . S
C3865 C3864 1.415 . S
H3866 C3863 0.999 . S
H3867 C3848 0.913 . S
H3868 C3886 0.951 . S
H3869 C3888 0.951 . S
H3870 C3890 0.950 . S
H3871 C3891 0.950 . S
H3872 C3893 0.950 . S
H3873 C3896 0.950 . S
H3874 C3897 0.950 . S
H3875 C3899 0.950 . S
H3876 C3900 0.950 . S
H3877 C3901 0.951 . S
H3878 C3903 0.951 . S
H3879 C3905 0.950 . S
H3880 C3906 0.950 . S
H3881 C3908 0.950 . S
H3882 C3911 0.950 . S
H3883 C3912 0.950 . S
H3884 C3914 0.950 . S
H3885 C3915 0.950 . S
C3886 H3868 0.951 . S
C3886 C3887 1.366 . S
C3886 C3888 1.388 . S
C3887 C3886 1.366 . S
C3887 C3891 1.385 . S
C3888 H3869 0.951 . S
C3888 C3886 1.388 . S
C3888 C3889 1.366 . S
C3889 C3888 1.366 . S
C3889 C3890 1.414 . S
C3889 C3892 1.499 . S
C3890 H3870 0.950 . S
C3890 C3889 1.414 . S
C3890 C3891 1.374 . S
C3891 H3871 0.950 . S
C3891 C3887 1.385 . S
C3891 C3890 1.374 . S
C3892 C3889 1.499 . S
C3892 C3893 1.373 . S
C3892 C3894 1.389 . S
C3893 H3872 0.950 . S
C3893 C3892 1.373 . S
C3893 C3909 1.377 . S
C3894 C3892 1.389 . S
C3894 C3895 1.524 . S
C3894 C3908 1.377 . S
C3895 C3894 1.524 . S
C3895 C3896 1.397 . S
C3895 C3900 1.363 . S
C3896 H3873 0.950 . S
C3896 C3895 1.397 . S
C3896 C3897 1.334 . S
C3897 H3874 0.950 . S
C3897 C3896 1.334 . S
C3897 C3898 1.287 . S
C3898 C3897 1.287 . S
C3898 C3899 1.524 . S
C3898 H3917 0.913 . S
C3899 H3875 0.950 . S
C3899 C3898 1.524 . S
C3899 C3900 1.415 . S
C3900 H3876 0.950 . S
C3900 C3895 1.363 . S
C3900 C3899 1.415 . S
C3901 H3877 0.951 . S
C3901 C3902 1.366 . S
C3901 C3903 1.388 . S
C3902 C3901 1.366 . S
C3902 C3906 1.385 . S
C3903 H3878 0.951 . S
C3903 C3901 1.388 . S
C3903 C3904 1.366 . S
C3904 C3903 1.366 . S
C3904 C3905 1.414 . S
C3904 C3907 1.499 . S
C3905 H3879 0.950 . S
C3905 C3904 1.414 . S
C3905 C3906 1.374 . S
C3906 H3880 0.950 . S
C3906 C3902 1.385 . S
C3906 C3905 1.374 . S
C3907 C3904 1.499 . S
C3907 C3908 1.373 . S
C3907 C3909 1.389 . S
C3908 H3881 0.950 . S
C3908 C3894 1.377 . S
C3908 C3907 1.373 . S
C3909 C3893 1.377 . S
C3909 C3907 1.389 . S
C3909 C3910 1.524 . S
C3910 C3909 1.524 . S
C3910 C3911 1.397 . S
C3910 C3915 1.363 . S
C3911 H3882 0.950 . S
C3911 C3910 1.397 . S
C3911 C3912 1.334 . S
C3912 H3883 0.950 . S
C3912 C3911 1.334 . S
C3912 C3913 1.287 . S
C3913 C3912 1.287 . S
C3913 C3914 1.524 . S
C3913 H3916 0.999 . S
C3914 H3884 0.950 . S
C3914 C3913 1.524 . S
C3914 C3915 1.415 . S
C3915 H3885 0.950 . S
C3915 C3910 1.363 . S
C3915 C3914 1.415 . S
H3916 C3913 0.999 . S
H3917 C3898 0.913 . S
H3918 C3936 0.951 . S
H3919 C3938 0.951 . S
H3920 C3940 0.950 . S
H3921 C3941 0.950 . S
H3922 C3943 0.950 . S
H3923 C3946 0.950 1_455 S
H3924 C3947 0.950 . S
H3925 C3949 0.950 . S
H3926 C3950 0.950 . S
H3927 C3951 0.951 . S
H3928 C3953 0.951 . S
H3929 C3955 0.947 . S
H3930 C3956 0.950 . S
H3931 C3958 0.950 1_655 S
H3932 C3961 0.950 . S
H3933 C3962 0.950 . S
H3934 C3964 0.950 . S
H3935 C3965 0.950 . S
C3936 H3918 0.951 . S
C3936 C3937 1.366 . S
C3936 C3938 1.388 . S
C3937 C3936 1.366 . S
C3937 C3941 1.385 . S
C3938 H3919 0.951 . S
C3938 C3936 1.388 . S
C3938 C3939 1.366 . S
C3939 C3938 1.366 . S
C3939 C3940 1.414 . S
C3939 C3942 1.499 . S
C3940 H3920 0.950 . S
C3940 C3939 1.414 . S
C3940 C3941 1.374 . S
C3941 H3921 0.950 . S
C3941 C3937 1.385 . S
C3941 C3940 1.374 . S
C3942 C3939 1.499 . S
C3942 C3943 1.373 . S
C3942 C3944 1.389 . S
C3943 H3922 0.950 . S
C3943 C3942 1.373 . S
C3943 C3959 1.377 . S
C3944 C3942 1.389 . S
C3944 C3945 1.524 1_455 S
C3944 C3958 1.377 . S
C3945 C3944 1.524 1_655 S
C3945 C3946 1.397 . S
C3945 C3950 1.363 . S
C3946 H3923 0.950 1_655 S
C3946 C3945 1.397 . S
C3946 C3947 1.334 . S
C3947 H3924 0.950 . S
C3947 C3946 1.334 . S
C3947 C3948 1.287 . S
C3948 C3947 1.287 . S
C3948 C3949 1.524 . S
C3948 H3967 0.913 . S
C3949 H3925 0.950 . S
C3949 C3948 1.524 . S
C3949 C3950 1.415 . S
C3950 H3926 0.950 . S
C3950 C3945 1.363 . S
C3950 C3949 1.415 . S
C3951 H3927 0.951 . S
C3951 C3952 1.366 . S
C3951 C3953 1.388 . S
C3952 C3951 1.366 . S
C3952 C3956 1.385 1_455 S
C3953 H3928 0.951 . S
C3953 C3951 1.388 . S
C3953 C3954 1.366 . S
C3954 C3953 1.366 . S
C3954 C3955 1.424 1_455 S
C3954 C3957 1.499 . S
C3955 H3929 0.947 . S
C3955 C3954 1.424 1_655 S
C3955 C3956 1.368 . S
C3956 H3930 0.950 . S
C3956 C3952 1.385 1_655 S
C3956 C3955 1.368 . S
C3957 C3954 1.499 . S
C3957 C3958 1.373 . S
C3957 C3959 1.389 . S
C3958 H3931 0.950 1_455 S
C3958 C3944 1.377 . S
C3958 C3957 1.373 . S
C3959 C3943 1.377 . S
C3959 C3957 1.389 . S
C3959 C3960 1.524 . S
C3960 C3959 1.524 . S
C3960 C3961 1.397 . S
C3960 C3965 1.363 . S
C3961 H3932 0.950 . S
C3961 C3960 1.397 . S
C3961 C3962 1.334 . S
C3962 H3933 0.950 . S
C3962 C3961 1.334 . S
C3962 C3963 1.287 . S
C3963 C3962 1.287 . S
C3963 C3964 1.524 . S
C3963 H3966 0.999 . S
C3964 H3934 0.950 . S
C3964 C3963 1.524 . S
C3964 C3965 1.415 . S
C3965 H3935 0.950 . S
C3965 C3960 1.363 . S
C3965 C3964 1.415 . S
H3966 C3963 0.999 . S
H3967 C3948 0.913 . S
H3968 C3986 0.951 . S
H3969 C3988 0.951 . S
H3970 C3990 0.950 . S
H3971 C3991 0.950 . S
H3972 C3993 0.950 . S
H3973 C3996 0.950 . S
H3974 C3997 0.950 . S
H3975 C3999 0.950 . S
H3976 C4000 0.950 . S
H3977 C4001 0.951 . S
H3978 C4003 0.951 . S
H3979 C4005 0.950 . S
H3980 C4006 0.950 . S
H3981 C4008 0.950 . S
H3982 C4011 0.950 . S
H3983 C4012 0.950 . S
H3984 C4014 0.950 . S
H3985 C4015 0.950 . S
C3986 H3968 0.951 . S
C3986 C3987 1.366 . S
C3986 C3988 1.388 . S
C3987 C3986 1.366 . S
C3987 C3991 1.385 . S
C3988 H3969 0.951 . S
C3988 C3986 1.388 . S
C3988 C3989 1.366 . S
C3989 C3988 1.366 . S
C3989 C3990 1.414 . S
C3989 C3992 1.499 . S
C3990 H3970 0.950 . S
C3990 C3989 1.414 . S
C3990 C3991 1.374 . S
C3991 H3971 0.950 . S
C3991 C3987 1.385 . S
C3991 C3990 1.374 . S
C3992 C3989 1.499 . S
C3992 C3993 1.373 . S
C3992 C3994 1.389 . S
C3993 H3972 0.950 . S
C3993 C3992 1.373 . S
C3993 C4009 1.377 . S
C3994 C3992 1.389 . S
C3994 C3995 1.524 . S
C3994 C4008 1.377 . S
C3995 C3994 1.524 . S
C3995 C3996 1.397 . S
C3995 C4000 1.363 . S
C3996 H3973 0.950 . S
C3996 C3995 1.397 . S
C3996 C3997 1.334 . S
C3997 H3974 0.950 . S
C3997 C3996 1.334 . S
C3997 C3998 1.287 . S
C3998 C3997 1.287 . S
C3998 C3999 1.524 . S
C3998 H4017 0.913 . S
C3999 H3975 0.950 . S
C3999 C3998 1.524 . S
C3999 C4000 1.415 . S
C4000 H3976 0.950 . S
C4000 C3995 1.363 . S
C4000 C3999 1.415 . S
C4001 H3977 0.951 . S
C4001 C4002 1.366 . S
C4001 C4003 1.388 . S
C4002 C4001 1.366 . S
C4002 C4006 1.385 . S
C4003 H3978 0.951 . S
C4003 C4001 1.388 . S
C4003 C4004 1.366 . S
C4004 C4003 1.366 . S
C4004 C4005 1.414 . S
C4004 C4007 1.499 . S
C4005 H3979 0.950 . S
C4005 C4004 1.414 . S
C4005 C4006 1.374 . S
C4006 H3980 0.950 . S
C4006 C4002 1.385 . S
C4006 C4005 1.374 . S
C4007 C4004 1.499 . S
C4007 C4008 1.373 . S
C4007 C4009 1.389 . S
C4008 H3981 0.950 . S
C4008 C3994 1.377 . S
C4008 C4007 1.373 . S
C4009 C3993 1.377 . S
C4009 C4007 1.389 . S
C4009 C4010 1.524 . S
C4010 C4009 1.524 . S
C4010 C4011 1.397 . S
C4010 C4015 1.363 . S
C4011 H3982 0.950 . S
C4011 C4010 1.397 . S
C4011 C4012 1.334 . S
C4012 H3983 0.950 . S
C4012 C4011 1.334 . S
C4012 C4013 1.287 . S
C4013 C4012 1.287 . S
C4013 C4014 1.524 . S
C4013 H4016 0.999 . S
C4014 H3984 0.950 . S
C4014 C4013 1.524 . S
C4014 C4015 1.415 . S
C4015 H3985 0.950 . S
C4015 C4010 1.363 . S
C4015 C4014 1.415 . S
H4016 C4013 0.999 . S
H4017 C3998 0.913 . S
H4018 C4036 0.951 . S
H4019 C4038 0.951 . S
H4020 C4040 0.950 . S
H4021 C4041 0.950 . S
H4022 C4043 0.950 . S
H4023 C4046 0.950 . S
H4024 C4047 0.950 . S
H4025 C4049 0.950 . S
H4026 C4050 0.950 . S
H4027 C4051 0.951 . S
H4028 C4053 0.951 . S
H4029 C4055 0.950 . S
H4030 C4056 0.950 . S
H4031 C4058 0.950 1_545 S
H4032 C4061 0.950 . S
H4033 C4062 0.950 . S
H4034 C4064 0.950 . S
H4035 C4065 0.950 . S
C4036 H4018 0.951 . S
C4036 C4037 1.366 . S
C4036 C4038 1.388 . S
C4037 C4036 1.366 . S
C4037 C4041 1.385 . S
C4038 H4019 0.951 . S
C4038 C4036 1.388 . S
C4038 C4039 1.366 . S
C4039 C4038 1.366 . S
C4039 C4040 1.414 . S
C4039 C4042 1.499 . S
C4040 H4020 0.950 . S
C4040 C4039 1.414 . S
C4040 C4041 1.374 . S
C4041 H4021 0.950 . S
C4041 C4037 1.385 . S
C4041 C4040 1.374 . S
C4042 C4039 1.499 . S
C4042 C4043 1.373 . S
C4042 C4044 1.389 . S
C4043 H4022 0.950 . S
C4043 C4042 1.373 . S
C4043 C4059 1.377 . S
C4044 C4042 1.389 . S
C4044 C4045 1.524 1_565 S
C4044 C4058 1.377 . S
C4045 C4044 1.524 1_545 S
C4045 C4046 1.397 . S
C4045 C4050 1.363 . S
C4046 H4023 0.950 . S
C4046 C4045 1.397 . S
C4046 C4047 1.334 . S
C4047 H4024 0.950 . S
C4047 C4046 1.334 . S
C4047 C4048 1.287 . S
C4048 C4047 1.287 . S
C4048 C4049 1.524 . S
C4048 H4067 0.913 . S
C4049 H4025 0.950 . S
C4049 C4048 1.524 . S
C4049 C4050 1.415 . S
C4050 H4026 0.950 . S
C4050 C4045 1.363 . S
C4050 C4049 1.415 . S
C4051 H4027 0.951 . S
C4051 C4052 1.366 . S
C4051 C4053 1.388 . S
C4052 C4051 1.366 . S
C4052 C4056 1.385 . S
C4053 H4028 0.951 . S
C4053 C4051 1.388 . S
C4053 C4054 1.366 . S
C4054 C4053 1.366 . S
C4054 C4055 1.414 . S
C4054 C4057 1.499 . S
C4055 H4029 0.950 . S
C4055 C4054 1.414 . S
C4055 C4056 1.374 . S
C4056 H4030 0.950 . S
C4056 C4052 1.385 . S
C4056 C4055 1.374 . S
C4057 C4054 1.499 . S
C4057 C4058 1.373 . S
C4057 C4059 1.389 . S
C4058 H4031 0.950 1_565 S
C4058 C4044 1.377 . S
C4058 C4057 1.373 . S
C4059 C4043 1.377 . S
C4059 C4057 1.389 . S
C4059 C4060 1.524 . S
C4060 C4059 1.524 . S
C4060 C4061 1.397 . S
C4060 C4065 1.363 . S
C4061 H4032 0.950 . S
C4061 C4060 1.397 . S
C4061 C4062 1.334 . S
C4062 H4033 0.950 . S
C4062 C4061 1.334 . S
C4062 C4063 1.287 . S
C4063 C4062 1.287 . S
C4063 C4064 1.524 . S
C4063 H4066 0.999 . S
C4064 H4034 0.950 . S
C4064 C4063 1.524 . S
C4064 C4065 1.415 . S
C4065 H4035 0.950 . S
C4065 C4060 1.363 . S
C4065 C4064 1.415 . S
H4066 C4063 0.999 . S
H4067 C4048 0.913 . S
H4068 C4086 0.951 . S
H4069 C4088 0.951 . S
H4070 C4090 0.950 . S
H4071 C4091 0.950 . S
H4072 C4093 0.950 1_545 S
H4073 C4096 0.950 . S
H4074 C4097 0.950 . S
H4075 C4099 0.950 . S
H4076 C4100 0.950 . S
H4077 C4101 0.951 . S
H4078 C4103 0.951 . S
H4079 C4105 0.950 . S
H4080 C4106 0.950 . S
H4081 C4108 0.950 . S
H4082 C4111 0.950 . S
H4083 C4112 0.950 . S
H4084 C4114 0.950 . S
H4085 C4115 0.950 . S
C4086 H4068 0.951 . S
C4086 C4087 1.366 . S
C4086 C4088 1.388 . S
C4087 C4086 1.366 . S
C4087 C4091 1.385 . S
C4088 H4069 0.951 . S
C4088 C4086 1.388 . S
C4088 C4089 1.366 . S
C4089 C4088 1.366 . S
C4089 C4090 1.414 . S
C4089 C4092 1.499 . S
C4090 H4070 0.950 . S
C4090 C4089 1.414 . S
C4090 C4091 1.374 . S
C4091 H4071 0.950 . S
C4091 C4087 1.385 . S
C4091 C4090 1.374 . S
C4092 C4089 1.499 . S
C4092 C4093 1.373 . S
C4092 C4094 1.389 . S
C4093 H4072 0.950 1_565 S
C4093 C4092 1.373 . S
C4093 C4109 1.377 . S
C4094 C4092 1.389 . S
C4094 C4095 1.524 . S
C4094 C4108 1.377 . S
C4095 C4094 1.524 . S
C4095 C4096 1.397 . S
C4095 C4100 1.363 . S
C4096 H4073 0.950 . S
C4096 C4095 1.397 . S
C4096 C4097 1.334 . S
C4097 H4074 0.950 . S
C4097 C4096 1.334 . S
C4097 C4098 1.287 . S
C4098 C4097 1.287 . S
C4098 C4099 1.524 . S
C4098 H4117 0.913 . S
C4099 H4075 0.950 . S
C4099 C4098 1.524 . S
C4099 C4100 1.415 . S
C4100 H4076 0.950 . S
C4100 C4095 1.363 . S
C4100 C4099 1.415 . S
C4101 H4077 0.951 . S
C4101 C4102 1.366 . S
C4101 C4103 1.388 . S
C4102 C4101 1.366 . S
C4102 C4106 1.385 . S
C4103 H4078 0.951 . S
C4103 C4101 1.388 . S
C4103 C4104 1.366 . S
C4104 C4103 1.366 . S
C4104 C4105 1.414 . S
C4104 C4107 1.499 . S
C4105 H4079 0.950 . S
C4105 C4104 1.414 . S
C4105 C4106 1.374 . S
C4106 H4080 0.950 . S
C4106 C4102 1.385 . S
C4106 C4105 1.374 . S
C4107 C4104 1.499 . S
C4107 C4108 1.373 . S
C4107 C4109 1.389 . S
C4108 H4081 0.950 . S
C4108 C4094 1.377 . S
C4108 C4107 1.373 . S
C4109 C4093 1.377 . S
C4109 C4107 1.389 . S
C4109 C4110 1.524 1_565 S
C4110 C4109 1.524 1_545 S
C4110 C4111 1.397 . S
C4110 C4115 1.363 . S
C4111 H4082 0.950 . S
C4111 C4110 1.397 . S
C4111 C4112 1.334 . S
C4112 H4083 0.950 . S
C4112 C4111 1.334 . S
C4112 C4113 1.287 . S
C4113 C4112 1.287 . S
C4113 C4114 1.524 . S
C4113 H4116 0.999 . S
C4114 H4084 0.950 . S
C4114 C4113 1.524 . S
C4114 C4115 1.415 . S
C4115 H4085 0.950 . S
C4115 C4110 1.363 . S
C4115 C4114 1.415 . S
H4116 C4113 0.999 . S
H4117 C4098 0.913 . S
H4118 C4136 0.951 . S
H4119 C4138 0.951 . S
H4120 C4140 0.950 1_655 S
H4121 C4141 1.040 . S
H4122 C4143 0.950 1_655 S
H4123 C4146 0.950 . S
H4124 C4147 0.950 . S
H4125 C4149 0.950 . S
H4126 C4150 0.950 . S
H4127 C4151 0.951 . S
H4128 C4153 0.951 . S
H4129 C4155 0.950 . S
H4130 C4156 0.950 . S
H4131 C4158 0.950 . S
H4132 C4161 0.950 1_455 S
H4133 C4162 0.950 . S
H4134 C4164 0.950 . S
H4135 C4165 0.950 . S
C4136 H4118 0.951 . S
C4136 C4137 1.366 . S
C4136 C4138 1.388 . S
C4137 C4136 1.366 . S
C4137 C4141 1.385 . S
C4138 H4119 0.951 . S
C4138 C4136 1.388 . S
C4138 C4139 1.366 . S
C4139 C4138 1.366 . S
C4139 C4140 1.414 . S
C4139 C4142 1.499 . S
C4140 H4120 0.950 1_455 S
C4140 C4139 1.414 . S
C4140 C4141 1.374 . S
C4141 H4121 1.040 . S
C4141 C4137 1.385 . S
C4141 C4140 1.374 . S
C4142 C4139 1.499 . S
C4142 C4143 1.373 . S
C4142 C4144 1.389 . S
C4143 H4122 0.950 1_455 S
C4143 C4142 1.373 . S
C4143 C4159 1.377 . S
C4144 C4142 1.389 . S
C4144 C4145 1.524 . S
C4144 C4158 1.377 . S
C4145 C4144 1.524 . S
C4145 C4146 1.397 . S
C4145 C4150 1.363 . S
C4146 H4123 0.950 . S
C4146 C4145 1.397 . S
C4146 C4147 1.334 . S
C4147 H4124 0.950 . S
C4147 C4146 1.334 . S
C4147 C4148 1.287 . S
C4148 C4147 1.287 . S
C4148 C4149 1.524 . S
C4148 H4167 0.913 . S
C4149 H4125 0.950 . S
C4149 C4148 1.524 . S
C4149 C4150 1.415 . S
C4150 H4126 0.950 . S
C4150 C4145 1.363 . S
C4150 C4149 1.415 . S
C4151 H4127 0.951 . S
C4151 C4152 1.366 1_655 S
C4151 C4153 1.388 . S
C4152 C4151 1.366 1_455 S
C4152 C4156 1.385 . S
C4153 H4128 0.951 . S
C4153 C4151 1.388 . S
C4153 C4154 1.366 1_655 S
C4154 C4153 1.366 1_455 S
C4154 C4155 1.414 . S
C4154 C4157 1.499 . S
C4155 H4129 0.950 . S
C4155 C4154 1.414 . S
C4155 C4156 1.374 . S
C4156 H4130 0.950 . S
C4156 C4152 1.385 . S
C4156 C4155 1.374 . S
C4157 C4154 1.499 . S
C4157 C4158 1.373 . S
C4157 C4159 1.389 . S
C4158 H4131 0.950 . S
C4158 C4144 1.377 . S
C4158 C4157 1.373 . S
C4159 C4143 1.377 . S
C4159 C4157 1.389 . S
C4159 C4160 1.524 1_455 S
C4160 C4159 1.524 1_655 S
C4160 C4161 1.397 . S
C4160 C4165 1.363 . S
C4161 H4132 0.950 1_655 S
C4161 C4160 1.397 . S
C4161 C4162 1.334 . S
C4162 H4133 0.950 . S
C4162 C4161 1.334 . S
C4162 C4163 1.287 . S
C4163 C4162 1.287 . S
C4163 C4164 1.524 . S
C4163 H4166 0.999 . S
C4164 H4134 0.950 . S
C4164 C4163 1.524 . S
C4164 C4165 1.415 . S
C4165 H4135 0.950 . S
C4165 C4160 1.363 . S
C4165 C4164 1.415 . S
H4166 C4163 0.999 . S
H4167 C4148 0.913 . S
H4168 C4186 0.951 . S
H4169 C4188 0.951 . S
H4170 C4190 0.950 . S
H4171 C4191 0.950 . S
H4172 C4193 0.950 . S
H4173 C4196 0.950 . S
H4174 C4197 0.950 . S
H4175 C4199 0.950 . S
H4176 C4200 0.950 . S
H4177 C4201 0.951 . S
H4178 C4203 0.951 . S
H4179 C4205 0.950 . S
H4180 C4206 0.950 . S
H4181 C4208 0.950 . S
H4182 C4211 0.950 . S
H4183 C4212 0.950 . S
H4184 C4214 0.950 . S
H4185 C4215 0.950 . S
C4186 H4168 0.951 . S
C4186 C4187 1.366 . S
C4186 C4188 1.388 . S
C4187 C4186 1.366 . S
C4187 C4191 1.385 . S
C4188 H4169 0.951 . S
C4188 C4186 1.388 . S
C4188 C4189 1.366 . S
C4189 C4188 1.366 . S
C4189 C4190 1.414 . S
C4189 C4192 1.499 . S
C4190 H4170 0.950 . S
C4190 C4189 1.414 . S
C4190 C4191 1.374 . S
C4191 H4171 0.950 . S
C4191 C4187 1.385 . S
C4191 C4190 1.374 . S
C4192 C4189 1.499 . S
C4192 C4193 1.373 . S
C4192 C4194 1.389 . S
C4193 H4172 0.950 . S
C4193 C4192 1.373 . S
C4193 C4209 1.377 . S
C4194 C4192 1.389 . S
C4194 C4195 1.524 . S
C4194 C4208 1.377 . S
C4195 C4194 1.524 . S
C4195 C4196 1.397 . S
C4195 C4200 1.363 . S
C4196 H4173 0.950 . S
C4196 C4195 1.397 . S
C4196 C4197 1.334 . S
C4197 H4174 0.950 . S
C4197 C4196 1.334 . S
C4197 C4198 1.287 . S
C4198 C4197 1.287 . S
C4198 C4199 1.524 . S
C4198 H4217 0.913 . S
C4199 H4175 0.950 . S
C4199 C4198 1.524 . S
C4199 C4200 1.415 . S
C4200 H4176 0.950 . S
C4200 C4195 1.363 . S
C4200 C4199 1.415 . S
C4201 H4177 0.951 . S
C4201 C4202 1.366 . S
C4201 C4203 1.388 . S
C4202 C4201 1.366 . S
C4202 C4206 1.385 . S
C4203 H4178 0.951 . S
C4203 C4201 1.388 . S
C4203 C4204 1.366 . S
C4204 C4203 1.366 . S
C4204 C4205 1.414 . S
C4204 C4207 1.499 . S
C4205 H4179 0.950 . S
C4205 C4204 1.414 . S
C4205 C4206 1.374 . S
C4206 H4180 0.950 . S
C4206 C4202 1.385 . S
C4206 C4205 1.374 . S
C4207 C4204 1.499 . S
C4207 C4208 1.373 . S
C4207 C4209 1.389 . S
C4208 H4181 0.950 . S
C4208 C4194 1.377 . S
C4208 C4207 1.373 . S
C4209 C4193 1.377 . S
C4209 C4207 1.389 . S
C4209 C4210 1.524 . S
C4210 C4209 1.524 . S
C4210 C4211 1.397 . S
C4210 C4215 1.363 . S
C4211 H4182 0.950 . S
C4211 C4210 1.397 . S
C4211 C4212 1.334 . S
C4212 H4183 0.950 . S
C4212 C4211 1.334 . S
C4212 C4213 1.287 . S
C4213 C4212 1.287 . S
C4213 C4214 1.524 . S
C4213 H4216 0.999 . S
C4214 H4184 0.950 . S
C4214 C4213 1.524 . S
C4214 C4215 1.415 . S
C4215 H4185 0.950 . S
C4215 C4210 1.363 . S
C4215 C4214 1.415 . S
H4216 C4213 0.999 . S
H4217 C4198 0.913 . S
H4218 C4236 0.951 . S
H4219 C4238 0.951 . S
H4220 C4240 0.950 . S
H4221 C4241 0.950 . S
H4222 C4243 0.950 . S
H4223 C4246 0.950 . S
H4224 C4247 0.950 . S
H4225 C4249 0.950 . S
H4226 C4250 0.950 . S
H4227 C4251 0.951 . S
H4228 C4253 0.951 . S
H4229 C4255 0.950 . S
H4230 C4256 0.950 . S
H4231 C4258 0.950 . S
H4232 C4261 0.950 . S
H4233 C4262 0.950 . S
H4234 C4264 0.950 . S
H4235 C4265 0.950 . S
C4236 H4218 0.951 . S
C4236 C4237 1.366 . S
C4236 C4238 1.388 . S
C4237 C4236 1.366 . S
C4237 C4241 1.385 . S
C4238 H4219 0.951 . S
C4238 C4236 1.388 . S
C4238 C4239 1.366 . S
C4239 C4238 1.366 . S
C4239 C4240 1.414 . S
C4239 C4242 1.499 . S
C4240 H4220 0.950 . S
C4240 C4239 1.414 . S
C4240 C4241 1.374 . S
C4241 H4221 0.950 . S
C4241 C4237 1.385 . S
C4241 C4240 1.374 . S
C4242 C4239 1.499 . S
C4242 C4243 1.373 . S
C4242 C4244 1.389 . S
C4243 H4222 0.950 . S
C4243 C4242 1.373 . S
C4243 C4259 1.377 . S
C4244 C4242 1.389 . S
C4244 C4245 1.524 . S
C4244 C4258 1.377 . S
C4245 C4244 1.524 . S
C4245 C4246 1.397 . S
C4245 C4250 1.363 . S
C4246 H4223 0.950 . S
C4246 C4245 1.397 . S
C4246 C4247 1.334 . S
C4247 H4224 0.950 . S
C4247 C4246 1.334 . S
C4247 C4248 1.287 . S
C4248 C4247 1.287 . S
C4248 C4249 1.524 . S
C4248 H4267 0.913 . S
C4249 H4225 0.950 . S
C4249 C4248 1.524 . S
C4249 C4250 1.415 . S
C4250 H4226 0.950 . S
C4250 C4245 1.363 . S
C4250 C4249 1.415 . S
C4251 H4227 0.951 . S
C4251 C4252 1.366 . S
C4251 C4253 1.388 . S
C4252 C4251 1.366 . S
C4252 C4256 1.385 . S
C4253 H4228 0.951 . S
C4253 C4251 1.388 . S
C4253 C4254 1.366 . S
C4254 C4253 1.366 . S
C4254 C4255 1.414 . S
C4254 C4257 1.499 . S
C4255 H4229 0.950 . S
C4255 C4254 1.414 . S
C4255 C4256 1.374 . S
C4256 H4230 0.950 . S
C4256 C4252 1.385 . S
C4256 C4255 1.374 . S
C4257 C4254 1.499 . S
C4257 C4258 1.373 . S
C4257 C4259 1.389 . S
C4258 H4231 0.950 . S
C4258 C4244 1.377 . S
C4258 C4257 1.373 . S
C4259 C4243 1.377 . S
C4259 C4257 1.389 . S
C4259 C4260 1.524 . S
C4260 C4259 1.524 . S
C4260 C4261 1.397 . S
C4260 C4265 1.363 . S
C4261 H4232 0.950 . S
C4261 C4260 1.397 . S
C4261 C4262 1.334 . S
C4262 H4233 0.950 . S
C4262 C4261 1.334 . S
C4262 C4263 1.287 . S
C4263 C4262 1.287 . S
C4263 C4264 1.524 . S
C4263 H4266 0.999 . S
C4264 H4234 0.950 . S
C4264 C4263 1.524 . S
C4264 C4265 1.415 . S
C4265 H4235 0.950 . S
C4265 C4260 1.363 . S
C4265 C4264 1.415 . S
H4266 C4263 0.999 . S
H4267 C4248 0.913 . S
H4268 C4286 0.951 . S
H4269 C4288 0.951 . S
H4270 C4290 0.950 . S
H4271 C4291 0.950 . S
H4272 C4293 0.950 . S
H4273 C4296 0.950 . S
H4274 C4297 0.950 . S
H4275 C4299 0.950 . S
H4276 C4300 0.950 . S
H4277 C4301 0.951 . S
H4278 C4303 0.951 . S
H4279 C4305 0.950 . S
H4280 C4306 0.950 . S
H4281 C4308 0.950 . S
H4282 C4311 0.950 . S
H4283 C4312 0.950 . S
H4284 C4314 0.950 . S
H4285 C4315 0.950 . S
C4286 H4268 0.951 . S
C4286 C4287 1.366 . S
C4286 C4288 1.388 . S
C4287 C4286 1.366 . S
C4287 C4291 1.385 . S
C4288 H4269 0.951 . S
C4288 C4286 1.388 . S
C4288 C4289 1.366 . S
C4289 C4288 1.366 . S
C4289 C4290 1.414 . S
C4289 C4292 1.499 . S
C4290 H4270 0.950 . S
C4290 C4289 1.414 . S
C4290 C4291 1.374 . S
C4291 H4271 0.950 . S
C4291 C4287 1.385 . S
C4291 C4290 1.374 . S
C4292 C4289 1.499 . S
C4292 C4293 1.373 . S
C4292 C4294 1.389 . S
C4293 H4272 0.950 . S
C4293 C4292 1.373 . S
C4293 C4309 1.377 . S
C4294 C4292 1.389 . S
C4294 C4295 1.524 . S
C4294 C4308 1.377 . S
C4295 C4294 1.524 . S
C4295 C4296 1.397 . S
C4295 C4300 1.363 . S
C4296 H4273 0.950 . S
C4296 C4295 1.397 . S
C4296 C4297 1.334 . S
C4297 H4274 0.950 . S
C4297 C4296 1.334 . S
C4297 C4298 1.287 . S
C4298 C4297 1.287 . S
C4298 C4299 1.524 . S
C4298 H4317 0.913 . S
C4299 H4275 0.950 . S
C4299 C4298 1.524 . S
C4299 C4300 1.415 . S
C4300 H4276 0.950 . S
C4300 C4295 1.363 . S
C4300 C4299 1.415 . S
C4301 H4277 0.951 . S
C4301 C4302 1.366 . S
C4301 C4303 1.388 . S
C4302 C4301 1.366 . S
C4302 C4306 1.385 . S
C4303 H4278 0.951 . S
C4303 C4301 1.388 . S
C4303 C4304 1.366 . S
C4304 C4303 1.366 . S
C4304 C4305 1.414 . S
C4304 C4307 1.499 . S
C4305 H4279 0.950 . S
C4305 C4304 1.414 . S
C4305 C4306 1.374 . S
C4306 H4280 0.950 . S
C4306 C4302 1.385 . S
C4306 C4305 1.374 . S
C4307 C4304 1.499 . S
C4307 C4308 1.373 . S
C4307 C4309 1.389 . S
C4308 H4281 0.950 . S
C4308 C4294 1.377 . S
C4308 C4307 1.373 . S
C4309 C4293 1.377 . S
C4309 C4307 1.389 . S
C4309 C4310 1.524 . S
C4310 C4309 1.524 . S
C4310 C4311 1.397 . S
C4310 C4315 1.363 . S
C4311 H4282 0.950 . S
C4311 C4310 1.397 . S
C4311 C4312 1.334 . S
C4312 H4283 0.950 . S
C4312 C4311 1.334 . S
C4312 C4313 1.287 . S
C4313 C4312 1.287 . S
C4313 C4314 1.524 . S
C4313 H4316 0.999 . S
C4314 H4284 0.950 . S
C4314 C4313 1.524 . S
C4314 C4315 1.415 . S
C4315 H4285 0.950 . S
C4315 C4310 1.363 . S
C4315 C4314 1.415 . S
H4316 C4313 0.999 . S
H4317 C4298 0.913 . S
H4318 C4336 0.951 . S
H4319 C4338 0.951 . S
H4320 C4340 0.950 . S
H4321 C4341 0.950 . S
H4322 C4343 0.950 . S
H4323 C4346 0.950 . S
H4324 C4347 0.950 . S
H4325 C4349 0.950 . S
H4326 C4350 0.950 . S
H4327 C4351 0.951 . S
H4328 C4353 0.951 . S
H4329 C4355 0.950 . S
H4330 C4356 0.950 . S
H4331 C4358 0.950 . S
H4332 C4361 0.950 . S
H4333 C4362 0.950 . S
H4334 C4364 0.950 . S
H4335 C4365 0.950 . S
C4336 H4318 0.951 . S
C4336 C4337 1.366 . S
C4336 C4338 1.388 . S
C4337 C4336 1.366 . S
C4337 C4341 1.385 . S
C4338 H4319 0.951 . S
C4338 C4336 1.388 . S
C4338 C4339 1.366 . S
C4339 C4338 1.366 . S
C4339 C4340 1.414 . S
C4339 C4342 1.499 . S
C4340 H4320 0.950 . S
C4340 C4339 1.414 . S
C4340 C4341 1.374 . S
C4341 H4321 0.950 . S
C4341 C4337 1.385 . S
C4341 C4340 1.374 . S
C4342 C4339 1.499 . S
C4342 C4343 1.373 . S
C4342 C4344 1.389 . S
C4343 H4322 0.950 . S
C4343 C4342 1.373 . S
C4343 C4359 1.377 . S
C4344 C4342 1.389 . S
C4344 C4345 1.524 . S
C4344 C4358 1.377 . S
C4345 C4344 1.524 . S
C4345 C4346 1.397 . S
C4345 C4350 1.363 . S
C4346 H4323 0.950 . S
C4346 C4345 1.397 . S
C4346 C4347 1.334 . S
C4347 H4324 0.950 . S
C4347 C4346 1.334 . S
C4347 C4348 1.287 . S
C4348 C4347 1.287 . S
C4348 C4349 1.524 . S
C4348 H4367 0.913 . S
C4349 H4325 0.950 . S
C4349 C4348 1.524 . S
C4349 C4350 1.415 . S
C4350 H4326 0.950 . S
C4350 C4345 1.363 . S
C4350 C4349 1.415 . S
C4351 H4327 0.951 . S
C4351 C4352 1.366 . S
C4351 C4353 1.388 . S
C4352 C4351 1.366 . S
C4352 C4356 1.385 . S
C4353 H4328 0.951 . S
C4353 C4351 1.388 . S
C4353 C4354 1.366 . S
C4354 C4353 1.366 . S
C4354 C4355 1.414 . S
C4354 C4357 1.499 . S
C4355 H4329 0.950 . S
C4355 C4354 1.414 . S
C4355 C4356 1.374 . S
C4356 H4330 0.950 . S
C4356 C4352 1.385 . S
C4356 C4355 1.374 . S
C4357 C4354 1.499 . S
C4357 C4358 1.373 . S
C4357 C4359 1.389 . S
C4358 H4331 0.950 . S
C4358 C4344 1.377 . S
C4358 C4357 1.373 . S
C4359 C4343 1.377 . S
C4359 C4357 1.389 . S
C4359 C4360 1.524 . S
C4360 C4359 1.524 . S
C4360 C4361 1.397 . S
C4360 C4365 1.363 . S
C4361 H4332 0.950 . S
C4361 C4360 1.397 . S
C4361 C4362 1.334 . S
C4362 H4333 0.950 . S
C4362 C4361 1.334 . S
C4362 C4363 1.287 . S
C4363 C4362 1.287 . S
C4363 C4364 1.524 . S
C4363 H4366 0.999 . S
C4364 H4334 0.950 . S
C4364 C4363 1.524 . S
C4364 C4365 1.415 . S
C4365 H4335 0.950 . S
C4365 C4360 1.363 . S
C4365 C4364 1.415 . S
H4366 C4363 0.999 . S
H4367 C4348 0.913 . S
H4368 C4386 0.951 . S
H4369 C4388 0.951 . S
H4370 C4390 0.949 1_565 S
H4371 C4391 0.950 . S
H4372 C4393 0.950 . S
H4373 C4396 0.996 . S
H4374 C4397 0.950 . S
H4375 C4399 0.950 . S
H4376 C4400 0.950 . S
H4377 C4401 0.951 . S
H4378 C4403 0.951 . S
H4379 C4405 0.950 . S
H4380 C4406 0.950 . S
H4381 C4408 0.950 . S
H4382 C4411 0.950 . S
H4383 C4412 0.950 . S
H4384 C4414 0.950 . S
H4385 C4415 0.967 . S
C4386 H4368 0.951 . S
C4386 C4387 1.366 . S
C4386 C4388 1.388 . S
C4387 C4386 1.366 . S
C4387 C4391 1.385 . S
C4388 H4369 0.951 . S
C4388 C4386 1.388 . S
C4388 C4389 1.366 . S
C4389 C4388 1.366 . S
C4389 C4390 1.414 . S
C4389 C4392 1.499 . S
C4390 H4370 0.949 1_545 S
C4390 C4389 1.414 . S
C4390 C4391 1.374 . S
C4391 H4371 0.950 . S
C4391 C4387 1.385 . S
C4391 C4390 1.374 . S
C4392 C4389 1.499 . S
C4392 C4393 1.373 . S
C4392 C4394 1.389 . S
C4393 H4372 0.950 . S
C4393 C4392 1.373 . S
C4393 C4409 1.377 . S
C4394 C4392 1.389 . S
C4394 C4395 1.524 . S
C4394 C4408 1.377 . S
C4395 C4394 1.524 . S
C4395 C4396 1.397 . S
C4395 C4400 1.363 . S
C4396 H4373 0.996 . S
C4396 C4395 1.397 . S
C4396 C4397 1.334 . S
C4397 H4374 0.950 . S
C4397 C4396 1.334 . S
C4397 C4398 1.287 . S
C4398 C4397 1.287 . S
C4398 C4399 1.524 . S
C4398 H4417 0.913 . S
C4399 H4375 0.950 . S
C4399 C4398 1.524 . S
C4399 C4400 1.415 . S
C4400 H4376 0.950 . S
C4400 C4395 1.363 . S
C4400 C4399 1.415 . S
C4401 H4377 0.951 . S
C4401 C4402 1.366 1_565 S
C4401 C4403 1.388 . S
C4402 C4401 1.366 1_545 S
C4402 C4406 1.385 . S
C4403 H4378 0.951 . S
C4403 C4401 1.388 . S
C4403 C4404 1.366 1_565 S
C4404 C4403 1.366 1_545 S
C4404 C4405 1.414 . S
C4404 C4407 1.499 . S
C4405 H4379 0.950 . S
C4405 C4404 1.414 . S
C4405 C4406 1.374 . S
C4406 H4380 0.950 . S
C4406 C4402 1.385 . S
C4406 C4405 1.374 . S
C4407 C4404 1.499 . S
C4407 C4408 1.373 . S
C4407 C4409 1.389 . S
C4408 H4381 0.950 . S
C4408 C4394 1.377 . S
C4408 C4407 1.373 . S
C4409 C4393 1.377 . S
C4409 C4407 1.389 . S
C4409 C4410 1.524 . S
C4410 C4409 1.524 . S
C4410 C4411 1.397 . S
C4410 C4415 1.344 1_545 S
C4411 H4382 0.950 . S
C4411 C4410 1.397 . S
C4411 C4412 1.334 . S
C4412 H4383 0.950 . S
C4412 C4411 1.334 . S
C4412 C4413 1.287 . S
C4413 C4412 1.287 . S
C4413 C4414 1.524 1_545 S
C4413 H4416 0.999 . S
C4414 H4384 0.950 . S
C4414 C4413 1.524 1_565 S
C4414 C4415 1.420 . S
C4415 H4385 0.967 . S
C4415 C4410 1.344 1_565 S
C4415 C4414 1.420 . S
H4416 C4413 0.999 . S
H4417 C4398 0.913 . S
H4418 C4436 0.951 1_455 S
H4419 C4438 0.951 1_455 S
H4420 C4440 0.950 . S
H4421 C4441 0.950 . S
H4422 C4443 0.950 . S
H4423 C4446 0.950 . S
H4424 C4447 0.950 . S
H4425 C4449 0.950 . S
H4426 C4450 0.950 . S
H4427 C4451 0.951 . S
H4428 C4453 0.951 . S
H4429 C4455 0.950 . S
H4430 C4456 0.950 . S
H4431 C4458 0.940 1_455 S
H4432 C4461 0.950 . S
H4433 C4462 0.950 . S
H4434 C4464 0.950 . S
H4435 C4465 0.950 . S
C4436 H4418 0.951 1_655 S
C4436 C4437 1.366 . S
C4436 C4438 1.388 . S
C4437 C4436 1.366 . S
C4437 C4441 1.385 . S
C4438 H4419 0.951 1_655 S
C4438 C4436 1.388 . S
C4438 C4439 1.366 . S
C4439 C4438 1.366 . S
C4439 C4440 1.414 . S
C4439 C4442 1.499 . S
C4440 H4420 0.950 . S
C4440 C4439 1.414 . S
C4440 C4441 1.374 . S
C4441 H4421 0.950 . S
C4441 C4437 1.385 . S
C4441 C4440 1.374 . S
C4442 C4439 1.499 . S
C4442 C4443 1.373 . S
C4442 C4444 1.389 . S
C4443 H4422 0.950 . S
C4443 C4442 1.373 . S
C4443 C4459 1.377 . S
C4444 C4442 1.389 . S
C4444 C4445 1.524 . S
C4444 C4458 1.377 . S
C4445 C4444 1.524 . S
C4445 C4446 1.397 . S
C4445 C4450 1.363 1_655 S
C4446 H4423 0.950 . S
C4446 C4445 1.397 . S
C4446 C4447 1.334 . S
C4447 H4424 0.950 . S
C4447 C4446 1.334 . S
C4447 C4448 1.287 1_655 S
C4448 C4447 1.287 1_455 S
C4448 C4449 1.524 . S
C4448 H4467 0.913 . S
C4449 H4425 0.950 . S
C4449 C4448 1.524 . S
C4449 C4450 1.415 . S
C4450 H4426 0.950 . S
C4450 C4445 1.363 1_455 S
C4450 C4449 1.415 . S
C4451 H4427 0.951 . S
C4451 C4452 1.366 . S
C4451 C4453 1.388 . S
C4452 C4451 1.366 . S
C4452 C4456 1.385 1_655 S
C4453 H4428 0.951 . S
C4453 C4451 1.388 . S
C4453 C4454 1.366 . S
C4454 C4453 1.366 . S
C4454 C4455 1.414 1_655 S
C4454 C4457 1.499 . S
C4455 H4429 0.950 . S
C4455 C4454 1.414 1_455 S
C4455 C4456 1.374 . S
C4456 H4430 0.950 . S
C4456 C4452 1.385 1_455 S
C4456 C4455 1.374 . S
C4457 C4454 1.499 . S
C4457 C4458 1.373 . S
C4457 C4459 1.389 . S
C4458 H4431 0.940 1_655 S
C4458 C4444 1.377 . S
C4458 C4457 1.373 . S
C4459 C4443 1.377 . S
C4459 C4457 1.389 . S
C4459 C4460 1.524 . S
C4460 C4459 1.524 . S
C4460 C4461 1.397 . S
C4460 C4465 1.363 . S
C4461 H4432 0.950 . S
C4461 C4460 1.397 . S
C4461 C4462 1.334 . S
C4462 H4433 0.950 . S
C4462 C4461 1.334 . S
C4462 C4463 1.287 . S
C4463 C4462 1.287 . S
C4463 C4464 1.524 . S
C4463 H4466 0.999 . S
C4464 H4434 0.950 . S
C4464 C4463 1.524 . S
C4464 C4465 1.415 . S
C4465 H4435 0.950 . S
C4465 C4460 1.363 . S
C4465 C4464 1.415 . S
H4466 C4463 0.999 . S
H4467 C4448 0.913 . S
H4468 C4486 0.951 . S
H4469 C4488 0.951 . S
H4470 C4490 0.950 . S
H4471 C4491 0.950 . S
H4472 C4493 0.950 . S
H4473 C4496 0.950 . S
H4474 C4497 0.950 . S
H4475 C4499 0.950 . S
H4476 C4500 0.950 . S
H4477 C4501 0.951 . S
H4478 C4503 0.951 . S
H4479 C4505 0.950 . S
H4480 C4506 0.950 . S
H4481 C4508 0.950 . S
H4482 C4511 0.950 . S
H4483 C4512 0.950 . S
H4484 C4514 0.950 . S
H4485 C4515 0.950 . S
C4486 H4468 0.951 . S
C4486 C4487 1.366 . S
C4486 C4488 1.388 . S
C4487 C4486 1.366 . S
C4487 C4491 1.385 . S
C4488 H4469 0.951 . S
C4488 C4486 1.388 . S
C4488 C4489 1.366 . S
C4489 C4488 1.366 . S
C4489 C4490 1.414 . S
C4489 C4492 1.499 . S
C4490 H4470 0.950 . S
C4490 C4489 1.414 . S
C4490 C4491 1.374 . S
C4491 H4471 0.950 . S
C4491 C4487 1.385 . S
C4491 C4490 1.374 . S
C4492 C4489 1.499 . S
C4492 C4493 1.373 . S
C4492 C4494 1.389 . S
C4493 H4472 0.950 . S
C4493 C4492 1.373 . S
C4493 C4509 1.377 . S
C4494 C4492 1.389 . S
C4494 C4495 1.524 . S
C4494 C4508 1.377 . S
C4495 C4494 1.524 . S
C4495 C4496 1.397 . S
C4495 C4500 1.363 . S
C4496 H4473 0.950 . S
C4496 C4495 1.397 . S
C4496 C4497 1.334 . S
C4497 H4474 0.950 . S
C4497 C4496 1.334 . S
C4497 C4498 1.287 . S
C4498 C4497 1.287 . S
C4498 C4499 1.524 . S
C4498 H4517 0.913 . S
C4499 H4475 0.950 . S
C4499 C4498 1.524 . S
C4499 C4500 1.415 . S
C4500 H4476 0.950 . S
C4500 C4495 1.363 . S
C4500 C4499 1.415 . S
C4501 H4477 0.951 . S
C4501 C4502 1.366 . S
C4501 C4503 1.388 . S
C4502 C4501 1.366 . S
C4502 C4506 1.385 . S
C4503 H4478 0.951 . S
C4503 C4501 1.388 . S
C4503 C4504 1.366 . S
C4504 C4503 1.366 . S
C4504 C4505 1.414 . S
C4504 C4507 1.499 . S
C4505 H4479 0.950 . S
C4505 C4504 1.414 . S
C4505 C4506 1.374 . S
C4506 H4480 0.950 . S
C4506 C4502 1.385 . S
C4506 C4505 1.374 . S
C4507 C4504 1.499 . S
C4507 C4508 1.373 . S
C4507 C4509 1.389 . S
C4508 H4481 0.950 . S
C4508 C4494 1.377 . S
C4508 C4507 1.373 . S
C4509 C4493 1.377 . S
C4509 C4507 1.389 . S
C4509 C4510 1.524 . S
C4510 C4509 1.524 . S
C4510 C4511 1.397 . S
C4510 C4515 1.363 . S
C4511 H4482 0.950 . S
C4511 C4510 1.397 . S
C4511 C4512 1.334 . S
C4512 H4483 0.950 . S
C4512 C4511 1.334 . S
C4512 C4513 1.287 . S
C4513 C4512 1.287 . S
C4513 C4514 1.524 . S
C4513 H4516 0.999 . S
C4514 H4484 0.950 . S
C4514 C4513 1.524 . S
C4514 C4515 1.415 . S
C4515 H4485 0.950 . S
C4515 C4510 1.363 . S
C4515 C4514 1.415 . S
H4516 C4513 0.999 . S
H4517 C4498 0.913 . S
H4518 C4536 0.951 . S
H4519 C4538 0.951 . S
H4520 C4540 0.950 . S
H4521 C4541 0.950 . S
H4522 C4543 0.950 . S
H4523 C4546 0.950 . S
H4524 C4547 0.950 . S
H4525 C4549 0.950 . S
H4526 C4550 0.950 . S
H4527 C4551 0.951 . S
H4528 C4553 0.951 . S
H4529 C4555 0.950 . S
H4530 C4556 0.950 . S
H4531 C4558 0.950 . S
H4532 C4561 0.950 . S
H4533 C4562 0.950 . S
H4534 C4564 0.950 . S
H4535 C4565 0.950 . S
C4536 H4518 0.951 . S
C4536 C4537 1.366 . S
C4536 C4538 1.388 . S
C4537 C4536 1.366 . S
C4537 C4541 1.385 . S
C4538 H4519 0.951 . S
C4538 C4536 1.388 . S
C4538 C4539 1.366 . S
C4539 C4538 1.366 . S
C4539 C4540 1.414 . S
C4539 C4542 1.499 . S
C4540 H4520 0.950 . S
C4540 C4539 1.414 . S
C4540 C4541 1.374 . S
C4541 H4521 0.950 . S
C4541 C4537 1.385 . S
C4541 C4540 1.374 . S
C4542 C4539 1.499 . S
C4542 C4543 1.373 . S
C4542 C4544 1.389 . S
C4543 H4522 0.950 . S
C4543 C4542 1.373 . S
C4543 C4559 1.377 . S
C4544 C4542 1.389 . S
C4544 C4545 1.524 . S
C4544 C4558 1.377 . S
C4545 C4544 1.524 . S
C4545 C4546 1.397 . S
C4545 C4550 1.363 . S
C4546 H4523 0.950 . S
C4546 C4545 1.397 . S
C4546 C4547 1.334 . S
C4547 H4524 0.950 . S
C4547 C4546 1.334 . S
C4547 C4548 1.287 . S
C4548 C4547 1.287 . S
C4548 C4549 1.524 . S
C4548 H4567 0.913 . S
C4549 H4525 0.950 . S
C4549 C4548 1.524 . S
C4549 C4550 1.415 . S
C4550 H4526 0.950 . S
C4550 C4545 1.363 . S
C4550 C4549 1.415 . S
C4551 H4527 0.951 . S
C4551 C4552 1.366 . S
C4551 C4553 1.388 . S
C4552 C4551 1.366 . S
C4552 C4556 1.385 . S
C4553 H4528 0.951 . S
C4553 C4551 1.388 . S
C4553 C4554 1.366 . S
C4554 C4553 1.366 . S
C4554 C4555 1.414 . S
C4554 C4557 1.499 . S
C4555 H4529 0.950 . S
C4555 C4554 1.414 . S
C4555 C4556 1.374 . S
C4556 H4530 0.950 . S
C4556 C4552 1.385 . S
C4556 C4555 1.374 . S
C4557 C4554 1.499 . S
C4557 C4558 1.373 . S
C4557 C4559 1.389 . S
C4558 H4531 0.950 . S
C4558 C4544 1.377 . S
C4558 C4557 1.373 . S
C4559 C4543 1.377 . S
C4559 C4557 1.389 . S
C4559 C4560 1.524 . S
C4560 C4559 1.524 . S
C4560 C4561 1.397 . S
C4560 C4565 1.363 . S
C4561 H4532 0.950 . S
C4561 C4560 1.397 . S
C4561 C4562 1.334 . S
C4562 H4533 0.950 . S
C4562 C4561 1.334 . S
C4562 C4563 1.287 . S
C4563 C4562 1.287 . S
C4563 C4564 1.524 . S
C4563 H4566 0.999 . S
C4564 H4534 0.950 . S
C4564 C4563 1.524 . S
C4564 C4565 1.415 . S
C4565 H4535 0.950 . S
C4565 C4560 1.363 . S
C4565 C4564 1.415 . S
H4566 C4563 0.999 . S
H4567 C4548 0.913 . S
H4568 C4586 0.951 . S
H4569 C4588 0.951 . S
H4570 C4590 0.950 . S
H4571 C4591 0.950 . S
H4572 C4593 0.950 . S
H4573 C4596 0.950 . S
H4574 C4597 0.950 . S
H4575 C4599 0.950 . S
H4576 C4600 0.950 . S
H4577 C4601 0.951 . S
H4578 C4603 0.951 . S
H4579 C4605 0.950 . S
H4580 C4606 0.950 . S
H4581 C4608 0.950 . S
H4582 C4611 0.950 . S
H4583 C4612 0.950 . S
H4584 C4614 0.950 . S
H4585 C4615 0.950 . S
C4586 H4568 0.951 . S
C4586 C4587 1.366 . S
C4586 C4588 1.388 . S
C4587 C4586 1.366 . S
C4587 C4591 1.385 . S
C4588 H4569 0.951 . S
C4588 C4586 1.388 . S
C4588 C4589 1.366 . S
C4589 C4588 1.366 . S
C4589 C4590 1.414 . S
C4589 C4592 1.499 . S
C4590 H4570 0.950 . S
C4590 C4589 1.414 . S
C4590 C4591 1.374 . S
C4591 H4571 0.950 . S
C4591 C4587 1.385 . S
C4591 C4590 1.374 . S
C4592 C4589 1.499 . S
C4592 C4593 1.373 . S
C4592 C4594 1.389 . S
C4593 H4572 0.950 . S
C4593 C4592 1.373 . S
C4593 C4609 1.377 . S
C4594 C4592 1.389 . S
C4594 C4595 1.524 . S
C4594 C4608 1.377 . S
C4595 C4594 1.524 . S
C4595 C4596 1.397 . S
C4595 C4600 1.363 . S
C4596 H4573 0.950 . S
C4596 C4595 1.397 . S
C4596 C4597 1.334 . S
C4597 H4574 0.950 . S
C4597 C4596 1.334 . S
C4597 C4598 1.287 . S
C4598 C4597 1.287 . S
C4598 C4599 1.524 . S
C4598 H4617 0.913 . S
C4599 H4575 0.950 . S
C4599 C4598 1.524 . S
C4599 C4600 1.415 . S
C4600 H4576 0.950 . S
C4600 C4595 1.363 . S
C4600 C4599 1.415 . S
C4601 H4577 0.951 . S
C4601 C4602 1.366 . S
C4601 C4603 1.388 . S
C4602 C4601 1.366 . S
C4602 C4606 1.385 . S
C4603 H4578 0.951 . S
C4603 C4601 1.388 . S
C4603 C4604 1.366 . S
C4604 C4603 1.366 . S
C4604 C4605 1.414 . S
C4604 C4607 1.499 . S
C4605 H4579 0.950 . S
C4605 C4604 1.414 . S
C4605 C4606 1.374 . S
C4606 H4580 0.950 . S
C4606 C4602 1.385 . S
C4606 C4605 1.374 . S
C4607 C4604 1.499 . S
C4607 C4608 1.373 . S
C4607 C4609 1.389 . S
C4608 H4581 0.950 . S
C4608 C4594 1.377 . S
C4608 C4607 1.373 . S
C4609 C4593 1.377 . S
C4609 C4607 1.389 . S
C4609 C4610 1.524 . S
C4610 C4609 1.524 . S
C4610 C4611 1.397 . S
C4610 C4615 1.363 . S
C4611 H4582 0.950 . S
C4611 C4610 1.397 . S
C4611 C4612 1.334 . S
C4612 H4583 0.950 . S
C4612 C4611 1.334 . S
C4612 C4613 1.287 . S
C4613 C4612 1.287 . S
C4613 C4614 1.524 . S
C4613 H4616 0.999 . S
C4614 H4584 0.950 . S
C4614 C4613 1.524 . S
C4614 C4615 1.415 . S
C4615 H4585 0.950 . S
C4615 C4610 1.363 . S
C4615 C4614 1.415 . S
H4616 C4613 0.999 . S
H4617 C4598 0.913 . S
H4618 C4636 0.951 . S
H4619 C4638 0.951 . S
H4620 C4640 0.950 . S
H4621 C4641 0.950 . S
H4622 C4643 0.950 . S
H4623 C4646 0.950 . S
H4624 C4647 0.950 . S
H4625 C4649 0.950 . S
H4626 C4650 0.950 . S
H4627 C4651 0.951 . S
H4628 C4653 0.951 . S
H4629 C4655 0.950 . S
H4630 C4656 0.950 . S
H4631 C4658 0.950 . S
H4632 C4661 0.950 . S
H4633 C4662 0.950 . S
H4634 C4664 0.950 . S
H4635 C4665 0.950 . S
C4636 H4618 0.951 . S
C4636 C4637 1.366 . S
C4636 C4638 1.388 . S
C4637 C4636 1.366 . S
C4637 C4641 1.385 . S
C4638 H4619 0.951 . S
C4638 C4636 1.388 . S
C4638 C4639 1.366 . S
C4639 C4638 1.366 . S
C4639 C4640 1.414 . S
C4639 C4642 1.499 . S
C4640 H4620 0.950 . S
C4640 C4639 1.414 . S
C4640 C4641 1.374 . S
C4641 H4621 0.950 . S
C4641 C4637 1.385 . S
C4641 C4640 1.374 . S
C4642 C4639 1.499 . S
C4642 C4643 1.373 . S
C4642 C4644 1.389 . S
C4643 H4622 0.950 . S
C4643 C4642 1.373 . S
C4643 C4659 1.377 . S
C4644 C4642 1.389 . S
C4644 C4645 1.524 . S
C4644 C4658 1.377 . S
C4645 C4644 1.524 . S
C4645 C4646 1.397 . S
C4645 C4650 1.363 . S
C4646 H4623 0.950 . S
C4646 C4645 1.397 . S
C4646 C4647 1.334 . S
C4647 H4624 0.950 . S
C4647 C4646 1.334 . S
C4647 C4648 1.287 . S
C4648 C4647 1.287 . S
C4648 C4649 1.524 . S
C4648 H4667 0.913 . S
C4649 H4625 0.950 . S
C4649 C4648 1.524 . S
C4649 C4650 1.415 . S
C4650 H4626 0.950 . S
C4650 C4645 1.363 . S
C4650 C4649 1.415 . S
C4651 H4627 0.951 . S
C4651 C4652 1.366 . S
C4651 C4653 1.388 . S
C4652 C4651 1.366 . S
C4652 C4656 1.385 . S
C4653 H4628 0.951 . S
C4653 C4651 1.388 . S
C4653 C4654 1.366 . S
C4654 C4653 1.366 . S
C4654 C4655 1.414 . S
C4654 C4657 1.499 . S
C4655 H4629 0.950 . S
C4655 C4654 1.414 . S
C4655 C4656 1.374 . S
C4656 H4630 0.950 . S
C4656 C4652 1.385 . S
C4656 C4655 1.374 . S
C4657 C4654 1.499 . S
C4657 C4658 1.373 . S
C4657 C4659 1.389 . S
C4658 H4631 0.950 . S
C4658 C4644 1.377 . S
C4658 C4657 1.373 . S
C4659 C4643 1.377 . S
C4659 C4657 1.389 . S
C4659 C4660 1.524 . S
C4660 C4659 1.524 . S
C4660 C4661 1.397 . S
C4660 C4665 1.363 . S
C4661 H4632 0.950 . S
C4661 C4660 1.397 . S
C4661 C4662 1.334 . S
C4662 H4633 0.950 . S
C4662 C4661 1.334 . S
C4662 C4663 1.287 . S
C4663 C4662 1.287 . S
C4663 C4664 1.524 . S
C4663 H4666 0.999 . S
C4664 H4634 0.950 . S
C4664 C4663 1.524 . S
C4664 C4665 1.415 . S
C4665 H4635 0.950 . S
C4665 C4660 1.363 . S
C4665 C4664 1.415 . S
H4666 C4663 0.999 . S
H4667 C4648 0.913 . S
H4668 C4686 0.951 . S
H4669 C4688 0.951 . S
H4670 C4690 0.950 . S
H4671 C4691 0.950 . S
H4672 C4693 0.950 . S
H4673 C4696 0.950 . S
H4674 C4697 0.950 . S
H4675 C4699 0.950 . S
H4676 C4700 0.950 . S
H4677 C4701 0.951 . S
H4678 C4703 0.951 . S
H4679 C4705 0.950 . S
H4680 C4706 0.950 . S
H4681 C4708 0.950 . S
H4682 C4711 0.950 . S
H4683 C4712 0.950 . S
H4684 C4714 0.950 . S
H4685 C4715 0.950 . S
C4686 H4668 0.951 . S
C4686 C4687 1.366 . S
C4686 C4688 1.388 . S
C4687 C4686 1.366 . S
C4687 C4691 1.385 . S
C4688 H4669 0.951 . S
C4688 C4686 1.388 . S
C4688 C4689 1.366 . S
C4689 C4688 1.366 . S
C4689 C4690 1.414 . S
C4689 C4692 1.499 . S
C4690 H4670 0.950 . S
C4690 C4689 1.414 . S
C4690 C4691 1.374 . S
C4691 H4671 0.950 . S
C4691 C4687 1.385 . S
C4691 C4690 1.374 . S
C4692 C4689 1.499 . S
C4692 C4693 1.373 . S
C4692 C4694 1.389 . S
C4693 H4672 0.950 . S
C4693 C4692 1.373 . S
C4693 C4709 1.377 . S
C4694 C4692 1.389 . S
C4694 C4695 1.524 . S
C4694 C4708 1.377 . S
C4695 C4694 1.524 . S
C4695 C4696 1.397 . S
C4695 C4700 1.363 . S
C4696 H4673 0.950 . S
C4696 C4695 1.397 . S
C4696 C4697 1.334 . S
C4697 H4674 0.950 . S
C4697 C4696 1.334 . S
C4697 C4698 1.287 . S
C4698 C4697 1.287 . S
C4698 C4699 1.524 . S
C4698 H4717 0.913 . S
C4699 H4675 0.950 . S
C4699 C4698 1.524 . S
C4699 C4700 1.415 . S
C4700 H4676 0.950 . S
C4700 C4695 1.363 . S
C4700 C4699 1.415 . S
C4701 H4677 0.951 . S
C4701 C4702 1.366 . S
C4701 C4703 1.388 . S
C4702 C4701 1.366 . S
C4702 C4706 1.385 . S
C4703 H4678 0.951 . S
C4703 C4701 1.388 . S
C4703 C4704 1.366 . S
C4704 C4703 1.366 . S
C4704 C4705 1.414 . S
C4704 C4707 1.499 . S
C4705 H4679 0.950 . S
C4705 C4704 1.414 . S
C4705 C4706 1.374 . S
C4706 H4680 0.950 . S
C4706 C4702 1.385 . S
C4706 C4705 1.374 . S
C4707 C4704 1.499 . S
C4707 C4708 1.373 . S
C4707 C4709 1.389 . S
C4708 H4681 0.950 . S
C4708 C4694 1.377 . S
C4708 C4707 1.373 . S
C4709 C4693 1.377 . S
C4709 C4707 1.389 . S
C4709 C4710 1.524 . S
C4710 C4709 1.524 . S
C4710 C4711 1.397 . S
C4710 C4715 1.363 . S
C4711 H4682 0.950 . S
C4711 C4710 1.397 . S
C4711 C4712 1.334 . S
C4712 H4683 0.950 . S
C4712 C4711 1.334 . S
C4712 C4713 1.287 . S
C4713 C4712 1.287 . S
C4713 C4714 1.524 . S
C4713 H4716 0.999 . S
C4714 H4684 0.950 . S
C4714 C4713 1.524 . S
C4714 C4715 1.415 . S
C4715 H4685 0.950 . S
C4715 C4710 1.363 . S
C4715 C4714 1.415 . S
H4716 C4713 0.999 . S
H4717 C4698 0.913 . S
H4718 C4736 0.951 . S
H4719 C4738 0.951 . S
H4720 C4740 0.950 . S
H4721 C4741 0.950 . S
H4722 C4743 0.950 . S
H4723 C4746 0.950 . S
H4724 C4747 0.950 . S
H4725 C4749 0.950 . S
H4726 C4750 0.950 . S
H4727 C4751 0.951 . S
H4728 C4753 0.951 . S
H4729 C4755 0.950 . S
H4730 C4756 0.950 . S
H4731 C4758 0.950 . S
H4732 C4761 0.950 . S
H4733 C4762 0.950 . S
H4734 C4764 0.950 . S
H4735 C4765 0.950 . S
C4736 H4718 0.951 . S
C4736 C4737 1.366 . S
C4736 C4738 1.388 . S
C4737 C4736 1.366 . S
C4737 C4741 1.385 . S
C4738 H4719 0.951 . S
C4738 C4736 1.388 . S
C4738 C4739 1.366 . S
C4739 C4738 1.366 . S
C4739 C4740 1.414 . S
C4739 C4742 1.499 . S
C4740 H4720 0.950 . S
C4740 C4739 1.414 . S
C4740 C4741 1.374 . S
C4741 H4721 0.950 . S
C4741 C4737 1.385 . S
C4741 C4740 1.374 . S
C4742 C4739 1.499 . S
C4742 C4743 1.373 . S
C4742 C4744 1.389 . S
C4743 H4722 0.950 . S
C4743 C4742 1.373 . S
C4743 C4759 1.377 . S
C4744 C4742 1.389 . S
C4744 C4745 1.524 . S
C4744 C4758 1.377 . S
C4745 C4744 1.524 . S
C4745 C4746 1.397 . S
C4745 C4750 1.363 . S
C4746 H4723 0.950 . S
C4746 C4745 1.397 . S
C4746 C4747 1.334 . S
C4747 H4724 0.950 . S
C4747 C4746 1.334 . S
C4747 C4748 1.287 . S
C4748 C4747 1.287 . S
C4748 C4749 1.524 . S
C4748 H4767 0.913 . S
C4749 H4725 0.950 . S
C4749 C4748 1.524 . S
C4749 C4750 1.415 . S
C4750 H4726 0.950 . S
C4750 C4745 1.363 . S
C4750 C4749 1.415 . S
C4751 H4727 0.951 . S
C4751 C4752 1.366 . S
C4751 C4753 1.388 . S
C4752 C4751 1.366 . S
C4752 C4756 1.385 . S
C4753 H4728 0.951 . S
C4753 C4751 1.388 . S
C4753 C4754 1.366 . S
C4754 C4753 1.366 . S
C4754 C4755 1.414 . S
C4754 C4757 1.499 . S
C4755 H4729 0.950 . S
C4755 C4754 1.414 . S
C4755 C4756 1.374 . S
C4756 H4730 0.950 . S
C4756 C4752 1.385 . S
C4756 C4755 1.374 . S
C4757 C4754 1.499 . S
C4757 C4758 1.373 . S
C4757 C4759 1.389 . S
C4758 H4731 0.950 . S
C4758 C4744 1.377 . S
C4758 C4757 1.373 . S
C4759 C4743 1.377 . S
C4759 C4757 1.389 . S
C4759 C4760 1.524 . S
C4760 C4759 1.524 . S
C4760 C4761 1.397 . S
C4760 C4765 1.363 . S
C4761 H4732 0.950 . S
C4761 C4760 1.397 . S
C4761 C4762 1.334 . S
C4762 H4733 0.950 . S
C4762 C4761 1.334 . S
C4762 C4763 1.287 . S
C4763 C4762 1.287 . S
C4763 C4764 1.524 . S
C4763 H4766 0.999 . S
C4764 H4734 0.950 . S
C4764 C4763 1.524 . S
C4764 C4765 1.415 . S
C4765 H4735 0.950 . S
C4765 C4760 1.363 . S
C4765 C4764 1.415 . S
H4766 C4763 0.999 . S
H4767 C4748 0.913 . S
H4768 C4786 0.951 . S
H4769 C4788 0.951 . S
H4770 C4790 0.950 . S
H4771 C4791 0.950 . S
H4772 C4793 0.950 . S
H4773 C4796 0.950 . S
H4774 C4797 0.950 . S
H4775 C4799 0.950 . S
H4776 C4800 0.950 . S
H4777 C4801 0.951 . S
H4778 C4803 0.951 . S
H4779 C4805 0.950 . S
H4780 C4806 0.950 . S
H4781 C4808 0.950 . S
H4782 C4811 0.950 . S
H4783 C4812 0.950 . S
H4784 C4814 0.950 . S
H4785 C4815 0.950 . S
C4786 H4768 0.951 . S
C4786 C4787 1.366 . S
C4786 C4788 1.388 . S
C4787 C4786 1.366 . S
C4787 C4791 1.385 . S
C4788 H4769 0.951 . S
C4788 C4786 1.388 . S
C4788 C4789 1.366 . S
C4789 C4788 1.366 . S
C4789 C4790 1.414 . S
C4789 C4792 1.499 . S
C4790 H4770 0.950 . S
C4790 C4789 1.414 . S
C4790 C4791 1.374 . S
C4791 H4771 0.950 . S
C4791 C4787 1.385 . S
C4791 C4790 1.374 . S
C4792 C4789 1.499 . S
C4792 C4793 1.373 . S
C4792 C4794 1.389 . S
C4793 H4772 0.950 . S
C4793 C4792 1.373 . S
C4793 C4809 1.377 . S
C4794 C4792 1.389 . S
C4794 C4795 1.524 . S
C4794 C4808 1.377 . S
C4795 C4794 1.524 . S
C4795 C4796 1.397 . S
C4795 C4800 1.363 . S
C4796 H4773 0.950 . S
C4796 C4795 1.397 . S
C4796 C4797 1.334 . S
C4797 H4774 0.950 . S
C4797 C4796 1.334 . S
C4797 C4798 1.287 . S
C4798 C4797 1.287 . S
C4798 C4799 1.524 . S
C4798 H4817 0.913 . S
C4799 H4775 0.950 . S
C4799 C4798 1.524 . S
C4799 C4800 1.415 . S
C4800 H4776 0.950 . S
C4800 C4795 1.363 . S
C4800 C4799 1.415 . S
C4801 H4777 0.951 . S
C4801 C4802 1.366 . S
C4801 C4803 1.388 . S
C4802 C4801 1.366 . S
C4802 C4806 1.385 . S
C4803 H4778 0.951 . S
C4803 C4801 1.388 . S
C4803 C4804 1.366 . S
C4804 C4803 1.366 . S
C4804 C4805 1.414 . S
C4804 C4807 1.499 . S
C4805 H4779 0.950 . S
C4805 C4804 1.414 . S
C4805 C4806 1.374 . S
C4806 H4780 0.950 . S
C4806 C4802 1.385 . S
C4806 C4805 1.374 . S
C4807 C4804 1.499 . S
C4807 C4808 1.373 . S
C4807 C4809 1.389 . S
C4808 H4781 0.950 . S
C4808 C4794 1.377 . S
C4808 C4807 1.373 . S
C4809 C4793 1.377 . S
C4809 C4807 1.389 . S
C4809 C4810 1.524 . S
C4810 C4809 1.524 . S
C4810 C4811 1.397 . S
C4810 C4815 1.363 . S
C4811 H4782 0.950 . S
C4811 C4810 1.397 . S
C4811 C4812 1.334 . S
C4812 H4783 0.950 . S
C4812 C4811 1.334 . S
C4812 C4813 1.287 . S
C4813 C4812 1.287 . S
C4813 C4814 1.524 . S
C4813 H4816 0.999 . S
C4814 H4784 0.950 . S
C4814 C4813 1.524 . S
C4814 C4815 1.415 . S
C4815 H4785 0.950 . S
C4815 C4810 1.363 . S
C4815 C4814 1.415 . S
H4816 C4813 0.999 . S
H4817 C4798 0.913 . S
H4818 C4836 0.951 . S
H4819 C4838 0.951 . S
H4820 C4840 0.950 . S
H4821 C4841 0.950 . S
H4822 C4843 0.950 1_455 S
H4823 C4846 0.950 . S
H4824 C4847 0.950 . S
H4825 C4849 0.950 . S
H4826 C4850 0.950 . S
H4827 C4851 0.951 . S
H4828 C4853 0.953 . S
H4829 C4855 0.950 . S
H4830 C4856 0.950 . S
H4831 C4858 0.950 . S
H4832 C4861 0.950 . S
H4833 C4862 0.950 . S
H4834 C4864 0.950 . S
H4835 C4865 0.950 . S
C4836 H4818 0.951 . S
C4836 C4837 1.366 . S
C4836 C4838 1.388 . S
C4837 C4836 1.366 . S
C4837 C4841 1.385 . S
C4838 H4819 0.951 . S
C4838 C4836 1.388 . S
C4838 C4839 1.366 . S
C4839 C4838 1.366 . S
C4839 C4840 1.414 . S
C4839 C4842 1.499 . S
C4840 H4820 0.950 . S
C4840 C4839 1.414 . S
C4840 C4841 1.374 . S
C4841 H4821 0.950 . S
C4841 C4837 1.385 . S
C4841 C4840 1.374 . S
C4842 C4839 1.499 . S
C4842 C4843 1.373 . S
C4842 C4844 1.389 . S
C4843 H4822 0.950 1_655 S
C4843 C4842 1.373 . S
C4843 C4859 1.337 1_655 S
C4844 C4842 1.389 . S
C4844 C4845 1.524 . S
C4844 C4858 1.377 . S
C4845 C4844 1.524 . S
C4845 C4846 1.397 . S
C4845 C4850 1.363 . S
C4846 H4823 0.950 . S
C4846 C4845 1.397 . S
C4846 C4847 1.334 . S
C4847 H4824 0.950 . S
C4847 C4846 1.334 . S
C4847 C4848 1.287 . S
C4848 C4847 1.287 . S
C4848 C4849 1.524 . S
C4848 H4867 0.913 . S
C4849 H4825 0.950 . S
C4849 C4848 1.524 . S
C4849 C4850 1.415 . S
C4850 H4826 0.950 . S
C4850 C4845 1.363 . S
C4850 C4849 1.415 . S
C4851 H4827 0.951 . S
C4851 C4852 1.366 1_455 S
C4851 C4853 1.401 . S
C4852 C4851 1.366 1_655 S
C4852 C4856 1.385 . S
C4853 H4828 0.953 . S
C4853 C4851 1.401 . S
C4853 C4854 1.351 1_455 S
C4854 C4853 1.351 1_655 S
C4854 C4855 1.414 . S
C4854 C4857 1.499 . S
C4855 H4829 0.950 . S
C4855 C4854 1.414 . S
C4855 C4856 1.374 . S
C4856 H4830 0.950 . S
C4856 C4852 1.385 . S
C4856 C4855 1.374 . S
C4857 C4854 1.499 . S
C4857 C4858 1.373 . S
C4857 C4859 1.365 1_655 S
C4858 H4831 0.950 . S
C4858 C4844 1.377 . S
C4858 C4857 1.373 . S
C4859 C4843 1.337 1_455 S
C4859 C4857 1.365 1_455 S
C4859 C4860 1.592 . S
C4860 C4859 1.592 . S
C4860 C4861 1.397 . S
C4860 C4865 1.363 . S
C4861 H4832 0.950 . S
C4861 C4860 1.397 . S
C4861 C4862 1.334 . S
C4862 H4833 0.950 . S
C4862 C4861 1.334 . S
C4862 C4863 1.287 . S
C4863 C4862 1.287 . S
C4863 C4864 1.524 . S
C4863 H4866 0.999 . S
C4864 H4834 0.950 . S
C4864 C4863 1.524 . S
C4864 C4865 1.415 . S
C4865 H4835 0.950 . S
C4865 C4860 1.363 . S
C4865 C4864 1.415 . S
H4866 C4863 0.999 . S
H4867 C4848 0.913 . S
H4868 C4886 0.951 . S
H4869 C4888 0.951 . S
H4870 C4890 0.950 . S
H4871 C4891 0.950 . S
H4872 C4893 0.950 . S
H4873 C4896 0.950 . S
H4874 C4897 0.950 . S
H4875 C4899 0.950 . S
H4876 C4900 0.950 . S
H4877 C4901 0.951 . S
H4878 C4903 0.951 . S
H4879 C4905 0.950 . S
H4880 C4906 0.950 . S
H4881 C4908 0.950 . S
H4882 C4911 0.950 . S
H4883 C4912 0.950 . S
H4884 C4914 0.950 . S
H4885 C4915 0.950 . S
C4886 H4868 0.951 . S
C4886 C4887 1.366 . S
C4886 C4888 1.388 . S
C4887 C4886 1.366 . S
C4887 C4891 1.385 . S
C4888 H4869 0.951 . S
C4888 C4886 1.388 . S
C4888 C4889 1.366 . S
C4889 C4888 1.366 . S
C4889 C4890 1.414 . S
C4889 C4892 1.499 . S
C4890 H4870 0.950 . S
C4890 C4889 1.414 . S
C4890 C4891 1.374 . S
C4891 H4871 0.950 . S
C4891 C4887 1.385 . S
C4891 C4890 1.374 . S
C4892 C4889 1.499 . S
C4892 C4893 1.373 . S
C4892 C4894 1.389 . S
C4893 H4872 0.950 . S
C4893 C4892 1.373 . S
C4893 C4909 1.377 . S
C4894 C4892 1.389 . S
C4894 C4895 1.524 . S
C4894 C4908 1.377 . S
C4895 C4894 1.524 . S
C4895 C4896 1.397 . S
C4895 C4900 1.363 . S
C4896 H4873 0.950 . S
C4896 C4895 1.397 . S
C4896 C4897 1.334 . S
C4897 H4874 0.950 . S
C4897 C4896 1.334 . S
C4897 C4898 1.287 . S
C4898 C4897 1.287 . S
C4898 C4899 1.524 . S
C4898 H4917 0.913 . S
C4899 H4875 0.950 . S
C4899 C4898 1.524 . S
C4899 C4900 1.415 . S
C4900 H4876 0.950 . S
C4900 C4895 1.363 . S
C4900 C4899 1.415 . S
C4901 H4877 0.951 . S
C4901 C4902 1.366 . S
C4901 C4903 1.388 . S
C4902 C4901 1.366 . S
C4902 C4906 1.385 . S
C4903 H4878 0.951 . S
C4903 C4901 1.388 . S
C4903 C4904 1.366 . S
C4904 C4903 1.366 . S
C4904 C4905 1.414 . S
C4904 C4907 1.499 . S
C4905 H4879 0.950 . S
C4905 C4904 1.414 . S
C4905 C4906 1.374 . S
C4906 H4880 0.950 . S
C4906 C4902 1.385 . S
C4906 C4905 1.374 . S
C4907 C4904 1.499 . S
C4907 C4908 1.373 . S
C4907 C4909 1.389 . S
C4908 H4881 0.950 . S
C4908 C4894 1.377 . S
C4908 C4907 1.373 . S
C4909 C4893 1.377 . S
C4909 C4907 1.389 . S
C4909 C4910 1.524 . S
C4910 C4909 1.524 . S
C4910 C4911 1.397 . S
C4910 C4915 1.363 . S
C4911 H4882 0.950 . S
C4911 C4910 1.397 . S
C4911 C4912 1.334 . S
C4912 H4883 0.950 . S
C4912 C4911 1.334 . S
C4912 C4913 1.287 . S
C4913 C4912 1.287 . S
C4913 C4914 1.524 . S
C4913 H4916 0.999 . S
C4914 H4884 0.950 . S
C4914 C4913 1.524 . S
C4914 C4915 1.415 . S
C4915 H4885 0.950 . S
C4915 C4910 1.363 . S
C4915 C4914 1.415 . S
H4916 C4913 0.999 . S
H4917 C4898 0.913 . S
H4918 C4936 0.951 . S
H4919 C4938 0.951 . S
H4920 C4940 0.912 1_565 S
H4921 C4941 0.950 . S
H4922 C4943 0.950 . S
H4923 C4946 0.950 . S
H4924 C4947 0.950 . S
H4925 C4949 0.950 . S
H4926 C4950 0.950 . S
H4927 C4951 0.951 . S
H4928 C4953 0.951 . S
H4929 C4955 0.950 . S
H4930 C4956 0.950 . S
H4931 C4958 0.950 . S
H4932 C4961 0.950 . S
H4933 C4962 0.950 . S
H4934 C4964 0.950 . S
H4935 C4965 0.950 . S
C4936 H4918 0.951 . S
C4936 C4937 1.366 . S
C4936 C4938 1.388 . S
C4937 C4936 1.366 . S
C4937 C4941 1.385 . S
C4938 H4919 0.951 . S
C4938 C4936 1.388 . S
C4938 C4939 1.366 . S
C4939 C4938 1.366 . S
C4939 C4940 1.414 . S
C4939 C4942 1.499 . S
C4940 H4920 0.912 1_545 S
C4940 C4939 1.414 . S
C4940 C4941 1.374 . S
C4941 H4921 0.950 . S
C4941 C4937 1.385 . S
C4941 C4940 1.374 . S
C4942 C4939 1.499 . S
C4942 C4943 1.373 . S
C4942 C4944 1.389 . S
C4943 H4922 0.950 . S
C4943 C4942 1.373 . S
C4943 C4959 1.377 . S
C4944 C4942 1.389 . S
C4944 C4945 1.524 . S
C4944 C4958 1.377 . S
C4945 C4944 1.524 . S
C4945 C4946 1.397 . S
C4945 C4950 1.363 . S
C4946 H4923 0.950 . S
C4946 C4945 1.397 . S
C4946 C4947 1.334 . S
C4947 H4924 0.950 . S
C4947 C4946 1.334 . S
C4947 C4948 1.287 . S
C4948 C4947 1.287 . S
C4948 C4949 1.524 . S
C4948 H4967 0.913 . S
C4949 H4925 0.950 . S
C4949 C4948 1.524 . S
C4949 C4950 1.415 . S
C4950 H4926 0.950 . S
C4950 C4945 1.363 . S
C4950 C4949 1.415 . S
C4951 H4927 0.951 . S
C4951 C4952 1.366 1_565 S
C4951 C4953 1.388 . S
C4952 C4951 1.366 1_545 S
C4952 C4956 1.385 . S
C4953 H4928 0.951 . S
C4953 C4951 1.388 . S
C4953 C4954 1.366 1_565 S
C4954 C4953 1.366 1_545 S
C4954 C4955 1.414 . S
C4954 C4957 1.499 . S
C4955 H4929 0.950 . S
C4955 C4954 1.414 . S
C4955 C4956 1.374 . S
C4956 H4930 0.950 . S
C4956 C4952 1.385 . S
C4956 C4955 1.374 . S
C4957 C4954 1.499 . S
C4957 C4958 1.373 . S
C4957 C4959 1.389 . S
C4958 H4931 0.950 . S
C4958 C4944 1.377 . S
C4958 C4957 1.373 . S
C4959 C4943 1.377 . S
C4959 C4957 1.389 . S
C4959 C4960 1.524 . S
C4960 C4959 1.524 . S
C4960 C4961 1.397 . S
C4960 C4965 1.363 1_545 S
C4961 H4932 0.950 . S
C4961 C4960 1.397 . S
C4961 C4962 1.334 . S
C4962 H4933 0.950 . S
C4962 C4961 1.334 . S
C4962 C4963 1.255 1_545 S
C4963 C4962 1.255 1_565 S
C4963 C4964 1.565 . S
C4963 H4966 0.996 . S
C4964 H4934 0.950 . S
C4964 C4963 1.565 . S
C4964 C4965 1.415 . S
C4965 H4935 0.950 . S
C4965 C4960 1.363 1_565 S
C4965 C4964 1.415 . S
H4966 C4963 0.996 . S
H4967 C4948 0.913 . S
C1387 C9 1.579 . S
C1402 C857 1.510 . S
C1437 C19 1.605 . S
C1452 C901 1.557 . S
C1502 C981 1.551 . S
C1487 C33 1.618 . S
C1537 C37 1.592 . S
C1552 C1025 1.540 . S
C1587 C5 1.569 . S
C1602 C1105 1.513 . S
C1637 C23 1.629 . S
C1652 C1167 1.551 . S
C1687 C47 1.592 . S
C1702 C1087 1.527 . S
C1752 C1149 1.570 . S
C1737 C65 1.649 . S
C1802 C1043 1.536 . S
C1787 C75 1.615 . S
C1837 C79 1.538 . S
C1852 C963 1.463 . S
C1902 C839 1.541 . S
C1887 C51 1.610 . S
C1937 C61 1.626 . S
C1952 C919 1.578 . S
C1987 C93 1.702 . S
C2002 C1229 1.617 . S
C2037 C103 1.649 . S
C2052 C1273 1.603 . S
C2102 C1353 1.609 . S
C2087 C117 1.688 . S
C2137 C121 1.661 . S
C2152 C299 1.582 . S
C2187 C89 1.665 . S
C2202 C343 1.617 . S
C2237 C107 1.665 . S
C2252 C423 1.585 . S
C2287 C131 1.653 . S
C2302 C361 1.603 . S
C2337 C149 1.677 . S
C2352 C405 1.598 . S
C2402 C281 1.574 . S
C2387 C159 1.651 . S
C2452 C1335 1.585 . S
C2437 C163 1.665 . S
C2502 C1211 1.617 . S
C2487 C135 1.704 . S
C2552 C1291 1.626 . S
C2537 C145 1.673 . S
C2587 C177 1.656 . S
C2602 C485 1.572 . S
C2637 C187 1.627 . S
C2652 C547 1.556 . S
C2687 C201 1.691 . S
C2702 C591 1.640 . S
C2737 C205 1.709 . S
C2752 C653 1.658 . S
C2802 C715 1.615 . S
C2787 C173 1.663 . S
C2852 C795 1.602 . S
C2837 C191 1.685 . S
C2902 C733 1.656 . S
C2887 C215 1.707 . S
C2952 C777 1.623 . S
C2937 C233 1.704 . S
C2987 C243 1.643 . S
C3002 C671 1.594 . S
C3052 C609 1.563 . S
C3037 C247 1.611 . S
C3087 C219 1.708 . S
C3102 C467 1.622 . S
C3152 C529 1.591 . S
C3137 C229 1.665 . S
C3202 C305 1.469 . S
C3187 C11 1.535 . S
C3237 C14 1.512 . S
C3252 C349 1.458 . S
C3302 C429 1.533 . S
C3287 C28 1.604 . S
C3352 C491 1.525 . S
C3337 C39 1.597 1_556 S
C3402 C553 1.480 . S
C3387 C0 1.548 1_556 S
C3452 C597 1.417 . S
C3437 C25 1.452 1_556 S
C3487 C42 1.593 1_556 S
C3502 C615 1.546 . S
C3537 C67 1.550 . S
C3552 C473 1.456 . S
C3587 C70 1.493 1_556 S
C3602 C535 1.425 . S
C3637 C81 1.534 . S
C3652 C367 1.487 . S
C3702 C411 1.502 . S
C3687 C53 1.574 . S
C3737 C56 1.543 . S
C3752 C287 1.474 . S
C3802 C659 1.473 . S
C3787 C95 1.527 . S
C3837 C98 1.586 1_545 S
C3852 C721 1.531 . S
C3887 C112 1.661 1_655 S
C3902 C801 1.589 . S
C3952 C863 1.424 . S
C3937 C123 1.471 . S
C3987 C84 1.541 . S
C4002 C907 1.487 . S
C4037 C109 1.407 . S
C4052 C987 1.361 . S
C4087 C126 1.501 . S
C4102 C969 1.444 . S
C4137 C151 1.451 . S
C4152 C845 1.402 . S
C4202 C925 1.463 . S
C4187 C154 1.515 . S
C4237 C165 1.513 . S
C4252 C739 1.457 . S
C4287 C137 1.639 . S
C4302 C783 1.540 . S
C4352 C677 1.565 . S
C4337 C140 1.621 1_655 S
C4402 C1031 1.405 . S
C4387 C179 1.444 . S
C4437 C182 1.445 . S
C4452 C1111 1.401 . S
C4487 C196 1.596 . S
C4502 C1173 1.529 . S
C4552 C1235 1.514 . S
C4537 C207 1.586 . S
C4602 C1279 1.535 . S
C4587 C168 1.592 1_565 S
C4637 C193 1.554 . S
C4652 C1359 1.485 . S
C4687 C210 1.600 . S
C4702 C1341 1.530 . S
C4737 C235 1.601 1_565 S
C4752 C1217 1.531 . S
C4802 C1297 1.508 . S
C4787 C238 1.563 1_455 S
C4852 C1093 1.355 . S
C4837 C249 1.399 . S
C4902 C1155 1.491 . S
C4887 C221 1.560 . S
C4937 C224 1.483 . S
C4952 C1049 1.441 . S
