# Generated by pormake.
# Topology nom, (4,4)-cn, num edge types: 1
# Building blocks:
#     Node 0, Type 0, BuildingBlock: AZAVOO_clean_linker_0, # of connection points: 4
#     Node 1, Type 0, BuildingBlock: AZAVOO_clean_linker_0, # of connection points: 4
#     Node 2, Type 0, BuildingBlock: AZAVOO_clean_linker_0, # of connection points: 4
#     Node 3, Type 0, BuildingBlock: AZAVOO_clean_linker_0, # of connection points: 4
#     Node 4, Type 0, BuildingBlock: AZAVOO_clean_linker_0, # of connection points: 4
#     Node 5, Type 0, BuildingBlock: AZAVOO_clean_linker_0, # of connection points: 4
#     Node 6, Type 1, BuildingBlock: UXUYUI_clean_sbu_0, # of connection points: 4
#     Node 7, Type 1, BuildingBlock: UXUYUI_clean_sbu_0, # of connection points: 4
#     Node 8, Type 1, BuildingBlock: UXUYUI_clean_sbu_0, # of connection points: 4
#     Node 9, Type 1, BuildingBlock: UXUYUI_clean_sbu_0, # of connection points: 4
#     Node 10, Type 1, BuildingBlock: UXUYUI_clean_sbu_0, # of connection points: 4
#     Node 11, Type 1, BuildingBlock: UXUYUI_clean_sbu_0, # of connection points: 4
#     Edge 12, Type (0, 1), BuildingBlock: ZUJKAS_clean_linker_0, # of connection points: 2
#     Edge 13, Type (0, 1), BuildingBlock: ZUJKAS_clean_linker_0, # of connection points: 2
#     Edge 14, Type (0, 1), BuildingBlock: ZUJKAS_clean_linker_0, # of connection points: 2
#     Edge 15, Type (0, 1), BuildingBlock: ZUJKAS_clean_linker_0, # of connection points: 2
#     Edge 16, Type (0, 1), BuildingBlock: ZUJKAS_clean_linker_0, # of connection points: 2
#     Edge 17, Type (0, 1), BuildingBlock: ZUJKAS_clean_linker_0, # of connection points: 2
#     Edge 18, Type (0, 1), BuildingBlock: ZUJKAS_clean_linker_0, # of connection points: 2
#     Edge 19, Type (0, 1), BuildingBlock: ZUJKAS_clean_linker_0, # of connection points: 2
#     Edge 20, Type (0, 1), BuildingBlock: ZUJKAS_clean_linker_0, # of connection points: 2
#     Edge 21, Type (0, 1), BuildingBlock: ZUJKAS_clean_linker_0, # of connection points: 2
#     Edge 22, Type (0, 1), BuildingBlock: ZUJKAS_clean_linker_0, # of connection points: 2
#     Edge 23, Type (0, 1), BuildingBlock: ZUJKAS_clean_linker_0, # of connection points: 2
#     Edge 24, Type (0, 1), BuildingBlock: ZUJKAS_clean_linker_0, # of connection points: 2
#     Edge 25, Type (0, 1), BuildingBlock: ZUJKAS_clean_linker_0, # of connection points: 2
#     Edge 26, Type (0, 1), BuildingBlock: ZUJKAS_clean_linker_0, # of connection points: 2
#     Edge 27, Type (0, 1), BuildingBlock: ZUJKAS_clean_linker_0, # of connection points: 2
#     Edge 28, Type (0, 1), BuildingBlock: ZUJKAS_clean_linker_0, # of connection points: 2
#     Edge 29, Type (0, 1), BuildingBlock: ZUJKAS_clean_linker_0, # of connection points: 2
#     Edge 30, Type (0, 1), BuildingBlock: ZUJKAS_clean_linker_0, # of connection points: 2
#     Edge 31, Type (0, 1), BuildingBlock: ZUJKAS_clean_linker_0, # of connection points: 2
#     Edge 32, Type (0, 1), BuildingBlock: ZUJKAS_clean_linker_0, # of connection points: 2
#     Edge 33, Type (0, 1), BuildingBlock: ZUJKAS_clean_linker_0, # of connection points: 2
#     Edge 34, Type (0, 1), BuildingBlock: ZUJKAS_clean_linker_0, # of connection points: 2
#     Edge 35, Type (0, 1), BuildingBlock: ZUJKAS_clean_linker_0, # of connection points: 2
# Relax obj value: 0.165
# Max RMSD: 0.223
# Mean RMSD: 0.184
data_MOF--net-nom--node1-UXUYUI_clean_sbu_0--node2-AZAVOO_clean_linker_0--edge1-ZUJKAS_clean_linker_0
_symmetry_space_group_name_H-M    P1
_symmetry_Int_Tables_number       1
_symmetry_cell_setting            triclinic
loop_
_symmetry_equiv_pos_as_xyz
'x, y, z'
_cell_length_a     69.386446
_cell_length_b     70.477062
_cell_length_c     87.381506
_cell_angle_alpha  89.960269
_cell_angle_beta   89.915191
_cell_angle_gamma 121.30675
loop_
_atom_site_label
_atom_site_type_symbol
_atom_site_fract_x
_atom_site_fract_y
_atom_site_fract_z
_atom_type_partial_charge
H0 H 0.06233 0.49307 0.22557 0.0
H1 H 0.17565 0.62382 0.3703 0.0
H2 H 0.01184 0.47468 0.30348 0.0
H3 H 0.98304 0.45418 0.28406 0.0
H4 H 0.97196 0.50898 0.28018 0.0
H5 H 0.00033 0.529 0.3 0.0
H6 H 0.06496 0.50151 0.29224 0.0
H7 H 0.06663 0.49416 0.26505 0.0
H8 H 0.04007 0.53593 0.2536 0.0
H9 H 0.03876 0.54336 0.28081 0.0
H10 H 0.1059 0.53415 0.31565 0.0
H11 H 0.14373 0.5582 0.30484 0.0
H12 H 0.12093 0.59818 0.28308 0.0
H13 H 0.08338 0.57416 0.29392 0.0
H14 H 0.08606 0.5265 0.35001 0.0
H15 H 0.12009 0.54763 0.36553 0.0
H16 H 0.13198 0.60851 0.34471 0.0
H17 H 0.09773 0.5872 0.32943 0.0
H18 H 0.03314 0.50034 0.35779 0.0
H19 H 0.03874 0.50478 0.38551 0.0
H20 H 0.06549 0.57523 0.3807 0.0
H21 H 0.05922 0.57047 0.35308 0.0
H22 H 0.99122 0.47981 0.33455 0.0
H23 H 0.95486 0.47091 0.3456 0.0
H24 H 0.97824 0.54096 0.34717 0.0
H25 H 0.01437 0.54958 0.33648 0.0
O26 O 0.06172 0.49635 0.23625 0.0
O27 O 0.0479 0.51789 0.23098 0.0
O28 O 0.15511 0.5833 0.37479 0.0
O29 O 0.16212 0.61505 0.3643 0.0
C30 C 0.02874 0.51724 0.31223 0.0
C31 C 0.05004 0.52668 0.30502 0.0
C32 C 0.0699 0.53988 0.31352 0.0
C33 C 0.06855 0.54243 0.32944 0.0
C34 C 0.04724 0.53305 0.33663 0.0
C35 C 0.02733 0.52122 0.3279 0.0
C36 C 0.00813 0.50329 0.30309 0.0
C37 C 0.00268 0.48193 0.29874 0.0
C38 C 0.98642 0.47038 0.28753 0.0
C39 C 0.97547 0.4801 0.28036 0.0
C40 C 0.97994 0.50093 0.28552 0.0
C41 C 0.99613 0.51242 0.29684 0.0
C42 C 0.05159 0.52282 0.28847 0.0
C43 C 0.0596 0.50912 0.28383 0.0
C44 C 0.06049 0.50492 0.26829 0.0
C45 C 0.0534 0.51439 0.25714 0.0
C46 C 0.04558 0.52831 0.26188 0.0
C47 C 0.04476 0.53254 0.27741 0.0
C48 C 0.09197 0.55247 0.30558 0.0
C49 C 0.10908 0.54794 0.30838 0.0
C50 C 0.13063 0.56172 0.30226 0.0
C51 C 0.13529 0.58011 0.29316 0.0
C52 C 0.1178 0.58399 0.28988 0.0
C53 C 0.09635 0.57032 0.29607 0.0
C54 C 0.08949 0.55532 0.33859 0.0
C55 C 0.09605 0.5444 0.34884 0.0
C56 C 0.11549 0.55651 0.35767 0.0
C57 C 0.12878 0.57978 0.35635 0.0
C58 C 0.12216 0.59063 0.346 0.0
C59 C 0.10265 0.5785 0.33723 0.0
C60 C 0.04601 0.53512 0.35345 0.0
C61 C 0.03956 0.5166 0.36281 0.0
C62 C 0.04298 0.51921 0.3786 0.0
C63 C 0.05289 0.54041 0.38527 0.0
C64 C 0.05771 0.55866 0.37596 0.0
C65 C 0.05423 0.55601 0.36017 0.0
C66 C 0.00539 0.51533 0.33478 0.0
C67 C 0.98841 0.49316 0.33735 0.0
C68 C 0.96768 0.48813 0.3436 0.0
C69 C 0.96369 0.50524 0.34735 0.0
C70 C 0.98086 0.5274 0.34472 0.0
C71 C 0.00149 0.53237 0.33853 0.0
C72 C 0.05414 0.50971 0.24066 0.0
C73 C 0.14944 0.59273 0.36572 0.0
H74 H 0.57929 0.08622 0.39628 0.0
H75 H 0.53399 0.15649 0.5496 0.0
H76 H 0.55477 0.02691 0.46921 0.0
H77 H 0.55181 0.0005 0.44983 0.0
H78 H 0.4792 0.96858 0.45079 0.0
H79 H 0.48234 0.99521 0.47019 0.0
H80 H 0.57203 0.07795 0.46295 0.0
H81 H 0.58183 0.08543 0.4358 0.0
H82 H 0.5112 0.04475 0.42405 0.0
H83 H 0.50162 0.03764 0.45124 0.0
H84 H 0.57381 0.10837 0.49066 0.0
H85 H 0.58534 0.14581 0.48172 0.0
H86 H 0.52252 0.11907 0.45712 0.0
H87 H 0.511 0.08179 0.46626 0.0
H88 H 0.56217 0.08551 0.52265 0.0
H89 H 0.56884 0.11503 0.54053 0.0
H90 H 0.51253 0.11678 0.52102 0.0
H91 H 0.50585 0.08703 0.50336 0.0
H92 H 0.54437 0.03463 0.52613 0.0
H93 H 0.54507 0.03649 0.55402 0.0
H94 H 0.4887 0.0466 0.55325 0.0
H95 H 0.48859 0.04526 0.52524 0.0
H96 H 0.52811 0.99595 0.50082 0.0
H97 H 0.50446 0.95724 0.5095 0.0
H98 H 0.44802 0.9667 0.51457 0.0
H99 H 0.4715 0.00493 0.50567 0.0
O100 O 0.57503 0.08312 0.40695 0.0
O101 O 0.53852 0.06195 0.40152 0.0
O102 O 0.56038 0.14309 0.55239 0.0
O103 O 0.53175 0.14484 0.54264 0.0
C104 C 0.52113 0.0308 0.48136 0.0
C105 C 0.5303 0.0526 0.47555 0.0
C106 C 0.53374 0.06996 0.48541 0.0
C107 C 0.52912 0.06577 0.50121 0.0
C108 C 0.51987 0.04398 0.50697 0.0
C109 C 0.51501 0.02635 0.49696 0.0
C110 C 0.51879 0.01299 0.47106 0.0
C111 C 0.53822 0.01404 0.46537 0.0
C112 C 0.5365 0.99904 0.45426 0.0
C113 C 0.51528 0.98261 0.44871 0.0
C114 C 0.49575 0.98097 0.45493 0.0
C115 C 0.4975 0.99614 0.46599 0.0
C116 C 0.53614 0.05723 0.45905 0.0
C117 C 0.5587 0.07076 0.45449 0.0
C118 C 0.56425 0.07495 0.43898 0.0
C119 C 0.5473 0.06566 0.42775 0.0
C120 C 0.52467 0.05214 0.43239 0.0
C121 C 0.51915 0.04801 0.44791 0.0
C122 C 0.54154 0.09241 0.47915 0.0
C123 C 0.56259 0.11063 0.48331 0.0
C124 C 0.56911 0.13195 0.47824 0.0
C125 C 0.55478 0.13532 0.46877 0.0
C126 C 0.53398 0.11693 0.46429 0.0
C127 C 0.52738 0.09567 0.4695 0.0
C128 C 0.53353 0.08415 0.51174 0.0
C129 C 0.55129 0.09228 0.52228 0.0
C130 C 0.55507 0.10915 0.53246 0.0
C131 C 0.54121 0.11827 0.53221 0.0
C132 C 0.52352 0.11014 0.52153 0.0
C133 C 0.5197 0.0932 0.5114 0.0
C134 C 0.5166 0.04004 0.5237 0.0
C135 C 0.53179 0.03663 0.53202 0.0
C136 C 0.53211 0.03765 0.54798 0.0
C137 C 0.51713 0.042 0.55589 0.0
C138 C 0.50076 0.04368 0.5475 0.0
C139 C 0.50052 0.04273 0.53153 0.0
C140 C 0.50146 0.00317 0.50258 0.0
C141 C 0.51063 0.98957 0.50381 0.0
C142 C 0.49716 0.96757 0.50883 0.0
C143 C 0.47434 0.9589 0.51261 0.0
C144 C 0.46541 0.97275 0.5115 0.0
C145 C 0.47883 0.99464 0.50654 0.0
C146 C 0.55326 0.07008 0.41128 0.0
C147 C 0.5451 0.13613 0.54304 0.0
H148 H 0.54527 0.50418 0.75759 0.0
H149 H 0.56897 0.4445 0.59216 0.0
H150 H 0.5381 0.55705 0.68173 0.0
H151 H 0.52833 0.57137 0.704 0.0
H152 H 0.46046 0.51419 0.70284 0.0
H153 H 0.47027 0.50053 0.68016 0.0
H154 H 0.55799 0.52491 0.69217 0.0
H155 H 0.5595 0.52048 0.71985 0.0
H156 H 0.48791 0.47203 0.72014 0.0
H157 H 0.48672 0.47652 0.69244 0.0
H158 H 0.57271 0.50275 0.66478 0.0
H159 H 0.58375 0.47667 0.67357 0.0
H160 H 0.51387 0.42816 0.68347 0.0
H161 H 0.50303 0.45399 0.67419 0.0
H162 H 0.57125 0.52583 0.63276 0.0
H163 H 0.58867 0.51372 0.61386 0.0
H164 H 0.53325 0.44598 0.61919 0.0
H165 H 0.51582 0.45839 0.63788 0.0
H166 H 0.54697 0.55471 0.63049 0.0
H167 H 0.55939 0.5647 0.60398 0.0
H168 H 0.51644 0.49589 0.59086 0.0
H169 H 0.50328 0.48637 0.61723 0.0
H170 H 0.52234 0.56399 0.65224 0.0
H171 H 0.49813 0.57792 0.64374 0.0
H172 H 0.44631 0.51118 0.63135 0.0
H173 H 0.4705 0.49749 0.63984 0.0
O174 O 0.54435 0.5055 0.74663 0.0
O175 O 0.50752 0.48068 0.74615 0.0
O176 O 0.59032 0.48489 0.59709 0.0
O177 O 0.56255 0.4497 0.59971 0.0
C178 C 0.51238 0.51721 0.66828 0.0
C179 C 0.52135 0.5045 0.67367 0.0
C180 C 0.53003 0.49554 0.66325 0.0
C181 C 0.53122 0.50065 0.64752 0.0
C182 C 0.52195 0.51319 0.64213 0.0
C183 C 0.51171 0.52067 0.65247 0.0
C184 C 0.50489 0.52778 0.67945 0.0
C185 C 0.52095 0.54802 0.68604 0.0
C186 C 0.5154 0.55601 0.69884 0.0
C187 C 0.49374 0.54371 0.70536 0.0
C188 C 0.47724 0.52414 0.69805 0.0
C189 C 0.48278 0.51628 0.68513 0.0
C190 C 0.52224 0.50111 0.69036 0.0
C191 C 0.5427 0.51328 0.69824 0.0
C192 C 0.54348 0.51075 0.71405 0.0
C193 C 0.5238 0.49596 0.72223 0.0
C194 C 0.50336 0.48361 0.71421 0.0
C195 C 0.50262 0.48615 0.6984 0.0
C196 C 0.53709 0.48019 0.66882 0.0
C197 C 0.55985 0.48645 0.6688 0.0
C198 C 0.5661 0.4716 0.67392 0.0
C199 C 0.54966 0.4503 0.67917 0.0
C200 C 0.5269 0.44427 0.67927 0.0
C201 C 0.52069 0.45906 0.67411 0.0
C202 C 0.54229 0.49298 0.63668 0.0
C203 C 0.56293 0.50838 0.62985 0.0
C204 C 0.57284 0.50141 0.61906 0.0
C205 C 0.56233 0.47887 0.615 0.0
C206 C 0.54178 0.46345 0.62205 0.0
C207 C 0.53183 0.47047 0.63278 0.0
C208 C 0.52451 0.51977 0.62579 0.0
C209 C 0.53957 0.54198 0.62176 0.0
C210 C 0.54686 0.54759 0.60664 0.0
C211 C 0.53933 0.53102 0.59536 0.0
C212 C 0.52255 0.50912 0.59921 0.0
C213 C 0.51507 0.50358 0.6143 0.0
C214 C 0.49809 0.52976 0.64666 0.0
C215 C 0.50581 0.55247 0.64761 0.0
C216 C 0.49203 0.56037 0.64271 0.0
C217 C 0.4703 0.54558 0.63699 0.0
C218 C 0.46285 0.5229 0.63589 0.0
C219 C 0.47667 0.51509 0.64064 0.0
C220 C 0.52464 0.49351 0.73905 0.0
C221 C 0.57265 0.47143 0.6034 0.0
H222 H 0.02068 0.56873 0.93015 0.0
H223 H 0.16319 0.59416 0.78787 0.0
H224 H 0.98431 0.54559 0.8528 0.0
H225 H 0.95559 0.52776 0.8728 0.0
H226 H 0.95329 0.46609 0.86495 0.0
H227 H 0.98199 0.48406 0.84497 0.0
H228 H 0.03589 0.57792 0.86396 0.0
H229 H 0.03188 0.58075 0.89158 0.0
H230 H 0.01145 0.51174 0.89686 0.0
H231 H 0.01596 0.50928 0.86931 0.0
H232 H 0.0824 0.59599 0.84062 0.0
H233 H 0.1196 0.6115 0.85268 0.0
H234 H 0.09829 0.54737 0.87249 0.0
H235 H 0.06175 0.53182 0.85996 0.0
H236 H 0.06632 0.58747 0.8059 0.0
H237 H 0.10222 0.60591 0.79202 0.0
H238 H 0.11786 0.55869 0.81084 0.0
H239 H 0.08173 0.54018 0.82444 0.0
H240 H 0.01702 0.55769 0.79436 0.0
H241 H 0.02772 0.56341 0.76726 0.0
H242 H 0.0571 0.52267 0.77247 0.0
H243 H 0.04584 0.51666 0.79936 0.0
H244 H 0.97016 0.52745 0.81771 0.0
H245 H 0.9357 0.49916 0.80479 0.0
H246 H 0.9663 0.45996 0.79706 0.0
H247 H 0.00051 0.48824 0.80986 0.0
O248 O 0.02259 0.56737 0.91931 0.0
O249 O 0.01156 0.53167 0.92132 0.0
O250 O 0.13988 0.61082 0.78367 0.0
O251 O 0.14892 0.58722 0.79326 0.0
C252 C 0.00712 0.5284 0.83922 0.0
C253 C 0.02716 0.54141 0.84774 0.0
C254 C 0.04827 0.55222 0.84028 0.0
C255 C 0.04931 0.55097 0.82419 0.0
C256 C 0.02931 0.53795 0.81568 0.0
C257 C 0.00826 0.52614 0.82323 0.0
C258 C 0.98532 0.51615 0.84754 0.0
C259 C 0.97697 0.52802 0.85501 0.0
C260 C 0.96076 0.51788 0.86652 0.0
C261 C 0.95254 0.49566 0.87062 0.0
C262 C 0.95926 0.48321 0.86201 0.0
C263 C 0.97559 0.49342 0.85055 0.0
C264 C 0.02603 0.54336 0.86463 0.0
C265 C 0.03075 0.56351 0.87113 0.0
C266 C 0.02835 0.56504 0.88689 0.0
C267 C 0.0212 0.54643 0.89642 0.0
C268 C 0.01689 0.52637 0.88986 0.0
C269 C 0.01941 0.5249 0.87412 0.0
C270 C 0.06937 0.56276 0.8494 0.0
C271 C 0.0857 0.58541 0.84774 0.0
C272 C 0.10685 0.59423 0.85461 0.0
C273 C 0.11168 0.58061 0.86353 0.0
C274 C 0.09486 0.55828 0.86586 0.0
C275 C 0.07398 0.5494 0.85873 0.0
C276 C 0.07148 0.56255 0.8162 0.0
C277 C 0.07753 0.58115 0.807 0.0
C278 C 0.09805 0.59165 0.7991 0.0
C279 C 0.11292 0.58378 0.80033 0.0
C280 C 0.10682 0.56519 0.80964 0.0
C281 C 0.08624 0.55463 0.81747 0.0
C282 C 0.03081 0.5369 0.7988 0.0
C283 C 0.02509 0.54943 0.78948 0.0
C284 C 0.03144 0.55286 0.77407 0.0
C285 C 0.04356 0.54376 0.76777 0.0
C286 C 0.04766 0.52979 0.7769 0.0
C287 C 0.04129 0.52636 0.79229 0.0
C288 C 0.98784 0.50993 0.81464 0.0
C289 C 0.96941 0.51281 0.81311 0.0
C290 C 0.94975 0.49662 0.80579 0.0
C291 C 0.94829 0.47734 0.79987 0.0
C292 C 0.96699 0.47477 0.80125 0.0
C293 C 0.98654 0.49088 0.80859 0.0
C294 C 0.01815 0.54796 0.91309 0.0
C295 C 0.13469 0.59481 0.7919 0.0
H296 H 0.44899 0.98437 0.89371 0.0
H297 H 0.44751 0.85791 0.03411 0.0
H298 H 0.47253 0.0268 0.97024 0.0
H299 H 0.4884 0.05649 0.95115 0.0
H300 H 0.55509 0.06898 0.9609 0.0
H301 H 0.5389 0.03853 0.97937 0.0
H302 H 0.44396 0.97381 0.96029 0.0
H303 H 0.43919 0.9751 0.93263 0.0
H304 H 0.51129 0.00636 0.92646 0.0
H305 H 0.51576 0.00461 0.95408 0.0
H306 H 0.43379 0.92963 0.98194 0.0
H307 H 0.42579 0.89458 0.97021 0.0
H308 H 0.49434 0.92723 0.95336 0.0
H309 H 0.50214 0.96176 0.96512 0.0
H310 H 0.44031 0.94667 0.01808 0.0
H311 H 0.42559 0.91112 0.03135 0.0
H312 H 0.47966 0.90507 0.01218 0.0
H313 H 0.49434 0.94074 -0.00084 0.0
H314 H 0.46877 0.99661 0.03164 0.0
H315 H 0.47361 0.99307 0.05915 0.0
H316 H 0.52158 0.97326 0.04872 0.0
H317 H 0.51677 0.97701 0.0214 0.0
H318 H 0.49224 0.04283 0.00833 0.0
H319 H 0.51928 0.07692 0.02208 0.0
H320 H 0.56605 0.05386 0.02422 0.0
H321 H 0.53918 0.02022 0.0106 0.0
O322 O 0.45124 0.98386 0.9046 0.0
O323 O 0.48844 0.0002 0.90208 0.0
O324 O 0.4257 0.87607 0.03876 0.0
O325 O 0.45302 0.87204 0.02906 0.0
C326 C 0.49437 0.00898 0.98448 0.0
C327 C 0.48297 0.98893 0.97605 0.0
C328 C 0.47509 0.9684 0.98351 0.0
C329 C 0.47703 0.96772 -0.00044 0.0
C330 C 0.48846 0.98769 0.00797 0.0
C331 C 0.49784 0.00834 0.00036 0.0
C332 C 0.50453 0.03046 0.97616 0.0
C333 C 0.49063 0.03638 0.96854 0.0
C334 C 0.49976 0.0534 0.95766 0.0
C335 C 0.52299 0.06489 0.95433 0.0
C336 C 0.53708 0.06015 0.96298 0.0
C337 C 0.52791 0.04299 0.97373 0.0
C338 C 0.48021 0.98936 0.9592 0.0
C339 C 0.45868 0.98086 0.95293 0.0
C340 C 0.45602 0.98167 0.93713 0.0
C341 C 0.47488 0.99094 0.92733 0.0
C342 C 0.49643 0.9992 0.93368 0.0
C343 C 0.49904 0.9983 0.94946 0.0
C344 C 0.46852 0.94823 0.97434 0.0
C345 C 0.44686 0.92923 0.97542 0.0
C346 C 0.44238 0.90927 0.96879 0.0
C347 C 0.45945 0.90817 0.96087 0.0
C348 C 0.48071 0.92759 0.95914 0.0
C349 C 0.48521 0.94737 0.96586 0.0
C350 C 0.46824 0.94614 0.00757 0.0
C351 C 0.44893 0.93762 0.01678 0.0
C352 C 0.44057 0.91733 0.02433 0.0
C353 C 0.45142 0.90521 0.02278 0.0
C354 C 0.47087 0.91392 0.01359 0.0
C355 C 0.47925 0.93426 0.0061 0.0
C356 C 0.49231 0.98691 0.02459 0.0
C357 C 0.48045 0.99171 0.03537 0.0
C358 C 0.48318 0.98961 0.05102 0.0
C359 C 0.49799 0.98292 0.05607 0.0
C360 C 0.51028 0.97873 0.0452 0.0
C361 C 0.50742 0.98068 0.0296 0.0
C362 C 0.51368 0.02899 0.00867 0.0
C363 C 0.50831 0.04521 0.01185 0.0
C364 C 0.52375 0.06461 0.01965 0.0
C365 C 0.54465 0.0679 0.0244 0.0
C366 C 0.54989 0.05159 0.02106 0.0
C367 C 0.5346 0.0324 0.01324 0.0
C368 C 0.47202 0.99198 0.91058 0.0
C369 C 0.44254 0.88359 0.0307 0.0
H370 H 0.48445 0.44033 0.06193 0.0
H371 H 0.60545 0.45871 0.20996 0.0
H372 H 0.46252 0.47136 0.13656 0.0
H373 H 0.44318 0.48095 0.11764 0.0
H374 H 0.49577 0.55017 0.12136 0.0
H375 H 0.51567 0.54011 0.1396 0.0
H376 H 0.48817 0.44532 0.12877 0.0
H377 H 0.48272 0.43653 0.10145 0.0
H378 H 0.52415 0.5065 0.09074 0.0
H379 H 0.52971 0.51502 0.11809 0.0
H380 H 0.51647 0.43691 0.15315 0.0
H381 H 0.5397 0.42294 0.14278 0.0
H382 H 0.58374 0.48674 0.12159 0.0
H383 H 0.56077 0.50061 0.13219 0.0
H384 H 0.50927 0.45032 0.18781 0.0
H385 H 0.52911 0.43762 0.20404 0.0
H386 H 0.59243 0.48678 0.1834 0.0
H387 H 0.5724 0.49948 0.16739 0.0
H388 H 0.48685 0.47853 0.19558 0.0
H389 H 0.49245 0.48301 0.22336 0.0
H390 H 0.56369 0.52903 0.21611 0.0
H391 H 0.55788 0.52454 0.18841 0.0
H392 H 0.46763 0.5007 0.17128 0.0
H393 H 0.46194 0.52955 0.18231 0.0
H394 H 0.53414 0.57517 0.18247 0.0
H395 H 0.53956 0.54639 0.17169 0.0
O396 O 0.48688 0.44417 0.07267 0.0
O397 O 0.50818 0.48034 0.06779 0.0
O398 O 0.5642 0.43846 0.21397 0.0
O399 O 0.59718 0.46338 0.20367 0.0
C400 C 0.50379 0.49837 0.14881 0.0
C401 C 0.5124 0.48603 0.14202 0.0
C402 C 0.52474 0.47927 0.15094 0.0
C403 C 0.52727 0.48361 0.1668 0.0
C404 C 0.51898 0.49621 0.17348 0.0
C405 C 0.50813 0.50442 0.16438 0.0
C406 C 0.4905 0.50502 0.13941 0.0
C407 C 0.46967 0.48863 0.13343 0.0
C408 C 0.45856 0.4942 0.1227 0.0
C409 C 0.46797 0.51635 0.11788 0.0
C410 C 0.48824 0.53291 0.1246 0.0
C411 C 0.49951 0.52726 0.13518 0.0
C412 C 0.50921 0.4808 0.1254 0.0
C413 C 0.4961 0.45871 0.1205 0.0
C414 C 0.49298 0.45375 0.10489 0.0
C415 C 0.50296 0.47082 0.09391 0.0
C416 C 0.51619 0.49296 0.09889 0.0
C417 C 0.51933 0.49788 0.1145 0.0
C418 C 0.53701 0.46976 0.14343 0.0
C419 C 0.531 0.44772 0.14612 0.0
C420 C 0.5442 0.43978 0.14016 0.0
C421 C 0.56362 0.45384 0.13149 0.0
C422 C 0.56906 0.47565 0.12841 0.0
C423 C 0.55588 0.48353 0.13433 0.0
C424 C 0.53939 0.47571 0.17639 0.0
C425 C 0.52742 0.45829 0.18682 0.0
C426 C 0.5388 0.45108 0.19606 0.0
C427 C 0.56237 0.46117 0.195 0.0
C428 C 0.57428 0.47863 0.18449 0.0
C429 C 0.56289 0.48587 0.1753 0.0
C430 C 0.522 0.50106 0.19008 0.0
C431 C 0.50356 0.48986 0.20003 0.0
C432 C 0.5068 0.49238 0.21584 0.0
C433 C 0.52851 0.50631 0.22186 0.0
C434 C 0.54674 0.51838 0.21179 0.0
C435 C 0.54351 0.51572 0.196 0.0
C436 C 0.504 0.52146 0.17081 0.0
C437 C 0.48213 0.51695 0.17373 0.0
C438 C 0.47895 0.53343 0.17997 0.0
C439 C 0.49762 0.55458 0.18341 0.0
C440 C 0.51943 0.55895 0.18028 0.0
C441 C 0.52257 0.54257 0.17405 0.0
C442 C 0.49956 0.46549 0.07733 0.0
C443 C 0.57455 0.45359 0.2048 0.0
Li444 Li 0.65535 0.46637 0.42539 0.0
Li445 Li 0.64445 0.4308 0.41563 0.0
Li446 Li 0.68121 0.46243 0.40963 0.0
Li447 Li 0.64694 0.4595 0.39918 0.0
C448 C 0.66419 0.43973 0.44429 0.0
N449 N 0.65302 0.42072 0.47309 0.0
C450 C 0.64313 0.43319 0.45068 0.0
C451 C 0.67954 0.43658 0.45254 0.0
C452 C 0.63781 0.42362 0.46525 0.0
C453 C 0.67358 0.42695 0.46709 0.0
C454 C 0.60483 0.43024 0.41094 0.0
C455 C 0.57989 0.40143 0.39343 0.0
N456 N 0.56199 0.40131 0.3999 0.0
C457 C 0.58619 0.42983 0.41741 0.0
C458 C 0.60168 0.41593 0.39884 0.0
C459 C 0.56467 0.41508 0.41168 0.0
C460 C 0.63597 0.4878 0.43832 0.0
N461 N 0.6514 0.48204 0.44151 0.0
C462 C 0.65666 0.49706 0.46669 0.0
C463 C 0.66215 0.48683 0.45522 0.0
C464 C 0.64011 0.50249 0.46389 0.0
C465 C 0.63013 0.49818 0.44935 0.0
H466 H 0.62795 0.484 0.42722 0.0
H467 H 0.67457 0.48227 0.45738 0.0
C468 C 0.63998 0.38953 0.41326 0.0
N469 N 0.62993 0.39991 0.41946 0.0
C470 C 0.63142 0.36708 0.41616 0.0
C471 C 0.60226 0.36639 0.4318 0.0
C472 C 0.61127 0.38885 0.42846 0.0
C473 C 0.61247 0.3553 0.42568 0.0
H474 H 0.65495 0.39887 0.4063 0.0
H475 H 0.60362 0.39754 0.43325 0.0
C476 C 0.68541 0.50567 0.4156 0.0
N477 N 0.70791 0.54505 0.43172 0.0
C478 C 0.68051 0.52229 0.413 0.0
C479 C 0.70183 0.50912 0.42635 0.0
C480 C 0.69205 0.54208 0.42128 0.0
C481 C 0.713 0.52913 0.43439 0.0
C482 C 0.6681 0.44278 0.38097 0.0
C483 C 0.68041 0.46414 0.37471 0.0
C484 C 0.66539 0.42469 0.37257 0.0
C485 C 0.68979 0.46702 0.36012 0.0
C486 C 0.67502 0.42826 0.35801 0.0
N487 N 0.68693 0.44917 0.35214 0.0
C488 C 0.71462 0.45266 0.40686 0.0
C489 C 0.72711 0.48983 0.39982 0.0
C490 C 0.73535 0.45546 0.40271 0.0
N491 N 0.71091 0.46966 0.40527 0.0
C492 C 0.74822 0.49343 0.39563 0.0
C493 C 0.7524 0.476 0.3969 0.0
H494 H 0.70125 0.43676 0.41109 0.0
H495 H 0.72349 0.50291 0.39841 0.0
C496 C 0.62837 0.48181 0.38572 0.0
N497 N 0.63318 0.46576 0.38288 0.0
C498 C 0.61758 0.48731 0.3747 0.0
C499 C 0.61625 0.45913 0.35818 0.0
C500 C 0.62716 0.45423 0.36952 0.0
C501 C 0.61142 0.47593 0.3607 0.0
H502 H 0.63263 0.49008 0.39668 0.0
H503 H 0.63058 0.44109 0.36771 0.0
O504 O 0.66985 0.449 0.43 0.0
O505 O 0.62596 0.44476 0.41646 0.0
O506 O 0.67389 0.48591 0.40795 0.0
O507 O 0.65887 0.43944 0.3953 0.0
H508 H 0.63101 0.43549 0.4445 0.0
H509 H 0.69588 0.44151 0.44774 0.0
H510 H 0.62159 0.4185 0.47032 0.0
H511 H 0.68531 0.42441 0.4736 0.0
H512 H 0.57722 0.39028 0.38407 0.0
H513 H 0.58836 0.44082 0.42678 0.0
H514 H 0.61583 0.41595 0.39365 0.0
H515 H 0.55009 0.41458 0.41659 0.0
H516 H 0.66469 0.49995 0.47776 0.0
H517 H 0.61768 0.50251 0.44656 0.0
H518 H 0.63997 0.35922 0.41141 0.0
H519 H 0.58754 0.35782 0.43912 0.0
H520 H 0.66794 0.51998 0.40469 0.0
H521 H 0.70566 0.49633 0.42861 0.0
H522 H 0.68839 0.55507 0.41942 0.0
H523 H 0.72565 0.53197 0.4428 0.0
H524 H 0.6827 0.47837 0.38099 0.0
H525 H 0.6559 0.40806 0.37725 0.0
H526 H 0.69935 0.48344 0.35513 0.0
H527 H 0.67304 0.4144 0.35137 0.0
H528 H 0.73798 0.44168 0.40399 0.0
H529 H 0.76086 0.50943 0.39104 0.0
H530 H 0.61376 0.50006 0.3772 0.0
H531 H 0.61185 0.45002 0.34751 0.0
Li532 Li 0.23194 0.63642 0.59157 0.0
Li533 Li 0.26066 0.63011 0.58039 0.0
Li534 Li 0.26015 0.66437 0.57552 0.0
Li535 Li 0.23164 0.63011 0.56412 0.0
C536 C 0.26556 0.65451 0.61065 0.0
N537 N 0.2647 0.65516 0.64225 0.0
C538 C 0.26943 0.63997 0.61912 0.0
C539 C 0.26141 0.66948 0.61826 0.0
C540 C 0.26891 0.64055 0.63509 0.0
C541 C 0.26098 0.66951 0.63424 0.0
C542 C 0.20768 0.59019 0.57854 0.0
C543 C 0.18648 0.55251 0.56926 0.0
N544 N 0.16695 0.55175 0.57264 0.0
C545 C 0.18738 0.58899 0.58197 0.0
C546 C 0.20723 0.57178 0.57217 0.0
C547 C 0.16698 0.56943 0.57889 0.0
C548 C 0.20129 0.63971 0.61154 0.0
N549 N 0.21309 0.62951 0.60909 0.0
C550 C 0.19636 0.60645 0.63107 0.0
C551 C 0.21092 0.61316 0.61852 0.0
C552 C 0.18379 0.61657 0.63387 0.0
C553 C 0.18653 0.63353 0.62397 0.0
H554 H 0.20297 0.65232 0.60368 0.0
H555 H 0.22033 0.60515 0.61616 0.0
C556 C 0.30267 0.63462 0.58295 0.0
N557 N 0.28026 0.61939 0.58393 0.0
C558 C 0.31844 0.62853 0.58609 0.0
C559 C 0.2877 0.59106 0.59099 0.0
C560 C 0.2725 0.59793 0.58783 0.0
C561 C 0.31105 0.6065 0.59025 0.0
H562 H 0.30826 0.65161 0.57995 0.0
H563 H 0.25454 0.58624 0.58862 0.0
C564 C 0.22781 0.6711 0.57037 0.0
N565 N 0.23078 0.71001 0.56103 0.0
C566 C 0.2249 0.67433 0.55496 0.0
C567 C 0.23221 0.68765 0.58103 0.0
C568 C 0.22645 0.69411 0.55047 0.0
C569 C 0.23367 0.70722 0.57608 0.0
C570 C 0.27092 0.63711 0.54891 0.0
C571 C 0.28425 0.65065 0.53686 0.0
C572 C 0.26456 0.61477 0.54926 0.0
C573 C 0.29082 0.64152 0.52526 0.0
C574 C 0.2715 0.60627 0.53748 0.0
N575 N 0.28437 0.61971 0.52581 0.0
C576 C 0.29231 0.70959 0.58269 0.0
C577 C 0.28235 0.70157 0.55653 0.0
C578 C 0.30815 0.73172 0.57912 0.0
N579 N 0.27992 0.69508 0.57141 0.0
C580 C 0.29791 0.72349 0.55246 0.0
C581 C 0.31126 0.73885 0.5638 0.0
H582 H 0.29023 0.7039 0.5944 0.0
H583 H 0.27249 0.68955 0.54779 0.0
C584 C 0.19063 0.61488 0.54963 0.0
N585 N 0.21111 0.61714 0.54725 0.0
C586 C 0.17431 0.60649 0.53816 0.0
C587 C 0.2003 0.60279 0.52187 0.0
C588 C 0.21616 0.61129 0.53367 0.0
C589 C 0.17909 0.60043 0.524 0.0
H590 H 0.18709 0.61994 0.56042 0.0
H591 H 0.23253 0.61353 0.53175 0.0
O592 O 0.26549 0.65385 0.59501 0.0
O593 O 0.22786 0.60931 0.58129 0.0
O594 O 0.22685 0.65206 0.57494 0.0
O595 O 0.26486 0.64597 0.56053 0.0
H596 H 0.27259 0.62823 0.61343 0.0
H597 H 0.25824 0.68075 0.61189 0.0
H598 H 0.27177 0.62933 0.64178 0.0
H599 H 0.25762 0.68089 0.64027 0.0
H600 H 0.1859 0.53816 0.56431 0.0
H601 H 0.18732 0.60312 0.58671 0.0
H602 H 0.22272 0.5723 0.5695 0.0
H603 H 0.15116 0.56835 0.58139 0.0
H604 H 0.19498 0.59349 0.63849 0.0
H605 H 0.17692 0.64154 0.62558 0.0
H606 H 0.33621 0.64112 0.58564 0.0
H607 H 0.28121 0.57386 0.59397 0.0
H608 H 0.2218 0.66187 0.5465 0.0
H609 H 0.2348 0.68557 0.59297 0.0
H610 H 0.22432 0.69687 0.53857 0.0
H611 H 0.23719 0.72021 0.5842 0.0
H612 H 0.28952 0.66804 0.53649 0.0
H613 H 0.25419 0.60407 0.55845 0.0
H614 H 0.3011 0.65179 0.51585 0.0
H615 H 0.26662 0.58898 0.53759 0.0
H616 H 0.31797 0.74305 0.58823 0.0
H617 H 0.29998 0.72815 0.54049 0.0
H618 H 0.15812 0.60481 0.54035 0.0
H619 H 0.20485 0.59868 0.51104 0.0
Li620 Li 0.66016 0.23873 0.74913 0.0
Li621 Li 0.62586 0.21455 0.76351 0.0
Li622 Li 0.62728 0.20881 0.73532 0.0
Li623 Li 0.62508 0.23998 0.74565 0.0
C624 C 0.65922 0.19785 0.75035 0.0
N625 N 0.68718 0.18106 0.74674 0.0
C626 C 0.6667 0.19155 0.76314 0.0
C627 C 0.66562 0.19516 0.73572 0.0
C628 C 0.68093 0.18323 0.76108 0.0
C629 C 0.67985 0.18677 0.73413 0.0
C630 C 0.64654 0.25198 0.77921 0.0
C631 C 0.63091 0.25478 0.80318 0.0
N632 N 0.6504 0.25987 0.81035 0.0
C633 C 0.66647 0.25738 0.7868 0.0
C634 C 0.62867 0.25083 0.78743 0.0
C635 C 0.66808 0.26127 0.80256 0.0
C636 C 0.69962 0.27854 0.74432 0.0
N637 N 0.692 0.25785 0.74994 0.0
C638 C 0.72908 0.26859 0.75833 0.0
C639 C 0.70619 0.25253 0.75676 0.0
C640 C 0.73733 0.29026 0.75288 0.0
C641 C 0.72231 0.29503 0.74559 0.0
H642 H 0.68784 0.28239 0.73923 0.0
H643 H 0.6997 0.23615 0.76145 0.0
C644 C 0.5925 0.18949 0.7859 0.0
N645 N 0.61495 0.20023 0.78276 0.0
C646 C 0.58442 0.17968 0.80021 0.0
C647 C 0.62268 0.19187 0.80768 0.0
C648 C 0.63001 0.20151 0.79326 0.0
C649 C 0.59961 0.18081 0.81131 0.0
H650 H 0.58087 0.18856 0.77731 0.0
H651 H 0.64778 0.21035 0.79051 0.0
C652 C 0.65712 0.24687 0.71621 0.0
N653 N 0.67989 0.2598 0.68857 0.0
C654 C 0.65079 0.25669 0.70495 0.0
C655 C 0.67531 0.24401 0.71348 0.0
C656 C 0.66241 0.26299 0.69103 0.0
C657 C 0.68654 0.25056 0.69942 0.0
C658 C 0.58291 0.20698 0.74457 0.0
C659 C 0.57184 0.19825 0.73068 0.0
C660 C 0.57396 0.2153 0.7551 0.0
C661 C 0.55213 0.19828 0.72747 0.0
C662 C 0.55424 0.21506 0.75145 0.0
N663 N 0.54384 0.20665 0.73783 0.0
C664 C 0.61027 0.16625 0.72225 0.0
C665 C 0.61426 0.19404 0.705 0.0
C666 C 0.6007 0.15014 0.71078 0.0
N667 N 0.61674 0.18768 0.71917 0.0
C668 C 0.60483 0.17855 0.69321 0.0
C669 C 0.59761 0.15619 0.69606 0.0
H670 H 0.61213 0.16161 0.73371 0.0
H671 H 0.61894 0.211 0.70293 0.0
C672 C 0.61892 0.27603 0.75112 0.0
N673 N 0.61454 0.25941 0.74122 0.0
C674 C 0.61252 0.29129 0.74754 0.0
C675 C 0.59709 0.27191 0.72368 0.0
C676 C 0.60373 0.25701 0.72775 0.0
C677 C 0.60167 0.28949 0.73357 0.0
H678 H 0.62773 0.27767 0.76168 0.0
H679 H 0.60067 0.24375 0.72003 0.0
O680 O 0.64511 0.20586 0.75219 0.0
O681 O 0.64451 0.24772 0.76383 0.0
O682 O 0.64595 0.24074 0.72995 0.0
O683 O 0.60242 0.2074 0.74782 0.0
H684 H 0.66169 0.19316 0.77454 0.0
H685 H 0.65952 0.19929 0.72565 0.0
H686 H 0.68697 0.17846 0.77089 0.0
H687 H 0.68498 0.18471 0.72287 0.0
H688 H 0.61714 0.25378 0.80969 0.0
H689 H 0.68049 0.25836 0.78064 0.0
H690 H 0.61315 0.24673 0.78174 0.0
H691 H 0.68335 0.26534 0.8086 0.0
H692 H 0.74011 0.26419 0.76398 0.0
H693 H 0.7278 0.31159 0.74148 0.0
H694 H 0.56647 0.17105 0.80249 0.0
H695 H 0.63498 0.19336 0.81597 0.0
H696 H 0.63699 0.25935 0.7069 0.0
H697 H 0.681 0.23718 0.72218 0.0
H698 H 0.65757 0.27046 0.6822 0.0
H699 H 0.70062 0.24841 0.69718 0.0
H700 H 0.57839 0.19158 0.72245 0.0
H701 H 0.58228 0.22209 0.7659 0.0
H702 H 0.54345 0.19167 0.71674 0.0
H703 H 0.54724 0.22161 0.75945 0.0
H704 H 0.59515 0.13306 0.71352 0.0
H705 H 0.60304 0.18403 0.68201 0.0
H706 H 0.61616 0.30443 0.75557 0.0
H707 H 0.58909 0.27005 0.7127 0.0
Li708 Li 0.41262 0.60081 0.92836 0.0
Li709 Li 0.43091 0.63758 0.91653 0.0
Li710 Li 0.39177 0.60947 0.91069 0.0
Li711 Li 0.42296 0.60614 0.90143 0.0
C712 C 0.38919 0.62823 0.9359 0.0
N713 N 0.3566 0.63708 0.9453 0.0
C714 C 0.39324 0.64981 0.93495 0.0
C715 C 0.36862 0.61119 0.94173 0.0
C716 C 0.37654 0.65394 0.93975 0.0
C717 C 0.35234 0.61598 0.94638 0.0
C718 C 0.464 0.63273 0.92507 0.0
C719 C 0.50148 0.66467 0.92202 0.0
N720 N 0.50532 0.66385 0.9372 0.0
C721 C 0.46834 0.63214 0.94063 0.0
C722 C 0.48071 0.64905 0.91566 0.0
C723 C 0.48934 0.64804 0.94654 0.0
C724 C 0.41753 0.57064 0.9472 0.0
N725 N 0.41075 0.58558 0.94673 0.0
C726 C 0.40278 0.58121 0.97351 0.0
C727 C 0.40354 0.59103 0.95951 0.0
C728 C 0.40955 0.56561 0.9744 0.0
C729 C 0.41685 0.56022 0.96096 0.0
H730 H 0.42376 0.56705 0.93694 0.0
H731 H 0.39892 0.60347 0.95894 0.0
C732 C 0.45099 0.6825 0.90894 0.0
N733 N 0.44909 0.6684 0.92025 0.0
C734 C 0.45865 0.70464 0.91228 0.0
C735 C 0.46362 0.69761 0.93864 0.0
C736 C 0.45574 0.67555 0.93481 0.0
C737 C 0.46422 0.71223 0.92743 0.0
H738 H 0.44489 0.67619 0.89759 0.0
H739 H 0.45336 0.66379 0.94365 0.0
C740 C 0.38583 0.56169 0.91561 0.0
N741 N 0.37016 0.51927 0.92646 0.0
C742 C 0.39574 0.54983 0.91067 0.0
C743 C 0.36787 0.55194 0.92599 0.0
C744 C 0.38757 0.5284 0.9163 0.0
C745 C 0.36023 0.53049 0.93137 0.0
C746 C 0.41854 0.63113 0.88113 0.0
C747 C 0.39963 0.61964 0.87172 0.0
C748 C 0.44001 0.64345 0.87458 0.0
C749 C 0.40257 0.62049 0.85586 0.0
C750 C 0.44224 0.64383 0.85867 0.0
N751 N 0.42363 0.63243 0.84972 0.0
C752 C 0.36405 0.62535 0.90272 0.0
C753 C 0.34427 0.58619 0.90569 0.0
C754 C 0.344 0.62476 0.89988 0.0
N755 N 0.36375 0.60631 0.9058 0.0
C756 C 0.3238 0.58478 0.90268 0.0
C757 C 0.32356 0.6043 0.89991 0.0
H758 H 0.3799 0.64106 0.90269 0.0
H759 H 0.34461 0.57132 0.90805 0.0
C760 C 0.45441 0.6047 0.88125 0.0
N761 N 0.43224 0.59641 0.88435 0.0
C762 C 0.4608 0.5995 0.86746 0.0
C763 C 0.42137 0.57673 0.8607 0.0
C764 C 0.41577 0.58234 0.87459 0.0
C765 C 0.44416 0.58564 0.85686 0.0
H766 H 0.46712 0.61588 0.88924 0.0
H767 H 0.39829 0.57618 0.87736 0.0
O768 O 0.4051 0.6237 0.93092 0.0
O769 O 0.44348 0.61744 0.91909 0.0
O770 O 0.3937 0.58275 0.91033 0.0
O771 O 0.41609 0.62997 0.8967 0.0
H772 H 0.40894 0.66319 0.93037 0.0
H773 H 0.36515 0.59437 0.94247 0.0
H774 H 0.3794 0.67053 0.939 0.0
H775 H 0.33629 0.60292 0.9508 0.0
H776 H 0.51452 0.67748 0.91489 0.0
H777 H 0.45561 0.61964 0.94808 0.0
H778 H 0.47757 0.64983 0.90363 0.0
H779 H 0.49291 0.64784 0.95857 0.0
H780 H 0.39763 0.58637 0.98361 0.0
H781 H 0.42216 0.54824 0.96108 0.0
H782 H 0.45846 0.71517 0.90332 0.0
H783 H 0.46794 0.70283 0.95043 0.0
H784 H 0.40974 0.55716 0.90272 0.0
H785 H 0.36007 0.56091 0.92997 0.0
H786 H 0.39514 0.51906 0.91263 0.0
H787 H 0.34644 0.52279 0.93948 0.0
H788 H 0.38291 0.60992 0.8766 0.0
H789 H 0.45483 0.65232 0.88171 0.0
H790 H 0.38811 0.61157 0.84843 0.0
H791 H 0.45877 0.65311 0.85344 0.0
H792 H 0.34449 0.64011 0.89758 0.0
H793 H 0.30831 0.56871 0.90281 0.0
H794 H 0.47854 0.6065 0.86503 0.0
H795 H 0.408 0.56626 0.85279 0.0
Li796 Li 0.78373 0.38228 0.08015 0.0
Li797 Li 0.81439 0.38068 0.09252 0.0
Li798 Li 0.81311 0.38223 0.06398 0.0
Li799 Li 0.78722 0.34848 0.07835 0.0
C800 C 0.82059 0.42544 0.0753 0.0
N801 N 0.82832 0.46671 0.06708 0.0
C802 C 0.83179 0.4434 0.08532 0.0
C803 C 0.81352 0.42854 0.06105 0.0
C804 C 0.83548 0.46412 0.08097 0.0
C805 C 0.81754 0.44951 0.05711 0.0
C806 C 0.77974 0.36088 0.11197 0.0
C807 C 0.78163 0.3456 0.13623 0.0
N808 N 0.77722 0.35997 0.14354 0.0
C809 C 0.775 0.37534 0.11971 0.0
C810 C 0.78287 0.34573 0.12027 0.0
C811 C 0.77388 0.37468 0.13568 0.0
C812 C 0.74046 0.37454 0.07869 0.0
N813 N 0.76197 0.39063 0.08211 0.0
C814 C 0.74977 0.41516 0.09 0.0
C815 C 0.76694 0.41068 0.08767 0.0
C816 C 0.72732 0.39873 0.08675 0.0
C817 C 0.72279 0.37827 0.08088 0.0
H818 H 0.73702 0.35864 0.07449 0.0
H819 H 0.78405 0.42295 0.09075 0.0
C820 C 0.8456 0.38233 0.11454 0.0
N821 N 0.83261 0.39071 0.11036 0.0
C822 C 0.85763 0.38894 0.12827 0.0
C823 C 0.84289 0.41285 0.13298 0.0
C824 C 0.83125 0.40584 0.11917 0.0
C825 C 0.85624 0.40432 0.13775 0.0
H826 H 0.84649 0.37041 0.10728 0.0
H827 H 0.82064 0.41208 0.11561 0.0
C828 C 0.77001 0.36073 0.04832 0.0
N829 N 0.74933 0.35468 0.02022 0.0
C830 C 0.7648 0.34224 0.03937 0.0
C831 C 0.76425 0.3759 0.04309 0.0
C832 C 0.75449 0.33955 0.02516 0.0
C833 C 0.75392 0.37262 0.02883 0.0
C834 C 0.82478 0.34689 0.07551 0.0
C835 C 0.83348 0.34418 0.06181 0.0
C836 C 0.82009 0.33211 0.0876 0.0
C837 C 0.83705 0.32648 0.06036 0.0
C838 C 0.82385 0.31462 0.0857 0.0
N839 N 0.83217 0.31218 0.07223 0.0
C840 C 0.84666 0.41437 0.04389 0.0
C841 C 0.82302 0.37865 0.03322 0.0
C842 C 0.85727 0.42256 0.02977 0.0
N843 N 0.82945 0.39291 0.04524 0.0
C844 C 0.83324 0.38607 0.01894 0.0
C845 C 0.85035 0.4084 0.01701 0.0
H846 H 0.85194 0.42524 0.05371 0.0
H847 H 0.80987 0.3615 0.03472 0.0
C848 C 0.75001 0.30779 0.08642 0.0
N849 N 0.76859 0.31708 0.0773 0.0
C850 C 0.73327 0.28551 0.0847 0.0
C851 C 0.75551 0.28248 0.06461 0.0
C852 C 0.77177 0.30489 0.06666 0.0
C853 C 0.73563 0.27265 0.07342 0.0
H854 H 0.74765 0.31797 0.09454 0.0
H855 H 0.78636 0.31276 0.05925 0.0
O856 O 0.8166 0.40498 0.07948 0.0
O857 O 0.78134 0.36157 0.09636 0.0
O858 O 0.77988 0.36347 0.06237 0.0
O859 O 0.82114 0.36409 0.07711 0.0
H860 H 0.83756 0.44138 0.09635 0.0
H861 H 0.80532 0.41498 0.05304 0.0
H862 H 0.84405 0.47814 0.08864 0.0
H863 H 0.81216 0.45212 0.0461 0.0
H864 H 0.78416 0.33406 0.14281 0.0
H865 H 0.7725 0.38714 0.11346 0.0
H866 H 0.78625 0.33423 0.11445 0.0
H867 H 0.7704 0.38591 0.14182 0.0
H868 H 0.75393 0.43101 0.09481 0.0
H869 H 0.70574 0.36522 0.07813 0.0
H870 H 0.86797 0.38218 0.13138 0.0
H871 H 0.84103 0.42446 0.14001 0.0
H872 H 0.76891 0.33021 0.04325 0.0
H873 H 0.76744 0.38994 0.05001 0.0
H874 H 0.75058 0.32542 0.01806 0.0
H875 H 0.74945 0.38428 0.02464 0.0
H876 H 0.83748 0.35561 0.0524 0.0
H877 H 0.81346 0.33404 0.0983 0.0
H878 H 0.8437 0.32413 0.0498 0.0
H879 H 0.82016 0.30297 0.09494 0.0
H880 H 0.87073 0.43977 0.02885 0.0
H881 H 0.82739 0.37458 0.00942 0.0
H882 H 0.7181 0.27881 0.09157 0.0
H883 H 0.75815 0.27316 0.05588 0.0
Li884 Li 0.47342 0.8254 0.26529 0.0
Li885 Li 0.43925 0.80093 0.25238 0.0
Li886 Li 0.47309 0.79806 0.24903 0.0
Li887 Li 0.47235 0.83119 0.2388 0.0
C888 C 0.44264 0.78621 0.28087 0.0
N889 N 0.4175 0.77258 0.30753 0.0
C890 C 0.43351 0.79831 0.28678 0.0
C891 C 0.43894 0.76716 0.28849 0.0
C892 C 0.42087 0.79115 0.30028 0.0
C893 C 0.4262 0.76055 0.30196 0.0
C894 C 0.43953 0.83997 0.24865 0.0
C895 C 0.41561 0.83851 0.22811 0.0
N896 N 0.41155 0.85275 0.23594 0.0
C897 C 0.43509 0.85457 0.2565 0.0
C898 C 0.42968 0.83183 0.23435 0.0
C899 C 0.42091 0.86084 0.24988 0.0
C900 C 0.48651 0.86079 0.28559 0.0
N901 N 0.48459 0.84068 0.28419 0.0
C902 C 0.49467 0.84143 0.3104 0.0
C903 C 0.48889 0.83105 0.29612 0.0
C904 C 0.49621 0.86196 0.3123 0.0
C905 C 0.49245 0.87184 0.2996 0.0
H906 H 0.4829 0.86797 0.27589 0.0
H907 H 0.48728 0.81505 0.29465 0.0
C908 C 0.39982 0.761 0.2482 0.0
N909 N 0.40756 0.78197 0.25321 0.0
C910 C 0.37704 0.74482 0.24949 0.0
C911 C 0.37052 0.77215 0.26108 0.0
C912 C 0.39351 0.78789 0.2595 0.0
C913 C 0.3621 0.7502 0.25622 0.0
H914 H 0.41149 0.75676 0.24344 0.0
H915 H 0.40021 0.80458 0.26372 0.0
C916 C 0.51532 0.84403 0.25808 0.0
N917 N 0.55166 0.87226 0.27618 0.0
C918 C 0.52408 0.86691 0.25758 0.0
C919 C 0.5251 0.83549 0.26768 0.0
C920 C 0.54245 0.88091 0.26685 0.0
C921 C 0.54346 0.85005 0.27677 0.0
C922 C 0.44891 0.78931 0.21942 0.0
C923 C 0.46566 0.7874 0.21196 0.0
C924 C 0.42776 0.78059 0.21258 0.0
C925 C 0.46098 0.77679 0.19778 0.0
C926 C 0.42374 0.77012 0.19837 0.0
N927 N 0.44029 0.76844 0.19133 0.0
C928 C 0.46145 0.75505 0.24509 0.0
C929 C 0.50067 0.7798 0.24118 0.0
C930 C 0.46326 0.73701 0.24086 0.0
N931 N 0.4799 0.77589 0.24498 0.0
C932 C 0.50329 0.76212 0.2369 0.0
C933 C 0.48431 0.74044 0.23647 0.0
H934 H 0.44519 0.75257 0.24815 0.0
H935 H 0.515 0.79664 0.24105 0.0
C936 C 0.48245 0.8716 0.22464 0.0
N937 N 0.48138 0.85198 0.22236 0.0
C938 C 0.48687 0.88608 0.21239 0.0
C939 C 0.4903 0.86049 0.19589 0.0
C940 C 0.48576 0.84652 0.20842 0.0
C941 C 0.49042 0.88036 0.1977 0.0
H942 H 0.47934 0.87579 0.23591 0.0
H943 H 0.4855 0.83122 0.20697 0.0
O944 O 0.455 0.79275 0.26763 0.0
O945 O 0.45332 0.83369 0.25513 0.0
O946 O 0.497 0.83003 0.24941 0.0
O947 O 0.45298 0.79919 0.2335 0.0
H948 H 0.43614 0.81307 0.28105 0.0
H949 H 0.44585 0.75759 0.28403 0.0
H950 H 0.41373 0.80036 0.30498 0.0
H951 H 0.42321 0.74584 0.30799 0.0
H952 H 0.40793 0.83237 0.21703 0.0
H953 H 0.44252 0.86096 0.26761 0.0
H954 H 0.43292 0.82061 0.22807 0.0
H955 H 0.41734 0.87213 0.25583 0.0
H956 H 0.49764 0.83337 0.31989 0.0
H957 H 0.49323 0.88754 0.30063 0.0
H958 H 0.37125 0.7282 0.2454 0.0
H959 H 0.35964 0.77693 0.26653 0.0
H960 H 0.5166 0.87372 0.25023 0.0
H961 H 0.5184 0.81778 0.26822 0.0
H962 H 0.54933 0.89864 0.26667 0.0
H963 H 0.55113 0.84368 0.28433 0.0
H964 H 0.48221 0.79428 0.21699 0.0
H965 H 0.41457 0.78189 0.21816 0.0
H966 H 0.47382 0.77525 0.19188 0.0
H967 H 0.40745 0.7633 0.19295 0.0
H968 H 0.44829 0.72054 0.24092 0.0
H969 H 0.51978 0.76546 0.2335 0.0
H970 H 0.48678 0.90121 0.21433 0.0
H971 H 0.49355 0.8557 0.18486 0.0
H972 H 0.1742 0.59695 0.30961 0.0
H973 H 0.21221 0.62577 0.30174 0.0
H974 H 0.187 0.62899 0.25734 0.0
H975 H 0.14894 0.59974 0.26499 0.0
H976 H 0.22813 0.62911 0.2567 0.0
H977 H 0.23132 0.69171 0.29685 0.0
H978 H 0.22429 0.66585 0.30568 0.0
H979 H 0.20535 0.6665 0.29198 0.0
C980 C 0.1768 0.60351 0.29808 0.0
C981 C 0.15858 0.59614 0.28793 0.0
C982 C 0.19846 0.62015 0.29367 0.0
C983 C 0.20226 0.62974 0.27907 0.0
C984 C 0.18431 0.6219 0.26871 0.0
H985 H 0.32456 0.75329 0.25246 0.0
H986 H 0.28511 0.7242 0.25693 0.0
C987 C 0.16261 0.60528 0.27311 0.0
C988 C 0.22495 0.64816 0.2747 0.0
H989 H 0.26567 0.70099 0.28442 0.0
C990 C 0.23632 0.64488 0.26268 0.0
C991 C 0.23536 0.66881 0.28238 0.0
C992 C 0.22341 0.67359 0.29485 0.0
C993 C 0.25823 0.66152 0.25846 0.0
C994 C 0.26903 0.6818 0.26661 0.0
C995 C 0.25737 0.68534 0.27829 0.0
C996 C 0.29274 0.69924 0.26358 0.0
C997 C 0.26963 0.6573 0.24531 0.0
C998 C 0.31002 0.69487 0.26609 0.0
C999 C 0.33248 0.71142 0.26366 0.0
C1000 C 0.33813 0.73271 0.25871 0.0
C1001 C 0.32077 0.73711 0.25635 0.0
C1002 C 0.29825 0.72051 0.25881 0.0
H1003 H 0.25719 0.64385 0.23774 0.0
H1004 H 0.27983 0.67256 0.23837 0.0
H1005 H 0.28111 0.65212 0.24991 0.0
H1006 H 0.30614 0.67873 0.27015 0.0
H1007 H 0.34547 0.70763 0.26593 0.0
H1008 H 0.55152 0.14931 0.44023 0.0
H1009 H 0.56121 0.18669 0.43252 0.0
H1010 H 0.58133 0.20962 0.47883 0.0
H1011 H 0.57199 0.17241 0.48653 0.0
H1012 H 0.5439 0.21134 0.44247 0.0
H1013 H 0.63554 0.25539 0.45484 0.0
H1014 H 0.61817 0.2255 0.45419 0.0
H1015 H 0.61844 0.24035 0.47102 0.0
C1016 C 0.55809 0.16237 0.44873 0.0
C1017 C 0.56118 0.15803 0.46395 0.0
C1018 C 0.56364 0.18369 0.44432 0.0
C1019 C 0.57235 0.20102 0.45504 0.0
C1020 C 0.57522 0.19665 0.47027 0.0
H1021 H 0.60087 0.33604 0.45396 0.0
H1022 H 0.5898 0.29794 0.46084 0.0
C1023 C 0.56985 0.17539 0.47467 0.0
C1024 C 0.57776 0.22349 0.4504 0.0
H1025 H 0.62002 0.27805 0.44983 0.0
C1026 C 0.56058 0.2259 0.44398 0.0
C1027 C 0.59957 0.24246 0.45233 0.0
C1028 C 0.61904 0.24082 0.45833 0.0
C1029 C 0.56456 0.24684 0.43972 0.0
C1030 C 0.58619 0.26575 0.44197 0.0
C1031 C 0.6034 0.26341 0.44827 0.0
C1032 C 0.5914 0.28816 0.43766 0.0
C1033 C 0.54566 0.24881 0.43302 0.0
C1034 C 0.59578 0.29504 0.42234 0.0
C1035 C 0.60216 0.31674 0.41838 0.0
C1036 C 0.60414 0.33185 0.42969 0.0
C1037 C 0.59922 0.32469 0.44499 0.0
C1038 C 0.59303 0.30303 0.44895 0.0
H1039 H 0.52928 0.23277 0.43325 0.0
H1040 H 0.54385 0.2614 0.43942 0.0
H1041 H 0.54977 0.25455 0.42097 0.0
H1042 H 0.59465 0.28372 0.41351 0.0
H1043 H 0.60569 0.32178 0.40649 0.0
H1044 H 0.48015 0.58136 0.619 0.0
H1045 H 0.45422 0.59332 0.61077 0.0
H1046 H 0.40039 0.53956 0.63642 0.0
H1047 H 0.4261 0.52755 0.64468 0.0
H1048 H 0.40872 0.56225 0.59496 0.0
H1049 H 0.4038 0.59965 0.64979 0.0
H1050 H 0.42758 0.59693 0.64488 0.0
H1051 H 0.4015 0.57303 0.65091 0.0
C1052 C 0.46284 0.57226 0.62298 0.0
C1053 C 0.4551 0.55351 0.63244 0.0
C1054 C 0.44807 0.57903 0.61823 0.0
C1055 C 0.4255 0.56735 0.62307 0.0
C1056 C 0.41781 0.54883 0.63265 0.0
H1057 H 0.30798 0.57819 0.61296 0.0
H1058 H 0.33582 0.56842 0.61997 0.0
C1059 C 0.43246 0.54193 0.63728 0.0
C1060 C 0.40963 0.57401 0.61781 0.0
H1061 H 0.37834 0.59555 0.63029 0.0
C1062 C 0.40216 0.5697 0.6026 0.0
C1063 C 0.40107 0.58351 0.6279 0.0
C1064 C 0.40893 0.58874 0.64428 0.0
C1065 C 0.38581 0.57415 0.59729 0.0
C1066 C 0.37719 0.58368 0.60739 0.0
C1067 C 0.38492 0.58821 0.62257 0.0
C1068 C 0.35997 0.5889 0.60255 0.0
C1069 C 0.37739 0.56789 0.58108 0.0
C1070 C 0.36428 0.60365 0.59042 0.0
C1071 C 0.34823 0.609 0.58622 0.0
C1072 C 0.32766 0.59995 0.59421 0.0
C1073 C 0.32343 0.58517 0.60637 0.0
C1074 C 0.33943 0.57972 0.61049 0.0
H1075 H 0.38075 0.55522 0.57641 0.0
H1076 H 0.35899 0.5613 0.58039 0.0
H1077 H 0.38625 0.58284 0.57368 0.0
H1078 H 0.38019 0.6113 0.58433 0.0
H1079 H 0.35199 0.62026 0.5767 0.0
H1080 H 0.94368 0.4532 0.77413 0.0
H1081 H 0.90894 0.42188 0.76371 0.0
H1082 H 0.87043 0.4296 0.79931 0.0
H1083 H 0.90507 0.4608 0.80986 0.0
H1084 H 0.87931 0.38242 0.77884 0.0
H1085 H 0.83586 0.42599 0.76037 0.0
H1086 H 0.86562 0.44051 0.7647 0.0
H1087 H 0.84519 0.43136 0.7799 0.0
C1088 C 0.9278 0.44827 0.77971 0.0
C1089 C 0.92712 0.45949 0.79282 0.0
C1090 C 0.90798 0.43044 0.77371 0.0
C1091 C 0.88712 0.4236 0.78064 0.0
C1092 C 0.88632 0.43492 0.7936 0.0
H1093 H 0.76208 0.29821 0.77896 0.0
H1094 H 0.79964 0.32992 0.78443 0.0
C1095 C 0.90612 0.45276 0.79961 0.0
C1096 C 0.86631 0.40388 0.77483 0.0
H1097 H 0.81344 0.38642 0.76157 0.0
C1098 C 0.86497 0.3833 0.77493 0.0
C1099 C 0.84776 0.40514 0.76956 0.0
C1100 C 0.84868 0.42697 0.76846 0.0
C1101 C 0.84525 0.36379 0.77035 0.0
C1102 C 0.82632 0.36491 0.76578 0.0
C1103 C 0.82793 0.38559 0.7652 0.0
C1104 C 0.80443 0.34477 0.76199 0.0
C1105 C 0.84485 0.34219 0.77044 0.0
C1106 C 0.79464 0.34264 0.74758 0.0
C1107 C 0.77317 0.32452 0.74441 0.0
C1108 C 0.76103 0.30825 0.75565 0.0
C1109 C 0.77113 0.31021 0.76997 0.0
C1110 C 0.79259 0.32835 0.77312 0.0
H1111 H 0.86216 0.34501 0.76996 0.0
H1112 H 0.83678 0.33305 0.78118 0.0
H1113 H 0.835 0.33154 0.76064 0.0
H1114 H 0.80351 0.35518 0.73885 0.0
H1115 H 0.76594 0.32337 0.73322 0.0
H1116 H 0.47316 0.89901 0.93396 0.0
H1117 H 0.47378 0.86553 0.92772 0.0
H1118 H 0.43917 0.83525 0.97 0.0
H1119 H 0.4392 0.86899 0.97658 0.0
H1120 H 0.47832 0.83459 0.96603 0.0
H1121 H 0.42524 0.80371 0.91388 0.0
H1122 H 0.44731 0.83239 0.91284 0.0
H1123 H 0.42494 0.82375 0.92658 0.0
C1124 C 0.4654 0.88509 0.94182 0.0
C1125 C 0.45616 0.88663 0.95577 0.0
C1126 C 0.46559 0.86591 0.93818 0.0
C1127 C 0.45636 0.84787 0.94835 0.0
C1128 C 0.44629 0.84899 0.96198 0.0
H1129 H 0.4476 0.7218 0.95263 0.0
H1130 H 0.44815 0.75598 0.95807 0.0
C1131 C 0.44612 0.86818 0.96565 0.0
C1132 C 0.459 0.82867 0.94542 0.0
H1133 H 0.44674 0.78723 0.91994 0.0
C1134 C 0.47132 0.82415 0.956 0.0
C1135 C 0.45001 0.81524 0.93225 0.0
C1136 C 0.43596 0.81885 0.9208 0.0
C1137 C 0.47501 0.8066 0.95372 0.0
C1138 C 0.46595 0.79313 0.94059 0.0
C1139 C 0.45379 0.79774 0.92994 0.0
C1140 C 0.46785 0.77345 0.93808 0.0
C1141 C 0.48879 0.80275 0.96526 0.0
C1142 C 0.47891 0.77204 0.92507 0.0
C1143 C 0.47882 0.75254 0.92197 0.0
C1144 C 0.46746 0.73406 0.93177 0.0
C1145 C 0.45697 0.73585 0.94503 0.0
C1146 C 0.45715 0.75534 0.94813 0.0
H1147 H 0.49931 0.81771 0.97239 0.0
H1148 H 0.47727 0.78895 0.97299 0.0
H1149 H 0.49998 0.79803 0.95949 0.0
H1150 H 0.48723 0.78588 0.91717 0.0
H1151 H 0.48717 0.75174 0.91173 0.0
H1152 H 0.60938 0.47634 0.13348 0.0
H1153 H 0.63488 0.46432 0.12485 0.0
H1154 H 0.57804 0.40217 0.10957 0.0
H1155 H 0.55229 0.41423 0.11803 0.0
H1156 H 0.63368 0.4241 0.13465 0.0
H1157 H 0.62244 0.42842 0.07189 0.0
H1158 H 0.61527 0.44294 0.08562 0.0
H1159 H 0.5973 0.41348 0.08336 0.0
C1160 C 0.6023 0.4602 0.12813 0.0
C1161 C 0.57886 0.44628 0.12629 0.0
C1162 C 0.61687 0.45333 0.1233 0.0
C1163 C 0.60831 0.43249 0.11646 0.0
C1164 C 0.58493 0.41843 0.11468 0.0
H1165 H 0.68688 0.37003 0.10031 0.0
H1166 H 0.65673 0.37685 0.10698 0.0
C1167 C 0.57027 0.42526 0.1196 0.0
C1168 C 0.62404 0.42552 0.11147 0.0
H1169 H 0.64707 0.41662 0.07977 0.0
C1170 C 0.63652 0.42229 0.12267 0.0
C1171 C 0.62777 0.42343 0.09582 0.0
C1172 C 0.61515 0.42736 0.08341 0.0
C1173 C 0.65282 0.41712 0.11861 0.0
C1174 C 0.65656 0.41502 0.10296 0.0
C1175 C 0.64401 0.41815 0.09176 0.0
C1176 C 0.67406 0.41037 0.09806 0.0
C1177 C 0.66637 0.41454 0.13104 0.0
C1178 C 0.69349 0.42682 0.09054 0.0
C1179 C 0.71071 0.42298 0.08667 0.0
C1180 C 0.70866 0.40252 0.09015 0.0
C1181 C 0.68887 0.38588 0.09735 0.0
C1182 C 0.67171 0.38978 0.10127 0.0
H1183 H 0.66428 0.42063 0.14228 0.0
H1184 H 0.66072 0.39671 0.13227 0.0
H1185 H 0.68457 0.42369 0.12801 0.0
H1186 H 0.69551 0.4428 0.08794 0.0
H1187 H 0.72565 0.436 0.08098 0.0
H1188 H 0.43125 0.92943 0.50356 0.0
H1189 H 0.40595 0.89178 0.51309 0.0
H1190 H 0.45884 0.89747 0.54219 0.0
H1191 H 0.48421 0.9355 0.53296 0.0
H1192 H 0.41103 0.85445 0.51244 0.0
H1193 H 0.40562 0.87969 0.57187 0.0
H1194 H 0.41655 0.8992 0.55617 0.0
H1195 H 0.43356 0.88965 0.56464 0.0
C1196 C 0.43748 0.92273 0.51206 0.0
C1197 C 0.45964 0.93551 0.51764 0.0
C1198 C 0.42305 0.90118 0.51742 0.0
C1199 C 0.43043 0.892 0.52851 0.0
C1200 C 0.45273 0.90442 0.53381 0.0
H1201 H 0.35429 0.76363 0.57493 0.0
H1202 H 0.38405 0.80068 0.56664 0.0
C1203 C 0.46725 0.92603 0.52842 0.0
C1204 C 0.41453 0.86946 0.53451 0.0
H1205 H 0.38525 0.84134 0.5665 0.0
C1206 C 0.40545 0.85155 0.52427 0.0
C1207 C 0.40736 0.86577 0.54996 0.0
C1208 C 0.41609 0.88457 0.56132 0.0
C1209 C 0.38924 0.83 0.52905 0.0
C1210 C 0.38162 0.8264 0.5444 0.0
C1211 C 0.3911 0.84421 0.55473 0.0
C1212 C 0.36339 0.80436 0.54981 0.0
C1213 C 0.38048 0.81127 0.51763 0.0
C1214 C 0.34177 0.79446 0.54337 0.0
C1215 C 0.32472 0.77339 0.54812 0.0
C1216 C 0.32893 0.76186 0.5595 0.0
C1217 C 0.35044 0.77214 0.56625 0.0
C1218 C 0.3675 0.79324 0.56147 0.0
H1219 H 0.39223 0.81552 0.50781 0.0
H1220 H 0.3778 0.79584 0.52309 0.0
H1221 H 0.36407 0.80787 0.51308 0.0
H1222 H 0.33811 0.80303 0.53461 0.0
H1223 H 0.30823 0.76611 0.54289 0.0
H1224 H 0.58583 0.45868 0.69688 0.0
H1225 H 0.59579 0.43198 0.70597 0.0
H1226 H 0.53743 0.37907 0.6832 0.0
H1227 H 0.52787 0.40569 0.67358 0.0
H1228 H 0.5706 0.39523 0.72445 0.0
H1229 H 0.58759 0.36999 0.66836 0.0
H1230 H 0.5855 0.39432 0.67062 0.0
H1231 H 0.56041 0.36721 0.66941 0.0
C1232 C 0.57534 0.44142 0.69359 0.0
C1233 C 0.55609 0.43432 0.68448 0.0
C1234 C 0.58096 0.42618 0.69888 0.0
C1235 C 0.56752 0.40362 0.69508 0.0
C1236 C 0.54828 0.39647 0.68602 0.0
H1237 H 0.56374 0.28266 0.71881 0.0
H1238 H 0.55559 0.31075 0.71002 0.0
C1239 C 0.54268 0.41168 0.6807 0.0
C1240 C 0.57312 0.38737 0.70099 0.0
H1241 H 0.58426 0.34761 0.68984 0.0
C1242 C 0.57377 0.38494 0.7169 0.0
C1243 C 0.57723 0.37398 0.69109 0.0
C1244 C 0.57788 0.37661 0.67393 0.0
C1245 C 0.5779 0.36905 0.72318 0.0
C1246 C 0.58167 0.35546 0.71327 0.0
C1247 C 0.5812 0.358 0.69738 0.0
C1248 C 0.58628 0.33854 0.71914 0.0
C1249 C 0.57771 0.36656 0.74034 0.0
C1250 C 0.60626 0.34495 0.72711 0.0
C1251 C 0.61107 0.32899 0.73203 0.0
C1252 C 0.59598 0.30632 0.72902 0.0
C1253 C 0.57584 0.29998 0.72115 0.0
C1254 C 0.5711 0.31597 0.71619 0.0
H1255 H 0.56987 0.37488 0.7462 0.0
H1256 H 0.56843 0.34874 0.74364 0.0
H1257 H 0.59531 0.37417 0.74448 0.0
H1258 H 0.61836 0.36234 0.72925 0.0
H1259 H 0.62692 0.33449 0.7378 0.0
H1260 H 0.15053 0.60147 0.84703 0.0
H1261 H 0.18753 0.60852 0.85487 0.0
H1262 H 0.16184 0.585 0.90036 0.0
H1263 H 0.12458 0.5773 0.8924 0.0
H1264 H 0.21851 0.63298 0.8765 0.0
H1265 H 0.18209 0.54305 0.88746 0.0
H1266 H 0.16636 0.5537 0.87829 0.0
H1267 H 0.1695 0.55503 0.89877 0.0
C1268 C 0.15294 0.59827 0.85878 0.0
C1269 C 0.13475 0.5887 0.8691 0.0
C1270 C 0.17403 0.60221 0.86324 0.0
C1271 C 0.17725 0.59675 0.87809 0.0
C1272 C 0.15952 0.58873 0.88873 0.0
H1273 H 0.3089 0.6295 0.91322 0.0
H1274 H 0.27353 0.62829 0.90838 0.0
C1275 C 0.13834 0.58449 0.88422 0.0
C1276 C 0.1987 0.59817 0.88206 0.0
H1277 H 0.22053 0.56692 0.89366 0.0
C1278 C 0.219 0.61857 0.88028 0.0
C1279 C 0.19926 0.57921 0.88669 0.0
C1280 C 0.17818 0.55646 0.88778 0.0
C1281 C 0.23989 0.62054 0.88304 0.0
C1282 C 0.24039 0.60172 0.88811 0.0
C1283 C 0.22008 0.58135 0.88989 0.0
C1284 C 0.26178 0.60252 0.89118 0.0
C1285 C 0.26118 0.64258 0.88001 0.0
C1286 C 0.26654 0.58789 0.88353 0.0
C1287 C 0.28651 0.58829 0.88649 0.0
C1288 C 0.30212 0.60342 0.89707 0.0
C1289 C 0.29726 0.61791 0.90483 0.0
C1290 C 0.27715 0.61732 0.90201 0.0
H1291 H 0.2581 0.65312 0.87215 0.0
H1292 H 0.26757 0.65168 0.89097 0.0
H1293 H 0.27451 0.64024 0.87497 0.0
H1294 H 0.25486 0.57626 0.87518 0.0
H1295 H 0.28994 0.57703 0.8803 0.0
H1296 H 0.57036 0.07157 0.04911 0.0
H1297 H 0.60154 0.10561 0.06014 0.0
H1298 H 0.58837 0.14474 0.02871 0.0
H1299 H 0.55725 0.11072 0.01749 0.0
H1300 H 0.63924 0.1366 0.04277 0.0
H1301 H 0.59615 0.17554 0.07049 0.0
H1302 H 0.58158 0.14645 0.06548 0.0
H1303 H 0.58796 0.16704 0.05101 0.0
C1304 C 0.57398 0.08744 0.04464 0.0
C1305 C 0.56148 0.0885 0.03236 0.0
C1306 C 0.59171 0.10684 0.05099 0.0
C1307 C 0.59713 0.12764 0.04529 0.0
C1308 C 0.58417 0.12882 0.03343 0.0
H1309 H 0.72105 0.25333 0.04534 0.0
H1310 H 0.68806 0.21708 0.03955 0.0
C1311 C 0.56641 0.10939 0.02705 0.0
C1312 C 0.61756 0.14793 0.05082 0.0
H1313 H 0.6361 0.19815 0.06773 0.0
C1314 C 0.63856 0.14999 0.04835 0.0
C1315 C 0.61655 0.16525 0.05817 0.0
C1316 C 0.59435 0.16347 0.06159 0.0
C1317 C 0.65868 0.16923 0.05266 0.0
C1318 C 0.65771 0.18685 0.05951 0.0
C1319 C 0.63671 0.18458 0.06239 0.0
C1320 C 0.67839 0.20814 0.0632 0.0
C1321 C 0.68084 0.17064 0.0498 0.0
C1322 C 0.68384 0.21503 0.07845 0.0
C1323 C 0.70289 0.23566 0.08184 0.0
C1324 C 0.71664 0.24985 0.07002 0.0
C1325 C 0.71118 0.24268 0.05475 0.0
C1326 C 0.69224 0.22202 0.0514 0.0
H1327 H 0.6785 0.15402 0.04769 0.0
H1328 H 0.68906 0.18114 0.03957 0.0
H1329 H 0.69238 0.17841 0.05968 0.0
H1330 H 0.6733 0.20447 0.0877 0.0
H1331 H 0.70674 0.24056 0.09371 0.0
H1332 H 0.46649 0.56574 0.17559 0.0
H1333 H 0.46382 0.59693 0.18535 0.0
H1334 H 0.51952 0.61469 0.21579 0.0
H1335 H 0.5221 0.58346 0.20631 0.0
H1336 H 0.45855 0.60772 0.21688 0.0
H1337 H 0.53912 0.67163 0.18979 0.0
H1338 H 0.52422 0.64285 0.184 0.0
H1339 H 0.5406 0.65125 0.20126 0.0
C1340 C 0.47795 0.5761 0.18451 0.0
C1341 C 0.49467 0.57229 0.19006 0.0
C1342 C 0.47648 0.59395 0.19001 0.0
C1343 C 0.49175 0.60829 0.20106 0.0
C1344 C 0.5079 0.60406 0.20702 0.0
H1345 H 0.51659 0.73057 0.2437 0.0
H1346 H 0.51829 0.69821 0.23542 0.0
C1347 C 0.50935 0.58624 0.20157 0.0
C1348 C 0.49106 0.62788 0.20626 0.0
H1349 H 0.5213 0.68458 0.20622 0.0
C1350 C 0.4722 0.62454 0.21453 0.0
C1351 C 0.50899 0.64975 0.20321 0.0
C1352 C 0.52933 0.65421 0.19398 0.0
C1353 C 0.47093 0.64256 0.22003 0.0
C1354 C 0.48878 0.66446 0.21687 0.0
C1355 C 0.50767 0.66777 0.20864 0.0
C1356 C 0.48796 0.68417 0.22172 0.0
C1357 C 0.45069 0.63797 0.22945 0.0
C1358 C 0.47069 0.68723 0.21646 0.0
C1359 C 0.46969 0.70561 0.22115 0.0
C1360 C 0.48608 0.72143 0.2311 0.0
C1361 C 0.50377 0.71869 0.236 0.0
C1362 C 0.5047 0.70019 0.23134 0.0
H1363 H 0.44199 0.621 0.23447 0.0
H1364 H 0.45561 0.65021 0.23887 0.0
H1365 H 0.43846 0.63923 0.22201 0.0
H1366 H 0.45799 0.67541 0.20867 0.0
H1367 H 0.45614 0.70753 0.2169 0.0
H1368 H 0.95603 0.52729 0.37003 0.0
H1369 H 0.91974 0.52115 0.37878 0.0
H1370 H 0.88511 0.46565 0.34799 0.0
H1371 H 0.92138 0.47199 0.33883 0.0
H1372 H 0.88584 0.52071 0.35773 0.0
H1373 H 0.85428 0.44289 0.39137 0.0
H1374 H 0.88389 0.46156 0.38731 0.0
H1375 H 0.86537 0.44375 0.37257 0.0
C1376 C 0.94071 0.51378 0.36508 0.0
C1377 C 0.94162 0.50021 0.35365 0.0
C1378 C 0.92002 0.51025 0.37017 0.0
C1379 C 0.89984 0.49292 0.36407 0.0
C1380 C 0.90056 0.47896 0.35295 0.0
H1381 H 0.75903 0.44766 0.37962 0.0
H1382 H 0.79492 0.45224 0.37141 0.0
C1383 C 0.92129 0.48255 0.34778 0.0
C1384 C 0.87811 0.49024 0.36879 0.0
H1385 H 0.82954 0.45621 0.38841 0.0
C1386 C 0.87351 0.50665 0.36447 0.0
C1387 C 0.86212 0.47181 0.37747 0.0
C1388 C 0.86658 0.454 0.38258 0.0
C1389 C 0.85309 0.50499 0.36846 0.0
C1390 C 0.83717 0.4867 0.37736 0.0
C1391 C 0.84179 0.47025 0.38163 0.0
C1392 C 0.81552 0.48421 0.38227 0.0
C1393 C 0.84857 0.52254 0.36277 0.0
C1394 C 0.8152 0.5006 0.39122 0.0
C1395 C 0.7947 0.49808 0.39586 0.0
C1396 C 0.77419 0.47895 0.39184 0.0
C1397 C 0.77458 0.46247 0.38302 0.0
C1398 C 0.79505 0.46509 0.37828 0.0
H1399 H 0.8592 0.53153 0.35268 0.0
H1400 H 0.83057 0.51517 0.3596 0.0
H1401 H 0.85261 0.53489 0.37197 0.0
H1402 H 0.83081 0.51523 0.39475 0.0
H1403 H 0.7949 0.51088 0.40283 0.0
H1404 H 0.04992 0.56723 0.40676 0.0
H1405 H 0.06672 0.57611 0.43238 0.0
H1406 H 0.09021 0.53081 0.42577 0.0
H1407 H 0.07364 0.52193 0.40024 0.0
H1408 H 0.07224 0.5285 0.45528 0.0
H1409 H 0.13545 0.6152 0.43799 0.0
H1410 H 0.10643 0.60683 0.43521 0.0
H1411 H 0.11842 0.59388 0.42425 0.0
C1412 C 0.05855 0.55907 0.41082 0.0
C1413 C 0.06049 0.54392 0.40145 0.0
C1414 C 0.06814 0.56417 0.42543 0.0
C1415 C 0.07999 0.55435 0.43085 0.0
C1416 C 0.08113 0.53855 0.4218 0.0
H1417 H 0.16833 0.56655 0.5039 0.0
H1418 H 0.14231 0.55485 0.48225 0.0
C1419 C 0.07152 0.53341 0.40723 0.0
C1420 C 0.09224 0.56125 0.44559 0.0
H1421 H 0.13711 0.60499 0.46336 0.0
C1422 C 0.08634 0.54525 0.45711 0.0
C1423 C 0.11065 0.58311 0.44789 0.0
C1424 C 0.11831 0.60075 0.43567 0.0
C1425 C 0.09846 0.55051 0.47088 0.0
C1426 C 0.11717 0.57223 0.47303 0.0
C1427 C 0.12273 0.58835 0.46166 0.0
C1428 C 0.13187 0.57842 0.48667 0.0
C1429 C 0.09112 0.5328 0.483 0.0
C1430 C 0.13491 0.5958 0.49617 0.0
C1431 C 0.14994 0.60268 0.50845 0.0
C1432 C 0.16236 0.59241 0.51138 0.0
C1433 C 0.15914 0.5749 0.50188 0.0
C1434 C 0.14408 0.56801 0.48962 0.0
H1435 H 0.07321 0.5194 0.48153 0.0
H1436 H 0.10164 0.5252 0.48214 0.0
H1437 H 0.0933 0.53994 0.49465 0.0
H1438 H 0.12582 0.6042 0.49398 0.0
H1439 H 0.15227 0.61644 0.51539 0.0
H1440 H 0.51422 0.07446 0.5708 0.0
H1441 H 0.52401 0.0863 0.59731 0.0
H1442 H 0.53831 0.03444 0.60507 0.0
H1443 H 0.52793 0.02196 0.57854 0.0
H1444 H 0.50748 0.06057 0.62687 0.0
H1445 H 0.5986 0.09585 0.61374 0.0
H1446 H 0.57811 0.0896 0.59887 0.0
H1447 H 0.57887 0.06749 0.60845 0.0
C1448 C 0.51879 0.0651 0.57821 0.0
C1449 C 0.5203 0.04724 0.57251 0.0
C1450 C 0.52453 0.07201 0.59335 0.0
C1451 C 0.53205 0.06136 0.60305 0.0
C1452 C 0.53273 0.04297 0.59766 0.0
H1453 H 0.60289 0.12112 0.68915 0.0
H1454 H 0.58503 0.09422 0.66833 0.0
C1455 C 0.52687 0.03594 0.58251 0.0
C1456 C 0.54061 0.07065 0.61841 0.0
H1457 H 0.58953 0.10317 0.63799 0.0
C1458 C 0.52538 0.06963 0.62943 0.0
C1459 C 0.56395 0.08231 0.62168 0.0
C1460 C 0.58096 0.08408 0.6101 0.0
C1461 C 0.53298 0.08057 0.64352 0.0
C1462 C 0.55644 0.09332 0.64645 0.0
C1463 C 0.57156 0.09344 0.63571 0.0
C1464 C 0.5658 0.10827 0.65987 0.0
C1465 C 0.5158 0.07854 0.65505 0.0
C1466 C 0.56099 0.12512 0.66197 0.0
C1467 C 0.57101 0.14036 0.67387 0.0
C1468 C 0.58634 0.1393 0.68382 0.0
C1469 C 0.591 0.12227 0.68178 0.0
C1470 C 0.58089 0.10695 0.66986 0.0
H1471 H 0.49945 0.06269 0.6536 0.0
H1472 H 0.52178 0.07942 0.66696 0.0
H1473 H 0.5127 0.09233 0.6533 0.0
H1474 H 0.54985 0.12683 0.65418 0.0
H1475 H 0.56679 0.15306 0.67522 0.0
H1476 H 0.52171 0.55927 0.73009 0.0
H1477 H 0.51352 0.5674 0.75554 0.0
H1478 H 0.4468 0.54935 0.74087 0.0
H1479 H 0.4552 0.54207 0.71504 0.0
H1480 H 0.46768 0.58744 0.75882 0.0
H1481 H 0.47291 0.51909 0.78598 0.0
H1482 H 0.4978 0.53821 0.77544 0.0
H1483 H 0.47154 0.52157 0.7655 0.0
C1484 C 0.50544 0.55745 0.73214 0.0
C1485 C 0.4891 0.55004 0.7205 0.0
C1486 C 0.50069 0.5618 0.74677 0.0
C1487 C 0.47942 0.55852 0.75015 0.0
C1488 C 0.46326 0.55177 0.7385 0.0
H1489 H 0.42401 0.54652 0.84098 0.0
H1490 H 0.4324 0.54031 0.81492 0.0
C1491 C 0.46804 0.54751 0.72379 0.0
C1492 C 0.47401 0.56191 0.7659 0.0
H1493 H 0.47081 0.54451 0.80277 0.0
C1494 C 0.46827 0.57802 0.76844 0.0
C1495 C 0.4745 0.54934 0.77836 0.0
C1496 C 0.4793 0.53093 0.77621 0.0
C1497 C 0.46338 0.5822 0.7832 0.0
C1498 C 0.46473 0.57022 0.79573 0.0
C1499 C 0.47008 0.55384 0.79315 0.0
C1500 C 0.46012 0.57405 0.8116 0.0
C1501 C 0.45646 0.59912 0.78519 0.0
C1502 C 0.47325 0.59495 0.81846 0.0
C1503 C 0.46838 0.59861 0.83329 0.0
C1504 C 0.45039 0.58134 0.84157 0.0
C1505 C 0.43774 0.56024 0.83482 0.0
C1506 C 0.44258 0.55663 0.81997 0.0
H1507 H 0.45047 0.60236 0.77427 0.0
H1508 H 0.44288 0.59355 0.79389 0.0
H1509 H 0.47122 0.61503 0.78911 0.0
H1510 H 0.48718 0.60849 0.8123 0.0
H1511 H 0.47832 0.61511 0.83811 0.0
H1512 H 0.96129 0.51591 0.89837 0.0
H1513 H 0.94228 0.49992 0.92268 0.0
H1514 H 0.89618 0.43838 0.89997 0.0
H1515 H 0.91497 0.45444 0.87542 0.0
H1516 H 0.87617 0.45496 0.92212 0.0
H1517 H 0.9486 0.45093 0.94513 0.0
H1518 H 0.95553 0.47744 0.93748 0.0
H1519 H 0.94513 0.45393 0.92496 0.0
C1520 C 0.9468 0.49913 0.89846 0.0
C1521 C 0.9395 0.48645 0.88497 0.0
C1522 C 0.93614 0.48995 0.91239 0.0
C1523 C 0.91804 0.46793 0.9131 0.0
C1524 C 0.91022 0.4554 0.89961 0.0
H1525 H 0.86344 0.38861 0.99587 0.0
H1526 H 0.87892 0.40222 0.97026 0.0
C1527 C 0.92096 0.46454 0.88564 0.0
C1528 C 0.90771 0.45791 0.92803 0.0
H1529 H 0.91917 0.4433 0.96257 0.0
C1530 C 0.88548 0.45229 0.93096 0.0
C1531 C 0.9199 0.45427 0.93943 0.0
C1532 C 0.94356 0.45926 0.93661 0.0
C1533 C 0.87527 0.44361 0.94521 0.0
C1534 C 0.88773 0.44068 0.95678 0.0
C1535 C 0.90975 0.44576 0.95369 0.0
C1536 C 0.87825 0.43247 0.97221 0.0
C1537 C 0.85121 0.43754 0.94776 0.0
C1538 C 0.8731 0.44517 0.98183 0.0
C1539 C 0.8643 0.43747 0.99645 0.0
C1540 C 0.86049 0.41692 0.00171 0.0
C1541 C 0.86593 0.40437 0.99208 0.0
C1542 C 0.87484 0.41215 0.97749 0.0
H1543 H 0.84239 0.4359 0.93679 0.0
H1544 H 0.84162 0.42169 0.95421 0.0
H1545 H 0.85112 0.45075 0.95461 0.0
H1546 H 0.87595 0.46106 0.97804 0.0
H1547 H 0.8601 0.44742 0.00354 0.0
H1548 H 0.46368 0.96103 0.07665 0.0
H1549 H 0.46618 0.95005 0.10275 0.0
H1550 H 0.53864 0.98435 0.09873 0.0
H1551 H 0.53623 0.99529 0.07253 0.0
H1552 H 0.52068 0.94183 0.1076 0.0
H1553 H 0.48574 0.98139 0.14368 0.0
H1554 H 0.46739 0.96599 0.12812 0.0
H1555 H 0.49478 0.98991 0.12417 0.0
C1556 C 0.48018 0.96675 0.08147 0.0
C1557 C 0.49976 0.97895 0.07254 0.0
C1558 C 0.4816 0.96051 0.09642 0.0
C1559 C 0.50262 0.9666 0.10276 0.0
C1560 C 0.52226 0.97954 0.09407 0.0
H1561 H 0.51495 0.92594 0.19575 0.0
H1562 H 0.51982 0.9489 0.17325 0.0
C1563 C 0.52085 0.98569 0.0791 0.0
C1564 C 0.50384 0.95726 0.11768 0.0
H1565 H 0.48619 0.95032 0.15487 0.0
C1566 C 0.51345 0.94398 0.11799 0.0
C1567 C 0.49461 0.96025 0.13127 0.0
C1568 C 0.48526 0.97535 0.13186 0.0
C1569 C 0.51315 0.93278 0.13132 0.0
C1570 C 0.50263 0.93462 0.14463 0.0
C1571 C 0.49399 0.94874 0.14458 0.0
C1572 C 0.49937 0.921 0.15837 0.0
C1573 C 0.52384 0.91882 0.131 0.0
C1574 C 0.48592 0.8978 0.15748 0.0
C1575 C 0.48303 0.8847 0.17026 0.0
C1576 C 0.49348 0.89454 0.18423 0.0
C1577 C 0.5066 0.91786 0.18518 0.0
C1578 C 0.50947 0.93099 0.17234 0.0
H1579 H 0.53648 0.92405 0.12164 0.0
H1580 H 0.53221 0.91984 0.14205 0.0
H1581 H 0.51057 0.90122 0.12901 0.0
H1582 H 0.47758 0.88981 0.14688 0.0
H1583 H 0.47237 0.86684 0.16923 0.0
H1584 H 0.55431 0.54235 0.24015 0.0
H1585 H 0.56562 0.54192 0.26667 0.0
H1586 H 0.524 0.47042 0.26729 0.0
H1587 H 0.51245 0.47075 0.24096 0.0
H1588 H 0.52311 0.48985 0.29495 0.0
H1589 H 0.61081 0.52242 0.27428 0.0
H1590 H 0.59936 0.53961 0.27023 0.0
H1591 H 0.58729 0.5128 0.26138 0.0
C1592 C 0.54736 0.52659 0.24605 0.0
C1593 C 0.53266 0.50657 0.23848 0.0
C1594 C 0.55384 0.52637 0.26115 0.0
C1595 C 0.54598 0.50611 0.26879 0.0
C1596 C 0.53027 0.48623 0.26157 0.0
H1597 H 0.57555 0.44752 0.34286 0.0
H1598 H 0.55862 0.45712 0.32203 0.0
C1599 C 0.52364 0.48644 0.24654 0.0
C1600 C 0.55547 0.50525 0.28373 0.0
H1601 H 0.60382 0.51383 0.30037 0.0
C1602 C 0.5408 0.49531 0.29621 0.0
C1603 C 0.57855 0.51232 0.28528 0.0
C1604 C 0.59494 0.52222 0.27208 0.0
C1605 C 0.54854 0.49184 0.31014 0.0
C1606 C 0.57145 0.49829 0.31151 0.0
C1607 C 0.58627 0.50898 0.29924 0.0
C1608 C 0.58017 0.49264 0.32507 0.0
C1609 C 0.53214 0.48109 0.32322 0.0
C1610 C 0.59806 0.50945 0.33353 0.0
C1611 C 0.6079 0.50402 0.34533 0.0
C1612 C 0.60017 0.48167 0.34874 0.0
C1613 C 0.582 0.46488 0.34039 0.0
C1614 C 0.57212 0.47033 0.32864 0.0
H1615 H 0.51731 0.48302 0.32195 0.0
H1616 H 0.52593 0.46307 0.32342 0.0
H1617 H 0.54038 0.48828 0.33437 0.0
H1618 H 0.60466 0.52676 0.3308 0.0
H1619 H 0.62202 0.51731 0.35147 0.0
H1620 H 0.54016 0.99505 0.4225 0.0
H1621 H 0.53708 0.97168 0.40088 0.0
H1622 H 0.48396 0.91417 0.42422 0.0
H1623 H 0.48678 0.93762 0.44587 0.0
H1624 H 0.54265 0.9361 0.39914 0.0
H1625 H 0.45505 0.91126 0.38332 0.0
H1626 H 0.47157 0.9333 0.39673 0.0
H1627 H 0.45822 0.90477 0.40268 0.0
C1628 C 0.52794 0.9774 0.42308 0.0
C1629 C 0.51369 0.96814 0.43586 0.0
C1630 C 0.52615 0.96408 0.4107 0.0
C1631 C 0.51009 0.94125 0.41084 0.0
C1632 C 0.49613 0.93184 0.42372 0.0
H1633 H 0.47682 0.84205 0.33951 0.0
H1634 H 0.48123 0.85997 0.36435 0.0
C1635 C 0.49778 0.94521 0.43609 0.0
C1636 C 0.50805 0.92749 0.3974 0.0
H1637 H 0.47196 0.89524 0.3691 0.0
C1638 C 0.52717 0.9271 0.3926 0.0
C1639 C 0.48784 0.91579 0.38888 0.0
C1640 C 0.46704 0.91639 0.39304 0.0
C1641 C 0.52667 0.91546 0.37944 0.0
C1642 C 0.50658 0.90405 0.37083 0.0
C1643 C 0.48731 0.90398 0.3758 0.0
C1644 C 0.50545 0.89299 0.3562 0.0
C1645 C 0.54761 0.91544 0.3748 0.0
C1646 C 0.51769 0.90566 0.34345 0.0
C1647 C 0.51518 0.89551 0.32926 0.0
C1648 C 0.5004 0.87249 0.3276 0.0
C1649 C 0.48856 0.85977 0.34049 0.0
C1650 C 0.49095 0.86997 0.35465 0.0
H1651 H 0.55976 0.92038 0.38442 0.0
H1652 H 0.54326 0.89877 0.37067 0.0
H1653 H 0.5561 0.92745 0.36531 0.0
H1654 H 0.52872 0.9235 0.34438 0.0
H1655 H 0.52459 0.9057 0.31954 0.0
H1656 H 0.52113 0.51467 0.56701 0.0
H1657 H 0.54175 0.51691 0.54364 0.0
H1658 H 0.60477 0.56051 0.5664 0.0
H1659 H 0.58452 0.55761 0.58992 0.0
H1660 H 0.57472 0.55223 0.52489 0.0
H1661 H 0.60883 0.5062 0.55487 0.0
H1662 H 0.58604 0.50855 0.5626 0.0
H1663 H 0.61462 0.53148 0.56395 0.0
C1664 C 0.53937 0.52489 0.567 0.0
C1665 C 0.55115 0.53575 0.58039 0.0
C1666 C 0.5511 0.52627 0.55362 0.0
C1667 C 0.57476 0.53853 0.55344 0.0
C1668 C 0.58651 0.55069 0.56642 0.0
H1669 H 0.66536 0.53306 0.48608 0.0
H1670 H 0.65151 0.54545 0.50735 0.0
C1671 C 0.57484 0.54921 0.5798 0.0
C1672 C 0.58711 0.537 0.54017 0.0
H1673 H 0.62018 0.51661 0.52934 0.0
C1674 C 0.5848 0.5446 0.52585 0.0
C1675 C 0.60021 0.52699 0.54151 0.0
C1676 C 0.60248 0.51765 0.55651 0.0
C1677 C 0.59511 0.54224 0.51275 0.0
C1678 C 0.60776 0.53178 0.51405 0.0
C1679 C 0.61058 0.52476 0.52844 0.0
C1680 C 0.6165 0.52607 0.50051 0.0
C1681 C 0.59228 0.55082 0.49763 0.0
C1682 C 0.60136 0.51097 0.48975 0.0
C1683 C 0.60914 0.50367 0.47775 0.0
C1684 C 0.63226 0.51133 0.47626 0.0
C1685 C 0.64745 0.5267 0.48697 0.0
C1686 C 0.6396 0.53394 0.49904 0.0
H1687 H 0.58808 0.56391 0.49924 0.0
H1688 H 0.60782 0.55768 0.49057 0.0
H1689 H 0.57824 0.53694 0.49122 0.0
H1690 H 0.5834 0.50421 0.49093 0.0
H1691 H 0.59689 0.49144 0.46993 0.0
H1692 H 0.0467 0.51802 0.74549 0.0
H1693 H 0.06866 0.53082 0.72172 0.0
H1694 H 0.08606 0.59786 0.73147 0.0
H1695 H 0.06481 0.58541 0.7554 0.0
H1696 H 0.06656 0.55487 0.69585 0.0
H1697 H 0.14746 0.60208 0.72754 0.0
H1698 H 0.12147 0.58159 0.73665 0.0
H1699 H 0.12661 0.60884 0.73257 0.0
C1700 C 0.05512 0.53547 0.74253 0.0
C1701 C 0.05409 0.55071 0.75238 0.0
C1702 C 0.06756 0.54273 0.72893 0.0
C1703 C 0.07926 0.56532 0.725 0.0
C1704 C 0.07741 0.5804 0.73443 0.0
H1705 H 0.17632 0.64229 0.6536 0.0
H1706 H 0.14973 0.62988 0.67506 0.0
C1707 C 0.06501 0.57319 0.74801 0.0
C1708 C 0.09419 0.57329 0.71141 0.0
H1709 H 0.14932 0.60592 0.70062 0.0
C1710 C 0.08466 0.56601 0.69686 0.0
C1711 C 0.11778 0.5878 0.71282 0.0
C1712 C 0.12903 0.59542 0.72823 0.0
C1713 C 0.09812 0.57312 0.68361 0.0
C1714 C 0.12172 0.58757 0.68503 0.0
C1715 C 0.13121 0.59491 0.69958 0.0
C1716 C 0.13702 0.59493 0.67161 0.0
C1717 C 0.08693 0.56541 0.6682 0.0
C1718 C 0.13879 0.57939 0.66266 0.0
C1719 C 0.15388 0.58641 0.65037 0.0
C1720 C 0.16761 0.60914 0.64686 0.0
C1721 C 0.16579 0.62467 0.65588 0.0
C1722 C 0.1507 0.61762 0.66818 0.0
H1723 H 0.06866 0.55952 0.66877 0.0
H1724 H 0.09505 0.57893 0.65958 0.0
H1725 H 0.08859 0.55137 0.66424 0.0
H1726 H 0.1287 0.56183 0.66529 0.0
H1727 H 0.1547 0.57401 0.64357 0.0
H1728 H 0.51226 0.09525 0.94414 0.0
H1729 H 0.52424 0.11636 0.92011 0.0
H1730 H 0.56618 0.08942 0.91001 0.0
H1731 H 0.55372 0.06771 0.93353 0.0
H1732 H 0.56746 0.148 0.90864 0.0
H1733 H 0.52544 0.07256 0.87241 0.0
H1734 H 0.51964 0.07199 0.89261 0.0
H1735 H 0.54437 0.07214 0.88619 0.0
C1736 C 0.52403 0.09384 0.93679 0.0
C1737 C 0.53199 0.07975 0.94076 0.0
C1738 C 0.53092 0.10597 0.92312 0.0
C1739 C 0.54575 0.1041 0.91318 0.0
C1740 C 0.5544 0.09077 0.9174 0.0
H1741 H 0.61239 0.15584 0.82727 0.0
H1742 H 0.59876 0.13831 0.85232 0.0
C1743 C 0.54749 0.07861 0.93099 0.0
C1744 C 0.55197 0.11568 0.89823 0.0
H1745 H 0.55151 0.1065 0.85984 0.0
C1746 C 0.56379 0.13897 0.89795 0.0
C1747 C 0.547 0.10379 0.88431 0.0
C1748 C 0.53322 0.07873 0.88383 0.0
C1749 C 0.57157 0.15073 0.8841 0.0
C1750 C 0.56722 0.13881 0.87026 0.0
C1751 C 0.55494 0.11554 0.87052 0.0
C1752 C 0.57582 0.15013 0.85538 0.0
C1753 C 0.58501 0.17578 0.88437 0.0
C1754 C 0.56728 0.16244 0.84882 0.0
C1755 C 0.57502 0.17246 0.83451 0.0
C1756 C 0.59145 0.17034 0.82655 0.0
C1757 C 0.59995 0.158 0.8332 0.0
C1758 C 0.59212 0.1479 0.84746 0.0
H1759 H 0.59017 0.1824 0.89616 0.0
H1760 H 0.60035 0.18227 0.87713 0.0
H1761 H 0.57461 0.18214 0.87962 0.0
H1762 H 0.55448 0.16409 0.85471 0.0
H1763 H 0.56828 0.182 0.82971 0.0
H1764 H 0.48985 0.54596 0.09465 0.0
H1765 H 0.47335 0.55229 0.07207 0.0
H1766 H 0.40669 0.50436 0.08837 0.0
H1767 H 0.42295 0.49851 0.11147 0.0
H1768 H 0.42251 0.4994 0.05599 0.0
H1769 H 0.43128 0.58083 0.06886 0.0
H1770 H 0.45495 0.57805 0.0736 0.0
H1771 H 0.42877 0.56173 0.08367 0.0
C1772 C 0.47165 0.53722 0.09374 0.0
C1773 C 0.45774 0.52174 0.10494 0.0
C1774 C 0.46228 0.54076 0.08075 0.0
C1775 C 0.43888 0.52883 0.07866 0.0
C1776 C 0.42483 0.51372 0.08987 0.0
H1777 H 0.37937 0.553 0.99817 0.0
H1778 H 0.38297 0.54135 0.02387 0.0
C1779 C 0.43417 0.51032 0.10299 0.0
C1780 C 0.42945 0.53116 0.06418 0.0
H1781 H 0.42378 0.5686 0.043 0.0
C1782 C 0.42239 0.51434 0.05319 0.0
C1783 C 0.42932 0.55064 0.06069 0.0
C1784 C 0.43633 0.56885 0.07233 0.0
C1785 C 0.41621 0.51702 0.03844 0.0
C1786 C 0.41719 0.537 0.0347 0.0
C1787 C 0.42314 0.55333 0.04594 0.0
C1788 C 0.41386 0.54207 0.0189 0.0
C1789 C 0.40922 0.49876 0.02683 0.0
C1790 C 0.43004 0.54621 0.00767 0.0
C1791 C 0.42828 0.55321 0.99308 0.0
C1792 C 0.41024 0.55613 0.98944 0.0
C1793 C 0.39366 0.55126 0.00064 0.0
C1794 C 0.39557 0.54445 0.01529 0.0
H1795 H 0.40438 0.48268 0.03236 0.0
H1796 H 0.39482 0.49661 0.01988 0.0
H1797 H 0.42355 0.50329 0.01896 0.0
H1798 H 0.44447 0.54478 0.01037 0.0
H1799 H 0.44156 0.55717 0.98486 0.0
H1800 H 0.93591 0.4777 0.27244 0.0
H1801 H 0.91463 0.46318 0.24863 0.0
H1802 H 0.96135 0.44402 0.23357 0.0
H1803 H 0.98321 0.45932 0.25692 0.0
H1804 H 0.95418 0.46706 0.21187 0.0
H1805 H 0.87234 0.39951 0.23478 0.0
H1806 H 0.88176 0.42614 0.24324 0.0
H1807 H 0.89776 0.41295 0.24612 0.0
C1808 C 0.94159 0.47032 0.26408 0.0
C1809 C 0.96118 0.46955 0.26665 0.0
C1810 C 0.92927 0.4618 0.25056 0.0
C1811 C 0.93622 0.45221 0.23943 0.0
C1812 C 0.95558 0.45118 0.24206 0.0
H1813 H 0.86143 0.37846 0.15881 0.0
H1814 H 0.88135 0.39005 0.18329 0.0
C1815 C 0.96794 0.45975 0.25551 0.0
C1816 C 0.92424 0.44452 0.22462 0.0
H1817 H 0.87311 0.40875 0.20847 0.0
C1818 C 0.93647 0.45424 0.21113 0.0
C1819 C 0.90122 0.42762 0.22366 0.0
C1820 C 0.88752 0.41577 0.23771 0.0
C1821 C 0.92625 0.44774 0.19671 0.0
C1822 C 0.90304 0.43141 0.19578 0.0
C1823 C 0.89086 0.42142 0.20924 0.0
C1824 C 0.89111 0.42448 0.18091 0.0
C1825 C 0.94051 0.45818 0.1826 0.0
C1826 C 0.88987 0.43997 0.17153 0.0
C1827 C 0.87875 0.43348 0.15748 0.0
C1828 C 0.86843 0.41128 0.15259 0.0
C1829 C 0.86951 0.39575 0.16211 0.0
C1830 C 0.88071 0.40229 0.17615 0.0
H1831 H 0.95875 0.46552 0.18503 0.0
H1832 H 0.93557 0.44583 0.17326 0.0
H1833 H 0.9381 0.47171 0.17849 0.0
H1834 H 0.89745 0.4571 0.17511 0.0
H1835 H 0.87839 0.4459 0.15039 0.0
loop_
_geom_bond_atom_site_label_1
_geom_bond_atom_site_label_2
_geom_bond_distance
_geom_bond_site_symmetry_2
_ccdc_geom_bond_type
H0 O26 0.856 . S
H1 O29 0.854 . S
H2 C37 0.930 . S
H3 C38 0.930 . S
H4 C40 0.930 . S
H5 C41 0.923 . S
H6 C43 0.931 . S
H7 C44 0.930 . S
H8 C46 0.930 . S
H9 C47 0.929 . S
H10 C49 0.930 . S
H11 C50 0.931 . S
H12 C52 0.930 . S
H13 C53 0.929 . S
H14 C55 0.931 . S
H15 C56 0.930 . S
H16 C58 0.930 . S
H17 C59 0.932 . S
H18 C61 0.930 . S
H19 C62 0.929 . S
H20 C64 0.931 . S
H21 C65 0.930 . S
H22 C67 0.929 . S
H23 C68 0.931 . S
H24 C70 0.930 . S
H25 C71 0.929 . S
O26 H0 0.856 . S
O26 C72 1.300 . S
O27 C72 1.209 . S
O28 C73 1.199 . S
O29 H1 0.854 . S
O29 C73 1.297 . S
C30 C31 1.404 . S
C30 C35 1.397 . S
C30 C36 1.492 . S
C31 C30 1.404 . S
C31 C32 1.396 . S
C31 C42 1.492 . S
C32 C31 1.396 . S
C32 C33 1.397 . S
C32 C48 1.509 . S
C33 C32 1.397 . S
C33 C34 1.412 . S
C33 C54 1.485 . S
C34 C33 1.412 . S
C34 C35 1.388 . S
C34 C60 1.490 . S
C35 C30 1.397 . S
C35 C34 1.388 . S
C35 C66 1.519 . S
C36 C30 1.492 . S
C36 C37 1.363 . S
C36 C41 1.409 . S
C37 H2 0.930 . S
C37 C36 1.363 . S
C37 C38 1.372 1_455 S
C38 H3 0.930 . S
C38 C37 1.372 1_655 S
C38 C39 1.383 . S
C39 C38 1.383 . S
C39 C40 1.395 . S
C40 H4 0.930 . S
C40 C39 1.395 . S
C40 C41 1.349 1_655 S
C41 H5 0.923 . S
C41 C36 1.409 . S
C41 C40 1.349 1_455 S
C42 C31 1.492 . S
C42 C43 1.377 . S
C42 C47 1.397 . S
C43 H6 0.931 . S
C43 C42 1.377 . S
C43 C44 1.376 . S
C44 H7 0.930 . S
C44 C43 1.376 . S
C44 C45 1.376 . S
C45 C44 1.376 . S
C45 C46 1.378 . S
C45 C72 1.486 . S
C46 H8 0.930 . S
C46 C45 1.378 . S
C46 C47 1.376 . S
C47 H9 0.929 . S
C47 C42 1.397 . S
C47 C46 1.376 . S
C48 C32 1.509 . S
C48 C49 1.391 . S
C48 C53 1.386 . S
C49 H10 0.930 . S
C49 C48 1.391 . S
C49 C50 1.375 . S
C50 H11 0.931 . S
C50 C49 1.375 . S
C50 C51 1.375 . S
C51 C50 1.375 . S
C51 C52 1.361 . S
C52 H12 0.930 . S
C52 C51 1.361 . S
C52 C53 1.399 . S
C53 H13 0.929 . S
C53 C48 1.386 . S
C53 C52 1.399 . S
C54 C33 1.485 . S
C54 C55 1.394 . S
C54 C59 1.360 . S
C55 H14 0.931 . S
C55 C54 1.394 . S
C55 C56 1.372 . S
C56 H15 0.930 . S
C56 C55 1.372 . S
C56 C57 1.397 . S
C57 C56 1.397 . S
C57 C58 1.390 . S
C57 C73 1.476 . S
C58 H16 0.930 . S
C58 C57 1.390 . S
C58 C59 1.366 . S
C59 H17 0.932 . S
C59 C54 1.360 . S
C59 C58 1.366 . S
C60 C34 1.490 . S
C60 C61 1.380 . S
C60 C65 1.386 . S
C61 H18 0.930 . S
C61 C60 1.380 . S
C61 C62 1.381 . S
C62 H19 0.929 . S
C62 C61 1.381 . S
C62 C63 1.371 . S
C63 C62 1.371 . S
C63 C64 1.380 . S
C64 H20 0.931 . S
C64 C63 1.380 . S
C64 C65 1.387 . S
C65 H21 0.930 . S
C65 C60 1.386 . S
C65 C64 1.387 . S
C66 C35 1.519 . S
C66 C67 1.377 1_455 S
C66 C71 1.361 . S
C67 H22 0.929 . S
C67 C66 1.377 1_655 S
C67 C68 1.386 . S
C68 H23 0.931 . S
C68 C67 1.386 . S
C68 C69 1.363 . S
C69 C68 1.363 . S
C69 C70 1.385 . S
C70 H24 0.930 . S
C70 C69 1.385 . S
C70 C71 1.396 1_655 S
C71 H25 0.929 . S
C71 C66 1.361 . S
C71 C70 1.396 1_455 S
C72 O26 1.300 . S
C72 O27 1.209 . S
C72 C45 1.486 . S
C73 O28 1.199 . S
C73 O29 1.297 . S
C73 C57 1.476 . S
H74 O100 0.856 . S
H75 O103 0.854 . S
H76 C111 0.930 . S
H77 C112 0.930 . S
H78 C114 0.930 . S
H79 C115 0.930 . S
H80 C117 0.931 . S
H81 C118 0.930 . S
H82 C120 0.930 . S
H83 C121 0.929 . S
H84 C123 0.930 . S
H85 C124 0.931 . S
H86 C126 0.930 . S
H87 C127 0.929 . S
H88 C129 0.931 . S
H89 C130 0.930 . S
H90 C132 0.930 . S
H91 C133 0.932 . S
H92 C135 0.930 . S
H93 C136 0.929 . S
H94 C138 0.931 . S
H95 C139 0.930 . S
H96 C141 0.929 . S
H97 C142 0.931 . S
H98 C144 0.930 . S
H99 C145 0.929 . S
O100 H74 0.856 . S
O100 C146 1.300 . S
O101 C146 1.209 . S
O102 C147 1.199 . S
O103 H75 0.854 . S
O103 C147 1.297 . S
C104 C105 1.404 . S
C104 C109 1.397 . S
C104 C110 1.492 . S
C105 C104 1.404 . S
C105 C106 1.396 . S
C105 C116 1.492 . S
C106 C105 1.396 . S
C106 C107 1.397 . S
C106 C122 1.509 . S
C107 C106 1.397 . S
C107 C108 1.412 . S
C107 C128 1.485 . S
C108 C107 1.412 . S
C108 C109 1.388 . S
C108 C134 1.490 . S
C109 C104 1.397 . S
C109 C108 1.388 . S
C109 C140 1.519 . S
C110 C104 1.492 . S
C110 C111 1.363 . S
C110 C115 1.390 . S
C111 H76 0.930 . S
C111 C110 1.363 . S
C111 C112 1.372 . S
C112 H77 0.930 . S
C112 C111 1.372 . S
C112 C113 1.383 1_545 S
C113 C112 1.383 1_565 S
C113 C114 1.395 . S
C114 H78 0.930 . S
C114 C113 1.395 . S
C114 C115 1.362 1_565 S
C115 H79 0.930 . S
C115 C110 1.390 . S
C115 C114 1.362 1_545 S
C116 C105 1.492 . S
C116 C117 1.377 . S
C116 C121 1.397 . S
C117 H80 0.931 . S
C117 C116 1.377 . S
C117 C118 1.376 . S
C118 H81 0.930 . S
C118 C117 1.376 . S
C118 C119 1.376 . S
C119 C118 1.376 . S
C119 C120 1.378 . S
C119 C146 1.486 . S
C120 H82 0.930 . S
C120 C119 1.378 . S
C120 C121 1.376 . S
C121 H83 0.929 . S
C121 C116 1.397 . S
C121 C120 1.376 . S
C122 C106 1.509 . S
C122 C123 1.391 . S
C122 C127 1.386 . S
C123 H84 0.930 . S
C123 C122 1.391 . S
C123 C124 1.375 . S
C124 H85 0.931 . S
C124 C123 1.375 . S
C124 C125 1.375 . S
C125 C124 1.375 . S
C125 C126 1.361 . S
C126 H86 0.930 . S
C126 C125 1.361 . S
C126 C127 1.399 . S
C127 H87 0.929 . S
C127 C122 1.386 . S
C127 C126 1.399 . S
C128 C107 1.485 . S
C128 C129 1.394 . S
C128 C133 1.360 . S
C129 H88 0.931 . S
C129 C128 1.394 . S
C129 C130 1.372 . S
C130 H89 0.930 . S
C130 C129 1.372 . S
C130 C131 1.397 . S
C131 C130 1.397 . S
C131 C132 1.390 . S
C131 C147 1.476 . S
C132 H90 0.930 . S
C132 C131 1.390 . S
C132 C133 1.366 . S
C133 H91 0.932 . S
C133 C128 1.360 . S
C133 C132 1.366 . S
C134 C108 1.490 . S
C134 C135 1.380 . S
C134 C139 1.386 . S
C135 H92 0.930 . S
C135 C134 1.380 . S
C135 C136 1.381 . S
C136 H93 0.929 . S
C136 C135 1.381 . S
C136 C137 1.371 . S
C137 C136 1.371 . S
C137 C138 1.380 . S
C138 H94 0.931 . S
C138 C137 1.380 . S
C138 C139 1.387 . S
C139 H95 0.930 . S
C139 C134 1.386 . S
C139 C138 1.387 . S
C140 C109 1.519 . S
C140 C141 1.377 . S
C140 C145 1.361 . S
C141 H96 0.929 . S
C141 C140 1.377 . S
C141 C142 1.386 1_545 S
C142 H97 0.931 . S
C142 C141 1.386 1_565 S
C142 C143 1.363 . S
C143 C142 1.363 . S
C143 C144 1.385 . S
C144 H98 0.930 . S
C144 C143 1.385 . S
C144 C145 1.396 1_565 S
C145 H99 0.929 . S
C145 C140 1.361 . S
C145 C144 1.396 1_545 S
C146 O100 1.300 . S
C146 O101 1.209 . S
C146 C119 1.486 . S
C147 O102 1.199 . S
C147 O103 1.297 . S
C147 C131 1.476 . S
H148 O174 0.856 . S
H149 O177 0.854 . S
H150 C185 0.930 . S
H151 C186 0.930 . S
H152 C188 0.930 . S
H153 C189 0.930 . S
H154 C191 0.931 . S
H155 C192 0.930 . S
H156 C194 0.930 . S
H157 C195 0.929 . S
H158 C197 0.930 . S
H159 C198 0.931 . S
H160 C200 0.930 . S
H161 C201 0.929 . S
H162 C203 0.931 . S
H163 C204 0.930 . S
H164 C206 0.930 . S
H165 C207 0.932 . S
H166 C209 0.930 . S
H167 C210 0.929 . S
H168 C212 0.931 . S
H169 C213 0.930 . S
H170 C215 0.929 . S
H171 C216 0.931 . S
H172 C218 0.930 . S
H173 C219 0.929 . S
O174 H148 0.856 . S
O174 C220 1.300 . S
O175 C220 1.209 . S
O176 C221 1.199 . S
O177 H149 0.854 . S
O177 C221 1.297 . S
C178 C179 1.404 . S
C178 C183 1.397 . S
C178 C184 1.492 . S
C179 C178 1.404 . S
C179 C180 1.396 . S
C179 C190 1.492 . S
C180 C179 1.396 . S
C180 C181 1.397 . S
C180 C196 1.509 . S
C181 C180 1.397 . S
C181 C182 1.412 . S
C181 C202 1.485 . S
C182 C181 1.412 . S
C182 C183 1.388 . S
C182 C208 1.490 . S
C183 C178 1.397 . S
C183 C182 1.388 . S
C183 C214 1.519 . S
C184 C178 1.492 . S
C184 C185 1.363 . S
C184 C189 1.390 . S
C185 H150 0.930 . S
C185 C184 1.363 . S
C185 C186 1.372 . S
C186 H151 0.930 . S
C186 C185 1.372 . S
C186 C187 1.383 . S
C187 C186 1.383 . S
C187 C188 1.395 . S
C188 H152 0.930 . S
C188 C187 1.395 . S
C188 C189 1.362 . S
C189 H153 0.930 . S
C189 C184 1.390 . S
C189 C188 1.362 . S
C190 C179 1.492 . S
C190 C191 1.377 . S
C190 C195 1.397 . S
C191 H154 0.931 . S
C191 C190 1.377 . S
C191 C192 1.376 . S
C192 H155 0.930 . S
C192 C191 1.376 . S
C192 C193 1.376 . S
C193 C192 1.376 . S
C193 C194 1.378 . S
C193 C220 1.486 . S
C194 H156 0.930 . S
C194 C193 1.378 . S
C194 C195 1.376 . S
C195 H157 0.929 . S
C195 C190 1.397 . S
C195 C194 1.376 . S
C196 C180 1.509 . S
C196 C197 1.391 . S
C196 C201 1.386 . S
C197 H158 0.930 . S
C197 C196 1.391 . S
C197 C198 1.375 . S
C198 H159 0.931 . S
C198 C197 1.375 . S
C198 C199 1.375 . S
C199 C198 1.375 . S
C199 C200 1.361 . S
C200 H160 0.930 . S
C200 C199 1.361 . S
C200 C201 1.399 . S
C201 H161 0.929 . S
C201 C196 1.386 . S
C201 C200 1.399 . S
C202 C181 1.485 . S
C202 C203 1.394 . S
C202 C207 1.360 . S
C203 H162 0.931 . S
C203 C202 1.394 . S
C203 C204 1.372 . S
C204 H163 0.930 . S
C204 C203 1.372 . S
C204 C205 1.397 . S
C205 C204 1.397 . S
C205 C206 1.390 . S
C205 C221 1.476 . S
C206 H164 0.930 . S
C206 C205 1.390 . S
C206 C207 1.366 . S
C207 H165 0.932 . S
C207 C202 1.360 . S
C207 C206 1.366 . S
C208 C182 1.490 . S
C208 C209 1.380 . S
C208 C213 1.386 . S
C209 H166 0.930 . S
C209 C208 1.380 . S
C209 C210 1.381 . S
C210 H167 0.929 . S
C210 C209 1.381 . S
C210 C211 1.371 . S
C211 C210 1.371 . S
C211 C212 1.380 . S
C212 H168 0.931 . S
C212 C211 1.380 . S
C212 C213 1.387 . S
C213 H169 0.930 . S
C213 C208 1.386 . S
C213 C212 1.387 . S
C214 C183 1.519 . S
C214 C215 1.377 . S
C214 C219 1.361 . S
C215 H170 0.929 . S
C215 C214 1.377 . S
C215 C216 1.386 . S
C216 H171 0.931 . S
C216 C215 1.386 . S
C216 C217 1.363 . S
C217 C216 1.363 . S
C217 C218 1.385 . S
C218 H172 0.930 . S
C218 C217 1.385 . S
C218 C219 1.396 . S
C219 H173 0.929 . S
C219 C214 1.361 . S
C219 C218 1.396 . S
C220 O174 1.300 . S
C220 O175 1.209 . S
C220 C193 1.486 . S
C221 O176 1.199 . S
C221 O177 1.297 . S
C221 C205 1.476 . S
H222 O248 0.856 . S
H223 O251 0.854 . S
H224 C259 0.930 . S
H225 C260 0.930 . S
H226 C262 0.930 . S
H227 C263 0.930 . S
H228 C265 0.931 . S
H229 C266 0.930 . S
H230 C268 0.930 . S
H231 C269 0.929 . S
H232 C271 0.930 . S
H233 C272 0.931 . S
H234 C274 0.930 . S
H235 C275 0.929 . S
H236 C277 0.931 . S
H237 C278 0.930 . S
H238 C280 0.930 . S
H239 C281 0.932 . S
H240 C283 0.930 . S
H241 C284 0.929 . S
H242 C286 0.931 . S
H243 C287 0.930 . S
H244 C289 0.929 . S
H245 C290 0.931 . S
H246 C292 0.930 . S
H247 C293 0.929 1_455 S
O248 H222 0.856 . S
O248 C294 1.300 . S
O249 C294 1.209 . S
O250 C295 1.199 . S
O251 H223 0.854 . S
O251 C295 1.297 . S
C252 C253 1.404 . S
C252 C257 1.397 . S
C252 C258 1.492 . S
C253 C252 1.404 . S
C253 C254 1.396 . S
C253 C264 1.492 . S
C254 C253 1.396 . S
C254 C255 1.397 . S
C254 C270 1.509 . S
C255 C254 1.397 . S
C255 C256 1.412 . S
C255 C276 1.485 . S
C256 C255 1.412 . S
C256 C257 1.388 . S
C256 C282 1.490 . S
C257 C252 1.397 . S
C257 C256 1.388 . S
C257 C288 1.524 . S
C258 C252 1.492 . S
C258 C259 1.363 . S
C258 C263 1.390 1_455 S
C259 H224 0.930 . S
C259 C258 1.363 . S
C259 C260 1.372 1_455 S
C260 H225 0.930 . S
C260 C259 1.372 1_655 S
C260 C261 1.383 . S
C261 C260 1.383 . S
C261 C262 1.395 . S
C262 H226 0.930 . S
C262 C261 1.395 . S
C262 C263 1.362 . S
C263 H227 0.930 . S
C263 C258 1.390 1_655 S
C263 C262 1.362 . S
C264 C253 1.492 . S
C264 C265 1.377 . S
C264 C269 1.397 . S
C265 H228 0.931 . S
C265 C264 1.377 . S
C265 C266 1.376 . S
C266 H229 0.930 . S
C266 C265 1.376 . S
C266 C267 1.376 . S
C267 C266 1.376 . S
C267 C268 1.378 . S
C267 C294 1.486 . S
C268 H230 0.930 . S
C268 C267 1.378 . S
C268 C269 1.376 . S
C269 H231 0.929 . S
C269 C264 1.397 . S
C269 C268 1.376 . S
C270 C254 1.509 . S
C270 C271 1.391 . S
C270 C275 1.386 . S
C271 H232 0.930 . S
C271 C270 1.391 . S
C271 C272 1.375 . S
C272 H233 0.931 . S
C272 C271 1.375 . S
C272 C273 1.375 . S
C273 C272 1.375 . S
C273 C274 1.361 . S
C274 H234 0.930 . S
C274 C273 1.361 . S
C274 C275 1.399 . S
C275 H235 0.929 . S
C275 C270 1.386 . S
C275 C274 1.399 . S
C276 C255 1.485 . S
C276 C277 1.394 . S
C276 C281 1.360 . S
C277 H236 0.931 . S
C277 C276 1.394 . S
C277 C278 1.372 . S
C278 H237 0.930 . S
C278 C277 1.372 . S
C278 C279 1.397 . S
C279 C278 1.397 . S
C279 C280 1.390 . S
C279 C295 1.476 . S
C280 H238 0.930 . S
C280 C279 1.390 . S
C280 C281 1.366 . S
C281 H239 0.932 . S
C281 C276 1.360 . S
C281 C280 1.366 . S
C282 C256 1.490 . S
C282 C283 1.380 . S
C282 C287 1.386 . S
C283 H240 0.930 . S
C283 C282 1.380 . S
C283 C284 1.381 . S
C284 H241 0.929 . S
C284 C283 1.381 . S
C284 C285 1.371 . S
C285 C284 1.371 . S
C285 C286 1.380 . S
C286 H242 0.931 . S
C286 C285 1.380 . S
C286 C287 1.387 . S
C287 H243 0.930 . S
C287 C282 1.386 . S
C287 C286 1.387 . S
C288 C257 1.524 . S
C288 C289 1.371 1_455 S
C288 C293 1.362 1_455 S
C289 H244 0.929 . S
C289 C288 1.371 1_655 S
C289 C290 1.386 . S
C290 H245 0.931 . S
C290 C289 1.386 . S
C290 C291 1.363 . S
C291 C290 1.363 . S
C291 C292 1.385 . S
C292 H246 0.930 . S
C292 C291 1.385 . S
C292 C293 1.396 . S
C293 H247 0.929 1_655 S
C293 C288 1.362 1_655 S
C293 C292 1.396 . S
C294 O248 1.300 . S
C294 O249 1.209 . S
C294 C267 1.486 . S
C295 O250 1.199 . S
C295 O251 1.297 . S
C295 C279 1.476 . S
H296 O322 0.856 . S
H297 O325 0.854 . S
H298 C333 0.930 . S
H299 C334 0.930 . S
H300 C336 0.930 . S
H301 C337 0.930 . S
H302 C339 0.931 . S
H303 C340 0.930 . S
H304 C342 0.930 . S
H305 C343 0.929 . S
H306 C345 0.930 . S
H307 C346 0.931 . S
H308 C348 0.930 . S
H309 C349 0.929 . S
H310 C351 0.931 . S
H311 C352 0.930 . S
H312 C354 0.930 . S
H313 C355 0.932 . S
H314 C357 0.930 . S
H315 C358 0.929 . S
H316 C360 0.931 . S
H317 C361 0.930 . S
H318 C363 0.929 1_556 S
H319 C364 0.931 . S
H320 C366 0.930 . S
H321 C367 0.929 . S
O322 H296 0.856 . S
O322 C368 1.300 . S
O323 C368 1.209 . S
O324 C369 1.199 . S
O325 H297 0.854 . S
O325 C369 1.297 . S
C326 C327 1.404 . S
C326 C331 1.397 . S
C326 C332 1.492 1_565 S
C327 C326 1.404 . S
C327 C328 1.396 . S
C327 C338 1.492 . S
C328 C327 1.396 . S
C328 C329 1.397 . S
C328 C344 1.509 . S
C329 C328 1.397 . S
C329 C330 1.412 1_556 S
C329 C350 1.485 1_556 S
C330 C329 1.412 1_554 S
C330 C331 1.388 1_554 S
C330 C356 1.490 . S
C331 C326 1.397 . S
C331 C330 1.388 1_556 S
C331 C362 1.519 1_566 S
C332 C326 1.492 1_545 S
C332 C333 1.363 . S
C332 C337 1.390 . S
C333 H298 0.930 . S
C333 C332 1.363 . S
C333 C334 1.372 . S
C334 H299 0.930 . S
C334 C333 1.372 . S
C334 C335 1.383 . S
C335 C334 1.383 . S
C335 C336 1.395 . S
C336 H300 0.930 . S
C336 C335 1.395 . S
C336 C337 1.362 . S
C337 H301 0.930 . S
C337 C332 1.390 . S
C337 C336 1.362 . S
C338 C327 1.492 . S
C338 C339 1.377 . S
C338 C343 1.397 . S
C339 H302 0.931 . S
C339 C338 1.377 . S
C339 C340 1.376 . S
C340 H303 0.930 . S
C340 C339 1.376 . S
C340 C341 1.376 . S
C341 C340 1.376 . S
C341 C342 1.378 . S
C341 C368 1.486 . S
C342 H304 0.930 . S
C342 C341 1.378 . S
C342 C343 1.376 . S
C343 H305 0.929 . S
C343 C338 1.397 . S
C343 C342 1.376 . S
C344 C328 1.509 . S
C344 C345 1.391 . S
C344 C349 1.386 . S
C345 H306 0.930 . S
C345 C344 1.391 . S
C345 C346 1.375 . S
C346 H307 0.931 . S
C346 C345 1.375 . S
C346 C347 1.375 . S
C347 C346 1.375 . S
C347 C348 1.361 . S
C348 H308 0.930 . S
C348 C347 1.361 . S
C348 C349 1.399 . S
C349 H309 0.929 . S
C349 C344 1.386 . S
C349 C348 1.399 . S
C350 C329 1.485 1_554 S
C350 C351 1.394 . S
C350 C355 1.360 . S
C351 H310 0.931 . S
C351 C350 1.394 . S
C351 C352 1.372 . S
C352 H311 0.930 . S
C352 C351 1.372 . S
C352 C353 1.397 . S
C353 C352 1.397 . S
C353 C354 1.390 . S
C353 C369 1.476 . S
C354 H312 0.930 . S
C354 C353 1.390 . S
C354 C355 1.366 . S
C355 H313 0.932 . S
C355 C350 1.360 . S
C355 C354 1.366 . S
C356 C330 1.490 . S
C356 C357 1.380 . S
C356 C361 1.386 . S
C357 H314 0.930 . S
C357 C356 1.380 . S
C357 C358 1.381 . S
C358 H315 0.929 . S
C358 C357 1.381 . S
C358 C359 1.371 . S
C359 C358 1.371 . S
C359 C360 1.380 . S
C360 H316 0.931 . S
C360 C359 1.380 . S
C360 C361 1.387 . S
C361 H317 0.930 . S
C361 C356 1.386 . S
C361 C360 1.387 . S
C362 C331 1.519 1_544 S
C362 C363 1.377 . S
C362 C367 1.361 . S
C363 H318 0.929 1_554 S
C363 C362 1.377 . S
C363 C364 1.386 . S
C364 H319 0.931 . S
C364 C363 1.386 . S
C364 C365 1.363 . S
C365 C364 1.363 . S
C365 C366 1.385 . S
C366 H320 0.930 . S
C366 C365 1.385 . S
C366 C367 1.396 . S
C367 H321 0.929 . S
C367 C362 1.361 . S
C367 C366 1.396 . S
C368 O322 1.300 . S
C368 O323 1.209 . S
C368 C341 1.486 . S
C369 O324 1.199 . S
C369 O325 1.297 . S
C369 C353 1.476 . S
H370 O396 0.856 . S
H371 O399 0.854 . S
H372 C407 0.930 . S
H373 C408 0.930 . S
H374 C410 0.930 . S
H375 C411 0.930 . S
H376 C413 0.931 . S
H377 C414 0.930 . S
H378 C416 0.930 . S
H379 C417 0.929 . S
H380 C419 0.930 . S
H381 C420 0.931 . S
H382 C422 0.930 . S
H383 C423 0.929 . S
H384 C425 0.931 . S
H385 C426 0.930 . S
H386 C428 0.930 . S
H387 C429 0.932 . S
H388 C431 0.930 . S
H389 C432 0.929 . S
H390 C434 0.931 . S
H391 C435 0.930 . S
H392 C437 0.929 . S
H393 C438 0.931 . S
H394 C440 0.930 . S
H395 C441 0.929 . S
O396 H370 0.856 . S
O396 C442 1.300 . S
O397 C442 1.209 . S
O398 C443 1.199 . S
O399 H371 0.854 . S
O399 C443 1.297 . S
C400 C401 1.404 . S
C400 C405 1.397 . S
C400 C406 1.492 . S
C401 C400 1.404 . S
C401 C402 1.396 . S
C401 C412 1.492 . S
C402 C401 1.396 . S
C402 C403 1.397 . S
C402 C418 1.509 . S
C403 C402 1.397 . S
C403 C404 1.412 . S
C403 C424 1.485 . S
C404 C403 1.412 . S
C404 C405 1.388 . S
C404 C430 1.490 . S
C405 C400 1.397 . S
C405 C404 1.388 . S
C405 C436 1.519 . S
C406 C400 1.492 . S
C406 C407 1.363 . S
C406 C411 1.390 . S
C407 H372 0.930 . S
C407 C406 1.363 . S
C407 C408 1.372 . S
C408 H373 0.930 . S
C408 C407 1.372 . S
C408 C409 1.383 . S
C409 C408 1.383 . S
C409 C410 1.395 . S
C410 H374 0.930 . S
C410 C409 1.395 . S
C410 C411 1.362 . S
C411 H375 0.930 . S
C411 C406 1.390 . S
C411 C410 1.362 . S
C412 C401 1.492 . S
C412 C413 1.377 . S
C412 C417 1.397 . S
C413 H376 0.931 . S
C413 C412 1.377 . S
C413 C414 1.376 . S
C414 H377 0.930 . S
C414 C413 1.376 . S
C414 C415 1.376 . S
C415 C414 1.376 . S
C415 C416 1.378 . S
C415 C442 1.486 . S
C416 H378 0.930 . S
C416 C415 1.378 . S
C416 C417 1.376 . S
C417 H379 0.929 . S
C417 C412 1.397 . S
C417 C416 1.376 . S
C418 C402 1.509 . S
C418 C419 1.391 . S
C418 C423 1.386 . S
C419 H380 0.930 . S
C419 C418 1.391 . S
C419 C420 1.375 . S
C420 H381 0.931 . S
C420 C419 1.375 . S
C420 C421 1.375 . S
C421 C420 1.375 . S
C421 C422 1.361 . S
C422 H382 0.930 . S
C422 C421 1.361 . S
C422 C423 1.399 . S
C423 H383 0.929 . S
C423 C418 1.386 . S
C423 C422 1.399 . S
C424 C403 1.485 . S
C424 C425 1.394 . S
C424 C429 1.360 . S
C425 H384 0.931 . S
C425 C424 1.394 . S
C425 C426 1.372 . S
C426 H385 0.930 . S
C426 C425 1.372 . S
C426 C427 1.397 . S
C427 C426 1.397 . S
C427 C428 1.390 . S
C427 C443 1.476 . S
C428 H386 0.930 . S
C428 C427 1.390 . S
C428 C429 1.366 . S
C429 H387 0.932 . S
C429 C424 1.360 . S
C429 C428 1.366 . S
C430 C404 1.490 . S
C430 C431 1.380 . S
C430 C435 1.386 . S
C431 H388 0.930 . S
C431 C430 1.380 . S
C431 C432 1.381 . S
C432 H389 0.929 . S
C432 C431 1.381 . S
C432 C433 1.371 . S
C433 C432 1.371 . S
C433 C434 1.380 . S
C434 H390 0.931 . S
C434 C433 1.380 . S
C434 C435 1.387 . S
C435 H391 0.930 . S
C435 C430 1.386 . S
C435 C434 1.387 . S
C436 C405 1.519 . S
C436 C437 1.377 . S
C436 C441 1.361 . S
C437 H392 0.929 . S
C437 C436 1.377 . S
C437 C438 1.386 . S
C438 H393 0.931 . S
C438 C437 1.386 . S
C438 C439 1.363 . S
C439 C438 1.363 . S
C439 C440 1.385 . S
C440 H394 0.930 . S
C440 C439 1.385 . S
C440 C441 1.396 . S
C441 H395 0.929 . S
C441 C436 1.361 . S
C441 C440 1.396 . S
C442 O396 1.300 . S
C442 O397 1.209 . S
C442 C415 1.486 . S
C443 O398 1.199 . S
C443 O399 1.297 . S
C443 C427 1.476 . S
Li444 N461 1.990 . S
Li444 O504 1.956 . S
Li444 O505 1.970 . S
Li444 O506 1.961 . S
Li445 N469 1.990 . S
Li445 O504 1.970 . S
Li445 O505 1.956 . S
Li445 O507 1.961 . S
Li446 N491 1.990 . S
Li446 O504 1.961 . S
Li446 O506 1.956 . S
Li446 O507 1.970 . S
Li447 N497 1.990 . S
Li447 O505 1.961 . S
Li447 O506 1.970 . S
Li447 O507 1.956 . S
C448 C450 1.348 . S
C448 C451 1.356 . S
C448 O504 1.325 . S
N449 C452 1.314 . S
N449 C453 1.279 . S
C450 C448 1.348 . S
C450 C452 1.353 . S
C450 H508 0.929 . S
C451 C448 1.356 . S
C451 C453 1.358 . S
C451 H509 0.930 . S
C452 N449 1.314 . S
C452 C450 1.353 . S
C452 H510 0.930 . S
C453 N449 1.279 . S
C453 C451 1.358 . S
C453 H511 0.930 . S
C454 C457 1.348 . S
C454 C458 1.356 . S
C454 O505 1.325 . S
C455 N456 1.279 . S
C455 C458 1.358 . S
C455 H512 0.930 . S
N456 C455 1.279 . S
N456 C459 1.314 . S
C457 C454 1.348 . S
C457 C459 1.353 . S
C457 H513 0.929 . S
C458 C454 1.356 . S
C458 C455 1.358 . S
C458 H514 0.930 . S
C459 N456 1.314 . S
C459 C457 1.353 . S
C459 H515 0.930 . S
C460 N461 1.314 . S
C460 C465 1.353 . S
C460 H466 0.930 . S
N461 Li444 1.990 . S
N461 C460 1.314 . S
N461 C463 1.279 . S
C462 C463 1.358 . S
C462 C464 1.356 . S
C462 H516 0.930 . S
C463 N461 1.279 . S
C463 C462 1.358 . S
C463 H467 0.930 . S
C464 C462 1.356 . S
C464 C465 1.348 . S
C465 C460 1.353 . S
C465 C464 1.348 . S
C465 H517 0.929 . S
H466 C460 0.930 . S
H467 C463 0.930 . S
C468 N469 1.314 . S
C468 C470 1.353 . S
C468 H474 0.930 . S
N469 Li445 1.990 . S
N469 C468 1.314 . S
N469 C472 1.279 . S
C470 C468 1.353 . S
C470 C473 1.348 . S
C470 H518 0.929 . S
C471 C472 1.358 . S
C471 C473 1.356 . S
C471 H519 0.930 . S
C472 N469 1.279 . S
C472 C471 1.358 . S
C472 H475 0.930 . S
C473 C470 1.348 . S
C473 C471 1.356 . S
H474 C468 0.930 . S
H475 C472 0.930 . S
C476 C478 1.348 . S
C476 C479 1.356 . S
C476 O506 1.325 . S
N477 C480 1.314 . S
N477 C481 1.279 . S
C478 C476 1.348 . S
C478 C480 1.353 . S
C478 H520 0.929 . S
C479 C476 1.356 . S
C479 C481 1.358 . S
C479 H521 0.930 . S
C480 N477 1.314 . S
C480 C478 1.353 . S
C480 H522 0.930 . S
C481 N477 1.279 . S
C481 C479 1.358 . S
C481 H523 0.930 . S
C482 C483 1.348 . S
C482 C484 1.356 . S
C482 O507 1.325 . S
C483 C482 1.348 . S
C483 C485 1.353 . S
C483 H524 0.929 . S
C484 C482 1.356 . S
C484 C486 1.358 . S
C484 H525 0.930 . S
C485 C483 1.353 . S
C485 N487 1.314 . S
C485 H526 0.930 . S
C486 C484 1.358 . S
C486 N487 1.279 . S
C486 H527 0.930 . S
N487 C485 1.314 . S
N487 C486 1.279 . S
C488 C490 1.353 . S
C488 N491 1.314 . S
C488 H494 0.930 . S
C489 N491 1.279 . S
C489 C492 1.358 . S
C489 H495 0.930 . S
C490 C488 1.353 . S
C490 C493 1.348 . S
C490 H528 0.929 . S
N491 Li446 1.990 . S
N491 C488 1.314 . S
N491 C489 1.279 . S
C492 C489 1.358 . S
C492 C493 1.356 . S
C492 H529 0.930 . S
C493 C490 1.348 . S
C493 C492 1.356 . S
H494 C488 0.930 . S
H495 C489 0.930 . S
C496 N497 1.314 . S
C496 C498 1.353 . S
C496 H502 0.930 . S
N497 Li447 1.990 . S
N497 C496 1.314 . S
N497 C500 1.279 . S
C498 C496 1.353 . S
C498 C501 1.348 . S
C498 H530 0.929 . S
C499 C500 1.358 . S
C499 C501 1.356 . S
C499 H531 0.930 . S
C500 N497 1.279 . S
C500 C499 1.358 . S
C500 H503 0.930 . S
C501 C498 1.348 . S
C501 C499 1.356 . S
H502 C496 0.930 . S
H503 C500 0.930 . S
O504 Li444 1.956 . S
O504 Li445 1.970 . S
O504 Li446 1.961 . S
O504 C448 1.325 . S
O505 Li444 1.970 . S
O505 Li445 1.956 . S
O505 Li447 1.961 . S
O505 C454 1.325 . S
O506 Li444 1.961 . S
O506 Li446 1.956 . S
O506 Li447 1.970 . S
O506 C476 1.325 . S
O507 Li445 1.961 . S
O507 Li446 1.970 . S
O507 Li447 1.956 . S
O507 C482 1.325 . S
H508 C450 0.929 . S
H509 C451 0.930 . S
H510 C452 0.930 . S
H511 C453 0.930 . S
H512 C455 0.930 . S
H513 C457 0.929 . S
H514 C458 0.930 . S
H515 C459 0.930 . S
H516 C462 0.930 . S
H517 C465 0.929 . S
H518 C470 0.929 . S
H519 C471 0.930 . S
H520 C478 0.929 . S
H521 C479 0.930 . S
H522 C480 0.930 . S
H523 C481 0.930 . S
H524 C483 0.929 . S
H525 C484 0.930 . S
H526 C485 0.930 . S
H527 C486 0.930 . S
H528 C490 0.929 . S
H529 C492 0.930 . S
H530 C498 0.929 . S
H531 C499 0.930 . S
Li532 N549 1.990 . S
Li532 O592 1.956 . S
Li532 O593 1.970 . S
Li532 O594 1.961 . S
Li533 N557 1.990 . S
Li533 O592 1.970 . S
Li533 O593 1.956 . S
Li533 O595 1.961 . S
Li534 N579 1.990 . S
Li534 O592 1.961 . S
Li534 O594 1.956 . S
Li534 O595 1.970 . S
Li535 N585 1.990 . S
Li535 O593 1.961 . S
Li535 O594 1.970 . S
Li535 O595 1.956 . S
C536 C538 1.348 . S
C536 C539 1.356 . S
C536 O592 1.325 . S
N537 C540 1.314 . S
N537 C541 1.279 . S
C538 C536 1.348 . S
C538 C540 1.353 . S
C538 H596 0.929 . S
C539 C536 1.356 . S
C539 C541 1.358 . S
C539 H597 0.930 . S
C540 N537 1.314 . S
C540 C538 1.353 . S
C540 H598 0.930 . S
C541 N537 1.279 . S
C541 C539 1.358 . S
C541 H599 0.930 . S
C542 C545 1.348 . S
C542 C546 1.356 . S
C542 O593 1.325 . S
C543 N544 1.279 . S
C543 C546 1.358 . S
C543 H600 0.930 . S
N544 C543 1.279 . S
N544 C547 1.314 . S
C545 C542 1.348 . S
C545 C547 1.353 . S
C545 H601 0.929 . S
C546 C542 1.356 . S
C546 C543 1.358 . S
C546 H602 0.930 . S
C547 N544 1.314 . S
C547 C545 1.353 . S
C547 H603 0.930 . S
C548 N549 1.314 . S
C548 C553 1.353 . S
C548 H554 0.930 . S
N549 Li532 1.990 . S
N549 C548 1.314 . S
N549 C551 1.279 . S
C550 C551 1.358 . S
C550 C552 1.356 . S
C550 H604 0.930 . S
C551 N549 1.279 . S
C551 C550 1.358 . S
C551 H555 0.930 . S
C552 C550 1.356 . S
C552 C553 1.348 . S
C553 C548 1.353 . S
C553 C552 1.348 . S
C553 H605 0.929 . S
H554 C548 0.930 . S
H555 C551 0.930 . S
C556 N557 1.314 . S
C556 C558 1.353 . S
C556 H562 0.930 . S
N557 Li533 1.990 . S
N557 C556 1.314 . S
N557 C560 1.279 . S
C558 C556 1.353 . S
C558 C561 1.348 . S
C558 H606 0.929 . S
C559 C560 1.358 . S
C559 C561 1.356 . S
C559 H607 0.930 . S
C560 N557 1.279 . S
C560 C559 1.358 . S
C560 H563 0.930 . S
C561 C558 1.348 . S
C561 C559 1.356 . S
H562 C556 0.930 . S
H563 C560 0.930 . S
C564 C566 1.348 . S
C564 C567 1.356 . S
C564 O594 1.325 . S
N565 C568 1.314 . S
N565 C569 1.279 . S
C566 C564 1.348 . S
C566 C568 1.353 . S
C566 H608 0.929 . S
C567 C564 1.356 . S
C567 C569 1.358 . S
C567 H609 0.930 . S
C568 N565 1.314 . S
C568 C566 1.353 . S
C568 H610 0.930 . S
C569 N565 1.279 . S
C569 C567 1.358 . S
C569 H611 0.930 . S
C570 C571 1.348 . S
C570 C572 1.356 . S
C570 O595 1.325 . S
C571 C570 1.348 . S
C571 C573 1.353 . S
C571 H612 0.929 . S
C572 C570 1.356 . S
C572 C574 1.358 . S
C572 H613 0.930 . S
C573 C571 1.353 . S
C573 N575 1.314 . S
C573 H614 0.930 . S
C574 C572 1.358 . S
C574 N575 1.279 . S
C574 H615 0.930 . S
N575 C573 1.314 . S
N575 C574 1.279 . S
C576 C578 1.353 . S
C576 N579 1.314 . S
C576 H582 0.930 . S
C577 N579 1.279 . S
C577 C580 1.358 . S
C577 H583 0.930 . S
C578 C576 1.353 . S
C578 C581 1.348 . S
C578 H616 0.929 . S
N579 Li534 1.990 . S
N579 C576 1.314 . S
N579 C577 1.279 . S
C580 C577 1.358 . S
C580 C581 1.356 . S
C580 H617 0.930 . S
C581 C578 1.348 . S
C581 C580 1.356 . S
H582 C576 0.930 . S
H583 C577 0.930 . S
C584 N585 1.314 . S
C584 C586 1.353 . S
C584 H590 0.930 . S
N585 Li535 1.990 . S
N585 C584 1.314 . S
N585 C588 1.279 . S
C586 C584 1.353 . S
C586 C589 1.348 . S
C586 H618 0.929 . S
C587 C588 1.358 . S
C587 C589 1.356 . S
C587 H619 0.930 . S
C588 N585 1.279 . S
C588 C587 1.358 . S
C588 H591 0.930 . S
C589 C586 1.348 . S
C589 C587 1.356 . S
H590 C584 0.930 . S
H591 C588 0.930 . S
O592 Li532 1.956 . S
O592 Li533 1.970 . S
O592 Li534 1.961 . S
O592 C536 1.325 . S
O593 Li532 1.970 . S
O593 Li533 1.956 . S
O593 Li535 1.961 . S
O593 C542 1.325 . S
O594 Li532 1.961 . S
O594 Li534 1.956 . S
O594 Li535 1.970 . S
O594 C564 1.325 . S
O595 Li533 1.961 . S
O595 Li534 1.970 . S
O595 Li535 1.956 . S
O595 C570 1.325 . S
H596 C538 0.929 . S
H597 C539 0.930 . S
H598 C540 0.930 . S
H599 C541 0.930 . S
H600 C543 0.930 . S
H601 C545 0.929 . S
H602 C546 0.930 . S
H603 C547 0.930 . S
H604 C550 0.930 . S
H605 C553 0.929 . S
H606 C558 0.929 . S
H607 C559 0.930 . S
H608 C566 0.929 . S
H609 C567 0.930 . S
H610 C568 0.930 . S
H611 C569 0.930 . S
H612 C571 0.929 . S
H613 C572 0.930 . S
H614 C573 0.930 . S
H615 C574 0.930 . S
H616 C578 0.929 . S
H617 C580 0.930 . S
H618 C586 0.929 . S
H619 C587 0.930 . S
Li620 N637 1.990 . S
Li620 O680 1.956 . S
Li620 O681 1.970 . S
Li620 O682 1.961 . S
Li621 N645 1.990 . S
Li621 O680 1.970 . S
Li621 O681 1.956 . S
Li621 O683 1.961 . S
Li622 N667 1.990 . S
Li622 O680 1.961 . S
Li622 O682 1.956 . S
Li622 O683 1.970 . S
Li623 N673 1.990 . S
Li623 O681 1.961 . S
Li623 O682 1.970 . S
Li623 O683 1.956 . S
C624 C626 1.348 . S
C624 C627 1.356 . S
C624 O680 1.325 . S
N625 C628 1.314 . S
N625 C629 1.279 . S
C626 C624 1.348 . S
C626 C628 1.353 . S
C626 H684 0.929 . S
C627 C624 1.356 . S
C627 C629 1.358 . S
C627 H685 0.930 . S
C628 N625 1.314 . S
C628 C626 1.353 . S
C628 H686 0.930 . S
C629 N625 1.279 . S
C629 C627 1.358 . S
C629 H687 0.930 . S
C630 C633 1.348 . S
C630 C634 1.356 . S
C630 O681 1.325 . S
C631 N632 1.279 . S
C631 C634 1.358 . S
C631 H688 0.930 . S
N632 C631 1.279 . S
N632 C635 1.314 . S
C633 C630 1.348 . S
C633 C635 1.353 . S
C633 H689 0.929 . S
C634 C630 1.356 . S
C634 C631 1.358 . S
C634 H690 0.930 . S
C635 N632 1.314 . S
C635 C633 1.353 . S
C635 H691 0.930 . S
C636 N637 1.314 . S
C636 C641 1.353 . S
C636 H642 0.930 . S
N637 Li620 1.990 . S
N637 C636 1.314 . S
N637 C639 1.279 . S
C638 C639 1.358 . S
C638 C640 1.356 . S
C638 H692 0.930 . S
C639 N637 1.279 . S
C639 C638 1.358 . S
C639 H643 0.930 . S
C640 C638 1.356 . S
C640 C641 1.348 . S
C641 C636 1.353 . S
C641 C640 1.348 . S
C641 H693 0.929 . S
H642 C636 0.930 . S
H643 C639 0.930 . S
C644 N645 1.314 . S
C644 C646 1.353 . S
C644 H650 0.930 . S
N645 Li621 1.990 . S
N645 C644 1.314 . S
N645 C648 1.279 . S
C646 C644 1.353 . S
C646 C649 1.348 . S
C646 H694 0.929 . S
C647 C648 1.358 . S
C647 C649 1.356 . S
C647 H695 0.930 . S
C648 N645 1.279 . S
C648 C647 1.358 . S
C648 H651 0.930 . S
C649 C646 1.348 . S
C649 C647 1.356 . S
H650 C644 0.930 . S
H651 C648 0.930 . S
C652 C654 1.348 . S
C652 C655 1.356 . S
C652 O682 1.325 . S
N653 C656 1.314 . S
N653 C657 1.279 . S
C654 C652 1.348 . S
C654 C656 1.353 . S
C654 H696 0.929 . S
C655 C652 1.356 . S
C655 C657 1.358 . S
C655 H697 0.930 . S
C656 N653 1.314 . S
C656 C654 1.353 . S
C656 H698 0.930 . S
C657 N653 1.279 . S
C657 C655 1.358 . S
C657 H699 0.930 . S
C658 C659 1.348 . S
C658 C660 1.356 . S
C658 O683 1.325 . S
C659 C658 1.348 . S
C659 C661 1.353 . S
C659 H700 0.929 . S
C660 C658 1.356 . S
C660 C662 1.358 . S
C660 H701 0.930 . S
C661 C659 1.353 . S
C661 N663 1.314 . S
C661 H702 0.930 . S
C662 C660 1.358 . S
C662 N663 1.279 . S
C662 H703 0.930 . S
N663 C661 1.314 . S
N663 C662 1.279 . S
C664 C666 1.353 . S
C664 N667 1.314 . S
C664 H670 0.930 . S
C665 N667 1.279 . S
C665 C668 1.358 . S
C665 H671 0.930 . S
C666 C664 1.353 . S
C666 C669 1.348 . S
C666 H704 0.929 . S
N667 Li622 1.990 . S
N667 C664 1.314 . S
N667 C665 1.279 . S
C668 C665 1.358 . S
C668 C669 1.356 . S
C668 H705 0.930 . S
C669 C666 1.348 . S
C669 C668 1.356 . S
H670 C664 0.930 . S
H671 C665 0.930 . S
C672 N673 1.314 . S
C672 C674 1.353 . S
C672 H678 0.930 . S
N673 Li623 1.990 . S
N673 C672 1.314 . S
N673 C676 1.279 . S
C674 C672 1.353 . S
C674 C677 1.348 . S
C674 H706 0.929 . S
C675 C676 1.358 . S
C675 C677 1.356 . S
C675 H707 0.930 . S
C676 N673 1.279 . S
C676 C675 1.358 . S
C676 H679 0.930 . S
C677 C674 1.348 . S
C677 C675 1.356 . S
H678 C672 0.930 . S
H679 C676 0.930 . S
O680 Li620 1.956 . S
O680 Li621 1.970 . S
O680 Li622 1.961 . S
O680 C624 1.325 . S
O681 Li620 1.970 . S
O681 Li621 1.956 . S
O681 Li623 1.961 . S
O681 C630 1.325 . S
O682 Li620 1.961 . S
O682 Li622 1.956 . S
O682 Li623 1.970 . S
O682 C652 1.325 . S
O683 Li621 1.961 . S
O683 Li622 1.970 . S
O683 Li623 1.956 . S
O683 C658 1.325 . S
H684 C626 0.929 . S
H685 C627 0.930 . S
H686 C628 0.930 . S
H687 C629 0.930 . S
H688 C631 0.930 . S
H689 C633 0.929 . S
H690 C634 0.930 . S
H691 C635 0.930 . S
H692 C638 0.930 . S
H693 C641 0.929 . S
H694 C646 0.929 . S
H695 C647 0.930 . S
H696 C654 0.929 . S
H697 C655 0.930 . S
H698 C656 0.930 . S
H699 C657 0.930 . S
H700 C659 0.929 . S
H701 C660 0.930 . S
H702 C661 0.930 . S
H703 C662 0.930 . S
H704 C666 0.929 . S
H705 C668 0.930 . S
H706 C674 0.929 . S
H707 C675 0.930 . S
Li708 N725 1.990 . S
Li708 O768 1.956 . S
Li708 O769 1.970 . S
Li708 O770 1.961 . S
Li709 N733 1.990 . S
Li709 O768 1.970 . S
Li709 O769 1.956 . S
Li709 O771 1.961 . S
Li710 N755 1.990 . S
Li710 O768 1.961 . S
Li710 O770 1.956 . S
Li710 O771 1.970 . S
Li711 N761 1.990 . S
Li711 O769 1.961 . S
Li711 O770 1.970 . S
Li711 O771 1.956 . S
C712 C714 1.348 . S
C712 C715 1.356 . S
C712 O768 1.325 . S
N713 C716 1.314 . S
N713 C717 1.279 . S
C714 C712 1.348 . S
C714 C716 1.353 . S
C714 H772 0.929 . S
C715 C712 1.356 . S
C715 C717 1.358 . S
C715 H773 0.930 . S
C716 N713 1.314 . S
C716 C714 1.353 . S
C716 H774 0.930 . S
C717 N713 1.279 . S
C717 C715 1.358 . S
C717 H775 0.930 . S
C718 C721 1.348 . S
C718 C722 1.356 . S
C718 O769 1.325 . S
C719 N720 1.279 . S
C719 C722 1.358 . S
C719 H776 0.930 . S
N720 C719 1.279 . S
N720 C723 1.314 . S
C721 C718 1.348 . S
C721 C723 1.353 . S
C721 H777 0.929 . S
C722 C718 1.356 . S
C722 C719 1.358 . S
C722 H778 0.930 . S
C723 N720 1.314 . S
C723 C721 1.353 . S
C723 H779 0.930 . S
C724 N725 1.314 . S
C724 C729 1.353 . S
C724 H730 0.930 . S
N725 Li708 1.990 . S
N725 C724 1.314 . S
N725 C727 1.279 . S
C726 C727 1.358 . S
C726 C728 1.356 . S
C726 H780 0.930 . S
C727 N725 1.279 . S
C727 C726 1.358 . S
C727 H731 0.930 . S
C728 C726 1.356 . S
C728 C729 1.348 . S
C729 C724 1.353 . S
C729 C728 1.348 . S
C729 H781 0.929 . S
H730 C724 0.930 . S
H731 C727 0.930 . S
C732 N733 1.314 . S
C732 C734 1.353 . S
C732 H738 0.930 . S
N733 Li709 1.990 . S
N733 C732 1.314 . S
N733 C736 1.279 . S
C734 C732 1.353 . S
C734 C737 1.348 . S
C734 H782 0.929 . S
C735 C736 1.358 . S
C735 C737 1.356 . S
C735 H783 0.930 . S
C736 N733 1.279 . S
C736 C735 1.358 . S
C736 H739 0.930 . S
C737 C734 1.348 . S
C737 C735 1.356 . S
H738 C732 0.930 . S
H739 C736 0.930 . S
C740 C742 1.348 . S
C740 C743 1.356 . S
C740 O770 1.325 . S
N741 C744 1.314 . S
N741 C745 1.279 . S
C742 C740 1.348 . S
C742 C744 1.353 . S
C742 H784 0.929 . S
C743 C740 1.356 . S
C743 C745 1.358 . S
C743 H785 0.930 . S
C744 N741 1.314 . S
C744 C742 1.353 . S
C744 H786 0.930 . S
C745 N741 1.279 . S
C745 C743 1.358 . S
C745 H787 0.930 . S
C746 C747 1.348 . S
C746 C748 1.356 . S
C746 O771 1.325 . S
C747 C746 1.348 . S
C747 C749 1.353 . S
C747 H788 0.929 . S
C748 C746 1.356 . S
C748 C750 1.358 . S
C748 H789 0.930 . S
C749 C747 1.353 . S
C749 N751 1.314 . S
C749 H790 0.930 . S
C750 C748 1.358 . S
C750 N751 1.279 . S
C750 H791 0.930 . S
N751 C749 1.314 . S
N751 C750 1.279 . S
C752 C754 1.353 . S
C752 N755 1.314 . S
C752 H758 0.930 . S
C753 N755 1.279 . S
C753 C756 1.358 . S
C753 H759 0.930 . S
C754 C752 1.353 . S
C754 C757 1.348 . S
C754 H792 0.929 . S
N755 Li710 1.990 . S
N755 C752 1.314 . S
N755 C753 1.279 . S
C756 C753 1.358 . S
C756 C757 1.356 . S
C756 H793 0.930 . S
C757 C754 1.348 . S
C757 C756 1.356 . S
H758 C752 0.930 . S
H759 C753 0.930 . S
C760 N761 1.314 . S
C760 C762 1.353 . S
C760 H766 0.930 . S
N761 Li711 1.990 . S
N761 C760 1.314 . S
N761 C764 1.279 . S
C762 C760 1.353 . S
C762 C765 1.348 . S
C762 H794 0.929 . S
C763 C764 1.358 . S
C763 C765 1.356 . S
C763 H795 0.930 . S
C764 N761 1.279 . S
C764 C763 1.358 . S
C764 H767 0.930 . S
C765 C762 1.348 . S
C765 C763 1.356 . S
H766 C760 0.930 . S
H767 C764 0.930 . S
O768 Li708 1.956 . S
O768 Li709 1.970 . S
O768 Li710 1.961 . S
O768 C712 1.325 . S
O769 Li708 1.970 . S
O769 Li709 1.956 . S
O769 Li711 1.961 . S
O769 C718 1.325 . S
O770 Li708 1.961 . S
O770 Li710 1.956 . S
O770 Li711 1.970 . S
O770 C740 1.325 . S
O771 Li709 1.961 . S
O771 Li710 1.970 . S
O771 Li711 1.956 . S
O771 C746 1.325 . S
H772 C714 0.929 . S
H773 C715 0.930 . S
H774 C716 0.930 . S
H775 C717 0.930 . S
H776 C719 0.930 . S
H777 C721 0.929 . S
H778 C722 0.930 . S
H779 C723 0.930 . S
H780 C726 0.930 . S
H781 C729 0.929 . S
H782 C734 0.929 . S
H783 C735 0.930 . S
H784 C742 0.929 . S
H785 C743 0.930 . S
H786 C744 0.930 . S
H787 C745 0.930 . S
H788 C747 0.929 . S
H789 C748 0.930 . S
H790 C749 0.930 . S
H791 C750 0.930 . S
H792 C754 0.929 . S
H793 C756 0.930 . S
H794 C762 0.929 . S
H795 C763 0.930 . S
Li796 N813 1.990 . S
Li796 O856 1.956 . S
Li796 O857 1.970 . S
Li796 O858 1.961 . S
Li797 N821 1.990 . S
Li797 O856 1.970 . S
Li797 O857 1.956 . S
Li797 O859 1.961 . S
Li798 N843 1.990 . S
Li798 O856 1.961 . S
Li798 O858 1.956 . S
Li798 O859 1.970 . S
Li799 N849 1.990 . S
Li799 O857 1.961 . S
Li799 O858 1.970 . S
Li799 O859 1.956 . S
C800 C802 1.348 . S
C800 C803 1.356 . S
C800 O856 1.325 . S
N801 C804 1.314 . S
N801 C805 1.279 . S
C802 C800 1.348 . S
C802 C804 1.353 . S
C802 H860 0.929 . S
C803 C800 1.356 . S
C803 C805 1.358 . S
C803 H861 0.930 . S
C804 N801 1.314 . S
C804 C802 1.353 . S
C804 H862 0.930 . S
C805 N801 1.279 . S
C805 C803 1.358 . S
C805 H863 0.930 . S
C806 C809 1.348 . S
C806 C810 1.356 . S
C806 O857 1.325 . S
C807 N808 1.279 . S
C807 C810 1.358 . S
C807 H864 0.930 . S
N808 C807 1.279 . S
N808 C811 1.314 . S
C809 C806 1.348 . S
C809 C811 1.353 . S
C809 H865 0.929 . S
C810 C806 1.356 . S
C810 C807 1.358 . S
C810 H866 0.930 . S
C811 N808 1.314 . S
C811 C809 1.353 . S
C811 H867 0.930 . S
C812 N813 1.314 . S
C812 C817 1.353 . S
C812 H818 0.930 . S
N813 Li796 1.990 . S
N813 C812 1.314 . S
N813 C815 1.279 . S
C814 C815 1.358 . S
C814 C816 1.356 . S
C814 H868 0.930 . S
C815 N813 1.279 . S
C815 C814 1.358 . S
C815 H819 0.930 . S
C816 C814 1.356 . S
C816 C817 1.348 . S
C817 C812 1.353 . S
C817 C816 1.348 . S
C817 H869 0.929 . S
H818 C812 0.930 . S
H819 C815 0.930 . S
C820 N821 1.314 . S
C820 C822 1.353 . S
C820 H826 0.930 . S
N821 Li797 1.990 . S
N821 C820 1.314 . S
N821 C824 1.279 . S
C822 C820 1.353 . S
C822 C825 1.348 . S
C822 H870 0.929 . S
C823 C824 1.358 . S
C823 C825 1.356 . S
C823 H871 0.930 . S
C824 N821 1.279 . S
C824 C823 1.358 . S
C824 H827 0.930 . S
C825 C822 1.348 . S
C825 C823 1.356 . S
H826 C820 0.930 . S
H827 C824 0.930 . S
C828 C830 1.348 . S
C828 C831 1.356 . S
C828 O858 1.325 . S
N829 C832 1.314 . S
N829 C833 1.279 . S
C830 C828 1.348 . S
C830 C832 1.353 . S
C830 H872 0.929 . S
C831 C828 1.356 . S
C831 C833 1.358 . S
C831 H873 0.930 . S
C832 N829 1.314 . S
C832 C830 1.353 . S
C832 H874 0.930 . S
C833 N829 1.279 . S
C833 C831 1.358 . S
C833 H875 0.930 . S
C834 C835 1.348 . S
C834 C836 1.356 . S
C834 O859 1.325 . S
C835 C834 1.348 . S
C835 C837 1.353 . S
C835 H876 0.929 . S
C836 C834 1.356 . S
C836 C838 1.358 . S
C836 H877 0.930 . S
C837 C835 1.353 . S
C837 N839 1.314 . S
C837 H878 0.930 . S
C838 C836 1.358 . S
C838 N839 1.279 . S
C838 H879 0.930 . S
N839 C837 1.314 . S
N839 C838 1.279 . S
C840 C842 1.353 . S
C840 N843 1.314 . S
C840 H846 0.930 . S
C841 N843 1.279 . S
C841 C844 1.358 . S
C841 H847 0.930 . S
C842 C840 1.353 . S
C842 C845 1.348 . S
C842 H880 0.929 . S
N843 Li798 1.990 . S
N843 C840 1.314 . S
N843 C841 1.279 . S
C844 C841 1.358 . S
C844 C845 1.356 . S
C844 H881 0.930 . S
C845 C842 1.348 . S
C845 C844 1.356 . S
H846 C840 0.930 . S
H847 C841 0.930 . S
C848 N849 1.314 . S
C848 C850 1.353 . S
C848 H854 0.930 . S
N849 Li799 1.990 . S
N849 C848 1.314 . S
N849 C852 1.279 . S
C850 C848 1.353 . S
C850 C853 1.348 . S
C850 H882 0.929 . S
C851 C852 1.358 . S
C851 C853 1.356 . S
C851 H883 0.930 . S
C852 N849 1.279 . S
C852 C851 1.358 . S
C852 H855 0.930 . S
C853 C850 1.348 . S
C853 C851 1.356 . S
H854 C848 0.930 . S
H855 C852 0.930 . S
O856 Li796 1.956 . S
O856 Li797 1.970 . S
O856 Li798 1.961 . S
O856 C800 1.325 . S
O857 Li796 1.970 . S
O857 Li797 1.956 . S
O857 Li799 1.961 . S
O857 C806 1.325 . S
O858 Li796 1.961 . S
O858 Li798 1.956 . S
O858 Li799 1.970 . S
O858 C828 1.325 . S
O859 Li797 1.961 . S
O859 Li798 1.970 . S
O859 Li799 1.956 . S
O859 C834 1.325 . S
H860 C802 0.929 . S
H861 C803 0.930 . S
H862 C804 0.930 . S
H863 C805 0.930 . S
H864 C807 0.930 . S
H865 C809 0.929 . S
H866 C810 0.930 . S
H867 C811 0.930 . S
H868 C814 0.930 . S
H869 C817 0.929 . S
H870 C822 0.929 . S
H871 C823 0.930 . S
H872 C830 0.929 . S
H873 C831 0.930 . S
H874 C832 0.930 . S
H875 C833 0.930 . S
H876 C835 0.929 . S
H877 C836 0.930 . S
H878 C837 0.930 . S
H879 C838 0.930 . S
H880 C842 0.929 . S
H881 C844 0.930 . S
H882 C850 0.929 . S
H883 C851 0.930 . S
Li884 N901 1.990 . S
Li884 O944 1.956 . S
Li884 O945 1.970 . S
Li884 O946 1.961 . S
Li885 N909 1.990 . S
Li885 O944 1.970 . S
Li885 O945 1.956 . S
Li885 O947 1.961 . S
Li886 N931 1.990 . S
Li886 O944 1.961 . S
Li886 O946 1.956 . S
Li886 O947 1.970 . S
Li887 N937 1.990 . S
Li887 O945 1.961 . S
Li887 O946 1.970 . S
Li887 O947 1.956 . S
C888 C890 1.348 . S
C888 C891 1.356 . S
C888 O944 1.325 . S
N889 C892 1.314 . S
N889 C893 1.279 . S
C890 C888 1.348 . S
C890 C892 1.353 . S
C890 H948 0.929 . S
C891 C888 1.356 . S
C891 C893 1.358 . S
C891 H949 0.930 . S
C892 N889 1.314 . S
C892 C890 1.353 . S
C892 H950 0.930 . S
C893 N889 1.279 . S
C893 C891 1.358 . S
C893 H951 0.930 . S
C894 C897 1.348 . S
C894 C898 1.356 . S
C894 O945 1.325 . S
C895 N896 1.279 . S
C895 C898 1.358 . S
C895 H952 0.930 . S
N896 C895 1.279 . S
N896 C899 1.314 . S
C897 C894 1.348 . S
C897 C899 1.353 . S
C897 H953 0.929 . S
C898 C894 1.356 . S
C898 C895 1.358 . S
C898 H954 0.930 . S
C899 N896 1.314 . S
C899 C897 1.353 . S
C899 H955 0.930 . S
C900 N901 1.314 . S
C900 C905 1.353 . S
C900 H906 0.930 . S
N901 Li884 1.990 . S
N901 C900 1.314 . S
N901 C903 1.279 . S
C902 C903 1.358 . S
C902 C904 1.356 . S
C902 H956 0.930 . S
C903 N901 1.279 . S
C903 C902 1.358 . S
C903 H907 0.930 . S
C904 C902 1.356 . S
C904 C905 1.348 . S
C905 C900 1.353 . S
C905 C904 1.348 . S
C905 H957 0.929 . S
H906 C900 0.930 . S
H907 C903 0.930 . S
C908 N909 1.314 . S
C908 C910 1.353 . S
C908 H914 0.930 . S
N909 Li885 1.990 . S
N909 C908 1.314 . S
N909 C912 1.279 . S
C910 C908 1.353 . S
C910 C913 1.348 . S
C910 H958 0.929 . S
C911 C912 1.358 . S
C911 C913 1.356 . S
C911 H959 0.930 . S
C912 N909 1.279 . S
C912 C911 1.358 . S
C912 H915 0.930 . S
C913 C910 1.348 . S
C913 C911 1.356 . S
H914 C908 0.930 . S
H915 C912 0.930 . S
C916 C918 1.348 . S
C916 C919 1.356 . S
C916 O946 1.325 . S
N917 C920 1.314 . S
N917 C921 1.279 . S
C918 C916 1.348 . S
C918 C920 1.353 . S
C918 H960 0.929 . S
C919 C916 1.356 . S
C919 C921 1.358 . S
C919 H961 0.930 . S
C920 N917 1.314 . S
C920 C918 1.353 . S
C920 H962 0.930 . S
C921 N917 1.279 . S
C921 C919 1.358 . S
C921 H963 0.930 . S
C922 C923 1.348 . S
C922 C924 1.356 . S
C922 O947 1.325 . S
C923 C922 1.348 . S
C923 C925 1.353 . S
C923 H964 0.929 . S
C924 C922 1.356 . S
C924 C926 1.358 . S
C924 H965 0.930 . S
C925 C923 1.353 . S
C925 N927 1.314 . S
C925 H966 0.930 . S
C926 C924 1.358 . S
C926 N927 1.279 . S
C926 H967 0.930 . S
N927 C925 1.314 . S
N927 C926 1.279 . S
C928 C930 1.353 . S
C928 N931 1.314 . S
C928 H934 0.930 . S
C929 N931 1.279 . S
C929 C932 1.358 . S
C929 H935 0.930 . S
C930 C928 1.353 . S
C930 C933 1.348 . S
C930 H968 0.929 . S
N931 Li886 1.990 . S
N931 C928 1.314 . S
N931 C929 1.279 . S
C932 C929 1.358 . S
C932 C933 1.356 . S
C932 H969 0.930 . S
C933 C930 1.348 . S
C933 C932 1.356 . S
H934 C928 0.930 . S
H935 C929 0.930 . S
C936 N937 1.314 . S
C936 C938 1.353 . S
C936 H942 0.930 . S
N937 Li887 1.990 . S
N937 C936 1.314 . S
N937 C940 1.279 . S
C938 C936 1.353 . S
C938 C941 1.348 . S
C938 H970 0.929 . S
C939 C940 1.358 . S
C939 C941 1.356 . S
C939 H971 0.930 . S
C940 N937 1.279 . S
C940 C939 1.358 . S
C940 H943 0.930 . S
C941 C938 1.348 . S
C941 C939 1.356 . S
H942 C936 0.930 . S
H943 C940 0.930 . S
O944 Li884 1.956 . S
O944 Li885 1.970 . S
O944 Li886 1.961 . S
O944 C888 1.325 . S
O945 Li884 1.970 . S
O945 Li885 1.956 . S
O945 Li887 1.961 . S
O945 C894 1.325 . S
O946 Li884 1.961 . S
O946 Li886 1.956 . S
O946 Li887 1.970 . S
O946 C916 1.325 . S
O947 Li885 1.961 . S
O947 Li886 1.970 . S
O947 Li887 1.956 . S
O947 C922 1.325 . S
H948 C890 0.929 . S
H949 C891 0.930 . S
H950 C892 0.930 . S
H951 C893 0.930 . S
H952 C895 0.930 . S
H953 C897 0.929 . S
H954 C898 0.930 . S
H955 C899 0.930 . S
H956 C902 0.930 . S
H957 C905 0.929 . S
H958 C910 0.929 . S
H959 C911 0.930 . S
H960 C918 0.929 . S
H961 C919 0.930 . S
H962 C920 0.930 . S
H963 C921 0.930 . S
H964 C923 0.929 . S
H965 C924 0.930 . S
H966 C925 0.930 . S
H967 C926 0.930 . S
H968 C930 0.929 . S
H969 C932 0.930 . S
H970 C938 0.929 . S
H971 C939 0.930 . S
H972 C980 0.929 . S
H973 C982 0.930 . S
H974 C984 0.930 . S
H975 C987 0.929 . S
H976 C990 0.930 . S
H977 C992 0.960 . S
H978 C992 0.960 . S
H979 C992 0.960 . S
C980 H972 0.929 . S
C980 C981 1.377 . S
C980 C982 1.384 . S
C981 C980 1.377 . S
C981 C987 1.390 . S
C982 H973 0.930 . S
C982 C980 1.384 . S
C982 C983 1.372 . S
C983 C982 1.372 . S
C983 C984 1.400 . S
C983 C988 1.490 . S
C984 H974 0.930 . S
C984 C983 1.400 . S
C984 C987 1.386 . S
H985 C1001 0.930 . S
H986 C1002 0.931 . S
C987 H975 0.929 . S
C987 C981 1.390 . S
C987 C984 1.386 . S
C988 C983 1.490 . S
C988 C990 1.395 . S
C988 C991 1.403 . S
H989 C995 0.930 . S
C990 H976 0.930 . S
C990 C988 1.395 . S
C990 C993 1.403 . S
C991 C988 1.403 . S
C991 C992 1.524 . S
C991 C995 1.400 . S
C992 H977 0.960 . S
C992 H978 0.960 . S
C992 H979 0.960 . S
C992 C991 1.524 . S
C993 C990 1.403 . S
C993 C994 1.392 . S
C993 C997 1.495 . S
C994 C993 1.392 . S
C994 C995 1.385 . S
C994 C996 1.478 . S
C995 H989 0.930 . S
C995 C991 1.400 . S
C995 C994 1.385 . S
C996 C994 1.478 . S
C996 C998 1.381 . S
C996 C1002 1.383 . S
C997 C993 1.495 . S
C997 H1003 0.959 . S
C997 H1004 0.961 . S
C997 H1005 0.960 . S
C998 C996 1.381 . S
C998 C999 1.394 . S
C998 H1006 0.930 . S
C999 C998 1.394 . S
C999 C1000 1.383 . S
C999 H1007 0.929 . S
C1000 C999 1.383 . S
C1000 C1001 1.377 . S
C1001 H985 0.930 . S
C1001 C1000 1.377 . S
C1001 C1002 1.379 . S
C1002 H986 0.931 . S
C1002 C996 1.383 . S
C1002 C1001 1.379 . S
H1003 C997 0.959 . S
H1004 C997 0.961 . S
H1005 C997 0.960 . S
H1006 C998 0.930 . S
H1007 C999 0.929 . S
H1008 C1016 0.929 . S
H1009 C1018 0.930 . S
H1010 C1020 0.930 . S
H1011 C1023 0.929 . S
H1012 C1026 0.930 . S
H1013 C1028 0.960 . S
H1014 C1028 0.960 . S
H1015 C1028 0.960 . S
C1016 H1008 0.929 . S
C1016 C1017 1.377 . S
C1016 C1018 1.384 . S
C1017 C1016 1.377 . S
C1017 C1023 1.390 . S
C1018 H1009 0.930 . S
C1018 C1016 1.384 . S
C1018 C1019 1.372 . S
C1019 C1018 1.372 . S
C1019 C1020 1.400 . S
C1019 C1024 1.490 . S
C1020 H1010 0.930 . S
C1020 C1019 1.400 . S
C1020 C1023 1.386 . S
H1021 C1037 0.930 . S
H1022 C1038 0.931 . S
C1023 H1011 0.929 . S
C1023 C1017 1.390 . S
C1023 C1020 1.386 . S
C1024 C1019 1.490 . S
C1024 C1026 1.395 . S
C1024 C1027 1.403 . S
H1025 C1031 0.930 . S
C1026 H1012 0.930 . S
C1026 C1024 1.395 . S
C1026 C1029 1.403 . S
C1027 C1024 1.403 . S
C1027 C1028 1.524 . S
C1027 C1031 1.400 . S
C1028 H1013 0.960 . S
C1028 H1014 0.960 . S
C1028 H1015 0.960 . S
C1028 C1027 1.524 . S
C1029 C1026 1.403 . S
C1029 C1030 1.392 . S
C1029 C1033 1.495 . S
C1030 C1029 1.392 . S
C1030 C1031 1.385 . S
C1030 C1032 1.478 . S
C1031 H1025 0.930 . S
C1031 C1027 1.400 . S
C1031 C1030 1.385 . S
C1032 C1030 1.478 . S
C1032 C1034 1.381 . S
C1032 C1038 1.383 . S
C1033 C1029 1.495 . S
C1033 H1039 0.959 . S
C1033 H1040 0.961 . S
C1033 H1041 0.960 . S
C1034 C1032 1.381 . S
C1034 C1035 1.394 . S
C1034 H1042 0.930 . S
C1035 C1034 1.394 . S
C1035 C1036 1.383 . S
C1035 H1043 0.929 . S
C1036 C1035 1.383 . S
C1036 C1037 1.377 . S
C1037 H1021 0.930 . S
C1037 C1036 1.377 . S
C1037 C1038 1.379 . S
C1038 H1022 0.931 . S
C1038 C1032 1.383 . S
C1038 C1037 1.379 . S
H1039 C1033 0.959 . S
H1040 C1033 0.961 . S
H1041 C1033 0.960 . S
H1042 C1034 0.930 . S
H1043 C1035 0.929 . S
H1044 C1052 0.929 . S
H1045 C1054 0.930 . S
H1046 C1056 0.930 . S
H1047 C1059 0.929 . S
H1048 C1062 0.930 . S
H1049 C1064 0.960 . S
H1050 C1064 0.960 . S
H1051 C1064 0.960 . S
C1052 H1044 0.929 . S
C1052 C1053 1.377 . S
C1052 C1054 1.384 . S
C1053 C1052 1.377 . S
C1053 C1059 1.390 . S
C1054 H1045 0.930 . S
C1054 C1052 1.384 . S
C1054 C1055 1.372 . S
C1055 C1054 1.372 . S
C1055 C1056 1.400 . S
C1055 C1060 1.490 . S
C1056 H1046 0.930 . S
C1056 C1055 1.400 . S
C1056 C1059 1.386 . S
H1057 C1073 0.930 . S
H1058 C1074 0.931 . S
C1059 H1047 0.929 . S
C1059 C1053 1.390 . S
C1059 C1056 1.386 . S
C1060 C1055 1.490 . S
C1060 C1062 1.395 . S
C1060 C1063 1.403 . S
H1061 C1067 0.930 . S
C1062 H1048 0.930 . S
C1062 C1060 1.395 . S
C1062 C1065 1.403 . S
C1063 C1060 1.403 . S
C1063 C1064 1.524 . S
C1063 C1067 1.400 . S
C1064 H1049 0.960 . S
C1064 H1050 0.960 . S
C1064 H1051 0.960 . S
C1064 C1063 1.524 . S
C1065 C1062 1.403 . S
C1065 C1066 1.392 . S
C1065 C1069 1.495 . S
C1066 C1065 1.392 . S
C1066 C1067 1.385 . S
C1066 C1068 1.478 . S
C1067 H1061 0.930 . S
C1067 C1063 1.400 . S
C1067 C1066 1.385 . S
C1068 C1066 1.478 . S
C1068 C1070 1.381 . S
C1068 C1074 1.383 . S
C1069 C1065 1.495 . S
C1069 H1075 0.959 . S
C1069 H1076 0.961 . S
C1069 H1077 0.960 . S
C1070 C1068 1.381 . S
C1070 C1071 1.394 . S
C1070 H1078 0.930 . S
C1071 C1070 1.394 . S
C1071 C1072 1.383 . S
C1071 H1079 0.929 . S
C1072 C1071 1.383 . S
C1072 C1073 1.377 . S
C1073 H1057 0.930 . S
C1073 C1072 1.377 . S
C1073 C1074 1.379 . S
C1074 H1058 0.931 . S
C1074 C1068 1.383 . S
C1074 C1073 1.379 . S
H1075 C1069 0.959 . S
H1076 C1069 0.961 . S
H1077 C1069 0.960 . S
H1078 C1070 0.930 . S
H1079 C1071 0.929 . S
H1080 C1088 0.929 . S
H1081 C1090 0.930 . S
H1082 C1092 0.930 . S
H1083 C1095 0.929 . S
H1084 C1098 0.930 . S
H1085 C1100 0.960 . S
H1086 C1100 0.960 . S
H1087 C1100 0.960 . S
C1088 H1080 0.929 . S
C1088 C1089 1.377 . S
C1088 C1090 1.384 . S
C1089 C1088 1.377 . S
C1089 C1095 1.390 . S
C1090 H1081 0.930 . S
C1090 C1088 1.384 . S
C1090 C1091 1.372 . S
C1091 C1090 1.372 . S
C1091 C1092 1.400 . S
C1091 C1096 1.490 . S
C1092 H1082 0.930 . S
C1092 C1091 1.400 . S
C1092 C1095 1.386 . S
H1093 C1109 0.930 . S
H1094 C1110 0.931 . S
C1095 H1083 0.929 . S
C1095 C1089 1.390 . S
C1095 C1092 1.386 . S
C1096 C1091 1.490 . S
C1096 C1098 1.395 . S
C1096 C1099 1.403 . S
H1097 C1103 0.930 . S
C1098 H1084 0.930 . S
C1098 C1096 1.395 . S
C1098 C1101 1.403 . S
C1099 C1096 1.403 . S
C1099 C1100 1.524 . S
C1099 C1103 1.400 . S
C1100 H1085 0.960 . S
C1100 H1086 0.960 . S
C1100 H1087 0.960 . S
C1100 C1099 1.524 . S
C1101 C1098 1.403 . S
C1101 C1102 1.392 . S
C1101 C1105 1.495 . S
C1102 C1101 1.392 . S
C1102 C1103 1.385 . S
C1102 C1104 1.478 . S
C1103 H1097 0.930 . S
C1103 C1099 1.400 . S
C1103 C1102 1.385 . S
C1104 C1102 1.478 . S
C1104 C1106 1.381 . S
C1104 C1110 1.383 . S
C1105 C1101 1.495 . S
C1105 H1111 0.959 . S
C1105 H1112 0.961 . S
C1105 H1113 0.960 . S
C1106 C1104 1.381 . S
C1106 C1107 1.394 . S
C1106 H1114 0.930 . S
C1107 C1106 1.394 . S
C1107 C1108 1.383 . S
C1107 H1115 0.929 . S
C1108 C1107 1.383 . S
C1108 C1109 1.377 . S
C1109 H1093 0.930 . S
C1109 C1108 1.377 . S
C1109 C1110 1.379 . S
C1110 H1094 0.931 . S
C1110 C1104 1.383 . S
C1110 C1109 1.379 . S
H1111 C1105 0.959 . S
H1112 C1105 0.961 . S
H1113 C1105 0.960 . S
H1114 C1106 0.930 . S
H1115 C1107 0.929 . S
H1116 C1124 0.929 . S
H1117 C1126 0.930 . S
H1118 C1128 0.930 . S
H1119 C1131 0.929 . S
H1120 C1134 0.930 . S
H1121 C1136 0.960 . S
H1122 C1136 0.960 . S
H1123 C1136 0.960 . S
C1124 H1116 0.929 . S
C1124 C1125 1.377 . S
C1124 C1126 1.384 . S
C1125 C1124 1.377 . S
C1125 C1131 1.390 . S
C1126 H1117 0.930 . S
C1126 C1124 1.384 . S
C1126 C1127 1.372 . S
C1127 C1126 1.372 . S
C1127 C1128 1.400 . S
C1127 C1132 1.490 . S
C1128 H1118 0.930 . S
C1128 C1127 1.400 . S
C1128 C1131 1.386 . S
H1129 C1145 0.930 . S
H1130 C1146 0.931 . S
C1131 H1119 0.929 . S
C1131 C1125 1.390 . S
C1131 C1128 1.386 . S
C1132 C1127 1.490 . S
C1132 C1134 1.395 . S
C1132 C1135 1.403 . S
H1133 C1139 0.930 . S
C1134 H1120 0.930 . S
C1134 C1132 1.395 . S
C1134 C1137 1.403 . S
C1135 C1132 1.403 . S
C1135 C1136 1.524 . S
C1135 C1139 1.400 . S
C1136 H1121 0.960 . S
C1136 H1122 0.960 . S
C1136 H1123 0.960 . S
C1136 C1135 1.524 . S
C1137 C1134 1.403 . S
C1137 C1138 1.392 . S
C1137 C1141 1.495 . S
C1138 C1137 1.392 . S
C1138 C1139 1.385 . S
C1138 C1140 1.478 . S
C1139 H1133 0.930 . S
C1139 C1135 1.400 . S
C1139 C1138 1.385 . S
C1140 C1138 1.478 . S
C1140 C1142 1.381 . S
C1140 C1146 1.383 . S
C1141 C1137 1.495 . S
C1141 H1147 0.959 . S
C1141 H1148 0.961 . S
C1141 H1149 0.960 . S
C1142 C1140 1.381 . S
C1142 C1143 1.394 . S
C1142 H1150 0.930 . S
C1143 C1142 1.394 . S
C1143 C1144 1.383 . S
C1143 H1151 0.929 . S
C1144 C1143 1.383 . S
C1144 C1145 1.377 . S
C1145 H1129 0.930 . S
C1145 C1144 1.377 . S
C1145 C1146 1.379 . S
C1146 H1130 0.931 . S
C1146 C1140 1.383 . S
C1146 C1145 1.379 . S
H1147 C1141 0.959 . S
H1148 C1141 0.961 . S
H1149 C1141 0.960 . S
H1150 C1142 0.930 . S
H1151 C1143 0.929 . S
H1152 C1160 0.929 . S
H1153 C1162 0.930 . S
H1154 C1164 0.930 . S
H1155 C1167 0.929 . S
H1156 C1170 0.930 . S
H1157 C1172 0.960 . S
H1158 C1172 0.960 . S
H1159 C1172 0.960 . S
C1160 H1152 0.929 . S
C1160 C1161 1.377 . S
C1160 C1162 1.384 . S
C1161 C1160 1.377 . S
C1161 C1167 1.390 . S
C1162 H1153 0.930 . S
C1162 C1160 1.384 . S
C1162 C1163 1.372 . S
C1163 C1162 1.372 . S
C1163 C1164 1.400 . S
C1163 C1168 1.490 . S
C1164 H1154 0.930 . S
C1164 C1163 1.400 . S
C1164 C1167 1.386 . S
H1165 C1181 0.930 . S
H1166 C1182 0.931 . S
C1167 H1155 0.929 . S
C1167 C1161 1.390 . S
C1167 C1164 1.386 . S
C1168 C1163 1.490 . S
C1168 C1170 1.395 . S
C1168 C1171 1.403 . S
H1169 C1175 0.930 . S
C1170 H1156 0.930 . S
C1170 C1168 1.395 . S
C1170 C1173 1.403 . S
C1171 C1168 1.403 . S
C1171 C1172 1.524 . S
C1171 C1175 1.400 . S
C1172 H1157 0.960 . S
C1172 H1158 0.960 . S
C1172 H1159 0.960 . S
C1172 C1171 1.524 . S
C1173 C1170 1.403 . S
C1173 C1174 1.392 . S
C1173 C1177 1.495 . S
C1174 C1173 1.392 . S
C1174 C1175 1.385 . S
C1174 C1176 1.478 . S
C1175 H1169 0.930 . S
C1175 C1171 1.400 . S
C1175 C1174 1.385 . S
C1176 C1174 1.478 . S
C1176 C1178 1.381 . S
C1176 C1182 1.383 . S
C1177 C1173 1.495 . S
C1177 H1183 0.959 . S
C1177 H1184 0.961 . S
C1177 H1185 0.960 . S
C1178 C1176 1.381 . S
C1178 C1179 1.394 . S
C1178 H1186 0.930 . S
C1179 C1178 1.394 . S
C1179 C1180 1.383 . S
C1179 H1187 0.929 . S
C1180 C1179 1.383 . S
C1180 C1181 1.377 . S
C1181 H1165 0.930 . S
C1181 C1180 1.377 . S
C1181 C1182 1.379 . S
C1182 H1166 0.931 . S
C1182 C1176 1.383 . S
C1182 C1181 1.379 . S
H1183 C1177 0.959 . S
H1184 C1177 0.961 . S
H1185 C1177 0.960 . S
H1186 C1178 0.930 . S
H1187 C1179 0.929 . S
H1188 C1196 0.929 . S
H1189 C1198 0.930 . S
H1190 C1200 0.930 . S
H1191 C1203 0.929 . S
H1192 C1206 0.930 . S
H1193 C1208 0.960 . S
H1194 C1208 0.960 . S
H1195 C1208 0.960 . S
C1196 H1188 0.929 . S
C1196 C1197 1.377 . S
C1196 C1198 1.384 . S
C1197 C1196 1.377 . S
C1197 C1203 1.390 . S
C1198 H1189 0.930 . S
C1198 C1196 1.384 . S
C1198 C1199 1.372 . S
C1199 C1198 1.372 . S
C1199 C1200 1.400 . S
C1199 C1204 1.490 . S
C1200 H1190 0.930 . S
C1200 C1199 1.400 . S
C1200 C1203 1.386 . S
H1201 C1217 0.930 . S
H1202 C1218 0.931 . S
C1203 H1191 0.929 . S
C1203 C1197 1.390 . S
C1203 C1200 1.386 . S
C1204 C1199 1.490 . S
C1204 C1206 1.395 . S
C1204 C1207 1.403 . S
H1205 C1211 0.930 . S
C1206 H1192 0.930 . S
C1206 C1204 1.395 . S
C1206 C1209 1.403 . S
C1207 C1204 1.403 . S
C1207 C1208 1.524 . S
C1207 C1211 1.400 . S
C1208 H1193 0.960 . S
C1208 H1194 0.960 . S
C1208 H1195 0.960 . S
C1208 C1207 1.524 . S
C1209 C1206 1.403 . S
C1209 C1210 1.392 . S
C1209 C1213 1.495 . S
C1210 C1209 1.392 . S
C1210 C1211 1.385 . S
C1210 C1212 1.478 . S
C1211 H1205 0.930 . S
C1211 C1207 1.400 . S
C1211 C1210 1.385 . S
C1212 C1210 1.478 . S
C1212 C1214 1.381 . S
C1212 C1218 1.383 . S
C1213 C1209 1.495 . S
C1213 H1219 0.959 . S
C1213 H1220 0.961 . S
C1213 H1221 0.960 . S
C1214 C1212 1.381 . S
C1214 C1215 1.394 . S
C1214 H1222 0.930 . S
C1215 C1214 1.394 . S
C1215 C1216 1.383 . S
C1215 H1223 0.929 . S
C1216 C1215 1.383 . S
C1216 C1217 1.377 . S
C1217 H1201 0.930 . S
C1217 C1216 1.377 . S
C1217 C1218 1.379 . S
C1218 H1202 0.931 . S
C1218 C1212 1.383 . S
C1218 C1217 1.379 . S
H1219 C1213 0.959 . S
H1220 C1213 0.961 . S
H1221 C1213 0.960 . S
H1222 C1214 0.930 . S
H1223 C1215 0.929 . S
H1224 C1232 0.929 . S
H1225 C1234 0.930 . S
H1226 C1236 0.930 . S
H1227 C1239 0.929 . S
H1228 C1242 0.930 . S
H1229 C1244 0.960 . S
H1230 C1244 0.960 . S
H1231 C1244 0.960 . S
C1232 H1224 0.929 . S
C1232 C1233 1.377 . S
C1232 C1234 1.384 . S
C1233 C1232 1.377 . S
C1233 C1239 1.390 . S
C1234 H1225 0.930 . S
C1234 C1232 1.384 . S
C1234 C1235 1.372 . S
C1235 C1234 1.372 . S
C1235 C1236 1.400 . S
C1235 C1240 1.490 . S
C1236 H1226 0.930 . S
C1236 C1235 1.400 . S
C1236 C1239 1.386 . S
H1237 C1253 0.930 . S
H1238 C1254 0.931 . S
C1239 H1227 0.929 . S
C1239 C1233 1.390 . S
C1239 C1236 1.386 . S
C1240 C1235 1.490 . S
C1240 C1242 1.395 . S
C1240 C1243 1.403 . S
H1241 C1247 0.930 . S
C1242 H1228 0.930 . S
C1242 C1240 1.395 . S
C1242 C1245 1.403 . S
C1243 C1240 1.403 . S
C1243 C1244 1.524 . S
C1243 C1247 1.400 . S
C1244 H1229 0.960 . S
C1244 H1230 0.960 . S
C1244 H1231 0.960 . S
C1244 C1243 1.524 . S
C1245 C1242 1.403 . S
C1245 C1246 1.392 . S
C1245 C1249 1.495 . S
C1246 C1245 1.392 . S
C1246 C1247 1.385 . S
C1246 C1248 1.478 . S
C1247 H1241 0.930 . S
C1247 C1243 1.400 . S
C1247 C1246 1.385 . S
C1248 C1246 1.478 . S
C1248 C1250 1.381 . S
C1248 C1254 1.383 . S
C1249 C1245 1.495 . S
C1249 H1255 0.959 . S
C1249 H1256 0.961 . S
C1249 H1257 0.960 . S
C1250 C1248 1.381 . S
C1250 C1251 1.394 . S
C1250 H1258 0.930 . S
C1251 C1250 1.394 . S
C1251 C1252 1.383 . S
C1251 H1259 0.929 . S
C1252 C1251 1.383 . S
C1252 C1253 1.377 . S
C1253 H1237 0.930 . S
C1253 C1252 1.377 . S
C1253 C1254 1.379 . S
C1254 H1238 0.931 . S
C1254 C1248 1.383 . S
C1254 C1253 1.379 . S
H1255 C1249 0.959 . S
H1256 C1249 0.961 . S
H1257 C1249 0.960 . S
H1258 C1250 0.930 . S
H1259 C1251 0.929 . S
H1260 C1268 0.929 . S
H1261 C1270 0.930 . S
H1262 C1272 0.930 . S
H1263 C1275 0.929 . S
H1264 C1278 0.930 . S
H1265 C1280 0.960 . S
H1266 C1280 0.960 . S
H1267 C1280 0.960 . S
C1268 H1260 0.929 . S
C1268 C1269 1.377 . S
C1268 C1270 1.384 . S
C1269 C1268 1.377 . S
C1269 C1275 1.390 . S
C1270 H1261 0.930 . S
C1270 C1268 1.384 . S
C1270 C1271 1.372 . S
C1271 C1270 1.372 . S
C1271 C1272 1.400 . S
C1271 C1276 1.490 . S
C1272 H1262 0.930 . S
C1272 C1271 1.400 . S
C1272 C1275 1.386 . S
H1273 C1289 0.930 . S
H1274 C1290 0.931 . S
C1275 H1263 0.929 . S
C1275 C1269 1.390 . S
C1275 C1272 1.386 . S
C1276 C1271 1.490 . S
C1276 C1278 1.395 . S
C1276 C1279 1.403 . S
H1277 C1283 0.930 . S
C1278 H1264 0.930 . S
C1278 C1276 1.395 . S
C1278 C1281 1.403 . S
C1279 C1276 1.403 . S
C1279 C1280 1.524 . S
C1279 C1283 1.400 . S
C1280 H1265 0.960 . S
C1280 H1266 0.960 . S
C1280 H1267 0.960 . S
C1280 C1279 1.524 . S
C1281 C1278 1.403 . S
C1281 C1282 1.392 . S
C1281 C1285 1.495 . S
C1282 C1281 1.392 . S
C1282 C1283 1.385 . S
C1282 C1284 1.478 . S
C1283 H1277 0.930 . S
C1283 C1279 1.400 . S
C1283 C1282 1.385 . S
C1284 C1282 1.478 . S
C1284 C1286 1.381 . S
C1284 C1290 1.383 . S
C1285 C1281 1.495 . S
C1285 H1291 0.959 . S
C1285 H1292 0.961 . S
C1285 H1293 0.960 . S
C1286 C1284 1.381 . S
C1286 C1287 1.394 . S
C1286 H1294 0.930 . S
C1287 C1286 1.394 . S
C1287 C1288 1.383 . S
C1287 H1295 0.929 . S
C1288 C1287 1.383 . S
C1288 C1289 1.377 . S
C1289 H1273 0.930 . S
C1289 C1288 1.377 . S
C1289 C1290 1.379 . S
C1290 H1274 0.931 . S
C1290 C1284 1.383 . S
C1290 C1289 1.379 . S
H1291 C1285 0.959 . S
H1292 C1285 0.961 . S
H1293 C1285 0.960 . S
H1294 C1286 0.930 . S
H1295 C1287 0.929 . S
H1296 C1304 0.929 . S
H1297 C1306 0.930 . S
H1298 C1308 0.930 . S
H1299 C1311 0.929 1_556 S
H1300 C1314 0.930 . S
H1301 C1316 0.960 . S
H1302 C1316 0.960 . S
H1303 C1316 0.960 . S
C1304 H1296 0.929 . S
C1304 C1305 1.377 . S
C1304 C1306 1.384 . S
C1305 C1304 1.377 . S
C1305 C1311 1.390 . S
C1306 H1297 0.930 . S
C1306 C1304 1.384 . S
C1306 C1307 1.372 . S
C1307 C1306 1.372 . S
C1307 C1308 1.400 . S
C1307 C1312 1.490 . S
C1308 H1298 0.930 . S
C1308 C1307 1.400 . S
C1308 C1311 1.386 . S
H1309 C1325 0.930 . S
H1310 C1326 0.931 . S
C1311 H1299 0.929 1_554 S
C1311 C1305 1.390 . S
C1311 C1308 1.386 . S
C1312 C1307 1.490 . S
C1312 C1314 1.395 . S
C1312 C1315 1.403 . S
H1313 C1319 0.930 . S
C1314 H1300 0.930 . S
C1314 C1312 1.395 . S
C1314 C1317 1.403 . S
C1315 C1312 1.403 . S
C1315 C1316 1.524 . S
C1315 C1319 1.400 . S
C1316 H1301 0.960 . S
C1316 H1302 0.960 . S
C1316 H1303 0.960 . S
C1316 C1315 1.524 . S
C1317 C1314 1.403 . S
C1317 C1318 1.392 . S
C1317 C1321 1.495 . S
C1318 C1317 1.392 . S
C1318 C1319 1.385 . S
C1318 C1320 1.478 . S
C1319 H1313 0.930 . S
C1319 C1315 1.400 . S
C1319 C1318 1.385 . S
C1320 C1318 1.478 . S
C1320 C1322 1.381 . S
C1320 C1326 1.383 . S
C1321 C1317 1.495 . S
C1321 H1327 0.959 . S
C1321 H1328 0.961 . S
C1321 H1329 0.960 . S
C1322 C1320 1.381 . S
C1322 C1323 1.394 . S
C1322 H1330 0.930 . S
C1323 C1322 1.394 . S
C1323 C1324 1.383 . S
C1323 H1331 0.929 . S
C1324 C1323 1.383 . S
C1324 C1325 1.377 . S
C1325 H1309 0.930 . S
C1325 C1324 1.377 . S
C1325 C1326 1.379 . S
C1326 H1310 0.931 . S
C1326 C1320 1.383 . S
C1326 C1325 1.379 . S
H1327 C1321 0.959 . S
H1328 C1321 0.961 . S
H1329 C1321 0.960 . S
H1330 C1322 0.930 . S
H1331 C1323 0.929 . S
H1332 C1340 0.929 . S
H1333 C1342 0.930 . S
H1334 C1344 0.930 . S
H1335 C1347 0.929 . S
H1336 C1350 0.930 . S
H1337 C1352 0.960 . S
H1338 C1352 0.960 . S
H1339 C1352 0.960 . S
C1340 H1332 0.929 . S
C1340 C1341 1.377 . S
C1340 C1342 1.384 . S
C1341 C1340 1.377 . S
C1341 C1347 1.390 . S
C1342 H1333 0.930 . S
C1342 C1340 1.384 . S
C1342 C1343 1.372 . S
C1343 C1342 1.372 . S
C1343 C1344 1.400 . S
C1343 C1348 1.490 . S
C1344 H1334 0.930 . S
C1344 C1343 1.400 . S
C1344 C1347 1.386 . S
H1345 C1361 0.930 . S
H1346 C1362 0.931 . S
C1347 H1335 0.929 . S
C1347 C1341 1.390 . S
C1347 C1344 1.386 . S
C1348 C1343 1.490 . S
C1348 C1350 1.395 . S
C1348 C1351 1.403 . S
H1349 C1355 0.930 . S
C1350 H1336 0.930 . S
C1350 C1348 1.395 . S
C1350 C1353 1.403 . S
C1351 C1348 1.403 . S
C1351 C1352 1.524 . S
C1351 C1355 1.400 . S
C1352 H1337 0.960 . S
C1352 H1338 0.960 . S
C1352 H1339 0.960 . S
C1352 C1351 1.524 . S
C1353 C1350 1.403 . S
C1353 C1354 1.392 . S
C1353 C1357 1.495 . S
C1354 C1353 1.392 . S
C1354 C1355 1.385 . S
C1354 C1356 1.478 . S
C1355 H1349 0.930 . S
C1355 C1351 1.400 . S
C1355 C1354 1.385 . S
C1356 C1354 1.478 . S
C1356 C1358 1.381 . S
C1356 C1362 1.383 . S
C1357 C1353 1.495 . S
C1357 H1363 0.959 . S
C1357 H1364 0.961 . S
C1357 H1365 0.960 . S
C1358 C1356 1.381 . S
C1358 C1359 1.394 . S
C1358 H1366 0.930 . S
C1359 C1358 1.394 . S
C1359 C1360 1.383 . S
C1359 H1367 0.929 . S
C1360 C1359 1.383 . S
C1360 C1361 1.377 . S
C1361 H1345 0.930 . S
C1361 C1360 1.377 . S
C1361 C1362 1.379 . S
C1362 H1346 0.931 . S
C1362 C1356 1.383 . S
C1362 C1361 1.379 . S
H1363 C1357 0.959 . S
H1364 C1357 0.961 . S
H1365 C1357 0.960 . S
H1366 C1358 0.930 . S
H1367 C1359 0.929 . S
H1368 C1376 0.929 . S
H1369 C1378 0.930 . S
H1370 C1380 0.930 . S
H1371 C1383 0.929 . S
H1372 C1386 0.930 . S
H1373 C1388 0.960 . S
H1374 C1388 0.960 . S
H1375 C1388 0.960 . S
C1376 H1368 0.929 . S
C1376 C1377 1.377 . S
C1376 C1378 1.384 . S
C1377 C1376 1.377 . S
C1377 C1383 1.390 . S
C1378 H1369 0.930 . S
C1378 C1376 1.384 . S
C1378 C1379 1.372 . S
C1379 C1378 1.372 . S
C1379 C1380 1.400 . S
C1379 C1384 1.490 . S
C1380 H1370 0.930 . S
C1380 C1379 1.400 . S
C1380 C1383 1.386 . S
H1381 C1397 0.930 . S
H1382 C1398 0.931 . S
C1383 H1371 0.929 . S
C1383 C1377 1.390 . S
C1383 C1380 1.386 . S
C1384 C1379 1.490 . S
C1384 C1386 1.395 . S
C1384 C1387 1.403 . S
H1385 C1391 0.930 . S
C1386 H1372 0.930 . S
C1386 C1384 1.395 . S
C1386 C1389 1.403 . S
C1387 C1384 1.403 . S
C1387 C1388 1.524 . S
C1387 C1391 1.400 . S
C1388 H1373 0.960 . S
C1388 H1374 0.960 . S
C1388 H1375 0.960 . S
C1388 C1387 1.524 . S
C1389 C1386 1.403 . S
C1389 C1390 1.392 . S
C1389 C1393 1.495 . S
C1390 C1389 1.392 . S
C1390 C1391 1.385 . S
C1390 C1392 1.478 . S
C1391 H1385 0.930 . S
C1391 C1387 1.400 . S
C1391 C1390 1.385 . S
C1392 C1390 1.478 . S
C1392 C1394 1.381 . S
C1392 C1398 1.383 . S
C1393 C1389 1.495 . S
C1393 H1399 0.959 . S
C1393 H1400 0.961 . S
C1393 H1401 0.960 . S
C1394 C1392 1.381 . S
C1394 C1395 1.394 . S
C1394 H1402 0.930 . S
C1395 C1394 1.394 . S
C1395 C1396 1.383 . S
C1395 H1403 0.929 . S
C1396 C1395 1.383 . S
C1396 C1397 1.377 . S
C1397 H1381 0.930 . S
C1397 C1396 1.377 . S
C1397 C1398 1.379 . S
C1398 H1382 0.931 . S
C1398 C1392 1.383 . S
C1398 C1397 1.379 . S
H1399 C1393 0.959 . S
H1400 C1393 0.961 . S
H1401 C1393 0.960 . S
H1402 C1394 0.930 . S
H1403 C1395 0.929 . S
H1404 C1412 0.929 . S
H1405 C1414 0.930 . S
H1406 C1416 0.930 . S
H1407 C1419 0.929 . S
H1408 C1422 0.930 . S
H1409 C1424 0.960 . S
H1410 C1424 0.960 . S
H1411 C1424 0.960 . S
C1412 H1404 0.929 . S
C1412 C1413 1.377 . S
C1412 C1414 1.384 . S
C1413 C1412 1.377 . S
C1413 C1419 1.390 . S
C1414 H1405 0.930 . S
C1414 C1412 1.384 . S
C1414 C1415 1.372 . S
C1415 C1414 1.372 . S
C1415 C1416 1.400 . S
C1415 C1420 1.490 . S
C1416 H1406 0.930 . S
C1416 C1415 1.400 . S
C1416 C1419 1.386 . S
H1417 C1433 0.930 . S
H1418 C1434 0.931 . S
C1419 H1407 0.929 . S
C1419 C1413 1.390 . S
C1419 C1416 1.386 . S
C1420 C1415 1.490 . S
C1420 C1422 1.395 . S
C1420 C1423 1.403 . S
H1421 C1427 0.930 . S
C1422 H1408 0.930 . S
C1422 C1420 1.395 . S
C1422 C1425 1.403 . S
C1423 C1420 1.403 . S
C1423 C1424 1.524 . S
C1423 C1427 1.400 . S
C1424 H1409 0.960 . S
C1424 H1410 0.960 . S
C1424 H1411 0.960 . S
C1424 C1423 1.524 . S
C1425 C1422 1.403 . S
C1425 C1426 1.392 . S
C1425 C1429 1.495 . S
C1426 C1425 1.392 . S
C1426 C1427 1.385 . S
C1426 C1428 1.478 . S
C1427 H1421 0.930 . S
C1427 C1423 1.400 . S
C1427 C1426 1.385 . S
C1428 C1426 1.478 . S
C1428 C1430 1.381 . S
C1428 C1434 1.383 . S
C1429 C1425 1.495 . S
C1429 H1435 0.959 . S
C1429 H1436 0.961 . S
C1429 H1437 0.960 . S
C1430 C1428 1.381 . S
C1430 C1431 1.394 . S
C1430 H1438 0.930 . S
C1431 C1430 1.394 . S
C1431 C1432 1.383 . S
C1431 H1439 0.929 . S
C1432 C1431 1.383 . S
C1432 C1433 1.377 . S
C1433 H1417 0.930 . S
C1433 C1432 1.377 . S
C1433 C1434 1.379 . S
C1434 H1418 0.931 . S
C1434 C1428 1.383 . S
C1434 C1433 1.379 . S
H1435 C1429 0.959 . S
H1436 C1429 0.961 . S
H1437 C1429 0.960 . S
H1438 C1430 0.930 . S
H1439 C1431 0.929 . S
H1440 C1448 0.929 . S
H1441 C1450 0.930 . S
H1442 C1452 0.930 . S
H1443 C1455 0.929 . S
H1444 C1458 0.930 . S
H1445 C1460 0.960 . S
H1446 C1460 0.960 . S
H1447 C1460 0.960 . S
C1448 H1440 0.929 . S
C1448 C1449 1.377 . S
C1448 C1450 1.384 . S
C1449 C1448 1.377 . S
C1449 C1455 1.390 . S
C1450 H1441 0.930 . S
C1450 C1448 1.384 . S
C1450 C1451 1.372 . S
C1451 C1450 1.372 . S
C1451 C1452 1.400 . S
C1451 C1456 1.490 . S
C1452 H1442 0.930 . S
C1452 C1451 1.400 . S
C1452 C1455 1.386 . S
H1453 C1469 0.930 . S
H1454 C1470 0.931 . S
C1455 H1443 0.929 . S
C1455 C1449 1.390 . S
C1455 C1452 1.386 . S
C1456 C1451 1.490 . S
C1456 C1458 1.395 . S
C1456 C1459 1.403 . S
H1457 C1463 0.930 . S
C1458 H1444 0.930 . S
C1458 C1456 1.395 . S
C1458 C1461 1.403 . S
C1459 C1456 1.403 . S
C1459 C1460 1.524 . S
C1459 C1463 1.400 . S
C1460 H1445 0.960 . S
C1460 H1446 0.960 . S
C1460 H1447 0.960 . S
C1460 C1459 1.524 . S
C1461 C1458 1.403 . S
C1461 C1462 1.392 . S
C1461 C1465 1.495 . S
C1462 C1461 1.392 . S
C1462 C1463 1.385 . S
C1462 C1464 1.478 . S
C1463 H1457 0.930 . S
C1463 C1459 1.400 . S
C1463 C1462 1.385 . S
C1464 C1462 1.478 . S
C1464 C1466 1.381 . S
C1464 C1470 1.383 . S
C1465 C1461 1.495 . S
C1465 H1471 0.959 . S
C1465 H1472 0.961 . S
C1465 H1473 0.960 . S
C1466 C1464 1.381 . S
C1466 C1467 1.394 . S
C1466 H1474 0.930 . S
C1467 C1466 1.394 . S
C1467 C1468 1.383 . S
C1467 H1475 0.929 . S
C1468 C1467 1.383 . S
C1468 C1469 1.377 . S
C1469 H1453 0.930 . S
C1469 C1468 1.377 . S
C1469 C1470 1.379 . S
C1470 H1454 0.931 . S
C1470 C1464 1.383 . S
C1470 C1469 1.379 . S
H1471 C1465 0.959 . S
H1472 C1465 0.961 . S
H1473 C1465 0.960 . S
H1474 C1466 0.930 . S
H1475 C1467 0.929 . S
H1476 C1484 0.929 . S
H1477 C1486 0.930 . S
H1478 C1488 0.930 . S
H1479 C1491 0.929 . S
H1480 C1494 0.930 . S
H1481 C1496 0.960 . S
H1482 C1496 0.960 . S
H1483 C1496 0.960 . S
C1484 H1476 0.929 . S
C1484 C1485 1.377 . S
C1484 C1486 1.384 . S
C1485 C1484 1.377 . S
C1485 C1491 1.390 . S
C1486 H1477 0.930 . S
C1486 C1484 1.384 . S
C1486 C1487 1.372 . S
C1487 C1486 1.372 . S
C1487 C1488 1.400 . S
C1487 C1492 1.490 . S
C1488 H1478 0.930 . S
C1488 C1487 1.400 . S
C1488 C1491 1.386 . S
H1489 C1505 0.930 . S
H1490 C1506 0.931 . S
C1491 H1479 0.929 . S
C1491 C1485 1.390 . S
C1491 C1488 1.386 . S
C1492 C1487 1.490 . S
C1492 C1494 1.395 . S
C1492 C1495 1.403 . S
H1493 C1499 0.930 . S
C1494 H1480 0.930 . S
C1494 C1492 1.395 . S
C1494 C1497 1.403 . S
C1495 C1492 1.403 . S
C1495 C1496 1.524 . S
C1495 C1499 1.400 . S
C1496 H1481 0.960 . S
C1496 H1482 0.960 . S
C1496 H1483 0.960 . S
C1496 C1495 1.524 . S
C1497 C1494 1.403 . S
C1497 C1498 1.392 . S
C1497 C1501 1.495 . S
C1498 C1497 1.392 . S
C1498 C1499 1.385 . S
C1498 C1500 1.478 . S
C1499 H1493 0.930 . S
C1499 C1495 1.400 . S
C1499 C1498 1.385 . S
C1500 C1498 1.478 . S
C1500 C1502 1.381 . S
C1500 C1506 1.383 . S
C1501 C1497 1.495 . S
C1501 H1507 0.959 . S
C1501 H1508 0.961 . S
C1501 H1509 0.960 . S
C1502 C1500 1.381 . S
C1502 C1503 1.394 . S
C1502 H1510 0.930 . S
C1503 C1502 1.394 . S
C1503 C1504 1.383 . S
C1503 H1511 0.929 . S
C1504 C1503 1.383 . S
C1504 C1505 1.377 . S
C1505 H1489 0.930 . S
C1505 C1504 1.377 . S
C1505 C1506 1.379 . S
C1506 H1490 0.931 . S
C1506 C1500 1.383 . S
C1506 C1505 1.379 . S
H1507 C1501 0.959 . S
H1508 C1501 0.961 . S
H1509 C1501 0.960 . S
H1510 C1502 0.930 . S
H1511 C1503 0.929 . S
H1512 C1520 0.929 . S
H1513 C1522 0.930 . S
H1514 C1524 0.930 . S
H1515 C1527 0.929 . S
H1516 C1530 0.930 . S
H1517 C1532 0.960 . S
H1518 C1532 0.960 . S
H1519 C1532 0.960 . S
C1520 H1512 0.929 . S
C1520 C1521 1.377 . S
C1520 C1522 1.384 . S
C1521 C1520 1.377 . S
C1521 C1527 1.390 . S
C1522 H1513 0.930 . S
C1522 C1520 1.384 . S
C1522 C1523 1.372 . S
C1523 C1522 1.372 . S
C1523 C1524 1.400 . S
C1523 C1528 1.490 . S
C1524 H1514 0.930 . S
C1524 C1523 1.400 . S
C1524 C1527 1.386 . S
H1525 C1541 0.930 . S
H1526 C1542 0.931 . S
C1527 H1515 0.929 . S
C1527 C1521 1.390 . S
C1527 C1524 1.386 . S
C1528 C1523 1.490 . S
C1528 C1530 1.395 . S
C1528 C1531 1.403 . S
H1529 C1535 0.930 . S
C1530 H1516 0.930 . S
C1530 C1528 1.395 . S
C1530 C1533 1.403 . S
C1531 C1528 1.403 . S
C1531 C1532 1.524 . S
C1531 C1535 1.400 . S
C1532 H1517 0.960 . S
C1532 H1518 0.960 . S
C1532 H1519 0.960 . S
C1532 C1531 1.524 . S
C1533 C1530 1.403 . S
C1533 C1534 1.392 . S
C1533 C1537 1.495 . S
C1534 C1533 1.392 . S
C1534 C1535 1.385 . S
C1534 C1536 1.478 . S
C1535 H1529 0.930 . S
C1535 C1531 1.400 . S
C1535 C1534 1.385 . S
C1536 C1534 1.478 . S
C1536 C1538 1.381 . S
C1536 C1542 1.383 . S
C1537 C1533 1.495 . S
C1537 H1543 0.959 . S
C1537 H1544 0.961 . S
C1537 H1545 0.960 . S
C1538 C1536 1.381 . S
C1538 C1539 1.394 1_556 S
C1538 H1546 0.930 . S
C1539 C1538 1.394 1_554 S
C1539 C1540 1.383 . S
C1539 H1547 0.929 . S
C1540 C1539 1.383 . S
C1540 C1541 1.377 1_554 S
C1541 H1525 0.930 . S
C1541 C1540 1.377 1_556 S
C1541 C1542 1.379 . S
C1542 H1526 0.931 . S
C1542 C1536 1.383 . S
C1542 C1541 1.379 . S
H1543 C1537 0.959 . S
H1544 C1537 0.961 . S
H1545 C1537 0.960 . S
H1546 C1538 0.930 . S
H1547 C1539 0.929 . S
H1548 C1556 0.929 . S
H1549 C1558 0.930 . S
H1550 C1560 0.930 . S
H1551 C1563 0.929 1_545 S
H1552 C1566 0.930 . S
H1553 C1568 0.960 . S
H1554 C1568 0.960 . S
H1555 C1568 0.960 . S
C1556 H1548 0.929 . S
C1556 C1557 1.377 . S
C1556 C1558 1.384 . S
C1557 C1556 1.377 . S
C1557 C1563 1.390 . S
C1558 H1549 0.930 . S
C1558 C1556 1.384 . S
C1558 C1559 1.372 . S
C1559 C1558 1.372 . S
C1559 C1560 1.400 . S
C1559 C1564 1.490 . S
C1560 H1550 0.930 . S
C1560 C1559 1.400 . S
C1560 C1563 1.386 . S
H1561 C1577 0.930 . S
H1562 C1578 0.931 . S
C1563 H1551 0.929 1_565 S
C1563 C1557 1.390 . S
C1563 C1560 1.386 . S
C1564 C1559 1.490 . S
C1564 C1566 1.395 . S
C1564 C1567 1.403 . S
H1565 C1571 0.930 . S
C1566 H1552 0.930 . S
C1566 C1564 1.395 . S
C1566 C1569 1.403 . S
C1567 C1564 1.403 . S
C1567 C1568 1.524 . S
C1567 C1571 1.400 . S
C1568 H1553 0.960 . S
C1568 H1554 0.960 . S
C1568 H1555 0.960 . S
C1568 C1567 1.524 . S
C1569 C1566 1.403 . S
C1569 C1570 1.392 . S
C1569 C1573 1.495 . S
C1570 C1569 1.392 . S
C1570 C1571 1.385 . S
C1570 C1572 1.478 . S
C1571 H1565 0.930 . S
C1571 C1567 1.400 . S
C1571 C1570 1.385 . S
C1572 C1570 1.478 . S
C1572 C1574 1.381 . S
C1572 C1578 1.383 . S
C1573 C1569 1.495 . S
C1573 H1579 0.959 . S
C1573 H1580 0.961 . S
C1573 H1581 0.960 . S
C1574 C1572 1.381 . S
C1574 C1575 1.394 . S
C1574 H1582 0.930 . S
C1575 C1574 1.394 . S
C1575 C1576 1.383 . S
C1575 H1583 0.929 . S
C1576 C1575 1.383 . S
C1576 C1577 1.377 . S
C1577 H1561 0.930 . S
C1577 C1576 1.377 . S
C1577 C1578 1.379 . S
C1578 H1562 0.931 . S
C1578 C1572 1.383 . S
C1578 C1577 1.379 . S
H1579 C1573 0.959 . S
H1580 C1573 0.961 . S
H1581 C1573 0.960 . S
H1582 C1574 0.930 . S
H1583 C1575 0.929 . S
H1584 C1592 0.929 . S
H1585 C1594 0.930 . S
H1586 C1596 0.930 . S
H1587 C1599 0.929 . S
H1588 C1602 0.930 . S
H1589 C1604 0.960 . S
H1590 C1604 0.960 . S
H1591 C1604 0.960 . S
C1592 H1584 0.929 . S
C1592 C1593 1.377 . S
C1592 C1594 1.384 . S
C1593 C1592 1.377 . S
C1593 C1599 1.390 . S
C1594 H1585 0.930 . S
C1594 C1592 1.384 . S
C1594 C1595 1.372 . S
C1595 C1594 1.372 . S
C1595 C1596 1.400 . S
C1595 C1600 1.490 . S
C1596 H1586 0.930 . S
C1596 C1595 1.400 . S
C1596 C1599 1.386 . S
H1597 C1613 0.930 . S
H1598 C1614 0.931 . S
C1599 H1587 0.929 . S
C1599 C1593 1.390 . S
C1599 C1596 1.386 . S
C1600 C1595 1.490 . S
C1600 C1602 1.395 . S
C1600 C1603 1.403 . S
H1601 C1607 0.930 . S
C1602 H1588 0.930 . S
C1602 C1600 1.395 . S
C1602 C1605 1.403 . S
C1603 C1600 1.403 . S
C1603 C1604 1.524 . S
C1603 C1607 1.400 . S
C1604 H1589 0.960 . S
C1604 H1590 0.960 . S
C1604 H1591 0.960 . S
C1604 C1603 1.524 . S
C1605 C1602 1.403 . S
C1605 C1606 1.392 . S
C1605 C1609 1.495 . S
C1606 C1605 1.392 . S
C1606 C1607 1.385 . S
C1606 C1608 1.478 . S
C1607 H1601 0.930 . S
C1607 C1603 1.400 . S
C1607 C1606 1.385 . S
C1608 C1606 1.478 . S
C1608 C1610 1.381 . S
C1608 C1614 1.383 . S
C1609 C1605 1.495 . S
C1609 H1615 0.959 . S
C1609 H1616 0.961 . S
C1609 H1617 0.960 . S
C1610 C1608 1.381 . S
C1610 C1611 1.394 . S
C1610 H1618 0.930 . S
C1611 C1610 1.394 . S
C1611 C1612 1.383 . S
C1611 H1619 0.929 . S
C1612 C1611 1.383 . S
C1612 C1613 1.377 . S
C1613 H1597 0.930 . S
C1613 C1612 1.377 . S
C1613 C1614 1.379 . S
C1614 H1598 0.931 . S
C1614 C1608 1.383 . S
C1614 C1613 1.379 . S
H1615 C1609 0.959 . S
H1616 C1609 0.961 . S
H1617 C1609 0.960 . S
H1618 C1610 0.930 . S
H1619 C1611 0.929 . S
H1620 C1628 0.929 1_545 S
H1621 C1630 0.930 . S
H1622 C1632 0.930 . S
H1623 C1635 0.929 . S
H1624 C1638 0.930 . S
H1625 C1640 0.960 . S
H1626 C1640 0.960 . S
H1627 C1640 0.960 . S
C1628 H1620 0.929 1_565 S
C1628 C1629 1.377 . S
C1628 C1630 1.384 . S
C1629 C1628 1.377 . S
C1629 C1635 1.390 . S
C1630 H1621 0.930 . S
C1630 C1628 1.384 . S
C1630 C1631 1.372 . S
C1631 C1630 1.372 . S
C1631 C1632 1.400 . S
C1631 C1636 1.490 . S
C1632 H1622 0.930 . S
C1632 C1631 1.400 . S
C1632 C1635 1.386 . S
H1633 C1649 0.930 . S
H1634 C1650 0.931 . S
C1635 H1623 0.929 . S
C1635 C1629 1.390 . S
C1635 C1632 1.386 . S
C1636 C1631 1.490 . S
C1636 C1638 1.395 . S
C1636 C1639 1.403 . S
H1637 C1643 0.930 . S
C1638 H1624 0.930 . S
C1638 C1636 1.395 . S
C1638 C1641 1.403 . S
C1639 C1636 1.403 . S
C1639 C1640 1.524 . S
C1639 C1643 1.400 . S
C1640 H1625 0.960 . S
C1640 H1626 0.960 . S
C1640 H1627 0.960 . S
C1640 C1639 1.524 . S
C1641 C1638 1.403 . S
C1641 C1642 1.392 . S
C1641 C1645 1.495 . S
C1642 C1641 1.392 . S
C1642 C1643 1.385 . S
C1642 C1644 1.478 . S
C1643 H1637 0.930 . S
C1643 C1639 1.400 . S
C1643 C1642 1.385 . S
C1644 C1642 1.478 . S
C1644 C1646 1.381 . S
C1644 C1650 1.383 . S
C1645 C1641 1.495 . S
C1645 H1651 0.959 . S
C1645 H1652 0.961 . S
C1645 H1653 0.960 . S
C1646 C1644 1.381 . S
C1646 C1647 1.394 . S
C1646 H1654 0.930 . S
C1647 C1646 1.394 . S
C1647 C1648 1.383 . S
C1647 H1655 0.929 . S
C1648 C1647 1.383 . S
C1648 C1649 1.377 . S
C1649 H1633 0.930 . S
C1649 C1648 1.377 . S
C1649 C1650 1.379 . S
C1650 H1634 0.931 . S
C1650 C1644 1.383 . S
C1650 C1649 1.379 . S
H1651 C1645 0.959 . S
H1652 C1645 0.961 . S
H1653 C1645 0.960 . S
H1654 C1646 0.930 . S
H1655 C1647 0.929 . S
H1656 C1664 0.929 . S
H1657 C1666 0.930 . S
H1658 C1668 0.930 . S
H1659 C1671 0.929 . S
H1660 C1674 0.930 . S
H1661 C1676 0.960 . S
H1662 C1676 0.960 . S
H1663 C1676 0.960 . S
C1664 H1656 0.929 . S
C1664 C1665 1.377 . S
C1664 C1666 1.384 . S
C1665 C1664 1.377 . S
C1665 C1671 1.390 . S
C1666 H1657 0.930 . S
C1666 C1664 1.384 . S
C1666 C1667 1.372 . S
C1667 C1666 1.372 . S
C1667 C1668 1.400 . S
C1667 C1672 1.490 . S
C1668 H1658 0.930 . S
C1668 C1667 1.400 . S
C1668 C1671 1.386 . S
H1669 C1685 0.930 . S
H1670 C1686 0.931 . S
C1671 H1659 0.929 . S
C1671 C1665 1.390 . S
C1671 C1668 1.386 . S
C1672 C1667 1.490 . S
C1672 C1674 1.395 . S
C1672 C1675 1.403 . S
H1673 C1679 0.930 . S
C1674 H1660 0.930 . S
C1674 C1672 1.395 . S
C1674 C1677 1.403 . S
C1675 C1672 1.403 . S
C1675 C1676 1.524 . S
C1675 C1679 1.400 . S
C1676 H1661 0.960 . S
C1676 H1662 0.960 . S
C1676 H1663 0.960 . S
C1676 C1675 1.524 . S
C1677 C1674 1.403 . S
C1677 C1678 1.392 . S
C1677 C1681 1.495 . S
C1678 C1677 1.392 . S
C1678 C1679 1.385 . S
C1678 C1680 1.478 . S
C1679 H1673 0.930 . S
C1679 C1675 1.400 . S
C1679 C1678 1.385 . S
C1680 C1678 1.478 . S
C1680 C1682 1.381 . S
C1680 C1686 1.383 . S
C1681 C1677 1.495 . S
C1681 H1687 0.959 . S
C1681 H1688 0.961 . S
C1681 H1689 0.960 . S
C1682 C1680 1.381 . S
C1682 C1683 1.394 . S
C1682 H1690 0.930 . S
C1683 C1682 1.394 . S
C1683 C1684 1.383 . S
C1683 H1691 0.929 . S
C1684 C1683 1.383 . S
C1684 C1685 1.377 . S
C1685 H1669 0.930 . S
C1685 C1684 1.377 . S
C1685 C1686 1.379 . S
C1686 H1670 0.931 . S
C1686 C1680 1.383 . S
C1686 C1685 1.379 . S
H1687 C1681 0.959 . S
H1688 C1681 0.961 . S
H1689 C1681 0.960 . S
H1690 C1682 0.930 . S
H1691 C1683 0.929 . S
H1692 C1700 0.929 . S
H1693 C1702 0.930 . S
H1694 C1704 0.930 . S
H1695 C1707 0.929 . S
H1696 C1710 0.930 . S
H1697 C1712 0.960 . S
H1698 C1712 0.960 . S
H1699 C1712 0.960 . S
C1700 H1692 0.929 . S
C1700 C1701 1.377 . S
C1700 C1702 1.384 . S
C1701 C1700 1.377 . S
C1701 C1707 1.390 . S
C1702 H1693 0.930 . S
C1702 C1700 1.384 . S
C1702 C1703 1.372 . S
C1703 C1702 1.372 . S
C1703 C1704 1.400 . S
C1703 C1708 1.490 . S
C1704 H1694 0.930 . S
C1704 C1703 1.400 . S
C1704 C1707 1.386 . S
H1705 C1721 0.930 . S
H1706 C1722 0.931 . S
C1707 H1695 0.929 . S
C1707 C1701 1.390 . S
C1707 C1704 1.386 . S
C1708 C1703 1.490 . S
C1708 C1710 1.395 . S
C1708 C1711 1.403 . S
H1709 C1715 0.930 . S
C1710 H1696 0.930 . S
C1710 C1708 1.395 . S
C1710 C1713 1.403 . S
C1711 C1708 1.403 . S
C1711 C1712 1.524 . S
C1711 C1715 1.400 . S
C1712 H1697 0.960 . S
C1712 H1698 0.960 . S
C1712 H1699 0.960 . S
C1712 C1711 1.524 . S
C1713 C1710 1.403 . S
C1713 C1714 1.392 . S
C1713 C1717 1.495 . S
C1714 C1713 1.392 . S
C1714 C1715 1.385 . S
C1714 C1716 1.478 . S
C1715 H1709 0.930 . S
C1715 C1711 1.400 . S
C1715 C1714 1.385 . S
C1716 C1714 1.478 . S
C1716 C1718 1.381 . S
C1716 C1722 1.383 . S
C1717 C1713 1.495 . S
C1717 H1723 0.959 . S
C1717 H1724 0.961 . S
C1717 H1725 0.960 . S
C1718 C1716 1.381 . S
C1718 C1719 1.394 . S
C1718 H1726 0.930 . S
C1719 C1718 1.394 . S
C1719 C1720 1.383 . S
C1719 H1727 0.929 . S
C1720 C1719 1.383 . S
C1720 C1721 1.377 . S
C1721 H1705 0.930 . S
C1721 C1720 1.377 . S
C1721 C1722 1.379 . S
C1722 H1706 0.931 . S
C1722 C1716 1.383 . S
C1722 C1721 1.379 . S
H1723 C1717 0.959 . S
H1724 C1717 0.961 . S
H1725 C1717 0.960 . S
H1726 C1718 0.930 . S
H1727 C1719 0.929 . S
H1728 C1736 0.929 . S
H1729 C1738 0.930 . S
H1730 C1740 0.930 . S
H1731 C1743 0.929 . S
H1732 C1746 0.930 . S
H1733 C1748 0.960 . S
H1734 C1748 0.960 . S
H1735 C1748 0.960 . S
C1736 H1728 0.929 . S
C1736 C1737 1.377 . S
C1736 C1738 1.384 . S
C1737 C1736 1.377 . S
C1737 C1743 1.390 . S
C1738 H1729 0.930 . S
C1738 C1736 1.384 . S
C1738 C1739 1.372 . S
C1739 C1738 1.372 . S
C1739 C1740 1.400 . S
C1739 C1744 1.490 . S
C1740 H1730 0.930 . S
C1740 C1739 1.400 . S
C1740 C1743 1.386 . S
H1741 C1757 0.930 . S
H1742 C1758 0.931 . S
C1743 H1731 0.929 . S
C1743 C1737 1.390 . S
C1743 C1740 1.386 . S
C1744 C1739 1.490 . S
C1744 C1746 1.395 . S
C1744 C1747 1.403 . S
H1745 C1751 0.930 . S
C1746 H1732 0.930 . S
C1746 C1744 1.395 . S
C1746 C1749 1.403 . S
C1747 C1744 1.403 . S
C1747 C1748 1.524 . S
C1747 C1751 1.400 . S
C1748 H1733 0.960 . S
C1748 H1734 0.960 . S
C1748 H1735 0.960 . S
C1748 C1747 1.524 . S
C1749 C1746 1.403 . S
C1749 C1750 1.392 . S
C1749 C1753 1.495 . S
C1750 C1749 1.392 . S
C1750 C1751 1.385 . S
C1750 C1752 1.478 . S
C1751 H1745 0.930 . S
C1751 C1747 1.400 . S
C1751 C1750 1.385 . S
C1752 C1750 1.478 . S
C1752 C1754 1.381 . S
C1752 C1758 1.383 . S
C1753 C1749 1.495 . S
C1753 H1759 0.959 . S
C1753 H1760 0.961 . S
C1753 H1761 0.960 . S
C1754 C1752 1.381 . S
C1754 C1755 1.394 . S
C1754 H1762 0.930 . S
C1755 C1754 1.394 . S
C1755 C1756 1.383 . S
C1755 H1763 0.929 . S
C1756 C1755 1.383 . S
C1756 C1757 1.377 . S
C1757 H1741 0.930 . S
C1757 C1756 1.377 . S
C1757 C1758 1.379 . S
C1758 H1742 0.931 . S
C1758 C1752 1.383 . S
C1758 C1757 1.379 . S
H1759 C1753 0.959 . S
H1760 C1753 0.961 . S
H1761 C1753 0.960 . S
H1762 C1754 0.930 . S
H1763 C1755 0.929 . S
H1764 C1772 0.929 . S
H1765 C1774 0.930 . S
H1766 C1776 0.930 . S
H1767 C1779 0.929 . S
H1768 C1782 0.930 . S
H1769 C1784 0.960 . S
H1770 C1784 0.960 . S
H1771 C1784 0.960 . S
C1772 H1764 0.929 . S
C1772 C1773 1.377 . S
C1772 C1774 1.384 . S
C1773 C1772 1.377 . S
C1773 C1779 1.390 . S
C1774 H1765 0.930 . S
C1774 C1772 1.384 . S
C1774 C1775 1.372 . S
C1775 C1774 1.372 . S
C1775 C1776 1.400 . S
C1775 C1780 1.490 . S
C1776 H1766 0.930 . S
C1776 C1775 1.400 . S
C1776 C1779 1.386 . S
H1777 C1793 0.930 . S
H1778 C1794 0.931 . S
C1779 H1767 0.929 . S
C1779 C1773 1.390 . S
C1779 C1776 1.386 . S
C1780 C1775 1.490 . S
C1780 C1782 1.395 . S
C1780 C1783 1.403 . S
H1781 C1787 0.930 . S
C1782 H1768 0.930 . S
C1782 C1780 1.395 . S
C1782 C1785 1.403 . S
C1783 C1780 1.403 . S
C1783 C1784 1.524 . S
C1783 C1787 1.400 . S
C1784 H1769 0.960 . S
C1784 H1770 0.960 . S
C1784 H1771 0.960 . S
C1784 C1783 1.524 . S
C1785 C1782 1.403 . S
C1785 C1786 1.392 . S
C1785 C1789 1.495 . S
C1786 C1785 1.392 . S
C1786 C1787 1.385 . S
C1786 C1788 1.478 . S
C1787 H1781 0.930 . S
C1787 C1783 1.400 . S
C1787 C1786 1.385 . S
C1788 C1786 1.478 . S
C1788 C1790 1.434 . S
C1788 C1794 1.383 . S
C1789 C1785 1.495 . S
C1789 H1795 0.959 . S
C1789 H1796 0.961 . S
C1789 H1797 0.960 . S
C1790 C1788 1.434 . S
C1790 C1791 1.336 1_554 S
C1790 H1798 0.939 . S
C1791 C1790 1.336 1_556 S
C1791 C1792 1.383 . S
C1791 H1799 0.929 . S
C1792 C1791 1.383 . S
C1792 C1793 1.377 . S
C1793 H1777 0.930 . S
C1793 C1792 1.377 . S
C1793 C1794 1.379 1_556 S
C1794 H1778 0.931 . S
C1794 C1788 1.383 . S
C1794 C1793 1.379 1_554 S
H1795 C1789 0.959 . S
H1796 C1789 0.961 . S
H1797 C1789 0.960 . S
H1798 C1790 0.939 . S
H1799 C1791 0.929 . S
H1800 C1808 0.929 . S
H1801 C1810 0.930 . S
H1802 C1812 0.930 . S
H1803 C1815 0.929 . S
H1804 C1818 0.930 . S
H1805 C1820 0.960 . S
H1806 C1820 0.960 . S
H1807 C1820 0.960 . S
C1808 H1800 0.929 . S
C1808 C1809 1.377 . S
C1808 C1810 1.384 . S
C1809 C1808 1.377 . S
C1809 C1815 1.390 . S
C1810 H1801 0.930 . S
C1810 C1808 1.384 . S
C1810 C1811 1.372 . S
C1811 C1810 1.372 . S
C1811 C1812 1.400 . S
C1811 C1816 1.490 . S
C1812 H1802 0.930 . S
C1812 C1811 1.400 . S
C1812 C1815 1.386 . S
H1813 C1829 0.930 . S
H1814 C1830 0.931 . S
C1815 H1803 0.929 . S
C1815 C1809 1.390 . S
C1815 C1812 1.386 . S
C1816 C1811 1.490 . S
C1816 C1818 1.395 . S
C1816 C1819 1.403 . S
H1817 C1823 0.930 . S
C1818 H1804 0.930 . S
C1818 C1816 1.395 . S
C1818 C1821 1.403 . S
C1819 C1816 1.403 . S
C1819 C1820 1.524 . S
C1819 C1823 1.400 . S
C1820 H1805 0.960 . S
C1820 H1806 0.960 . S
C1820 H1807 0.960 . S
C1820 C1819 1.524 . S
C1821 C1818 1.403 . S
C1821 C1822 1.392 . S
C1821 C1825 1.495 . S
C1822 C1821 1.392 . S
C1822 C1823 1.385 . S
C1822 C1824 1.478 . S
C1823 H1817 0.930 . S
C1823 C1819 1.400 . S
C1823 C1822 1.385 . S
C1824 C1822 1.478 . S
C1824 C1826 1.381 . S
C1824 C1830 1.383 . S
C1825 C1821 1.495 . S
C1825 H1831 0.959 . S
C1825 H1832 0.961 . S
C1825 H1833 0.960 . S
C1826 C1824 1.381 . S
C1826 C1827 1.394 . S
C1826 H1834 0.930 . S
C1827 C1826 1.394 . S
C1827 C1828 1.383 . S
C1827 H1835 0.929 . S
C1828 C1827 1.383 . S
C1828 C1829 1.377 . S
C1829 H1813 0.930 . S
C1829 C1828 1.377 . S
C1829 C1830 1.379 . S
C1830 H1814 0.931 . S
C1830 C1824 1.383 . S
C1830 C1829 1.379 . S
H1831 C1825 0.959 . S
H1832 C1825 0.961 . S
H1833 C1825 0.960 . S
H1834 C1826 0.930 . S
H1835 C1827 0.929 . S
C1000 C913 1.064 . S
C981 C51 1.066 . S
C1017 C125 1.595 . S
C1036 C473 1.606 . S
C1053 C217 2.684 . S
C1072 C561 2.687 . S
C1089 C291 1.794 . S
C1108 C640 1.807 . S
C1144 C737 0.502 . S
C1125 C347 0.461 . S
C1161 C421 0.794 . S
C1180 C816 0.791 . S
C1197 C143 2.696 . S
C1216 C581 2.692 . S
C1233 C199 1.310 . S
C1252 C677 1.304 . S
C1269 C273 0.484 . S
C1288 C757 0.447 . S
C1324 C853 1.478 . S
C1305 C365 1.465 . S
C1360 C933 2.136 . S
C1341 C439 2.172 . S
C1396 C493 2.507 . S
C1377 C69 2.517 . S
C1413 C63 1.240 . S
C1432 C589 1.302 . S
C1449 C137 1.326 . S
C1468 C669 1.363 . S
C1504 C765 1.189 . S
C1485 C187 1.165 . S
C1521 C261 1.322 . S
C1540 C845 1.357 . S
C1576 C941 1.160 . S
C1557 C359 1.108 . S
C1612 C501 0.886 . S
C1593 C433 0.857 . S
C1648 C904 1.563 . S
C1629 C113 1.543 . S
C1665 C211 1.240 . S
C1684 C464 1.282 . S
C1720 C552 1.370 . S
C1701 C285 1.300 . S
C1737 C335 1.119 . S
C1756 C649 1.127 . S
C1773 C409 1.244 . S
C1792 C728 1.294 . S
C1809 C39 1.708 . S
C1828 C825 1.712 . S
