# Generated by pormake.
# Topology pyr, (3,6)-cn, num edge types: 1
# Building blocks:
#     Node 0, Type 0, BuildingBlock: KAKCAD_clean_linker_0, # of connection points: 3
#     Node 1, Type 0, BuildingBlock: KAKCAD_clean_linker_0, # of connection points: 3
#     Node 2, Type 0, BuildingBlock: KAKCAD_clean_linker_0, # of connection points: 3
#     Node 3, Type 0, BuildingBlock: KAKCAD_clean_linker_0, # of connection points: 3
#     Node 4, Type 0, BuildingBlock: KAKCAD_clean_linker_0, # of connection points: 3
#     Node 5, Type 0, BuildingBlock: KAKCAD_clean_linker_0, # of connection points: 3
#     Node 6, Type 0, BuildingBlock: KAKCAD_clean_linker_0, # of connection points: 3
#     Node 7, Type 0, BuildingBlock: KAKCAD_clean_linker_0, # of connection points: 3
#     Node 8, Type 1, BuildingBlock: BETDEL_clean_sbu_0, # of connection points: 6
#     Node 9, Type 1, BuildingBlock: BETDEL_clean_sbu_0, # of connection points: 6
#     Node 10, Type 1, BuildingBlock: BETDEL_clean_sbu_0, # of connection points: 6
#     Node 11, Type 1, BuildingBlock: BETDEL_clean_sbu_0, # of connection points: 6
#     Edge 12, Type (0, 1), BuildingBlock: EZIPEK_clean_linker_0, # of connection points: 2
#     Edge 13, Type (0, 1), BuildingBlock: EZIPEK_clean_linker_0, # of connection points: 2
#     Edge 14, Type (0, 1), BuildingBlock: EZIPEK_clean_linker_0, # of connection points: 2
#     Edge 15, Type (0, 1), BuildingBlock: EZIPEK_clean_linker_0, # of connection points: 2
#     Edge 16, Type (0, 1), BuildingBlock: EZIPEK_clean_linker_0, # of connection points: 2
#     Edge 17, Type (0, 1), BuildingBlock: EZIPEK_clean_linker_0, # of connection points: 2
#     Edge 18, Type (0, 1), BuildingBlock: EZIPEK_clean_linker_0, # of connection points: 2
#     Edge 19, Type (0, 1), BuildingBlock: EZIPEK_clean_linker_0, # of connection points: 2
#     Edge 20, Type (0, 1), BuildingBlock: EZIPEK_clean_linker_0, # of connection points: 2
#     Edge 21, Type (0, 1), BuildingBlock: EZIPEK_clean_linker_0, # of connection points: 2
#     Edge 22, Type (0, 1), BuildingBlock: EZIPEK_clean_linker_0, # of connection points: 2
#     Edge 23, Type (0, 1), BuildingBlock: EZIPEK_clean_linker_0, # of connection points: 2
#     Edge 24, Type (0, 1), BuildingBlock: EZIPEK_clean_linker_0, # of connection points: 2
#     Edge 25, Type (0, 1), BuildingBlock: EZIPEK_clean_linker_0, # of connection points: 2
#     Edge 26, Type (0, 1), BuildingBlock: EZIPEK_clean_linker_0, # of connection points: 2
#     Edge 27, Type (0, 1), BuildingBlock: EZIPEK_clean_linker_0, # of connection points: 2
#     Edge 28, Type (0, 1), BuildingBlock: EZIPEK_clean_linker_0, # of connection points: 2
#     Edge 29, Type (0, 1), BuildingBlock: EZIPEK_clean_linker_0, # of connection points: 2
#     Edge 30, Type (0, 1), BuildingBlock: EZIPEK_clean_linker_0, # of connection points: 2
#     Edge 31, Type (0, 1), BuildingBlock: EZIPEK_clean_linker_0, # of connection points: 2
#     Edge 32, Type (0, 1), BuildingBlock: EZIPEK_clean_linker_0, # of connection points: 2
#     Edge 33, Type (0, 1), BuildingBlock: EZIPEK_clean_linker_0, # of connection points: 2
#     Edge 34, Type (0, 1), BuildingBlock: EZIPEK_clean_linker_0, # of connection points: 2
#     Edge 35, Type (0, 1), BuildingBlock: EZIPEK_clean_linker_0, # of connection points: 2
# Relax obj value: 0.031
# Max RMSD: 0.091
# Mean RMSD: 0.039
data_MOF--net-pyr--node1-BETDEL_clean_sbu_0--node2-KAKCAD_clean_linker_0--edge1-EZIPEK_clean_linker_0
_symmetry_space_group_name_H-M    P1
_symmetry_Int_Tables_number       1
_symmetry_cell_setting            triclinic
loop_
_symmetry_equiv_pos_as_xyz
'x, y, z'
_cell_length_a     35.262982
_cell_length_b     36.789845
_cell_length_c     34.067567
_cell_angle_alpha  91.956166
_cell_angle_beta   89.194696
_cell_angle_gamma 95.946509
loop_
_atom_site_label
_atom_site_type_symbol
_atom_site_fract_x
_atom_site_fract_y
_atom_site_fract_z
_atom_type_partial_charge
C0 C 0.10037 0.12532 0.22873 0.0
C1 C 0.11901 0.12801 0.26485 0.0
C2 C 0.11856 0.14053 0.1957 0.0
C3 C 0.15566 0.15848 0.19845 0.0
C4 C 0.17403 0.16148 0.23492 0.0
C5 C 0.15573 0.14637 0.268 0.0
C6 C 0.17515 0.17362 0.16311 0.0
C7 C 0.15546 0.19337 0.1372 0.0
C8 C 0.17314 0.20701 0.10288 0.0
C9 C 0.21093 0.20066 0.09437 0.0
C10 C 0.23093 0.18089 0.12019 0.0
C11 C 0.21304 0.16771 0.15465 0.0
C12 C 0.2695 0.17145 0.11009 0.0
C13 C 0.2761 0.15393 0.0738 0.0
C14 C 0.29879 0.17665 0.13789 0.0
C15 C 0.33376 0.16315 0.13006 0.0
C16 C 0.33935 0.14367 0.09473 0.0
C17 C 0.15254 0.23034 0.07819 0.0
C18 C 0.11406 0.22014 0.06907 0.0
C19 C 0.16926 0.26544 0.06939 0.0
C20 C 0.14685 0.29111 0.05538 0.0
C21 C 0.10771 0.28176 0.04981 0.0
C22 C 0.09169 0.2458 0.05493 0.0
C23 C 0.31077 0.13994 0.06626 0.0
H24 H 0.07209 0.11092 0.22604 0.0
H25 H 0.10397 0.13753 0.16783 0.0
H26 H 0.20246 0.17552 0.23781 0.0
H27 H 0.17035 0.14842 0.29587 0.0
H28 H 0.12658 0.1991 0.14443 0.0
H29 H 0.22811 0.15152 0.17405 0.0
H30 H 0.22472 0.21107 0.06778 0.0
H31 H 0.2538 0.14941 0.0521 0.0
H32 H 0.29422 0.19031 0.16598 0.0
H33 H 0.35579 0.16644 0.15212 0.0
H34 H 0.10075 0.19305 0.07534 0.0
H35 H 0.19879 0.27395 0.07642 0.0
H36 H 0.31486 0.12508 0.03877 0.0
H37 H 0.06144 0.23839 0.05075 0.0
H38 H 0.1594 0.31894 0.05159 0.0
C39 C 0.28586 0.87977 0.81427 0.0
C40 C 0.32502 0.88888 0.8203 0.0
C41 C 0.27315 0.86206 0.77912 0.0
C42 C 0.29953 0.85311 0.74989 0.0
C43 C 0.33867 0.86239 0.75633 0.0
C44 C 0.35126 0.88009 0.79121 0.0
C45 C 0.28688 0.83464 0.71231 0.0
C46 C 0.25728 0.84686 0.69092 0.0
C47 C 0.24829 0.83202 0.6532 0.0
C48 C 0.26918 0.80431 0.63707 0.0
C49 C 0.29865 0.79152 0.65855 0.0
C50 C 0.30669 0.80648 0.69629 0.0
C51 C 0.32231 0.76345 0.64194 0.0
C52 C 0.30556 0.73142 0.6228 0.0
C53 C 0.36206 0.76771 0.64745 0.0
C54 C 0.38434 0.74009 0.63551 0.0
C55 C 0.36741 0.70778 0.61754 0.0
C56 C 0.21901 0.84781 0.63005 0.0
C57 C 0.18395 0.85465 0.64753 0.0
C58 C 0.22719 0.85909 0.59156 0.0
C59 C 0.20146 0.8781 0.57157 0.0
C60 C 0.16703 0.88575 0.5896 0.0
C61 C 0.15808 0.87332 0.62738 0.0
C62 C 0.328 0.70372 0.61069 0.0
H63 H 0.26533 0.88658 0.83657 0.0
H64 H 0.24285 0.85511 0.77489 0.0
H65 H 0.35962 0.85648 0.73409 0.0
H66 H 0.38155 0.88724 0.79542 0.0
H67 H 0.2426 0.86935 0.70277 0.0
H68 H 0.32888 0.79636 0.71332 0.0
H69 H 0.26297 0.79326 0.6077 0.0
H70 H 0.27505 0.72731 0.61832 0.0
H71 H 0.37594 0.79236 0.66143 0.0
H72 H 0.41479 0.74376 0.64054 0.0
H73 H 0.17686 0.84611 0.67709 0.0
H74 H 0.25414 0.85456 0.57755 0.0
H75 H 0.31462 0.67893 0.59658 0.0
H76 H 0.13154 0.87893 0.64161 0.0
H77 H 0.20872 0.88753 0.54237 0.0
C78 C 0.75901 0.42556 0.90487 0.0
C79 C 0.79025 0.40573 0.91095 0.0
C80 C 0.72537 0.40835 0.88823 0.0
C81 C 0.72212 0.37082 0.87759 0.0
C82 C 0.75336 0.35096 0.88434 0.0
C83 C 0.7871 0.36827 0.90066 0.0
C84 C 0.68678 0.35259 0.85853 0.0
C85 C 0.66934 0.3696 0.82821 0.0
C86 C 0.63739 0.35208 0.80796 0.0
C87 C 0.62188 0.31716 0.82055 0.0
C88 C 0.63833 0.29992 0.85176 0.0
C89 C 0.67098 0.31789 0.87004 0.0
C90 C 0.62185 0.2632 0.86578 0.0
C91 C 0.58226 0.25496 0.87146 0.0
C92 C 0.64594 0.23664 0.87564 0.0
C93 C 0.63104 0.20323 0.8912 0.0
C94 C 0.59167 0.19547 0.89761 0.0
C95 C 0.62124 0.37029 0.77351 0.0
C96 C 0.64474 0.39513 0.75067 0.0
C97 C 0.58245 0.36358 0.76302 0.0
C98 C 0.56794 0.38102 0.73111 0.0
C99 C 0.59146 0.40643 0.70928 0.0
C100 C 0.62998 0.41332 0.71974 0.0
C101 C 0.56738 0.22156 0.88735 0.0
H102 H 0.76086 0.45449 0.91265 0.0
H103 H 0.70181 0.42441 0.88383 0.0
H104 H 0.75203 0.32215 0.87615 0.0
H105 H 0.8109 0.35249 0.90502 0.0
H106 H 0.68128 0.39664 0.82022 0.0
H107 H 0.6837 0.30522 0.89418 0.0
H108 H 0.59774 0.30273 0.80546 0.0
H109 H 0.56284 0.27474 0.86458 0.0
H110 H 0.67649 0.24169 0.87128 0.0
H111 H 0.65032 0.18345 0.89853 0.0
H112 H 0.67497 0.40049 0.75612 0.0
H113 H 0.56296 0.3452 0.77966 0.0
H114 H 0.53687 0.21611 0.89182 0.0
H115 H 0.64896 0.43249 0.70339 0.0
H116 H 0.53814 0.37496 0.72369 0.0
C117 C 0.86972 0.59633 0.20853 0.0
C118 C 0.90944 0.5977 0.20391 0.0
C119 C 0.85365 0.6137 0.24108 0.0
C120 C 0.87692 0.63281 0.26996 0.0
C121 C 0.91681 0.63419 0.265 0.0
C122 C 0.93285 0.61688 0.23234 0.0
C123 C 0.85957 0.65095 0.30504 0.0
C124 C 0.82614 0.63438 0.32295 0.0
C125 C 0.80897 0.65117 0.35546 0.0
C126 C 0.82561 0.68534 0.37001 0.0
C127 C 0.85909 0.70242 0.35286 0.0
C128 C 0.87601 0.68492 0.32065 0.0
C129 C 0.87611 0.73881 0.36836 0.0
C130 C 0.85398 0.76846 0.37206 0.0
C131 C 0.9145 0.74412 0.37981 0.0
C132 C 0.93021 0.77813 0.39527 0.0
C133 C 0.90815 0.80787 0.39875 0.0
C134 C 0.77356 0.63285 0.37385 0.0
C135 C 0.74353 0.61713 0.35036 0.0
C136 C 0.76904 0.63135 0.41477 0.0
C137 C 0.73631 0.61271 0.43155 0.0
C138 C 0.70732 0.59353 0.40813 0.0
C139 C 0.71069 0.59894 0.36712 0.0
C140 C 0.86995 0.80272 0.3866 0.0
H141 H 0.85114 0.5819 0.18681 0.0
H142 H 0.82289 0.61249 0.24332 0.0
H143 H 0.93574 0.64817 0.28668 0.0
H144 H 0.96358 0.61826 0.22934 0.0
H145 H 0.81381 0.60778 0.31216 0.0
H146 H 0.90134 0.69846 0.307 0.0
H147 H 0.81245 0.69877 0.3947 0.0
H148 H 0.8244 0.76523 0.36323 0.0
H149 H 0.93217 0.72173 0.37744 0.0
H150 H 0.95969 0.78132 0.40445 0.0
H151 H 0.74498 0.61965 0.31876 0.0
H152 H 0.79099 0.64439 0.43398 0.0
H153 H 0.85238 0.82519 0.38874 0.0
H154 H 0.688 0.59048 0.34702 0.0
H155 H 0.73389 0.61428 0.46318 0.0
C156 C 0.88367 0.83073 0.72372 0.0
C157 C 0.88674 0.86856 0.71885 0.0
C158 C 0.85769 0.81484 0.751 0.0
C159 C 0.83493 0.83672 0.77407 0.0
C160 C 0.83806 0.87463 0.7686 0.0
C161 C 0.86364 0.89037 0.74105 0.0
C162 C 0.81065 0.8209 0.80627 0.0
C163 C 0.82457 0.79545 0.83047 0.0
C164 C 0.80486 0.78449 0.86469 0.0
C165 C 0.77089 0.79914 0.875 0.0
C166 C 0.75612 0.82422 0.85064 0.0
C167 C 0.77573 0.83423 0.81584 0.0
C168 C 0.72267 0.84292 0.86355 0.0
C169 C 0.69156 0.82379 0.88276 0.0
C170 C 0.72299 0.88084 0.8591 0.0
C171 C 0.69349 0.89942 0.87463 0.0
C172 C 0.66342 0.88046 0.89506 0.0
C173 C 0.82238 0.76025 0.89092 0.0
C174 C 0.83434 0.72746 0.8755 0.0
C175 C 0.83194 0.77196 0.92954 0.0
C176 C 0.85505 0.75199 0.95172 0.0
C177 C 0.8683 0.72011 0.93541 0.0
C178 C 0.85709 0.70748 0.89767 0.0
C179 C 0.66212 0.84252 0.89855 0.0
H180 H 0.90125 0.81365 0.70638 0.0
H181 H 0.85568 0.78553 0.75433 0.0
H182 H 0.82165 0.89238 0.78647 0.0
H183 H 0.86585 0.91966 0.73741 0.0
H184 H 0.85212 0.78583 0.82416 0.0
H185 H 0.76441 0.8534 0.79679 0.0
H186 H 0.7568 0.7919 0.90255 0.0
H187 H 0.69037 0.79455 0.88625 0.0
H188 H 0.74683 0.89651 0.84514 0.0
H189 H 0.69487 0.92881 0.87213 0.0
H190 H 0.82728 0.71809 0.84574 0.0
H191 H 0.82332 0.79747 0.94168 0.0
H192 H 0.63895 0.82768 0.91444 0.0
H193 H 0.86712 0.6828 0.88487 0.0
H194 H 0.86366 0.76196 0.98087 0.0
C195 C 0.70003 0.11086 0.24228 0.0
C196 C 0.6902 0.13027 0.20987 0.0
C197 C 0.71904 0.12927 0.27397 0.0
C198 C 0.7282 0.16737 0.27369 0.0
C199 C 0.72001 0.18638 0.24024 0.0
C200 C 0.70123 0.16793 0.20849 0.0
C201 C 0.74278 0.18765 0.30955 0.0
C202 C 0.77212 0.17544 0.33118 0.0
C203 C 0.78367 0.19301 0.36692 0.0
C204 C 0.76578 0.22357 0.38077 0.0
C205 C 0.73645 0.23652 0.35901 0.0
C206 C 0.72512 0.21793 0.32366 0.0
C207 C 0.71586 0.26805 0.37329 0.0
C208 C 0.70809 0.27399 0.41353 0.0
C209 C 0.70118 0.29095 0.34616 0.0
C210 C 0.67729 0.31714 0.35851 0.0
C211 C 0.66857 0.32215 0.39846 0.0
C212 C 0.81265 0.17726 0.39043 0.0
C213 C 0.8465 0.16762 0.37245 0.0
C214 C 0.80454 0.16755 0.42942 0.0
C215 C 0.82869 0.14664 0.4492 0.0
C216 C 0.86147 0.13552 0.43042 0.0
C217 C 0.87083 0.1471 0.39237 0.0
C218 C 0.68503 0.30107 0.426 0.0
H219 H 0.69154 0.08177 0.24373 0.0
H220 H 0.72473 0.11403 0.29951 0.0
H221 H 0.72711 0.2157 0.2392 0.0
H222 H 0.69381 0.18321 0.18358 0.0
H223 H 0.78527 0.15151 0.3207 0.0
H224 H 0.70109 0.2259 0.30772 0.0
H225 H 0.77492 0.2372 0.40822 0.0
H226 H 0.71853 0.25687 0.43534 0.0
H227 H 0.70745 0.28821 0.31507 0.0
H228 H 0.66523 0.3333 0.33678 0.0
H229 H 0.85344 0.1749 0.34245 0.0
H230 H 0.77847 0.17435 0.44378 0.0
H231 H 0.67884 0.30468 0.45704 0.0
H232 H 0.89611 0.1389 0.37753 0.0
H233 H 0.82109 0.13795 0.4786 0.0
C234 C 0.2231 0.60786 0.13843 0.0
C235 C 0.21664 0.61209 0.09833 0.0
C236 C 0.25692 0.62354 0.15602 0.0
C237 C 0.28552 0.64348 0.13383 0.0
C238 C 0.27902 0.64721 0.09345 0.0
C239 C 0.24492 0.63199 0.07604 0.0
C240 C 0.32163 0.66063 0.15278 0.0
C241 C 0.33815 0.64365 0.18387 0.0
C242 C 0.3714 0.65986 0.20275 0.0
C243 C 0.38892 0.69351 0.18893 0.0
C244 C 0.37344 0.7108 0.15723 0.0
C245 C 0.33956 0.69425 0.14002 0.0
C246 C 0.39209 0.74616 0.14162 0.0
C247 C 0.40739 0.77492 0.16695 0.0
C248 C 0.39365 0.75182 0.10083 0.0
C249 C 0.40959 0.78514 0.08589 0.0
C250 C 0.42444 0.81383 0.11124 0.0
C251 C 0.38732 0.64128 0.23678 0.0
C252 C 0.36273 0.62237 0.26406 0.0
C253 C 0.42695 0.64162 0.24216 0.0
C254 C 0.4414 0.62361 0.27364 0.0
C255 C 0.41665 0.6047 0.30051 0.0
C256 C 0.37719 0.60431 0.29536 0.0
C257 C 0.42326 0.80838 0.15193 0.0
H258 H 0.20167 0.59275 0.1563 0.0
H259 H 0.26024 0.62048 0.18723 0.0
H260 H 0.3004 0.66167 0.07502 0.0
H261 H 0.24065 0.63561 0.04505 0.0
H262 H 0.32547 0.61716 0.19293 0.0
H263 H 0.32656 0.70821 0.11706 0.0
H264 H 0.4146 0.70626 0.20281 0.0
H265 H 0.40645 0.77185 0.19846 0.0
H266 H 0.38272 0.73029 0.08027 0.0
H267 H 0.41041 0.78853 0.05441 0.0
H268 H 0.33211 0.6219 0.26163 0.0
H269 H 0.44691 0.6554 0.22176 0.0
H270 H 0.43466 0.83006 0.17208 0.0
H271 H 0.35751 0.59036 0.31593 0.0
H272 H 0.47197 0.62451 0.27712 0.0
C273 C 0.14621 0.22387 0.61827 0.0
C274 C 0.10655 0.21494 0.61742 0.0
C275 C 0.16187 0.25805 0.63313 0.0
C276 C 0.1383 0.28445 0.64728 0.0
C277 C 0.0985 0.27511 0.64702 0.0
C278 C 0.08284 0.24074 0.63232 0.0
C279 C 0.15538 0.32165 0.66134 0.0
C280 C 0.18769 0.33882 0.6421 0.0
C281 C 0.20551 0.37301 0.65539 0.0
C282 C 0.18974 0.39056 0.68834 0.0
C283 C 0.15676 0.37453 0.70762 0.0
C284 C 0.13992 0.34004 0.69386 0.0
C285 C 0.1399 0.39372 0.74218 0.0
C286 C 0.16316 0.41022 0.77249 0.0
C287 C 0.1003 0.39579 0.74507 0.0
C288 C 0.08445 0.41421 0.77707 0.0
C289 C 0.10771 0.43065 0.8073 0.0
C290 C 0.24064 0.38985 0.63469 0.0
C291 C 0.26777 0.36764 0.61896 0.0
C292 C 0.24726 0.42793 0.62983 0.0
C293 C 0.27986 0.44316 0.60966 0.0
C294 C 0.30641 0.42067 0.59358 0.0
C295 C 0.3 0.3828 0.59853 0.0
C296 C 0.14722 0.42819 0.80481 0.0
H297 H 0.16508 0.2044 0.60709 0.0
H298 H 0.19262 0.26375 0.63354 0.0
H299 H 0.07935 0.29466 0.65727 0.0
H300 H 0.05215 0.23448 0.63192 0.0
H301 H 0.19861 0.32571 0.61598 0.0
H302 H 0.11533 0.32707 0.70927 0.0
H303 H 0.20308 0.4168 0.69905 0.0
H304 H 0.19369 0.40884 0.77147 0.0
H305 H 0.08156 0.38367 0.72218 0.0
H306 H 0.05394 0.41571 0.77823 0.0
H307 H 0.2644 0.33837 0.62271 0.0
H308 H 0.227 0.44599 0.64107 0.0
H309 H 0.16577 0.44043 0.8278 0.0
H310 H 0.32024 0.36491 0.58678 0.0
H311 H 0.28429 0.47248 0.60642 0.0
Dy312 Dy 0.03281 0.02116 0.46713 0.0
C313 C 0.98061 0.95532 0.6121 0.0
C314 C 0.05592 0.0567 0.40165 0.0
Dy315 Dy 0.99536 0.99601 0.54792 0.0
O316 O 0.07815 0.0411 0.42436 0.0
O317 O 0.02087 0.05281 0.41436 0.0
O318 O 0.06903 0.97464 0.46866 0.0
O319 O 0.05229 0.99981 0.52167 0.0
C320 C 0.06896 0.97375 0.50678 0.0
C321 C 0.94778 0.03301 0.50717 0.0
O322 O 0.02919 0.0482 0.56853 0.0
O323 O 0.04866 0.07042 0.50704 0.0
O324 O 0.97274 0.98888 0.60914 0.0
O325 O 0.99726 0.94441 0.58024 0.0
O326 O 0.93902 0.0205 0.54173 0.0
O327 O 0.97999 0.02375 0.49788 0.0
O328 O 0.99255 0.97389 0.44531 0.0
O329 O 0.97926 0.94801 0.50614 0.0
C330 C 0.04548 0.07444 0.54593 0.0
C331 C 0.9778 0.94657 0.46712 0.0
Dy332 Dy 0.53696 0.01967 0.04558 0.0
C333 C 0.41796 0.96052 0.93966 0.0
C334 C 0.58905 0.05446 0.09558 0.0
Dy335 Dy 0.4758 0.99682 0.98155 0.0
O336 O 0.5562 0.03824 0.10606 0.0
O337 O 0.59359 0.05179 0.05774 0.0
O338 O 0.53325 0.96193 0.0663 0.0
O339 O 0.48525 0.98051 0.04179 0.0
C340 C 0.4986 0.95256 0.05465 0.0
C341 C 0.51938 0.05868 0.95953 0.0
O342 O 0.44348 0.03396 0.01868 0.0
O343 O 0.49221 0.05673 0.06153 0.0
O344 O 0.41431 0.97412 0.975 0.0
O345 O 0.45287 0.96684 0.9272 0.0
O346 O 0.49105 0.04267 0.93928 0.0
O347 O 0.52154 0.04047 0.99004 0.0
O348 O 0.57148 0.99538 0.99833 0.0
O349 O 0.52062 0.95866 0.97088 0.0
C350 C 0.45726 0.05608 0.04766 0.0
C351 C 0.5577 0.96757 0.9754 0.0
Dy352 Dy 0.51784 0.47593 0.4803 0.0
C353 C 0.45864 0.59165 0.5711 0.0
C354 C 0.56235 0.42618 0.4473 0.0
Dy355 Dy 0.49792 0.54356 0.52909 0.0
O356 O 0.52594 0.41992 0.45434 0.0
O357 O 0.5738 0.45982 0.45715 0.0
O358 O 0.45544 0.45575 0.47549 0.0
O359 O 0.47529 0.4862 0.52538 0.0
C360 C 0.4457 0.47139 0.50849 0.0
C361 C 0.56122 0.5546 0.48348 0.0
O362 O 0.52285 0.51336 0.57779 0.0
O363 O 0.5357 0.46127 0.54069 0.0
O364 O 0.49562 0.59169 0.5715 0.0
O365 O 0.44347 0.56506 0.54858 0.0
O366 O 0.54126 0.58068 0.49518 0.0
O367 O 0.54923 0.52628 0.5014 0.0
O368 O 0.50085 0.51144 0.43213 0.0
O369 O 0.46601 0.54769 0.47263 0.0
C370 C 0.53576 0.48049 0.57459 0.0
C371 C 0.47635 0.5364 0.43707 0.0
Dy372 Dy 0.01118 0.47729 0.02146 0.0
C373 C 0.96265 0.61379 0.9769 0.0
C374 C 0.03117 0.40925 0.03067 0.0
Dy375 Dy 0.99351 0.54981 0.98493 0.0
O376 O 0.00388 0.42306 0.0503 0.0
O377 O 0.04716 0.43235 0.00603 0.0
O378 O 0.00815 0.50248 0.08224 0.0
O379 O 0.97471 0.52056 0.03808 0.0
C380 C 0.98502 0.52632 0.07345 0.0
C381 C 0.0316 0.51063 0.93143 0.0
O382 O 0.04676 0.56725 0.02001 0.0
O383 O 0.06756 0.51028 0.02948 0.0
O384 O 0.94459 0.58148 0.97261 0.0
O385 O 0.99816 0.61148 0.98516 0.0
O386 O 0.02051 0.54245 0.92441 0.0
O387 O 0.02134 0.50304 0.966 0.0
O388 O 0.95533 0.45834 0.99254 0.0
O389 O 0.94009 0.51388 0.96914 0.0
C390 C 0.07305 0.54644 0.0311 0.0
C391 C 0.93224 0.47829 0.9742 0.0
C392 C 0.08004 0.12951 0.32661 0.0
C393 C 0.1009 0.10955 0.29902 0.0
C394 C 0.08591 0.0538 0.33549 0.0
C395 C 0.06885 0.07461 0.36533 0.0
N396 N 0.05273 0.13266 0.39219 0.0
N397 N 0.12771 0.0541 0.27853 0.0
C398 C 0.06637 0.11256 0.3616 0.0
C399 C 0.10491 0.07203 0.30376 0.0
N400 N 0.07297 0.16443 0.31905 0.0
N401 N 0.08267 0.01647 0.3368 0.0
H402 H 0.14146 0.06628 0.25426 0.0
H403 H 0.13533 0.02801 0.28321 0.0
H404 H 0.06823 1.00207 0.3593 0.0
H405 H 0.09105 0.99956 0.31385 0.0
H406 H 0.05451 0.17905 0.33591 0.0
H407 H 0.08336 0.17794 0.29406 0.0
H408 H 0.05421 0.16108 0.39299 0.0
H409 H 0.04235 0.12119 0.4183 0.0
C410 C 0.35014 0.88863 0.88869 0.0
C411 C 0.33956 0.90865 0.85644 0.0
C412 C 0.37409 0.96468 0.88374 0.0
C413 C 0.38642 0.94424 0.91482 0.0
N414 N 0.37968 0.88998 0.95288 0.0
N415 N 0.33268 0.96634 0.82757 0.0
C416 C 0.372 0.90724 0.91941 0.0
C417 C 0.34856 0.94703 0.85554 0.0
N418 N 0.34089 0.85161 0.88877 0.0
N419 N 0.38786 1.00063 0.88063 0.0
H420 H 0.314 0.95391 0.80646 0.0
H421 H 0.33535 0.99475 0.82703 0.0
H422 H 0.40477 0.01494 0.90211 0.0
H423 H 0.38387 0.01604 0.85626 0.0
H424 H 0.35141 0.83459 0.90886 0.0
H425 H 0.32366 0.83751 0.86742 0.0
H426 H 0.36747 0.86397 0.95972 0.0
H427 H 0.39619 0.90292 0.97549 0.0
C428 C 0.54589 0.4477 0.68003 0.0
C429 C 0.57642 0.42544 0.675 0.0
C430 C 0.58426 0.44546 0.60688 0.0
C431 C 0.55043 0.46339 0.61016 0.0
N432 N 0.49429 0.47399 0.64884 0.0
N433 N 0.61818 0.39649 0.62968 0.0
C434 C 0.5299 0.46251 0.64649 0.0
C435 C 0.59372 0.42239 0.63724 0.0
N436 N 0.53293 0.45598 0.71689 0.0
N437 N 0.60844 0.45159 0.57556 0.0
H438 H 0.62453 0.37786 0.6504 0.0
H439 H 0.62871 0.39091 0.60161 0.0
H440 H 0.60406 0.4701 0.55396 0.0
H441 H 0.63507 0.44167 0.57361 0.0
H442 H 0.51336 0.47497 0.72236 0.0
H443 H 0.54461 0.44688 0.74226 0.0
H444 H 0.47671 0.47031 0.67354 0.0
H445 H 0.48059 0.48351 0.62494 0.0
C446 C 0.94077 0.60006 0.1368 0.0
C447 C 0.92657 0.57921 0.16911 0.0
C448 C 0.94276 0.52322 0.13402 0.0
C449 C 0.962 0.54457 0.10436 0.0
N450 N 0.98107 0.60395 0.07872 0.0
N451 N 0.9174 0.52124 0.20058 0.0
C452 C 0.96118 0.58317 0.10594 0.0
C453 C 0.92841 0.54083 0.16824 0.0
N454 N 0.93392 0.63588 0.13512 0.0
N455 N 0.93658 0.4861 0.12865 0.0
H456 H 0.90626 0.533 0.22594 0.0
H457 H 0.92215 0.49399 0.20347 0.0
H458 H 0.94487 0.47239 0.10315 0.0
H459 H 0.91956 0.46935 0.14734 0.0
H460 H 0.9396 0.65148 0.11038 0.0
H461 H 0.91952 0.64924 0.15735 0.0
H462 H 0.98592 0.63235 0.08086 0.0
H463 H 0.99454 0.59238 0.05489 0.0
C464 C 0.3998 0.1373 0.05749 0.0
C465 C 0.37416 0.12514 0.08781 0.0
C466 C 0.41139 0.07404 0.09903 0.0
C467 C 0.43241 0.08245 0.0643 0.0
N468 N 0.44683 0.12121 0.00922 0.0
N469 N 0.35282 0.07982 0.13531 0.0
C470 C 0.42694 0.11406 0.0433 0.0
C471 C 0.37947 0.0932 0.1085 0.0
N472 N 0.3983 0.17119 0.04267 0.0
N473 N 0.42185 0.04769 0.1228 0.0
H474 H 0.32859 0.0926 0.14283 0.0
H475 H 0.35308 0.0544 0.1478 0.0
H476 H 0.44541 0.03342 0.11669 0.0
H477 H 0.40966 0.04266 0.15036 0.0
H478 H 0.41844 0.18302 0.02302 0.0
H479 H 0.37883 0.18893 0.0529 0.0
H480 H 0.44098 0.14144 0.99022 0.0
H481 H 0.4679 0.10541 0.9987 0.0
C482 C 0.11366 0.89094 0.54267 0.0
C483 C 0.14096 0.90805 0.56935 0.0
C484 C 0.12297 0.96832 0.55299 0.0
C485 C 0.09337 0.95113 0.52883 0.0
N486 N 0.05747 0.89596 0.50391 0.0
N487 N 0.16818 0.96225 0.60468 0.0
C488 C 0.08794 0.91237 0.52446 0.0
C489 C 0.14443 0.94651 0.57608 0.0
N490 N 0.11284 0.85426 0.53418 0.0
N491 N 0.13242 1.00529 0.55186 0.0
H492 H 0.1856 0.94745 0.62114 0.0
H493 H 0.16846 0.98948 0.6142 0.0
H494 H 0.11878 0.0222 0.53399 0.0
H495 H 0.1563 0.01883 0.5656 0.0
H496 H 0.09689 0.84083 0.51155 0.0
H497 H 0.13016 0.83744 0.54814 0.0
H498 H 0.04921 0.86796 0.50345 0.0
H499 H 0.03855 0.91063 0.48947 0.0
C500 C 0.85421 0.44219 0.90168 0.0
C501 C 0.82664 0.42439 0.92729 0.0
C502 C 0.8671 0.44427 0.98399 0.0
C503 C 0.89583 0.45978 0.95811 0.0
N504 N 0.91937 0.4691 0.89203 0.0
N505 N 0.80824 0.40451 0.99211 0.0
C506 C 0.89003 0.45768 0.91685 0.0
C507 C 0.83356 0.42424 0.96827 0.0
N508 N 0.8459 0.44475 0.86284 0.0
N509 N 0.87114 0.4501 0.02366 0.0
H510 H 0.78272 0.39075 0.98196 0.0
H511 H 0.81358 0.39966 0.02135 0.0
H512 H 0.89508 0.46481 0.03622 0.0
H513 H 0.8496 0.44306 0.04405 0.0
H514 H 0.86263 0.46107 0.84354 0.0
H515 H 0.82076 0.43248 0.85029 0.0
H516 H 0.91866 0.46442 0.86174 0.0
H517 H 0.94586 0.48085 0.90187 0.0
C518 C 0.66977 0.56501 0.46757 0.0
C519 C 0.67214 0.57231 0.42678 0.0
C520 C 0.60281 0.56133 0.42287 0.0
C521 C 0.59965 0.56059 0.46436 0.0
N522 N 0.6309 0.56139 0.52703 0.0
N523 N 0.64208 0.54255 0.36954 0.0
C524 C 0.63339 0.5618 0.487 0.0
C525 C 0.63906 0.56072 0.40476 0.0
N526 N 0.70127 0.5558 0.48613 0.0
N527 N 0.57156 0.56324 0.40031 0.0
H528 H 0.66809 0.53424 0.35966 0.0
H529 H 0.61832 0.53087 0.35398 0.0
H530 H 0.54497 0.56672 0.41251 0.0
H531 H 0.57349 0.56574 0.36991 0.0
H532 H 0.70091 0.54687 0.51482 0.0
H533 H 0.72649 0.55225 0.4707 0.0
H534 H 0.65456 0.56629 0.54515 0.0
H535 H 0.60493 0.55901 0.54225 0.0
C536 C 0.07074 0.31963 0.00763 0.0
C537 C 0.08283 0.31106 0.04531 0.0
C538 C 0.05756 0.36521 0.07458 0.0
C539 C 0.04466 0.37346 0.03699 0.0
N540 N 0.03005 0.35433 0.97006 0.0
N541 N 0.0795 0.31958 0.11582 0.0
C542 C 0.04852 0.34932 0.00415 0.0
C543 C 0.07336 0.33182 0.07921 0.0
N544 N 0.08153 0.30017 0.97521 0.0
N545 N 0.05735 0.39024 0.1052 0.0
H546 H 0.09163 0.29542 0.12046 0.0
H547 H 0.06938 0.33157 0.14151 0.0
H548 H 0.04675 0.41549 0.10322 0.0
H549 H 0.07073 0.38735 0.13181 0.0
H550 H 0.07731 0.30778 0.94655 0.0
H551 H 0.09695 0.27757 0.97696 0.0
H552 H 0.02889 0.33577 0.94623 0.0
H553 H 0.01257 0.37526 0.96713 0.0
C554 C 0.5732 0.15593 0.95592 0.0
C555 C 0.57596 0.15973 0.91455 0.0
C556 C 0.55292 0.09462 0.90531 0.0
C557 C 0.54433 0.09204 0.94616 0.0
N558 N 0.54729 0.12094 0.01095 0.0
N559 N 0.56578 0.13332 0.84943 0.0
C560 C 0.55524 0.12276 0.97174 0.0
C561 C 0.5651 0.12921 0.88917 0.0
N562 N 0.58831 0.18397 0.98015 0.0
N563 N 0.55147 0.06346 0.88213 0.0
H564 H 0.57576 0.15777 0.83636 0.0
H565 H 0.55382 0.11337 0.82958 0.0
H566 H 0.54534 0.03749 0.89333 0.0
H567 H 0.56084 0.06292 0.85298 0.0
H568 H 0.59148 0.18173 0.01029 0.0
H569 H 0.60029 0.20897 0.96974 0.0
H570 H 0.54904 0.14358 0.03022 0.0
H571 H 0.53754 0.09678 0.0242 0.0
C572 C 0.95695 0.86346 0.39622 0.0
C573 C 0.9251 0.84432 0.41513 0.0
C574 C 0.92354 0.89607 0.46252 0.0
C575 C 0.95887 0.91241 0.44751 0.0
N576 N 0.01305 0.90659 0.40408 0.0
N577 N 0.88293 0.83979 0.47166 0.0
C578 C 0.97662 0.89484 0.41531 0.0
C579 C 0.9097 0.85991 0.4498 0.0
N580 N 0.9679 0.85239 0.35947 0.0
N581 N 0.90222 0.91555 0.48772 0.0
H582 H 0.87293 0.81279 0.46427 0.0
H583 H 0.87368 0.84866 0.49922 0.0
H584 H 0.91008 0.94282 0.49595 0.0
H585 H 0.87472 0.90602 0.49675 0.0
H586 H 0.98851 0.86751 0.34281 0.0
H587 H 0.95364 0.83024 0.34401 0.0
H588 H 0.02847 0.89228 0.38354 0.0
H589 H 0.02945 0.92825 0.41806 0.0
C590 C 0.40709 0.67714 0.56738 0.0
C591 C 0.39135 0.67826 0.60588 0.0
C592 C 0.42489 0.62589 0.62341 0.0
C593 C 0.43785 0.62287 0.58403 0.0
N594 N 0.43993 0.6434 0.5174 0.0
N595 N 0.38191 0.65259 0.66987 0.0
C596 C 0.42862 0.64794 0.55569 0.0
C597 C 0.39944 0.65237 0.63381 0.0
N598 N 0.40227 0.7046 0.5424 0.0
N599 N 0.43731 0.60366 0.65081 0.0
H600 H 0.36365 0.67197 0.67869 0.0
H601 H 0.38329 0.6323 0.69019 0.0
H602 H 0.45541 0.58362 0.64379 0.0
H603 H 0.43208 0.60663 0.68082 0.0
H604 H 0.41657 0.70785 0.51562 0.0
H605 H 0.38579 0.72589 0.54955 0.0
H606 H 0.43011 0.65759 0.49433 0.0
H607 H 0.45789 0.62394 0.50809 0.0
C608 C 0.90134 0.88877 0.65095 0.0
C609 C 0.91368 0.88591 0.68997 0.0
C610 C 0.97364 0.92306 0.67544 0.0
C611 C 0.95906 0.9297 0.63821 0.0
N612 N 0.90857 0.92144 0.59043 0.0
N613 N 0.96046 0.89995 0.74066 0.0
C614 C 0.92295 0.91294 0.62571 0.0
C615 C 0.94974 0.90269 0.70254 0.0
N616 N 0.86899 0.86832 0.63813 0.0
N617 N 0.01036 0.93588 0.6845 0.0
H618 H 0.94437 0.88381 0.76073 0.0
H619 H 0.98429 0.91484 0.75303 0.0
H620 H 0.02823 0.95126 0.66519 0.0
H621 H 0.02409 0.92922 0.7097 0.0
H622 H 0.86076 0.866 0.60885 0.0
H623 H 0.85173 0.85113 0.65624 0.0
H624 H 0.88063 0.9137 0.58176 0.0
H625 H 0.9237 0.93845 0.57051 0.0
C626 C 0.62608 0.11828 0.17888 0.0
C627 C 0.66505 0.11183 0.17922 0.0
C628 C 0.65424 0.06671 0.12495 0.0
C629 C 0.61599 0.07524 0.12284 0.0
N630 N 0.56823 0.11538 0.14113 0.0
N631 N 0.71812 0.08503 0.1488 0.0
C632 C 0.60265 0.10282 0.14791 0.0
C633 C 0.67975 0.08758 0.15104 0.0
N634 N 0.61107 0.13811 0.20888 0.0
N635 N 0.66571 0.03762 0.10353 0.0
H636 H 0.73753 0.09975 0.16772 0.0
H637 H 0.73102 0.07076 0.12626 0.0
H638 H 0.64778 0.02138 0.08443 0.0
H639 H 0.69198 0.02765 0.1071 0.0
H640 H 0.58196 0.14014 0.21234 0.0
H641 H 0.62717 0.14986 0.23237 0.0
H642 H 0.55888 0.13806 0.156 0.0
H643 H 0.5507 0.10566 0.11783 0.0
C644 C 0.43236 0.54834 0.33573 0.0
C645 C 0.43193 0.58692 0.33527 0.0
C646 C 0.4634 0.59256 0.39952 0.0
C647 C 0.46094 0.55369 0.4018 0.0
N648 N 0.43571 0.49479 0.3748 0.0
N649 N 0.44019 0.64511 0.37028 0.0
C650 C 0.44352 0.53161 0.37053 0.0
C651 C 0.44542 0.60878 0.36824 0.0
N652 N 0.42278 0.52765 0.30259 0.0
N653 N 0.4846 0.61431 0.42607 0.0
H654 H 0.42767 0.65821 0.34787 0.0
H655 H 0.44506 0.66152 0.3956 0.0
H656 H 0.49891 0.60407 0.44894 0.0
H657 H 0.49117 0.64236 0.42317 0.0
H658 H 0.42652 0.49999 0.29948 0.0
H659 H 0.414 0.53885 0.27692 0.0
H660 H 0.4195 0.47778 0.35494 0.0
H661 H 0.44214 0.48167 0.40014 0.0
C662 C 0.09916 0.48883 0.84732 0.0
C663 C 0.09051 0.45046 0.8414 0.0
C664 C 0.04326 0.45067 0.89534 0.0
C665 C 0.05385 0.48862 0.90308 0.0
N666 N 0.09991 0.5408 0.893 0.0
N667 N 0.0611 0.39367 0.86635 0.0
C668 C 0.08422 0.50678 0.881 0.0
C669 C 0.06465 0.43103 0.86749 0.0
N670 N 0.12028 0.50858 0.81994 0.0
N671 N 0.01147 0.43361 0.91266 0.0
H672 H 0.07671 0.37835 0.8469 0.0
H673 H 0.04559 0.37806 0.88719 0.0
H674 H 0.99476 0.44679 0.93275 0.0
H675 H 0.99974 0.40739 0.90428 0.0
H676 H 0.12394 0.53706 0.82067 0.0
H677 H 0.13109 0.49678 0.79445 0.0
H678 H 0.12446 0.55385 0.88026 0.0
H679 H 0.09114 0.55415 0.91853 0.0
C680 C 0.64141 0.91182 0.9559 0.0
C681 C 0.6353 0.90118 0.91596 0.0
C682 C 0.58068 0.93681 0.91398 0.0
C683 C 0.58456 0.9448 0.95497 0.0
N684 N 0.61431 0.93363 0.01652 0.0
N685 N 0.59627 0.8981 0.85829 0.0
C686 C 0.6138 0.93068 0.97641 0.0
C687 C 0.60396 0.91195 0.89541 0.0
N688 N 0.6741 0.9047 0.97402 0.0
N689 N 0.55632 0.95447 0.89232 0.0
H690 H 0.61324 0.8803 0.84358 0.0
H691 H 0.5714 0.90177 0.84343 0.0
H692 H 0.53955 0.9738 0.90436 0.0
H693 H 0.5554 0.95266 0.86178 0.0
H694 H 0.68234 0.91589 1.00148 0.0
H695 H 0.69464 0.88997 0.96043 0.0
H696 H 0.63219 0.92002 0.03365 0.0
H697 H 0.5945 0.94666 0.03318 0.0
C698 C 0.90714 0.1214 0.48251 0.0
C699 C 0.88451 0.10956 0.44952 0.0
C700 C 0.90671 0.04856 0.45184 0.0
C701 C 0.9268 0.05956 0.48675 0.0
N702 N 0.94125 0.10455 0.53919 0.0
N703 N 0.85717 0.06035 0.40676 0.0
C704 C 0.92549 0.0954 0.5033 0.0
C705 C 0.88293 0.07274 0.43508 0.0
N706 N 0.91229 0.15775 0.49307 0.0
N707 N 0.90994 0.0148 0.43494 0.0
H708 H 0.83871 0.07694 0.3942 0.0
H709 H 0.85163 0.03294 0.39806 0.0
H710 H 0.92457 0.99532 0.44799 0.0
H711 H 0.90003 0.00684 0.40698 0.0
H712 H 0.93188 0.16865 0.51403 0.0
H713 H 0.89944 0.1776 0.4784 0.0
H714 H 0.93701 0.12861 0.55488 0.0
H715 H 0.95706 0.0873 0.55442 0.0
C716 C 0.14493 0.60876 0.09254 0.0
C717 C 0.17996 0.5961 0.07993 0.0
C718 C 0.14512 0.55497 0.03115 0.0
C719 C 0.10987 0.56425 0.04729 0.0
N720 N 0.07677 0.59425 0.09961 0.0
N721 N 0.21256 0.55212 0.04177 0.0
C722 C 0.10989 0.5897 0.07963 0.0
C723 C 0.17985 0.56782 0.0504 0.0
N724 N 0.14503 0.6396 0.11608 0.0
N725 N 0.14565 0.53495 0.99664 0.0
H726 H 0.23836 0.56015 0.05569 0.0
H727 H 0.21324 0.52888 0.02354 0.0
H728 H 0.121 0.52581 0.98113 0.0
H729 H 0.1707 0.53056 0.98144 0.0
H730 H 0.12046 0.65209 0.12289 0.0
H731 H 0.17005 0.65479 0.12552 0.0
H732 H 0.07575 0.60976 0.1257 0.0
H733 H 0.05093 0.57926 0.09264 0.0
C734 C 0.33959 0.4517 0.53495 0.0
C735 C 0.34172 0.43634 0.57254 0.0
C736 C 0.41135 0.44003 0.56563 0.0
C737 C 0.40973 0.45908 0.53017 0.0
N738 N 0.37235 0.48737 0.4835 0.0
N739 N 0.38042 0.42403 0.6274 0.0
C740 C 0.37381 0.46619 0.51553 0.0
C741 C 0.37789 0.43313 0.58904 0.0
N742 N 0.30511 0.45106 0.51701 0.0
N743 N 0.44417 0.42609 0.57572 0.0
H744 H 0.35658 0.41929 0.64572 0.0
H745 H 0.4063 0.42494 0.642 0.0
H746 H 0.46834 0.4275 0.55773 0.0
H747 H 0.44586 0.40922 0.59946 0.0
H748 H 0.30213 0.45816 0.48797 0.0
H749 H 0.27956 0.44056 0.53007 0.0
H750 H 0.34736 0.49688 0.47396 0.0
H751 H 0.39668 0.49782 0.46821 0.0
C752 C 0.8829 0.67355 0.98313 0.0
C753 C 0.89598 0.70045 0.95609 0.0
C754 C 0.95756 0.67576 0.94969 0.0
C755 C 0.94374 0.64758 0.97519 0.0
N756 N 0.89933 0.62669 0.02615 0.0
N757 N 0.94834 0.73472 0.92352 0.0
C758 C 0.90835 0.64889 0.9953 0.0
C759 C 0.93442 0.7042 0.94297 0.0
N760 N 0.84567 0.6703 0.9954 0.0
N761 N 0.99117 0.67398 0.92957 0.0
H762 H 0.93165 0.75581 0.91812 0.0
H763 H 0.97702 0.74073 0.9162 0.0
H764 H 0.00913 0.6537 0.9335 0.0
H765 H 1.00019 0.69132 0.907 0.0
H766 H 0.83321 0.64834 0.01118 0.0
H767 H 0.82657 0.68873 0.98798 0.0
H768 H 0.87558 0.62875 0.04428 0.0
H769 H 0.91768 0.60858 0.03603 0.0
C770 C 0.4219 0.88075 0.09663 0.0
C771 C 0.44204 0.84923 0.09494 0.0
C772 C 0.49407 0.88386 0.05894 0.0
C773 C 0.47654 0.9168 0.06533 0.0
N774 N 0.4253 0.94679 0.09627 0.0
N775 N 0.49985 0.82208 0.07906 0.0
C776 C 0.44065 0.9153 0.08546 0.0
C777 C 0.47882 0.85117 0.0773 0.0
N778 N 0.38452 0.87761 0.10837 0.0
N779 N 0.52465 0.88336 0.03396 0.0
H780 H 0.48968 0.79759 0.09193 0.0
H781 H 0.52851 0.82332 0.07087 0.0
H782 H 0.53571 0.90617 0.01879 0.0
H783 H 0.53631 0.85954 0.02492 0.0
H784 H 0.36696 0.8985 0.10594 0.0
H785 H 0.3701 0.85302 0.11729 0.0
H786 H 0.40173 0.94747 0.11495 0.0
H787 H 0.43783 0.9727 0.08974 0.0
C788 C 0.09501 0.14587 0.61841 0.0
C789 C 0.09003 0.17896 0.59976 0.0
C790 C 0.05215 0.14385 0.54857 0.0
C791 C 0.06074 0.11043 0.56474 0.0
N792 N 0.09786 0.08055 0.61072 0.0
N793 N 0.07031 0.20878 0.54263 0.0
C794 C 0.08413 0.11167 0.59859 0.0
C795 C 0.07041 0.17775 0.56358 0.0
N796 N 0.10934 0.14705 0.65554 0.0
N797 N 0.02535 0.14361 0.51992 0.0
H798 H 0.08357 0.2341 0.55229 0.0
H799 H 0.06026 0.20872 0.51401 0.0
H800 H 0.01056 0.11984 0.50826 0.0
H801 H 0.01491 0.16726 0.51046 0.0
H802 H 0.10983 0.12391 0.67225 0.0
H803 H 0.11739 0.17149 0.67107 0.0
H804 H 0.1182 0.08057 0.6326 0.0
H805 H 0.09219 0.05522 0.59624 0.0
C806 C 0.60672 0.33635 0.43075 0.0
C807 C 0.64115 0.34868 0.41103 0.0
C808 C 0.61968 0.40978 0.40846 0.0
C809 C 0.58819 0.39879 0.43337 0.0
N810 N 0.55826 0.35295 0.47661 0.0
N811 N 0.68398 0.39956 0.38883 0.0
C812 C 0.58333 0.36241 0.44683 0.0
C813 C 0.64872 0.38615 0.40213 0.0
N814 N 0.59557 0.2998 0.43321 0.0
N815 N 0.62127 0.44204 0.38946 0.0
H816 H 0.70649 0.38342 0.38515 0.0
H817 H 0.69193 0.42738 0.3855 0.0
H818 H 0.59942 0.4591 0.39104 0.0
H819 H 0.64208 0.44967 0.36844 0.0
H820 H 0.5689 0.2897 0.44407 0.0
H821 H 0.61108 0.27967 0.42059 0.0
H822 H 0.55661 0.32756 0.48958 0.0
H823 H 0.54254 0.37149 0.4917 0.0
loop_
_geom_bond_atom_site_label_1
_geom_bond_atom_site_label_2
_geom_bond_distance
_geom_bond_site_symmetry_2
_ccdc_geom_bond_type
C0 C1 1.386 . S
C0 C2 1.397 . S
C0 H24 0.931 . S
C1 C0 1.386 . S
C1 C5 1.397 . S
C2 C0 1.397 . S
C2 C3 1.384 . S
C2 H25 0.930 . S
C3 C2 1.384 . S
C3 C4 1.377 . S
C3 C6 1.481 . S
C4 C3 1.377 . S
C4 C5 1.389 . S
C4 H26 0.929 . S
C5 C1 1.397 . S
C5 C4 1.389 . S
C5 H27 0.931 . S
C6 C3 1.481 . S
C6 C7 1.387 . S
C6 C11 1.390 . S
C7 C6 1.387 . S
C7 C8 1.401 . S
C7 H28 0.930 . S
C8 C7 1.401 . S
C8 C9 1.376 . S
C8 C17 1.511 . S
C9 C8 1.376 . S
C9 C10 1.392 . S
C9 H30 0.931 . S
C10 C9 1.392 . S
C10 C11 1.361 . S
C10 C12 1.500 . S
C11 C6 1.390 . S
C11 C10 1.361 . S
C11 H29 0.931 . S
C12 C10 1.500 . S
C12 C13 1.371 . S
C12 C14 1.365 . S
C13 C12 1.371 . S
C13 C23 1.386 . S
C13 H31 0.931 . S
C14 C12 1.365 . S
C14 C15 1.409 . S
C14 H32 0.929 . S
C15 C14 1.409 . S
C15 C16 1.380 . S
C15 H33 0.930 . S
C16 C15 1.380 . S
C16 C23 1.357 . S
C17 C8 1.511 . S
C17 C18 1.341 . S
C17 C19 1.371 . S
C18 C17 1.341 . S
C18 C22 1.394 . S
C18 H34 0.930 . S
C19 C17 1.371 . S
C19 C20 1.392 . S
C19 H35 0.931 . S
C20 C19 1.392 . S
C20 C21 1.331 . S
C20 H38 0.932 . S
C21 C20 1.331 . S
C21 C22 1.336 . S
C22 C18 1.394 . S
C22 C21 1.336 . S
C22 H37 0.929 . S
C23 C13 1.386 . S
C23 C16 1.357 . S
C23 H36 0.928 . S
H24 C0 0.931 . S
H25 C2 0.930 . S
H26 C4 0.929 . S
H27 C5 0.931 . S
H28 C7 0.930 . S
H29 C11 0.931 . S
H30 C9 0.931 . S
H31 C13 0.931 . S
H32 C14 0.929 . S
H33 C15 0.930 . S
H34 C18 0.930 . S
H35 C19 0.931 . S
H36 C23 0.928 . S
H37 C22 0.929 . S
H38 C20 0.932 . S
C39 C40 1.386 . S
C39 C41 1.397 . S
C39 H63 0.931 . S
C40 C39 1.386 . S
C40 C44 1.397 . S
C41 C39 1.397 . S
C41 C42 1.384 . S
C41 H64 0.930 . S
C42 C41 1.384 . S
C42 C43 1.377 . S
C42 C45 1.481 . S
C43 C42 1.377 . S
C43 C44 1.389 . S
C43 H65 0.929 . S
C44 C40 1.397 . S
C44 C43 1.389 . S
C44 H66 0.931 . S
C45 C42 1.481 . S
C45 C46 1.387 . S
C45 C50 1.390 . S
C46 C45 1.387 . S
C46 C47 1.401 . S
C46 H67 0.930 . S
C47 C46 1.401 . S
C47 C48 1.376 . S
C47 C56 1.511 . S
C48 C47 1.376 . S
C48 C49 1.392 . S
C48 H69 0.931 . S
C49 C48 1.392 . S
C49 C50 1.361 . S
C49 C51 1.500 . S
C50 C45 1.390 . S
C50 C49 1.361 . S
C50 H68 0.931 . S
C51 C49 1.500 . S
C51 C52 1.371 . S
C51 C53 1.365 . S
C52 C51 1.371 . S
C52 C62 1.386 . S
C52 H70 0.931 . S
C53 C51 1.365 . S
C53 C54 1.409 . S
C53 H71 0.929 . S
C54 C53 1.409 . S
C54 C55 1.380 . S
C54 H72 0.930 . S
C55 C54 1.380 . S
C55 C62 1.357 . S
C56 C47 1.511 . S
C56 C57 1.341 . S
C56 C58 1.371 . S
C57 C56 1.341 . S
C57 C61 1.394 . S
C57 H73 0.930 . S
C58 C56 1.371 . S
C58 C59 1.392 . S
C58 H74 0.931 . S
C59 C58 1.392 . S
C59 C60 1.331 . S
C59 H77 0.932 . S
C60 C59 1.331 . S
C60 C61 1.336 . S
C61 C57 1.394 . S
C61 C60 1.336 . S
C61 H76 0.929 . S
C62 C52 1.386 . S
C62 C55 1.357 . S
C62 H75 0.928 . S
H63 C39 0.931 . S
H64 C41 0.930 . S
H65 C43 0.929 . S
H66 C44 0.931 . S
H67 C46 0.930 . S
H68 C50 0.931 . S
H69 C48 0.931 . S
H70 C52 0.931 . S
H71 C53 0.929 . S
H72 C54 0.930 . S
H73 C57 0.930 . S
H74 C58 0.931 . S
H75 C62 0.928 . S
H76 C61 0.929 . S
H77 C59 0.932 . S
C78 C79 1.386 . S
C78 C80 1.397 . S
C78 H102 0.931 . S
C79 C78 1.386 . S
C79 C83 1.397 . S
C80 C78 1.397 . S
C80 C81 1.384 . S
C80 H103 0.930 . S
C81 C80 1.384 . S
C81 C82 1.377 . S
C81 C84 1.481 . S
C82 C81 1.377 . S
C82 C83 1.389 . S
C82 H104 0.929 . S
C83 C79 1.397 . S
C83 C82 1.389 . S
C83 H105 0.931 . S
C84 C81 1.481 . S
C84 C85 1.387 . S
C84 C89 1.390 . S
C85 C84 1.387 . S
C85 C86 1.401 . S
C85 H106 0.930 . S
C86 C85 1.401 . S
C86 C87 1.376 . S
C86 C95 1.511 . S
C87 C86 1.376 . S
C87 C88 1.392 . S
C87 H108 0.931 . S
C88 C87 1.392 . S
C88 C89 1.361 . S
C88 C90 1.500 . S
C89 C84 1.390 . S
C89 C88 1.361 . S
C89 H107 0.931 . S
C90 C88 1.500 . S
C90 C91 1.371 . S
C90 C92 1.365 . S
C91 C90 1.371 . S
C91 C101 1.386 . S
C91 H109 0.931 . S
C92 C90 1.365 . S
C92 C93 1.409 . S
C92 H110 0.929 . S
C93 C92 1.409 . S
C93 C94 1.380 . S
C93 H111 0.930 . S
C94 C93 1.380 . S
C94 C101 1.357 . S
C95 C86 1.511 . S
C95 C96 1.341 . S
C95 C97 1.371 . S
C96 C95 1.341 . S
C96 C100 1.394 . S
C96 H112 0.930 . S
C97 C95 1.371 . S
C97 C98 1.392 . S
C97 H113 0.931 . S
C98 C97 1.392 . S
C98 C99 1.331 . S
C98 H116 0.932 . S
C99 C98 1.331 . S
C99 C100 1.336 . S
C100 C96 1.394 . S
C100 C99 1.336 . S
C100 H115 0.929 . S
C101 C91 1.386 . S
C101 C94 1.357 . S
C101 H114 0.928 . S
H102 C78 0.931 . S
H103 C80 0.930 . S
H104 C82 0.929 . S
H105 C83 0.931 . S
H106 C85 0.930 . S
H107 C89 0.931 . S
H108 C87 0.931 . S
H109 C91 0.931 . S
H110 C92 0.929 . S
H111 C93 0.930 . S
H112 C96 0.930 . S
H113 C97 0.931 . S
H114 C101 0.928 . S
H115 C100 0.929 . S
H116 C98 0.932 . S
C117 C118 1.386 . S
C117 C119 1.397 . S
C117 H141 0.931 . S
C118 C117 1.386 . S
C118 C122 1.397 . S
C119 C117 1.397 . S
C119 C120 1.384 . S
C119 H142 0.930 . S
C120 C119 1.384 . S
C120 C121 1.377 . S
C120 C123 1.481 . S
C121 C120 1.377 . S
C121 C122 1.389 . S
C121 H143 0.929 . S
C122 C118 1.397 . S
C122 C121 1.389 . S
C122 H144 0.931 . S
C123 C120 1.481 . S
C123 C124 1.387 . S
C123 C128 1.390 . S
C124 C123 1.387 . S
C124 C125 1.401 . S
C124 H145 0.930 . S
C125 C124 1.401 . S
C125 C126 1.376 . S
C125 C134 1.511 . S
C126 C125 1.376 . S
C126 C127 1.392 . S
C126 H147 0.931 . S
C127 C126 1.392 . S
C127 C128 1.361 . S
C127 C129 1.500 . S
C128 C123 1.390 . S
C128 C127 1.361 . S
C128 H146 0.931 . S
C129 C127 1.500 . S
C129 C130 1.371 . S
C129 C131 1.365 . S
C130 C129 1.371 . S
C130 C140 1.386 . S
C130 H148 0.931 . S
C131 C129 1.365 . S
C131 C132 1.409 . S
C131 H149 0.929 . S
C132 C131 1.409 . S
C132 C133 1.380 . S
C132 H150 0.930 . S
C133 C132 1.380 . S
C133 C140 1.357 . S
C134 C125 1.511 . S
C134 C135 1.341 . S
C134 C136 1.371 . S
C135 C134 1.341 . S
C135 C139 1.394 . S
C135 H151 0.930 . S
C136 C134 1.371 . S
C136 C137 1.392 . S
C136 H152 0.931 . S
C137 C136 1.392 . S
C137 C138 1.331 . S
C137 H155 0.932 . S
C138 C137 1.331 . S
C138 C139 1.336 . S
C139 C135 1.394 . S
C139 C138 1.336 . S
C139 H154 0.929 . S
C140 C130 1.386 . S
C140 C133 1.357 . S
C140 H153 0.928 . S
H141 C117 0.931 . S
H142 C119 0.930 . S
H143 C121 0.929 . S
H144 C122 0.931 . S
H145 C124 0.930 . S
H146 C128 0.931 . S
H147 C126 0.931 . S
H148 C130 0.931 . S
H149 C131 0.929 . S
H150 C132 0.930 . S
H151 C135 0.930 . S
H152 C136 0.931 . S
H153 C140 0.928 . S
H154 C139 0.929 . S
H155 C137 0.932 . S
C156 C157 1.386 . S
C156 C158 1.397 . S
C156 H180 0.931 . S
C157 C156 1.386 . S
C157 C161 1.397 . S
C158 C156 1.397 . S
C158 C159 1.384 . S
C158 H181 0.930 . S
C159 C158 1.384 . S
C159 C160 1.377 . S
C159 C162 1.481 . S
C160 C159 1.377 . S
C160 C161 1.389 . S
C160 H182 0.929 . S
C161 C157 1.397 . S
C161 C160 1.389 . S
C161 H183 0.931 . S
C162 C159 1.481 . S
C162 C163 1.387 . S
C162 C167 1.390 . S
C163 C162 1.387 . S
C163 C164 1.401 . S
C163 H184 0.930 . S
C164 C163 1.401 . S
C164 C165 1.376 . S
C164 C173 1.511 . S
C165 C164 1.376 . S
C165 C166 1.392 . S
C165 H186 0.931 . S
C166 C165 1.392 . S
C166 C167 1.361 . S
C166 C168 1.500 . S
C167 C162 1.390 . S
C167 C166 1.361 . S
C167 H185 0.931 . S
C168 C166 1.500 . S
C168 C169 1.371 . S
C168 C170 1.365 . S
C169 C168 1.371 . S
C169 C179 1.386 . S
C169 H187 0.931 . S
C170 C168 1.365 . S
C170 C171 1.409 . S
C170 H188 0.929 . S
C171 C170 1.409 . S
C171 C172 1.380 . S
C171 H189 0.930 . S
C172 C171 1.380 . S
C172 C179 1.357 . S
C173 C164 1.511 . S
C173 C174 1.341 . S
C173 C175 1.371 . S
C174 C173 1.341 . S
C174 C178 1.394 . S
C174 H190 0.930 . S
C175 C173 1.371 . S
C175 C176 1.392 . S
C175 H191 0.931 . S
C176 C175 1.392 . S
C176 C177 1.331 . S
C176 H194 0.932 . S
C177 C176 1.331 . S
C177 C178 1.336 . S
C178 C174 1.394 . S
C178 C177 1.336 . S
C178 H193 0.929 . S
C179 C169 1.386 . S
C179 C172 1.357 . S
C179 H192 0.928 . S
H180 C156 0.931 . S
H181 C158 0.930 . S
H182 C160 0.929 . S
H183 C161 0.931 . S
H184 C163 0.930 . S
H185 C167 0.931 . S
H186 C165 0.931 . S
H187 C169 0.931 . S
H188 C170 0.929 . S
H189 C171 0.930 . S
H190 C174 0.930 . S
H191 C175 0.931 . S
H192 C179 0.928 . S
H193 C178 0.929 . S
H194 C176 0.932 . S
C195 C196 1.386 . S
C195 C197 1.397 . S
C195 H219 0.931 . S
C196 C195 1.386 . S
C196 C200 1.397 . S
C197 C195 1.397 . S
C197 C198 1.384 . S
C197 H220 0.930 . S
C198 C197 1.384 . S
C198 C199 1.377 . S
C198 C201 1.481 . S
C199 C198 1.377 . S
C199 C200 1.389 . S
C199 H221 0.929 . S
C200 C196 1.397 . S
C200 C199 1.389 . S
C200 H222 0.931 . S
C201 C198 1.481 . S
C201 C202 1.387 . S
C201 C206 1.390 . S
C202 C201 1.387 . S
C202 C203 1.401 . S
C202 H223 0.930 . S
C203 C202 1.401 . S
C203 C204 1.376 . S
C203 C212 1.511 . S
C204 C203 1.376 . S
C204 C205 1.392 . S
C204 H225 0.931 . S
C205 C204 1.392 . S
C205 C206 1.361 . S
C205 C207 1.500 . S
C206 C201 1.390 . S
C206 C205 1.361 . S
C206 H224 0.931 . S
C207 C205 1.500 . S
C207 C208 1.371 . S
C207 C209 1.365 . S
C208 C207 1.371 . S
C208 C218 1.386 . S
C208 H226 0.931 . S
C209 C207 1.365 . S
C209 C210 1.409 . S
C209 H227 0.929 . S
C210 C209 1.409 . S
C210 C211 1.380 . S
C210 H228 0.930 . S
C211 C210 1.380 . S
C211 C218 1.357 . S
C212 C203 1.511 . S
C212 C213 1.341 . S
C212 C214 1.371 . S
C213 C212 1.341 . S
C213 C217 1.394 . S
C213 H229 0.930 . S
C214 C212 1.371 . S
C214 C215 1.392 . S
C214 H230 0.931 . S
C215 C214 1.392 . S
C215 C216 1.331 . S
C215 H233 0.932 . S
C216 C215 1.331 . S
C216 C217 1.336 . S
C217 C213 1.394 . S
C217 C216 1.336 . S
C217 H232 0.929 . S
C218 C208 1.386 . S
C218 C211 1.357 . S
C218 H231 0.928 . S
H219 C195 0.931 . S
H220 C197 0.930 . S
H221 C199 0.929 . S
H222 C200 0.931 . S
H223 C202 0.930 . S
H224 C206 0.931 . S
H225 C204 0.931 . S
H226 C208 0.931 . S
H227 C209 0.929 . S
H228 C210 0.930 . S
H229 C213 0.930 . S
H230 C214 0.931 . S
H231 C218 0.928 . S
H232 C217 0.929 . S
H233 C215 0.932 . S
C234 C235 1.386 . S
C234 C236 1.397 . S
C234 H258 0.931 . S
C235 C234 1.386 . S
C235 C239 1.397 . S
C236 C234 1.397 . S
C236 C237 1.384 . S
C236 H259 0.930 . S
C237 C236 1.384 . S
C237 C238 1.377 . S
C237 C240 1.481 . S
C238 C237 1.377 . S
C238 C239 1.389 . S
C238 H260 0.929 . S
C239 C235 1.397 . S
C239 C238 1.389 . S
C239 H261 0.931 . S
C240 C237 1.481 . S
C240 C241 1.387 . S
C240 C245 1.390 . S
C241 C240 1.387 . S
C241 C242 1.401 . S
C241 H262 0.930 . S
C242 C241 1.401 . S
C242 C243 1.376 . S
C242 C251 1.511 . S
C243 C242 1.376 . S
C243 C244 1.392 . S
C243 H264 0.931 . S
C244 C243 1.392 . S
C244 C245 1.361 . S
C244 C246 1.500 . S
C245 C240 1.390 . S
C245 C244 1.361 . S
C245 H263 0.931 . S
C246 C244 1.500 . S
C246 C247 1.371 . S
C246 C248 1.365 . S
C247 C246 1.371 . S
C247 C257 1.386 . S
C247 H265 0.931 . S
C248 C246 1.365 . S
C248 C249 1.409 . S
C248 H266 0.929 . S
C249 C248 1.409 . S
C249 C250 1.380 . S
C249 H267 0.930 . S
C250 C249 1.380 . S
C250 C257 1.357 . S
C251 C242 1.511 . S
C251 C252 1.341 . S
C251 C253 1.371 . S
C252 C251 1.341 . S
C252 C256 1.394 . S
C252 H268 0.930 . S
C253 C251 1.371 . S
C253 C254 1.392 . S
C253 H269 0.931 . S
C254 C253 1.392 . S
C254 C255 1.331 . S
C254 H272 0.932 . S
C255 C254 1.331 . S
C255 C256 1.336 . S
C256 C252 1.394 . S
C256 C255 1.336 . S
C256 H271 0.929 . S
C257 C247 1.386 . S
C257 C250 1.357 . S
C257 H270 0.928 . S
H258 C234 0.931 . S
H259 C236 0.930 . S
H260 C238 0.929 . S
H261 C239 0.931 . S
H262 C241 0.930 . S
H263 C245 0.931 . S
H264 C243 0.931 . S
H265 C247 0.931 . S
H266 C248 0.929 . S
H267 C249 0.930 . S
H268 C252 0.930 . S
H269 C253 0.931 . S
H270 C257 0.928 . S
H271 C256 0.929 . S
H272 C254 0.932 . S
C273 C274 1.386 . S
C273 C275 1.397 . S
C273 H297 0.931 . S
C274 C273 1.386 . S
C274 C278 1.397 . S
C275 C273 1.397 . S
C275 C276 1.384 . S
C275 H298 0.930 . S
C276 C275 1.384 . S
C276 C277 1.377 . S
C276 C279 1.481 . S
C277 C276 1.377 . S
C277 C278 1.389 . S
C277 H299 0.929 . S
C278 C274 1.397 . S
C278 C277 1.389 . S
C278 H300 0.931 . S
C279 C276 1.481 . S
C279 C280 1.387 . S
C279 C284 1.390 . S
C280 C279 1.387 . S
C280 C281 1.401 . S
C280 H301 0.930 . S
C281 C280 1.401 . S
C281 C282 1.376 . S
C281 C290 1.511 . S
C282 C281 1.376 . S
C282 C283 1.392 . S
C282 H303 0.931 . S
C283 C282 1.392 . S
C283 C284 1.361 . S
C283 C285 1.500 . S
C284 C279 1.390 . S
C284 C283 1.361 . S
C284 H302 0.931 . S
C285 C283 1.500 . S
C285 C286 1.371 . S
C285 C287 1.365 . S
C286 C285 1.371 . S
C286 C296 1.386 . S
C286 H304 0.931 . S
C287 C285 1.365 . S
C287 C288 1.409 . S
C287 H305 0.929 . S
C288 C287 1.409 . S
C288 C289 1.380 . S
C288 H306 0.930 . S
C289 C288 1.380 . S
C289 C296 1.357 . S
C290 C281 1.511 . S
C290 C291 1.341 . S
C290 C292 1.371 . S
C291 C290 1.341 . S
C291 C295 1.394 . S
C291 H307 0.930 . S
C292 C290 1.371 . S
C292 C293 1.392 . S
C292 H308 0.931 . S
C293 C292 1.392 . S
C293 C294 1.331 . S
C293 H311 0.932 . S
C294 C293 1.331 . S
C294 C295 1.336 . S
C295 C291 1.394 . S
C295 C294 1.336 . S
C295 H310 0.929 . S
C296 C286 1.386 . S
C296 C289 1.357 . S
C296 H309 0.928 . S
H297 C273 0.931 . S
H298 C275 0.930 . S
H299 C277 0.929 . S
H300 C278 0.931 . S
H301 C280 0.930 . S
H302 C284 0.931 . S
H303 C282 0.931 . S
H304 C286 0.931 . S
H305 C287 0.929 . S
H306 C288 0.930 . S
H307 C291 0.930 . S
H308 C292 0.931 . S
H309 C296 0.928 . S
H310 C295 0.929 . S
H311 C293 0.932 . S
Dy312 O316 2.398 . S
Dy312 O317 2.491 . S
Dy312 O318 2.403 1_545 S
Dy312 O319 2.664 1_545 S
Dy312 O323 2.326 . S
Dy312 O327 2.310 1_455 S
Dy312 O328 2.351 1_445 S
C313 O324 1.185 . S
C313 O325 1.355 . S
C314 O316 1.185 . S
C314 O317 1.355 . S
Dy315 O319 2.310 1_655 S
Dy315 O322 2.351 1_665 S
Dy315 O324 2.398 . S
Dy315 O325 2.491 . S
Dy315 O326 2.403 1_565 S
Dy315 O327 2.664 1_565 S
Dy315 O329 2.326 . S
O316 Dy312 2.398 . S
O316 C314 1.185 . S
O317 Dy312 2.491 . S
O317 C314 1.355 . S
O318 Dy312 2.403 1_565 S
O318 C320 1.254 . S
O319 Dy312 2.664 1_565 S
O319 Dy315 2.310 1_455 S
O319 C320 1.268 . S
C320 O318 1.254 . S
C320 O319 1.268 . S
C321 O326 1.254 . S
C321 O327 1.268 . S
O322 Dy315 2.351 1_445 S
O322 C330 1.249 . S
O323 Dy312 2.326 . S
O323 C330 1.267 . S
O324 C313 1.185 . S
O324 Dy315 2.398 . S
O325 C313 1.355 . S
O325 Dy315 2.491 . S
O326 Dy315 2.403 1_545 S
O326 C321 1.254 . S
O327 Dy312 2.310 1_655 S
O327 Dy315 2.664 1_545 S
O327 C321 1.268 . S
O328 Dy312 2.351 1_665 S
O328 C331 1.249 . S
O329 Dy315 2.326 . S
O329 C331 1.267 . S
C330 O322 1.249 . S
C330 O323 1.267 . S
C331 O328 1.249 . S
C331 O329 1.267 . S
Dy332 O336 2.398 . S
Dy332 O337 2.491 . S
Dy332 O338 2.403 1_545 S
Dy332 O339 2.664 1_545 S
Dy332 O343 2.326 . S
Dy332 O347 2.310 1_554 S
Dy332 O348 2.351 1_544 S
C333 O344 1.185 . S
C333 O345 1.355 . S
C334 O336 1.185 . S
C334 O337 1.355 . S
Dy335 O339 2.310 1_546 S
Dy335 O342 2.351 1_556 S
Dy335 O344 2.398 1_545 S
Dy335 O345 2.491 1_545 S
Dy335 O346 2.403 . S
Dy335 O347 2.664 . S
Dy335 O349 2.326 1_545 S
O336 Dy332 2.398 . S
O336 C334 1.185 . S
O337 Dy332 2.491 . S
O337 C334 1.355 . S
O338 Dy332 2.403 1_565 S
O338 C340 1.254 . S
O339 Dy332 2.664 1_565 S
O339 Dy335 2.310 1_564 S
O339 C340 1.268 . S
C340 O338 1.254 . S
C340 O339 1.268 . S
C341 O346 1.254 . S
C341 O347 1.268 . S
O342 Dy335 2.351 1_554 S
O342 C350 1.249 . S
O343 Dy332 2.326 . S
O343 C350 1.267 . S
O344 C333 1.185 . S
O344 Dy335 2.398 1_565 S
O345 C333 1.355 . S
O345 Dy335 2.491 1_565 S
O346 Dy335 2.403 . S
O346 C341 1.254 . S
O347 Dy332 2.310 1_556 S
O347 Dy335 2.664 . S
O347 C341 1.268 . S
O348 Dy332 2.351 1_566 S
O348 C351 1.249 . S
O349 Dy335 2.326 1_565 S
O349 C351 1.267 . S
C350 O342 1.249 . S
C350 O343 1.267 . S
C351 O348 1.249 . S
C351 O349 1.267 . S
Dy352 O356 2.398 . S
Dy352 O357 2.491 . S
Dy352 O358 2.403 . S
Dy352 O359 2.664 . S
Dy352 O363 2.326 . S
Dy352 O367 2.310 . S
Dy352 O368 2.351 . S
C353 O364 1.185 . S
C353 O365 1.355 . S
C354 O356 1.185 . S
C354 O357 1.355 . S
Dy355 O359 2.310 . S
Dy355 O362 2.351 . S
Dy355 O364 2.398 . S
Dy355 O365 2.491 . S
Dy355 O366 2.403 . S
Dy355 O367 2.664 . S
Dy355 O369 2.326 . S
O356 Dy352 2.398 . S
O356 C354 1.185 . S
O357 Dy352 2.491 . S
O357 C354 1.355 . S
O358 Dy352 2.403 . S
O358 C360 1.254 . S
O359 Dy352 2.664 . S
O359 Dy355 2.310 . S
O359 C360 1.268 . S
C360 O358 1.254 . S
C360 O359 1.268 . S
C361 O366 1.254 . S
C361 O367 1.268 . S
O362 Dy355 2.351 . S
O362 C370 1.249 . S
O363 Dy352 2.326 . S
O363 C370 1.267 . S
O364 C353 1.185 . S
O364 Dy355 2.398 . S
O365 C353 1.355 . S
O365 Dy355 2.491 . S
O366 Dy355 2.403 . S
O366 C361 1.254 . S
O367 Dy352 2.310 . S
O367 Dy355 2.664 . S
O367 C361 1.268 . S
O368 Dy352 2.351 . S
O368 C371 1.249 . S
O369 Dy355 2.326 . S
O369 C371 1.267 . S
C370 O362 1.249 . S
C370 O363 1.267 . S
C371 O368 1.249 . S
C371 O369 1.267 . S
Dy372 O376 2.398 . S
Dy372 O377 2.491 . S
Dy372 O378 2.403 1_455 S
Dy372 O379 2.664 1_455 S
Dy372 O383 2.326 . S
Dy372 O387 2.310 1_554 S
Dy372 O388 2.351 1_454 S
C373 O384 1.185 . S
C373 O385 1.355 . S
C374 O376 1.185 . S
C374 O377 1.355 . S
Dy375 O379 2.310 1_556 S
Dy375 O382 2.351 1_656 S
Dy375 O384 2.398 . S
Dy375 O385 2.491 . S
Dy375 O386 2.403 1_655 S
Dy375 O387 2.664 1_655 S
Dy375 O389 2.326 . S
O376 Dy372 2.398 . S
O376 C374 1.185 . S
O377 Dy372 2.491 . S
O377 C374 1.355 . S
O378 Dy372 2.403 1_655 S
O378 C380 1.254 . S
O379 Dy372 2.664 1_655 S
O379 Dy375 2.310 1_554 S
O379 C380 1.268 . S
C380 O378 1.254 . S
C380 O379 1.268 . S
C381 O386 1.254 . S
C381 O387 1.268 . S
O382 Dy375 2.351 1_454 S
O382 C390 1.249 . S
O383 Dy372 2.326 . S
O383 C390 1.267 . S
O384 C373 1.185 . S
O384 Dy375 2.398 . S
O385 C373 1.355 . S
O385 Dy375 2.491 . S
O386 Dy375 2.403 1_455 S
O386 C381 1.254 . S
O387 Dy372 2.310 1_556 S
O387 Dy375 2.664 1_455 S
O387 C381 1.268 . S
O388 Dy372 2.351 1_656 S
O388 C391 1.249 . S
O389 Dy375 2.326 . S
O389 C391 1.267 . S
C390 O382 1.249 . S
C390 O383 1.267 . S
C391 O388 1.249 . S
C391 O389 1.267 . S
C392 C393 1.363 . S
C392 C398 1.379 . S
C392 N400 1.356 . S
C393 C392 1.363 . S
C393 C399 1.363 . S
C394 C395 1.363 . S
C394 C399 1.379 . S
C394 N401 1.356 . S
C395 C394 1.363 . S
C395 C398 1.363 . S
N396 C398 1.356 . S
N396 H408 0.984 . S
N396 H409 0.985 . S
N397 C399 1.356 . S
N397 H402 0.984 . S
N397 H403 0.985 . S
C398 C392 1.379 . S
C398 C395 1.363 . S
C398 N396 1.356 . S
C399 C393 1.363 . S
C399 C394 1.379 . S
C399 N397 1.356 . S
N400 C392 1.356 . S
N400 H406 0.984 . S
N400 H407 0.984 . S
N401 C394 1.356 . S
N401 H404 0.984 . S
N401 H405 0.985 . S
H402 N397 0.984 . S
H403 N397 0.985 . S
H404 N401 0.984 . S
H405 N401 0.985 . S
H406 N400 0.984 . S
H407 N400 0.984 . S
H408 N396 0.984 . S
H409 N396 0.985 . S
C410 C411 1.363 . S
C410 C416 1.379 . S
C410 N418 1.356 . S
C411 C410 1.363 . S
C411 C417 1.363 . S
C412 C413 1.363 . S
C412 C417 1.379 . S
C412 N419 1.356 . S
C413 C412 1.363 . S
C413 C416 1.363 . S
N414 C416 1.356 . S
N414 H426 0.984 . S
N414 H427 0.985 . S
N415 C417 1.356 . S
N415 H420 0.984 . S
N415 H421 0.985 . S
C416 C410 1.379 . S
C416 C413 1.363 . S
C416 N414 1.356 . S
C417 C411 1.363 . S
C417 C412 1.379 . S
C417 N415 1.356 . S
N418 C410 1.356 . S
N418 H424 0.984 . S
N418 H425 0.984 . S
N419 C412 1.356 . S
N419 H422 0.984 . S
N419 H423 0.985 1_565 S
H420 N415 0.984 . S
H421 N415 0.985 . S
H422 N419 0.984 . S
H423 N419 0.985 1_545 S
H424 N418 0.984 . S
H425 N418 0.984 . S
H426 N414 0.984 . S
H427 N414 0.985 . S
C428 C429 1.363 . S
C428 C434 1.379 . S
C428 N436 1.356 . S
C429 C428 1.363 . S
C429 C435 1.363 . S
C430 C431 1.363 . S
C430 C435 1.379 . S
C430 N437 1.356 . S
C431 C430 1.363 . S
C431 C434 1.363 . S
N432 C434 1.356 . S
N432 H444 0.984 . S
N432 H445 0.985 . S
N433 C435 1.356 . S
N433 H438 0.984 . S
N433 H439 0.985 . S
C434 C428 1.379 . S
C434 C431 1.363 . S
C434 N432 1.356 . S
C435 C429 1.363 . S
C435 C430 1.379 . S
C435 N433 1.356 . S
N436 C428 1.356 . S
N436 H442 0.984 . S
N436 H443 0.984 . S
N437 C430 1.356 . S
N437 H440 0.984 . S
N437 H441 0.985 . S
H438 N433 0.984 . S
H439 N433 0.985 . S
H440 N437 0.984 . S
H441 N437 0.985 . S
H442 N436 0.984 . S
H443 N436 0.984 . S
H444 N432 0.984 . S
H445 N432 0.985 . S
C446 C447 1.363 . S
C446 C452 1.379 . S
C446 N454 1.356 . S
C447 C446 1.363 . S
C447 C453 1.363 . S
C448 C449 1.363 . S
C448 C453 1.379 . S
C448 N455 1.356 . S
C449 C448 1.363 . S
C449 C452 1.363 . S
N450 C452 1.356 . S
N450 H462 0.984 . S
N450 H463 0.985 . S
N451 C453 1.356 . S
N451 H456 0.984 . S
N451 H457 0.985 . S
C452 C446 1.379 . S
C452 C449 1.363 . S
C452 N450 1.356 . S
C453 C447 1.363 . S
C453 C448 1.379 . S
C453 N451 1.356 . S
N454 C446 1.356 . S
N454 H460 0.984 . S
N454 H461 0.984 . S
N455 C448 1.356 . S
N455 H458 0.984 . S
N455 H459 0.985 . S
H456 N451 0.984 . S
H457 N451 0.985 . S
H458 N455 0.984 . S
H459 N455 0.985 . S
H460 N454 0.984 . S
H461 N454 0.984 . S
H462 N450 0.984 . S
H463 N450 0.985 . S
C464 C465 1.363 . S
C464 C470 1.379 . S
C464 N472 1.356 . S
C465 C464 1.363 . S
C465 C471 1.363 . S
C466 C467 1.363 . S
C466 C471 1.379 . S
C466 N473 1.356 . S
C467 C466 1.363 . S
C467 C470 1.363 . S
N468 C470 1.356 . S
N468 H480 0.984 . S
N468 H481 0.985 . S
N469 C471 1.356 . S
N469 H474 0.984 . S
N469 H475 0.985 . S
C470 C464 1.379 . S
C470 C467 1.363 . S
C470 N468 1.356 . S
C471 C465 1.363 . S
C471 C466 1.379 . S
C471 N469 1.356 . S
N472 C464 1.356 . S
N472 H478 0.984 . S
N472 H479 0.984 . S
N473 C466 1.356 . S
N473 H476 0.984 . S
N473 H477 0.985 . S
H474 N469 0.984 . S
H475 N469 0.985 . S
H476 N473 0.984 . S
H477 N473 0.985 . S
H478 N472 0.984 . S
H479 N472 0.984 . S
H480 N468 0.984 . S
H481 N468 0.985 . S
C482 C483 1.363 . S
C482 C488 1.379 . S
C482 N490 1.356 . S
C483 C482 1.363 . S
C483 C489 1.363 . S
C484 C485 1.363 . S
C484 C489 1.379 . S
C484 N491 1.356 . S
C485 C484 1.363 . S
C485 C488 1.363 . S
N486 C488 1.356 . S
N486 H498 0.984 . S
N486 H499 0.985 . S
N487 C489 1.356 . S
N487 H492 0.984 . S
N487 H493 0.985 . S
C488 C482 1.379 . S
C488 C485 1.363 . S
C488 N486 1.356 . S
C489 C483 1.363 . S
C489 C484 1.379 . S
C489 N487 1.356 . S
N490 C482 1.356 . S
N490 H496 0.984 . S
N490 H497 0.984 . S
N491 C484 1.356 . S
N491 H494 0.984 . S
N491 H495 0.985 . S
H492 N487 0.984 . S
H493 N487 0.985 . S
H494 N491 0.984 . S
H495 N491 0.985 . S
H496 N490 0.984 . S
H497 N490 0.984 . S
H498 N486 0.984 . S
H499 N486 0.985 . S
C500 C501 1.363 . S
C500 C506 1.379 . S
C500 N508 1.356 . S
C501 C500 1.363 . S
C501 C507 1.363 . S
C502 C503 1.363 . S
C502 C507 1.379 . S
C502 N509 1.356 1_556 S
C503 C502 1.363 . S
C503 C506 1.363 . S
N504 C506 1.356 . S
N504 H516 0.984 . S
N504 H517 0.985 . S
N505 C507 1.356 . S
N505 H510 0.984 . S
N505 H511 0.985 . S
C506 C500 1.379 . S
C506 C503 1.363 . S
C506 N504 1.356 . S
C507 C501 1.363 . S
C507 C502 1.379 . S
C507 N505 1.356 . S
N508 C500 1.356 . S
N508 H514 0.984 . S
N508 H515 0.984 . S
N509 C502 1.356 1_554 S
N509 H512 0.984 . S
N509 H513 0.985 . S
H510 N505 0.984 . S
H511 N505 0.985 . S
H512 N509 0.984 . S
H513 N509 0.985 . S
H514 N508 0.984 . S
H515 N508 0.984 . S
H516 N504 0.984 . S
H517 N504 0.985 . S
C518 C519 1.363 . S
C518 C524 1.379 . S
C518 N526 1.356 . S
C519 C518 1.363 . S
C519 C525 1.363 . S
C520 C521 1.363 . S
C520 C525 1.379 . S
C520 N527 1.356 . S
C521 C520 1.363 . S
C521 C524 1.363 . S
N522 C524 1.356 . S
N522 H534 0.984 . S
N522 H535 0.985 . S
N523 C525 1.356 . S
N523 H528 0.984 . S
N523 H529 0.985 . S
C524 C518 1.379 . S
C524 C521 1.363 . S
C524 N522 1.356 . S
C525 C519 1.363 . S
C525 C520 1.379 . S
C525 N523 1.356 . S
N526 C518 1.356 . S
N526 H532 0.984 . S
N526 H533 0.984 . S
N527 C520 1.356 . S
N527 H530 0.984 . S
N527 H531 0.985 . S
H528 N523 0.984 . S
H529 N523 0.985 . S
H530 N527 0.984 . S
H531 N527 0.985 . S
H532 N526 0.984 . S
H533 N526 0.984 . S
H534 N522 0.984 . S
H535 N522 0.985 . S
C536 C537 1.363 . S
C536 C542 1.379 . S
C536 N544 1.356 . S
C537 C536 1.363 . S
C537 C543 1.363 . S
C538 C539 1.363 . S
C538 C543 1.379 . S
C538 N545 1.356 . S
C539 C538 1.363 . S
C539 C542 1.363 . S
N540 C542 1.356 . S
N540 H552 0.984 . S
N540 H553 0.985 . S
N541 C543 1.356 . S
N541 H546 0.984 . S
N541 H547 0.985 . S
C542 C536 1.379 . S
C542 C539 1.363 . S
C542 N540 1.356 . S
C543 C537 1.363 . S
C543 C538 1.379 . S
C543 N541 1.356 . S
N544 C536 1.356 . S
N544 H550 0.984 . S
N544 H551 0.984 . S
N545 C538 1.356 . S
N545 H548 0.984 . S
N545 H549 0.985 . S
H546 N541 0.984 . S
H547 N541 0.985 . S
H548 N545 0.984 . S
H549 N545 0.985 . S
H550 N544 0.984 . S
H551 N544 0.984 . S
H552 N540 0.984 . S
H553 N540 0.985 . S
C554 C555 1.363 . S
C554 C560 1.379 . S
C554 N562 1.356 . S
C555 C554 1.363 . S
C555 C561 1.363 . S
C556 C557 1.363 . S
C556 C561 1.379 . S
C556 N563 1.356 . S
C557 C556 1.363 . S
C557 C560 1.363 . S
N558 C560 1.356 1_554 S
N558 H570 0.984 . S
N558 H571 0.985 . S
N559 C561 1.356 . S
N559 H564 0.984 . S
N559 H565 0.985 . S
C560 C554 1.379 . S
C560 C557 1.363 . S
C560 N558 1.356 1_556 S
C561 C555 1.363 . S
C561 C556 1.379 . S
C561 N559 1.356 . S
N562 C554 1.356 . S
N562 H568 0.984 . S
N562 H569 0.984 . S
N563 C556 1.356 . S
N563 H566 0.984 . S
N563 H567 0.985 . S
H564 N559 0.984 . S
H565 N559 0.985 . S
H566 N563 0.984 . S
H567 N563 0.985 . S
H568 N562 0.984 . S
H569 N562 0.984 . S
H570 N558 0.984 . S
H571 N558 0.985 . S
C572 C573 1.363 . S
C572 C578 1.379 . S
C572 N580 1.356 . S
C573 C572 1.363 . S
C573 C579 1.363 . S
C574 C575 1.363 . S
C574 C579 1.379 . S
C574 N581 1.356 . S
C575 C574 1.363 . S
C575 C578 1.363 . S
N576 C578 1.356 . S
N576 H588 0.984 1_655 S
N576 H589 0.985 . S
N577 C579 1.356 . S
N577 H582 0.984 . S
N577 H583 0.985 . S
C578 C572 1.379 . S
C578 C575 1.363 . S
C578 N576 1.356 . S
C579 C573 1.363 . S
C579 C574 1.379 . S
C579 N577 1.356 . S
N580 C572 1.356 . S
N580 H586 0.984 . S
N580 H587 0.984 . S
N581 C574 1.356 . S
N581 H584 0.984 . S
N581 H585 0.985 . S
H582 N577 0.984 . S
H583 N577 0.985 . S
H584 N581 0.984 . S
H585 N581 0.985 . S
H586 N580 0.984 . S
H587 N580 0.984 . S
H588 N576 0.984 1_455 S
H589 N576 0.985 . S
C590 C591 1.363 . S
C590 C596 1.379 . S
C590 N598 1.356 . S
C591 C590 1.363 . S
C591 C597 1.363 . S
C592 C593 1.363 . S
C592 C597 1.379 . S
C592 N599 1.356 . S
C593 C592 1.363 . S
C593 C596 1.363 . S
N594 C596 1.356 . S
N594 H606 0.984 . S
N594 H607 0.985 . S
N595 C597 1.356 . S
N595 H600 0.984 . S
N595 H601 0.985 . S
C596 C590 1.379 . S
C596 C593 1.363 . S
C596 N594 1.356 . S
C597 C591 1.363 . S
C597 C592 1.379 . S
C597 N595 1.356 . S
N598 C590 1.356 . S
N598 H604 0.984 . S
N598 H605 0.984 . S
N599 C592 1.356 . S
N599 H602 0.984 . S
N599 H603 0.985 . S
H600 N595 0.984 . S
H601 N595 0.985 . S
H602 N599 0.984 . S
H603 N599 0.985 . S
H604 N598 0.984 . S
H605 N598 0.984 . S
H606 N594 0.984 . S
H607 N594 0.985 . S
C608 C609 1.363 . S
C608 C614 1.379 . S
C608 N616 1.356 . S
C609 C608 1.363 . S
C609 C615 1.363 . S
C610 C611 1.363 . S
C610 C615 1.379 . S
C610 N617 1.356 . S
C611 C610 1.363 . S
C611 C614 1.363 . S
N612 C614 1.356 . S
N612 H624 0.984 . S
N612 H625 0.985 . S
N613 C615 1.356 . S
N613 H618 0.984 . S
N613 H619 0.985 . S
C614 C608 1.379 . S
C614 C611 1.363 . S
C614 N612 1.356 . S
C615 C609 1.363 . S
C615 C610 1.379 . S
C615 N613 1.356 . S
N616 C608 1.356 . S
N616 H622 0.984 . S
N616 H623 0.984 . S
N617 C610 1.356 . S
N617 H620 0.984 . S
N617 H621 0.985 . S
H618 N613 0.984 . S
H619 N613 0.985 . S
H620 N617 0.984 . S
H621 N617 0.985 . S
H622 N616 0.984 . S
H623 N616 0.984 . S
H624 N612 0.984 . S
H625 N612 0.985 . S
C626 C627 1.363 . S
C626 C632 1.379 . S
C626 N634 1.356 . S
C627 C626 1.363 . S
C627 C633 1.363 . S
C628 C629 1.363 . S
C628 C633 1.379 . S
C628 N635 1.356 . S
C629 C628 1.363 . S
C629 C632 1.363 . S
N630 C632 1.356 . S
N630 H642 0.984 . S
N630 H643 0.985 . S
N631 C633 1.356 . S
N631 H636 0.984 . S
N631 H637 0.985 . S
C632 C626 1.379 . S
C632 C629 1.363 . S
C632 N630 1.356 . S
C633 C627 1.363 . S
C633 C628 1.379 . S
C633 N631 1.356 . S
N634 C626 1.356 . S
N634 H640 0.984 . S
N634 H641 0.984 . S
N635 C628 1.356 . S
N635 H638 0.984 . S
N635 H639 0.998 . S
H636 N631 0.984 . S
H637 N631 0.985 . S
H638 N635 0.984 . S
H639 N635 0.998 . S
H640 N634 0.984 . S
H641 N634 0.984 . S
H642 N630 0.984 . S
H643 N630 0.985 . S
C644 C645 1.363 . S
C644 C650 1.379 . S
C644 N652 1.356 . S
C645 C644 1.363 . S
C645 C651 1.363 . S
C646 C647 1.363 . S
C646 C651 1.379 . S
C646 N653 1.356 . S
C647 C646 1.363 . S
C647 C650 1.363 . S
N648 C650 1.356 . S
N648 H660 0.984 . S
N648 H661 0.985 . S
N649 C651 1.356 . S
N649 H654 0.984 . S
N649 H655 0.985 . S
C650 C644 1.379 . S
C650 C647 1.363 . S
C650 N648 1.356 . S
C651 C645 1.363 . S
C651 C646 1.379 . S
C651 N649 1.356 . S
N652 C644 1.356 . S
N652 H658 0.984 . S
N652 H659 0.984 . S
N653 C646 1.356 . S
N653 H656 0.984 . S
N653 H657 0.985 . S
H654 N649 0.984 . S
H655 N649 0.985 . S
H656 N653 0.984 . S
H657 N653 0.985 . S
H658 N652 0.984 . S
H659 N652 0.984 . S
H660 N648 0.984 . S
H661 N648 0.985 . S
C662 C663 1.363 . S
C662 C668 1.379 . S
C662 N670 1.356 . S
C663 C662 1.363 . S
C663 C669 1.363 . S
C664 C665 1.363 . S
C664 C669 1.379 . S
C664 N671 1.356 . S
C665 C664 1.363 . S
C665 C668 1.363 . S
N666 C668 1.356 . S
N666 H678 0.984 . S
N666 H679 0.985 . S
N667 C669 1.356 . S
N667 H672 0.984 . S
N667 H673 0.985 . S
C668 C662 1.379 . S
C668 C665 1.363 . S
C668 N666 1.356 . S
C669 C663 1.363 . S
C669 C664 1.379 . S
C669 N667 1.356 . S
N670 C662 1.356 . S
N670 H676 0.984 . S
N670 H677 0.984 . S
N671 C664 1.356 . S
N671 H674 0.984 . S
N671 H675 0.985 1_455 S
H672 N667 0.984 . S
H673 N667 0.985 . S
H674 N671 0.984 . S
H675 N671 0.985 1_655 S
H676 N670 0.984 . S
H677 N670 0.984 . S
H678 N666 0.984 . S
H679 N666 0.985 . S
C680 C681 1.363 . S
C680 C686 1.379 . S
C680 N688 1.356 . S
C681 C680 1.363 . S
C681 C687 1.363 . S
C682 C683 1.363 . S
C682 C687 1.379 . S
C682 N689 1.356 . S
C683 C682 1.363 . S
C683 C686 1.363 . S
N684 C686 1.356 . S
N684 H696 0.984 . S
N684 H697 0.985 . S
N685 C687 1.356 . S
N685 H690 0.984 . S
N685 H691 0.985 . S
C686 C680 1.379 . S
C686 C683 1.363 . S
C686 N684 1.356 . S
C687 C681 1.363 . S
C687 C682 1.379 . S
C687 N685 1.356 . S
N688 C680 1.356 . S
N688 H694 0.984 . S
N688 H695 0.984 . S
N689 C682 1.356 . S
N689 H692 0.984 . S
N689 H693 0.985 . S
H690 N685 0.984 . S
H691 N685 0.985 . S
H692 N689 0.984 . S
H693 N689 0.985 . S
H694 N688 0.984 . S
H695 N688 0.984 . S
H696 N684 0.984 . S
H697 N684 0.985 . S
C698 C699 1.363 . S
C698 C704 1.379 . S
C698 N706 1.356 . S
C699 C698 1.363 . S
C699 C705 1.363 . S
C700 C701 1.363 . S
C700 C705 1.379 . S
C700 N707 1.356 1_545 S
C701 C700 1.363 . S
C701 C704 1.363 . S
N702 C704 1.356 . S
N702 H714 0.984 . S
N702 H715 0.985 . S
N703 C705 1.356 . S
N703 H708 0.984 . S
N703 H709 0.985 . S
C704 C698 1.379 . S
C704 C701 1.363 . S
C704 N702 1.356 . S
C705 C699 1.363 . S
C705 C700 1.379 . S
C705 N703 1.356 . S
N706 C698 1.356 . S
N706 H712 0.984 . S
N706 H713 0.984 . S
N707 C700 1.356 1_565 S
N707 H710 0.984 . S
N707 H711 0.985 . S
H708 N703 0.984 . S
H709 N703 0.985 . S
H710 N707 0.984 . S
H711 N707 0.985 . S
H712 N706 0.984 . S
H713 N706 0.984 . S
H714 N702 0.984 . S
H715 N702 0.985 . S
C716 C717 1.363 . S
C716 C722 1.379 . S
C716 N724 1.356 . S
C717 C716 1.363 . S
C717 C723 1.363 . S
C718 C719 1.363 . S
C718 C723 1.379 . S
C718 N725 1.356 . S
C719 C718 1.363 . S
C719 C722 1.363 . S
N720 C722 1.356 . S
N720 H732 0.984 . S
N720 H733 0.985 . S
N721 C723 1.356 . S
N721 H726 0.984 . S
N721 H727 0.985 . S
C722 C716 1.379 . S
C722 C719 1.363 . S
C722 N720 1.356 . S
C723 C717 1.363 . S
C723 C718 1.379 . S
C723 N721 1.356 . S
N724 C716 1.356 . S
N724 H730 0.984 . S
N724 H731 0.984 . S
N725 C718 1.356 . S
N725 H728 0.984 . S
N725 H729 0.985 . S
H726 N721 0.984 . S
H727 N721 0.985 . S
H728 N725 0.984 . S
H729 N725 0.985 . S
H730 N724 0.984 . S
H731 N724 0.984 . S
H732 N720 0.984 . S
H733 N720 0.985 . S
C734 C735 1.363 . S
C734 C740 1.379 . S
C734 N742 1.356 . S
C735 C734 1.363 . S
C735 C741 1.363 . S
C736 C737 1.363 . S
C736 C741 1.379 . S
C736 N743 1.356 . S
C737 C736 1.363 . S
C737 C740 1.363 . S
N738 C740 1.356 . S
N738 H750 0.984 . S
N738 H751 0.985 . S
N739 C741 1.356 . S
N739 H744 0.984 . S
N739 H745 0.985 . S
C740 C734 1.379 . S
C740 C737 1.363 . S
C740 N738 1.356 . S
C741 C735 1.363 . S
C741 C736 1.379 . S
C741 N739 1.356 . S
N742 C734 1.356 . S
N742 H748 0.984 . S
N742 H749 0.984 . S
N743 C736 1.356 . S
N743 H746 0.984 . S
N743 H747 0.985 . S
H744 N739 0.984 . S
H745 N739 0.985 . S
H746 N743 0.984 . S
H747 N743 0.985 . S
H748 N742 0.984 . S
H749 N742 0.984 . S
H750 N738 0.984 . S
H751 N738 0.985 . S
C752 C753 1.363 . S
C752 C758 1.379 . S
C752 N760 1.356 . S
C753 C752 1.363 . S
C753 C759 1.363 . S
C754 C755 1.363 . S
C754 C759 1.379 . S
C754 N761 1.356 . S
C755 C754 1.363 . S
C755 C758 1.363 . S
N756 C758 1.356 . S
N756 H768 0.984 . S
N756 H769 0.985 . S
N757 C759 1.356 . S
N757 H762 0.984 . S
N757 H763 0.985 . S
C758 C752 1.379 . S
C758 C755 1.363 . S
C758 N756 1.356 . S
C759 C753 1.363 . S
C759 C754 1.379 . S
C759 N757 1.356 . S
N760 C752 1.356 . S
N760 H766 0.984 . S
N760 H767 0.984 . S
N761 C754 1.356 . S
N761 H764 0.984 . S
N761 H765 0.985 . S
H762 N757 0.984 . S
H763 N757 0.985 . S
H764 N761 0.984 . S
H765 N761 0.985 . S
H766 N760 0.984 . S
H767 N760 0.984 . S
H768 N756 0.984 . S
H769 N756 0.985 . S
C770 C771 1.363 . S
C770 C776 1.379 . S
C770 N778 1.356 . S
C771 C770 1.363 . S
C771 C777 1.363 . S
C772 C773 1.363 . S
C772 C777 1.379 . S
C772 N779 1.356 . S
C773 C772 1.363 . S
C773 C776 1.363 . S
N774 C776 1.356 . S
N774 H786 0.984 . S
N774 H787 0.985 . S
N775 C777 1.356 . S
N775 H780 0.984 . S
N775 H781 0.985 . S
C776 C770 1.379 . S
C776 C773 1.363 . S
C776 N774 1.356 . S
C777 C771 1.363 . S
C777 C772 1.379 . S
C777 N775 1.356 . S
N778 C770 1.356 . S
N778 H784 0.984 . S
N778 H785 0.984 . S
N779 C772 1.356 . S
N779 H782 0.984 . S
N779 H783 0.985 1_554 S
H780 N775 0.984 . S
H781 N775 0.985 . S
H782 N779 0.984 . S
H783 N779 0.985 1_556 S
H784 N778 0.984 . S
H785 N778 0.984 . S
H786 N774 0.984 . S
H787 N774 0.985 . S
C788 C789 1.363 . S
C788 C794 1.379 . S
C788 N796 1.356 . S
C789 C788 1.363 . S
C789 C795 1.363 . S
C790 C791 1.363 . S
C790 C795 1.379 . S
C790 N797 1.356 . S
C791 C790 1.363 . S
C791 C794 1.363 . S
N792 C794 1.356 . S
N792 H804 0.984 . S
N792 H805 0.985 . S
N793 C795 1.356 . S
N793 H798 0.984 . S
N793 H799 0.985 . S
C794 C788 1.379 . S
C794 C791 1.363 . S
C794 N792 1.356 . S
C795 C789 1.363 . S
C795 C790 1.379 . S
C795 N793 1.356 . S
N796 C788 1.356 . S
N796 H802 0.984 . S
N796 H803 0.984 . S
N797 C790 1.356 . S
N797 H800 0.984 . S
N797 H801 0.985 1_455 S
H798 N793 0.984 . S
H799 N793 0.985 . S
H800 N797 0.984 . S
H801 N797 0.985 1_655 S
H802 N796 0.984 . S
H803 N796 0.984 . S
H804 N792 0.984 . S
H805 N792 0.985 . S
C806 C807 1.363 . S
C806 C812 1.379 . S
C806 N814 1.356 . S
C807 C806 1.363 . S
C807 C813 1.363 . S
C808 C809 1.363 . S
C808 C813 1.379 . S
C808 N815 1.356 . S
C809 C808 1.363 . S
C809 C812 1.363 . S
N810 C812 1.356 . S
N810 H822 0.984 . S
N810 H823 0.985 . S
N811 C813 1.356 . S
N811 H816 0.984 . S
N811 H817 0.985 . S
C812 C806 1.379 . S
C812 C809 1.363 . S
C812 N810 1.356 . S
C813 C807 1.363 . S
C813 C808 1.379 . S
C813 N811 1.356 . S
N814 C806 1.356 . S
N814 H820 0.984 . S
N814 H821 0.984 . S
N815 C808 1.356 . S
N815 H818 0.984 . S
N815 H819 0.985 . S
H816 N811 0.984 . S
H817 N811 0.985 . S
H818 N815 0.984 . S
H819 N815 0.985 . S
H820 N814 0.984 . S
H821 N814 0.984 . S
H822 N810 0.984 . S
H823 N810 0.985 . S
C393 C1 1.548 . S
C395 C314 1.615 . S
C411 C40 1.358 . S
C413 C333 1.323 . S
C431 C370 1.758 . S
C429 C99 1.795 . S
C447 C118 1.745 . S
C449 C380 1.688 . S
C467 C350 2.033 . S
C465 C16 1.945 . S
C485 C320 1.394 . S
C483 C60 1.477 . S
C503 C391 1.536 . S
C501 C79 1.567 . S
C521 C361 1.447 . S
C519 C138 1.460 . S
C537 C21 1.711 . S
C539 C374 1.794 . S
C557 C341 1.714 . S
C555 C94 1.775 . S
C573 C133 1.739 . S
C575 C331 1.743 . S
C591 C55 1.272 . S
C593 C353 1.291 . S
C611 C313 1.617 . S
C609 C157 1.561 . S
C627 C196 1.362 . S
C629 C334 1.324 . S
C645 C255 1.790 . S
C647 C371 1.756 . S
C663 C289 1.744 . S
C665 C381 1.684 . S
C681 C172 1.936 . S
C683 C351 2.031 . S
C701 C321 1.395 . S
C699 C216 1.487 . S
C719 C390 1.536 . S
C717 C235 1.568 . S
C737 C360 1.446 . S
C735 C294 1.460 . S
C753 C177 1.729 . S
C755 C373 1.793 . S
C773 C340 1.715 . S
C771 C250 1.777 . S
C791 C330 1.747 . S
C789 C274 1.740 . S
C807 C211 1.269 . S
C809 C354 1.288 . S
