# Generated by pormake.
# Topology zzz, (3,6)-cn, num edge types: 1
# Building blocks:
#     Node 0, Type 0, BuildingBlock: QEWDON_clean_linker_0, # of connection points: 3
#     Node 1, Type 0, BuildingBlock: QEWDON_clean_linker_0, # of connection points: 3
#     Node 2, Type 0, BuildingBlock: QEWDON_clean_linker_0, # of connection points: 3
#     Node 3, Type 0, BuildingBlock: QEWDON_clean_linker_0, # of connection points: 3
#     Node 4, Type 0, BuildingBlock: QEWDON_clean_linker_0, # of connection points: 3
#     Node 5, Type 0, BuildingBlock: QEWDON_clean_linker_0, # of connection points: 3
#     Node 6, Type 0, BuildingBlock: QEWDON_clean_linker_0, # of connection points: 3
#     Node 7, Type 0, BuildingBlock: QEWDON_clean_linker_0, # of connection points: 3
#     Node 8, Type 1, BuildingBlock: CUWYAW_clean_sbu_0, # of connection points: 6
#     Node 9, Type 1, BuildingBlock: CUWYAW_clean_sbu_0, # of connection points: 6
#     Node 10, Type 1, BuildingBlock: CUWYAW_clean_sbu_0, # of connection points: 6
#     Node 11, Type 1, BuildingBlock: CUWYAW_clean_sbu_0, # of connection points: 6
#     Edge 12, Type (0, 1), None
#     Edge 13, Type (0, 1), None
#     Edge 14, Type (0, 1), None
#     Edge 15, Type (0, 1), None
#     Edge 16, Type (0, 1), None
#     Edge 17, Type (0, 1), None
#     Edge 18, Type (0, 1), None
#     Edge 19, Type (0, 1), None
#     Edge 20, Type (0, 1), None
#     Edge 21, Type (0, 1), None
#     Edge 22, Type (0, 1), None
#     Edge 23, Type (0, 1), None
#     Edge 24, Type (0, 1), None
#     Edge 25, Type (0, 1), None
#     Edge 26, Type (0, 1), None
#     Edge 27, Type (0, 1), None
#     Edge 28, Type (0, 1), None
#     Edge 29, Type (0, 1), None
#     Edge 30, Type (0, 1), None
#     Edge 31, Type (0, 1), None
#     Edge 32, Type (0, 1), None
#     Edge 33, Type (0, 1), None
#     Edge 34, Type (0, 1), None
#     Edge 35, Type (0, 1), None
# Relax obj value: 0.443
# Max RMSD: 0.200
# Mean RMSD: 0.089
data_MOF--net-zzz--node1-CUWYAW_clean_sbu_0--node2-QEWDON_clean_linker_0--edge1-none
_symmetry_space_group_name_H-M    P1
_symmetry_Int_Tables_number       1
_symmetry_cell_setting            triclinic
loop_
_symmetry_equiv_pos_as_xyz
'x, y, z'
_cell_length_a     26.911488
_cell_length_b     26.904251
_cell_length_c     8.2786407
_cell_angle_alpha  89.582252
_cell_angle_beta   89.670977
_cell_angle_gamma 89.935391
loop_
_atom_site_label
_atom_site_type_symbol
_atom_site_fract_x
_atom_site_fract_y
_atom_site_fract_z
_atom_type_partial_charge
H0 H 0.70191 0.48692 0.58182 0.0
C1 C 0.73866 0.50109 0.60608 0.0
C2 C 0.77652 0.49312 0.49087 0.0
C3 C 0.74954 0.52724 0.75071 0.0
H4 H 0.85252 0.50692 0.42661 0.0
C5 C 0.8236 0.51314 0.51603 0.0
C6 C 0.83695 0.52948 0.66725 0.0
C7 C 0.79989 0.53853 0.78235 0.0
C8 C 0.71029 0.5418 0.87179 0.0
H9 H 0.81103 0.55246 0.89886 0.0
C10 C 0.66381 0.51757 0.88125 0.0
C11 C 0.62607 0.53521 -0.01476 0.0
C12 C 0.71845 0.58256 -0.02456 0.0
H13 H 0.75228 0.60413 -0.03018 0.0
C14 C 0.68235 0.59767 0.086 0.0
H15 H 0.65565 0.48687 0.80222 0.0
C16 C 0.63615 0.57469 0.0895 0.0
H17 H 0.60742 0.58916 0.16858 0.0
H18 H 0.68945 0.62892 0.16418 0.0
H19 H 0.02953 0.71111 0.56135 0.0
C20 C 0.02099 0.74929 0.59082 0.0
C21 C 0.03357 0.78652 0.47851 0.0
C22 C 0.99692 0.76224 0.73829 0.0
H23 H 0.03058 0.86452 0.42453 0.0
C24 C 0.02041 0.83564 0.50964 0.0
C25 C 1.0024 0.84989 0.65772 0.0
C26 C 0.98949 0.81331 0.77199 0.0
C27 C 0.98018 0.72329 0.85731 0.0
H28 H 0.97462 0.82485 0.88724 0.0
C29 C 1.00393 0.6767 0.86562 0.0
C30 C 0.98399 0.63758 -0.04017 0.0
C31 C 0.93833 0.73124 -0.04264 0.0
H32 H 0.9181 0.766 -0.046 0.0
C33 C 0.9207 0.69365 0.06006 0.0
H34 H 0.03648 0.66979 0.79191 0.0
C35 C 0.94275 0.64669 0.05914 0.0
H36 H 0.92656 0.61703 0.13132 0.0
H37 H 0.88839 0.7003 0.13532 0.0
H38 H 0.82335 0.04129 0.54269 0.0
C39 C 0.7868 0.0363 0.59526 0.0
C40 C 0.74513 0.05158 0.50591 0.0
C41 C 0.78019 1.01394 0.7505 0.0
H42 H 0.6658 0.05634 0.49906 0.0
C43 C 0.69768 0.04443 0.56915 0.0
C44 C 0.69012 0.02098 0.71613 0.0
C45 C 0.73103 1.00534 0.80604 0.0
C46 C 0.82346 1.00014 0.85634 0.0
H47 H 0.72385 0.98809 0.92168 0.0
C48 C 0.87001 0.02381 0.83867 0.0
C49 C 0.91102 1.00893 0.93263 0.0
C50 C 0.81878 0.96278 -0.02337 0.0
H51 H 0.78499 0.94165 -0.00739 0.0
C52 C 0.85848 0.95059 0.07711 0.0
H53 H 0.87535 0.05216 0.74696 0.0
C54 C 0.90451 0.97312 0.05445 0.0
H55 H 0.93574 0.96076 0.12657 0.0
H56 H 0.85406 0.92194 0.16857 0.0
H57 H 0.50646 0.82766 0.55258 0.0
C58 C 0.51152 0.79009 0.59736 0.0
C59 C 0.49494 0.74979 0.50428 0.0
C60 C 0.53543 0.78077 0.74752 0.0
H61 H 0.48804 0.67056 0.49017 0.0
C62 C 0.50138 0.70142 0.56162 0.0
C63 C 0.52484 0.69172 0.70661 0.0
C64 C 0.54283 0.73104 0.79751 0.0
C65 C 0.55196 0.8216 0.85639 0.0
H66 H 0.56058 0.72258 0.91123 0.0
C67 C 0.52525 0.86653 0.86789 0.0
C68 C 0.54153 0.9046 -0.0289 0.0
C69 C 0.59446 0.81519 -0.04632 0.0
H70 H 0.61715 0.78207 -0.05428 0.0
C71 C 0.60908 0.85184 0.06146 0.0
H72 H 0.49307 0.87271 0.79233 0.0
C73 C 0.5831 0.89647 0.06939 0.0
H74 H 0.59664 0.92556 0.14757 0.0
H75 H 0.6417 0.84626 0.13531 0.0
H76 H 0.2433 0.60449 0.00664 0.0
C77 C 0.21563 0.5757 -0.00934 0.0
C78 C 0.17797 0.5694 0.10507 0.0
C79 C 0.21627 0.54586 0.85237 0.0
H80 H 0.11229 0.529 0.17275 0.0
C81 C 0.14197 0.53243 0.0844 0.0
C82 C 0.13762 0.50779 0.93858 0.0
C83 C 0.17637 0.51302 0.82339 0.0
C84 C 0.25665 0.55305 0.73341 0.0
H85 H 0.17412 0.49416 0.70844 0.0
C86 C 0.30005 0.52441 0.74467 0.0
C87 C 0.34242 0.53697 0.6522 0.0
C88 C 0.25559 0.59387 0.62749 0.0
H89 H 0.22403 0.61886 0.62702 0.0
C90 C 0.29522 0.60276 0.52161 0.0
H91 H 0.30234 0.4958 0.83733 0.0
C92 C 0.33856 0.57442 0.53342 0.0
H93 H 0.37036 0.58479 0.45976 0.0
H94 H 0.29344 0.63347 0.43664 0.0
H95 H 0.02367 0.28206 0.0252 0.0
C96 C 0.03975 0.24783 -0.01973 0.0
C97 C 0.05923 0.21359 0.09088 0.0
C98 C 0.03395 0.2346 0.81707 0.0
H99 H 0.10067 0.14453 0.1114 0.0
C100 C 0.08138 0.16997 0.03162 0.0
C101 C 0.06491 0.15134 0.88704 0.0
C102 C 0.04208 0.18434 0.77612 0.0
C103 C 1.01498 0.27263 0.69963 0.0
H104 H 0.02847 0.17051 0.66367 0.0
C105 C 0.02874 0.32249 0.72018 0.0
C106 C 1.00443 0.36136 0.63787 0.0
C107 C 0.98081 0.26144 0.57734 0.0
H108 H 0.96854 0.22367 0.55859 0.0
C109 C 0.96054 0.29967 0.48171 0.0
H110 H 0.05599 0.33143 0.81141 0.0
C111 C 0.97149 0.34959 0.51384 0.0
H112 H 0.95293 0.37884 0.44727 0.0
H113 H 0.93426 0.29069 0.38785 0.0
H114 H 0.29947 0.91322 0.02772 0.0
C115 C 0.32161 0.9465 0.01073 0.0
C116 C 0.35721 0.95944 0.1257 0.0
C117 C 0.31515 0.97681 0.87284 0.0
H118 H 0.41423 1.01105 0.1905 0.0
C119 C 0.38563 1.00254 0.10321 0.0
C120 C 0.38523 0.02819 -0.04315 0.0
C121 C 0.34791 1.01686 0.84409 0.0
C122 C 0.27513 0.96571 0.75701 0.0
H123 H 0.34639 0.03679 0.72994 0.0
C124 C 0.23214 0.99512 0.75599 0.0
C125 C 0.19033 0.98126 0.6645 0.0
C126 C 0.27749 0.92361 0.65853 0.0
H127 H 0.30996 0.89979 0.66032 0.0
C128 C 0.23801 0.91231 0.55594 0.0
H129 H 0.22987 0.02633 0.83792 0.0
C130 C 0.19438 0.94069 0.55978 0.0
H131 H 0.16284 0.92939 0.48851 0.0
H132 H 0.24049 0.88019 0.47843 0.0
H133 H 0.59596 0.29283 0.03755 0.0
C134 C 0.56497 0.31804 0.0202 0.0
C135 C 0.55556 0.35544 0.13271 0.0
C136 C 0.53481 0.3144 0.88254 0.0
H137 H 0.5104 0.41828 0.1944 0.0
C138 C 0.51585 0.38834 0.10898 0.0
C139 C 0.49058 0.3898 -0.03694 0.0
C140 C 0.49851 0.35107 0.85198 0.0
C141 C 0.54439 0.27493 0.76376 0.0
H142 H 0.47933 0.35143 0.73717 0.0
C143 C 0.51573 0.23146 0.76663 0.0
C144 C 0.52806 0.19122 0.6658 0.0
C145 C 0.5847 0.27872 0.65663 0.0
H146 H 0.60866 0.31102 0.65853 0.0
C147 C 0.59388 0.24117 0.5447 0.0
H148 H 0.48679 0.22746 0.85749 0.0
C149 C 0.56575 0.19756 0.54886 0.0
H150 H 0.57612 0.16742 0.46929 0.0
H151 H 0.6243 0.24491 0.45938 0.0
C152 C 1.00877 0.05599 0.35794 0.0
Eu153 Eu 0.02799 1.01488 0.62909 0.0
C154 C 1.01436 0.10999 0.33657 0.0
C155 C 0.97641 0.13897 0.26917 0.0
C156 C 0.98572 0.18904 0.23301 0.0
C157 C 0.03459 0.20741 0.24897 0.0
C158 C 0.0646 0.18467 0.3652 0.0
C159 C 0.05738 0.13401 0.39369 0.0
C160 C 0.96182 0.02134 0.87976 0.0
C161 C 0.06573 0.09697 0.86153 0.0
C162 C 0.10622 0.92073 0.14842 0.0
Eu163 Eu 0.0698 0.9806 0.92849 0.0
C164 C 0.09806 0.86735 0.18717 0.0
C165 C 0.13038 0.84144 0.29042 0.0
C166 C 0.11497 0.79626 0.36107 0.0
C167 C 0.06598 0.77959 0.33572 0.0
C168 C 0.04309 0.79538 0.19263 0.0
C169 C 0.05625 0.84193 0.12925 0.0
C170 C 0.14098 1.00161 0.70881 0.0
C171 C 1.00977 0.90241 0.69729 0.0
O172 O 0.05028 0.03169 0.38231 0.0
O173 O 0.97306 0.04214 0.45595 0.0
O174 O 0.96952 0.05604 0.77385 0.0
O175 O 0.99169 0.98637 0.85401 0.0
O176 O 0.06756 0.08214 0.71246 0.0
O177 O 0.06046 0.06382 -0.01867 0.0
O178 O 0.06965 0.95198 0.17738 0.0
O179 O 0.12709 0.92898 0.0087 0.0
O180 O 0.1377 0.02183 0.84963 0.0
O181 O 0.10107 0.97814 0.6796 0.0
O182 O 0.02877 0.91286 0.83837 0.0
O183 O 1.00766 0.93627 0.58247 0.0
H184 H 0.94148 0.12232 0.2343 0.0
H185 H 0.959 0.20874 0.15889 0.0
H186 H 0.10067 0.20031 0.3922 0.0
H187 H 0.08741 0.11347 0.44871 0.0
H188 H 0.16497 0.85799 0.32776 0.0
H189 H 0.13622 0.78155 0.46141 0.0
H190 H 1.00669 0.78107 0.16337 0.0
H191 H 0.02977 0.86043 0.05487 0.0
C192 C 0.50831 0.96839 0.44859 0.0
Eu193 Eu 0.52124 0.02241 0.70393 0.0
C194 C 0.46312 0.93887 0.41774 0.0
C195 C 0.46145 0.90479 0.29137 0.0
C196 C 0.41644 0.89692 0.211 0.0
C197 C 0.37458 0.92553 0.25413 0.0
C198 C 0.37344 0.9459 0.40954 0.0
C199 C 0.41813 0.95338 0.49051 0.0
C200 C 0.52332 0.95578 -0.04957 0.0
C201 C 0.43234 0.05233 0.90684 0.0
C202 C 0.60996 0.11087 0.11519 0.0
Eu203 Eu 0.54751 0.07007 0.91235 0.0
C204 C 0.6611 0.10043 0.16847 0.0
C205 C 0.68838 0.13676 0.25008 0.0
C206 C 0.73171 0.1233 0.33327 0.0
C207 C 0.74602 0.07296 0.34154 0.0
C208 C 0.7264 0.04055 0.22581 0.0
C209 C 0.68186 0.05304 0.14914 0.0
C210 C 0.51231 0.14048 0.71301 0.0
C211 C 0.63925 1.01511 0.77745 0.0
O212 O 0.50111 1.01632 0.45015 0.0
O213 O 0.53586 0.95395 0.56818 0.0
O214 O 0.48437 0.96485 0.86476 0.0
O215 O 0.55563 0.98841 0.92406 0.0
O216 O 0.44443 0.05075 0.75467 0.0
O217 O 0.46963 0.05526 0.00928 0.0
O218 O 0.57588 0.07881 0.15779 0.0
O219 O 0.60532 0.12454 -0.03435 0.0
O220 O 0.49635 0.1337 0.85951 0.0
O221 O 0.53818 0.1036 0.66844 0.0
O222 O 0.60284 0.04235 0.72209 0.0
O223 O 0.6037 0.04347 0.71576 0.0
H224 H 0.49524 0.88874 0.24501 0.0
H225 H 0.41754 0.87796 0.09598 0.0
H226 H 0.34154 0.96744 0.44765 0.0
H227 H 0.41808 0.97711 0.59491 0.0
H228 H 0.67375 0.17408 0.26273 0.0
H229 H 0.74733 0.14973 0.41702 0.0
H230 H 0.73759 1.00183 0.22629 0.0
H231 H 0.66125 0.02426 0.08884 0.0
C232 C 0.56563 0.50685 0.45406 0.0
Eu233 Eu 0.51023 0.52416 0.70594 0.0
C234 C 0.59024 0.45874 0.42415 0.0
C235 C 0.62333 0.45272 0.2951 0.0
C236 C 0.62462 0.40724 0.2136 0.0
C237 C 0.59085 0.36959 0.25909 0.0
C238 C 0.57032 0.37129 0.4147 0.0
C239 C 0.57018 0.41607 0.49794 0.0
C240 C 0.57392 0.52152 -0.04174 0.0
C241 C 0.47142 0.43884 0.9104 0.0
C242 C 0.4244 0.6216 0.10879 0.0
Eu243 Eu 0.46257 0.55528 0.91099 0.0
C244 C 0.43775 0.67171 0.16533 0.0
C245 C 0.40394 0.69955 0.25739 0.0
C246 C 0.42051 0.74108 0.34351 0.0
C247 C 0.47147 0.75304 0.3439 0.0
C248 C 0.50135 0.73332 0.21993 0.0
C249 C 0.48571 0.69048 0.13985 0.0
C250 C 0.39199 0.52196 0.71089 0.0
C251 C 0.52713 0.64062 0.76769 0.0
O252 O 0.51723 0.50496 0.45133 0.0
O253 O 0.5814 0.53194 0.57662 0.0
O254 O 0.56294 0.48328 0.87217 0.0
O255 O 0.54445 0.5565 0.92775 0.0
O256 O 0.47549 0.45012 0.75787 0.0
O257 O 0.47064 0.47664 0.01143 0.0
O258 O 0.453 0.585 0.15485 0.0
O259 O 0.413 0.6182 -0.04268 0.0
O260 O 0.39593 0.50831 0.86064 0.0
O261 O 0.43041 0.54569 0.66626 0.0
O262 O 0.49596 0.60694 0.71737 0.0
O263 O 0.49512 0.60776 0.71235 0.0
H264 H 0.64366 0.48406 0.24764 0.0
H265 H 0.64316 0.4059 0.09716 0.0
H266 H 0.54388 0.34318 0.45245 0.0
H267 H 0.54715 0.41908 0.60428 0.0
H268 H 0.36623 0.68649 0.27538 0.0
H269 H 0.39598 0.75683 0.43395 0.0
H270 H 0.54049 0.74269 0.21437 0.0
H271 H 0.51255 0.66919 0.07215 0.0
C272 C 0.02954 0.57904 0.41389 0.0
Eu273 Eu 1.00361 0.5265 0.66314 0.0
C274 C 0.07682 0.60498 0.3884 0.0
C275 C 0.08304 0.63753 0.25734 0.0
C276 C 0.12966 0.64059 0.18212 0.0
C277 C 0.16678 0.6065 0.22883 0.0
C278 C 0.1644 0.58663 0.38528 0.0
C279 C 0.11906 0.5863 0.46681 0.0
C280 C 0.99989 0.58612 0.928 0.0
C281 C 0.08712 0.49072 0.894 0.0
C282 C 0.91342 0.42297 0.13664 0.0
Eu283 Eu 0.96977 0.4736 0.93542 0.0
C284 C 0.86152 0.4265 0.19707 0.0
C285 C 0.84547 0.39852 0.33112 0.0
C286 C 0.80079 0.41094 0.40967 0.0
C287 C 0.7754 0.45474 0.36422 0.0
C288 C 0.78379 0.4728 0.20695 0.0
C289 C 0.82765 0.45963 0.1258 0.0
C290 C 1.00713 0.41159 0.70925 0.0
C291 C 0.88967 0.52583 0.71045 0.0
O292 O 0.03314 0.5304 0.41878 0.0
O293 O 1.00124 0.59656 0.5282 0.0
O294 O 0.03873 0.57939 0.83897 0.0
O295 O 0.96745 0.55479 0.88893 0.0
O296 O 0.07594 0.49227 0.73967 0.0
O297 O 0.05045 0.48977 0.00404 0.0
O298 O 0.94516 0.45712 0.1838 0.0
O299 O 0.91762 0.41362 -0.01725 0.0
O300 O 0.02131 0.41393 0.8575 0.0
O301 O 0.97755 0.44734 0.67871 0.0
O302 O 0.90217 0.51817 0.86105 0.0
O303 O 0.92363 0.52192 0.59783 0.0
H304 H 0.05129 0.65512 0.20151 0.0
H305 H 0.13188 0.65886 0.06518 0.0
H306 H 0.19183 0.55957 0.42266 0.0
H307 H 0.11527 0.56303 0.57307 0.0
H308 H 0.86887 0.36985 0.38235 0.0
H309 H 0.79324 0.39389 0.52626 0.0
H310 H 0.76301 0.50455 0.16338 0.0
H311 H 0.83706 0.47828 0.01515 0.0
loop_
_geom_bond_atom_site_label_1
_geom_bond_atom_site_label_2
_geom_bond_distance
_geom_bond_site_symmetry_2
_ccdc_geom_bond_type
H0 C1 0.949 . S
C1 H0 0.949 . S
C1 C2 1.395 . S
C1 C3 1.391 . S
C2 C1 1.395 . S
C2 C5 1.390 . S
C3 C1 1.391 . S
C3 C7 1.387 . S
C3 C8 1.491 . S
H4 C5 0.950 . S
C5 C2 1.390 . S
C5 H4 0.950 . S
C5 C6 1.378 . S
C6 C5 1.378 . S
C6 C7 1.409 . S
C7 C3 1.387 . S
C7 C6 1.409 . S
C7 H9 0.951 1_556 S
C8 C3 1.491 . S
C8 C10 1.382 . S
C8 C12 1.404 . S
H9 C7 0.951 1_554 S
C10 C8 1.382 . S
C10 C11 1.390 . S
C10 H15 0.949 . S
C11 C10 1.390 . S
C11 C16 1.399 . S
C12 C8 1.404 . S
C12 H13 0.950 . S
C12 C14 1.375 . S
H13 C12 0.950 . S
C14 C12 1.375 . S
C14 C16 1.382 . S
C14 H18 0.950 . S
H15 C10 0.949 . S
C16 C11 1.399 . S
C16 C14 1.382 . S
C16 H17 0.952 . S
H17 C16 0.952 . S
H18 C14 0.950 . S
H19 C20 0.949 . S
C20 H19 0.949 . S
C20 C21 1.395 . S
C20 C22 1.391 . S
C21 C20 1.395 . S
C21 C24 1.390 1_655 S
C22 C20 1.391 . S
C22 C26 1.387 . S
C22 C27 1.491 . S
H23 C24 0.950 . S
C24 C21 1.390 1_455 S
C24 H23 0.950 . S
C24 C25 1.377 1_455 S
C25 C24 1.377 1_655 S
C25 C26 1.413 . S
C26 C22 1.387 . S
C26 C25 1.413 . S
C26 H28 0.951 . S
C27 C22 1.491 . S
C27 C29 1.382 . S
C27 C31 1.404 . S
H28 C26 0.951 . S
C29 C27 1.382 . S
C29 C30 1.390 . S
C29 H34 0.949 1_655 S
C30 C29 1.390 . S
C30 C35 1.399 . S
C31 C27 1.404 . S
C31 H32 0.950 . S
C31 C33 1.375 . S
H32 C31 0.950 . S
C33 C31 1.375 . S
C33 C35 1.382 . S
C33 H37 0.950 . S
H34 C29 0.949 1_455 S
C35 C30 1.399 . S
C35 C33 1.382 . S
C35 H36 0.952 . S
H36 C35 0.952 . S
H37 C33 0.950 . S
H38 C39 0.949 . S
C39 H38 0.949 . S
C39 C40 1.395 . S
C39 C41 1.391 . S
C40 C39 1.395 . S
C40 C43 1.390 1_565 S
C41 C39 1.391 . S
C41 C45 1.387 . S
C41 C46 1.491 . S
H42 C43 0.950 . S
C43 C40 1.390 1_545 S
C43 H42 0.950 . S
C43 C44 1.377 1_545 S
C44 C43 1.377 1_565 S
C44 C45 1.413 . S
C45 C41 1.387 . S
C45 C44 1.413 . S
C45 H47 0.951 . S
C46 C41 1.491 . S
C46 C48 1.382 . S
C46 C50 1.404 . S
H47 C45 0.951 . S
C48 C46 1.382 . S
C48 C49 1.390 . S
C48 H53 0.949 1_565 S
C49 C48 1.390 . S
C49 C54 1.399 . S
C50 C46 1.404 . S
C50 H51 0.950 . S
C50 C52 1.375 . S
H51 C50 0.950 . S
C52 C50 1.375 . S
C52 C54 1.382 . S
C52 H56 0.950 . S
H53 C48 0.949 1_545 S
C54 C49 1.399 . S
C54 C52 1.382 . S
C54 H55 0.952 . S
H55 C54 0.952 . S
H56 C52 0.950 . S
H57 C58 0.949 . S
C58 H57 0.949 . S
C58 C59 1.395 . S
C58 C60 1.391 . S
C59 C58 1.395 . S
C59 C62 1.390 . S
C60 C58 1.391 . S
C60 C64 1.387 . S
C60 C65 1.491 . S
H61 C62 0.950 . S
C62 C59 1.390 . S
C62 H61 0.950 . S
C62 C63 1.378 . S
C63 C62 1.378 . S
C63 C64 1.409 . S
C64 C60 1.387 . S
C64 C63 1.409 . S
C64 H66 0.951 1_556 S
C65 C60 1.491 . S
C65 C67 1.382 . S
C65 C69 1.404 . S
H66 C64 0.951 1_554 S
C67 C65 1.382 . S
C67 C68 1.390 . S
C67 H72 0.949 . S
C68 C67 1.390 . S
C68 C73 1.399 . S
C69 C65 1.404 . S
C69 H70 0.950 . S
C69 C71 1.375 . S
H70 C69 0.950 . S
C71 C69 1.375 . S
C71 C73 1.382 . S
C71 H75 0.950 . S
H72 C67 0.949 . S
C73 C68 1.399 . S
C73 C71 1.382 . S
C73 H74 0.952 . S
H74 C73 0.952 . S
H75 C71 0.950 . S
H76 C77 0.949 . S
C77 H76 0.949 . S
C77 C78 1.395 . S
C77 C79 1.391 1_554 S
C78 C77 1.395 . S
C78 C81 1.390 1_554 S
C79 C77 1.391 1_556 S
C79 C83 1.387 . S
C79 C84 1.491 . S
H80 C81 0.950 . S
C81 C78 1.390 1_556 S
C81 H80 0.950 . S
C81 C82 1.378 . S
C82 C81 1.378 . S
C82 C83 1.409 . S
C83 C79 1.387 . S
C83 C82 1.409 . S
C83 H85 0.951 . S
C84 C79 1.491 . S
C84 C86 1.382 1_556 S
C84 C88 1.404 . S
H85 C83 0.951 . S
C86 C84 1.382 1_554 S
C86 C87 1.390 . S
C86 H91 0.949 . S
C87 C86 1.390 . S
C87 C92 1.399 . S
C88 C84 1.404 . S
C88 H89 0.950 . S
C88 C90 1.375 . S
H89 C88 0.950 . S
C90 C88 1.375 . S
C90 C92 1.382 1_556 S
C90 H94 0.950 . S
H91 C86 0.949 . S
C92 C87 1.399 . S
C92 C90 1.382 1_554 S
C92 H93 0.952 . S
H93 C92 0.952 . S
H94 C90 0.950 . S
H95 C96 0.949 . S
C96 H95 0.949 . S
C96 C97 1.395 . S
C96 C98 1.391 1_554 S
C97 C96 1.395 . S
C97 C100 1.390 1_654 S
C98 C96 1.391 1_556 S
C98 C102 1.387 . S
C98 C103 1.491 1_556 S
H99 C100 0.950 . S
C100 C97 1.390 1_456 S
C100 H99 0.950 . S
C100 C101 1.377 1_455 S
C101 C100 1.377 1_655 S
C101 C102 1.412 . S
C102 C98 1.387 . S
C102 C101 1.412 . S
C102 H104 0.951 . S
C103 C98 1.491 1_554 S
C103 C105 1.382 . S
C103 C107 1.404 1_554 S
H104 C102 0.951 . S
C105 C103 1.382 . S
C105 C106 1.390 . S
C105 H110 0.949 1_655 S
C106 C105 1.390 . S
C106 C111 1.399 . S
C107 C103 1.404 1_556 S
C107 H108 0.950 . S
C107 C109 1.375 . S
H108 C107 0.950 . S
C109 C107 1.375 . S
C109 C111 1.382 1_556 S
C109 H113 0.950 . S
H110 C105 0.949 1_455 S
C111 C106 1.399 . S
C111 C109 1.382 1_554 S
C111 H112 0.952 . S
H112 C111 0.952 . S
H113 C109 0.950 . S
H114 C115 0.949 . S
C115 H114 0.949 . S
C115 C116 1.395 . S
C115 C117 1.391 1_554 S
C116 C115 1.395 . S
C116 C119 1.390 1_564 S
C117 C115 1.391 1_556 S
C117 C121 1.387 . S
C117 C122 1.491 1_556 S
H118 C119 0.950 . S
C119 C116 1.390 1_546 S
C119 H118 0.950 . S
C119 C120 1.377 1_545 S
C120 C119 1.377 1_565 S
C120 C121 1.412 . S
C121 C117 1.387 . S
C121 C120 1.412 . S
C121 H123 0.951 . S
C122 C117 1.491 1_554 S
C122 C124 1.382 . S
C122 C126 1.404 1_554 S
H123 C121 0.951 . S
C124 C122 1.382 . S
C124 C125 1.390 . S
C124 H129 0.949 1_565 S
C125 C124 1.390 . S
C125 C130 1.399 . S
C126 C122 1.404 1_556 S
C126 H127 0.950 . S
C126 C128 1.375 . S
H127 C126 0.950 . S
C128 C126 1.375 . S
C128 C130 1.382 1_556 S
C128 H132 0.950 . S
H129 C124 0.949 1_545 S
C130 C125 1.399 . S
C130 C128 1.382 1_554 S
C130 H131 0.952 . S
H131 C130 0.952 . S
H132 C128 0.950 . S
H133 C134 0.949 . S
C134 H133 0.949 . S
C134 C135 1.395 . S
C134 C136 1.391 1_554 S
C135 C134 1.395 . S
C135 C138 1.390 1_554 S
C136 C134 1.391 1_556 S
C136 C140 1.387 . S
C136 C141 1.491 . S
H137 C138 0.950 . S
C138 C135 1.390 1_556 S
C138 H137 0.950 . S
C138 C139 1.378 . S
C139 C138 1.378 . S
C139 C140 1.409 . S
C140 C136 1.387 . S
C140 C139 1.409 . S
C140 H142 0.951 . S
C141 C136 1.491 . S
C141 C143 1.382 1_556 S
C141 C145 1.404 . S
H142 C140 0.951 . S
C143 C141 1.382 1_554 S
C143 C144 1.390 . S
C143 H148 0.949 . S
C144 C143 1.390 . S
C144 C149 1.399 . S
C145 C141 1.404 . S
C145 H146 0.950 . S
C145 C147 1.375 . S
H146 C145 0.950 . S
C147 C145 1.375 . S
C147 C149 1.382 1_556 S
C147 H151 0.950 . S
H148 C143 0.949 . S
C149 C144 1.399 . S
C149 C147 1.382 1_554 S
C149 H150 0.952 . S
H150 C149 0.952 . S
H151 C147 0.950 . S
C152 Eu153 2.835 . S
C152 C154 1.500 . S
C152 O172 1.257 . S
C152 O173 1.260 . S
Eu153 C152 2.835 . S
Eu153 O172 2.473 . S
Eu153 O173 2.480 . S
Eu153 O174 2.430 . S
Eu153 O175 2.670 1_545 S
Eu153 O176 2.394 . S
Eu153 O181 2.355 1_655 S
Eu153 O183 2.374 1_545 S
C154 C152 1.500 . S
C154 C155 1.377 . S
C154 C159 1.377 . S
C155 C154 1.377 . S
C155 C156 1.395 . S
C155 H184 0.931 . S
C156 C155 1.395 . S
C156 C157 1.383 . S
C156 H185 0.931 . S
C157 C156 1.383 . S
C157 C158 1.394 . S
C158 C157 1.394 . S
C158 C159 1.378 . S
C158 H186 0.923 1_655 S
C159 C154 1.377 . S
C159 C158 1.378 . S
C159 H187 0.931 1_655 S
C160 O174 1.259 1_554 S
C160 O175 1.270 1_544 S
C161 O176 1.251 1_455 S
C161 O177 1.251 1_556 S
C162 Eu163 2.835 . S
C162 C164 1.500 . S
C162 O178 1.257 . S
C162 O179 1.260 . S
Eu163 C162 2.835 . S
Eu163 O175 2.355 1_454 S
Eu163 O177 2.374 1_565 S
Eu163 O178 2.473 . S
Eu163 O179 2.480 . S
Eu163 O180 2.430 1_554 S
Eu163 O181 2.670 1_564 S
Eu163 O182 2.394 1_554 S
C164 C162 1.500 . S
C164 C165 1.377 . S
C164 C169 1.377 . S
C165 C164 1.377 . S
C165 C166 1.395 . S
C165 H188 0.931 . S
C166 C165 1.395 . S
C166 C167 1.383 . S
C166 H189 0.931 . S
C167 C166 1.383 . S
C167 C168 1.394 . S
C168 C167 1.394 . S
C168 C169 1.378 . S
C168 H190 0.927 1_455 S
C169 C164 1.377 . S
C169 C168 1.378 . S
C169 H191 0.931 1_455 S
C170 O180 1.259 . S
C170 O181 1.270 1_565 S
C171 O182 1.251 1_655 S
C171 O183 1.251 . S
O172 C152 1.257 . S
O172 Eu153 2.473 . S
O173 C152 1.260 . S
O173 Eu153 2.480 . S
O174 Eu153 2.430 . S
O174 C160 1.259 1_556 S
O175 Eu153 2.670 1_565 S
O175 C160 1.270 1_566 S
O175 Eu163 2.355 1_656 S
O176 Eu153 2.394 . S
O176 C161 1.251 1_655 S
O177 C161 1.251 1_554 S
O177 Eu163 2.374 1_545 S
O178 C162 1.257 . S
O178 Eu163 2.473 . S
O179 C162 1.260 . S
O179 Eu163 2.480 . S
O180 Eu163 2.430 1_556 S
O180 C170 1.259 . S
O181 Eu153 2.355 1_455 S
O181 Eu163 2.670 1_546 S
O181 C170 1.270 1_545 S
O182 Eu163 2.394 1_556 S
O182 C171 1.251 1_455 S
O183 Eu153 2.374 1_565 S
O183 C171 1.251 . S
H184 C155 0.931 . S
H185 C156 0.931 . S
H186 C158 0.923 1_455 S
H187 C159 0.931 1_455 S
H188 C165 0.931 . S
H189 C166 0.931 . S
H190 C168 0.927 1_655 S
H191 C169 0.931 1_655 S
C192 Eu193 2.835 . S
C192 C194 1.500 . S
C192 O212 1.257 . S
C192 O213 1.260 . S
Eu193 C192 2.835 . S
Eu193 O212 2.473 . S
Eu193 O213 2.480 . S
Eu193 O214 2.430 . S
Eu193 O215 2.670 . S
Eu193 O216 2.394 . S
Eu193 O221 2.355 1_565 S
Eu193 O223 2.374 . S
C194 C192 1.500 . S
C194 C195 1.377 . S
C194 C199 1.377 . S
C195 C194 1.377 . S
C195 C196 1.395 . S
C195 H224 0.931 . S
C196 C195 1.395 . S
C196 C197 1.383 . S
C196 H225 0.931 . S
C197 C196 1.383 . S
C197 C198 1.394 . S
C198 C197 1.394 . S
C198 C199 1.378 . S
C198 H226 0.931 1_565 S
C199 C194 1.377 . S
C199 C198 1.378 . S
C199 H227 0.931 1_565 S
C200 O214 1.259 1_554 S
C200 O215 1.270 1_554 S
C201 O216 1.251 1_545 S
C201 O217 1.251 1_556 S
C202 Eu203 2.835 . S
C202 C204 1.500 . S
C202 O218 1.257 . S
C202 O219 1.260 . S
Eu203 C202 2.835 . S
Eu203 O215 2.355 1_544 S
Eu203 O217 2.374 . S
Eu203 O218 2.473 . S
Eu203 O219 2.480 . S
Eu203 O220 2.430 1_554 S
Eu203 O221 2.670 1_554 S
Eu203 O222 2.394 1_554 S
C204 C202 1.500 . S
C204 C205 1.377 . S
C204 C209 1.377 . S
C205 C204 1.377 . S
C205 C206 1.395 . S
C205 H228 0.931 . S
C206 C205 1.395 . S
C206 C207 1.383 . S
C206 H229 0.931 . S
C207 C206 1.383 . S
C207 C208 1.394 . S
C208 C207 1.394 . S
C208 C209 1.378 . S
C208 H230 0.931 1_545 S
C209 C204 1.377 . S
C209 C208 1.378 . S
C209 H231 0.931 1_545 S
C210 O220 1.259 . S
C210 O221 1.270 . S
C211 O222 1.251 1_565 S
C211 O223 1.251 . S
O212 C192 1.257 . S
O212 Eu193 2.473 . S
O213 C192 1.260 . S
O213 Eu193 2.480 . S
O214 Eu193 2.430 . S
O214 C200 1.259 1_556 S
O215 Eu193 2.670 . S
O215 C200 1.270 1_556 S
O215 Eu203 2.355 1_566 S
O216 Eu193 2.394 . S
O216 C201 1.251 1_565 S
O217 C201 1.251 1_554 S
O217 Eu203 2.374 . S
O218 C202 1.257 . S
O218 Eu203 2.473 . S
O219 C202 1.260 . S
O219 Eu203 2.480 . S
O220 Eu203 2.430 1_556 S
O220 C210 1.259 . S
O221 Eu193 2.355 1_545 S
O221 Eu203 2.670 1_556 S
O221 C210 1.270 . S
O222 Eu203 2.394 1_556 S
O222 C211 1.251 1_545 S
O223 Eu193 2.374 . S
O223 C211 1.251 . S
H224 C195 0.931 . S
H225 C196 0.931 . S
H226 C198 0.931 1_545 S
H227 C199 0.931 1_545 S
H228 C205 0.931 . S
H229 C206 0.931 . S
H230 C208 0.931 1_565 S
H231 C209 0.931 1_565 S
C232 Eu233 2.835 . S
C232 C234 1.500 . S
C232 O252 1.257 . S
C232 O253 1.260 . S
Eu233 C232 2.835 . S
Eu233 O252 2.473 . S
Eu233 O253 2.480 . S
Eu233 O254 2.430 . S
Eu233 O255 2.670 . S
Eu233 O256 2.394 . S
Eu233 O261 2.355 . S
Eu233 O263 2.374 . S
C234 C232 1.500 . S
C234 C235 1.377 . S
C234 C239 1.377 . S
C235 C234 1.377 . S
C235 C236 1.395 . S
C235 H264 0.931 . S
C236 C235 1.395 . S
C236 C237 1.383 . S
C236 H265 0.931 . S
C237 C236 1.383 . S
C237 C238 1.394 . S
C238 C237 1.394 . S
C238 C239 1.378 . S
C238 H266 0.931 . S
C239 C234 1.377 . S
C239 C238 1.378 . S
C239 H267 0.931 . S
C240 O254 1.259 1_554 S
C240 O255 1.270 1_554 S
C241 O256 1.251 . S
C241 O257 1.251 1_556 S
C242 Eu243 2.835 . S
C242 C244 1.500 . S
C242 O258 1.257 . S
C242 O259 1.260 . S
Eu243 C242 2.835 . S
Eu243 O255 2.355 1_554 S
Eu243 O257 2.374 . S
Eu243 O258 2.473 . S
Eu243 O259 2.480 . S
Eu243 O260 2.430 1_554 S
Eu243 O261 2.670 1_554 S
Eu243 O262 2.394 1_554 S
C244 C242 1.500 . S
C244 C245 1.377 . S
C244 C249 1.377 . S
C245 C244 1.377 . S
C245 C246 1.395 . S
C245 H268 0.931 . S
C246 C245 1.395 . S
C246 C247 1.383 . S
C246 H269 0.931 . S
C247 C246 1.383 . S
C247 C248 1.394 . S
C248 C247 1.394 . S
C248 C249 1.378 . S
C248 H270 0.931 . S
C249 C244 1.377 . S
C249 C248 1.378 . S
C249 H271 0.931 . S
C250 O260 1.259 . S
C250 O261 1.270 . S
C251 O262 1.251 . S
C251 O263 1.251 . S
O252 C232 1.257 . S
O252 Eu233 2.473 . S
O253 C232 1.260 . S
O253 Eu233 2.480 . S
O254 Eu233 2.430 . S
O254 C240 1.259 1_556 S
O255 Eu233 2.670 . S
O255 C240 1.270 1_556 S
O255 Eu243 2.355 1_556 S
O256 Eu233 2.394 . S
O256 C241 1.251 . S
O257 C241 1.251 1_554 S
O257 Eu243 2.374 . S
O258 C242 1.257 . S
O258 Eu243 2.473 . S
O259 C242 1.260 . S
O259 Eu243 2.480 . S
O260 Eu243 2.430 1_556 S
O260 C250 1.259 . S
O261 Eu233 2.355 . S
O261 Eu243 2.670 1_556 S
O261 C250 1.270 . S
O262 Eu243 2.394 1_556 S
O262 C251 1.251 . S
O263 Eu233 2.374 . S
O263 C251 1.251 . S
H264 C235 0.931 . S
H265 C236 0.931 . S
H266 C238 0.931 . S
H267 C239 0.931 . S
H268 C245 0.931 . S
H269 C246 0.931 . S
H270 C248 0.931 . S
H271 C249 0.931 . S
C272 Eu273 2.835 . S
C272 C274 1.500 . S
C272 O292 1.257 . S
C272 O293 1.260 . S
Eu273 C272 2.835 . S
Eu273 O292 2.473 . S
Eu273 O293 2.480 . S
Eu273 O294 2.430 . S
Eu273 O295 2.670 1_455 S
Eu273 O296 2.394 . S
Eu273 O301 2.355 . S
Eu273 O303 2.374 1_455 S
C274 C272 1.500 . S
C274 C275 1.377 . S
C274 C279 1.377 . S
C275 C274 1.377 . S
C275 C276 1.395 . S
C275 H304 0.931 . S
C276 C275 1.395 . S
C276 C277 1.383 . S
C276 H305 0.931 . S
C277 C276 1.383 . S
C277 C278 1.394 . S
C278 C277 1.394 . S
C278 C279 1.378 . S
C278 H306 0.931 . S
C279 C274 1.377 . S
C279 C278 1.378 . S
C279 H307 0.931 . S
C280 O294 1.261 1_554 S
C280 O295 1.268 1_454 S
C281 O296 1.251 . S
C281 O297 1.251 1_556 S
C282 Eu283 2.835 . S
C282 C284 1.500 . S
C282 O298 1.257 . S
C282 O299 1.260 . S
Eu283 C282 2.835 . S
Eu283 O295 2.355 1_554 S
Eu283 O297 2.374 1_655 S
Eu283 O298 2.473 . S
Eu283 O299 2.480 . S
Eu283 O300 2.430 1_554 S
Eu283 O301 2.670 1_654 S
Eu283 O302 2.394 1_554 S
C284 C282 1.500 . S
C284 C285 1.377 . S
C284 C289 1.377 . S
C285 C284 1.377 . S
C285 C286 1.395 . S
C285 H308 0.931 . S
C286 C285 1.395 . S
C286 C287 1.383 . S
C286 H309 0.931 . S
C287 C286 1.383 . S
C287 C288 1.394 . S
C288 C287 1.394 . S
C288 C289 1.378 . S
C288 H310 0.931 . S
C289 C284 1.377 . S
C289 C288 1.378 . S
C289 H311 0.931 . S
C290 O300 1.259 . S
C290 O301 1.270 1_655 S
C291 O302 1.251 . S
C291 O303 1.251 . S
O292 C272 1.257 . S
O292 Eu273 2.473 . S
O293 C272 1.260 . S
O293 Eu273 2.480 . S
O294 Eu273 2.430 . S
O294 C280 1.261 1_556 S
O295 Eu273 2.670 1_655 S
O295 C280 1.268 1_656 S
O295 Eu283 2.355 1_556 S
O296 Eu273 2.394 . S
O296 C281 1.251 . S
O297 C281 1.251 1_554 S
O297 Eu283 2.374 1_455 S
O298 C282 1.257 . S
O298 Eu283 2.473 . S
O299 C282 1.260 . S
O299 Eu283 2.480 . S
O300 Eu283 2.430 1_556 S
O300 C290 1.259 . S
O301 Eu273 2.355 . S
O301 Eu283 2.670 1_456 S
O301 C290 1.270 1_455 S
O302 Eu283 2.394 1_556 S
O302 C291 1.251 . S
O303 Eu273 2.374 1_655 S
O303 C291 1.251 . S
H304 C275 0.931 . S
H305 C276 0.931 . S
H306 C278 0.931 . S
H307 C279 0.931 . S
H308 C285 0.931 . S
H309 C286 0.931 . S
H310 C288 0.931 . S
H311 C289 0.931 . S
C125 C170 3.294 1_554 S
C210 C144 3.347 1_556 S
C250 C87 3.366 1_556 S
C290 C106 3.295 1_556 S
C160 C49 3.317 1_544 S
C68 C200 3.266 1_556 S
C11 C240 3.265 1_556 S
C30 C280 3.296 1_656 S
C157 C97 2.023 . S
C197 C116 1.890 . S
C237 C135 1.740 . S
C78 C277 1.855 . S
C21 C167 2.033 1_655 S
C207 C40 1.901 1_545 S
C247 C59 1.753 . S
C2 C287 1.866 . S
C101 C161 3.921 1_655 S
C120 C201 3.847 1_565 S
C241 C139 3.850 . S
C281 C82 3.921 . S
C25 C171 3.926 . S
C211 C44 3.847 . S
C251 C63 3.842 . S
C6 C291 3.919 . S
