# Generated by pormake.
# Topology tsx, (6,3)-cn, num edge types: 1
# Building blocks:
#     Node 0, Type 0, BuildingBlock: JUFBIX_clean_sbu_0, # of connection points: 6
#     Node 1, Type 0, BuildingBlock: JUFBIX_clean_sbu_0, # of connection points: 6
#     Node 2, Type 1, BuildingBlock: CUQRIR_clean_linker_1, # of connection points: 3
#     Node 3, Type 1, BuildingBlock: CUQRIR_clean_linker_1, # of connection points: 3
#     Node 4, Type 1, BuildingBlock: CUQRIR_clean_linker_1, # of connection points: 3
#     Node 5, Type 1, BuildingBlock: CUQRIR_clean_linker_1, # of connection points: 3
#     Edge 6, Type (0, 1), BuildingBlock: FUNLAD_clean_linker_0, # of connection points: 2
#     Edge 7, Type (0, 1), BuildingBlock: FUNLAD_clean_linker_0, # of connection points: 2
#     Edge 8, Type (0, 1), BuildingBlock: FUNLAD_clean_linker_0, # of connection points: 2
#     Edge 9, Type (0, 1), BuildingBlock: FUNLAD_clean_linker_0, # of connection points: 2
#     Edge 10, Type (0, 1), BuildingBlock: FUNLAD_clean_linker_0, # of connection points: 2
#     Edge 11, Type (0, 1), BuildingBlock: FUNLAD_clean_linker_0, # of connection points: 2
#     Edge 12, Type (0, 1), BuildingBlock: FUNLAD_clean_linker_0, # of connection points: 2
#     Edge 13, Type (0, 1), BuildingBlock: FUNLAD_clean_linker_0, # of connection points: 2
#     Edge 14, Type (0, 1), BuildingBlock: FUNLAD_clean_linker_0, # of connection points: 2
#     Edge 15, Type (0, 1), BuildingBlock: FUNLAD_clean_linker_0, # of connection points: 2
#     Edge 16, Type (0, 1), BuildingBlock: FUNLAD_clean_linker_0, # of connection points: 2
#     Edge 17, Type (0, 1), BuildingBlock: FUNLAD_clean_linker_0, # of connection points: 2
# Relax obj value: 0.138
# Max RMSD: 0.158
# Mean RMSD: 0.146
data_MOF--net-tsx--node1-JUFBIX_clean_sbu_0--node2-CUQRIR_clean_linker_1--edge1-FUNLAD_clean_linker_0
_symmetry_space_group_name_H-M    P1
_symmetry_Int_Tables_number       1
_symmetry_cell_setting            triclinic
loop_
_symmetry_equiv_pos_as_xyz
'x, y, z'
_cell_length_a     21.685157
_cell_length_b     25.643491
_cell_length_c     36.740672
_cell_angle_alpha  82.045974
_cell_angle_beta   89.872007
_cell_angle_gamma 98.436601
loop_
_atom_site_label
_atom_site_type_symbol
_atom_site_fract_x
_atom_site_fract_y
_atom_site_fract_z
_atom_type_partial_charge
Co0 Co 0.07395 0.05116 0.98905 0.0
C1 C 0.02325 0.09253 0.92266 0.0
Co2 Co 0.99418 0.09463 -0.00549 0.0
C3 C 0.16281 0.97338 -0.00717 0.0
C4 C 0.19061 0.04576 0.95634 0.0
N5 N 0.14408 0.02039 0.97962 0.0
N6 N 0.21962 0.96934 0.97898 0.0
C7 C 0.23686 0.01479 0.95602 0.0
H8 H 0.13598 0.94328 0.01258 0.0
H9 H 0.191 0.08464 0.94051 0.0
C10 C 0.04806 0.05355 0.06062 0.0
N11 N 0.92596 0.12738 0.0033 0.0
C12 C 0.91087 0.17376 0.98617 0.0
C13 C 0.88355 0.11186 0.03107 0.0
N14 N 0.8614 0.18804 0.00255 0.0
C15 C 0.84407 0.14928 0.03083 0.0
C16 C 0.96083 0.98514 -0.00601 0.0
O17 O 0.08396 0.03569 0.03965 0.0
O18 O 1.00647 0.08005 0.04661 0.0
O19 O 0.94181 0.02919 -0.00389 0.0
O20 O 0.01919 0.98435 0.98989 0.0
O21 O 0.98378 0.10889 0.94236 0.0
H22 H 0.88248 0.07631 0.05085 0.0
H23 H 0.93726 0.19772 0.96313 0.0
O24 O 0.06397 0.0669 0.93824 0.0
O25 O 0.12682 0.11862 0.98911 0.0
O26 O 0.0462 0.15991 -0.00689 0.0
C27 C 0.10474 0.16149 0.99101 0.0
H28 H 0.27963 0.0246 0.93964 0.0
H29 H 0.80595 0.1484 0.05009 0.0
Co30 Co 0.6 0.45228 0.50501 0.0
C31 C 0.56878 0.49626 0.4345 0.0
Co32 Co 0.52378 0.50215 0.50301 0.0
C33 C 0.66778 0.36062 0.51045 0.0
C34 C 0.72576 0.4344 0.49168 0.0
N35 N 0.66704 0.41385 0.50336 0.0
N36 N 0.72453 0.34741 0.50369 0.0
C37 C 0.761 0.39397 0.492 0.0
H38 H 0.6273 0.33195 0.51991 0.0
H39 H 0.74176 0.47603 0.48221 0.0
C40 C 0.55718 0.45851 0.57359 0.0
N41 N 0.45509 0.5385 0.50472 0.0
C42 C 0.43789 0.58109 0.48314 0.0
C43 C 0.40653 0.52117 0.52852 0.0
N44 N 0.38025 0.59017 0.49251 0.0
C45 C 0.36089 0.55259 0.52115 0.0
C46 C 0.48393 0.39341 0.50148 0.0
O47 O 0.59669 0.43813 0.55667 0.0
O48 O 0.5216 0.4872 0.55531 0.0
O49 O 0.46785 0.43916 0.50054 0.0
O50 O 0.54157 0.38901 0.50281 0.0
O51 O 0.5283 0.51645 0.45094 0.0
H52 H 0.40352 0.48661 0.54933 0.0
H53 H 0.46584 0.60355 0.46017 0.0
O54 O 0.60325 0.46696 0.45314 0.0
O55 O 0.65639 0.51707 0.50792 0.0
O56 O 0.57989 0.56489 0.50567 0.0
C57 C 0.63785 0.56203 0.50794 0.0
H58 H 0.80912 0.39844 0.48271 0.0
H59 H 0.31641 0.54779 0.5356 0.0
C60 C 0.97724 0.92604 0.44104 0.0
N61 N 0.01561 0.91374 0.4153 0.0
N62 N 0.96037 0.97477 0.43072 0.0
C63 C 0.95591 0.89038 0.47594 0.0
C64 C 0.98895 0.99118 0.39754 0.0
N65 N 0.02275 0.95442 0.38825 0.0
C66 C 0.98093 0.04225 0.3736 0.0
H67 H 0.92602 0.90974 0.49265 0.0
H68 H 0.9968 0.87946 0.49174 0.0
H69 H 0.92816 0.85314 0.46935 0.0
H70 H 0.02222 0.07253 0.37618 0.0
H71 H 0.93876 0.0578 0.38204 0.0
H72 H 0.97704 0.03609 0.34435 0.0
C73 C 1.00666 1.0042 0.56273 0.0
N74 N 0.02521 0.04808 0.57885 0.0
N75 N 0.95147 0.97832 0.5775 0.0
C76 C 0.04215 0.98671 0.53263 0.0
C77 C 0.93747 1.00761 0.60347 0.0
N78 N 0.98209 0.05047 0.60414 0.0
C79 C 0.88385 0.99072 0.63073 0.0
H80 H 0.0714 0.02085 0.51603 0.0
H81 H 1.00974 0.96609 0.51445 0.0
H82 H 0.0729 0.95843 0.54505 0.0
H83 H 0.86502 0.94794 0.63162 0.0
H84 H 0.84598 0.01446 0.62264 0.0
H85 H 0.89867 0.99779 0.65873 0.0
C86 C 0.54908 0.58926 0.9326 0.0
N87 N 0.5617 0.55245 0.91155 0.0
N88 N 0.50464 0.61681 0.91688 0.0
C89 C 0.57595 0.59469 0.96978 0.0
C90 C 0.49154 0.5958 0.8855 0.0
N91 N 0.52566 0.55659 0.88246 0.0
C92 C 0.44654 0.61482 0.85733 0.0
H93 H 0.55215 0.56197 0.99021 0.0
H94 H 0.57067 0.63358 0.97821 0.0
H95 H 0.62619 0.59116 0.96974 0.0
H96 H 0.46272 0.61141 0.8292 0.0
H97 H 0.44098 0.6568 0.85887 0.0
H98 H 0.40037 0.58972 0.8627 0.0
C99 C 0.48769 0.5892 0.05798 0.0
N100 N 0.53158 0.61158 0.07962 0.0
N101 N 0.46845 0.53753 0.07143 0.0
C102 C 0.46104 0.61782 0.02479 0.0
C103 C 0.50077 0.52947 0.10256 0.0
N104 N 0.53928 0.57435 0.10746 0.0
C105 C 0.49098 0.47893 0.12947 0.0
H106 H 0.45181 0.59104 0.00361 0.0
H107 H 0.41575 0.62878 0.03271 0.0
H108 H 0.49184 0.65475 0.01354 0.0
H109 H 0.53064 0.45676 0.12682 0.0
H110 H 0.4471 0.45314 0.12424 0.0
H111 H 0.48933 0.48811 0.15806 0.0
C112 C 0.21105 0.21438 -0.00536 0.0
C113 C 0.14604 0.21228 -0.00703 0.0
C114 C 0.2491 0.26166 -0.00011 0.0
C115 C 0.22275 0.30789 0.00334 0.0
C116 C 0.15797 0.30591 0.00067 0.0
C117 C 0.12007 0.25883 -0.0046 0.0
C118 C 0.25995 0.35742 0.01288 0.0
C119 C 0.32206 0.37017 0.00734 0.0
C120 C 0.35943 0.41625 0.02144 0.0
C121 C 0.42255 0.41398 0.02874 0.0
C122 C 0.45829 0.45422 0.04474 0.0
C123 C 0.43179 0.49776 0.05342 0.0
H124 H 0.28591 0.46566 0.02223 0.0
C125 C 0.36967 0.50164 0.04468 0.0
C126 C 0.33366 0.4613 0.02871 0.0
H127 H 0.34884 0.53537 0.05085 0.0
H128 H 0.23242 0.17911 -0.00696 0.0
H129 H 0.29858 0.26089 0.00273 0.0
H130 H 0.13634 0.34073 0.00338 0.0
H131 H 0.07014 0.25869 -0.00584 0.0
H132 H 0.23468 0.38335 0.02619 0.0
H133 H 0.34747 0.34426 -0.00589 0.0
H134 H 0.44388 0.38024 0.02302 0.0
H135 H 0.50662 0.45124 0.05076 0.0
C136 C 0.22679 0.8729 0.98807 0.0
C137 C 0.25549 0.92606 0.98557 0.0
C138 C 0.26308 0.83179 0.98846 0.0
C139 C 0.3288 0.84331 0.98656 0.0
C140 C 0.35702 0.8961 0.98674 0.0
C141 C 0.32089 0.93698 0.98597 0.0
C142 C 0.36978 0.80244 0.98267 0.0
C143 C 0.35137 0.75857 0.9668 0.0
C144 C 0.39392 0.72147 0.9574 0.0
C145 C 0.36729 0.67057 0.95059 0.0
C146 C 0.40416 0.63594 0.93838 0.0
C147 C 0.46862 0.65132 0.93263 0.0
H148 H 0.48128 0.77608 0.95584 0.0
C149 C 0.49588 0.70188 0.93962 0.0
C150 C 0.45894 0.73674 0.95199 0.0
H151 H 0.54536 0.71473 0.93462 0.0
H152 H 0.17646 0.86345 0.98795 0.0
H153 H 0.23946 0.79138 0.98968 0.0
H154 H 0.40737 0.90616 0.98584 0.0
H155 H 0.34419 0.97756 0.9847 0.0
H156 H 0.41799 0.81123 0.99055 0.0
H157 H 0.30314 0.74994 0.9589 0.0
H158 H 0.31751 0.65776 0.95421 0.0
H159 H 0.38234 0.59705 0.93303 0.0
C160 C 0.85055 0.94016 0.00125 0.0
C161 C 0.91437 0.93589 -0.00099 0.0
C162 C 0.80585 0.89514 0.01013 0.0
C163 C 0.82348 0.84406 0.01672 0.0
C164 C 0.88723 0.8396 0.01346 0.0
C165 C 0.93224 0.88498 0.00462 0.0
C166 C 0.7777 0.79516 0.02914 0.0
C167 C 0.71497 0.79298 0.0277 0.0
C168 C 0.66887 0.74538 0.04221 0.0
C169 C 0.60632 0.75209 0.04771 0.0
C170 C 0.56115 0.70859 0.06076 0.0
C171 C 0.57761 0.65747 0.06823 0.0
H172 H 0.73178 0.68605 0.04529 0.0
C173 C 0.6398 0.65052 0.06296 0.0
C174 C 0.68497 0.6938 0.04994 0.0
H175 H 0.653 0.61107 0.06814 0.0
H176 H 0.83488 0.97873 -0.0028 0.0
H177 H 0.75805 0.90145 0.01297 0.0
H178 H 0.90248 0.80091 0.01848 0.0
H179 H 0.98099 0.88027 0.00331 0.0
H180 H 0.79726 0.76014 0.04074 0.0
H181 H 0.69534 0.82784 0.01596 0.0
H182 H 0.59227 0.79118 0.04189 0.0
H183 H 0.51332 0.71462 0.06466 0.0
C184 C 0.8242 0.25526 0.95656 0.0
C185 C 0.83474 0.23615 -0.00666 0.0
C186 C 0.7957 0.30084 0.94786 0.0
C187 C 0.7786 0.32864 0.97583 0.0
C188 C 0.79122 0.31052 0.01244 0.0
C189 C 0.81816 0.26421 0.02119 0.0
C190 C 0.74749 0.37652 0.96749 0.0
C191 C 0.70144 0.37872 0.94313 0.0
C192 C 0.66617 0.42434 0.93663 0.0
C193 C 0.60208 0.4145 0.93019 0.0
C194 C 0.56769 0.45661 0.92319 0.0
C195 C 0.59703 0.50944 0.92152 0.0
H196 H 0.74527 0.48609 0.93944 0.0
C197 C 0.66128 0.51954 0.92752 0.0
C198 C 0.69557 0.47729 0.93542 0.0
H199 H 0.68506 0.56007 0.92523 0.0
H200 H 0.83673 0.23419 0.93471 0.0
H201 H 0.78743 0.31452 0.91931 0.0
H202 H 0.77885 0.33152 0.03439 0.0
H203 H 0.82656 0.25047 0.0497 0.0
H204 H 0.75877 0.40847 0.98406 0.0
H205 H 0.68575 0.34417 0.92959 0.0
H206 H 0.57846 0.37408 0.93084 0.0
H207 H 0.51814 0.44808 0.91863 0.0
C208 C 0.66266 0.6604 0.50871 0.0
C209 C 0.68276 0.61033 0.51194 0.0
C210 C 0.7038 0.70577 0.51428 0.0
C211 C 0.76611 0.70213 0.52377 0.0
C212 C 0.78664 0.65231 0.52584 0.0
C213 C 0.74548 0.60689 0.52006 0.0
C214 C 0.81099 0.74916 0.53142 0.0
C215 C 0.79305 0.79358 0.54126 0.0
C216 C 0.83676 0.84072 0.54946 0.0
C217 C 0.81489 0.89003 0.54652 0.0
C218 C 0.85305 0.93517 0.55518 0.0
C219 C 0.91388 0.93201 0.56705 0.0
H220 H 0.91609 0.80011 0.56521 0.0
C221 C 0.93623 0.88299 0.5702 0.0
C222 C 0.89795 0.83754 0.5616 0.0
H223 H 0.98284 0.87985 0.57987 0.0
H224 H 0.61489 0.66466 0.50194 0.0
H225 H 0.68628 0.74345 0.51079 0.0
H226 H 0.83447 0.64828 0.53261 0.0
H227 H 0.7626 0.56896 0.52258 0.0
H228 H 0.86031 0.74631 0.52956 0.0
H229 H 0.7438 0.7964 0.54331 0.0
H230 H 0.76798 0.89369 0.53751 0.0
H231 H 0.83511 0.97271 0.55282 0.0
C232 C 0.80462 0.28741 0.51007 0.0
C233 C 0.74212 0.2949 0.50493 0.0
C234 C 0.82357 0.23821 0.50737 0.0
C235 C 0.78029 0.19473 0.4996 0.0
C236 C 0.7174 0.2018 0.49559 0.0
C237 C 0.69842 0.25113 0.49843 0.0
C238 C 0.79983 0.14361 0.49187 0.0
C239 C 0.85525 0.12831 0.50152 0.0
C240 C 0.88053 0.08415 0.48684 0.0
C241 C 0.94534 0.08891 0.48148 0.0
C242 C 0.97126 0.05198 0.46402 0.0
C243 C 0.93338 1.00821 0.45281 0.0
H244 H 0.79244 0.03359 0.48105 0.0
C245 C 0.86887 1.00143 0.45979 0.0
C246 C 0.84245 0.03929 0.47654 0.0
H247 H 0.83896 0.96797 0.45111 0.0
H248 H 0.83942 0.32007 0.51547 0.0
H249 H 0.87269 0.23558 0.50985 0.0
H250 H 0.68298 0.16938 0.48929 0.0
H251 H 0.65003 0.25552 0.49397 0.0
H252 H 0.76865 0.11952 0.47557 0.0
H253 H 0.88655 0.15197 0.51796 0.0
H254 H 0.97591 0.12275 0.48925 0.0
H255 H 0.02103 0.05812 0.45838 0.0
C256 C 0.37184 0.35351 0.50327 0.0
C257 C 0.43482 0.3462 0.50475 0.0
C258 C 0.32435 0.31043 0.51122 0.0
C259 C 0.33838 0.25839 0.52048 0.0
C260 C 0.4014 0.25085 0.52081 0.0
C261 C 0.44919 0.29425 0.51295 0.0
C262 C 0.28914 0.21198 0.53249 0.0
C263 C 0.22777 0.21237 0.52642 0.0
C264 C 0.17723 0.16879 0.54132 0.0
C265 C 0.11616 0.18077 0.54325 0.0
C266 C 0.06669 0.14135 0.55638 0.0
C267 C 0.07711 0.08898 0.56744 0.0
H268 H 0.2335 0.10473 0.55123 0.0
C269 C 0.13792 0.07666 0.56591 0.0
C270 C 0.18764 0.11613 0.55288 0.0
H271 H 0.14665 0.03634 0.57448 0.0
H272 H 0.35895 0.39301 0.49727 0.0
H273 H 0.27709 0.31904 0.51153 0.0
H274 H 0.4138 0.21136 0.52801 0.0
H275 H 0.49725 0.28729 0.51454 0.0
H276 H 0.30441 0.17714 0.54791 0.0
H277 H 0.21262 0.24692 0.51061 0.0
H278 H 0.10658 0.22085 0.5345 0.0
H279 H 0.01994 0.15136 0.55718 0.0
C280 C 0.27881 0.61661 0.4738 0.0
C281 C 0.34398 0.62933 0.47528 0.0
C282 C 0.24209 0.65518 0.46042 0.0
C283 C 0.26949 0.70813 0.44857 0.0
C284 C 0.33504 0.72027 0.44854 0.0
C285 C 0.37194 0.6813 0.46167 0.0
C286 C 0.2316 0.75156 0.43631 0.0
C287 C 0.16986 0.74811 0.44395 0.0
C288 C 0.13154 0.79168 0.43368 0.0
C289 C 0.06609 0.77875 0.43514 0.0
C290 C 0.02788 0.81841 0.4282 0.0
C291 C 0.05425 0.87205 0.42001 0.0
H292 H 0.20772 0.85783 0.42393 0.0
C293 C 0.11947 0.88517 0.4178 0.0
C294 C 0.15782 0.84557 0.42463 0.0
H295 H 0.14073 0.92644 0.41182 0.0
H296 H 0.25601 0.57652 0.48316 0.0
H297 H 0.19238 0.64281 0.45952 0.0
H298 H 0.35778 0.76042 0.43915 0.0
H299 H 0.42203 0.69223 0.46243 0.0
H300 H 0.25636 0.78804 0.4213 0.0
H301 H 0.14519 0.71175 0.45908 0.0
H302 H 0.04429 0.73772 0.44197 0.0
H303 H 0.97777 0.8072 0.42932 0.0
C304 C 0.09481 0.00856 0.11638 0.0
C305 C 0.05563 0.04438 0.10081 0.0
C306 C 0.10274 1.00025 0.15435 0.0
C307 C 0.0718 0.02783 0.17747 0.0
C308 C 0.03349 0.06421 0.16185 0.0
C309 C 0.02499 0.07209 0.12393 0.0
C310 C 0.07848 0.01994 0.21788 0.0
C311 C 0.08795 0.97332 0.23721 0.0
C312 C 0.08287 0.96462 0.27782 0.0
C313 C 0.04892 0.91711 0.2956 0.0
C314 C 0.03271 0.91225 0.33286 0.0
C315 C 0.05115 0.95451 0.35284 0.0
H316 H 0.13429 0.04124 0.2858 0.0
C317 C 0.09086 0.99958 0.33604 0.0
C318 C 0.10627 1.00486 0.29868 0.0
H319 H 0.107 0.03189 0.35137 0.0
H320 H 0.11938 0.98683 0.09924 0.0
H321 H 0.13376 0.97285 0.1654 0.0
H322 H 1.00939 0.08613 0.17911 0.0
H323 H 0.99488 0.10024 0.11274 0.0
H324 H 0.06898 0.05206 0.23254 0.0
H325 H 0.09066 0.93904 0.22324 0.0
H326 H 0.03106 0.88535 0.28011 0.0
H327 H 1.00221 0.8771 0.34545 0.0
C328 C 0.97479 0.12104 0.86188 0.0
C329 C 0.02441 0.10285 0.88203 0.0
C330 C 0.97629 0.12624 0.82326 0.0
C331 C 0.02771 0.11356 0.80451 0.0
C332 C 0.07789 0.09755 0.82483 0.0
C333 C 0.07641 0.09238 0.86292 0.0
C334 C 0.02964 0.11081 0.7645 0.0
C335 C 0.99561 0.13579 0.7389 0.0
C336 C 0.99731 0.12546 0.70002 0.0
C337 C 0.94331 0.12623 0.67906 0.0
C338 C 0.93991 0.10583 0.64556 0.0
C339 C 0.9901 0.08362 0.63295 0.0
H340 H 0.09401 0.11168 0.69885 0.0
C341 C 0.04615 0.08815 0.65193 0.0
C342 C 0.05019 0.10985 0.68471 0.0
H343 H 0.08568 0.07167 0.6428 0.0
H344 H 0.9342 0.12952 0.87591 0.0
H345 H 0.93631 0.13797 0.80849 0.0
H346 H 0.11814 0.08766 0.81118 0.0
H347 H 0.11599 0.07905 0.87739 0.0
H348 H 0.0605 0.08473 0.75607 0.0
H349 H 0.96275 0.16051 0.74686 0.0
H350 H 0.90245 0.13941 0.68966 0.0
H351 H 0.89683 0.1043 0.63066 0.0
C352 C 0.50809 0.47136 0.63248 0.0
C353 C 0.55453 0.45152 0.61413 0.0
C354 C 0.5086 0.46957 0.67056 0.0
C355 C 0.55547 0.44752 0.69124 0.0
C356 C 0.60093 0.42641 0.67298 0.0
C357 C 0.60028 0.42802 0.6348 0.0
C358 C 0.56207 0.45184 0.73094 0.0
C359 C 0.51385 0.45713 0.75258 0.0
C360 C 0.52069 0.47542 0.78918 0.0
C361 C 0.46664 0.47281 0.8109 0.0
C362 C 0.46872 0.49767 0.84242 0.0
C363 C 0.52485 0.52571 0.85268 0.0
H364 H 0.62033 0.50545 0.78466 0.0
C365 C 0.5796 0.52604 0.83238 0.0
C366 C 0.57768 0.50138 0.80074 0.0
H367 H 0.62322 0.54767 0.84008 0.0
H368 H 0.47227 0.48983 0.61735 0.0
H369 H 0.47387 0.48791 0.68327 0.0
H370 H 0.63792 0.40977 0.6882 0.0
H371 H 0.63681 0.41248 0.6214 0.0
H372 H 0.60857 0.4529 0.74191 0.0
H373 H 0.46685 0.45068 0.74225 0.0
H374 H 0.42216 0.45322 0.80271 0.0
H375 H 0.42624 0.49638 0.85827 0.0
C376 C 0.55079 0.54829 0.37347 0.0
C377 C 0.57773 0.50756 0.39418 0.0
C378 C 0.56117 0.55953 0.33542 0.0
C379 C 0.59855 0.52999 0.31744 0.0
C380 C 0.62482 0.48902 0.33814 0.0
C381 C 0.61504 0.47819 0.37612 0.0
C382 C 0.60663 0.53757 0.27692 0.0
C383 C 0.60466 0.58428 0.25544 0.0
C384 C 0.60082 0.5884 0.21485 0.0
C385 C 0.56719 0.62637 0.19635 0.0
C386 C 0.5513 0.62443 0.15973 0.0
C387 C 0.5691 0.58468 0.1411 0.0
H388 H 0.65329 0.52425 0.2076 0.0
C389 C 0.60853 0.55051 0.15815 0.0
C390 C 0.62455 0.5524 0.19479 0.0
H391 H 0.62391 0.52049 0.14373 0.0
H392 H 0.52181 0.57156 0.38664 0.0
H393 H 0.53846 0.59026 0.32016 0.0
H394 H 0.65302 0.46523 0.32487 0.0
H395 H 0.63637 0.44643 0.39127 0.0
H396 H 0.61198 0.50236 0.26457 0.0
H397 H 0.59911 0.6193 0.268 0.0
H398 H 0.54928 0.65511 0.21096 0.0
H399 H 0.52106 0.65128 0.14681 0.0
loop_
_geom_bond_atom_site_label_1
_geom_bond_atom_site_label_2
_geom_bond_distance
_geom_bond_site_symmetry_2
_ccdc_geom_bond_type
Co0 N5 2.057 . S
Co0 O17 2.021 . S
Co0 O20 2.062 . S
Co0 O24 2.117 1_564 S
Co0 O25 2.020 1_565 S
C1 O21 1.259 1_455 S
C1 O24 1.258 . S
Co2 N11 2.057 . S
Co2 O18 2.117 1_655 S
Co2 O19 2.020 1_545 S
Co2 O21 2.021 1_554 S
Co2 O26 2.062 1_654 S
C3 N5 1.316 . S
C3 N6 1.347 . S
C3 H8 0.931 . S
C4 N5 1.375 1_556 S
C4 C7 1.350 . S
C4 H9 0.930 . S
N5 Co0 2.057 . S
N5 C3 1.316 . S
N5 C4 1.375 1_554 S
N6 C3 1.347 . S
N6 C7 1.373 1_554 S
C7 C4 1.350 . S
C7 N6 1.373 1_556 S
C7 H28 0.931 . S
H8 C3 0.931 . S
H9 C4 0.930 . S
C10 O17 1.259 1_545 S
C10 O18 1.258 . S
N11 Co2 2.057 . S
N11 C12 1.316 1_554 S
N11 C13 1.375 . S
C12 N11 1.316 1_556 S
C12 N14 1.347 1_556 S
C12 H23 0.931 . S
C13 N11 1.375 . S
C13 C15 1.350 . S
C13 H22 0.930 . S
N14 C12 1.347 1_554 S
N14 C15 1.373 . S
C15 C13 1.350 . S
C15 N14 1.373 . S
C15 H29 0.931 . S
C16 O19 1.256 . S
C16 O20 1.255 1_655 S
O17 Co0 2.021 . S
O17 C10 1.259 1_565 S
O18 Co2 2.117 1_455 S
O18 C10 1.258 . S
O19 Co2 2.020 1_565 S
O19 C16 1.256 . S
O20 Co0 2.062 . S
O20 C16 1.255 1_455 S
O21 C1 1.259 1_655 S
O21 Co2 2.021 1_556 S
H22 C13 0.930 . S
H23 C12 0.931 . S
O24 Co0 2.117 1_546 S
O24 C1 1.258 . S
O25 Co0 2.020 1_545 S
O25 C27 1.256 . S
O26 Co2 2.062 1_456 S
O26 C27 1.255 1_556 S
C27 O25 1.256 . S
C27 O26 1.255 1_554 S
H28 C7 0.931 . S
H29 C15 0.931 . S
Co30 N35 2.057 . S
Co30 O47 2.021 . S
Co30 O50 2.062 . S
Co30 O54 2.117 . S
Co30 O55 2.020 . S
C31 O51 1.259 . S
C31 O54 1.258 . S
Co32 N41 2.057 . S
Co32 O48 2.117 . S
Co32 O49 2.020 . S
Co32 O51 2.021 . S
Co32 O56 2.062 . S
C33 N35 1.316 . S
C33 N36 1.347 . S
C33 H38 0.931 . S
C34 N35 1.375 . S
C34 C37 1.350 . S
C34 H39 0.930 . S
N35 Co30 2.057 . S
N35 C33 1.316 . S
N35 C34 1.375 . S
N36 C33 1.347 . S
N36 C37 1.373 . S
C37 C34 1.350 . S
C37 N36 1.373 . S
C37 H58 0.931 . S
H38 C33 0.931 . S
H39 C34 0.930 . S
C40 O47 1.259 . S
C40 O48 1.258 . S
N41 Co32 2.057 . S
N41 C42 1.316 . S
N41 C43 1.375 . S
C42 N41 1.316 . S
C42 N44 1.347 . S
C42 H53 0.931 . S
C43 N41 1.375 . S
C43 C45 1.350 . S
C43 H52 0.930 . S
N44 C42 1.347 . S
N44 C45 1.373 . S
C45 C43 1.350 . S
C45 N44 1.373 . S
C45 H59 0.931 . S
C46 O49 1.256 . S
C46 O50 1.255 . S
O47 Co30 2.021 . S
O47 C40 1.259 . S
O48 Co32 2.117 . S
O48 C40 1.258 . S
O49 Co32 2.020 . S
O49 C46 1.256 . S
O50 Co30 2.062 . S
O50 C46 1.255 . S
O51 C31 1.259 . S
O51 Co32 2.021 . S
H52 C43 0.930 . S
H53 C42 0.931 . S
O54 Co30 2.117 . S
O54 C31 1.258 . S
O55 Co30 2.020 . S
O55 C57 1.256 . S
O56 Co32 2.062 . S
O56 C57 1.255 . S
C57 O55 1.256 . S
C57 O56 1.255 . S
H58 C37 0.931 . S
H59 C45 0.931 . S
C60 N61 1.317 1_545 S
C60 N62 1.348 1_455 S
C60 C63 1.485 1_545 S
N61 C60 1.317 1_565 S
N61 N65 1.364 1_565 S
N62 C60 1.348 1_655 S
N62 C64 1.346 . S
C63 C60 1.485 1_565 S
C63 H67 0.960 1_455 S
C63 H68 0.961 1_565 S
C63 H69 0.960 . S
C64 N62 1.346 . S
C64 N65 1.323 1_655 S
C64 C66 1.486 . S
N65 N61 1.364 1_545 S
N65 C64 1.323 1_455 S
C66 C64 1.486 . S
C66 H70 0.960 . S
C66 H71 0.960 . S
C66 H72 0.959 . S
H67 C63 0.960 1_655 S
H68 C63 0.961 1_545 S
H69 C63 0.960 . S
H70 C66 0.960 . S
H71 C66 0.960 . S
H72 C66 0.959 . S
C73 N74 1.317 . S
C73 N75 1.348 1_445 S
C73 C76 1.485 . S
N74 C73 1.317 . S
N74 N78 1.370 . S
N75 C73 1.348 1_665 S
N75 C77 1.346 . S
C76 C73 1.485 . S
C76 H80 0.960 1_455 S
C76 H81 0.961 . S
C76 H82 0.960 . S
C77 N75 1.346 . S
C77 N78 1.307 1_665 S
C77 C79 1.486 . S
N78 N74 1.370 . S
N78 C77 1.307 1_445 S
C79 C77 1.486 . S
C79 H83 0.960 . S
C79 H84 0.960 . S
C79 H85 0.959 . S
H80 C76 0.960 1_655 S
H81 C76 0.961 . S
H82 C76 0.960 . S
H83 C79 0.960 . S
H84 C79 0.960 . S
H85 C79 0.959 . S
C86 N87 1.317 . S
C86 N88 1.348 . S
C86 C89 1.485 1_556 S
N87 C86 1.317 . S
N87 N91 1.370 . S
N88 C86 1.348 . S
N88 C90 1.346 . S
C89 C86 1.485 1_554 S
C89 H93 0.960 . S
C89 H94 0.961 . S
C89 H95 0.960 . S
C90 N88 1.346 . S
C90 N91 1.307 . S
C90 C92 1.486 . S
N91 N87 1.370 . S
N91 C90 1.307 . S
C92 C90 1.486 . S
C92 H96 0.960 . S
C92 H97 0.960 . S
C92 H98 0.959 . S
H93 C89 0.960 . S
H94 C89 0.961 . S
H95 C89 0.960 . S
H96 C92 0.960 . S
H97 C92 0.960 . S
H98 C92 0.959 . S
C99 N100 1.317 . S
C99 N101 1.348 . S
C99 C102 1.485 1_554 S
N100 C99 1.317 . S
N100 N104 1.370 . S
N101 C99 1.348 . S
N101 C103 1.346 . S
C102 C99 1.485 1_556 S
C102 H106 0.960 . S
C102 H107 0.961 . S
C102 H108 0.960 . S
C103 N101 1.346 . S
C103 N104 1.307 . S
C103 C105 1.486 . S
N104 N100 1.370 . S
N104 C103 1.307 . S
C105 C103 1.486 . S
C105 H109 0.960 . S
C105 H110 0.960 . S
C105 H111 0.959 . S
H106 C102 0.960 . S
H107 C102 0.961 . S
H108 C102 0.960 . S
H109 C105 0.960 . S
H110 C105 0.960 . S
H111 C105 0.959 . S
C112 C113 1.386 1_556 S
C112 C114 1.383 . S
C112 H128 0.951 . S
C113 C112 1.386 1_554 S
C113 C117 1.383 . S
C114 C112 1.383 . S
C114 C115 1.402 1_556 S
C114 H129 0.951 . S
C115 C114 1.402 1_554 S
C115 C116 1.375 . S
C115 C118 1.481 . S
C116 C115 1.375 . S
C116 C117 1.367 . S
C116 H130 0.951 . S
C117 C113 1.383 . S
C117 C116 1.367 . S
C117 H131 0.950 . S
C118 C115 1.481 . S
C118 C119 1.297 . S
C118 H132 0.950 . S
C119 C118 1.297 . S
C119 C120 1.479 . S
C119 H133 0.950 1_554 S
C120 C119 1.479 . S
C120 C121 1.375 1_554 S
C120 C126 1.404 . S
C121 C120 1.375 1_556 S
C121 C122 1.370 . S
C121 H134 0.950 . S
C122 C121 1.370 . S
C122 C123 1.388 1_556 S
C122 H135 0.953 . S
C123 C122 1.388 1_554 S
C123 C125 1.384 . S
H124 C126 0.949 . S
C125 C123 1.384 . S
C125 C126 1.385 . S
C125 H127 0.950 . S
C126 C120 1.404 . S
C126 H124 0.949 . S
C126 C125 1.385 . S
H127 C125 0.950 . S
H128 C112 0.951 . S
H129 C114 0.951 . S
H130 C116 0.951 . S
H131 C117 0.950 . S
H132 C118 0.950 . S
H133 C119 0.950 1_556 S
H134 C121 0.950 . S
H135 C122 0.953 . S
C136 C137 1.381 1_556 S
C136 C138 1.386 . S
C136 H152 0.953 . S
C137 C136 1.381 1_554 S
C137 C141 1.383 . S
C138 C136 1.386 . S
C138 C139 1.402 . S
C138 H153 0.951 . S
C139 C138 1.402 . S
C139 C140 1.375 1_556 S
C139 C142 1.481 . S
C140 C139 1.375 1_554 S
C140 C141 1.367 . S
C140 H154 0.951 . S
C141 C137 1.383 . S
C141 C140 1.367 . S
C141 H155 0.950 . S
C142 C139 1.481 . S
C142 C143 1.297 . S
C142 H156 0.950 . S
C143 C142 1.297 . S
C143 C144 1.479 . S
C143 H157 0.950 . S
C144 C143 1.479 . S
C144 C145 1.375 . S
C144 C150 1.404 . S
C145 C144 1.375 . S
C145 C146 1.369 . S
C145 H158 0.950 . S
C146 C145 1.369 . S
C146 C147 1.392 . S
C146 H159 0.951 . S
C147 C146 1.392 . S
C147 C149 1.384 . S
H148 C150 0.949 . S
C149 C147 1.384 . S
C149 C150 1.385 . S
C149 H151 0.950 . S
C150 C144 1.404 . S
C150 H148 0.949 . S
C150 C149 1.385 . S
H151 C149 0.950 . S
H152 C136 0.953 . S
H153 C138 0.951 . S
H154 C140 0.951 . S
H155 C141 0.950 . S
H156 C142 0.950 . S
H157 C143 0.950 . S
H158 C145 0.950 . S
H159 C146 0.951 . S
C160 C161 1.386 . S
C160 C162 1.383 . S
C160 H176 0.951 . S
C161 C160 1.386 . S
C161 C165 1.383 1_554 S
C162 C160 1.383 . S
C162 C163 1.402 . S
C162 H177 0.951 . S
C163 C162 1.402 . S
C163 C164 1.375 1_554 S
C163 C166 1.481 . S
C164 C163 1.375 1_556 S
C164 C165 1.367 . S
C164 H178 0.951 . S
C165 C161 1.383 1_556 S
C165 C164 1.367 . S
C165 H179 0.950 . S
C166 C163 1.481 . S
C166 C167 1.297 . S
C166 H180 0.950 1_554 S
C167 C166 1.297 . S
C167 C168 1.479 . S
C167 H181 0.950 . S
C168 C167 1.479 . S
C168 C169 1.375 . S
C168 C174 1.404 . S
C169 C168 1.375 . S
C169 C170 1.369 . S
C169 H182 0.950 . S
C170 C169 1.369 . S
C170 C171 1.392 . S
C170 H183 0.951 . S
C171 C170 1.392 . S
C171 C173 1.384 . S
H172 C174 0.949 1_556 S
C173 C171 1.384 . S
C173 C174 1.385 . S
C173 H175 0.950 . S
C174 C168 1.404 . S
C174 H172 0.949 1_554 S
C174 C173 1.385 . S
H175 C173 0.950 . S
H176 C160 0.951 . S
H177 C162 0.951 . S
H178 C164 0.951 . S
H179 C165 0.950 . S
H180 C166 0.950 1_556 S
H181 C167 0.950 . S
H182 C169 0.950 . S
H183 C170 0.951 . S
C184 C185 1.386 . S
C184 C186 1.383 . S
C184 H200 0.951 . S
C185 C184 1.386 . S
C185 C189 1.383 1_556 S
C186 C184 1.383 . S
C186 C187 1.402 . S
C186 H201 0.951 . S
C187 C186 1.402 . S
C187 C188 1.375 1_556 S
C187 C190 1.481 . S
C188 C187 1.375 1_554 S
C188 C189 1.367 . S
C188 H202 0.951 . S
C189 C185 1.383 1_554 S
C189 C188 1.367 . S
C189 H203 0.950 . S
C190 C187 1.481 . S
C190 C191 1.297 . S
C190 H204 0.950 1_556 S
C191 C190 1.297 . S
C191 C192 1.479 . S
C191 H205 0.950 . S
C192 C191 1.479 . S
C192 C193 1.375 . S
C192 C198 1.404 . S
C193 C192 1.375 . S
C193 C194 1.369 . S
C193 H206 0.950 . S
C194 C193 1.369 . S
C194 C195 1.392 . S
C194 H207 0.951 . S
C195 C194 1.392 . S
C195 C197 1.384 . S
H196 C198 0.949 1_554 S
C197 C195 1.384 . S
C197 C198 1.385 . S
C197 H199 0.950 1_556 S
C198 C192 1.404 . S
C198 H196 0.949 1_556 S
C198 C197 1.385 . S
H199 C197 0.950 1_554 S
H200 C184 0.951 . S
H201 C186 0.951 . S
H202 C188 0.951 . S
H203 C189 0.950 . S
H204 C190 0.950 1_554 S
H205 C191 0.950 . S
H206 C193 0.950 . S
H207 C194 0.951 . S
C208 C209 1.386 . S
C208 C210 1.383 . S
C208 H224 0.951 . S
C209 C208 1.386 . S
C209 C213 1.383 . S
C210 C208 1.383 . S
C210 C211 1.402 . S
C210 H225 0.951 . S
C211 C210 1.402 . S
C211 C212 1.375 . S
C211 C214 1.481 . S
C212 C211 1.375 . S
C212 C213 1.367 . S
C212 H226 0.951 . S
C213 C209 1.383 . S
C213 C212 1.367 . S
C213 H227 0.950 . S
C214 C211 1.481 . S
C214 C215 1.297 . S
C214 H228 0.950 . S
C215 C214 1.297 . S
C215 C216 1.479 . S
C215 H229 0.950 . S
C216 C215 1.479 . S
C216 C217 1.375 . S
C216 C222 1.404 . S
C217 C216 1.375 . S
C217 C218 1.369 . S
C217 H230 0.950 . S
C218 C217 1.369 . S
C218 C219 1.392 . S
C218 H231 0.951 . S
C219 C218 1.392 . S
C219 C221 1.384 . S
H220 C222 0.949 . S
C221 C219 1.384 . S
C221 C222 1.385 . S
C221 H223 0.950 . S
C222 C216 1.404 . S
C222 H220 0.949 . S
C222 C221 1.385 . S
H223 C221 0.950 . S
H224 C208 0.951 . S
H225 C210 0.951 . S
H226 C212 0.951 . S
H227 C213 0.950 . S
H228 C214 0.950 . S
H229 C215 0.950 . S
H230 C217 0.950 . S
H231 C218 0.951 . S
C232 C233 1.386 . S
C232 C234 1.383 . S
C232 H248 0.951 . S
C233 C232 1.386 . S
C233 C237 1.383 . S
C234 C232 1.383 . S
C234 C235 1.402 . S
C234 H249 0.951 . S
C235 C234 1.402 . S
C235 C236 1.375 . S
C235 C238 1.481 . S
C236 C235 1.375 . S
C236 C237 1.367 . S
C236 H250 0.951 . S
C237 C233 1.383 . S
C237 C236 1.367 . S
C237 H251 0.950 . S
C238 C235 1.481 . S
C238 C239 1.297 . S
C238 H252 0.950 . S
C239 C238 1.297 . S
C239 C240 1.479 . S
C239 H253 0.950 . S
C240 C239 1.479 . S
C240 C241 1.375 . S
C240 C246 1.404 . S
C241 C240 1.375 . S
C241 C242 1.369 . S
C241 H254 0.950 . S
C242 C241 1.369 . S
C242 C243 1.392 . S
C242 H255 0.951 . S
C243 C242 1.392 . S
C243 C245 1.384 . S
H244 C246 0.949 . S
C245 C243 1.384 . S
C245 C246 1.385 . S
C245 H247 0.950 . S
C246 C240 1.404 . S
C246 H244 0.949 . S
C246 C245 1.385 . S
H247 C245 0.950 . S
H248 C232 0.951 . S
H249 C234 0.951 . S
H250 C236 0.951 . S
H251 C237 0.950 . S
H252 C238 0.950 . S
H253 C239 0.950 . S
H254 C241 0.950 . S
H255 C242 0.951 . S
C256 C257 1.386 . S
C256 C258 1.383 . S
C256 H272 0.951 . S
C257 C256 1.386 . S
C257 C261 1.383 . S
C258 C256 1.383 . S
C258 C259 1.402 . S
C258 H273 0.951 . S
C259 C258 1.402 . S
C259 C260 1.375 . S
C259 C262 1.481 . S
C260 C259 1.375 . S
C260 C261 1.367 . S
C260 H274 0.951 . S
C261 C257 1.383 . S
C261 C260 1.367 . S
C261 H275 0.950 . S
C262 C259 1.481 . S
C262 C263 1.297 . S
C262 H276 0.950 . S
C263 C262 1.297 . S
C263 C264 1.479 . S
C263 H277 0.950 . S
C264 C263 1.479 . S
C264 C265 1.375 . S
C264 C270 1.404 . S
C265 C264 1.375 . S
C265 C266 1.369 . S
C265 H278 0.950 . S
C266 C265 1.369 . S
C266 C267 1.392 . S
C266 H279 0.951 . S
C267 C266 1.392 . S
C267 C269 1.384 . S
H268 C270 0.949 . S
C269 C267 1.384 . S
C269 C270 1.385 . S
C269 H271 0.950 . S
C270 C264 1.404 . S
C270 H268 0.949 . S
C270 C269 1.385 . S
H271 C269 0.950 . S
H272 C256 0.951 . S
H273 C258 0.951 . S
H274 C260 0.951 . S
H275 C261 0.950 . S
H276 C262 0.950 . S
H277 C263 0.950 . S
H278 C265 0.950 . S
H279 C266 0.951 . S
C280 C281 1.386 . S
C280 C282 1.383 . S
C280 H296 0.951 . S
C281 C280 1.386 . S
C281 C285 1.383 . S
C282 C280 1.383 . S
C282 C283 1.402 . S
C282 H297 0.951 . S
C283 C282 1.402 . S
C283 C284 1.375 . S
C283 C286 1.481 . S
C284 C283 1.375 . S
C284 C285 1.367 . S
C284 H298 0.951 . S
C285 C281 1.383 . S
C285 C284 1.367 . S
C285 H299 0.950 . S
C286 C283 1.481 . S
C286 C287 1.297 . S
C286 H300 0.950 . S
C287 C286 1.297 . S
C287 C288 1.479 . S
C287 H301 0.950 . S
C288 C287 1.479 . S
C288 C289 1.375 . S
C288 C294 1.404 . S
C289 C288 1.375 . S
C289 C290 1.369 . S
C289 H302 0.950 . S
C290 C289 1.369 . S
C290 C291 1.392 . S
C290 H303 0.951 . S
C291 C290 1.392 . S
C291 C293 1.384 . S
H292 C294 0.949 . S
C293 C291 1.384 . S
C293 C294 1.385 . S
C293 H295 0.950 . S
C294 C288 1.404 . S
C294 H292 0.949 . S
C294 C293 1.385 . S
H295 C293 0.950 . S
H296 C280 0.951 . S
H297 C282 0.951 . S
H298 C284 0.951 . S
H299 C285 0.950 . S
H300 C286 0.950 . S
H301 C287 0.950 . S
H302 C289 0.950 . S
H303 C290 0.951 . S
C304 C305 1.386 1_565 S
C304 C306 1.383 . S
C304 H320 0.951 1_455 S
C305 C304 1.386 1_545 S
C305 C309 1.383 . S
C306 C304 1.383 . S
C306 C307 1.402 1_565 S
C306 H321 0.951 . S
C307 C306 1.402 1_545 S
C307 C308 1.375 . S
C307 C310 1.481 . S
C308 C307 1.375 . S
C308 C309 1.367 . S
C308 H322 0.951 . S
C309 C305 1.383 . S
C309 C308 1.367 . S
C309 H323 0.950 . S
C310 C307 1.481 . S
C310 C311 1.297 1_545 S
C310 H324 0.950 . S
C311 C310 1.297 1_565 S
C311 C312 1.479 . S
C311 H325 0.950 . S
C312 C311 1.479 . S
C312 C313 1.375 . S
C312 C318 1.404 1_565 S
C313 C312 1.375 . S
C313 C314 1.369 1_455 S
C313 H326 0.950 1_455 S
C314 C313 1.369 1_655 S
C314 C315 1.392 1_655 S
C314 H327 0.951 . S
C315 C314 1.392 1_455 S
C315 C317 1.384 1_565 S
H316 C318 0.949 . S
C317 C315 1.384 1_545 S
C317 C318 1.385 . S
C317 H319 0.950 . S
C318 C312 1.404 1_545 S
C318 H316 0.949 . S
C318 C317 1.385 . S
H319 C317 0.950 . S
H320 C304 0.951 1_655 S
H321 C306 0.951 . S
H322 C308 0.951 . S
H323 C309 0.950 . S
H324 C310 0.950 . S
H325 C311 0.950 . S
H326 C313 0.950 1_655 S
H327 C314 0.951 . S
C328 C329 1.386 1_655 S
C328 C330 1.383 . S
C328 H344 0.951 . S
C329 C328 1.386 1_455 S
C329 C333 1.383 . S
C330 C328 1.383 . S
C330 C331 1.402 1_655 S
C330 H345 0.951 . S
C331 C330 1.402 1_455 S
C331 C332 1.375 . S
C331 C334 1.481 . S
C332 C331 1.375 . S
C332 C333 1.367 . S
C332 H346 0.951 . S
C333 C329 1.383 . S
C333 C332 1.367 . S
C333 H347 0.950 . S
C334 C331 1.481 . S
C334 C335 1.297 . S
C334 H348 0.950 . S
C335 C334 1.297 . S
C335 C336 1.479 . S
C335 H349 0.950 1_455 S
C336 C335 1.479 . S
C336 C337 1.375 1_455 S
C336 C342 1.404 . S
C337 C336 1.375 1_655 S
C337 C338 1.369 . S
C337 H350 0.950 . S
C338 C337 1.369 . S
C338 C339 1.392 1_655 S
C338 H351 0.951 . S
C339 C338 1.392 1_455 S
C339 C341 1.384 . S
H340 C342 0.949 . S
C341 C339 1.384 . S
C341 C342 1.385 . S
C341 H343 0.950 . S
C342 C336 1.404 . S
C342 H340 0.949 . S
C342 C341 1.385 . S
H343 C341 0.950 . S
H344 C328 0.951 . S
H345 C330 0.951 . S
H346 C332 0.951 . S
H347 C333 0.950 . S
H348 C334 0.950 . S
H349 C335 0.950 1_655 S
H350 C337 0.950 . S
H351 C338 0.951 . S
C352 C353 1.386 . S
C352 C354 1.383 . S
C352 H368 0.951 . S
C353 C352 1.386 . S
C353 C357 1.383 . S
C354 C352 1.383 . S
C354 C355 1.402 . S
C354 H369 0.951 . S
C355 C354 1.402 . S
C355 C356 1.375 . S
C355 C358 1.481 . S
C356 C355 1.375 . S
C356 C357 1.367 . S
C356 H370 0.951 . S
C357 C353 1.383 . S
C357 C356 1.367 . S
C357 H371 0.950 . S
C358 C355 1.481 . S
C358 C359 1.297 . S
C358 H372 0.950 . S
C359 C358 1.297 . S
C359 C360 1.479 . S
C359 H373 0.950 . S
C360 C359 1.479 . S
C360 C361 1.375 . S
C360 C366 1.404 . S
C361 C360 1.375 . S
C361 C362 1.369 . S
C361 H374 0.950 . S
C362 C361 1.369 . S
C362 C363 1.392 . S
C362 H375 0.951 . S
C363 C362 1.392 . S
C363 C365 1.384 . S
H364 C366 0.949 . S
C365 C363 1.384 . S
C365 C366 1.385 . S
C365 H367 0.950 . S
C366 C360 1.404 . S
C366 H364 0.949 . S
C366 C365 1.385 . S
H367 C365 0.950 . S
H368 C352 0.951 . S
H369 C354 0.951 . S
H370 C356 0.951 . S
H371 C357 0.950 . S
H372 C358 0.950 . S
H373 C359 0.950 . S
H374 C361 0.950 . S
H375 C362 0.951 . S
C376 C377 1.386 . S
C376 C378 1.383 . S
C376 H392 0.951 . S
C377 C376 1.386 . S
C377 C381 1.383 . S
C378 C376 1.383 . S
C378 C379 1.402 . S
C378 H393 0.951 . S
C379 C378 1.402 . S
C379 C380 1.375 . S
C379 C382 1.481 . S
C380 C379 1.375 . S
C380 C381 1.367 . S
C380 H394 0.951 . S
C381 C377 1.383 . S
C381 C380 1.367 . S
C381 H395 0.950 . S
C382 C379 1.481 . S
C382 C383 1.297 . S
C382 H396 0.950 . S
C383 C382 1.297 . S
C383 C384 1.479 . S
C383 H397 0.950 . S
C384 C383 1.479 . S
C384 C385 1.375 . S
C384 C390 1.404 . S
C385 C384 1.375 . S
C385 C386 1.369 . S
C385 H398 0.950 . S
C386 C385 1.369 . S
C386 C387 1.392 . S
C386 H399 0.951 . S
C387 C386 1.392 . S
C387 C389 1.384 . S
H388 C390 0.949 . S
C389 C387 1.384 . S
C389 C390 1.385 . S
C389 H391 0.950 . S
C390 C384 1.404 . S
C390 H388 0.949 . S
C390 C389 1.385 . S
H391 C389 0.950 . S
H392 C376 0.951 . S
H393 C378 0.951 . S
H394 C380 0.951 . S
H395 C381 0.950 . S
H396 C382 0.950 . S
H397 C383 0.950 . S
H398 C385 0.950 . S
H399 C386 0.951 . S
C123 N101 1.370 . S
C113 C27 1.357 . S
C137 N6 1.281 . S
C147 N88 1.310 . S
C161 C16 1.477 . S
C171 N100 1.475 . S
C185 N14 1.393 1_556 S
C195 N87 1.450 . S
C209 C57 1.367 . S
C219 N75 1.310 . S
C233 N36 1.308 . S
C243 N62 1.371 . S
C267 N74 1.449 . S
C257 C46 1.473 . S
C291 N61 1.426 . S
C281 N44 1.432 . S
C305 C10 1.462 . S
C315 N65 1.462 1_565 S
C329 C1 1.558 . S
C339 N78 1.543 . S
C363 N91 1.470 . S
C353 C40 1.464 . S
C377 C31 1.550 . S
C387 N104 1.529 . S
