# Generated by pormake.
# Topology rtl, (3,6)-cn, num edge types: 1
# Building blocks:
#     Node 0, Type 0, BuildingBlock: BETDAH_clean_linker_0, # of connection points: 3
#     Node 1, Type 0, BuildingBlock: BETDAH_clean_linker_0, # of connection points: 3
#     Node 2, Type 0, BuildingBlock: BETDAH_clean_linker_0, # of connection points: 3
#     Node 3, Type 0, BuildingBlock: BETDAH_clean_linker_0, # of connection points: 3
#     Node 4, Type 1, BuildingBlock: LEVNOQ01_clean_sbu_1, # of connection points: 6
#     Node 5, Type 1, BuildingBlock: LEVNOQ01_clean_sbu_1, # of connection points: 6
#     Edge 6, Type (0, 1), BuildingBlock: ZUJKAS_clean_linker_0, # of connection points: 2
#     Edge 7, Type (0, 1), BuildingBlock: ZUJKAS_clean_linker_0, # of connection points: 2
#     Edge 8, Type (0, 1), BuildingBlock: ZUJKAS_clean_linker_0, # of connection points: 2
#     Edge 9, Type (0, 1), BuildingBlock: ZUJKAS_clean_linker_0, # of connection points: 2
#     Edge 10, Type (0, 1), BuildingBlock: ZUJKAS_clean_linker_0, # of connection points: 2
#     Edge 11, Type (0, 1), BuildingBlock: ZUJKAS_clean_linker_0, # of connection points: 2
#     Edge 12, Type (0, 1), BuildingBlock: ZUJKAS_clean_linker_0, # of connection points: 2
#     Edge 13, Type (0, 1), BuildingBlock: ZUJKAS_clean_linker_0, # of connection points: 2
#     Edge 14, Type (0, 1), BuildingBlock: ZUJKAS_clean_linker_0, # of connection points: 2
#     Edge 15, Type (0, 1), BuildingBlock: ZUJKAS_clean_linker_0, # of connection points: 2
#     Edge 16, Type (0, 1), BuildingBlock: ZUJKAS_clean_linker_0, # of connection points: 2
#     Edge 17, Type (0, 1), BuildingBlock: ZUJKAS_clean_linker_0, # of connection points: 2
# Relax obj value: 0.016
# Max RMSD: 0.118
# Mean RMSD: 0.088
data_MOF--net-rtl--node1-LEVNOQ01_clean_sbu_1--node2-BETDAH_clean_linker_0--edge1-ZUJKAS_clean_linker_0
_symmetry_space_group_name_H-M    P1
_symmetry_Int_Tables_number       1
_symmetry_cell_setting            triclinic
loop_
_symmetry_equiv_pos_as_xyz
'x, y, z'
_cell_length_a     45.950523
_cell_length_b     45.829086
_cell_length_c     29.03673
_cell_angle_alpha  90.991855
_cell_angle_beta   99.003212
_cell_angle_gamma 90.135124
loop_
_atom_site_label
_atom_site_type_symbol
_atom_site_fract_x
_atom_site_fract_y
_atom_site_fract_z
_atom_type_partial_charge
H0 H 0.14565 0.87197 0.03401 0.0
H1 H 0.20481 0.8114 0.11239 0.0
H2 H 0.18372 0.80193 0.96353 0.0
C3 C 0.15999 0.85317 0.03507 0.0
C4 C 0.16299 0.83841 0.99331 0.0
C5 C 0.17472 0.84355 0.07835 0.0
C6 C 0.19365 0.81932 0.07936 0.0
C7 C 0.1966 0.80424 0.03771 0.0
C8 C 0.18109 0.81371 0.99529 0.0
N9 N 0.2135 0.77843 0.03689 0.0
C10 C 0.23771 0.77097 0.06944 0.0
H11 H 0.65893 0.66532 0.61496 0.0
H12 H 0.70782 0.73775 0.57243 0.0
H13 H 0.70259 0.72621 0.71742 0.0
C14 C 0.67303 0.68422 0.62393 0.0
C15 C 0.67975 0.69348 0.67075 0.0
C16 C 0.683 0.69997 0.58817 0.0
C17 C 0.70028 0.72531 0.59971 0.0
C18 C 0.70731 0.73463 0.64665 0.0
C19 C 0.69689 0.71877 0.68149 0.0
N20 N 0.72378 0.76038 0.66068 0.0
C21 C 0.74277 0.77453 0.63549 0.0
H22 H 0.8561 0.1649 0.97766 0.0
H23 H 0.81717 0.24361 0.02373 0.0
H24 H 0.81997 0.22878 0.87817 0.0
C25 C 0.84442 0.18517 0.96974 0.0
C26 C 0.83854 0.19432 0.92329 0.0
C27 C 0.83703 0.20284 0.0064 0.0
C28 C 0.82275 0.22968 0.9959 0.0
C29 C 0.81658 0.23885 0.9494 0.0
C30 C 0.82476 0.2213 0.91376 0.0
N31 N 0.80394 0.26637 0.93697 0.0
C32 C 0.78369 0.28095 0.95973 0.0
H33 H 0.35934 0.37295 0.53889 0.0
H34 H 0.29863 0.32472 0.60711 0.0
H35 H 0.29028 0.32144 0.45789 0.0
C36 C 0.34066 0.35831 0.53698 0.0
C37 C 0.32601 0.34849 0.49307 0.0
C38 C 0.33139 0.34957 0.57852 0.0
C39 C 0.30674 0.33112 0.57565 0.0
C40 C 0.29196 0.32087 0.5326 0.0
C41 C 0.30164 0.32945 0.49121 0.0
N42 N 0.2671 0.30249 0.53299 0.0
C43 C 0.25241 0.28627 0.49551 0.0
O44 O 0.01427 0.06636 0.59947 0.0
Mg45 Mg 0.0493 0.04998 0.56845 0.0
O46 O 0.98005 0.04472 0.54803 0.0
Mg47 Mg 0.00579 0.01957 0.49518 0.0
O48 O 0.04344 0.05465 0.49792 0.0
O49 O 0.07698 0.07973 0.54809 0.0
O50 O 0.03534 0.99495 0.44555 0.0
O51 O 0.98184 0.05037 0.4365 0.0
Mg52 Mg 0.97654 0.98508 0.42608 0.0
O53 O 0.96556 0.98582 0.49234 0.0
O54 O 0.01006 0.95716 0.41411 0.0
O55 O 0.96603 0.01941 0.37952 0.0
O56 O 0.93982 0.96239 0.43006 0.0
C57 C 0.05267 0.98802 0.58435 0.0
C58 C 0.9874 0.06076 0.58455 0.0
C59 C 0.0648 0.07372 0.50588 0.0
C60 C 0.03412 0.97088 0.42238 0.0
C61 C 0.96952 0.04538 0.39457 0.0
C62 C 0.94389 0.96866 0.47403 0.0
O63 O 0.06836 0.01074 0.59257 0.0
O64 O 0.02909 0.98838 0.55438 0.0
O65 O 0.53933 0.51629 0.20532 0.0
Mg66 Mg 0.53033 0.48284 0.15335 0.0
O67 O 0.53364 0.5484 0.14963 0.0
Mg68 Mg 0.50926 0.51894 0.08895 0.0
O69 O 0.5484 0.48362 0.09291 0.0
O70 O 0.56665 0.45851 0.15683 0.0
O71 O 0.48733 0.48587 0.02759 0.0
O72 O 0.53758 0.54191 0.04012 0.0
Mg73 Mg 0.47062 0.53701 0.02456 0.0
O74 O 0.47436 0.55832 0.08751 0.0
O75 O 0.44199 0.50106 0.01526 0.0
O76 O 0.50255 0.54198 0.97951 0.0
O77 O 0.4473 0.57411 0.02134 0.0
C78 C 0.47292 0.472 0.14956 0.0
C79 C 0.54141 0.54233 0.19243 0.0
C80 C 0.56757 0.4654 0.11427 0.0
C81 C 0.46035 0.48141 0.01028 0.0
C82 C 0.52931 0.54601 0.99678 0.0
C83 C 0.45596 0.57695 0.06557 0.0
O84 O 0.49438 0.45485 0.15251 0.0
O85 O 0.47604 0.49791 0.13559 0.0
H86 H 0.26919 0.23753 0.45317 0.0
H87 H 0.2364 0.19759 0.41952 0.0
H88 H 0.16099 0.24893 0.44156 0.0
H89 H 0.19368 0.28884 0.47383 0.0
H90 H 0.20432 0.17005 0.47172 0.0
H91 H 0.12786 0.20949 0.32085 0.0
H92 H 0.16177 0.22846 0.34328 0.0
H93 H 0.12898 0.23468 0.36896 0.0
C94 C 0.24555 0.2406 0.4488 0.0
C95 C 0.23376 0.26617 0.46539 0.0
C96 C 0.22683 0.2178 0.42977 0.0
C97 C 0.1961 0.22027 0.42735 0.0
C98 C 0.18444 0.24667 0.44159 0.0
H99 H 0.05391 0.13015 0.48741 0.0
H100 H 0.08562 0.16251 0.45107 0.0
C101 C 0.20314 0.26946 0.46032 0.0
C102 C 0.17677 0.19398 0.41866 0.0
H103 H 0.10839 0.17142 0.36633 0.0
C104 C 0.18377 0.16994 0.44757 0.0
C105 C 0.14988 0.19377 0.38725 0.0
C106 C 0.14188 0.21791 0.35303 0.0
C107 C 0.16368 0.14699 0.44891 0.0
C108 C 0.13591 0.14776 0.41981 0.0
C109 C 0.12966 0.1708 0.38858 0.0
C110 C 0.11175 0.1277 0.42753 0.0
C111 C 0.17147 0.12335 0.48431 0.0
C112 C 0.1145 0.09723 0.42336 0.0
C113 C 0.0962 0.07865 0.4441 0.0
C114 C 0.07481 0.09042 0.46858 0.0
C115 C 0.06997 0.12062 0.46803 0.0
C116 C 0.08819 0.13912 0.44744 0.0
H117 H 0.1921 0.12833 0.50867 0.0
H118 H 0.15342 0.12027 0.50513 0.0
H119 H 0.1746 0.10243 0.46596 0.0
H120 H 0.13232 0.08795 0.40761 0.0
H121 H 0.10064 0.05544 0.44487 0.0
H122 H 0.29008 0.77258 0.04092 0.0
H123 H 0.33307 0.74298 0.06971 0.0
H124 H 0.28898 0.71142 0.18002 0.0
H125 H 0.24534 0.74051 0.1499 0.0
H126 H 0.37164 0.73663 0.15024 0.0
H127 H 0.30223 0.6366 0.11153 0.0
H128 H 0.28876 0.67226 0.09414 0.0
H129 H 0.29157 0.66166 0.15398 0.0
C130 C 0.28991 0.75985 0.07199 0.0
C131 C 0.26467 0.7587 0.09336 0.0
C132 C 0.31444 0.74292 0.08844 0.0
C133 C 0.31411 0.72448 0.12651 0.0
C134 C 0.28953 0.72496 0.14999 0.0
H135 H 0.43812 0.57657 0.15154 0.0
H136 H 0.40754 0.61385 0.18288 0.0
C137 C 0.26478 0.74178 0.13317 0.0
C138 C 0.33832 0.70302 0.13778 0.0
H139 H 0.35303 0.63028 0.12827 0.0
C140 C 0.36754 0.71332 0.14644 0.0
C141 C 0.33306 0.67253 0.13306 0.0
C142 C 0.30228 0.65997 0.12236 0.0
C143 C 0.39148 0.6942 0.1474 0.0
C144 C 0.38608 0.66403 0.13934 0.0
C145 C 0.35708 0.65345 0.13458 0.0
C146 C 0.40907 0.64403 0.12676 0.0
C147 C 0.42232 0.70657 0.15482 0.0
C148 C 0.42038 0.64886 0.0854 0.0
C149 C 0.43729 0.6276 0.06731 0.0
C150 C 0.44352 0.60114 0.09038 0.0
C151 C 0.43388 0.59695 0.1334 0.0
C152 C 0.41638 0.61815 0.15119 0.0
H153 H 0.42365 0.72724 0.17565 0.0
H154 H 0.43838 0.6908 0.17275 0.0
H155 H 0.42872 0.71148 0.12046 0.0
H156 H 0.41457 0.66833 0.06544 0.0
H157 H 0.44441 0.63134 0.03403 0.0
H158 H 0.73562 0.81039 0.56139 0.0
H159 H 0.77233 0.8451 0.54097 0.0
H160 H 0.83557 0.81465 0.65561 0.0
H161 H 0.79916 0.77969 0.67521 0.0
H162 H 0.79901 0.88996 0.59661 0.0
H163 H 0.88387 0.81351 0.55033 0.0
H164 H 0.84699 0.80177 0.55531 0.0
H165 H 0.87384 0.80765 0.60676 0.0
C166 C 0.75762 0.81075 0.58135 0.0
C167 C 0.76495 0.79224 0.61925 0.0
C168 C 0.77847 0.83064 0.56997 0.0
C169 C 0.80686 0.83225 0.59641 0.0
C170 C 0.81413 0.81338 0.63402 0.0
H171 H 0.95623 0.94728 0.56288 0.0
H172 H 0.92338 0.91651 0.60136 0.0
C173 C 0.79334 0.79347 0.64523 0.0
C174 C 0.82829 0.85465 0.58621 0.0
H175 H 0.89651 0.86368 0.55541 0.0
C176 C 0.82034 0.88419 0.58766 0.0
C177 C 0.85629 0.84716 0.57507 0.0
C178 C 0.86573 0.8158 0.57133 0.0
C179 C 0.8394 0.90638 0.5776 0.0
C180 C 0.86705 0.89884 0.5654 0.0
C181 C 0.87541 0.86941 0.56529 0.0
C182 C 0.88585 0.9206 0.54664 0.0
C183 C 0.82971 0.93774 0.57962 0.0
C184 C 0.87546 0.93336 0.50374 0.0
C185 C 0.89408 0.95051 0.48181 0.0
C186 C 0.92348 0.95546 0.50238 0.0
C187 C 0.93356 0.94405 0.54659 0.0
C188 C 0.91491 0.92639 0.56837 0.0
H189 H 0.8125 0.94055 0.60227 0.0
H190 H 0.84863 0.95232 0.59279 0.0
H191 H 0.82026 0.94468 0.54399 0.0
H192 H 0.85333 0.92884 0.48602 0.0
H193 H 0.88577 0.95901 0.44769 0.0
H194 H 0.73396 0.29656 0.90553 0.0
H195 H 0.69686 0.33108 0.92507 0.0
H196 H 0.745 0.34066 0.0646 0.0
H197 H 0.78252 0.30645 0.04454 0.0
H198 H 0.66047 0.32993 0.99031 0.0
H199 H 0.73623 0.42483 0.02353 0.0
H200 H 0.74617 0.39148 0.99603 0.0
H201 H 0.74854 0.39398 0.05842 0.0
C202 C 0.7364 0.30594 0.94046 0.0
C203 C 0.76082 0.29902 0.97369 0.0
C204 C 0.7153 0.32566 0.95154 0.0
C205 C 0.71842 0.33891 0.996 0.0
C206 C 0.74251 0.33125 0.02974 0.0
H207 H 0.61961 0.44377 0.15598 0.0
H208 H 0.65543 0.41565 0.12062 0.0
C209 C 0.76372 0.31154 0.01853 0.0
C210 C 0.69633 0.36055 0.00696 0.0
H211 H 0.68897 0.43024 0.04715 0.0
C212 C 0.66662 0.35198 0.00219 0.0
C213 C 0.70434 0.38945 0.02191 0.0
C214 C 0.7355 0.40062 0.02484 0.0
C215 C 0.64497 0.37105 0.01412 0.0
C216 C 0.6532 0.39953 0.03077 0.0
C217 C 0.68272 0.40841 0.03419 0.0
C218 C 0.63228 0.41905 0.05017 0.0
C219 C 0.61366 0.36023 0.01085 0.0
C220 C 0.60767 0.43107 0.022 0.0
C221 C 0.58702 0.44749 0.04223 0.0
C222 C 0.59066 0.45176 0.09087 0.0
C223 C 0.61597 0.44063 0.11844 0.0
C224 C 0.63656 0.4246 0.09831 0.0
H225 H 0.61164 0.33645 0.0028 0.0
H226 H 0.60526 0.36472 0.04409 0.0
H227 H 0.59939 0.37201 0.98287 0.0
H228 H 0.60418 0.42726 0.98463 0.0
H229 H 0.56773 0.45579 0.02016 0.0
H230 H 0.21414 0.85979 0.15631 0.0
H231 H 0.20321 0.88564 0.2266 0.0
H232 H 0.11083 0.88561 0.16902 0.0
H233 H 0.12143 0.8599 0.0995 0.0
H234 H 0.13357 0.94089 0.20372 0.0
H235 H 0.1617 0.8522 0.33178 0.0
H236 H 0.18886 0.86269 0.29667 0.0
H237 H 0.15552 0.84501 0.26967 0.0
C238 C 0.1915 0.86509 0.15896 0.0
C239 C 0.16869 0.85805 0.12212 0.0
C240 C 0.18531 0.87987 0.19905 0.0
C241 C 0.1562 0.88756 0.20298 0.0
C242 C 0.13347 0.88013 0.16656 0.0
H243 H 0.04017 0.91682 0.38557 0.0
H244 H 0.07741 0.90013 0.34049 0.0
C245 C 0.1396 0.8655 0.12673 0.0
C246 C 0.14868 0.90355 0.2444 0.0
H247 H 0.13811 0.89349 0.35685 0.0
C248 C 0.13512 0.93089 0.23761 0.0
C249 C 0.1508 0.89039 0.28847 0.0
C250 C 0.16486 0.8609 0.29742 0.0
C251 C 0.12177 0.94451 0.27258 0.0
C252 C 0.12243 0.93058 0.31587 0.0
C253 C 0.13777 0.90418 0.32374 0.0
C254 C 0.10291 0.94014 0.34946 0.0
C255 C 0.1051 0.97253 0.26156 0.0
C256 C 0.10533 0.96796 0.37101 0.0
C257 C 0.08375 0.97775 0.39689 0.0
C258 C 0.05951 0.95981 0.4015 0.0
C259 C 0.05831 0.93138 0.38226 0.0
C260 C 0.07973 0.92168 0.35663 0.0
H261 H 0.10344 0.97828 0.22423 0.0
H262 H 0.08248 0.97076 0.27027 0.0
H263 H 0.11659 0.99066 0.28289 0.0
H264 H 0.12333 0.9824 0.36657 0.0
H265 H 0.08539 0.9997 0.41153 0.0
H266 H 0.65822 0.71628 0.74648 0.0
H267 H 0.63845 0.69006 0.80721 0.0
H268 H 0.65317 0.60815 0.7394 0.0
H269 H 0.67442 0.63416 0.67966 0.0
H270 H 0.59058 0.65639 0.79681 0.0
H271 H 0.68677 0.5909 0.87315 0.0
H272 H 0.68986 0.6209 0.83469 0.0
H273 H 0.67736 0.58565 0.81122 0.0
C274 C 0.65792 0.69266 0.74496 0.0
C275 C 0.66811 0.67737 0.70821 0.0
C276 C 0.64641 0.67769 0.7796 0.0
C277 C 0.64475 0.6471 0.77835 0.0
C278 C 0.65486 0.63171 0.74177 0.0
H279 H 0.5214 0.54497 0.90205 0.0
H280 H 0.55152 0.56852 0.85129 0.0
C281 C 0.66658 0.64667 0.7072 0.0
C282 C 0.63048 0.63158 0.81347 0.0
H283 H 0.64017 0.5774 0.89388 0.0
C284 C 0.60155 0.63928 0.81826 0.0
C285 C 0.6449 0.6095 0.84193 0.0
C286 C 0.67654 0.60143 0.84041 0.0
C287 C 0.58639 0.62509 0.84979 0.0
C288 C 0.60026 0.60204 0.87657 0.0
C289 C 0.62948 0.59483 0.87288 0.0
C290 C 0.58424 0.58488 0.90757 0.0
C291 C 0.55565 0.63506 0.85429 0.0
C292 C 0.59351 0.58494 0.95604 0.0
C293 C 0.57641 0.57114 0.98537 0.0
C294 C 0.54979 0.55721 0.96652 0.0
C295 C 0.54154 0.5559 0.91778 0.0
C296 C 0.55868 0.56943 0.88866 0.0
H297 H 0.5516 0.65771 0.84188 0.0
H298 H 0.53939 0.62054 0.83268 0.0
H299 H 0.55172 0.6341 0.89101 0.0
H300 H 0.61334 0.59656 0.97127 0.0
H301 H 0.58338 0.57244 0.02275 0.0
H302 H 0.82998 0.14943 0.04356 0.0
H303 H 0.85129 0.13241 0.12089 0.0
H304 H 0.88719 0.21825 0.15718 0.0
H305 H 0.86594 0.23543 0.07952 0.0
H306 H 0.92891 0.17221 0.17102 0.0
H307 H 0.83072 0.14766 0.25274 0.0
H308 H 0.82848 0.13273 0.19469 0.0
H309 H 0.82946 0.17167 0.20372 0.0
C310 C 0.84199 0.16481 0.0683 0.0
C311 C 0.84627 0.19377 0.05547 0.0
C312 C 0.85398 0.15512 0.1126 0.0
C313 C 0.87058 0.17413 0.14503 0.0
C314 C 0.87424 0.20329 0.13284 0.0
H315 H 0.95243 0.10099 0.41644 0.0
H316 H 0.92993 0.13799 0.3613 0.0
C317 C 0.86196 0.2131 0.08859 0.0
C318 C 0.88636 0.16258 0.18955 0.0
H319 H 0.87574 0.12354 0.28482 0.0
C320 C 0.9173 0.16215 0.19645 0.0
C321 C 0.87125 0.14964 0.22295 0.0
C322 C 0.83814 0.15065 0.21849 0.0
C323 C 0.93338 0.14738 0.23411 0.0
C324 C 0.91816 0.13273 0.26562 0.0
C325 C 0.88736 0.13477 0.26054 0.0
C326 C 0.93341 0.11187 0.29963 0.0
C327 C 0.96652 0.14643 0.23893 0.0
C328 C 0.94283 0.08518 0.28312 0.0
C329 C 0.95523 0.06411 0.3142 0.0
C330 C 0.95874 0.0693 0.36266 0.0
C331 C 0.95014 0.09645 0.37931 0.0
C332 C 0.93722 0.11751 0.34794 0.0
H333 H 0.97528 0.16405 0.21904 0.0
H334 H 0.9767 0.14847 0.27616 0.0
H335 H 0.97322 0.12513 0.22526 0.0
H336 H 0.93991 0.08034 0.24601 0.0
H337 H 0.96174 0.0435 0.30017 0.0
H338 H 0.34336 0.31869 0.65948 0.0
H339 H 0.36684 0.33631 0.73629 0.0
H340 H 0.38052 0.42053 0.67906 0.0
H341 H 0.35551 0.40373 0.60285 0.0
H342 H 0.42122 0.3573 0.76949 0.0
H343 H 0.33816 0.44274 0.78549 0.0
H344 H 0.33288 0.41501 0.7401 0.0
H345 H 0.35513 0.44675 0.73437 0.0
C346 C 0.35096 0.34112 0.66329 0.0
C347 C 0.34713 0.35986 0.62489 0.0
C348 C 0.3647 0.35105 0.70719 0.0
C349 C 0.37498 0.3799 0.71371 0.0
C350 C 0.37217 0.39837 0.67517 0.0
H351 H 0.49228 0.4569 0.94794 0.0
H352 H 0.47252 0.42807 0.87825 0.0
C353 C 0.35818 0.38857 0.63137 0.0
C354 C 0.38814 0.39084 0.76092 0.0
H355 H 0.38181 0.4446 0.84141 0.0
C356 C 0.41251 0.37628 0.78542 0.0
C357 C 0.37645 0.41526 0.78211 0.0
C358 C 0.34903 0.43066 0.75939 0.0
C359 C 0.42588 0.38587 0.83008 0.0
C360 C 0.41498 0.41111 0.8503 0.0
C361 C 0.39032 0.42531 0.826 0.0
C362 C 0.4287 0.42374 0.89623 0.0
C363 C 0.45117 0.36857 0.85532 0.0
C364 C 0.41093 0.43057 0.9301 0.0
C365 C 0.42203 0.44753 0.96936 0.0
C366 C 0.45127 0.45767 0.97596 0.0
C367 C 0.46978 0.44897 0.94407 0.0
C368 C 0.45847 0.43243 0.9042 0.0
H369 H 0.45039 0.3455 0.84276 0.0
H370 H 0.47225 0.3782 0.84858 0.0
H371 H 0.45111 0.36892 0.89355 0.0
H372 H 0.38795 0.42406 0.92494 0.0
H373 H 0.4073 0.45397 0.9934 0.0
H374 H 0.65741 0.73234 0.51426 0.0
H375 H 0.63458 0.71387 0.43692 0.0
H376 H 0.66397 0.62701 0.47467 0.0
H377 H 0.6868 0.64527 0.55159 0.0
H378 H 0.66938 0.64479 0.3788 0.0
H379 H 0.5581 0.6616 0.42823 0.0
H380 H 0.58321 0.69213 0.43451 0.0
H381 H 0.59107 0.66113 0.47116 0.0
C382 C 0.65958 0.70945 0.50555 0.0
C383 C 0.67371 0.69019 0.53898 0.0
C384 C 0.64636 0.69891 0.46157 0.0
C385 C 0.6473 0.66901 0.45034 0.0
C386 C 0.66292 0.65012 0.48267 0.0
H387 H 0.55031 0.53845 0.28709 0.0
H388 H 0.57498 0.5735 0.3445 0.0
C389 C 0.67588 0.66057 0.52661 0.0
C390 C 0.63025 0.65666 0.40667 0.0
H391 H 0.56036 0.6369 0.35745 0.0
C392 C 0.64551 0.64354 0.37355 0.0
C393 C 0.59913 0.65483 0.40029 0.0
C394 C 0.58174 0.66798 0.4354 0.0
C395 C 0.63048 0.62788 0.3349 0.0
C396 C 0.59945 0.62527 0.32939 0.0
C397 C 0.58413 0.63918 0.36166 0.0
C398 C 0.58297 0.60531 0.29374 0.0
C399 C 0.64788 0.61292 0.30147 0.0
C400 C 0.57876 0.61186 0.2461 0.0
C401 C 0.56439 0.59185 0.21296 0.0
C402 C 0.55426 0.56491 0.22704 0.0
C403 C 0.55796 0.55888 0.27495 0.0
C404 C 0.57202 0.57892 0.30788 0.0
H405 H 0.67204 0.61516 0.31271 0.0
H406 H 0.64211 0.58935 0.29821 0.0
H407 H 0.64214 0.6225 0.2664 0.0
H408 H 0.5869 0.63224 0.23456 0.0
H409 H 0.56191 0.59714 0.17635 0.0
H410 H 0.86422 0.21339 0.85044 0.0
H411 H 0.87978 0.18452 0.78744 0.0
H412 H 0.85036 0.10593 0.84595 0.0
H413 H 0.83446 0.13485 0.90937 0.0
H414 H 0.90565 0.10077 0.82434 0.0
H415 H 0.83233 0.14547 0.67326 0.0
H416 H 0.85144 0.17395 0.70903 0.0
H417 H 0.82573 0.15093 0.73252 0.0
C418 C 0.86051 0.19002 0.84954 0.0
C419 C 0.84783 0.17648 0.88479 0.0
C420 C 0.86934 0.17353 0.81333 0.0
C421 C 0.86557 0.14312 0.81126 0.0
C422 C 0.85315 0.12942 0.84655 0.0
H423 H 0.92849 0.0457 0.57799 0.0
H424 H 0.89426 0.06171 0.63079 0.0
C425 C 0.84429 0.14594 0.88293 0.0
C426 C 0.87686 0.12574 0.77422 0.0
H427 H 0.87743 0.12298 0.65662 0.0
C428 C 0.89899 0.10516 0.78762 0.0
C429 C 0.86788 0.13106 0.72618 0.0
C430 C 0.8428 0.15133 0.70936 0.0
C431 C 0.91388 0.09146 0.7546 0.0
C432 C 0.90668 0.09877 0.70706 0.0
C433 C 0.88311 0.11766 0.69316 0.0
C434 C 0.92597 0.09004 0.67287 0.0
C435 C 0.93809 0.07014 0.77104 0.0
C436 C 0.95461 0.10143 0.67825 0.0
C437 C 0.97395 0.09258 0.64838 0.0
C438 C 0.96514 0.07208 0.61218 0.0
C439 C 0.93596 0.06151 0.60552 0.0
C440 C 0.91644 0.07052 0.63568 0.0
H441 H 0.93537 0.06068 0.80509 0.0
H442 H 0.93864 0.05212 0.74511 0.0
H443 H 0.95964 0.08168 0.77556 0.0
H444 H 0.9622 0.11693 0.7062 0.0
H445 H 0.99608 0.10149 0.65437 0.0
H446 H 0.38277 0.35724 0.47807 0.0
H447 H 0.39943 0.37877 0.41086 0.0
H448 H 0.30967 0.38217 0.34017 0.0
H449 H 0.29249 0.3627 0.40918 0.0
H450 H 0.39749 0.36126 0.32592 0.0
H451 H 0.33408 0.46429 0.32324 0.0
H452 H 0.33623 0.43905 0.37056 0.0
H453 H 0.3115 0.43205 0.31703 0.0
C454 C 0.36641 0.36301 0.44867 0.0
C455 C 0.33618 0.35873 0.44967 0.0
C456 C 0.37604 0.37508 0.4099 0.0
C457 C 0.35581 0.38279 0.37066 0.0
C458 C 0.32569 0.37728 0.37049 0.0
H459 H 0.43931 0.42361 0.12777 0.0
H460 H 0.40458 0.40252 0.17412 0.0
C461 C 0.31593 0.36562 0.40975 0.0
C462 C 0.3668 0.39622 0.33025 0.0
H463 H 0.36255 0.45707 0.26299 0.0
C464 C 0.38975 0.38218 0.31207 0.0
C465 C 0.35691 0.42367 0.31239 0.0
C466 C 0.33353 0.44082 0.33205 0.0
C467 C 0.40379 0.3951 0.27796 0.0
C468 C 0.39363 0.42235 0.25948 0.0
C469 C 0.37011 0.43607 0.27669 0.0
C470 C 0.4088 0.43787 0.22525 0.0
C471 C 0.43046 0.38005 0.26424 0.0
C472 C 0.42041 0.46607 0.23584 0.0
C473 C 0.43923 0.47869 0.20813 0.0
C474 C 0.44701 0.46308 0.16994 0.0
C475 C 0.43363 0.43596 0.15724 0.0
C476 C 0.41414 0.42375 0.18407 0.0
H477 H 0.44005 0.36412 0.29075 0.0
H478 H 0.4239 0.36786 0.23088 0.0
H479 H 0.4479 0.39606 0.25958 0.0
H480 H 0.41644 0.47756 0.26716 0.0
H481 H 0.44955 0.49953 0.21877 0.0
H482 H 0.15553 0.89466 0.96351 0.0
H483 H 0.13045 0.91148 0.8883 0.0
H484 H 0.11011 0.82247 0.84407 0.0
H485 H 0.13488 0.8054 0.91959 0.0
H486 H 0.13386 0.85469 0.77833 0.0
H487 H 0.04199 0.91444 0.83898 0.0
H488 H 0.07732 0.92509 0.87036 0.0
H489 H 0.0642 0.88836 0.87471 0.0
C490 C 0.14532 0.87865 0.93815 0.0
C491 C 0.14717 0.84867 0.94774 0.0
C492 C 0.13096 0.88831 0.89513 0.0
C493 C 0.11799 0.86826 0.86084 0.0
C494 C 0.11984 0.83833 0.87013 0.0
H495 H 0.01625 0.94569 0.61025 0.0
H496 H 0.02927 0.90987 0.67213 0.0
C497 C 0.13417 0.82862 0.91322 0.0
C498 C 0.10383 0.87866 0.81458 0.0
H499 H 0.05258 0.92665 0.76307 0.0
C500 C 0.11576 0.87005 0.77483 0.0
C501 C 0.07982 0.89823 0.80982 0.0
C502 C 0.06486 0.90685 0.85067 0.0
C503 C 0.10558 0.88197 0.73103 0.0
C504 C 0.08314 0.90329 0.72703 0.0
C505 C 0.06992 0.91044 0.76615 0.0
C506 C 0.07567 0.92105 0.68456 0.0
C507 C 0.11944 0.87216 0.68965 0.0
C508 C 0.09747 0.93876 0.67048 0.0
C509 C 0.09011 0.95916 0.63555 0.0
C510 C 0.06075 0.96237 0.61387 0.0
C511 C 0.0391 0.94351 0.62603 0.0
C512 C 0.04648 0.92318 0.66151 0.0
H513 H 0.1282 0.84964 0.69419 0.0
H514 H 0.10341 0.87286 0.65683 0.0
H515 H 0.13818 0.88686 0.68624 0.0
H516 H 0.12 0.93797 0.68828 0.0
H517 H 0.10728 0.97339 0.62698 0.0
loop_
_geom_bond_atom_site_label_1
_geom_bond_atom_site_label_2
_geom_bond_distance
_geom_bond_site_symmetry_2
_ccdc_geom_bond_type
H0 C3 0.929 . S
H1 C6 0.929 . S
H2 C8 0.930 1_556 S
C3 H0 0.929 . S
C3 C4 1.398 . S
C3 C5 1.396 . S
C4 C3 1.398 . S
C4 C8 1.407 . S
C5 C3 1.396 . S
C5 C6 1.394 . S
C6 H1 0.929 . S
C6 C5 1.394 . S
C6 C7 1.382 . S
C7 C6 1.382 . S
C7 C8 1.392 . S
C7 N9 1.420 . S
C8 H2 0.930 1_554 S
C8 C4 1.407 . S
C8 C7 1.392 . S
N9 C7 1.420 . S
N9 C10 1.244 . S
C10 N9 1.244 . S
H11 C14 0.929 . S
H12 C17 0.929 . S
H13 C19 0.930 . S
C14 H11 0.929 . S
C14 C15 1.398 . S
C14 C16 1.396 . S
C15 C14 1.398 . S
C15 C19 1.407 . S
C16 C14 1.396 . S
C16 C17 1.394 . S
C17 H12 0.929 . S
C17 C16 1.394 . S
C17 C18 1.382 . S
C18 C17 1.382 . S
C18 C19 1.392 . S
C18 N20 1.420 . S
C19 H13 0.930 . S
C19 C15 1.407 . S
C19 C18 1.392 . S
N20 C18 1.420 . S
N20 C21 1.244 . S
C21 N20 1.244 . S
H22 C25 0.929 . S
H23 C28 0.929 . S
H24 C30 0.930 . S
C25 H22 0.929 . S
C25 C26 1.398 1_554 S
C25 C27 1.396 . S
C26 C25 1.398 1_556 S
C26 C30 1.407 . S
C27 C25 1.396 . S
C27 C28 1.394 . S
C28 H23 0.929 . S
C28 C27 1.394 . S
C28 C29 1.382 1_554 S
C29 C28 1.382 1_556 S
C29 C30 1.392 . S
C29 N31 1.420 . S
C30 H24 0.930 . S
C30 C26 1.407 . S
C30 C29 1.392 . S
N31 C29 1.420 . S
N31 C32 1.244 1_556 S
C32 N31 1.244 1_554 S
H33 C36 0.929 . S
H34 C39 0.929 . S
H35 C41 0.930 . S
C36 H33 0.929 . S
C36 C37 1.398 . S
C36 C38 1.396 . S
C37 C36 1.398 . S
C37 C41 1.407 . S
C38 C36 1.396 . S
C38 C39 1.394 . S
C39 H34 0.929 . S
C39 C38 1.394 . S
C39 C40 1.382 . S
C40 C39 1.382 . S
C40 C41 1.392 . S
C40 N42 1.420 . S
C41 H35 0.930 . S
C41 C37 1.407 . S
C41 C40 1.392 . S
N42 C40 1.420 . S
N42 C43 1.244 . S
C43 N42 1.244 . S
O44 Mg45 1.990 . S
O44 C58 1.253 1_455 S
Mg45 O44 1.990 . S
Mg45 O48 2.180 . S
Mg45 O49 2.117 . S
Mg45 O63 2.030 . S
O46 Mg47 2.072 1_655 S
O46 C58 1.260 . S
Mg47 O46 2.072 1_455 S
Mg47 O48 2.099 . S
Mg47 O50 2.079 1_545 S
Mg47 O51 2.072 1_455 S
Mg47 O53 2.099 1_445 S
Mg47 O64 2.079 1_545 S
O48 Mg45 2.180 . S
O48 Mg47 2.099 . S
O48 C59 1.279 . S
O49 Mg45 2.117 . S
O49 C59 1.250 . S
O50 Mg47 2.079 1_565 S
O50 C60 1.264 . S
O51 Mg47 2.072 1_655 S
O51 C61 1.260 . S
Mg52 O53 2.180 . S
Mg52 O54 2.030 1_655 S
Mg52 O55 1.990 1_565 S
Mg52 O56 2.117 . S
O53 Mg47 2.099 1_665 S
O53 Mg52 2.180 . S
O53 C62 1.279 . S
O54 Mg52 2.030 1_455 S
O54 C60 1.248 . S
O55 Mg52 1.990 1_545 S
O55 C61 1.253 . S
O56 Mg52 2.117 . S
O56 C62 1.250 . S
C57 O63 1.248 1_565 S
C57 O64 1.264 . S
C58 O44 1.253 1_655 S
C58 O46 1.260 . S
C59 O48 1.279 . S
C59 O49 1.250 . S
C60 O50 1.264 . S
C60 O54 1.248 . S
C61 O51 1.260 . S
C61 O55 1.253 . S
C62 O53 1.279 . S
C62 O56 1.250 . S
O63 Mg45 2.030 . S
O63 C57 1.248 1_545 S
O64 Mg47 2.079 1_565 S
O64 C57 1.264 . S
O65 Mg66 1.990 . S
O65 C79 1.253 . S
Mg66 O65 1.990 . S
Mg66 O69 2.180 . S
Mg66 O70 2.117 . S
Mg66 O84 2.030 . S
O67 Mg68 2.072 . S
O67 C79 1.260 . S
Mg68 O67 2.072 . S
Mg68 O69 2.099 . S
Mg68 O71 2.079 1_554 S
Mg68 O72 2.072 . S
Mg68 O74 2.099 . S
Mg68 O85 2.079 . S
O69 Mg66 2.180 . S
O69 Mg68 2.099 . S
O69 C80 1.279 . S
O70 Mg66 2.117 . S
O70 C80 1.250 . S
O71 Mg68 2.079 1_556 S
O71 C81 1.264 . S
O72 Mg68 2.072 . S
O72 C82 1.260 1_554 S
Mg73 O74 2.180 1_556 S
Mg73 O75 2.030 . S
Mg73 O76 1.990 . S
Mg73 O77 2.117 1_556 S
O74 Mg68 2.099 . S
O74 Mg73 2.180 1_554 S
O74 C83 1.279 . S
O75 Mg73 2.030 . S
O75 C81 1.248 . S
O76 Mg73 1.990 . S
O76 C82 1.253 . S
O77 Mg73 2.117 1_554 S
O77 C83 1.250 . S
C78 O84 1.248 . S
C78 O85 1.264 . S
C79 O65 1.253 . S
C79 O67 1.260 . S
C80 O69 1.279 . S
C80 O70 1.250 . S
C81 O71 1.264 . S
C81 O75 1.248 . S
C82 O72 1.260 1_556 S
C82 O76 1.253 . S
C83 O74 1.279 . S
C83 O77 1.250 . S
O84 Mg66 2.030 . S
O84 C78 1.248 . S
O85 Mg68 2.079 . S
O85 C78 1.264 . S
H86 C94 0.929 . S
H87 C96 0.930 . S
H88 C98 0.930 . S
H89 C101 0.929 . S
H90 C104 0.930 . S
H91 C106 0.960 . S
H92 C106 0.960 . S
H93 C106 0.960 . S
C94 H86 0.929 . S
C94 C95 1.377 . S
C94 C96 1.384 . S
C95 C94 1.377 . S
C95 C101 1.390 . S
C96 H87 0.930 . S
C96 C94 1.384 . S
C96 C97 1.372 . S
C97 C96 1.372 . S
C97 C98 1.400 . S
C97 C102 1.490 . S
C98 H88 0.930 . S
C98 C97 1.400 . S
C98 C101 1.386 . S
H99 C115 0.930 . S
H100 C116 0.931 . S
C101 H89 0.929 . S
C101 C95 1.390 . S
C101 C98 1.386 . S
C102 C97 1.490 . S
C102 C104 1.395 . S
C102 C105 1.403 . S
H103 C109 0.930 . S
C104 H90 0.930 . S
C104 C102 1.395 . S
C104 C107 1.403 . S
C105 C102 1.403 . S
C105 C106 1.524 . S
C105 C109 1.400 . S
C106 H91 0.960 . S
C106 H92 0.960 . S
C106 H93 0.960 . S
C106 C105 1.524 . S
C107 C104 1.403 . S
C107 C108 1.392 . S
C107 C111 1.495 . S
C108 C107 1.392 . S
C108 C109 1.385 . S
C108 C110 1.478 . S
C109 H103 0.930 . S
C109 C105 1.400 . S
C109 C108 1.385 . S
C110 C108 1.478 . S
C110 C112 1.381 . S
C110 C116 1.383 . S
C111 C107 1.495 . S
C111 H117 0.959 . S
C111 H118 0.961 . S
C111 H119 0.960 . S
C112 C110 1.381 . S
C112 C113 1.394 . S
C112 H120 0.930 . S
C113 C112 1.394 . S
C113 C114 1.383 . S
C113 H121 0.929 . S
C114 C113 1.383 . S
C114 C115 1.377 . S
C115 H99 0.930 . S
C115 C114 1.377 . S
C115 C116 1.379 . S
C116 H100 0.931 . S
C116 C110 1.383 . S
C116 C115 1.379 . S
H117 C111 0.959 . S
H118 C111 0.961 . S
H119 C111 0.960 . S
H120 C112 0.930 . S
H121 C113 0.929 . S
H122 C130 0.929 . S
H123 C132 0.930 . S
H124 C134 0.930 . S
H125 C137 0.929 . S
H126 C140 0.930 . S
H127 C142 0.960 . S
H128 C142 0.960 . S
H129 C142 0.960 . S
C130 H122 0.929 . S
C130 C131 1.377 . S
C130 C132 1.384 . S
C131 C130 1.377 . S
C131 C137 1.390 . S
C132 H123 0.930 . S
C132 C130 1.384 . S
C132 C133 1.372 . S
C133 C132 1.372 . S
C133 C134 1.400 . S
C133 C138 1.490 . S
C134 H124 0.930 . S
C134 C133 1.400 . S
C134 C137 1.386 . S
H135 C151 0.930 . S
H136 C152 0.931 . S
C137 H125 0.929 . S
C137 C131 1.390 . S
C137 C134 1.386 . S
C138 C133 1.490 . S
C138 C140 1.395 . S
C138 C141 1.403 . S
H139 C145 0.930 . S
C140 H126 0.930 . S
C140 C138 1.395 . S
C140 C143 1.403 . S
C141 C138 1.403 . S
C141 C142 1.524 . S
C141 C145 1.400 . S
C142 H127 0.960 . S
C142 H128 0.960 . S
C142 H129 0.960 . S
C142 C141 1.524 . S
C143 C140 1.403 . S
C143 C144 1.392 . S
C143 C147 1.495 . S
C144 C143 1.392 . S
C144 C145 1.385 . S
C144 C146 1.478 . S
C145 H139 0.930 . S
C145 C141 1.400 . S
C145 C144 1.385 . S
C146 C144 1.478 . S
C146 C148 1.381 . S
C146 C152 1.383 . S
C147 C143 1.495 . S
C147 H153 0.959 . S
C147 H154 0.961 . S
C147 H155 0.960 1_554 S
C148 C146 1.381 . S
C148 C149 1.394 . S
C148 H156 0.930 1_554 S
C149 C148 1.394 . S
C149 C150 1.383 . S
C149 H157 0.929 1_554 S
C150 C149 1.383 . S
C150 C151 1.377 . S
C151 H135 0.930 . S
C151 C150 1.377 . S
C151 C152 1.379 . S
C152 H136 0.931 . S
C152 C146 1.383 . S
C152 C151 1.379 . S
H153 C147 0.959 . S
H154 C147 0.961 . S
H155 C147 0.960 1_556 S
H156 C148 0.930 1_556 S
H157 C149 0.929 1_556 S
H158 C166 0.929 . S
H159 C168 0.930 . S
H160 C170 0.930 . S
H161 C173 0.929 . S
H162 C176 0.930 . S
H163 C178 0.960 . S
H164 C178 0.960 . S
H165 C178 0.960 . S
C166 H158 0.929 . S
C166 C167 1.377 . S
C166 C168 1.384 . S
C167 C166 1.377 . S
C167 C173 1.390 . S
C168 H159 0.930 . S
C168 C166 1.384 . S
C168 C169 1.372 . S
C169 C168 1.372 . S
C169 C170 1.400 . S
C169 C174 1.490 . S
C170 H160 0.930 . S
C170 C169 1.400 . S
C170 C173 1.386 . S
H171 C187 0.930 . S
H172 C188 0.931 . S
C173 H161 0.929 . S
C173 C167 1.390 . S
C173 C170 1.386 . S
C174 C169 1.490 . S
C174 C176 1.395 . S
C174 C177 1.403 . S
H175 C181 0.930 . S
C176 H162 0.930 . S
C176 C174 1.395 . S
C176 C179 1.403 . S
C177 C174 1.403 . S
C177 C178 1.524 . S
C177 C181 1.400 . S
C178 H163 0.960 . S
C178 H164 0.960 . S
C178 H165 0.960 . S
C178 C177 1.524 . S
C179 C176 1.403 . S
C179 C180 1.392 . S
C179 C183 1.495 . S
C180 C179 1.392 . S
C180 C181 1.385 . S
C180 C182 1.478 . S
C181 H175 0.930 . S
C181 C177 1.400 . S
C181 C180 1.385 . S
C182 C180 1.478 . S
C182 C184 1.381 . S
C182 C188 1.383 . S
C183 C179 1.495 . S
C183 H189 0.959 . S
C183 H190 0.961 . S
C183 H191 0.960 . S
C184 C182 1.381 . S
C184 C185 1.394 . S
C184 H192 0.930 . S
C185 C184 1.394 . S
C185 C186 1.383 . S
C185 H193 0.929 . S
C186 C185 1.383 . S
C186 C187 1.377 . S
C187 H171 0.930 . S
C187 C186 1.377 . S
C187 C188 1.379 . S
C188 H172 0.931 . S
C188 C182 1.383 . S
C188 C187 1.379 . S
H189 C183 0.959 . S
H190 C183 0.961 . S
H191 C183 0.960 . S
H192 C184 0.930 . S
H193 C185 0.929 . S
H194 C202 0.929 . S
H195 C204 0.930 . S
H196 C206 0.930 . S
H197 C209 0.929 . S
H198 C212 0.930 . S
H199 C214 0.960 . S
H200 C214 0.960 1_556 S
H201 C214 0.960 . S
C202 H194 0.929 . S
C202 C203 1.377 1_556 S
C202 C204 1.384 . S
C203 C202 1.377 1_554 S
C203 C209 1.390 . S
C204 H195 0.930 . S
C204 C202 1.384 . S
C204 C205 1.372 1_556 S
C205 C204 1.372 1_554 S
C205 C206 1.400 . S
C205 C210 1.490 . S
C206 H196 0.930 . S
C206 C205 1.400 . S
C206 C209 1.386 . S
H207 C223 0.930 . S
H208 C224 0.931 . S
C209 H197 0.929 . S
C209 C203 1.390 . S
C209 C206 1.386 . S
C210 C205 1.490 . S
C210 C212 1.395 . S
C210 C213 1.403 . S
H211 C217 0.930 . S
C212 H198 0.930 . S
C212 C210 1.395 . S
C212 C215 1.403 . S
C213 C210 1.403 . S
C213 C214 1.524 . S
C213 C217 1.400 . S
C214 H199 0.960 . S
C214 H200 0.960 1_554 S
C214 H201 0.960 . S
C214 C213 1.524 . S
C215 C212 1.403 . S
C215 C216 1.392 . S
C215 C219 1.495 . S
C216 C215 1.392 . S
C216 C217 1.385 . S
C216 C218 1.478 . S
C217 H211 0.930 . S
C217 C213 1.400 . S
C217 C216 1.385 . S
C218 C216 1.478 . S
C218 C220 1.381 1_554 S
C218 C224 1.383 . S
C219 C215 1.495 . S
C219 H225 0.961 . S
C219 H226 0.961 . S
C219 H227 0.960 1_554 S
C220 C218 1.381 1_556 S
C220 C221 1.394 . S
C220 H228 0.930 . S
C221 C220 1.394 . S
C221 C222 1.383 1_556 S
C221 H229 0.929 . S
C222 C221 1.383 1_554 S
C222 C223 1.377 . S
C223 H207 0.930 . S
C223 C222 1.377 . S
C223 C224 1.379 . S
C224 H208 0.931 . S
C224 C218 1.383 . S
C224 C223 1.379 . S
H225 C219 0.961 . S
H226 C219 0.961 . S
H227 C219 0.960 1_556 S
H228 C220 0.930 . S
H229 C221 0.929 . S
H230 C238 0.929 . S
H231 C240 0.930 . S
H232 C242 0.930 . S
H233 C245 0.929 . S
H234 C248 0.930 . S
H235 C250 0.960 . S
H236 C250 0.960 . S
H237 C250 0.960 . S
C238 H230 0.929 . S
C238 C239 1.377 . S
C238 C240 1.384 . S
C239 C238 1.377 . S
C239 C245 1.390 . S
C240 H231 0.930 . S
C240 C238 1.384 . S
C240 C241 1.372 . S
C241 C240 1.372 . S
C241 C242 1.400 . S
C241 C246 1.490 . S
C242 H232 0.930 . S
C242 C241 1.400 . S
C242 C245 1.386 . S
H243 C259 0.930 . S
H244 C260 0.931 . S
C245 H233 0.929 . S
C245 C239 1.390 . S
C245 C242 1.386 . S
C246 C241 1.490 . S
C246 C248 1.395 . S
C246 C249 1.403 . S
H247 C253 0.930 . S
C248 H234 0.930 . S
C248 C246 1.395 . S
C248 C251 1.403 . S
C249 C246 1.403 . S
C249 C250 1.524 . S
C249 C253 1.400 . S
C250 H235 0.960 . S
C250 H236 0.960 . S
C250 H237 0.960 . S
C250 C249 1.524 . S
C251 C248 1.403 . S
C251 C252 1.392 . S
C251 C255 1.495 . S
C252 C251 1.392 . S
C252 C253 1.385 . S
C252 C254 1.478 . S
C253 H247 0.930 . S
C253 C249 1.400 . S
C253 C252 1.385 . S
C254 C252 1.478 . S
C254 C256 1.381 . S
C254 C260 1.383 . S
C255 C251 1.495 . S
C255 H261 0.959 . S
C255 H262 0.961 . S
C255 H263 0.960 . S
C256 C254 1.381 . S
C256 C257 1.394 . S
C256 H264 0.930 . S
C257 C256 1.394 . S
C257 C258 1.383 . S
C257 H265 0.929 . S
C258 C257 1.383 . S
C258 C259 1.377 . S
C259 H243 0.930 . S
C259 C258 1.377 . S
C259 C260 1.379 . S
C260 H244 0.931 . S
C260 C254 1.383 . S
C260 C259 1.379 . S
H261 C255 0.959 . S
H262 C255 0.961 . S
H263 C255 0.960 . S
H264 C256 0.930 . S
H265 C257 0.929 . S
H266 C274 0.929 . S
H267 C276 0.930 . S
H268 C278 0.930 . S
H269 C281 0.929 . S
H270 C284 0.930 . S
H271 C286 0.960 . S
H272 C286 0.960 . S
H273 C286 0.960 . S
C274 H266 0.929 . S
C274 C275 1.377 . S
C274 C276 1.384 . S
C275 C274 1.377 . S
C275 C281 1.390 . S
C276 H267 0.930 . S
C276 C274 1.384 . S
C276 C277 1.372 . S
C277 C276 1.372 . S
C277 C278 1.400 . S
C277 C282 1.490 . S
C278 H268 0.930 . S
C278 C277 1.400 . S
C278 C281 1.386 . S
H279 C295 0.930 . S
H280 C296 0.931 . S
C281 H269 0.929 . S
C281 C275 1.390 . S
C281 C278 1.386 . S
C282 C277 1.490 . S
C282 C284 1.395 . S
C282 C285 1.403 . S
H283 C289 0.930 . S
C284 H270 0.930 . S
C284 C282 1.395 . S
C284 C287 1.403 . S
C285 C282 1.403 . S
C285 C286 1.524 . S
C285 C289 1.400 . S
C286 H271 0.960 . S
C286 H272 0.960 . S
C286 H273 0.960 . S
C286 C285 1.524 . S
C287 C284 1.403 . S
C287 C288 1.392 . S
C287 C291 1.495 . S
C288 C287 1.392 . S
C288 C289 1.385 . S
C288 C290 1.478 . S
C289 H283 0.930 . S
C289 C285 1.400 . S
C289 C288 1.385 . S
C290 C288 1.478 . S
C290 C292 1.381 . S
C290 C296 1.383 . S
C291 C287 1.495 . S
C291 H297 0.959 . S
C291 H298 0.961 . S
C291 H299 0.960 . S
C292 C290 1.381 . S
C292 C293 1.394 . S
C292 H300 0.930 . S
C293 C292 1.394 . S
C293 C294 1.383 . S
C293 H301 0.929 . S
C294 C293 1.383 . S
C294 C295 1.377 . S
C295 H279 0.930 . S
C295 C294 1.377 . S
C295 C296 1.379 . S
C296 H280 0.931 . S
C296 C290 1.383 . S
C296 C295 1.379 . S
H297 C291 0.959 . S
H298 C291 0.961 . S
H299 C291 0.960 . S
H300 C292 0.930 . S
H301 C293 0.929 . S
H302 C310 0.929 . S
H303 C312 0.930 . S
H304 C314 0.930 . S
H305 C317 0.929 . S
H306 C320 0.930 . S
H307 C322 0.960 . S
H308 C322 0.960 . S
H309 C322 0.960 . S
C310 H302 0.929 . S
C310 C311 1.377 . S
C310 C312 1.384 . S
C311 C310 1.377 . S
C311 C317 1.390 . S
C312 H303 0.930 . S
C312 C310 1.384 . S
C312 C313 1.372 . S
C313 C312 1.372 . S
C313 C314 1.400 . S
C313 C318 1.490 . S
C314 H304 0.930 . S
C314 C313 1.400 . S
C314 C317 1.386 . S
H315 C331 0.930 . S
H316 C332 0.931 . S
C317 H305 0.929 . S
C317 C311 1.390 . S
C317 C314 1.386 . S
C318 C313 1.490 . S
C318 C320 1.395 . S
C318 C321 1.403 . S
H319 C325 0.930 . S
C320 H306 0.930 . S
C320 C318 1.395 . S
C320 C323 1.403 . S
C321 C318 1.403 . S
C321 C322 1.524 . S
C321 C325 1.400 . S
C322 H307 0.960 . S
C322 H308 0.960 . S
C322 H309 0.960 . S
C322 C321 1.524 . S
C323 C320 1.403 . S
C323 C324 1.392 . S
C323 C327 1.495 . S
C324 C323 1.392 . S
C324 C325 1.385 . S
C324 C326 1.478 . S
C325 H319 0.930 . S
C325 C321 1.400 . S
C325 C324 1.385 . S
C326 C324 1.478 . S
C326 C328 1.381 . S
C326 C332 1.383 . S
C327 C323 1.495 . S
C327 H333 0.959 . S
C327 H334 0.961 . S
C327 H335 0.960 . S
C328 C326 1.381 . S
C328 C329 1.394 . S
C328 H336 0.930 . S
C329 C328 1.394 . S
C329 C330 1.383 . S
C329 H337 0.929 . S
C330 C329 1.383 . S
C330 C331 1.377 . S
C331 H315 0.930 . S
C331 C330 1.377 . S
C331 C332 1.379 . S
C332 H316 0.931 . S
C332 C326 1.383 . S
C332 C331 1.379 . S
H333 C327 0.959 . S
H334 C327 0.961 . S
H335 C327 0.960 . S
H336 C328 0.930 . S
H337 C329 0.929 . S
H338 C346 0.929 . S
H339 C348 0.930 . S
H340 C350 0.930 . S
H341 C353 0.929 . S
H342 C356 0.930 . S
H343 C358 0.960 . S
H344 C358 0.960 . S
H345 C358 0.960 . S
C346 H338 0.929 . S
C346 C347 1.377 . S
C346 C348 1.384 . S
C347 C346 1.377 . S
C347 C353 1.390 . S
C348 H339 0.930 . S
C348 C346 1.384 . S
C348 C349 1.372 . S
C349 C348 1.372 . S
C349 C350 1.400 . S
C349 C354 1.490 . S
C350 H340 0.930 . S
C350 C349 1.400 . S
C350 C353 1.386 . S
H351 C367 0.930 . S
H352 C368 0.931 . S
C353 H341 0.929 . S
C353 C347 1.390 . S
C353 C350 1.386 . S
C354 C349 1.490 . S
C354 C356 1.395 . S
C354 C357 1.403 . S
H355 C361 0.930 . S
C356 H342 0.930 . S
C356 C354 1.395 . S
C356 C359 1.403 . S
C357 C354 1.403 . S
C357 C358 1.524 . S
C357 C361 1.400 . S
C358 H343 0.960 . S
C358 H344 0.960 . S
C358 H345 0.960 . S
C358 C357 1.524 . S
C359 C356 1.403 . S
C359 C360 1.392 . S
C359 C363 1.495 . S
C360 C359 1.392 . S
C360 C361 1.385 . S
C360 C362 1.478 . S
C361 H355 0.930 . S
C361 C357 1.400 . S
C361 C360 1.385 . S
C362 C360 1.478 . S
C362 C364 1.381 . S
C362 C368 1.383 . S
C363 C359 1.495 . S
C363 H369 0.959 . S
C363 H370 0.961 . S
C363 H371 0.960 . S
C364 C362 1.381 . S
C364 C365 1.394 . S
C364 H372 0.930 . S
C365 C364 1.394 . S
C365 C366 1.383 . S
C365 H373 0.929 . S
C366 C365 1.383 . S
C366 C367 1.377 . S
C367 H351 0.930 . S
C367 C366 1.377 . S
C367 C368 1.379 . S
C368 H352 0.931 . S
C368 C362 1.383 . S
C368 C367 1.379 . S
H369 C363 0.959 . S
H370 C363 0.961 . S
H371 C363 0.960 . S
H372 C364 0.930 . S
H373 C365 0.929 . S
H374 C382 0.929 . S
H375 C384 0.930 . S
H376 C386 0.930 . S
H377 C389 0.929 . S
H378 C392 0.930 . S
H379 C394 0.960 . S
H380 C394 0.960 . S
H381 C394 0.960 . S
C382 H374 0.929 . S
C382 C383 1.377 . S
C382 C384 1.384 . S
C383 C382 1.377 . S
C383 C389 1.390 . S
C384 H375 0.930 . S
C384 C382 1.384 . S
C384 C385 1.372 . S
C385 C384 1.372 . S
C385 C386 1.400 . S
C385 C390 1.490 . S
C386 H376 0.930 . S
C386 C385 1.400 . S
C386 C389 1.386 . S
H387 C403 0.930 . S
H388 C404 0.931 . S
C389 H377 0.929 . S
C389 C383 1.390 . S
C389 C386 1.386 . S
C390 C385 1.490 . S
C390 C392 1.395 . S
C390 C393 1.403 . S
H391 C397 0.930 . S
C392 H378 0.930 . S
C392 C390 1.395 . S
C392 C395 1.403 . S
C393 C390 1.403 . S
C393 C394 1.524 . S
C393 C397 1.400 . S
C394 H379 0.960 . S
C394 H380 0.960 . S
C394 H381 0.960 . S
C394 C393 1.524 . S
C395 C392 1.403 . S
C395 C396 1.392 . S
C395 C399 1.495 . S
C396 C395 1.392 . S
C396 C397 1.385 . S
C396 C398 1.478 . S
C397 H391 0.930 . S
C397 C393 1.400 . S
C397 C396 1.385 . S
C398 C396 1.478 . S
C398 C400 1.381 . S
C398 C404 1.383 . S
C399 C395 1.495 . S
C399 H405 0.959 . S
C399 H406 0.961 . S
C399 H407 0.960 . S
C400 C398 1.381 . S
C400 C401 1.394 . S
C400 H408 0.930 . S
C401 C400 1.394 . S
C401 C402 1.383 . S
C401 H409 0.929 . S
C402 C401 1.383 . S
C402 C403 1.377 . S
C403 H387 0.930 . S
C403 C402 1.377 . S
C403 C404 1.379 . S
C404 H388 0.931 . S
C404 C398 1.383 . S
C404 C403 1.379 . S
H405 C399 0.959 . S
H406 C399 0.961 . S
H407 C399 0.960 . S
H408 C400 0.930 . S
H409 C401 0.929 . S
H410 C418 0.929 . S
H411 C420 0.930 . S
H412 C422 0.930 . S
H413 C425 0.929 . S
H414 C428 0.930 . S
H415 C430 0.960 . S
H416 C430 0.960 . S
H417 C430 0.960 . S
C418 H410 0.929 . S
C418 C419 1.377 . S
C418 C420 1.384 . S
C419 C418 1.377 . S
C419 C425 1.390 . S
C420 H411 0.930 . S
C420 C418 1.384 . S
C420 C421 1.372 . S
C421 C420 1.372 . S
C421 C422 1.400 . S
C421 C426 1.490 . S
C422 H412 0.930 . S
C422 C421 1.400 . S
C422 C425 1.386 . S
H423 C439 0.930 . S
H424 C440 0.931 . S
C425 H413 0.929 . S
C425 C419 1.390 . S
C425 C422 1.386 . S
C426 C421 1.490 . S
C426 C428 1.395 . S
C426 C429 1.403 . S
H427 C433 0.930 . S
C428 H414 0.930 . S
C428 C426 1.395 . S
C428 C431 1.403 . S
C429 C426 1.403 . S
C429 C430 1.524 . S
C429 C433 1.400 . S
C430 H415 0.960 . S
C430 H416 0.960 . S
C430 H417 0.960 . S
C430 C429 1.524 . S
C431 C428 1.403 . S
C431 C432 1.392 . S
C431 C435 1.495 . S
C432 C431 1.392 . S
C432 C433 1.385 . S
C432 C434 1.478 . S
C433 H427 0.930 . S
C433 C429 1.400 . S
C433 C432 1.385 . S
C434 C432 1.478 . S
C434 C436 1.381 . S
C434 C440 1.383 . S
C435 C431 1.495 . S
C435 H441 0.959 . S
C435 H442 0.961 . S
C435 H443 0.960 . S
C436 C434 1.381 . S
C436 C437 1.394 . S
C436 H444 0.930 . S
C437 C436 1.394 . S
C437 C438 1.383 . S
C437 H445 0.929 . S
C438 C437 1.383 . S
C438 C439 1.377 . S
C439 H423 0.930 . S
C439 C438 1.377 . S
C439 C440 1.379 . S
C440 H424 0.931 . S
C440 C434 1.383 . S
C440 C439 1.379 . S
H441 C435 0.959 . S
H442 C435 0.961 . S
H443 C435 0.960 . S
H444 C436 0.930 . S
H445 C437 0.929 . S
H446 C454 0.929 . S
H447 C456 0.930 . S
H448 C458 0.930 . S
H449 C461 0.929 . S
H450 C464 0.930 . S
H451 C466 0.960 . S
H452 C466 0.960 . S
H453 C466 0.960 . S
C454 H446 0.929 . S
C454 C455 1.377 . S
C454 C456 1.384 . S
C455 C454 1.377 . S
C455 C461 1.390 . S
C456 H447 0.930 . S
C456 C454 1.384 . S
C456 C457 1.372 . S
C457 C456 1.372 . S
C457 C458 1.400 . S
C457 C462 1.490 . S
C458 H448 0.930 . S
C458 C457 1.400 . S
C458 C461 1.386 . S
H459 C475 0.930 . S
H460 C476 0.931 . S
C461 H449 0.929 . S
C461 C455 1.390 . S
C461 C458 1.386 . S
C462 C457 1.490 . S
C462 C464 1.395 . S
C462 C465 1.403 . S
H463 C469 0.930 . S
C464 H450 0.930 . S
C464 C462 1.395 . S
C464 C467 1.403 . S
C465 C462 1.403 . S
C465 C466 1.524 . S
C465 C469 1.400 . S
C466 H451 0.960 . S
C466 H452 0.960 . S
C466 H453 0.960 . S
C466 C465 1.524 . S
C467 C464 1.403 . S
C467 C468 1.392 . S
C467 C471 1.495 . S
C468 C467 1.392 . S
C468 C469 1.385 . S
C468 C470 1.478 . S
C469 H463 0.930 . S
C469 C465 1.400 . S
C469 C468 1.385 . S
C470 C468 1.478 . S
C470 C472 1.381 . S
C470 C476 1.383 . S
C471 C467 1.495 . S
C471 H477 0.959 . S
C471 H478 0.961 . S
C471 H479 0.960 . S
C472 C470 1.381 . S
C472 C473 1.394 . S
C472 H480 0.930 . S
C473 C472 1.394 . S
C473 C474 1.383 . S
C473 H481 0.929 . S
C474 C473 1.383 . S
C474 C475 1.377 . S
C475 H459 0.930 . S
C475 C474 1.377 . S
C475 C476 1.379 . S
C476 H460 0.931 . S
C476 C470 1.383 . S
C476 C475 1.379 . S
H477 C471 0.959 . S
H478 C471 0.961 . S
H479 C471 0.960 . S
H480 C472 0.930 . S
H481 C473 0.929 . S
H482 C490 0.929 . S
H483 C492 0.930 . S
H484 C494 0.930 . S
H485 C497 0.929 . S
H486 C500 0.930 . S
H487 C502 0.960 . S
H488 C502 0.960 . S
H489 C502 0.960 . S
C490 H482 0.929 . S
C490 C491 1.377 . S
C490 C492 1.384 . S
C491 C490 1.377 . S
C491 C497 1.390 . S
C492 H483 0.930 . S
C492 C490 1.384 . S
C492 C493 1.372 . S
C493 C492 1.372 . S
C493 C494 1.400 . S
C493 C498 1.490 . S
C494 H484 0.930 . S
C494 C493 1.400 . S
C494 C497 1.386 . S
H495 C511 0.930 . S
H496 C512 0.931 . S
C497 H485 0.929 . S
C497 C491 1.390 . S
C497 C494 1.386 . S
C498 C493 1.490 . S
C498 C500 1.395 . S
C498 C501 1.403 . S
H499 C505 0.930 . S
C500 H486 0.930 . S
C500 C498 1.395 . S
C500 C503 1.403 . S
C501 C498 1.403 . S
C501 C502 1.524 . S
C501 C505 1.400 . S
C502 H487 0.960 . S
C502 H488 0.960 . S
C502 H489 0.960 . S
C502 C501 1.524 . S
C503 C500 1.403 . S
C503 C504 1.392 . S
C503 C507 1.495 . S
C504 C503 1.392 . S
C504 C505 1.385 . S
C504 C506 1.478 . S
C505 H499 0.930 . S
C505 C501 1.400 . S
C505 C504 1.385 . S
C506 C504 1.478 . S
C506 C508 1.381 . S
C506 C512 1.383 . S
C507 C503 1.495 . S
C507 H513 0.959 . S
C507 H514 0.961 . S
C507 H515 0.960 . S
C508 C506 1.381 . S
C508 C509 1.394 . S
C508 H516 0.930 . S
C509 C508 1.394 . S
C509 C510 1.383 . S
C509 H517 0.929 . S
C510 C509 1.383 . S
C510 C511 1.377 . S
C511 H495 0.930 . S
C511 C510 1.377 . S
C511 C512 1.379 . S
C512 H496 0.931 . S
C512 C506 1.383 . S
C512 C511 1.379 . S
H513 C507 0.959 . S
H514 C507 0.961 . S
H515 C507 0.960 . S
H516 C508 0.930 . S
H517 C509 0.929 . S
C114 C59 1.202 . S
C95 C43 1.440 . S
C131 C10 1.467 . S
C150 C83 1.239 . S
C167 C21 1.619 . S
C186 C62 1.414 . S
C203 C32 1.621 . S
C222 C80 1.405 . S
C258 C60 1.508 . S
C239 C5 1.518 . S
C294 C82 1.536 . S
C275 C15 1.628 . S
C311 C27 1.604 . S
C330 C61 1.555 . S
C347 C38 1.520 . S
C366 C81 1.493 . S
C402 C79 1.479 . S
C383 C16 1.520 . S
C438 C58 1.450 . S
C419 C26 1.543 . S
C474 C78 1.392 . S
C455 C37 1.450 . S
C491 C4 1.452 1_556 S
C510 C57 1.410 . S
