# Generated by pormake.
# Topology tbo, (3,4)-cn, num edge types: 1
# Building blocks:
#     Node 0, Type 0, BuildingBlock: WUSLED_clean_sbu_0, # of connection points: 3
#     Node 1, Type 0, BuildingBlock: WUSLED_clean_sbu_0, # of connection points: 3
#     Node 2, Type 0, BuildingBlock: WUSLED_clean_sbu_0, # of connection points: 3
#     Node 3, Type 0, BuildingBlock: WUSLED_clean_sbu_0, # of connection points: 3
#     Node 4, Type 0, BuildingBlock: WUSLED_clean_sbu_0, # of connection points: 3
#     Node 5, Type 0, BuildingBlock: WUSLED_clean_sbu_0, # of connection points: 3
#     Node 6, Type 0, BuildingBlock: WUSLED_clean_sbu_0, # of connection points: 3
#     Node 7, Type 0, BuildingBlock: WUSLED_clean_sbu_0, # of connection points: 3
#     Node 8, Type 0, BuildingBlock: WUSLED_clean_sbu_0, # of connection points: 3
#     Node 9, Type 0, BuildingBlock: WUSLED_clean_sbu_0, # of connection points: 3
#     Node 10, Type 0, BuildingBlock: WUSLED_clean_sbu_0, # of connection points: 3
#     Node 11, Type 0, BuildingBlock: WUSLED_clean_sbu_0, # of connection points: 3
#     Node 12, Type 0, BuildingBlock: WUSLED_clean_sbu_0, # of connection points: 3
#     Node 13, Type 0, BuildingBlock: WUSLED_clean_sbu_0, # of connection points: 3
#     Node 14, Type 0, BuildingBlock: WUSLED_clean_sbu_0, # of connection points: 3
#     Node 15, Type 0, BuildingBlock: WUSLED_clean_sbu_0, # of connection points: 3
#     Node 16, Type 0, BuildingBlock: WUSLED_clean_sbu_0, # of connection points: 3
#     Node 17, Type 0, BuildingBlock: WUSLED_clean_sbu_0, # of connection points: 3
#     Node 18, Type 0, BuildingBlock: WUSLED_clean_sbu_0, # of connection points: 3
#     Node 19, Type 0, BuildingBlock: WUSLED_clean_sbu_0, # of connection points: 3
#     Node 20, Type 0, BuildingBlock: WUSLED_clean_sbu_0, # of connection points: 3
#     Node 21, Type 0, BuildingBlock: WUSLED_clean_sbu_0, # of connection points: 3
#     Node 22, Type 0, BuildingBlock: WUSLED_clean_sbu_0, # of connection points: 3
#     Node 23, Type 0, BuildingBlock: WUSLED_clean_sbu_0, # of connection points: 3
#     Node 24, Type 0, BuildingBlock: WUSLED_clean_sbu_0, # of connection points: 3
#     Node 25, Type 0, BuildingBlock: WUSLED_clean_sbu_0, # of connection points: 3
#     Node 26, Type 0, BuildingBlock: WUSLED_clean_sbu_0, # of connection points: 3
#     Node 27, Type 0, BuildingBlock: WUSLED_clean_sbu_0, # of connection points: 3
#     Node 28, Type 0, BuildingBlock: WUSLED_clean_sbu_0, # of connection points: 3
#     Node 29, Type 0, BuildingBlock: WUSLED_clean_sbu_0, # of connection points: 3
#     Node 30, Type 0, BuildingBlock: WUSLED_clean_sbu_0, # of connection points: 3
#     Node 31, Type 0, BuildingBlock: WUSLED_clean_sbu_0, # of connection points: 3
#     Node 32, Type 1, BuildingBlock: NAWXER_clean_linker_0, # of connection points: 4
#     Node 33, Type 1, BuildingBlock: NAWXER_clean_linker_0, # of connection points: 4
#     Node 34, Type 1, BuildingBlock: NAWXER_clean_linker_0, # of connection points: 4
#     Node 35, Type 1, BuildingBlock: NAWXER_clean_linker_0, # of connection points: 4
#     Node 36, Type 1, BuildingBlock: NAWXER_clean_linker_0, # of connection points: 4
#     Node 37, Type 1, BuildingBlock: NAWXER_clean_linker_0, # of connection points: 4
#     Node 38, Type 1, BuildingBlock: NAWXER_clean_linker_0, # of connection points: 4
#     Node 39, Type 1, BuildingBlock: NAWXER_clean_linker_0, # of connection points: 4
#     Node 40, Type 1, BuildingBlock: NAWXER_clean_linker_0, # of connection points: 4
#     Node 41, Type 1, BuildingBlock: NAWXER_clean_linker_0, # of connection points: 4
#     Node 42, Type 1, BuildingBlock: NAWXER_clean_linker_0, # of connection points: 4
#     Node 43, Type 1, BuildingBlock: NAWXER_clean_linker_0, # of connection points: 4
#     Node 44, Type 1, BuildingBlock: NAWXER_clean_linker_0, # of connection points: 4
#     Node 45, Type 1, BuildingBlock: NAWXER_clean_linker_0, # of connection points: 4
#     Node 46, Type 1, BuildingBlock: NAWXER_clean_linker_0, # of connection points: 4
#     Node 47, Type 1, BuildingBlock: NAWXER_clean_linker_0, # of connection points: 4
#     Node 48, Type 1, BuildingBlock: NAWXER_clean_linker_0, # of connection points: 4
#     Node 49, Type 1, BuildingBlock: NAWXER_clean_linker_0, # of connection points: 4
#     Node 50, Type 1, BuildingBlock: NAWXER_clean_linker_0, # of connection points: 4
#     Node 51, Type 1, BuildingBlock: NAWXER_clean_linker_0, # of connection points: 4
#     Node 52, Type 1, BuildingBlock: NAWXER_clean_linker_0, # of connection points: 4
#     Node 53, Type 1, BuildingBlock: NAWXER_clean_linker_0, # of connection points: 4
#     Node 54, Type 1, BuildingBlock: NAWXER_clean_linker_0, # of connection points: 4
#     Node 55, Type 1, BuildingBlock: NAWXER_clean_linker_0, # of connection points: 4
#     Edge 56, Type (0, 1), None
#     Edge 57, Type (0, 1), None
#     Edge 58, Type (0, 1), None
#     Edge 59, Type (0, 1), None
#     Edge 60, Type (0, 1), None
#     Edge 61, Type (0, 1), None
#     Edge 62, Type (0, 1), None
#     Edge 63, Type (0, 1), None
#     Edge 64, Type (0, 1), None
#     Edge 65, Type (0, 1), None
#     Edge 66, Type (0, 1), None
#     Edge 67, Type (0, 1), None
#     Edge 68, Type (0, 1), None
#     Edge 69, Type (0, 1), None
#     Edge 70, Type (0, 1), None
#     Edge 71, Type (0, 1), None
#     Edge 72, Type (0, 1), None
#     Edge 73, Type (0, 1), None
#     Edge 74, Type (0, 1), None
#     Edge 75, Type (0, 1), None
#     Edge 76, Type (0, 1), None
#     Edge 77, Type (0, 1), None
#     Edge 78, Type (0, 1), None
#     Edge 79, Type (0, 1), None
#     Edge 80, Type (0, 1), None
#     Edge 81, Type (0, 1), None
#     Edge 82, Type (0, 1), None
#     Edge 83, Type (0, 1), None
#     Edge 84, Type (0, 1), None
#     Edge 85, Type (0, 1), None
#     Edge 86, Type (0, 1), None
#     Edge 87, Type (0, 1), None
#     Edge 88, Type (0, 1), None
#     Edge 89, Type (0, 1), None
#     Edge 90, Type (0, 1), None
#     Edge 91, Type (0, 1), None
#     Edge 92, Type (0, 1), None
#     Edge 93, Type (0, 1), None
#     Edge 94, Type (0, 1), None
#     Edge 95, Type (0, 1), None
#     Edge 96, Type (0, 1), None
#     Edge 97, Type (0, 1), None
#     Edge 98, Type (0, 1), None
#     Edge 99, Type (0, 1), None
#     Edge 100, Type (0, 1), None
#     Edge 101, Type (0, 1), None
#     Edge 102, Type (0, 1), None
#     Edge 103, Type (0, 1), None
#     Edge 104, Type (0, 1), None
#     Edge 105, Type (0, 1), None
#     Edge 106, Type (0, 1), None
#     Edge 107, Type (0, 1), None
#     Edge 108, Type (0, 1), None
#     Edge 109, Type (0, 1), None
#     Edge 110, Type (0, 1), None
#     Edge 111, Type (0, 1), None
#     Edge 112, Type (0, 1), None
#     Edge 113, Type (0, 1), None
#     Edge 114, Type (0, 1), None
#     Edge 115, Type (0, 1), None
#     Edge 116, Type (0, 1), None
#     Edge 117, Type (0, 1), None
#     Edge 118, Type (0, 1), None
#     Edge 119, Type (0, 1), None
#     Edge 120, Type (0, 1), None
#     Edge 121, Type (0, 1), None
#     Edge 122, Type (0, 1), None
#     Edge 123, Type (0, 1), None
#     Edge 124, Type (0, 1), None
#     Edge 125, Type (0, 1), None
#     Edge 126, Type (0, 1), None
#     Edge 127, Type (0, 1), None
#     Edge 128, Type (0, 1), None
#     Edge 129, Type (0, 1), None
#     Edge 130, Type (0, 1), None
#     Edge 131, Type (0, 1), None
#     Edge 132, Type (0, 1), None
#     Edge 133, Type (0, 1), None
#     Edge 134, Type (0, 1), None
#     Edge 135, Type (0, 1), None
#     Edge 136, Type (0, 1), None
#     Edge 137, Type (0, 1), None
#     Edge 138, Type (0, 1), None
#     Edge 139, Type (0, 1), None
#     Edge 140, Type (0, 1), None
#     Edge 141, Type (0, 1), None
#     Edge 142, Type (0, 1), None
#     Edge 143, Type (0, 1), None
#     Edge 144, Type (0, 1), None
#     Edge 145, Type (0, 1), None
#     Edge 146, Type (0, 1), None
#     Edge 147, Type (0, 1), None
#     Edge 148, Type (0, 1), None
#     Edge 149, Type (0, 1), None
#     Edge 150, Type (0, 1), None
#     Edge 151, Type (0, 1), None
# Relax obj value: 0.000
# Max RMSD: 0.011
# Mean RMSD: 0.006
data_MOF--net-tbo--node1-WUSLED_clean_sbu_0--node2-NAWXER_clean_linker_0--edge1-none
_symmetry_space_group_name_H-M    P1
_symmetry_Int_Tables_number       1
_symmetry_cell_setting            triclinic
loop_
_symmetry_equiv_pos_as_xyz
'x, y, z'
_cell_length_a     66.533379
_cell_length_b     66.65484
_cell_length_c     66.480016
_cell_angle_alpha  89.708083
_cell_angle_beta   90.290358
_cell_angle_gamma 90.639662
loop_
_atom_site_label
_atom_site_type_symbol
_atom_site_fract_x
_atom_site_fract_y
_atom_site_fract_z
_atom_type_partial_charge
C0 C 0.19761 0.14648 0.22753 0.0
C1 C 0.21452 0.13988 0.217 0.0
C2 C 0.21801 0.11161 0.24024 0.0
C3 C 0.22465 0.1226 0.22332 0.0
C4 C 0.20107 0.11841 0.25071 0.0
C5 C 0.191 0.13565 0.2444 0.0
U6 U 0.18899 0.19178 0.19256 0.0
O7 O 0.16058 0.20402 0.18102 0.0
O8 O 0.1801 0.22251 0.20029 0.0
C9 C 0.1627 0.22091 0.19096 0.0
C10 C 0.18663 0.16454 0.22123 0.0
C11 C 0.14503 0.22734 0.20244 0.0
C12 C 0.1194 0.22146 0.22784 0.0
C13 C 0.13648 0.21513 0.21746 0.0
C14 C 0.11944 0.25231 0.20844 0.0
C15 C 0.11057 0.2401 0.22337 0.0
C16 C 0.13646 0.24597 0.19809 0.0
C17 C 0.22398 0.20153 0.14767 0.0
C18 C 0.21921 0.22861 0.12349 0.0
C19 C 0.24783 0.2067 0.12051 0.0
C20 C 0.24147 0.19603 0.13754 0.0
C21 C 0.23679 0.22313 0.11323 0.0
C22 C 0.21288 0.21792 0.14058 0.0
C23 C 0.21757 0.18992 0.16547 0.0
O24 O 0.19639 0.18167 0.22326 0.0
O25 O 0.17674 0.16318 0.20412 0.0
O26 O 0.20026 0.18036 0.16378 0.0
O27 O 0.21986 0.19895 0.18287 0.0
H28 H 0.21982 0.14806 0.2039 0.0
H29 H 0.2375 0.1177 0.21479 0.0
H30 H 0.19572 0.11055 0.26397 0.0
H31 H 0.17802 0.14057 0.25275 0.0
H32 H 0.11289 0.21158 0.23909 0.0
H33 H 0.14291 0.20068 0.22103 0.0
H34 H 0.11331 0.26688 0.20482 0.0
H35 H 0.14292 0.25564 0.18661 0.0
H36 H 0.21047 0.2413 0.11845 0.0
H37 H 0.26124 0.20184 0.11285 0.0
H38 H 0.25019 0.18338 0.14276 0.0
H39 H 0.19934 0.22242 0.14826 0.0
C40 C 0.81604 0.20042 0.14862 0.0
C41 C 0.82732 0.21703 0.14192 0.0
C42 C 0.80381 0.22202 0.1141 0.0
C43 C 0.82128 0.22774 0.12479 0.0
C44 C 0.79257 0.20536 0.12099 0.0
C45 C 0.79865 0.19467 0.13808 0.0
U46 U 0.85143 0.19171 0.19312 0.0
O47 O 0.84481 0.18218 0.22414 0.0
O48 O 0.86388 0.1636 0.2051 0.0
C49 C 0.85432 0.16512 0.22227 0.0
C50 C 0.82227 0.1889 0.16647 0.0
C51 C 0.8431 0.1471 0.22872 0.0
C52 C 0.81503 0.12372 0.22514 0.0
C53 C 0.82548 0.14093 0.21874 0.0
C54 C 0.83974 0.11869 0.25153 0.0
C55 C 0.82202 0.11239 0.24165 0.0
C56 C 0.85016 0.13588 0.24512 0.0
C57 C 0.89572 0.22784 0.20185 0.0
C58 C 0.92129 0.22229 0.22746 0.0
C59 C 0.9219 0.25286 0.20758 0.0
C60 C 0.9047 0.24638 0.19722 0.0
C61 C 0.9305 0.24086 0.22276 0.0
C62 C 0.90404 0.21585 0.21709 0.0
C63 C 0.87781 0.22122 0.19052 0.0
O64 O 0.8394 0.17942 0.16482 0.0
O65 O 0.82037 0.19813 0.18377 0.0
O66 O 0.86062 0.22277 0.20001 0.0
O67 O 0.87956 0.20419 0.18083 0.0
H68 H 0.84079 0.22171 0.14993 0.0
H69 H 0.83015 0.24062 0.12004 0.0
H70 H 0.77923 0.20036 0.11298 0.0
H71 H 0.78981 0.18183 0.14303 0.0
H72 H 0.80133 0.11942 0.21733 0.0
H73 H 0.81981 0.14946 0.20605 0.0
H74 H 0.84575 0.11019 0.26407 0.0
H75 H 0.86379 0.14039 0.25294 0.0
H76 H 0.92761 0.21258 0.2389 0.0
H77 H 0.92837 0.26736 0.20378 0.0
H78 H 0.8984 0.25587 0.18556 0.0
H79 H 0.89727 0.20146 0.22085 0.0
C80 C 0.81802 0.84596 0.14559 0.0
C81 C 0.82924 0.82959 0.13892 0.0
C82 C 0.80521 0.82385 0.11161 0.0
C83 C 0.82291 0.81865 0.12203 0.0
C84 C 0.79414 0.84035 0.11839 0.0
C85 C 0.80049 0.85127 0.13521 0.0
U86 U 0.85279 0.85567 0.19074 0.0
O87 O 0.86478 0.88425 0.20245 0.0
O88 O 0.84537 0.86531 0.2214 0.0
C89 C 0.85487 0.8826 0.21944 0.0
C90 C 0.82425 0.85762 0.16335 0.0
C91 C 0.8435 0.90037 0.22552 0.0
C92 C 0.81645 0.92416 0.22038 0.0
C93 C 0.8272 0.90735 0.21408 0.0
C94 C 0.83826 0.92713 0.24953 0.0
C95 C 0.8218 0.93419 0.23826 0.0
C96 C 0.84897 0.9104 0.24321 0.0
C97 C 0.89675 0.81986 0.20083 0.0
C98 C 0.92073 0.82355 0.22836 0.0
C99 C 0.924 0.79621 0.20477 0.0
C100 C 0.90697 0.80282 0.19442 0.0
C101 C 0.93121 0.80655 0.2218 0.0
C102 C 0.90365 0.83018 0.21793 0.0
C103 C 0.8791 0.82659 0.18932 0.0
O104 O 0.82195 0.84852 0.18078 0.0
O105 O 0.84151 0.86728 0.16182 0.0
O106 O 0.88127 0.84365 0.17954 0.0
O107 O 0.86171 0.82488 0.1985 0.0
H108 H 0.84282 0.82525 0.14681 0.0
H109 H 0.83169 0.80593 0.11733 0.0
H110 H 0.78064 0.84499 0.11057 0.0
H111 H 0.79169 0.86391 0.14011 0.0
H112 H 0.80377 0.92909 0.21144 0.0
H113 H 0.82273 0.89974 0.20038 0.0
H114 H 0.84301 0.93465 0.26318 0.0
H115 H 0.86156 0.90526 0.25219 0.0
H116 H 0.92596 0.83195 0.24131 0.0
H117 H 0.93146 0.78288 0.19949 0.0
H118 H 0.9018 0.79461 0.18131 0.0
H119 H 0.89592 0.8434 0.22309 0.0
C120 C 0.14719 0.81589 0.20203 0.0
C121 C 0.14076 0.82637 0.21904 0.0
C122 C 0.11212 0.80345 0.22258 0.0
C123 C 0.12337 0.82018 0.22926 0.0
C124 C 0.11888 0.7929 0.20566 0.0
C125 C 0.13623 0.79908 0.1955 0.0
U126 U 0.19194 0.85146 0.19299 0.0
O127 O 0.22264 0.84475 0.18309 0.0
O128 O 0.20337 0.86397 0.16453 0.0
C129 C 0.22045 0.85431 0.1659 0.0
C130 C 0.16503 0.82241 0.19066 0.0
C131 C 0.22633 0.84314 0.14788 0.0
C132 C 0.22066 0.81648 0.12359 0.0
C133 C 0.2147 0.82696 0.14074 0.0
C134 C 0.24988 0.83829 0.12061 0.0
C135 C 0.23839 0.82198 0.11336 0.0
C136 C 0.2439 0.84874 0.13769 0.0
C137 C 0.20157 0.89557 0.22874 0.0
C138 C 0.22696 0.92148 0.22294 0.0
C139 C 0.20705 0.92187 0.25335 0.0
C140 C 0.19691 0.9045 0.24712 0.0
C141 C 0.22207 0.93072 0.24126 0.0
C142 C 0.21677 0.90405 0.21672 0.0
C143 C 0.19017 0.87768 0.22228 0.0
O144 O 0.16334 0.83959 0.18104 0.0
O145 O 0.18237 0.82049 0.19998 0.0
O146 O 0.19963 0.86053 0.22392 0.0
O147 O 0.18016 0.87951 0.20529 0.0
H148 H 0.14906 0.83944 0.22426 0.0
H149 H 0.11851 0.82874 0.24212 0.0
H150 H 0.11079 0.77977 0.2003 0.0
H151 H 0.14103 0.79077 0.18244 0.0
H152 H 0.21157 0.80389 0.11853 0.0
H153 H 0.20108 0.82241 0.14848 0.0
H154 H 0.26343 0.84313 0.11294 0.0
H155 H 0.25301 0.86125 0.14296 0.0
H156 H 0.23832 0.92797 0.2132 0.0
H157 H 0.20314 0.92835 0.26769 0.0
H158 H 0.18529 0.89809 0.25663 0.0
H159 H 0.22058 0.89731 0.20246 0.0
C160 C 0.14594 0.81647 0.84557 0.0
C161 C 0.1378 0.82866 0.83038 0.0
C162 C 0.11112 0.80395 0.82439 0.0
C163 C 0.12053 0.82246 0.81988 0.0
C164 C 0.11955 0.79174 0.8395 0.0
C165 C 0.13677 0.79797 0.84999 0.0
U166 U 0.19047 0.85216 0.85457 0.0
O167 O 0.20239 0.86454 0.88289 0.0
O168 O 0.22143 0.84565 0.86414 0.0
C169 C 0.21956 0.85514 0.8813 0.0
C170 C 0.16382 0.82288 0.85707 0.0
C171 C 0.22609 0.84404 0.89932 0.0
C172 C 0.22265 0.81609 0.92273 0.0
C173 C 0.21615 0.82641 0.90552 0.0
C174 C 0.24902 0.84096 0.92768 0.0
C175 C 0.2392 0.82323 0.93402 0.0
C176 C 0.24251 0.85124 0.9105 0.0
C177 C 0.19957 0.89653 0.81899 0.0
C178 C 0.22694 0.92047 0.824 0.0
C179 C 0.20457 0.92402 0.79536 0.0
C180 C 0.19384 0.90694 0.80157 0.0
C181 C 0.22125 0.93102 0.8065 0.0
C182 C 0.21619 0.90336 0.83018 0.0
C183 C 0.18803 0.87865 0.82528 0.0
O184 O 0.18108 0.82114 0.84776 0.0
O185 O 0.16217 0.83994 0.86673 0.0
O186 O 0.1783 0.88028 0.84234 0.0
O187 O 0.19739 0.86149 0.82355 0.0
H188 H 0.14471 0.84302 0.82677 0.0
H189 H 0.11435 0.83234 0.8085 0.0
H190 H 0.11293 0.77727 0.84315 0.0
H191 H 0.14292 0.78833 0.86161 0.0
H192 H 0.21487 0.80238 0.92705 0.0
H193 H 0.20343 0.82063 0.89702 0.0
H194 H 0.26159 0.84707 0.93615 0.0
H195 H 0.2503 0.86488 0.90596 0.0
H196 H 0.23983 0.92531 0.83281 0.0
H197 H 0.19959 0.93191 0.78199 0.0
H198 H 0.181 0.90189 0.79279 0.0
H199 H 0.22085 0.89544 0.84367 0.0
C200 C 0.14332 0.19834 0.81938 0.0
C201 C 0.13797 0.21623 0.82892 0.0
C202 C 0.10908 0.21966 0.8064 0.0
C203 C 0.12097 0.2268 0.82249 0.0
C204 C 0.11448 0.20158 0.7971 0.0
C205 C 0.13143 0.19107 0.80353 0.0
U206 U 0.18882 0.18931 0.85397 0.0
O207 O 0.20072 0.16086 0.86573 0.0
O208 O 0.21941 0.17991 0.84618 0.0
C209 C 0.21762 0.16266 0.85571 0.0
C210 C 0.16126 0.18708 0.82557 0.0
C211 C 0.22379 0.14481 0.84443 0.0
C212 C 0.21994 0.12168 0.81644 0.0
C213 C 0.21378 0.13882 0.82678 0.0
C214 C 0.24614 0.11645 0.84129 0.0
C215 C 0.23616 0.11022 0.82363 0.0
C216 C 0.24 0.13355 0.85155 0.0
C217 C 0.19909 0.22462 0.89851 0.0
C218 C 0.22711 0.22093 0.92187 0.0
C219 C 0.20291 0.24733 0.92676 0.0
C220 C 0.19242 0.24103 0.90961 0.0
C221 C 0.22032 0.23731 0.93321 0.0
C222 C 0.21654 0.21461 0.90468 0.0
C223 C 0.18746 0.21813 0.88076 0.0
O224 O 0.17857 0.19648 0.82327 0.0
O225 O 0.15989 0.17738 0.84277 0.0
O226 O 0.17766 0.20101 0.88266 0.0
O227 O 0.19654 0.22009 0.86333 0.0
H228 H 0.14701 0.22207 0.84121 0.0
H229 H 0.11736 0.24074 0.82988 0.0
H230 H 0.10551 0.19543 0.78493 0.0
H231 H 0.13527 0.17722 0.79606 0.0
H232 H 0.21181 0.11722 0.80301 0.0
H233 H 0.20118 0.14734 0.82109 0.0
H234 H 0.25888 0.10822 0.84709 0.0
H235 H 0.24796 0.13801 0.86511 0.0
H236 H 0.24035 0.21278 0.9265 0.0
H237 H 0.19743 0.26018 0.9349 0.0
H238 H 0.17903 0.24898 0.90503 0.0
H239 H 0.22189 0.20186 0.89629 0.0
C240 C 0.81672 0.14623 0.84624 0.0
C241 C 0.826 0.14127 0.82804 0.0
C242 C 0.80386 0.11203 0.82454 0.0
C243 C 0.81963 0.1243 0.81728 0.0
C244 C 0.7948 0.11705 0.84291 0.0
C245 C 0.80117 0.13398 0.85361 0.0
U246 U 0.85175 0.19129 0.85554 0.0
O247 O 0.84444 0.22203 0.86471 0.0
O248 O 0.86355 0.2034 0.88403 0.0
C249 C 0.85376 0.22032 0.8821 0.0
C250 C 0.82291 0.16413 0.85767 0.0
C251 C 0.84234 0.22659 0.89985 0.0
C252 C 0.81431 0.22253 0.92294 0.0
C253 C 0.82474 0.21642 0.90579 0.0
C254 C 0.83896 0.24902 0.92827 0.0
C255 C 0.82139 0.23884 0.93447 0.0
C256 C 0.84931 0.24293 0.91115 0.0
C257 C 0.89655 0.20055 0.82026 0.0
C258 C 0.91973 0.22888 0.82316 0.0
C259 C 0.92477 0.20387 0.79741 0.0
C260 C 0.90774 0.19338 0.80408 0.0
C261 C 0.93096 0.22181 0.80679 0.0
C262 C 0.90264 0.21834 0.82983 0.0
C263 C 0.87864 0.18919 0.82682 0.0
O264 O 0.83997 0.16269 0.86759 0.0
O265 O 0.82095 0.18137 0.84823 0.0
O266 O 0.86138 0.19839 0.82467 0.0
O267 O 0.88032 0.17969 0.8441 0.0
H268 H 0.83807 0.15058 0.82213 0.0
H269 H 0.82682 0.12099 0.80312 0.0
H270 H 0.78288 0.10778 0.84915 0.0
H271 H 0.7939 0.13753 0.86769 0.0
H272 H 0.80094 0.21425 0.92738 0.0
H273 H 0.81916 0.20371 0.89723 0.0
H274 H 0.84466 0.26183 0.93658 0.0
H275 H 0.86283 0.251 0.90674 0.0
H276 H 0.92396 0.24272 0.83061 0.0
H277 H 0.93322 0.19777 0.78503 0.0
H278 H 0.90331 0.17961 0.79659 0.0
H279 H 0.89415 0.22409 0.84237 0.0
C280 C 0.84185 0.89948 0.81891 0.0
C281 C 0.82622 0.90671 0.83088 0.0
C282 C 0.82052 0.9341 0.80702 0.0
C283 C 0.81564 0.92387 0.82498 0.0
C284 C 0.83614 0.92662 0.79507 0.0
C285 C 0.84668 0.90951 0.80098 0.0
U286 U 0.85166 0.85428 0.85347 0.0
O287 O 0.86089 0.82364 0.8457 0.0
O288 O 0.8803 0.84239 0.86483 0.0
C289 C 0.8783 0.82543 0.85498 0.0
C290 C 0.85334 0.88161 0.82484 0.0
C291 C 0.89602 0.819 0.84357 0.0
C292 C 0.92178 0.82479 0.81827 0.0
C293 C 0.90461 0.83113 0.82851 0.0
C294 C 0.92174 0.79408 0.83788 0.0
C295 C 0.93065 0.80621 0.82292 0.0
C296 C 0.90464 0.80042 0.84808 0.0
C297 C 0.8167 0.84448 0.89857 0.0
C298 C 0.82005 0.81642 0.92186 0.0
C299 C 0.7937 0.8407 0.92666 0.0
C300 C 0.80026 0.85123 0.90963 0.0
C301 C 0.80347 0.82312 0.933 0.0
C302 C 0.8266 0.82701 0.90477 0.0
C303 C 0.82318 0.85592 0.88069 0.0
O304 O 0.86345 0.88302 0.84182 0.0
O305 O 0.84389 0.86431 0.82282 0.0
O306 O 0.82094 0.84677 0.86334 0.0
O307 O 0.84044 0.86557 0.88233 0.0
H308 H 0.82229 0.89915 0.8448 0.0
H309 H 0.80387 0.92929 0.83466 0.0
H310 H 0.8401 0.93386 0.781 0.0
H311 H 0.85863 0.90408 0.7915 0.0
H312 H 0.92831 0.83461 0.80698 0.0
H313 H 0.89815 0.84555 0.82482 0.0
H314 H 0.9279 0.77955 0.84163 0.0
H315 H 0.89816 0.79081 0.8596 0.0
H316 H 0.8278 0.80286 0.92618 0.0
H317 H 0.78113 0.8465 0.93501 0.0
H318 H 0.79249 0.86474 0.90511 0.0
H319 H 0.83932 0.82156 0.89638 0.0
C320 C 0.19722 0.64636 0.72778 0.0
C321 C 0.21411 0.63982 0.71721 0.0
C322 C 0.21774 0.61154 0.74044 0.0
C323 C 0.22431 0.62256 0.7235 0.0
C324 C 0.20081 0.6183 0.75094 0.0
C325 C 0.19067 0.63552 0.74466 0.0
U326 U 0.18846 0.69166 0.69286 0.0
O327 O 0.16002 0.70384 0.68133 0.0
O328 O 0.17949 0.72238 0.7006 0.0
C329 C 0.1621 0.72074 0.69126 0.0
C330 C 0.18617 0.6644 0.72151 0.0
C331 C 0.14441 0.72717 0.70271 0.0
C332 C 0.11875 0.7213 0.7281 0.0
C333 C 0.13585 0.71498 0.71775 0.0
C334 C 0.11878 0.75212 0.70864 0.0
C335 C 0.10992 0.73993 0.72359 0.0
C336 C 0.13582 0.74578 0.69833 0.0
C337 C 0.22347 0.70149 0.64798 0.0
C338 C 0.21871 0.72854 0.62377 0.0
C339 C 0.24734 0.70664 0.62083 0.0
C340 C 0.24097 0.69599 0.63787 0.0
C341 C 0.2363 0.72306 0.61352 0.0
C342 C 0.21237 0.71786 0.64086 0.0
C343 C 0.21706 0.68988 0.66578 0.0
O344 O 0.19588 0.68155 0.72355 0.0
O345 O 0.17628 0.66303 0.7044 0.0
O346 O 0.19976 0.68029 0.66408 0.0
O347 O 0.21931 0.69892 0.68318 0.0
H348 H 0.21936 0.64801 0.7041 0.0
H349 H 0.23715 0.61769 0.71493 0.0
H350 H 0.1955 0.61042 0.76421 0.0
H351 H 0.1777 0.6404 0.75305 0.0
H352 H 0.11225 0.71144 0.73937 0.0
H353 H 0.1423 0.70053 0.72134 0.0
H354 H 0.11264 0.76668 0.705 0.0
H355 H 0.14228 0.75543 0.68684 0.0
H356 H 0.20996 0.74122 0.61871 0.0
H357 H 0.26076 0.70179 0.61319 0.0
H358 H 0.2497 0.68334 0.6431 0.0
H359 H 0.19882 0.72235 0.64853 0.0
C360 C 0.81546 0.70107 0.64817 0.0
C361 C 0.82755 0.7167 0.64053 0.0
C362 C 0.80337 0.72246 0.61344 0.0
C363 C 0.82156 0.7273 0.62331 0.0
C364 C 0.79126 0.70689 0.62135 0.0
C365 C 0.79728 0.6963 0.63854 0.0
U366 U 0.85077 0.69212 0.69277 0.0
O367 O 0.84405 0.68237 0.7237 0.0
O368 O 0.86318 0.66394 0.70458 0.0
C369 C 0.85363 0.66535 0.72177 0.0
C370 C 0.82167 0.68951 0.66602 0.0
C371 C 0.84255 0.64724 0.72823 0.0
C372 C 0.81462 0.62366 0.72478 0.0
C373 C 0.82493 0.64095 0.71832 0.0
C374 C 0.83949 0.61882 0.75105 0.0
C375 C 0.82176 0.61239 0.74126 0.0
C376 C 0.84975 0.63607 0.74458 0.0
C377 C 0.89507 0.72818 0.70182 0.0
C378 C 0.92058 0.72253 0.72748 0.0
C379 C 0.92128 0.75315 0.70769 0.0
C380 C 0.90408 0.74673 0.69728 0.0
C381 C 0.92983 0.74109 0.72286 0.0
C382 C 0.90333 0.71614 0.71705 0.0
C383 C 0.87718 0.72163 0.69043 0.0
O384 O 0.83878 0.68001 0.66438 0.0
O385 O 0.81974 0.69868 0.68334 0.0
O386 O 0.85997 0.72312 0.69989 0.0
O387 O 0.87894 0.70467 0.68063 0.0
H388 H 0.84167 0.72057 0.6478 0.0
H389 H 0.83136 0.73904 0.61753 0.0
H390 H 0.77703 0.70296 0.61437 0.0
H391 H 0.78772 0.68434 0.64429 0.0
H392 H 0.80092 0.61927 0.71703 0.0
H393 H 0.81914 0.64944 0.70565 0.0
H394 H 0.84561 0.61036 0.76357 0.0
H395 H 0.86339 0.64068 0.75235 0.0
H396 H 0.92686 0.71277 0.73891 0.0
H397 H 0.92778 0.76765 0.70395 0.0
H398 H 0.89783 0.75626 0.68563 0.0
H399 H 0.89654 0.70175 0.72076 0.0
C400 C 0.81547 0.34355 0.64838 0.0
C401 C 0.82742 0.3282 0.64063 0.0
C402 C 0.80297 0.32232 0.61373 0.0
C403 C 0.82121 0.31766 0.62345 0.0
C404 C 0.79096 0.3375 0.62186 0.0
C405 C 0.79717 0.348 0.63898 0.0
U406 U 0.85112 0.35405 0.69272 0.0
O407 O 0.86318 0.38287 0.7037 0.0
O408 O 0.8443 0.36416 0.72339 0.0
C409 C 0.85366 0.38146 0.72093 0.0
C410 C 0.82193 0.35533 0.66599 0.0
C411 C 0.84236 0.39931 0.72696 0.0
C412 C 0.81548 0.42326 0.72172 0.0
C413 C 0.82604 0.40628 0.71556 0.0
C414 C 0.8375 0.42639 0.75069 0.0
C415 C 0.82104 0.43347 0.73943 0.0
C416 C 0.84803 0.40949 0.7445 0.0
C417 C 0.89577 0.31894 0.70219 0.0
C418 C 0.92009 0.32305 0.72937 0.0
C419 C 0.92356 0.29585 0.70564 0.0
C420 C 0.90625 0.30214 0.69555 0.0
C421 C 0.9308 0.30627 0.72261 0.0
C422 C 0.90272 0.32936 0.7192 0.0
C423 C 0.87775 0.32527 0.69103 0.0
O424 O 0.82016 0.34629 0.68352 0.0
O425 O 0.83899 0.36525 0.66401 0.0
O426 O 0.87945 0.34221 0.68095 0.0
O427 O 0.86063 0.32349 0.70068 0.0
H428 H 0.84162 0.32456 0.64773 0.0
H429 H 0.8309 0.30619 0.61752 0.0
H430 H 0.77667 0.34126 0.61501 0.0
H431 H 0.78771 0.35973 0.64483 0.0
H432 H 0.80278 0.42819 0.7128 0.0
H433 H 0.82143 0.39856 0.70196 0.0
H434 H 0.84241 0.43405 0.76421 0.0
H435 H 0.86065 0.40436 0.75345 0.0
H436 H 0.92532 0.33151 0.74227 0.0
H437 H 0.9312 0.28269 0.70023 0.0
H438 H 0.90105 0.29386 0.68251 0.0
H439 H 0.89479 0.3424 0.72452 0.0
C440 C 0.14727 0.31593 0.70213 0.0
C441 C 0.14087 0.32642 0.71915 0.0
C442 C 0.11217 0.30357 0.72267 0.0
C443 C 0.12347 0.32026 0.72938 0.0
C444 C 0.11889 0.29302 0.70573 0.0
C445 C 0.13625 0.29917 0.69558 0.0
U446 U 0.19209 0.35141 0.6931 0.0
O447 O 0.2228 0.34463 0.68325 0.0
O448 O 0.20359 0.36386 0.66463 0.0
C449 C 0.22065 0.35418 0.66605 0.0
C450 C 0.16513 0.32242 0.69077 0.0
C451 C 0.22655 0.34299 0.64805 0.0
C452 C 0.22092 0.3163 0.62377 0.0
C453 C 0.21494 0.3268 0.64091 0.0
C454 C 0.25015 0.33811 0.62081 0.0
C455 C 0.23866 0.32179 0.61356 0.0
C456 C 0.24414 0.34858 0.63788 0.0
C457 C 0.20175 0.39556 0.72882 0.0
C458 C 0.2271 0.4215 0.72302 0.0
C459 C 0.20726 0.42181 0.75347 0.0
C460 C 0.19712 0.40444 0.74723 0.0
C461 C 0.22224 0.4307 0.74137 0.0
C462 C 0.21691 0.40406 0.71679 0.0
C463 C 0.19034 0.37767 0.72236 0.0
O464 O 0.16349 0.33958 0.68113 0.0
O465 O 0.18246 0.32047 0.70011 0.0
O466 O 0.19976 0.36051 0.72402 0.0
O467 O 0.18035 0.3795 0.70535 0.0
H468 H 0.14921 0.33945 0.72439 0.0
H469 H 0.11863 0.32881 0.74225 0.0
H470 H 0.11077 0.27992 0.70036 0.0
H471 H 0.14102 0.29086 0.6825 0.0
H472 H 0.21183 0.30371 0.61871 0.0
H473 H 0.20131 0.32225 0.64863 0.0
H474 H 0.2637 0.34295 0.61316 0.0
H475 H 0.25324 0.36109 0.64314 0.0
H476 H 0.23843 0.42802 0.71327 0.0
H477 H 0.20337 0.42826 0.76784 0.0
H478 H 0.18553 0.398 0.75676 0.0
H479 H 0.22069 0.39736 0.7025 0.0
C480 C 0.14637 0.31642 0.34571 0.0
C481 C 0.13828 0.32863 0.33051 0.0
C482 C 0.11162 0.30392 0.32441 0.0
C483 C 0.12104 0.32244 0.31995 0.0
C484 C 0.12001 0.29169 0.33953 0.0
C485 C 0.1372 0.29791 0.35007 0.0
U486 U 0.19084 0.35213 0.35476 0.0
O487 O 0.20272 0.36456 0.38308 0.0
O488 O 0.2218 0.34568 0.36437 0.0
C489 C 0.2199 0.35517 0.38152 0.0
C490 C 0.16422 0.32283 0.35725 0.0
C491 C 0.2264 0.34408 0.39955 0.0
C492 C 0.22294 0.31613 0.42296 0.0
C493 C 0.21646 0.32645 0.40574 0.0
C494 C 0.2493 0.34101 0.42794 0.0
C495 C 0.23948 0.32327 0.43426 0.0
C496 C 0.24281 0.35128 0.41075 0.0
C497 C 0.19991 0.39645 0.31912 0.0
C498 C 0.22725 0.42043 0.32409 0.0
C499 C 0.20486 0.42392 0.29546 0.0
C500 C 0.19416 0.40684 0.30169 0.0
C501 C 0.22154 0.43095 0.30659 0.0
C502 C 0.21653 0.40331 0.33029 0.0
C503 C 0.1884 0.37856 0.32543 0.0
O504 O 0.18151 0.32108 0.34798 0.0
O505 O 0.16255 0.33989 0.3669 0.0
O506 O 0.17865 0.38021 0.34248 0.0
O507 O 0.19778 0.36142 0.32373 0.0
H508 H 0.14519 0.343 0.32694 0.0
H509 H 0.11489 0.33233 0.30857 0.0
H510 H 0.11338 0.27721 0.34314 0.0
H511 H 0.14332 0.28826 0.3617 0.0
H512 H 0.21516 0.30242 0.42727 0.0
H513 H 0.20375 0.32066 0.39723 0.0
H514 H 0.26186 0.34712 0.43642 0.0
H515 H 0.2506 0.36493 0.40622 0.0
H516 H 0.24014 0.42529 0.33289 0.0
H517 H 0.19987 0.4318 0.28209 0.0
H518 H 0.18132 0.40177 0.29292 0.0
H519 H 0.2212 0.3954 0.34378 0.0
C520 C 0.1431 0.69817 0.31942 0.0
C521 C 0.13779 0.71609 0.32893 0.0
C522 C 0.10888 0.71952 0.30643 0.0
C523 C 0.1208 0.72667 0.3225 0.0
C524 C 0.11424 0.70142 0.29716 0.0
C525 C 0.13117 0.69089 0.30359 0.0
U526 U 0.18853 0.68911 0.35406 0.0
O527 O 0.20044 0.66066 0.3658 0.0
O528 O 0.21915 0.67976 0.34632 0.0
C529 C 0.21736 0.6625 0.35582 0.0
C530 C 0.16103 0.6869 0.3256 0.0
C531 C 0.22358 0.64468 0.34453 0.0
C532 C 0.21978 0.62155 0.31652 0.0
C533 C 0.21358 0.63867 0.32688 0.0
C534 C 0.246 0.61638 0.34136 0.0
C535 C 0.23603 0.61013 0.3237 0.0
C536 C 0.23983 0.63346 0.35164 0.0
C537 C 0.19867 0.72435 0.39868 0.0
C538 C 0.22664 0.72063 0.42208 0.0
C539 C 0.20243 0.74701 0.42698 0.0
C540 C 0.19197 0.74073 0.4098 0.0
C541 C 0.21984 0.73698 0.43343 0.0
C542 C 0.21611 0.71433 0.40486 0.0
C543 C 0.18707 0.71788 0.38089 0.0
O544 O 0.17834 0.69632 0.32335 0.0
O545 O 0.15964 0.67716 0.34278 0.0
O546 O 0.17729 0.70074 0.38275 0.0
O547 O 0.19618 0.71989 0.36349 0.0
H548 H 0.14684 0.72193 0.34121 0.0
H549 H 0.11722 0.74063 0.32987 0.0
H550 H 0.10525 0.69526 0.285 0.0
H551 H 0.13499 0.67702 0.29615 0.0
H552 H 0.21165 0.61708 0.30309 0.0
H553 H 0.20095 0.64716 0.32119 0.0
H554 H 0.25876 0.60817 0.34715 0.0
H555 H 0.24777 0.63792 0.36519 0.0
H556 H 0.23989 0.71247 0.42671 0.0
H557 H 0.19693 0.75984 0.43512 0.0
H558 H 0.17857 0.74868 0.4052 0.0
H559 H 0.22148 0.7016 0.39645 0.0
C560 C 0.81745 0.64538 0.34694 0.0
C561 C 0.8266 0.64059 0.32864 0.0
C562 C 0.80434 0.61144 0.32497 0.0
C563 C 0.82011 0.62375 0.31774 0.0
C564 C 0.79542 0.6163 0.34345 0.0
C565 C 0.8019 0.63311 0.35429 0.0
U566 U 0.85266 0.69026 0.35653 0.0
O567 O 0.84555 0.72093 0.36602 0.0
O568 O 0.86457 0.70201 0.38515 0.0
C569 C 0.85488 0.719 0.38339 0.0
C570 C 0.82378 0.66313 0.35855 0.0
C571 C 0.84348 0.72521 0.40119 0.0
C572 C 0.81435 0.72255 0.42305 0.0
C573 C 0.82505 0.7161 0.4062 0.0
C574 C 0.84053 0.7471 0.43009 0.0
C575 C 0.82191 0.73823 0.43514 0.0
C576 C 0.85117 0.74066 0.41328 0.0
C577 C 0.8971 0.69997 0.3209 0.0
C578 C 0.92005 0.72852 0.32363 0.0
C579 C 0.9251 0.70357 0.29782 0.0
C580 C 0.90822 0.69292 0.30463 0.0
C581 C 0.9312 0.72156 0.30716 0.0
C582 C 0.90311 0.71781 0.33043 0.0
C583 C 0.87929 0.6885 0.32754 0.0
O584 O 0.84092 0.66154 0.36831 0.0
O585 O 0.82178 0.68049 0.34933 0.0
O586 O 0.862 0.69767 0.32565 0.0
O587 O 0.88116 0.67884 0.34472 0.0
H588 H 0.83865 0.64993 0.32274 0.0
H589 H 0.8272 0.62056 0.3035 0.0
H590 H 0.78352 0.607 0.34968 0.0
H591 H 0.79475 0.63653 0.36846 0.0
H592 H 0.8 0.7155 0.42639 0.0
H593 H 0.81889 0.70412 0.39701 0.0
H594 H 0.84701 0.75894 0.43923 0.0
H595 H 0.86543 0.74779 0.40969 0.0
H596 H 0.92422 0.74238 0.33106 0.0
H597 H 0.9335 0.69756 0.28536 0.0
H598 H 0.90385 0.67912 0.29715 0.0
H599 H 0.89467 0.72348 0.34304 0.0
C600 C 0.84192 0.3992 0.31768 0.0
C601 C 0.82633 0.4064 0.32972 0.0
C602 C 0.8205 0.43379 0.30591 0.0
C603 C 0.81571 0.42354 0.32389 0.0
C604 C 0.83606 0.42633 0.29388 0.0
C605 C 0.84665 0.40923 0.29973 0.0
U606 U 0.85189 0.35422 0.3524 0.0
O607 O 0.86123 0.32357 0.34486 0.0
O608 O 0.88053 0.3425 0.36391 0.0
C609 C 0.87861 0.32547 0.35417 0.0
C610 C 0.8535 0.38138 0.32361 0.0
C611 C 0.89638 0.31903 0.34285 0.0
C612 C 0.92223 0.32482 0.31764 0.0
C613 C 0.90501 0.33115 0.3278 0.0
C614 C 0.92216 0.29414 0.33732 0.0
C615 C 0.93111 0.30626 0.32237 0.0
C616 C 0.90501 0.30048 0.34744 0.0
C617 C 0.81693 0.34476 0.39757 0.0
C618 C 0.82123 0.31783 0.42202 0.0
C619 C 0.7935 0.34081 0.42526 0.0
C620 C 0.79985 0.35099 0.40795 0.0
C621 C 0.80414 0.32414 0.4326 0.0
C622 C 0.82759 0.32807 0.40466 0.0
C623 C 0.82337 0.35601 0.37956 0.0
O624 O 0.86364 0.38289 0.34056 0.0
O625 O 0.84409 0.36405 0.32169 0.0
O626 O 0.82118 0.34666 0.36232 0.0
O627 O 0.84059 0.36575 0.38112 0.0
H628 H 0.82248 0.39883 0.34366 0.0
H629 H 0.80397 0.42895 0.33363 0.0
H630 H 0.83996 0.4336 0.2798 0.0
H631 H 0.85858 0.40384 0.2902 0.0
H632 H 0.9288 0.33463 0.30636 0.0
H633 H 0.89855 0.34555 0.32405 0.0
H634 H 0.92833 0.27963 0.34113 0.0
H635 H 0.89849 0.29088 0.35894 0.0
H636 H 0.82989 0.30519 0.42733 0.0
H637 H 0.7801 0.3459 0.43279 0.0
H638 H 0.79139 0.36379 0.40265 0.0
H639 H 0.84086 0.32307 0.39683 0.0
C640 C 0.69769 0.14662 0.72709 0.0
C641 C 0.71461 0.14 0.7166 0.0
C642 C 0.71819 0.11187 0.74002 0.0
C643 C 0.72479 0.12279 0.72303 0.0
C644 C 0.70125 0.11871 0.75046 0.0
C645 C 0.69113 0.13589 0.74404 0.0
U646 U 0.68864 0.19175 0.6919 0.0
O647 O 0.66004 0.20362 0.68041 0.0
O648 O 0.67943 0.2224 0.69952 0.0
C649 C 0.66201 0.22058 0.69027 0.0
C650 C 0.68659 0.16457 0.72066 0.0
C651 C 0.64433 0.22684 0.70182 0.0
C652 C 0.61984 0.22142 0.72842 0.0
C653 C 0.63676 0.21515 0.71774 0.0
C654 C 0.61801 0.25115 0.70742 0.0
C655 C 0.61026 0.23954 0.72341 0.0
C656 C 0.63486 0.24485 0.69676 0.0
C657 C 0.72366 0.2017 0.64697 0.0
C658 C 0.71825 0.22781 0.62186 0.0
C659 C 0.74808 0.2074 0.62043 0.0
C660 C 0.74177 0.19691 0.63759 0.0
C661 C 0.73637 0.22293 0.61225 0.0
C662 C 0.71194 0.21728 0.63907 0.0
C663 C 0.71726 0.19014 0.66482 0.0
O664 O 0.69619 0.18179 0.72262 0.0
O665 O 0.67673 0.16305 0.70355 0.0
O666 O 0.70005 0.18041 0.66315 0.0
O667 O 0.71944 0.19926 0.68219 0.0
H668 H 0.71986 0.1481 0.70344 0.0
H669 H 0.73764 0.11786 0.71451 0.0
H670 H 0.69593 0.11092 0.76377 0.0
H671 H 0.67814 0.14082 0.75237 0.0
H672 H 0.61442 0.21221 0.74076 0.0
H673 H 0.64393 0.2012 0.7219 0.0
H674 H 0.61087 0.265 0.70292 0.0
H675 H 0.64046 0.25404 0.68448 0.0
H676 H 0.70875 0.23953 0.6159 0.0
H677 H 0.76227 0.20344 0.61368 0.0
H678 H 0.75106 0.18499 0.64353 0.0
H679 H 0.69788 0.22119 0.64613 0.0
C680 C 0.31664 0.19955 0.64826 0.0
C681 C 0.32802 0.21609 0.64152 0.0
C682 C 0.30442 0.22129 0.61382 0.0
C683 C 0.32198 0.22685 0.62443 0.0
C684 C 0.29309 0.2047 0.62073 0.0
C685 C 0.29916 0.19395 0.63779 0.0
U686 U 0.352 0.19068 0.69275 0.0
O687 O 0.34528 0.18137 0.72381 0.0
O688 O 0.36416 0.1625 0.70487 0.0
C689 C 0.35463 0.1642 0.72203 0.0
C690 C 0.3228 0.18802 0.66612 0.0
C691 C 0.34324 0.14632 0.72859 0.0
C692 C 0.31502 0.1231 0.72506 0.0
C693 C 0.32561 0.1402 0.71858 0.0
C694 C 0.3396 0.1181 0.75158 0.0
C695 C 0.32188 0.11184 0.74167 0.0
C696 C 0.35015 0.13517 0.74509 0.0
C697 C 0.39655 0.22646 0.70139 0.0
C698 C 0.42087 0.2217 0.72835 0.0
C699 C 0.42368 0.25064 0.7063 0.0
C700 C 0.4066 0.24417 0.69574 0.0
C701 C 0.43105 0.2395 0.72275 0.0
C702 C 0.40374 0.21525 0.71777 0.0
C703 C 0.37865 0.21993 0.69002 0.0
O704 O 0.33985 0.17841 0.66448 0.0
O705 O 0.321 0.19731 0.68339 0.0
O706 O 0.36144 0.22169 0.69944 0.0
O707 O 0.38028 0.20282 0.68046 0.0
H708 H 0.34155 0.22066 0.64949 0.0
H709 H 0.33092 0.23968 0.61966 0.0
H710 H 0.27967 0.19982 0.61279 0.0
H711 H 0.29023 0.18118 0.64276 0.0
H712 H 0.30133 0.11884 0.71722 0.0
H713 H 0.32005 0.14868 0.7058 0.0
H714 H 0.3455 0.10964 0.7642 0.0
H715 H 0.36378 0.13965 0.75294 0.0
H716 H 0.426 0.21288 0.74107 0.0
H717 H 0.43129 0.26424 0.70139 0.0
H718 H 0.40128 0.25297 0.68308 0.0
H719 H 0.3961 0.20155 0.72237 0.0
C720 C 0.31928 0.8463 0.64463 0.0
C721 C 0.33044 0.82989 0.63796 0.0
C722 C 0.30615 0.82392 0.61093 0.0
C723 C 0.32396 0.81882 0.62122 0.0
C724 C 0.29515 0.84049 0.61768 0.0
C725 C 0.30166 0.85153 0.63435 0.0
U726 U 0.3544 0.85663 0.68946 0.0
O727 O 0.36575 0.88542 0.70126 0.0
O728 O 0.34696 0.8659 0.72024 0.0
C729 C 0.35603 0.88342 0.71832 0.0
C730 C 0.32556 0.85802 0.66233 0.0
C731 C 0.34431 0.90088 0.72467 0.0
C732 C 0.31692 0.92434 0.71982 0.0
C733 C 0.32792 0.90778 0.71331 0.0
C734 C 0.33863 0.92722 0.74905 0.0
C735 C 0.3221 0.93422 0.73784 0.0
C736 C 0.3496 0.91073 0.74252 0.0
C737 C 0.39913 0.82162 0.6992 0.0
C738 C 0.42167 0.82403 0.72805 0.0
C739 C 0.42702 0.79865 0.70274 0.0
C740 C 0.41034 0.80554 0.692 0.0
C741 C 0.43285 0.80769 0.72099 0.0
C742 C 0.40492 0.83092 0.71725 0.0
C743 C 0.38137 0.82816 0.68773 0.0
O744 O 0.32363 0.84885 0.67977 0.0
O745 O 0.34262 0.86801 0.66063 0.0
O746 O 0.38318 0.84536 0.67812 0.0
O747 O 0.36401 0.82599 0.69688 0.0
H748 H 0.34408 0.82561 0.64577 0.0
H749 H 0.33269 0.80606 0.61654 0.0
H750 H 0.28158 0.84506 0.60995 0.0
H751 H 0.29289 0.86419 0.63925 0.0
H752 H 0.30419 0.92921 0.71092 0.0
H753 H 0.32359 0.9003 0.69949 0.0
H754 H 0.34326 0.93463 0.7628 0.0
H755 H 0.36225 0.90566 0.75144 0.0
H756 H 0.42564 0.83124 0.7421 0.0
H757 H 0.43546 0.7863 0.69665 0.0
H758 H 0.40614 0.79824 0.67804 0.0
H759 H 0.3964 0.84337 0.72304 0.0
C760 C 0.64551 0.81708 0.7016 0.0
C761 C 0.63998 0.82653 0.71953 0.0
C762 C 0.61064 0.8044 0.7224 0.0
C763 C 0.62268 0.82026 0.72985 0.0
C764 C 0.61623 0.79517 0.7043 0.0
C765 C 0.63349 0.80145 0.69404 0.0
U766 U 0.69136 0.8515 0.69334 0.0
O767 O 0.72211 0.84373 0.68438 0.0
O768 O 0.70396 0.86336 0.66511 0.0
C769 C 0.72071 0.85324 0.66708 0.0
C770 C 0.66372 0.82317 0.69059 0.0
C771 C 0.72692 0.84188 0.64928 0.0
C772 C 0.72068 0.81651 0.62374 0.0
C773 C 0.71463 0.82674 0.64103 0.0
C774 C 0.75144 0.83629 0.62303 0.0
C775 C 0.7391 0.82129 0.61442 0.0
C776 C 0.74538 0.84647 0.64025 0.0
C777 C 0.70118 0.8959 0.72877 0.0
C778 C 0.72671 0.92168 0.72298 0.0
C779 C 0.70681 0.92217 0.75339 0.0
C780 C 0.69658 0.90485 0.74716 0.0
C781 C 0.72186 0.93096 0.74129 0.0
C782 C 0.71643 0.9043 0.71676 0.0
C783 C 0.68954 0.87817 0.72224 0.0
O784 O 0.66268 0.84033 0.68084 0.0
O785 O 0.6808 0.82087 0.70031 0.0
O786 O 0.69851 0.86081 0.72434 0.0
O787 O 0.68002 0.88002 0.70497 0.0
H788 H 0.64912 0.83866 0.72558 0.0
H789 H 0.61892 0.82758 0.74381 0.0
H790 H 0.60716 0.78318 0.69792 0.0
H791 H 0.63747 0.79406 0.68016 0.0
H792 H 0.71074 0.80518 0.61744 0.0
H793 H 0.7003 0.82299 0.64784 0.0
H794 H 0.76586 0.84012 0.61649 0.0
H795 H 0.75511 0.85804 0.64649 0.0
H796 H 0.73809 0.92812 0.71323 0.0
H797 H 0.70294 0.92868 0.76773 0.0
H798 H 0.68492 0.89851 0.75667 0.0
H799 H 0.72018 0.89756 0.70248 0.0
C800 C 0.64605 0.81682 0.34501 0.0
C801 C 0.63783 0.82899 0.32985 0.0
C802 C 0.61117 0.80422 0.32398 0.0
C803 C 0.62053 0.82275 0.31943 0.0
C804 C 0.61969 0.79204 0.33907 0.0
C805 C 0.63694 0.7983 0.34948 0.0
U806 U 0.69056 0.85258 0.35371 0.0
O807 O 0.7026 0.86509 0.38191 0.0
O808 O 0.72157 0.8461 0.36318 0.0
C809 C 0.71976 0.85566 0.3803 0.0
C810 C 0.66398 0.82326 0.35641 0.0
C811 C 0.72631 0.84463 0.39834 0.0
C812 C 0.72187 0.81777 0.42285 0.0
C813 C 0.71547 0.82791 0.40549 0.0
C814 C 0.75 0.84096 0.42598 0.0
C815 C 0.73919 0.82424 0.43336 0.0
C816 C 0.7436 0.85105 0.40865 0.0
C817 C 0.69948 0.89693 0.31815 0.0
C818 C 0.72678 0.92092 0.3233 0.0
C819 C 0.70446 0.92449 0.29462 0.0
C820 C 0.69376 0.90737 0.30075 0.0
C821 C 0.7211 0.93151 0.30582 0.0
C822 C 0.71606 0.90376 0.3294 0.0
C823 C 0.68796 0.87902 0.32441 0.0
O824 O 0.68119 0.82152 0.34701 0.0
O825 O 0.66236 0.84034 0.36605 0.0
O826 O 0.67825 0.88063 0.34148 0.0
O827 O 0.69734 0.86188 0.32265 0.0
H828 H 0.64471 0.84335 0.3262 0.0
H829 H 0.61429 0.83261 0.30807 0.0
H830 H 0.6131 0.77756 0.34275 0.0
H831 H 0.64316 0.78868 0.36108 0.0
H832 H 0.71307 0.80509 0.42823 0.0
H833 H 0.70203 0.82278 0.39771 0.0
H834 H 0.76356 0.84616 0.43349 0.0
H835 H 0.75218 0.86389 0.40329 0.0
H836 H 0.73964 0.92576 0.33214 0.0
H837 H 0.69949 0.93242 0.28126 0.0
H838 H 0.68095 0.90232 0.29193 0.0
H839 H 0.72071 0.89581 0.34287 0.0
C840 C 0.64484 0.19924 0.31862 0.0
C841 C 0.63857 0.21622 0.32919 0.0
C842 C 0.61011 0.22006 0.3062 0.0
C843 C 0.62135 0.22657 0.32301 0.0
C844 C 0.61665 0.20311 0.29563 0.0
C845 C 0.63382 0.19282 0.3018 0.0
U846 U 0.68962 0.18972 0.35391 0.0
O847 O 0.70131 0.16115 0.36554 0.0
O848 O 0.72037 0.18044 0.3466 0.0
C849 C 0.71839 0.16306 0.35585 0.0
C850 C 0.66269 0.18791 0.32489 0.0
C851 C 0.72465 0.14536 0.3444 0.0
C852 C 0.72067 0.12232 0.31636 0.0
C853 C 0.71456 0.13943 0.32678 0.0
C854 C 0.747 0.11703 0.34106 0.0
C855 C 0.73691 0.11083 0.32346 0.0
C856 C 0.74091 0.13411 0.3514 0.0
C857 C 0.69904 0.22437 0.39908 0.0
C858 C 0.72799 0.2219 0.42143 0.0
C859 C 0.70212 0.24625 0.42805 0.0
C860 C 0.6915 0.23974 0.41106 0.0
C861 C 0.72058 0.23752 0.43341 0.0
C862 C 0.71731 0.21538 0.40439 0.0
C863 C 0.68765 0.2181 0.3811 0.0
O864 O 0.68001 0.19741 0.32312 0.0
O865 O 0.66101 0.17788 0.34188 0.0
O866 O 0.67789 0.20092 0.3826 0.0
O867 O 0.69697 0.22037 0.36384 0.0
H868 H 0.64691 0.22136 0.34225 0.0
H869 H 0.61666 0.23945 0.33159 0.0
H870 H 0.60858 0.19786 0.28245 0.0
H871 H 0.6385 0.17979 0.29341 0.0
H872 H 0.71246 0.11788 0.30296 0.0
H873 H 0.70191 0.14794 0.32118 0.0
H874 H 0.75975 0.10877 0.34678 0.0
H875 H 0.74892 0.13851 0.36494 0.0
H876 H 0.74221 0.21495 0.42501 0.0
H877 H 0.69576 0.25804 0.43709 0.0
H878 H 0.67736 0.24677 0.40725 0.0
H879 H 0.72334 0.20345 0.39529 0.0
C880 C 0.31519 0.14691 0.34571 0.0
C881 C 0.32448 0.14192 0.32753 0.0
C882 C 0.30276 0.11233 0.3244 0.0
C883 C 0.31832 0.12476 0.31695 0.0
C884 C 0.29369 0.1174 0.34274 0.0
C885 C 0.29984 0.13452 0.35326 0.0
U886 U 0.34976 0.19239 0.35419 0.0
O887 O 0.34241 0.22303 0.36362 0.0
O888 O 0.36219 0.20454 0.3824 0.0
C889 C 0.35218 0.22136 0.38077 0.0
C890 C 0.32129 0.16491 0.35701 0.0
C891 C 0.34109 0.22738 0.39881 0.0
C892 C 0.31346 0.223 0.42231 0.0
C893 C 0.32361 0.21711 0.40492 0.0
C894 C 0.33816 0.24947 0.42755 0.0
C895 C 0.3207 0.23919 0.4339 0.0
C896 C 0.34824 0.2436 0.41018 0.0
C897 C 0.39378 0.20199 0.31814 0.0
C898 C 0.41834 0.22897 0.32239 0.0
C899 C 0.42136 0.20581 0.29462 0.0
C900 C 0.40401 0.19569 0.30098 0.0
C901 C 0.42887 0.22246 0.30533 0.0
C902 C 0.40094 0.21877 0.32877 0.0
C903 C 0.376 0.19055 0.32487 0.0
O904 O 0.33856 0.16373 0.36659 0.0
O905 O 0.31891 0.18211 0.34757 0.0
O906 O 0.35869 0.19973 0.32314 0.0
O907 O 0.37805 0.18091 0.34204 0.0
H908 H 0.33641 0.15134 0.32149 0.0
H909 H 0.32552 0.12142 0.3028 0.0
H910 H 0.28193 0.10801 0.34912 0.0
H911 H 0.29259 0.13809 0.36734 0.0
H912 H 0.30018 0.21465 0.42687 0.0
H913 H 0.31791 0.20449 0.39631 0.0
H914 H 0.34397 0.26219 0.43591 0.0
H915 H 0.36167 0.25175 0.40564 0.0
H916 H 0.4238 0.24163 0.33107 0.0
H917 H 0.42888 0.2006 0.28124 0.0
H918 H 0.39864 0.18281 0.29256 0.0
H919 H 0.39322 0.22382 0.3421 0.0
C920 C 0.34186 0.89935 0.31907 0.0
C921 C 0.3262 0.90652 0.33102 0.0
C922 C 0.32053 0.93398 0.30724 0.0
C923 C 0.31561 0.92369 0.32516 0.0
C924 C 0.33619 0.92656 0.29531 0.0
C925 C 0.34673 0.90944 0.30118 0.0
U926 U 0.3516 0.85403 0.3535 0.0
O927 O 0.36085 0.82343 0.34564 0.0
O928 O 0.38021 0.84211 0.36489 0.0
C929 C 0.37824 0.82519 0.35497 0.0
C930 C 0.35334 0.88146 0.32497 0.0
C931 C 0.39599 0.81881 0.34358 0.0
C932 C 0.42172 0.82466 0.31826 0.0
C933 C 0.40454 0.83095 0.32851 0.0
C934 C 0.42179 0.79397 0.3379 0.0
C935 C 0.43065 0.80612 0.32292 0.0
C936 C 0.40467 0.80027 0.34811 0.0
C937 C 0.31653 0.84404 0.39846 0.0
C938 C 0.31987 0.8159 0.42164 0.0
C939 C 0.29352 0.84015 0.42652 0.0
C940 C 0.30008 0.85075 0.40953 0.0
C941 C 0.30328 0.82255 0.43281 0.0
C942 C 0.32643 0.82655 0.4046 0.0
C943 C 0.32304 0.85557 0.38064 0.0
O944 O 0.36341 0.88282 0.34198 0.0
O945 O 0.34391 0.86416 0.32286 0.0
O946 O 0.32085 0.84648 0.36325 0.0
O947 O 0.34029 0.86521 0.38237 0.0
H948 H 0.32223 0.89891 0.34491 0.0
H949 H 0.3038 0.92906 0.33482 0.0
H950 H 0.34018 0.93385 0.28127 0.0
H951 H 0.35872 0.90406 0.29172 0.0
H952 H 0.42821 0.83449 0.30696 0.0
H953 H 0.39802 0.84534 0.32481 0.0
H954 H 0.428 0.77946 0.34167 0.0
H955 H 0.39823 0.79064 0.35964 0.0
H956 H 0.32762 0.80232 0.42592 0.0
H957 H 0.28094 0.84593 0.43489 0.0
H958 H 0.29232 0.86428 0.40506 0.0
H959 H 0.33916 0.82113 0.3962 0.0
C960 C 0.69747 0.64687 0.22801 0.0
C961 C 0.71433 0.64026 0.21743 0.0
C962 C 0.71802 0.6121 0.24077 0.0
C963 C 0.72454 0.62303 0.22376 0.0
C964 C 0.70115 0.61893 0.25132 0.0
C965 C 0.691 0.63612 0.24499 0.0
U966 U 0.68856 0.69195 0.19285 0.0
O967 O 0.66008 0.70398 0.18128 0.0
O968 O 0.67952 0.72268 0.20044 0.0
C969 C 0.66212 0.72094 0.19113 0.0
C970 C 0.68638 0.66484 0.22166 0.0
C971 C 0.64442 0.72735 0.20257 0.0
C972 C 0.6188 0.72147 0.22799 0.0
C973 C 0.6359 0.71517 0.21763 0.0
C974 C 0.61874 0.75225 0.20847 0.0
C975 C 0.60991 0.74007 0.22344 0.0
C976 C 0.63579 0.74594 0.19815 0.0
C977 C 0.7235 0.70162 0.1479 0.0
C978 C 0.71866 0.72858 0.1236 0.0
C979 C 0.74735 0.70674 0.12073 0.0
C980 C 0.74101 0.69613 0.1378 0.0
C981 C 0.73627 0.72311 0.11338 0.0
C982 C 0.71235 0.71794 0.14073 0.0
C983 C 0.71714 0.69008 0.16576 0.0
O984 O 0.69604 0.68203 0.2236 0.0
O985 O 0.67646 0.66335 0.20458 0.0
O986 O 0.69987 0.68044 0.16413 0.0
O987 O 0.71939 0.69922 0.18311 0.0
H988 H 0.71952 0.64838 0.20424 0.0
H989 H 0.73734 0.61811 0.21517 0.0
H990 H 0.69589 0.61111 0.26464 0.0
H991 H 0.67805 0.64104 0.25339 0.0
H992 H 0.61232 0.71162 0.23927 0.0
H993 H 0.64238 0.70075 0.22125 0.0
H994 H 0.61256 0.76679 0.2048 0.0
H995 H 0.64222 0.75558 0.18664 0.0
H996 H 0.70988 0.74122 0.1185 0.0
H997 H 0.76078 0.7019 0.1131 0.0
H998 H 0.74977 0.68353 0.14308 0.0
H999 H 0.69879 0.72243 0.14838 0.0
C1000 C 0.31582 0.69998 0.14849 0.0
C1001 C 0.32722 0.7165 0.14174 0.0
C1002 C 0.30374 0.72157 0.11391 0.0
C1003 C 0.32124 0.7272 0.12458 0.0
C1004 C 0.29239 0.705 0.12083 0.0
C1005 C 0.2984 0.69432 0.13796 0.0
U1006 U 0.35098 0.6914 0.19318 0.0
O1007 O 0.34422 0.68192 0.22418 0.0
O1008 O 0.36342 0.66334 0.20528 0.0
C1009 C 0.35378 0.66488 0.22241 0.0
C1010 C 0.32196 0.68848 0.16638 0.0
C1011 C 0.34258 0.64685 0.22887 0.0
C1012 C 0.31456 0.62341 0.22528 0.0
C1013 C 0.32499 0.64063 0.21886 0.0
C1014 C 0.33922 0.61849 0.25173 0.0
C1015 C 0.32154 0.61213 0.24183 0.0
C1016 C 0.34962 0.63569 0.2453 0.0
C1017 C 0.39515 0.72764 0.20201 0.0
C1018 C 0.4207 0.72218 0.22767 0.0
C1019 C 0.42122 0.75276 0.2078 0.0
C1020 C 0.40406 0.74622 0.19742 0.0
C1021 C 0.42985 0.74078 0.22299 0.0
C1022 C 0.40348 0.71567 0.21727 0.0
C1023 C 0.37731 0.72095 0.19063 0.0
O1024 O 0.33911 0.67903 0.16485 0.0
O1025 O 0.31995 0.69773 0.18365 0.0
O1026 O 0.36007 0.72249 0.20004 0.0
O1027 O 0.37913 0.70391 0.18099 0.0
H1028 H 0.34071 0.72111 0.14975 0.0
H1029 H 0.3302 0.74001 0.11981 0.0
H1030 H 0.27901 0.70008 0.11285 0.0
H1031 H 0.28946 0.68156 0.14293 0.0
H1032 H 0.30089 0.61907 0.21744 0.0
H1033 H 0.31934 0.64911 0.20613 0.0
H1034 H 0.34522 0.61003 0.26431 0.0
H1035 H 0.36322 0.64024 0.25315 0.0
H1036 H 0.42704 0.71248 0.23911 0.0
H1037 H 0.42765 0.76728 0.20403 0.0
H1038 H 0.39775 0.75569 0.18575 0.0
H1039 H 0.39677 0.70126 0.22101 0.0
C1040 C 0.31959 0.34641 0.14459 0.0
C1041 C 0.33078 0.33002 0.13793 0.0
C1042 C 0.30653 0.32405 0.11085 0.0
C1043 C 0.32433 0.31895 0.12116 0.0
C1044 C 0.29551 0.34059 0.11761 0.0
C1045 C 0.30198 0.35163 0.1343 0.0
U1046 U 0.35464 0.35671 0.18949 0.0
O1047 O 0.36598 0.3855 0.20131 0.0
O1048 O 0.34715 0.36599 0.22026 0.0
C1049 C 0.35623 0.3835 0.21836 0.0
C1050 C 0.32585 0.35813 0.16231 0.0
C1051 C 0.34452 0.40097 0.2247 0.0
C1052 C 0.31712 0.42442 0.21985 0.0
C1053 C 0.32811 0.40785 0.21335 0.0
C1054 C 0.33886 0.42733 0.24905 0.0
C1055 C 0.32231 0.43431 0.23786 0.0
C1056 C 0.34982 0.41084 0.24253 0.0
C1057 C 0.39933 0.32167 0.1993 0.0
C1058 C 0.42182 0.32402 0.2282 0.0
C1059 C 0.4272 0.29868 0.20286 0.0
C1060 C 0.41054 0.3056 0.1921 0.0
C1061 C 0.433 0.30769 0.22113 0.0
C1062 C 0.40509 0.33094 0.21738 0.0
C1063 C 0.38159 0.32823 0.1878 0.0
O1064 O 0.32388 0.34895 0.17974 0.0
O1065 O 0.34291 0.3681 0.16064 0.0
O1066 O 0.38343 0.34543 0.17821 0.0
O1067 O 0.36422 0.32607 0.19693 0.0
H1068 H 0.34442 0.32574 0.14575 0.0
H1069 H 0.33308 0.30621 0.11648 0.0
H1070 H 0.28194 0.34517 0.10986 0.0
H1071 H 0.29319 0.36428 0.13919 0.0
H1072 H 0.30437 0.42928 0.21096 0.0
H1073 H 0.32377 0.40036 0.19954 0.0
H1074 H 0.3435 0.43476 0.26279 0.0
H1075 H 0.36249 0.40578 0.25144 0.0
H1076 H 0.42576 0.33121 0.24227 0.0
H1077 H 0.43564 0.28634 0.19676 0.0
H1078 H 0.40637 0.29832 0.17812 0.0
H1079 H 0.39657 0.34339 0.22317 0.0
C1080 C 0.64456 0.31784 0.20067 0.0
C1081 C 0.63919 0.32729 0.21865 0.0
C1082 C 0.61026 0.30471 0.22212 0.0
C1083 C 0.62216 0.32079 0.22929 0.0
C1084 C 0.61571 0.29546 0.20399 0.0
C1085 C 0.6327 0.30196 0.19341 0.0
U1086 U 0.68982 0.35286 0.19167 0.0
O1087 O 0.72047 0.34563 0.18202 0.0
O1088 O 0.70162 0.36502 0.16319 0.0
C1089 C 0.71856 0.35516 0.16477 0.0
C1090 C 0.66243 0.32425 0.18927 0.0
C1091 C 0.72457 0.34387 0.14686 0.0
C1092 C 0.71921 0.31695 0.12278 0.0
C1093 C 0.71304 0.3276 0.13976 0.0
C1094 C 0.74843 0.33877 0.1199 0.0
C1095 C 0.73706 0.32235 0.1127 0.0
C1096 C 0.74223 0.34939 0.1368 0.0
C1097 C 0.70009 0.3968 0.22756 0.0
C1098 C 0.72573 0.4225 0.22192 0.0
C1099 C 0.70603 0.42274 0.25246 0.0
C1100 C 0.69565 0.40555 0.24608 0.0
C1101 C 0.72106 0.43158 0.24038 0.0
C1102 C 0.71531 0.40525 0.21555 0.0
C1103 C 0.68842 0.37912 0.22096 0.0
O1104 O 0.66097 0.3415 0.17975 0.0
O1105 O 0.67977 0.32203 0.19853 0.0
O1106 O 0.69752 0.36179 0.22264 0.0
O1107 O 0.67855 0.38116 0.20391 0.0
H1108 H 0.64821 0.33961 0.22447 0.0
H1109 H 0.61851 0.32814 0.24327 0.0
H1110 H 0.60673 0.28329 0.19783 0.0
H1111 H 0.63656 0.29456 0.17949 0.0
H1112 H 0.7102 0.30429 0.11775 0.0
H1113 H 0.69935 0.3231 0.14739 0.0
H1114 H 0.76206 0.34356 0.11234 0.0
H1115 H 0.75128 0.36196 0.14205 0.0
H1116 H 0.7371 0.42899 0.21218 0.0
H1117 H 0.70228 0.42909 0.26691 0.0
H1118 H 0.68403 0.39916 0.2556 0.0
H1119 H 0.71895 0.39865 0.20118 0.0
C1120 C 0.64536 0.31782 0.84632 0.0
C1121 C 0.63834 0.3293 0.83005 0.0
C1122 C 0.61088 0.30534 0.8246 0.0
C1123 C 0.62122 0.32313 0.81929 0.0
C1124 C 0.61807 0.29392 0.84093 0.0
C1125 C 0.63515 0.30012 0.85167 0.0
U1126 U 0.69003 0.35325 0.85532 0.0
O1127 O 0.7022 0.36542 0.88364 0.0
O1128 O 0.72102 0.34657 0.86463 0.0
C1129 C 0.71931 0.35594 0.88188 0.0
C1130 C 0.66326 0.32409 0.85786 0.0
C1131 C 0.72587 0.34466 0.89976 0.0
C1132 C 0.72249 0.31645 0.92286 0.0
C1133 C 0.71594 0.32697 0.90579 0.0
C1134 C 0.74889 0.34124 0.928 0.0
C1135 C 0.73908 0.32345 0.93417 0.0
C1136 C 0.74234 0.35172 0.91097 0.0
C1137 C 0.6991 0.39766 0.81977 0.0
C1138 C 0.72652 0.42158 0.82469 0.0
C1139 C 0.70416 0.42504 0.79603 0.0
C1140 C 0.6934 0.40801 0.8023 0.0
C1141 C 0.72085 0.43206 0.80714 0.0
C1142 C 0.71574 0.4045 0.83094 0.0
C1143 C 0.68754 0.37982 0.82612 0.0
O1144 O 0.6805 0.32228 0.84852 0.0
O1145 O 0.6617 0.34114 0.86755 0.0
O1146 O 0.67795 0.38147 0.84326 0.0
O1147 O 0.6968 0.36262 0.82428 0.0
H1148 H 0.64611 0.343 0.82568 0.0
H1149 H 0.61623 0.33217 0.80668 0.0
H1150 H 0.61034 0.28031 0.84561 0.0
H1151 H 0.64034 0.2911 0.86424 0.0
H1152 H 0.71471 0.3027 0.92704 0.0
H1153 H 0.70319 0.32129 0.89726 0.0
H1154 H 0.76149 0.34725 0.93651 0.0
H1155 H 0.75012 0.36541 0.90656 0.0
H1156 H 0.73942 0.42643 0.83347 0.0
H1157 H 0.6992 0.43289 0.78262 0.0
H1158 H 0.68055 0.40295 0.79354 0.0
H1159 H 0.72038 0.39663 0.84445 0.0
C1160 C 0.64533 0.7 0.81781 0.0
C1161 C 0.63902 0.71692 0.82846 0.0
C1162 C 0.61038 0.72061 0.80569 0.0
C1163 C 0.6217 0.72717 0.82242 0.0
C1164 C 0.61696 0.70373 0.79503 0.0
C1165 C 0.63425 0.69354 0.80105 0.0
U1166 U 0.69032 0.69078 0.85287 0.0
O1167 O 0.70198 0.6623 0.86477 0.0
O1168 O 0.72102 0.68134 0.84555 0.0
C1169 C 0.71903 0.66406 0.85498 0.0
C1170 C 0.66325 0.68873 0.82401 0.0
C1171 C 0.72519 0.64623 0.8437 0.0
C1172 C 0.72104 0.62292 0.81589 0.0
C1173 C 0.71502 0.64015 0.82617 0.0
C1174 C 0.74744 0.6178 0.84056 0.0
C1175 C 0.73727 0.61146 0.82305 0.0
C1176 C 0.74144 0.635 0.85076 0.0
C1177 C 0.69983 0.72564 0.89784 0.0
C1178 C 0.72754 0.72163 0.92149 0.0
C1179 C 0.70329 0.74798 0.92641 0.0
C1180 C 0.69301 0.7419 0.90905 0.0
C1181 C 0.72062 0.73788 0.93294 0.0
C1182 C 0.71719 0.71553 0.9041 0.0
C1183 C 0.68846 0.71939 0.87984 0.0
O1184 O 0.68055 0.69824 0.82207 0.0
O1185 O 0.66168 0.67881 0.84107 0.0
O1186 O 0.67859 0.70227 0.88142 0.0
O1187 O 0.69786 0.72148 0.8626 0.0
H1188 H 0.64741 0.72209 0.84149 0.0
H1189 H 0.61697 0.73999 0.83107 0.0
H1190 H 0.60884 0.69845 0.78189 0.0
H1191 H 0.63895 0.68056 0.79262 0.0
H1192 H 0.71277 0.61838 0.80257 0.0
H1193 H 0.70237 0.64865 0.82053 0.0
H1194 H 0.76019 0.60956 0.84632 0.0
H1195 H 0.7495 0.63951 0.86422 0.0
H1196 H 0.74072 0.71342 0.92618 0.0
H1197 H 0.69772 0.76074 0.93463 0.0
H1198 H 0.67968 0.74992 0.9044 0.0
H1199 H 0.72264 0.70289 0.89561 0.0
C1200 C 0.31519 0.64704 0.84566 0.0
C1201 C 0.32444 0.64208 0.82745 0.0
C1202 C 0.30277 0.61246 0.82435 0.0
C1203 C 0.31829 0.62492 0.81688 0.0
C1204 C 0.29372 0.6175 0.84273 0.0
C1205 C 0.29987 0.63463 0.85324 0.0
U1206 U 0.34974 0.69254 0.85415 0.0
O1207 O 0.34237 0.72317 0.86359 0.0
O1208 O 0.36215 0.70469 0.88237 0.0
C1209 C 0.35213 0.7215 0.88075 0.0
C1210 C 0.32128 0.66505 0.85696 0.0
C1211 C 0.34101 0.7275 0.89878 0.0
C1212 C 0.31336 0.72306 0.92224 0.0
C1213 C 0.32354 0.7172 0.90486 0.0
C1214 C 0.33802 0.74956 0.92753 0.0
C1215 C 0.32055 0.73926 0.93385 0.0
C1216 C 0.34812 0.74372 0.91017 0.0
C1217 C 0.39377 0.70216 0.8181 0.0
C1218 C 0.41831 0.72915 0.82232 0.0
C1219 C 0.42135 0.70595 0.79459 0.0
C1220 C 0.404 0.69583 0.80096 0.0
C1221 C 0.42885 0.72263 0.80528 0.0
C1222 C 0.40092 0.71896 0.82871 0.0
C1223 C 0.37599 0.69072 0.82484 0.0
O1224 O 0.33855 0.66387 0.86655 0.0
O1225 O 0.3189 0.68224 0.84752 0.0
O1226 O 0.35867 0.69989 0.82311 0.0
O1227 O 0.37804 0.68108 0.84201 0.0
H1228 H 0.33634 0.65152 0.82139 0.0
H1229 H 0.32545 0.6216 0.80271 0.0
H1230 H 0.28199 0.60809 0.84912 0.0
H1231 H 0.29265 0.63817 0.86734 0.0
H1232 H 0.30007 0.7147 0.92677 0.0
H1233 H 0.31786 0.70458 0.89623 0.0
H1234 H 0.3438 0.76228 0.9359 0.0
H1235 H 0.36155 0.75188 0.90565 0.0
H1236 H 0.42376 0.74183 0.83098 0.0
H1237 H 0.42888 0.70073 0.78122 0.0
H1238 H 0.39864 0.68294 0.79255 0.0
H1239 H 0.39318 0.72402 0.84203 0.0
C1240 C 0.34262 0.39983 0.81915 0.0
C1241 C 0.32691 0.40693 0.8311 0.0
C1242 C 0.32105 0.43429 0.80725 0.0
C1243 C 0.31621 0.42401 0.8252 0.0
C1244 C 0.33675 0.42693 0.79532 0.0
C1245 C 0.3474 0.4099 0.80124 0.0
U1246 U 0.35266 0.35465 0.85369 0.0
O1247 O 0.36208 0.32409 0.84594 0.0
O1248 O 0.38138 0.34295 0.86506 0.0
C1249 C 0.37948 0.32597 0.85522 0.0
C1250 C 0.35423 0.38204 0.8251 0.0
C1251 C 0.39721 0.31965 0.84378 0.0
C1252 C 0.42185 0.32485 0.81727 0.0
C1253 C 0.40486 0.3312 0.82779 0.0
C1254 C 0.42363 0.29534 0.83859 0.0
C1255 C 0.43145 0.3068 0.82254 0.0
C1256 C 0.40671 0.30172 0.84908 0.0
C1257 C 0.31752 0.34452 0.89859 0.0
C1258 C 0.32076 0.3163 0.9217 0.0
C1259 C 0.29443 0.34057 0.92657 0.0
C1260 C 0.30105 0.35121 0.90964 0.0
C1261 C 0.30415 0.32293 0.93283 0.0
C1262 C 0.32738 0.327 0.90471 0.0
C1263 C 0.32404 0.35605 0.88078 0.0
O1264 O 0.36427 0.3835 0.84212 0.0
O1265 O 0.34492 0.36467 0.82302 0.0
O1266 O 0.32194 0.34695 0.8634 0.0
O1267 O 0.34124 0.36578 0.88254 0.0
H1268 H 0.32301 0.39933 0.84501 0.0
H1269 H 0.30438 0.42934 0.83486 0.0
H1270 H 0.34068 0.43421 0.78127 0.0
H1271 H 0.35942 0.40457 0.79178 0.0
H1272 H 0.42733 0.33394 0.80487 0.0
H1273 H 0.39768 0.34509 0.82345 0.0
H1274 H 0.43077 0.28156 0.84329 0.0
H1275 H 0.40106 0.29264 0.86143 0.0
H1276 H 0.32849 0.3027 0.92595 0.0
H1277 H 0.28183 0.34633 0.93493 0.0
H1278 H 0.2933 0.36476 0.90518 0.0
H1279 H 0.34013 0.32159 0.89632 0.0
C1280 C 0.26412 0.23837 0.09172 0.0
C1281 C 0.24357 0.23433 0.09494 0.0
C1282 C 0.27055 0.24838 0.07431 0.0
C1283 C 0.25658 0.25482 0.05979 0.0
C1284 C 0.22962 0.24068 0.08031 0.0
C1285 C 0.23608 0.25069 0.06289 0.0
C1286 C 0.26328 0.26501 0.04098 0.0
C1287 C 0.27875 0.3079 0.09064 0.0
C1288 C 0.29935 0.31222 0.09318 0.0
C1289 C 0.27181 0.29747 0.07375 0.0
C1290 C 0.28531 0.29085 0.05908 0.0
C1291 C 0.31286 0.30562 0.07846 0.0
C1292 C 0.30588 0.29517 0.06152 0.0
C1293 C 0.27784 0.28066 0.04061 0.0
C1294 C 0.27628 0.30953 0.95484 0.0
C1295 C 0.29698 0.31168 0.95095 0.0
C1296 C 0.26952 0.29958 0.97215 0.0
C1297 C 0.28329 0.29126 0.98586 0.0
C1298 C 0.31073 0.30346 0.96479 0.0
C1299 C 0.30395 0.29348 0.9821 0.0
C1300 C 0.27634 0.28124 1.00463 0.0
C1301 C 0.25226 0.24479 0.95261 0.0
C1302 C 0.23111 0.24391 0.9518 0.0
C1303 C 0.2622 0.25175 0.96991 0.0
C1304 C 0.2512 0.25811 0.98667 0.0
C1305 C 0.22022 0.2497 0.96886 0.0
C1306 C 0.23015 0.25662 0.9861 0.0
C1307 C 0.26126 0.26608 1.00503 0.0
H1308 H 0.27528 0.23383 0.10269 0.0
H1309 H 0.28651 0.25087 0.07212 0.0
H1310 H 0.21373 0.23755 0.08211 0.0
H1311 H 0.22501 0.25528 0.05183 0.0
H1312 H 0.26792 0.31261 0.10172 0.0
H1313 H 0.25579 0.29488 0.07201 0.0
H1314 H 0.32878 0.30893 0.07979 0.0
H1315 H 0.31657 0.29049 0.05028 0.0
H1316 H 0.26524 0.31554 0.94448 0.0
H1317 H 0.25352 0.29858 0.97492 0.0
H1318 H 0.32676 0.3051 0.96247 0.0
H1319 H 0.31487 0.28745 0.99259 0.0
H1320 H 0.26112 0.24047 0.93976 0.0
H1321 H 0.27848 0.25224 0.97013 0.0
H1322 H 0.20396 0.24883 0.96894 0.0
H1323 H 0.22132 0.26117 0.99891 0.0
N1324 N 0.2554 0.25857 0.02318 0.0
N1325 N 0.28399 0.28792 0.02245 0.0
C1326 C 0.7896 0.24598 0.95362 0.0
C1327 C 0.81072 0.24521 0.95301 0.0
C1328 C 0.77977 0.25265 0.9709 0.0
C1329 C 0.79088 0.25883 0.98786 0.0
C1330 C 0.82172 0.25084 0.97025 0.0
C1331 C 0.81191 0.25748 0.98747 0.0
C1332 C 0.78096 0.26646 1.00621 0.0
C1333 C 0.76677 0.31044 0.95648 0.0
C1334 C 0.7461 0.31236 0.95237 0.0
C1335 C 0.77338 0.30043 0.97379 0.0
C1336 C 0.75947 0.29186 0.98724 0.0
C1337 C 0.73222 0.30394 0.966 0.0
C1338 C 0.73885 0.29391 0.98331 0.0
C1339 C 0.76623 0.28163 1.00591 0.0
C1340 C 0.76445 0.3067 0.09236 0.0
C1341 C 0.74395 0.31096 0.09482 0.0
C1342 C 0.77112 0.29663 0.0753 0.0
C1343 C 0.75743 0.29032 0.06039 0.0
C1344 C 0.73025 0.30468 0.07985 0.0
C1345 C 0.73696 0.2946 0.06274 0.0
C1346 C 0.76464 0.28044 0.04183 0.0
C1347 C 0.77693 0.23722 0.09224 0.0
C1348 C 0.79738 0.23327 0.09579 0.0
C1349 C 0.77085 0.24747 0.07488 0.0
C1350 C 0.78509 0.25421 0.06077 0.0
C1351 C 0.81159 0.23985 0.08153 0.0
C1352 C 0.80549 0.2501 0.06416 0.0
C1353 C 0.77878 0.26474 0.04208 0.0
H1354 H 0.78066 0.24177 0.94061 0.0
H1355 H 0.7635 0.25305 0.97097 0.0
H1356 H 0.83797 0.25005 0.97048 0.0
H1357 H 0.82081 0.26189 1.00044 0.0
H1358 H 0.77789 0.31662 0.94628 0.0
H1359 H 0.78937 0.29954 0.97673 0.0
H1360 H 0.71621 0.30543 0.96351 0.0
H1361 H 0.72785 0.28768 0.99362 0.0
H1362 H 0.77539 0.31117 0.10363 0.0
H1363 H 0.78707 0.29407 0.07364 0.0
H1364 H 0.71441 0.30796 0.08113 0.0
H1365 H 0.72616 0.29015 0.05132 0.0
H1366 H 0.7656 0.23248 0.10294 0.0
H1367 H 0.75497 0.24996 0.07242 0.0
H1368 H 0.82741 0.23678 0.08361 0.0
H1369 H 0.81674 0.25491 0.05339 0.0
N1370 N 0.78657 0.2586 0.02429 0.0
N1371 N 0.7587 0.28804 0.02374 0.0
C1372 C 0.77762 0.80785 0.09104 0.0
C1373 C 0.7982 0.81218 0.09378 0.0
C1374 C 0.77085 0.79751 0.07403 0.0
C1375 C 0.78449 0.791 0.05944 0.0
C1376 C 0.81185 0.8057 0.07913 0.0
C1377 C 0.80503 0.79535 0.06207 0.0
C1378 C 0.7772 0.78082 0.04091 0.0
C1379 C 0.76359 0.73839 0.09189 0.0
C1380 C 0.74304 0.73428 0.09506 0.0
C1381 C 0.77002 0.74841 0.07449 0.0
C1382 C 0.75606 0.75479 0.05994 0.0
C1383 C 0.72911 0.74055 0.08039 0.0
C1384 C 0.73557 0.75057 0.06298 0.0
C1385 C 0.76277 0.76506 0.04117 0.0
C1386 C 0.75237 0.74519 0.95267 0.0
C1387 C 0.73123 0.74429 0.95168 0.0
C1388 C 0.76216 0.75203 0.97009 0.0
C1389 C 0.751 0.75826 0.9868 0.0
C1390 C 0.72019 0.74991 0.9687 0.0
C1391 C 0.72996 0.75672 0.98606 0.0
C1392 C 0.76091 0.76622 1.00523 0.0
C1393 C 0.77567 0.80981 0.95515 0.0
C1394 C 0.79636 0.81197 0.95121 0.0
C1395 C 0.76897 0.7999 0.97251 0.0
C1396 C 0.78277 0.79163 0.9862 0.0
C1397 C 0.81015 0.80383 0.96506 0.0
C1398 C 0.80342 0.79388 0.98242 0.0
C1399 C 0.77586 0.78151 1.00494 0.0
H1400 H 0.7667 0.81246 0.10207 0.0
H1401 H 0.75486 0.79489 0.07215 0.0
H1402 H 0.82775 0.80903 0.08062 0.0
H1403 H 0.81582 0.79075 0.0509 0.0
H1404 H 0.77474 0.73391 0.1029 0.0
H1405 H 0.78597 0.75097 0.07234 0.0
H1406 H 0.71322 0.73737 0.08217 0.0
H1407 H 0.72451 0.75511 0.05189 0.0
H1408 H 0.76134 0.74099 0.93985 0.0
H1409 H 0.77843 0.75256 0.97044 0.0
H1410 H 0.70393 0.74901 0.96863 0.0
H1411 H 0.72102 0.76116 0.99883 0.0
H1412 H 0.7646 0.81575 0.94479 0.0
H1413 H 0.75297 0.79886 0.9753 0.0
H1414 H 0.82618 0.80548 0.9627 0.0
H1415 H 0.81437 0.78789 0.9929 0.0
N1416 N 0.78338 0.7882 0.0228 0.0
N1417 N 0.75502 0.75861 0.02333 0.0
C1418 C 0.28898 0.74618 0.95339 0.0
C1419 C 0.31009 0.74542 0.95256 0.0
C1420 C 0.27933 0.75272 0.97081 0.0
C1421 C 0.29062 0.75878 0.9877 0.0
C1422 C 0.32127 0.7509 0.96974 0.0
C1423 C 0.31163 0.75741 0.98711 0.0
C1424 C 0.28088 0.76641 1.00614 0.0
C1425 C 0.26687 0.81045 0.95649 0.0
C1426 C 0.2462 0.81233 0.95235 0.0
C1427 C 0.27346 0.80054 0.97386 0.0
C1428 C 0.25955 0.79204 0.98735 0.0
C1429 C 0.23231 0.80403 0.96604 0.0
C1430 C 0.23893 0.7941 0.9834 0.0
C1431 C 0.26632 0.78174 1.00597 0.0
C1432 C 0.26547 0.80645 0.09253 0.0
C1433 C 0.24502 0.81077 0.09527 0.0
C1434 C 0.27189 0.79648 0.07533 0.0
C1435 C 0.258 0.79034 0.06054 0.0
C1436 C 0.23113 0.8047 0.0804 0.0
C1437 C 0.23759 0.79472 0.06314 0.0
C1438 C 0.26494 0.78046 0.04189 0.0
C1439 C 0.27694 0.73697 0.0921 0.0
C1440 C 0.29736 0.73285 0.09559 0.0
C1441 C 0.27091 0.74729 0.07477 0.0
C1442 C 0.28517 0.75392 0.06062 0.0
C1443 C 0.31159 0.73932 0.0813 0.0
C1444 C 0.30553 0.74963 0.06395 0.0
C1445 C 0.27889 0.76459 0.042 0.0
H1446 H 0.27991 0.74209 0.94043 0.0
H1447 H 0.26307 0.75315 0.97104 0.0
H1448 H 0.33752 0.75011 0.96979 0.0
H1449 H 0.32066 0.76174 1.00002 0.0
H1450 H 0.27799 0.81655 0.94625 0.0
H1451 H 0.28945 0.79964 0.9768 0.0
H1452 H 0.2163 0.80549 0.96351 0.0
H1453 H 0.22792 0.78791 0.99374 0.0
H1454 H 0.27656 0.81076 0.10372 0.0
H1455 H 0.2878 0.79382 0.07347 0.0
H1456 H 0.21532 0.80804 0.08189 0.0
H1457 H 0.22663 0.7904 0.05181 0.0
H1458 H 0.2656 0.73231 0.10282 0.0
H1459 H 0.25504 0.74991 0.07235 0.0
H1460 H 0.32739 0.73612 0.08335 0.0
H1461 H 0.3168 0.75437 0.05316 0.0
N1462 N 0.28652 0.75842 0.02415 0.0
N1463 N 0.25896 0.78817 0.02386 0.0
C1464 C 0.95142 0.24447 0.25429 0.0
C1465 C 0.94908 0.24766 0.23347 0.0
C1466 C 0.96886 0.25099 0.26428 0.0
C1467 C 0.98421 0.26108 0.25371 0.0
C1468 C 0.96468 0.25739 0.22289 0.0
C1469 C 0.98207 0.26394 0.23289 0.0
C1470 C 1.00293 0.26788 0.26398 0.0
C1471 C 0.95235 0.30283 0.29121 0.0
C1472 C 0.9497 0.29956 0.31197 0.0
C1473 C 0.96966 0.29617 0.2815 0.0
C1474 C 0.98462 0.28586 0.29228 0.0
C1475 C 0.96496 0.28969 0.32278 0.0
C1476 C 0.98223 0.28301 0.31306 0.0
C1477 C 1.00312 0.27865 0.28227 0.0
C1478 C 0.09077 0.30091 0.29275 0.0
C1479 C 0.09302 0.29742 0.31354 0.0
C1480 C 0.07331 0.29469 0.28262 0.0
C1481 C 0.05782 0.28461 0.293 0.0
C1482 C 0.07728 0.28771 0.32393 0.0
C1483 C 0.05986 0.28147 0.31379 0.0
C1484 C 0.03909 0.27805 0.2826 0.0
C1485 C 0.08962 0.24331 0.25474 0.0
C1486 C 0.09212 0.24678 0.234 0.0
C1487 C 0.07238 0.2499 0.26465 0.0
C1488 C 0.05736 0.26032 0.25408 0.0
C1489 C 0.0768 0.25679 0.2234 0.0
C1490 C 0.05962 0.26339 0.23332 0.0
C1491 C 0.0389 0.26737 0.26424 0.0
H1492 H 0.9397 0.2371 0.26293 0.0
H1493 H 0.97036 0.24804 0.28025 0.0
H1494 H 0.96359 0.25975 0.2068 0.0
H1495 H 0.99383 0.27138 0.22435 0.0
H1496 H 0.94092 0.31032 0.28238 0.0
H1497 H 0.97136 0.29912 0.26556 0.0
H1498 H 0.96367 0.28726 0.33884 0.0
H1499 H 0.99367 0.27541 0.32179 0.0
H1500 H 0.10259 0.30827 0.28424 0.0
H1501 H 0.07189 0.29786 0.26669 0.0
H1502 H 0.07829 0.28513 0.34 0.0
H1503 H 0.04801 0.27401 0.3222 0.0
H1504 H 0.10109 0.2357 0.26341 0.0
H1505 H 0.07078 0.24677 0.28057 0.0
H1506 H 0.07798 0.25937 0.20736 0.0
H1507 H 0.04813 0.27109 0.22474 0.0
N1508 N 0.02081 0.26284 0.25565 0.0
N1509 N 0.0212 0.28313 0.2909 0.0
C1510 C 0.73636 0.95344 0.27887 0.0
C1511 C 0.73234 0.94986 0.29935 0.0
C1512 C 0.74657 0.97086 0.27275 0.0
C1513 C 0.7532 0.98501 0.28699 0.0
C1514 C 0.73883 0.96415 0.31355 0.0
C1515 C 0.74904 0.98158 0.30741 0.0
C1516 C 0.76363 1.00379 0.28065 0.0
C1517 C 0.80598 0.95418 0.26586 0.0
C1518 C 0.81028 0.95187 0.24531 0.0
C1519 C 0.7958 0.97105 0.27268 0.0
C1520 C 0.78942 0.98592 0.2591 0.0
C1521 C 0.80392 0.9668 0.23172 0.0
C1522 C 0.79373 0.98372 0.23858 0.0
C1523 C 0.77941 1.00428 0.26646 0.0
C1524 C 0.80897 0.08973 0.26916 0.0
C1525 C 0.81101 0.09402 0.24852 0.0
C1526 C 0.79901 0.07229 0.27562 0.0
C1527 C 0.7906 0.05888 0.26159 0.0
C1528 C 0.80277 0.08044 0.23451 0.0
C1529 C 0.79278 0.063 0.24099 0.0
C1530 C 0.78039 0.04011 0.26821 0.0
C1531 C 0.74426 0.09181 0.29162 0.0
C1532 C 0.74332 0.09238 0.31276 0.0
C1533 C 0.75106 0.07465 0.28178 0.0
C1534 C 0.75722 0.05777 0.29288 0.0
C1535 C 0.74889 0.0752 0.32375 0.0
C1536 C 0.75567 0.05809 0.31392 0.0
C1537 C 0.76508 0.03958 0.28293 0.0
H1538 H 0.73168 0.94272 0.26754 0.0
H1539 H 0.74909 0.97335 0.25685 0.0
H1540 H 0.73571 0.96204 0.32939 0.0
H1541 H 0.75377 0.99237 0.31866 0.0
H1542 H 0.81051 0.94294 0.27674 0.0
H1543 H 0.79321 0.97259 0.28867 0.0
H1544 H 0.80722 0.96564 0.21583 0.0
H1545 H 0.78922 0.99511 0.22784 0.0
H1546 H 0.81501 0.09989 0.28038 0.0
H1547 H 0.79802 0.06921 0.2916 0.0
H1548 H 0.80435 0.08308 0.2185 0.0
H1549 H 0.78668 0.05273 0.22989 0.0
H1550 H 0.7401 0.10477 0.28269 0.0
H1551 H 0.75161 0.07462 0.2655 0.0
H1552 H 0.74797 0.07494 0.34001 0.0
H1553 H 0.76005 0.04519 0.32282 0.0
N1554 N 0.75731 0.02143 0.2885 0.0
N1555 N 0.78694 0.02245 0.26059 0.0
C1556 C 0.09189 0.79696 0.25401 0.0
C1557 C 0.09324 0.79711 0.23288 0.0
C1558 C 0.07423 0.79041 0.26352 0.0
C1559 C 0.05764 0.78374 0.25209 0.0
C1560 C 0.07639 0.79096 0.22154 0.0
C1561 C 0.0588 0.78444 0.23103 0.0
C1562 C 0.03888 0.77627 0.26172 0.0
C1563 C 0.08689 0.73234 0.27839 0.0
C1564 C 0.09105 0.73089 0.29912 0.0
C1565 C 0.06995 0.7425 0.27143 0.0
C1566 C 0.05688 0.75176 0.28498 0.0
C1567 C 0.07785 0.74002 0.3127 0.0
C1568 C 0.06086 0.75022 0.30569 0.0
C1569 C 0.03856 0.76205 0.2776 0.0
C1570 C 0.95275 0.73452 0.27885 0.0
C1571 C 0.94912 0.73289 0.29963 0.0
C1572 C 0.96995 0.74437 0.2717 0.0
C1573 C 0.98381 0.75315 0.28513 0.0
C1574 C 0.96305 0.74164 0.31307 0.0
C1575 C 0.98028 0.75154 0.30588 0.0
C1576 C 1.00259 0.76273 0.27762 0.0
C1577 C 0.95107 0.79939 0.25348 0.0
C1578 C 0.94975 0.79966 0.23234 0.0
C1579 C 0.96833 0.79219 0.26318 0.0
C1580 C 0.98455 0.78499 0.25192 0.0
C1581 C 0.96627 0.79299 0.22118 0.0
C1582 C 0.98346 0.78583 0.23085 0.0
C1583 C 1.00293 0.77692 0.26169 0.0
H1584 H 0.10458 0.80159 0.2632 0.0
H1585 H 0.07358 0.79052 0.27979 0.0
H1586 H 0.07674 0.79127 0.20525 0.0
H1587 H 0.04615 0.77961 0.22186 0.0
H1588 H 0.09678 0.72565 0.26748 0.0
H1589 H 0.06696 0.74294 0.2554 0.0
H1590 H 0.08041 0.73894 0.32876 0.0
H1591 H 0.05083 0.75697 0.31645 0.0
H1592 H 0.9423 0.72812 0.26804 0.0
H1593 H 0.97257 0.74485 0.25563 0.0
H1594 H 0.9609 0.74041 0.32917 0.0
H1595 H 0.99091 0.75791 0.31655 0.0
H1596 H 0.93863 0.80441 0.26254 0.0
H1597 H 0.96897 0.79223 0.27946 0.0
H1598 H 0.96597 0.79338 0.20489 0.0
H1599 H 0.99583 0.78063 0.22179 0.0
N1600 N 0.02106 0.78301 0.25438 0.0
N1601 N 0.02043 0.75598 0.28502 0.0
C1602 C 0.25297 0.95277 0.245 0.0
C1603 C 0.23218 0.94972 0.24767 0.0
C1604 C 0.26235 0.97055 0.25149 0.0
C1605 C 0.25113 0.98553 0.26094 0.0
C1606 C 0.22097 0.96502 0.25663 0.0
C1607 C 0.23032 0.98272 0.26311 0.0
C1608 C 0.26058 1.00443 0.26824 0.0
C1609 C 0.28854 0.95373 0.30348 0.0
C1610 C 0.30948 0.95238 0.30095 0.0
C1611 C 0.27821 0.97085 0.2971 0.0
C1612 C 0.28854 0.98689 0.28783 0.0
C1613 C 0.31982 0.96874 0.29218 0.0
C1614 C 0.30948 0.98581 0.28579 0.0
C1615 C 0.27786 1.00509 0.28074 0.0
C1616 C 0.27528 0.08925 0.31205 0.0
C1617 C 0.29585 0.09423 0.3131 0.0
C1618 C 0.26872 0.07203 0.30196 0.0
C1619 C 0.28252 0.05953 0.29236 0.0
C1620 C 0.30969 0.0816 0.30363 0.0
C1621 C 0.30309 0.06435 0.29348 0.0
C1622 C 0.27559 0.04087 0.28221 0.0
C1623 C 0.24974 0.09224 0.24696 0.0
C1624 C 0.22862 0.09315 0.24707 0.0
C1625 C 0.25962 0.07509 0.25393 0.0
C1626 C 0.24861 0.05852 0.26135 0.0
C1627 C 0.21766 0.07632 0.254 0.0
C1628 C 0.22754 0.0592 0.26096 0.0
C1629 C 0.25885 0.04025 0.269 0.0
H1630 H 0.26206 0.9413 0.23817 0.0
H1631 H 0.27834 0.97256 0.24914 0.0
H1632 H 0.20488 0.9634 0.25853 0.0
H1633 H 0.22129 0.99416 0.27008 0.0
H1634 H 0.28006 0.94144 0.31011 0.0
H1635 H 0.26213 0.97151 0.2994 0.0
H1636 H 0.33598 0.96844 0.29037 0.0
H1637 H 0.31784 0.99811 0.279 0.0
H1638 H 0.26417 0.09868 0.31902 0.0
H1639 H 0.25281 0.06838 0.30189 0.0
H1640 H 0.32567 0.08481 0.3044 0.0
H1641 H 0.31406 0.05478 0.28646 0.0
H1642 H 0.25868 0.1049 0.24179 0.0
H1643 H 0.27588 0.07479 0.25349 0.0
H1644 H 0.20138 0.07632 0.25394 0.0
H1645 H 0.21867 0.04655 0.26632 0.0
N1646 N 0.25184 0.02203 0.26284 0.0
N1647 N 0.28464 0.02331 0.28725 0.0
C1648 C 0.95073 0.74459 0.75442 0.0
C1649 C 0.94841 0.74784 0.73361 0.0
C1650 C 0.96816 0.75105 0.76445 0.0
C1651 C 0.98355 0.76114 0.75392 0.0
C1652 C 0.96404 0.75757 0.72307 0.0
C1653 C 0.98143 0.76405 0.73311 0.0
C1654 C 1.00228 0.76787 0.7642 0.0
C1655 C 0.95177 0.80281 0.79167 0.0
C1656 C 0.94919 0.7995 0.81243 0.0
C1657 C 0.96905 0.79614 0.78189 0.0
C1658 C 0.98403 0.7858 0.79259 0.0
C1659 C 0.96448 0.78959 0.82317 0.0
C1660 C 0.9817 0.78291 0.81338 0.0
C1661 C 1.00251 0.77861 0.78252 0.0
C1662 C 0.09018 0.80089 0.79279 0.0
C1663 C 0.09249 0.79743 0.81357 0.0
C1664 C 0.07269 0.79465 0.78271 0.0
C1665 C 0.05723 0.78458 0.79314 0.0
C1666 C 0.07677 0.78774 0.82402 0.0
C1667 C 0.05933 0.78147 0.81393 0.0
C1668 C 0.03849 0.778 0.78279 0.0
C1669 C 0.08895 0.74318 0.75496 0.0
C1670 C 0.09145 0.74662 0.7342 0.0
C1671 C 0.07172 0.7498 0.76486 0.0
C1672 C 0.05671 0.76022 0.75428 0.0
C1673 C 0.07614 0.75662 0.7236 0.0
C1674 C 0.05896 0.76325 0.7335 0.0
C1675 C 0.03826 0.76731 0.76444 0.0
H1676 H 0.93899 0.73721 0.76303 0.0
H1677 H 0.96965 0.74806 0.78041 0.0
H1678 H 0.96297 0.75996 0.70698 0.0
H1679 H 0.99321 0.7715 0.72459 0.0
H1680 H 0.94033 0.81034 0.7829 0.0
H1681 H 0.9707 0.79913 0.76595 0.0
H1682 H 0.96324 0.78713 0.83923 0.0
H1683 H 0.99316 0.77528 0.82205 0.0
H1684 H 0.10198 0.80824 0.78424 0.0
H1685 H 0.07124 0.79779 0.76677 0.0
H1686 H 0.07783 0.78519 0.84009 0.0
H1687 H 0.0475 0.77403 0.82238 0.0
H1688 H 0.10043 0.73559 0.76363 0.0
H1689 H 0.07013 0.74671 0.78078 0.0
H1690 H 0.07732 0.75918 0.70755 0.0
H1691 H 0.04748 0.77094 0.72492 0.0
N1692 N 0.02016 0.76282 0.75586 0.0
N1693 N 0.02061 0.78308 0.79113 0.0
C1694 C 0.23646 0.95285 0.77944 0.0
C1695 C 0.23252 0.94934 0.79994 0.0
C1696 C 0.24664 0.97027 0.77323 0.0
C1697 C 0.25331 0.98446 0.7874 0.0
C1698 C 0.23909 0.96365 0.81407 0.0
C1699 C 0.24926 0.98107 0.80785 0.0
C1700 C 0.26362 1.00328 0.78096 0.0
C1701 C 0.3061 0.95384 0.76563 0.0
C1702 C 0.31039 0.95172 0.74505 0.0
C1703 C 0.29583 0.97059 0.77261 0.0
C1704 C 0.28933 0.98553 0.75916 0.0
C1705 C 0.3039 0.9667 0.73159 0.0
C1706 C 0.29361 0.9835 0.7386 0.0
C1707 C 0.27931 1.00384 0.76666 0.0
C1708 C 0.30863 0.08936 0.76925 0.0
C1709 C 0.31075 0.09355 0.74859 0.0
C1710 C 0.29864 0.07195 0.77575 0.0
C1711 C 0.29027 0.05849 0.76176 0.0
C1712 C 0.30253 0.07992 0.73462 0.0
C1713 C 0.2925 0.06253 0.74114 0.0
C1714 C 0.28013 0.03969 0.76842 0.0
C1715 C 0.24373 0.09122 0.79183 0.0
C1716 C 0.24271 0.09178 0.81297 0.0
C1717 C 0.25069 0.0741 0.78201 0.0
C1718 C 0.25692 0.05725 0.79313 0.0
C1719 C 0.24835 0.07464 0.82397 0.0
C1720 C 0.25527 0.05757 0.81416 0.0
C1721 C 0.26489 0.03909 0.7832 0.0
H1722 H 0.23173 0.94211 0.76815 0.0
H1723 H 0.24907 0.97272 0.75731 0.0
H1724 H 0.23602 0.96159 0.82994 0.0
H1725 H 0.25403 0.9919 0.81905 0.0
H1726 H 0.31073 0.94255 0.77641 0.0
H1727 H 0.29327 0.972 0.78861 0.0
H1728 H 0.30718 0.9657 0.71569 0.0
H1729 H 0.28902 0.99495 0.72796 0.0
H1730 H 0.31466 0.09956 0.78044 0.0
H1731 H 0.29762 0.06894 0.79174 0.0
H1732 H 0.30417 0.08249 0.71861 0.0
H1733 H 0.28644 0.05221 0.73006 0.0
H1734 H 0.23953 0.10414 0.78288 0.0
H1735 H 0.25128 0.07407 0.76573 0.0
H1736 H 0.24736 0.07437 0.84022 0.0
H1737 H 0.25971 0.0447 0.82308 0.0
N1738 N 0.25725 0.0209 0.78883 0.0
N1739 N 0.28672 0.02204 0.76076 0.0
C1740 C 0.09195 0.29707 0.75411 0.0
C1741 C 0.09328 0.29725 0.73299 0.0
C1742 C 0.0743 0.29052 0.76363 0.0
C1743 C 0.05769 0.28388 0.75221 0.0
C1744 C 0.07641 0.29114 0.72165 0.0
C1745 C 0.05882 0.28462 0.73115 0.0
C1746 C 0.03894 0.27638 0.76185 0.0
C1747 C 0.08706 0.23248 0.77839 0.0
C1748 C 0.09122 0.23099 0.79911 0.0
C1749 C 0.07009 0.24261 0.77144 0.0
C1750 C 0.057 0.25181 0.78502 0.0
C1751 C 0.07799 0.24007 0.81271 0.0
C1752 C 0.06098 0.25024 0.80572 0.0
C1753 C 0.03865 0.26208 0.77766 0.0
C1754 C 0.95282 0.23458 0.77864 0.0
C1755 C 0.94903 0.23298 0.7994 0.0
C1756 C 0.97011 0.24435 0.77161 0.0
C1757 C 0.9839 0.25308 0.78513 0.0
C1758 C 0.96293 0.24164 0.81293 0.0
C1759 C 0.98025 0.25146 0.80586 0.0
C1760 C 1.00269 0.26273 0.77772 0.0
C1761 C 0.951 0.29931 0.7541 0.0
C1762 C 0.94953 0.29962 0.73297 0.0
C1763 C 0.96839 0.29223 0.76365 0.0
C1764 C 0.98458 0.28517 0.75226 0.0
C1765 C 0.96603 0.29316 0.72166 0.0
C1766 C 0.98335 0.2861 0.73119 0.0
C1767 C 1.003 0.27703 0.76189 0.0
H1768 H 0.10466 0.30166 0.7633 0.0
H1769 H 0.07367 0.29059 0.77991 0.0
H1770 H 0.07675 0.29148 0.70537 0.0
H1771 H 0.04616 0.27982 0.72199 0.0
H1772 H 0.09696 0.22583 0.76746 0.0
H1773 H 0.0671 0.24308 0.75542 0.0
H1774 H 0.08056 0.23897 0.82877 0.0
H1775 H 0.05094 0.25695 0.8165 0.0
H1776 H 0.9424 0.22825 0.76776 0.0
H1777 H 0.97281 0.24485 0.75556 0.0
H1778 H 0.96065 0.24043 0.82901 0.0
H1779 H 0.99083 0.25779 0.81659 0.0
H1780 H 0.93858 0.30416 0.76327 0.0
H1781 H 0.96913 0.29219 0.77993 0.0
H1782 H 0.96561 0.29359 0.70538 0.0
H1783 H 0.9957 0.28101 0.72203 0.0
N1784 N 0.02112 0.28316 0.75458 0.0
N1785 N 0.02054 0.25595 0.78507 0.0
C1786 C 0.75281 0.95299 0.74492 0.0
C1787 C 0.73202 0.94997 0.74766 0.0
C1788 C 0.76223 0.97076 0.75136 0.0
C1789 C 0.75107 0.98578 0.76084 0.0
C1790 C 0.72087 0.9653 0.75665 0.0
C1791 C 0.73027 0.98299 0.76307 0.0
C1792 C 0.7606 1.00466 0.76811 0.0
C1793 C 0.78856 0.95391 0.80329 0.0
C1794 C 0.80949 0.9525 0.80071 0.0
C1795 C 0.77825 0.97104 0.79692 0.0
C1796 C 0.78859 0.98704 0.78758 0.0
C1797 C 0.81984 0.96882 0.79187 0.0
C1798 C 0.80952 0.9859 0.78548 0.0
C1799 C 0.77795 1.00527 0.78053 0.0
C1800 C 0.77607 0.08942 0.81192 0.0
C1801 C 0.79671 0.09413 0.81305 0.0
C1802 C 0.7693 0.07234 0.80173 0.0
C1803 C 0.78295 0.0597 0.79209 0.0
C1804 C 0.81039 0.08138 0.8035 0.0
C1805 C 0.80357 0.06427 0.79324 0.0
C1806 C 0.77583 0.04107 0.78199 0.0
C1807 C 0.74992 0.09249 0.74677 0.0
C1808 C 0.7288 0.09343 0.74691 0.0
C1809 C 0.7598 0.07534 0.75378 0.0
C1810 C 0.74878 0.05881 0.76127 0.0
C1811 C 0.71784 0.07664 0.75393 0.0
C1812 C 0.72771 0.05953 0.76093 0.0
C1813 C 0.759 0.04051 0.76888 0.0
H1814 H 0.76186 0.9415 0.73807 0.0
H1815 H 0.77822 0.97274 0.74896 0.0
H1816 H 0.70478 0.96371 0.7586 0.0
H1817 H 0.72128 0.99445 0.77007 0.0
H1818 H 0.78008 0.94165 0.80997 0.0
H1819 H 0.76218 0.97175 0.79926 0.0
H1820 H 0.83599 0.96848 0.79002 0.0
H1821 H 0.81789 0.99817 0.77865 0.0
H1822 H 0.76508 0.09895 0.81894 0.0
H1823 H 0.75335 0.06889 0.80164 0.0
H1824 H 0.8264 0.08437 0.80431 0.0
H1825 H 0.81443 0.05459 0.78621 0.0
H1826 H 0.75887 0.10513 0.74153 0.0
H1827 H 0.77606 0.07502 0.7533 0.0
H1828 H 0.70156 0.07666 0.7539 0.0
H1829 H 0.71883 0.0469 0.76634 0.0
N1830 N 0.7519 0.02231 0.76277 0.0
N1831 N 0.78483 0.02347 0.78699 0.0
C1832 C 0.26362 0.73827 0.59199 0.0
C1833 C 0.24307 0.73424 0.59522 0.0
C1834 C 0.27006 0.74825 0.57456 0.0
C1835 C 0.25608 0.75467 0.56003 0.0
C1836 C 0.22913 0.74056 0.58058 0.0
C1837 C 0.23558 0.75054 0.56314 0.0
C1838 C 0.26277 0.76481 0.54119 0.0
C1839 C 0.27832 0.80777 0.59078 0.0
C1840 C 0.29893 0.81208 0.59328 0.0
C1841 C 0.27135 0.79733 0.57391 0.0
C1842 C 0.28482 0.79068 0.55923 0.0
C1843 C 0.31242 0.80545 0.57855 0.0
C1844 C 0.3054 0.79499 0.56163 0.0
C1845 C 0.27732 0.78047 0.54079 0.0
C1846 C 0.27551 0.8092 0.45496 0.0
C1847 C 0.29619 0.81136 0.45099 0.0
C1848 C 0.26883 0.79929 0.47233 0.0
C1849 C 0.28265 0.79102 0.48601 0.0
C1850 C 0.31 0.80319 0.46481 0.0
C1851 C 0.30329 0.79325 0.48218 0.0
C1852 C 0.27577 0.781 0.50481 0.0
C1853 C 0.25175 0.74447 0.45285 0.0
C1854 C 0.23061 0.74358 0.45203 0.0
C1855 C 0.26168 0.75144 0.47015 0.0
C1856 C 0.25067 0.7578 0.48691 0.0
C1857 C 0.21971 0.74935 0.46909 0.0
C1858 C 0.22962 0.75629 0.48633 0.0
C1859 C 0.26072 0.76581 0.50524 0.0
H1860 H 0.27479 0.73375 0.60297 0.0
H1861 H 0.28601 0.75074 0.57236 0.0
H1862 H 0.21323 0.73743 0.58239 0.0
H1863 H 0.22451 0.7551 0.55207 0.0
H1864 H 0.26752 0.8125 0.60187 0.0
H1865 H 0.25533 0.79475 0.5722 0.0
H1866 H 0.32834 0.80875 0.57985 0.0
H1867 H 0.31607 0.79028 0.55038 0.0
H1868 H 0.26443 0.81516 0.44462 0.0
H1869 H 0.25283 0.79828 0.47515 0.0
H1870 H 0.32602 0.80484 0.46243 0.0
H1871 H 0.31425 0.78726 0.49264 0.0
H1872 H 0.26062 0.74016 0.44 0.0
H1873 H 0.27796 0.75194 0.47038 0.0
H1874 H 0.20344 0.74847 0.46916 0.0
H1875 H 0.22078 0.76083 0.49914 0.0
N1876 N 0.25488 0.75833 0.52342 0.0
N1877 N 0.28344 0.78771 0.52261 0.0
C1878 C 0.80004 0.75432 0.59312 0.0
C1879 C 0.79706 0.73345 0.5949 0.0
C1880 C 0.7939 0.76458 0.57575 0.0
C1881 C 0.7844 0.75422 0.55991 0.0
C1882 C 0.78798 0.72309 0.57878 0.0
C1883 C 0.78182 0.73336 0.56146 0.0
C1884 C 0.77775 0.76479 0.54139 0.0
C1885 C 0.74227 0.7903 0.593 0.0
C1886 C 0.74538 0.81105 0.59562 0.0
C1887 C 0.74869 0.78079 0.57544 0.0
C1888 C 0.75851 0.79182 0.56024 0.0
C1889 C 0.7547 0.82208 0.58009 0.0
C1890 C 0.76111 0.81259 0.56261 0.0
C1891 C 0.76576 0.7822 0.54156 0.0
C1892 C 0.74528 0.79264 0.45335 0.0
C1893 C 0.74597 0.8137 0.45197 0.0
C1894 C 0.75201 0.78281 0.47074 0.0
C1895 C 0.75977 0.79384 0.48706 0.0
C1896 C 0.75332 0.82469 0.46853 0.0
C1897 C 0.76004 0.81486 0.48589 0.0
C1898 C 0.76696 0.78367 0.50564 0.0
C1899 C 0.80987 0.76612 0.45723 0.0
C1900 C 0.81049 0.7455 0.45288 0.0
C1901 C 0.79975 0.77302 0.47417 0.0
C1902 C 0.78969 0.75951 0.48704 0.0
C1903 C 0.80051 0.73197 0.46585 0.0
C1904 C 0.79034 0.7389 0.48283 0.0
C1905 C 0.77963 0.76677 0.5055 0.0
H1906 H 0.80692 0.7628 0.60523 0.0
H1907 H 0.7966 0.7806 0.57472 0.0
H1908 H 0.78582 0.70698 0.57943 0.0
H1909 H 0.77483 0.725 0.54931 0.0
H1910 H 0.73517 0.78134 0.60465 0.0
H1911 H 0.74599 0.76483 0.57377 0.0
H1912 H 0.75695 0.83815 0.58136 0.0
H1913 H 0.76837 0.82149 0.55099 0.0
H1914 H 0.73978 0.7837 0.44088 0.0
H1915 H 0.75108 0.76659 0.47143 0.0
H1916 H 0.75371 0.84093 0.46815 0.0
H1917 H 0.76568 0.82373 0.49836 0.0
H1918 H 0.81722 0.77701 0.44752 0.0
H1919 H 0.80006 0.78894 0.47734 0.0
H1920 H 0.80092 0.71597 0.46314 0.0
H1921 H 0.78296 0.72816 0.49268 0.0
N1922 N 0.78422 0.7578 0.52336 0.0
N1923 N 0.76082 0.79087 0.52367 0.0
C1924 C 0.79774 0.29249 0.45269 0.0
C1925 C 0.79737 0.31356 0.45126 0.0
C1926 C 0.79084 0.28265 0.47005 0.0
C1927 C 0.78324 0.29364 0.48628 0.0
C1928 C 0.79026 0.32451 0.46776 0.0
C1929 C 0.78337 0.31467 0.48508 0.0
C1930 C 0.77569 0.28347 0.50478 0.0
C1931 C 0.73291 0.26554 0.45563 0.0
C1932 C 0.732 0.2449 0.45132 0.0
C1933 C 0.74298 0.27254 0.47274 0.0
C1934 C 0.75272 0.25913 0.48583 0.0
C1935 C 0.74166 0.23146 0.46451 0.0
C1936 C 0.75179 0.23851 0.48166 0.0
C1937 C 0.76269 0.26652 0.50447 0.0
C1938 C 0.74061 0.25469 0.59173 0.0
C1939 C 0.74307 0.23381 0.59372 0.0
C1940 C 0.74727 0.26484 0.57446 0.0
C1941 C 0.75675 0.25439 0.5589 0.0
C1942 C 0.7521 0.22336 0.57785 0.0
C1943 C 0.75876 0.23353 0.56063 0.0
C1944 C 0.76395 0.26484 0.54044 0.0
C1945 C 0.79922 0.29101 0.59269 0.0
C1946 C 0.79658 0.31181 0.59496 0.0
C1947 C 0.79279 0.28127 0.57511 0.0
C1948 C 0.78342 0.29212 0.55954 0.0
C1949 C 0.78769 0.32264 0.57909 0.0
C1950 C 0.78127 0.31292 0.5616 0.0
C1951 C 0.77628 0.28229 0.54077 0.0
H1952 H 0.80307 0.28357 0.44029 0.0
H1953 H 0.79147 0.26643 0.47076 0.0
H1954 H 0.79012 0.34075 0.46737 0.0
H1955 H 0.77787 0.32353 0.49747 0.0
H1956 H 0.72581 0.27635 0.44576 0.0
H1957 H 0.7429 0.28847 0.47587 0.0
H1958 H 0.74102 0.21546 0.46182 0.0
H1959 H 0.75891 0.22784 0.49168 0.0
H1960 H 0.73379 0.26325 0.60364 0.0
H1961 H 0.74498 0.28087 0.57328 0.0
H1962 H 0.75387 0.20725 0.57864 0.0
H1963 H 0.76571 0.22507 0.5487 0.0
H1964 H 0.80599 0.2822 0.6046 0.0
H1965 H 0.79514 0.26529 0.5737 0.0
H1966 H 0.78581 0.33872 0.5801 0.0
H1967 H 0.77437 0.32168 0.5497 0.0
N1968 N 0.78167 0.29083 0.52293 0.0
N1969 N 0.75764 0.25769 0.52229 0.0
C1970 C 0.26714 0.31047 0.45672 0.0
C1971 C 0.24648 0.31236 0.45258 0.0
C1972 C 0.27374 0.30054 0.47408 0.0
C1973 C 0.25983 0.29201 0.48755 0.0
C1974 C 0.23259 0.30404 0.46626 0.0
C1975 C 0.23921 0.29408 0.48362 0.0
C1976 C 0.26661 0.28167 0.50615 0.0
C1977 C 0.28916 0.24615 0.45349 0.0
C1978 C 0.31028 0.24537 0.45263 0.0
C1979 C 0.27955 0.2527 0.47094 0.0
C1980 C 0.29088 0.25875 0.4878 0.0
C1981 C 0.32149 0.25084 0.46979 0.0
C1982 C 0.31189 0.25735 0.48718 0.0
C1983 C 0.28118 0.26636 0.50628 0.0
C1984 C 0.27753 0.23677 0.59219 0.0
C1985 C 0.29796 0.23264 0.59558 0.0
C1986 C 0.27142 0.24714 0.57491 0.0
C1987 C 0.28562 0.25382 0.56073 0.0
C1988 C 0.31213 0.23917 0.58126 0.0
C1989 C 0.30599 0.24953 0.56397 0.0
C1990 C 0.27926 0.2645 0.54214 0.0
C1991 C 0.26576 0.30627 0.59275 0.0
C1992 C 0.24531 0.31058 0.59548 0.0
C1993 C 0.2722 0.29632 0.57554 0.0
C1994 C 0.25833 0.29018 0.56074 0.0
C1995 C 0.23143 0.3045 0.5806 0.0
C1996 C 0.23791 0.29454 0.56333 0.0
C1997 C 0.26528 0.28034 0.54207 0.0
H1998 H 0.27827 0.31658 0.44648 0.0
H1999 H 0.28973 0.29962 0.47701 0.0
H2000 H 0.21658 0.30551 0.46374 0.0
H2001 H 0.2282 0.28788 0.49394 0.0
H2002 H 0.28007 0.24207 0.44056 0.0
H2003 H 0.26329 0.25314 0.4712 0.0
H2004 H 0.33774 0.25003 0.46981 0.0
H2005 H 0.32095 0.26167 0.50007 0.0
H2006 H 0.26623 0.23208 0.60295 0.0
H2007 H 0.25554 0.24977 0.57257 0.0
H2008 H 0.32794 0.23597 0.58322 0.0
H2009 H 0.31721 0.25431 0.55314 0.0
H2010 H 0.27685 0.31059 0.60395 0.0
H2011 H 0.28812 0.29368 0.57369 0.0
H2012 H 0.21562 0.30783 0.58209 0.0
H2013 H 0.22696 0.29021 0.552 0.0
N2014 N 0.25927 0.28807 0.52406 0.0
N2015 N 0.28686 0.25836 0.52427 0.0
C2016 C 0.73616 0.45367 0.77996 0.0
C2017 C 0.73218 0.4503 0.80048 0.0
C2018 C 0.74641 0.471 0.77365 0.0
C2019 C 0.75312 0.48526 0.78774 0.0
C2020 C 0.73877 0.46469 0.81453 0.0
C2021 C 0.74902 0.48203 0.8082 0.0
C2022 C 0.76359 0.50396 0.78119 0.0
C2023 C 0.80563 0.454 0.76686 0.0
C2024 C 0.80975 0.45137 0.74631 0.0
C2025 C 0.79564 0.47104 0.77352 0.0
C2026 C 0.78927 0.48578 0.75979 0.0
C2027 C 0.80344 0.46618 0.73257 0.0
C2028 C 0.79344 0.48328 0.73927 0.0
C2029 C 0.77935 0.50427 0.76696 0.0
C2030 C 0.80898 0.58975 0.76892 0.0
C2031 C 0.81088 0.59398 0.74825 0.0
C2032 C 0.79912 0.5723 0.77551 0.0
C2033 C 0.79066 0.55882 0.76158 0.0
C2034 C 0.8026 0.58031 0.73434 0.0
C2035 C 0.79271 0.56286 0.74095 0.0
C2036 C 0.78041 0.54012 0.76837 0.0
C2037 C 0.74446 0.59212 0.79138 0.0
C2038 C 0.7436 0.59289 0.81252 0.0
C2039 C 0.75119 0.57485 0.78167 0.0
C2040 C 0.75735 0.55806 0.79292 0.0
C2041 C 0.74916 0.5758 0.82364 0.0
C2042 C 0.75586 0.55858 0.81395 0.0
C2043 C 0.76513 0.53975 0.78311 0.0
H2044 H 0.7314 0.44287 0.76874 0.0
H2045 H 0.74889 0.47334 0.75772 0.0
H2046 H 0.73568 0.46273 0.8304 0.0
H2047 H 0.75382 0.4929 0.81934 0.0
H2048 H 0.81012 0.44286 0.77786 0.0
H2049 H 0.79315 0.47281 0.7895 0.0
H2050 H 0.80661 0.46478 0.71668 0.0
H2051 H 0.78893 0.49456 0.72841 0.0
H2052 H 0.81505 0.59998 0.78007 0.0
H2053 H 0.79822 0.5693 0.79151 0.0
H2054 H 0.80407 0.5829 0.71832 0.0
H2055 H 0.78655 0.55254 0.72993 0.0
H2056 H 0.74031 0.605 0.78234 0.0
H2057 H 0.75168 0.57466 0.76539 0.0
H2058 H 0.74828 0.57569 0.83991 0.0
H2059 H 0.76024 0.54575 0.82296 0.0
N2060 N 0.75733 0.52168 0.78888 0.0
N2061 N 0.78692 0.52236 0.7609 0.0
C2062 C 0.25312 0.4528 0.74507 0.0
C2063 C 0.23233 0.44971 0.74778 0.0
C2064 C 0.26247 0.47059 0.75155 0.0
C2065 C 0.25125 0.48554 0.76104 0.0
C2066 C 0.22112 0.46498 0.75679 0.0
C2067 C 0.23045 0.48268 0.76326 0.0
C2068 C 0.26067 0.50446 0.76831 0.0
C2069 C 0.28895 0.45387 0.80348 0.0
C2070 C 0.30989 0.45262 0.80093 0.0
C2071 C 0.27852 0.47093 0.79711 0.0
C2072 C 0.28876 0.48701 0.7878 0.0
C2073 C 0.32014 0.46901 0.79212 0.0
C2074 C 0.3097 0.48602 0.78573 0.0
C2075 C 0.278 0.50518 0.78075 0.0
C2076 C 0.27529 0.58933 0.81207 0.0
C2077 C 0.29586 0.59435 0.81307 0.0
C2078 C 0.26874 0.5721 0.80199 0.0
C2079 C 0.28254 0.55962 0.79235 0.0
C2080 C 0.3097 0.58175 0.80355 0.0
C2081 C 0.30311 0.56449 0.79341 0.0
C2082 C 0.27563 0.54095 0.78223 0.0
C2083 C 0.24954 0.59225 0.74706 0.0
C2084 C 0.22841 0.59311 0.74723 0.0
C2085 C 0.25948 0.57512 0.75399 0.0
C2086 C 0.24854 0.55853 0.76145 0.0
C2087 C 0.21751 0.57625 0.7542 0.0
C2088 C 0.22746 0.55915 0.76113 0.0
C2089 C 0.25885 0.54028 0.76907 0.0
H2090 H 0.26221 0.44136 0.7382 0.0
H2091 H 0.27845 0.47263 0.74916 0.0
H2092 H 0.20503 0.46332 0.75873 0.0
H2093 H 0.22141 0.4941 0.77027 0.0
H2094 H 0.28054 0.44155 0.81014 0.0
H2095 H 0.26244 0.47152 0.79943 0.0
H2096 H 0.3363 0.46879 0.79029 0.0
H2097 H 0.318 0.49836 0.77892 0.0
H2098 H 0.26418 0.59873 0.81907 0.0
H2099 H 0.25284 0.56842 0.80196 0.0
H2100 H 0.32567 0.58499 0.80428 0.0
H2101 H 0.31408 0.55494 0.78637 0.0
H2102 H 0.25843 0.60493 0.74186 0.0
H2103 H 0.27574 0.57486 0.75351 0.0
H2104 H 0.20124 0.57621 0.75419 0.0
H2105 H 0.21864 0.54648 0.76652 0.0
N2106 N 0.25187 0.52205 0.76294 0.0
N2107 N 0.28475 0.52341 0.78724 0.0
C2108 C 0.23671 0.45279 0.2795 0.0
C2109 C 0.23278 0.44928 0.30001 0.0
C2110 C 0.24685 0.47022 0.27328 0.0
C2111 C 0.2535 0.48444 0.28744 0.0
C2112 C 0.23932 0.46361 0.31413 0.0
C2113 C 0.24946 0.48105 0.3079 0.0
C2114 C 0.26375 0.50328 0.281 0.0
C2115 C 0.30633 0.45394 0.26566 0.0
C2116 C 0.3106 0.45181 0.24507 0.0
C2117 C 0.29604 0.47067 0.27264 0.0
C2118 C 0.2895 0.4856 0.25919 0.0
C2119 C 0.30406 0.46678 0.23161 0.0
C2120 C 0.29376 0.48357 0.23863 0.0
C2121 C 0.27943 0.50389 0.26669 0.0
C2122 C 0.30849 0.58949 0.26937 0.0
C2123 C 0.31055 0.59376 0.24871 0.0
C2124 C 0.29859 0.57203 0.27584 0.0
C2125 C 0.29026 0.55856 0.26182 0.0
C2126 C 0.30238 0.58012 0.23472 0.0
C2127 C 0.29245 0.56265 0.24122 0.0
C2128 C 0.28017 0.53973 0.26846 0.0
C2129 C 0.24364 0.59116 0.29189 0.0
C2130 C 0.24262 0.59171 0.31303 0.0
C2131 C 0.25063 0.57406 0.28206 0.0
C2132 C 0.25691 0.55723 0.29318 0.0
C2133 C 0.2483 0.57458 0.32403 0.0
C2134 C 0.25527 0.55754 0.31421 0.0
C2135 C 0.26492 0.53908 0.28324 0.0
H2136 H 0.232 0.44203 0.26823 0.0
H2137 H 0.24927 0.47268 0.25736 0.0
H2138 H 0.23627 0.46156 0.33 0.0
H2139 H 0.25421 0.49189 0.31909 0.0
H2140 H 0.31099 0.44266 0.27644 0.0
H2141 H 0.29349 0.47209 0.28864 0.0
H2142 H 0.30733 0.46577 0.21571 0.0
H2143 H 0.28913 0.495 0.22799 0.0
H2144 H 0.31447 0.5997 0.28057 0.0
H2145 H 0.2976 0.56897 0.29183 0.0
H2146 H 0.30398 0.58274 0.21871 0.0
H2147 H 0.28641 0.55234 0.23012 0.0
H2148 H 0.2394 0.60408 0.28295 0.0
H2149 H 0.25122 0.57404 0.26579 0.0
H2150 H 0.24732 0.5743 0.34028 0.0
H2151 H 0.25973 0.54467 0.32313 0.0
N2152 N 0.25733 0.52088 0.28887 0.0
N2153 N 0.2868 0.52211 0.2608 0.0
C2154 C 0.75219 0.45333 0.24414 0.0
C2155 C 0.7314 0.45042 0.24694 0.0
C2156 C 0.76177 0.47096 0.25075 0.0
C2157 C 0.75076 0.48594 0.26046 0.0
C2158 C 0.7204 0.46572 0.25618 0.0
C2159 C 0.72996 0.48326 0.26278 0.0
C2160 C 0.76042 0.50472 0.26783 0.0
C2161 C 0.78853 0.45362 0.3024 0.0
C2162 C 0.80944 0.45221 0.2997 0.0
C2163 C 0.77821 0.4708 0.29619 0.0
C2164 C 0.78852 0.48685 0.28691 0.0
C2165 C 0.81976 0.46856 0.29089 0.0
C2166 C 0.80943 0.48569 0.28467 0.0
C2167 C 0.77787 0.50517 0.28011 0.0
C2168 C 0.77642 0.58903 0.31232 0.0
C2169 C 0.79708 0.59368 0.31335 0.0
C2170 C 0.76954 0.57206 0.30201 0.0
C2171 C 0.78309 0.55947 0.29215 0.0
C2172 C 0.81066 0.58099 0.30358 0.0
C2173 C 0.80374 0.56399 0.29321 0.0
C2174 C 0.77586 0.54096 0.28193 0.0
C2175 C 0.74978 0.5927 0.2473 0.0
C2176 C 0.72866 0.59364 0.24756 0.0
C2177 C 0.75968 0.5755 0.25414 0.0
C2178 C 0.74869 0.55894 0.26159 0.0
C2179 C 0.71772 0.57684 0.25456 0.0
C2180 C 0.72762 0.55967 0.2614 0.0
C2181 C 0.75893 0.54055 0.26896 0.0
H2182 H 0.76112 0.44187 0.2371 0.0
H2183 H 0.77775 0.47287 0.24828 0.0
H2184 H 0.70431 0.46421 0.2582 0.0
H2185 H 0.72107 0.4947 0.26995 0.0
H2186 H 0.78007 0.44134 0.30907 0.0
H2187 H 0.76215 0.47152 0.29865 0.0
H2188 H 0.83591 0.46821 0.28895 0.0
H2189 H 0.81778 0.49799 0.27787 0.0
H2190 H 0.7655 0.59852 0.3195 0.0
H2191 H 0.75359 0.56864 0.302 0.0
H2192 H 0.82669 0.58394 0.30431 0.0
H2193 H 0.81452 0.55435 0.28601 0.0
H2194 H 0.7587 0.60535 0.24207 0.0
H2195 H 0.77593 0.57516 0.25356 0.0
H2196 H 0.70144 0.57686 0.25462 0.0
H2197 H 0.71876 0.54702 0.26678 0.0
N2198 N 0.75173 0.52243 0.26273 0.0
N2199 N 0.78485 0.52329 0.28668 0.0
C2200 C 0.58977 0.26671 0.73936 0.0
C2201 C 0.5922 0.24632 0.73463 0.0
C2202 C 0.57259 0.27319 0.74937 0.0
C2203 C 0.5575 0.25942 0.7551 0.0
C2204 C 0.57701 0.23258 0.74027 0.0
C2205 C 0.5598 0.23909 0.75027 0.0
C2206 C 0.5389 0.26622 0.7652 0.0
C2207 C 0.58945 0.27834 0.80871 0.0
C2208 C 0.59262 0.29873 0.81326 0.0
C2209 C 0.57213 0.27206 0.79842 0.0
C2210 C 0.55767 0.28605 0.79226 0.0
C2211 C 0.57803 0.31268 0.80722 0.0
C2212 C 0.56069 0.30637 0.79695 0.0
C2213 C 0.539 0.2795 0.78176 0.0
C2214 C 0.45209 0.27947 0.80705 0.0
C2215 C 0.44959 0.29992 0.81149 0.0
C2216 C 0.46934 0.27289 0.79723 0.0
C2217 C 0.48443 0.28662 0.79138 0.0
C2218 C 0.46479 0.31362 0.80575 0.0
C2219 C 0.48206 0.30701 0.79593 0.0
C2220 C 0.50305 0.27973 0.78137 0.0
C2221 C 0.45237 0.26687 0.73814 0.0
C2222 C 0.44932 0.24639 0.73388 0.0
C2223 C 0.4697 0.27341 0.74824 0.0
C2224 C 0.48428 0.2596 0.75452 0.0
C2225 C 0.46404 0.23263 0.74002 0.0
C2226 C 0.48139 0.2392 0.75011 0.0
C2227 C 0.50295 0.26639 0.76486 0.0
H2228 H 0.6012 0.2777 0.73537 0.0
H2229 H 0.571 0.28904 0.7524 0.0
H2230 H 0.57821 0.21683 0.7366 0.0
H2231 H 0.54827 0.2282 0.75429 0.0
H2232 H 0.60041 0.26721 0.81303 0.0
H2233 H 0.56995 0.25622 0.79547 0.0
H2234 H 0.57983 0.32844 0.81076 0.0
H2235 H 0.54963 0.31741 0.79258 0.0
H2236 H 0.44067 0.26851 0.81112 0.0
H2237 H 0.47097 0.25701 0.79441 0.0
H2238 H 0.46353 0.32941 0.8092 0.0
H2239 H 0.49358 0.31786 0.79181 0.0
H2240 H 0.4413 0.27786 0.73374 0.0
H2241 H 0.47178 0.2893 0.75098 0.0
H2242 H 0.46234 0.21681 0.7367 0.0
H2243 H 0.49255 0.22829 0.75456 0.0
N2244 N 0.52086 0.26011 0.75753 0.0
N2245 N 0.52109 0.28582 0.78907 0.0
C2246 C 0.45373 0.77914 0.73398 0.0
C2247 C 0.45044 0.79991 0.73252 0.0
C2248 C 0.47056 0.77174 0.74411 0.0
C2249 C 0.48438 0.7849 0.75334 0.0
C2250 C 0.46434 0.81309 0.74171 0.0
C2251 C 0.48122 0.80565 0.75188 0.0
C2252 C 0.50275 0.7771 0.76332 0.0
C2253 C 0.44973 0.75384 0.79881 0.0
C2254 C 0.44781 0.73279 0.79877 0.0
C2255 C 0.46744 0.76321 0.79208 0.0
C2256 C 0.48353 0.7517 0.78508 0.0
C2257 C 0.46417 0.72136 0.79228 0.0
C2258 C 0.48182 0.7307 0.7856 0.0
C2259 C 0.50235 0.76115 0.77747 0.0
C2260 C 0.5907 0.7522 0.79929 0.0
C2261 C 0.5917 0.73111 0.79934 0.0
C2262 C 0.57333 0.76192 0.79255 0.0
C2263 C 0.55667 0.75075 0.78555 0.0
C2264 C 0.57474 0.72002 0.79295 0.0
C2265 C 0.55743 0.72973 0.78622 0.0
C2266 C 0.5383 0.76063 0.77768 0.0
C2267 C 0.58782 0.7767 0.73473 0.0
C2268 C 0.59241 0.79732 0.73343 0.0
C2269 C 0.57048 0.76997 0.74455 0.0
C2270 C 0.55746 0.78365 0.75361 0.0
C2271 C 0.57926 0.81103 0.74237 0.0
C2272 C 0.56188 0.80425 0.75223 0.0
C2273 C 0.53871 0.77653 0.76348 0.0
H2274 H 0.44328 0.76853 0.72724 0.0
H2275 H 0.47291 0.75568 0.74448 0.0
H2276 H 0.46244 0.82918 0.74065 0.0
H2277 H 0.49183 0.81611 0.7586 0.0
H2278 H 0.43742 0.76309 0.80371 0.0
H2279 H 0.46854 0.77943 0.79233 0.0
H2280 H 0.46339 0.70512 0.79245 0.0
H2281 H 0.49408 0.72147 0.78052 0.0
H2282 H 0.60347 0.76121 0.80409 0.0
H2283 H 0.57298 0.77815 0.79271 0.0
H2284 H 0.57481 0.70377 0.79318 0.0
H2285 H 0.54472 0.72075 0.78117 0.0
H2286 H 0.59766 0.7657 0.72818 0.0
H2287 H 0.56715 0.75403 0.74487 0.0
H2288 H 0.58217 0.82702 0.74139 0.0
H2289 H 0.55189 0.8151 0.75883 0.0
N2290 N 0.52093 0.78424 0.757 0.0
N2291 N 0.52014 0.75354 0.78397 0.0
C2292 C 0.45173 0.80274 0.29165 0.0
C2293 C 0.44919 0.79944 0.31242 0.0
C2294 C 0.46901 0.7961 0.28185 0.0
C2295 C 0.48404 0.78581 0.29254 0.0
C2296 C 0.46452 0.78959 0.32314 0.0
C2297 C 0.48175 0.78294 0.31333 0.0
C2298 C 0.50251 0.77864 0.28245 0.0
C2299 C 0.45077 0.74443 0.25452 0.0
C2300 C 0.4484 0.74763 0.2337 0.0
C2301 C 0.4682 0.75097 0.26449 0.0
C2302 C 0.48354 0.76108 0.25392 0.0
C2303 C 0.46399 0.75739 0.22312 0.0
C2304 C 0.48137 0.76395 0.23311 0.0
C2305 C 0.50227 0.76786 0.26415 0.0
C2306 C 0.58897 0.74333 0.25482 0.0
C2307 C 0.59144 0.74674 0.23406 0.0
C2308 C 0.57174 0.74992 0.26473 0.0
C2309 C 0.55669 0.76029 0.25415 0.0
C2310 C 0.5761 0.75669 0.22345 0.0
C2311 C 0.55892 0.76329 0.23336 0.0
C2312 C 0.53824 0.76738 0.26432 0.0
C2313 C 0.59015 0.8011 0.29246 0.0
C2314 C 0.59252 0.79767 0.31324 0.0
C2315 C 0.57264 0.79483 0.28245 0.0
C2316 C 0.55724 0.78474 0.29294 0.0
C2317 C 0.57686 0.78796 0.32375 0.0
C2318 C 0.5594 0.78165 0.31373 0.0
C2319 C 0.53848 0.7781 0.28265 0.0
H2320 H 0.44025 0.81022 0.28289 0.0
H2321 H 0.47063 0.79906 0.2659 0.0
H2322 H 0.46331 0.78715 0.33921 0.0
H2323 H 0.49324 0.77535 0.322 0.0
H2324 H 0.43907 0.73703 0.26316 0.0
H2325 H 0.46973 0.74801 0.28046 0.0
H2326 H 0.46288 0.75975 0.20702 0.0
H2327 H 0.49312 0.77142 0.22456 0.0
H2328 H 0.60047 0.73577 0.2635 0.0
H2329 H 0.57016 0.74685 0.28066 0.0
H2330 H 0.57725 0.75922 0.2074 0.0
H2331 H 0.5474 0.77095 0.22478 0.0
H2332 H 0.60191 0.80847 0.28387 0.0
H2333 H 0.57113 0.79794 0.26651 0.0
H2334 H 0.57797 0.78543 0.33982 0.0
H2335 H 0.54761 0.7742 0.32222 0.0
N2336 N 0.52061 0.78316 0.29101 0.0
N2337 N 0.52014 0.76283 0.25578 0.0
C2338 C 0.45384 0.2791 0.23411 0.0
C2339 C 0.45056 0.29989 0.23269 0.0
C2340 C 0.47065 0.27168 0.24426 0.0
C2341 C 0.48447 0.28481 0.25353 0.0
C2342 C 0.46446 0.31304 0.24192 0.0
C2343 C 0.48132 0.30557 0.2521 0.0
C2344 C 0.50282 0.27698 0.26352 0.0
C2345 C 0.44977 0.25368 0.29892 0.0
C2346 C 0.44784 0.23262 0.29885 0.0
C2347 C 0.46749 0.26305 0.29221 0.0
C2348 C 0.48357 0.25154 0.28519 0.0
C2349 C 0.46419 0.2212 0.29233 0.0
C2350 C 0.48185 0.23054 0.28567 0.0
C2351 C 0.5024 0.26099 0.27761 0.0
C2352 C 0.59066 0.25177 0.29961 0.0
C2353 C 0.59154 0.23067 0.2997 0.0
C2354 C 0.57338 0.26158 0.29275 0.0
C2355 C 0.55669 0.25049 0.2857 0.0
C2356 C 0.57456 0.21967 0.29322 0.0
C2357 C 0.55735 0.22946 0.28639 0.0
C2358 C 0.53835 0.26044 0.27783 0.0
C2359 C 0.58786 0.27684 0.23487 0.0
C2360 C 0.59224 0.2975 0.23342 0.0
C2361 C 0.57063 0.27 0.24482 0.0
C2362 C 0.55752 0.2836 0.25387 0.0
C2363 C 0.57903 0.31112 0.24239 0.0
C2364 C 0.56177 0.30423 0.2524 0.0
C2365 C 0.53879 0.2764 0.2637 0.0
H2366 H 0.44339 0.26851 0.22735 0.0
H2367 H 0.47298 0.25562 0.2446 0.0
H2368 H 0.46257 0.32913 0.24088 0.0
H2369 H 0.49193 0.31602 0.25886 0.0
H2370 H 0.43746 0.26292 0.30384 0.0
H2371 H 0.4686 0.27926 0.2925 0.0
H2372 H 0.4634 0.20496 0.29246 0.0
H2373 H 0.4941 0.22131 0.28057 0.0
H2374 H 0.60345 0.26071 0.30447 0.0
H2375 H 0.57311 0.27782 0.2929 0.0
H2376 H 0.57453 0.20342 0.29348 0.0
H2377 H 0.54461 0.22054 0.2813 0.0
H2378 H 0.59775 0.2659 0.22829 0.0
H2379 H 0.56744 0.25403 0.2452 0.0
H2380 H 0.58177 0.32713 0.24131 0.0
H2381 H 0.55172 0.31503 0.25898 0.0
N2382 N 0.521 0.28414 0.25725 0.0
N2383 N 0.52018 0.25335 0.28409 0.0
loop_
_geom_bond_atom_site_label_1
_geom_bond_atom_site_label_2
_geom_bond_distance
_geom_bond_site_symmetry_2
_ccdc_geom_bond_type
C0 C1 1.264 . S
C0 C5 1.479 . S
C0 C10 1.465 . S
C1 C0 1.264 . S
C1 C3 1.339 . S
C1 H28 0.931 . S
C2 C3 1.395 . S
C2 C4 1.320 . S
C3 C1 1.339 . S
C3 C2 1.395 . S
C3 H29 0.929 . S
C4 C2 1.320 . S
C4 C5 1.405 . S
C4 H30 0.930 . S
C5 C0 1.479 . S
C5 C4 1.405 . S
C5 H31 0.931 . S
U6 O7 2.454 . S
U6 O8 2.458 . S
U6 C9 2.984 . S
U6 C10 2.847 . S
U6 C23 2.882 . S
U6 O24 2.441 . S
U6 O25 2.420 . S
U6 O26 2.455 . S
U6 O27 2.449 . S
O7 U6 2.454 . S
O7 C9 1.353 . S
O8 U6 2.458 . S
O8 C9 1.286 . S
C9 U6 2.984 . S
C9 O7 1.353 . S
C9 O8 1.286 . S
C9 C11 1.363 . S
C10 C0 1.465 . S
C10 U6 2.847 . S
C10 O24 1.249 . S
C10 O25 1.202 . S
C11 C9 1.363 . S
C11 C13 1.408 . S
C11 C16 1.342 . S
C12 C13 1.310 . S
C12 C15 1.461 . S
C12 H32 0.932 . S
C13 C11 1.408 . S
C13 C12 1.310 . S
C13 H33 0.930 . S
C14 C15 1.474 . S
C14 C16 1.285 . S
C14 H34 0.929 . S
C15 C12 1.461 . S
C15 C14 1.474 . S
C16 C11 1.342 . S
C16 C14 1.285 . S
C16 H35 0.930 . S
C17 C20 1.424 . S
C17 C22 1.245 . S
C17 C23 1.428 . S
C18 C21 1.260 . S
C18 C22 1.477 . S
C18 H36 0.932 . S
C19 C20 1.384 . S
C19 C21 1.479 . S
C19 H37 0.929 . S
C20 C17 1.424 . S
C20 C19 1.384 . S
C20 H38 0.928 . S
C21 C18 1.260 . S
C21 C19 1.479 . S
C22 C17 1.245 . S
C22 C18 1.477 . S
C22 H39 0.932 . S
C23 U6 2.882 . S
C23 C17 1.428 . S
C23 O26 1.301 . S
C23 O27 1.282 . S
O24 U6 2.441 . S
O24 C10 1.249 . S
O25 U6 2.420 . S
O25 C10 1.202 . S
O26 U6 2.455 . S
O26 C23 1.301 . S
O27 U6 2.449 . S
O27 C23 1.282 . S
H28 C1 0.931 . S
H29 C3 0.929 . S
H30 C4 0.930 . S
H31 C5 0.931 . S
H32 C12 0.932 . S
H33 C13 0.930 . S
H34 C14 0.929 . S
H35 C16 0.930 . S
H36 C18 0.932 . S
H37 C19 0.929 . S
H38 C20 0.928 . S
H39 C22 0.932 . S
C40 C41 1.264 . S
C40 C45 1.479 . S
C40 C50 1.465 . S
C41 C40 1.264 . S
C41 C43 1.339 . S
C41 H68 0.931 . S
C42 C43 1.395 . S
C42 C44 1.320 . S
C43 C41 1.339 . S
C43 C42 1.395 . S
C43 H69 0.929 . S
C44 C42 1.320 . S
C44 C45 1.405 . S
C44 H70 0.930 . S
C45 C40 1.479 . S
C45 C44 1.405 . S
C45 H71 0.931 . S
U46 O47 2.454 . S
U46 O48 2.458 . S
U46 C49 2.984 . S
U46 C50 2.847 . S
U46 C63 2.882 . S
U46 O64 2.441 . S
U46 O65 2.420 . S
U46 O66 2.455 . S
U46 O67 2.449 . S
O47 U46 2.454 . S
O47 C49 1.353 . S
O48 U46 2.458 . S
O48 C49 1.286 . S
C49 U46 2.984 . S
C49 O47 1.353 . S
C49 O48 1.286 . S
C49 C51 1.363 . S
C50 C40 1.465 . S
C50 U46 2.847 . S
C50 O64 1.249 . S
C50 O65 1.202 . S
C51 C49 1.363 . S
C51 C53 1.408 . S
C51 C56 1.342 . S
C52 C53 1.310 . S
C52 C55 1.461 . S
C52 H72 0.932 . S
C53 C51 1.408 . S
C53 C52 1.310 . S
C53 H73 0.930 . S
C54 C55 1.474 . S
C54 C56 1.285 . S
C54 H74 0.929 . S
C55 C52 1.461 . S
C55 C54 1.474 . S
C56 C51 1.342 . S
C56 C54 1.285 . S
C56 H75 0.930 . S
C57 C60 1.424 . S
C57 C62 1.245 . S
C57 C63 1.428 . S
C58 C61 1.260 . S
C58 C62 1.477 . S
C58 H76 0.932 . S
C59 C60 1.384 . S
C59 C61 1.479 . S
C59 H77 0.929 . S
C60 C57 1.424 . S
C60 C59 1.384 . S
C60 H78 0.928 . S
C61 C58 1.260 . S
C61 C59 1.479 . S
C62 C57 1.245 . S
C62 C58 1.477 . S
C62 H79 0.932 . S
C63 U46 2.882 . S
C63 C57 1.428 . S
C63 O66 1.301 . S
C63 O67 1.282 . S
O64 U46 2.441 . S
O64 C50 1.249 . S
O65 U46 2.420 . S
O65 C50 1.202 . S
O66 U46 2.455 . S
O66 C63 1.301 . S
O67 U46 2.449 . S
O67 C63 1.282 . S
H68 C41 0.931 . S
H69 C43 0.929 . S
H70 C44 0.930 . S
H71 C45 0.931 . S
H72 C52 0.932 . S
H73 C53 0.930 . S
H74 C54 0.929 . S
H75 C56 0.930 . S
H76 C58 0.932 . S
H77 C59 0.929 . S
H78 C60 0.928 . S
H79 C62 0.932 . S
C80 C81 1.264 . S
C80 C85 1.479 . S
C80 C90 1.465 . S
C81 C80 1.264 . S
C81 C83 1.339 . S
C81 H108 0.931 . S
C82 C83 1.395 . S
C82 C84 1.320 . S
C83 C81 1.339 . S
C83 C82 1.395 . S
C83 H109 0.929 . S
C84 C82 1.320 . S
C84 C85 1.405 . S
C84 H110 0.930 . S
C85 C80 1.479 . S
C85 C84 1.405 . S
C85 H111 0.931 . S
U86 O87 2.454 . S
U86 O88 2.458 . S
U86 C89 2.984 . S
U86 C90 2.847 . S
U86 C103 2.882 . S
U86 O104 2.441 . S
U86 O105 2.420 . S
U86 O106 2.455 . S
U86 O107 2.449 . S
O87 U86 2.454 . S
O87 C89 1.353 . S
O88 U86 2.458 . S
O88 C89 1.286 . S
C89 U86 2.984 . S
C89 O87 1.353 . S
C89 O88 1.286 . S
C89 C91 1.363 . S
C90 C80 1.465 . S
C90 U86 2.847 . S
C90 O104 1.249 . S
C90 O105 1.202 . S
C91 C89 1.363 . S
C91 C93 1.408 . S
C91 C96 1.342 . S
C92 C93 1.310 . S
C92 C95 1.461 . S
C92 H112 0.932 . S
C93 C91 1.408 . S
C93 C92 1.310 . S
C93 H113 0.930 . S
C94 C95 1.474 . S
C94 C96 1.285 . S
C94 H114 0.929 . S
C95 C92 1.461 . S
C95 C94 1.474 . S
C96 C91 1.342 . S
C96 C94 1.285 . S
C96 H115 0.930 . S
C97 C100 1.424 . S
C97 C102 1.245 . S
C97 C103 1.428 . S
C98 C101 1.260 . S
C98 C102 1.477 . S
C98 H116 0.932 . S
C99 C100 1.384 . S
C99 C101 1.479 . S
C99 H117 0.929 . S
C100 C97 1.424 . S
C100 C99 1.384 . S
C100 H118 0.928 . S
C101 C98 1.260 . S
C101 C99 1.479 . S
C102 C97 1.245 . S
C102 C98 1.477 . S
C102 H119 0.932 . S
C103 U86 2.882 . S
C103 C97 1.428 . S
C103 O106 1.301 . S
C103 O107 1.282 . S
O104 U86 2.441 . S
O104 C90 1.249 . S
O105 U86 2.420 . S
O105 C90 1.202 . S
O106 U86 2.455 . S
O106 C103 1.301 . S
O107 U86 2.449 . S
O107 C103 1.282 . S
H108 C81 0.931 . S
H109 C83 0.929 . S
H110 C84 0.930 . S
H111 C85 0.931 . S
H112 C92 0.932 . S
H113 C93 0.930 . S
H114 C94 0.929 . S
H115 C96 0.930 . S
H116 C98 0.932 . S
H117 C99 0.929 . S
H118 C100 0.928 . S
H119 C102 0.932 . S
C120 C121 1.264 . S
C120 C125 1.479 . S
C120 C130 1.465 . S
C121 C120 1.264 . S
C121 C123 1.339 . S
C121 H148 0.931 . S
C122 C123 1.395 . S
C122 C124 1.320 . S
C123 C121 1.339 . S
C123 C122 1.395 . S
C123 H149 0.929 . S
C124 C122 1.320 . S
C124 C125 1.405 . S
C124 H150 0.930 . S
C125 C120 1.479 . S
C125 C124 1.405 . S
C125 H151 0.931 . S
U126 O127 2.454 . S
U126 O128 2.458 . S
U126 C129 2.984 . S
U126 C130 2.847 . S
U126 C143 2.882 . S
U126 O144 2.441 . S
U126 O145 2.420 . S
U126 O146 2.455 . S
U126 O147 2.449 . S
O127 U126 2.454 . S
O127 C129 1.353 . S
O128 U126 2.458 . S
O128 C129 1.286 . S
C129 U126 2.984 . S
C129 O127 1.353 . S
C129 O128 1.286 . S
C129 C131 1.363 . S
C130 C120 1.465 . S
C130 U126 2.847 . S
C130 O144 1.249 . S
C130 O145 1.202 . S
C131 C129 1.363 . S
C131 C133 1.408 . S
C131 C136 1.342 . S
C132 C133 1.310 . S
C132 C135 1.461 . S
C132 H152 0.932 . S
C133 C131 1.408 . S
C133 C132 1.310 . S
C133 H153 0.930 . S
C134 C135 1.474 . S
C134 C136 1.285 . S
C134 H154 0.929 . S
C135 C132 1.461 . S
C135 C134 1.474 . S
C136 C131 1.342 . S
C136 C134 1.285 . S
C136 H155 0.930 . S
C137 C140 1.424 . S
C137 C142 1.245 . S
C137 C143 1.428 . S
C138 C141 1.260 . S
C138 C142 1.477 . S
C138 H156 0.932 . S
C139 C140 1.384 . S
C139 C141 1.479 . S
C139 H157 0.929 . S
C140 C137 1.424 . S
C140 C139 1.384 . S
C140 H158 0.928 . S
C141 C138 1.260 . S
C141 C139 1.479 . S
C142 C137 1.245 . S
C142 C138 1.477 . S
C142 H159 0.932 . S
C143 U126 2.882 . S
C143 C137 1.428 . S
C143 O146 1.301 . S
C143 O147 1.282 . S
O144 U126 2.441 . S
O144 C130 1.249 . S
O145 U126 2.420 . S
O145 C130 1.202 . S
O146 U126 2.455 . S
O146 C143 1.301 . S
O147 U126 2.449 . S
O147 C143 1.282 . S
H148 C121 0.931 . S
H149 C123 0.929 . S
H150 C124 0.930 . S
H151 C125 0.931 . S
H152 C132 0.932 . S
H153 C133 0.930 . S
H154 C134 0.929 . S
H155 C136 0.930 . S
H156 C138 0.932 . S
H157 C139 0.929 . S
H158 C140 0.928 . S
H159 C142 0.932 . S
C160 C161 1.264 . S
C160 C165 1.479 . S
C160 C170 1.465 . S
C161 C160 1.264 . S
C161 C163 1.339 . S
C161 H188 0.931 . S
C162 C163 1.395 . S
C162 C164 1.320 . S
C163 C161 1.339 . S
C163 C162 1.395 . S
C163 H189 0.929 . S
C164 C162 1.320 . S
C164 C165 1.405 . S
C164 H190 0.930 . S
C165 C160 1.479 . S
C165 C164 1.405 . S
C165 H191 0.931 . S
U166 O167 2.454 . S
U166 O168 2.458 . S
U166 C169 2.984 . S
U166 C170 2.847 . S
U166 C183 2.882 . S
U166 O184 2.441 . S
U166 O185 2.420 . S
U166 O186 2.455 . S
U166 O187 2.449 . S
O167 U166 2.454 . S
O167 C169 1.353 . S
O168 U166 2.458 . S
O168 C169 1.286 . S
C169 U166 2.984 . S
C169 O167 1.353 . S
C169 O168 1.286 . S
C169 C171 1.363 . S
C170 C160 1.465 . S
C170 U166 2.847 . S
C170 O184 1.249 . S
C170 O185 1.202 . S
C171 C169 1.363 . S
C171 C173 1.408 . S
C171 C176 1.342 . S
C172 C173 1.310 . S
C172 C175 1.461 . S
C172 H192 0.932 . S
C173 C171 1.408 . S
C173 C172 1.310 . S
C173 H193 0.930 . S
C174 C175 1.474 . S
C174 C176 1.285 . S
C174 H194 0.929 . S
C175 C172 1.461 . S
C175 C174 1.474 . S
C176 C171 1.342 . S
C176 C174 1.285 . S
C176 H195 0.930 . S
C177 C180 1.424 . S
C177 C182 1.245 . S
C177 C183 1.428 . S
C178 C181 1.260 . S
C178 C182 1.477 . S
C178 H196 0.932 . S
C179 C180 1.384 . S
C179 C181 1.479 . S
C179 H197 0.929 . S
C180 C177 1.424 . S
C180 C179 1.384 . S
C180 H198 0.928 . S
C181 C178 1.260 . S
C181 C179 1.479 . S
C182 C177 1.245 . S
C182 C178 1.477 . S
C182 H199 0.932 . S
C183 U166 2.882 . S
C183 C177 1.428 . S
C183 O186 1.301 . S
C183 O187 1.282 . S
O184 U166 2.441 . S
O184 C170 1.249 . S
O185 U166 2.420 . S
O185 C170 1.202 . S
O186 U166 2.455 . S
O186 C183 1.301 . S
O187 U166 2.449 . S
O187 C183 1.282 . S
H188 C161 0.931 . S
H189 C163 0.929 . S
H190 C164 0.930 . S
H191 C165 0.931 . S
H192 C172 0.932 . S
H193 C173 0.930 . S
H194 C174 0.929 . S
H195 C176 0.930 . S
H196 C178 0.932 . S
H197 C179 0.929 . S
H198 C180 0.928 . S
H199 C182 0.932 . S
C200 C201 1.264 . S
C200 C205 1.479 . S
C200 C210 1.465 . S
C201 C200 1.264 . S
C201 C203 1.339 . S
C201 H228 0.931 . S
C202 C203 1.395 . S
C202 C204 1.320 . S
C203 C201 1.339 . S
C203 C202 1.395 . S
C203 H229 0.929 . S
C204 C202 1.320 . S
C204 C205 1.405 . S
C204 H230 0.930 . S
C205 C200 1.479 . S
C205 C204 1.405 . S
C205 H231 0.931 . S
U206 O207 2.454 . S
U206 O208 2.458 . S
U206 C209 2.984 . S
U206 C210 2.847 . S
U206 C223 2.882 . S
U206 O224 2.441 . S
U206 O225 2.420 . S
U206 O226 2.455 . S
U206 O227 2.449 . S
O207 U206 2.454 . S
O207 C209 1.353 . S
O208 U206 2.458 . S
O208 C209 1.286 . S
C209 U206 2.984 . S
C209 O207 1.353 . S
C209 O208 1.286 . S
C209 C211 1.363 . S
C210 C200 1.465 . S
C210 U206 2.847 . S
C210 O224 1.249 . S
C210 O225 1.202 . S
C211 C209 1.363 . S
C211 C213 1.408 . S
C211 C216 1.342 . S
C212 C213 1.310 . S
C212 C215 1.461 . S
C212 H232 0.932 . S
C213 C211 1.408 . S
C213 C212 1.310 . S
C213 H233 0.930 . S
C214 C215 1.474 . S
C214 C216 1.285 . S
C214 H234 0.929 . S
C215 C212 1.461 . S
C215 C214 1.474 . S
C216 C211 1.342 . S
C216 C214 1.285 . S
C216 H235 0.930 . S
C217 C220 1.424 . S
C217 C222 1.245 . S
C217 C223 1.428 . S
C218 C221 1.260 . S
C218 C222 1.477 . S
C218 H236 0.932 . S
C219 C220 1.384 . S
C219 C221 1.479 . S
C219 H237 0.929 . S
C220 C217 1.424 . S
C220 C219 1.384 . S
C220 H238 0.928 . S
C221 C218 1.260 . S
C221 C219 1.479 . S
C222 C217 1.245 . S
C222 C218 1.477 . S
C222 H239 0.932 . S
C223 U206 2.882 . S
C223 C217 1.428 . S
C223 O226 1.301 . S
C223 O227 1.282 . S
O224 U206 2.441 . S
O224 C210 1.249 . S
O225 U206 2.420 . S
O225 C210 1.202 . S
O226 U206 2.455 . S
O226 C223 1.301 . S
O227 U206 2.449 . S
O227 C223 1.282 . S
H228 C201 0.931 . S
H229 C203 0.929 . S
H230 C204 0.930 . S
H231 C205 0.931 . S
H232 C212 0.932 . S
H233 C213 0.930 . S
H234 C214 0.929 . S
H235 C216 0.930 . S
H236 C218 0.932 . S
H237 C219 0.929 . S
H238 C220 0.928 . S
H239 C222 0.932 . S
C240 C241 1.264 . S
C240 C245 1.479 . S
C240 C250 1.465 . S
C241 C240 1.264 . S
C241 C243 1.339 . S
C241 H268 0.931 . S
C242 C243 1.395 . S
C242 C244 1.320 . S
C243 C241 1.339 . S
C243 C242 1.395 . S
C243 H269 0.929 . S
C244 C242 1.320 . S
C244 C245 1.405 . S
C244 H270 0.930 . S
C245 C240 1.479 . S
C245 C244 1.405 . S
C245 H271 0.931 . S
U246 O247 2.454 . S
U246 O248 2.458 . S
U246 C249 2.984 . S
U246 C250 2.847 . S
U246 C263 2.882 . S
U246 O264 2.441 . S
U246 O265 2.420 . S
U246 O266 2.455 . S
U246 O267 2.449 . S
O247 U246 2.454 . S
O247 C249 1.353 . S
O248 U246 2.458 . S
O248 C249 1.286 . S
C249 U246 2.984 . S
C249 O247 1.353 . S
C249 O248 1.286 . S
C249 C251 1.363 . S
C250 C240 1.465 . S
C250 U246 2.847 . S
C250 O264 1.249 . S
C250 O265 1.202 . S
C251 C249 1.363 . S
C251 C253 1.408 . S
C251 C256 1.342 . S
C252 C253 1.310 . S
C252 C255 1.461 . S
C252 H272 0.932 . S
C253 C251 1.408 . S
C253 C252 1.310 . S
C253 H273 0.930 . S
C254 C255 1.474 . S
C254 C256 1.285 . S
C254 H274 0.929 . S
C255 C252 1.461 . S
C255 C254 1.474 . S
C256 C251 1.342 . S
C256 C254 1.285 . S
C256 H275 0.930 . S
C257 C260 1.424 . S
C257 C262 1.245 . S
C257 C263 1.428 . S
C258 C261 1.260 . S
C258 C262 1.477 . S
C258 H276 0.932 . S
C259 C260 1.384 . S
C259 C261 1.479 . S
C259 H277 0.929 . S
C260 C257 1.424 . S
C260 C259 1.384 . S
C260 H278 0.928 . S
C261 C258 1.260 . S
C261 C259 1.479 . S
C262 C257 1.245 . S
C262 C258 1.477 . S
C262 H279 0.932 . S
C263 U246 2.882 . S
C263 C257 1.428 . S
C263 O266 1.301 . S
C263 O267 1.282 . S
O264 U246 2.441 . S
O264 C250 1.249 . S
O265 U246 2.420 . S
O265 C250 1.202 . S
O266 U246 2.455 . S
O266 C263 1.301 . S
O267 U246 2.449 . S
O267 C263 1.282 . S
H268 C241 0.931 . S
H269 C243 0.929 . S
H270 C244 0.930 . S
H271 C245 0.931 . S
H272 C252 0.932 . S
H273 C253 0.930 . S
H274 C254 0.929 . S
H275 C256 0.930 . S
H276 C258 0.932 . S
H277 C259 0.929 . S
H278 C260 0.928 . S
H279 C262 0.932 . S
C280 C281 1.264 . S
C280 C285 1.479 . S
C280 C290 1.465 . S
C281 C280 1.264 . S
C281 C283 1.339 . S
C281 H308 0.931 . S
C282 C283 1.395 . S
C282 C284 1.320 . S
C283 C281 1.339 . S
C283 C282 1.395 . S
C283 H309 0.929 . S
C284 C282 1.320 . S
C284 C285 1.405 . S
C284 H310 0.930 . S
C285 C280 1.479 . S
C285 C284 1.405 . S
C285 H311 0.931 . S
U286 O287 2.454 . S
U286 O288 2.458 . S
U286 C289 2.984 . S
U286 C290 2.847 . S
U286 C303 2.882 . S
U286 O304 2.441 . S
U286 O305 2.420 . S
U286 O306 2.455 . S
U286 O307 2.449 . S
O287 U286 2.454 . S
O287 C289 1.353 . S
O288 U286 2.458 . S
O288 C289 1.286 . S
C289 U286 2.984 . S
C289 O287 1.353 . S
C289 O288 1.286 . S
C289 C291 1.363 . S
C290 C280 1.465 . S
C290 U286 2.847 . S
C290 O304 1.249 . S
C290 O305 1.202 . S
C291 C289 1.363 . S
C291 C293 1.408 . S
C291 C296 1.342 . S
C292 C293 1.310 . S
C292 C295 1.461 . S
C292 H312 0.932 . S
C293 C291 1.408 . S
C293 C292 1.310 . S
C293 H313 0.930 . S
C294 C295 1.474 . S
C294 C296 1.285 . S
C294 H314 0.929 . S
C295 C292 1.461 . S
C295 C294 1.474 . S
C296 C291 1.342 . S
C296 C294 1.285 . S
C296 H315 0.930 . S
C297 C300 1.424 . S
C297 C302 1.245 . S
C297 C303 1.428 . S
C298 C301 1.260 . S
C298 C302 1.477 . S
C298 H316 0.932 . S
C299 C300 1.384 . S
C299 C301 1.479 . S
C299 H317 0.929 . S
C300 C297 1.424 . S
C300 C299 1.384 . S
C300 H318 0.928 . S
C301 C298 1.260 . S
C301 C299 1.479 . S
C302 C297 1.245 . S
C302 C298 1.477 . S
C302 H319 0.932 . S
C303 U286 2.882 . S
C303 C297 1.428 . S
C303 O306 1.301 . S
C303 O307 1.282 . S
O304 U286 2.441 . S
O304 C290 1.249 . S
O305 U286 2.420 . S
O305 C290 1.202 . S
O306 U286 2.455 . S
O306 C303 1.301 . S
O307 U286 2.449 . S
O307 C303 1.282 . S
H308 C281 0.931 . S
H309 C283 0.929 . S
H310 C284 0.930 . S
H311 C285 0.931 . S
H312 C292 0.932 . S
H313 C293 0.930 . S
H314 C294 0.929 . S
H315 C296 0.930 . S
H316 C298 0.932 . S
H317 C299 0.929 . S
H318 C300 0.928 . S
H319 C302 0.932 . S
C320 C321 1.264 . S
C320 C325 1.479 . S
C320 C330 1.465 . S
C321 C320 1.264 . S
C321 C323 1.339 . S
C321 H348 0.931 . S
C322 C323 1.395 . S
C322 C324 1.320 . S
C323 C321 1.339 . S
C323 C322 1.395 . S
C323 H349 0.929 . S
C324 C322 1.320 . S
C324 C325 1.405 . S
C324 H350 0.930 . S
C325 C320 1.479 . S
C325 C324 1.405 . S
C325 H351 0.931 . S
U326 O327 2.454 . S
U326 O328 2.458 . S
U326 C329 2.984 . S
U326 C330 2.847 . S
U326 C343 2.882 . S
U326 O344 2.441 . S
U326 O345 2.420 . S
U326 O346 2.455 . S
U326 O347 2.449 . S
O327 U326 2.454 . S
O327 C329 1.353 . S
O328 U326 2.458 . S
O328 C329 1.286 . S
C329 U326 2.984 . S
C329 O327 1.353 . S
C329 O328 1.286 . S
C329 C331 1.363 . S
C330 C320 1.465 . S
C330 U326 2.847 . S
C330 O344 1.249 . S
C330 O345 1.202 . S
C331 C329 1.363 . S
C331 C333 1.408 . S
C331 C336 1.342 . S
C332 C333 1.310 . S
C332 C335 1.461 . S
C332 H352 0.932 . S
C333 C331 1.408 . S
C333 C332 1.310 . S
C333 H353 0.930 . S
C334 C335 1.474 . S
C334 C336 1.285 . S
C334 H354 0.929 . S
C335 C332 1.461 . S
C335 C334 1.474 . S
C336 C331 1.342 . S
C336 C334 1.285 . S
C336 H355 0.930 . S
C337 C340 1.424 . S
C337 C342 1.245 . S
C337 C343 1.428 . S
C338 C341 1.260 . S
C338 C342 1.477 . S
C338 H356 0.932 . S
C339 C340 1.384 . S
C339 C341 1.479 . S
C339 H357 0.929 . S
C340 C337 1.424 . S
C340 C339 1.384 . S
C340 H358 0.928 . S
C341 C338 1.260 . S
C341 C339 1.479 . S
C342 C337 1.245 . S
C342 C338 1.477 . S
C342 H359 0.932 . S
C343 U326 2.882 . S
C343 C337 1.428 . S
C343 O346 1.301 . S
C343 O347 1.282 . S
O344 U326 2.441 . S
O344 C330 1.249 . S
O345 U326 2.420 . S
O345 C330 1.202 . S
O346 U326 2.455 . S
O346 C343 1.301 . S
O347 U326 2.449 . S
O347 C343 1.282 . S
H348 C321 0.931 . S
H349 C323 0.929 . S
H350 C324 0.930 . S
H351 C325 0.931 . S
H352 C332 0.932 . S
H353 C333 0.930 . S
H354 C334 0.929 . S
H355 C336 0.930 . S
H356 C338 0.932 . S
H357 C339 0.929 . S
H358 C340 0.928 . S
H359 C342 0.932 . S
C360 C361 1.264 . S
C360 C365 1.479 . S
C360 C370 1.465 . S
C361 C360 1.264 . S
C361 C363 1.339 . S
C361 H388 0.931 . S
C362 C363 1.395 . S
C362 C364 1.320 . S
C363 C361 1.339 . S
C363 C362 1.395 . S
C363 H389 0.929 . S
C364 C362 1.320 . S
C364 C365 1.405 . S
C364 H390 0.930 . S
C365 C360 1.479 . S
C365 C364 1.405 . S
C365 H391 0.931 . S
U366 O367 2.454 . S
U366 O368 2.458 . S
U366 C369 2.984 . S
U366 C370 2.847 . S
U366 C383 2.882 . S
U366 O384 2.441 . S
U366 O385 2.420 . S
U366 O386 2.455 . S
U366 O387 2.449 . S
O367 U366 2.454 . S
O367 C369 1.353 . S
O368 U366 2.458 . S
O368 C369 1.286 . S
C369 U366 2.984 . S
C369 O367 1.353 . S
C369 O368 1.286 . S
C369 C371 1.363 . S
C370 C360 1.465 . S
C370 U366 2.847 . S
C370 O384 1.249 . S
C370 O385 1.202 . S
C371 C369 1.363 . S
C371 C373 1.408 . S
C371 C376 1.342 . S
C372 C373 1.310 . S
C372 C375 1.461 . S
C372 H392 0.932 . S
C373 C371 1.408 . S
C373 C372 1.310 . S
C373 H393 0.930 . S
C374 C375 1.474 . S
C374 C376 1.285 . S
C374 H394 0.929 . S
C375 C372 1.461 . S
C375 C374 1.474 . S
C376 C371 1.342 . S
C376 C374 1.285 . S
C376 H395 0.930 . S
C377 C380 1.424 . S
C377 C382 1.245 . S
C377 C383 1.428 . S
C378 C381 1.260 . S
C378 C382 1.477 . S
C378 H396 0.932 . S
C379 C380 1.384 . S
C379 C381 1.479 . S
C379 H397 0.929 . S
C380 C377 1.424 . S
C380 C379 1.384 . S
C380 H398 0.928 . S
C381 C378 1.260 . S
C381 C379 1.479 . S
C382 C377 1.245 . S
C382 C378 1.477 . S
C382 H399 0.932 . S
C383 U366 2.882 . S
C383 C377 1.428 . S
C383 O386 1.301 . S
C383 O387 1.282 . S
O384 U366 2.441 . S
O384 C370 1.249 . S
O385 U366 2.420 . S
O385 C370 1.202 . S
O386 U366 2.455 . S
O386 C383 1.301 . S
O387 U366 2.449 . S
O387 C383 1.282 . S
H388 C361 0.931 . S
H389 C363 0.929 . S
H390 C364 0.930 . S
H391 C365 0.931 . S
H392 C372 0.932 . S
H393 C373 0.930 . S
H394 C374 0.929 . S
H395 C376 0.930 . S
H396 C378 0.932 . S
H397 C379 0.929 . S
H398 C380 0.928 . S
H399 C382 0.932 . S
C400 C401 1.264 . S
C400 C405 1.479 . S
C400 C410 1.465 . S
C401 C400 1.264 . S
C401 C403 1.339 . S
C401 H428 0.931 . S
C402 C403 1.395 . S
C402 C404 1.320 . S
C403 C401 1.339 . S
C403 C402 1.395 . S
C403 H429 0.929 . S
C404 C402 1.320 . S
C404 C405 1.405 . S
C404 H430 0.930 . S
C405 C400 1.479 . S
C405 C404 1.405 . S
C405 H431 0.931 . S
U406 O407 2.454 . S
U406 O408 2.458 . S
U406 C409 2.984 . S
U406 C410 2.847 . S
U406 C423 2.882 . S
U406 O424 2.441 . S
U406 O425 2.420 . S
U406 O426 2.455 . S
U406 O427 2.449 . S
O407 U406 2.454 . S
O407 C409 1.353 . S
O408 U406 2.458 . S
O408 C409 1.286 . S
C409 U406 2.984 . S
C409 O407 1.353 . S
C409 O408 1.286 . S
C409 C411 1.363 . S
C410 C400 1.465 . S
C410 U406 2.847 . S
C410 O424 1.249 . S
C410 O425 1.202 . S
C411 C409 1.363 . S
C411 C413 1.408 . S
C411 C416 1.342 . S
C412 C413 1.310 . S
C412 C415 1.461 . S
C412 H432 0.932 . S
C413 C411 1.408 . S
C413 C412 1.310 . S
C413 H433 0.930 . S
C414 C415 1.474 . S
C414 C416 1.285 . S
C414 H434 0.929 . S
C415 C412 1.461 . S
C415 C414 1.474 . S
C416 C411 1.342 . S
C416 C414 1.285 . S
C416 H435 0.930 . S
C417 C420 1.424 . S
C417 C422 1.245 . S
C417 C423 1.428 . S
C418 C421 1.260 . S
C418 C422 1.477 . S
C418 H436 0.932 . S
C419 C420 1.384 . S
C419 C421 1.479 . S
C419 H437 0.929 . S
C420 C417 1.424 . S
C420 C419 1.384 . S
C420 H438 0.928 . S
C421 C418 1.260 . S
C421 C419 1.479 . S
C422 C417 1.245 . S
C422 C418 1.477 . S
C422 H439 0.932 . S
C423 U406 2.882 . S
C423 C417 1.428 . S
C423 O426 1.301 . S
C423 O427 1.282 . S
O424 U406 2.441 . S
O424 C410 1.249 . S
O425 U406 2.420 . S
O425 C410 1.202 . S
O426 U406 2.455 . S
O426 C423 1.301 . S
O427 U406 2.449 . S
O427 C423 1.282 . S
H428 C401 0.931 . S
H429 C403 0.929 . S
H430 C404 0.930 . S
H431 C405 0.931 . S
H432 C412 0.932 . S
H433 C413 0.930 . S
H434 C414 0.929 . S
H435 C416 0.930 . S
H436 C418 0.932 . S
H437 C419 0.929 . S
H438 C420 0.928 . S
H439 C422 0.932 . S
C440 C441 1.264 . S
C440 C445 1.479 . S
C440 C450 1.465 . S
C441 C440 1.264 . S
C441 C443 1.339 . S
C441 H468 0.931 . S
C442 C443 1.395 . S
C442 C444 1.320 . S
C443 C441 1.339 . S
C443 C442 1.395 . S
C443 H469 0.929 . S
C444 C442 1.320 . S
C444 C445 1.405 . S
C444 H470 0.930 . S
C445 C440 1.479 . S
C445 C444 1.405 . S
C445 H471 0.931 . S
U446 O447 2.454 . S
U446 O448 2.458 . S
U446 C449 2.984 . S
U446 C450 2.847 . S
U446 C463 2.882 . S
U446 O464 2.441 . S
U446 O465 2.420 . S
U446 O466 2.455 . S
U446 O467 2.449 . S
O447 U446 2.454 . S
O447 C449 1.353 . S
O448 U446 2.458 . S
O448 C449 1.286 . S
C449 U446 2.984 . S
C449 O447 1.353 . S
C449 O448 1.286 . S
C449 C451 1.363 . S
C450 C440 1.465 . S
C450 U446 2.847 . S
C450 O464 1.249 . S
C450 O465 1.202 . S
C451 C449 1.363 . S
C451 C453 1.408 . S
C451 C456 1.342 . S
C452 C453 1.310 . S
C452 C455 1.461 . S
C452 H472 0.932 . S
C453 C451 1.408 . S
C453 C452 1.310 . S
C453 H473 0.930 . S
C454 C455 1.474 . S
C454 C456 1.285 . S
C454 H474 0.929 . S
C455 C452 1.461 . S
C455 C454 1.474 . S
C456 C451 1.342 . S
C456 C454 1.285 . S
C456 H475 0.930 . S
C457 C460 1.424 . S
C457 C462 1.245 . S
C457 C463 1.428 . S
C458 C461 1.260 . S
C458 C462 1.477 . S
C458 H476 0.932 . S
C459 C460 1.384 . S
C459 C461 1.479 . S
C459 H477 0.929 . S
C460 C457 1.424 . S
C460 C459 1.384 . S
C460 H478 0.928 . S
C461 C458 1.260 . S
C461 C459 1.479 . S
C462 C457 1.245 . S
C462 C458 1.477 . S
C462 H479 0.932 . S
C463 U446 2.882 . S
C463 C457 1.428 . S
C463 O466 1.301 . S
C463 O467 1.282 . S
O464 U446 2.441 . S
O464 C450 1.249 . S
O465 U446 2.420 . S
O465 C450 1.202 . S
O466 U446 2.455 . S
O466 C463 1.301 . S
O467 U446 2.449 . S
O467 C463 1.282 . S
H468 C441 0.931 . S
H469 C443 0.929 . S
H470 C444 0.930 . S
H471 C445 0.931 . S
H472 C452 0.932 . S
H473 C453 0.930 . S
H474 C454 0.929 . S
H475 C456 0.930 . S
H476 C458 0.932 . S
H477 C459 0.929 . S
H478 C460 0.928 . S
H479 C462 0.932 . S
C480 C481 1.264 . S
C480 C485 1.479 . S
C480 C490 1.465 . S
C481 C480 1.264 . S
C481 C483 1.339 . S
C481 H508 0.931 . S
C482 C483 1.395 . S
C482 C484 1.320 . S
C483 C481 1.339 . S
C483 C482 1.395 . S
C483 H509 0.929 . S
C484 C482 1.320 . S
C484 C485 1.405 . S
C484 H510 0.930 . S
C485 C480 1.479 . S
C485 C484 1.405 . S
C485 H511 0.931 . S
U486 O487 2.454 . S
U486 O488 2.458 . S
U486 C489 2.984 . S
U486 C490 2.847 . S
U486 C503 2.882 . S
U486 O504 2.441 . S
U486 O505 2.420 . S
U486 O506 2.455 . S
U486 O507 2.449 . S
O487 U486 2.454 . S
O487 C489 1.353 . S
O488 U486 2.458 . S
O488 C489 1.286 . S
C489 U486 2.984 . S
C489 O487 1.353 . S
C489 O488 1.286 . S
C489 C491 1.363 . S
C490 C480 1.465 . S
C490 U486 2.847 . S
C490 O504 1.249 . S
C490 O505 1.202 . S
C491 C489 1.363 . S
C491 C493 1.408 . S
C491 C496 1.342 . S
C492 C493 1.310 . S
C492 C495 1.461 . S
C492 H512 0.932 . S
C493 C491 1.408 . S
C493 C492 1.310 . S
C493 H513 0.930 . S
C494 C495 1.474 . S
C494 C496 1.285 . S
C494 H514 0.929 . S
C495 C492 1.461 . S
C495 C494 1.474 . S
C496 C491 1.342 . S
C496 C494 1.285 . S
C496 H515 0.930 . S
C497 C500 1.424 . S
C497 C502 1.245 . S
C497 C503 1.428 . S
C498 C501 1.260 . S
C498 C502 1.477 . S
C498 H516 0.932 . S
C499 C500 1.384 . S
C499 C501 1.479 . S
C499 H517 0.929 . S
C500 C497 1.424 . S
C500 C499 1.384 . S
C500 H518 0.928 . S
C501 C498 1.260 . S
C501 C499 1.479 . S
C502 C497 1.245 . S
C502 C498 1.477 . S
C502 H519 0.932 . S
C503 U486 2.882 . S
C503 C497 1.428 . S
C503 O506 1.301 . S
C503 O507 1.282 . S
O504 U486 2.441 . S
O504 C490 1.249 . S
O505 U486 2.420 . S
O505 C490 1.202 . S
O506 U486 2.455 . S
O506 C503 1.301 . S
O507 U486 2.449 . S
O507 C503 1.282 . S
H508 C481 0.931 . S
H509 C483 0.929 . S
H510 C484 0.930 . S
H511 C485 0.931 . S
H512 C492 0.932 . S
H513 C493 0.930 . S
H514 C494 0.929 . S
H515 C496 0.930 . S
H516 C498 0.932 . S
H517 C499 0.929 . S
H518 C500 0.928 . S
H519 C502 0.932 . S
C520 C521 1.264 . S
C520 C525 1.479 . S
C520 C530 1.465 . S
C521 C520 1.264 . S
C521 C523 1.339 . S
C521 H548 0.931 . S
C522 C523 1.395 . S
C522 C524 1.320 . S
C523 C521 1.339 . S
C523 C522 1.395 . S
C523 H549 0.929 . S
C524 C522 1.320 . S
C524 C525 1.405 . S
C524 H550 0.930 . S
C525 C520 1.479 . S
C525 C524 1.405 . S
C525 H551 0.931 . S
U526 O527 2.454 . S
U526 O528 2.458 . S
U526 C529 2.984 . S
U526 C530 2.847 . S
U526 C543 2.882 . S
U526 O544 2.441 . S
U526 O545 2.420 . S
U526 O546 2.455 . S
U526 O547 2.449 . S
O527 U526 2.454 . S
O527 C529 1.353 . S
O528 U526 2.458 . S
O528 C529 1.286 . S
C529 U526 2.984 . S
C529 O527 1.353 . S
C529 O528 1.286 . S
C529 C531 1.363 . S
C530 C520 1.465 . S
C530 U526 2.847 . S
C530 O544 1.249 . S
C530 O545 1.202 . S
C531 C529 1.363 . S
C531 C533 1.408 . S
C531 C536 1.342 . S
C532 C533 1.310 . S
C532 C535 1.461 . S
C532 H552 0.932 . S
C533 C531 1.408 . S
C533 C532 1.310 . S
C533 H553 0.930 . S
C534 C535 1.474 . S
C534 C536 1.285 . S
C534 H554 0.929 . S
C535 C532 1.461 . S
C535 C534 1.474 . S
C536 C531 1.342 . S
C536 C534 1.285 . S
C536 H555 0.930 . S
C537 C540 1.424 . S
C537 C542 1.245 . S
C537 C543 1.428 . S
C538 C541 1.260 . S
C538 C542 1.477 . S
C538 H556 0.932 . S
C539 C540 1.384 . S
C539 C541 1.479 . S
C539 H557 0.929 . S
C540 C537 1.424 . S
C540 C539 1.384 . S
C540 H558 0.928 . S
C541 C538 1.260 . S
C541 C539 1.479 . S
C542 C537 1.245 . S
C542 C538 1.477 . S
C542 H559 0.932 . S
C543 U526 2.882 . S
C543 C537 1.428 . S
C543 O546 1.301 . S
C543 O547 1.282 . S
O544 U526 2.441 . S
O544 C530 1.249 . S
O545 U526 2.420 . S
O545 C530 1.202 . S
O546 U526 2.455 . S
O546 C543 1.301 . S
O547 U526 2.449 . S
O547 C543 1.282 . S
H548 C521 0.931 . S
H549 C523 0.929 . S
H550 C524 0.930 . S
H551 C525 0.931 . S
H552 C532 0.932 . S
H553 C533 0.930 . S
H554 C534 0.929 . S
H555 C536 0.930 . S
H556 C538 0.932 . S
H557 C539 0.929 . S
H558 C540 0.928 . S
H559 C542 0.932 . S
C560 C561 1.264 . S
C560 C565 1.479 . S
C560 C570 1.465 . S
C561 C560 1.264 . S
C561 C563 1.339 . S
C561 H588 0.931 . S
C562 C563 1.395 . S
C562 C564 1.320 . S
C563 C561 1.339 . S
C563 C562 1.395 . S
C563 H589 0.929 . S
C564 C562 1.320 . S
C564 C565 1.405 . S
C564 H590 0.930 . S
C565 C560 1.479 . S
C565 C564 1.405 . S
C565 H591 0.931 . S
U566 O567 2.454 . S
U566 O568 2.458 . S
U566 C569 2.984 . S
U566 C570 2.847 . S
U566 C583 2.882 . S
U566 O584 2.441 . S
U566 O585 2.420 . S
U566 O586 2.455 . S
U566 O587 2.449 . S
O567 U566 2.454 . S
O567 C569 1.353 . S
O568 U566 2.458 . S
O568 C569 1.286 . S
C569 U566 2.984 . S
C569 O567 1.353 . S
C569 O568 1.286 . S
C569 C571 1.363 . S
C570 C560 1.465 . S
C570 U566 2.847 . S
C570 O584 1.249 . S
C570 O585 1.202 . S
C571 C569 1.363 . S
C571 C573 1.408 . S
C571 C576 1.342 . S
C572 C573 1.310 . S
C572 C575 1.461 . S
C572 H592 0.932 . S
C573 C571 1.408 . S
C573 C572 1.310 . S
C573 H593 0.930 . S
C574 C575 1.474 . S
C574 C576 1.285 . S
C574 H594 0.929 . S
C575 C572 1.461 . S
C575 C574 1.474 . S
C576 C571 1.342 . S
C576 C574 1.285 . S
C576 H595 0.930 . S
C577 C580 1.424 . S
C577 C582 1.245 . S
C577 C583 1.428 . S
C578 C581 1.260 . S
C578 C582 1.477 . S
C578 H596 0.932 . S
C579 C580 1.384 . S
C579 C581 1.479 . S
C579 H597 0.929 . S
C580 C577 1.424 . S
C580 C579 1.384 . S
C580 H598 0.928 . S
C581 C578 1.260 . S
C581 C579 1.479 . S
C582 C577 1.245 . S
C582 C578 1.477 . S
C582 H599 0.932 . S
C583 U566 2.882 . S
C583 C577 1.428 . S
C583 O586 1.301 . S
C583 O587 1.282 . S
O584 U566 2.441 . S
O584 C570 1.249 . S
O585 U566 2.420 . S
O585 C570 1.202 . S
O586 U566 2.455 . S
O586 C583 1.301 . S
O587 U566 2.449 . S
O587 C583 1.282 . S
H588 C561 0.931 . S
H589 C563 0.929 . S
H590 C564 0.930 . S
H591 C565 0.931 . S
H592 C572 0.932 . S
H593 C573 0.930 . S
H594 C574 0.929 . S
H595 C576 0.930 . S
H596 C578 0.932 . S
H597 C579 0.929 . S
H598 C580 0.928 . S
H599 C582 0.932 . S
C600 C601 1.264 . S
C600 C605 1.479 . S
C600 C610 1.465 . S
C601 C600 1.264 . S
C601 C603 1.339 . S
C601 H628 0.931 . S
C602 C603 1.395 . S
C602 C604 1.320 . S
C603 C601 1.339 . S
C603 C602 1.395 . S
C603 H629 0.929 . S
C604 C602 1.320 . S
C604 C605 1.405 . S
C604 H630 0.930 . S
C605 C600 1.479 . S
C605 C604 1.405 . S
C605 H631 0.931 . S
U606 O607 2.454 . S
U606 O608 2.458 . S
U606 C609 2.984 . S
U606 C610 2.847 . S
U606 C623 2.882 . S
U606 O624 2.441 . S
U606 O625 2.420 . S
U606 O626 2.455 . S
U606 O627 2.449 . S
O607 U606 2.454 . S
O607 C609 1.353 . S
O608 U606 2.458 . S
O608 C609 1.286 . S
C609 U606 2.984 . S
C609 O607 1.353 . S
C609 O608 1.286 . S
C609 C611 1.363 . S
C610 C600 1.465 . S
C610 U606 2.847 . S
C610 O624 1.249 . S
C610 O625 1.202 . S
C611 C609 1.363 . S
C611 C613 1.408 . S
C611 C616 1.342 . S
C612 C613 1.310 . S
C612 C615 1.461 . S
C612 H632 0.932 . S
C613 C611 1.408 . S
C613 C612 1.310 . S
C613 H633 0.930 . S
C614 C615 1.474 . S
C614 C616 1.285 . S
C614 H634 0.929 . S
C615 C612 1.461 . S
C615 C614 1.474 . S
C616 C611 1.342 . S
C616 C614 1.285 . S
C616 H635 0.930 . S
C617 C620 1.424 . S
C617 C622 1.245 . S
C617 C623 1.428 . S
C618 C621 1.260 . S
C618 C622 1.477 . S
C618 H636 0.932 . S
C619 C620 1.384 . S
C619 C621 1.479 . S
C619 H637 0.929 . S
C620 C617 1.424 . S
C620 C619 1.384 . S
C620 H638 0.928 . S
C621 C618 1.260 . S
C621 C619 1.479 . S
C622 C617 1.245 . S
C622 C618 1.477 . S
C622 H639 0.932 . S
C623 U606 2.882 . S
C623 C617 1.428 . S
C623 O626 1.301 . S
C623 O627 1.282 . S
O624 U606 2.441 . S
O624 C610 1.249 . S
O625 U606 2.420 . S
O625 C610 1.202 . S
O626 U606 2.455 . S
O626 C623 1.301 . S
O627 U606 2.449 . S
O627 C623 1.282 . S
H628 C601 0.931 . S
H629 C603 0.929 . S
H630 C604 0.930 . S
H631 C605 0.931 . S
H632 C612 0.932 . S
H633 C613 0.930 . S
H634 C614 0.929 . S
H635 C616 0.930 . S
H636 C618 0.932 . S
H637 C619 0.929 . S
H638 C620 0.928 . S
H639 C622 0.932 . S
C640 C641 1.264 . S
C640 C645 1.479 . S
C640 C650 1.465 . S
C641 C640 1.264 . S
C641 C643 1.339 . S
C641 H668 0.931 . S
C642 C643 1.395 . S
C642 C644 1.320 . S
C643 C641 1.339 . S
C643 C642 1.395 . S
C643 H669 0.929 . S
C644 C642 1.320 . S
C644 C645 1.405 . S
C644 H670 0.930 . S
C645 C640 1.479 . S
C645 C644 1.405 . S
C645 H671 0.931 . S
U646 O647 2.454 . S
U646 O648 2.458 . S
U646 C649 2.984 . S
U646 C650 2.847 . S
U646 C663 2.882 . S
U646 O664 2.441 . S
U646 O665 2.420 . S
U646 O666 2.455 . S
U646 O667 2.449 . S
O647 U646 2.454 . S
O647 C649 1.353 . S
O648 U646 2.458 . S
O648 C649 1.286 . S
C649 U646 2.984 . S
C649 O647 1.353 . S
C649 O648 1.286 . S
C649 C651 1.363 . S
C650 C640 1.465 . S
C650 U646 2.847 . S
C650 O664 1.249 . S
C650 O665 1.202 . S
C651 C649 1.363 . S
C651 C653 1.408 . S
C651 C656 1.342 . S
C652 C653 1.310 . S
C652 C655 1.461 . S
C652 H672 0.932 . S
C653 C651 1.408 . S
C653 C652 1.310 . S
C653 H673 0.930 . S
C654 C655 1.474 . S
C654 C656 1.285 . S
C654 H674 0.929 . S
C655 C652 1.461 . S
C655 C654 1.474 . S
C656 C651 1.342 . S
C656 C654 1.285 . S
C656 H675 0.930 . S
C657 C660 1.424 . S
C657 C662 1.245 . S
C657 C663 1.428 . S
C658 C661 1.260 . S
C658 C662 1.477 . S
C658 H676 0.932 . S
C659 C660 1.384 . S
C659 C661 1.479 . S
C659 H677 0.929 . S
C660 C657 1.424 . S
C660 C659 1.384 . S
C660 H678 0.928 . S
C661 C658 1.260 . S
C661 C659 1.479 . S
C662 C657 1.245 . S
C662 C658 1.477 . S
C662 H679 0.932 . S
C663 U646 2.882 . S
C663 C657 1.428 . S
C663 O666 1.301 . S
C663 O667 1.282 . S
O664 U646 2.441 . S
O664 C650 1.249 . S
O665 U646 2.420 . S
O665 C650 1.202 . S
O666 U646 2.455 . S
O666 C663 1.301 . S
O667 U646 2.449 . S
O667 C663 1.282 . S
H668 C641 0.931 . S
H669 C643 0.929 . S
H670 C644 0.930 . S
H671 C645 0.931 . S
H672 C652 0.932 . S
H673 C653 0.930 . S
H674 C654 0.929 . S
H675 C656 0.930 . S
H676 C658 0.932 . S
H677 C659 0.929 . S
H678 C660 0.928 . S
H679 C662 0.932 . S
C680 C681 1.264 . S
C680 C685 1.479 . S
C680 C690 1.465 . S
C681 C680 1.264 . S
C681 C683 1.339 . S
C681 H708 0.931 . S
C682 C683 1.395 . S
C682 C684 1.320 . S
C683 C681 1.339 . S
C683 C682 1.395 . S
C683 H709 0.929 . S
C684 C682 1.320 . S
C684 C685 1.405 . S
C684 H710 0.930 . S
C685 C680 1.479 . S
C685 C684 1.405 . S
C685 H711 0.931 . S
U686 O687 2.454 . S
U686 O688 2.458 . S
U686 C689 2.984 . S
U686 C690 2.847 . S
U686 C703 2.882 . S
U686 O704 2.441 . S
U686 O705 2.420 . S
U686 O706 2.455 . S
U686 O707 2.449 . S
O687 U686 2.454 . S
O687 C689 1.353 . S
O688 U686 2.458 . S
O688 C689 1.286 . S
C689 U686 2.984 . S
C689 O687 1.353 . S
C689 O688 1.286 . S
C689 C691 1.363 . S
C690 C680 1.465 . S
C690 U686 2.847 . S
C690 O704 1.249 . S
C690 O705 1.202 . S
C691 C689 1.363 . S
C691 C693 1.408 . S
C691 C696 1.342 . S
C692 C693 1.310 . S
C692 C695 1.461 . S
C692 H712 0.932 . S
C693 C691 1.408 . S
C693 C692 1.310 . S
C693 H713 0.930 . S
C694 C695 1.474 . S
C694 C696 1.285 . S
C694 H714 0.929 . S
C695 C692 1.461 . S
C695 C694 1.474 . S
C696 C691 1.342 . S
C696 C694 1.285 . S
C696 H715 0.930 . S
C697 C700 1.424 . S
C697 C702 1.245 . S
C697 C703 1.428 . S
C698 C701 1.260 . S
C698 C702 1.477 . S
C698 H716 0.932 . S
C699 C700 1.384 . S
C699 C701 1.479 . S
C699 H717 0.929 . S
C700 C697 1.424 . S
C700 C699 1.384 . S
C700 H718 0.928 . S
C701 C698 1.260 . S
C701 C699 1.479 . S
C702 C697 1.245 . S
C702 C698 1.477 . S
C702 H719 0.932 . S
C703 U686 2.882 . S
C703 C697 1.428 . S
C703 O706 1.301 . S
C703 O707 1.282 . S
O704 U686 2.441 . S
O704 C690 1.249 . S
O705 U686 2.420 . S
O705 C690 1.202 . S
O706 U686 2.455 . S
O706 C703 1.301 . S
O707 U686 2.449 . S
O707 C703 1.282 . S
H708 C681 0.931 . S
H709 C683 0.929 . S
H710 C684 0.930 . S
H711 C685 0.931 . S
H712 C692 0.932 . S
H713 C693 0.930 . S
H714 C694 0.929 . S
H715 C696 0.930 . S
H716 C698 0.932 . S
H717 C699 0.929 . S
H718 C700 0.928 . S
H719 C702 0.932 . S
C720 C721 1.264 . S
C720 C725 1.479 . S
C720 C730 1.465 . S
C721 C720 1.264 . S
C721 C723 1.339 . S
C721 H748 0.931 . S
C722 C723 1.395 . S
C722 C724 1.320 . S
C723 C721 1.339 . S
C723 C722 1.395 . S
C723 H749 0.929 . S
C724 C722 1.320 . S
C724 C725 1.405 . S
C724 H750 0.930 . S
C725 C720 1.479 . S
C725 C724 1.405 . S
C725 H751 0.931 . S
U726 O727 2.454 . S
U726 O728 2.458 . S
U726 C729 2.984 . S
U726 C730 2.847 . S
U726 C743 2.882 . S
U726 O744 2.441 . S
U726 O745 2.420 . S
U726 O746 2.455 . S
U726 O747 2.449 . S
O727 U726 2.454 . S
O727 C729 1.353 . S
O728 U726 2.458 . S
O728 C729 1.286 . S
C729 U726 2.984 . S
C729 O727 1.353 . S
C729 O728 1.286 . S
C729 C731 1.363 . S
C730 C720 1.465 . S
C730 U726 2.847 . S
C730 O744 1.249 . S
C730 O745 1.202 . S
C731 C729 1.363 . S
C731 C733 1.408 . S
C731 C736 1.342 . S
C732 C733 1.310 . S
C732 C735 1.461 . S
C732 H752 0.932 . S
C733 C731 1.408 . S
C733 C732 1.310 . S
C733 H753 0.930 . S
C734 C735 1.474 . S
C734 C736 1.285 . S
C734 H754 0.929 . S
C735 C732 1.461 . S
C735 C734 1.474 . S
C736 C731 1.342 . S
C736 C734 1.285 . S
C736 H755 0.930 . S
C737 C740 1.424 . S
C737 C742 1.245 . S
C737 C743 1.428 . S
C738 C741 1.260 . S
C738 C742 1.477 . S
C738 H756 0.932 . S
C739 C740 1.384 . S
C739 C741 1.479 . S
C739 H757 0.929 . S
C740 C737 1.424 . S
C740 C739 1.384 . S
C740 H758 0.928 . S
C741 C738 1.260 . S
C741 C739 1.479 . S
C742 C737 1.245 . S
C742 C738 1.477 . S
C742 H759 0.932 . S
C743 U726 2.882 . S
C743 C737 1.428 . S
C743 O746 1.301 . S
C743 O747 1.282 . S
O744 U726 2.441 . S
O744 C730 1.249 . S
O745 U726 2.420 . S
O745 C730 1.202 . S
O746 U726 2.455 . S
O746 C743 1.301 . S
O747 U726 2.449 . S
O747 C743 1.282 . S
H748 C721 0.931 . S
H749 C723 0.929 . S
H750 C724 0.930 . S
H751 C725 0.931 . S
H752 C732 0.932 . S
H753 C733 0.930 . S
H754 C734 0.929 . S
H755 C736 0.930 . S
H756 C738 0.932 . S
H757 C739 0.929 . S
H758 C740 0.928 . S
H759 C742 0.932 . S
C760 C761 1.264 . S
C760 C765 1.479 . S
C760 C770 1.465 . S
C761 C760 1.264 . S
C761 C763 1.339 . S
C761 H788 0.931 . S
C762 C763 1.395 . S
C762 C764 1.320 . S
C763 C761 1.339 . S
C763 C762 1.395 . S
C763 H789 0.929 . S
C764 C762 1.320 . S
C764 C765 1.405 . S
C764 H790 0.930 . S
C765 C760 1.479 . S
C765 C764 1.405 . S
C765 H791 0.931 . S
U766 O767 2.454 . S
U766 O768 2.458 . S
U766 C769 2.984 . S
U766 C770 2.847 . S
U766 C783 2.882 . S
U766 O784 2.441 . S
U766 O785 2.420 . S
U766 O786 2.455 . S
U766 O787 2.449 . S
O767 U766 2.454 . S
O767 C769 1.353 . S
O768 U766 2.458 . S
O768 C769 1.286 . S
C769 U766 2.984 . S
C769 O767 1.353 . S
C769 O768 1.286 . S
C769 C771 1.363 . S
C770 C760 1.465 . S
C770 U766 2.847 . S
C770 O784 1.249 . S
C770 O785 1.202 . S
C771 C769 1.363 . S
C771 C773 1.408 . S
C771 C776 1.342 . S
C772 C773 1.310 . S
C772 C775 1.461 . S
C772 H792 0.932 . S
C773 C771 1.408 . S
C773 C772 1.310 . S
C773 H793 0.930 . S
C774 C775 1.474 . S
C774 C776 1.285 . S
C774 H794 0.929 . S
C775 C772 1.461 . S
C775 C774 1.474 . S
C776 C771 1.342 . S
C776 C774 1.285 . S
C776 H795 0.930 . S
C777 C780 1.424 . S
C777 C782 1.245 . S
C777 C783 1.428 . S
C778 C781 1.260 . S
C778 C782 1.477 . S
C778 H796 0.932 . S
C779 C780 1.384 . S
C779 C781 1.479 . S
C779 H797 0.929 . S
C780 C777 1.424 . S
C780 C779 1.384 . S
C780 H798 0.928 . S
C781 C778 1.260 . S
C781 C779 1.479 . S
C782 C777 1.245 . S
C782 C778 1.477 . S
C782 H799 0.932 . S
C783 U766 2.882 . S
C783 C777 1.428 . S
C783 O786 1.301 . S
C783 O787 1.282 . S
O784 U766 2.441 . S
O784 C770 1.249 . S
O785 U766 2.420 . S
O785 C770 1.202 . S
O786 U766 2.455 . S
O786 C783 1.301 . S
O787 U766 2.449 . S
O787 C783 1.282 . S
H788 C761 0.931 . S
H789 C763 0.929 . S
H790 C764 0.930 . S
H791 C765 0.931 . S
H792 C772 0.932 . S
H793 C773 0.930 . S
H794 C774 0.929 . S
H795 C776 0.930 . S
H796 C778 0.932 . S
H797 C779 0.929 . S
H798 C780 0.928 . S
H799 C782 0.932 . S
C800 C801 1.264 . S
C800 C805 1.479 . S
C800 C810 1.465 . S
C801 C800 1.264 . S
C801 C803 1.339 . S
C801 H828 0.931 . S
C802 C803 1.395 . S
C802 C804 1.320 . S
C803 C801 1.339 . S
C803 C802 1.395 . S
C803 H829 0.929 . S
C804 C802 1.320 . S
C804 C805 1.405 . S
C804 H830 0.930 . S
C805 C800 1.479 . S
C805 C804 1.405 . S
C805 H831 0.931 . S
U806 O807 2.454 . S
U806 O808 2.458 . S
U806 C809 2.984 . S
U806 C810 2.847 . S
U806 C823 2.882 . S
U806 O824 2.441 . S
U806 O825 2.420 . S
U806 O826 2.455 . S
U806 O827 2.449 . S
O807 U806 2.454 . S
O807 C809 1.353 . S
O808 U806 2.458 . S
O808 C809 1.286 . S
C809 U806 2.984 . S
C809 O807 1.353 . S
C809 O808 1.286 . S
C809 C811 1.363 . S
C810 C800 1.465 . S
C810 U806 2.847 . S
C810 O824 1.249 . S
C810 O825 1.202 . S
C811 C809 1.363 . S
C811 C813 1.408 . S
C811 C816 1.342 . S
C812 C813 1.310 . S
C812 C815 1.461 . S
C812 H832 0.932 . S
C813 C811 1.408 . S
C813 C812 1.310 . S
C813 H833 0.930 . S
C814 C815 1.474 . S
C814 C816 1.285 . S
C814 H834 0.929 . S
C815 C812 1.461 . S
C815 C814 1.474 . S
C816 C811 1.342 . S
C816 C814 1.285 . S
C816 H835 0.930 . S
C817 C820 1.424 . S
C817 C822 1.245 . S
C817 C823 1.428 . S
C818 C821 1.260 . S
C818 C822 1.477 . S
C818 H836 0.932 . S
C819 C820 1.384 . S
C819 C821 1.479 . S
C819 H837 0.929 . S
C820 C817 1.424 . S
C820 C819 1.384 . S
C820 H838 0.928 . S
C821 C818 1.260 . S
C821 C819 1.479 . S
C822 C817 1.245 . S
C822 C818 1.477 . S
C822 H839 0.932 . S
C823 U806 2.882 . S
C823 C817 1.428 . S
C823 O826 1.301 . S
C823 O827 1.282 . S
O824 U806 2.441 . S
O824 C810 1.249 . S
O825 U806 2.420 . S
O825 C810 1.202 . S
O826 U806 2.455 . S
O826 C823 1.301 . S
O827 U806 2.449 . S
O827 C823 1.282 . S
H828 C801 0.931 . S
H829 C803 0.929 . S
H830 C804 0.930 . S
H831 C805 0.931 . S
H832 C812 0.932 . S
H833 C813 0.930 . S
H834 C814 0.929 . S
H835 C816 0.930 . S
H836 C818 0.932 . S
H837 C819 0.929 . S
H838 C820 0.928 . S
H839 C822 0.932 . S
C840 C841 1.264 . S
C840 C845 1.479 . S
C840 C850 1.465 . S
C841 C840 1.264 . S
C841 C843 1.339 . S
C841 H868 0.931 . S
C842 C843 1.395 . S
C842 C844 1.320 . S
C843 C841 1.339 . S
C843 C842 1.395 . S
C843 H869 0.929 . S
C844 C842 1.320 . S
C844 C845 1.405 . S
C844 H870 0.930 . S
C845 C840 1.479 . S
C845 C844 1.405 . S
C845 H871 0.931 . S
U846 O847 2.454 . S
U846 O848 2.458 . S
U846 C849 2.984 . S
U846 C850 2.847 . S
U846 C863 2.882 . S
U846 O864 2.441 . S
U846 O865 2.420 . S
U846 O866 2.455 . S
U846 O867 2.449 . S
O847 U846 2.454 . S
O847 C849 1.353 . S
O848 U846 2.458 . S
O848 C849 1.286 . S
C849 U846 2.984 . S
C849 O847 1.353 . S
C849 O848 1.286 . S
C849 C851 1.363 . S
C850 C840 1.465 . S
C850 U846 2.847 . S
C850 O864 1.249 . S
C850 O865 1.202 . S
C851 C849 1.363 . S
C851 C853 1.408 . S
C851 C856 1.342 . S
C852 C853 1.310 . S
C852 C855 1.461 . S
C852 H872 0.932 . S
C853 C851 1.408 . S
C853 C852 1.310 . S
C853 H873 0.930 . S
C854 C855 1.474 . S
C854 C856 1.285 . S
C854 H874 0.929 . S
C855 C852 1.461 . S
C855 C854 1.474 . S
C856 C851 1.342 . S
C856 C854 1.285 . S
C856 H875 0.930 . S
C857 C860 1.424 . S
C857 C862 1.245 . S
C857 C863 1.428 . S
C858 C861 1.260 . S
C858 C862 1.477 . S
C858 H876 0.932 . S
C859 C860 1.384 . S
C859 C861 1.479 . S
C859 H877 0.929 . S
C860 C857 1.424 . S
C860 C859 1.384 . S
C860 H878 0.928 . S
C861 C858 1.260 . S
C861 C859 1.479 . S
C862 C857 1.245 . S
C862 C858 1.477 . S
C862 H879 0.932 . S
C863 U846 2.882 . S
C863 C857 1.428 . S
C863 O866 1.301 . S
C863 O867 1.282 . S
O864 U846 2.441 . S
O864 C850 1.249 . S
O865 U846 2.420 . S
O865 C850 1.202 . S
O866 U846 2.455 . S
O866 C863 1.301 . S
O867 U846 2.449 . S
O867 C863 1.282 . S
H868 C841 0.931 . S
H869 C843 0.929 . S
H870 C844 0.930 . S
H871 C845 0.931 . S
H872 C852 0.932 . S
H873 C853 0.930 . S
H874 C854 0.929 . S
H875 C856 0.930 . S
H876 C858 0.932 . S
H877 C859 0.929 . S
H878 C860 0.928 . S
H879 C862 0.932 . S
C880 C881 1.264 . S
C880 C885 1.479 . S
C880 C890 1.465 . S
C881 C880 1.264 . S
C881 C883 1.339 . S
C881 H908 0.931 . S
C882 C883 1.395 . S
C882 C884 1.320 . S
C883 C881 1.339 . S
C883 C882 1.395 . S
C883 H909 0.929 . S
C884 C882 1.320 . S
C884 C885 1.405 . S
C884 H910 0.930 . S
C885 C880 1.479 . S
C885 C884 1.405 . S
C885 H911 0.931 . S
U886 O887 2.454 . S
U886 O888 2.458 . S
U886 C889 2.984 . S
U886 C890 2.847 . S
U886 C903 2.882 . S
U886 O904 2.441 . S
U886 O905 2.420 . S
U886 O906 2.455 . S
U886 O907 2.449 . S
O887 U886 2.454 . S
O887 C889 1.353 . S
O888 U886 2.458 . S
O888 C889 1.286 . S
C889 U886 2.984 . S
C889 O887 1.353 . S
C889 O888 1.286 . S
C889 C891 1.363 . S
C890 C880 1.465 . S
C890 U886 2.847 . S
C890 O904 1.249 . S
C890 O905 1.202 . S
C891 C889 1.363 . S
C891 C893 1.408 . S
C891 C896 1.342 . S
C892 C893 1.310 . S
C892 C895 1.461 . S
C892 H912 0.932 . S
C893 C891 1.408 . S
C893 C892 1.310 . S
C893 H913 0.930 . S
C894 C895 1.474 . S
C894 C896 1.285 . S
C894 H914 0.929 . S
C895 C892 1.461 . S
C895 C894 1.474 . S
C896 C891 1.342 . S
C896 C894 1.285 . S
C896 H915 0.930 . S
C897 C900 1.424 . S
C897 C902 1.245 . S
C897 C903 1.428 . S
C898 C901 1.260 . S
C898 C902 1.477 . S
C898 H916 0.932 . S
C899 C900 1.384 . S
C899 C901 1.479 . S
C899 H917 0.929 . S
C900 C897 1.424 . S
C900 C899 1.384 . S
C900 H918 0.928 . S
C901 C898 1.260 . S
C901 C899 1.479 . S
C902 C897 1.245 . S
C902 C898 1.477 . S
C902 H919 0.932 . S
C903 U886 2.882 . S
C903 C897 1.428 . S
C903 O906 1.301 . S
C903 O907 1.282 . S
O904 U886 2.441 . S
O904 C890 1.249 . S
O905 U886 2.420 . S
O905 C890 1.202 . S
O906 U886 2.455 . S
O906 C903 1.301 . S
O907 U886 2.449 . S
O907 C903 1.282 . S
H908 C881 0.931 . S
H909 C883 0.929 . S
H910 C884 0.930 . S
H911 C885 0.931 . S
H912 C892 0.932 . S
H913 C893 0.930 . S
H914 C894 0.929 . S
H915 C896 0.930 . S
H916 C898 0.932 . S
H917 C899 0.929 . S
H918 C900 0.928 . S
H919 C902 0.932 . S
C920 C921 1.264 . S
C920 C925 1.479 . S
C920 C930 1.465 . S
C921 C920 1.264 . S
C921 C923 1.339 . S
C921 H948 0.931 . S
C922 C923 1.395 . S
C922 C924 1.320 . S
C923 C921 1.339 . S
C923 C922 1.395 . S
C923 H949 0.929 . S
C924 C922 1.320 . S
C924 C925 1.405 . S
C924 H950 0.930 . S
C925 C920 1.479 . S
C925 C924 1.405 . S
C925 H951 0.931 . S
U926 O927 2.454 . S
U926 O928 2.458 . S
U926 C929 2.984 . S
U926 C930 2.847 . S
U926 C943 2.882 . S
U926 O944 2.441 . S
U926 O945 2.420 . S
U926 O946 2.455 . S
U926 O947 2.449 . S
O927 U926 2.454 . S
O927 C929 1.353 . S
O928 U926 2.458 . S
O928 C929 1.286 . S
C929 U926 2.984 . S
C929 O927 1.353 . S
C929 O928 1.286 . S
C929 C931 1.363 . S
C930 C920 1.465 . S
C930 U926 2.847 . S
C930 O944 1.249 . S
C930 O945 1.202 . S
C931 C929 1.363 . S
C931 C933 1.408 . S
C931 C936 1.342 . S
C932 C933 1.310 . S
C932 C935 1.461 . S
C932 H952 0.932 . S
C933 C931 1.408 . S
C933 C932 1.310 . S
C933 H953 0.930 . S
C934 C935 1.474 . S
C934 C936 1.285 . S
C934 H954 0.929 . S
C935 C932 1.461 . S
C935 C934 1.474 . S
C936 C931 1.342 . S
C936 C934 1.285 . S
C936 H955 0.930 . S
C937 C940 1.424 . S
C937 C942 1.245 . S
C937 C943 1.428 . S
C938 C941 1.260 . S
C938 C942 1.477 . S
C938 H956 0.932 . S
C939 C940 1.384 . S
C939 C941 1.479 . S
C939 H957 0.929 . S
C940 C937 1.424 . S
C940 C939 1.384 . S
C940 H958 0.928 . S
C941 C938 1.260 . S
C941 C939 1.479 . S
C942 C937 1.245 . S
C942 C938 1.477 . S
C942 H959 0.932 . S
C943 U926 2.882 . S
C943 C937 1.428 . S
C943 O946 1.301 . S
C943 O947 1.282 . S
O944 U926 2.441 . S
O944 C930 1.249 . S
O945 U926 2.420 . S
O945 C930 1.202 . S
O946 U926 2.455 . S
O946 C943 1.301 . S
O947 U926 2.449 . S
O947 C943 1.282 . S
H948 C921 0.931 . S
H949 C923 0.929 . S
H950 C924 0.930 . S
H951 C925 0.931 . S
H952 C932 0.932 . S
H953 C933 0.930 . S
H954 C934 0.929 . S
H955 C936 0.930 . S
H956 C938 0.932 . S
H957 C939 0.929 . S
H958 C940 0.928 . S
H959 C942 0.932 . S
C960 C961 1.264 . S
C960 C965 1.479 . S
C960 C970 1.465 . S
C961 C960 1.264 . S
C961 C963 1.339 . S
C961 H988 0.931 . S
C962 C963 1.395 . S
C962 C964 1.320 . S
C963 C961 1.339 . S
C963 C962 1.395 . S
C963 H989 0.929 . S
C964 C962 1.320 . S
C964 C965 1.405 . S
C964 H990 0.930 . S
C965 C960 1.479 . S
C965 C964 1.405 . S
C965 H991 0.931 . S
U966 O967 2.454 . S
U966 O968 2.458 . S
U966 C969 2.984 . S
U966 C970 2.847 . S
U966 C983 2.882 . S
U966 O984 2.441 . S
U966 O985 2.420 . S
U966 O986 2.455 . S
U966 O987 2.449 . S
O967 U966 2.454 . S
O967 C969 1.353 . S
O968 U966 2.458 . S
O968 C969 1.286 . S
C969 U966 2.984 . S
C969 O967 1.353 . S
C969 O968 1.286 . S
C969 C971 1.363 . S
C970 C960 1.465 . S
C970 U966 2.847 . S
C970 O984 1.249 . S
C970 O985 1.202 . S
C971 C969 1.363 . S
C971 C973 1.408 . S
C971 C976 1.342 . S
C972 C973 1.310 . S
C972 C975 1.461 . S
C972 H992 0.932 . S
C973 C971 1.408 . S
C973 C972 1.310 . S
C973 H993 0.930 . S
C974 C975 1.474 . S
C974 C976 1.285 . S
C974 H994 0.929 . S
C975 C972 1.461 . S
C975 C974 1.474 . S
C976 C971 1.342 . S
C976 C974 1.285 . S
C976 H995 0.930 . S
C977 C980 1.424 . S
C977 C982 1.245 . S
C977 C983 1.428 . S
C978 C981 1.260 . S
C978 C982 1.477 . S
C978 H996 0.932 . S
C979 C980 1.384 . S
C979 C981 1.479 . S
C979 H997 0.929 . S
C980 C977 1.424 . S
C980 C979 1.384 . S
C980 H998 0.928 . S
C981 C978 1.260 . S
C981 C979 1.479 . S
C982 C977 1.245 . S
C982 C978 1.477 . S
C982 H999 0.932 . S
C983 U966 2.882 . S
C983 C977 1.428 . S
C983 O986 1.301 . S
C983 O987 1.282 . S
O984 U966 2.441 . S
O984 C970 1.249 . S
O985 U966 2.420 . S
O985 C970 1.202 . S
O986 U966 2.455 . S
O986 C983 1.301 . S
O987 U966 2.449 . S
O987 C983 1.282 . S
H988 C961 0.931 . S
H989 C963 0.929 . S
H990 C964 0.930 . S
H991 C965 0.931 . S
H992 C972 0.932 . S
H993 C973 0.930 . S
H994 C974 0.929 . S
H995 C976 0.930 . S
H996 C978 0.932 . S
H997 C979 0.929 . S
H998 C980 0.928 . S
H999 C982 0.932 . S
C1000 C1001 1.264 . S
C1000 C1005 1.479 . S
C1000 C1010 1.465 . S
C1001 C1000 1.264 . S
C1001 C1003 1.339 . S
C1001 H1028 0.931 . S
C1002 C1003 1.395 . S
C1002 C1004 1.320 . S
C1003 C1001 1.339 . S
C1003 C1002 1.395 . S
C1003 H1029 0.929 . S
C1004 C1002 1.320 . S
C1004 C1005 1.405 . S
C1004 H1030 0.930 . S
C1005 C1000 1.479 . S
C1005 C1004 1.405 . S
C1005 H1031 0.931 . S
U1006 O1007 2.454 . S
U1006 O1008 2.458 . S
U1006 C1009 2.984 . S
U1006 C1010 2.847 . S
U1006 C1023 2.882 . S
U1006 O1024 2.441 . S
U1006 O1025 2.420 . S
U1006 O1026 2.455 . S
U1006 O1027 2.449 . S
O1007 U1006 2.454 . S
O1007 C1009 1.353 . S
O1008 U1006 2.458 . S
O1008 C1009 1.286 . S
C1009 U1006 2.984 . S
C1009 O1007 1.353 . S
C1009 O1008 1.286 . S
C1009 C1011 1.363 . S
C1010 C1000 1.465 . S
C1010 U1006 2.847 . S
C1010 O1024 1.249 . S
C1010 O1025 1.202 . S
C1011 C1009 1.363 . S
C1011 C1013 1.408 . S
C1011 C1016 1.342 . S
C1012 C1013 1.310 . S
C1012 C1015 1.461 . S
C1012 H1032 0.932 . S
C1013 C1011 1.408 . S
C1013 C1012 1.310 . S
C1013 H1033 0.930 . S
C1014 C1015 1.474 . S
C1014 C1016 1.285 . S
C1014 H1034 0.929 . S
C1015 C1012 1.461 . S
C1015 C1014 1.474 . S
C1016 C1011 1.342 . S
C1016 C1014 1.285 . S
C1016 H1035 0.930 . S
C1017 C1020 1.424 . S
C1017 C1022 1.245 . S
C1017 C1023 1.428 . S
C1018 C1021 1.260 . S
C1018 C1022 1.477 . S
C1018 H1036 0.932 . S
C1019 C1020 1.384 . S
C1019 C1021 1.479 . S
C1019 H1037 0.929 . S
C1020 C1017 1.424 . S
C1020 C1019 1.384 . S
C1020 H1038 0.928 . S
C1021 C1018 1.260 . S
C1021 C1019 1.479 . S
C1022 C1017 1.245 . S
C1022 C1018 1.477 . S
C1022 H1039 0.932 . S
C1023 U1006 2.882 . S
C1023 C1017 1.428 . S
C1023 O1026 1.301 . S
C1023 O1027 1.282 . S
O1024 U1006 2.441 . S
O1024 C1010 1.249 . S
O1025 U1006 2.420 . S
O1025 C1010 1.202 . S
O1026 U1006 2.455 . S
O1026 C1023 1.301 . S
O1027 U1006 2.449 . S
O1027 C1023 1.282 . S
H1028 C1001 0.931 . S
H1029 C1003 0.929 . S
H1030 C1004 0.930 . S
H1031 C1005 0.931 . S
H1032 C1012 0.932 . S
H1033 C1013 0.930 . S
H1034 C1014 0.929 . S
H1035 C1016 0.930 . S
H1036 C1018 0.932 . S
H1037 C1019 0.929 . S
H1038 C1020 0.928 . S
H1039 C1022 0.932 . S
C1040 C1041 1.264 . S
C1040 C1045 1.479 . S
C1040 C1050 1.465 . S
C1041 C1040 1.264 . S
C1041 C1043 1.339 . S
C1041 H1068 0.931 . S
C1042 C1043 1.395 . S
C1042 C1044 1.320 . S
C1043 C1041 1.339 . S
C1043 C1042 1.395 . S
C1043 H1069 0.929 . S
C1044 C1042 1.320 . S
C1044 C1045 1.405 . S
C1044 H1070 0.930 . S
C1045 C1040 1.479 . S
C1045 C1044 1.405 . S
C1045 H1071 0.931 . S
U1046 O1047 2.454 . S
U1046 O1048 2.458 . S
U1046 C1049 2.984 . S
U1046 C1050 2.847 . S
U1046 C1063 2.882 . S
U1046 O1064 2.441 . S
U1046 O1065 2.420 . S
U1046 O1066 2.455 . S
U1046 O1067 2.449 . S
O1047 U1046 2.454 . S
O1047 C1049 1.353 . S
O1048 U1046 2.458 . S
O1048 C1049 1.286 . S
C1049 U1046 2.984 . S
C1049 O1047 1.353 . S
C1049 O1048 1.286 . S
C1049 C1051 1.363 . S
C1050 C1040 1.465 . S
C1050 U1046 2.847 . S
C1050 O1064 1.249 . S
C1050 O1065 1.202 . S
C1051 C1049 1.363 . S
C1051 C1053 1.408 . S
C1051 C1056 1.342 . S
C1052 C1053 1.310 . S
C1052 C1055 1.461 . S
C1052 H1072 0.932 . S
C1053 C1051 1.408 . S
C1053 C1052 1.310 . S
C1053 H1073 0.930 . S
C1054 C1055 1.474 . S
C1054 C1056 1.285 . S
C1054 H1074 0.929 . S
C1055 C1052 1.461 . S
C1055 C1054 1.474 . S
C1056 C1051 1.342 . S
C1056 C1054 1.285 . S
C1056 H1075 0.930 . S
C1057 C1060 1.424 . S
C1057 C1062 1.245 . S
C1057 C1063 1.428 . S
C1058 C1061 1.260 . S
C1058 C1062 1.477 . S
C1058 H1076 0.932 . S
C1059 C1060 1.384 . S
C1059 C1061 1.479 . S
C1059 H1077 0.929 . S
C1060 C1057 1.424 . S
C1060 C1059 1.384 . S
C1060 H1078 0.928 . S
C1061 C1058 1.260 . S
C1061 C1059 1.479 . S
C1062 C1057 1.245 . S
C1062 C1058 1.477 . S
C1062 H1079 0.932 . S
C1063 U1046 2.882 . S
C1063 C1057 1.428 . S
C1063 O1066 1.301 . S
C1063 O1067 1.282 . S
O1064 U1046 2.441 . S
O1064 C1050 1.249 . S
O1065 U1046 2.420 . S
O1065 C1050 1.202 . S
O1066 U1046 2.455 . S
O1066 C1063 1.301 . S
O1067 U1046 2.449 . S
O1067 C1063 1.282 . S
H1068 C1041 0.931 . S
H1069 C1043 0.929 . S
H1070 C1044 0.930 . S
H1071 C1045 0.931 . S
H1072 C1052 0.932 . S
H1073 C1053 0.930 . S
H1074 C1054 0.929 . S
H1075 C1056 0.930 . S
H1076 C1058 0.932 . S
H1077 C1059 0.929 . S
H1078 C1060 0.928 . S
H1079 C1062 0.932 . S
C1080 C1081 1.264 . S
C1080 C1085 1.479 . S
C1080 C1090 1.465 . S
C1081 C1080 1.264 . S
C1081 C1083 1.339 . S
C1081 H1108 0.931 . S
C1082 C1083 1.395 . S
C1082 C1084 1.320 . S
C1083 C1081 1.339 . S
C1083 C1082 1.395 . S
C1083 H1109 0.929 . S
C1084 C1082 1.320 . S
C1084 C1085 1.405 . S
C1084 H1110 0.930 . S
C1085 C1080 1.479 . S
C1085 C1084 1.405 . S
C1085 H1111 0.931 . S
U1086 O1087 2.454 . S
U1086 O1088 2.458 . S
U1086 C1089 2.984 . S
U1086 C1090 2.847 . S
U1086 C1103 2.882 . S
U1086 O1104 2.441 . S
U1086 O1105 2.420 . S
U1086 O1106 2.455 . S
U1086 O1107 2.449 . S
O1087 U1086 2.454 . S
O1087 C1089 1.353 . S
O1088 U1086 2.458 . S
O1088 C1089 1.286 . S
C1089 U1086 2.984 . S
C1089 O1087 1.353 . S
C1089 O1088 1.286 . S
C1089 C1091 1.363 . S
C1090 C1080 1.465 . S
C1090 U1086 2.847 . S
C1090 O1104 1.249 . S
C1090 O1105 1.202 . S
C1091 C1089 1.363 . S
C1091 C1093 1.408 . S
C1091 C1096 1.342 . S
C1092 C1093 1.310 . S
C1092 C1095 1.461 . S
C1092 H1112 0.932 . S
C1093 C1091 1.408 . S
C1093 C1092 1.310 . S
C1093 H1113 0.930 . S
C1094 C1095 1.474 . S
C1094 C1096 1.285 . S
C1094 H1114 0.929 . S
C1095 C1092 1.461 . S
C1095 C1094 1.474 . S
C1096 C1091 1.342 . S
C1096 C1094 1.285 . S
C1096 H1115 0.930 . S
C1097 C1100 1.424 . S
C1097 C1102 1.245 . S
C1097 C1103 1.428 . S
C1098 C1101 1.260 . S
C1098 C1102 1.477 . S
C1098 H1116 0.932 . S
C1099 C1100 1.384 . S
C1099 C1101 1.479 . S
C1099 H1117 0.929 . S
C1100 C1097 1.424 . S
C1100 C1099 1.384 . S
C1100 H1118 0.928 . S
C1101 C1098 1.260 . S
C1101 C1099 1.479 . S
C1102 C1097 1.245 . S
C1102 C1098 1.477 . S
C1102 H1119 0.932 . S
C1103 U1086 2.882 . S
C1103 C1097 1.428 . S
C1103 O1106 1.301 . S
C1103 O1107 1.282 . S
O1104 U1086 2.441 . S
O1104 C1090 1.249 . S
O1105 U1086 2.420 . S
O1105 C1090 1.202 . S
O1106 U1086 2.455 . S
O1106 C1103 1.301 . S
O1107 U1086 2.449 . S
O1107 C1103 1.282 . S
H1108 C1081 0.931 . S
H1109 C1083 0.929 . S
H1110 C1084 0.930 . S
H1111 C1085 0.931 . S
H1112 C1092 0.932 . S
H1113 C1093 0.930 . S
H1114 C1094 0.929 . S
H1115 C1096 0.930 . S
H1116 C1098 0.932 . S
H1117 C1099 0.929 . S
H1118 C1100 0.928 . S
H1119 C1102 0.932 . S
C1120 C1121 1.264 . S
C1120 C1125 1.479 . S
C1120 C1130 1.465 . S
C1121 C1120 1.264 . S
C1121 C1123 1.339 . S
C1121 H1148 0.931 . S
C1122 C1123 1.395 . S
C1122 C1124 1.320 . S
C1123 C1121 1.339 . S
C1123 C1122 1.395 . S
C1123 H1149 0.929 . S
C1124 C1122 1.320 . S
C1124 C1125 1.405 . S
C1124 H1150 0.930 . S
C1125 C1120 1.479 . S
C1125 C1124 1.405 . S
C1125 H1151 0.931 . S
U1126 O1127 2.454 . S
U1126 O1128 2.458 . S
U1126 C1129 2.984 . S
U1126 C1130 2.847 . S
U1126 C1143 2.882 . S
U1126 O1144 2.441 . S
U1126 O1145 2.420 . S
U1126 O1146 2.455 . S
U1126 O1147 2.449 . S
O1127 U1126 2.454 . S
O1127 C1129 1.353 . S
O1128 U1126 2.458 . S
O1128 C1129 1.286 . S
C1129 U1126 2.984 . S
C1129 O1127 1.353 . S
C1129 O1128 1.286 . S
C1129 C1131 1.363 . S
C1130 C1120 1.465 . S
C1130 U1126 2.847 . S
C1130 O1144 1.249 . S
C1130 O1145 1.202 . S
C1131 C1129 1.363 . S
C1131 C1133 1.408 . S
C1131 C1136 1.342 . S
C1132 C1133 1.310 . S
C1132 C1135 1.461 . S
C1132 H1152 0.932 . S
C1133 C1131 1.408 . S
C1133 C1132 1.310 . S
C1133 H1153 0.930 . S
C1134 C1135 1.474 . S
C1134 C1136 1.285 . S
C1134 H1154 0.929 . S
C1135 C1132 1.461 . S
C1135 C1134 1.474 . S
C1136 C1131 1.342 . S
C1136 C1134 1.285 . S
C1136 H1155 0.930 . S
C1137 C1140 1.424 . S
C1137 C1142 1.245 . S
C1137 C1143 1.428 . S
C1138 C1141 1.260 . S
C1138 C1142 1.477 . S
C1138 H1156 0.932 . S
C1139 C1140 1.384 . S
C1139 C1141 1.479 . S
C1139 H1157 0.929 . S
C1140 C1137 1.424 . S
C1140 C1139 1.384 . S
C1140 H1158 0.928 . S
C1141 C1138 1.260 . S
C1141 C1139 1.479 . S
C1142 C1137 1.245 . S
C1142 C1138 1.477 . S
C1142 H1159 0.932 . S
C1143 U1126 2.882 . S
C1143 C1137 1.428 . S
C1143 O1146 1.301 . S
C1143 O1147 1.282 . S
O1144 U1126 2.441 . S
O1144 C1130 1.249 . S
O1145 U1126 2.420 . S
O1145 C1130 1.202 . S
O1146 U1126 2.455 . S
O1146 C1143 1.301 . S
O1147 U1126 2.449 . S
O1147 C1143 1.282 . S
H1148 C1121 0.931 . S
H1149 C1123 0.929 . S
H1150 C1124 0.930 . S
H1151 C1125 0.931 . S
H1152 C1132 0.932 . S
H1153 C1133 0.930 . S
H1154 C1134 0.929 . S
H1155 C1136 0.930 . S
H1156 C1138 0.932 . S
H1157 C1139 0.929 . S
H1158 C1140 0.928 . S
H1159 C1142 0.932 . S
C1160 C1161 1.264 . S
C1160 C1165 1.479 . S
C1160 C1170 1.465 . S
C1161 C1160 1.264 . S
C1161 C1163 1.339 . S
C1161 H1188 0.931 . S
C1162 C1163 1.395 . S
C1162 C1164 1.320 . S
C1163 C1161 1.339 . S
C1163 C1162 1.395 . S
C1163 H1189 0.929 . S
C1164 C1162 1.320 . S
C1164 C1165 1.405 . S
C1164 H1190 0.930 . S
C1165 C1160 1.479 . S
C1165 C1164 1.405 . S
C1165 H1191 0.931 . S
U1166 O1167 2.454 . S
U1166 O1168 2.458 . S
U1166 C1169 2.984 . S
U1166 C1170 2.847 . S
U1166 C1183 2.882 . S
U1166 O1184 2.441 . S
U1166 O1185 2.420 . S
U1166 O1186 2.455 . S
U1166 O1187 2.449 . S
O1167 U1166 2.454 . S
O1167 C1169 1.353 . S
O1168 U1166 2.458 . S
O1168 C1169 1.286 . S
C1169 U1166 2.984 . S
C1169 O1167 1.353 . S
C1169 O1168 1.286 . S
C1169 C1171 1.363 . S
C1170 C1160 1.465 . S
C1170 U1166 2.847 . S
C1170 O1184 1.249 . S
C1170 O1185 1.202 . S
C1171 C1169 1.363 . S
C1171 C1173 1.408 . S
C1171 C1176 1.342 . S
C1172 C1173 1.310 . S
C1172 C1175 1.461 . S
C1172 H1192 0.932 . S
C1173 C1171 1.408 . S
C1173 C1172 1.310 . S
C1173 H1193 0.930 . S
C1174 C1175 1.474 . S
C1174 C1176 1.285 . S
C1174 H1194 0.929 . S
C1175 C1172 1.461 . S
C1175 C1174 1.474 . S
C1176 C1171 1.342 . S
C1176 C1174 1.285 . S
C1176 H1195 0.930 . S
C1177 C1180 1.424 . S
C1177 C1182 1.245 . S
C1177 C1183 1.428 . S
C1178 C1181 1.260 . S
C1178 C1182 1.477 . S
C1178 H1196 0.932 . S
C1179 C1180 1.384 . S
C1179 C1181 1.479 . S
C1179 H1197 0.929 . S
C1180 C1177 1.424 . S
C1180 C1179 1.384 . S
C1180 H1198 0.928 . S
C1181 C1178 1.260 . S
C1181 C1179 1.479 . S
C1182 C1177 1.245 . S
C1182 C1178 1.477 . S
C1182 H1199 0.932 . S
C1183 U1166 2.882 . S
C1183 C1177 1.428 . S
C1183 O1186 1.301 . S
C1183 O1187 1.282 . S
O1184 U1166 2.441 . S
O1184 C1170 1.249 . S
O1185 U1166 2.420 . S
O1185 C1170 1.202 . S
O1186 U1166 2.455 . S
O1186 C1183 1.301 . S
O1187 U1166 2.449 . S
O1187 C1183 1.282 . S
H1188 C1161 0.931 . S
H1189 C1163 0.929 . S
H1190 C1164 0.930 . S
H1191 C1165 0.931 . S
H1192 C1172 0.932 . S
H1193 C1173 0.930 . S
H1194 C1174 0.929 . S
H1195 C1176 0.930 . S
H1196 C1178 0.932 . S
H1197 C1179 0.929 . S
H1198 C1180 0.928 . S
H1199 C1182 0.932 . S
C1200 C1201 1.264 . S
C1200 C1205 1.479 . S
C1200 C1210 1.465 . S
C1201 C1200 1.264 . S
C1201 C1203 1.339 . S
C1201 H1228 0.931 . S
C1202 C1203 1.395 . S
C1202 C1204 1.320 . S
C1203 C1201 1.339 . S
C1203 C1202 1.395 . S
C1203 H1229 0.929 . S
C1204 C1202 1.320 . S
C1204 C1205 1.405 . S
C1204 H1230 0.930 . S
C1205 C1200 1.479 . S
C1205 C1204 1.405 . S
C1205 H1231 0.931 . S
U1206 O1207 2.454 . S
U1206 O1208 2.458 . S
U1206 C1209 2.984 . S
U1206 C1210 2.847 . S
U1206 C1223 2.882 . S
U1206 O1224 2.441 . S
U1206 O1225 2.420 . S
U1206 O1226 2.455 . S
U1206 O1227 2.449 . S
O1207 U1206 2.454 . S
O1207 C1209 1.353 . S
O1208 U1206 2.458 . S
O1208 C1209 1.286 . S
C1209 U1206 2.984 . S
C1209 O1207 1.353 . S
C1209 O1208 1.286 . S
C1209 C1211 1.363 . S
C1210 C1200 1.465 . S
C1210 U1206 2.847 . S
C1210 O1224 1.249 . S
C1210 O1225 1.202 . S
C1211 C1209 1.363 . S
C1211 C1213 1.408 . S
C1211 C1216 1.342 . S
C1212 C1213 1.310 . S
C1212 C1215 1.461 . S
C1212 H1232 0.932 . S
C1213 C1211 1.408 . S
C1213 C1212 1.310 . S
C1213 H1233 0.930 . S
C1214 C1215 1.474 . S
C1214 C1216 1.285 . S
C1214 H1234 0.929 . S
C1215 C1212 1.461 . S
C1215 C1214 1.474 . S
C1216 C1211 1.342 . S
C1216 C1214 1.285 . S
C1216 H1235 0.930 . S
C1217 C1220 1.424 . S
C1217 C1222 1.245 . S
C1217 C1223 1.428 . S
C1218 C1221 1.260 . S
C1218 C1222 1.477 . S
C1218 H1236 0.932 . S
C1219 C1220 1.384 . S
C1219 C1221 1.479 . S
C1219 H1237 0.929 . S
C1220 C1217 1.424 . S
C1220 C1219 1.384 . S
C1220 H1238 0.928 . S
C1221 C1218 1.260 . S
C1221 C1219 1.479 . S
C1222 C1217 1.245 . S
C1222 C1218 1.477 . S
C1222 H1239 0.932 . S
C1223 U1206 2.882 . S
C1223 C1217 1.428 . S
C1223 O1226 1.301 . S
C1223 O1227 1.282 . S
O1224 U1206 2.441 . S
O1224 C1210 1.249 . S
O1225 U1206 2.420 . S
O1225 C1210 1.202 . S
O1226 U1206 2.455 . S
O1226 C1223 1.301 . S
O1227 U1206 2.449 . S
O1227 C1223 1.282 . S
H1228 C1201 0.931 . S
H1229 C1203 0.929 . S
H1230 C1204 0.930 . S
H1231 C1205 0.931 . S
H1232 C1212 0.932 . S
H1233 C1213 0.930 . S
H1234 C1214 0.929 . S
H1235 C1216 0.930 . S
H1236 C1218 0.932 . S
H1237 C1219 0.929 . S
H1238 C1220 0.928 . S
H1239 C1222 0.932 . S
C1240 C1241 1.264 . S
C1240 C1245 1.479 . S
C1240 C1250 1.465 . S
C1241 C1240 1.264 . S
C1241 C1243 1.339 . S
C1241 H1268 0.931 . S
C1242 C1243 1.395 . S
C1242 C1244 1.320 . S
C1243 C1241 1.339 . S
C1243 C1242 1.395 . S
C1243 H1269 0.929 . S
C1244 C1242 1.320 . S
C1244 C1245 1.405 . S
C1244 H1270 0.930 . S
C1245 C1240 1.479 . S
C1245 C1244 1.405 . S
C1245 H1271 0.931 . S
U1246 O1247 2.454 . S
U1246 O1248 2.458 . S
U1246 C1249 2.984 . S
U1246 C1250 2.847 . S
U1246 C1263 2.882 . S
U1246 O1264 2.441 . S
U1246 O1265 2.420 . S
U1246 O1266 2.455 . S
U1246 O1267 2.449 . S
O1247 U1246 2.454 . S
O1247 C1249 1.353 . S
O1248 U1246 2.458 . S
O1248 C1249 1.286 . S
C1249 U1246 2.984 . S
C1249 O1247 1.353 . S
C1249 O1248 1.286 . S
C1249 C1251 1.363 . S
C1250 C1240 1.465 . S
C1250 U1246 2.847 . S
C1250 O1264 1.249 . S
C1250 O1265 1.202 . S
C1251 C1249 1.363 . S
C1251 C1253 1.408 . S
C1251 C1256 1.342 . S
C1252 C1253 1.310 . S
C1252 C1255 1.461 . S
C1252 H1272 0.932 . S
C1253 C1251 1.408 . S
C1253 C1252 1.310 . S
C1253 H1273 0.930 . S
C1254 C1255 1.474 . S
C1254 C1256 1.285 . S
C1254 H1274 0.929 . S
C1255 C1252 1.461 . S
C1255 C1254 1.474 . S
C1256 C1251 1.342 . S
C1256 C1254 1.285 . S
C1256 H1275 0.930 . S
C1257 C1260 1.424 . S
C1257 C1262 1.245 . S
C1257 C1263 1.428 . S
C1258 C1261 1.260 . S
C1258 C1262 1.477 . S
C1258 H1276 0.932 . S
C1259 C1260 1.384 . S
C1259 C1261 1.479 . S
C1259 H1277 0.929 . S
C1260 C1257 1.424 . S
C1260 C1259 1.384 . S
C1260 H1278 0.928 . S
C1261 C1258 1.260 . S
C1261 C1259 1.479 . S
C1262 C1257 1.245 . S
C1262 C1258 1.477 . S
C1262 H1279 0.932 . S
C1263 U1246 2.882 . S
C1263 C1257 1.428 . S
C1263 O1266 1.301 . S
C1263 O1267 1.282 . S
O1264 U1246 2.441 . S
O1264 C1250 1.249 . S
O1265 U1246 2.420 . S
O1265 C1250 1.202 . S
O1266 U1246 2.455 . S
O1266 C1263 1.301 . S
O1267 U1246 2.449 . S
O1267 C1263 1.282 . S
H1268 C1241 0.931 . S
H1269 C1243 0.929 . S
H1270 C1244 0.930 . S
H1271 C1245 0.931 . S
H1272 C1252 0.932 . S
H1273 C1253 0.930 . S
H1274 C1254 0.929 . S
H1275 C1256 0.930 . S
H1276 C1258 0.932 . S
H1277 C1259 0.929 . S
H1278 C1260 0.928 . S
H1279 C1262 0.932 . S
C1280 C1281 1.384 . S
C1280 C1282 1.384 . S
C1280 H1308 0.931 . S
C1281 C1280 1.384 . S
C1281 C1284 1.382 . S
C1282 C1280 1.384 . S
C1282 C1283 1.381 . S
C1282 H1309 0.930 . S
C1283 C1282 1.381 . S
C1283 C1285 1.381 . S
C1283 C1286 1.487 . S
C1284 C1281 1.382 . S
C1284 C1285 1.387 . S
C1284 H1310 0.930 . S
C1285 C1283 1.381 . S
C1285 C1284 1.387 . S
C1285 H1311 0.931 . S
C1286 C1283 1.487 . S
C1286 C1293 1.399 . S
C1286 N1324 1.343 . S
C1287 C1288 1.384 . S
C1287 C1289 1.384 . S
C1287 H1312 0.931 . S
C1288 C1287 1.384 . S
C1288 C1291 1.382 . S
C1289 C1287 1.384 . S
C1289 C1290 1.381 . S
C1289 H1313 0.930 . S
C1290 C1289 1.381 . S
C1290 C1292 1.381 . S
C1290 C1293 1.487 . S
C1291 C1288 1.382 . S
C1291 C1292 1.387 . S
C1291 H1314 0.930 . S
C1292 C1290 1.381 . S
C1292 C1291 1.387 . S
C1292 H1315 0.931 . S
C1293 C1286 1.399 . S
C1293 C1290 1.487 . S
C1293 N1325 1.343 . S
C1294 C1295 1.384 . S
C1294 C1296 1.384 . S
C1294 H1316 0.931 . S
C1295 C1294 1.384 . S
C1295 C1298 1.382 . S
C1296 C1294 1.384 . S
C1296 C1297 1.381 . S
C1296 H1317 0.930 . S
C1297 C1296 1.381 . S
C1297 C1299 1.381 . S
C1297 C1300 1.487 . S
C1298 C1295 1.382 . S
C1298 C1299 1.387 . S
C1298 H1318 0.930 . S
C1299 C1297 1.381 . S
C1299 C1298 1.387 . S
C1299 H1319 0.931 . S
C1300 C1297 1.487 . S
C1300 C1307 1.399 . S
C1300 N1325 1.343 1_556 S
C1301 C1302 1.384 . S
C1301 C1303 1.384 . S
C1301 H1320 0.931 . S
C1302 C1301 1.384 . S
C1302 C1305 1.382 . S
C1303 C1301 1.384 . S
C1303 C1304 1.381 . S
C1303 H1321 0.930 . S
C1304 C1303 1.381 . S
C1304 C1306 1.381 . S
C1304 C1307 1.487 . S
C1305 C1302 1.382 . S
C1305 C1306 1.387 . S
C1305 H1322 0.930 . S
C1306 C1304 1.381 . S
C1306 C1305 1.387 . S
C1306 H1323 0.931 . S
C1307 C1300 1.399 . S
C1307 C1304 1.487 . S
C1307 N1324 1.343 1_556 S
H1308 C1280 0.931 . S
H1309 C1282 0.930 . S
H1310 C1284 0.930 . S
H1311 C1285 0.931 . S
H1312 C1287 0.931 . S
H1313 C1289 0.930 . S
H1314 C1291 0.930 . S
H1315 C1292 0.931 . S
H1316 C1294 0.931 . S
H1317 C1296 0.930 . S
H1318 C1298 0.930 . S
H1319 C1299 0.931 . S
H1320 C1301 0.931 . S
H1321 C1303 0.930 . S
H1322 C1305 0.930 . S
H1323 C1306 0.931 . S
N1324 C1286 1.343 . S
N1324 C1307 1.343 1_554 S
N1325 C1293 1.343 . S
N1325 C1300 1.343 1_554 S
C1326 C1327 1.384 . S
C1326 C1328 1.384 . S
C1326 H1354 0.931 . S
C1327 C1326 1.384 . S
C1327 C1330 1.382 . S
C1328 C1326 1.384 . S
C1328 C1329 1.381 . S
C1328 H1355 0.930 . S
C1329 C1328 1.381 . S
C1329 C1331 1.381 . S
C1329 C1332 1.487 . S
C1330 C1327 1.382 . S
C1330 C1331 1.387 . S
C1330 H1356 0.930 . S
C1331 C1329 1.381 . S
C1331 C1330 1.387 . S
C1331 H1357 0.931 . S
C1332 C1329 1.487 . S
C1332 C1339 1.399 . S
C1332 N1370 1.343 1_556 S
C1333 C1334 1.384 . S
C1333 C1335 1.384 . S
C1333 H1358 0.931 . S
C1334 C1333 1.384 . S
C1334 C1337 1.382 . S
C1335 C1333 1.384 . S
C1335 C1336 1.381 . S
C1335 H1359 0.930 . S
C1336 C1335 1.381 . S
C1336 C1338 1.381 . S
C1336 C1339 1.487 . S
C1337 C1334 1.382 . S
C1337 C1338 1.387 . S
C1337 H1360 0.930 . S
C1338 C1336 1.381 . S
C1338 C1337 1.387 . S
C1338 H1361 0.931 . S
C1339 C1332 1.399 . S
C1339 C1336 1.487 . S
C1339 N1371 1.343 1_556 S
C1340 C1341 1.384 . S
C1340 C1342 1.384 . S
C1340 H1362 0.931 . S
C1341 C1340 1.384 . S
C1341 C1344 1.382 . S
C1342 C1340 1.384 . S
C1342 C1343 1.381 . S
C1342 H1363 0.930 . S
C1343 C1342 1.381 . S
C1343 C1345 1.381 . S
C1343 C1346 1.487 . S
C1344 C1341 1.382 . S
C1344 C1345 1.387 . S
C1344 H1364 0.930 . S
C1345 C1343 1.381 . S
C1345 C1344 1.387 . S
C1345 H1365 0.931 . S
C1346 C1343 1.487 . S
C1346 C1353 1.399 . S
C1346 N1371 1.343 . S
C1347 C1348 1.384 . S
C1347 C1349 1.384 . S
C1347 H1366 0.931 . S
C1348 C1347 1.384 . S
C1348 C1351 1.382 . S
C1349 C1347 1.384 . S
C1349 C1350 1.381 . S
C1349 H1367 0.930 . S
C1350 C1349 1.381 . S
C1350 C1352 1.381 . S
C1350 C1353 1.487 . S
C1351 C1348 1.382 . S
C1351 C1352 1.387 . S
C1351 H1368 0.930 . S
C1352 C1350 1.381 . S
C1352 C1351 1.387 . S
C1352 H1369 0.931 . S
C1353 C1346 1.399 . S
C1353 C1350 1.487 . S
C1353 N1370 1.343 . S
H1354 C1326 0.931 . S
H1355 C1328 0.930 . S
H1356 C1330 0.930 . S
H1357 C1331 0.931 . S
H1358 C1333 0.931 . S
H1359 C1335 0.930 . S
H1360 C1337 0.930 . S
H1361 C1338 0.931 . S
H1362 C1340 0.931 . S
H1363 C1342 0.930 . S
H1364 C1344 0.930 . S
H1365 C1345 0.931 . S
H1366 C1347 0.931 . S
H1367 C1349 0.930 . S
H1368 C1351 0.930 . S
H1369 C1352 0.931 . S
N1370 C1332 1.343 1_554 S
N1370 C1353 1.343 . S
N1371 C1339 1.343 1_554 S
N1371 C1346 1.343 . S
C1372 C1373 1.384 . S
C1372 C1374 1.384 . S
C1372 H1400 0.931 . S
C1373 C1372 1.384 . S
C1373 C1376 1.382 . S
C1374 C1372 1.384 . S
C1374 C1375 1.381 . S
C1374 H1401 0.930 . S
C1375 C1374 1.381 . S
C1375 C1377 1.381 . S
C1375 C1378 1.487 . S
C1376 C1373 1.382 . S
C1376 C1377 1.387 . S
C1376 H1402 0.930 . S
C1377 C1375 1.381 . S
C1377 C1376 1.387 . S
C1377 H1403 0.931 . S
C1378 C1375 1.487 . S
C1378 C1385 1.399 . S
C1378 N1416 1.343 . S
C1379 C1380 1.384 . S
C1379 C1381 1.384 . S
C1379 H1404 0.931 . S
C1380 C1379 1.384 . S
C1380 C1383 1.382 . S
C1381 C1379 1.384 . S
C1381 C1382 1.381 . S
C1381 H1405 0.930 . S
C1382 C1381 1.381 . S
C1382 C1384 1.381 . S
C1382 C1385 1.487 . S
C1383 C1380 1.382 . S
C1383 C1384 1.387 . S
C1383 H1406 0.930 . S
C1384 C1382 1.381 . S
C1384 C1383 1.387 . S
C1384 H1407 0.931 . S
C1385 C1378 1.399 . S
C1385 C1382 1.487 . S
C1385 N1417 1.343 . S
C1386 C1387 1.384 . S
C1386 C1388 1.384 . S
C1386 H1408 0.931 . S
C1387 C1386 1.384 . S
C1387 C1390 1.382 . S
C1388 C1386 1.384 . S
C1388 C1389 1.381 . S
C1388 H1409 0.930 . S
C1389 C1388 1.381 . S
C1389 C1391 1.381 . S
C1389 C1392 1.487 . S
C1390 C1387 1.382 . S
C1390 C1391 1.387 . S
C1390 H1410 0.930 . S
C1391 C1389 1.381 . S
C1391 C1390 1.387 . S
C1391 H1411 0.931 . S
C1392 C1389 1.487 . S
C1392 C1399 1.399 . S
C1392 N1417 1.343 1_556 S
C1393 C1394 1.384 . S
C1393 C1395 1.384 . S
C1393 H1412 0.931 . S
C1394 C1393 1.384 . S
C1394 C1397 1.382 . S
C1395 C1393 1.384 . S
C1395 C1396 1.381 . S
C1395 H1413 0.930 . S
C1396 C1395 1.381 . S
C1396 C1398 1.381 . S
C1396 C1399 1.487 . S
C1397 C1394 1.382 . S
C1397 C1398 1.387 . S
C1397 H1414 0.930 . S
C1398 C1396 1.381 . S
C1398 C1397 1.387 . S
C1398 H1415 0.931 . S
C1399 C1392 1.399 . S
C1399 C1396 1.487 . S
C1399 N1416 1.343 1_556 S
H1400 C1372 0.931 . S
H1401 C1374 0.930 . S
H1402 C1376 0.930 . S
H1403 C1377 0.931 . S
H1404 C1379 0.931 . S
H1405 C1381 0.930 . S
H1406 C1383 0.930 . S
H1407 C1384 0.931 . S
H1408 C1386 0.931 . S
H1409 C1388 0.930 . S
H1410 C1390 0.930 . S
H1411 C1391 0.931 . S
H1412 C1393 0.931 . S
H1413 C1395 0.930 . S
H1414 C1397 0.930 . S
H1415 C1398 0.931 . S
N1416 C1378 1.343 . S
N1416 C1399 1.343 1_554 S
N1417 C1385 1.343 . S
N1417 C1392 1.343 1_554 S
C1418 C1419 1.384 . S
C1418 C1420 1.384 . S
C1418 H1446 0.931 . S
C1419 C1418 1.384 . S
C1419 C1422 1.382 . S
C1420 C1418 1.384 . S
C1420 C1421 1.381 . S
C1420 H1447 0.930 . S
C1421 C1420 1.381 . S
C1421 C1423 1.381 . S
C1421 C1424 1.487 . S
C1422 C1419 1.382 . S
C1422 C1423 1.387 . S
C1422 H1448 0.930 . S
C1423 C1421 1.381 . S
C1423 C1422 1.387 . S
C1423 H1449 0.931 . S
C1424 C1421 1.487 . S
C1424 C1431 1.399 . S
C1424 N1462 1.343 1_556 S
C1425 C1426 1.384 . S
C1425 C1427 1.384 . S
C1425 H1450 0.931 . S
C1426 C1425 1.384 . S
C1426 C1429 1.382 . S
C1427 C1425 1.384 . S
C1427 C1428 1.381 . S
C1427 H1451 0.930 . S
C1428 C1427 1.381 . S
C1428 C1430 1.381 . S
C1428 C1431 1.487 . S
C1429 C1426 1.382 . S
C1429 C1430 1.387 . S
C1429 H1452 0.930 . S
C1430 C1428 1.381 . S
C1430 C1429 1.387 . S
C1430 H1453 0.931 . S
C1431 C1424 1.399 . S
C1431 C1428 1.487 . S
C1431 N1463 1.343 1_556 S
C1432 C1433 1.384 . S
C1432 C1434 1.384 . S
C1432 H1454 0.931 . S
C1433 C1432 1.384 . S
C1433 C1436 1.382 . S
C1434 C1432 1.384 . S
C1434 C1435 1.381 . S
C1434 H1455 0.930 . S
C1435 C1434 1.381 . S
C1435 C1437 1.381 . S
C1435 C1438 1.487 . S
C1436 C1433 1.382 . S
C1436 C1437 1.387 . S
C1436 H1456 0.930 . S
C1437 C1435 1.381 . S
C1437 C1436 1.387 . S
C1437 H1457 0.931 . S
C1438 C1435 1.487 . S
C1438 C1445 1.399 . S
C1438 N1463 1.343 . S
C1439 C1440 1.384 . S
C1439 C1441 1.384 . S
C1439 H1458 0.931 . S
C1440 C1439 1.384 . S
C1440 C1443 1.382 . S
C1441 C1439 1.384 . S
C1441 C1442 1.381 . S
C1441 H1459 0.930 . S
C1442 C1441 1.381 . S
C1442 C1444 1.381 . S
C1442 C1445 1.487 . S
C1443 C1440 1.382 . S
C1443 C1444 1.387 . S
C1443 H1460 0.930 . S
C1444 C1442 1.381 . S
C1444 C1443 1.387 . S
C1444 H1461 0.931 . S
C1445 C1438 1.399 . S
C1445 C1442 1.487 . S
C1445 N1462 1.343 . S
H1446 C1418 0.931 . S
H1447 C1420 0.930 . S
H1448 C1422 0.930 . S
H1449 C1423 0.931 . S
H1450 C1425 0.931 . S
H1451 C1427 0.930 . S
H1452 C1429 0.930 . S
H1453 C1430 0.931 . S
H1454 C1432 0.931 . S
H1455 C1434 0.930 . S
H1456 C1436 0.930 . S
H1457 C1437 0.931 . S
H1458 C1439 0.931 . S
H1459 C1441 0.930 . S
H1460 C1443 0.930 . S
H1461 C1444 0.931 . S
N1462 C1424 1.343 1_554 S
N1462 C1445 1.343 . S
N1463 C1431 1.343 1_554 S
N1463 C1438 1.343 . S
C1464 C1465 1.384 . S
C1464 C1466 1.384 . S
C1464 H1492 0.931 . S
C1465 C1464 1.384 . S
C1465 C1468 1.382 . S
C1466 C1464 1.384 . S
C1466 C1467 1.381 . S
C1466 H1493 0.930 . S
C1467 C1466 1.381 . S
C1467 C1469 1.381 . S
C1467 C1470 1.487 . S
C1468 C1465 1.382 . S
C1468 C1469 1.387 . S
C1468 H1494 0.930 . S
C1469 C1467 1.381 . S
C1469 C1468 1.387 . S
C1469 H1495 0.931 . S
C1470 C1467 1.487 . S
C1470 C1477 1.399 . S
C1470 N1508 1.343 1_655 S
C1471 C1472 1.384 . S
C1471 C1473 1.384 . S
C1471 H1496 0.931 . S
C1472 C1471 1.384 . S
C1472 C1475 1.382 . S
C1473 C1471 1.384 . S
C1473 C1474 1.381 . S
C1473 H1497 0.930 . S
C1474 C1473 1.381 . S
C1474 C1476 1.381 . S
C1474 C1477 1.487 . S
C1475 C1472 1.382 . S
C1475 C1476 1.387 . S
C1475 H1498 0.930 . S
C1476 C1474 1.381 . S
C1476 C1475 1.387 . S
C1476 H1499 0.931 . S
C1477 C1470 1.399 . S
C1477 C1474 1.487 . S
C1477 N1509 1.343 1_655 S
C1478 C1479 1.384 . S
C1478 C1480 1.384 . S
C1478 H1500 0.931 . S
C1479 C1478 1.384 . S
C1479 C1482 1.382 . S
C1480 C1478 1.384 . S
C1480 C1481 1.381 . S
C1480 H1501 0.930 . S
C1481 C1480 1.381 . S
C1481 C1483 1.381 . S
C1481 C1484 1.487 . S
C1482 C1479 1.382 . S
C1482 C1483 1.387 . S
C1482 H1502 0.930 . S
C1483 C1481 1.381 . S
C1483 C1482 1.387 . S
C1483 H1503 0.931 . S
C1484 C1481 1.487 . S
C1484 C1491 1.399 . S
C1484 N1509 1.343 . S
C1485 C1486 1.384 . S
C1485 C1487 1.384 . S
C1485 H1504 0.931 . S
C1486 C1485 1.384 . S
C1486 C1489 1.382 . S
C1487 C1485 1.384 . S
C1487 C1488 1.381 . S
C1487 H1505 0.930 . S
C1488 C1487 1.381 . S
C1488 C1490 1.381 . S
C1488 C1491 1.487 . S
C1489 C1486 1.382 . S
C1489 C1490 1.387 . S
C1489 H1506 0.930 . S
C1490 C1488 1.381 . S
C1490 C1489 1.387 . S
C1490 H1507 0.931 . S
C1491 C1484 1.399 . S
C1491 C1488 1.487 . S
C1491 N1508 1.343 . S
H1492 C1464 0.931 . S
H1493 C1466 0.930 . S
H1494 C1468 0.930 . S
H1495 C1469 0.931 . S
H1496 C1471 0.931 . S
H1497 C1473 0.930 . S
H1498 C1475 0.930 . S
H1499 C1476 0.931 . S
H1500 C1478 0.931 . S
H1501 C1480 0.930 . S
H1502 C1482 0.930 . S
H1503 C1483 0.931 . S
H1504 C1485 0.931 . S
H1505 C1487 0.930 . S
H1506 C1489 0.930 . S
H1507 C1490 0.931 . S
N1508 C1470 1.343 1_455 S
N1508 C1491 1.343 . S
N1509 C1477 1.343 1_455 S
N1509 C1484 1.343 . S
C1510 C1511 1.384 . S
C1510 C1512 1.384 . S
C1510 H1538 0.931 . S
C1511 C1510 1.384 . S
C1511 C1514 1.382 . S
C1512 C1510 1.384 . S
C1512 C1513 1.381 . S
C1512 H1539 0.930 . S
C1513 C1512 1.381 . S
C1513 C1515 1.381 . S
C1513 C1516 1.487 . S
C1514 C1511 1.382 . S
C1514 C1515 1.387 . S
C1514 H1540 0.930 . S
C1515 C1513 1.381 . S
C1515 C1514 1.387 . S
C1515 H1541 0.931 . S
C1516 C1513 1.487 . S
C1516 C1523 1.399 . S
C1516 N1554 1.317 1_565 S
C1517 C1518 1.384 . S
C1517 C1519 1.384 . S
C1517 H1542 0.931 . S
C1518 C1517 1.384 . S
C1518 C1521 1.382 . S
C1519 C1517 1.384 . S
C1519 C1520 1.381 . S
C1519 H1543 0.930 . S
C1520 C1519 1.381 . S
C1520 C1522 1.381 . S
C1520 C1523 1.487 . S
C1521 C1518 1.382 . S
C1521 C1522 1.387 . S
C1521 H1544 0.930 . S
C1522 C1520 1.381 . S
C1522 C1521 1.387 . S
C1522 H1545 0.931 . S
C1523 C1516 1.399 . S
C1523 C1520 1.487 . S
C1523 N1555 1.343 1_565 S
C1524 C1525 1.384 . S
C1524 C1526 1.384 . S
C1524 H1546 0.931 . S
C1525 C1524 1.384 . S
C1525 C1528 1.382 . S
C1526 C1524 1.384 . S
C1526 C1527 1.381 . S
C1526 H1547 0.930 . S
C1527 C1526 1.381 . S
C1527 C1529 1.381 . S
C1527 C1530 1.487 . S
C1528 C1525 1.382 . S
C1528 C1529 1.387 . S
C1528 H1548 0.930 . S
C1529 C1527 1.381 . S
C1529 C1528 1.387 . S
C1529 H1549 0.931 . S
C1530 C1527 1.487 . S
C1530 C1537 1.399 . S
C1530 N1555 1.343 . S
C1531 C1532 1.384 . S
C1531 C1533 1.384 . S
C1531 H1550 0.931 . S
C1532 C1531 1.384 . S
C1532 C1535 1.382 . S
C1533 C1531 1.384 . S
C1533 C1534 1.381 . S
C1533 H1551 0.930 . S
C1534 C1533 1.381 . S
C1534 C1536 1.381 . S
C1534 C1537 1.487 . S
C1535 C1532 1.382 . S
C1535 C1536 1.387 . S
C1535 H1552 0.930 . S
C1536 C1534 1.381 . S
C1536 C1535 1.387 . S
C1536 H1553 0.931 . S
C1537 C1530 1.399 . S
C1537 C1534 1.487 . S
C1537 N1554 1.370 . S
H1538 C1510 0.931 . S
H1539 C1512 0.930 . S
H1540 C1514 0.930 . S
H1541 C1515 0.931 . S
H1542 C1517 0.931 . S
H1543 C1519 0.930 . S
H1544 C1521 0.930 . S
H1545 C1522 0.931 . S
H1546 C1524 0.931 . S
H1547 C1526 0.930 . S
H1548 C1528 0.930 . S
H1549 C1529 0.931 . S
H1550 C1531 0.931 . S
H1551 C1533 0.930 . S
H1552 C1535 0.930 . S
H1553 C1536 0.931 . S
N1554 C1516 1.317 1_545 S
N1554 C1537 1.370 . S
N1555 C1523 1.343 1_545 S
N1555 C1530 1.343 . S
C1556 C1557 1.384 . S
C1556 C1558 1.384 . S
C1556 H1584 0.931 . S
C1557 C1556 1.384 . S
C1557 C1560 1.382 . S
C1558 C1556 1.384 . S
C1558 C1559 1.381 . S
C1558 H1585 0.930 . S
C1559 C1558 1.381 . S
C1559 C1561 1.381 . S
C1559 C1562 1.487 . S
C1560 C1557 1.382 . S
C1560 C1561 1.387 . S
C1560 H1586 0.930 . S
C1561 C1559 1.381 . S
C1561 C1560 1.387 . S
C1561 H1587 0.931 . S
C1562 C1559 1.487 . S
C1562 C1569 1.399 . S
C1562 N1600 1.343 . S
C1563 C1564 1.384 . S
C1563 C1565 1.384 . S
C1563 H1588 0.931 . S
C1564 C1563 1.384 . S
C1564 C1567 1.382 . S
C1565 C1563 1.384 . S
C1565 C1566 1.381 . S
C1565 H1589 0.930 . S
C1566 C1565 1.381 . S
C1566 C1568 1.381 . S
C1566 C1569 1.487 . S
C1567 C1564 1.382 . S
C1567 C1568 1.387 . S
C1567 H1590 0.930 . S
C1568 C1566 1.381 . S
C1568 C1567 1.387 . S
C1568 H1591 0.931 . S
C1569 C1562 1.399 . S
C1569 C1566 1.487 . S
C1569 N1601 1.386 . S
C1570 C1571 1.384 . S
C1570 C1572 1.384 . S
C1570 H1592 0.931 . S
C1571 C1570 1.384 . S
C1571 C1574 1.382 . S
C1572 C1570 1.384 . S
C1572 C1573 1.381 . S
C1572 H1593 0.930 . S
C1573 C1572 1.381 . S
C1573 C1575 1.381 . S
C1573 C1576 1.487 . S
C1574 C1571 1.382 . S
C1574 C1575 1.387 . S
C1574 H1594 0.930 . S
C1575 C1573 1.381 . S
C1575 C1574 1.387 . S
C1575 H1595 0.931 . S
C1576 C1573 1.487 . S
C1576 C1583 1.399 . S
C1576 N1601 1.301 1_655 S
C1577 C1578 1.384 . S
C1577 C1579 1.384 . S
C1577 H1596 0.931 . S
C1578 C1577 1.384 . S
C1578 C1581 1.382 . S
C1579 C1577 1.384 . S
C1579 C1580 1.381 . S
C1579 H1597 0.930 . S
C1580 C1579 1.381 . S
C1580 C1582 1.381 . S
C1580 C1583 1.487 . S
C1581 C1578 1.382 . S
C1581 C1582 1.387 . S
C1581 H1598 0.930 . S
C1582 C1580 1.381 . S
C1582 C1581 1.387 . S
C1582 H1599 0.931 . S
C1583 C1576 1.399 . S
C1583 C1580 1.487 . S
C1583 N1600 1.343 1_655 S
H1584 C1556 0.931 . S
H1585 C1558 0.930 . S
H1586 C1560 0.930 . S
H1587 C1561 0.931 . S
H1588 C1563 0.931 . S
H1589 C1565 0.930 . S
H1590 C1567 0.930 . S
H1591 C1568 0.931 . S
H1592 C1570 0.931 . S
H1593 C1572 0.930 . S
H1594 C1574 0.930 . S
H1595 C1575 0.931 . S
H1596 C1577 0.931 . S
H1597 C1579 0.930 . S
H1598 C1581 0.930 . S
H1599 C1582 0.931 . S
N1600 C1562 1.343 . S
N1600 C1583 1.343 1_455 S
N1601 C1569 1.386 . S
N1601 C1576 1.301 1_455 S
C1602 C1603 1.384 . S
C1602 C1604 1.384 . S
C1602 H1630 0.931 . S
C1603 C1602 1.384 . S
C1603 C1606 1.382 . S
C1604 C1602 1.384 . S
C1604 C1605 1.381 . S
C1604 H1631 0.930 . S
C1605 C1604 1.381 . S
C1605 C1607 1.381 . S
C1605 C1608 1.487 . S
C1606 C1603 1.382 . S
C1606 C1607 1.387 . S
C1606 H1632 0.930 . S
C1607 C1605 1.381 . S
C1607 C1606 1.387 . S
C1607 H1633 0.931 . S
C1608 C1605 1.487 . S
C1608 C1615 1.399 . S
C1608 N1646 1.343 1_565 S
C1609 C1610 1.384 . S
C1609 C1611 1.384 . S
C1609 H1634 0.931 . S
C1610 C1609 1.384 . S
C1610 C1613 1.382 . S
C1611 C1609 1.384 . S
C1611 C1612 1.381 . S
C1611 H1635 0.930 . S
C1612 C1611 1.381 . S
C1612 C1614 1.381 . S
C1612 C1615 1.487 . S
C1613 C1610 1.382 . S
C1613 C1614 1.387 . S
C1613 H1636 0.930 . S
C1614 C1612 1.381 . S
C1614 C1613 1.387 . S
C1614 H1637 0.931 . S
C1615 C1608 1.399 . S
C1615 C1612 1.487 . S
C1615 N1647 1.343 1_565 S
C1616 C1617 1.384 . S
C1616 C1618 1.384 . S
C1616 H1638 0.931 . S
C1617 C1616 1.384 . S
C1617 C1620 1.382 . S
C1618 C1616 1.384 . S
C1618 C1619 1.381 . S
C1618 H1639 0.930 . S
C1619 C1618 1.381 . S
C1619 C1621 1.381 . S
C1619 C1622 1.487 . S
C1620 C1617 1.382 . S
C1620 C1621 1.387 . S
C1620 H1640 0.930 . S
C1621 C1619 1.381 . S
C1621 C1620 1.387 . S
C1621 H1641 0.931 . S
C1622 C1619 1.487 . S
C1622 C1629 1.399 . S
C1622 N1647 1.343 . S
C1623 C1624 1.384 . S
C1623 C1625 1.384 . S
C1623 H1642 0.931 . S
C1624 C1623 1.384 . S
C1624 C1627 1.382 . S
C1625 C1623 1.384 . S
C1625 C1626 1.381 . S
C1625 H1643 0.930 . S
C1626 C1625 1.381 . S
C1626 C1628 1.381 . S
C1626 C1629 1.487 . S
C1627 C1624 1.382 . S
C1627 C1628 1.387 . S
C1627 H1644 0.930 . S
C1628 C1626 1.381 . S
C1628 C1627 1.387 . S
C1628 H1645 0.931 . S
C1629 C1622 1.399 . S
C1629 C1626 1.487 . S
C1629 N1646 1.343 . S
H1630 C1602 0.931 . S
H1631 C1604 0.930 . S
H1632 C1606 0.930 . S
H1633 C1607 0.931 . S
H1634 C1609 0.931 . S
H1635 C1611 0.930 . S
H1636 C1613 0.930 . S
H1637 C1614 0.931 . S
H1638 C1616 0.931 . S
H1639 C1618 0.930 . S
H1640 C1620 0.930 . S
H1641 C1621 0.931 . S
H1642 C1623 0.931 . S
H1643 C1625 0.930 . S
H1644 C1627 0.930 . S
H1645 C1628 0.931 . S
N1646 C1608 1.343 1_545 S
N1646 C1629 1.343 . S
N1647 C1615 1.343 1_545 S
N1647 C1622 1.343 . S
C1648 C1649 1.384 . S
C1648 C1650 1.384 . S
C1648 H1676 0.931 . S
C1649 C1648 1.384 . S
C1649 C1652 1.382 . S
C1650 C1648 1.384 . S
C1650 C1651 1.381 . S
C1650 H1677 0.930 . S
C1651 C1650 1.381 . S
C1651 C1653 1.381 . S
C1651 C1654 1.487 . S
C1652 C1649 1.382 . S
C1652 C1653 1.387 . S
C1652 H1678 0.930 . S
C1653 C1651 1.381 . S
C1653 C1652 1.387 . S
C1653 H1679 0.931 . S
C1654 C1651 1.487 . S
C1654 C1661 1.399 . S
C1654 N1692 1.343 1_655 S
C1655 C1656 1.384 . S
C1655 C1657 1.384 . S
C1655 H1680 0.931 . S
C1656 C1655 1.384 . S
C1656 C1659 1.382 . S
C1657 C1655 1.384 . S
C1657 C1658 1.381 . S
C1657 H1681 0.930 . S
C1658 C1657 1.381 . S
C1658 C1660 1.381 . S
C1658 C1661 1.487 . S
C1659 C1656 1.382 . S
C1659 C1660 1.387 . S
C1659 H1682 0.930 . S
C1660 C1658 1.381 . S
C1660 C1659 1.387 . S
C1660 H1683 0.931 . S
C1661 C1654 1.399 . S
C1661 C1658 1.487 . S
C1661 N1693 1.343 1_655 S
C1662 C1663 1.384 . S
C1662 C1664 1.384 . S
C1662 H1684 0.931 . S
C1663 C1662 1.384 . S
C1663 C1666 1.382 . S
C1664 C1662 1.384 . S
C1664 C1665 1.381 . S
C1664 H1685 0.930 . S
C1665 C1664 1.381 . S
C1665 C1667 1.381 . S
C1665 C1668 1.487 . S
C1666 C1663 1.382 . S
C1666 C1667 1.387 . S
C1666 H1686 0.930 . S
C1667 C1665 1.381 . S
C1667 C1666 1.387 . S
C1667 H1687 0.931 . S
C1668 C1665 1.487 . S
C1668 C1675 1.399 . S
C1668 N1693 1.343 . S
C1669 C1670 1.384 . S
C1669 C1671 1.384 . S
C1669 H1688 0.931 . S
C1670 C1669 1.384 . S
C1670 C1673 1.382 . S
C1671 C1669 1.384 . S
C1671 C1672 1.381 . S
C1671 H1689 0.930 . S
C1672 C1671 1.381 . S
C1672 C1674 1.381 . S
C1672 C1675 1.487 . S
C1673 C1670 1.382 . S
C1673 C1674 1.387 . S
C1673 H1690 0.930 . S
C1674 C1672 1.381 . S
C1674 C1673 1.387 . S
C1674 H1691 0.931 . S
C1675 C1668 1.399 . S
C1675 C1672 1.487 . S
C1675 N1692 1.343 . S
H1676 C1648 0.931 . S
H1677 C1650 0.930 . S
H1678 C1652 0.930 . S
H1679 C1653 0.931 . S
H1680 C1655 0.931 . S
H1681 C1657 0.930 . S
H1682 C1659 0.930 . S
H1683 C1660 0.931 . S
H1684 C1662 0.931 . S
H1685 C1664 0.930 . S
H1686 C1666 0.930 . S
H1687 C1667 0.931 . S
H1688 C1669 0.931 . S
H1689 C1671 0.930 . S
H1690 C1673 0.930 . S
H1691 C1674 0.931 . S
N1692 C1654 1.343 1_455 S
N1692 C1675 1.343 . S
N1693 C1661 1.343 1_455 S
N1693 C1668 1.343 . S
C1694 C1695 1.384 . S
C1694 C1696 1.384 . S
C1694 H1722 0.931 . S
C1695 C1694 1.384 . S
C1695 C1698 1.382 . S
C1696 C1694 1.384 . S
C1696 C1697 1.381 . S
C1696 H1723 0.930 . S
C1697 C1696 1.381 . S
C1697 C1699 1.381 . S
C1697 C1700 1.487 . S
C1698 C1695 1.382 . S
C1698 C1699 1.387 . S
C1698 H1724 0.930 . S
C1699 C1697 1.381 . S
C1699 C1698 1.387 . S
C1699 H1725 0.931 . S
C1700 C1697 1.487 . S
C1700 C1707 1.399 . S
C1700 N1738 1.316 1_565 S
C1701 C1702 1.384 . S
C1701 C1703 1.384 . S
C1701 H1726 0.931 . S
C1702 C1701 1.384 . S
C1702 C1705 1.382 . S
C1703 C1701 1.384 . S
C1703 C1704 1.381 . S
C1703 H1727 0.930 . S
C1704 C1703 1.381 . S
C1704 C1706 1.381 . S
C1704 C1707 1.487 . S
C1705 C1702 1.382 . S
C1705 C1706 1.387 . S
C1705 H1728 0.930 . S
C1706 C1704 1.381 . S
C1706 C1705 1.387 . S
C1706 H1729 0.931 . S
C1707 C1700 1.399 . S
C1707 C1704 1.487 . S
C1707 N1739 1.343 1_565 S
C1708 C1709 1.384 . S
C1708 C1710 1.384 . S
C1708 H1730 0.931 . S
C1709 C1708 1.384 . S
C1709 C1712 1.382 . S
C1710 C1708 1.384 . S
C1710 C1711 1.381 . S
C1710 H1731 0.930 . S
C1711 C1710 1.381 . S
C1711 C1713 1.381 . S
C1711 C1714 1.487 . S
C1712 C1709 1.382 . S
C1712 C1713 1.387 . S
C1712 H1732 0.930 . S
C1713 C1711 1.381 . S
C1713 C1712 1.387 . S
C1713 H1733 0.931 . S
C1714 C1711 1.487 . S
C1714 C1721 1.399 . S
C1714 N1739 1.343 . S
C1715 C1716 1.384 . S
C1715 C1717 1.384 . S
C1715 H1734 0.931 . S
C1716 C1715 1.384 . S
C1716 C1719 1.382 . S
C1717 C1715 1.384 . S
C1717 C1718 1.381 . S
C1717 H1735 0.930 . S
C1718 C1717 1.381 . S
C1718 C1720 1.381 . S
C1718 C1721 1.487 . S
C1719 C1716 1.382 . S
C1719 C1720 1.387 . S
C1719 H1736 0.930 . S
C1720 C1718 1.381 . S
C1720 C1719 1.387 . S
C1720 H1737 0.931 . S
C1721 C1714 1.399 . S
C1721 C1718 1.487 . S
C1721 N1738 1.370 . S
H1722 C1694 0.931 . S
H1723 C1696 0.930 . S
H1724 C1698 0.930 . S
H1725 C1699 0.931 . S
H1726 C1701 0.931 . S
H1727 C1703 0.930 . S
H1728 C1705 0.930 . S
H1729 C1706 0.931 . S
H1730 C1708 0.931 . S
H1731 C1710 0.930 . S
H1732 C1712 0.930 . S
H1733 C1713 0.931 . S
H1734 C1715 0.931 . S
H1735 C1717 0.930 . S
H1736 C1719 0.930 . S
H1737 C1720 0.931 . S
N1738 C1700 1.316 1_545 S
N1738 C1721 1.370 . S
N1739 C1707 1.343 1_545 S
N1739 C1714 1.343 . S
C1740 C1741 1.384 . S
C1740 C1742 1.384 . S
C1740 H1768 0.931 . S
C1741 C1740 1.384 . S
C1741 C1744 1.382 . S
C1742 C1740 1.384 . S
C1742 C1743 1.381 . S
C1742 H1769 0.930 . S
C1743 C1742 1.381 . S
C1743 C1745 1.381 . S
C1743 C1746 1.487 . S
C1744 C1741 1.382 . S
C1744 C1745 1.387 . S
C1744 H1770 0.930 . S
C1745 C1743 1.381 . S
C1745 C1744 1.387 . S
C1745 H1771 0.931 . S
C1746 C1743 1.487 . S
C1746 C1753 1.399 . S
C1746 N1784 1.343 . S
C1747 C1748 1.384 . S
C1747 C1749 1.384 . S
C1747 H1772 0.931 . S
C1748 C1747 1.384 . S
C1748 C1751 1.382 . S
C1749 C1747 1.384 . S
C1749 C1750 1.381 . S
C1749 H1773 0.930 . S
C1750 C1749 1.381 . S
C1750 C1752 1.381 . S
C1750 C1753 1.487 . S
C1751 C1748 1.382 . S
C1751 C1752 1.387 . S
C1751 H1774 0.930 . S
C1752 C1750 1.381 . S
C1752 C1751 1.387 . S
C1752 H1775 0.931 . S
C1753 C1746 1.399 . S
C1753 C1750 1.487 . S
C1753 N1785 1.387 . S
C1754 C1755 1.384 . S
C1754 C1756 1.384 . S
C1754 H1776 0.931 . S
C1755 C1754 1.384 . S
C1755 C1758 1.382 . S
C1756 C1754 1.384 . S
C1756 C1757 1.381 . S
C1756 H1777 0.930 . S
C1757 C1756 1.381 . S
C1757 C1759 1.381 . S
C1757 C1760 1.487 . S
C1758 C1755 1.382 . S
C1758 C1759 1.387 . S
C1758 H1778 0.930 . S
C1759 C1757 1.381 . S
C1759 C1758 1.387 . S
C1759 H1779 0.931 . S
C1760 C1757 1.487 . S
C1760 C1767 1.399 . S
C1760 N1785 1.299 1_655 S
C1761 C1762 1.384 . S
C1761 C1763 1.384 . S
C1761 H1780 0.931 . S
C1762 C1761 1.384 . S
C1762 C1765 1.382 . S
C1763 C1761 1.384 . S
C1763 C1764 1.381 . S
C1763 H1781 0.930 . S
C1764 C1763 1.381 . S
C1764 C1766 1.381 . S
C1764 C1767 1.487 . S
C1765 C1762 1.382 . S
C1765 C1766 1.387 . S
C1765 H1782 0.930 . S
C1766 C1764 1.381 . S
C1766 C1765 1.387 . S
C1766 H1783 0.931 . S
C1767 C1760 1.399 . S
C1767 C1764 1.487 . S
C1767 N1784 1.343 1_655 S
H1768 C1740 0.931 . S
H1769 C1742 0.930 . S
H1770 C1744 0.930 . S
H1771 C1745 0.931 . S
H1772 C1747 0.931 . S
H1773 C1749 0.930 . S
H1774 C1751 0.930 . S
H1775 C1752 0.931 . S
H1776 C1754 0.931 . S
H1777 C1756 0.930 . S
H1778 C1758 0.930 . S
H1779 C1759 0.931 . S
H1780 C1761 0.931 . S
H1781 C1763 0.930 . S
H1782 C1765 0.930 . S
H1783 C1766 0.931 . S
N1784 C1746 1.343 . S
N1784 C1767 1.343 1_455 S
N1785 C1753 1.387 . S
N1785 C1760 1.299 1_455 S
C1786 C1787 1.384 . S
C1786 C1788 1.384 . S
C1786 H1814 0.931 . S
C1787 C1786 1.384 . S
C1787 C1790 1.382 . S
C1788 C1786 1.384 . S
C1788 C1789 1.381 . S
C1788 H1815 0.930 . S
C1789 C1788 1.381 . S
C1789 C1791 1.381 . S
C1789 C1792 1.487 . S
C1790 C1787 1.382 . S
C1790 C1791 1.387 . S
C1790 H1816 0.930 . S
C1791 C1789 1.381 . S
C1791 C1790 1.387 . S
C1791 H1817 0.931 . S
C1792 C1789 1.487 . S
C1792 C1799 1.399 . S
C1792 N1830 1.343 1_565 S
C1793 C1794 1.384 . S
C1793 C1795 1.384 . S
C1793 H1818 0.931 . S
C1794 C1793 1.384 . S
C1794 C1797 1.382 . S
C1795 C1793 1.384 . S
C1795 C1796 1.381 . S
C1795 H1819 0.930 . S
C1796 C1795 1.381 . S
C1796 C1798 1.381 . S
C1796 C1799 1.487 . S
C1797 C1794 1.382 . S
C1797 C1798 1.387 . S
C1797 H1820 0.930 . S
C1798 C1796 1.381 . S
C1798 C1797 1.387 . S
C1798 H1821 0.931 . S
C1799 C1792 1.399 . S
C1799 C1796 1.487 . S
C1799 N1831 1.343 1_565 S
C1800 C1801 1.384 . S
C1800 C1802 1.384 . S
C1800 H1822 0.931 . S
C1801 C1800 1.384 . S
C1801 C1804 1.382 . S
C1802 C1800 1.384 . S
C1802 C1803 1.381 . S
C1802 H1823 0.930 . S
C1803 C1802 1.381 . S
C1803 C1805 1.381 . S
C1803 C1806 1.487 . S
C1804 C1801 1.382 . S
C1804 C1805 1.387 . S
C1804 H1824 0.930 . S
C1805 C1803 1.381 . S
C1805 C1804 1.387 . S
C1805 H1825 0.931 . S
C1806 C1803 1.487 . S
C1806 C1813 1.399 . S
C1806 N1831 1.343 . S
C1807 C1808 1.384 . S
C1807 C1809 1.384 . S
C1807 H1826 0.931 . S
C1808 C1807 1.384 . S
C1808 C1811 1.382 . S
C1809 C1807 1.384 . S
C1809 C1810 1.381 . S
C1809 H1827 0.930 . S
C1810 C1809 1.381 . S
C1810 C1812 1.381 . S
C1810 C1813 1.487 . S
C1811 C1808 1.382 . S
C1811 C1812 1.387 . S
C1811 H1828 0.930 . S
C1812 C1810 1.381 . S
C1812 C1811 1.387 . S
C1812 H1829 0.931 . S
C1813 C1806 1.399 . S
C1813 C1810 1.487 . S
C1813 N1830 1.343 . S
H1814 C1786 0.931 . S
H1815 C1788 0.930 . S
H1816 C1790 0.930 . S
H1817 C1791 0.931 . S
H1818 C1793 0.931 . S
H1819 C1795 0.930 . S
H1820 C1797 0.930 . S
H1821 C1798 0.931 . S
H1822 C1800 0.931 . S
H1823 C1802 0.930 . S
H1824 C1804 0.930 . S
H1825 C1805 0.931 . S
H1826 C1807 0.931 . S
H1827 C1809 0.930 . S
H1828 C1811 0.930 . S
H1829 C1812 0.931 . S
N1830 C1792 1.343 1_545 S
N1830 C1813 1.343 . S
N1831 C1799 1.343 1_545 S
N1831 C1806 1.343 . S
C1832 C1833 1.384 . S
C1832 C1834 1.384 . S
C1832 H1860 0.931 . S
C1833 C1832 1.384 . S
C1833 C1836 1.382 . S
C1834 C1832 1.384 . S
C1834 C1835 1.381 . S
C1834 H1861 0.930 . S
C1835 C1834 1.381 . S
C1835 C1837 1.381 . S
C1835 C1838 1.487 . S
C1836 C1833 1.382 . S
C1836 C1837 1.387 . S
C1836 H1862 0.930 . S
C1837 C1835 1.381 . S
C1837 C1836 1.387 . S
C1837 H1863 0.931 . S
C1838 C1835 1.487 . S
C1838 C1845 1.399 . S
C1838 N1876 1.343 . S
C1839 C1840 1.384 . S
C1839 C1841 1.384 . S
C1839 H1864 0.931 . S
C1840 C1839 1.384 . S
C1840 C1843 1.382 . S
C1841 C1839 1.384 . S
C1841 C1842 1.381 . S
C1841 H1865 0.930 . S
C1842 C1841 1.381 . S
C1842 C1844 1.381 . S
C1842 C1845 1.487 . S
C1843 C1840 1.382 . S
C1843 C1844 1.387 . S
C1843 H1866 0.930 . S
C1844 C1842 1.381 . S
C1844 C1843 1.387 . S
C1844 H1867 0.931 . S
C1845 C1838 1.399 . S
C1845 C1842 1.487 . S
C1845 N1877 1.343 . S
C1846 C1847 1.384 . S
C1846 C1848 1.384 . S
C1846 H1868 0.931 . S
C1847 C1846 1.384 . S
C1847 C1850 1.382 . S
C1848 C1846 1.384 . S
C1848 C1849 1.381 . S
C1848 H1869 0.930 . S
C1849 C1848 1.381 . S
C1849 C1851 1.381 . S
C1849 C1852 1.487 . S
C1850 C1847 1.382 . S
C1850 C1851 1.387 . S
C1850 H1870 0.930 . S
C1851 C1849 1.381 . S
C1851 C1850 1.387 . S
C1851 H1871 0.931 . S
C1852 C1849 1.487 . S
C1852 C1859 1.399 . S
C1852 N1877 1.343 . S
C1853 C1854 1.384 . S
C1853 C1855 1.384 . S
C1853 H1872 0.931 . S
C1854 C1853 1.384 . S
C1854 C1857 1.382 . S
C1855 C1853 1.384 . S
C1855 C1856 1.381 . S
C1855 H1873 0.930 . S
C1856 C1855 1.381 . S
C1856 C1858 1.381 . S
C1856 C1859 1.487 . S
C1857 C1854 1.382 . S
C1857 C1858 1.387 . S
C1857 H1874 0.930 . S
C1858 C1856 1.381 . S
C1858 C1857 1.387 . S
C1858 H1875 0.931 . S
C1859 C1852 1.399 . S
C1859 C1856 1.487 . S
C1859 N1876 1.343 . S
H1860 C1832 0.931 . S
H1861 C1834 0.930 . S
H1862 C1836 0.930 . S
H1863 C1837 0.931 . S
H1864 C1839 0.931 . S
H1865 C1841 0.930 . S
H1866 C1843 0.930 . S
H1867 C1844 0.931 . S
H1868 C1846 0.931 . S
H1869 C1848 0.930 . S
H1870 C1850 0.930 . S
H1871 C1851 0.931 . S
H1872 C1853 0.931 . S
H1873 C1855 0.930 . S
H1874 C1857 0.930 . S
H1875 C1858 0.931 . S
N1876 C1838 1.343 . S
N1876 C1859 1.343 . S
N1877 C1845 1.343 . S
N1877 C1852 1.343 . S
C1878 C1879 1.384 . S
C1878 C1880 1.384 . S
C1878 H1906 0.931 . S
C1879 C1878 1.384 . S
C1879 C1882 1.382 . S
C1880 C1878 1.384 . S
C1880 C1881 1.381 . S
C1880 H1907 0.930 . S
C1881 C1880 1.381 . S
C1881 C1883 1.381 . S
C1881 C1884 1.487 . S
C1882 C1879 1.382 . S
C1882 C1883 1.387 . S
C1882 H1908 0.930 . S
C1883 C1881 1.381 . S
C1883 C1882 1.387 . S
C1883 H1909 0.931 . S
C1884 C1881 1.487 . S
C1884 C1891 1.399 . S
C1884 N1922 1.343 . S
C1885 C1886 1.384 . S
C1885 C1887 1.384 . S
C1885 H1910 0.931 . S
C1886 C1885 1.384 . S
C1886 C1889 1.382 . S
C1887 C1885 1.384 . S
C1887 C1888 1.381 . S
C1887 H1911 0.930 . S
C1888 C1887 1.381 . S
C1888 C1890 1.381 . S
C1888 C1891 1.487 . S
C1889 C1886 1.382 . S
C1889 C1890 1.387 . S
C1889 H1912 0.930 . S
C1890 C1888 1.381 . S
C1890 C1889 1.387 . S
C1890 H1913 0.931 . S
C1891 C1884 1.399 . S
C1891 C1888 1.487 . S
C1891 N1923 1.343 . S
C1892 C1893 1.384 . S
C1892 C1894 1.384 . S
C1892 H1914 0.931 . S
C1893 C1892 1.384 . S
C1893 C1896 1.382 . S
C1894 C1892 1.384 . S
C1894 C1895 1.381 . S
C1894 H1915 0.930 . S
C1895 C1894 1.381 . S
C1895 C1897 1.381 . S
C1895 C1898 1.487 . S
C1896 C1893 1.382 . S
C1896 C1897 1.387 . S
C1896 H1916 0.930 . S
C1897 C1895 1.381 . S
C1897 C1896 1.387 . S
C1897 H1917 0.931 . S
C1898 C1895 1.487 . S
C1898 C1905 1.399 . S
C1898 N1923 1.343 . S
C1899 C1900 1.384 . S
C1899 C1901 1.384 . S
C1899 H1918 0.931 . S
C1900 C1899 1.384 . S
C1900 C1903 1.382 . S
C1901 C1899 1.384 . S
C1901 C1902 1.381 . S
C1901 H1919 0.930 . S
C1902 C1901 1.381 . S
C1902 C1904 1.381 . S
C1902 C1905 1.487 . S
C1903 C1900 1.382 . S
C1903 C1904 1.387 . S
C1903 H1920 0.930 . S
C1904 C1902 1.381 . S
C1904 C1903 1.387 . S
C1904 H1921 0.931 . S
C1905 C1898 1.399 . S
C1905 C1902 1.487 . S
C1905 N1922 1.343 . S
H1906 C1878 0.931 . S
H1907 C1880 0.930 . S
H1908 C1882 0.930 . S
H1909 C1883 0.931 . S
H1910 C1885 0.931 . S
H1911 C1887 0.930 . S
H1912 C1889 0.930 . S
H1913 C1890 0.931 . S
H1914 C1892 0.931 . S
H1915 C1894 0.930 . S
H1916 C1896 0.930 . S
H1917 C1897 0.931 . S
H1918 C1899 0.931 . S
H1919 C1901 0.930 . S
H1920 C1903 0.930 . S
H1921 C1904 0.931 . S
N1922 C1884 1.343 . S
N1922 C1905 1.343 . S
N1923 C1891 1.343 . S
N1923 C1898 1.343 . S
C1924 C1925 1.384 . S
C1924 C1926 1.384 . S
C1924 H1952 0.931 . S
C1925 C1924 1.384 . S
C1925 C1928 1.382 . S
C1926 C1924 1.384 . S
C1926 C1927 1.381 . S
C1926 H1953 0.930 . S
C1927 C1926 1.381 . S
C1927 C1929 1.381 . S
C1927 C1930 1.487 . S
C1928 C1925 1.382 . S
C1928 C1929 1.387 . S
C1928 H1954 0.930 . S
C1929 C1927 1.381 . S
C1929 C1928 1.387 . S
C1929 H1955 0.931 . S
C1930 C1927 1.487 . S
C1930 C1937 1.399 . S
C1930 N1968 1.343 . S
C1931 C1932 1.384 . S
C1931 C1933 1.384 . S
C1931 H1956 0.931 . S
C1932 C1931 1.384 . S
C1932 C1935 1.382 . S
C1933 C1931 1.384 . S
C1933 C1934 1.381 . S
C1933 H1957 0.930 . S
C1934 C1933 1.381 . S
C1934 C1936 1.381 . S
C1934 C1937 1.487 . S
C1935 C1932 1.382 . S
C1935 C1936 1.387 . S
C1935 H1958 0.930 . S
C1936 C1934 1.381 . S
C1936 C1935 1.387 . S
C1936 H1959 0.931 . S
C1937 C1930 1.399 . S
C1937 C1934 1.487 . S
C1937 N1969 1.343 . S
C1938 C1939 1.384 . S
C1938 C1940 1.384 . S
C1938 H1960 0.931 . S
C1939 C1938 1.384 . S
C1939 C1942 1.382 . S
C1940 C1938 1.384 . S
C1940 C1941 1.381 . S
C1940 H1961 0.930 . S
C1941 C1940 1.381 . S
C1941 C1943 1.381 . S
C1941 C1944 1.487 . S
C1942 C1939 1.382 . S
C1942 C1943 1.387 . S
C1942 H1962 0.930 . S
C1943 C1941 1.381 . S
C1943 C1942 1.387 . S
C1943 H1963 0.931 . S
C1944 C1941 1.487 . S
C1944 C1951 1.399 . S
C1944 N1969 1.343 . S
C1945 C1946 1.384 . S
C1945 C1947 1.384 . S
C1945 H1964 0.931 . S
C1946 C1945 1.384 . S
C1946 C1949 1.382 . S
C1947 C1945 1.384 . S
C1947 C1948 1.381 . S
C1947 H1965 0.930 . S
C1948 C1947 1.381 . S
C1948 C1950 1.381 . S
C1948 C1951 1.487 . S
C1949 C1946 1.382 . S
C1949 C1950 1.387 . S
C1949 H1966 0.930 . S
C1950 C1948 1.381 . S
C1950 C1949 1.387 . S
C1950 H1967 0.931 . S
C1951 C1944 1.399 . S
C1951 C1948 1.487 . S
C1951 N1968 1.343 . S
H1952 C1924 0.931 . S
H1953 C1926 0.930 . S
H1954 C1928 0.930 . S
H1955 C1929 0.931 . S
H1956 C1931 0.931 . S
H1957 C1933 0.930 . S
H1958 C1935 0.930 . S
H1959 C1936 0.931 . S
H1960 C1938 0.931 . S
H1961 C1940 0.930 . S
H1962 C1942 0.930 . S
H1963 C1943 0.931 . S
H1964 C1945 0.931 . S
H1965 C1947 0.930 . S
H1966 C1949 0.930 . S
H1967 C1950 0.931 . S
N1968 C1930 1.343 . S
N1968 C1951 1.343 . S
N1969 C1937 1.343 . S
N1969 C1944 1.343 . S
C1970 C1971 1.384 . S
C1970 C1972 1.384 . S
C1970 H1998 0.931 . S
C1971 C1970 1.384 . S
C1971 C1974 1.382 . S
C1972 C1970 1.384 . S
C1972 C1973 1.381 . S
C1972 H1999 0.930 . S
C1973 C1972 1.381 . S
C1973 C1975 1.381 . S
C1973 C1976 1.487 . S
C1974 C1971 1.382 . S
C1974 C1975 1.387 . S
C1974 H2000 0.930 . S
C1975 C1973 1.381 . S
C1975 C1974 1.387 . S
C1975 H2001 0.931 . S
C1976 C1973 1.487 . S
C1976 C1983 1.399 . S
C1976 N2014 1.343 . S
C1977 C1978 1.384 . S
C1977 C1979 1.384 . S
C1977 H2002 0.931 . S
C1978 C1977 1.384 . S
C1978 C1981 1.382 . S
C1979 C1977 1.384 . S
C1979 C1980 1.381 . S
C1979 H2003 0.930 . S
C1980 C1979 1.381 . S
C1980 C1982 1.381 . S
C1980 C1983 1.487 . S
C1981 C1978 1.382 . S
C1981 C1982 1.387 . S
C1981 H2004 0.930 . S
C1982 C1980 1.381 . S
C1982 C1981 1.387 . S
C1982 H2005 0.931 . S
C1983 C1976 1.399 . S
C1983 C1980 1.487 . S
C1983 N2015 1.343 . S
C1984 C1985 1.384 . S
C1984 C1986 1.384 . S
C1984 H2006 0.931 . S
C1985 C1984 1.384 . S
C1985 C1988 1.382 . S
C1986 C1984 1.384 . S
C1986 C1987 1.381 . S
C1986 H2007 0.930 . S
C1987 C1986 1.381 . S
C1987 C1989 1.381 . S
C1987 C1990 1.487 . S
C1988 C1985 1.382 . S
C1988 C1989 1.387 . S
C1988 H2008 0.930 . S
C1989 C1987 1.381 . S
C1989 C1988 1.387 . S
C1989 H2009 0.931 . S
C1990 C1987 1.487 . S
C1990 C1997 1.399 . S
C1990 N2015 1.343 . S
C1991 C1992 1.384 . S
C1991 C1993 1.384 . S
C1991 H2010 0.931 . S
C1992 C1991 1.384 . S
C1992 C1995 1.382 . S
C1993 C1991 1.384 . S
C1993 C1994 1.381 . S
C1993 H2011 0.930 . S
C1994 C1993 1.381 . S
C1994 C1996 1.381 . S
C1994 C1997 1.487 . S
C1995 C1992 1.382 . S
C1995 C1996 1.387 . S
C1995 H2012 0.930 . S
C1996 C1994 1.381 . S
C1996 C1995 1.387 . S
C1996 H2013 0.931 . S
C1997 C1990 1.399 . S
C1997 C1994 1.487 . S
C1997 N2014 1.343 . S
H1998 C1970 0.931 . S
H1999 C1972 0.930 . S
H2000 C1974 0.930 . S
H2001 C1975 0.931 . S
H2002 C1977 0.931 . S
H2003 C1979 0.930 . S
H2004 C1981 0.930 . S
H2005 C1982 0.931 . S
H2006 C1984 0.931 . S
H2007 C1986 0.930 . S
H2008 C1988 0.930 . S
H2009 C1989 0.931 . S
H2010 C1991 0.931 . S
H2011 C1993 0.930 . S
H2012 C1995 0.930 . S
H2013 C1996 0.931 . S
N2014 C1976 1.343 . S
N2014 C1997 1.343 . S
N2015 C1983 1.343 . S
N2015 C1990 1.343 . S
C2016 C2017 1.384 . S
C2016 C2018 1.384 . S
C2016 H2044 0.931 . S
C2017 C2016 1.384 . S
C2017 C2020 1.382 . S
C2018 C2016 1.384 . S
C2018 C2019 1.381 . S
C2018 H2045 0.930 . S
C2019 C2018 1.381 . S
C2019 C2021 1.381 . S
C2019 C2022 1.487 . S
C2020 C2017 1.382 . S
C2020 C2021 1.387 . S
C2020 H2046 0.930 . S
C2021 C2019 1.381 . S
C2021 C2020 1.387 . S
C2021 H2047 0.931 . S
C2022 C2019 1.487 . S
C2022 C2029 1.399 . S
C2022 N2060 1.343 . S
C2023 C2024 1.384 . S
C2023 C2025 1.384 . S
C2023 H2048 0.931 . S
C2024 C2023 1.384 . S
C2024 C2027 1.382 . S
C2025 C2023 1.384 . S
C2025 C2026 1.381 . S
C2025 H2049 0.930 . S
C2026 C2025 1.381 . S
C2026 C2028 1.381 . S
C2026 C2029 1.487 . S
C2027 C2024 1.382 . S
C2027 C2028 1.387 . S
C2027 H2050 0.930 . S
C2028 C2026 1.381 . S
C2028 C2027 1.387 . S
C2028 H2051 0.931 . S
C2029 C2022 1.399 . S
C2029 C2026 1.487 . S
C2029 N2061 1.343 . S
C2030 C2031 1.384 . S
C2030 C2032 1.384 . S
C2030 H2052 0.931 . S
C2031 C2030 1.384 . S
C2031 C2034 1.382 . S
C2032 C2030 1.384 . S
C2032 C2033 1.381 . S
C2032 H2053 0.930 . S
C2033 C2032 1.381 . S
C2033 C2035 1.381 . S
C2033 C2036 1.487 . S
C2034 C2031 1.382 . S
C2034 C2035 1.387 . S
C2034 H2054 0.930 . S
C2035 C2033 1.381 . S
C2035 C2034 1.387 . S
C2035 H2055 0.931 . S
C2036 C2033 1.487 . S
C2036 C2043 1.399 . S
C2036 N2061 1.343 . S
C2037 C2038 1.384 . S
C2037 C2039 1.384 . S
C2037 H2056 0.931 . S
C2038 C2037 1.384 . S
C2038 C2041 1.382 . S
C2039 C2037 1.384 . S
C2039 C2040 1.381 . S
C2039 H2057 0.930 . S
C2040 C2039 1.381 . S
C2040 C2042 1.381 . S
C2040 C2043 1.487 . S
C2041 C2038 1.382 . S
C2041 C2042 1.387 . S
C2041 H2058 0.930 . S
C2042 C2040 1.381 . S
C2042 C2041 1.387 . S
C2042 H2059 0.931 . S
C2043 C2036 1.399 . S
C2043 C2040 1.487 . S
C2043 N2060 1.343 . S
H2044 C2016 0.931 . S
H2045 C2018 0.930 . S
H2046 C2020 0.930 . S
H2047 C2021 0.931 . S
H2048 C2023 0.931 . S
H2049 C2025 0.930 . S
H2050 C2027 0.930 . S
H2051 C2028 0.931 . S
H2052 C2030 0.931 . S
H2053 C2032 0.930 . S
H2054 C2034 0.930 . S
H2055 C2035 0.931 . S
H2056 C2037 0.931 . S
H2057 C2039 0.930 . S
H2058 C2041 0.930 . S
H2059 C2042 0.931 . S
N2060 C2022 1.343 . S
N2060 C2043 1.343 . S
N2061 C2029 1.343 . S
N2061 C2036 1.343 . S
C2062 C2063 1.384 . S
C2062 C2064 1.384 . S
C2062 H2090 0.931 . S
C2063 C2062 1.384 . S
C2063 C2066 1.382 . S
C2064 C2062 1.384 . S
C2064 C2065 1.381 . S
C2064 H2091 0.930 . S
C2065 C2064 1.381 . S
C2065 C2067 1.381 . S
C2065 C2068 1.487 . S
C2066 C2063 1.382 . S
C2066 C2067 1.387 . S
C2066 H2092 0.930 . S
C2067 C2065 1.381 . S
C2067 C2066 1.387 . S
C2067 H2093 0.931 . S
C2068 C2065 1.487 . S
C2068 C2075 1.399 . S
C2068 N2106 1.343 . S
C2069 C2070 1.384 . S
C2069 C2071 1.384 . S
C2069 H2094 0.931 . S
C2070 C2069 1.384 . S
C2070 C2073 1.382 . S
C2071 C2069 1.384 . S
C2071 C2072 1.381 . S
C2071 H2095 0.930 . S
C2072 C2071 1.381 . S
C2072 C2074 1.381 . S
C2072 C2075 1.487 . S
C2073 C2070 1.382 . S
C2073 C2074 1.387 . S
C2073 H2096 0.930 . S
C2074 C2072 1.381 . S
C2074 C2073 1.387 . S
C2074 H2097 0.931 . S
C2075 C2068 1.399 . S
C2075 C2072 1.487 . S
C2075 N2107 1.343 . S
C2076 C2077 1.384 . S
C2076 C2078 1.384 . S
C2076 H2098 0.931 . S
C2077 C2076 1.384 . S
C2077 C2080 1.382 . S
C2078 C2076 1.384 . S
C2078 C2079 1.381 . S
C2078 H2099 0.930 . S
C2079 C2078 1.381 . S
C2079 C2081 1.381 . S
C2079 C2082 1.487 . S
C2080 C2077 1.382 . S
C2080 C2081 1.387 . S
C2080 H2100 0.930 . S
C2081 C2079 1.381 . S
C2081 C2080 1.387 . S
C2081 H2101 0.931 . S
C2082 C2079 1.487 . S
C2082 C2089 1.399 . S
C2082 N2107 1.343 . S
C2083 C2084 1.384 . S
C2083 C2085 1.384 . S
C2083 H2102 0.931 . S
C2084 C2083 1.384 . S
C2084 C2087 1.382 . S
C2085 C2083 1.384 . S
C2085 C2086 1.381 . S
C2085 H2103 0.930 . S
C2086 C2085 1.381 . S
C2086 C2088 1.381 . S
C2086 C2089 1.487 . S
C2087 C2084 1.382 . S
C2087 C2088 1.387 . S
C2087 H2104 0.930 . S
C2088 C2086 1.381 . S
C2088 C2087 1.387 . S
C2088 H2105 0.931 . S
C2089 C2082 1.399 . S
C2089 C2086 1.487 . S
C2089 N2106 1.343 . S
H2090 C2062 0.931 . S
H2091 C2064 0.930 . S
H2092 C2066 0.930 . S
H2093 C2067 0.931 . S
H2094 C2069 0.931 . S
H2095 C2071 0.930 . S
H2096 C2073 0.930 . S
H2097 C2074 0.931 . S
H2098 C2076 0.931 . S
H2099 C2078 0.930 . S
H2100 C2080 0.930 . S
H2101 C2081 0.931 . S
H2102 C2083 0.931 . S
H2103 C2085 0.930 . S
H2104 C2087 0.930 . S
H2105 C2088 0.931 . S
N2106 C2068 1.343 . S
N2106 C2089 1.343 . S
N2107 C2075 1.343 . S
N2107 C2082 1.343 . S
C2108 C2109 1.384 . S
C2108 C2110 1.384 . S
C2108 H2136 0.931 . S
C2109 C2108 1.384 . S
C2109 C2112 1.382 . S
C2110 C2108 1.384 . S
C2110 C2111 1.381 . S
C2110 H2137 0.930 . S
C2111 C2110 1.381 . S
C2111 C2113 1.381 . S
C2111 C2114 1.487 . S
C2112 C2109 1.382 . S
C2112 C2113 1.387 . S
C2112 H2138 0.930 . S
C2113 C2111 1.381 . S
C2113 C2112 1.387 . S
C2113 H2139 0.931 . S
C2114 C2111 1.487 . S
C2114 C2121 1.399 . S
C2114 N2152 1.343 . S
C2115 C2116 1.384 . S
C2115 C2117 1.384 . S
C2115 H2140 0.931 . S
C2116 C2115 1.384 . S
C2116 C2119 1.382 . S
C2117 C2115 1.384 . S
C2117 C2118 1.381 . S
C2117 H2141 0.930 . S
C2118 C2117 1.381 . S
C2118 C2120 1.381 . S
C2118 C2121 1.487 . S
C2119 C2116 1.382 . S
C2119 C2120 1.387 . S
C2119 H2142 0.930 . S
C2120 C2118 1.381 . S
C2120 C2119 1.387 . S
C2120 H2143 0.931 . S
C2121 C2114 1.399 . S
C2121 C2118 1.487 . S
C2121 N2153 1.343 . S
C2122 C2123 1.384 . S
C2122 C2124 1.384 . S
C2122 H2144 0.931 . S
C2123 C2122 1.384 . S
C2123 C2126 1.382 . S
C2124 C2122 1.384 . S
C2124 C2125 1.381 . S
C2124 H2145 0.930 . S
C2125 C2124 1.381 . S
C2125 C2127 1.381 . S
C2125 C2128 1.487 . S
C2126 C2123 1.382 . S
C2126 C2127 1.387 . S
C2126 H2146 0.930 . S
C2127 C2125 1.381 . S
C2127 C2126 1.387 . S
C2127 H2147 0.931 . S
C2128 C2125 1.487 . S
C2128 C2135 1.399 . S
C2128 N2153 1.343 . S
C2129 C2130 1.384 . S
C2129 C2131 1.384 . S
C2129 H2148 0.931 . S
C2130 C2129 1.384 . S
C2130 C2133 1.382 . S
C2131 C2129 1.384 . S
C2131 C2132 1.381 . S
C2131 H2149 0.930 . S
C2132 C2131 1.381 . S
C2132 C2134 1.381 . S
C2132 C2135 1.487 . S
C2133 C2130 1.382 . S
C2133 C2134 1.387 . S
C2133 H2150 0.930 . S
C2134 C2132 1.381 . S
C2134 C2133 1.387 . S
C2134 H2151 0.931 . S
C2135 C2128 1.399 . S
C2135 C2132 1.487 . S
C2135 N2152 1.343 . S
H2136 C2108 0.931 . S
H2137 C2110 0.930 . S
H2138 C2112 0.930 . S
H2139 C2113 0.931 . S
H2140 C2115 0.931 . S
H2141 C2117 0.930 . S
H2142 C2119 0.930 . S
H2143 C2120 0.931 . S
H2144 C2122 0.931 . S
H2145 C2124 0.930 . S
H2146 C2126 0.930 . S
H2147 C2127 0.931 . S
H2148 C2129 0.931 . S
H2149 C2131 0.930 . S
H2150 C2133 0.930 . S
H2151 C2134 0.931 . S
N2152 C2114 1.343 . S
N2152 C2135 1.343 . S
N2153 C2121 1.343 . S
N2153 C2128 1.343 . S
C2154 C2155 1.384 . S
C2154 C2156 1.384 . S
C2154 H2182 0.931 . S
C2155 C2154 1.384 . S
C2155 C2158 1.382 . S
C2156 C2154 1.384 . S
C2156 C2157 1.381 . S
C2156 H2183 0.930 . S
C2157 C2156 1.381 . S
C2157 C2159 1.381 . S
C2157 C2160 1.487 . S
C2158 C2155 1.382 . S
C2158 C2159 1.387 . S
C2158 H2184 0.930 . S
C2159 C2157 1.381 . S
C2159 C2158 1.387 . S
C2159 H2185 0.931 . S
C2160 C2157 1.487 . S
C2160 C2167 1.399 . S
C2160 N2198 1.343 . S
C2161 C2162 1.384 . S
C2161 C2163 1.384 . S
C2161 H2186 0.931 . S
C2162 C2161 1.384 . S
C2162 C2165 1.382 . S
C2163 C2161 1.384 . S
C2163 C2164 1.381 . S
C2163 H2187 0.930 . S
C2164 C2163 1.381 . S
C2164 C2166 1.381 . S
C2164 C2167 1.487 . S
C2165 C2162 1.382 . S
C2165 C2166 1.387 . S
C2165 H2188 0.930 . S
C2166 C2164 1.381 . S
C2166 C2165 1.387 . S
C2166 H2189 0.931 . S
C2167 C2160 1.399 . S
C2167 C2164 1.487 . S
C2167 N2199 1.343 . S
C2168 C2169 1.384 . S
C2168 C2170 1.384 . S
C2168 H2190 0.931 . S
C2169 C2168 1.384 . S
C2169 C2172 1.382 . S
C2170 C2168 1.384 . S
C2170 C2171 1.381 . S
C2170 H2191 0.930 . S
C2171 C2170 1.381 . S
C2171 C2173 1.381 . S
C2171 C2174 1.487 . S
C2172 C2169 1.382 . S
C2172 C2173 1.387 . S
C2172 H2192 0.930 . S
C2173 C2171 1.381 . S
C2173 C2172 1.387 . S
C2173 H2193 0.931 . S
C2174 C2171 1.487 . S
C2174 C2181 1.399 . S
C2174 N2199 1.343 . S
C2175 C2176 1.384 . S
C2175 C2177 1.384 . S
C2175 H2194 0.931 . S
C2176 C2175 1.384 . S
C2176 C2179 1.382 . S
C2177 C2175 1.384 . S
C2177 C2178 1.381 . S
C2177 H2195 0.930 . S
C2178 C2177 1.381 . S
C2178 C2180 1.381 . S
C2178 C2181 1.487 . S
C2179 C2176 1.382 . S
C2179 C2180 1.387 . S
C2179 H2196 0.930 . S
C2180 C2178 1.381 . S
C2180 C2179 1.387 . S
C2180 H2197 0.931 . S
C2181 C2174 1.399 . S
C2181 C2178 1.487 . S
C2181 N2198 1.343 . S
H2182 C2154 0.931 . S
H2183 C2156 0.930 . S
H2184 C2158 0.930 . S
H2185 C2159 0.931 . S
H2186 C2161 0.931 . S
H2187 C2163 0.930 . S
H2188 C2165 0.930 . S
H2189 C2166 0.931 . S
H2190 C2168 0.931 . S
H2191 C2170 0.930 . S
H2192 C2172 0.930 . S
H2193 C2173 0.931 . S
H2194 C2175 0.931 . S
H2195 C2177 0.930 . S
H2196 C2179 0.930 . S
H2197 C2180 0.931 . S
N2198 C2160 1.343 . S
N2198 C2181 1.343 . S
N2199 C2167 1.343 . S
N2199 C2174 1.343 . S
C2200 C2201 1.384 . S
C2200 C2202 1.384 . S
C2200 H2228 0.931 . S
C2201 C2200 1.384 . S
C2201 C2204 1.382 . S
C2202 C2200 1.384 . S
C2202 C2203 1.381 . S
C2202 H2229 0.930 . S
C2203 C2202 1.381 . S
C2203 C2205 1.381 . S
C2203 C2206 1.487 . S
C2204 C2201 1.382 . S
C2204 C2205 1.387 . S
C2204 H2230 0.930 . S
C2205 C2203 1.381 . S
C2205 C2204 1.387 . S
C2205 H2231 0.931 . S
C2206 C2203 1.487 . S
C2206 C2213 1.399 . S
C2206 N2244 1.343 . S
C2207 C2208 1.384 . S
C2207 C2209 1.384 . S
C2207 H2232 0.931 . S
C2208 C2207 1.384 . S
C2208 C2211 1.382 . S
C2209 C2207 1.384 . S
C2209 C2210 1.381 . S
C2209 H2233 0.930 . S
C2210 C2209 1.381 . S
C2210 C2212 1.381 . S
C2210 C2213 1.487 . S
C2211 C2208 1.382 . S
C2211 C2212 1.387 . S
C2211 H2234 0.930 . S
C2212 C2210 1.381 . S
C2212 C2211 1.387 . S
C2212 H2235 0.931 . S
C2213 C2206 1.399 . S
C2213 C2210 1.487 . S
C2213 N2245 1.343 . S
C2214 C2215 1.384 . S
C2214 C2216 1.384 . S
C2214 H2236 0.931 . S
C2215 C2214 1.384 . S
C2215 C2218 1.382 . S
C2216 C2214 1.384 . S
C2216 C2217 1.381 . S
C2216 H2237 0.930 . S
C2217 C2216 1.381 . S
C2217 C2219 1.381 . S
C2217 C2220 1.487 . S
C2218 C2215 1.382 . S
C2218 C2219 1.387 . S
C2218 H2238 0.930 . S
C2219 C2217 1.381 . S
C2219 C2218 1.387 . S
C2219 H2239 0.931 . S
C2220 C2217 1.487 . S
C2220 C2227 1.399 . S
C2220 N2245 1.343 . S
C2221 C2222 1.384 . S
C2221 C2223 1.384 . S
C2221 H2240 0.931 . S
C2222 C2221 1.384 . S
C2222 C2225 1.382 . S
C2223 C2221 1.384 . S
C2223 C2224 1.381 . S
C2223 H2241 0.930 . S
C2224 C2223 1.381 . S
C2224 C2226 1.381 . S
C2224 C2227 1.487 . S
C2225 C2222 1.382 . S
C2225 C2226 1.387 . S
C2225 H2242 0.930 . S
C2226 C2224 1.381 . S
C2226 C2225 1.387 . S
C2226 H2243 0.931 . S
C2227 C2220 1.399 . S
C2227 C2224 1.487 . S
C2227 N2244 1.343 . S
H2228 C2200 0.931 . S
H2229 C2202 0.930 . S
H2230 C2204 0.930 . S
H2231 C2205 0.931 . S
H2232 C2207 0.931 . S
H2233 C2209 0.930 . S
H2234 C2211 0.930 . S
H2235 C2212 0.931 . S
H2236 C2214 0.931 . S
H2237 C2216 0.930 . S
H2238 C2218 0.930 . S
H2239 C2219 0.931 . S
H2240 C2221 0.931 . S
H2241 C2223 0.930 . S
H2242 C2225 0.930 . S
H2243 C2226 0.931 . S
N2244 C2206 1.343 . S
N2244 C2227 1.343 . S
N2245 C2213 1.343 . S
N2245 C2220 1.343 . S
C2246 C2247 1.384 . S
C2246 C2248 1.384 . S
C2246 H2274 0.931 . S
C2247 C2246 1.384 . S
C2247 C2250 1.382 . S
C2248 C2246 1.384 . S
C2248 C2249 1.381 . S
C2248 H2275 0.930 . S
C2249 C2248 1.381 . S
C2249 C2251 1.381 . S
C2249 C2252 1.487 . S
C2250 C2247 1.382 . S
C2250 C2251 1.387 . S
C2250 H2276 0.930 . S
C2251 C2249 1.381 . S
C2251 C2250 1.387 . S
C2251 H2277 0.931 . S
C2252 C2249 1.487 . S
C2252 C2259 1.399 . S
C2252 N2290 1.343 . S
C2253 C2254 1.384 . S
C2253 C2255 1.384 . S
C2253 H2278 0.931 . S
C2254 C2253 1.384 . S
C2254 C2257 1.382 . S
C2255 C2253 1.384 . S
C2255 C2256 1.381 . S
C2255 H2279 0.930 . S
C2256 C2255 1.381 . S
C2256 C2258 1.381 . S
C2256 C2259 1.487 . S
C2257 C2254 1.382 . S
C2257 C2258 1.387 . S
C2257 H2280 0.930 . S
C2258 C2256 1.381 . S
C2258 C2257 1.387 . S
C2258 H2281 0.931 . S
C2259 C2252 1.399 . S
C2259 C2256 1.487 . S
C2259 N2291 1.343 . S
C2260 C2261 1.384 . S
C2260 C2262 1.384 . S
C2260 H2282 0.931 . S
C2261 C2260 1.384 . S
C2261 C2264 1.382 . S
C2262 C2260 1.384 . S
C2262 C2263 1.381 . S
C2262 H2283 0.930 . S
C2263 C2262 1.381 . S
C2263 C2265 1.381 . S
C2263 C2266 1.487 . S
C2264 C2261 1.382 . S
C2264 C2265 1.387 . S
C2264 H2284 0.930 . S
C2265 C2263 1.381 . S
C2265 C2264 1.387 . S
C2265 H2285 0.931 . S
C2266 C2263 1.487 . S
C2266 C2273 1.399 . S
C2266 N2291 1.343 . S
C2267 C2268 1.384 . S
C2267 C2269 1.384 . S
C2267 H2286 0.931 . S
C2268 C2267 1.384 . S
C2268 C2271 1.382 . S
C2269 C2267 1.384 . S
C2269 C2270 1.381 . S
C2269 H2287 0.930 . S
C2270 C2269 1.381 . S
C2270 C2272 1.381 . S
C2270 C2273 1.487 . S
C2271 C2268 1.382 . S
C2271 C2272 1.387 . S
C2271 H2288 0.930 . S
C2272 C2270 1.381 . S
C2272 C2271 1.387 . S
C2272 H2289 0.931 . S
C2273 C2266 1.399 . S
C2273 C2270 1.487 . S
C2273 N2290 1.343 . S
H2274 C2246 0.931 . S
H2275 C2248 0.930 . S
H2276 C2250 0.930 . S
H2277 C2251 0.931 . S
H2278 C2253 0.931 . S
H2279 C2255 0.930 . S
H2280 C2257 0.930 . S
H2281 C2258 0.931 . S
H2282 C2260 0.931 . S
H2283 C2262 0.930 . S
H2284 C2264 0.930 . S
H2285 C2265 0.931 . S
H2286 C2267 0.931 . S
H2287 C2269 0.930 . S
H2288 C2271 0.930 . S
H2289 C2272 0.931 . S
N2290 C2252 1.343 . S
N2290 C2273 1.343 . S
N2291 C2259 1.343 . S
N2291 C2266 1.343 . S
C2292 C2293 1.384 . S
C2292 C2294 1.384 . S
C2292 H2320 0.931 . S
C2293 C2292 1.384 . S
C2293 C2296 1.382 . S
C2294 C2292 1.384 . S
C2294 C2295 1.381 . S
C2294 H2321 0.930 . S
C2295 C2294 1.381 . S
C2295 C2297 1.381 . S
C2295 C2298 1.487 . S
C2296 C2293 1.382 . S
C2296 C2297 1.387 . S
C2296 H2322 0.930 . S
C2297 C2295 1.381 . S
C2297 C2296 1.387 . S
C2297 H2323 0.931 . S
C2298 C2295 1.487 . S
C2298 C2305 1.399 . S
C2298 N2336 1.343 . S
C2299 C2300 1.384 . S
C2299 C2301 1.384 . S
C2299 H2324 0.931 . S
C2300 C2299 1.384 . S
C2300 C2303 1.382 . S
C2301 C2299 1.384 . S
C2301 C2302 1.381 . S
C2301 H2325 0.930 . S
C2302 C2301 1.381 . S
C2302 C2304 1.381 . S
C2302 C2305 1.487 . S
C2303 C2300 1.382 . S
C2303 C2304 1.387 . S
C2303 H2326 0.930 . S
C2304 C2302 1.381 . S
C2304 C2303 1.387 . S
C2304 H2327 0.931 . S
C2305 C2298 1.399 . S
C2305 C2302 1.487 . S
C2305 N2337 1.343 . S
C2306 C2307 1.384 . S
C2306 C2308 1.384 . S
C2306 H2328 0.931 . S
C2307 C2306 1.384 . S
C2307 C2310 1.382 . S
C2308 C2306 1.384 . S
C2308 C2309 1.381 . S
C2308 H2329 0.930 . S
C2309 C2308 1.381 . S
C2309 C2311 1.381 . S
C2309 C2312 1.487 . S
C2310 C2307 1.382 . S
C2310 C2311 1.387 . S
C2310 H2330 0.930 . S
C2311 C2309 1.381 . S
C2311 C2310 1.387 . S
C2311 H2331 0.931 . S
C2312 C2309 1.487 . S
C2312 C2319 1.399 . S
C2312 N2337 1.343 . S
C2313 C2314 1.384 . S
C2313 C2315 1.384 . S
C2313 H2332 0.931 . S
C2314 C2313 1.384 . S
C2314 C2317 1.382 . S
C2315 C2313 1.384 . S
C2315 C2316 1.381 . S
C2315 H2333 0.930 . S
C2316 C2315 1.381 . S
C2316 C2318 1.381 . S
C2316 C2319 1.487 . S
C2317 C2314 1.382 . S
C2317 C2318 1.387 . S
C2317 H2334 0.930 . S
C2318 C2316 1.381 . S
C2318 C2317 1.387 . S
C2318 H2335 0.931 . S
C2319 C2312 1.399 . S
C2319 C2316 1.487 . S
C2319 N2336 1.343 . S
H2320 C2292 0.931 . S
H2321 C2294 0.930 . S
H2322 C2296 0.930 . S
H2323 C2297 0.931 . S
H2324 C2299 0.931 . S
H2325 C2301 0.930 . S
H2326 C2303 0.930 . S
H2327 C2304 0.931 . S
H2328 C2306 0.931 . S
H2329 C2308 0.930 . S
H2330 C2310 0.930 . S
H2331 C2311 0.931 . S
H2332 C2313 0.931 . S
H2333 C2315 0.930 . S
H2334 C2317 0.930 . S
H2335 C2318 0.931 . S
N2336 C2298 1.343 . S
N2336 C2319 1.343 . S
N2337 C2305 1.343 . S
N2337 C2312 1.343 . S
C2338 C2339 1.384 . S
C2338 C2340 1.384 . S
C2338 H2366 0.931 . S
C2339 C2338 1.384 . S
C2339 C2342 1.382 . S
C2340 C2338 1.384 . S
C2340 C2341 1.381 . S
C2340 H2367 0.930 . S
C2341 C2340 1.381 . S
C2341 C2343 1.381 . S
C2341 C2344 1.487 . S
C2342 C2339 1.382 . S
C2342 C2343 1.387 . S
C2342 H2368 0.930 . S
C2343 C2341 1.381 . S
C2343 C2342 1.387 . S
C2343 H2369 0.931 . S
C2344 C2341 1.487 . S
C2344 C2351 1.399 . S
C2344 N2382 1.343 . S
C2345 C2346 1.384 . S
C2345 C2347 1.384 . S
C2345 H2370 0.931 . S
C2346 C2345 1.384 . S
C2346 C2349 1.382 . S
C2347 C2345 1.384 . S
C2347 C2348 1.381 . S
C2347 H2371 0.930 . S
C2348 C2347 1.381 . S
C2348 C2350 1.381 . S
C2348 C2351 1.487 . S
C2349 C2346 1.382 . S
C2349 C2350 1.387 . S
C2349 H2372 0.930 . S
C2350 C2348 1.381 . S
C2350 C2349 1.387 . S
C2350 H2373 0.931 . S
C2351 C2344 1.399 . S
C2351 C2348 1.487 . S
C2351 N2383 1.343 . S
C2352 C2353 1.384 . S
C2352 C2354 1.384 . S
C2352 H2374 0.931 . S
C2353 C2352 1.384 . S
C2353 C2356 1.382 . S
C2354 C2352 1.384 . S
C2354 C2355 1.381 . S
C2354 H2375 0.930 . S
C2355 C2354 1.381 . S
C2355 C2357 1.381 . S
C2355 C2358 1.487 . S
C2356 C2353 1.382 . S
C2356 C2357 1.387 . S
C2356 H2376 0.930 . S
C2357 C2355 1.381 . S
C2357 C2356 1.387 . S
C2357 H2377 0.931 . S
C2358 C2355 1.487 . S
C2358 C2365 1.399 . S
C2358 N2383 1.343 . S
C2359 C2360 1.384 . S
C2359 C2361 1.384 . S
C2359 H2378 0.931 . S
C2360 C2359 1.384 . S
C2360 C2363 1.382 . S
C2361 C2359 1.384 . S
C2361 C2362 1.381 . S
C2361 H2379 0.930 . S
C2362 C2361 1.381 . S
C2362 C2364 1.381 . S
C2362 C2365 1.487 . S
C2363 C2360 1.382 . S
C2363 C2364 1.387 . S
C2363 H2380 0.930 . S
C2364 C2362 1.381 . S
C2364 C2363 1.387 . S
C2364 H2381 0.931 . S
C2365 C2358 1.399 . S
C2365 C2362 1.487 . S
C2365 N2382 1.343 . S
H2366 C2338 0.931 . S
H2367 C2340 0.930 . S
H2368 C2342 0.930 . S
H2369 C2343 0.931 . S
H2370 C2345 0.931 . S
H2371 C2347 0.930 . S
H2372 C2349 0.930 . S
H2373 C2350 0.931 . S
H2374 C2352 0.931 . S
H2375 C2354 0.930 . S
H2376 C2356 0.930 . S
H2377 C2357 0.931 . S
H2378 C2359 0.931 . S
H2379 C2361 0.930 . S
H2380 C2363 0.930 . S
H2381 C2364 0.931 . S
N2382 C2344 1.343 . S
N2382 C2365 1.343 . S
N2383 C2351 1.343 . S
N2383 C2358 1.343 . S
C1281 C21 1.595 . S
C1348 C42 1.393 . S
C82 C1373 1.566 . S
C1433 C135 1.498 . S
C175 C1426 1.390 . S
C221 C1302 1.601 . S
C255 C1327 1.488 . S
C1394 C301 1.573 . S
C1486 C15 1.544 . S
C55 C1525 1.402 . S
C101 C1578 1.611 . S
C1603 C141 1.477 . S
C162 C1663 1.436 . S
C1716 C215 1.538 . S
C261 C1755 1.485 . S
C1794 C282 1.503 . S
C2 C1624 1.568 . S
C181 C1695 1.417 . S
C1748 C202 1.591 . S
C242 C1801 1.483 . S
C1656 C295 1.530 . S
C1518 C95 1.546 . S
C122 C1557 1.468 . S
C1465 C61 1.406 . S
C1833 C341 1.595 . S
C362 C1879 1.382 . S
C402 C1946 1.562 . S
C1992 C455 1.498 . S
C495 C1971 1.390 . S
C541 C1854 1.601 . S
C575 C1900 1.479 . S
C621 C1925 1.566 . S
C1670 C335 1.544 . S
C375 C2031 1.402 . S
C1762 C421 1.611 . S
C461 C2063 1.477 . S
C482 C1479 1.436 . S
C2130 C535 1.539 . S
C581 C1571 1.485 . S
C2162 C602 1.504 . S
C322 C2084 1.568 . S
C2109 C501 1.416 . S
C522 C1564 1.592 . S
C2169 C562 1.483 . S
C615 C1472 1.531 . S
C415 C2024 1.546 . S
C442 C1741 1.467 . S
C381 C1649 1.406 . S
C661 C1939 1.596 . S
C1985 C682 1.393 . S
C722 C1840 1.566 . S
C775 C1886 1.505 . S
C815 C1893 1.398 . S
C861 C1932 1.608 . S
C1978 C895 1.488 . S
C941 C1847 1.573 . S
C2201 C655 1.542 . S
C695 C1709 1.402 . S
C2247 C741 1.616 . S
C781 C1787 1.477 . S
C802 C2314 1.436 . S
C855 C1532 1.538 . S
C2346 C901 1.481 . S
C922 C1610 1.503 . S
C1808 C642 1.568 . S
C1511 C821 1.416 . S
C842 C2353 1.587 . S
C882 C1617 1.483 . S
C2293 C935 1.531 . S
C1702 C735 1.546 . S
C2268 C762 1.469 . S
C2222 C701 1.401 . S
C981 C1380 1.595 . S
C1002 C1440 1.392 . S
C1288 C1042 1.566 . S
C1341 C1095 1.498 . S
C1334 C1135 1.390 . S
C1387 C1181 1.601 . S
C1419 C1215 1.488 . S
C1261 C1295 1.573 . S
C975 C2307 1.544 . S
C2123 C1015 1.402 . S
C2339 C1061 1.616 . S
C2155 C1101 1.477 . S
C1122 C2208 1.444 . S
C2038 C1175 1.539 . S
C2254 C1221 1.481 . S
C1242 C2070 1.504 . S
C2176 C962 1.568 . S
C2017 C1141 1.416 . S
C2261 C1162 1.587 . S
C1202 C2077 1.483 . S
C1255 C2215 1.539 . S
C1055 C2116 1.546 . S
C1082 C2360 1.469 . S
C2300 C1021 1.406 . S
