# Generated by pormake.
# Topology tsx, (6,3)-cn, num edge types: 1
# Building blocks:
#     Node 0, Type 0, BuildingBlock: MIDCAF_clean_sbu_0, # of connection points: 6
#     Node 1, Type 0, BuildingBlock: MIDCAF_clean_sbu_0, # of connection points: 6
#     Node 2, Type 1, BuildingBlock: BELTOD_clean_linker_0, # of connection points: 3
#     Node 3, Type 1, BuildingBlock: BELTOD_clean_linker_0, # of connection points: 3
#     Node 4, Type 1, BuildingBlock: BELTOD_clean_linker_0, # of connection points: 3
#     Node 5, Type 1, BuildingBlock: BELTOD_clean_linker_0, # of connection points: 3
#     Edge 6, Type (0, 1), BuildingBlock: MIFKUJ_clean_linker_0, # of connection points: 2
#     Edge 7, Type (0, 1), BuildingBlock: MIFKUJ_clean_linker_0, # of connection points: 2
#     Edge 8, Type (0, 1), BuildingBlock: MIFKUJ_clean_linker_0, # of connection points: 2
#     Edge 9, Type (0, 1), BuildingBlock: MIFKUJ_clean_linker_0, # of connection points: 2
#     Edge 10, Type (0, 1), BuildingBlock: MIFKUJ_clean_linker_0, # of connection points: 2
#     Edge 11, Type (0, 1), BuildingBlock: MIFKUJ_clean_linker_0, # of connection points: 2
#     Edge 12, Type (0, 1), BuildingBlock: MIFKUJ_clean_linker_0, # of connection points: 2
#     Edge 13, Type (0, 1), BuildingBlock: MIFKUJ_clean_linker_0, # of connection points: 2
#     Edge 14, Type (0, 1), BuildingBlock: MIFKUJ_clean_linker_0, # of connection points: 2
#     Edge 15, Type (0, 1), BuildingBlock: MIFKUJ_clean_linker_0, # of connection points: 2
#     Edge 16, Type (0, 1), BuildingBlock: MIFKUJ_clean_linker_0, # of connection points: 2
#     Edge 17, Type (0, 1), BuildingBlock: MIFKUJ_clean_linker_0, # of connection points: 2
# Relax obj value: 0.110
# Max RMSD: 0.178
# Mean RMSD: 0.105
data_MOF--net-tsx--node1-MIDCAF_clean_sbu_0--node2-BELTOD_clean_linker_0--edge1-MIFKUJ_clean_linker_0
_symmetry_space_group_name_H-M    P1
_symmetry_Int_Tables_number       1
_symmetry_cell_setting            triclinic
loop_
_symmetry_equiv_pos_as_xyz
'x, y, z'
_cell_length_a     28.150092
_cell_length_b     28.973973
_cell_length_c     54.1077
_cell_angle_alpha  91.09449
_cell_angle_beta   93.945629
_cell_angle_gamma 90.051052
loop_
_atom_site_label
_atom_site_type_symbol
_atom_site_fract_x
_atom_site_fract_y
_atom_site_fract_z
_atom_type_partial_charge
Zn0 Zn 0.9277 0.00711 0.98145 0.0
Zn1 Zn 0.09692 0.01685 0.02903 0.0
Zn2 Zn 0.01237 0.01654 0.00471 0.0
C3 C 0.06989 0.10921 0.02082 0.0
C4 C 0.10896 0.96749 0.98617 0.0
O5 O 0.96384 0.97716 0.02763 0.0
O6 O 0.89389 0.97376 0.0064 0.0
C7 C 0.94801 0.10241 0.98592 0.0
O8 O 0.03264 0.09033 0.0097 0.0
O9 O 0.10258 0.08481 0.03091 0.0
O10 O 0.13346 0.98297 0.00489 0.0
O11 O 0.06405 0.97652 0.98324 0.0
O12 O 0.91645 0.07383 0.97791 0.0
O13 O 0.98723 0.088 0.99686 0.0
O14 O 0.02075 0.98083 0.96867 0.0
O15 O 0.94738 0.9731 0.95168 0.0
C16 C 0.99164 0.96758 0.95045 0.0
O17 O 0.00643 0.98744 0.042 0.0
O18 O 0.07998 0.98497 0.05919 0.0
C19 C 0.91997 0.96379 0.02543 0.0
C20 C 0.036 0.97782 0.06046 0.0
Zn21 Zn 0.59504 0.51038 0.54319 0.0
Zn22 Zn 0.43882 0.50683 0.4818 0.0
Zn23 Zn 0.51912 0.51115 0.51218 0.0
C24 C 0.51406 0.46787 0.45661 0.0
C25 C 0.45999 0.60074 0.49253 0.0
O26 O 0.50248 0.47612 0.54665 0.0
O27 O 0.57085 0.47147 0.56912 0.0
C28 C 0.62272 0.46908 0.50011 0.0
O29 O 0.53822 0.47958 0.47685 0.0
O30 O 0.46959 0.47429 0.45433 0.0
O31 O 0.43074 0.57497 0.48002 0.0
O32 O 0.495 0.5831 0.50576 0.0
O33 O 0.64054 0.48305 0.52095 0.0
O34 O 0.57829 0.47611 0.49388 0.0
O35 O 0.53706 0.58429 0.52125 0.0
O36 O 0.59703 0.57791 0.54962 0.0
C37 C 0.56843 0.60288 0.53684 0.0
O38 O 0.46439 0.46831 0.5286 0.0
O39 O 0.39916 0.47027 0.50335 0.0
C40 C 0.52672 0.46345 0.56644 0.0
C41 C 0.42088 0.45605 0.52293 0.0
P42 P 0.12295 0.11203 0.39187 0.0
H43 H 0.10575 0.15923 0.43864 0.0
H44 H 0.03422 0.19431 0.45405 0.0
H45 H 0.95067 0.13731 0.39059 0.0
H46 H 0.02101 0.10054 0.37633 0.0
H47 H 0.2128 0.07287 0.38021 0.0
H48 H 0.26771 0.01891 0.40109 0.0
H49 H 0.17443 0.00907 0.46093 0.0
H50 H 0.11927 0.06365 0.43976 0.0
H51 H 0.1047 0.15712 0.34453 0.0
H52 H 0.10446 0.01829 0.37181 0.0
O53 O 0.15401 0.1606 0.3894 0.0
H54 H 0.07734 0.12852 0.30324 0.0
H55 H 0.07656 0.9893 0.33048 0.0
C56 C 0.06906 0.12744 0.40628 0.0
C57 C 0.0717 0.15322 0.4285 0.0
C58 C 0.03078 0.17378 0.43709 0.0
C59 C 0.98652 0.16952 0.42335 0.0
C60 C 0.98375 0.14124 0.40187 0.0
C61 C 0.02447 0.12028 0.39352 0.0
C62 C 0.16185 0.07196 0.40831 0.0
C63 C 0.20407 0.0591 0.39781 0.0
C64 C 0.23539 0.02816 0.40976 0.0
C65 C 0.22529 0.00946 0.43259 0.0
C66 C 0.1833 0.02313 0.44342 0.0
C67 C 0.15164 0.05408 0.43128 0.0
C68 C 0.10774 0.08971 0.36104 0.0
C69 C 0.09937 0.12037 0.34153 0.0
C70 C 0.08314 0.10402 0.31801 0.0
C71 C 0.07464 0.05663 0.3136 0.0
C72 C 0.0833 0.02591 0.33322 0.0
C73 C 0.09937 0.0424 0.35681 0.0
P74 P 0.06051 0.94276 0.60895 0.0
H75 H 0.0173 0.8881 0.56743 0.0
H76 H 0.93554 0.8776 0.55091 0.0
H77 H 0.89001 0.98337 0.60157 0.0
H78 H 0.97226 0.99181 0.61895 0.0
H79 H 0.14739 0.95671 0.58328 0.0
H80 H 0.19399 0.02519 0.57562 0.0
H81 H 0.08968 0.11048 0.60959 0.0
H82 H 0.04253 0.04159 0.61666 0.0
H83 H 0.00815 0.88287 0.64009 0.0
H84 H 0.11163 0.99255 0.65085 0.0
O85 O 0.09025 0.89653 0.59958 0.0
H86 H 0.00874 0.87379 0.6849 0.0
H87 H 0.11061 0.98547 0.6955 0.0
C88 C 1.00085 0.94045 0.59456 0.0
C89 C 0.98987 0.90938 0.57486 0.0
C90 C 0.94289 0.90381 0.56519 0.0
C91 C 0.9058 0.92973 0.57479 0.0
C92 C 0.91742 0.96242 0.59388 0.0
C93 C 0.96453 0.9676 0.60371 0.0
C94 C 0.09141 0.99403 0.60053 0.0
C95 C 0.13413 0.99014 0.58882 0.0
C96 C 0.16106 0.02938 0.58465 0.0
C97 C 0.14594 0.07335 0.59228 0.0
C98 C 0.10222 0.07723 0.60331 0.0
C99 C 0.07518 0.03787 0.60736 0.0
C100 C 0.0589 0.93908 0.64209 0.0
C101 C 0.03035 0.90556 0.65212 0.0
C102 C 0.03064 0.90053 0.67778 0.0
C103 C 0.05959 0.92902 0.69394 0.0
C104 C 0.08832 0.96249 0.6837 0.0
C105 C 0.08836 0.96711 0.65805 0.0
P106 P 0.60718 0.61491 0.88508 0.0
H107 H 0.59103 0.68063 0.92508 0.0
H108 H 0.51828 0.71407 0.93994 0.0
H109 H 0.43415 0.62091 0.8912 0.0
H110 H 0.50665 0.58636 0.87752 0.0
H111 H 0.71023 0.6094 0.89411 0.0
H112 H 0.76237 0.55463 0.91639 0.0
H113 H 0.63923 0.48158 0.93897 0.0
H114 H 0.58699 0.53707 0.91671 0.0
H115 H 0.57258 0.65409 0.8384 0.0
H116 H 0.60047 0.51805 0.86689 0.0
O117 O 0.6377 0.66287 0.88008 0.0
H118 H 0.54063 0.62003 0.79909 0.0
H119 H 0.56792 0.48368 0.82773 0.0
C120 C 0.55429 0.63187 0.89977 0.0
C121 C 0.55687 0.66681 0.91804 0.0
C122 C 0.5152 0.68615 0.92633 0.0
C123 C 0.47021 0.671 0.91633 0.0
C124 C 0.468 0.63352 0.89937 0.0
C125 C 0.50968 0.61393 0.89131 0.0
C126 C 0.64478 0.57751 0.90399 0.0
C127 C 0.69437 0.5822 0.90426 0.0
C128 C 0.72418 0.55096 0.91708 0.0
C129 C 0.70487 0.51397 0.92951 0.0
C130 C 0.65506 0.50978 0.92953 0.0
C131 C 0.62522 0.54147 0.91693 0.0
C132 C 0.58981 0.58872 0.85538 0.0
C133 C 0.57243 0.61688 0.83606 0.0
C134 C 0.55356 0.59734 0.81373 0.0
C135 C 0.55145 0.54912 0.81035 0.0
C136 C 0.56944 0.52093 0.82969 0.0
C137 C 0.58818 0.54059 0.8521 0.0
P138 P 0.57958 0.44522 0.11761 0.0
H139 H 0.54652 0.42324 0.06661 0.0
H140 H 0.46786 0.40376 0.04713 0.0
H141 H 0.40455 0.43789 0.11565 0.0
H142 H 0.48311 0.45809 0.13481 0.0
H143 H 0.67359 0.47623 0.13485 0.0
H144 H 0.71983 0.54524 0.12794 0.0
H145 H 0.60497 0.59552 0.07846 0.0
H146 H 0.55803 0.5267 0.08637 0.0
H147 H 0.57738 0.36674 0.15069 0.0
H148 H 0.57515 0.51531 0.15717 0.0
O149 O 0.61076 0.40022 0.10792 0.0
H150 H 0.5796 0.36135 0.1959 0.0
H151 H 0.57754 0.51018 0.20229 0.0
C152 C 0.52078 0.44126 0.10225 0.0
C153 C 0.51556 0.42742 0.07727 0.0
C154 C 0.47061 0.41608 0.06621 0.0
C155 C 0.43 0.41851 0.07996 0.0
C156 C 0.43502 0.43574 0.1045 0.0
C157 C 0.48007 0.44705 0.11555 0.0
C158 C 0.61249 0.49638 0.11113 0.0
C159 C 0.65837 0.50214 0.1225 0.0
C160 C 0.68492 0.54155 0.11838 0.0
C161 C 0.66638 0.57596 0.10249 0.0
C162 C 0.6202 0.56999 0.09102 0.0
C163 C 0.59341 0.53049 0.09536 0.0
C164 C 0.57735 0.4414 0.15067 0.0
C165 C 0.57731 0.39816 0.16185 0.0
C166 C 0.57838 0.39513 0.18764 0.0
C167 C 0.57951 0.43537 0.20261 0.0
C168 C 0.57777 0.47862 0.19124 0.0
C169 C 0.57628 0.48157 0.16546 0.0
H170 H 0.10245 0.16171 0.98477 0.0
H171 H 0.1478 0.23337 0.99256 0.0
H172 H 0.10335 0.23943 0.06724 0.0
H173 H 0.05915 0.1672 0.05961 0.0
H174 H 0.14687 0.32621 0.01335 0.0
H175 H 0.20074 0.23931 0.10389 0.0
H176 H 0.19517 0.16298 0.12309 0.0
H177 H 0.20495 0.09635 0.05205 0.0
H178 H 0.2108 0.17224 0.03251 0.0
H179 H 0.33927 0.45268 0.08356 0.0
H180 H 0.26373 0.41387 0.07049 0.0
H181 H 0.3414 0.29972 0.04083 0.0
H182 H 0.41645 0.33771 0.05392 0.0
H183 H 0.27554 0.27322 0.07353 0.0
H184 H 0.28466 0.37025 0.00239 0.0
H185 H 0.29018 0.44448 0.98122 0.0
H186 H 0.15918 0.48881 0.0102 0.0
H187 H 0.15323 0.41503 0.03185 0.0
C188 C 0.10025 0.17985 0.00235 0.0
C189 C 0.07744 0.15931 0.02161 0.0
C190 C 0.1262 0.22075 0.00682 0.0
C191 C 0.12964 0.24123 0.03062 0.0
C192 C 0.1014 0.22401 0.0488 0.0
C193 C 0.07598 0.18289 0.04442 0.0
C194 C 0.17053 0.27209 0.03796 0.0
C195 C 0.17477 0.31504 0.02672 0.0
C196 C 0.20736 0.25711 0.05508 0.0
C197 C 0.20594 0.21134 0.06678 0.0
C198 C 0.20202 0.20832 0.09244 0.0
C199 C 0.19869 0.16517 0.10335 0.0
C200 C 0.19965 0.12486 0.08879 0.0
C201 C 0.20414 0.12759 0.0633 0.0
C202 C 0.20743 0.17064 0.0523 0.0
C203 C 0.34014 0.41951 0.07404 0.0
C204 C 0.38392 0.39833 0.06976 0.0
C205 C 0.297 0.39753 0.06647 0.0
C206 C 0.29701 0.35391 0.05471 0.0
C207 C 0.34059 0.33339 0.04986 0.0
C208 C 0.38351 0.35538 0.05719 0.0
C209 C 0.25218 0.32764 0.04899 0.0
C210 C 0.24732 0.28515 0.06054 0.0
C211 C 0.21528 0.34308 0.03203 0.0
C212 C 0.21882 0.38736 0.01899 0.0
C213 C 0.25728 0.396 0.00446 0.0
C214 C 0.26043 0.43795 0.99232 0.0
C215 C 0.22514 0.47141 0.99444 0.0
C216 C 0.18654 0.46291 0.00863 0.0
C217 C 0.18325 0.42102 0.02082 0.0
H218 H 0.22764 0.50387 0.98503 0.0
H219 H 0.19697 0.0915 0.09726 0.0
H220 H 0.19581 0.97989 0.9692 0.0
H221 H 0.2432 0.92293 0.94814 0.0
H222 H 0.12457 0.82802 0.94402 0.0
H223 H 0.07653 0.88575 0.96507 0.0
H224 H 0.2068 0.79279 0.96808 0.0
H225 H 0.16611 0.85818 0.88971 0.0
H226 H 0.1513 0.91856 0.85858 0.0
H227 H 0.29552 0.96599 0.87142 0.0
H228 H 0.31127 0.90548 0.9024 0.0
H229 H 0.38036 0.63654 0.9221 0.0
H230 H 0.30722 0.68045 0.92678 0.0
H231 H 0.38747 0.8075 0.92792 0.0
H232 H 0.4599 0.7643 0.92189 0.0
H233 H 0.30989 0.81528 0.89855 0.0
H234 H 0.34676 0.75806 0.98139 0.0
H235 H 0.36253 0.6976 0.01235 0.0
H236 H 0.22581 0.63672 0.99228 0.0
H237 H 0.20947 0.69661 0.96099 0.0
C238 C 0.1794 0.94739 0.96314 0.0
C239 C 0.13271 0.93703 0.96876 0.0
C240 C 0.20639 0.91493 0.95099 0.0
C241 C 0.18742 0.87123 0.94448 0.0
C242 C 0.13979 0.86162 0.94884 0.0
C243 C 0.11239 0.89456 0.96073 0.0
C244 C 0.22001 0.83437 0.93667 0.0
C245 C 0.22846 0.79688 0.95243 0.0
C246 C 0.24896 0.84034 0.91664 0.0
C247 C 0.23966 0.87748 0.89845 0.0
C248 C 0.19445 0.88175 0.886 0.0
C249 C 0.18596 0.91588 0.86834 0.0
C250 C 0.22231 0.94631 0.86315 0.0
C251 C 0.26736 0.94244 0.87549 0.0
C252 C 0.27615 0.90805 0.893 0.0
C253 C 0.38242 0.67384 0.92327 0.0
C254 C 0.42622 0.69678 0.9217 0.0
C255 C 0.34059 0.69888 0.92614 0.0
C256 C 0.34183 0.74731 0.92781 0.0
C257 C 0.38555 0.77016 0.92662 0.0
C258 C 0.42718 0.74528 0.92354 0.0
C259 C 0.29789 0.77476 0.93053 0.0
C260 C 0.28746 0.81045 0.91382 0.0
C261 C 0.26738 0.76732 0.94982 0.0
C262 C 0.27716 0.73143 0.96865 0.0
C263 C 0.32023 0.73156 0.98345 0.0
C264 C 0.32923 0.69745 0.00108 0.0
C265 C 0.29526 0.66325 0.00422 0.0
C266 C 0.25214 0.66318 0.98979 0.0
C267 C 0.24297 0.69721 0.97212 0.0
H268 H 0.3023 0.63686 0.01788 0.0
H269 H 0.21566 0.97276 0.8495 0.0
H270 H 0.96644 0.89535 0.05135 0.0
H271 H 0.92924 0.83207 0.0725 0.0
H272 H 0.79205 0.89685 0.05993 0.0
H273 H 0.82901 0.9601 0.0389 0.0
H274 H 0.80292 0.84988 0.10564 0.0
H275 H 0.82468 0.82478 0.01797 0.0
H276 H 0.87312 0.82027 0.98171 0.0
H277 H 0.95886 0.71401 0.01643 0.0
H278 H 0.91131 0.71845 0.05308 0.0
H279 H 0.63638 0.66582 0.09743 0.0
H280 H 0.6847 0.73383 0.09041 0.0
H281 H 0.8107 0.649 0.09166 0.0
H282 H 0.7624 0.58065 0.09726 0.0
H283 H 0.81228 0.70533 0.05551 0.0
H284 H 0.78515 0.7228 0.14123 0.0
H285 H 0.73823 0.72753 0.17803 0.0
H286 H 0.66507 0.84667 0.14877 0.0
H287 H 0.71109 0.84228 0.11161 0.0
C288 C 0.92869 0.897 0.05399 0.0
C289 C 0.90053 0.9325 0.04345 0.0
C290 C 0.90743 0.86068 0.06591 0.0
C291 C 0.8578 0.85953 0.06746 0.0
C292 C 0.83036 0.89707 0.05892 0.0
C293 C 0.85149 0.93308 0.04683 0.0
C294 C 0.83352 0.81684 0.07455 0.0
C295 C 0.8048 0.81821 0.09472 0.0
C296 C 0.83667 0.77541 0.0605 0.0
C297 C 0.86484 0.77233 0.03836 0.0
C298 C 0.85409 0.80071 0.01794 0.0
C299 C 0.88135 0.79814 0.99731 0.0
C300 C 0.91914 0.76697 0.9968 0.0
C301 C 0.92964 0.73821 0.01688 0.0
C302 C 0.90256 0.74073 0.03758 0.0
C303 C 0.67429 0.66152 0.09594 0.0
C304 C 0.69543 0.61765 0.09803 0.0
C305 C 0.70203 0.7006 0.0923 0.0
C306 C 0.75158 0.69676 0.09099 0.0
C307 C 0.77265 0.65298 0.09282 0.0
C308 C 0.74494 0.61391 0.09623 0.0
C309 C 0.78125 0.73801 0.0867 0.0
C310 C 0.81084 0.73653 0.06684 0.0
C311 C 0.77905 0.77914 0.1012 0.0
C312 C 0.7513 0.78195 0.12353 0.0
C313 C 0.7588 0.7498 0.14255 0.0
C314 C 0.73241 0.75246 0.16349 0.0
C315 C 0.69862 0.78731 0.16571 0.0
C316 C 0.69123 0.81966 0.14701 0.0
C317 C 0.71749 0.81713 0.12602 0.0
H318 H 0.67823 0.78932 0.18194 0.0
H319 H 0.9402 0.76503 0.98081 0.0
H320 H 0.98325 0.17867 0.01284 0.0
H321 H 0.96062 0.25971 0.0064 0.0
H322 H 0.86436 0.2173 0.94452 0.0
H323 H 0.88903 0.13796 0.94985 0.0
H324 H 0.90414 0.29269 0.93338 0.0
H325 H 0.83035 0.2372 0.00711 0.0
H326 H 0.83402 0.20746 0.04964 0.0
H327 H 0.91515 0.32626 0.07596 0.0
H328 H 0.9123 0.35644 0.03351 0.0
H329 H 0.69554 0.42092 0.92362 0.0
H330 H 0.75235 0.36151 0.93753 0.0
H331 H 0.84351 0.46567 0.97364 0.0
H332 H 0.7867 0.52572 0.95958 0.0
H333 H 0.82688 0.3748 0.00118 0.0
H334 H 0.88179 0.43618 0.92612 0.0
H335 H 0.87105 0.46318 0.88315 0.0
H336 H 0.8196 0.3292 0.85878 0.0
H337 H 0.82929 0.30161 0.90168 0.0
C338 C 0.95863 0.18704 0.9974 0.0
C339 C 0.93836 0.15196 0.98176 0.0
C340 C 0.94504 0.23324 0.99396 0.0
C341 C 0.91034 0.24471 0.97509 0.0
C342 C 0.89132 0.20965 0.95914 0.0
C343 C 0.90522 0.16404 0.96236 0.0
C344 C 0.89099 0.29221 0.97217 0.0
C345 C 0.88758 0.31071 0.9483 0.0
C346 C 0.87038 0.31664 0.99169 0.0
C347 C 0.87157 0.29876 0.01716 0.0
C348 C 0.84914 0.25683 0.02197 0.0
C349 C 0.85106 0.23992 0.04605 0.0
C350 C 0.87493 0.26489 0.06548 0.0
C351 C 0.89677 0.30691 0.06089 0.0
C352 C 0.895 0.32394 0.03684 0.0
C353 C 0.72717 0.43115 0.93494 0.0
C354 C 0.73673 0.47793 0.9405 0.0
C355 C 0.75967 0.39723 0.94277 0.0
C356 C 0.8021 0.40936 0.95648 0.0
C357 C 0.81089 0.45576 0.96308 0.0
C358 C 0.7786 0.48991 0.95495 0.0
C359 C 0.83819 0.37337 0.96224 0.0
C360 C 0.84476 0.35738 0.98653 0.0
C361 C 0.86115 0.35069 0.94305 0.0
C362 C 0.85605 0.36693 0.91715 0.0
C363 C 0.86789 0.41257 0.91162 0.0
C364 C 0.86203 0.42797 0.88728 0.0
C365 C 0.84461 0.39794 0.86825 0.0
C366 C 0.83311 0.35242 0.87353 0.0
C367 C 0.83884 0.33687 0.89786 0.0
H368 H 0.84007 0.40993 0.84942 0.0
H369 H 0.87642 0.25173 0.0841 0.0
H370 H 0.58817 0.6533 0.5787 0.0
H371 H 0.62501 0.72968 0.58145 0.0
H372 H 0.60466 0.74179 0.50221 0.0
H373 H 0.56728 0.66495 0.49928 0.0
H374 H 0.70977 0.72899 0.54912 0.0
H375 H 0.60931 0.88329 0.50431 0.0
H376 H 0.527 0.91007 0.49507 0.0
H377 H 0.48017 0.83171 0.5554 0.0
H378 H 0.56237 0.80601 0.56569 0.0
H379 H 0.86867 0.90612 0.52786 0.0
H380 H 0.79139 0.87019 0.51685 0.0
H381 H 0.75008 0.89469 0.59113 0.0
H382 H 0.82794 0.92857 0.60277 0.0
H383 H 0.67073 0.8956 0.54289 0.0
H384 H 0.79379 0.80554 0.5935 0.0
H385 H 0.87766 0.78142 0.60042 0.0
H386 H 0.8759 0.72921 0.52553 0.0
H387 H 0.79219 0.7538 0.51812 0.0
C388 C 0.58973 0.67305 0.56196 0.0
C389 C 0.57534 0.65325 0.53877 0.0
C390 C 0.61064 0.71669 0.56356 0.0
C391 C 0.6175 0.74127 0.54202 0.0
C392 C 0.59894 0.72359 0.51902 0.0
C393 C 0.57771 0.67973 0.51739 0.0
C394 C 0.65332 0.77872 0.5434 0.0
C395 C 0.70099 0.76536 0.54766 0.0
C396 C 0.64189 0.82611 0.54108 0.0
C397 C 0.59215 0.84198 0.5355 0.0
C398 C 0.58157 0.87201 0.51575 0.0
C399 C 0.53492 0.88727 0.51041 0.0
C400 C 0.49836 0.87252 0.5246 0.0
C401 C 0.50849 0.84292 0.54434 0.0
C402 C 0.55517 0.828 0.54994 0.0
C403 C 0.84294 0.90468 0.5418 0.0
C404 C 0.85522 0.91922 0.56641 0.0
C405 C 0.79842 0.88488 0.53531 0.0
C406 C 0.76507 0.87995 0.55317 0.0
C407 C 0.77512 0.89885 0.57699 0.0
C408 C 0.81991 0.91809 0.58363 0.0
C409 C 0.72646 0.8454 0.54902 0.0
C410 C 0.67893 0.85912 0.5441 0.0
C411 C 0.73748 0.79801 0.55052 0.0
C412 C 0.78707 0.78177 0.55523 0.0
C413 C 0.81143 0.78909 0.57851 0.0
C414 C 0.85889 0.77537 0.58251 0.0
C415 C 0.88213 0.75388 0.56341 0.0
C416 C 0.85788 0.74591 0.5403 0.0
C417 C 0.81045 0.75972 0.53619 0.0
H418 H 0.91889 0.74332 0.56653 0.0
H419 H 0.46219 0.88396 0.52028 0.0
H420 H 0.71721 0.48051 0.49607 0.0
H421 H 0.77127 0.42852 0.47602 0.0
H422 H 0.65224 0.34367 0.44865 0.0
H423 H 0.59788 0.39533 0.46943 0.0
H424 H 0.72043 0.29323 0.47172 0.0
H425 H 0.7166 0.40757 0.41032 0.0
H426 H 0.7207 0.48493 0.39254 0.0
H427 H 0.86686 0.49743 0.42023 0.0
H428 H 0.86344 0.42023 0.43837 0.0
H429 H 0.89127 0.14587 0.41811 0.0
H430 H 0.82299 0.1954 0.42452 0.0
H431 H 0.91775 0.30538 0.45107 0.0
H432 H 0.98607 0.25749 0.44299 0.0
H433 H 0.8522 0.33916 0.42104 0.0
H434 H 0.85112 0.23537 0.49007 0.0
H435 H 0.84827 0.15948 0.50983 0.0
H436 H 0.71364 0.1305 0.47036 0.0
H437 H 0.71598 0.20603 0.45013 0.0
C438 C 0.70243 0.45131 0.48532 0.0
C439 C 0.65331 0.44219 0.48408 0.0
C440 C 0.73336 0.42172 0.47373 0.0
C441 C 0.71587 0.38239 0.46055 0.0
C442 C 0.66652 0.37401 0.45853 0.0
C443 C 0.63544 0.40376 0.47019 0.0
C444 C 0.74991 0.34813 0.45122 0.0
C445 C 0.74864 0.30299 0.46014 0.0
C446 C 0.78736 0.36118 0.4366 0.0
C447 C 0.78965 0.40785 0.4257 0.0
C448 C 0.74955 0.42676 0.41266 0.0
C449 C 0.75176 0.47066 0.40253 0.0
C450 C 0.79402 0.4961 0.40526 0.0
C451 C 0.83415 0.47765 0.4181 0.0
C452 C 0.83209 0.43373 0.42826 0.0
C453 C 0.89772 0.18068 0.42518 0.0
C454 C 0.94452 0.19748 0.43 0.0
C455 C 0.85848 0.20886 0.4291 0.0
C456 C 0.86505 0.25414 0.43846 0.0
C457 C 0.91163 0.27063 0.44378 0.0
C458 C 0.95082 0.24279 0.43952 0.0
C459 C 0.8238 0.28494 0.44241 0.0
C460 C 0.82362 0.3293 0.43233 0.0
C461 C 0.78537 0.27147 0.45626 0.0
C462 C 0.78402 0.22607 0.46837 0.0
C463 C 0.8211 0.21264 0.48546 0.0
C464 C 0.81954 0.16973 0.49677 0.0
C465 C 0.78088 0.14012 0.49129 0.0
C466 C 0.74362 0.15342 0.47454 0.0
C467 C 0.74503 0.19627 0.46316 0.0
H468 H 0.77973 0.10692 0.50007 0.0
H469 H 0.79568 0.5301 0.39741 0.0
H470 H 0.32653 0.45051 0.53036 0.0
H471 H 0.2852 0.38733 0.54926 0.0
H472 H 0.41968 0.32029 0.56699 0.0
H473 H 0.4612 0.38344 0.54794 0.0
H474 H 0.35459 0.26363 0.54098 0.0
H475 H 0.35952 0.35838 0.61375 0.0
H476 H 0.35071 0.42927 0.63892 0.0
H477 H 0.20093 0.43176 0.61775 0.0
H478 H 0.20877 0.36077 0.59245 0.0
H479 H 0.24286 0.07988 0.59985 0.0
H480 H 0.29337 0.14664 0.59362 0.0
H481 H 0.16906 0.22742 0.57251 0.0
H482 H 0.11814 0.16047 0.57833 0.0
H483 H 0.23515 0.27574 0.6041 0.0
H484 H 0.2333 0.18339 0.5287 0.0
H485 H 0.24314 0.11154 0.50439 0.0
H486 H 0.3901 0.10486 0.53117 0.0
H487 H 0.38095 0.17638 0.5559 0.0
C488 C 0.34733 0.42278 0.53877 0.0
C489 C 0.39706 0.42202 0.53788 0.0
C490 C 0.32373 0.3868 0.54964 0.0
C491 C 0.34939 0.34919 0.55961 0.0
C492 C 0.39925 0.34909 0.55949 0.0
C493 C 0.42294 0.38536 0.54881 0.0
C494 C 0.32353 0.3082 0.5678 0.0
C495 C 0.32923 0.26602 0.55517 0.0
C496 C 0.28975 0.31162 0.58592 0.0
C497 C 0.28479 0.35441 0.60104 0.0
C498 C 0.32474 0.37421 0.6143 0.0
C499 C 0.31993 0.41438 0.62863 0.0
C500 C 0.27536 0.43515 0.62982 0.0
C501 C 0.23545 0.41565 0.61679 0.0
C502 C 0.24002 0.37535 0.60252 0.0
C503 C 0.22619 0.1117 0.59368 0.0
C504 C 0.17642 0.11462 0.5893 0.0
C505 C 0.25513 0.14992 0.5903 0.0
C506 C 0.23499 0.19185 0.5824 0.0
C507 C 0.1853 0.19538 0.57868 0.0
C508 C 0.15626 0.15709 0.58202 0.0
C509 C 0.2659 0.23143 0.57708 0.0
C510 C 0.26099 0.27329 0.59016 0.0
C511 C 0.30063 0.2277 0.55943 0.0
C512 C 0.30631 0.18497 0.54435 0.0
C513 C 0.26762 0.16642 0.52954 0.0
C514 C 0.27308 0.12579 0.51567 0.0
C515 C 0.31717 0.10357 0.5163 0.0
C516 C 0.35594 0.12206 0.53073 0.0
C517 C 0.35065 0.16266 0.54466 0.0
H518 H 0.32132 0.0721 0.50556 0.0
H519 H 0.27171 0.46629 0.6409 0.0
H520 H 0.43103 0.64919 0.45225 0.0
H521 H 0.40919 0.73043 0.45033 0.0
H522 H 0.44913 0.74766 0.52839 0.0
H523 H 0.47088 0.66534 0.5304 0.0
H524 H 0.35828 0.78071 0.51479 0.0
H525 H 0.51301 0.79695 0.48843 0.0
H526 H 0.5842 0.78396 0.46529 0.0
H527 H 0.50486 0.81649 0.39735 0.0
H528 H 0.43308 0.83004 0.41995 0.0
H529 H 0.259 0.00393 0.48149 0.0
H530 H 0.31476 0.94666 0.49979 0.0
H531 H 0.32016 0.87917 0.42825 0.0
H532 H 0.2653 0.93599 0.41004 0.0
H533 H 0.40724 0.88664 0.45025 0.0
H534 H 0.25004 0.83937 0.47493 0.0
H535 H 0.17657 0.85196 0.4965 0.0
H536 H 0.25952 0.87349 0.56537 0.0
H537 H 0.33353 0.86145 0.54412 0.0
C538 C 0.43591 0.67043 0.46893 0.0
C539 C 0.45296 0.65115 0.49142 0.0
C540 C 0.42366 0.71693 0.4678 0.0
C541 C 0.42792 0.74527 0.48916 0.0
C542 C 0.44589 0.72643 0.51166 0.0
C543 C 0.45863 0.67964 0.51275 0.0
C544 C 0.40938 0.79316 0.48779 0.0
C545 C 0.36984 0.80451 0.50116 0.0
C546 C 0.42429 0.82404 0.46988 0.0
C547 C 0.46745 0.81505 0.45605 0.0
C548 C 0.51053 0.80142 0.46857 0.0
C549 C 0.55109 0.79389 0.45553 0.0
C550 C 0.54905 0.79936 0.4299 0.0
C551 C 0.50644 0.81244 0.41724 0.0
C552 C 0.46584 0.82031 0.43019 0.0
C553 C 0.27201 0.97667 0.46977 0.0
C554 C 0.25791 0.97456 0.4443 0.0
C555 C 0.30396 0.94409 0.48022 0.0
C556 C 0.3218 0.90856 0.4654 0.0
C557 C 0.30746 0.90651 0.44003 0.0
C558 C 0.27598 0.93902 0.42963 0.0
C559 C 0.35426 0.87219 0.47585 0.0
C560 C 0.39664 0.86336 0.46434 0.0
C561 C 0.34166 0.84326 0.49516 0.0
C562 C 0.29724 0.85011 0.50791 0.0
C563 C 0.25258 0.84708 0.49464 0.0
C564 C 0.21086 0.85407 0.50681 0.0
C565 C 0.21338 0.8637 0.53228 0.0
C566 C 0.25763 0.86615 0.54564 0.0
C567 C 0.29946 0.85923 0.53355 0.0
H568 H 0.18106 0.86914 0.54166 0.0
H569 H 0.58049 0.79344 0.41985 0.0
H570 H 0.95511 0.00691 0.08076 0.0
H571 H 0.94178 0.00757 0.12502 0.0
H572 H 0.06614 0.92281 0.13912 0.0
H573 H 0.08018 0.92279 0.09502 0.0
H574 H 0.98789 0.90931 0.17278 0.0
H575 H 0.0896 0.02629 0.1395 0.0
H576 H 0.10607 0.08719 0.11 0.0
H577 H 0.98651 0.16494 0.13301 0.0
H578 H 0.96881 0.10396 0.16234 0.0
H579 H 0.10393 0.98058 0.28798 0.0
H580 H 0.07856 0.9563 0.24558 0.0
H581 H 0.97965 0.06993 0.24028 0.0
H582 H 0.00498 0.09444 0.28263 0.0
H583 H 0.03188 0.06811 0.20199 0.0
H584 H 0.94067 0.95707 0.24194 0.0
H585 H 0.92491 0.89557 0.27117 0.0
H586 H 0.0233 0.80638 0.2364 0.0
H587 H 0.04021 0.86758 0.20716 0.0
C588 C 0.97837 0.98676 0.09314 0.0
C589 C 0.01904 0.96531 0.08461 0.0
C590 C 0.97076 0.98724 0.11841 0.0
C591 C 0.00337 0.96573 0.13529 0.0
C592 C 0.04061 0.93956 0.12636 0.0
C593 C 0.04869 0.93974 0.10119 0.0
C594 C 0.00482 0.97811 0.16197 0.0
C595 C 0.99742 0.94394 0.1793 0.0
C596 C 0.0167 0.02349 0.17029 0.0
C597 C 0.02753 0.06035 0.15286 0.0
C598 C 0.06657 0.05617 0.13809 0.0
C599 C 0.07618 0.09072 0.12143 0.0
C600 C 0.04731 0.12987 0.1196 0.0
C601 C 0.00879 0.13455 0.13443 0.0
C602 C 0.99893 0.10001 0.15106 0.0
C603 C 0.07617 0.99989 0.27793 0.0
C604 C 0.05674 0.03964 0.28858 0.0
C605 C 0.06157 0.9859 0.25371 0.0
C606 C 0.0269 0.01108 0.23977 0.0
C607 C 0.0065 0.05001 0.25064 0.0
C608 C 0.0212 0.06411 0.2748 0.0
C609 C 0.01508 0.99928 0.21321 0.0
C610 C 0.02112 0.03362 0.19574 0.0
C611 C 0.00196 0.95404 0.2049 0.0
C612 C 0.99199 0.9171 0.22247 0.0
C613 C 0.95926 0.92448 0.24065 0.0
C614 C 0.95006 0.88964 0.2572 0.0
C615 C 0.97317 0.84713 0.25568 0.0
C616 C 0.00546 0.83934 0.23756 0.0
C617 C 0.01482 0.87408 0.22097 0.0
H618 H 0.96598 0.82019 0.2685 0.0
H619 H 0.0549 0.15665 0.10675 0.0
H620 H 0.94322 0.91533 0.91478 0.0
H621 H 0.96597 0.89857 0.87298 0.0
H622 H 0.10245 0.96356 0.89077 0.0
H623 H 0.07821 0.98352 0.93205 0.0
H624 H 0.06796 0.99537 0.85036 0.0
H625 H 0.08547 0.84344 0.87944 0.0
H626 H 0.06537 0.77121 0.8996 0.0
H627 H 0.94835 0.74892 0.84548 0.0
H628 H 0.96744 0.82142 0.82518 0.0
H629 H 0.13534 0.93744 0.72863 0.0
H630 H 0.13402 0.93433 0.7737 0.0
H631 H 0.98357 0.90476 0.76646 0.0
H632 H 0.98396 0.90949 0.72147 0.0
H633 H 0.03743 0.84964 0.80227 0.0
H634 H 0.0159 0.01008 0.7785 0.0
H635 H 0.03984 0.08149 0.75855 0.0
H636 H 0.17091 0.08433 0.80413 0.0
H637 H 0.14796 0.01253 0.8241 0.0
C638 C 0.97844 0.92531 0.90994 0.0
C639 C 0.00926 0.95006 0.92692 0.0
C640 C 0.99163 0.91531 0.88604 0.0
C641 C 0.03631 0.92907 0.87869 0.0
C642 C 0.06795 0.95217 0.89598 0.0
C643 C 0.05437 0.96293 0.91978 0.0
C644 C 0.0476 0.92376 0.85233 0.0
C645 C 0.06227 0.9631 0.84008 0.0
C646 C 0.03967 0.88188 0.83866 0.0
C647 C 0.02795 0.83808 0.8508 0.0
C648 C 0.0554 0.82327 0.87187 0.0
C649 C 0.04415 0.78225 0.88334 0.0
C650 C 0.00559 0.75547 0.87383 0.0
C651 C 0.97824 0.76968 0.85282 0.0
C652 C 0.98933 0.81074 0.8413 0.0
C653 C 0.10183 0.93059 0.73657 0.0
C654 C 0.05964 0.92416 0.72132 0.0
C655 C 0.1013 0.92839 0.76234 0.0
C656 C 0.05869 0.91942 0.77336 0.0
C657 C 0.01688 0.91141 0.75826 0.0
C658 C 0.01725 0.91404 0.73251 0.0
C659 C 0.05682 0.92124 0.80064 0.0
C660 C 0.04381 0.88142 0.8129 0.0
C661 C 0.06695 0.96237 0.81447 0.0
C662 C 0.08051 0.00565 0.80255 0.0
C663 C 0.05001 0.02571 0.7841 0.0
C664 C 0.06336 0.0663 0.77282 0.0
C665 C 0.10695 0.08735 0.78 0.0
C666 C 0.13721 0.06793 0.79854 0.0
C667 C 0.12405 0.02731 0.80985 0.0
H668 H 0.11722 0.11877 0.77125 0.0
H669 H 0.9969 0.72371 0.88273 0.0
H670 H 0.43783 0.4853 0.58014 0.0
H671 H 0.41262 0.48209 0.62238 0.0
H672 H 0.53807 0.4034 0.6442 0.0
H673 H 0.56313 0.40615 0.60203 0.0
H674 H 0.46426 0.38698 0.67471 0.0
H675 H 0.5492 0.51688 0.64118 0.0
H676 H 0.55696 0.57797 0.61053 0.0
H677 H 0.42413 0.63666 0.62984 0.0
H678 H 0.41528 0.57536 0.66032 0.0
H679 H 0.58537 0.47655 0.78371 0.0
H680 H 0.55489 0.44737 0.74302 0.0
H681 H 0.44028 0.54619 0.74261 0.0
H682 H 0.47063 0.57554 0.78336 0.0
H683 H 0.48567 0.55083 0.70167 0.0
H684 H 0.41769 0.42949 0.74555 0.0
H685 H 0.4157 0.36744 0.77601 0.0
H686 H 0.52101 0.29189 0.73822 0.0
H687 H 0.52419 0.35378 0.70773 0.0
C688 C 0.45868 0.46519 0.5936 0.0
C689 C 0.50293 0.44679 0.58802 0.0
C690 C 0.44426 0.46345 0.61778 0.0
C691 C 0.47411 0.44348 0.63653 0.0
C692 C 0.51466 0.41924 0.63007 0.0
C693 C 0.52912 0.42108 0.60597 0.0
C694 C 0.47041 0.45705 0.66286 0.0
C695 C 0.46846 0.42277 0.68072 0.0
C696 C 0.4755 0.50386 0.67061 0.0
C697 C 0.48133 0.54136 0.65279 0.0
C698 C 0.52158 0.54274 0.6388 0.0
C699 C 0.52616 0.57734 0.62146 0.0
C700 C 0.491 0.61111 0.6182 0.0
C701 C 0.45128 0.61042 0.63234 0.0
C702 C 0.44644 0.57575 0.64964 0.0
C703 C 0.55311 0.49141 0.77519 0.0
C704 C 0.53065 0.52861 0.78665 0.0
C705 C 0.53557 0.47457 0.75196 0.0
C706 C 0.49497 0.49428 0.73984 0.0
C707 C 0.4716 0.53042 0.75162 0.0
C708 C 0.48918 0.54735 0.77481 0.0
C709 C 0.48038 0.48068 0.71382 0.0
C710 C 0.4795 0.51512 0.69592 0.0
C711 C 0.47327 0.43398 0.70618 0.0
C712 C 0.4713 0.39645 0.72439 0.0
C713 C 0.44065 0.39979 0.74381 0.0
C714 C 0.43928 0.36461 0.76108 0.0
C715 C 0.46824 0.32577 0.75906 0.0
C716 C 0.49857 0.32199 0.73975 0.0
C717 C 0.50011 0.35708 0.72244 0.0
H718 H 0.46715 0.29859 0.77246 0.0
H719 H 0.49459 0.63786 0.60475 0.0
H720 H 0.48115 0.40358 0.42258 0.0
H721 H 0.51125 0.38803 0.38194 0.0
H722 H 0.62928 0.48044 0.40009 0.0
H723 H 0.59937 0.49583 0.44099 0.0
H724 H 0.57122 0.50492 0.35847 0.0
H725 H 0.65444 0.37269 0.38794 0.0
H726 H 0.66783 0.29901 0.40938 0.0
H727 H 0.56001 0.23428 0.36043 0.0
H728 H 0.54615 0.30769 0.33874 0.0
H729 H 0.63831 0.48468 0.23548 0.0
H730 H 0.6425 0.48217 0.28071 0.0
H731 H 0.53314 0.3773 0.27688 0.0
H732 H 0.5294 0.37917 0.23155 0.0
H733 H 0.59974 0.35857 0.31281 0.0
H734 H 0.50715 0.49109 0.28786 0.0
H735 H 0.49044 0.56438 0.26655 0.0
H736 H 0.60942 0.62819 0.30789 0.0
H737 H 0.62724 0.55502 0.32921 0.0
C738 C 0.51431 0.41945 0.41816 0.0
C739 C 0.53794 0.45093 0.43481 0.0
C740 C 0.53161 0.41037 0.39501 0.0
C741 C 0.57248 0.43308 0.38803 0.0
C742 C 0.5978 0.46242 0.40522 0.0
C743 C 0.5808 0.47106 0.42855 0.0
C744 C 0.5836 0.43188 0.36167 0.0
C745 C 0.57877 0.47311 0.34858 0.0
C746 C 0.59159 0.39007 0.34871 0.0
C747 C 0.59914 0.34586 0.36185 0.0
C748 C 0.6334 0.34285 0.38191 0.0
C749 C 0.64113 0.30111 0.39407 0.0
C750 C 0.61461 0.26203 0.38635 0.0
C751 C 0.58049 0.26461 0.3664 0.0
C752 C 0.57283 0.30626 0.35412 0.0
C753 C 0.61514 0.46112 0.2443 0.0
C754 C 0.58314 0.43248 0.23001 0.0
C755 C 0.61766 0.45962 0.27013 0.0
C756 C 0.58766 0.43001 0.2822 0.0
C757 C 0.55668 0.40037 0.26797 0.0
C758 C 0.55449 0.40153 0.24209 0.0
C759 C 0.58686 0.43158 0.30961 0.0
C760 C 0.59318 0.39048 0.32281 0.0
C761 C 0.57946 0.47343 0.32272 0.0
C762 C 0.56889 0.51743 0.3099 0.0
C763 C 0.53001 0.52064 0.29225 0.0
C764 C 0.52029 0.56217 0.28019 0.0
C765 C 0.54896 0.60087 0.2858 0.0
C766 C 0.58733 0.59814 0.30352 0.0
C767 C 0.59725 0.55666 0.3156 0.0
H768 H 0.54136 0.633 0.27646 0.0
H769 H 0.6206 0.22973 0.39578 0.0
loop_
_geom_bond_atom_site_label_1
_geom_bond_atom_site_label_2
_geom_bond_distance
_geom_bond_site_symmetry_2
_ccdc_geom_bond_type
Zn0 O6 1.920 1_545 S
Zn0 O12 1.898 . S
Zn0 O15 1.905 1_545 S
Zn1 O9 1.905 . S
Zn1 O10 1.898 1_545 S
Zn1 O18 1.920 1_545 S
Zn2 O5 2.080 1_445 S
Zn2 O8 2.114 . S
Zn2 O11 2.120 1_545 S
Zn2 O13 2.120 1_455 S
Zn2 O14 2.114 1_554 S
Zn2 O17 2.080 . S
C3 O8 1.166 . S
C3 O9 1.182 . S
C4 O10 1.167 . S
C4 O11 1.299 . S
O5 Zn2 2.080 1_665 S
O5 C19 1.305 . S
O6 Zn0 1.920 1_565 S
O6 C19 1.234 1_556 S
C7 O12 1.167 . S
C7 O13 1.299 1_556 S
O8 Zn2 2.114 . S
O8 C3 1.166 . S
O9 Zn1 1.905 . S
O9 C3 1.182 . S
O10 Zn1 1.898 1_565 S
O10 C4 1.167 . S
O11 Zn2 2.120 1_565 S
O11 C4 1.299 . S
O12 Zn0 1.898 . S
O12 C7 1.167 . S
O13 Zn2 2.120 1_655 S
O13 C7 1.299 1_554 S
O14 Zn2 2.114 1_556 S
O14 C16 1.166 1_545 S
O15 Zn0 1.905 1_565 S
O15 C16 1.182 1_655 S
C16 O14 1.166 1_565 S
C16 O15 1.182 1_455 S
O17 Zn2 2.080 . S
O17 C20 1.305 1_545 S
O18 Zn1 1.920 1_565 S
O18 C20 1.234 . S
C19 O5 1.305 . S
C19 O6 1.234 1_554 S
C20 O17 1.305 1_565 S
C20 O18 1.234 . S
Zn21 O27 1.920 . S
Zn21 O33 1.898 . S
Zn21 O36 1.905 . S
Zn22 O30 1.905 . S
Zn22 O31 1.898 . S
Zn22 O39 1.920 . S
Zn23 O26 2.080 . S
Zn23 O29 2.114 . S
Zn23 O32 2.120 . S
Zn23 O34 2.120 . S
Zn23 O35 2.114 . S
Zn23 O38 2.080 . S
C24 O29 1.166 . S
C24 O30 1.182 . S
C25 O31 1.167 . S
C25 O32 1.299 . S
O26 Zn23 2.080 . S
O26 C40 1.305 . S
O27 Zn21 1.920 . S
O27 C40 1.234 . S
C28 O33 1.167 . S
C28 O34 1.299 . S
O29 Zn23 2.114 . S
O29 C24 1.166 . S
O30 Zn22 1.905 . S
O30 C24 1.182 . S
O31 Zn22 1.898 . S
O31 C25 1.167 . S
O32 Zn23 2.120 . S
O32 C25 1.299 . S
O33 Zn21 1.898 . S
O33 C28 1.167 . S
O34 Zn23 2.120 . S
O34 C28 1.299 . S
O35 Zn23 2.114 . S
O35 C37 1.166 . S
O36 Zn21 1.905 . S
O36 C37 1.182 . S
C37 O35 1.166 . S
C37 O36 1.182 . S
O38 Zn23 2.080 . S
O38 C41 1.305 . S
O39 Zn22 1.920 . S
O39 C41 1.234 . S
C40 O26 1.305 . S
C40 O27 1.234 . S
C41 O38 1.305 . S
C41 O39 1.234 . S
P42 O53 1.490 . S
P42 C56 1.812 . S
P42 C62 1.803 . S
P42 C68 1.819 . S
H43 C57 0.941 . S
H44 C58 0.939 . S
H45 C60 0.940 . S
H46 C61 0.940 . S
H47 C63 0.939 . S
H48 C64 0.942 . S
H49 C66 0.940 . S
H50 C67 0.938 1_545 S
H51 C69 0.941 . S
H52 C73 0.939 1_565 S
O53 P42 1.490 . S
H54 C70 0.939 . S
H55 C72 0.940 1_565 S
C56 P42 1.812 . S
C56 C57 1.389 . S
C56 C61 1.391 . S
C57 H43 0.941 . S
C57 C56 1.389 . S
C57 C58 1.397 . S
C58 H44 0.939 . S
C58 C57 1.397 . S
C58 C59 1.378 1_455 S
C59 C58 1.378 1_655 S
C59 C60 1.378 . S
C60 H45 0.940 . S
C60 C59 1.378 . S
C60 C61 1.396 1_655 S
C61 H46 0.940 . S
C61 C56 1.391 . S
C61 C60 1.396 1_455 S
C62 P42 1.803 . S
C62 C63 1.378 . S
C62 C67 1.400 1_545 S
C63 H47 0.939 . S
C63 C62 1.378 . S
C63 C64 1.361 1_545 S
C64 H48 0.942 . S
C64 C63 1.361 1_565 S
C64 C65 1.369 . S
C65 C64 1.369 . S
C65 C66 1.404 . S
C66 H49 0.940 . S
C66 C65 1.404 . S
C66 C67 1.389 . S
C67 H50 0.938 1_565 S
C67 C62 1.400 1_565 S
C67 C66 1.389 . S
C68 P42 1.819 . S
C68 C69 1.391 . S
C68 C73 1.391 . S
C69 H51 0.941 . S
C69 C68 1.391 . S
C69 C70 1.396 . S
C70 H54 0.939 . S
C70 C69 1.396 . S
C70 C71 1.397 . S
C71 C70 1.397 . S
C71 C72 1.385 . S
C72 H55 0.940 1_545 S
C72 C71 1.385 . S
C72 C73 1.388 . S
C73 H52 0.939 1_545 S
C73 C68 1.391 . S
C73 C72 1.388 . S
P74 O85 1.490 . S
P74 C88 1.812 1_455 S
P74 C94 1.803 1_565 S
P74 C100 1.814 1_565 S
H75 C89 0.941 1_455 S
H76 C90 0.939 . S
H77 C92 0.940 . S
H78 C93 0.940 1_545 S
H79 C95 0.939 . S
H80 C96 0.942 . S
H81 C98 0.940 . S
H82 C99 0.939 . S
H83 C101 0.941 . S
H84 C105 0.939 . S
O85 P74 1.490 . S
H86 C102 0.939 . S
H87 C104 0.940 . S
C88 P74 1.812 1_655 S
C88 C89 1.389 . S
C88 C93 1.391 . S
C89 H75 0.941 1_655 S
C89 C88 1.389 . S
C89 C90 1.397 . S
C90 H76 0.939 . S
C90 C89 1.397 . S
C90 C91 1.378 . S
C91 C90 1.378 . S
C91 C92 1.378 . S
C92 H77 0.940 . S
C92 C91 1.378 . S
C92 C93 1.396 . S
C93 H78 0.940 1_565 S
C93 C88 1.391 . S
C93 C92 1.396 . S
C94 P74 1.803 1_545 S
C94 C95 1.378 . S
C94 C99 1.400 . S
C95 H79 0.939 . S
C95 C94 1.378 . S
C95 C96 1.361 . S
C96 H80 0.942 . S
C96 C95 1.361 . S
C96 C97 1.369 . S
C97 C96 1.369 . S
C97 C98 1.404 . S
C98 H81 0.940 . S
C98 C97 1.404 . S
C98 C99 1.389 . S
C99 H82 0.939 . S
C99 C94 1.400 . S
C99 C98 1.389 . S
C100 P74 1.814 1_545 S
C100 C101 1.378 1_545 S
C100 C105 1.409 . S
C101 H83 0.941 . S
C101 C100 1.378 1_565 S
C101 C102 1.396 . S
C102 H86 0.939 . S
C102 C101 1.396 . S
C102 C103 1.397 1_565 S
C103 C102 1.397 1_545 S
C103 C104 1.385 . S
C104 H87 0.940 . S
C104 C103 1.385 . S
C104 C105 1.388 . S
C105 H84 0.939 . S
C105 C100 1.409 . S
C105 C104 1.388 . S
P106 O117 1.490 . S
P106 C120 1.812 . S
P106 C126 1.803 . S
P106 C132 1.819 . S
H107 C121 0.941 . S
H108 C122 0.939 . S
H109 C124 0.940 . S
H110 C125 0.940 . S
H111 C127 0.939 . S
H112 C128 0.942 . S
H113 C130 0.940 . S
H114 C131 0.939 . S
H115 C133 0.941 . S
H116 C137 0.939 . S
O117 P106 1.490 . S
H118 C134 0.939 . S
H119 C136 0.940 . S
C120 P106 1.812 . S
C120 C121 1.389 . S
C120 C125 1.391 . S
C121 H107 0.941 . S
C121 C120 1.389 . S
C121 C122 1.397 . S
C122 H108 0.939 . S
C122 C121 1.397 . S
C122 C123 1.378 . S
C123 C122 1.378 . S
C123 C124 1.378 . S
C124 H109 0.940 . S
C124 C123 1.378 . S
C124 C125 1.396 . S
C125 H110 0.940 . S
C125 C120 1.391 . S
C125 C124 1.396 . S
C126 P106 1.803 . S
C126 C127 1.378 . S
C126 C131 1.400 . S
C127 H111 0.939 . S
C127 C126 1.378 . S
C127 C128 1.361 . S
C128 H112 0.942 . S
C128 C127 1.361 . S
C128 C129 1.369 . S
C129 C128 1.369 . S
C129 C130 1.404 . S
C130 H113 0.940 . S
C130 C129 1.404 . S
C130 C131 1.389 . S
C131 H114 0.939 . S
C131 C126 1.400 . S
C131 C130 1.389 . S
C132 P106 1.819 . S
C132 C133 1.391 . S
C132 C137 1.391 . S
C133 H115 0.941 . S
C133 C132 1.391 . S
C133 C134 1.396 . S
C134 H118 0.939 . S
C134 C133 1.396 . S
C134 C135 1.397 . S
C135 C134 1.397 . S
C135 C136 1.385 . S
C136 H119 0.940 . S
C136 C135 1.385 . S
C136 C137 1.388 . S
C137 H116 0.939 . S
C137 C132 1.391 . S
C137 C136 1.388 . S
P138 O149 1.490 . S
P138 C152 1.812 . S
P138 C158 1.803 . S
P138 C164 1.819 . S
H139 C153 0.941 . S
H140 C154 0.939 . S
H141 C156 0.940 . S
H142 C157 0.940 . S
H143 C159 0.939 . S
H144 C160 0.942 . S
H145 C162 0.940 . S
H146 C163 0.939 . S
H147 C165 0.941 . S
H148 C169 0.939 . S
O149 P138 1.490 . S
H150 C166 0.939 . S
H151 C168 0.940 . S
C152 P138 1.812 . S
C152 C153 1.389 . S
C152 C157 1.391 . S
C153 H139 0.941 . S
C153 C152 1.389 . S
C153 C154 1.397 . S
C154 H140 0.939 . S
C154 C153 1.397 . S
C154 C155 1.378 . S
C155 C154 1.378 . S
C155 C156 1.378 . S
C156 H141 0.940 . S
C156 C155 1.378 . S
C156 C157 1.396 . S
C157 H142 0.940 . S
C157 C152 1.391 . S
C157 C156 1.396 . S
C158 P138 1.803 . S
C158 C159 1.378 . S
C158 C163 1.400 . S
C159 H143 0.939 . S
C159 C158 1.378 . S
C159 C160 1.361 . S
C160 H144 0.942 . S
C160 C159 1.361 . S
C160 C161 1.369 . S
C161 C160 1.369 . S
C161 C162 1.404 . S
C162 H145 0.940 . S
C162 C161 1.404 . S
C162 C163 1.389 . S
C163 H146 0.939 . S
C163 C158 1.400 . S
C163 C162 1.389 . S
C164 P138 1.819 . S
C164 C165 1.391 . S
C164 C169 1.391 . S
C165 H147 0.941 . S
C165 C164 1.391 . S
C165 C166 1.396 . S
C166 H150 0.939 . S
C166 C165 1.396 . S
C166 C167 1.397 . S
C167 C166 1.397 . S
C167 C168 1.385 . S
C168 H151 0.940 . S
C168 C167 1.385 . S
C168 C169 1.388 . S
C169 H148 0.939 . S
C169 C164 1.391 . S
C169 C168 1.388 . S
H170 C188 0.951 . S
H171 C190 0.951 . S
H172 C192 0.950 . S
H173 C193 0.950 . S
H174 C195 0.950 . S
H175 C198 0.950 . S
H176 C199 0.950 . S
H177 C201 0.950 . S
H178 C202 0.950 . S
H179 C203 0.951 . S
H180 C205 0.951 . S
H181 C207 0.950 . S
H182 C208 0.950 . S
H183 C210 0.950 . S
H184 C213 0.950 1_554 S
H185 C214 0.950 . S
H186 C216 0.950 . S
H187 C217 0.950 . S
C188 H170 0.951 . S
C188 C189 1.366 . S
C188 C190 1.388 . S
C189 C188 1.366 . S
C189 C193 1.385 . S
C190 H171 0.951 . S
C190 C188 1.388 . S
C190 C191 1.366 . S
C191 C190 1.366 . S
C191 C192 1.414 . S
C191 C194 1.499 . S
C192 H172 0.950 . S
C192 C191 1.414 . S
C192 C193 1.374 . S
C193 H173 0.950 . S
C193 C189 1.385 . S
C193 C192 1.374 . S
C194 C191 1.499 . S
C194 C195 1.373 . S
C194 C196 1.389 . S
C195 H174 0.950 . S
C195 C194 1.373 . S
C195 C211 1.377 . S
C196 C194 1.389 . S
C196 C197 1.524 . S
C196 C210 1.377 . S
C197 C196 1.524 . S
C197 C198 1.397 . S
C197 C202 1.363 . S
C198 H175 0.950 . S
C198 C197 1.397 . S
C198 C199 1.334 . S
C199 H176 0.950 . S
C199 C198 1.334 . S
C199 C200 1.287 . S
C200 C199 1.287 . S
C200 C201 1.524 . S
C200 H219 0.913 . S
C201 H177 0.950 . S
C201 C200 1.524 . S
C201 C202 1.415 . S
C202 H178 0.950 . S
C202 C197 1.363 . S
C202 C201 1.415 . S
C203 H179 0.951 . S
C203 C204 1.366 . S
C203 C205 1.388 . S
C204 C203 1.366 . S
C204 C208 1.385 . S
C205 H180 0.951 . S
C205 C203 1.388 . S
C205 C206 1.366 . S
C206 C205 1.366 . S
C206 C207 1.414 . S
C206 C209 1.499 . S
C207 H181 0.950 . S
C207 C206 1.414 . S
C207 C208 1.374 . S
C208 H182 0.950 . S
C208 C204 1.385 . S
C208 C207 1.374 . S
C209 C206 1.499 . S
C209 C210 1.373 . S
C209 C211 1.389 . S
C210 H183 0.950 . S
C210 C196 1.377 . S
C210 C209 1.373 . S
C211 C195 1.377 . S
C211 C209 1.389 . S
C211 C212 1.524 . S
C212 C211 1.524 . S
C212 C213 1.397 1_554 S
C212 C217 1.363 1_554 S
C213 H184 0.950 1_556 S
C213 C212 1.397 1_556 S
C213 C214 1.334 . S
C214 H185 0.950 . S
C214 C213 1.334 . S
C214 C215 1.287 . S
C215 C214 1.287 . S
C215 C216 1.524 . S
C215 H218 0.999 . S
C216 H186 0.950 . S
C216 C215 1.524 . S
C216 C217 1.415 . S
C217 H187 0.950 . S
C217 C212 1.363 1_556 S
C217 C216 1.415 . S
H218 C215 0.999 . S
H219 C200 0.913 . S
H220 C238 0.951 . S
H221 C240 0.951 . S
H222 C242 0.950 . S
H223 C243 0.950 . S
H224 C245 0.929 1_554 S
H225 C248 0.950 . S
H226 C249 0.950 . S
H227 C251 0.950 . S
H228 C252 0.950 . S
H229 C253 0.951 . S
H230 C255 0.951 . S
H231 C257 0.950 . S
H232 C258 0.950 . S
H233 C260 0.950 . S
H234 C263 0.950 . S
H235 C264 0.950 . S
H236 C266 0.950 . S
H237 C267 0.950 1_556 S
C238 H220 0.951 . S
C238 C239 1.366 . S
C238 C240 1.388 . S
C239 C238 1.366 . S
C239 C243 1.385 . S
C240 H221 0.951 . S
C240 C238 1.388 . S
C240 C241 1.366 . S
C241 C240 1.366 . S
C241 C242 1.414 . S
C241 C244 1.499 . S
C242 H222 0.950 . S
C242 C241 1.414 . S
C242 C243 1.374 . S
C243 H223 0.950 . S
C243 C239 1.385 . S
C243 C242 1.374 . S
C244 C241 1.499 . S
C244 C245 1.373 . S
C244 C246 1.389 . S
C245 H224 0.929 1_556 S
C245 C244 1.373 . S
C245 C261 1.377 . S
C246 C244 1.389 . S
C246 C247 1.524 . S
C246 C260 1.377 . S
C247 C246 1.524 . S
C247 C248 1.397 . S
C247 C252 1.363 . S
C248 H225 0.950 . S
C248 C247 1.397 . S
C248 C249 1.334 . S
C249 H226 0.950 . S
C249 C248 1.334 . S
C249 C250 1.287 . S
C250 C249 1.287 . S
C250 C251 1.524 . S
C250 H269 0.913 . S
C251 H227 0.950 . S
C251 C250 1.524 . S
C251 C252 1.415 . S
C252 H228 0.950 . S
C252 C247 1.363 . S
C252 C251 1.415 . S
C253 H229 0.951 . S
C253 C254 1.366 . S
C253 C255 1.388 . S
C254 C253 1.366 . S
C254 C258 1.385 . S
C255 H230 0.951 . S
C255 C253 1.388 . S
C255 C256 1.366 . S
C256 C255 1.366 . S
C256 C257 1.414 . S
C256 C259 1.499 . S
C257 H231 0.950 . S
C257 C256 1.414 . S
C257 C258 1.374 . S
C258 H232 0.950 . S
C258 C254 1.385 . S
C258 C257 1.374 . S
C259 C256 1.499 . S
C259 C260 1.373 . S
C259 C261 1.389 . S
C260 H233 0.950 . S
C260 C246 1.377 . S
C260 C259 1.373 . S
C261 C245 1.377 . S
C261 C259 1.389 . S
C261 C262 1.524 1_556 S
C262 C261 1.524 1_554 S
C262 C263 1.397 . S
C262 C267 1.363 . S
C263 H234 0.950 . S
C263 C262 1.397 . S
C263 C264 1.334 . S
C264 H235 0.950 . S
C264 C263 1.334 . S
C264 C265 1.287 . S
C265 C264 1.287 . S
C265 C266 1.524 . S
C265 H268 0.999 . S
C266 H236 0.950 . S
C266 C265 1.524 . S
C266 C267 1.415 . S
C267 H237 0.950 1_554 S
C267 C262 1.363 . S
C267 C266 1.415 . S
H268 C265 0.999 . S
H269 C250 0.913 . S
H270 C288 0.951 . S
H271 C290 0.951 . S
H272 C292 0.950 . S
H273 C293 0.950 . S
H274 C295 0.950 . S
H275 C298 0.950 . S
H276 C299 0.950 . S
H277 C301 0.950 . S
H278 C302 0.950 1_554 S
H279 C303 0.951 . S
H280 C305 0.951 . S
H281 C307 0.950 . S
H282 C308 0.950 . S
H283 C310 0.950 . S
H284 C313 0.950 . S
H285 C314 0.950 . S
H286 C316 0.950 . S
H287 C317 0.950 . S
C288 H270 0.951 . S
C288 C289 1.366 . S
C288 C290 1.388 . S
C289 C288 1.366 . S
C289 C293 1.385 . S
C290 H271 0.951 . S
C290 C288 1.388 . S
C290 C291 1.366 . S
C291 C290 1.366 . S
C291 C292 1.414 . S
C291 C294 1.499 . S
C292 H272 0.950 . S
C292 C291 1.414 . S
C292 C293 1.374 . S
C293 H273 0.950 . S
C293 C289 1.385 . S
C293 C292 1.374 . S
C294 C291 1.499 . S
C294 C295 1.373 . S
C294 C296 1.389 . S
C295 H274 0.950 . S
C295 C294 1.373 . S
C295 C311 1.377 . S
C296 C294 1.389 . S
C296 C297 1.524 . S
C296 C310 1.377 . S
C297 C296 1.524 . S
C297 C298 1.397 1_554 S
C297 C302 1.363 1_554 S
C298 H275 0.950 . S
C298 C297 1.397 1_556 S
C298 C299 1.334 . S
C299 H276 0.950 . S
C299 C298 1.334 . S
C299 C300 1.287 . S
C300 C299 1.287 . S
C300 C301 1.524 . S
C300 H319 0.913 . S
C301 H277 0.950 . S
C301 C300 1.524 . S
C301 C302 1.415 . S
C302 H278 0.950 1_556 S
C302 C297 1.363 1_556 S
C302 C301 1.415 . S
C303 H279 0.951 . S
C303 C304 1.366 . S
C303 C305 1.388 . S
C304 C303 1.366 . S
C304 C308 1.385 . S
C305 H280 0.951 . S
C305 C303 1.388 . S
C305 C306 1.366 . S
C306 C305 1.366 . S
C306 C307 1.414 . S
C306 C309 1.499 . S
C307 H281 0.950 . S
C307 C306 1.414 . S
C307 C308 1.374 . S
C308 H282 0.950 . S
C308 C304 1.385 . S
C308 C307 1.374 . S
C309 C306 1.499 . S
C309 C310 1.373 . S
C309 C311 1.389 . S
C310 H283 0.950 . S
C310 C296 1.377 . S
C310 C309 1.373 . S
C311 C295 1.377 . S
C311 C309 1.389 . S
C311 C312 1.524 . S
C312 C311 1.524 . S
C312 C313 1.397 . S
C312 C317 1.363 . S
C313 H284 0.950 . S
C313 C312 1.397 . S
C313 C314 1.334 . S
C314 H285 0.950 . S
C314 C313 1.334 . S
C314 C315 1.287 . S
C315 C314 1.287 . S
C315 C316 1.524 . S
C315 H318 0.999 . S
C316 H286 0.950 . S
C316 C315 1.524 . S
C316 C317 1.415 . S
C317 H287 0.950 . S
C317 C312 1.363 . S
C317 C316 1.415 . S
H318 C315 0.999 . S
H319 C300 0.913 . S
H320 C338 0.951 . S
H321 C340 0.950 1_554 S
H322 C342 0.950 . S
H323 C343 0.950 . S
H324 C345 0.950 . S
H325 C348 0.950 . S
H326 C349 0.950 . S
H327 C351 0.950 . S
H328 C352 0.950 . S
H329 C353 0.951 . S
H330 C355 0.951 . S
H331 C357 0.950 . S
H332 C358 0.950 . S
H333 C360 0.934 1_554 S
H334 C363 0.950 . S
H335 C364 0.950 . S
H336 C366 0.950 . S
H337 C367 0.950 . S
C338 H320 0.951 . S
C338 C339 1.366 1_554 S
C338 C340 1.388 1_554 S
C339 C338 1.366 1_556 S
C339 C343 1.385 . S
C340 H321 0.950 1_556 S
C340 C338 1.388 1_556 S
C340 C341 1.366 . S
C341 C340 1.366 . S
C341 C342 1.414 . S
C341 C344 1.499 . S
C342 H322 0.950 . S
C342 C341 1.414 . S
C342 C343 1.374 . S
C343 H323 0.950 . S
C343 C339 1.385 . S
C343 C342 1.374 . S
C344 C341 1.499 . S
C344 C345 1.373 . S
C344 C346 1.389 . S
C345 H324 0.950 . S
C345 C344 1.373 . S
C345 C361 1.377 . S
C346 C344 1.389 . S
C346 C347 1.524 1_556 S
C346 C360 1.377 . S
C347 C346 1.524 1_554 S
C347 C348 1.397 . S
C347 C352 1.363 . S
C348 H325 0.950 . S
C348 C347 1.397 . S
C348 C349 1.334 . S
C349 H326 0.950 . S
C349 C348 1.334 . S
C349 C350 1.287 . S
C350 C349 1.287 . S
C350 C351 1.524 . S
C350 H369 0.913 . S
C351 H327 0.950 . S
C351 C350 1.524 . S
C351 C352 1.415 . S
C352 H328 0.950 . S
C352 C347 1.363 . S
C352 C351 1.415 . S
C353 H329 0.951 . S
C353 C354 1.366 . S
C353 C355 1.388 . S
C354 C353 1.366 . S
C354 C358 1.385 . S
C355 H330 0.951 . S
C355 C353 1.388 . S
C355 C356 1.366 . S
C356 C355 1.366 . S
C356 C357 1.414 . S
C356 C359 1.499 . S
C357 H331 0.950 . S
C357 C356 1.414 . S
C357 C358 1.374 . S
C358 H332 0.950 . S
C358 C354 1.385 . S
C358 C357 1.374 . S
C359 C356 1.499 . S
C359 C360 1.373 . S
C359 C361 1.389 . S
C360 H333 0.934 1_556 S
C360 C346 1.377 . S
C360 C359 1.373 . S
C361 C345 1.377 . S
C361 C359 1.389 . S
C361 C362 1.524 . S
C362 C361 1.524 . S
C362 C363 1.397 . S
C362 C367 1.363 . S
C363 H334 0.950 . S
C363 C362 1.397 . S
C363 C364 1.334 . S
C364 H335 0.950 . S
C364 C363 1.334 . S
C364 C365 1.287 . S
C365 C364 1.287 . S
C365 C366 1.524 . S
C365 H368 0.999 . S
C366 H336 0.950 . S
C366 C365 1.524 . S
C366 C367 1.415 . S
C367 H337 0.950 . S
C367 C362 1.363 . S
C367 C366 1.415 . S
H368 C365 0.999 . S
H369 C350 0.913 . S
H370 C388 0.951 . S
H371 C390 0.951 . S
H372 C392 0.950 . S
H373 C393 0.950 . S
H374 C395 0.950 . S
H375 C398 0.950 . S
H376 C399 0.950 . S
H377 C401 0.950 . S
H378 C402 0.950 . S
H379 C403 0.951 . S
H380 C405 0.951 . S
H381 C407 0.950 . S
H382 C408 0.950 . S
H383 C410 0.950 . S
H384 C413 0.950 . S
H385 C414 0.950 . S
H386 C416 0.950 . S
H387 C417 0.950 . S
C388 H370 0.951 . S
C388 C389 1.366 . S
C388 C390 1.388 . S
C389 C388 1.366 . S
C389 C393 1.385 . S
C390 H371 0.951 . S
C390 C388 1.388 . S
C390 C391 1.366 . S
C391 C390 1.366 . S
C391 C392 1.414 . S
C391 C394 1.499 . S
C392 H372 0.950 . S
C392 C391 1.414 . S
C392 C393 1.374 . S
C393 H373 0.950 . S
C393 C389 1.385 . S
C393 C392 1.374 . S
C394 C391 1.499 . S
C394 C395 1.373 . S
C394 C396 1.389 . S
C395 H374 0.950 . S
C395 C394 1.373 . S
C395 C411 1.377 . S
C396 C394 1.389 . S
C396 C397 1.524 . S
C396 C410 1.377 . S
C397 C396 1.524 . S
C397 C398 1.397 . S
C397 C402 1.363 . S
C398 H375 0.950 . S
C398 C397 1.397 . S
C398 C399 1.334 . S
C399 H376 0.950 . S
C399 C398 1.334 . S
C399 C400 1.287 . S
C400 C399 1.287 . S
C400 C401 1.524 . S
C400 H419 0.913 . S
C401 H377 0.950 . S
C401 C400 1.524 . S
C401 C402 1.415 . S
C402 H378 0.950 . S
C402 C397 1.363 . S
C402 C401 1.415 . S
C403 H379 0.951 . S
C403 C404 1.366 . S
C403 C405 1.388 . S
C404 C403 1.366 . S
C404 C408 1.385 . S
C405 H380 0.951 . S
C405 C403 1.388 . S
C405 C406 1.366 . S
C406 C405 1.366 . S
C406 C407 1.414 . S
C406 C409 1.499 . S
C407 H381 0.950 . S
C407 C406 1.414 . S
C407 C408 1.374 . S
C408 H382 0.950 . S
C408 C404 1.385 . S
C408 C407 1.374 . S
C409 C406 1.499 . S
C409 C410 1.373 . S
C409 C411 1.389 . S
C410 H383 0.950 . S
C410 C396 1.377 . S
C410 C409 1.373 . S
C411 C395 1.377 . S
C411 C409 1.389 . S
C411 C412 1.524 . S
C412 C411 1.524 . S
C412 C413 1.397 . S
C412 C417 1.363 . S
C413 H384 0.950 . S
C413 C412 1.397 . S
C413 C414 1.334 . S
C414 H385 0.950 . S
C414 C413 1.334 . S
C414 C415 1.287 . S
C415 C414 1.287 . S
C415 C416 1.524 . S
C415 H418 0.999 . S
C416 H386 0.950 . S
C416 C415 1.524 . S
C416 C417 1.415 . S
C417 H387 0.950 . S
C417 C412 1.363 . S
C417 C416 1.415 . S
H418 C415 0.999 . S
H419 C400 0.913 . S
H420 C438 0.951 . S
H421 C440 0.951 . S
H422 C442 0.950 . S
H423 C443 0.950 . S
H424 C445 0.950 . S
H425 C448 0.950 . S
H426 C449 0.950 . S
H427 C451 0.950 . S
H428 C452 0.950 . S
H429 C453 0.951 . S
H430 C455 0.951 . S
H431 C457 0.950 . S
H432 C458 0.950 . S
H433 C460 0.950 . S
H434 C463 0.950 . S
H435 C464 0.950 . S
H436 C466 0.950 . S
H437 C467 0.950 . S
C438 H420 0.951 . S
C438 C439 1.366 . S
C438 C440 1.388 . S
C439 C438 1.366 . S
C439 C443 1.385 . S
C440 H421 0.951 . S
C440 C438 1.388 . S
C440 C441 1.366 . S
C441 C440 1.366 . S
C441 C442 1.414 . S
C441 C444 1.499 . S
C442 H422 0.950 . S
C442 C441 1.414 . S
C442 C443 1.374 . S
C443 H423 0.950 . S
C443 C439 1.385 . S
C443 C442 1.374 . S
C444 C441 1.499 . S
C444 C445 1.373 . S
C444 C446 1.389 . S
C445 H424 0.950 . S
C445 C444 1.373 . S
C445 C461 1.377 . S
C446 C444 1.389 . S
C446 C447 1.524 . S
C446 C460 1.377 . S
C447 C446 1.524 . S
C447 C448 1.397 . S
C447 C452 1.363 . S
C448 H425 0.950 . S
C448 C447 1.397 . S
C448 C449 1.334 . S
C449 H426 0.950 . S
C449 C448 1.334 . S
C449 C450 1.287 . S
C450 C449 1.287 . S
C450 C451 1.524 . S
C450 H469 0.913 . S
C451 H427 0.950 . S
C451 C450 1.524 . S
C451 C452 1.415 . S
C452 H428 0.950 . S
C452 C447 1.363 . S
C452 C451 1.415 . S
C453 H429 0.951 . S
C453 C454 1.366 . S
C453 C455 1.388 . S
C454 C453 1.366 . S
C454 C458 1.385 . S
C455 H430 0.951 . S
C455 C453 1.388 . S
C455 C456 1.366 . S
C456 C455 1.366 . S
C456 C457 1.414 . S
C456 C459 1.499 . S
C457 H431 0.950 . S
C457 C456 1.414 . S
C457 C458 1.374 . S
C458 H432 0.950 . S
C458 C454 1.385 . S
C458 C457 1.374 . S
C459 C456 1.499 . S
C459 C460 1.373 . S
C459 C461 1.389 . S
C460 H433 0.950 . S
C460 C446 1.377 . S
C460 C459 1.373 . S
C461 C445 1.377 . S
C461 C459 1.389 . S
C461 C462 1.524 . S
C462 C461 1.524 . S
C462 C463 1.397 . S
C462 C467 1.363 . S
C463 H434 0.950 . S
C463 C462 1.397 . S
C463 C464 1.334 . S
C464 H435 0.950 . S
C464 C463 1.334 . S
C464 C465 1.287 . S
C465 C464 1.287 . S
C465 C466 1.524 . S
C465 H468 0.999 . S
C466 H436 0.950 . S
C466 C465 1.524 . S
C466 C467 1.415 . S
C467 H437 0.950 . S
C467 C462 1.363 . S
C467 C466 1.415 . S
H468 C465 0.999 . S
H469 C450 0.913 . S
H470 C488 0.951 . S
H471 C490 0.951 . S
H472 C492 0.950 . S
H473 C493 0.950 . S
H474 C495 0.950 . S
H475 C498 0.950 . S
H476 C499 0.950 . S
H477 C501 0.950 . S
H478 C502 0.950 . S
H479 C503 0.951 . S
H480 C505 0.951 . S
H481 C507 0.950 . S
H482 C508 0.950 . S
H483 C510 0.950 . S
H484 C513 0.950 . S
H485 C514 0.950 . S
H486 C516 0.950 . S
H487 C517 0.950 . S
C488 H470 0.951 . S
C488 C489 1.366 . S
C488 C490 1.388 . S
C489 C488 1.366 . S
C489 C493 1.385 . S
C490 H471 0.951 . S
C490 C488 1.388 . S
C490 C491 1.366 . S
C491 C490 1.366 . S
C491 C492 1.414 . S
C491 C494 1.499 . S
C492 H472 0.950 . S
C492 C491 1.414 . S
C492 C493 1.374 . S
C493 H473 0.950 . S
C493 C489 1.385 . S
C493 C492 1.374 . S
C494 C491 1.499 . S
C494 C495 1.373 . S
C494 C496 1.389 . S
C495 H474 0.950 . S
C495 C494 1.373 . S
C495 C511 1.377 . S
C496 C494 1.389 . S
C496 C497 1.524 . S
C496 C510 1.377 . S
C497 C496 1.524 . S
C497 C498 1.397 . S
C497 C502 1.363 . S
C498 H475 0.950 . S
C498 C497 1.397 . S
C498 C499 1.334 . S
C499 H476 0.950 . S
C499 C498 1.334 . S
C499 C500 1.287 . S
C500 C499 1.287 . S
C500 C501 1.524 . S
C500 H519 0.913 . S
C501 H477 0.950 . S
C501 C500 1.524 . S
C501 C502 1.415 . S
C502 H478 0.950 . S
C502 C497 1.363 . S
C502 C501 1.415 . S
C503 H479 0.951 . S
C503 C504 1.366 . S
C503 C505 1.388 . S
C504 C503 1.366 . S
C504 C508 1.385 . S
C505 H480 0.951 . S
C505 C503 1.388 . S
C505 C506 1.366 . S
C506 C505 1.366 . S
C506 C507 1.414 . S
C506 C509 1.499 . S
C507 H481 0.950 . S
C507 C506 1.414 . S
C507 C508 1.374 . S
C508 H482 0.950 . S
C508 C504 1.385 . S
C508 C507 1.374 . S
C509 C506 1.499 . S
C509 C510 1.373 . S
C509 C511 1.389 . S
C510 H483 0.950 . S
C510 C496 1.377 . S
C510 C509 1.373 . S
C511 C495 1.377 . S
C511 C509 1.389 . S
C511 C512 1.524 . S
C512 C511 1.524 . S
C512 C513 1.397 . S
C512 C517 1.363 . S
C513 H484 0.950 . S
C513 C512 1.397 . S
C513 C514 1.334 . S
C514 H485 0.950 . S
C514 C513 1.334 . S
C514 C515 1.287 . S
C515 C514 1.287 . S
C515 C516 1.524 . S
C515 H518 0.999 . S
C516 H486 0.950 . S
C516 C515 1.524 . S
C516 C517 1.415 . S
C517 H487 0.950 . S
C517 C512 1.363 . S
C517 C516 1.415 . S
H518 C515 0.999 . S
H519 C500 0.913 . S
H520 C538 0.951 . S
H521 C540 0.951 . S
H522 C542 0.950 . S
H523 C543 0.950 . S
H524 C545 0.950 . S
H525 C548 0.950 . S
H526 C549 0.950 . S
H527 C551 0.950 . S
H528 C552 0.950 . S
H529 C553 0.951 . S
H530 C555 0.951 . S
H531 C557 0.950 . S
H532 C558 0.950 . S
H533 C560 0.950 . S
H534 C563 0.950 . S
H535 C564 0.950 . S
H536 C566 0.950 . S
H537 C567 0.950 . S
C538 H520 0.951 . S
C538 C539 1.366 . S
C538 C540 1.388 . S
C539 C538 1.366 . S
C539 C543 1.385 . S
C540 H521 0.951 . S
C540 C538 1.388 . S
C540 C541 1.366 . S
C541 C540 1.366 . S
C541 C542 1.414 . S
C541 C544 1.499 . S
C542 H522 0.950 . S
C542 C541 1.414 . S
C542 C543 1.374 . S
C543 H523 0.950 . S
C543 C539 1.385 . S
C543 C542 1.374 . S
C544 C541 1.499 . S
C544 C545 1.373 . S
C544 C546 1.389 . S
C545 H524 0.950 . S
C545 C544 1.373 . S
C545 C561 1.377 . S
C546 C544 1.389 . S
C546 C547 1.524 . S
C546 C560 1.377 . S
C547 C546 1.524 . S
C547 C548 1.397 . S
C547 C552 1.363 . S
C548 H525 0.950 . S
C548 C547 1.397 . S
C548 C549 1.334 . S
C549 H526 0.950 . S
C549 C548 1.334 . S
C549 C550 1.287 . S
C550 C549 1.287 . S
C550 C551 1.524 . S
C550 H569 0.913 . S
C551 H527 0.950 . S
C551 C550 1.524 . S
C551 C552 1.415 . S
C552 H528 0.950 . S
C552 C547 1.363 . S
C552 C551 1.415 . S
C553 H529 0.951 . S
C553 C554 1.366 . S
C553 C555 1.388 . S
C554 C553 1.366 . S
C554 C558 1.385 . S
C555 H530 0.951 . S
C555 C553 1.388 . S
C555 C556 1.366 . S
C556 C555 1.366 . S
C556 C557 1.414 . S
C556 C559 1.499 . S
C557 H531 0.950 . S
C557 C556 1.414 . S
C557 C558 1.374 . S
C558 H532 0.950 . S
C558 C554 1.385 . S
C558 C557 1.374 . S
C559 C556 1.499 . S
C559 C560 1.373 . S
C559 C561 1.389 . S
C560 H533 0.950 . S
C560 C546 1.377 . S
C560 C559 1.373 . S
C561 C545 1.377 . S
C561 C559 1.389 . S
C561 C562 1.524 . S
C562 C561 1.524 . S
C562 C563 1.397 . S
C562 C567 1.363 . S
C563 H534 0.950 . S
C563 C562 1.397 . S
C563 C564 1.334 . S
C564 H535 0.950 . S
C564 C563 1.334 . S
C564 C565 1.287 . S
C565 C564 1.287 . S
C565 C566 1.524 . S
C565 H568 0.999 . S
C566 H536 0.950 . S
C566 C565 1.524 . S
C566 C567 1.415 . S
C567 H537 0.950 . S
C567 C562 1.363 . S
C567 C566 1.415 . S
H568 C565 0.999 . S
H569 C550 0.913 . S
H570 C588 0.951 . S
H571 C590 0.951 . S
H572 C592 0.950 . S
H573 C593 0.950 . S
H574 C595 0.950 . S
H575 C598 0.950 . S
H576 C599 0.950 . S
H577 C601 0.950 . S
H578 C602 0.950 . S
H579 C603 0.951 . S
H580 C605 0.951 . S
H581 C607 0.950 . S
H582 C608 0.950 . S
H583 C610 0.950 . S
H584 C613 0.934 1_545 S
H585 C614 0.950 . S
H586 C616 0.950 . S
H587 C617 0.950 . S
C588 H570 0.951 . S
C588 C589 1.366 1_545 S
C588 C590 1.388 . S
C589 C588 1.366 1_565 S
C589 C593 1.385 . S
C590 H571 0.951 . S
C590 C588 1.388 . S
C590 C591 1.366 . S
C591 C590 1.366 . S
C591 C592 1.414 1_545 S
C591 C594 1.499 . S
C592 H572 0.950 . S
C592 C591 1.414 1_565 S
C592 C593 1.374 . S
C593 H573 0.950 . S
C593 C589 1.385 . S
C593 C592 1.374 . S
C594 C591 1.499 . S
C594 C595 1.373 1_545 S
C594 C596 1.389 . S
C595 H574 0.950 . S
C595 C594 1.373 1_565 S
C595 C611 1.377 . S
C596 C594 1.389 . S
C596 C597 1.524 . S
C596 C610 1.377 . S
C597 C596 1.524 . S
C597 C598 1.397 . S
C597 C602 1.363 . S
C598 H575 0.950 . S
C598 C597 1.397 . S
C598 C599 1.334 . S
C599 H576 0.950 . S
C599 C598 1.334 . S
C599 C600 1.287 . S
C600 C599 1.287 . S
C600 C601 1.524 . S
C600 H619 0.913 . S
C601 H577 0.950 . S
C601 C600 1.524 . S
C601 C602 1.415 . S
C602 H578 0.950 . S
C602 C597 1.363 . S
C602 C601 1.415 . S
C603 H579 0.951 . S
C603 C604 1.366 1_565 S
C603 C605 1.388 . S
C604 C603 1.366 1_545 S
C604 C608 1.385 . S
C605 H580 0.951 . S
C605 C603 1.388 . S
C605 C606 1.366 1_565 S
C606 C605 1.366 1_545 S
C606 C607 1.414 . S
C606 C609 1.499 . S
C607 H581 0.950 . S
C607 C606 1.414 . S
C607 C608 1.374 . S
C608 H582 0.950 . S
C608 C604 1.385 . S
C608 C607 1.374 . S
C609 C606 1.499 . S
C609 C610 1.373 . S
C609 C611 1.389 1_545 S
C610 H583 0.950 . S
C610 C596 1.377 . S
C610 C609 1.373 . S
C611 C595 1.377 . S
C611 C609 1.389 1_565 S
C611 C612 1.522 1_455 S
C612 C611 1.522 1_655 S
C612 C613 1.400 . S
C612 C617 1.362 1_655 S
C613 H584 0.934 1_565 S
C613 C612 1.400 . S
C613 C614 1.334 . S
C614 H585 0.950 . S
C614 C613 1.334 . S
C614 C615 1.287 . S
C615 C614 1.287 . S
C615 C616 1.524 . S
C615 H618 0.999 . S
C616 H586 0.950 . S
C616 C615 1.524 . S
C616 C617 1.415 1_655 S
C617 H587 0.950 . S
C617 C612 1.362 1_455 S
C617 C616 1.415 1_455 S
H618 C615 0.999 . S
H619 C600 0.913 . S
H620 C638 0.949 1_545 S
H621 C640 0.951 . S
H622 C642 0.950 . S
H623 C643 0.950 . S
H624 C645 0.950 . S
H625 C648 0.950 . S
H626 C649 0.950 . S
H627 C651 0.950 . S
H628 C652 0.950 . S
H629 C653 0.951 . S
H630 C655 0.951 . S
H631 C657 0.950 . S
H632 C658 0.950 . S
H633 C660 0.950 . S
H634 C663 0.950 . S
H635 C664 0.950 . S
H636 C666 0.950 . S
H637 C667 0.950 . S
C638 H620 0.949 1_565 S
C638 C639 1.370 1_655 S
C638 C640 1.386 1_565 S
C639 C638 1.370 1_455 S
C639 C643 1.385 . S
C640 H621 0.951 . S
C640 C638 1.386 1_545 S
C640 C641 1.366 1_645 S
C641 C640 1.366 1_465 S
C641 C642 1.414 . S
C641 C644 1.500 . S
C642 H622 0.950 . S
C642 C641 1.414 . S
C642 C643 1.374 . S
C643 H623 0.950 . S
C643 C639 1.385 . S
C643 C642 1.374 . S
C644 C641 1.500 . S
C644 C645 1.369 1_565 S
C644 C646 1.393 1_455 S
C645 H624 0.950 . S
C645 C644 1.369 1_545 S
C645 C661 1.377 . S
C646 C644 1.393 1_655 S
C646 C647 1.524 . S
C646 C660 1.377 . S
C647 C646 1.524 . S
C647 C648 1.397 . S
C647 C652 1.363 . S
C648 H625 0.950 . S
C648 C647 1.397 . S
C648 C649 1.334 . S
C649 H626 0.950 . S
C649 C648 1.334 . S
C649 C650 1.287 . S
C650 C649 1.287 . S
C650 C651 1.524 . S
C650 H669 0.913 . S
C651 H627 0.950 . S
C651 C650 1.524 . S
C651 C652 1.415 . S
C652 H628 0.950 . S
C652 C647 1.363 . S
C652 C651 1.415 . S
C653 H629 0.951 . S
C653 C654 1.366 . S
C653 C655 1.388 . S
C654 C653 1.366 . S
C654 C658 1.385 1_455 S
C655 H630 0.951 . S
C655 C653 1.388 . S
C655 C656 1.366 . S
C656 C655 1.366 . S
C656 C657 1.414 1_455 S
C656 C659 1.499 . S
C657 H631 0.950 . S
C657 C656 1.414 1_655 S
C657 C658 1.374 . S
C658 H632 0.950 . S
C658 C654 1.385 1_655 S
C658 C657 1.374 . S
C659 C656 1.499 . S
C659 C660 1.373 1_445 S
C659 C661 1.389 . S
C660 H633 0.950 . S
C660 C646 1.377 . S
C660 C659 1.373 1_665 S
C661 C645 1.377 . S
C661 C659 1.389 . S
C661 C662 1.524 . S
C662 C661 1.524 . S
C662 C663 1.397 . S
C662 C667 1.363 . S
C663 H634 0.950 . S
C663 C662 1.397 . S
C663 C664 1.334 . S
C664 H635 0.950 . S
C664 C663 1.334 . S
C664 C665 1.287 . S
C665 C664 1.287 . S
C665 C666 1.524 . S
C665 H668 0.999 . S
C666 H636 0.950 . S
C666 C665 1.524 . S
C666 C667 1.415 . S
C667 H637 0.950 . S
C667 C662 1.363 . S
C667 C666 1.415 . S
H668 C665 0.999 . S
H669 C650 0.913 . S
H670 C688 0.951 . S
H671 C690 0.951 . S
H672 C692 0.950 . S
H673 C693 0.950 . S
H674 C695 0.950 . S
H675 C698 0.950 . S
H676 C699 0.950 . S
H677 C701 0.950 . S
H678 C702 0.950 . S
H679 C703 0.951 . S
H680 C705 0.951 . S
H681 C707 0.950 . S
H682 C708 0.950 . S
H683 C710 0.950 . S
H684 C713 0.950 . S
H685 C714 0.950 . S
H686 C716 0.950 . S
H687 C717 0.950 . S
C688 H670 0.951 . S
C688 C689 1.366 . S
C688 C690 1.388 . S
C689 C688 1.366 . S
C689 C693 1.385 . S
C690 H671 0.951 . S
C690 C688 1.388 . S
C690 C691 1.366 . S
C691 C690 1.366 . S
C691 C692 1.414 . S
C691 C694 1.499 . S
C692 H672 0.950 . S
C692 C691 1.414 . S
C692 C693 1.374 . S
C693 H673 0.950 . S
C693 C689 1.385 . S
C693 C692 1.374 . S
C694 C691 1.499 . S
C694 C695 1.373 . S
C694 C696 1.389 . S
C695 H674 0.950 . S
C695 C694 1.373 . S
C695 C711 1.377 . S
C696 C694 1.389 . S
C696 C697 1.524 . S
C696 C710 1.377 . S
C697 C696 1.524 . S
C697 C698 1.397 . S
C697 C702 1.363 . S
C698 H675 0.950 . S
C698 C697 1.397 . S
C698 C699 1.334 . S
C699 H676 0.950 . S
C699 C698 1.334 . S
C699 C700 1.287 . S
C700 C699 1.287 . S
C700 C701 1.524 . S
C700 H719 0.913 . S
C701 H677 0.950 . S
C701 C700 1.524 . S
C701 C702 1.415 . S
C702 H678 0.950 . S
C702 C697 1.363 . S
C702 C701 1.415 . S
C703 H679 0.951 . S
C703 C704 1.366 . S
C703 C705 1.388 . S
C704 C703 1.366 . S
C704 C708 1.385 . S
C705 H680 0.951 . S
C705 C703 1.388 . S
C705 C706 1.366 . S
C706 C705 1.366 . S
C706 C707 1.414 . S
C706 C709 1.499 . S
C707 H681 0.950 . S
C707 C706 1.414 . S
C707 C708 1.374 . S
C708 H682 0.950 . S
C708 C704 1.385 . S
C708 C707 1.374 . S
C709 C706 1.499 . S
C709 C710 1.373 . S
C709 C711 1.389 . S
C710 H683 0.950 . S
C710 C696 1.377 . S
C710 C709 1.373 . S
C711 C695 1.377 . S
C711 C709 1.389 . S
C711 C712 1.524 . S
C712 C711 1.524 . S
C712 C713 1.397 . S
C712 C717 1.363 . S
C713 H684 0.950 . S
C713 C712 1.397 . S
C713 C714 1.334 . S
C714 H685 0.950 . S
C714 C713 1.334 . S
C714 C715 1.287 . S
C715 C714 1.287 . S
C715 C716 1.524 . S
C715 H718 0.999 . S
C716 H686 0.950 . S
C716 C715 1.524 . S
C716 C717 1.415 . S
C717 H687 0.950 . S
C717 C712 1.363 . S
C717 C716 1.415 . S
H718 C715 0.999 . S
H719 C700 0.913 . S
H720 C738 0.951 . S
H721 C740 0.951 . S
H722 C742 0.950 . S
H723 C743 0.950 . S
H724 C745 0.950 . S
H725 C748 0.950 . S
H726 C749 0.950 . S
H727 C751 0.950 . S
H728 C752 0.950 . S
H729 C753 0.951 . S
H730 C755 0.951 . S
H731 C757 0.950 . S
H732 C758 0.950 . S
H733 C760 0.950 . S
H734 C763 0.950 . S
H735 C764 0.950 . S
H736 C766 0.950 . S
H737 C767 0.950 . S
C738 H720 0.951 . S
C738 C739 1.366 . S
C738 C740 1.388 . S
C739 C738 1.366 . S
C739 C743 1.385 . S
C740 H721 0.951 . S
C740 C738 1.388 . S
C740 C741 1.366 . S
C741 C740 1.366 . S
C741 C742 1.414 . S
C741 C744 1.499 . S
C742 H722 0.950 . S
C742 C741 1.414 . S
C742 C743 1.374 . S
C743 H723 0.950 . S
C743 C739 1.385 . S
C743 C742 1.374 . S
C744 C741 1.499 . S
C744 C745 1.373 . S
C744 C746 1.389 . S
C745 H724 0.950 . S
C745 C744 1.373 . S
C745 C761 1.377 . S
C746 C744 1.389 . S
C746 C747 1.524 . S
C746 C760 1.377 . S
C747 C746 1.524 . S
C747 C748 1.397 . S
C747 C752 1.363 . S
C748 H725 0.950 . S
C748 C747 1.397 . S
C748 C749 1.334 . S
C749 H726 0.950 . S
C749 C748 1.334 . S
C749 C750 1.287 . S
C750 C749 1.287 . S
C750 C751 1.524 . S
C750 H769 0.913 . S
C751 H727 0.950 . S
C751 C750 1.524 . S
C751 C752 1.415 . S
C752 H728 0.950 . S
C752 C747 1.363 . S
C752 C751 1.415 . S
C753 H729 0.951 . S
C753 C754 1.366 . S
C753 C755 1.388 . S
C754 C753 1.366 . S
C754 C758 1.385 . S
C755 H730 0.951 . S
C755 C753 1.388 . S
C755 C756 1.366 . S
C756 C755 1.366 . S
C756 C757 1.414 . S
C756 C759 1.499 . S
C757 H731 0.950 . S
C757 C756 1.414 . S
C757 C758 1.374 . S
C758 H732 0.950 . S
C758 C754 1.385 . S
C758 C757 1.374 . S
C759 C756 1.499 . S
C759 C760 1.373 . S
C759 C761 1.389 . S
C760 H733 0.950 . S
C760 C746 1.377 . S
C760 C759 1.373 . S
C761 C745 1.377 . S
C761 C759 1.389 . S
C761 C762 1.524 . S
C762 C761 1.524 . S
C762 C763 1.397 . S
C762 C767 1.363 . S
C763 H734 0.950 . S
C763 C762 1.397 . S
C763 C764 1.334 . S
C764 H735 0.950 . S
C764 C763 1.334 . S
C764 C765 1.287 . S
C765 C764 1.287 . S
C765 C766 1.524 . S
C765 H768 0.999 . S
C766 H736 0.950 . S
C766 C765 1.524 . S
C766 C767 1.415 . S
C767 H737 0.950 . S
C767 C762 1.363 . S
C767 C766 1.415 . S
H768 C765 0.999 . S
H769 C750 0.913 . S
C204 C155 1.132 . S
C189 C3 1.040 . S
C239 C4 1.494 1_556 S
C254 C123 1.588 . S
C289 C19 1.520 . S
C304 C161 1.583 . S
C339 C7 1.038 . S
C354 C129 1.143 . S
C389 C37 1.038 . S
C404 C91 1.133 . S
C439 C28 1.495 . S
C454 C59 1.588 . S
C504 C97 1.583 . S
C489 C41 1.519 . S
C554 C65 1.142 . S
C539 C25 1.037 . S
C589 C20 1.280 . S
C604 C71 1.415 . S
C639 C16 1.332 . S
C654 C103 1.438 . S
C704 C135 1.415 . S
C689 C40 1.280 . S
C739 C24 1.331 . S
C754 C167 1.438 . S
