# Generated by pormake.
# Topology zzz, (3,6)-cn, num edge types: 1
# Building blocks:
#     Node 0, Type 0, BuildingBlock: ESEHIV_clean_linker_0, # of connection points: 3
#     Node 1, Type 0, BuildingBlock: ESEHIV_clean_linker_0, # of connection points: 3
#     Node 2, Type 0, BuildingBlock: ESEHIV_clean_linker_0, # of connection points: 3
#     Node 3, Type 0, BuildingBlock: ESEHIV_clean_linker_0, # of connection points: 3
#     Node 4, Type 0, BuildingBlock: ESEHIV_clean_linker_0, # of connection points: 3
#     Node 5, Type 0, BuildingBlock: ESEHIV_clean_linker_0, # of connection points: 3
#     Node 6, Type 0, BuildingBlock: ESEHIV_clean_linker_0, # of connection points: 3
#     Node 7, Type 0, BuildingBlock: ESEHIV_clean_linker_0, # of connection points: 3
#     Node 8, Type 1, BuildingBlock: KUMBUR_clean_sbu_1, # of connection points: 6
#     Node 9, Type 1, BuildingBlock: KUMBUR_clean_sbu_1, # of connection points: 6
#     Node 10, Type 1, BuildingBlock: KUMBUR_clean_sbu_1, # of connection points: 6
#     Node 11, Type 1, BuildingBlock: KUMBUR_clean_sbu_1, # of connection points: 6
#     Edge 12, Type (0, 1), BuildingBlock: EZIPEK_clean_linker_0, # of connection points: 2
#     Edge 13, Type (0, 1), BuildingBlock: EZIPEK_clean_linker_0, # of connection points: 2
#     Edge 14, Type (0, 1), BuildingBlock: EZIPEK_clean_linker_0, # of connection points: 2
#     Edge 15, Type (0, 1), BuildingBlock: EZIPEK_clean_linker_0, # of connection points: 2
#     Edge 16, Type (0, 1), BuildingBlock: EZIPEK_clean_linker_0, # of connection points: 2
#     Edge 17, Type (0, 1), BuildingBlock: EZIPEK_clean_linker_0, # of connection points: 2
#     Edge 18, Type (0, 1), BuildingBlock: EZIPEK_clean_linker_0, # of connection points: 2
#     Edge 19, Type (0, 1), BuildingBlock: EZIPEK_clean_linker_0, # of connection points: 2
#     Edge 20, Type (0, 1), BuildingBlock: EZIPEK_clean_linker_0, # of connection points: 2
#     Edge 21, Type (0, 1), BuildingBlock: EZIPEK_clean_linker_0, # of connection points: 2
#     Edge 22, Type (0, 1), BuildingBlock: EZIPEK_clean_linker_0, # of connection points: 2
#     Edge 23, Type (0, 1), BuildingBlock: EZIPEK_clean_linker_0, # of connection points: 2
#     Edge 24, Type (0, 1), BuildingBlock: EZIPEK_clean_linker_0, # of connection points: 2
#     Edge 25, Type (0, 1), BuildingBlock: EZIPEK_clean_linker_0, # of connection points: 2
#     Edge 26, Type (0, 1), BuildingBlock: EZIPEK_clean_linker_0, # of connection points: 2
#     Edge 27, Type (0, 1), BuildingBlock: EZIPEK_clean_linker_0, # of connection points: 2
#     Edge 28, Type (0, 1), BuildingBlock: EZIPEK_clean_linker_0, # of connection points: 2
#     Edge 29, Type (0, 1), BuildingBlock: EZIPEK_clean_linker_0, # of connection points: 2
#     Edge 30, Type (0, 1), BuildingBlock: EZIPEK_clean_linker_0, # of connection points: 2
#     Edge 31, Type (0, 1), BuildingBlock: EZIPEK_clean_linker_0, # of connection points: 2
#     Edge 32, Type (0, 1), BuildingBlock: EZIPEK_clean_linker_0, # of connection points: 2
#     Edge 33, Type (0, 1), BuildingBlock: EZIPEK_clean_linker_0, # of connection points: 2
#     Edge 34, Type (0, 1), BuildingBlock: EZIPEK_clean_linker_0, # of connection points: 2
#     Edge 35, Type (0, 1), BuildingBlock: EZIPEK_clean_linker_0, # of connection points: 2
# Relax obj value: 0.449
# Max RMSD: 0.196
# Mean RMSD: 0.188
data_MOF--net-zzz--node1-KUMBUR_clean_sbu_1--node2-ESEHIV_clean_linker_0--edge1-EZIPEK_clean_linker_0
_symmetry_space_group_name_H-M    P1
_symmetry_Int_Tables_number       1
_symmetry_cell_setting            triclinic
loop_
_symmetry_equiv_pos_as_xyz
'x, y, z'
_cell_length_a     31.207511
_cell_length_b     31.304331
_cell_length_c     11.746983
_cell_angle_alpha  89.669556
_cell_angle_beta   89.840668
_cell_angle_gamma 90.454112
loop_
_atom_site_label
_atom_site_type_symbol
_atom_site_fract_x
_atom_site_fract_y
_atom_site_fract_z
_atom_type_partial_charge
H0 H 0.83126 0.55674 0.28983 0.0
H1 H 0.72622 0.55475 0.05534 0.0
H2 H 0.70389 0.52722 0.41057 0.0
C3 C 0.79748 0.55253 0.27346 0.0
C4 C 0.7717 0.53989 0.36544 0.0
C5 C 0.78232 0.55386 0.16035 0.0
C6 C 0.73816 0.55264 0.14154 0.0
C7 C 0.70835 0.54472 0.22804 0.0
C8 C 0.72556 0.53623 0.34234 0.0
H9 H 0.01193 0.82455 0.26152 0.0
H10 H 1.00142 0.71628 0.05122 0.0
H11 H 0.97533 0.70284 0.41229 0.0
C12 C 1.00258 0.7911 0.25623 0.0
C13 C 0.99072 0.76909 0.35495 0.0
C14 C 0.01075 0.77012 0.15477 0.0
C15 C 0.99625 0.72933 0.13486 0.0
C16 C 0.98334 0.70276 0.22345 0.0
C17 C 0.98185 0.72266 0.33869 0.0
H18 H 0.70871 0.05064 0.29414 0.0
H19 H 0.82134 0.06467 0.09222 0.0
H20 H 0.80676 0.95416 0.3157 0.0
C21 C 0.73947 0.03785 0.26874 0.0
C22 C 0.75301 0.99962 0.31686 0.0
C23 C 0.76429 0.06095 0.19107 0.0
C24 C 0.80357 0.04565 0.15401 0.0
C25 C 0.82073 1.00724 0.19595 0.0
C26 C 0.79472 0.98357 0.27964 0.0
H27 H 0.5215 0.7004 0.29261 0.0
H28 H 0.56605 0.82443 0.40179 0.0
H29 H 0.54786 0.79542 0.04377 0.0
C30 C 0.53459 0.73193 0.27417 0.0
C31 C 0.53016 0.74825 0.16452 0.0
C32 C 0.54706 0.75757 0.36462 0.0
C33 C 0.55936 0.80184 0.33471 0.0
C34 C 0.56125 0.81611 0.21445 0.0
C35 C 0.55013 0.78596 0.13275 0.0
H36 H 0.19419 0.44207 0.13429 0.0
H37 H 0.28948 0.41524 0.26185 0.0
H38 H 0.3103 0.51807 0.07818 0.0
C39 C 0.22541 0.45411 0.1572 0.0
C40 C 0.24862 0.48083 0.08222 0.0
C41 C 0.23648 0.45454 0.27123 0.0
C42 C 0.28007 0.44754 0.2829 0.0
C43 C 0.30781 0.47862 0.23828 0.0
C44 C 0.29115 0.49565 0.12736 0.0
H45 H 0.00955 0.21878 0.11621 0.0
H46 H 0.01083 0.33293 0.30768 0.0
H47 H 1.00032 0.33926 0.93938 0.0
C48 C 0.01182 0.25344 0.11365 0.0
C49 C 0.00906 0.27443 1.00938 0.0
C50 C 1.00794 0.2752 0.21576 0.0
C51 C 0.01283 0.31907 0.2234 0.0
C52 C 0.0092 0.34526 0.12794 0.0
C53 C 1.00597 0.32185 1.01689 0.0
H54 H 0.34264 0.0527 0.19204 0.0
H55 H 0.23358 0.07993 0.39211 0.0
H56 H 0.21806 0.04449 0.03712 0.0
C57 C 0.30825 0.05676 0.19659 0.0
C58 C 0.28504 0.05067 0.09624 0.0
C59 C 0.28798 0.0582 0.30399 0.0
C60 C 0.24605 0.07172 0.309 0.0
C61 C 0.21787 0.06292 0.21997 0.0
C62 C 0.23803 0.05205 0.10949 0.0
H63 H 0.55102 0.32114 0.07287 0.0
H64 H 0.46434 0.21313 0.0309 0.0
H65 H 0.52092 0.23911 0.34826 0.0
C66 C 0.535 0.29198 0.10096 0.0
C67 C 0.54065 0.27873 0.21249 0.0
C68 C 0.50553 0.27174 0.03085 0.0
C69 C 0.48949 0.22926 0.07527 0.0
C70 C 0.50334 0.21105 0.18699 0.0
C71 C 0.51956 0.24331 0.25688 0.0
Tb72 Tb 0.96184 0.02141 0.6111 0.0
C73 C 0.12477 0.08091 0.86057 0.0
N74 N 0.11421 0.0617 0.76067 0.0
C75 C 0.1721 0.09951 0.66733 0.0
C76 C 0.15662 0.11327 0.86416 0.0
C77 C 0.14025 0.06795 0.66815 0.0
C78 C 0.17959 0.12313 0.76518 0.0
C79 C 0.11021 0.09135 0.06094 0.0
C80 C 0.10327 0.06848 0.95977 0.0
C81 C 0.14046 0.12486 0.06265 0.0
C82 C 0.1645 0.13488 0.96587 0.0
Tb83 Tb 0.06505 1.00713 0.77954 0.0
N84 N 0.07201 0.03774 0.95409 0.0
C85 C 0.08117 0.08508 0.15044 0.0
C86 C 0.04879 0.02688 0.04896 0.0
C87 C 0.05154 0.05177 0.14649 0.0
H88 H 0.14004 0.04585 0.59949 0.0
H89 H 0.02966 0.04652 0.21646 0.0
H90 H 0.88604 0.98922 0.79742 0.0
H91 H 0.01241 0.95236 0.20705 0.0
H92 H 0.02699 1.0002 0.04988 0.0
H93 H 0.0794 0.10775 0.21893 0.0
H94 H 0.01715 1.00184 0.3642 0.0
H95 H 0.19201 0.10432 0.59265 0.0
H96 H 0.1434 0.14526 0.13575 0.0
H97 H 0.18783 0.16067 0.96934 0.0
H98 H 0.82745 0.93673 0.80376 0.0
H99 H 0.20445 0.14751 0.7649 0.0
H100 H 0.95307 0.90009 0.19782 0.0
N101 N 0.90932 0.97007 0.63503 0.0
C102 C 0.90156 0.94543 0.54183 0.0
C103 C 0.84837 0.93841 0.73018 0.0
C104 C 0.86732 0.91569 0.54074 0.0
C105 C 0.8827 0.96731 0.72784 0.0
C106 C 0.84058 0.91253 0.63623 0.0
N107 N 0.96372 0.97632 0.45591 0.0
C108 C 0.99224 0.97853 0.36746 0.0
C109 C 0.92511 0.92008 0.35743 0.0
C110 C 0.9301 0.94802 0.45061 0.0
C111 C 0.95543 0.92142 0.26992 0.0
C112 C 0.98906 0.95075 0.2751 0.0
H113 H 0.81396 0.8901 0.63847 0.0
H114 H 0.83529 0.86636 0.4435 0.0
H115 H 0.88611 0.86984 0.28365 0.0
O116 O 0.93171 0.05054 0.47109 0.0
O117 O 0.97426 0.95255 0.65539 0.0
O118 O 0.04577 0.94509 0.68739 0.0
O119 O 0.89934 0.04331 0.63029 0.0
O120 O 0.02252 0.04795 0.52207 0.0
O121 O 0.07102 1.00256 0.59505 0.0
O122 O 0.10142 0.97554 0.90233 0.0
O123 O 0.04063 0.07706 0.78942 0.0
O124 O 0.97601 0.08512 0.69702 0.0
O125 O 0.1265 0.98503 0.73494 0.0
O126 O 1.00536 0.98146 0.86808 0.0
O127 O 0.95575 0.02812 0.79793 0.0
C128 C 0.00874 0.92851 0.64879 0.0
C129 C 0.88224 0.10302 0.52907 0.0
C130 C 0.90035 0.17718 0.50563 0.0
C131 C 0.86357 0.18903 0.56639 0.0
C132 C 0.84478 0.11431 0.5883 0.0
C133 C 0.83539 0.15738 0.60621 0.0
C134 C 0.90875 0.13459 0.48463 0.0
C135 C 0.06213 0.03151 0.51902 0.0
C136 C 0.89719 0.05917 0.52925 0.0
C137 C 0.8615 0.88924 0.44598 0.0
C138 C 0.89048 0.89121 0.35502 0.0
C139 C 1.00657 0.10168 0.76381 0.0
C140 C 0.15561 0.92961 0.84246 0.0
C141 C 0.1445 0.86331 0.93927 0.0
C142 C 0.18931 0.85722 0.94475 0.0
C143 C 0.19992 0.92707 0.85971 0.0
C144 C 0.13014 0.89409 0.86211 0.0
C145 C 0.21705 0.88916 0.90305 0.0
C146 C 0.96762 1.00107 0.87797 0.0
C147 C 0.13442 0.97068 0.83572 0.0
H148 H 0.85616 0.22241 0.5791 0.0
H149 H 0.82375 0.08992 0.62374 0.0
H150 H 0.80667 0.16616 0.652 0.0
H151 H 0.93707 0.12633 0.43584 0.0
H152 H 0.20328 0.8291 0.98249 0.0
H153 H 0.22068 0.9543 0.84292 0.0
H154 H 0.09688 0.89553 0.83648 0.0
H155 H 0.25137 0.88589 0.91246 0.0
Tb156 Tb 0.53934 0.04394 0.77681 0.0
C157 C 0.50615 0.86126 0.71269 0.0
N158 N 0.52991 0.89279 0.66068 0.0
C159 C 0.58986 0.84468 0.65121 0.0
C160 C 0.52361 0.82043 0.73454 0.0
C161 C 0.57087 0.88387 0.62616 0.0
C162 C 0.56632 0.81298 0.70662 0.0
C163 C 0.43706 0.83568 0.78208 0.0
C164 C 0.46338 0.86911 0.73952 0.0
C165 C 0.45424 0.79494 0.79981 0.0
C166 C 0.49758 0.78761 0.77894 0.0
Tb167 Tb 0.49163 0.95426 0.61893 0.0
N168 N 0.44714 0.90881 0.71954 0.0
C169 C 0.39374 0.84365 0.80202 0.0
C170 C 0.40483 0.91653 0.74199 0.0
C171 C 0.37779 0.88441 0.78405 0.0
H172 H 0.58954 0.90543 0.57624 0.0
H173 H 0.34417 0.89081 0.7985 0.0
H174 H 0.44563 0.09273 0.83207 0.0
H175 H 0.67263 0.11135 0.52579 0.0
H176 H 0.39017 0.94646 0.72121 0.0
H177 H 0.37207 0.81841 0.82906 0.0
H178 H 0.61731 0.05765 0.55707 0.0
H179 H 0.6225 0.83858 0.6248 0.0
H180 H 0.43416 0.76868 0.82857 0.0
H181 H 0.51035 0.75596 0.79384 0.0
H182 H 0.42269 0.16626 0.85819 0.0
H183 H 0.58097 0.78237 0.72391 0.0
H184 H 0.66758 0.18149 0.62064 0.0
N185 N 0.5094 0.10934 0.78337 0.0
C186 C 0.53843 0.14141 0.77292 0.0
C187 C 0.4556 0.1594 0.83582 0.0
C188 C 0.52907 0.18263 0.80817 0.0
C189 C 0.46849 0.1176 0.81769 0.0
C190 C 0.48622 0.19191 0.8326 0.0
N191 N 0.58289 0.09298 0.68186 0.0
C192 C 0.61514 0.08618 0.60487 0.0
C193 C 0.60743 0.16566 0.70343 0.0
C194 C 0.57677 0.13303 0.72022 0.0
C195 C 0.64319 0.15728 0.63587 0.0
C196 C 0.64618 0.11774 0.58279 0.0
H197 H 0.47566 0.22379 0.84907 0.0
H198 H 0.55994 0.24101 0.86419 0.0
H199 H 0.62609 0.22947 0.75506 0.0
O200 O 0.58832 0.06958 0.88021 0.0
O201 O 0.50477 0.06838 0.62361 0.0
O202 O 0.50387 0.01226 0.50058 0.0
O203 O 0.52522 0.05282 0.95047 0.0
O204 O 0.59068 1.00571 0.69214 0.0
O205 O 0.55616 0.97172 0.54758 0.0
O206 O 0.44286 0.95346 0.49895 0.0
O207 O 0.50339 0.94433 0.80782 0.0
O208 O 0.56474 0.98119 0.82987 0.0
O209 O 0.48821 0.90249 0.50269 0.0
O210 O 0.44093 0.99878 0.6863 0.0
O211 O 0.47475 0.02188 0.84517 0.0
C212 C 0.50152 0.0546 0.51755 0.0
C213 C 0.57678 0.08365 0.07965 0.0
C214 C 0.63161 0.12607 0.17232 0.0
C215 C 0.62894 0.09793 0.2671 0.0
C216 C 0.57552 0.05517 0.17157 0.0
C217 C 0.60019 0.06344 0.26757 0.0
C218 C 0.60094 0.12127 0.08613 0.0
C219 C 0.59262 0.98439 0.59476 0.0
C220 C 0.56302 0.06906 0.96824 0.0
C221 C 0.56287 0.21243 0.81481 0.0
C222 C 0.60141 0.20494 0.75724 0.0
C223 C 0.53985 0.94966 0.86358 0.0
C224 C 0.41561 0.8846 0.45344 0.0
C225 C 0.34358 0.89941 0.40179 0.0
C226 C 0.34443 0.86818 0.31685 0.0
C227 C 0.41682 0.85105 0.37432 0.0
C228 C 0.3754 0.89976 0.48405 0.0
C229 C 0.38017 0.84142 0.30979 0.0
C230 C 0.4382 0.01367 0.79171 0.0
C231 C 0.452 0.91538 0.4625 0.0
H232 H 0.65155 0.09985 0.33619 0.0
H233 H 0.55772 0.02539 0.16608 0.0
H234 H 0.59996 0.04091 0.33781 0.0
H235 H 0.60036 0.14306 1.01464 0.0
H236 H 0.31988 0.86695 0.25198 0.0
H237 H 0.4464 0.83532 0.35413 0.0
H238 H 0.37329 0.92501 0.54565 0.0
H239 H 0.38148 0.81702 0.24523 0.0
Tb240 Tb 0.56061 0.5133 0.64643 0.0
C241 C 0.39577 0.47158 0.9004 0.0
N242 N 0.40732 0.49071 0.80051 0.0
C243 C 0.34746 0.45677 0.70838 0.0
C244 C 0.36289 0.44035 0.90406 0.0
C245 C 0.3805 0.48714 0.70938 0.0
C246 C 0.3395 0.43218 0.80526 0.0
C247 C 0.40915 0.46072 0.10103 0.0
C248 C 0.41733 0.48311 0.99934 0.0
C249 C 0.3782 0.4279 0.103 0.0
C250 C 0.35432 0.41852 1.00588 0.0
Tb251 Tb 0.45978 0.54188 0.81661 0.0
N252 N 0.44948 0.51297 0.99288 0.0
C253 C 0.43692 0.46744 0.19234 0.0
C254 C 0.47304 0.52301 0.08697 0.0
C255 C 0.46823 0.49914 0.18628 0.0
H256 H 0.38228 0.50947 0.64024 0.0
H257 H 0.49 0.50348 0.25585 0.0
H258 H 0.63917 0.52961 0.84258 0.0
H259 H 0.53075 0.59031 0.24243 0.0
H260 H 0.49663 0.54817 0.08598 0.0
H261 H 0.43746 0.44529 0.26265 0.0
H262 H 0.51928 0.53695 0.39458 0.0
H263 H 0.3275 0.45324 0.63385 0.0
H264 H 0.37322 0.40858 0.17822 0.0
H265 H 0.33002 0.39364 1.0099 0.0
H266 H 0.69834 0.57903 0.87067 0.0
H267 H 0.31401 0.40848 0.80442 0.0
H268 H 0.59081 0.64192 0.25679 0.0
N269 N 0.61799 0.55794 0.68676 0.0
C270 C 0.63054 0.58396 0.59886 0.0
C271 C 0.6795 0.58117 0.79398 0.0
C272 C 0.66711 0.61065 0.60745 0.0
C273 C 0.64384 0.55457 0.78052 0.0
C274 C 0.69125 0.60942 0.70728 0.0
N275 N 0.57098 0.55859 0.49481 0.0
C276 C 0.54563 0.55879 0.40043 0.0
C277 C 0.61497 0.6147 0.41351 0.0
C278 C 0.60612 0.58465 0.5003 0.0
C279 C 0.58644 0.6178 0.32224 0.0
C280 C 0.55223 0.58905 0.3143 0.0
H281 H 0.7192 0.62978 0.71772 0.0
H282 H 0.70542 0.65961 0.52349 0.0
H283 H 0.65852 0.66475 0.35655 0.0
O284 O 0.5848 0.47826 0.50557 0.0
O285 O 0.53681 0.58046 0.62338 0.0
O286 O 0.49469 0.60322 0.77167 0.0
O287 O 0.61956 0.48318 0.66532 0.0
O288 O 0.49915 0.49209 0.56023 0.0
O289 O 0.45463 0.54347 0.62797 0.0
O290 O 0.4193 0.57247 0.93146 0.0
O291 O 0.47967 0.47234 0.84181 0.0
O292 O 0.53396 0.45208 0.72112 0.0
O293 O 0.40512 0.57372 0.75308 0.0
O294 O 0.52161 0.5616 0.90336 0.0
O295 O 0.56587 0.50962 0.83541 0.0
C296 C 0.51876 0.61189 0.68025 0.0
C297 C 0.65672 0.44693 0.51639 0.0
C298 C 0.66613 0.37809 0.43374 0.0
C299 C 0.70181 0.37061 0.50336 0.0
C300 C 0.6936 0.44106 0.58327 0.0
C301 C 0.71718 0.40339 0.57305 0.0
C302 C 0.64837 0.41885 0.42839 0.0
C303 C 0.46226 0.51333 0.55325 0.0
C304 C 0.62027 0.47102 0.56064 0.0
C305 C 0.67767 0.6387 0.51782 0.0
C306 C 0.65112 0.64142 0.42229 0.0
C307 C 0.50623 0.44235 0.80396 0.0
C308 C 0.36633 0.62028 0.87299 0.0
C309 C 0.37636 0.68407 0.97939 0.0
C310 C 0.33468 0.681 1.02341 0.0
C311 C 0.32423 0.61645 0.91468 0.0
C312 C 0.38914 0.65765 0.89042 0.0
C313 C 0.30773 0.64813 0.98592 0.0
C314 C 0.557 0.5381 0.9144 0.0
C315 C 0.39086 0.58164 0.85451 0.0
H316 H 0.71569 0.33907 0.50932 0.0
H317 H 0.70169 0.46339 0.65007 0.0
H318 H 0.74439 0.39784 0.62799 0.0
H319 H 0.62005 0.4237 0.37643 0.0
H320 H 0.32449 0.70131 0.09258 0.0
H321 H 0.30587 0.58743 0.90096 0.0
H322 H 0.42189 0.65972 0.85891 0.0
H323 H 0.276 0.64463 1.02214 0.0
Tb324 Tb 0.02082 0.55683 0.63695 0.0
C325 C 0.06883 0.39009 0.90375 0.0
N326 N 0.04722 0.4013 0.80626 0.0
C327 C 0.08697 0.348 0.70495 0.0
C328 C 0.10483 0.36236 0.90174 0.0
C329 C 0.05461 0.37851 0.70953 0.0
C330 C 0.1126 0.34068 0.79983 0.0
C331 C 0.10308 0.40925 0.11742 0.0
C332 C 0.05761 0.40869 1.00334 0.0
C333 C 0.13463 0.37996 0.09705 0.0
C334 C 0.13384 0.35639 0.99499 0.0
Tb335 Tb 0.99354 0.45308 0.81223 0.0
N336 N 0.01558 0.4462 1.00657 0.0
C337 C 0.10245 0.45436 0.23785 0.0
C338 C 1.00744 0.48611 0.11298 0.0
C339 C 0.05147 0.4949 0.2365 0.0
H340 H 0.03502 0.38259 0.63558 0.0
H341 H 0.04843 0.52015 0.29825 0.0
H342 H 0.05571 0.63151 0.81697 0.0
H343 H 0.92685 0.58643 0.26789 0.0
H344 H 0.98036 0.50717 0.10881 0.0
H345 H 0.12732 0.4566 0.30158 0.0
H346 H 0.98189 0.55128 0.38003 0.0
H347 H 0.09255 0.33051 0.62714 0.0
H348 H 0.16019 0.37552 0.15786 0.0
H349 H 0.1597 0.33382 0.98444 0.0
H350 H 0.03207 0.70083 0.88797 0.0
H351 H 0.13872 0.31822 0.79297 0.0
H352 H 0.88255 0.64408 0.34972 0.0
N353 N 0.9998 0.62054 0.71711 0.0
C354 C 0.96471 0.63915 0.67092 0.0
C355 C 0.01141 0.68292 0.8318 0.0
C356 C 0.94943 0.67873 0.71032 0.0
C357 C 0.02484 0.64343 0.79098 0.0
C358 C 0.9725 0.69983 0.79534 0.0
N359 N 0.96906 0.58754 0.52843 0.0
C360 C 0.96293 0.57628 0.41762 0.0
C361 C 0.91683 0.64338 0.50971 0.0
C362 C 0.94899 0.62214 0.57157 0.0
C363 C 0.90677 0.62858 0.40093 0.0
C364 C 0.93097 0.5957 0.35422 0.0
H365 H 0.9625 0.73077 0.82618 0.0
H366 H 0.90185 0.72802 0.68554 0.0
H367 H 0.87302 0.69675 0.50949 0.0
O368 O 0.07157 0.55355 0.52128 0.0
O369 O 0.95579 0.52906 0.59977 0.0
O370 O 0.9347 0.49093 0.75749 0.0
O371 O 0.04592 0.61428 0.56858 0.0
O372 O 0.02359 0.50002 0.51719 0.0
O373 O 0.99304 0.44266 0.61444 0.0
O374 O 0.95988 0.41309 0.92583 0.0
O375 O 0.06493 0.46971 0.81444 0.0
O376 O 0.07726 0.53778 0.74319 0.0
O377 O 0.95868 0.40071 0.74716 0.0
O378 O 0.97248 0.51456 0.89955 0.0
O379 O 0.02323 0.55987 0.82775 0.0
C380 C 0.92484 0.51096 0.66036 0.0
C381 C 0.12055 0.61085 0.5452 0.0
C382 C 0.19636 0.59655 0.53321 0.0
C383 C 0.20586 0.64002 0.54715 0.0
C384 C 0.12962 0.6547 0.55633 0.0
C385 C 0.17229 0.66899 0.56152 0.0
C386 C 0.15424 0.58205 0.54466 0.0
C387 C 1.00803 0.46012 0.51568 0.0
C388 C 0.07721 0.59485 0.51964 0.0
C389 C 0.91452 0.69799 0.65544 0.0
C390 C 0.8982 0.68029 0.55496 0.0
C391 C 0.09103 0.50341 0.79868 0.0
C392 C 0.89536 0.38874 0.84858 0.0
C393 C 0.83013 0.42666 0.89256 0.0
C394 C 0.80609 0.38902 0.87985 0.0
C395 C 0.87171 0.35095 0.83337 0.0
C396 C 0.87402 0.42623 0.87274 0.0
C397 C 0.82695 0.35131 0.84778 0.0
C398 C 0.99293 0.55228 0.9044 0.0
C399 C 0.94225 0.39065 0.8453 0.0
H400 H 0.23836 0.65177 0.53635 0.0
H401 H 0.10399 0.67785 0.55729 0.0
H402 H 0.17925 0.70281 0.56788 0.0
H403 H 0.14767 0.54822 0.53331 0.0
H404 H 0.77215 0.38844 0.89928 0.0
H405 H 0.88769 0.32143 0.81273 0.0
H406 H 0.89236 0.45476 0.89117 0.0
H407 H 0.80869 0.322 0.83861 0.0
C408 C 0.14998 0.01819 0.27296 0.0
C409 C 0.1703 0.05887 0.2643 0.0
C410 C 0.11329 0.08383 0.40436 0.0
C411 C 0.09706 0.04151 0.42347 0.0
N412 N 0.12477 0.96914 0.4143 0.0
N413 N 0.16842 0.13175 0.33723 0.0
C414 C 0.12143 1.00863 0.36688 0.0
C415 C 0.15128 0.09166 0.33487 0.0
N416 N 0.16016 0.98681 0.19794 0.0
N417 N 0.09423 0.11738 0.45761 0.0
H418 H 0.19467 0.14152 0.28806 0.0
H419 H 0.19467 0.14152 0.28806 0.0
H420 H 0.0677 0.11379 0.511 0.0
H421 H 0.1048 0.14887 0.44683 0.0
H422 H 0.14387 0.95755 0.19702 0.0
H423 H 0.18103 0.99168 0.12991 0.0
H424 H 0.14278 0.94484 0.37771 0.0
H425 H 0.12031 0.9643 0.50081 0.0
C426 C 0.48104 0.12435 0.22367 0.0
C427 C 0.50296 0.16436 0.24971 0.0
C428 C 0.51233 0.13267 0.44107 0.0
C429 C 0.49882 0.09024 0.418 0.0
N430 N 0.47641 0.04648 0.25876 0.0
N431 N 0.56688 0.17786 0.3642 0.0
C432 C 0.48504 0.08607 0.30003 0.0
C433 C 0.52771 0.15924 0.35176 0.0
N434 N 0.45691 0.12179 0.12796 0.0
N435 N 0.5026 0.15171 0.54069 0.0
H436 H 0.58241 0.19311 0.29636 0.0
H437 H 0.5843 0.17432 0.43945 0.0
H438 H 0.47905 0.13878 0.59377 0.0
H439 H 0.51145 0.18346 0.55597 0.0
H440 H 0.43759 0.09544 0.10929 0.0
H441 H 0.45452 0.14719 0.0715 0.0
H442 H 0.47007 0.04094 0.17304 0.0
H443 H 0.47925 0.01912 0.30878 0.0
C444 C 0.3691 0.53028 0.32485 0.0
C445 C 0.3497 0.48859 0.31416 0.0
C446 C 0.40652 0.46327 0.45633 0.0
C447 C 0.42697 0.50394 0.46082 0.0
N448 N 0.42887 0.57586 0.38866 0.0
N449 N 0.35212 0.41581 0.3883 0.0
C450 C 0.40823 0.53725 0.39224 0.0
C451 C 0.36895 0.45586 0.38648 0.0
N452 N 0.34829 0.56433 0.27834 0.0
N453 N 0.42153 0.43105 0.52439 0.0
H454 H 0.37172 0.389 0.38341 0.0
H455 H 0.32323 0.41043 0.43116 0.0
H456 H 0.4485 0.43397 0.57574 0.0
H457 H 0.40604 0.40171 0.53519 0.0
H458 H 0.35734 0.59602 0.29033 0.0
H459 H 0.31883 0.56141 0.23781 0.0
H460 H 0.42075 0.60075 0.33414 0.0
H461 H 0.45675 0.58197 0.43462 0.0
C462 C 0.96253 0.40069 0.23284 0.0
C463 C 1.00095 0.39387 0.16415 0.0
C464 C 0.03748 0.42081 0.322 0.0
C465 C 1.00312 0.43656 0.39193 0.0
N466 N 0.92685 0.43926 0.389 0.0
N467 N 0.07216 0.46844 0.07884 0.0
C468 C 0.96347 0.42634 0.3379 0.0
C469 C 0.03689 0.42541 0.18849 0.0
N470 N 0.92608 0.37995 0.20147 0.0
N471 N 0.06672 0.39524 0.37387 0.0
H472 H 0.096 0.49278 0.07101 0.0
H473 H 0.096 0.49278 0.07101 0.0
H474 H 0.08865 0.37737 0.32725 0.0
H475 H 0.06691 0.39098 0.46191 0.0
H476 H 0.89939 0.37682 0.25439 0.0
H477 H 0.92381 0.36532 0.12207 0.0
H478 H 0.89633 0.43114 0.36134 0.0
H479 H 0.92808 0.45996 0.45784 0.0
C480 C 0.8978 0.03053 0.14476 0.0
C481 C 0.86621 0.99721 0.1475 0.0
C482 C 0.91252 0.95904 1.00695 0.0
C483 C 0.93794 0.99661 0.98502 0.0
N484 N 0.95184 0.06976 0.03663 0.0
N485 N 0.84437 0.92932 0.08187 0.0
C486 C 0.9299 0.03256 0.05613 0.0
C487 C 0.87459 0.96081 0.07981 0.0
N488 N 0.89661 0.06098 0.22733 0.0
N489 N 0.92443 0.9219 0.9569 0.0
H490 H 0.84501 0.9023 0.03049 0.0
H491 H 0.84501 0.9023 0.03049 0.0
H492 H 0.91049 0.89232 0.97511 0.0
H493 H 0.95147 0.92062 0.90503 0.0
H494 H 0.92051 0.08402 0.23796 0.0
H495 H 0.87368 0.06019 0.2922 0.0
H496 H 0.94412 0.09861 0.07508 0.0
H497 H 0.97622 0.07229 0.97638 0.0
C498 C 0.53127 0.89046 0.159 0.0
C499 C 0.56614 0.86141 0.1586 0.0
C500 C 0.58921 0.89584 0.97352 0.0
C501 C 0.55164 0.92184 0.96975 0.0
N502 N 0.49811 0.95504 0.08543 0.0
N503 N 0.63464 0.84544 0.07867 0.0
C504 C 0.52595 0.92225 0.07034 0.0
C505 C 0.59727 0.86757 0.07003 0.0
N506 N 0.50182 0.88674 0.24334 0.0
N507 N 0.61683 0.89727 0.88325 0.0
H508 H 0.6407 0.82542 0.14816 0.0
H509 H 0.66067 0.84932 1.02404 0.0
H510 H 0.61315 0.91848 0.81541 0.0
H511 H 0.64249 0.87669 0.87269 0.0
H512 H 0.47187 0.90101 0.23925 0.0
H513 H 0.50758 0.86772 0.3144 0.0
H514 H 0.48115 0.96004 0.16052 0.0
H515 H 0.49557 0.97995 1.02688 0.0
C516 C 0.6399 0.50483 0.15345 0.0
C517 C 0.66129 0.5438 0.18136 0.0
C518 C 0.61098 0.58073 0.04443 0.0
C519 C 0.58876 0.54178 1.01853 0.0
N520 N 0.57956 0.46745 0.06666 0.0
N521 N 0.66645 0.61843 0.15612 0.0
C522 C 0.60254 0.50429 0.07938 0.0
C523 C 0.64568 0.58162 0.12746 0.0
N524 N 0.65762 0.46745 0.18967 0.0
N525 N 0.60104 0.6164 0.98309 0.0
H526 H 0.65822 0.64895 0.12855 0.0
H527 H 0.65822 0.64895 0.12855 0.0
H528 H 0.57499 0.61741 0.92831 0.0
H529 H 0.61903 0.64446 0.98168 0.0
H530 H 0.64801 0.43748 0.16099 0.0
H531 H 0.68412 0.46668 0.24355 0.0
H532 H 0.5836 0.44041 0.11743 0.0
H533 H 0.55401 0.46528 1.01059 0.0
C534 C 0.94492 0.64376 0.10241 0.0
C535 C 0.9792 0.65547 0.17816 0.0
C536 C 0.02131 0.59695 0.08228 0.0
C537 C 0.98681 0.5851 1.00698 0.0
N538 N 0.91251 0.59638 0.96348 0.0
N539 N 0.04702 0.63453 0.25265 0.0
C540 C 0.94778 0.608 1.02413 0.0
C541 C 0.01626 0.62904 0.17162 0.0
N542 N 0.9079 0.66635 0.10378 0.0
N543 N 0.06003 0.57825 0.06656 0.0
H544 H 0.04371 0.6569 0.3176 0.0
H545 H 0.07324 0.61453 0.26268 0.0
H546 H 0.0644 0.55436 1.00682 0.0
H547 H 0.08802 0.58785 0.10728 0.0
H548 H 0.90235 0.69172 0.15912 0.0
H549 H 0.90235 0.69172 0.15912 0.0
H550 H 0.88344 0.61252 0.96915 0.0
H551 H 0.91185 0.56878 0.91446 0.0
C552 C 0.93585 0.2527 0.2776 0.0
C553 C 0.98047 0.25515 0.3009 0.0
C554 C 0.97157 0.21231 0.47135 0.0
C555 C 0.92704 0.20825 0.44484 0.0
N556 N 0.87036 0.21349 0.30504 0.0
N557 N 0.04089 0.24384 0.42322 0.0
C558 C 0.90986 0.226 0.34429 0.0
C559 C 0.99839 0.23725 0.3997 0.0
N560 N 0.91803 0.27601 0.19135 0.0
N561 N 0.9886 0.18901 0.5583 0.0
H562 H 0.06127 0.26118 0.36928 0.0
H563 H 0.05583 0.23447 0.49819 0.0
H564 H 0.97043 0.16713 0.60419 0.0
H565 H 0.02091 0.18818 0.57935 0.0
H566 H 0.8851 0.27999 0.18211 0.0
H567 H 0.93566 0.2943 0.13407 0.0
H568 H 0.85962 0.22011 0.22295 0.0
H569 H 0.84975 0.1927 0.34836 0.0
C570 C 0.34578 0.01667 0.38619 0.0
C571 C 0.30296 0.02801 0.39481 0.0
C572 C 0.28527 0.95254 0.4346 0.0
C573 C 0.32475 0.94186 0.38273 0.0
N574 N 0.38997 0.96637 0.2892 0.0
N575 N 0.2356 0.01021 0.48085 0.0
C576 C 0.35437 0.97484 0.3523 0.0
C577 C 0.27367 0.99663 0.43821 0.0
N578 N 0.37691 0.0471 0.39391 0.0
N579 N 0.25974 0.92082 0.47863 0.0
H580 H 0.21119 0.99051 0.51221 0.0
H581 H 0.21119 0.99051 0.51221 0.0
H582 H 0.26753 0.88859 0.47115 0.0
H583 H 0.23152 0.92577 0.52364 0.0
H584 H 0.40929 0.03933 0.3938 0.0
H585 H 0.3693 0.07886 0.41151 0.0
H586 H 0.40998 0.99058 0.25825 0.0
H587 H 0.39645 0.93602 0.25789 0.0
C588 C 0.56227 0.32282 0.37777 0.0
C589 C 0.5738 0.29896 0.28103 0.0
C590 C 0.64924 0.31783 0.30187 0.0
C591 C 0.63791 0.34289 0.39641 0.0
N592 N 0.58706 0.36212 0.54168 0.0
N593 N 0.62781 0.26185 0.17263 0.0
C594 C 0.5954 0.342 0.44145 0.0
C595 C 0.61726 0.29251 0.2502 0.0
N596 N 0.51994 0.32753 0.40655 0.0
N597 N 0.6896 0.32037 0.25701 0.0
H598 H 0.60521 0.24208 0.13361 0.0
H599 H 0.65925 0.25311 0.15506 0.0
H600 H 0.71412 0.33823 0.29413 0.0
H601 H 0.69803 0.3069 0.17933 0.0
H602 H 0.50875 0.34455 0.47607 0.0
H603 H 0.49487 0.31537 0.35767 0.0
H604 H 0.55666 0.36743 0.57433 0.0
H605 H 0.61169 0.37302 0.59404 0.0
C606 C 0.20402 0.52871 0.29734 0.0
C607 C 0.22057 0.4903 0.34548 0.0
C608 C 0.23664 0.52985 0.52122 0.0
C609 C 0.22365 0.56783 0.46658 0.0
N610 N 0.20787 0.60541 0.2927 0.0
N611 N 0.24133 0.45234 0.51523 0.0
C612 C 0.21334 0.56776 0.34997 0.0
C613 C 0.23376 0.49041 0.46172 0.0
N614 N 0.17508 0.52829 0.21064 0.0
N615 N 0.251 0.53229 0.63059 0.0
H616 H 0.23656 0.42311 0.47456 0.0
H617 H 0.24888 0.44921 0.60098 0.0
H618 H 0.25321 0.56162 0.67231 0.0
H619 H 0.26305 0.50667 0.67682 0.0
H620 H 0.15793 0.55519 0.18564 0.0
H621 H 0.16358 0.50092 0.17287 0.0
H622 H 0.2014 0.60695 0.20578 0.0
H623 H 0.21408 0.63495 0.32975 0.0
C624 C 0.03581 0.82503 1.02443 0.0
C625 C 0.04506 0.78756 0.08412 0.0
C626 C 0.12129 0.80646 0.08595 0.0
C627 C 0.11172 0.84106 1.01311 0.0
N628 N 0.0593 0.89728 1.01941 0.0
N629 N 0.09715 0.73997 0.1696 0.0
C630 C 0.06857 0.85498 1.01079 0.0
C631 C 0.0881 0.77705 0.11306 0.0
N632 N 0.99536 0.83328 0.98745 0.0
N633 N 0.15806 0.80704 0.14847 0.0
H634 H 0.12831 0.72923 0.18208 0.0
H635 H 0.07379 0.71821 0.19598 0.0
H636 H 0.17719 0.83444 0.15335 0.0
H637 H 0.16521 0.7844 0.21076 0.0
H638 H 0.989 0.85963 0.93581 0.0
H639 H 0.97011 0.81153 0.99839 0.0
H640 H 0.02798 0.90855 1.02574 0.0
H641 H 0.08337 0.91946 0.03769 0.0
C642 C 0.74055 0.13365 0.2393 0.0
C643 C 0.74781 0.10269 0.15369 0.0
C644 C 0.69228 0.13558 0.04196 0.0
C645 C 0.67312 0.14865 0.14503 0.0
N646 N 0.68759 0.18077 0.3248 0.0
N647 N 0.73435 0.07892 0.96124 0.0
C648 C 0.70134 0.15655 0.23634 0.0
C649 C 0.72583 0.10588 0.04901 0.0
N650 N 0.76914 0.13765 0.3262 0.0
N651 N 0.67771 0.15041 0.9404 0.0
H652 H 0.7592 0.05689 0.96409 0.0
H653 H 0.7154 0.07767 0.88828 0.0
H654 H 0.65537 0.17501 0.93718 0.0
H655 H 0.69152 0.14195 0.86287 0.0
H656 H 0.7974 0.11996 0.32756 0.0
H657 H 0.76624 0.1598 0.39142 0.0
H658 H 0.7048 0.18544 0.39947 0.0
H659 H 0.65797 0.19596 0.32124 0.0
C660 C 0.48589 0.68983 0.08911 0.0
C661 C 0.49208 0.734 0.10153 0.0
C662 C 0.41674 0.74667 0.05281 0.0
C663 C 0.41138 0.70239 0.04638 0.0
N664 N 0.43443 0.63302 0.10989 0.0
N665 N 0.46484 0.80529 0.10608 0.0
C666 C 0.44402 0.67428 0.08151 0.0
C667 C 0.45744 0.76304 0.08624 0.0
N668 N 0.52003 0.66296 0.08607 0.0
N669 N 0.38224 0.77122 1.02729 0.0
H670 H 0.44244 0.82962 0.09916 0.0
H671 H 0.44244 0.82962 0.09916 0.0
H672 H 0.38167 0.80444 0.02938 0.0
H673 H 0.38167 0.80444 0.02938 0.0
H674 H 0.51678 0.63051 0.06849 0.0
H675 H 0.55152 0.67433 0.09014 0.0
H676 H 0.45692 0.61231 0.14467 0.0
H677 H 0.40291 0.62158 0.11098 0.0
C678 C 0.79581 0.54013 0.9515 0.0
C679 C 0.81197 0.54328 0.06365 0.0
C680 C 0.8361 0.47151 0.05954 0.0
C681 C 0.815 0.46432 0.95495 0.0
N682 N 0.77876 0.49356 0.79132 0.0
N683 N 0.87904 0.52594 0.14634 0.0
C684 C 0.79632 0.49945 0.89626 0.0
C685 C 0.84278 0.51345 0.09296 0.0
N686 N 0.7823 0.57638 0.89895 0.0
N687 N 0.85242 0.43889 0.12208 0.0
H688 H 0.8842 0.55844 0.1574 0.0
H689 H 0.90398 0.50512 0.16564 0.0
H690 H 0.84756 0.40687 0.10095 0.0
H691 H 0.867 0.44478 0.1998 0.0
H692 H 0.77432 0.57801 0.81311 0.0
H693 H 0.78241 0.60548 0.94218 0.0
H694 H 0.76256 0.51726 0.74678 0.0
H695 H 0.77886 0.46384 0.75152 0.0
C696 C 0.04255 0.21512 0.88629 0.0
C697 C 1.00617 0.24107 0.90709 0.0
C698 C 0.96493 0.17719 0.8219 0.0
C699 C 1.00309 0.15065 0.81244 0.0
N700 N 0.05103 0.1469 0.96367 0.0
N701 N 0.92956 0.24158 0.90052 0.0
C702 C 0.03733 0.16961 0.87403 0.0
C703 C 0.96636 0.22053 0.87466 0.0
N704 N 0.08238 0.23101 0.9074 0.0
N705 N 0.92656 0.16036 0.78911 0.0
H706 H 0.93028 0.27255 0.93297 0.0
H707 H 0.89895 0.22849 0.89422 0.0
H708 H 0.92265 0.12867 0.76544 0.0
H709 H 0.89849 0.17786 0.78433 0.0
H710 H 0.10941 0.21164 0.90152 0.0
H711 H 0.08758 0.26325 0.92558 0.0
H712 H 0.06704 0.1621 0.03034 0.0
H713 H 0.0362 0.11782 0.98288 0.0
C714 C 0.33923 0.99773 1.00633 0.0
C715 C 0.3143 0.03574 0.99322 0.0
C716 C 0.36382 0.05326 0.82755 0.0
C717 C 0.39337 0.01966 0.85549 0.0
N718 N 0.40655 0.95985 0.97959 0.0
N719 N 0.30577 0.10083 0.88782 0.0
C720 C 0.37998 0.99201 0.9472 0.0
C721 C 0.32736 0.06349 0.90179 0.0
N722 N 0.32329 0.96626 0.07584 0.0
N723 N 0.37023 0.07553 0.72875 0.0
H724 H 0.27866 0.10803 0.93613 0.0
H725 H 0.31588 0.12519 0.83305 0.0
H726 H 0.39596 0.06944 0.67446 0.0
H727 H 0.34831 0.09733 0.69633 0.0
H728 H 0.3365 0.93592 0.08244 0.0
H729 H 0.29402 0.96928 0.11824 0.0
H730 H 0.40188 0.94118 0.05216 0.0
H731 H 0.43462 0.95298 0.93576 0.0
C732 C 0.46472 0.33729 0.96911 0.0
C733 C 0.49086 0.30338 0.9314 0.0
C734 C 0.53125 0.36116 0.82269 0.0
C735 C 0.50306 0.39458 0.85342 0.0
N736 N 0.47576 0.40746 0.03727 0.0
N737 N 0.52433 0.29204 0.74697 0.0
C738 C 0.4762 0.38157 0.94654 0.0
C739 C 0.51932 0.31702 0.83995 0.0
N740 N 0.43161 0.32772 0.04054 0.0
N741 N 0.57189 0.37023 0.78855 0.0
H742 H 0.50452 0.26602 0.73141 0.0
H743 H 0.54333 0.30151 0.67786 0.0
H744 H 0.58445 0.40119 0.78753 0.0
H745 H 0.59393 0.34573 0.77571 0.0
H746 H 0.41147 0.35114 0.07228 0.0
H747 H 0.42317 0.29614 0.05997 0.0
H748 H 0.46741 0.39572 0.11782 0.0
H749 H 0.49143 0.4368 0.0351 0.0
C750 C 0.20102 0.53327 0.96158 0.0
C751 C 0.22107 0.49269 0.97355 0.0
C752 C 0.16478 0.46518 0.8364 0.0
C753 C 0.13878 0.50244 0.8475 0.0
N754 N 0.13914 0.57629 0.90894 0.0
N755 N 0.2236 0.42074 0.90506 0.0
C756 C 0.15947 0.53793 0.90472 0.0
C757 C 0.20345 0.45926 0.9041 0.0
N758 N 0.22192 0.56784 1.00535 0.0
N759 N 0.15422 0.43643 0.75409 0.0
H760 H 0.25287 0.41639 0.94615 0.0
H761 H 0.21078 0.39312 0.86937 0.0
H762 H 0.12822 0.44086 0.69978 0.0
H763 H 0.17373 0.41113 0.73067 0.0
H764 H 0.21298 0.59931 0.99086 0.0
H765 H 0.25076 0.56496 0.04901 0.0
H766 H 0.14862 0.60153 0.96046 0.0
H767 H 0.11121 0.5829 0.86508 0.0
C768 C 0.96143 0.81654 0.52728 0.0
C769 C 0.99633 0.79866 0.46428 0.0
C770 C 0.03811 0.86422 0.52296 0.0
C771 C 1.00497 0.88146 0.59333 0.0
N772 N 0.93733 0.86294 0.68165 0.0
N773 N 0.07278 0.80203 0.44086 0.0
C774 C 0.96732 0.85415 0.60105 0.0
C775 C 0.03624 0.82106 0.47818 0.0
N776 N 0.92194 0.79837 0.51483 0.0
N777 N 0.06936 0.89096 0.48476 0.0
H778 H 0.07254 0.77115 0.40757 0.0
H779 H 0.10315 0.81521 0.45404 0.0
H780 H 0.06613 0.92354 0.49584 0.0
H781 H 0.09266 0.88198 0.42596 0.0
H782 H 0.89411 0.81135 0.5488 0.0
H783 H 0.91722 0.77116 0.46535 0.0
H784 H 0.91155 0.84271 0.70021 0.0
H785 H 0.94077 0.88841 0.73723 0.0
C786 C 0.71497 1.00109 0.51341 0.0
C787 C 0.72013 0.98142 0.40498 0.0
C788 C 0.64304 0.95826 0.42146 0.0
C789 C 0.63774 0.97758 0.53281 0.0
N790 N 0.67988 0.99867 0.69748 0.0
N791 N 0.6915 0.93025 0.27573 0.0
C792 C 0.6771 0.99327 0.58252 0.0
C793 C 0.68488 0.95647 0.36637 0.0
N794 N 0.74612 0.0284 0.55074 0.0
N795 N 0.60868 0.9422 0.36357 0.0
H796 H 0.72124 0.9285 0.23511 0.0
H797 H 0.66944 0.90712 0.24996 0.0
H798 H 0.57881 0.9356 0.39805 0.0
H799 H 0.60981 0.93587 0.27663 0.0
H800 H 0.74192 0.04819 0.62097 0.0
H801 H 0.77495 0.03302 0.50688 0.0
H802 H 0.70807 1.00818 0.73778 0.0
H803 H 0.657 0.9867 0.75404 0.0
C804 C 0.57258 0.7158 0.5461 0.0
C805 C 0.53878 0.73449 0.48208 0.0
C806 C 0.48945 0.67893 0.56988 0.0
C807 C 0.52377 0.65829 0.62818 0.0
N808 N 0.59507 0.66798 0.69975 0.0
N809 N 0.46266 0.74112 0.46563 0.0
C810 C 0.56441 0.68026 0.62458 0.0
C811 C 0.49649 0.71843 0.50634 0.0
N812 N 0.61304 0.73143 0.52966 0.0
N813 N 0.45007 0.65969 0.56996 0.0
H814 H 0.46724 0.76926 0.41913 0.0
H815 H 0.43086 0.7346 0.48677 0.0
H816 H 0.44336 0.63219 0.61726 0.0
H817 H 0.42489 0.66939 0.51822 0.0
H818 H 0.61916 0.7578 0.47712 0.0
H819 H 0.64027 0.7182 0.56592 0.0
H820 H 0.62338 0.68498 0.71338 0.0
H821 H 0.5903 0.64229 0.75498 0.0
C822 C 0.81781 0.56269 0.54038 0.0
C823 C 0.79831 0.52904 0.47605 0.0
C824 C 0.85342 0.48032 0.56555 0.0
C825 C 0.87713 0.51526 0.6137 0.0
N826 N 0.86905 0.58618 0.68468 0.0
N827 N 0.79859 0.45431 0.43301 0.0
C828 C 0.85538 0.55542 0.6116 0.0
C829 C 0.81601 0.48732 0.49296 0.0
N830 N 0.80144 0.60276 0.52864 0.0
N831 N 0.86596 0.43986 0.59168 0.0
H832 H 0.7708 0.45784 0.3847 0.0
H833 H 0.81232 0.42419 0.42752 0.0
H834 H 0.89366 0.43397 0.63809 0.0
H835 H 0.84783 0.41267 0.57379 0.0
H836 H 0.81622 0.6302 0.55976 0.0
H837 H 0.77329 0.6085 0.48341 0.0
H838 H 0.85217 0.61397 0.70175 0.0
H839 H 0.89605 0.58198 0.73501 0.0
loop_
_geom_bond_atom_site_label_1
_geom_bond_atom_site_label_2
_geom_bond_distance
_geom_bond_site_symmetry_2
_ccdc_geom_bond_type
H0 C3 0.931 . S
H1 C6 0.928 . S
H2 C8 0.930 . S
C3 H0 0.931 . S
C3 C4 1.413 . S
C3 C5 1.360 . S
C4 C3 1.413 . S
C4 C8 1.429 . S
C5 C3 1.360 . S
C5 C6 1.372 . S
C6 H1 0.928 . S
C6 C5 1.372 . S
C6 C7 1.404 . S
C7 C6 1.404 . S
C7 C8 1.391 . S
C8 H2 0.930 . S
C8 C4 1.429 . S
C8 C7 1.391 . S
H9 C12 0.931 . S
H10 C15 0.928 . S
H11 C17 0.930 . S
C12 H9 0.931 . S
C12 C13 1.413 . S
C12 C14 1.360 . S
C13 C12 1.413 . S
C13 C17 1.429 . S
C14 C12 1.360 . S
C14 C15 1.372 . S
C15 H10 0.928 . S
C15 C14 1.372 . S
C15 C16 1.404 . S
C16 C15 1.404 . S
C16 C17 1.391 . S
C17 H11 0.930 . S
C17 C13 1.429 . S
C17 C16 1.391 . S
H18 C21 0.931 . S
H19 C24 0.928 . S
H20 C26 0.930 . S
C21 H18 0.931 . S
C21 C22 1.413 . S
C21 C23 1.360 . S
C22 C21 1.413 . S
C22 C26 1.429 . S
C23 C21 1.360 . S
C23 C24 1.372 . S
C24 H19 0.928 . S
C24 C23 1.372 . S
C24 C25 1.404 . S
C25 C24 1.404 . S
C25 C26 1.391 . S
C26 H20 0.930 . S
C26 C22 1.429 . S
C26 C25 1.391 . S
H27 C30 0.931 . S
H28 C33 0.928 . S
H29 C35 0.930 . S
C30 H27 0.931 . S
C30 C31 1.413 . S
C30 C32 1.360 . S
C31 C30 1.413 . S
C31 C35 1.429 . S
C32 C30 1.360 . S
C32 C33 1.372 . S
C33 H28 0.928 . S
C33 C32 1.372 . S
C33 C34 1.404 . S
C34 C33 1.404 . S
C34 C35 1.391 . S
C35 H29 0.930 . S
C35 C31 1.429 . S
C35 C34 1.391 . S
H36 C39 0.931 . S
H37 C42 0.928 . S
H38 C44 0.930 . S
C39 H36 0.931 . S
C39 C40 1.413 . S
C39 C41 1.360 1_556 S
C40 C39 1.413 . S
C40 C44 1.429 . S
C41 C39 1.360 1_554 S
C41 C42 1.372 . S
C42 H37 0.928 . S
C42 C41 1.372 . S
C42 C43 1.404 . S
C43 C42 1.404 . S
C43 C44 1.391 1_554 S
C44 H38 0.930 . S
C44 C40 1.429 . S
C44 C43 1.391 1_556 S
H45 C48 0.931 . S
H46 C51 0.928 . S
H47 C53 0.930 . S
C48 H45 0.931 . S
C48 C49 1.413 . S
C48 C50 1.360 1_556 S
C49 C48 1.413 . S
C49 C53 1.429 . S
C50 C48 1.360 1_554 S
C50 C51 1.372 . S
C51 H46 0.928 . S
C51 C50 1.372 . S
C51 C52 1.404 . S
C52 C51 1.404 . S
C52 C53 1.391 1_554 S
C53 H47 0.930 . S
C53 C49 1.429 . S
C53 C52 1.391 1_556 S
H54 C57 0.931 . S
H55 C60 0.928 . S
H56 C62 0.930 . S
C57 H54 0.931 . S
C57 C58 1.413 . S
C57 C59 1.360 1_556 S
C58 C57 1.413 . S
C58 C62 1.429 . S
C59 C57 1.360 1_554 S
C59 C60 1.372 . S
C60 H55 0.928 . S
C60 C59 1.372 . S
C60 C61 1.404 . S
C61 C60 1.404 . S
C61 C62 1.391 1_554 S
C62 H56 0.930 . S
C62 C58 1.429 . S
C62 C61 1.391 1_556 S
H63 C66 0.931 . S
H64 C69 0.928 . S
H65 C71 0.930 . S
C66 H63 0.931 . S
C66 C67 1.413 1_556 S
C66 C68 1.360 . S
C67 C66 1.413 1_554 S
C67 C71 1.429 . S
C68 C66 1.360 . S
C68 C69 1.372 . S
C69 H64 0.928 . S
C69 C68 1.372 . S
C69 C70 1.404 1_556 S
C70 C69 1.404 1_554 S
C70 C71 1.391 . S
C71 H65 0.930 . S
C71 C67 1.429 . S
C71 C70 1.391 . S
Tb72 N101 2.617 . S
Tb72 N107 2.572 . S
Tb72 O116 2.465 . S
Tb72 O117 2.387 1_545 S
Tb72 O119 2.428 . S
Tb72 O120 2.308 1_655 S
Tb72 O124 2.349 . S
Tb72 O127 2.393 . S
Tb72 C136 2.802 . S
C73 N74 1.379 . S
C73 C76 1.416 . S
C73 C80 1.424 1_556 S
N74 C73 1.379 . S
N74 C77 1.336 . S
N74 Tb83 2.617 1_545 S
C75 C77 1.393 . S
C75 C78 1.339 . S
C75 H95 0.930 . S
C76 C73 1.416 . S
C76 C78 1.416 . S
C76 C82 1.448 1_556 S
C77 N74 1.336 . S
C77 C75 1.393 . S
C77 H88 0.926 1_545 S
C78 C75 1.339 . S
C78 C76 1.416 . S
C78 H99 0.930 . S
C79 C80 1.413 . S
C79 C81 1.427 . S
C79 C85 1.416 . S
C80 C73 1.424 1_554 S
C80 C79 1.413 . S
C80 N84 1.361 1_554 S
C81 C79 1.427 . S
C81 C82 1.328 . S
C81 H96 0.929 . S
C82 C76 1.448 1_554 S
C82 C81 1.328 . S
C82 H97 0.930 . S
Tb83 N74 2.617 1_565 S
Tb83 N84 2.572 1_565 S
Tb83 O118 2.349 . S
Tb83 O121 2.393 . S
Tb83 O122 2.465 . S
Tb83 O123 2.387 1_565 S
Tb83 O125 2.428 . S
Tb83 O126 2.308 1_455 S
Tb83 C147 2.802 . S
N84 C80 1.361 1_556 S
N84 Tb83 2.572 1_545 S
N84 C86 1.340 1_556 S
C85 C79 1.416 . S
C85 C87 1.332 . S
C85 H93 0.931 . S
C86 N84 1.340 1_554 S
C86 C87 1.407 . S
C86 H92 0.930 . S
C87 C85 1.332 . S
C87 C86 1.407 . S
C87 H89 0.929 . S
H88 C77 0.926 1_565 S
H89 C87 0.929 . S
H90 C105 0.930 . S
H91 C112 0.929 . S
H92 C86 0.930 . S
H93 C85 0.931 . S
H94 C108 0.930 1_445 S
H95 C75 0.930 . S
H96 C81 0.929 . S
H97 C82 0.930 . S
H98 C103 0.930 1_545 S
H99 C78 0.930 . S
H100 C111 0.931 . S
N101 Tb72 2.617 . S
N101 C102 1.379 1_545 S
N101 C105 1.334 . S
C102 N101 1.379 1_565 S
C102 C104 1.416 . S
C102 C110 1.424 . S
C103 H98 0.930 1_565 S
C103 C105 1.390 1_565 S
C103 C106 1.339 . S
C104 C102 1.416 . S
C104 C106 1.416 . S
C104 C137 1.448 . S
C105 H90 0.930 . S
C105 N101 1.334 . S
C105 C103 1.390 1_545 S
C106 C103 1.339 . S
C106 C104 1.416 . S
C106 H113 0.930 . S
N107 Tb72 2.572 . S
N107 C108 1.340 1_545 S
N107 C110 1.361 1_545 S
C108 H94 0.930 1_665 S
C108 N107 1.340 1_565 S
C108 C112 1.407 . S
C109 C110 1.413 . S
C109 C111 1.416 . S
C109 C138 1.427 . S
C110 C102 1.424 . S
C110 N107 1.361 1_565 S
C110 C109 1.413 . S
C111 H100 0.931 . S
C111 C109 1.416 . S
C111 C112 1.332 . S
C112 H91 0.929 . S
C112 C108 1.407 . S
C112 C111 1.332 . S
H113 C106 0.930 . S
H114 C137 0.930 . S
H115 C138 0.929 . S
O116 Tb72 2.465 . S
O116 C136 1.264 . S
O117 Tb72 2.387 1_565 S
O117 C128 1.264 . S
O118 Tb83 2.349 . S
O118 C128 1.243 1_455 S
O119 Tb72 2.428 . S
O119 C136 1.256 . S
O120 Tb72 2.308 1_455 S
O120 C135 1.266 . S
O121 Tb83 2.393 . S
O121 C135 1.248 1_565 S
O122 Tb83 2.465 . S
O122 C147 1.264 . S
O123 Tb83 2.387 1_545 S
O123 C139 1.264 . S
O124 Tb72 2.349 . S
O124 C139 1.243 1_655 S
O125 Tb83 2.428 . S
O125 C147 1.256 . S
O126 Tb83 2.308 1_655 S
O126 C146 1.266 1_565 S
O127 Tb72 2.393 . S
O127 C146 1.248 . S
C128 O117 1.264 . S
C128 O118 1.243 1_655 S
C129 C132 1.399 . S
C129 C134 1.383 . S
C129 C136 1.496 . S
C130 C131 1.399 . S
C130 C134 1.389 . S
C131 C130 1.399 . S
C131 C133 1.380 . S
C131 H148 0.929 . S
C132 C129 1.399 . S
C132 C133 1.392 . S
C132 H149 0.929 . S
C133 C131 1.380 . S
C133 C132 1.392 . S
C133 H150 0.929 . S
C134 C129 1.383 . S
C134 C130 1.389 . S
C134 H151 0.931 . S
C135 O120 1.266 . S
C135 O121 1.248 1_545 S
C136 Tb72 2.802 . S
C136 O116 1.264 . S
C136 O119 1.256 . S
C136 C129 1.496 . S
C137 C104 1.448 . S
C137 H114 0.930 . S
C137 C138 1.328 . S
C138 C109 1.427 . S
C138 H115 0.929 . S
C138 C137 1.328 . S
C139 O123 1.264 . S
C139 O124 1.243 1_455 S
C140 C143 1.399 . S
C140 C144 1.383 1_556 S
C140 C147 1.496 . S
C141 C142 1.399 . S
C141 C144 1.389 . S
C142 C141 1.399 . S
C142 C145 1.380 . S
C142 H152 0.929 . S
C143 C140 1.399 . S
C143 C145 1.392 1_556 S
C143 H153 0.929 . S
C144 C140 1.383 1_554 S
C144 C141 1.389 . S
C144 H154 0.931 . S
C145 C142 1.380 . S
C145 C143 1.392 1_554 S
C145 H155 0.929 1_554 S
C146 O126 1.266 1_545 S
C146 O127 1.248 . S
C147 Tb83 2.802 . S
C147 O122 1.264 . S
C147 O125 1.256 . S
C147 C140 1.496 . S
H148 C131 0.929 . S
H149 C132 0.929 . S
H150 C133 0.929 . S
H151 C134 0.931 . S
H152 C142 0.929 . S
H153 C143 0.929 . S
H154 C144 0.931 . S
H155 C145 0.929 1_556 S
Tb156 N185 2.617 . S
Tb156 N191 2.572 . S
Tb156 O200 2.465 . S
Tb156 O201 2.387 . S
Tb156 O203 2.428 . S
Tb156 O204 2.308 . S
Tb156 O208 2.349 1_545 S
Tb156 O211 2.393 . S
Tb156 C220 2.802 . S
C157 N158 1.379 . S
C157 C160 1.416 . S
C157 C164 1.424 . S
N158 C157 1.379 . S
N158 C161 1.334 . S
N158 Tb167 2.617 . S
C159 C161 1.390 . S
C159 C162 1.339 . S
C159 H179 0.930 . S
C160 C157 1.416 . S
C160 C162 1.416 . S
C160 C166 1.448 . S
C161 N158 1.334 . S
C161 C159 1.390 . S
C161 H172 0.930 . S
C162 C159 1.339 . S
C162 C160 1.416 . S
C162 H183 0.930 . S
C163 C164 1.413 . S
C163 C165 1.427 . S
C163 C169 1.416 . S
C164 C157 1.424 . S
C164 C163 1.413 . S
C164 N168 1.361 . S
C165 C163 1.427 . S
C165 C166 1.328 . S
C165 H180 0.929 . S
C166 C160 1.448 . S
C166 C165 1.328 . S
C166 H181 0.930 . S
Tb167 N158 2.617 . S
Tb167 N168 2.572 . S
Tb167 O202 2.349 1_565 S
Tb167 O205 2.393 . S
Tb167 O206 2.465 . S
Tb167 O207 2.387 . S
Tb167 O209 2.428 . S
Tb167 O210 2.308 . S
Tb167 C231 2.802 . S
N168 C164 1.361 . S
N168 Tb167 2.572 . S
N168 C170 1.340 . S
C169 C163 1.416 . S
C169 C171 1.332 . S
C169 H177 0.931 . S
C170 N168 1.340 . S
C170 C171 1.407 . S
C170 H176 0.930 . S
C171 C169 1.332 . S
C171 C170 1.407 . S
C171 H173 0.929 . S
H172 C161 0.930 . S
H173 C171 0.929 . S
H174 C189 0.930 . S
H175 C196 0.929 . S
H176 C170 0.930 . S
H177 C169 0.931 . S
H178 C192 0.930 . S
H179 C159 0.930 . S
H180 C165 0.929 . S
H181 C166 0.930 . S
H182 C187 0.930 . S
H183 C162 0.930 . S
H184 C195 0.931 . S
N185 Tb156 2.617 . S
N185 C186 1.379 . S
N185 C189 1.334 . S
C186 N185 1.379 . S
C186 C188 1.416 . S
C186 C194 1.424 . S
C187 H182 0.930 . S
C187 C189 1.390 . S
C187 C190 1.339 . S
C188 C186 1.416 . S
C188 C190 1.416 . S
C188 C221 1.448 . S
C189 H174 0.930 . S
C189 N185 1.334 . S
C189 C187 1.390 . S
C190 C187 1.339 . S
C190 C188 1.416 . S
C190 H197 0.930 . S
N191 Tb156 2.572 . S
N191 C192 1.340 . S
N191 C194 1.361 . S
C192 H178 0.930 . S
C192 N191 1.340 . S
C192 C196 1.407 . S
C193 C194 1.413 . S
C193 C195 1.416 . S
C193 C222 1.427 . S
C194 C186 1.424 . S
C194 N191 1.361 . S
C194 C193 1.413 . S
C195 H184 0.931 . S
C195 C193 1.416 . S
C195 C196 1.332 . S
C196 H175 0.929 . S
C196 C192 1.407 . S
C196 C195 1.332 . S
H197 C190 0.930 . S
H198 C221 0.930 . S
H199 C222 0.929 . S
O200 Tb156 2.465 . S
O200 C220 1.264 . S
O201 Tb156 2.387 . S
O201 C212 1.264 . S
O202 Tb167 2.349 1_545 S
O202 C212 1.243 . S
O203 Tb156 2.428 . S
O203 C220 1.256 . S
O204 Tb156 2.308 . S
O204 C219 1.266 1_545 S
O205 Tb167 2.393 . S
O205 C219 1.248 . S
O206 Tb167 2.465 . S
O206 C231 1.264 . S
O207 Tb167 2.387 . S
O207 C223 1.264 . S
O208 Tb156 2.349 1_565 S
O208 C223 1.243 . S
O209 Tb167 2.428 . S
O209 C231 1.256 . S
O210 Tb167 2.308 . S
O210 C230 1.266 1_565 S
O211 Tb156 2.393 . S
O211 C230 1.248 . S
C212 O201 1.264 . S
C212 O202 1.243 . S
C213 C216 1.399 . S
C213 C218 1.383 . S
C213 C220 1.496 1_554 S
C214 C215 1.399 . S
C214 C218 1.389 . S
C215 C214 1.399 . S
C215 C217 1.380 . S
C215 H232 0.929 . S
C216 C213 1.399 . S
C216 C217 1.392 . S
C216 H233 0.929 . S
C217 C215 1.380 . S
C217 C216 1.392 . S
C217 H234 0.929 . S
C218 C213 1.383 . S
C218 C214 1.389 . S
C218 H235 0.931 . S
C219 O204 1.266 1_565 S
C219 O205 1.248 . S
C220 Tb156 2.802 . S
C220 O200 1.264 . S
C220 O203 1.256 . S
C220 C213 1.496 1_556 S
C221 C188 1.448 . S
C221 H198 0.930 . S
C221 C222 1.328 . S
C222 C193 1.427 . S
C222 H199 0.929 . S
C222 C221 1.328 . S
C223 O207 1.264 . S
C223 O208 1.243 . S
C224 C227 1.399 . S
C224 C228 1.383 . S
C224 C231 1.496 . S
C225 C226 1.399 . S
C225 C228 1.389 . S
C226 C225 1.399 . S
C226 C229 1.380 . S
C226 H236 0.929 . S
C227 C224 1.399 . S
C227 C229 1.392 . S
C227 H237 0.929 . S
C228 C224 1.383 . S
C228 C225 1.389 . S
C228 H238 0.931 . S
C229 C226 1.380 . S
C229 C227 1.392 . S
C229 H239 0.929 . S
C230 O210 1.266 1_545 S
C230 O211 1.248 . S
C231 Tb167 2.802 . S
C231 O206 1.264 . S
C231 O209 1.256 . S
C231 C224 1.496 . S
H232 C215 0.929 . S
H233 C216 0.929 . S
H234 C217 0.929 . S
H235 C218 0.931 . S
H236 C226 0.929 . S
H237 C227 0.929 . S
H238 C228 0.931 . S
H239 C229 0.929 . S
Tb240 N269 2.617 . S
Tb240 N275 2.572 . S
Tb240 O284 2.465 . S
Tb240 O285 2.387 . S
Tb240 O287 2.428 . S
Tb240 O288 2.308 . S
Tb240 O292 2.349 . S
Tb240 O295 2.393 . S
Tb240 C304 2.802 . S
C241 N242 1.379 . S
C241 C244 1.416 . S
C241 C248 1.424 1_556 S
N242 C241 1.379 . S
N242 C245 1.334 . S
N242 Tb251 2.617 . S
C243 C245 1.390 . S
C243 C246 1.339 . S
C243 H263 0.930 . S
C244 C241 1.416 . S
C244 C246 1.416 . S
C244 C250 1.448 1_556 S
C245 N242 1.334 . S
C245 C243 1.390 . S
C245 H256 0.930 . S
C246 C243 1.339 . S
C246 C244 1.416 . S
C246 H267 0.930 . S
C247 C248 1.413 . S
C247 C249 1.427 . S
C247 C253 1.416 . S
C248 C241 1.424 1_554 S
C248 C247 1.413 . S
C248 N252 1.361 1_554 S
C249 C247 1.427 . S
C249 C250 1.328 . S
C249 H264 0.929 . S
C250 C244 1.448 1_554 S
C250 C249 1.328 . S
C250 H265 0.930 . S
Tb251 N242 2.617 . S
Tb251 N252 2.572 . S
Tb251 O286 2.349 . S
Tb251 O289 2.393 . S
Tb251 O290 2.465 . S
Tb251 O291 2.387 . S
Tb251 O293 2.428 . S
Tb251 O294 2.308 . S
Tb251 C315 2.802 . S
N252 C248 1.361 1_556 S
N252 Tb251 2.572 . S
N252 C254 1.340 1_556 S
C253 C247 1.416 . S
C253 C255 1.332 . S
C253 H261 0.931 . S
C254 N252 1.340 1_554 S
C254 C255 1.407 . S
C254 H260 0.930 . S
C255 C253 1.332 . S
C255 C254 1.407 . S
C255 H257 0.929 . S
H256 C245 0.930 . S
H257 C255 0.929 . S
H258 C273 0.930 . S
H259 C280 0.929 . S
H260 C254 0.930 . S
H261 C253 0.931 . S
H262 C276 0.930 . S
H263 C243 0.930 . S
H264 C249 0.929 . S
H265 C250 0.930 . S
H266 C271 0.930 . S
H267 C246 0.930 . S
H268 C279 0.931 . S
N269 Tb240 2.617 . S
N269 C270 1.379 . S
N269 C273 1.334 . S
C270 N269 1.379 . S
C270 C272 1.416 . S
C270 C278 1.424 . S
C271 H266 0.930 . S
C271 C273 1.390 . S
C271 C274 1.339 . S
C272 C270 1.416 . S
C272 C274 1.416 . S
C272 C305 1.448 . S
C273 H258 0.930 . S
C273 N269 1.334 . S
C273 C271 1.390 . S
C274 C271 1.339 . S
C274 C272 1.416 . S
C274 H281 0.930 . S
N275 Tb240 2.572 . S
N275 C276 1.340 . S
N275 C278 1.361 . S
C276 H262 0.930 . S
C276 N275 1.340 . S
C276 C280 1.407 . S
C277 C278 1.413 . S
C277 C279 1.416 . S
C277 C306 1.427 . S
C278 C270 1.424 . S
C278 N275 1.361 . S
C278 C277 1.413 . S
C279 H268 0.931 . S
C279 C277 1.416 . S
C279 C280 1.332 . S
C280 H259 0.929 . S
C280 C276 1.407 . S
C280 C279 1.332 . S
H281 C274 0.930 . S
H282 C305 0.930 . S
H283 C306 0.929 . S
O284 Tb240 2.465 . S
O284 C304 1.264 . S
O285 Tb240 2.387 . S
O285 C296 1.264 . S
O286 Tb251 2.349 . S
O286 C296 1.243 . S
O287 Tb240 2.428 . S
O287 C304 1.256 . S
O288 Tb240 2.308 . S
O288 C303 1.266 . S
O289 Tb251 2.393 . S
O289 C303 1.248 . S
O290 Tb251 2.465 . S
O290 C315 1.264 . S
O291 Tb251 2.387 . S
O291 C307 1.264 . S
O292 Tb240 2.349 . S
O292 C307 1.243 . S
O293 Tb251 2.428 . S
O293 C315 1.256 . S
O294 Tb251 2.308 . S
O294 C314 1.266 . S
O295 Tb240 2.393 . S
O295 C314 1.248 . S
C296 O285 1.264 . S
C296 O286 1.243 . S
C297 C300 1.399 . S
C297 C302 1.383 . S
C297 C304 1.496 . S
C298 C299 1.399 . S
C298 C302 1.389 . S
C299 C298 1.399 . S
C299 C301 1.380 . S
C299 H316 0.929 . S
C300 C297 1.399 . S
C300 C301 1.392 . S
C300 H317 0.929 . S
C301 C299 1.380 . S
C301 C300 1.392 . S
C301 H318 0.929 . S
C302 C297 1.383 . S
C302 C298 1.389 . S
C302 H319 0.931 . S
C303 O288 1.266 . S
C303 O289 1.248 . S
C304 Tb240 2.802 . S
C304 O284 1.264 . S
C304 O287 1.256 . S
C304 C297 1.496 . S
C305 C272 1.448 . S
C305 H282 0.930 . S
C305 C306 1.328 . S
C306 C277 1.427 . S
C306 H283 0.929 . S
C306 C305 1.328 . S
C307 O291 1.264 . S
C307 O292 1.243 . S
C308 C311 1.399 . S
C308 C312 1.383 1_556 S
C308 C315 1.496 . S
C309 C310 1.399 . S
C309 C312 1.389 . S
C310 C309 1.399 . S
C310 C313 1.380 . S
C310 H320 0.929 . S
C311 C308 1.399 . S
C311 C313 1.392 1_556 S
C311 H321 0.929 . S
C312 C308 1.383 1_554 S
C312 C309 1.389 . S
C312 H322 0.931 . S
C313 C310 1.380 . S
C313 C311 1.392 1_554 S
C313 H323 0.929 1_554 S
C314 O294 1.266 . S
C314 O295 1.248 . S
C315 Tb251 2.802 . S
C315 O290 1.264 . S
C315 O293 1.256 . S
C315 C308 1.496 . S
H316 C299 0.929 . S
H317 C300 0.929 . S
H318 C301 0.929 . S
H319 C302 0.931 . S
H320 C310 0.929 . S
H321 C311 0.929 . S
H322 C312 0.931 . S
H323 C313 0.929 1_556 S
Tb324 N353 2.617 . S
Tb324 N359 2.572 . S
Tb324 O368 2.465 . S
Tb324 O369 2.387 1_455 S
Tb324 O371 2.428 . S
Tb324 O372 2.308 . S
Tb324 O376 2.349 . S
Tb324 O379 2.393 . S
Tb324 C388 2.802 . S
C325 N326 1.375 1_455 S
C325 C328 1.416 . S
C325 C332 1.424 1_556 S
N326 C325 1.375 1_655 S
N326 C329 1.335 . S
N326 Tb335 2.619 . S
C327 C329 1.390 1_455 S
C327 C330 1.339 . S
C327 H347 0.930 . S
C328 C325 1.416 . S
C328 C330 1.416 . S
C328 C334 1.448 1_556 S
C329 N326 1.335 . S
C329 C327 1.390 1_655 S
C329 H340 0.930 . S
C330 C327 1.339 . S
C330 C328 1.416 . S
C330 H351 0.930 . S
C331 C332 1.413 . S
C331 C333 1.427 . S
C331 C337 1.416 . S
C332 C325 1.424 1_554 S
C332 C331 1.413 . S
C332 N336 1.361 1_554 S
C333 C331 1.427 . S
C333 C334 1.328 . S
C333 H348 0.929 . S
C334 C328 1.448 1_554 S
C334 C333 1.328 . S
C334 H349 0.930 . S
Tb335 N326 2.619 . S
Tb335 N336 2.572 1_655 S
Tb335 O370 2.349 . S
Tb335 O373 2.393 . S
Tb335 O374 2.465 . S
Tb335 O375 2.387 1_655 S
Tb335 O377 2.428 . S
Tb335 O378 2.308 . S
Tb335 C399 2.802 . S
N336 C332 1.361 1_556 S
N336 Tb335 2.572 1_455 S
N336 C338 1.340 1_556 S
C337 C331 1.416 . S
C337 C339 1.332 . S
C337 H345 0.931 . S
C338 N336 1.340 1_554 S
C338 C339 1.407 . S
C338 H344 0.930 . S
C339 C337 1.332 . S
C339 C338 1.407 . S
C339 H341 0.929 . S
H340 C329 0.930 . S
H341 C339 0.929 . S
H342 C357 0.930 . S
H343 C364 0.929 . S
H344 C338 0.930 . S
H345 C337 0.931 . S
H346 C360 0.930 1_455 S
H347 C327 0.930 . S
H348 C333 0.929 . S
H349 C334 0.930 . S
H350 C355 0.929 1_455 S
H351 C330 0.930 . S
H352 C363 0.931 . S
N353 Tb324 2.617 . S
N353 C354 1.379 1_455 S
N353 C357 1.334 . S
C354 N353 1.379 1_655 S
C354 C356 1.416 . S
C354 C362 1.424 . S
C355 H350 0.929 1_655 S
C355 C357 1.388 1_655 S
C355 C358 1.342 . S
C356 C354 1.416 . S
C356 C358 1.416 . S
C356 C389 1.448 . S
C357 H342 0.930 . S
C357 N353 1.334 . S
C357 C355 1.388 1_455 S
C358 C355 1.342 . S
C358 C356 1.416 . S
C358 H365 0.930 . S
N359 Tb324 2.572 . S
N359 C360 1.340 1_455 S
N359 C362 1.361 1_455 S
C360 H346 0.930 1_655 S
C360 N359 1.340 1_655 S
C360 C364 1.407 . S
C361 C362 1.413 . S
C361 C363 1.416 . S
C361 C390 1.427 . S
C362 C354 1.424 . S
C362 N359 1.361 1_655 S
C362 C361 1.413 . S
C363 H352 0.931 . S
C363 C361 1.416 . S
C363 C364 1.332 . S
C364 H343 0.929 . S
C364 C360 1.407 . S
C364 C363 1.332 . S
H365 C358 0.930 . S
H366 C389 0.930 . S
H367 C390 0.929 . S
O368 Tb324 2.465 . S
O368 C388 1.264 . S
O369 Tb324 2.387 1_655 S
O369 C380 1.264 . S
O370 Tb335 2.349 . S
O370 C380 1.243 . S
O371 Tb324 2.428 . S
O371 C388 1.256 . S
O372 Tb324 2.308 . S
O372 C387 1.266 . S
O373 Tb335 2.393 . S
O373 C387 1.248 1_655 S
O374 Tb335 2.465 . S
O374 C399 1.264 . S
O375 Tb335 2.387 1_455 S
O375 C391 1.264 . S
O376 Tb324 2.349 . S
O376 C391 1.243 . S
O377 Tb335 2.428 . S
O377 C399 1.256 . S
O378 Tb335 2.308 . S
O378 C398 1.266 1_655 S
O379 Tb324 2.393 . S
O379 C398 1.248 . S
C380 O369 1.264 . S
C380 O370 1.243 . S
C381 C384 1.399 . S
C381 C386 1.383 . S
C381 C388 1.496 . S
C382 C383 1.399 . S
C382 C386 1.389 . S
C383 C382 1.399 . S
C383 C385 1.380 . S
C383 H400 0.929 . S
C384 C381 1.399 . S
C384 C385 1.392 . S
C384 H401 0.929 . S
C385 C383 1.380 . S
C385 C384 1.392 . S
C385 H402 0.929 . S
C386 C381 1.383 . S
C386 C382 1.389 . S
C386 H403 0.931 . S
C387 O372 1.266 . S
C387 O373 1.248 1_455 S
C388 Tb324 2.802 . S
C388 O368 1.264 . S
C388 O371 1.256 . S
C388 C381 1.496 . S
C389 C356 1.448 . S
C389 H366 0.930 . S
C389 C390 1.328 . S
C390 C361 1.427 . S
C390 H367 0.929 . S
C390 C389 1.328 . S
C391 O375 1.264 . S
C391 O376 1.243 . S
C392 C395 1.399 . S
C392 C396 1.383 1_556 S
C392 C399 1.496 . S
C393 C394 1.399 . S
C393 C396 1.389 . S
C394 C393 1.399 . S
C394 C397 1.380 . S
C394 H404 0.929 . S
C395 C392 1.399 . S
C395 C397 1.392 1_556 S
C395 H405 0.929 . S
C396 C392 1.383 1_554 S
C396 C393 1.389 . S
C396 H406 0.931 . S
C397 C394 1.380 . S
C397 C395 1.392 1_554 S
C397 H407 0.929 1_554 S
C398 O378 1.266 1_455 S
C398 O379 1.248 . S
C399 Tb335 2.802 . S
C399 O374 1.264 . S
C399 O377 1.256 . S
C399 C392 1.496 . S
H400 C383 0.929 . S
H401 C384 0.929 . S
H402 C385 0.929 . S
H403 C386 0.931 . S
H404 C394 0.929 . S
H405 C395 0.929 . S
H406 C396 0.931 . S
H407 C397 0.929 1_556 S
C408 C409 1.363 1_565 S
C408 C414 1.379 . S
C408 N416 1.356 . S
C409 C408 1.363 1_545 S
C409 C415 1.363 . S
C410 C411 1.363 . S
C410 C415 1.379 . S
C410 N417 1.356 . S
C411 C410 1.363 . S
C411 C414 1.363 1_545 S
N412 C414 1.356 . S
N412 H424 0.984 . S
N412 H425 0.985 . S
N413 C415 1.356 . S
N413 H418 0.984 . S
N413 H419 0.985 . S
C414 C408 1.379 . S
C414 C411 1.363 1_565 S
C414 N412 1.356 . S
C415 C409 1.363 . S
C415 C410 1.379 . S
C415 N413 1.356 . S
N416 C408 1.356 . S
N416 H422 0.984 . S
N416 H423 0.984 . S
N417 C410 1.356 . S
N417 H420 0.984 . S
N417 H421 0.985 . S
H418 N413 0.984 . S
H419 N413 0.985 . S
H420 N417 0.984 . S
H421 N417 0.985 . S
H422 N416 0.984 . S
H423 N416 0.984 . S
H424 N412 0.984 . S
H425 N412 0.985 . S
C426 C427 1.363 . S
C426 C432 1.379 . S
C426 N434 1.356 . S
C427 C426 1.363 . S
C427 C433 1.363 . S
C428 C429 1.363 . S
C428 C433 1.379 . S
C428 N435 1.356 . S
C429 C428 1.363 . S
C429 C432 1.363 . S
N430 C432 1.356 . S
N430 H442 0.984 . S
N430 H443 0.985 . S
N431 C433 1.356 . S
N431 H436 0.984 . S
N431 H437 0.985 . S
C432 C426 1.379 . S
C432 C429 1.363 . S
C432 N430 1.356 . S
C433 C427 1.363 . S
C433 C428 1.379 . S
C433 N431 1.356 . S
N434 C426 1.356 . S
N434 H440 0.984 . S
N434 H441 0.984 . S
N435 C428 1.356 . S
N435 H438 0.984 . S
N435 H439 0.985 . S
H436 N431 0.984 . S
H437 N431 0.985 . S
H438 N435 0.984 . S
H439 N435 0.985 . S
H440 N434 0.984 . S
H441 N434 0.984 . S
H442 N430 0.984 . S
H443 N430 0.985 . S
C444 C445 1.363 . S
C444 C450 1.379 . S
C444 N452 1.356 . S
C445 C444 1.363 . S
C445 C451 1.363 . S
C446 C447 1.363 . S
C446 C451 1.379 . S
C446 N453 1.356 . S
C447 C446 1.363 . S
C447 C450 1.363 . S
N448 C450 1.356 . S
N448 H460 0.984 . S
N448 H461 0.985 . S
N449 C451 1.356 . S
N449 H454 0.984 . S
N449 H455 0.985 . S
C450 C444 1.379 . S
C450 C447 1.363 . S
C450 N448 1.356 . S
C451 C445 1.363 . S
C451 C446 1.379 . S
C451 N449 1.356 . S
N452 C444 1.356 . S
N452 H458 0.984 . S
N452 H459 0.984 . S
N453 C446 1.356 . S
N453 H456 0.984 . S
N453 H457 0.985 . S
H454 N449 0.984 . S
H455 N449 0.985 . S
H456 N453 0.984 . S
H457 N453 0.985 . S
H458 N452 0.984 . S
H459 N452 0.984 . S
H460 N448 0.984 . S
H461 N448 0.985 . S
C462 C463 1.363 . S
C462 C468 1.379 1_455 S
C462 N470 1.356 1_455 S
C463 C462 1.363 . S
C463 C469 1.363 . S
C464 C465 1.363 . S
C464 C469 1.379 . S
C464 N471 1.356 . S
C465 C464 1.363 . S
C465 C468 1.363 1_455 S
N466 C468 1.356 . S
N466 H478 0.984 . S
N466 H479 0.985 . S
N467 C469 1.356 . S
N467 H472 0.984 . S
N467 H473 0.985 . S
C468 C462 1.379 1_655 S
C468 C465 1.363 1_655 S
C468 N466 1.356 . S
C469 C463 1.363 . S
C469 C464 1.379 . S
C469 N467 1.356 . S
N470 C462 1.356 1_655 S
N470 H476 0.984 . S
N470 H477 0.984 . S
N471 C464 1.356 . S
N471 H474 0.984 . S
N471 H475 0.985 . S
H472 N467 0.984 . S
H473 N467 0.985 . S
H474 N471 0.984 . S
H475 N471 0.985 . S
H476 N470 0.984 . S
H477 N470 0.984 . S
H478 N466 0.984 . S
H479 N466 0.985 . S
C480 C481 1.363 1_545 S
C480 C486 1.379 . S
C480 N488 1.356 . S
C481 C480 1.363 1_565 S
C481 C487 1.363 . S
C482 C483 1.363 1_554 S
C482 C487 1.379 . S
C482 N489 1.356 1_554 S
C483 C482 1.363 1_556 S
C483 C486 1.363 1_566 S
N484 C486 1.356 1_556 S
N484 H496 0.984 . S
N484 H497 0.985 . S
N485 C487 1.356 . S
N485 H490 0.984 . S
N485 H491 0.985 . S
C486 C480 1.379 . S
C486 C483 1.363 1_544 S
C486 N484 1.356 1_554 S
C487 C481 1.363 . S
C487 C482 1.379 . S
C487 N485 1.356 . S
N488 C480 1.356 . S
N488 H494 0.984 . S
N488 H495 0.984 . S
N489 C482 1.356 1_556 S
N489 H492 0.984 . S
N489 H493 0.985 1_556 S
H490 N485 0.984 . S
H491 N485 0.985 . S
H492 N489 0.984 . S
H493 N489 0.985 1_554 S
H494 N488 0.984 . S
H495 N488 0.984 . S
H496 N484 0.984 . S
H497 N484 0.985 . S
C498 C499 1.363 . S
C498 C504 1.379 . S
C498 N506 1.356 . S
C499 C498 1.363 . S
C499 C505 1.363 . S
C500 C501 1.362 1_554 S
C500 C505 1.379 . S
C500 N507 1.356 1_554 S
C501 C500 1.362 1_556 S
C501 C504 1.359 1_556 S
N502 C504 1.356 . S
N502 H514 0.984 . S
N502 H515 0.985 1_554 S
N503 C505 1.356 . S
N503 H508 0.984 . S
N503 H509 0.985 . S
C504 C498 1.379 . S
C504 C501 1.359 1_554 S
C504 N502 1.356 . S
C505 C499 1.363 . S
C505 C500 1.379 . S
C505 N503 1.356 . S
N506 C498 1.356 . S
N506 H512 0.984 . S
N506 H513 0.984 . S
N507 C500 1.356 1_556 S
N507 H510 0.984 . S
N507 H511 0.985 . S
H508 N503 0.984 . S
H509 N503 0.985 . S
H510 N507 0.984 . S
H511 N507 0.985 . S
H512 N506 0.984 . S
H513 N506 0.984 . S
H514 N502 0.984 . S
H515 N502 0.985 1_556 S
C516 C517 1.363 . S
C516 C522 1.379 . S
C516 N524 1.356 . S
C517 C516 1.363 . S
C517 C523 1.363 . S
C518 C519 1.363 1_554 S
C518 C523 1.379 . S
C518 N525 1.356 1_554 S
C519 C518 1.363 1_556 S
C519 C522 1.363 1_556 S
N520 C522 1.356 1_556 S
N520 H532 0.984 . S
N520 H533 0.985 . S
N521 C523 1.356 . S
N521 H526 0.984 . S
N521 H527 0.985 . S
C522 C516 1.379 . S
C522 C519 1.363 1_554 S
C522 N520 1.356 1_554 S
C523 C517 1.363 . S
C523 C518 1.379 . S
C523 N521 1.356 . S
N524 C516 1.356 . S
N524 H530 0.984 . S
N524 H531 0.984 . S
N525 C518 1.356 1_556 S
N525 H528 0.984 . S
N525 H529 0.985 1_556 S
H526 N521 0.984 . S
H527 N521 0.985 . S
H528 N525 0.984 . S
H529 N525 0.985 1_554 S
H530 N524 0.984 . S
H531 N524 0.984 . S
H532 N520 0.984 . S
H533 N520 0.985 . S
C534 C535 1.363 . S
C534 C540 1.379 . S
C534 N542 1.356 . S
C535 C534 1.363 . S
C535 C541 1.363 1_655 S
C536 C537 1.363 1_454 S
C536 C541 1.379 . S
C536 N543 1.356 . S
C537 C536 1.363 1_656 S
C537 C540 1.363 1_556 S
N538 C540 1.356 1_556 S
N538 H550 0.984 . S
N538 H551 0.985 . S
N539 C541 1.356 . S
N539 H544 0.984 . S
N539 H545 0.985 . S
C540 C534 1.379 . S
C540 C537 1.363 1_554 S
C540 N538 1.356 1_554 S
C541 C535 1.363 1_455 S
C541 C536 1.379 . S
C541 N539 1.356 . S
N542 C534 1.356 . S
N542 H548 0.984 . S
N542 H549 0.984 . S
N543 C536 1.356 . S
N543 H546 0.984 1_554 S
N543 H547 0.985 . S
H544 N539 0.984 . S
H545 N539 0.985 . S
H546 N543 0.984 1_556 S
H547 N543 0.985 . S
H548 N542 0.984 . S
H549 N542 0.984 . S
H550 N538 0.984 . S
H551 N538 0.985 . S
C552 C553 1.363 1_655 S
C552 C558 1.379 . S
C552 N560 1.356 . S
C553 C552 1.363 1_455 S
C553 C559 1.363 . S
C554 C555 1.363 1_455 S
C554 C559 1.379 . S
C554 N561 1.356 . S
C555 C554 1.363 1_655 S
C555 C558 1.363 . S
N556 C558 1.356 . S
N556 H568 0.984 . S
N556 H569 0.985 . S
N557 C559 1.356 . S
N557 H562 0.984 . S
N557 H563 0.985 . S
C558 C552 1.379 . S
C558 C555 1.363 . S
C558 N556 1.356 . S
C559 C553 1.363 . S
C559 C554 1.379 . S
C559 N557 1.356 . S
N560 C552 1.356 . S
N560 H566 0.984 1_554 S
N560 H567 0.984 1_654 S
N561 C554 1.356 . S
N561 H564 0.984 1_455 S
N561 H565 0.985 . S
H562 N557 0.984 . S
H563 N557 0.985 . S
H564 N561 0.984 1_655 S
H565 N561 0.985 . S
H566 N560 0.984 1_556 S
H567 N560 0.984 1_456 S
H568 N556 0.984 . S
H569 N556 0.985 . S
C570 C571 1.363 . S
C570 C576 1.379 . S
C570 N578 1.356 . S
C571 C570 1.363 . S
C571 C577 1.363 1_545 S
C572 C573 1.363 . S
C572 C577 1.379 . S
C572 N579 1.356 . S
C573 C572 1.363 . S
C573 C576 1.363 1_565 S
N574 C576 1.356 . S
N574 H586 0.984 . S
N574 H587 0.985 1_545 S
N575 C577 1.356 . S
N575 H580 0.984 1_565 S
N575 H581 0.985 . S
C576 C570 1.379 . S
C576 C573 1.363 1_545 S
C576 N574 1.356 . S
C577 C571 1.363 1_565 S
C577 C572 1.379 . S
C577 N575 1.356 . S
N578 C570 1.356 . S
N578 H584 0.984 . S
N578 H585 0.984 . S
N579 C572 1.356 . S
N579 H582 0.984 . S
N579 H583 0.985 . S
H580 N575 0.984 1_545 S
H581 N575 0.985 . S
H582 N579 0.984 . S
H583 N579 0.985 . S
H584 N578 0.984 . S
H585 N578 0.984 . S
H586 N574 0.984 . S
H587 N574 0.985 1_565 S
C588 C589 1.363 . S
C588 C594 1.379 . S
C588 N596 1.356 . S
C589 C588 1.363 . S
C589 C595 1.363 . S
C590 C591 1.363 . S
C590 C595 1.379 . S
C590 N597 1.356 . S
C591 C590 1.363 . S
C591 C594 1.363 . S
N592 C594 1.356 . S
N592 H604 0.984 . S
N592 H605 0.985 . S
N593 C595 1.356 1_556 S
N593 H598 0.984 . S
N593 H599 0.985 . S
C594 C588 1.379 . S
C594 C591 1.363 . S
C594 N592 1.356 . S
C595 C589 1.363 . S
C595 C590 1.379 . S
C595 N593 1.356 1_554 S
N596 C588 1.356 . S
N596 H602 0.984 . S
N596 H603 0.984 . S
N597 C590 1.356 . S
N597 H600 0.984 . S
N597 H601 0.985 . S
H598 N593 0.984 . S
H599 N593 0.985 . S
H600 N597 0.984 . S
H601 N597 0.985 . S
H602 N596 0.984 . S
H603 N596 0.984 . S
H604 N592 0.984 . S
H605 N592 0.985 . S
C606 C607 1.363 . S
C606 C612 1.379 . S
C606 N614 1.356 . S
C607 C606 1.363 . S
C607 C613 1.363 . S
C608 C609 1.363 . S
C608 C613 1.379 . S
C608 N615 1.356 . S
C609 C608 1.363 . S
C609 C612 1.363 . S
N610 C612 1.356 . S
N610 H622 0.984 . S
N610 H623 0.985 . S
N611 C613 1.356 . S
N611 H616 0.984 . S
N611 H617 0.985 . S
C612 C606 1.379 . S
C612 C609 1.363 . S
C612 N610 1.356 . S
C613 C607 1.363 . S
C613 C608 1.379 . S
C613 N611 1.356 . S
N614 C606 1.356 . S
N614 H620 0.984 1_554 S
N614 H621 0.984 . S
N615 C608 1.356 . S
N615 H618 0.984 . S
N615 H619 0.985 . S
H616 N611 0.984 . S
H617 N611 0.985 . S
H618 N615 0.984 . S
H619 N615 0.985 . S
H620 N614 0.984 1_556 S
H621 N614 0.984 . S
H622 N610 0.984 . S
H623 N610 0.985 . S
C624 C625 1.363 . S
C624 C630 1.379 . S
C624 N632 1.356 . S
C625 C624 1.363 . S
C625 C631 1.363 1_655 S
C626 C627 1.363 . S
C626 C631 1.379 . S
C626 N633 1.356 . S
C627 C626 1.363 . S
C627 C630 1.363 1_455 S
N628 C630 1.356 . S
N628 H640 0.984 . S
N628 H641 0.985 1_655 S
N629 C631 1.356 . S
N629 H634 0.984 . S
N629 H635 0.985 . S
C630 C624 1.379 . S
C630 C627 1.363 1_655 S
C630 N628 1.356 . S
C631 C625 1.363 1_455 S
C631 C626 1.379 . S
C631 N629 1.356 . S
N632 C624 1.356 . S
N632 H638 0.984 . S
N632 H639 0.984 . S
N633 C626 1.356 . S
N633 H636 0.984 . S
N633 H637 0.985 . S
H634 N629 0.984 . S
H635 N629 0.985 . S
H636 N633 0.984 . S
H637 N633 0.985 . S
H638 N632 0.984 . S
H639 N632 0.984 . S
H640 N628 0.984 . S
H641 N628 0.985 1_455 S
C642 C643 1.363 1_545 S
C642 C648 1.379 . S
C642 N650 1.356 . S
C643 C642 1.363 1_565 S
C643 C649 1.363 . S
C644 C645 1.363 . S
C644 C649 1.379 1_545 S
C644 N651 1.356 1_554 S
C645 C644 1.363 . S
C645 C648 1.363 . S
N646 C648 1.356 . S
N646 H658 0.984 . S
N646 H659 0.985 . S
N647 C649 1.356 . S
N647 H652 0.984 . S
N647 H653 0.985 . S
C648 C642 1.379 . S
C648 C645 1.363 . S
C648 N646 1.356 . S
C649 C643 1.363 . S
C649 C644 1.379 1_565 S
C649 N647 1.356 . S
N650 C642 1.356 . S
N650 H656 0.984 . S
N650 H657 0.984 1_545 S
N651 C644 1.356 1_556 S
N651 H654 0.984 . S
N651 H655 0.985 1_545 S
H652 N647 0.984 . S
H653 N647 0.985 . S
H654 N651 0.984 . S
H655 N651 0.985 1_565 S
H656 N650 0.984 . S
H657 N650 0.984 1_565 S
H658 N646 0.984 . S
H659 N646 0.985 . S
C660 C661 1.363 . S
C660 C666 1.379 . S
C660 N668 1.356 . S
C661 C660 1.363 . S
C661 C667 1.363 . S
C662 C663 1.363 . S
C662 C667 1.379 . S
C662 N669 1.356 . S
C663 C662 1.363 . S
C663 C666 1.363 . S
N664 C666 1.356 . S
N664 H676 0.984 . S
N664 H677 0.985 . S
N665 C667 1.356 . S
N665 H670 0.984 . S
N665 H671 0.985 . S
C666 C660 1.379 . S
C666 C663 1.363 . S
C666 N664 1.356 . S
C667 C661 1.363 . S
C667 C662 1.379 . S
C667 N665 1.356 . S
N668 C660 1.356 . S
N668 H674 0.984 . S
N668 H675 0.984 . S
N669 C662 1.356 . S
N669 H672 0.984 . S
N669 H673 0.985 . S
H670 N665 0.984 . S
H671 N665 0.985 . S
H672 N669 0.984 . S
H673 N669 0.985 . S
H674 N668 0.984 . S
H675 N668 0.984 . S
H676 N664 0.984 . S
H677 N664 0.985 . S
C678 C679 1.363 . S
C678 C684 1.379 . S
C678 N686 1.356 . S
C679 C678 1.363 . S
C679 C685 1.363 . S
C680 C681 1.363 . S
C680 C685 1.379 . S
C680 N687 1.356 . S
C681 C680 1.363 . S
C681 C684 1.363 . S
N682 C684 1.356 1_556 S
N682 H694 0.984 . S
N682 H695 0.985 . S
N683 C685 1.356 . S
N683 H688 0.984 . S
N683 H689 0.985 . S
C684 C678 1.379 . S
C684 C681 1.363 . S
C684 N682 1.356 1_554 S
C685 C679 1.363 . S
C685 C680 1.379 . S
C685 N683 1.356 . S
N686 C678 1.356 . S
N686 H692 0.984 . S
N686 H693 0.984 . S
N687 C680 1.356 . S
N687 H690 0.984 . S
N687 H691 0.985 . S
H688 N683 0.984 . S
H689 N683 0.985 . S
H690 N687 0.984 . S
H691 N687 0.985 . S
H692 N686 0.984 . S
H693 N686 0.984 . S
H694 N682 0.984 . S
H695 N682 0.985 . S
C696 C697 1.363 . S
C696 C702 1.379 . S
C696 N704 1.356 . S
C697 C696 1.363 . S
C697 C703 1.363 . S
C698 C699 1.363 . S
C698 C703 1.379 . S
C698 N705 1.356 1_455 S
C699 C698 1.363 . S
C699 C702 1.363 . S
N700 C702 1.356 . S
N700 H712 0.984 1_556 S
N700 H713 0.985 . S
N701 C703 1.356 1_655 S
N701 H706 0.981 1_655 S
N701 H707 0.985 . S
C702 C696 1.379 . S
C702 C699 1.363 . S
C702 N700 1.356 . S
C703 C697 1.363 . S
C703 C698 1.379 . S
C703 N701 1.356 1_455 S
N704 C696 1.356 . S
N704 H710 0.984 1_556 S
N704 H711 0.984 . S
N705 C698 1.356 1_655 S
N705 H708 0.984 1_655 S
N705 H709 0.985 . S
H706 N701 0.981 1_455 S
H707 N701 0.985 . S
H708 N705 0.984 1_455 S
H709 N705 0.985 . S
H710 N704 0.984 1_554 S
H711 N704 0.984 . S
H712 N700 0.984 1_554 S
H713 N700 0.985 . S
C714 C715 1.359 1_565 S
C714 C720 1.379 . S
C714 N722 1.359 . S
C715 C714 1.359 1_545 S
C715 C721 1.363 . S
C716 C717 1.363 . S
C716 C721 1.379 . S
C716 N723 1.356 . S
C717 C716 1.363 . S
C717 C720 1.356 1_545 S
N718 C720 1.362 . S
N718 H730 0.984 . S
N718 H731 0.985 . S
N719 C721 1.356 . S
N719 H724 0.984 . S
N719 H725 0.985 . S
C720 C714 1.379 . S
C720 C717 1.356 1_565 S
C720 N718 1.362 . S
C721 C715 1.363 . S
C721 C716 1.379 . S
C721 N719 1.356 . S
N722 C714 1.359 . S
N722 H728 0.984 . S
N722 H729 0.984 . S
N723 C716 1.356 . S
N723 H726 0.984 . S
N723 H727 0.985 . S
H724 N719 0.984 . S
H725 N719 0.985 . S
H726 N723 0.984 . S
H727 N723 0.985 . S
H728 N722 0.984 . S
H729 N722 0.984 . S
H730 N718 0.984 . S
H731 N718 0.985 . S
C732 C733 1.363 . S
C732 C738 1.379 . S
C732 N740 1.356 . S
C733 C732 1.363 . S
C733 C739 1.363 . S
C734 C735 1.363 . S
C734 C739 1.379 . S
C734 N741 1.356 . S
C735 C734 1.363 . S
C735 C738 1.363 . S
N736 C738 1.356 . S
N736 H748 0.984 1_556 S
N736 H749 0.985 . S
N737 C739 1.356 . S
N737 H742 0.984 . S
N737 H743 0.985 . S
C738 C732 1.379 . S
C738 C735 1.363 . S
C738 N736 1.356 . S
C739 C733 1.363 . S
C739 C734 1.379 . S
C739 N737 1.356 . S
N740 C732 1.356 . S
N740 H746 0.984 1_556 S
N740 H747 0.984 . S
N741 C734 1.356 . S
N741 H744 0.984 . S
N741 H745 0.985 . S
H742 N737 0.984 . S
H743 N737 0.985 . S
H744 N741 0.984 . S
H745 N741 0.985 . S
H746 N740 0.984 1_554 S
H747 N740 0.984 . S
H748 N736 0.984 1_554 S
H749 N736 0.985 . S
C750 C751 1.363 . S
C750 C756 1.379 . S
C750 N758 1.356 . S
C751 C750 1.363 . S
C751 C757 1.363 . S
C752 C753 1.363 . S
C752 C757 1.379 . S
C752 N759 1.356 . S
C753 C752 1.363 . S
C753 C756 1.363 . S
N754 C756 1.356 . S
N754 H766 0.984 . S
N754 H767 0.985 . S
N755 C757 1.356 . S
N755 H760 0.984 . S
N755 H761 0.985 . S
C756 C750 1.379 . S
C756 C753 1.363 . S
C756 N754 1.356 . S
C757 C751 1.363 . S
C757 C752 1.379 . S
C757 N755 1.356 . S
N758 C750 1.356 . S
N758 H764 0.984 . S
N758 H765 0.984 . S
N759 C752 1.356 . S
N759 H762 0.984 . S
N759 H763 0.985 . S
H760 N755 0.984 . S
H761 N755 0.985 . S
H762 N759 0.984 . S
H763 N759 0.985 . S
H764 N758 0.984 . S
H765 N758 0.984 . S
H766 N754 0.984 . S
H767 N754 0.985 . S
C768 C769 1.363 . S
C768 C774 1.379 . S
C768 N776 1.356 . S
C769 C768 1.363 . S
C769 C775 1.363 1_655 S
C770 C771 1.363 1_455 S
C770 C775 1.379 . S
C770 N777 1.356 . S
C771 C770 1.363 1_655 S
C771 C774 1.363 . S
N772 C774 1.356 . S
N772 H784 0.984 . S
N772 H785 0.985 . S
N773 C775 1.356 . S
N773 H778 0.984 . S
N773 H779 0.985 . S
C774 C768 1.379 . S
C774 C771 1.363 . S
C774 N772 1.356 . S
C775 C769 1.363 1_455 S
C775 C770 1.379 . S
C775 N773 1.356 . S
N776 C768 1.356 . S
N776 H782 0.984 . S
N776 H783 0.984 . S
N777 C770 1.356 . S
N777 H780 0.984 . S
N777 H781 0.985 . S
H778 N773 0.984 . S
H779 N773 0.985 . S
H780 N777 0.984 . S
H781 N777 0.985 . S
H782 N776 0.984 . S
H783 N776 0.984 . S
H784 N772 0.984 . S
H785 N772 0.985 . S
C786 C787 1.363 1_545 S
C786 C792 1.379 . S
C786 N794 1.356 . S
C787 C786 1.363 1_565 S
C787 C793 1.363 . S
C788 C789 1.363 . S
C788 C793 1.379 . S
C788 N795 1.356 . S
C789 C788 1.363 . S
C789 C792 1.363 1_565 S
N790 C792 1.356 . S
N790 H802 0.984 . S
N790 H803 0.985 . S
N791 C793 1.356 . S
N791 H796 0.984 . S
N791 H797 0.985 . S
C792 C786 1.379 . S
C792 C789 1.363 1_545 S
C792 N790 1.356 . S
C793 C787 1.363 . S
C793 C788 1.379 . S
C793 N791 1.356 . S
N794 C786 1.356 . S
N794 H800 0.984 . S
N794 H801 0.984 . S
N795 C788 1.356 . S
N795 H798 0.984 . S
N795 H799 0.985 . S
H796 N791 0.984 . S
H797 N791 0.985 . S
H798 N795 0.984 . S
H799 N795 0.985 . S
H800 N794 0.984 . S
H801 N794 0.984 . S
H802 N790 0.984 . S
H803 N790 0.985 . S
C804 C805 1.363 . S
C804 C810 1.379 . S
C804 N812 1.356 . S
C805 C804 1.363 . S
C805 C811 1.363 . S
C806 C807 1.363 . S
C806 C811 1.379 . S
C806 N813 1.356 . S
C807 C806 1.363 . S
C807 C810 1.363 . S
N808 C810 1.356 . S
N808 H820 0.984 . S
N808 H821 0.985 . S
N809 C811 1.356 . S
N809 H814 0.984 . S
N809 H815 0.985 . S
C810 C804 1.379 . S
C810 C807 1.363 . S
C810 N808 1.356 . S
C811 C805 1.363 . S
C811 C806 1.379 . S
C811 N809 1.356 . S
N812 C804 1.356 . S
N812 H818 0.984 . S
N812 H819 0.984 . S
N813 C806 1.356 . S
N813 H816 0.984 . S
N813 H817 0.985 . S
H814 N809 0.984 . S
H815 N809 0.985 . S
H816 N813 0.984 . S
H817 N813 0.985 . S
H818 N812 0.984 . S
H819 N812 0.984 . S
H820 N808 0.984 . S
H821 N808 0.985 . S
C822 C823 1.363 . S
C822 C828 1.379 . S
C822 N830 1.356 . S
C823 C822 1.363 . S
C823 C829 1.363 . S
C824 C825 1.363 . S
C824 C829 1.379 . S
C824 N831 1.356 . S
C825 C824 1.363 . S
C825 C828 1.363 . S
N826 C828 1.356 . S
N826 H838 0.984 . S
N826 H839 0.985 . S
N827 C829 1.356 . S
N827 H832 0.984 . S
N827 H833 0.985 . S
C828 C822 1.379 . S
C828 C825 1.363 . S
C828 N826 1.356 . S
C829 C823 1.363 . S
C829 C824 1.379 . S
C829 N827 1.356 . S
N830 C822 1.356 . S
N830 H836 0.984 . S
N830 H837 0.984 . S
N831 C824 1.356 . S
N831 H834 0.984 . S
N831 H835 0.985 . S
H832 N827 0.984 . S
H833 N827 0.985 . S
H834 N831 0.984 . S
H835 N831 0.985 . S
H836 N830 0.984 . S
H837 N830 0.984 . S
H838 N826 0.984 . S
H839 N826 0.985 . S
C409 C61 2.008 . S
C411 C135 2.220 . S
C429 C212 2.226 . S
C427 C70 2.026 . S
C447 C303 2.220 . S
C445 C43 2.006 . S
C465 C387 2.209 . S
C463 C52 1.999 . S
C483 C146 2.220 1_565 S
C481 C25 2.010 . S
C499 C34 2.025 . S
C501 C223 2.231 . S
C517 C7 2.008 . S
C519 C314 2.220 . S
C535 C16 2.000 . S
C537 C398 2.209 1_655 S
C555 C130 0.778 . S
C553 C50 0.773 . S
C573 C225 0.759 . S
C571 C59 0.759 . S
C591 C298 0.789 . S
C589 C67 0.782 . S
C607 C41 0.766 . S
C609 C382 0.770 . S
C625 C14 0.774 . S
C627 C141 0.778 . S
C645 C214 0.759 . S
C643 C23 0.760 . S
C663 C309 0.789 . S
C661 C31 0.781 . S
C679 C5 0.766 . S
C681 C393 0.770 . S
C697 C49 2.059 . S
C699 C139 2.341 . S
C715 C58 2.059 . S
C717 C230 2.361 . S
C735 C307 2.353 . S
C733 C68 2.067 . S
C753 C391 2.357 . S
C751 C40 2.074 . S
C769 C13 2.059 . S
C771 C128 2.341 . S
C789 C219 2.361 . S
C787 C22 2.059 . S
C807 C296 2.353 . S
C805 C32 2.067 . S
C823 C4 2.074 . S
C825 C380 2.357 . S
