# Generated by pormake.
# Topology anh, (6,3)-cn, num edge types: 1
# Building blocks:
#     Node 0, Type 0, BuildingBlock: BETDEL_clean_sbu_0, # of connection points: 6
#     Node 1, Type 0, BuildingBlock: BETDEL_clean_sbu_0, # of connection points: 6
#     Node 2, Type 0, BuildingBlock: BETDEL_clean_sbu_0, # of connection points: 6
#     Node 3, Type 1, BuildingBlock: BELTOD_clean_linker_0, # of connection points: 3
#     Node 4, Type 1, BuildingBlock: BELTOD_clean_linker_0, # of connection points: 3
#     Node 5, Type 1, BuildingBlock: BELTOD_clean_linker_0, # of connection points: 3
#     Node 6, Type 1, BuildingBlock: BELTOD_clean_linker_0, # of connection points: 3
#     Node 7, Type 1, BuildingBlock: BELTOD_clean_linker_0, # of connection points: 3
#     Node 8, Type 1, BuildingBlock: BELTOD_clean_linker_0, # of connection points: 3
#     Edge 9, Type (0, 1), BuildingBlock: TEMPAE_clean_linker_10, # of connection points: 2
#     Edge 10, Type (0, 1), BuildingBlock: TEMPAE_clean_linker_10, # of connection points: 2
#     Edge 11, Type (0, 1), BuildingBlock: TEMPAE_clean_linker_10, # of connection points: 2
#     Edge 12, Type (0, 1), BuildingBlock: TEMPAE_clean_linker_10, # of connection points: 2
#     Edge 13, Type (0, 1), BuildingBlock: TEMPAE_clean_linker_10, # of connection points: 2
#     Edge 14, Type (0, 1), BuildingBlock: TEMPAE_clean_linker_10, # of connection points: 2
#     Edge 15, Type (0, 1), BuildingBlock: TEMPAE_clean_linker_10, # of connection points: 2
#     Edge 16, Type (0, 1), BuildingBlock: TEMPAE_clean_linker_10, # of connection points: 2
#     Edge 17, Type (0, 1), BuildingBlock: TEMPAE_clean_linker_10, # of connection points: 2
#     Edge 18, Type (0, 1), BuildingBlock: TEMPAE_clean_linker_10, # of connection points: 2
#     Edge 19, Type (0, 1), BuildingBlock: TEMPAE_clean_linker_10, # of connection points: 2
#     Edge 20, Type (0, 1), BuildingBlock: TEMPAE_clean_linker_10, # of connection points: 2
#     Edge 21, Type (0, 1), BuildingBlock: TEMPAE_clean_linker_10, # of connection points: 2
#     Edge 22, Type (0, 1), BuildingBlock: TEMPAE_clean_linker_10, # of connection points: 2
#     Edge 23, Type (0, 1), BuildingBlock: TEMPAE_clean_linker_10, # of connection points: 2
#     Edge 24, Type (0, 1), BuildingBlock: TEMPAE_clean_linker_10, # of connection points: 2
#     Edge 25, Type (0, 1), BuildingBlock: TEMPAE_clean_linker_10, # of connection points: 2
#     Edge 26, Type (0, 1), BuildingBlock: TEMPAE_clean_linker_10, # of connection points: 2
# Relax obj value: 0.131
# Max RMSD: 0.159
# Mean RMSD: 0.124
data_MOF--net-anh--node1-BETDEL_clean_sbu_0--node2-BELTOD_clean_linker_0--edge1-TEMPAE_clean_linker_10
_symmetry_space_group_name_H-M    P1
_symmetry_Int_Tables_number       1
_symmetry_cell_setting            triclinic
loop_
_symmetry_equiv_pos_as_xyz
'x, y, z'
_cell_length_a     34.089276
_cell_length_b     34.109168
_cell_length_c     59.400239
_cell_angle_alpha  90.257543
_cell_angle_beta   90.08726
_cell_angle_gamma 120.00598
loop_
_atom_site_label
_atom_site_type_symbol
_atom_site_fract_x
_atom_site_fract_y
_atom_site_fract_z
_atom_type_partial_charge
Dy0 Dy 0.05042 0.49855 0.15948 0.0
C1 C 0.93644 0.56388 0.19068 0.0
C2 C 0.10959 0.47724 0.13959 0.0
Dy3 Dy 0.99875 0.54388 0.1732 0.0
O4 O 0.08028 0.45328 0.15487 0.0
O5 O 0.1057 0.51219 0.13474 0.0
O6 O 0.03913 0.46471 0.19287 0.0
O7 O 0.04518 0.52884 0.19128 0.0
C8 C 0.0358 0.49574 0.20391 0.0
C9 C 0.01399 0.54547 0.1287 0.0
O10 O 0.06801 0.60064 0.18233 0.0
O11 O 0.10415 0.57303 0.15987 0.0
O12 O 0.94216 0.53069 0.19691 0.0
O13 O 0.96629 0.58735 0.1755 0.0
O14 O 0.01261 0.57779 0.1395 0.0
O15 O 1.00342 0.5126 0.14161 0.0
O16 O 0.98024 0.44057 0.1525 0.0
O17 O 0.94653 0.46968 0.17561 0.0
C18 C 0.10481 0.60644 0.17177 0.0
C19 C 0.94494 0.43534 0.1643 0.0
Dy20 Dy 0.46341 0.0277 0.49969 0.0
C21 C 0.65176 0.13876 0.52006 0.0
C22 C 0.37881 0.96764 0.48405 0.0
Dy23 Dy 0.56514 0.08087 0.5062 0.0
O24 O 0.38766 0.98776 0.50352 0.0
O25 O 0.41617 0.98123 0.47299 0.0
O26 O 0.45301 0.04449 0.53517 0.0
O27 O 0.5091 0.03738 0.52745 0.0
C28 C 0.49099 0.04897 0.54246 0.0
C29 C 0.53906 0.05998 0.46314 0.0
O30 O 0.55311 0.0118 0.51506 0.0
O31 O 0.48243 0.9728 0.49825 0.0
O32 O 0.64002 0.10766 0.50471 0.0
O33 O 0.61598 0.13792 0.5281 0.0
O34 O 0.57639 0.06451 0.47127 0.0
O35 O 0.51978 0.07142 0.47776 0.0
O36 O 0.47278 0.09703 0.49467 0.0
O37 O 0.54622 0.13536 0.50878 0.0
C38 C 0.51864 0.97361 0.5071 0.0
C39 C 0.50876 0.13475 0.502 0.0
Dy40 Dy 0.56831 0.58547 0.83091 0.0
C41 C 0.49288 0.39568 0.84407 0.0
C42 C 0.59676 0.67233 0.81824 0.0
Dy43 Dy 0.51814 0.48316 0.83376 0.0
O44 O 0.61217 0.66077 0.83544 0.0
O45 O 0.56619 0.63644 0.80779 0.0
O46 O 0.59548 0.59185 0.866 0.0
O47 O 0.53174 0.53695 0.85744 0.0
C48 C 0.56189 0.55334 0.87246 0.0
C49 C 0.52491 0.51609 0.79218 0.0
O50 O 0.45928 0.49258 0.84193 0.0
O51 O 0.4947 0.56786 0.83092 0.0
O52 O 0.4842 0.40909 0.82526 0.0
O53 O 0.51415 0.4301 0.85755 0.0
O54 O 0.49014 0.47901 0.79919 0.0
O55 O 0.55555 0.5318 0.80705 0.0
O56 O 0.62677 0.57472 0.82347 0.0
O57 O 0.59136 0.50118 0.83664 0.0
C58 C 0.4578 0.52978 0.83705 0.0
C59 C 0.62839 0.5385 0.83018 0.0
P60 P 0.54663 0.99827 0.22398 0.0
H61 H 0.52143 0.91695 0.19708 0.0
H62 H 0.4478 0.85593 0.18445 0.0
H63 H 0.38724 0.93696 0.20156 0.0
H64 H 0.46144 0.99826 0.21435 0.0
H65 H 0.64009 0.05434 0.237 0.0
H66 H 0.70293 0.12382 0.22301 0.0
H67 H 0.61865 0.12398 0.16851 0.0
H68 H 0.55423 0.05487 0.18391 0.0
H69 H 0.47062 0.94244 0.25343 0.0
H70 H 0.58366 0.0791 0.25384 0.0
O71 O 0.56973 0.96677 0.23079 0.0
H72 H 0.4515 0.953 0.29159 0.0
H73 H 0.56728 0.08863 0.29246 0.0
C74 C 0.49704 0.96212 0.20699 0.0
C75 C 0.49271 0.92231 0.19758 0.0
C76 C 0.45038 0.88712 0.19054 0.0
C77 C 0.41139 0.89109 0.1925 0.0
C78 C 0.41653 0.93271 0.19991 0.0
C79 C 0.45904 0.96794 0.20711 0.0
C80 C 0.59237 0.04915 0.21152 0.0
C81 C 0.635 0.06916 0.22197 0.0
C82 C 0.67135 0.109 0.21371 0.0
C83 C 0.66679 0.12982 0.19424 0.0
C84 C 0.62378 0.10947 0.18361 0.0
C85 C 0.58683 0.06965 0.19228 0.0
C86 C 0.52843 0.00998 0.25052 0.0
C87 C 0.49104 0.975 0.26157 0.0
C88 C 0.48053 0.98088 0.28363 0.0
C89 C 0.50809 0.02151 0.29545 0.0
C90 C 0.5447 0.05703 0.28399 0.0
C91 C 0.55455 0.0514 0.26176 0.0
P92 P 0.58156 0.58471 0.5477 0.0
H93 H 0.60022 0.54577 0.50814 0.0
H94 H 0.57591 0.46792 0.4974 0.0
H95 H 0.47587 0.42009 0.55032 0.0
H96 H 0.50167 0.49846 0.56143 0.0
H97 H 0.63524 0.67811 0.53281 0.0
H98 H 0.61654 0.73565 0.52239 0.0
H99 H 0.4742 0.6383 0.52904 0.0
H100 H 0.49327 0.57968 0.539 0.0
H101 H 0.63328 0.571 0.5827 0.0
H102 H 0.5169 0.58904 0.57944 0.0
O103 O 0.63659 0.60615 0.54226 0.0
H104 H 0.62687 0.5655 0.62361 0.0
H105 H 0.50957 0.58246 0.62028 0.0
C106 C 0.55332 0.52811 0.53581 0.0
C107 C 0.57235 0.51859 0.51714 0.0
C108 C 0.55823 0.47377 0.51096 0.0
C109 C 0.52432 0.43729 0.5232 0.0
C110 C 0.50284 0.44714 0.54083 0.0
C111 C 0.51723 0.49208 0.54707 0.0
C112 C 0.56568 0.62424 0.53653 0.0
C113 C 0.59987 0.66849 0.53154 0.0
C114 C 0.58915 0.70161 0.52558 0.0
C115 C 0.5439 0.69163 0.52485 0.0
C116 C 0.50942 0.64706 0.52952 0.0
C117 C 0.52024 0.61351 0.5351 0.0
C118 C 0.57625 0.58148 0.57797 0.0
C119 C 0.60646 0.57404 0.59078 0.0
C120 C 0.6025 0.57049 0.61419 0.0
C121 C 0.56781 0.57374 0.62529 0.0
C122 C 0.53722 0.58069 0.61234 0.0
C123 C 0.54131 0.58433 0.58889 0.0
P124 P 0.07535 0.59462 0.88419 0.0
H125 H 0.12752 0.61073 0.84281 0.0
H126 H 0.18398 0.5899 0.83192 0.0
H127 H 0.14414 0.49807 0.88809 0.0
H128 H 0.08802 0.51897 0.89887 0.0
H129 H 0.03078 0.64736 0.88571 0.0
H130 H 0.95648 0.63355 0.87407 0.0
H131 H 0.92559 0.50383 0.84644 0.0
H132 H 1.00127 0.51831 0.85815 0.0
H133 H 0.13178 0.63989 0.92354 0.0
H134 H 1.00212 0.52159 0.91004 0.0
O135 O 0.11123 0.65011 0.88168 0.0
H136 H 0.12122 0.62452 0.96379 0.0
H137 H 0.99179 0.50499 0.95034 0.0
C138 C 0.10372 0.56691 0.8718 0.0
C139 C 0.12986 0.58498 0.85234 0.0
C140 C 0.16232 0.57313 0.84617 0.0
C141 C 0.16931 0.54301 0.85942 0.0
C142 C 0.14036 0.52213 0.8778 0.0
C143 C 0.10783 0.53384 0.88388 0.0
C144 C 0.02199 0.58429 0.87242 0.0
C145 C 0.00846 0.6162 0.8768 0.0
C146 C 0.96563 0.60804 0.87035 0.0
C147 C 0.93482 0.56744 0.85947 0.0
C148 C 0.94865 0.5356 0.85466 0.0
C149 C 0.99184 0.54381 0.8613 0.0
C150 C 0.06726 0.5825 0.91387 0.0
C151 C 0.10098 0.61056 0.92926 0.0
C152 C 0.0951 0.60139 0.95229 0.0
C153 C 0.05557 0.56353 0.96038 0.0
C154 C 0.02227 0.53486 0.94476 0.0
C155 C 0.02814 0.54425 0.92171 0.0
P156 P 0.08222 0.49257 0.44863 0.0
H157 H 0.17723 0.55934 0.45481 0.0
H158 H 0.21631 0.64022 0.46305 0.0
H159 H 0.08734 0.63433 0.47055 0.0
H160 H 0.04838 0.55314 0.46185 0.0
H161 H 0.99655 0.41609 0.43349 0.0
H162 H 0.92616 0.36607 0.45281 0.0
H163 H 0.98195 0.44052 0.51476 0.0
H164 H 0.053 0.49073 0.49519 0.0
H165 H 0.12312 0.47597 0.40905 0.0
H166 H 0.02277 0.51444 0.42294 0.0
O167 O 0.11551 0.47051 0.45329 0.0
H168 H 0.11252 0.48064 0.36869 0.0
H169 H 0.01271 0.52032 0.38254 0.0
C170 C 0.11002 0.55017 0.45827 0.0
C171 C 0.15736 0.57522 0.45872 0.0
C172 C 0.17963 0.62148 0.46345 0.0
C173 C 0.15489 0.64362 0.46763 0.0
C174 C 0.10729 0.61824 0.46733 0.0
C175 C 0.08503 0.57184 0.46258 0.0
C176 C 0.02944 0.45798 0.46275 0.0
C177 C 0.99348 0.42233 0.45111 0.0
C178 C 0.95318 0.39374 0.46218 0.0
C179 C 0.9483 0.39985 0.48522 0.0
C180 C 0.98473 0.43519 0.49698 0.0
C181 C 0.02512 0.464 0.4858 0.0
C182 C 0.07335 0.49437 0.41891 0.0
C183 C 0.09874 0.48535 0.4034 0.0
C184 C 0.09293 0.48845 0.38033 0.0
C185 C 0.06185 0.50099 0.3724 0.0
C186 C 0.03653 0.51009 0.38809 0.0
C187 C 0.04237 0.50693 0.41116 0.0
P188 P 0.67392 0.1277 0.77276 0.0
H189 H 0.70835 0.1959 0.80859 0.0
H190 H 0.67297 0.23005 0.83102 0.0
H191 H 0.54342 0.1381 0.8007 0.0
H192 H 0.57875 0.10405 0.77845 0.0
H193 H 0.73603 0.09248 0.77149 0.0
H194 H 0.72741 0.01909 0.78079 0.0
H195 H 0.58969 0.9725 0.80194 0.0
H196 H 0.59971 0.04691 0.79388 0.0
H197 H 0.70481 0.18246 0.73187 0.0
H198 H 0.59028 0.05555 0.75223 0.0
O199 O 0.72889 0.1665 0.77162 0.0
H200 H 0.67327 0.17136 0.69395 0.0
H201 H 0.55715 0.04552 0.71494 0.0
C202 C 0.64644 0.14813 0.79143 0.0
C203 C 0.67225 0.18274 0.80693 0.0
C204 C 0.65203 0.2022 0.81977 0.0
C205 C 0.60552 0.18695 0.81747 0.0
C206 C 0.57926 0.15034 0.80295 0.0
C207 C 0.59959 0.13112 0.79003 0.0
C208 C 0.66871 0.07534 0.78223 0.0
C209 C 0.70431 0.06676 0.77859 0.0
C210 C 0.69909 0.02448 0.78364 0.0
C211 C 0.6577 0.98957 0.79196 0.0
C212 C 0.62229 0.99866 0.7959 0.0
C213 C 0.62786 0.04124 0.79118 0.0
C214 C 0.65022 0.11961 0.74485 0.0
C215 C 0.67276 0.1523 0.72824 0.0
C216 C 0.65436 0.14612 0.70658 0.0
C217 C 0.61258 0.10745 0.70126 0.0
C218 C 0.58979 0.07523 0.71819 0.0
C219 C 0.60861 0.08111 0.73968 0.0
P220 P 0.4974 0.41287 0.10783 0.0
H221 H 0.53044 0.39826 0.15048 0.0
H222 H 0.60318 0.44055 0.17029 0.0
H223 H 0.65003 0.54457 0.1197 0.0
H224 H 0.57649 0.50315 0.1004 0.0
H225 H 0.418 0.37091 0.13735 0.0
H226 H 0.35621 0.38701 0.14347 0.0
H227 H 0.42471 0.50548 0.1017 0.0
H228 H 0.48728 0.49034 0.09625 0.0
H229 H 0.57492 0.43491 0.07786 0.0
H230 H 0.43555 0.40163 0.07112 0.0
O231 O 0.47744 0.35833 0.11367 0.0
H232 H 0.58649 0.45228 0.03758 0.0
H233 H 0.44687 0.41865 0.03107 0.0
C234 C 0.5489 0.44671 0.12349 0.0
C235 C 0.55612 0.43044 0.14379 0.0
C236 C 0.59742 0.45473 0.1552 0.0
C237 C 0.63203 0.49549 0.14635 0.0
C238 C 0.62378 0.51304 0.12672 0.0
C239 C 0.58206 0.4892 0.1156 0.0
C240 C 0.4566 0.42894 0.11596 0.0
C241 C 0.42019 0.40084 0.12989 0.0
C242 C 0.38501 0.41001 0.13339 0.0
C243 C 0.38579 0.44707 0.12278 0.0
C244 C 0.42345 0.47653 0.10986 0.0
C245 C 0.45905 0.46792 0.1068 0.0
C246 C 0.50511 0.41958 0.07776 0.0
C247 C 0.54688 0.43149 0.06779 0.0
C248 C 0.55334 0.44094 0.04474 0.0
C249 C 0.51786 0.43793 0.03135 0.0
C250 C 0.47516 0.42253 0.04112 0.0
C251 C 0.46874 0.41291 0.06405 0.0
C252 C 0.14556 0.42954 0.13598 0.0
C253 C 0.14771 0.4712 0.13279 0.0
C254 C 0.18386 0.42505 0.13259 0.0
C255 C 0.22545 0.46351 0.12654 0.0
C256 C 0.22738 0.50537 0.12266 0.0
C257 C 0.18821 0.50854 0.12554 0.0
C258 C 0.18017 0.37954 0.13624 0.0
C259 C 0.27129 0.54734 0.11665 0.0
C260 C 0.33186 0.46217 0.14421 0.0
C261 C 0.34584 0.45292 0.12374 0.0
C262 C 0.29319 0.46669 0.14526 0.0
C263 C 0.2674 0.46048 0.12545 0.0
C264 C 0.28141 0.45082 0.10475 0.0
C265 C 0.32088 0.44771 0.10411 0.0
C266 C 0.2799 0.47805 0.16754 0.0
C267 C 0.25422 0.44287 0.08342 0.0
H268 H 0.11415 0.40068 0.14157 0.0
H269 H 0.18996 0.54091 0.1233 0.0
H270 H 0.19447 0.37055 0.12165 0.0
H271 H 0.20015 0.3811 0.15132 0.0
H272 H 0.14456 0.35219 0.1387 0.0
H273 H 0.2666 0.57673 0.11321 0.0
H274 H 0.29584 0.55642 0.13073 0.0
H275 H 0.28657 0.54093 0.10163 0.0
H276 H 0.35144 0.46618 0.15933 0.0
H277 H 0.33175 0.4401 0.08834 0.0
H278 H 0.2463 0.45001 0.17273 0.0
H279 H 0.27685 0.50881 0.16585 0.0
H280 H 0.30482 0.484 0.18109 0.0
H281 H 0.21942 0.41392 0.08574 0.0
H282 H 0.26975 0.4356 0.06872 0.0
H283 H 0.25108 0.47297 0.07958 0.0
C284 C 0.73391 0.17419 0.51243 0.0
C285 C 0.69859 0.17559 0.52367 0.0
C286 C 0.77687 0.21281 0.51108 0.0
C287 C 0.78452 0.25368 0.52127 0.0
C288 C 0.75018 0.25401 0.5345 0.0
C289 C 0.70736 0.21478 0.53552 0.0
C290 C 0.81268 0.21085 0.49696 0.0
C291 C 0.75733 0.29665 0.54599 0.0
C292 C 0.90667 0.34815 0.51731 0.0
C293 C 0.90571 0.36792 0.4968 0.0
C294 C 0.86676 0.31273 0.52651 0.0
C295 C 0.82529 0.29676 0.5148 0.0
C296 C 0.8238 0.31882 0.49495 0.0
C297 C 0.86402 0.35423 0.48625 0.0
C298 C 0.8695 0.29062 0.54794 0.0
C299 C 0.78019 0.3031 0.48201 0.0
H300 H 0.72723 0.14368 0.50347 0.0
H301 H 0.68007 0.21577 0.54437 0.0
H302 H 0.8176 0.23005 0.48118 0.0
H303 H 0.84559 0.22683 0.50602 0.0
H304 H 0.80325 0.17556 0.49244 0.0
H305 H 0.73177 0.28917 0.55934 0.0
H306 H 0.79169 0.31569 0.55356 0.0
H307 H 0.75432 0.31891 0.53338 0.0
H308 H 0.93886 0.35866 0.52554 0.0
H309 H 0.86309 0.3702 0.47067 0.0
H310 H 0.86754 0.25793 0.54381 0.0
H311 H 0.84067 0.28322 0.55919 0.0
H312 H 0.9017 0.31217 0.55719 0.0
H313 H 0.76844 0.26879 0.47495 0.0
H314 H 0.78423 0.32614 0.46792 0.0
H315 H 0.75329 0.30071 0.49336 0.0
C316 C 0.6461 0.7556 0.8233 0.0
C317 C 0.60883 0.7191 0.81282 0.0
C318 C 0.65617 0.80023 0.81946 0.0
C319 C 0.62769 0.80827 0.80516 0.0
C320 C 0.59034 0.77145 0.7943 0.0
C321 C 0.58159 0.72724 0.79811 0.0
C322 C 0.69682 0.83871 0.83097 0.0
C323 C 0.55885 0.77865 0.77919 0.0
C324 C 0.62489 0.91713 0.81387 0.0
C325 C 0.65098 0.94347 0.79574 0.0
C326 C 0.61692 0.87302 0.81707 0.0
C327 C 0.63621 0.85507 0.80205 0.0
C328 C 0.66321 0.88164 0.78396 0.0
C329 C 0.66987 0.9253 0.78089 0.0
C330 C 0.58751 0.84547 0.83643 0.0
C331 C 0.68478 0.86381 0.76775 0.0
H332 H 0.66724 0.74924 0.83463 0.0
H333 H 0.5526 0.69893 0.7901 0.0
H334 H 0.71913 0.86384 0.81834 0.0
H335 H 0.68562 0.85645 0.84276 0.0
H336 H 0.71694 0.8269 0.84056 0.0
H337 H 0.5426 0.79445 0.78896 0.0
H338 H 0.57822 0.80221 0.76539 0.0
H339 H 0.53187 0.74649 0.77166 0.0
H340 H 0.61073 0.93103 0.82565 0.0
H341 H 0.68934 0.9449 0.76657 0.0
H342 H 0.60707 0.83586 0.84784 0.0
H343 H 0.5583 0.81364 0.82997 0.0
H344 H 0.57441 0.86412 0.84637 0.0
H345 H 0.70584 0.8529 0.77713 0.0
H346 H 0.70641 0.88948 0.75513 0.0
H347 H 0.65814 0.83366 0.75872 0.0
C348 C 0.85428 0.52356 0.19892 0.0
C349 C 0.89355 0.56402 0.1934 0.0
C350 C 0.81128 0.5179 0.19467 0.0
C351 C 0.80767 0.55419 0.18543 0.0
C352 C 0.84721 0.59688 0.18254 0.0
C353 C 0.88989 0.60109 0.18617 0.0
C354 C 0.77019 0.47155 0.19765 0.0
C355 C 0.84467 0.63698 0.17375 0.0
C356 C 0.71297 0.51805 0.14277 0.0
C357 C 0.67816 0.51622 0.15596 0.0
C358 C 0.75566 0.5316 0.15209 0.0
C359 C 0.76408 0.54491 0.17505 0.0
C360 C 0.72971 0.54562 0.18811 0.0
C361 C 0.68668 0.53031 0.17851 0.0
C362 C 0.79095 0.52939 0.13763 0.0
C363 C 0.73789 0.56117 0.21235 0.0
H364 H 0.85702 0.49479 0.2045 0.0
H365 H 0.9203 0.63255 0.18207 0.0
H366 H 0.74282 0.47397 0.20643 0.0
H367 H 0.75693 0.45612 0.18085 0.0
H368 H 0.77815 0.44854 0.20729 0.0
H369 H 0.87641 0.66933 0.17725 0.0
H370 H 0.83925 0.63355 0.15526 0.0
H371 H 0.81578 0.63856 0.18136 0.0
H372 H 0.70603 0.50665 0.12539 0.0
H373 H 0.65957 0.52888 0.18864 0.0
H374 H 0.80019 0.50525 0.14502 0.0
H375 H 0.82218 0.56301 0.13708 0.0
H376 H 0.77894 0.51844 0.12009 0.0
H377 H 0.73821 0.53469 0.22299 0.0
H378 H 0.71116 0.56784 0.21875 0.0
H379 H 0.77134 0.59239 0.21432 0.0
C380 C 0.33369 0.90077 0.4595 0.0
C381 C 0.33568 0.92691 0.47816 0.0
C382 C 0.29773 0.85637 0.45684 0.0
C383 C 0.26285 0.83813 0.47312 0.0
C384 C 0.26235 0.86611 0.49066 0.0
C385 C 0.29907 0.91028 0.49306 0.0
C386 C 0.29947 0.8277 0.43784 0.0
C387 C 0.22517 0.84822 0.50801 0.0
C388 C 0.16491 0.72044 0.46017 0.0
C389 C 0.17914 0.69335 0.47119 0.0
C390 C 0.19068 0.76788 0.46144 0.0
C391 C 0.23172 0.78845 0.47383 0.0
C392 C 0.24513 0.76122 0.48579 0.0
C393 C 0.21852 0.71404 0.48442 0.0
C394 C 0.17507 0.79585 0.44872 0.0
C395 C 0.28866 0.78185 0.49927 0.0
H396 H 0.36187 0.91375 0.44786 0.0
H397 H 0.30041 0.93069 0.50741 0.0
H398 H 0.30801 0.80268 0.44475 0.0
H399 H 0.266 0.80851 0.42941 0.0
H400 H 0.32527 0.84838 0.42505 0.0
H401 H 0.22501 0.87602 0.51775 0.0
H402 H 0.19153 0.82735 0.49994 0.0
H403 H 0.23024 0.82621 0.51996 0.0
H404 H 0.13463 0.70465 0.44979 0.0
H405 H 0.22914 0.69321 0.49333 0.0
H406 H 0.19696 0.81113 0.4338 0.0
H407 H 0.17808 0.82402 0.45939 0.0
H408 H 0.13943 0.7752 0.44285 0.0
H409 H 0.31798 0.80061 0.48789 0.0
H410 H 0.29314 0.75595 0.50836 0.0
H411 H 0.28932 0.80647 0.51174 0.0
C412 C 0.51251 0.3452 0.86553 0.0
C413 C 0.49275 0.35268 0.84653 0.0
C414 C 0.52483 0.31159 0.86526 0.0
C415 C 0.51772 0.28566 0.84543 0.0
C416 C 0.4934 0.28998 0.82717 0.0
C417 C 0.48086 0.32329 0.82804 0.0
C418 C 0.54931 0.30697 0.88536 0.0
C419 C 0.48502 0.26299 0.80569 0.0
C420 C 0.6076 0.25951 0.82587 0.0
C421 C 0.58547 0.21234 0.82801 0.0
C422 C 0.58666 0.28397 0.8326 0.0
C423 C 0.54259 0.2607 0.84192 0.0
C424 C 0.52121 0.21344 0.84548 0.0
C425 C 0.54274 0.18966 0.83823 0.0
C426 C 0.61066 0.33438 0.82838 0.0
C427 C 0.47485 0.18771 0.85596 0.0
H428 H 0.52132 0.36765 0.87998 0.0
H429 H 0.46519 0.32877 0.81341 0.0
H430 H 0.53884 0.27096 0.88834 0.0
H431 H 0.5863 0.32549 0.88213 0.0
H432 H 0.54296 0.32131 0.90085 0.0
H433 H 0.46089 0.26617 0.7943 0.0
H434 H 0.51754 0.27529 0.79665 0.0
H435 H 0.47149 0.22666 0.80943 0.0
H436 H 0.64039 0.27711 0.81774 0.0
H437 H 0.52577 0.1532 0.84011 0.0
H438 H 0.6117 0.35285 0.84398 0.0
H439 H 0.59175 0.34192 0.81551 0.0
H440 H 0.64592 0.34773 0.82238 0.0
H441 H 0.47225 0.20648 0.87066 0.0
H442 H 0.46683 0.15342 0.86147 0.0
H443 H 0.44887 0.18387 0.84351 0.0
C444 C 0.55295 0.92862 0.52217 0.0
C445 C 0.51938 0.93042 0.50924 0.0
C446 C 0.55403 0.8881 0.52441 0.0
C447 C 0.52105 0.84827 0.51326 0.0
C448 C 0.48701 0.84981 0.50021 0.0
C449 C 0.48646 0.89071 0.49844 0.0
C450 C 0.59065 0.88798 0.53869 0.0
C451 C 0.45145 0.80835 0.48787 0.0
C452 C 0.55539 0.75918 0.50272 0.0
C453 C 0.53367 0.72864 0.52035 0.0
C454 C 0.55019 0.79722 0.49973 0.0
C455 C 0.52306 0.80547 0.51491 0.0
C456 C 0.49991 0.774 0.53233 0.0
C457 C 0.50526 0.73584 0.53475 0.0
C458 C 0.57486 0.82934 0.48069 0.0
C459 C 0.47097 0.7816 0.54901 0.0
H460 H 0.5784 0.9589 0.5307 0.0
H461 H 0.4604 0.89162 0.48837 0.0
H462 H 0.57518 0.86188 0.55197 0.0
H463 H 0.61194 0.87908 0.52815 0.0
H464 H 0.61287 0.92131 0.54686 0.0
H465 H 0.42669 0.8148 0.47883 0.0
H466 H 0.46795 0.79682 0.4755 0.0
H467 H 0.43278 0.78024 0.49988 0.0
H468 H 0.57707 0.7536 0.4914 0.0
H469 H 0.48874 0.71267 0.54855 0.0
H470 H 0.60083 0.8626 0.48762 0.0
H471 H 0.55089 0.83515 0.47055 0.0
H472 H 0.59189 0.81645 0.46939 0.0
H473 H 0.49254 0.81264 0.55904 0.0
H474 H 0.45304 0.7527 0.56072 0.0
H475 H 0.4455 0.787 0.54005 0.0
C476 C 0.71335 0.57918 0.82594 0.0
C477 C 0.67275 0.53974 0.83134 0.0
C478 C 0.75559 0.58169 0.82885 0.0
C479 C 0.7575 0.54394 0.83744 0.0
C480 C 0.71657 0.50355 0.8422 0.0
C481 C 0.67485 0.50191 0.83907 0.0
C482 C 0.79832 0.62536 0.82346 0.0
C483 C 0.71686 0.46246 0.85136 0.0
C484 C 0.86845 0.54177 0.83277 0.0
C485 C 0.88825 0.55858 0.85395 0.0
C486 C 0.82582 0.5365 0.82714 0.0
C487 C 0.80221 0.54791 0.84313 0.0
C488 C 0.82159 0.56374 0.86471 0.0
C489 C 0.86419 0.56889 0.86981 0.0
C490 C 0.80647 0.51961 0.80394 0.0
C491 C 0.79752 0.57576 0.88241 0.0
H492 H 0.71229 0.60857 0.81991 0.0
H493 H 0.64384 0.47111 0.84323 0.0
H494 H 0.81775 0.64065 0.83918 0.0
H495 H 0.82026 0.61867 0.81218 0.0
H496 H 0.79114 0.65034 0.81528 0.0
H497 H 0.68216 0.43302 0.85327 0.0
H498 H 0.73637 0.45258 0.84005 0.0
H499 H 0.7339 0.47062 0.86804 0.0
H500 H 0.88688 0.53397 0.82037 0.0
H501 H 0.87881 0.58114 0.88636 0.0
H502 H 0.80263 0.54599 0.79498 0.0
H503 H 0.77224 0.4893 0.8052 0.0
H504 H 0.82821 0.51079 0.79369 0.0
H505 H 0.79235 0.60351 0.87625 0.0
H506 H 0.81669 0.58669 0.89853 0.0
H507 H 0.76356 0.54619 0.88572 0.0
C508 C 0.15486 0.68108 0.1913 0.0
C509 C 0.14833 0.65015 0.17401 0.0
C510 C 0.19667 0.72144 0.1941 0.0
C511 C 0.23276 0.73167 0.17903 0.0
C512 C 0.22591 0.70111 0.1612 0.0
C513 C 0.18407 0.66069 0.15903 0.0
C514 C 0.20262 0.75257 0.21356 0.0
C515 C 0.26307 0.71077 0.14456 0.0
C516 C 0.33213 0.85342 0.17614 0.0
C517 C 0.36549 0.85063 0.18876 0.0
C518 C 0.28888 0.81507 0.17274 0.0
C519 C 0.27834 0.77307 0.18255 0.0
C520 C 0.31175 0.77035 0.19557 0.0
C521 C 0.3548 0.80892 0.19837 0.0
C522 C 0.25461 0.81936 0.15844 0.0
C523 C 0.30197 0.72664 0.20667 0.0
H524 H 0.12761 0.67324 0.20303 0.0
H525 H 0.17937 0.63728 0.1455 0.0
H526 H 0.22962 0.7552 0.225 0.0
H527 H 0.21358 0.78713 0.20733 0.0
H528 H 0.17099 0.74054 0.2234 0.0
H529 H 0.25157 0.68502 0.13087 0.0
H530 H 0.27557 0.74459 0.13692 0.0
H531 H 0.29214 0.71149 0.15336 0.0
H532 H 0.34013 0.88545 0.16861 0.0
H533 H 0.38005 0.80661 0.20849 0.0
H534 H 0.22364 0.80992 0.16838 0.0
H535 H 0.2444 0.7956 0.14394 0.0
H536 H 0.26797 0.85424 0.15195 0.0
H537 H 0.27214 0.71456 0.21786 0.0
H538 H 0.33113 0.7304 0.21677 0.0
H539 H 0.29352 0.70006 0.1937 0.0
C540 C 0.54785 0.21911 0.50689 0.0
C541 C 0.5077 0.17791 0.503 0.0
C542 C 0.54764 0.26005 0.50909 0.0
C543 C 0.5062 0.26012 0.5076 0.0
C544 C 0.46557 0.2188 0.50335 0.0
C545 C 0.46682 0.17827 0.501 0.0
C546 C 0.59187 0.30324 0.51337 0.0
C547 C 0.42063 0.21726 0.50182 0.0
C548 C 0.50674 0.3602 0.53679 0.0
C549 C 0.51443 0.38982 0.5188 0.0
C550 C 0.50209 0.31724 0.53325 0.0
C551 C 0.50563 0.30336 0.5112 0.0
C552 C 0.51186 0.33233 0.49287 0.0
C553 C 0.51596 0.37498 0.49686 0.0
C554 C 0.49519 0.28741 0.5533 0.0
C555 C 0.51589 0.31899 0.46908 0.0
H556 H 0.57973 0.21946 0.50835 0.0
H557 H 0.43556 0.1467 0.4981 0.0
H558 H 0.59716 0.32873 0.5004 0.0
H559 H 0.59078 0.31774 0.52995 0.0
H560 H 0.62138 0.29778 0.51322 0.0
H561 H 0.39235 0.18287 0.49757 0.0
H562 H 0.41308 0.22803 0.51812 0.0
H563 H 0.42212 0.24129 0.48886 0.0
H564 H 0.50615 0.37122 0.55385 0.0
H565 H 0.52109 0.39704 0.48275 0.0
H566 H 0.52561 0.28399 0.55576 0.0
H567 H 0.46602 0.25294 0.55031 0.0
H568 H 0.48911 0.30123 0.56904 0.0
H569 H 0.54692 0.31634 0.46758 0.0
H570 H 0.51761 0.34383 0.45652 0.0
H571 H 0.48663 0.28524 0.46489 0.0
C572 C 0.41335 0.57044 0.83821 0.0
C573 C 0.4142 0.52974 0.83936 0.0
C574 C 0.37273 0.57123 0.84084 0.0
C575 C 0.33161 0.53029 0.84449 0.0
C576 C 0.33206 0.48899 0.8453 0.0
C577 C 0.37329 0.48923 0.84286 0.0
C578 C 0.37399 0.6161 0.84009 0.0
C579 C 0.289 0.44454 0.84894 0.0
C580 C 0.23634 0.53846 0.87365 0.0
C581 C 0.20918 0.53679 0.85544 0.0
C582 C 0.2758 0.53582 0.87033 0.0
C583 C 0.28852 0.53102 0.84824 0.0
C584 C 0.2608 0.5284 0.8298 0.0
C585 C 0.22169 0.53161 0.8336 0.0
C586 C 0.30452 0.53935 0.89046 0.0
C587 C 0.27279 0.52276 0.80602 0.0
H588 H 0.44463 0.60199 0.83557 0.0
H589 H 0.37339 0.45754 0.84365 0.0
H590 H 0.35073 0.61534 0.82679 0.0
H591 H 0.36208 0.62239 0.85636 0.0
H592 H 0.40852 0.64482 0.83674 0.0
H593 H 0.29466 0.41519 0.8482 0.0
H594 H 0.27445 0.4448 0.86559 0.0
H595 H 0.26344 0.43977 0.836 0.0
H596 H 0.22751 0.54329 0.89055 0.0
H597 H 0.20082 0.53003 0.81945 0.0
H598 H 0.33867 0.56969 0.88885 0.0
H599 H 0.30913 0.50941 0.89116 0.0
H600 H 0.2894 0.54184 0.90658 0.0
H601 H 0.30571 0.55249 0.80133 0.0
H602 H 0.24672 0.51916 0.79364 0.0
H603 H 0.27679 0.49247 0.80481 0.0
C604 C 0.88999 0.35751 0.14886 0.0
C605 C 0.90318 0.39013 0.16603 0.0
C606 C 0.85028 0.31481 0.15082 0.0
C607 C 0.82398 0.30387 0.17075 0.0
C608 C 0.83747 0.33674 0.18814 0.0
C609 C 0.87633 0.37948 0.18543 0.0
C610 C 0.83643 0.28143 0.13157 0.0
C611 C 0.81151 0.32641 0.20995 0.0
C612 C 0.70136 0.20707 0.17563 0.0
C613 C 0.70679 0.17283 0.18573 0.0
C614 C 0.73912 0.24894 0.16953 0.0
C615 C 0.78362 0.25755 0.1741 0.0
C616 C 0.78937 0.22274 0.18358 0.0
C617 C 0.75119 0.18082 0.18882 0.0
C618 C 0.73132 0.28454 0.15885 0.0
C619 C 0.83595 0.23039 0.18916 0.0
H620 H 0.91034 0.36559 0.13376 0.0
H621 H 0.88643 0.4043 0.19888 0.0
H622 H 0.838 0.25114 0.13694 0.0
H623 H 0.80085 0.26977 0.12661 0.0
H624 H 0.85847 0.29616 0.11662 0.0
H625 H 0.82663 0.35548 0.22191 0.0
H626 H 0.77593 0.31728 0.20658 0.0
H627 H 0.81073 0.29687 0.21817 0.0
H628 H 0.66762 0.20191 0.17314 0.0
H629 H 0.75637 0.15447 0.19579 0.0
H630 H 0.75336 0.29909 0.1439 0.0
H631 H 0.74037 0.31262 0.17099 0.0
H632 H 0.69548 0.27076 0.15361 0.0
H633 H 0.85763 0.24128 0.17397 0.0
H634 H 0.83484 0.19956 0.19596 0.0
H635 H 0.85242 0.25796 0.20185 0.0
C636 C 0.03355 0.58449 0.09171 0.0
C637 C 0.02099 0.54525 0.1042 0.0
C638 C 0.03954 0.58505 0.06834 0.0
C639 C 0.03249 0.54528 0.05715 0.0
C640 C 0.02021 0.5056 0.06973 0.0
C641 C 0.01479 0.50612 0.09317 0.0
C642 C 0.05312 0.62819 0.0556 0.0
C643 C 0.01221 0.46252 0.05839 0.0
C644 C 0.0062 0.54076 0.99472 0.0
C645 C 0.04874 0.55495 0.98504 0.0
C646 C 1.00003 0.53568 0.01811 0.0
C647 C 0.03735 0.5454 0.03223 0.0
C648 C 0.08003 0.55836 0.02256 0.0
C649 C 0.08516 0.5628 0.99909 0.0
C650 C 0.9539 0.52151 0.02777 0.0
C651 C 0.12066 0.56904 0.03704 0.0
H652 H 0.03864 0.61487 0.10023 0.0
H653 H 0.00518 0.47576 0.10283 0.0
H654 H 0.08489 0.63857 0.04618 0.0
H655 H 0.02655 0.62241 0.04307 0.0
H656 H 0.05838 0.65649 0.06689 0.0
H657 H 1.00371 0.43487 0.07061 0.0
H658 H 0.98404 0.451 0.04605 0.0
H659 H 0.04279 0.46878 0.04889 0.0
H660 H 0.97796 0.53506 0.98408 0.0
H661 H 0.11793 0.57291 0.99176 0.0
H662 H 0.95541 0.5499 0.03767 0.0
H663 H 0.94341 0.49264 0.03942 0.0
H664 H 0.92759 0.51154 0.01448 0.0
H665 H 0.1296 0.59927 0.04764 0.0
H666 H 0.15071 0.57581 0.02687 0.0
H667 H 0.11262 0.54055 0.04859 0.0
C668 C 0.48675 0.04683 0.43047 0.0
C669 C 0.52844 0.05428 0.43879 0.0
C670 C 0.4769 0.04032 0.40725 0.0
C671 C 0.51011 0.04273 0.39208 0.0
C672 C 0.55256 0.05121 0.40047 0.0
C673 C 0.56092 0.05627 0.42369 0.0
C674 C 0.43088 0.03022 0.399 0.0
C675 C 0.58929 0.05488 0.38492 0.0
C676 C 0.48732 0.9881 0.3343 0.0
C677 C 0.50134 0.02558 0.32006 0.0
C678 C 0.48642 0.99255 0.35777 0.0
C679 C 0.501 0.03571 0.36741 0.0
C680 C 0.51287 0.07319 0.3532 0.0
C681 C 0.51237 0.06756 0.32973 0.0
C682 C 0.47265 0.95149 0.3723 0.0
C683 C 0.5291 0.11992 0.36278 0.0
H684 H 0.46169 0.04553 0.44211 0.0
H685 H 0.59333 0.06226 0.43 0.0
H686 H 0.43451 0.05633 0.3868 0.0
H687 H 0.41397 0.99718 0.39 0.0
H688 H 0.40867 0.02902 0.41296 0.0
H689 H 0.62114 0.06371 0.39406 0.0
H690 H 0.57757 0.02226 0.37595 0.0
H691 H 0.59687 0.08108 0.37198 0.0
H692 H 0.47918 0.95552 0.32728 0.0
H693 H 0.52207 0.09655 0.31898 0.0
H694 H 0.44979 0.94991 0.38598 0.0
H695 H 0.50319 0.95385 0.38031 0.0
H696 H 0.45531 0.9195 0.36239 0.0
H697 H 0.50575 0.11888 0.37604 0.0
H698 H 0.53211 0.14436 0.34965 0.0
H699 H 0.56282 0.13264 0.37075 0.0
C700 C 0.57412 0.56348 0.76059 0.0
C701 C 0.53154 0.53039 0.7684 0.0
C702 C 0.58133 0.57407 0.73757 0.0
C703 C 0.54499 0.55123 0.72211 0.0
C704 C 0.50152 0.51914 0.73011 0.0
C705 C 0.49537 0.50905 0.75315 0.0
C706 C 0.62816 0.60847 0.72969 0.0
C707 C 0.46178 0.49436 0.71425 0.0
C708 C 0.55203 0.59684 0.66298 0.0
C709 C 0.56308 0.56898 0.65021 0.0
C710 C 0.54678 0.59204 0.68645 0.0
C711 C 0.55279 0.55865 0.69744 0.0
C712 C 0.56447 0.53082 0.68469 0.0
C713 C 0.56933 0.53623 0.66127 0.0
C714 C 0.53427 0.62231 0.69946 0.0
C715 C 0.57108 0.49473 0.69575 0.0
H716 H 0.60211 0.58016 0.77237 0.0
H717 H 0.46231 0.4837 0.75917 0.0
H718 H 0.64197 0.59152 0.71896 0.0
H719 H 0.62669 0.63458 0.71923 0.0
H720 H 0.65193 0.62551 0.74395 0.0
H721 H 0.42961 0.47265 0.72332 0.0
H722 H 0.45752 0.51886 0.7038 0.0
H723 H 0.46821 0.47266 0.70262 0.0
H724 H 0.54774 0.62264 0.65462 0.0
H725 H 0.57719 0.5141 0.65154 0.0
H726 H 0.55961 0.6406 0.71294 0.0
H727 H 0.50105 0.6015 0.70778 0.0
H728 H 0.53216 0.64753 0.68852 0.0
H729 H 0.59691 0.50992 0.70932 0.0
H730 H 0.58193 0.4772 0.6836 0.0
H731 H 0.53896 0.46915 0.70367 0.0
C732 C 0.48117 0.06219 0.58294 0.0
C733 C 0.50826 0.06051 0.5657 0.0
C734 C 0.49695 0.07108 0.60528 0.0
C735 C 0.54114 0.07939 0.61027 0.0
C736 C 0.56903 0.07904 0.59274 0.0
C737 C 0.55199 0.06899 0.57071 0.0
C738 C 0.46599 0.0704 0.62361 0.0
C739 C 0.61665 0.08861 0.59727 0.0
C740 C 0.59786 0.13699 0.66536 0.0
C741 C 0.59315 0.10031 0.67812 0.0
C742 C 0.5808 0.1307 0.64331 0.0
C743 C 0.55771 0.08657 0.63392 0.0
C744 C 0.55196 0.0493 0.64681 0.0
C745 C 0.57015 0.05667 0.66863 0.0
C746 C 0.58814 0.17134 0.62991 0.0
C747 C 0.52716 1.00165 0.63745 0.0
H748 H 0.44728 0.05549 0.57905 0.0
H749 H 0.57296 0.06763 0.55739 0.0
H750 H 0.45928 0.04318 0.63578 0.0
H751 H 0.48251 0.10288 0.63307 0.0
H752 H 0.4331 0.06462 0.61685 0.0
H753 H 0.63501 0.09036 0.58153 0.0
H754 H 0.63618 0.12112 0.60654 0.0
H755 H 0.61562 0.06164 0.60805 0.0
H756 H 0.61482 0.17073 0.67262 0.0
H757 H 0.56698 0.02815 0.67809 0.0
H758 H 0.55514 0.16693 0.62426 0.0
H759 H 0.60804 0.17447 0.61457 0.0
H760 H 0.60635 0.20335 0.63975 0.0
H761 H 0.49313 0.99338 0.63125 0.0
H762 H 0.52304 0.97608 0.65016 0.0
H763 H 0.54598 0.99886 0.62289 0.0
C764 C 0.51858 0.49338 0.90082 0.0
C765 C 0.55728 0.53422 0.89515 0.0
C766 C 0.51332 0.47538 0.92252 0.0
C767 C 0.54725 0.49926 0.93898 0.0
C768 C 0.58675 0.54018 0.9332 0.0
C769 C 0.59139 0.55706 0.91128 0.0
C770 C 0.47094 0.43141 0.92796 0.0
C771 C 0.62348 0.56681 0.95035 0.0
C772 C 0.51033 0.48206 -1e-05 0.0
C773 C 0.52563 0.45318 0.00762 0.0
C774 C 0.51734 0.49736 0.97773 0.0
C775 C 0.53994 0.48317 0.96264 0.0
C776 C 0.55548 0.45396 0.9702 0.0
C777 C 0.54839 0.43951 0.99271 0.0
C778 C 0.50073 0.52893 0.97039 0.0
C779 C 0.5793 0.43781 0.95449 0.0
H780 H 0.49211 0.47572 0.88837 0.0
H781 H 0.62142 0.5886 0.90689 0.0
H782 H 0.47989 0.40736 0.9357 0.0
H783 H 0.45047 0.43773 0.94042 0.0
H784 H 0.44968 0.41519 0.9128 0.0
H785 H 0.65308 0.59676 0.94286 0.0
H786 H 0.60974 0.5786 0.96407 0.0
H787 H 0.63525 0.54496 0.95811 0.0
H788 H 0.49338 0.49328 0.0116 0.0
H789 H 0.56004 0.41699 0.99856 0.0
H790 H 0.47616 0.51343 0.95632 0.0
H791 H 0.52952 0.56101 0.9641 0.0
H792 H 0.48411 0.53704 0.98428 0.0
H793 H 0.55698 0.41952 0.93996 0.0
H794 H 0.58908 0.41497 0.96296 0.0
H795 H 0.61025 0.46721 0.94765 0.0
C796 C 0.03201 0.46145 0.24121 0.0
C797 C 0.03446 0.49727 0.22867 0.0
C798 C 0.03413 0.46341 0.26476 0.0
C799 C 0.03842 0.50202 0.27603 0.0
C800 C 0.03925 0.53764 0.26348 0.0
C801 C 0.03736 0.53488 0.23986 0.0
C802 C 0.0332 0.42476 0.27753 0.0
C803 C 0.04334 0.5791 0.27496 0.0
C804 C 0.01238 0.48685 0.33852 0.0
C805 C 0.05584 0.50427 0.34785 0.0
C806 C 0.00622 0.48749 0.31518 0.0
C807 C 0.04442 0.50578 0.30087 0.0
C808 C 0.08844 0.52471 0.31025 0.0
C809 C 0.0936 0.52381 0.33362 0.0
C810 C 0.95878 0.46715 0.30579 0.0
C811 C 0.13003 0.54459 0.29553 0.0
H812 H 0.02948 0.43219 0.23257 0.0
H813 H 0.03894 0.56248 0.23016 0.0
H814 H 0.06568 0.43701 0.28672 0.0
H815 H 0.00581 0.41161 0.29025 0.0
H816 H 0.02788 0.39639 0.26628 0.0
H817 H 0.04024 0.60222 0.2629 0.0
H818 H 0.01681 0.56905 0.28802 0.0
H819 H 0.07663 0.59795 0.2836 0.0
H820 H 0.98302 0.47141 0.34941 0.0
H821 H 0.12732 0.53814 0.34077 0.0
H822 H 0.95031 0.43606 0.29604 0.0
H823 H 0.95645 0.49111 0.29404 0.0
H824 H 0.9331 0.45819 0.31923 0.0
H825 H 0.12924 0.51766 0.28466 0.0
H826 H 0.16192 0.56025 0.30553 0.0
H827 H 0.13043 0.57063 0.28426 0.0
loop_
_geom_bond_atom_site_label_1
_geom_bond_atom_site_label_2
_geom_bond_distance
_geom_bond_site_symmetry_2
_ccdc_geom_bond_type
Dy0 O4 2.398 . S
Dy0 O5 2.491 . S
Dy0 O6 2.403 . S
Dy0 O7 2.664 . S
Dy0 O11 2.326 . S
Dy0 O15 2.310 . S
Dy0 O16 2.351 1_455 S
C1 O12 1.185 . S
C1 O13 1.355 . S
C2 O4 1.185 . S
C2 O5 1.355 . S
Dy3 O7 2.315 . S
Dy3 O10 2.359 . S
Dy3 O12 2.388 1_455 S
Dy3 O13 2.483 1_455 S
Dy3 O14 2.405 . S
Dy3 O15 2.673 . S
Dy3 O17 2.325 1_455 S
O4 Dy0 2.398 . S
O4 C2 1.185 . S
O5 Dy0 2.491 . S
O5 C2 1.355 . S
O6 Dy0 2.403 . S
O6 C8 1.254 . S
O7 Dy0 2.664 . S
O7 Dy3 2.315 . S
O7 C8 1.268 . S
C8 O6 1.254 . S
C8 O7 1.268 . S
C9 O14 1.254 . S
C9 O15 1.268 . S
O10 Dy3 2.359 . S
O10 C18 1.249 . S
O11 Dy0 2.326 . S
O11 C18 1.267 . S
O12 C1 1.185 . S
O12 Dy3 2.388 1_655 S
O13 C1 1.355 . S
O13 Dy3 2.483 1_655 S
O14 Dy3 2.405 . S
O14 C9 1.254 . S
O15 Dy0 2.310 . S
O15 Dy3 2.673 . S
O15 C9 1.268 . S
O16 Dy0 2.351 1_655 S
O16 C19 1.249 . S
O17 Dy3 2.325 1_655 S
O17 C19 1.267 . S
C18 O10 1.249 . S
C18 O11 1.267 . S
C19 O16 1.249 . S
C19 O17 1.267 . S
Dy20 O24 2.384 1_545 S
Dy20 O25 2.474 1_545 S
Dy20 O26 2.403 . S
Dy20 O27 2.667 . S
Dy20 O31 2.304 1_545 S
Dy20 O35 2.307 . S
Dy20 O36 2.375 . S
C21 O32 1.185 . S
C21 O33 1.355 . S
C22 O24 1.185 . S
C22 O25 1.355 . S
Dy23 O27 2.310 . S
Dy23 O30 2.351 1_545 S
Dy23 O32 2.398 . S
Dy23 O33 2.491 . S
Dy23 O34 2.403 . S
Dy23 O35 2.664 . S
Dy23 O37 2.326 . S
O24 Dy20 2.384 1_565 S
O24 C22 1.185 . S
O25 Dy20 2.474 1_565 S
O25 C22 1.355 . S
O26 Dy20 2.403 . S
O26 C28 1.254 . S
O27 Dy20 2.667 . S
O27 Dy23 2.310 . S
O27 C28 1.268 . S
C28 O26 1.254 . S
C28 O27 1.268 . S
C29 O34 1.254 . S
C29 O35 1.268 . S
O30 Dy23 2.351 1_565 S
O30 C38 1.249 . S
O31 Dy20 2.304 1_565 S
O31 C38 1.267 . S
O32 C21 1.185 . S
O32 Dy23 2.398 . S
O33 C21 1.355 . S
O33 Dy23 2.491 . S
O34 Dy23 2.403 . S
O34 C29 1.254 . S
O35 Dy20 2.307 . S
O35 Dy23 2.664 . S
O35 C29 1.268 . S
O36 Dy20 2.375 . S
O36 C39 1.249 . S
O37 Dy23 2.326 . S
O37 C39 1.267 . S
C38 O30 1.249 . S
C38 O31 1.267 . S
C39 O36 1.249 . S
C39 O37 1.267 . S
Dy40 O44 2.398 . S
Dy40 O45 2.491 . S
Dy40 O46 2.403 . S
Dy40 O47 2.664 . S
Dy40 O51 2.326 . S
Dy40 O55 2.310 . S
Dy40 O56 2.351 . S
C41 O52 1.185 . S
C41 O53 1.355 . S
C42 O44 1.185 . S
C42 O45 1.355 . S
Dy43 O47 2.310 . S
Dy43 O50 2.351 . S
Dy43 O52 2.398 . S
Dy43 O53 2.491 . S
Dy43 O54 2.403 . S
Dy43 O55 2.664 . S
Dy43 O57 2.326 . S
O44 Dy40 2.398 . S
O44 C42 1.185 . S
O45 Dy40 2.491 . S
O45 C42 1.355 . S
O46 Dy40 2.403 . S
O46 C48 1.254 . S
O47 Dy40 2.664 . S
O47 Dy43 2.310 . S
O47 C48 1.268 . S
C48 O46 1.254 . S
C48 O47 1.268 . S
C49 O54 1.254 . S
C49 O55 1.268 . S
O50 Dy43 2.351 . S
O50 C58 1.249 . S
O51 Dy40 2.326 . S
O51 C58 1.267 . S
O52 C41 1.185 . S
O52 Dy43 2.398 . S
O53 C41 1.355 . S
O53 Dy43 2.491 . S
O54 Dy43 2.403 . S
O54 C49 1.254 . S
O55 Dy40 2.310 . S
O55 Dy43 2.664 . S
O55 C49 1.268 . S
O56 Dy40 2.351 . S
O56 C59 1.249 . S
O57 Dy43 2.326 . S
O57 C59 1.267 . S
C58 O50 1.249 . S
C58 O51 1.267 . S
C59 O56 1.249 . S
C59 O57 1.267 . S
P60 O71 1.490 . S
P60 C74 1.812 . S
P60 C80 1.803 1_565 S
P60 C86 1.819 . S
H61 C75 0.941 . S
H62 C76 0.939 . S
H63 C78 0.940 . S
H64 C79 0.940 . S
H65 C81 0.939 . S
H66 C82 0.942 . S
H67 C84 0.940 . S
H68 C85 0.939 . S
H69 C87 0.941 . S
H70 C91 0.939 . S
O71 P60 1.490 . S
H72 C88 0.939 . S
H73 C90 0.940 . S
C74 P60 1.812 . S
C74 C75 1.389 . S
C74 C79 1.391 . S
C75 H61 0.941 . S
C75 C74 1.389 . S
C75 C76 1.397 . S
C76 H62 0.939 . S
C76 C75 1.397 . S
C76 C77 1.378 . S
C77 C76 1.378 . S
C77 C78 1.378 . S
C78 H63 0.940 . S
C78 C77 1.378 . S
C78 C79 1.396 . S
C79 H64 0.940 . S
C79 C74 1.391 . S
C79 C78 1.396 . S
C80 P60 1.803 1_545 S
C80 C81 1.378 . S
C80 C85 1.400 . S
C81 H65 0.939 . S
C81 C80 1.378 . S
C81 C82 1.361 . S
C82 H66 0.942 . S
C82 C81 1.361 . S
C82 C83 1.369 . S
C83 C82 1.369 . S
C83 C84 1.404 . S
C84 H67 0.940 . S
C84 C83 1.404 . S
C84 C85 1.389 . S
C85 H68 0.939 . S
C85 C80 1.400 . S
C85 C84 1.389 . S
C86 P60 1.819 . S
C86 C87 1.391 . S
C86 C91 1.391 1_565 S
C87 H69 0.941 . S
C87 C86 1.391 . S
C87 C88 1.396 . S
C88 H72 0.939 . S
C88 C87 1.396 . S
C88 C89 1.397 1_565 S
C89 C88 1.397 1_545 S
C89 C90 1.385 . S
C90 H73 0.940 . S
C90 C89 1.385 . S
C90 C91 1.388 . S
C91 H70 0.939 . S
C91 C86 1.391 1_545 S
C91 C90 1.388 . S
P92 O103 1.490 . S
P92 C106 1.812 . S
P92 C112 1.803 . S
P92 C118 1.819 . S
H93 C107 0.941 . S
H94 C108 0.939 . S
H95 C110 0.940 . S
H96 C111 0.940 . S
H97 C113 0.939 . S
H98 C114 0.942 . S
H99 C116 0.940 . S
H100 C117 0.939 . S
H101 C119 0.941 . S
H102 C123 0.939 . S
O103 P92 1.490 . S
H104 C120 0.939 . S
H105 C122 0.940 . S
C106 P92 1.812 . S
C106 C107 1.389 . S
C106 C111 1.391 . S
C107 H93 0.941 . S
C107 C106 1.389 . S
C107 C108 1.397 . S
C108 H94 0.939 . S
C108 C107 1.397 . S
C108 C109 1.378 . S
C109 C108 1.378 . S
C109 C110 1.378 . S
C110 H95 0.940 . S
C110 C109 1.378 . S
C110 C111 1.396 . S
C111 H96 0.940 . S
C111 C106 1.391 . S
C111 C110 1.396 . S
C112 P92 1.803 . S
C112 C113 1.378 . S
C112 C117 1.400 . S
C113 H97 0.939 . S
C113 C112 1.378 . S
C113 C114 1.361 . S
C114 H98 0.942 . S
C114 C113 1.361 . S
C114 C115 1.369 . S
C115 C114 1.369 . S
C115 C116 1.404 . S
C116 H99 0.940 . S
C116 C115 1.404 . S
C116 C117 1.389 . S
C117 H100 0.939 . S
C117 C112 1.400 . S
C117 C116 1.389 . S
C118 P92 1.819 . S
C118 C119 1.391 . S
C118 C123 1.391 . S
C119 H101 0.941 . S
C119 C118 1.391 . S
C119 C120 1.396 . S
C120 H104 0.939 . S
C120 C119 1.396 . S
C120 C121 1.397 . S
C121 C120 1.397 . S
C121 C122 1.385 . S
C122 H105 0.940 . S
C122 C121 1.385 . S
C122 C123 1.388 . S
C123 H102 0.939 . S
C123 C118 1.391 . S
C123 C122 1.388 . S
P124 O135 1.490 . S
P124 C138 1.812 . S
P124 C144 1.803 . S
P124 C150 1.819 . S
H125 C139 0.941 . S
H126 C140 0.939 . S
H127 C142 0.940 . S
H128 C143 0.940 . S
H129 C145 0.939 . S
H130 C146 0.942 . S
H131 C148 0.940 . S
H132 C149 0.939 . S
H133 C151 0.941 . S
H134 C155 0.939 . S
O135 P124 1.490 . S
H136 C152 0.939 . S
H137 C154 0.940 1_655 S
C138 P124 1.812 . S
C138 C139 1.389 . S
C138 C143 1.391 . S
C139 H125 0.941 . S
C139 C138 1.389 . S
C139 C140 1.397 . S
C140 H126 0.939 . S
C140 C139 1.397 . S
C140 C141 1.378 . S
C141 C140 1.378 . S
C141 C142 1.378 . S
C142 H127 0.940 . S
C142 C141 1.378 . S
C142 C143 1.396 . S
C143 H128 0.940 . S
C143 C138 1.391 . S
C143 C142 1.396 . S
C144 P124 1.803 . S
C144 C145 1.378 . S
C144 C149 1.400 . S
C145 H129 0.939 . S
C145 C144 1.378 . S
C145 C146 1.361 1_455 S
C146 H130 0.942 . S
C146 C145 1.361 1_655 S
C146 C147 1.369 . S
C147 C146 1.369 . S
C147 C148 1.404 . S
C148 H131 0.940 . S
C148 C147 1.404 . S
C148 C149 1.389 1_655 S
C149 H132 0.939 . S
C149 C144 1.400 . S
C149 C148 1.389 1_455 S
C150 P124 1.819 . S
C150 C151 1.391 . S
C150 C155 1.391 . S
C151 H133 0.941 . S
C151 C150 1.391 . S
C151 C152 1.396 . S
C152 H136 0.939 . S
C152 C151 1.396 . S
C152 C153 1.397 . S
C153 C152 1.397 . S
C153 C154 1.385 . S
C154 H137 0.940 1_455 S
C154 C153 1.385 . S
C154 C155 1.388 . S
C155 H134 0.939 . S
C155 C150 1.391 . S
C155 C154 1.388 . S
P156 O167 1.490 . S
P156 C170 1.812 . S
P156 C176 1.803 1_455 S
P156 C182 1.819 . S
H157 C171 0.941 . S
H158 C172 0.939 . S
H159 C174 0.940 . S
H160 C175 0.940 . S
H161 C177 0.939 . S
H162 C178 0.942 . S
H163 C180 0.940 . S
H164 C181 0.939 . S
H165 C183 0.941 . S
H166 C187 0.939 . S
O167 P156 1.490 . S
H168 C184 0.939 . S
H169 C186 0.940 . S
C170 P156 1.812 . S
C170 C171 1.389 . S
C170 C175 1.391 . S
C171 H157 0.941 . S
C171 C170 1.389 . S
C171 C172 1.397 . S
C172 H158 0.939 . S
C172 C171 1.397 . S
C172 C173 1.378 . S
C173 C172 1.378 . S
C173 C174 1.378 . S
C174 H159 0.940 . S
C174 C173 1.378 . S
C174 C175 1.396 . S
C175 H160 0.940 . S
C175 C170 1.391 . S
C175 C174 1.396 . S
C176 P156 1.803 1_655 S
C176 C177 1.378 . S
C176 C181 1.400 . S
C177 H161 0.939 . S
C177 C176 1.378 . S
C177 C178 1.361 . S
C178 H162 0.942 . S
C178 C177 1.361 . S
C178 C179 1.369 . S
C179 C178 1.369 . S
C179 C180 1.404 . S
C180 H163 0.940 . S
C180 C179 1.404 . S
C180 C181 1.389 . S
C181 H164 0.939 . S
C181 C176 1.400 . S
C181 C180 1.389 . S
C182 P156 1.819 . S
C182 C183 1.391 . S
C182 C187 1.391 1_455 S
C183 H165 0.941 . S
C183 C182 1.391 . S
C183 C184 1.396 . S
C184 H168 0.939 . S
C184 C183 1.396 . S
C184 C185 1.397 . S
C185 C184 1.397 . S
C185 C186 1.385 1_455 S
C186 H169 0.940 . S
C186 C185 1.385 1_655 S
C186 C187 1.388 . S
C187 H166 0.939 . S
C187 C182 1.391 1_655 S
C187 C186 1.388 . S
P188 O199 1.490 . S
P188 C202 1.812 . S
P188 C208 1.803 . S
P188 C214 1.819 . S
H189 C203 0.941 . S
H190 C204 0.939 . S
H191 C206 0.940 . S
H192 C207 0.940 . S
H193 C209 0.939 . S
H194 C210 0.942 . S
H195 C212 0.940 . S
H196 C213 0.939 . S
H197 C215 0.941 . S
H198 C219 0.939 . S
O199 P188 1.490 . S
H200 C216 0.939 . S
H201 C218 0.940 1_565 S
C202 P188 1.812 . S
C202 C203 1.389 . S
C202 C207 1.391 . S
C203 H189 0.941 . S
C203 C202 1.389 . S
C203 C204 1.397 . S
C204 H190 0.939 . S
C204 C203 1.397 . S
C204 C205 1.378 . S
C205 C204 1.378 . S
C205 C206 1.378 . S
C206 H191 0.940 . S
C206 C205 1.378 . S
C206 C207 1.396 . S
C207 H192 0.940 . S
C207 C202 1.391 . S
C207 C206 1.396 . S
C208 P188 1.803 . S
C208 C209 1.378 . S
C208 C213 1.400 . S
C209 H193 0.939 . S
C209 C208 1.378 . S
C209 C210 1.361 1_545 S
C210 H194 0.942 . S
C210 C209 1.361 1_565 S
C210 C211 1.369 . S
C211 C210 1.369 . S
C211 C212 1.404 . S
C212 H195 0.940 . S
C212 C211 1.404 . S
C212 C213 1.389 1_565 S
C213 H196 0.939 . S
C213 C208 1.400 . S
C213 C212 1.389 1_545 S
C214 P188 1.819 . S
C214 C215 1.391 . S
C214 C219 1.391 . S
C215 H197 0.941 . S
C215 C214 1.391 . S
C215 C216 1.396 . S
C216 H200 0.939 . S
C216 C215 1.396 . S
C216 C217 1.397 . S
C217 C216 1.397 . S
C217 C218 1.385 . S
C218 H201 0.940 1_545 S
C218 C217 1.385 . S
C218 C219 1.388 . S
C219 H198 0.939 . S
C219 C214 1.391 . S
C219 C218 1.388 . S
P220 O231 1.490 . S
P220 C234 1.812 . S
P220 C240 1.803 . S
P220 C246 1.819 . S
H221 C235 0.941 . S
H222 C236 0.939 . S
H223 C238 0.940 . S
H224 C239 0.940 . S
H225 C241 0.939 . S
H226 C242 0.942 . S
H227 C244 0.940 . S
H228 C245 0.939 . S
H229 C247 0.941 . S
H230 C251 0.939 . S
O231 P220 1.490 . S
H232 C248 0.939 . S
H233 C250 0.940 . S
C234 P220 1.812 . S
C234 C235 1.389 . S
C234 C239 1.391 . S
C235 H221 0.941 . S
C235 C234 1.389 . S
C235 C236 1.397 . S
C236 H222 0.939 . S
C236 C235 1.397 . S
C236 C237 1.378 . S
C237 C236 1.378 . S
C237 C238 1.378 . S
C238 H223 0.940 . S
C238 C237 1.378 . S
C238 C239 1.396 . S
C239 H224 0.940 . S
C239 C234 1.391 . S
C239 C238 1.396 . S
C240 P220 1.803 . S
C240 C241 1.378 . S
C240 C245 1.400 . S
C241 H225 0.939 . S
C241 C240 1.378 . S
C241 C242 1.361 . S
C242 H226 0.942 . S
C242 C241 1.361 . S
C242 C243 1.369 . S
C243 C242 1.369 . S
C243 C244 1.404 . S
C244 H227 0.940 . S
C244 C243 1.404 . S
C244 C245 1.389 . S
C245 H228 0.939 . S
C245 C240 1.400 . S
C245 C244 1.389 . S
C246 P220 1.819 . S
C246 C247 1.391 . S
C246 C251 1.391 . S
C247 H229 0.941 . S
C247 C246 1.391 . S
C247 C248 1.396 . S
C248 H232 0.939 . S
C248 C247 1.396 . S
C248 C249 1.397 . S
C249 C248 1.397 . S
C249 C250 1.385 . S
C250 H233 0.940 . S
C250 C249 1.385 . S
C250 C251 1.388 . S
C251 H230 0.939 . S
C251 C246 1.391 . S
C251 C250 1.388 . S
C252 C253 1.391 . S
C252 C254 1.394 . S
C252 H268 0.931 . S
C253 C252 1.391 . S
C253 C257 1.376 . S
C254 C252 1.394 . S
C254 C255 1.369 . S
C254 C258 1.531 . S
C255 C254 1.369 . S
C255 C256 1.410 . S
C255 C263 1.503 . S
C256 C255 1.410 . S
C256 C257 1.392 . S
C256 C259 1.511 . S
C257 C253 1.376 . S
C257 C256 1.392 . S
C257 H269 0.929 . S
C258 C254 1.531 . S
C258 H270 0.960 . S
C258 H271 0.962 . S
C258 H272 0.960 . S
C259 C256 1.511 . S
C259 H273 0.961 . S
C259 H274 0.961 . S
C259 H275 0.961 . S
C260 C261 1.370 . S
C260 C262 1.363 . S
C260 H276 0.931 . S
C261 C260 1.370 . S
C261 C265 1.408 . S
C262 C260 1.363 . S
C262 C263 1.370 . S
C262 C266 1.524 . S
C263 C255 1.503 . S
C263 C262 1.370 . S
C263 C264 1.403 . S
C264 C263 1.403 . S
C264 C265 1.404 . S
C264 C267 1.539 . S
C265 C261 1.408 . S
C265 C264 1.404 . S
C265 H277 0.930 . S
C266 C262 1.524 . S
C266 H278 0.956 . S
C266 H279 0.961 . S
C266 H280 0.961 . S
C267 C264 1.539 . S
C267 H281 0.958 . S
C267 H282 0.961 . S
C267 H283 0.960 . S
H268 C252 0.931 . S
H269 C257 0.929 . S
H270 C258 0.960 . S
H271 C258 0.962 . S
H272 C258 0.960 . S
H273 C259 0.961 . S
H274 C259 0.961 . S
H275 C259 0.961 . S
H276 C260 0.931 . S
H277 C265 0.930 . S
H278 C266 0.956 . S
H279 C266 0.961 . S
H280 C266 0.961 . S
H281 C267 0.958 . S
H282 C267 0.961 . S
H283 C267 0.960 . S
C284 C285 1.391 . S
C284 C286 1.394 . S
C284 H300 0.931 . S
C285 C284 1.391 . S
C285 C289 1.376 . S
C286 C284 1.394 . S
C286 C287 1.369 . S
C286 C290 1.531 . S
C287 C286 1.369 . S
C287 C288 1.410 . S
C287 C295 1.503 . S
C288 C287 1.410 . S
C288 C289 1.392 . S
C288 C291 1.511 . S
C289 C285 1.376 . S
C289 C288 1.392 . S
C289 H301 0.929 . S
C290 C286 1.531 . S
C290 H302 0.960 . S
C290 H303 0.962 . S
C290 H304 0.960 . S
C291 C288 1.511 . S
C291 H305 0.961 . S
C291 H306 0.961 . S
C291 H307 0.961 . S
C292 C293 1.370 . S
C292 C294 1.363 . S
C292 H308 0.931 . S
C293 C292 1.370 . S
C293 C297 1.408 . S
C294 C292 1.363 . S
C294 C295 1.370 . S
C294 C298 1.524 . S
C295 C287 1.503 . S
C295 C294 1.370 . S
C295 C296 1.403 . S
C296 C295 1.403 . S
C296 C297 1.404 . S
C296 C299 1.539 . S
C297 C293 1.408 . S
C297 C296 1.404 . S
C297 H309 0.930 . S
C298 C294 1.524 . S
C298 H310 0.956 . S
C298 H311 0.961 . S
C298 H312 0.961 . S
C299 C296 1.539 . S
C299 H313 0.958 . S
C299 H314 0.961 . S
C299 H315 0.960 . S
H300 C284 0.931 . S
H301 C289 0.929 . S
H302 C290 0.960 . S
H303 C290 0.962 . S
H304 C290 0.960 . S
H305 C291 0.961 . S
H306 C291 0.961 . S
H307 C291 0.961 . S
H308 C292 0.931 . S
H309 C297 0.930 . S
H310 C298 0.956 . S
H311 C298 0.961 . S
H312 C298 0.961 . S
H313 C299 0.958 . S
H314 C299 0.961 . S
H315 C299 0.960 . S
C316 C317 1.391 . S
C316 C318 1.394 . S
C316 H332 0.931 . S
C317 C316 1.391 . S
C317 C321 1.376 . S
C318 C316 1.394 . S
C318 C319 1.369 . S
C318 C322 1.531 . S
C319 C318 1.369 . S
C319 C320 1.410 . S
C319 C327 1.503 . S
C320 C319 1.410 . S
C320 C321 1.392 . S
C320 C323 1.511 . S
C321 C317 1.376 . S
C321 C320 1.392 . S
C321 H333 0.929 . S
C322 C318 1.531 . S
C322 H334 0.960 . S
C322 H335 0.962 . S
C322 H336 0.960 . S
C323 C320 1.511 . S
C323 H337 0.961 . S
C323 H338 0.961 . S
C323 H339 0.961 . S
C324 C325 1.370 . S
C324 C326 1.363 . S
C324 H340 0.931 . S
C325 C324 1.370 . S
C325 C329 1.408 . S
C326 C324 1.363 . S
C326 C327 1.370 . S
C326 C330 1.524 . S
C327 C319 1.503 . S
C327 C326 1.370 . S
C327 C328 1.403 . S
C328 C327 1.403 . S
C328 C329 1.404 . S
C328 C331 1.539 . S
C329 C325 1.408 . S
C329 C328 1.404 . S
C329 H341 0.930 . S
C330 C326 1.524 . S
C330 H342 0.956 . S
C330 H343 0.961 . S
C330 H344 0.961 . S
C331 C328 1.539 . S
C331 H345 0.958 . S
C331 H346 0.961 . S
C331 H347 0.960 . S
H332 C316 0.931 . S
H333 C321 0.929 . S
H334 C322 0.960 . S
H335 C322 0.962 . S
H336 C322 0.960 . S
H337 C323 0.961 . S
H338 C323 0.961 . S
H339 C323 0.961 . S
H340 C324 0.931 . S
H341 C329 0.930 . S
H342 C330 0.956 . S
H343 C330 0.961 . S
H344 C330 0.961 . S
H345 C331 0.958 . S
H346 C331 0.961 . S
H347 C331 0.960 . S
C348 C349 1.391 . S
C348 C350 1.394 . S
C348 H364 0.931 . S
C349 C348 1.391 . S
C349 C353 1.376 . S
C350 C348 1.394 . S
C350 C351 1.369 . S
C350 C354 1.531 . S
C351 C350 1.369 . S
C351 C352 1.410 . S
C351 C359 1.503 . S
C352 C351 1.410 . S
C352 C353 1.392 . S
C352 C355 1.511 . S
C353 C349 1.376 . S
C353 C352 1.392 . S
C353 H365 0.929 . S
C354 C350 1.531 . S
C354 H366 0.960 . S
C354 H367 0.962 . S
C354 H368 0.960 . S
C355 C352 1.511 . S
C355 H369 0.961 . S
C355 H370 0.961 . S
C355 H371 0.961 . S
C356 C357 1.370 . S
C356 C358 1.363 . S
C356 H372 0.931 . S
C357 C356 1.370 . S
C357 C361 1.408 . S
C358 C356 1.363 . S
C358 C359 1.370 . S
C358 C362 1.524 . S
C359 C351 1.503 . S
C359 C358 1.370 . S
C359 C360 1.403 . S
C360 C359 1.403 . S
C360 C361 1.404 . S
C360 C363 1.539 . S
C361 C357 1.408 . S
C361 C360 1.404 . S
C361 H373 0.930 . S
C362 C358 1.524 . S
C362 H374 0.956 . S
C362 H375 0.961 . S
C362 H376 0.961 . S
C363 C360 1.539 . S
C363 H377 0.958 . S
C363 H378 0.961 . S
C363 H379 0.960 . S
H364 C348 0.931 . S
H365 C353 0.929 . S
H366 C354 0.960 . S
H367 C354 0.962 . S
H368 C354 0.960 . S
H369 C355 0.961 . S
H370 C355 0.961 . S
H371 C355 0.961 . S
H372 C356 0.931 . S
H373 C361 0.930 . S
H374 C362 0.956 . S
H375 C362 0.961 . S
H376 C362 0.961 . S
H377 C363 0.958 . S
H378 C363 0.961 . S
H379 C363 0.960 . S
C380 C381 1.391 . S
C380 C382 1.394 . S
C380 H396 0.931 . S
C381 C380 1.391 . S
C381 C385 1.376 . S
C382 C380 1.394 . S
C382 C383 1.369 . S
C382 C386 1.531 . S
C383 C382 1.369 . S
C383 C384 1.410 . S
C383 C391 1.503 . S
C384 C383 1.410 . S
C384 C385 1.392 . S
C384 C387 1.511 . S
C385 C381 1.376 . S
C385 C384 1.392 . S
C385 H397 0.929 . S
C386 C382 1.531 . S
C386 H398 0.960 . S
C386 H399 0.962 . S
C386 H400 0.960 . S
C387 C384 1.511 . S
C387 H401 0.961 . S
C387 H402 0.961 . S
C387 H403 0.961 . S
C388 C389 1.370 . S
C388 C390 1.363 . S
C388 H404 0.931 . S
C389 C388 1.370 . S
C389 C393 1.408 . S
C390 C388 1.363 . S
C390 C391 1.370 . S
C390 C394 1.524 . S
C391 C383 1.503 . S
C391 C390 1.370 . S
C391 C392 1.403 . S
C392 C391 1.403 . S
C392 C393 1.404 . S
C392 C395 1.539 . S
C393 C389 1.408 . S
C393 C392 1.404 . S
C393 H405 0.930 . S
C394 C390 1.524 . S
C394 H406 0.956 . S
C394 H407 0.961 . S
C394 H408 0.961 . S
C395 C392 1.539 . S
C395 H409 0.958 . S
C395 H410 0.961 . S
C395 H411 0.960 . S
H396 C380 0.931 . S
H397 C385 0.929 . S
H398 C386 0.960 . S
H399 C386 0.962 . S
H400 C386 0.960 . S
H401 C387 0.961 . S
H402 C387 0.961 . S
H403 C387 0.961 . S
H404 C388 0.931 . S
H405 C393 0.930 . S
H406 C394 0.956 . S
H407 C394 0.961 . S
H408 C394 0.961 . S
H409 C395 0.958 . S
H410 C395 0.961 . S
H411 C395 0.960 . S
C412 C413 1.391 . S
C412 C414 1.394 . S
C412 H428 0.931 . S
C413 C412 1.391 . S
C413 C417 1.376 . S
C414 C412 1.394 . S
C414 C415 1.369 . S
C414 C418 1.531 . S
C415 C414 1.369 . S
C415 C416 1.410 . S
C415 C423 1.503 . S
C416 C415 1.410 . S
C416 C417 1.392 . S
C416 C419 1.511 . S
C417 C413 1.376 . S
C417 C416 1.392 . S
C417 H429 0.929 . S
C418 C414 1.531 . S
C418 H430 0.960 . S
C418 H431 0.962 . S
C418 H432 0.960 . S
C419 C416 1.511 . S
C419 H433 0.961 . S
C419 H434 0.961 . S
C419 H435 0.961 . S
C420 C421 1.370 . S
C420 C422 1.363 . S
C420 H436 0.931 . S
C421 C420 1.370 . S
C421 C425 1.408 . S
C422 C420 1.363 . S
C422 C423 1.370 . S
C422 C426 1.524 . S
C423 C415 1.503 . S
C423 C422 1.370 . S
C423 C424 1.403 . S
C424 C423 1.403 . S
C424 C425 1.404 . S
C424 C427 1.539 . S
C425 C421 1.408 . S
C425 C424 1.404 . S
C425 H437 0.930 . S
C426 C422 1.524 . S
C426 H438 0.956 . S
C426 H439 0.961 . S
C426 H440 0.961 . S
C427 C424 1.539 . S
C427 H441 0.958 . S
C427 H442 0.961 . S
C427 H443 0.960 . S
H428 C412 0.931 . S
H429 C417 0.929 . S
H430 C418 0.960 . S
H431 C418 0.962 . S
H432 C418 0.960 . S
H433 C419 0.961 . S
H434 C419 0.961 . S
H435 C419 0.961 . S
H436 C420 0.931 . S
H437 C425 0.930 . S
H438 C426 0.956 . S
H439 C426 0.961 . S
H440 C426 0.961 . S
H441 C427 0.958 . S
H442 C427 0.961 . S
H443 C427 0.960 . S
C444 C445 1.391 . S
C444 C446 1.394 . S
C444 H460 0.931 . S
C445 C444 1.391 . S
C445 C449 1.376 . S
C446 C444 1.394 . S
C446 C447 1.369 . S
C446 C450 1.531 . S
C447 C446 1.369 . S
C447 C448 1.410 . S
C447 C455 1.503 . S
C448 C447 1.410 . S
C448 C449 1.392 . S
C448 C451 1.511 . S
C449 C445 1.376 . S
C449 C448 1.392 . S
C449 H461 0.929 . S
C450 C446 1.531 . S
C450 H462 0.960 . S
C450 H463 0.962 . S
C450 H464 0.960 . S
C451 C448 1.511 . S
C451 H465 0.961 . S
C451 H466 0.961 . S
C451 H467 0.961 . S
C452 C453 1.370 . S
C452 C454 1.363 . S
C452 H468 0.931 . S
C453 C452 1.370 . S
C453 C457 1.408 . S
C454 C452 1.363 . S
C454 C455 1.370 . S
C454 C458 1.524 . S
C455 C447 1.503 . S
C455 C454 1.370 . S
C455 C456 1.403 . S
C456 C455 1.403 . S
C456 C457 1.404 . S
C456 C459 1.539 . S
C457 C453 1.408 . S
C457 C456 1.404 . S
C457 H469 0.930 . S
C458 C454 1.524 . S
C458 H470 0.956 . S
C458 H471 0.961 . S
C458 H472 0.961 . S
C459 C456 1.539 . S
C459 H473 0.958 . S
C459 H474 0.961 . S
C459 H475 0.960 . S
H460 C444 0.931 . S
H461 C449 0.929 . S
H462 C450 0.960 . S
H463 C450 0.962 . S
H464 C450 0.960 . S
H465 C451 0.961 . S
H466 C451 0.961 . S
H467 C451 0.961 . S
H468 C452 0.931 . S
H469 C457 0.930 . S
H470 C458 0.956 . S
H471 C458 0.961 . S
H472 C458 0.961 . S
H473 C459 0.958 . S
H474 C459 0.961 . S
H475 C459 0.960 . S
C476 C477 1.391 . S
C476 C478 1.394 . S
C476 H492 0.931 . S
C477 C476 1.391 . S
C477 C481 1.376 . S
C478 C476 1.394 . S
C478 C479 1.369 . S
C478 C482 1.531 . S
C479 C478 1.369 . S
C479 C480 1.410 . S
C479 C487 1.503 . S
C480 C479 1.410 . S
C480 C481 1.392 . S
C480 C483 1.511 . S
C481 C477 1.376 . S
C481 C480 1.392 . S
C481 H493 0.929 . S
C482 C478 1.531 . S
C482 H494 0.960 . S
C482 H495 0.962 . S
C482 H496 0.960 . S
C483 C480 1.511 . S
C483 H497 0.961 . S
C483 H498 0.961 . S
C483 H499 0.961 . S
C484 C485 1.370 . S
C484 C486 1.363 . S
C484 H500 0.931 . S
C485 C484 1.370 . S
C485 C489 1.408 . S
C486 C484 1.363 . S
C486 C487 1.370 . S
C486 C490 1.524 . S
C487 C479 1.503 . S
C487 C486 1.370 . S
C487 C488 1.403 . S
C488 C487 1.403 . S
C488 C489 1.404 . S
C488 C491 1.539 . S
C489 C485 1.408 . S
C489 C488 1.404 . S
C489 H501 0.930 . S
C490 C486 1.524 . S
C490 H502 0.956 . S
C490 H503 0.961 . S
C490 H504 0.961 . S
C491 C488 1.539 . S
C491 H505 0.958 . S
C491 H506 0.961 . S
C491 H507 0.960 . S
H492 C476 0.931 . S
H493 C481 0.929 . S
H494 C482 0.960 . S
H495 C482 0.962 . S
H496 C482 0.960 . S
H497 C483 0.961 . S
H498 C483 0.961 . S
H499 C483 0.961 . S
H500 C484 0.931 . S
H501 C489 0.930 . S
H502 C490 0.956 . S
H503 C490 0.961 . S
H504 C490 0.961 . S
H505 C491 0.958 . S
H506 C491 0.961 . S
H507 C491 0.960 . S
C508 C509 1.391 . S
C508 C510 1.394 . S
C508 H524 0.931 . S
C509 C508 1.391 . S
C509 C513 1.376 . S
C510 C508 1.394 . S
C510 C511 1.369 . S
C510 C514 1.531 . S
C511 C510 1.369 . S
C511 C512 1.410 . S
C511 C519 1.503 . S
C512 C511 1.410 . S
C512 C513 1.392 . S
C512 C515 1.511 . S
C513 C509 1.376 . S
C513 C512 1.392 . S
C513 H525 0.929 . S
C514 C510 1.531 . S
C514 H526 0.960 . S
C514 H527 0.962 . S
C514 H528 0.960 . S
C515 C512 1.511 . S
C515 H529 0.961 . S
C515 H530 0.961 . S
C515 H531 0.961 . S
C516 C517 1.370 . S
C516 C518 1.363 . S
C516 H532 0.931 . S
C517 C516 1.370 . S
C517 C521 1.408 . S
C518 C516 1.363 . S
C518 C519 1.370 . S
C518 C522 1.524 . S
C519 C511 1.503 . S
C519 C518 1.370 . S
C519 C520 1.403 . S
C520 C519 1.403 . S
C520 C521 1.404 . S
C520 C523 1.539 . S
C521 C517 1.408 . S
C521 C520 1.404 . S
C521 H533 0.930 . S
C522 C518 1.524 . S
C522 H534 0.956 . S
C522 H535 0.961 . S
C522 H536 0.961 . S
C523 C520 1.539 . S
C523 H537 0.958 . S
C523 H538 0.961 . S
C523 H539 0.960 . S
H524 C508 0.931 . S
H525 C513 0.929 . S
H526 C514 0.960 . S
H527 C514 0.962 . S
H528 C514 0.960 . S
H529 C515 0.961 . S
H530 C515 0.961 . S
H531 C515 0.961 . S
H532 C516 0.931 . S
H533 C521 0.930 . S
H534 C522 0.956 . S
H535 C522 0.961 . S
H536 C522 0.961 . S
H537 C523 0.958 . S
H538 C523 0.961 . S
H539 C523 0.960 . S
C540 C541 1.391 . S
C540 C542 1.394 . S
C540 H556 0.931 . S
C541 C540 1.391 . S
C541 C545 1.376 . S
C542 C540 1.394 . S
C542 C543 1.369 . S
C542 C546 1.531 . S
C543 C542 1.369 . S
C543 C544 1.410 . S
C543 C551 1.503 . S
C544 C543 1.410 . S
C544 C545 1.392 . S
C544 C547 1.511 . S
C545 C541 1.376 . S
C545 C544 1.392 . S
C545 H557 0.929 . S
C546 C542 1.531 . S
C546 H558 0.960 . S
C546 H559 0.962 . S
C546 H560 0.960 . S
C547 C544 1.511 . S
C547 H561 0.961 . S
C547 H562 0.961 . S
C547 H563 0.961 . S
C548 C549 1.370 . S
C548 C550 1.363 . S
C548 H564 0.931 . S
C549 C548 1.370 . S
C549 C553 1.408 . S
C550 C548 1.363 . S
C550 C551 1.370 . S
C550 C554 1.524 . S
C551 C543 1.503 . S
C551 C550 1.370 . S
C551 C552 1.403 . S
C552 C551 1.403 . S
C552 C553 1.404 . S
C552 C555 1.539 . S
C553 C549 1.408 . S
C553 C552 1.404 . S
C553 H565 0.930 . S
C554 C550 1.524 . S
C554 H566 0.956 . S
C554 H567 0.961 . S
C554 H568 0.961 . S
C555 C552 1.539 . S
C555 H569 0.958 . S
C555 H570 0.961 . S
C555 H571 0.960 . S
H556 C540 0.931 . S
H557 C545 0.929 . S
H558 C546 0.960 . S
H559 C546 0.962 . S
H560 C546 0.960 . S
H561 C547 0.961 . S
H562 C547 0.961 . S
H563 C547 0.961 . S
H564 C548 0.931 . S
H565 C553 0.930 . S
H566 C554 0.956 . S
H567 C554 0.961 . S
H568 C554 0.961 . S
H569 C555 0.958 . S
H570 C555 0.961 . S
H571 C555 0.960 . S
C572 C573 1.391 . S
C572 C574 1.394 . S
C572 H588 0.931 . S
C573 C572 1.391 . S
C573 C577 1.376 . S
C574 C572 1.394 . S
C574 C575 1.369 . S
C574 C578 1.531 . S
C575 C574 1.369 . S
C575 C576 1.410 . S
C575 C583 1.503 . S
C576 C575 1.410 . S
C576 C577 1.392 . S
C576 C579 1.511 . S
C577 C573 1.376 . S
C577 C576 1.392 . S
C577 H589 0.929 . S
C578 C574 1.531 . S
C578 H590 0.960 . S
C578 H591 0.962 . S
C578 H592 0.960 . S
C579 C576 1.511 . S
C579 H593 0.961 . S
C579 H594 0.961 . S
C579 H595 0.961 . S
C580 C581 1.370 . S
C580 C582 1.363 . S
C580 H596 0.931 . S
C581 C580 1.370 . S
C581 C585 1.408 . S
C582 C580 1.363 . S
C582 C583 1.370 . S
C582 C586 1.524 . S
C583 C575 1.503 . S
C583 C582 1.370 . S
C583 C584 1.403 . S
C584 C583 1.403 . S
C584 C585 1.404 . S
C584 C587 1.539 . S
C585 C581 1.408 . S
C585 C584 1.404 . S
C585 H597 0.930 . S
C586 C582 1.524 . S
C586 H598 0.956 . S
C586 H599 0.961 . S
C586 H600 0.961 . S
C587 C584 1.539 . S
C587 H601 0.958 . S
C587 H602 0.961 . S
C587 H603 0.960 . S
H588 C572 0.931 . S
H589 C577 0.929 . S
H590 C578 0.960 . S
H591 C578 0.962 . S
H592 C578 0.960 . S
H593 C579 0.961 . S
H594 C579 0.961 . S
H595 C579 0.961 . S
H596 C580 0.931 . S
H597 C585 0.930 . S
H598 C586 0.956 . S
H599 C586 0.961 . S
H600 C586 0.961 . S
H601 C587 0.958 . S
H602 C587 0.961 . S
H603 C587 0.960 . S
C604 C605 1.391 . S
C604 C606 1.394 . S
C604 H620 0.931 . S
C605 C604 1.391 . S
C605 C609 1.376 . S
C606 C604 1.394 . S
C606 C607 1.369 . S
C606 C610 1.531 . S
C607 C606 1.369 . S
C607 C608 1.410 . S
C607 C615 1.503 . S
C608 C607 1.410 . S
C608 C609 1.392 . S
C608 C611 1.511 . S
C609 C605 1.376 . S
C609 C608 1.392 . S
C609 H621 0.929 . S
C610 C606 1.531 . S
C610 H622 0.960 . S
C610 H623 0.962 . S
C610 H624 0.960 . S
C611 C608 1.511 . S
C611 H625 0.961 . S
C611 H626 0.961 . S
C611 H627 0.961 . S
C612 C613 1.370 . S
C612 C614 1.363 . S
C612 H628 0.931 . S
C613 C612 1.370 . S
C613 C617 1.408 . S
C614 C612 1.363 . S
C614 C615 1.370 . S
C614 C618 1.524 . S
C615 C607 1.503 . S
C615 C614 1.370 . S
C615 C616 1.403 . S
C616 C615 1.403 . S
C616 C617 1.404 . S
C616 C619 1.539 . S
C617 C613 1.408 . S
C617 C616 1.404 . S
C617 H629 0.930 . S
C618 C614 1.524 . S
C618 H630 0.956 . S
C618 H631 0.961 . S
C618 H632 0.961 . S
C619 C616 1.539 . S
C619 H633 0.958 . S
C619 H634 0.961 . S
C619 H635 0.960 . S
H620 C604 0.931 . S
H621 C609 0.929 . S
H622 C610 0.960 . S
H623 C610 0.962 . S
H624 C610 0.960 . S
H625 C611 0.961 . S
H626 C611 0.961 . S
H627 C611 0.961 . S
H628 C612 0.931 . S
H629 C617 0.930 . S
H630 C618 0.956 . S
H631 C618 0.961 . S
H632 C618 0.961 . S
H633 C619 0.958 . S
H634 C619 0.961 . S
H635 C619 0.960 . S
C636 C637 1.391 . S
C636 C638 1.394 . S
C636 H652 0.931 . S
C637 C636 1.391 . S
C637 C641 1.376 . S
C638 C636 1.394 . S
C638 C639 1.369 . S
C638 C642 1.531 . S
C639 C638 1.369 . S
C639 C640 1.410 . S
C639 C647 1.503 . S
C640 C639 1.410 . S
C640 C641 1.392 . S
C640 C643 1.511 . S
C641 C637 1.376 . S
C641 C640 1.392 . S
C641 H653 0.929 . S
C642 C638 1.531 . S
C642 H654 0.960 . S
C642 H655 0.962 . S
C642 H656 0.960 . S
C643 C640 1.511 . S
C643 H657 0.961 . S
C643 H658 0.961 . S
C643 H659 0.961 . S
C644 C645 1.370 . S
C644 C646 1.363 1_556 S
C644 H660 0.931 1_455 S
C645 C644 1.370 . S
C645 C649 1.408 . S
C646 C644 1.363 1_554 S
C646 C647 1.370 . S
C646 C650 1.524 1_455 S
C647 C639 1.503 . S
C647 C646 1.370 . S
C647 C648 1.403 . S
C648 C647 1.403 . S
C648 C649 1.404 1_554 S
C648 C651 1.539 . S
C649 C645 1.408 . S
C649 C648 1.404 1_556 S
C649 H661 0.930 . S
C650 C646 1.524 1_655 S
C650 H662 0.956 . S
C650 H663 0.961 . S
C650 H664 0.961 . S
C651 C648 1.539 . S
C651 H665 0.958 . S
C651 H666 0.961 . S
C651 H667 0.960 . S
H652 C636 0.931 . S
H653 C641 0.929 . S
H654 C642 0.960 . S
H655 C642 0.962 . S
H656 C642 0.960 . S
H657 C643 0.961 . S
H658 C643 0.961 . S
H659 C643 0.961 . S
H660 C644 0.931 1_655 S
H661 C649 0.930 . S
H662 C650 0.956 . S
H663 C650 0.961 . S
H664 C650 0.961 . S
H665 C651 0.958 . S
H666 C651 0.961 . S
H667 C651 0.960 . S
C668 C669 1.391 . S
C668 C670 1.394 . S
C668 H684 0.931 . S
C669 C668 1.391 . S
C669 C673 1.376 . S
C670 C668 1.394 . S
C670 C671 1.369 . S
C670 C674 1.531 . S
C671 C670 1.369 . S
C671 C672 1.410 . S
C671 C679 1.503 . S
C672 C671 1.410 . S
C672 C673 1.392 . S
C672 C675 1.511 . S
C673 C669 1.376 . S
C673 C672 1.392 . S
C673 H685 0.929 . S
C674 C670 1.531 . S
C674 H686 0.960 . S
C674 H687 0.962 1_545 S
C674 H688 0.960 . S
C675 C672 1.511 . S
C675 H689 0.961 . S
C675 H690 0.961 . S
C675 H691 0.961 . S
C676 C677 1.370 1_565 S
C676 C678 1.363 . S
C676 H692 0.931 . S
C677 C676 1.370 1_545 S
C677 C681 1.408 . S
C678 C676 1.363 . S
C678 C679 1.370 1_565 S
C678 C682 1.524 . S
C679 C671 1.503 . S
C679 C678 1.370 1_545 S
C679 C680 1.403 . S
C680 C679 1.403 . S
C680 C681 1.404 . S
C680 C683 1.539 . S
C681 C677 1.408 . S
C681 C680 1.404 . S
C681 H693 0.930 . S
C682 C678 1.524 . S
C682 H694 0.956 . S
C682 H695 0.961 . S
C682 H696 0.961 . S
C683 C680 1.539 . S
C683 H697 0.958 . S
C683 H698 0.961 . S
C683 H699 0.960 . S
H684 C668 0.931 . S
H685 C673 0.929 . S
H686 C674 0.960 . S
H687 C674 0.962 1_565 S
H688 C674 0.960 . S
H689 C675 0.961 . S
H690 C675 0.961 . S
H691 C675 0.961 . S
H692 C676 0.931 . S
H693 C681 0.930 . S
H694 C682 0.956 . S
H695 C682 0.961 . S
H696 C682 0.961 . S
H697 C683 0.958 . S
H698 C683 0.961 . S
H699 C683 0.960 . S
C700 C701 1.391 . S
C700 C702 1.394 . S
C700 H716 0.931 . S
C701 C700 1.391 . S
C701 C705 1.376 . S
C702 C700 1.394 . S
C702 C703 1.369 . S
C702 C706 1.531 . S
C703 C702 1.369 . S
C703 C704 1.410 . S
C703 C711 1.503 . S
C704 C703 1.410 . S
C704 C705 1.392 . S
C704 C707 1.511 . S
C705 C701 1.376 . S
C705 C704 1.392 . S
C705 H717 0.929 . S
C706 C702 1.531 . S
C706 H718 0.960 . S
C706 H719 0.962 . S
C706 H720 0.960 . S
C707 C704 1.511 . S
C707 H721 0.961 . S
C707 H722 0.961 . S
C707 H723 0.961 . S
C708 C709 1.370 . S
C708 C710 1.363 . S
C708 H724 0.931 . S
C709 C708 1.370 . S
C709 C713 1.408 . S
C710 C708 1.363 . S
C710 C711 1.370 . S
C710 C714 1.524 . S
C711 C703 1.503 . S
C711 C710 1.370 . S
C711 C712 1.403 . S
C712 C711 1.403 . S
C712 C713 1.404 . S
C712 C715 1.539 . S
C713 C709 1.408 . S
C713 C712 1.404 . S
C713 H725 0.930 . S
C714 C710 1.524 . S
C714 H726 0.956 . S
C714 H727 0.961 . S
C714 H728 0.961 . S
C715 C712 1.539 . S
C715 H729 0.958 . S
C715 H730 0.961 . S
C715 H731 0.960 . S
H716 C700 0.931 . S
H717 C705 0.929 . S
H718 C706 0.960 . S
H719 C706 0.962 . S
H720 C706 0.960 . S
H721 C707 0.961 . S
H722 C707 0.961 . S
H723 C707 0.961 . S
H724 C708 0.931 . S
H725 C713 0.930 . S
H726 C714 0.956 . S
H727 C714 0.961 . S
H728 C714 0.961 . S
H729 C715 0.958 . S
H730 C715 0.961 . S
H731 C715 0.960 . S
C732 C733 1.391 . S
C732 C734 1.394 . S
C732 H748 0.931 . S
C733 C732 1.391 . S
C733 C737 1.376 . S
C734 C732 1.394 . S
C734 C735 1.369 . S
C734 C738 1.531 1_545 S
C735 C734 1.369 . S
C735 C736 1.410 . S
C735 C743 1.503 . S
C736 C735 1.410 . S
C736 C737 1.392 . S
C736 C739 1.511 . S
C737 C733 1.376 . S
C737 C736 1.392 . S
C737 H749 0.929 . S
C738 C734 1.531 1_565 S
C738 H750 0.960 . S
C738 H751 0.962 1_565 S
C738 H752 0.960 . S
C739 C736 1.511 . S
C739 H753 0.961 . S
C739 H754 0.961 . S
C739 H755 0.961 . S
C740 C741 1.370 . S
C740 C742 1.363 . S
C740 H756 0.931 . S
C741 C740 1.370 . S
C741 C745 1.408 . S
C742 C740 1.363 . S
C742 C743 1.370 . S
C742 C746 1.524 . S
C743 C735 1.503 . S
C743 C742 1.370 . S
C743 C744 1.403 . S
C744 C743 1.403 . S
C744 C745 1.404 . S
C744 C747 1.539 1_545 S
C745 C741 1.408 . S
C745 C744 1.404 . S
C745 H757 0.930 1_545 S
C746 C742 1.524 . S
C746 H758 0.956 . S
C746 H759 0.961 . S
C746 H760 0.961 . S
C747 C744 1.539 1_565 S
C747 H761 0.958 . S
C747 H762 0.961 . S
C747 H763 0.960 . S
H748 C732 0.931 . S
H749 C737 0.929 . S
H750 C738 0.960 . S
H751 C738 0.962 1_545 S
H752 C738 0.960 . S
H753 C739 0.961 . S
H754 C739 0.961 . S
H755 C739 0.961 . S
H756 C740 0.931 . S
H757 C745 0.930 1_565 S
H758 C746 0.956 . S
H759 C746 0.961 . S
H760 C746 0.961 . S
H761 C747 0.958 . S
H762 C747 0.961 . S
H763 C747 0.960 . S
C764 C765 1.391 . S
C764 C766 1.394 . S
C764 H780 0.931 . S
C765 C764 1.391 . S
C765 C769 1.376 . S
C766 C764 1.394 . S
C766 C767 1.369 . S
C766 C770 1.531 . S
C767 C766 1.369 . S
C767 C768 1.410 . S
C767 C775 1.503 . S
C768 C767 1.410 . S
C768 C769 1.392 . S
C768 C771 1.511 . S
C769 C765 1.376 . S
C769 C768 1.392 . S
C769 H781 0.929 . S
C770 C766 1.531 . S
C770 H782 0.960 . S
C770 H783 0.962 . S
C770 H784 0.960 . S
C771 C768 1.511 . S
C771 H785 0.961 . S
C771 H786 0.961 . S
C771 H787 0.961 . S
C772 C773 1.370 . S
C772 C774 1.363 1_554 S
C772 H788 0.931 . S
C773 C772 1.370 . S
C773 C777 1.408 . S
C774 C772 1.363 1_556 S
C774 C775 1.370 . S
C774 C778 1.524 . S
C775 C767 1.503 . S
C775 C774 1.370 . S
C775 C776 1.403 . S
C776 C775 1.403 . S
C776 C777 1.404 1_556 S
C776 C779 1.539 . S
C777 C773 1.408 . S
C777 C776 1.404 1_554 S
C777 H789 0.930 . S
C778 C774 1.524 . S
C778 H790 0.956 . S
C778 H791 0.961 . S
C778 H792 0.961 . S
C779 C776 1.539 . S
C779 H793 0.958 . S
C779 H794 0.961 . S
C779 H795 0.960 . S
H780 C764 0.931 . S
H781 C769 0.929 . S
H782 C770 0.960 . S
H783 C770 0.962 . S
H784 C770 0.960 . S
H785 C771 0.961 . S
H786 C771 0.961 . S
H787 C771 0.961 . S
H788 C772 0.931 . S
H789 C777 0.930 . S
H790 C778 0.956 . S
H791 C778 0.961 . S
H792 C778 0.961 . S
H793 C779 0.958 . S
H794 C779 0.961 . S
H795 C779 0.960 . S
C796 C797 1.391 . S
C796 C798 1.394 . S
C796 H812 0.931 . S
C797 C796 1.391 . S
C797 C801 1.376 1_455 S
C798 C796 1.394 . S
C798 C799 1.369 . S
C798 C802 1.531 . S
C799 C798 1.369 . S
C799 C800 1.410 1_455 S
C799 C807 1.503 . S
C800 C799 1.410 1_655 S
C800 C801 1.392 . S
C800 C803 1.511 . S
C801 C797 1.376 1_655 S
C801 C800 1.392 . S
C801 H813 0.929 . S
C802 C798 1.531 . S
C802 H814 0.960 . S
C802 H815 0.962 . S
C802 H816 0.960 . S
C803 C800 1.511 . S
C803 H817 0.961 . S
C803 H818 0.961 . S
C803 H819 0.961 . S
C804 C805 1.370 . S
C804 C806 1.363 . S
C804 H820 0.931 1_455 S
C805 C804 1.370 . S
C805 C809 1.408 . S
C806 C804 1.363 . S
C806 C807 1.370 . S
C806 C810 1.524 1_455 S
C807 C799 1.503 . S
C807 C806 1.370 . S
C807 C808 1.403 . S
C808 C807 1.403 . S
C808 C809 1.404 . S
C808 C811 1.539 . S
C809 C805 1.408 . S
C809 C808 1.404 . S
C809 H821 0.930 . S
C810 C806 1.524 1_655 S
C810 H822 0.956 1_655 S
C810 H823 0.961 . S
C810 H824 0.961 . S
C811 C808 1.539 . S
C811 H825 0.958 . S
C811 H826 0.961 . S
C811 H827 0.960 . S
H812 C796 0.931 . S
H813 C801 0.929 . S
H814 C802 0.960 . S
H815 C802 0.962 . S
H816 C802 0.960 . S
H817 C803 0.961 . S
H818 C803 0.961 . S
H819 C803 0.961 . S
H820 C804 0.931 1_655 S
H821 C809 0.930 . S
H822 C810 0.956 1_455 S
H823 C810 0.961 . S
H824 C810 0.961 . S
H825 C811 0.958 . S
H826 C811 0.961 . S
H827 C811 0.960 . S
C253 C2 1.050 . S
C261 C243 1.028 . S
C285 C21 0.977 . S
C293 C179 0.989 . S
C317 C42 1.059 . S
C325 C211 1.046 . S
C349 C1 1.042 . S
C357 C237 1.012 . S
C389 C173 1.048 . S
C381 C22 1.035 . S
C421 C205 1.000 . S
C413 C41 0.978 . S
C445 C38 1.868 . S
C453 C115 1.842 . S
C477 C59 1.913 . S
C485 C147 1.848 . S
C509 C18 1.851 . S
C517 C77 1.816 . S
C549 C109 1.880 . S
C541 C39 1.908 . S
C581 C141 1.854 . S
C573 C58 1.882 . S
C605 C19 1.931 . S
C613 C83 1.878 . S
C645 C153 1.539 . S
C637 C9 1.524 . S
C669 C29 1.501 . S
C677 C89 1.548 . S
C701 C49 1.472 . S
C709 C121 1.542 . S
C741 C217 1.369 . S
C733 C28 1.362 . S
C773 C249 1.359 . S
C765 C48 1.382 . S
C797 C8 1.374 . S
C805 C185 1.368 . S
