# Generated by pormake.
# Topology eea, (3,6)-cn, num edge types: 1
# Building blocks:
#     Node 0, Type 0, BuildingBlock: ESEHIV_clean_linker_0, # of connection points: 3
#     Node 1, Type 0, BuildingBlock: ESEHIV_clean_linker_0, # of connection points: 3
#     Node 2, Type 0, BuildingBlock: ESEHIV_clean_linker_0, # of connection points: 3
#     Node 3, Type 0, BuildingBlock: ESEHIV_clean_linker_0, # of connection points: 3
#     Node 4, Type 0, BuildingBlock: ESEHIV_clean_linker_0, # of connection points: 3
#     Node 5, Type 0, BuildingBlock: ESEHIV_clean_linker_0, # of connection points: 3
#     Node 6, Type 0, BuildingBlock: ESEHIV_clean_linker_0, # of connection points: 3
#     Node 7, Type 0, BuildingBlock: ESEHIV_clean_linker_0, # of connection points: 3
#     Node 8, Type 0, BuildingBlock: ESEHIV_clean_linker_0, # of connection points: 3
#     Node 9, Type 0, BuildingBlock: ESEHIV_clean_linker_0, # of connection points: 3
#     Node 10, Type 0, BuildingBlock: ESEHIV_clean_linker_0, # of connection points: 3
#     Node 11, Type 0, BuildingBlock: ESEHIV_clean_linker_0, # of connection points: 3
#     Node 12, Type 0, BuildingBlock: ESEHIV_clean_linker_0, # of connection points: 3
#     Node 13, Type 0, BuildingBlock: ESEHIV_clean_linker_0, # of connection points: 3
#     Node 14, Type 0, BuildingBlock: ESEHIV_clean_linker_0, # of connection points: 3
#     Node 15, Type 0, BuildingBlock: ESEHIV_clean_linker_0, # of connection points: 3
#     Node 16, Type 0, BuildingBlock: ESEHIV_clean_linker_0, # of connection points: 3
#     Node 17, Type 0, BuildingBlock: ESEHIV_clean_linker_0, # of connection points: 3
#     Node 18, Type 1, BuildingBlock: HISSIN_clean_sbu_0, # of connection points: 6
#     Node 19, Type 1, BuildingBlock: HISSIN_clean_sbu_0, # of connection points: 6
#     Node 20, Type 1, BuildingBlock: HISSIN_clean_sbu_0, # of connection points: 6
#     Node 21, Type 1, BuildingBlock: HISSIN_clean_sbu_0, # of connection points: 6
#     Node 22, Type 1, BuildingBlock: HISSIN_clean_sbu_0, # of connection points: 6
#     Node 23, Type 1, BuildingBlock: HISSIN_clean_sbu_0, # of connection points: 6
#     Node 24, Type 1, BuildingBlock: HISSIN_clean_sbu_0, # of connection points: 6
#     Node 25, Type 1, BuildingBlock: HISSIN_clean_sbu_0, # of connection points: 6
#     Node 26, Type 1, BuildingBlock: HISSIN_clean_sbu_0, # of connection points: 6
#     Edge 27, Type (0, 1), BuildingBlock: XIVTED_clean_linker_0, # of connection points: 2
#     Edge 28, Type (0, 1), BuildingBlock: XIVTED_clean_linker_0, # of connection points: 2
#     Edge 29, Type (0, 1), BuildingBlock: XIVTED_clean_linker_0, # of connection points: 2
#     Edge 30, Type (0, 1), BuildingBlock: XIVTED_clean_linker_0, # of connection points: 2
#     Edge 31, Type (0, 1), BuildingBlock: XIVTED_clean_linker_0, # of connection points: 2
#     Edge 32, Type (0, 1), BuildingBlock: XIVTED_clean_linker_0, # of connection points: 2
#     Edge 33, Type (0, 1), BuildingBlock: XIVTED_clean_linker_0, # of connection points: 2
#     Edge 34, Type (0, 1), BuildingBlock: XIVTED_clean_linker_0, # of connection points: 2
#     Edge 35, Type (0, 1), BuildingBlock: XIVTED_clean_linker_0, # of connection points: 2
#     Edge 36, Type (0, 1), BuildingBlock: XIVTED_clean_linker_0, # of connection points: 2
#     Edge 37, Type (0, 1), BuildingBlock: XIVTED_clean_linker_0, # of connection points: 2
#     Edge 38, Type (0, 1), BuildingBlock: XIVTED_clean_linker_0, # of connection points: 2
#     Edge 39, Type (0, 1), BuildingBlock: XIVTED_clean_linker_0, # of connection points: 2
#     Edge 40, Type (0, 1), BuildingBlock: XIVTED_clean_linker_0, # of connection points: 2
#     Edge 41, Type (0, 1), BuildingBlock: XIVTED_clean_linker_0, # of connection points: 2
#     Edge 42, Type (0, 1), BuildingBlock: XIVTED_clean_linker_0, # of connection points: 2
#     Edge 43, Type (0, 1), BuildingBlock: XIVTED_clean_linker_0, # of connection points: 2
#     Edge 44, Type (0, 1), BuildingBlock: XIVTED_clean_linker_0, # of connection points: 2
#     Edge 45, Type (0, 1), BuildingBlock: XIVTED_clean_linker_0, # of connection points: 2
#     Edge 46, Type (0, 1), BuildingBlock: XIVTED_clean_linker_0, # of connection points: 2
#     Edge 47, Type (0, 1), BuildingBlock: XIVTED_clean_linker_0, # of connection points: 2
#     Edge 48, Type (0, 1), BuildingBlock: XIVTED_clean_linker_0, # of connection points: 2
#     Edge 49, Type (0, 1), BuildingBlock: XIVTED_clean_linker_0, # of connection points: 2
#     Edge 50, Type (0, 1), BuildingBlock: XIVTED_clean_linker_0, # of connection points: 2
#     Edge 51, Type (0, 1), BuildingBlock: XIVTED_clean_linker_0, # of connection points: 2
#     Edge 52, Type (0, 1), BuildingBlock: XIVTED_clean_linker_0, # of connection points: 2
#     Edge 53, Type (0, 1), BuildingBlock: XIVTED_clean_linker_0, # of connection points: 2
#     Edge 54, Type (0, 1), BuildingBlock: XIVTED_clean_linker_0, # of connection points: 2
#     Edge 55, Type (0, 1), BuildingBlock: XIVTED_clean_linker_0, # of connection points: 2
#     Edge 56, Type (0, 1), BuildingBlock: XIVTED_clean_linker_0, # of connection points: 2
#     Edge 57, Type (0, 1), BuildingBlock: XIVTED_clean_linker_0, # of connection points: 2
#     Edge 58, Type (0, 1), BuildingBlock: XIVTED_clean_linker_0, # of connection points: 2
#     Edge 59, Type (0, 1), BuildingBlock: XIVTED_clean_linker_0, # of connection points: 2
#     Edge 60, Type (0, 1), BuildingBlock: XIVTED_clean_linker_0, # of connection points: 2
#     Edge 61, Type (0, 1), BuildingBlock: XIVTED_clean_linker_0, # of connection points: 2
#     Edge 62, Type (0, 1), BuildingBlock: XIVTED_clean_linker_0, # of connection points: 2
#     Edge 63, Type (0, 1), BuildingBlock: XIVTED_clean_linker_0, # of connection points: 2
#     Edge 64, Type (0, 1), BuildingBlock: XIVTED_clean_linker_0, # of connection points: 2
#     Edge 65, Type (0, 1), BuildingBlock: XIVTED_clean_linker_0, # of connection points: 2
#     Edge 66, Type (0, 1), BuildingBlock: XIVTED_clean_linker_0, # of connection points: 2
#     Edge 67, Type (0, 1), BuildingBlock: XIVTED_clean_linker_0, # of connection points: 2
#     Edge 68, Type (0, 1), BuildingBlock: XIVTED_clean_linker_0, # of connection points: 2
#     Edge 69, Type (0, 1), BuildingBlock: XIVTED_clean_linker_0, # of connection points: 2
#     Edge 70, Type (0, 1), BuildingBlock: XIVTED_clean_linker_0, # of connection points: 2
#     Edge 71, Type (0, 1), BuildingBlock: XIVTED_clean_linker_0, # of connection points: 2
#     Edge 72, Type (0, 1), BuildingBlock: XIVTED_clean_linker_0, # of connection points: 2
#     Edge 73, Type (0, 1), BuildingBlock: XIVTED_clean_linker_0, # of connection points: 2
#     Edge 74, Type (0, 1), BuildingBlock: XIVTED_clean_linker_0, # of connection points: 2
#     Edge 75, Type (0, 1), BuildingBlock: XIVTED_clean_linker_0, # of connection points: 2
#     Edge 76, Type (0, 1), BuildingBlock: XIVTED_clean_linker_0, # of connection points: 2
#     Edge 77, Type (0, 1), BuildingBlock: XIVTED_clean_linker_0, # of connection points: 2
#     Edge 78, Type (0, 1), BuildingBlock: XIVTED_clean_linker_0, # of connection points: 2
#     Edge 79, Type (0, 1), BuildingBlock: XIVTED_clean_linker_0, # of connection points: 2
#     Edge 80, Type (0, 1), BuildingBlock: XIVTED_clean_linker_0, # of connection points: 2
# Relax obj value: 0.035
# Max RMSD: 0.131
# Mean RMSD: 0.089
data_MOF--net-eea--node1-HISSIN_clean_sbu_0--node2-ESEHIV_clean_linker_0--edge1-XIVTED_clean_linker_0
_symmetry_space_group_name_H-M    P1
_symmetry_Int_Tables_number       1
_symmetry_cell_setting            triclinic
loop_
_symmetry_equiv_pos_as_xyz
'x, y, z'
_cell_length_a     47.87149
_cell_length_b     48.039235
_cell_length_c     73.773338
_cell_angle_alpha  93.306952
_cell_angle_beta   93.145339
_cell_angle_gamma 119.83702
loop_
_atom_site_label
_atom_site_type_symbol
_atom_site_fract_x
_atom_site_fract_y
_atom_site_fract_z
_atom_type_partial_charge
H0 H 0.30467 0.19965 0.43544 0.0
H1 H 0.30789 0.11179 0.43391 0.0
H2 H 0.26427 0.13143 0.38766 0.0
C3 C 0.30007 0.17739 0.42805 0.0
C4 C 0.28463 0.16865 0.41019 0.0
C5 C 0.30797 0.15669 0.4368 0.0
C6 C 0.30147 0.12766 0.42727 0.0
C7 C 0.28574 0.11834 0.40956 0.0
C8 C 0.27776 0.13915 0.40102 0.0
H9 H 0.83974 0.10347 0.44232 0.0
H10 H 0.92831 0.19242 0.44014 0.0
H11 H 0.89375 0.1174 0.39573 0.0
C12 C 0.8605 0.11824 0.43511 0.0
C13 C 0.86329 0.10697 0.41771 0.0
C14 C 0.88412 0.14873 0.44333 0.0
C15 C 0.91044 0.1687 0.43381 0.0
C16 C 0.91401 0.15773 0.41641 0.0
C17 C 0.89043 0.1267 0.40866 0.0
H18 H 0.84067 0.74405 0.44467 0.0
H19 H 0.93314 0.74913 0.44571 0.0
H20 H 0.90007 0.78215 0.40083 0.0
C21 C 0.86282 0.75035 0.43849 0.0
C22 C 0.86763 0.76381 0.42174 0.0
C23 C 0.88619 0.74475 0.44725 0.0
C24 C 0.91499 0.7533 0.43907 0.0
C25 C 0.92033 0.76696 0.4223 0.0
C26 C 0.8964 0.77197 0.4138 0.0
H27 H 0.07703 0.25723 0.56669 0.0
H28 H 0.16543 0.25414 0.56638 0.0
H29 H 0.10656 0.22003 0.61086 0.0
C30 C 0.09402 0.25111 0.57295 0.0
C31 C 0.08834 0.23771 0.58978 0.0
C32 C 0.12217 0.25774 0.56454 0.0
C33 C 0.14428 0.25013 0.57302 0.0
C34 C 0.13878 0.23636 0.58968 0.0
C35 C 0.11087 0.23046 0.59795 0.0
H36 H 0.6917 0.87754 0.58092 0.0
H37 H 0.69305 0.78864 0.57524 0.0
H38 H 0.7276 0.84843 0.62628 0.0
C39 C 0.69626 0.8599 0.58685 0.0
C40 C 0.70992 0.86603 0.60495 0.0
C41 C 0.69017 0.83211 0.576 0.0
C42 C 0.69699 0.80977 0.58364 0.0
C43 C 0.71044 0.81544 0.60183 0.0
C44 C 0.7164 0.84342 0.61242 0.0
H45 H 0.07237 0.8116 0.56586 0.0
H46 H 0.16368 0.89901 0.56579 0.0
H47 H 0.11245 0.88001 0.61367 0.0
C48 C 0.09162 0.83397 0.57294 0.0
C49 C 0.08914 0.84327 0.59098 0.0
C50 C 0.11827 0.8543 0.56372 0.0
C51 C 0.14278 0.88364 0.57276 0.0
C52 C 0.1409 0.89306 0.59077 0.0
C53 C 0.11407 0.87272 0.59978 0.0
H54 H 0.96138 0.52485 0.76692 0.0
H55 H 0.96522 0.43737 0.76626 0.0
H56 H 0.92728 0.45868 0.71827 0.0
C57 C 0.95808 0.50311 0.75951 0.0
C58 C 0.94434 0.49478 0.74129 0.0
C59 C 0.96528 0.48229 0.76866 0.0
C60 C 0.95942 0.45337 0.75928 0.0
C61 C 0.94537 0.44446 0.74118 0.0
C62 C 0.93845 0.46557 0.73218 0.0
H63 H 0.51376 0.44295 0.77723 0.0
H64 H 0.60268 0.53194 0.77549 0.0
H65 H 0.55969 0.46372 0.72757 0.0
C66 C 0.53312 0.45916 0.76956 0.0
C67 C 0.53421 0.44968 0.75144 0.0
C68 C 0.55735 0.48909 0.77808 0.0
C69 C 0.58334 0.50956 0.76848 0.0
C70 C 0.58506 0.5002 0.75027 0.0
C71 C 0.55963 0.47072 0.74178 0.0
H72 H 0.50891 0.08466 0.78 0.0
H73 H 0.5927 0.07436 0.77648 0.0
H74 H 0.56215 0.11187 0.7329 0.0
C75 C 0.52878 0.08709 0.77257 0.0
C76 C 0.53267 0.09915 0.7554 0.0
C77 C 0.55024 0.07801 0.78027 0.0
C78 C 0.57614 0.08135 0.77061 0.0
C79 C 0.58086 0.09385 0.75351 0.0
C80 C 0.55883 0.10245 0.74607 0.0
H81 H 0.74161 0.58807 0.89884 0.0
H82 H 0.83061 0.58602 0.8994 0.0
H83 H 0.77243 0.55426 0.94428 0.0
C84 C 0.75905 0.58296 0.90554 0.0
C85 C 0.75371 0.57063 0.92269 0.0
C86 C 0.7868 0.58858 0.89698 0.0
C87 C 0.8092 0.58175 0.90584 0.0
C88 C 0.8042 0.56929 0.92287 0.0
C89 C 0.77644 0.56391 0.93115 0.0
H90 H 0.35432 0.20394 0.9096 0.0
H91 H 0.36091 0.11793 0.90943 0.0
H92 H 0.40654 0.19112 0.95456 0.0
C93 C 0.36229 0.18932 0.91633 0.0
C94 C 0.38047 0.20086 0.93344 0.0
C95 C 0.3557 0.15976 0.9074 0.0
C96 C 0.36629 0.14097 0.91613 0.0
C97 C 0.38417 0.15192 0.9333 0.0
C98 C 0.39117 0.18186 0.94181 0.0
H99 H 0.73956 0.14524 0.90017 0.0
H100 H 0.83008 0.23327 0.89939 0.0
H101 H 0.77881 0.21545 0.94721 0.0
C102 C 0.75859 0.16796 0.90704 0.0
C103 C 0.75594 0.17782 0.92493 0.0
C104 C 0.78507 0.18821 0.89767 0.0
C105 C 0.80929 0.21797 0.90646 0.0
C106 C 0.80723 0.22796 0.9243 0.0
C107 C 0.78057 0.20772 0.93344 0.0
H108 H 0.64065 0.86329 0.09968 0.0
H109 H 0.62802 0.76865 0.10194 0.0
H110 H 0.59049 0.79131 0.05431 0.0
C111 C 0.63157 0.83906 0.09336 0.0
C112 C 0.61415 0.82968 0.07604 0.0
C113 C 0.63682 0.81725 0.10278 0.0
C114 C 0.62546 0.78605 0.09438 0.0
C115 C 0.60905 0.77651 0.07678 0.0
C116 C 0.60371 0.79863 0.0677 0.0
H117 H 0.17122 0.78434 0.10553 0.0
H118 H 0.26065 0.87386 0.10553 0.0
H119 H 0.22915 0.80027 0.06065 0.0
C120 C 0.19222 0.80004 0.09874 0.0
C121 C 0.19724 0.78882 0.08196 0.0
C122 C 0.21492 0.83064 0.10736 0.0
C123 C 0.24306 0.8502 0.09897 0.0
C124 C 0.24825 0.8395 0.08198 0.0
C125 C 0.22512 0.80885 0.0736 0.0
H126 H 0.1707 0.41203 0.11095 0.0
H127 H 0.2583 0.40764 0.1103 0.0
H128 H 0.23003 0.44739 0.06688 0.0
C129 C 0.19238 0.417 0.1046 0.0
C130 C 0.19756 0.43023 0.08779 0.0
C131 C 0.21434 0.40914 0.11301 0.0
C132 C 0.24156 0.41408 0.10407 0.0
C133 C 0.24721 0.42736 0.08716 0.0
C134 C 0.22526 0.43579 0.07941 0.0
H135 H 0.41295 0.92329 0.23305 0.0
H136 H 0.50076 0.91924 0.23308 0.0
H137 H 0.44036 0.88371 0.27686 0.0
C138 C 0.4295 0.91663 0.23934 0.0
C139 C 0.42309 0.90253 0.25595 0.0
C140 C 0.4578 0.92325 0.23113 0.0
C141 C 0.47947 0.91512 0.23961 0.0
C142 C 0.47336 0.90071 0.25608 0.0
C143 C 0.44518 0.89467 0.26413 0.0
H144 H 0.02895 0.54519 0.24172 0.0
H145 H 0.03498 0.45911 0.24304 0.0
H146 H 0.08458 0.53586 0.2862 0.0
C147 C 0.03741 0.53107 0.24861 0.0
C148 C 0.05667 0.54376 0.26533 0.0
C149 C 0.03024 0.50096 0.24026 0.0
C150 C 0.04123 0.48273 0.24925 0.0
C151 C 0.06053 0.49494 0.26599 0.0
C152 C 0.06823 0.52554 0.27384 0.0
H153 H 0.41039 0.46193 0.23393 0.0
H154 H 0.49812 0.55306 0.23454 0.0
H155 H 0.44346 0.53154 0.28109 0.0
C156 C 0.4281 0.48508 0.24101 0.0
C157 C 0.42409 0.49372 0.25887 0.0
C158 C 0.45451 0.5067 0.23207 0.0
C159 C 0.47732 0.53668 0.24126 0.0
C160 C 0.47369 0.54576 0.25897 0.0
C161 C 0.44707 0.52411 0.26769 0.0
Eu162 Eu 0.49524 0.9768 0.98633 0.0
Eu163 Eu 0.52075 0.02287 0.02584 0.0
C164 C 0.48721 0.03799 0.99237 0.0
C165 C 0.4871 0.96044 0.93558 0.0
C166 C 0.50771 0.99366 0.93495 0.0
C167 C 0.4828 0.95295 0.90246 0.0
C168 C 0.5156 0.00649 0.91821 0.0
C169 C 0.47481 0.94013 0.91926 0.0
C170 C 0.5031 0.98636 0.90173 0.0
C171 C 0.47828 0.94744 0.9533 0.0
O172 O 0.47859 0.97532 0.03083 0.0
O173 O 0.45145 0.96 0.00229 0.0
C174 C 0.45171 0.95886 0.02007 0.0
O175 O 0.50611 0.9479 0.00547 0.0
O176 O 0.51041 0.04726 0.0481 0.0
O177 O 0.55604 0.04812 0.04961 0.0
O178 O 0.54204 0.99045 0.02609 0.0
C179 C 0.52921 0.96043 0.019 0.0
O180 O 0.54905 0.00936 0.98723 0.0
O181 O 0.55651 0.05246 0.00629 0.0
O182 O 0.4875 0.03525 0.00994 0.0
O183 O 0.50186 0.9493 0.96403 0.0
O184 O 0.4607 0.95647 0.96203 0.0
O185 O 0.49842 0.02394 0.98169 0.0
C186 C 0.53016 0.04179 0.07667 0.0
C187 C 0.51387 0.00851 0.07828 0.0
C188 C 0.5317 0.05173 0.10951 0.0
C189 C 0.50619 0.99688 0.09533 0.0
C190 C 0.53916 0.06334 0.09238 0.0
C191 C 0.51485 0.01833 0.11116 0.0
C192 C 0.53621 0.05369 0.0585 0.0
C193 C 0.56603 0.04 0.99332 0.0
H194 H 0.51759 0.00973 0.94743 0.0
H195 H 0.47253 0.93681 0.89003 0.0
H196 H 0.53168 0.03222 0.9182 0.0
H197 H 0.45884 0.91443 0.91949 0.0
H198 H 0.50682 0.99147 0.06631 0.0
H199 H 0.5385 0.06888 0.12139 0.0
H200 H 0.49365 0.97107 0.09612 0.0
H201 H 0.55158 0.0891 0.09139 0.0
Eu202 Eu 0.02751 0.51543 0.98822 0.0
Eu203 Eu 0.98243 0.49514 0.02262 0.0
C204 C 0.96653 0.44567 0.98751 0.0
C205 C 0.05244 0.52977 0.94057 0.0
C206 C 0.01992 0.51687 0.934 0.0
C207 C 0.06768 0.5381 0.90968 0.0
C208 C 0.01127 0.51422 0.91535 0.0
C209 C 0.07632 0.54065 0.92838 0.0
C210 C 0.035 0.52446 0.90296 0.0
C211 C 0.06118 0.53117 0.96008 0.0
O212 O 0.02839 0.49705 0.03318 0.0
O213 O 0.04383 0.4879 0.00559 0.0
C214 C 0.04554 0.48845 0.02349 0.0
O215 O 0.05721 0.55225 0.01163 0.0
O216 O 0.95294 0.45877 0.0402 0.0
O217 O 0.95754 0.50593 0.04347 0.0
O218 O 0.01544 0.54919 0.02672 0.0
C219 C 0.04589 0.56479 0.02331 0.0
O220 O 0.99371 0.53519 0.9844 0.0
O221 O 0.95228 0.49937 0.99969 0.0
O222 O 0.97026 0.44961 0.00539 0.0
O223 O 0.05753 0.55166 0.97062 0.0
O224 O 0.04999 0.50328 0.96661 0.0
O225 O 0.98136 0.47017 0.97788 0.0
C226 C 0.95284 0.47895 0.06975 0.0
C227 C 0.98425 0.48991 0.07773 0.0
C228 C 0.93236 0.46633 0.09931 0.0
C229 C 0.98967 0.48884 0.09639 0.0
C230 C 0.92696 0.46733 0.08061 0.0
C231 C 0.96374 0.47681 0.10736 0.0
C232 C 0.94678 0.47813 0.05002 0.0
C233 C 0.96325 0.52089 0.98785 0.0
H234 H 1.00121 0.50853 0.9433 0.0
H235 H 0.08645 0.54594 0.90045 0.0
H236 H 0.98596 0.50404 0.91062 0.0
H237 H 0.10154 0.55068 0.9333 0.0
H238 H 0.00449 0.49894 0.06948 0.0
H239 H 0.9119 0.45671 0.10739 0.0
H240 H 0.01418 0.49756 0.10224 0.0
H241 H 0.90254 0.45861 0.07458 0.0
Eu242 Eu 0.51297 0.48072 0.02183 0.0
Eu243 Eu 0.48283 0.49926 0.98577 0.0
C244 C 0.52139 0.55055 0.02063 0.0
C245 C 0.52424 0.46844 0.07021 0.0
C246 C 0.50428 0.48143 0.07358 0.0
C247 C 0.52567 0.45868 0.1021 0.0
C248 C 0.49514 0.48315 0.09103 0.0
C249 C 0.53478 0.45689 0.08452 0.0
C250 C 0.50591 0.47205 0.10556 0.0
C251 C 0.53292 0.46642 0.0516 0.0
O252 O 0.52445 0.49427 0.97681 0.0
O253 O 0.55436 0.50615 0.0044 0.0
C254 C 0.55216 0.50417 0.98646 0.0
O255 O 0.49748 0.43975 1.00011 0.0
O256 O 0.48966 0.53534 0.96716 0.0
O257 O 0.44691 0.48803 0.96275 0.0
O258 O 0.45896 0.44529 0.98335 0.0
C259 C 0.47198 0.4281 0.98819 0.0
O260 O 0.46125 0.46509 0.02642 0.0
O261 O 0.4491 0.49448 0.00713 0.0
O262 O 0.51684 0.54567 0.0028 0.0
O263 O 0.50919 0.44507 0.04006 0.0
O264 O 0.54936 0.49399 0.04484 0.0
O265 O 0.51498 0.52708 0.03085 0.0
C266 C 0.4722 0.51316 0.93683 0.0
C267 C 0.4718 0.48563 0.92895 0.0
C268 C 0.49427 0.54044 0.90997 0.0
C269 C 0.48263 0.48556 0.91176 0.0
C270 C 0.48312 0.54038 0.9271 0.0
C271 C 0.49459 0.51317 0.90218 0.0
C272 C 0.46492 0.51513 0.95586 0.0
C273 C 0.4429 0.47679 0.02096 0.0
H274 H 0.49568 0.49021 0.06264 0.0
H275 H 0.53454 0.45014 0.11303 0.0
H276 H 0.47943 0.49302 0.09311 0.0
H277 H 0.55007 0.44664 0.08211 0.0
H278 H 0.46384 0.46439 0.93623 0.0
H279 H 0.50362 0.56225 0.90313 0.0
H280 H 0.48187 0.46388 0.90606 0.0
H281 H 0.48405 0.56202 0.93305 0.0
Eu282 Eu 0.1555 0.30553 0.31835 0.0
Eu283 Eu 0.18329 0.35216 0.35788 0.0
C284 C 0.14895 0.3689 0.32533 0.0
C285 C 0.14519 0.28848 0.26753 0.0
C286 C 0.15788 0.32162 0.26639 0.0
C287 C 0.14704 0.28122 0.23479 0.0
C288 C 0.16519 0.33451 0.24963 0.0
C289 C 0.13977 0.26835 0.25163 0.0
C290 C 0.15996 0.31452 0.23357 0.0
C291 C 0.13958 0.27557 0.28547 0.0
O292 O 0.12986 0.31936 0.35852 0.0
O293 O 0.11905 0.27665 0.33779 0.0
C294 C 0.11158 0.28913 0.3518 0.0
O295 O 0.18766 0.29148 0.334 0.0
O296 O 0.17907 0.38185 0.37991 0.0
O297 O 0.21825 0.3716 0.38201 0.0
O298 O 0.17905 0.3046 0.36254 0.0
C299 C 0.18871 0.28931 0.35163 0.0
O300 O 0.19786 0.35288 0.31326 0.0
O301 O 0.22628 0.36742 0.34139 0.0
O302 O 0.1722 0.3811 0.33878 0.0
O303 O 0.16566 0.28194 0.29557 0.0
O304 O 0.11968 0.2803 0.29482 0.0
O305 O 0.1352 0.33872 0.31842 0.0
C306 C 0.19339 0.37137 0.4087 0.0
C307 C 0.17201 0.33858 0.41025 0.0
C308 C 0.19789 0.38202 0.44166 0.0
C309 C 0.16361 0.32757 0.42737 0.0
C310 C 0.20621 0.39302 0.42449 0.0
C311 C 0.17651 0.34912 0.44333 0.0
C312 C 0.20218 0.38273 0.39061 0.0
C313 C 0.22526 0.36871 0.32363 0.0
H314 H 0.16257 0.33766 0.27855 0.0
H315 H 0.14234 0.26504 0.22272 0.0
H316 H 0.17559 0.36028 0.24934 0.0
H317 H 0.13017 0.24273 0.25226 0.0
H318 H 0.16196 0.32145 0.3982 0.0
H319 H 0.20799 0.39935 0.45361 0.0
H320 H 0.14747 0.30205 0.42812 0.0
H321 H 0.22266 0.41843 0.42355 0.0
Eu322 Eu 0.68848 0.8358 0.32177 0.0
Eu323 Eu 0.64323 0.81628 0.35627 0.0
C324 C 0.62724 0.76625 0.32143 0.0
C325 C 0.71823 0.8486 0.27399 0.0
C326 C 0.70477 0.81924 0.26291 0.0
C327 C 0.72251 0.87635 0.24683 0.0
C328 C 0.70006 0.81846 0.244 0.0
C329 C 0.7274 0.87717 0.26574 0.0
C330 C 0.70868 0.84697 0.23579 0.0
C331 C 0.72325 0.84984 0.29403 0.0
O332 O 0.69009 0.82059 0.36725 0.0
O333 O 0.70502 0.80954 0.34001 0.0
C334 C 0.70737 0.81168 0.35793 0.0
O335 O 0.71742 0.87538 0.34411 0.0
O336 O 0.61767 0.78146 0.37551 0.0
O337 O 0.61423 0.8247 0.37528 0.0
O338 O 0.67673 0.87004 0.36135 0.0
C339 C 0.70628 0.8868 0.35659 0.0
O340 O 0.65466 0.85523 0.31706 0.0
O341 O 0.6135 0.82097 0.33317 0.0
O342 O 0.63112 0.77056 0.33929 0.0
O343 O 0.71889 0.87077 0.30368 0.0
O344 O 0.71166 0.8224 0.30114 0.0
O345 O 0.64212 0.79051 0.31162 0.0
C346 C 0.6148 0.80462 0.40354 0.0
C347 C 0.64668 0.82448 0.41139 0.0
C348 C 0.59689 0.79215 0.43364 0.0
C349 C 0.65366 0.82809 0.43027 0.0
C350 C 0.58993 0.78859 0.41472 0.0
C351 C 0.62886 0.81182 0.44161 0.0
C352 C 0.60778 0.79929 0.38368 0.0
C353 C 0.62447 0.84186 0.32096 0.0
H354 H 0.69763 0.79679 0.26881 0.0
H355 H 0.72973 0.89874 0.24084 0.0
H356 H 0.68904 0.79542 0.23584 0.0
H357 H 0.73826 0.90019 0.27392 0.0
H358 H 0.6662 0.83677 0.40287 0.0
H359 H 0.57725 0.77961 0.44202 0.0
H360 H 0.67858 0.84303 0.43596 0.0
H361 H 0.56522 0.77308 0.4088 0.0
Eu362 Eu 0.1818 0.82206 0.35457 0.0
Eu363 Eu 0.15387 0.84092 0.31816 0.0
C364 C 0.19321 0.89221 0.35213 0.0
C365 C 0.18881 0.80985 0.40346 0.0
C366 C 0.16562 0.81923 0.40554 0.0
C367 C 0.19074 0.8035 0.43583 0.0
C368 C 0.15523 0.82099 0.42263 0.0
C369 C 0.20117 0.80176 0.41864 0.0
C370 C 0.16787 0.81346 0.43803 0.0
C371 C 0.1996 0.80859 0.38534 0.0
O372 O 0.19606 0.83664 0.30954 0.0
O373 O 0.22418 0.84583 0.33759 0.0
C374 C 0.22294 0.84474 0.31965 0.0
O375 O 0.16935 0.78196 0.33296 0.0
O376 O 0.15897 0.87709 0.3 0.0
O377 O 0.11843 0.8286 0.29473 0.0
O378 O 0.13117 0.78686 0.31543 0.0
C379 C 0.14451 0.77007 0.32058 0.0
O380 O 0.12857 0.80265 0.35636 0.0
O381 O 0.12114 0.83781 0.33991 0.0
O382 O 0.19134 0.88694 0.33439 0.0
O383 O 0.17738 0.78682 0.37326 0.0
O384 O 0.21599 0.8364 0.37882 0.0
O385 O 0.18239 0.86821 0.36232 0.0
C386 C 0.14251 0.856 0.26948 0.0
C387 C 0.1612 0.84235 0.26434 0.0
C388 C 0.14123 0.8712 0.23876 0.0
C389 C 0.16999 0.84322 0.24655 0.0
C390 C 0.13254 0.8704 0.25661 0.0
C391 C 0.16021 0.85776 0.23356 0.0
C392 C 0.13486 0.85657 0.28845 0.0
C393 C 0.11218 0.81701 0.35224 0.0
H394 H 0.15563 0.82535 0.39391 0.0
H395 H 0.20111 0.7978 0.44746 0.0
H396 H 0.13723 0.82823 0.42379 0.0
H397 H 0.21903 0.7944 0.41723 0.0
H398 H 0.16913 0.83114 0.27413 0.0
H399 H 0.13357 0.88282 0.22912 0.0
H400 H 0.18417 0.83221 0.24294 0.0
H401 H 0.11832 0.88129 0.26042 0.0
Eu402 Eu 0.82786 0.64488 0.65307 0.0
Eu403 Eu 0.85409 0.69159 0.6924 0.0
C404 C 0.81855 0.70523 0.65911 0.0
C405 C 0.81997 0.62649 0.60229 0.0
C406 C 0.84169 0.6593 0.60102 0.0
C407 C 0.81436 0.61697 0.56923 0.0
C408 C 0.84961 0.6709 0.58398 0.0
C409 C 0.80645 0.60539 0.58631 0.0
C410 C 0.83595 0.64993 0.56782 0.0
C411 C 0.81114 0.61463 0.62027 0.0
O412 O 0.81134 0.64489 0.69771 0.0
O413 O 0.78413 0.62777 0.66908 0.0
C414 C 0.78451 0.6281 0.68694 0.0
O415 O 0.83757 0.61615 0.67283 0.0
O416 O 0.84468 0.71676 0.7147 0.0
O417 O 0.88954 0.71615 0.71615 0.0
O418 O 0.87585 0.65938 0.69204 0.0
C419 C 0.8619 0.62889 0.68563 0.0
O420 O 0.88163 0.67793 0.65376 0.0
O421 O 0.88881 0.72124 0.6725 0.0
O422 O 0.82001 0.70329 0.67676 0.0
O423 O 0.83459 0.61672 0.63122 0.0
O424 O 0.79369 0.6243 0.62862 0.0
O425 O 0.8298 0.69139 0.6483 0.0
C426 C 0.86314 0.70914 0.74304 0.0
C427 C 0.84957 0.67589 0.74418 0.0
C428 C 0.85987 0.71643 0.77562 0.0
C429 C 0.84116 0.66298 0.76085 0.0
C430 C 0.86825 0.72935 0.75886 0.0
C431 C 0.84616 0.68304 0.77682 0.0
C432 C 0.87002 0.72206 0.72514 0.0
C433 C 0.89828 0.70875 0.65954 0.0
H434 H 0.85231 0.67601 0.61323 0.0
H435 H 0.8037 0.60005 0.55712 0.0
H436 H 0.86593 0.69645 0.58347 0.0
H437 H 0.78969 0.57999 0.58703 0.0
H438 H 0.84509 0.6598 0.73209 0.0
H439 H 0.86437 0.73264 0.78764 0.0
H440 H 0.83017 0.63714 0.76113 0.0
H441 H 0.87849 0.75505 0.75822 0.0
Eu442 Eu 0.36005 0.18106 0.65628 0.0
Eu443 Eu 0.3129 0.15809 0.6899 0.0
C444 C 0.29963 0.11041 0.6543 0.0
C445 C 0.38744 0.19837 0.6093 0.0
C446 C 0.35514 0.18532 0.60225 0.0
C447 C 0.40422 0.20746 0.57874 0.0
C448 C 0.34735 0.18291 0.58352 0.0
C449 C 0.41199 0.20977 0.59753 0.0
C450 C 0.37175 0.19354 0.57155 0.0
C451 C 0.39522 0.19908 0.62883 0.0
O452 O 0.35801 0.15887 0.70097 0.0
O453 O 0.37784 0.15493 0.67378 0.0
C454 C 0.37742 0.15319 0.69151 0.0
O455 O 0.38844 0.21646 0.68035 0.0
O456 O 0.28279 0.12087 0.70688 0.0
O457 O 0.28626 0.16753 0.71018 0.0
O458 O 0.34609 0.21203 0.69541 0.0
C459 C 0.37668 0.22804 0.6923 0.0
O460 O 0.32625 0.20082 0.65271 0.0
O461 O 0.28388 0.16311 0.6666 0.0
O462 O 0.30203 0.1135 0.67217 0.0
O463 O 0.39029 0.21862 0.63943 0.0
O464 O 0.38429 0.17087 0.63494 0.0
O465 O 0.31493 0.13545 0.6451 0.0
C466 C 0.28152 0.14041 0.73639 0.0
C467 C 0.31291 0.15175 0.74453 0.0
C468 C 0.26069 0.12758 0.76586 0.0
C469 C 0.31815 0.15076 0.76321 0.0
C470 C 0.25546 0.1285 0.74712 0.0
C471 C 0.29206 0.13841 0.77406 0.0
C472 C 0.2758 0.13968 0.71662 0.0
C473 C 0.29544 0.18565 0.65538 0.0
H474 H 0.33593 0.17656 0.61122 0.0
H475 H 0.42346 0.21562 0.56982 0.0
H476 H 0.32219 0.17251 0.57839 0.0
H477 H 0.43705 0.2199 0.60283 0.0
H478 H 0.3333 0.16106 0.73638 0.0
H479 H 0.24011 0.11773 0.77384 0.0
H480 H 0.34265 0.15977 0.76917 0.0
H481 H 0.23106 0.11951 0.74098 0.0
Eu482 Eu 0.84765 0.15012 0.68901 0.0
Eu483 Eu 0.81607 0.16358 0.65188 0.0
C484 C 0.85552 0.21825 0.6844 0.0
C485 C 0.85864 0.14277 0.73823 0.0
C486 C 0.83785 0.15513 0.74053 0.0
C487 C 0.85871 0.13469 0.77044 0.0
C488 C 0.82763 0.15737 0.75761 0.0
C489 C 0.86891 0.13238 0.75323 0.0
C490 C 0.83811 0.14744 0.77282 0.0
C491 C 0.8684 0.14006 0.71997 0.0
O492 O 0.85914 0.16045 0.64375 0.0
O493 O 0.8891 0.1746 0.67151 0.0
C494 C 0.88693 0.17147 0.65356 0.0
O495 O 0.83328 0.10846 0.6681 0.0
O496 O 0.81051 0.19629 0.63454 0.0
O497 O 0.78767 0.14561 0.6254 0.0
O498 O 0.79051 0.11009 0.65414 0.0
C499 C 0.8053 0.09416 0.65824 0.0
O500 O 0.79552 0.13292 0.69338 0.0
O501 O 0.78155 0.15921 0.67269 0.0
O502 O 0.85317 0.21166 0.6667 0.0
O503 O 0.84576 0.11703 0.7086 0.0
O504 O 0.88369 0.16713 0.71255 0.0
O505 O 0.84585 0.19524 0.69523 0.0
C506 C 0.81005 0.18168 0.60338 0.0
C507 C 0.84225 0.18932 0.60236 0.0
C508 C 0.80348 0.18087 0.57044 0.0
C509 C 0.85472 0.19183 0.58548 0.0
C510 C 0.79092 0.17805 0.58737 0.0
C511 C 0.83526 0.18696 0.56929 0.0
C512 C 0.79568 0.17423 0.62082 0.0
C513 C 0.7761 0.14292 0.68712 0.0
H514 H 0.82944 0.163 0.72905 0.0
H515 H 0.8674 0.12707 0.78191 0.0
H516 H 0.81131 0.16673 0.75885 0.0
H517 H 0.88482 0.1226 0.75166 0.0
H518 H 0.85742 0.19231 0.6146 0.0
H519 H 0.78784 0.17672 0.55819 0.0
H520 H 0.87938 0.19687 0.58504 0.0
H521 H 0.76594 0.17193 0.5879 0.0
H522 H 0.31059 0.87452 0.09798 0.0
H523 H 0.38933 0.92524 0.00355 0.0
H524 H 0.25431 0.84944 0.0458 0.0
H525 H 0.44454 0.94982 0.05611 0.0
H526 H 0.33947 0.89729 0.0186 0.0
H527 H 0.35993 0.90349 0.0828 0.0
C528 C 0.30858 0.87543 0.08336 0.0
C529 C 0.27826 0.85942 0.07315 0.0
C530 C 0.36254 0.90876 0.0268 0.0
C531 C 0.33472 0.89209 0.05559 0.0
C532 C 0.39101 0.9246 0.01821 0.0
C533 C 0.42121 0.93993 0.02855 0.0
C534 C 0.3643 0.90827 0.04587 0.0
C535 C 0.42187 0.93842 0.04753 0.0
C536 C 0.33678 0.89173 0.07466 0.0
C537 C 0.2772 0.86104 0.05418 0.0
N538 N 0.3939 0.92297 0.05555 0.0
N539 N 0.30499 0.87697 0.04601 0.0
H540 H 0.1647 0.45736 0.10355 0.0
H541 H 0.08177 0.46531 0.00818 0.0
H542 H 0.17657 0.42081 0.05144 0.0
H543 H 0.05936 0.49056 0.06036 0.0
H544 H 0.11791 0.4505 0.02393 0.0
H545 H 0.12693 0.47078 0.08815 0.0
C546 C 0.15924 0.45196 0.0889 0.0
C547 C 0.17402 0.43805 0.07879 0.0
C548 C 0.10506 0.45923 0.03195 0.0
C549 C 0.13108 0.45373 0.06105 0.0
C550 C 0.08442 0.46776 0.02295 0.0
C551 C 0.06746 0.47925 0.03293 0.0
C552 C 0.10898 0.4623 0.05111 0.0
C553 C 0.07191 0.48182 0.05208 0.0
C554 C 0.13779 0.45978 0.0801 0.0
C555 C 0.16627 0.43201 0.05979 0.0
N556 N 0.09228 0.47349 0.06053 0.0
N557 N 0.14545 0.43995 0.05156 0.0
H558 H 0.5521 0.73855 0.05493 0.0
H559 H 0.55672 0.57664 0.05371 0.0
H560 H 0.63554 0.7373 0.07953 0.0
H561 H 0.51534 0.59913 0.00728 0.0
H562 H 0.57876 0.63216 0.06754 0.0
H563 H 0.53133 0.68376 0.04109 0.0
C564 C 0.56632 0.72705 0.05731 0.0
C565 C 0.59593 0.74295 0.06833 0.0
C566 C 0.56486 0.6248 0.05432 0.0
C567 C 0.57135 0.67963 0.05306 0.0
C568 C 0.55217 0.59322 0.0465 0.0
C569 C 0.5343 0.58347 0.02934 0.0
C570 C 0.55887 0.6463 0.0451 0.0
C571 C 0.52918 0.60583 0.02049 0.0
C572 C 0.55422 0.69564 0.04951 0.0
C573 C 0.61246 0.72603 0.07136 0.0
N574 N 0.54119 0.6362 0.02855 0.0
N575 N 0.59983 0.69517 0.06386 0.0
H576 H 0.83721 0.28535 0.90914 0.0
H577 H 0.93555 0.38864 0.00284 0.0
H578 H 0.83462 0.24351 0.95971 0.0
H579 H 0.94785 0.42856 0.95093 0.0
H580 H 0.89825 0.33534 0.9873 0.0
H581 H 0.87774 0.33803 0.92418 0.0
C582 C 0.84538 0.28718 0.92337 0.0
C583 C 0.83247 0.25995 0.93319 0.0
C584 C 0.9092 0.35573 0.97929 0.0
C585 C 0.87851 0.32032 0.95057 0.0
C586 C 0.93048 0.38621 0.98816 0.0
C587 C 0.94477 0.41315 0.97817 0.0
C588 C 0.90198 0.35214 0.96031 0.0
C589 C 0.93737 0.40849 0.95918 0.0
C590 C 0.86841 0.31731 0.93198 0.0
C591 C 0.84356 0.2639 0.95168 0.0
N592 N 0.91636 0.37857 0.95087 0.0
N593 N 0.86588 0.29354 0.95978 0.0
H594 H 0.74952 0.58301 0.95889 0.0
H595 H 0.55638 0.50057 0.94952 0.0
H596 H 0.69064 0.54277 0.9075 0.0
H597 H 0.6152 0.53054 1.00112 0.0
H598 H 0.60518 0.51844 0.93374 0.0
H599 H 0.70071 0.56717 0.97428 0.0
C600 C 0.7263 0.57084 0.95082 0.0
C601 C 0.72425 0.56393 0.93185 0.0
C602 C 0.60742 0.52106 0.94851 0.0
C603 C 0.668 0.54586 0.94948 0.0
C604 C 0.57952 0.51081 0.95757 0.0
C605 C 0.58158 0.51394 0.97674 0.0
C606 C 0.63773 0.53473 0.95863 0.0
C607 C 0.61233 0.52751 0.98636 0.0
C608 C 0.6984 0.56185 0.95963 0.0
C609 C 0.69347 0.54875 0.9221 0.0
N610 N 0.63913 0.53743 0.97721 0.0
N611 N 0.66657 0.54008 0.93103 0.0
H612 H 0.41264 0.12129 0.91673 0.0
H613 H 0.45851 0.06812 0.00948 0.0
H614 H 0.38726 0.14106 0.96925 0.0
H615 H 0.48274 0.04829 0.95656 0.0
H616 H 0.43244 0.09514 0.99517 0.0
H617 H 0.43765 0.09362 0.93118 0.0
C618 C 0.41198 0.11947 0.93128 0.0
C619 C 0.39776 0.13344 0.94179 0.0
C620 C 0.44353 0.08492 0.98672 0.0
C621 C 0.42694 0.10229 0.95852 0.0
C622 C 0.4585 0.06958 0.99488 0.0
C623 C 0.47283 0.05592 0.98421 0.0
C624 C 0.44289 0.08658 0.96776 0.0
C625 C 0.47202 0.05846 0.96535 0.0
C626 C 0.42653 0.1039 0.93956 0.0
C627 C 0.39822 0.13088 0.96066 0.0
N628 N 0.45726 0.07343 0.95774 0.0
N629 N 0.41262 0.11566 0.96843 0.0
H630 H 0.72255 0.19748 0.94622 0.0
H631 H 0.59666 0.02026 0.97018 0.0
H632 H 0.72417 0.11211 0.9262 0.0
H633 H 0.60263 0.10634 0.99593 0.0
H634 H 0.64263 0.05355 0.95362 0.0
H635 H 0.67777 0.16455 0.96381 0.0
C636 C 0.71359 0.17179 0.94558 0.0
C637 C 0.7274 0.15759 0.93481 0.0
C638 C 0.63406 0.06523 0.96295 0.0
C639 C 0.67572 0.11964 0.95482 0.0
C640 C 0.60775 0.04623 0.97246 0.0
C641 C 0.59566 0.06052 0.98449 0.0
C642 C 0.64843 0.09889 0.96532 0.0
C643 C 0.61118 0.09429 0.98686 0.0
C644 C 0.68793 0.153 0.9556 0.0
C645 C 0.71419 0.12408 0.93419 0.0
N646 N 0.63667 0.11235 0.97727 0.0
N647 N 0.68914 0.10627 0.94409 0.0
H648 H 0.79133 0.51705 0.94155 0.0
H649 H 0.97688 0.56721 0.96415 0.0
H650 H 0.87077 0.60374 0.92497 0.0
H651 H 0.89765 0.49189 0.98882 0.0
H652 H 0.9385 0.57892 0.9479 0.0
H653 H 0.83007 0.50548 0.95719 0.0
C654 C 0.81693 0.53379 0.94127 0.0
C655 C 0.82773 0.56157 0.93201 0.0
C656 C 0.92957 0.55988 0.9569 0.0
C657 C 0.87238 0.54811 0.94971 0.0
C658 C 0.95146 0.55314 0.96618 0.0
C659 C 0.94053 0.52858 0.97794 0.0
C660 C 0.89648 0.54177 0.95928 0.0
C661 C 0.90727 0.51113 0.97997 0.0
C662 C 0.83907 0.52706 0.95014 0.0
C663 C 0.86127 0.58189 0.93178 0.0
N664 N 0.88648 0.51802 0.97072 0.0
N665 N 0.88239 0.57478 0.94051 0.0
H666 H 0.38762 0.22153 0.96987 0.0
H667 H 0.43619 0.40207 0.95532 0.0
H668 H 0.39713 0.25573 0.91636 0.0
H669 H 0.47399 0.37794 0.00258 0.0
H670 H 0.41142 0.346 0.9421 0.0
H671 H 0.40919 0.27685 0.98344 0.0
C672 C 0.39414 0.24053 0.96095 0.0
C673 C 0.39065 0.23379 0.9419 0.0
C674 C 0.42514 0.35307 0.95536 0.0
C675 C 0.41452 0.29689 0.9574 0.0
C676 C 0.43917 0.38493 0.96293 0.0
C677 C 0.45724 0.39456 0.98002 0.0
C678 C 0.42866 0.33065 0.96514 0.0
C679 C 0.46047 0.37149 0.98929 0.0
C680 C 0.40632 0.27203 0.96873 0.0
C681 C 0.3988 0.25945 0.93107 0.0
N682 N 0.44611 0.34046 0.98178 0.0
N683 N 0.41031 0.28985 0.93898 0.0
H684 H 0.13077 0.75653 0.07978 0.0
H685 H 0.11139 0.60034 0.0228 0.0
H686 H 0.21101 0.74532 0.06522 0.0
H687 H 0.03113 0.6034 0.04488 0.0
H688 H 0.1478 0.65451 0.03729 0.0
H689 H 0.09343 0.70144 0.06621 0.0
C690 C 0.14055 0.74248 0.07379 0.0
C691 C 0.1741 0.75566 0.07356 0.0
C692 C 0.12225 0.64335 0.03903 0.0
C693 C 0.13153 0.69279 0.05789 0.0
C694 C 0.10138 0.61238 0.03072 0.0
C695 C 0.0681 0.5973 0.03259 0.0
C696 C 0.10984 0.65958 0.04923 0.0
C697 C 0.05662 0.61411 0.04309 0.0
C698 C 0.11922 0.71109 0.066 0.0
C699 C 0.18536 0.73645 0.06541 0.0
N700 N 0.07747 0.64446 0.05097 0.0
N701 N 0.16414 0.70606 0.0579 0.0
H702 H 0.25077 0.42084 0.05019 0.0
H703 H 0.43304 0.45961 0.05574 0.0
H704 H 0.30931 0.44611 0.10167 0.0
H705 H 0.38784 0.47758 0.00915 0.0
H706 H 0.38568 0.44707 0.07211 0.0
H707 H 0.29843 0.43371 0.0343 0.0
C708 C 0.27362 0.42926 0.05823 0.0
C709 C 0.27588 0.43283 0.07742 0.0
C710 C 0.38619 0.45382 0.05833 0.0
C711 C 0.33059 0.44673 0.05908 0.0
C712 C 0.41314 0.46087 0.04892 0.0
C713 C 0.41442 0.46966 0.031 0.0
C714 C 0.35997 0.45488 0.04965 0.0
C715 C 0.38795 0.47104 0.02294 0.0
C716 C 0.30081 0.43647 0.04907 0.0
C717 C 0.30614 0.44274 0.08692 0.0
N718 N 0.36169 0.46345 0.03226 0.0
N719 N 0.33227 0.4493 0.07766 0.0
H720 H 0.59629 0.86991 0.09292 0.0
H721 H 0.52797 0.90687 0.00274 0.0
H722 H 0.60834 0.83775 0.03949 0.0
H723 H 0.5586 0.96916 0.05305 0.0
H724 H 0.55053 0.87579 0.01626 0.0
H725 H 0.57651 0.90204 0.07872 0.0
C726 C 0.59532 0.86993 0.07822 0.0
C727 C 0.60425 0.8511 0.06744 0.0
C728 C 0.55232 0.89635 0.02425 0.0
C729 C 0.58035 0.88709 0.05107 0.0
C730 C 0.53928 0.91388 0.01662 0.0
C731 C 0.54153 0.94061 0.0268 0.0
C732 C 0.56701 0.90534 0.04224 0.0
C733 C 0.55657 0.94885 0.04468 0.0
C734 C 0.58369 0.88809 0.07013 0.0
C735 C 0.60133 0.85147 0.04838 0.0
N736 N 0.56856 0.93116 0.05187 0.0
N737 N 0.58939 0.86899 0.04078 0.0
H738 H 0.91692 0.16234 0.37941 0.0
H739 H 0.10169 0.29895 0.38689 0.0
H740 H 0.97702 0.19897 0.43067 0.0
H741 H 0.05532 0.23366 0.33806 0.0
H742 H 0.05374 0.2671 0.40245 0.0
H743 H 0.96493 0.19275 0.36338 0.0
C744 C 0.94014 0.17661 0.38734 0.0
C745 C 0.94276 0.1778 0.40651 0.0
C746 C 0.05403 0.25966 0.38835 0.0
C747 C 0.9977 0.21329 0.38812 0.0
C748 C 0.08135 0.27789 0.3794 0.0
C749 C 0.08248 0.26898 0.3611 0.0
C750 C 0.02725 0.23254 0.3789 0.0
C751 C 0.05546 0.2413 0.35218 0.0
C752 C 0.9675 0.19402 0.37813 0.0
C753 C 0.97352 0.19753 0.41596 0.0
N754 N 0.02874 0.22415 0.36113 0.0
N755 N 0.99971 0.21453 0.40667 0.0
H756 H 0.84662 0.75217 0.38532 0.0
H757 H 0.72171 0.81614 0.39493 0.0
H758 H 0.83153 0.78767 0.43679 0.0
H759 H 0.74468 0.78921 0.34339 0.0
H760 H 0.75963 0.80339 0.41073 0.0
H761 H 0.80721 0.76317 0.36997 0.0
C762 C 0.83512 0.76242 0.3934 0.0
C763 C 0.84263 0.76923 0.41238 0.0
C764 C 0.75634 0.80026 0.39596 0.0
C765 C 0.79703 0.78156 0.39486 0.0
C766 C 0.73466 0.80752 0.38692 0.0
C767 C 0.73 0.80381 0.36777 0.0
C768 C 0.77342 0.78911 0.3858 0.0
C769 C 0.74749 0.79253 0.35815 0.0
C770 C 0.81246 0.76855 0.38462 0.0
C771 C 0.82635 0.78181 0.42217 0.0
N772 N 0.76838 0.7856 0.36726 0.0
N773 N 0.8044 0.78766 0.41329 0.0
H774 H 0.28653 0.0999 0.37369 0.0
H775 H 0.19997 0.91216 0.38838 0.0
H776 H 0.25881 0.06186 0.42548 0.0
H777 H 0.22002 0.9482 0.33552 0.0
H778 H 0.22428 0.9674 0.40235 0.0
H779 H 0.26498 0.04485 0.35952 0.0
C780 C 0.27601 0.08 0.38208 0.0
C781 C 0.27461 0.08551 0.40081 0.0
C782 C 0.22338 0.96325 0.38769 0.0
C783 C 0.25003 0.02263 0.38474 0.0
C784 C 0.20948 0.93169 0.3797 0.0
C785 C 0.20787 0.92554 0.36074 0.0
C786 C 0.23581 0.98891 0.37667 0.0
C787 C 0.22066 0.95183 0.35019 0.0
C788 C 0.2638 0.04863 0.374 0.0
C789 C 0.26096 0.05886 0.41106 0.0
N790 N 0.23409 0.98239 0.3583 0.0
N791 N 0.24916 0.02863 0.40289 0.0
H792 H 0.50114 0.60315 0.24373 0.0
H793 H 0.59614 0.70976 0.33726 0.0
H794 H 0.49911 0.56283 0.29479 0.0
H795 H 0.60868 0.74807 0.28488 0.0
H796 H 0.55933 0.65601 0.3221 0.0
H797 H 0.53945 0.65661 0.25872 0.0
C798 C 0.50896 0.60548 0.25807 0.0
C799 C 0.497 0.57839 0.26799 0.0
C800 C 0.57019 0.67615 0.31392 0.0
C801 C 0.54052 0.63972 0.28532 0.0
C802 C 0.5912 0.70689 0.32256 0.0
C803 C 0.6055 0.7335 0.31232 0.0
C804 C 0.56325 0.67195 0.2949 0.0
C805 C 0.59823 0.72826 0.29331 0.0
C806 C 0.53072 0.63607 0.26664 0.0
C807 C 0.50745 0.58305 0.28664 0.0
N808 N 0.57752 0.69809 0.28522 0.0
N809 N 0.5286 0.61313 0.2947 0.0
H810 H 0.36104 0.87846 0.24001 0.0
H811 H 0.28463 0.86668 0.33534 0.0
H812 H 0.4174 0.91112 0.29241 0.0
H813 H 0.22918 0.84257 0.2829 0.0
H814 H 0.3333 0.88187 0.31979 0.0
H815 H 0.31237 0.86488 0.25535 0.0
C816 C 0.36327 0.88304 0.25471 0.0
C817 C 0.39343 0.89577 0.26491 0.0
C818 C 0.31048 0.87326 0.31168 0.0
C819 C 0.33765 0.87982 0.28262 0.0
C820 C 0.28261 0.86448 0.32057 0.0
C821 C 0.25265 0.85327 0.31046 0.0
C822 C 0.30847 0.87077 0.29251 0.0
C823 C 0.25167 0.85106 0.29131 0.0
C824 C 0.33541 0.87508 0.26349 0.0
C825 C 0.39466 0.9008 0.28398 0.0
N826 N 0.27911 0.85968 0.28299 0.0
N827 N 0.36724 0.89273 0.29218 0.0
H828 H 0.08286 0.45813 0.24945 0.0
H829 H 0.15095 0.42324 0.34105 0.0
H830 H 0.07026 0.49064 0.30262 0.0
H831 H 0.12224 0.36122 0.29073 0.0
H832 H 0.13016 0.45521 0.32674 0.0
H833 H 0.10568 0.42874 0.26408 0.0
C834 C 0.08454 0.45888 0.26418 0.0
C835 C 0.07425 0.4767 0.27478 0.0
C836 C 0.1285 0.43458 0.3189 0.0
C837 C 0.10137 0.44382 0.29161 0.0
C838 C 0.14046 0.41651 0.327 0.0
C839 C 0.13803 0.38948 0.31709 0.0
C840 C 0.11474 0.42582 0.30071 0.0
C841 C 0.12423 0.38167 0.29894 0.0
C842 C 0.09785 0.44229 0.27252 0.0
C843 C 0.07812 0.4775 0.29388 0.0
N844 N 0.11322 0.39983 0.29132 0.0
N845 N 0.09146 0.46135 0.3017 0.0
H846 H 0.36111 0.4581 0.24389 0.0
H847 H 0.28836 0.40213 0.33919 0.0
H848 H 0.42057 0.48109 0.29478 0.0
H849 H 0.23057 0.37787 0.28752 0.0
H850 H 0.33726 0.4309 0.32339 0.0
H851 H 0.31312 0.42709 0.25973 0.0
C852 C 0.36414 0.45626 0.25835 0.0
C853 C 0.39496 0.47232 0.26801 0.0
C854 C 0.31383 0.41927 0.31555 0.0
C855 C 0.33994 0.43733 0.28637 0.0
C856 C 0.28591 0.40296 0.32458 0.0
C857 C 0.25527 0.38759 0.31471 0.0
C858 C 0.31104 0.4202 0.29654 0.0
C859 C 0.2536 0.38934 0.29576 0.0
C860 C 0.33667 0.43878 0.26744 0.0
C861 C 0.39726 0.46948 0.28682 0.0
N862 N 0.28103 0.4053 0.28734 0.0
N863 N 0.37013 0.45247 0.2954 0.0
H864 H 0.53996 0.93443 0.25887 0.0
H865 H 0.55878 0.81334 0.32167 0.0
H866 H 0.45912 0.84676 0.27351 0.0
H867 H 0.63895 0.88905 0.29782 0.0
H868 H 0.52224 0.82722 0.30547 0.0
H869 H 0.5769 0.91985 0.27408 0.0
C870 C 0.52992 0.91201 0.26515 0.0
C871 C 0.49627 0.89189 0.26493 0.0
C872 C 0.54781 0.84077 0.30374 0.0
C873 C 0.53855 0.87532 0.28265 0.0
C874 C 0.56876 0.83292 0.31305 0.0
C875 C 0.60206 0.85006 0.31114 0.0
C876 C 0.5602 0.86614 0.29253 0.0
C877 C 0.61347 0.87513 0.29969 0.0
C878 C 0.55107 0.90379 0.27392 0.0
C879 C 0.48481 0.86338 0.27359 0.0
N880 N 0.59261 0.88248 0.29088 0.0
N881 N 0.50586 0.85604 0.28212 0.0
H882 H 0.07168 0.59746 0.24739 0.0
H883 H 0.14836 0.72127 0.33543 0.0
H884 H 0.0651 0.56599 0.30152 0.0
H885 H 0.10893 0.74269 0.2877 0.0
H886 H 0.12451 0.66544 0.32211 0.0
H887 H 0.09085 0.65218 0.26093 0.0
C888 C 0.07377 0.60183 0.2621 0.0
C889 C 0.06669 0.57688 0.27331 0.0
C890 C 0.12102 0.68239 0.31462 0.0
C891 C 0.08974 0.63978 0.28881 0.0
C892 C 0.1348 0.71423 0.32211 0.0
C893 C 0.13061 0.73654 0.3126 0.0
C894 C 0.10355 0.67303 0.29735 0.0
C895 C 0.1126 0.72614 0.29548 0.0
C896 C 0.08495 0.63317 0.26979 0.0
C897 C 0.0708 0.58445 0.29231 0.0
N898 N 0.09993 0.69511 0.2883 0.0
N899 N 0.08237 0.61529 0.29947 0.0
H900 H 0.82797 0.05115 0.43421 0.0
H901 H 0.75633 0.93646 0.34247 0.0
H902 H 0.84123 0.08828 0.38143 0.0
H903 H 0.70569 0.91158 0.3909 0.0
H904 H 0.79313 0.99053 0.35745 0.0
H905 H 0.78765 -0.002 0.41947 0.0
C906 C 0.8223 0.04835 0.41958 0.0
C907 C 0.83827 0.07445 0.40908 0.0
C908 C 0.77387 0.97327 0.36476 0.0
C909 C 0.79279 0.01337 0.39218 0.0
C910 C 0.753 0.9424 0.35628 0.0
C911 C 0.728 0.91959 0.3655 0.0
C912 C 0.77014 0.98117 0.38271 0.0
C913 C 0.72461 0.92858 0.38332 0.0
C914 C 0.79937 0.01792 0.4112 0.0
C915 C 0.83022 0.06889 0.3901 0.0
N916 N 0.74572 0.95867 0.39146 0.0
N917 N 0.80829 0.03893 0.38225 0.0
H918 H 0.95306 0.73343 0.42006 0.0
H919 H 0.07516 0.84623 0.35123 0.0
H920 H 0.95603 0.81961 0.40365 0.0
H921 H 0.08442 0.77195 0.37647 0.0
H922 H 0.02948 0.83501 0.36896 0.0
H923 H 0.99999 0.74595 0.40332 0.0
C924 C 0.96372 0.75516 0.41312 0.0
C925 C 0.95031 0.77535 0.41323 0.0
C926 C 0.04154 0.82118 0.3706 0.0
C927 C 0.00378 0.78951 0.39366 0.0
C928 C 0.06753 0.82748 0.36041 0.0
C929 C 0.08366 0.80997 0.36228 0.0
C930 C 0.03143 0.79706 0.38267 0.0
C931 C 0.07276 0.78607 0.3745 0.0
C932 C 0.99041 0.76218 0.40344 0.0
C933 C 0.96504 0.80294 0.40369 0.0
N934 N 0.04735 0.78029 0.38416 0.0
N935 N 0.99079 0.80908 0.39424 0.0
H936 H 0.2553 0.19858 0.42651 0.0
H937 H 0.21643 0.25824 0.33436 0.0
H938 H 0.28553 0.18305 0.37465 0.0
H939 H 0.19211 0.27792 0.38729 0.0
H940 H 0.24107 0.22976 0.34853 0.0
H941 H 0.23226 0.22797 0.41215 0.0
C942 C 0.25753 0.20176 0.41214 0.0
C943 C 0.27254 0.18846 0.40179 0.0
C944 C 0.23029 0.24029 0.35701 0.0
C945 C 0.24544 0.22151 0.38512 0.0
C946 C 0.2161 0.25644 0.34892 0.0
C947 C 0.20218 0.2705 0.35964 0.0
C948 C 0.23047 0.23817 0.37593 0.0
C949 C 0.20257 0.2675 0.37846 0.0
C950 C 0.24407 0.2183 0.4039 0.0
C951 C 0.27395 0.19269 0.38311 0.0
N952 N 0.2165 0.25171 0.38598 0.0
N953 N 0.26049 0.20879 0.37536 0.0
H954 H 0.61209 0.47854 0.72514 0.0
H955 H 0.7717 0.64276 0.72042 0.0
H956 H 0.62491 0.56657 0.75279 0.0
H957 H 0.72851 0.57289 0.6732 0.0
H958 H 0.72206 0.61277 0.73524 0.0
H959 H 0.65847 0.51035 0.70853 0.0
C960 C 0.6242 0.50454 0.7276 0.0
C961 C 0.6139 0.51976 0.7403 0.0
C962 C 0.72342 0.60414 0.72161 0.0
C963 C 0.66822 0.5562 0.72171 0.0
C964 C 0.75175 0.62104 0.71318 0.0
C965 C 0.7542 0.61013 0.69558 0.0
C966 C 0.69765 0.5757 0.71257 0.0
C967 C 0.72754 0.58207 0.68676 0.0
C968 C 0.65089 0.52263 0.71814 0.0
C969 C 0.63188 0.5536 0.74332 0.0
N970 N 0.70043 0.56551 0.69547 0.0
N971 N 0.65833 0.57068 0.73419 0.0
H972 H 0.46673 0.06997 0.75753 0.0
H973 H 0.43492 0.16225 0.68097 0.0
H974 H 0.54502 0.14866 0.7341 0.0
H975 H 0.37198 0.12679 0.72401 0.0
H976 H 0.47289 0.15006 0.69728 0.0
H977 H 0.42898 0.08399 0.74281 0.0
C978 C 0.47616 0.09034 0.74947 0.0
C979 C 0.50933 0.10799 0.74705 0.0
C980 C 0.45077 0.14501 0.70313 0.0
C981 C 0.46584 0.12335 0.7297 0.0
C982 C 0.42901 0.15175 0.6938 0.0
C983 C 0.40026 0.14549 0.70115 0.0
C984 C 0.44341 0.13126 0.71973 0.0
C985 C 0.39395 0.13209 0.71791 0.0
C986 C 0.45448 0.09815 0.74099 0.0
C987 C 0.51971 0.13373 0.73607 0.0
N988 N 0.41524 0.12513 0.72658 0.0
N989 N 0.49803 0.1404 0.72767 0.0
H990 H 0.94908 0.42663 0.70559 0.0
H991 H 0.86141 0.23906 0.72026 0.0
H992 H 0.91692 0.38764 0.75665 0.0
H993 H 0.88203 0.27396 0.66717 0.0
H994 H 0.88511 0.29421 0.73384 0.0
H995 H 0.928 0.37168 0.69128 0.0
C996 C 0.93771 0.40657 0.7138 0.0
C997 C 0.93491 0.41179 0.73238 0.0
C998 C 0.88448 0.28992 0.71921 0.0
C999 C 0.91093 0.34908 0.71614 0.0
C1000 C 0.87091 0.25835 0.71142 0.0
C1001 C 0.86963 0.25184 0.69251 0.0
C1002 C 0.89699 0.31537 0.70808 0.0
C1003 C 0.88242 0.2779 0.6818 0.0
C1004 C 0.92576 0.37527 0.70563 0.0
C1005 C 0.92021 0.38493 0.74239 0.0
N1006 N 0.8956 0.30861 0.68975 0.0
N1007 N 0.90876 0.35482 0.73414 0.0
H1008 H 0.16827 0.90662 0.62611 0.0
H1009 H 0.2833 0.09493 0.61745 0.0
H1010 H 0.17182 0.95123 0.57648 0.0
H1011 H 0.26797 0.05248 0.66864 0.0
H1012 H 0.24658 0.04158 0.60161 0.0
H1013 H 0.2087 0.9592 0.64138 0.0
C1014 C 0.17751 0.92748 0.61843 0.0
C1015 C 0.16651 0.92454 0.60001 0.0
C1016 C 0.25133 0.04396 0.6163 0.0
C1017 C 0.21305 0.98473 0.61735 0.0
C1018 C 0.27234 0.0744 0.62535 0.0
C1019 C 0.27859 0.0782 0.64441 0.0
C1020 C 0.23658 0.01715 0.62637 0.0
C1021 C 0.26373 0.05073 0.65394 0.0
C1022 C 0.20069 0.95747 0.62713 0.0
C1023 C 0.17982 0.95231 0.59064 0.0
N1024 N 0.24337 0.02138 0.64482 0.0
N1025 N 0.20232 0.98126 0.59943 0.0
H1026 H 0.08432 0.24938 0.62607 0.0
H1027 H 0.89102 0.1646 0.61678 0.0
H1028 H 0.02536 0.21032 0.57465 0.0
H1029 H 0.95026 0.2007 0.66828 0.0
H1030 H 0.93978 0.18256 0.60104 0.0
H1031 H 0.03558 0.23366 0.64154 0.0
C1032 C 0.06108 0.23748 0.61801 0.0
C1033 C 0.05896 0.23088 0.59902 0.0
C1034 C 0.94214 0.18656 0.61578 0.0
C1035 C 0.00283 0.21289 0.61672 0.0
C1036 C 0.91426 0.17629 0.62483 0.0
C1037 C 0.91643 0.18116 0.64395 0.0
C1038 C 0.97259 0.20184 0.62588 0.0
C1039 C 0.94731 0.19633 0.65355 0.0
C1040 C 0.03323 0.22857 0.62687 0.0
C1041 C 0.0282 0.21602 0.58928 0.0
N1042 N 0.97412 0.20613 0.64442 0.0
N1043 N 1.00135 0.20736 0.59824 0.0
H1044 H 0.74252 0.78913 0.58482 0.0
H1045 H 0.78559 0.73071 0.67614 0.0
H1046 H 0.70539 0.79488 0.63607 0.0
H1047 H 0.81393 0.71614 0.62343 0.0
H1048 H 0.75625 0.75456 0.66182 0.0
H1049 H 0.76757 0.76094 0.5986 0.0
C1050 C 0.7391 0.78393 0.59888 0.0
C1051 C 0.72189 0.79447 0.60933 0.0
C1052 C 0.76889 0.74613 0.65341 0.0
C1053 C 0.7513 0.76297 0.62534 0.0
C1054 C 0.78582 0.73269 0.66159 0.0
C1055 C 0.80232 0.72148 0.65098 0.0
C1056 C 0.76857 0.74845 0.63451 0.0
C1057 C 0.8016 0.72448 0.63217 0.0
C1058 C 0.75372 0.76812 0.60681 0.0
C1059 C 0.71883 0.78757 0.6276 0.0
N1060 N 0.78503 0.7377 0.62455 0.0
N1061 N 0.7336 0.77247 0.63507 0.0
H1062 H 0.05637 0.77737 0.59113 0.0
H1063 H 0.93586 0.77499 0.6632 0.0
H1064 H 0.05647 0.86273 0.61301 0.0
H1065 H 0.92753 0.68936 0.63516 0.0
H1066 H 0.98243 0.80792 0.64649 0.0
H1067 H 0.01053 0.74478 0.60828 0.0
C1068 C 0.04663 0.78924 0.59944 0.0
C1069 C 0.06045 0.82286 0.6007 0.0
C1070 C 0.9704 0.7819 0.64406 0.0
C1071 C 0.00827 0.78578 0.62059 0.0
C1072 C 0.94392 0.76311 0.65365 0.0
C1073 C 0.92771 0.72937 0.65058 0.0
C1074 C 0.98078 0.7668 0.63138 0.0
C1075 C 0.93916 0.71529 0.63797 0.0
C1076 C 0.0206 0.77066 0.60932 0.0
C1077 C 0.04702 0.83696 0.61188 0.0
N1078 N 0.96492 0.73404 0.62885 0.0
N1079 N 0.02177 0.81838 0.62141 0.0
H1080 H 0.12515 0.18266 0.60708 0.0
H1081 H 0.31022 0.23351 0.63263 0.0
H1082 H 0.20539 0.27073 0.59242 0.0
H1083 H 0.22951 0.15563 0.65491 0.0
H1084 H 0.27247 0.24556 0.61596 0.0
H1085 H 0.16331 0.1704 0.62277 0.0
C1086 C 0.15081 0.19954 0.60722 0.0
C1087 C 0.162 0.22796 0.59853 0.0
C1088 C 0.26307 0.22587 0.62452 0.0
C1089 C 0.20601 0.21374 0.61632 0.0
C1090 C 0.2846 0.21895 0.63405 0.0
C1091 C 0.27307 0.19356 0.64526 0.0
C1092 C 0.22974 0.20714 0.62611 0.0
C1093 C 0.23958 0.17551 0.6465 0.0
C1094 C 0.17262 0.19242 0.61612 0.0
C1095 C 0.19561 0.24844 0.5988 0.0
N1096 N 0.21915 0.18262 0.63704 0.0
N1097 N 0.21642 0.24097 0.60759 0.0
H1098 H 0.67844 0.90069 0.60687 0.0
H1099 H 0.82915 0.05377 0.66365 0.0
H1100 H 0.76696 0.90395 0.6261 0.0
H1101 H 0.74645 0.05568 0.63865 0.0
H1102 H 0.80386 0.99683 0.65275 0.0
H1103 H 0.70014 0.95557 0.62129 0.0
C1104 C 0.70232 0.91285 0.61423 0.0
C1105 C 0.72092 0.89772 0.61526 0.0
C1106 C 0.7912 0.00968 0.64968 0.0
C1107 C 0.74581 0.96032 0.63178 0.0
C1108 C 0.80564 0.04222 0.65588 0.0
C1109 C 0.78999 0.05958 0.65195 0.0
C1110 C 0.76086 0.99433 0.63946 0.0
C1111 C 0.75948 0.04328 0.64191 0.0
C1112 C 0.71465 0.94411 0.62247 0.0
C1113 C 0.75154 0.91443 0.62516 0.0
N1114 N 0.74593 0.01155 0.63596 0.0
N1115 N 0.76307 0.94487 0.63294 0.0
H1116 H 0.54612 0.4087 0.73071 0.0
H1117 H 0.36207 0.26486 0.71567 0.0
H1118 H 0.46824 0.41568 0.75325 0.0
H1119 H 0.44181 0.26428 0.69129 0.0
H1120 H 0.39991 0.31898 0.73069 0.0
H1121 H 0.50745 0.3547 0.717 0.0
C1122 C 0.52076 0.39896 0.73262 0.0
C1123 C 0.51035 0.41688 0.74297 0.0
C1124 C 0.409 0.30688 0.72206 0.0
C1125 C 0.46577 0.35454 0.72753 0.0
C1126 C 0.38747 0.27601 0.71353 0.0
C1127 C 0.39876 0.26006 0.70214 0.0
C1128 C 0.44194 0.32168 0.71919 0.0
C1129 C 0.43189 0.27562 0.69984 0.0
C1130 C 0.49866 0.36796 0.7249 0.0
C1131 C 0.47728 0.40262 0.74541 0.0
N1132 N 0.45221 0.30549 0.70825 0.0
N1133 N 0.45608 0.37224 0.73769 0.0
H1134 H 0.58325 0.08568 0.71641 0.0
H1135 H 0.76675 0.12764 0.7222 0.0
H1136 H 0.64314 0.11336 0.76756 0.0
H1137 H 0.71992 0.14104 0.67454 0.0
H1138 H 0.7192 0.11474 0.73835 0.0
H1139 H 0.63062 0.09812 0.70022 0.0
C1140 C 0.6063 0.09448 0.7243 0.0
C1141 C 0.60906 0.09879 0.74348 0.0
C1142 C 0.71935 0.12054 0.72437 0.0
C1143 C 0.66335 0.11228 0.72486 0.0
C1144 C 0.74644 0.12782 0.71509 0.0
C1145 C 0.74735 0.13547 0.69695 0.0
C1146 C 0.69263 0.12029 0.71539 0.0
C1147 C 0.72032 0.13543 0.68852 0.0
C1148 C 0.63332 0.10145 0.71499 0.0
C1149 C 0.63956 0.1093 0.75283 0.0
N1150 N 0.69394 0.12771 0.69777 0.0
N1151 N 0.66546 0.11564 0.74344 0.0
H1152 H 0.97569 0.56085 0.74273 0.0
H1153 H 0.83706 0.56374 0.67841 0.0
H1154 H 0.88832 0.47516 0.71947 0.0
H1155 H 0.91527 0.64829 0.70963 0.0
H1156 H 0.85805 0.53119 0.69118 0.0
H1157 H 0.9563 0.59374 0.72863 0.0
C1158 C 0.95246 0.54896 0.73466 0.0
C1159 C 0.93368 0.51519 0.73225 0.0
C1160 C 0.87061 0.55688 0.69521 0.0
C1161 C 0.91147 0.55263 0.71597 0.0
C1162 C 0.85866 0.57548 0.68791 0.0
C1163 C 0.87436 0.60878 0.69298 0.0
C1164 C 0.89854 0.5717 0.70761 0.0
C1165 C 0.90228 0.62268 0.70536 0.0
C1166 C 0.94145 0.56773 0.72657 0.0
C1167 C 0.90392 0.50108 0.72146 0.0
N1168 N 0.91347 0.60408 0.71224 0.0
N1169 N 0.89375 0.51985 0.71374 0.0
H1170 H 0.41632 0.90944 0.20034 0.0
H1171 H 0.55217 0.04055 0.14406 0.0
H1172 H 0.51564 0.972 0.22215 0.0
H1173 H 0.45767 0.96752 0.11956 0.0
H1174 H 0.53767 0.01886 0.17349 0.0
H1175 H 0.42945 0.9336 0.1714 0.0
C1176 C 0.44082 0.92843 0.1991 0.0
C1177 C 0.46494 0.93858 0.21369 0.0
C1178 C 0.52009 0.00758 0.16168 0.0
C1179 C 0.4802 0.96626 0.18055 0.0
C1180 C 0.52829 0.02008 0.14488 0.0
C1181 C 0.50617 0.00579 0.12926 0.0
C1182 C 0.48941 0.98069 0.16297 0.0
C1183 C 0.47568 0.97906 0.13116 0.0
C1184 C 0.44836 0.94207 0.18253 0.0
C1185 C 0.49636 0.96309 0.21121 0.0
N1186 N 0.46821 0.96742 0.14768 0.0
N1187 N 0.50306 0.97606 0.195 0.0
H1188 H 0.97856 0.5047 0.22505 0.0
H1189 H 0.00272 0.45719 0.12383 0.0
H1190 H 0.04642 0.47377 0.21221 0.0
H1191 H 0.93784 0.49234 0.13583 0.0
H1192 H 0.0145 0.45747 0.15645 0.0
H1193 H 0.95846 0.49424 0.19275 0.0
C1194 C 0.98901 0.49543 0.21547 0.0
C1195 C 0.01438 0.49034 0.22133 0.0
C1196 C 0.99754 0.46496 0.15197 0.0
C1197 C 0.99155 0.47835 0.18439 0.0
C1198 C 0.99097 0.465 0.13335 0.0
C1199 C 0.96956 0.47513 0.12711 0.0
C1200 C 0.98271 0.47524 0.16451 0.0
C1201 C 0.95444 0.48427 0.14004 0.0
C1202 C 0.9775 0.48941 0.19704 0.0
C1203 C 0.02667 0.47781 0.20836 0.0
N1204 N 0.96151 0.48436 0.15815 0.0
N1205 N 0.01535 0.47255 0.1905 0.0
H1206 H 0.46682 0.54518 0.20452 0.0
H1207 H 0.48776 0.42853 0.13145 0.0
H1208 H 0.45051 0.45147 0.21595 0.0
H1209 H 0.50394 0.52317 0.12229 0.0
H1210 H 0.47255 0.43492 0.162 0.0
H1211 H 0.47786 0.53557 0.17369 0.0
C1212 C 0.46552 0.52248 0.20048 0.0
C1213 C 0.45812 0.49923 0.21285 0.0
C1214 C 0.47934 0.45419 0.15325 0.0
C1215 C 0.4708 0.48796 0.17744 0.0
C1216 C 0.48824 0.45067 0.13587 0.0
C1217 C 0.49702 0.4753 0.12424 0.0
C1218 C 0.47937 0.4826 0.15903 0.0
C1219 C 0.49686 0.50331 0.13062 0.0
C1220 C 0.47179 0.51696 0.18285 0.0
C1221 C 0.45615 0.47 0.20679 0.0
N1222 N 0.48822 0.50616 0.14753 0.0
N1223 N 0.46274 0.46526 0.18952 0.0
H1224 H 0.94268 0.44054 0.79475 0.0
H1225 H 0.06346 0.56645 0.87708 0.0
H1226 H 0.0118 0.5394 0.78762 0.0
H1227 H 0.98489 0.47124 0.88356 0.0
H1228 H 0.04706 0.557 0.84419 0.0
H1229 H 0.96006 0.45129 0.82725 0.0
C1230 C 0.96176 0.4645 0.80003 0.0
C1231 C 0.97605 0.48905 0.78844 0.0
C1232 C 0.03339 0.53826 0.85285 0.0
C1233 C 0.99585 0.50171 0.82581 0.0
C1234 C 0.04282 0.54356 0.87158 0.0
C1235 C 0.02542 0.51963 0.88308 0.0
C1236 C 0.00657 0.50871 0.84559 0.0
C1237 C 0.99872 0.49054 0.87527 0.0
C1238 C 0.97152 0.4707 0.81864 0.0
C1239 C 1.00013 0.51984 0.79611 0.0
N1240 N 0.9902 0.48589 0.85704 0.0
N1241 N 0.00939 0.52529 0.81434 0.0
H1242 H 0.55889 0.4579 0.80726 0.0
H1243 H 0.48994 0.54217 0.87187 0.0
H1244 H 0.55044 0.53892 0.79222 0.0
H1245 H 0.5303 0.48559 0.89182 0.0
H1246 H 0.51099 0.54108 0.84254 0.0
H1247 H 0.54781 0.46727 0.83833 0.0
C1248 C 0.55518 0.478 0.81067 0.0
C1249 C 0.55559 0.49775 0.79732 0.0
C1250 C 0.51539 0.5291 0.8534 0.0
C1251 C 0.54216 0.50819 0.83259 0.0
C1252 C 0.50343 0.52975 0.87019 0.0
C1253 C 0.50797 0.51363 0.88436 0.0
C1254 C 0.53172 0.51194 0.85068 0.0
C1255 C 0.52539 0.49765 0.88121 0.0
C1256 C 0.54882 0.48333 0.82835 0.0
C1257 C 0.55048 0.52335 0.80226 0.0
N1258 N 0.53635 0.49698 0.86469 0.0
N1259 N 0.54351 0.52761 0.81948 0.0
H1260 H 0.5543 0.02607 0.79088 0.0
H1261 H 0.50622 0.04193 0.89187 0.0
H1262 H 0.53488 0.10025 0.81104 0.0
H1263 H 0.51756 0.96275 0.87091 0.0
H1264 H 0.5193 0.06488 0.86276 0.0
H1265 H 0.5439 0.00399 0.8205 0.0
C1266 C 0.5481 0.03786 0.80157 0.0
C1267 C 0.54533 0.06499 0.79842 0.0
C1268 C 0.51897 0.04249 0.8645 0.0
C1269 C 0.53312 0.03968 0.83232 0.0
C1270 C 0.51167 0.02944 0.88119 0.0
C1271 C 0.51085 0.00035 0.88392 0.0
C1272 C 0.52563 0.02648 0.85033 0.0
C1273 C 0.51758 0.98503 0.86939 0.0
C1274 C 0.54195 0.02511 0.81844 0.0
C1275 C 0.53685 0.07904 0.81274 0.0
N1276 N 0.52474 -0.0017 0.85326 0.0
N1277 N 0.53105 0.06624 0.82901 0.0
H1278 H 0.07969 0.24397 0.53414 0.0
H1279 H 0.21644 0.36754 0.4752 0.0
H1280 H 0.17988 0.30545 0.55472 0.0
H1281 H 0.11746 0.30331 0.45325 0.0
H1282 H 0.2026 0.34693 0.50485 0.0
H1283 H 0.09209 0.26727 0.50493 0.0
C1284 C 0.10423 0.26254 0.53258 0.0
C1285 C 0.1288 0.27259 0.54692 0.0
C1286 C 0.18385 0.33736 0.49357 0.0
C1287 C 0.14325 0.29922 0.51342 0.0
C1288 C 0.19171 0.3493 0.47662 0.0
C1289 C 0.16813 0.33719 0.46162 0.0
C1290 C 0.15211 0.31309 0.49565 0.0
C1291 C 0.13658 0.31311 0.46432 0.0
C1292 C 0.11134 0.2757 0.51585 0.0
C1293 C 0.16024 0.29654 0.544 0.0
N1294 N 0.12952 0.30187 0.48097 0.0
N1295 N 0.16653 0.30894 0.52763 0.0
H1296 H 0.64444 0.77714 0.55499 0.0
H1297 H 0.6703 0.86654 0.46379 0.0
H1298 H 0.71228 0.87807 0.55205 0.0
H1299 H 0.60497 0.76453 0.46501 0.0
H1300 H 0.68441 0.87116 0.4965 0.0
H1301 H 0.62825 0.77178 0.52228 0.0
C1302 C 0.6559 0.79813 0.54747 0.0
C1303 C 0.67953 0.82815 0.55629 0.0
C1304 C 0.66694 0.84774 0.48965 0.0
C1305 C 0.66112 0.82227 0.519 0.0
C1306 C 0.65898 0.84508 0.47094 0.0
C1307 C 0.63654 0.81508 0.46163 0.0
C1308 C 0.6524 0.82021 0.49919 0.0
C1309 C 0.62218 0.78819 0.47168 0.0
C1310 C 0.64658 0.7951 0.52884 0.0
C1311 C 0.69349 0.85461 0.54592 0.0
N1312 N 0.63044 0.79136 0.48992 0.0
N1313 N 0.68409 0.85103 0.52786 0.0
H1314 H 0.13092 0.89195 0.53573 0.0
H1315 H 0.15349 0.77318 0.46545 0.0
H1316 H 0.11163 0.79771 0.5481 0.0
H1317 H 0.15989 0.86246 0.45234 0.0
H1318 H 0.1379 0.78088 0.49566 0.0
H1319 H 0.14057 0.88049 0.50482 0.0
C1320 C 0.12857 0.86872 0.53185 0.0
C1321 C 0.12073 0.84583 0.54448 0.0
C1322 C 0.14254 0.79864 0.48611 0.0
C1323 C 0.13195 0.8325 0.50909 0.0
C1324 C 0.15165 0.79439 0.46893 0.0
C1325 C 0.15797 0.81719 0.45633 0.0
C1326 C 0.14001 0.82604 0.49075 0.0
C1327 C 0.15486 0.84403 0.46149 0.0
C1328 C 0.13403 0.86214 0.51419 0.0
C1329 C 0.11758 0.81596 0.53871 0.0
N1330 N 0.14625 0.84774 0.47828 0.0
N1331 N 0.12353 0.81024 0.52145 0.0
H1332 H 0.62764 0.85235 0.13 0.0
H1333 H 0.71985 0.8132 0.20874 0.0
H1334 H 0.67947 0.8018 0.11941 0.0
H1335 H 0.68284 0.878 0.21742 0.0
H1336 H 0.70596 0.80915 0.17591 0.0
H1337 H 0.64893 0.86314 0.16192 0.0
C1338 C 0.64391 0.84393 0.1343 0.0
C1339 C 0.65172 0.82607 0.12195 0.0
C1340 C 0.70112 0.82446 0.18498 0.0
C1341 C 0.6756 0.83772 0.1587 0.0
C1342 C 0.70886 0.82662 0.20371 0.0
C1343 C 0.70233 0.84584 0.21581 0.0
C1344 C 0.68645 0.84138 0.17833 0.0
C1345 C 0.6885 0.86309 0.20857 0.0
C1346 C 0.6559 0.84993 0.1526 0.0
C1347 C 0.6724 0.81523 0.12849 0.0
N1348 N 0.68078 0.86024 0.19031 0.0
N1349 N 0.68343 0.82102 0.14644 0.0
H1350 H 0.258 0.85864 0.13793 0.0
H1351 H 0.12283 0.84688 0.20154 0.0
H1352 H 0.15909 0.82596 0.11806 0.0
H1353 H 0.2188 0.87026 0.22242 0.0
H1354 H 0.13781 0.84555 0.17051 0.0
H1355 H 0.24628 0.86977 0.16856 0.0
C1356 C 0.23397 0.85429 0.13997 0.0
C1357 C 0.2094 0.84111 0.12548 0.0
C1358 C 0.15566 0.85113 0.18187 0.0
C1359 C 0.19571 0.8534 0.16046 0.0
C1360 C 0.14717 0.85206 0.1996 0.0
C1361 C 0.16951 0.85847 0.21462 0.0
C1362 C 0.18676 0.85669 0.17909 0.0
C1363 C 0.20061 0.86466 0.21126 0.0
C1364 C 0.22721 0.8604 0.15746 0.0
C1365 C 0.1786 0.83565 0.12891 0.0
N1366 N 0.20827 0.8635 0.19386 0.0
N1367 N 0.17259 0.84164 0.14604 0.0
H1368 H 0.22246 0.35992 0.12491 0.0
H1369 H 0.1517 0.36274 0.22068 0.0
H1370 H 0.19259 0.4276 0.1424 0.0
H1371 H 0.18698 0.29842 0.20566 0.0
H1372 H 0.16644 0.38637 0.1919 0.0
H1373 H 0.21007 0.33705 0.15425 0.0
C1374 C 0.21356 0.37016 0.13494 0.0
C1375 C 0.20839 0.39565 0.13106 0.0
C1376 C 0.171 0.3671 0.19486 0.0
C1377 C 0.19377 0.36927 0.16464 0.0
C1378 C 0.16271 0.35365 0.21139 0.0
C1379 C 0.16815 0.32853 0.21574 0.0
C1380 C 0.18485 0.35542 0.18242 0.0
C1381 C 0.18194 0.31744 0.20287 0.0
C1382 C 0.20629 0.35694 0.15166 0.0
C1383 C 0.19643 0.40762 0.14458 0.0
N1384 N 0.18983 0.33095 0.18684 0.0
N1385 N 0.18949 0.39432 0.16067 0.0
H1386 H 0.77828 0.63708 0.88441 0.0
H1387 H 0.85305 0.63432 0.79007 0.0
H1388 H 0.80906 0.56964 0.86803 0.0
H1389 H 0.81836 0.69951 0.80414 0.0
H1390 H 0.83665 0.61044 0.81863 0.0
H1391 H 0.79171 0.6599 0.85509 0.0
C1392 C 0.78758 0.62687 0.87461 0.0
C1393 C 0.79278 0.60154 0.8788 0.0
C1394 C 0.83256 0.62995 0.81551 0.0
C1395 C 0.80856 0.62781 0.84528 0.0
C1396 C 0.84181 0.64355 0.79911 0.0
C1397 C 0.83701 0.66896 0.79456 0.0
C1398 C 0.81839 0.64178 0.82763 0.0
C1399 C 0.8229 0.68023 0.8071 0.0
C1400 C 0.79544 0.64006 0.85792 0.0
C1401 C 0.80519 0.58953 0.86559 0.0
N1402 N 0.81407 0.66656 0.82303 0.0
N1403 N 0.81272 0.60281 0.84953 0.0
H1404 H 0.30471 0.1643 0.89187 0.0
H1405 H 0.33132 0.11928 0.79066 0.0
H1406 H 0.37343 0.13444 0.87917 0.0
H1407 H 0.26558 0.15345 0.80243 0.0
H1408 H 0.34287 0.11951 0.82329 0.0
H1409 H 0.28565 0.155 0.85943 0.0
C1410 C 0.3156 0.15555 0.88228 0.0
C1411 C 0.34084 0.15033 0.88824 0.0
C1412 C 0.32578 0.12681 0.81877 0.0
C1413 C 0.31916 0.13962 0.85115 0.0
C1414 C 0.31934 0.12688 0.80013 0.0
C1415 C 0.29774 0.13672 0.79382 0.0
C1416 C 0.31063 0.13679 0.83125 0.0
C1417 C 0.28233 0.1456 0.8067 0.0
C1418 C 0.30466 0.15018 0.86378 0.0
C1419 C 0.35372 0.13851 0.87526 0.0
N1420 N 0.28927 0.14566 0.82482 0.0
N1421 N 0.34293 0.13382 0.85733 0.0
H1422 H 0.79701 0.22506 0.86936 0.0
H1423 H 0.81976 0.10549 0.79956 0.0
H1424 H 0.77948 0.13174 0.8825 0.0
H1425 H 0.83375 0.19833 0.78781 0.0
H1426 H 0.80328 0.11304 0.82953 0.0
H1427 H 0.80766 0.21365 0.83873 0.0
C1428 C 0.79524 0.20202 0.8657 0.0
C1429 C 0.78767 0.17942 0.87849 0.0
C1430 C 0.80982 0.13164 0.82032 0.0
C1431 C 0.80008 0.16614 0.84339 0.0
C1432 C 0.81946 0.12746 0.80328 0.0
C1433 C 0.82809 0.15128 0.7911 0.0
C1434 C 0.80898 0.1599 0.82524 0.0
C1435 C 0.82686 0.17909 0.79658 0.0
C1436 C 0.80133 0.19548 0.8482 0.0
C1437 C 0.78523 0.14977 0.87299 0.0
N1438 N 0.81758 0.18261 0.8132 0.0
N1439 N 0.79175 0.14407 0.85586 0.0
H1440 H 0.35473 0.21389 0.45567 0.0
H1441 H 0.32321 0.13976 0.55184 0.0
H1442 H 0.28666 0.11468 0.46275 0.0
H1443 H 0.40065 0.23582 0.54586 0.0
H1444 H 0.3086 0.13144 0.51908 0.0
H1445 H 0.3713 0.22376 0.4886 0.0
C1446 C 0.34338 0.19422 0.46414 0.0
C1447 C 0.31951 0.16337 0.45646 0.0
C1448 C 0.32882 0.15438 0.52487 0.0
C1449 C 0.33814 0.17443 0.49395 0.0
C1450 C 0.33702 0.15921 0.54361 0.0
C1451 C 0.36304 0.1886 0.55159 0.0
C1452 C 0.34669 0.17913 0.51392 0.0
C1453 C 0.38051 0.21273 0.54021 0.0
C1454 C 0.35289 0.19982 0.48287 0.0
C1455 C 0.30559 0.13869 0.46801 0.0
N1456 N 0.37194 0.20752 0.52191 0.0
N1457 N 0.31505 0.14479 0.48614 0.0
H1458 H 0.8822 0.20246 0.45629 0.0
H1459 H 0.86702 0.15558 0.55904 0.0
H1460 H 0.88001 0.11705 0.47319 0.0
H1461 H 0.83006 0.21449 0.5385 0.0
H1462 H 0.88304 0.14978 0.52882 0.0
H1463 H 0.87365 0.21533 0.48762 0.0
C1464 C 0.88029 0.18669 0.46667 0.0
C1465 C 0.88161 0.15861 0.46226 0.0
C1466 C 0.87162 0.16416 0.53095 0.0
C1467 C 0.87219 0.17316 0.49784 0.0
C1468 C 0.86269 0.16768 0.54822 0.0
C1469 C 0.84713 0.18551 0.55128 0.0
C1470 C 0.86525 0.17878 0.5166 0.0
C1471 C 0.84173 0.20029 0.53666 0.0
C1472 C 0.87526 0.19391 0.48444 0.0
C1473 C 0.87887 0.13881 0.47608 0.0
N1474 N 0.85079 0.19661 0.51992 0.0
N1475 N 0.87435 0.14648 0.49324 0.0
H1476 H 0.92878 0.76059 0.47788 0.0
H1477 H 0.79506 0.63249 0.5364 0.0
H1478 H 0.82973 0.69457 0.45677 0.0
H1479 H 0.89453 0.69634 0.55766 0.0
H1480 H 0.80789 0.65418 0.50694 0.0
H1481 H 0.91737 0.73662 0.50692 0.0
C1482 C 0.90471 0.74091 0.47928 0.0
C1483 C 0.88015 0.72975 0.46484 0.0
C1484 C 0.82697 0.66342 0.51802 0.0
C1485 C 0.86682 0.70236 0.49816 0.0
C1486 C 0.81969 0.65087 0.53486 0.0
C1487 C 0.84371 0.66253 0.54963 0.0
C1488 C 0.85854 0.68792 0.51582 0.0
C1489 C 0.87507 0.68686 0.5468 0.0
C1490 C 0.89816 0.72735 0.49592 0.0
C1491 C 0.8493 0.70439 0.46758 0.0
N1492 N 0.88155 0.69873 0.53027 0.0
N1493 N 0.84354 0.69165 0.48387 0.0
loop_
_geom_bond_atom_site_label_1
_geom_bond_atom_site_label_2
_geom_bond_distance
_geom_bond_site_symmetry_2
_ccdc_geom_bond_type
H0 C3 0.931 . S
H1 C6 0.928 . S
H2 C8 0.930 . S
C3 H0 0.931 . S
C3 C4 1.413 . S
C3 C5 1.360 . S
C4 C3 1.413 . S
C4 C8 1.429 . S
C5 C3 1.360 . S
C5 C6 1.372 . S
C6 H1 0.928 . S
C6 C5 1.372 . S
C6 C7 1.404 . S
C7 C6 1.404 . S
C7 C8 1.391 . S
C8 H2 0.930 . S
C8 C4 1.429 . S
C8 C7 1.391 . S
H9 C12 0.931 . S
H10 C15 0.928 . S
H11 C17 0.930 . S
C12 H9 0.931 . S
C12 C13 1.413 . S
C12 C14 1.360 . S
C13 C12 1.413 . S
C13 C17 1.429 . S
C14 C12 1.360 . S
C14 C15 1.372 . S
C15 H10 0.928 . S
C15 C14 1.372 . S
C15 C16 1.404 . S
C16 C15 1.404 . S
C16 C17 1.391 . S
C17 H11 0.930 . S
C17 C13 1.429 . S
C17 C16 1.391 . S
H18 C21 0.931 . S
H19 C24 0.928 . S
H20 C26 0.930 . S
C21 H18 0.931 . S
C21 C22 1.413 . S
C21 C23 1.360 . S
C22 C21 1.413 . S
C22 C26 1.429 . S
C23 C21 1.360 . S
C23 C24 1.372 . S
C24 H19 0.928 . S
C24 C23 1.372 . S
C24 C25 1.404 . S
C25 C24 1.404 . S
C25 C26 1.391 . S
C26 H20 0.930 . S
C26 C22 1.429 . S
C26 C25 1.391 . S
H27 C30 0.931 . S
H28 C33 0.928 . S
H29 C35 0.930 . S
C30 H27 0.931 . S
C30 C31 1.413 . S
C30 C32 1.360 . S
C31 C30 1.413 . S
C31 C35 1.429 . S
C32 C30 1.360 . S
C32 C33 1.372 . S
C33 H28 0.928 . S
C33 C32 1.372 . S
C33 C34 1.404 . S
C34 C33 1.404 . S
C34 C35 1.391 . S
C35 H29 0.930 . S
C35 C31 1.429 . S
C35 C34 1.391 . S
H36 C39 0.931 . S
H37 C42 0.928 . S
H38 C44 0.930 . S
C39 H36 0.931 . S
C39 C40 1.413 . S
C39 C41 1.360 . S
C40 C39 1.413 . S
C40 C44 1.429 . S
C41 C39 1.360 . S
C41 C42 1.372 . S
C42 H37 0.928 . S
C42 C41 1.372 . S
C42 C43 1.404 . S
C43 C42 1.404 . S
C43 C44 1.391 . S
C44 H38 0.930 . S
C44 C40 1.429 . S
C44 C43 1.391 . S
H45 C48 0.931 . S
H46 C51 0.928 . S
H47 C53 0.930 . S
C48 H45 0.931 . S
C48 C49 1.413 . S
C48 C50 1.360 . S
C49 C48 1.413 . S
C49 C53 1.429 . S
C50 C48 1.360 . S
C50 C51 1.372 . S
C51 H46 0.928 . S
C51 C50 1.372 . S
C51 C52 1.404 . S
C52 C51 1.404 . S
C52 C53 1.391 . S
C53 H47 0.930 . S
C53 C49 1.429 . S
C53 C52 1.391 . S
H54 C57 0.931 . S
H55 C60 0.928 . S
H56 C62 0.930 . S
C57 H54 0.931 . S
C57 C58 1.413 . S
C57 C59 1.360 . S
C58 C57 1.413 . S
C58 C62 1.429 . S
C59 C57 1.360 . S
C59 C60 1.372 . S
C60 H55 0.928 . S
C60 C59 1.372 . S
C60 C61 1.404 . S
C61 C60 1.404 . S
C61 C62 1.391 . S
C62 H56 0.930 . S
C62 C58 1.429 . S
C62 C61 1.391 . S
H63 C66 0.931 . S
H64 C69 0.928 . S
H65 C71 0.930 . S
C66 H63 0.931 . S
C66 C67 1.413 . S
C66 C68 1.360 . S
C67 C66 1.413 . S
C67 C71 1.429 . S
C68 C66 1.360 . S
C68 C69 1.372 . S
C69 H64 0.928 . S
C69 C68 1.372 . S
C69 C70 1.404 . S
C70 C69 1.404 . S
C70 C71 1.391 . S
C71 H65 0.930 . S
C71 C67 1.429 . S
C71 C70 1.391 . S
H72 C75 0.931 . S
H73 C78 0.928 . S
H74 C80 0.930 . S
C75 H72 0.931 . S
C75 C76 1.413 . S
C75 C77 1.360 . S
C76 C75 1.413 . S
C76 C80 1.429 . S
C77 C75 1.360 . S
C77 C78 1.372 . S
C78 H73 0.928 . S
C78 C77 1.372 . S
C78 C79 1.404 . S
C79 C78 1.404 . S
C79 C80 1.391 . S
C80 H74 0.930 . S
C80 C76 1.429 . S
C80 C79 1.391 . S
H81 C84 0.931 . S
H82 C87 0.928 . S
H83 C89 0.930 . S
C84 H81 0.931 . S
C84 C85 1.413 . S
C84 C86 1.360 . S
C85 C84 1.413 . S
C85 C89 1.429 . S
C86 C84 1.360 . S
C86 C87 1.372 . S
C87 H82 0.928 . S
C87 C86 1.372 . S
C87 C88 1.404 . S
C88 C87 1.404 . S
C88 C89 1.391 . S
C89 H83 0.930 . S
C89 C85 1.429 . S
C89 C88 1.391 . S
H90 C93 0.931 . S
H91 C96 0.928 . S
H92 C98 0.930 . S
C93 H90 0.931 . S
C93 C94 1.413 . S
C93 C95 1.360 . S
C94 C93 1.413 . S
C94 C98 1.429 . S
C95 C93 1.360 . S
C95 C96 1.372 . S
C96 H91 0.928 . S
C96 C95 1.372 . S
C96 C97 1.404 . S
C97 C96 1.404 . S
C97 C98 1.391 . S
C98 H92 0.930 . S
C98 C94 1.429 . S
C98 C97 1.391 . S
H99 C102 0.931 . S
H100 C105 0.928 . S
H101 C107 0.930 . S
C102 H99 0.931 . S
C102 C103 1.413 . S
C102 C104 1.360 . S
C103 C102 1.413 . S
C103 C107 1.429 . S
C104 C102 1.360 . S
C104 C105 1.372 . S
C105 H100 0.928 . S
C105 C104 1.372 . S
C105 C106 1.404 . S
C106 C105 1.404 . S
C106 C107 1.391 . S
C107 H101 0.930 . S
C107 C103 1.429 . S
C107 C106 1.391 . S
H108 C111 0.931 . S
H109 C114 0.928 . S
H110 C116 0.930 . S
C111 H108 0.931 . S
C111 C112 1.413 . S
C111 C113 1.360 . S
C112 C111 1.413 . S
C112 C116 1.429 . S
C113 C111 1.360 . S
C113 C114 1.372 . S
C114 H109 0.928 . S
C114 C113 1.372 . S
C114 C115 1.404 . S
C115 C114 1.404 . S
C115 C116 1.391 . S
C116 H110 0.930 . S
C116 C112 1.429 . S
C116 C115 1.391 . S
H117 C120 0.931 . S
H118 C123 0.928 . S
H119 C125 0.930 . S
C120 H117 0.931 . S
C120 C121 1.413 . S
C120 C122 1.360 . S
C121 C120 1.413 . S
C121 C125 1.429 . S
C122 C120 1.360 . S
C122 C123 1.372 . S
C123 H118 0.928 . S
C123 C122 1.372 . S
C123 C124 1.404 . S
C124 C123 1.404 . S
C124 C125 1.391 . S
C125 H119 0.930 . S
C125 C121 1.429 . S
C125 C124 1.391 . S
H126 C129 0.931 . S
H127 C132 0.928 . S
H128 C134 0.930 . S
C129 H126 0.931 . S
C129 C130 1.413 . S
C129 C131 1.360 . S
C130 C129 1.413 . S
C130 C134 1.429 . S
C131 C129 1.360 . S
C131 C132 1.372 . S
C132 H127 0.928 . S
C132 C131 1.372 . S
C132 C133 1.404 . S
C133 C132 1.404 . S
C133 C134 1.391 . S
C134 H128 0.930 . S
C134 C130 1.429 . S
C134 C133 1.391 . S
H135 C138 0.931 . S
H136 C141 0.928 . S
H137 C143 0.930 . S
C138 H135 0.931 . S
C138 C139 1.413 . S
C138 C140 1.360 . S
C139 C138 1.413 . S
C139 C143 1.429 . S
C140 C138 1.360 . S
C140 C141 1.372 . S
C141 H136 0.928 . S
C141 C140 1.372 . S
C141 C142 1.404 . S
C142 C141 1.404 . S
C142 C143 1.391 . S
C143 H137 0.930 . S
C143 C139 1.429 . S
C143 C142 1.391 . S
H144 C147 0.931 . S
H145 C150 0.928 . S
H146 C152 0.930 . S
C147 H144 0.931 . S
C147 C148 1.413 . S
C147 C149 1.360 . S
C148 C147 1.413 . S
C148 C152 1.429 . S
C149 C147 1.360 . S
C149 C150 1.372 . S
C150 H145 0.928 . S
C150 C149 1.372 . S
C150 C151 1.404 . S
C151 C150 1.404 . S
C151 C152 1.391 . S
C152 H146 0.930 . S
C152 C148 1.429 . S
C152 C151 1.391 . S
H153 C156 0.931 . S
H154 C159 0.928 . S
H155 C161 0.930 . S
C156 H153 0.931 . S
C156 C157 1.413 . S
C156 C158 1.360 . S
C157 C156 1.413 . S
C157 C161 1.429 . S
C158 C156 1.360 . S
C158 C159 1.372 . S
C159 H154 0.928 . S
C159 C158 1.372 . S
C159 C160 1.404 . S
C160 C159 1.404 . S
C160 C161 1.391 . S
C161 H155 0.930 . S
C161 C157 1.429 . S
C161 C160 1.391 . S
Eu162 C171 2.828 . S
Eu162 O173 2.376 1_556 S
Eu162 O175 2.418 . S
Eu162 O180 2.373 1_565 S
Eu162 O183 2.488 . S
Eu162 O184 2.464 1_565 S
Eu162 O185 2.349 1_565 S
Eu163 O172 2.373 1_545 S
Eu163 O176 2.488 . S
Eu163 O177 2.472 . S
Eu163 O178 2.349 1_545 S
Eu163 O181 2.392 . S
Eu163 O182 2.418 . S
Eu163 C192 2.828 . S
C164 O182 1.199 1_556 S
C164 O185 1.283 . S
C165 C166 1.379 1_565 S
C165 C169 1.373 . S
C165 C171 1.505 . S
C166 C165 1.379 1_545 S
C166 C168 1.369 . S
C166 H194 0.930 . S
C167 C169 1.383 . S
C167 C170 1.382 1_565 S
C167 H195 0.930 . S
C168 C166 1.369 . S
C168 C170 1.392 . S
C168 H196 0.930 . S
C169 C165 1.373 . S
C169 C167 1.383 . S
C169 H197 0.931 . S
C170 C167 1.382 1_545 S
C170 C168 1.392 . S
C171 Eu162 2.828 . S
C171 C165 1.505 . S
C171 O183 1.249 . S
C171 O184 1.233 1_565 S
O172 Eu163 2.373 1_565 S
O172 C174 1.258 . S
O173 Eu162 2.376 1_554 S
O173 C174 1.261 . S
C174 O172 1.258 . S
C174 O173 1.261 . S
O175 Eu162 2.418 . S
O175 C179 1.244 1_556 S
O176 Eu163 2.488 . S
O176 C192 1.249 . S
O177 Eu163 2.472 . S
O177 C192 1.246 . S
O178 Eu163 2.349 1_565 S
O178 C179 1.265 . S
C179 O175 1.244 1_554 S
C179 O178 1.265 . S
O180 Eu162 2.373 1_545 S
O180 C193 1.258 . S
O181 Eu163 2.392 . S
O181 C193 1.242 1_554 S
O182 Eu163 2.418 . S
O182 C164 1.199 1_554 S
O183 Eu162 2.488 . S
O183 C171 1.249 . S
O184 Eu162 2.464 1_545 S
O184 C171 1.233 1_545 S
O185 Eu162 2.349 1_545 S
O185 C164 1.283 . S
C186 C187 1.379 1_545 S
C186 C190 1.373 . S
C186 C192 1.505 . S
C187 C186 1.379 1_565 S
C187 C189 1.369 . S
C187 H198 0.930 . S
C188 C190 1.383 . S
C188 C191 1.382 1_545 S
C188 H199 0.930 . S
C189 C187 1.369 . S
C189 C191 1.392 . S
C189 H200 0.930 . S
C190 C186 1.373 . S
C190 C188 1.383 . S
C190 H201 0.931 . S
C191 C188 1.382 1_565 S
C191 C189 1.392 . S
C192 Eu163 2.828 . S
C192 O176 1.249 . S
C192 O177 1.246 . S
C192 C186 1.505 . S
C193 O180 1.258 . S
C193 O181 1.242 1_556 S
H194 C166 0.930 . S
H195 C167 0.930 . S
H196 C168 0.930 . S
H197 C169 0.931 . S
H198 C187 0.930 . S
H199 C188 0.930 . S
H200 C189 0.930 . S
H201 C190 0.931 . S
Eu202 C211 2.828 . S
Eu202 O213 2.392 1_556 S
Eu202 O215 2.418 . S
Eu202 O220 2.373 1_455 S
Eu202 O223 2.488 . S
Eu202 O224 2.471 1_455 S
Eu202 O225 2.349 1_455 S
Eu203 O212 2.373 1_655 S
Eu203 O216 2.488 . S
Eu203 O217 2.471 1_655 S
Eu203 O218 2.349 1_655 S
Eu203 O221 2.408 . S
Eu203 O222 2.418 . S
Eu203 C232 2.828 . S
C204 O222 1.244 1_556 S
C204 O225 1.265 . S
C205 C206 1.379 1_455 S
C205 C209 1.373 . S
C205 C211 1.505 . S
C206 C205 1.379 1_655 S
C206 C208 1.369 . S
C206 H234 0.930 . S
C207 C209 1.383 . S
C207 C210 1.382 1_455 S
C207 H235 0.930 . S
C208 C206 1.369 . S
C208 C210 1.392 . S
C208 H236 0.930 . S
C209 C205 1.373 . S
C209 C207 1.383 . S
C209 H237 0.931 . S
C210 C207 1.382 1_655 S
C210 C208 1.392 . S
C211 Eu202 2.828 . S
C211 C205 1.505 . S
C211 O223 1.249 . S
C211 O224 1.244 1_455 S
O212 Eu203 2.373 1_455 S
O212 C214 1.258 . S
O213 Eu202 2.392 1_554 S
O213 C214 1.242 . S
C214 O212 1.258 . S
C214 O213 1.242 . S
O215 Eu202 2.418 . S
O215 C219 1.244 1_556 S
O216 Eu203 2.488 . S
O216 C232 1.249 . S
O217 Eu203 2.471 1_455 S
O217 C232 1.244 1_455 S
O218 Eu203 2.349 1_455 S
O218 C219 1.265 . S
C219 O215 1.244 1_554 S
C219 O218 1.265 . S
O220 Eu202 2.373 1_655 S
O220 C233 1.258 . S
O221 Eu203 2.408 . S
O221 C233 1.223 1_554 S
O222 Eu203 2.418 . S
O222 C204 1.244 1_554 S
O223 Eu202 2.488 . S
O223 C211 1.249 . S
O224 Eu202 2.471 1_655 S
O224 C211 1.244 1_655 S
O225 Eu202 2.349 1_655 S
O225 C204 1.265 . S
C226 C227 1.379 1_655 S
C226 C230 1.373 . S
C226 C232 1.505 . S
C227 C226 1.379 1_455 S
C227 C229 1.369 . S
C227 H238 0.930 . S
C228 C230 1.383 . S
C228 C231 1.382 1_655 S
C228 H239 0.930 . S
C229 C227 1.369 . S
C229 C231 1.392 . S
C229 H240 0.930 . S
C230 C226 1.373 . S
C230 C228 1.383 . S
C230 H241 0.931 . S
C231 C228 1.382 1_455 S
C231 C229 1.392 . S
C232 Eu203 2.828 . S
C232 O216 1.249 . S
C232 O217 1.244 1_655 S
C232 C226 1.505 . S
C233 O220 1.258 . S
C233 O221 1.223 1_556 S
H234 C206 0.930 . S
H235 C207 0.930 . S
H236 C208 0.930 . S
H237 C209 0.931 . S
H238 C227 0.930 . S
H239 C228 0.930 . S
H240 C229 0.930 . S
H241 C230 0.931 . S
Eu242 C251 2.828 . S
Eu242 O253 2.392 . S
Eu242 O255 2.418 . S
Eu242 O260 2.373 . S
Eu242 O263 2.488 . S
Eu242 O264 2.471 . S
Eu242 O265 2.349 . S
Eu243 O252 2.373 . S
Eu243 O256 2.488 . S
Eu243 O257 2.471 . S
Eu243 O258 2.349 . S
Eu243 O261 2.392 1_556 S
Eu243 O262 2.418 . S
Eu243 C272 2.828 . S
C244 O262 1.244 1_554 S
C244 O265 1.265 . S
C245 C246 1.379 . S
C245 C249 1.373 . S
C245 C251 1.505 . S
C246 C245 1.379 . S
C246 C248 1.369 . S
C246 H274 0.930 . S
C247 C249 1.383 . S
C247 C250 1.382 . S
C247 H275 0.930 . S
C248 C246 1.369 . S
C248 C250 1.392 . S
C248 H276 0.930 . S
C249 C245 1.373 . S
C249 C247 1.383 . S
C249 H277 0.931 . S
C250 C247 1.382 . S
C250 C248 1.392 . S
C251 Eu242 2.828 . S
C251 C245 1.505 . S
C251 O263 1.249 . S
C251 O264 1.244 . S
O252 Eu243 2.373 . S
O252 C254 1.258 . S
O253 Eu242 2.392 . S
O253 C254 1.242 1_554 S
C254 O252 1.258 . S
C254 O253 1.242 1_556 S
O255 Eu242 2.418 . S
O255 C259 1.244 1_554 S
O256 Eu243 2.488 . S
O256 C272 1.249 . S
O257 Eu243 2.471 . S
O257 C272 1.244 . S
O258 Eu243 2.349 . S
O258 C259 1.265 . S
C259 O255 1.244 1_556 S
C259 O258 1.265 . S
O260 Eu242 2.373 . S
O260 C273 1.258 . S
O261 Eu243 2.392 1_554 S
O261 C273 1.242 . S
O262 Eu243 2.418 . S
O262 C244 1.244 1_556 S
O263 Eu242 2.488 . S
O263 C251 1.249 . S
O264 Eu242 2.471 . S
O264 C251 1.244 . S
O265 Eu242 2.349 . S
O265 C244 1.265 . S
C266 C267 1.379 . S
C266 C270 1.373 . S
C266 C272 1.505 . S
C267 C266 1.379 . S
C267 C269 1.369 . S
C267 H278 0.930 . S
C268 C270 1.383 . S
C268 C271 1.382 . S
C268 H279 0.930 . S
C269 C267 1.369 . S
C269 C271 1.392 . S
C269 H280 0.930 . S
C270 C266 1.373 . S
C270 C268 1.383 . S
C270 H281 0.931 . S
C271 C268 1.382 . S
C271 C269 1.392 . S
C272 Eu243 2.828 . S
C272 O256 1.249 . S
C272 O257 1.244 . S
C272 C266 1.505 . S
C273 O260 1.258 . S
C273 O261 1.242 . S
H274 C246 0.930 . S
H275 C247 0.930 . S
H276 C248 0.930 . S
H277 C249 0.931 . S
H278 C267 0.930 . S
H279 C268 0.930 . S
H280 C269 0.930 . S
H281 C270 0.931 . S
Eu282 C291 2.828 . S
Eu282 O293 2.392 . S
Eu282 O295 2.418 . S
Eu282 O300 2.373 . S
Eu282 O303 2.488 . S
Eu282 O304 2.471 . S
Eu282 O305 2.349 . S
Eu283 O292 2.373 . S
Eu283 O296 2.488 . S
Eu283 O297 2.471 . S
Eu283 O298 2.349 . S
Eu283 O301 2.392 . S
Eu283 O302 2.418 . S
Eu283 C312 2.828 . S
C284 O302 1.244 . S
C284 O305 1.265 . S
C285 C286 1.379 . S
C285 C289 1.373 . S
C285 C291 1.505 . S
C286 C285 1.379 . S
C286 C288 1.369 . S
C286 H314 0.930 . S
C287 C289 1.383 . S
C287 C290 1.382 . S
C287 H315 0.930 . S
C288 C286 1.369 . S
C288 C290 1.392 . S
C288 H316 0.930 . S
C289 C285 1.373 . S
C289 C287 1.383 . S
C289 H317 0.931 . S
C290 C287 1.382 . S
C290 C288 1.392 . S
C291 Eu282 2.828 . S
C291 C285 1.505 . S
C291 O303 1.249 . S
C291 O304 1.244 . S
O292 Eu283 2.373 . S
O292 C294 1.258 . S
O293 Eu282 2.392 . S
O293 C294 1.242 . S
C294 O292 1.258 . S
C294 O293 1.242 . S
O295 Eu282 2.418 . S
O295 C299 1.244 . S
O296 Eu283 2.488 . S
O296 C312 1.249 . S
O297 Eu283 2.471 . S
O297 C312 1.244 . S
O298 Eu283 2.349 . S
O298 C299 1.265 . S
C299 O295 1.244 . S
C299 O298 1.265 . S
O300 Eu282 2.373 . S
O300 C313 1.258 . S
O301 Eu283 2.392 . S
O301 C313 1.242 . S
O302 Eu283 2.418 . S
O302 C284 1.244 . S
O303 Eu282 2.488 . S
O303 C291 1.249 . S
O304 Eu282 2.471 . S
O304 C291 1.244 . S
O305 Eu282 2.349 . S
O305 C284 1.265 . S
C306 C307 1.379 . S
C306 C310 1.373 . S
C306 C312 1.505 . S
C307 C306 1.379 . S
C307 C309 1.369 . S
C307 H318 0.930 . S
C308 C310 1.383 . S
C308 C311 1.382 . S
C308 H319 0.930 . S
C309 C307 1.369 . S
C309 C311 1.392 . S
C309 H320 0.930 . S
C310 C306 1.373 . S
C310 C308 1.383 . S
C310 H321 0.931 . S
C311 C308 1.382 . S
C311 C309 1.392 . S
C312 Eu283 2.828 . S
C312 O296 1.249 . S
C312 O297 1.244 . S
C312 C306 1.505 . S
C313 O300 1.258 . S
C313 O301 1.242 . S
H314 C286 0.930 . S
H315 C287 0.930 . S
H316 C288 0.930 . S
H317 C289 0.931 . S
H318 C307 0.930 . S
H319 C308 0.930 . S
H320 C309 0.930 . S
H321 C310 0.931 . S
Eu322 C331 2.828 . S
Eu322 O333 2.392 . S
Eu322 O335 2.418 . S
Eu322 O340 2.373 . S
Eu322 O343 2.488 . S
Eu322 O344 2.471 . S
Eu322 O345 2.349 . S
Eu323 O332 2.373 . S
Eu323 O336 2.488 . S
Eu323 O337 2.471 . S
Eu323 O338 2.349 . S
Eu323 O341 2.392 . S
Eu323 O342 2.418 . S
Eu323 C352 2.828 . S
C324 O342 1.244 . S
C324 O345 1.265 . S
C325 C326 1.379 . S
C325 C329 1.373 . S
C325 C331 1.505 . S
C326 C325 1.379 . S
C326 C328 1.369 . S
C326 H354 0.930 . S
C327 C329 1.383 . S
C327 C330 1.382 . S
C327 H355 0.930 . S
C328 C326 1.369 . S
C328 C330 1.392 . S
C328 H356 0.930 . S
C329 C325 1.373 . S
C329 C327 1.383 . S
C329 H357 0.931 . S
C330 C327 1.382 . S
C330 C328 1.392 . S
C331 Eu322 2.828 . S
C331 C325 1.505 . S
C331 O343 1.249 . S
C331 O344 1.244 . S
O332 Eu323 2.373 . S
O332 C334 1.258 . S
O333 Eu322 2.392 . S
O333 C334 1.242 . S
C334 O332 1.258 . S
C334 O333 1.242 . S
O335 Eu322 2.418 . S
O335 C339 1.244 . S
O336 Eu323 2.488 . S
O336 C352 1.249 . S
O337 Eu323 2.471 . S
O337 C352 1.244 . S
O338 Eu323 2.349 . S
O338 C339 1.265 . S
C339 O335 1.244 . S
C339 O338 1.265 . S
O340 Eu322 2.373 . S
O340 C353 1.258 . S
O341 Eu323 2.392 . S
O341 C353 1.242 . S
O342 Eu323 2.418 . S
O342 C324 1.244 . S
O343 Eu322 2.488 . S
O343 C331 1.249 . S
O344 Eu322 2.471 . S
O344 C331 1.244 . S
O345 Eu322 2.349 . S
O345 C324 1.265 . S
C346 C347 1.379 . S
C346 C350 1.373 . S
C346 C352 1.505 . S
C347 C346 1.379 . S
C347 C349 1.369 . S
C347 H358 0.930 . S
C348 C350 1.383 . S
C348 C351 1.382 . S
C348 H359 0.930 . S
C349 C347 1.369 . S
C349 C351 1.392 . S
C349 H360 0.930 . S
C350 C346 1.373 . S
C350 C348 1.383 . S
C350 H361 0.931 . S
C351 C348 1.382 . S
C351 C349 1.392 . S
C352 Eu323 2.828 . S
C352 O336 1.249 . S
C352 O337 1.244 . S
C352 C346 1.505 . S
C353 O340 1.258 . S
C353 O341 1.242 . S
H354 C326 0.930 . S
H355 C327 0.930 . S
H356 C328 0.930 . S
H357 C329 0.931 . S
H358 C347 0.930 . S
H359 C348 0.930 . S
H360 C349 0.930 . S
H361 C350 0.931 . S
Eu362 C371 2.828 . S
Eu362 O373 2.392 . S
Eu362 O375 2.418 . S
Eu362 O380 2.373 . S
Eu362 O383 2.488 . S
Eu362 O384 2.471 . S
Eu362 O385 2.349 . S
Eu363 O372 2.373 . S
Eu363 O376 2.488 . S
Eu363 O377 2.471 . S
Eu363 O378 2.349 . S
Eu363 O381 2.392 . S
Eu363 O382 2.418 . S
Eu363 C392 2.828 . S
C364 O382 1.244 . S
C364 O385 1.265 . S
C365 C366 1.379 . S
C365 C369 1.373 . S
C365 C371 1.505 . S
C366 C365 1.379 . S
C366 C368 1.369 . S
C366 H394 0.930 . S
C367 C369 1.383 . S
C367 C370 1.382 . S
C367 H395 0.930 . S
C368 C366 1.369 . S
C368 C370 1.392 . S
C368 H396 0.930 . S
C369 C365 1.373 . S
C369 C367 1.383 . S
C369 H397 0.931 . S
C370 C367 1.382 . S
C370 C368 1.392 . S
C371 Eu362 2.828 . S
C371 C365 1.505 . S
C371 O383 1.249 . S
C371 O384 1.244 . S
O372 Eu363 2.373 . S
O372 C374 1.258 . S
O373 Eu362 2.392 . S
O373 C374 1.242 . S
C374 O372 1.258 . S
C374 O373 1.242 . S
O375 Eu362 2.418 . S
O375 C379 1.244 . S
O376 Eu363 2.488 . S
O376 C392 1.249 . S
O377 Eu363 2.471 . S
O377 C392 1.244 . S
O378 Eu363 2.349 . S
O378 C379 1.265 . S
C379 O375 1.244 . S
C379 O378 1.265 . S
O380 Eu362 2.373 . S
O380 C393 1.258 . S
O381 Eu363 2.392 . S
O381 C393 1.242 . S
O382 Eu363 2.418 . S
O382 C364 1.244 . S
O383 Eu362 2.488 . S
O383 C371 1.249 . S
O384 Eu362 2.471 . S
O384 C371 1.244 . S
O385 Eu362 2.349 . S
O385 C364 1.265 . S
C386 C387 1.379 . S
C386 C390 1.373 . S
C386 C392 1.505 . S
C387 C386 1.379 . S
C387 C389 1.369 . S
C387 H398 0.930 . S
C388 C390 1.383 . S
C388 C391 1.382 . S
C388 H399 0.930 . S
C389 C387 1.369 . S
C389 C391 1.392 . S
C389 H400 0.930 . S
C390 C386 1.373 . S
C390 C388 1.383 . S
C390 H401 0.931 . S
C391 C388 1.382 . S
C391 C389 1.392 . S
C392 Eu363 2.828 . S
C392 O376 1.249 . S
C392 O377 1.244 . S
C392 C386 1.505 . S
C393 O380 1.258 . S
C393 O381 1.242 . S
H394 C366 0.930 . S
H395 C367 0.930 . S
H396 C368 0.930 . S
H397 C369 0.931 . S
H398 C387 0.930 . S
H399 C388 0.930 . S
H400 C389 0.930 . S
H401 C390 0.931 . S
Eu402 C411 2.828 . S
Eu402 O413 2.392 . S
Eu402 O415 2.418 . S
Eu402 O420 2.373 . S
Eu402 O423 2.488 . S
Eu402 O424 2.471 . S
Eu402 O425 2.349 . S
Eu403 O412 2.373 . S
Eu403 O416 2.488 . S
Eu403 O417 2.471 . S
Eu403 O418 2.349 . S
Eu403 O421 2.392 . S
Eu403 O422 2.418 . S
Eu403 C432 2.828 . S
C404 O422 1.244 . S
C404 O425 1.265 . S
C405 C406 1.379 . S
C405 C409 1.373 . S
C405 C411 1.505 . S
C406 C405 1.379 . S
C406 C408 1.369 . S
C406 H434 0.930 . S
C407 C409 1.383 . S
C407 C410 1.382 . S
C407 H435 0.930 . S
C408 C406 1.369 . S
C408 C410 1.392 . S
C408 H436 0.930 . S
C409 C405 1.373 . S
C409 C407 1.383 . S
C409 H437 0.931 . S
C410 C407 1.382 . S
C410 C408 1.392 . S
C411 Eu402 2.828 . S
C411 C405 1.505 . S
C411 O423 1.249 . S
C411 O424 1.244 . S
O412 Eu403 2.373 . S
O412 C414 1.258 . S
O413 Eu402 2.392 . S
O413 C414 1.242 . S
C414 O412 1.258 . S
C414 O413 1.242 . S
O415 Eu402 2.418 . S
O415 C419 1.244 . S
O416 Eu403 2.488 . S
O416 C432 1.249 . S
O417 Eu403 2.471 . S
O417 C432 1.244 . S
O418 Eu403 2.349 . S
O418 C419 1.265 . S
C419 O415 1.244 . S
C419 O418 1.265 . S
O420 Eu402 2.373 . S
O420 C433 1.258 . S
O421 Eu403 2.392 . S
O421 C433 1.242 . S
O422 Eu403 2.418 . S
O422 C404 1.244 . S
O423 Eu402 2.488 . S
O423 C411 1.249 . S
O424 Eu402 2.471 . S
O424 C411 1.244 . S
O425 Eu402 2.349 . S
O425 C404 1.265 . S
C426 C427 1.379 . S
C426 C430 1.373 . S
C426 C432 1.505 . S
C427 C426 1.379 . S
C427 C429 1.369 . S
C427 H438 0.930 . S
C428 C430 1.383 . S
C428 C431 1.382 . S
C428 H439 0.930 . S
C429 C427 1.369 . S
C429 C431 1.392 . S
C429 H440 0.930 . S
C430 C426 1.373 . S
C430 C428 1.383 . S
C430 H441 0.931 . S
C431 C428 1.382 . S
C431 C429 1.392 . S
C432 Eu403 2.828 . S
C432 O416 1.249 . S
C432 O417 1.244 . S
C432 C426 1.505 . S
C433 O420 1.258 . S
C433 O421 1.242 . S
H434 C406 0.930 . S
H435 C407 0.930 . S
H436 C408 0.930 . S
H437 C409 0.931 . S
H438 C427 0.930 . S
H439 C428 0.930 . S
H440 C429 0.930 . S
H441 C430 0.931 . S
Eu442 C451 2.828 . S
Eu442 O453 2.392 . S
Eu442 O455 2.418 . S
Eu442 O460 2.373 . S
Eu442 O463 2.488 . S
Eu442 O464 2.471 . S
Eu442 O465 2.349 . S
Eu443 O452 2.373 . S
Eu443 O456 2.488 . S
Eu443 O457 2.471 . S
Eu443 O458 2.349 . S
Eu443 O461 2.392 . S
Eu443 O462 2.418 . S
Eu443 C472 2.828 . S
C444 O462 1.244 . S
C444 O465 1.265 . S
C445 C446 1.379 . S
C445 C449 1.373 . S
C445 C451 1.505 . S
C446 C445 1.379 . S
C446 C448 1.369 . S
C446 H474 0.930 . S
C447 C449 1.383 . S
C447 C450 1.382 . S
C447 H475 0.930 . S
C448 C446 1.369 . S
C448 C450 1.392 . S
C448 H476 0.930 . S
C449 C445 1.373 . S
C449 C447 1.383 . S
C449 H477 0.931 . S
C450 C447 1.382 . S
C450 C448 1.392 . S
C451 Eu442 2.828 . S
C451 C445 1.505 . S
C451 O463 1.249 . S
C451 O464 1.244 . S
O452 Eu443 2.373 . S
O452 C454 1.258 . S
O453 Eu442 2.392 . S
O453 C454 1.242 . S
C454 O452 1.258 . S
C454 O453 1.242 . S
O455 Eu442 2.418 . S
O455 C459 1.244 . S
O456 Eu443 2.488 . S
O456 C472 1.249 . S
O457 Eu443 2.471 . S
O457 C472 1.244 . S
O458 Eu443 2.349 . S
O458 C459 1.265 . S
C459 O455 1.244 . S
C459 O458 1.265 . S
O460 Eu442 2.373 . S
O460 C473 1.258 . S
O461 Eu443 2.392 . S
O461 C473 1.242 . S
O462 Eu443 2.418 . S
O462 C444 1.244 . S
O463 Eu442 2.488 . S
O463 C451 1.249 . S
O464 Eu442 2.471 . S
O464 C451 1.244 . S
O465 Eu442 2.349 . S
O465 C444 1.265 . S
C466 C467 1.379 . S
C466 C470 1.373 . S
C466 C472 1.505 . S
C467 C466 1.379 . S
C467 C469 1.369 . S
C467 H478 0.930 . S
C468 C470 1.383 . S
C468 C471 1.382 . S
C468 H479 0.930 . S
C469 C467 1.369 . S
C469 C471 1.392 . S
C469 H480 0.930 . S
C470 C466 1.373 . S
C470 C468 1.383 . S
C470 H481 0.931 . S
C471 C468 1.382 . S
C471 C469 1.392 . S
C472 Eu443 2.828 . S
C472 O456 1.249 . S
C472 O457 1.244 . S
C472 C466 1.505 . S
C473 O460 1.258 . S
C473 O461 1.242 . S
H474 C446 0.930 . S
H475 C447 0.930 . S
H476 C448 0.930 . S
H477 C449 0.931 . S
H478 C467 0.930 . S
H479 C468 0.930 . S
H480 C469 0.930 . S
H481 C470 0.931 . S
Eu482 C491 2.828 . S
Eu482 O493 2.392 . S
Eu482 O495 2.418 . S
Eu482 O500 2.373 . S
Eu482 O503 2.488 . S
Eu482 O504 2.471 . S
Eu482 O505 2.349 . S
Eu483 O492 2.373 . S
Eu483 O496 2.488 . S
Eu483 O497 2.471 . S
Eu483 O498 2.349 . S
Eu483 O501 2.392 . S
Eu483 O502 2.418 . S
Eu483 C512 2.828 . S
C484 O502 1.244 . S
C484 O505 1.265 . S
C485 C486 1.379 . S
C485 C489 1.373 . S
C485 C491 1.505 . S
C486 C485 1.379 . S
C486 C488 1.369 . S
C486 H514 0.930 . S
C487 C489 1.383 . S
C487 C490 1.382 . S
C487 H515 0.930 . S
C488 C486 1.369 . S
C488 C490 1.392 . S
C488 H516 0.930 . S
C489 C485 1.373 . S
C489 C487 1.383 . S
C489 H517 0.931 . S
C490 C487 1.382 . S
C490 C488 1.392 . S
C491 Eu482 2.828 . S
C491 C485 1.505 . S
C491 O503 1.249 . S
C491 O504 1.244 . S
O492 Eu483 2.373 . S
O492 C494 1.258 . S
O493 Eu482 2.392 . S
O493 C494 1.242 . S
C494 O492 1.258 . S
C494 O493 1.242 . S
O495 Eu482 2.418 . S
O495 C499 1.244 . S
O496 Eu483 2.488 . S
O496 C512 1.249 . S
O497 Eu483 2.471 . S
O497 C512 1.244 . S
O498 Eu483 2.349 . S
O498 C499 1.265 . S
C499 O495 1.244 . S
C499 O498 1.265 . S
O500 Eu482 2.373 . S
O500 C513 1.258 . S
O501 Eu483 2.392 . S
O501 C513 1.242 . S
O502 Eu483 2.418 . S
O502 C484 1.244 . S
O503 Eu482 2.488 . S
O503 C491 1.249 . S
O504 Eu482 2.471 . S
O504 C491 1.244 . S
O505 Eu482 2.349 . S
O505 C484 1.265 . S
C506 C507 1.379 . S
C506 C510 1.373 . S
C506 C512 1.505 . S
C507 C506 1.379 . S
C507 C509 1.369 . S
C507 H518 0.930 . S
C508 C510 1.383 . S
C508 C511 1.382 . S
C508 H519 0.930 . S
C509 C507 1.369 . S
C509 C511 1.392 . S
C509 H520 0.930 . S
C510 C506 1.373 . S
C510 C508 1.383 . S
C510 H521 0.931 . S
C511 C508 1.382 . S
C511 C509 1.392 . S
C512 Eu483 2.828 . S
C512 O496 1.249 . S
C512 O497 1.244 . S
C512 C506 1.505 . S
C513 O500 1.258 . S
C513 O501 1.242 . S
H514 C486 0.930 . S
H515 C487 0.930 . S
H516 C488 0.930 . S
H517 C489 0.931 . S
H518 C507 0.930 . S
H519 C508 0.930 . S
H520 C509 0.930 . S
H521 C510 0.931 . S
H522 C528 0.930 . S
H523 C532 0.927 1_556 S
H524 C537 0.929 . S
H525 C535 0.929 . S
H526 C530 0.929 . S
H527 C536 0.929 . S
C528 H522 0.930 . S
C528 C529 1.367 . S
C528 C536 1.378 . S
C529 C528 1.367 . S
C529 C537 1.433 . S
C530 H526 0.929 . S
C530 C532 1.378 . S
C530 C534 1.350 . S
C531 C534 1.463 . S
C531 C536 1.350 . S
C531 N539 1.427 . S
C532 H523 0.927 1_554 S
C532 C530 1.378 . S
C532 C533 1.367 . S
C533 C532 1.367 . S
C533 C535 1.433 . S
C534 C530 1.350 . S
C534 C531 1.463 . S
C534 N538 1.427 . S
C535 H525 0.929 . S
C535 C533 1.433 . S
C535 N538 1.384 . S
C536 H527 0.929 . S
C536 C528 1.378 . S
C536 C531 1.350 . S
C537 H524 0.929 . S
C537 C529 1.433 . S
C537 N539 1.384 . S
N538 C534 1.427 . S
N538 C535 1.384 . S
N539 C531 1.427 . S
N539 C537 1.384 . S
H540 C546 0.930 . S
H541 C550 0.930 . S
H542 C555 0.929 . S
H543 C553 0.929 . S
H544 C548 0.929 . S
H545 C554 0.929 . S
C546 H540 0.930 . S
C546 C547 1.367 . S
C546 C554 1.378 . S
C547 C546 1.367 . S
C547 C555 1.433 . S
C548 H544 0.929 . S
C548 C550 1.378 . S
C548 C552 1.350 . S
C549 C552 1.463 . S
C549 C554 1.350 . S
C549 N557 1.427 . S
C550 H541 0.930 . S
C550 C548 1.378 . S
C550 C551 1.367 . S
C551 C550 1.367 . S
C551 C553 1.433 . S
C552 C548 1.350 . S
C552 C549 1.463 . S
C552 N556 1.427 . S
C553 H543 0.929 . S
C553 C551 1.433 . S
C553 N556 1.384 . S
C554 H545 0.929 . S
C554 C546 1.378 . S
C554 C549 1.350 . S
C555 H542 0.929 . S
C555 C547 1.433 . S
C555 N557 1.384 . S
N556 C552 1.427 . S
N556 C553 1.384 . S
N557 C549 1.427 . S
N557 C555 1.384 . S
H558 C564 0.930 . S
H559 C568 0.930 . S
H560 C573 0.929 . S
H561 C571 0.929 1_556 S
H562 C566 0.929 . S
H563 C572 0.929 . S
C564 H558 0.930 . S
C564 C565 1.367 . S
C564 C572 1.378 . S
C565 C564 1.367 . S
C565 C573 1.433 . S
C566 H562 0.929 . S
C566 C568 1.378 . S
C566 C570 1.350 . S
C567 C570 1.463 . S
C567 C572 1.350 . S
C567 N575 1.427 . S
C568 H559 0.930 . S
C568 C566 1.378 . S
C568 C569 1.367 . S
C569 C568 1.367 . S
C569 C571 1.433 . S
C570 C566 1.350 . S
C570 C567 1.463 . S
C570 N574 1.427 . S
C571 H561 0.929 1_554 S
C571 C569 1.433 . S
C571 N574 1.384 . S
C572 H563 0.929 . S
C572 C564 1.378 . S
C572 C567 1.350 . S
C573 H560 0.929 . S
C573 C565 1.433 . S
C573 N575 1.384 . S
N574 C570 1.427 . S
N574 C571 1.384 . S
N575 C567 1.427 . S
N575 C573 1.384 . S
H576 C582 0.930 . S
H577 C586 0.930 1_554 S
H578 C591 0.929 . S
H579 C589 0.929 . S
H580 C584 0.929 . S
H581 C590 0.929 . S
C582 H576 0.930 . S
C582 C583 1.367 . S
C582 C590 1.378 . S
C583 C582 1.367 . S
C583 C591 1.433 . S
C584 H580 0.929 . S
C584 C586 1.378 . S
C584 C588 1.350 . S
C585 C588 1.463 . S
C585 C590 1.350 . S
C585 N593 1.427 . S
C586 H577 0.930 1_556 S
C586 C584 1.378 . S
C586 C587 1.367 . S
C587 C586 1.367 . S
C587 C589 1.433 . S
C588 C584 1.350 . S
C588 C585 1.463 . S
C588 N592 1.427 . S
C589 H579 0.929 . S
C589 C587 1.433 . S
C589 N592 1.384 . S
C590 H581 0.929 . S
C590 C582 1.378 . S
C590 C585 1.350 . S
C591 H578 0.929 . S
C591 C583 1.433 . S
C591 N593 1.384 . S
N592 C588 1.427 . S
N592 C589 1.384 . S
N593 C585 1.427 . S
N593 C591 1.384 . S
H594 C600 0.930 . S
H595 C604 0.930 . S
H596 C609 0.929 . S
H597 C607 0.929 . S
H598 C602 0.929 . S
H599 C608 0.929 . S
C600 H594 0.930 . S
C600 C601 1.367 . S
C600 C608 1.378 . S
C601 C600 1.367 . S
C601 C609 1.433 . S
C602 H598 0.929 . S
C602 C604 1.378 . S
C602 C606 1.350 . S
C603 C606 1.463 . S
C603 C608 1.350 . S
C603 N611 1.427 . S
C604 H595 0.930 . S
C604 C602 1.378 . S
C604 C605 1.367 . S
C605 C604 1.367 . S
C605 C607 1.433 . S
C606 C602 1.350 . S
C606 C603 1.463 . S
C606 N610 1.427 . S
C607 H597 0.929 . S
C607 C605 1.433 . S
C607 N610 1.384 . S
C608 H599 0.929 . S
C608 C600 1.378 . S
C608 C603 1.350 . S
C609 H596 0.929 . S
C609 C601 1.433 . S
C609 N611 1.384 . S
N610 C606 1.427 . S
N610 C607 1.384 . S
N611 C603 1.427 . S
N611 C609 1.384 . S
H612 C618 0.930 . S
H613 C622 0.930 1_554 S
H614 C627 0.929 . S
H615 C625 0.929 . S
H616 C620 0.929 . S
H617 C626 0.929 . S
C618 H612 0.930 . S
C618 C619 1.367 . S
C618 C626 1.378 . S
C619 C618 1.367 . S
C619 C627 1.433 . S
C620 H616 0.929 . S
C620 C622 1.378 . S
C620 C624 1.350 . S
C621 C624 1.463 . S
C621 C626 1.350 . S
C621 N629 1.427 . S
C622 H613 0.930 1_556 S
C622 C620 1.378 . S
C622 C623 1.367 . S
C623 C622 1.367 . S
C623 C625 1.433 . S
C624 C620 1.350 . S
C624 C621 1.463 . S
C624 N628 1.427 . S
C625 H615 0.929 . S
C625 C623 1.433 . S
C625 N628 1.384 . S
C626 H617 0.929 . S
C626 C618 1.378 . S
C626 C621 1.350 . S
C627 H614 0.929 . S
C627 C619 1.433 . S
C627 N629 1.384 . S
N628 C624 1.427 . S
N628 C625 1.384 . S
N629 C621 1.427 . S
N629 C627 1.384 . S
H630 C636 0.930 . S
H631 C640 0.930 . S
H632 C645 0.929 . S
H633 C643 0.929 . S
H634 C638 0.929 . S
H635 C644 0.929 . S
C636 H630 0.930 . S
C636 C637 1.367 . S
C636 C644 1.378 . S
C637 C636 1.367 . S
C637 C645 1.433 . S
C638 H634 0.929 . S
C638 C640 1.378 . S
C638 C642 1.350 . S
C639 C642 1.463 . S
C639 C644 1.350 . S
C639 N647 1.427 . S
C640 H631 0.930 . S
C640 C638 1.378 . S
C640 C641 1.367 . S
C641 C640 1.367 . S
C641 C643 1.433 . S
C642 C638 1.350 . S
C642 C639 1.463 . S
C642 N646 1.427 . S
C643 H633 0.929 . S
C643 C641 1.433 . S
C643 N646 1.384 . S
C644 H635 0.929 . S
C644 C636 1.378 . S
C644 C639 1.350 . S
C645 H632 0.929 . S
C645 C637 1.433 . S
C645 N647 1.384 . S
N646 C642 1.427 . S
N646 C643 1.384 . S
N647 C639 1.427 . S
N647 C645 1.384 . S
H648 C654 0.930 . S
H649 C658 0.930 . S
H650 C663 0.929 . S
H651 C661 0.929 . S
H652 C656 0.929 . S
H653 C662 0.929 . S
C654 H648 0.930 . S
C654 C655 1.367 . S
C654 C662 1.378 . S
C655 C654 1.367 . S
C655 C663 1.433 . S
C656 H652 0.929 . S
C656 C658 1.378 . S
C656 C660 1.350 . S
C657 C660 1.463 . S
C657 C662 1.350 . S
C657 N665 1.427 . S
C658 H649 0.930 . S
C658 C656 1.378 . S
C658 C659 1.367 . S
C659 C658 1.367 . S
C659 C661 1.433 . S
C660 C656 1.350 . S
C660 C657 1.463 . S
C660 N664 1.427 . S
C661 H651 0.929 . S
C661 C659 1.433 . S
C661 N664 1.384 . S
C662 H653 0.929 . S
C662 C654 1.378 . S
C662 C657 1.350 . S
C663 H650 0.929 . S
C663 C655 1.433 . S
C663 N665 1.384 . S
N664 C660 1.427 . S
N664 C661 1.384 . S
N665 C657 1.427 . S
N665 C663 1.384 . S
H666 C672 0.930 . S
H667 C676 0.930 . S
H668 C681 0.929 . S
H669 C679 0.919 1_554 S
H670 C674 0.929 . S
H671 C680 0.929 . S
C672 H666 0.930 . S
C672 C673 1.367 . S
C672 C680 1.378 . S
C673 C672 1.367 . S
C673 C681 1.433 . S
C674 H670 0.929 . S
C674 C676 1.378 . S
C674 C678 1.350 . S
C675 C678 1.463 . S
C675 C680 1.350 . S
C675 N683 1.427 . S
C676 H667 0.930 . S
C676 C674 1.378 . S
C676 C677 1.367 . S
C677 C676 1.367 . S
C677 C679 1.441 . S
C678 C674 1.350 . S
C678 C675 1.463 . S
C678 N682 1.427 . S
C679 H669 0.919 1_556 S
C679 C677 1.441 . S
C679 N682 1.386 . S
C680 H671 0.929 . S
C680 C672 1.378 . S
C680 C675 1.350 . S
C681 H668 0.929 . S
C681 C673 1.433 . S
C681 N683 1.384 . S
N682 C678 1.427 . S
N682 C679 1.386 . S
N683 C675 1.427 . S
N683 C681 1.384 . S
H684 C690 0.930 . S
H685 C694 0.930 . S
H686 C699 0.929 . S
H687 C697 0.929 . S
H688 C692 0.929 . S
H689 C698 0.929 . S
C690 H684 0.930 . S
C690 C691 1.367 . S
C690 C698 1.378 . S
C691 C690 1.367 . S
C691 C699 1.433 . S
C692 H688 0.929 . S
C692 C694 1.378 . S
C692 C696 1.350 . S
C693 C696 1.463 . S
C693 C698 1.350 . S
C693 N701 1.427 . S
C694 H685 0.930 . S
C694 C692 1.378 . S
C694 C695 1.367 . S
C695 C694 1.367 . S
C695 C697 1.433 . S
C696 C692 1.350 . S
C696 C693 1.463 . S
C696 N700 1.427 . S
C697 H687 0.929 . S
C697 C695 1.433 . S
C697 N700 1.384 . S
C698 H689 0.929 . S
C698 C690 1.378 . S
C698 C693 1.350 . S
C699 H686 0.929 . S
C699 C691 1.433 . S
C699 N701 1.384 . S
N700 C696 1.427 . S
N700 C697 1.384 . S
N701 C693 1.427 . S
N701 C699 1.384 . S
H702 C708 0.930 . S
H703 C712 0.930 . S
H704 C717 0.929 . S
H705 C715 0.929 . S
H706 C710 0.929 . S
H707 C716 0.929 . S
C708 H702 0.930 . S
C708 C709 1.367 . S
C708 C716 1.378 . S
C709 C708 1.367 . S
C709 C717 1.433 . S
C710 H706 0.929 . S
C710 C712 1.378 . S
C710 C714 1.350 . S
C711 C714 1.463 . S
C711 C716 1.350 . S
C711 N719 1.427 . S
C712 H703 0.930 . S
C712 C710 1.378 . S
C712 C713 1.367 . S
C713 C712 1.367 . S
C713 C715 1.433 . S
C714 C710 1.350 . S
C714 C711 1.463 . S
C714 N718 1.427 . S
C715 H705 0.929 . S
C715 C713 1.433 . S
C715 N718 1.384 . S
C716 H707 0.929 . S
C716 C708 1.378 . S
C716 C711 1.350 . S
C717 H704 0.929 . S
C717 C709 1.433 . S
C717 N719 1.384 . S
N718 C714 1.427 . S
N718 C715 1.384 . S
N719 C711 1.427 . S
N719 C717 1.384 . S
H720 C726 0.930 . S
H721 C730 0.930 1_556 S
H722 C735 0.929 . S
H723 C733 0.929 . S
H724 C728 0.929 . S
H725 C734 0.929 . S
C726 H720 0.930 . S
C726 C727 1.367 . S
C726 C734 1.378 . S
C727 C726 1.367 . S
C727 C735 1.433 . S
C728 H724 0.929 . S
C728 C730 1.378 . S
C728 C732 1.350 . S
C729 C732 1.463 . S
C729 C734 1.350 . S
C729 N737 1.427 . S
C730 H721 0.930 1_554 S
C730 C728 1.378 . S
C730 C731 1.367 . S
C731 C730 1.367 . S
C731 C733 1.433 . S
C732 C728 1.350 . S
C732 C729 1.463 . S
C732 N736 1.427 . S
C733 H723 0.929 . S
C733 C731 1.433 . S
C733 N736 1.384 . S
C734 H725 0.929 . S
C734 C726 1.378 . S
C734 C729 1.350 . S
C735 H722 0.929 . S
C735 C727 1.433 . S
C735 N737 1.384 . S
N736 C732 1.427 . S
N736 C733 1.384 . S
N737 C729 1.427 . S
N737 C735 1.384 . S
H738 C744 0.930 . S
H739 C748 0.930 . S
H740 C753 0.929 . S
H741 C751 0.929 . S
H742 C746 0.929 . S
H743 C752 0.929 . S
C744 H738 0.930 . S
C744 C745 1.367 . S
C744 C752 1.378 . S
C745 C744 1.367 . S
C745 C753 1.433 . S
C746 H742 0.929 . S
C746 C748 1.378 . S
C746 C750 1.350 . S
C747 C750 1.463 1_655 S
C747 C752 1.350 . S
C747 N755 1.427 . S
C748 H739 0.930 . S
C748 C746 1.378 . S
C748 C749 1.367 . S
C749 C748 1.367 . S
C749 C751 1.433 . S
C750 C746 1.350 . S
C750 C747 1.463 1_455 S
C750 N754 1.427 . S
C751 H741 0.929 . S
C751 C749 1.433 . S
C751 N754 1.384 . S
C752 H743 0.929 . S
C752 C744 1.378 . S
C752 C747 1.350 . S
C753 H740 0.929 . S
C753 C745 1.433 . S
C753 N755 1.384 . S
N754 C750 1.427 . S
N754 C751 1.384 . S
N755 C747 1.427 . S
N755 C753 1.384 . S
H756 C762 0.930 . S
H757 C766 0.930 . S
H758 C771 0.929 . S
H759 C769 0.929 . S
H760 C764 0.929 . S
H761 C770 0.929 . S
C762 H756 0.930 . S
C762 C763 1.367 . S
C762 C770 1.378 . S
C763 C762 1.367 . S
C763 C771 1.433 . S
C764 H760 0.929 . S
C764 C766 1.378 . S
C764 C768 1.350 . S
C765 C768 1.463 . S
C765 C770 1.350 . S
C765 N773 1.427 . S
C766 H757 0.930 . S
C766 C764 1.378 . S
C766 C767 1.367 . S
C767 C766 1.367 . S
C767 C769 1.433 . S
C768 C764 1.350 . S
C768 C765 1.463 . S
C768 N772 1.427 . S
C769 H759 0.929 . S
C769 C767 1.433 . S
C769 N772 1.384 . S
C770 H761 0.929 . S
C770 C762 1.378 . S
C770 C765 1.350 . S
C771 H758 0.929 . S
C771 C763 1.433 . S
C771 N773 1.384 . S
N772 C768 1.427 . S
N772 C769 1.384 . S
N773 C765 1.427 . S
N773 C771 1.384 . S
H774 C780 0.930 . S
H775 C784 0.930 . S
H776 C789 0.929 . S
H777 C787 0.929 . S
H778 C782 0.929 . S
H779 C788 0.929 . S
C780 H774 0.930 . S
C780 C781 1.367 . S
C780 C788 1.378 . S
C781 C780 1.367 . S
C781 C789 1.433 . S
C782 H778 0.929 . S
C782 C784 1.378 . S
C782 C786 1.350 . S
C783 C786 1.463 1_545 S
C783 C788 1.350 . S
C783 N791 1.427 . S
C784 H775 0.930 . S
C784 C782 1.378 . S
C784 C785 1.367 . S
C785 C784 1.367 . S
C785 C787 1.433 . S
C786 C782 1.350 . S
C786 C783 1.463 1_565 S
C786 N790 1.427 . S
C787 H777 0.929 . S
C787 C785 1.433 . S
C787 N790 1.384 . S
C788 H779 0.929 . S
C788 C780 1.378 . S
C788 C783 1.350 . S
C789 H776 0.929 . S
C789 C781 1.433 . S
C789 N791 1.384 . S
N790 C786 1.427 . S
N790 C787 1.384 . S
N791 C783 1.427 . S
N791 C789 1.384 . S
H792 C798 0.930 . S
H793 C802 0.930 . S
H794 C807 0.929 . S
H795 C805 0.929 . S
H796 C800 0.929 . S
H797 C806 0.929 . S
C798 H792 0.930 . S
C798 C799 1.367 . S
C798 C806 1.378 . S
C799 C798 1.367 . S
C799 C807 1.433 . S
C800 H796 0.929 . S
C800 C802 1.378 . S
C800 C804 1.350 . S
C801 C804 1.463 . S
C801 C806 1.350 . S
C801 N809 1.427 . S
C802 H793 0.930 . S
C802 C800 1.378 . S
C802 C803 1.367 . S
C803 C802 1.367 . S
C803 C805 1.433 . S
C804 C800 1.350 . S
C804 C801 1.463 . S
C804 N808 1.427 . S
C805 H795 0.929 . S
C805 C803 1.433 . S
C805 N808 1.384 . S
C806 H797 0.929 . S
C806 C798 1.378 . S
C806 C801 1.350 . S
C807 H794 0.929 . S
C807 C799 1.433 . S
C807 N809 1.384 . S
N808 C804 1.427 . S
N808 C805 1.384 . S
N809 C801 1.427 . S
N809 C807 1.384 . S
H810 C816 0.930 . S
H811 C820 0.930 . S
H812 C825 0.929 . S
H813 C823 0.929 . S
H814 C818 0.929 . S
H815 C824 0.929 . S
C816 H810 0.930 . S
C816 C817 1.367 . S
C816 C824 1.378 . S
C817 C816 1.367 . S
C817 C825 1.433 . S
C818 H814 0.929 . S
C818 C820 1.378 . S
C818 C822 1.350 . S
C819 C822 1.463 . S
C819 C824 1.350 . S
C819 N827 1.427 . S
C820 H811 0.930 . S
C820 C818 1.378 . S
C820 C821 1.367 . S
C821 C820 1.367 . S
C821 C823 1.433 . S
C822 C818 1.350 . S
C822 C819 1.463 . S
C822 N826 1.427 . S
C823 H813 0.929 . S
C823 C821 1.433 . S
C823 N826 1.384 . S
C824 H815 0.929 . S
C824 C816 1.378 . S
C824 C819 1.350 . S
C825 H812 0.929 . S
C825 C817 1.433 . S
C825 N827 1.384 . S
N826 C822 1.427 . S
N826 C823 1.384 . S
N827 C819 1.427 . S
N827 C825 1.384 . S
H828 C834 0.930 . S
H829 C838 0.930 . S
H830 C843 0.929 . S
H831 C841 0.929 . S
H832 C836 0.929 . S
H833 C842 0.929 . S
C834 H828 0.930 . S
C834 C835 1.367 . S
C834 C842 1.378 . S
C835 C834 1.367 . S
C835 C843 1.433 . S
C836 H832 0.929 . S
C836 C838 1.378 . S
C836 C840 1.350 . S
C837 C840 1.463 . S
C837 C842 1.350 . S
C837 N845 1.427 . S
C838 H829 0.930 . S
C838 C836 1.378 . S
C838 C839 1.367 . S
C839 C838 1.367 . S
C839 C841 1.433 . S
C840 C836 1.350 . S
C840 C837 1.463 . S
C840 N844 1.427 . S
C841 H831 0.929 . S
C841 C839 1.433 . S
C841 N844 1.384 . S
C842 H833 0.929 . S
C842 C834 1.378 . S
C842 C837 1.350 . S
C843 H830 0.929 . S
C843 C835 1.433 . S
C843 N845 1.384 . S
N844 C840 1.427 . S
N844 C841 1.384 . S
N845 C837 1.427 . S
N845 C843 1.384 . S
H846 C852 0.930 . S
H847 C856 0.930 . S
H848 C861 0.929 . S
H849 C859 0.929 . S
H850 C854 0.929 . S
H851 C860 0.929 . S
C852 H846 0.930 . S
C852 C853 1.367 . S
C852 C860 1.378 . S
C853 C852 1.367 . S
C853 C861 1.433 . S
C854 H850 0.929 . S
C854 C856 1.378 . S
C854 C858 1.350 . S
C855 C858 1.463 . S
C855 C860 1.350 . S
C855 N863 1.427 . S
C856 H847 0.930 . S
C856 C854 1.378 . S
C856 C857 1.367 . S
C857 C856 1.367 . S
C857 C859 1.433 . S
C858 C854 1.350 . S
C858 C855 1.463 . S
C858 N862 1.427 . S
C859 H849 0.929 . S
C859 C857 1.433 . S
C859 N862 1.384 . S
C860 H851 0.929 . S
C860 C852 1.378 . S
C860 C855 1.350 . S
C861 H848 0.929 . S
C861 C853 1.433 . S
C861 N863 1.384 . S
N862 C858 1.427 . S
N862 C859 1.384 . S
N863 C855 1.427 . S
N863 C861 1.384 . S
H864 C870 0.930 . S
H865 C874 0.930 . S
H866 C879 0.929 . S
H867 C877 0.929 . S
H868 C872 0.929 . S
H869 C878 0.929 . S
C870 H864 0.930 . S
C870 C871 1.367 . S
C870 C878 1.378 . S
C871 C870 1.367 . S
C871 C879 1.433 . S
C872 H868 0.929 . S
C872 C874 1.378 . S
C872 C876 1.350 . S
C873 C876 1.463 . S
C873 C878 1.350 . S
C873 N881 1.427 . S
C874 H865 0.930 . S
C874 C872 1.378 . S
C874 C875 1.367 . S
C875 C874 1.367 . S
C875 C877 1.433 . S
C876 C872 1.350 . S
C876 C873 1.463 . S
C876 N880 1.427 . S
C877 H867 0.929 . S
C877 C875 1.433 . S
C877 N880 1.384 . S
C878 H869 0.929 . S
C878 C870 1.378 . S
C878 C873 1.350 . S
C879 H866 0.929 . S
C879 C871 1.433 . S
C879 N881 1.384 . S
N880 C876 1.427 . S
N880 C877 1.384 . S
N881 C873 1.427 . S
N881 C879 1.384 . S
H882 C888 0.930 . S
H883 C892 0.930 . S
H884 C897 0.929 . S
H885 C895 0.929 . S
H886 C890 0.929 . S
H887 C896 0.929 . S
C888 H882 0.930 . S
C888 C889 1.367 . S
C888 C896 1.378 . S
C889 C888 1.367 . S
C889 C897 1.433 . S
C890 H886 0.929 . S
C890 C892 1.378 . S
C890 C894 1.350 . S
C891 C894 1.463 . S
C891 C896 1.350 . S
C891 N899 1.427 . S
C892 H883 0.930 . S
C892 C890 1.378 . S
C892 C893 1.367 . S
C893 C892 1.367 . S
C893 C895 1.433 . S
C894 C890 1.350 . S
C894 C891 1.463 . S
C894 N898 1.427 . S
C895 H885 0.929 . S
C895 C893 1.433 . S
C895 N898 1.384 . S
C896 H887 0.929 . S
C896 C888 1.378 . S
C896 C891 1.350 . S
C897 H884 0.929 . S
C897 C889 1.433 . S
C897 N899 1.384 . S
N898 C894 1.427 . S
N898 C895 1.384 . S
N899 C891 1.427 . S
N899 C897 1.384 . S
H900 C906 0.930 . S
H901 C910 0.930 . S
H902 C915 0.929 . S
H903 C913 0.929 . S
H904 C908 0.934 . S
H905 C914 0.929 . S
C906 H900 0.930 . S
C906 C907 1.367 . S
C906 C914 1.378 . S
C907 C906 1.367 . S
C907 C915 1.433 . S
C908 H904 0.934 . S
C908 C910 1.378 . S
C908 C912 1.350 . S
C909 C912 1.463 1_545 S
C909 C914 1.350 . S
C909 N917 1.427 . S
C910 H901 0.930 . S
C910 C908 1.378 . S
C910 C911 1.367 . S
C911 C910 1.367 . S
C911 C913 1.433 . S
C912 C908 1.350 . S
C912 C909 1.463 1_565 S
C912 N916 1.427 . S
C913 H903 0.929 . S
C913 C911 1.433 . S
C913 N916 1.384 . S
C914 H905 0.929 . S
C914 C906 1.378 . S
C914 C909 1.350 . S
C915 H902 0.929 . S
C915 C907 1.433 . S
C915 N917 1.384 . S
N916 C912 1.427 . S
N916 C913 1.384 . S
N917 C909 1.427 . S
N917 C915 1.384 . S
H918 C924 0.930 . S
H919 C928 0.930 . S
H920 C933 0.929 . S
H921 C931 0.929 . S
H922 C926 0.929 . S
H923 C932 0.929 . S
C924 H918 0.930 . S
C924 C925 1.367 . S
C924 C932 1.378 . S
C925 C924 1.367 . S
C925 C933 1.433 . S
C926 H922 0.929 . S
C926 C928 1.378 . S
C926 C930 1.350 . S
C927 C930 1.463 1_655 S
C927 C932 1.350 . S
C927 N935 1.427 . S
C928 H919 0.930 . S
C928 C926 1.378 . S
C928 C929 1.367 . S
C929 C928 1.367 . S
C929 C931 1.433 . S
C930 C926 1.350 . S
C930 C927 1.463 1_455 S
C930 N934 1.427 . S
C931 H921 0.929 . S
C931 C929 1.433 . S
C931 N934 1.384 . S
C932 H923 0.929 . S
C932 C924 1.378 . S
C932 C927 1.350 . S
C933 H920 0.929 . S
C933 C925 1.433 . S
C933 N935 1.384 . S
N934 C930 1.427 . S
N934 C931 1.384 . S
N935 C927 1.427 . S
N935 C933 1.384 . S
H936 C942 0.930 . S
H937 C946 0.930 . S
H938 C951 0.929 . S
H939 C949 0.929 . S
H940 C944 0.929 . S
H941 C950 0.929 . S
C942 H936 0.930 . S
C942 C943 1.367 . S
C942 C950 1.378 . S
C943 C942 1.367 . S
C943 C951 1.433 . S
C944 H940 0.929 . S
C944 C946 1.378 . S
C944 C948 1.350 . S
C945 C948 1.463 . S
C945 C950 1.350 . S
C945 N953 1.427 . S
C946 H937 0.930 . S
C946 C944 1.378 . S
C946 C947 1.367 . S
C947 C946 1.367 . S
C947 C949 1.433 . S
C948 C944 1.350 . S
C948 C945 1.463 . S
C948 N952 1.427 . S
C949 H939 0.929 . S
C949 C947 1.433 . S
C949 N952 1.384 . S
C950 H941 0.929 . S
C950 C942 1.378 . S
C950 C945 1.350 . S
C951 H938 0.929 . S
C951 C943 1.433 . S
C951 N953 1.384 . S
N952 C948 1.427 . S
N952 C949 1.384 . S
N953 C945 1.427 . S
N953 C951 1.384 . S
H954 C960 0.930 . S
H955 C964 0.930 . S
H956 C969 0.929 . S
H957 C967 0.929 . S
H958 C962 0.929 . S
H959 C968 0.929 . S
C960 H954 0.930 . S
C960 C961 1.367 . S
C960 C968 1.378 . S
C961 C960 1.367 . S
C961 C969 1.433 . S
C962 H958 0.929 . S
C962 C964 1.378 . S
C962 C966 1.350 . S
C963 C966 1.463 . S
C963 C968 1.350 . S
C963 N971 1.427 . S
C964 H955 0.930 . S
C964 C962 1.378 . S
C964 C965 1.367 . S
C965 C964 1.367 . S
C965 C967 1.433 . S
C966 C962 1.350 . S
C966 C963 1.463 . S
C966 N970 1.427 . S
C967 H957 0.929 . S
C967 C965 1.433 . S
C967 N970 1.384 . S
C968 H959 0.929 . S
C968 C960 1.378 . S
C968 C963 1.350 . S
C969 H956 0.929 . S
C969 C961 1.433 . S
C969 N971 1.384 . S
N970 C966 1.427 . S
N970 C967 1.384 . S
N971 C963 1.427 . S
N971 C969 1.384 . S
H972 C978 0.930 . S
H973 C982 0.930 . S
H974 C987 0.929 . S
H975 C985 0.929 . S
H976 C980 0.929 . S
H977 C986 0.929 . S
C978 H972 0.930 . S
C978 C979 1.367 . S
C978 C986 1.378 . S
C979 C978 1.367 . S
C979 C987 1.433 . S
C980 H976 0.929 . S
C980 C982 1.378 . S
C980 C984 1.350 . S
C981 C984 1.463 . S
C981 C986 1.350 . S
C981 N989 1.427 . S
C982 H973 0.930 . S
C982 C980 1.378 . S
C982 C983 1.367 . S
C983 C982 1.367 . S
C983 C985 1.433 . S
C984 C980 1.350 . S
C984 C981 1.463 . S
C984 N988 1.427 . S
C985 H975 0.929 . S
C985 C983 1.433 . S
C985 N988 1.384 . S
C986 H977 0.929 . S
C986 C978 1.378 . S
C986 C981 1.350 . S
C987 H974 0.929 . S
C987 C979 1.433 . S
C987 N989 1.384 . S
N988 C984 1.427 . S
N988 C985 1.384 . S
N989 C981 1.427 . S
N989 C987 1.384 . S
H990 C996 0.930 . S
H991 C1000 0.930 . S
H992 C1005 0.929 . S
H993 C1003 0.929 . S
H994 C998 0.929 . S
H995 C1004 0.929 . S
C996 H990 0.930 . S
C996 C997 1.367 . S
C996 C1004 1.378 . S
C997 C996 1.367 . S
C997 C1005 1.433 . S
C998 H994 0.929 . S
C998 C1000 1.378 . S
C998 C1002 1.350 . S
C999 C1002 1.463 . S
C999 C1004 1.350 . S
C999 N1007 1.427 . S
C1000 H991 0.930 . S
C1000 C998 1.378 . S
C1000 C1001 1.367 . S
C1001 C1000 1.367 . S
C1001 C1003 1.433 . S
C1002 C998 1.350 . S
C1002 C999 1.463 . S
C1002 N1006 1.427 . S
C1003 H993 0.929 . S
C1003 C1001 1.433 . S
C1003 N1006 1.384 . S
C1004 H995 0.929 . S
C1004 C996 1.378 . S
C1004 C999 1.350 . S
C1005 H992 0.929 . S
C1005 C997 1.433 . S
C1005 N1007 1.384 . S
N1006 C1002 1.427 . S
N1006 C1003 1.384 . S
N1007 C999 1.427 . S
N1007 C1005 1.384 . S
H1008 C1014 0.930 . S
H1009 C1018 0.930 . S
H1010 C1023 0.929 . S
H1011 C1021 0.929 . S
H1012 C1016 0.929 . S
H1013 C1022 0.929 . S
C1014 H1008 0.930 . S
C1014 C1015 1.367 . S
C1014 C1022 1.378 . S
C1015 C1014 1.367 . S
C1015 C1023 1.433 . S
C1016 H1012 0.929 . S
C1016 C1018 1.378 . S
C1016 C1020 1.350 . S
C1017 C1020 1.463 1_565 S
C1017 C1022 1.350 . S
C1017 N1025 1.427 . S
C1018 H1009 0.930 . S
C1018 C1016 1.378 . S
C1018 C1019 1.367 . S
C1019 C1018 1.367 . S
C1019 C1021 1.433 . S
C1020 C1016 1.350 . S
C1020 C1017 1.463 1_545 S
C1020 N1024 1.427 . S
C1021 H1011 0.929 . S
C1021 C1019 1.433 . S
C1021 N1024 1.384 . S
C1022 H1013 0.929 . S
C1022 C1014 1.378 . S
C1022 C1017 1.350 . S
C1023 H1010 0.929 . S
C1023 C1015 1.433 . S
C1023 N1025 1.384 . S
N1024 C1020 1.427 . S
N1024 C1021 1.384 . S
N1025 C1017 1.427 . S
N1025 C1023 1.384 . S
H1026 C1032 0.930 . S
H1027 C1036 0.930 . S
H1028 C1041 0.929 . S
H1029 C1039 0.929 . S
H1030 C1034 0.929 . S
H1031 C1040 0.929 . S
C1032 H1026 0.930 . S
C1032 C1033 1.367 . S
C1032 C1040 1.378 . S
C1033 C1032 1.367 . S
C1033 C1041 1.433 . S
C1034 H1030 0.929 . S
C1034 C1036 1.378 . S
C1034 C1038 1.350 . S
C1035 C1038 1.463 1_455 S
C1035 C1040 1.350 . S
C1035 N1043 1.427 . S
C1036 H1027 0.930 . S
C1036 C1034 1.378 . S
C1036 C1037 1.367 . S
C1037 C1036 1.367 . S
C1037 C1039 1.433 . S
C1038 C1034 1.350 . S
C1038 C1035 1.463 1_655 S
C1038 N1042 1.427 . S
C1039 H1029 0.929 . S
C1039 C1037 1.433 . S
C1039 N1042 1.384 . S
C1040 H1031 0.929 . S
C1040 C1032 1.378 . S
C1040 C1035 1.350 . S
C1041 H1028 0.929 . S
C1041 C1033 1.433 . S
C1041 N1043 1.384 . S
N1042 C1038 1.427 . S
N1042 C1039 1.384 . S
N1043 C1035 1.427 . S
N1043 C1041 1.384 . S
H1044 C1050 0.930 . S
H1045 C1054 0.930 . S
H1046 C1059 0.929 . S
H1047 C1057 0.929 . S
H1048 C1052 0.929 . S
H1049 C1058 0.929 . S
C1050 H1044 0.930 . S
C1050 C1051 1.367 . S
C1050 C1058 1.378 . S
C1051 C1050 1.367 . S
C1051 C1059 1.433 . S
C1052 H1048 0.929 . S
C1052 C1054 1.378 . S
C1052 C1056 1.350 . S
C1053 C1056 1.463 . S
C1053 C1058 1.350 . S
C1053 N1061 1.427 . S
C1054 H1045 0.930 . S
C1054 C1052 1.378 . S
C1054 C1055 1.367 . S
C1055 C1054 1.367 . S
C1055 C1057 1.433 . S
C1056 C1052 1.350 . S
C1056 C1053 1.463 . S
C1056 N1060 1.427 . S
C1057 H1047 0.929 . S
C1057 C1055 1.433 . S
C1057 N1060 1.384 . S
C1058 H1049 0.929 . S
C1058 C1050 1.378 . S
C1058 C1053 1.350 . S
C1059 H1046 0.929 . S
C1059 C1051 1.433 . S
C1059 N1061 1.384 . S
N1060 C1056 1.427 . S
N1060 C1057 1.384 . S
N1061 C1053 1.427 . S
N1061 C1059 1.384 . S
H1062 C1068 0.930 . S
H1063 C1072 0.930 . S
H1064 C1077 0.929 . S
H1065 C1075 0.929 . S
H1066 C1070 0.929 . S
H1067 C1076 0.929 . S
C1068 H1062 0.930 . S
C1068 C1069 1.367 . S
C1068 C1076 1.378 . S
C1069 C1068 1.367 . S
C1069 C1077 1.433 . S
C1070 H1066 0.929 . S
C1070 C1072 1.378 . S
C1070 C1074 1.350 . S
C1071 C1074 1.463 1_455 S
C1071 C1076 1.350 . S
C1071 N1079 1.427 . S
C1072 H1063 0.930 . S
C1072 C1070 1.378 . S
C1072 C1073 1.367 . S
C1073 C1072 1.367 . S
C1073 C1075 1.433 . S
C1074 C1070 1.350 . S
C1074 C1071 1.463 1_655 S
C1074 N1078 1.427 . S
C1075 H1065 0.929 . S
C1075 C1073 1.433 . S
C1075 N1078 1.384 . S
C1076 H1067 0.929 . S
C1076 C1068 1.378 . S
C1076 C1071 1.350 . S
C1077 H1064 0.929 . S
C1077 C1069 1.433 . S
C1077 N1079 1.384 . S
N1078 C1074 1.427 . S
N1078 C1075 1.384 . S
N1079 C1071 1.427 . S
N1079 C1077 1.384 . S
H1080 C1086 0.930 . S
H1081 C1090 0.930 . S
H1082 C1095 0.929 . S
H1083 C1093 0.929 . S
H1084 C1088 0.929 . S
H1085 C1094 0.929 . S
C1086 H1080 0.930 . S
C1086 C1087 1.367 . S
C1086 C1094 1.378 . S
C1087 C1086 1.367 . S
C1087 C1095 1.433 . S
C1088 H1084 0.929 . S
C1088 C1090 1.378 . S
C1088 C1092 1.350 . S
C1089 C1092 1.463 . S
C1089 C1094 1.350 . S
C1089 N1097 1.427 . S
C1090 H1081 0.930 . S
C1090 C1088 1.378 . S
C1090 C1091 1.367 . S
C1091 C1090 1.367 . S
C1091 C1093 1.433 . S
C1092 C1088 1.350 . S
C1092 C1089 1.463 . S
C1092 N1096 1.427 . S
C1093 H1083 0.929 . S
C1093 C1091 1.433 . S
C1093 N1096 1.384 . S
C1094 H1085 0.929 . S
C1094 C1086 1.378 . S
C1094 C1089 1.350 . S
C1095 H1082 0.929 . S
C1095 C1087 1.433 . S
C1095 N1097 1.384 . S
N1096 C1092 1.427 . S
N1096 C1093 1.384 . S
N1097 C1089 1.427 . S
N1097 C1095 1.384 . S
H1098 C1104 0.930 . S
H1099 C1108 0.930 . S
H1100 C1113 0.929 . S
H1101 C1111 0.929 . S
H1102 C1106 0.929 . S
H1103 C1112 0.929 . S
C1104 H1098 0.930 . S
C1104 C1105 1.367 . S
C1104 C1112 1.378 . S
C1105 C1104 1.367 . S
C1105 C1113 1.433 . S
C1106 H1102 0.929 . S
C1106 C1108 1.378 . S
C1106 C1110 1.350 . S
C1107 C1110 1.463 1_565 S
C1107 C1112 1.350 . S
C1107 N1115 1.427 . S
C1108 H1099 0.930 . S
C1108 C1106 1.378 . S
C1108 C1109 1.367 . S
C1109 C1108 1.367 . S
C1109 C1111 1.433 . S
C1110 C1106 1.350 . S
C1110 C1107 1.463 1_545 S
C1110 N1114 1.427 . S
C1111 H1101 0.929 . S
C1111 C1109 1.433 . S
C1111 N1114 1.384 . S
C1112 H1103 0.929 . S
C1112 C1104 1.378 . S
C1112 C1107 1.350 . S
C1113 H1100 0.929 . S
C1113 C1105 1.433 . S
C1113 N1115 1.384 . S
N1114 C1110 1.427 . S
N1114 C1111 1.384 . S
N1115 C1107 1.427 . S
N1115 C1113 1.384 . S
H1116 C1122 0.930 . S
H1117 C1126 0.930 . S
H1118 C1131 0.929 . S
H1119 C1129 0.929 . S
H1120 C1124 0.929 . S
H1121 C1130 0.929 . S
C1122 H1116 0.930 . S
C1122 C1123 1.367 . S
C1122 C1130 1.378 . S
C1123 C1122 1.367 . S
C1123 C1131 1.433 . S
C1124 H1120 0.929 . S
C1124 C1126 1.378 . S
C1124 C1128 1.350 . S
C1125 C1128 1.463 . S
C1125 C1130 1.350 . S
C1125 N1133 1.427 . S
C1126 H1117 0.930 . S
C1126 C1124 1.378 . S
C1126 C1127 1.367 . S
C1127 C1126 1.367 . S
C1127 C1129 1.433 . S
C1128 C1124 1.350 . S
C1128 C1125 1.463 . S
C1128 N1132 1.427 . S
C1129 H1119 0.929 . S
C1129 C1127 1.433 . S
C1129 N1132 1.384 . S
C1130 H1121 0.929 . S
C1130 C1122 1.378 . S
C1130 C1125 1.350 . S
C1131 H1118 0.929 . S
C1131 C1123 1.433 . S
C1131 N1133 1.384 . S
N1132 C1128 1.427 . S
N1132 C1129 1.384 . S
N1133 C1125 1.427 . S
N1133 C1131 1.384 . S
H1134 C1140 0.930 . S
H1135 C1144 0.930 . S
H1136 C1149 0.929 . S
H1137 C1147 0.929 . S
H1138 C1142 0.929 . S
H1139 C1148 0.929 . S
C1140 H1134 0.930 . S
C1140 C1141 1.367 . S
C1140 C1148 1.378 . S
C1141 C1140 1.367 . S
C1141 C1149 1.433 . S
C1142 H1138 0.929 . S
C1142 C1144 1.378 . S
C1142 C1146 1.350 . S
C1143 C1146 1.463 . S
C1143 C1148 1.350 . S
C1143 N1151 1.427 . S
C1144 H1135 0.930 . S
C1144 C1142 1.378 . S
C1144 C1145 1.367 . S
C1145 C1144 1.367 . S
C1145 C1147 1.433 . S
C1146 C1142 1.350 . S
C1146 C1143 1.463 . S
C1146 N1150 1.427 . S
C1147 H1137 0.929 . S
C1147 C1145 1.433 . S
C1147 N1150 1.384 . S
C1148 H1139 0.929 . S
C1148 C1140 1.378 . S
C1148 C1143 1.350 . S
C1149 H1136 0.929 . S
C1149 C1141 1.433 . S
C1149 N1151 1.384 . S
N1150 C1146 1.427 . S
N1150 C1147 1.384 . S
N1151 C1143 1.427 . S
N1151 C1149 1.384 . S
H1152 C1158 0.930 . S
H1153 C1162 0.930 . S
H1154 C1167 0.929 . S
H1155 C1165 0.929 . S
H1156 C1160 0.929 . S
H1157 C1166 0.929 . S
C1158 H1152 0.930 . S
C1158 C1159 1.367 . S
C1158 C1166 1.378 . S
C1159 C1158 1.367 . S
C1159 C1167 1.433 . S
C1160 H1156 0.929 . S
C1160 C1162 1.378 . S
C1160 C1164 1.350 . S
C1161 C1164 1.463 . S
C1161 C1166 1.350 . S
C1161 N1169 1.427 . S
C1162 H1153 0.930 . S
C1162 C1160 1.378 . S
C1162 C1163 1.367 . S
C1163 C1162 1.367 . S
C1163 C1165 1.433 . S
C1164 C1160 1.350 . S
C1164 C1161 1.463 . S
C1164 N1168 1.427 . S
C1165 H1155 0.929 . S
C1165 C1163 1.433 . S
C1165 N1168 1.384 . S
C1166 H1157 0.929 . S
C1166 C1158 1.378 . S
C1166 C1161 1.350 . S
C1167 H1154 0.929 . S
C1167 C1159 1.433 . S
C1167 N1169 1.384 . S
N1168 C1164 1.427 . S
N1168 C1165 1.384 . S
N1169 C1161 1.427 . S
N1169 C1167 1.384 . S
H1170 C1176 0.930 . S
H1171 C1180 0.930 . S
H1172 C1185 0.929 . S
H1173 C1183 0.929 . S
H1174 C1178 0.929 . S
H1175 C1184 0.929 . S
C1176 H1170 0.930 . S
C1176 C1177 1.367 . S
C1176 C1184 1.378 . S
C1177 C1176 1.367 . S
C1177 C1185 1.433 . S
C1178 H1174 0.929 . S
C1178 C1180 1.378 . S
C1178 C1182 1.350 1_545 S
C1179 C1182 1.463 . S
C1179 C1184 1.350 . S
C1179 N1187 1.427 . S
C1180 H1171 0.930 . S
C1180 C1178 1.378 . S
C1180 C1181 1.367 1_545 S
C1181 C1180 1.367 1_565 S
C1181 C1183 1.433 . S
C1182 C1178 1.350 1_565 S
C1182 C1179 1.463 . S
C1182 N1186 1.427 . S
C1183 H1173 0.929 . S
C1183 C1181 1.433 . S
C1183 N1186 1.384 . S
C1184 H1175 0.929 . S
C1184 C1176 1.378 . S
C1184 C1179 1.350 . S
C1185 H1172 0.929 . S
C1185 C1177 1.433 . S
C1185 N1187 1.384 . S
N1186 C1182 1.427 . S
N1186 C1183 1.384 . S
N1187 C1179 1.427 . S
N1187 C1185 1.384 . S
H1188 C1194 0.930 . S
H1189 C1198 0.930 . S
H1190 C1203 0.929 . S
H1191 C1201 0.929 . S
H1192 C1196 0.929 . S
H1193 C1202 0.929 . S
C1194 H1188 0.930 . S
C1194 C1195 1.367 1_655 S
C1194 C1202 1.378 . S
C1195 C1194 1.367 1_455 S
C1195 C1203 1.433 . S
C1196 H1192 0.929 . S
C1196 C1198 1.378 . S
C1196 C1200 1.350 . S
C1197 C1200 1.463 . S
C1197 C1202 1.350 1_455 S
C1197 N1205 1.427 . S
C1198 H1189 0.930 . S
C1198 C1196 1.378 . S
C1198 C1199 1.367 . S
C1199 C1198 1.367 . S
C1199 C1201 1.433 1_455 S
C1200 C1196 1.350 . S
C1200 C1197 1.463 . S
C1200 N1204 1.427 1_455 S
C1201 H1191 0.929 . S
C1201 C1199 1.433 1_655 S
C1201 N1204 1.384 . S
C1202 H1193 0.929 . S
C1202 C1194 1.378 . S
C1202 C1197 1.350 1_655 S
C1203 H1190 0.929 . S
C1203 C1195 1.433 . S
C1203 N1205 1.384 . S
N1204 C1200 1.427 1_655 S
N1204 C1201 1.384 . S
N1205 C1197 1.427 . S
N1205 C1203 1.384 . S
H1206 C1212 0.930 . S
H1207 C1216 0.930 . S
H1208 C1221 0.929 . S
H1209 C1219 0.929 . S
H1210 C1214 0.929 . S
H1211 C1220 0.929 . S
C1212 H1206 0.930 . S
C1212 C1213 1.367 . S
C1212 C1220 1.378 . S
C1213 C1212 1.367 . S
C1213 C1221 1.433 . S
C1214 H1210 0.929 . S
C1214 C1216 1.378 . S
C1214 C1218 1.350 . S
C1215 C1218 1.463 . S
C1215 C1220 1.350 . S
C1215 N1223 1.427 . S
C1216 H1207 0.930 . S
C1216 C1214 1.378 . S
C1216 C1217 1.367 . S
C1217 C1216 1.367 . S
C1217 C1219 1.433 . S
C1218 C1214 1.350 . S
C1218 C1215 1.463 . S
C1218 N1222 1.427 . S
C1219 H1209 0.929 . S
C1219 C1217 1.433 . S
C1219 N1222 1.384 . S
C1220 H1211 0.929 . S
C1220 C1212 1.378 . S
C1220 C1215 1.350 . S
C1221 H1208 0.929 . S
C1221 C1213 1.433 . S
C1221 N1223 1.384 . S
N1222 C1218 1.427 . S
N1222 C1219 1.384 . S
N1223 C1215 1.427 . S
N1223 C1221 1.384 . S
H1224 C1230 0.930 . S
H1225 C1234 0.930 . S
H1226 C1239 0.929 . S
H1227 C1237 0.929 . S
H1228 C1232 0.929 . S
H1229 C1238 0.929 . S
C1230 H1224 0.930 . S
C1230 C1231 1.367 . S
C1230 C1238 1.378 . S
C1231 C1230 1.367 . S
C1231 C1239 1.433 . S
C1232 H1228 0.929 . S
C1232 C1234 1.378 . S
C1232 C1236 1.350 . S
C1233 C1236 1.463 . S
C1233 C1238 1.350 . S
C1233 N1241 1.427 . S
C1234 H1225 0.930 . S
C1234 C1232 1.378 . S
C1234 C1235 1.367 . S
C1235 C1234 1.367 . S
C1235 C1237 1.433 . S
C1236 C1232 1.350 . S
C1236 C1233 1.463 . S
C1236 N1240 1.427 . S
C1237 H1227 0.929 . S
C1237 C1235 1.433 . S
C1237 N1240 1.384 . S
C1238 H1229 0.929 . S
C1238 C1230 1.378 . S
C1238 C1233 1.350 . S
C1239 H1226 0.929 . S
C1239 C1231 1.433 . S
C1239 N1241 1.384 . S
N1240 C1236 1.427 . S
N1240 C1237 1.384 . S
N1241 C1233 1.427 . S
N1241 C1239 1.384 . S
H1242 C1248 0.930 . S
H1243 C1252 0.930 . S
H1244 C1257 0.929 . S
H1245 C1255 0.929 . S
H1246 C1250 0.929 . S
H1247 C1256 0.929 . S
C1248 H1242 0.930 . S
C1248 C1249 1.367 . S
C1248 C1256 1.378 . S
C1249 C1248 1.367 . S
C1249 C1257 1.433 . S
C1250 H1246 0.929 . S
C1250 C1252 1.378 . S
C1250 C1254 1.350 . S
C1251 C1254 1.463 . S
C1251 C1256 1.350 . S
C1251 N1259 1.427 . S
C1252 H1243 0.930 . S
C1252 C1250 1.378 . S
C1252 C1253 1.367 . S
C1253 C1252 1.367 . S
C1253 C1255 1.433 . S
C1254 C1250 1.350 . S
C1254 C1251 1.463 . S
C1254 N1258 1.427 . S
C1255 H1245 0.929 . S
C1255 C1253 1.433 . S
C1255 N1258 1.384 . S
C1256 H1247 0.929 . S
C1256 C1248 1.378 . S
C1256 C1251 1.350 . S
C1257 H1244 0.929 . S
C1257 C1249 1.433 . S
C1257 N1259 1.384 . S
N1258 C1254 1.427 . S
N1258 C1255 1.384 . S
N1259 C1251 1.427 . S
N1259 C1257 1.384 . S
H1260 C1266 0.930 . S
H1261 C1270 0.930 . S
H1262 C1275 0.929 . S
H1263 C1273 0.929 . S
H1264 C1268 0.929 . S
H1265 C1274 0.929 . S
C1266 H1260 0.930 . S
C1266 C1267 1.367 . S
C1266 C1274 1.378 . S
C1267 C1266 1.367 . S
C1267 C1275 1.433 . S
C1268 H1264 0.929 . S
C1268 C1270 1.378 . S
C1268 C1272 1.350 . S
C1269 C1272 1.463 . S
C1269 C1274 1.350 . S
C1269 N1277 1.427 . S
C1270 H1261 0.930 . S
C1270 C1268 1.378 . S
C1270 C1271 1.367 . S
C1271 C1270 1.367 . S
C1271 C1273 1.433 1_545 S
C1272 C1268 1.350 . S
C1272 C1269 1.463 . S
C1272 N1276 1.427 . S
C1273 H1263 0.929 . S
C1273 C1271 1.433 1_565 S
C1273 N1276 1.384 1_565 S
C1274 H1265 0.929 . S
C1274 C1266 1.378 . S
C1274 C1269 1.350 . S
C1275 H1262 0.929 . S
C1275 C1267 1.433 . S
C1275 N1277 1.384 . S
N1276 C1272 1.427 . S
N1276 C1273 1.384 1_545 S
N1277 C1269 1.427 . S
N1277 C1275 1.384 . S
H1278 C1284 0.930 . S
H1279 C1288 0.930 . S
H1280 C1293 0.929 . S
H1281 C1291 0.929 . S
H1282 C1286 0.929 . S
H1283 C1292 0.929 . S
C1284 H1278 0.930 . S
C1284 C1285 1.367 . S
C1284 C1292 1.378 . S
C1285 C1284 1.367 . S
C1285 C1293 1.433 . S
C1286 H1282 0.929 . S
C1286 C1288 1.378 . S
C1286 C1290 1.350 . S
C1287 C1290 1.463 . S
C1287 C1292 1.350 . S
C1287 N1295 1.427 . S
C1288 H1279 0.930 . S
C1288 C1286 1.378 . S
C1288 C1289 1.367 . S
C1289 C1288 1.367 . S
C1289 C1291 1.433 . S
C1290 C1286 1.350 . S
C1290 C1287 1.463 . S
C1290 N1294 1.427 . S
C1291 H1281 0.929 . S
C1291 C1289 1.433 . S
C1291 N1294 1.384 . S
C1292 H1283 0.929 . S
C1292 C1284 1.378 . S
C1292 C1287 1.350 . S
C1293 H1280 0.929 . S
C1293 C1285 1.433 . S
C1293 N1295 1.384 . S
N1294 C1290 1.427 . S
N1294 C1291 1.384 . S
N1295 C1287 1.427 . S
N1295 C1293 1.384 . S
H1296 C1302 0.930 . S
H1297 C1306 0.930 . S
H1298 C1311 0.929 . S
H1299 C1309 0.929 . S
H1300 C1304 0.929 . S
H1301 C1310 0.929 . S
C1302 H1296 0.930 . S
C1302 C1303 1.367 . S
C1302 C1310 1.378 . S
C1303 C1302 1.367 . S
C1303 C1311 1.433 . S
C1304 H1300 0.929 . S
C1304 C1306 1.378 . S
C1304 C1308 1.350 . S
C1305 C1308 1.463 . S
C1305 C1310 1.350 . S
C1305 N1313 1.427 . S
C1306 H1297 0.930 . S
C1306 C1304 1.378 . S
C1306 C1307 1.367 . S
C1307 C1306 1.367 . S
C1307 C1309 1.433 . S
C1308 C1304 1.350 . S
C1308 C1305 1.463 . S
C1308 N1312 1.427 . S
C1309 H1299 0.929 . S
C1309 C1307 1.433 . S
C1309 N1312 1.384 . S
C1310 H1301 0.929 . S
C1310 C1302 1.378 . S
C1310 C1305 1.350 . S
C1311 H1298 0.929 . S
C1311 C1303 1.433 . S
C1311 N1313 1.384 . S
N1312 C1308 1.427 . S
N1312 C1309 1.384 . S
N1313 C1305 1.427 . S
N1313 C1311 1.384 . S
H1314 C1320 0.930 . S
H1315 C1324 0.930 . S
H1316 C1329 0.929 . S
H1317 C1327 0.929 . S
H1318 C1322 0.929 . S
H1319 C1328 0.929 . S
C1320 H1314 0.930 . S
C1320 C1321 1.367 . S
C1320 C1328 1.378 . S
C1321 C1320 1.367 . S
C1321 C1329 1.433 . S
C1322 H1318 0.929 . S
C1322 C1324 1.378 . S
C1322 C1326 1.350 . S
C1323 C1326 1.463 . S
C1323 C1328 1.350 . S
C1323 N1331 1.427 . S
C1324 H1315 0.930 . S
C1324 C1322 1.378 . S
C1324 C1325 1.367 . S
C1325 C1324 1.367 . S
C1325 C1327 1.433 . S
C1326 C1322 1.350 . S
C1326 C1323 1.463 . S
C1326 N1330 1.427 . S
C1327 H1317 0.929 . S
C1327 C1325 1.433 . S
C1327 N1330 1.384 . S
C1328 H1319 0.929 . S
C1328 C1320 1.378 . S
C1328 C1323 1.350 . S
C1329 H1316 0.929 . S
C1329 C1321 1.433 . S
C1329 N1331 1.384 . S
N1330 C1326 1.427 . S
N1330 C1327 1.384 . S
N1331 C1323 1.427 . S
N1331 C1329 1.384 . S
H1332 C1338 0.930 . S
H1333 C1342 0.930 . S
H1334 C1347 0.929 . S
H1335 C1345 0.929 . S
H1336 C1340 0.929 . S
H1337 C1346 0.929 . S
C1338 H1332 0.930 . S
C1338 C1339 1.367 . S
C1338 C1346 1.378 . S
C1339 C1338 1.367 . S
C1339 C1347 1.433 . S
C1340 H1336 0.929 . S
C1340 C1342 1.378 . S
C1340 C1344 1.350 . S
C1341 C1344 1.463 . S
C1341 C1346 1.350 . S
C1341 N1349 1.427 . S
C1342 H1333 0.930 . S
C1342 C1340 1.378 . S
C1342 C1343 1.367 . S
C1343 C1342 1.367 . S
C1343 C1345 1.433 . S
C1344 C1340 1.350 . S
C1344 C1341 1.463 . S
C1344 N1348 1.427 . S
C1345 H1335 0.929 . S
C1345 C1343 1.433 . S
C1345 N1348 1.384 . S
C1346 H1337 0.929 . S
C1346 C1338 1.378 . S
C1346 C1341 1.350 . S
C1347 H1334 0.929 . S
C1347 C1339 1.433 . S
C1347 N1349 1.384 . S
N1348 C1344 1.427 . S
N1348 C1345 1.384 . S
N1349 C1341 1.427 . S
N1349 C1347 1.384 . S
H1350 C1356 0.930 . S
H1351 C1360 0.930 . S
H1352 C1365 0.929 . S
H1353 C1363 0.929 . S
H1354 C1358 0.929 . S
H1355 C1364 0.929 . S
C1356 H1350 0.930 . S
C1356 C1357 1.367 . S
C1356 C1364 1.378 . S
C1357 C1356 1.367 . S
C1357 C1365 1.433 . S
C1358 H1354 0.929 . S
C1358 C1360 1.378 . S
C1358 C1362 1.350 . S
C1359 C1362 1.463 . S
C1359 C1364 1.350 . S
C1359 N1367 1.427 . S
C1360 H1351 0.930 . S
C1360 C1358 1.378 . S
C1360 C1361 1.367 . S
C1361 C1360 1.367 . S
C1361 C1363 1.433 . S
C1362 C1358 1.350 . S
C1362 C1359 1.463 . S
C1362 N1366 1.427 . S
C1363 H1353 0.929 . S
C1363 C1361 1.433 . S
C1363 N1366 1.384 . S
C1364 H1355 0.929 . S
C1364 C1356 1.378 . S
C1364 C1359 1.350 . S
C1365 H1352 0.929 . S
C1365 C1357 1.433 . S
C1365 N1367 1.384 . S
N1366 C1362 1.427 . S
N1366 C1363 1.384 . S
N1367 C1359 1.427 . S
N1367 C1365 1.384 . S
H1368 C1374 0.930 . S
H1369 C1378 0.930 . S
H1370 C1383 0.929 . S
H1371 C1381 0.929 . S
H1372 C1376 0.929 . S
H1373 C1382 0.929 . S
C1374 H1368 0.930 . S
C1374 C1375 1.367 . S
C1374 C1382 1.378 . S
C1375 C1374 1.367 . S
C1375 C1383 1.433 . S
C1376 H1372 0.929 . S
C1376 C1378 1.378 . S
C1376 C1380 1.350 . S
C1377 C1380 1.463 . S
C1377 C1382 1.350 . S
C1377 N1385 1.427 . S
C1378 H1369 0.930 . S
C1378 C1376 1.378 . S
C1378 C1379 1.367 . S
C1379 C1378 1.367 . S
C1379 C1381 1.433 . S
C1380 C1376 1.350 . S
C1380 C1377 1.463 . S
C1380 N1384 1.427 . S
C1381 H1371 0.929 . S
C1381 C1379 1.433 . S
C1381 N1384 1.384 . S
C1382 H1373 0.929 . S
C1382 C1374 1.378 . S
C1382 C1377 1.350 . S
C1383 H1370 0.929 . S
C1383 C1375 1.433 . S
C1383 N1385 1.384 . S
N1384 C1380 1.427 . S
N1384 C1381 1.384 . S
N1385 C1377 1.427 . S
N1385 C1383 1.384 . S
H1386 C1392 0.930 . S
H1387 C1396 0.930 . S
H1388 C1401 0.929 . S
H1389 C1399 0.929 . S
H1390 C1394 0.929 . S
H1391 C1400 0.929 . S
C1392 H1386 0.930 . S
C1392 C1393 1.367 . S
C1392 C1400 1.378 . S
C1393 C1392 1.367 . S
C1393 C1401 1.433 . S
C1394 H1390 0.929 . S
C1394 C1396 1.378 . S
C1394 C1398 1.350 . S
C1395 C1398 1.463 . S
C1395 C1400 1.350 . S
C1395 N1403 1.427 . S
C1396 H1387 0.930 . S
C1396 C1394 1.378 . S
C1396 C1397 1.367 . S
C1397 C1396 1.367 . S
C1397 C1399 1.433 . S
C1398 C1394 1.350 . S
C1398 C1395 1.463 . S
C1398 N1402 1.427 . S
C1399 H1389 0.929 . S
C1399 C1397 1.433 . S
C1399 N1402 1.384 . S
C1400 H1391 0.929 . S
C1400 C1392 1.378 . S
C1400 C1395 1.350 . S
C1401 H1388 0.929 . S
C1401 C1393 1.433 . S
C1401 N1403 1.384 . S
N1402 C1398 1.427 . S
N1402 C1399 1.384 . S
N1403 C1395 1.427 . S
N1403 C1401 1.384 . S
H1404 C1410 0.930 . S
H1405 C1414 0.930 . S
H1406 C1419 0.929 . S
H1407 C1417 0.929 . S
H1408 C1412 0.929 . S
H1409 C1418 0.929 . S
C1410 H1404 0.930 . S
C1410 C1411 1.367 . S
C1410 C1418 1.378 . S
C1411 C1410 1.367 . S
C1411 C1419 1.433 . S
C1412 H1408 0.929 . S
C1412 C1414 1.378 . S
C1412 C1416 1.350 . S
C1413 C1416 1.463 . S
C1413 C1418 1.350 . S
C1413 N1421 1.427 . S
C1414 H1405 0.930 . S
C1414 C1412 1.378 . S
C1414 C1415 1.367 . S
C1415 C1414 1.367 . S
C1415 C1417 1.433 . S
C1416 C1412 1.350 . S
C1416 C1413 1.463 . S
C1416 N1420 1.427 . S
C1417 H1407 0.929 . S
C1417 C1415 1.433 . S
C1417 N1420 1.384 . S
C1418 H1409 0.929 . S
C1418 C1410 1.378 . S
C1418 C1413 1.350 . S
C1419 H1406 0.929 . S
C1419 C1411 1.433 . S
C1419 N1421 1.384 . S
N1420 C1416 1.427 . S
N1420 C1417 1.384 . S
N1421 C1413 1.427 . S
N1421 C1419 1.384 . S
H1422 C1428 0.930 . S
H1423 C1432 0.930 . S
H1424 C1437 0.929 . S
H1425 C1435 0.929 . S
H1426 C1430 0.929 . S
H1427 C1436 0.929 . S
C1428 H1422 0.930 . S
C1428 C1429 1.367 . S
C1428 C1436 1.378 . S
C1429 C1428 1.367 . S
C1429 C1437 1.433 . S
C1430 H1426 0.929 . S
C1430 C1432 1.378 . S
C1430 C1434 1.350 . S
C1431 C1434 1.463 . S
C1431 C1436 1.350 . S
C1431 N1439 1.427 . S
C1432 H1423 0.930 . S
C1432 C1430 1.378 . S
C1432 C1433 1.367 . S
C1433 C1432 1.367 . S
C1433 C1435 1.433 . S
C1434 C1430 1.350 . S
C1434 C1431 1.463 . S
C1434 N1438 1.427 . S
C1435 H1425 0.929 . S
C1435 C1433 1.433 . S
C1435 N1438 1.384 . S
C1436 H1427 0.929 . S
C1436 C1428 1.378 . S
C1436 C1431 1.350 . S
C1437 H1424 0.929 . S
C1437 C1429 1.433 . S
C1437 N1439 1.384 . S
N1438 C1434 1.427 . S
N1438 C1435 1.384 . S
N1439 C1431 1.427 . S
N1439 C1437 1.384 . S
H1440 C1446 0.930 . S
H1441 C1450 0.930 . S
H1442 C1455 0.929 . S
H1443 C1453 0.929 . S
H1444 C1448 0.929 . S
H1445 C1454 0.929 . S
C1446 H1440 0.930 . S
C1446 C1447 1.367 . S
C1446 C1454 1.378 . S
C1447 C1446 1.367 . S
C1447 C1455 1.433 . S
C1448 H1444 0.929 . S
C1448 C1450 1.378 . S
C1448 C1452 1.350 . S
C1449 C1452 1.463 . S
C1449 C1454 1.350 . S
C1449 N1457 1.427 . S
C1450 H1441 0.930 . S
C1450 C1448 1.378 . S
C1450 C1451 1.367 . S
C1451 C1450 1.367 . S
C1451 C1453 1.433 . S
C1452 C1448 1.350 . S
C1452 C1449 1.463 . S
C1452 N1456 1.427 . S
C1453 H1443 0.929 . S
C1453 C1451 1.433 . S
C1453 N1456 1.384 . S
C1454 H1445 0.929 . S
C1454 C1446 1.378 . S
C1454 C1449 1.350 . S
C1455 H1442 0.929 . S
C1455 C1447 1.433 . S
C1455 N1457 1.384 . S
N1456 C1452 1.427 . S
N1456 C1453 1.384 . S
N1457 C1449 1.427 . S
N1457 C1455 1.384 . S
H1458 C1464 0.930 . S
H1459 C1468 0.930 . S
H1460 C1473 0.929 . S
H1461 C1471 0.929 . S
H1462 C1466 0.929 . S
H1463 C1472 0.929 . S
C1464 H1458 0.930 . S
C1464 C1465 1.367 . S
C1464 C1472 1.378 . S
C1465 C1464 1.367 . S
C1465 C1473 1.433 . S
C1466 H1462 0.929 . S
C1466 C1468 1.378 . S
C1466 C1470 1.350 . S
C1467 C1470 1.463 . S
C1467 C1472 1.350 . S
C1467 N1475 1.427 . S
C1468 H1459 0.930 . S
C1468 C1466 1.378 . S
C1468 C1469 1.367 . S
C1469 C1468 1.367 . S
C1469 C1471 1.433 . S
C1470 C1466 1.350 . S
C1470 C1467 1.463 . S
C1470 N1474 1.427 . S
C1471 H1461 0.929 . S
C1471 C1469 1.433 . S
C1471 N1474 1.384 . S
C1472 H1463 0.929 . S
C1472 C1464 1.378 . S
C1472 C1467 1.350 . S
C1473 H1460 0.929 . S
C1473 C1465 1.433 . S
C1473 N1475 1.384 . S
N1474 C1470 1.427 . S
N1474 C1471 1.384 . S
N1475 C1467 1.427 . S
N1475 C1473 1.384 . S
H1476 C1482 0.930 . S
H1477 C1486 0.930 . S
H1478 C1491 0.929 . S
H1479 C1489 0.929 . S
H1480 C1484 0.929 . S
H1481 C1490 0.929 . S
C1482 H1476 0.930 . S
C1482 C1483 1.367 . S
C1482 C1490 1.378 . S
C1483 C1482 1.367 . S
C1483 C1491 1.433 . S
C1484 H1480 0.929 . S
C1484 C1486 1.378 . S
C1484 C1488 1.350 . S
C1485 C1488 1.463 . S
C1485 C1490 1.350 . S
C1485 N1493 1.427 . S
C1486 H1477 0.930 . S
C1486 C1484 1.378 . S
C1486 C1487 1.367 . S
C1487 C1486 1.367 . S
C1487 C1489 1.433 . S
C1488 C1484 1.350 . S
C1488 C1485 1.463 . S
C1488 N1492 1.427 . S
C1489 H1479 0.929 . S
C1489 C1487 1.433 . S
C1489 N1492 1.384 . S
C1490 H1481 0.929 . S
C1490 C1482 1.378 . S
C1490 C1485 1.350 . S
C1491 H1478 0.929 . S
C1491 C1483 1.433 . S
C1491 N1493 1.384 . S
N1492 C1488 1.427 . S
N1492 C1489 1.384 . S
N1493 C1485 1.427 . S
N1493 C1491 1.384 . S
C529 C124 1.556 . S
C533 C174 1.569 . S
C547 C130 1.717 . S
C551 C214 1.722 . S
C565 C115 1.571 . S
C569 C244 1.576 . S
C583 C106 1.474 . S
C587 C204 1.467 . S
C605 C254 1.458 . S
C601 C85 1.450 . S
C619 C97 1.304 . S
C623 C164 1.341 . S
C641 C193 1.591 . S
C637 C103 1.576 . S
C659 C233 1.703 . S
C655 C88 1.696 . S
C673 C94 1.573 . S
C677 C259 1.573 . S
C691 C121 1.477 . S
C695 C219 1.464 . S
C709 C133 1.425 . S
C713 C273 1.433 . S
C731 C179 1.338 . S
C727 C112 1.326 . S
C749 C294 1.572 . S
C745 C16 1.561 . S
C763 C22 1.722 . S
C767 C334 1.726 . S
C781 C7 1.574 . S
C785 C364 1.575 . S
C799 C160 1.473 . S
C803 C324 1.467 . S
C817 C139 1.444 . S
C821 C374 1.455 . S
C835 C151 1.305 . S
C839 C284 1.316 . S
C853 C157 1.579 . S
C857 C313 1.593 . S
C871 C142 1.696 . S
C875 C353 1.701 . S
C893 C379 1.565 . S
C889 C148 1.567 . S
C907 C13 1.474 . S
C911 C339 1.464 . S
C929 C393 1.434 . S
C925 C25 1.428 . S
C943 C4 1.326 . S
C947 C299 1.339 . S
C965 C414 1.569 . S
C961 C70 1.556 . S
C979 C76 1.720 . S
C983 C454 1.723 . S
C1001 C484 1.575 . S
C997 C61 1.574 . S
C1019 C444 1.471 . S
C1015 C52 1.481 . S
C1037 C494 1.458 . S
C1033 C31 1.450 . S
C1051 C43 1.307 . S
C1055 C404 1.316 . S
C1069 C49 1.584 . S
C1073 C433 1.596 . S
C1087 C34 1.693 . S
C1091 C473 1.702 . S
C1109 C499 1.565 . S
C1105 C40 1.568 . S
C1123 C67 1.477 . S
C1127 C459 1.474 . S
C1141 C79 1.427 . S
C1145 C513 1.434 . S
C1159 C58 1.336 . S
C1163 C419 1.341 . S
C1177 C140 1.401 . S
C1181 C191 1.386 . S
C1199 C231 1.723 . S
C1195 C149 1.738 . S
C1213 C158 1.546 . S
C1217 C250 1.546 . S
C1231 C59 1.754 . S
C1235 C210 1.741 . S
C1249 C68 1.526 . S
C1253 C271 1.524 . S
C1271 C170 1.383 . S
C1267 C77 1.400 . S
C1285 C32 1.401 . S
C1289 C311 1.385 . S
C1303 C41 1.736 . S
C1307 C351 1.720 . S
C1321 C50 1.545 . S
C1325 C370 1.544 . S
C1339 C113 1.754 . S
C1343 C330 1.735 . S
C1361 C391 1.523 . S
C1357 C122 1.526 . S
C1375 C131 1.400 . S
C1379 C290 1.383 . S
C1393 C86 1.402 . S
C1397 C431 1.384 . S
C1411 C95 1.737 . S
C1415 C471 1.725 . S
C1433 C490 1.546 . S
C1429 C104 1.546 . S
C1447 C5 1.755 . S
C1451 C450 1.736 . S
C1465 C14 1.529 . S
C1469 C511 1.524 . S
C1483 C23 1.400 . S
C1487 C410 1.386 . S
