# Generated by pormake.
# Topology cml, (3,6)-cn, num edge types: 1
# Building blocks:
#     Node 0, Type 0, BuildingBlock: KAKCAD_clean_linker_0, # of connection points: 3
#     Node 1, Type 0, BuildingBlock: KAKCAD_clean_linker_0, # of connection points: 3
#     Node 2, Type 0, BuildingBlock: KAKCAD_clean_linker_0, # of connection points: 3
#     Node 3, Type 0, BuildingBlock: KAKCAD_clean_linker_0, # of connection points: 3
#     Node 4, Type 0, BuildingBlock: KAKCAD_clean_linker_0, # of connection points: 3
#     Node 5, Type 0, BuildingBlock: KAKCAD_clean_linker_0, # of connection points: 3
#     Node 6, Type 0, BuildingBlock: KAKCAD_clean_linker_0, # of connection points: 3
#     Node 7, Type 0, BuildingBlock: KAKCAD_clean_linker_0, # of connection points: 3
#     Node 8, Type 1, BuildingBlock: OJICUG_clean_sbu_0, # of connection points: 6
#     Node 9, Type 1, BuildingBlock: OJICUG_clean_sbu_0, # of connection points: 6
#     Node 10, Type 1, BuildingBlock: OJICUG_clean_sbu_0, # of connection points: 6
#     Node 11, Type 1, BuildingBlock: OJICUG_clean_sbu_0, # of connection points: 6
#     Edge 12, Type (0, 1), BuildingBlock: CIFDUS_clean_linker_0, # of connection points: 2
#     Edge 13, Type (0, 1), BuildingBlock: CIFDUS_clean_linker_0, # of connection points: 2
#     Edge 14, Type (0, 1), BuildingBlock: CIFDUS_clean_linker_0, # of connection points: 2
#     Edge 15, Type (0, 1), BuildingBlock: CIFDUS_clean_linker_0, # of connection points: 2
#     Edge 16, Type (0, 1), BuildingBlock: CIFDUS_clean_linker_0, # of connection points: 2
#     Edge 17, Type (0, 1), BuildingBlock: CIFDUS_clean_linker_0, # of connection points: 2
#     Edge 18, Type (0, 1), BuildingBlock: CIFDUS_clean_linker_0, # of connection points: 2
#     Edge 19, Type (0, 1), BuildingBlock: CIFDUS_clean_linker_0, # of connection points: 2
#     Edge 20, Type (0, 1), BuildingBlock: CIFDUS_clean_linker_0, # of connection points: 2
#     Edge 21, Type (0, 1), BuildingBlock: CIFDUS_clean_linker_0, # of connection points: 2
#     Edge 22, Type (0, 1), BuildingBlock: CIFDUS_clean_linker_0, # of connection points: 2
#     Edge 23, Type (0, 1), BuildingBlock: CIFDUS_clean_linker_0, # of connection points: 2
#     Edge 24, Type (0, 1), BuildingBlock: CIFDUS_clean_linker_0, # of connection points: 2
#     Edge 25, Type (0, 1), BuildingBlock: CIFDUS_clean_linker_0, # of connection points: 2
#     Edge 26, Type (0, 1), BuildingBlock: CIFDUS_clean_linker_0, # of connection points: 2
#     Edge 27, Type (0, 1), BuildingBlock: CIFDUS_clean_linker_0, # of connection points: 2
#     Edge 28, Type (0, 1), BuildingBlock: CIFDUS_clean_linker_0, # of connection points: 2
#     Edge 29, Type (0, 1), BuildingBlock: CIFDUS_clean_linker_0, # of connection points: 2
#     Edge 30, Type (0, 1), BuildingBlock: CIFDUS_clean_linker_0, # of connection points: 2
#     Edge 31, Type (0, 1), BuildingBlock: CIFDUS_clean_linker_0, # of connection points: 2
#     Edge 32, Type (0, 1), BuildingBlock: CIFDUS_clean_linker_0, # of connection points: 2
#     Edge 33, Type (0, 1), BuildingBlock: CIFDUS_clean_linker_0, # of connection points: 2
#     Edge 34, Type (0, 1), BuildingBlock: CIFDUS_clean_linker_0, # of connection points: 2
#     Edge 35, Type (0, 1), BuildingBlock: CIFDUS_clean_linker_0, # of connection points: 2
# Relax obj value: 0.072
# Max RMSD: 0.084
# Mean RMSD: 0.080
data_MOF--net-cml--node1-OJICUG_clean_sbu_0--node2-KAKCAD_clean_linker_0--edge1-CIFDUS_clean_linker_0
_symmetry_space_group_name_H-M    P1
_symmetry_Int_Tables_number       1
_symmetry_cell_setting            triclinic
loop_
_symmetry_equiv_pos_as_xyz
'x, y, z'
_cell_length_a     42.967758
_cell_length_b     43.147104
_cell_length_c     40.898416
_cell_angle_alpha  89.974161
_cell_angle_beta   90.026768
_cell_angle_gamma 90.034128
loop_
_atom_site_label
_atom_site_type_symbol
_atom_site_fract_x
_atom_site_fract_y
_atom_site_fract_z
_atom_type_partial_charge
C0 C 0.29144 0.51753 0.95425 0.0
C1 C 0.32257 0.5131 0.94474 0.0
C2 C 0.27502 0.49361 0.96971 0.0
C3 C 0.28976 0.46527 0.97636 0.0
C4 C 0.3206 0.4607 0.96628 0.0
C5 C 0.33679 0.4843 0.95046 0.0
C6 C 0.27421 0.44117 0.99601 0.0
C7 C 0.24703 0.42652 0.9849 0.0
C8 C 0.23404 0.40176 0.00275 0.0
C9 C 0.2478 0.39299 0.03261 0.0
C10 C 0.27517 0.40723 0.04353 0.0
C11 C 0.28821 0.4313 0.02514 0.0
C12 C 0.29149 0.39552 0.07284 0.0
C13 C 0.27565 0.3916 0.10258 0.0
C14 C 0.32323 0.38807 0.071 0.0
C15 C 0.339 0.3772 0.09848 0.0
C16 C 0.32341 0.37387 0.12844 0.0
C17 C 0.20798 0.38314 0.98912 0.0
C18 C 0.18311 0.39715 0.97228 0.0
C19 C 0.20829 0.3507 0.99246 0.0
C20 C 0.18408 0.33277 0.9801 0.0
C21 C 0.15906 0.34672 0.96371 0.0
C22 C 0.15889 0.37905 0.95955 0.0
C23 C 0.29158 0.38112 0.13029 0.0
H24 H 0.27999 0.53952 0.95 0.0
H25 H 0.25125 0.49757 0.9775 0.0
H26 H 0.33236 0.43899 0.97124 0.0
H27 H 0.36084 0.48038 0.9437 0.0
H28 H 0.23716 0.43325 0.96156 0.0
H29 H 0.30948 0.44235 0.03345 0.0
H30 H 0.23795 0.37417 0.0468 0.0
H31 H 0.25115 0.39721 0.10452 0.0
H32 H 0.33585 0.39059 0.04822 0.0
H33 H 0.36362 0.3721 0.09651 0.0
H34 H 0.18214 0.42207 0.96935 0.0
H35 H 0.22752 0.33898 0.00431 0.0
H36 H 0.27907 0.37869 0.15314 0.0
H37 H 0.13979 0.39031 0.947 0.0
H38 H 0.18512 0.30783 0.983 0.0
C39 C 0.6825 0.50173 0.4289 0.0
C40 C 0.65026 0.49777 0.4325 0.0
C41 C 0.69788 0.52557 0.44557 0.0
C42 C 0.68118 0.54612 0.46574 0.0
C43 C 0.64872 0.54254 0.46835 0.0
C44 C 0.63351 0.5185 0.45216 0.0
C45 C 0.69733 0.57095 0.48445 0.0
C46 C 0.72239 0.58744 0.47072 0.0
C47 C 0.73689 0.61155 0.48817 0.0
C48 C 0.72638 0.61881 0.51978 0.0
C49 C 0.70118 0.60295 0.5335 0.0
C50 C 0.68702 0.57891 0.51597 0.0
C51 C 0.68821 0.61285 0.56524 0.0
C52 C 0.70708 0.61467 0.59322 0.0
C53 C 0.65666 0.62091 0.56742 0.0
C54 C 0.64409 0.63058 0.59712 0.0
C55 C 0.66273 0.6319 0.62528 0.0
C56 C 0.76203 0.63021 0.47304 0.0
C57 C 0.78608 0.61602 0.45519 0.0
C58 C 0.76229 0.66258 0.47685 0.0
C59 C 0.78654 0.68026 0.46408 0.0
C60 C 0.81103 0.66605 0.44705 0.0
C61 C 0.81037 0.6338 0.44226 0.0
C62 C 0.69431 0.62378 0.62318 0.0
H63 H 0.69586 0.48593 0.41387 0.0
H64 H 0.72291 0.52746 0.4432 0.0
H65 H 0.63492 0.55841 0.48283 0.0
H66 H 0.60852 0.51622 0.45481 0.0
H67 H 0.72982 0.58241 0.44598 0.0
H68 H 0.66794 0.56634 0.52716 0.0
H69 H 0.73729 0.63737 0.53349 0.0
H70 H 0.7315 0.60854 0.59199 0.0
H71 H 0.64177 0.6199 0.54606 0.0
H72 H 0.61958 0.63638 0.59825 0.0
H73 H 0.78654 0.5911 0.45198 0.0
H74 H 0.7437 0.6743 0.48974 0.0
H75 H 0.70906 0.62457 0.64466 0.0
H76 H 0.82908 0.62226 0.42937 0.0
H77 H 0.78614 0.70515 0.46756 0.0
C78 C 0.68241 0.47731 0.91659 0.0
C79 C 0.66668 0.50131 0.93304 0.0
C80 C 0.69858 0.45456 0.93404 0.0
C81 C 0.70001 0.45556 0.96838 0.0
C82 C 0.68646 0.48095 0.98458 0.0
C83 C 0.66969 0.50325 0.96724 0.0
C84 C 0.71276 0.42888 0.98733 0.0
C85 C 0.73796 0.41127 0.97558 0.0
C86 C 0.74771 0.38412 0.9919 0.0
C87 C 0.73215 0.37518 0.02072 0.0
C88 C 0.70811 0.39333 0.0335 0.0
C89 C 0.69831 0.41977 0.0166 0.0
C90 C 0.69269 0.38487 0.06449 0.0
C91 C 0.678 0.35604 0.06818 0.0
C92 C 0.69102 0.40662 0.08988 0.0
C93 C 0.67396 0.40016 0.11805 0.0
C94 C 0.65766 0.37202 0.12117 0.0
C95 C 0.77392 0.36503 0.97894 0.0
C96 C 0.77917 0.36238 0.94509 0.0
C97 C 0.79375 0.3489 0.0004 0.0
C98 C 0.81763 0.33021 0.98841 0.0
C99 C 0.82312 0.32776 0.95459 0.0
C100 C 0.80364 0.34432 0.93311 0.0
C101 C 0.66045 0.34971 0.09621 0.0
H102 H 0.68148 0.47545 0.89021 0.0
H103 H 0.70865 0.43543 0.92059 0.0
H104 H 0.68781 0.48309 0.01092 0.0
H105 H 0.65791 0.52114 0.98102 0.0
H106 H 0.75013 0.41893 0.95387 0.0
H107 H 0.67849 0.43255 0.0259 0.0
H108 H 0.73863 0.35414 0.03346 0.0
H109 H 0.67895 0.33899 0.04876 0.0
H110 H 0.70255 0.42887 0.08766 0.0
H111 H 0.67302 0.41754 0.13711 0.0
H112 H 0.76422 0.37398 0.92765 0.0
H113 H 0.79104 0.35072 0.02663 0.0
H114 H 0.64801 0.32793 0.09763 0.0
H115 H 0.80732 0.34361 0.90695 0.0
H116 H 0.8316 0.31748 0.00587 0.0
C117 C 0.30131 0.62062 0.62547 0.0
C118 C 0.33249 0.63039 0.62419 0.0
C119 C 0.2857 0.61208 0.59683 0.0
C120 C 0.30131 0.61257 0.56669 0.0
C121 C 0.33229 0.62281 0.56538 0.0
C122 C 0.34767 0.63188 0.59384 0.0
C123 C 0.28591 0.60133 0.5367 0.0
C124 C 0.25794 0.61459 0.52597 0.0
C125 C 0.24454 0.60531 0.49616 0.0
C126 C 0.25867 0.58154 0.47795 0.0
C127 C 0.28658 0.56811 0.48862 0.0
C128 C 0.30017 0.57824 0.51787 0.0
C129 C 0.30267 0.54481 0.46836 0.0
C130 C 0.28735 0.51767 0.45831 0.0
C131 C 0.33379 0.5496 0.45932 0.0
C132 C 0.34944 0.52761 0.44059 0.0
C133 C 0.33439 0.5002 0.43097 0.0
C134 C 0.2176 0.62246 0.48262 0.0
C135 C 0.19237 0.63072 0.50261 0.0
C136 C 0.21796 0.63237 0.4499 0.0
C137 C 0.19398 0.65077 0.43761 0.0
C138 C 0.16899 0.65958 0.45771 0.0
C139 C 0.16824 0.64901 0.49025 0.0
C140 C 0.30324 0.49531 0.44002 0.0
H141 H 0.28917 0.61933 0.64864 0.0
H142 H 0.26181 0.60419 0.59832 0.0
H143 H 0.34468 0.62352 0.54232 0.0
H144 H 0.3718 0.63904 0.59228 0.0
H145 H 0.24762 0.63331 0.53992 0.0
H146 H 0.32189 0.56804 0.52607 0.0
H147 H 0.24855 0.5742 0.45493 0.0
H148 H 0.26335 0.51353 0.46514 0.0
H149 H 0.34597 0.57047 0.46667 0.0
H150 H 0.37354 0.53174 0.43413 0.0
H151 H 0.19139 0.62317 0.52786 0.0
H152 H 0.23739 0.62685 0.43407 0.0
H153 H 0.29122 0.47432 0.4328 0.0
H154 H 0.14906 0.65497 0.50622 0.0
H155 H 0.19559 0.65893 0.41262 0.0
C156 C 0.82341 0.98967 0.94762 0.0
C157 C 0.85562 0.98832 0.94182 0.0
C158 C 0.80751 0.96359 0.9593 0.0
C159 C 0.8237 0.93598 0.96584 0.0
C160 C 0.85589 0.93476 0.96011 0.0
C161 C 0.87165 0.96061 0.94814 0.0
C162 C 0.80741 0.90838 0.97888 0.0
C163 C 0.77996 0.89746 0.96423 0.0
C164 C 0.76613 0.86988 0.97519 0.0
C165 C 0.77912 0.85377 0.00171 0.0
C166 C 0.80619 0.8648 0.01686 0.0
C167 C 0.82031 0.89194 0.00521 0.0
C168 C 0.82011 0.8482 0.04484 0.0
C169 C 0.80265 0.8427 0.07325 0.0
C170 C 0.85167 0.8399 0.04412 0.0
C171 C 0.86589 0.82732 0.07178 0.0
C172 C 0.84889 0.8233 0.10079 0.0
C173 C 0.73937 0.85667 0.95751 0.0
C174 C 0.71082 0.8724 0.95643 0.0
C175 C 0.74249 0.82812 0.94147 0.0
C176 C 0.71738 0.8154 0.9245 0.0
C177 C 0.68862 0.83076 0.92392 0.0
C178 C 0.68543 0.8593 0.94007 0.0
C179 C 0.81702 0.83061 0.10117 0.0
H180 H 0.81053 0.01075 0.94279 0.0
H181 H 0.7827 0.96512 0.96367 0.0
H182 H 0.86888 0.91368 0.96466 0.0
H183 H 0.89653 0.95902 0.94418 0.0
H184 H 0.77022 0.90954 0.94334 0.0
H185 H 0.84124 0.9005 0.01698 0.0
H186 H 0.76846 0.83244 0.01017 0.0
H187 H 0.77829 0.84908 0.07432 0.0
H188 H 0.86552 0.84387 0.02238 0.0
H189 H 0.89055 0.82218 0.07097 0.0
H190 H 0.70808 0.89449 0.96868 0.0
H191 H 0.76444 0.81576 0.94195 0.0
H192 H 0.80347 0.82768 0.12328 0.0
H193 H 0.66336 0.87143 0.9399 0.0
H194 H 0.72019 0.79324 0.91241 0.0
C195 C 0.17996 0.99177 0.45954 0.0
C196 C 0.14775 0.99028 0.46488 0.0
C197 C 0.19706 0.01738 0.47043 0.0
C198 C 0.18209 0.04225 0.48625 0.0
C199 C 0.14968 0.04065 0.49108 0.0
C200 C 0.1328 0.01482 0.48084 0.0
C201 C 0.19988 0.06993 0.49752 0.0
C202 C 0.22538 0.08133 0.47955 0.0
C203 C 0.24096 0.10828 0.48959 0.0
C204 C 0.23126 0.12394 0.51783 0.0
C205 C 0.20609 0.1128 0.53607 0.0
C206 C 0.19077 0.08573 0.52603 0.0
C207 C 0.19529 0.1294 0.56552 0.0
C208 C 0.21592 0.13611 0.59121 0.0
C209 C 0.16371 0.13701 0.56879 0.0
C210 C 0.15265 0.15 0.59773 0.0
C211 C 0.1729 0.15528 0.62412 0.0
C212 C 0.2671 0.12067 0.47033 0.0
C213 C 0.29455 0.10342 0.4667 0.0
C214 C 0.26525 0.15055 0.45696 0.0
C215 C 0.29075 0.16331 0.44069 0.0
C216 C 0.31866 0.14659 0.43818 0.0
C217 C 0.32033 0.11646 0.45104 0.0
C218 C 0.20475 0.14871 0.62045 0.0
H219 H 0.19191 0.973 0.44724 0.0
H220 H 0.22199 0.01752 0.46667 0.0
H221 H 0.13708 0.0596 0.50227 0.0
H222 H 0.10785 0.01436 0.48467 0.0
H223 H 0.23255 0.07 0.45715 0.0
H224 H 0.17187 0.07684 0.54086 0.0
H225 H 0.24315 0.14491 0.52545 0.0
H226 H 0.24038 0.13036 0.58918 0.0
H227 H 0.14744 0.13223 0.54917 0.0
H228 H 0.12793 0.15444 0.60003 0.0
H229 H 0.29637 0.08035 0.477 0.0
H230 H 0.2442 0.16415 0.45953 0.0
H231 H 0.2208 0.15257 0.64047 0.0
H232 H 0.34171 0.10324 0.44938 0.0
H233 H 0.2891 0.18671 0.43123 0.0
C234 C 0.18721 0.99776 0.94741 0.0
C235 C 0.18223 0.02437 0.96662 0.0
C236 C 0.20314 0.97224 0.96013 0.0
C237 C 0.21422 0.97266 0.99241 0.0
C238 C 0.21073 -0.00021 0.01106 0.0
C239 C 0.19501 0.02541 -0.00173 0.0
C240 C 0.22603 0.94382 0.0077 0.0
C241 C 0.24715 0.92444 0.99124 0.0
C242 C 0.25604 0.89582 0.00488 0.0
C243 C 0.24299 0.88645 0.03482 0.0
C244 C 0.22203 0.90562 0.05143 0.0
C245 C 0.21399 0.93439 0.038 0.0
C246 C 0.20658 0.89494 0.08166 0.0
C247 C 0.18998 0.86692 0.08193 0.0
C248 C 0.20605 0.91398 0.10941 0.0
C249 C 0.18807 0.90584 0.13648 0.0
C250 C 0.16972 0.8788 0.13607 0.0
C251 C 0.27847 0.87525 0.98788 0.0
C252 C 0.27637 0.87008 0.95401 0.0
C253 C 0.3016 0.85977 0.00584 0.0
C254 C 0.32165 0.83897 0.99051 0.0
C255 C 0.31909 0.83314 0.95682 0.0
C256 C 0.29653 0.84922 0.93861 0.0
C257 C 0.17156 0.85898 0.10882 0.0
H258 H 0.17736 0.99591 0.92312 0.0
H259 H 0.20518 0.95152 0.94534 0.0
H260 H 0.21939 0.00084 0.03592 0.0
H261 H 0.19215 0.04574 0.01349 0.0
H262 H 0.2568 0.93178 0.96802 0.0
H263 H 0.1969 0.94869 0.05034 0.0
H264 H 0.24879 0.86401 0.04509 0.0
H265 H 0.18991 0.85198 0.06064 0.0
H266 H 0.21898 0.93555 0.10982 0.0
H267 H 0.18784 0.92125 0.15737 0.0
H268 H 0.25859 0.88147 0.93957 0.0
H269 H 0.30421 0.86373 0.03186 0.0
H270 H 0.15754 0.83816 0.10746 0.0
H271 H 0.29391 0.84507 0.91263 0.0
H272 H 0.33926 0.82746 0.00507 0.0
C273 C 0.81083 0.14831 0.61677 0.0
C274 C 0.84348 0.14944 0.61609 0.0
C275 C 0.79428 0.13775 0.58943 0.0
C276 C 0.81019 0.12839 0.56102 0.0
C277 C 0.84276 0.13121 0.56 0.0
C278 C 0.8592 0.14144 0.58727 0.0
C279 C 0.79332 0.11469 0.5328 0.0
C280 C 0.76515 0.12738 0.52168 0.0
C281 C 0.75035 0.11537 0.49372 0.0
C282 C 0.76359 0.08999 0.47733 0.0
C283 C 0.79169 0.0772 0.48817 0.0
C284 C 0.80624 0.08941 0.51596 0.0
C285 C 0.80733 0.05275 0.46908 0.0
C286 C 0.79216 0.02476 0.46175 0.0
C287 C 0.83788 0.05754 0.45809 0.0
C288 C 0.85308 0.03477 0.44002 0.0
C289 C 0.83818 0.00659 0.43303 0.0
C290 C 0.72255 0.13098 0.48013 0.0
C291 C 0.69805 0.14019 0.50063 0.0
C292 C 0.72109 0.13809 0.44664 0.0
C293 C 0.69599 0.15474 0.43401 0.0
C294 C 0.67171 0.16452 0.45457 0.0
C295 C 0.67281 0.15667 0.48795 0.0
C296 C 0.80765 0.00163 0.44414 0.0
H297 H 0.79827 0.15431 0.63883 0.0
H298 H 0.76919 0.13582 0.59097 0.0
H299 H 0.85567 0.12509 0.5382 0.0
H300 H 0.88437 0.14259 0.58605 0.0
H301 H 0.75556 0.14758 0.53377 0.0
H302 H 0.82785 0.07916 0.52436 0.0
H303 H 0.75258 0.08082 0.45552 0.0
H304 H 0.76859 0.02066 0.47008 0.0
H305 H 0.84993 0.07905 0.46331 0.0
H306 H 0.87672 0.03897 0.43192 0.0
H307 H 0.69848 0.13472 0.52648 0.0
H308 H 0.7399 0.13169 0.43036 0.0
H309 H 0.79577 0.98003 0.43897 0.0
H310 H 0.65422 0.1634 0.50435 0.0
H311 H 0.69616 0.16082 0.40831 0.0
Sc312 Sc 0.99644 0.77818 0.30398 0.0
Sc313 Sc 0.99288 0.85946 0.3101 0.0
Sc314 Sc 0.99381 0.81459 0.38148 0.0
O315 O 0.99439 0.81733 0.33188 0.0
C316 C 0.94893 0.75884 0.36014 0.0
C317 C 0.94855 0.82054 0.26379 0.0
C318 C 0.94634 0.86995 0.36998 0.0
C319 C 0.04163 0.82303 0.265 0.0
C320 C 0.04148 0.76077 0.36358 0.0
C321 C 0.0394 0.872 0.36905 0.0
O322 O 0.959 0.75658 0.33095 0.0
O323 O 0.95587 0.84566 0.27804 0.0
O324 O 0.95596 0.84699 0.38658 0.0
O325 O 0.03426 0.79588 0.27438 0.0
O326 O 0.03124 0.78169 0.38259 0.0
O327 O 0.0299 0.87714 0.34012 0.0
O328 O 0.03073 0.75646 0.33497 0.0
O329 O 0.02753 0.84713 0.27486 0.0
O330 O 0.02785 0.85106 0.38731 0.0
O331 O 0.96227 0.79494 0.26934 0.0
O332 O 0.95991 0.77806 0.3807 0.0
O333 O 0.95814 0.87742 0.34265 0.0
Sc334 Sc -0.0018 0.2158 0.80647 0.0
Sc335 Sc 0.01846 0.13676 0.80846 0.0
Sc336 Sc 0.00436 0.17599 0.88202 0.0
O337 O 0.00694 0.17627 0.83231 0.0
C338 C 0.03896 0.2398 0.86719 0.0
C339 C 0.05531 0.18712 0.76678 0.0
C340 C 0.06282 0.13133 0.87013 0.0
C341 C 0.96536 0.16458 0.76219 0.0
C342 C 0.94854 0.22183 0.86374 0.0
C343 C 0.97185 0.11213 0.86379 0.0
O344 O 0.02771 0.24304 0.83852 0.0
O345 O 0.05134 0.15984 0.7776 0.0
O346 O 0.04561 0.1478 0.88847 0.0
O347 O 0.9679 0.19245 0.77205 0.0
O348 O 0.96338 0.20452 0.88342 0.0
O349 O 0.9868 0.10926 0.83712 0.0
O350 O 0.95743 0.22712 0.83468 0.0
O351 O 0.98209 0.14267 0.77319 0.0
O352 O 0.97478 0.13553 0.88251 0.0
O353 O 0.03774 0.20968 0.77441 0.0
O354 O 0.03322 0.21643 0.88524 0.0
O355 O 0.05648 0.12628 0.84035 0.0
Sc356 Sc 0.49412 0.2749 0.29918 0.0
Sc357 Sc 0.49181 0.35581 0.30869 0.0
Sc358 Sc 0.4885 0.30831 0.37777 0.0
O359 O 0.49153 0.3129 0.32852 0.0
C360 C 0.44583 0.2524 0.35258 0.0
C361 C 0.44783 0.31961 0.25986 0.0
C362 C 0.44213 0.36381 0.36654 0.0
C363 C 0.54049 0.32013 0.26274 0.0
C364 C 0.53786 0.25656 0.35984 0.0
C365 C 0.53435 0.36663 0.37032 0.0
O366 O 0.45528 0.2529 0.32315 0.0
O367 O 0.45502 0.34389 0.27573 0.0
O368 O 0.44897 0.33882 0.38133 0.0
O369 O 0.53306 0.29291 0.27173 0.0
O370 O 0.52742 0.27746 0.37876 0.0
O371 O 0.52862 0.37135 0.34025 0.0
O372 O 0.52713 0.25192 0.33118 0.0
O373 O 0.52649 0.34414 0.27302 0.0
O374 O 0.52017 0.34622 0.38714 0.0
O375 O 0.46138 0.29364 0.264 0.0
O376 O 0.45683 0.26981 0.37481 0.0
O377 O 0.45701 0.37331 0.34163 0.0
Sc378 Sc 0.49739 0.71992 0.80605 0.0
Sc379 Sc 0.50024 0.63825 0.80746 0.0
Sc380 Sc 0.49269 0.67938 0.88104 0.0
O381 O 0.49677 0.67923 0.83151 0.0
C382 C 0.53882 0.73643 0.868 0.0
C383 C 0.54721 0.67987 0.76639 0.0
C384 C 0.54337 0.62637 0.86976 0.0
C385 C 0.45431 0.67733 0.76156 0.0
C386 C 0.44641 0.73367 0.86151 0.0
C387 C 0.45033 0.62118 0.86197 0.0
O388 O 0.5323 0.7395 0.83782 0.0
O389 O 0.53797 0.65404 0.77757 0.0
O390 O 0.53091 0.6474 0.88718 0.0
O391 O 0.46278 0.7039 0.77174 0.0
O392 O 0.45465 0.71149 0.88002 0.0
O393 O 0.46308 0.61725 0.83432 0.0
O394 O 0.46029 0.74 0.83485 0.0
O395 O 0.46616 0.65211 0.77179 0.0
O396 O 0.4587 0.64237 0.8817 0.0
O397 O 0.53436 0.70548 0.77368 0.0
O398 O 0.52562 0.71668 0.88648 0.0
O399 O 0.53436 0.62013 0.84089 0.0
H400 H 0.13336 0.34728 0.90279 0.0
H401 H 0.12777 0.30199 0.99666 0.0
H402 H 0.08934 0.26567 0.97522 0.0
H403 H 0.05961 0.24517 0.92951 0.0
H404 H 0.065 0.28936 0.8349 0.0
H405 H 0.10107 0.32791 0.85703 0.0
C406 C 0.12332 0.32972 0.91857 0.0
C407 C 0.13347 0.32711 0.95115 0.0
C408 C 0.10145 0.30863 0.90595 0.0
C409 C 0.12054 0.30415 0.97138 0.0
C410 C 0.09858 0.28342 0.95916 0.0
C411 C 0.06858 0.26321 0.9136 0.0
C412 C 0.05978 0.26412 0.88048 0.0
C413 C 0.08931 0.28512 0.92638 0.0
C414 C 0.07143 0.28799 0.86047 0.0
C415 C 0.09208 0.31005 0.87309 0.0
H416 H 0.83933 0.66414 0.38739 0.0
H417 H 0.84233 0.71021 0.48099 0.0
H418 H 0.88509 0.74277 0.46222 0.0
H419 H 0.92105 0.75847 0.41954 0.0
H420 H 0.9189 0.71309 0.32543 0.0
H421 H 0.87643 0.67979 0.34422 0.0
C422 C 0.84957 0.68116 0.40368 0.0
C423 C 0.8376 0.68492 0.43544 0.0
C424 C 0.87419 0.69992 0.39268 0.0
C425 C 0.85085 0.70721 0.45627 0.0
C426 C 0.87538 0.72574 0.44562 0.0
C427 C 0.91143 0.74131 0.403 0.0
C428 C 0.92324 0.73837 0.37108 0.0
C429 C 0.88709 0.72239 0.41387 0.0
C430 C 0.91029 0.71594 0.35013 0.0
C431 C 0.88601 0.69686 0.36086 0.0
H432 H 0.82559 0.29461 0.8973 0.0
H433 H 0.87996 0.31697 0.98316 0.0
H434 H 0.92175 0.28388 0.9639 0.0
H435 H 0.94392 0.24988 0.92209 0.0
H436 H 0.89321 0.23283 0.83297 0.0
H437 H 0.84915 0.26315 0.85378 0.0
C438 C 0.84669 0.29276 0.91167 0.0
C439 C 0.84913 0.30819 0.94198 0.0
C440 C 0.87138 0.27463 0.89982 0.0
C441 C 0.87673 0.30482 0.96027 0.0
C442 C 0.90092 0.28609 0.94912 0.0
C443 C 0.92305 0.25259 0.90741 0.0
C444 C 0.92144 0.23889 0.87634 0.0
C445 C 0.8985 0.27092 0.91898 0.0
C446 C 0.89473 0.24311 0.85708 0.0
C447 C 0.86965 0.26043 0.86896 0.0
H448 H 0.1418 0.6588 0.3975 0.0
H449 H 0.14135 0.70803 0.48939 0.0
H450 H 0.10214 0.74364 0.46828 0.0
H451 H 0.06856 0.76118 0.42374 0.0
H452 H 0.06976 0.7128 0.33125 0.0
H453 H 0.10872 0.67694 0.35248 0.0
C454 C 0.13332 0.67747 0.41284 0.0
C455 C 0.14447 0.68064 0.44502 0.0
C456 C 0.11111 0.69817 0.40039 0.0
C457 C 0.13282 0.70469 0.46472 0.0
C458 C 0.1106 0.72526 0.45257 0.0
C459 C 0.07736 0.74289 0.40808 0.0
C460 C 0.06615 0.73978 0.3759 0.0
C461 C 0.09965 0.72226 0.42044 0.0
C462 C 0.07791 0.71584 0.35611 0.0
C463 C 0.10017 0.69524 0.36824 0.0
H464 H 0.63432 0.81403 0.9517 0.0
H465 H 0.68361 0.81422 0.86002 0.0
H466 H 0.64034 0.78677 0.83372 0.0
H467 H 0.58963 0.76047 0.83775 0.0
H468 H 0.54251 0.75668 0.9308 0.0
H469 H 0.58365 0.78782 0.95571 0.0
C470 C 0.63527 0.80832 0.92588 0.0
C471 C 0.66174 0.81618 0.90762 0.0
C472 C 0.61083 0.79177 0.91131 0.0
C473 C 0.66325 0.80833 0.87436 0.0
C474 C 0.6386 0.79266 0.85941 0.0
C475 C 0.58828 0.76674 0.86339 0.0
C476 C 0.56311 0.75637 0.88242 0.0
C477 C 0.61243 0.78393 0.87776 0.0
C478 C 0.56179 0.76427 0.91572 0.0
C479 C 0.58524 0.78211 0.92996 0.0
H480 H 0.32513 0.17311 0.3784 0.0
H481 H 0.37425 0.15434 0.46817 0.0
H482 H 0.41865 0.18485 0.44904 0.0
H483 H 0.44186 0.21963 0.40839 0.0
H484 H 0.39441 0.23648 0.31721 0.0
H485 H 0.3509 0.20379 0.33508 0.0
C486 C 0.34577 0.17551 0.39349 0.0
C487 C 0.34658 0.16177 0.42462 0.0
C488 C 0.37126 0.19282 0.38219 0.0
C489 C 0.37335 0.16467 0.44403 0.0
C490 C 0.39859 0.18222 0.43321 0.0
C491 C 0.42202 0.21596 0.39241 0.0
C492 C 0.42096 0.23064 0.3618 0.0
C493 C 0.39754 0.19684 0.40261 0.0
C494 C 0.39556 0.22536 0.34094 0.0
C495 C 0.37071 0.20681 0.35119 0.0
H496 H 0.34976 0.83819 0.89865 0.0
H497 H 0.33468 0.77602 0.97983 0.0
H498 H 0.37139 0.7391 0.95648 0.0
H499 H 0.4095 0.72563 0.91475 0.0
H500 H 0.42532 0.78753 0.83339 0.0
H501 H 0.38607 0.82307 0.85478 0.0
C502 C 0.35422 0.81638 0.91097 0.0
C503 C 0.33979 0.81003 0.94112 0.0
C504 C 0.37546 0.79521 0.89743 0.0
C505 C 0.34595 0.78174 0.95691 0.0
C506 C 0.36681 0.76053 0.94351 0.0
C507 C 0.40432 0.74679 0.90149 0.0
C508 C 0.42063 0.75395 0.87262 0.0
C509 C 0.38204 0.76725 0.91406 0.0
C510 C 0.41326 0.7814 0.85572 0.0
C511 C 0.39086 0.80182 0.86799 0.0
H512 H 0.64164 0.15862 0.39608 0.0
H513 H 0.64453 0.21458 0.48357 0.0
H514 H 0.60345 0.24761 0.46194 0.0
H515 H 0.56752 0.26117 0.41821 0.0
H516 H 0.56507 0.2065 0.32975 0.0
H517 H 0.60578 0.1728 0.35158 0.0
C518 C 0.63344 0.17817 0.41032 0.0
C519 C 0.64609 0.18398 0.44149 0.0
C520 C 0.6101 0.19744 0.39751 0.0
C521 C 0.63486 0.20918 0.45979 0.0
C522 C 0.61155 0.22828 0.44732 0.0
C523 C 0.57581 0.24192 0.40356 0.0
C524 C 0.56315 0.23644 0.37234 0.0
C525 C 0.5991 0.22266 0.41621 0.0
C526 C 0.57437 0.21136 0.35383 0.0
C527 C 0.59762 0.19201 0.36632 0.0
H528 H 0.35842 0.51065 0.89057 0.0
H529 H 0.32846 0.57241 0.96711 0.0
H530 H 0.36469 0.61219 0.94759 0.0
H531 H 0.4077 0.6277 0.9111 0.0
H532 H 0.43696 0.56528 0.83448 0.0
H533 H 0.39831 0.5275 0.85179 0.0
C534 C 0.3597 0.53294 0.90277 0.0
C535 C 0.34108 0.53859 0.93032 0.0
C536 C 0.38068 0.55545 0.89163 0.0
C537 C 0.34252 0.56766 0.94572 0.0
C538 C 0.36339 0.59027 0.93474 0.0
C539 C 0.40555 0.60587 0.89815 0.0
C540 C 0.42549 0.59927 0.87176 0.0
C541 C 0.38307 0.58415 0.90812 0.0
C542 C 0.42204 0.57103 0.85493 0.0
C543 C 0.39994 0.54932 0.86482 0.0
H544 H 0.61251 0.45561 0.4607 0.0
H545 H 0.65121 0.4826 0.36776 0.0
H546 H 0.61975 0.44305 0.34013 0.0
H547 H 0.5787 0.40325 0.34234 0.0
H548 H 0.54101 0.37588 0.43591 0.0
H549 H 0.57479 0.41302 0.4634 0.0
C550 C 0.61411 0.45264 0.43441 0.0
C551 C 0.63376 0.47204 0.41614 0.0
C552 C 0.5961 0.42993 0.41885 0.0
C553 C 0.63617 0.46781 0.38221 0.0
C554 C 0.61811 0.44535 0.36646 0.0
C555 C 0.57801 0.40527 0.36876 0.0
C556 C 0.55708 0.38702 0.38697 0.0
C557 C 0.59759 0.42665 0.3845 0.0
C558 C 0.55683 0.38963 0.42124 0.0
C559 C 0.57606 0.41096 0.43702 0.0
H560 H 0.65362 0.56238 0.94624 0.0
H561 H 0.63044 0.48811 0.87956 0.0
H562 H 0.59236 0.52105 0.85284 0.0
H563 H 0.56277 0.56939 0.85062 0.0
H564 H 0.58189 0.6419 0.92049 0.0
H565 H 0.62367 0.61075 0.94431 0.0
C566 C 0.64013 0.55318 0.92606 0.0
C567 C 0.64521 0.5226 0.91511 0.0
C568 C 0.61713 0.57181 0.91157 0.0
C569 C 0.62781 0.51163 0.8883 0.0
C570 C 0.6056 0.53036 0.87316 0.0
C571 C 0.5762 0.5785 0.87093 0.0
C572 C 0.56917 0.60791 0.88378 0.0
C573 C 0.59973 0.56027 0.88491 0.0
C574 C 0.58665 0.61923 0.91028 0.0
C575 C 0.61062 0.60147 0.92384 0.0
H576 H 0.34111 0.43924 0.44552 0.0
H577 H 0.36703 0.50888 0.37496 0.0
H578 H 0.40073 0.47172 0.34709 0.0
H579 H 0.42571 0.42112 0.34543 0.0
H580 H 0.40226 0.35172 0.4175 0.0
H581 H 0.36441 0.38703 0.44198 0.0
C582 C 0.35378 0.44599 0.42372 0.0
C583 C 0.35178 0.47664 0.41225 0.0
C584 C 0.37367 0.4247 0.40831 0.0
C585 C 0.36848 0.4854 0.38425 0.0
C586 C 0.38771 0.46421 0.36836 0.0
C587 C 0.41218 0.41348 0.36631 0.0
C588 C 0.41709 0.38384 0.37973 0.0
C589 C 0.39098 0.43403 0.38061 0.0
C590 C 0.39916 0.37446 0.40676 0.0
C591 C 0.37751 0.39465 0.42081 0.0
H592 H 0.89662 0.9895 0.8918 0.0
H593 H 0.85311 0.0481 0.96382 0.0
H594 H 0.8848 0.09208 0.94564 0.0
H595 H 0.92666 0.11302 0.9108 0.0
H596 H 0.96947 0.05374 0.83856 0.0
H597 H 0.93638 0.01087 0.85546 0.0
C598 C 0.89411 0.01193 0.90349 0.0
C599 C 0.87284 0.01557 0.92925 0.0
C600 C 0.91239 0.03691 0.89301 0.0
C601 C 0.8693 0.04483 0.94383 0.0
C602 C 0.88753 0.06988 0.93358 0.0
C603 C 0.92874 0.09074 0.89875 0.0
C604 C 0.95073 0.08663 0.87361 0.0
C605 C 0.90945 0.06607 0.90845 0.0
C606 C 0.95281 0.05765 0.85799 0.0
C607 C 0.93391 0.03304 0.86765 0.0
H608 H 0.14392 0.9696 0.4027 0.0
H609 H 0.1095 0.95281 0.50004 0.0
H610 H 0.07457 0.91251 0.47923 0.0
H611 H 0.05125 0.88491 0.43283 0.0
H612 H 0.08304 0.90454 0.33488 0.0
H613 H 0.12166 0.94075 0.35636 0.0
C614 C 0.12908 0.95669 0.4193 0.0
C615 C 0.1292 0.96388 0.45275 0.0
C616 C 0.10845 0.93432 0.40701 0.0
C617 C 0.10963 0.94751 0.47414 0.0
C618 C 0.08969 0.92458 0.46226 0.0
C619 C 0.06689 0.89683 0.41622 0.0
C620 C 0.06422 0.89212 0.38233 0.0
C621 C 0.08849 0.9182 0.42866 0.0
C622 C 0.08445 0.90796 0.36108 0.0
C623 C 0.10658 0.92863 0.37333 0.0
H624 H 0.17852 0.04824 0.90494 0.0
H625 H 0.13882 0.05694 0.00145 0.0
H626 H 0.1006 0.09376 0.98079 0.0
H627 H 0.07491 0.11925 0.93432 0.0
H628 H 0.11259 0.10768 0.83724 0.0
H629 H 0.1548 0.07612 0.85909 0.0
C630 C 0.16154 0.05821 0.92149 0.0
C631 C 0.16152 0.04959 0.95466 0.0
C632 C 0.13898 0.07869 0.90928 0.0
C633 C 0.13972 0.06332 0.97586 0.0
C634 C 0.11759 0.08421 0.96401 0.0
C635 C 0.09262 0.11023 0.91801 0.0
C636 C 0.09038 0.1156 0.88417 0.0
C637 C 0.11653 0.09149 0.93063 0.0
C638 C 0.11352 0.10363 0.86337 0.0
C639 C 0.1377 0.08556 0.87582 0.0
H640 H 0.84822 0.947 0.45127 0.0
H641 H 0.8665 0.0127 0.37418 0.0
H642 H 0.89964 0.97497 0.34639 0.0
H643 H 0.92642 0.92523 0.3463 0.0
H644 H 0.91078 0.86003 0.42478 0.0
H645 H 0.87337 0.89557 0.44965 0.0
C646 C 0.8591 0.95273 0.4281 0.0
C647 C 0.85509 0.98244 0.41469 0.0
C648 C 0.87874 0.93119 0.41273 0.0
C649 C 0.86949 0.98993 0.38492 0.0
C650 C 0.88841 0.96842 0.3691 0.0
C651 C 0.91466 0.91853 0.36867 0.0
C652 C 0.92163 0.89004 0.38373 0.0
C653 C 0.89371 0.93925 0.38314 0.0
C654 C 0.90606 0.8819 0.41274 0.0
C655 C 0.88466 0.90221 0.427 0.0
H656 H 0.3627 0.32502 0.13462 0.0
H657 H 0.32361 0.40191 0.18794 0.0
H658 H 0.35738 0.39043 0.23451 0.0
H659 H 0.40092 0.36135 0.25799 0.0
H660 H 0.44 0.28409 0.20511 0.0
H661 H 0.40315 0.29275 0.16041 0.0
C662 C 0.36148 0.33905 0.15659 0.0
C663 C 0.34098 0.3644 0.15787 0.0
C664 C 0.38103 0.33238 0.18315 0.0
C665 C 0.33915 0.38219 0.18654 0.0
C666 C 0.35857 0.37577 0.21303 0.0
C667 C 0.40125 0.34627 0.23677 0.0
C668 C 0.42342 0.3224 0.2346 0.0
C669 C 0.38005 0.35136 0.21129 0.0
C670 C 0.42319 0.30267 0.20729 0.0
C671 C 0.40223 0.30769 0.18169 0.0
H672 H 0.62875 0.68304 0.63918 0.0
H673 H 0.66448 0.59889 0.68182 0.0
H674 H 0.634 0.60813 0.73141 0.0
H675 H 0.59278 0.637 0.75962 0.0
H676 H 0.55732 0.72152 0.71726 0.0
H677 H 0.59249 0.7156 0.67073 0.0
C678 C 0.63013 0.66704 0.6596 0.0
C679 C 0.64843 0.64019 0.65692 0.0
C680 C 0.61252 0.67248 0.68789 0.0
C681 C 0.6505 0.61973 0.68351 0.0
C682 C 0.63297 0.62491 0.71171 0.0
C683 C 0.59308 0.65435 0.74042 0.0
C684 C 0.57218 0.67939 0.74159 0.0
C685 C 0.61322 0.65073 0.71374 0.0
C686 C 0.57316 0.702 0.71688 0.0
C687 C 0.59311 0.69852 0.69016 0.0
H688 H 0.64643 0.31834 0.15524 0.0
H689 H 0.61961 0.41471 0.14956 0.0
H690 H 0.58295 0.40734 0.19402 0.0
H691 H 0.55675 0.37361 0.23264 0.0
H692 H 0.58043 0.27645 0.2373 0.0
H693 H 0.61979 0.28408 0.19479 0.0
C694 C 0.63247 0.33768 0.16364 0.0
C695 C 0.63609 0.36711 0.14913 0.0
C696 C 0.61073 0.33317 0.18889 0.0
C697 C 0.61797 0.39197 0.16063 0.0
C698 C 0.59671 0.38774 0.18591 0.0
C699 C 0.57058 0.35401 0.22462 0.0
C700 C 0.56553 0.32447 0.2382 0.0
C701 C 0.59274 0.35844 0.20001 0.0
C702 C 0.58372 0.29945 0.22726 0.0
C703 C 0.60623 0.30379 0.20293 0.0
H704 H 0.36706 0.68142 0.63777 0.0
H705 H 0.33753 0.59381 0.67794 0.0
H706 H 0.37173 0.60134 0.7251 0.0
H707 H 0.41283 0.63097 0.7526 0.0
H708 H 0.44147 0.71937 0.71352 0.0
H709 H 0.40468 0.71354 0.66823 0.0
C710 C 0.36797 0.6642 0.65708 0.0
C711 C 0.35007 0.63704 0.65444 0.0
C712 C 0.38761 0.66872 0.68408 0.0
C713 C 0.35103 0.61496 0.67965 0.0
C714 C 0.37071 0.61916 0.70644 0.0
C715 C 0.41087 0.64902 0.73424 0.0
C716 C 0.43007 0.67535 0.73607 0.0
C717 C 0.38954 0.64564 0.70855 0.0
C718 C 0.42694 0.69887 0.71254 0.0
C719 C 0.40601 0.6955 0.68661 0.0
H720 H 0.84694 0.85329 0.15858 0.0
H721 H 0.88845 0.77465 0.11051 0.0
H722 H 0.921 0.76481 0.15859 0.0
H723 H 0.94092 0.78165 0.2121 0.0
H724 H 0.90163 0.86264 0.25821 0.0
H725 H 0.86469 0.86832 0.21328 0.0
C726 C 0.86263 0.8336 0.15898 0.0
C727 C 0.86531 0.81464 0.13123 0.0
C728 C 0.88185 0.82872 0.18622 0.0
C729 C 0.88613 0.78956 0.13168 0.0
C730 C 0.90473 0.78399 0.15909 0.0
C731 C 0.92395 0.80024 0.21255 0.0
C732 C 0.92413 0.82178 0.23835 0.0
C733 C 0.90331 0.80388 0.18619 0.0
C734 C 0.90216 0.84591 0.23847 0.0
C735 C 0.88101 0.84918 0.21281 0.0
H736 H 0.13165 0.2014 0.63738 0.0
H737 H 0.18442 0.12803 0.68274 0.0
H738 H 0.15504 0.13455 0.73332 0.0
H739 H 0.10935 0.15556 0.7614 0.0
H740 H 0.05582 0.22848 0.7162 0.0
H741 H 0.09072 0.22802 0.66895 0.0
C742 C 0.13703 0.18729 0.6586 0.0
C743 C 0.15985 0.16404 0.65629 0.0
C744 C 0.11972 0.19085 0.68744 0.0
C745 C 0.16702 0.14615 0.68399 0.0
C746 C 0.15005 0.14967 0.71282 0.0
C747 C 0.10568 0.17173 0.74144 0.0
C748 C 0.07979 0.19162 0.74194 0.0
C749 C 0.12558 0.17111 0.71434 0.0
C750 C 0.07556 0.21287 0.71629 0.0
C751 C 0.09537 0.21246 0.68918 0.0
H752 H 0.15282 0.8231 0.16338 0.0
H753 H 0.1339 0.9214 0.16755 0.0
H754 H 0.09404 0.91259 0.20851 0.0
H755 H 0.06302 0.87749 0.24116 0.0
H756 H 0.07905 0.77878 0.23634 0.0
H757 H 0.12127 0.78733 0.19712 0.0
C758 C 0.13992 0.84257 0.17318 0.0
C759 C 0.14666 0.87291 0.16246 0.0
C760 C 0.11631 0.83731 0.19635 0.0
C761 C 0.12986 0.89787 0.17576 0.0
C762 C 0.10675 0.89286 0.19899 0.0
C763 C 0.07565 0.85768 0.23168 0.0
C764 C 0.06766 0.82749 0.24165 0.0
C765 C 0.09961 0.86272 0.20918 0.0
C766 C 0.08456 0.80228 0.22904 0.0
C767 C 0.10873 0.80716 0.20662 0.0
H768 H 0.88817 0.11426 0.64265 0.0
H769 H 0.83901 0.20028 0.65608 0.0
H770 H 0.87211 0.21273 0.70334 0.0
H771 H 0.9167 0.19962 0.73927 0.0
H772 H 0.9642 0.11234 0.72519 0.0
H773 H 0.93008 0.09997 0.67976 0.0
C774 C 0.88476 0.13574 0.65597 0.0
C775 C 0.86163 0.15655 0.64585 0.0
C776 C 0.90361 0.14253 0.6829 0.0
C777 C 0.85684 0.184 0.66355 0.0
C778 C 0.8758 0.19112 0.6904 0.0
C779 C 0.91951 0.17789 0.7263 0.0
C780 C 0.94317 0.15708 0.73562 0.0
C781 C 0.89954 0.17067 0.70008 0.0
C782 C 0.94624 0.12884 0.71871 0.0
C783 C 0.92677 0.1217 0.69259 0.0
loop_
_geom_bond_atom_site_label_1
_geom_bond_atom_site_label_2
_geom_bond_distance
_geom_bond_site_symmetry_2
_ccdc_geom_bond_type
C0 C1 1.386 . S
C0 C2 1.397 . S
C0 H24 0.931 . S
C1 C0 1.386 . S
C1 C5 1.397 . S
C2 C0 1.397 . S
C2 C3 1.384 . S
C2 H25 0.930 . S
C3 C2 1.384 . S
C3 C4 1.377 . S
C3 C6 1.481 . S
C4 C3 1.377 . S
C4 C5 1.389 . S
C4 H26 0.929 . S
C5 C1 1.397 . S
C5 C4 1.389 . S
C5 H27 0.931 . S
C6 C3 1.481 . S
C6 C7 1.387 . S
C6 C11 1.390 1_556 S
C7 C6 1.387 . S
C7 C8 1.401 . S
C7 H28 0.930 . S
C8 C7 1.401 . S
C8 C9 1.376 1_556 S
C8 C17 1.511 . S
C9 C8 1.376 1_554 S
C9 C10 1.392 . S
C9 H30 0.931 . S
C10 C9 1.392 . S
C10 C11 1.361 . S
C10 C12 1.500 . S
C11 C6 1.390 1_554 S
C11 C10 1.361 . S
C11 H29 0.931 . S
C12 C10 1.500 . S
C12 C13 1.371 . S
C12 C14 1.365 . S
C13 C12 1.371 . S
C13 C23 1.386 . S
C13 H31 0.931 . S
C14 C12 1.365 . S
C14 C15 1.409 . S
C14 H32 0.929 . S
C15 C14 1.409 . S
C15 C16 1.380 . S
C15 H33 0.930 . S
C16 C15 1.380 . S
C16 C23 1.357 . S
C17 C8 1.511 . S
C17 C18 1.341 . S
C17 C19 1.371 . S
C18 C17 1.341 . S
C18 C22 1.394 . S
C18 H34 0.930 . S
C19 C17 1.371 . S
C19 C20 1.392 . S
C19 H35 0.931 1_556 S
C20 C19 1.392 . S
C20 C21 1.331 . S
C20 H38 0.932 . S
C21 C20 1.331 . S
C21 C22 1.336 . S
C22 C18 1.394 . S
C22 C21 1.336 . S
C22 H37 0.929 . S
C23 C13 1.386 . S
C23 C16 1.357 . S
C23 H36 0.928 . S
H24 C0 0.931 . S
H25 C2 0.930 . S
H26 C4 0.929 . S
H27 C5 0.931 . S
H28 C7 0.930 . S
H29 C11 0.931 . S
H30 C9 0.931 . S
H31 C13 0.931 . S
H32 C14 0.929 . S
H33 C15 0.930 . S
H34 C18 0.930 . S
H35 C19 0.931 1_554 S
H36 C23 0.928 . S
H37 C22 0.929 . S
H38 C20 0.932 . S
C39 C40 1.386 . S
C39 C41 1.397 . S
C39 H63 0.931 . S
C40 C39 1.386 . S
C40 C44 1.397 . S
C41 C39 1.397 . S
C41 C42 1.384 . S
C41 H64 0.930 . S
C42 C41 1.384 . S
C42 C43 1.377 . S
C42 C45 1.481 . S
C43 C42 1.377 . S
C43 C44 1.389 . S
C43 H65 0.929 . S
C44 C40 1.397 . S
C44 C43 1.389 . S
C44 H66 0.931 . S
C45 C42 1.481 . S
C45 C46 1.387 . S
C45 C50 1.390 . S
C46 C45 1.387 . S
C46 C47 1.401 . S
C46 H67 0.930 . S
C47 C46 1.401 . S
C47 C48 1.376 . S
C47 C56 1.511 . S
C48 C47 1.376 . S
C48 C49 1.392 . S
C48 H69 0.931 . S
C49 C48 1.392 . S
C49 C50 1.361 . S
C49 C51 1.500 . S
C50 C45 1.390 . S
C50 C49 1.361 . S
C50 H68 0.931 . S
C51 C49 1.500 . S
C51 C52 1.371 . S
C51 C53 1.365 . S
C52 C51 1.371 . S
C52 C62 1.386 . S
C52 H70 0.931 . S
C53 C51 1.365 . S
C53 C54 1.409 . S
C53 H71 0.929 . S
C54 C53 1.409 . S
C54 C55 1.380 . S
C54 H72 0.930 . S
C55 C54 1.380 . S
C55 C62 1.357 . S
C56 C47 1.511 . S
C56 C57 1.341 . S
C56 C58 1.371 . S
C57 C56 1.341 . S
C57 C61 1.394 . S
C57 H73 0.930 . S
C58 C56 1.371 . S
C58 C59 1.392 . S
C58 H74 0.931 . S
C59 C58 1.392 . S
C59 C60 1.331 . S
C59 H77 0.932 . S
C60 C59 1.331 . S
C60 C61 1.336 . S
C61 C57 1.394 . S
C61 C60 1.336 . S
C61 H76 0.929 . S
C62 C52 1.386 . S
C62 C55 1.357 . S
C62 H75 0.928 . S
H63 C39 0.931 . S
H64 C41 0.930 . S
H65 C43 0.929 . S
H66 C44 0.931 . S
H67 C46 0.930 . S
H68 C50 0.931 . S
H69 C48 0.931 . S
H70 C52 0.931 . S
H71 C53 0.929 . S
H72 C54 0.930 . S
H73 C57 0.930 . S
H74 C58 0.931 . S
H75 C62 0.928 . S
H76 C61 0.929 . S
H77 C59 0.932 . S
C78 C79 1.386 . S
C78 C80 1.397 . S
C78 H102 0.931 . S
C79 C78 1.386 . S
C79 C83 1.397 . S
C80 C78 1.397 . S
C80 C81 1.384 . S
C80 H103 0.930 . S
C81 C80 1.384 . S
C81 C82 1.377 . S
C81 C84 1.481 . S
C82 C81 1.377 . S
C82 C83 1.389 . S
C82 H104 0.929 1_556 S
C83 C79 1.397 . S
C83 C82 1.389 . S
C83 H105 0.931 . S
C84 C81 1.481 . S
C84 C85 1.387 . S
C84 C89 1.390 1_556 S
C85 C84 1.387 . S
C85 C86 1.401 . S
C85 H106 0.930 . S
C86 C85 1.401 . S
C86 C87 1.376 1_556 S
C86 C95 1.511 . S
C87 C86 1.376 1_554 S
C87 C88 1.392 . S
C87 H108 0.931 . S
C88 C87 1.392 . S
C88 C89 1.361 . S
C88 C90 1.500 . S
C89 C84 1.390 1_554 S
C89 C88 1.361 . S
C89 H107 0.931 . S
C90 C88 1.500 . S
C90 C91 1.371 . S
C90 C92 1.365 . S
C91 C90 1.371 . S
C91 C101 1.386 . S
C91 H109 0.931 . S
C92 C90 1.365 . S
C92 C93 1.409 . S
C92 H110 0.929 . S
C93 C92 1.409 . S
C93 C94 1.380 . S
C93 H111 0.930 . S
C94 C93 1.380 . S
C94 C101 1.357 . S
C95 C86 1.511 . S
C95 C96 1.341 . S
C95 C97 1.371 1_556 S
C96 C95 1.341 . S
C96 C100 1.394 . S
C96 H112 0.930 . S
C97 C95 1.371 1_554 S
C97 C98 1.392 1_554 S
C97 H113 0.931 . S
C98 C97 1.392 1_556 S
C98 C99 1.331 . S
C98 H116 0.932 1_556 S
C99 C98 1.331 . S
C99 C100 1.336 . S
C100 C96 1.394 . S
C100 C99 1.336 . S
C100 H115 0.929 . S
C101 C91 1.386 . S
C101 C94 1.357 . S
C101 H114 0.928 . S
H102 C78 0.931 . S
H103 C80 0.930 . S
H104 C82 0.929 1_554 S
H105 C83 0.931 . S
H106 C85 0.930 . S
H107 C89 0.931 . S
H108 C87 0.931 . S
H109 C91 0.931 . S
H110 C92 0.929 . S
H111 C93 0.930 . S
H112 C96 0.930 . S
H113 C97 0.931 . S
H114 C101 0.928 . S
H115 C100 0.929 . S
H116 C98 0.932 1_554 S
C117 C118 1.386 . S
C117 C119 1.397 . S
C117 H141 0.931 . S
C118 C117 1.386 . S
C118 C122 1.397 . S
C119 C117 1.397 . S
C119 C120 1.384 . S
C119 H142 0.930 . S
C120 C119 1.384 . S
C120 C121 1.377 . S
C120 C123 1.481 . S
C121 C120 1.377 . S
C121 C122 1.389 . S
C121 H143 0.929 . S
C122 C118 1.397 . S
C122 C121 1.389 . S
C122 H144 0.931 . S
C123 C120 1.481 . S
C123 C124 1.387 . S
C123 C128 1.390 . S
C124 C123 1.387 . S
C124 C125 1.401 . S
C124 H145 0.930 . S
C125 C124 1.401 . S
C125 C126 1.376 . S
C125 C134 1.511 . S
C126 C125 1.376 . S
C126 C127 1.392 . S
C126 H147 0.931 . S
C127 C126 1.392 . S
C127 C128 1.361 . S
C127 C129 1.500 . S
C128 C123 1.390 . S
C128 C127 1.361 . S
C128 H146 0.931 . S
C129 C127 1.500 . S
C129 C130 1.371 . S
C129 C131 1.365 . S
C130 C129 1.371 . S
C130 C140 1.386 . S
C130 H148 0.931 . S
C131 C129 1.365 . S
C131 C132 1.409 . S
C131 H149 0.929 . S
C132 C131 1.409 . S
C132 C133 1.380 . S
C132 H150 0.930 . S
C133 C132 1.380 . S
C133 C140 1.357 . S
C134 C125 1.511 . S
C134 C135 1.341 . S
C134 C136 1.371 . S
C135 C134 1.341 . S
C135 C139 1.394 . S
C135 H151 0.930 . S
C136 C134 1.371 . S
C136 C137 1.392 . S
C136 H152 0.931 . S
C137 C136 1.392 . S
C137 C138 1.331 . S
C137 H155 0.932 . S
C138 C137 1.331 . S
C138 C139 1.336 . S
C139 C135 1.394 . S
C139 C138 1.336 . S
C139 H154 0.929 . S
C140 C130 1.386 . S
C140 C133 1.357 . S
C140 H153 0.928 . S
H141 C117 0.931 . S
H142 C119 0.930 . S
H143 C121 0.929 . S
H144 C122 0.931 . S
H145 C124 0.930 . S
H146 C128 0.931 . S
H147 C126 0.931 . S
H148 C130 0.931 . S
H149 C131 0.929 . S
H150 C132 0.930 . S
H151 C135 0.930 . S
H152 C136 0.931 . S
H153 C140 0.928 . S
H154 C139 0.929 . S
H155 C137 0.932 . S
C156 C157 1.386 . S
C156 C158 1.397 1_545 S
C156 H180 0.931 . S
C157 C156 1.386 . S
C157 C161 1.397 1_545 S
C158 C156 1.397 1_565 S
C158 C159 1.384 . S
C158 H181 0.930 . S
C159 C158 1.384 . S
C159 C160 1.377 . S
C159 C162 1.481 . S
C160 C159 1.377 . S
C160 C161 1.389 . S
C160 H182 0.929 . S
C161 C157 1.397 1_565 S
C161 C160 1.389 . S
C161 H183 0.931 . S
C162 C159 1.481 . S
C162 C163 1.387 . S
C162 C167 1.390 1_556 S
C163 C162 1.387 . S
C163 C164 1.401 . S
C163 H184 0.930 . S
C164 C163 1.401 . S
C164 C165 1.376 1_556 S
C164 C173 1.511 . S
C165 C164 1.376 1_554 S
C165 C166 1.392 . S
C165 H186 0.931 . S
C166 C165 1.392 . S
C166 C167 1.361 . S
C166 C168 1.500 . S
C167 C162 1.390 1_554 S
C167 C166 1.361 . S
C167 H185 0.931 . S
C168 C166 1.500 . S
C168 C169 1.371 . S
C168 C170 1.365 . S
C169 C168 1.371 . S
C169 C179 1.386 . S
C169 H187 0.931 . S
C170 C168 1.365 . S
C170 C171 1.409 . S
C170 H188 0.929 . S
C171 C170 1.409 . S
C171 C172 1.380 . S
C171 H189 0.930 . S
C172 C171 1.380 . S
C172 C179 1.357 . S
C173 C164 1.511 . S
C173 C174 1.341 . S
C173 C175 1.371 . S
C174 C173 1.341 . S
C174 C178 1.394 . S
C174 H190 0.930 . S
C175 C173 1.371 . S
C175 C176 1.392 . S
C175 H191 0.931 1_556 S
C176 C175 1.392 . S
C176 C177 1.331 . S
C176 H194 0.932 . S
C177 C176 1.331 . S
C177 C178 1.336 . S
C178 C174 1.394 . S
C178 C177 1.336 . S
C178 H193 0.929 . S
C179 C169 1.386 . S
C179 C172 1.357 . S
C179 H192 0.928 . S
H180 C156 0.931 . S
H181 C158 0.930 . S
H182 C160 0.929 . S
H183 C161 0.931 . S
H184 C163 0.930 . S
H185 C167 0.931 . S
H186 C165 0.931 . S
H187 C169 0.931 . S
H188 C170 0.929 . S
H189 C171 0.930 . S
H190 C174 0.930 . S
H191 C175 0.931 1_554 S
H192 C179 0.928 . S
H193 C178 0.929 . S
H194 C176 0.932 . S
C195 C196 1.386 . S
C195 C197 1.397 1_565 S
C195 H219 0.931 . S
C196 C195 1.386 . S
C196 C200 1.397 1_565 S
C197 C195 1.397 1_545 S
C197 C198 1.384 . S
C197 H220 0.930 . S
C198 C197 1.384 . S
C198 C199 1.377 . S
C198 C201 1.481 . S
C199 C198 1.377 . S
C199 C200 1.389 . S
C199 H221 0.929 . S
C200 C196 1.397 1_545 S
C200 C199 1.389 . S
C200 H222 0.931 . S
C201 C198 1.481 . S
C201 C202 1.387 . S
C201 C206 1.390 . S
C202 C201 1.387 . S
C202 C203 1.401 . S
C202 H223 0.930 . S
C203 C202 1.401 . S
C203 C204 1.376 . S
C203 C212 1.511 . S
C204 C203 1.376 . S
C204 C205 1.392 . S
C204 H225 0.931 . S
C205 C204 1.392 . S
C205 C206 1.361 . S
C205 C207 1.500 . S
C206 C201 1.390 . S
C206 C205 1.361 . S
C206 H224 0.931 . S
C207 C205 1.500 . S
C207 C208 1.371 . S
C207 C209 1.365 . S
C208 C207 1.371 . S
C208 C218 1.386 . S
C208 H226 0.931 . S
C209 C207 1.365 . S
C209 C210 1.409 . S
C209 H227 0.929 . S
C210 C209 1.409 . S
C210 C211 1.380 . S
C210 H228 0.930 . S
C211 C210 1.380 . S
C211 C218 1.357 . S
C212 C203 1.511 . S
C212 C213 1.341 . S
C212 C214 1.371 . S
C213 C212 1.341 . S
C213 C217 1.394 . S
C213 H229 0.930 . S
C214 C212 1.371 . S
C214 C215 1.392 . S
C214 H230 0.931 . S
C215 C214 1.392 . S
C215 C216 1.331 . S
C215 H233 0.932 . S
C216 C215 1.331 . S
C216 C217 1.336 . S
C217 C213 1.394 . S
C217 C216 1.336 . S
C217 H232 0.929 . S
C218 C208 1.386 . S
C218 C211 1.357 . S
C218 H231 0.928 . S
H219 C195 0.931 . S
H220 C197 0.930 . S
H221 C199 0.929 . S
H222 C200 0.931 . S
H223 C202 0.930 . S
H224 C206 0.931 . S
H225 C204 0.931 . S
H226 C208 0.931 . S
H227 C209 0.929 . S
H228 C210 0.930 . S
H229 C213 0.930 . S
H230 C214 0.931 . S
H231 C218 0.928 . S
H232 C217 0.929 . S
H233 C215 0.932 . S
C234 C235 1.386 1_565 S
C234 C236 1.397 . S
C234 H258 0.931 . S
C235 C234 1.386 1_545 S
C235 C239 1.397 . S
C236 C234 1.397 . S
C236 C237 1.384 . S
C236 H259 0.930 . S
C237 C236 1.384 . S
C237 C238 1.377 . S
C237 C240 1.481 . S
C238 C237 1.377 . S
C238 C239 1.389 1_565 S
C238 H260 0.929 1_556 S
C239 C235 1.397 . S
C239 C238 1.389 1_545 S
C239 H261 0.931 . S
C240 C237 1.481 . S
C240 C241 1.387 . S
C240 C245 1.390 1_556 S
C241 C240 1.387 . S
C241 C242 1.401 . S
C241 H262 0.930 . S
C242 C241 1.401 . S
C242 C243 1.376 1_556 S
C242 C251 1.511 . S
C243 C242 1.376 1_554 S
C243 C244 1.392 . S
C243 H264 0.931 . S
C244 C243 1.392 . S
C244 C245 1.361 . S
C244 C246 1.500 . S
C245 C240 1.390 1_554 S
C245 C244 1.361 . S
C245 H263 0.931 . S
C246 C244 1.500 . S
C246 C247 1.371 . S
C246 C248 1.365 . S
C247 C246 1.371 . S
C247 C257 1.386 . S
C247 H265 0.931 . S
C248 C246 1.365 . S
C248 C249 1.409 . S
C248 H266 0.929 . S
C249 C248 1.409 . S
C249 C250 1.380 . S
C249 H267 0.930 . S
C250 C249 1.380 . S
C250 C257 1.357 . S
C251 C242 1.511 . S
C251 C252 1.341 . S
C251 C253 1.371 1_556 S
C252 C251 1.341 . S
C252 C256 1.394 . S
C252 H268 0.930 . S
C253 C251 1.371 1_554 S
C253 C254 1.392 1_554 S
C253 H269 0.931 . S
C254 C253 1.392 1_556 S
C254 C255 1.331 . S
C254 H272 0.932 1_556 S
C255 C254 1.331 . S
C255 C256 1.336 . S
C256 C252 1.394 . S
C256 C255 1.336 . S
C256 H271 0.929 . S
C257 C247 1.386 . S
C257 C250 1.357 . S
C257 H270 0.928 . S
H258 C234 0.931 . S
H259 C236 0.930 . S
H260 C238 0.929 1_554 S
H261 C239 0.931 . S
H262 C241 0.930 . S
H263 C245 0.931 . S
H264 C243 0.931 . S
H265 C247 0.931 . S
H266 C248 0.929 . S
H267 C249 0.930 . S
H268 C252 0.930 . S
H269 C253 0.931 . S
H270 C257 0.928 . S
H271 C256 0.929 . S
H272 C254 0.932 1_554 S
C273 C274 1.386 . S
C273 C275 1.397 . S
C273 H297 0.931 . S
C274 C273 1.386 . S
C274 C278 1.397 . S
C275 C273 1.397 . S
C275 C276 1.384 . S
C275 H298 0.930 . S
C276 C275 1.384 . S
C276 C277 1.377 . S
C276 C279 1.481 . S
C277 C276 1.377 . S
C277 C278 1.389 . S
C277 H299 0.929 . S
C278 C274 1.397 . S
C278 C277 1.389 . S
C278 H300 0.931 . S
C279 C276 1.481 . S
C279 C280 1.387 . S
C279 C284 1.390 . S
C280 C279 1.387 . S
C280 C281 1.401 . S
C280 H301 0.930 . S
C281 C280 1.401 . S
C281 C282 1.376 . S
C281 C290 1.511 . S
C282 C281 1.376 . S
C282 C283 1.392 . S
C282 H303 0.931 . S
C283 C282 1.392 . S
C283 C284 1.361 . S
C283 C285 1.500 . S
C284 C279 1.390 . S
C284 C283 1.361 . S
C284 H302 0.931 . S
C285 C283 1.500 . S
C285 C286 1.371 . S
C285 C287 1.365 . S
C286 C285 1.371 . S
C286 C296 1.368 1_545 S
C286 H304 0.931 . S
C287 C285 1.365 . S
C287 C288 1.409 . S
C287 H305 0.929 . S
C288 C287 1.409 . S
C288 C289 1.380 1_545 S
C288 H306 0.930 . S
C289 C288 1.380 1_565 S
C289 C296 1.362 . S
C290 C281 1.511 . S
C290 C291 1.341 . S
C290 C292 1.371 . S
C291 C290 1.341 . S
C291 C295 1.394 . S
C291 H307 0.930 . S
C292 C290 1.371 . S
C292 C293 1.392 . S
C292 H308 0.931 . S
C293 C292 1.392 . S
C293 C294 1.331 . S
C293 H311 0.932 . S
C294 C293 1.331 . S
C294 C295 1.336 . S
C295 C291 1.394 . S
C295 C294 1.336 . S
C295 H310 0.929 . S
C296 C286 1.368 1_565 S
C296 C289 1.362 . S
C296 H309 0.941 . S
H297 C273 0.931 . S
H298 C275 0.930 . S
H299 C277 0.929 . S
H300 C278 0.931 . S
H301 C280 0.930 . S
H302 C284 0.931 . S
H303 C282 0.931 . S
H304 C286 0.931 . S
H305 C287 0.929 . S
H306 C288 0.930 . S
H307 C291 0.930 . S
H308 C292 0.931 . S
H309 C296 0.941 . S
H310 C295 0.929 . S
H311 C293 0.932 . S
Sc312 O315 2.025 . S
Sc312 O322 2.105 1_455 S
Sc312 O325 2.105 . S
Sc312 O328 2.105 . S
Sc312 O331 2.105 1_455 S
Sc313 O315 2.025 . S
Sc313 O323 2.105 1_455 S
Sc313 O327 2.105 . S
Sc313 O329 2.105 . S
Sc313 O333 2.105 1_455 S
Sc314 O315 2.025 . S
Sc314 O324 2.105 1_455 S
Sc314 O326 2.105 . S
Sc314 O330 2.105 . S
Sc314 O332 2.105 1_455 S
O315 Sc312 2.025 . S
O315 Sc313 2.025 . S
O315 Sc314 2.025 . S
C316 O322 1.268 . S
C316 O332 1.268 . S
C317 O323 1.268 . S
C317 O331 1.268 . S
C318 O324 1.268 . S
C318 O333 1.268 . S
C319 O325 1.268 . S
C319 O329 1.268 . S
C320 O326 1.268 . S
C320 O328 1.268 . S
C321 O327 1.268 . S
C321 O330 1.268 . S
O322 Sc312 2.105 1_655 S
O322 C316 1.268 . S
O323 Sc313 2.105 1_655 S
O323 C317 1.268 . S
O324 Sc314 2.105 1_655 S
O324 C318 1.268 . S
O325 Sc312 2.105 . S
O325 C319 1.268 . S
O326 Sc314 2.105 . S
O326 C320 1.268 . S
O327 Sc313 2.105 . S
O327 C321 1.268 . S
O328 Sc312 2.105 . S
O328 C320 1.268 . S
O329 Sc313 2.105 . S
O329 C319 1.268 . S
O330 Sc314 2.105 . S
O330 C321 1.268 . S
O331 Sc312 2.105 1_655 S
O331 C317 1.268 . S
O332 Sc314 2.105 1_655 S
O332 C316 1.268 . S
O333 Sc313 2.105 1_655 S
O333 C318 1.268 . S
Sc334 O337 2.025 . S
Sc334 O344 2.105 . S
Sc334 O347 2.105 1_455 S
Sc334 O350 2.105 1_455 S
Sc334 O353 2.105 . S
Sc335 O337 2.025 . S
Sc335 O345 2.105 . S
Sc335 O349 2.105 1_455 S
Sc335 O351 2.105 1_455 S
Sc335 O355 2.105 . S
Sc336 O337 2.025 . S
Sc336 O346 2.105 . S
Sc336 O348 2.105 1_455 S
Sc336 O352 2.105 1_455 S
Sc336 O354 2.105 . S
O337 Sc334 2.025 . S
O337 Sc335 2.025 . S
O337 Sc336 2.025 . S
C338 O344 1.268 . S
C338 O354 1.268 . S
C339 O345 1.268 . S
C339 O353 1.268 . S
C340 O346 1.268 . S
C340 O355 1.268 . S
C341 O347 1.268 . S
C341 O351 1.268 . S
C342 O348 1.268 . S
C342 O350 1.268 . S
C343 O349 1.268 . S
C343 O352 1.268 . S
O344 Sc334 2.105 . S
O344 C338 1.268 . S
O345 Sc335 2.105 . S
O345 C339 1.268 . S
O346 Sc336 2.105 . S
O346 C340 1.268 . S
O347 Sc334 2.105 1_655 S
O347 C341 1.268 . S
O348 Sc336 2.105 1_655 S
O348 C342 1.268 . S
O349 Sc335 2.105 1_655 S
O349 C343 1.268 . S
O350 Sc334 2.105 1_655 S
O350 C342 1.268 . S
O351 Sc335 2.105 1_655 S
O351 C341 1.268 . S
O352 Sc336 2.105 1_655 S
O352 C343 1.268 . S
O353 Sc334 2.105 . S
O353 C339 1.268 . S
O354 Sc336 2.105 . S
O354 C338 1.268 . S
O355 Sc335 2.105 . S
O355 C340 1.268 . S
Sc356 O359 2.025 . S
Sc356 O366 2.105 . S
Sc356 O369 2.105 . S
Sc356 O372 2.105 . S
Sc356 O375 2.105 . S
Sc357 O359 2.025 . S
Sc357 O367 2.105 . S
Sc357 O371 2.105 . S
Sc357 O373 2.105 . S
Sc357 O377 2.105 . S
Sc358 O359 2.025 . S
Sc358 O368 2.105 . S
Sc358 O370 2.105 . S
Sc358 O374 2.105 . S
Sc358 O376 2.105 . S
O359 Sc356 2.025 . S
O359 Sc357 2.025 . S
O359 Sc358 2.025 . S
C360 O366 1.268 . S
C360 O376 1.268 . S
C361 O367 1.268 . S
C361 O375 1.268 . S
C362 O368 1.268 . S
C362 O377 1.268 . S
C363 O369 1.268 . S
C363 O373 1.268 . S
C364 O370 1.268 . S
C364 O372 1.268 . S
C365 O371 1.268 . S
C365 O374 1.268 . S
O366 Sc356 2.105 . S
O366 C360 1.268 . S
O367 Sc357 2.105 . S
O367 C361 1.268 . S
O368 Sc358 2.105 . S
O368 C362 1.268 . S
O369 Sc356 2.105 . S
O369 C363 1.268 . S
O370 Sc358 2.105 . S
O370 C364 1.268 . S
O371 Sc357 2.105 . S
O371 C365 1.268 . S
O372 Sc356 2.105 . S
O372 C364 1.268 . S
O373 Sc357 2.105 . S
O373 C363 1.268 . S
O374 Sc358 2.105 . S
O374 C365 1.268 . S
O375 Sc356 2.105 . S
O375 C361 1.268 . S
O376 Sc358 2.105 . S
O376 C360 1.268 . S
O377 Sc357 2.105 . S
O377 C362 1.268 . S
Sc378 O381 2.025 . S
Sc378 O388 2.105 . S
Sc378 O391 2.105 . S
Sc378 O394 2.105 . S
Sc378 O397 2.105 . S
Sc379 O381 2.025 . S
Sc379 O389 2.105 . S
Sc379 O393 2.105 . S
Sc379 O395 2.105 . S
Sc379 O399 2.105 . S
Sc380 O381 2.025 . S
Sc380 O390 2.105 . S
Sc380 O392 2.105 . S
Sc380 O396 2.105 . S
Sc380 O398 2.105 . S
O381 Sc378 2.025 . S
O381 Sc379 2.025 . S
O381 Sc380 2.025 . S
C382 O388 1.268 . S
C382 O398 1.268 . S
C383 O389 1.268 . S
C383 O397 1.268 . S
C384 O390 1.268 . S
C384 O399 1.268 . S
C385 O391 1.268 . S
C385 O395 1.268 . S
C386 O392 1.268 . S
C386 O394 1.268 . S
C387 O393 1.268 . S
C387 O396 1.268 . S
O388 Sc378 2.105 . S
O388 C382 1.268 . S
O389 Sc379 2.105 . S
O389 C383 1.268 . S
O390 Sc380 2.105 . S
O390 C384 1.268 . S
O391 Sc378 2.105 . S
O391 C385 1.268 . S
O392 Sc380 2.105 . S
O392 C386 1.268 . S
O393 Sc379 2.105 . S
O393 C387 1.268 . S
O394 Sc378 2.105 . S
O394 C386 1.268 . S
O395 Sc379 2.105 . S
O395 C385 1.268 . S
O396 Sc380 2.105 . S
O396 C387 1.268 . S
O397 Sc378 2.105 . S
O397 C383 1.268 . S
O398 Sc380 2.105 . S
O398 C382 1.268 . S
O399 Sc379 2.105 . S
O399 C384 1.268 . S
H400 C406 0.930 . S
H401 C409 0.930 . S
H402 C410 0.930 . S
H403 C411 0.930 . S
H404 C414 0.930 . S
H405 C415 0.930 . S
C406 H400 0.930 . S
C406 C407 1.355 . S
C406 C408 1.415 . S
C407 C406 1.355 . S
C407 C409 1.419 . S
C408 C406 1.415 . S
C408 C413 1.425 . S
C408 C415 1.409 . S
C409 H401 0.930 . S
C409 C407 1.419 . S
C409 C410 1.362 . S
C410 H402 0.930 . S
C410 C409 1.362 . S
C410 C413 1.409 . S
C411 H403 0.930 . S
C411 C412 1.355 . S
C411 C413 1.415 . S
C412 C411 1.355 . S
C412 C414 1.419 . S
C413 C408 1.425 . S
C413 C410 1.409 . S
C413 C411 1.415 . S
C414 H404 0.930 . S
C414 C412 1.419 . S
C414 C415 1.362 . S
C415 H405 0.930 . S
C415 C408 1.409 . S
C415 C414 1.362 . S
H416 C422 0.930 . S
H417 C425 0.930 . S
H418 C426 0.930 . S
H419 C427 0.930 . S
H420 C430 0.930 . S
H421 C431 0.930 . S
C422 H416 0.930 . S
C422 C423 1.355 . S
C422 C424 1.415 . S
C423 C422 1.355 . S
C423 C425 1.419 . S
C424 C422 1.415 . S
C424 C429 1.425 . S
C424 C431 1.409 . S
C425 H417 0.930 . S
C425 C423 1.419 . S
C425 C426 1.362 . S
C426 H418 0.930 . S
C426 C425 1.362 . S
C426 C429 1.409 . S
C427 H419 0.930 . S
C427 C428 1.355 . S
C427 C429 1.415 . S
C428 C427 1.355 . S
C428 C430 1.419 . S
C429 C424 1.425 . S
C429 C426 1.409 . S
C429 C427 1.415 . S
C430 H420 0.930 . S
C430 C428 1.419 . S
C430 C431 1.362 . S
C431 H421 0.930 . S
C431 C424 1.409 . S
C431 C430 1.362 . S
H432 C438 0.930 . S
H433 C441 0.930 . S
H434 C442 0.930 . S
H435 C443 0.930 . S
H436 C446 0.930 . S
H437 C447 0.930 . S
C438 H432 0.930 . S
C438 C439 1.355 . S
C438 C440 1.415 . S
C439 C438 1.355 . S
C439 C441 1.419 . S
C440 C438 1.415 . S
C440 C445 1.425 . S
C440 C447 1.409 . S
C441 H433 0.930 . S
C441 C439 1.419 . S
C441 C442 1.362 . S
C442 H434 0.930 . S
C442 C441 1.362 . S
C442 C445 1.409 . S
C443 H435 0.930 . S
C443 C444 1.355 . S
C443 C445 1.415 . S
C444 C443 1.355 . S
C444 C446 1.419 . S
C445 C440 1.425 . S
C445 C442 1.409 . S
C445 C443 1.415 . S
C446 H436 0.930 . S
C446 C444 1.419 . S
C446 C447 1.362 . S
C447 H437 0.930 . S
C447 C440 1.409 . S
C447 C446 1.362 . S
H448 C454 0.930 . S
H449 C457 0.930 . S
H450 C458 0.930 . S
H451 C459 0.930 . S
H452 C462 0.930 . S
H453 C463 0.930 . S
C454 H448 0.930 . S
C454 C455 1.355 . S
C454 C456 1.415 . S
C455 C454 1.355 . S
C455 C457 1.419 . S
C456 C454 1.415 . S
C456 C461 1.425 . S
C456 C463 1.409 . S
C457 H449 0.930 . S
C457 C455 1.419 . S
C457 C458 1.362 . S
C458 H450 0.930 . S
C458 C457 1.362 . S
C458 C461 1.409 . S
C459 H451 0.930 . S
C459 C460 1.355 . S
C459 C461 1.415 . S
C460 C459 1.355 . S
C460 C462 1.419 . S
C461 C456 1.425 . S
C461 C458 1.409 . S
C461 C459 1.415 . S
C462 H452 0.930 . S
C462 C460 1.419 . S
C462 C463 1.362 . S
C463 H453 0.930 . S
C463 C456 1.409 . S
C463 C462 1.362 . S
H464 C470 0.930 . S
H465 C473 0.930 . S
H466 C474 0.930 . S
H467 C475 0.930 . S
H468 C478 0.930 . S
H469 C479 0.930 . S
C470 H464 0.930 . S
C470 C471 1.355 . S
C470 C472 1.415 . S
C471 C470 1.355 . S
C471 C473 1.419 . S
C472 C470 1.415 . S
C472 C477 1.425 . S
C472 C479 1.409 . S
C473 H465 0.930 . S
C473 C471 1.419 . S
C473 C474 1.362 . S
C474 H466 0.930 . S
C474 C473 1.362 . S
C474 C477 1.409 . S
C475 H467 0.930 . S
C475 C476 1.355 . S
C475 C477 1.415 . S
C476 C475 1.355 . S
C476 C478 1.419 . S
C477 C472 1.425 . S
C477 C474 1.409 . S
C477 C475 1.415 . S
C478 H468 0.930 . S
C478 C476 1.419 . S
C478 C479 1.362 . S
C479 H469 0.930 . S
C479 C472 1.409 . S
C479 C478 1.362 . S
H480 C486 0.930 . S
H481 C489 0.930 . S
H482 C490 0.930 . S
H483 C491 0.930 . S
H484 C494 0.930 . S
H485 C495 0.930 . S
C486 H480 0.930 . S
C486 C487 1.355 . S
C486 C488 1.415 . S
C487 C486 1.355 . S
C487 C489 1.419 . S
C488 C486 1.415 . S
C488 C493 1.425 . S
C488 C495 1.409 . S
C489 H481 0.930 . S
C489 C487 1.419 . S
C489 C490 1.362 . S
C490 H482 0.930 . S
C490 C489 1.362 . S
C490 C493 1.409 . S
C491 H483 0.930 . S
C491 C492 1.355 . S
C491 C493 1.415 . S
C492 C491 1.355 . S
C492 C494 1.419 . S
C493 C488 1.425 . S
C493 C490 1.409 . S
C493 C491 1.415 . S
C494 H484 0.930 . S
C494 C492 1.419 . S
C494 C495 1.362 . S
C495 H485 0.930 . S
C495 C488 1.409 . S
C495 C494 1.362 . S
H496 C502 0.930 . S
H497 C505 0.930 . S
H498 C506 0.930 . S
H499 C507 0.930 . S
H500 C510 0.930 . S
H501 C511 0.930 . S
C502 H496 0.930 . S
C502 C503 1.355 . S
C502 C504 1.415 . S
C503 C502 1.355 . S
C503 C505 1.419 . S
C504 C502 1.415 . S
C504 C509 1.425 . S
C504 C511 1.409 . S
C505 H497 0.930 . S
C505 C503 1.419 . S
C505 C506 1.362 . S
C506 H498 0.930 . S
C506 C505 1.362 . S
C506 C509 1.409 . S
C507 H499 0.930 . S
C507 C508 1.355 . S
C507 C509 1.415 . S
C508 C507 1.355 . S
C508 C510 1.419 . S
C509 C504 1.425 . S
C509 C506 1.409 . S
C509 C507 1.415 . S
C510 H500 0.930 . S
C510 C508 1.419 . S
C510 C511 1.362 . S
C511 H501 0.930 . S
C511 C504 1.409 . S
C511 C510 1.362 . S
H512 C518 0.930 . S
H513 C521 0.930 . S
H514 C522 0.930 . S
H515 C523 0.930 . S
H516 C526 0.930 . S
H517 C527 0.930 . S
C518 H512 0.930 . S
C518 C519 1.355 . S
C518 C520 1.415 . S
C519 C518 1.355 . S
C519 C521 1.419 . S
C520 C518 1.415 . S
C520 C525 1.425 . S
C520 C527 1.409 . S
C521 H513 0.930 . S
C521 C519 1.419 . S
C521 C522 1.362 . S
C522 H514 0.930 . S
C522 C521 1.362 . S
C522 C525 1.409 . S
C523 H515 0.930 . S
C523 C524 1.355 . S
C523 C525 1.415 . S
C524 C523 1.355 . S
C524 C526 1.419 . S
C525 C520 1.425 . S
C525 C522 1.409 . S
C525 C523 1.415 . S
C526 H516 0.930 . S
C526 C524 1.419 . S
C526 C527 1.362 . S
C527 H517 0.930 . S
C527 C520 1.409 . S
C527 C526 1.362 . S
H528 C534 0.930 . S
H529 C537 0.930 . S
H530 C538 0.930 . S
H531 C539 0.930 . S
H532 C542 0.930 . S
H533 C543 0.930 . S
C534 H528 0.930 . S
C534 C535 1.355 . S
C534 C536 1.415 . S
C535 C534 1.355 . S
C535 C537 1.419 . S
C536 C534 1.415 . S
C536 C541 1.425 . S
C536 C543 1.409 . S
C537 H529 0.930 . S
C537 C535 1.419 . S
C537 C538 1.362 . S
C538 H530 0.930 . S
C538 C537 1.362 . S
C538 C541 1.409 . S
C539 H531 0.930 . S
C539 C540 1.355 . S
C539 C541 1.415 . S
C540 C539 1.355 . S
C540 C542 1.419 . S
C541 C536 1.425 . S
C541 C538 1.409 . S
C541 C539 1.415 . S
C542 H532 0.930 . S
C542 C540 1.419 . S
C542 C543 1.362 . S
C543 H533 0.930 . S
C543 C536 1.409 . S
C543 C542 1.362 . S
H544 C550 0.930 . S
H545 C553 0.930 . S
H546 C554 0.930 . S
H547 C555 0.930 . S
H548 C558 0.930 . S
H549 C559 0.930 . S
C550 H544 0.930 . S
C550 C551 1.355 . S
C550 C552 1.415 . S
C551 C550 1.355 . S
C551 C553 1.419 . S
C552 C550 1.415 . S
C552 C557 1.425 . S
C552 C559 1.409 . S
C553 H545 0.930 . S
C553 C551 1.419 . S
C553 C554 1.362 . S
C554 H546 0.930 . S
C554 C553 1.362 . S
C554 C557 1.409 . S
C555 H547 0.930 . S
C555 C556 1.355 . S
C555 C557 1.415 . S
C556 C555 1.355 . S
C556 C558 1.419 . S
C557 C552 1.425 . S
C557 C554 1.409 . S
C557 C555 1.415 . S
C558 H548 0.930 . S
C558 C556 1.419 . S
C558 C559 1.362 . S
C559 H549 0.930 . S
C559 C552 1.409 . S
C559 C558 1.362 . S
H560 C566 0.930 . S
H561 C569 0.930 . S
H562 C570 0.930 . S
H563 C571 0.930 . S
H564 C574 0.930 . S
H565 C575 0.930 . S
C566 H560 0.930 . S
C566 C567 1.355 . S
C566 C568 1.415 . S
C567 C566 1.355 . S
C567 C569 1.419 . S
C568 C566 1.415 . S
C568 C573 1.425 . S
C568 C575 1.409 . S
C569 H561 0.930 . S
C569 C567 1.419 . S
C569 C570 1.362 . S
C570 H562 0.930 . S
C570 C569 1.362 . S
C570 C573 1.409 . S
C571 H563 0.930 . S
C571 C572 1.355 . S
C571 C573 1.415 . S
C572 C571 1.355 . S
C572 C574 1.419 . S
C573 C568 1.425 . S
C573 C570 1.409 . S
C573 C571 1.415 . S
C574 H564 0.930 . S
C574 C572 1.419 . S
C574 C575 1.362 . S
C575 H565 0.930 . S
C575 C568 1.409 . S
C575 C574 1.362 . S
H576 C582 0.930 . S
H577 C585 0.930 . S
H578 C586 0.930 . S
H579 C587 0.930 . S
H580 C590 0.930 . S
H581 C591 0.930 . S
C582 H576 0.930 . S
C582 C583 1.355 . S
C582 C584 1.415 . S
C583 C582 1.355 . S
C583 C585 1.419 . S
C584 C582 1.415 . S
C584 C589 1.425 . S
C584 C591 1.409 . S
C585 H577 0.930 . S
C585 C583 1.419 . S
C585 C586 1.362 . S
C586 H578 0.930 . S
C586 C585 1.362 . S
C586 C589 1.409 . S
C587 H579 0.930 . S
C587 C588 1.355 . S
C587 C589 1.415 . S
C588 C587 1.355 . S
C588 C590 1.419 . S
C589 C584 1.425 . S
C589 C586 1.409 . S
C589 C587 1.415 . S
C590 H580 0.930 . S
C590 C588 1.419 . S
C590 C591 1.362 . S
C591 H581 0.930 . S
C591 C584 1.409 . S
C591 C590 1.362 . S
H592 C598 0.930 . S
H593 C601 0.930 . S
H594 C602 0.930 . S
H595 C603 0.930 . S
H596 C606 0.930 . S
H597 C607 0.930 . S
C598 H592 0.930 . S
C598 C599 1.355 . S
C598 C600 1.415 . S
C599 C598 1.355 . S
C599 C601 1.419 . S
C600 C598 1.415 . S
C600 C605 1.425 . S
C600 C607 1.409 . S
C601 H593 0.930 . S
C601 C599 1.419 . S
C601 C602 1.362 . S
C602 H594 0.930 . S
C602 C601 1.362 . S
C602 C605 1.409 . S
C603 H595 0.930 . S
C603 C604 1.355 . S
C603 C605 1.415 . S
C604 C603 1.355 . S
C604 C606 1.419 . S
C605 C600 1.425 . S
C605 C602 1.409 . S
C605 C603 1.415 . S
C606 H596 0.930 . S
C606 C604 1.419 . S
C606 C607 1.362 . S
C607 H597 0.930 . S
C607 C600 1.409 . S
C607 C606 1.362 . S
H608 C614 0.930 . S
H609 C617 0.930 . S
H610 C618 0.930 . S
H611 C619 0.930 . S
H612 C622 0.930 . S
H613 C623 0.930 . S
C614 H608 0.930 . S
C614 C615 1.355 . S
C614 C616 1.415 . S
C615 C614 1.355 . S
C615 C617 1.419 . S
C616 C614 1.415 . S
C616 C621 1.425 . S
C616 C623 1.409 . S
C617 H609 0.930 . S
C617 C615 1.419 . S
C617 C618 1.362 . S
C618 H610 0.930 . S
C618 C617 1.362 . S
C618 C621 1.409 . S
C619 H611 0.930 . S
C619 C620 1.355 . S
C619 C621 1.415 . S
C620 C619 1.355 . S
C620 C622 1.419 . S
C621 C616 1.425 . S
C621 C618 1.409 . S
C621 C619 1.415 . S
C622 H612 0.930 . S
C622 C620 1.419 . S
C622 C623 1.362 . S
C623 H613 0.930 . S
C623 C616 1.409 . S
C623 C622 1.362 . S
H624 C630 0.930 . S
H625 C633 0.930 . S
H626 C634 0.930 . S
H627 C635 0.930 . S
H628 C638 0.930 . S
H629 C639 0.930 . S
C630 H624 0.930 . S
C630 C631 1.355 . S
C630 C632 1.415 . S
C631 C630 1.355 . S
C631 C633 1.419 . S
C632 C630 1.415 . S
C632 C637 1.425 . S
C632 C639 1.409 . S
C633 H625 0.930 . S
C633 C631 1.419 . S
C633 C634 1.362 . S
C634 H626 0.930 . S
C634 C633 1.362 . S
C634 C637 1.409 . S
C635 H627 0.930 . S
C635 C636 1.355 . S
C635 C637 1.415 . S
C636 C635 1.355 . S
C636 C638 1.419 . S
C637 C632 1.425 . S
C637 C634 1.409 . S
C637 C635 1.415 . S
C638 H628 0.930 . S
C638 C636 1.419 . S
C638 C639 1.362 . S
C639 H629 0.930 . S
C639 C632 1.409 . S
C639 C638 1.362 . S
H640 C646 0.930 . S
H641 C649 0.930 1_545 S
H642 C650 0.930 . S
H643 C651 0.930 . S
H644 C654 0.930 . S
H645 C655 0.930 . S
C646 H640 0.930 . S
C646 C647 1.355 . S
C646 C648 1.415 . S
C647 C646 1.355 . S
C647 C649 1.419 . S
C648 C646 1.415 . S
C648 C653 1.425 . S
C648 C655 1.409 . S
C649 H641 0.930 1_565 S
C649 C647 1.419 . S
C649 C650 1.362 . S
C650 H642 0.930 . S
C650 C649 1.362 . S
C650 C653 1.409 . S
C651 H643 0.930 . S
C651 C652 1.355 . S
C651 C653 1.415 . S
C652 C651 1.355 . S
C652 C654 1.419 . S
C653 C648 1.425 . S
C653 C650 1.409 . S
C653 C651 1.415 . S
C654 H644 0.930 . S
C654 C652 1.419 . S
C654 C655 1.362 . S
C655 H645 0.930 . S
C655 C648 1.409 . S
C655 C654 1.362 . S
H656 C662 0.930 . S
H657 C665 0.930 . S
H658 C666 0.930 . S
H659 C667 0.930 . S
H660 C670 0.930 . S
H661 C671 0.930 . S
C662 H656 0.930 . S
C662 C663 1.355 . S
C662 C664 1.415 . S
C663 C662 1.355 . S
C663 C665 1.419 . S
C664 C662 1.415 . S
C664 C669 1.425 . S
C664 C671 1.409 . S
C665 H657 0.930 . S
C665 C663 1.419 . S
C665 C666 1.362 . S
C666 H658 0.930 . S
C666 C665 1.362 . S
C666 C669 1.409 . S
C667 H659 0.930 . S
C667 C668 1.355 . S
C667 C669 1.415 . S
C668 C667 1.355 . S
C668 C670 1.419 . S
C669 C664 1.425 . S
C669 C666 1.409 . S
C669 C667 1.415 . S
C670 H660 0.930 . S
C670 C668 1.419 . S
C670 C671 1.362 . S
C671 H661 0.930 . S
C671 C664 1.409 . S
C671 C670 1.362 . S
H672 C678 0.930 . S
H673 C681 0.930 . S
H674 C682 0.930 . S
H675 C683 0.930 . S
H676 C686 0.930 . S
H677 C687 0.930 . S
C678 H672 0.930 . S
C678 C679 1.355 . S
C678 C680 1.415 . S
C679 C678 1.355 . S
C679 C681 1.419 . S
C680 C678 1.415 . S
C680 C685 1.425 . S
C680 C687 1.409 . S
C681 H673 0.930 . S
C681 C679 1.419 . S
C681 C682 1.362 . S
C682 H674 0.930 . S
C682 C681 1.362 . S
C682 C685 1.409 . S
C683 H675 0.930 . S
C683 C684 1.355 . S
C683 C685 1.415 . S
C684 C683 1.355 . S
C684 C686 1.419 . S
C685 C680 1.425 . S
C685 C682 1.409 . S
C685 C683 1.415 . S
C686 H676 0.930 . S
C686 C684 1.419 . S
C686 C687 1.362 . S
C687 H677 0.930 . S
C687 C680 1.409 . S
C687 C686 1.362 . S
H688 C694 0.930 . S
H689 C697 0.930 . S
H690 C698 0.930 . S
H691 C699 0.930 . S
H692 C702 0.930 . S
H693 C703 0.930 . S
C694 H688 0.930 . S
C694 C695 1.355 . S
C694 C696 1.415 . S
C695 C694 1.355 . S
C695 C697 1.419 . S
C696 C694 1.415 . S
C696 C701 1.425 . S
C696 C703 1.409 . S
C697 H689 0.930 . S
C697 C695 1.419 . S
C697 C698 1.362 . S
C698 H690 0.930 . S
C698 C697 1.362 . S
C698 C701 1.409 . S
C699 H691 0.930 . S
C699 C700 1.355 . S
C699 C701 1.415 . S
C700 C699 1.355 . S
C700 C702 1.419 . S
C701 C696 1.425 . S
C701 C698 1.409 . S
C701 C699 1.415 . S
C702 H692 0.930 . S
C702 C700 1.419 . S
C702 C703 1.362 . S
C703 H693 0.930 . S
C703 C696 1.409 . S
C703 C702 1.362 . S
H704 C710 0.930 . S
H705 C713 0.930 . S
H706 C714 0.930 . S
H707 C715 0.930 . S
H708 C718 0.930 . S
H709 C719 0.930 . S
C710 H704 0.930 . S
C710 C711 1.355 . S
C710 C712 1.415 . S
C711 C710 1.355 . S
C711 C713 1.419 . S
C712 C710 1.415 . S
C712 C717 1.425 . S
C712 C719 1.409 . S
C713 H705 0.930 . S
C713 C711 1.419 . S
C713 C714 1.362 . S
C714 H706 0.930 . S
C714 C713 1.362 . S
C714 C717 1.409 . S
C715 H707 0.930 . S
C715 C716 1.355 . S
C715 C717 1.415 . S
C716 C715 1.355 . S
C716 C718 1.419 . S
C717 C712 1.425 . S
C717 C714 1.409 . S
C717 C715 1.415 . S
C718 H708 0.930 . S
C718 C716 1.419 . S
C718 C719 1.362 . S
C719 H709 0.930 . S
C719 C712 1.409 . S
C719 C718 1.362 . S
H720 C726 0.930 . S
H721 C729 0.930 . S
H722 C730 0.930 . S
H723 C731 0.930 . S
H724 C734 0.930 . S
H725 C735 0.930 . S
C726 H720 0.930 . S
C726 C727 1.355 . S
C726 C728 1.415 . S
C727 C726 1.355 . S
C727 C729 1.419 . S
C728 C726 1.415 . S
C728 C733 1.425 . S
C728 C735 1.409 . S
C729 H721 0.930 . S
C729 C727 1.419 . S
C729 C730 1.362 . S
C730 H722 0.930 . S
C730 C729 1.362 . S
C730 C733 1.409 . S
C731 H723 0.930 . S
C731 C732 1.355 . S
C731 C733 1.415 . S
C732 C731 1.355 . S
C732 C734 1.419 . S
C733 C728 1.425 . S
C733 C730 1.409 . S
C733 C731 1.415 . S
C734 H724 0.930 . S
C734 C732 1.419 . S
C734 C735 1.362 . S
C735 H725 0.930 . S
C735 C728 1.409 . S
C735 C734 1.362 . S
H736 C742 0.930 . S
H737 C745 0.930 . S
H738 C746 0.930 . S
H739 C747 0.930 . S
H740 C750 0.930 . S
H741 C751 0.930 . S
C742 H736 0.930 . S
C742 C743 1.355 . S
C742 C744 1.415 . S
C743 C742 1.355 . S
C743 C745 1.419 . S
C744 C742 1.415 . S
C744 C749 1.425 . S
C744 C751 1.409 . S
C745 H737 0.930 . S
C745 C743 1.419 . S
C745 C746 1.362 . S
C746 H738 0.930 . S
C746 C745 1.362 . S
C746 C749 1.409 . S
C747 H739 0.930 . S
C747 C748 1.355 . S
C747 C749 1.415 . S
C748 C747 1.355 . S
C748 C750 1.419 . S
C749 C744 1.425 . S
C749 C746 1.409 . S
C749 C747 1.415 . S
C750 H740 0.930 . S
C750 C748 1.419 . S
C750 C751 1.362 . S
C751 H741 0.930 . S
C751 C744 1.409 . S
C751 C750 1.362 . S
H752 C758 0.930 . S
H753 C761 0.930 . S
H754 C762 0.930 . S
H755 C763 0.930 . S
H756 C766 0.930 . S
H757 C767 0.930 . S
C758 H752 0.930 . S
C758 C759 1.355 . S
C758 C760 1.415 . S
C759 C758 1.355 . S
C759 C761 1.419 . S
C760 C758 1.415 . S
C760 C765 1.425 . S
C760 C767 1.409 . S
C761 H753 0.930 . S
C761 C759 1.419 . S
C761 C762 1.362 . S
C762 H754 0.930 . S
C762 C761 1.362 . S
C762 C765 1.409 . S
C763 H755 0.930 . S
C763 C764 1.355 . S
C763 C765 1.415 . S
C764 C763 1.355 . S
C764 C766 1.419 . S
C765 C760 1.425 . S
C765 C762 1.409 . S
C765 C763 1.415 . S
C766 H756 0.930 . S
C766 C764 1.419 . S
C766 C767 1.362 . S
C767 H757 0.930 . S
C767 C760 1.409 . S
C767 C766 1.362 . S
H768 C774 0.930 . S
H769 C777 0.930 . S
H770 C778 0.930 . S
H771 C779 0.930 . S
H772 C782 0.930 . S
H773 C783 0.930 . S
C774 H768 0.930 . S
C774 C775 1.355 . S
C774 C776 1.415 . S
C775 C774 1.355 . S
C775 C777 1.419 . S
C776 C774 1.415 . S
C776 C781 1.425 . S
C776 C783 1.409 . S
C777 H769 0.930 . S
C777 C775 1.419 . S
C777 C778 1.362 . S
C778 H770 0.930 . S
C778 C777 1.362 . S
C778 C781 1.409 . S
C779 H771 0.930 . S
C779 C780 1.355 . S
C779 C781 1.415 . S
C780 C779 1.355 . S
C780 C782 1.419 . S
C781 C776 1.425 . S
C781 C778 1.409 . S
C781 C779 1.415 . S
C782 H772 0.930 . S
C782 C780 1.419 . S
C782 C783 1.362 . S
C783 H773 0.930 . S
C783 C776 1.409 . S
C783 C782 1.362 . S
C407 C21 1.574 . S
C412 C338 1.553 . S
C428 C316 1.551 . S
C423 C60 1.572 . S
C444 C342 1.548 . S
C439 C99 1.565 . S
C460 C320 1.488 . S
C455 C138 1.535 . S
C476 C382 1.512 . S
C471 C177 1.550 . S
C492 C360 1.552 . S
C487 C216 1.574 . S
C503 C255 1.530 . S
C508 C386 1.492 . S
C524 C364 1.492 . S
C519 C294 1.538 . S
C535 C1 1.576 . S
C540 C387 1.573 . S
C556 C365 1.568 . S
C551 C40 1.587 . S
C567 C79 1.555 . S
C572 C384 1.593 . S
C583 C133 1.525 . S
C588 C362 1.590 . S
C604 C343 1.577 . S
C599 C157 1.570 . S
C615 C196 1.538 . S
C620 C321 1.595 . S
C636 C340 1.597 . S
C631 C235 1.543 . S
C652 C318 1.590 . S
C647 C289 1.525 . S
C668 C361 1.575 . S
C663 C16 1.520 . S
C684 C383 1.540 . S
C679 C55 1.557 . S
C695 C94 1.521 . S
C700 C363 1.575 . S
C716 C385 1.577 . S
C711 C118 1.522 . S
C732 C317 1.575 . S
C727 C172 1.512 . S
C743 C211 1.532 . S
C748 C339 1.572 . S
C759 C250 1.520 . S
C764 C319 1.575 . S
C775 C274 1.567 . S
C780 C341 1.543 . S
