# Generated by pormake.
# Topology ptr, (4,4)-cn, num edge types: 1
# Building blocks:
#     Node 0, Type 0, BuildingBlock: TATPOV_clean_sbu_0, # of connection points: 4
#     Node 1, Type 0, BuildingBlock: TATPOV_clean_sbu_0, # of connection points: 4
#     Node 2, Type 0, BuildingBlock: TATPOV_clean_sbu_0, # of connection points: 4
#     Node 3, Type 0, BuildingBlock: TATPOV_clean_sbu_0, # of connection points: 4
#     Node 4, Type 0, BuildingBlock: TATPOV_clean_sbu_0, # of connection points: 4
#     Node 5, Type 0, BuildingBlock: TATPOV_clean_sbu_0, # of connection points: 4
#     Node 6, Type 0, BuildingBlock: TATPOV_clean_sbu_0, # of connection points: 4
#     Node 7, Type 0, BuildingBlock: TATPOV_clean_sbu_0, # of connection points: 4
#     Node 8, Type 0, BuildingBlock: TATPOV_clean_sbu_0, # of connection points: 4
#     Node 9, Type 0, BuildingBlock: TATPOV_clean_sbu_0, # of connection points: 4
#     Node 10, Type 0, BuildingBlock: TATPOV_clean_sbu_0, # of connection points: 4
#     Node 11, Type 0, BuildingBlock: TATPOV_clean_sbu_0, # of connection points: 4
#     Node 12, Type 0, BuildingBlock: TATPOV_clean_sbu_0, # of connection points: 4
#     Node 13, Type 0, BuildingBlock: TATPOV_clean_sbu_0, # of connection points: 4
#     Node 14, Type 0, BuildingBlock: TATPOV_clean_sbu_0, # of connection points: 4
#     Node 15, Type 0, BuildingBlock: TATPOV_clean_sbu_0, # of connection points: 4
#     Node 16, Type 0, BuildingBlock: TATPOV_clean_sbu_0, # of connection points: 4
#     Node 17, Type 0, BuildingBlock: TATPOV_clean_sbu_0, # of connection points: 4
#     Node 18, Type 1, BuildingBlock: NAWXER_clean_linker_0, # of connection points: 4
#     Node 19, Type 1, BuildingBlock: NAWXER_clean_linker_0, # of connection points: 4
#     Node 20, Type 1, BuildingBlock: NAWXER_clean_linker_0, # of connection points: 4
#     Node 21, Type 1, BuildingBlock: NAWXER_clean_linker_0, # of connection points: 4
#     Node 22, Type 1, BuildingBlock: NAWXER_clean_linker_0, # of connection points: 4
#     Node 23, Type 1, BuildingBlock: NAWXER_clean_linker_0, # of connection points: 4
#     Node 24, Type 1, BuildingBlock: NAWXER_clean_linker_0, # of connection points: 4
#     Node 25, Type 1, BuildingBlock: NAWXER_clean_linker_0, # of connection points: 4
#     Node 26, Type 1, BuildingBlock: NAWXER_clean_linker_0, # of connection points: 4
#     Node 27, Type 1, BuildingBlock: NAWXER_clean_linker_0, # of connection points: 4
#     Node 28, Type 1, BuildingBlock: NAWXER_clean_linker_0, # of connection points: 4
#     Node 29, Type 1, BuildingBlock: NAWXER_clean_linker_0, # of connection points: 4
#     Node 30, Type 1, BuildingBlock: NAWXER_clean_linker_0, # of connection points: 4
#     Node 31, Type 1, BuildingBlock: NAWXER_clean_linker_0, # of connection points: 4
#     Node 32, Type 1, BuildingBlock: NAWXER_clean_linker_0, # of connection points: 4
#     Node 33, Type 1, BuildingBlock: NAWXER_clean_linker_0, # of connection points: 4
#     Node 34, Type 1, BuildingBlock: NAWXER_clean_linker_0, # of connection points: 4
#     Node 35, Type 1, BuildingBlock: NAWXER_clean_linker_0, # of connection points: 4
#     Edge 36, Type (0, 1), BuildingBlock: KIFKEQ_clean_linker_1, # of connection points: 2
#     Edge 37, Type (0, 1), BuildingBlock: KIFKEQ_clean_linker_1, # of connection points: 2
#     Edge 38, Type (0, 1), BuildingBlock: KIFKEQ_clean_linker_1, # of connection points: 2
#     Edge 39, Type (0, 1), BuildingBlock: KIFKEQ_clean_linker_1, # of connection points: 2
#     Edge 40, Type (0, 1), BuildingBlock: KIFKEQ_clean_linker_1, # of connection points: 2
#     Edge 41, Type (0, 1), BuildingBlock: KIFKEQ_clean_linker_1, # of connection points: 2
#     Edge 42, Type (0, 1), BuildingBlock: KIFKEQ_clean_linker_1, # of connection points: 2
#     Edge 43, Type (0, 1), BuildingBlock: KIFKEQ_clean_linker_1, # of connection points: 2
#     Edge 44, Type (0, 1), BuildingBlock: KIFKEQ_clean_linker_1, # of connection points: 2
#     Edge 45, Type (0, 1), BuildingBlock: KIFKEQ_clean_linker_1, # of connection points: 2
#     Edge 46, Type (0, 1), BuildingBlock: KIFKEQ_clean_linker_1, # of connection points: 2
#     Edge 47, Type (0, 1), BuildingBlock: KIFKEQ_clean_linker_1, # of connection points: 2
#     Edge 48, Type (0, 1), BuildingBlock: KIFKEQ_clean_linker_1, # of connection points: 2
#     Edge 49, Type (0, 1), BuildingBlock: KIFKEQ_clean_linker_1, # of connection points: 2
#     Edge 50, Type (0, 1), BuildingBlock: KIFKEQ_clean_linker_1, # of connection points: 2
#     Edge 51, Type (0, 1), BuildingBlock: KIFKEQ_clean_linker_1, # of connection points: 2
#     Edge 52, Type (0, 1), BuildingBlock: KIFKEQ_clean_linker_1, # of connection points: 2
#     Edge 53, Type (0, 1), BuildingBlock: KIFKEQ_clean_linker_1, # of connection points: 2
#     Edge 54, Type (0, 1), BuildingBlock: KIFKEQ_clean_linker_1, # of connection points: 2
#     Edge 55, Type (0, 1), BuildingBlock: KIFKEQ_clean_linker_1, # of connection points: 2
#     Edge 56, Type (0, 1), BuildingBlock: KIFKEQ_clean_linker_1, # of connection points: 2
#     Edge 57, Type (0, 1), BuildingBlock: KIFKEQ_clean_linker_1, # of connection points: 2
#     Edge 58, Type (0, 1), BuildingBlock: KIFKEQ_clean_linker_1, # of connection points: 2
#     Edge 59, Type (0, 1), BuildingBlock: KIFKEQ_clean_linker_1, # of connection points: 2
#     Edge 60, Type (0, 1), BuildingBlock: KIFKEQ_clean_linker_1, # of connection points: 2
#     Edge 61, Type (0, 1), BuildingBlock: KIFKEQ_clean_linker_1, # of connection points: 2
#     Edge 62, Type (0, 1), BuildingBlock: KIFKEQ_clean_linker_1, # of connection points: 2
#     Edge 63, Type (0, 1), BuildingBlock: KIFKEQ_clean_linker_1, # of connection points: 2
#     Edge 64, Type (0, 1), BuildingBlock: KIFKEQ_clean_linker_1, # of connection points: 2
#     Edge 65, Type (0, 1), BuildingBlock: KIFKEQ_clean_linker_1, # of connection points: 2
#     Edge 66, Type (0, 1), BuildingBlock: KIFKEQ_clean_linker_1, # of connection points: 2
#     Edge 67, Type (0, 1), BuildingBlock: KIFKEQ_clean_linker_1, # of connection points: 2
#     Edge 68, Type (0, 1), BuildingBlock: KIFKEQ_clean_linker_1, # of connection points: 2
#     Edge 69, Type (0, 1), BuildingBlock: KIFKEQ_clean_linker_1, # of connection points: 2
#     Edge 70, Type (0, 1), BuildingBlock: KIFKEQ_clean_linker_1, # of connection points: 2
#     Edge 71, Type (0, 1), BuildingBlock: KIFKEQ_clean_linker_1, # of connection points: 2
#     Edge 72, Type (0, 1), BuildingBlock: KIFKEQ_clean_linker_1, # of connection points: 2
#     Edge 73, Type (0, 1), BuildingBlock: KIFKEQ_clean_linker_1, # of connection points: 2
#     Edge 74, Type (0, 1), BuildingBlock: KIFKEQ_clean_linker_1, # of connection points: 2
#     Edge 75, Type (0, 1), BuildingBlock: KIFKEQ_clean_linker_1, # of connection points: 2
#     Edge 76, Type (0, 1), BuildingBlock: KIFKEQ_clean_linker_1, # of connection points: 2
#     Edge 77, Type (0, 1), BuildingBlock: KIFKEQ_clean_linker_1, # of connection points: 2
#     Edge 78, Type (0, 1), BuildingBlock: KIFKEQ_clean_linker_1, # of connection points: 2
#     Edge 79, Type (0, 1), BuildingBlock: KIFKEQ_clean_linker_1, # of connection points: 2
#     Edge 80, Type (0, 1), BuildingBlock: KIFKEQ_clean_linker_1, # of connection points: 2
#     Edge 81, Type (0, 1), BuildingBlock: KIFKEQ_clean_linker_1, # of connection points: 2
#     Edge 82, Type (0, 1), BuildingBlock: KIFKEQ_clean_linker_1, # of connection points: 2
#     Edge 83, Type (0, 1), BuildingBlock: KIFKEQ_clean_linker_1, # of connection points: 2
#     Edge 84, Type (0, 1), BuildingBlock: KIFKEQ_clean_linker_1, # of connection points: 2
#     Edge 85, Type (0, 1), BuildingBlock: KIFKEQ_clean_linker_1, # of connection points: 2
#     Edge 86, Type (0, 1), BuildingBlock: KIFKEQ_clean_linker_1, # of connection points: 2
#     Edge 87, Type (0, 1), BuildingBlock: KIFKEQ_clean_linker_1, # of connection points: 2
#     Edge 88, Type (0, 1), BuildingBlock: KIFKEQ_clean_linker_1, # of connection points: 2
#     Edge 89, Type (0, 1), BuildingBlock: KIFKEQ_clean_linker_1, # of connection points: 2
#     Edge 90, Type (0, 1), BuildingBlock: KIFKEQ_clean_linker_1, # of connection points: 2
#     Edge 91, Type (0, 1), BuildingBlock: KIFKEQ_clean_linker_1, # of connection points: 2
#     Edge 92, Type (0, 1), BuildingBlock: KIFKEQ_clean_linker_1, # of connection points: 2
#     Edge 93, Type (0, 1), BuildingBlock: KIFKEQ_clean_linker_1, # of connection points: 2
#     Edge 94, Type (0, 1), BuildingBlock: KIFKEQ_clean_linker_1, # of connection points: 2
#     Edge 95, Type (0, 1), BuildingBlock: KIFKEQ_clean_linker_1, # of connection points: 2
#     Edge 96, Type (0, 1), BuildingBlock: KIFKEQ_clean_linker_1, # of connection points: 2
#     Edge 97, Type (0, 1), BuildingBlock: KIFKEQ_clean_linker_1, # of connection points: 2
#     Edge 98, Type (0, 1), BuildingBlock: KIFKEQ_clean_linker_1, # of connection points: 2
#     Edge 99, Type (0, 1), BuildingBlock: KIFKEQ_clean_linker_1, # of connection points: 2
#     Edge 100, Type (0, 1), BuildingBlock: KIFKEQ_clean_linker_1, # of connection points: 2
#     Edge 101, Type (0, 1), BuildingBlock: KIFKEQ_clean_linker_1, # of connection points: 2
#     Edge 102, Type (0, 1), BuildingBlock: KIFKEQ_clean_linker_1, # of connection points: 2
#     Edge 103, Type (0, 1), BuildingBlock: KIFKEQ_clean_linker_1, # of connection points: 2
#     Edge 104, Type (0, 1), BuildingBlock: KIFKEQ_clean_linker_1, # of connection points: 2
#     Edge 105, Type (0, 1), BuildingBlock: KIFKEQ_clean_linker_1, # of connection points: 2
#     Edge 106, Type (0, 1), BuildingBlock: KIFKEQ_clean_linker_1, # of connection points: 2
#     Edge 107, Type (0, 1), BuildingBlock: KIFKEQ_clean_linker_1, # of connection points: 2
# Relax obj value: 0.067
# Max RMSD: 0.243
# Mean RMSD: 0.106
data_MOF--net-ptr--node1-TATPOV_clean_sbu_0--node2-NAWXER_clean_linker_0--edge1-KIFKEQ_clean_linker_1
_symmetry_space_group_name_H-M    P1
_symmetry_Int_Tables_number       1
_symmetry_cell_setting            triclinic
loop_
_symmetry_equiv_pos_as_xyz
'x, y, z'
_cell_length_a     88.158271
_cell_length_b     89.379974
_cell_length_c     63.953688
_cell_angle_alpha  89.747743
_cell_angle_beta   90.64652
_cell_angle_gamma 121.46118
loop_
_atom_site_label
_atom_site_type_symbol
_atom_site_fract_x
_atom_site_fract_y
_atom_site_fract_z
_atom_type_partial_charge
Zn0 Zn 0.96331 0.34911 0.00143 0.0
Zn1 Zn 0.9948 0.35292 0.01058 0.0
O2 O 0.97828 0.32693 0.00226 0.0
O3 O 0.95164 0.323 0.99826 0.0
O4 O 0.01688 0.35346 0.02048 0.0
O5 O 0.96309 0.35994 0.02894 0.0
O6 O 0.98855 0.36214 0.03659 0.0
C7 C 0.96175 0.31689 0.99826 0.0
C8 C 0.99208 0.37198 0.97298 0.0
O9 O 0.00202 0.36954 0.98538 0.0
O10 O 0.97552 0.36449 0.97626 0.0
C11 C 0.02208 0.34402 0.01221 0.0
O12 O 0.01377 0.33472 0.99549 0.0
C13 C 0.97593 0.36441 0.04156 0.0
Zn14 Zn 0.6544 0.61739 1.00045 0.0
Zn15 Zn 0.65095 0.64436 0.01242 0.0
O16 O 0.67734 0.65585 0.0039 0.0
O17 O 0.68042 0.63368 0.99572 0.0
O18 O 0.6498 0.66484 0.02364 0.0
O19 O 0.64651 0.60612 0.02872 0.0
O20 O 0.64297 0.62783 0.03794 0.0
C21 C 0.68704 0.64999 0.99803 0.0
C22 C 0.62929 0.62201 0.97523 0.0
O23 O 0.63317 0.63458 0.98779 0.0
O24 O 0.6366 0.61306 0.97731 0.0
C25 C 0.65927 0.68029 0.01642 0.0
O26 O 0.66945 0.68298 1.00025 0.0
C27 C 0.64215 0.61348 0.0422 0.0
Zn28 Zn 0.3426 0.96473 0.018 0.0
Zn29 Zn 0.347 0.99681 0.01736 0.0
O30 O 0.32134 0.97983 0.02687 0.0
O31 O 0.31696 0.95326 0.02652 0.0
O32 O 0.34612 0.01869 0.01297 0.0
O33 O 0.34891 0.96631 0.98758 0.0
O34 O 0.3547 0.99341 0.9883 0.0
C35 C 0.31121 0.96338 0.02973 0.0
C36 C 0.36986 0.99084 0.04727 0.0
O37 O 0.3654 0.00144 0.04036 0.0
O38 O 0.36234 0.97531 0.04012 0.0
C39 C 0.35838 0.03299 0.00519 0.0
O40 O 0.37388 0.03486 0.00126 0.0
C41 C 0.35445 0.98087 0.97856 0.0
Zn42 Zn 0.04857 0.65977 0.01528 0.0
Zn43 Zn 0.01589 0.65455 0.00827 0.0
O44 O 0.03251 0.68034 0.01661 0.0
O45 O 0.05982 0.6859 0.01956 0.0
O46 O 0.99482 0.65574 0.99838 0.0
O47 O 0.04832 0.64974 0.98667 0.0
O48 O 0.02123 0.64466 0.98237 0.0
C49 C 0.04896 0.6911 0.02026 0.0
C50 C 0.01982 0.63582 0.04468 0.0
O51 O 0.00919 0.63813 0.0334 0.0
O52 O 0.03622 0.64348 0.04021 0.0
C53 C 0.97862 0.64804 0.00369 0.0
O54 O 0.9727 0.63613 0.0185 0.0
C55 C 0.03423 0.64365 0.97575 0.0
Zn56 Zn 0.34981 0.38944 0.03406 0.0
Zn57 Zn 0.3486 0.36233 0.01543 0.0
O58 O 0.32291 0.35261 0.02546 0.0
O59 O 0.32316 0.37598 0.03668 0.0
O60 O 0.34678 0.34152 0.00079 0.0
O61 O 0.36161 0.40449 0.00881 0.0
O62 O 0.35772 0.38119 0.99221 0.0
C63 C 0.31477 0.3597 0.03282 0.0
C64 C 0.37104 0.37799 0.0551 0.0
O65 O 0.36671 0.36785 0.03932 0.0
O66 O 0.36485 0.3879 0.05704 0.0
C67 C 0.34005 0.32678 0.00995 0.0
O68 O 0.33457 0.32536 0.02929 0.0
C69 C 0.36289 0.39744 0.99233 0.0
Zn70 Zn 0.65252 0.03192 1.00024 0.0
Zn71 Zn 0.64818 0.00084 0.00852 0.0
O72 O 0.67459 0.01681 0.99985 0.0
O73 O 0.67876 0.04321 0.99686 0.0
O74 O 0.64704 0.9786 0.01766 0.0
O75 O 0.64245 0.0327 0.02792 0.0
O76 O 0.63987 0.00742 0.03524 0.0
C77 C 0.68484 0.03316 0.99633 0.0
C78 C 0.6281 0.00411 0.97183 0.0
O79 O 0.63044 0.99405 0.98387 0.0
O80 O 0.63639 0.02049 0.97516 0.0
C81 C 0.65675 0.97343 0.00987 0.0
O82 O 0.66708 0.98206 0.99408 0.0
C83 C 0.63807 0.02016 0.0405 0.0
Zn84 Zn 0.61788 0.67729 0.3449 0.0
Zn85 Zn 0.64972 0.68172 0.3539 0.0
O86 O 0.63279 0.6558 0.34606 0.0
O87 O 0.60575 0.65093 0.34276 0.0
O88 O 0.67043 0.68032 0.36486 0.0
O89 O 0.61819 0.6892 0.37194 0.0
O90 O 0.64404 0.69211 0.37914 0.0
C91 C 0.61625 0.64528 0.34261 0.0
C92 C 0.64702 0.69944 0.31551 0.0
O93 O 0.65735 0.69777 0.32813 0.0
O94 O 0.63049 0.69183 0.31912 0.0
C95 C 0.68617 0.68667 0.35831 0.0
O96 O 0.69148 0.69677 0.34169 0.0
C97 C 0.63146 0.69444 0.38411 0.0
Zn98 Zn 0.31884 0.95293 0.33954 0.0
Zn99 Zn 0.31826 0.98076 0.35249 0.0
O100 O 0.3444 0.99065 0.34369 0.0
O101 O 0.3453 0.96697 0.33707 0.0
O102 O 0.31884 0.00192 0.36443 0.0
O103 O 0.30793 0.93997 0.36617 0.0
O104 O 0.30924 0.96376 0.3777 0.0
C105 C 0.35312 0.98347 0.33871 0.0
C106 C 0.29698 0.96117 0.31372 0.0
O107 O 0.30057 0.97276 0.32764 0.0
O108 O 0.30364 0.9516 0.31494 0.0
C109 C 0.32842 0.01725 0.35692 0.0
O110 O 0.33784 0.01948 0.34014 0.0
C111 C 0.30554 0.94809 0.38067 0.0
Zn112 Zn 0.02306 0.30681 0.37234 0.0
Zn113 Zn 0.02226 0.335 0.35948 0.0
O114 O 0.99675 0.31767 0.37019 0.0
O115 O 0.99752 0.29454 0.38044 0.0
O116 O 0.01978 0.35455 0.34743 0.0
O117 O 0.02955 0.30321 0.34342 0.0
O118 O 0.03026 0.32722 0.33365 0.0
C119 C 0.98903 0.3023 0.37801 0.0
C120 C 0.04738 0.3389 0.39507 0.0
O121 O 0.04143 0.34602 0.38282 0.0
O122 O 0.0417 0.32267 0.39356 0.0
C123 C 0.03207 0.37061 0.34643 0.0
O124 O 0.0478 0.37564 0.35447 0.0
C125 C 0.03221 0.3144 0.32949 0.0
Zn126 Zn 0.71505 0.99517 0.34632 0.0
Zn127 Zn 0.68127 0.98809 0.34294 0.0
O128 O 0.69644 0.0144 0.34978 0.0
O129 O 0.72412 0.02081 0.35198 0.0
O130 O 0.65736 0.98474 0.33575 0.0
O131 O 0.71437 0.98647 0.31694 0.0
O132 O 0.68632 0.97898 0.31607 0.0
C133 C 0.71287 0.02554 0.35297 0.0
C134 C 0.68938 0.96986 0.37698 0.0
O135 O 0.67804 0.97272 0.36831 0.0
O136 O 0.70522 0.97745 0.37032 0.0
C137 C 0.65144 0.99356 0.34405 0.0
O138 O 0.66035 0.00426 0.35958 0.0
C139 C 0.69947 0.97926 0.30756 0.0
Zn140 Zn 0.00603 0.71177 0.36415 0.0
Zn141 Zn 0.01076 0.68614 0.35029 0.0
O142 O 0.98398 0.67322 0.35772 0.0
O143 O 0.97992 0.69469 0.36648 0.0
O144 O 0.01366 0.66716 0.33763 0.0
O145 O 0.01526 0.72517 0.33728 0.0
O146 O 0.01894 0.704 0.32613 0.0
C147 C 0.97375 0.67855 0.36334 0.0
C148 C 0.03037 0.70636 0.3896 0.0
O149 O 0.02768 0.69501 0.37574 0.0
O150 O 0.0225 0.71483 0.38834 0.0
C151 C 0.00528 0.65136 0.34396 0.0
O152 O 0.99463 0.64709 0.36002 0.0
C153 C 0.01994 0.7186 0.32313 0.0
Zn154 Zn 0.31684 0.36649 0.32988 0.0
Zn155 Zn 0.31385 0.33641 0.34296 0.0
O156 O 0.33976 0.35179 0.33296 0.0
O157 O 0.34304 0.37732 0.32516 0.0
O158 O 0.31329 0.31519 0.35483 0.0
O159 O 0.30825 0.36949 0.35776 0.0
O160 O 0.30668 0.3453 0.36846 0.0
C161 C 0.34949 0.36762 0.32692 0.0
C162 C 0.29163 0.33547 0.30578 0.0
O163 O 0.29532 0.32716 0.31913 0.0
O164 O 0.2993 0.35204 0.30678 0.0
C165 C 0.32195 0.30889 0.34688 0.0
O166 O 0.33079 0.31574 0.32955 0.0
C167 C 0.30491 0.35832 0.372 0.0
Zn168 Zn 0.28983 0.0195 0.67313 0.0
Zn169 Zn 0.32006 0.02032 0.68306 0.0
O170 O 0.30174 0.99458 0.67516 0.0
O171 O 0.27681 0.99356 0.66774 0.0
O172 O 0.34036 0.01804 0.69365 0.0
O173 O 0.28936 0.02866 0.70192 0.0
O174 O 0.31508 0.03099 0.70858 0.0
C175 C 0.28544 0.98591 0.66949 0.0
C176 C 0.32042 0.04158 0.64603 0.0
O177 O 0.32899 0.03697 0.6579 0.0
O178 O 0.30416 0.03601 0.6494 0.0
C179 C 0.35449 0.0216 0.68428 0.0
O180 O 0.35747 0.02829 0.66537 0.0
C181 C 0.30249 0.03312 0.71406 0.0
Zn182 Zn 0.98605 0.28326 0.66104 0.0
Zn183 Zn 0.98495 0.30966 0.67868 0.0
O184 O 0.01112 0.32075 0.66903 0.0
O185 O 0.01235 0.29827 0.65731 0.0
O186 O 0.985 0.32987 0.69297 0.0
O187 O 0.97662 0.26885 0.6871 0.0
O188 O 0.97653 0.29091 0.70214 0.0
C189 C 0.01996 0.31445 0.66142 0.0
C190 C 0.9626 0.29181 0.63946 0.0
O191 O 0.96683 0.30271 0.65443 0.0
O192 O 0.96938 0.28235 0.63846 0.0
C193 C 0.99316 0.34522 0.68521 0.0
O194 O 0.00139 0.34786 0.66733 0.0
C195 C 0.97378 0.27541 0.70298 0.0
Zn196 Zn 0.68244 0.6368 0.69613 0.0
Zn197 Zn 0.68806 0.6689 0.68838 0.0
O198 O 0.66179 0.65345 0.69763 0.0
O199 O 0.65659 0.62673 0.70176 0.0
O200 O 0.68882 0.69095 0.67918 0.0
O201 O 0.68998 0.63519 0.667 0.0
O202 O 0.696 0.66211 0.66163 0.0
C203 C 0.65116 0.63732 0.70194 0.0
C204 C 0.70888 0.66523 0.72357 0.0
O205 O 0.70596 0.67543 0.71257 0.0
O206 O 0.70058 0.64891 0.71968 0.0
C207 C 0.67719 0.68815 0.66526 0.0
O208 O 0.66661 0.67203 0.6585 0.0
C209 C 0.69572 0.64847 0.6553 0.0
Zn210 Zn 0.37602 0.32307 0.68946 0.0
Zn211 Zn 0.34486 0.31892 0.67892 0.0
O212 O 0.35944 0.344 0.69105 0.0
O213 O 0.38455 0.34682 0.702 0.0
O214 O 0.3229 0.31817 0.66788 0.0
O215 O 0.38136 0.32011 0.65982 0.0
O216 O 0.35415 0.31342 0.65219 0.0
C217 C 0.37451 0.35296 0.70016 0.0
C218 C 0.34578 0.29419 0.71073 0.0
O219 O 0.33665 0.29969 0.70161 0.0
O220 O 0.3623 0.30153 0.70735 0.0
C221 C 0.31595 0.3256 0.67732 0.0
O222 O 0.32224 0.33268 0.69578 0.0
C223 C 0.36871 0.31482 0.64672 0.0
Zn224 Zn 0.68638 0.05817 0.69842 0.0
Zn225 Zn 0.68457 0.02941 0.68368 0.0
O226 O 0.65966 0.01986 0.69668 0.0
O227 O 0.66195 0.04365 0.70998 0.0
O228 O 0.683 0.008 0.67087 0.0
O229 O 0.68993 0.06845 0.66957 0.0
O230 O 0.69063 0.04564 0.65801 0.0
C231 C 0.65303 0.02724 0.707 0.0
C232 C 0.71216 0.05157 0.71742 0.0
O233 O 0.70487 0.03807 0.70562 0.0
O234 O 0.70697 0.06238 0.71676 0.0
C235 C 0.674 0.9927 0.67865 0.0
O236 O 0.66546 0.99046 0.6962 0.0
C237 C 0.69183 0.0603 0.65469 0.0
Zn238 Zn 0.9801 0.69948 0.66262 0.0
Zn239 Zn 0.97567 0.66851 0.67446 0.0
O240 O 0.00198 0.68361 0.66573 0.0
O241 O 0.00636 0.70974 0.65896 0.0
O242 O 0.97407 0.64652 0.68546 0.0
O243 O 0.97092 0.70188 0.69035 0.0
O244 O 0.96818 0.67696 0.70012 0.0
C245 C 0.01229 0.69959 0.66056 0.0
C246 C 0.95495 0.66971 0.63679 0.0
O247 O 0.9579 0.66066 0.64982 0.0
O248 O 0.96304 0.68626 0.63863 0.0
C249 C 0.98255 0.64011 0.67731 0.0
O250 O 0.99182 0.64734 0.66034 0.0
C251 C 0.9668 0.69016 0.70409 0.0
C252 C 0.20268 0.31569 0.1244 0.0
C253 C 0.19917 0.30665 0.10535 0.0
C254 C 0.18874 0.31365 0.13668 0.0
C255 C 0.17098 0.30205 0.13052 0.0
C256 C 0.18146 0.29522 0.09902 0.0
C257 C 0.16749 0.29291 0.11154 0.0
C258 C 0.1561 0.3008 0.14256 0.0
C259 C 0.18609 0.28568 0.1868 0.0
C260 C 0.19194 0.29555 0.20535 0.0
C261 C 0.17376 0.28656 0.17365 0.0
C262 C 0.16764 0.29787 0.17848 0.0
C263 C 0.18523 0.30623 0.21058 0.0
C264 C 0.17327 0.3074 0.19728 0.0
C265 C 0.15505 0.29972 0.16467 0.0
C266 C 0.0864 0.29233 0.18741 0.0
C267 C 0.0923 0.30605 0.20195 0.0
C268 C 0.09851 0.29173 0.17399 0.0
C269 C 0.11667 0.30461 0.17537 0.0
C270 C 0.11035 0.31926 0.20273 0.0
C271 C 0.12248 0.3184 0.18974 0.0
C272 C 0.12991 0.30309 0.16326 0.0
C273 C 0.10698 0.32567 0.11915 0.0
C274 C 0.0992 0.31589 0.10079 0.0
C275 C 0.11691 0.32156 0.13253 0.0
C276 C 0.11905 0.3074 0.12805 0.0
C277 C 0.10141 0.30175 0.0963 0.0
C278 C 0.11131 0.29761 0.10975 0.0
C279 C 0.13068 0.30379 0.14126 0.0
H280 H 0.21624 0.32491 0.12937 0.0
H281 H 0.19189 0.32152 0.15071 0.0
H282 H 0.17844 0.28819 0.08433 0.0
H283 H 0.15392 0.28414 0.10625 0.0
H284 H 0.191 0.27725 0.18255 0.0
H285 H 0.16913 0.27851 0.15969 0.0
H286 H 0.18967 0.31411 0.2247 0.0
H287 H 0.16869 0.3161 0.20154 0.0
H288 H 0.07252 0.28196 0.18673 0.0
H289 H 0.09384 0.28089 0.16312 0.0
H290 H 0.11517 0.32982 0.21403 0.0
H291 H 0.13647 0.32839 0.19108 0.0
H292 H 0.10546 0.33657 0.12317 0.0
H293 H 0.12331 0.3298 0.14607 0.0
H294 H 0.09583 0.29411 0.08214 0.0
H295 H 0.11305 0.28683 0.10576 0.0
N296 N 0.14372 0.30256 0.13178 0.0
N297 N 0.14205 0.30105 0.17404 0.0
C298 C 0.66289 0.88011 0.11181 0.0
C299 C 0.67371 0.88752 0.09419 0.0
C300 C 0.66521 0.86906 0.12516 0.0
C301 C 0.67859 0.86535 0.12143 0.0
C302 C 0.68707 0.88375 0.0904 0.0
C303 C 0.6894 0.87267 0.10383 0.0
C304 C 0.6803 0.85276 0.1349 0.0
C305 C 0.69662 0.89838 0.17972 0.0
C306 C 0.68324 0.8947 0.19433 0.0
C307 C 0.69533 0.88511 0.1669 0.0
C308 C 0.68082 0.86788 0.16867 0.0
C309 C 0.66836 0.87749 0.19529 0.0
C310 C 0.66733 0.8642 0.18287 0.0
C311 C 0.68016 0.85339 0.15692 0.0
C312 C 0.68657 0.79197 0.18456 0.0
C313 C 0.67417 0.78607 0.20088 0.0
C314 C 0.68829 0.80498 0.17073 0.0
C315 C 0.67751 0.81219 0.17292 0.0
C316 C 0.66382 0.7937 0.20328 0.0
C317 C 0.66548 0.80658 0.1895 0.0
C318 C 0.67901 0.82615 0.1589 0.0
C319 C 0.66158 0.77926 0.11722 0.0
C320 C 0.67305 0.78218 0.10051 0.0
C321 C 0.6637 0.79329 0.1292 0.0
C322 C 0.67754 0.8105 0.12497 0.0
C323 C 0.68676 0.79947 0.09618 0.0
C324 C 0.68893 0.81347 0.10823 0.0
C325 C 0.6794 0.82559 0.13681 0.0
H326 H 0.65257 0.88283 0.1153 0.0
H327 H 0.65623 0.8631 0.13816 0.0
H328 H 0.69549 0.88907 0.07683 0.0
H329 H 0.6996 0.86975 0.10043 0.0
H330 H 0.7084 0.91135 0.17865 0.0
H331 H 0.70598 0.88814 0.15616 0.0
H332 H 0.65751 0.87417 0.20581 0.0
H333 H 0.65597 0.85097 0.18435 0.0
H334 H 0.69477 0.78637 0.18232 0.0
H335 H 0.69805 0.80944 0.15844 0.0
H336 H 0.65445 0.78981 0.21595 0.0
H337 H 0.6572 0.81209 0.19174 0.0
H338 H 0.65095 0.76612 0.1211 0.0
H339 H 0.65434 0.79067 0.14157 0.0
H340 H 0.69564 0.80225 0.0832 0.0
H341 H 0.69949 0.82667 0.10443 0.0
N342 N 0.6801 0.83897 0.12569 0.0
N343 N 0.6794 0.84005 0.168 0.0
C344 C 0.1002 0.79694 0.12304 0.0
C345 C 0.09485 0.80025 0.10371 0.0
C346 C 0.11011 0.81056 0.13717 0.0
C347 C 0.11437 0.82773 0.13262 0.0
C348 C 0.09917 0.81738 0.09898 0.0
C349 C 0.10879 0.83099 0.11335 0.0
C350 C 0.12664 0.84261 0.14641 0.0
C351 C 0.08104 0.808 0.1903 0.0
C352 C 0.086 0.79926 0.20454 0.0
C353 C 0.09393 0.82164 0.178 0.0
C354 C 0.1119 0.82689 0.18024 0.0
C355 C 0.10391 0.8043 0.20641 0.0
C356 C 0.11679 0.81817 0.19456 0.0
C357 C 0.12593 0.84185 0.16845 0.0
C358 C 0.19103 0.91153 0.19487 0.0
C359 C 0.19704 0.90477 0.21064 0.0
C360 C 0.17656 0.90015 0.182 0.0
C361 C 0.16803 0.88188 0.18464 0.0
C362 C 0.18783 0.88655 0.21387 0.0
C363 C 0.17352 0.87528 0.20106 0.0
C364 C 0.15348 0.86924 0.17061 0.0
C365 C 0.20141 0.89841 0.12933 0.0
C366 C 0.19892 0.906 0.11136 0.0
C367 C 0.18696 0.88703 0.1417 0.0
C368 C 0.16981 0.88346 0.13672 0.0
C369 C 0.18178 0.90234 0.10624 0.0
C370 C 0.16735 0.89118 0.11885 0.0
C371 C 0.15416 0.87014 0.14851 0.0
H372 H 0.09744 0.78393 0.12682 0.0
H373 H 0.11511 0.80769 0.15117 0.0
H374 H 0.09529 0.82026 0.08408 0.0
H375 H 0.11223 0.84416 0.10923 0.0
H376 H 0.06727 0.80433 0.18881 0.0
H377 H 0.08996 0.82834 0.16714 0.0
H378 H 0.10799 0.79783 0.2175 0.0
H379 H 0.13061 0.82207 0.19652 0.0
H380 H 0.19782 0.92552 0.19209 0.0
H381 H 0.17226 0.90561 0.1698 0.0
H382 H 0.19184 0.88096 0.22622 0.0
H383 H 0.16705 0.86127 0.20365 0.0
H384 H 0.21443 0.9007 0.13333 0.0
H385 H 0.18915 0.8806 0.15475 0.0
H386 H 0.17954 0.90797 0.09239 0.0
H387 H 0.1542 0.88833 0.11445 0.0
N388 N 0.14065 0.85685 0.13735 0.0
N389 N 0.13938 0.8551 0.1796 0.0
C390 C 0.32097 0.11294 0.85313 0.0
C391 C 0.30786 0.10601 0.83721 0.0
C392 C 0.3228 0.12622 0.8664 0.0
C393 C 0.31104 0.13237 0.86477 0.0
C394 C 0.29623 0.11235 0.83556 0.0
C395 C 0.29771 0.12517 0.84925 0.0
C396 C 0.31345 0.14751 0.87722 0.0
C397 C 0.31183 0.10977 0.92591 0.0
C398 C 0.32871 0.11608 0.93515 0.0
C399 C 0.30836 0.12089 0.91407 0.0
C400 C 0.32164 0.13856 0.9114 0.0
C401 C 0.34186 0.13391 0.9326 0.0
C402 C 0.33827 0.14505 0.92107 0.0
C403 C 0.31844 0.15046 0.89861 0.0
C404 C 0.30903 0.21114 0.91906 0.0
C405 C 0.3237 0.22079 0.93256 0.0
C406 C 0.30706 0.19681 0.90788 0.0
C407 C 0.31983 0.19197 0.90977 0.0
C408 C 0.33621 0.21562 0.93483 0.0
C409 C 0.33424 0.20131 0.92361 0.0
C410 C 0.3181 0.17703 0.89771 0.0
C411 C 0.32793 0.21733 0.84852 0.0
C412 C 0.31555 0.21172 0.83189 0.0
C413 C 0.32703 0.20541 0.86338 0.0
C414 C 0.31338 0.18767 0.86239 0.0
C415 C 0.30158 0.19407 0.83127 0.0
C416 C 0.30054 0.18218 0.84634 0.0
C417 C 0.31376 0.17444 0.87615 0.0
H418 H 0.33009 0.10839 0.85523 0.0
H419 H 0.33382 0.132 0.87738 0.0
H420 H 0.28629 0.10792 0.82326 0.0
H421 H 0.28862 0.12983 0.84729 0.0
H422 H 0.30122 0.09626 0.92788 0.0
H423 H 0.29533 0.1157 0.907 0.0
H424 H 0.35509 0.13926 0.93909 0.0
H425 H 0.34869 0.15867 0.91919 0.0
H426 H 0.29896 0.21454 0.91729 0.0
H427 H 0.29552 0.18949 0.8978 0.0
H428 H 0.34773 0.22284 0.94496 0.0
H429 H 0.3442 0.19775 0.92544 0.0
H430 H 0.33875 0.23086 0.84966 0.0
H431 H 0.3375 0.21 0.87508 0.0
H432 H 0.29194 0.18921 0.81857 0.0
H433 H 0.29002 0.16853 0.84503 0.0
N434 N 0.3114 0.1597 0.86695 0.0
N435 N 0.32053 0.16506 0.90799 0.0
C436 C 0.9159 0.19563 0.9102 0.0
C437 C 0.90726 0.20239 0.92166 0.0
C438 C 0.90594 0.17987 0.89903 0.0
C439 C 0.88725 0.1707 0.89934 0.0
C440 C 0.88861 0.19291 0.92229 0.0
C441 C 0.87875 0.17725 0.91133 0.0
C442 C 0.87601 0.15424 0.88752 0.0
C443 C 0.90347 0.19589 0.83787 0.0
C444 C 0.91318 0.19249 0.82337 0.0
C445 C 0.89243 0.18307 0.85225 0.0
C446 C 0.89113 0.16671 0.85269 0.0
C447 C 0.91208 0.17621 0.8241 0.0
C448 C 0.90108 0.16342 0.83853 0.0
C449 C 0.87779 0.15233 0.86594 0.0
C450 C 0.80531 0.09872 0.84011 0.0
C451 C 0.80804 0.08907 0.82489 0.0
C452 C 0.81894 0.10977 0.85388 0.0
C453 C 0.83558 0.11127 0.85306 0.0
C454 C 0.82472 0.09056 0.82404 0.0
C455 C 0.8384 0.10164 0.83796 0.0
C456 C 0.8505 0.12452 0.86615 0.0
C457 C 0.80875 0.08512 0.9098 0.0
C458 C 0.80144 0.0926 0.92241 0.0
C459 C 0.82444 0.09591 0.89871 0.0
C460 C 0.83295 0.11427 0.90013 0.0
C461 C 0.81042 0.11091 0.92441 0.0
C462 C 0.82598 0.1216 0.91345 0.0
C463 C 0.84895 0.12631 0.88784 0.0
H464 H 0.93028 0.2027 0.90953 0.0
H465 H 0.91278 0.1749 0.89016 0.0
H466 H 0.88161 0.19765 0.93128 0.0
H467 H 0.86437 0.17039 0.91193 0.0
H468 H 0.90376 0.20815 0.83747 0.0
H469 H 0.88438 0.18572 0.86245 0.0
H470 H 0.91951 0.17325 0.81326 0.0
H471 H 0.90007 0.15081 0.8384 0.0
H472 H 0.79285 0.09835 0.84082 0.0
H473 H 0.81663 0.11766 0.86469 0.0
H474 H 0.82726 0.08334 0.81247 0.0
H475 H 0.85126 0.10289 0.83676 0.0
H476 H 0.8021 0.07102 0.90808 0.0
H477 H 0.82977 0.08993 0.88888 0.0
H478 H 0.80529 0.11703 0.93433 0.0
H479 H 0.83231 0.13569 0.91498 0.0
N480 N 0.86176 0.1411 0.89753 0.0
N481 N 0.865 0.13748 0.85614 0.0
C482 C 0.81337 0.71702 0.91925 0.0
C483 C 0.80549 0.70439 0.93514 0.0
C484 C 0.82664 0.71767 0.90676 0.0
C485 C 0.83202 0.7055 0.90971 0.0
C486 C 0.81128 0.69258 0.9384 0.0
C487 C 0.82442 0.69317 0.92589 0.0
C488 C 0.84573 0.70554 0.89647 0.0
C489 C 0.80073 0.69013 0.85092 0.0
C490 C 0.80439 0.70164 0.83409 0.0
C491 C 0.81424 0.69264 0.86469 0.0
C492 C 0.83172 0.7068 0.86203 0.0
C493 C 0.82173 0.71618 0.83182 0.0
C494 C 0.83533 0.71862 0.84556 0.0
C495 C 0.84642 0.70772 0.87454 0.0
C496 C 0.89663 0.68684 0.8456 0.0
C497 C 0.90682 0.70035 0.83129 0.0
C498 C 0.8856 0.68845 0.85976 0.0
C499 C 0.88471 0.70369 0.86003 0.0
C500 C 0.90597 0.71563 0.83175 0.0
C501 C 0.89495 0.71722 0.84589 0.0
C502 C 0.87195 0.70499 0.87353 0.0
C503 C 0.91082 0.70107 0.91624 0.0
C504 C 0.90267 0.68661 0.9299 0.0
C505 C 0.90061 0.7063 0.90508 0.0
C506 C 0.88203 0.69702 0.90716 0.0
C507 C 0.88414 0.67768 0.93233 0.0
C508 C 0.87396 0.68285 0.92113 0.0
C509 C 0.87072 0.70191 0.89531 0.0
H510 H 0.80929 0.72639 0.91652 0.0
H511 H 0.83268 0.72768 0.89482 0.0
H512 H 0.80528 0.68249 0.95025 0.0
H513 H 0.82834 0.68367 0.92856 0.0
H514 H 0.78747 0.67884 0.85305 0.0
H515 H 0.81116 0.68302 0.87685 0.0
H516 H 0.82493 0.72515 0.81886 0.0
H517 H 0.84877 0.72947 0.84302 0.0
H518 H 0.89703 0.67493 0.84568 0.0
H519 H 0.87746 0.67763 0.87015 0.0
H520 H 0.91337 0.72614 0.82069 0.0
H521 H 0.89423 0.72896 0.84561 0.0
H522 H 0.92506 0.70821 0.91393 0.0
H523 H 0.90723 0.71756 0.89484 0.0
H524 H 0.87746 0.66673 0.94301 0.0
H525 H 0.85968 0.6756 0.9232 0.0
N526 N 0.85775 0.70249 0.90589 0.0
N527 N 0.85972 0.7077 0.86402 0.0
C528 C 0.75444 0.63472 0.44718 0.0
C529 C 0.76236 0.64882 0.43297 0.0
C530 C 0.76482 0.62974 0.45842 0.0
C531 C 0.78335 0.63898 0.45598 0.0
C532 C 0.78084 0.65757 0.43005 0.0
C533 C 0.79119 0.65269 0.4414 0.0
C534 C 0.79487 0.63448 0.46807 0.0
C535 C 0.76776 0.64975 0.51582 0.0
C536 C 0.75981 0.63792 0.53255 0.0
C537 C 0.77896 0.64808 0.50196 0.0
C538 C 0.78186 0.63409 0.50391 0.0
C539 C 0.76326 0.62428 0.53477 0.0
C540 C 0.77401 0.62234 0.52057 0.0
C541 C 0.7942 0.63228 0.49005 0.0
C542 C 0.86393 0.64129 0.51128 0.0
C543 C 0.85942 0.62905 0.52756 0.0
C544 C 0.85081 0.64055 0.49812 0.0
C545 C 0.83287 0.62752 0.50084 0.0
C546 C 0.84145 0.61577 0.52993 0.0
C547 C 0.8283 0.61512 0.51682 0.0
C548 C 0.81882 0.62804 0.48861 0.0
C549 C 0.84903 0.61524 0.44346 0.0
C550 C 0.85701 0.62735 0.42709 0.0
C551 C 0.83649 0.61571 0.45623 0.0
C552 C 0.83205 0.62857 0.45314 0.0
C553 C 0.8521 0.63981 0.42364 0.0
C554 C 0.83975 0.64038 0.43648 0.0
C555 C 0.81912 0.62971 0.46663 0.0
H556 H 0.74026 0.62772 0.4499 0.0
H557 H 0.75839 0.61881 0.46916 0.0
H558 H 0.78736 0.66819 0.4189 0.0
H559 H 0.80543 0.65985 0.43899 0.0
H560 H 0.76543 0.66039 0.51339 0.0
H561 H 0.78548 0.65789 0.48991 0.0
H562 H 0.75801 0.61523 0.54776 0.0
H563 H 0.77636 0.61168 0.52279 0.0
H564 H 0.87752 0.65197 0.50924 0.0
H565 H 0.85463 0.6506 0.48632 0.0
H566 H 0.83749 0.60601 0.54211 0.0
H567 H 0.81452 0.60506 0.51932 0.0
H568 H 0.85245 0.6054 0.44634 0.0
H569 H 0.83029 0.60602 0.46848 0.0
H570 H 0.85821 0.6495 0.41137 0.0
H571 H 0.83649 0.65036 0.43365 0.0
N572 N 0.80726 0.63305 0.45733 0.0
N573 N 0.80623 0.62914 0.49936 0.0
C574 C 0.33435 0.21965 0.45176 0.0
C575 C 0.34335 0.22649 0.43284 0.0
C576 C 0.33801 0.20903 0.46427 0.0
C577 C 0.35094 0.20526 0.45829 0.0
C578 C 0.35601 0.22236 0.42664 0.0
C579 C 0.3597 0.21178 0.43922 0.0
C580 C 0.35466 0.19376 0.47126 0.0
C581 C 0.3713 0.2419 0.5111 0.0
C582 C 0.36362 0.23831 0.53101 0.0
C583 C 0.36935 0.22821 0.49846 0.0
C584 C 0.35922 0.2107 0.50533 0.0
C585 C 0.35352 0.22086 0.53781 0.0
C586 C 0.3513 0.20723 0.5251 0.0
C587 C 0.35773 0.19591 0.49307 0.0
C588 C 0.36856 0.13604 0.51698 0.0
C589 C 0.36011 0.13247 0.53643 0.0
C590 C 0.36823 0.14818 0.50332 0.0
C591 C 0.35882 0.15639 0.50859 0.0
C592 C 0.35128 0.14113 0.54195 0.0
C593 C 0.3506 0.15288 0.52818 0.0
C594 C 0.35785 0.16921 0.49461 0.0
C595 C 0.33597 0.11998 0.4559 0.0
C596 C 0.34573 0.12211 0.43772 0.0
C597 C 0.33894 0.13457 0.46736 0.0
C598 C 0.35195 0.15157 0.46106 0.0
C599 C 0.3585 0.13918 0.43124 0.0
C600 C 0.36152 0.15376 0.44276 0.0
C601 C 0.35497 0.16717 0.47273 0.0
H602 H 0.32426 0.22227 0.45676 0.0
H603 H 0.3306 0.20364 0.47854 0.0
H604 H 0.36324 0.2275 0.41221 0.0
H605 H 0.36956 0.20884 0.43416 0.0
H606 H 0.37934 0.2553 0.50568 0.0
H607 H 0.37612 0.23139 0.48362 0.0
H608 H 0.34741 0.21778 0.55308 0.0
H609 H 0.3435 0.1939 0.53085 0.0
H610 H 0.37555 0.12958 0.51248 0.0
H611 H 0.37535 0.15114 0.48874 0.0
H612 H 0.34451 0.13847 0.55677 0.0
H613 H 0.34337 0.15909 0.5328 0.0
H614 H 0.32579 0.10703 0.46108 0.0
H615 H 0.33098 0.13258 0.48105 0.0
H616 H 0.36634 0.14127 0.4174 0.0
H617 H 0.37146 0.16677 0.43747 0.0
N618 N 0.35362 0.17959 0.46193 0.0
N619 N 0.35911 0.18351 0.50375 0.0
C620 C 0.76565 0.13369 0.45235 0.0
C621 C 0.7601 0.1366 0.43291 0.0
C622 C 0.77585 0.14763 0.466 0.0
C623 C 0.78023 0.16473 0.46083 0.0
C624 C 0.76461 0.15369 0.42755 0.0
C625 C 0.77456 0.16763 0.44143 0.0
C626 C 0.7925 0.17983 0.47434 0.0
C627 C 0.746 0.14551 0.51721 0.0
C628 C 0.75085 0.13735 0.53242 0.0
C629 C 0.75907 0.1591 0.50499 0.0
C630 C 0.77709 0.16482 0.50824 0.0
C631 C 0.76881 0.1429 0.53537 0.0
C632 C 0.78184 0.15665 0.52354 0.0
C633 C 0.79132 0.17958 0.49636 0.0
C634 C 0.85703 0.24959 0.52133 0.0
C635 C 0.86088 0.2436 0.53982 0.0
C636 C 0.84328 0.23781 0.50794 0.0
C637 C 0.8335 0.21976 0.51253 0.0
C638 C 0.8507 0.22568 0.54471 0.0
C639 C 0.83721 0.21392 0.53122 0.0
C640 C 0.81916 0.2067 0.49847 0.0
C641 C 0.86762 0.22875 0.45791 0.0
C642 C 0.86777 0.23944 0.44169 0.0
C643 C 0.85235 0.21867 0.46967 0.0
C644 C 0.83691 0.21903 0.4653 0.0
C645 C 0.85248 0.24014 0.43758 0.0
C646 C 0.83702 0.22977 0.44915 0.0
C647 C 0.82037 0.20695 0.47644 0.0
H648 H 0.76278 0.12073 0.45663 0.0
H649 H 0.78089 0.14504 0.48018 0.0
H650 H 0.76057 0.15627 0.41257 0.0
H651 H 0.77809 0.18074 0.43686 0.0
H652 H 0.73218 0.14146 0.51493 0.0
H653 H 0.75519 0.16536 0.49337 0.0
H654 H 0.77277 0.13686 0.54721 0.0
H655 H 0.79567 0.16089 0.52628 0.0
H656 H 0.86459 0.26338 0.51731 0.0
H657 H 0.84031 0.24286 0.4941 0.0
H658 H 0.85351 0.22065 0.55872 0.0
H659 H 0.8299 0.20012 0.53527 0.0
H660 H 0.87931 0.22804 0.46131 0.0
H661 H 0.85242 0.21021 0.48181 0.0
H662 H 0.85234 0.24824 0.42502 0.0
H663 H 0.82513 0.23001 0.44542 0.0
N664 N 0.80696 0.1936 0.46525 0.0
N665 N 0.80466 0.19298 0.50747 0.0
C666 C 0.98727 0.54521 0.17656 0.0
C667 C 0.99646 0.54984 0.15754 0.0
C668 C 0.98853 0.53362 0.19031 0.0
C669 C 0.99953 0.52703 0.18559 0.0
C670 C 0.00716 0.54302 0.1527 0.0
C671 C 0.00873 0.53182 0.16658 0.0
C672 C 0.00071 0.51412 0.19917 0.0
C673 C 0.01672 0.56066 0.24102 0.0
C674 C 0.00577 0.55678 0.25855 0.0
C675 C 0.01561 0.54717 0.22882 0.0
C676 C 0.00332 0.52955 0.23371 0.0
C677 C 0.99374 0.53912 0.26361 0.0
C678 C 0.99259 0.52566 0.25136 0.0
C679 C 0.00212 0.51505 0.22124 0.0
C680 C 0.02103 0.46077 0.24182 0.0
C681 C 0.01175 0.45425 0.26068 0.0
C682 C 0.01826 0.47194 0.22916 0.0
C683 C 0.00586 0.47655 0.23481 0.0
C684 C 0.99962 0.45919 0.2665 0.0
C685 C 0.99675 0.47024 0.25373 0.0
C686 C 0.00313 0.48878 0.22185 0.0
C687 C 0.98635 0.44235 0.17853 0.0
C688 C 0.99514 0.44664 0.15925 0.0
C689 C 0.98874 0.45561 0.19223 0.0
C690 C 0.00027 0.47336 0.18704 0.0
C691 C 0.00696 0.46435 0.15435 0.0
C692 C 0.00949 0.47754 0.16809 0.0
C693 C 0.00147 0.48773 0.19983 0.0
H694 H 0.97883 0.55022 0.18051 0.0
H695 H 0.98067 0.52964 0.2044 0.0
H696 H 0.01449 0.54651 0.13821 0.0
H697 H 0.01717 0.52685 0.16239 0.0
H698 H 0.02634 0.57413 0.23693 0.0
H699 H 0.02445 0.55051 0.21567 0.0
H700 H 0.98502 0.53569 0.27689 0.0
H701 H 0.98315 0.51216 0.25556 0.0
H702 H 0.03038 0.45718 0.23672 0.0
H703 H 0.02598 0.4771 0.21505 0.0
H704 H 0.99251 0.45475 0.28109 0.0
H705 H 0.98737 0.47385 0.25864 0.0
H706 H 0.97702 0.42878 0.18254 0.0
H707 H 0.98106 0.452 0.20645 0.0
H708 H 0.01401 0.468 0.13966 0.0
H709 H 0.0184 0.49111 0.16366 0.0
N710 N 0.00045 0.50049 0.1895 0.0
N711 N 0.00319 0.5023 0.23166 0.0
C712 C 0.47719 0.419 0.17132 0.0
C713 C 0.47215 0.42438 0.15322 0.0
C714 C 0.49026 0.43146 0.18487 0.0
C715 C 0.49799 0.4495 0.1809 0.0
C716 C 0.48049 0.44236 0.14882 0.0
C717 C 0.49321 0.45475 0.1625 0.0
C718 C 0.51117 0.46324 0.19533 0.0
C719 C 0.46227 0.43175 0.23456 0.0
C720 C 0.46487 0.42504 0.25325 0.0
C721 C 0.47678 0.44369 0.22263 0.0
C722 C 0.49416 0.44872 0.22881 0.0
C723 C 0.48224 0.43013 0.25952 0.0
C724 C 0.49675 0.44186 0.24738 0.0
C725 C 0.50972 0.46259 0.2174 0.0
C726 C 0.56105 0.53702 0.24279 0.0
C727 C 0.56677 0.53419 0.26216 0.0
C728 C 0.5513 0.52312 0.22894 0.0
C729 C 0.5476 0.50619 0.23382 0.0
C730 C 0.56283 0.51726 0.26731 0.0
C731 C 0.55338 0.50338 0.25321 0.0
C732 C 0.53606 0.49107 0.21995 0.0
C733 C 0.58207 0.52695 0.17709 0.0
C734 C 0.5768 0.53516 0.16242 0.0
C735 C 0.56934 0.51306 0.18922 0.0
C736 C 0.55121 0.50701 0.1864 0.0
C737 C 0.55871 0.52933 0.16001 0.0
C738 C 0.546 0.5152 0.17171 0.0
C739 C 0.53741 0.49171 0.19796 0.0
H740 H 0.47103 0.40518 0.17495 0.0
H741 H 0.49415 0.42698 0.19851 0.0
H742 H 0.47672 0.44689 0.13511 0.0
H743 H 0.499 0.46853 0.15891 0.0
H744 H 0.44904 0.42836 0.22965 0.0
H745 H 0.47441 0.44938 0.20893 0.0
H746 H 0.48458 0.42521 0.27394 0.0
H747 H 0.51005 0.44581 0.25266 0.0
H748 H 0.56352 0.54988 0.23871 0.0
H749 H 0.54613 0.5256 0.21479 0.0
H750 H 0.56701 0.51476 0.28224 0.0
H751 H 0.55038 0.49039 0.25756 0.0
H752 H 0.59598 0.53122 0.17901 0.0
H753 H 0.57356 0.50676 0.20038 0.0
H754 H 0.55438 0.53535 0.14859 0.0
H755 H 0.53206 0.51066 0.1693 0.0
N756 N 0.52495 0.47784 0.1866 0.0
N757 N 0.52233 0.47645 0.22877 0.0
C758 C 0.47245 0.03553 0.248 0.0
C759 C 0.46478 0.02361 0.26463 0.0
C760 C 0.4845 0.0347 0.2347 0.0
C761 C 0.48881 0.02173 0.23759 0.0
C762 C 0.46934 0.01084 0.26761 0.0
C763 C 0.48125 0.00996 0.25429 0.0
C764 C 0.50187 0.02079 0.22419 0.0
C765 C 0.45671 0.00871 0.18007 0.0
C766 C 0.46109 0.01889 0.16176 0.0
C767 C 0.47001 0.01017 0.19354 0.0
C768 C 0.48803 0.02224 0.18942 0.0
C769 C 0.47913 0.03117 0.15784 0.0
C770 C 0.49243 0.0328 0.1715 0.0
C771 C 0.50233 0.02241 0.20215 0.0
C772 C 0.55635 0.00495 0.17579 0.0
C773 C 0.56658 0.01889 0.16202 0.0
C774 C 0.54403 0.00543 0.18894 0.0
C775 C 0.54176 0.01987 0.18852 0.0
C776 C 0.56425 0.0333 0.16168 0.0
C777 C 0.55187 0.03371 0.17469 0.0
C778 C 0.52828 0.02031 0.20156 0.0
C779 C 0.56964 0.02285 0.2463 0.0
C780 C 0.56276 0.00894 0.26075 0.0
C781 C 0.55822 0.02577 0.23399 0.0
C782 C 0.53971 0.01474 0.23575 0.0
C783 C 0.54422 0.99804 0.26257 0.0
C784 C 0.53284 0.00097 0.25028 0.0
C785 C 0.52729 0.01784 0.22343 0.0
H786 H 0.4693 0.0456 0.24544 0.0
H787 H 0.49056 0.04429 0.22232 0.0
H788 H 0.46343 0.00127 0.28004 0.0
H789 H 0.48441 -0.00011 0.25694 0.0
H790 H 0.44299 0.99926 0.18379 0.0
H791 H 0.46613 0.00135 0.20675 0.0
H792 H 0.48308 0.03904 0.14376 0.0
H793 H 0.50622 0.04201 0.16774 0.0
H794 H 0.55786 0.99368 0.17637 0.0
H795 H 0.5361 0.99443 0.19919 0.0
H796 H 0.57169 0.04409 0.15097 0.0
H797 H 0.55016 0.04486 0.17396 0.0
H798 H 0.58386 0.03143 0.24444 0.0
H799 H 0.56387 0.03677 0.22329 0.0
H800 H 0.53849 0.9874 0.27377 0.0
H801 H 0.5186 0.99243 0.2521 0.0
N802 N 0.5142 0.01829 0.23384 0.0
N803 N 0.51574 0.02242 0.1918 0.0
C804 C 0.53938 0.99138 0.79149 0.0
C805 C 0.53645 0.97915 0.7758 0.0
C806 C 0.52512 0.99091 0.80129 0.0
C807 C 0.50758 0.97799 0.79597 0.0
C808 C 0.51888 0.96656 0.76994 0.0
C809 C 0.50454 0.966 0.77995 0.0
C810 C 0.49255 0.97762 0.80651 0.0
C811 C 0.52301 0.96625 0.85414 0.0
C812 C 0.53054 0.9788 0.87027 0.0
C813 C 0.50992 0.96558 0.84086 0.0
C814 C 0.50436 0.97764 0.84326 0.0
C815 C 0.52414 0.99011 0.87334 0.0
C816 C 0.51124 0.98954 0.86 0.0
C817 C 0.49155 0.97827 0.82855 0.0
C818 C 0.42393 0.97455 0.84682 0.0
C819 C 0.42997 0.98953 0.85951 0.0
C820 C 0.43586 0.97253 0.83471 0.0
C821 C 0.45404 0.98527 0.83534 0.0
C822 C 0.44815 0.00267 0.8591 0.0
C823 C 0.46009 0.0004 0.84743 0.0
C824 C 0.46701 0.98233 0.82474 0.0
C825 C 0.44698 0.00458 0.77689 0.0
C826 C 0.43612 0.99244 0.76145 0.0
C827 C 0.45722 0.00095 0.79033 0.0
C828 C 0.45677 0.98507 0.78867 0.0
C829 C 0.43588 0.97663 0.7596 0.0
C830 C 0.44627 0.97306 0.77299 0.0
C831 C 0.46781 0.98142 0.80283 0.0
H832 H 0.55275 0.00158 0.7959 0.0
H833 H 0.52782 0.00075 0.813 0.0
H834 H 0.51626 0.95708 0.75778 0.0
H835 H 0.49109 0.95612 0.77536 0.0
H836 H 0.52758 0.9573 0.85139 0.0
H837 H 0.50439 0.95586 0.8285 0.0
H838 H 0.52926 0.9996 0.88597 0.0
H839 H 0.507 0.9988 0.86246 0.0
H840 H 0.41014 0.964 0.84687 0.0
H841 H 0.43101 0.96069 0.82554 0.0
H842 H 0.4533 0.01461 0.86811 0.0
H843 H 0.4741 0.01043 0.84796 0.0
H844 H 0.44735 0.01681 0.77881 0.0
H845 H 0.46559 0.01062 0.80197 0.0
H846 H 0.42776 0.9671 0.7477 0.0
H847 H 0.44595 0.96084 0.77129 0.0
N848 N 0.48053 0.97905 0.79448 0.0
N849 N 0.47886 0.98073 0.83674 0.0
C850 C 0.99013 0.54621 0.77864 0.0
C851 C 0.9995 0.55321 0.75997 0.0
C852 C 0.993 0.53491 0.79084 0.0
C853 C 0.0055 0.53055 0.78483 0.0
C854 C 0.0117 0.54849 0.75369 0.0
C855 C 0.01461 0.53721 0.76598 0.0
C856 C 0.00848 0.51845 0.79767 0.0
C857 C 0.02982 0.56625 0.84041 0.0
C858 C 0.01812 0.56321 0.85686 0.0
C859 C 0.02712 0.55238 0.82761 0.0
C860 C 0.01291 0.53527 0.83141 0.0
C861 C 0.00362 0.54617 0.86021 0.0
C862 C 0.0012 0.53226 0.84777 0.0
C863 C 0.01103 0.52025 0.81953 0.0
C864 C 0.02649 0.46381 0.84299 0.0
C865 C 0.01799 0.45943 0.86244 0.0
C866 C 0.02459 0.47505 0.82934 0.0
C867 C 0.01364 0.48156 0.83466 0.0
C868 C 0.00742 0.46627 0.86791 0.0
C869 C 0.00524 0.47717 0.85417 0.0
C870 C 0.01161 0.49387 0.82095 0.0
C871 C 0.99286 0.44512 0.78266 0.0
C872 C 0.00275 0.44773 0.76444 0.0
C873 C 0.99472 0.45941 0.79383 0.0
C874 C 0.00673 0.47665 0.78723 0.0
C875 C 0.01438 0.46502 0.75755 0.0
C876 C 0.01628 0.4793 0.76879 0.0
C877 C 0.00899 0.49197 0.799 0.0
H878 H 0.98033 0.54923 0.78366 0.0
H879 H 0.98523 0.52939 0.80485 0.0
H880 H 0.0192 0.55373 0.73945 0.0
H881 H 0.02415 0.53385 0.76089 0.0
H882 H 0.04112 0.5793 0.83765 0.0
H883 H 0.03643 0.5549 0.81521 0.0
H884 H 0.99455 0.54353 0.87294 0.0
H885 H 0.99025 0.51912 0.85102 0.0
H886 H 0.03482 0.45878 0.83852 0.0
H887 H 0.03181 0.47875 0.8148 0.0
H888 H 0.00057 0.46294 0.88273 0.0
H889 H 0.99687 0.48212 0.85878 0.0
H890 H 0.98385 0.43202 0.78849 0.0
H891 H 0.98678 0.45698 0.80767 0.0
H892 H 0.02192 0.46753 0.74336 0.0
H893 H 0.02539 0.49246 0.76318 0.0
N894 N 0.00768 0.50443 0.78821 0.0
N895 N 0.01243 0.5079 0.83027 0.0
C896 C 0.52512 0.58589 0.78181 0.0
C897 C 0.53132 0.57941 0.76617 0.0
C898 C 0.5104 0.57436 0.79388 0.0
C899 C 0.50175 0.55615 0.79065 0.0
C900 C 0.52229 0.56122 0.76267 0.0
C901 C 0.50765 0.54976 0.77468 0.0
C902 C 0.48663 0.54348 0.80371 0.0
C903 C 0.53298 0.56664 0.84873 0.0
C904 C 0.53157 0.57547 0.86603 0.0
C905 C 0.51862 0.55728 0.83505 0.0
C906 C 0.50257 0.55668 0.83823 0.0
C907 C 0.51573 0.57537 0.86885 0.0
C908 C 0.50127 0.56588 0.85517 0.0
C909 C 0.4866 0.54447 0.82575 0.0
C910 C 0.43599 0.47598 0.85826 0.0
C911 C 0.4229 0.47746 0.86887 0.0
C912 C 0.44707 0.48867 0.84377 0.0
C913 C 0.44547 0.50321 0.8398 0.0
C914 C 0.42098 0.49182 0.86411 0.0
C915 C 0.43237 0.50472 0.85002 0.0
C916 C 0.45852 0.51755 0.82648 0.0
C917 C 0.41651 0.47489 0.7856 0.0
C918 C 0.42329 0.46921 0.7698 0.0
C919 C 0.42776 0.49045 0.79655 0.0
C920 C 0.44611 0.5002 0.7924 0.0
C921 C 0.44139 0.4794 0.76493 0.0
C922 C 0.45267 0.49466 0.77615 0.0
C923 C 0.45887 0.51614 0.80451 0.0
H924 H 0.53165 0.59985 0.78472 0.0
H925 H 0.50584 0.57967 0.80576 0.0
H926 H 0.52686 0.55572 0.75105 0.0
H927 H 0.50124 0.53579 0.77187 0.0
H928 H 0.54505 0.56655 0.84614 0.0
H929 H 0.51982 0.54987 0.82253 0.0
H930 H 0.51424 0.58192 0.88217 0.0
H931 H 0.48891 0.56533 0.85812 0.0
H932 H 0.43822 0.4654 0.86167 0.0
H933 H 0.45732 0.48747 0.8362 0.0
H934 H 0.41083 0.49329 0.87147 0.0
H935 H 0.43102 0.51593 0.84713 0.0
H936 H 0.40252 0.46729 0.78944 0.0
H937 H 0.42205 0.49477 0.80816 0.0
H938 H 0.44697 0.47521 0.75292 0.0
H939 H 0.4667 0.5019 0.77243 0.0
N940 N 0.47285 0.5293 0.79408 0.0
N941 N 0.4724 0.53159 0.83622 0.0
C942 C 0.66069 0.78478 0.5145 0.0
C943 C 0.64566 0.77585 0.50133 0.0
C944 C 0.66286 0.79829 0.52759 0.0
C945 C 0.64997 0.80303 0.52782 0.0
C946 C 0.63278 0.78062 0.50169 0.0
C947 C 0.63498 0.79414 0.5147 0.0
C948 C 0.65249 0.81799 0.54051 0.0
C949 C 0.64719 0.77662 0.58499 0.0
C950 C 0.66218 0.78217 0.59803 0.0
C951 C 0.64508 0.78879 0.57356 0.0
C952 C 0.65805 0.80675 0.57465 0.0
C953 C 0.67486 0.80022 0.59958 0.0
C954 C 0.67276 0.81237 0.58807 0.0
C955 C 0.65637 0.81983 0.56218 0.0
C956 C 0.64802 0.88069 0.58444 0.0
C957 C 0.66201 0.88948 0.59903 0.0
C958 C 0.64643 0.86687 0.57249 0.0
C959 C 0.65888 0.86164 0.57478 0.0
C960 C 0.67422 0.88396 0.60159 0.0
C961 C 0.67259 0.87011 0.58968 0.0
C962 C 0.65743 0.84711 0.56209 0.0
C963 C 0.67112 0.89031 0.51565 0.0
C964 C 0.66005 0.88588 0.49782 0.0
C965 C 0.66903 0.87741 0.52977 0.0
C966 C 0.65539 0.85982 0.52689 0.0
C967 C 0.64624 0.86829 0.49515 0.0
C968 C 0.64394 0.85545 0.50952 0.0
C969 C 0.65434 0.84564 0.54021 0.0
H970 H 0.67083 0.78139 0.51461 0.0
H971 H 0.67474 0.80522 0.53724 0.0
H972 H 0.62121 0.77424 0.49148 0.0
H973 H 0.625 0.79775 0.51442 0.0
H974 H 0.63721 0.76282 0.58331 0.0
H975 H 0.63334 0.78414 0.5638 0.0
H976 H 0.68638 0.80499 0.60976 0.0
H977 H 0.68282 0.82618 0.5894 0.0
H978 H 0.63844 0.88466 0.58202 0.0
H979 H 0.63547 0.86027 0.56145 0.0
H980 H 0.68498 0.89028 0.61294 0.0
H981 H 0.68222 0.86616 0.59191 0.0
H982 H 0.68174 0.90371 0.51848 0.0
H983 H 0.67856 0.88119 0.54247 0.0
H984 H 0.63763 0.86424 0.48149 0.0
H985 H 0.63348 0.84196 0.50671 0.0
N986 N 0.65171 0.83098 0.53043 0.0
N987 N 0.65862 0.83429 0.57212 0.0
C988 C 0.1374 0.75642 0.5077 0.0
C989 C 0.13128 0.76345 0.49238 0.0
C990 C 0.15187 0.76757 0.52072 0.0
C991 C 0.16023 0.78589 0.51875 0.0
C992 C 0.14047 0.78171 0.48964 0.0
C993 C 0.15471 0.79277 0.50266 0.0
C994 C 0.17441 0.79836 0.53334 0.0
C995 C 0.12615 0.76615 0.57308 0.0
C996 C 0.1287 0.758 0.59042 0.0
C997 C 0.14064 0.77856 0.56151 0.0
C998 C 0.15793 0.78258 0.56656 0.0
C999 C 0.14599 0.76222 0.59577 0.0
C1000 C 0.16049 0.77439 0.58389 0.0
C1001 C 0.17348 0.79673 0.55541 0.0
C1002 C 0.21646 0.86845 0.58538 0.0
C1003 C 0.22815 0.86858 0.60053 0.0
C1004 C 0.20766 0.85448 0.57143 0.0
C1005 C 0.21027 0.84031 0.57253 0.0
C1006 C 0.23104 0.85455 0.60146 0.0
C1007 C 0.22191 0.84032 0.5877 0.0
C1008 C 0.19978 0.82511 0.55863 0.0
C1009 C 0.24435 0.8664 0.51916 0.0
C1010 C 0.23856 0.8724 0.50226 0.0
C1011 C 0.23212 0.85176 0.53075 0.0
C1012 C 0.2139 0.84292 0.52569 0.0
C1013 C 0.22029 0.86366 0.49752 0.0
C1014 C 0.20813 0.84908 0.50906 0.0
C1015 C 0.20073 0.82672 0.53669 0.0
H1016 H 0.13066 0.74239 0.51008 0.0
H1017 H 0.15621 0.76191 0.53259 0.0
H1018 H 0.13646 0.78755 0.47758 0.0
H1019 H 0.16104 0.80681 0.50054 0.0
H1020 H 0.11299 0.76347 0.56898 0.0
H1021 H 0.13833 0.78533 0.54897 0.0
H1022 H 0.14827 0.75622 0.60922 0.0
H1023 H 0.17375 0.7776 0.58839 0.0
H1024 H 0.21411 0.87919 0.58437 0.0
H1025 H 0.19853 0.85457 0.56002 0.0
H1026 H 0.24 0.85444 0.6131 0.0
H1027 H 0.22391 0.82938 0.58886 0.0
H1028 H 0.25834 0.87287 0.52322 0.0
H1029 H 0.23697 0.84709 0.54326 0.0
H1030 H 0.21539 0.86768 0.48439 0.0
H1031 H 0.19416 0.84247 0.50479 0.0
N1032 N 0.18804 0.81329 0.52499 0.0
N1033 N 0.18629 0.81016 0.56715 0.0
C1034 C 0.24508 0.38592 0.49803 0.0
C1035 C 0.24584 0.37058 0.49841 0.0
C1036 C 0.23364 0.38771 0.51126 0.0
C1037 C 0.22285 0.37432 0.52531 0.0
C1038 C 0.23523 0.35728 0.51276 0.0
C1039 C 0.22377 0.3591 0.52601 0.0
C1040 C 0.20939 0.37564 0.53738 0.0
C1041 C 0.21952 0.34864 0.59792 0.0
C1042 C 0.23818 0.35824 0.59676 0.0
C1043 C 0.20943 0.35345 0.58586 0.0
C1044 C 0.21774 0.36788 0.57228 0.0
C1045 C 0.24652 0.37299 0.58359 0.0
C1046 C 0.2364 0.37783 0.57158 0.0
C1047 C 0.20669 0.37227 0.55903 0.0
C1048 C 0.13421 0.36045 0.57264 0.0
C1049 C 0.13699 0.36892 0.59202 0.0
C1050 C 0.14862 0.3627 0.56109 0.0
C1051 C 0.1661 0.37385 0.56844 0.0
C1052 C 0.15447 0.37996 0.59941 0.0
C1053 C 0.16888 0.38239 0.58773 0.0
C1054 C 0.18146 0.37556 0.55709 0.0
C1055 C 0.15302 0.39311 0.51375 0.0
C1056 C 0.14821 0.38435 0.49439 0.0
C1057 C 0.16528 0.39214 0.52697 0.0
C1058 C 0.17238 0.38182 0.52136 0.0
C1059 C 0.15609 0.37488 0.48835 0.0
C1060 C 0.16799 0.37361 0.50168 0.0
C1061 C 0.18437 0.37926 0.53545 0.0
H1062 H 0.2528 0.39627 0.48692 0.0
H1063 H 0.23295 0.39945 0.51023 0.0
H1064 H 0.23554 0.34534 0.51349 0.0
H1065 H 0.21523 0.34837 0.53632 0.0
H1066 H 0.21268 0.33715 0.60777 0.0
H1067 H 0.19506 0.34562 0.58677 0.0
H1068 H 0.26088 0.38087 0.58267 0.0
H1069 H 0.24317 0.38933 0.56173 0.0
H1070 H 0.12086 0.35155 0.56678 0.0
H1071 H 0.14607 0.35545 0.54664 0.0
H1072 H 0.15698 0.38662 0.61431 0.0
H1073 H 0.18224 0.39086 0.59384 0.0
H1074 H 0.14723 0.40062 0.51867 0.0
H1075 H 0.16895 0.39921 0.54166 0.0
H1076 H 0.1525 0.36784 0.47362 0.0
H1077 H 0.17334 0.3657 0.4968 0.0
N1078 N 0.19822 0.3791 0.52656 0.0
N1079 N 0.19281 0.37234 0.56799 0.0
H1080 H 0.95325 0.37458 0.0545 0.0
H1081 H 0.00085 0.37514 0.07315 0.0
H1082 H 0.95668 0.39271 0.0846 0.0
H1083 H 0.00419 0.39335 0.10339 0.0
H1084 H 0.99492 0.41603 0.1645 0.0
H1085 H 0.9889 0.39392 0.13766 0.0
H1086 H 0.98023 0.42446 0.09193 0.0
H1087 H 0.98623 0.44637 0.11852 0.0
C1088 C 0.96432 0.37836 0.06515 0.0
C1089 C 0.97689 0.37356 0.06126 0.0
C1090 C 0.9663 0.3888 0.08236 0.0
C1091 C 0.98079 0.39456 0.09618 0.0
C1092 C 0.99286 0.38902 0.093 0.0
C1093 C 0.99097 0.37867 0.07563 0.0
C1094 C 0.99163 0.41789 0.14871 0.0
C1095 C 0.99113 0.43292 0.1435 0.0
C1096 C 0.98828 0.40533 0.13339 0.0
C1097 C 0.98403 0.40747 0.11277 0.0
C1098 C 0.98328 0.42238 0.10774 0.0
C1099 C 0.98687 0.43499 0.1229 0.0
H1100 H 0.65255 0.59416 0.06399 0.0
H1101 H 0.61676 0.6134 0.06621 0.0
H1102 H 0.63997 0.57781 0.0961 0.0
H1103 H 0.60313 0.59605 0.09746 0.0
H1104 H 0.58482 0.56887 0.15878 0.0
H1105 H 0.6036 0.59034 0.1325 0.0
H1106 H 0.61505 0.55258 0.10678 0.0
H1107 H 0.59733 0.53186 0.13398 0.0
C1108 C 0.64193 0.59483 0.07141 0.0
C1109 C 0.63552 0.60491 0.0626 0.0
C1110 C 0.63458 0.58534 0.08974 0.0
C1111 C 0.62026 0.58527 0.09936 0.0
C1112 C 0.61428 0.59589 0.09082 0.0
C1113 C 0.62199 0.60578 0.07277 0.0
C1114 C 0.59175 0.56545 0.14771 0.0
C1115 C 0.5898 0.54885 0.14834 0.0
C1116 C 0.60235 0.57763 0.13249 0.0
C1117 C 0.6108 0.57325 0.11723 0.0
C1118 C 0.60914 0.5567 0.1184 0.0
C1119 C 0.5989 0.54472 0.13392 0.0
H1120 H 0.38466 0.02013 0.07257 0.0
H1121 H 0.38649 0.97374 0.05933 0.0
H1122 H 0.4063 0.02762 0.10105 0.0
H1123 H 0.40828 0.98142 0.08705 0.0
H1124 H 0.43161 0.98752 0.1507 0.0
H1125 H 0.40948 0.98185 0.12408 0.0
H1126 H 0.43706 0.03708 0.10921 0.0
H1127 H 0.45876 0.04297 0.13695 0.0
C1128 C 0.38977 0.01163 0.0756 0.0
C1129 C 0.3837 0.99625 0.06381 0.0
C1130 C 0.40221 0.01595 0.09187 0.0
C1131 C 0.40886 0.00499 0.09657 0.0
C1132 C 0.40311 0.98992 0.08431 0.0
C1133 C 0.39067 0.98557 0.06826 0.0
C1134 C 0.43281 0.99857 0.14216 0.0
C1135 C 0.44705 0.01573 0.14608 0.0
C1136 C 0.42023 0.99526 0.12658 0.0
C1137 C 0.4216 0.00896 0.11423 0.0
C1138 C 0.43555 0.02621 0.11845 0.0
C1139 C 0.44812 0.02956 0.13421 0.0
H1140 H 0.37873 0.01204 0.96065 0.0
H1141 H 0.34837 0.95615 0.94935 0.0
H1142 H 0.3958 0.01618 0.92897 0.0
H1143 H 0.36524 0.96039 0.91754 0.0
H1144 H 0.39414 0.97719 0.85445 0.0
H1145 H 0.37376 0.97648 0.88063 0.0
H1146 H 0.41763 0.00461 0.92388 0.0
H1147 H 0.4378 0.00449 0.89856 0.0
C1148 C 0.37537 0.00071 0.95112 0.0
C1149 C 0.36235 0.98375 0.95758 0.0
C1150 C 0.38517 0.00309 0.93306 0.0
C1151 C 0.38185 0.98859 0.92093 0.0
C1152 C 0.36796 0.97178 0.92656 0.0
C1153 C 0.3584 0.96936 0.94481 0.0
C1154 C 0.39948 0.98319 0.86954 0.0
C1155 C 0.41771 0.99083 0.87429 0.0
C1156 C 0.38781 0.98291 0.88442 0.0
C1157 C 0.39418 0.99059 0.90415 0.0
C1158 C 0.41243 0.99887 0.90862 0.0
C1159 C 0.42402 0.99885 0.89398 0.0
H1160 H 0.97531 0.36971 0.93634 0.0
H1161 H 0.02555 0.401 0.96876 0.0
H1162 H 0.98582 0.39089 0.90792 0.0
H1163 H 0.03605 0.42252 0.94021 0.0
H1164 H 0.02703 0.46463 0.90375 0.0
H1165 H 0.02456 0.44289 0.92903 0.0
H1166 H 0.00938 0.40504 0.87926 0.0
H1167 H 0.01195 0.42689 0.85391 0.0
C1168 C 0.98871 0.38103 0.93724 0.0
C1169 C 0.99957 0.38381 0.95482 0.0
C1170 C 0.99478 0.39308 0.92087 0.0
C1171 C 0.01175 0.40833 0.92187 0.0
C1172 C 0.0229 0.41084 0.9391 0.0
C1173 C 0.01693 0.39855 0.95536 0.0
C1174 C 0.02354 0.45177 0.8982 0.0
C1175 C 0.01951 0.44734 0.87697 0.0
C1176 C 0.02227 0.43939 0.91261 0.0
C1177 C 0.0167 0.42228 0.90609 0.0
C1178 C 0.01364 0.41814 0.88467 0.0
C1179 C 0.01517 0.43062 0.87019 0.0
H1180 H 0.62566 0.6039 0.93968 0.0
H1181 H 0.60292 0.62965 0.97241 0.0
H1182 H 0.60279 0.59425 0.9128 0.0
H1183 H 0.57937 0.6193 0.94579 0.0
H1184 H 0.547 0.60803 0.88431 0.0
H1185 H 0.5714 0.62091 0.91005 0.0
H1186 H 0.57231 0.573 0.90981 0.0
H1187 H 0.54853 0.56056 0.88388 0.0
C1188 C 0.61571 0.60746 0.94116 0.0
C1189 C 0.61598 0.61737 0.95828 0.0
C1190 C 0.60249 0.60182 0.92579 0.0
C1191 C 0.58899 0.60568 0.92729 0.0
C1192 C 0.5896 0.61614 0.94407 0.0
C1193 C 0.60304 0.62202 0.95937 0.0
C1194 C 0.5525 0.60035 0.88982 0.0
C1195 C 0.54608 0.58341 0.88189 0.0
C1196 C 0.56641 0.60767 0.90459 0.0
C1197 C 0.57402 0.5981 0.91184 0.0
C1198 C 0.5672 0.58099 0.90418 0.0
C1199 C 0.5535 0.5738 0.88934 0.0
H1200 H 0.06063 0.64722 0.95024 0.0
H1201 H 0.00359 0.61855 0.95692 0.0
H1202 H 0.05748 0.6302 0.91907 0.0
H1203 H 0.00036 0.60072 0.92676 0.0
H1204 H 0.99664 0.57587 0.86512 0.0
H1205 H 0.00128 0.59769 0.89132 0.0
H1206 H 0.05144 0.60299 0.90892 0.0
H1207 H 0.04715 0.58213 0.8817 0.0
C1208 C 0.04741 0.63724 0.94503 0.0
C1209 C 0.03237 0.63421 0.95603 0.0
C1210 C 0.04557 0.62734 0.92724 0.0
C1211 C 0.02865 0.61386 0.9203 0.0
C1212 C 0.0136 0.61114 0.9312 0.0
C1213 C 0.01544 0.62131 0.94867 0.0
C1214 C 0.00876 0.582 0.87444 0.0
C1215 C 0.02157 0.57744 0.87146 0.0
C1216 C 0.01139 0.59437 0.88962 0.0
C1217 C 0.02668 0.60209 0.90257 0.0
C1218 C 0.03965 0.59768 0.89913 0.0
C1219 C 0.03718 0.58563 0.88361 0.0
H1220 H 0.38594 0.4326 0.99115 0.0
H1221 H 0.35806 0.38706 0.95123 0.0
H1222 H 0.39952 0.45104 0.96088 0.0
H1223 H 0.37083 0.40572 0.92048 0.0
H1224 H 0.41099 0.44215 0.87155 0.0
H1225 H 0.39645 0.42259 0.90085 0.0
H1226 H 0.39425 0.46391 0.93289 0.0
H1227 H 0.41038 0.48388 0.90478 0.0
C1228 C 0.38252 0.42657 0.9758 0.0
C1229 C 0.37088 0.4084 0.97356 0.0
C1230 C 0.3902 0.43718 0.95834 0.0
C1231 C 0.38614 0.43001 0.93804 0.0
C1232 C 0.37447 0.41175 0.93581 0.0
C1233 C 0.36705 0.40104 0.95341 0.0
C1234 C 0.40766 0.44717 0.88496 0.0
C1235 C 0.41215 0.46478 0.88571 0.0
C1236 C 0.39899 0.4358 0.9017 0.0
C1237 C 0.39429 0.44163 0.9195 0.0
C1238 C 0.39804 0.45899 0.91978 0.0
C1239 C 0.40703 0.47043 0.90331 0.0
H1240 H 0.59535 0.97382 0.9705 0.0
H1241 H 0.63184 0.01883 0.93383 0.0
H1242 H 0.57204 0.96596 0.94403 0.0
H1243 H 0.60908 0.01061 0.90698 0.0
H1244 H 0.55994 0.00919 0.88321 0.0
H1245 H 0.58375 0.01297 0.90599 0.0
H1246 H 0.55985 0.95673 0.90902 0.0
H1247 H 0.5352 0.95291 0.88689 0.0
C1248 C 0.59851 0.98168 0.95646 0.0
C1249 C 0.61524 0.99706 0.95429 0.0
C1250 C 0.58519 0.97719 0.94128 0.0
C1251 C 0.58854 0.9879 0.92358 0.0
C1252 C 0.60583 0.0024 0.92071 0.0
C1253 C 0.61893 0.00704 0.936 0.0
C1254 C 0.5596 0.99758 0.88885 0.0
C1255 C 0.54551 0.98074 0.8834 0.0
C1256 C 0.57348 0.99975 0.90167 0.0
C1257 C 0.57387 0.98516 0.90924 0.0
C1258 C 0.55992 0.96826 0.90357 0.0
C1259 C 0.54589 0.96607 0.89074 0.0
H1260 H 0.6235 0.99395 0.06995 0.0
H1261 H 0.63421 0.04606 0.05683 0.0
H1262 H 0.60812 0.99321 0.1019 0.0
H1263 H 0.61866 0.04517 0.08827 0.0
H1264 H 0.60041 0.04507 0.15289 0.0
H1265 H 0.61977 0.04511 0.12591 0.0
H1266 H 0.58026 0.99134 0.11066 0.0
H1267 H 0.56102 0.99126 0.13786 0.0
C1268 C 0.62271 0.00528 0.07394 0.0
C1269 C 0.63002 0.02003 0.06077 0.0
C1270 C 0.61382 0.00482 0.09218 0.0
C1271 C 0.61214 0.01912 0.09764 0.0
C1272 C 0.61992 0.03402 0.08474 0.0
C1273 C 0.62874 0.03448 0.06658 0.0
C1274 C 0.59594 0.03323 0.14386 0.0
C1275 C 0.57913 0.01823 0.14732 0.0
C1276 C 0.60701 0.03325 0.1284 0.0
C1277 C 0.60148 0.0183 0.11595 0.0
C1278 C 0.58501 0.00302 0.12009 0.0
C1279 C 0.57396 0.00298 0.13565 0.0
H1280 H 0.03856 0.63816 0.07972 0.0
H1281 H 0.9866 0.60691 0.05102 0.0
H1282 H 0.0293 0.61747 0.10865 0.0
H1283 H 0.97741 0.58586 0.08 0.0
H1284 H 0.98694 0.54396 0.11645 0.0
H1285 H 0.98936 0.56531 0.09053 0.0
H1286 H 0.00648 0.6045 0.13901 0.0
H1287 H 0.00377 0.58299 0.16504 0.0
C1288 C 0.02508 0.62694 0.07971 0.0
C1289 C 0.01334 0.62407 0.06305 0.0
C1290 C 0.01975 0.61517 0.09637 0.0
C1291 C 0.00264 0.6001 0.09656 0.0
C1292 C 0.99068 0.59742 0.08019 0.0
C1293 C 0.99591 0.60944 0.06368 0.0
C1294 C 0.99084 0.55704 0.12159 0.0
C1295 C 0.99526 0.56191 0.14266 0.0
C1296 C 0.99211 0.5692 0.10681 0.0
C1297 C 0.99815 0.58654 0.11278 0.0
C1298 C 0.00182 0.5912 0.13403 0.0
C1299 C 0.00022 0.57893 0.14889 0.0
H1300 H 0.3748 0.38905 0.09534 0.0
H1301 H 0.39673 0.36975 0.05031 0.0
H1302 H 0.39862 0.39508 0.11988 0.0
H1303 H 0.42082 0.37596 0.07501 0.0
H1304 H 0.43889 0.39864 0.16473 0.0
H1305 H 0.41293 0.38213 0.14173 0.0
H1306 H 0.44627 0.40551 0.08781 0.0
H1307 H 0.47214 0.4219 0.11077 0.0
C1308 C 0.38457 0.38582 0.09082 0.0
C1309 C 0.38402 0.37911 0.07083 0.0
C1310 C 0.39813 0.38913 0.10497 0.0
C1311 C 0.4116 0.38601 0.09935 0.0
C1312 C 0.41062 0.37853 0.0797 0.0
C1313 C 0.39683 0.37494 0.06562 0.0
C1314 C 0.44071 0.39979 0.14795 0.0
C1315 C 0.45744 0.41165 0.13949 0.0
C1316 C 0.42587 0.39044 0.13481 0.0
C1317 C 0.42756 0.39266 0.113 0.0
C1318 C 0.44456 0.40343 0.10453 0.0
C1319 C 0.45934 0.41291 0.11766 0.0
H1320 H 0.65822 0.70809 0.41356 0.0
H1321 H 0.60791 0.70315 0.39831 0.0
H1322 H 0.66147 0.7261 0.44382 0.0
H1323 H 0.61136 0.72143 0.42819 0.0
H1324 H 0.61563 0.74426 0.49224 0.0
H1325 H 0.61186 0.72294 0.46583 0.0
H1326 H 0.66745 0.75537 0.45022 0.0
H1327 H 0.67121 0.77658 0.47673 0.0
C1328 C 0.6478 0.71075 0.41671 0.0
C1329 C 0.63283 0.70422 0.40343 0.0
C1330 C 0.64972 0.72117 0.43399 0.0
C1331 C 0.63673 0.7253 0.4384 0.0
C1332 C 0.62153 0.71835 0.42544 0.0
C1333 C 0.6196 0.70793 0.4082 0.0
C1334 C 0.62705 0.7468 0.4832 0.0
C1335 C 0.6437 0.76216 0.48651 0.0
C1336 C 0.62489 0.73459 0.46805 0.0
C1337 C 0.63932 0.73748 0.45579 0.0
C1338 C 0.6561 0.75259 0.45955 0.0
C1339 C 0.65826 0.76478 0.47476 0.0
H1340 H 0.29795 0.91552 0.39214 0.0
H1341 H 0.2964 0.9602 0.41481 0.0
H1342 H 0.28432 0.8998 0.42414 0.0
H1343 H 0.28295 0.94442 0.44727 0.0
H1344 H 0.23589 0.89907 0.48505 0.0
H1345 H 0.25428 0.91929 0.45767 0.0
H1346 H 0.28911 0.89882 0.46129 0.0
H1347 H 0.27028 0.87808 0.48799 0.0
C1348 C 0.29487 0.92209 0.40406 0.0
C1349 C 0.29817 0.9391 0.40083 0.0
C1350 C 0.2872 0.9131 0.42254 0.0
C1351 C 0.28261 0.92087 0.43833 0.0
C1352 C 0.28622 0.93803 0.43533 0.0
C1353 C 0.29397 0.94708 0.41677 0.0
C1354 C 0.24755 0.89898 0.4801 0.0
C1355 C 0.25145 0.88677 0.48847 0.0
C1356 C 0.25821 0.91071 0.46457 0.0
C1357 C 0.27303 0.91051 0.4571 0.0
C1358 C 0.27759 0.89909 0.46645 0.0
C1359 C 0.26691 0.88734 0.48195 0.0
H1360 H 0.07412 0.3736 0.39379 0.0
H1361 H 0.05143 0.32737 0.43266 0.0
H1362 H 0.09871 0.38913 0.41914 0.0
H1363 H 0.07557 0.34283 0.4579 0.0
H1364 H 0.11515 0.37616 0.5062 0.0
H1365 H 0.0898 0.36887 0.48322 0.0
H1366 H 0.12378 0.38315 0.42944 0.0
H1367 H 0.14909 0.39042 0.45241 0.0
C1368 C 0.0742 0.36691 0.40792 0.0
C1369 C 0.06099 0.34926 0.41121 0.0
C1370 C 0.08825 0.37575 0.42236 0.0
C1371 C 0.08899 0.36719 0.44051 0.0
C1372 C 0.07524 0.34985 0.44421 0.0
C1373 C 0.0615 0.34095 0.42966 0.0
C1374 C 0.11729 0.37827 0.48953 0.0
C1375 C 0.13401 0.38369 0.48104 0.0
C1376 C 0.10279 0.37401 0.47639 0.0
C1377 C 0.10482 0.37532 0.45455 0.0
C1378 C 0.12185 0.38212 0.4462 0.0
C1379 C 0.1363 0.38616 0.45932 0.0
H1380 H 0.05465 0.34071 0.30334 0.0
H1381 H 0.02319 0.28436 0.30875 0.0
H1382 H 0.06713 0.33798 0.27085 0.0
H1383 H 0.03448 0.28141 0.27548 0.0
H1384 H 0.07564 0.28205 0.23239 0.0
H1385 H 0.05937 0.28374 0.26179 0.0
H1386 H 0.0649 0.33121 0.23597 0.0
H1387 H 0.08238 0.32997 0.20739 0.0
C1388 C 0.0501 0.32773 0.29726 0.0
C1389 C 0.03815 0.31275 0.30862 0.0
C1390 C 0.05714 0.3261 0.2785 0.0
C1391 C 0.05201 0.30943 0.27042 0.0
C1392 C 0.03924 0.29447 0.28138 0.0
C1393 C 0.03262 0.29613 0.3004 0.0
C1394 C 0.0731 0.29267 0.23296 0.0
C1395 C 0.08015 0.30586 0.21775 0.0
C1396 C 0.06367 0.29364 0.24975 0.0
C1397 C 0.06075 0.30767 0.25148 0.0
C1398 C 0.06718 0.32043 0.23556 0.0
C1399 C 0.07701 0.31966 0.21902 0.0
H1400 H 0.67842 0.73082 0.31063 0.0
H1401 H 0.63083 0.69259 0.27771 0.0
H1402 H 0.68653 0.75091 0.28088 0.0
H1403 H 0.63925 0.71201 0.24771 0.0
H1404 H 0.64293 0.75891 0.21542 0.0
H1405 H 0.63846 0.7374 0.24156 0.0
H1406 H 0.69517 0.7588 0.24488 0.0
H1407 H 0.69972 0.78119 0.21924 0.0
C1408 C 0.66998 0.72656 0.29679 0.0
C1409 C 0.65387 0.71033 0.29654 0.0
C1410 C 0.67462 0.73801 0.27972 0.0
C1411 C 0.66333 0.73326 0.26204 0.0
C1412 C 0.64797 0.71638 0.2613 0.0
C1413 C 0.64319 0.70517 0.27843 0.0
C1414 C 0.6545 0.75912 0.22175 0.0
C1415 C 0.67169 0.77193 0.2154 0.0
C1416 C 0.65192 0.74656 0.23657 0.0
C1417 C 0.66645 0.74623 0.24533 0.0
C1418 C 0.68368 0.75875 0.2386 0.0
C1419 C 0.68628 0.77146 0.22374 0.0
H1420 H 0.29918 0.95228 0.27406 0.0
H1421 H 0.26693 0.96306 0.3141 0.0
H1422 H 0.27672 0.94243 0.24654 0.0
H1423 H 0.2438 0.95229 0.28683 0.0
H1424 H 0.20707 0.93639 0.22935 0.0
H1425 H 0.23308 0.95401 0.25208 0.0
H1426 H 0.2489 0.9161 0.24353 0.0
H1427 H 0.22371 0.8992 0.22041 0.0
C1428 C 0.28729 0.95266 0.27687 0.0
C1429 C 0.28463 0.95815 0.29626 0.0
C1430 C 0.27436 0.94693 0.26116 0.0
C1431 C 0.25822 0.94611 0.26466 0.0
C1432 C 0.25608 0.95277 0.28359 0.0
C1433 C 0.26926 0.95887 0.29924 0.0
C1434 C 0.21634 0.93207 0.23211 0.0
C1435 C 0.21326 0.91632 0.22328 0.0
C1436 C 0.23113 0.94206 0.24525 0.0
C1437 C 0.24314 0.93653 0.24962 0.0
C1438 C 0.24018 0.921 0.24028 0.0
C1439 C 0.22554 0.91112 0.22723 0.0
H1440 H 0.7249 0.98185 0.28098 0.0
H1441 H 0.66802 0.95435 0.28984 0.0
H1442 H 0.72044 0.96267 0.25131 0.0
H1443 H 0.66373 0.93508 0.26051 0.0
H1444 H 0.67206 0.89028 0.23498 0.0
H1445 H 0.67515 0.91237 0.25948 0.0
H1446 H 0.70305 0.95265 0.21325 0.0
H1447 H 0.69905 0.9304 0.1879 0.0
C1448 C 0.71146 0.97192 0.27641 0.0
C1449 C 0.69682 0.96953 0.28785 0.0
C1450 C 0.70893 0.96102 0.2594 0.0
C1451 C 0.69177 0.94739 0.25381 0.0
C1452 C 0.6771 0.94548 0.26464 0.0
C1453 C 0.67958 0.95655 0.28137 0.0
C1454 C 0.67844 0.90372 0.22965 0.0
C1455 C 0.68512 0.90841 0.20923 0.0
C1456 C 0.6803 0.91639 0.24383 0.0
C1457 C 0.68923 0.93413 0.23816 0.0
C1458 C 0.69613 0.93901 0.21793 0.0
C1459 C 0.69393 0.92625 0.20352 0.0
H1460 H 0.01138 0.74056 0.30421 0.0
H1461 H 0.04437 0.71837 0.29757 0.0
H1462 H 0.02423 0.75795 0.27281 0.0
H1463 H 0.05822 0.73663 0.26701 0.0
H1464 H 0.07573 0.76484 0.20619 0.0
H1465 H 0.05694 0.74332 0.23243 0.0
H1466 H 0.04986 0.78268 0.26214 0.0
H1467 H 0.06758 0.80354 0.23501 0.0
C1468 C 0.02147 0.73948 0.29602 0.0
C1469 C 0.02698 0.72822 0.30335 0.0
C1470 C 0.02895 0.74955 0.27808 0.0
C1471 C 0.0425 0.74897 0.26736 0.0
C1472 C 0.04765 0.73731 0.27451 0.0
C1473 C 0.03982 0.7269 0.29217 0.0
C1474 C 0.06973 0.76861 0.21813 0.0
C1475 C 0.07291 0.78569 0.21865 0.0
C1476 C 0.05916 0.75641 0.23333 0.0
C1477 C 0.05195 0.76121 0.24968 0.0
C1478 C 0.05481 0.77827 0.24968 0.0
C1479 C 0.06504 0.79032 0.2342 0.0
H1480 H 0.28933 0.34802 0.26793 0.0
H1481 H 0.26311 0.30169 0.30662 0.0
H1482 H 0.26522 0.33401 0.24233 0.0
H1483 H 0.23867 0.28769 0.28093 0.0
H1484 H 0.19079 0.29025 0.24742 0.0
H1485 H 0.21562 0.29623 0.27056 0.0
H1486 H 0.24933 0.30796 0.21692 0.0
H1487 H 0.2244 0.30186 0.19375 0.0
C1488 C 0.2785 0.33474 0.27082 0.0
C1489 C 0.27801 0.326 0.28934 0.0
C1490 C 0.26477 0.32666 0.25607 0.0
C1491 C 0.2501 0.30977 0.25965 0.0
C1492 C 0.24986 0.30074 0.27783 0.0
C1493 C 0.26382 0.30872 0.29246 0.0
C1494 C 0.2034 0.29368 0.24059 0.0
C1495 C 0.20577 0.29573 0.21886 0.0
C1496 C 0.21756 0.29699 0.2538 0.0
C1497 C 0.2344 0.30266 0.24551 0.0
C1498 C 0.23648 0.30368 0.22369 0.0
C1499 C 0.22223 0.30011 0.21045 0.0
H1500 H 0.29213 0.33491 0.40454 0.0
H1501 H 0.30289 0.38606 0.3858 0.0
H1502 H 0.27981 0.3376 0.43738 0.0
H1503 H 0.29046 0.38861 0.41836 0.0
H1504 H 0.27941 0.39464 0.48512 0.0
H1505 H 0.29556 0.39158 0.45636 0.0
H1506 H 0.2529 0.33784 0.44753 0.0
H1507 H 0.23671 0.34091 0.47615 0.0
C1508 C 0.29199 0.34676 0.40747 0.0
C1509 C 0.29842 0.36023 0.39249 0.0
C1510 C 0.28487 0.34826 0.42624 0.0
C1511 C 0.28417 0.36331 0.43047 0.0
C1512 C 0.29102 0.37694 0.41572 0.0
C1513 C 0.29803 0.37541 0.39695 0.0
C1514 C 0.27353 0.38215 0.47711 0.0
C1515 C 0.2567 0.36808 0.48281 0.0
C1516 C 0.28278 0.38039 0.46066 0.0
C1517 C 0.27543 0.36452 0.44956 0.0
C1518 C 0.25901 0.35019 0.45591 0.0
C1519 C 0.24973 0.35195 0.47234 0.0
H1520 H 0.70682 0.95425 0.39167 0.0
H1521 H 0.66042 0.9576 0.40254 0.0
H1522 H 0.69908 0.93436 0.42097 0.0
H1523 H 0.653 0.93818 0.43271 0.0
H1524 H 0.63614 0.88891 0.47269 0.0
H1525 H 0.64265 0.90896 0.44356 0.0
H1526 H 0.69884 0.93393 0.45742 0.0
H1527 H 0.69248 0.91311 0.48522 0.0
C1528 C 0.69503 0.95087 0.40048 0.0
C1529 C 0.68428 0.95758 0.39482 0.0
C1530 C 0.69064 0.93953 0.41745 0.0
C1531 C 0.67553 0.93479 0.4295 0.0
C1532 C 0.66465 0.9414 0.42372 0.0
C1533 C 0.66894 0.9526 0.40648 0.0
C1534 C 0.6499 0.89857 0.4694 0.0
C1535 C 0.66375 0.89922 0.48134 0.0
C1536 C 0.65363 0.91026 0.45284 0.0
C1537 C 0.6713 0.92301 0.44792 0.0
C1538 C 0.68508 0.92406 0.46038 0.0
C1539 C 0.68138 0.91226 0.47669 0.0
H1540 H 0.02908 0.7173 0.42862 0.0
H1541 H 0.06045 0.70454 0.38964 0.0
H1542 H 0.05175 0.7276 0.45593 0.0
H1543 H 0.08376 0.71579 0.4166 0.0
H1544 H 0.12064 0.7317 0.47353 0.0
H1545 H 0.09451 0.71443 0.45093 0.0
H1546 H 0.07972 0.75313 0.45954 0.0
H1547 H 0.10493 0.76958 0.48273 0.0
C1548 C 0.04085 0.71666 0.42595 0.0
C1549 C 0.04315 0.71038 0.40692 0.0
C1550 C 0.05391 0.72266 0.44156 0.0
C1551 C 0.06982 0.72296 0.43832 0.0
C1552 C 0.07167 0.71571 0.4197 0.0
C1553 C 0.05837 0.70934 0.4042 0.0
C1554 C 0.11157 0.73628 0.47083 0.0
C1555 C 0.11498 0.75212 0.47971 0.0
C1556 C 0.09671 0.72649 0.45774 0.0
C1557 C 0.08496 0.73235 0.45336 0.0
C1558 C 0.08822 0.74797 0.46275 0.0
C1559 C 0.10291 0.75762 0.47583 0.0
H1560 H 0.27605 0.02399 0.74203 0.0
H1561 H 0.33139 0.06174 0.73088 0.0
H1562 H 0.27745 0.03913 0.77418 0.0
H1563 H 0.33262 0.07805 0.76177 0.0
H1564 H 0.33502 0.10199 0.82292 0.0
H1565 H 0.33362 0.08218 0.79643 0.0
H1566 H 0.27751 0.06231 0.78732 0.0
H1567 H 0.27841 0.08025 0.81581 0.0
C1568 C 0.2885 0.03565 0.74649 0.0
C1569 C 0.30361 0.04173 0.73409 0.0
C1570 C 0.28932 0.04452 0.76483 0.0
C1571 C 0.3051 0.06012 0.77076 0.0
C1572 C 0.32028 0.06597 0.75827 0.0
C1573 C 0.3196 0.05671 0.74036 0.0
C1574 C 0.32221 0.09301 0.81583 0.0
C1575 C 0.30686 0.09304 0.82163 0.0
C1576 C 0.32149 0.08182 0.80011 0.0
C1577 C 0.30552 0.07069 0.78914 0.0
C1578 C 0.29009 0.07042 0.79533 0.0
C1579 C 0.29069 0.08115 0.81153 0.0
H1580 H 0.97261 0.24504 0.71186 0.0
H1581 H 0.95925 0.28135 0.73746 0.0
H1582 H 0.95944 0.22601 0.74187 0.0
H1583 H 0.94554 0.2619 0.76745 0.0
H1584 H 0.93486 0.22829 0.82673 0.0
H1585 H 0.95079 0.24932 0.7987 0.0
H1586 H 0.9299 0.20666 0.7542 0.0
H1587 H 0.91422 0.18581 0.78207 0.0
C1588 C 0.96684 0.24898 0.72391 0.0
C1589 C 0.96682 0.26465 0.72215 0.0
C1590 C 0.9592 0.23799 0.7411 0.0
C1591 C 0.95119 0.24227 0.75693 0.0
C1592 C 0.95168 0.25825 0.75557 0.0
C1593 C 0.95947 0.26936 0.73836 0.0
C1594 C 0.93371 0.22346 0.81094 0.0
C1595 C 0.92341 0.20537 0.80665 0.0
C1596 C 0.94279 0.23549 0.79489 0.0
C1597 C 0.94173 0.22968 0.77422 0.0
C1598 C 0.93136 0.21159 0.77 0.0
C1599 C 0.92237 0.1996 0.786 0.0
H1600 H 0.73835 0.69832 0.72831 0.0
H1601 H 0.70911 0.64759 0.75798 0.0
H1602 H 0.76162 0.70813 0.75527 0.0
H1603 H 0.73166 0.65749 0.78526 0.0
H1604 H 0.78361 0.67056 0.81441 0.0
H1605 H 0.76062 0.66302 0.78819 0.0
H1606 H 0.77043 0.71569 0.79125 0.0
H1607 H 0.79411 0.72338 0.8172 0.0
C1608 C 0.73676 0.68939 0.74079 0.0
C1609 C 0.72207 0.67212 0.74088 0.0
C1610 C 0.75004 0.69501 0.75628 0.0
C1611 C 0.74872 0.6835 0.77227 0.0
C1612 C 0.73347 0.66655 0.77286 0.0
C1613 C 0.72044 0.66089 0.75727 0.0
C1614 C 0.78078 0.6805 0.80959 0.0
C1615 C 0.79047 0.69748 0.81803 0.0
C1616 C 0.76752 0.67617 0.7946 0.0
C1617 C 0.76338 0.68864 0.78781 0.0
C1618 C 0.7733 0.70577 0.79602 0.0
C1619 C 0.7868 0.71018 0.81092 0.0
H1620 H 0.6813 0.62247 0.62633 0.0
H1621 H 0.72671 0.67402 0.63849 0.0
H1622 H 0.69465 0.62085 0.59399 0.0
H1623 H 0.74105 0.67196 0.60729 0.0
H1624 H 0.76228 0.66845 0.54608 0.0
H1625 H 0.74467 0.67174 0.57232 0.0
H1626 H 0.7154 0.61562 0.58238 0.0
H1627 H 0.73134 0.61217 0.55439 0.0
C1628 C 0.69421 0.63345 0.62199 0.0
C1629 C 0.70304 0.64834 0.6348 0.0
C1630 C 0.70203 0.63248 0.60358 0.0
C1631 C 0.71922 0.6461 0.59798 0.0
C1632 C 0.72775 0.66126 0.61066 0.0
C1633 C 0.71961 0.66246 0.6287 0.0
C1634 C 0.75173 0.65673 0.5534 0.0
C1635 C 0.74848 0.64003 0.54806 0.0
C1636 C 0.74179 0.65866 0.56888 0.0
C1637 C 0.72862 0.64401 0.57992 0.0
C1638 C 0.72515 0.6273 0.57423 0.0
C1639 C 0.7347 0.62533 0.55834 0.0
H1640 H 0.30482 0.04341 0.61014 0.0
H1641 H 0.35573 0.06679 0.6418 0.0
H1642 H 0.31828 0.06473 0.58201 0.0
H1643 H 0.36922 0.08851 0.6136 0.0
H1644 H 0.36969 0.13655 0.57758 0.0
H1645 H 0.36325 0.11337 0.60282 0.0
H1646 H 0.342 0.07507 0.55302 0.0
H1647 H 0.34864 0.09835 0.52771 0.0
C1648 C 0.31895 0.05303 0.61097 0.0
C1649 C 0.32921 0.05355 0.62823 0.0
C1650 C 0.32668 0.06512 0.59477 0.0
C1651 C 0.34479 0.07822 0.59562 0.0
C1652 C 0.35522 0.0785 0.61259 0.0
C1653 C 0.34753 0.0661 0.62866 0.0
C1654 C 0.36407 0.12323 0.572 0.0
C1655 C 0.35954 0.11916 0.55078 0.0
C1656 C 0.36049 0.11 0.58639 0.0
C1657 C 0.35204 0.09244 0.57986 0.0
C1658 C 0.34847 0.08852 0.55844 0.0
C1659 C 0.35233 0.10181 0.54398 0.0
H1660 H 0.93653 0.29974 0.6425 0.0
H1661 H 0.95841 0.2783 0.6004 0.0
H1662 H 0.91234 0.29223 0.61736 0.0
H1663 H 0.93448 0.27096 0.57545 0.0
H1664 H 0.89498 0.26745 0.52857 0.0
H1665 H 0.92083 0.28352 0.55181 0.0
H1666 H 0.88666 0.26246 0.60545 0.0
H1667 H 0.86085 0.24653 0.58225 0.0
C1668 C 0.93636 0.29374 0.62775 0.0
C1669 C 0.94925 0.28945 0.62349 0.0
C1670 C 0.92251 0.2894 0.61342 0.0
C1671 C 0.92154 0.28101 0.59446 0.0
C1672 C 0.93497 0.27759 0.5898 0.0
C1673 C 0.9486 0.28166 0.6042 0.0
C1674 C 0.89297 0.26665 0.54532 0.0
C1675 C 0.87597 0.25563 0.55364 0.0
C1676 C 0.90775 0.27574 0.5586 0.0
C1677 C 0.90576 0.27413 0.58043 0.0
C1678 C 0.88859 0.26406 0.58871 0.0
C1679 C 0.87385 0.25483 0.57545 0.0
H1680 H 0.34347 0.29999 0.61547 0.0
H1681 H 0.3973 0.31453 0.63129 0.0
H1682 H 0.34429 0.28433 0.58466 0.0
H1683 H 0.398 0.2989 0.60061 0.0
H1684 H 0.35685 0.26456 0.5241 0.0
H1685 H 0.35987 0.28662 0.54948 0.0
H1686 H 0.38044 0.26592 0.59536 0.0
H1687 H 0.37727 0.244 0.57024 0.0
C1688 C 0.3556 0.3002 0.61215 0.0
C1689 C 0.37021 0.30827 0.62605 0.0
C1690 C 0.35608 0.29128 0.59446 0.0
C1691 C 0.37112 0.29022 0.59044 0.0
C1692 C 0.38614 0.29932 0.60351 0.0
C1693 C 0.38572 0.3083 0.62107 0.0
C1694 C 0.36221 0.26496 0.53955 0.0
C1695 C 0.36677 0.25261 0.54534 0.0
C1696 C 0.36386 0.27747 0.55404 0.0
C1697 C 0.37045 0.278 0.57433 0.0
C1698 C 0.37553 0.26597 0.57977 0.0
C1699 C 0.37361 0.25335 0.56547 0.0
H1700 H 0.682 0.08184 0.63735 0.0
H1701 H 0.7121 0.05727 0.62509 0.0
H1702 H 0.69213 0.09795 0.60463 0.0
H1703 H 0.7233 0.07422 0.59307 0.0
H1704 H 0.73809 0.10234 0.53224 0.0
H1705 H 0.71989 0.08105 0.55907 0.0
H1706 H 0.7177 0.12198 0.59231 0.0
H1707 H 0.73483 0.14265 0.56476 0.0
C1708 C 0.69079 0.07989 0.62757 0.0
C1709 C 0.6964 0.06845 0.63379 0.0
C1710 C 0.69673 0.08922 0.60888 0.0
C1711 C 0.70884 0.08772 0.59623 0.0
C1712 C 0.71382 0.07564 0.60212 0.0
C1713 C 0.70751 0.06597 0.62059 0.0
C1714 C 0.73319 0.10649 0.54506 0.0
C1715 C 0.73761 0.12396 0.54651 0.0
C1716 C 0.72298 0.09441 0.56057 0.0
C1717 C 0.7174 0.09973 0.57811 0.0
C1718 C 0.72138 0.11718 0.57897 0.0
C1719 C 0.73127 0.12912 0.56325 0.0
H1720 H 0.95363 0.68435 0.60005 0.0
H1721 H 0.92648 0.63587 0.63484 0.0
H1722 H 0.93075 0.67147 0.57288 0.0
H1723 H 0.90331 0.62299 0.60754 0.0
H1724 H 0.85621 0.6235 0.56996 0.0
H1725 H 0.87977 0.63042 0.5954 0.0
H1726 H 0.91779 0.64686 0.54556 0.0
H1727 H 0.89417 0.63938 0.5199 0.0
C1728 C 0.94284 0.67087 0.6018 0.0
C1729 C 0.9418 0.66115 0.61963 0.0
C1730 C 0.92981 0.66346 0.58615 0.0
C1731 C 0.91528 0.64623 0.5881 0.0
C1732 C 0.91437 0.63632 0.6057 0.0
C1733 C 0.92764 0.64366 0.62124 0.0
C1734 C 0.86946 0.62808 0.56429 0.0
C1735 C 0.87328 0.63106 0.54282 0.0
C1736 C 0.88297 0.63207 0.57893 0.0
C1737 C 0.90061 0.63931 0.57245 0.0
C1738 C 0.90432 0.6415 0.55098 0.0
C1739 C 0.89079 0.63731 0.53632 0.0
H1740 H 0.95323 0.6661 0.73593 0.0
H1741 H 0.96466 0.71771 0.71836 0.0
H1742 H 0.94045 0.66829 0.76867 0.0
H1743 H 0.95173 0.71975 0.75077 0.0
H1744 H 0.94017 0.72477 0.81778 0.0
H1745 H 0.95631 0.72216 0.78868 0.0
H1746 H 0.91369 0.66852 0.77897 0.0
H1747 H 0.89753 0.67113 0.808 0.0
C1748 C 0.95312 0.67794 0.73908 0.0
C1749 C 0.9599 0.6917 0.72448 0.0
C1750 C 0.94573 0.67915 0.75778 0.0
C1751 C 0.94508 0.69419 0.76231 0.0
C1752 C 0.95224 0.70808 0.74791 0.0
C1753 C 0.95954 0.70685 0.72922 0.0
C1754 C 0.93428 0.7124 0.80947 0.0
C1755 C 0.9175 0.69821 0.8151 0.0
C1756 C 0.94353 0.71091 0.79282 0.0
C1757 C 0.93622 0.69518 0.78142 0.0
C1758 C 0.91978 0.68075 0.78758 0.0
C1759 C 0.91052 0.68225 0.80423 0.0
H1760 H 0.35598 0.27104 0.71884 0.0
H1761 H 0.31777 0.28475 0.7372 0.0
H1762 H 0.3467 0.25021 0.7474 0.0
H1763 H 0.30873 0.26406 0.76655 0.0
H1764 H 0.29037 0.21464 0.80917 0.0
H1765 H 0.29531 0.233 0.77836 0.0
H1766 H 0.35188 0.25466 0.78449 0.0
H1767 H 0.34698 0.23594 0.81425 0.0
C1768 C 0.34546 0.26948 0.72895 0.0
C1769 C 0.33776 0.27968 0.72599 0.0
C1770 C 0.34022 0.25762 0.74542 0.0
C1771 C 0.32733 0.25583 0.75961 0.0
C1772 C 0.31875 0.2652 0.75591 0.0
C1773 C 0.3239 0.27701 0.73914 0.0
C1774 C 0.30384 0.22329 0.80385 0.0
C1775 C 0.31828 0.22378 0.81424 0.0
C1776 C 0.30666 0.2339 0.78632 0.0
C1777 C 0.32395 0.24511 0.77879 0.0
C1778 C 0.33834 0.24591 0.78957 0.0
C1779 C 0.33555 0.23535 0.80694 0.0
H1780 H 0.72101 0.07088 0.75291 0.0
H1781 H 0.7346 0.03875 0.71698 0.0
H1782 H 0.74368 0.0761 0.77873 0.0
H1783 H 0.75781 0.04437 0.74301 0.0
H1784 H 0.81156 0.08664 0.78263 0.0
H1785 H 0.78776 0.07421 0.75624 0.0
H1786 H 0.74865 0.05628 0.805 0.0
H1787 H 0.77229 0.06819 0.83141 0.0
C1788 C 0.72888 0.06495 0.75049 0.0
C1789 C 0.72605 0.05444 0.73286 0.0
C1790 C 0.74176 0.06783 0.76539 0.0
C1791 C 0.75236 0.06051 0.76292 0.0
C1792 C 0.74973 0.0501 0.74525 0.0
C1793 C 0.73649 0.04688 0.73043 0.0
C1794 C 0.79789 0.07953 0.78776 0.0
C1795 C 0.79383 0.07869 0.80913 0.0
C1796 C 0.78428 0.07245 0.77263 0.0
C1797 C 0.76644 0.06452 0.77864 0.0
C1798 C 0.76234 0.06254 0.79999 0.0
C1799 C 0.77588 0.06944 0.81508 0.0
H1800 H 0.04193 0.36132 0.04685 0.0
H1801 H 0.03275 0.32119 0.00219 0.0
H1802 H 0.0616 0.35504 0.06695 0.0
H1803 H 0.05262 0.31507 0.02222 0.0
H1804 H 0.06821 0.2938 0.07961 0.0
H1805 H 0.05126 0.30164 0.05649 0.0
H1806 H 0.09026 0.35656 0.06602 0.0
H1807 H 0.10732 0.34875 0.089 0.0
C1808 C 0.0443 0.35133 0.04115 0.0
C1809 C 0.03568 0.34169 0.02297 0.0
C1810 C 0.05564 0.34778 0.05263 0.0
C1811 C 0.05856 0.33446 0.04626 0.0
C1812 C 0.05042 0.32523 0.0277 0.0
C1813 C 0.03914 0.32884 0.01614 0.0
C1814 C 0.0733 0.30754 0.07657 0.0
C1815 C 0.08908 0.32063 0.08626 0.0
C1816 C 0.06359 0.31204 0.06329 0.0
C1817 C 0.06941 0.32973 0.05944 0.0
C1818 C 0.0853 0.34282 0.06891 0.0
C1819 C 0.09504 0.33833 0.08212 0.0
H1820 H 0.63927 0.6793 0.04942 0.0
H1821 H 0.68125 0.71526 0.00827 0.0
H1822 H 0.64225 0.70404 0.06907 0.0
H1823 H 0.68409 0.73997 0.02784 0.0
H1824 H 0.69875 0.77711 0.08451 0.0
H1825 H 0.69469 0.75276 0.06311 0.0
H1826 H 0.63773 0.72905 0.06572 0.0
H1827 H 0.64174 0.75352 0.08688 0.0
C1828 C 0.64901 0.69247 0.04443 0.0
C1829 C 0.66007 0.69529 0.02731 0.0
C1830 C 0.65067 0.70665 0.05565 0.0
C1831 C 0.66347 0.72396 0.05008 0.0
C1832 C 0.67426 0.72678 0.03269 0.0
C1833 C 0.67254 0.71261 0.02139 0.0
C1834 C 0.68536 0.76682 0.08033 0.0
C1835 C 0.67058 0.76729 0.08747 0.0
C1836 C 0.68304 0.75286 0.06806 0.0
C1837 C 0.66589 0.73899 0.0627 0.0
C1838 C 0.65111 0.73943 0.0698 0.0
C1839 C 0.65342 0.75344 0.08199 0.0
H1840 H 0.28375 0.92928 0.02976 0.0
H1841 H 0.2981 0.98132 0.04937 0.0
H1842 H 0.25529 0.91705 0.04743 0.0
H1843 H 0.26964 0.96898 0.06722 0.0
H1844 H 0.23178 0.93345 0.122 0.0
H1845 H 0.25784 0.94879 0.09957 0.0
H1846 H 0.22634 0.91762 0.04684 0.0
H1847 H 0.20024 0.90232 0.06928 0.0
C1848 C 0.28074 0.93812 0.03761 0.0
C1849 C 0.29321 0.95624 0.03829 0.0
C1850 C 0.26441 0.93113 0.04761 0.0
C1851 C 0.26034 0.94209 0.05872 0.0
C1852 C 0.27253 0.96026 0.05884 0.0
C1853 C 0.28876 0.9673 0.04855 0.0
C1854 C 0.23041 0.93009 0.10555 0.0
C1855 C 0.21407 0.9167 0.09735 0.0
C1856 C 0.24525 0.93892 0.09271 0.0
C1857 C 0.24407 0.93434 0.07151 0.0
C1858 C 0.22759 0.92134 0.06315 0.0
C1859 C 0.21267 0.91268 0.07593 0.0
H1860 H 0.32563 0.02889 1.00046 0.0
H1861 H 0.38164 0.06682 0.99276 0.0
H1862 H 0.31839 0.04933 0.98469 0.0
H1863 H 0.37427 0.08741 0.97725 0.0
H1864 H 0.35047 0.12363 0.96978 0.0
H1865 H 0.35807 0.10432 0.98799 0.0
H1866 H 0.32323 0.0619 0.94651 0.0
H1867 H 0.31627 0.08128 0.92749 0.0
C1868 C 0.33642 0.04169 0.9957 0.0
C1869 C 0.35424 0.04621 0.9978 0.0
C1870 C 0.33224 0.05333 0.98656 0.0
C1871 C 0.34577 0.06987 0.97966 0.0
C1872 C 0.3636 0.07473 0.98252 0.0
C1873 C 0.3678 0.06295 0.99134 0.0
C1874 C 0.34458 0.11027 0.96428 0.0
C1875 C 0.33275 0.10411 0.94703 0.0
C1876 C 0.34889 0.09921 0.97483 0.0
C1877 C 0.34119 0.08165 0.96867 0.0
C1878 C 0.32918 0.07536 0.95172 0.0
C1879 C 0.32512 0.08647 0.94092 0.0
H1880 H 0.98033 0.30185 0.98522 0.0
H1881 H 0.92699 0.2908 0.99481 0.0
H1882 H 0.96824 0.27371 0.96726 0.0
H1883 H 0.91499 0.26266 0.97739 0.0
H1884 H 0.90112 0.22905 0.91985 0.0
H1885 H 0.91501 0.25577 0.94059 0.0
H1886 H 0.94985 0.24104 0.96954 0.0
H1887 H 0.93589 0.2141 0.94839 0.0
C1888 C 0.96604 0.29325 0.98394 0.0
C1889 C 0.95461 0.29867 0.99113 0.0
C1890 C 0.95912 0.27714 0.97367 0.0
C1891 C 0.94069 0.26617 0.97049 0.0
C1892 C 0.92928 0.27106 0.97907 0.0
C1893 C 0.93616 0.28714 0.98919 0.0
C1894 C 0.91177 0.23152 0.93062 0.0
C1895 C 0.91728 0.21942 0.93273 0.0
C1896 C 0.91966 0.24677 0.94259 0.0
C1897 C 0.93324 0.25031 0.95707 0.0
C1898 C 0.93936 0.23861 0.95856 0.0
C1899 C 0.93143 0.22327 0.94645 0.0
H1900 H 0.71336 0.64302 0.00114 0.0
H1901 H 0.70332 0.68385 0.98373 0.0
H1902 H 0.7438 0.66096 0.98915 0.0
H1903 H 0.73405 0.7019 0.97135 0.0
H1904 H 0.77682 0.70582 0.92118 0.0
H1905 H 0.74951 0.69688 0.9402 0.0
H1906 H 0.77282 0.68951 0.99604 0.0
H1907 H 0.80021 0.69866 0.97715 0.0
C1908 C 0.71778 0.65597 0.995 0.0
C1909 C 0.70598 0.66201 0.99322 0.0
C1910 C 0.73525 0.6663 0.98829 0.0
C1911 C 0.74129 0.68283 0.97936 0.0
C1912 C 0.72969 0.68919 0.97818 0.0
C1913 C 0.71219 0.67892 0.98531 0.0
C1914 C 0.77634 0.70286 0.93769 0.0
C1915 C 0.79052 0.7026 0.94757 0.0
C1916 C 0.76071 0.69777 0.94858 0.0
C1917 C 0.75901 0.69228 0.9695 0.0
C1918 C 0.77372 0.69344 0.97983 0.0
C1919 C 0.78934 0.69859 0.96899 0.0
H1920 H 0.9427 0.63392 0.00895 0.0
H1921 H 0.98803 0.674 0.97504 0.0
H1922 H 0.92389 0.64319 0.99194 0.0
H1923 H 0.96933 0.68302 0.95809 0.0
H1924 H 0.93529 0.70705 0.94871 0.0
H1925 H 0.95304 0.69747 0.96728 0.0
H1926 H 0.91202 0.6434 0.95639 0.0
H1927 H 0.89431 0.65295 0.93758 0.0
C1928 C 0.94864 0.64465 0.99789 0.0
C1929 C 0.96687 0.65321 0.9934 0.0
C1930 C 0.93786 0.64991 0.98809 0.0
C1931 C 0.94516 0.66391 0.97377 0.0
C1932 C 0.96336 0.67239 0.96929 0.0
C1933 C 0.97406 0.6671 0.97894 0.0
C1934 C 0.9301 0.69312 0.95011 0.0
C1935 C 0.9134 0.68079 0.94156 0.0
C1936 C 0.94025 0.68763 0.96082 0.0
C1937 C 0.93394 0.66967 0.96327 0.0
C1938 C 0.91714 0.65732 0.955 0.0
C1939 C 0.90701 0.66281 0.94422 0.0
H1940 H 0.32584 0.29338 0.02482 0.0
H1941 H 0.34952 0.32512 0.96981 0.0
H1942 H 0.32176 0.26777 0.00621 0.0
H1943 H 0.34572 0.29956 0.95135 0.0
H1944 H 0.31824 0.24646 0.91798 0.0
H1945 H 0.32204 0.27185 0.93686 0.0
H1946 H 0.33887 0.25593 0.9919 0.0
H1947 H 0.33445 0.23018 0.97325 0.0
C1948 C 0.33026 0.29493 0.0088 0.0
C1949 C 0.33798 0.31131 0.99881 0.0
C1950 C 0.328 0.28025 0.99816 0.0
C1951 C 0.33339 0.28161 0.97728 0.0
C1952 C 0.3412 0.29801 0.96733 0.0
C1953 C 0.34348 0.31269 0.97797 0.0
C1954 C 0.32256 0.24827 0.93418 0.0
C1955 C 0.32601 0.23627 0.94411 0.0
C1956 C 0.32495 0.26294 0.94493 0.0
C1957 C 0.33081 0.26596 0.96588 0.0
C1958 C 0.33419 0.25391 0.97584 0.0
C1959 C 0.33184 0.23925 0.96507 0.0
H1960 H 0.71164 0.06726 0.99705 0.0
H1961 H 0.69982 0.0155 0.97992 0.0
H1962 H 0.74033 0.08016 0.98015 0.0
H1963 H 0.72865 0.02858 0.96253 0.0
H1964 H 0.79006 0.06287 0.94612 0.0
H1965 H 0.76251 0.04715 0.96643 0.0
H1966 H 0.74658 0.08221 0.94238 0.0
H1967 H 0.77379 0.09773 0.92238 0.0
C1968 C 0.71527 0.05861 0.98988 0.0
C1969 C 0.70335 0.04039 0.98952 0.0
C1970 C 0.73167 0.06601 0.9801 0.0
C1971 C 0.73652 0.0554 0.96957 0.0
C1972 C 0.72521 0.03707 0.97048 0.0
C1973 C 0.70873 0.0296 0.98042 0.0
C1974 C 0.78051 0.06701 0.94506 0.0
C1975 C 0.78417 0.0817 0.933 0.0
C1976 C 0.76481 0.05807 0.95669 0.0
C1977 C 0.75263 0.06373 0.95637 0.0
C1978 C 0.75597 0.07787 0.94346 0.0
C1979 C 0.77153 0.08673 0.93194 0.0
H1980 H 0.6373 0.95292 0.04272 0.0
H1981 H 0.67899 0.9617 1.00029 0.0
H1982 H 0.64114 0.93137 0.06157 0.0
H1983 H 0.68264 0.93991 0.01903 0.0
H1984 H 0.69887 0.9181 0.07552 0.0
H1985 H 0.69402 0.9376 0.05343 0.0
H1986 H 0.63722 0.90233 0.05829 0.0
H1987 H 0.64205 0.88283 0.08027 0.0
C1988 C 0.64713 0.9501 0.03724 0.0
C1989 C 0.65788 0.9591 0.02003 0.0
C1990 C 0.64928 0.93767 0.04801 0.0
C1991 C 0.66225 0.93397 0.04186 0.0
C1992 C 0.67269 0.94264 0.02433 0.0
C1993 C 0.6705 0.95503 0.0135 0.0
C1994 C 0.68535 0.91439 0.07163 0.0
C1995 C 0.67085 0.89898 0.07982 0.0
C1996 C 0.68257 0.92556 0.05896 0.0
C1997 C 0.66522 0.92156 0.05419 0.0
C1998 C 0.65074 0.90594 0.06197 0.0
C1999 C 0.65352 0.89478 0.0746 0.0
H2000 H 0.08314 0.71877 0.02507 0.0
H2001 H 0.02835 0.704 0.0324 0.0
H2002 H 0.09287 0.74681 0.04211 0.0
H2003 H 0.03815 0.73199 0.04957 0.0
H2004 H 0.0656 0.76777 0.10927 0.0
H2005 H 0.05351 0.74283 0.08528 0.0
H2006 H 0.09251 0.77541 0.0393 0.0
H2007 H 0.10453 0.80045 0.06334 0.0
C2008 C 0.07319 0.72162 0.02997 0.0
C2009 C 0.05498 0.70908 0.02756 0.0
C2010 C 0.07877 0.73771 0.03963 0.0
C2011 C 0.06625 0.74149 0.04727 0.0
C2012 C 0.04807 0.72933 0.04396 0.0
C2013 C 0.04248 0.71334 0.03406 0.0
C2014 C 0.07135 0.76965 0.09388 0.0
C2015 C 0.08597 0.78597 0.08812 0.0
C2016 C 0.06439 0.75543 0.08012 0.0
C2017 C 0.07212 0.75721 0.06046 0.0
C2018 C 0.08636 0.7737 0.0544 0.0
C2019 C 0.09314 0.78802 0.06806 0.0
H2020 H 0.29619 0.32517 0.04431 0.0
H2021 H 0.29084 0.37009 0.03478 0.0
H2022 H 0.26625 0.30895 0.05916 0.0
H2023 H 0.26094 0.35381 0.04917 0.0
H2024 H 0.20311 0.31582 0.06424 0.0
H2025 H 0.22957 0.32581 0.04283 0.0
H2026 H 0.25528 0.31576 0.09412 0.0
H2027 H 0.22891 0.30596 0.1156 0.0
C2028 C 0.28846 0.33141 0.04491 0.0
C2029 C 0.29584 0.34891 0.03854 0.0
C2030 C 0.27141 0.32217 0.05348 0.0
C2031 C 0.26135 0.33016 0.0553 0.0
C2032 C 0.26836 0.34729 0.04777 0.0
C2033 C 0.28549 0.35663 0.03965 0.0
C2034 C 0.21428 0.31539 0.07074 0.0
C2035 C 0.21406 0.31022 0.09156 0.0
C2036 C 0.2294 0.32116 0.05855 0.0
C2037 C 0.24441 0.32154 0.06686 0.0
C2038 C 0.24381 0.31543 0.08729 0.0
C2039 C 0.22881 0.30995 0.0996 0.0
H2040 H 0.72157 0.69922 0.35133 0.0
H2041 H 0.67727 0.66269 0.38947 0.0
H2042 H 0.74035 0.69012 0.36876 0.0
H2043 H 0.69597 0.65375 0.40673 0.0
H2044 H 0.72896 0.62821 0.41595 0.0
H2045 H 0.71103 0.63765 0.39748 0.0
H2046 H 0.75331 0.69172 0.40468 0.0
H2047 H 0.77114 0.68237 0.42357 0.0
C2048 C 0.71585 0.68931 0.36342 0.0
C2049 C 0.69792 0.6817 0.36898 0.0
C2050 C 0.72661 0.68414 0.37343 0.0
C2051 C 0.71958 0.67114 0.38902 0.0
C2052 C 0.7017 0.66361 0.39458 0.0
C2053 C 0.69102 0.66885 0.38475 0.0
C2054 C 0.73439 0.64212 0.4138 0.0
C2055 C 0.75149 0.65451 0.42133 0.0
C2056 C 0.72414 0.64752 0.40314 0.0
C2057 C 0.73078 0.66543 0.39964 0.0
C2058 C 0.74794 0.67782 0.40689 0.0
C2059 C 0.75815 0.67243 0.4177 0.0
H2060 H 0.34966 0.05199 0.34702 0.0
H2061 H 0.31055 0.01714 0.39167 0.0
H2062 H 0.35341 0.07719 0.36629 0.0
H2063 H 0.31401 0.04233 0.41066 0.0
H2064 H 0.34081 0.09117 0.45263 0.0
H2065 H 0.33593 0.06585 0.43263 0.0
H2066 H 0.33852 0.09263 0.37514 0.0
H2067 H 0.3435 0.118 0.39517 0.0
C2068 C 0.34172 0.04969 0.36082 0.0
C2069 C 0.32986 0.03254 0.36784 0.0
C2070 C 0.34382 0.06415 0.37182 0.0
C2071 C 0.33407 0.0618 0.39009 0.0
C2072 C 0.32195 0.04463 0.39686 0.0
C2073 C 0.31987 0.03017 0.38588 0.0
C2074 C 0.34017 0.09159 0.43573 0.0
C2075 C 0.34256 0.10661 0.4255 0.0
C2076 C 0.33735 0.07706 0.42426 0.0
C2077 C 0.33681 0.07718 0.40227 0.0
C2078 C 0.33912 0.09219 0.39204 0.0
C2079 C 0.34197 0.10673 0.40352 0.0
H2080 H 0.97061 0.27123 0.39849 0.0
H2081 H 0.96516 0.31327 0.37366 0.0
H2082 H 0.94055 0.25672 0.41128 0.0
H2083 H 0.93444 0.29826 0.38607 0.0
H2084 H 0.8888 0.27487 0.43612 0.0
H2085 H 0.91754 0.29058 0.41835 0.0
H2086 H 0.91064 0.24096 0.39953 0.0
H2087 H 0.88251 0.2255 0.41804 0.0
C2088 C 0.96291 0.27731 0.39551 0.0
C2089 C 0.97033 0.29342 0.38498 0.0
C2090 C 0.94554 0.26887 0.40273 0.0
C2091 C 0.93495 0.27618 0.39949 0.0
C2092 C 0.94228 0.29231 0.38891 0.0
C2093 C 0.95983 0.30086 0.38172 0.0
C2094 C 0.89344 0.26745 0.42791 0.0
C2095 C 0.88371 0.24906 0.4286 0.0
C2096 C 0.90981 0.27639 0.41767 0.0
C2097 C 0.91655 0.26703 0.40782 0.0
C2098 C 0.90611 0.24859 0.40744 0.0
C2099 C 0.88996 0.23972 0.4179 0.0
H2100 H 0.05392 0.40635 0.3443 0.0
H2101 H 0.00299 0.36347 0.32289 0.0
H2102 H 0.0489 0.42692 0.3248 0.0
H2103 H 0.99825 0.38387 0.30285 0.0
H2104 H 0.98718 0.42586 0.28334 0.0
H2105 H 0.99207 0.40656 0.30549 0.0
H2106 H 0.04786 0.43576 0.28993 0.0
H2107 H 0.04317 0.45574 0.26885 0.0
C2108 C 0.04167 0.40131 0.33541 0.0
C2109 C 0.02886 0.38326 0.33518 0.0
C2110 C 0.03883 0.41309 0.3241 0.0
C2111 C 0.02318 0.4071 0.31216 0.0
C2112 C 0.01033 0.38904 0.31211 0.0
C2113 C 0.0131 0.3773 0.32353 0.0
C2114 C 0.00055 0.42836 0.28489 0.0
C2115 C 0.01476 0.4424 0.27423 0.0
C2116 C 0.00332 0.41712 0.2974 0.0
C2117 C 0.02036 0.4195 0.29947 0.0
C2118 C 0.03459 0.43361 0.28893 0.0
C2119 C 0.03185 0.44493 0.27654 0.0
H2120 H 0.58174 0.61802 0.33918 0.0
H2121 H 0.63598 0.63137 0.33054 0.0
H2122 H 0.57103 0.58952 0.32284 0.0
H2123 H 0.62519 0.60292 0.31406 0.0
H2124 H 0.5959 0.56647 0.25532 0.0
H2125 H 0.60886 0.59187 0.27868 0.0
H2126 H 0.57082 0.5605 0.3261 0.0
H2127 H 0.55794 0.53498 0.3027 0.0
C2128 C 0.59137 0.61476 0.33416 0.0
C2129 C 0.60971 0.62703 0.33598 0.0
C2130 C 0.58523 0.5984 0.3249 0.0
C2131 C 0.5973 0.5941 0.31707 0.0
C2132 C 0.61561 0.60599 0.31983 0.0
C2133 C 0.62176 0.62224 0.32935 0.0
C2134 C 0.59053 0.56497 0.27087 0.0
C2135 C 0.57594 0.54884 0.27725 0.0
C2136 C 0.59799 0.57944 0.28427 0.0
C2137 C 0.59081 0.57812 0.30418 0.0
C2138 C 0.57655 0.56185 0.31081 0.0
C2139 C 0.56928 0.54727 0.29751 0.0
H2140 H 0.37107 0.01644 0.32174 0.0
H2141 H 0.37769 0.97415 0.3426 0.0
H2142 H 0.40091 0.0312 0.30653 0.0
H2143 H 0.40725 0.98878 0.32768 0.0
H2144 H 0.46261 0.02022 0.30712 0.0
H2145 H 0.43786 0.01511 0.32901 0.0
H2146 H 0.41217 0.02231 0.27536 0.0
H2147 H 0.43689 0.02734 0.25341 0.0
C2148 C 0.37909 0.01057 0.32357 0.0
C2149 C 0.37207 0.99411 0.33318 0.0
C2150 C 0.39607 0.01893 0.31477 0.0
C2151 C 0.40637 0.01111 0.31587 0.0
C2152 C 0.39974 0.99525 0.32676 0.0
C2153 C 0.38275 0.9868 0.33519 0.0
C2154 C 0.45179 0.02095 0.30007 0.0
C2155 C 0.45151 0.02383 0.27848 0.0
C2156 C 0.43768 0.0181 0.31261 0.0
C2157 C 0.423 0.01811 0.30384 0.0
C2158 C 0.42337 0.02237 0.28259 0.0
C2159 C 0.43751 0.0252 0.27001 0.0
H2160 H 0.63755 0.01358 0.35486 0.0
H2161 H 0.63114 0.97421 0.31062 0.0
H2162 H 0.61499 0.01643 0.33597 0.0
H2163 H 0.60887 0.9773 0.29157 0.0
H2164 H 0.55947 0.97758 0.27089 0.0
H2165 H 0.57913 0.9726 0.29302 0.0
H2166 H 0.61331 0.0285 0.30233 0.0
H2167 H 0.59332 0.03343 0.28084 0.0
C2168 C 0.63121 0.0054 0.34125 0.0
C2169 C 0.63624 0.99374 0.33419 0.0
C2170 C 0.61839 0.00714 0.33032 0.0
C2171 C 0.61027 0.99723 0.31214 0.0
C2172 C 0.61476 0.98505 0.3056 0.0
C2173 C 0.62759 0.98332 0.3165 0.0
C2174 C 0.57108 0.98879 0.27785 0.0
C2175 C 0.57484 0.00591 0.27407 0.0
C2176 C 0.58243 0.98594 0.29039 0.0
C2177 C 0.59778 0.00014 0.29948 0.0
C2178 C 0.60147 0.01725 0.2958 0.0
C2179 C 0.59015 0.0201 0.28324 0.0
H2180 H 0.98704 0.61599 0.35108 0.0
H2181 H 0.0265 0.65593 0.31067 0.0
H2182 H 0.9879 0.59346 0.33075 0.0
H2183 H 0.02766 0.63342 0.29065 0.0
H2184 H 0.00837 0.58713 0.24515 0.0
H2185 H 0.00915 0.61014 0.26633 0.0
H2186 H 0.00642 0.58177 0.32246 0.0
H2187 H 0.00551 0.5587 0.30123 0.0
C2188 C 0.99604 0.61999 0.338 0.0
C2189 C 0.00664 0.63776 0.33246 0.0
C2190 C 0.9966 0.60707 0.32639 0.0
C2191 C 0.0078 0.61162 0.309 0.0
C2192 C 0.01867 0.62943 0.30374 0.0
C2193 C 0.01808 0.64235 0.31531 0.0
C2194 C 0.00813 0.58591 0.26202 0.0
C2195 C 0.00682 0.57107 0.2715 0.0
C2196 C 0.0086 0.5991 0.27418 0.0
C2197 C 0.00783 0.5978 0.29612 0.0
C2198 C 0.00674 0.58305 0.3056 0.0
C2199 C 0.00623 0.56984 0.29343 0.0
H2200 H 0.37652 0.4017 0.32617 0.0
H2201 H 0.36412 0.34913 0.31274 0.0
H2202 H 0.40594 0.41359 0.31119 0.0
H2203 H 0.39361 0.36114 0.29737 0.0
H2204 H 0.43319 0.396 0.24221 0.0
H2205 H 0.40647 0.38025 0.26358 0.0
H2206 H 0.43521 0.41367 0.31614 0.0
H2207 H 0.46196 0.42936 0.29481 0.0
C2208 C 0.3802 0.39269 0.32028 0.0
C2209 C 0.36801 0.37451 0.32049 0.0
C2210 C 0.39707 0.39949 0.31184 0.0
C2211 C 0.40199 0.38827 0.30311 0.0
C2212 C 0.39007 0.37004 0.30397 0.0
C2213 C 0.37327 0.3632 0.31283 0.0
C2214 C 0.43384 0.39974 0.25844 0.0
C2215 C 0.44956 0.41391 0.26687 0.0
C2216 C 0.41863 0.39067 0.27069 0.0
C2217 C 0.41882 0.39581 0.29146 0.0
C2218 C 0.43475 0.4095 0.30014 0.0
C2219 C 0.45003 0.41839 0.28799 0.0
H2220 H 0.3051 0.29173 0.38271 0.0
H2221 H 0.34239 0.29523 0.33675 0.0
H2222 H 0.30937 0.27096 0.40276 0.0
H2223 H 0.34696 0.27476 0.35708 0.0
H2224 H 0.33934 0.22582 0.39023 0.0
H2225 H 0.33301 0.24457 0.36869 0.0
H2226 H 0.33254 0.27175 0.42416 0.0
H2227 H 0.33875 0.25297 0.44564 0.0
C2228 C 0.31416 0.28802 0.37683 0.0
C2229 C 0.32346 0.29521 0.35816 0.0
C2230 C 0.3167 0.2762 0.38841 0.0
C2231 C 0.32863 0.27131 0.38165 0.0
C2232 C 0.33755 0.27811 0.36266 0.0
C2233 C 0.33498 0.28992 0.35104 0.0
C2234 C 0.33799 0.23587 0.39779 0.0
C2235 C 0.33953 0.23789 0.41965 0.0
C2236 C 0.33435 0.24661 0.38545 0.0
C2237 C 0.3322 0.25963 0.39469 0.0
C2238 C 0.33377 0.26164 0.41656 0.0
C2239 C 0.33737 0.25089 0.42888 0.0
H2240 H 0.74679 0.05389 0.35566 0.0
H2241 H 0.69201 0.03787 0.36633 0.0
H2242 H 0.75651 0.08219 0.37188 0.0
H2243 H 0.70182 0.06619 0.38265 0.0
H2244 H 0.73112 0.1042 0.44012 0.0
H2245 H 0.71837 0.07863 0.41707 0.0
H2246 H 0.75554 0.11013 0.36897 0.0
H2247 H 0.7683 0.13576 0.3921 0.0
C2248 C 0.73681 0.05651 0.36114 0.0
C2249 C 0.71864 0.04356 0.35988 0.0
C2250 C 0.74239 0.07276 0.37032 0.0
C2251 C 0.72992 0.07633 0.37863 0.0
C2252 C 0.71171 0.06371 0.37651 0.0
C2253 C 0.70612 0.04753 0.36709 0.0
C2254 C 0.73634 0.1057 0.42449 0.0
C2255 C 0.75072 0.1219 0.41789 0.0
C2256 C 0.72899 0.09112 0.41125 0.0
C2257 C 0.73602 0.0924 0.39126 0.0
C2258 C 0.74994 0.10878 0.38435 0.0
C2259 C 0.75714 0.12344 0.3975 0.0
H2260 H 0.95782 0.64499 0.37858 0.0
H2261 H 0.94695 0.68442 0.35734 0.0
H2262 H 0.92704 0.62698 0.39086 0.0
H2263 H 0.91652 0.6666 0.36927 0.0
H2264 H 0.86098 0.63105 0.38475 0.0
H2265 H 0.88754 0.63852 0.36497 0.0
H2266 H 0.91194 0.63275 0.42088 0.0
H2267 H 0.88538 0.62531 0.44068 0.0
C2268 C 0.94872 0.64955 0.37604 0.0
C2269 C 0.95472 0.66613 0.36721 0.0
C2270 C 0.9312 0.63933 0.38313 0.0
C2271 C 0.91939 0.64539 0.38102 0.0
C2272 C 0.92519 0.66144 0.37089 0.0
C2273 C 0.94267 0.67173 0.3642 0.0
C2274 C 0.87188 0.63105 0.39271 0.0
C2275 C 0.87127 0.62796 0.41433 0.0
C2276 C 0.88704 0.63525 0.38138 0.0
C2277 C 0.90189 0.63646 0.39145 0.0
C2278 C 0.90065 0.6318 0.41266 0.0
C2279 C 0.88546 0.62759 0.42402 0.0
H2280 H 0.34954 0.00347 0.72047 0.0
H2281 H 0.38762 0.03004 0.6712 0.0
H2282 H 0.36959 0.99602 0.73729 0.0
H2283 H 0.40776 0.02245 0.68818 0.0
H2284 H 0.44531 0.02308 0.74136 0.0
H2285 H 0.42586 0.02993 0.72144 0.0
H2286 H 0.38187 0.97698 0.73063 0.0
H2287 H 0.40122 0.97022 0.75085 0.0
C2288 C 0.36219 0.00773 0.7132 0.0
C2289 C 0.36698 0.01738 0.69447 0.0
C2290 C 0.37363 0.00332 0.72278 0.0
C2291 C 0.39018 0.00854 0.71398 0.0
C2292 C 0.39509 0.01831 0.69535 0.0
C2293 C 0.38355 0.02261 0.68562 0.0
C2294 C 0.43149 0.0129 0.73905 0.0
C2295 C 0.42475 0.99614 0.74778 0.0
C2296 C 0.42041 0.01678 0.7275 0.0
C2297 C 0.40233 0.00402 0.72459 0.0
C2298 C 0.39572 0.98713 0.73282 0.0
C2299 C 0.40682 0.98321 0.74423 0.0
H2300 H 0.01172 0.37991 0.67449 0.0
H2301 H 0.9764 0.34421 0.7215 0.0
H2302 H 0.01364 0.40448 0.69339 0.0
H2303 H 0.97849 0.36886 0.74052 0.0
H2304 H 0.97249 0.41581 0.75652 0.0
H2305 H 0.96982 0.39098 0.73736 0.0
H2306 H 0.02638 0.42042 0.7264 0.0
H2307 H 0.02913 0.44515 0.74575 0.0
C2308 C 0.00434 0.37728 0.68884 0.0
C2309 C 0.99392 0.36008 0.69649 0.0
C2310 C 0.00554 0.39139 0.69975 0.0
C2311 C 0.99628 0.38864 0.71851 0.0
C2312 C 0.98566 0.37141 0.72602 0.0
C2313 C 0.98454 0.35729 0.71517 0.0
C2314 C 0.9844 0.41695 0.75021 0.0
C2315 C 0.00103 0.43254 0.75268 0.0
C2316 C 0.98285 0.40271 0.7392 0.0
C2317 C 0.99787 0.40373 0.7303 0.0
C2318 C 0.01449 0.4193 0.73276 0.0
C2319 C 0.01606 0.4335 0.74385 0.0
H2320 H 0.62311 0.60378 0.70017 0.0
H2321 H 0.63742 0.65623 0.71772 0.0
H2322 H 0.59323 0.59235 0.71329 0.0
H2323 H 0.60733 0.64464 0.73115 0.0
H2324 H 0.56246 0.60772 0.78072 0.0
H2325 H 0.59068 0.62408 0.76233 0.0
H2326 H 0.56559 0.59394 0.70641 0.0
H2327 H 0.53727 0.57785 0.72454 0.0
C2328 C 0.6198 0.61289 0.70664 0.0
C2329 C 0.63263 0.63088 0.70802 0.0
C2330 C 0.60265 0.60636 0.71402 0.0
C2331 C 0.59798 0.61762 0.72321 0.0
C2332 C 0.61064 0.63569 0.72417 0.0
C2333 C 0.62779 0.6423 0.71642 0.0
C2334 C 0.56282 0.60493 0.76433 0.0
C2335 C 0.54767 0.59128 0.7542 0.0
C2336 C 0.57899 0.6143 0.75382 0.0
C2337 C 0.58033 0.61011 0.73304 0.0
C2338 C 0.56496 0.59724 0.72253 0.0
C2339 C 0.54879 0.58799 0.73295 0.0
H2340 H 0.69873 0.72365 0.67207 0.0
H2341 H 0.65125 0.68511 0.63898 0.0
H2342 H 0.69527 0.74704 0.65727 0.0
H2343 H 0.64793 0.70834 0.62421 0.0
H2344 H 0.63696 0.75241 0.61802 0.0
H2345 H 0.64082 0.73032 0.63551 0.0
H2346 H 0.69699 0.76039 0.62224 0.0
H2347 H 0.69313 0.78241 0.60448 0.0
C2348 C 0.68757 0.72017 0.6617 0.0
C2349 C 0.67528 0.70252 0.6567 0.0
C2350 C 0.68563 0.73356 0.65316 0.0
C2351 C 0.67128 0.72952 0.63964 0.0
C2352 C 0.65898 0.71187 0.6348 0.0
C2353 C 0.66097 0.69855 0.64318 0.0
C2354 C 0.65012 0.75429 0.61871 0.0
C2355 C 0.6647 0.76915 0.60969 0.0
C2356 C 0.65234 0.74165 0.62879 0.0
C2357 C 0.6692 0.74357 0.63018 0.0
C2358 C 0.68387 0.75863 0.62165 0.0
C2359 C 0.68164 0.77125 0.61147 0.0
H2360 H 0.25196 0.9648 0.65385 0.0
H2361 H 0.29942 0.96469 0.67125 0.0
H2362 H 0.2386 0.93521 0.6406 0.0
H2363 H 0.28568 0.93454 0.65854 0.0
H2364 H 0.26369 0.89182 0.60565 0.0
H2365 H 0.27771 0.91916 0.62577 0.0
H2366 H 0.22619 0.90547 0.64921 0.0
H2367 H 0.2123 0.8787 0.6283 0.0
C2368 C 0.25945 0.95834 0.6552 0.0
C2369 C 0.27681 0.96718 0.66352 0.0
C2370 C 0.2517 0.94124 0.64773 0.0
C2371 C 0.26101 0.93239 0.64853 0.0
C2372 C 0.2782 0.94102 0.65745 0.0
C2373 C 0.28604 0.95826 0.66485 0.0
C2374 C 0.25551 0.89462 0.61544 0.0
C2375 C 0.23698 0.88338 0.61536 0.0
C2376 C 0.2635 0.91021 0.62703 0.0
C2377 C 0.25305 0.91469 0.63888 0.0
C2378 C 0.2346 0.9027 0.63984 0.0
C2379 C 0.22664 0.88732 0.62802 0.0
H2380 H 0.03723 0.34856 0.64803 0.0
H2381 H 0.04516 0.30583 0.66226 0.0
H2382 H 0.06738 0.36536 0.63364 0.0
H2383 H 0.07514 0.3226 0.64835 0.0
H2384 H 0.10693 0.36854 0.57994 0.0
H2385 H 0.08007 0.35873 0.60047 0.0
H2386 H 0.10544 0.35086 0.65392 0.0
H2387 H 0.13226 0.36061 0.63343 0.0
C2388 C 0.04557 0.34297 0.64856 0.0
C2389 C 0.03889 0.32589 0.65612 0.0
C2390 C 0.06273 0.35252 0.64025 0.0
C2391 C 0.07354 0.34525 0.63988 0.0
C2392 C 0.06717 0.32859 0.6486 0.0
C2393 C 0.04998 0.31896 0.65647 0.0
C2394 C 0.10683 0.36495 0.59617 0.0
C2395 C 0.12161 0.3652 0.60506 0.0
C2396 C 0.09155 0.35952 0.60795 0.0
C2397 C 0.09071 0.35402 0.62875 0.0
C2398 C 0.10576 0.355 0.6379 0.0
C2399 C 0.12111 0.36064 0.62621 0.0
H2400 H 0.30198 0.3149 0.63795 0.0
H2401 H 0.29981 0.34254 0.69201 0.0
H2402 H 0.2823 0.32181 0.6189 0.0
H2403 H 0.28036 0.34967 0.67282 0.0
H2404 H 0.23346 0.34675 0.63734 0.0
H2405 H 0.25072 0.33717 0.65715 0.0
H2406 H 0.28463 0.34809 0.60386 0.0
H2407 H 0.26704 0.35711 0.58386 0.0
C2408 C 0.29721 0.32233 0.64584 0.0
C2409 C 0.30256 0.32823 0.66649 0.0
C2410 C 0.28603 0.32641 0.63485 0.0
C2411 C 0.27989 0.33644 0.64426 0.0
C2412 C 0.28474 0.34182 0.66515 0.0
C2413 C 0.29595 0.33777 0.67614 0.0
C2414 C 0.2445 0.34696 0.6298 0.0
C2415 C 0.24888 0.35271 0.60902 0.0
C2416 C 0.25449 0.34161 0.64122 0.0
C2417 C 0.26903 0.34182 0.63208 0.0
C2418 C 0.27337 0.34754 0.61129 0.0
C2419 C 0.26343 0.35294 0.59991 0.0
H2420 H 0.65405 0.958 0.68935 0.0
H2421 H 0.69094 0.99298 0.64295 0.0
H2422 H 0.65143 0.93296 0.67073 0.0
H2423 H 0.68812 0.96794 0.62423 0.0
H2424 H 0.69255 0.92066 0.60787 0.0
H2425 H 0.69576 0.94534 0.62791 0.0
H2426 H 0.63902 0.91707 0.63763 0.0
H2427 H 0.63587 0.89217 0.61811 0.0
C2428 C 0.66162 0.96036 0.6752 0.0
C2429 C 0.6727 0.9775 0.66765 0.0
C2430 C 0.66002 0.946 0.66446 0.0
C2431 C 0.66954 0.94845 0.64598 0.0
C2432 C 0.68076 0.96561 0.63855 0.0
C2433 C 0.6823 0.97996 0.64923 0.0
C2434 C 0.68078 0.91964 0.61448 0.0
C2435 C 0.66395 0.90445 0.6114 0.0
C2436 C 0.6826 0.93385 0.62577 0.0
C2437 C 0.66764 0.93319 0.63433 0.0
C2438 C 0.65083 0.91794 0.63141 0.0
C2439 C 0.649 0.90375 0.62003 0.0
H2440 H 0.02643 0.68086 0.64569 0.0
H2441 H 0.04011 0.73328 0.66235 0.0
H2442 H 0.05628 0.6927 0.63142 0.0
H2443 H 0.06989 0.74498 0.6485 0.0
H2444 H 0.1257 0.76015 0.63245 0.0
H2445 H 0.09865 0.74384 0.65324 0.0
H2446 H 0.07009 0.71325 0.59879 0.0
H2447 H 0.09707 0.72968 0.578 0.0
C2448 C 0.03593 0.69483 0.64675 0.0
C2449 C 0.03094 0.70619 0.65495 0.0
C2450 C 0.05295 0.70158 0.63854 0.0
C2451 C 0.06533 0.71973 0.63888 0.0
C2452 C 0.06065 0.73093 0.64823 0.0
C2453 C 0.04358 0.72424 0.65602 0.0
C2454 C 0.11375 0.74964 0.62511 0.0
C2455 C 0.11337 0.74619 0.60365 0.0
C2456 C 0.0983 0.74038 0.63695 0.0
C2457 C 0.08233 0.72734 0.62757 0.0
C2458 C 0.08227 0.72313 0.60643 0.0
C2459 C 0.09763 0.73258 0.59452 0.0
H2460 H 0.96502 0.62228 0.71256 0.0
H2461 H 0.00224 0.62577 0.66651 0.0
H2462 H 0.9683 0.60051 0.73175 0.0
H2463 H 0.00582 0.60429 0.68597 0.0
H2464 H 0.99628 0.55388 0.71732 0.0
H2465 H 0.99103 0.57377 0.69652 0.0
H2466 H 0.99088 0.60003 0.753 0.0
H2467 H 0.99601 0.58015 0.77372 0.0
C2468 C 0.97385 0.61836 0.70647 0.0
C2469 C 0.98343 0.62584 0.68804 0.0
C2470 C 0.97583 0.60596 0.71756 0.0
C2471 C 0.98746 0.60076 0.71052 0.0
C2472 C 0.99664 0.60787 0.69175 0.0
C2473 C 0.99464 0.62025 0.68063 0.0
C2474 C 0.99524 0.56399 0.72526 0.0
C2475 C 0.99652 0.5654 0.74718 0.0
C2476 C 0.99222 0.57537 0.71335 0.0
C2477 C 0.99044 0.58845 0.72309 0.0
C2478 C 0.99181 0.58989 0.74501 0.0
C2479 C 0.99479 0.57851 0.7569 0.0
H2480 H 0.39853 0.36929 0.73166 0.0
H2481 H 0.36251 0.37504 0.69078 0.0
H2482 H 0.40705 0.39701 0.74862 0.0
H2483 H 0.37152 0.4032 0.70759 0.0
H2484 H 0.4185 0.46268 0.72788 0.0
H2485 H 0.40409 0.43393 0.71066 0.0
H2486 H 0.38929 0.40859 0.77089 0.0
H2487 H 0.4034 0.43731 0.78809 0.0
C2488 C 0.39251 0.37653 0.72621 0.0
C2489 C 0.37991 0.37004 0.70983 0.0
C2490 C 0.39728 0.3923 0.73605 0.0
C2491 C 0.38981 0.40209 0.72947 0.0
C2492 C 0.37738 0.3958 0.71294 0.0
C2493 C 0.37227 0.37975 0.70336 0.0
C2494 C 0.41177 0.45093 0.73735 0.0
C2495 C 0.41204 0.45212 0.75927 0.0
C2496 C 0.40351 0.43454 0.72753 0.0
C2497 C 0.39571 0.41915 0.73951 0.0
C2498 C 0.39527 0.42033 0.76137 0.0
C2499 C 0.40323 0.4367 0.77117 0.0
H2500 H 0.62497 0.99449 0.69586 0.0
H2501 H 0.64118 0.03673 0.74014 0.0
H2502 H 0.59542 0.97839 0.71218 0.0
H2503 H 0.61221 0.02072 0.75632 0.0
H2504 H 0.56651 0.98344 0.79402 0.0
H2505 H 0.59432 0.9915 0.77683 0.0
H2506 H 0.56931 0.98561 0.71654 0.0
H2507 H 0.54138 0.97769 0.73377 0.0
C2508 C 0.62228 0.00024 0.7091 0.0
C2509 C 0.63533 0.01689 0.71666 0.0
C2510 C 0.60544 0.99107 0.71837 0.0
C2511 C 0.60168 0.99828 0.7356 0.0
C2512 C 0.61485 0.01476 0.74325 0.0
C2513 C 0.6314 0.02398 0.73384 0.0
C2514 C 0.56685 0.98358 0.77709 0.0
C2515 C 0.55191 0.98031 0.76524 0.0
C2516 C 0.58272 0.9881 0.76728 0.0
C2517 C 0.58396 0.98938 0.74541 0.0
C2518 C 0.56864 0.98463 0.73343 0.0
C2519 C 0.55269 0.98013 0.74329 0.0
loop_
_geom_bond_atom_site_label_1
_geom_bond_atom_site_label_2
_geom_bond_distance
_geom_bond_site_symmetry_2
_ccdc_geom_bond_type
Zn0 O3 2.031 1_554 S
Zn0 O5 2.049 . S
Zn0 O10 2.067 1_554 S
Zn1 O2 1.962 1_455 S
Zn1 O4 1.986 . S
Zn1 O6 1.996 1_455 S
Zn1 O9 1.943 1_554 S
O2 Zn1 1.962 1_655 S
O2 C7 1.254 1_554 S
O3 Zn0 2.031 1_556 S
O3 C7 1.269 . S
O4 Zn1 1.986 . S
O4 C11 1.262 . S
O5 Zn0 2.049 . S
O5 C13 1.260 . S
O6 Zn1 1.996 1_655 S
O6 C13 1.257 . S
C7 O2 1.254 1_556 S
C7 O3 1.269 . S
C8 O9 1.249 . S
C8 O10 1.270 1_455 S
O9 Zn1 1.943 1_556 S
O9 C8 1.249 . S
O10 Zn0 2.067 1_556 S
O10 C8 1.270 1_655 S
C11 O4 1.262 . S
C11 O12 1.232 . S
O12 C11 1.232 . S
C13 O5 1.260 . S
C13 O6 1.257 . S
Zn14 O17 2.031 1_554 S
Zn14 O19 2.049 . S
Zn14 O24 2.067 1_554 S
Zn15 O16 1.962 . S
Zn15 O18 1.986 . S
Zn15 O20 1.996 . S
Zn15 O23 1.943 1_554 S
O16 Zn15 1.962 . S
O16 C21 1.254 1_554 S
O17 Zn14 2.031 1_556 S
O17 C21 1.269 . S
O18 Zn15 1.986 . S
O18 C25 1.262 . S
O19 Zn14 2.049 . S
O19 C27 1.260 . S
O20 Zn15 1.996 . S
O20 C27 1.257 . S
C21 O16 1.254 1_556 S
C21 O17 1.269 . S
C22 O23 1.249 . S
C22 O24 1.270 . S
O23 Zn15 1.943 1_556 S
O23 C22 1.249 . S
O24 Zn14 2.067 1_556 S
O24 C22 1.270 . S
C25 O18 1.262 . S
C25 O26 1.232 . S
O26 C25 1.232 . S
C27 O19 1.260 . S
C27 O20 1.257 . S
Zn28 O31 2.031 . S
Zn28 O33 2.049 1_554 S
Zn28 O38 2.067 . S
Zn29 O30 1.962 1_545 S
Zn29 O32 1.986 1_554 S
Zn29 O34 1.996 1_544 S
Zn29 O37 1.943 . S
O30 Zn29 1.962 1_565 S
O30 C35 1.254 . S
O31 Zn28 2.031 . S
O31 C35 1.269 . S
O32 Zn29 1.986 1_556 S
O32 C39 1.262 . S
O33 Zn28 2.049 1_556 S
O33 C41 1.260 . S
O34 Zn29 1.996 1_566 S
O34 C41 1.257 . S
C35 O30 1.254 . S
C35 O31 1.269 . S
C36 O37 1.249 . S
C36 O38 1.270 1_545 S
O37 Zn29 1.943 . S
O37 C36 1.249 . S
O38 Zn28 2.067 . S
O38 C36 1.270 1_565 S
C39 O32 1.262 . S
C39 O40 1.232 1_556 S
O40 C39 1.232 1_554 S
C41 O33 1.260 . S
C41 O34 1.257 . S
Zn42 O45 2.031 . S
Zn42 O47 2.049 1_554 S
Zn42 O52 2.067 . S
Zn43 O44 1.962 1_655 S
Zn43 O46 1.986 1_554 S
Zn43 O48 1.996 1_654 S
Zn43 O51 1.943 . S
O44 Zn43 1.962 1_455 S
O44 C49 1.254 . S
O45 Zn42 2.031 . S
O45 C49 1.269 . S
O46 Zn43 1.986 1_556 S
O46 C53 1.262 . S
O47 Zn42 2.049 1_556 S
O47 C55 1.260 . S
O48 Zn43 1.996 1_456 S
O48 C55 1.257 . S
C49 O44 1.254 . S
C49 O45 1.269 . S
C50 O51 1.249 . S
C50 O52 1.270 1_655 S
O51 Zn43 1.943 . S
O51 C50 1.249 . S
O52 Zn42 2.067 . S
O52 C50 1.270 1_455 S
C53 O46 1.262 . S
C53 O54 1.232 1_556 S
O54 C53 1.232 1_554 S
C55 O47 1.260 . S
C55 O48 1.257 . S
Zn56 O59 2.031 . S
Zn56 O61 2.049 1_554 S
Zn56 O66 2.067 . S
Zn57 O58 1.962 . S
Zn57 O60 1.986 1_554 S
Zn57 O62 1.996 1_554 S
Zn57 O65 1.943 . S
O58 Zn57 1.962 . S
O58 C63 1.254 . S
O59 Zn56 2.031 . S
O59 C63 1.269 . S
O60 Zn57 1.986 1_556 S
O60 C67 1.262 . S
O61 Zn56 2.049 1_556 S
O61 C69 1.260 . S
O62 Zn57 1.996 1_556 S
O62 C69 1.257 . S
C63 O58 1.254 . S
C63 O59 1.269 . S
C64 O65 1.249 . S
C64 O66 1.270 . S
O65 Zn57 1.943 . S
O65 C64 1.249 . S
O66 Zn56 2.067 . S
O66 C64 1.270 . S
C67 O60 1.262 . S
C67 O68 1.232 1_556 S
O68 C67 1.232 1_554 S
C69 O61 1.260 . S
C69 O62 1.257 . S
Zn70 O73 2.031 1_554 S
Zn70 O75 2.049 . S
Zn70 O80 2.067 1_554 S
Zn71 O72 1.962 1_565 S
Zn71 O74 1.986 . S
Zn71 O76 1.996 1_565 S
Zn71 O79 1.941 1_554 S
O72 Zn71 1.962 1_545 S
O72 C77 1.254 . S
O73 Zn70 2.031 1_556 S
O73 C77 1.269 1_556 S
O74 Zn71 1.986 . S
O74 C81 1.262 . S
O75 Zn70 2.049 . S
O75 C83 1.260 . S
O76 Zn71 1.996 1_545 S
O76 C83 1.257 . S
C77 O72 1.254 . S
C77 O73 1.269 1_554 S
C78 O79 1.250 . S
C78 O80 1.270 1_565 S
O79 Zn71 1.941 1_556 S
O79 C78 1.250 . S
O80 Zn70 2.067 1_556 S
O80 C78 1.270 1_545 S
C81 O74 1.262 . S
C81 O82 1.232 . S
O82 C81 1.232 . S
C83 O75 1.260 . S
C83 O76 1.257 . S
Zn84 O87 2.031 . S
Zn84 O89 2.049 . S
Zn84 O94 2.067 . S
Zn85 O86 1.962 . S
Zn85 O88 1.986 . S
Zn85 O90 1.996 . S
Zn85 O93 1.943 . S
O86 Zn85 1.962 . S
O86 C91 1.254 . S
O87 Zn84 2.031 . S
O87 C91 1.269 . S
O88 Zn85 1.986 . S
O88 C95 1.262 . S
O89 Zn84 2.049 . S
O89 C97 1.260 . S
O90 Zn85 1.996 . S
O90 C97 1.257 . S
C91 O86 1.254 . S
C91 O87 1.269 . S
C92 O93 1.249 . S
C92 O94 1.270 . S
O93 Zn85 1.943 . S
O93 C92 1.249 . S
O94 Zn84 2.067 . S
O94 C92 1.270 . S
C95 O88 1.262 . S
C95 O96 1.232 . S
O96 C95 1.232 . S
C97 O89 1.260 . S
C97 O90 1.257 . S
Zn98 O101 2.031 . S
Zn98 O103 2.049 . S
Zn98 O108 2.067 . S
Zn99 O100 1.962 . S
Zn99 O102 1.986 1_565 S
Zn99 O104 1.996 . S
Zn99 O107 1.943 . S
O100 Zn99 1.962 . S
O100 C105 1.254 . S
O101 Zn98 2.031 . S
O101 C105 1.269 . S
O102 Zn99 1.986 1_545 S
O102 C109 1.262 . S
O103 Zn98 2.049 . S
O103 C111 1.260 . S
O104 Zn99 1.996 . S
O104 C111 1.257 . S
C105 O100 1.254 . S
C105 O101 1.269 . S
C106 O107 1.249 . S
C106 O108 1.270 . S
O107 Zn99 1.943 . S
O107 C106 1.249 . S
O108 Zn98 2.067 . S
O108 C106 1.270 . S
C109 O102 1.262 . S
C109 O110 1.232 . S
O110 C109 1.232 . S
C111 O103 1.260 . S
C111 O104 1.257 . S
Zn112 O115 2.031 . S
Zn112 O117 2.049 . S
Zn112 O122 2.067 . S
Zn113 O114 1.962 1_455 S
Zn113 O116 1.986 . S
Zn113 O118 1.996 . S
Zn113 O121 1.943 . S
O114 Zn113 1.962 1_655 S
O114 C119 1.254 . S
O115 Zn112 2.031 . S
O115 C119 1.269 1_455 S
O116 Zn113 1.986 . S
O116 C123 1.262 . S
O117 Zn112 2.049 . S
O117 C125 1.260 . S
O118 Zn113 1.996 . S
O118 C125 1.257 . S
C119 O114 1.254 . S
C119 O115 1.269 1_655 S
C120 O121 1.249 . S
C120 O122 1.270 . S
O121 Zn113 1.943 . S
O121 C120 1.249 . S
O122 Zn112 2.067 . S
O122 C120 1.270 . S
C123 O116 1.262 . S
C123 O124 1.232 . S
O124 C123 1.232 . S
C125 O117 1.260 . S
C125 O118 1.257 . S
Zn126 O129 2.031 . S
Zn126 O131 2.049 . S
Zn126 O136 2.067 . S
Zn127 O128 1.962 1_565 S
Zn127 O130 1.986 . S
Zn127 O132 1.996 . S
Zn127 O135 1.943 . S
O128 Zn127 1.962 1_545 S
O128 C133 1.254 . S
O129 Zn126 2.031 . S
O129 C133 1.269 1_565 S
O130 Zn127 1.986 . S
O130 C137 1.262 . S
O131 Zn126 2.049 . S
O131 C139 1.260 . S
O132 Zn127 1.996 . S
O132 C139 1.257 . S
C133 O128 1.254 . S
C133 O129 1.269 1_545 S
C134 O135 1.249 . S
C134 O136 1.270 . S
O135 Zn127 1.943 . S
O135 C134 1.249 . S
O136 Zn126 2.067 . S
O136 C134 1.270 . S
C137 O130 1.262 . S
C137 O138 1.232 . S
O138 C137 1.232 . S
C139 O131 1.260 . S
C139 O132 1.257 . S
Zn140 O143 2.031 . S
Zn140 O145 2.049 . S
Zn140 O150 2.067 . S
Zn141 O142 1.962 1_455 S
Zn141 O144 1.986 . S
Zn141 O146 1.996 . S
Zn141 O149 1.943 . S
O142 Zn141 1.962 1_655 S
O142 C147 1.254 . S
O143 Zn140 2.031 . S
O143 C147 1.269 1_455 S
O144 Zn141 1.986 . S
O144 C151 1.262 . S
O145 Zn140 2.049 . S
O145 C153 1.260 . S
O146 Zn141 1.996 . S
O146 C153 1.257 . S
C147 O142 1.254 . S
C147 O143 1.269 1_655 S
C148 O149 1.249 . S
C148 O150 1.270 . S
O149 Zn141 1.943 . S
O149 C148 1.249 . S
O150 Zn140 2.067 . S
O150 C148 1.270 . S
C151 O144 1.262 . S
C151 O152 1.232 . S
O152 C151 1.232 . S
C153 O145 1.260 . S
C153 O146 1.257 . S
Zn154 O157 2.031 . S
Zn154 O159 2.049 . S
Zn154 O164 2.067 . S
Zn155 O156 1.962 . S
Zn155 O158 1.986 . S
Zn155 O160 1.996 . S
Zn155 O163 1.943 . S
O156 Zn155 1.962 . S
O156 C161 1.254 . S
O157 Zn154 2.031 . S
O157 C161 1.269 . S
O158 Zn155 1.986 . S
O158 C165 1.262 . S
O159 Zn154 2.049 . S
O159 C167 1.260 . S
O160 Zn155 1.996 . S
O160 C167 1.257 . S
C161 O156 1.254 . S
C161 O157 1.269 . S
C162 O163 1.249 . S
C162 O164 1.270 . S
O163 Zn155 1.943 . S
O163 C162 1.249 . S
O164 Zn154 2.067 . S
O164 C162 1.270 . S
C165 O158 1.262 . S
C165 O166 1.232 . S
O166 C165 1.232 . S
C167 O159 1.260 . S
C167 O160 1.257 . S
Zn168 O171 2.031 . S
Zn168 O173 2.049 . S
Zn168 O178 2.067 . S
Zn169 O170 1.962 1_545 S
Zn169 O172 1.986 . S
Zn169 O174 1.996 . S
Zn169 O177 1.943 . S
O170 Zn169 1.962 1_565 S
O170 C175 1.254 . S
O171 Zn168 2.031 . S
O171 C175 1.269 1_545 S
O172 Zn169 1.986 . S
O172 C179 1.262 . S
O173 Zn168 2.049 . S
O173 C181 1.260 . S
O174 Zn169 1.996 . S
O174 C181 1.257 . S
C175 O170 1.254 . S
C175 O171 1.269 1_565 S
C176 O177 1.249 . S
C176 O178 1.270 . S
O177 Zn169 1.943 . S
O177 C176 1.249 . S
O178 Zn168 2.067 . S
O178 C176 1.270 . S
C179 O172 1.262 . S
C179 O180 1.232 . S
O180 C179 1.232 . S
C181 O173 1.260 . S
C181 O174 1.257 . S
Zn182 O185 2.031 1_655 S
Zn182 O187 2.049 . S
Zn182 O192 2.067 . S
Zn183 O184 1.962 1_655 S
Zn183 O186 1.986 . S
Zn183 O188 1.996 . S
Zn183 O191 1.943 . S
O184 Zn183 1.962 1_455 S
O184 C189 1.254 . S
O185 Zn182 2.031 1_455 S
O185 C189 1.270 . S
O186 Zn183 1.986 . S
O186 C193 1.262 . S
O187 Zn182 2.049 . S
O187 C195 1.260 . S
O188 Zn183 1.996 . S
O188 C195 1.257 . S
C189 O184 1.254 . S
C189 O185 1.270 . S
C190 O191 1.249 . S
C190 O192 1.270 . S
O191 Zn183 1.943 . S
O191 C190 1.249 . S
O192 Zn182 2.067 . S
O192 C190 1.270 . S
C193 O186 1.262 . S
C193 O194 1.232 . S
O194 C193 1.232 . S
C195 O187 1.260 . S
C195 O188 1.257 . S
Zn196 O199 2.031 . S
Zn196 O201 2.049 . S
Zn196 O206 2.067 . S
Zn197 O198 1.962 . S
Zn197 O200 1.986 . S
Zn197 O202 1.996 . S
Zn197 O205 1.943 . S
O198 Zn197 1.962 . S
O198 C203 1.254 . S
O199 Zn196 2.031 . S
O199 C203 1.269 . S
O200 Zn197 1.986 . S
O200 C207 1.262 . S
O201 Zn196 2.049 . S
O201 C209 1.260 . S
O202 Zn197 1.996 . S
O202 C209 1.257 . S
C203 O198 1.254 . S
C203 O199 1.269 . S
C204 O205 1.249 . S
C204 O206 1.270 . S
O205 Zn197 1.943 . S
O205 C204 1.249 . S
O206 Zn196 2.067 . S
O206 C204 1.270 . S
C207 O200 1.262 . S
C207 O208 1.232 . S
O208 C207 1.232 . S
C209 O201 1.260 . S
C209 O202 1.257 . S
Zn210 O213 2.031 . S
Zn210 O215 2.049 . S
Zn210 O220 2.067 . S
Zn211 O212 1.962 . S
Zn211 O214 1.986 . S
Zn211 O216 1.996 . S
Zn211 O219 1.943 . S
O212 Zn211 1.962 . S
O212 C217 1.254 . S
O213 Zn210 2.031 . S
O213 C217 1.269 . S
O214 Zn211 1.986 . S
O214 C221 1.262 . S
O215 Zn210 2.049 . S
O215 C223 1.260 . S
O216 Zn211 1.996 . S
O216 C223 1.257 . S
C217 O212 1.254 . S
C217 O213 1.269 . S
C218 O219 1.249 . S
C218 O220 1.270 . S
O219 Zn211 1.943 . S
O219 C218 1.249 . S
O220 Zn210 2.067 . S
O220 C218 1.270 . S
C221 O214 1.262 . S
C221 O222 1.232 . S
O222 C221 1.232 . S
C223 O215 1.260 . S
C223 O216 1.257 . S
Zn224 O227 2.031 . S
Zn224 O229 2.049 . S
Zn224 O234 2.067 . S
Zn225 O226 1.962 . S
Zn225 O228 1.986 1_545 S
Zn225 O230 1.996 . S
Zn225 O233 1.943 . S
O226 Zn225 1.962 . S
O226 C231 1.254 . S
O227 Zn224 2.031 . S
O227 C231 1.269 . S
O228 Zn225 1.986 1_565 S
O228 C235 1.262 . S
O229 Zn224 2.049 . S
O229 C237 1.260 . S
O230 Zn225 1.996 . S
O230 C237 1.257 . S
C231 O226 1.254 . S
C231 O227 1.269 . S
C232 O233 1.249 . S
C232 O234 1.270 . S
O233 Zn225 1.943 . S
O233 C232 1.249 . S
O234 Zn224 2.067 . S
O234 C232 1.270 . S
C235 O228 1.262 . S
C235 O236 1.232 . S
O236 C235 1.232 . S
C237 O229 1.260 . S
C237 O230 1.257 . S
Zn238 O241 2.031 . S
Zn238 O243 2.049 . S
Zn238 O248 2.067 . S
Zn239 O240 1.962 1_655 S
Zn239 O242 1.986 . S
Zn239 O244 1.996 . S
Zn239 O247 1.943 . S
O240 Zn239 1.962 1_455 S
O240 C245 1.254 . S
O241 Zn238 2.031 . S
O241 C245 1.269 1_655 S
O242 Zn239 1.986 . S
O242 C249 1.262 . S
O243 Zn238 2.049 . S
O243 C251 1.260 . S
O244 Zn239 1.996 . S
O244 C251 1.257 . S
C245 O240 1.254 . S
C245 O241 1.269 1_455 S
C246 O247 1.249 . S
C246 O248 1.270 . S
O247 Zn239 1.943 . S
O247 C246 1.249 . S
O248 Zn238 2.067 . S
O248 C246 1.270 . S
C249 O242 1.262 . S
C249 O250 1.232 . S
O250 C249 1.232 . S
C251 O243 1.260 . S
C251 O244 1.257 . S
C252 C253 1.384 . S
C252 C254 1.384 . S
C252 H280 0.931 . S
C253 C252 1.384 . S
C253 C256 1.382 . S
C254 C252 1.384 . S
C254 C255 1.381 . S
C254 H281 0.930 . S
C255 C254 1.381 . S
C255 C257 1.381 . S
C255 C258 1.487 . S
C256 C253 1.382 . S
C256 C257 1.387 . S
C256 H282 0.930 . S
C257 C255 1.381 . S
C257 C256 1.387 . S
C257 H283 0.931 . S
C258 C255 1.487 . S
C258 C265 1.399 . S
C258 N296 1.343 . S
C259 C260 1.384 . S
C259 C261 1.384 . S
C259 H284 0.931 . S
C260 C259 1.384 . S
C260 C263 1.382 . S
C261 C259 1.384 . S
C261 C262 1.381 . S
C261 H285 0.930 . S
C262 C261 1.381 . S
C262 C264 1.381 . S
C262 C265 1.487 . S
C263 C260 1.382 . S
C263 C264 1.387 . S
C263 H286 0.930 . S
C264 C262 1.381 . S
C264 C263 1.387 . S
C264 H287 0.931 . S
C265 C258 1.399 . S
C265 C262 1.487 . S
C265 N297 1.343 . S
C266 C267 1.384 . S
C266 C268 1.384 . S
C266 H288 0.931 . S
C267 C266 1.384 . S
C267 C270 1.382 . S
C268 C266 1.384 . S
C268 C269 1.381 . S
C268 H289 0.930 . S
C269 C268 1.381 . S
C269 C271 1.381 . S
C269 C272 1.487 . S
C270 C267 1.382 . S
C270 C271 1.387 . S
C270 H290 0.930 . S
C271 C269 1.381 . S
C271 C270 1.387 . S
C271 H291 0.931 . S
C272 C269 1.487 . S
C272 C279 1.399 . S
C272 N297 1.343 . S
C273 C274 1.384 . S
C273 C275 1.384 . S
C273 H292 0.931 . S
C274 C273 1.384 . S
C274 C277 1.382 . S
C275 C273 1.384 . S
C275 C276 1.381 . S
C275 H293 0.930 . S
C276 C275 1.381 . S
C276 C278 1.381 . S
C276 C279 1.487 . S
C277 C274 1.382 . S
C277 C278 1.387 . S
C277 H294 0.930 . S
C278 C276 1.381 . S
C278 C277 1.387 . S
C278 H295 0.931 . S
C279 C272 1.399 . S
C279 C276 1.487 . S
C279 N296 1.343 . S
H280 C252 0.931 . S
H281 C254 0.930 . S
H282 C256 0.930 . S
H283 C257 0.931 . S
H284 C259 0.931 . S
H285 C261 0.930 . S
H286 C263 0.930 . S
H287 C264 0.931 . S
H288 C266 0.931 . S
H289 C268 0.930 . S
H290 C270 0.930 . S
H291 C271 0.931 . S
H292 C273 0.931 . S
H293 C275 0.930 . S
H294 C277 0.930 . S
H295 C278 0.931 . S
N296 C258 1.343 . S
N296 C279 1.343 . S
N297 C265 1.343 . S
N297 C272 1.343 . S
C298 C299 1.384 . S
C298 C300 1.384 . S
C298 H326 0.931 . S
C299 C298 1.384 . S
C299 C302 1.382 . S
C300 C298 1.384 . S
C300 C301 1.381 . S
C300 H327 0.930 . S
C301 C300 1.381 . S
C301 C303 1.381 . S
C301 C304 1.487 . S
C302 C299 1.382 . S
C302 C303 1.387 . S
C302 H328 0.930 . S
C303 C301 1.381 . S
C303 C302 1.387 . S
C303 H329 0.931 . S
C304 C301 1.487 . S
C304 C311 1.399 . S
C304 N342 1.343 . S
C305 C306 1.384 . S
C305 C307 1.384 . S
C305 H330 0.931 . S
C306 C305 1.384 . S
C306 C309 1.382 . S
C307 C305 1.384 . S
C307 C308 1.381 . S
C307 H331 0.930 . S
C308 C307 1.381 . S
C308 C310 1.381 . S
C308 C311 1.487 . S
C309 C306 1.382 . S
C309 C310 1.387 . S
C309 H332 0.930 . S
C310 C308 1.381 . S
C310 C309 1.387 . S
C310 H333 0.931 . S
C311 C304 1.399 . S
C311 C308 1.487 . S
C311 N343 1.343 . S
C312 C313 1.384 . S
C312 C314 1.384 . S
C312 H334 0.931 . S
C313 C312 1.384 . S
C313 C316 1.382 . S
C314 C312 1.384 . S
C314 C315 1.381 . S
C314 H335 0.930 . S
C315 C314 1.381 . S
C315 C317 1.381 . S
C315 C318 1.487 . S
C316 C313 1.382 . S
C316 C317 1.387 . S
C316 H336 0.930 . S
C317 C315 1.381 . S
C317 C316 1.387 . S
C317 H337 0.931 . S
C318 C315 1.487 . S
C318 C325 1.399 . S
C318 N343 1.343 . S
C319 C320 1.384 . S
C319 C321 1.384 . S
C319 H338 0.931 . S
C320 C319 1.384 . S
C320 C323 1.382 . S
C321 C319 1.384 . S
C321 C322 1.381 . S
C321 H339 0.930 . S
C322 C321 1.381 . S
C322 C324 1.381 . S
C322 C325 1.487 . S
C323 C320 1.382 . S
C323 C324 1.387 . S
C323 H340 0.930 . S
C324 C322 1.381 . S
C324 C323 1.387 . S
C324 H341 0.931 . S
C325 C318 1.399 . S
C325 C322 1.487 . S
C325 N342 1.343 . S
H326 C298 0.931 . S
H327 C300 0.930 . S
H328 C302 0.930 . S
H329 C303 0.931 . S
H330 C305 0.931 . S
H331 C307 0.930 . S
H332 C309 0.930 . S
H333 C310 0.931 . S
H334 C312 0.931 . S
H335 C314 0.930 . S
H336 C316 0.930 . S
H337 C317 0.931 . S
H338 C319 0.931 . S
H339 C321 0.930 . S
H340 C323 0.930 . S
H341 C324 0.931 . S
N342 C304 1.343 . S
N342 C325 1.343 . S
N343 C311 1.343 . S
N343 C318 1.343 . S
C344 C345 1.384 . S
C344 C346 1.384 . S
C344 H372 0.931 . S
C345 C344 1.384 . S
C345 C348 1.382 . S
C346 C344 1.384 . S
C346 C347 1.381 . S
C346 H373 0.930 . S
C347 C346 1.381 . S
C347 C349 1.381 . S
C347 C350 1.487 . S
C348 C345 1.382 . S
C348 C349 1.387 . S
C348 H374 0.930 . S
C349 C347 1.381 . S
C349 C348 1.387 . S
C349 H375 0.931 . S
C350 C347 1.487 . S
C350 C357 1.399 . S
C350 N388 1.343 . S
C351 C352 1.384 . S
C351 C353 1.384 . S
C351 H376 0.931 . S
C352 C351 1.384 . S
C352 C355 1.382 . S
C353 C351 1.384 . S
C353 C354 1.381 . S
C353 H377 0.930 . S
C354 C353 1.381 . S
C354 C356 1.381 . S
C354 C357 1.487 . S
C355 C352 1.382 . S
C355 C356 1.387 . S
C355 H378 0.930 . S
C356 C354 1.381 . S
C356 C355 1.387 . S
C356 H379 0.931 . S
C357 C350 1.399 . S
C357 C354 1.487 . S
C357 N389 1.343 . S
C358 C359 1.384 . S
C358 C360 1.384 . S
C358 H380 0.931 . S
C359 C358 1.384 . S
C359 C362 1.382 . S
C360 C358 1.384 . S
C360 C361 1.381 . S
C360 H381 0.930 . S
C361 C360 1.381 . S
C361 C363 1.381 . S
C361 C364 1.487 . S
C362 C359 1.382 . S
C362 C363 1.387 . S
C362 H382 0.930 . S
C363 C361 1.381 . S
C363 C362 1.387 . S
C363 H383 0.931 . S
C364 C361 1.487 . S
C364 C371 1.399 . S
C364 N389 1.343 . S
C365 C366 1.384 . S
C365 C367 1.384 . S
C365 H384 0.931 . S
C366 C365 1.384 . S
C366 C369 1.382 . S
C367 C365 1.384 . S
C367 C368 1.381 . S
C367 H385 0.930 . S
C368 C367 1.381 . S
C368 C370 1.381 . S
C368 C371 1.487 . S
C369 C366 1.382 . S
C369 C370 1.387 . S
C369 H386 0.930 . S
C370 C368 1.381 . S
C370 C369 1.387 . S
C370 H387 0.931 . S
C371 C364 1.399 . S
C371 C368 1.487 . S
C371 N388 1.343 . S
H372 C344 0.931 . S
H373 C346 0.930 . S
H374 C348 0.930 . S
H375 C349 0.931 . S
H376 C351 0.931 . S
H377 C353 0.930 . S
H378 C355 0.930 . S
H379 C356 0.931 . S
H380 C358 0.931 . S
H381 C360 0.930 . S
H382 C362 0.930 . S
H383 C363 0.931 . S
H384 C365 0.931 . S
H385 C367 0.930 . S
H386 C369 0.930 . S
H387 C370 0.931 . S
N388 C350 1.343 . S
N388 C371 1.343 . S
N389 C357 1.343 . S
N389 C364 1.343 . S
C390 C391 1.384 . S
C390 C392 1.384 . S
C390 H418 0.931 . S
C391 C390 1.384 . S
C391 C394 1.382 . S
C392 C390 1.384 . S
C392 C393 1.381 . S
C392 H419 0.930 . S
C393 C392 1.381 . S
C393 C395 1.381 . S
C393 C396 1.487 . S
C394 C391 1.382 . S
C394 C395 1.387 . S
C394 H420 0.930 . S
C395 C393 1.381 . S
C395 C394 1.387 . S
C395 H421 0.931 . S
C396 C393 1.487 . S
C396 C403 1.399 . S
C396 N434 1.343 . S
C397 C398 1.384 . S
C397 C399 1.384 . S
C397 H422 0.931 . S
C398 C397 1.384 . S
C398 C401 1.382 . S
C399 C397 1.384 . S
C399 C400 1.381 . S
C399 H423 0.930 . S
C400 C399 1.381 . S
C400 C402 1.381 . S
C400 C403 1.487 . S
C401 C398 1.382 . S
C401 C402 1.387 . S
C401 H424 0.930 . S
C402 C400 1.381 . S
C402 C401 1.387 . S
C402 H425 0.931 . S
C403 C396 1.399 . S
C403 C400 1.487 . S
C403 N435 1.343 . S
C404 C405 1.384 . S
C404 C406 1.384 . S
C404 H426 0.931 . S
C405 C404 1.384 . S
C405 C408 1.382 . S
C406 C404 1.384 . S
C406 C407 1.381 . S
C406 H427 0.930 . S
C407 C406 1.381 . S
C407 C409 1.381 . S
C407 C410 1.487 . S
C408 C405 1.382 . S
C408 C409 1.387 . S
C408 H428 0.930 . S
C409 C407 1.381 . S
C409 C408 1.387 . S
C409 H429 0.931 . S
C410 C407 1.487 . S
C410 C417 1.399 . S
C410 N435 1.343 . S
C411 C412 1.384 . S
C411 C413 1.384 . S
C411 H430 0.931 . S
C412 C411 1.384 . S
C412 C415 1.382 . S
C413 C411 1.384 . S
C413 C414 1.381 . S
C413 H431 0.930 . S
C414 C413 1.381 . S
C414 C416 1.381 . S
C414 C417 1.487 . S
C415 C412 1.382 . S
C415 C416 1.387 . S
C415 H432 0.930 . S
C416 C414 1.381 . S
C416 C415 1.387 . S
C416 H433 0.931 . S
C417 C410 1.399 . S
C417 C414 1.487 . S
C417 N434 1.343 . S
H418 C390 0.931 . S
H419 C392 0.930 . S
H420 C394 0.930 . S
H421 C395 0.931 . S
H422 C397 0.931 . S
H423 C399 0.930 . S
H424 C401 0.930 . S
H425 C402 0.931 . S
H426 C404 0.931 . S
H427 C406 0.930 . S
H428 C408 0.930 . S
H429 C409 0.931 . S
H430 C411 0.931 . S
H431 C413 0.930 . S
H432 C415 0.930 . S
H433 C416 0.931 . S
N434 C396 1.343 . S
N434 C417 1.343 . S
N435 C403 1.343 . S
N435 C410 1.343 . S
C436 C437 1.384 . S
C436 C438 1.384 . S
C436 H464 0.931 . S
C437 C436 1.384 . S
C437 C440 1.382 . S
C438 C436 1.384 . S
C438 C439 1.381 . S
C438 H465 0.930 . S
C439 C438 1.381 . S
C439 C441 1.381 . S
C439 C442 1.487 . S
C440 C437 1.382 . S
C440 C441 1.387 . S
C440 H466 0.930 . S
C441 C439 1.381 . S
C441 C440 1.387 . S
C441 H467 0.931 . S
C442 C439 1.487 . S
C442 C449 1.399 . S
C442 N480 1.343 . S
C443 C444 1.384 . S
C443 C445 1.384 . S
C443 H468 0.931 . S
C444 C443 1.384 . S
C444 C447 1.382 . S
C445 C443 1.384 . S
C445 C446 1.381 . S
C445 H469 0.930 . S
C446 C445 1.381 . S
C446 C448 1.381 . S
C446 C449 1.487 . S
C447 C444 1.382 . S
C447 C448 1.387 . S
C447 H470 0.930 . S
C448 C446 1.381 . S
C448 C447 1.387 . S
C448 H471 0.931 . S
C449 C442 1.399 . S
C449 C446 1.487 . S
C449 N481 1.343 . S
C450 C451 1.384 . S
C450 C452 1.384 . S
C450 H472 0.931 . S
C451 C450 1.384 . S
C451 C454 1.382 . S
C452 C450 1.384 . S
C452 C453 1.381 . S
C452 H473 0.930 . S
C453 C452 1.381 . S
C453 C455 1.381 . S
C453 C456 1.487 . S
C454 C451 1.382 . S
C454 C455 1.387 . S
C454 H474 0.930 . S
C455 C453 1.381 . S
C455 C454 1.387 . S
C455 H475 0.931 . S
C456 C453 1.487 . S
C456 C463 1.399 . S
C456 N481 1.343 . S
C457 C458 1.384 . S
C457 C459 1.384 . S
C457 H476 0.931 . S
C458 C457 1.384 . S
C458 C461 1.382 . S
C459 C457 1.384 . S
C459 C460 1.381 . S
C459 H477 0.930 . S
C460 C459 1.381 . S
C460 C462 1.381 . S
C460 C463 1.487 . S
C461 C458 1.382 . S
C461 C462 1.387 . S
C461 H478 0.930 . S
C462 C460 1.381 . S
C462 C461 1.387 . S
C462 H479 0.931 . S
C463 C456 1.399 . S
C463 C460 1.487 . S
C463 N480 1.343 . S
H464 C436 0.931 . S
H465 C438 0.930 . S
H466 C440 0.930 . S
H467 C441 0.931 . S
H468 C443 0.931 . S
H469 C445 0.930 . S
H470 C447 0.930 . S
H471 C448 0.931 . S
H472 C450 0.931 . S
H473 C452 0.930 . S
H474 C454 0.930 . S
H475 C455 0.931 . S
H476 C457 0.931 . S
H477 C459 0.930 . S
H478 C461 0.930 . S
H479 C462 0.931 . S
N480 C442 1.343 . S
N480 C463 1.343 . S
N481 C449 1.343 . S
N481 C456 1.343 . S
C482 C483 1.384 . S
C482 C484 1.384 . S
C482 H510 0.931 . S
C483 C482 1.384 . S
C483 C486 1.382 . S
C484 C482 1.384 . S
C484 C485 1.381 . S
C484 H511 0.930 . S
C485 C484 1.381 . S
C485 C487 1.381 . S
C485 C488 1.487 . S
C486 C483 1.382 . S
C486 C487 1.387 . S
C486 H512 0.930 . S
C487 C485 1.381 . S
C487 C486 1.387 . S
C487 H513 0.931 . S
C488 C485 1.487 . S
C488 C495 1.399 . S
C488 N526 1.343 . S
C489 C490 1.384 . S
C489 C491 1.384 . S
C489 H514 0.931 . S
C490 C489 1.384 . S
C490 C493 1.382 . S
C491 C489 1.384 . S
C491 C492 1.381 . S
C491 H515 0.930 . S
C492 C491 1.381 . S
C492 C494 1.381 . S
C492 C495 1.487 . S
C493 C490 1.382 . S
C493 C494 1.387 . S
C493 H516 0.930 . S
C494 C492 1.381 . S
C494 C493 1.387 . S
C494 H517 0.931 . S
C495 C488 1.399 . S
C495 C492 1.487 . S
C495 N527 1.343 . S
C496 C497 1.384 . S
C496 C498 1.384 . S
C496 H518 0.931 . S
C497 C496 1.384 . S
C497 C500 1.382 . S
C498 C496 1.384 . S
C498 C499 1.381 . S
C498 H519 0.930 . S
C499 C498 1.381 . S
C499 C501 1.381 . S
C499 C502 1.487 . S
C500 C497 1.382 . S
C500 C501 1.387 . S
C500 H520 0.930 . S
C501 C499 1.381 . S
C501 C500 1.387 . S
C501 H521 0.931 . S
C502 C499 1.487 . S
C502 C509 1.399 . S
C502 N527 1.343 . S
C503 C504 1.384 . S
C503 C505 1.384 . S
C503 H522 0.931 . S
C504 C503 1.384 . S
C504 C507 1.382 . S
C505 C503 1.384 . S
C505 C506 1.381 . S
C505 H523 0.930 . S
C506 C505 1.381 . S
C506 C508 1.381 . S
C506 C509 1.487 . S
C507 C504 1.382 . S
C507 C508 1.387 . S
C507 H524 0.930 . S
C508 C506 1.381 . S
C508 C507 1.387 . S
C508 H525 0.931 . S
C509 C502 1.399 . S
C509 C506 1.487 . S
C509 N526 1.343 . S
H510 C482 0.931 . S
H511 C484 0.930 . S
H512 C486 0.930 . S
H513 C487 0.931 . S
H514 C489 0.931 . S
H515 C491 0.930 . S
H516 C493 0.930 . S
H517 C494 0.931 . S
H518 C496 0.931 . S
H519 C498 0.930 . S
H520 C500 0.930 . S
H521 C501 0.931 . S
H522 C503 0.931 . S
H523 C505 0.930 . S
H524 C507 0.930 . S
H525 C508 0.931 . S
N526 C488 1.343 . S
N526 C509 1.343 . S
N527 C495 1.343 . S
N527 C502 1.343 . S
C528 C529 1.384 . S
C528 C530 1.384 . S
C528 H556 0.931 . S
C529 C528 1.384 . S
C529 C532 1.382 . S
C530 C528 1.384 . S
C530 C531 1.381 . S
C530 H557 0.930 . S
C531 C530 1.381 . S
C531 C533 1.381 . S
C531 C534 1.487 . S
C532 C529 1.382 . S
C532 C533 1.387 . S
C532 H558 0.930 . S
C533 C531 1.381 . S
C533 C532 1.387 . S
C533 H559 0.931 . S
C534 C531 1.487 . S
C534 C541 1.399 . S
C534 N572 1.343 . S
C535 C536 1.384 . S
C535 C537 1.384 . S
C535 H560 0.931 . S
C536 C535 1.384 . S
C536 C539 1.382 . S
C537 C535 1.384 . S
C537 C538 1.381 . S
C537 H561 0.930 . S
C538 C537 1.381 . S
C538 C540 1.381 . S
C538 C541 1.487 . S
C539 C536 1.382 . S
C539 C540 1.387 . S
C539 H562 0.930 . S
C540 C538 1.381 . S
C540 C539 1.387 . S
C540 H563 0.931 . S
C541 C534 1.399 . S
C541 C538 1.487 . S
C541 N573 1.343 . S
C542 C543 1.384 . S
C542 C544 1.384 . S
C542 H564 0.931 . S
C543 C542 1.384 . S
C543 C546 1.382 . S
C544 C542 1.384 . S
C544 C545 1.381 . S
C544 H565 0.930 . S
C545 C544 1.381 . S
C545 C547 1.381 . S
C545 C548 1.487 . S
C546 C543 1.382 . S
C546 C547 1.387 . S
C546 H566 0.930 . S
C547 C545 1.381 . S
C547 C546 1.387 . S
C547 H567 0.931 . S
C548 C545 1.487 . S
C548 C555 1.399 . S
C548 N573 1.343 . S
C549 C550 1.384 . S
C549 C551 1.384 . S
C549 H568 0.931 . S
C550 C549 1.384 . S
C550 C553 1.382 . S
C551 C549 1.384 . S
C551 C552 1.381 . S
C551 H569 0.930 . S
C552 C551 1.381 . S
C552 C554 1.381 . S
C552 C555 1.487 . S
C553 C550 1.382 . S
C553 C554 1.387 . S
C553 H570 0.930 . S
C554 C552 1.381 . S
C554 C553 1.387 . S
C554 H571 0.931 . S
C555 C548 1.399 . S
C555 C552 1.487 . S
C555 N572 1.343 . S
H556 C528 0.931 . S
H557 C530 0.930 . S
H558 C532 0.930 . S
H559 C533 0.931 . S
H560 C535 0.931 . S
H561 C537 0.930 . S
H562 C539 0.930 . S
H563 C540 0.931 . S
H564 C542 0.931 . S
H565 C544 0.930 . S
H566 C546 0.930 . S
H567 C547 0.931 . S
H568 C549 0.931 . S
H569 C551 0.930 . S
H570 C553 0.930 . S
H571 C554 0.931 . S
N572 C534 1.343 . S
N572 C555 1.343 . S
N573 C541 1.343 . S
N573 C548 1.343 . S
C574 C575 1.384 . S
C574 C576 1.384 . S
C574 H602 0.931 . S
C575 C574 1.384 . S
C575 C578 1.382 . S
C576 C574 1.384 . S
C576 C577 1.381 . S
C576 H603 0.930 . S
C577 C576 1.381 . S
C577 C579 1.381 . S
C577 C580 1.487 . S
C578 C575 1.382 . S
C578 C579 1.387 . S
C578 H604 0.930 . S
C579 C577 1.381 . S
C579 C578 1.387 . S
C579 H605 0.931 . S
C580 C577 1.487 . S
C580 C587 1.399 . S
C580 N618 1.343 . S
C581 C582 1.384 . S
C581 C583 1.384 . S
C581 H606 0.931 . S
C582 C581 1.384 . S
C582 C585 1.382 . S
C583 C581 1.384 . S
C583 C584 1.381 . S
C583 H607 0.930 . S
C584 C583 1.381 . S
C584 C586 1.381 . S
C584 C587 1.487 . S
C585 C582 1.382 . S
C585 C586 1.387 . S
C585 H608 0.930 . S
C586 C584 1.381 . S
C586 C585 1.387 . S
C586 H609 0.931 . S
C587 C580 1.399 . S
C587 C584 1.487 . S
C587 N619 1.343 . S
C588 C589 1.384 . S
C588 C590 1.384 . S
C588 H610 0.931 . S
C589 C588 1.384 . S
C589 C592 1.382 . S
C590 C588 1.384 . S
C590 C591 1.381 . S
C590 H611 0.930 . S
C591 C590 1.381 . S
C591 C593 1.381 . S
C591 C594 1.487 . S
C592 C589 1.382 . S
C592 C593 1.387 . S
C592 H612 0.930 . S
C593 C591 1.381 . S
C593 C592 1.387 . S
C593 H613 0.931 . S
C594 C591 1.487 . S
C594 C601 1.399 . S
C594 N619 1.343 . S
C595 C596 1.384 . S
C595 C597 1.384 . S
C595 H614 0.931 . S
C596 C595 1.384 . S
C596 C599 1.382 . S
C597 C595 1.384 . S
C597 C598 1.381 . S
C597 H615 0.930 . S
C598 C597 1.381 . S
C598 C600 1.381 . S
C598 C601 1.487 . S
C599 C596 1.382 . S
C599 C600 1.387 . S
C599 H616 0.930 . S
C600 C598 1.381 . S
C600 C599 1.387 . S
C600 H617 0.931 . S
C601 C594 1.399 . S
C601 C598 1.487 . S
C601 N618 1.343 . S
H602 C574 0.931 . S
H603 C576 0.930 . S
H604 C578 0.930 . S
H605 C579 0.931 . S
H606 C581 0.931 . S
H607 C583 0.930 . S
H608 C585 0.930 . S
H609 C586 0.931 . S
H610 C588 0.931 . S
H611 C590 0.930 . S
H612 C592 0.930 . S
H613 C593 0.931 . S
H614 C595 0.931 . S
H615 C597 0.930 . S
H616 C599 0.930 . S
H617 C600 0.931 . S
N618 C580 1.343 . S
N618 C601 1.343 . S
N619 C587 1.343 . S
N619 C594 1.343 . S
C620 C621 1.384 . S
C620 C622 1.384 . S
C620 H648 0.931 . S
C621 C620 1.384 . S
C621 C624 1.382 . S
C622 C620 1.384 . S
C622 C623 1.381 . S
C622 H649 0.930 . S
C623 C622 1.381 . S
C623 C625 1.381 . S
C623 C626 1.487 . S
C624 C621 1.382 . S
C624 C625 1.387 . S
C624 H650 0.930 . S
C625 C623 1.381 . S
C625 C624 1.387 . S
C625 H651 0.931 . S
C626 C623 1.487 . S
C626 C633 1.399 . S
C626 N664 1.343 . S
C627 C628 1.384 . S
C627 C629 1.384 . S
C627 H652 0.931 . S
C628 C627 1.384 . S
C628 C631 1.382 . S
C629 C627 1.384 . S
C629 C630 1.381 . S
C629 H653 0.930 . S
C630 C629 1.381 . S
C630 C632 1.381 . S
C630 C633 1.487 . S
C631 C628 1.382 . S
C631 C632 1.387 . S
C631 H654 0.930 . S
C632 C630 1.381 . S
C632 C631 1.387 . S
C632 H655 0.931 . S
C633 C626 1.399 . S
C633 C630 1.487 . S
C633 N665 1.343 . S
C634 C635 1.384 . S
C634 C636 1.384 . S
C634 H656 0.931 . S
C635 C634 1.384 . S
C635 C638 1.382 . S
C636 C634 1.384 . S
C636 C637 1.381 . S
C636 H657 0.930 . S
C637 C636 1.381 . S
C637 C639 1.381 . S
C637 C640 1.487 . S
C638 C635 1.382 . S
C638 C639 1.387 . S
C638 H658 0.930 . S
C639 C637 1.381 . S
C639 C638 1.387 . S
C639 H659 0.931 . S
C640 C637 1.487 . S
C640 C647 1.399 . S
C640 N665 1.343 . S
C641 C642 1.384 . S
C641 C643 1.384 . S
C641 H660 0.931 . S
C642 C641 1.384 . S
C642 C645 1.382 . S
C643 C641 1.384 . S
C643 C644 1.381 . S
C643 H661 0.930 . S
C644 C643 1.381 . S
C644 C646 1.381 . S
C644 C647 1.487 . S
C645 C642 1.382 . S
C645 C646 1.387 . S
C645 H662 0.930 . S
C646 C644 1.381 . S
C646 C645 1.387 . S
C646 H663 0.931 . S
C647 C640 1.399 . S
C647 C644 1.487 . S
C647 N664 1.343 . S
H648 C620 0.931 . S
H649 C622 0.930 . S
H650 C624 0.930 . S
H651 C625 0.931 . S
H652 C627 0.931 . S
H653 C629 0.930 . S
H654 C631 0.930 . S
H655 C632 0.931 . S
H656 C634 0.931 . S
H657 C636 0.930 . S
H658 C638 0.930 . S
H659 C639 0.931 . S
H660 C641 0.931 . S
H661 C643 0.930 . S
H662 C645 0.930 . S
H663 C646 0.931 . S
N664 C626 1.343 . S
N664 C647 1.343 . S
N665 C633 1.343 . S
N665 C640 1.343 . S
C666 C667 1.384 . S
C666 C668 1.384 . S
C666 H694 0.931 . S
C667 C666 1.384 . S
C667 C670 1.382 1_655 S
C668 C666 1.384 . S
C668 C669 1.408 . S
C668 H695 0.930 . S
C669 C668 1.408 . S
C669 C671 1.368 1_655 S
C669 C672 1.472 1_655 S
C670 C667 1.382 1_455 S
C670 C671 1.387 . S
C670 H696 0.930 . S
C671 C669 1.368 1_455 S
C671 C670 1.387 . S
C671 H697 0.931 . S
C672 C669 1.472 1_455 S
C672 C679 1.399 1_455 S
C672 N710 1.312 . S
C673 C674 1.384 . S
C673 C675 1.384 . S
C673 H698 0.931 . S
C674 C673 1.384 . S
C674 C677 1.382 1_455 S
C675 C673 1.384 . S
C675 C676 1.381 . S
C675 H699 0.930 . S
C676 C675 1.381 . S
C676 C678 1.383 1_455 S
C676 C679 1.491 1_455 S
C677 C674 1.382 1_655 S
C677 C678 1.387 . S
C677 H700 0.930 . S
C678 C676 1.383 1_655 S
C678 C677 1.387 . S
C678 H701 0.931 . S
C679 C672 1.399 1_655 S
C679 C676 1.491 1_655 S
C679 N711 1.361 . S
C680 C681 1.384 . S
C680 C682 1.384 . S
C680 H702 0.931 . S
C681 C680 1.384 . S
C681 C684 1.382 1_455 S
C682 C680 1.384 . S
C682 C683 1.425 . S
C682 H703 0.930 . S
C683 C682 1.425 . S
C683 C685 1.360 1_455 S
C683 C686 1.464 . S
C684 C681 1.382 1_655 S
C684 C685 1.387 . S
C684 H704 0.930 . S
C685 C683 1.360 1_655 S
C685 C684 1.387 . S
C685 H705 0.931 . S
C686 C683 1.464 . S
C686 C693 1.398 . S
C686 N711 1.320 1_455 S
C687 C688 1.384 . S
C687 C689 1.384 . S
C687 H706 0.931 . S
C688 C687 1.384 . S
C688 C691 1.382 1_655 S
C689 C687 1.384 . S
C689 C690 1.381 1_655 S
C689 H707 0.930 . S
C690 C689 1.381 1_455 S
C690 C692 1.383 . S
C690 C693 1.498 . S
C691 C688 1.382 1_455 S
C691 C692 1.387 . S
C691 H708 0.930 . S
C692 C690 1.383 . S
C692 C691 1.387 . S
C692 H709 0.931 . S
C693 C686 1.398 . S
C693 C690 1.498 . S
C693 N710 1.361 . S
H694 C666 0.931 . S
H695 C668 0.930 . S
H696 C670 0.930 . S
H697 C671 0.931 . S
H698 C673 0.931 . S
H699 C675 0.930 . S
H700 C677 0.930 . S
H701 C678 0.931 . S
H702 C680 0.931 . S
H703 C682 0.930 . S
H704 C684 0.930 . S
H705 C685 0.931 . S
H706 C687 0.931 . S
H707 C689 0.930 . S
H708 C691 0.930 . S
H709 C692 0.931 . S
N710 C672 1.312 . S
N710 C693 1.361 . S
N711 C679 1.361 . S
N711 C686 1.320 1_655 S
C712 C713 1.384 . S
C712 C714 1.384 . S
C712 H740 0.931 . S
C713 C712 1.384 . S
C713 C716 1.382 . S
C714 C712 1.384 . S
C714 C715 1.381 . S
C714 H741 0.930 . S
C715 C714 1.381 . S
C715 C717 1.381 . S
C715 C718 1.487 . S
C716 C713 1.382 . S
C716 C717 1.387 . S
C716 H742 0.930 . S
C717 C715 1.381 . S
C717 C716 1.387 . S
C717 H743 0.931 . S
C718 C715 1.487 . S
C718 C725 1.399 . S
C718 N756 1.343 . S
C719 C720 1.384 . S
C719 C721 1.384 . S
C719 H744 0.931 . S
C720 C719 1.384 . S
C720 C723 1.382 . S
C721 C719 1.384 . S
C721 C722 1.381 . S
C721 H745 0.930 . S
C722 C721 1.381 . S
C722 C724 1.381 . S
C722 C725 1.487 . S
C723 C720 1.382 . S
C723 C724 1.387 . S
C723 H746 0.930 . S
C724 C722 1.381 . S
C724 C723 1.387 . S
C724 H747 0.931 . S
C725 C718 1.399 . S
C725 C722 1.487 . S
C725 N757 1.343 . S
C726 C727 1.384 . S
C726 C728 1.384 . S
C726 H748 0.931 . S
C727 C726 1.384 . S
C727 C730 1.382 . S
C728 C726 1.384 . S
C728 C729 1.381 . S
C728 H749 0.930 . S
C729 C728 1.381 . S
C729 C731 1.381 . S
C729 C732 1.487 . S
C730 C727 1.382 . S
C730 C731 1.387 . S
C730 H750 0.930 . S
C731 C729 1.381 . S
C731 C730 1.387 . S
C731 H751 0.931 . S
C732 C729 1.487 . S
C732 C739 1.399 . S
C732 N757 1.343 . S
C733 C734 1.384 . S
C733 C735 1.384 . S
C733 H752 0.931 . S
C734 C733 1.384 . S
C734 C737 1.382 . S
C735 C733 1.384 . S
C735 C736 1.381 . S
C735 H753 0.930 . S
C736 C735 1.381 . S
C736 C738 1.381 . S
C736 C739 1.487 . S
C737 C734 1.382 . S
C737 C738 1.387 . S
C737 H754 0.930 . S
C738 C736 1.381 . S
C738 C737 1.387 . S
C738 H755 0.931 . S
C739 C732 1.399 . S
C739 C736 1.487 . S
C739 N756 1.343 . S
H740 C712 0.931 . S
H741 C714 0.930 . S
H742 C716 0.930 . S
H743 C717 0.931 . S
H744 C719 0.931 . S
H745 C721 0.930 . S
H746 C723 0.930 . S
H747 C724 0.931 . S
H748 C726 0.931 . S
H749 C728 0.930 . S
H750 C730 0.930 . S
H751 C731 0.931 . S
H752 C733 0.931 . S
H753 C735 0.930 . S
H754 C737 0.930 . S
H755 C738 0.931 . S
N756 C718 1.343 . S
N756 C739 1.343 . S
N757 C725 1.343 . S
N757 C732 1.343 . S
C758 C759 1.384 1_545 S
C758 C760 1.384 . S
C758 H786 0.931 . S
C759 C758 1.384 1_565 S
C759 C762 1.382 . S
C760 C758 1.384 . S
C760 C761 1.381 1_545 S
C760 H787 0.930 . S
C761 C760 1.381 1_565 S
C761 C763 1.381 . S
C761 C764 1.487 . S
C762 C759 1.382 . S
C762 C763 1.387 . S
C762 H788 0.930 . S
C763 C761 1.381 . S
C763 C762 1.387 . S
C763 H789 0.931 . S
C764 C761 1.487 . S
C764 C771 1.399 1_565 S
C764 N802 1.343 . S
C765 C766 1.384 1_565 S
C765 C767 1.384 . S
C765 H790 0.931 . S
C766 C765 1.384 1_545 S
C766 C769 1.382 . S
C767 C765 1.384 . S
C767 C768 1.381 1_565 S
C767 H791 0.930 . S
C768 C767 1.381 1_545 S
C768 C770 1.381 . S
C768 C771 1.487 . S
C769 C766 1.382 . S
C769 C770 1.387 . S
C769 H792 0.930 . S
C770 C768 1.381 . S
C770 C769 1.387 . S
C770 H793 0.931 . S
C771 C764 1.399 1_545 S
C771 C768 1.487 . S
C771 N803 1.343 . S
C772 C773 1.384 1_565 S
C772 C774 1.384 . S
C772 H794 0.931 . S
C773 C772 1.384 1_545 S
C773 C776 1.382 . S
C774 C772 1.384 . S
C774 C775 1.381 1_565 S
C774 H795 0.930 . S
C775 C774 1.381 1_545 S
C775 C777 1.381 . S
C775 C778 1.487 . S
C776 C773 1.382 . S
C776 C777 1.387 . S
C776 H796 0.930 . S
C777 C775 1.381 . S
C777 C776 1.387 . S
C777 H797 0.931 . S
C778 C775 1.487 . S
C778 C785 1.399 1_545 S
C778 N803 1.343 . S
C779 C780 1.384 1_545 S
C779 C781 1.384 . S
C779 H798 0.931 . S
C780 C779 1.384 1_565 S
C780 C783 1.382 . S
C781 C779 1.384 . S
C781 C782 1.381 1_545 S
C781 H799 0.930 . S
C782 C781 1.381 1_565 S
C782 C784 1.381 . S
C782 C785 1.487 . S
C783 C780 1.382 . S
C783 C784 1.387 . S
C783 H800 0.930 . S
C784 C782 1.381 . S
C784 C783 1.387 . S
C784 H801 0.931 . S
C785 C778 1.399 1_565 S
C785 C782 1.487 . S
C785 N802 1.343 . S
H786 C758 0.931 . S
H787 C760 0.930 . S
H788 C762 0.930 . S
H789 C763 0.931 . S
H790 C765 0.931 . S
H791 C767 0.930 . S
H792 C769 0.930 . S
H793 C770 0.931 . S
H794 C772 0.931 . S
H795 C774 0.930 . S
H796 C776 0.930 . S
H797 C777 0.931 . S
H798 C779 0.931 . S
H799 C781 0.930 . S
H800 C783 0.930 . S
H801 C784 0.931 . S
N802 C764 1.343 . S
N802 C785 1.343 . S
N803 C771 1.343 . S
N803 C778 1.343 . S
C804 C805 1.384 . S
C804 C806 1.384 . S
C804 H832 0.931 . S
C805 C804 1.384 . S
C805 C808 1.382 1_545 S
C806 C804 1.384 . S
C806 C807 1.379 1_545 S
C806 H833 0.930 . S
C807 C806 1.379 1_565 S
C807 C809 1.388 . S
C807 C810 1.492 . S
C808 C805 1.382 1_565 S
C808 C809 1.387 . S
C808 H834 0.930 . S
C809 C807 1.388 . S
C809 C808 1.387 . S
C809 H835 0.931 . S
C810 C807 1.492 . S
C810 C817 1.399 1_565 S
C810 N848 1.359 . S
C811 C812 1.384 . S
C811 C813 1.384 . S
C811 H836 0.931 . S
C812 C811 1.384 . S
C812 C815 1.382 1_565 S
C813 C811 1.384 . S
C813 C814 1.419 . S
C813 H837 0.930 . S
C814 C813 1.419 . S
C814 C816 1.363 1_565 S
C814 C817 1.469 1_565 S
C815 C812 1.382 1_545 S
C815 C816 1.387 . S
C815 H838 0.930 . S
C816 C814 1.363 1_545 S
C816 C815 1.387 . S
C816 H839 0.931 . S
C817 C810 1.399 1_545 S
C817 C814 1.469 1_545 S
C817 N849 1.306 . S
C818 C819 1.428 . S
C818 C820 1.384 . S
C818 H840 0.931 . S
C819 C818 1.428 . S
C819 C822 1.370 1_565 S
C820 C818 1.384 . S
C820 C821 1.377 1_565 S
C820 H841 0.930 . S
C821 C820 1.377 1_545 S
C821 C823 1.398 . S
C821 C824 1.492 . S
C822 C819 1.370 1_545 S
C822 C823 1.387 . S
C822 H842 0.930 . S
C823 C821 1.398 . S
C823 C822 1.387 . S
C823 H843 0.931 . S
C824 C821 1.492 . S
C824 C831 1.399 . S
C824 N849 1.359 . S
C825 C826 1.384 . S
C825 C827 1.384 . S
C825 H844 0.931 . S
C826 C825 1.384 . S
C826 C829 1.382 1_545 S
C827 C825 1.384 . S
C827 C828 1.436 . S
C827 H845 0.930 . S
C828 C827 1.436 . S
C828 C830 1.355 1_545 S
C828 C831 1.462 . S
C829 C826 1.382 1_565 S
C829 C830 1.387 . S
C829 H846 0.930 . S
C830 C828 1.355 1_565 S
C830 C829 1.387 . S
C830 H847 0.931 . S
C831 C824 1.399 . S
C831 C828 1.462 . S
C831 N848 1.314 1_545 S
H832 C804 0.931 . S
H833 C806 0.930 . S
H834 C808 0.930 . S
H835 C809 0.931 . S
H836 C811 0.931 . S
H837 C813 0.930 . S
H838 C815 0.930 . S
H839 C816 0.931 . S
H840 C818 0.931 . S
H841 C820 0.930 . S
H842 C822 0.930 . S
H843 C823 0.931 . S
H844 C825 0.931 . S
H845 C827 0.930 . S
H846 C829 0.930 . S
H847 C830 0.931 . S
N848 C810 1.359 . S
N848 C831 1.314 1_565 S
N849 C817 1.306 . S
N849 C824 1.359 . S
C850 C851 1.384 . S
C850 C852 1.384 . S
C850 H878 0.931 . S
C851 C850 1.384 . S
C851 C854 1.382 1_655 S
C852 C850 1.384 . S
C852 C853 1.438 . S
C852 H879 0.930 . S
C853 C852 1.438 . S
C853 C855 1.354 1_655 S
C853 C856 1.461 . S
C854 C851 1.382 1_455 S
C854 C855 1.387 . S
C854 H880 0.930 . S
C855 C853 1.354 1_455 S
C855 C854 1.387 . S
C855 H881 0.931 . S
C856 C853 1.461 . S
C856 C863 1.399 . S
C856 N894 1.323 1_655 S
C857 C858 1.384 . S
C857 C859 1.384 . S
C857 H882 0.931 . S
C858 C857 1.384 . S
C858 C861 1.382 1_455 S
C859 C857 1.384 . S
C859 C860 1.380 . S
C859 H883 0.930 . S
C860 C859 1.380 . S
C860 C862 1.386 1_455 S
C860 C863 1.494 1_455 S
C861 C858 1.382 1_655 S
C861 C862 1.387 . S
C861 H884 0.930 . S
C862 C860 1.386 1_655 S
C862 C861 1.387 . S
C862 H885 0.931 . S
C863 C856 1.399 . S
C863 C860 1.494 1_655 S
C863 N895 1.359 . S
C864 C865 1.384 . S
C864 C866 1.384 . S
C864 H886 0.931 . S
C865 C864 1.384 . S
C865 C868 1.382 1_455 S
C866 C864 1.384 . S
C866 C867 1.421 . S
C866 H887 0.930 . S
C867 C866 1.421 . S
C867 C869 1.362 1_455 S
C867 C870 1.468 1_455 S
C868 C865 1.382 1_655 S
C868 C869 1.387 . S
C868 H888 0.930 . S
C869 C867 1.362 1_655 S
C869 C868 1.387 . S
C869 H889 0.931 . S
C870 C867 1.468 1_655 S
C870 C877 1.399 1_655 S
C870 N895 1.315 . S
C871 C872 1.384 . S
C871 C873 1.384 . S
C871 H890 0.931 . S
C872 C871 1.384 . S
C872 C875 1.382 1_655 S
C873 C871 1.384 . S
C873 C874 1.383 . S
C873 H891 0.930 . S
C874 C873 1.383 . S
C874 C876 1.376 1_655 S
C874 C877 1.494 1_655 S
C875 C872 1.382 1_455 S
C875 C876 1.387 . S
C875 H892 0.930 . S
C876 C874 1.376 1_455 S
C876 C875 1.387 . S
C876 H893 0.931 . S
C877 C870 1.399 1_455 S
C877 C874 1.494 1_455 S
C877 N894 1.359 . S
H878 C850 0.931 . S
H879 C852 0.930 . S
H880 C854 0.930 . S
H881 C855 0.931 . S
H882 C857 0.931 . S
H883 C859 0.930 . S
H884 C861 0.930 . S
H885 C862 0.931 . S
H886 C864 0.931 . S
H887 C866 0.930 . S
H888 C868 0.930 . S
H889 C869 0.931 . S
H890 C871 0.931 . S
H891 C873 0.930 . S
H892 C875 0.930 . S
H893 C876 0.931 . S
N894 C856 1.323 1_455 S
N894 C877 1.359 . S
N895 C863 1.359 . S
N895 C870 1.315 . S
C896 C897 1.384 . S
C896 C898 1.384 . S
C896 H924 0.931 . S
C897 C896 1.384 . S
C897 C900 1.382 . S
C898 C896 1.384 . S
C898 C899 1.381 . S
C898 H925 0.930 . S
C899 C898 1.381 . S
C899 C901 1.381 . S
C899 C902 1.487 . S
C900 C897 1.382 . S
C900 C901 1.387 . S
C900 H926 0.930 . S
C901 C899 1.381 . S
C901 C900 1.387 . S
C901 H927 0.931 . S
C902 C899 1.487 . S
C902 C909 1.399 . S
C902 N940 1.343 . S
C903 C904 1.384 . S
C903 C905 1.384 . S
C903 H928 0.931 . S
C904 C903 1.384 . S
C904 C907 1.382 . S
C905 C903 1.384 . S
C905 C906 1.381 . S
C905 H929 0.930 . S
C906 C905 1.381 . S
C906 C908 1.381 . S
C906 C909 1.487 . S
C907 C904 1.382 . S
C907 C908 1.387 . S
C907 H930 0.930 . S
C908 C906 1.381 . S
C908 C907 1.387 . S
C908 H931 0.931 . S
C909 C902 1.399 . S
C909 C906 1.487 . S
C909 N941 1.343 . S
C910 C911 1.384 . S
C910 C912 1.384 . S
C910 H932 0.931 . S
C911 C910 1.384 . S
C911 C914 1.382 . S
C912 C910 1.384 . S
C912 C913 1.381 . S
C912 H933 0.930 . S
C913 C912 1.381 . S
C913 C915 1.381 . S
C913 C916 1.487 . S
C914 C911 1.382 . S
C914 C915 1.387 . S
C914 H934 0.930 . S
C915 C913 1.381 . S
C915 C914 1.387 . S
C915 H935 0.931 . S
C916 C913 1.487 . S
C916 C923 1.399 . S
C916 N941 1.343 . S
C917 C918 1.384 . S
C917 C919 1.384 . S
C917 H936 0.931 . S
C918 C917 1.384 . S
C918 C921 1.382 . S
C919 C917 1.384 . S
C919 C920 1.381 . S
C919 H937 0.930 . S
C920 C919 1.381 . S
C920 C922 1.381 . S
C920 C923 1.487 . S
C921 C918 1.382 . S
C921 C922 1.387 . S
C921 H938 0.930 . S
C922 C920 1.381 . S
C922 C921 1.387 . S
C922 H939 0.931 . S
C923 C916 1.399 . S
C923 C920 1.487 . S
C923 N940 1.343 . S
H924 C896 0.931 . S
H925 C898 0.930 . S
H926 C900 0.930 . S
H927 C901 0.931 . S
H928 C903 0.931 . S
H929 C905 0.930 . S
H930 C907 0.930 . S
H931 C908 0.931 . S
H932 C910 0.931 . S
H933 C912 0.930 . S
H934 C914 0.930 . S
H935 C915 0.931 . S
H936 C917 0.931 . S
H937 C919 0.930 . S
H938 C921 0.930 . S
H939 C922 0.931 . S
N940 C902 1.343 . S
N940 C923 1.343 . S
N941 C909 1.343 . S
N941 C916 1.343 . S
C942 C943 1.384 . S
C942 C944 1.384 . S
C942 H970 0.931 . S
C943 C942 1.384 . S
C943 C946 1.382 . S
C944 C942 1.384 . S
C944 C945 1.381 . S
C944 H971 0.930 . S
C945 C944 1.381 . S
C945 C947 1.381 . S
C945 C948 1.487 . S
C946 C943 1.382 . S
C946 C947 1.387 . S
C946 H972 0.930 . S
C947 C945 1.381 . S
C947 C946 1.387 . S
C947 H973 0.931 . S
C948 C945 1.487 . S
C948 C955 1.399 . S
C948 N986 1.343 . S
C949 C950 1.384 . S
C949 C951 1.384 . S
C949 H974 0.931 . S
C950 C949 1.384 . S
C950 C953 1.382 . S
C951 C949 1.384 . S
C951 C952 1.381 . S
C951 H975 0.930 . S
C952 C951 1.381 . S
C952 C954 1.381 . S
C952 C955 1.487 . S
C953 C950 1.382 . S
C953 C954 1.387 . S
C953 H976 0.930 . S
C954 C952 1.381 . S
C954 C953 1.387 . S
C954 H977 0.931 . S
C955 C948 1.399 . S
C955 C952 1.487 . S
C955 N987 1.343 . S
C956 C957 1.384 . S
C956 C958 1.384 . S
C956 H978 0.931 . S
C957 C956 1.384 . S
C957 C960 1.382 . S
C958 C956 1.384 . S
C958 C959 1.381 . S
C958 H979 0.930 . S
C959 C958 1.381 . S
C959 C961 1.381 . S
C959 C962 1.487 . S
C960 C957 1.382 . S
C960 C961 1.387 . S
C960 H980 0.930 . S
C961 C959 1.381 . S
C961 C960 1.387 . S
C961 H981 0.931 . S
C962 C959 1.487 . S
C962 C969 1.399 . S
C962 N987 1.343 . S
C963 C964 1.384 . S
C963 C965 1.384 . S
C963 H982 0.931 . S
C964 C963 1.384 . S
C964 C967 1.382 . S
C965 C963 1.384 . S
C965 C966 1.381 . S
C965 H983 0.930 . S
C966 C965 1.381 . S
C966 C968 1.381 . S
C966 C969 1.487 . S
C967 C964 1.382 . S
C967 C968 1.387 . S
C967 H984 0.930 . S
C968 C966 1.381 . S
C968 C967 1.387 . S
C968 H985 0.931 . S
C969 C962 1.399 . S
C969 C966 1.487 . S
C969 N986 1.343 . S
H970 C942 0.931 . S
H971 C944 0.930 . S
H972 C946 0.930 . S
H973 C947 0.931 . S
H974 C949 0.931 . S
H975 C951 0.930 . S
H976 C953 0.930 . S
H977 C954 0.931 . S
H978 C956 0.931 . S
H979 C958 0.930 . S
H980 C960 0.930 . S
H981 C961 0.931 . S
H982 C963 0.931 . S
H983 C965 0.930 . S
H984 C967 0.930 . S
H985 C968 0.931 . S
N986 C948 1.343 . S
N986 C969 1.343 . S
N987 C955 1.343 . S
N987 C962 1.343 . S
C988 C989 1.384 . S
C988 C990 1.384 . S
C988 H1016 0.931 . S
C989 C988 1.384 . S
C989 C992 1.382 . S
C990 C988 1.384 . S
C990 C991 1.381 . S
C990 H1017 0.930 . S
C991 C990 1.381 . S
C991 C993 1.381 . S
C991 C994 1.487 . S
C992 C989 1.382 . S
C992 C993 1.387 . S
C992 H1018 0.930 . S
C993 C991 1.381 . S
C993 C992 1.387 . S
C993 H1019 0.931 . S
C994 C991 1.487 . S
C994 C1001 1.399 . S
C994 N1032 1.343 . S
C995 C996 1.384 . S
C995 C997 1.384 . S
C995 H1020 0.931 . S
C996 C995 1.384 . S
C996 C999 1.382 . S
C997 C995 1.384 . S
C997 C998 1.381 . S
C997 H1021 0.930 . S
C998 C997 1.381 . S
C998 C1000 1.381 . S
C998 C1001 1.487 . S
C999 C996 1.382 . S
C999 C1000 1.387 . S
C999 H1022 0.930 . S
C1000 C998 1.381 . S
C1000 C999 1.387 . S
C1000 H1023 0.931 . S
C1001 C994 1.399 . S
C1001 C998 1.487 . S
C1001 N1033 1.343 . S
C1002 C1003 1.384 . S
C1002 C1004 1.384 . S
C1002 H1024 0.931 . S
C1003 C1002 1.384 . S
C1003 C1006 1.382 . S
C1004 C1002 1.384 . S
C1004 C1005 1.381 . S
C1004 H1025 0.930 . S
C1005 C1004 1.381 . S
C1005 C1007 1.381 . S
C1005 C1008 1.487 . S
C1006 C1003 1.382 . S
C1006 C1007 1.387 . S
C1006 H1026 0.930 . S
C1007 C1005 1.381 . S
C1007 C1006 1.387 . S
C1007 H1027 0.931 . S
C1008 C1005 1.487 . S
C1008 C1015 1.399 . S
C1008 N1033 1.343 . S
C1009 C1010 1.384 . S
C1009 C1011 1.384 . S
C1009 H1028 0.931 . S
C1010 C1009 1.384 . S
C1010 C1013 1.382 . S
C1011 C1009 1.384 . S
C1011 C1012 1.381 . S
C1011 H1029 0.930 . S
C1012 C1011 1.381 . S
C1012 C1014 1.381 . S
C1012 C1015 1.487 . S
C1013 C1010 1.382 . S
C1013 C1014 1.387 . S
C1013 H1030 0.930 . S
C1014 C1012 1.381 . S
C1014 C1013 1.387 . S
C1014 H1031 0.931 . S
C1015 C1008 1.399 . S
C1015 C1012 1.487 . S
C1015 N1032 1.343 . S
H1016 C988 0.931 . S
H1017 C990 0.930 . S
H1018 C992 0.930 . S
H1019 C993 0.931 . S
H1020 C995 0.931 . S
H1021 C997 0.930 . S
H1022 C999 0.930 . S
H1023 C1000 0.931 . S
H1024 C1002 0.931 . S
H1025 C1004 0.930 . S
H1026 C1006 0.930 . S
H1027 C1007 0.931 . S
H1028 C1009 0.931 . S
H1029 C1011 0.930 . S
H1030 C1013 0.930 . S
H1031 C1014 0.931 . S
N1032 C994 1.343 . S
N1032 C1015 1.343 . S
N1033 C1001 1.343 . S
N1033 C1008 1.343 . S
C1034 C1035 1.384 . S
C1034 C1036 1.384 . S
C1034 H1062 0.931 . S
C1035 C1034 1.384 . S
C1035 C1038 1.382 . S
C1036 C1034 1.384 . S
C1036 C1037 1.381 . S
C1036 H1063 0.930 . S
C1037 C1036 1.381 . S
C1037 C1039 1.381 . S
C1037 C1040 1.487 . S
C1038 C1035 1.382 . S
C1038 C1039 1.387 . S
C1038 H1064 0.930 . S
C1039 C1037 1.381 . S
C1039 C1038 1.387 . S
C1039 H1065 0.931 . S
C1040 C1037 1.487 . S
C1040 C1047 1.399 . S
C1040 N1078 1.343 . S
C1041 C1042 1.384 . S
C1041 C1043 1.384 . S
C1041 H1066 0.931 . S
C1042 C1041 1.384 . S
C1042 C1045 1.382 . S
C1043 C1041 1.384 . S
C1043 C1044 1.381 . S
C1043 H1067 0.930 . S
C1044 C1043 1.381 . S
C1044 C1046 1.381 . S
C1044 C1047 1.487 . S
C1045 C1042 1.382 . S
C1045 C1046 1.387 . S
C1045 H1068 0.930 . S
C1046 C1044 1.381 . S
C1046 C1045 1.387 . S
C1046 H1069 0.931 . S
C1047 C1040 1.399 . S
C1047 C1044 1.487 . S
C1047 N1079 1.343 . S
C1048 C1049 1.384 . S
C1048 C1050 1.384 . S
C1048 H1070 0.931 . S
C1049 C1048 1.384 . S
C1049 C1052 1.382 . S
C1050 C1048 1.384 . S
C1050 C1051 1.381 . S
C1050 H1071 0.930 . S
C1051 C1050 1.381 . S
C1051 C1053 1.381 . S
C1051 C1054 1.487 . S
C1052 C1049 1.382 . S
C1052 C1053 1.387 . S
C1052 H1072 0.930 . S
C1053 C1051 1.381 . S
C1053 C1052 1.387 . S
C1053 H1073 0.931 . S
C1054 C1051 1.487 . S
C1054 C1061 1.399 . S
C1054 N1079 1.343 . S
C1055 C1056 1.384 . S
C1055 C1057 1.384 . S
C1055 H1074 0.931 . S
C1056 C1055 1.384 . S
C1056 C1059 1.382 . S
C1057 C1055 1.384 . S
C1057 C1058 1.381 . S
C1057 H1075 0.930 . S
C1058 C1057 1.381 . S
C1058 C1060 1.381 . S
C1058 C1061 1.487 . S
C1059 C1056 1.382 . S
C1059 C1060 1.387 . S
C1059 H1076 0.930 . S
C1060 C1058 1.381 . S
C1060 C1059 1.387 . S
C1060 H1077 0.931 . S
C1061 C1054 1.399 . S
C1061 C1058 1.487 . S
C1061 N1078 1.343 . S
H1062 C1034 0.931 . S
H1063 C1036 0.930 . S
H1064 C1038 0.930 . S
H1065 C1039 0.931 . S
H1066 C1041 0.931 . S
H1067 C1043 0.930 . S
H1068 C1045 0.930 . S
H1069 C1046 0.931 . S
H1070 C1048 0.931 . S
H1071 C1050 0.930 . S
H1072 C1052 0.930 . S
H1073 C1053 0.931 . S
H1074 C1055 0.931 . S
H1075 C1057 0.930 . S
H1076 C1059 0.930 . S
H1077 C1060 0.931 . S
N1078 C1040 1.343 . S
N1078 C1061 1.343 . S
N1079 C1047 1.343 . S
N1079 C1054 1.343 . S
H1080 C1088 0.950 . S
H1081 C1093 0.997 . S
H1082 C1090 0.950 . S
H1083 C1092 0.953 . S
H1084 C1094 0.950 . S
H1085 C1096 0.964 . S
H1086 C1098 0.950 . S
H1087 C1099 0.950 . S
C1088 H1080 0.950 . S
C1088 C1089 1.386 . S
C1088 C1090 1.391 . S
C1089 C1088 1.386 . S
C1089 C1093 1.393 . S
C1090 H1082 0.950 . S
C1090 C1088 1.391 . S
C1090 C1091 1.400 . S
C1091 C1090 1.400 . S
C1091 C1092 1.398 . S
C1091 C1097 1.491 . S
C1092 H1083 0.953 . S
C1092 C1091 1.398 . S
C1092 C1093 1.391 . S
C1093 H1081 0.997 . S
C1093 C1089 1.393 . S
C1093 C1092 1.391 . S
C1094 H1084 0.950 . S
C1094 C1095 1.386 1_455 S
C1094 C1096 1.384 . S
C1095 C1094 1.386 1_655 S
C1095 C1099 1.393 . S
C1096 H1085 0.964 . S
C1096 C1094 1.384 . S
C1096 C1097 1.394 1_455 S
C1097 C1091 1.491 . S
C1097 C1096 1.394 1_655 S
C1097 C1098 1.398 . S
C1098 H1086 0.950 . S
C1098 C1097 1.398 . S
C1098 C1099 1.391 . S
C1099 H1087 0.950 . S
C1099 C1095 1.393 . S
C1099 C1098 1.391 . S
H1100 C1108 0.950 . S
H1101 C1113 0.950 . S
H1102 C1110 0.950 . S
H1103 C1112 0.950 . S
H1104 C1114 0.950 . S
H1105 C1116 0.950 . S
H1106 C1118 0.950 . S
H1107 C1119 0.950 . S
C1108 H1100 0.950 . S
C1108 C1109 1.386 . S
C1108 C1110 1.391 . S
C1109 C1108 1.386 . S
C1109 C1113 1.393 . S
C1110 H1102 0.950 . S
C1110 C1108 1.391 . S
C1110 C1111 1.400 . S
C1111 C1110 1.400 . S
C1111 C1112 1.398 . S
C1111 C1117 1.491 . S
C1112 H1103 0.950 . S
C1112 C1111 1.398 . S
C1112 C1113 1.391 . S
C1113 H1101 0.950 . S
C1113 C1109 1.393 . S
C1113 C1112 1.391 . S
C1114 H1104 0.950 . S
C1114 C1115 1.386 . S
C1114 C1116 1.391 . S
C1115 C1114 1.386 . S
C1115 C1119 1.393 . S
C1116 H1105 0.950 . S
C1116 C1114 1.391 . S
C1116 C1117 1.400 . S
C1117 C1111 1.491 . S
C1117 C1116 1.400 . S
C1117 C1118 1.398 . S
C1118 H1106 0.950 . S
C1118 C1117 1.398 . S
C1118 C1119 1.391 . S
C1119 H1107 0.950 . S
C1119 C1115 1.393 . S
C1119 C1118 1.391 . S
H1120 C1128 0.950 . S
H1121 C1133 0.950 1_565 S
H1122 C1130 0.950 . S
H1123 C1132 0.950 1_565 S
H1124 C1134 0.950 . S
H1125 C1136 0.940 1_565 S
H1126 C1138 0.950 . S
H1127 C1139 0.950 . S
C1128 H1120 0.950 . S
C1128 C1129 1.386 . S
C1128 C1130 1.391 . S
C1129 C1128 1.386 . S
C1129 C1133 1.393 . S
C1130 H1122 0.950 . S
C1130 C1128 1.391 . S
C1130 C1131 1.400 . S
C1131 C1130 1.400 . S
C1131 C1132 1.398 . S
C1131 C1137 1.491 . S
C1132 H1123 0.950 1_545 S
C1132 C1131 1.398 . S
C1132 C1133 1.391 . S
C1133 H1121 0.950 1_545 S
C1133 C1129 1.393 . S
C1133 C1132 1.391 . S
C1134 H1124 0.950 . S
C1134 C1135 1.386 1_565 S
C1134 C1136 1.380 1_565 S
C1135 C1134 1.386 1_545 S
C1135 C1139 1.393 . S
C1136 H1125 0.940 1_545 S
C1136 C1134 1.380 1_545 S
C1136 C1137 1.422 . S
C1137 C1131 1.491 . S
C1137 C1136 1.422 . S
C1137 C1138 1.398 . S
C1138 H1126 0.950 . S
C1138 C1137 1.398 . S
C1138 C1139 1.391 . S
C1139 H1127 0.950 . S
C1139 C1135 1.393 . S
C1139 C1138 1.391 . S
H1140 C1148 0.958 . S
H1141 C1153 0.950 . S
H1142 C1150 0.950 . S
H1143 C1152 0.950 . S
H1144 C1154 0.950 . S
H1145 C1156 0.950 . S
H1146 C1158 0.950 . S
H1147 C1159 0.950 . S
C1148 H1140 0.958 . S
C1148 C1149 1.401 1_545 S
C1148 C1150 1.371 . S
C1149 C1148 1.401 1_565 S
C1149 C1153 1.393 . S
C1150 H1142 0.950 . S
C1150 C1148 1.371 . S
C1150 C1151 1.400 1_545 S
C1151 C1150 1.400 1_565 S
C1151 C1152 1.398 . S
C1151 C1157 1.491 . S
C1152 H1143 0.950 . S
C1152 C1151 1.398 . S
C1152 C1153 1.391 . S
C1153 H1141 0.950 . S
C1153 C1149 1.393 . S
C1153 C1152 1.391 . S
C1154 H1144 0.950 . S
C1154 C1155 1.386 . S
C1154 C1156 1.391 . S
C1155 C1154 1.386 . S
C1155 C1159 1.393 1_565 S
C1156 H1145 0.950 . S
C1156 C1154 1.391 . S
C1156 C1157 1.400 . S
C1157 C1151 1.491 . S
C1157 C1156 1.400 . S
C1157 C1158 1.398 1_565 S
C1158 H1146 0.950 . S
C1158 C1157 1.398 1_545 S
C1158 C1159 1.391 . S
C1159 H1147 0.950 . S
C1159 C1155 1.393 1_545 S
C1159 C1158 1.391 . S
H1160 C1168 0.950 . S
H1161 C1173 0.950 . S
H1162 C1170 0.950 . S
H1163 C1172 0.950 . S
H1164 C1174 0.950 . S
H1165 C1176 0.950 . S
H1166 C1178 0.950 . S
H1167 C1179 0.950 . S
C1168 H1160 0.950 . S
C1168 C1169 1.386 . S
C1168 C1170 1.391 . S
C1169 C1168 1.386 . S
C1169 C1173 1.393 . S
C1170 H1162 0.950 . S
C1170 C1168 1.391 . S
C1170 C1171 1.400 . S
C1171 C1170 1.400 . S
C1171 C1172 1.398 . S
C1171 C1177 1.491 . S
C1172 H1163 0.950 . S
C1172 C1171 1.398 . S
C1172 C1173 1.391 . S
C1173 H1161 0.950 . S
C1173 C1169 1.393 . S
C1173 C1172 1.391 . S
C1174 H1164 0.950 . S
C1174 C1175 1.386 . S
C1174 C1176 1.391 . S
C1175 C1174 1.386 . S
C1175 C1179 1.393 . S
C1176 H1165 0.950 . S
C1176 C1174 1.391 . S
C1176 C1177 1.400 . S
C1177 C1171 1.491 . S
C1177 C1176 1.400 . S
C1177 C1178 1.398 . S
C1178 H1166 0.950 . S
C1178 C1177 1.398 . S
C1178 C1179 1.391 . S
C1179 H1167 0.950 . S
C1179 C1175 1.393 . S
C1179 C1178 1.391 . S
H1180 C1188 0.950 . S
H1181 C1193 0.950 . S
H1182 C1190 0.950 . S
H1183 C1192 0.950 . S
H1184 C1194 0.950 . S
H1185 C1196 0.950 . S
H1186 C1198 0.950 . S
H1187 C1199 0.950 . S
C1188 H1180 0.950 . S
C1188 C1189 1.386 . S
C1188 C1190 1.391 . S
C1189 C1188 1.386 . S
C1189 C1193 1.393 . S
C1190 H1182 0.950 . S
C1190 C1188 1.391 . S
C1190 C1191 1.400 . S
C1191 C1190 1.400 . S
C1191 C1192 1.398 . S
C1191 C1197 1.491 . S
C1192 H1183 0.950 . S
C1192 C1191 1.398 . S
C1192 C1193 1.391 . S
C1193 H1181 0.950 . S
C1193 C1189 1.393 . S
C1193 C1192 1.391 . S
C1194 H1184 0.950 . S
C1194 C1195 1.386 . S
C1194 C1196 1.391 . S
C1195 C1194 1.386 . S
C1195 C1199 1.393 . S
C1196 H1185 0.950 . S
C1196 C1194 1.391 . S
C1196 C1197 1.400 . S
C1197 C1191 1.491 . S
C1197 C1196 1.400 . S
C1197 C1198 1.398 . S
C1198 H1186 0.950 . S
C1198 C1197 1.398 . S
C1198 C1199 1.391 . S
C1199 H1187 0.950 . S
C1199 C1195 1.393 . S
C1199 C1198 1.391 . S
H1200 C1208 0.950 . S
H1201 C1213 0.950 . S
H1202 C1210 0.950 . S
H1203 C1212 0.950 . S
H1204 C1214 0.950 . S
H1205 C1216 0.950 . S
H1206 C1218 0.950 . S
H1207 C1219 0.950 . S
C1208 H1200 0.950 . S
C1208 C1209 1.386 . S
C1208 C1210 1.391 . S
C1209 C1208 1.386 . S
C1209 C1213 1.393 1_455 S
C1210 H1202 0.950 . S
C1210 C1208 1.391 . S
C1210 C1211 1.400 . S
C1211 C1210 1.400 . S
C1211 C1212 1.398 1_455 S
C1211 C1217 1.491 . S
C1212 H1203 0.950 . S
C1212 C1211 1.398 1_655 S
C1212 C1213 1.391 . S
C1213 H1201 0.950 . S
C1213 C1209 1.393 1_655 S
C1213 C1212 1.391 . S
C1214 H1204 0.950 . S
C1214 C1215 1.386 1_655 S
C1214 C1216 1.391 . S
C1215 C1214 1.386 1_455 S
C1215 C1219 1.393 . S
C1216 H1205 0.950 . S
C1216 C1214 1.391 . S
C1216 C1217 1.400 1_655 S
C1217 C1211 1.491 . S
C1217 C1216 1.400 1_455 S
C1217 C1218 1.398 . S
C1218 H1206 0.950 . S
C1218 C1217 1.398 . S
C1218 C1219 1.391 . S
C1219 H1207 0.950 . S
C1219 C1215 1.393 . S
C1219 C1218 1.391 . S
H1220 C1228 0.950 . S
H1221 C1233 0.950 . S
H1222 C1230 0.950 . S
H1223 C1232 0.950 . S
H1224 C1234 0.950 . S
H1225 C1236 0.950 . S
H1226 C1238 0.950 . S
H1227 C1239 0.950 . S
C1228 H1220 0.950 . S
C1228 C1229 1.386 . S
C1228 C1230 1.391 . S
C1229 C1228 1.386 . S
C1229 C1233 1.393 . S
C1230 H1222 0.950 . S
C1230 C1228 1.391 . S
C1230 C1231 1.400 . S
C1231 C1230 1.400 . S
C1231 C1232 1.398 . S
C1231 C1237 1.491 . S
C1232 H1223 0.950 . S
C1232 C1231 1.398 . S
C1232 C1233 1.391 . S
C1233 H1221 0.950 . S
C1233 C1229 1.393 . S
C1233 C1232 1.391 . S
C1234 H1224 0.950 . S
C1234 C1235 1.386 . S
C1234 C1236 1.391 . S
C1235 C1234 1.386 . S
C1235 C1239 1.393 . S
C1236 H1225 0.950 . S
C1236 C1234 1.391 . S
C1236 C1237 1.400 . S
C1237 C1231 1.491 . S
C1237 C1236 1.400 . S
C1237 C1238 1.398 . S
C1238 H1226 0.950 . S
C1238 C1237 1.398 . S
C1238 C1239 1.391 . S
C1239 H1227 0.950 . S
C1239 C1235 1.393 . S
C1239 C1238 1.391 . S
H1240 C1248 0.950 . S
H1241 C1253 0.950 . S
H1242 C1250 0.950 . S
H1243 C1252 0.950 . S
H1244 C1254 0.950 . S
H1245 C1256 0.950 . S
H1246 C1258 0.950 . S
H1247 C1259 0.950 . S
C1248 H1240 0.950 . S
C1248 C1249 1.386 . S
C1248 C1250 1.391 . S
C1249 C1248 1.386 . S
C1249 C1253 1.393 1_565 S
C1250 H1242 0.950 . S
C1250 C1248 1.391 . S
C1250 C1251 1.400 . S
C1251 C1250 1.400 . S
C1251 C1252 1.398 1_565 S
C1251 C1257 1.491 . S
C1252 H1243 0.950 . S
C1252 C1251 1.398 1_545 S
C1252 C1253 1.391 . S
C1253 H1241 0.950 . S
C1253 C1249 1.393 1_545 S
C1253 C1252 1.391 . S
C1254 H1244 0.950 . S
C1254 C1255 1.386 1_545 S
C1254 C1256 1.391 . S
C1255 C1254 1.386 1_565 S
C1255 C1259 1.393 . S
C1256 H1245 0.950 . S
C1256 C1254 1.391 . S
C1256 C1257 1.400 1_545 S
C1257 C1251 1.491 . S
C1257 C1256 1.400 1_565 S
C1257 C1258 1.398 . S
C1258 H1246 0.950 . S
C1258 C1257 1.398 . S
C1258 C1259 1.391 . S
C1259 H1247 0.950 . S
C1259 C1255 1.393 . S
C1259 C1258 1.391 . S
H1260 C1268 0.950 . S
H1261 C1273 0.950 . S
H1262 C1270 0.950 . S
H1263 C1272 0.950 . S
H1264 C1274 0.950 . S
H1265 C1276 0.950 . S
H1266 C1278 0.950 . S
H1267 C1279 0.950 . S
C1268 H1260 0.950 . S
C1268 C1269 1.386 1_565 S
C1268 C1270 1.391 . S
C1269 C1268 1.386 1_545 S
C1269 C1273 1.393 . S
C1270 H1262 0.950 . S
C1270 C1268 1.391 . S
C1270 C1271 1.400 1_565 S
C1271 C1270 1.400 1_545 S
C1271 C1272 1.398 . S
C1271 C1277 1.491 . S
C1272 H1263 0.950 . S
C1272 C1271 1.398 . S
C1272 C1273 1.391 . S
C1273 H1261 0.950 . S
C1273 C1269 1.393 . S
C1273 C1272 1.391 . S
C1274 H1264 0.950 . S
C1274 C1275 1.386 . S
C1274 C1276 1.391 . S
C1275 C1274 1.386 . S
C1275 C1279 1.393 1_545 S
C1276 H1265 0.950 . S
C1276 C1274 1.391 . S
C1276 C1277 1.400 . S
C1277 C1271 1.491 . S
C1277 C1276 1.400 . S
C1277 C1278 1.398 1_545 S
C1278 H1266 0.950 . S
C1278 C1277 1.398 1_565 S
C1278 C1279 1.391 . S
C1279 H1267 0.950 . S
C1279 C1275 1.393 1_565 S
C1279 C1278 1.391 . S
H1280 C1288 0.933 . S
H1281 C1293 0.950 . S
H1282 C1290 0.944 1_455 S
H1283 C1292 0.950 . S
H1284 C1294 0.950 . S
H1285 C1296 0.950 . S
H1286 C1298 0.944 . S
H1287 C1299 0.950 . S
C1288 H1280 0.933 . S
C1288 C1289 1.386 . S
C1288 C1290 1.391 . S
C1289 C1288 1.386 . S
C1289 C1293 1.393 . S
C1290 H1282 0.944 1_655 S
C1290 C1288 1.391 . S
C1290 C1291 1.400 . S
C1291 C1290 1.400 . S
C1291 C1292 1.398 . S
C1291 C1297 1.491 . S
C1292 H1283 0.950 . S
C1292 C1291 1.398 . S
C1292 C1293 1.391 . S
C1293 H1281 0.950 . S
C1293 C1289 1.393 . S
C1293 C1292 1.391 . S
C1294 H1284 0.950 . S
C1294 C1295 1.386 . S
C1294 C1296 1.391 . S
C1295 C1294 1.386 . S
C1295 C1299 1.393 1_655 S
C1296 H1285 0.950 . S
C1296 C1294 1.391 . S
C1296 C1297 1.400 . S
C1297 C1291 1.491 . S
C1297 C1296 1.400 . S
C1297 C1298 1.394 1_655 S
C1298 H1286 0.944 . S
C1298 C1297 1.394 1_455 S
C1298 C1299 1.402 . S
C1299 H1287 0.950 . S
C1299 C1295 1.393 1_455 S
C1299 C1298 1.402 . S
H1300 C1308 0.950 . S
H1301 C1313 0.950 . S
H1302 C1310 0.950 . S
H1303 C1312 0.950 . S
H1304 C1314 0.950 . S
H1305 C1316 0.950 . S
H1306 C1318 0.950 . S
H1307 C1319 0.950 . S
C1308 H1300 0.950 . S
C1308 C1309 1.386 . S
C1308 C1310 1.391 . S
C1309 C1308 1.386 . S
C1309 C1313 1.393 . S
C1310 H1302 0.950 . S
C1310 C1308 1.391 . S
C1310 C1311 1.400 . S
C1311 C1310 1.400 . S
C1311 C1312 1.398 . S
C1311 C1317 1.491 . S
C1312 H1303 0.950 . S
C1312 C1311 1.398 . S
C1312 C1313 1.391 . S
C1313 H1301 0.950 . S
C1313 C1309 1.393 . S
C1313 C1312 1.391 . S
C1314 H1304 0.950 . S
C1314 C1315 1.386 . S
C1314 C1316 1.391 . S
C1315 C1314 1.386 . S
C1315 C1319 1.393 . S
C1316 H1305 0.950 . S
C1316 C1314 1.391 . S
C1316 C1317 1.400 . S
C1317 C1311 1.491 . S
C1317 C1316 1.400 . S
C1317 C1318 1.398 . S
C1318 H1306 0.950 . S
C1318 C1317 1.398 . S
C1318 C1319 1.391 . S
C1319 H1307 0.950 . S
C1319 C1315 1.393 . S
C1319 C1318 1.391 . S
H1320 C1328 0.950 . S
H1321 C1333 0.950 . S
H1322 C1330 0.950 . S
H1323 C1332 0.950 . S
H1324 C1334 0.950 . S
H1325 C1336 0.950 . S
H1326 C1338 0.950 . S
H1327 C1339 0.950 . S
C1328 H1320 0.950 . S
C1328 C1329 1.386 . S
C1328 C1330 1.391 . S
C1329 C1328 1.386 . S
C1329 C1333 1.393 . S
C1330 H1322 0.950 . S
C1330 C1328 1.391 . S
C1330 C1331 1.400 . S
C1331 C1330 1.400 . S
C1331 C1332 1.398 . S
C1331 C1337 1.491 . S
C1332 H1323 0.950 . S
C1332 C1331 1.398 . S
C1332 C1333 1.391 . S
C1333 H1321 0.950 . S
C1333 C1329 1.393 . S
C1333 C1332 1.391 . S
C1334 H1324 0.950 . S
C1334 C1335 1.386 . S
C1334 C1336 1.391 . S
C1335 C1334 1.386 . S
C1335 C1339 1.393 . S
C1336 H1325 0.950 . S
C1336 C1334 1.391 . S
C1336 C1337 1.400 . S
C1337 C1331 1.491 . S
C1337 C1336 1.400 . S
C1337 C1338 1.398 . S
C1338 H1326 0.950 . S
C1338 C1337 1.398 . S
C1338 C1339 1.391 . S
C1339 H1327 0.950 . S
C1339 C1335 1.393 . S
C1339 C1338 1.391 . S
H1340 C1348 0.950 . S
H1341 C1353 0.950 . S
H1342 C1350 0.950 . S
H1343 C1352 0.950 . S
H1344 C1354 0.950 . S
H1345 C1356 0.950 . S
H1346 C1358 0.950 . S
H1347 C1359 0.950 . S
C1348 H1340 0.950 . S
C1348 C1349 1.386 . S
C1348 C1350 1.391 . S
C1349 C1348 1.386 . S
C1349 C1353 1.393 . S
C1350 H1342 0.950 . S
C1350 C1348 1.391 . S
C1350 C1351 1.400 . S
C1351 C1350 1.400 . S
C1351 C1352 1.398 . S
C1351 C1357 1.491 . S
C1352 H1343 0.950 . S
C1352 C1351 1.398 . S
C1352 C1353 1.391 . S
C1353 H1341 0.950 . S
C1353 C1349 1.393 . S
C1353 C1352 1.391 . S
C1354 H1344 0.950 . S
C1354 C1355 1.386 . S
C1354 C1356 1.391 . S
C1355 C1354 1.386 . S
C1355 C1359 1.393 . S
C1356 H1345 0.950 . S
C1356 C1354 1.391 . S
C1356 C1357 1.400 . S
C1357 C1351 1.491 . S
C1357 C1356 1.400 . S
C1357 C1358 1.398 . S
C1358 H1346 0.950 . S
C1358 C1357 1.398 . S
C1358 C1359 1.391 . S
C1359 H1347 0.950 . S
C1359 C1355 1.393 . S
C1359 C1358 1.391 . S
H1360 C1368 0.950 . S
H1361 C1373 0.950 . S
H1362 C1370 0.950 . S
H1363 C1372 0.950 . S
H1364 C1374 0.950 . S
H1365 C1376 0.950 . S
H1366 C1378 0.950 . S
H1367 C1379 0.950 . S
C1368 H1360 0.950 . S
C1368 C1369 1.386 . S
C1368 C1370 1.391 . S
C1369 C1368 1.386 . S
C1369 C1373 1.393 . S
C1370 H1362 0.950 . S
C1370 C1368 1.391 . S
C1370 C1371 1.400 . S
C1371 C1370 1.400 . S
C1371 C1372 1.398 . S
C1371 C1377 1.491 . S
C1372 H1363 0.950 . S
C1372 C1371 1.398 . S
C1372 C1373 1.391 . S
C1373 H1361 0.950 . S
C1373 C1369 1.393 . S
C1373 C1372 1.391 . S
C1374 H1364 0.950 . S
C1374 C1375 1.386 . S
C1374 C1376 1.391 . S
C1375 C1374 1.386 . S
C1375 C1379 1.393 . S
C1376 H1365 0.950 . S
C1376 C1374 1.391 . S
C1376 C1377 1.400 . S
C1377 C1371 1.491 . S
C1377 C1376 1.400 . S
C1377 C1378 1.398 . S
C1378 H1366 0.950 . S
C1378 C1377 1.398 . S
C1378 C1379 1.391 . S
C1379 H1367 0.950 . S
C1379 C1375 1.393 . S
C1379 C1378 1.391 . S
H1380 C1388 0.950 . S
H1381 C1393 0.950 . S
H1382 C1390 0.950 . S
H1383 C1392 0.950 . S
H1384 C1394 0.950 . S
H1385 C1396 0.950 . S
H1386 C1398 0.950 . S
H1387 C1399 0.950 . S
C1388 H1380 0.950 . S
C1388 C1389 1.386 . S
C1388 C1390 1.391 . S
C1389 C1388 1.386 . S
C1389 C1393 1.393 . S
C1390 H1382 0.950 . S
C1390 C1388 1.391 . S
C1390 C1391 1.400 . S
C1391 C1390 1.400 . S
C1391 C1392 1.398 . S
C1391 C1397 1.491 . S
C1392 H1383 0.950 . S
C1392 C1391 1.398 . S
C1392 C1393 1.391 . S
C1393 H1381 0.950 . S
C1393 C1389 1.393 . S
C1393 C1392 1.391 . S
C1394 H1384 0.950 . S
C1394 C1395 1.386 . S
C1394 C1396 1.391 . S
C1395 C1394 1.386 . S
C1395 C1399 1.393 . S
C1396 H1385 0.950 . S
C1396 C1394 1.391 . S
C1396 C1397 1.400 . S
C1397 C1391 1.491 . S
C1397 C1396 1.400 . S
C1397 C1398 1.398 . S
C1398 H1386 0.950 . S
C1398 C1397 1.398 . S
C1398 C1399 1.391 . S
C1399 H1387 0.950 . S
C1399 C1395 1.393 . S
C1399 C1398 1.391 . S
H1400 C1408 0.950 . S
H1401 C1413 0.950 . S
H1402 C1410 0.950 . S
H1403 C1412 0.950 . S
H1404 C1414 0.950 . S
H1405 C1416 0.950 . S
H1406 C1418 0.950 . S
H1407 C1419 0.950 . S
C1408 H1400 0.950 . S
C1408 C1409 1.386 . S
C1408 C1410 1.391 . S
C1409 C1408 1.386 . S
C1409 C1413 1.393 . S
C1410 H1402 0.950 . S
C1410 C1408 1.391 . S
C1410 C1411 1.400 . S
C1411 C1410 1.400 . S
C1411 C1412 1.398 . S
C1411 C1417 1.491 . S
C1412 H1403 0.950 . S
C1412 C1411 1.398 . S
C1412 C1413 1.391 . S
C1413 H1401 0.950 . S
C1413 C1409 1.393 . S
C1413 C1412 1.391 . S
C1414 H1404 0.950 . S
C1414 C1415 1.386 . S
C1414 C1416 1.391 . S
C1415 C1414 1.386 . S
C1415 C1419 1.393 . S
C1416 H1405 0.950 . S
C1416 C1414 1.391 . S
C1416 C1417 1.400 . S
C1417 C1411 1.491 . S
C1417 C1416 1.400 . S
C1417 C1418 1.398 . S
C1418 H1406 0.950 . S
C1418 C1417 1.398 . S
C1418 C1419 1.391 . S
C1419 H1407 0.950 . S
C1419 C1415 1.393 . S
C1419 C1418 1.391 . S
H1420 C1428 0.950 . S
H1421 C1433 0.950 . S
H1422 C1430 0.950 . S
H1423 C1432 0.950 . S
H1424 C1434 0.950 . S
H1425 C1436 0.950 . S
H1426 C1438 0.950 . S
H1427 C1439 0.950 . S
C1428 H1420 0.950 . S
C1428 C1429 1.386 . S
C1428 C1430 1.391 . S
C1429 C1428 1.386 . S
C1429 C1433 1.393 . S
C1430 H1422 0.950 . S
C1430 C1428 1.391 . S
C1430 C1431 1.400 . S
C1431 C1430 1.400 . S
C1431 C1432 1.398 . S
C1431 C1437 1.491 . S
C1432 H1423 0.950 . S
C1432 C1431 1.398 . S
C1432 C1433 1.391 . S
C1433 H1421 0.950 . S
C1433 C1429 1.393 . S
C1433 C1432 1.391 . S
C1434 H1424 0.950 . S
C1434 C1435 1.386 . S
C1434 C1436 1.391 . S
C1435 C1434 1.386 . S
C1435 C1439 1.393 . S
C1436 H1425 0.950 . S
C1436 C1434 1.391 . S
C1436 C1437 1.400 . S
C1437 C1431 1.491 . S
C1437 C1436 1.400 . S
C1437 C1438 1.398 . S
C1438 H1426 0.950 . S
C1438 C1437 1.398 . S
C1438 C1439 1.391 . S
C1439 H1427 0.950 . S
C1439 C1435 1.393 . S
C1439 C1438 1.391 . S
H1440 C1448 0.950 . S
H1441 C1453 0.950 . S
H1442 C1450 0.950 . S
H1443 C1452 0.950 . S
H1444 C1454 0.950 . S
H1445 C1456 0.950 . S
H1446 C1458 0.950 . S
H1447 C1459 0.950 . S
C1448 H1440 0.950 . S
C1448 C1449 1.386 . S
C1448 C1450 1.391 . S
C1449 C1448 1.386 . S
C1449 C1453 1.393 . S
C1450 H1442 0.950 . S
C1450 C1448 1.391 . S
C1450 C1451 1.400 . S
C1451 C1450 1.400 . S
C1451 C1452 1.398 . S
C1451 C1457 1.491 . S
C1452 H1443 0.950 . S
C1452 C1451 1.398 . S
C1452 C1453 1.391 . S
C1453 H1441 0.950 . S
C1453 C1449 1.393 . S
C1453 C1452 1.391 . S
C1454 H1444 0.950 . S
C1454 C1455 1.386 . S
C1454 C1456 1.391 . S
C1455 C1454 1.386 . S
C1455 C1459 1.393 . S
C1456 H1445 0.950 . S
C1456 C1454 1.391 . S
C1456 C1457 1.400 . S
C1457 C1451 1.491 . S
C1457 C1456 1.400 . S
C1457 C1458 1.398 . S
C1458 H1446 0.950 . S
C1458 C1457 1.398 . S
C1458 C1459 1.391 . S
C1459 H1447 0.950 . S
C1459 C1455 1.393 . S
C1459 C1458 1.391 . S
H1460 C1468 0.950 . S
H1461 C1473 0.950 . S
H1462 C1470 0.950 . S
H1463 C1472 0.950 . S
H1464 C1474 0.950 . S
H1465 C1476 0.950 . S
H1466 C1478 0.950 . S
H1467 C1479 0.950 . S
C1468 H1460 0.950 . S
C1468 C1469 1.386 . S
C1468 C1470 1.391 . S
C1469 C1468 1.386 . S
C1469 C1473 1.393 . S
C1470 H1462 0.950 . S
C1470 C1468 1.391 . S
C1470 C1471 1.400 . S
C1471 C1470 1.400 . S
C1471 C1472 1.398 . S
C1471 C1477 1.491 . S
C1472 H1463 0.950 . S
C1472 C1471 1.398 . S
C1472 C1473 1.391 . S
C1473 H1461 0.950 . S
C1473 C1469 1.393 . S
C1473 C1472 1.391 . S
C1474 H1464 0.950 . S
C1474 C1475 1.386 . S
C1474 C1476 1.391 . S
C1475 C1474 1.386 . S
C1475 C1479 1.393 . S
C1476 H1465 0.950 . S
C1476 C1474 1.391 . S
C1476 C1477 1.400 . S
C1477 C1471 1.491 . S
C1477 C1476 1.400 . S
C1477 C1478 1.398 . S
C1478 H1466 0.950 . S
C1478 C1477 1.398 . S
C1478 C1479 1.391 . S
C1479 H1467 0.950 . S
C1479 C1475 1.393 . S
C1479 C1478 1.391 . S
H1480 C1488 0.950 . S
H1481 C1493 0.950 . S
H1482 C1490 0.950 . S
H1483 C1492 0.950 . S
H1484 C1494 0.950 . S
H1485 C1496 0.950 . S
H1486 C1498 0.950 . S
H1487 C1499 0.950 . S
C1488 H1480 0.950 . S
C1488 C1489 1.386 . S
C1488 C1490 1.391 . S
C1489 C1488 1.386 . S
C1489 C1493 1.393 . S
C1490 H1482 0.950 . S
C1490 C1488 1.391 . S
C1490 C1491 1.400 . S
C1491 C1490 1.400 . S
C1491 C1492 1.398 . S
C1491 C1497 1.491 . S
C1492 H1483 0.950 . S
C1492 C1491 1.398 . S
C1492 C1493 1.391 . S
C1493 H1481 0.950 . S
C1493 C1489 1.393 . S
C1493 C1492 1.391 . S
C1494 H1484 0.950 . S
C1494 C1495 1.386 . S
C1494 C1496 1.391 . S
C1495 C1494 1.386 . S
C1495 C1499 1.393 . S
C1496 H1485 0.950 . S
C1496 C1494 1.391 . S
C1496 C1497 1.400 . S
C1497 C1491 1.491 . S
C1497 C1496 1.400 . S
C1497 C1498 1.398 . S
C1498 H1486 0.950 . S
C1498 C1497 1.398 . S
C1498 C1499 1.391 . S
C1499 H1487 0.950 . S
C1499 C1495 1.393 . S
C1499 C1498 1.391 . S
H1500 C1508 0.950 . S
H1501 C1513 0.950 . S
H1502 C1510 0.950 . S
H1503 C1512 0.950 . S
H1504 C1514 0.950 . S
H1505 C1516 0.950 . S
H1506 C1518 0.950 . S
H1507 C1519 0.950 . S
C1508 H1500 0.950 . S
C1508 C1509 1.386 . S
C1508 C1510 1.391 . S
C1509 C1508 1.386 . S
C1509 C1513 1.393 . S
C1510 H1502 0.950 . S
C1510 C1508 1.391 . S
C1510 C1511 1.400 . S
C1511 C1510 1.400 . S
C1511 C1512 1.398 . S
C1511 C1517 1.491 . S
C1512 H1503 0.950 . S
C1512 C1511 1.398 . S
C1512 C1513 1.391 . S
C1513 H1501 0.950 . S
C1513 C1509 1.393 . S
C1513 C1512 1.391 . S
C1514 H1504 0.950 . S
C1514 C1515 1.386 . S
C1514 C1516 1.391 . S
C1515 C1514 1.386 . S
C1515 C1519 1.393 . S
C1516 H1505 0.950 . S
C1516 C1514 1.391 . S
C1516 C1517 1.400 . S
C1517 C1511 1.491 . S
C1517 C1516 1.400 . S
C1517 C1518 1.398 . S
C1518 H1506 0.950 . S
C1518 C1517 1.398 . S
C1518 C1519 1.391 . S
C1519 H1507 0.950 . S
C1519 C1515 1.393 . S
C1519 C1518 1.391 . S
H1520 C1528 0.950 . S
H1521 C1533 0.950 . S
H1522 C1530 0.950 . S
H1523 C1532 0.950 . S
H1524 C1534 0.950 . S
H1525 C1536 0.950 . S
H1526 C1538 0.950 . S
H1527 C1539 0.950 . S
C1528 H1520 0.950 . S
C1528 C1529 1.386 . S
C1528 C1530 1.391 . S
C1529 C1528 1.386 . S
C1529 C1533 1.393 . S
C1530 H1522 0.950 . S
C1530 C1528 1.391 . S
C1530 C1531 1.400 . S
C1531 C1530 1.400 . S
C1531 C1532 1.398 . S
C1531 C1537 1.491 . S
C1532 H1523 0.950 . S
C1532 C1531 1.398 . S
C1532 C1533 1.391 . S
C1533 H1521 0.950 . S
C1533 C1529 1.393 . S
C1533 C1532 1.391 . S
C1534 H1524 0.950 . S
C1534 C1535 1.386 . S
C1534 C1536 1.391 . S
C1535 C1534 1.386 . S
C1535 C1539 1.393 . S
C1536 H1525 0.950 . S
C1536 C1534 1.391 . S
C1536 C1537 1.400 . S
C1537 C1531 1.491 . S
C1537 C1536 1.400 . S
C1537 C1538 1.398 . S
C1538 H1526 0.950 . S
C1538 C1537 1.398 . S
C1538 C1539 1.391 . S
C1539 H1527 0.950 . S
C1539 C1535 1.393 . S
C1539 C1538 1.391 . S
H1540 C1548 0.950 . S
H1541 C1553 0.950 . S
H1542 C1550 0.950 . S
H1543 C1552 0.950 . S
H1544 C1554 0.950 . S
H1545 C1556 0.950 . S
H1546 C1558 0.950 . S
H1547 C1559 0.950 . S
C1548 H1540 0.950 . S
C1548 C1549 1.386 . S
C1548 C1550 1.391 . S
C1549 C1548 1.386 . S
C1549 C1553 1.393 . S
C1550 H1542 0.950 . S
C1550 C1548 1.391 . S
C1550 C1551 1.400 . S
C1551 C1550 1.400 . S
C1551 C1552 1.398 . S
C1551 C1557 1.491 . S
C1552 H1543 0.950 . S
C1552 C1551 1.398 . S
C1552 C1553 1.391 . S
C1553 H1541 0.950 . S
C1553 C1549 1.393 . S
C1553 C1552 1.391 . S
C1554 H1544 0.950 . S
C1554 C1555 1.386 . S
C1554 C1556 1.391 . S
C1555 C1554 1.386 . S
C1555 C1559 1.393 . S
C1556 H1545 0.950 . S
C1556 C1554 1.391 . S
C1556 C1557 1.400 . S
C1557 C1551 1.491 . S
C1557 C1556 1.400 . S
C1557 C1558 1.398 . S
C1558 H1546 0.950 . S
C1558 C1557 1.398 . S
C1558 C1559 1.391 . S
C1559 H1547 0.950 . S
C1559 C1555 1.393 . S
C1559 C1558 1.391 . S
H1560 C1568 0.950 . S
H1561 C1573 0.950 . S
H1562 C1570 0.950 . S
H1563 C1572 0.950 . S
H1564 C1574 0.950 . S
H1565 C1576 0.950 . S
H1566 C1578 0.950 . S
H1567 C1579 0.950 . S
C1568 H1560 0.950 . S
C1568 C1569 1.386 . S
C1568 C1570 1.391 . S
C1569 C1568 1.386 . S
C1569 C1573 1.393 . S
C1570 H1562 0.950 . S
C1570 C1568 1.391 . S
C1570 C1571 1.400 . S
C1571 C1570 1.400 . S
C1571 C1572 1.398 . S
C1571 C1577 1.491 . S
C1572 H1563 0.950 . S
C1572 C1571 1.398 . S
C1572 C1573 1.391 . S
C1573 H1561 0.950 . S
C1573 C1569 1.393 . S
C1573 C1572 1.391 . S
C1574 H1564 0.950 . S
C1574 C1575 1.386 . S
C1574 C1576 1.391 . S
C1575 C1574 1.386 . S
C1575 C1579 1.393 . S
C1576 H1565 0.950 . S
C1576 C1574 1.391 . S
C1576 C1577 1.400 . S
C1577 C1571 1.491 . S
C1577 C1576 1.400 . S
C1577 C1578 1.398 . S
C1578 H1566 0.950 . S
C1578 C1577 1.398 . S
C1578 C1579 1.391 . S
C1579 H1567 0.950 . S
C1579 C1575 1.393 . S
C1579 C1578 1.391 . S
H1580 C1588 0.950 . S
H1581 C1593 0.950 . S
H1582 C1590 0.950 . S
H1583 C1592 0.950 . S
H1584 C1594 0.950 . S
H1585 C1596 0.950 . S
H1586 C1598 0.950 . S
H1587 C1599 0.950 . S
C1588 H1580 0.950 . S
C1588 C1589 1.386 . S
C1588 C1590 1.391 . S
C1589 C1588 1.386 . S
C1589 C1593 1.393 . S
C1590 H1582 0.950 . S
C1590 C1588 1.391 . S
C1590 C1591 1.400 . S
C1591 C1590 1.400 . S
C1591 C1592 1.398 . S
C1591 C1597 1.491 . S
C1592 H1583 0.950 . S
C1592 C1591 1.398 . S
C1592 C1593 1.391 . S
C1593 H1581 0.950 . S
C1593 C1589 1.393 . S
C1593 C1592 1.391 . S
C1594 H1584 0.950 . S
C1594 C1595 1.386 . S
C1594 C1596 1.391 . S
C1595 C1594 1.386 . S
C1595 C1599 1.393 . S
C1596 H1585 0.950 . S
C1596 C1594 1.391 . S
C1596 C1597 1.400 . S
C1597 C1591 1.491 . S
C1597 C1596 1.400 . S
C1597 C1598 1.398 . S
C1598 H1586 0.950 . S
C1598 C1597 1.398 . S
C1598 C1599 1.391 . S
C1599 H1587 0.950 . S
C1599 C1595 1.393 . S
C1599 C1598 1.391 . S
H1600 C1608 0.950 . S
H1601 C1613 0.950 . S
H1602 C1610 0.950 . S
H1603 C1612 0.950 . S
H1604 C1614 0.950 . S
H1605 C1616 0.950 . S
H1606 C1618 0.950 . S
H1607 C1619 0.950 . S
C1608 H1600 0.950 . S
C1608 C1609 1.386 . S
C1608 C1610 1.391 . S
C1609 C1608 1.386 . S
C1609 C1613 1.393 . S
C1610 H1602 0.950 . S
C1610 C1608 1.391 . S
C1610 C1611 1.400 . S
C1611 C1610 1.400 . S
C1611 C1612 1.398 . S
C1611 C1617 1.491 . S
C1612 H1603 0.950 . S
C1612 C1611 1.398 . S
C1612 C1613 1.391 . S
C1613 H1601 0.950 . S
C1613 C1609 1.393 . S
C1613 C1612 1.391 . S
C1614 H1604 0.950 . S
C1614 C1615 1.386 . S
C1614 C1616 1.391 . S
C1615 C1614 1.386 . S
C1615 C1619 1.393 . S
C1616 H1605 0.950 . S
C1616 C1614 1.391 . S
C1616 C1617 1.400 . S
C1617 C1611 1.491 . S
C1617 C1616 1.400 . S
C1617 C1618 1.398 . S
C1618 H1606 0.950 . S
C1618 C1617 1.398 . S
C1618 C1619 1.391 . S
C1619 H1607 0.950 . S
C1619 C1615 1.393 . S
C1619 C1618 1.391 . S
H1620 C1628 0.950 . S
H1621 C1633 0.950 . S
H1622 C1630 0.950 . S
H1623 C1632 0.950 . S
H1624 C1634 0.950 . S
H1625 C1636 0.950 . S
H1626 C1638 0.950 . S
H1627 C1639 0.950 . S
C1628 H1620 0.950 . S
C1628 C1629 1.386 . S
C1628 C1630 1.391 . S
C1629 C1628 1.386 . S
C1629 C1633 1.393 . S
C1630 H1622 0.950 . S
C1630 C1628 1.391 . S
C1630 C1631 1.400 . S
C1631 C1630 1.400 . S
C1631 C1632 1.398 . S
C1631 C1637 1.491 . S
C1632 H1623 0.950 . S
C1632 C1631 1.398 . S
C1632 C1633 1.391 . S
C1633 H1621 0.950 . S
C1633 C1629 1.393 . S
C1633 C1632 1.391 . S
C1634 H1624 0.950 . S
C1634 C1635 1.386 . S
C1634 C1636 1.391 . S
C1635 C1634 1.386 . S
C1635 C1639 1.393 . S
C1636 H1625 0.950 . S
C1636 C1634 1.391 . S
C1636 C1637 1.400 . S
C1637 C1631 1.491 . S
C1637 C1636 1.400 . S
C1637 C1638 1.398 . S
C1638 H1626 0.950 . S
C1638 C1637 1.398 . S
C1638 C1639 1.391 . S
C1639 H1627 0.950 . S
C1639 C1635 1.393 . S
C1639 C1638 1.391 . S
H1640 C1648 0.950 . S
H1641 C1653 0.950 . S
H1642 C1650 0.950 . S
H1643 C1652 0.950 . S
H1644 C1654 0.950 . S
H1645 C1656 0.950 . S
H1646 C1658 0.950 . S
H1647 C1659 0.950 . S
C1648 H1640 0.950 . S
C1648 C1649 1.386 . S
C1648 C1650 1.391 . S
C1649 C1648 1.386 . S
C1649 C1653 1.393 . S
C1650 H1642 0.950 . S
C1650 C1648 1.391 . S
C1650 C1651 1.400 . S
C1651 C1650 1.400 . S
C1651 C1652 1.398 . S
C1651 C1657 1.491 . S
C1652 H1643 0.950 . S
C1652 C1651 1.398 . S
C1652 C1653 1.391 . S
C1653 H1641 0.950 . S
C1653 C1649 1.393 . S
C1653 C1652 1.391 . S
C1654 H1644 0.950 . S
C1654 C1655 1.386 . S
C1654 C1656 1.391 . S
C1655 C1654 1.386 . S
C1655 C1659 1.393 . S
C1656 H1645 0.950 . S
C1656 C1654 1.391 . S
C1656 C1657 1.400 . S
C1657 C1651 1.491 . S
C1657 C1656 1.400 . S
C1657 C1658 1.398 . S
C1658 H1646 0.950 . S
C1658 C1657 1.398 . S
C1658 C1659 1.391 . S
C1659 H1647 0.950 . S
C1659 C1655 1.393 . S
C1659 C1658 1.391 . S
H1660 C1668 0.950 . S
H1661 C1673 0.950 . S
H1662 C1670 0.950 . S
H1663 C1672 0.950 . S
H1664 C1674 0.950 . S
H1665 C1676 0.950 . S
H1666 C1678 0.950 . S
H1667 C1679 0.950 . S
C1668 H1660 0.950 . S
C1668 C1669 1.386 . S
C1668 C1670 1.391 . S
C1669 C1668 1.386 . S
C1669 C1673 1.393 . S
C1670 H1662 0.950 . S
C1670 C1668 1.391 . S
C1670 C1671 1.400 . S
C1671 C1670 1.400 . S
C1671 C1672 1.398 . S
C1671 C1677 1.491 . S
C1672 H1663 0.950 . S
C1672 C1671 1.398 . S
C1672 C1673 1.391 . S
C1673 H1661 0.950 . S
C1673 C1669 1.393 . S
C1673 C1672 1.391 . S
C1674 H1664 0.950 . S
C1674 C1675 1.386 . S
C1674 C1676 1.391 . S
C1675 C1674 1.386 . S
C1675 C1679 1.393 . S
C1676 H1665 0.950 . S
C1676 C1674 1.391 . S
C1676 C1677 1.400 . S
C1677 C1671 1.491 . S
C1677 C1676 1.400 . S
C1677 C1678 1.398 . S
C1678 H1666 0.950 . S
C1678 C1677 1.398 . S
C1678 C1679 1.391 . S
C1679 H1667 0.950 . S
C1679 C1675 1.393 . S
C1679 C1678 1.391 . S
H1680 C1688 0.950 . S
H1681 C1693 0.950 . S
H1682 C1690 0.950 . S
H1683 C1692 0.950 . S
H1684 C1694 0.950 . S
H1685 C1696 0.950 . S
H1686 C1698 0.950 . S
H1687 C1699 0.950 . S
C1688 H1680 0.950 . S
C1688 C1689 1.386 . S
C1688 C1690 1.391 . S
C1689 C1688 1.386 . S
C1689 C1693 1.393 . S
C1690 H1682 0.950 . S
C1690 C1688 1.391 . S
C1690 C1691 1.400 . S
C1691 C1690 1.400 . S
C1691 C1692 1.398 . S
C1691 C1697 1.491 . S
C1692 H1683 0.950 . S
C1692 C1691 1.398 . S
C1692 C1693 1.391 . S
C1693 H1681 0.950 . S
C1693 C1689 1.393 . S
C1693 C1692 1.391 . S
C1694 H1684 0.950 . S
C1694 C1695 1.386 . S
C1694 C1696 1.391 . S
C1695 C1694 1.386 . S
C1695 C1699 1.393 . S
C1696 H1685 0.950 . S
C1696 C1694 1.391 . S
C1696 C1697 1.400 . S
C1697 C1691 1.491 . S
C1697 C1696 1.400 . S
C1697 C1698 1.398 . S
C1698 H1686 0.950 . S
C1698 C1697 1.398 . S
C1698 C1699 1.391 . S
C1699 H1687 0.950 . S
C1699 C1695 1.393 . S
C1699 C1698 1.391 . S
H1700 C1708 0.950 . S
H1701 C1713 0.950 . S
H1702 C1710 0.950 . S
H1703 C1712 0.950 . S
H1704 C1714 0.950 . S
H1705 C1716 0.950 . S
H1706 C1718 0.950 . S
H1707 C1719 0.950 . S
C1708 H1700 0.950 . S
C1708 C1709 1.386 . S
C1708 C1710 1.391 . S
C1709 C1708 1.386 . S
C1709 C1713 1.393 . S
C1710 H1702 0.950 . S
C1710 C1708 1.391 . S
C1710 C1711 1.400 . S
C1711 C1710 1.400 . S
C1711 C1712 1.398 . S
C1711 C1717 1.491 . S
C1712 H1703 0.950 . S
C1712 C1711 1.398 . S
C1712 C1713 1.391 . S
C1713 H1701 0.950 . S
C1713 C1709 1.393 . S
C1713 C1712 1.391 . S
C1714 H1704 0.950 . S
C1714 C1715 1.386 . S
C1714 C1716 1.391 . S
C1715 C1714 1.386 . S
C1715 C1719 1.393 . S
C1716 H1705 0.950 . S
C1716 C1714 1.391 . S
C1716 C1717 1.400 . S
C1717 C1711 1.491 . S
C1717 C1716 1.400 . S
C1717 C1718 1.398 . S
C1718 H1706 0.950 . S
C1718 C1717 1.398 . S
C1718 C1719 1.391 . S
C1719 H1707 0.950 . S
C1719 C1715 1.393 . S
C1719 C1718 1.391 . S
H1720 C1728 0.950 . S
H1721 C1733 0.950 . S
H1722 C1730 0.950 . S
H1723 C1732 0.950 . S
H1724 C1734 0.950 . S
H1725 C1736 0.950 . S
H1726 C1738 0.950 . S
H1727 C1739 0.950 . S
C1728 H1720 0.950 . S
C1728 C1729 1.386 . S
C1728 C1730 1.391 . S
C1729 C1728 1.386 . S
C1729 C1733 1.393 . S
C1730 H1722 0.950 . S
C1730 C1728 1.391 . S
C1730 C1731 1.400 . S
C1731 C1730 1.400 . S
C1731 C1732 1.398 . S
C1731 C1737 1.491 . S
C1732 H1723 0.950 . S
C1732 C1731 1.398 . S
C1732 C1733 1.391 . S
C1733 H1721 0.950 . S
C1733 C1729 1.393 . S
C1733 C1732 1.391 . S
C1734 H1724 0.950 . S
C1734 C1735 1.386 . S
C1734 C1736 1.391 . S
C1735 C1734 1.386 . S
C1735 C1739 1.393 . S
C1736 H1725 0.950 . S
C1736 C1734 1.391 . S
C1736 C1737 1.400 . S
C1737 C1731 1.491 . S
C1737 C1736 1.400 . S
C1737 C1738 1.398 . S
C1738 H1726 0.950 . S
C1738 C1737 1.398 . S
C1738 C1739 1.391 . S
C1739 H1727 0.950 . S
C1739 C1735 1.393 . S
C1739 C1738 1.391 . S
H1740 C1748 0.950 . S
H1741 C1753 0.950 . S
H1742 C1750 0.950 . S
H1743 C1752 0.950 . S
H1744 C1754 0.950 . S
H1745 C1756 0.950 . S
H1746 C1758 0.950 . S
H1747 C1759 0.950 . S
C1748 H1740 0.950 . S
C1748 C1749 1.386 . S
C1748 C1750 1.391 . S
C1749 C1748 1.386 . S
C1749 C1753 1.393 . S
C1750 H1742 0.950 . S
C1750 C1748 1.391 . S
C1750 C1751 1.400 . S
C1751 C1750 1.400 . S
C1751 C1752 1.398 . S
C1751 C1757 1.491 . S
C1752 H1743 0.950 . S
C1752 C1751 1.398 . S
C1752 C1753 1.391 . S
C1753 H1741 0.950 . S
C1753 C1749 1.393 . S
C1753 C1752 1.391 . S
C1754 H1744 0.950 . S
C1754 C1755 1.386 . S
C1754 C1756 1.391 . S
C1755 C1754 1.386 . S
C1755 C1759 1.393 . S
C1756 H1745 0.950 . S
C1756 C1754 1.391 . S
C1756 C1757 1.400 . S
C1757 C1751 1.491 . S
C1757 C1756 1.400 . S
C1757 C1758 1.398 . S
C1758 H1746 0.950 . S
C1758 C1757 1.398 . S
C1758 C1759 1.391 . S
C1759 H1747 0.950 . S
C1759 C1755 1.393 . S
C1759 C1758 1.391 . S
H1760 C1768 0.950 . S
H1761 C1773 0.950 . S
H1762 C1770 0.950 . S
H1763 C1772 0.950 . S
H1764 C1774 0.950 . S
H1765 C1776 0.950 . S
H1766 C1778 0.950 . S
H1767 C1779 0.950 . S
C1768 H1760 0.950 . S
C1768 C1769 1.386 . S
C1768 C1770 1.391 . S
C1769 C1768 1.386 . S
C1769 C1773 1.393 . S
C1770 H1762 0.950 . S
C1770 C1768 1.391 . S
C1770 C1771 1.400 . S
C1771 C1770 1.400 . S
C1771 C1772 1.398 . S
C1771 C1777 1.491 . S
C1772 H1763 0.950 . S
C1772 C1771 1.398 . S
C1772 C1773 1.391 . S
C1773 H1761 0.950 . S
C1773 C1769 1.393 . S
C1773 C1772 1.391 . S
C1774 H1764 0.950 . S
C1774 C1775 1.386 . S
C1774 C1776 1.391 . S
C1775 C1774 1.386 . S
C1775 C1779 1.393 . S
C1776 H1765 0.950 . S
C1776 C1774 1.391 . S
C1776 C1777 1.400 . S
C1777 C1771 1.491 . S
C1777 C1776 1.400 . S
C1777 C1778 1.398 . S
C1778 H1766 0.950 . S
C1778 C1777 1.398 . S
C1778 C1779 1.391 . S
C1779 H1767 0.950 . S
C1779 C1775 1.393 . S
C1779 C1778 1.391 . S
H1780 C1788 0.950 . S
H1781 C1793 0.950 . S
H1782 C1790 0.950 . S
H1783 C1792 0.950 . S
H1784 C1794 0.950 . S
H1785 C1796 0.950 . S
H1786 C1798 0.950 . S
H1787 C1799 0.950 . S
C1788 H1780 0.950 . S
C1788 C1789 1.386 . S
C1788 C1790 1.391 . S
C1789 C1788 1.386 . S
C1789 C1793 1.393 . S
C1790 H1782 0.950 . S
C1790 C1788 1.391 . S
C1790 C1791 1.400 . S
C1791 C1790 1.400 . S
C1791 C1792 1.398 . S
C1791 C1797 1.491 . S
C1792 H1783 0.950 . S
C1792 C1791 1.398 . S
C1792 C1793 1.391 . S
C1793 H1781 0.950 . S
C1793 C1789 1.393 . S
C1793 C1792 1.391 . S
C1794 H1784 0.950 . S
C1794 C1795 1.386 . S
C1794 C1796 1.391 . S
C1795 C1794 1.386 . S
C1795 C1799 1.393 . S
C1796 H1785 0.950 . S
C1796 C1794 1.391 . S
C1796 C1797 1.400 . S
C1797 C1791 1.491 . S
C1797 C1796 1.400 . S
C1797 C1798 1.398 . S
C1798 H1786 0.950 . S
C1798 C1797 1.398 . S
C1798 C1799 1.391 . S
C1799 H1787 0.950 . S
C1799 C1795 1.393 . S
C1799 C1798 1.391 . S
H1800 C1808 0.950 . S
H1801 C1813 0.950 . S
H1802 C1810 0.950 . S
H1803 C1812 0.950 . S
H1804 C1814 0.950 . S
H1805 C1816 0.950 . S
H1806 C1818 0.950 . S
H1807 C1819 0.950 . S
C1808 H1800 0.950 . S
C1808 C1809 1.386 . S
C1808 C1810 1.391 . S
C1809 C1808 1.386 . S
C1809 C1813 1.393 . S
C1810 H1802 0.950 . S
C1810 C1808 1.391 . S
C1810 C1811 1.400 . S
C1811 C1810 1.400 . S
C1811 C1812 1.398 . S
C1811 C1817 1.491 . S
C1812 H1803 0.950 . S
C1812 C1811 1.398 . S
C1812 C1813 1.391 . S
C1813 H1801 0.950 . S
C1813 C1809 1.393 . S
C1813 C1812 1.391 . S
C1814 H1804 0.950 . S
C1814 C1815 1.386 . S
C1814 C1816 1.391 . S
C1815 C1814 1.386 . S
C1815 C1819 1.393 . S
C1816 H1805 0.950 . S
C1816 C1814 1.391 . S
C1816 C1817 1.400 . S
C1817 C1811 1.491 . S
C1817 C1816 1.400 . S
C1817 C1818 1.398 . S
C1818 H1806 0.950 . S
C1818 C1817 1.398 . S
C1818 C1819 1.391 . S
C1819 H1807 0.950 . S
C1819 C1815 1.393 . S
C1819 C1818 1.391 . S
H1820 C1828 0.950 . S
H1821 C1833 0.950 . S
H1822 C1830 0.950 . S
H1823 C1832 0.950 . S
H1824 C1834 0.950 . S
H1825 C1836 0.950 . S
H1826 C1838 0.950 . S
H1827 C1839 0.950 . S
C1828 H1820 0.950 . S
C1828 C1829 1.386 . S
C1828 C1830 1.391 . S
C1829 C1828 1.386 . S
C1829 C1833 1.393 . S
C1830 H1822 0.950 . S
C1830 C1828 1.391 . S
C1830 C1831 1.400 . S
C1831 C1830 1.400 . S
C1831 C1832 1.398 . S
C1831 C1837 1.491 . S
C1832 H1823 0.950 . S
C1832 C1831 1.398 . S
C1832 C1833 1.391 . S
C1833 H1821 0.950 . S
C1833 C1829 1.393 . S
C1833 C1832 1.391 . S
C1834 H1824 0.950 . S
C1834 C1835 1.386 . S
C1834 C1836 1.391 . S
C1835 C1834 1.386 . S
C1835 C1839 1.393 . S
C1836 H1825 0.950 . S
C1836 C1834 1.391 . S
C1836 C1837 1.400 . S
C1837 C1831 1.491 . S
C1837 C1836 1.400 . S
C1837 C1838 1.398 . S
C1838 H1826 0.950 . S
C1838 C1837 1.398 . S
C1838 C1839 1.391 . S
C1839 H1827 0.950 . S
C1839 C1835 1.393 . S
C1839 C1838 1.391 . S
H1840 C1848 0.950 . S
H1841 C1853 0.950 . S
H1842 C1850 0.950 . S
H1843 C1852 0.950 . S
H1844 C1854 0.950 . S
H1845 C1856 0.950 . S
H1846 C1858 0.950 . S
H1847 C1859 0.950 . S
C1848 H1840 0.950 . S
C1848 C1849 1.386 . S
C1848 C1850 1.391 . S
C1849 C1848 1.386 . S
C1849 C1853 1.393 . S
C1850 H1842 0.950 . S
C1850 C1848 1.391 . S
C1850 C1851 1.400 . S
C1851 C1850 1.400 . S
C1851 C1852 1.398 . S
C1851 C1857 1.491 . S
C1852 H1843 0.950 . S
C1852 C1851 1.398 . S
C1852 C1853 1.391 . S
C1853 H1841 0.950 . S
C1853 C1849 1.393 . S
C1853 C1852 1.391 . S
C1854 H1844 0.950 . S
C1854 C1855 1.386 . S
C1854 C1856 1.391 . S
C1855 C1854 1.386 . S
C1855 C1859 1.393 . S
C1856 H1845 0.950 . S
C1856 C1854 1.391 . S
C1856 C1857 1.400 . S
C1857 C1851 1.491 . S
C1857 C1856 1.400 . S
C1857 C1858 1.398 . S
C1858 H1846 0.950 . S
C1858 C1857 1.398 . S
C1858 C1859 1.391 . S
C1859 H1847 0.950 . S
C1859 C1855 1.393 . S
C1859 C1858 1.391 . S
H1860 C1868 0.950 . S
H1861 C1873 0.950 1_554 S
H1862 C1870 0.950 . S
H1863 C1872 0.950 . S
H1864 C1874 0.950 . S
H1865 C1876 0.950 . S
H1866 C1878 0.950 . S
H1867 C1879 0.950 . S
C1868 H1860 0.950 . S
C1868 C1869 1.386 . S
C1868 C1870 1.391 . S
C1869 C1868 1.386 . S
C1869 C1873 1.393 . S
C1870 H1862 0.950 . S
C1870 C1868 1.391 . S
C1870 C1871 1.400 . S
C1871 C1870 1.400 . S
C1871 C1872 1.398 . S
C1871 C1877 1.491 . S
C1872 H1863 0.950 . S
C1872 C1871 1.398 . S
C1872 C1873 1.391 . S
C1873 H1861 0.950 1_556 S
C1873 C1869 1.393 . S
C1873 C1872 1.391 . S
C1874 H1864 0.950 . S
C1874 C1875 1.386 . S
C1874 C1876 1.391 . S
C1875 C1874 1.386 . S
C1875 C1879 1.393 . S
C1876 H1865 0.950 . S
C1876 C1874 1.391 . S
C1876 C1877 1.400 . S
C1877 C1871 1.491 . S
C1877 C1876 1.400 . S
C1877 C1878 1.398 . S
C1878 H1866 0.950 . S
C1878 C1877 1.398 . S
C1878 C1879 1.391 . S
C1879 H1867 0.950 . S
C1879 C1875 1.393 . S
C1879 C1878 1.391 . S
H1880 C1888 0.950 1_554 S
H1881 C1893 0.950 . S
H1882 C1890 0.950 . S
H1883 C1892 0.950 . S
H1884 C1894 0.950 . S
H1885 C1896 0.950 . S
H1886 C1898 0.950 . S
H1887 C1899 0.950 . S
C1888 H1880 0.950 1_556 S
C1888 C1889 1.386 . S
C1888 C1890 1.391 . S
C1889 C1888 1.386 . S
C1889 C1893 1.393 . S
C1890 H1882 0.950 . S
C1890 C1888 1.391 . S
C1890 C1891 1.400 . S
C1891 C1890 1.400 . S
C1891 C1892 1.398 . S
C1891 C1897 1.491 . S
C1892 H1883 0.950 . S
C1892 C1891 1.398 . S
C1892 C1893 1.391 . S
C1893 H1881 0.950 . S
C1893 C1889 1.393 . S
C1893 C1892 1.391 . S
C1894 H1884 0.950 . S
C1894 C1895 1.386 . S
C1894 C1896 1.391 . S
C1895 C1894 1.386 . S
C1895 C1899 1.393 . S
C1896 H1885 0.950 . S
C1896 C1894 1.391 . S
C1896 C1897 1.400 . S
C1897 C1891 1.491 . S
C1897 C1896 1.400 . S
C1897 C1898 1.398 . S
C1898 H1886 0.950 . S
C1898 C1897 1.398 . S
C1898 C1899 1.391 . S
C1899 H1887 0.950 . S
C1899 C1895 1.393 . S
C1899 C1898 1.391 . S
H1900 C1908 0.950 . S
H1901 C1913 0.950 . S
H1902 C1910 0.950 . S
H1903 C1912 0.950 . S
H1904 C1914 0.950 . S
H1905 C1916 0.950 . S
H1906 C1918 0.950 . S
H1907 C1919 0.950 . S
C1908 H1900 0.950 . S
C1908 C1909 1.386 . S
C1908 C1910 1.391 . S
C1909 C1908 1.386 . S
C1909 C1913 1.393 . S
C1910 H1902 0.950 . S
C1910 C1908 1.391 . S
C1910 C1911 1.400 . S
C1911 C1910 1.400 . S
C1911 C1912 1.398 . S
C1911 C1917 1.491 . S
C1912 H1903 0.950 . S
C1912 C1911 1.398 . S
C1912 C1913 1.391 . S
C1913 H1901 0.950 . S
C1913 C1909 1.393 . S
C1913 C1912 1.391 . S
C1914 H1904 0.950 . S
C1914 C1915 1.386 . S
C1914 C1916 1.391 . S
C1915 C1914 1.386 . S
C1915 C1919 1.393 . S
C1916 H1905 0.950 . S
C1916 C1914 1.391 . S
C1916 C1917 1.400 . S
C1917 C1911 1.491 . S
C1917 C1916 1.400 . S
C1917 C1918 1.398 . S
C1918 H1906 0.950 . S
C1918 C1917 1.398 . S
C1918 C1919 1.391 . S
C1919 H1907 0.950 . S
C1919 C1915 1.393 . S
C1919 C1918 1.391 . S
H1920 C1928 0.950 . S
H1921 C1933 0.950 . S
H1922 C1930 0.950 . S
H1923 C1932 0.950 . S
H1924 C1934 0.950 . S
H1925 C1936 0.950 . S
H1926 C1938 0.950 . S
H1927 C1939 0.950 . S
C1928 H1920 0.950 . S
C1928 C1929 1.386 . S
C1928 C1930 1.391 . S
C1929 C1928 1.386 . S
C1929 C1933 1.393 . S
C1930 H1922 0.950 . S
C1930 C1928 1.391 . S
C1930 C1931 1.400 . S
C1931 C1930 1.400 . S
C1931 C1932 1.398 . S
C1931 C1937 1.491 . S
C1932 H1923 0.950 . S
C1932 C1931 1.398 . S
C1932 C1933 1.391 . S
C1933 H1921 0.950 . S
C1933 C1929 1.393 . S
C1933 C1932 1.391 . S
C1934 H1924 0.950 . S
C1934 C1935 1.386 . S
C1934 C1936 1.391 . S
C1935 C1934 1.386 . S
C1935 C1939 1.393 . S
C1936 H1925 0.950 . S
C1936 C1934 1.391 . S
C1936 C1937 1.400 . S
C1937 C1931 1.491 . S
C1937 C1936 1.400 . S
C1937 C1938 1.398 . S
C1938 H1926 0.950 . S
C1938 C1937 1.398 . S
C1938 C1939 1.391 . S
C1939 H1927 0.950 . S
C1939 C1935 1.393 . S
C1939 C1938 1.391 . S
H1940 C1948 0.950 1_554 S
H1941 C1953 0.950 . S
H1942 C1950 0.950 . S
H1943 C1952 0.950 . S
H1944 C1954 0.950 . S
H1945 C1956 0.950 . S
H1946 C1958 0.950 . S
H1947 C1959 0.950 . S
C1948 H1940 0.950 1_556 S
C1948 C1949 1.386 . S
C1948 C1950 1.391 . S
C1949 C1948 1.386 . S
C1949 C1953 1.393 . S
C1950 H1942 0.950 . S
C1950 C1948 1.391 . S
C1950 C1951 1.400 . S
C1951 C1950 1.400 . S
C1951 C1952 1.398 . S
C1951 C1957 1.491 . S
C1952 H1943 0.950 . S
C1952 C1951 1.398 . S
C1952 C1953 1.391 . S
C1953 H1941 0.950 . S
C1953 C1949 1.393 . S
C1953 C1952 1.391 . S
C1954 H1944 0.950 . S
C1954 C1955 1.386 . S
C1954 C1956 1.391 . S
C1955 C1954 1.386 . S
C1955 C1959 1.393 . S
C1956 H1945 0.950 . S
C1956 C1954 1.391 . S
C1956 C1957 1.400 . S
C1957 C1951 1.491 . S
C1957 C1956 1.400 . S
C1957 C1958 1.398 . S
C1958 H1946 0.950 . S
C1958 C1957 1.398 . S
C1958 C1959 1.391 . S
C1959 H1947 0.950 . S
C1959 C1955 1.393 . S
C1959 C1958 1.391 . S
H1960 C1968 0.950 . S
H1961 C1973 0.950 . S
H1962 C1970 0.950 . S
H1963 C1972 0.950 . S
H1964 C1974 0.950 . S
H1965 C1976 0.950 . S
H1966 C1978 0.950 . S
H1967 C1979 0.950 . S
C1968 H1960 0.950 . S
C1968 C1969 1.386 . S
C1968 C1970 1.391 . S
C1969 C1968 1.386 . S
C1969 C1973 1.393 . S
C1970 H1962 0.950 . S
C1970 C1968 1.391 . S
C1970 C1971 1.400 . S
C1971 C1970 1.400 . S
C1971 C1972 1.398 . S
C1971 C1977 1.491 . S
C1972 H1963 0.950 . S
C1972 C1971 1.398 . S
C1972 C1973 1.391 . S
C1973 H1961 0.950 . S
C1973 C1969 1.393 . S
C1973 C1972 1.391 . S
C1974 H1964 0.950 . S
C1974 C1975 1.386 . S
C1974 C1976 1.391 . S
C1975 C1974 1.386 . S
C1975 C1979 1.393 . S
C1976 H1965 0.950 . S
C1976 C1974 1.391 . S
C1976 C1977 1.400 . S
C1977 C1971 1.491 . S
C1977 C1976 1.400 . S
C1977 C1978 1.398 . S
C1978 H1966 0.950 . S
C1978 C1977 1.398 . S
C1978 C1979 1.391 . S
C1979 H1967 0.950 . S
C1979 C1975 1.393 . S
C1979 C1978 1.391 . S
H1980 C1988 0.950 . S
H1981 C1993 0.950 . S
H1982 C1990 0.950 . S
H1983 C1992 0.950 . S
H1984 C1994 0.950 . S
H1985 C1996 0.950 . S
H1986 C1998 0.950 . S
H1987 C1999 0.950 . S
C1988 H1980 0.950 . S
C1988 C1989 1.386 . S
C1988 C1990 1.391 . S
C1989 C1988 1.386 . S
C1989 C1993 1.393 . S
C1990 H1982 0.950 . S
C1990 C1988 1.391 . S
C1990 C1991 1.400 . S
C1991 C1990 1.400 . S
C1991 C1992 1.398 . S
C1991 C1997 1.491 . S
C1992 H1983 0.950 . S
C1992 C1991 1.398 . S
C1992 C1993 1.391 . S
C1993 H1981 0.950 . S
C1993 C1989 1.393 . S
C1993 C1992 1.391 . S
C1994 H1984 0.950 . S
C1994 C1995 1.386 . S
C1994 C1996 1.391 . S
C1995 C1994 1.386 . S
C1995 C1999 1.393 . S
C1996 H1985 0.950 . S
C1996 C1994 1.391 . S
C1996 C1997 1.400 . S
C1997 C1991 1.491 . S
C1997 C1996 1.400 . S
C1997 C1998 1.398 . S
C1998 H1986 0.950 . S
C1998 C1997 1.398 . S
C1998 C1999 1.391 . S
C1999 H1987 0.950 . S
C1999 C1995 1.393 . S
C1999 C1998 1.391 . S
H2000 C2008 0.950 . S
H2001 C2013 0.950 . S
H2002 C2010 0.950 . S
H2003 C2012 0.950 . S
H2004 C2014 0.950 . S
H2005 C2016 0.950 . S
H2006 C2018 0.950 . S
H2007 C2019 0.950 . S
C2008 H2000 0.950 . S
C2008 C2009 1.386 . S
C2008 C2010 1.391 . S
C2009 C2008 1.386 . S
C2009 C2013 1.393 . S
C2010 H2002 0.950 . S
C2010 C2008 1.391 . S
C2010 C2011 1.400 . S
C2011 C2010 1.400 . S
C2011 C2012 1.398 . S
C2011 C2017 1.491 . S
C2012 H2003 0.950 . S
C2012 C2011 1.398 . S
C2012 C2013 1.391 . S
C2013 H2001 0.950 . S
C2013 C2009 1.393 . S
C2013 C2012 1.391 . S
C2014 H2004 0.950 . S
C2014 C2015 1.386 . S
C2014 C2016 1.391 . S
C2015 C2014 1.386 . S
C2015 C2019 1.393 . S
C2016 H2005 0.950 . S
C2016 C2014 1.391 . S
C2016 C2017 1.400 . S
C2017 C2011 1.491 . S
C2017 C2016 1.400 . S
C2017 C2018 1.398 . S
C2018 H2006 0.950 . S
C2018 C2017 1.398 . S
C2018 C2019 1.391 . S
C2019 H2007 0.950 . S
C2019 C2015 1.393 . S
C2019 C2018 1.391 . S
H2020 C2028 0.950 . S
H2021 C2033 0.950 . S
H2022 C2030 0.950 . S
H2023 C2032 0.950 . S
H2024 C2034 0.950 . S
H2025 C2036 0.950 . S
H2026 C2038 0.950 . S
H2027 C2039 0.950 . S
C2028 H2020 0.950 . S
C2028 C2029 1.386 . S
C2028 C2030 1.391 . S
C2029 C2028 1.386 . S
C2029 C2033 1.393 . S
C2030 H2022 0.950 . S
C2030 C2028 1.391 . S
C2030 C2031 1.400 . S
C2031 C2030 1.400 . S
C2031 C2032 1.398 . S
C2031 C2037 1.491 . S
C2032 H2023 0.950 . S
C2032 C2031 1.398 . S
C2032 C2033 1.391 . S
C2033 H2021 0.950 . S
C2033 C2029 1.393 . S
C2033 C2032 1.391 . S
C2034 H2024 0.950 . S
C2034 C2035 1.386 . S
C2034 C2036 1.391 . S
C2035 C2034 1.386 . S
C2035 C2039 1.393 . S
C2036 H2025 0.950 . S
C2036 C2034 1.391 . S
C2036 C2037 1.400 . S
C2037 C2031 1.491 . S
C2037 C2036 1.400 . S
C2037 C2038 1.398 . S
C2038 H2026 0.950 . S
C2038 C2037 1.398 . S
C2038 C2039 1.391 . S
C2039 H2027 0.950 . S
C2039 C2035 1.393 . S
C2039 C2038 1.391 . S
H2040 C2048 0.950 . S
H2041 C2053 0.950 . S
H2042 C2050 0.950 . S
H2043 C2052 0.950 . S
H2044 C2054 0.950 . S
H2045 C2056 0.950 . S
H2046 C2058 0.950 . S
H2047 C2059 0.950 . S
C2048 H2040 0.950 . S
C2048 C2049 1.386 . S
C2048 C2050 1.391 . S
C2049 C2048 1.386 . S
C2049 C2053 1.393 . S
C2050 H2042 0.950 . S
C2050 C2048 1.391 . S
C2050 C2051 1.400 . S
C2051 C2050 1.400 . S
C2051 C2052 1.398 . S
C2051 C2057 1.491 . S
C2052 H2043 0.950 . S
C2052 C2051 1.398 . S
C2052 C2053 1.391 . S
C2053 H2041 0.950 . S
C2053 C2049 1.393 . S
C2053 C2052 1.391 . S
C2054 H2044 0.950 . S
C2054 C2055 1.386 . S
C2054 C2056 1.391 . S
C2055 C2054 1.386 . S
C2055 C2059 1.393 . S
C2056 H2045 0.950 . S
C2056 C2054 1.391 . S
C2056 C2057 1.400 . S
C2057 C2051 1.491 . S
C2057 C2056 1.400 . S
C2057 C2058 1.398 . S
C2058 H2046 0.950 . S
C2058 C2057 1.398 . S
C2058 C2059 1.391 . S
C2059 H2047 0.950 . S
C2059 C2055 1.393 . S
C2059 C2058 1.391 . S
H2060 C2068 0.950 . S
H2061 C2073 0.950 . S
H2062 C2070 0.950 . S
H2063 C2072 0.950 . S
H2064 C2074 0.950 . S
H2065 C2076 0.950 . S
H2066 C2078 0.950 . S
H2067 C2079 0.950 . S
C2068 H2060 0.950 . S
C2068 C2069 1.386 . S
C2068 C2070 1.391 . S
C2069 C2068 1.386 . S
C2069 C2073 1.393 . S
C2070 H2062 0.950 . S
C2070 C2068 1.391 . S
C2070 C2071 1.400 . S
C2071 C2070 1.400 . S
C2071 C2072 1.398 . S
C2071 C2077 1.491 . S
C2072 H2063 0.950 . S
C2072 C2071 1.398 . S
C2072 C2073 1.391 . S
C2073 H2061 0.950 . S
C2073 C2069 1.393 . S
C2073 C2072 1.391 . S
C2074 H2064 0.950 . S
C2074 C2075 1.386 . S
C2074 C2076 1.391 . S
C2075 C2074 1.386 . S
C2075 C2079 1.393 . S
C2076 H2065 0.950 . S
C2076 C2074 1.391 . S
C2076 C2077 1.400 . S
C2077 C2071 1.491 . S
C2077 C2076 1.400 . S
C2077 C2078 1.398 . S
C2078 H2066 0.950 . S
C2078 C2077 1.398 . S
C2078 C2079 1.391 . S
C2079 H2067 0.950 . S
C2079 C2075 1.393 . S
C2079 C2078 1.391 . S
H2080 C2088 0.950 . S
H2081 C2093 0.950 . S
H2082 C2090 0.950 . S
H2083 C2092 0.950 . S
H2084 C2094 0.950 . S
H2085 C2096 0.950 . S
H2086 C2098 0.950 . S
H2087 C2099 0.950 . S
C2088 H2080 0.950 . S
C2088 C2089 1.386 . S
C2088 C2090 1.391 . S
C2089 C2088 1.386 . S
C2089 C2093 1.393 . S
C2090 H2082 0.950 . S
C2090 C2088 1.391 . S
C2090 C2091 1.400 . S
C2091 C2090 1.400 . S
C2091 C2092 1.398 . S
C2091 C2097 1.491 . S
C2092 H2083 0.950 . S
C2092 C2091 1.398 . S
C2092 C2093 1.391 . S
C2093 H2081 0.950 . S
C2093 C2089 1.393 . S
C2093 C2092 1.391 . S
C2094 H2084 0.950 . S
C2094 C2095 1.386 . S
C2094 C2096 1.391 . S
C2095 C2094 1.386 . S
C2095 C2099 1.393 . S
C2096 H2085 0.950 . S
C2096 C2094 1.391 . S
C2096 C2097 1.400 . S
C2097 C2091 1.491 . S
C2097 C2096 1.400 . S
C2097 C2098 1.398 . S
C2098 H2086 0.950 . S
C2098 C2097 1.398 . S
C2098 C2099 1.391 . S
C2099 H2087 0.950 . S
C2099 C2095 1.393 . S
C2099 C2098 1.391 . S
H2100 C2108 0.950 . S
H2101 C2113 0.950 1_655 S
H2102 C2110 0.950 . S
H2103 C2112 0.950 1_655 S
H2104 C2114 0.950 . S
H2105 C2116 0.950 . S
H2106 C2118 0.950 . S
H2107 C2119 0.950 . S
C2108 H2100 0.950 . S
C2108 C2109 1.386 . S
C2108 C2110 1.391 . S
C2109 C2108 1.386 . S
C2109 C2113 1.393 . S
C2110 H2102 0.950 . S
C2110 C2108 1.391 . S
C2110 C2111 1.400 . S
C2111 C2110 1.400 . S
C2111 C2112 1.398 . S
C2111 C2117 1.491 . S
C2112 H2103 0.950 1_455 S
C2112 C2111 1.398 . S
C2112 C2113 1.391 . S
C2113 H2101 0.950 1_455 S
C2113 C2109 1.393 . S
C2113 C2112 1.391 . S
C2114 H2104 0.950 . S
C2114 C2115 1.386 1_655 S
C2114 C2116 1.391 . S
C2115 C2114 1.386 1_455 S
C2115 C2119 1.393 . S
C2116 H2105 0.950 . S
C2116 C2114 1.391 . S
C2116 C2117 1.400 1_655 S
C2117 C2111 1.491 . S
C2117 C2116 1.400 1_455 S
C2117 C2118 1.398 . S
C2118 H2106 0.950 . S
C2118 C2117 1.398 . S
C2118 C2119 1.391 . S
C2119 H2107 0.950 . S
C2119 C2115 1.393 . S
C2119 C2118 1.391 . S
H2120 C2128 0.950 . S
H2121 C2133 0.950 . S
H2122 C2130 0.950 . S
H2123 C2132 0.950 . S
H2124 C2134 0.950 . S
H2125 C2136 0.950 . S
H2126 C2138 0.950 . S
H2127 C2139 0.950 . S
C2128 H2120 0.950 . S
C2128 C2129 1.386 . S
C2128 C2130 1.391 . S
C2129 C2128 1.386 . S
C2129 C2133 1.393 . S
C2130 H2122 0.950 . S
C2130 C2128 1.391 . S
C2130 C2131 1.400 . S
C2131 C2130 1.400 . S
C2131 C2132 1.398 . S
C2131 C2137 1.491 . S
C2132 H2123 0.950 . S
C2132 C2131 1.398 . S
C2132 C2133 1.391 . S
C2133 H2121 0.950 . S
C2133 C2129 1.393 . S
C2133 C2132 1.391 . S
C2134 H2124 0.950 . S
C2134 C2135 1.386 . S
C2134 C2136 1.391 . S
C2135 C2134 1.386 . S
C2135 C2139 1.393 . S
C2136 H2125 0.950 . S
C2136 C2134 1.391 . S
C2136 C2137 1.400 . S
C2137 C2131 1.491 . S
C2137 C2136 1.400 . S
C2137 C2138 1.398 . S
C2138 H2126 0.950 . S
C2138 C2137 1.398 . S
C2138 C2139 1.391 . S
C2139 H2127 0.950 . S
C2139 C2135 1.393 . S
C2139 C2138 1.391 . S
H2140 C2148 0.950 . S
H2141 C2153 0.950 . S
H2142 C2150 0.939 1_545 S
H2143 C2152 0.950 . S
H2144 C2154 0.950 . S
H2145 C2156 0.950 . S
H2146 C2158 0.914 1_545 S
H2147 C2159 0.954 . S
C2148 H2140 0.950 . S
C2148 C2149 1.386 . S
C2148 C2150 1.391 . S
C2149 C2148 1.386 . S
C2149 C2153 1.393 . S
C2150 H2142 0.939 1_565 S
C2150 C2148 1.391 . S
C2150 C2151 1.400 . S
C2151 C2150 1.400 . S
C2151 C2152 1.398 . S
C2151 C2157 1.491 . S
C2152 H2143 0.950 . S
C2152 C2151 1.398 . S
C2152 C2153 1.391 . S
C2153 H2141 0.950 . S
C2153 C2149 1.393 . S
C2153 C2152 1.391 . S
C2154 H2144 0.950 . S
C2154 C2155 1.386 . S
C2154 C2156 1.391 . S
C2155 C2154 1.386 . S
C2155 C2159 1.383 1_565 S
C2156 H2145 0.950 . S
C2156 C2154 1.391 . S
C2156 C2157 1.400 . S
C2157 C2151 1.491 . S
C2157 C2156 1.400 . S
C2157 C2158 1.398 . S
C2158 H2146 0.914 1_565 S
C2158 C2157 1.398 . S
C2158 C2159 1.396 1_565 S
C2159 H2147 0.954 . S
C2159 C2155 1.383 1_545 S
C2159 C2158 1.396 1_545 S
H2160 C2168 0.950 . S
H2161 C2173 0.950 . S
H2162 C2170 0.950 . S
H2163 C2172 0.950 . S
H2164 C2174 0.950 . S
H2165 C2176 0.950 . S
H2166 C2178 0.950 . S
H2167 C2179 0.950 . S
C2168 H2160 0.950 . S
C2168 C2169 1.386 1_545 S
C2168 C2170 1.391 . S
C2169 C2168 1.386 1_565 S
C2169 C2173 1.393 . S
C2170 H2162 0.950 . S
C2170 C2168 1.391 . S
C2170 C2171 1.400 1_545 S
C2171 C2170 1.400 1_565 S
C2171 C2172 1.398 . S
C2171 C2177 1.491 . S
C2172 H2163 0.950 . S
C2172 C2171 1.398 . S
C2172 C2173 1.391 . S
C2173 H2161 0.950 . S
C2173 C2169 1.393 . S
C2173 C2172 1.391 . S
C2174 H2164 0.950 . S
C2174 C2175 1.386 . S
C2174 C2176 1.391 . S
C2175 C2174 1.386 . S
C2175 C2179 1.393 1_565 S
C2176 H2165 0.950 . S
C2176 C2174 1.391 . S
C2176 C2177 1.400 . S
C2177 C2171 1.491 . S
C2177 C2176 1.400 . S
C2177 C2178 1.398 1_565 S
C2178 H2166 0.950 . S
C2178 C2177 1.398 1_545 S
C2178 C2179 1.391 . S
C2179 H2167 0.950 . S
C2179 C2175 1.393 1_545 S
C2179 C2178 1.391 . S
H2180 C2188 0.950 . S
H2181 C2193 0.950 . S
H2182 C2190 0.950 . S
H2183 C2192 0.950 . S
H2184 C2194 0.950 . S
H2185 C2196 0.950 . S
H2186 C2198 0.950 . S
H2187 C2199 0.950 . S
C2188 H2180 0.950 . S
C2188 C2189 1.386 . S
C2188 C2190 1.391 . S
C2189 C2188 1.386 . S
C2189 C2193 1.393 . S
C2190 H2182 0.950 . S
C2190 C2188 1.391 . S
C2190 C2191 1.400 . S
C2191 C2190 1.400 . S
C2191 C2192 1.398 . S
C2191 C2197 1.491 . S
C2192 H2183 0.950 . S
C2192 C2191 1.398 . S
C2192 C2193 1.391 . S
C2193 H2181 0.950 . S
C2193 C2189 1.393 . S
C2193 C2192 1.391 . S
C2194 H2184 0.950 . S
C2194 C2195 1.386 . S
C2194 C2196 1.391 . S
C2195 C2194 1.386 . S
C2195 C2199 1.393 . S
C2196 H2185 0.950 . S
C2196 C2194 1.391 . S
C2196 C2197 1.400 . S
C2197 C2191 1.491 . S
C2197 C2196 1.400 . S
C2197 C2198 1.398 . S
C2198 H2186 0.950 . S
C2198 C2197 1.398 . S
C2198 C2199 1.391 . S
C2199 H2187 0.950 . S
C2199 C2195 1.393 . S
C2199 C2198 1.391 . S
H2200 C2208 0.950 . S
H2201 C2213 0.950 . S
H2202 C2210 0.950 . S
H2203 C2212 0.950 . S
H2204 C2214 0.950 . S
H2205 C2216 0.950 . S
H2206 C2218 0.950 . S
H2207 C2219 0.950 . S
C2208 H2200 0.950 . S
C2208 C2209 1.386 . S
C2208 C2210 1.391 . S
C2209 C2208 1.386 . S
C2209 C2213 1.393 . S
C2210 H2202 0.950 . S
C2210 C2208 1.391 . S
C2210 C2211 1.400 . S
C2211 C2210 1.400 . S
C2211 C2212 1.398 . S
C2211 C2217 1.491 . S
C2212 H2203 0.950 . S
C2212 C2211 1.398 . S
C2212 C2213 1.391 . S
C2213 H2201 0.950 . S
C2213 C2209 1.393 . S
C2213 C2212 1.391 . S
C2214 H2204 0.950 . S
C2214 C2215 1.386 . S
C2214 C2216 1.391 . S
C2215 C2214 1.386 . S
C2215 C2219 1.393 . S
C2216 H2205 0.950 . S
C2216 C2214 1.391 . S
C2216 C2217 1.400 . S
C2217 C2211 1.491 . S
C2217 C2216 1.400 . S
C2217 C2218 1.398 . S
C2218 H2206 0.950 . S
C2218 C2217 1.398 . S
C2218 C2219 1.391 . S
C2219 H2207 0.950 . S
C2219 C2215 1.393 . S
C2219 C2218 1.391 . S
H2220 C2228 0.950 . S
H2221 C2233 0.950 . S
H2222 C2230 0.950 . S
H2223 C2232 0.950 . S
H2224 C2234 0.950 . S
H2225 C2236 0.950 . S
H2226 C2238 0.950 . S
H2227 C2239 0.950 . S
C2228 H2220 0.950 . S
C2228 C2229 1.386 . S
C2228 C2230 1.391 . S
C2229 C2228 1.386 . S
C2229 C2233 1.393 . S
C2230 H2222 0.950 . S
C2230 C2228 1.391 . S
C2230 C2231 1.400 . S
C2231 C2230 1.400 . S
C2231 C2232 1.398 . S
C2231 C2237 1.491 . S
C2232 H2223 0.950 . S
C2232 C2231 1.398 . S
C2232 C2233 1.391 . S
C2233 H2221 0.950 . S
C2233 C2229 1.393 . S
C2233 C2232 1.391 . S
C2234 H2224 0.950 . S
C2234 C2235 1.386 . S
C2234 C2236 1.391 . S
C2235 C2234 1.386 . S
C2235 C2239 1.393 . S
C2236 H2225 0.950 . S
C2236 C2234 1.391 . S
C2236 C2237 1.400 . S
C2237 C2231 1.491 . S
C2237 C2236 1.400 . S
C2237 C2238 1.398 . S
C2238 H2226 0.950 . S
C2238 C2237 1.398 . S
C2238 C2239 1.391 . S
C2239 H2227 0.950 . S
C2239 C2235 1.393 . S
C2239 C2238 1.391 . S
H2240 C2248 0.950 . S
H2241 C2253 0.950 . S
H2242 C2250 0.950 . S
H2243 C2252 0.950 . S
H2244 C2254 0.950 . S
H2245 C2256 0.950 . S
H2246 C2258 0.950 . S
H2247 C2259 0.950 . S
C2248 H2240 0.950 . S
C2248 C2249 1.386 . S
C2248 C2250 1.391 . S
C2249 C2248 1.386 . S
C2249 C2253 1.393 . S
C2250 H2242 0.950 . S
C2250 C2248 1.391 . S
C2250 C2251 1.400 . S
C2251 C2250 1.400 . S
C2251 C2252 1.398 . S
C2251 C2257 1.491 . S
C2252 H2243 0.950 . S
C2252 C2251 1.398 . S
C2252 C2253 1.391 . S
C2253 H2241 0.950 . S
C2253 C2249 1.393 . S
C2253 C2252 1.391 . S
C2254 H2244 0.950 . S
C2254 C2255 1.386 . S
C2254 C2256 1.391 . S
C2255 C2254 1.386 . S
C2255 C2259 1.393 . S
C2256 H2245 0.950 . S
C2256 C2254 1.391 . S
C2256 C2257 1.400 . S
C2257 C2251 1.491 . S
C2257 C2256 1.400 . S
C2257 C2258 1.398 . S
C2258 H2246 0.950 . S
C2258 C2257 1.398 . S
C2258 C2259 1.391 . S
C2259 H2247 0.950 . S
C2259 C2255 1.393 . S
C2259 C2258 1.391 . S
H2260 C2268 0.950 . S
H2261 C2273 0.950 . S
H2262 C2270 0.950 . S
H2263 C2272 0.950 . S
H2264 C2274 0.950 . S
H2265 C2276 0.950 . S
H2266 C2278 0.950 . S
H2267 C2279 0.950 . S
C2268 H2260 0.950 . S
C2268 C2269 1.386 . S
C2268 C2270 1.391 . S
C2269 C2268 1.386 . S
C2269 C2273 1.393 . S
C2270 H2262 0.950 . S
C2270 C2268 1.391 . S
C2270 C2271 1.400 . S
C2271 C2270 1.400 . S
C2271 C2272 1.398 . S
C2271 C2277 1.491 . S
C2272 H2263 0.950 . S
C2272 C2271 1.398 . S
C2272 C2273 1.391 . S
C2273 H2261 0.950 . S
C2273 C2269 1.393 . S
C2273 C2272 1.391 . S
C2274 H2264 0.950 . S
C2274 C2275 1.386 . S
C2274 C2276 1.391 . S
C2275 C2274 1.386 . S
C2275 C2279 1.393 . S
C2276 H2265 0.950 . S
C2276 C2274 1.391 . S
C2276 C2277 1.400 . S
C2277 C2271 1.491 . S
C2277 C2276 1.400 . S
C2277 C2278 1.398 . S
C2278 H2266 0.950 . S
C2278 C2277 1.398 . S
C2278 C2279 1.391 . S
C2279 H2267 0.950 . S
C2279 C2275 1.393 . S
C2279 C2278 1.391 . S
H2280 C2288 0.950 1_565 S
H2281 C2293 0.950 . S
H2282 C2290 0.950 1_565 S
H2283 C2292 0.950 . S
H2284 C2294 0.950 . S
H2285 C2296 0.950 . S
H2286 C2298 0.950 . S
H2287 C2299 0.950 . S
C2288 H2280 0.950 1_545 S
C2288 C2289 1.386 . S
C2288 C2290 1.391 . S
C2289 C2288 1.386 . S
C2289 C2293 1.393 . S
C2290 H2282 0.950 1_545 S
C2290 C2288 1.391 . S
C2290 C2291 1.400 . S
C2291 C2290 1.400 . S
C2291 C2292 1.398 . S
C2291 C2297 1.491 . S
C2292 H2283 0.950 . S
C2292 C2291 1.398 . S
C2292 C2293 1.391 . S
C2293 H2281 0.950 . S
C2293 C2289 1.393 . S
C2293 C2292 1.391 . S
C2294 H2284 0.950 . S
C2294 C2295 1.386 . S
C2294 C2296 1.391 . S
C2295 C2294 1.386 . S
C2295 C2299 1.393 1_545 S
C2296 H2285 0.950 . S
C2296 C2294 1.391 . S
C2296 C2297 1.400 . S
C2297 C2291 1.491 . S
C2297 C2296 1.400 . S
C2297 C2298 1.398 1_545 S
C2298 H2286 0.950 . S
C2298 C2297 1.398 1_565 S
C2298 C2299 1.391 . S
C2299 H2287 0.950 . S
C2299 C2295 1.393 1_565 S
C2299 C2298 1.391 . S
H2300 C2308 0.950 . S
H2301 C2313 0.950 . S
H2302 C2310 0.950 . S
H2303 C2312 0.950 . S
H2304 C2314 0.950 . S
H2305 C2316 0.950 . S
H2306 C2318 0.950 . S
H2307 C2319 0.950 . S
C2308 H2300 0.950 . S
C2308 C2309 1.386 1_455 S
C2308 C2310 1.391 . S
C2309 C2308 1.386 1_655 S
C2309 C2313 1.393 . S
C2310 H2302 0.950 . S
C2310 C2308 1.391 . S
C2310 C2311 1.400 1_455 S
C2311 C2310 1.400 1_655 S
C2311 C2312 1.398 . S
C2311 C2317 1.491 . S
C2312 H2303 0.950 . S
C2312 C2311 1.398 . S
C2312 C2313 1.391 . S
C2313 H2301 0.950 . S
C2313 C2309 1.393 . S
C2313 C2312 1.391 . S
C2314 H2304 0.950 . S
C2314 C2315 1.386 . S
C2314 C2316 1.391 . S
C2315 C2314 1.386 . S
C2315 C2319 1.393 1_655 S
C2316 H2305 0.950 . S
C2316 C2314 1.391 . S
C2316 C2317 1.400 . S
C2317 C2311 1.491 . S
C2317 C2316 1.400 . S
C2317 C2318 1.398 1_655 S
C2318 H2306 0.950 . S
C2318 C2317 1.398 1_455 S
C2318 C2319 1.391 . S
C2319 H2307 0.950 . S
C2319 C2315 1.393 1_455 S
C2319 C2318 1.391 . S
H2320 C2328 0.950 . S
H2321 C2333 0.950 . S
H2322 C2330 0.950 . S
H2323 C2332 0.950 . S
H2324 C2334 0.950 . S
H2325 C2336 0.950 . S
H2326 C2338 0.950 . S
H2327 C2339 0.950 . S
C2328 H2320 0.950 . S
C2328 C2329 1.386 . S
C2328 C2330 1.391 . S
C2329 C2328 1.386 . S
C2329 C2333 1.393 . S
C2330 H2322 0.950 . S
C2330 C2328 1.391 . S
C2330 C2331 1.400 . S
C2331 C2330 1.400 . S
C2331 C2332 1.398 . S
C2331 C2337 1.491 . S
C2332 H2323 0.950 . S
C2332 C2331 1.398 . S
C2332 C2333 1.391 . S
C2333 H2321 0.950 . S
C2333 C2329 1.393 . S
C2333 C2332 1.391 . S
C2334 H2324 0.950 . S
C2334 C2335 1.386 . S
C2334 C2336 1.391 . S
C2335 C2334 1.386 . S
C2335 C2339 1.393 . S
C2336 H2325 0.950 . S
C2336 C2334 1.391 . S
C2336 C2337 1.400 . S
C2337 C2331 1.491 . S
C2337 C2336 1.400 . S
C2337 C2338 1.398 . S
C2338 H2326 0.950 . S
C2338 C2337 1.398 . S
C2338 C2339 1.391 . S
C2339 H2327 0.950 . S
C2339 C2335 1.393 . S
C2339 C2338 1.391 . S
H2340 C2348 0.950 . S
H2341 C2353 0.950 . S
H2342 C2350 0.950 . S
H2343 C2352 0.950 . S
H2344 C2354 0.950 . S
H2345 C2356 0.950 . S
H2346 C2358 0.950 . S
H2347 C2359 0.950 . S
C2348 H2340 0.950 . S
C2348 C2349 1.386 . S
C2348 C2350 1.391 . S
C2349 C2348 1.386 . S
C2349 C2353 1.393 . S
C2350 H2342 0.950 . S
C2350 C2348 1.391 . S
C2350 C2351 1.400 . S
C2351 C2350 1.400 . S
C2351 C2352 1.398 . S
C2351 C2357 1.491 . S
C2352 H2343 0.950 . S
C2352 C2351 1.398 . S
C2352 C2353 1.391 . S
C2353 H2341 0.950 . S
C2353 C2349 1.393 . S
C2353 C2352 1.391 . S
C2354 H2344 0.950 . S
C2354 C2355 1.386 . S
C2354 C2356 1.391 . S
C2355 C2354 1.386 . S
C2355 C2359 1.393 . S
C2356 H2345 0.950 . S
C2356 C2354 1.391 . S
C2356 C2357 1.400 . S
C2357 C2351 1.491 . S
C2357 C2356 1.400 . S
C2357 C2358 1.398 . S
C2358 H2346 0.950 . S
C2358 C2357 1.398 . S
C2358 C2359 1.391 . S
C2359 H2347 0.950 . S
C2359 C2355 1.393 . S
C2359 C2358 1.391 . S
H2360 C2368 0.950 . S
H2361 C2373 0.950 . S
H2362 C2370 0.950 . S
H2363 C2372 0.950 . S
H2364 C2374 0.950 . S
H2365 C2376 0.950 . S
H2366 C2378 0.950 . S
H2367 C2379 0.950 . S
C2368 H2360 0.950 . S
C2368 C2369 1.386 . S
C2368 C2370 1.391 . S
C2369 C2368 1.386 . S
C2369 C2373 1.393 . S
C2370 H2362 0.950 . S
C2370 C2368 1.391 . S
C2370 C2371 1.400 . S
C2371 C2370 1.400 . S
C2371 C2372 1.398 . S
C2371 C2377 1.491 . S
C2372 H2363 0.950 . S
C2372 C2371 1.398 . S
C2372 C2373 1.391 . S
C2373 H2361 0.950 . S
C2373 C2369 1.393 . S
C2373 C2372 1.391 . S
C2374 H2364 0.950 . S
C2374 C2375 1.386 . S
C2374 C2376 1.391 . S
C2375 C2374 1.386 . S
C2375 C2379 1.393 . S
C2376 H2365 0.950 . S
C2376 C2374 1.391 . S
C2376 C2377 1.400 . S
C2377 C2371 1.491 . S
C2377 C2376 1.400 . S
C2377 C2378 1.398 . S
C2378 H2366 0.950 . S
C2378 C2377 1.398 . S
C2378 C2379 1.391 . S
C2379 H2367 0.950 . S
C2379 C2375 1.393 . S
C2379 C2378 1.391 . S
H2380 C2388 0.950 . S
H2381 C2393 0.950 . S
H2382 C2390 0.950 . S
H2383 C2392 0.950 . S
H2384 C2394 0.950 . S
H2385 C2396 0.950 . S
H2386 C2398 0.950 . S
H2387 C2399 0.950 . S
C2388 H2380 0.950 . S
C2388 C2389 1.386 . S
C2388 C2390 1.391 . S
C2389 C2388 1.386 . S
C2389 C2393 1.393 . S
C2390 H2382 0.950 . S
C2390 C2388 1.391 . S
C2390 C2391 1.400 . S
C2391 C2390 1.400 . S
C2391 C2392 1.398 . S
C2391 C2397 1.491 . S
C2392 H2383 0.950 . S
C2392 C2391 1.398 . S
C2392 C2393 1.391 . S
C2393 H2381 0.950 . S
C2393 C2389 1.393 . S
C2393 C2392 1.391 . S
C2394 H2384 0.950 . S
C2394 C2395 1.386 . S
C2394 C2396 1.391 . S
C2395 C2394 1.386 . S
C2395 C2399 1.393 . S
C2396 H2385 0.950 . S
C2396 C2394 1.391 . S
C2396 C2397 1.400 . S
C2397 C2391 1.491 . S
C2397 C2396 1.400 . S
C2397 C2398 1.398 . S
C2398 H2386 0.950 . S
C2398 C2397 1.398 . S
C2398 C2399 1.391 . S
C2399 H2387 0.950 . S
C2399 C2395 1.393 . S
C2399 C2398 1.391 . S
H2400 C2408 0.950 . S
H2401 C2413 0.950 . S
H2402 C2410 0.950 . S
H2403 C2412 0.950 . S
H2404 C2414 0.950 . S
H2405 C2416 0.950 . S
H2406 C2418 0.950 . S
H2407 C2419 0.950 . S
C2408 H2400 0.950 . S
C2408 C2409 1.386 . S
C2408 C2410 1.391 . S
C2409 C2408 1.386 . S
C2409 C2413 1.393 . S
C2410 H2402 0.950 . S
C2410 C2408 1.391 . S
C2410 C2411 1.400 . S
C2411 C2410 1.400 . S
C2411 C2412 1.398 . S
C2411 C2417 1.491 . S
C2412 H2403 0.950 . S
C2412 C2411 1.398 . S
C2412 C2413 1.391 . S
C2413 H2401 0.950 . S
C2413 C2409 1.393 . S
C2413 C2412 1.391 . S
C2414 H2404 0.950 . S
C2414 C2415 1.386 . S
C2414 C2416 1.391 . S
C2415 C2414 1.386 . S
C2415 C2419 1.393 . S
C2416 H2405 0.950 . S
C2416 C2414 1.391 . S
C2416 C2417 1.400 . S
C2417 C2411 1.491 . S
C2417 C2416 1.400 . S
C2417 C2418 1.398 . S
C2418 H2406 0.950 . S
C2418 C2417 1.398 . S
C2418 C2419 1.391 . S
C2419 H2407 0.950 . S
C2419 C2415 1.393 . S
C2419 C2418 1.391 . S
H2420 C2428 0.950 . S
H2421 C2433 0.950 . S
H2422 C2430 0.950 . S
H2423 C2432 0.950 . S
H2424 C2434 0.950 . S
H2425 C2436 0.950 . S
H2426 C2438 0.950 . S
H2427 C2439 0.950 . S
C2428 H2420 0.950 . S
C2428 C2429 1.386 . S
C2428 C2430 1.391 . S
C2429 C2428 1.386 . S
C2429 C2433 1.393 . S
C2430 H2422 0.950 . S
C2430 C2428 1.391 . S
C2430 C2431 1.400 . S
C2431 C2430 1.400 . S
C2431 C2432 1.398 . S
C2431 C2437 1.491 . S
C2432 H2423 0.950 . S
C2432 C2431 1.398 . S
C2432 C2433 1.391 . S
C2433 H2421 0.950 . S
C2433 C2429 1.393 . S
C2433 C2432 1.391 . S
C2434 H2424 0.950 . S
C2434 C2435 1.386 . S
C2434 C2436 1.391 . S
C2435 C2434 1.386 . S
C2435 C2439 1.393 . S
C2436 H2425 0.950 . S
C2436 C2434 1.391 . S
C2436 C2437 1.400 . S
C2437 C2431 1.491 . S
C2437 C2436 1.400 . S
C2437 C2438 1.398 . S
C2438 H2426 0.950 . S
C2438 C2437 1.398 . S
C2438 C2439 1.391 . S
C2439 H2427 0.950 . S
C2439 C2435 1.393 . S
C2439 C2438 1.391 . S
H2440 C2448 0.950 . S
H2441 C2453 0.950 . S
H2442 C2450 0.950 . S
H2443 C2452 0.950 . S
H2444 C2454 0.950 . S
H2445 C2456 0.950 . S
H2446 C2458 0.950 . S
H2447 C2459 0.950 . S
C2448 H2440 0.950 . S
C2448 C2449 1.386 . S
C2448 C2450 1.391 . S
C2449 C2448 1.386 . S
C2449 C2453 1.393 . S
C2450 H2442 0.950 . S
C2450 C2448 1.391 . S
C2450 C2451 1.400 . S
C2451 C2450 1.400 . S
C2451 C2452 1.398 . S
C2451 C2457 1.491 . S
C2452 H2443 0.950 . S
C2452 C2451 1.398 . S
C2452 C2453 1.391 . S
C2453 H2441 0.950 . S
C2453 C2449 1.393 . S
C2453 C2452 1.391 . S
C2454 H2444 0.950 . S
C2454 C2455 1.386 . S
C2454 C2456 1.391 . S
C2455 C2454 1.386 . S
C2455 C2459 1.393 . S
C2456 H2445 0.950 . S
C2456 C2454 1.391 . S
C2456 C2457 1.400 . S
C2457 C2451 1.491 . S
C2457 C2456 1.400 . S
C2457 C2458 1.398 . S
C2458 H2446 0.950 . S
C2458 C2457 1.398 . S
C2458 C2459 1.391 . S
C2459 H2447 0.950 . S
C2459 C2455 1.393 . S
C2459 C2458 1.391 . S
H2460 C2468 0.950 . S
H2461 C2473 0.950 1_455 S
H2462 C2470 0.950 . S
H2463 C2472 0.882 1_455 S
H2464 C2474 0.950 . S
H2465 C2476 0.950 . S
H2466 C2478 0.950 . S
H2467 C2479 0.950 . S
C2468 H2460 0.950 . S
C2468 C2469 1.386 . S
C2468 C2470 1.391 . S
C2469 C2468 1.386 . S
C2469 C2473 1.393 . S
C2470 H2462 0.950 . S
C2470 C2468 1.391 . S
C2470 C2471 1.400 . S
C2471 C2470 1.400 . S
C2471 C2472 1.427 . S
C2471 C2477 1.491 . S
C2472 H2463 0.882 1_655 S
C2472 C2471 1.427 . S
C2472 C2473 1.432 . S
C2473 H2461 0.950 1_655 S
C2473 C2469 1.393 . S
C2473 C2472 1.432 . S
C2474 H2464 0.950 . S
C2474 C2475 1.386 1_455 S
C2474 C2476 1.391 . S
C2475 C2474 1.386 1_655 S
C2475 C2479 1.393 . S
C2476 H2465 0.950 . S
C2476 C2474 1.391 . S
C2476 C2477 1.400 1_455 S
C2477 C2471 1.491 . S
C2477 C2476 1.400 1_655 S
C2477 C2478 1.398 . S
C2478 H2466 0.950 . S
C2478 C2477 1.398 . S
C2478 C2479 1.391 . S
C2479 H2467 0.950 . S
C2479 C2475 1.393 . S
C2479 C2478 1.391 . S
H2480 C2488 0.950 . S
H2481 C2493 0.950 . S
H2482 C2490 0.950 . S
H2483 C2492 0.950 . S
H2484 C2494 0.950 . S
H2485 C2496 0.950 . S
H2486 C2498 0.950 . S
H2487 C2499 0.950 . S
C2488 H2480 0.950 . S
C2488 C2489 1.386 . S
C2488 C2490 1.391 . S
C2489 C2488 1.386 . S
C2489 C2493 1.393 . S
C2490 H2482 0.950 . S
C2490 C2488 1.391 . S
C2490 C2491 1.400 . S
C2491 C2490 1.400 . S
C2491 C2492 1.398 . S
C2491 C2497 1.491 . S
C2492 H2483 0.950 . S
C2492 C2491 1.398 . S
C2492 C2493 1.391 . S
C2493 H2481 0.950 . S
C2493 C2489 1.393 . S
C2493 C2492 1.391 . S
C2494 H2484 0.950 . S
C2494 C2495 1.386 . S
C2494 C2496 1.391 . S
C2495 C2494 1.386 . S
C2495 C2499 1.393 . S
C2496 H2485 0.950 . S
C2496 C2494 1.391 . S
C2496 C2497 1.400 . S
C2497 C2491 1.491 . S
C2497 C2496 1.400 . S
C2497 C2498 1.398 . S
C2498 H2486 0.950 . S
C2498 C2497 1.398 . S
C2498 C2499 1.391 . S
C2499 H2487 0.950 . S
C2499 C2495 1.393 . S
C2499 C2498 1.391 . S
H2500 C2508 0.950 . S
H2501 C2513 0.950 . S
H2502 C2510 0.950 . S
H2503 C2512 0.950 . S
H2504 C2514 0.950 . S
H2505 C2516 0.950 . S
H2506 C2518 0.950 . S
H2507 C2519 0.947 . S
C2508 H2500 0.950 . S
C2508 C2509 1.386 . S
C2508 C2510 1.391 . S
C2509 C2508 1.386 . S
C2509 C2513 1.393 . S
C2510 H2502 0.950 . S
C2510 C2508 1.391 . S
C2510 C2511 1.400 . S
C2511 C2510 1.400 . S
C2511 C2512 1.398 . S
C2511 C2517 1.491 . S
C2512 H2503 0.950 . S
C2512 C2511 1.398 . S
C2512 C2513 1.391 . S
C2513 H2501 0.950 . S
C2513 C2509 1.393 . S
C2513 C2512 1.391 . S
C2514 H2504 0.950 . S
C2514 C2515 1.386 . S
C2514 C2516 1.391 . S
C2515 C2514 1.386 . S
C2515 C2519 1.393 . S
C2516 H2505 0.950 . S
C2516 C2514 1.391 . S
C2516 C2517 1.400 . S
C2517 C2511 1.491 . S
C2517 C2516 1.400 . S
C2517 C2518 1.398 . S
C2518 H2506 0.950 . S
C2518 C2517 1.398 . S
C2518 C2519 1.391 . S
C2519 H2507 0.947 . S
C2519 C2515 1.393 . S
C2519 C2518 1.391 . S
C1089 C13 1.403 . S
C1095 C688 1.475 . S
C1109 C27 1.359 . S
C1115 C734 1.417 . S
C1135 C766 1.446 . S
C1129 C36 1.335 . S
C1149 C41 1.381 . S
C1155 C819 1.438 . S
C1169 C8 1.424 . S
C1175 C865 1.556 . S
C1189 C22 1.419 . S
C1195 C904 1.508 . S
C1209 C55 1.391 . S
C1215 C858 1.469 . S
C1235 C911 1.423 . S
C1229 C69 1.348 . S
C1255 C812 1.468 . S
C1249 C78 1.350 . S
C1269 C83 1.403 . S
C1275 C773 1.453 . S
C1295 C667 1.561 . S
C1289 C50 1.466 . S
C1309 C64 1.427 . S
C1315 C713 1.499 . S
C1329 C97 1.535 . S
C1335 C943 1.644 . S
C1349 C111 1.385 . S
C1355 C1010 1.472 . S
C1375 C1056 1.561 . S
C1369 C120 1.522 . S
C1389 C125 1.439 . S
C1395 C267 1.534 . S
C1409 C92 1.669 . S
C1415 C313 1.713 . S
C1429 C106 1.482 . S
C1435 C359 1.551 . S
C1449 C139 1.466 . S
C1455 C306 1.555 . S
C1469 C153 1.385 . S
C1475 C352 1.461 . S
C1495 C260 1.575 . S
C1489 C162 1.541 . S
C1515 C1035 1.619 . S
C1509 C167 1.538 . S
C1535 C964 1.708 . S
C1529 C134 1.658 . S
C1555 C989 1.563 . S
C1549 C148 1.534 . S
C1569 C181 1.491 . S
C1575 C391 1.573 . S
C1589 C195 1.386 . S
C1595 C444 1.452 . S
C1609 C204 1.536 . S
C1615 C490 1.585 . S
C1629 C209 1.533 . S
C1635 C536 1.618 . S
C1655 C589 1.706 . S
C1649 C176 1.663 . S
C1675 C635 1.562 . S
C1669 C190 1.537 . S
C1695 C582 1.650 . S
C1689 C223 1.574 . S
C1715 C628 1.491 . S
C1709 C237 1.399 . S
C1729 C246 1.517 . S
C1735 C543 1.563 . S
C1755 C497 1.539 . S
C1749 C251 1.463 . S
C1769 C218 1.664 . S
C1775 C412 1.722 . S
C1795 C451 1.557 . S
C1789 C232 1.514 . S
C1815 C274 1.518 . S
C1809 C11 1.490 . S
C1829 C25 1.363 . S
C1835 C320 1.378 . S
C1855 C366 1.499 . S
C1849 C35 1.508 . S
C1875 C398 1.497 . S
C1869 C39 1.494 . S
C1895 C437 1.577 . S
C1889 C7 1.609 . S
C1915 C483 1.432 . S
C1909 C21 1.458 . S
C1929 C53 1.501 . S
C1935 C504 1.509 . S
C1949 C67 1.354 . S
C1955 C405 1.354 . S
C1969 C77 1.490 1_556 S
C1975 C458 1.452 . S
C1989 C81 1.529 . S
C1995 C299 1.544 . S
C2015 C345 1.576 . S
C2009 C49 1.601 . S
C2029 C63 1.456 . S
C2035 C253 1.443 . S
C2055 C529 1.455 . S
C2049 C95 1.456 . S
C2069 C109 1.471 . S
C2075 C596 1.471 . S
C2089 C119 1.554 . S
C2095 C642 1.534 . S
C2115 C681 1.269 . S
C2109 C123 1.263 . S
C2129 C91 1.536 . S
C2135 C727 1.526 . S
C2149 C105 1.254 . S
C2155 C759 1.249 . S
C2169 C137 1.294 . S
C2175 C780 1.295 . S
C2189 C151 1.158 . S
C2195 C674 1.168 . S
C2215 C720 1.428 . S
C2209 C161 1.446 . S
C2229 C165 1.495 . S
C2235 C575 1.499 . S
C2249 C133 1.626 . S
C2255 C621 1.598 . S
C2275 C550 1.529 . S
C2269 C147 1.552 . S
C2295 C826 1.309 . S
C2289 C179 1.305 . S
C2309 C193 1.163 . S
C2315 C872 1.160 . S
C2329 C203 1.438 . S
C2335 C897 1.424 . S
C2355 C950 1.465 . S
C2349 C207 1.466 . S
C2375 C1003 1.612 . S
C2369 C175 1.631 . S
C2389 C189 1.555 . S
C2395 C1049 1.539 . S
C2409 C221 1.471 . S
C2415 C1042 1.478 . S
C2429 C235 1.457 . S
C2435 C957 1.452 . S
C2455 C996 1.523 . S
C2449 C245 1.535 . S
C2475 C851 1.245 . S
C2469 C249 1.249 . S
C2495 C918 1.516 . S
C2489 C217 1.541 . S
C2509 C231 1.270 . S
C2515 C805 1.269 . S
