# Generated by pormake.
# Topology anh, (6,3)-cn, num edge types: 1
# Building blocks:
#     Node 0, Type 0, BuildingBlock: PAMTOO_clean_sbu_0, # of connection points: 6
#     Node 1, Type 0, BuildingBlock: PAMTOO_clean_sbu_0, # of connection points: 6
#     Node 2, Type 0, BuildingBlock: PAMTOO_clean_sbu_0, # of connection points: 6
#     Node 3, Type 1, BuildingBlock: PAMTOO_clean_linker_0, # of connection points: 3
#     Node 4, Type 1, BuildingBlock: PAMTOO_clean_linker_0, # of connection points: 3
#     Node 5, Type 1, BuildingBlock: PAMTOO_clean_linker_0, # of connection points: 3
#     Node 6, Type 1, BuildingBlock: PAMTOO_clean_linker_0, # of connection points: 3
#     Node 7, Type 1, BuildingBlock: PAMTOO_clean_linker_0, # of connection points: 3
#     Node 8, Type 1, BuildingBlock: PAMTOO_clean_linker_0, # of connection points: 3
#     Edge 9, Type (0, 1), BuildingBlock: CIFDUS_clean_linker_0, # of connection points: 2
#     Edge 10, Type (0, 1), BuildingBlock: CIFDUS_clean_linker_0, # of connection points: 2
#     Edge 11, Type (0, 1), BuildingBlock: CIFDUS_clean_linker_0, # of connection points: 2
#     Edge 12, Type (0, 1), BuildingBlock: CIFDUS_clean_linker_0, # of connection points: 2
#     Edge 13, Type (0, 1), BuildingBlock: CIFDUS_clean_linker_0, # of connection points: 2
#     Edge 14, Type (0, 1), BuildingBlock: CIFDUS_clean_linker_0, # of connection points: 2
#     Edge 15, Type (0, 1), BuildingBlock: CIFDUS_clean_linker_0, # of connection points: 2
#     Edge 16, Type (0, 1), BuildingBlock: CIFDUS_clean_linker_0, # of connection points: 2
#     Edge 17, Type (0, 1), BuildingBlock: CIFDUS_clean_linker_0, # of connection points: 2
#     Edge 18, Type (0, 1), BuildingBlock: CIFDUS_clean_linker_0, # of connection points: 2
#     Edge 19, Type (0, 1), BuildingBlock: CIFDUS_clean_linker_0, # of connection points: 2
#     Edge 20, Type (0, 1), BuildingBlock: CIFDUS_clean_linker_0, # of connection points: 2
#     Edge 21, Type (0, 1), BuildingBlock: CIFDUS_clean_linker_0, # of connection points: 2
#     Edge 22, Type (0, 1), BuildingBlock: CIFDUS_clean_linker_0, # of connection points: 2
#     Edge 23, Type (0, 1), BuildingBlock: CIFDUS_clean_linker_0, # of connection points: 2
#     Edge 24, Type (0, 1), BuildingBlock: CIFDUS_clean_linker_0, # of connection points: 2
#     Edge 25, Type (0, 1), BuildingBlock: CIFDUS_clean_linker_0, # of connection points: 2
#     Edge 26, Type (0, 1), BuildingBlock: CIFDUS_clean_linker_0, # of connection points: 2
# Relax obj value: 0.187
# Max RMSD: 0.166
# Mean RMSD: 0.122
data_MOF--net-anh--node1-PAMTOO_clean_sbu_0--node2-PAMTOO_clean_linker_0--edge1-CIFDUS_clean_linker_0
_symmetry_space_group_name_H-M    P1
_symmetry_Int_Tables_number       1
_symmetry_cell_setting            triclinic
loop_
_symmetry_equiv_pos_as_xyz
'x, y, z'
_cell_length_a     26.178173
_cell_length_b     25.514965
_cell_length_c     43.249673
_cell_angle_alpha  89.375667
_cell_angle_beta   94.454262
_cell_angle_gamma 97.400792
loop_
_atom_site_label
_atom_site_type_symbol
_atom_site_fract_x
_atom_site_fract_y
_atom_site_fract_z
_atom_type_partial_charge
Dy0 Dy 0.1892 0.55188 0.13698 0.0
Dy1 Dy 0.15424 0.42528 0.14817 0.0
C2 C 0.16435 0.47027 0.08141 0.0
O3 O 1.10175 0.53891 0.12979 0.0
O4 O 1.07724 0.45518 0.14839 0.0
O5 O 0.21511 0.61596 0.10669 0.0
O6 O 0.19007 0.6329 0.15158 0.0
O7 O 0.14302 0.46258 0.19261 0.0
O8 O 0.19625 0.54089 0.18873 0.0
O9 O 0.24166 0.43655 0.14591 0.0
O10 O 0.2671 0.52643 0.147 0.0
O11 O 0.15217 0.35593 0.17745 0.0
O12 O 0.12917 0.34825 0.12836 0.0
C13 C 1.06567 0.50125 0.13801 0.0
O14 O 0.19814 0.50872 0.09304 0.0
O15 O 0.13296 0.44245 0.09903 0.0
C16 C 0.256 0.69315 0.13229 0.0
C17 C 0.3407 0.77296 0.14179 0.0
C18 C 0.34871 0.71992 0.13833 0.0
C19 C 0.30668 0.68028 0.13375 0.0
C20 C 0.24786 0.74585 0.13588 0.0
C21 C 0.2898 0.78544 0.14065 0.0
C22 C 0.21123 0.65234 0.12697 0.0
C23 C 0.16785 0.50608 0.20489 0.0
C24 C 0.27823 0.4777 0.14708 0.0
C25 C 1.08541 0.28863 0.16185 0.0
C26 C 0.99705 0.21956 0.17501 0.0
C27 C 0.99388 0.27354 0.16956 0.0
C28 C 1.03777 0.30784 0.16308 0.0
C29 C 1.08874 0.23486 0.16692 0.0
C30 C 1.0449 0.20053 0.17349 0.0
C31 C 0.13166 0.32428 0.15508 0.0
H32 H 0.38746 0.70902 0.13948 0.0
H33 H 0.31375 0.63967 0.13127 0.0
H34 H 0.20898 0.75645 0.13484 0.0
H35 H 0.2824 0.82597 0.14292 0.0
H36 H 0.95775 0.28951 0.17102 0.0
H37 H 1.03464 0.34936 0.15921 0.0
H38 H 0.12526 0.21947 0.16588 0.0
H39 H 1.0484 0.15908 0.17732 0.0
Dy40 Dy 0.58704 0.08436 0.50225 0.0
Dy41 Dy 0.71427 0.10862 0.51033 0.0
C42 C 0.6471 0.08281 0.56848 0.0
O43 O 0.60568 0.169 0.51645 0.0
O44 O 0.68566 0.18592 0.49765 0.0
O45 O 0.5121 0.08034 0.52061 0.0
O46 O 0.51806 0.06012 0.47267 0.0
O47 O 0.6919 0.09097 0.46038 0.0
O48 O 0.61192 0.11819 0.45731 0.0
O49 O 0.6961 0.02143 0.51947 0.0
O50 O 0.61675 1.00885 0.4921 0.0
O51 O 0.78985 0.0958 0.49739 0.0
O52 O 0.78282 0.15156 0.53364 0.0
C53 C 0.6444 0.20254 0.50775 0.0
O54 O 0.61022 0.05759 0.54996 0.0
O55 O 0.686 0.113 0.5575 0.0
C56 C 0.45345 1.0101 0.49862 0.0
C57 C 0.39025 0.91205 0.50002 0.0
C58 C 0.44004 0.91847 0.51537 0.0
C59 C 0.47145 0.96706 0.51458 0.0
C60 C 0.4036 1.0042 0.48376 0.0
C61 C 0.37221 0.9556 0.48445 0.0
C62 C 0.48784 0.05969 0.49524 0.0
C63 C 0.65163 0.10497 0.44393 0.0
C64 C 0.65708 0.99005 0.50584 0.0
C65 C 0.852 0.17277 0.502 0.0
C66 C 0.9235 0.25206 0.47743 0.0
C67 C 0.88937 0.218 0.45763 0.0
C68 C 0.85385 0.17893 0.46976 0.0
C69 C 0.88649 0.20606 0.52179 0.0
C70 C 0.92169 0.24538 0.50969 0.0
C71 C 0.81379 0.13312 0.51554 0.0
H72 H 0.45526 0.88555 0.52725 0.0
H73 H 0.51017 0.97078 0.52587 0.0
H74 H 0.38928 0.03693 0.47115 0.0
H75 H 0.33382 0.95206 0.47273 0.0
H76 H 0.8901 0.22139 0.43268 0.0
H77 H 0.82768 0.15388 0.45388 0.0
H78 H 0.88566 0.20217 0.54673 0.0
H79 H 0.94668 0.27129 0.5257 0.0
Dy80 Dy 0.75349 0.65488 0.82655 0.0
Dy81 Dy 0.6289 0.63213 0.83165 0.0
C82 C 0.677 0.65655 0.76834 0.0
O83 O 0.73312 0.73038 0.84502 0.0
O84 O 0.64694 0.7203 0.82818 0.0
O85 O 0.81451 0.66193 0.79552 0.0
O86 O 0.83285 0.67368 0.84493 0.0
O87 O 0.66609 0.64385 0.87992 0.0
O88 O 0.74179 0.6131 0.87141 0.0
O89 O 0.65421 0.5515 0.83438 0.0
O90 O 0.73075 0.57075 0.8116 0.0
O91 O 0.55142 0.62915 0.80961 0.0
O92 O 0.56327 0.61292 0.85865 0.0
C93 C 0.68964 0.75029 0.83824 0.0
O94 O 0.71276 0.68654 0.78498 0.0
O95 O 0.64549 0.62138 0.78213 0.0
C96 C 0.88719 0.62765 0.81724 0.0
C97 C 0.95196 0.54901 0.81098 0.0
C98 C 0.9629 0.59888 0.79702 0.0
C99 C 0.93067 0.63789 0.80012 0.0
C100 C 0.8759 0.57795 0.83101 0.0
C101 C 0.90811 0.53915 0.82809 0.0
C102 C 0.85074 0.66653 0.8181 0.0
C103 C 0.70694 0.6221 0.89021 0.0
C104 C 0.69381 0.53629 0.82156 0.0
C105 C 0.49323 0.56328 0.831 0.0
C106 C 0.42195 0.47081 0.82665 0.0
C107 C 0.40528 0.52056 0.8212 0.0
C108 C 0.44073 0.56653 0.82346 0.0
C109 C 0.5102 0.51359 0.83559 0.0
C110 C 0.47481 0.46772 0.83357 0.0
C111 C 0.53002 0.61166 0.83457 0.0
H112 H 0.99605 0.6076 0.78346 0.0
H113 H 0.93925 0.67575 0.7888 0.0
H114 H 0.84188 0.569 0.84385 0.0
H115 H 0.89898 0.50166 0.83969 0.0
H116 H 0.36469 0.52402 0.81606 0.0
H117 H 0.42709 0.6046 0.81977 0.0
H118 H 0.55072 0.51031 0.84116 0.0
H119 H 0.48872 0.42983 0.83753 0.0
H120 H 0.755 0.10188 0.26224 0.0
H121 H 0.60362 1.0126 0.25842 0.0
H122 H 0.68089 0.04319 0.1748 0.0
H123 H 0.56618 0.03625 0.16198 0.0
C124 C 0.55606 0.01913 0.1848 0.0
O125 O 0.59751 0.99695 0.19852 0.0
H126 H 0.54647 0.05168 0.19941 0.0
C127 C 0.72246 0.07992 0.24898 0.0
C128 C 0.72349 0.07512 0.21675 0.0
C129 C 0.67958 0.05768 0.26428 0.0
C130 C 0.63685 0.0307 0.24695 0.0
C131 C 0.63749 0.02555 0.21476 0.0
C132 C 0.68059 0.04792 0.19965 0.0
H133 H 0.66685 0.71541 0.5824 0.0
H134 H 0.6778 0.54856 0.57735 0.0
H135 H 0.7026 0.64768 0.49747 0.0
H136 H 0.6586 0.5327 0.47704 0.0
C137 C 0.65812 0.51943 0.50158 0.0
O138 O 0.69728 0.54985 0.5191 0.0
H139 H 0.61967 0.52508 0.50949 0.0
C140 C 0.67348 0.68103 0.56948 0.0
C141 C 0.68518 0.68745 0.53855 0.0
C142 C 0.67156 0.63145 0.58411 0.0
C143 C 0.67875 0.5872 0.56661 0.0
C144 C 0.68928 0.59282 0.53533 0.0
C145 C 0.69331 0.64319 0.5214 0.0
H146 H 0.17823 0.43337 0.89728 0.0
H147 H 0.21247 0.27939 0.92609 0.0
H148 H 0.15042 0.30365 0.83281 0.0
H149 H 0.21026 0.19676 0.83569 0.0
C150 C 0.22512 0.21404 0.85862 0.0
O151 O 0.18516 0.23453 0.87181 0.0
H152 H 0.23688 0.18111 0.8734 0.0
C153 C 0.18175 0.3928 0.89143 0.0
C154 C 0.16414 0.37334 0.86179 0.0
C155 C 0.19849 0.35925 0.91475 0.0
C156 C 0.20037 0.30594 0.90804 0.0
C157 C 0.18396 0.28622 0.87825 0.0
C158 C 0.16489 0.31964 0.85537 0.0
H159 H 0.13149 0.45655 0.38501 0.0
H160 H 0.22838 0.60521 0.40135 0.0
H161 H 0.16587 0.51731 0.47772 0.0
H162 H 0.18578 0.63336 0.49493 0.0
C163 C 0.1983 0.64302 0.47133 0.0
O164 O 0.22358 0.60274 0.4614 0.0
H165 H 0.16273 0.6471 0.45603 0.0
C166 C 0.15011 0.48733 0.40066 0.0
C167 C 0.14421 0.48174 0.43261 0.0
C168 C 0.1806 0.53153 0.3889 0.0
C169 C 0.20551 0.57028 0.40974 0.0
C170 C 0.20028 0.56479 0.44163 0.0
C171 C 0.1702 0.52048 0.45303 0.0
H172 H 0.66047 0.01784 0.75478 0.0
H173 H 0.65831 0.18611 0.75991 0.0
H174 H 0.64834 0.09136 0.84251 0.0
H175 H 0.72723 0.21545 0.8205 0.0
C176 C 0.69186 0.22105 0.83221 0.0
O177 O 0.64959 0.18804 0.81942 0.0
H178 H 0.69887 0.21059 0.85704 0.0
C179 C 0.65843 0.05312 0.76816 0.0
C180 C 0.65438 0.04873 0.80023 0.0
C181 C 0.66012 0.10242 0.75328 0.0
C182 C 0.65786 0.14778 0.771 0.0
C183 C 0.65382 0.14399 0.80308 0.0
C184 C 0.65209 0.09436 0.81776 0.0
H185 H 0.78363 0.54297 0.06941 0.0
H186 H 0.62084 0.54015 0.07869 0.0
H187 H 0.71848 0.48726 0.15409 0.0
H188 H 0.59318 0.43271 0.14937 0.0
C189 C 0.58357 0.46328 0.13215 0.0
O190 O 0.6223 0.5062 0.13533 0.0
H191 H 0.58221 0.44556 0.10865 0.0
C192 C 0.75055 0.53423 0.08303 0.0
C193 C 0.75794 0.51412 0.11325 0.0
C194 C 0.70152 0.54323 0.07001 0.0
C195 C 0.65895 0.53319 0.08809 0.0
C196 C 0.66445 0.51279 0.11822 0.0
C197 C 0.71402 0.50248 0.1307 0.0
H198 H 0.3644 0.54932 0.13734 0.0
H199 H 0.31837 0.38445 0.15691 0.0
H200 H 0.40758 0.36697 0.15546 0.0
H201 H 0.49888 0.39718 0.1471 0.0
H202 H 0.54541 0.56066 0.12533 0.0
H203 H 0.45665 0.57978 0.12922 0.0
C204 C 0.37382 0.50958 0.14153 0.0
C205 C 0.33395 0.46833 0.14733 0.0
C206 C 0.42573 0.49945 0.14029 0.0
C207 C 0.34755 0.41712 0.15236 0.0
C208 C 0.39885 0.407 0.15154 0.0
C209 C 0.48976 0.4372 0.14365 0.0
C210 C 0.5295 0.4776 0.13681 0.0
C211 C 0.43826 0.44769 0.14536 0.0
C212 C 0.51635 0.52891 0.13143 0.0
C213 C 0.4653 0.53981 0.13348 0.0
H214 H 1.0229 0.28732 0.49907 0.0
H215 H 0.9058 0.31458 0.42684 0.0
H216 H 0.96426 0.38614 0.4061 0.0
H217 H 1.04754 0.44312 0.40932 0.0
H218 H 0.16347 0.41867 0.48262 0.0
H219 H 1.10606 0.3448 0.50253 0.0
C220 C 1.00989 0.30915 0.47896 0.0
C221 C 0.95986 0.2952 0.46457 0.0
C222 C 1.04341 0.35109 0.46744 0.0
C223 C 0.94426 0.32359 0.43816 0.0
C224 C 0.97756 0.36491 0.42638 0.0
C225 C 1.06041 0.42127 0.42948 0.0
C226 C 0.10974 0.43626 0.44442 0.0
C227 C 1.02711 0.37913 0.44089 0.0
C228 C 0.12553 0.40816 0.47084 0.0
C229 C 1.0928 0.36581 0.48215 0.0
H230 H 0.60771 0.80654 0.82865 0.0
H231 H 0.77332 0.826 0.84829 0.0
H232 H 0.77632 0.9214 0.8419 0.0
H233 H 0.73306 0.99866 0.82508 0.0
H234 H 0.5682 0.97904 0.80452 0.0
H235 H 0.56354 0.88476 0.81722 0.0
C236 C 0.64443 0.83162 0.83195 0.0
C237 C 0.69026 0.80873 0.83861 0.0
C238 C 0.646 0.88665 0.82801 0.0
C239 C 0.73738 0.84219 0.84303 0.0
C240 C 0.73921 0.89692 0.83929 0.0
C241 C 0.69609 0.97382 0.82429 0.0
C242 C 0.65092 0.99547 0.81434 0.0
C243 C 0.69396 0.91948 0.83104 0.0
C244 C 0.60324 0.96306 0.81263 0.0
C245 C 0.6007 0.90917 0.81962 0.0
H246 H 0.97647 0.43624 0.15225 0.0
H247 H 1.02853 0.5905 0.11563 0.0
H248 H 0.9398 0.6091 0.10773 0.0
H249 H 0.84694 0.58153 0.1088 0.0
H250 H 0.79179 0.42768 0.14398 0.0
H251 H 0.88143 0.40991 0.15557 0.0
C252 C 0.96849 0.474 0.14262 0.0
C253 C 1.01006 0.51163 0.13438 0.0
C254 C 0.91644 0.48487 0.13802 0.0
C255 C 0.99818 0.5604 0.12212 0.0
C256 C 0.94709 0.57128 0.11759 0.0
C257 C 0.85431 0.54405 0.11913 0.0
C258 C 0.81212 0.50586 0.1252 0.0
C259 C 0.90589 0.53377 0.12512 0.0
C260 C 0.82305 0.45805 0.13918 0.0
C261 C 0.87451 0.44768 0.14551 0.0
H262 H 0.33318 0.8632 0.45088 0.0
H263 H 0.37448 0.84357 0.54845 0.0
H264 H 0.32012 0.75811 0.54805 0.0
H265 H 0.25906 0.68973 0.52012 0.0
H266 H 0.21771 0.7096 0.42273 0.0
H267 H 0.27377 0.7943 0.4228 0.0
C268 C 0.32993 0.84042 0.47211 0.0
C269 C 0.35757 0.8599 0.4997 0.0
C270 C 0.29855 0.79143 0.47171 0.0
C271 C 0.35385 0.82934 0.52687 0.0
C272 C 0.32261 0.78058 0.52669 0.0
C273 C 0.26237 0.71284 0.499 0.0
C274 C 0.23373 0.69434 0.47158 0.0
C275 C 0.29458 0.76137 0.49929 0.0
C276 C 0.23892 0.72379 0.44416 0.0
C277 C 0.27091 0.77204 0.44422 0.0
H278 H 0.62763 0.45216 0.84075 0.0
H279 H 0.7709 0.49087 0.79735 0.0
H280 H 0.78157 0.39757 0.79562 0.0
H281 H 0.75219 0.30481 0.808 0.0
H282 H 0.61051 0.26544 0.85242 0.0
H283 H 0.5971 0.35885 0.852 0.0
C284 C 0.66103 0.44025 0.83071 0.0
C285 C 0.69832 0.47888 0.81919 0.0
C286 C 0.66726 0.38621 0.82996 0.0
C287 C 0.74141 0.46235 0.80636 0.0
C288 C 0.74767 0.40883 0.80539 0.0
C289 C 0.71814 0.31667 0.81732 0.0
C290 C 0.68207 0.27824 0.82994 0.0
C291 C 0.7111 0.37044 0.81732 0.0
C292 C 0.63848 0.29428 0.84229 0.0
C293 C 0.63095 0.34767 0.84215 0.0
H294 H 0.73817 0.9318 0.51653 0.0
H295 H 0.5724 0.91654 0.49823 0.0
H296 H 0.56704 0.82108 0.50321 0.0
H297 H 0.60826 0.74178 0.51675 0.0
H298 H 0.77343 0.75493 0.53426 0.0
H299 H 0.78048 0.85062 0.52504 0.0
C300 C 0.70099 0.90751 0.51346 0.0
C301 C 0.65579 0.93163 0.50731 0.0
C302 C 0.69808 0.85198 0.51595 0.0
C303 C 0.60792 0.89936 0.50304 0.0
C304 C 0.6047 0.84454 0.50587 0.0
C305 C 0.64582 0.76555 0.51758 0.0
C306 C 0.69034 0.7416 0.5256 0.0
C307 C 0.64935 0.82044 0.51271 0.0
C308 C 0.73881 0.77265 0.52744 0.0
C309 C 0.74272 0.82737 0.52255 0.0
H310 H 1.05713 0.564 0.81445 0.0
H311 H 0.92647 0.44198 0.80421 0.0
H312 H 0.98384 0.3743 0.81303 0.0
H313 H 1.06854 0.35149 0.83302 0.0
H314 H 0.19869 0.47356 0.84388 0.0
H315 H 0.14438 0.53945 0.82411 0.0
C316 C 1.04124 0.52262 0.81314 0.0
C317 C 0.98741 0.5082 0.80956 0.0
C318 C 1.07441 0.48388 0.81841 0.0
C319 C 0.96765 0.45425 0.80797 0.0
C320 C 1.00044 0.41547 0.81282 0.0
C321 C 1.08542 0.39212 0.82983 0.0
C322 C 0.13718 0.40796 0.84027 0.0
C323 C 1.05359 0.42997 0.81946 0.0
C324 C 0.15865 0.46075 0.83625 0.0
C325 C 0.12755 0.49844 0.82521 0.0
H326 H 0.35289 0.85437 0.18289 0.0
H327 H 0.42838 0.78639 0.11072 0.0
H328 H 0.50117 0.85664 0.11748 0.0
H329 H 0.54321 0.93802 0.14374 0.0
H330 H 0.46824 1.00518 0.21625 0.0
H331 H 0.3951 0.93508 0.20936 0.0
C332 C 0.38512 0.85517 0.1685 0.0
C333 C 0.38519 0.81528 0.14631 0.0
C334 C 0.42678 0.89568 0.17249 0.0
C335 C 0.42763 0.81634 0.12819 0.0
C336 C 0.46912 0.85665 0.13191 0.0
C337 C 0.5106 0.93723 0.15784 0.0
C338 C 0.5105 0.97688 0.1801 0.0
C339 C 0.46906 0.89656 0.15394 0.0
C340 C 0.46867 0.97533 0.19868 0.0
C341 C 0.42701 0.93524 0.19481 0.0
H342 H 0.71562 0.28555 0.49233 0.0
H343 H 0.56446 0.24976 0.52676 0.0
H344 H 0.55659 0.34357 0.52914 0.0
H345 H 0.5912 0.43613 0.52044 0.0
H346 H 0.74119 0.4733 0.48538 0.0
H347 H 0.75111 0.37897 0.48448 0.0
C348 C 0.68096 0.29822 0.50038 0.0
C349 C 0.64066 0.26023 0.50922 0.0
C350 C 0.6765 0.35267 0.50169 0.0
C351 C 0.59614 0.27773 0.51968 0.0
C352 C 0.59153 0.33156 0.52111 0.0
C353 C 0.62623 0.42356 0.51285 0.0
C354 C 0.66561 0.46158 0.5032 0.0
C355 C 0.6313 0.36938 0.51207 0.0
C356 C 0.71059 0.4447 0.49315 0.0
C357 C 0.71612 0.39081 0.49252 0.0
H358 H 0.41624 0.39314 0.86979 0.0
H359 H 0.34243 0.44087 0.78327 0.0
H360 H 0.27776 0.36262 0.78414 0.0
H361 H 0.2403 0.2827 0.81074 0.0
H362 H 0.31079 0.23846 0.89884 0.0
H363 H 0.37968 0.31261 0.89589 0.0
C364 C 0.38641 0.38593 0.85092 0.0
C365 C 0.3841 0.42244 0.82644 0.0
C366 C 0.34915 0.34138 0.8518 0.0
C367 C 0.3447 0.41335 0.80243 0.0
C368 C 0.30793 0.3686 0.80286 0.0
C369 C 0.27143 0.28894 0.82892 0.0
C370 C 0.27136 0.25495 0.85467 0.0
C371 C 0.3096 0.3326 0.82754 0.0
C372 C 0.3109 0.26375 0.87856 0.0
C373 C 0.34988 0.3063 0.87699 0.0
H374 H 0.89822 0.21371 0.14898 0.0
H375 H 0.99298 0.14531 0.22075 0.0
H376 H 0.91698 0.09062 0.23785 0.0
H377 H 0.82322 0.06704 0.23498 0.0
H378 H 0.72721 0.13704 0.16473 0.0
H379 H 0.80413 0.18582 0.14414 0.0
C380 C 0.90214 0.18677 0.16833 0.0
C381 C 0.95112 0.18379 0.18368 0.0
C382 C 0.85814 0.15578 0.17829 0.0
C383 C 0.95582 0.14805 0.20838 0.0
C384 C 0.91235 0.11698 0.2183 0.0
C385 C 0.81921 0.09283 0.21506 0.0
C386 C 0.76975 0.09903 0.20159 0.0
C387 C 0.86331 0.12122 0.20378 0.0
C388 C 0.76498 0.13161 0.17542 0.0
C389 C 0.80887 0.15976 0.16382 0.0
H390 H 0.24617 0.46639 0.04652 0.0
H391 H 1.08 0.43498 0.04426 0.0
H392 H 1.07663 0.39556 -0.00708 0.0
H393 H 0.12061 0.36784 0.94934 0.0
H394 H 0.28637 0.39621 0.95064 0.0
H395 H 0.29078 0.4382 0.00198 0.0
C396 C 0.20933 0.45173 0.03442 0.0
C397 C 0.16332 0.45396 0.04884 0.0
C398 C 0.2078 0.42759 0.00519 0.0
C399 C 0.1158 0.43386 0.03341 0.0
C400 C 0.11386 0.41104 0.00421 0.0
C401 C 0.15766 0.38268 0.96118 0.0
C402 C 0.20314 0.37845 0.9469 0.0
C403 C 0.15956 0.40701 -0.00987 0.0
C404 C 0.25106 0.3984 0.9618 0.0
C405 C 0.25342 0.42276 -0.00913 0.0
H406 H 0.7242 0.0741 0.40915 0.0
H407 H 0.57369 0.12736 0.40173 0.0
H408 H 0.56811 0.11571 0.34551 0.0
H409 H 0.60597 0.0896 0.29831 0.0
H410 H 0.75632 0.03643 0.30653 0.0
H411 H 0.76174 0.04845 0.36264 0.0
C412 C 0.69021 0.08348 0.3953 0.0
C413 C 0.64948 0.10164 0.4097 0.0
C414 C 0.68705 0.0763 0.36311 0.0
C415 C 0.60574 0.11346 0.39128 0.0
C416 C 0.60238 0.10659 0.35912 0.0
C417 C 0.6396 0.08023 0.31252 0.0
C418 C 0.68069 0.06222 0.29842 0.0
C419 C 0.64268 0.08769 0.3448 0.0
C420 C 0.7244 0.05074 0.31692 0.0
C421 C 0.72752 0.05758 0.34896 0.0
H422 H 0.6271 0.58648 0.72483 0.0
H423 H 0.72619 0.73533 0.73512 0.0
H424 H 0.73331 0.73977 0.6795 0.0
H425 H 0.71531 0.70036 0.62851 0.0
H426 H 0.61473 0.5531 0.6161 0.0
H427 H 0.60548 0.54838 0.6721 0.0
C428 C 0.64969 0.62012 0.7148 0.0
C429 C 0.67618 0.6604 0.73418 0.0
C430 C 0.65406 0.62239 0.68253 0.0
C431 C 0.7056 0.7036 0.72085 0.0
C432 C 0.70983 0.70621 0.689 0.0
C433 C 0.69048 0.66762 0.63783 0.0
C434 C 0.66534 0.62745 0.61801 0.0
C435 C 0.68476 0.66563 0.66972 0.0
C436 C 0.6348 0.58446 0.63083 0.0
C437 C 0.62921 0.58194 0.66281 0.0
H438 H 0.70295 0.14498 0.61294 0.0
H439 H 0.58394 1.01149 0.60037 0.0
H440 H 0.57763 1.00586 0.65639 0.0
H441 H 0.60514 0.03948 0.70888 0.0
H442 H 0.72302 0.17376 0.72136 0.0
H443 H 0.73008 0.17886 0.66532 0.0
C444 C 0.67579 0.11444 0.62243 0.0
C445 C 0.6441 0.07858 0.60247 0.0
C446 C 0.6719 0.11182 0.65462 0.0
C447 C 0.60877 0.03963 0.61518 0.0
C448 C 0.60512 0.03637 0.64722 0.0
C449 C 0.63263 0.06962 0.69932 0.0
C450 C 0.66364 0.10609 0.71922 0.0
C451 C 0.63639 0.07234 0.66713 0.0
C452 C 0.69843 0.14552 0.70649 0.0
C453 C 0.70267 0.14826 0.6745 0.0
H454 H 0.65396 0.648 0.93878 0.0
H455 H 0.77179 0.5549 0.91496 0.0
H456 H 0.77894 0.52133 0.96781 0.0
H457 H 0.75097 0.51672 0.02033 0.0
H458 H 0.6377 0.61401 0.04596 0.0
H459 H 0.62854 0.64623 -0.00732 0.0
C460 C 0.68131 0.6205 0.9452 0.0
C461 C 0.71231 0.60411 0.92287 0.0
C462 C 0.68568 0.60156 0.97588 0.0
C463 C 0.74766 0.56854 0.93164 0.0
C464 C 0.75166 0.54907 0.96187 0.0
C465 C 0.72486 0.54568 0.01457 0.0
C466 C 0.69528 0.56288 0.03741 0.0
C467 C 0.72085 0.56523 0.98415 0.0
C468 C 0.66055 0.59932 0.02894 0.0
C469 C 0.65558 0.6182 -0.00153 0.0
H470 H 0.24042 0.54993 0.24942 0.0
H471 H 1.08084 0.48223 0.23419 0.0
H472 H 1.06971 0.48815 0.28939 0.0
H473 H 1.10608 0.50728 0.34217 0.0
H474 H 0.2673 0.56819 0.35907 0.0
H475 H 0.27675 0.57136 0.30324 0.0
C476 C 0.20318 0.53722 0.25827 0.0
C477 C 0.16158 0.51549 0.23789 0.0
C478 C 0.19735 0.5393 0.29036 0.0
C479 C 0.11354 0.49867 0.24954 0.0
C480 C 1.10711 0.50203 0.28109 0.0
C481 C 0.14346 0.52088 0.33374 0.0
C482 C 0.18598 0.53684 0.35491 0.0
C483 C 0.14897 0.5212 0.30176 0.0
C484 C 0.23374 0.55588 0.34337 0.0
C485 C 0.23929 0.55738 0.31141 0.0
loop_
_geom_bond_atom_site_label_1
_geom_bond_atom_site_label_2
_geom_bond_distance
_geom_bond_site_symmetry_2
_ccdc_geom_bond_type
Dy0 O3 2.307 1_455 S
Dy0 O5 2.395 . S
Dy0 O6 2.379 . S
Dy0 O8 2.339 . S
Dy0 O10 2.298 . S
Dy0 O14 2.275 . S
Dy0 C22 2.738 . S
Dy1 O4 2.298 . S
Dy1 O7 2.275 1_655 S
Dy1 O9 2.307 1_655 S
Dy1 O11 2.395 . S
Dy1 O12 2.379 . S
Dy1 O15 2.339 . S
Dy1 C31 2.738 . S
C2 O14 1.254 . S
C2 O15 1.257 1_455 S
O3 Dy0 2.307 1_655 S
O3 C13 1.266 . S
O4 Dy1 2.298 . S
O4 C13 1.236 . S
O5 Dy0 2.395 . S
O5 C22 1.255 . S
O6 Dy0 2.379 . S
O6 C22 1.249 . S
O7 Dy1 2.275 1_455 S
O7 C23 1.254 . S
O8 Dy0 2.339 . S
O8 C23 1.257 . S
O9 Dy1 2.307 1_455 S
O9 C24 1.266 . S
O10 Dy0 2.298 . S
O10 C24 1.236 . S
O11 Dy1 2.395 . S
O11 C31 1.255 . S
O12 Dy1 2.379 . S
O12 C31 1.249 . S
C13 O3 1.266 . S
C13 O4 1.236 . S
O14 Dy0 2.275 . S
O14 C2 1.254 . S
O15 Dy1 2.339 . S
O15 C2 1.257 1_655 S
C16 C19 1.344 . S
C16 C20 1.328 . S
C16 C22 1.516 . S
C17 C18 1.304 . S
C17 C21 1.323 . S
C18 C17 1.304 . S
C18 C19 1.371 . S
C18 H32 0.930 . S
C19 C16 1.344 . S
C19 C18 1.371 . S
C19 H33 0.931 . S
C20 C16 1.328 . S
C20 C21 1.433 . S
C20 H34 0.931 . S
C21 C17 1.323 . S
C21 C20 1.433 . S
C21 H35 0.933 . S
C22 Dy0 2.738 . S
C22 O5 1.255 . S
C22 O6 1.249 . S
C22 C16 1.516 . S
C23 O7 1.254 . S
C23 O8 1.257 . S
C24 O9 1.266 . S
C24 O10 1.236 . S
C25 C28 1.344 . S
C25 C29 1.328 . S
C25 C31 1.516 . S
C26 C27 1.304 . S
C26 C30 1.323 . S
C27 C26 1.304 . S
C27 C28 1.371 . S
C27 H36 0.930 . S
C28 C25 1.344 . S
C28 C27 1.371 . S
C28 H37 0.931 . S
C29 C25 1.328 . S
C29 C30 1.433 . S
C29 H38 0.931 . S
C30 C26 1.323 . S
C30 C29 1.433 . S
C30 H39 0.933 . S
C31 Dy1 2.738 . S
C31 O11 1.255 . S
C31 O12 1.249 . S
C31 C25 1.516 . S
H32 C18 0.930 . S
H33 C19 0.931 . S
H34 C20 0.931 . S
H35 C21 0.933 . S
H36 C27 0.930 . S
H37 C28 0.931 . S
H38 C29 0.931 . S
H39 C30 0.933 . S
Dy40 O43 2.307 1_565 S
Dy40 O45 2.395 . S
Dy40 O46 2.379 . S
Dy40 O48 2.339 1_565 S
Dy40 O50 2.298 . S
Dy40 O54 2.275 1_565 S
Dy40 C62 2.738 . S
Dy41 O44 2.298 . S
Dy41 O47 2.275 . S
Dy41 O49 2.307 1_545 S
Dy41 O51 2.395 . S
Dy41 O52 2.379 . S
Dy41 O55 2.339 . S
Dy41 C71 2.738 . S
C42 O54 1.254 . S
C42 O55 1.257 . S
O43 Dy40 2.307 1_545 S
O43 C53 1.266 . S
O44 Dy41 2.298 . S
O44 C53 1.236 . S
O45 Dy40 2.395 . S
O45 C62 1.255 . S
O46 Dy40 2.379 . S
O46 C62 1.249 . S
O47 Dy41 2.275 . S
O47 C63 1.254 . S
O48 Dy40 2.339 1_545 S
O48 C63 1.257 . S
O49 Dy41 2.307 1_565 S
O49 C64 1.266 . S
O50 Dy40 2.298 . S
O50 C64 1.236 . S
O51 Dy41 2.395 . S
O51 C71 1.255 . S
O52 Dy41 2.379 . S
O52 C71 1.249 . S
C53 O43 1.266 . S
C53 O44 1.236 . S
O54 Dy40 2.275 1_545 S
O54 C42 1.254 . S
O55 Dy41 2.339 . S
O55 C42 1.257 . S
C56 C59 1.344 . S
C56 C60 1.328 . S
C56 C62 1.516 . S
C57 C58 1.304 . S
C57 C61 1.323 . S
C58 C57 1.304 . S
C58 C59 1.371 . S
C58 H72 0.930 . S
C59 C56 1.344 . S
C59 C58 1.371 . S
C59 H73 0.931 . S
C60 C56 1.328 . S
C60 C61 1.433 . S
C60 H74 0.931 . S
C61 C57 1.323 . S
C61 C60 1.433 . S
C61 H75 0.933 . S
C62 Dy40 2.738 . S
C62 O45 1.255 . S
C62 O46 1.249 . S
C62 C56 1.516 . S
C63 O47 1.254 . S
C63 O48 1.257 . S
C64 O49 1.266 . S
C64 O50 1.236 . S
C65 C68 1.344 . S
C65 C69 1.328 . S
C65 C71 1.516 . S
C66 C67 1.304 . S
C66 C70 1.323 . S
C67 C66 1.304 . S
C67 C68 1.371 . S
C67 H76 0.930 . S
C68 C65 1.344 . S
C68 C67 1.371 . S
C68 H77 0.931 . S
C69 C65 1.328 . S
C69 C70 1.433 . S
C69 H78 0.931 . S
C70 C66 1.323 . S
C70 C69 1.433 . S
C70 H79 0.933 . S
C71 Dy41 2.738 . S
C71 O51 1.255 . S
C71 O52 1.249 . S
C71 C65 1.516 . S
H72 C58 0.930 . S
H73 C59 0.931 . S
H74 C60 0.931 . S
H75 C61 0.933 . S
H76 C67 0.930 . S
H77 C68 0.931 . S
H78 C69 0.931 . S
H79 C70 0.933 . S
Dy80 O83 2.307 . S
Dy80 O85 2.395 . S
Dy80 O86 2.379 . S
Dy80 O88 2.339 . S
Dy80 O90 2.298 . S
Dy80 O94 2.275 . S
Dy80 C102 2.738 . S
Dy81 O84 2.298 . S
Dy81 O87 2.275 . S
Dy81 O89 2.307 . S
Dy81 O91 2.395 . S
Dy81 O92 2.379 . S
Dy81 O95 2.339 . S
Dy81 C111 2.738 . S
C82 O94 1.254 . S
C82 O95 1.257 . S
O83 Dy80 2.307 . S
O83 C93 1.266 . S
O84 Dy81 2.298 . S
O84 C93 1.236 . S
O85 Dy80 2.395 . S
O85 C102 1.255 . S
O86 Dy80 2.379 . S
O86 C102 1.249 . S
O87 Dy81 2.275 . S
O87 C103 1.254 . S
O88 Dy80 2.339 . S
O88 C103 1.257 . S
O89 Dy81 2.307 . S
O89 C104 1.266 . S
O90 Dy80 2.298 . S
O90 C104 1.236 . S
O91 Dy81 2.395 . S
O91 C111 1.255 . S
O92 Dy81 2.379 . S
O92 C111 1.249 . S
C93 O83 1.266 . S
C93 O84 1.236 . S
O94 Dy80 2.275 . S
O94 C82 1.254 . S
O95 Dy81 2.339 . S
O95 C82 1.257 . S
C96 C99 1.344 . S
C96 C100 1.328 . S
C96 C102 1.516 . S
C97 C98 1.304 . S
C97 C101 1.323 . S
C98 C97 1.304 . S
C98 C99 1.371 . S
C98 H112 0.930 . S
C99 C96 1.344 . S
C99 C98 1.371 . S
C99 H113 0.931 . S
C100 C96 1.328 . S
C100 C101 1.433 . S
C100 H114 0.931 . S
C101 C97 1.323 . S
C101 C100 1.433 . S
C101 H115 0.933 . S
C102 Dy80 2.738 . S
C102 O85 1.255 . S
C102 O86 1.249 . S
C102 C96 1.516 . S
C103 O87 1.254 . S
C103 O88 1.257 . S
C104 O89 1.266 . S
C104 O90 1.236 . S
C105 C108 1.344 . S
C105 C109 1.328 . S
C105 C111 1.516 . S
C106 C107 1.304 . S
C106 C110 1.323 . S
C107 C106 1.304 . S
C107 C108 1.371 . S
C107 H116 0.930 . S
C108 C105 1.344 . S
C108 C107 1.371 . S
C108 H117 0.931 . S
C109 C105 1.328 . S
C109 C110 1.433 . S
C109 H118 0.931 . S
C110 C106 1.323 . S
C110 C109 1.433 . S
C110 H119 0.933 . S
C111 Dy81 2.738 . S
C111 O91 1.255 . S
C111 O92 1.249 . S
C111 C105 1.516 . S
H112 C98 0.930 . S
H113 C99 0.931 . S
H114 C100 0.931 . S
H115 C101 0.933 . S
H116 C107 0.930 . S
H117 C108 0.931 . S
H118 C109 0.931 . S
H119 C110 0.933 . S
H120 C127 0.929 . S
H121 C130 0.930 1_565 S
H122 C132 0.929 . S
H123 C124 0.969 . S
C124 H123 0.969 . S
C124 O125 1.550 . S
C124 H126 0.973 . S
O125 C124 1.550 . S
O125 C131 1.412 1_565 S
H126 C124 0.973 . S
C127 H120 0.929 . S
C127 C128 1.400 . S
C127 C129 1.364 . S
C128 C127 1.400 . S
C128 C132 1.377 . S
C129 C127 1.364 . S
C129 C130 1.374 . S
C130 H121 0.930 1_545 S
C130 C129 1.374 . S
C130 C131 1.383 . S
C131 O125 1.412 1_545 S
C131 C130 1.383 . S
C131 C132 1.394 . S
C132 H122 0.929 . S
C132 C128 1.377 . S
C132 C131 1.394 . S
H133 C140 0.929 . S
H134 C143 0.930 . S
H135 C145 0.929 . S
H136 C137 0.969 . S
C137 H136 0.969 . S
C137 O138 1.550 . S
C137 H139 0.973 . S
O138 C137 1.550 . S
O138 C144 1.412 . S
H139 C137 0.973 . S
C140 H133 0.929 . S
C140 C141 1.400 . S
C140 C142 1.364 . S
C141 C140 1.400 . S
C141 C145 1.377 . S
C142 C140 1.364 . S
C142 C143 1.374 . S
C143 H134 0.930 . S
C143 C142 1.374 . S
C143 C144 1.383 . S
C144 O138 1.412 . S
C144 C143 1.383 . S
C144 C145 1.394 . S
C145 H135 0.929 . S
C145 C141 1.377 . S
C145 C144 1.394 . S
H146 C153 0.929 1_655 S
H147 C156 0.930 . S
H148 C158 0.929 . S
H149 C150 0.969 . S
C150 H149 0.969 . S
C150 O151 1.550 . S
C150 H152 0.973 . S
O151 C150 1.550 . S
O151 C157 1.412 . S
H152 C150 0.973 . S
C153 H146 0.929 1_455 S
C153 C154 1.400 . S
C153 C155 1.364 . S
C154 C153 1.400 . S
C154 C158 1.377 . S
C155 C153 1.364 . S
C155 C156 1.374 . S
C156 H147 0.930 . S
C156 C155 1.374 . S
C156 C157 1.383 . S
C157 O151 1.412 . S
C157 C156 1.383 . S
C157 C158 1.394 . S
C158 H148 0.929 . S
C158 C154 1.377 . S
C158 C157 1.394 . S
H159 C166 0.929 1_655 S
H160 C169 0.930 . S
H161 C171 0.929 . S
H162 C163 0.969 . S
C163 H162 0.969 . S
C163 O164 1.550 . S
C163 H165 0.973 . S
O164 C163 1.550 . S
O164 C170 1.412 . S
H165 C163 0.973 . S
C166 H159 0.929 1_455 S
C166 C167 1.400 . S
C166 C168 1.364 . S
C167 C166 1.400 . S
C167 C171 1.377 . S
C168 C166 1.364 . S
C168 C169 1.374 . S
C169 H160 0.930 . S
C169 C168 1.374 . S
C169 C170 1.383 . S
C170 O164 1.412 . S
C170 C169 1.383 . S
C170 C171 1.394 . S
C171 H161 0.929 . S
C171 C167 1.377 . S
C171 C170 1.394 . S
H172 C179 0.929 . S
H173 C182 0.930 . S
H174 C184 0.929 . S
H175 C176 0.969 . S
C176 H175 0.969 . S
C176 O177 1.550 . S
C176 H178 0.973 . S
O177 C176 1.550 . S
O177 C183 1.412 . S
H178 C176 0.973 . S
C179 H172 0.929 . S
C179 C180 1.400 . S
C179 C181 1.364 1_565 S
C180 C179 1.400 . S
C180 C184 1.377 . S
C181 C179 1.364 1_545 S
C181 C182 1.374 . S
C182 H173 0.930 . S
C182 C181 1.374 . S
C182 C183 1.383 . S
C183 O177 1.412 . S
C183 C182 1.383 . S
C183 C184 1.394 1_545 S
C184 H174 0.929 . S
C184 C180 1.377 . S
C184 C183 1.394 1_565 S
H185 C192 0.929 . S
H186 C195 0.930 . S
H187 C197 0.929 . S
H188 C189 0.969 . S
C189 H188 0.969 . S
C189 O190 1.550 . S
C189 H191 0.973 . S
O190 C189 1.550 . S
O190 C196 1.412 . S
H191 C189 0.973 . S
C192 H185 0.929 . S
C192 C193 1.400 . S
C192 C194 1.364 . S
C193 C192 1.400 . S
C193 C197 1.377 . S
C194 C192 1.364 . S
C194 C195 1.374 . S
C195 H186 0.930 . S
C195 C194 1.374 . S
C195 C196 1.383 . S
C196 O190 1.412 . S
C196 C195 1.383 . S
C196 C197 1.394 . S
C197 H187 0.929 . S
C197 C193 1.377 . S
C197 C196 1.394 . S
H198 C204 0.930 . S
H199 C207 0.930 . S
H200 C208 0.930 . S
H201 C209 0.930 . S
H202 C212 0.930 . S
H203 C213 0.930 . S
C204 H198 0.930 . S
C204 C205 1.355 . S
C204 C206 1.415 . S
C205 C204 1.355 . S
C205 C207 1.419 . S
C206 C204 1.415 . S
C206 C211 1.425 . S
C206 C213 1.409 . S
C207 H199 0.930 . S
C207 C205 1.419 . S
C207 C208 1.362 . S
C208 H200 0.930 . S
C208 C207 1.362 . S
C208 C211 1.409 . S
C209 H201 0.930 . S
C209 C210 1.355 . S
C209 C211 1.415 . S
C210 C209 1.355 . S
C210 C212 1.419 . S
C211 C206 1.425 . S
C211 C208 1.409 . S
C211 C209 1.415 . S
C212 H202 0.930 . S
C212 C210 1.419 . S
C212 C213 1.362 . S
C213 H203 0.930 . S
C213 C206 1.409 . S
C213 C212 1.362 . S
H214 C220 0.930 . S
H215 C223 0.930 . S
H216 C224 0.930 . S
H217 C225 0.930 . S
H218 C228 0.930 . S
H219 C229 0.930 1_455 S
C220 H214 0.930 . S
C220 C221 1.355 . S
C220 C222 1.415 . S
C221 C220 1.355 . S
C221 C223 1.419 . S
C222 C220 1.415 . S
C222 C227 1.425 . S
C222 C229 1.409 . S
C223 H215 0.930 . S
C223 C221 1.419 . S
C223 C224 1.362 . S
C224 H216 0.930 . S
C224 C223 1.362 . S
C224 C227 1.409 . S
C225 H217 0.930 . S
C225 C226 1.355 . S
C225 C227 1.415 . S
C226 C225 1.355 . S
C226 C228 1.419 1_655 S
C227 C222 1.425 . S
C227 C224 1.409 . S
C227 C225 1.415 . S
C228 H218 0.930 . S
C228 C226 1.419 1_455 S
C228 C229 1.362 1_455 S
C229 H219 0.930 1_655 S
C229 C222 1.409 . S
C229 C228 1.362 1_655 S
H230 C236 0.930 . S
H231 C239 0.930 . S
H232 C240 0.930 . S
H233 C241 0.930 . S
H234 C244 0.930 . S
H235 C245 0.930 . S
C236 H230 0.930 . S
C236 C237 1.355 . S
C236 C238 1.415 . S
C237 C236 1.355 . S
C237 C239 1.419 . S
C238 C236 1.415 . S
C238 C243 1.425 . S
C238 C245 1.409 . S
C239 H231 0.930 . S
C239 C237 1.419 . S
C239 C240 1.362 . S
C240 H232 0.930 . S
C240 C239 1.362 . S
C240 C243 1.409 . S
C241 H233 0.930 . S
C241 C242 1.355 . S
C241 C243 1.415 . S
C242 C241 1.355 . S
C242 C244 1.419 . S
C243 C238 1.425 . S
C243 C240 1.409 . S
C243 C241 1.415 . S
C244 H234 0.930 . S
C244 C242 1.419 . S
C244 C245 1.362 . S
C245 H235 0.930 . S
C245 C238 1.409 . S
C245 C244 1.362 . S
H246 C252 0.930 . S
H247 C255 0.930 . S
H248 C256 0.930 . S
H249 C257 0.930 . S
H250 C260 0.930 . S
H251 C261 0.930 . S
C252 H246 0.930 . S
C252 C253 1.355 . S
C252 C254 1.415 . S
C253 C252 1.355 . S
C253 C255 1.419 . S
C254 C252 1.415 . S
C254 C259 1.425 . S
C254 C261 1.409 . S
C255 H247 0.930 . S
C255 C253 1.419 . S
C255 C256 1.362 . S
C256 H248 0.930 . S
C256 C255 1.362 . S
C256 C259 1.409 . S
C257 H249 0.930 . S
C257 C258 1.355 . S
C257 C259 1.415 . S
C258 C257 1.355 . S
C258 C260 1.419 . S
C259 C254 1.425 . S
C259 C256 1.409 . S
C259 C257 1.415 . S
C260 H250 0.930 . S
C260 C258 1.419 . S
C260 C261 1.362 . S
C261 H251 0.930 . S
C261 C254 1.409 . S
C261 C260 1.362 . S
H262 C268 0.930 . S
H263 C271 0.930 . S
H264 C272 0.930 . S
H265 C273 0.930 . S
H266 C276 0.930 . S
H267 C277 0.930 . S
C268 H262 0.930 . S
C268 C269 1.355 . S
C268 C270 1.415 . S
C269 C268 1.355 . S
C269 C271 1.419 . S
C270 C268 1.415 . S
C270 C275 1.425 . S
C270 C277 1.409 . S
C271 H263 0.930 . S
C271 C269 1.419 . S
C271 C272 1.362 . S
C272 H264 0.930 . S
C272 C271 1.362 . S
C272 C275 1.409 . S
C273 H265 0.930 . S
C273 C274 1.355 . S
C273 C275 1.415 . S
C274 C273 1.355 . S
C274 C276 1.419 . S
C275 C270 1.425 . S
C275 C272 1.409 . S
C275 C273 1.415 . S
C276 H266 0.930 . S
C276 C274 1.419 . S
C276 C277 1.362 . S
C277 H267 0.930 . S
C277 C270 1.409 . S
C277 C276 1.362 . S
H278 C284 0.930 . S
H279 C287 0.930 . S
H280 C288 0.930 . S
H281 C289 0.930 . S
H282 C292 0.930 . S
H283 C293 0.930 . S
C284 H278 0.930 . S
C284 C285 1.355 . S
C284 C286 1.415 . S
C285 C284 1.355 . S
C285 C287 1.419 . S
C286 C284 1.415 . S
C286 C291 1.425 . S
C286 C293 1.409 . S
C287 H279 0.930 . S
C287 C285 1.419 . S
C287 C288 1.362 . S
C288 H280 0.930 . S
C288 C287 1.362 . S
C288 C291 1.409 . S
C289 H281 0.930 . S
C289 C290 1.355 . S
C289 C291 1.415 . S
C290 C289 1.355 . S
C290 C292 1.419 . S
C291 C286 1.425 . S
C291 C288 1.409 . S
C291 C289 1.415 . S
C292 H282 0.930 . S
C292 C290 1.419 . S
C292 C293 1.362 . S
C293 H283 0.930 . S
C293 C286 1.409 . S
C293 C292 1.362 . S
H294 C300 0.930 . S
H295 C303 0.930 . S
H296 C304 0.930 . S
H297 C305 0.930 . S
H298 C308 0.930 . S
H299 C309 0.930 . S
C300 H294 0.930 . S
C300 C301 1.355 . S
C300 C302 1.415 . S
C301 C300 1.355 . S
C301 C303 1.419 . S
C302 C300 1.415 . S
C302 C307 1.425 . S
C302 C309 1.409 . S
C303 H295 0.930 . S
C303 C301 1.419 . S
C303 C304 1.362 . S
C304 H296 0.930 . S
C304 C303 1.362 . S
C304 C307 1.409 . S
C305 H297 0.930 . S
C305 C306 1.355 . S
C305 C307 1.415 . S
C306 C305 1.355 . S
C306 C308 1.419 . S
C307 C302 1.425 . S
C307 C304 1.409 . S
C307 C305 1.415 . S
C308 H298 0.930 . S
C308 C306 1.419 . S
C308 C309 1.362 . S
C309 H299 0.930 . S
C309 C302 1.409 . S
C309 C308 1.362 . S
H310 C316 0.930 . S
H311 C319 0.930 . S
H312 C320 0.930 . S
H313 C321 0.930 . S
H314 C324 0.930 . S
H315 C325 0.930 . S
C316 H310 0.930 . S
C316 C317 1.355 . S
C316 C318 1.415 . S
C317 C316 1.355 . S
C317 C319 1.419 . S
C318 C316 1.415 . S
C318 C323 1.425 . S
C318 C325 1.409 . S
C319 H311 0.930 . S
C319 C317 1.419 . S
C319 C320 1.362 . S
C320 H312 0.930 . S
C320 C319 1.362 . S
C320 C323 1.409 . S
C321 H313 0.930 . S
C321 C322 1.355 . S
C321 C323 1.415 . S
C322 C321 1.355 . S
C322 C324 1.419 . S
C323 C318 1.425 . S
C323 C320 1.409 . S
C323 C321 1.415 . S
C324 H314 0.930 . S
C324 C322 1.419 . S
C324 C325 1.362 . S
C325 H315 0.930 . S
C325 C318 1.409 . S
C325 C324 1.362 . S
H326 C332 0.930 . S
H327 C335 0.930 . S
H328 C336 0.930 . S
H329 C337 0.930 . S
H330 C340 0.930 . S
H331 C341 0.930 . S
C332 H326 0.930 . S
C332 C333 1.355 . S
C332 C334 1.415 . S
C333 C332 1.355 . S
C333 C335 1.419 . S
C334 C332 1.415 . S
C334 C339 1.425 . S
C334 C341 1.409 . S
C335 H327 0.930 . S
C335 C333 1.419 . S
C335 C336 1.362 . S
C336 H328 0.930 . S
C336 C335 1.362 . S
C336 C339 1.409 . S
C337 H329 0.930 . S
C337 C338 1.355 . S
C337 C339 1.415 . S
C338 C337 1.355 . S
C338 C340 1.419 . S
C339 C334 1.425 . S
C339 C336 1.409 . S
C339 C337 1.415 . S
C340 H330 0.930 . S
C340 C338 1.419 . S
C340 C341 1.362 . S
C341 H331 0.930 . S
C341 C334 1.409 . S
C341 C340 1.362 . S
H342 C348 0.930 . S
H343 C351 0.930 . S
H344 C352 0.930 . S
H345 C353 0.930 . S
H346 C356 0.930 . S
H347 C357 0.930 . S
C348 H342 0.930 . S
C348 C349 1.355 . S
C348 C350 1.415 . S
C349 C348 1.355 . S
C349 C351 1.419 . S
C350 C348 1.415 . S
C350 C355 1.425 . S
C350 C357 1.409 . S
C351 H343 0.930 . S
C351 C349 1.419 . S
C351 C352 1.362 . S
C352 H344 0.930 . S
C352 C351 1.362 . S
C352 C355 1.409 . S
C353 H345 0.930 . S
C353 C354 1.355 . S
C353 C355 1.415 . S
C354 C353 1.355 . S
C354 C356 1.419 . S
C355 C350 1.425 . S
C355 C352 1.409 . S
C355 C353 1.415 . S
C356 H346 0.930 . S
C356 C354 1.419 . S
C356 C357 1.362 . S
C357 H347 0.930 . S
C357 C350 1.409 . S
C357 C356 1.362 . S
H358 C364 0.930 . S
H359 C367 0.930 . S
H360 C368 0.930 . S
H361 C369 0.930 . S
H362 C372 0.930 . S
H363 C373 0.930 . S
C364 H358 0.930 . S
C364 C365 1.355 . S
C364 C366 1.415 . S
C365 C364 1.355 . S
C365 C367 1.419 . S
C366 C364 1.415 . S
C366 C371 1.425 . S
C366 C373 1.409 . S
C367 H359 0.930 . S
C367 C365 1.419 . S
C367 C368 1.362 . S
C368 H360 0.930 . S
C368 C367 1.362 . S
C368 C371 1.409 . S
C369 H361 0.930 . S
C369 C370 1.355 . S
C369 C371 1.415 . S
C370 C369 1.355 . S
C370 C372 1.419 . S
C371 C366 1.425 . S
C371 C368 1.409 . S
C371 C369 1.415 . S
C372 H362 0.930 . S
C372 C370 1.419 . S
C372 C373 1.362 . S
C373 H363 0.930 . S
C373 C366 1.409 . S
C373 C372 1.362 . S
H374 C380 0.930 . S
H375 C383 0.930 . S
H376 C384 0.930 . S
H377 C385 0.930 . S
H378 C388 0.930 . S
H379 C389 0.930 . S
C380 H374 0.930 . S
C380 C381 1.355 . S
C380 C382 1.415 . S
C381 C380 1.355 . S
C381 C383 1.419 . S
C382 C380 1.415 . S
C382 C387 1.425 . S
C382 C389 1.409 . S
C383 H375 0.930 . S
C383 C381 1.419 . S
C383 C384 1.362 . S
C384 H376 0.930 . S
C384 C383 1.362 . S
C384 C387 1.409 . S
C385 H377 0.930 . S
C385 C386 1.355 . S
C385 C387 1.415 . S
C386 C385 1.355 . S
C386 C388 1.419 . S
C387 C382 1.425 . S
C387 C384 1.409 . S
C387 C385 1.415 . S
C388 H378 0.930 . S
C388 C386 1.419 . S
C388 C389 1.362 . S
C389 H379 0.930 . S
C389 C382 1.409 . S
C389 C388 1.362 . S
H390 C396 0.930 . S
H391 C399 0.930 . S
H392 C400 0.930 . S
H393 C401 0.930 . S
H394 C404 0.930 . S
H395 C405 0.928 1_554 S
C396 H390 0.930 . S
C396 C397 1.355 . S
C396 C398 1.415 . S
C397 C396 1.355 . S
C397 C399 1.419 . S
C398 C396 1.415 . S
C398 C403 1.425 . S
C398 C405 1.409 1_554 S
C399 H391 0.930 . S
C399 C397 1.419 . S
C399 C400 1.362 . S
C400 H392 0.930 . S
C400 C399 1.362 . S
C400 C403 1.409 . S
C401 H393 0.930 . S
C401 C402 1.355 . S
C401 C403 1.415 1_556 S
C402 C401 1.355 . S
C402 C404 1.419 . S
C403 C398 1.425 . S
C403 C400 1.409 . S
C403 C401 1.415 1_554 S
C404 H394 0.930 . S
C404 C402 1.419 . S
C404 C405 1.362 . S
C405 H395 0.928 1_556 S
C405 C398 1.409 1_556 S
C405 C404 1.362 . S
H406 C412 0.930 . S
H407 C415 0.930 . S
H408 C416 0.930 . S
H409 C417 0.930 . S
H410 C420 0.930 . S
H411 C421 0.930 . S
C412 H406 0.930 . S
C412 C413 1.355 . S
C412 C414 1.415 . S
C413 C412 1.355 . S
C413 C415 1.419 . S
C414 C412 1.415 . S
C414 C419 1.425 . S
C414 C421 1.409 . S
C415 H407 0.930 . S
C415 C413 1.419 . S
C415 C416 1.362 . S
C416 H408 0.930 . S
C416 C415 1.362 . S
C416 C419 1.409 . S
C417 H409 0.930 . S
C417 C418 1.355 . S
C417 C419 1.415 . S
C418 C417 1.355 . S
C418 C420 1.419 . S
C419 C414 1.425 . S
C419 C416 1.409 . S
C419 C417 1.415 . S
C420 H410 0.930 . S
C420 C418 1.419 . S
C420 C421 1.362 . S
C421 H411 0.930 . S
C421 C414 1.409 . S
C421 C420 1.362 . S
H422 C428 0.930 . S
H423 C431 0.930 . S
H424 C432 0.930 . S
H425 C433 0.930 . S
H426 C436 0.930 . S
H427 C437 0.930 . S
C428 H422 0.930 . S
C428 C429 1.355 . S
C428 C430 1.415 . S
C429 C428 1.355 . S
C429 C431 1.419 . S
C430 C428 1.415 . S
C430 C435 1.425 . S
C430 C437 1.409 . S
C431 H423 0.930 . S
C431 C429 1.419 . S
C431 C432 1.362 . S
C432 H424 0.930 . S
C432 C431 1.362 . S
C432 C435 1.409 . S
C433 H425 0.930 . S
C433 C434 1.355 . S
C433 C435 1.415 . S
C434 C433 1.355 . S
C434 C436 1.419 . S
C435 C430 1.425 . S
C435 C432 1.409 . S
C435 C433 1.415 . S
C436 H426 0.930 . S
C436 C434 1.419 . S
C436 C437 1.362 . S
C437 H427 0.930 . S
C437 C430 1.409 . S
C437 C436 1.362 . S
H438 C444 0.930 . S
H439 C447 0.930 . S
H440 C448 0.930 . S
H441 C449 0.930 . S
H442 C452 0.930 . S
H443 C453 0.930 . S
C444 H438 0.930 . S
C444 C445 1.355 1_545 S
C444 C446 1.415 . S
C445 C444 1.355 1_565 S
C445 C447 1.419 . S
C446 C444 1.415 . S
C446 C451 1.425 1_545 S
C446 C453 1.409 . S
C447 H439 0.930 . S
C447 C445 1.419 . S
C447 C448 1.362 . S
C448 H440 0.930 . S
C448 C447 1.362 . S
C448 C451 1.409 . S
C449 H441 0.930 . S
C449 C450 1.355 1_565 S
C449 C451 1.415 . S
C450 C449 1.355 1_545 S
C450 C452 1.419 . S
C451 C446 1.425 1_565 S
C451 C448 1.409 . S
C451 C449 1.415 . S
C452 H442 0.930 . S
C452 C450 1.419 . S
C452 C453 1.362 . S
C453 H443 0.930 . S
C453 C446 1.409 . S
C453 C452 1.362 . S
H454 C460 0.930 . S
H455 C463 0.930 . S
H456 C464 0.930 . S
H457 C465 0.930 . S
H458 C468 0.930 . S
H459 C469 0.930 . S
C460 H454 0.930 . S
C460 C461 1.355 . S
C460 C462 1.415 . S
C461 C460 1.355 . S
C461 C463 1.419 . S
C462 C460 1.415 . S
C462 C467 1.425 . S
C462 C469 1.409 . S
C463 H455 0.930 . S
C463 C461 1.419 . S
C463 C464 1.362 . S
C464 H456 0.930 . S
C464 C463 1.362 . S
C464 C467 1.409 . S
C465 H457 0.930 . S
C465 C466 1.355 . S
C465 C467 1.415 1_554 S
C466 C465 1.355 . S
C466 C468 1.419 . S
C467 C462 1.425 . S
C467 C464 1.409 . S
C467 C465 1.415 1_556 S
C468 H458 0.930 . S
C468 C466 1.419 . S
C468 C469 1.362 1_554 S
C469 H459 0.930 . S
C469 C462 1.409 . S
C469 C468 1.362 1_556 S
H470 C476 0.930 . S
H471 C479 0.930 . S
H472 C480 0.930 . S
H473 C481 0.930 1_655 S
H474 C484 0.930 . S
H475 C485 0.930 . S
C476 H470 0.930 . S
C476 C477 1.355 . S
C476 C478 1.415 . S
C477 C476 1.355 . S
C477 C479 1.419 1_455 S
C478 C476 1.415 . S
C478 C483 1.425 . S
C478 C485 1.409 . S
C479 H471 0.930 . S
C479 C477 1.419 1_655 S
C479 C480 1.362 . S
C480 H472 0.930 . S
C480 C479 1.362 . S
C480 C483 1.409 1_655 S
C481 H473 0.930 1_455 S
C481 C482 1.355 . S
C481 C483 1.415 . S
C482 C481 1.355 . S
C482 C484 1.419 . S
C483 C478 1.425 . S
C483 C480 1.409 1_455 S
C483 C481 1.415 . S
C484 H474 0.930 . S
C484 C482 1.419 . S
C484 C485 1.362 . S
C485 H475 0.930 . S
C485 C478 1.409 . S
C485 C484 1.362 . S
C205 C24 3.051 . S
C210 C189 2.873 . S
C221 C66 1.100 . S
C226 C167 1.154 1_655 S
C237 C93 1.751 . S
C242 C180 1.725 . S
C253 C13 3.037 . S
C258 C193 2.986 . S
C274 C163 1.294 . S
C269 C57 1.341 . S
C290 C176 1.822 . S
C285 C104 2.013 . S
C301 C64 1.856 . S
C306 C141 1.809 . S
C317 C97 0.527 . S
C322 C154 0.412 1_655 S
C333 C17 1.390 . S
C338 C124 1.302 . S
C354 C137 1.732 . S
C349 C53 1.865 . S
C370 C150 0.478 . S
C365 C106 0.478 . S
C381 C26 1.192 . S
C386 C128 1.203 . S
C402 C155 1.172 . S
C397 C2 1.129 . S
C413 C63 1.477 . S
C418 C129 1.571 . S
C429 C82 1.424 . S
C434 C142 1.421 . S
C450 C181 1.538 . S
C445 C42 1.526 1_565 S
C466 C194 1.746 . S
C461 C103 1.689 . S
C477 C23 1.535 . S
C482 C168 1.573 . S
