# Generated by pormake.
# Topology ptr, (4,4)-cn, num edge types: 1
# Building blocks:
#     Node 0, Type 0, BuildingBlock: CEKHIL_clean_sbu_0, # of connection points: 4
#     Node 1, Type 0, BuildingBlock: CEKHIL_clean_sbu_0, # of connection points: 4
#     Node 2, Type 0, BuildingBlock: CEKHIL_clean_sbu_0, # of connection points: 4
#     Node 3, Type 0, BuildingBlock: CEKHIL_clean_sbu_0, # of connection points: 4
#     Node 4, Type 0, BuildingBlock: CEKHIL_clean_sbu_0, # of connection points: 4
#     Node 5, Type 0, BuildingBlock: CEKHIL_clean_sbu_0, # of connection points: 4
#     Node 6, Type 0, BuildingBlock: CEKHIL_clean_sbu_0, # of connection points: 4
#     Node 7, Type 0, BuildingBlock: CEKHIL_clean_sbu_0, # of connection points: 4
#     Node 8, Type 0, BuildingBlock: CEKHIL_clean_sbu_0, # of connection points: 4
#     Node 9, Type 0, BuildingBlock: CEKHIL_clean_sbu_0, # of connection points: 4
#     Node 10, Type 0, BuildingBlock: CEKHIL_clean_sbu_0, # of connection points: 4
#     Node 11, Type 0, BuildingBlock: CEKHIL_clean_sbu_0, # of connection points: 4
#     Node 12, Type 0, BuildingBlock: CEKHIL_clean_sbu_0, # of connection points: 4
#     Node 13, Type 0, BuildingBlock: CEKHIL_clean_sbu_0, # of connection points: 4
#     Node 14, Type 0, BuildingBlock: CEKHIL_clean_sbu_0, # of connection points: 4
#     Node 15, Type 0, BuildingBlock: CEKHIL_clean_sbu_0, # of connection points: 4
#     Node 16, Type 0, BuildingBlock: CEKHIL_clean_sbu_0, # of connection points: 4
#     Node 17, Type 0, BuildingBlock: CEKHIL_clean_sbu_0, # of connection points: 4
#     Node 18, Type 1, BuildingBlock: NAWXER_clean_linker_0, # of connection points: 4
#     Node 19, Type 1, BuildingBlock: NAWXER_clean_linker_0, # of connection points: 4
#     Node 20, Type 1, BuildingBlock: NAWXER_clean_linker_0, # of connection points: 4
#     Node 21, Type 1, BuildingBlock: NAWXER_clean_linker_0, # of connection points: 4
#     Node 22, Type 1, BuildingBlock: NAWXER_clean_linker_0, # of connection points: 4
#     Node 23, Type 1, BuildingBlock: NAWXER_clean_linker_0, # of connection points: 4
#     Node 24, Type 1, BuildingBlock: NAWXER_clean_linker_0, # of connection points: 4
#     Node 25, Type 1, BuildingBlock: NAWXER_clean_linker_0, # of connection points: 4
#     Node 26, Type 1, BuildingBlock: NAWXER_clean_linker_0, # of connection points: 4
#     Node 27, Type 1, BuildingBlock: NAWXER_clean_linker_0, # of connection points: 4
#     Node 28, Type 1, BuildingBlock: NAWXER_clean_linker_0, # of connection points: 4
#     Node 29, Type 1, BuildingBlock: NAWXER_clean_linker_0, # of connection points: 4
#     Node 30, Type 1, BuildingBlock: NAWXER_clean_linker_0, # of connection points: 4
#     Node 31, Type 1, BuildingBlock: NAWXER_clean_linker_0, # of connection points: 4
#     Node 32, Type 1, BuildingBlock: NAWXER_clean_linker_0, # of connection points: 4
#     Node 33, Type 1, BuildingBlock: NAWXER_clean_linker_0, # of connection points: 4
#     Node 34, Type 1, BuildingBlock: NAWXER_clean_linker_0, # of connection points: 4
#     Node 35, Type 1, BuildingBlock: NAWXER_clean_linker_0, # of connection points: 4
#     Edge 36, Type (0, 1), BuildingBlock: CIFDUS_clean_linker_0, # of connection points: 2
#     Edge 37, Type (0, 1), BuildingBlock: CIFDUS_clean_linker_0, # of connection points: 2
#     Edge 38, Type (0, 1), BuildingBlock: CIFDUS_clean_linker_0, # of connection points: 2
#     Edge 39, Type (0, 1), BuildingBlock: CIFDUS_clean_linker_0, # of connection points: 2
#     Edge 40, Type (0, 1), BuildingBlock: CIFDUS_clean_linker_0, # of connection points: 2
#     Edge 41, Type (0, 1), BuildingBlock: CIFDUS_clean_linker_0, # of connection points: 2
#     Edge 42, Type (0, 1), BuildingBlock: CIFDUS_clean_linker_0, # of connection points: 2
#     Edge 43, Type (0, 1), BuildingBlock: CIFDUS_clean_linker_0, # of connection points: 2
#     Edge 44, Type (0, 1), BuildingBlock: CIFDUS_clean_linker_0, # of connection points: 2
#     Edge 45, Type (0, 1), BuildingBlock: CIFDUS_clean_linker_0, # of connection points: 2
#     Edge 46, Type (0, 1), BuildingBlock: CIFDUS_clean_linker_0, # of connection points: 2
#     Edge 47, Type (0, 1), BuildingBlock: CIFDUS_clean_linker_0, # of connection points: 2
#     Edge 48, Type (0, 1), BuildingBlock: CIFDUS_clean_linker_0, # of connection points: 2
#     Edge 49, Type (0, 1), BuildingBlock: CIFDUS_clean_linker_0, # of connection points: 2
#     Edge 50, Type (0, 1), BuildingBlock: CIFDUS_clean_linker_0, # of connection points: 2
#     Edge 51, Type (0, 1), BuildingBlock: CIFDUS_clean_linker_0, # of connection points: 2
#     Edge 52, Type (0, 1), BuildingBlock: CIFDUS_clean_linker_0, # of connection points: 2
#     Edge 53, Type (0, 1), BuildingBlock: CIFDUS_clean_linker_0, # of connection points: 2
#     Edge 54, Type (0, 1), BuildingBlock: CIFDUS_clean_linker_0, # of connection points: 2
#     Edge 55, Type (0, 1), BuildingBlock: CIFDUS_clean_linker_0, # of connection points: 2
#     Edge 56, Type (0, 1), BuildingBlock: CIFDUS_clean_linker_0, # of connection points: 2
#     Edge 57, Type (0, 1), BuildingBlock: CIFDUS_clean_linker_0, # of connection points: 2
#     Edge 58, Type (0, 1), BuildingBlock: CIFDUS_clean_linker_0, # of connection points: 2
#     Edge 59, Type (0, 1), BuildingBlock: CIFDUS_clean_linker_0, # of connection points: 2
#     Edge 60, Type (0, 1), BuildingBlock: CIFDUS_clean_linker_0, # of connection points: 2
#     Edge 61, Type (0, 1), BuildingBlock: CIFDUS_clean_linker_0, # of connection points: 2
#     Edge 62, Type (0, 1), BuildingBlock: CIFDUS_clean_linker_0, # of connection points: 2
#     Edge 63, Type (0, 1), BuildingBlock: CIFDUS_clean_linker_0, # of connection points: 2
#     Edge 64, Type (0, 1), BuildingBlock: CIFDUS_clean_linker_0, # of connection points: 2
#     Edge 65, Type (0, 1), BuildingBlock: CIFDUS_clean_linker_0, # of connection points: 2
#     Edge 66, Type (0, 1), BuildingBlock: CIFDUS_clean_linker_0, # of connection points: 2
#     Edge 67, Type (0, 1), BuildingBlock: CIFDUS_clean_linker_0, # of connection points: 2
#     Edge 68, Type (0, 1), BuildingBlock: CIFDUS_clean_linker_0, # of connection points: 2
#     Edge 69, Type (0, 1), BuildingBlock: CIFDUS_clean_linker_0, # of connection points: 2
#     Edge 70, Type (0, 1), BuildingBlock: CIFDUS_clean_linker_0, # of connection points: 2
#     Edge 71, Type (0, 1), BuildingBlock: CIFDUS_clean_linker_0, # of connection points: 2
#     Edge 72, Type (0, 1), BuildingBlock: CIFDUS_clean_linker_0, # of connection points: 2
#     Edge 73, Type (0, 1), BuildingBlock: CIFDUS_clean_linker_0, # of connection points: 2
#     Edge 74, Type (0, 1), BuildingBlock: CIFDUS_clean_linker_0, # of connection points: 2
#     Edge 75, Type (0, 1), BuildingBlock: CIFDUS_clean_linker_0, # of connection points: 2
#     Edge 76, Type (0, 1), BuildingBlock: CIFDUS_clean_linker_0, # of connection points: 2
#     Edge 77, Type (0, 1), BuildingBlock: CIFDUS_clean_linker_0, # of connection points: 2
#     Edge 78, Type (0, 1), BuildingBlock: CIFDUS_clean_linker_0, # of connection points: 2
#     Edge 79, Type (0, 1), BuildingBlock: CIFDUS_clean_linker_0, # of connection points: 2
#     Edge 80, Type (0, 1), BuildingBlock: CIFDUS_clean_linker_0, # of connection points: 2
#     Edge 81, Type (0, 1), BuildingBlock: CIFDUS_clean_linker_0, # of connection points: 2
#     Edge 82, Type (0, 1), BuildingBlock: CIFDUS_clean_linker_0, # of connection points: 2
#     Edge 83, Type (0, 1), BuildingBlock: CIFDUS_clean_linker_0, # of connection points: 2
#     Edge 84, Type (0, 1), BuildingBlock: CIFDUS_clean_linker_0, # of connection points: 2
#     Edge 85, Type (0, 1), BuildingBlock: CIFDUS_clean_linker_0, # of connection points: 2
#     Edge 86, Type (0, 1), BuildingBlock: CIFDUS_clean_linker_0, # of connection points: 2
#     Edge 87, Type (0, 1), BuildingBlock: CIFDUS_clean_linker_0, # of connection points: 2
#     Edge 88, Type (0, 1), BuildingBlock: CIFDUS_clean_linker_0, # of connection points: 2
#     Edge 89, Type (0, 1), BuildingBlock: CIFDUS_clean_linker_0, # of connection points: 2
#     Edge 90, Type (0, 1), BuildingBlock: CIFDUS_clean_linker_0, # of connection points: 2
#     Edge 91, Type (0, 1), BuildingBlock: CIFDUS_clean_linker_0, # of connection points: 2
#     Edge 92, Type (0, 1), BuildingBlock: CIFDUS_clean_linker_0, # of connection points: 2
#     Edge 93, Type (0, 1), BuildingBlock: CIFDUS_clean_linker_0, # of connection points: 2
#     Edge 94, Type (0, 1), BuildingBlock: CIFDUS_clean_linker_0, # of connection points: 2
#     Edge 95, Type (0, 1), BuildingBlock: CIFDUS_clean_linker_0, # of connection points: 2
#     Edge 96, Type (0, 1), BuildingBlock: CIFDUS_clean_linker_0, # of connection points: 2
#     Edge 97, Type (0, 1), BuildingBlock: CIFDUS_clean_linker_0, # of connection points: 2
#     Edge 98, Type (0, 1), BuildingBlock: CIFDUS_clean_linker_0, # of connection points: 2
#     Edge 99, Type (0, 1), BuildingBlock: CIFDUS_clean_linker_0, # of connection points: 2
#     Edge 100, Type (0, 1), BuildingBlock: CIFDUS_clean_linker_0, # of connection points: 2
#     Edge 101, Type (0, 1), BuildingBlock: CIFDUS_clean_linker_0, # of connection points: 2
#     Edge 102, Type (0, 1), BuildingBlock: CIFDUS_clean_linker_0, # of connection points: 2
#     Edge 103, Type (0, 1), BuildingBlock: CIFDUS_clean_linker_0, # of connection points: 2
#     Edge 104, Type (0, 1), BuildingBlock: CIFDUS_clean_linker_0, # of connection points: 2
#     Edge 105, Type (0, 1), BuildingBlock: CIFDUS_clean_linker_0, # of connection points: 2
#     Edge 106, Type (0, 1), BuildingBlock: CIFDUS_clean_linker_0, # of connection points: 2
#     Edge 107, Type (0, 1), BuildingBlock: CIFDUS_clean_linker_0, # of connection points: 2
# Relax obj value: 0.032
# Max RMSD: 0.131
# Mean RMSD: 0.053
data_MOF--net-ptr--node1-CEKHIL_clean_sbu_0--node2-NAWXER_clean_linker_0--edge1-CIFDUS_clean_linker_0
_symmetry_space_group_name_H-M    P1
_symmetry_Int_Tables_number       1
_symmetry_cell_setting            triclinic
loop_
_symmetry_equiv_pos_as_xyz
'x, y, z'
_cell_length_a     78.521295
_cell_length_b     77.654003
_cell_length_c     57.916945
_cell_angle_alpha  90.969821
_cell_angle_beta   89.42969
_cell_angle_gamma 120.9815
loop_
_atom_site_label
_atom_site_type_symbol
_atom_site_fract_x
_atom_site_fract_y
_atom_site_fract_z
_atom_type_partial_charge
Co0 Co 0.005 0.34452 0.01315 0.0
O1 O 0.01452 0.33328 0.03521 0.0
O2 O 0.03331 0.36242 0.01802 0.0
C3 C 0.98685 0.31609 0.99219 0.0
O4 O 1.00017 0.36031 0.98871 0.0
Co5 Co 0.95951 0.32805 0.01022 0.0
O6 O 0.96729 0.34416 0.98173 0.0
C7 C 0.98266 0.35498 0.04872 0.0
C8 C 0.03198 0.34907 0.03242 0.0
C9 C 0.98509 0.35783 0.97709 0.0
O10 O 0.99889 0.35845 0.03889 0.0
O11 O 0.96542 0.34201 0.04101 0.0
O12 O 0.00588 0.32715 0.98872 0.0
O13 O 0.98007 0.32145 0.00946 0.0
Co14 Co 0.66289 0.66027 0.01052 0.0
O15 O 0.67986 0.67377 0.98465 0.0
O16 O 0.67741 0.64724 0.00168 0.0
C17 C 0.67071 0.68815 0.03129 0.0
O18 O 0.64739 0.64275 0.03796 0.0
Co19 Co 0.62801 0.66666 0.02348 0.0
O20 O 0.62891 0.65467 0.05308 0.0
C21 C 0.62429 0.64108 0.98322 0.0
C22 C 0.68533 0.66062 0.98556 0.0
C23 C 0.6364 0.64354 0.05412 0.0
O24 O 0.64079 0.6424 0.98857 0.0
O25 O 0.61724 0.65053 0.99415 0.0
O26 O 0.6822 0.68069 0.0318 0.0
O27 O 0.65613 0.67966 0.01688 0.0
Co28 Co 0.3483 0.0082 0.01392 0.0
O29 O 0.3363 0.01601 0.99087 0.0
O30 O 0.36347 0.0372 0.01031 0.0
C31 C 0.32001 0.98711 0.03272 0.0
O32 O 0.36416 0.00518 0.03964 0.0
Co33 Co 0.33734 0.96372 0.01534 0.0
O34 O 0.34941 0.97207 0.04663 0.0
C35 C 0.36516 0.99018 0.97995 0.0
C36 C 0.35033 0.03439 0.9948 0.0
C37 C 0.3616 0.99039 0.05203 0.0
O38 O 0.36529 0.00521 0.9898 0.0
O39 O 0.3537 0.97196 0.98616 0.0
O40 O 0.32913 0.00632 0.03693 0.0
O41 O 0.32703 0.98163 0.01573 0.0
Co42 Co 0.99195 0.65503 0.01467 0.0
O43 O 0.98184 0.66714 0.99481 0.0
O44 O 0.96332 0.63749 0.01109 0.0
C45 C 0.01132 0.68291 0.0358 0.0
O46 O 0.99788 0.63864 0.03712 0.0
Co47 Co 0.0374 0.67124 0.01341 0.0
O48 O 0.03105 0.65545 0.04208 0.0
C49 C 0.01193 0.64426 0.97618 0.0
C50 C 0.96442 0.65139 0.99774 0.0
C51 C 0.01359 0.64149 0.04759 0.0
O52 O 0.99644 0.64146 0.98727 0.0
O53 O 0.02968 0.65677 0.98285 0.0
O54 O 0.99255 0.67175 0.04073 0.0
O55 O 0.01706 0.67794 0.01726 0.0
Co56 Co 0.3422 0.34545 0.01206 0.0
O57 O 0.3222 0.33271 0.0356 0.0
O58 O 0.33003 0.36116 0.01841 0.0
C59 C 0.33347 0.31762 0.99072 0.0
O60 O 0.36109 0.36274 0.98654 0.0
Co61 Co 0.37481 0.3346 0.00407 0.0
O62 O 0.381 0.35109 0.97605 0.0
C63 C 0.37806 0.36042 0.04373 0.0
C64 C 0.31917 0.34755 0.03345 0.0
C65 C 0.37443 0.36289 0.97329 0.0
O66 O 0.36295 0.36104 0.03649 0.0
O67 O 0.38424 0.34967 0.0341 0.0
O68 O 0.32374 0.3269 0.98865 0.0
O69 O 0.34659 0.32422 0.00693 0.0
Co70 Co 0.65594 0.00156 0.01132 0.0
O71 O 0.66937 0.99276 0.03115 0.0
O72 O 0.64149 0.97245 0.01236 0.0
C73 C 0.68341 0.02465 0.99243 0.0
O74 O 0.63819 0.0052 0.98883 0.0
Co75 Co 0.66556 0.04567 0.01475 0.0
O76 O 0.64715 0.03783 0.98819 0.0
C77 C 0.64017 0.01673 0.05012 0.0
C78 C 0.65529 0.97454 0.02643 0.0
C79 C 0.6366 0.01973 0.98102 0.0
O80 O 0.63989 0.00241 0.0383 0.0
O81 O 0.65094 0.03525 0.04469 0.0
O82 O 0.67448 0.00584 0.98613 0.0
O83 O 0.67653 0.02849 0.01085 0.0
Co84 Co 0.67834 0.68078 0.33912 0.0
O85 O 0.68537 0.66767 0.36164 0.0
O86 O 0.70682 0.69593 0.34422 0.0
C87 C 0.65818 0.65316 0.31794 0.0
O88 O 0.67618 0.69821 0.31457 0.0
Co89 Co 0.63429 0.66965 0.33612 0.0
O90 O 0.64371 0.68576 0.30762 0.0
C91 C 0.65925 0.6956 0.37425 0.0
C92 C 0.70361 0.68213 0.35903 0.0
C93 C 0.66201 0.69782 0.30304 0.0
O94 O 0.67449 0.69652 0.3645 0.0
O95 O 0.64153 0.68436 0.36666 0.0
O96 O 0.67729 0.66245 0.31495 0.0
O97 O 0.65219 0.65952 0.33514 0.0
Co98 Co 0.32228 0.99373 0.34445 0.0
O99 O 0.3415 0.00719 0.32052 0.0
O100 O 0.33787 0.98105 0.33965 0.0
C101 C 0.32743 0.02144 0.36368 0.0
O102 O 0.30414 0.97649 0.3707 0.0
Co103 Co 0.28617 0.0 0.34799 0.0
O104 O 0.2827 0.987 0.37823 0.0
C105 C 0.28774 0.9748 0.31058 0.0
C106 C 0.34698 0.99423 0.32352 0.0
C107 C 0.29052 0.97664 0.38321 0.0
O108 O 0.30259 0.97533 0.32049 0.0
O109 O 0.28011 0.98504 0.31777 0.0
O110 O 0.33916 0.01453 0.36707 0.0
O111 O 0.31473 0.0128 0.34722 0.0
Co112 Co 0.00617 0.33163 0.34094 0.0
O113 O 0.9943 0.34044 0.31866 0.0
O114 O 0.02172 0.36062 0.33825 0.0
C115 C 0.97769 0.31016 0.3596 0.0
O116 O 0.02238 0.32815 0.36594 0.0
Co117 Co 0.99466 0.28683 0.3423 0.0
O118 O 0.00988 0.29518 0.37157 0.0
C119 C 0.02162 0.31312 0.30585 0.0
C120 C 0.00868 0.35861 0.32309 0.0
C121 C 0.02174 0.31356 0.37703 0.0
O122 O 0.02258 0.32856 0.31584 0.0
O123 O 0.01002 0.29512 0.31266 0.0
O124 O 0.98685 0.32928 0.36442 0.0
O125 O 0.98492 0.30512 0.34249 0.0
Co126 Co 0.67059 0.99652 0.33871 0.0
O127 O 0.66413 0.01104 0.31744 0.0
O128 O 0.64221 0.982 0.33305 0.0
C129 C 0.69103 0.02384 0.36033 0.0
O130 O 0.67137 0.97753 0.36201 0.0
Co131 Co 0.7137 0.00596 0.34538 0.0
O132 O 0.70279 0.98955 0.37358 0.0
C133 C 0.6906 0.98267 0.30425 0.0
C134 C 0.64575 0.99678 0.31966 0.0
C135 C 0.68419 0.97723 0.37544 0.0
O136 O 0.67483 0.98175 0.3124 0.0
O137 O 0.70764 0.99281 0.31397 0.0
O138 O 0.67198 0.01431 0.36402 0.0
O139 O 0.69687 0.01725 0.34332 0.0
Co140 Co 0.00934 0.67762 0.3417 0.0
O141 O 0.98881 0.6649 0.36461 0.0
O142 O 0.99807 0.69416 0.34856 0.0
C143 C 0.99973 0.64993 0.3196 0.0
O144 O 0.02901 0.69497 0.3168 0.0
Co145 Co 0.04051 0.66483 0.33362 0.0
O146 O 0.0471 0.6814 0.30556 0.0
C147 C 0.04374 0.68932 0.37469 0.0
C148 C 0.98648 0.68022 0.36289 0.0
C149 C 0.04166 0.69417 0.30317 0.0
O150 O 0.02994 0.69188 0.36671 0.0
O151 O 0.04885 0.67772 0.36498 0.0
O152 O 0.99086 0.6601 0.31761 0.0
O153 O 0.01256 0.65572 0.33605 0.0
Co154 Co 0.32998 0.33868 0.34764 0.0
O155 O 0.34256 0.33334 0.37247 0.0
O156 O 0.31514 0.31022 0.35484 0.0
C157 C 0.35786 0.35787 0.32699 0.0
O158 O 0.31312 0.33903 0.32104 0.0
Co159 Co 0.341 0.38283 0.33998 0.0
O160 O 0.32546 0.37128 0.31125 0.0
C161 C 0.31415 0.35992 0.37816 0.0
C162 C 0.3285 0.31468 0.37068 0.0
C163 C 0.31356 0.35252 0.30788 0.0
O164 O 0.31375 0.34402 0.37068 0.0
O165 O 0.32533 0.37728 0.3694 0.0
O166 O 0.34876 0.33842 0.32544 0.0
O167 O 0.35107 0.3649 0.34255 0.0
Co168 Co 0.33611 0.00967 0.67338 0.0
O169 O 0.33953 0.99546 0.69804 0.0
O170 O 0.36416 0.021 0.6795 0.0
C171 C 0.31317 0.98225 0.65367 0.0
O172 O 0.33812 0.02777 0.64691 0.0
Co173 Co 0.29512 0.00592 0.66597 0.0
O174 O 0.30714 0.019 0.63617 0.0
C175 C 0.32063 0.03039 0.70486 0.0
C176 C 0.35849 0.00763 0.6956 0.0
C177 C 0.32588 0.02875 0.6331 0.0
O178 O 0.33495 0.0286 0.69669 0.0
O179 O 0.30313 0.02119 0.69618 0.0
O180 O 0.33194 0.98854 0.65116 0.0
O181 O 0.30897 0.99153 0.66931 0.0
Co182 Co 0.99672 0.32838 0.67798 0.0
O183 O 0.0169 0.34318 0.65544 0.0
O184 O 0.01007 0.31398 0.66964 0.0
C185 C 0.00436 0.35461 0.70166 0.0
O186 O 0.97734 0.30941 0.70223 0.0
Co187 Co 0.96338 0.33826 0.6855 0.0
O188 O 0.95714 0.32079 0.71266 0.0
C189 C 0.96199 0.31467 0.64459 0.0
C190 C 0.02077 0.32885 0.65585 0.0
C191 C 0.96363 0.30888 0.71521 0.0
O192 O 0.97672 0.3138 0.65266 0.0
O193 O 0.95535 0.32503 0.6542 0.0
O194 O 0.01436 0.34554 0.70264 0.0
O195 O 0.99173 0.34896 0.68496 0.0
Co196 Co 0.67794 0.67363 0.67765 0.0
O197 O 0.66333 0.67718 0.65375 0.0
O198 O 0.69083 0.70188 0.66949 0.0
C199 C 0.65117 0.65369 0.69955 0.0
O200 O 0.69632 0.6752 0.70354 0.0
Co201 Co 0.6704 0.63093 0.68631 0.0
O202 O 0.68397 0.64356 0.7159 0.0
C203 C 0.6952 0.65392 0.64679 0.0
C204 C 0.67631 0.69622 0.6549 0.0
C205 C 0.69558 0.66248 0.71819 0.0
O206 O 0.69429 0.66923 0.65386 0.0
O207 O 0.68554 0.63672 0.65639 0.0
O208 O 0.65938 0.67308 0.70069 0.0
O209 O 0.65817 0.647 0.68381 0.0
Co210 Co 0.32939 0.32561 0.67692 0.0
O211 O 0.32086 0.33789 0.65491 0.0
O212 O 0.30122 0.30842 0.67109 0.0
C213 C 0.34768 0.35334 0.69885 0.0
O214 O 0.33277 0.30863 0.70099 0.0
Co215 Co 0.37429 0.34016 0.68176 0.0
O216 O 0.36526 0.32244 0.70899 0.0
C217 C 0.35199 0.31581 0.64129 0.0
C218 C 0.3032 0.3222 0.65696 0.0
C219 C 0.34704 0.30944 0.71274 0.0
O220 O 0.3356 0.31198 0.65098 0.0
O221 O 0.36908 0.32824 0.6498 0.0
O222 O 0.32853 0.3427 0.70169 0.0
O223 O 0.35462 0.34802 0.6817 0.0
Co224 Co 0.67699 0.00778 0.68062 0.0
O225 O 0.65662 0.99585 0.70392 0.0
O226 O 0.66515 0.02399 0.68556 0.0
C227 C 0.66778 0.97895 0.66115 0.0
O228 O 0.6962 0.02442 0.65516 0.0
Co229 Co 0.709 0.99616 0.67292 0.0
O230 O 0.71616 0.01287 0.64484 0.0
C231 C 0.71138 0.02103 0.71343 0.0
C232 C 0.65391 0.01081 0.70079 0.0
C233 C 0.70964 0.0247 0.64203 0.0
O234 O 0.69761 0.02345 0.70508 0.0
O235 O 0.71656 0.0093 0.70424 0.0
O236 O 0.65873 0.98872 0.65729 0.0
O237 O 0.68099 0.98621 0.67719 0.0
Co238 Co 0.9939 0.66263 0.6775 0.0
O239 O 0.00764 0.65599 0.69969 0.0
O240 O 0.97911 0.63406 0.68306 0.0
C241 C 0.0208 0.68278 0.65581 0.0
O242 O 0.97566 0.66362 0.65345 0.0
Co243 Co 0.00351 0.70637 0.67212 0.0
O244 O 0.98768 0.69569 0.64332 0.0
C245 C 0.97848 0.68232 0.71108 0.0
C246 C 0.99325 0.63748 0.69732 0.0
C247 C 0.97558 0.67691 0.64054 0.0
O248 O 0.97875 0.66695 0.70292 0.0
O249 O 0.98853 0.69982 0.70225 0.0
O250 O 0.01155 0.66339 0.65304 0.0
O251 O 0.01465 0.68918 0.67282 0.0
C252 C 0.2368 0.35374 0.12914 0.0
C253 C 0.2316 0.33718 0.11442 0.0
C254 C 0.22223 0.35485 0.14199 0.0
C255 C 0.20224 0.33944 0.14028 0.0
C256 C 0.21157 0.32181 0.11272 0.0
C257 C 0.19698 0.32304 0.12539 0.0
C258 C 0.18665 0.34074 0.15325 0.0
C259 C 0.22344 0.33096 0.20432 0.0
C260 C 0.23438 0.34767 0.219 0.0
C261 C 0.20788 0.32935 0.19097 0.0
C262 C 0.20299 0.34442 0.19215 0.0
C263 C 0.22898 0.36234 0.22067 0.0
C264 C 0.21337 0.36065 0.20752 0.0
C265 C 0.18719 0.34351 0.17744 0.0
C266 C 0.10606 0.33041 0.19744 0.0
C267 C 0.11064 0.34358 0.21647 0.0
C268 C 0.12114 0.3308 0.18405 0.0
C269 C 0.14118 0.34484 0.18883 0.0
C270 C 0.13072 0.35763 0.22123 0.0
C271 C 0.14581 0.35822 0.20758 0.0
C272 C 0.15735 0.34456 0.17563 0.0
C273 C 0.12305 0.3574 0.12402 0.0
C274 C 0.11239 0.34149 0.10823 0.0
C275 C 0.13775 0.35783 0.13793 0.0
C276 C 0.14204 0.34236 0.13625 0.0
C277 C 0.11716 0.32638 0.10611 0.0
C278 C 0.13196 0.32692 0.11985 0.0
C279 C 0.1571 0.34222 0.15131 0.0
H280 H 0.25214 0.36575 0.13081 0.0
H281 H 0.22655 0.36783 0.15307 0.0
H282 H 0.20714 0.30901 0.1013 0.0
H283 H 0.1816 0.31112 0.12368 0.0
H284 H 0.22724 0.31941 0.20271 0.0
H285 H 0.19978 0.31643 0.17961 0.0
H286 H 0.23693 0.37522 0.23213 0.0
H287 H 0.20971 0.37232 0.20892 0.0
H288 H 0.09079 0.31952 0.19304 0.0
H289 H 0.11704 0.31975 0.17031 0.0
H290 H 0.13486 0.36775 0.23597 0.0
H291 H 0.16115 0.36898 0.21187 0.0
H292 H 0.11966 0.36921 0.12604 0.0
H293 H 0.14564 0.37014 0.15013 0.0
H294 H 0.10936 0.31408 0.09388 0.0
H295 H 0.13518 0.31497 0.11806 0.0
N296 N 0.17163 0.34015 0.14113 0.0
N297 N 0.17254 0.34537 0.18769 0.0
C298 C 0.65361 0.88507 0.11449 0.0
C299 C 0.66945 0.8963 0.09925 0.0
C300 C 0.65371 0.87071 0.12867 0.0
C301 C 0.66964 0.86732 0.12781 0.0
C302 C 0.68513 0.8925 0.09802 0.0
C303 C 0.68511 0.878 0.11202 0.0
C304 C 0.67014 0.85253 0.14315 0.0
C305 C 0.67982 0.90413 0.18923 0.0
C306 C 0.666 0.89901 0.20732 0.0
C307 C 0.68026 0.88919 0.17593 0.0
C308 C 0.66661 0.8688 0.18009 0.0
C309 C 0.6522 0.8786 0.21126 0.0
C310 C 0.65255 0.86367 0.19782 0.0
C311 C 0.66779 0.85273 0.16737 0.0
C312 C 0.67982 0.78528 0.19755 0.0
C313 C 0.6641 0.77586 0.21343 0.0
C314 C 0.68156 0.80065 0.18355 0.0
C315 C 0.66761 0.80684 0.18521 0.0
C316 C 0.65057 0.78256 0.21553 0.0
C317 C 0.65238 0.79795 0.20167 0.0
C318 C 0.66872 0.82258 0.17004 0.0
C319 C 0.65229 0.76988 0.12282 0.0
C320 C 0.66741 0.77303 0.10722 0.0
C321 C 0.65369 0.78587 0.13575 0.0
C322 C 0.67023 0.8053 0.13328 0.0
C323 C 0.68412 0.79243 0.10503 0.0
C324 C 0.6854 0.80851 0.11779 0.0
C325 C 0.671 0.82238 0.14585 0.0
H326 H 0.64139 0.88773 0.11588 0.0
H327 H 0.64141 0.86235 0.14042 0.0
H328 H 0.69742 0.90079 0.08625 0.0
H329 H 0.69743 0.87544 0.1109 0.0
H330 H 0.69057 0.9197 0.18562 0.0
H331 H 0.69166 0.89361 0.16284 0.0
H332 H 0.64159 0.87408 0.22528 0.0
H333 H 0.64201 0.84805 0.20153 0.0
H334 H 0.69048 0.78047 0.19558 0.0
H335 H 0.69376 0.80764 0.17139 0.0
H336 H 0.63851 0.77585 0.22792 0.0
H337 H 0.64158 0.80262 0.20347 0.0
H338 H 0.63929 0.75505 0.12484 0.0
H339 H 0.64165 0.78314 0.14731 0.0
H340 H 0.69586 0.79525 0.09293 0.0
H341 H 0.69817 0.82345 0.11553 0.0
N342 N 0.67176 0.83741 0.13332 0.0
N343 N 0.66708 0.83769 0.17984 0.0
C344 C 0.11116 0.77013 0.11702 0.0
C345 C 0.10256 0.77542 0.0995 0.0
C346 C 0.12668 0.78503 0.13028 0.0
C347 C 0.1333 0.80542 0.12679 0.0
C348 C 0.1095 0.79574 0.09555 0.0
C349 C 0.12469 0.81061 0.10915 0.0
C350 C 0.1498 0.82158 0.14043 0.0
C351 C 0.10361 0.78133 0.19318 0.0
C352 C 0.1109 0.77198 0.2073 0.0
C353 C 0.11661 0.79743 0.1792 0.0
C354 C 0.13705 0.80439 0.17923 0.0
C355 C 0.13141 0.77931 0.20754 0.0
C356 C 0.14434 0.79542 0.19378 0.0
C357 C 0.15125 0.82127 0.1647 0.0
C358 C 0.21302 0.90592 0.18843 0.0
C359 C 0.22141 0.90237 0.20778 0.0
C360 C 0.20034 0.8901 0.1737 0.0
C361 C 0.19605 0.87049 0.17788 0.0
C362 C 0.21731 0.88278 0.21169 0.0
C363 C 0.2047 0.867 0.19693 0.0
C364 C 0.18116 0.85328 0.16391 0.0
C365 C 0.23167 0.89063 0.11626 0.0
C366 C 0.2269 0.89696 0.09608 0.0
C367 C 0.21665 0.87631 0.13031 0.0
C368 C 0.19653 0.86862 0.12493 0.0
C369 C 0.20687 0.88885 0.0902 0.0
C370 C 0.19182 0.87486 0.10456 0.0
C371 C 0.18039 0.85315 0.13953 0.0
H372 H 0.10625 0.7545 0.11997 0.0
H373 H 0.13365 0.78058 0.14298 0.0
H374 H 0.10312 0.80009 0.08198 0.0
H375 H 0.12972 0.82622 0.1059 0.0
H376 H 0.08788 0.776 0.19272 0.0
H377 H 0.11074 0.80441 0.16838 0.0
H378 H 0.1375 0.77266 0.21855 0.0
H379 H 0.16009 0.80072 0.19425 0.0
H380 H 0.21598 0.92087 0.1849 0.0
H381 H 0.19347 0.89311 0.15944 0.0
H382 H 0.22323 0.87946 0.22665 0.0
H383 H 0.20141 0.85195 0.20064 0.0
H384 H 0.24704 0.89642 0.12086 0.0
H385 H 0.22086 0.87109 0.14518 0.0
H386 H 0.20288 0.89349 0.07463 0.0
H387 H 0.17647 0.86895 0.09975 0.0
N388 N 0.1645 0.83746 0.12883 0.0
N389 N 0.1668 0.83717 0.17543 0.0
C390 C 0.33998 0.12338 0.80191 0.0
C391 C 0.32476 0.10352 0.80613 0.0
C392 C 0.34269 0.13903 0.81662 0.0
C393 C 0.33041 0.13513 0.83598 0.0
C394 C 0.31271 0.09958 0.82579 0.0
C395 C 0.31546 0.11524 0.84054 0.0
C396 C 0.33215 0.1521 0.84992 0.0
C397 C 0.31957 0.11342 0.91979 0.0
C398 C 0.33447 0.10871 0.91643 0.0
C399 C 0.31896 0.12773 0.90609 0.0
C400 C 0.33294 0.13724 0.88841 0.0
C401 C 0.34877 0.11859 0.8991 0.0
C402 C 0.34794 0.13267 0.8851 0.0
C403 C 0.33228 0.15258 0.87428 0.0
C404 C 0.32427 0.22515 0.89554 0.0
C405 C 0.33652 0.23222 0.91522 0.0
C406 C 0.3226 0.20906 0.8824 0.0
C407 C 0.33368 0.20017 0.8882 0.0
C408 C 0.3466 0.22243 0.92168 0.0
C409 C 0.3453 0.20672 0.90828 0.0
C410 C 0.33313 0.18379 0.87405 0.0
C411 C 0.3544 0.23604 0.82566 0.0
C412 C 0.34235 0.23206 0.80609 0.0
C413 C 0.35167 0.22046 0.83991 0.0
C414 C 0.33651 0.20059 0.83525 0.0
C415 C 0.32725 0.21211 0.80143 0.0
C416 C 0.32442 0.19656 0.81581 0.0
C417 C 0.33397 0.18378 0.84961 0.0
H418 H 0.34932 0.12696 0.78673 0.0
H419 H 0.35418 0.15427 0.81263 0.0
H420 H 0.30091 0.08442 0.82954 0.0
H421 H 0.30545 0.11187 0.85502 0.0
H422 H 0.30845 0.1061 0.93314 0.0
H423 H 0.3074 0.1312 0.90909 0.0
H424 H 0.36035 0.11515 0.89612 0.0
H425 H 0.35911 0.14011 0.87184 0.0
H426 H 0.31622 0.23222 0.88999 0.0
H427 H 0.31282 0.20376 0.86758 0.0
H428 H 0.35561 0.22689 0.93715 0.0
H429 H 0.35366 0.19988 0.91348 0.0
H430 H 0.36607 0.25122 0.82992 0.0
H431 H 0.36157 0.22394 0.85443 0.0
H432 H 0.31793 0.20841 0.78631 0.0
H433 H 0.31283 0.18131 0.81166 0.0
N434 N 0.33317 0.16779 0.83857 0.0
N435 N 0.33253 0.16826 0.88536 0.0
C436 C 0.905 0.21975 0.9 0.0
C437 C 0.89913 0.22604 0.91991 0.0
C438 C 0.89096 0.20362 0.88651 0.0
C439 C 0.87064 0.19399 0.89205 0.0
C440 C 0.87895 0.21527 0.92633 0.0
C441 C 0.8649 0.19961 0.91247 0.0
C442 C 0.85513 0.17799 0.87707 0.0
C443 C 0.88715 0.23163 0.83055 0.0
C444 C 0.89553 0.22861 0.81042 0.0
C445 C 0.87445 0.21549 0.8445 0.0
C446 C 0.87031 0.19601 0.83906 0.0
C447 C 0.89143 0.2091 0.80507 0.0
C448 C 0.87891 0.19297 0.81922 0.0
C449 C 0.85558 0.17853 0.8526 0.0
C450 C 0.77399 0.11372 0.82504 0.0
C451 C 0.77827 0.10386 0.80742 0.0
C452 C 0.78909 0.12768 0.83954 0.0
C453 C 0.80868 0.13196 0.83666 0.0
C454 C 0.79793 0.10833 0.80448 0.0
C455 C 0.81301 0.12235 0.81888 0.0
C456 C 0.8249 0.14722 0.85125 0.0
C457 C 0.78587 0.09513 0.8968 0.0
C458 C 0.77433 0.09956 0.91177 0.0
C459 C 0.80222 0.11048 0.88518 0.0
C460 C 0.8075 0.13057 0.88847 0.0
C461 C 0.77987 0.11981 0.91509 0.0
C462 C 0.79641 0.13515 0.90377 0.0
C463 C 0.8242 0.14685 0.87555 0.0
H464 H 0.92035 0.22752 0.89442 0.0
H465 H 0.89603 0.19898 0.87153 0.0
H466 H 0.87385 0.219 0.942 0.0
H467 H 0.84942 0.19215 0.91756 0.0
H468 H 0.89012 0.24646 0.83537 0.0
H469 H 0.86755 0.2182 0.85928 0.0
H470 H 0.89731 0.20612 0.78952 0.0
H471 H 0.87565 0.17803 0.81444 0.0
H472 H 0.75898 0.11056 0.82767 0.0
H473 H 0.78552 0.13534 0.85278 0.0
H474 H 0.80173 0.10123 0.79076 0.0
H475 H 0.82808 0.12568 0.81618 0.0
H476 H 0.78239 0.07983 0.89413 0.0
H477 H 0.81076 0.10667 0.87362 0.0
H478 H 0.77122 0.12387 0.92608 0.0
H479 H 0.8002 0.15057 0.90643 0.0
N480 N 0.8393 0.16223 0.88754 0.0
N481 N 0.84056 0.16297 0.84071 0.0
C482 C 0.78148 0.6757 0.89831 0.0
C483 C 0.7695 0.65748 0.9099 0.0
C484 C 0.79706 0.67826 0.88404 0.0
C485 C 0.80108 0.66272 0.88117 0.0
C486 C 0.77343 0.64184 0.90659 0.0
C487 C 0.78919 0.64454 0.89258 0.0
C488 C 0.81866 0.66596 0.86797 0.0
C489 C 0.77586 0.66305 0.81436 0.0
C490 C 0.78287 0.68068 0.80146 0.0
C491 C 0.78858 0.66068 0.82895 0.0
C492 C 0.80861 0.67589 0.83105 0.0
C493 C 0.80292 0.69598 0.80384 0.0
C494 C 0.81566 0.69353 0.81833 0.0
C495 C 0.82262 0.67296 0.84508 0.0
C496 C 0.89426 0.66684 0.81989 0.0
C497 C 0.90386 0.68347 0.80518 0.0
C498 C 0.87794 0.66358 0.83325 0.0
C499 C 0.87114 0.67715 0.83266 0.0
C500 C 0.8968 0.69684 0.80441 0.0
C501 C 0.88067 0.69371 0.81797 0.0
C502 C 0.85345 0.67371 0.84605 0.0
C503 C 0.89766 0.6805 0.89975 0.0
C504 C 0.89107 0.66494 0.91589 0.0
C505 C 0.88439 0.68118 0.88445 0.0
C506 C 0.86427 0.66592 0.88423 0.0
C507 C 0.87089 0.6497 0.91571 0.0
C508 C 0.85768 0.6502 0.90007 0.0
C509 C 0.8497 0.66721 0.86926 0.0
H510 H 0.77926 0.68826 0.90077 0.0
H511 H 0.80636 0.69261 0.87585 0.0
H512 H 0.76437 0.62751 0.91489 0.0
H513 H 0.79214 0.6324 0.89068 0.0
H514 H 0.76067 0.65073 0.8126 0.0
H515 H 0.78287 0.64667 0.83802 0.0
H516 H 0.80883 0.70984 0.79441 0.0
H517 H 0.83109 0.70544 0.81956 0.0
H518 H 0.89931 0.65628 0.82108 0.0
H519 H 0.87052 0.65032 0.84383 0.0
H520 H 0.90343 0.70953 0.79292 0.0
H521 H 0.87556 0.70425 0.8169 0.0
H522 H 0.91311 0.69237 0.89901 0.0
H523 H 0.88987 0.69394 0.87316 0.0
H524 H 0.86514 0.63766 0.92806 0.0
H525 H 0.84217 0.63841 0.90058 0.0
N526 N 0.83233 0.6634 0.87912 0.0
N527 N 0.83983 0.6765 0.83505 0.0
C528 C 0.77048 0.65034 0.45567 0.0
C529 C 0.77506 0.66815 0.44432 0.0
C530 C 0.78482 0.64937 0.46874 0.0
C531 C 0.8041 0.6661 0.47054 0.0
C532 C 0.79452 0.68483 0.44608 0.0
C533 C 0.80894 0.68371 0.45884 0.0
C534 C 0.81942 0.66522 0.48415 0.0
C535 C 0.7764 0.66715 0.53511 0.0
C536 C 0.76815 0.65138 0.55106 0.0
C537 C 0.79231 0.67036 0.52095 0.0
C538 C 0.80005 0.65762 0.52209 0.0
C539 C 0.77609 0.63879 0.55227 0.0
C540 C 0.79184 0.64189 0.53798 0.0
C541 C 0.81747 0.66114 0.50807 0.0
C542 C 0.8996 0.68507 0.53501 0.0
C543 C 0.89763 0.6685 0.54704 0.0
C544 C 0.88384 0.68339 0.52219 0.0
C545 C 0.86556 0.66529 0.52154 0.0
C546 C 0.87914 0.65031 0.54624 0.0
C547 C 0.86318 0.64886 0.53395 0.0
C548 C 0.84906 0.66367 0.50779 0.0
C549 C 0.88744 0.65353 0.45928 0.0
C550 C 0.8961 0.66713 0.44103 0.0
C551 C 0.87271 0.6534 0.47302 0.0
C552 C 0.86671 0.66736 0.46952 0.0
C553 C 0.88986 0.68092 0.43726 0.0
C554 C 0.8753 0.681 0.45136 0.0
C555 C 0.85053 0.66671 0.4837 0.0
H556 H 0.75586 0.63701 0.4543 0.0
H557 H 0.78092 0.63551 0.47732 0.0
H558 H 0.7986 0.69889 0.43795 0.0
H559 H 0.82379 0.69675 0.45998 0.0
H560 H 0.77065 0.67711 0.53359 0.0
H561 H 0.79876 0.68307 0.50949 0.0
H562 H 0.77048 0.62678 0.56466 0.0
H563 H 0.7977 0.63202 0.53946 0.0
H564 H 0.91323 0.69954 0.53567 0.0
H565 H 0.88585 0.69634 0.51296 0.0
H566 H 0.87697 0.63706 0.55482 0.0
H567 H 0.84914 0.63473 0.53357 0.0
H568 H 0.89195 0.64282 0.46296 0.0
H569 H 0.86575 0.64202 0.4861 0.0
H570 H 0.89591 0.69138 0.42314 0.0
H571 H 0.87067 0.69167 0.44799 0.0
N572 N 0.83579 0.66771 0.47286 0.0
N573 N 0.8325 0.6607 0.51899 0.0
C574 C 0.31571 0.20501 0.43758 0.0
C575 C 0.32954 0.22582 0.43756 0.0
C576 C 0.31852 0.19224 0.45173 0.0
C577 C 0.33497 0.20001 0.4665 0.0
C578 C 0.34629 0.23343 0.45206 0.0
C579 C 0.34891 0.22069 0.46643 0.0
C580 C 0.33757 0.1864 0.48172 0.0
C581 C 0.35241 0.23151 0.54801 0.0
C582 C 0.33641 0.23464 0.54548 0.0
C583 C 0.35345 0.21694 0.53474 0.0
C584 C 0.33865 0.20531 0.51851 0.0
C585 C 0.32157 0.22299 0.52916 0.0
C586 C 0.32267 0.20842 0.51578 0.0
C587 C 0.33946 0.18904 0.50592 0.0
C588 C 0.35898 0.12588 0.53456 0.0
C589 C 0.34826 0.1205 0.55536 0.0
C590 C 0.35769 0.13911 0.51951 0.0
C591 C 0.345 0.14651 0.52456 0.0
C592 C 0.33622 0.12846 0.56085 0.0
C593 C 0.33454 0.14124 0.54559 0.0
C594 C 0.34287 0.16029 0.50883 0.0
C595 C 0.32696 0.10562 0.46403 0.0
C596 C 0.34243 0.10998 0.44842 0.0
C597 C 0.32647 0.12113 0.476 0.0
C598 C 0.34131 0.14117 0.47223 0.0
C599 C 0.35732 0.13004 0.44481 0.0
C600 C 0.35661 0.14556 0.45642 0.0
C601 C 0.34094 0.15768 0.48458 0.0
H602 H 0.30252 0.19856 0.42694 0.0
H603 H 0.3076 0.1763 0.45149 0.0
H604 H 0.35756 0.24924 0.45216 0.0
H605 H 0.36193 0.22696 0.47737 0.0
H606 H 0.36387 0.23994 0.56075 0.0
H607 H 0.36578 0.21462 0.53731 0.0
H608 H 0.30907 0.22506 0.52687 0.0
H609 H 0.31081 0.19927 0.50375 0.0
H610 H 0.36858 0.12012 0.53017 0.0
H611 H 0.36681 0.14366 0.50412 0.0
H612 H 0.32781 0.12449 0.57683 0.0
H613 H 0.32483 0.14685 0.55015 0.0
H614 H 0.3153 0.09022 0.46698 0.0
H615 H 0.31449 0.11753 0.48806 0.0
H616 H 0.36924 0.13371 0.43263 0.0
H617 H 0.36813 0.16098 0.45329 0.0
N618 N 0.33838 0.1708 0.47196 0.0
N619 N 0.34204 0.17592 0.51847 0.0
C620 C 0.77472 0.10758 0.46296 0.0
C621 C 0.76313 0.11096 0.44755 0.0
C622 C 0.7906 0.12372 0.4745 0.0
C623 C 0.79464 0.14342 0.47151 0.0
C624 C 0.76766 0.13067 0.44371 0.0
C625 C 0.78325 0.14678 0.45568 0.0
C626 C 0.81085 0.16061 0.48444 0.0
C627 C 0.76832 0.11691 0.53702 0.0
C628 C 0.77724 0.10885 0.55061 0.0
C629 C 0.78 0.13387 0.52354 0.0
C630 C 0.80077 0.1429 0.52327 0.0
C631 C 0.79806 0.11836 0.55079 0.0
C632 C 0.80968 0.13523 0.53735 0.0
C633 C 0.81356 0.16032 0.50854 0.0
C634 C 0.87587 0.2459 0.5304 0.0
C635 C 0.8861 0.24255 0.54786 0.0
C636 C 0.86197 0.22997 0.51663 0.0
C637 C 0.85815 0.2104 0.51994 0.0
C638 C 0.88244 0.223 0.55091 0.0
C639 C 0.86853 0.20708 0.53716 0.0
C640 C 0.84231 0.19313 0.50683 0.0
C641 C 0.89002 0.2277 0.45539 0.0
C642 C 0.8858 0.23936 0.44093 0.0
C643 C 0.8751 0.21273 0.46889 0.0
C644 C 0.85562 0.209 0.46808 0.0
C645 C 0.8663 0.23566 0.44009 0.0
C646 C 0.85124 0.22038 0.45337 0.0
C647 C 0.84006 0.1932 0.4827 0.0
H648 H 0.77173 0.0925 0.4657 0.0
H649 H 0.79969 0.12075 0.48577 0.0
H650 H 0.75902 0.13355 0.4316 0.0
H651 H 0.78628 0.16185 0.45279 0.0
H652 H 0.75232 0.10994 0.53651 0.0
H653 H 0.77282 0.13979 0.51316 0.0
H654 H 0.80543 0.11282 0.56146 0.0
H655 H 0.82569 0.1421 0.53763 0.0
H656 H 0.87842 0.26081 0.52759 0.0
H657 H 0.85379 0.23287 0.50388 0.0
H658 H 0.88982 0.21985 0.56447 0.0
H659 H 0.86569 0.19209 0.54018 0.0
H660 H 0.90493 0.23029 0.4564 0.0
H661 H 0.87875 0.20397 0.47995 0.0
H662 H 0.86268 0.24437 0.42893 0.0
H663 H 0.83627 0.21766 0.45246 0.0
N664 N 0.82427 0.17707 0.47241 0.0
N665 N 0.82915 0.1766 0.51874 0.0
C666 C 0.97914 0.54465 0.15206 0.0
C667 C 0.99372 0.55422 0.13491 0.0
C668 C 0.98001 0.53123 0.16717 0.0
C669 C 0.99542 0.52706 0.16532 0.0
C670 C 0.00896 0.54983 0.13295 0.0
C671 C 0.0097 0.53626 0.14786 0.0
C672 C 0.99634 0.51258 0.18086 0.0
C673 C 0.01297 0.56603 0.22673 0.0
C674 C 0.99834 0.56293 0.24302 0.0
C675 C 0.01137 0.54991 0.21388 0.0
C676 C 0.99522 0.53039 0.21726 0.0
C677 C 0.98189 0.5435 0.246 0.0
C678 C 0.98048 0.52727 0.23339 0.0
C679 C 0.99463 0.51323 0.20509 0.0
C680 C 0.01392 0.45148 0.23655 0.0
C681 C 0.99772 0.43952 0.25107 0.0
C682 C 0.01397 0.46625 0.22296 0.0
C683 C 0.99784 0.46935 0.2237 0.0
C684 C 0.98194 0.44317 0.25236 0.0
C685 C 0.9821 0.45807 0.23896 0.0
C686 C 0.99705 0.48396 0.20826 0.0
C687 C 0.98969 0.43294 0.16252 0.0
C688 C 0.00362 0.43862 0.14446 0.0
C689 C 0.98837 0.44745 0.17569 0.0
C690 C 0.00131 0.46797 0.17148 0.0
C691 C 0.01668 0.45919 0.14048 0.0
C692 C 0.0155 0.47369 0.15382 0.0
C693 C 0.9992 0.48356 0.18401 0.0
H694 H 0.96724 0.54775 0.15398 0.0
H695 H 0.96853 0.52396 0.18015 0.0
H696 H 0.02025 0.55676 0.1197 0.0
H697 H 0.02159 0.53313 0.14593 0.0
H698 H 0.02581 0.58089 0.22424 0.0
H699 H 0.02309 0.5526 0.20179 0.0
H700 H 0.97056 0.54079 0.25867 0.0
H701 H 0.968 0.51228 0.23635 0.0
H702 H 0.02625 0.44899 0.23513 0.0
H703 H 0.02645 0.47503 0.21159 0.0
H704 H 0.96938 0.43436 0.26361 0.0
H705 H 0.9696 0.46034 0.23996 0.0
H706 H 0.97949 0.41725 0.1662 0.0
H707 H 0.97687 0.44256 0.18871 0.0
H708 H 0.02735 0.46413 0.12647 0.0
H709 H 0.02549 0.48942 0.15007 0.0
N710 N 0.99876 0.49789 0.17129 0.0
N711 N 0.99484 0.4988 0.21789 0.0
C712 C 0.47333 0.43183 0.14737 0.0
C713 C 0.4567 0.43223 0.13918 0.0
C714 C 0.48667 0.44664 0.16262 0.0
C715 C 0.48322 0.46163 0.17082 0.0
C716 C 0.4531 0.44713 0.14794 0.0
C717 C 0.46622 0.46163 0.16376 0.0
C718 C 0.49869 0.47857 0.18433 0.0
C719 C 0.45689 0.46264 0.25385 0.0
C720 C 0.44681 0.44164 0.25071 0.0
C721 C 0.47312 0.47529 0.23997 0.0
C722 C 0.47998 0.46737 0.22276 0.0
C723 C 0.45395 0.43371 0.23371 0.0
C724 C 0.47054 0.44638 0.22029 0.0
C725 C 0.49733 0.48133 0.2083 0.0
C726 C 0.55891 0.56653 0.22729 0.0
C727 C 0.57025 0.56492 0.2448 0.0
C728 C 0.54538 0.54953 0.21453 0.0
C729 C 0.54286 0.53071 0.21937 0.0
C730 C 0.56773 0.54607 0.24951 0.0
C731 C 0.55393 0.52904 0.23709 0.0
C732 C 0.52823 0.51258 0.20659 0.0
C733 C 0.58026 0.54916 0.15877 0.0
C734 C 0.57496 0.55194 0.13667 0.0
C735 C 0.56572 0.53533 0.17382 0.0
C736 C 0.54556 0.52467 0.16732 0.0
C737 C 0.555 0.5409 0.12991 0.0
C738 C 0.54047 0.52752 0.14508 0.0
C739 C 0.52953 0.50978 0.18261 0.0
H740 H 0.47635 0.42033 0.14163 0.0
H741 H 0.49982 0.44653 0.16787 0.0
H742 H 0.44069 0.44818 0.14187 0.0
H743 H 0.46357 0.47337 0.16967 0.0
H744 H 0.4524 0.46945 0.26717 0.0
H745 H 0.48028 0.49138 0.24268 0.0
H746 H 0.44669 0.4177 0.23053 0.0
H747 H 0.47604 0.43959 0.20826 0.0
H748 H 0.56064 0.58095 0.22341 0.0
H749 H 0.53677 0.55102 0.20105 0.0
H750 H 0.57621 0.54448 0.26307 0.0
H751 H 0.55204 0.51458 0.24113 0.0
H752 H 0.59565 0.55744 0.1642 0.0
H753 H 0.57039 0.53284 0.1903 0.0
H754 H 0.55059 0.5429 0.11296 0.0
H755 H 0.52513 0.51946 0.13942 0.0
N756 N 0.51463 0.49282 0.17254 0.0
N757 N 0.51227 0.49828 0.21846 0.0
C758 C 0.44447 0.0053 0.24201 0.0
C759 C 0.4321 0.98745 0.25406 0.0
C760 C 0.45967 0.00699 0.22771 0.0
C761 C 0.46299 0.99096 0.22524 0.0
C762 C 0.43548 0.97138 0.25147 0.0
C763 C 0.45091 0.97321 0.23739 0.0
C764 C 0.47991 0.99326 0.21134 0.0
C765 C 0.43695 0.9888 0.15603 0.0
C766 C 0.44347 0.00694 0.1443 0.0
C767 C 0.44954 0.98683 0.17128 0.0
C768 C 0.469 0.00282 0.17492 0.0
C769 C 0.46277 0.02319 0.14885 0.0
C770 C 0.47546 0.02104 0.16372 0.0
C771 C 0.48327 0.99997 0.18834 0.0
C772 C 0.55337 0.99262 0.15928 0.0
C773 C 0.56384 0.01025 0.14629 0.0
C774 C 0.53699 0.98909 0.17271 0.0
C775 C 0.53096 0.00329 0.17369 0.0
C776 C 0.55743 0.02416 0.14693 0.0
C777 C 0.54117 0.02069 0.16043 0.0
C778 C 0.51367 0.99998 0.18773 0.0
C779 C 0.55946 0.00427 0.23657 0.0
C780 C 0.55331 0.98784 0.25132 0.0
C781 C 0.54565 0.00639 0.22387 0.0
C782 C 0.52535 0.99167 0.2247 0.0
C783 C 0.53286 0.97351 0.25279 0.0
C784 C 0.51907 0.97539 0.23959 0.0
C785 C 0.51055 0.99363 0.21099 0.0
H786 H 0.44276 0.01822 0.24399 0.0
H787 H 0.46918 0.02106 0.21905 0.0
H788 H 0.42616 0.95733 0.26021 0.0
H789 H 0.45335 0.96072 0.23587 0.0
H790 H 0.42242 0.97578 0.15276 0.0
H791 H 0.44437 0.9725 0.17941 0.0
H792 H 0.46826 0.03754 0.14066 0.0
H793 H 0.49046 0.03357 0.16628 0.0
H794 H 0.5579 0.9816 0.15921 0.0
H795 H 0.52903 0.97528 0.1823 0.0
H796 H 0.5648 0.03766 0.13672 0.0
H797 H 0.53663 0.03172 0.16062 0.0
H798 H 0.57502 0.01555 0.2346 0.0
H799 H 0.55093 0.0196 0.21338 0.0
H800 H 0.5274 0.9609 0.2643 0.0
H801 H 0.50346 0.96405 0.24097 0.0
N802 N 0.49366 0.99033 0.22178 0.0
N803 N 0.49999 0.00305 0.17747 0.0
C804 C 0.56815 0.01809 0.79012 0.0
C805 C 0.56355 0.00197 0.77492 0.0
C806 C 0.55307 0.0188 0.80233 0.0
C807 C 0.53316 0.00347 0.79939 0.0
C808 C 0.54358 0.98685 0.77173 0.0
C809 C 0.5285 0.98771 0.7837 0.0
C810 C 0.51706 0.00369 0.81254 0.0
C811 C 0.55263 0.99128 0.86315 0.0
C812 C 0.56104 0.00555 0.88121 0.0
C813 C 0.53827 0.99093 0.84868 0.0
C814 C 0.53229 0.00506 0.85171 0.0
C815 C 0.55486 0.01954 0.88429 0.0
C816 C 0.54058 0.01921 0.86979 0.0
C817 C 0.5168 0.00473 0.8369 0.0
C818 C 0.43571 0.98018 0.86408 0.0
C819 C 0.43722 0.9963 0.8774 0.0
C820 C 0.45128 0.98289 0.84967 0.0
C821 C 0.46889 0.00161 0.84868 0.0
C822 C 0.45481 0.01525 0.87559 0.0
C823 C 0.47063 0.01772 0.86185 0.0
C824 C 0.48601 0.00388 0.83539 0.0
C825 C 0.45022 0.01692 0.78619 0.0
C826 C 0.4448 0.00593 0.76536 0.0
C827 C 0.46362 0.01605 0.80114 0.0
C828 C 0.47129 0.00355 0.79599 0.0
C829 C 0.45274 0.9938 0.75985 0.0
C830 C 0.46577 0.99255 0.77507 0.0
C831 C 0.48645 0.00328 0.81098 0.0
H832 H 0.58344 0.02991 0.7929 0.0
H833 H 0.55693 0.03126 0.81412 0.0
H834 H 0.53963 0.97441 0.7599 0.0
H835 H 0.51321 0.97583 0.78107 0.0
H836 H 0.55681 0.9801 0.86054 0.0
H837 H 0.53165 0.9794 0.83535 0.0
H838 H 0.56119 0.03088 0.89785 0.0
H839 H 0.53612 0.03017 0.87259 0.0
H840 H 0.42278 0.96524 0.8652 0.0
H841 H 0.44985 0.97019 0.83989 0.0
H842 H 0.45654 0.02826 0.88485 0.0
H843 H 0.48418 0.03228 0.86129 0.0
H844 H 0.44455 0.02667 0.79057 0.0
H845 H 0.46843 0.02574 0.81625 0.0
H846 H 0.44876 0.98522 0.74383 0.0
H847 H 0.47166 0.98304 0.7704 0.0
N848 N 0.50191 0.00299 0.80056 0.0
N849 N 0.50125 0.00476 0.84737 0.0
C850 C 0.99551 0.55299 0.79095 0.0
C851 C 0.01034 0.56324 0.77425 0.0
C852 C 0.99612 0.53894 0.80515 0.0
C853 C 0.01153 0.53485 0.80283 0.0
C854 C 0.02551 0.55881 0.77165 0.0
C855 C 0.02598 0.54457 0.78567 0.0
C856 C 0.01254 0.52037 0.81817 0.0
C857 C 0.02851 0.57488 0.86199 0.0
C858 C 0.01575 0.5714 0.88083 0.0
C859 C 0.02721 0.55881 0.84928 0.0
C860 C 0.01291 0.53895 0.85491 0.0
C861 C 0.00138 0.55149 0.88635 0.0
C862 C 1.00004 0.53544 0.87356 0.0
C863 C 0.01212 0.52175 0.8425 0.0
C864 C 0.02602 0.4563 0.87355 0.0
C865 C 0.01136 0.44741 0.89073 0.0
C866 C 0.02617 0.47039 0.85865 0.0
C867 C 0.01176 0.47593 0.86083 0.0
C868 C 0.99711 0.45315 0.893 0.0
C869 C 0.99743 0.46741 0.87834 0.0
C870 C 0.01187 0.49103 0.84546 0.0
C871 C 0.99098 0.43647 0.79934 0.0
C872 C 0.00503 0.43887 0.78254 0.0
C873 C 0.99373 0.45292 0.81252 0.0
C874 C 0.01046 0.47204 0.80891 0.0
C875 C 0.02199 0.45792 0.77933 0.0
C876 C 0.02456 0.47445 0.79224 0.0
C877 C 0.01238 0.48973 0.82117 0.0
H878 H 0.9837 0.55617 0.79338 0.0
H879 H 0.98461 0.53133 0.81803 0.0
H880 H 0.03701 0.56635 0.75875 0.0
H881 H 0.03787 0.54148 0.78347 0.0
H882 H 0.03968 0.59003 0.85725 0.0
H883 H 0.0377 0.56194 0.83539 0.0
H884 H 0.99159 0.54827 0.90103 0.0
H885 H 0.98905 0.52023 0.87839 0.0
H886 H 0.03716 0.45213 0.87144 0.0
H887 H 0.03763 0.47708 0.84555 0.0
H888 H 0.98578 0.4467 0.90628 0.0
H889 H 0.98631 0.47161 0.88048 0.0
H890 H 0.9778 0.4219 0.80209 0.0
H891 H 0.9825 0.45084 0.82504 0.0
H892 H 0.03291 0.46013 0.7663 0.0
H893 H 0.03745 0.48914 0.78909 0.0
N894 N 0.01278 0.50447 0.80841 0.0
N895 N 0.01167 0.50696 0.85521 0.0
C896 C 0.55454 0.57477 0.79092 0.0
C897 C 0.56186 0.56769 0.77315 0.0
C898 C 0.53748 0.56149 0.80334 0.0
C899 C 0.52771 0.54069 0.79892 0.0
C900 C 0.55153 0.54694 0.76818 0.0
C901 C 0.53481 0.53366 0.78097 0.0
C902 C 0.50988 0.52591 0.81213 0.0
C903 C 0.55202 0.55663 0.87546 0.0
C904 C 0.54753 0.57052 0.88545 0.0
C905 C 0.53972 0.54297 0.85845 0.0
C906 C 0.52268 0.54287 0.85131 0.0
C907 C 0.53082 0.5708 0.87738 0.0
C908 C 0.51833 0.55687 0.8608 0.0
C909 C 0.508 0.52663 0.83636 0.0
C910 C 0.44949 0.44145 0.85804 0.0
C911 C 0.44049 0.4439 0.87795 0.0
C912 C 0.46142 0.45775 0.84393 0.0
C913 C 0.46421 0.47679 0.84901 0.0
C914 C 0.44324 0.46297 0.88296 0.0
C915 C 0.45503 0.47925 0.86867 0.0
C916 C 0.47824 0.49449 0.83527 0.0
C917 C 0.42953 0.45171 0.78867 0.0
C918 C 0.43547 0.44493 0.76925 0.0
C919 C 0.44348 0.46828 0.80165 0.0
C920 C 0.46381 0.47794 0.79614 0.0
C921 C 0.45567 0.45562 0.76284 0.0
C922 C 0.46965 0.4718 0.77621 0.0
C923 C 0.47911 0.49441 0.81086 0.0
H924 H 0.562 0.59059 0.79542 0.0
H925 H 0.5319 0.56766 0.81611 0.0
H926 H 0.5562 0.54085 0.75422 0.0
H927 H 0.52747 0.51776 0.77683 0.0
H928 H 0.56454 0.5557 0.88141 0.0
H929 H 0.54303 0.53196 0.85156 0.0
H930 H 0.52711 0.58155 0.88416 0.0
H931 H 0.50511 0.55685 0.85555 0.0
H932 H 0.44756 0.42697 0.85351 0.0
H933 H 0.46884 0.45553 0.82933 0.0
H934 H 0.43685 0.4655 0.89836 0.0
H935 H 0.45726 0.49387 0.87317 0.0
H936 H 0.4142 0.44399 0.79428 0.0
H937 H 0.43834 0.47325 0.81628 0.0
H938 H 0.46081 0.45146 0.74753 0.0
H939 H 0.48514 0.47925 0.77117 0.0
N940 N 0.49514 0.50992 0.80037 0.0
N941 N 0.49245 0.51082 0.84696 0.0
C942 C 0.67344 0.78899 0.4664 0.0
C943 C 0.65951 0.76905 0.47227 0.0
C944 C 0.67544 0.80497 0.47995 0.0
C945 C 0.66375 0.80134 0.49981 0.0
C946 C 0.648 0.76542 0.49236 0.0
C947 C 0.65008 0.78142 0.50598 0.0
C948 C 0.66469 0.8184 0.51273 0.0
C949 C 0.66024 0.78479 0.5848 0.0
C950 C 0.67651 0.78227 0.58056 0.0
C951 C 0.65677 0.79711 0.57068 0.0
C952 C 0.66918 0.80672 0.55174 0.0
C953 C 0.68917 0.79224 0.56188 0.0
C954 C 0.68549 0.80429 0.54753 0.0
C955 C 0.66566 0.82004 0.53709 0.0
C956 C 0.64532 0.88404 0.55541 0.0
C957 C 0.65945 0.89559 0.57243 0.0
C958 C 0.64648 0.86895 0.54328 0.0
C959 C 0.66187 0.86528 0.5478 0.0
C960 C 0.67485 0.89183 0.57687 0.0
C961 C 0.67594 0.87673 0.56479 0.0
C962 C 0.66311 0.84927 0.53522 0.0
C963 C 0.68732 0.8987 0.48204 0.0
C964 C 0.67123 0.89775 0.47023 0.0
C965 C 0.68465 0.88264 0.49528 0.0
C966 C 0.66599 0.86508 0.49667 0.0
C967 C 0.65246 0.87999 0.47175 0.0
C968 C 0.64994 0.8637 0.4846 0.0
C969 C 0.66355 0.84841 0.51093 0.0
H970 H 0.6823 0.79228 0.45084 0.0
H971 H 0.68594 0.82021 0.47474 0.0
H972 H 0.63719 0.75021 0.49734 0.0
H973 H 0.64054 0.77821 0.5209 0.0
H974 H 0.65034 0.77739 0.59919 0.0
H975 H 0.64424 0.79895 0.57438 0.0
H976 H 0.70175 0.79049 0.55817 0.0
H977 H 0.69551 0.81189 0.53329 0.0
H978 H 0.63312 0.88633 0.55185 0.0
H979 H 0.63512 0.85991 0.53068 0.0
H980 H 0.68615 0.90066 0.58962 0.0
H981 H 0.68792 0.87413 0.56853 0.0
H982 H 0.70213 0.91174 0.48087 0.0
H983 H 0.69725 0.88386 0.50434 0.0
H984 H 0.63961 0.87867 0.46328 0.0
H985 H 0.6354 0.85021 0.48555 0.0
N986 N 0.66411 0.83291 0.50052 0.0
N987 N 0.66453 0.83527 0.54746 0.0
C988 C 0.11297 0.76221 0.4925 0.0
C989 C 0.10557 0.7687 0.47474 0.0
C990 C 0.12874 0.77613 0.50631 0.0
C991 C 0.13724 0.79684 0.50288 0.0
C992 C 0.11382 0.78944 0.4717 0.0
C993 C 0.12953 0.80333 0.48556 0.0
C994 C 0.1552 0.81179 0.51573 0.0
C995 C 0.10715 0.78402 0.5692 0.0
C996 C 0.1091 0.77071 0.58351 0.0
C997 C 0.12283 0.79715 0.55496 0.0
C998 C 0.14081 0.79734 0.55491 0.0
C999 C 0.12712 0.77092 0.58348 0.0
C1000 C 0.14295 0.78433 0.56949 0.0
C1001 C 0.15738 0.81132 0.53986 0.0
C1002 C 0.22725 0.89214 0.56021 0.0
C1003 C 0.23892 0.88813 0.57486 0.0
C1004 C 0.21146 0.87659 0.54797 0.0
C1005 C 0.20701 0.85671 0.5501 0.0
C1006 C 0.23451 0.86823 0.57693 0.0
C1007 C 0.21853 0.85259 0.56481 0.0
C1008 C 0.18992 0.8403 0.53751 0.0
C1009 C 0.2372 0.87532 0.48421 0.0
C1010 C 0.23208 0.8863 0.46975 0.0
C1011 C 0.22287 0.8605 0.49857 0.0
C1012 C 0.20319 0.85632 0.49846 0.0
C1013 C 0.21234 0.88191 0.46954 0.0
C1014 C 0.19801 0.86695 0.48359 0.0
C1015 C 0.18773 0.84072 0.5134 0.0
H1016 H 0.10687 0.74635 0.49539 0.0
H1017 H 0.13471 0.77065 0.51909 0.0
H1018 H 0.10871 0.79497 0.45798 0.0
H1019 H 0.13594 0.81922 0.48245 0.0
H1020 H 0.09341 0.78412 0.56886 0.0
H1021 H 0.12096 0.80725 0.54403 0.0
H1022 H 0.12903 0.76091 0.5945 0.0
H1023 H 0.15675 0.78435 0.56979 0.0
H1024 H 0.23036 0.90734 0.5582 0.0
H1025 H 0.20254 0.88007 0.53704 0.0
H1026 H 0.24315 0.86471 0.5883 0.0
H1027 H 0.21521 0.83732 0.56682 0.0
H1028 H 0.25231 0.87841 0.48464 0.0
H1029 H 0.22711 0.85223 0.50965 0.0
H1030 H 0.20794 0.88997 0.45831 0.0
H1031 H 0.1829 0.86388 0.4831 0.0
N1032 N 0.17044 0.82652 0.50348 0.0
N1033 N 0.1747 0.82556 0.54988 0.0
C1034 C 0.22991 0.3438 0.48695 0.0
C1035 C 0.22609 0.33003 0.46878 0.0
C1036 C 0.21441 0.34204 0.50078 0.0
C1037 C 0.19479 0.32631 0.49693 0.0
C1038 C 0.20642 0.31435 0.46493 0.0
C1039 C 0.19094 0.31258 0.47879 0.0
C1040 C 0.1781 0.32477 0.51077 0.0
C1041 C 0.2153 0.31445 0.561 0.0
C1042 C 0.225 0.33009 0.57734 0.0
C1043 C 0.20029 0.31332 0.54709 0.0
C1044 C 0.19467 0.32776 0.54937 0.0
C1045 C 0.21921 0.34441 0.57973 0.0
C1046 C 0.20403 0.34312 0.56603 0.0
C1047 C 0.17853 0.3265 0.5351 0.0
C1048 C 0.0955 0.3038 0.56038 0.0
C1049 C 0.09939 0.31839 0.57755 0.0
C1050 C 0.1108 0.30563 0.54609 0.0
C1051 C 0.13022 0.3221 0.54871 0.0
C1052 C 0.11887 0.33476 0.58019 0.0
C1053 C 0.13415 0.33651 0.56602 0.0
C1054 C 0.14681 0.32369 0.53472 0.0
C1055 C 0.10692 0.33067 0.48504 0.0
C1056 C 0.09831 0.31527 0.46822 0.0
C1057 C 0.12248 0.33288 0.49889 0.0
C1058 C 0.12969 0.31972 0.49615 0.0
C1059 C 0.10586 0.30241 0.46526 0.0
C1060 C 0.12145 0.3047 0.47896 0.0
C1061 C 0.14629 0.32186 0.51038 0.0
H1062 H 0.24488 0.356 0.49045 0.0
H1063 H 0.21775 0.3532 0.5142 0.0
H1064 H 0.2029 0.30371 0.45083 0.0
H1065 H 0.1759 0.30049 0.47529 0.0
H1066 H 0.21953 0.30326 0.55875 0.0
H1067 H 0.19298 0.30109 0.53465 0.0
H1068 H 0.2263 0.3565 0.59236 0.0
H1069 H 0.19977 0.35428 0.56824 0.0
H1070 H 0.08062 0.29106 0.55791 0.0
H1071 H 0.10751 0.29403 0.53325 0.0
H1072 H 0.12237 0.34608 0.59349 0.0
H1073 H 0.14908 0.34917 0.56857 0.0
H1074 H 0.10144 0.34082 0.48769 0.0
H1075 H 0.12894 0.34493 0.51162 0.0
H1076 H 0.09979 0.29062 0.45218 0.0
H1077 H 0.12693 0.29455 0.4763 0.0
N1078 N 0.16192 0.32236 0.49938 0.0
N1079 N 0.16295 0.32606 0.5461 0.0
H1080 H 0.0158 0.38569 0.06965 0.0
H1081 H 0.95167 0.35218 0.07365 0.0
H1082 H 0.95272 0.37433 0.10443 0.0
H1083 H 0.97142 0.40464 0.12797 0.0
H1084 H 0.03548 0.43822 0.12499 0.0
H1085 H 0.03479 0.41469 0.09587 0.0
C1086 C 0.00205 0.3831 0.07739 0.0
C1087 C 0.98369 0.36737 0.06906 0.0
C1088 C 0.0027 0.39602 0.09512 0.0
C1089 C 0.96605 0.36422 0.07948 0.0
C1090 C 0.96659 0.37691 0.09712 0.0
C1091 C 0.98529 0.40661 0.12141 0.0
C1092 C 0.00346 0.42325 0.12863 0.0
C1093 C 0.98479 0.39305 0.10477 0.0
C1094 C 0.02125 0.42571 0.11949 0.0
C1095 C 0.02087 0.41222 0.10291 0.0
H1096 H 0.62471 0.60409 0.05234 0.0
H1097 H 0.63311 0.65156 0.09915 0.0
H1098 H 0.61713 0.62735 0.13022 0.0
H1099 H 0.59707 0.59219 0.14261 0.0
H1100 H 0.58543 0.54446 0.09454 0.0
H1101 H 0.6064 0.56905 0.06548 0.0
C1102 C 0.62347 0.60912 0.06952 0.0
C1103 C 0.63012 0.62951 0.07357 0.0
C1104 C 0.61343 0.59499 0.08697 0.0
C1105 C 0.62808 0.63589 0.09572 0.0
C1106 C 0.61888 0.62206 0.11343 0.0
C1107 C 0.59955 0.58728 0.12592 0.0
C1108 C 0.58992 0.56668 0.12062 0.0
C1109 C 0.61095 0.6015 0.10906 0.0
C1110 C 0.59282 0.56032 0.09888 0.0
C1111 C 0.60474 0.57436 0.08229 0.0
H1112 H 0.4014 0.01573 0.05616 0.0
H1113 H 0.34935 0.97312 0.09387 0.0
H1114 H 0.36997 0.97607 0.12685 0.0
H1115 H 0.40286 0.98886 0.14377 0.0
H1116 H 0.4552 0.02827 0.10395 0.0
H1117 H 0.43449 0.0289 0.07346 0.0
C1118 C 0.39462 0.00741 0.07179 0.0
C1119 C 0.37394 0.99432 0.07273 0.0
C1120 C 0.40664 0.00854 0.09031 0.0
C1121 C 0.36527 0.98329 0.09285 0.0
C1122 C 0.37705 0.98493 0.11165 0.0
C1123 C 0.40983 0.9975 0.1284 0.0
C1124 C 0.4307 0.00845 0.12639 0.0
C1125 C 0.39779 0.99715 0.11036 0.0
C1126 C 0.43927 0.01993 0.10642 0.0
C1127 C 0.4274 0.02016 0.08874 0.0
H1128 H 0.36059 0.96987 0.93943 0.0
H1129 H 0.40364 0.02004 0.98064 0.0
H1130 H 0.42973 0.02622 0.95286 0.0
H1131 H 0.4405 0.01639 0.91814 0.0
H1132 H 0.39684 0.96911 0.87384 0.0
H1133 H 0.37096 0.96249 0.90187 0.0
C1134 C 0.37568 0.9822 0.94217 0.0
C1135 C 0.38027 0.99441 0.96206 0.0
C1136 C 0.39053 0.98603 0.92577 0.0
C1137 C 0.39978 0.0105 0.96538 0.0
C1138 C 0.41471 0.01398 0.94956 0.0
C1139 C 0.42533 0.00496 0.91407 0.0
C1140 C 0.42096 0.99319 0.89373 0.0
C1141 C 0.41027 0.00176 0.92978 0.0
C1142 C 0.40103 0.97812 0.88952 0.0
C1143 C 0.38606 0.97442 0.90548 0.0
H1144 H 0.01929 0.39244 0.96417 0.0
H1145 H 0.95699 0.35483 0.94744 0.0
H1146 H 0.95991 0.37878 0.91904 0.0
H1147 H 0.97941 0.41114 0.90016 0.0
H1148 H 0.04167 0.44908 0.91568 0.0
H1149 H 0.03956 0.42427 0.94305 0.0
C1150 C 0.00641 0.3894 0.95417 0.0
C1151 C 0.98791 0.37188 0.95828 0.0
C1152 C 0.00813 0.40335 0.93765 0.0
C1153 C 0.97141 0.36821 0.94498 0.0
C1154 C 0.97302 0.38193 0.92864 0.0
C1155 C 0.99251 0.41395 0.90955 0.0
C1156 C 0.01059 0.43195 0.90615 0.0
C1157 C 0.99118 0.39967 0.92512 0.0
C1158 C 0.02757 0.43528 0.91804 0.0
C1159 C 0.02634 0.42114 0.93374 0.0
H1160 H 0.58488 0.62415 0.97515 0.0
H1161 H 0.63809 0.62869 0.9469 0.0
H1162 H 0.61923 0.60778 0.91379 0.0
H1163 H 0.58768 0.5886 0.89268 0.0
H1164 H 0.53418 0.58216 0.92295 0.0
H1165 H 0.55326 0.60385 0.95507 0.0
C1166 C 0.59238 0.62062 0.96173 0.0
C1167 C 0.61286 0.62804 0.96344 0.0
C1168 C 0.58144 0.6084 0.94295 0.0
C1169 C 0.6223 0.6231 0.94604 0.0
C1170 C 0.61155 0.6112 0.92706 0.0
C1171 C 0.58011 0.59173 0.90639 0.0
C1172 C 0.55947 0.58386 0.90506 0.0
C1173 C 0.59109 0.60377 0.92534 0.0
C1174 C 0.55008 0.58837 0.923 0.0
C1175 C 0.56096 0.60064 0.9416 0.0
H1176 H 0.04069 0.6436 0.95032 0.0
H1177 H 0.97696 0.61548 0.95623 0.0
H1178 H 0.97256 0.59137 0.92585 0.0
H1179 H 0.98678 0.57667 0.89978 0.0
H1180 H 0.05048 0.60406 0.89552 0.0
H1181 H 0.05484 0.63026 0.92278 0.0
C1182 C 0.0258 0.63236 0.94486 0.0
C1183 C 0.0092 0.63127 0.95581 0.0
C1184 C 0.02335 0.61835 0.92767 0.0
C1185 C 0.99004 0.61663 0.94828 0.0
C1186 C 0.98749 0.60278 0.93092 0.0
C1187 C 0.00161 0.58839 0.90481 0.0
C1188 C 0.01826 0.58831 0.8957 0.0
C1189 C 0.00403 0.60321 0.92089 0.0
C1190 C 0.03739 0.60384 0.90205 0.0
C1191 C 0.03992 0.61876 0.9178 0.0
H1192 H 0.40596 0.3709 0.94604 0.0
H1193 H 0.36331 0.38927 0.9591 0.0
H1194 H 0.3795 0.41547 0.93015 0.0
H1195 H 0.4064 0.43376 0.90188 0.0
H1196 H 0.44974 0.416 0.8907 0.0
H1197 H 0.43237 0.38876 0.9179 0.0
C1198 C 0.40006 0.38051 0.94252 0.0
C1199 C 0.38343 0.37808 0.95484 0.0
C1200 C 0.40955 0.39567 0.92611 0.0
C1201 C 0.37611 0.39079 0.94997 0.0
C1202 C 0.38537 0.4058 0.93341 0.0
C1203 C 0.4121 0.424 0.90547 0.0
C1204 C 0.42933 0.42694 0.8941 0.0
C1205 C 0.40224 0.40851 0.92155 0.0
C1206 C 0.43633 0.41393 0.8988 0.0
C1207 C 0.4265 0.39841 0.91452 0.0
H1208 H 0.63277 0.00919 0.93534 0.0
H1209 H 0.60389 0.02066 0.99206 0.0
H1210 H 0.57729 0.01617 0.96646 0.0
H1211 H 0.56313 0.01064 0.92778 0.0
H1212 H 0.59253 0.00088 0.87016 0.0
H1213 H 0.61787 0.0028 0.89615 0.0
C1214 C 0.62048 0.01044 0.94198 0.0
C1215 C 0.62009 0.01515 0.96543 0.0
C1216 C 0.60544 0.00827 0.927 0.0
C1217 C 0.60434 0.017 0.974 0.0
C1218 C 0.5892 0.01449 0.95939 0.0
C1219 C 0.57514 0.00904 0.92086 0.0
C1220 C 0.57599 0.00579 0.89703 0.0
C1221 C 0.58976 0.01045 0.93581 0.0
C1222 C 0.59143 0.00328 0.88846 0.0
C1223 C 0.60599 0.00448 0.9033 0.0
H1224 H 0.63929 0.04221 0.0823 0.0
H1225 H 0.60924 0.97958 0.06199 0.0
H1226 H 0.58356 0.97182 0.09096 0.0
H1227 H 0.56808 0.98333 0.11958 0.0
H1228 H 0.59856 0.04591 0.14013 0.0
H1229 H 0.62548 0.05313 0.11331 0.0
C1230 C 0.62724 0.02681 0.08431 0.0
C1231 C 0.62613 0.01157 0.06975 0.0
C1232 C 0.61243 0.02245 0.10085 0.0
C1233 C 0.6105 0.99166 0.07287 0.0
C1234 C 0.59572 0.9872 0.08938 0.0
C1235 C 0.58077 0.99848 0.11854 0.0
C1236 C 0.5811 0.01409 0.13164 0.0
C1237 C 0.59631 0.00255 0.10312 0.0
C1238 C 0.59765 0.03367 0.12987 0.0
C1239 C 0.61314 0.03782 0.11463 0.0
H1240 H 0.9807 0.60603 0.06148 0.0
H1241 H 0.04312 0.64608 0.07589 0.0
H1242 H 0.04218 0.62304 0.10428 0.0
H1243 H 0.02438 0.59099 0.12406 0.0
H1244 H 0.96209 0.5505 0.1107 0.0
H1245 H 0.96221 0.57425 0.08321 0.0
C1246 C 0.99404 0.60978 0.07096 0.0
C1247 C 0.01199 0.62775 0.06621 0.0
C1248 C 0.99349 0.59634 0.08748 0.0
C1249 C 0.0291 0.63233 0.07884 0.0
C1250 C 0.02864 0.61914 0.09518 0.0
C1251 C 0.01083 0.58735 0.11508 0.0
C1252 C 0.99333 0.56895 0.1192 0.0
C1253 C 0.01103 0.60101 0.09939 0.0
C1254 C 0.97578 0.56461 0.10783 0.0
C1255 C 0.97586 0.57815 0.09205 0.0
H1256 H 0.4168 0.37506 0.05273 0.0
H1257 H 0.36517 0.37506 0.07889 0.0
H1258 H 0.38469 0.3966 0.11143 0.0
H1259 H 0.41654 0.41539 0.13227 0.0
H1260 H 0.46853 0.41751 0.1032 0.0
H1261 H 0.44854 0.39471 0.07239 0.0
C1262 C 0.40975 0.37965 0.06563 0.0
C1263 C 0.38955 0.37335 0.06352 0.0
C1264 C 0.42109 0.39228 0.0839 0.0
C1265 C 0.38072 0.37973 0.08014 0.0
C1266 C 0.39186 0.392 0.09875 0.0
C1267 C 0.42359 0.41106 0.11912 0.0
C1268 C 0.44408 0.41806 0.12047 0.0
C1269 C 0.41211 0.39843 0.10076 0.0
C1270 C 0.45276 0.41199 0.10324 0.0
C1271 C 0.44137 0.39909 0.08534 0.0
H1272 H 0.63129 0.69753 0.40063 0.0
H1273 H 0.69475 0.72408 0.39319 0.0
H1274 H 0.70036 0.74831 0.42385 0.0
H1275 H 0.68737 0.76337 0.45112 0.0
H1276 H 0.62402 0.73717 0.45811 0.0
H1277 H 0.61831 0.71124 0.42957 0.0
C1278 C 0.64637 0.70851 0.40579 0.0
C1279 C 0.66254 0.70906 0.39435 0.0
C1280 C 0.64954 0.72251 0.42338 0.0
C1281 C 0.68196 0.72332 0.40151 0.0
C1282 C 0.68522 0.73724 0.41906 0.0
C1283 C 0.67232 0.75194 0.44642 0.0
C1284 C 0.65616 0.75227 0.45662 0.0
C1285 C 0.66914 0.73721 0.42981 0.0
C1286 C 0.63673 0.73717 0.45066 0.0
C1287 C 0.63344 0.72242 0.43421 0.0
H1288 H 0.29081 0.94218 0.39225 0.0
H1289 H 0.27141 0.98132 0.4198 0.0
H1290 H 0.25296 0.95745 0.45009 0.0
H1291 H 0.23956 0.92416 0.46653 0.0
H1292 H 0.25808 0.88434 0.43949 0.0
H1293 H 0.27981 0.90978 0.4115 0.0
C1294 C 0.28285 0.94562 0.40514 0.0
C1295 C 0.28227 0.96339 0.4035 0.0
C1296 C 0.27194 0.93162 0.4225 0.0
C1297 C 0.27187 0.96762 0.42039 0.0
C1298 C 0.26128 0.95398 0.43776 0.0
C1299 C 0.24848 0.92114 0.4546 0.0
C1300 C 0.24706 0.90238 0.45479 0.0
C1301 C 0.26073 0.93571 0.43856 0.0
C1302 C 0.25895 0.89872 0.43959 0.0
C1303 C 0.27128 0.91322 0.42354 0.0
H1304 H 0.02344 0.28673 0.40495 0.0
H1305 H 0.05303 0.35025 0.39131 0.0
H1306 H 0.07878 0.35661 0.41942 0.0
H1307 H 0.09416 0.34372 0.44589 0.0
H1308 H 0.06439 0.28003 0.45833 0.0
H1309 H 0.03753 0.27421 0.43254 0.0
C1310 C 0.03541 0.30204 0.40816 0.0
C1311 C 0.0363 0.31795 0.3958 0.0
C1312 C 0.05028 0.30555 0.42402 0.0
C1313 C 0.05192 0.33767 0.40047 0.0
C1314 C 0.06672 0.34132 0.41651 0.0
C1315 C 0.08166 0.32861 0.44316 0.0
C1316 C 0.0814 0.3123 0.45383 0.0
C1317 C 0.06624 0.32532 0.42809 0.0
C1318 C 0.06514 0.2928 0.45002 0.0
C1319 C 0.04972 0.28946 0.43535 0.0
H1320 H 0.05245 0.34854 0.28926 0.0
H1321 H 0.02191 0.28416 0.27887 0.0
H1322 H 0.04625 0.28811 0.25002 0.0
H1323 H 0.07732 0.30928 0.22977 0.0
H1324 H 0.10792 0.37371 0.23871 0.0
H1325 H 0.08261 0.37017 0.26636 0.0
C1326 C 0.05098 0.33539 0.28051 0.0
C1327 C 0.03539 0.31608 0.28651 0.0
C1328 C 0.06519 0.3377 0.26387 0.0
C1329 C 0.03378 0.29923 0.27487 0.0
C1330 C 0.04773 0.30143 0.25832 0.0
C1331 C 0.07831 0.32264 0.23731 0.0
C1332 C 0.0946 0.34173 0.2321 0.0
C1333 C 0.06366 0.32053 0.25298 0.0
C1334 C 0.09574 0.35878 0.2426 0.0
C1335 C 0.08119 0.35679 0.25833 0.0
H1336 H 0.63618 0.69897 0.27332 0.0
H1337 H 0.69832 0.73068 0.29167 0.0
H1338 H 0.70477 0.75721 0.26447 0.0
H1339 H 0.69212 0.77257 0.23754 0.0
H1340 H 0.62973 0.74058 0.22054 0.0
H1341 H 0.62404 0.71307 0.24535 0.0
C1342 C 0.65121 0.71159 0.27136 0.0
C1343 C 0.6667 0.71285 0.28476 0.0
C1344 C 0.65473 0.72688 0.25607 0.0
C1345 C 0.68608 0.72928 0.28165 0.0
C1346 C 0.68977 0.74452 0.26616 0.0
C1347 C 0.67735 0.75946 0.23909 0.0
C1348 C 0.66132 0.75874 0.22743 0.0
C1349 C 0.67413 0.74366 0.25359 0.0
C1350 C 0.64224 0.74168 0.22967 0.0
C1351 C 0.63898 0.7259 0.24376 0.0
H1352 H 0.25714 0.9703 0.28437 0.0
H1353 H 0.29797 0.94899 0.29096 0.0
H1354 H 0.28184 0.92562 0.2587 0.0
H1355 H 0.25522 0.91021 0.22976 0.0
H1356 H 0.2139 0.93094 0.22424 0.0
H1357 H 0.23149 0.95589 0.25464 0.0
C1358 C 0.2626 0.96062 0.27876 0.0
C1359 C 0.27864 0.96131 0.29028 0.0
C1360 C 0.25323 0.94716 0.2603 0.0
C1361 C 0.28557 0.94873 0.28255 0.0
C1362 C 0.27636 0.93534 0.26409 0.0
C1363 C 0.25007 0.92019 0.23523 0.0
C1364 C 0.23324 0.91866 0.22478 0.0
C1365 C 0.26002 0.93426 0.25304 0.0
C1366 C 0.22695 0.93194 0.23177 0.0
C1367 C 0.23689 0.9461 0.24931 0.0
H1368 H 0.65688 0.95377 0.2824 0.0
H1369 H 0.72094 0.98405 0.27937 0.0
H1370 H 0.71884 0.96169 0.24821 0.0
H1371 H 0.69908 0.93189 0.2242 0.0
H1372 H 0.63508 0.90132 0.22654 0.0
H1373 H 0.63696 0.92537 0.25573 0.0
C1374 C 0.67039 0.95566 0.27474 0.0
C1375 C 0.68903 0.97049 0.28348 0.0
C1376 C 0.66913 0.94255 0.25687 0.0
C1377 C 0.70636 0.97268 0.27324 0.0
C1378 C 0.70521 0.95988 0.25538 0.0
C1379 C 0.68551 0.93071 0.23065 0.0
C1380 C 0.66698 0.91475 0.22321 0.0
C1381 C 0.68669 0.94452 0.2474 0.0
C1382 C 0.64957 0.91329 0.23219 0.0
C1383 C 0.65062 0.92708 0.24883 0.0
H1384 H 0.06689 0.69564 0.26976 0.0
H1385 H 0.0379 0.72681 0.29494 0.0
H1386 H 0.05572 0.75298 0.26633 0.0
H1387 H 0.08133 0.76821 0.23583 0.0
H1388 H 0.1104 0.73694 0.21153 0.0
H1389 H 0.09073 0.70963 0.23815 0.0
C1390 C 0.06434 0.70808 0.26899 0.0
C1391 C 0.05118 0.70929 0.28469 0.0
C1392 C 0.07474 0.72315 0.25269 0.0
C1393 C 0.04799 0.72548 0.28317 0.0
C1394 C 0.0582 0.7405 0.26682 0.0
C1395 C 0.0831 0.75526 0.23616 0.0
C1396 C 0.09742 0.75467 0.22191 0.0
C1397 C 0.07186 0.73965 0.25173 0.0
C1398 C 0.09968 0.73787 0.2226 0.0
C1399 C 0.08841 0.72223 0.23777 0.0
H1400 H 0.31316 0.3763 0.27447 0.0
H1401 H 0.27971 0.31569 0.2998 0.0
H1402 H 0.25262 0.30824 0.27315 0.0
H1403 H 0.23717 0.32016 0.24526 0.0
H1404 H 0.27083 0.38134 0.2218 0.0
H1405 H 0.29901 0.38737 0.2453 0.0
C1406 C 0.30005 0.36135 0.27411 0.0
C1407 C 0.29845 0.34666 0.28938 0.0
C1408 C 0.28441 0.35737 0.25926 0.0
C1409 C 0.28139 0.32733 0.2883 0.0
C1410 C 0.26582 0.3231 0.27316 0.0
C1411 C 0.25079 0.33471 0.24512 0.0
C1412 C 0.25182 0.35038 0.23205 0.0
C1413 C 0.26696 0.33817 0.25897 0.0
C1414 C 0.26953 0.36916 0.23205 0.0
C1415 C 0.28568 0.3726 0.24539 0.0
H1416 H 0.28633 0.32558 0.39939 0.0
H1417 H 0.31043 0.3897 0.39914 0.0
H1418 H 0.28589 0.38612 0.42775 0.0
H1419 H 0.25643 0.3647 0.45117 0.0
H1420 H 0.23229 0.30066 0.45154 0.0
H1421 H 0.2579 0.30435 0.42434 0.0
C1422 C 0.28636 0.33883 0.40568 0.0
C1423 C 0.30021 0.35787 0.39693 0.0
C1424 C 0.27207 0.33668 0.42201 0.0
C1425 C 0.29995 0.37483 0.40542 0.0
C1426 C 0.28588 0.37281 0.42179 0.0
C1427 C 0.25695 0.35158 0.4456 0.0
C1428 C 0.24239 0.33243 0.45333 0.0
C1429 C 0.27171 0.3538 0.42997 0.0
C1430 C 0.24313 0.31555 0.44561 0.0
C1431 C 0.25783 0.31765 0.43015 0.0
H1432 H 0.69993 0.97897 0.41748 0.0
H1433 H 0.65329 0.9387 0.37091 0.0
H1434 H 0.64467 0.91052 0.39639 0.0
H1435 H 0.65228 0.89703 0.43023 0.0
H1436 H 0.69692 0.93803 0.47866 0.0
H1437 H 0.70459 0.96609 0.45389 0.0
C1438 C 0.68776 0.96404 0.41306 0.0
C1439 C 0.6774 0.96085 0.39227 0.0
C1440 C 0.68271 0.94798 0.42792 0.0
C1441 C 0.66147 0.94152 0.38686 0.0
C1442 C 0.65661 0.92539 0.40136 0.0
C1443 C 0.66339 0.91209 0.43574 0.0
C1444 C 0.67429 0.91512 0.45617 0.0
C1445 C 0.66738 0.92839 0.42174 0.0
C1446 C 0.68873 0.93493 0.46269 0.0
C1447 C 0.69303 0.95112 0.44863 0.0
H1448 H 0.04125 0.71896 0.398 0.0
H1449 H 0.07189 0.68599 0.39806 0.0
H1450 H 0.09265 0.70676 0.42986 0.0
H1451 H 0.10387 0.73571 0.45571 0.0
H1452 H 0.07366 0.76899 0.45621 0.0
H1453 H 0.0511 0.74673 0.42605 0.0
C1454 C 0.05233 0.71618 0.40509 0.0
C1455 C 0.05505 0.701 0.39539 0.0
C1456 C 0.06445 0.72834 0.42338 0.0
C1457 C 0.0695 0.69763 0.40494 0.0
C1458 C 0.08143 0.70952 0.42318 0.0
C1459 C 0.09209 0.73787 0.44962 0.0
C1460 C 0.09051 0.75404 0.4582 0.0
C1461 C 0.07926 0.7251 0.43227 0.0
C1462 C 0.07537 0.75681 0.44971 0.0
C1463 C 0.06243 0.74405 0.43251 0.0
H1464 H 0.29377 0.03471 0.73045 0.0
H1465 H 0.35662 0.05706 0.72436 0.0
H1466 H 0.36335 0.08096 0.75591 0.0
H1467 H 0.35152 0.0965 0.78419 0.0
H1468 H 0.28872 0.07425 0.78978 0.0
H1469 H 0.28187 0.04913 0.75972 0.0
C1470 C 0.30896 0.04476 0.73601 0.0
C1471 C 0.32465 0.04417 0.72483 0.0
C1472 C 0.31275 0.05847 0.75415 0.0
C1473 C 0.34422 0.05719 0.73254 0.0
C1474 C 0.34811 0.0709 0.75059 0.0
C1475 C 0.33634 0.08613 0.77882 0.0
C1476 C 0.32067 0.08728 0.78918 0.0
C1477 C 0.33251 0.07183 0.76133 0.0
C1478 C 0.30105 0.07355 0.78229 0.0
C1479 C 0.29712 0.05927 0.76496 0.0
H1480 H 0.93306 0.30226 0.74327 0.0
H1481 H 0.97259 0.28037 0.72784 0.0
H1482 H 0.95551 0.254 0.75655 0.0
H1483 H 0.92871 0.23672 0.78541 0.0
H1484 H 0.88861 0.25834 0.79872 0.0
H1485 H 0.90686 0.28546 0.77169 0.0
C1486 C 0.9381 0.29183 0.74615 0.0
C1487 C 0.95412 0.29334 0.73328 0.0
C1488 C 0.92813 0.27666 0.76241 0.0
C1489 C 0.9603 0.27959 0.73742 0.0
C1490 C 0.95052 0.26449 0.75383 0.0
C1491 C 0.92391 0.24731 0.78232 0.0
C1492 C 0.90733 0.24548 0.79431 0.0
C1493 C 0.93428 0.26277 0.76629 0.0
C1494 C 0.90151 0.25953 0.79021 0.0
C1495 C 0.91184 0.27499 0.77456 0.0
H1496 H 0.73576 0.68572 0.71629 0.0
H1497 H 0.68679 0.65316 0.76313 0.0
H1498 H 0.70984 0.65787 0.79409 0.0
H1499 H 0.74348 0.66793 0.80649 0.0
H1500 H 0.79226 0.69752 0.75844 0.0
H1501 H 0.76993 0.69767 0.7296 0.0
C1502 C 0.73027 0.68021 0.73348 0.0
C1503 C 0.7097 0.66932 0.7376 0.0
C1504 C 0.74358 0.6822 0.75091 0.0
C1505 C 0.70262 0.66175 0.75972 0.0
C1506 C 0.71577 0.6643 0.77734 0.0
C1507 C 0.74927 0.67441 0.78972 0.0
C1508 C 0.76956 0.68253 0.78471 0.0
C1509 C 0.73623 0.67391 0.77291 0.0
C1510 C 0.77679 0.6913 0.76299 0.0
C1511 C 0.76398 0.69127 0.74635 0.0
H1512 H 0.6975 0.6249 0.6221 0.0
H1513 H 0.72395 0.68922 0.62798 0.0
H1514 H 0.74827 0.69405 0.59841 0.0
H1515 H 0.76334 0.68019 0.57261 0.0
H1516 H 0.73619 0.61586 0.56558 0.0
H1517 H 0.71107 0.61097 0.59408 0.0
C1518 C 0.7085 0.63998 0.61685 0.0
C1519 C 0.70892 0.65665 0.62746 0.0
C1520 C 0.72249 0.6427 0.59976 0.0
C1521 C 0.72322 0.67608 0.6202 0.0
C1522 C 0.73721 0.67888 0.6033 0.0
C1523 C 0.75173 0.66507 0.57693 0.0
C1524 C 0.75187 0.64845 0.56704 0.0
C1525 C 0.73715 0.66232 0.59317 0.0
C1526 C 0.73679 0.62898 0.57322 0.0
C1527 C 0.7223 0.62614 0.58944 0.0
H1528 H 0.34779 0.06889 0.63834 0.0
H1529 H 0.31953 0.02183 0.58702 0.0
H1530 H 0.32636 0.04673 0.5573 0.0
H1531 H 0.33684 0.08158 0.54708 0.0
H1532 H 0.36139 0.12795 0.59964 0.0
H1533 H 0.35969 0.10388 0.62774 0.0
C1534 C 0.34368 0.06424 0.62049 0.0
C1535 C 0.33354 0.04371 0.61463 0.0
C1536 C 0.34672 0.07854 0.60386 0.0
C1537 C 0.32763 0.03764 0.5917 0.0
C1538 C 0.3314 0.05185 0.57481 0.0
C1539 C 0.34213 0.08639 0.5646 0.0
C1540 C 0.3493 0.10642 0.57138 0.0
C1541 C 0.3404 0.07229 0.58083 0.0
C1542 C 0.35583 0.11255 0.59415 0.0
C1543 C 0.35484 0.09881 0.61018 0.0
H1544 H 0.92932 0.31076 0.62333 0.0
H1545 H 0.97094 0.2901 0.61958 0.0
H1546 H 0.95184 0.26695 0.58826 0.0
H1547 H 0.92219 0.251 0.56362 0.0
H1548 H 0.88016 0.271 0.56819 0.0
H1549 H 0.90078 0.29621 0.59719 0.0
C1550 C 0.93436 0.30134 0.61557 0.0
C1551 C 0.95146 0.30208 0.62405 0.0
C1552 C 0.92322 0.2879 0.59768 0.0
C1553 C 0.95777 0.2898 0.61359 0.0
C1554 C 0.94684 0.27651 0.59566 0.0
C1555 C 0.91757 0.2609 0.57095 0.0
C1556 C 0.89961 0.25904 0.56385 0.0
C1557 C 0.92934 0.27516 0.58788 0.0
C1558 C 0.894 0.27222 0.57319 0.0
C1559 C 0.90571 0.28655 0.58991 0.0
H1560 H 0.31991 0.28238 0.62269 0.0
H1561 H 0.38264 0.32379 0.61219 0.0
H1562 H 0.38276 0.30328 0.58005 0.0
H1563 H 0.3659 0.27222 0.55712 0.0
H1564 H 0.30363 0.22988 0.56839 0.0
H1565 H 0.3024 0.25234 0.59759 0.0
C1566 C 0.33356 0.28706 0.61319 0.0
C1567 C 0.35129 0.30448 0.62011 0.0
C1568 C 0.33363 0.27501 0.59486 0.0
C1569 C 0.36881 0.31033 0.6075 0.0
C1570 C 0.36892 0.29862 0.58907 0.0
C1571 C 0.35204 0.26795 0.56591 0.0
C1572 C 0.33496 0.24933 0.56081 0.0
C1573 C 0.35155 0.28069 0.583 0.0
C1574 C 0.31699 0.24418 0.57194 0.0
C1575 C 0.31631 0.25695 0.58877 0.0
H1576 H 0.73876 0.03087 0.61129 0.0
H1577 H 0.7011 0.05381 0.63218 0.0
H1578 H 0.71795 0.0812 0.60494 0.0
H1579 H 0.74482 0.09996 0.57699 0.0
H1580 H 0.78234 0.07694 0.55606 0.0
H1581 H 0.76417 0.04839 0.58162 0.0
C1582 C 0.7341 0.04174 0.60981 0.0
C1583 C 0.71875 0.04028 0.62398 0.0
C1584 C 0.74396 0.0576 0.59421 0.0
C1585 C 0.71291 0.05453 0.62163 0.0
C1586 C 0.72257 0.07027 0.60605 0.0
C1587 C 0.74882 0.08854 0.57775 0.0
C1588 C 0.76506 0.09072 0.5648 0.0
C1589 C 0.73831 0.07213 0.59251 0.0
C1590 C 0.77015 0.07584 0.56617 0.0
C1591 C 0.7597 0.05945 0.5807 0.0
H1592 H 0.97787 0.69285 0.59853 0.0
H1593 H 0.93707 0.6469 0.64488 0.0
H1594 H 0.90925 0.63975 0.61976 0.0
H1595 H 0.8964 0.64884 0.58669 0.0
H1596 H 0.93767 0.69234 0.53807 0.0
H1597 H 0.96533 0.6984 0.56234 0.0
C1598 C 0.9629 0.68109 0.60292 0.0
C1599 C 0.95946 0.67053 0.62356 0.0
C1600 C 0.94702 0.67688 0.58826 0.0
C1601 C 0.94007 0.65517 0.62899 0.0
C1602 C 0.92415 0.65118 0.61473 0.0
C1603 C 0.91138 0.65931 0.58094 0.0
C1604 C 0.91466 0.67046 0.56069 0.0
C1605 C 0.92741 0.66225 0.59456 0.0
C1606 C 0.93441 0.68406 0.55395 0.0
C1607 C 0.95037 0.68741 0.56771 0.0
H1608 H 0.97685 0.7109 0.73753 0.0
H1609 H 0.94888 0.64665 0.72818 0.0
H1610 H 0.92392 0.64137 0.75704 0.0
H1611 H 0.90854 0.65491 0.78274 0.0
H1612 H 0.93718 0.71908 0.79342 0.0
H1613 H 0.96312 0.72437 0.76597 0.0
C1614 C 0.9654 0.69573 0.74192 0.0
C1615 C 0.96472 0.67924 0.73048 0.0
C1616 C 0.95102 0.69274 0.75858 0.0
C1617 C 0.94984 0.65968 0.73662 0.0
C1618 C 0.93546 0.65661 0.75309 0.0
C1619 C 0.92064 0.67006 0.77949 0.0
C1620 C 0.92066 0.68656 0.79002 0.0
C1621 C 0.93571 0.67303 0.7639 0.0
C1622 C 0.93643 0.70607 0.78522 0.0
C1623 C 0.95139 0.70913 0.76961 0.0
H1624 H 0.37336 0.30511 0.7384 0.0
H1625 H 0.31042 0.27926 0.72759 0.0
H1626 H 0.30336 0.25342 0.75598 0.0
H1627 H 0.31519 0.23775 0.78331 0.0
H1628 H 0.37829 0.26329 0.79236 0.0
H1629 H 0.38505 0.28982 0.76547 0.0
C1630 C 0.35805 0.29392 0.74224 0.0
C1631 C 0.34246 0.29419 0.73074 0.0
C1632 C 0.3541 0.27903 0.75837 0.0
C1633 C 0.32275 0.27947 0.73609 0.0
C1634 C 0.31869 0.26465 0.75233 0.0
C1635 C 0.33042 0.24905 0.77931 0.0
C1636 C 0.34619 0.24849 0.79002 0.0
C1637 C 0.33427 0.26418 0.76344 0.0
C1638 C 0.36583 0.26347 0.7848 0.0
C1639 C 0.36974 0.2786 0.76924 0.0
H1640 H 0.71258 0.05417 0.73231 0.0
H1641 H 0.73578 0.01482 0.74055 0.0
H1642 H 0.75744 0.03631 0.77139 0.0
H1643 H 0.77161 0.06738 0.79413 0.0
H1644 H 0.74951 0.1075 0.78568 0.0
H1645 H 0.72539 0.08444 0.75715 0.0
C1646 C 0.72219 0.05017 0.74105 0.0
C1647 C 0.7227 0.03303 0.73387 0.0
C1648 C 0.73489 0.06276 0.75869 0.0
C1649 C 0.73523 0.02806 0.74545 0.0
C1650 C 0.74765 0.04032 0.76314 0.0
C1651 C 0.76149 0.07106 0.78604 0.0
C1652 C 0.76247 0.08918 0.79176 0.0
C1653 C 0.74793 0.05792 0.76952 0.0
C1654 C 0.74899 0.09358 0.78157 0.0
C1655 C 0.73529 0.08046 0.76517 0.0
H1656 H 0.03349 0.32064 0.05691 0.0
H1657 H 0.06936 0.38249 0.03642 0.0
H1658 H 0.0975 0.38579 0.05832 0.0
H1659 H 0.11178 0.37089 0.08353 0.0
H1660 H 0.0755 0.30875 0.10284 0.0
H1661 H 0.04765 0.30575 0.08108 0.0
C1662 C 0.04745 0.33488 0.05722 0.0
C1663 C 0.0493 0.35132 0.04514 0.0
C1664 C 0.0635 0.33659 0.06962 0.0
C1665 C 0.06756 0.3696 0.04558 0.0
C1666 C 0.08363 0.37149 0.05813 0.0
C1667 C 0.09774 0.35675 0.083 0.0
C1668 C 0.09571 0.34004 0.09473 0.0
C1669 C 0.08175 0.35508 0.07027 0.0
C1670 C 0.07751 0.32174 0.09374 0.0
C1671 C 0.06155 0.32004 0.08139 0.0
H1672 H 0.64458 0.70038 0.03908 0.0
H1673 H 0.70264 0.71255 0.05874 0.0
H1674 H 0.70696 0.74018 0.08395 0.0
H1675 H 0.69414 0.76105 0.10012 0.0
H1676 H 0.63552 0.74761 0.08109 0.0
H1677 H 0.63143 0.72018 0.05596 0.0
C1678 C 0.65818 0.70904 0.04889 0.0
C1679 C 0.67331 0.70451 0.04698 0.0
C1680 C 0.66043 0.72465 0.06347 0.0
C1681 C 0.69078 0.71578 0.05993 0.0
C1682 C 0.69326 0.73158 0.07431 0.0
C1683 C 0.68052 0.75209 0.09039 0.0
C1684 C 0.66515 0.75629 0.09238 0.0
C1685 C 0.6782 0.73619 0.07614 0.0
C1686 C 0.64748 0.74451 0.07994 0.0
C1687 C 0.64516 0.7289 0.06552 0.0
H1688 H 0.29068 0.94952 0.02082 0.0
H1689 H 0.31279 0.99214 0.07755 0.0
H1690 H 0.28608 0.96784 0.10238 0.0
H1691 H 0.25643 0.93435 0.10797 0.0
H1692 H 0.23293 0.89258 0.05059 0.0
H1693 H 0.26007 0.91663 0.02589 0.0
C1694 C 0.28961 0.95343 0.03863 0.0
C1695 C 0.30366 0.97249 0.04743 0.0
C1696 C 0.27395 0.93956 0.05261 0.0
C1697 C 0.30206 0.97754 0.07041 0.0
C1698 C 0.28683 0.96365 0.08461 0.0
C1699 C 0.25733 0.9306 0.09004 0.0
C1700 C 0.24288 0.91179 0.08104 0.0
C1701 C 0.27271 0.94462 0.0759 0.0
C1702 C 0.24393 0.90706 0.05777 0.0
C1703 C 0.25945 0.92075 0.04371 0.0
H1704 H 0.3204 0.03282 0.97067 0.0
H1705 H 0.38146 0.07319 0.99012 0.0
H1706 H 0.38217 0.09984 0.96716 0.0
H1707 H 0.36527 0.11139 0.94101 0.0
H1708 H 0.3038 0.07086 0.92333 0.0
H1709 H 0.30339 0.04447 0.94613 0.0
C1710 C 0.3339 0.04745 0.96992 0.0
C1711 C 0.3509 0.051 0.98195 0.0
C1712 C 0.33409 0.06263 0.95696 0.0
C1713 C 0.36818 0.07011 0.98102 0.0
C1714 C 0.36859 0.0853 0.96784 0.0
C1715 C 0.35185 0.09674 0.94217 0.0
C1716 C 0.33459 0.093 0.9305 0.0
C1717 C 0.35164 0.0817 0.95563 0.0
C1718 C 0.3172 0.07408 0.93229 0.0
C1719 C 0.31698 0.059 0.94526 0.0
H1720 H 0.9482 0.30232 0.9841 0.0
H1721 H 0.99573 0.29227 0.96567 0.0
H1722 H 0.97274 0.26314 0.9418 0.0
H1723 H 0.93878 0.24 0.92754 0.0
H1724 H 0.89262 0.2532 0.94297 0.0
H1725 H 0.91545 0.28147 0.96705 0.0
C1726 C 0.95358 0.29383 0.97482 0.0
C1727 C 0.97353 0.29927 0.97677 0.0
C1728 C 0.94047 0.27755 0.96081 0.0
C1729 C 0.98037 0.28829 0.96439 0.0
C1730 C 0.96723 0.27164 0.95083 0.0
C1731 C 0.93371 0.24918 0.93581 0.0
C1732 C 0.91371 0.24398 0.93371 0.0
C1733 C 0.94718 0.26605 0.94903 0.0
C1734 C 0.9076 0.25619 0.94484 0.0
C1735 C 0.92074 0.27259 0.95845 0.0
H1736 H 0.70708 0.64249 0.98892 0.0
H1737 H 0.69594 0.67962 0.9444 0.0
H1738 H 0.72018 0.68108 0.91662 0.0
H1739 H 0.74486 0.6723 0.90519 0.0
H1740 H 0.75802 0.63734 0.95097 0.0
H1741 H 0.73239 0.63415 0.97765 0.0
C1742 C 0.70992 0.65081 0.97309 0.0
C1743 C 0.69976 0.66094 0.96874 0.0
C1744 C 0.72418 0.65191 0.95732 0.0
C1745 C 0.70366 0.67178 0.94822 0.0
C1746 C 0.7175 0.6726 0.93229 0.0
C1747 C 0.74233 0.66416 0.9211 0.0
C1748 C 0.75345 0.65509 0.92591 0.0
C1749 C 0.72796 0.66286 0.93674 0.0
C1750 C 0.74953 0.64422 0.94648 0.0
C1751 C 0.73496 0.64252 0.96192 0.0
H1752 H 0.96014 0.68186 0.98447 0.0
H1753 H 0.93037 0.61723 0.98317 0.0
H1754 H 0.90452 0.61553 0.95797 0.0
H1755 H 0.89208 0.63285 0.93394 0.0
H1756 H 0.92159 0.69763 0.93771 0.0
H1757 H 0.94606 0.69878 0.96396 0.0
C1758 C 0.94788 0.66736 0.97886 0.0
C1759 C 0.9472 0.6497 0.98547 0.0
C1760 C 0.93323 0.66656 0.96449 0.0
C1761 C 0.93114 0.63102 0.97834 0.0
C1762 C 0.91647 0.63008 0.96381 0.0
C1763 C 0.90366 0.64721 0.94074 0.0
C1764 C 0.90514 0.66516 0.93325 0.0
C1765 C 0.91758 0.64781 0.95641 0.0
C1766 C 0.92037 0.68359 0.94237 0.0
C1767 C 0.93431 0.68429 0.95765 0.0
H1768 H 0.3606 0.30738 0.97995 0.0
H1769 H 0.30055 0.29183 0.96545 0.0
H1770 H 0.29602 0.2639 0.94054 0.0
H1771 H 0.30893 0.24319 0.9244 0.0
H1772 H 0.37024 0.26142 0.93657 0.0
H1773 H 0.37435 0.28891 0.96117 0.0
C1774 C 0.34653 0.29794 0.97131 0.0
C1775 C 0.33086 0.30149 0.97469 0.0
C1776 C 0.34421 0.2823 0.95677 0.0
C1777 C 0.31281 0.28932 0.9631 0.0
C1778 C 0.31022 0.27335 0.94893 0.0
C1779 C 0.32329 0.25333 0.9321 0.0
C1780 C 0.3391 0.24982 0.92893 0.0
C1781 C 0.3258 0.26961 0.94579 0.0
C1782 C 0.35756 0.2632 0.93924 0.0
C1783 C 0.36003 0.27911 0.95318 0.0
H1784 H 0.69686 0.02254 0.94949 0.0
H1785 H 0.70893 0.06266 0.00767 0.0
H1786 H 0.73829 0.08904 0.9882 0.0
H1787 H 0.76083 0.10055 0.95515 0.0
H1788 H 0.74763 0.06154 0.89552 0.0
H1789 H 0.71877 0.03481 0.91532 0.0
C1790 C 0.70592 0.03708 0.95786 0.0
C1791 C 0.70077 0.04062 0.98 0.0
C1792 C 0.7227 0.05233 0.94642 0.0
C1793 C 0.71255 0.05956 0.99059 0.0
C1794 C 0.72938 0.07465 0.9795 0.0
C1795 C 0.75153 0.08635 0.94624 0.0
C1796 C 0.75659 0.0832 0.92381 0.0
C1797 C 0.73461 0.0712 0.95744 0.0
C1798 C 0.74445 0.0644 0.91292 0.0
C1799 C 0.72778 0.04911 0.92416 0.0
H1800 H 0.68516 0.97486 0.04962 0.0
H1801 H 0.62452 0.93543 0.02787 0.0
H1802 H 0.62356 0.90754 0.04827 0.0
H1803 H 0.63978 0.89471 0.07338 0.0
H1804 H 0.70059 0.93442 0.09431 0.0
H1805 H 0.70169 0.96184 0.07302 0.0
C1806 C 0.67173 0.96015 0.04925 0.0
C1807 C 0.65489 0.95724 0.03736 0.0
C1808 C 0.67132 0.94425 0.0609 0.0
C1809 C 0.63769 0.93805 0.03688 0.0
C1810 C 0.63711 0.92212 0.04861 0.0
C1811 C 0.65324 0.90938 0.07325 0.0
C1812 C 0.67008 0.91255 0.08542 0.0
C1813 C 0.65379 0.9251 0.06086 0.0
C1814 C 0.68751 0.93156 0.0849 0.0
C1815 C 0.68812 0.94727 0.07283 0.0
H1816 H 0.04673 0.71417 0.02337 0.0
H1817 H 0.00789 0.68831 0.08201 0.0
H1818 H 0.03296 0.71472 0.10725 0.0
H1819 H 0.06645 0.7448 0.11255 0.0
H1820 H 0.10412 0.77139 0.05322 0.0
H1821 H 0.07899 0.74503 0.02817 0.0
C1822 C 0.04375 0.71437 0.04167 0.0
C1823 C 0.02563 0.69934 0.05092 0.0
C1824 C 0.05803 0.72967 0.05587 0.0
C1825 C 0.02177 0.69982 0.07457 0.0
C1826 C 0.03611 0.71484 0.08897 0.0
C1827 C 0.06902 0.74472 0.09412 0.0
C1828 C 0.08701 0.75979 0.08461 0.0
C1829 C 0.05435 0.72976 0.07982 0.0
C1830 C 0.09029 0.75986 0.06076 0.0
C1831 C 0.07598 0.74482 0.0465 0.0
H1832 H 0.29075 0.31868 0.06047 0.0
H1833 H 0.31379 0.37947 0.03797 0.0
H1834 H 0.28898 0.38177 0.06145 0.0
H1835 H 0.26053 0.36638 0.08815 0.0
H1836 H 0.23696 0.30531 0.10974 0.0
H1837 H 0.26213 0.30319 0.08675 0.0
C1838 C 0.29036 0.33245 0.06074 0.0
C1839 C 0.3041 0.34889 0.04755 0.0
C1840 C 0.27595 0.33359 0.07407 0.0
C1841 C 0.30334 0.36658 0.04794 0.0
C1842 C 0.28918 0.36792 0.06139 0.0
C1843 C 0.26104 0.35268 0.08792 0.0
C1844 C 0.247 0.33605 0.10064 0.0
C1845 C 0.27541 0.35152 0.07451 0.0
C1846 C 0.24756 0.31826 0.09995 0.0
C1847 C 0.26197 0.31707 0.08688 0.0
H1848 H 0.69958 0.66255 0.39858 0.0
H1849 H 0.74362 0.70283 0.35009 0.0
H1850 H 0.7697 0.70197 0.37209 0.0
H1851 H 0.7796 0.68877 0.40442 0.0
H1852 H 0.73539 0.65043 0.45423 0.0
H1853 H 0.7097 0.65122 0.43202 0.0
C1854 C 0.71489 0.67117 0.39281 0.0
C1855 C 0.71967 0.68261 0.37265 0.0
C1856 C 0.72973 0.67078 0.40564 0.0
C1857 C 0.73959 0.69391 0.36557 0.0
C1858 C 0.75447 0.69336 0.3781 0.0
C1859 C 0.76443 0.68081 0.41067 0.0
C1860 C 0.75954 0.66934 0.43094 0.0
C1861 C 0.74968 0.68175 0.39812 0.0
C1862 C 0.73964 0.65895 0.43844 0.0
C1863 C 0.7249 0.65954 0.42586 0.0
H1864 H 0.35608 0.04705 0.39377 0.0
H1865 H 0.29829 0.03036 0.36734 0.0
H1866 H 0.29741 0.05542 0.39228 0.0
H1867 H 0.31329 0.08269 0.42092 0.0
H1868 H 0.37198 0.10141 0.44557 0.0
H1869 H 0.37237 0.07502 0.42207 0.0
C1870 C 0.34331 0.0489 0.39356 0.0
C1871 C 0.32725 0.0368 0.37883 0.0
C1872 C 0.34308 0.06372 0.4076 0.0
C1873 C 0.31085 0.03946 0.37853 0.0
C1874 C 0.31031 0.05379 0.3928 0.0
C1875 C 0.32606 0.08081 0.42124 0.0
C1876 C 0.3425 0.09372 0.43497 0.0
C1877 C 0.32635 0.06604 0.40732 0.0
C1878 C 0.35917 0.09152 0.43506 0.0
C1879 C 0.35938 0.07648 0.42166 0.0
H1880 H 0.953 0.3154 0.38857 0.0
H1881 H 0.96484 0.27042 0.36167 0.0
H1882 H 0.93765 0.24478 0.38443 0.0
H1883 H 0.91046 0.23491 0.41201 0.0
H1884 H 0.89687 0.27889 0.43765 0.0
H1885 H 0.92452 0.30506 0.41521 0.0
C1886 C 0.94961 0.29999 0.38778 0.0
C1887 C 0.96105 0.29488 0.37359 0.0
C1888 C 0.93355 0.28511 0.40058 0.0
C1889 C 0.95635 0.27481 0.37248 0.0
C1890 C 0.94076 0.26008 0.38549 0.0
C1891 C 0.91359 0.25024 0.41267 0.0
C1892 C 0.9018 0.25505 0.42651 0.0
C1893 C 0.92928 0.26505 0.39958 0.0
C1894 C 0.90576 0.27487 0.42701 0.0
C1895 C 0.9216 0.28983 0.41428 0.0
H1896 H 0.98009 0.35899 0.29769 0.0
H1897 H 0.04005 0.39741 0.32216 0.0
H1898 H 0.04209 0.42589 0.302 0.0
H1899 H 0.02676 0.43981 0.27707 0.0
H1900 H 0.96646 0.4012 0.25372 0.0
H1901 H 0.96459 0.37292 0.27388 0.0
C1902 C 0.99363 0.37359 0.29862 0.0
C1903 C 0.00993 0.37604 0.31132 0.0
C1904 C 0.99461 0.38989 0.28721 0.0
C1905 C 0.02728 0.39511 0.31251 0.0
C1906 C 0.02846 0.4114 0.30095 0.0
C1907 C 0.01325 0.42518 0.27639 0.0
C1908 C 0.99676 0.42262 0.26394 0.0
C1909 C 0.01222 0.40895 0.28819 0.0
C1910 C 0.97928 0.40363 0.26339 0.0
C1911 C 0.97823 0.38742 0.27481 0.0
H1912 H 0.61917 0.63981 0.31085 0.0
H1913 H 0.66625 0.62959 0.29039 0.0
H1914 H 0.64319 0.60136 0.26576 0.0
H1915 H 0.6094 0.57909 0.25073 0.0
H1916 H 0.56278 0.59048 0.26934 0.0
H1917 H 0.58589 0.61889 0.2939 0.0
C1918 C 0.62435 0.6314 0.30098 0.0
C1919 C 0.6443 0.63661 0.30256 0.0
C1920 C 0.61111 0.61546 0.28653 0.0
C1921 C 0.65093 0.6258 0.28945 0.0
C1922 C 0.63776 0.60966 0.27541 0.0
C1923 C 0.60439 0.58788 0.26016 0.0
C1924 C 0.58449 0.58275 0.25846 0.0
C1925 C 0.6178 0.60429 0.27392 0.0
C1926 C 0.5781 0.59428 0.27043 0.0
C1927 C 0.59126 0.61043 0.28451 0.0
H1928 H 0.36808 0.9755 0.32999 0.0
H1929 H 0.35984 0.01285 0.2825 0.0
H1930 H 0.38457 0.01321 0.25656 0.0
H1931 H 0.40856 0.00318 0.24722 0.0
H1932 H 0.41912 0.96798 0.29557 0.0
H1933 H 0.39318 0.96609 0.32088 0.0
C1934 C 0.37172 0.98368 0.31396 0.0
C1935 C 0.36216 0.99416 0.30825 0.0
C1936 C 0.38628 0.98411 0.29914 0.0
C1937 C 0.36707 0.00477 0.28743 0.0
C1938 C 0.38118 0.00495 0.27251 0.0
C1939 C 0.40545 0.99531 0.26342 0.0
C1940 C 0.41594 0.98581 0.26938 0.0
C1941 C 0.39095 0.99477 0.27823 0.0
C1942 C 0.41118 0.97523 0.29025 0.0
C1943 C 0.39643 0.97428 0.3049 0.0
H1944 H 0.60956 0.96593 0.30543 0.0
H1945 H 0.6463 0.03056 0.30775 0.0
H1946 H 0.62057 0.03346 0.28817 0.0
H1947 H 0.58796 0.01786 0.2702 0.0
H1948 H 0.55236 0.9532 0.2637 0.0
H1949 H 0.57699 0.95014 0.28565 0.0
C1950 C 0.61183 0.98061 0.30169 0.0
C1951 C 0.62976 0.998 0.30803 0.0
C1952 C 0.59713 0.98219 0.2898 0.0
C1953 C 0.63265 0.01695 0.30292 0.0
C1954 C 0.61793 0.01863 0.29177 0.0
C1955 C 0.58562 0.00304 0.27314 0.0
C1956 C 0.5682 0.98583 0.26509 0.0
C1957 C 0.60019 0.00137 0.28498 0.0
C1958 C 0.56538 0.96679 0.2699 0.0
C1959 C 0.57959 0.965 0.28231 0.0
H1960 H 0.02344 0.63463 0.31316 0.0
H1961 H 0.96864 0.62861 0.28979 0.0
H1962 H 0.96297 0.60067 0.26415 0.0
H1963 H 0.97368 0.57767 0.24876 0.0
H1964 H 0.02955 0.58562 0.27103 0.0
H1965 H 0.0348 0.61317 0.29678 0.0
C1966 C 0.01026 0.62726 0.30245 0.0
C1967 C 0.99642 0.63358 0.30344 0.0
C1968 C 0.00732 0.61155 0.28759 0.0
C1969 C 0.97951 0.62399 0.28929 0.0
C1970 C 0.97626 0.608 0.27469 0.0
C1971 C 0.98695 0.5855 0.25931 0.0
C1972 C 1.00121 0.5797 0.25816 0.0
C1973 C 0.99004 0.6016 0.27377 0.0
C1974 C 0.01846 0.58996 0.27165 0.0
C1975 C 0.02144 0.60565 0.28637 0.0
H1976 H 0.37013 0.39596 0.31397 0.0
H1977 H 0.38374 0.34898 0.30658 0.0
H1978 H 0.41273 0.37083 0.28291 0.0
H1979 H 0.43455 0.40346 0.26524 0.0
H1980 H 0.41866 0.44912 0.26887 0.0
H1981 H 0.39056 0.42777 0.29353 0.0
C1982 C 0.37946 0.39054 0.30715 0.0
C1983 C 0.37494 0.37098 0.31213 0.0
C1984 C 0.3958 0.40301 0.29307 0.0
C1985 C 0.38695 0.364 0.30295 0.0
C1986 C 0.40354 0.3765 0.28947 0.0
C1987 C 0.42482 0.40873 0.27096 0.0
C1988 C 0.4291 0.42814 0.2652 0.0
C1989 C 0.40813 0.39605 0.28445 0.0
C1990 C 0.41629 0.43458 0.27339 0.0
C1991 C 0.39999 0.42227 0.28737 0.0
H1992 H 0.31416 0.27478 0.36201 0.0
H1993 H 0.34232 0.32109 0.41438 0.0
H1994 H 0.34415 0.29752 0.44005 0.0
H1995 H 0.33879 0.26422 0.44728 0.0
H1996 H 0.31351 0.21843 0.39384 0.0
H1997 H 0.30916 0.2411 0.36926 0.0
C1998 C 0.3205 0.27957 0.37914 0.0
C1999 C 0.32806 0.29961 0.38633 0.0
C2000 C 0.32206 0.26604 0.39364 0.0
C2001 C 0.33647 0.30575 0.40843 0.0
C2002 C 0.33753 0.29229 0.42313 0.0
C2003 C 0.33256 0.25919 0.43016 0.0
C2004 C 0.32658 0.23956 0.42255 0.0
C2005 C 0.33063 0.27249 0.41581 0.0
C2006 C 0.31803 0.23331 0.40044 0.0
C2007 C 0.31566 0.24634 0.38623 0.0
H2008 H 0.68937 0.03241 0.40595 0.0
H2009 H 0.72502 0.05518 0.34437 0.0
H2010 H 0.74987 0.0848 0.36563 0.0
H2011 H 0.76213 0.10381 0.40194 0.0
H2012 H 0.72852 0.08011 0.46452 0.0
H2013 H 0.7022 0.05132 0.44288 0.0
C2014 C 0.70254 0.04397 0.39727 0.0
C2015 C 0.70539 0.04174 0.37368 0.0
C2016 C 0.71713 0.06073 0.40981 0.0
C2017 C 0.72259 0.0566 0.36258 0.0
C2018 C 0.73679 0.07354 0.37469 0.0
C2019 C 0.74894 0.09237 0.4107 0.0
C2020 C 0.74701 0.09398 0.43458 0.0
C2021 C 0.7343 0.0757 0.39831 0.0
C2022 C 0.73012 0.07904 0.44603 0.0
C2023 C 0.71515 0.06264 0.43369 0.0
H2024 H 0.95363 0.64942 0.38197 0.0
H2025 H 0.98481 0.71369 0.37406 0.0
H2026 H 0.95958 0.71544 0.39753 0.0
H2027 H 0.9291 0.69863 0.42115 0.0
H2028 H 0.89692 0.63392 0.42616 0.0
H2029 H 0.92227 0.63251 0.40325 0.0
C2030 C 0.95492 0.66382 0.38541 0.0
C2031 C 0.97111 0.68141 0.3765 0.0
C2032 C 0.94024 0.66465 0.39851 0.0
C2033 C 0.97245 0.69994 0.38077 0.0
C2034 C 0.95806 0.70094 0.39421 0.0
C2035 C 0.92745 0.68418 0.41699 0.0
C2036 C 0.91119 0.66645 0.42582 0.0
C2037 C 0.9419 0.68338 0.40324 0.0
C2038 C 0.9095 0.6479 0.42028 0.0
C2039 C 0.92392 0.64703 0.40696 0.0
H2040 H 0.39677 0.01798 0.68658 0.0
H2041 H 0.35178 0.99473 0.73967 0.0
H2042 H 0.37463 0.99266 0.76615 0.0
H2043 H 0.40737 0.99721 0.77426 0.0
H2044 H 0.45166 0.01786 0.72057 0.0
H2045 H 0.42924 0.02114 0.69423 0.0
C2046 C 0.39206 0.01253 0.70397 0.0
C2047 C 0.37269 0.00661 0.71123 0.0
C2048 C 0.40514 0.01085 0.71895 0.0
C2049 C 0.36662 0.99932 0.73369 0.0
C2050 C 0.37968 0.99816 0.74885 0.0
C2051 C 0.41204 0.00243 0.75678 0.0
C2052 C 0.43107 0.00739 0.7493 0.0
C2053 C 0.39894 0.00383 0.74167 0.0
C2054 C 0.437 0.01392 0.72659 0.0
C2055 C 0.42422 0.01584 0.71159 0.0
H2056 H 0.97891 0.3675 0.71129 0.0
H2057 H 0.03599 0.37651 0.73006 0.0
H2058 H 0.04127 0.40341 0.75703 0.0
H2059 H 0.02993 0.42497 0.7745 0.0
H2060 H 0.97217 0.41473 0.75701 0.0
H2061 H 0.96675 0.38756 0.7304 0.0
C2062 C 0.99248 0.37534 0.72131 0.0
C2063 C 0.00712 0.3702 0.71859 0.0
C2064 C 0.99525 0.39051 0.73701 0.0
C2065 C 0.02452 0.38026 0.73188 0.0
C2066 C 0.02757 0.39564 0.74725 0.0
C2067 C 0.01618 0.41671 0.76485 0.0
C2068 C 0.0015 0.42179 0.76753 0.0
C2069 C 0.01309 0.40099 0.74983 0.0
C2070 C 0.98361 0.41093 0.75523 0.0
C2071 C 0.98055 0.39549 0.73998 0.0
H2072 H 0.63919 0.61536 0.71143 0.0
H2073 H 0.62548 0.6621 0.72133 0.0
H2074 H 0.59661 0.63969 0.74477 0.0
H2075 H 0.57465 0.60654 0.76119 0.0
H2076 H 0.59025 0.56079 0.75461 0.0
H2077 H 0.61868 0.58297 0.73078 0.0
C2078 C 0.62988 0.62061 0.71879 0.0
C2079 C 0.63433 0.64027 0.71455 0.0
C2080 C 0.61353 0.60778 0.73265 0.0
C2081 C 0.62234 0.64701 0.72439 0.0
C2082 C 0.6058 0.63419 0.73773 0.0
C2083 C 0.5844 0.60144 0.755 0.0
C2084 C 0.57995 0.58178 0.75961 0.0
C2085 C 0.60119 0.61451 0.74189 0.0
C2086 C 0.5928 0.57556 0.75092 0.0
C2087 C 0.60926 0.58832 0.73742 0.0
H2088 H 0.70386 0.73538 0.6445 0.0
H2089 H 0.64272 0.68884 0.63349 0.0
H2090 H 0.63734 0.71136 0.61019 0.0
H2091 H 0.6498 0.7441 0.59249 0.0
H2092 H 0.7111 0.79055 0.60143 0.0
H2093 H 0.71665 0.76836 0.62578 0.0
C2094 C 0.68939 0.73024 0.63701 0.0
C2095 C 0.67374 0.71046 0.64078 0.0
C2096 C 0.68641 0.74325 0.62319 0.0
C2097 C 0.65508 0.70395 0.63081 0.0
C2098 C 0.65194 0.71683 0.61749 0.0
C2099 C 0.66433 0.74938 0.59991 0.0
C2100 C 0.67997 0.76893 0.59533 0.0
C2101 C 0.66746 0.73648 0.61354 0.0
C2102 C 0.69884 0.7755 0.60469 0.0
C2103 C 0.702 0.76285 0.61865 0.0
H2104 H 0.31599 0.95446 0.62718 0.0
H2105 H 0.27514 0.97332 0.64836 0.0
H2106 H 0.24881 0.94611 0.62563 0.0
H2107 H 0.2371 0.91664 0.6003 0.0
H2108 H 0.2771 0.89657 0.57999 0.0
H2109 H 0.30397 0.92437 0.60201 0.0
C2110 C 0.30134 0.95264 0.62669 0.0
C2111 C 0.29755 0.96594 0.63935 0.0
C2112 C 0.28608 0.93666 0.61389 0.0
C2113 C 0.27846 0.96329 0.63878 0.0
C2114 C 0.26337 0.94773 0.62579 0.0
C2115 C 0.25175 0.91845 0.60058 0.0
C2116 C 0.25518 0.90469 0.58846 0.0
C2117 C 0.26698 0.93429 0.61337 0.0
C2118 C 0.2741 0.90695 0.5893 0.0
C2119 C 0.28947 0.92288 0.60179 0.0
H2120 H 0.02781 0.29862 0.64505 0.0
H2121 H 0.04935 0.36132 0.63326 0.0
H2122 H 0.07538 0.36352 0.60811 0.0
H2123 H 0.09194 0.34779 0.58908 0.0
H2124 H 0.07059 0.28508 0.59985 0.0
H2125 H 0.04446 0.28265 0.62547 0.0
C2126 C 0.03827 0.31276 0.63704 0.0
C2127 C 0.03666 0.32977 0.64107 0.0
C2128 C 0.05316 0.3139 0.62227 0.0
C2129 C 0.05021 0.34796 0.63042 0.0
C2130 C 0.06513 0.34927 0.61601 0.0
C2131 C 0.08165 0.33362 0.59717 0.0
C2132 C 0.08324 0.31668 0.59268 0.0
C2133 C 0.06672 0.33235 0.61178 0.0
C2134 C 0.06957 0.29832 0.60292 0.0
C2135 C 0.05471 0.29695 0.61766 0.0
H2136 H 0.30228 0.35123 0.63282 0.0
H2137 H 0.2663 0.28877 0.65095 0.0
H2138 H 0.23892 0.28558 0.62766 0.0
H2139 H 0.22534 0.30062 0.60184 0.0
H2140 H 0.26132 0.36333 0.58485 0.0
H2141 H 0.28857 0.36637 0.60807 0.0
C2142 C 0.28845 0.3369 0.6317 0.0
C2143 C 0.28635 0.32024 0.64351 0.0
C2144 C 0.27278 0.33524 0.61848 0.0
C2145 C 0.26828 0.30183 0.64203 0.0
C2146 C 0.25264 0.29999 0.62868 0.0
C2147 C 0.2392 0.3149 0.60319 0.0
C2148 C 0.24136 0.33172 0.59163 0.0
C2149 C 0.25476 0.31659 0.61676 0.0
C2150 C 0.25927 0.35022 0.59373 0.0
C2151 C 0.27487 0.35195 0.60693 0.0
H2152 H 0.6554 0.96875 0.61631 0.0
H2153 H 0.67266 0.94933 0.67645 0.0
H2154 H 0.67035 0.92114 0.65465 0.0
H2155 H 0.66528 0.90305 0.61831 0.0
H2156 H 0.65013 0.92303 0.557 0.0
H2157 H 0.6494 0.94967 0.57943 0.0
C2158 C 0.65837 0.95815 0.6246 0.0
C2159 C 0.66423 0.96108 0.64788 0.0
C2160 C 0.6575 0.94215 0.61176 0.0
C2161 C 0.66825 0.94741 0.65847 0.0
C2162 C 0.66694 0.9313 0.64605 0.0
C2163 C 0.66196 0.91332 0.60978 0.0
C2164 C 0.65801 0.9112 0.58599 0.0
C2165 C 0.66197 0.92875 0.62261 0.0
C2166 C 0.65317 0.92429 0.57534 0.0
C2167 C 0.65286 0.93959 0.58813 0.0
H2168 H 0.03747 0.72319 0.65252 0.0
H2169 H 0.04117 0.67327 0.62487 0.0
H2170 H 0.06912 0.69609 0.60046 0.0
H2171 H 0.09269 0.73035 0.58702 0.0
H2172 H 0.08801 0.77998 0.61347 0.0
H2173 H 0.06029 0.75721 0.63827 0.0
C2174 C 0.0444 0.71731 0.64114 0.0
C2175 C 0.03732 0.69659 0.64058 0.0
C2176 C 0.06031 0.73048 0.62696 0.0
C2177 C 0.04633 0.68917 0.62561 0.0
C2178 C 0.06235 0.70221 0.61168 0.0
C2179 C 0.08563 0.73613 0.59833 0.0
C2180 C 0.09239 0.75679 0.59855 0.0
C2181 C 0.06951 0.7229 0.61226 0.0
C2182 C 0.08297 0.76411 0.61298 0.0
C2183 C 0.06717 0.75111 0.62717 0.0
H2184 H 0.02396 0.63928 0.72035 0.0
H2185 H 0.96222 0.59912 0.70345 0.0
H2186 H 0.96199 0.57254 0.72584 0.0
H2187 H 0.97938 0.56085 0.75058 0.0
H2188 H 0.04137 0.60092 0.76629 0.0
H2189 H 0.04151 0.62738 0.74388 0.0
C2190 C 0.01044 0.62471 0.72157 0.0
C2191 C 0.99311 0.6212 0.71037 0.0
C2192 C 0.01049 0.60948 0.73422 0.0
C2193 C 0.97577 0.60219 0.71192 0.0
C2194 C 0.97562 0.587 0.72474 0.0
C2195 C 0.99287 0.57541 0.7491 0.0
C2196 C 0.01033 0.57897 0.76008 0.0
C2197 C 0.99288 0.59051 0.73603 0.0
C2198 C 0.0278 0.59779 0.75782 0.0
C2199 C 0.02787 0.61294 0.74511 0.0
H2200 H 0.38611 0.36666 0.70791 0.0
H2201 H 0.33885 0.37766 0.72439 0.0
H2202 H 0.36189 0.40729 0.74754 0.0
H2203 H 0.39586 0.43077 0.76134 0.0
H2204 H 0.44197 0.41714 0.74767 0.0
H2205 H 0.41899 0.38805 0.72466 0.0
C2206 C 0.38082 0.37549 0.71663 0.0
C2207 C 0.36091 0.37017 0.71431 0.0
C2208 C 0.39399 0.39216 0.73013 0.0
C2209 C 0.35416 0.38153 0.72598 0.0
C2210 C 0.36734 0.39848 0.7391 0.0
C2211 C 0.4009 0.42132 0.75371 0.0
C2212 C 0.4209 0.42659 0.756 0.0
C2213 C 0.38736 0.40404 0.74111 0.0
C2214 C 0.42696 0.41406 0.74566 0.0
C2215 C 0.41374 0.3972 0.73266 0.0
H2216 H 0.62415 0.98234 0.72681 0.0
H2217 H 0.64936 0.04334 0.70394 0.0
H2218 H 0.62395 0.04623 0.72542 0.0
H2219 H 0.59421 0.03119 0.75033 0.0
H2220 H 0.56846 0.96982 0.77191 0.0
H2221 H 0.5944 0.96726 0.75126 0.0
C2222 C 0.62413 0.99629 0.72658 0.0
C2223 C 0.63863 0.01261 0.71386 0.0
C2224 C 0.60934 0.99775 0.7387 0.0
C2225 C 0.63832 0.03054 0.71358 0.0
C2226 C 0.62381 0.03222 0.72588 0.0
C2227 C 0.5944 0.01733 0.75059 0.0
C2228 C 0.5795 0.00072 0.76259 0.0
C2229 C 0.60922 0.0159 0.73845 0.0
C2230 C 0.57972 0.98274 0.76261 0.0
C2231 C 0.59456 0.9813 0.75089 0.0
loop_
_geom_bond_atom_site_label_1
_geom_bond_atom_site_label_2
_geom_bond_distance
_geom_bond_site_symmetry_2
_ccdc_geom_bond_type
Co0 O1 2.216 . S
Co0 O2 2.091 . S
Co0 O4 2.004 1_554 S
Co0 O10 2.021 . S
Co0 O12 2.137 1_454 S
Co0 O13 2.244 1_455 S
O1 Co0 2.216 . S
O1 C8 1.247 . S
O2 Co0 2.091 . S
O2 C8 1.261 . S
C3 O12 1.247 . S
C3 O13 1.272 1_556 S
O4 Co0 2.004 1_556 S
O4 C9 1.259 . S
Co5 O6 2.061 1_554 S
Co5 O11 2.052 . S
Co5 O13 2.135 . S
O6 Co5 2.061 1_556 S
O6 C9 1.235 1_655 S
C7 O10 1.238 1_655 S
C7 O11 1.241 . S
C8 O1 1.247 . S
C8 O2 1.261 . S
C9 O4 1.259 . S
C9 O6 1.235 1_455 S
O10 Co0 2.021 . S
O10 C7 1.238 1_455 S
O11 Co5 2.052 . S
O11 C7 1.241 . S
O12 Co0 2.137 1_656 S
O12 C3 1.247 . S
O13 Co0 2.244 1_655 S
O13 C3 1.272 1_554 S
O13 Co5 2.135 . S
Co14 O15 2.216 1_554 S
Co14 O16 2.091 . S
Co14 O18 2.004 . S
Co14 O24 2.021 1_554 S
Co14 O26 2.137 . S
Co14 O27 2.244 . S
O15 Co14 2.216 1_556 S
O15 C22 1.247 . S
O16 Co14 2.091 . S
O16 C22 1.261 1_554 S
C17 O26 1.247 . S
C17 O27 1.272 . S
O18 Co14 2.004 . S
O18 C23 1.259 . S
Co19 O20 2.061 . S
Co19 O25 2.052 1_554 S
Co19 O27 2.135 . S
O20 Co19 2.061 . S
O20 C23 1.235 . S
C21 O24 1.238 . S
C21 O25 1.241 . S
C22 O15 1.247 . S
C22 O16 1.261 1_556 S
C23 O18 1.259 . S
C23 O20 1.235 . S
O24 Co14 2.021 1_556 S
O24 C21 1.238 . S
O25 Co19 2.052 1_556 S
O25 C21 1.241 . S
O26 Co14 2.137 . S
O26 C17 1.247 . S
O27 Co14 2.244 . S
O27 C17 1.272 . S
O27 Co19 2.135 . S
Co28 O29 2.216 1_554 S
Co28 O30 2.091 . S
Co28 O32 2.004 . S
Co28 O38 2.021 1_554 S
Co28 O40 2.139 1_545 S
Co28 O41 2.244 1_545 S
O29 Co28 2.216 1_556 S
O29 C36 1.247 . S
O30 Co28 2.091 . S
O30 C36 1.261 1_554 S
C31 O40 1.274 . S
C31 O41 1.272 . S
O32 Co28 2.004 . S
O32 C37 1.259 . S
Co33 O34 2.061 . S
Co33 O39 2.052 1_554 S
Co33 O41 2.135 . S
O34 Co33 2.061 . S
O34 C37 1.235 1_565 S
C35 O38 1.238 1_565 S
C35 O39 1.241 . S
C36 O29 1.247 . S
C36 O30 1.261 1_556 S
C37 O32 1.259 . S
C37 O34 1.235 1_545 S
O38 Co28 2.021 1_556 S
O38 C35 1.238 1_545 S
O39 Co33 2.052 1_556 S
O39 C35 1.241 . S
O40 Co28 2.139 1_565 S
O40 C31 1.274 . S
O41 Co28 2.244 1_565 S
O41 C31 1.272 . S
O41 Co33 2.135 . S
Co42 O43 2.216 1_554 S
Co42 O44 2.091 . S
Co42 O46 2.004 . S
Co42 O52 2.021 1_554 S
Co42 O54 2.137 1_655 S
Co42 O55 2.244 1_655 S
O43 Co42 2.216 1_556 S
O43 C50 1.247 . S
O44 Co42 2.091 . S
O44 C50 1.261 1_554 S
C45 O54 1.247 . S
C45 O55 1.272 . S
O46 Co42 2.004 . S
O46 C51 1.305 . S
Co47 O48 2.061 . S
Co47 O53 2.052 1_554 S
Co47 O55 2.135 . S
O48 Co47 2.061 . S
O48 C51 1.189 1_455 S
C49 O52 1.238 1_455 S
C49 O53 1.241 . S
C50 O43 1.247 . S
C50 O44 1.261 1_556 S
C51 O46 1.305 . S
C51 O48 1.189 1_655 S
O52 Co42 2.021 1_556 S
O52 C49 1.238 1_655 S
O53 Co47 2.052 1_556 S
O53 C49 1.241 . S
O54 Co42 2.137 1_455 S
O54 C45 1.247 . S
O55 Co42 2.244 1_455 S
O55 C45 1.272 . S
O55 Co47 2.135 . S
Co56 O57 2.216 . S
Co56 O58 2.091 . S
Co56 O60 2.004 1_554 S
Co56 O66 2.021 . S
Co56 O68 2.137 1_554 S
Co56 O69 2.244 1_554 S
O57 Co56 2.216 . S
O57 C64 1.247 . S
O58 Co56 2.091 . S
O58 C64 1.261 . S
C59 O68 1.247 . S
C59 O69 1.272 . S
O60 Co56 2.004 1_556 S
O60 C65 1.259 . S
Co61 O62 2.061 . S
Co61 O67 2.052 1_556 S
Co61 O69 2.135 . S
O62 Co61 2.061 . S
O62 C65 1.235 . S
C63 O66 1.238 . S
C63 O67 1.241 . S
C64 O57 1.247 . S
C64 O58 1.261 . S
C65 O60 1.259 . S
C65 O62 1.235 . S
O66 Co56 2.021 . S
O66 C63 1.238 . S
O67 Co61 2.052 1_554 S
O67 C63 1.241 . S
O68 Co56 2.137 1_556 S
O68 C59 1.247 . S
O69 Co56 2.244 1_556 S
O69 C59 1.272 . S
O69 Co61 2.135 . S
Co70 O71 2.216 . S
Co70 O72 2.091 . S
Co70 O74 2.004 1_554 S
Co70 O80 2.021 . S
Co70 O82 2.137 1_564 S
Co70 O83 2.244 1_565 S
O71 Co70 2.216 . S
O71 C78 1.247 . S
O72 Co70 2.091 . S
O72 C78 1.261 . S
C73 O82 1.247 . S
C73 O83 1.272 1_556 S
O74 Co70 2.004 1_556 S
O74 C79 1.305 . S
Co75 O76 2.061 1_554 S
Co75 O81 2.052 . S
Co75 O83 2.135 . S
O76 Co75 2.061 1_556 S
O76 C79 1.189 1_545 S
C77 O80 1.238 1_545 S
C77 O81 1.241 . S
C78 O71 1.247 . S
C78 O72 1.261 . S
C79 O74 1.305 . S
C79 O76 1.189 1_565 S
O80 Co70 2.021 . S
O80 C77 1.238 1_565 S
O81 Co75 2.052 . S
O81 C77 1.241 . S
O82 Co70 2.137 1_546 S
O82 C73 1.247 . S
O83 Co70 2.244 1_545 S
O83 C73 1.272 1_554 S
O83 Co75 2.135 . S
Co84 O85 2.216 . S
Co84 O86 2.091 . S
Co84 O88 2.004 . S
Co84 O94 2.021 . S
Co84 O96 2.137 . S
Co84 O97 2.244 . S
O85 Co84 2.216 . S
O85 C92 1.247 . S
O86 Co84 2.091 . S
O86 C92 1.261 . S
C87 O96 1.247 . S
C87 O97 1.272 . S
O88 Co84 2.004 . S
O88 C93 1.259 . S
Co89 O90 2.061 . S
Co89 O95 2.052 . S
Co89 O97 2.135 . S
O90 Co89 2.061 . S
O90 C93 1.235 . S
C91 O94 1.238 . S
C91 O95 1.241 . S
C92 O85 1.247 . S
C92 O86 1.261 . S
C93 O88 1.259 . S
C93 O90 1.235 . S
O94 Co84 2.021 . S
O94 C91 1.238 . S
O95 Co89 2.052 . S
O95 C91 1.241 . S
O96 Co84 2.137 . S
O96 C87 1.247 . S
O97 Co84 2.244 . S
O97 C87 1.272 . S
O97 Co89 2.135 . S
Co98 O99 2.216 1_565 S
Co98 O100 2.091 . S
Co98 O102 2.004 . S
Co98 O108 2.021 . S
Co98 O110 2.137 1_565 S
Co98 O111 2.244 1_565 S
O99 Co98 2.216 1_545 S
O99 C106 1.247 1_545 S
O100 Co98 2.091 . S
O100 C106 1.261 . S
C101 O110 1.247 . S
C101 O111 1.272 . S
O102 Co98 2.004 . S
O102 C107 1.259 . S
Co103 O104 2.061 . S
Co103 O109 2.052 . S
Co103 O111 2.135 1_565 S
O104 Co103 2.061 . S
O104 C107 1.235 . S
C105 O108 1.238 . S
C105 O109 1.241 . S
C106 O99 1.247 1_565 S
C106 O100 1.261 . S
C107 O102 1.259 . S
C107 O104 1.235 . S
O108 Co98 2.021 . S
O108 C105 1.238 . S
O109 Co103 2.052 . S
O109 C105 1.241 . S
O110 Co98 2.137 1_545 S
O110 C101 1.247 . S
O111 Co98 2.244 1_545 S
O111 C101 1.272 . S
O111 Co103 2.135 1_545 S
Co112 O113 2.216 . S
Co112 O114 2.091 . S
Co112 O116 2.004 . S
Co112 O122 2.021 . S
Co112 O124 2.137 1_455 S
Co112 O125 2.244 1_455 S
O113 Co112 2.216 . S
O113 C120 1.247 . S
O114 Co112 2.091 . S
O114 C120 1.261 . S
C115 O124 1.247 . S
C115 O125 1.272 . S
O116 Co112 2.004 . S
O116 C121 1.259 . S
Co117 O118 2.061 . S
Co117 O123 2.052 . S
Co117 O125 2.135 1_455 S
O118 Co117 2.061 . S
O118 C121 1.235 . S
C119 O122 1.238 . S
C119 O123 1.241 . S
C120 O113 1.247 . S
C120 O114 1.261 . S
C121 O116 1.259 . S
C121 O118 1.235 . S
O122 Co112 2.021 . S
O122 C119 1.238 . S
O123 Co117 2.052 . S
O123 C119 1.241 . S
O124 Co112 2.137 1_655 S
O124 C115 1.247 . S
O125 Co112 2.244 1_655 S
O125 C115 1.272 . S
O125 Co117 2.135 1_655 S
Co126 O127 2.216 1_565 S
Co126 O128 2.091 . S
Co126 O130 2.004 . S
Co126 O136 2.021 . S
Co126 O138 2.137 1_565 S
Co126 O139 2.244 1_565 S
O127 Co126 2.216 1_545 S
O127 C134 1.247 1_545 S
O128 Co126 2.091 . S
O128 C134 1.261 . S
C129 O138 1.247 . S
C129 O139 1.272 . S
O130 Co126 2.004 . S
O130 C135 1.259 . S
Co131 O132 2.061 . S
Co131 O137 2.052 . S
Co131 O139 2.135 1_565 S
O132 Co131 2.061 . S
O132 C135 1.235 . S
C133 O136 1.238 . S
C133 O137 1.241 . S
C134 O127 1.247 1_565 S
C134 O128 1.261 . S
C135 O130 1.259 . S
C135 O132 1.235 . S
O136 Co126 2.021 . S
O136 C133 1.238 . S
O137 Co131 2.052 . S
O137 C133 1.241 . S
O138 Co126 2.137 1_545 S
O138 C129 1.247 . S
O139 Co126 2.244 1_545 S
O139 C129 1.272 . S
O139 Co131 2.135 1_545 S
Co140 O141 2.216 1_455 S
Co140 O142 2.091 1_455 S
Co140 O144 2.004 . S
Co140 O150 2.021 . S
Co140 O152 2.137 1_455 S
Co140 O153 2.244 . S
O141 Co140 2.216 1_655 S
O141 C148 1.247 . S
O142 Co140 2.091 1_655 S
O142 C148 1.261 . S
C143 O152 1.247 1_455 S
C143 O153 1.272 . S
O144 Co140 2.004 . S
O144 C149 1.259 . S
Co145 O146 2.061 . S
Co145 O151 2.052 . S
Co145 O153 2.135 . S
O146 Co145 2.061 . S
O146 C149 1.235 . S
C147 O150 1.238 . S
C147 O151 1.241 . S
C148 O141 1.247 . S
C148 O142 1.261 . S
C149 O144 1.259 . S
C149 O146 1.235 . S
O150 Co140 2.021 . S
O150 C147 1.238 . S
O151 Co145 2.052 . S
O151 C147 1.241 . S
O152 Co140 2.137 1_655 S
O152 C143 1.247 1_655 S
O153 Co140 2.244 . S
O153 C143 1.272 . S
O153 Co145 2.135 . S
Co154 O155 2.216 . S
Co154 O156 2.091 . S
Co154 O158 2.004 . S
Co154 O164 2.021 . S
Co154 O166 2.137 . S
Co154 O167 2.244 . S
O155 Co154 2.216 . S
O155 C162 1.247 . S
O156 Co154 2.091 . S
O156 C162 1.261 . S
C157 O166 1.247 . S
C157 O167 1.272 . S
O158 Co154 2.004 . S
O158 C163 1.259 . S
Co159 O160 2.061 . S
Co159 O165 2.052 . S
Co159 O167 2.135 . S
O160 Co159 2.061 . S
O160 C163 1.235 . S
C161 O164 1.238 . S
C161 O165 1.241 . S
C162 O155 1.247 . S
C162 O156 1.261 . S
C163 O158 1.259 . S
C163 O160 1.235 . S
O164 Co154 2.021 . S
O164 C161 1.238 . S
O165 Co159 2.052 . S
O165 C161 1.241 . S
O166 Co154 2.137 . S
O166 C157 1.247 . S
O167 Co154 2.244 . S
O167 C157 1.272 . S
O167 Co159 2.135 . S
Co168 O169 2.216 . S
Co168 O170 2.091 . S
Co168 O172 2.004 . S
Co168 O178 2.021 . S
Co168 O180 2.137 1_545 S
Co168 O181 2.244 1_545 S
O169 Co168 2.216 . S
O169 C176 1.247 . S
O170 Co168 2.091 . S
O170 C176 1.261 . S
C171 O180 1.247 . S
C171 O181 1.272 . S
O172 Co168 2.004 . S
O172 C177 1.259 . S
Co173 O174 2.061 . S
Co173 O179 2.052 . S
Co173 O181 2.135 1_545 S
O174 Co173 2.061 . S
O174 C177 1.235 . S
C175 O178 1.238 . S
C175 O179 1.241 . S
C176 O169 1.247 . S
C176 O170 1.261 . S
C177 O172 1.259 . S
C177 O174 1.235 . S
O178 Co168 2.021 . S
O178 C175 1.238 . S
O179 Co173 2.052 . S
O179 C175 1.241 . S
O180 Co168 2.137 1_565 S
O180 C171 1.247 . S
O181 Co168 2.244 1_565 S
O181 C171 1.272 . S
O181 Co173 2.135 1_565 S
Co182 O183 2.216 1_655 S
Co182 O184 2.091 1_655 S
Co182 O186 2.004 . S
Co182 O192 2.021 . S
Co182 O194 2.137 1_655 S
Co182 O195 2.244 . S
O183 Co182 2.216 1_455 S
O183 C190 1.247 . S
O184 Co182 2.091 1_455 S
O184 C190 1.261 . S
C185 O194 1.247 1_655 S
C185 O195 1.272 . S
O186 Co182 2.004 . S
O186 C191 1.259 . S
Co187 O188 2.061 . S
Co187 O193 2.052 . S
Co187 O195 2.135 . S
O188 Co187 2.061 . S
O188 C191 1.235 . S
C189 O192 1.238 . S
C189 O193 1.241 . S
C190 O183 1.247 . S
C190 O184 1.261 . S
C191 O186 1.259 . S
C191 O188 1.235 . S
O192 Co182 2.021 . S
O192 C189 1.238 . S
O193 Co187 2.052 . S
O193 C189 1.241 . S
O194 Co182 2.137 1_455 S
O194 C185 1.247 1_455 S
O195 Co182 2.244 . S
O195 C185 1.272 . S
O195 Co187 2.135 . S
Co196 O197 2.216 . S
Co196 O198 2.091 . S
Co196 O200 2.004 . S
Co196 O206 2.021 . S
Co196 O208 2.137 . S
Co196 O209 2.244 . S
O197 Co196 2.216 . S
O197 C204 1.247 . S
O198 Co196 2.091 . S
O198 C204 1.261 . S
C199 O208 1.247 . S
C199 O209 1.272 . S
O200 Co196 2.004 . S
O200 C205 1.259 . S
Co201 O202 2.061 . S
Co201 O207 2.052 . S
Co201 O209 2.135 . S
O202 Co201 2.061 . S
O202 C205 1.235 . S
C203 O206 1.238 . S
C203 O207 1.241 . S
C204 O197 1.247 . S
C204 O198 1.261 . S
C205 O200 1.259 . S
C205 O202 1.235 . S
O206 Co196 2.021 . S
O206 C203 1.238 . S
O207 Co201 2.052 . S
O207 C203 1.241 . S
O208 Co196 2.137 . S
O208 C199 1.247 . S
O209 Co196 2.244 . S
O209 C199 1.272 . S
O209 Co201 2.135 . S
Co210 O211 2.216 . S
Co210 O212 2.091 . S
Co210 O214 2.004 . S
Co210 O220 2.021 . S
Co210 O222 2.137 . S
Co210 O223 2.244 . S
O211 Co210 2.216 . S
O211 C218 1.247 . S
O212 Co210 2.091 . S
O212 C218 1.261 . S
C213 O222 1.247 . S
C213 O223 1.272 . S
O214 Co210 2.004 . S
O214 C219 1.259 . S
Co215 O216 2.061 . S
Co215 O221 2.052 . S
Co215 O223 2.135 . S
O216 Co215 2.061 . S
O216 C219 1.235 . S
C217 O220 1.238 . S
C217 O221 1.241 . S
C218 O211 1.247 . S
C218 O212 1.261 . S
C219 O214 1.259 . S
C219 O216 1.235 . S
O220 Co210 2.021 . S
O220 C217 1.238 . S
O221 Co215 2.052 . S
O221 C217 1.241 . S
O222 Co210 2.137 . S
O222 C213 1.247 . S
O223 Co210 2.244 . S
O223 C213 1.272 . S
O223 Co215 2.135 . S
Co224 O225 2.216 . S
Co224 O226 2.091 . S
Co224 O228 2.004 . S
Co224 O234 2.021 . S
Co224 O236 2.137 1_545 S
Co224 O237 2.244 1_545 S
O225 Co224 2.216 . S
O225 C232 1.247 . S
O226 Co224 2.091 . S
O226 C232 1.261 . S
C227 O236 1.247 . S
C227 O237 1.272 . S
O228 Co224 2.004 . S
O228 C233 1.259 . S
Co229 O230 2.061 . S
Co229 O235 2.052 . S
Co229 O237 2.135 1_545 S
O230 Co229 2.061 . S
O230 C233 1.235 . S
C231 O234 1.238 . S
C231 O235 1.241 . S
C232 O225 1.247 . S
C232 O226 1.261 . S
C233 O228 1.259 . S
C233 O230 1.235 . S
O234 Co224 2.021 . S
O234 C231 1.238 . S
O235 Co229 2.052 . S
O235 C231 1.241 . S
O236 Co224 2.137 1_565 S
O236 C227 1.247 . S
O237 Co224 2.244 1_565 S
O237 C227 1.272 . S
O237 Co229 2.135 1_565 S
Co238 O239 2.216 . S
Co238 O240 2.091 . S
Co238 O242 2.004 . S
Co238 O248 2.021 . S
Co238 O250 2.137 1_655 S
Co238 O251 2.244 1_655 S
O239 Co238 2.216 . S
O239 C246 1.247 . S
O240 Co238 2.091 . S
O240 C246 1.261 . S
C241 O250 1.247 . S
C241 O251 1.272 . S
O242 Co238 2.004 . S
O242 C247 1.259 . S
Co243 O244 2.061 . S
Co243 O249 2.052 . S
Co243 O251 2.135 1_655 S
O244 Co243 2.061 . S
O244 C247 1.235 . S
C245 O248 1.238 . S
C245 O249 1.241 . S
C246 O239 1.247 . S
C246 O240 1.261 . S
C247 O242 1.259 . S
C247 O244 1.235 . S
O248 Co238 2.021 . S
O248 C245 1.238 . S
O249 Co243 2.052 . S
O249 C245 1.241 . S
O250 Co238 2.137 1_455 S
O250 C241 1.247 . S
O251 Co238 2.244 1_455 S
O251 C241 1.272 . S
O251 Co243 2.135 1_455 S
C252 C253 1.384 . S
C252 C254 1.384 . S
C252 H280 0.931 . S
C253 C252 1.384 . S
C253 C256 1.382 . S
C254 C252 1.384 . S
C254 C255 1.381 . S
C254 H281 0.930 . S
C255 C254 1.381 . S
C255 C257 1.381 . S
C255 C258 1.487 . S
C256 C253 1.382 . S
C256 C257 1.387 . S
C256 H282 0.930 . S
C257 C255 1.381 . S
C257 C256 1.387 . S
C257 H283 0.931 . S
C258 C255 1.487 . S
C258 C265 1.399 . S
C258 N296 1.343 . S
C259 C260 1.384 . S
C259 C261 1.384 . S
C259 H284 0.931 . S
C260 C259 1.384 . S
C260 C263 1.382 . S
C261 C259 1.384 . S
C261 C262 1.381 . S
C261 H285 0.930 . S
C262 C261 1.381 . S
C262 C264 1.381 . S
C262 C265 1.487 . S
C263 C260 1.382 . S
C263 C264 1.387 . S
C263 H286 0.930 . S
C264 C262 1.381 . S
C264 C263 1.387 . S
C264 H287 0.931 . S
C265 C258 1.399 . S
C265 C262 1.487 . S
C265 N297 1.343 . S
C266 C267 1.384 . S
C266 C268 1.384 . S
C266 H288 0.931 . S
C267 C266 1.384 . S
C267 C270 1.382 . S
C268 C266 1.384 . S
C268 C269 1.381 . S
C268 H289 0.930 . S
C269 C268 1.381 . S
C269 C271 1.381 . S
C269 C272 1.487 . S
C270 C267 1.382 . S
C270 C271 1.387 . S
C270 H290 0.930 . S
C271 C269 1.381 . S
C271 C270 1.387 . S
C271 H291 0.931 . S
C272 C269 1.487 . S
C272 C279 1.399 . S
C272 N297 1.343 . S
C273 C274 1.384 . S
C273 C275 1.384 . S
C273 H292 0.931 . S
C274 C273 1.384 . S
C274 C277 1.382 . S
C275 C273 1.384 . S
C275 C276 1.381 . S
C275 H293 0.930 . S
C276 C275 1.381 . S
C276 C278 1.381 . S
C276 C279 1.487 . S
C277 C274 1.382 . S
C277 C278 1.387 . S
C277 H294 0.930 . S
C278 C276 1.381 . S
C278 C277 1.387 . S
C278 H295 0.931 . S
C279 C272 1.399 . S
C279 C276 1.487 . S
C279 N296 1.343 . S
H280 C252 0.931 . S
H281 C254 0.930 . S
H282 C256 0.930 . S
H283 C257 0.931 . S
H284 C259 0.931 . S
H285 C261 0.930 . S
H286 C263 0.930 . S
H287 C264 0.931 . S
H288 C266 0.931 . S
H289 C268 0.930 . S
H290 C270 0.930 . S
H291 C271 0.931 . S
H292 C273 0.931 . S
H293 C275 0.930 . S
H294 C277 0.930 . S
H295 C278 0.931 . S
N296 C258 1.343 . S
N296 C279 1.343 . S
N297 C265 1.343 . S
N297 C272 1.343 . S
C298 C299 1.384 . S
C298 C300 1.384 . S
C298 H326 0.931 . S
C299 C298 1.384 . S
C299 C302 1.382 . S
C300 C298 1.384 . S
C300 C301 1.381 . S
C300 H327 0.930 . S
C301 C300 1.381 . S
C301 C303 1.381 . S
C301 C304 1.487 . S
C302 C299 1.382 . S
C302 C303 1.387 . S
C302 H328 0.930 . S
C303 C301 1.381 . S
C303 C302 1.387 . S
C303 H329 0.931 . S
C304 C301 1.487 . S
C304 C311 1.399 . S
C304 N342 1.343 . S
C305 C306 1.384 . S
C305 C307 1.384 . S
C305 H330 0.931 . S
C306 C305 1.384 . S
C306 C309 1.382 . S
C307 C305 1.384 . S
C307 C308 1.381 . S
C307 H331 0.930 . S
C308 C307 1.381 . S
C308 C310 1.381 . S
C308 C311 1.487 . S
C309 C306 1.382 . S
C309 C310 1.387 . S
C309 H332 0.930 . S
C310 C308 1.381 . S
C310 C309 1.387 . S
C310 H333 0.931 . S
C311 C304 1.399 . S
C311 C308 1.487 . S
C311 N343 1.343 . S
C312 C313 1.384 . S
C312 C314 1.384 . S
C312 H334 0.931 . S
C313 C312 1.384 . S
C313 C316 1.382 . S
C314 C312 1.384 . S
C314 C315 1.381 . S
C314 H335 0.930 . S
C315 C314 1.381 . S
C315 C317 1.381 . S
C315 C318 1.487 . S
C316 C313 1.382 . S
C316 C317 1.387 . S
C316 H336 0.930 . S
C317 C315 1.381 . S
C317 C316 1.387 . S
C317 H337 0.931 . S
C318 C315 1.487 . S
C318 C325 1.399 . S
C318 N343 1.343 . S
C319 C320 1.384 . S
C319 C321 1.384 . S
C319 H338 0.931 . S
C320 C319 1.384 . S
C320 C323 1.382 . S
C321 C319 1.384 . S
C321 C322 1.381 . S
C321 H339 0.930 . S
C322 C321 1.381 . S
C322 C324 1.381 . S
C322 C325 1.487 . S
C323 C320 1.382 . S
C323 C324 1.387 . S
C323 H340 0.930 . S
C324 C322 1.381 . S
C324 C323 1.387 . S
C324 H341 0.931 . S
C325 C318 1.399 . S
C325 C322 1.487 . S
C325 N342 1.343 . S
H326 C298 0.931 . S
H327 C300 0.930 . S
H328 C302 0.930 . S
H329 C303 0.931 . S
H330 C305 0.931 . S
H331 C307 0.930 . S
H332 C309 0.930 . S
H333 C310 0.931 . S
H334 C312 0.931 . S
H335 C314 0.930 . S
H336 C316 0.930 . S
H337 C317 0.931 . S
H338 C319 0.931 . S
H339 C321 0.930 . S
H340 C323 0.930 . S
H341 C324 0.931 . S
N342 C304 1.343 . S
N342 C325 1.343 . S
N343 C311 1.343 . S
N343 C318 1.343 . S
C344 C345 1.384 . S
C344 C346 1.384 . S
C344 H372 0.931 . S
C345 C344 1.384 . S
C345 C348 1.382 . S
C346 C344 1.384 . S
C346 C347 1.381 . S
C346 H373 0.930 . S
C347 C346 1.381 . S
C347 C349 1.381 . S
C347 C350 1.487 . S
C348 C345 1.382 . S
C348 C349 1.387 . S
C348 H374 0.930 . S
C349 C347 1.381 . S
C349 C348 1.387 . S
C349 H375 0.931 . S
C350 C347 1.487 . S
C350 C357 1.399 . S
C350 N388 1.343 . S
C351 C352 1.384 . S
C351 C353 1.384 . S
C351 H376 0.931 . S
C352 C351 1.384 . S
C352 C355 1.382 . S
C353 C351 1.384 . S
C353 C354 1.381 . S
C353 H377 0.930 . S
C354 C353 1.381 . S
C354 C356 1.381 . S
C354 C357 1.487 . S
C355 C352 1.382 . S
C355 C356 1.387 . S
C355 H378 0.930 . S
C356 C354 1.381 . S
C356 C355 1.387 . S
C356 H379 0.931 . S
C357 C350 1.399 . S
C357 C354 1.487 . S
C357 N389 1.343 . S
C358 C359 1.384 . S
C358 C360 1.384 . S
C358 H380 0.931 . S
C359 C358 1.384 . S
C359 C362 1.382 . S
C360 C358 1.384 . S
C360 C361 1.381 . S
C360 H381 0.930 . S
C361 C360 1.381 . S
C361 C363 1.381 . S
C361 C364 1.487 . S
C362 C359 1.382 . S
C362 C363 1.387 . S
C362 H382 0.930 . S
C363 C361 1.381 . S
C363 C362 1.387 . S
C363 H383 0.931 . S
C364 C361 1.487 . S
C364 C371 1.399 . S
C364 N389 1.343 . S
C365 C366 1.384 . S
C365 C367 1.384 . S
C365 H384 0.931 . S
C366 C365 1.384 . S
C366 C369 1.382 . S
C367 C365 1.384 . S
C367 C368 1.381 . S
C367 H385 0.930 . S
C368 C367 1.381 . S
C368 C370 1.381 . S
C368 C371 1.487 . S
C369 C366 1.382 . S
C369 C370 1.387 . S
C369 H386 0.930 . S
C370 C368 1.381 . S
C370 C369 1.387 . S
C370 H387 0.931 . S
C371 C364 1.399 . S
C371 C368 1.487 . S
C371 N388 1.343 . S
H372 C344 0.931 . S
H373 C346 0.930 . S
H374 C348 0.930 . S
H375 C349 0.931 . S
H376 C351 0.931 . S
H377 C353 0.930 . S
H378 C355 0.930 . S
H379 C356 0.931 . S
H380 C358 0.931 . S
H381 C360 0.930 . S
H382 C362 0.930 . S
H383 C363 0.931 . S
H384 C365 0.931 . S
H385 C367 0.930 . S
H386 C369 0.930 . S
H387 C370 0.931 . S
N388 C350 1.343 . S
N388 C371 1.343 . S
N389 C357 1.343 . S
N389 C364 1.343 . S
C390 C391 1.384 . S
C390 C392 1.384 . S
C390 H418 0.931 . S
C391 C390 1.384 . S
C391 C394 1.382 . S
C392 C390 1.384 . S
C392 C393 1.381 . S
C392 H419 0.930 . S
C393 C392 1.381 . S
C393 C395 1.381 . S
C393 C396 1.487 . S
C394 C391 1.382 . S
C394 C395 1.387 . S
C394 H420 0.930 . S
C395 C393 1.381 . S
C395 C394 1.387 . S
C395 H421 0.931 . S
C396 C393 1.487 . S
C396 C403 1.399 . S
C396 N434 1.343 . S
C397 C398 1.384 . S
C397 C399 1.384 . S
C397 H422 0.931 . S
C398 C397 1.384 . S
C398 C401 1.382 . S
C399 C397 1.384 . S
C399 C400 1.381 . S
C399 H423 0.930 . S
C400 C399 1.381 . S
C400 C402 1.381 . S
C400 C403 1.487 . S
C401 C398 1.382 . S
C401 C402 1.387 . S
C401 H424 0.930 . S
C402 C400 1.381 . S
C402 C401 1.387 . S
C402 H425 0.931 . S
C403 C396 1.399 . S
C403 C400 1.487 . S
C403 N435 1.343 . S
C404 C405 1.384 . S
C404 C406 1.384 . S
C404 H426 0.931 . S
C405 C404 1.384 . S
C405 C408 1.382 . S
C406 C404 1.384 . S
C406 C407 1.381 . S
C406 H427 0.930 . S
C407 C406 1.381 . S
C407 C409 1.381 . S
C407 C410 1.487 . S
C408 C405 1.382 . S
C408 C409 1.387 . S
C408 H428 0.930 . S
C409 C407 1.381 . S
C409 C408 1.387 . S
C409 H429 0.931 . S
C410 C407 1.487 . S
C410 C417 1.399 . S
C410 N435 1.343 . S
C411 C412 1.384 . S
C411 C413 1.384 . S
C411 H430 0.931 . S
C412 C411 1.384 . S
C412 C415 1.382 . S
C413 C411 1.384 . S
C413 C414 1.381 . S
C413 H431 0.930 . S
C414 C413 1.381 . S
C414 C416 1.381 . S
C414 C417 1.487 . S
C415 C412 1.382 . S
C415 C416 1.387 . S
C415 H432 0.930 . S
C416 C414 1.381 . S
C416 C415 1.387 . S
C416 H433 0.931 . S
C417 C410 1.399 . S
C417 C414 1.487 . S
C417 N434 1.343 . S
H418 C390 0.931 . S
H419 C392 0.930 . S
H420 C394 0.930 . S
H421 C395 0.931 . S
H422 C397 0.931 . S
H423 C399 0.930 . S
H424 C401 0.930 . S
H425 C402 0.931 . S
H426 C404 0.931 . S
H427 C406 0.930 . S
H428 C408 0.930 . S
H429 C409 0.931 . S
H430 C411 0.931 . S
H431 C413 0.930 . S
H432 C415 0.930 . S
H433 C416 0.931 . S
N434 C396 1.343 . S
N434 C417 1.343 . S
N435 C403 1.343 . S
N435 C410 1.343 . S
C436 C437 1.384 . S
C436 C438 1.384 . S
C436 H464 0.931 . S
C437 C436 1.384 . S
C437 C440 1.382 . S
C438 C436 1.384 . S
C438 C439 1.381 . S
C438 H465 0.930 . S
C439 C438 1.381 . S
C439 C441 1.381 . S
C439 C442 1.487 . S
C440 C437 1.382 . S
C440 C441 1.387 . S
C440 H466 0.930 . S
C441 C439 1.381 . S
C441 C440 1.387 . S
C441 H467 0.931 . S
C442 C439 1.487 . S
C442 C449 1.399 . S
C442 N480 1.343 . S
C443 C444 1.384 . S
C443 C445 1.384 . S
C443 H468 0.931 . S
C444 C443 1.384 . S
C444 C447 1.382 . S
C445 C443 1.384 . S
C445 C446 1.381 . S
C445 H469 0.930 . S
C446 C445 1.381 . S
C446 C448 1.381 . S
C446 C449 1.487 . S
C447 C444 1.382 . S
C447 C448 1.387 . S
C447 H470 0.930 . S
C448 C446 1.381 . S
C448 C447 1.387 . S
C448 H471 0.931 . S
C449 C442 1.399 . S
C449 C446 1.487 . S
C449 N481 1.343 . S
C450 C451 1.384 . S
C450 C452 1.384 . S
C450 H472 0.931 . S
C451 C450 1.384 . S
C451 C454 1.382 . S
C452 C450 1.384 . S
C452 C453 1.381 . S
C452 H473 0.930 . S
C453 C452 1.381 . S
C453 C455 1.381 . S
C453 C456 1.487 . S
C454 C451 1.382 . S
C454 C455 1.387 . S
C454 H474 0.930 . S
C455 C453 1.381 . S
C455 C454 1.387 . S
C455 H475 0.931 . S
C456 C453 1.487 . S
C456 C463 1.399 . S
C456 N481 1.343 . S
C457 C458 1.384 . S
C457 C459 1.384 . S
C457 H476 0.931 . S
C458 C457 1.384 . S
C458 C461 1.382 . S
C459 C457 1.384 . S
C459 C460 1.381 . S
C459 H477 0.930 . S
C460 C459 1.381 . S
C460 C462 1.381 . S
C460 C463 1.487 . S
C461 C458 1.382 . S
C461 C462 1.387 . S
C461 H478 0.930 . S
C462 C460 1.381 . S
C462 C461 1.387 . S
C462 H479 0.931 . S
C463 C456 1.399 . S
C463 C460 1.487 . S
C463 N480 1.343 . S
H464 C436 0.931 . S
H465 C438 0.930 . S
H466 C440 0.930 . S
H467 C441 0.931 . S
H468 C443 0.931 . S
H469 C445 0.930 . S
H470 C447 0.930 . S
H471 C448 0.931 . S
H472 C450 0.931 . S
H473 C452 0.930 . S
H474 C454 0.930 . S
H475 C455 0.931 . S
H476 C457 0.931 . S
H477 C459 0.930 . S
H478 C461 0.930 . S
H479 C462 0.931 . S
N480 C442 1.343 . S
N480 C463 1.343 . S
N481 C449 1.343 . S
N481 C456 1.343 . S
C482 C483 1.384 . S
C482 C484 1.384 . S
C482 H510 0.931 . S
C483 C482 1.384 . S
C483 C486 1.382 . S
C484 C482 1.384 . S
C484 C485 1.381 . S
C484 H511 0.930 . S
C485 C484 1.381 . S
C485 C487 1.381 . S
C485 C488 1.487 . S
C486 C483 1.382 . S
C486 C487 1.387 . S
C486 H512 0.930 . S
C487 C485 1.381 . S
C487 C486 1.387 . S
C487 H513 0.931 . S
C488 C485 1.487 . S
C488 C495 1.399 . S
C488 N526 1.343 . S
C489 C490 1.384 . S
C489 C491 1.384 . S
C489 H514 0.931 . S
C490 C489 1.384 . S
C490 C493 1.382 . S
C491 C489 1.384 . S
C491 C492 1.381 . S
C491 H515 0.930 . S
C492 C491 1.381 . S
C492 C494 1.381 . S
C492 C495 1.487 . S
C493 C490 1.382 . S
C493 C494 1.387 . S
C493 H516 0.930 . S
C494 C492 1.381 . S
C494 C493 1.387 . S
C494 H517 0.931 . S
C495 C488 1.399 . S
C495 C492 1.487 . S
C495 N527 1.343 . S
C496 C497 1.384 . S
C496 C498 1.384 . S
C496 H518 0.931 . S
C497 C496 1.384 . S
C497 C500 1.382 . S
C498 C496 1.384 . S
C498 C499 1.381 . S
C498 H519 0.930 . S
C499 C498 1.381 . S
C499 C501 1.381 . S
C499 C502 1.487 . S
C500 C497 1.382 . S
C500 C501 1.387 . S
C500 H520 0.930 . S
C501 C499 1.381 . S
C501 C500 1.387 . S
C501 H521 0.931 . S
C502 C499 1.487 . S
C502 C509 1.399 . S
C502 N527 1.343 . S
C503 C504 1.384 . S
C503 C505 1.384 . S
C503 H522 0.931 . S
C504 C503 1.384 . S
C504 C507 1.382 . S
C505 C503 1.384 . S
C505 C506 1.381 . S
C505 H523 0.930 . S
C506 C505 1.381 . S
C506 C508 1.381 . S
C506 C509 1.487 . S
C507 C504 1.382 . S
C507 C508 1.387 . S
C507 H524 0.930 . S
C508 C506 1.381 . S
C508 C507 1.387 . S
C508 H525 0.931 . S
C509 C502 1.399 . S
C509 C506 1.487 . S
C509 N526 1.343 . S
H510 C482 0.931 . S
H511 C484 0.930 . S
H512 C486 0.930 . S
H513 C487 0.931 . S
H514 C489 0.931 . S
H515 C491 0.930 . S
H516 C493 0.930 . S
H517 C494 0.931 . S
H518 C496 0.931 . S
H519 C498 0.930 . S
H520 C500 0.930 . S
H521 C501 0.931 . S
H522 C503 0.931 . S
H523 C505 0.930 . S
H524 C507 0.930 . S
H525 C508 0.931 . S
N526 C488 1.343 . S
N526 C509 1.343 . S
N527 C495 1.343 . S
N527 C502 1.343 . S
C528 C529 1.384 . S
C528 C530 1.384 . S
C528 H556 0.931 . S
C529 C528 1.384 . S
C529 C532 1.382 . S
C530 C528 1.384 . S
C530 C531 1.381 . S
C530 H557 0.930 . S
C531 C530 1.381 . S
C531 C533 1.381 . S
C531 C534 1.487 . S
C532 C529 1.382 . S
C532 C533 1.387 . S
C532 H558 0.930 . S
C533 C531 1.381 . S
C533 C532 1.387 . S
C533 H559 0.931 . S
C534 C531 1.487 . S
C534 C541 1.399 . S
C534 N572 1.343 . S
C535 C536 1.384 . S
C535 C537 1.384 . S
C535 H560 0.931 . S
C536 C535 1.384 . S
C536 C539 1.382 . S
C537 C535 1.384 . S
C537 C538 1.381 . S
C537 H561 0.930 . S
C538 C537 1.381 . S
C538 C540 1.381 . S
C538 C541 1.487 . S
C539 C536 1.382 . S
C539 C540 1.387 . S
C539 H562 0.930 . S
C540 C538 1.381 . S
C540 C539 1.387 . S
C540 H563 0.931 . S
C541 C534 1.399 . S
C541 C538 1.487 . S
C541 N573 1.343 . S
C542 C543 1.384 . S
C542 C544 1.384 . S
C542 H564 0.931 . S
C543 C542 1.384 . S
C543 C546 1.382 . S
C544 C542 1.384 . S
C544 C545 1.381 . S
C544 H565 0.930 . S
C545 C544 1.381 . S
C545 C547 1.381 . S
C545 C548 1.487 . S
C546 C543 1.382 . S
C546 C547 1.387 . S
C546 H566 0.930 . S
C547 C545 1.381 . S
C547 C546 1.387 . S
C547 H567 0.931 . S
C548 C545 1.487 . S
C548 C555 1.399 . S
C548 N573 1.343 . S
C549 C550 1.384 . S
C549 C551 1.384 . S
C549 H568 0.931 . S
C550 C549 1.384 . S
C550 C553 1.382 . S
C551 C549 1.384 . S
C551 C552 1.381 . S
C551 H569 0.930 . S
C552 C551 1.381 . S
C552 C554 1.381 . S
C552 C555 1.487 . S
C553 C550 1.382 . S
C553 C554 1.387 . S
C553 H570 0.930 . S
C554 C552 1.381 . S
C554 C553 1.387 . S
C554 H571 0.931 . S
C555 C548 1.399 . S
C555 C552 1.487 . S
C555 N572 1.343 . S
H556 C528 0.931 . S
H557 C530 0.930 . S
H558 C532 0.930 . S
H559 C533 0.931 . S
H560 C535 0.931 . S
H561 C537 0.930 . S
H562 C539 0.930 . S
H563 C540 0.931 . S
H564 C542 0.931 . S
H565 C544 0.930 . S
H566 C546 0.930 . S
H567 C547 0.931 . S
H568 C549 0.931 . S
H569 C551 0.930 . S
H570 C553 0.930 . S
H571 C554 0.931 . S
N572 C534 1.343 . S
N572 C555 1.343 . S
N573 C541 1.343 . S
N573 C548 1.343 . S
C574 C575 1.384 . S
C574 C576 1.384 . S
C574 H602 0.931 . S
C575 C574 1.384 . S
C575 C578 1.382 . S
C576 C574 1.384 . S
C576 C577 1.381 . S
C576 H603 0.930 . S
C577 C576 1.381 . S
C577 C579 1.381 . S
C577 C580 1.487 . S
C578 C575 1.382 . S
C578 C579 1.387 . S
C578 H604 0.930 . S
C579 C577 1.381 . S
C579 C578 1.387 . S
C579 H605 0.931 . S
C580 C577 1.487 . S
C580 C587 1.399 . S
C580 N618 1.343 . S
C581 C582 1.384 . S
C581 C583 1.384 . S
C581 H606 0.931 . S
C582 C581 1.384 . S
C582 C585 1.382 . S
C583 C581 1.384 . S
C583 C584 1.381 . S
C583 H607 0.930 . S
C584 C583 1.381 . S
C584 C586 1.381 . S
C584 C587 1.487 . S
C585 C582 1.382 . S
C585 C586 1.387 . S
C585 H608 0.930 . S
C586 C584 1.381 . S
C586 C585 1.387 . S
C586 H609 0.931 . S
C587 C580 1.399 . S
C587 C584 1.487 . S
C587 N619 1.343 . S
C588 C589 1.384 . S
C588 C590 1.384 . S
C588 H610 0.931 . S
C589 C588 1.384 . S
C589 C592 1.382 . S
C590 C588 1.384 . S
C590 C591 1.381 . S
C590 H611 0.930 . S
C591 C590 1.381 . S
C591 C593 1.381 . S
C591 C594 1.487 . S
C592 C589 1.382 . S
C592 C593 1.387 . S
C592 H612 0.930 . S
C593 C591 1.381 . S
C593 C592 1.387 . S
C593 H613 0.931 . S
C594 C591 1.487 . S
C594 C601 1.399 . S
C594 N619 1.343 . S
C595 C596 1.384 . S
C595 C597 1.384 . S
C595 H614 0.931 . S
C596 C595 1.384 . S
C596 C599 1.382 . S
C597 C595 1.384 . S
C597 C598 1.381 . S
C597 H615 0.930 . S
C598 C597 1.381 . S
C598 C600 1.381 . S
C598 C601 1.487 . S
C599 C596 1.382 . S
C599 C600 1.387 . S
C599 H616 0.930 . S
C600 C598 1.381 . S
C600 C599 1.387 . S
C600 H617 0.931 . S
C601 C594 1.399 . S
C601 C598 1.487 . S
C601 N618 1.343 . S
H602 C574 0.931 . S
H603 C576 0.930 . S
H604 C578 0.930 . S
H605 C579 0.931 . S
H606 C581 0.931 . S
H607 C583 0.930 . S
H608 C585 0.930 . S
H609 C586 0.931 . S
H610 C588 0.931 . S
H611 C590 0.930 . S
H612 C592 0.930 . S
H613 C593 0.931 . S
H614 C595 0.931 . S
H615 C597 0.930 . S
H616 C599 0.930 . S
H617 C600 0.931 . S
N618 C580 1.343 . S
N618 C601 1.343 . S
N619 C587 1.343 . S
N619 C594 1.343 . S
C620 C621 1.384 . S
C620 C622 1.384 . S
C620 H648 0.931 . S
C621 C620 1.384 . S
C621 C624 1.382 . S
C622 C620 1.384 . S
C622 C623 1.381 . S
C622 H649 0.930 . S
C623 C622 1.381 . S
C623 C625 1.381 . S
C623 C626 1.487 . S
C624 C621 1.382 . S
C624 C625 1.387 . S
C624 H650 0.930 . S
C625 C623 1.381 . S
C625 C624 1.387 . S
C625 H651 0.931 . S
C626 C623 1.487 . S
C626 C633 1.399 . S
C626 N664 1.343 . S
C627 C628 1.384 . S
C627 C629 1.384 . S
C627 H652 0.931 . S
C628 C627 1.384 . S
C628 C631 1.382 . S
C629 C627 1.384 . S
C629 C630 1.381 . S
C629 H653 0.930 . S
C630 C629 1.381 . S
C630 C632 1.381 . S
C630 C633 1.487 . S
C631 C628 1.382 . S
C631 C632 1.387 . S
C631 H654 0.930 . S
C632 C630 1.381 . S
C632 C631 1.387 . S
C632 H655 0.931 . S
C633 C626 1.399 . S
C633 C630 1.487 . S
C633 N665 1.343 . S
C634 C635 1.384 . S
C634 C636 1.384 . S
C634 H656 0.931 . S
C635 C634 1.384 . S
C635 C638 1.382 . S
C636 C634 1.384 . S
C636 C637 1.381 . S
C636 H657 0.930 . S
C637 C636 1.381 . S
C637 C639 1.381 . S
C637 C640 1.487 . S
C638 C635 1.382 . S
C638 C639 1.387 . S
C638 H658 0.930 . S
C639 C637 1.381 . S
C639 C638 1.387 . S
C639 H659 0.931 . S
C640 C637 1.487 . S
C640 C647 1.399 . S
C640 N665 1.343 . S
C641 C642 1.384 . S
C641 C643 1.384 . S
C641 H660 0.931 . S
C642 C641 1.384 . S
C642 C645 1.382 . S
C643 C641 1.384 . S
C643 C644 1.381 . S
C643 H661 0.930 . S
C644 C643 1.381 . S
C644 C646 1.381 . S
C644 C647 1.487 . S
C645 C642 1.382 . S
C645 C646 1.387 . S
C645 H662 0.930 . S
C646 C644 1.381 . S
C646 C645 1.387 . S
C646 H663 0.931 . S
C647 C640 1.399 . S
C647 C644 1.487 . S
C647 N664 1.343 . S
H648 C620 0.931 . S
H649 C622 0.930 . S
H650 C624 0.930 . S
H651 C625 0.931 . S
H652 C627 0.931 . S
H653 C629 0.930 . S
H654 C631 0.930 . S
H655 C632 0.931 . S
H656 C634 0.931 . S
H657 C636 0.930 . S
H658 C638 0.930 . S
H659 C639 0.931 . S
H660 C641 0.931 . S
H661 C643 0.930 . S
H662 C645 0.930 . S
H663 C646 0.931 . S
N664 C626 1.343 . S
N664 C647 1.343 . S
N665 C633 1.343 . S
N665 C640 1.343 . S
C666 C667 1.384 . S
C666 C668 1.384 . S
C666 H694 0.931 . S
C667 C666 1.384 . S
C667 C670 1.382 1_655 S
C668 C666 1.384 . S
C668 C669 1.406 . S
C668 H695 0.930 . S
C669 C668 1.406 . S
C669 C671 1.369 1_655 S
C669 C672 1.472 1_655 S
C670 C667 1.382 1_455 S
C670 C671 1.387 . S
C670 H696 0.930 . S
C671 C669 1.369 1_455 S
C671 C670 1.387 . S
C671 H697 0.931 . S
C672 C669 1.472 1_455 S
C672 C679 1.399 1_455 S
C672 N710 1.347 . S
C673 C674 1.384 . S
C673 C675 1.384 . S
C673 H698 0.931 . S
C674 C673 1.384 . S
C674 C677 1.382 1_455 S
C675 C673 1.384 . S
C675 C676 1.382 1_455 S
C675 H699 0.930 . S
C676 C675 1.382 1_655 S
C676 C678 1.378 . S
C676 C679 1.497 . S
C677 C674 1.382 1_655 S
C677 C678 1.387 . S
C677 H700 0.930 . S
C678 C676 1.378 . S
C678 C677 1.387 . S
C678 H701 0.931 . S
C679 C672 1.399 1_655 S
C679 C676 1.497 . S
C679 N711 1.362 . S
C680 C681 1.384 . S
C680 C682 1.384 . S
C680 H702 0.931 . S
C681 C680 1.384 . S
C681 C684 1.382 1_455 S
C682 C680 1.384 . S
C682 C683 1.421 . S
C682 H703 0.930 . S
C683 C682 1.421 . S
C683 C685 1.362 1_455 S
C683 C686 1.465 . S
C684 C681 1.382 1_655 S
C684 C685 1.387 . S
C684 H704 0.930 . S
C685 C683 1.362 1_655 S
C685 C684 1.387 . S
C685 H705 0.931 . S
C686 C683 1.465 . S
C686 C693 1.399 . S
C686 N711 1.319 1_455 S
C687 C688 1.384 . S
C687 C689 1.384 . S
C687 H706 0.931 . S
C688 C687 1.384 . S
C688 C691 1.382 1_655 S
C689 C687 1.384 . S
C689 C690 1.380 1_655 S
C689 H707 0.930 . S
C690 C689 1.380 1_455 S
C690 C692 1.386 . S
C690 C693 1.497 . S
C691 C688 1.382 1_455 S
C691 C692 1.387 . S
C691 H708 0.930 . S
C692 C690 1.386 . S
C692 C691 1.387 . S
C692 H709 0.931 . S
C693 C686 1.399 . S
C693 C690 1.497 . S
C693 N710 1.329 . S
H694 C666 0.931 . S
H695 C668 0.930 . S
H696 C670 0.930 . S
H697 C671 0.931 . S
H698 C673 0.931 . S
H699 C675 0.930 . S
H700 C677 0.930 . S
H701 C678 0.931 . S
H702 C680 0.931 . S
H703 C682 0.930 . S
H704 C684 0.930 . S
H705 C685 0.931 . S
H706 C687 0.931 . S
H707 C689 0.930 . S
H708 C691 0.930 . S
H709 C692 0.931 . S
N710 C672 1.347 . S
N710 C693 1.329 . S
N711 C679 1.362 . S
N711 C686 1.319 1_655 S
C712 C713 1.384 . S
C712 C714 1.384 . S
C712 H740 0.931 . S
C713 C712 1.384 . S
C713 C716 1.382 . S
C714 C712 1.384 . S
C714 C715 1.381 . S
C714 H741 0.930 . S
C715 C714 1.381 . S
C715 C717 1.381 . S
C715 C718 1.487 . S
C716 C713 1.382 . S
C716 C717 1.387 . S
C716 H742 0.930 . S
C717 C715 1.381 . S
C717 C716 1.387 . S
C717 H743 0.931 . S
C718 C715 1.487 . S
C718 C725 1.399 . S
C718 N756 1.343 . S
C719 C720 1.384 . S
C719 C721 1.384 . S
C719 H744 0.931 . S
C720 C719 1.384 . S
C720 C723 1.382 . S
C721 C719 1.384 . S
C721 C722 1.381 . S
C721 H745 0.930 . S
C722 C721 1.381 . S
C722 C724 1.381 . S
C722 C725 1.487 . S
C723 C720 1.382 . S
C723 C724 1.387 . S
C723 H746 0.930 . S
C724 C722 1.381 . S
C724 C723 1.387 . S
C724 H747 0.931 . S
C725 C718 1.399 . S
C725 C722 1.487 . S
C725 N757 1.343 . S
C726 C727 1.384 . S
C726 C728 1.384 . S
C726 H748 0.931 . S
C727 C726 1.384 . S
C727 C730 1.382 . S
C728 C726 1.384 . S
C728 C729 1.381 . S
C728 H749 0.930 . S
C729 C728 1.381 . S
C729 C731 1.381 . S
C729 C732 1.487 . S
C730 C727 1.382 . S
C730 C731 1.387 . S
C730 H750 0.930 . S
C731 C729 1.381 . S
C731 C730 1.387 . S
C731 H751 0.931 . S
C732 C729 1.487 . S
C732 C739 1.399 . S
C732 N757 1.343 . S
C733 C734 1.384 . S
C733 C735 1.384 . S
C733 H752 0.931 . S
C734 C733 1.384 . S
C734 C737 1.382 . S
C735 C733 1.384 . S
C735 C736 1.381 . S
C735 H753 0.930 . S
C736 C735 1.381 . S
C736 C738 1.381 . S
C736 C739 1.487 . S
C737 C734 1.382 . S
C737 C738 1.387 . S
C737 H754 0.930 . S
C738 C736 1.381 . S
C738 C737 1.387 . S
C738 H755 0.931 . S
C739 C732 1.399 . S
C739 C736 1.487 . S
C739 N756 1.343 . S
H740 C712 0.931 . S
H741 C714 0.930 . S
H742 C716 0.930 . S
H743 C717 0.931 . S
H744 C719 0.931 . S
H745 C721 0.930 . S
H746 C723 0.930 . S
H747 C724 0.931 . S
H748 C726 0.931 . S
H749 C728 0.930 . S
H750 C730 0.930 . S
H751 C731 0.931 . S
H752 C733 0.931 . S
H753 C735 0.930 . S
H754 C737 0.930 . S
H755 C738 0.931 . S
N756 C718 1.343 . S
N756 C739 1.343 . S
N757 C725 1.343 . S
N757 C732 1.343 . S
C758 C759 1.384 1_545 S
C758 C760 1.384 . S
C758 H786 0.931 . S
C759 C758 1.384 1_565 S
C759 C762 1.382 . S
C760 C758 1.384 . S
C760 C761 1.381 1_545 S
C760 H787 0.930 . S
C761 C760 1.381 1_565 S
C761 C763 1.381 . S
C761 C764 1.487 . S
C762 C759 1.382 . S
C762 C763 1.387 . S
C762 H788 0.930 . S
C763 C761 1.381 . S
C763 C762 1.387 . S
C763 H789 0.931 . S
C764 C761 1.487 . S
C764 C771 1.399 1_565 S
C764 N802 1.343 . S
C765 C766 1.384 1_565 S
C765 C767 1.384 . S
C765 H790 0.931 . S
C766 C765 1.384 1_545 S
C766 C769 1.382 . S
C767 C765 1.384 . S
C767 C768 1.381 1_565 S
C767 H791 0.930 . S
C768 C767 1.381 1_545 S
C768 C770 1.381 . S
C768 C771 1.487 . S
C769 C766 1.382 . S
C769 C770 1.387 . S
C769 H792 0.930 . S
C770 C768 1.381 . S
C770 C769 1.387 . S
C770 H793 0.931 . S
C771 C764 1.399 1_545 S
C771 C768 1.487 . S
C771 N803 1.343 . S
C772 C773 1.384 1_565 S
C772 C774 1.384 . S
C772 H794 0.931 . S
C773 C772 1.384 1_545 S
C773 C776 1.382 . S
C774 C772 1.384 . S
C774 C775 1.381 1_565 S
C774 H795 0.930 . S
C775 C774 1.381 1_545 S
C775 C777 1.381 . S
C775 C778 1.487 . S
C776 C773 1.382 . S
C776 C777 1.387 . S
C776 H796 0.930 . S
C777 C775 1.381 . S
C777 C776 1.387 . S
C777 H797 0.931 . S
C778 C775 1.487 . S
C778 C785 1.399 1_545 S
C778 N803 1.343 . S
C779 C780 1.384 1_545 S
C779 C781 1.384 . S
C779 H798 0.931 . S
C780 C779 1.384 1_565 S
C780 C783 1.382 . S
C781 C779 1.384 . S
C781 C782 1.381 1_545 S
C781 H799 0.930 . S
C782 C781 1.381 1_565 S
C782 C784 1.381 . S
C782 C785 1.487 . S
C783 C780 1.382 . S
C783 C784 1.387 . S
C783 H800 0.930 . S
C784 C782 1.381 . S
C784 C783 1.387 . S
C784 H801 0.931 . S
C785 C778 1.399 1_565 S
C785 C782 1.487 . S
C785 N802 1.343 . S
H786 C758 0.931 . S
H787 C760 0.930 . S
H788 C762 0.930 . S
H789 C763 0.931 . S
H790 C765 0.931 . S
H791 C767 0.930 . S
H792 C769 0.930 . S
H793 C770 0.931 . S
H794 C772 0.931 . S
H795 C774 0.930 . S
H796 C776 0.930 . S
H797 C777 0.931 . S
H798 C779 0.931 . S
H799 C781 0.930 . S
H800 C783 0.930 . S
H801 C784 0.931 . S
N802 C764 1.343 . S
N802 C785 1.343 . S
N803 C771 1.343 . S
N803 C778 1.343 . S
C804 C805 1.384 . S
C804 C806 1.384 . S
C804 H832 0.931 . S
C805 C804 1.384 . S
C805 C808 1.382 1_545 S
C806 C804 1.384 . S
C806 C807 1.380 . S
C806 H833 0.930 . S
C807 C806 1.380 . S
C807 C809 1.385 1_545 S
C807 C810 1.491 1_545 S
C808 C805 1.382 1_565 S
C808 C809 1.387 . S
C808 H834 0.930 . S
C809 C807 1.385 1_565 S
C809 C808 1.387 . S
C809 H835 0.931 . S
C810 C807 1.491 1_565 S
C810 C817 1.399 1_565 S
C810 N848 1.363 . S
C811 C812 1.384 . S
C811 C813 1.384 . S
C811 H836 0.931 . S
C812 C811 1.384 . S
C812 C815 1.382 1_565 S
C813 C811 1.384 . S
C813 C814 1.401 . S
C813 H837 0.930 . S
C814 C813 1.401 . S
C814 C816 1.372 1_565 S
C814 C817 1.473 1_565 S
C815 C812 1.382 1_545 S
C815 C816 1.387 . S
C815 H838 0.930 . S
C816 C814 1.372 1_545 S
C816 C815 1.387 . S
C816 H839 0.931 . S
C817 C810 1.399 1_545 S
C817 C814 1.473 1_545 S
C817 N849 1.348 . S
C818 C819 1.384 . S
C818 C820 1.384 . S
C818 H840 0.931 . S
C819 C818 1.384 . S
C819 C822 1.382 1_565 S
C820 C818 1.384 . S
C820 C821 1.380 1_565 S
C820 H841 0.930 . S
C821 C820 1.380 1_545 S
C821 C823 1.385 . S
C821 C824 1.497 . S
C822 C819 1.382 1_545 S
C822 C823 1.387 . S
C822 H842 0.930 . S
C823 C821 1.385 . S
C823 C822 1.387 . S
C823 H843 0.931 . S
C824 C821 1.497 . S
C824 C831 1.399 1_545 S
C824 N849 1.330 . S
C825 C826 1.384 . S
C825 C827 1.384 . S
C825 H844 0.931 . S
C826 C825 1.384 . S
C826 C829 1.382 1_545 S
C827 C825 1.384 . S
C827 C828 1.416 . S
C827 H845 0.930 . S
C828 C827 1.416 . S
C828 C830 1.365 1_545 S
C828 C831 1.473 1_545 S
C829 C826 1.382 1_565 S
C829 C830 1.387 . S
C829 H846 0.930 . S
C830 C828 1.365 1_565 S
C830 C829 1.387 . S
C830 H847 0.931 . S
C831 C824 1.399 1_565 S
C831 C828 1.473 1_565 S
C831 N848 1.313 . S
H832 C804 0.931 . S
H833 C806 0.930 . S
H834 C808 0.930 . S
H835 C809 0.931 . S
H836 C811 0.931 . S
H837 C813 0.930 . S
H838 C815 0.930 . S
H839 C816 0.931 . S
H840 C818 0.931 . S
H841 C820 0.930 . S
H842 C822 0.930 . S
H843 C823 0.931 . S
H844 C825 0.931 . S
H845 C827 0.930 . S
H846 C829 0.930 . S
H847 C830 0.931 . S
N848 C810 1.363 . S
N848 C831 1.313 . S
N849 C817 1.348 . S
N849 C824 1.330 . S
C850 C851 1.384 . S
C850 C852 1.384 . S
C850 H878 0.931 . S
C851 C850 1.384 . S
C851 C854 1.382 1_655 S
C852 C850 1.384 . S
C852 C853 1.429 . S
C852 H879 0.930 . S
C853 C852 1.429 . S
C853 C855 1.358 1_655 S
C853 C856 1.463 . S
C854 C851 1.382 1_455 S
C854 C855 1.387 . S
C854 H880 0.930 . S
C855 C853 1.358 1_455 S
C855 C854 1.387 . S
C855 H881 0.931 . S
C856 C853 1.463 . S
C856 C863 1.399 . S
C856 N894 1.321 1_655 S
C857 C858 1.384 . S
C857 C859 1.384 . S
C857 H882 0.931 . S
C858 C857 1.384 . S
C858 C861 1.382 1_455 S
C859 C857 1.384 . S
C859 C860 1.381 1_455 S
C859 H883 0.930 . S
C860 C859 1.381 1_655 S
C860 C862 1.382 . S
C860 C863 1.499 . S
C861 C858 1.382 1_655 S
C861 C862 1.387 . S
C861 H884 0.930 . S
C862 C860 1.382 . S
C862 C861 1.387 . S
C862 H885 0.931 . S
C863 C856 1.399 . S
C863 C860 1.499 . S
C863 N895 1.360 . S
C864 C865 1.384 . S
C864 C866 1.384 . S
C864 H886 0.931 . S
C865 C864 1.384 . S
C865 C868 1.382 1_455 S
C866 C864 1.384 . S
C866 C867 1.414 . S
C866 H887 0.930 . S
C867 C866 1.414 . S
C867 C869 1.365 1_455 S
C867 C870 1.470 1_455 S
C868 C865 1.382 1_655 S
C868 C869 1.387 . S
C868 H888 0.930 . S
C869 C867 1.365 1_655 S
C869 C868 1.387 . S
C869 H889 0.931 . S
C870 C867 1.470 1_655 S
C870 C877 1.399 1_655 S
C870 N895 1.314 . S
C871 C872 1.384 . S
C871 C873 1.384 . S
C871 H890 0.931 . S
C872 C871 1.384 . S
C872 C875 1.382 1_655 S
C873 C871 1.384 . S
C873 C874 1.381 . S
C873 H891 0.930 . S
C874 C873 1.381 . S
C874 C876 1.382 1_655 S
C874 C877 1.492 1_655 S
C875 C872 1.382 1_455 S
C875 C876 1.387 . S
C875 H892 0.930 . S
C876 C874 1.382 1_455 S
C876 C875 1.387 . S
C876 H893 0.931 . S
C877 C870 1.399 1_455 S
C877 C874 1.492 1_455 S
C877 N894 1.360 . S
H878 C850 0.931 . S
H879 C852 0.930 . S
H880 C854 0.930 . S
H881 C855 0.931 . S
H882 C857 0.931 . S
H883 C859 0.930 . S
H884 C861 0.930 . S
H885 C862 0.931 . S
H886 C864 0.931 . S
H887 C866 0.930 . S
H888 C868 0.930 . S
H889 C869 0.931 . S
H890 C871 0.931 . S
H891 C873 0.930 . S
H892 C875 0.930 . S
H893 C876 0.931 . S
N894 C856 1.321 1_455 S
N894 C877 1.360 . S
N895 C863 1.360 . S
N895 C870 1.314 . S
C896 C897 1.384 . S
C896 C898 1.384 . S
C896 H924 0.931 . S
C897 C896 1.384 . S
C897 C900 1.382 . S
C898 C896 1.384 . S
C898 C899 1.381 . S
C898 H925 0.930 . S
C899 C898 1.381 . S
C899 C901 1.381 . S
C899 C902 1.487 . S
C900 C897 1.382 . S
C900 C901 1.387 . S
C900 H926 0.930 . S
C901 C899 1.381 . S
C901 C900 1.387 . S
C901 H927 0.931 . S
C902 C899 1.487 . S
C902 C909 1.399 . S
C902 N940 1.343 . S
C903 C904 1.384 . S
C903 C905 1.384 . S
C903 H928 0.931 . S
C904 C903 1.384 . S
C904 C907 1.382 . S
C905 C903 1.384 . S
C905 C906 1.381 . S
C905 H929 0.930 . S
C906 C905 1.381 . S
C906 C908 1.381 . S
C906 C909 1.487 . S
C907 C904 1.382 . S
C907 C908 1.387 . S
C907 H930 0.930 . S
C908 C906 1.381 . S
C908 C907 1.387 . S
C908 H931 0.931 . S
C909 C902 1.399 . S
C909 C906 1.487 . S
C909 N941 1.343 . S
C910 C911 1.384 . S
C910 C912 1.384 . S
C910 H932 0.931 . S
C911 C910 1.384 . S
C911 C914 1.382 . S
C912 C910 1.384 . S
C912 C913 1.381 . S
C912 H933 0.930 . S
C913 C912 1.381 . S
C913 C915 1.381 . S
C913 C916 1.487 . S
C914 C911 1.382 . S
C914 C915 1.387 . S
C914 H934 0.930 . S
C915 C913 1.381 . S
C915 C914 1.387 . S
C915 H935 0.931 . S
C916 C913 1.487 . S
C916 C923 1.399 . S
C916 N941 1.343 . S
C917 C918 1.384 . S
C917 C919 1.384 . S
C917 H936 0.931 . S
C918 C917 1.384 . S
C918 C921 1.382 . S
C919 C917 1.384 . S
C919 C920 1.381 . S
C919 H937 0.930 . S
C920 C919 1.381 . S
C920 C922 1.381 . S
C920 C923 1.487 . S
C921 C918 1.382 . S
C921 C922 1.387 . S
C921 H938 0.930 . S
C922 C920 1.381 . S
C922 C921 1.387 . S
C922 H939 0.931 . S
C923 C916 1.399 . S
C923 C920 1.487 . S
C923 N940 1.343 . S
H924 C896 0.931 . S
H925 C898 0.930 . S
H926 C900 0.930 . S
H927 C901 0.931 . S
H928 C903 0.931 . S
H929 C905 0.930 . S
H930 C907 0.930 . S
H931 C908 0.931 . S
H932 C910 0.931 . S
H933 C912 0.930 . S
H934 C914 0.930 . S
H935 C915 0.931 . S
H936 C917 0.931 . S
H937 C919 0.930 . S
H938 C921 0.930 . S
H939 C922 0.931 . S
N940 C902 1.343 . S
N940 C923 1.343 . S
N941 C909 1.343 . S
N941 C916 1.343 . S
C942 C943 1.384 . S
C942 C944 1.384 . S
C942 H970 0.931 . S
C943 C942 1.384 . S
C943 C946 1.382 . S
C944 C942 1.384 . S
C944 C945 1.381 . S
C944 H971 0.930 . S
C945 C944 1.381 . S
C945 C947 1.381 . S
C945 C948 1.487 . S
C946 C943 1.382 . S
C946 C947 1.387 . S
C946 H972 0.930 . S
C947 C945 1.381 . S
C947 C946 1.387 . S
C947 H973 0.931 . S
C948 C945 1.487 . S
C948 C955 1.399 . S
C948 N986 1.343 . S
C949 C950 1.384 . S
C949 C951 1.384 . S
C949 H974 0.931 . S
C950 C949 1.384 . S
C950 C953 1.382 . S
C951 C949 1.384 . S
C951 C952 1.381 . S
C951 H975 0.930 . S
C952 C951 1.381 . S
C952 C954 1.381 . S
C952 C955 1.487 . S
C953 C950 1.382 . S
C953 C954 1.387 . S
C953 H976 0.930 . S
C954 C952 1.381 . S
C954 C953 1.387 . S
C954 H977 0.931 . S
C955 C948 1.399 . S
C955 C952 1.487 . S
C955 N987 1.343 . S
C956 C957 1.384 . S
C956 C958 1.384 . S
C956 H978 0.931 . S
C957 C956 1.384 . S
C957 C960 1.382 . S
C958 C956 1.384 . S
C958 C959 1.381 . S
C958 H979 0.930 . S
C959 C958 1.381 . S
C959 C961 1.381 . S
C959 C962 1.487 . S
C960 C957 1.382 . S
C960 C961 1.387 . S
C960 H980 0.930 . S
C961 C959 1.381 . S
C961 C960 1.387 . S
C961 H981 0.931 . S
C962 C959 1.487 . S
C962 C969 1.399 . S
C962 N987 1.343 . S
C963 C964 1.384 . S
C963 C965 1.384 . S
C963 H982 0.931 . S
C964 C963 1.384 . S
C964 C967 1.382 . S
C965 C963 1.384 . S
C965 C966 1.381 . S
C965 H983 0.930 . S
C966 C965 1.381 . S
C966 C968 1.381 . S
C966 C969 1.487 . S
C967 C964 1.382 . S
C967 C968 1.387 . S
C967 H984 0.930 . S
C968 C966 1.381 . S
C968 C967 1.387 . S
C968 H985 0.931 . S
C969 C962 1.399 . S
C969 C966 1.487 . S
C969 N986 1.343 . S
H970 C942 0.931 . S
H971 C944 0.930 . S
H972 C946 0.930 . S
H973 C947 0.931 . S
H974 C949 0.931 . S
H975 C951 0.930 . S
H976 C953 0.930 . S
H977 C954 0.931 . S
H978 C956 0.931 . S
H979 C958 0.930 . S
H980 C960 0.930 . S
H981 C961 0.931 . S
H982 C963 0.931 . S
H983 C965 0.930 . S
H984 C967 0.930 . S
H985 C968 0.931 . S
N986 C948 1.343 . S
N986 C969 1.343 . S
N987 C955 1.343 . S
N987 C962 1.343 . S
C988 C989 1.384 . S
C988 C990 1.384 . S
C988 H1016 0.931 . S
C989 C988 1.384 . S
C989 C992 1.382 . S
C990 C988 1.384 . S
C990 C991 1.381 . S
C990 H1017 0.930 . S
C991 C990 1.381 . S
C991 C993 1.381 . S
C991 C994 1.487 . S
C992 C989 1.382 . S
C992 C993 1.387 . S
C992 H1018 0.930 . S
C993 C991 1.381 . S
C993 C992 1.387 . S
C993 H1019 0.931 . S
C994 C991 1.487 . S
C994 C1001 1.399 . S
C994 N1032 1.343 . S
C995 C996 1.384 . S
C995 C997 1.384 . S
C995 H1020 0.931 . S
C996 C995 1.384 . S
C996 C999 1.382 . S
C997 C995 1.384 . S
C997 C998 1.381 . S
C997 H1021 0.930 . S
C998 C997 1.381 . S
C998 C1000 1.381 . S
C998 C1001 1.487 . S
C999 C996 1.382 . S
C999 C1000 1.387 . S
C999 H1022 0.930 . S
C1000 C998 1.381 . S
C1000 C999 1.387 . S
C1000 H1023 0.931 . S
C1001 C994 1.399 . S
C1001 C998 1.487 . S
C1001 N1033 1.343 . S
C1002 C1003 1.384 . S
C1002 C1004 1.384 . S
C1002 H1024 0.931 . S
C1003 C1002 1.384 . S
C1003 C1006 1.382 . S
C1004 C1002 1.384 . S
C1004 C1005 1.381 . S
C1004 H1025 0.930 . S
C1005 C1004 1.381 . S
C1005 C1007 1.381 . S
C1005 C1008 1.487 . S
C1006 C1003 1.382 . S
C1006 C1007 1.387 . S
C1006 H1026 0.930 . S
C1007 C1005 1.381 . S
C1007 C1006 1.387 . S
C1007 H1027 0.931 . S
C1008 C1005 1.487 . S
C1008 C1015 1.399 . S
C1008 N1033 1.343 . S
C1009 C1010 1.384 . S
C1009 C1011 1.384 . S
C1009 H1028 0.931 . S
C1010 C1009 1.384 . S
C1010 C1013 1.382 . S
C1011 C1009 1.384 . S
C1011 C1012 1.381 . S
C1011 H1029 0.930 . S
C1012 C1011 1.381 . S
C1012 C1014 1.381 . S
C1012 C1015 1.487 . S
C1013 C1010 1.382 . S
C1013 C1014 1.387 . S
C1013 H1030 0.930 . S
C1014 C1012 1.381 . S
C1014 C1013 1.387 . S
C1014 H1031 0.931 . S
C1015 C1008 1.399 . S
C1015 C1012 1.487 . S
C1015 N1032 1.343 . S
H1016 C988 0.931 . S
H1017 C990 0.930 . S
H1018 C992 0.930 . S
H1019 C993 0.931 . S
H1020 C995 0.931 . S
H1021 C997 0.930 . S
H1022 C999 0.930 . S
H1023 C1000 0.931 . S
H1024 C1002 0.931 . S
H1025 C1004 0.930 . S
H1026 C1006 0.930 . S
H1027 C1007 0.931 . S
H1028 C1009 0.931 . S
H1029 C1011 0.930 . S
H1030 C1013 0.930 . S
H1031 C1014 0.931 . S
N1032 C994 1.343 . S
N1032 C1015 1.343 . S
N1033 C1001 1.343 . S
N1033 C1008 1.343 . S
C1034 C1035 1.384 . S
C1034 C1036 1.384 . S
C1034 H1062 0.931 . S
C1035 C1034 1.384 . S
C1035 C1038 1.382 . S
C1036 C1034 1.384 . S
C1036 C1037 1.381 . S
C1036 H1063 0.930 . S
C1037 C1036 1.381 . S
C1037 C1039 1.381 . S
C1037 C1040 1.487 . S
C1038 C1035 1.382 . S
C1038 C1039 1.387 . S
C1038 H1064 0.930 . S
C1039 C1037 1.381 . S
C1039 C1038 1.387 . S
C1039 H1065 0.931 . S
C1040 C1037 1.487 . S
C1040 C1047 1.399 . S
C1040 N1078 1.343 . S
C1041 C1042 1.384 . S
C1041 C1043 1.384 . S
C1041 H1066 0.931 . S
C1042 C1041 1.384 . S
C1042 C1045 1.382 . S
C1043 C1041 1.384 . S
C1043 C1044 1.381 . S
C1043 H1067 0.930 . S
C1044 C1043 1.381 . S
C1044 C1046 1.381 . S
C1044 C1047 1.487 . S
C1045 C1042 1.382 . S
C1045 C1046 1.387 . S
C1045 H1068 0.930 . S
C1046 C1044 1.381 . S
C1046 C1045 1.387 . S
C1046 H1069 0.931 . S
C1047 C1040 1.399 . S
C1047 C1044 1.487 . S
C1047 N1079 1.343 . S
C1048 C1049 1.384 . S
C1048 C1050 1.384 . S
C1048 H1070 0.931 . S
C1049 C1048 1.384 . S
C1049 C1052 1.382 . S
C1050 C1048 1.384 . S
C1050 C1051 1.381 . S
C1050 H1071 0.930 . S
C1051 C1050 1.381 . S
C1051 C1053 1.381 . S
C1051 C1054 1.487 . S
C1052 C1049 1.382 . S
C1052 C1053 1.387 . S
C1052 H1072 0.930 . S
C1053 C1051 1.381 . S
C1053 C1052 1.387 . S
C1053 H1073 0.931 . S
C1054 C1051 1.487 . S
C1054 C1061 1.399 . S
C1054 N1079 1.343 . S
C1055 C1056 1.384 . S
C1055 C1057 1.384 . S
C1055 H1074 0.931 . S
C1056 C1055 1.384 . S
C1056 C1059 1.382 . S
C1057 C1055 1.384 . S
C1057 C1058 1.381 . S
C1057 H1075 0.930 . S
C1058 C1057 1.381 . S
C1058 C1060 1.381 . S
C1058 C1061 1.487 . S
C1059 C1056 1.382 . S
C1059 C1060 1.387 . S
C1059 H1076 0.930 . S
C1060 C1058 1.381 . S
C1060 C1059 1.387 . S
C1060 H1077 0.931 . S
C1061 C1054 1.399 . S
C1061 C1058 1.487 . S
C1061 N1078 1.343 . S
H1062 C1034 0.931 . S
H1063 C1036 0.930 . S
H1064 C1038 0.930 . S
H1065 C1039 0.931 . S
H1066 C1041 0.931 . S
H1067 C1043 0.930 . S
H1068 C1045 0.930 . S
H1069 C1046 0.931 . S
H1070 C1048 0.931 . S
H1071 C1050 0.930 . S
H1072 C1052 0.930 . S
H1073 C1053 0.931 . S
H1074 C1055 0.931 . S
H1075 C1057 0.930 . S
H1076 C1059 0.930 . S
H1077 C1060 0.931 . S
N1078 C1040 1.343 . S
N1078 C1061 1.343 . S
N1079 C1047 1.343 . S
N1079 C1054 1.343 . S
H1080 C1086 0.930 . S
H1081 C1089 0.930 . S
H1082 C1090 0.930 . S
H1083 C1091 0.930 . S
H1084 C1094 0.930 . S
H1085 C1095 0.930 . S
C1086 H1080 0.930 . S
C1086 C1087 1.355 1_455 S
C1086 C1088 1.415 . S
C1087 C1086 1.355 1_655 S
C1087 C1089 1.419 . S
C1088 C1086 1.415 . S
C1088 C1093 1.425 1_455 S
C1088 C1095 1.409 . S
C1089 H1081 0.930 . S
C1089 C1087 1.419 . S
C1089 C1090 1.362 . S
C1090 H1082 0.930 . S
C1090 C1089 1.362 . S
C1090 C1093 1.409 . S
C1091 H1083 0.930 . S
C1091 C1092 1.379 . S
C1091 C1093 1.415 . S
C1092 C1091 1.379 . S
C1092 C1094 1.368 1_655 S
C1093 C1088 1.425 1_655 S
C1093 C1090 1.409 . S
C1093 C1091 1.415 . S
C1094 H1084 0.930 . S
C1094 C1092 1.368 1_455 S
C1094 C1095 1.362 . S
C1095 H1085 0.930 . S
C1095 C1088 1.409 . S
C1095 C1094 1.362 . S
H1096 C1102 0.930 . S
H1097 C1105 0.930 . S
H1098 C1106 0.930 . S
H1099 C1107 0.930 . S
H1100 C1110 0.930 . S
H1101 C1111 0.930 . S
C1102 H1096 0.930 . S
C1102 C1103 1.355 . S
C1102 C1104 1.415 . S
C1103 C1102 1.355 . S
C1103 C1105 1.419 . S
C1104 C1102 1.415 . S
C1104 C1109 1.425 . S
C1104 C1111 1.409 . S
C1105 H1097 0.930 . S
C1105 C1103 1.419 . S
C1105 C1106 1.362 . S
C1106 H1098 0.930 . S
C1106 C1105 1.362 . S
C1106 C1109 1.409 . S
C1107 H1099 0.930 . S
C1107 C1108 1.355 . S
C1107 C1109 1.415 . S
C1108 C1107 1.355 . S
C1108 C1110 1.419 . S
C1109 C1104 1.425 . S
C1109 C1106 1.409 . S
C1109 C1107 1.415 . S
C1110 H1100 0.930 . S
C1110 C1108 1.419 . S
C1110 C1111 1.362 . S
C1111 H1101 0.930 . S
C1111 C1104 1.409 . S
C1111 C1110 1.362 . S
H1112 C1118 0.930 . S
H1113 C1121 0.930 . S
H1114 C1122 0.930 . S
H1115 C1123 0.930 . S
H1116 C1126 0.930 . S
H1117 C1127 0.930 . S
C1118 H1112 0.930 . S
C1118 C1119 1.355 . S
C1118 C1120 1.415 . S
C1119 C1118 1.355 . S
C1119 C1121 1.419 . S
C1120 C1118 1.415 . S
C1120 C1125 1.425 . S
C1120 C1127 1.409 . S
C1121 H1113 0.930 . S
C1121 C1119 1.419 . S
C1121 C1122 1.362 . S
C1122 H1114 0.930 . S
C1122 C1121 1.362 . S
C1122 C1125 1.409 . S
C1123 H1115 0.930 . S
C1123 C1124 1.355 . S
C1123 C1125 1.415 . S
C1124 C1123 1.355 . S
C1124 C1126 1.419 . S
C1125 C1120 1.425 . S
C1125 C1122 1.409 . S
C1125 C1123 1.415 . S
C1126 H1116 0.930 . S
C1126 C1124 1.419 . S
C1126 C1127 1.362 . S
C1127 H1117 0.930 . S
C1127 C1120 1.409 . S
C1127 C1126 1.362 . S
H1128 C1134 0.930 . S
H1129 C1137 0.930 . S
H1130 C1138 0.930 . S
H1131 C1139 0.930 . S
H1132 C1142 0.930 . S
H1133 C1143 0.930 . S
C1134 H1128 0.930 . S
C1134 C1135 1.364 . S
C1134 C1136 1.415 . S
C1135 C1134 1.364 . S
C1135 C1137 1.416 1_565 S
C1136 C1134 1.415 . S
C1136 C1141 1.425 1_565 S
C1136 C1143 1.409 . S
C1137 H1129 0.930 . S
C1137 C1135 1.416 1_545 S
C1137 C1138 1.362 . S
C1138 H1130 0.930 . S
C1138 C1137 1.362 . S
C1138 C1141 1.409 . S
C1139 H1131 0.930 . S
C1139 C1140 1.355 1_545 S
C1139 C1141 1.415 . S
C1140 C1139 1.355 1_565 S
C1140 C1142 1.419 . S
C1141 C1136 1.425 1_545 S
C1141 C1138 1.409 . S
C1141 C1139 1.415 . S
C1142 H1132 0.930 . S
C1142 C1140 1.419 . S
C1142 C1143 1.362 . S
C1143 H1133 0.930 . S
C1143 C1136 1.409 . S
C1143 C1142 1.362 . S
H1144 C1150 0.930 . S
H1145 C1153 0.930 . S
H1146 C1154 0.930 . S
H1147 C1155 0.930 . S
H1148 C1158 0.930 . S
H1149 C1159 0.930 . S
C1150 H1144 0.930 . S
C1150 C1151 1.355 . S
C1150 C1152 1.415 . S
C1151 C1150 1.355 . S
C1151 C1153 1.419 1_455 S
C1152 C1150 1.415 . S
C1152 C1157 1.425 1_455 S
C1152 C1159 1.409 . S
C1153 H1145 0.930 . S
C1153 C1151 1.419 1_655 S
C1153 C1154 1.362 . S
C1154 H1146 0.930 . S
C1154 C1153 1.362 . S
C1154 C1157 1.409 . S
C1155 H1147 0.930 . S
C1155 C1156 1.355 1_655 S
C1155 C1157 1.415 . S
C1156 C1155 1.355 1_455 S
C1156 C1158 1.419 . S
C1157 C1152 1.425 1_655 S
C1157 C1154 1.409 . S
C1157 C1155 1.415 . S
C1158 H1148 0.930 . S
C1158 C1156 1.419 . S
C1158 C1159 1.362 . S
C1159 H1149 0.930 . S
C1159 C1152 1.409 . S
C1159 C1158 1.362 . S
H1160 C1166 0.930 . S
H1161 C1169 0.930 . S
H1162 C1170 0.930 . S
H1163 C1171 0.930 . S
H1164 C1174 0.930 . S
H1165 C1175 0.930 . S
C1166 H1160 0.930 . S
C1166 C1167 1.355 . S
C1166 C1168 1.415 . S
C1167 C1166 1.355 . S
C1167 C1169 1.419 . S
C1168 C1166 1.415 . S
C1168 C1173 1.425 . S
C1168 C1175 1.409 . S
C1169 H1161 0.930 . S
C1169 C1167 1.419 . S
C1169 C1170 1.362 . S
C1170 H1162 0.930 . S
C1170 C1169 1.362 . S
C1170 C1173 1.409 . S
C1171 H1163 0.930 . S
C1171 C1172 1.355 . S
C1171 C1173 1.415 . S
C1172 C1171 1.355 . S
C1172 C1174 1.419 . S
C1173 C1168 1.425 . S
C1173 C1170 1.409 . S
C1173 C1171 1.415 . S
C1174 H1164 0.930 . S
C1174 C1172 1.419 . S
C1174 C1175 1.362 . S
C1175 H1165 0.930 . S
C1175 C1168 1.409 . S
C1175 C1174 1.362 . S
H1176 C1182 0.930 . S
H1177 C1185 0.930 . S
H1178 C1186 0.930 . S
H1179 C1187 0.921 1_655 S
H1180 C1190 0.930 . S
H1181 C1191 0.930 . S
C1182 H1176 0.930 . S
C1182 C1183 1.355 . S
C1182 C1184 1.415 . S
C1183 C1182 1.355 . S
C1183 C1185 1.419 . S
C1184 C1182 1.415 . S
C1184 C1189 1.425 . S
C1184 C1191 1.409 . S
C1185 H1177 0.930 . S
C1185 C1183 1.419 . S
C1185 C1186 1.362 . S
C1186 H1178 0.930 . S
C1186 C1185 1.362 . S
C1186 C1189 1.409 . S
C1187 H1179 0.921 1_455 S
C1187 C1188 1.355 . S
C1187 C1189 1.415 . S
C1188 C1187 1.355 . S
C1188 C1190 1.419 . S
C1189 C1184 1.425 . S
C1189 C1186 1.409 . S
C1189 C1187 1.415 . S
C1190 H1180 0.930 . S
C1190 C1188 1.419 . S
C1190 C1191 1.362 . S
C1191 H1181 0.930 . S
C1191 C1184 1.409 . S
C1191 C1190 1.362 . S
H1192 C1198 0.930 . S
H1193 C1201 0.930 . S
H1194 C1202 0.930 . S
H1195 C1203 0.930 . S
H1196 C1206 0.930 . S
H1197 C1207 0.930 . S
C1198 H1192 0.930 . S
C1198 C1199 1.355 . S
C1198 C1200 1.415 . S
C1199 C1198 1.355 . S
C1199 C1201 1.419 . S
C1200 C1198 1.415 . S
C1200 C1205 1.425 . S
C1200 C1207 1.409 . S
C1201 H1193 0.930 . S
C1201 C1199 1.419 . S
C1201 C1202 1.362 . S
C1202 H1194 0.930 . S
C1202 C1201 1.362 . S
C1202 C1205 1.409 . S
C1203 H1195 0.930 . S
C1203 C1204 1.355 . S
C1203 C1205 1.415 . S
C1204 C1203 1.355 . S
C1204 C1206 1.419 . S
C1205 C1200 1.425 . S
C1205 C1202 1.409 . S
C1205 C1203 1.415 . S
C1206 H1196 0.930 . S
C1206 C1204 1.419 . S
C1206 C1207 1.362 . S
C1207 H1197 0.930 . S
C1207 C1200 1.409 . S
C1207 C1206 1.362 . S
H1208 C1214 0.930 . S
H1209 C1217 0.930 . S
H1210 C1218 0.930 . S
H1211 C1219 0.930 . S
H1212 C1222 0.930 . S
H1213 C1223 0.930 . S
C1214 H1208 0.930 . S
C1214 C1215 1.355 . S
C1214 C1216 1.415 . S
C1215 C1214 1.355 . S
C1215 C1217 1.419 1_565 S
C1216 C1214 1.415 . S
C1216 C1221 1.425 1_565 S
C1216 C1223 1.409 . S
C1217 H1209 0.930 . S
C1217 C1215 1.419 1_545 S
C1217 C1218 1.362 . S
C1218 H1210 0.930 . S
C1218 C1217 1.362 . S
C1218 C1221 1.409 . S
C1219 H1211 0.930 . S
C1219 C1220 1.355 1_545 S
C1219 C1221 1.415 . S
C1220 C1219 1.355 1_565 S
C1220 C1222 1.419 . S
C1221 C1216 1.425 1_545 S
C1221 C1218 1.409 . S
C1221 C1219 1.415 . S
C1222 H1212 0.930 . S
C1222 C1220 1.419 . S
C1222 C1223 1.362 . S
C1223 H1213 0.930 . S
C1223 C1216 1.409 . S
C1223 C1222 1.362 . S
H1224 C1230 0.930 . S
H1225 C1233 0.930 . S
H1226 C1234 0.930 . S
H1227 C1235 0.940 1_565 S
H1228 C1238 0.930 . S
H1229 C1239 0.930 . S
C1230 H1224 0.930 . S
C1230 C1231 1.355 . S
C1230 C1232 1.415 . S
C1231 C1230 1.355 . S
C1231 C1233 1.419 1_545 S
C1232 C1230 1.415 . S
C1232 C1237 1.425 . S
C1232 C1239 1.409 . S
C1233 H1225 0.930 . S
C1233 C1231 1.419 1_565 S
C1233 C1234 1.362 . S
C1234 H1226 0.930 . S
C1234 C1233 1.362 . S
C1234 C1237 1.409 1_565 S
C1235 H1227 0.940 1_545 S
C1235 C1236 1.361 . S
C1235 C1237 1.400 . S
C1236 C1235 1.361 . S
C1236 C1238 1.419 . S
C1237 C1232 1.425 . S
C1237 C1234 1.409 1_545 S
C1237 C1235 1.400 . S
C1238 H1228 0.930 . S
C1238 C1236 1.419 . S
C1238 C1239 1.362 . S
C1239 H1229 0.930 . S
C1239 C1232 1.409 . S
C1239 C1238 1.362 . S
H1240 C1246 0.930 . S
H1241 C1249 0.930 . S
H1242 C1250 0.930 . S
H1243 C1251 0.930 . S
H1244 C1254 0.930 . S
H1245 C1255 0.930 . S
C1246 H1240 0.930 . S
C1246 C1247 1.355 . S
C1246 C1248 1.415 . S
C1247 C1246 1.355 . S
C1247 C1249 1.419 1_655 S
C1248 C1246 1.415 . S
C1248 C1253 1.425 1_655 S
C1248 C1255 1.409 . S
C1249 H1241 0.930 . S
C1249 C1247 1.419 1_455 S
C1249 C1250 1.362 . S
C1250 H1242 0.930 . S
C1250 C1249 1.362 . S
C1250 C1253 1.409 . S
C1251 H1243 0.930 . S
C1251 C1252 1.355 1_455 S
C1251 C1253 1.415 . S
C1252 C1251 1.355 1_655 S
C1252 C1254 1.419 . S
C1253 C1248 1.425 1_455 S
C1253 C1250 1.409 . S
C1253 C1251 1.415 . S
C1254 H1244 0.930 . S
C1254 C1252 1.419 . S
C1254 C1255 1.362 . S
C1255 H1245 0.930 . S
C1255 C1248 1.409 . S
C1255 C1254 1.362 . S
H1256 C1262 0.930 . S
H1257 C1265 0.930 . S
H1258 C1266 0.930 . S
H1259 C1267 0.930 . S
H1260 C1270 0.930 . S
H1261 C1271 0.930 . S
C1262 H1256 0.930 . S
C1262 C1263 1.355 . S
C1262 C1264 1.415 . S
C1263 C1262 1.355 . S
C1263 C1265 1.419 . S
C1264 C1262 1.415 . S
C1264 C1269 1.425 . S
C1264 C1271 1.409 . S
C1265 H1257 0.930 . S
C1265 C1263 1.419 . S
C1265 C1266 1.362 . S
C1266 H1258 0.930 . S
C1266 C1265 1.362 . S
C1266 C1269 1.409 . S
C1267 H1259 0.930 . S
C1267 C1268 1.355 . S
C1267 C1269 1.415 . S
C1268 C1267 1.355 . S
C1268 C1270 1.419 . S
C1269 C1264 1.425 . S
C1269 C1266 1.409 . S
C1269 C1267 1.415 . S
C1270 H1260 0.930 . S
C1270 C1268 1.419 . S
C1270 C1271 1.362 . S
C1271 H1261 0.930 . S
C1271 C1264 1.409 . S
C1271 C1270 1.362 . S
H1272 C1278 0.930 . S
H1273 C1281 0.930 . S
H1274 C1282 0.930 . S
H1275 C1283 0.930 . S
H1276 C1286 0.930 . S
H1277 C1287 0.930 . S
C1278 H1272 0.930 . S
C1278 C1279 1.355 . S
C1278 C1280 1.415 . S
C1279 C1278 1.355 . S
C1279 C1281 1.419 . S
C1280 C1278 1.415 . S
C1280 C1285 1.425 . S
C1280 C1287 1.409 . S
C1281 H1273 0.930 . S
C1281 C1279 1.419 . S
C1281 C1282 1.362 . S
C1282 H1274 0.930 . S
C1282 C1281 1.362 . S
C1282 C1285 1.409 . S
C1283 H1275 0.930 . S
C1283 C1284 1.355 . S
C1283 C1285 1.415 . S
C1284 C1283 1.355 . S
C1284 C1286 1.419 . S
C1285 C1280 1.425 . S
C1285 C1282 1.409 . S
C1285 C1283 1.415 . S
C1286 H1276 0.930 . S
C1286 C1284 1.419 . S
C1286 C1287 1.362 . S
C1287 H1277 0.930 . S
C1287 C1280 1.409 . S
C1287 C1286 1.362 . S
H1288 C1294 0.930 . S
H1289 C1297 0.930 . S
H1290 C1298 0.930 . S
H1291 C1299 0.930 . S
H1292 C1302 0.930 . S
H1293 C1303 0.930 . S
C1294 H1288 0.930 . S
C1294 C1295 1.355 . S
C1294 C1296 1.415 . S
C1295 C1294 1.355 . S
C1295 C1297 1.419 . S
C1296 C1294 1.415 . S
C1296 C1301 1.425 . S
C1296 C1303 1.409 . S
C1297 H1289 0.930 . S
C1297 C1295 1.419 . S
C1297 C1298 1.362 . S
C1298 H1290 0.930 . S
C1298 C1297 1.362 . S
C1298 C1301 1.409 . S
C1299 H1291 0.930 . S
C1299 C1300 1.355 . S
C1299 C1301 1.415 . S
C1300 C1299 1.355 . S
C1300 C1302 1.419 . S
C1301 C1296 1.425 . S
C1301 C1298 1.409 . S
C1301 C1299 1.415 . S
C1302 H1292 0.930 . S
C1302 C1300 1.419 . S
C1302 C1303 1.362 . S
C1303 H1293 0.930 . S
C1303 C1296 1.409 . S
C1303 C1302 1.362 . S
H1304 C1310 0.930 . S
H1305 C1313 0.930 . S
H1306 C1314 0.930 . S
H1307 C1315 0.930 . S
H1308 C1318 0.930 . S
H1309 C1319 0.930 . S
C1310 H1304 0.930 . S
C1310 C1311 1.355 . S
C1310 C1312 1.415 . S
C1311 C1310 1.355 . S
C1311 C1313 1.419 . S
C1312 C1310 1.415 . S
C1312 C1317 1.425 . S
C1312 C1319 1.409 . S
C1313 H1305 0.930 . S
C1313 C1311 1.419 . S
C1313 C1314 1.362 . S
C1314 H1306 0.930 . S
C1314 C1313 1.362 . S
C1314 C1317 1.409 . S
C1315 H1307 0.930 . S
C1315 C1316 1.355 . S
C1315 C1317 1.415 . S
C1316 C1315 1.355 . S
C1316 C1318 1.419 . S
C1317 C1312 1.425 . S
C1317 C1314 1.409 . S
C1317 C1315 1.415 . S
C1318 H1308 0.930 . S
C1318 C1316 1.419 . S
C1318 C1319 1.362 . S
C1319 H1309 0.930 . S
C1319 C1312 1.409 . S
C1319 C1318 1.362 . S
H1320 C1326 0.930 . S
H1321 C1329 0.930 . S
H1322 C1330 0.930 . S
H1323 C1331 0.930 . S
H1324 C1334 0.930 . S
H1325 C1335 0.930 . S
C1326 H1320 0.930 . S
C1326 C1327 1.355 . S
C1326 C1328 1.415 . S
C1327 C1326 1.355 . S
C1327 C1329 1.419 . S
C1328 C1326 1.415 . S
C1328 C1333 1.425 . S
C1328 C1335 1.409 . S
C1329 H1321 0.930 . S
C1329 C1327 1.419 . S
C1329 C1330 1.362 . S
C1330 H1322 0.930 . S
C1330 C1329 1.362 . S
C1330 C1333 1.409 . S
C1331 H1323 0.930 . S
C1331 C1332 1.355 . S
C1331 C1333 1.415 . S
C1332 C1331 1.355 . S
C1332 C1334 1.419 . S
C1333 C1328 1.425 . S
C1333 C1330 1.409 . S
C1333 C1331 1.415 . S
C1334 H1324 0.930 . S
C1334 C1332 1.419 . S
C1334 C1335 1.362 . S
C1335 H1325 0.930 . S
C1335 C1328 1.409 . S
C1335 C1334 1.362 . S
H1336 C1342 0.930 . S
H1337 C1345 0.930 . S
H1338 C1346 0.930 . S
H1339 C1347 0.930 . S
H1340 C1350 0.930 . S
H1341 C1351 0.930 . S
C1342 H1336 0.930 . S
C1342 C1343 1.355 . S
C1342 C1344 1.415 . S
C1343 C1342 1.355 . S
C1343 C1345 1.419 . S
C1344 C1342 1.415 . S
C1344 C1349 1.425 . S
C1344 C1351 1.409 . S
C1345 H1337 0.930 . S
C1345 C1343 1.419 . S
C1345 C1346 1.362 . S
C1346 H1338 0.930 . S
C1346 C1345 1.362 . S
C1346 C1349 1.409 . S
C1347 H1339 0.930 . S
C1347 C1348 1.355 . S
C1347 C1349 1.415 . S
C1348 C1347 1.355 . S
C1348 C1350 1.419 . S
C1349 C1344 1.425 . S
C1349 C1346 1.409 . S
C1349 C1347 1.415 . S
C1350 H1340 0.930 . S
C1350 C1348 1.419 . S
C1350 C1351 1.362 . S
C1351 H1341 0.930 . S
C1351 C1344 1.409 . S
C1351 C1350 1.362 . S
H1352 C1358 0.930 . S
H1353 C1361 0.930 . S
H1354 C1362 0.930 . S
H1355 C1363 0.930 . S
H1356 C1366 0.930 . S
H1357 C1367 0.930 . S
C1358 H1352 0.930 . S
C1358 C1359 1.355 . S
C1358 C1360 1.415 . S
C1359 C1358 1.355 . S
C1359 C1361 1.419 . S
C1360 C1358 1.415 . S
C1360 C1365 1.425 . S
C1360 C1367 1.409 . S
C1361 H1353 0.930 . S
C1361 C1359 1.419 . S
C1361 C1362 1.362 . S
C1362 H1354 0.930 . S
C1362 C1361 1.362 . S
C1362 C1365 1.409 . S
C1363 H1355 0.930 . S
C1363 C1364 1.355 . S
C1363 C1365 1.415 . S
C1364 C1363 1.355 . S
C1364 C1366 1.419 . S
C1365 C1360 1.425 . S
C1365 C1362 1.409 . S
C1365 C1363 1.415 . S
C1366 H1356 0.930 . S
C1366 C1364 1.419 . S
C1366 C1367 1.362 . S
C1367 H1357 0.930 . S
C1367 C1360 1.409 . S
C1367 C1366 1.362 . S
H1368 C1374 0.930 . S
H1369 C1377 0.930 . S
H1370 C1378 0.930 . S
H1371 C1379 0.930 . S
H1372 C1382 0.930 . S
H1373 C1383 0.930 . S
C1374 H1368 0.930 . S
C1374 C1375 1.355 . S
C1374 C1376 1.415 . S
C1375 C1374 1.355 . S
C1375 C1377 1.419 . S
C1376 C1374 1.415 . S
C1376 C1381 1.425 . S
C1376 C1383 1.409 . S
C1377 H1369 0.930 . S
C1377 C1375 1.419 . S
C1377 C1378 1.362 . S
C1378 H1370 0.930 . S
C1378 C1377 1.362 . S
C1378 C1381 1.409 . S
C1379 H1371 0.930 . S
C1379 C1380 1.355 . S
C1379 C1381 1.415 . S
C1380 C1379 1.355 . S
C1380 C1382 1.419 . S
C1381 C1376 1.425 . S
C1381 C1378 1.409 . S
C1381 C1379 1.415 . S
C1382 H1372 0.930 . S
C1382 C1380 1.419 . S
C1382 C1383 1.362 . S
C1383 H1373 0.930 . S
C1383 C1376 1.409 . S
C1383 C1382 1.362 . S
H1384 C1390 0.930 . S
H1385 C1393 0.930 . S
H1386 C1394 0.930 . S
H1387 C1395 0.930 . S
H1388 C1398 0.930 . S
H1389 C1399 0.930 . S
C1390 H1384 0.930 . S
C1390 C1391 1.355 . S
C1390 C1392 1.415 . S
C1391 C1390 1.355 . S
C1391 C1393 1.419 . S
C1392 C1390 1.415 . S
C1392 C1397 1.425 . S
C1392 C1399 1.409 . S
C1393 H1385 0.930 . S
C1393 C1391 1.419 . S
C1393 C1394 1.362 . S
C1394 H1386 0.930 . S
C1394 C1393 1.362 . S
C1394 C1397 1.409 . S
C1395 H1387 0.930 . S
C1395 C1396 1.355 . S
C1395 C1397 1.415 . S
C1396 C1395 1.355 . S
C1396 C1398 1.419 . S
C1397 C1392 1.425 . S
C1397 C1394 1.409 . S
C1397 C1395 1.415 . S
C1398 H1388 0.930 . S
C1398 C1396 1.419 . S
C1398 C1399 1.362 . S
C1399 H1389 0.930 . S
C1399 C1392 1.409 . S
C1399 C1398 1.362 . S
H1400 C1406 0.930 . S
H1401 C1409 0.930 . S
H1402 C1410 0.930 . S
H1403 C1411 0.930 . S
H1404 C1414 0.930 . S
H1405 C1415 0.930 . S
C1406 H1400 0.930 . S
C1406 C1407 1.355 . S
C1406 C1408 1.415 . S
C1407 C1406 1.355 . S
C1407 C1409 1.419 . S
C1408 C1406 1.415 . S
C1408 C1413 1.425 . S
C1408 C1415 1.409 . S
C1409 H1401 0.930 . S
C1409 C1407 1.419 . S
C1409 C1410 1.362 . S
C1410 H1402 0.930 . S
C1410 C1409 1.362 . S
C1410 C1413 1.409 . S
C1411 H1403 0.930 . S
C1411 C1412 1.355 . S
C1411 C1413 1.415 . S
C1412 C1411 1.355 . S
C1412 C1414 1.419 . S
C1413 C1408 1.425 . S
C1413 C1410 1.409 . S
C1413 C1411 1.415 . S
C1414 H1404 0.930 . S
C1414 C1412 1.419 . S
C1414 C1415 1.362 . S
C1415 H1405 0.930 . S
C1415 C1408 1.409 . S
C1415 C1414 1.362 . S
H1416 C1422 0.930 . S
H1417 C1425 0.930 . S
H1418 C1426 0.930 . S
H1419 C1427 0.930 . S
H1420 C1430 0.930 . S
H1421 C1431 0.930 . S
C1422 H1416 0.930 . S
C1422 C1423 1.355 . S
C1422 C1424 1.415 . S
C1423 C1422 1.355 . S
C1423 C1425 1.419 . S
C1424 C1422 1.415 . S
C1424 C1429 1.425 . S
C1424 C1431 1.409 . S
C1425 H1417 0.930 . S
C1425 C1423 1.419 . S
C1425 C1426 1.362 . S
C1426 H1418 0.930 . S
C1426 C1425 1.362 . S
C1426 C1429 1.409 . S
C1427 H1419 0.930 . S
C1427 C1428 1.355 . S
C1427 C1429 1.415 . S
C1428 C1427 1.355 . S
C1428 C1430 1.419 . S
C1429 C1424 1.425 . S
C1429 C1426 1.409 . S
C1429 C1427 1.415 . S
C1430 H1420 0.930 . S
C1430 C1428 1.419 . S
C1430 C1431 1.362 . S
C1431 H1421 0.930 . S
C1431 C1424 1.409 . S
C1431 C1430 1.362 . S
H1432 C1438 0.930 . S
H1433 C1441 0.930 . S
H1434 C1442 0.930 . S
H1435 C1443 0.930 . S
H1436 C1446 0.930 . S
H1437 C1447 0.930 . S
C1438 H1432 0.930 . S
C1438 C1439 1.355 . S
C1438 C1440 1.415 . S
C1439 C1438 1.355 . S
C1439 C1441 1.419 . S
C1440 C1438 1.415 . S
C1440 C1445 1.425 . S
C1440 C1447 1.409 . S
C1441 H1433 0.930 . S
C1441 C1439 1.419 . S
C1441 C1442 1.362 . S
C1442 H1434 0.930 . S
C1442 C1441 1.362 . S
C1442 C1445 1.409 . S
C1443 H1435 0.930 . S
C1443 C1444 1.355 . S
C1443 C1445 1.415 . S
C1444 C1443 1.355 . S
C1444 C1446 1.419 . S
C1445 C1440 1.425 . S
C1445 C1442 1.409 . S
C1445 C1443 1.415 . S
C1446 H1436 0.930 . S
C1446 C1444 1.419 . S
C1446 C1447 1.362 . S
C1447 H1437 0.930 . S
C1447 C1440 1.409 . S
C1447 C1446 1.362 . S
H1448 C1454 0.930 . S
H1449 C1457 0.930 . S
H1450 C1458 0.930 . S
H1451 C1459 0.930 . S
H1452 C1462 0.930 . S
H1453 C1463 0.930 . S
C1454 H1448 0.930 . S
C1454 C1455 1.355 . S
C1454 C1456 1.415 . S
C1455 C1454 1.355 . S
C1455 C1457 1.419 . S
C1456 C1454 1.415 . S
C1456 C1461 1.425 . S
C1456 C1463 1.409 . S
C1457 H1449 0.930 . S
C1457 C1455 1.419 . S
C1457 C1458 1.362 . S
C1458 H1450 0.930 . S
C1458 C1457 1.362 . S
C1458 C1461 1.409 . S
C1459 H1451 0.930 . S
C1459 C1460 1.355 . S
C1459 C1461 1.415 . S
C1460 C1459 1.355 . S
C1460 C1462 1.419 . S
C1461 C1456 1.425 . S
C1461 C1458 1.409 . S
C1461 C1459 1.415 . S
C1462 H1452 0.930 . S
C1462 C1460 1.419 . S
C1462 C1463 1.362 . S
C1463 H1453 0.930 . S
C1463 C1456 1.409 . S
C1463 C1462 1.362 . S
H1464 C1470 0.930 . S
H1465 C1473 0.930 . S
H1466 C1474 0.930 . S
H1467 C1475 0.930 . S
H1468 C1478 0.930 . S
H1469 C1479 0.930 . S
C1470 H1464 0.930 . S
C1470 C1471 1.355 . S
C1470 C1472 1.415 . S
C1471 C1470 1.355 . S
C1471 C1473 1.419 . S
C1472 C1470 1.415 . S
C1472 C1477 1.425 . S
C1472 C1479 1.409 . S
C1473 H1465 0.930 . S
C1473 C1471 1.419 . S
C1473 C1474 1.362 . S
C1474 H1466 0.930 . S
C1474 C1473 1.362 . S
C1474 C1477 1.409 . S
C1475 H1467 0.930 . S
C1475 C1476 1.355 . S
C1475 C1477 1.415 . S
C1476 C1475 1.355 . S
C1476 C1478 1.419 . S
C1477 C1472 1.425 . S
C1477 C1474 1.409 . S
C1477 C1475 1.415 . S
C1478 H1468 0.930 . S
C1478 C1476 1.419 . S
C1478 C1479 1.362 . S
C1479 H1469 0.930 . S
C1479 C1472 1.409 . S
C1479 C1478 1.362 . S
H1480 C1486 0.930 . S
H1481 C1489 0.930 . S
H1482 C1490 0.930 . S
H1483 C1491 0.930 . S
H1484 C1494 0.930 . S
H1485 C1495 0.930 . S
C1486 H1480 0.930 . S
C1486 C1487 1.355 . S
C1486 C1488 1.415 . S
C1487 C1486 1.355 . S
C1487 C1489 1.419 . S
C1488 C1486 1.415 . S
C1488 C1493 1.425 . S
C1488 C1495 1.409 . S
C1489 H1481 0.930 . S
C1489 C1487 1.419 . S
C1489 C1490 1.362 . S
C1490 H1482 0.930 . S
C1490 C1489 1.362 . S
C1490 C1493 1.409 . S
C1491 H1483 0.930 . S
C1491 C1492 1.355 . S
C1491 C1493 1.415 . S
C1492 C1491 1.355 . S
C1492 C1494 1.419 . S
C1493 C1488 1.425 . S
C1493 C1490 1.409 . S
C1493 C1491 1.415 . S
C1494 H1484 0.930 . S
C1494 C1492 1.419 . S
C1494 C1495 1.362 . S
C1495 H1485 0.930 . S
C1495 C1488 1.409 . S
C1495 C1494 1.362 . S
H1496 C1502 0.930 . S
H1497 C1505 0.930 . S
H1498 C1506 0.930 . S
H1499 C1507 0.930 . S
H1500 C1510 0.930 . S
H1501 C1511 0.930 . S
C1502 H1496 0.930 . S
C1502 C1503 1.355 . S
C1502 C1504 1.415 . S
C1503 C1502 1.355 . S
C1503 C1505 1.419 . S
C1504 C1502 1.415 . S
C1504 C1509 1.425 . S
C1504 C1511 1.409 . S
C1505 H1497 0.930 . S
C1505 C1503 1.419 . S
C1505 C1506 1.362 . S
C1506 H1498 0.930 . S
C1506 C1505 1.362 . S
C1506 C1509 1.409 . S
C1507 H1499 0.930 . S
C1507 C1508 1.355 . S
C1507 C1509 1.415 . S
C1508 C1507 1.355 . S
C1508 C1510 1.419 . S
C1509 C1504 1.425 . S
C1509 C1506 1.409 . S
C1509 C1507 1.415 . S
C1510 H1500 0.930 . S
C1510 C1508 1.419 . S
C1510 C1511 1.362 . S
C1511 H1501 0.930 . S
C1511 C1504 1.409 . S
C1511 C1510 1.362 . S
H1512 C1518 0.930 . S
H1513 C1521 0.930 . S
H1514 C1522 0.930 . S
H1515 C1523 0.930 . S
H1516 C1526 0.930 . S
H1517 C1527 0.930 . S
C1518 H1512 0.930 . S
C1518 C1519 1.355 . S
C1518 C1520 1.415 . S
C1519 C1518 1.355 . S
C1519 C1521 1.419 . S
C1520 C1518 1.415 . S
C1520 C1525 1.425 . S
C1520 C1527 1.409 . S
C1521 H1513 0.930 . S
C1521 C1519 1.419 . S
C1521 C1522 1.362 . S
C1522 H1514 0.930 . S
C1522 C1521 1.362 . S
C1522 C1525 1.409 . S
C1523 H1515 0.930 . S
C1523 C1524 1.355 . S
C1523 C1525 1.415 . S
C1524 C1523 1.355 . S
C1524 C1526 1.419 . S
C1525 C1520 1.425 . S
C1525 C1522 1.409 . S
C1525 C1523 1.415 . S
C1526 H1516 0.930 . S
C1526 C1524 1.419 . S
C1526 C1527 1.362 . S
C1527 H1517 0.930 . S
C1527 C1520 1.409 . S
C1527 C1526 1.362 . S
H1528 C1534 0.930 . S
H1529 C1537 0.930 . S
H1530 C1538 0.930 . S
H1531 C1539 0.930 . S
H1532 C1542 0.930 . S
H1533 C1543 0.930 . S
C1534 H1528 0.930 . S
C1534 C1535 1.355 . S
C1534 C1536 1.415 . S
C1535 C1534 1.355 . S
C1535 C1537 1.419 . S
C1536 C1534 1.415 . S
C1536 C1541 1.425 . S
C1536 C1543 1.409 . S
C1537 H1529 0.930 . S
C1537 C1535 1.419 . S
C1537 C1538 1.362 . S
C1538 H1530 0.930 . S
C1538 C1537 1.362 . S
C1538 C1541 1.409 . S
C1539 H1531 0.930 . S
C1539 C1540 1.355 . S
C1539 C1541 1.415 . S
C1540 C1539 1.355 . S
C1540 C1542 1.419 . S
C1541 C1536 1.425 . S
C1541 C1538 1.409 . S
C1541 C1539 1.415 . S
C1542 H1532 0.930 . S
C1542 C1540 1.419 . S
C1542 C1543 1.362 . S
C1543 H1533 0.930 . S
C1543 C1536 1.409 . S
C1543 C1542 1.362 . S
H1544 C1550 0.930 . S
H1545 C1553 0.930 . S
H1546 C1554 0.930 . S
H1547 C1555 0.930 . S
H1548 C1558 0.930 . S
H1549 C1559 0.930 . S
C1550 H1544 0.930 . S
C1550 C1551 1.355 . S
C1550 C1552 1.415 . S
C1551 C1550 1.355 . S
C1551 C1553 1.419 . S
C1552 C1550 1.415 . S
C1552 C1557 1.425 . S
C1552 C1559 1.409 . S
C1553 H1545 0.930 . S
C1553 C1551 1.419 . S
C1553 C1554 1.362 . S
C1554 H1546 0.930 . S
C1554 C1553 1.362 . S
C1554 C1557 1.409 . S
C1555 H1547 0.930 . S
C1555 C1556 1.355 . S
C1555 C1557 1.415 . S
C1556 C1555 1.355 . S
C1556 C1558 1.419 . S
C1557 C1552 1.425 . S
C1557 C1554 1.409 . S
C1557 C1555 1.415 . S
C1558 H1548 0.930 . S
C1558 C1556 1.419 . S
C1558 C1559 1.362 . S
C1559 H1549 0.930 . S
C1559 C1552 1.409 . S
C1559 C1558 1.362 . S
H1560 C1566 0.930 . S
H1561 C1569 0.930 . S
H1562 C1570 0.930 . S
H1563 C1571 0.930 . S
H1564 C1574 0.930 . S
H1565 C1575 0.930 . S
C1566 H1560 0.930 . S
C1566 C1567 1.355 . S
C1566 C1568 1.415 . S
C1567 C1566 1.355 . S
C1567 C1569 1.419 . S
C1568 C1566 1.415 . S
C1568 C1573 1.425 . S
C1568 C1575 1.409 . S
C1569 H1561 0.930 . S
C1569 C1567 1.419 . S
C1569 C1570 1.362 . S
C1570 H1562 0.930 . S
C1570 C1569 1.362 . S
C1570 C1573 1.409 . S
C1571 H1563 0.930 . S
C1571 C1572 1.355 . S
C1571 C1573 1.415 . S
C1572 C1571 1.355 . S
C1572 C1574 1.419 . S
C1573 C1568 1.425 . S
C1573 C1570 1.409 . S
C1573 C1571 1.415 . S
C1574 H1564 0.930 . S
C1574 C1572 1.419 . S
C1574 C1575 1.362 . S
C1575 H1565 0.930 . S
C1575 C1568 1.409 . S
C1575 C1574 1.362 . S
H1576 C1582 0.930 . S
H1577 C1585 0.930 . S
H1578 C1586 0.930 . S
H1579 C1587 0.930 . S
H1580 C1590 0.930 . S
H1581 C1591 0.930 . S
C1582 H1576 0.930 . S
C1582 C1583 1.355 . S
C1582 C1584 1.415 . S
C1583 C1582 1.355 . S
C1583 C1585 1.419 . S
C1584 C1582 1.415 . S
C1584 C1589 1.425 . S
C1584 C1591 1.409 . S
C1585 H1577 0.930 . S
C1585 C1583 1.419 . S
C1585 C1586 1.362 . S
C1586 H1578 0.930 . S
C1586 C1585 1.362 . S
C1586 C1589 1.409 . S
C1587 H1579 0.930 . S
C1587 C1588 1.355 . S
C1587 C1589 1.415 . S
C1588 C1587 1.355 . S
C1588 C1590 1.419 . S
C1589 C1584 1.425 . S
C1589 C1586 1.409 . S
C1589 C1587 1.415 . S
C1590 H1580 0.930 . S
C1590 C1588 1.419 . S
C1590 C1591 1.362 . S
C1591 H1581 0.930 . S
C1591 C1584 1.409 . S
C1591 C1590 1.362 . S
H1592 C1598 0.930 . S
H1593 C1601 0.930 . S
H1594 C1602 0.930 . S
H1595 C1603 0.930 . S
H1596 C1606 0.930 . S
H1597 C1607 0.930 . S
C1598 H1592 0.930 . S
C1598 C1599 1.355 . S
C1598 C1600 1.415 . S
C1599 C1598 1.355 . S
C1599 C1601 1.419 . S
C1600 C1598 1.415 . S
C1600 C1605 1.425 . S
C1600 C1607 1.409 . S
C1601 H1593 0.930 . S
C1601 C1599 1.419 . S
C1601 C1602 1.362 . S
C1602 H1594 0.930 . S
C1602 C1601 1.362 . S
C1602 C1605 1.409 . S
C1603 H1595 0.930 . S
C1603 C1604 1.355 . S
C1603 C1605 1.415 . S
C1604 C1603 1.355 . S
C1604 C1606 1.419 . S
C1605 C1600 1.425 . S
C1605 C1602 1.409 . S
C1605 C1603 1.415 . S
C1606 H1596 0.930 . S
C1606 C1604 1.419 . S
C1606 C1607 1.362 . S
C1607 H1597 0.930 . S
C1607 C1600 1.409 . S
C1607 C1606 1.362 . S
H1608 C1614 0.930 . S
H1609 C1617 0.930 . S
H1610 C1618 0.930 . S
H1611 C1619 0.930 . S
H1612 C1622 0.930 . S
H1613 C1623 0.930 . S
C1614 H1608 0.930 . S
C1614 C1615 1.355 . S
C1614 C1616 1.415 . S
C1615 C1614 1.355 . S
C1615 C1617 1.419 . S
C1616 C1614 1.415 . S
C1616 C1621 1.425 . S
C1616 C1623 1.409 . S
C1617 H1609 0.930 . S
C1617 C1615 1.419 . S
C1617 C1618 1.362 . S
C1618 H1610 0.930 . S
C1618 C1617 1.362 . S
C1618 C1621 1.409 . S
C1619 H1611 0.930 . S
C1619 C1620 1.355 . S
C1619 C1621 1.415 . S
C1620 C1619 1.355 . S
C1620 C1622 1.419 . S
C1621 C1616 1.425 . S
C1621 C1618 1.409 . S
C1621 C1619 1.415 . S
C1622 H1612 0.930 . S
C1622 C1620 1.419 . S
C1622 C1623 1.362 . S
C1623 H1613 0.930 . S
C1623 C1616 1.409 . S
C1623 C1622 1.362 . S
H1624 C1630 0.930 . S
H1625 C1633 0.930 . S
H1626 C1634 0.930 . S
H1627 C1635 0.930 . S
H1628 C1638 0.930 . S
H1629 C1639 0.930 . S
C1630 H1624 0.930 . S
C1630 C1631 1.355 . S
C1630 C1632 1.415 . S
C1631 C1630 1.355 . S
C1631 C1633 1.419 . S
C1632 C1630 1.415 . S
C1632 C1637 1.425 . S
C1632 C1639 1.409 . S
C1633 H1625 0.930 . S
C1633 C1631 1.419 . S
C1633 C1634 1.362 . S
C1634 H1626 0.930 . S
C1634 C1633 1.362 . S
C1634 C1637 1.409 . S
C1635 H1627 0.930 . S
C1635 C1636 1.355 . S
C1635 C1637 1.415 . S
C1636 C1635 1.355 . S
C1636 C1638 1.419 . S
C1637 C1632 1.425 . S
C1637 C1634 1.409 . S
C1637 C1635 1.415 . S
C1638 H1628 0.930 . S
C1638 C1636 1.419 . S
C1638 C1639 1.362 . S
C1639 H1629 0.930 . S
C1639 C1632 1.409 . S
C1639 C1638 1.362 . S
H1640 C1646 0.930 . S
H1641 C1649 0.930 . S
H1642 C1650 0.930 . S
H1643 C1651 0.930 . S
H1644 C1654 0.930 . S
H1645 C1655 0.930 . S
C1646 H1640 0.930 . S
C1646 C1647 1.355 . S
C1646 C1648 1.415 . S
C1647 C1646 1.355 . S
C1647 C1649 1.419 . S
C1648 C1646 1.415 . S
C1648 C1653 1.425 . S
C1648 C1655 1.409 . S
C1649 H1641 0.930 . S
C1649 C1647 1.419 . S
C1649 C1650 1.362 . S
C1650 H1642 0.930 . S
C1650 C1649 1.362 . S
C1650 C1653 1.409 . S
C1651 H1643 0.930 . S
C1651 C1652 1.355 . S
C1651 C1653 1.415 . S
C1652 C1651 1.355 . S
C1652 C1654 1.419 . S
C1653 C1648 1.425 . S
C1653 C1650 1.409 . S
C1653 C1651 1.415 . S
C1654 H1644 0.930 . S
C1654 C1652 1.419 . S
C1654 C1655 1.362 . S
C1655 H1645 0.930 . S
C1655 C1648 1.409 . S
C1655 C1654 1.362 . S
H1656 C1662 0.930 . S
H1657 C1665 0.930 . S
H1658 C1666 0.930 . S
H1659 C1667 0.930 . S
H1660 C1670 0.930 . S
H1661 C1671 0.930 . S
C1662 H1656 0.930 . S
C1662 C1663 1.355 . S
C1662 C1664 1.415 . S
C1663 C1662 1.355 . S
C1663 C1665 1.419 . S
C1664 C1662 1.415 . S
C1664 C1669 1.425 . S
C1664 C1671 1.409 . S
C1665 H1657 0.930 . S
C1665 C1663 1.419 . S
C1665 C1666 1.362 . S
C1666 H1658 0.930 . S
C1666 C1665 1.362 . S
C1666 C1669 1.409 . S
C1667 H1659 0.930 . S
C1667 C1668 1.355 . S
C1667 C1669 1.415 . S
C1668 C1667 1.355 . S
C1668 C1670 1.419 . S
C1669 C1664 1.425 . S
C1669 C1666 1.409 . S
C1669 C1667 1.415 . S
C1670 H1660 0.930 . S
C1670 C1668 1.419 . S
C1670 C1671 1.362 . S
C1671 H1661 0.930 . S
C1671 C1664 1.409 . S
C1671 C1670 1.362 . S
H1672 C1678 0.930 . S
H1673 C1681 0.930 . S
H1674 C1682 0.930 . S
H1675 C1683 0.930 . S
H1676 C1686 0.930 . S
H1677 C1687 0.930 . S
C1678 H1672 0.930 . S
C1678 C1679 1.355 . S
C1678 C1680 1.415 . S
C1679 C1678 1.355 . S
C1679 C1681 1.419 . S
C1680 C1678 1.415 . S
C1680 C1685 1.425 . S
C1680 C1687 1.409 . S
C1681 H1673 0.930 . S
C1681 C1679 1.419 . S
C1681 C1682 1.362 . S
C1682 H1674 0.930 . S
C1682 C1681 1.362 . S
C1682 C1685 1.409 . S
C1683 H1675 0.930 . S
C1683 C1684 1.355 . S
C1683 C1685 1.415 . S
C1684 C1683 1.355 . S
C1684 C1686 1.419 . S
C1685 C1680 1.425 . S
C1685 C1682 1.409 . S
C1685 C1683 1.415 . S
C1686 H1676 0.930 . S
C1686 C1684 1.419 . S
C1686 C1687 1.362 . S
C1687 H1677 0.930 . S
C1687 C1680 1.409 . S
C1687 C1686 1.362 . S
H1688 C1694 0.930 . S
H1689 C1697 0.930 . S
H1690 C1698 0.930 . S
H1691 C1699 0.930 . S
H1692 C1702 0.930 . S
H1693 C1703 0.930 . S
C1694 H1688 0.930 . S
C1694 C1695 1.355 . S
C1694 C1696 1.415 . S
C1695 C1694 1.355 . S
C1695 C1697 1.419 . S
C1696 C1694 1.415 . S
C1696 C1701 1.425 . S
C1696 C1703 1.409 . S
C1697 H1689 0.930 . S
C1697 C1695 1.419 . S
C1697 C1698 1.362 . S
C1698 H1690 0.930 . S
C1698 C1697 1.362 . S
C1698 C1701 1.409 . S
C1699 H1691 0.930 . S
C1699 C1700 1.355 . S
C1699 C1701 1.415 . S
C1700 C1699 1.355 . S
C1700 C1702 1.419 . S
C1701 C1696 1.425 . S
C1701 C1698 1.409 . S
C1701 C1699 1.415 . S
C1702 H1692 0.930 . S
C1702 C1700 1.419 . S
C1702 C1703 1.362 . S
C1703 H1693 0.930 . S
C1703 C1696 1.409 . S
C1703 C1702 1.362 . S
H1704 C1710 0.930 . S
H1705 C1713 0.930 1_554 S
H1706 C1714 0.930 . S
H1707 C1715 0.930 . S
H1708 C1718 0.930 . S
H1709 C1719 0.930 . S
C1710 H1704 0.930 . S
C1710 C1711 1.355 . S
C1710 C1712 1.415 . S
C1711 C1710 1.355 . S
C1711 C1713 1.419 . S
C1712 C1710 1.415 . S
C1712 C1717 1.425 . S
C1712 C1719 1.409 . S
C1713 H1705 0.930 1_556 S
C1713 C1711 1.419 . S
C1713 C1714 1.362 . S
C1714 H1706 0.930 . S
C1714 C1713 1.362 . S
C1714 C1717 1.409 . S
C1715 H1707 0.930 . S
C1715 C1716 1.355 . S
C1715 C1717 1.415 . S
C1716 C1715 1.355 . S
C1716 C1718 1.419 . S
C1717 C1712 1.425 . S
C1717 C1714 1.409 . S
C1717 C1715 1.415 . S
C1718 H1708 0.930 . S
C1718 C1716 1.419 . S
C1718 C1719 1.362 . S
C1719 H1709 0.930 . S
C1719 C1712 1.409 . S
C1719 C1718 1.362 . S
H1720 C1726 0.930 . S
H1721 C1729 0.930 . S
H1722 C1730 0.930 . S
H1723 C1731 0.930 . S
H1724 C1734 0.930 . S
H1725 C1735 0.930 . S
C1726 H1720 0.930 . S
C1726 C1727 1.355 . S
C1726 C1728 1.415 . S
C1727 C1726 1.355 . S
C1727 C1729 1.419 . S
C1728 C1726 1.415 . S
C1728 C1733 1.425 . S
C1728 C1735 1.409 . S
C1729 H1721 0.930 . S
C1729 C1727 1.419 . S
C1729 C1730 1.362 . S
C1730 H1722 0.930 . S
C1730 C1729 1.362 . S
C1730 C1733 1.409 . S
C1731 H1723 0.930 . S
C1731 C1732 1.355 . S
C1731 C1733 1.415 . S
C1732 C1731 1.355 . S
C1732 C1734 1.419 . S
C1733 C1728 1.425 . S
C1733 C1730 1.409 . S
C1733 C1731 1.415 . S
C1734 H1724 0.930 . S
C1734 C1732 1.419 . S
C1734 C1735 1.362 . S
C1735 H1725 0.930 . S
C1735 C1728 1.409 . S
C1735 C1734 1.362 . S
H1736 C1742 0.930 . S
H1737 C1745 0.930 . S
H1738 C1746 0.930 . S
H1739 C1747 0.930 . S
H1740 C1750 0.930 . S
H1741 C1751 0.930 . S
C1742 H1736 0.930 . S
C1742 C1743 1.355 . S
C1742 C1744 1.415 . S
C1743 C1742 1.355 . S
C1743 C1745 1.419 . S
C1744 C1742 1.415 . S
C1744 C1749 1.425 . S
C1744 C1751 1.409 . S
C1745 H1737 0.930 . S
C1745 C1743 1.419 . S
C1745 C1746 1.362 . S
C1746 H1738 0.930 . S
C1746 C1745 1.362 . S
C1746 C1749 1.409 . S
C1747 H1739 0.930 . S
C1747 C1748 1.355 . S
C1747 C1749 1.415 . S
C1748 C1747 1.355 . S
C1748 C1750 1.419 . S
C1749 C1744 1.425 . S
C1749 C1746 1.409 . S
C1749 C1747 1.415 . S
C1750 H1740 0.930 . S
C1750 C1748 1.419 . S
C1750 C1751 1.362 . S
C1751 H1741 0.930 . S
C1751 C1744 1.409 . S
C1751 C1750 1.362 . S
H1752 C1758 0.930 . S
H1753 C1761 0.930 . S
H1754 C1762 0.930 . S
H1755 C1763 0.930 . S
H1756 C1766 0.930 . S
H1757 C1767 0.930 . S
C1758 H1752 0.930 . S
C1758 C1759 1.355 . S
C1758 C1760 1.415 . S
C1759 C1758 1.355 . S
C1759 C1761 1.419 . S
C1760 C1758 1.415 . S
C1760 C1765 1.425 . S
C1760 C1767 1.409 . S
C1761 H1753 0.930 . S
C1761 C1759 1.419 . S
C1761 C1762 1.362 . S
C1762 H1754 0.930 . S
C1762 C1761 1.362 . S
C1762 C1765 1.409 . S
C1763 H1755 0.930 . S
C1763 C1764 1.355 . S
C1763 C1765 1.415 . S
C1764 C1763 1.355 . S
C1764 C1766 1.419 . S
C1765 C1760 1.425 . S
C1765 C1762 1.409 . S
C1765 C1763 1.415 . S
C1766 H1756 0.930 . S
C1766 C1764 1.419 . S
C1766 C1767 1.362 . S
C1767 H1757 0.930 . S
C1767 C1760 1.409 . S
C1767 C1766 1.362 . S
H1768 C1774 0.930 . S
H1769 C1777 0.930 . S
H1770 C1778 0.930 . S
H1771 C1779 0.930 . S
H1772 C1782 0.930 . S
H1773 C1783 0.930 . S
C1774 H1768 0.930 . S
C1774 C1775 1.355 . S
C1774 C1776 1.415 . S
C1775 C1774 1.355 . S
C1775 C1777 1.419 . S
C1776 C1774 1.415 . S
C1776 C1781 1.425 . S
C1776 C1783 1.409 . S
C1777 H1769 0.930 . S
C1777 C1775 1.419 . S
C1777 C1778 1.362 . S
C1778 H1770 0.930 . S
C1778 C1777 1.362 . S
C1778 C1781 1.409 . S
C1779 H1771 0.930 . S
C1779 C1780 1.355 . S
C1779 C1781 1.415 . S
C1780 C1779 1.355 . S
C1780 C1782 1.419 . S
C1781 C1776 1.425 . S
C1781 C1778 1.409 . S
C1781 C1779 1.415 . S
C1782 H1772 0.930 . S
C1782 C1780 1.419 . S
C1782 C1783 1.362 . S
C1783 H1773 0.930 . S
C1783 C1776 1.409 . S
C1783 C1782 1.362 . S
H1784 C1790 0.930 . S
H1785 C1793 0.930 1_554 S
H1786 C1794 0.926 1_554 S
H1787 C1795 0.930 . S
H1788 C1798 0.930 . S
H1789 C1799 0.930 . S
C1790 H1784 0.930 . S
C1790 C1791 1.355 . S
C1790 C1792 1.415 . S
C1791 C1790 1.355 . S
C1791 C1793 1.419 . S
C1792 C1790 1.415 . S
C1792 C1797 1.425 . S
C1792 C1799 1.409 . S
C1793 H1785 0.930 1_556 S
C1793 C1791 1.419 . S
C1793 C1794 1.362 . S
C1794 H1786 0.926 1_556 S
C1794 C1793 1.362 . S
C1794 C1797 1.409 . S
C1795 H1787 0.930 . S
C1795 C1796 1.355 . S
C1795 C1797 1.415 . S
C1796 C1795 1.355 . S
C1796 C1798 1.419 . S
C1797 C1792 1.425 . S
C1797 C1794 1.409 . S
C1797 C1795 1.415 . S
C1798 H1788 0.930 . S
C1798 C1796 1.419 . S
C1798 C1799 1.362 . S
C1799 H1789 0.930 . S
C1799 C1792 1.409 . S
C1799 C1798 1.362 . S
H1800 C1806 0.930 . S
H1801 C1809 0.930 . S
H1802 C1810 0.930 . S
H1803 C1811 0.930 . S
H1804 C1814 0.930 . S
H1805 C1815 0.930 . S
C1806 H1800 0.930 . S
C1806 C1807 1.355 . S
C1806 C1808 1.415 . S
C1807 C1806 1.355 . S
C1807 C1809 1.419 . S
C1808 C1806 1.415 . S
C1808 C1813 1.425 . S
C1808 C1815 1.409 . S
C1809 H1801 0.930 . S
C1809 C1807 1.419 . S
C1809 C1810 1.362 . S
C1810 H1802 0.930 . S
C1810 C1809 1.362 . S
C1810 C1813 1.409 . S
C1811 H1803 0.930 . S
C1811 C1812 1.355 . S
C1811 C1813 1.415 . S
C1812 C1811 1.355 . S
C1812 C1814 1.419 . S
C1813 C1808 1.425 . S
C1813 C1810 1.409 . S
C1813 C1811 1.415 . S
C1814 H1804 0.930 . S
C1814 C1812 1.419 . S
C1814 C1815 1.362 . S
C1815 H1805 0.930 . S
C1815 C1808 1.409 . S
C1815 C1814 1.362 . S
H1816 C1822 0.930 . S
H1817 C1825 0.930 . S
H1818 C1826 0.930 . S
H1819 C1827 0.930 . S
H1820 C1830 0.930 . S
H1821 C1831 0.930 . S
C1822 H1816 0.930 . S
C1822 C1823 1.355 . S
C1822 C1824 1.415 . S
C1823 C1822 1.355 . S
C1823 C1825 1.419 . S
C1824 C1822 1.415 . S
C1824 C1829 1.425 . S
C1824 C1831 1.409 . S
C1825 H1817 0.930 . S
C1825 C1823 1.419 . S
C1825 C1826 1.362 . S
C1826 H1818 0.930 . S
C1826 C1825 1.362 . S
C1826 C1829 1.409 . S
C1827 H1819 0.930 . S
C1827 C1828 1.355 . S
C1827 C1829 1.415 . S
C1828 C1827 1.355 . S
C1828 C1830 1.419 . S
C1829 C1824 1.425 . S
C1829 C1826 1.409 . S
C1829 C1827 1.415 . S
C1830 H1820 0.930 . S
C1830 C1828 1.419 . S
C1830 C1831 1.362 . S
C1831 H1821 0.930 . S
C1831 C1824 1.409 . S
C1831 C1830 1.362 . S
H1832 C1838 0.930 . S
H1833 C1841 0.930 . S
H1834 C1842 0.930 . S
H1835 C1843 0.930 . S
H1836 C1846 0.930 . S
H1837 C1847 0.930 . S
C1838 H1832 0.930 . S
C1838 C1839 1.355 . S
C1838 C1840 1.415 . S
C1839 C1838 1.355 . S
C1839 C1841 1.419 . S
C1840 C1838 1.415 . S
C1840 C1845 1.425 . S
C1840 C1847 1.409 . S
C1841 H1833 0.930 . S
C1841 C1839 1.419 . S
C1841 C1842 1.362 . S
C1842 H1834 0.930 . S
C1842 C1841 1.362 . S
C1842 C1845 1.409 . S
C1843 H1835 0.930 . S
C1843 C1844 1.355 . S
C1843 C1845 1.415 . S
C1844 C1843 1.355 . S
C1844 C1846 1.419 . S
C1845 C1840 1.425 . S
C1845 C1842 1.409 . S
C1845 C1843 1.415 . S
C1846 H1836 0.930 . S
C1846 C1844 1.419 . S
C1846 C1847 1.362 . S
C1847 H1837 0.930 . S
C1847 C1840 1.409 . S
C1847 C1846 1.362 . S
H1848 C1854 0.930 . S
H1849 C1857 0.930 . S
H1850 C1858 0.930 . S
H1851 C1859 0.930 . S
H1852 C1862 0.930 . S
H1853 C1863 0.930 . S
C1854 H1848 0.930 . S
C1854 C1855 1.355 . S
C1854 C1856 1.415 . S
C1855 C1854 1.355 . S
C1855 C1857 1.419 . S
C1856 C1854 1.415 . S
C1856 C1861 1.425 . S
C1856 C1863 1.409 . S
C1857 H1849 0.930 . S
C1857 C1855 1.419 . S
C1857 C1858 1.362 . S
C1858 H1850 0.930 . S
C1858 C1857 1.362 . S
C1858 C1861 1.409 . S
C1859 H1851 0.930 . S
C1859 C1860 1.355 . S
C1859 C1861 1.415 . S
C1860 C1859 1.355 . S
C1860 C1862 1.419 . S
C1861 C1856 1.425 . S
C1861 C1858 1.409 . S
C1861 C1859 1.415 . S
C1862 H1852 0.930 . S
C1862 C1860 1.419 . S
C1862 C1863 1.362 . S
C1863 H1853 0.930 . S
C1863 C1856 1.409 . S
C1863 C1862 1.362 . S
H1864 C1870 0.930 . S
H1865 C1873 0.930 . S
H1866 C1874 0.930 . S
H1867 C1875 0.930 . S
H1868 C1878 0.930 . S
H1869 C1879 0.930 . S
C1870 H1864 0.930 . S
C1870 C1871 1.355 . S
C1870 C1872 1.415 . S
C1871 C1870 1.355 . S
C1871 C1873 1.419 . S
C1872 C1870 1.415 . S
C1872 C1877 1.425 . S
C1872 C1879 1.409 . S
C1873 H1865 0.930 . S
C1873 C1871 1.419 . S
C1873 C1874 1.362 . S
C1874 H1866 0.930 . S
C1874 C1873 1.362 . S
C1874 C1877 1.409 . S
C1875 H1867 0.930 . S
C1875 C1876 1.355 . S
C1875 C1877 1.415 . S
C1876 C1875 1.355 . S
C1876 C1878 1.419 . S
C1877 C1872 1.425 . S
C1877 C1874 1.409 . S
C1877 C1875 1.415 . S
C1878 H1868 0.930 . S
C1878 C1876 1.419 . S
C1878 C1879 1.362 . S
C1879 H1869 0.930 . S
C1879 C1872 1.409 . S
C1879 C1878 1.362 . S
H1880 C1886 0.930 . S
H1881 C1889 0.930 . S
H1882 C1890 0.930 . S
H1883 C1891 0.930 . S
H1884 C1894 0.930 . S
H1885 C1895 0.930 . S
C1886 H1880 0.930 . S
C1886 C1887 1.355 . S
C1886 C1888 1.415 . S
C1887 C1886 1.355 . S
C1887 C1889 1.419 . S
C1888 C1886 1.415 . S
C1888 C1893 1.425 . S
C1888 C1895 1.409 . S
C1889 H1881 0.930 . S
C1889 C1887 1.419 . S
C1889 C1890 1.362 . S
C1890 H1882 0.930 . S
C1890 C1889 1.362 . S
C1890 C1893 1.409 . S
C1891 H1883 0.930 . S
C1891 C1892 1.355 . S
C1891 C1893 1.415 . S
C1892 C1891 1.355 . S
C1892 C1894 1.419 . S
C1893 C1888 1.425 . S
C1893 C1890 1.409 . S
C1893 C1891 1.415 . S
C1894 H1884 0.930 . S
C1894 C1892 1.419 . S
C1894 C1895 1.362 . S
C1895 H1885 0.930 . S
C1895 C1888 1.409 . S
C1895 C1894 1.362 . S
H1896 C1902 0.930 . S
H1897 C1905 0.930 . S
H1898 C1906 0.930 . S
H1899 C1907 0.930 . S
H1900 C1910 0.930 . S
H1901 C1911 0.930 . S
C1902 H1896 0.930 . S
C1902 C1903 1.355 1_655 S
C1902 C1904 1.415 . S
C1903 C1902 1.355 1_455 S
C1903 C1905 1.419 . S
C1904 C1902 1.415 . S
C1904 C1909 1.425 1_655 S
C1904 C1911 1.409 . S
C1905 H1897 0.930 . S
C1905 C1903 1.419 . S
C1905 C1906 1.362 . S
C1906 H1898 0.930 . S
C1906 C1905 1.362 . S
C1906 C1909 1.409 . S
C1907 H1899 0.930 . S
C1907 C1908 1.355 . S
C1907 C1909 1.415 . S
C1908 C1907 1.355 . S
C1908 C1910 1.419 1_455 S
C1909 C1904 1.425 1_455 S
C1909 C1906 1.409 . S
C1909 C1907 1.415 . S
C1910 H1900 0.930 . S
C1910 C1908 1.419 1_655 S
C1910 C1911 1.362 . S
C1911 H1901 0.930 . S
C1911 C1904 1.409 . S
C1911 C1910 1.362 . S
H1912 C1918 0.930 . S
H1913 C1921 0.930 . S
H1914 C1922 0.930 . S
H1915 C1923 0.930 . S
H1916 C1926 0.930 . S
H1917 C1927 0.930 . S
C1918 H1912 0.930 . S
C1918 C1919 1.355 . S
C1918 C1920 1.415 . S
C1919 C1918 1.355 . S
C1919 C1921 1.419 . S
C1920 C1918 1.415 . S
C1920 C1925 1.425 . S
C1920 C1927 1.409 . S
C1921 H1913 0.930 . S
C1921 C1919 1.419 . S
C1921 C1922 1.362 . S
C1922 H1914 0.930 . S
C1922 C1921 1.362 . S
C1922 C1925 1.409 . S
C1923 H1915 0.930 . S
C1923 C1924 1.355 . S
C1923 C1925 1.415 . S
C1924 C1923 1.355 . S
C1924 C1926 1.419 . S
C1925 C1920 1.425 . S
C1925 C1922 1.409 . S
C1925 C1923 1.415 . S
C1926 H1916 0.930 . S
C1926 C1924 1.419 . S
C1926 C1927 1.362 . S
C1927 H1917 0.930 . S
C1927 C1920 1.409 . S
C1927 C1926 1.362 . S
H1928 C1934 0.930 . S
H1929 C1937 0.927 . S
H1930 C1938 0.926 1_545 S
H1931 C1939 0.943 . S
H1932 C1942 0.930 . S
H1933 C1943 0.930 . S
C1934 H1928 0.930 . S
C1934 C1935 1.355 . S
C1934 C1936 1.415 . S
C1935 C1934 1.355 . S
C1935 C1937 1.419 . S
C1936 C1934 1.415 . S
C1936 C1941 1.425 . S
C1936 C1943 1.409 . S
C1937 H1929 0.927 . S
C1937 C1935 1.419 . S
C1937 C1938 1.357 . S
C1938 H1930 0.926 1_565 S
C1938 C1937 1.357 . S
C1938 C1941 1.418 . S
C1939 H1931 0.943 . S
C1939 C1940 1.355 . S
C1939 C1941 1.415 . S
C1940 C1939 1.355 . S
C1940 C1942 1.419 . S
C1941 C1936 1.425 . S
C1941 C1938 1.418 . S
C1941 C1939 1.415 . S
C1942 H1932 0.930 . S
C1942 C1940 1.419 . S
C1942 C1943 1.362 . S
C1943 H1933 0.930 . S
C1943 C1936 1.409 . S
C1943 C1942 1.362 . S
H1944 C1950 0.930 . S
H1945 C1953 0.930 . S
H1946 C1954 0.930 . S
H1947 C1955 0.930 . S
H1948 C1958 0.930 . S
H1949 C1959 0.930 . S
C1950 H1944 0.930 . S
C1950 C1951 1.355 . S
C1950 C1952 1.415 . S
C1951 C1950 1.355 . S
C1951 C1953 1.419 1_565 S
C1952 C1950 1.415 . S
C1952 C1957 1.425 1_565 S
C1952 C1959 1.409 . S
C1953 H1945 0.930 . S
C1953 C1951 1.419 1_545 S
C1953 C1954 1.362 . S
C1954 H1946 0.930 . S
C1954 C1953 1.362 . S
C1954 C1957 1.409 . S
C1955 H1947 0.930 . S
C1955 C1956 1.355 1_545 S
C1955 C1957 1.415 . S
C1956 C1955 1.355 1_565 S
C1956 C1958 1.419 . S
C1957 C1952 1.425 1_545 S
C1957 C1954 1.409 . S
C1957 C1955 1.415 . S
C1958 H1948 0.930 . S
C1958 C1956 1.419 . S
C1958 C1959 1.362 . S
C1959 H1949 0.930 . S
C1959 C1952 1.409 . S
C1959 C1958 1.362 . S
H1960 C1966 0.930 . S
H1961 C1969 0.930 . S
H1962 C1970 0.930 . S
H1963 C1971 0.930 . S
H1964 C1974 0.930 . S
H1965 C1975 0.930 . S
C1966 H1960 0.930 . S
C1966 C1967 1.355 . S
C1966 C1968 1.415 . S
C1967 C1966 1.355 . S
C1967 C1969 1.419 1_455 S
C1968 C1966 1.415 . S
C1968 C1973 1.425 1_455 S
C1968 C1975 1.409 . S
C1969 H1961 0.930 . S
C1969 C1967 1.419 1_655 S
C1969 C1970 1.362 . S
C1970 H1962 0.930 . S
C1970 C1969 1.362 . S
C1970 C1973 1.409 . S
C1971 H1963 0.930 . S
C1971 C1972 1.355 1_655 S
C1971 C1973 1.415 . S
C1972 C1971 1.355 1_455 S
C1972 C1974 1.419 . S
C1973 C1968 1.425 1_655 S
C1973 C1970 1.409 . S
C1973 C1971 1.415 . S
C1974 H1964 0.930 . S
C1974 C1972 1.419 . S
C1974 C1975 1.362 . S
C1975 H1965 0.930 . S
C1975 C1968 1.409 . S
C1975 C1974 1.362 . S
H1976 C1982 0.930 . S
H1977 C1985 0.930 . S
H1978 C1986 0.930 . S
H1979 C1987 0.930 . S
H1980 C1990 0.930 . S
H1981 C1991 0.930 . S
C1982 H1976 0.930 . S
C1982 C1983 1.355 . S
C1982 C1984 1.415 . S
C1983 C1982 1.355 . S
C1983 C1985 1.419 . S
C1984 C1982 1.415 . S
C1984 C1989 1.425 . S
C1984 C1991 1.409 . S
C1985 H1977 0.930 . S
C1985 C1983 1.419 . S
C1985 C1986 1.362 . S
C1986 H1978 0.930 . S
C1986 C1985 1.362 . S
C1986 C1989 1.409 . S
C1987 H1979 0.930 . S
C1987 C1988 1.355 . S
C1987 C1989 1.415 . S
C1988 C1987 1.355 . S
C1988 C1990 1.419 . S
C1989 C1984 1.425 . S
C1989 C1986 1.409 . S
C1989 C1987 1.415 . S
C1990 H1980 0.930 . S
C1990 C1988 1.419 . S
C1990 C1991 1.362 . S
C1991 H1981 0.930 . S
C1991 C1984 1.409 . S
C1991 C1990 1.362 . S
H1992 C1998 0.930 . S
H1993 C2001 0.930 . S
H1994 C2002 0.930 . S
H1995 C2003 0.930 . S
H1996 C2006 0.930 . S
H1997 C2007 0.930 . S
C1998 H1992 0.930 . S
C1998 C1999 1.355 . S
C1998 C2000 1.415 . S
C1999 C1998 1.355 . S
C1999 C2001 1.419 . S
C2000 C1998 1.415 . S
C2000 C2005 1.425 . S
C2000 C2007 1.409 . S
C2001 H1993 0.930 . S
C2001 C1999 1.419 . S
C2001 C2002 1.362 . S
C2002 H1994 0.930 . S
C2002 C2001 1.362 . S
C2002 C2005 1.409 . S
C2003 H1995 0.930 . S
C2003 C2004 1.355 . S
C2003 C2005 1.415 . S
C2004 C2003 1.355 . S
C2004 C2006 1.419 . S
C2005 C2000 1.425 . S
C2005 C2002 1.409 . S
C2005 C2003 1.415 . S
C2006 H1996 0.930 . S
C2006 C2004 1.419 . S
C2006 C2007 1.362 . S
C2007 H1997 0.930 . S
C2007 C2000 1.409 . S
C2007 C2006 1.362 . S
H2008 C2014 0.930 . S
H2009 C2017 0.930 . S
H2010 C2018 0.930 . S
H2011 C2019 0.930 . S
H2012 C2022 0.930 . S
H2013 C2023 0.930 . S
C2014 H2008 0.930 . S
C2014 C2015 1.355 . S
C2014 C2016 1.415 . S
C2015 C2014 1.355 . S
C2015 C2017 1.419 . S
C2016 C2014 1.415 . S
C2016 C2021 1.425 . S
C2016 C2023 1.409 . S
C2017 H2009 0.930 . S
C2017 C2015 1.419 . S
C2017 C2018 1.362 . S
C2018 H2010 0.930 . S
C2018 C2017 1.362 . S
C2018 C2021 1.409 . S
C2019 H2011 0.930 . S
C2019 C2020 1.355 . S
C2019 C2021 1.415 . S
C2020 C2019 1.355 . S
C2020 C2022 1.419 . S
C2021 C2016 1.425 . S
C2021 C2018 1.409 . S
C2021 C2019 1.415 . S
C2022 H2012 0.930 . S
C2022 C2020 1.419 . S
C2022 C2023 1.362 . S
C2023 H2013 0.930 . S
C2023 C2016 1.409 . S
C2023 C2022 1.362 . S
H2024 C2030 0.930 . S
H2025 C2033 0.930 . S
H2026 C2034 0.930 . S
H2027 C2035 0.930 . S
H2028 C2038 0.930 . S
H2029 C2039 0.930 . S
C2030 H2024 0.930 . S
C2030 C2031 1.355 . S
C2030 C2032 1.415 . S
C2031 C2030 1.355 . S
C2031 C2033 1.419 . S
C2032 C2030 1.415 . S
C2032 C2037 1.425 . S
C2032 C2039 1.409 . S
C2033 H2025 0.930 . S
C2033 C2031 1.419 . S
C2033 C2034 1.362 . S
C2034 H2026 0.930 . S
C2034 C2033 1.362 . S
C2034 C2037 1.409 . S
C2035 H2027 0.930 . S
C2035 C2036 1.355 . S
C2035 C2037 1.415 . S
C2036 C2035 1.355 . S
C2036 C2038 1.419 . S
C2037 C2032 1.425 . S
C2037 C2034 1.409 . S
C2037 C2035 1.415 . S
C2038 H2028 0.930 . S
C2038 C2036 1.419 . S
C2038 C2039 1.362 . S
C2039 H2029 0.930 . S
C2039 C2032 1.409 . S
C2039 C2038 1.362 . S
H2040 C2046 0.930 . S
H2041 C2049 0.930 . S
H2042 C2050 0.926 1_565 S
H2043 C2051 0.930 . S
H2044 C2054 0.930 . S
H2045 C2055 0.930 . S
C2046 H2040 0.930 . S
C2046 C2047 1.355 . S
C2046 C2048 1.415 . S
C2047 C2046 1.355 . S
C2047 C2049 1.419 . S
C2048 C2046 1.415 . S
C2048 C2053 1.425 . S
C2048 C2055 1.409 . S
C2049 H2041 0.930 . S
C2049 C2047 1.419 . S
C2049 C2050 1.362 . S
C2050 H2042 0.926 1_545 S
C2050 C2049 1.362 . S
C2050 C2053 1.409 . S
C2051 H2043 0.930 . S
C2051 C2052 1.355 . S
C2051 C2053 1.415 . S
C2052 C2051 1.355 . S
C2052 C2054 1.419 . S
C2053 C2048 1.425 . S
C2053 C2050 1.409 . S
C2053 C2051 1.415 . S
C2054 H2044 0.930 . S
C2054 C2052 1.419 . S
C2054 C2055 1.362 . S
C2055 H2045 0.930 . S
C2055 C2048 1.409 . S
C2055 C2054 1.362 . S
H2056 C2062 0.930 . S
H2057 C2065 0.930 . S
H2058 C2066 0.930 . S
H2059 C2067 0.930 . S
H2060 C2070 0.930 . S
H2061 C2071 0.930 . S
C2062 H2056 0.930 . S
C2062 C2063 1.355 . S
C2062 C2064 1.415 . S
C2063 C2062 1.355 . S
C2063 C2065 1.419 1_655 S
C2064 C2062 1.415 . S
C2064 C2069 1.425 1_655 S
C2064 C2071 1.409 . S
C2065 H2057 0.930 . S
C2065 C2063 1.419 1_455 S
C2065 C2066 1.362 . S
C2066 H2058 0.930 . S
C2066 C2065 1.362 . S
C2066 C2069 1.409 . S
C2067 H2059 0.930 . S
C2067 C2068 1.355 1_455 S
C2067 C2069 1.415 . S
C2068 C2067 1.355 1_655 S
C2068 C2070 1.419 . S
C2069 C2064 1.425 1_455 S
C2069 C2066 1.409 . S
C2069 C2067 1.415 . S
C2070 H2060 0.930 . S
C2070 C2068 1.419 . S
C2070 C2071 1.362 . S
C2071 H2061 0.930 . S
C2071 C2064 1.409 . S
C2071 C2070 1.362 . S
H2072 C2078 0.930 . S
H2073 C2081 0.930 . S
H2074 C2082 0.930 . S
H2075 C2083 0.930 . S
H2076 C2086 0.930 . S
H2077 C2087 0.930 . S
C2078 H2072 0.930 . S
C2078 C2079 1.355 . S
C2078 C2080 1.415 . S
C2079 C2078 1.355 . S
C2079 C2081 1.419 . S
C2080 C2078 1.415 . S
C2080 C2085 1.425 . S
C2080 C2087 1.409 . S
C2081 H2073 0.930 . S
C2081 C2079 1.419 . S
C2081 C2082 1.362 . S
C2082 H2074 0.930 . S
C2082 C2081 1.362 . S
C2082 C2085 1.409 . S
C2083 H2075 0.930 . S
C2083 C2084 1.355 . S
C2083 C2085 1.415 . S
C2084 C2083 1.355 . S
C2084 C2086 1.419 . S
C2085 C2080 1.425 . S
C2085 C2082 1.409 . S
C2085 C2083 1.415 . S
C2086 H2076 0.930 . S
C2086 C2084 1.419 . S
C2086 C2087 1.362 . S
C2087 H2077 0.930 . S
C2087 C2080 1.409 . S
C2087 C2086 1.362 . S
H2088 C2094 0.930 . S
H2089 C2097 0.930 . S
H2090 C2098 0.930 . S
H2091 C2099 0.930 . S
H2092 C2102 0.930 . S
H2093 C2103 0.930 . S
C2094 H2088 0.930 . S
C2094 C2095 1.355 . S
C2094 C2096 1.415 . S
C2095 C2094 1.355 . S
C2095 C2097 1.419 . S
C2096 C2094 1.415 . S
C2096 C2101 1.425 . S
C2096 C2103 1.409 . S
C2097 H2089 0.930 . S
C2097 C2095 1.419 . S
C2097 C2098 1.362 . S
C2098 H2090 0.930 . S
C2098 C2097 1.362 . S
C2098 C2101 1.409 . S
C2099 H2091 0.930 . S
C2099 C2100 1.355 . S
C2099 C2101 1.415 . S
C2100 C2099 1.355 . S
C2100 C2102 1.419 . S
C2101 C2096 1.425 . S
C2101 C2098 1.409 . S
C2101 C2099 1.415 . S
C2102 H2092 0.930 . S
C2102 C2100 1.419 . S
C2102 C2103 1.362 . S
C2103 H2093 0.930 . S
C2103 C2096 1.409 . S
C2103 C2102 1.362 . S
H2104 C2110 0.930 . S
H2105 C2113 0.930 . S
H2106 C2114 0.930 . S
H2107 C2115 0.930 . S
H2108 C2118 0.930 . S
H2109 C2119 0.930 . S
C2110 H2104 0.930 . S
C2110 C2111 1.355 . S
C2110 C2112 1.415 . S
C2111 C2110 1.355 . S
C2111 C2113 1.419 . S
C2112 C2110 1.415 . S
C2112 C2117 1.425 . S
C2112 C2119 1.409 . S
C2113 H2105 0.930 . S
C2113 C2111 1.419 . S
C2113 C2114 1.362 . S
C2114 H2106 0.930 . S
C2114 C2113 1.362 . S
C2114 C2117 1.409 . S
C2115 H2107 0.930 . S
C2115 C2116 1.355 . S
C2115 C2117 1.415 . S
C2116 C2115 1.355 . S
C2116 C2118 1.419 . S
C2117 C2112 1.425 . S
C2117 C2114 1.409 . S
C2117 C2115 1.415 . S
C2118 H2108 0.930 . S
C2118 C2116 1.419 . S
C2118 C2119 1.362 . S
C2119 H2109 0.930 . S
C2119 C2112 1.409 . S
C2119 C2118 1.362 . S
H2120 C2126 0.930 . S
H2121 C2129 0.930 . S
H2122 C2130 0.930 . S
H2123 C2131 0.930 . S
H2124 C2134 0.930 . S
H2125 C2135 0.930 . S
C2126 H2120 0.930 . S
C2126 C2127 1.355 . S
C2126 C2128 1.415 . S
C2127 C2126 1.355 . S
C2127 C2129 1.419 . S
C2128 C2126 1.415 . S
C2128 C2133 1.425 . S
C2128 C2135 1.409 . S
C2129 H2121 0.930 . S
C2129 C2127 1.419 . S
C2129 C2130 1.362 . S
C2130 H2122 0.930 . S
C2130 C2129 1.362 . S
C2130 C2133 1.409 . S
C2131 H2123 0.930 . S
C2131 C2132 1.355 . S
C2131 C2133 1.415 . S
C2132 C2131 1.355 . S
C2132 C2134 1.419 . S
C2133 C2128 1.425 . S
C2133 C2130 1.409 . S
C2133 C2131 1.415 . S
C2134 H2124 0.930 . S
C2134 C2132 1.419 . S
C2134 C2135 1.362 . S
C2135 H2125 0.930 . S
C2135 C2128 1.409 . S
C2135 C2134 1.362 . S
H2136 C2142 0.930 . S
H2137 C2145 0.930 . S
H2138 C2146 0.930 . S
H2139 C2147 0.930 . S
H2140 C2150 0.930 . S
H2141 C2151 0.930 . S
C2142 H2136 0.930 . S
C2142 C2143 1.355 . S
C2142 C2144 1.415 . S
C2143 C2142 1.355 . S
C2143 C2145 1.419 . S
C2144 C2142 1.415 . S
C2144 C2149 1.425 . S
C2144 C2151 1.409 . S
C2145 H2137 0.930 . S
C2145 C2143 1.419 . S
C2145 C2146 1.362 . S
C2146 H2138 0.930 . S
C2146 C2145 1.362 . S
C2146 C2149 1.409 . S
C2147 H2139 0.930 . S
C2147 C2148 1.355 . S
C2147 C2149 1.415 . S
C2148 C2147 1.355 . S
C2148 C2150 1.419 . S
C2149 C2144 1.425 . S
C2149 C2146 1.409 . S
C2149 C2147 1.415 . S
C2150 H2140 0.930 . S
C2150 C2148 1.419 . S
C2150 C2151 1.362 . S
C2151 H2141 0.930 . S
C2151 C2144 1.409 . S
C2151 C2150 1.362 . S
H2152 C2158 0.930 . S
H2153 C2161 0.930 . S
H2154 C2162 0.930 . S
H2155 C2163 0.930 . S
H2156 C2166 0.930 . S
H2157 C2167 0.930 . S
C2158 H2152 0.930 . S
C2158 C2159 1.355 . S
C2158 C2160 1.415 . S
C2159 C2158 1.355 . S
C2159 C2161 1.419 . S
C2160 C2158 1.415 . S
C2160 C2165 1.425 . S
C2160 C2167 1.409 . S
C2161 H2153 0.930 . S
C2161 C2159 1.419 . S
C2161 C2162 1.362 . S
C2162 H2154 0.930 . S
C2162 C2161 1.362 . S
C2162 C2165 1.409 . S
C2163 H2155 0.930 . S
C2163 C2164 1.355 . S
C2163 C2165 1.415 . S
C2164 C2163 1.355 . S
C2164 C2166 1.419 . S
C2165 C2160 1.425 . S
C2165 C2162 1.409 . S
C2165 C2163 1.415 . S
C2166 H2156 0.930 . S
C2166 C2164 1.419 . S
C2166 C2167 1.362 . S
C2167 H2157 0.930 . S
C2167 C2160 1.409 . S
C2167 C2166 1.362 . S
H2168 C2174 0.930 . S
H2169 C2177 0.930 . S
H2170 C2178 0.930 . S
H2171 C2179 0.930 . S
H2172 C2182 0.930 . S
H2173 C2183 0.930 . S
C2174 H2168 0.930 . S
C2174 C2175 1.355 . S
C2174 C2176 1.415 . S
C2175 C2174 1.355 . S
C2175 C2177 1.419 . S
C2176 C2174 1.415 . S
C2176 C2181 1.425 . S
C2176 C2183 1.409 . S
C2177 H2169 0.930 . S
C2177 C2175 1.419 . S
C2177 C2178 1.362 . S
C2178 H2170 0.930 . S
C2178 C2177 1.362 . S
C2178 C2181 1.409 . S
C2179 H2171 0.930 . S
C2179 C2180 1.355 . S
C2179 C2181 1.415 . S
C2180 C2179 1.355 . S
C2180 C2182 1.419 . S
C2181 C2176 1.425 . S
C2181 C2178 1.409 . S
C2181 C2179 1.415 . S
C2182 H2172 0.930 . S
C2182 C2180 1.419 . S
C2182 C2183 1.362 . S
C2183 H2173 0.930 . S
C2183 C2176 1.409 . S
C2183 C2182 1.362 . S
H2184 C2190 0.930 . S
H2185 C2193 0.930 . S
H2186 C2194 0.930 . S
H2187 C2195 0.930 . S
H2188 C2198 0.930 . S
H2189 C2199 0.930 . S
C2190 H2184 0.930 . S
C2190 C2191 1.355 1_455 S
C2190 C2192 1.415 . S
C2191 C2190 1.355 1_655 S
C2191 C2193 1.419 . S
C2192 C2190 1.415 . S
C2192 C2197 1.425 1_455 S
C2192 C2199 1.409 . S
C2193 H2185 0.930 . S
C2193 C2191 1.419 . S
C2193 C2194 1.362 . S
C2194 H2186 0.930 . S
C2194 C2193 1.362 . S
C2194 C2197 1.409 . S
C2195 H2187 0.930 . S
C2195 C2196 1.355 . S
C2195 C2197 1.415 . S
C2196 C2195 1.355 . S
C2196 C2198 1.419 1_655 S
C2197 C2192 1.425 1_655 S
C2197 C2194 1.409 . S
C2197 C2195 1.415 . S
C2198 H2188 0.930 . S
C2198 C2196 1.419 1_455 S
C2198 C2199 1.362 . S
C2199 H2189 0.930 . S
C2199 C2192 1.409 . S
C2199 C2198 1.362 . S
H2200 C2206 0.930 . S
H2201 C2209 0.930 . S
H2202 C2210 0.930 . S
H2203 C2211 0.930 . S
H2204 C2214 0.930 . S
H2205 C2215 0.930 . S
C2206 H2200 0.930 . S
C2206 C2207 1.355 . S
C2206 C2208 1.415 . S
C2207 C2206 1.355 . S
C2207 C2209 1.419 . S
C2208 C2206 1.415 . S
C2208 C2213 1.425 . S
C2208 C2215 1.409 . S
C2209 H2201 0.930 . S
C2209 C2207 1.419 . S
C2209 C2210 1.362 . S
C2210 H2202 0.930 . S
C2210 C2209 1.362 . S
C2210 C2213 1.409 . S
C2211 H2203 0.930 . S
C2211 C2212 1.355 . S
C2211 C2213 1.415 . S
C2212 C2211 1.355 . S
C2212 C2214 1.419 . S
C2213 C2208 1.425 . S
C2213 C2210 1.409 . S
C2213 C2211 1.415 . S
C2214 H2204 0.930 . S
C2214 C2212 1.419 . S
C2214 C2215 1.362 . S
C2215 H2205 0.930 . S
C2215 C2208 1.409 . S
C2215 C2214 1.362 . S
H2216 C2222 0.943 . S
H2217 C2225 0.930 . S
H2218 C2226 0.930 . S
H2219 C2227 0.930 . S
H2220 C2230 0.936 . S
H2221 C2231 0.938 . S
C2222 H2216 0.943 . S
C2222 C2223 1.355 . S
C2222 C2224 1.415 . S
C2223 C2222 1.355 . S
C2223 C2225 1.419 . S
C2224 C2222 1.415 . S
C2224 C2229 1.425 . S
C2224 C2231 1.408 1_545 S
C2225 H2217 0.930 . S
C2225 C2223 1.419 . S
C2225 C2226 1.362 . S
C2226 H2218 0.930 . S
C2226 C2225 1.362 . S
C2226 C2229 1.409 . S
C2227 H2219 0.930 . S
C2227 C2228 1.355 . S
C2227 C2229 1.415 . S
C2228 C2227 1.355 . S
C2228 C2230 1.395 1_545 S
C2229 C2224 1.425 . S
C2229 C2226 1.409 . S
C2229 C2227 1.415 . S
C2230 H2220 0.936 . S
C2230 C2228 1.395 1_565 S
C2230 C2231 1.376 . S
C2231 H2221 0.938 . S
C2231 C2224 1.408 1_565 S
C2231 C2230 1.376 . S
C1087 C7 1.417 . S
C1092 C688 1.480 . S
C1103 C23 1.612 . S
C1108 C734 1.573 . S
C1124 C766 1.473 . S
C1119 C37 1.439 . S
C1135 C35 1.419 . S
C1140 C819 1.468 . S
C1151 C9 1.417 . S
C1156 C865 1.489 . S
C1167 C21 1.607 . S
C1172 C904 1.616 . S
C1183 C49 1.454 . S
C1188 C858 1.449 . S
C1204 C911 1.589 . S
C1199 C65 1.605 . S
C1220 C812 1.495 . S
C1215 C79 1.413 . S
C1231 C77 1.413 . S
C1236 C773 1.447 . S
C1252 C667 1.494 . S
C1247 C51 1.415 . S
C1263 C63 1.585 . S
C1268 C713 1.579 . S
C1279 C91 1.677 . S
C1284 C943 1.690 . S
C1295 C107 1.675 . S
C1300 C1010 1.644 . S
C1316 C1056 1.620 . S
C1311 C121 1.675 . S
C1327 C119 1.593 . S
C1332 C267 1.589 . S
C1343 C93 1.671 . S
C1348 C313 1.650 . S
C1359 C105 1.653 . S
C1364 C359 1.647 . S
C1375 C133 1.539 . S
C1380 C306 1.547 . S
C1391 C149 1.641 . S
C1396 C352 1.646 . S
C1412 C260 1.623 . S
C1407 C163 1.678 . S
C1428 C1035 1.700 . S
C1423 C161 1.662 . S
C1444 C964 1.644 . S
C1439 C135 1.664 . S
C1460 C989 1.644 . S
C1455 C147 1.617 . S
C1471 C175 1.591 . S
C1476 C391 1.601 . S
C1487 C191 1.654 . S
C1492 C444 1.614 . S
C1503 C205 1.674 . S
C1508 C490 1.650 . S
C1519 C203 1.690 . S
C1524 C536 1.735 . S
C1540 C589 1.630 . S
C1535 C177 1.680 . S
C1556 C635 1.682 . S
C1551 C189 1.680 . S
C1572 C582 1.648 . S
C1567 C217 1.640 . S
C1588 C628 1.667 . S
C1583 C233 1.676 . S
C1599 C247 1.665 . S
C1604 C543 1.653 . S
C1620 C497 1.646 . S
C1615 C245 1.612 . S
C1631 C219 1.680 . S
C1636 C412 1.639 . S
C1652 C451 1.638 . S
C1647 C231 1.599 . S
C1668 C274 1.629 . S
C1663 C8 1.647 . S
C1679 C17 1.533 . S
C1684 C320 1.520 . S
C1700 C366 1.644 . S
C1695 C31 1.629 . S
C1716 C398 1.633 . S
C1711 C36 1.661 . S
C1732 C437 1.571 . S
C1727 C3 1.602 . S
C1748 C483 1.511 . S
C1743 C22 1.558 . S
C1759 C50 1.653 . S
C1764 C504 1.644 . S
C1775 C59 1.529 . S
C1780 C405 1.506 . S
C1791 C73 1.618 . S
C1796 C458 1.579 . S
C1807 C78 1.677 . S
C1812 C299 1.669 . S
C1828 C345 1.634 . S
C1823 C45 1.625 . S
C1839 C64 1.565 . S
C1844 C253 1.547 . S
C1860 C529 1.581 . S
C1855 C92 1.602 . S
C1871 C101 1.682 . S
C1876 C596 1.669 . S
C1887 C115 1.691 . S
C1892 C642 1.680 . S
C1908 C681 1.439 . S
C1903 C120 1.428 . S
C1919 C87 1.582 . S
C1924 C727 1.560 . S
C1935 C106 1.406 . S
C1940 C759 1.408 . S
C1951 C134 1.428 . S
C1956 C780 1.417 . S
C1967 C143 1.422 . S
C1972 C674 1.414 . S
C1988 C720 1.576 . S
C1983 C157 1.595 . S
C1999 C162 1.607 . S
C2004 C575 1.577 . S
C2015 C129 1.670 . S
C2020 C621 1.632 . S
C2036 C550 1.663 . S
C2031 C148 1.681 . S
C2052 C826 1.433 . S
C2047 C176 1.428 . S
C2063 C185 1.418 . S
C2068 C872 1.422 . S
C2079 C199 1.595 . S
C2084 C897 1.556 . S
C2100 C950 1.577 . S
C2095 C204 1.608 . S
C2116 C1003 1.651 . S
C2111 C171 1.682 . S
C2127 C190 1.668 . S
C2132 C1049 1.632 . S
C2143 C218 1.595 . S
C2148 C1042 1.569 . S
C2159 C227 1.674 . S
C2164 C957 1.636 . S
C2180 C996 1.634 . S
C2175 C241 1.660 . S
C2196 C851 1.424 . S
C2191 C246 1.415 . S
C2212 C918 1.557 . S
C2207 C213 1.585 . S
C2223 C232 1.397 . S
C2228 C805 1.392 . S
