# Generated by pormake.
# Topology zzz, (3,6)-cn, num edge types: 1
# Building blocks:
#     Node 0, Type 0, BuildingBlock: VETTIZ_charged_linker_0, # of connection points: 3
#     Node 1, Type 0, BuildingBlock: VETTIZ_charged_linker_0, # of connection points: 3
#     Node 2, Type 0, BuildingBlock: VETTIZ_charged_linker_0, # of connection points: 3
#     Node 3, Type 0, BuildingBlock: VETTIZ_charged_linker_0, # of connection points: 3
#     Node 4, Type 0, BuildingBlock: VETTIZ_charged_linker_0, # of connection points: 3
#     Node 5, Type 0, BuildingBlock: VETTIZ_charged_linker_0, # of connection points: 3
#     Node 6, Type 0, BuildingBlock: VETTIZ_charged_linker_0, # of connection points: 3
#     Node 7, Type 0, BuildingBlock: VETTIZ_charged_linker_0, # of connection points: 3
#     Node 8, Type 1, BuildingBlock: JUFBIX_clean_sbu_0, # of connection points: 6
#     Node 9, Type 1, BuildingBlock: JUFBIX_clean_sbu_0, # of connection points: 6
#     Node 10, Type 1, BuildingBlock: JUFBIX_clean_sbu_0, # of connection points: 6
#     Node 11, Type 1, BuildingBlock: JUFBIX_clean_sbu_0, # of connection points: 6
#     Edge 12, Type (0, 1), BuildingBlock: CIFDUS_clean_linker_0, # of connection points: 2
#     Edge 13, Type (0, 1), BuildingBlock: CIFDUS_clean_linker_0, # of connection points: 2
#     Edge 14, Type (0, 1), BuildingBlock: CIFDUS_clean_linker_0, # of connection points: 2
#     Edge 15, Type (0, 1), BuildingBlock: CIFDUS_clean_linker_0, # of connection points: 2
#     Edge 16, Type (0, 1), BuildingBlock: CIFDUS_clean_linker_0, # of connection points: 2
#     Edge 17, Type (0, 1), BuildingBlock: CIFDUS_clean_linker_0, # of connection points: 2
#     Edge 18, Type (0, 1), BuildingBlock: CIFDUS_clean_linker_0, # of connection points: 2
#     Edge 19, Type (0, 1), BuildingBlock: CIFDUS_clean_linker_0, # of connection points: 2
#     Edge 20, Type (0, 1), BuildingBlock: CIFDUS_clean_linker_0, # of connection points: 2
#     Edge 21, Type (0, 1), BuildingBlock: CIFDUS_clean_linker_0, # of connection points: 2
#     Edge 22, Type (0, 1), BuildingBlock: CIFDUS_clean_linker_0, # of connection points: 2
#     Edge 23, Type (0, 1), BuildingBlock: CIFDUS_clean_linker_0, # of connection points: 2
#     Edge 24, Type (0, 1), BuildingBlock: CIFDUS_clean_linker_0, # of connection points: 2
#     Edge 25, Type (0, 1), BuildingBlock: CIFDUS_clean_linker_0, # of connection points: 2
#     Edge 26, Type (0, 1), BuildingBlock: CIFDUS_clean_linker_0, # of connection points: 2
#     Edge 27, Type (0, 1), BuildingBlock: CIFDUS_clean_linker_0, # of connection points: 2
#     Edge 28, Type (0, 1), BuildingBlock: CIFDUS_clean_linker_0, # of connection points: 2
#     Edge 29, Type (0, 1), BuildingBlock: CIFDUS_clean_linker_0, # of connection points: 2
#     Edge 30, Type (0, 1), BuildingBlock: CIFDUS_clean_linker_0, # of connection points: 2
#     Edge 31, Type (0, 1), BuildingBlock: CIFDUS_clean_linker_0, # of connection points: 2
#     Edge 32, Type (0, 1), BuildingBlock: CIFDUS_clean_linker_0, # of connection points: 2
#     Edge 33, Type (0, 1), BuildingBlock: CIFDUS_clean_linker_0, # of connection points: 2
#     Edge 34, Type (0, 1), BuildingBlock: CIFDUS_clean_linker_0, # of connection points: 2
#     Edge 35, Type (0, 1), BuildingBlock: CIFDUS_clean_linker_0, # of connection points: 2
# Relax obj value: 0.294
# Max RMSD: 0.231
# Mean RMSD: 0.190
data_MOF--net-zzz--node1-JUFBIX_clean_sbu_0--node2-VETTIZ_charged_linker_0--edge1-CIFDUS_clean_linker_0
_symmetry_space_group_name_H-M    P1
_symmetry_Int_Tables_number       1
_symmetry_cell_setting            triclinic
loop_
_symmetry_equiv_pos_as_xyz
'x, y, z'
_cell_length_a     51.390007
_cell_length_b     52.234831
_cell_length_c     20.33009
_cell_angle_alpha  82.177088
_cell_angle_beta   90.029636
_cell_angle_gamma 86.355492
loop_
_atom_site_label
_atom_site_type_symbol
_atom_site_fract_x
_atom_site_fract_y
_atom_site_fract_z
_atom_type_partial_charge
C0 C 0.82092 0.5744 0.44765 0.0
C1 C 0.84254 0.58787 0.46642 0.0
C2 C 0.84539 0.61324 0.43344 0.0
C3 C 0.81392 0.60659 0.35199 0.0
C4 C 0.80602 0.58504 0.39066 0.0
C5 C 0.7811 0.57657 0.36112 0.0
H6 H 0.70378 0.59176 0.07826 0.0
C7 C 0.80017 0.61019 0.28934 0.0
C8 C 0.77901 0.59447 0.29421 0.0
H9 H 0.68769 0.54412 0.26258 0.0
H10 H 0.72684 0.55818 0.3125 0.0
H11 H 0.72709 0.64205 0.12901 0.0
H12 H 0.75166 0.57272 0.06245 0.0
H13 H 0.78296 0.58264 0.07781 0.0
H14 H 0.76147 0.6014 0.01601 0.0
H15 H 0.72656 0.63219 0.04759 0.0
H16 H 0.75423 0.64728 0.07598 0.0
C17 C 0.75839 0.58227 0.40751 0.0
C18 C 0.7846 0.54781 0.35179 0.0
C19 C 0.85769 0.61378 0.09186 0.0
C20 C 0.85169 0.61227 0.02524 0.0
C21 C 0.82657 0.62066 1.00038 0.0
C22 C 0.80674 0.62679 0.04398 0.0
C23 C 0.81213 0.62341 0.11232 0.0
C24 C 0.83757 0.61955 0.13479 0.0
C25 C 0.83953 0.61847 0.20885 0.0
C26 C 0.81055 0.61901 0.22686 0.0
C27 C 0.79492 0.61995 0.17017 0.0
C28 C 0.85325 0.64243 0.22453 0.0
C29 C 0.85467 0.59295 0.23889 0.0
C30 C 0.70834 0.58433 0.12962 0.0
C31 C 0.69257 0.56671 0.16603 0.0
C32 C 0.69936 0.55791 0.23321 0.0
C33 C 0.722 0.56607 0.26217 0.0
C34 C 0.73799 0.58306 0.22346 0.0
C35 C 0.73101 0.59147 0.15798 0.0
C36 C 0.75134 0.60644 0.1202 0.0
C37 C 0.77061 0.60836 0.17547 0.0
C38 C 0.76296 0.5946 0.23647 0.0
C39 C 0.7392 0.63346 0.09123 0.0
C40 C 0.76254 0.59018 0.06645 0.0
H41 H 0.83353 0.64187 0.35094 0.0
H42 H 0.8164 0.5559 0.47433 0.0
H43 H 0.80233 0.54429 0.32213 0.0
H44 H 0.76781 0.54163 0.32533 0.0
H45 H 0.78676 0.53536 0.40057 0.0
H46 H 0.75855 0.60241 0.41948 0.0
H47 H 0.7601 0.56884 0.45489 0.0
H48 H 0.73919 0.58056 0.38501 0.0
H49 H 0.87733 0.60873 0.11066 0.0
H50 H 0.82185 0.62068 0.94844 0.0
H51 H 0.78768 0.63279 0.02394 0.0
H52 H 0.86914 0.64721 0.18873 0.0
H53 H 0.8629 0.63891 0.27389 0.0
H54 H 0.83928 0.65969 0.22201 0.0
H55 H 0.84468 0.57589 0.22674 0.0
H56 H 0.85659 0.59139 0.2935 0.0
H57 H 0.87488 0.59182 0.21981 0.0
H58 H 0.8592 0.6257 0.45066 0.0
C59 C 0.83118 0.62258 0.37589 0.0
C60 C 0.97779 0.84799 0.0565 0.0
C61 C 0.95818 0.86766 0.06084 0.0
C62 C 0.93784 0.86327 0.10669 0.0
C63 C 0.96181 0.82446 0.15663 0.0
C64 C 0.97918 0.8264 0.10504 0.0
C65 C 0.99988 0.80455 0.11239 0.0
H66 H 0.00853 0.68474 0.24957 0.0
C67 C 0.97205 0.80411 0.20809 0.0
C68 C 0.99377 0.79153 0.18186 0.0
H69 H 0.04411 0.72023 0.06869 0.0
H70 H 0.04043 0.76146 0.10902 0.0
H71 H 0.04015 0.7337 0.35484 0.0
H72 H 0.96179 0.7311 0.27496 0.0
H73 H 0.96649 0.73161 0.36261 0.0
H74 H 0.97625 0.70295 0.32653 0.0
H75 H 0.02419 0.7037 0.36889 0.0
H76 H 0.01262 0.73055 0.40989 0.0
C77 C 0.02705 0.81576 0.11012 0.0
C78 C 0.99559 0.78739 0.05708 0.0
C79 C 0.96423 0.82533 0.43866 0.0
C80 C 0.98382 0.82231 0.4875 0.0
C81 C 0.00417 0.80284 0.48455 0.0
C82 C 0.00451 0.78671 0.43342 0.0
C83 C 0.98484 0.79075 0.38418 0.0
C84 C 0.96623 0.81106 0.38525 0.0
C85 C 0.9529 0.81881 0.31902 0.0
C86 C 0.96803 0.80078 0.27748 0.0
C87 C 0.98396 0.78214 0.3177 0.0
C88 C 0.95607 0.84815 0.29509 0.0
C89 C 0.92412 0.81222 0.32623 0.0
C90 C 0.01545 0.70139 0.21853 0.0
C91 C 0.0258 0.69893 0.15427 0.0
C92 C 0.03562 0.72106 0.11712 0.0
C93 C 0.03271 0.74521 0.13884 0.0
C94 C 0.01938 0.74768 0.19741 0.0
C95 C 0.01341 0.7262 0.2403 0.0
C96 C 0.00234 0.73464 0.3044 0.0
C97 C 1.00091 0.76436 0.2881 0.0
C98 C 0.00787 0.77087 0.22151 0.0
C99 C 0.02096 0.72514 0.36296 0.0
C100 C 0.9751 0.72446 0.31787 0.0
H101 H 0.92374 0.838 0.1887 0.0
H102 H 0.99273 0.85028 0.01894 0.0
H103 H 0.98606 0.76944 0.07675 0.0
H104 H 0.01406 0.78208 0.03272 0.0
H105 H 0.9829 0.79754 0.01606 0.0
H106 H 0.02756 0.83151 0.14174 0.0
H107 H 0.032 0.82382 0.05856 0.0
H108 H 0.0426 0.80099 0.12914 0.0
H109 H 0.94892 0.84061 0.4384 0.0
H110 H 0.0199 0.80049 0.52072 0.0
H111 H 0.02077 0.77279 0.43009 0.0
H112 H 0.97328 0.85108 0.26256 0.0
H113 H 0.95898 0.85971 0.33597 0.0
H114 H 0.93838 0.85773 0.26922 0.0
H115 H 0.92257 0.79221 0.35221 0.0
H116 H 0.91432 0.81306 0.27754 0.0
H117 H 0.91326 0.82585 0.35542 0.0
H118 H 0.92188 0.87769 0.10896 0.0
C119 C 0.9393 0.84108 0.15392 0.0
C120 C 0.81701 0.99833 0.12642 0.0
C121 C 0.8299 0.98784 0.07302 0.0
C122 C 0.82311 0.96338 0.05848 0.0
C123 C 0.7871 0.96438 0.13285 0.0
C124 C 0.79575 0.98557 0.15713 0.0
C125 C 0.77941 0.99133 0.21684 0.0
H126 H 0.67047 0.95868 0.40169 0.0
C127 C 0.76325 0.95698 0.16548 0.0
C128 C 0.759 0.97086 0.2191 0.0
H129 H 0.72093 0.01883 0.43277 0.0
H130 H 0.74916 1.00701 0.34311 0.0
H131 H 0.67166 0.96692 0.20398 0.0
H132 H 0.71221 0.91293 0.35711 0.0
H133 H 0.69522 0.90384 0.28877 0.0
H134 H 0.67712 0.9161 0.35494 0.0
H135 H 0.65952 0.97288 0.28179 0.0
H136 H 0.65476 0.94261 0.25686 0.0
C137 C 0.76683 0.01909 0.20239 0.0
C138 C 0.7971 0.98706 0.27904 0.0
C139 C 0.68845 0.94374 0.02183 0.0
C140 C 0.66237 0.9399 0.03916 0.0
C141 C 0.65685 0.92694 0.10257 0.0
C142 C 0.67646 0.92199 0.15121 0.0
C143 C 0.701 0.93133 0.13659 0.0
C144 C 0.70764 0.93919 0.07168 0.0
C145 C 0.73563 0.94591 0.06595 0.0
C146 C 0.74292 0.94441 0.13965 0.0
C147 C 0.7216 0.93809 0.17997 0.0
C148 C 0.73739 0.97354 0.0281 0.0
C149 C 0.75074 0.92549 0.02992 0.0
C150 C 0.68814 0.96872 0.39114 0.0
C151 C 0.69388 0.98907 0.42568 0.0
C152 C 0.7163 1.00269 0.40754 0.0
C153 C 0.73255 0.99592 0.35544 0.0
C154 C 0.7257 0.97605 0.31955 0.0
C155 C 0.70342 0.96328 0.33735 0.0
C156 C 0.69579 0.94619 0.28821 0.0
C157 C 0.71855 0.94864 0.24067 0.0
C158 C 0.73637 0.96606 0.25904 0.0
C159 C 0.66921 0.95753 0.2558 0.0
C160 C 0.69489 0.91821 0.32404 0.0
H161 H 0.79784 0.93229 0.07998 0.0
H162 H 0.82275 0.01612 0.14227 0.0
H163 H 0.80812 0.96788 0.28292 0.0
H164 H 0.78593 0.98727 0.32526 0.0
H165 H 0.81142 1.00222 0.27658 0.0
H166 H 0.75669 0.02204 0.15333 0.0
H167 H 0.78188 0.03351 0.20135 0.0
H168 H 0.75214 0.02326 0.23965 0.0
H169 H 0.69327 0.9527 0.97258 0.0
H170 H 0.63707 0.92248 0.11583 0.0
H171 H 0.67169 0.91262 0.19959 0.0
H172 H 0.72567 0.98794 0.05322 0.0
H173 H 0.73024 0.97473 0.97618 0.0
H174 H 0.75778 0.97927 0.02492 0.0
H175 H 0.73855 0.9193 0.99044 0.0
H176 H 0.75693 0.90795 0.06509 0.0
H177 H 0.76798 0.93343 1.00372 0.0
H178 H 0.8341 0.95348 0.02295 0.0
C179 C 0.80197 0.95146 0.0891 0.0
C180 C 0.50391 0.70827 0.4235 0.0
C181 C 0.50225 0.68129 0.44438 0.0
C182 C 0.49498 0.66548 0.39804 0.0
C183 C 0.49076 0.70226 0.31185 0.0
C184 C 0.4983 0.71836 0.35594 0.0
C185 C 0.4993 0.74614 0.32097 0.0
H186 H 0.48214 0.82717 0.02235 0.0
C187 C 0.48573 0.71766 0.24633 0.0
C188 C 0.49075 0.74363 0.2497 0.0
H189 H 0.50726 0.85017 0.20712 0.0
H190 H 0.50372 0.80592 0.26249 0.0
H191 H 0.51751 0.77632 0.03282 0.0
H192 H 0.43756 0.79298 0.08248 0.0
H193 H 0.43831 0.76448 0.04547 0.0
H194 H 0.44854 0.79389 0.99847 0.0
H195 H 0.49222 0.78303 0.97092 0.0
H196 H 0.50058 0.75058 0.01115 0.0
C197 C 0.52756 0.75418 0.3237 0.0
C198 C 0.47983 0.76385 0.35433 0.0
C199 C 0.45983 0.66942 0.06015 0.0
C200 C 0.45689 0.67645 0.99143 0.0
C201 C 0.45678 0.70283 0.96484 0.0
C202 C 0.46094 0.72168 1.00612 0.0
C203 C 0.46567 0.71397 0.07445 0.0
C204 C 0.46451 0.68827 0.10016 0.0
C205 C 0.4716 0.68297 0.17226 0.0
C206 C 0.47727 0.70983 0.18629 0.0
C207 C 0.47385 0.72785 0.12916 0.0
C208 C 0.49647 0.66409 0.17972 0.0
C209 C 0.44725 0.67281 0.21018 0.0
C210 C 0.48743 0.82289 0.07445 0.0
C211 C 0.49545 0.84236 0.1095 0.0
C212 C 0.50111 0.83563 0.17829 0.0
C213 C 0.49918 0.80992 0.21041 0.0
C214 C 0.49143 0.79065 0.17362 0.0
C215 C 0.48562 0.79768 0.10674 0.0
C216 C 0.47755 0.77562 0.07365 0.0
C217 C 0.47927 0.75395 0.13096 0.0
C218 C 0.48756 0.76228 0.19051 0.0
C219 C 0.49777 0.77109 0.01892 0.0
C220 C 0.44909 0.78195 0.04809 0.0
H221 H 0.4834 0.66218 0.30147 0.0
H222 H 0.50935 0.72093 0.45844 0.0
H223 H 0.46035 0.75566 0.35806 0.0
H224 H 0.4771 0.78339 0.32586 0.0
H225 H 0.48654 0.76579 0.40528 0.0
H226 H 0.54126 0.73929 0.30598 0.0
H227 H 0.53322 0.75625 0.37538 0.0
H228 H 0.53041 0.77261 0.29186 0.0
H229 H 0.46077 0.64927 0.08211 0.0
H230 H 0.45452 0.70871 0.91185 0.0
H231 H 0.46132 0.74135 0.98275 0.0
H232 H 0.50817 0.66565 0.13344 0.0
H233 H 0.49137 0.64363 0.19126 0.0
H234 H 0.51025 0.66843 0.21794 0.0
H235 H 0.42887 0.68145 0.18508 0.0
H236 H 0.44581 0.67821 0.26085 0.0
H237 H 0.44694 0.65145 0.21297 0.0
H238 H 0.4933 0.64491 0.41294 0.0
C239 C 0.48911 0.6757 0.33281 0.0
C240 C 0.29761 0.4753 0.36157 0.0
C241 C 0.31297 0.46552 0.4189 0.0
C242 C 0.3048 0.4437 0.4609 0.0
C243 C 0.26473 0.44593 0.3995 0.0
C244 C 0.27362 0.46443 0.3519 0.0
C245 C 0.25442 0.46978 0.29364 0.0
H246 H 0.13661 0.439 0.17372 0.0
C247 C 0.2386 0.44022 0.3825 0.0
C248 C 0.2325 0.4522 0.31803 0.0
H249 H 0.18727 0.49516 0.07562 0.0
H250 H 0.2185 0.48452 0.1663 0.0
H251 H 0.17661 0.39465 0.25382 0.0
H252 H 0.13112 0.46095 0.28092 0.0
H253 H 0.14554 0.45593 0.36054 0.0
H254 H 0.12488 0.43242 0.33345 0.0
H255 H 0.1419 0.40064 0.26079 0.0
H256 H 0.16194 0.39009 0.33329 0.0
C257 C 0.26793 0.46147 0.23161 0.0
C258 C 0.24504 0.49866 0.28495 0.0
C259 C 0.17183 0.43574 0.56083 0.0
C260 C 0.14484 0.43352 0.55645 0.0
C261 C 0.13467 0.42128 0.5054 0.0
C262 C 0.15084 0.41448 0.45439 0.0
C263 C 0.17667 0.42154 0.45302 0.0
C264 C 0.18754 0.42954 0.50821 0.0
C265 C 0.21604 0.43376 0.499 0.0
C266 C 0.219 0.43046 0.42547 0.0
C267 C 0.19523 0.42524 0.39822 0.0
C268 C 0.23179 0.41293 0.547 0.0
C269 C 0.22158 0.46143 0.51196 0.0
C270 C 0.15412 0.44949 0.17079 0.0
C271 C 0.1588 0.46824 0.11645 0.0
C272 C 0.18277 0.48039 0.11586 0.0
C273 C 0.20093 0.47439 0.16898 0.0
C274 C 0.19482 0.45672 0.22451 0.0
C275 C 0.17131 0.44523 0.22493 0.0
C276 C 0.16493 0.43117 0.29153 0.0
C277 C 0.1898 0.43367 0.32982 0.0
C278 C 0.20766 0.44836 0.2903 0.0
C279 C 0.16099 0.40256 0.28469 0.0
C280 C 0.1405 0.44566 0.31839 0.0
H281 H 0.27591 0.41596 0.47997 0.0
H282 H 0.30393 0.49105 0.32623 0.0
H283 H 0.23867 0.50448 0.33337 0.0
H284 H 0.22821 0.50305 0.25072 0.0
H285 H 0.26099 0.51096 0.26581 0.0
H286 H 0.27716 0.44151 0.24298 0.0
H287 H 0.28342 0.47468 0.21451 0.0
H288 H 0.25417 0.46124 0.19012 0.0
H289 H 0.17999 0.44436 0.60107 0.0
H290 H 0.114 0.41848 0.50294 0.0
H291 H 0.14262 0.40523 0.41601 0.0
H292 H 0.22111 0.40777 0.59403 0.0
H293 H 0.25037 0.42004 0.5626 0.0
H294 H 0.23576 0.39489 0.52435 0.0
H295 H 0.20939 0.47617 0.47879 0.0
H296 H 0.24232 0.46533 0.50334 0.0
H297 H 0.21746 0.4641 0.56427 0.0
H298 H 0.31623 0.43501 0.50385 0.0
C299 C 0.28103 0.43349 0.45012 0.0
C300 C 0.05669 0.19556 0.498 0.0
C301 C 0.06117 0.17095 0.4774 0.0
C302 C 0.07512 0.16908 0.41824 0.0
C303 C 0.06917 0.21529 0.38963 0.0
C304 C 0.06065 0.21765 0.45276 0.0
C305 C 0.05259 0.24531 0.46001 0.0
H306 H 0.98475 0.35125 0.35357 0.0
C307 C 0.06115 0.23928 0.34618 0.0
C308 C 0.05374 0.25783 0.38729 0.0
H309 H 0.04468 0.34214 0.50638 0.0
H310 H 0.0643 0.30472 0.45999 0.0
H311 H 0.03079 0.33259 0.23273 0.0
H312 H 0.97514 0.28547 0.34674 0.0
H313 H 0.97362 0.28548 0.25932 0.0
H314 H 0.96412 0.31456 0.29356 0.0
H315 H 0.99652 0.34236 0.22906 0.0
H316 H 0.00919 0.3168 0.18505 0.0
C317 C 0.0725 0.25503 0.50631 0.0
C318 C 0.02464 0.24732 0.48787 0.0
C319 C 0.0304 0.22323 0.12062 0.0
C320 C 0.00846 0.2321 0.08147 0.0
C321 C 0.99368 0.25432 0.09692 0.0
C322 C 1.00074 0.26702 0.15123 0.0
C323 C 0.02199 0.25664 0.19245 0.0
C324 C 0.03591 0.23468 0.17693 0.0
C325 C 0.05382 0.2223 0.23166 0.0
C326 C 0.05044 0.24166 0.28088 0.0
C327 C 0.03199 0.26225 0.25789 0.0
C328 C 0.08194 0.22109 0.20484 0.0
C329 C 0.04387 0.19516 0.25818 0.0
C330 C 1.00137 0.34049 0.37895 0.0
C331 C 0.0123 0.34867 0.43643 0.0
C332 C 0.03507 0.33533 0.46519 0.0
C333 C 0.04574 0.31325 0.44113 0.0
C334 C 0.03281 0.30364 0.39042 0.0
C335 C 0.01262 0.31788 0.3556 0.0
C336 C 0.00644 0.30581 0.29325 0.0
C337 C 0.02646 0.28233 0.29875 0.0
C338 C 0.03992 0.28086 0.35922 0.0
C339 C 0.0109 0.32544 0.23135 0.0
C340 C 0.97824 0.29739 0.29807 0.0
H341 H 0.08983 0.18952 0.32939 0.0
H342 H 0.04793 0.19751 0.5456 0.0
H343 H 0.01068 0.2391 0.45586 0.0
H344 H 0.01797 0.26775 0.49064 0.0
H345 H 0.02376 0.23682 0.53903 0.0
H346 H 0.08986 0.26194 0.47836 0.0
H347 H 0.07938 0.23938 0.54634 0.0
H348 H 0.06364 0.27059 0.5327 0.0
H349 H 0.04145 0.2056 0.1123 0.0
H350 H 0.97636 0.26143 0.06806 0.0
H351 H 0.9888 0.28364 0.1612 0.0
H352 H 0.08609 0.23968 0.17419 0.0
H353 H 0.08489 0.20536 0.17338 0.0
H354 H 0.09668 0.21798 0.24523 0.0
H355 H 0.02863 0.18888 0.2262 0.0
H356 H 0.03453 0.19501 0.30746 0.0
H357 H 0.05967 0.17958 0.26068 0.0
H358 H 0.08012 0.15052 0.40198 0.0
C359 C 0.07989 0.19147 0.37502 0.0
C360 C 0.27943 0.07232 0.1744 0.0
C361 C 0.3008 0.08692 0.1497 0.0
C362 C 0.30311 0.11159 0.16983 0.0
C363 C 0.27242 0.10135 0.25567 0.0
C364 C 0.26449 0.08095 0.22691 0.0
C365 C 0.23998 0.07119 0.2623 0.0
H366 H 0.17393 0.06661 0.55995 0.0
C367 C 0.26067 0.10135 0.3199 0.0
C368 C 0.23954 0.08559 0.32396 0.0
H369 H 0.14446 0.04198 0.38114 0.0
H370 H 0.1846 0.05412 0.32381 0.0
H371 H 0.2223 0.04715 0.57061 0.0
H372 H 0.19397 0.12065 0.49167 0.0
H373 H 0.22357 0.12334 0.53408 0.0
H374 H 0.19825 0.10535 0.57612 0.0
H375 H 0.23495 0.07295 0.60541 0.0
H376 H 0.25288 0.05794 0.54274 0.0
C377 C 0.24264 0.04163 0.28122 0.0
C378 C 0.21667 0.08018 0.21525 0.0
C379 C 0.32635 0.09364 0.50447 0.0
C380 C 0.32399 0.08983 0.5743 0.0
C381 C 0.29944 0.09621 0.60141 0.0
C382 C 0.27737 0.10241 0.56034 0.0
C383 C 0.27987 0.10228 0.49182 0.0
C384 C 0.30423 0.10043 0.46443 0.0
C385 C 0.30318 0.10382 0.38985 0.0
C386 C 0.2736 0.10562 0.37822 0.0
C387 C 0.26045 0.10243 0.4386 0.0
C388 C 0.31684 0.07971 0.36471 0.0
C389 C 0.31641 0.12884 0.36293 0.0
C390 C 0.17542 0.0644 0.50788 0.0
C391 C 0.15538 0.05403 0.4751 0.0
C392 C 0.15932 0.05023 0.40796 0.0
C393 C 0.18233 0.05769 0.3742 0.0
C394 C 0.20143 0.06932 0.40748 0.0
C395 C 0.19773 0.07213 0.4736 0.0
C396 C 0.21948 0.08475 0.50278 0.0
C397 C 0.23614 0.09094 0.44198 0.0
C398 C 0.22592 0.0816 0.38577 0.0
C399 C 0.23321 0.06485 0.55804 0.0
C400 C 0.20831 0.10984 0.52795 0.0
H401 H 0.29161 0.13714 0.24067 0.0
H402 H 0.27566 0.05431 0.15655 0.0
H403 H 0.21665 0.10134 0.19814 0.0
H404 H 0.19775 0.0768 0.23893 0.0
H405 H 0.21783 0.06996 0.17073 0.0
H406 H 0.26037 0.03584 0.31242 0.0
H407 H 0.24421 0.03181 0.23609 0.0
H408 H 0.22555 0.03457 0.30968 0.0
H409 H 0.34459 0.08996 0.48032 0.0
H410 H 0.29693 0.09572 0.65436 0.0
H411 H 0.25909 0.10677 0.58301 0.0
H412 H 0.30708 0.0619 0.3845 0.0
H413 H 0.33767 0.07713 0.38003 0.0
H414 H 0.31676 0.08142 0.3099 0.0
H415 H 0.33356 0.13162 0.39396 0.0
H416 H 0.30265 0.14617 0.36227 0.0
H417 H 0.32429 0.12804 0.31255 0.0
H418 H 0.31748 0.12437 0.14772 0.0
C419 C 0.28902 0.11878 0.22351 0.0
C420 C 0.49501 0.32923 0.16286 0.0
C421 C 0.50486 0.35246 0.13043 0.0
C422 C 0.52637 0.3624 0.15859 0.0
C423 C 0.52616 0.329 0.25306 0.0
C424 C 0.50654 0.31741 0.22409 0.0
C425 C 0.50086 0.29193 0.26635 0.0
H426 H 0.51985 0.21665 0.57207 0.0
C427 C 0.53187 0.31492 0.31972 0.0
C428 C 0.51753 0.29267 0.32885 0.0
H429 H 0.48129 0.19419 0.40204 0.0
H430 H 0.48827 0.2363 0.33865 0.0
H431 H 0.56753 0.24207 0.49744 0.0
H432 H 0.49319 0.27258 0.5578 0.0
H433 H 0.51378 0.29811 0.5578 0.0
H434 H 0.52074 0.2683 0.61304 0.0
H435 H 0.55778 0.24262 0.58214 0.0
H436 H 0.57244 0.2697 0.53602 0.0
C437 C 0.51053 0.26967 0.22804 0.0
C438 C 0.47156 0.2918 0.28207 0.0
C439 C 0.57512 0.36489 0.47978 0.0
C440 C 0.57393 0.36295 0.54914 0.0
C441 C 0.56787 0.33923 0.58586 0.0
C442 C 0.56026 0.31883 0.5533 0.0
C443 C 0.55819 0.32245 0.48354 0.0
C444 C 0.56616 0.34501 0.44812 0.0
C445 C 0.55984 0.34717 0.37551 0.0
C446 C 0.54549 0.32273 0.3735 0.0
C447 C 0.54526 0.308 0.43624 0.0
C448 C 0.58606 0.3459 0.33794 0.0
C449 C 0.54212 0.37244 0.35527 0.0
C450 C 0.51259 0.22068 0.52147 0.0
C451 C 0.50006 0.20183 0.49254 0.0
C452 C 0.49134 0.20813 0.42574 0.0
C453 C 0.49555 0.23249 0.38871 0.0
C454 C 0.509 0.25072 0.41816 0.0
C455 C 0.51702 0.24451 0.48385 0.0
C456 C 0.53109 0.26563 0.50833 0.0
C457 C 0.53227 0.28468 0.44547 0.0
C458 C 0.51872 0.27654 0.39227 0.0
C459 C 0.55865 0.25456 0.53272 0.0
C460 C 0.51405 0.27673 0.56228 0.0
H461 H 0.553 0.35993 0.23775 0.0
H462 H 0.47898 0.32068 0.14121 0.0
H463 H 0.46506 0.30937 0.30449 0.0
H464 H 0.46702 0.27478 0.31768 0.0
H465 H 0.45988 0.2916 0.23616 0.0
H466 H 0.53022 0.2731 0.20721 0.0
H467 H 0.4971 0.26813 0.18609 0.0
H468 H 0.51255 0.25082 0.25988 0.0
H469 H 0.57994 0.38284 0.45035 0.0
H470 H 0.56693 0.33718 0.63953 0.0
H471 H 0.5549 0.30161 0.58382 0.0
H472 H 0.6009 0.33261 0.36727 0.0
H473 H 0.59412 0.36528 0.32839 0.0
H474 H 0.58438 0.33792 0.29053 0.0
H475 H 0.53386 0.38072 0.39894 0.0
H476 H 0.52462 0.36919 0.32663 0.0
H477 H 0.55303 0.38776 0.32619 0.0
H478 H 0.53448 0.37994 0.1347 0.0
C479 C 0.53707 0.35082 0.21895 0.0
Co480 Co 0.9909 0.04679 0.80037 0.0
C481 C 0.94056 0.03 0.81137 0.0
Co482 Co 0.9825 0.01898 0.72938 0.0
C483 C 1.0018 0.09642 0.85028 0.0
C484 C 0.99018 0.06641 0.92471 0.0
N485 N 0.9964 0.071 0.85979 0.0
N486 N 0.99866 0.10762 0.90657 0.0
C487 C 0.99147 0.08867 0.95319 0.0
H488 H 0.00652 0.10685 0.8025 0.0
H489 H 0.98373 0.04827 0.94933 0.0
C490 C 0.03281 0.0358 0.71879 0.0
N491 N 0.97566 0.99394 0.67351 0.0
C492 C 0.98988 0.97183 0.66442 0.0
C493 C 0.95291 0.99237 0.64161 0.0
N494 N 0.97664 0.95646 0.62929 0.0
C495 C 0.95341 0.96945 0.61491 0.0
C496 C 0.97422 0.06976 0.67518 0.0
O497 O 0.02549 0.04897 0.76497 0.0
O498 O 0.01738 0.02028 0.69864 0.0
O499 O 0.97316 0.04668 0.66207 0.0
O500 O 0.97943 0.07376 0.73396 0.0
O501 O 0.94722 0.01819 0.76245 0.0
H502 H 0.93654 1.00652 0.64012 0.0
H503 H 0.00904 0.96647 0.68605 0.0
O504 O 0.95664 0.04417 0.83381 0.0
O505 O 0.00223 0.01881 0.86613 0.0
O506 O 0.99218 0.99236 0.79607 0.0
C507 C 0.99978 0.99598 0.85313 0.0
H508 H 0.98703 0.0909 1.00424 0.0
H509 H 0.93772 0.96266 0.58766 0.0
Co510 Co 0.48769 0.02982 0.8473 0.0
C511 C 0.49714 0.97543 0.85659 0.0
Co512 Co 0.50875 0.01624 0.76131 0.0
C513 C 0.44451 0.04854 0.92938 0.0
C514 C 0.47838 0.03208 0.98493 0.0
N515 N 0.46928 0.03848 0.92217 0.0
N516 N 0.43826 0.04884 0.99407 0.0
C517 C 0.45963 0.03856 0.02868 0.0
H518 H 0.43132 0.05536 0.8883 0.0
H519 H 0.4972 0.02241 0.99863 0.0
C520 C 0.49923 0.07063 0.75214 0.0
N521 N 0.5276 1.00774 0.68697 0.0
C522 C 0.55248 0.99757 0.68393 0.0
C523 C 0.52153 0.01771 0.6236 0.0
N524 N 0.56224 1.00159 0.62182 0.0
C525 C 0.54272 0.01409 0.58376 0.0
C526 C 0.45561 0.0229 0.74278 0.0
O527 O 0.48889 0.06585 0.80932 0.0
O528 O 0.50959 0.05188 0.72537 0.0
O529 O 0.47671 0.01546 0.71645 0.0
O530 O 0.45595 0.02866 0.80149 0.0
O531 O 0.50753 0.98027 0.79942 0.0
H532 H 0.50363 0.0289 0.60809 0.0
H533 H 0.56397 0.98927 0.72707 0.0
O534 O 0.48678 0.99416 0.88349 0.0
O535 O 0.52036 0.03064 0.89206 0.0
O536 O 0.54013 0.0174 0.80643 0.0
C537 C 0.54122 0.02309 0.86487 0.0
H538 H 0.46138 0.03543 0.08231 0.0
H539 H 0.54409 0.02116 0.53137 0.0
Co540 Co 0.52558 0.5159 0.80728 0.0
C541 C 0.49668 0.47252 0.85396 0.0
Co542 Co 0.48688 0.5149 0.75877 0.0
C543 C 0.56905 0.53033 0.88862 0.0
C544 C 0.57348 0.492 0.86212 0.0
N545 N 0.55741 0.51373 0.85377 0.0
N546 N 0.59162 0.51959 0.91768 0.0
C547 C 0.5945 0.49565 0.90052 0.0
H548 H 0.56132 0.54986 0.89211 0.0
H549 H 0.57003 0.47438 0.842 0.0
C550 C 0.51626 0.55828 0.71248 0.0
N551 N 0.45507 0.51666 0.71257 0.0
C552 C 0.44618 0.50075 0.6714 0.0
C553 C 0.43693 0.53666 0.70809 0.0
N554 N 0.42332 0.51014 0.64121 0.0
C555 C 0.41748 0.53269 0.66489 0.0
C556 C 0.48527 0.54203 0.86536 0.0
O557 O 0.53409 0.54697 0.75176 0.0
O558 O 0.49474 0.54766 0.70856 0.0
O559 O 0.47112 0.53307 0.82391 0.0
O560 O 0.50974 0.53651 0.86733 0.0
O561 O 0.47959 0.48203 0.81032 0.0
H562 H 0.43807 0.55351 0.73331 0.0
H563 H 0.45677 0.48305 0.66215 0.0
O564 O 0.51677 0.48491 0.86124 0.0
O565 O 0.54088 0.49555 0.74561 0.0
O566 O 0.50325 0.49682 0.69389 0.0
C567 C 0.52725 0.48933 0.69895 0.0
H568 H 0.61081 0.48183 0.91466 0.0
H569 H 0.40035 0.54554 0.65213 0.0
Co570 Co 0.00653 0.54271 0.79589 0.0
C571 C 0.03136 0.50293 0.8849 0.0
Co572 Co 0.99275 0.50332 0.78996 0.0
C573 C 0.01587 0.58355 0.87505 0.0
C574 C 0.02572 0.59461 0.77323 0.0
N575 N 0.01587 0.57526 0.81444 0.0
N576 N 0.02555 0.60711 0.87337 0.0
C577 C 0.03182 0.61406 0.80925 0.0
H578 H 0.00992 0.57202 0.9202 0.0
H579 H 0.0289 0.59432 0.72074 0.0
C580 C 0.9679 0.54326 0.70085 0.0
N581 N 0.98376 0.47053 0.77251 0.0
C582 C 0.98436 0.46147 0.71289 0.0
C583 C 0.97714 0.4503 0.81612 0.0
N584 N 0.9785 0.43633 0.71743 0.0
C585 C 0.97392 0.4294 0.78272 0.0
C586 C 0.96262 0.52793 0.87207 0.0
O587 O 0.98316 0.55795 0.7254 0.0
O588 O 0.96957 0.51905 0.72086 0.0
O589 O 0.96494 0.50604 0.85106 0.0
O590 O 0.97898 0.54474 0.85529 0.0
O591 O 0.01625 0.48809 0.86064 0.0
H592 H 0.97543 0.45051 0.86908 0.0
H593 H 0.98932 0.47315 0.66707 0.0
O594 O 0.02957 0.52705 0.86463 0.0
O595 O 0.03417 0.5401 0.73493 0.0
O596 O 0.02034 0.50136 0.72982 0.0
C597 C 0.03629 0.51852 0.71247 0.0
H598 H 0.04055 0.63183 0.78989 0.0
H599 H 0.9694 0.4103 0.80566 0.0
H600 H 0.13114 0.07995 0.56851 0.0
H601 H 0.12397 0.01357 0.46581 0.0
H602 H 0.08592 1.00175 0.53292 0.0
H603 H 0.05532 1.0097 0.62306 0.0
H604 H 0.06501 0.07467 0.72944 0.0
H605 H 0.10225 0.0868 0.66047 0.0
C606 C 0.1217 0.06256 0.56126 0.0
C607 C 0.1309 0.04752 0.51228 0.0
C608 C 0.1005 0.05532 0.60169 0.0
C609 C 0.11742 0.0257 0.50245 0.0
C610 C 0.09578 0.01875 0.54145 0.0
C611 C 0.06578 0.02632 0.63181 0.0
C612 C 0.0574 0.04108 0.68209 0.0
C613 C 0.08731 0.03327 0.59173 0.0
C614 C 0.07113 0.06269 0.69203 0.0
C615 C 0.09235 0.06979 0.65215 0.0
H616 H 0.48846 0.18907 0.62484 0.0
H617 H 0.50741 0.1547 0.448 0.0
H618 H 0.50884 0.11162 0.51248 0.0
H619 H 0.50674 0.08366 0.61957 0.0
H620 H 0.48743 0.11746 0.7969 0.0
H621 H 0.4846 0.16073 0.73196 0.0
C622 C 0.49291 0.17218 0.60024 0.0
C623 C 0.49792 0.17538 0.5312 0.0
C624 C 0.49399 0.14731 0.63797 0.0
C625 C 0.50315 0.15305 0.50052 0.0
C626 C 0.50425 0.12833 0.53762 0.0
C627 C 0.50204 0.10047 0.64435 0.0
C628 C 0.4977 0.0972 0.71357 0.0
C629 C 0.50007 0.12524 0.60648 0.0
C630 C 0.4911 0.1193 0.74406 0.0
C631 C 0.48942 0.14407 0.7068 0.0
H632 H 0.35893 0.44308 0.47423 0.0
H633 H 0.3187 0.51757 0.41298 0.0
H634 H 0.35107 0.53841 0.47202 0.0
H635 H 0.38735 0.53478 0.55248 0.0
H636 H 0.42485 0.45959 0.62176 0.0
H637 H 0.3969 0.43982 0.54875 0.0
C638 C 0.35727 0.46392 0.47335 0.0
C639 C 0.33601 0.47863 0.43996 0.0
C640 C 0.37525 0.47563 0.51 0.0
C641 C 0.3348 0.5057 0.43781 0.0
C642 C 0.35314 0.51761 0.47246 0.0
C643 C 0.38944 0.51405 0.55206 0.0
C644 C 0.40809 0.49874 0.59391 0.0
C645 C 0.37284 0.50264 0.51081 0.0
C646 C 0.41084 0.47198 0.59051 0.0
C647 C 0.39472 0.46059 0.54879 0.0
H648 H 0.97796 0.34706 0.53741 0.0
H649 H 0.02476 0.399 0.41315 0.0
H650 H 0.01737 0.43187 0.48784 0.0
H651 H 1.00182 0.44365 0.59575 0.0
H652 H 0.95499 0.39103 0.71967 0.0
H653 H 0.95831 0.36083 0.63866 0.0
C654 C 0.98566 0.36598 0.52544 0.0
C655 C 1.0013 0.37085 0.46881 0.0
C656 C 0.98193 0.38447 0.5698 0.0
C657 C 0.01202 0.39508 0.45527 0.0
C658 C 0.0081 0.41372 0.49864 0.0
C659 C 0.99193 0.42584 0.60483 0.0
C660 C 0.97857 0.4197 0.66528 0.0
C661 C 0.99373 0.40834 0.55725 0.0
C662 C 0.96602 0.39626 0.67514 0.0
C663 C 0.96771 0.37892 0.62829 0.0
H664 H 0.83658 0.98957 0.93984 0.0
H665 H 0.86908 0.01678 0.11145 0.0
H666 H 0.90477 0.03455 0.04334 0.0
H667 H 0.92872 0.03885 0.93738 0.0
H668 H 0.89768 1.00809 0.76915 0.0
H669 H 0.85961 0.9948 0.83413 0.0
C670 C 0.85153 0.99923 0.9628 0.0
C671 C 0.85026 1.00137 0.03132 0.0
C672 C 0.87236 1.00861 0.9239 0.0
C673 C 0.86941 0.01481 0.05913 0.0
C674 C 0.88996 0.0248 0.02019 0.0
C675 C 0.91342 0.02961 0.91448 0.0
C676 C 0.91603 0.02463 0.84806 0.0
C677 C 0.8919 0.02135 0.95283 0.0
C678 C 0.89619 0.01226 0.81982 0.0
C679 C 0.87444 1.00459 0.85708 0.0
H680 H 0.51255 0.85727 0.98288 0.0
H681 H 0.48108 0.88866 0.15401 0.0
H682 H 0.47876 0.93215 0.09105 0.0
H683 H 0.48377 0.96111 0.98596 0.0
H684 H 0.51466 0.92959 0.81439 0.0
H685 H 0.51841 0.8863 0.87856 0.0
C686 C 0.50505 0.87356 1.0066 0.0
C687 C 0.49679 0.8694 0.07346 0.0
C688 C 0.5033 0.89853 0.96959 0.0
C689 C 0.4878 0.89105 0.10321 0.0
C690 C 0.48621 0.91598 0.06686 0.0
C691 C 0.49119 0.94478 0.96223 0.0
C692 C 0.49862 0.94874 0.89475 0.0
C693 C 0.49353 0.9199 0.99974 0.0
C694 C 0.50856 0.92726 0.86573 0.0
C695 C 0.51081 0.90245 0.90261 0.0
H696 H 0.69253 0.55369 0.04144 0.0
H697 H 0.64272 0.55736 0.21101 0.0
H698 H 0.60604 0.54467 0.14754 0.0
H699 H 0.58813 0.53275 0.04172 0.0
H700 H 0.63891 0.53054 0.87412 0.0
H701 H 0.675 0.54364 0.93776 0.0
C702 C 0.67358 0.55215 0.06459 0.0
C703 C 0.6704 0.55691 0.13085 0.0
C704 C 0.65261 0.54558 0.02744 0.0
C705 C 0.64584 0.55376 0.16031 0.0
C706 C 0.62478 0.54677 0.12373 0.0
C707 C 0.60699 0.53577 0.0192 0.0
C708 C 0.61092 0.53125 0.95302 0.0
C709 C 0.62787 0.54285 0.0569 0.0
C710 C 0.63553 0.5344 0.92454 0.0
C711 C 0.65614 0.54161 0.96111 0.0
H712 H 0.06251 0.67834 0.07555 0.0
H713 H 0.98589 0.6659 0.15501 0.0
H714 H 0.97973 0.63423 0.0785 0.0
H715 H 0.99407 0.61421 0.97809 0.0
H716 H 0.06883 0.63137 0.89318 0.0
H717 H 0.07741 0.65745 0.9808 0.0
C718 C 0.04444 0.66866 0.07663 0.0
C719 C 0.02456 0.67499 0.12082 0.0
C720 C 0.04046 0.65164 0.02996 0.0
C721 C 1.00166 0.66149 0.12223 0.0
C722 C 0.99796 0.6436 0.07758 0.0
C723 C 0.01232 0.62346 0.97944 0.0
C724 C 0.03074 0.621 0.92862 0.0
C725 C 0.01687 0.63917 0.02953 0.0
C726 C 0.05423 0.63323 0.93091 0.0
C727 C 0.05919 0.64806 0.98128 0.0
H728 H 0.01298 0.17226 0.5321 0.0
H729 H 0.07729 0.11905 0.4931 0.0
H730 H 0.05172 0.0826 0.53465 0.0
H731 H 0.01296 0.06604 0.59064 0.0
H732 H 0.95258 0.11919 0.64907 0.0
H733 H 0.97449 0.15574 0.58956 0.0
C734 C 0.02183 0.15277 0.53406 0.0
C735 C 0.04727 0.14857 0.50993 0.0
C736 C 0.00742 0.13194 0.5601 0.0
C737 C 0.05779 0.123 0.51092 0.0
C738 C 0.04318 0.10211 0.5347 0.0
C739 C 0.00418 0.0856 0.58829 0.0
C740 C 0.98089 0.09007 0.62232 0.0
C741 C 0.01809 0.10639 0.55974 0.0
C742 C 0.97008 0.11542 0.62132 0.0
C743 C 0.9829 0.13624 0.58862 0.0
H744 H 0.37667 0.08786 0.54662 0.0
H745 H 0.32225 0.06227 0.70084 0.0
H746 H 0.35782 0.03876 0.76592 0.0
H747 H 0.40456 0.02436 0.77827 0.0
H748 H 0.4561 0.0435 0.61386 0.0
H749 H 0.42067 0.06865 0.551 0.0
C750 C 0.3719 0.07656 0.59309 0.0
C751 C 0.34619 0.07713 0.61734 0.0
C752 C 0.39193 0.06107 0.62797 0.0
C753 C 0.34162 0.06315 0.68034 0.0
C754 C 0.36197 0.04909 0.71752 0.0
C755 C 0.40775 0.03347 0.72796 0.0
C756 C 0.43279 0.03191 0.70049 0.0
C757 C 0.38714 0.04765 0.69144 0.0
C758 C 0.43687 0.04396 0.63558 0.0
C759 C 0.41672 0.05873 0.6 0.0
H760 H 0.54694 0.40764 0.50476 0.0
H761 H 0.59714 0.37151 0.66568 0.0
H762 H 0.58964 0.40975 0.72296 0.0
H763 H 0.56524 0.45141 0.73128 0.0
H764 H 0.51252 0.48505 0.57304 0.0
H765 H 0.52521 0.44995 0.50927 0.0
C766 C 0.55692 0.40837 0.55144 0.0
C767 C 0.57285 0.38693 0.58066 0.0
C768 C 0.55198 0.42992 0.58438 0.0
C769 C 0.58487 0.38784 0.64226 0.0
C770 C 0.58056 0.40965 0.67487 0.0
C771 C 0.55705 0.45133 0.68213 0.0
C772 C 0.53808 0.47075 0.6565 0.0
C773 C 0.56367 0.43055 0.647 0.0
C774 C 0.52717 0.47026 0.59349 0.0
C775 C 0.53433 0.45019 0.55725 0.0
H776 H 0.11069 0.47267 0.51075 0.0
H777 H 0.14092 0.42791 0.69145 0.0
H778 H 0.11189 0.45356 0.75707 0.0
H779 H 0.07582 0.48652 0.7614 0.0
H780 H 0.04568 0.53136 0.58096 0.0
H781 H 0.07735 0.50832 0.51587 0.0
C782 C 0.11071 0.46852 0.56454 0.0
C783 C 0.12719 0.44814 0.5967 0.0
C784 C 0.09446 0.48361 0.6014 0.0
C785 C 0.1279 0.44326 0.66618 0.0
C786 C 0.1115 0.45798 0.7034 0.0
C787 C 0.0769 0.49175 0.70798 0.0
C788 C 0.05908 0.51079 0.67554 0.0
C789 C 0.09455 0.47799 0.67142 0.0
C790 C 0.05982 0.51715 0.60648 0.0
C791 C 0.07759 0.50373 0.5695 0.0
H792 H 0.00195 0.89345 0.05006 0.0
H793 H 0.92068 0.90007 0.99218 0.0
H794 H 0.92636 0.9429 0.93027 0.0
H795 H 0.9552 0.97608 0.8853 0.0
H796 H 0.03692 0.96888 0.93683 0.0
H797 H 0.03041 0.92823 0.01013 0.0
C798 C 0.98555 0.9042 0.02331 0.0
C799 C 0.96106 0.89354 0.02405 0.0
C800 C 0.98908 0.92848 0.98759 0.0
C801 C 0.93971 0.90791 0.99151 0.0
C802 C 0.94296 0.93228 0.95631 0.0
C803 C 0.97146 0.96574 0.91365 0.0
C804 C 0.99646 0.97497 0.90641 0.0
C805 C 0.96763 0.94242 0.95318 0.0
C806 C 0.01754 0.96188 0.94266 0.0
C807 C 0.01381 0.93869 0.98371 0.0
H808 H 0.62234 0.96991 0.07857 0.0
H809 H 0.65611 0.94249 0.90471 0.0
H810 H 0.62386 0.9699 0.8342 0.0
H811 H 0.58567 1.00023 0.82297 0.0
H812 H 0.54979 0.02554 0.99712 0.0
H813 H 0.58424 1.00113 0.06679 0.0
C814 C 0.6223 0.96954 0.02534 0.0
C815 C 0.6412 0.95383 0.99681 0.0
C816 C 0.60388 0.98543 0.98534 0.0
C817 C 0.64155 0.95422 0.92767 0.0
C818 C 0.62328 0.97001 0.88746 0.0
C819 C 0.58543 1.00073 0.87607 0.0
C820 C 0.56498 0.01452 0.90481 0.0
C821 C 0.6044 0.98565 0.91587 0.0
C822 C 0.5653 0.01515 0.97366 0.0
C823 C 0.58478 1.0009 0.01358 0.0
H824 H 0.43235 0.63137 1.00635 0.0
H825 H 0.48698 0.67472 0.88219 0.0
H826 H 0.50019 0.6363 0.83167 0.0
H827 H 0.50041 0.58944 0.83344 0.0
H828 H 0.44612 0.54534 0.95578 0.0
H829 H 0.42904 0.58492 0.99866 0.0
C830 C 0.44679 0.63245 0.96735 0.0
C831 C 0.45889 0.65574 0.94855 0.0
C832 C 0.45499 0.61004 0.94028 0.0
C833 C 0.47723 0.65711 0.89719 0.0
C834 C 0.48514 0.63504 0.86911 0.0
C835 C 0.48496 0.58858 0.86993 0.0
C836 C 0.47505 0.56474 0.89381 0.0
C837 C 0.47495 0.61127 0.89237 0.0
C838 C 0.45436 0.56362 0.93863 0.0
C839 C 0.44454 0.58618 0.96245 0.0
H840 H 0.87528 0.56482 0.05905 0.0
H841 H 0.86919 0.6291 0.90118 0.0
H842 H 0.90138 0.60662 0.83671 0.0
H843 H 0.93319 0.57031 0.82951 0.0
H844 H 0.93978 0.5058 0.98637 0.0
H845 H 0.90479 0.52653 0.04742 0.0
C846 C 0.88114 0.57387 0.01056 0.0
C847 C 0.87048 0.59875 0.98508 0.0
C848 C 0.89939 0.56075 0.97397 0.0
C849 C 0.87746 0.6101 0.92166 0.0
C850 C 0.89576 0.59725 0.88502 0.0
C851 C 0.92665 0.56067 0.87676 0.0
C852 C 0.9389 0.5368 0.90418 0.0
C853 C 0.90707 0.57281 0.91123 0.0
C854 C 0.93036 0.52415 0.96468 0.0
C855 C 0.91063 0.53612 0.99956 0.0
H856 H 0.03638 0.21127 0.98445 0.0
H857 H 0.96068 0.21266 0.07556 0.0
H858 H 0.94983 0.17507 0.02363 0.0
H859 H 0.96442 0.13792 0.96608 0.0
H860 H 0.03959 0.13662 0.87309 0.0
H861 H 0.04814 0.17799 0.91132 0.0
C862 C 0.0172 0.20381 0.99124 0.0
C863 C 0.99937 0.21486 0.0341 0.0
C864 C 0.01123 0.18186 0.96179 0.0
C865 C 0.97465 0.20487 0.0424 0.0
C866 C 0.96857 0.18309 0.01336 0.0
C867 C 0.98243 0.14704 0.95308 0.0
C868 C 1.00148 0.13415 0.91726 0.0
C869 C 0.98708 0.17084 0.9751 0.0
C870 C 0.02465 0.14621 0.90026 0.0
C871 C 0.02956 0.16977 0.92258 0.0
H872 H 0.35163 0.09054 0.17374 0.0
H873 H 0.30056 0.05896 0.0416 0.0
H874 H 0.33876 0.04513 0.9784 0.0
H875 H 0.38754 0.04279 0.96088 0.0
H876 H 0.43604 0.0768 0.09442 0.0
H877 H 0.39788 0.08982 0.15527 0.0
C878 C 0.34859 0.081 0.1304 0.0
C879 C 0.32308 0.07636 0.11172 0.0
C880 C 0.37032 0.07382 0.09402 0.0
C881 C 0.31989 0.06294 0.05706 0.0
C882 C 0.34176 0.05523 0.02066 0.0
C883 C 0.38954 0.05338 1.00268 0.0
C884 C 0.41471 0.05876 0.02329 0.0
C885 C 0.36717 0.0608 0.03834 0.0
C886 C 0.41703 0.07224 0.078 0.0
C887 C 0.39521 0.07966 0.11292 0.0
H888 H 0.52818 0.36349 0.01211 0.0
H889 H 0.45697 0.37882 0.11494 0.0
H890 H 0.44572 0.41667 0.03194 0.0
H891 H 0.46037 0.44986 0.9408 0.0
H892 H 0.53364 0.43484 0.84558 0.0
H893 H 0.53982 0.39278 0.91386 0.0
C894 C 0.50967 0.37451 0.01471 0.0
C895 C 0.49332 0.36815 0.06927 0.0
C896 C 0.50405 0.39689 0.96872 0.0
C897 C 0.46966 0.38294 0.0728 0.0
C898 C 0.46348 0.40492 0.02588 0.0
C899 C 0.47728 0.43701 0.93405 0.0
C900 C 0.49658 0.44549 0.88823 0.0
C901 C 0.48111 0.4128 0.97522 0.0
C902 C 0.51859 0.4288 0.88061 0.0
C903 C 0.52216 0.40471 0.91973 0.0
H904 H 0.10544 0.46537 0.12874 0.0
H905 H 0.16414 0.48891 0.98422 0.0
H906 H 0.12995 0.50184 0.90095 0.0
H907 H 0.08315 0.50661 0.8689 0.0
H908 H 0.02589 0.47713 0.00921 0.0
H909 H 0.06017 0.46503 0.09389 0.0
C910 C 0.11131 0.4724 0.07878 0.0
C911 C 0.13794 0.47577 0.06383 0.0
C912 C 0.09169 0.47853 0.02998 0.0
C913 C 0.14412 0.48633 0.99861 0.0
C914 C 0.12451 0.49351 0.95039 0.0
C915 C 0.07834 0.49716 0.91784 0.0
C916 C 0.05215 0.49265 0.93318 0.0
C917 C 0.09824 0.48972 0.96555 0.0
C918 C 0.04597 0.48051 0.99643 0.0
C919 C 0.06553 0.4738 0.04478 0.0
H920 H 0.01966 0.85795 0.50507 0.0
H921 H 0.94526 0.83177 0.57333 0.0
H922 H 0.93696 0.87059 0.62668 0.0
H923 H 0.94825 0.91455 0.6422 0.0
H924 H 0.02275 0.94114 0.57756 0.0
H925 H 0.03373 0.89991 0.53507 0.0
C926 C 0.0021 0.86033 0.53372 0.0
C927 C 0.98316 0.84176 0.53544 0.0
C928 C 0.99721 0.88317 0.5637 0.0
C929 C 0.96024 0.84554 0.57165 0.0
C930 C 0.95534 0.86793 0.6016 0.0
C931 C 0.96702 0.91115 0.61952 0.0
C932 C 0.98455 0.93102 0.61232 0.0
C933 C 0.97323 0.8873 0.59597 0.0
C934 C 0.00895 0.92619 0.58369 0.0
C935 C 0.01516 0.90262 0.55918 0.0
H936 H 0.67156 0.95992 0.52953 0.0
H937 H 0.67005 0.03727 0.42341 0.0
H938 H 0.62925 0.04857 0.47784 0.0
H939 H 0.59121 0.0347 0.54497 0.0
H940 H 0.59303 0.95784 0.6533 0.0
H941 H 0.63642 0.94796 0.60892 0.0
C942 C 0.66263 0.97946 0.5198 0.0
C943 C 0.67385 0.99775 0.47238 0.0
C944 C 0.63893 0.98568 0.55063 0.0
C945 C 0.66206 0.02296 0.46018 0.0
C946 C 0.6385 0.02931 0.49064 0.0
C947 C 0.60126 0.01587 0.55911 0.0
C948 C 0.5888 0.99679 0.60128 0.0
C949 C 0.6263 1.01055 0.53408 0.0
C950 C 0.60221 0.97269 0.62061 0.0
C951 C 0.62695 0.96708 0.59513 0.0
H952 H 0.5441 0.65073 0.49571 0.0
H953 H 0.46713 0.67952 0.54394 0.0
H954 H 0.46488 0.64391 0.63508 0.0
H955 H 0.48205 0.60062 0.68875 0.0
H956 H 0.55965 0.57245 0.64309 0.0
H957 H 0.5645 0.61153 0.56348 0.0
C958 C 0.52741 0.64992 0.52841 0.0
C959 C 0.50598 0.6681 0.51372 0.0
C960 C 0.52603 0.6289 0.57974 0.0
C961 C 0.48413 0.66628 0.55522 0.0
C962 C 0.48264 0.64554 0.6065 0.0
C963 C 0.50014 0.60325 0.66193 0.0
C964 C 0.5203 0.58343 0.67081 0.0
C965 C 0.50298 0.62609 0.6172 0.0
C966 C 0.54381 0.58731 0.6368 0.0
C967 C 0.54657 0.60967 0.59123 0.0
H968 H 0.89403 0.59852 0.47071 0.0
H969 H 0.83825 0.54956 0.57491 0.0
H970 H 0.87244 0.53067 0.6538 0.0
H971 H 0.91815 0.52886 0.69504 0.0
H972 H 0.97137 0.58217 0.59815 0.0
H973 H 0.93766 0.59939 0.51585 0.0
C974 C 0.88872 0.58435 0.5116 0.0
C975 C 0.86298 0.57605 0.51664 0.0
C976 C 0.90813 0.57439 0.55845 0.0
C977 C 0.85762 0.55648 0.56873 0.0
C978 C 0.87721 0.54574 0.6144 0.0
C979 C 0.92231 0.54424 0.65574 0.0
C980 C 0.9473 0.5541 0.65207 0.0
C981 C 0.90251 0.55462 0.60986 0.0
C982 C 0.95234 0.57429 0.60184 0.0
C983 C 0.93308 0.58407 0.5548 0.0
loop_
_geom_bond_atom_site_label_1
_geom_bond_atom_site_label_2
_geom_bond_distance
_geom_bond_site_symmetry_2
_ccdc_geom_bond_type
C0 C1 1.391 . S
C0 C4 1.391 . S
C0 H42 0.948 . S
C1 C0 1.391 . S
C1 C2 1.391 . S
C2 C1 1.391 . S
C2 H58 0.947 . S
C2 C59 1.392 . S
C3 C4 1.391 . S
C3 C7 1.397 . S
C3 C59 1.419 . S
C4 C0 1.391 . S
C4 C3 1.391 . S
C4 C5 1.399 . S
C5 C4 1.399 . S
C5 C8 1.396 . S
C5 C17 1.453 . S
C5 C18 1.684 . S
H6 C30 0.948 1_556 S
C7 C3 1.397 . S
C7 C8 1.394 . S
C7 C26 1.723 . S
C8 C5 1.396 . S
C8 C7 1.394 . S
C8 C38 1.723 . S
H9 C32 0.947 . S
H10 C33 0.948 . S
H11 C39 0.982 . S
H12 C40 0.979 . S
H13 C40 0.980 . S
H14 C40 0.983 . S
H15 C39 0.979 . S
H16 C39 0.977 . S
C17 C5 1.453 . S
C17 H46 0.982 . S
C17 H47 0.979 . S
C17 H48 0.977 . S
C18 C5 1.684 . S
C18 H43 0.979 . S
C18 H44 0.980 . S
C18 H45 0.983 . S
C19 C20 1.391 1_554 S
C19 C24 1.391 . S
C19 H49 0.948 . S
C20 C19 1.391 1_556 S
C20 C21 1.391 . S
C21 C20 1.391 . S
C21 C22 1.392 . S
C21 H50 0.947 . S
C22 C21 1.392 . S
C22 C23 1.419 1_556 S
C22 H51 0.948 . S
C23 C22 1.419 1_554 S
C23 C24 1.391 . S
C23 C27 1.397 . S
C24 C19 1.391 . S
C24 C23 1.391 . S
C24 C25 1.399 . S
C25 C24 1.399 . S
C25 C26 1.396 . S
C25 C28 1.453 . S
C25 C29 1.684 . S
C26 C7 1.723 . S
C26 C25 1.396 . S
C26 C27 1.394 . S
C27 C23 1.397 . S
C27 C26 1.394 . S
C27 C37 1.723 . S
C28 C25 1.453 . S
C28 H52 0.982 . S
C28 H53 0.979 . S
C28 H54 0.977 . S
C29 C25 1.684 . S
C29 H55 0.979 . S
C29 H56 0.980 . S
C29 H57 0.983 . S
C30 H6 0.948 1_554 S
C30 C31 1.391 . S
C30 C35 1.391 . S
C31 C30 1.391 . S
C31 C32 1.391 . S
C32 H9 0.947 . S
C32 C31 1.391 . S
C32 C33 1.392 . S
C33 H10 0.948 . S
C33 C32 1.392 . S
C33 C34 1.419 . S
C34 C33 1.419 . S
C34 C35 1.391 . S
C34 C38 1.397 . S
C35 C30 1.391 . S
C35 C34 1.391 . S
C35 C36 1.399 . S
C36 C35 1.399 . S
C36 C37 1.396 . S
C36 C39 1.453 1_554 S
C36 C40 1.684 1_554 S
C37 C27 1.723 . S
C37 C36 1.396 . S
C37 C38 1.394 . S
C38 C8 1.723 . S
C38 C34 1.397 . S
C38 C37 1.394 . S
C39 H11 0.982 . S
C39 H15 0.979 . S
C39 H16 0.977 . S
C39 C36 1.453 1_556 S
C40 H12 0.979 . S
C40 H13 0.980 . S
C40 H14 0.983 . S
C40 C36 1.684 1_556 S
H41 C59 0.948 . S
H42 C0 0.948 . S
H43 C18 0.979 . S
H44 C18 0.980 . S
H45 C18 0.983 . S
H46 C17 0.982 . S
H47 C17 0.979 . S
H48 C17 0.977 . S
H49 C19 0.948 . S
H50 C21 0.947 . S
H51 C22 0.948 . S
H52 C28 0.982 . S
H53 C28 0.979 . S
H54 C28 0.977 . S
H55 C29 0.979 . S
H56 C29 0.980 . S
H57 C29 0.983 . S
H58 C2 0.947 . S
C59 C2 1.392 . S
C59 C3 1.419 . S
C59 H41 0.948 . S
C60 C61 1.391 . S
C60 C64 1.391 . S
C60 H102 0.948 . S
C61 C60 1.391 . S
C61 C62 1.391 . S
C62 C61 1.391 . S
C62 H118 0.947 . S
C62 C119 1.392 1_556 S
C63 C64 1.391 1_554 S
C63 C67 1.397 1_655 S
C63 C119 1.419 . S
C64 C60 1.391 . S
C64 C63 1.391 1_556 S
C64 C65 1.399 . S
C65 C64 1.399 . S
C65 C68 1.396 1_656 S
C65 C77 1.453 1_655 S
C65 C78 1.684 . S
H66 C90 0.948 . S
C67 C63 1.397 1_455 S
C67 C68 1.394 . S
C67 C86 1.723 . S
C68 C65 1.396 1_454 S
C68 C67 1.394 . S
C68 C98 1.723 . S
H69 C92 0.947 1_556 S
H70 C93 0.948 1_556 S
H71 C99 0.982 . S
H72 C100 0.979 . S
H73 C100 0.980 . S
H74 C100 0.983 . S
H75 C99 0.979 . S
H76 C99 0.977 . S
C77 C65 1.453 1_455 S
C77 H106 0.982 . S
C77 H107 0.979 . S
C77 H108 0.977 . S
C78 C65 1.684 . S
C78 H103 0.979 . S
C78 H104 0.980 . S
C78 H105 0.983 . S
C79 C80 1.391 . S
C79 C84 1.391 . S
C79 H109 0.948 . S
C80 C79 1.391 . S
C80 C81 1.391 . S
C81 C80 1.391 . S
C81 C82 1.392 . S
C81 H110 0.947 . S
C82 C81 1.392 . S
C82 C83 1.419 . S
C82 H111 0.948 . S
C83 C82 1.419 . S
C83 C84 1.391 . S
C83 C87 1.397 1_655 S
C84 C79 1.391 . S
C84 C83 1.391 . S
C84 C85 1.399 . S
C85 C84 1.399 . S
C85 C86 1.396 1_655 S
C85 C88 1.453 1_655 S
C85 C89 1.684 . S
C86 C67 1.723 . S
C86 C85 1.396 1_455 S
C86 C87 1.394 . S
C87 C83 1.397 1_455 S
C87 C86 1.394 . S
C87 C97 1.723 . S
C88 C85 1.453 1_455 S
C88 H112 0.982 . S
C88 H113 0.979 . S
C88 H114 0.977 . S
C89 C85 1.684 . S
C89 H115 0.979 . S
C89 H116 0.980 . S
C89 H117 0.983 . S
C90 H66 0.948 . S
C90 C91 1.391 . S
C90 C95 1.391 . S
C91 C90 1.391 . S
C91 C92 1.391 . S
C92 H69 0.947 1_554 S
C92 C91 1.391 . S
C92 C93 1.392 . S
C93 H70 0.948 1_554 S
C93 C92 1.392 . S
C93 C94 1.419 . S
C94 C93 1.419 . S
C94 C95 1.391 . S
C94 C98 1.397 1_655 S
C95 C90 1.391 . S
C95 C94 1.391 . S
C95 C96 1.399 . S
C96 C95 1.399 . S
C96 C97 1.396 1_655 S
C96 C99 1.453 1_655 S
C96 C100 1.684 . S
C97 C87 1.723 . S
C97 C96 1.396 1_455 S
C97 C98 1.394 . S
C98 C68 1.723 . S
C98 C94 1.397 1_455 S
C98 C97 1.394 . S
C99 H71 0.982 . S
C99 H75 0.979 . S
C99 H76 0.977 . S
C99 C96 1.453 1_455 S
C100 H72 0.979 . S
C100 H73 0.980 . S
C100 H74 0.983 . S
C100 C96 1.684 . S
H101 C119 0.948 . S
H102 C60 0.948 . S
H103 C78 0.979 . S
H104 C78 0.980 . S
H105 C78 0.983 . S
H106 C77 0.982 . S
H107 C77 0.979 . S
H108 C77 0.977 . S
H109 C79 0.948 . S
H110 C81 0.947 . S
H111 C82 0.948 . S
H112 C88 0.982 . S
H113 C88 0.979 . S
H114 C88 0.977 . S
H115 C89 0.979 . S
H116 C89 0.980 . S
H117 C89 0.983 . S
H118 C62 0.947 . S
C119 C62 1.392 1_554 S
C119 C63 1.419 . S
C119 H101 0.948 . S
C120 C121 1.391 . S
C120 C124 1.391 . S
C120 H162 0.948 . S
C121 C120 1.391 . S
C121 C122 1.391 1_554 S
C122 C121 1.391 1_556 S
C122 H178 0.947 . S
C122 C179 1.392 . S
C123 C124 1.391 . S
C123 C127 1.397 . S
C123 C179 1.419 1_554 S
C124 C120 1.391 . S
C124 C123 1.391 . S
C124 C125 1.399 . S
C125 C124 1.399 . S
C125 C128 1.396 . S
C125 C137 1.453 . S
C125 C138 1.684 . S
H126 C150 0.948 . S
C127 C123 1.397 . S
C127 C128 1.394 . S
C127 C146 1.723 . S
C128 C125 1.396 . S
C128 C127 1.394 . S
C128 C158 1.723 . S
H129 C152 0.947 . S
H130 C153 0.948 . S
H131 C159 0.982 . S
H132 C160 0.979 . S
H133 C160 0.980 . S
H134 C160 0.983 . S
H135 C159 0.979 . S
H136 C159 0.977 . S
C137 C125 1.453 . S
C137 H166 0.982 . S
C137 H167 0.979 . S
C137 H168 0.977 . S
C138 C125 1.684 . S
C138 H163 0.979 . S
C138 H164 0.980 . S
C138 H165 0.983 . S
C139 C140 1.391 . S
C139 C144 1.391 . S
C139 H169 0.948 . S
C140 C139 1.391 . S
C140 C141 1.391 . S
C141 C140 1.391 . S
C141 C142 1.392 1_556 S
C141 H170 0.947 . S
C142 C141 1.392 1_554 S
C142 C143 1.419 . S
C142 H171 0.948 . S
C143 C142 1.419 . S
C143 C144 1.391 1_554 S
C143 C147 1.397 . S
C144 C139 1.391 . S
C144 C143 1.391 1_556 S
C144 C145 1.399 . S
C145 C144 1.399 . S
C145 C146 1.396 1_556 S
C145 C148 1.453 . S
C145 C149 1.684 . S
C146 C127 1.723 . S
C146 C145 1.396 1_554 S
C146 C147 1.394 . S
C147 C143 1.397 . S
C147 C146 1.394 . S
C147 C157 1.723 . S
C148 C145 1.453 . S
C148 H172 0.982 . S
C148 H173 0.979 . S
C148 H174 0.977 . S
C149 C145 1.684 . S
C149 H175 0.979 . S
C149 H176 0.980 . S
C149 H177 0.983 . S
C150 H126 0.948 . S
C150 C151 1.391 . S
C150 C155 1.391 . S
C151 C150 1.391 . S
C151 C152 1.391 . S
C152 H129 0.947 . S
C152 C151 1.391 . S
C152 C153 1.392 . S
C153 H130 0.948 . S
C153 C152 1.392 . S
C153 C154 1.419 . S
C154 C153 1.419 . S
C154 C155 1.391 . S
C154 C158 1.397 . S
C155 C150 1.391 . S
C155 C154 1.391 . S
C155 C156 1.399 . S
C156 C155 1.399 . S
C156 C157 1.396 . S
C156 C159 1.453 . S
C156 C160 1.684 . S
C157 C147 1.723 . S
C157 C156 1.396 . S
C157 C158 1.394 . S
C158 C128 1.723 . S
C158 C154 1.397 . S
C158 C157 1.394 . S
C159 H131 0.982 . S
C159 H135 0.979 . S
C159 H136 0.977 . S
C159 C156 1.453 . S
C160 H132 0.979 . S
C160 H133 0.980 . S
C160 H134 0.983 . S
C160 C156 1.684 . S
H161 C179 0.948 . S
H162 C120 0.948 . S
H163 C138 0.979 . S
H164 C138 0.980 . S
H165 C138 0.983 . S
H166 C137 0.982 . S
H167 C137 0.979 . S
H168 C137 0.977 . S
H169 C139 0.948 . S
H170 C141 0.947 . S
H171 C142 0.948 . S
H172 C148 0.982 . S
H173 C148 0.979 . S
H174 C148 0.977 . S
H175 C149 0.979 . S
H176 C149 0.980 . S
H177 C149 0.983 . S
H178 C122 0.947 . S
C179 C122 1.392 . S
C179 C123 1.419 1_556 S
C179 H161 0.948 . S
C180 C181 1.391 . S
C180 C184 1.391 . S
C180 H222 0.948 . S
C181 C180 1.391 . S
C181 C182 1.391 . S
C182 C181 1.391 . S
C182 H238 0.947 . S
C182 C239 1.392 . S
C183 C184 1.391 . S
C183 C187 1.397 . S
C183 C239 1.419 . S
C184 C180 1.391 . S
C184 C183 1.391 . S
C184 C185 1.399 . S
C185 C184 1.399 . S
C185 C188 1.396 . S
C185 C197 1.453 . S
C185 C198 1.684 . S
H186 C210 0.948 1_556 S
C187 C183 1.397 . S
C187 C188 1.394 . S
C187 C206 1.723 . S
C188 C185 1.396 . S
C188 C187 1.394 . S
C188 C218 1.723 . S
H189 C212 0.947 . S
H190 C213 0.948 . S
H191 C219 0.982 . S
H192 C220 0.979 . S
H193 C220 0.980 . S
H194 C220 0.983 . S
H195 C219 0.979 . S
H196 C219 0.977 . S
C197 C185 1.453 . S
C197 H226 0.982 . S
C197 H227 0.979 . S
C197 H228 0.977 . S
C198 C185 1.684 . S
C198 H223 0.979 . S
C198 H224 0.980 . S
C198 H225 0.983 . S
C199 C200 1.391 1_554 S
C199 C204 1.391 . S
C199 H229 0.948 . S
C200 C199 1.391 1_556 S
C200 C201 1.391 . S
C201 C200 1.391 . S
C201 C202 1.392 . S
C201 H230 0.947 . S
C202 C201 1.392 . S
C202 C203 1.419 1_556 S
C202 H231 0.948 . S
C203 C202 1.419 1_554 S
C203 C204 1.391 . S
C203 C207 1.397 . S
C204 C199 1.391 . S
C204 C203 1.391 . S
C204 C205 1.399 . S
C205 C204 1.399 . S
C205 C206 1.396 . S
C205 C208 1.453 . S
C205 C209 1.684 . S
C206 C187 1.723 . S
C206 C205 1.396 . S
C206 C207 1.394 . S
C207 C203 1.397 . S
C207 C206 1.394 . S
C207 C217 1.723 . S
C208 C205 1.453 . S
C208 H232 0.982 . S
C208 H233 0.979 . S
C208 H234 0.977 . S
C209 C205 1.684 . S
C209 H235 0.979 . S
C209 H236 0.980 . S
C209 H237 0.983 . S
C210 H186 0.948 1_554 S
C210 C211 1.391 . S
C210 C215 1.391 . S
C211 C210 1.391 . S
C211 C212 1.391 . S
C212 H189 0.947 . S
C212 C211 1.391 . S
C212 C213 1.392 . S
C213 H190 0.948 . S
C213 C212 1.392 . S
C213 C214 1.419 . S
C214 C213 1.419 . S
C214 C215 1.391 . S
C214 C218 1.397 . S
C215 C210 1.391 . S
C215 C214 1.391 . S
C215 C216 1.399 . S
C216 C215 1.399 . S
C216 C217 1.396 . S
C216 C219 1.453 1_554 S
C216 C220 1.684 1_554 S
C217 C207 1.723 . S
C217 C216 1.396 . S
C217 C218 1.394 . S
C218 C188 1.723 . S
C218 C214 1.397 . S
C218 C217 1.394 . S
C219 H191 0.982 . S
C219 H195 0.979 . S
C219 H196 0.977 . S
C219 C216 1.453 1_556 S
C220 H192 0.979 . S
C220 H193 0.980 . S
C220 H194 0.983 . S
C220 C216 1.684 1_556 S
H221 C239 0.948 . S
H222 C180 0.948 . S
H223 C198 0.979 . S
H224 C198 0.980 . S
H225 C198 0.983 . S
H226 C197 0.982 . S
H227 C197 0.979 . S
H228 C197 0.977 . S
H229 C199 0.948 . S
H230 C201 0.947 . S
H231 C202 0.948 . S
H232 C208 0.982 . S
H233 C208 0.979 . S
H234 C208 0.977 . S
H235 C209 0.979 . S
H236 C209 0.980 . S
H237 C209 0.983 . S
H238 C182 0.947 . S
C239 C182 1.392 . S
C239 C183 1.419 . S
C239 H221 0.948 . S
C240 C241 1.391 . S
C240 C244 1.391 . S
C240 H282 0.948 . S
C241 C240 1.391 . S
C241 C242 1.391 . S
C242 C241 1.391 . S
C242 H298 0.947 . S
C242 C299 1.392 . S
C243 C244 1.391 . S
C243 C247 1.397 . S
C243 C299 1.419 . S
C244 C240 1.391 . S
C244 C243 1.391 . S
C244 C245 1.399 . S
C245 C244 1.399 . S
C245 C248 1.396 . S
C245 C257 1.453 . S
C245 C258 1.684 . S
H246 C270 0.948 . S
C247 C243 1.397 . S
C247 C248 1.394 . S
C247 C266 1.723 . S
C248 C245 1.396 . S
C248 C247 1.394 . S
C248 C278 1.723 . S
H249 C272 0.947 . S
H250 C273 0.948 . S
H251 C279 0.982 . S
H252 C280 0.979 . S
H253 C280 0.980 . S
H254 C280 0.983 . S
H255 C279 0.979 . S
H256 C279 0.977 . S
C257 C245 1.453 . S
C257 H286 0.982 . S
C257 H287 0.979 . S
C257 H288 0.977 . S
C258 C245 1.684 . S
C258 H283 0.979 . S
C258 H284 0.980 . S
C258 H285 0.983 . S
C259 C260 1.391 . S
C259 C264 1.391 . S
C259 H289 0.948 . S
C260 C259 1.391 . S
C260 C261 1.391 . S
C261 C260 1.391 . S
C261 C262 1.392 . S
C261 H290 0.947 . S
C262 C261 1.392 . S
C262 C263 1.419 . S
C262 H291 0.948 . S
C263 C262 1.419 . S
C263 C264 1.391 . S
C263 C267 1.397 . S
C264 C259 1.391 . S
C264 C263 1.391 . S
C264 C265 1.399 . S
C265 C264 1.399 . S
C265 C266 1.396 . S
C265 C268 1.453 . S
C265 C269 1.684 . S
C266 C247 1.723 . S
C266 C265 1.396 . S
C266 C267 1.394 . S
C267 C263 1.397 . S
C267 C266 1.394 . S
C267 C277 1.723 . S
C268 C265 1.453 . S
C268 H292 0.982 . S
C268 H293 0.979 . S
C268 H294 0.977 . S
C269 C265 1.684 . S
C269 H295 0.979 . S
C269 H296 0.980 . S
C269 H297 0.983 . S
C270 H246 0.948 . S
C270 C271 1.391 . S
C270 C275 1.391 . S
C271 C270 1.391 . S
C271 C272 1.391 . S
C272 H249 0.947 . S
C272 C271 1.391 . S
C272 C273 1.392 . S
C273 H250 0.948 . S
C273 C272 1.392 . S
C273 C274 1.419 . S
C274 C273 1.419 . S
C274 C275 1.391 . S
C274 C278 1.397 . S
C275 C270 1.391 . S
C275 C274 1.391 . S
C275 C276 1.399 . S
C276 C275 1.399 . S
C276 C277 1.396 . S
C276 C279 1.453 . S
C276 C280 1.684 . S
C277 C267 1.723 . S
C277 C276 1.396 . S
C277 C278 1.394 . S
C278 C248 1.723 . S
C278 C274 1.397 . S
C278 C277 1.394 . S
C279 H251 0.982 . S
C279 H255 0.979 . S
C279 H256 0.977 . S
C279 C276 1.453 . S
C280 H252 0.979 . S
C280 H253 0.980 . S
C280 H254 0.983 . S
C280 C276 1.684 . S
H281 C299 0.948 . S
H282 C240 0.948 . S
H283 C258 0.979 . S
H284 C258 0.980 . S
H285 C258 0.983 . S
H286 C257 0.982 . S
H287 C257 0.979 . S
H288 C257 0.977 . S
H289 C259 0.948 . S
H290 C261 0.947 . S
H291 C262 0.948 . S
H292 C268 0.982 . S
H293 C268 0.979 . S
H294 C268 0.977 . S
H295 C269 0.979 . S
H296 C269 0.980 . S
H297 C269 0.983 . S
H298 C242 0.947 . S
C299 C242 1.392 . S
C299 C243 1.419 . S
C299 H281 0.948 . S
C300 C301 1.391 . S
C300 C304 1.391 . S
C300 H342 0.948 . S
C301 C300 1.391 . S
C301 C302 1.391 . S
C302 C301 1.391 . S
C302 H358 0.947 . S
C302 C359 1.392 . S
C303 C304 1.391 . S
C303 C307 1.396 1_655 S
C303 C359 1.419 . S
C304 C300 1.391 . S
C304 C303 1.391 . S
C304 C305 1.399 . S
C305 C304 1.399 . S
C305 C308 1.396 1_655 S
C305 C317 1.453 1_655 S
C305 C318 1.684 . S
H306 C330 0.948 . S
C307 C303 1.396 1_455 S
C307 C308 1.395 . S
C307 C326 1.723 . S
C308 C305 1.396 1_455 S
C308 C307 1.395 . S
C308 C338 1.723 . S
H309 C332 0.947 . S
H310 C333 0.948 . S
H311 C339 0.982 . S
H312 C340 0.979 . S
H313 C340 0.980 . S
H314 C340 0.983 . S
H315 C339 0.979 . S
H316 C339 0.977 . S
C317 C305 1.453 1_455 S
C317 H346 0.982 . S
C317 H347 0.979 . S
C317 H348 0.977 . S
C318 C305 1.684 . S
C318 H343 0.979 . S
C318 H344 0.980 . S
C318 H345 0.983 . S
C319 C320 1.391 . S
C319 C324 1.391 . S
C319 H349 0.948 . S
C320 C319 1.391 . S
C320 C321 1.391 . S
C321 C320 1.391 . S
C321 C322 1.392 . S
C321 H350 0.947 . S
C322 C321 1.392 . S
C322 C323 1.419 . S
C322 H351 0.948 . S
C323 C322 1.419 . S
C323 C324 1.391 . S
C323 C327 1.396 1_655 S
C324 C319 1.391 . S
C324 C323 1.391 . S
C324 C325 1.399 . S
C325 C324 1.399 . S
C325 C326 1.396 1_655 S
C325 C328 1.453 1_655 S
C325 C329 1.684 . S
C326 C307 1.723 . S
C326 C325 1.396 1_455 S
C326 C327 1.394 . S
C327 C323 1.396 1_455 S
C327 C326 1.394 . S
C327 C337 1.724 . S
C328 C325 1.453 1_455 S
C328 H352 0.982 . S
C328 H353 0.979 . S
C328 H354 0.977 . S
C329 C325 1.684 . S
C329 H355 0.979 . S
C329 H356 0.980 . S
C329 H357 0.983 . S
C330 H306 0.948 . S
C330 C331 1.391 . S
C330 C335 1.391 . S
C331 C330 1.391 . S
C331 C332 1.391 . S
C332 H309 0.947 . S
C332 C331 1.391 . S
C332 C333 1.392 . S
C333 H310 0.948 . S
C333 C332 1.392 . S
C333 C334 1.419 . S
C334 C333 1.419 . S
C334 C335 1.391 . S
C334 C338 1.397 1_655 S
C335 C330 1.391 . S
C335 C334 1.391 . S
C335 C336 1.399 . S
C336 C335 1.399 . S
C336 C337 1.396 1_655 S
C336 C339 1.453 1_655 S
C336 C340 1.684 . S
C337 C327 1.724 . S
C337 C336 1.396 1_455 S
C337 C338 1.395 . S
C338 C308 1.723 . S
C338 C334 1.397 1_455 S
C338 C337 1.395 . S
C339 H311 0.982 . S
C339 H315 0.979 . S
C339 H316 0.977 . S
C339 C336 1.453 1_455 S
C340 H312 0.979 . S
C340 H313 0.980 . S
C340 H314 0.983 . S
C340 C336 1.684 . S
H341 C359 0.948 . S
H342 C300 0.948 . S
H343 C318 0.979 . S
H344 C318 0.980 . S
H345 C318 0.983 . S
H346 C317 0.982 . S
H347 C317 0.979 . S
H348 C317 0.977 . S
H349 C319 0.948 . S
H350 C321 0.947 . S
H351 C322 0.948 . S
H352 C328 0.982 . S
H353 C328 0.979 . S
H354 C328 0.977 . S
H355 C329 0.979 . S
H356 C329 0.980 . S
H357 C329 0.983 . S
H358 C302 0.947 . S
C359 C302 1.392 . S
C359 C303 1.419 . S
C359 H341 0.948 . S
C360 C361 1.391 . S
C360 C364 1.391 . S
C360 H402 0.948 . S
C361 C360 1.391 . S
C361 C362 1.391 . S
C362 C361 1.391 . S
C362 H418 0.947 . S
C362 C419 1.392 . S
C363 C364 1.391 . S
C363 C367 1.397 . S
C363 C419 1.419 . S
C364 C360 1.391 . S
C364 C363 1.391 . S
C364 C365 1.399 . S
C365 C364 1.399 . S
C365 C368 1.396 . S
C365 C377 1.453 . S
C365 C378 1.684 . S
H366 C390 0.948 . S
C367 C363 1.397 . S
C367 C368 1.394 . S
C367 C386 1.723 . S
C368 C365 1.396 . S
C368 C367 1.394 . S
C368 C398 1.723 . S
H369 C392 0.947 . S
H370 C393 0.948 . S
H371 C399 0.982 . S
H372 C400 0.979 . S
H373 C400 0.980 . S
H374 C400 0.983 . S
H375 C399 0.979 . S
H376 C399 0.977 . S
C377 C365 1.453 . S
C377 H406 0.982 . S
C377 H407 0.979 . S
C377 H408 0.977 . S
C378 C365 1.684 . S
C378 H403 0.979 . S
C378 H404 0.980 . S
C378 H405 0.983 . S
C379 C380 1.391 . S
C379 C384 1.391 . S
C379 H409 0.948 . S
C380 C379 1.391 . S
C380 C381 1.391 . S
C381 C380 1.391 . S
C381 C382 1.392 . S
C381 H410 0.947 . S
C382 C381 1.392 . S
C382 C383 1.419 . S
C382 H411 0.948 . S
C383 C382 1.419 . S
C383 C384 1.391 . S
C383 C387 1.397 . S
C384 C379 1.391 . S
C384 C383 1.391 . S
C384 C385 1.399 . S
C385 C384 1.399 . S
C385 C386 1.396 . S
C385 C388 1.453 . S
C385 C389 1.684 . S
C386 C367 1.723 . S
C386 C385 1.396 . S
C386 C387 1.394 . S
C387 C383 1.397 . S
C387 C386 1.394 . S
C387 C397 1.723 . S
C388 C385 1.453 . S
C388 H412 0.982 . S
C388 H413 0.979 . S
C388 H414 0.977 . S
C389 C385 1.684 . S
C389 H415 0.979 . S
C389 H416 0.980 . S
C389 H417 0.983 . S
C390 H366 0.948 . S
C390 C391 1.391 . S
C390 C395 1.391 . S
C391 C390 1.391 . S
C391 C392 1.391 . S
C392 H369 0.947 . S
C392 C391 1.391 . S
C392 C393 1.392 . S
C393 H370 0.948 . S
C393 C392 1.392 . S
C393 C394 1.419 . S
C394 C393 1.419 . S
C394 C395 1.391 . S
C394 C398 1.397 . S
C395 C390 1.391 . S
C395 C394 1.391 . S
C395 C396 1.399 . S
C396 C395 1.399 . S
C396 C397 1.396 . S
C396 C399 1.453 . S
C396 C400 1.684 . S
C397 C387 1.723 . S
C397 C396 1.396 . S
C397 C398 1.394 . S
C398 C368 1.723 . S
C398 C394 1.397 . S
C398 C397 1.394 . S
C399 H371 0.982 . S
C399 H375 0.979 . S
C399 H376 0.977 . S
C399 C396 1.453 . S
C400 H372 0.979 . S
C400 H373 0.980 . S
C400 H374 0.983 . S
C400 C396 1.684 . S
H401 C419 0.948 . S
H402 C360 0.948 . S
H403 C378 0.979 . S
H404 C378 0.980 . S
H405 C378 0.983 . S
H406 C377 0.982 . S
H407 C377 0.979 . S
H408 C377 0.977 . S
H409 C379 0.948 . S
H410 C381 0.947 . S
H411 C382 0.948 . S
H412 C388 0.982 . S
H413 C388 0.979 . S
H414 C388 0.977 . S
H415 C389 0.979 . S
H416 C389 0.980 . S
H417 C389 0.983 . S
H418 C362 0.947 . S
C419 C362 1.392 . S
C419 C363 1.419 . S
C419 H401 0.948 . S
C420 C421 1.391 . S
C420 C424 1.391 . S
C420 H462 0.948 . S
C421 C420 1.391 . S
C421 C422 1.391 . S
C422 C421 1.391 . S
C422 H478 0.947 . S
C422 C479 1.392 . S
C423 C424 1.391 . S
C423 C427 1.397 . S
C423 C479 1.419 . S
C424 C420 1.391 . S
C424 C423 1.391 . S
C424 C425 1.399 . S
C425 C424 1.399 . S
C425 C428 1.396 . S
C425 C437 1.453 . S
C425 C438 1.684 . S
H426 C450 0.948 . S
C427 C423 1.397 . S
C427 C428 1.394 . S
C427 C446 1.723 . S
C428 C425 1.396 . S
C428 C427 1.394 . S
C428 C458 1.723 . S
H429 C452 0.947 . S
H430 C453 0.948 . S
H431 C459 0.982 . S
H432 C460 0.979 . S
H433 C460 0.980 . S
H434 C460 0.983 . S
H435 C459 0.979 . S
H436 C459 0.977 . S
C437 C425 1.453 . S
C437 H466 0.982 . S
C437 H467 0.979 . S
C437 H468 0.977 . S
C438 C425 1.684 . S
C438 H463 0.979 . S
C438 H464 0.980 . S
C438 H465 0.983 . S
C439 C440 1.391 . S
C439 C444 1.391 . S
C439 H469 0.948 . S
C440 C439 1.391 . S
C440 C441 1.391 . S
C441 C440 1.391 . S
C441 C442 1.392 . S
C441 H470 0.947 . S
C442 C441 1.392 . S
C442 C443 1.419 . S
C442 H471 0.948 . S
C443 C442 1.419 . S
C443 C444 1.391 . S
C443 C447 1.397 . S
C444 C439 1.391 . S
C444 C443 1.391 . S
C444 C445 1.399 . S
C445 C444 1.399 . S
C445 C446 1.396 . S
C445 C448 1.453 . S
C445 C449 1.684 . S
C446 C427 1.723 . S
C446 C445 1.396 . S
C446 C447 1.394 . S
C447 C443 1.397 . S
C447 C446 1.394 . S
C447 C457 1.723 . S
C448 C445 1.453 . S
C448 H472 0.982 . S
C448 H473 0.979 . S
C448 H474 0.977 . S
C449 C445 1.684 . S
C449 H475 0.979 . S
C449 H476 0.980 . S
C449 H477 0.983 . S
C450 H426 0.948 . S
C450 C451 1.391 . S
C450 C455 1.391 . S
C451 C450 1.391 . S
C451 C452 1.391 . S
C452 H429 0.947 . S
C452 C451 1.391 . S
C452 C453 1.392 . S
C453 H430 0.948 . S
C453 C452 1.392 . S
C453 C454 1.419 . S
C454 C453 1.419 . S
C454 C455 1.391 . S
C454 C458 1.397 . S
C455 C450 1.391 . S
C455 C454 1.391 . S
C455 C456 1.399 . S
C456 C455 1.399 . S
C456 C457 1.396 . S
C456 C459 1.453 . S
C456 C460 1.684 . S
C457 C447 1.723 . S
C457 C456 1.396 . S
C457 C458 1.394 . S
C458 C428 1.723 . S
C458 C454 1.397 . S
C458 C457 1.394 . S
C459 H431 0.982 . S
C459 H435 0.979 . S
C459 H436 0.977 . S
C459 C456 1.453 . S
C460 H432 0.979 . S
C460 H433 0.980 . S
C460 H434 0.983 . S
C460 C456 1.684 . S
H461 C479 0.948 . S
H462 C420 0.948 . S
H463 C438 0.979 . S
H464 C438 0.980 . S
H465 C438 0.983 . S
H466 C437 0.982 . S
H467 C437 0.979 . S
H468 C437 0.977 . S
H469 C439 0.948 . S
H470 C441 0.947 . S
H471 C442 0.948 . S
H472 C448 0.982 . S
H473 C448 0.979 . S
H474 C448 0.977 . S
H475 C449 0.979 . S
H476 C449 0.980 . S
H477 C449 0.983 . S
H478 C422 0.947 . S
C479 C422 1.392 . S
C479 C423 1.419 . S
C479 H461 0.948 . S
Co480 N485 2.057 . S
Co480 O497 2.021 . S
Co480 O500 2.062 1_455 S
Co480 O504 2.117 1_455 S
Co480 O505 2.020 1_545 S
C481 O501 1.259 1_545 S
C481 O504 1.258 . S
Co482 N491 2.057 . S
Co482 O498 2.117 1_665 S
Co482 O499 2.020 1_565 S
Co482 O501 2.021 . S
Co482 O506 2.062 1_655 S
C483 N485 1.316 . S
C483 N486 1.347 . S
C483 H488 0.931 . S
C484 N485 1.375 1_655 S
C484 C487 1.350 . S
C484 H489 0.930 . S
N485 Co480 2.057 . S
N485 C483 1.316 . S
N485 C484 1.375 1_455 S
N486 C483 1.347 . S
N486 C487 1.373 1_455 S
C487 C484 1.350 . S
C487 N486 1.373 1_655 S
C487 H508 0.931 1_556 S
H488 C483 0.931 . S
H489 C484 0.930 . S
C490 O497 1.259 . S
C490 O498 1.258 . S
N491 Co482 2.057 . S
N491 C492 1.316 . S
N491 C493 1.375 1_655 S
C492 N491 1.316 . S
C492 N494 1.347 . S
C492 H503 0.931 . S
C493 N491 1.375 1_455 S
C493 C495 1.350 . S
C493 H502 0.930 . S
N494 C492 1.347 . S
N494 C495 1.373 1_655 S
C495 C493 1.350 . S
C495 N494 1.373 1_455 S
C495 H509 0.931 . S
C496 O499 1.256 . S
C496 O500 1.255 . S
O497 Co480 2.021 . S
O497 C490 1.259 . S
O498 Co482 2.117 1_445 S
O498 C490 1.258 . S
O499 Co482 2.020 1_545 S
O499 C496 1.256 . S
O500 Co480 2.062 1_655 S
O500 C496 1.255 . S
O501 C481 1.259 1_565 S
O501 Co482 2.021 . S
H502 C493 0.930 . S
H503 C492 0.931 . S
O504 Co480 2.117 1_655 S
O504 C481 1.258 . S
O505 Co480 2.020 1_565 S
O505 C507 1.256 . S
O506 Co482 2.062 1_455 S
O506 C507 1.255 . S
C507 O505 1.256 . S
C507 O506 1.255 . S
H508 C487 0.931 1_554 S
H509 C495 0.931 . S
Co510 N515 2.057 . S
Co510 O527 2.021 . S
Co510 O530 2.062 . S
Co510 O534 2.117 1_545 S
Co510 O535 2.020 . S
C511 O531 1.259 . S
C511 O534 1.258 . S
Co512 N521 2.057 1_545 S
Co512 O528 2.117 . S
Co512 O529 2.020 . S
Co512 O531 2.021 1_545 S
Co512 O536 2.062 1_545 S
C513 N515 1.316 . S
C513 N516 1.347 . S
C513 H518 0.931 . S
C514 N515 1.375 . S
C514 C517 1.350 1_556 S
C514 H519 0.930 1_545 S
N515 Co510 2.057 . S
N515 C513 1.316 . S
N515 C514 1.375 . S
N516 C513 1.347 . S
N516 C517 1.373 1_556 S
C517 C514 1.350 1_554 S
C517 N516 1.373 1_554 S
C517 H538 0.931 . S
H518 C513 0.931 . S
H519 C514 0.930 1_565 S
C520 O527 1.259 . S
C520 O528 1.258 . S
N521 Co512 2.057 1_565 S
N521 C522 1.316 . S
N521 C523 1.375 1_565 S
C522 N521 1.316 . S
C522 N524 1.347 . S
C522 H533 0.931 . S
C523 N521 1.375 1_545 S
C523 C525 1.350 . S
C523 H532 0.930 . S
N524 C522 1.347 . S
N524 C525 1.373 1_565 S
C525 C523 1.350 . S
C525 N524 1.373 1_545 S
C525 H539 0.931 . S
C526 O529 1.256 . S
C526 O530 1.255 . S
O527 Co510 2.021 . S
O527 C520 1.259 . S
O528 Co512 2.117 . S
O528 C520 1.258 . S
O529 Co512 2.020 . S
O529 C526 1.256 . S
O530 Co510 2.062 . S
O530 C526 1.255 . S
O531 C511 1.259 . S
O531 Co512 2.021 1_565 S
H532 C523 0.930 . S
H533 C522 0.931 . S
O534 Co510 2.117 1_565 S
O534 C511 1.258 . S
O535 Co510 2.020 . S
O535 C537 1.256 . S
O536 Co512 2.062 1_565 S
O536 C537 1.255 1_565 S
C537 O535 1.256 . S
C537 O536 1.255 1_545 S
H538 C517 0.931 . S
H539 C525 0.931 . S
Co540 N545 2.057 . S
Co540 O557 2.021 . S
Co540 O560 2.062 . S
Co540 O564 2.117 . S
Co540 O565 2.020 . S
C541 O561 1.259 . S
C541 O564 1.258 . S
Co542 N551 2.057 . S
Co542 O558 2.117 . S
Co542 O559 2.020 . S
Co542 O561 2.021 . S
Co542 O566 2.062 . S
C543 N545 1.316 . S
C543 N546 1.347 . S
C543 H548 0.931 . S
C544 N545 1.375 . S
C544 C547 1.350 . S
C544 H549 0.930 . S
N545 Co540 2.057 . S
N545 C543 1.316 . S
N545 C544 1.375 . S
N546 C543 1.347 . S
N546 C547 1.373 . S
C547 C544 1.350 . S
C547 N546 1.373 . S
C547 H568 0.931 . S
H548 C543 0.931 . S
H549 C544 0.930 . S
C550 O557 1.259 . S
C550 O558 1.258 . S
N551 Co542 2.057 . S
N551 C552 1.316 . S
N551 C553 1.375 . S
C552 N551 1.316 . S
C552 N554 1.347 . S
C552 H563 0.931 . S
C553 N551 1.375 . S
C553 C555 1.350 . S
C553 H562 0.930 . S
N554 C552 1.347 . S
N554 C555 1.373 . S
C555 C553 1.350 . S
C555 N554 1.373 . S
C555 H569 0.931 . S
C556 O559 1.256 . S
C556 O560 1.255 . S
O557 Co540 2.021 . S
O557 C550 1.259 . S
O558 Co542 2.117 . S
O558 C550 1.258 . S
O559 Co542 2.020 . S
O559 C556 1.256 . S
O560 Co540 2.062 . S
O560 C556 1.255 . S
O561 C541 1.259 . S
O561 Co542 2.021 . S
H562 C553 0.930 . S
H563 C552 0.931 . S
O564 Co540 2.117 . S
O564 C541 1.258 . S
O565 Co540 2.020 . S
O565 C567 1.256 . S
O566 Co542 2.062 . S
O566 C567 1.255 . S
C567 O565 1.256 . S
C567 O566 1.255 . S
H568 C547 0.931 . S
H569 C555 0.931 . S
Co570 N575 2.057 . S
Co570 O587 2.021 1_455 S
Co570 O590 2.062 1_455 S
Co570 O594 2.117 . S
Co570 O595 2.020 . S
C571 O591 1.259 . S
C571 O594 1.258 . S
Co572 N581 2.057 . S
Co572 O588 2.117 . S
Co572 O589 2.020 . S
Co572 O591 2.021 1_655 S
Co572 O596 2.062 1_655 S
C573 N575 1.316 . S
C573 N576 1.347 . S
C573 H578 0.931 1_455 S
C574 N575 1.375 . S
C574 C577 1.350 . S
C574 H579 0.930 . S
N575 Co570 2.057 . S
N575 C573 1.316 . S
N575 C574 1.375 . S
N576 C573 1.347 . S
N576 C577 1.373 . S
C577 C574 1.350 . S
C577 N576 1.373 . S
C577 H598 0.931 . S
H578 C573 0.931 1_655 S
H579 C574 0.930 . S
C580 O587 1.259 . S
C580 O588 1.258 . S
N581 Co572 2.057 . S
N581 C582 1.316 . S
N581 C583 1.375 . S
C582 N581 1.316 . S
C582 N584 1.347 . S
C582 H593 0.931 1_655 S
C583 N581 1.375 . S
C583 C585 1.350 . S
C583 H592 0.930 . S
N584 C582 1.347 . S
N584 C585 1.373 . S
C585 C583 1.350 . S
C585 N584 1.373 . S
C585 H599 0.931 . S
C586 O589 1.256 . S
C586 O590 1.255 . S
O587 Co570 2.021 1_655 S
O587 C580 1.259 . S
O588 Co572 2.117 . S
O588 C580 1.258 . S
O589 Co572 2.020 . S
O589 C586 1.256 . S
O590 Co570 2.062 1_655 S
O590 C586 1.255 . S
O591 C571 1.259 . S
O591 Co572 2.021 1_455 S
H592 C583 0.930 . S
H593 C582 0.931 1_455 S
O594 Co570 2.117 . S
O594 C571 1.258 . S
O595 Co570 2.020 . S
O595 C597 1.256 . S
O596 Co572 2.062 1_455 S
O596 C597 1.255 . S
C597 O595 1.256 . S
C597 O596 1.255 . S
H598 C577 0.931 . S
H599 C585 0.931 . S
H600 C606 0.930 . S
H601 C609 0.930 . S
H602 C610 0.930 . S
H603 C611 0.930 . S
H604 C614 0.930 . S
H605 C615 0.930 . S
C606 H600 0.930 . S
C606 C607 1.355 . S
C606 C608 1.415 . S
C607 C606 1.355 . S
C607 C609 1.419 . S
C608 C606 1.415 . S
C608 C613 1.425 . S
C608 C615 1.409 . S
C609 H601 0.930 . S
C609 C607 1.419 . S
C609 C610 1.362 . S
C610 H602 0.930 . S
C610 C609 1.362 . S
C610 C613 1.409 . S
C611 H603 0.930 . S
C611 C612 1.355 . S
C611 C613 1.415 . S
C612 C611 1.355 . S
C612 C614 1.419 . S
C613 C608 1.425 . S
C613 C610 1.409 . S
C613 C611 1.415 . S
C614 H604 0.930 . S
C614 C612 1.419 . S
C614 C615 1.362 . S
C615 H605 0.930 . S
C615 C608 1.409 . S
C615 C614 1.362 . S
H616 C622 0.930 . S
H617 C625 0.930 . S
H618 C626 0.930 . S
H619 C627 0.930 . S
H620 C630 0.930 . S
H621 C631 0.930 . S
C622 H616 0.930 . S
C622 C623 1.355 . S
C622 C624 1.415 . S
C623 C622 1.355 . S
C623 C625 1.419 . S
C624 C622 1.415 . S
C624 C629 1.425 . S
C624 C631 1.409 . S
C625 H617 0.930 . S
C625 C623 1.419 . S
C625 C626 1.362 . S
C626 H618 0.930 . S
C626 C625 1.362 . S
C626 C629 1.409 . S
C627 H619 0.930 . S
C627 C628 1.355 . S
C627 C629 1.415 . S
C628 C627 1.355 . S
C628 C630 1.419 . S
C629 C624 1.425 . S
C629 C626 1.409 . S
C629 C627 1.415 . S
C630 H620 0.930 . S
C630 C628 1.419 . S
C630 C631 1.362 . S
C631 H621 0.930 . S
C631 C624 1.409 . S
C631 C630 1.362 . S
H632 C638 0.930 . S
H633 C641 0.930 . S
H634 C642 0.930 . S
H635 C643 0.930 . S
H636 C646 0.930 . S
H637 C647 0.930 . S
C638 H632 0.930 . S
C638 C639 1.355 . S
C638 C640 1.415 . S
C639 C638 1.355 . S
C639 C641 1.419 . S
C640 C638 1.415 . S
C640 C645 1.425 . S
C640 C647 1.409 . S
C641 H633 0.930 . S
C641 C639 1.419 . S
C641 C642 1.362 . S
C642 H634 0.930 . S
C642 C641 1.362 . S
C642 C645 1.409 . S
C643 H635 0.930 . S
C643 C644 1.355 . S
C643 C645 1.415 . S
C644 C643 1.355 . S
C644 C646 1.419 . S
C645 C640 1.425 . S
C645 C642 1.409 . S
C645 C643 1.415 . S
C646 H636 0.930 . S
C646 C644 1.419 . S
C646 C647 1.362 . S
C647 H637 0.930 . S
C647 C640 1.409 . S
C647 C646 1.362 . S
H648 C654 0.930 . S
H649 C657 0.930 . S
H650 C658 0.930 . S
H651 C659 0.916 1_455 S
H652 C662 0.930 . S
H653 C663 0.930 . S
C654 H648 0.930 . S
C654 C655 1.343 1_655 S
C654 C656 1.415 . S
C655 C654 1.343 1_455 S
C655 C657 1.432 . S
C656 C654 1.415 . S
C656 C661 1.417 1_655 S
C656 C663 1.409 . S
C657 H649 0.930 . S
C657 C655 1.432 . S
C657 C658 1.362 . S
C658 H650 0.930 . S
C658 C657 1.362 . S
C658 C661 1.417 . S
C659 H651 0.916 1_655 S
C659 C660 1.368 . S
C659 C661 1.415 1_655 S
C660 C659 1.368 . S
C660 C662 1.419 . S
C661 C656 1.417 1_455 S
C661 C658 1.417 . S
C661 C659 1.415 1_455 S
C662 H652 0.930 . S
C662 C660 1.419 . S
C662 C663 1.362 . S
C663 H653 0.930 . S
C663 C656 1.409 . S
C663 C662 1.362 . S
H664 C670 0.930 . S
H665 C673 0.930 . S
H666 C674 0.930 . S
H667 C675 0.930 . S
H668 C678 0.921 1_545 S
H669 C679 0.930 . S
C670 H664 0.930 . S
C670 C671 1.355 1_556 S
C670 C672 1.415 . S
C671 C670 1.355 1_554 S
C671 C673 1.419 . S
C672 C670 1.415 . S
C672 C677 1.425 . S
C672 C679 1.409 . S
C673 H665 0.930 . S
C673 C671 1.419 . S
C673 C674 1.362 . S
C674 H666 0.930 . S
C674 C673 1.362 . S
C674 C677 1.409 1_554 S
C675 H667 0.930 . S
C675 C676 1.355 . S
C675 C677 1.415 . S
C676 C675 1.355 . S
C676 C678 1.419 . S
C677 C672 1.425 . S
C677 C674 1.409 1_556 S
C677 C675 1.415 . S
C678 H668 0.921 1_565 S
C678 C676 1.419 . S
C678 C679 1.362 . S
C679 H669 0.930 . S
C679 C672 1.409 . S
C679 C678 1.362 . S
H680 C686 0.930 . S
H681 C689 0.930 . S
H682 C690 0.930 1_554 S
H683 C691 0.930 . S
H684 C694 0.930 . S
H685 C695 0.930 . S
C686 H680 0.930 . S
C686 C687 1.355 1_556 S
C686 C688 1.415 . S
C687 C686 1.355 1_554 S
C687 C689 1.419 . S
C688 C686 1.415 . S
C688 C693 1.425 . S
C688 C695 1.409 . S
C689 H681 0.930 . S
C689 C687 1.419 . S
C689 C690 1.362 1_554 S
C690 H682 0.930 1_556 S
C690 C689 1.362 1_556 S
C690 C693 1.409 . S
C691 H683 0.930 . S
C691 C692 1.355 . S
C691 C693 1.415 . S
C692 C691 1.355 . S
C692 C694 1.419 . S
C693 C688 1.425 . S
C693 C690 1.409 . S
C693 C691 1.415 . S
C694 H684 0.930 . S
C694 C692 1.419 . S
C694 C695 1.362 . S
C695 H685 0.930 . S
C695 C688 1.409 . S
C695 C694 1.362 . S
H696 C702 0.930 . S
H697 C705 0.930 . S
H698 C706 0.930 . S
H699 C707 0.930 . S
H700 C710 0.930 . S
H701 C711 0.930 . S
C702 H696 0.930 . S
C702 C703 1.355 1_556 S
C702 C704 1.415 . S
C703 C702 1.355 1_554 S
C703 C705 1.419 . S
C704 C702 1.415 . S
C704 C709 1.425 . S
C704 C711 1.409 . S
C705 H697 0.930 . S
C705 C703 1.419 . S
C705 C706 1.362 . S
C706 H698 0.930 . S
C706 C705 1.362 . S
C706 C709 1.409 1_554 S
C707 H699 0.930 . S
C707 C708 1.355 . S
C707 C709 1.415 . S
C708 C707 1.355 . S
C708 C710 1.419 . S
C709 C704 1.425 . S
C709 C706 1.409 1_556 S
C709 C707 1.415 . S
C710 H700 0.930 . S
C710 C708 1.419 . S
C710 C711 1.362 . S
C711 H701 0.930 . S
C711 C704 1.409 . S
C711 C710 1.362 . S
H712 C718 0.930 . S
H713 C721 0.930 . S
H714 C722 0.930 . S
H715 C723 0.938 . S
H716 C726 0.930 . S
H717 C727 0.930 1_554 S
C718 H712 0.930 . S
C718 C719 1.355 . S
C718 C720 1.415 1_554 S
C719 C718 1.355 . S
C719 C721 1.419 1_454 S
C720 C718 1.415 1_556 S
C720 C725 1.425 . S
C720 C727 1.409 . S
C721 H713 0.930 . S
C721 C719 1.419 1_656 S
C721 C722 1.362 . S
C722 H714 0.930 . S
C722 C721 1.362 . S
C722 C725 1.409 1_655 S
C723 H715 0.938 . S
C723 C724 1.355 . S
C723 C725 1.415 . S
C724 C723 1.355 . S
C724 C726 1.419 . S
C725 C720 1.425 . S
C725 C722 1.409 1_455 S
C725 C723 1.415 . S
C726 H716 0.930 . S
C726 C724 1.419 . S
C726 C727 1.362 . S
C727 H717 0.930 1_556 S
C727 C720 1.409 . S
C727 C726 1.362 . S
H728 C734 0.930 . S
H729 C737 0.930 . S
H730 C738 0.930 . S
H731 C739 0.930 . S
H732 C742 0.930 . S
H733 C743 0.930 . S
C734 H728 0.930 . S
C734 C735 1.355 1_655 S
C734 C736 1.415 . S
C735 C734 1.355 1_455 S
C735 C737 1.419 . S
C736 C734 1.415 . S
C736 C741 1.425 1_655 S
C736 C743 1.409 . S
C737 H729 0.930 . S
C737 C735 1.419 . S
C737 C738 1.362 . S
C738 H730 0.930 . S
C738 C737 1.362 . S
C738 C741 1.409 . S
C739 H731 0.930 . S
C739 C740 1.355 1_455 S
C739 C741 1.415 . S
C740 C739 1.355 1_655 S
C740 C742 1.419 . S
C741 C736 1.425 1_455 S
C741 C738 1.409 . S
C741 C739 1.415 . S
C742 H732 0.930 . S
C742 C740 1.419 . S
C742 C743 1.362 . S
C743 H733 0.930 . S
C743 C736 1.409 . S
C743 C742 1.362 . S
H744 C750 0.930 . S
H745 C753 0.930 . S
H746 C754 0.930 . S
H747 C755 0.930 . S
H748 C758 0.930 . S
H749 C759 0.930 . S
C750 H744 0.930 . S
C750 C751 1.355 . S
C750 C752 1.415 . S
C751 C750 1.355 . S
C751 C753 1.419 . S
C752 C750 1.415 . S
C752 C757 1.425 . S
C752 C759 1.409 . S
C753 H745 0.930 . S
C753 C751 1.419 . S
C753 C754 1.362 . S
C754 H746 0.930 . S
C754 C753 1.362 . S
C754 C757 1.409 . S
C755 H747 0.930 . S
C755 C756 1.355 . S
C755 C757 1.415 . S
C756 C755 1.355 . S
C756 C758 1.419 . S
C757 C752 1.425 . S
C757 C754 1.409 . S
C757 C755 1.415 . S
C758 H748 0.930 . S
C758 C756 1.419 . S
C758 C759 1.362 . S
C759 H749 0.930 . S
C759 C752 1.409 . S
C759 C758 1.362 . S
H760 C766 0.930 . S
H761 C769 0.930 . S
H762 C770 0.930 . S
H763 C771 0.930 . S
H764 C774 0.930 . S
H765 C775 0.930 . S
C766 H760 0.930 . S
C766 C767 1.355 . S
C766 C768 1.415 . S
C767 C766 1.355 . S
C767 C769 1.419 . S
C768 C766 1.415 . S
C768 C773 1.425 . S
C768 C775 1.409 . S
C769 H761 0.930 . S
C769 C767 1.419 . S
C769 C770 1.362 . S
C770 H762 0.930 . S
C770 C769 1.362 . S
C770 C773 1.409 . S
C771 H763 0.930 . S
C771 C772 1.355 . S
C771 C773 1.415 . S
C772 C771 1.355 . S
C772 C774 1.419 . S
C773 C768 1.425 . S
C773 C770 1.409 . S
C773 C771 1.415 . S
C774 H764 0.930 . S
C774 C772 1.419 . S
C774 C775 1.362 . S
C775 H765 0.930 . S
C775 C768 1.409 . S
C775 C774 1.362 . S
H776 C782 0.930 . S
H777 C785 0.930 . S
H778 C786 0.930 . S
H779 C787 0.930 . S
H780 C790 0.930 . S
H781 C791 0.930 . S
C782 H776 0.930 . S
C782 C783 1.355 . S
C782 C784 1.415 . S
C783 C782 1.355 . S
C783 C785 1.419 . S
C784 C782 1.415 . S
C784 C789 1.425 . S
C784 C791 1.409 . S
C785 H777 0.930 . S
C785 C783 1.419 . S
C785 C786 1.362 . S
C786 H778 0.930 . S
C786 C785 1.362 . S
C786 C789 1.409 . S
C787 H779 0.930 . S
C787 C788 1.355 . S
C787 C789 1.415 . S
C788 C787 1.355 . S
C788 C790 1.419 . S
C789 C784 1.425 . S
C789 C786 1.409 . S
C789 C787 1.415 . S
C790 H780 0.930 . S
C790 C788 1.419 . S
C790 C791 1.362 . S
C791 H781 0.930 . S
C791 C784 1.409 . S
C791 C790 1.362 . S
H792 C798 0.930 . S
H793 C801 0.930 . S
H794 C802 0.930 . S
H795 C803 0.930 . S
H796 C806 0.930 . S
H797 C807 0.930 . S
C798 H792 0.930 . S
C798 C799 1.355 1_455 S
C798 C800 1.415 . S
C799 C798 1.355 1_655 S
C799 C801 1.419 . S
C800 C798 1.415 . S
C800 C805 1.425 1_455 S
C800 C807 1.409 . S
C801 H793 0.930 . S
C801 C799 1.419 . S
C801 C802 1.362 . S
C802 H794 0.930 . S
C802 C801 1.362 . S
C802 C805 1.409 . S
C803 H795 0.930 . S
C803 C804 1.355 1_655 S
C803 C805 1.415 . S
C804 C803 1.355 1_455 S
C804 C806 1.419 . S
C805 C800 1.425 1_655 S
C805 C802 1.409 . S
C805 C803 1.415 . S
C806 H796 0.930 . S
C806 C804 1.419 . S
C806 C807 1.362 . S
C807 H797 0.930 . S
C807 C800 1.409 . S
C807 C806 1.362 . S
H808 C814 0.930 . S
H809 C817 0.930 . S
H810 C818 0.930 . S
H811 C819 0.930 . S
H812 C822 0.930 . S
H813 C823 0.930 . S
C814 H808 0.930 . S
C814 C815 1.355 . S
C814 C816 1.415 . S
C815 C814 1.355 . S
C815 C817 1.419 . S
C816 C814 1.415 . S
C816 C821 1.425 . S
C816 C823 1.409 . S
C817 H809 0.930 . S
C817 C815 1.419 . S
C817 C818 1.362 . S
C818 H810 0.930 . S
C818 C817 1.362 . S
C818 C821 1.409 . S
C819 H811 0.930 . S
C819 C820 1.368 . S
C819 C821 1.415 . S
C820 C819 1.368 . S
C820 C822 1.427 . S
C821 C816 1.425 . S
C821 C818 1.409 . S
C821 C819 1.415 . S
C822 H812 0.930 . S
C822 C820 1.427 . S
C822 C823 1.362 . S
C823 H813 0.930 . S
C823 C816 1.409 . S
C823 C822 1.362 . S
H824 C830 0.930 . S
H825 C833 0.930 . S
H826 C834 0.930 . S
H827 C835 0.930 . S
H828 C838 0.930 . S
H829 C839 0.930 . S
C830 H824 0.930 . S
C830 C831 1.355 . S
C830 C832 1.415 . S
C831 C830 1.355 . S
C831 C833 1.419 . S
C832 C830 1.415 . S
C832 C837 1.425 . S
C832 C839 1.409 . S
C833 H825 0.930 . S
C833 C831 1.419 . S
C833 C834 1.362 . S
C834 H826 0.930 . S
C834 C833 1.362 . S
C834 C837 1.409 . S
C835 H827 0.930 . S
C835 C836 1.355 . S
C835 C837 1.415 . S
C836 C835 1.355 . S
C836 C838 1.419 . S
C837 C832 1.425 . S
C837 C834 1.409 . S
C837 C835 1.415 . S
C838 H828 0.930 . S
C838 C836 1.419 . S
C838 C839 1.362 . S
C839 H829 0.930 . S
C839 C832 1.409 . S
C839 C838 1.362 . S
H840 C846 0.930 . S
H841 C849 0.930 . S
H842 C850 0.930 . S
H843 C851 0.930 . S
H844 C854 0.930 . S
H845 C855 0.930 1_554 S
C846 H840 0.930 . S
C846 C847 1.355 . S
C846 C848 1.415 . S
C847 C846 1.355 . S
C847 C849 1.419 . S
C848 C846 1.415 . S
C848 C853 1.425 . S
C848 C855 1.409 . S
C849 H841 0.930 . S
C849 C847 1.419 . S
C849 C850 1.362 . S
C850 H842 0.930 . S
C850 C849 1.362 . S
C850 C853 1.409 . S
C851 H843 0.930 . S
C851 C852 1.355 . S
C851 C853 1.415 . S
C852 C851 1.355 . S
C852 C854 1.419 . S
C853 C848 1.425 . S
C853 C850 1.409 . S
C853 C851 1.415 . S
C854 H844 0.930 . S
C854 C852 1.419 . S
C854 C855 1.362 . S
C855 H845 0.930 1_556 S
C855 C848 1.409 . S
C855 C854 1.362 . S
H856 C862 0.930 . S
H857 C865 0.930 . S
H858 C866 0.930 . S
H859 C867 0.930 . S
H860 C870 0.930 . S
H861 C871 0.930 . S
C862 H856 0.930 . S
C862 C863 1.338 1_455 S
C862 C864 1.415 . S
C863 C862 1.338 1_655 S
C863 C865 1.439 . S
C864 C862 1.415 . S
C864 C869 1.425 1_455 S
C864 C871 1.409 . S
C865 H857 0.930 . S
C865 C863 1.439 . S
C865 C866 1.362 . S
C866 H858 0.930 . S
C866 C865 1.362 . S
C866 C869 1.409 . S
C867 H859 0.930 . S
C867 C868 1.355 1_655 S
C867 C869 1.415 . S
C868 C867 1.355 1_455 S
C868 C870 1.419 1_554 S
C869 C864 1.425 1_655 S
C869 C866 1.409 . S
C869 C867 1.415 . S
C870 H860 0.930 . S
C870 C868 1.419 1_556 S
C870 C871 1.362 1_556 S
C871 H861 0.930 . S
C871 C864 1.409 . S
C871 C870 1.362 1_554 S
H872 C878 0.930 . S
H873 C881 0.930 . S
H874 C882 0.930 1_556 S
H875 C883 0.930 1_556 S
H876 C886 0.930 . S
H877 C887 0.930 . S
C878 H872 0.930 . S
C878 C879 1.355 . S
C878 C880 1.415 . S
C879 C878 1.355 . S
C879 C881 1.419 . S
C880 C878 1.415 . S
C880 C885 1.425 . S
C880 C887 1.409 . S
C881 H873 0.930 . S
C881 C879 1.419 . S
C881 C882 1.362 . S
C882 H874 0.930 1_554 S
C882 C881 1.362 . S
C882 C885 1.409 . S
C883 H875 0.930 1_554 S
C883 C884 1.355 . S
C883 C885 1.415 . S
C884 C883 1.355 . S
C884 C886 1.419 . S
C885 C880 1.425 . S
C885 C882 1.409 . S
C885 C883 1.415 . S
C886 H876 0.930 . S
C886 C884 1.419 . S
C886 C887 1.362 . S
C887 H877 0.930 . S
C887 C880 1.409 . S
C887 C886 1.362 . S
H888 C894 0.930 . S
H889 C897 0.930 . S
H890 C898 0.930 . S
H891 C899 0.930 . S
H892 C902 0.930 . S
H893 C903 0.930 . S
C894 H888 0.930 . S
C894 C895 1.355 . S
C894 C896 1.415 . S
C895 C894 1.355 . S
C895 C897 1.419 . S
C896 C894 1.415 . S
C896 C901 1.425 . S
C896 C903 1.409 . S
C897 H889 0.930 . S
C897 C895 1.419 . S
C897 C898 1.362 . S
C898 H890 0.930 . S
C898 C897 1.362 . S
C898 C901 1.409 . S
C899 H891 0.930 . S
C899 C900 1.355 . S
C899 C901 1.415 1_556 S
C900 C899 1.355 . S
C900 C902 1.419 . S
C901 C896 1.425 . S
C901 C898 1.409 . S
C901 C899 1.415 1_554 S
C902 H892 0.930 . S
C902 C900 1.419 . S
C902 C903 1.362 1_556 S
C903 H893 0.930 . S
C903 C896 1.409 . S
C903 C902 1.362 1_554 S
H904 C910 0.930 . S
H905 C913 0.930 . S
H906 C914 0.930 . S
H907 C915 0.930 . S
H908 C918 0.930 . S
H909 C919 0.930 . S
C910 H904 0.930 . S
C910 C911 1.355 . S
C910 C912 1.415 . S
C911 C910 1.355 . S
C911 C913 1.419 . S
C912 C910 1.415 . S
C912 C917 1.425 1_554 S
C912 C919 1.409 . S
C913 H905 0.930 . S
C913 C911 1.419 . S
C913 C914 1.362 1_554 S
C914 H906 0.930 . S
C914 C913 1.362 1_556 S
C914 C917 1.409 . S
C915 H907 0.930 . S
C915 C916 1.355 . S
C915 C917 1.415 . S
C916 C915 1.355 . S
C916 C918 1.419 1_556 S
C917 C912 1.425 1_556 S
C917 C914 1.409 . S
C917 C915 1.415 . S
C918 H908 0.930 . S
C918 C916 1.419 1_554 S
C918 C919 1.362 . S
C919 H909 0.930 . S
C919 C912 1.409 . S
C919 C918 1.362 . S
H920 C926 0.930 . S
H921 C929 0.930 . S
H922 C930 0.930 . S
H923 C931 0.930 . S
H924 C934 0.930 . S
H925 C935 0.930 . S
C926 H920 0.930 . S
C926 C927 1.355 1_455 S
C926 C928 1.415 . S
C927 C926 1.355 1_655 S
C927 C929 1.419 . S
C928 C926 1.415 . S
C928 C933 1.425 1_455 S
C928 C935 1.409 . S
C929 H921 0.930 . S
C929 C927 1.419 . S
C929 C930 1.362 . S
C930 H922 0.930 . S
C930 C929 1.362 . S
C930 C933 1.409 . S
C931 H923 0.930 . S
C931 C932 1.355 . S
C931 C933 1.415 . S
C932 C931 1.355 . S
C932 C934 1.419 1_655 S
C933 C928 1.425 1_655 S
C933 C930 1.409 . S
C933 C931 1.415 . S
C934 H924 0.930 . S
C934 C932 1.419 1_455 S
C934 C935 1.362 . S
C935 H925 0.930 . S
C935 C928 1.409 . S
C935 C934 1.362 . S
H936 C942 0.930 . S
H937 C945 0.930 . S
H938 C946 0.930 . S
H939 C947 0.930 . S
H940 C950 0.930 . S
H941 C951 0.930 . S
C942 H936 0.930 . S
C942 C943 1.355 . S
C942 C944 1.415 . S
C943 C942 1.355 . S
C943 C945 1.419 . S
C944 C942 1.415 . S
C944 C949 1.425 . S
C944 C951 1.409 . S
C945 H937 0.930 . S
C945 C943 1.419 . S
C945 C946 1.362 . S
C946 H938 0.930 . S
C946 C945 1.362 . S
C946 C949 1.409 . S
C947 H939 0.930 . S
C947 C948 1.355 . S
C947 C949 1.415 . S
C948 C947 1.355 . S
C948 C950 1.419 . S
C949 C944 1.425 . S
C949 C946 1.409 . S
C949 C947 1.415 . S
C950 H940 0.930 . S
C950 C948 1.419 . S
C950 C951 1.362 . S
C951 H941 0.930 . S
C951 C944 1.409 . S
C951 C950 1.362 . S
H952 C958 0.930 . S
H953 C961 0.930 . S
H954 C962 0.930 . S
H955 C963 0.930 . S
H956 C966 0.930 . S
H957 C967 0.930 . S
C958 H952 0.930 . S
C958 C959 1.355 . S
C958 C960 1.415 . S
C959 C958 1.355 . S
C959 C961 1.419 . S
C960 C958 1.415 . S
C960 C965 1.425 . S
C960 C967 1.409 . S
C961 H953 0.930 . S
C961 C959 1.419 . S
C961 C962 1.362 . S
C962 H954 0.930 . S
C962 C961 1.362 . S
C962 C965 1.409 . S
C963 H955 0.930 . S
C963 C964 1.355 . S
C963 C965 1.415 . S
C964 C963 1.355 . S
C964 C966 1.419 . S
C965 C960 1.425 . S
C965 C962 1.409 . S
C965 C963 1.415 . S
C966 H956 0.930 . S
C966 C964 1.419 . S
C966 C967 1.362 . S
C967 H957 0.930 . S
C967 C960 1.409 . S
C967 C966 1.362 . S
H968 C974 0.930 . S
H969 C977 0.930 . S
H970 C978 0.930 . S
H971 C979 0.930 . S
H972 C982 0.930 . S
H973 C983 0.930 . S
C974 H968 0.930 . S
C974 C975 1.355 . S
C974 C976 1.415 . S
C975 C974 1.355 . S
C975 C977 1.419 . S
C976 C974 1.415 . S
C976 C981 1.425 . S
C976 C983 1.409 . S
C977 H969 0.930 . S
C977 C975 1.419 . S
C977 C978 1.362 . S
C978 H970 0.930 . S
C978 C977 1.362 . S
C978 C981 1.409 . S
C979 H971 0.930 . S
C979 C980 1.355 . S
C979 C981 1.415 . S
C980 C979 1.355 . S
C980 C982 1.419 . S
C981 C976 1.425 . S
C981 C978 1.409 . S
C981 C979 1.415 . S
C982 H972 0.930 . S
C982 C980 1.419 . S
C982 C983 1.362 . S
C983 H973 0.930 . S
C983 C976 1.409 . S
C983 C982 1.362 . S
C607 C391 1.925 . S
C612 C490 1.897 . S
C628 C520 1.781 . S
C623 C451 1.751 . S
C644 N554 1.821 . S
C639 C241 1.611 . S
C660 N584 1.369 . S
C655 C331 1.332 1_455 S
C676 C481 1.927 1_565 S
C671 C121 1.869 . S
C687 C211 1.780 . S
C692 C511 1.779 . S
C703 C31 1.806 . S
C708 N546 1.819 . S
C719 C91 1.306 1_455 S
C724 N576 1.355 . S
C740 C496 0.557 . S
C735 C301 0.821 1_455 S
C756 C526 0.817 . S
C751 C380 0.825 . S
C772 C567 0.678 . S
C767 C440 0.726 . S
C783 C260 0.748 . S
C788 C597 0.750 . S
C799 C61 0.660 . S
C804 C507 0.492 . S
C820 C537 0.945 1_565 S
C815 C140 0.947 . S
C836 C556 0.707 . S
C831 C200 0.714 . S
C847 C20 0.841 . S
C852 C586 0.874 . S
C863 C320 1.726 . S
C868 N486 1.764 1_554 S
C879 C361 1.730 . S
C884 N516 1.882 1_554 S
C900 C541 1.934 . S
C895 C421 1.683 . S
C916 C571 2.185 . S
C911 C271 2.093 . S
C927 C80 1.703 . S
C932 N494 1.710 . S
C948 N524 1.908 . S
C943 C151 1.890 . S
C964 C550 1.951 . S
C959 C181 1.767 . S
C975 C1 1.914 . S
C980 C580 2.185 . S
