# Generated by pormake.
# Topology anh, (6,3)-cn, num edge types: 1
# Building blocks:
#     Node 0, Type 0, BuildingBlock: PAMTOO_clean_sbu_0, # of connection points: 6
#     Node 1, Type 0, BuildingBlock: PAMTOO_clean_sbu_0, # of connection points: 6
#     Node 2, Type 0, BuildingBlock: PAMTOO_clean_sbu_0, # of connection points: 6
#     Node 3, Type 1, BuildingBlock: BETDIP_clean_linker_0, # of connection points: 3
#     Node 4, Type 1, BuildingBlock: BETDIP_clean_linker_0, # of connection points: 3
#     Node 5, Type 1, BuildingBlock: BETDIP_clean_linker_0, # of connection points: 3
#     Node 6, Type 1, BuildingBlock: BETDIP_clean_linker_0, # of connection points: 3
#     Node 7, Type 1, BuildingBlock: BETDIP_clean_linker_0, # of connection points: 3
#     Node 8, Type 1, BuildingBlock: BETDIP_clean_linker_0, # of connection points: 3
#     Edge 9, Type (0, 1), BuildingBlock: AJUNOK_clean_linker_0, # of connection points: 2
#     Edge 10, Type (0, 1), BuildingBlock: AJUNOK_clean_linker_0, # of connection points: 2
#     Edge 11, Type (0, 1), BuildingBlock: AJUNOK_clean_linker_0, # of connection points: 2
#     Edge 12, Type (0, 1), BuildingBlock: AJUNOK_clean_linker_0, # of connection points: 2
#     Edge 13, Type (0, 1), BuildingBlock: AJUNOK_clean_linker_0, # of connection points: 2
#     Edge 14, Type (0, 1), BuildingBlock: AJUNOK_clean_linker_0, # of connection points: 2
#     Edge 15, Type (0, 1), BuildingBlock: AJUNOK_clean_linker_0, # of connection points: 2
#     Edge 16, Type (0, 1), BuildingBlock: AJUNOK_clean_linker_0, # of connection points: 2
#     Edge 17, Type (0, 1), BuildingBlock: AJUNOK_clean_linker_0, # of connection points: 2
#     Edge 18, Type (0, 1), BuildingBlock: AJUNOK_clean_linker_0, # of connection points: 2
#     Edge 19, Type (0, 1), BuildingBlock: AJUNOK_clean_linker_0, # of connection points: 2
#     Edge 20, Type (0, 1), BuildingBlock: AJUNOK_clean_linker_0, # of connection points: 2
#     Edge 21, Type (0, 1), BuildingBlock: AJUNOK_clean_linker_0, # of connection points: 2
#     Edge 22, Type (0, 1), BuildingBlock: AJUNOK_clean_linker_0, # of connection points: 2
#     Edge 23, Type (0, 1), BuildingBlock: AJUNOK_clean_linker_0, # of connection points: 2
#     Edge 24, Type (0, 1), BuildingBlock: AJUNOK_clean_linker_0, # of connection points: 2
#     Edge 25, Type (0, 1), BuildingBlock: AJUNOK_clean_linker_0, # of connection points: 2
#     Edge 26, Type (0, 1), BuildingBlock: AJUNOK_clean_linker_0, # of connection points: 2
# Relax obj value: 0.223
# Max RMSD: 0.214
# Mean RMSD: 0.137
data_MOF--net-anh--node1-PAMTOO_clean_sbu_0--node2-BETDIP_clean_linker_0--edge1-AJUNOK_clean_linker_0
_symmetry_space_group_name_H-M    P1
_symmetry_Int_Tables_number       1
_symmetry_cell_setting            triclinic
loop_
_symmetry_equiv_pos_as_xyz
'x, y, z'
_cell_length_a     21.909277
_cell_length_b     21.460621
_cell_length_c     36.767916
_cell_angle_alpha  92.672075
_cell_angle_beta   97.493938
_cell_angle_gamma 93.769552
loop_
_atom_site_label
_atom_site_type_symbol
_atom_site_fract_x
_atom_site_fract_y
_atom_site_fract_z
_atom_type_partial_charge
Dy0 Dy 0.15886 0.71096 0.14818 0.0
Dy1 Dy 0.14405 0.56033 0.12338 0.0
C2 C 0.15204 0.66384 0.06621 0.0
O3 O 1.05857 0.68236 0.15363 0.0
O4 O 1.05028 0.5968 0.11319 0.0
O5 O 0.16869 0.80445 0.12947 0.0
O6 O 0.16985 0.79088 0.18737 0.0
O7 O 1.12882 0.57229 0.18201 0.0
O8 O 0.19053 0.66141 0.19815 0.0
O9 O 0.24701 0.57999 0.13506 0.0
O10 O 0.25336 0.6876 0.13564 0.0
O11 O 0.16381 0.46528 0.1346 0.0
O12 O 1.09645 0.48311 0.08854 0.0
C13 C 1.02448 0.63687 0.13348 0.0
O14 O 1.12288 0.69526 0.08899 0.0
O15 O 0.17251 0.60965 0.07514 0.0
C16 C 0.23928 0.86982 0.16955 0.0
C17 C 0.35263 0.9433 0.17718 0.0
C18 C 0.35069 0.88051 0.18666 0.0
C19 C 0.29463 0.8441 0.18281 0.0
C20 C 0.24098 0.93222 0.15974 0.0
C21 C 0.29714 0.96868 0.1635 0.0
C22 C 0.18089 0.8302 0.16256 0.0
C23 C 0.16268 0.60958 0.20698 0.0
C24 C 0.2796 0.63396 0.1351 0.0
C25 C 1.07133 0.40136 0.12585 0.0
C26 C 0.98203 0.3271 0.15683 0.0
C27 C 0.99929 0.38888 0.17045 0.0
C28 C 1.04352 0.42532 0.15529 0.0
C29 C 1.05352 0.34015 0.1115 0.0
C30 C 1.009 0.30327 0.12683 0.0
C31 C 1.1181 0.44143 0.11059 0.0
H32 H 0.39255 0.85967 0.19744 0.0
H33 H 0.29461 0.79564 0.18986 0.0
H34 H 0.19896 0.95249 0.14867 0.0
H35 H 0.29723 1.01653 0.15536 0.0
H36 H 0.9781 0.40943 0.19273 0.0
H37 H 1.05558 0.4727 0.16643 0.0
H38 H 1.07415 0.32086 0.08864 0.0
H39 H 0.9964 0.2559 0.11566 0.0
Dy40 Dy 0.59598 1.01381 0.50218 0.0
Dy41 Dy 0.74713 0.03214 0.51686 0.0
C42 C 0.66723 1.01009 0.58239 0.0
O43 O 0.61814 0.11387 0.5217 0.0
O44 O 0.71533 0.12719 0.50519 0.0
O45 O 0.50738 1.01555 0.52196 0.0
O46 O 0.51267 0.98798 0.46509 0.0
O47 O 0.71999 1.02032 0.456 0.0
O48 O 0.62443 0.05771 0.45285 0.0
O49 O 0.72348 0.93076 0.52523 0.0
O50 O 0.63194 0.92252 0.48705 0.0
O51 O 0.83651 1.00942 0.50324 0.0
O52 O 0.83008 0.07823 0.54724 0.0
C53 C 0.66514 0.1504 0.51447 0.0
O54 O 0.62372 0.98193 0.55826 0.0
O55 O 0.71428 0.04216 0.57184 0.0
C56 C 0.43874 0.93294 0.49372 0.0
C57 C 0.37156 0.81584 0.48764 0.0
C58 C 0.43036 0.82375 0.5084 0.0
C59 C 0.46372 0.88196 0.51143 0.0
C60 C 0.37885 0.92607 0.4747 0.0
C61 C 0.34532 0.86797 0.47182 0.0
C62 C 0.47769 0.9904 0.49114 0.0
C63 C 0.6729 0.04439 0.43732 0.0
C64 C 0.67732 0.8963 0.5061 0.0
C65 C 0.9044 0.10167 0.50818 0.0
C66 C 0.96384 0.20153 0.47576 0.0
C67 C 0.93625 0.14891 0.45408 0.0
C68 C 0.90646 0.09967 0.47006 0.0
C69 C 0.93508 0.15257 0.53007 0.0
C70 C 0.96433 0.20207 0.51404 0.0
C71 C 0.86538 0.05502 0.5249 0.0
H72 H 0.45136 0.78442 0.5211 0.0
H73 H 0.51006 0.88654 0.52622 0.0
H74 H 0.35913 0.96484 0.46066 0.0
H75 H 0.30027 0.86295 0.45543 0.0
H76 H 0.93671 0.14624 0.42463 0.0
H77 H 0.88358 0.06104 0.45234 0.0
H78 H 0.9343 0.15528 0.55951 0.0
H79 H 0.9853 0.24188 0.53149 0.0
Dy80 Dy 0.65755 0.47456 0.83952 0.0
Dy81 Dy 0.50858 0.4514 0.81663 0.0
C82 C 0.59892 0.46692 0.75656 0.0
O83 O 0.62596 0.57199 0.83909 0.0
O84 O 0.52995 0.55118 0.80563 0.0
O85 O 0.7389 0.51523 0.87421 0.0
O86 O 0.74693 0.44624 0.83036 0.0
O87 O 0.52767 0.49951 0.87266 0.0
O88 O 0.61677 0.45485 0.89053 0.0
O89 O 0.53629 0.358 0.83441 0.0
O90 O 0.63647 0.37305 0.8237 0.0
O91 O 0.41634 0.44048 0.83171 0.0
O92 O 0.42962 0.43982 0.77446 0.0
C93 C 0.57547 0.59086 0.82069 0.0
O94 O 0.63894 0.49876 0.78123 0.0
O95 O 0.55369 0.43125 0.76656 0.0
C96 C 0.82666 0.52492 0.84374 0.0
C97 C 0.92489 0.60078 0.82383 0.0
C98 C 0.86447 0.6057 0.80647 0.0
C99 C 0.8155 0.56791 0.81642 0.0
C100 C 0.8869 0.51847 0.86014 0.0
C101 C 0.93565 0.55609 0.85031 0.0
C102 C 0.77613 0.48629 0.8554 0.0
C103 C 0.56966 0.48443 0.89887 0.0
C104 C 0.58926 0.33583 0.82955 0.0
C105 C 0.35549 0.50454 0.79387 0.0
C106 C 0.31804 0.62709 0.80084 0.0
C107 C 0.35188 0.61016 0.77256 0.0
C108 C 0.37031 0.54943 0.76902 0.0
C109 C 0.31649 0.51992 0.81982 0.0
C110 C 0.298 0.58077 0.82332 0.0
C111 C 0.39126 0.44863 0.79821 0.0
H112 H 0.85502 0.63954 0.78589 0.0
H113 H 0.76896 0.57284 0.80329 0.0
H114 H 0.89611 0.48522 0.88112 0.0
H115 H 0.98156 0.55199 0.86461 0.0
H116 H 0.36841 0.64497 0.75506 0.0
H117 H 0.40041 0.53943 0.74866 0.0
H118 H 0.30437 0.48635 0.83928 0.0
H119 H 0.27114 0.59261 0.84508 0.0
H120 H 0.63066 0.10593 0.17565 0.0
H121 H 0.74919 0.12847 0.27974 0.0
H122 H 0.56751 0.03904 0.27365 0.0
H123 H 0.79038 0.20842 0.2552 0.0
C124 C 0.7905 0.19547 0.22636 0.0
C125 C 0.63901 0.09936 0.20487 0.0
C126 C 0.59245 0.07001 0.22248 0.0
C127 C 0.69565 0.12229 0.22535 0.0
C128 C 0.70582 0.11282 0.26341 0.0
C129 C 0.6595 0.08353 0.28098 0.0
C130 C 0.60333 0.06224 0.26026 0.0
N131 N 0.74112 0.15498 0.20734 0.0
H132 H 0.68633 0.46665 0.50519 0.0
H133 H 0.64845 0.57706 0.59964 0.0
H134 H 0.63544 0.37655 0.60004 0.0
H135 H 0.58926 0.61905 0.53626 0.0
C136 C 0.6361 0.63167 0.53101 0.0
C137 C 0.67399 0.46961 0.53278 0.0
C138 C 0.66023 0.41463 0.55048 0.0
C139 C 0.66852 0.52851 0.5502 0.0
C140 C 0.65187 0.53186 0.58592 0.0
C141 C 0.63972 0.47712 0.60394 0.0
C142 C 0.64412 0.41902 0.58604 0.0
N143 N 0.67864 0.58426 0.53168 0.0
H144 H 0.16265 0.82927 0.8283 0.0
H145 H 0.25187 0.84532 0.94037 0.0
H146 H 1.11553 0.69416 0.90433 0.0
H147 H 0.30051 0.92567 0.82963 0.0
C148 C 0.28738 0.88491 0.84401 0.0
C149 C 0.16925 0.81167 0.85559 0.0
C150 C 0.13491 0.75784 0.86318 0.0
C151 C 0.2128 0.84249 0.88322 0.0
C152 C 0.21908 0.82099 0.91894 0.0
C153 C 0.18474 0.76652 0.92642 0.0
C154 C 0.14368 0.73496 0.8983 0.0
N155 N 0.25358 0.89196 0.87432 0.0
H156 H 0.20034 0.54184 0.46804 0.0
H157 H 1.11642 0.48137 0.35848 0.0
H158 H 0.25572 0.63417 0.37532 0.0
H159 H 1.04226 0.4401 0.38812 0.0
C160 C 1.06692 0.42258 0.41263 0.0
C161 C 0.19656 0.54599 0.43857 0.0
C162 C 0.23253 0.59277 0.42419 0.0
C163 C 0.15513 0.50488 0.41507 0.0
C164 C 0.14919 0.51175 0.37681 0.0
C165 C 0.18526 0.55846 0.3621 0.0
C166 C 0.22751 0.59788 0.38614 0.0
N167 N 1.12125 0.4565 0.4307 0.0
H168 H 0.5809 1.02228 0.83501 0.0
H169 H 0.61246 0.91262 0.73898 0.0
H170 H 0.62946 0.11324 0.73986 0.0
H171 H 0.51918 0.85798 0.76219 0.0
C172 C 0.54927 0.85157 0.7875 0.0
C173 C 0.5926 1.01956 0.80727 0.0
C174 C 0.6053 0.0746 0.78951 0.0
C175 C 0.59424 0.9609 0.78891 0.0
C176 C 0.6098 0.95775 0.75296 0.0
C177 C 0.62364 1.01244 0.7353 0.0
C178 C 0.62078 0.07063 0.75369 0.0
N179 N 0.58165 0.90519 0.80692 0.0
H180 H 0.59769 0.65887 0.15027 0.0
H181 H 0.68057 0.5941 0.05667 0.0
H182 H 0.48342 0.57871 0.05279 0.0
H183 H 0.73495 0.54718 0.11595 0.0
C184 C 0.75292 0.59498 0.12387 0.0
C185 C 0.59316 0.6385 0.12246 0.0
C186 C 0.53361 0.62042 0.10323 0.0
C187 C 0.64688 0.62719 0.10604 0.0
C188 C 0.63985 0.60094 0.06982 0.0
C189 C 0.58125 0.58448 0.05019 0.0
C190 C 0.52874 0.59329 0.06738 0.0
N191 N 0.70796 0.64021 0.12559 0.0
C192 C 0.37667 0.57679 0.13255 0.0
C193 C 0.34767 0.63368 0.13208 0.0
C194 C 0.43845 0.57379 0.12601 0.0
C195 C 0.47471 0.62754 0.11917 0.0
H196 H 0.35089 0.53351 0.13674 0.0
H197 H 0.45728 0.52842 0.12473 0.0
S198 S 0.42324 0.78841 0.11576 0.0
N199 N 0.3622 0.74584 0.12504 0.0
N200 N 0.47778 0.73949 0.11295 0.0
C201 C 0.44752 0.68499 0.11997 0.0
C202 C 0.38438 0.68824 0.12642 0.0
C203 C 1.04808 0.28592 0.47359 0.0
C204 C 0.99021 0.25683 0.45861 0.0
C205 C 1.07288 0.33942 0.45868 0.0
C206 C 1.04068 0.36587 0.42822 0.0
H207 H 1.07459 0.26701 0.49696 0.0
H208 H 1.11762 0.35996 0.47117 0.0
S209 S 0.88681 0.30908 0.37938 0.0
N210 N 0.90065 0.25985 0.41216 0.0
N211 N 0.94796 0.35943 0.3837 0.0
C212 C 0.98299 0.33723 0.41288 0.0
C213 C 0.95758 0.28297 0.42814 0.0
C214 C 0.52118 0.67628 0.78914 0.0
C215 C 0.56962 0.65854 0.81479 0.0
C216 C 0.51473 0.73893 0.78154 0.0
C217 C 0.5561 0.78691 0.79932 0.0
H218 H 0.48838 0.64143 0.77403 0.0
H219 H 0.47726 0.74978 0.76107 0.0
S220 S 0.68997 0.76681 0.86973 0.0
N221 N 0.65913 0.695 0.8588 0.0
N222 N 0.64678 0.81309 0.84442 0.0
C223 C 0.60414 0.77053 0.82563 0.0
C224 C 0.61099 0.70629 0.83332 0.0
C225 C 0.91845 0.67674 0.14164 0.0
C226 C 0.95526 0.62786 0.13278 0.0
C227 C 0.85301 0.66724 0.13902 0.0
C228 C 0.82202 0.60819 0.12801 0.0
H229 H 0.94013 0.7229 0.14995 0.0
H230 H 0.8267 0.70628 0.14553 0.0
S231 S 0.89621 0.46389 0.10372 0.0
N232 N 0.9541 0.51755 0.11362 0.0
N233 N 0.83385 0.50012 0.10944 0.0
C234 C 0.85853 0.55907 0.11998 0.0
C235 C 0.92419 0.56871 0.12217 0.0
C236 C 0.27732 0.74164 0.48254 0.0
C237 C 0.34012 0.75269 0.47869 0.0
C238 C 0.2437 0.68635 0.46769 0.0
C239 C 0.27172 0.64082 0.44818 0.0
H240 H 0.25339 0.77725 0.4956 0.0
H241 H 0.19459 0.68119 0.46922 0.0
S242 S 0.43565 0.64482 0.4329 0.0
N243 N 0.42983 0.71141 0.45615 0.0
N244 N 0.36628 0.60785 0.42805 0.0
C245 C 0.33514 0.64956 0.44604 0.0
C246 C 0.3695 0.70544 0.4614 0.0
C247 C 0.54137 0.22531 0.81993 0.0
C248 C 0.59463 0.26704 0.82604 0.0
C249 C 0.54529 0.16147 0.81067 0.0
C250 C 0.60252 0.13734 0.80736 0.0
H251 H 0.49608 0.24247 0.8204 0.0
H252 H 0.5031 0.13159 0.80404 0.0
S253 S 0.75616 0.2238 0.82537 0.0
N254 N 0.70712 0.27706 0.83207 0.0
N255 N 0.71356 0.15774 0.81404 0.0
C256 C 0.65616 0.17735 0.81561 0.0
C257 C 0.65246 0.24202 0.82517 0.0
C258 C 0.61258 0.79497 0.50007 0.0
C259 C 0.6712 0.82716 0.50917 0.0
C260 C 0.60266 0.73153 0.50649 0.0
C261 C 0.65113 0.69676 0.52124 0.0
H262 H 0.57315 0.81933 0.48904 0.0
H263 H 0.5562 0.70965 0.50032 0.0
S264 S 0.81441 0.7566 0.54741 0.0
N265 N 0.77924 0.81812 0.53245 0.0
N266 N 0.7607 0.69801 0.54336 0.0
C267 C 0.71061 0.72715 0.52898 0.0
C268 C 0.72058 0.7925 0.52323 0.0
C269 C 1.03492 0.62504 0.8157 0.0
C270 C 0.97624 0.64641 0.81857 0.0
C271 C 1.08831 0.66505 0.82491 0.0
C272 C 1.08432 0.72756 0.83682 0.0
H273 H 1.0399 0.57576 0.81005 0.0
H274 H 1.13285 0.64535 0.82676 0.0
S275 S 0.94197 0.80949 0.84138 0.0
N276 N 0.91725 0.73651 0.82831 0.0
N277 N 1.01801 0.81175 0.845 0.0
C278 C 1.02607 0.75152 0.83468 0.0
C279 C 0.97166 0.71078 0.82565 0.0
C280 C 0.46593 0.95879 0.17166 0.0
C281 C 0.41236 0.98225 0.18298 0.0
C282 C 0.5243 0.99074 0.18145 0.0
C283 C 0.53105 0.0472 0.20295 0.0
H284 H 0.46304 0.9142 0.15631 0.0
H285 H 0.56473 0.96914 0.17423 0.0
S286 S 0.40589 0.13055 0.23796 0.0
N287 N 0.37019 0.06728 0.21546 0.0
N288 N 0.47966 0.12713 0.23357 0.0
C289 C 0.47771 0.07287 0.2127 0.0
C290 C 0.41841 0.04052 0.20277 0.0
C291 C 0.71661 0.25949 0.52136 0.0
C292 C 0.66209 0.2195 0.51778 0.0
C293 C 0.71553 0.32427 0.52892 0.0
C294 C 0.65986 0.35122 0.53274 0.0
H295 H 0.76089 0.24036 0.52016 0.0
H296 H 0.75878 0.35276 0.53395 0.0
S297 S 0.50363 0.26961 0.52093 0.0
N298 N 0.55011 0.21361 0.51485 0.0
N299 N 0.54864 0.33485 0.52909 0.0
C300 C 0.60481 0.31267 0.52682 0.0
C301 C 0.60576 0.24696 0.51933 0.0
C302 C 0.32921 0.7173 0.84679 0.0
C303 C 0.31146 0.69394 0.8103 0.0
C304 C 0.32452 0.78012 0.85698 0.0
C305 C 0.30175 0.82189 0.83111 0.0
H306 H 0.34698 0.68676 0.8677 0.0
H307 H 0.33748 0.79588 0.88554 0.0
S308 S 0.25096 0.78529 0.73203 0.0
N309 N 0.27187 0.71808 0.748 0.0
N310 N 0.26326 0.83687 0.76748 0.0
C311 C 0.28599 0.80007 0.79436 0.0
C312 C 0.29059 0.73582 0.78388 0.0
C313 C 0.88445 0.25614 0.15299 0.0
C314 C 0.93603 0.28846 0.17433 0.0
C315 C 0.83781 0.22453 0.1696 0.0
C316 C 0.84119 0.22439 0.2081 0.0
H317 H 0.87911 0.25701 0.12332 0.0
H318 H 0.79821 0.20165 0.1522 0.0
S319 S 0.96991 0.29558 0.27611 0.0
N320 N 0.99014 0.31304 0.23588 0.0
N321 N 0.90238 0.25529 0.2669 0.0
C322 C 0.89358 0.2545 0.22957 0.0
C323 C 0.94101 0.28608 0.21277 0.0
C324 C 0.18679 0.65597 0.00381 0.0
C325 C 0.16393 0.6918 0.03137 0.0
C326 C 0.19702 0.68156 0.9705 0.0
C327 C 0.186 0.74419 0.9639 0.0
H328 H 0.19537 0.6074 0.00754 0.0
H329 H 0.21203 0.65171 0.9493 0.0
S330 S 1.12937 0.85916 0.02735 0.0
N331 N 1.13278 0.7945 0.04988 0.0
N332 N 0.1531 0.84191 0.98756 0.0
C333 C 0.16556 0.78118 -0.00843 0.0
C334 C 0.15415 0.75513 0.02521 0.0
C335 C 0.62357 0.08507 0.37896 0.0
C336 C 0.67349 0.05671 0.39795 0.0
C337 C 0.62066 0.09504 0.34152 0.0
C338 C 0.66745 0.07705 0.32131 0.0
H339 H 0.58573 0.09925 0.39293 0.0
H340 H 0.58094 0.11654 0.32814 0.0
S341 S 0.80962 1.00349 0.35781 0.0
N342 N 0.77245 1.01308 0.39373 0.0
N343 N 0.76614 0.03112 0.32297 0.0
C344 C 0.71856 0.05027 0.33993 0.0
C345 C 0.72172 0.04017 0.37829 0.0
C346 C 0.65568 0.50869 0.707 0.0
C347 C 0.60574 0.47151 0.71711 0.0
C348 C 0.66478 0.51263 0.67014 0.0
C349 C 0.62445 0.47942 0.642 0.0
H350 H 0.68886 0.53425 0.7277 0.0
H351 H 0.70493 0.54004 0.66373 0.0
S352 S 0.4835 0.3804 0.65285 0.0
N353 N 0.513 0.40423 0.69522 0.0
N354 N 0.53043 0.41196 0.62602 0.0
C355 C 0.57315 0.444 0.65142 0.0
C356 C 0.56371 0.43995 0.68893 0.0
C357 C 0.61064 0.97187 0.63291 0.0
C358 C 0.66067 1.00787 0.62207 0.0
C359 C 0.60003 0.97236 0.66967 0.0
C360 C 0.63881 1.00903 0.6971 0.0
H361 H 0.57847 0.94381 0.61279 0.0
H362 H 0.56003 0.94521 0.67648 0.0
S363 S 0.77904 0.10767 0.68431 0.0
N364 N 0.75154 0.07859 0.64258 0.0
N365 N 0.73148 0.07893 0.71167 0.0
C366 C 0.6901 0.04366 0.68703 0.0
C367 C 0.70111 0.04313 0.64957 0.0
C368 C 0.60863 0.48503 0.96613 0.0
C369 C 0.5683 0.50758 0.9375 0.0
C370 C 0.6119 0.5095 0.00244 0.0
C371 C 0.57513 0.55767 0.01166 0.0
H372 H 0.63847 0.44849 0.96046 0.0
H373 H 0.64365 0.49058 0.02349 0.0
S374 S 0.46309 0.63466 0.94701 0.0
N375 N 0.49084 0.58148 0.92105 0.0
N376 N 0.49795 0.62797 0.98909 0.0
C377 C 0.53423 0.58038 0.98342 0.0
C378 C 0.53059 0.55525 0.94645 0.0
C379 C 0.17318 0.64342 0.27329 0.0
C380 C 0.1669 0.59469 0.24598 0.0
C381 C 0.17753 0.63091 0.31049 0.0
C382 C 0.17737 0.56915 0.32203 0.0
H383 H 0.17391 0.69172 0.26589 0.0
H384 H 0.18091 0.67024 0.33039 0.0
S385 S 0.16391 0.4248 0.26083 0.0
N386 N 0.16033 0.4823 0.23249 0.0
N387 N 0.17183 0.4586 0.30263 0.0
C388 C 0.17116 0.51984 0.29483 0.0
C389 C 0.16527 0.53268 0.25679 0.0
loop_
_geom_bond_atom_site_label_1
_geom_bond_atom_site_label_2
_geom_bond_distance
_geom_bond_site_symmetry_2
_ccdc_geom_bond_type
Dy0 O3 2.307 1_455 S
Dy0 O5 2.395 . S
Dy0 O6 2.379 . S
Dy0 O8 2.339 . S
Dy0 O10 2.298 . S
Dy0 O14 2.275 . S
Dy0 C22 2.738 . S
Dy1 O4 2.298 . S
Dy1 O7 2.275 1_655 S
Dy1 O9 2.307 1_655 S
Dy1 O11 2.395 . S
Dy1 O12 2.379 . S
Dy1 O15 2.339 . S
Dy1 C31 2.738 . S
C2 O14 1.254 . S
C2 O15 1.257 1_455 S
O3 Dy0 2.307 1_655 S
O3 C13 1.266 . S
O4 Dy1 2.298 . S
O4 C13 1.236 . S
O5 Dy0 2.395 . S
O5 C22 1.255 . S
O6 Dy0 2.379 . S
O6 C22 1.249 . S
O7 Dy1 2.275 1_455 S
O7 C23 1.254 . S
O8 Dy0 2.339 . S
O8 C23 1.257 . S
O9 Dy1 2.307 1_455 S
O9 C24 1.266 . S
O10 Dy0 2.298 . S
O10 C24 1.236 . S
O11 Dy1 2.395 . S
O11 C31 1.255 . S
O12 Dy1 2.379 . S
O12 C31 1.249 . S
C13 O3 1.266 . S
C13 O4 1.236 . S
O14 Dy0 2.275 . S
O14 C2 1.254 . S
O15 Dy1 2.339 . S
O15 C2 1.257 1_655 S
C16 C19 1.344 . S
C16 C20 1.328 . S
C16 C22 1.516 . S
C17 C18 1.304 . S
C17 C21 1.323 . S
C18 C17 1.304 . S
C18 C19 1.371 . S
C18 H32 0.930 . S
C19 C16 1.344 . S
C19 C18 1.371 . S
C19 H33 0.931 . S
C20 C16 1.328 . S
C20 C21 1.433 . S
C20 H34 0.931 . S
C21 C17 1.323 . S
C21 C20 1.433 . S
C21 H35 0.933 . S
C22 Dy0 2.738 . S
C22 O5 1.255 . S
C22 O6 1.249 . S
C22 C16 1.516 . S
C23 O7 1.254 . S
C23 O8 1.257 . S
C24 O9 1.266 . S
C24 O10 1.236 . S
C25 C28 1.344 . S
C25 C29 1.328 . S
C25 C31 1.516 . S
C26 C27 1.304 . S
C26 C30 1.323 . S
C27 C26 1.304 . S
C27 C28 1.371 . S
C27 H36 0.930 . S
C28 C25 1.344 . S
C28 C27 1.371 . S
C28 H37 0.931 . S
C29 C25 1.328 . S
C29 C30 1.433 . S
C29 H38 0.931 . S
C30 C26 1.323 . S
C30 C29 1.433 . S
C30 H39 0.933 . S
C31 Dy1 2.738 . S
C31 O11 1.255 . S
C31 O12 1.249 . S
C31 C25 1.516 . S
H32 C18 0.930 . S
H33 C19 0.931 . S
H34 C20 0.931 . S
H35 C21 0.933 . S
H36 C27 0.930 . S
H37 C28 0.931 . S
H38 C29 0.931 . S
H39 C30 0.933 . S
Dy40 O43 2.307 . S
Dy40 O45 2.395 1_545 S
Dy40 O46 2.379 1_545 S
Dy40 O48 2.339 . S
Dy40 O50 2.298 1_545 S
Dy40 O54 2.275 . S
Dy40 C62 2.738 1_545 S
Dy41 O44 2.298 . S
Dy41 O47 2.275 . S
Dy41 O49 2.307 1_545 S
Dy41 O51 2.395 . S
Dy41 O52 2.379 . S
Dy41 O55 2.339 . S
Dy41 C71 2.738 . S
C42 O54 1.254 . S
C42 O55 1.257 . S
O43 Dy40 2.307 . S
O43 C53 1.266 . S
O44 Dy41 2.298 . S
O44 C53 1.236 . S
O45 Dy40 2.395 1_565 S
O45 C62 1.255 . S
O46 Dy40 2.379 1_565 S
O46 C62 1.249 . S
O47 Dy41 2.275 . S
O47 C63 1.254 . S
O48 Dy40 2.339 . S
O48 C63 1.257 . S
O49 Dy41 2.307 1_565 S
O49 C64 1.266 . S
O50 Dy40 2.298 1_565 S
O50 C64 1.236 . S
O51 Dy41 2.395 . S
O51 C71 1.255 . S
O52 Dy41 2.379 . S
O52 C71 1.249 . S
C53 O43 1.266 . S
C53 O44 1.236 . S
O54 Dy40 2.275 . S
O54 C42 1.254 . S
O55 Dy41 2.339 . S
O55 C42 1.257 . S
C56 C59 1.344 . S
C56 C60 1.328 . S
C56 C62 1.516 . S
C57 C58 1.304 . S
C57 C61 1.323 . S
C58 C57 1.304 . S
C58 C59 1.371 . S
C58 H72 0.930 . S
C59 C56 1.344 . S
C59 C58 1.371 . S
C59 H73 0.931 . S
C60 C56 1.328 . S
C60 C61 1.433 . S
C60 H74 0.931 . S
C61 C57 1.323 . S
C61 C60 1.433 . S
C61 H75 0.933 . S
C62 Dy40 2.738 1_565 S
C62 O45 1.255 . S
C62 O46 1.249 . S
C62 C56 1.516 . S
C63 O47 1.254 . S
C63 O48 1.257 . S
C64 O49 1.266 . S
C64 O50 1.236 . S
C65 C68 1.344 . S
C65 C69 1.328 . S
C65 C71 1.516 . S
C66 C67 1.304 . S
C66 C70 1.323 . S
C67 C66 1.304 . S
C67 C68 1.371 . S
C67 H76 0.930 . S
C68 C65 1.344 . S
C68 C67 1.371 . S
C68 H77 0.931 . S
C69 C65 1.328 . S
C69 C70 1.433 . S
C69 H78 0.931 . S
C70 C66 1.323 . S
C70 C69 1.433 . S
C70 H79 0.933 . S
C71 Dy41 2.738 . S
C71 O51 1.255 . S
C71 O52 1.249 . S
C71 C65 1.516 . S
H72 C58 0.930 . S
H73 C59 0.931 . S
H74 C60 0.931 . S
H75 C61 0.933 . S
H76 C67 0.930 . S
H77 C68 0.931 . S
H78 C69 0.931 . S
H79 C70 0.933 . S
Dy80 O83 2.307 . S
Dy80 O85 2.395 . S
Dy80 O86 2.379 . S
Dy80 O88 2.339 . S
Dy80 O90 2.298 . S
Dy80 O94 2.275 . S
Dy80 C102 2.738 . S
Dy81 O84 2.298 . S
Dy81 O87 2.275 . S
Dy81 O89 2.307 . S
Dy81 O91 2.395 . S
Dy81 O92 2.379 . S
Dy81 O95 2.339 . S
Dy81 C111 2.738 . S
C82 O94 1.254 . S
C82 O95 1.257 . S
O83 Dy80 2.307 . S
O83 C93 1.266 . S
O84 Dy81 2.298 . S
O84 C93 1.236 . S
O85 Dy80 2.395 . S
O85 C102 1.255 . S
O86 Dy80 2.379 . S
O86 C102 1.249 . S
O87 Dy81 2.275 . S
O87 C103 1.254 . S
O88 Dy80 2.339 . S
O88 C103 1.257 . S
O89 Dy81 2.307 . S
O89 C104 1.266 . S
O90 Dy80 2.298 . S
O90 C104 1.236 . S
O91 Dy81 2.395 . S
O91 C111 1.255 . S
O92 Dy81 2.379 . S
O92 C111 1.249 . S
C93 O83 1.266 . S
C93 O84 1.236 . S
O94 Dy80 2.275 . S
O94 C82 1.254 . S
O95 Dy81 2.339 . S
O95 C82 1.257 . S
C96 C99 1.344 . S
C96 C100 1.328 . S
C96 C102 1.516 . S
C97 C98 1.304 . S
C97 C101 1.323 . S
C98 C97 1.304 . S
C98 C99 1.371 . S
C98 H112 0.930 . S
C99 C96 1.344 . S
C99 C98 1.371 . S
C99 H113 0.931 . S
C100 C96 1.328 . S
C100 C101 1.433 . S
C100 H114 0.931 . S
C101 C97 1.323 . S
C101 C100 1.433 . S
C101 H115 0.933 . S
C102 Dy80 2.738 . S
C102 O85 1.255 . S
C102 O86 1.249 . S
C102 C96 1.516 . S
C103 O87 1.254 . S
C103 O88 1.257 . S
C104 O89 1.266 . S
C104 O90 1.236 . S
C105 C108 1.344 . S
C105 C109 1.328 . S
C105 C111 1.516 . S
C106 C107 1.304 . S
C106 C110 1.323 . S
C107 C106 1.304 . S
C107 C108 1.371 . S
C107 H116 0.930 . S
C108 C105 1.344 . S
C108 C107 1.371 . S
C108 H117 0.931 . S
C109 C105 1.328 . S
C109 C110 1.433 . S
C109 H118 0.931 . S
C110 C106 1.323 . S
C110 C109 1.433 . S
C110 H119 0.933 . S
C111 Dy81 2.738 . S
C111 O91 1.255 . S
C111 O92 1.249 . S
C111 C105 1.516 . S
H112 C98 0.930 . S
H113 C99 0.931 . S
H114 C100 0.931 . S
H115 C101 0.933 . S
H116 C107 0.930 . S
H117 C108 0.931 . S
H118 C109 0.931 . S
H119 C110 0.933 . S
H120 C125 0.930 . S
H121 C128 0.930 . S
H122 C130 0.930 . S
H123 C124 1.016 . S
C124 H123 1.016 . S
C124 N131 1.286 . S
C125 H120 0.930 . S
C125 C126 1.397 . S
C125 C127 1.361 . S
C126 C125 1.397 . S
C126 C130 1.390 . S
C127 C125 1.361 . S
C127 C128 1.393 . S
C127 N131 1.413 . S
C128 H121 0.930 . S
C128 C127 1.393 . S
C128 C129 1.399 . S
C129 C128 1.399 . S
C129 C130 1.381 . S
C130 H122 0.930 . S
C130 C126 1.390 . S
C130 C129 1.381 . S
N131 C124 1.286 . S
N131 C127 1.413 . S
H132 C137 0.930 . S
H133 C140 0.930 . S
H134 C142 0.930 . S
H135 C136 1.016 . S
C136 H135 1.016 . S
C136 N143 1.286 . S
C137 H132 0.930 . S
C137 C138 1.397 . S
C137 C139 1.361 . S
C138 C137 1.397 . S
C138 C142 1.390 . S
C139 C137 1.361 . S
C139 C140 1.393 . S
C139 N143 1.413 . S
C140 H133 0.930 . S
C140 C139 1.393 . S
C140 C141 1.399 . S
C141 C140 1.399 . S
C141 C142 1.381 . S
C142 H134 0.930 . S
C142 C138 1.390 . S
C142 C141 1.381 . S
N143 C136 1.286 . S
N143 C139 1.413 . S
H144 C149 0.930 . S
H145 C152 0.930 . S
H146 C154 0.930 . S
H147 C148 1.016 . S
C148 H147 1.016 . S
C148 N155 1.286 . S
C149 H144 0.930 . S
C149 C150 1.397 . S
C149 C151 1.361 1_655 S
C150 C149 1.397 . S
C150 C154 1.390 . S
C151 C149 1.361 1_455 S
C151 C152 1.393 . S
C151 N155 1.413 . S
C152 H145 0.930 . S
C152 C151 1.393 . S
C152 C153 1.399 . S
C153 C152 1.399 . S
C153 C154 1.381 1_455 S
C154 H146 0.930 . S
C154 C150 1.390 . S
C154 C153 1.381 1_655 S
N155 C148 1.286 . S
N155 C151 1.413 . S
H156 C161 0.930 . S
H157 C164 0.930 . S
H158 C166 0.930 . S
H159 C160 1.016 . S
C160 H159 1.016 . S
C160 N167 1.286 . S
C161 H156 0.930 . S
C161 C162 1.397 . S
C161 C163 1.361 . S
C162 C161 1.397 . S
C162 C166 1.390 . S
C163 C161 1.361 . S
C163 C164 1.393 1_455 S
C163 N167 1.413 1_455 S
C164 H157 0.930 . S
C164 C163 1.393 1_655 S
C164 C165 1.399 1_655 S
C165 C164 1.399 1_455 S
C165 C166 1.381 . S
C166 H158 0.930 . S
C166 C162 1.390 . S
C166 C165 1.381 . S
N167 C160 1.286 . S
N167 C163 1.413 1_655 S
H168 C173 0.930 . S
H169 C176 0.930 . S
H170 C178 0.930 . S
H171 C172 1.016 . S
C172 H171 1.016 . S
C172 N179 1.286 . S
C173 H168 0.930 . S
C173 C174 1.397 . S
C173 C175 1.361 1_545 S
C174 C173 1.397 . S
C174 C178 1.390 . S
C175 C173 1.361 1_565 S
C175 C176 1.393 . S
C175 N179 1.413 . S
C176 H169 0.930 . S
C176 C175 1.393 . S
C176 C177 1.399 1_565 S
C177 C176 1.399 1_545 S
C177 C178 1.381 . S
C178 H170 0.930 . S
C178 C174 1.390 . S
C178 C177 1.381 . S
N179 C172 1.286 . S
N179 C175 1.413 . S
H180 C185 0.930 . S
H181 C188 0.930 . S
H182 C190 0.930 . S
H183 C184 1.016 . S
C184 H183 1.016 . S
C184 N191 1.286 . S
C185 H180 0.930 . S
C185 C186 1.397 . S
C185 C187 1.361 . S
C186 C185 1.397 . S
C186 C190 1.390 . S
C187 C185 1.361 . S
C187 C188 1.393 . S
C187 N191 1.413 . S
C188 H181 0.930 . S
C188 C187 1.393 . S
C188 C189 1.399 . S
C189 C188 1.399 . S
C189 C190 1.381 . S
C190 H182 0.930 . S
C190 C186 1.390 . S
C190 C189 1.381 . S
N191 C184 1.286 . S
N191 C187 1.413 . S
C192 C193 1.369 . S
C192 C194 1.419 . S
C192 H196 0.930 . S
C193 C192 1.369 . S
C193 C202 1.429 . S
C194 C192 1.419 . S
C194 C195 1.363 . S
C194 H197 0.929 . S
C195 C194 1.363 . S
C195 C201 1.428 . S
H196 C192 0.930 . S
H197 C194 0.929 . S
S198 N199 1.613 . S
S198 N200 1.610 . S
N199 S198 1.613 . S
N199 C202 1.350 . S
N200 S198 1.610 . S
N200 C201 1.351 . S
C201 C195 1.428 . S
C201 N200 1.351 . S
C201 C202 1.434 . S
C202 C193 1.429 . S
C202 N199 1.350 . S
C202 C201 1.434 . S
C203 C204 1.369 . S
C203 C205 1.419 . S
C203 H207 0.930 . S
C204 C203 1.369 . S
C204 C213 1.429 . S
C205 C203 1.419 . S
C205 C206 1.363 . S
C205 H208 0.929 . S
C206 C205 1.363 . S
C206 C212 1.428 . S
H207 C203 0.930 . S
H208 C205 0.929 . S
S209 N210 1.613 . S
S209 N211 1.610 . S
N210 S209 1.613 . S
N210 C213 1.350 . S
N211 S209 1.610 . S
N211 C212 1.351 . S
C212 C206 1.428 . S
C212 N211 1.351 . S
C212 C213 1.434 . S
C213 C204 1.429 . S
C213 N210 1.350 . S
C213 C212 1.434 . S
C214 C215 1.369 . S
C214 C216 1.419 . S
C214 H218 0.930 . S
C215 C214 1.369 . S
C215 C224 1.429 . S
C216 C214 1.419 . S
C216 C217 1.363 . S
C216 H219 0.929 . S
C217 C216 1.363 . S
C217 C223 1.428 . S
H218 C214 0.930 . S
H219 C216 0.929 . S
S220 N221 1.613 . S
S220 N222 1.610 . S
N221 S220 1.613 . S
N221 C224 1.350 . S
N222 S220 1.610 . S
N222 C223 1.351 . S
C223 C217 1.428 . S
C223 N222 1.351 . S
C223 C224 1.434 . S
C224 C215 1.429 . S
C224 N221 1.350 . S
C224 C223 1.434 . S
C225 C226 1.369 . S
C225 C227 1.419 . S
C225 H229 0.930 . S
C226 C225 1.369 . S
C226 C235 1.429 . S
C227 C225 1.419 . S
C227 C228 1.363 . S
C227 H230 0.929 . S
C228 C227 1.363 . S
C228 C234 1.428 . S
H229 C225 0.930 . S
H230 C227 0.929 . S
S231 N232 1.613 . S
S231 N233 1.610 . S
N232 S231 1.613 . S
N232 C235 1.350 . S
N233 S231 1.610 . S
N233 C234 1.351 . S
C234 C228 1.428 . S
C234 N233 1.351 . S
C234 C235 1.434 . S
C235 C226 1.429 . S
C235 N232 1.350 . S
C235 C234 1.434 . S
C236 C237 1.369 . S
C236 C238 1.419 . S
C236 H240 0.930 . S
C237 C236 1.369 . S
C237 C246 1.429 . S
C238 C236 1.419 . S
C238 C239 1.363 . S
C238 H241 0.929 . S
C239 C238 1.363 . S
C239 C245 1.428 . S
H240 C236 0.930 . S
H241 C238 0.929 . S
S242 N243 1.613 . S
S242 N244 1.610 . S
N243 S242 1.613 . S
N243 C246 1.350 . S
N244 S242 1.610 . S
N244 C245 1.351 . S
C245 C239 1.428 . S
C245 N244 1.351 . S
C245 C246 1.434 . S
C246 C237 1.429 . S
C246 N243 1.350 . S
C246 C245 1.434 . S
C247 C248 1.369 . S
C247 C249 1.419 . S
C247 H251 0.930 . S
C248 C247 1.369 . S
C248 C257 1.429 . S
C249 C247 1.419 . S
C249 C250 1.363 . S
C249 H252 0.929 . S
C250 C249 1.363 . S
C250 C256 1.428 . S
H251 C247 0.930 . S
H252 C249 0.929 . S
S253 N254 1.613 . S
S253 N255 1.610 . S
N254 S253 1.613 . S
N254 C257 1.350 . S
N255 S253 1.610 . S
N255 C256 1.351 . S
C256 C250 1.428 . S
C256 N255 1.351 . S
C256 C257 1.434 . S
C257 C248 1.429 . S
C257 N254 1.350 . S
C257 C256 1.434 . S
C258 C259 1.369 . S
C258 C260 1.419 . S
C258 H262 0.930 . S
C259 C258 1.369 . S
C259 C268 1.429 . S
C260 C258 1.419 . S
C260 C261 1.363 . S
C260 H263 0.929 . S
C261 C260 1.363 . S
C261 C267 1.428 . S
H262 C258 0.930 . S
H263 C260 0.929 . S
S264 N265 1.613 . S
S264 N266 1.610 . S
N265 S264 1.613 . S
N265 C268 1.350 . S
N266 S264 1.610 . S
N266 C267 1.351 . S
C267 C261 1.428 . S
C267 N266 1.351 . S
C267 C268 1.434 . S
C268 C259 1.429 . S
C268 N265 1.350 . S
C268 C267 1.434 . S
C269 C270 1.369 . S
C269 C271 1.419 . S
C269 H273 0.930 . S
C270 C269 1.369 . S
C270 C279 1.429 . S
C271 C269 1.419 . S
C271 C272 1.363 . S
C271 H274 0.929 . S
C272 C271 1.363 . S
C272 C278 1.428 . S
H273 C269 0.930 . S
H274 C271 0.929 . S
S275 N276 1.613 . S
S275 N277 1.610 . S
N276 S275 1.613 . S
N276 C279 1.350 . S
N277 S275 1.610 . S
N277 C278 1.351 . S
C278 C272 1.428 . S
C278 N277 1.351 . S
C278 C279 1.434 . S
C279 C270 1.429 . S
C279 N276 1.350 . S
C279 C278 1.434 . S
C280 C281 1.369 . S
C280 C282 1.419 . S
C280 H284 0.930 . S
C281 C280 1.369 . S
C281 C290 1.429 . S
C282 C280 1.419 . S
C282 C283 1.363 . S
C282 H285 0.929 . S
C283 C282 1.363 . S
C283 C289 1.428 . S
H284 C280 0.930 . S
H285 C282 0.929 . S
S286 N287 1.613 . S
S286 N288 1.610 . S
N287 S286 1.613 . S
N287 C290 1.350 . S
N288 S286 1.610 . S
N288 C289 1.351 . S
C289 C283 1.428 . S
C289 N288 1.351 . S
C289 C290 1.434 . S
C290 C281 1.429 . S
C290 N287 1.350 . S
C290 C289 1.434 . S
C291 C292 1.369 . S
C291 C293 1.419 . S
C291 H295 0.930 . S
C292 C291 1.369 . S
C292 C301 1.429 . S
C293 C291 1.419 . S
C293 C294 1.363 . S
C293 H296 0.929 . S
C294 C293 1.363 . S
C294 C300 1.428 . S
H295 C291 0.930 . S
H296 C293 0.929 . S
S297 N298 1.613 . S
S297 N299 1.610 . S
N298 S297 1.613 . S
N298 C301 1.350 . S
N299 S297 1.610 . S
N299 C300 1.351 . S
C300 C294 1.428 . S
C300 N299 1.351 . S
C300 C301 1.434 . S
C301 C292 1.429 . S
C301 N298 1.350 . S
C301 C300 1.434 . S
C302 C303 1.369 . S
C302 C304 1.419 . S
C302 H306 0.930 . S
C303 C302 1.369 . S
C303 C312 1.429 . S
C304 C302 1.419 . S
C304 C305 1.363 . S
C304 H307 0.929 . S
C305 C304 1.363 . S
C305 C311 1.428 . S
H306 C302 0.930 . S
H307 C304 0.929 . S
S308 N309 1.613 . S
S308 N310 1.610 . S
N309 S308 1.613 . S
N309 C312 1.350 . S
N310 S308 1.610 . S
N310 C311 1.351 . S
C311 C305 1.428 . S
C311 N310 1.351 . S
C311 C312 1.434 . S
C312 C303 1.429 . S
C312 N309 1.350 . S
C312 C311 1.434 . S
C313 C314 1.369 . S
C313 C315 1.419 . S
C313 H317 0.930 . S
C314 C313 1.369 . S
C314 C323 1.429 . S
C315 C313 1.419 . S
C315 C316 1.363 . S
C315 H318 0.929 . S
C316 C315 1.363 . S
C316 C322 1.428 . S
H317 C313 0.930 . S
H318 C315 0.929 . S
S319 N320 1.613 . S
S319 N321 1.610 . S
N320 S319 1.613 . S
N320 C323 1.350 . S
N321 S319 1.610 . S
N321 C322 1.351 . S
C322 C316 1.428 . S
C322 N321 1.351 . S
C322 C323 1.434 . S
C323 C314 1.429 . S
C323 N320 1.350 . S
C323 C322 1.434 . S
C324 C325 1.369 . S
C324 C326 1.419 1_554 S
C324 H328 0.930 . S
C325 C324 1.369 . S
C325 C334 1.429 1_455 S
C326 C324 1.419 1_556 S
C326 C327 1.363 . S
C326 H329 0.929 . S
C327 C326 1.363 . S
C327 C333 1.413 1_456 S
H328 C324 0.930 . S
H329 C326 0.929 . S
S330 N331 1.613 . S
S330 N332 1.610 1_554 S
N331 S330 1.613 . S
N331 C334 1.350 . S
N332 S330 1.610 1_556 S
N332 C333 1.342 1_556 S
C333 C327 1.413 1_654 S
C333 N332 1.342 1_554 S
C333 C334 1.461 . S
C334 C325 1.429 1_655 S
C334 N331 1.350 . S
C334 C333 1.461 . S
C335 C336 1.369 . S
C335 C337 1.419 . S
C335 H339 0.930 . S
C336 C335 1.369 . S
C336 C345 1.429 . S
C337 C335 1.419 . S
C337 C338 1.363 . S
C337 H340 0.929 . S
C338 C337 1.363 . S
C338 C344 1.428 . S
H339 C335 0.930 . S
H340 C337 0.929 . S
S341 N342 1.613 . S
S341 N343 1.610 . S
N342 S341 1.613 . S
N342 C345 1.350 . S
N343 S341 1.610 . S
N343 C344 1.351 . S
C344 C338 1.428 . S
C344 N343 1.351 . S
C344 C345 1.434 . S
C345 C336 1.429 . S
C345 N342 1.350 . S
C345 C344 1.434 . S
C346 C347 1.369 . S
C346 C348 1.419 . S
C346 H350 0.930 . S
C347 C346 1.369 . S
C347 C356 1.429 . S
C348 C346 1.419 . S
C348 C349 1.363 . S
C348 H351 0.929 . S
C349 C348 1.363 . S
C349 C355 1.428 . S
H350 C346 0.930 . S
H351 C348 0.929 . S
S352 N353 1.613 . S
S352 N354 1.610 . S
N353 S352 1.613 . S
N353 C356 1.350 . S
N354 S352 1.610 . S
N354 C355 1.351 . S
C355 C349 1.428 . S
C355 N354 1.351 . S
C355 C356 1.434 . S
C356 C347 1.429 . S
C356 N353 1.350 . S
C356 C355 1.434 . S
C357 C358 1.369 1_565 S
C357 C359 1.419 . S
C357 H361 0.930 . S
C358 C357 1.369 1_545 S
C358 C367 1.429 . S
C359 C357 1.419 . S
C359 C360 1.363 1_565 S
C359 H362 0.929 . S
C360 C359 1.363 1_545 S
C360 C366 1.428 . S
H361 C357 0.930 . S
H362 C359 0.929 . S
S363 N364 1.613 . S
S363 N365 1.610 . S
N364 S363 1.613 . S
N364 C367 1.350 . S
N365 S363 1.610 . S
N365 C366 1.351 . S
C366 C360 1.428 . S
C366 N365 1.351 . S
C366 C367 1.434 . S
C367 C358 1.429 . S
C367 N364 1.350 . S
C367 C366 1.434 . S
C368 C369 1.369 . S
C368 C370 1.419 1_556 S
C368 H372 0.930 . S
C369 C368 1.369 . S
C369 C378 1.429 . S
C370 C368 1.419 1_554 S
C370 C371 1.363 . S
C370 H373 0.929 . S
C371 C370 1.363 . S
C371 C377 1.428 1_554 S
H372 C368 0.930 . S
H373 C370 0.929 . S
S374 N375 1.613 . S
S374 N376 1.610 . S
N375 S374 1.613 . S
N375 C378 1.350 . S
N376 S374 1.610 . S
N376 C377 1.351 . S
C377 C371 1.428 1_556 S
C377 N376 1.351 . S
C377 C378 1.434 . S
C378 C369 1.429 . S
C378 N375 1.350 . S
C378 C377 1.434 . S
C379 C380 1.369 1_655 S
C379 C381 1.419 . S
C379 H383 0.930 . S
C380 C379 1.369 1_455 S
C380 C389 1.429 . S
C381 C379 1.419 . S
C381 C382 1.363 1_655 S
C381 H384 0.929 . S
C382 C381 1.363 1_455 S
C382 C388 1.428 . S
H383 C379 0.930 . S
H384 C381 0.929 . S
S385 N386 1.613 . S
S385 N387 1.610 . S
N386 S385 1.613 . S
N386 C389 1.350 . S
N387 S385 1.610 . S
N387 C388 1.351 . S
C388 C382 1.428 . S
C388 N387 1.351 . S
C388 C389 1.434 . S
C389 C380 1.429 . S
C389 N386 1.350 . S
C389 C388 1.434 . S
C193 C24 3.258 . S
C195 C186 3.241 . S
C204 C66 1.289 . S
C206 C160 1.349 . S
C215 C93 1.918 . S
C217 C172 1.850 . S
C226 C13 2.973 . S
C228 C184 2.841 . S
C239 C162 1.215 . S
C237 C57 1.195 . S
C250 C174 1.854 . S
C248 C104 1.900 . S
C259 C64 2.000 . S
C261 C136 1.901 . S
C270 C97 1.103 . S
C272 C150 1.181 . S
C281 C17 1.353 . S
C283 C126 1.419 1_565 S
C294 C138 1.776 . S
C292 C53 1.810 . S
C305 C148 0.312 . S
C303 C106 0.600 . S
C314 C26 1.345 . S
C316 C124 1.421 . S
C327 C153 1.134 . S
C325 C2 1.112 . S
C336 C63 1.477 . S
C338 C129 1.486 . S
C347 C82 1.431 . S
C349 C141 1.453 . S
C360 C177 1.442 . S
C358 C42 1.412 . S
C371 C189 1.841 . S
C369 C103 1.817 . S
C380 C23 1.515 . S
C382 C165 1.520 . S
