# Generated by pormake.
# Topology apo, (3,6)-cn, num edge types: 1
# Building blocks:
#     Node 0, Type 0, BuildingBlock: PAMTOO_clean_linker_0, # of connection points: 3
#     Node 1, Type 0, BuildingBlock: PAMTOO_clean_linker_0, # of connection points: 3
#     Node 2, Type 0, BuildingBlock: PAMTOO_clean_linker_0, # of connection points: 3
#     Node 3, Type 0, BuildingBlock: PAMTOO_clean_linker_0, # of connection points: 3
#     Node 4, Type 0, BuildingBlock: PAMTOO_clean_linker_0, # of connection points: 3
#     Node 5, Type 0, BuildingBlock: PAMTOO_clean_linker_0, # of connection points: 3
#     Node 6, Type 0, BuildingBlock: PAMTOO_clean_linker_0, # of connection points: 3
#     Node 7, Type 0, BuildingBlock: PAMTOO_clean_linker_0, # of connection points: 3
#     Node 8, Type 1, BuildingBlock: KUMJIN_clean_sbu_1, # of connection points: 6
#     Node 9, Type 1, BuildingBlock: KUMJIN_clean_sbu_1, # of connection points: 6
#     Node 10, Type 1, BuildingBlock: KUMJIN_clean_sbu_1, # of connection points: 6
#     Node 11, Type 1, BuildingBlock: KUMJIN_clean_sbu_1, # of connection points: 6
#     Edge 12, Type (0, 1), BuildingBlock: EZIPEK_clean_linker_0, # of connection points: 2
#     Edge 13, Type (0, 1), BuildingBlock: EZIPEK_clean_linker_0, # of connection points: 2
#     Edge 14, Type (0, 1), BuildingBlock: EZIPEK_clean_linker_0, # of connection points: 2
#     Edge 15, Type (0, 1), BuildingBlock: EZIPEK_clean_linker_0, # of connection points: 2
#     Edge 16, Type (0, 1), BuildingBlock: EZIPEK_clean_linker_0, # of connection points: 2
#     Edge 17, Type (0, 1), BuildingBlock: EZIPEK_clean_linker_0, # of connection points: 2
#     Edge 18, Type (0, 1), BuildingBlock: EZIPEK_clean_linker_0, # of connection points: 2
#     Edge 19, Type (0, 1), BuildingBlock: EZIPEK_clean_linker_0, # of connection points: 2
#     Edge 20, Type (0, 1), BuildingBlock: EZIPEK_clean_linker_0, # of connection points: 2
#     Edge 21, Type (0, 1), BuildingBlock: EZIPEK_clean_linker_0, # of connection points: 2
#     Edge 22, Type (0, 1), BuildingBlock: EZIPEK_clean_linker_0, # of connection points: 2
#     Edge 23, Type (0, 1), BuildingBlock: EZIPEK_clean_linker_0, # of connection points: 2
#     Edge 24, Type (0, 1), BuildingBlock: EZIPEK_clean_linker_0, # of connection points: 2
#     Edge 25, Type (0, 1), BuildingBlock: EZIPEK_clean_linker_0, # of connection points: 2
#     Edge 26, Type (0, 1), BuildingBlock: EZIPEK_clean_linker_0, # of connection points: 2
#     Edge 27, Type (0, 1), BuildingBlock: EZIPEK_clean_linker_0, # of connection points: 2
#     Edge 28, Type (0, 1), BuildingBlock: EZIPEK_clean_linker_0, # of connection points: 2
#     Edge 29, Type (0, 1), BuildingBlock: EZIPEK_clean_linker_0, # of connection points: 2
#     Edge 30, Type (0, 1), BuildingBlock: EZIPEK_clean_linker_0, # of connection points: 2
#     Edge 31, Type (0, 1), BuildingBlock: EZIPEK_clean_linker_0, # of connection points: 2
#     Edge 32, Type (0, 1), BuildingBlock: EZIPEK_clean_linker_0, # of connection points: 2
#     Edge 33, Type (0, 1), BuildingBlock: EZIPEK_clean_linker_0, # of connection points: 2
#     Edge 34, Type (0, 1), BuildingBlock: EZIPEK_clean_linker_0, # of connection points: 2
#     Edge 35, Type (0, 1), BuildingBlock: EZIPEK_clean_linker_0, # of connection points: 2
# Relax obj value: 0.038
# Max RMSD: 0.245
# Mean RMSD: 0.174
data_MOF--net-apo--node1-KUMJIN_clean_sbu_1--node2-PAMTOO_clean_linker_0--edge1-EZIPEK_clean_linker_0
_symmetry_space_group_name_H-M    P1
_symmetry_Int_Tables_number       1
_symmetry_cell_setting            triclinic
loop_
_symmetry_equiv_pos_as_xyz
'x, y, z'
_cell_length_a     20.425207
_cell_length_b     30.704919
_cell_length_c     39.221665
_cell_angle_alpha  90.39199
_cell_angle_beta   89.842021
_cell_angle_gamma 90.233206
loop_
_atom_site_label
_atom_site_type_symbol
_atom_site_fract_x
_atom_site_fract_y
_atom_site_fract_z
_atom_type_partial_charge
H0 H 0.39034 0.46051 0.41745 0.0
H1 H 0.27228 0.39625 0.34295 0.0
H2 H 0.26583 0.35427 0.44677 0.0
H3 H 0.29967 0.28701 0.38146 0.0
C4 C 0.25794 0.30039 0.36697 0.0
O5 O 0.2309 0.33528 0.38447 0.0
H6 H 0.28015 0.31188 0.34269 0.0
C7 C 0.35095 0.43807 0.41221 0.0
C8 C 0.31816 0.41547 0.43856 0.0
C9 C 0.33256 0.43307 0.37794 0.0
C10 C 0.28764 0.40033 0.3692 0.0
C11 C 0.26707 0.37044 0.39385 0.0
C12 C 0.28279 0.37776 0.42829 0.0
H13 H 0.19249 0.04144 0.93921 0.0
H14 H 0.30514 0.15863 0.95259 0.0
H15 H 0.2337 0.12507 0.8533 0.0
H16 H 0.3157 0.22971 0.91872 0.0
C17 C 0.30052 0.2204 0.89246 0.0
O18 O 0.31228 0.17657 0.88728 0.0
H19 H 0.24725 0.22709 0.89218 0.0
C20 C 0.21432 0.07042 0.92834 0.0
C21 C 0.20934 0.07849 0.8929 0.0
C22 C 0.24489 0.10084 0.95021 0.0
C23 C 0.27828 0.13641 0.93615 0.0
C24 C 0.27535 0.14445 0.90113 0.0
C25 C 0.23762 0.11721 0.8801 0.0
H26 H 0.90372 0.08143 0.59613 0.0
H27 H 0.79657 0.12045 0.68586 0.0
H28 H 0.78986 0.19965 0.59635 0.0
H29 H 0.81188 0.24087 0.67147 0.0
C30 C 0.77266 0.22058 0.68311 0.0
O31 O 0.7486 0.19098 0.6596 0.0
H32 H 0.79796 0.20347 0.70416 0.0
C33 C 0.87121 0.10408 0.60895 0.0
C34 C 0.84826 0.14113 0.59163 0.0
C35 C 0.85352 0.09706 0.6432 0.0
C36 C 0.81078 0.12593 0.65958 0.0
C37 C 0.78831 0.16291 0.64286 0.0
C38 C 0.8074 0.17076 0.60909 0.0
H39 H 0.69434 0.45296 0.10195 0.0
H40 H 0.76681 0.3237 0.08184 0.0
H41 H 0.74802 0.3694 0.18505 0.0
H42 H 0.88176 0.32545 0.14673 0.0
C43 C 0.85187 0.29521 0.1442 0.0
O44 O 0.78572 0.30432 0.14594 0.0
H45 H 0.86425 0.28295 0.11828 0.0
C46 C 0.71273 0.42209 0.11106 0.0
C47 C 0.71704 0.41467 0.14632 0.0
C48 C 0.73119 0.38957 0.08753 0.0
C49 C 0.75317 0.34924 0.09967 0.0
C50 C 0.76097 0.34243 0.13469 0.0
C51 C 0.74321 0.37517 0.15795 0.0
H52 H 0.59373 0.57641 0.60771 0.0
H53 H 0.72588 0.68401 0.59197 0.0
H54 H 0.69702 0.63305 0.6928 0.0
H55 H 0.70345 0.73126 0.68647 0.0
C56 C 0.74388 0.73273 0.66747 0.0
O57 O 0.75999 0.69138 0.65626 0.0
H58 H 0.7232 0.75193 0.64617 0.0
C59 C 0.62668 0.60099 0.61794 0.0
C60 C 0.64067 0.6017 0.65299 0.0
C61 C 0.65725 0.63049 0.59578 0.0
C62 C 0.7013 0.66153 0.60895 0.0
C63 C 0.71492 0.66291 0.644 0.0
C64 C 0.68478 0.63288 0.66594 0.0
H65 H 0.85327 0.97154 0.09996 0.0
H66 H 0.82974 0.88189 0.18364 0.0
H67 H 0.77265 0.84363 0.08285 0.0
H68 H 0.67803 0.81601 0.12751 0.0
C69 C 0.70349 0.81835 0.15248 0.0
O70 O 0.77017 0.82227 0.14726 0.0
H71 H 0.68334 0.84853 0.16427 0.0
C72 C 0.8382 0.94016 0.10983 0.0
C73 C 0.81425 0.9082 0.08714 0.0
C74 C 0.84534 0.93102 0.14491 0.0
C75 C 0.82479 0.89 0.15693 0.0
C76 C 0.79631 0.85946 0.13483 0.0
C77 C 0.79291 0.86806 0.09994 0.0
H78 H 0.13521 0.92524 0.43165 0.0
H79 H 0.26938 0.81877 0.44217 0.0
H80 H 0.23642 0.87409 0.34342 0.0
H81 H 0.23811 0.7615 0.37301 0.0
C82 C 0.2903 0.76938 0.37764 0.0
O83 O 0.30003 0.81398 0.37731 0.0
H84 H 0.29958 0.75703 0.40375 0.0
C85 C 0.16859 0.90195 0.4202 0.0
C86 C 0.18234 0.90371 0.38502 0.0
C87 C 0.19932 0.871 0.4408 0.0
C88 C 0.24438 0.84206 0.42621 0.0
C89 C 0.25639 0.84225 0.39102 0.0
C90 C 0.22526 0.87301 0.37042 0.0
H91 H 0.3464 0.55096 0.92176 0.0
H92 H 0.26484 0.62736 0.84006 0.0
H93 H 0.28008 0.68119 0.93962 0.0
H94 H 0.16386 0.71121 0.90876 0.0
C95 C 0.17464 0.70317 0.8817 0.0
O96 O 0.24051 0.6944 0.87757 0.0
H97 H 0.14454 0.67348 0.87682 0.0
C98 C 0.32179 0.57946 0.91213 0.0
C99 C 0.31463 0.61515 0.93446 0.0
C100 C 0.29745 0.58054 0.87822 0.0
C101 C 0.27519 0.62143 0.86643 0.0
C102 C 0.2673 0.6569 0.88871 0.0
C103 C 0.28658 0.65358 0.92258 0.0
Eu104 Eu 0.10278 0.11146 0.24179 0.0
C105 C 0.81558 0.06387 0.3013 0.0
N106 N 0.84491 0.09994 0.28831 0.0
C107 C 0.74981 0.11506 0.25484 0.0
C108 C 0.75254 0.0511 0.29042 0.0
C109 C 0.81208 0.1266 0.26659 0.0
C110 C 0.72016 0.07689 0.26652 0.0
C111 C 0.81896 1.00219 0.33967 0.0
C112 C 0.84855 0.03971 0.3257 0.0
C113 C 0.75661 0.98907 0.32848 0.0
C114 C 0.72355 0.01341 0.30391 0.0
Eu115 Eu 0.94927 0.11725 0.30998 0.0
N116 N 0.90942 0.05268 0.33568 0.0
C117 C 0.85282 0.97896 0.36456 0.0
C118 C 0.94087 0.03149 0.3614 0.0
C119 C 0.91372 0.99395 0.3757 0.0
H120 H 0.83401 0.15668 0.25819 0.0
H121 H 0.93938 0.97698 0.3957 0.0
H122 H 0.20171 0.03386 0.27569 0.0
H123 H 0.16073 0.28083 0.21446 0.0
H124 H 0.98615 0.04391 0.37176 0.0
H125 H 0.83179 0.94996 0.37583 0.0
H126 H 0.09948 0.21114 0.2093 0.0
H127 H 0.72451 0.13579 0.23702 0.0
H128 H 0.73338 0.96022 0.3388 0.0
H129 H 0.67532 1.003 0.2957 0.0
H130 H 0.30312 0.03039 0.30905 0.0
H131 H 0.67177 0.0681 0.25747 0.0
H132 H 0.25959 0.28499 0.25078 0.0
N133 N 0.20302 0.10312 0.27166 0.0
C134 C 0.23926 0.13998 0.27619 0.0
C135 C 0.2853 0.06153 0.30033 0.0
C136 C 0.2988 0.13926 0.29434 0.0
C137 C 0.22687 0.06382 0.28194 0.0
C138 C 0.32098 0.09949 0.30699 0.0
N139 N 0.16152 0.17768 0.2435 0.0
C140 C 0.14249 0.2131 0.22525 0.0
C141 C 0.2547 0.21706 0.26517 0.0
C142 C 0.21792 0.17836 0.26166 0.0
C143 C 0.23289 0.25455 0.24858 0.0
C144 C 0.17709 0.25235 0.22807 0.0
H145 H 0.36633 0.09758 0.32116 0.0
H146 H 0.37972 0.17825 0.31339 0.0
H147 H 0.34084 0.24647 0.28797 0.0
O148 O 0.10257 0.12177 0.18654 0.0
O149 O 0.08319 0.1686 0.2778 0.0
O150 O 0.05091 0.13758 0.32749 0.0
O151 O 0.17133 0.07717 0.2081 0.0
O152 O 0.00933 0.14258 0.22224 0.0
O153 O 0.95431 0.17064 0.26971 0.0
O154 O 0.89687 0.12389 0.3584 0.0
O155 O 0.93066 0.08086 0.25921 0.0
O156 O 0.03148 0.05477 0.24125 0.0
O157 O 0.9196 0.18131 0.32945 0.0
O158 O 0.03913 0.07962 0.3257 0.0
O159 O 0.08896 0.05258 0.27695 0.0
C160 C 0.08675 0.1661 0.31109 0.0
C161 C 0.20117 0.11086 0.15607 0.0
C162 C 0.2426 0.1154 0.09755 0.0
C163 C 0.29609 0.13994 0.10946 0.0
C164 C 0.25489 0.13558 0.16738 0.0
C165 C 0.3021 0.14992 0.14414 0.0
C166 C 0.19521 0.10072 0.12108 0.0
C167 C 0.96653 0.16905 0.23659 0.0
C168 C 0.15095 0.09558 0.18035 0.0
C169 C 0.33445 0.17807 0.29905 0.0
C170 C 0.31235 0.21692 0.28457 0.0
C171 C 0.96717 0.05534 0.23961 0.0
C172 C 0.91664 0.18834 0.39051 0.0
C173 C 0.91609 0.19188 0.45312 0.0
C174 C 0.94684 0.23281 0.45153 0.0
C175 C 0.94705 0.22948 0.38983 0.0
C176 C 0.90164 0.16955 0.42246 0.0
C177 C 0.96246 0.25127 0.42012 0.0
C178 C 0.07369 0.0498 0.3097 0.0
C179 C 0.89719 0.16614 0.35823 0.0
H180 H 0.33297 0.15163 0.09181 0.0
H181 H 0.26036 0.14372 0.19412 0.0
H182 H 0.34343 0.16898 0.15303 0.0
H183 H 0.15366 0.08182 0.11211 0.0
H184 H 0.9584 0.25059 0.47471 0.0
H185 H 0.95824 0.24519 0.36591 0.0
H186 H 0.87751 0.13808 0.42359 0.0
H187 H 0.98591 0.28292 0.41923 0.0
Eu188 Eu 0.43547 0.37986 0.72924 0.0
C189 C 0.69147 0.46644 0.77706 0.0
N190 N 0.67403 0.42403 0.78109 0.0
C191 C 0.77795 0.401 0.75919 0.0
C192 C 0.75201 0.4777 0.76212 0.0
C193 C 0.71718 0.39146 0.77393 0.0
C194 C 0.79495 0.44427 0.75266 0.0
C195 C 0.66736 0.54288 0.78637 0.0
C196 C 0.64946 0.49862 0.78904 0.0
C197 C 0.72613 0.55431 0.76995 0.0
C198 C 0.76837 0.52179 0.75788 0.0
Eu199 Eu 0.56915 0.41075 0.80406 0.0
N200 N 0.59249 0.48656 0.8045 0.0
C201 C 0.62655 0.57431 0.80111 0.0
C202 C 0.55471 0.51692 0.82077 0.0
C203 C 0.57078 0.56119 0.81902 0.0
H204 H 0.70456 0.358 0.77921 0.0
H205 H 0.53999 0.58517 0.83141 0.0
H206 H 0.29823 0.44117 0.73365 0.0
H207 H 0.45759 0.20396 0.71201 0.0
H208 H 0.51215 0.50746 0.83531 0.0
H209 H 0.63865 0.60864 0.79967 0.0
H210 H 0.49503 0.28059 0.71109 0.0
H211 H 0.8115 0.37498 0.7528 0.0
H212 H 0.74016 0.58819 0.76723 0.0
H213 H 0.8143 0.53109 0.74606 0.0
H214 H 0.1799 0.4303 0.74314 0.0
H215 H 0.842 0.45156 0.74118 0.0
H216 H 0.34247 0.18681 0.72667 0.0
N217 N 0.32086 0.37369 0.73674 0.0
C218 C 0.29677 0.33235 0.73822 0.0
C219 C 0.2123 0.40251 0.74217 0.0
C220 C 0.22912 0.32465 0.74262 0.0
C221 C 0.27953 0.40858 0.73733 0.0
C222 C 0.18705 0.3604 0.74521 0.0
N223 N 0.40392 0.30588 0.72809 0.0
C224 C 0.44538 0.27322 0.71849 0.0
C225 C 0.31542 0.2544 0.73383 0.0
C226 C 0.33945 0.29754 0.73389 0.0
C227 C 0.35903 0.22038 0.7269 0.0
C228 C 0.42407 0.2299 0.71863 0.0
H229 H 0.13484 0.3558 0.7487 0.0
H230 H 0.15371 0.27518 0.74736 0.0
H231 H 0.22925 0.21372 0.73978 0.0
O232 O 0.4774 0.38495 0.67798 0.0
O233 O 0.45069 0.3315 0.77195 0.0
O234 O 0.47969 0.37148 0.81956 0.0
O235 O 0.37315 0.38101 0.68414 0.0
O236 O 0.54154 0.35808 0.72352 0.0
O237 O 0.58118 0.34506 0.77783 0.0
O238 O 0.5788 0.4291 0.85746 0.0
O239 O 0.57579 0.43482 0.74915 0.0
O240 O 0.47099 0.44977 0.73345 0.0
O241 O 0.63539 0.37524 0.83804 0.0
O242 O 0.4696 0.44098 0.81301 0.0
O243 O 0.39841 0.43175 0.76669 0.0
C244 C 0.44746 0.33944 0.80481 0.0
C245 C 0.41138 0.42235 0.63855 0.0
C246 C 0.37925 0.44599 0.58183 0.0
C247 C 0.37623 0.48914 0.59408 0.0
C248 C 0.40892 0.46564 0.65016 0.0
C249 C 0.39193 0.49889 0.62789 0.0
C250 C 0.39812 0.41269 0.60417 0.0
C251 C 0.58083 0.33768 0.74468 0.0
C252 C 0.42097 0.38689 0.66285 0.0
C253 C 0.20543 0.28167 0.74371 0.0
C254 C 0.24848 0.24665 0.73948 0.0
C255 C 0.53319 0.4605 0.73445 0.0
C256 C 0.67784 0.41569 0.88516 0.0
C257 C 0.72595 0.42439 0.94175 0.0
C258 C 0.77073 0.45468 0.9283 0.0
C259 C 0.72342 0.44553 0.87212 0.0
C260 C 0.68009 0.40454 0.91982 0.0
C261 C 0.76992 0.46469 0.8936 0.0
C262 C 0.41405 0.44819 0.79694 0.0
C263 C 0.6228 0.40006 0.8643 0.0
H264 H 0.36173 0.51532 0.57737 0.0
H265 H 0.41841 0.4736 0.67659 0.0
H266 H 0.38962 0.5322 0.63702 0.0
H267 H 0.39989 0.37926 0.59513 0.0
H268 H 0.80622 0.47058 0.94471 0.0
H269 H 0.72208 0.45483 0.84562 0.0
H270 H 0.64455 0.38174 0.93007 0.0
H271 H 0.80459 0.48803 0.88346 0.0
Eu272 Eu 0.07817 0.89589 0.72823 0.0
C273 C 0.79774 0.85774 0.79031 0.0
N274 N 0.82733 0.89549 0.78063 0.0
C275 C 0.73052 0.91751 0.75122 0.0
C276 C 0.73325 0.84804 0.77993 0.0
C277 C 0.79429 0.92594 0.76236 0.0
C278 C 0.70002 0.87826 0.75982 0.0
C279 C 0.80149 0.79019 0.82204 0.0
C280 C 0.83207 0.82886 0.8108 0.0
C281 C 0.73755 0.78022 0.81138 0.0
C282 C 0.70368 0.80893 0.79025 0.0
Eu283 Eu 0.93404 0.90698 0.80129 0.0
N284 N 0.89465 0.83875 0.8202 0.0
C285 C 0.83595 0.76271 0.84386 0.0
C286 C 0.92687 0.81322 0.84305 0.0
C287 C 0.89861 0.77451 0.85466 0.0
H288 H 0.81726 0.95667 0.75633 0.0
H289 H 0.92483 0.75414 0.87237 0.0
H290 H 0.19704 0.85591 0.77784 0.0
H291 H 0.07702 0.0388 0.64563 0.0
H292 H 0.97365 0.82293 0.85329 0.0
H293 H 0.81415 0.73273 0.853 0.0
H294 H 0.03224 0.97183 0.67068 0.0
H295 H 0.70476 0.9414 0.73623 0.0
H296 H 0.71369 0.75044 0.81948 0.0
H297 H 0.65426 0.80084 0.78239 0.0
H298 H 0.31034 0.87517 0.79439 0.0
H299 H 0.65046 0.87193 0.75129 0.0
H300 H 0.18847 0.06367 0.66091 0.0
N301 N 0.18468 0.91197 0.74711 0.0
C302 C 0.21302 0.94774 0.73298 0.0
C303 C 0.28338 0.89596 0.77728 0.0
C304 C 0.27788 0.95954 0.7413 0.0
C305 C 0.2192 0.88529 0.76812 0.0
C306 C 0.31274 0.93336 0.76398 0.0
N307 N 0.11359 0.96176 0.70349 0.0
C308 C 0.0791 0.9837 0.67933 0.0
C309 C 0.20536 0.01038 0.69564 0.0
C310 C 0.17675 0.97306 0.71048 0.0
C311 C 0.16829 0.03479 0.67276 0.0
C312 C 0.10518 0.02107 0.66427 0.0
H313 H 0.36258 0.94147 0.77107 0.0
H314 H 0.35566 1.0065 0.73296 0.0
H315 H 0.29242 0.0508 0.69293 0.0
O316 O 0.08234 0.88723 0.6724 0.0
O317 O 0.10499 0.93359 0.77758 0.0
O318 O 0.00839 0.9616 0.79902 0.0
O319 O 0.14693 0.84981 0.70547 0.0
O320 O 0.98218 0.92904 0.71575 0.0
O321 O 0.94221 0.9633 0.76423 0.0
O322 O 0.93034 0.91046 0.85697 0.0
O323 O 0.90775 0.87167 0.75184 0.0
O324 O 0.00279 0.84111 0.73019 0.0
O325 O 0.8686 0.95254 0.82763 0.0
O326 O 0.02819 0.86995 0.81395 0.0
O327 O 0.07353 0.84036 0.76469 0.0
C328 C 0.07246 0.95922 0.7989 0.0
C329 C 0.15869 0.83684 0.64454 0.0
C330 C 0.18234 0.83351 0.58351 0.0
C331 C 0.22075 0.79642 0.58878 0.0
C332 C 0.19747 0.79965 0.64921 0.0
C333 C 0.22802 0.77953 0.62145 0.0
C334 C 0.15068 0.85352 0.61141 0.0
C335 C 0.95335 0.96199 0.73111 0.0
C336 C 0.12912 0.85869 0.67448 0.0
C337 C 0.30595 0.9969 0.72678 0.0
C338 C 0.2699 0.02216 0.70399 0.0
C339 C 0.93877 0.84199 0.73379 0.0
C340 C 0.82912 0.92912 0.88168 0.0
C341 C 0.79029 0.91944 0.94018 0.0
C342 C 0.72894 0.90645 0.92753 0.0
C343 C 0.76717 0.91647 0.8696 0.0
C344 C 0.84019 0.93103 0.91708 0.0
C345 C 0.71748 0.9052 0.89246 0.0
C346 C 0.06184 0.83953 0.79756 0.0
C347 C 0.88342 0.93884 0.85797 0.0
H348 H 0.24523 0.78061 0.56753 0.0
H349 H 0.20441 0.78611 0.67437 0.0
H350 H 0.25779 0.75091 0.62532 0.0
H351 H 0.12131 0.88233 0.60734 0.0
H352 H 0.68999 0.89723 0.94488 0.0
H353 H 0.75709 0.91512 0.84257 0.0
H354 H 0.88785 0.94074 0.92667 0.0
H355 H 0.67001 0.89523 0.88293 0.0
Eu356 Eu 0.47599 0.61222 0.21668 0.0
C357 C 0.76258 0.59207 0.275 0.0
N358 N 0.70928 0.56801 0.28396 0.0
C359 C 0.77101 0.50219 0.27714 0.0
C360 C 0.82183 0.57177 0.26556 0.0
C361 C 0.71362 0.52376 0.28672 0.0
C362 C 0.82504 0.52624 0.26601 0.0
C363 C 0.81455 0.66304 0.26976 0.0
C364 C 0.75898 0.63722 0.27683 0.0
C365 C 0.87278 0.64296 0.25901 0.0
C366 C 0.87635 0.59745 0.25682 0.0
Eu367 Eu 0.61267 0.60796 0.29572 0.0
N368 N 0.70168 0.65592 0.28671 0.0
C369 C 0.81039 0.7082 0.27461 0.0
C370 C 0.69902 0.69932 0.29435 0.0
C371 C 0.75277 0.7263 0.28762 0.0
H372 H 0.67235 0.50494 0.29584 0.0
H373 H 0.74974 0.76097 0.2925 0.0
H374 H 0.33699 0.66549 0.23371 0.0
H375 H 0.5055 0.45555 0.15057 0.0
H376 H 0.65473 0.71306 0.3047 0.0
H377 H 0.852 0.72916 0.26944 0.0
H378 H 0.53867 0.52889 0.16939 0.0
H379 H 0.77359 0.46704 0.27845 0.0
H380 H 0.91579 0.66228 0.25309 0.0
H381 H 0.92205 0.58241 0.2492 0.0
H382 H 0.21848 0.64981 0.23774 0.0
H383 H 0.86956 0.50944 0.25876 0.0
H384 H 0.39241 0.42972 0.16085 0.0
N385 N 0.36201 0.60076 0.21954 0.0
C386 C 0.33992 0.56067 0.21027 0.0
C387 C 0.25214 0.6243 0.2303 0.0
C388 C 0.27268 0.55026 0.21206 0.0
C389 C 0.31928 0.63299 0.22821 0.0
C390 C 0.22881 0.58254 0.22274 0.0
N391 N 0.44828 0.54263 0.19428 0.0
C392 C 0.49055 0.51717 0.17601 0.0
C393 C 0.36237 0.48951 0.18585 0.0
C394 C 0.38435 0.53067 0.19739 0.0
C395 C 0.40733 0.46156 0.17011 0.0
C396 C 0.47131 0.47591 0.16444 0.0
H397 H 0.17676 0.57589 0.22435 0.0
H398 H 0.19983 0.49981 0.20376 0.0
H399 H 0.2784 0.44658 0.18081 0.0
O400 O 0.48276 0.61444 0.16066 0.0
O401 O 0.4408 0.57112 0.2611 0.0
O402 O 0.52566 0.56174 0.30107 0.0
O403 O 0.44043 0.66803 0.18854 0.0
O404 O 0.57676 0.58054 0.21256 0.0
O405 O 0.59093 0.54831 0.2642 0.0
O406 O 0.60733 0.64033 0.34554 0.0
O407 O 0.63682 0.64773 0.24804 0.0
O408 O 0.53596 0.67024 0.23222 0.0
O409 O 0.65652 0.57864 0.34082 0.0
O410 O 0.5251 0.65211 0.30545 0.0
O411 O 0.44588 0.65388 0.26221 0.0
C412 C 0.46604 0.55434 0.28905 0.0
C413 C 0.39413 0.65205 0.13456 0.0
C414 C 0.34906 0.64027 0.07756 0.0
C415 C 0.28987 0.659 0.08831 0.0
C416 C 0.33446 0.67131 0.14447 0.0
C417 C 0.28266 0.67426 0.1216 0.0
C418 C 0.40095 0.63621 0.10091 0.0
C419 C 0.59742 0.54767 0.23102 0.0
C420 C 0.44982 0.65055 0.15867 0.0
C421 C 0.25121 0.50855 0.20223 0.0
C422 C 0.29597 0.47822 0.1892 0.0
C423 C 0.59919 0.67204 0.22906 0.0
C424 C 0.60326 0.59374 0.393 0.0
C425 C 0.59171 0.59562 0.45497 0.0
C426 C 0.53987 0.56565 0.45248 0.0
C427 C 0.55173 0.56345 0.39112 0.0
C428 C 0.62329 0.60978 0.42505 0.0
C429 C 0.52 0.54969 0.42073 0.0
C430 C 0.46844 0.66488 0.29274 0.0
C431 C 0.63596 0.60878 0.36168 0.0
H432 H 0.24939 0.66222 0.07072 0.0
H433 H 0.32773 0.68471 0.1698 0.0
H434 H 0.23704 0.68903 0.12957 0.0
H435 H 0.44672 0.62176 0.09266 0.0
H436 H 0.51517 0.55456 0.47525 0.0
H437 H 0.5362 0.55034 0.36679 0.0
H438 H 0.66332 0.63298 0.42675 0.0
H439 H 0.48012 0.52645 0.41905 0.0
C440 C 0.17352 0.98336 0.37296 0.0
C441 C 0.15564 0.94016 0.36436 0.0
C442 C 0.08576 0.96821 0.3186 0.0
C443 C 0.09848 0.01177 0.32982 0.0
N444 N 0.1365 0.05705 0.37716 0.0
N445 N 0.08548 0.89129 0.33285 0.0
C446 C 0.13692 0.01842 0.35976 0.0
C447 C 0.10937 0.93243 0.33809 0.0
N448 N 0.22644 0.99121 0.39339 0.0
N449 N 0.04959 0.96074 0.28993 0.0
H450 H 0.10106 0.86451 0.34683 0.0
H451 H 0.04632 0.88424 0.31676 0.0
H452 H 0.02486 0.98519 0.27718 0.0
H453 H 0.04616 0.93038 0.27804 0.0
H454 H 0.2453 0.02241 0.39752 0.0
H455 H 0.25574 0.96641 0.403 0.0
H456 H 0.15987 0.06129 0.40056 0.0
H457 H 0.1063 0.08296 0.37139 0.0
C458 C 0.31348 0.49864 0.86935 0.0
C459 C 0.30149 0.54014 0.85536 0.0
C460 C 0.33637 0.5132 0.79943 0.0
C461 C 0.36561 0.47644 0.8153 0.0
N462 N 0.37014 0.43009 0.86508 0.0
N463 N 0.24669 0.56345 0.8045 0.0
C464 C 0.34997 0.46768 0.85013 0.0
C465 C 0.29695 0.54166 0.81937 0.0
N466 N 0.28291 0.48724 0.89898 0.0
N467 N 0.34683 0.52226 0.76585 0.0
H468 H 0.20774 0.57548 0.81901 0.0
H469 H 0.23798 0.56261 0.77831 0.0
H470 H 0.37359 0.50251 0.74941 0.0
H471 H 0.33177 0.55144 0.75494 0.0
H472 H 0.28418 0.45604 0.9092 0.0
H473 H 0.24941 0.50799 0.9109 0.0
H474 H 0.36879 0.4251 0.89132 0.0
H475 H 0.38928 0.40415 0.85126 0.0
C476 C 0.56238 0.57531 0.69871 0.0
C477 C 0.61379 0.56667 0.6752 0.0
C478 C 0.60268 0.48879 0.68617 0.0
C479 C 0.5575 0.49729 0.71289 0.0
N480 N 0.49819 0.54974 0.7468 0.0
N481 N 0.69236 0.51592 0.65209 0.0
C482 C 0.53814 0.54094 0.71971 0.0
C483 C 0.63692 0.52364 0.67073 0.0
N484 N 0.53562 0.61598 0.7003 0.0
N485 N 0.60936 0.44764 0.67355 0.0
H486 H 0.71948 0.54066 0.64054 0.0
H487 H 0.71483 0.48551 0.65103 0.0
H488 H 0.58144 0.42186 0.68257 0.0
H489 H 0.63645 0.44028 0.65171 0.0
H490 H 0.49344 0.62329 0.71413 0.0
H491 H 0.55285 0.64189 0.68569 0.0
H492 H 0.48735 0.58111 0.75524 0.0
H493 H 0.48014 0.52546 0.76268 0.0
C494 C 0.93445 0.98591 0.16007 0.0
C495 C 0.87566 0.9637 0.16892 0.0
C496 C 0.88504 0.99528 0.22617 0.0
C497 C 0.93482 0.02412 0.21518 0.0
N498 N 0.99344 0.0533 0.16689 0.0
N499 N 0.78557 0.95895 0.2093 0.0
C500 C 0.95574 0.02134 0.18067 0.0
C501 C 0.84776 0.972 0.20161 0.0
N502 N 0.97209 0.97225 0.13327 0.0
N503 N 0.8772 0.98667 0.25985 0.0
H504 H 0.75427 0.94508 0.19125 0.0
H505 H 0.76327 0.96686 0.23249 0.0
H506 H 0.91038 0.99838 0.27783 0.0
H507 H 0.8444 0.96313 0.26866 0.0
H508 H 0.01758 0.98614 0.12779 0.0
H509 H 0.96215 0.94387 0.11946 0.0
H510 H 0.00643 0.05386 0.14116 0.0
H511 H 0.00293 0.08189 0.18019 0.0
C512 C 0.85107 0.01965 0.66364 0.0
C513 C 0.88195 0.06105 0.6634 0.0
C514 C 0.9532 0.03927 0.71056 0.0
C515 C 0.9255 0.99678 0.70935 0.0
N516 N 0.85223 0.9448 0.68278 0.0
N517 N 0.9691 0.10846 0.68209 0.0
C518 C 0.87582 0.98643 0.68518 0.0
C519 C 0.93497 0.07032 0.6856 0.0
N520 N 0.79655 0.01267 0.64415 0.0
N521 N 0.99704 0.05 0.73555 0.0
H522 H 0.95692 0.13201 0.66416 0.0
H523 H 0.01276 0.11525 0.6947 0.0
H524 H 0.01381 0.02781 0.75342 0.0
H525 H 0.01353 0.0816 0.74017 0.0
H526 H 0.76672 0.98524 0.64617 0.0
H527 H 0.77855 0.03572 0.62719 0.0
H528 H 0.82262 0.93371 0.66297 0.0
H529 H 0.86461 0.92046 0.6999 0.0
C530 C 0.72212 0.48933 0.17371 0.0
C531 C 0.69173 0.44779 0.17102 0.0
C532 C 0.61591 0.46818 0.21684 0.0
C533 C 0.63678 0.51223 0.21447 0.0
N534 N 0.71473 0.56444 0.19285 0.0
N535 N 0.60233 0.40005 0.18656 0.0
C536 C 0.69141 0.52273 0.19345 0.0
C537 C 0.63688 0.43772 0.1918 0.0
N538 N 0.78146 0.49627 0.15844 0.0
N539 N 0.57713 0.45485 0.24317 0.0
H540 H 0.61435 0.3773 0.16773 0.0
H541 H 0.55771 0.39364 0.19851 0.0
H542 H 0.56368 0.47513 0.26326 0.0
H543 H 0.56536 0.42225 0.24735 0.0
H544 H 0.80947 0.5243 0.16211 0.0
H545 H 0.80568 0.47224 0.14441 0.0
H546 H 0.74845 0.57569 0.17498 0.0
H547 H 0.69896 0.58827 0.20997 0.0
C548 C 0.39309 0.44902 0.32256 0.0
C549 C 0.35912 0.46402 0.35202 0.0
C550 C 0.39499 0.53849 0.33994 0.0
C551 C 0.42447 0.52407 0.30912 0.0
N552 N 0.43421 0.46735 0.2666 0.0
N553 N 0.30929 0.52513 0.38111 0.0
C554 C 0.41745 0.47994 0.29883 0.0
C555 C 0.3542 0.50949 0.35829 0.0
N556 N 0.40627 0.40576 0.31818 0.0
N557 N 0.40714 0.57934 0.35239 0.0
H558 H 0.27588 0.50496 0.39362 0.0
H559 H 0.30033 0.55828 0.3845 0.0
H560 H 0.43782 0.60139 0.34012 0.0
H561 H 0.39174 0.58963 0.37648 0.0
H562 H 0.43634 0.39403 0.29869 0.0
H563 H 0.39314 0.3821 0.33587 0.0
H564 H 0.42393 0.43643 0.2568 0.0
H565 H 0.45337 0.48903 0.24887 0.0
C566 C 0.11523 0.02601 0.87855 0.0
C567 C 0.17498 0.04685 0.86911 0.0
C568 C 0.1599 0.01645 0.81173 0.0
C569 C 0.10911 0.98872 0.82312 0.0
N570 N 0.05389 0.9593 0.87231 0.0
N571 N 0.26379 0.04726 0.82762 0.0
C572 C 0.09119 0.99114 0.85807 0.0
C573 C 0.20058 0.0376 0.83599 0.0
N574 N 0.07908 0.04056 0.90558 0.0
N575 N 0.16574 0.02627 0.77819 0.0
H576 H 0.29778 0.0583 0.84552 0.0
H577 H 0.28367 0.03883 0.80393 0.0
H578 H 0.12968 0.01697 0.76089 0.0
H579 H 0.19994 0.04886 0.76928 0.0
H580 H 0.03339 0.02731 0.9116 0.0
H581 H 0.09034 0.06912 0.91886 0.0
H582 H 0.04255 0.95877 0.89826 0.0
H583 H 0.04342 0.93073 0.85902 0.0
C584 C 0.28367 0.07473 1.00776 0.0
C585 C 0.23784 0.09825 0.98807 0.0
C586 C 0.19123 0.13039 0.04033 0.0
C587 C 0.23636 0.10633 0.06016 0.0
N588 N 0.31595 0.04891 0.06369 0.0
N589 N 0.13893 0.14061 0.98548 0.0
C590 C 0.27961 0.07634 0.04409 0.0
C591 C 0.18857 0.12345 1.00441 0.0
N592 N 0.33241 0.05209 0.99169 0.0
N593 N 0.15334 0.16161 0.05556 0.0
H594 H 0.1359 0.13674 0.95909 0.0
H595 H 0.09779 0.15533 0.99614 0.0
H596 H 0.15338 0.16758 0.08176 0.0
H597 H 0.12538 0.18387 0.04205 0.0
H598 H 0.37197 0.03842 1.00435 0.0
H599 H 0.33528 0.04907 0.96521 0.0
H600 H 0.34382 0.02348 0.05377 0.0
H601 H 0.31378 0.0492 0.09028 0.0
C602 C 0.28321 0.41153 0.50203 0.0
C603 C 0.32429 0.42913 0.47606 0.0
C604 C 0.39706 0.45878 0.51965 0.0
C605 C 0.36192 0.43684 0.54551 0.0
N606 N 0.26829 0.39309 0.5617 0.0
N607 N 0.37559 0.4996 0.46967 0.0
C608 C 0.30404 0.41321 0.53684 0.0
C609 C 0.36991 0.46133 0.48681 0.0
N610 N 0.22004 0.40064 0.49431 0.0
N611 N 0.45583 0.47825 0.52631 0.0
H612 H 0.34288 0.50792 0.45041 0.0
H613 H 0.40424 0.52543 0.47864 0.0
H614 H 0.47885 0.47639 0.54998 0.0
H615 H 0.48385 0.49236 0.50701 0.0
H616 H 0.18538 0.39099 0.51226 0.0
H617 H 0.19958 0.40767 0.47064 0.0
H618 H 0.2312 0.37066 0.5565 0.0
H619 H 0.27769 0.39699 0.58763 0.0
C620 C 0.7875 0.39504 0.03034 0.0
C621 C 0.72922 0.39805 0.05008 0.0
C622 C 0.67025 0.42295 0.99947 0.0
C623 C 0.72634 0.41442 0.97899 0.0
N624 N 0.83372 0.38218 0.97439 0.0
N625 N 0.61151 0.40542 0.05129 0.0
C626 C 0.78366 0.39742 0.99427 0.0
C627 C 0.66942 0.40924 0.03403 0.0
N628 N 0.84698 0.39183 0.04598 0.0
N629 N 0.61883 0.44582 0.98653 0.0
H630 H 0.60851 0.39404 0.07624 0.0
H631 H 0.56611 0.40921 0.03965 0.0
H632 H 0.61844 0.45812 0.96183 0.0
H633 H 0.5797 0.45648 1.00147 0.0
H634 H 0.89121 0.39373 0.03275 0.0
H635 H 0.85251 0.39205 0.07241 0.0
H636 H 0.87381 0.36568 0.98431 0.0
H637 H 0.83189 0.38183 0.94781 0.0
C638 C 0.81706 0.15116 0.52994 0.0
C639 C 0.86667 0.14943 0.55522 0.0
C640 C 0.94917 0.16462 0.51109 0.0
C641 C 0.89872 0.17339 0.48727 0.0
N642 N 0.78315 0.18135 0.47598 0.0
N643 N 0.97984 0.16129 0.5706 0.0
C644 C 0.83216 0.1681 0.49712 0.0
C645 C 0.93287 0.1577 0.54598 0.0
N646 N 0.75572 0.13571 0.53703 0.0
N647 N 0.01268 0.16215 0.50026 0.0
H648 H 0.96993 0.15777 0.59652 0.0
H649 H 0.02743 0.17183 0.5656 0.0
H650 H 0.02619 0.16614 0.47479 0.0
H651 H 0.05077 0.15175 0.51579 0.0
H652 H 0.71941 0.13223 0.51859 0.0
H653 H 0.74323 0.12214 0.5605 0.0
H654 H 0.73422 0.18265 0.48348 0.0
H655 H 0.79174 0.19486 0.45207 0.0
C656 C 0.76755 0.94432 0.03485 0.0
C657 C 0.81344 0.91546 0.04958 0.0
C658 C 0.84514 0.88944 0.99259 0.0
C659 C 0.80191 0.92001 0.97774 0.0
N660 N 0.73366 0.98341 0.98441 0.0
N661 N 0.90723 0.86881 0.04245 0.0
C662 C 0.76673 0.94963 0.99882 0.0
C663 C 0.85587 0.89065 0.02838 0.0
N664 N 0.7228 0.96516 0.05507 0.0
N665 N 0.87339 0.85777 0.97286 0.0
H666 H 0.91711 0.86947 0.06854 0.0
H667 H 0.94361 0.85374 0.02799 0.0
H668 H 0.86601 0.85508 0.94664 0.0
H669 H 0.89945 0.83178 0.98294 0.0
H670 H 0.6835 0.98268 0.04542 0.0
H671 H 0.72173 0.96212 0.08153 0.0
H672 H 0.71247 0.00851 0.99856 0.0
H673 H 0.73282 0.98864 0.95815 0.0
C674 C 0.68578 0.59866 0.53838 0.0
C675 C 0.64562 0.62667 0.5584 0.0
C676 C 0.57368 0.6389 0.50926 0.0
C677 C 0.61345 0.61058 0.48943 0.0
N678 N 0.71015 0.56956 0.4814 0.0
N679 N 0.55852 0.67906 0.56239 0.0
C680 C 0.671 0.59255 0.50313 0.0
C681 C 0.59173 0.64861 0.5436 0.0
N682 N 0.73604 0.57679 0.55354 0.0
N683 N 0.51808 0.65576 0.49529 0.0
H684 H 0.5701 0.68641 0.58768 0.0
H685 H 0.52249 0.69921 0.55257 0.0
H686 H 0.50608 0.65155 0.46963 0.0
H687 H 0.48256 0.67252 0.5091 0.0
H688 H 0.76275 0.55209 0.54185 0.0
H689 H 0.74933 0.58176 0.57893 0.0
H690 H 0.75557 0.55656 0.48764 0.0
H691 H 0.75557 0.55656 0.48764 0.0
C692 C 0.29867 0.58807 0.99458 0.0
C693 C 0.33527 0.61303 0.97081 0.0
C694 C 0.39175 0.65059 0.01767 0.0
C695 C 0.35487 0.62575 0.0414 0.0
N696 N 0.28924 0.56223 0.05272 0.0
N697 N 0.42953 0.65794 0.95927 0.0
C698 C 0.31395 0.59137 0.02982 0.0
C699 C 0.38639 0.64082 0.9823 0.0
N700 N 0.24643 0.56363 0.98393 0.0
N701 N 0.42849 0.68524 0.02859 0.0
H702 H 0.42686 0.65097 0.93322 0.0
H703 H 0.47134 0.67529 0.9663 0.0
H704 H 0.43394 0.69353 0.05423 0.0
H705 H 0.44996 0.70759 1.01209 0.0
H706 H 0.21363 0.54879 1.00063 0.0
H707 H 0.23252 0.56095 0.95847 0.0
H708 H 0.26377 0.53418 0.04557 0.0
H709 H 0.30014 0.56394 0.07869 0.0
C710 C 0.22911 0.89 0.50122 0.0
C711 C 0.18596 0.86888 0.47805 0.0
C712 C 0.13152 0.83114 0.52532 0.0
C713 C 0.17649 0.85081 0.54831 0.0
N714 N 0.25841 0.90539 0.56015 0.0
N715 N 0.088 0.82699 0.46773 0.0
C716 C 0.22201 0.88256 0.53685 0.0
C717 C 0.13426 0.84203 0.49009 0.0
N718 N 0.27841 0.9158 0.48889 0.0
N719 N 0.088 0.80077 0.53711 0.0
H720 H 0.08952 0.83366 0.4417 0.0
H721 H 0.04559 0.81064 0.47505 0.0
H722 H 0.08251 0.79381 0.56296 0.0
H723 H 0.0591 0.78116 0.52145 0.0
H724 H 0.31644 0.92814 0.50371 0.0
H725 H 0.28299 0.92354 0.46313 0.0
H726 H 0.28821 0.93177 0.55404 0.0
H727 H 0.25514 0.90004 0.58633 0.0
C728 C 0.21014 0.22312 0.36999 0.0
C729 C 0.20557 0.26663 0.358 0.0
C730 C 0.10839 0.24474 0.32553 0.0
C731 C 0.12363 0.20034 0.33041 0.0
N732 N 0.19608 0.14731 0.35482 0.0
N733 N 0.15056 0.31784 0.32104 0.0
C734 C 0.17612 0.18943 0.35228 0.0
C735 C 0.15456 0.27725 0.3349 0.0
N736 N 0.24513 0.21387 0.39863 0.0
N737 N 0.0483 0.25611 0.3137 0.0
H738 H 0.18218 0.34333 0.32726 0.0
H739 H 0.1184 0.32505 0.30127 0.0
H740 H 0.01194 0.23295 0.30906 0.0
H741 H 0.03242 0.28829 0.31258 0.0
H742 H 0.24596 0.18292 0.40938 0.0
H743 H 0.2653 0.23794 0.41429 0.0
H744 H 0.2377 0.13812 0.36826 0.0
H745 H 0.17568 0.12257 0.33999 0.0
C746 C 0.40963 0.25014 0.86969 0.0
C747 C 0.33999 0.24766 0.86714 0.0
C748 C 0.34195 0.3088 0.82744 0.0
C749 C 0.41121 0.30836 0.82696 0.0
N750 N 0.51203 0.27518 0.84482 0.0
N751 N 0.24403 0.26563 0.83404 0.0
C752 C 0.44542 0.27791 0.84723 0.0
C753 C 0.30733 0.27417 0.84308 0.0
N754 N 0.44165 0.22698 0.89414 0.0
N755 N 0.30889 0.34348 0.81462 0.0
H756 H 0.21907 0.23757 0.84147 0.0
H757 H 0.21953 0.28328 0.81547 0.0
H758 H 0.33277 0.37027 0.80412 0.0
H759 H 0.25855 0.34751 0.81771 0.0
H760 H 0.49084 0.23174 0.90005 0.0
H761 H 0.41853 0.20475 0.91016 0.0
H762 H 0.53913 0.25018 0.85561 0.0
H763 H 0.54001 0.29634 0.83002 0.0
C764 C 0.67775 0.2337 0.72489 0.0
C765 C 0.71723 0.24839 0.69721 0.0
C766 C 0.671 0.32112 0.703 0.0
C767 C 0.62926 0.30673 0.72965 0.0
N768 N 0.5838 0.24693 0.76163 0.0
N769 N 0.7304 0.30092 0.65214 0.0
C770 C 0.63022 0.2623 0.73956 0.0
C771 C 0.70712 0.29043 0.68374 0.0
N772 N 0.68532 0.19243 0.73706 0.0
N773 N 0.67954 0.36449 0.6973 0.0
H774 H 0.75324 0.27838 0.63609 0.0
H775 H 0.71941 0.33025 0.64023 0.0
H776 H 0.65828 0.38802 0.71288 0.0
H777 H 0.71425 0.37678 0.68033 0.0
H778 H 0.66516 0.18185 0.75997 0.0
H779 H 0.71348 0.16884 0.72473 0.0
H780 H 0.57719 0.21407 0.76707 0.0
H781 H 0.54772 0.26663 0.77235 0.0
C782 C 0.86268 0.21642 0.16462 0.0
C783 C 0.87089 0.26183 0.17096 0.0
C784 C 0.94118 0.24605 0.21952 0.0
C785 C 0.9325 0.2007 0.21408 0.0
N786 N 0.87454 0.14251 0.18544 0.0
N787 N 0.89568 0.31785 0.21245 0.0
C788 C 0.89015 0.18575 0.18772 0.0
C789 C 0.90273 0.27599 0.20108 0.0
N790 N 0.82923 0.20261 0.1364 0.0
N791 N 0.98966 0.26083 0.24043 0.0
H792 H 0.86466 0.34006 0.20072 0.0
H793 H 0.91401 0.32865 0.23583 0.0
H794 H 0.02274 0.23974 0.25164 0.0
H795 H 0.00213 0.29365 0.24289 0.0
H796 H 0.82924 0.17053 0.12765 0.0
H797 H 0.80269 0.22362 0.12095 0.0
H798 H 0.83873 0.12997 0.16926 0.0
H799 H 0.89368 0.1193 0.20181 0.0
C800 C 0.84176 0.7846 0.66313 0.0
C801 C 0.80382 0.75515 0.68291 0.0
C802 C 0.87209 0.77281 0.73263 0.0
C803 C 0.89851 0.80906 0.71504 0.0
N804 N 0.91228 0.84831 0.66247 0.0
N805 N 0.78888 0.71655 0.73587 0.0
C806 C 0.88489 0.8144 0.67985 0.0
C807 C 0.82134 0.74751 0.7174 0.0
N808 N 0.83869 0.7828 0.62835 0.0
N809 N 0.89767 0.76137 0.76333 0.0
H810 H 0.75645 0.69417 0.72503 0.0
H811 H 0.79281 0.71369 0.76222 0.0
H812 H 0.93314 0.78008 0.77556 0.0
H813 H 0.88749 0.73202 0.77541 0.0
H814 H 0.86918 0.80086 0.61245 0.0
H815 H 0.81124 0.7594 0.61526 0.0
H816 H 0.89775 0.85738 0.63811 0.0
H817 H 0.9473 0.86895 0.67318 0.0
C818 C 0.66939 0.78374 0.20834 0.0
C819 C 0.68763 0.77838 0.17374 0.0
C820 C 0.65726 0.70085 0.17698 0.0
C821 C 0.62921 0.70855 0.20966 0.0
N822 N 0.59643 0.76025 0.253 0.0
N823 N 0.70431 0.731 0.1252 0.0
C824 C 0.6319 0.75081 0.2244 0.0
C825 C 0.68389 0.73645 0.15819 0.0
N826 N 0.68949 0.81966 0.22626 0.0
N827 N 0.65754 0.65962 0.16372 0.0
H828 H 0.72943 0.75503 0.11175 0.0
H829 H 0.69514 0.70317 0.11068 0.0
H830 H 0.63264 0.63393 0.17509 0.0
H831 H 0.68412 0.65034 0.14222 0.0
H832 H 0.68185 0.82328 0.25241 0.0
H833 H 0.72107 0.84295 0.21598 0.0
H834 H 0.592 0.79166 0.26296 0.0
H835 H 0.56603 0.73749 0.26458 0.0
C836 C 0.31374 0.71763 0.3279 0.0
C837 C 0.33768 0.74641 0.35342 0.0
C838 C 0.44982 0.72642 0.33648 0.0
C839 C 0.42482 0.69264 0.3149 0.0
N840 N 0.33046 0.64685 0.30345 0.0
N841 N 0.43093 0.77139 0.38638 0.0
C842 C 0.35603 0.68555 0.31436 0.0
C843 C 0.40647 0.74881 0.35905 0.0
N844 N 0.25142 0.72094 0.31574 0.0
N845 N 0.51407 0.73853 0.33503 0.0
H846 H 0.40197 0.78888 0.4035 0.0
H847 H 0.47985 0.76962 0.39372 0.0
H848 H 0.54802 0.72381 0.31913 0.0
H849 H 0.53231 0.76616 0.3474 0.0
H850 H 0.23437 0.70138 0.29576 0.0
H851 H 0.22053 0.74679 0.32181 0.0
H852 H 0.28078 0.63934 0.30584 0.0
H853 H 0.3594 0.62065 0.29597 0.0
C854 C 0.15816 0.78408 0.86853 0.0
C855 C 0.15425 0.73971 0.85801 0.0
C856 C 0.09531 0.76093 0.80647 0.0
C857 C 0.09659 0.80533 0.81745 0.0
N858 N 0.14965 0.85995 0.85242 0.0
N859 N 0.14337 0.68942 0.8108 0.0
C860 C 0.13362 0.81721 0.84676 0.0
C861 C 0.1304 0.72924 0.82507 0.0
N862 N 0.18602 0.79479 0.89912 0.0
N863 N 0.05908 0.74815 0.77891 0.0
H864 H 0.17082 0.66565 0.82294 0.0
H865 H 0.13365 0.68177 0.78539 0.0
H866 H 0.03609 0.76942 0.76246 0.0
H867 H 0.04833 0.71564 0.77345 0.0
H868 H 0.18117 0.82531 0.91057 0.0
H869 H 0.21288 0.77288 0.9136 0.0
H870 H 0.18159 0.87043 0.87143 0.0
H871 H 0.1373 0.88474 0.83566 0.0
loop_
_geom_bond_atom_site_label_1
_geom_bond_atom_site_label_2
_geom_bond_distance
_geom_bond_site_symmetry_2
_ccdc_geom_bond_type
H0 C7 0.929 . S
H1 C10 0.930 . S
H2 C12 0.929 . S
H3 C4 0.969 . S
C4 H3 0.969 . S
C4 O5 1.550 . S
C4 H6 0.973 . S
O5 C4 1.550 . S
O5 C11 1.412 . S
H6 C4 0.973 . S
C7 H0 0.929 . S
C7 C8 1.400 . S
C7 C9 1.364 . S
C8 C7 1.400 . S
C8 C12 1.377 . S
C9 C7 1.364 . S
C9 C10 1.374 . S
C10 H1 0.930 . S
C10 C9 1.374 . S
C10 C11 1.383 . S
C11 O5 1.412 . S
C11 C10 1.383 . S
C11 C12 1.394 . S
C12 H2 0.929 . S
C12 C8 1.377 . S
C12 C11 1.394 . S
H13 C20 0.929 . S
H14 C23 0.930 . S
H15 C25 0.929 . S
H16 C17 0.969 . S
C17 H16 0.969 . S
C17 O18 1.550 . S
C17 H19 0.973 . S
O18 C17 1.550 . S
O18 C24 1.412 . S
H19 C17 0.973 . S
C20 H13 0.929 . S
C20 C21 1.400 . S
C20 C22 1.364 . S
C21 C20 1.400 . S
C21 C25 1.377 . S
C22 C20 1.364 . S
C22 C23 1.374 . S
C23 H14 0.930 . S
C23 C22 1.374 . S
C23 C24 1.383 . S
C24 O18 1.412 . S
C24 C23 1.383 . S
C24 C25 1.394 . S
C25 H15 0.929 . S
C25 C21 1.377 . S
C25 C24 1.394 . S
H26 C33 0.929 . S
H27 C36 0.930 . S
H28 C38 0.929 . S
H29 C30 0.969 . S
C30 H29 0.969 . S
C30 O31 1.550 . S
C30 H32 0.973 . S
O31 C30 1.550 . S
O31 C37 1.412 . S
H32 C30 0.973 . S
C33 H26 0.929 . S
C33 C34 1.400 . S
C33 C35 1.364 . S
C34 C33 1.400 . S
C34 C38 1.377 . S
C35 C33 1.364 . S
C35 C36 1.374 . S
C36 H27 0.930 . S
C36 C35 1.374 . S
C36 C37 1.383 . S
C37 O31 1.412 . S
C37 C36 1.383 . S
C37 C38 1.394 . S
C38 H28 0.929 . S
C38 C34 1.377 . S
C38 C37 1.394 . S
H39 C46 0.929 . S
H40 C49 0.930 . S
H41 C51 0.929 . S
H42 C43 0.969 . S
C43 H42 0.969 . S
C43 O44 1.550 . S
C43 H45 0.973 . S
O44 C43 1.550 . S
O44 C50 1.412 . S
H45 C43 0.973 . S
C46 H39 0.929 . S
C46 C47 1.400 . S
C46 C48 1.364 . S
C47 C46 1.400 . S
C47 C51 1.377 . S
C48 C46 1.364 . S
C48 C49 1.374 . S
C49 H40 0.930 . S
C49 C48 1.374 . S
C49 C50 1.383 . S
C50 O44 1.412 . S
C50 C49 1.383 . S
C50 C51 1.394 . S
C51 H41 0.929 . S
C51 C47 1.377 . S
C51 C50 1.394 . S
H52 C59 0.929 . S
H53 C62 0.930 . S
H54 C64 0.929 . S
H55 C56 0.969 . S
C56 H55 0.969 . S
C56 O57 1.550 . S
C56 H58 0.973 . S
O57 C56 1.550 . S
O57 C63 1.412 . S
H58 C56 0.973 . S
C59 H52 0.929 . S
C59 C60 1.400 . S
C59 C61 1.364 . S
C60 C59 1.400 . S
C60 C64 1.377 . S
C61 C59 1.364 . S
C61 C62 1.374 . S
C62 H53 0.930 . S
C62 C61 1.374 . S
C62 C63 1.383 . S
C63 O57 1.412 . S
C63 C62 1.383 . S
C63 C64 1.394 . S
C64 H54 0.929 . S
C64 C60 1.377 . S
C64 C63 1.394 . S
H65 C72 0.929 . S
H66 C75 0.930 . S
H67 C77 0.929 . S
H68 C69 0.969 . S
C69 H68 0.969 . S
C69 O70 1.550 . S
C69 H71 0.973 . S
O70 C69 1.550 . S
O70 C76 1.412 . S
H71 C69 0.973 . S
C72 H65 0.929 . S
C72 C73 1.400 . S
C72 C74 1.364 . S
C73 C72 1.400 . S
C73 C77 1.377 . S
C74 C72 1.364 . S
C74 C75 1.374 . S
C75 H66 0.930 . S
C75 C74 1.374 . S
C75 C76 1.383 . S
C76 O70 1.412 . S
C76 C75 1.383 . S
C76 C77 1.394 . S
C77 H67 0.929 . S
C77 C73 1.377 . S
C77 C76 1.394 . S
H78 C85 0.929 . S
H79 C88 0.930 . S
H80 C90 0.929 . S
H81 C82 0.969 . S
C82 H81 0.969 . S
C82 O83 1.550 . S
C82 H84 0.973 . S
O83 C82 1.550 . S
O83 C89 1.412 . S
H84 C82 0.973 . S
C85 H78 0.929 . S
C85 C86 1.400 . S
C85 C87 1.364 . S
C86 C85 1.400 . S
C86 C90 1.377 . S
C87 C85 1.364 . S
C87 C88 1.374 . S
C88 H79 0.930 . S
C88 C87 1.374 . S
C88 C89 1.383 . S
C89 O83 1.412 . S
C89 C88 1.383 . S
C89 C90 1.394 . S
C90 H80 0.929 . S
C90 C86 1.377 . S
C90 C89 1.394 . S
H91 C98 0.929 . S
H92 C101 0.930 . S
H93 C103 0.929 . S
H94 C95 0.969 . S
C95 H94 0.969 . S
C95 O96 1.550 . S
C95 H97 0.973 . S
O96 C95 1.550 . S
O96 C102 1.412 . S
H97 C95 0.973 . S
C98 H91 0.929 . S
C98 C99 1.400 . S
C98 C100 1.364 . S
C99 C98 1.400 . S
C99 C103 1.377 . S
C100 C98 1.364 . S
C100 C101 1.374 . S
C101 H92 0.930 . S
C101 C100 1.374 . S
C101 C102 1.383 . S
C102 O96 1.412 . S
C102 C101 1.383 . S
C102 C103 1.394 . S
C103 H93 0.929 . S
C103 C99 1.377 . S
C103 C102 1.394 . S
Eu104 N133 2.600 . S
Eu104 N139 2.562 . S
Eu104 O148 2.462 . S
Eu104 O149 2.373 . S
Eu104 O151 2.432 . S
Eu104 O152 2.291 . S
Eu104 O156 2.335 . S
Eu104 O159 2.372 . S
Eu104 C168 2.787 . S
C105 N106 1.365 . S
C105 C108 1.405 . S
C105 C112 1.448 . S
N106 C105 1.365 . S
N106 C109 1.319 . S
N106 Eu115 2.600 . S
C107 C109 1.397 . S
C107 C110 1.367 . S
C107 H127 0.931 . S
C108 C105 1.405 . S
C108 C110 1.403 . S
C108 C114 1.439 . S
C109 N106 1.319 . S
C109 C107 1.397 . S
C109 H120 0.930 . S
C110 C107 1.367 . S
C110 C108 1.403 . S
C110 H131 0.929 . S
C111 C112 1.430 1_565 S
C111 C113 1.387 . S
C111 C117 1.404 . S
C112 C105 1.448 . S
C112 C111 1.430 1_545 S
C112 N116 1.351 . S
C113 C111 1.387 . S
C113 C114 1.374 1_565 S
C113 H128 0.931 . S
C114 C108 1.439 . S
C114 C113 1.374 1_545 S
C114 H129 0.931 . S
Eu115 N106 2.600 . S
Eu115 N116 2.562 . S
Eu115 O150 2.335 1_655 S
Eu115 O153 2.372 . S
Eu115 O154 2.462 . S
Eu115 O155 2.373 . S
Eu115 O157 2.432 . S
Eu115 O158 2.291 1_655 S
Eu115 C179 2.787 . S
N116 C112 1.351 . S
N116 Eu115 2.562 . S
N116 C118 1.325 1_545 S
C117 C111 1.404 . S
C117 C119 1.366 . S
C117 H125 0.930 . S
C118 N116 1.325 1_565 S
C118 C119 1.416 . S
C118 H124 0.929 . S
C119 C117 1.366 . S
C119 C118 1.416 . S
C119 H121 0.930 . S
H120 C109 0.930 . S
H121 C119 0.930 . S
H122 C137 0.930 . S
H123 C144 0.930 . S
H124 C118 0.929 . S
H125 C117 0.930 . S
H126 C140 0.929 . S
H127 C107 0.931 . S
H128 C113 0.931 . S
H129 C114 0.931 . S
H130 C135 0.931 . S
H131 C110 0.929 . S
H132 C143 0.930 . S
N133 Eu104 2.600 . S
N133 C134 1.365 . S
N133 C137 1.319 . S
C134 N133 1.365 . S
C134 C136 1.405 . S
C134 C142 1.448 . S
C135 H130 0.931 . S
C135 C137 1.397 . S
C135 C138 1.367 . S
C136 C134 1.405 . S
C136 C138 1.403 . S
C136 C169 1.439 . S
C137 H122 0.930 . S
C137 N133 1.319 . S
C137 C135 1.397 . S
C138 C135 1.367 . S
C138 C136 1.403 . S
C138 H145 0.929 . S
N139 Eu104 2.562 . S
N139 C140 1.325 . S
N139 C142 1.351 . S
C140 H126 0.929 . S
C140 N139 1.325 . S
C140 C144 1.416 . S
C141 C142 1.430 . S
C141 C143 1.404 . S
C141 C170 1.387 . S
C142 C134 1.448 . S
C142 N139 1.351 . S
C142 C141 1.430 . S
C143 H132 0.930 . S
C143 C141 1.404 . S
C143 C144 1.366 . S
C144 H123 0.930 . S
C144 C140 1.416 . S
C144 C143 1.366 . S
H145 C138 0.929 . S
H146 C169 0.931 . S
H147 C170 0.931 . S
O148 Eu104 2.462 . S
O148 C168 1.252 . S
O149 Eu104 2.373 . S
O149 C160 1.249 . S
O150 Eu115 2.335 1_455 S
O150 C160 1.264 . S
O151 Eu104 2.432 . S
O151 C168 1.268 . S
O152 Eu104 2.291 . S
O152 C167 1.255 1_455 S
O153 Eu115 2.372 . S
O153 C167 1.257 . S
O154 Eu115 2.462 . S
O154 C179 1.252 . S
O155 Eu115 2.373 . S
O155 C171 1.249 . S
O156 Eu104 2.335 . S
O156 C171 1.264 1_455 S
O157 Eu115 2.432 . S
O157 C179 1.268 . S
O158 Eu115 2.291 1_455 S
O158 C178 1.255 . S
O159 Eu104 2.372 . S
O159 C178 1.257 . S
C160 O149 1.249 . S
C160 O150 1.264 . S
C161 C164 1.382 . S
C161 C166 1.390 . S
C161 C168 1.506 . S
C162 C163 1.398 . S
C162 C166 1.392 . S
C163 C162 1.398 . S
C163 C165 1.372 . S
C163 H180 0.931 . S
C164 C161 1.382 . S
C164 C165 1.390 . S
C164 H181 0.931 . S
C165 C163 1.372 . S
C165 C164 1.390 . S
C165 H182 0.929 . S
C166 C161 1.390 . S
C166 C162 1.392 . S
C166 H183 0.930 . S
C167 O152 1.255 1_655 S
C167 O153 1.257 . S
C168 Eu104 2.787 . S
C168 O148 1.252 . S
C168 O151 1.268 . S
C168 C161 1.506 . S
C169 C136 1.439 . S
C169 H146 0.931 . S
C169 C170 1.374 . S
C170 C141 1.387 . S
C170 H147 0.931 . S
C170 C169 1.374 . S
C171 O155 1.249 . S
C171 O156 1.264 1_655 S
C172 C175 1.382 . S
C172 C176 1.390 . S
C172 C179 1.506 . S
C173 C174 1.398 . S
C173 C176 1.392 . S
C174 C173 1.398 . S
C174 C177 1.372 . S
C174 H184 0.931 . S
C175 C172 1.382 . S
C175 C177 1.390 . S
C175 H185 0.931 . S
C176 C172 1.390 . S
C176 C173 1.392 . S
C176 H186 0.930 . S
C177 C174 1.372 . S
C177 C175 1.390 . S
C177 H187 0.929 . S
C178 O158 1.255 . S
C178 O159 1.257 . S
C179 Eu115 2.787 . S
C179 O154 1.252 . S
C179 O157 1.268 . S
C179 C172 1.506 . S
H180 C163 0.931 . S
H181 C164 0.931 . S
H182 C165 0.929 . S
H183 C166 0.930 . S
H184 C174 0.931 . S
H185 C175 0.931 . S
H186 C176 0.930 . S
H187 C177 0.929 . S
Eu188 N217 2.600 . S
Eu188 N223 2.562 . S
Eu188 O232 2.462 . S
Eu188 O233 2.373 . S
Eu188 O235 2.432 . S
Eu188 O236 2.291 . S
Eu188 O240 2.335 . S
Eu188 O243 2.372 . S
Eu188 C252 2.787 . S
C189 N190 1.365 . S
C189 C192 1.405 . S
C189 C196 1.448 . S
N190 C189 1.365 . S
N190 C193 1.319 . S
N190 Eu199 2.600 . S
C191 C193 1.397 . S
C191 C194 1.367 . S
C191 H211 0.931 . S
C192 C189 1.405 . S
C192 C194 1.403 . S
C192 C198 1.439 . S
C193 N190 1.319 . S
C193 C191 1.397 . S
C193 H204 0.930 . S
C194 C191 1.367 . S
C194 C192 1.403 . S
C194 H215 0.929 . S
C195 C196 1.430 . S
C195 C197 1.387 . S
C195 C201 1.404 . S
C196 C189 1.448 . S
C196 C195 1.430 . S
C196 N200 1.351 . S
C197 C195 1.387 . S
C197 C198 1.374 . S
C197 H212 0.931 . S
C198 C192 1.439 . S
C198 C197 1.374 . S
C198 H213 0.931 . S
Eu199 N190 2.600 . S
Eu199 N200 2.562 . S
Eu199 O234 2.335 . S
Eu199 O237 2.372 . S
Eu199 O238 2.462 . S
Eu199 O239 2.373 . S
Eu199 O241 2.432 . S
Eu199 O242 2.291 . S
Eu199 C263 2.787 . S
N200 C196 1.351 . S
N200 Eu199 2.562 . S
N200 C202 1.325 . S
C201 C195 1.404 . S
C201 C203 1.366 . S
C201 H209 0.930 . S
C202 N200 1.325 . S
C202 C203 1.416 . S
C202 H208 0.929 . S
C203 C201 1.366 . S
C203 C202 1.416 . S
C203 H205 0.930 . S
H204 C193 0.930 . S
H205 C203 0.930 . S
H206 C221 0.930 . S
H207 C228 0.930 . S
H208 C202 0.929 . S
H209 C201 0.930 . S
H210 C224 0.929 . S
H211 C191 0.931 . S
H212 C197 0.931 . S
H213 C198 0.931 . S
H214 C219 0.931 . S
H215 C194 0.929 . S
H216 C227 0.930 . S
N217 Eu188 2.600 . S
N217 C218 1.365 . S
N217 C221 1.319 . S
C218 N217 1.365 . S
C218 C220 1.405 . S
C218 C226 1.448 . S
C219 H214 0.931 . S
C219 C221 1.397 . S
C219 C222 1.367 . S
C220 C218 1.405 . S
C220 C222 1.403 . S
C220 C253 1.439 . S
C221 H206 0.930 . S
C221 N217 1.319 . S
C221 C219 1.397 . S
C222 C219 1.367 . S
C222 C220 1.403 . S
C222 H229 0.929 . S
N223 Eu188 2.562 . S
N223 C224 1.325 . S
N223 C226 1.351 . S
C224 H210 0.929 . S
C224 N223 1.325 . S
C224 C228 1.416 . S
C225 C226 1.430 . S
C225 C227 1.404 . S
C225 C254 1.387 . S
C226 C218 1.448 . S
C226 N223 1.351 . S
C226 C225 1.430 . S
C227 H216 0.930 . S
C227 C225 1.404 . S
C227 C228 1.366 . S
C228 H207 0.930 . S
C228 C224 1.416 . S
C228 C227 1.366 . S
H229 C222 0.929 . S
H230 C253 0.931 . S
H231 C254 0.931 . S
O232 Eu188 2.462 . S
O232 C252 1.252 . S
O233 Eu188 2.373 . S
O233 C244 1.249 . S
O234 Eu199 2.335 . S
O234 C244 1.264 . S
O235 Eu188 2.432 . S
O235 C252 1.268 . S
O236 Eu188 2.291 . S
O236 C251 1.255 . S
O237 Eu199 2.372 . S
O237 C251 1.257 . S
O238 Eu199 2.462 . S
O238 C263 1.252 . S
O239 Eu199 2.373 . S
O239 C255 1.249 . S
O240 Eu188 2.335 . S
O240 C255 1.264 . S
O241 Eu199 2.432 . S
O241 C263 1.268 . S
O242 Eu199 2.291 . S
O242 C262 1.255 . S
O243 Eu188 2.372 . S
O243 C262 1.257 . S
C244 O233 1.249 . S
C244 O234 1.264 . S
C245 C248 1.382 . S
C245 C250 1.390 . S
C245 C252 1.506 . S
C246 C247 1.398 . S
C246 C250 1.392 . S
C247 C246 1.398 . S
C247 C249 1.372 . S
C247 H264 0.931 . S
C248 C245 1.382 . S
C248 C249 1.390 . S
C248 H265 0.931 . S
C249 C247 1.372 . S
C249 C248 1.390 . S
C249 H266 0.929 . S
C250 C245 1.390 . S
C250 C246 1.392 . S
C250 H267 0.930 . S
C251 O236 1.255 . S
C251 O237 1.257 . S
C252 Eu188 2.787 . S
C252 O232 1.252 . S
C252 O235 1.268 . S
C252 C245 1.506 . S
C253 C220 1.439 . S
C253 H230 0.931 . S
C253 C254 1.374 . S
C254 C225 1.387 . S
C254 H231 0.931 . S
C254 C253 1.374 . S
C255 O239 1.249 . S
C255 O240 1.264 . S
C256 C259 1.382 . S
C256 C260 1.390 . S
C256 C263 1.506 . S
C257 C258 1.398 . S
C257 C260 1.392 . S
C258 C257 1.398 . S
C258 C261 1.372 . S
C258 H268 0.931 . S
C259 C256 1.382 . S
C259 C261 1.390 . S
C259 H269 0.931 . S
C260 C256 1.390 . S
C260 C257 1.392 . S
C260 H270 0.930 . S
C261 C258 1.372 . S
C261 C259 1.390 . S
C261 H271 0.929 . S
C262 O242 1.255 . S
C262 O243 1.257 . S
C263 Eu199 2.787 . S
C263 O238 1.252 . S
C263 O241 1.268 . S
C263 C256 1.506 . S
H264 C247 0.931 . S
H265 C248 0.931 . S
H266 C249 0.929 . S
H267 C250 0.930 . S
H268 C258 0.931 . S
H269 C259 0.931 . S
H270 C260 0.930 . S
H271 C261 0.929 . S
Eu272 N301 2.600 . S
Eu272 N307 2.562 . S
Eu272 O316 2.462 . S
Eu272 O317 2.373 . S
Eu272 O319 2.432 . S
Eu272 O320 2.291 . S
Eu272 O324 2.335 . S
Eu272 O327 2.372 . S
Eu272 C336 2.787 . S
C273 N274 1.365 . S
C273 C276 1.405 . S
C273 C280 1.448 . S
N274 C273 1.365 . S
N274 C277 1.319 . S
N274 Eu283 2.600 . S
C275 C277 1.397 . S
C275 C278 1.367 . S
C275 H295 0.931 . S
C276 C273 1.405 . S
C276 C278 1.403 . S
C276 C282 1.439 . S
C277 N274 1.319 . S
C277 C275 1.397 . S
C277 H288 0.930 . S
C278 C275 1.367 . S
C278 C276 1.403 . S
C278 H299 0.929 . S
C279 C280 1.430 . S
C279 C281 1.387 . S
C279 C285 1.404 . S
C280 C273 1.448 . S
C280 C279 1.430 . S
C280 N284 1.351 . S
C281 C279 1.387 . S
C281 C282 1.374 . S
C281 H296 0.931 . S
C282 C276 1.439 . S
C282 C281 1.374 . S
C282 H297 0.931 . S
Eu283 N274 2.600 . S
Eu283 N284 2.562 . S
Eu283 O318 2.335 1_655 S
Eu283 O321 2.372 . S
Eu283 O322 2.462 . S
Eu283 O323 2.373 . S
Eu283 O325 2.432 . S
Eu283 O326 2.291 1_655 S
Eu283 C347 2.787 . S
N284 C280 1.351 . S
N284 Eu283 2.562 . S
N284 C286 1.325 . S
C285 C279 1.404 . S
C285 C287 1.366 . S
C285 H293 0.930 . S
C286 N284 1.325 . S
C286 C287 1.416 . S
C286 H292 0.929 . S
C287 C285 1.366 . S
C287 C286 1.416 . S
C287 H289 0.930 . S
H288 C277 0.930 . S
H289 C287 0.930 . S
H290 C305 0.930 . S
H291 C312 0.930 . S
H292 C286 0.929 . S
H293 C285 0.930 . S
H294 C308 0.929 . S
H295 C275 0.931 . S
H296 C281 0.931 . S
H297 C282 0.931 . S
H298 C303 0.931 . S
H299 C278 0.929 . S
H300 C311 0.930 . S
N301 Eu272 2.600 . S
N301 C302 1.365 . S
N301 C305 1.319 . S
C302 N301 1.365 . S
C302 C304 1.405 . S
C302 C310 1.448 . S
C303 H298 0.931 . S
C303 C305 1.397 . S
C303 C306 1.367 . S
C304 C302 1.405 . S
C304 C306 1.403 . S
C304 C337 1.439 . S
C305 H290 0.930 . S
C305 N301 1.319 . S
C305 C303 1.397 . S
C306 C303 1.367 . S
C306 C304 1.403 . S
C306 H313 0.929 . S
N307 Eu272 2.562 . S
N307 C308 1.325 1_565 S
N307 C310 1.351 . S
C308 H294 0.929 . S
C308 N307 1.325 1_545 S
C308 C312 1.416 . S
C309 C310 1.430 1_545 S
C309 C311 1.404 . S
C309 C338 1.387 . S
C310 C302 1.448 . S
C310 N307 1.351 . S
C310 C309 1.430 1_565 S
C311 H300 0.930 . S
C311 C309 1.404 . S
C311 C312 1.366 . S
C312 H291 0.930 . S
C312 C308 1.416 . S
C312 C311 1.366 . S
H313 C306 0.929 . S
H314 C337 0.931 . S
H315 C338 0.931 . S
O316 Eu272 2.462 . S
O316 C336 1.252 . S
O317 Eu272 2.373 . S
O317 C328 1.249 . S
O318 Eu283 2.335 1_455 S
O318 C328 1.264 . S
O319 Eu272 2.432 . S
O319 C336 1.268 . S
O320 Eu272 2.291 . S
O320 C335 1.255 1_455 S
O321 Eu283 2.372 . S
O321 C335 1.257 . S
O322 Eu283 2.462 . S
O322 C347 1.252 . S
O323 Eu283 2.373 . S
O323 C339 1.249 . S
O324 Eu272 2.335 . S
O324 C339 1.264 1_455 S
O325 Eu283 2.432 . S
O325 C347 1.268 . S
O326 Eu283 2.291 1_455 S
O326 C346 1.255 . S
O327 Eu272 2.372 . S
O327 C346 1.257 . S
C328 O317 1.249 . S
C328 O318 1.264 . S
C329 C332 1.382 . S
C329 C334 1.390 . S
C329 C336 1.506 . S
C330 C331 1.398 . S
C330 C334 1.392 . S
C331 C330 1.398 . S
C331 C333 1.372 . S
C331 H348 0.931 . S
C332 C329 1.382 . S
C332 C333 1.390 . S
C332 H349 0.931 . S
C333 C331 1.372 . S
C333 C332 1.390 . S
C333 H350 0.929 . S
C334 C329 1.390 . S
C334 C330 1.392 . S
C334 H351 0.930 . S
C335 O320 1.255 1_655 S
C335 O321 1.257 . S
C336 Eu272 2.787 . S
C336 O316 1.252 . S
C336 O319 1.268 . S
C336 C329 1.506 . S
C337 C304 1.439 . S
C337 H314 0.931 . S
C337 C338 1.374 1_565 S
C338 C309 1.387 . S
C338 H315 0.931 . S
C338 C337 1.374 1_545 S
C339 O323 1.249 . S
C339 O324 1.264 1_655 S
C340 C343 1.382 . S
C340 C344 1.390 . S
C340 C347 1.506 . S
C341 C342 1.398 . S
C341 C344 1.392 . S
C342 C341 1.398 . S
C342 C345 1.372 . S
C342 H352 0.931 . S
C343 C340 1.382 . S
C343 C345 1.390 . S
C343 H353 0.931 . S
C344 C340 1.390 . S
C344 C341 1.392 . S
C344 H354 0.930 . S
C345 C342 1.372 . S
C345 C343 1.390 . S
C345 H355 0.929 . S
C346 O326 1.255 . S
C346 O327 1.257 . S
C347 Eu283 2.787 . S
C347 O322 1.252 . S
C347 O325 1.268 . S
C347 C340 1.506 . S
H348 C331 0.931 . S
H349 C332 0.931 . S
H350 C333 0.929 . S
H351 C334 0.930 . S
H352 C342 0.931 . S
H353 C343 0.931 . S
H354 C344 0.930 . S
H355 C345 0.929 . S
Eu356 N385 2.600 . S
Eu356 N391 2.562 . S
Eu356 O400 2.462 . S
Eu356 O401 2.373 . S
Eu356 O403 2.432 . S
Eu356 O404 2.291 . S
Eu356 O408 2.335 . S
Eu356 O411 2.372 . S
Eu356 C420 2.787 . S
C357 N358 1.365 . S
C357 C360 1.405 . S
C357 C364 1.448 . S
N358 C357 1.365 . S
N358 C361 1.319 . S
N358 Eu367 2.600 . S
C359 C361 1.397 . S
C359 C362 1.367 . S
C359 H379 0.931 . S
C360 C357 1.405 . S
C360 C362 1.403 . S
C360 C366 1.439 . S
C361 N358 1.319 . S
C361 C359 1.397 . S
C361 H372 0.930 . S
C362 C359 1.367 . S
C362 C360 1.403 . S
C362 H383 0.929 . S
C363 C364 1.430 . S
C363 C365 1.387 . S
C363 C369 1.404 . S
C364 C357 1.448 . S
C364 C363 1.430 . S
C364 N368 1.351 . S
C365 C363 1.387 . S
C365 C366 1.374 . S
C365 H380 0.931 . S
C366 C360 1.439 . S
C366 C365 1.374 . S
C366 H381 0.931 . S
Eu367 N358 2.600 . S
Eu367 N368 2.562 . S
Eu367 O402 2.335 . S
Eu367 O405 2.372 . S
Eu367 O406 2.462 . S
Eu367 O407 2.373 . S
Eu367 O409 2.432 . S
Eu367 O410 2.291 . S
Eu367 C431 2.787 . S
N368 C364 1.351 . S
N368 Eu367 2.562 . S
N368 C370 1.325 . S
C369 C363 1.404 . S
C369 C371 1.366 . S
C369 H377 0.930 . S
C370 N368 1.325 . S
C370 C371 1.416 . S
C370 H376 0.929 . S
C371 C369 1.366 . S
C371 C370 1.416 . S
C371 H373 0.930 . S
H372 C361 0.930 . S
H373 C371 0.930 . S
H374 C389 0.930 . S
H375 C396 0.930 . S
H376 C370 0.929 . S
H377 C369 0.930 . S
H378 C392 0.929 . S
H379 C359 0.931 . S
H380 C365 0.931 . S
H381 C366 0.931 . S
H382 C387 0.931 . S
H383 C362 0.929 . S
H384 C395 0.930 . S
N385 Eu356 2.600 . S
N385 C386 1.365 . S
N385 C389 1.319 . S
C386 N385 1.365 . S
C386 C388 1.405 . S
C386 C394 1.448 . S
C387 H382 0.931 . S
C387 C389 1.397 . S
C387 C390 1.367 . S
C388 C386 1.405 . S
C388 C390 1.403 . S
C388 C421 1.439 . S
C389 H374 0.930 . S
C389 N385 1.319 . S
C389 C387 1.397 . S
C390 C387 1.367 . S
C390 C388 1.403 . S
C390 H397 0.929 . S
N391 Eu356 2.562 . S
N391 C392 1.325 . S
N391 C394 1.351 . S
C392 H378 0.929 . S
C392 N391 1.325 . S
C392 C396 1.416 . S
C393 C394 1.430 . S
C393 C395 1.404 . S
C393 C422 1.387 . S
C394 C386 1.448 . S
C394 N391 1.351 . S
C394 C393 1.430 . S
C395 H384 0.930 . S
C395 C393 1.404 . S
C395 C396 1.366 . S
C396 H375 0.930 . S
C396 C392 1.416 . S
C396 C395 1.366 . S
H397 C390 0.929 . S
H398 C421 0.931 . S
H399 C422 0.931 . S
O400 Eu356 2.462 . S
O400 C420 1.252 . S
O401 Eu356 2.373 . S
O401 C412 1.249 . S
O402 Eu367 2.335 . S
O402 C412 1.264 . S
O403 Eu356 2.432 . S
O403 C420 1.268 . S
O404 Eu356 2.291 . S
O404 C419 1.255 . S
O405 Eu367 2.372 . S
O405 C419 1.257 . S
O406 Eu367 2.462 . S
O406 C431 1.252 . S
O407 Eu367 2.373 . S
O407 C423 1.249 . S
O408 Eu356 2.335 . S
O408 C423 1.264 . S
O409 Eu367 2.432 . S
O409 C431 1.268 . S
O410 Eu367 2.291 . S
O410 C430 1.255 . S
O411 Eu356 2.372 . S
O411 C430 1.257 . S
C412 O401 1.249 . S
C412 O402 1.264 . S
C413 C416 1.382 . S
C413 C418 1.390 . S
C413 C420 1.506 . S
C414 C415 1.398 . S
C414 C418 1.392 . S
C415 C414 1.398 . S
C415 C417 1.372 . S
C415 H432 0.931 . S
C416 C413 1.382 . S
C416 C417 1.390 . S
C416 H433 0.931 . S
C417 C415 1.372 . S
C417 C416 1.390 . S
C417 H434 0.929 . S
C418 C413 1.390 . S
C418 C414 1.392 . S
C418 H435 0.930 . S
C419 O404 1.255 . S
C419 O405 1.257 . S
C420 Eu356 2.787 . S
C420 O400 1.252 . S
C420 O403 1.268 . S
C420 C413 1.506 . S
C421 C388 1.439 . S
C421 H398 0.931 . S
C421 C422 1.374 . S
C422 C393 1.387 . S
C422 H399 0.931 . S
C422 C421 1.374 . S
C423 O407 1.249 . S
C423 O408 1.264 . S
C424 C427 1.382 . S
C424 C428 1.390 . S
C424 C431 1.506 . S
C425 C426 1.398 . S
C425 C428 1.392 . S
C426 C425 1.398 . S
C426 C429 1.372 . S
C426 H436 0.931 . S
C427 C424 1.382 . S
C427 C429 1.390 . S
C427 H437 0.931 . S
C428 C424 1.390 . S
C428 C425 1.392 . S
C428 H438 0.930 . S
C429 C426 1.372 . S
C429 C427 1.390 . S
C429 H439 0.929 . S
C430 O410 1.255 . S
C430 O411 1.257 . S
C431 Eu367 2.787 . S
C431 O406 1.252 . S
C431 O409 1.268 . S
C431 C424 1.506 . S
H432 C415 0.931 . S
H433 C416 0.931 . S
H434 C417 0.929 . S
H435 C418 0.930 . S
H436 C426 0.931 . S
H437 C427 0.931 . S
H438 C428 0.930 . S
H439 C429 0.929 . S
C440 C441 1.363 . S
C440 C446 1.379 1_565 S
C440 N448 1.356 . S
C441 C440 1.363 . S
C441 C447 1.363 . S
C442 C443 1.363 1_565 S
C442 C447 1.379 . S
C442 N449 1.356 . S
C443 C442 1.363 1_545 S
C443 C446 1.363 . S
N444 C446 1.356 . S
N444 H456 0.984 . S
N444 H457 0.985 . S
N445 C447 1.356 . S
N445 H450 0.984 . S
N445 H451 0.985 . S
C446 C440 1.379 1_545 S
C446 C443 1.363 . S
C446 N444 1.356 . S
C447 C441 1.363 . S
C447 C442 1.379 . S
C447 N445 1.356 . S
N448 C440 1.356 . S
N448 H454 0.984 . S
N448 H455 0.984 . S
N449 C442 1.356 . S
N449 H452 0.984 1_565 S
N449 H453 0.985 1_455 S
H450 N445 0.984 . S
H451 N445 0.985 . S
H452 N449 0.984 1_545 S
H453 N449 0.985 1_655 S
H454 N448 0.984 . S
H455 N448 0.984 . S
H456 N444 0.984 . S
H457 N444 0.985 . S
C458 C459 1.363 . S
C458 C464 1.379 . S
C458 N466 1.356 . S
C459 C458 1.363 . S
C459 C465 1.363 . S
C460 C461 1.363 . S
C460 C465 1.379 . S
C460 N467 1.356 . S
C461 C460 1.363 . S
C461 C464 1.363 . S
N462 C464 1.356 . S
N462 H474 0.984 . S
N462 H475 0.985 . S
N463 C465 1.356 . S
N463 H468 0.984 . S
N463 H469 0.985 . S
C464 C458 1.379 . S
C464 C461 1.363 . S
C464 N462 1.356 . S
C465 C459 1.363 . S
C465 C460 1.379 . S
C465 N463 1.356 . S
N466 C458 1.356 . S
N466 H472 0.984 . S
N466 H473 0.984 . S
N467 C460 1.356 . S
N467 H470 0.984 . S
N467 H471 0.985 . S
H468 N463 0.984 . S
H469 N463 0.985 . S
H470 N467 0.984 . S
H471 N467 0.985 . S
H472 N466 0.984 . S
H473 N466 0.984 . S
H474 N462 0.984 . S
H475 N462 0.985 . S
C476 C477 1.363 . S
C476 C482 1.379 . S
C476 N484 1.356 . S
C477 C476 1.363 . S
C477 C483 1.363 . S
C478 C479 1.363 . S
C478 C483 1.379 . S
C478 N485 1.356 . S
C479 C478 1.363 . S
C479 C482 1.363 . S
N480 C482 1.356 . S
N480 H492 0.984 . S
N480 H493 0.985 . S
N481 C483 1.356 . S
N481 H486 0.984 . S
N481 H487 0.985 . S
C482 C476 1.379 . S
C482 C479 1.363 . S
C482 N480 1.356 . S
C483 C477 1.363 . S
C483 C478 1.379 . S
C483 N481 1.356 . S
N484 C476 1.356 . S
N484 H490 0.984 . S
N484 H491 0.984 . S
N485 C478 1.356 . S
N485 H488 0.984 . S
N485 H489 0.985 . S
H486 N481 0.984 . S
H487 N481 0.985 . S
H488 N485 0.984 . S
H489 N485 0.985 . S
H490 N484 0.984 . S
H491 N484 0.984 . S
H492 N480 0.984 . S
H493 N480 0.985 . S
C494 C495 1.363 . S
C494 C500 1.379 . S
C494 N502 1.356 . S
C495 C494 1.363 . S
C495 C501 1.363 . S
C496 C497 1.363 1_565 S
C496 C501 1.379 . S
C496 N503 1.356 1_565 S
C497 C496 1.363 1_545 S
C497 C500 1.363 1_545 S
N498 C500 1.356 1_545 S
N498 H510 0.984 1_655 S
N498 H511 0.985 1_655 S
N499 C501 1.356 . S
N499 H504 0.984 . S
N499 H505 0.985 . S
C500 C494 1.379 . S
C500 C497 1.363 1_565 S
C500 N498 1.356 1_565 S
C501 C495 1.363 . S
C501 C496 1.379 . S
C501 N499 1.356 . S
N502 C494 1.356 . S
N502 H508 0.984 . S
N502 H509 0.984 . S
N503 C496 1.356 1_545 S
N503 H506 0.984 . S
N503 H507 0.985 . S
H504 N499 0.984 . S
H505 N499 0.985 . S
H506 N503 0.984 . S
H507 N503 0.985 . S
H508 N502 0.984 . S
H509 N502 0.984 . S
H510 N498 0.984 1_455 S
H511 N498 0.985 1_455 S
C512 C513 1.363 . S
C512 C518 1.379 1_545 S
C512 N520 1.356 . S
C513 C512 1.363 . S
C513 C519 1.363 . S
C514 C515 1.363 1_545 S
C514 C519 1.379 . S
C514 N521 1.356 . S
C515 C514 1.363 1_565 S
C515 C518 1.363 . S
N516 C518 1.356 . S
N516 H528 0.984 . S
N516 H529 0.985 . S
N517 C519 1.356 . S
N517 H522 0.984 . S
N517 H523 0.985 . S
C518 C512 1.379 1_565 S
C518 C515 1.363 . S
C518 N516 1.356 . S
C519 C513 1.363 . S
C519 C514 1.379 . S
C519 N517 1.356 . S
N520 C512 1.356 . S
N520 H526 0.984 1_545 S
N520 H527 0.984 . S
N521 C514 1.356 . S
N521 H524 0.984 . S
N521 H525 0.985 1_655 S
H522 N517 0.984 . S
H523 N517 0.985 . S
H524 N521 0.984 . S
H525 N521 0.985 1_455 S
H526 N520 0.984 1_565 S
H527 N520 0.984 . S
H528 N516 0.984 . S
H529 N516 0.985 . S
C530 C531 1.363 . S
C530 C536 1.379 . S
C530 N538 1.356 . S
C531 C530 1.363 . S
C531 C537 1.363 . S
C532 C533 1.363 . S
C532 C537 1.379 . S
C532 N539 1.356 . S
C533 C532 1.363 . S
C533 C536 1.363 . S
N534 C536 1.356 . S
N534 H546 0.984 . S
N534 H547 0.985 . S
N535 C537 1.356 . S
N535 H540 0.984 . S
N535 H541 0.985 . S
C536 C530 1.379 . S
C536 C533 1.363 . S
C536 N534 1.356 . S
C537 C531 1.363 . S
C537 C532 1.379 . S
C537 N535 1.356 . S
N538 C530 1.356 . S
N538 H544 0.984 . S
N538 H545 0.984 . S
N539 C532 1.356 . S
N539 H542 0.984 . S
N539 H543 0.985 . S
H540 N535 0.984 . S
H541 N535 0.985 . S
H542 N539 0.984 . S
H543 N539 0.985 . S
H544 N538 0.984 . S
H545 N538 0.984 . S
H546 N534 0.984 . S
H547 N534 0.985 . S
C548 C549 1.363 . S
C548 C554 1.379 . S
C548 N556 1.356 . S
C549 C548 1.363 . S
C549 C555 1.363 . S
C550 C551 1.363 . S
C550 C555 1.379 . S
C550 N557 1.356 . S
C551 C550 1.363 . S
C551 C554 1.363 . S
N552 C554 1.356 . S
N552 H564 0.984 . S
N552 H565 0.985 . S
N553 C555 1.356 . S
N553 H558 0.984 . S
N553 H559 0.985 . S
C554 C548 1.379 . S
C554 C551 1.363 . S
C554 N552 1.356 . S
C555 C549 1.363 . S
C555 C550 1.379 . S
C555 N553 1.356 . S
N556 C548 1.356 . S
N556 H562 0.984 . S
N556 H563 0.984 . S
N557 C550 1.356 . S
N557 H560 0.984 . S
N557 H561 0.985 . S
H558 N553 0.984 . S
H559 N553 0.985 . S
H560 N557 0.984 . S
H561 N557 0.985 . S
H562 N556 0.984 . S
H563 N556 0.984 . S
H564 N552 0.984 . S
H565 N552 0.985 . S
C566 C567 1.363 . S
C566 C572 1.379 . S
C566 N574 1.356 . S
C567 C566 1.363 . S
C567 C573 1.363 . S
C568 C569 1.363 1_545 S
C568 C573 1.379 . S
C568 N575 1.356 . S
C569 C568 1.363 1_565 S
C569 C572 1.363 1_565 S
N570 C572 1.356 1_565 S
N570 H582 0.984 . S
N570 H583 0.985 . S
N571 C573 1.356 . S
N571 H576 0.984 . S
N571 H577 0.985 . S
C572 C566 1.379 . S
C572 C569 1.363 1_545 S
C572 N570 1.356 1_545 S
C573 C567 1.363 . S
C573 C568 1.379 . S
C573 N571 1.356 . S
N574 C566 1.356 . S
N574 H580 0.984 . S
N574 H581 0.984 . S
N575 C568 1.356 . S
N575 H578 0.984 1_545 S
N575 H579 0.985 . S
H576 N571 0.984 . S
H577 N571 0.985 . S
H578 N575 0.984 1_565 S
H579 N575 0.985 . S
H580 N574 0.984 . S
H581 N574 0.984 . S
H582 N570 0.984 . S
H583 N570 0.985 . S
C584 C585 1.363 . S
C584 C590 1.379 . S
C584 N592 1.356 . S
C585 C584 1.363 . S
C585 C591 1.363 . S
C586 C587 1.363 . S
C586 C591 1.379 1_554 S
C586 N593 1.356 . S
C587 C586 1.363 . S
C587 C590 1.363 1_554 S
N588 C590 1.356 1_554 S
N588 H600 0.994 . S
N588 H601 0.985 . S
N589 C591 1.356 . S
N589 H594 0.984 . S
N589 H595 0.985 . S
C590 C584 1.379 . S
C590 C587 1.363 1_556 S
C590 N588 1.356 1_556 S
C591 C585 1.363 . S
C591 C586 1.379 1_556 S
C591 N589 1.356 . S
N592 C584 1.356 . S
N592 H598 0.984 . S
N592 H599 0.984 . S
N593 C586 1.356 . S
N593 H596 0.984 . S
N593 H597 0.985 . S
H594 N589 0.984 . S
H595 N589 0.985 . S
H596 N593 0.984 . S
H597 N593 0.985 . S
H598 N592 0.984 . S
H599 N592 0.984 . S
H600 N588 0.994 . S
H601 N588 0.985 . S
C602 C603 1.363 . S
C602 C608 1.379 . S
C602 N610 1.356 . S
C603 C602 1.363 . S
C603 C609 1.363 . S
C604 C605 1.363 . S
C604 C609 1.379 . S
C604 N611 1.356 . S
C605 C604 1.363 . S
C605 C608 1.363 . S
N606 C608 1.356 . S
N606 H618 0.984 . S
N606 H619 0.985 . S
N607 C609 1.356 . S
N607 H612 0.984 . S
N607 H613 0.985 . S
C608 C602 1.379 . S
C608 C605 1.363 . S
C608 N606 1.356 . S
C609 C603 1.363 . S
C609 C604 1.379 . S
C609 N607 1.356 . S
N610 C602 1.356 . S
N610 H616 0.984 . S
N610 H617 0.984 . S
N611 C604 1.356 . S
N611 H614 0.984 . S
N611 H615 0.985 . S
H612 N607 0.984 . S
H613 N607 0.985 . S
H614 N611 0.984 . S
H615 N611 0.985 . S
H616 N610 0.984 . S
H617 N610 0.984 . S
H618 N606 0.984 . S
H619 N606 0.985 . S
C620 C621 1.363 . S
C620 C626 1.379 1_554 S
C620 N628 1.356 . S
C621 C620 1.363 . S
C621 C627 1.363 . S
C622 C623 1.363 1_554 S
C622 C627 1.379 . S
C622 N629 1.356 1_554 S
C623 C622 1.363 1_556 S
C623 C626 1.363 . S
N624 C626 1.356 . S
N624 H636 0.984 . S
N624 H637 0.985 . S
N625 C627 1.356 . S
N625 H630 0.984 . S
N625 H631 0.985 . S
C626 C620 1.379 1_556 S
C626 C623 1.363 . S
C626 N624 1.356 . S
C627 C621 1.363 . S
C627 C622 1.379 . S
C627 N625 1.356 . S
N628 C620 1.356 . S
N628 H634 0.984 . S
N628 H635 0.984 . S
N629 C622 1.356 1_556 S
N629 H632 0.984 . S
N629 H633 0.985 1_556 S
H630 N625 0.984 . S
H631 N625 0.985 . S
H632 N629 0.984 . S
H633 N629 0.985 1_554 S
H634 N628 0.984 . S
H635 N628 0.984 . S
H636 N624 0.984 . S
H637 N624 0.985 . S
C638 C639 1.363 . S
C638 C644 1.379 . S
C638 N646 1.356 . S
C639 C638 1.363 . S
C639 C645 1.363 . S
C640 C641 1.363 . S
C640 C645 1.379 . S
C640 N647 1.356 . S
C641 C640 1.363 . S
C641 C644 1.363 . S
N642 C644 1.356 . S
N642 H654 0.984 . S
N642 H655 0.985 . S
N643 C645 1.356 . S
N643 H648 0.984 . S
N643 H649 0.985 . S
C644 C638 1.379 . S
C644 C641 1.363 . S
C644 N642 1.356 . S
C645 C639 1.363 . S
C645 C640 1.379 . S
C645 N643 1.356 . S
N646 C638 1.356 . S
N646 H652 0.984 . S
N646 H653 0.984 . S
N647 C640 1.356 . S
N647 H650 0.984 . S
N647 H651 0.985 . S
H648 N643 0.984 . S
H649 N643 0.985 . S
H650 N647 0.984 . S
H651 N647 0.985 . S
H652 N646 0.984 . S
H653 N646 0.984 . S
H654 N642 0.984 . S
H655 N642 0.985 . S
C656 C657 1.363 . S
C656 C662 1.379 1_554 S
C656 N664 1.356 . S
C657 C656 1.363 . S
C657 C663 1.363 . S
C658 C659 1.363 . S
C658 C663 1.379 1_556 S
C658 N665 1.356 . S
C659 C658 1.363 . S
C659 C662 1.363 . S
N660 C662 1.356 . S
N660 H672 0.984 . S
N660 H673 0.985 . S
N661 C663 1.356 . S
N661 H666 0.984 . S
N661 H667 0.985 . S
C662 C656 1.379 1_556 S
C662 C659 1.363 . S
C662 N660 1.356 . S
C663 C657 1.363 . S
C663 C658 1.379 1_554 S
C663 N661 1.356 . S
N664 C656 1.356 . S
N664 H670 0.984 . S
N664 H671 0.984 . S
N665 C658 1.356 . S
N665 H668 0.984 . S
N665 H669 0.985 . S
H666 N661 0.984 . S
H667 N661 0.985 . S
H668 N665 0.984 . S
H669 N665 0.985 . S
H670 N664 0.984 . S
H671 N664 0.984 . S
H672 N660 0.984 . S
H673 N660 0.985 . S
C674 C675 1.363 . S
C674 C680 1.379 . S
C674 N682 1.356 . S
C675 C674 1.363 . S
C675 C681 1.363 . S
C676 C677 1.363 . S
C676 C681 1.379 . S
C676 N683 1.356 . S
C677 C676 1.363 . S
C677 C680 1.363 . S
N678 C680 1.356 . S
N678 H690 0.984 . S
N678 H691 0.985 . S
N679 C681 1.356 . S
N679 H684 0.984 . S
N679 H685 0.985 . S
C680 C674 1.379 . S
C680 C677 1.363 . S
C680 N678 1.356 . S
C681 C675 1.363 . S
C681 C676 1.379 . S
C681 N679 1.356 . S
N682 C674 1.356 . S
N682 H688 0.984 . S
N682 H689 0.984 . S
N683 C676 1.356 . S
N683 H686 0.984 . S
N683 H687 0.985 . S
H684 N679 0.984 . S
H685 N679 0.985 . S
H686 N683 0.984 . S
H687 N683 0.985 . S
H688 N682 0.984 . S
H689 N682 0.984 . S
H690 N678 0.984 . S
H691 N678 0.985 . S
C692 C693 1.363 . S
C692 C698 1.379 1_556 S
C692 N700 1.356 . S
C693 C692 1.363 . S
C693 C699 1.363 . S
C694 C695 1.363 . S
C694 C699 1.379 1_554 S
C694 N701 1.356 . S
C695 C694 1.363 . S
C695 C698 1.363 . S
N696 C698 1.356 . S
N696 H708 0.984 . S
N696 H709 0.985 . S
N697 C699 1.356 . S
N697 H702 0.984 . S
N697 H703 0.985 . S
C698 C692 1.379 1_554 S
C698 C695 1.363 . S
C698 N696 1.356 . S
C699 C693 1.363 . S
C699 C694 1.379 1_556 S
C699 N697 1.356 . S
N700 C692 1.356 . S
N700 H706 0.984 . S
N700 H707 0.984 . S
N701 C694 1.356 . S
N701 H704 0.984 . S
N701 H705 0.985 . S
H702 N697 0.984 . S
H703 N697 0.985 . S
H704 N701 0.984 . S
H705 N701 0.985 . S
H706 N700 0.984 . S
H707 N700 0.984 . S
H708 N696 0.984 . S
H709 N696 0.985 . S
C710 C711 1.363 . S
C710 C716 1.379 . S
C710 N718 1.356 . S
C711 C710 1.363 . S
C711 C717 1.363 . S
C712 C713 1.363 . S
C712 C717 1.379 . S
C712 N719 1.356 . S
C713 C712 1.363 . S
C713 C716 1.363 . S
N714 C716 1.356 . S
N714 H726 0.984 . S
N714 H727 0.985 . S
N715 C717 1.356 . S
N715 H720 0.984 . S
N715 H721 0.985 . S
C716 C710 1.379 . S
C716 C713 1.363 . S
C716 N714 1.356 . S
C717 C711 1.363 . S
C717 C712 1.379 . S
C717 N715 1.356 . S
N718 C710 1.356 . S
N718 H724 0.984 . S
N718 H725 0.984 . S
N719 C712 1.356 . S
N719 H722 0.984 . S
N719 H723 0.985 . S
H720 N715 0.984 . S
H721 N715 0.985 . S
H722 N719 0.984 . S
H723 N719 0.985 . S
H724 N718 0.984 . S
H725 N718 0.984 . S
H726 N714 0.984 . S
H727 N714 0.985 . S
C728 C729 1.363 . S
C728 C734 1.379 . S
C728 N736 1.356 . S
C729 C728 1.363 . S
C729 C735 1.363 . S
C730 C731 1.363 . S
C730 C735 1.379 . S
C730 N737 1.356 . S
C731 C730 1.363 . S
C731 C734 1.363 . S
N732 C734 1.356 . S
N732 H744 0.984 . S
N732 H745 0.985 . S
N733 C735 1.356 . S
N733 H738 0.984 . S
N733 H739 0.985 . S
C734 C728 1.379 . S
C734 C731 1.363 . S
C734 N732 1.356 . S
C735 C729 1.363 . S
C735 C730 1.379 . S
C735 N733 1.356 . S
N736 C728 1.356 . S
N736 H742 0.984 . S
N736 H743 0.984 . S
N737 C730 1.356 . S
N737 H740 0.985 . S
N737 H741 0.985 1_455 S
H738 N733 0.984 . S
H739 N733 0.985 . S
H740 N737 0.985 . S
H741 N737 0.985 1_655 S
H742 N736 0.984 . S
H743 N736 0.984 . S
H744 N732 0.984 . S
H745 N732 0.985 . S
C746 C747 1.363 . S
C746 C752 1.379 . S
C746 N754 1.356 . S
C747 C746 1.363 . S
C747 C753 1.363 . S
C748 C749 1.363 . S
C748 C753 1.379 . S
C748 N755 1.356 . S
C749 C748 1.363 . S
C749 C752 1.363 . S
N750 C752 1.356 . S
N750 H762 0.984 . S
N750 H763 0.985 . S
N751 C753 1.356 . S
N751 H756 0.984 . S
N751 H757 0.985 . S
C752 C746 1.379 . S
C752 C749 1.363 . S
C752 N750 1.356 . S
C753 C747 1.363 . S
C753 C748 1.379 . S
C753 N751 1.356 . S
N754 C746 1.356 . S
N754 H760 0.984 . S
N754 H761 0.984 . S
N755 C748 1.356 . S
N755 H758 0.984 . S
N755 H759 0.985 . S
H756 N751 0.984 . S
H757 N751 0.985 . S
H758 N755 0.984 . S
H759 N755 0.985 . S
H760 N754 0.984 . S
H761 N754 0.984 . S
H762 N750 0.984 . S
H763 N750 0.985 . S
C764 C765 1.363 . S
C764 C770 1.379 . S
C764 N772 1.356 . S
C765 C764 1.363 . S
C765 C771 1.363 . S
C766 C767 1.363 . S
C766 C771 1.379 . S
C766 N773 1.356 . S
C767 C766 1.363 . S
C767 C770 1.363 . S
N768 C770 1.356 . S
N768 H780 0.984 . S
N768 H781 0.985 . S
N769 C771 1.356 . S
N769 H774 0.984 . S
N769 H775 0.985 . S
C770 C764 1.379 . S
C770 C767 1.363 . S
C770 N768 1.356 . S
C771 C765 1.363 . S
C771 C766 1.379 . S
C771 N769 1.356 . S
N772 C764 1.356 . S
N772 H778 0.984 . S
N772 H779 0.984 . S
N773 C766 1.356 . S
N773 H776 0.984 . S
N773 H777 0.985 . S
H774 N769 0.984 . S
H775 N769 0.985 . S
H776 N773 0.984 . S
H777 N773 0.985 . S
H778 N772 0.984 . S
H779 N772 0.984 . S
H780 N768 0.984 . S
H781 N768 0.985 . S
C782 C783 1.363 . S
C782 C788 1.379 . S
C782 N790 1.356 . S
C783 C782 1.363 . S
C783 C789 1.363 . S
C784 C785 1.363 . S
C784 C789 1.379 . S
C784 N791 1.356 . S
C785 C784 1.363 . S
C785 C788 1.363 . S
N786 C788 1.356 . S
N786 H798 0.984 . S
N786 H799 0.985 . S
N787 C789 1.356 . S
N787 H792 0.984 . S
N787 H793 0.985 . S
C788 C782 1.379 . S
C788 C785 1.363 . S
C788 N786 1.356 . S
C789 C783 1.363 . S
C789 C784 1.379 . S
C789 N787 1.356 . S
N790 C782 1.356 . S
N790 H796 0.984 . S
N790 H797 0.984 . S
N791 C784 1.356 . S
N791 H794 0.984 . S
N791 H795 0.985 . S
H792 N787 0.984 . S
H793 N787 0.985 . S
H794 N791 0.984 . S
H795 N791 0.985 . S
H796 N790 0.984 . S
H797 N790 0.984 . S
H798 N786 0.984 . S
H799 N786 0.985 . S
C800 C801 1.363 . S
C800 C806 1.379 . S
C800 N808 1.356 . S
C801 C800 1.363 . S
C801 C807 1.363 . S
C802 C803 1.363 . S
C802 C807 1.379 . S
C802 N809 1.356 . S
C803 C802 1.363 . S
C803 C806 1.363 . S
N804 C806 1.356 . S
N804 H816 0.984 1_655 S
N804 H817 0.985 . S
N805 C807 1.356 . S
N805 H810 0.984 . S
N805 H811 0.985 . S
C806 C800 1.379 . S
C806 C803 1.363 . S
C806 N804 1.356 . S
C807 C801 1.363 . S
C807 C802 1.379 . S
C807 N805 1.356 . S
N808 C800 1.356 . S
N808 H814 0.984 . S
N808 H815 0.984 . S
N809 C802 1.356 . S
N809 H812 0.984 . S
N809 H813 0.985 . S
H810 N805 0.984 . S
H811 N805 0.985 . S
H812 N809 0.984 . S
H813 N809 0.985 . S
H814 N808 0.984 . S
H815 N808 0.984 . S
H816 N804 0.984 1_455 S
H817 N804 0.985 . S
C818 C819 1.363 . S
C818 C824 1.379 . S
C818 N826 1.356 . S
C819 C818 1.363 . S
C819 C825 1.363 . S
C820 C821 1.363 . S
C820 C825 1.379 . S
C820 N827 1.356 . S
C821 C820 1.363 . S
C821 C824 1.363 . S
N822 C824 1.356 . S
N822 H834 0.984 . S
N822 H835 0.985 . S
N823 C825 1.356 . S
N823 H828 0.984 . S
N823 H829 0.985 . S
C824 C818 1.379 . S
C824 C821 1.363 . S
C824 N822 1.356 . S
C825 C819 1.363 . S
C825 C820 1.379 . S
C825 N823 1.356 . S
N826 C818 1.356 . S
N826 H832 0.984 . S
N826 H833 0.984 . S
N827 C820 1.356 . S
N827 H830 0.984 . S
N827 H831 0.985 . S
H828 N823 0.984 . S
H829 N823 0.985 . S
H830 N827 0.984 . S
H831 N827 0.985 . S
H832 N826 0.984 . S
H833 N826 0.984 . S
H834 N822 0.984 . S
H835 N822 0.985 . S
C836 C837 1.363 . S
C836 C842 1.379 . S
C836 N844 1.356 . S
C837 C836 1.363 . S
C837 C843 1.363 . S
C838 C839 1.363 . S
C838 C843 1.379 . S
C838 N845 1.356 . S
C839 C838 1.363 . S
C839 C842 1.363 . S
N840 C842 1.356 . S
N840 H852 0.984 . S
N840 H853 0.985 . S
N841 C843 1.356 . S
N841 H846 0.984 . S
N841 H847 0.985 . S
C842 C836 1.379 . S
C842 C839 1.363 . S
C842 N840 1.356 . S
C843 C837 1.363 . S
C843 C838 1.379 . S
C843 N841 1.356 . S
N844 C836 1.356 . S
N844 H850 0.984 . S
N844 H851 0.984 . S
N845 C838 1.356 . S
N845 H848 0.984 . S
N845 H849 0.985 . S
H846 N841 0.984 . S
H847 N841 0.985 . S
H848 N845 0.984 . S
H849 N845 0.985 . S
H850 N844 0.984 . S
H851 N844 0.984 . S
H852 N840 0.984 . S
H853 N840 0.985 . S
C854 C855 1.363 . S
C854 C860 1.379 . S
C854 N862 1.356 . S
C855 C854 1.363 . S
C855 C861 1.363 . S
C856 C857 1.363 . S
C856 C861 1.379 . S
C856 N863 1.356 . S
C857 C856 1.363 . S
C857 C860 1.363 . S
N858 C860 1.356 . S
N858 H870 0.984 . S
N858 H871 0.985 . S
N859 C861 1.356 . S
N859 H864 0.984 . S
N859 H865 0.985 . S
C860 C854 1.379 . S
C860 C857 1.363 . S
C860 N858 1.356 . S
C861 C855 1.363 . S
C861 C856 1.379 . S
C861 N859 1.356 . S
N862 C854 1.356 . S
N862 H868 0.984 . S
N862 H869 0.984 . S
N863 C856 1.356 . S
N863 H866 0.984 . S
N863 H867 0.985 . S
H864 N859 0.984 . S
H865 N859 0.985 . S
H866 N863 0.984 . S
H867 N863 0.985 . S
H868 N862 0.984 . S
H869 N862 0.984 . S
H870 N858 0.984 . S
H871 N858 0.985 . S
C441 C86 1.630 . S
C443 C178 1.628 . S
C461 C262 1.670 . S
C459 C100 1.685 . S
C479 C255 1.621 . S
C477 C60 1.627 . S
C495 C74 1.680 . S
C497 C171 1.678 . S
C515 C335 1.669 . S
C513 C35 1.683 . S
C533 C419 1.628 . S
C531 C47 1.633 . S
C549 C9 1.678 . S
C551 C412 1.678 . S
C567 C21 1.631 . S
C569 C328 1.621 . S
C587 C162 1.433 . S
C585 C22 1.584 . S
C605 C246 1.416 . S
C603 C8 1.579 . S
C623 C257 1.355 . S
C621 C48 1.583 . S
C641 C173 1.360 . S
C639 C34 1.580 . S
C659 C341 1.416 . S
C657 C73 1.582 . S
C675 C61 1.582 . S
C677 C425 1.433 . S
C695 C414 1.360 . S
C693 C99 1.583 . S
C711 C87 1.582 . S
C713 C330 1.355 . S
C731 C160 1.574 . S
C729 C4 1.484 . S
C749 C244 1.495 . S
C747 C17 1.481 . S
C765 C30 1.485 . S
C767 C251 1.546 . S
C785 C167 1.469 . S
C783 C43 1.474 . S
C803 C339 1.495 . S
C801 C56 1.447 . S
C819 C69 1.518 . S
C821 C423 1.574 . S
C837 C82 1.444 . S
C839 C430 1.469 . S
C855 C95 1.513 . S
C857 C346 1.546 . S
